# Generated by pormake.
# Topology the, (3,8)-cn, num edge types: 1
# Building blocks:
#     Node 0, Type 0, BuildingBlock: KAKCAD_clean_linker_0, # of connection points: 3
#     Node 1, Type 0, BuildingBlock: KAKCAD_clean_linker_0, # of connection points: 3
#     Node 2, Type 0, BuildingBlock: KAKCAD_clean_linker_0, # of connection points: 3
#     Node 3, Type 0, BuildingBlock: KAKCAD_clean_linker_0, # of connection points: 3
#     Node 4, Type 0, BuildingBlock: KAKCAD_clean_linker_0, # of connection points: 3
#     Node 5, Type 0, BuildingBlock: KAKCAD_clean_linker_0, # of connection points: 3
#     Node 6, Type 0, BuildingBlock: KAKCAD_clean_linker_0, # of connection points: 3
#     Node 7, Type 0, BuildingBlock: KAKCAD_clean_linker_0, # of connection points: 3
#     Node 8, Type 1, BuildingBlock: GIZVER_clean_sbu_0, # of connection points: 8
#     Node 9, Type 1, BuildingBlock: GIZVER_clean_sbu_0, # of connection points: 8
#     Node 10, Type 1, BuildingBlock: GIZVER_clean_sbu_0, # of connection points: 8
#     Edge 11, Type (0, 1), BuildingBlock: KIFKEQ_clean_linker_1, # of connection points: 2
#     Edge 12, Type (0, 1), BuildingBlock: KIFKEQ_clean_linker_1, # of connection points: 2
#     Edge 13, Type (0, 1), BuildingBlock: KIFKEQ_clean_linker_1, # of connection points: 2
#     Edge 14, Type (0, 1), BuildingBlock: KIFKEQ_clean_linker_1, # of connection points: 2
#     Edge 15, Type (0, 1), BuildingBlock: KIFKEQ_clean_linker_1, # of connection points: 2
#     Edge 16, Type (0, 1), BuildingBlock: KIFKEQ_clean_linker_1, # of connection points: 2
#     Edge 17, Type (0, 1), BuildingBlock: KIFKEQ_clean_linker_1, # of connection points: 2
#     Edge 18, Type (0, 1), BuildingBlock: KIFKEQ_clean_linker_1, # of connection points: 2
#     Edge 19, Type (0, 1), BuildingBlock: KIFKEQ_clean_linker_1, # of connection points: 2
#     Edge 20, Type (0, 1), BuildingBlock: KIFKEQ_clean_linker_1, # of connection points: 2
#     Edge 21, Type (0, 1), BuildingBlock: KIFKEQ_clean_linker_1, # of connection points: 2
#     Edge 22, Type (0, 1), BuildingBlock: KIFKEQ_clean_linker_1, # of connection points: 2
#     Edge 23, Type (0, 1), BuildingBlock: KIFKEQ_clean_linker_1, # of connection points: 2
#     Edge 24, Type (0, 1), BuildingBlock: KIFKEQ_clean_linker_1, # of connection points: 2
#     Edge 25, Type (0, 1), BuildingBlock: KIFKEQ_clean_linker_1, # of connection points: 2
#     Edge 26, Type (0, 1), BuildingBlock: KIFKEQ_clean_linker_1, # of connection points: 2
#     Edge 27, Type (0, 1), BuildingBlock: KIFKEQ_clean_linker_1, # of connection points: 2
#     Edge 28, Type (0, 1), BuildingBlock: KIFKEQ_clean_linker_1, # of connection points: 2
#     Edge 29, Type (0, 1), BuildingBlock: KIFKEQ_clean_linker_1, # of connection points: 2
#     Edge 30, Type (0, 1), BuildingBlock: KIFKEQ_clean_linker_1, # of connection points: 2
#     Edge 31, Type (0, 1), BuildingBlock: KIFKEQ_clean_linker_1, # of connection points: 2
#     Edge 32, Type (0, 1), BuildingBlock: KIFKEQ_clean_linker_1, # of connection points: 2
#     Edge 33, Type (0, 1), BuildingBlock: KIFKEQ_clean_linker_1, # of connection points: 2
#     Edge 34, Type (0, 1), BuildingBlock: KIFKEQ_clean_linker_1, # of connection points: 2
# Relax obj value: 0.045
# Max RMSD: 0.139
# Mean RMSD: 0.067
data_MOF--net-the--node1-GIZVER_clean_sbu_0--node2-KAKCAD_clean_linker_0--edge1-KIFKEQ_clean_linker_1
_symmetry_space_group_name_H-M    P1
_symmetry_Int_Tables_number       1
_symmetry_cell_setting            triclinic
loop_
_symmetry_equiv_pos_as_xyz
'x, y, z'
_cell_length_a     50.961287
_cell_length_b     47.956639
_cell_length_c     44.250719
_cell_angle_alpha  86.963358
_cell_angle_beta   94.30727
_cell_angle_gamma 101.91156
loop_
_atom_site_label
_atom_site_type_symbol
_atom_site_fract_x
_atom_site_fract_y
_atom_site_fract_z
_atom_type_partial_charge
C0 C 0.33755 0.36967 0.28014 0.0
C1 C 0.3482 0.39904 0.28141 0.0
C2 C 0.32873 0.35396 0.30623 0.0
C3 C 0.32994 0.36757 0.33373 0.0
C4 C 0.34007 0.39705 0.33486 0.0
C5 C 0.34944 0.41264 0.30892 0.0
C6 C 0.32082 0.35106 0.36136 0.0
C7 C 0.33222 0.32792 0.37195 0.0
C8 C 0.32412 0.31264 0.39878 0.0
C9 C 0.30444 0.32089 0.4149 0.0
C10 C 0.29264 0.34389 0.40437 0.0
C11 C 0.30096 0.35878 0.37739 0.0
C12 C 0.27157 0.35231 0.4213 0.0
C13 C 0.253 0.33176 0.43684 0.0
C14 C 0.26953 0.38106 0.42152 0.0
C15 C 0.24881 0.38891 0.43563 0.0
C16 C 0.23003 0.36839 0.45094 0.0
C17 C 0.33617 0.2881 0.41 0.0
C18 C 0.34203 0.26917 0.38949 0.0
C19 C 0.34178 0.2833 0.44126 0.0
C20 C 0.3529 0.26005 0.45174 0.0
C21 C 0.35904 0.24152 0.43113 0.0
C22 C 0.35354 0.24622 0.39996 0.0
C23 C 0.23274 0.33976 0.45185 0.0
H24 H 0.33667 0.35878 0.25913 0.0
H25 H 0.32087 0.33124 0.30494 0.0
H26 H 0.34122 0.40787 0.35594 0.0
H27 H 0.35764 0.43529 0.31031 0.0
H28 H 0.34792 0.32239 0.35966 0.0
H29 H 0.2917 0.37612 0.36831 0.0
H30 H 0.29828 0.3093 0.43569 0.0
H31 H 0.25364 0.30934 0.43694 0.0
H32 H 0.28379 0.39765 0.41051 0.0
H33 H 0.24726 0.4111 0.43368 0.0
H34 H 0.33749 0.27189 0.36535 0.0
H35 H 0.33799 0.29774 0.45765 0.0
H36 H 0.21906 0.32335 0.46383 0.0
H37 H 0.35794 0.23196 0.38372 0.0
H38 H 0.35728 0.25691 0.47587 0.0
C39 C 0.77699 0.40146 0.35859 0.0
C40 C 0.79613 0.38559 0.3702 0.0
C41 C 0.75276 0.38812 0.34371 0.0
C42 C 0.74692 0.35848 0.33985 0.0
C43 C 0.7663 0.34268 0.35089 0.0
C44 C 0.79053 0.35603 0.36584 0.0
C45 C 0.72051 0.34411 0.32505 0.0
C46 C 0.70822 0.35747 0.30023 0.0
C47 C 0.68315 0.34428 0.28667 0.0
C48 C 0.67012 0.31768 0.29844 0.0
C49 C 0.68176 0.30408 0.32329 0.0
C50 C 0.70706 0.31724 0.33623 0.0
C51 C 0.66688 0.27655 0.33619 0.0
C52 C 0.64001 0.27371 0.34317 0.0
C53 C 0.67913 0.25287 0.34113 0.0
C54 C 0.66459 0.22671 0.3522 0.0
C55 C 0.63755 0.22372 0.35912 0.0
C56 C 0.67004 0.35831 0.26059 0.0
C57 C 0.66636 0.38643 0.26219 0.0
C58 C 0.65976 0.34306 0.23454 0.0
C59 C 0.64571 0.35545 0.21085 0.0
C60 C 0.64119 0.38321 0.21289 0.0
C61 C 0.65186 0.39865 0.23872 0.0
C62 C 0.62562 0.24778 0.35471 0.0
H63 H 0.78065 0.42431 0.36105 0.0
H64 H 0.73834 0.40104 0.33584 0.0
H65 H 0.76275 0.3199 0.34803 0.0
H66 H 0.8046 0.34301 0.37463 0.0
H67 H 0.71834 0.3779 0.29099 0.0
H68 H 0.71573 0.30699 0.3558 0.0
H69 H 0.65063 0.30761 0.28839 0.0
H70 H 0.63016 0.29173 0.34 0.0
H71 H 0.69978 0.25441 0.33573 0.0
H72 H 0.67449 0.20874 0.35478 0.0
H73 H 0.67392 0.39863 0.28205 0.0
H74 H 0.66238 0.32138 0.23265 0.0
H75 H 0.60518 0.24681 0.36047 0.0
H76 H 0.6488 0.42014 0.24086 0.0
H77 H 0.63759 0.34295 0.19135 0.0
C78 C 0.6561 0.6487 0.25572 0.0
C79 C 0.64728 0.66341 0.22988 0.0
C80 C 0.67139 0.66353 0.27954 0.0
C81 C 0.67805 0.69348 0.2783 0.0
C82 C 0.66912 0.70831 0.25258 0.0
C83 C 0.65408 0.69339 0.22845 0.0
C84 C 0.69444 0.70888 0.30388 0.0
C85 C 0.71753 0.69968 0.31631 0.0
C86 C 0.73235 0.71241 0.34186 0.0
C87 C 0.72399 0.73505 0.35468 0.0
C88 C 0.70084 0.74462 0.34273 0.0
C89 C 0.68635 0.73154 0.31704 0.0
C90 C 0.69102 0.76708 0.3582 0.0
C91 C 0.69244 0.76745 0.39007 0.0
C92 C 0.67965 0.78792 0.34144 0.0
C93 C 0.66967 0.80831 0.35619 0.0
C94 C 0.67081 0.80841 0.38807 0.0
C95 C 0.75575 0.70107 0.35591 0.0
C96 C 0.75463 0.67149 0.35812 0.0
C97 C 0.77916 0.71943 0.3675 0.0
C98 C 0.80098 0.70843 0.38066 0.0
C99 C 0.79991 0.67886 0.38231 0.0
C100 C 0.77641 0.66057 0.37105 0.0
C101 C 0.68261 0.78788 0.40477 0.0
H102 H 0.65136 0.62561 0.25741 0.0
H103 H 0.67778 0.65151 0.29915 0.0
H104 H 0.67405 0.73139 0.25097 0.0
H105 H 0.64741 0.70529 0.20889 0.0
H106 H 0.72399 0.68248 0.30592 0.0
H107 H 0.66803 0.73801 0.30813 0.0
H108 H 0.73522 0.74484 0.37448 0.0
H109 H 0.70066 0.75154 0.40382 0.0
H110 H 0.67844 0.78849 0.31689 0.0
H111 H 0.66046 0.82357 0.34254 0.0
H112 H 0.73672 0.65665 0.35019 0.0
H113 H 0.78081 0.74233 0.36598 0.0
H114 H 0.68418 0.78746 0.42932 0.0
H115 H 0.7747 0.63765 0.37257 0.0
H116 H 0.81888 0.72307 0.38899 0.0
C117 C 0.32417 0.64347 0.23638 0.0
C118 C 0.35094 0.64015 0.24162 0.0
C119 C 0.31262 0.65811 0.2567 0.0
C120 C 0.32763 0.67001 0.2826 0.0
C121 C 0.35445 0.66686 0.28768 0.0
C122 C 0.36592 0.65208 0.26751 0.0
C123 C 0.31536 0.68551 0.30435 0.0
C124 C 0.28928 0.67445 0.31346 0.0
C125 C 0.27751 0.68863 0.33428 0.0
C126 C 0.29237 0.71447 0.34581 0.0
C127 C 0.3187 0.72561 0.33743 0.0
C128 C 0.32993 0.71101 0.31662 0.0
C129 C 0.33494 0.75195 0.35115 0.0
C130 C 0.32407 0.77639 0.35338 0.0
C131 C 0.3616 0.75267 0.36231 0.0
C132 C 0.37707 0.77718 0.37529 0.0
C133 C 0.36648 0.80191 0.37718 0.0
C134 C 0.25026 0.67571 0.34486 0.0
C135 C 0.23019 0.66024 0.32505 0.0
C136 C 0.24436 0.67775 0.37517 0.0
C137 C 0.21936 0.66435 0.38545 0.0
C138 C 0.19973 0.64822 0.36583 0.0
C139 C 0.20535 0.64649 0.33547 0.0
C140 C 0.33968 0.80112 0.3661 0.0
H141 H 0.31202 0.63441 0.21678 0.0
H142 H 0.29197 0.66034 0.25198 0.0
H143 H 0.36651 0.67551 0.30752 0.0
H144 H 0.38668 0.65023 0.27208 0.0
H145 H 0.27855 0.65413 0.3051 0.0
H146 H 0.35 0.7198 0.30963 0.0
H147 H 0.28368 0.72576 0.36175 0.0
H148 H 0.30363 0.77654 0.34479 0.0
H149 H 0.37041 0.73404 0.36146 0.0
H150 H 0.3973 0.77652 0.38427 0.0
H151 H 0.23363 0.65863 0.30142 0.0
H152 H 0.25933 0.68898 0.39132 0.0
H153 H 0.33084 0.81973 0.3668 0.0
H154 H 0.19048 0.63449 0.31973 0.0
H155 H 0.21572 0.6658 0.40907 0.0
C156 C 0.22989 0.6485 0.69865 0.0
C157 C 0.22525 0.64736 0.66689 0.0
C158 C 0.255 0.66153 0.71182 0.0
C159 C 0.27608 0.67406 0.69362 0.0
C160 C 0.27151 0.67301 0.66193 0.0
C161 C 0.2465 0.65974 0.64875 0.0
C162 C 0.30253 0.68877 0.70761 0.0
C163 C 0.31508 0.67623 0.73277 0.0
C164 C 0.33994 0.69027 0.74624 0.0
C165 C 0.35167 0.71753 0.7346 0.0
C166 C 0.33972 0.73016 0.70929 0.0
C167 C 0.31527 0.71557 0.6958 0.0
C168 C 0.35325 0.7584 0.69673 0.0
C169 C 0.36291 0.7812 0.71593 0.0
C170 C 0.35766 0.76238 0.66572 0.0
C171 C 0.37211 0.78835 0.65428 0.0
C172 C 0.38221 0.81117 0.67352 0.0
C173 C 0.35417 0.67657 0.77195 0.0
C174 C 0.33996 0.65949 0.79471 0.0
C175 C 0.38244 0.68094 0.77414 0.0
C176 C 0.3961 0.6695 0.79875 0.0
C177 C 0.38195 0.65289 0.82166 0.0
C178 C 0.3537 0.64762 0.81919 0.0
C179 C 0.37702 0.80731 0.70445 0.0
H180 H 0.21401 0.63967 0.71344 0.0
H181 H 0.25775 0.66232 0.7363 0.0
H182 H 0.28743 0.68214 0.64727 0.0
H183 H 0.24402 0.65881 0.62429 0.0
H184 H 0.30582 0.65514 0.74118 0.0
H185 H 0.30579 0.72551 0.67656 0.0
H186 H 0.37045 0.72899 0.74501 0.0
H187 H 0.35953 0.77883 0.73989 0.0
H188 H 0.35069 0.74506 0.65046 0.0
H189 H 0.37602 0.79018 0.63047 0.0
H190 H 0.31824 0.65577 0.79403 0.0
H191 H 0.39418 0.69315 0.75672 0.0
H192 H 0.38385 0.82445 0.71993 0.0
H193 H 0.34227 0.63492 0.83657 0.0
H194 H 0.41786 0.67344 0.7997 0.0
C195 C 0.33862 0.35461 0.80651 0.0
C196 C 0.3668 0.36016 0.81036 0.0
C197 C 0.3252 0.33914 0.78195 0.0
C198 C 0.33964 0.32922 0.76028 0.0
C199 C 0.36791 0.33477 0.76433 0.0
C200 C 0.38128 0.34984 0.78914 0.0
C201 C 0.32538 0.31373 0.73329 0.0
C202 C 0.30194 0.32126 0.71923 0.0
C203 C 0.28869 0.30737 0.69342 0.0
C204 C 0.29925 0.2857 0.68154 0.0
C205 C 0.3228 0.27805 0.69485 0.0
C206 C 0.33553 0.29195 0.72087 0.0
C207 C 0.33481 0.25657 0.68059 0.0
C208 C 0.31865 0.23111 0.66986 0.0
C209 C 0.3625 0.26201 0.67647 0.0
C210 C 0.3737 0.2428 0.66147 0.0
C211 C 0.35754 0.21753 0.65035 0.0
C212 C 0.26452 0.3164 0.67812 0.0
C213 C 0.24464 0.32323 0.69516 0.0
C214 C 0.26148 0.31898 0.64629 0.0
C215 C 0.23948 0.32872 0.63192 0.0
C216 C 0.21993 0.33619 0.64897 0.0
C217 C 0.22262 0.33297 0.68077 0.0
C218 C 0.32992 0.21172 0.65507 0.0
H219 H 0.32691 0.36205 0.82266 0.0
H220 H 0.30345 0.33488 0.78009 0.0
H221 H 0.37988 0.32809 0.74795 0.0
H222 H 0.40304 0.35413 0.79127 0.0
H223 H 0.29451 0.33877 0.72764 0.0
H224 H 0.35328 0.28551 0.73156 0.0
H225 H 0.28939 0.2751 0.66149 0.0
H226 H 0.29727 0.22621 0.67287 0.0
H227 H 0.37547 0.28152 0.6842 0.0
H228 H 0.3951 0.24774 0.65855 0.0
H229 H 0.24618 0.32119 0.71969 0.0
H230 H 0.27649 0.3142 0.63241 0.0
H231 H 0.31693 0.1925 0.6467 0.0
H232 H 0.20813 0.33881 0.69466 0.0
H233 H 0.23793 0.33065 0.60739 0.0
C234 C 0.68716 0.22423 0.67229 0.0
C235 C 0.66187 0.22443 0.65734 0.0
C236 C 0.70122 0.24823 0.68765 0.0
C237 C 0.68993 0.27252 0.6889 0.0
C238 C 0.66439 0.27237 0.67449 0.0
C239 C 0.65062 0.2487 0.65867 0.0
C240 C 0.70485 0.29837 0.7044 0.0
C241 C 0.73116 0.31093 0.69707 0.0
C242 C 0.74442 0.33687 0.70953 0.0
C243 C 0.73148 0.34964 0.73036 0.0
C244 C 0.70539 0.3371 0.73848 0.0
C245 C 0.69216 0.31154 0.72514 0.0
C246 C 0.69176 0.35117 0.76021 0.0
C247 C 0.70592 0.36354 0.78634 0.0
C248 C 0.66454 0.35266 0.75477 0.0
C249 C 0.65182 0.36618 0.77491 0.0
C250 C 0.66593 0.37852 0.80109 0.0
C251 C 0.77112 0.35161 0.69946 0.0
C252 C 0.79213 0.33687 0.69824 0.0
C253 C 0.77558 0.38066 0.69061 0.0
C254 C 0.80045 0.39471 0.68071 0.0
C255 C 0.82171 0.38018 0.67975 0.0
C256 C 0.8172 0.35103 0.68868 0.0
C257 C 0.69318 0.37704 0.80653 0.0
H258 H 0.69627 0.2058 0.6715 0.0
H259 H 0.72087 0.24779 0.69863 0.0
H260 H 0.6553 0.29087 0.6749 0.0
H261 H 0.6311 0.24933 0.64746 0.0
H262 H 0.74075 0.3013 0.68047 0.0
H263 H 0.67201 0.30166 0.73108 0.0
H264 H 0.74162 0.3697 0.73987 0.0
H265 H 0.72682 0.36247 0.79142 0.0
H266 H 0.65315 0.34384 0.73461 0.0
H267 H 0.63097 0.36736 0.76966 0.0
H268 H 0.78927 0.31448 0.70509 0.0
H269 H 0.75961 0.39246 0.69079 0.0
H270 H 0.70458 0.38596 0.82663 0.0
H271 H 0.8331 0.33916 0.68865 0.0
H272 H 0.80277 0.41691 0.6733 0.0
C273 C 0.64277 0.63197 0.71935 0.0
C274 C 0.65958 0.61977 0.74052 0.0
C275 C 0.6528 0.64628 0.693 0.0
C276 C 0.68006 0.64932 0.68737 0.0
C277 C 0.69679 0.63684 0.70837 0.0
C278 C 0.68662 0.622 0.73437 0.0
C279 C 0.6913 0.66628 0.66038 0.0
C280 C 0.68183 0.69082 0.64966 0.0
C281 C 0.69364 0.70786 0.62556 0.0
C282 C 0.71517 0.70052 0.61218 0.0
C283 C 0.72484 0.67616 0.62239 0.0
C284 C 0.71251 0.65888 0.64608 0.0
C285 C 0.74889 0.66989 0.60953 0.0
C286 C 0.75226 0.6734 0.57821 0.0
C287 C 0.7693 0.66164 0.62885 0.0
C288 C 0.79267 0.65721 0.61719 0.0
C289 C 0.79626 0.66107 0.58595 0.0
C290 C 0.68416 0.73397 0.61483 0.0
C291 C 0.65675 0.73299 0.60732 0.0
C292 C 0.70261 0.75991 0.61146 0.0
C293 C 0.69379 0.78452 0.60084 0.0
C294 C 0.66641 0.78352 0.5931 0.0
C295 C 0.64796 0.75754 0.59633 0.0
C296 C 0.77574 0.66902 0.56652 0.0
H297 H 0.62192 0.63113 0.72336 0.0
H298 H 0.63915 0.65514 0.67719 0.0
H299 H 0.71798 0.63902 0.70522 0.0
H300 H 0.70013 0.61248 0.74974 0.0
H301 H 0.66601 0.69745 0.66075 0.0
H302 H 0.71958 0.63965 0.65339 0.0
H303 H 0.7247 0.71415 0.5941 0.0
H304 H 0.73676 0.67953 0.56274 0.0
H305 H 0.76747 0.65913 0.65313 0.0
H306 H 0.80787 0.65051 0.63269 0.0
H307 H 0.6422 0.71316 0.6096 0.0
H308 H 0.72385 0.76118 0.6173 0.0
H309 H 0.77795 0.67218 0.54235 0.0
H310 H 0.62669 0.75635 0.59083 0.0
H311 H 0.70838 0.80431 0.59851 0.0
Co312 Co 0.06239 0.47865 0.54317 0.0
Co313 Co 0.03722 0.4701 0.48877 0.0
Co314 Co 0.01065 0.51244 0.52244 0.0
O315 O 0.02616 0.47727 0.52667 0.0
H316 H 0.01364 0.46089 0.53426 0.0
O317 O 0.99515 0.54743 0.51802 0.0
Co318 Co 0.95845 0.54461 0.50286 0.0
Co319 Co 0.98525 0.5554 0.55607 0.0
H320 H 1.00721 0.56367 0.50946 0.0
O321 O 0.04547 0.43532 0.47975 0.0
O322 O 0.07286 0.47213 0.5025 0.0
O323 O 0.0378 0.49949 0.45705 0.0
O324 O 0.03563 0.53171 0.49046 0.0
O325 O 0.98318 0.49289 0.49083 0.0
O326 O 0.92547 0.54492 0.48789 0.0
O327 O 0.96107 0.58162 0.48954 0.0
O328 O 0.95074 0.50552 0.51341 0.0
O329 O 0.98613 0.49337 0.55488 0.0
O330 O 0.98449 0.52611 0.58801 0.0
O331 O 0.94957 0.55377 0.54319 0.0
O332 O 0.97816 0.59108 0.56361 0.0
C333 C 0.08396 0.45 0.56326 0.0
C334 C 0.06269 0.53426 0.55265 0.0
C335 C 0.04223 0.52519 0.46482 0.0
C336 C 0.06924 0.44737 0.49055 0.0
C337 C 0.93579 0.57151 0.48157 0.0
C338 C 0.95816 0.48964 0.4951 0.0
C339 C 0.97996 0.50027 0.58056 0.0
C340 C 0.95419 0.57946 0.55302 0.0
O341 O 0.09461 0.47681 0.55904 0.0
O342 O 0.05883 0.4407 0.55398 0.0
O343 O 0.03748 0.53203 0.55424 0.0
O344 O 0.07126 0.51831 0.53541 0.0
Co345 Co 0.54371 0.95997 0.50052 0.0
Co346 Co 0.55712 0.9845 0.55311 0.0
Co347 Co 0.51374 0.01398 0.51683 0.0
O348 O 0.54659 0.99779 0.51447 0.0
H349 H 0.56124 0.01135 0.50609 0.0
O350 O 0.48087 0.03017 0.51895 0.0
Co351 Co 0.48377 0.06792 0.53299 0.0
Co352 Co 0.47066 0.0436 0.48008 0.0
H353 H 0.46615 0.01659 0.5272 0.0
O354 O 0.59148 0.97685 0.56227 0.0
O355 O 0.55519 0.94759 0.54161 0.0
O356 O 0.53175 0.98046 0.584 0.0
O357 O 0.49836 0.98651 0.55062 0.0
O358 O 0.53472 0.04161 0.54695 0.0
O359 O 0.48366 0.10179 0.54682 0.0
O360 O 0.44957 0.06359 0.54475 0.0
O361 O 0.51987 0.07747 0.52371 0.0
O362 O 0.52918 0.04165 0.48327 0.0
O363 O 0.49639 0.04792 0.4492 0.0
O364 O 0.47275 0.08046 0.49191 0.0
O365 O 0.4364 0.05171 0.47076 0.0
C366 C 0.5685 0.93788 0.48152 0.0
C367 C 0.49083 0.95944 0.49128 0.0
C368 C 0.50683 0.97728 0.57643 0.0
C369 C 0.57997 0.95194 0.55256 0.0
C370 C 0.45904 0.08999 0.55221 0.0
C371 C 0.53668 0.06844 0.54231 0.0
C372 C 0.52119 0.05127 0.45744 0.0
C373 C 0.44808 0.07647 0.48071 0.0
O374 O 0.54389 0.92606 0.48689 0.0
O375 O 0.57782 0.96442 0.48852 0.0
O376 O 0.49279 0.9863 0.48672 0.0
O377 O 0.50757 0.95037 0.50998 0.0
Co378 Co 0.4776 0.52865 0.07761 0.0
Co379 Co 0.46484 0.47731 0.05801 0.0
Co380 Co 0.50867 0.51408 0.01678 0.0
O381 O 0.47542 0.51249 0.03865 0.0
H382 H 0.46079 0.51704 0.02543 0.0
O383 O 0.5418 0.5157 0.99464 0.0
Co384 Co 0.53914 0.49865 0.95601 0.0
Co385 Co 0.55252 0.55043 0.97433 0.0
H386 H 0.5565 0.51127 1.00784 0.0
O387 O 0.42981 0.46416 0.06774 0.0
O388 O 0.46351 0.49051 0.09632 0.0
O389 O 0.49009 0.45254 0.06245 0.0
O390 O 0.52368 0.48537 0.04522 0.0
O391 O 0.48778 0.48274 0.9908 0.0
O392 O 0.53938 0.48178 0.92147 0.0
O393 O 0.57257 0.49059 0.95836 0.0
O394 O 0.50347 0.50384 0.94861 0.0
O395 O 0.49379 0.54287 0.9884 0.0
O396 O 0.52751 0.57545 0.97089 0.0
O397 O 0.55253 0.53633 0.93605 0.0
O398 O 0.58726 0.5632 0.96254 0.0
C399 C 0.4532 0.54692 0.10211 0.0
C400 C 0.53105 0.54141 0.07198 0.0
C401 C 0.51499 0.46183 0.05974 0.0
C402 C 0.43901 0.47572 0.09331 0.0
C403 C 0.56338 0.47967 0.93225 0.0
C404 C 0.48564 0.48608 0.96199 0.0
C405 C 0.50263 0.5665 0.9741 0.0
C406 C 0.57702 0.55118 0.93752 0.0
O407 O 0.47718 0.54456 0.11266 0.0
O408 O 0.44416 0.53697 0.07552 0.0
O409 O 0.52944 0.54524 0.04316 0.0
O410 O 0.51312 0.52319 0.08474 0.0
H411 H 0.22873 0.41913 0.47612 0.0
H412 H 0.17873 0.3368 0.45637 0.0
H413 H 0.18987 0.43629 0.48781 0.0
H414 H 0.14029 0.35259 0.47283 0.0
H415 H 0.07091 0.39929 0.4608 0.0
H416 H 0.10959 0.37813 0.45609 0.0
H417 H 0.1573 0.44075 0.5159 0.0
H418 H 0.12007 0.46433 0.51605 0.0
C419 C 0.20949 0.40445 0.4747 0.0
C420 C 0.20697 0.37683 0.46419 0.0
C421 C 0.18701 0.41414 0.48227 0.0
C422 C 0.16141 0.39607 0.48095 0.0
C423 C 0.15932 0.3676 0.47311 0.0
C424 C 0.18169 0.35825 0.4643 0.0
C425 C 0.08978 0.40856 0.47273 0.0
C426 C 0.09226 0.43331 0.48912 0.0
C427 C 0.11201 0.39613 0.47048 0.0
C428 C 0.13701 0.40757 0.48554 0.0
C429 C 0.13891 0.43163 0.50306 0.0
C430 C 0.11717 0.4449 0.50383 0.0
H431 H 0.65557 0.18245 0.39618 0.0
H432 H 0.58352 0.20115 0.34881 0.0
H433 H 0.62977 0.13776 0.41585 0.0
H434 H 0.55739 0.15787 0.37066 0.0
H435 H 0.51554 0.06994 0.39796 0.0
H436 H 0.54509 0.10868 0.37174 0.0
H437 H 0.59971 0.11948 0.45187 0.0
H438 H 0.57102 0.07991 0.47719 0.0
C439 C 0.63426 0.17712 0.38982 0.0
C440 C 0.62179 0.19582 0.37092 0.0
C441 C 0.61928 0.15153 0.40158 0.0
C442 C 0.59126 0.14397 0.3952 0.0
C443 C 0.57889 0.16248 0.37592 0.0
C444 C 0.59392 0.18781 0.36378 0.0
C445 C 0.53416 0.08023 0.40969 0.0
C446 C 0.54085 0.07172 0.43968 0.0
C447 C 0.55103 0.10275 0.39479 0.0
C448 C 0.5748 0.11777 0.40967 0.0
C449 C 0.58191 0.10841 0.43929 0.0
C450 C 0.56531 0.0856 0.45396 0.0
H451 H 0.82082 0.63708 0.35967 0.0
H452 H 0.83146 0.69338 0.4346 0.0
H453 H 0.85578 0.61376 0.38311 0.0
H454 H 0.86666 0.66979 0.45826 0.0
H455 H 0.94417 0.63031 0.47684 0.0
H456 H 0.91335 0.65921 0.45222 0.0
H457 H 0.85646 0.58218 0.42895 0.0
H458 H 0.88684 0.55369 0.45292 0.0
C459 C 0.83067 0.64449 0.38117 0.0
C460 C 0.82308 0.66678 0.3955 0.0
C461 C 0.85073 0.63116 0.39458 0.0
C462 C 0.86373 0.6397 0.42272 0.0
C463 C 0.85709 0.66286 0.43648 0.0
C464 C 0.83693 0.67631 0.42297 0.0
C465 C 0.92517 0.61968 0.46619 0.0
C466 C 0.9181 0.58973 0.46651 0.0
C467 C 0.90747 0.63618 0.45235 0.0
C468 C 0.88264 0.62294 0.43831 0.0
C469 C 0.87564 0.59305 0.439 0.0
C470 C 0.89306 0.5767 0.45294 0.0
H471 H 0.35103 0.84103 0.41226 0.0
H472 H 0.42055 0.82266 0.37311 0.0
H473 H 0.37979 0.88164 0.43754 0.0
H474 H 0.44907 0.8623 0.39941 0.0
H475 H 0.48991 0.90279 0.48817 0.0
H476 H 0.4591 0.86766 0.45835 0.0
H477 H 0.41494 0.93176 0.42466 0.0
H478 H 0.44658 0.96778 0.45431 0.0
C479 C 0.37229 0.84576 0.40865 0.0
C480 C 0.38341 0.82809 0.3909 0.0
C481 C 0.38874 0.86903 0.42321 0.0
C482 C 0.41666 0.87494 0.42062 0.0
C483 C 0.42764 0.85801 0.40209 0.0
C484 C 0.41125 0.83509 0.38724 0.0
C485 C 0.47377 0.90967 0.47441 0.0
C486 C 0.47092 0.9383 0.47351 0.0
C487 C 0.45613 0.88944 0.45723 0.0
C488 C 0.43478 0.89701 0.43902 0.0
C489 C 0.4313 0.9254 0.43854 0.0
C490 C 0.44941 0.94598 0.45541 0.0
H491 H 0.19865 0.66237 0.61385 0.0
H492 H 0.19116 0.59923 0.68777 0.0
H493 H 0.15707 0.6365 0.5891 0.0
H494 H 0.14888 0.57448 0.664 0.0
H495 H 0.0985 0.51653 0.59339 0.0
H496 H 0.13576 0.54521 0.62215 0.0
H497 H 0.10861 0.62159 0.58907 0.0
H498 H 0.07151 0.59222 0.55892 0.0
C499 C 0.18812 0.64309 0.62498 0.0
C500 C 0.19863 0.63282 0.65276 0.0
C501 C 0.16396 0.62848 0.61096 0.0
C502 C 0.14956 0.60323 0.62437 0.0
C503 C 0.15957 0.59357 0.65267 0.0
C504 C 0.18376 0.60804 0.66656 0.0
C505 C 0.10049 0.5394 0.59214 0.0
C506 C 0.08238 0.55214 0.57356 0.0
C507 C 0.1217 0.55595 0.60906 0.0
C508 C 0.1254 0.58585 0.60801 0.0
C509 C 0.10661 0.59864 0.59018 0.0
C510 C 0.0852 0.58189 0.57319 0.0
H511 H 0.39287 0.23118 0.60598 0.0
H512 H 0.34918 0.15907 0.65634 0.0
H513 H 0.41487 0.19953 0.58035 0.0
H514 H 0.37163 0.12722 0.63099 0.0
H515 H 0.40478 0.07619 0.56153 0.0
H516 H 0.37787 0.10628 0.58306 0.0
H517 H 0.44883 0.17284 0.59481 0.0
H518 H 0.47523 0.14344 0.57306 0.0
C519 C 0.38806 0.20853 0.61168 0.0
C520 C 0.36957 0.19771 0.63352 0.0
C521 C 0.40068 0.19035 0.59699 0.0
C522 C 0.39536 0.16082 0.6039 0.0
C523 C 0.3761 0.14981 0.62495 0.0
C524 C 0.36329 0.16806 0.63956 0.0
C525 C 0.41454 0.09725 0.56876 0.0
C526 C 0.44217 0.10734 0.56558 0.0
C527 C 0.39916 0.11447 0.58115 0.0
C528 C 0.41112 0.14212 0.59048 0.0
C529 C 0.43875 0.15196 0.58732 0.0
C530 C 0.45399 0.13491 0.57501 0.0
H531 H 0.85641 0.35946 0.6462 0.0
H532 H 0.84737 0.43563 0.68889 0.0
H533 H 0.8984 0.38513 0.62673 0.0
H534 H 0.88803 0.46181 0.66746 0.0
H535 H 0.96959 0.50241 0.6402 0.0
H536 H 0.9347 0.4708 0.66758 0.0
H537 H 0.91342 0.41907 0.58885 0.0
H538 H 0.94906 0.44974 0.56228 0.0
C539 C 0.86338 0.38162 0.65163 0.0
C540 C 0.84819 0.39543 0.66898 0.0
C541 C 0.88737 0.39652 0.64005 0.0
C542 C 0.89671 0.42573 0.6452 0.0
C543 C 0.88186 0.4393 0.66322 0.0
C544 C 0.85811 0.42433 0.67511 0.0
C545 C 0.95782 0.48391 0.62904 0.0
C546 C 0.96209 0.47869 0.59903 0.0
C547 C 0.93758 0.4659 0.64461 0.0
C548 C 0.92077 0.44251 0.63037 0.0
C549 C 0.92601 0.43657 0.60085 0.0
C550 C 0.94652 0.45429 0.58548 0.0
H551 H 0.63275 0.79089 0.54377 0.0
H552 H 0.67872 0.83498 0.61922 0.0
H553 H 0.61458 0.83332 0.52891 0.0
H554 H 0.66003 0.87699 0.60517 0.0
H555 H 0.63389 0.95504 0.56457 0.0
H556 H 0.65765 0.91559 0.56917 0.0
H557 H 0.58277 0.85645 0.54894 0.0
H558 H 0.55931 0.89577 0.54357 0.0
C559 C 0.63894 0.80972 0.55711 0.0
C560 C 0.65693 0.80971 0.58273 0.0
C561 C 0.62855 0.83395 0.54868 0.0
C562 C 0.63569 0.85846 0.566 0.0
C563 C 0.65441 0.85866 0.59105 0.0
C564 C 0.66502 0.83456 0.59923 0.0
C565 C 0.62259 0.93361 0.56096 0.0
C566 C 0.59471 0.92844 0.55408 0.0
C567 C 0.63617 0.91102 0.56361 0.0
C568 C 0.62209 0.88285 0.55964 0.0
C569 C 0.59433 0.87789 0.55178 0.0
C570 C 0.58081 0.90044 0.54899 0.0
H571 H 0.34201 0.19992 0.47385 0.0
H572 H 0.40485 0.22977 0.41263 0.0
H573 H 0.36303 0.15942 0.49038 0.0
H574 H 0.42591 0.18971 0.4293 0.0
H575 H 0.46997 0.13241 0.48908 0.0
H576 H 0.44774 0.1728 0.48124 0.0
H577 H 0.37219 0.11546 0.46002 0.0
H578 H 0.39442 0.07472 0.46769 0.0
C579 C 0.3604 0.19786 0.46419 0.0
C580 C 0.37186 0.21769 0.44195 0.0
C581 C 0.37228 0.17478 0.47351 0.0
C582 C 0.39603 0.1717 0.46112 0.0
C583 C 0.4077 0.19187 0.43933 0.0
C584 C 0.39561 0.21458 0.42966 0.0
C585 C 0.44857 0.12832 0.48303 0.0
C586 C 0.43397 0.10045 0.47849 0.0
C587 C 0.43591 0.15143 0.47858 0.0
C588 C 0.40841 0.14708 0.46985 0.0
C589 C 0.39345 0.11921 0.46685 0.0
C590 C 0.40619 0.09601 0.47098 0.0
H591 H 0.84747 0.37516 0.36978 0.0
H592 H 0.80189 0.42805 0.41071 0.0
H593 H 0.88784 0.39737 0.40007 0.0
H594 H 0.84215 0.45091 0.43971 0.0
H595 H 0.90827 0.46623 0.51211 0.0
H596 H 0.87059 0.43965 0.48192 0.0
H597 H 0.92127 0.44208 0.40745 0.0
H598 H 0.95958 0.46845 0.43837 0.0
C599 C 0.846 0.39151 0.38517 0.0
C600 C 0.82125 0.39969 0.38774 0.0
C601 C 0.86926 0.40446 0.40231 0.0
C602 C 0.86832 0.42581 0.42261 0.0
C603 C 0.84365 0.43421 0.42478 0.0
C604 C 0.82052 0.42132 0.40773 0.0
C605 C 0.91154 0.46088 0.4894 0.0
C606 C 0.93691 0.46975 0.47755 0.0
C607 C 0.88981 0.44578 0.47194 0.0
C608 C 0.89259 0.43924 0.44191 0.0
C609 C 0.91834 0.44675 0.43048 0.0
C610 C 0.94033 0.46183 0.44818 0.0
H611 H 0.67166 0.86506 0.37302 0.0
H612 H 0.64246 0.7984 0.43908 0.0
H613 H 0.64905 0.89742 0.39717 0.0
H614 H 0.62109 0.83102 0.46388 0.0
H615 H 0.62058 0.95434 0.46426 0.0
H616 H 0.64791 0.92415 0.44365 0.0
H617 H 0.58213 0.85162 0.45052 0.0
H618 H 0.55528 0.88125 0.47113 0.0
C619 C 0.66059 0.85733 0.39276 0.0
C620 C 0.65876 0.82899 0.4039 0.0
C621 C 0.64794 0.87602 0.40684 0.0
C622 C 0.6331 0.86677 0.43233 0.0
C623 C 0.63202 0.83874 0.44402 0.0
C624 C 0.64458 0.82009 0.42996 0.0
C625 C 0.61206 0.93194 0.46136 0.0
C626 C 0.58568 0.92031 0.46915 0.0
C627 C 0.62766 0.91467 0.44949 0.0
C628 C 0.61724 0.88543 0.44553 0.0
C629 C 0.59098 0.87391 0.45367 0.0
C630 C 0.57545 0.89107 0.46527 0.0
H631 H 0.16556 0.66779 0.40058 0.0
H632 H 0.17584 0.5926 0.35732 0.0
H633 H 0.1242 0.64101 0.42105 0.0
H634 H 0.13533 0.56537 0.37873 0.0
H635 H 0.05358 0.52364 0.40541 0.0
H636 H 0.08874 0.55558 0.37878 0.0
H637 H 0.10889 0.60662 0.45812 0.0
H638 H 0.07292 0.5756 0.48394 0.0
C639 C 0.15898 0.64547 0.39555 0.0
C640 C 0.17393 0.6323 0.37734 0.0
C641 C 0.1353 0.63002 0.40739 0.0
C642 C 0.12621 0.60084 0.40174 0.0
C643 C 0.14115 0.58786 0.38316 0.0
C644 C 0.16456 0.60344 0.37096 0.0
C645 C 0.06517 0.54205 0.41689 0.0
C646 C 0.06043 0.54698 0.44684 0.0
C647 C 0.0856 0.56024 0.40175 0.0
C648 C 0.10218 0.58358 0.41634 0.0
C649 C 0.09652 0.58918 0.44584 0.0
C650 C 0.07581 0.57127 0.46077 0.0
H651 H 0.37696 0.83822 0.61753 0.0
H652 H 0.42537 0.84627 0.70233 0.0
H653 H 0.40607 0.88043 0.59696 0.0
H654 H 0.45314 0.88972 0.68259 0.0
H655 H 0.51798 0.94206 0.62424 0.0
H656 H 0.48687 0.9042 0.64901 0.0
H657 H 0.42029 0.93022 0.59671 0.0
H658 H 0.45171 0.96747 0.57085 0.0
C659 C 0.39367 0.84904 0.63194 0.0
C660 C 0.39879 0.83845 0.6616 0.0
C661 C 0.41018 0.87367 0.62026 0.0
C662 C 0.43214 0.8887 0.63801 0.0
C663 C 0.43675 0.8786 0.66798 0.0
C664 C 0.42046 0.85378 0.67953 0.0
C665 C 0.49668 0.94009 0.61833 0.0
C666 C 0.48743 0.9578 0.59536 0.0
C667 C 0.47871 0.9183 0.63269 0.0
C668 C 0.45092 0.91378 0.62478 0.0
C669 C 0.44155 0.93253 0.60295 0.0
C670 C 0.45958 0.95415 0.58832 0.0
H671 H 0.22305 0.37517 0.60136 0.0
H672 H 0.16677 0.32648 0.66227 0.0
H673 H 0.18823 0.39925 0.57906 0.0
H674 H 0.13196 0.35138 0.6403 0.0
H675 H 0.07216 0.39117 0.57172 0.0
H676 H 0.10353 0.36042 0.59055 0.0
H677 H 0.16687 0.43492 0.60204 0.0
H678 H 0.13615 0.46523 0.58384 0.0
C679 C 0.20315 0.36924 0.60971 0.0
C680 C 0.19781 0.34897 0.63378 0.0
C681 C 0.18323 0.38325 0.59708 0.0
C682 C 0.15744 0.37741 0.60816 0.0
C683 C 0.15163 0.35625 0.63126 0.0
C684 C 0.17166 0.34225 0.64404 0.0
C685 C 0.09273 0.40088 0.57854 0.0
C686 C 0.10157 0.43066 0.57624 0.0
C687 C 0.11066 0.38332 0.58924 0.0
C688 C 0.13774 0.39528 0.59738 0.0
C689 C 0.1463 0.425 0.59542 0.0
C690 C 0.12851 0.44241 0.58515 0.0
H691 H 0.64811 0.16824 0.67627 0.0
H692 H 0.64286 0.22535 0.59848 0.0
H693 H 0.61981 0.12905 0.6482 0.0
H694 H 0.61587 0.18632 0.56992 0.0
H695 H 0.53969 0.12557 0.5421 0.0
H696 H 0.57159 0.16112 0.56949 0.0
H697 H 0.61334 0.09623 0.60753 0.0
H698 H 0.58011 0.05982 0.58059 0.0
C699 C 0.64128 0.17221 0.65297 0.0
C700 C 0.64728 0.19985 0.63964 0.0
C701 C 0.62518 0.14977 0.63681 0.0
C702 C 0.61506 0.15451 0.60688 0.0
C703 C 0.6225 0.18194 0.59319 0.0
C704 C 0.63812 0.20434 0.60945 0.0
C705 C 0.55564 0.11865 0.55619 0.0
C706 C 0.55729 0.08971 0.55902 0.0
C707 C 0.57422 0.13926 0.5718 0.0
C708 C 0.59545 0.1318 0.59048 0.0
C709 C 0.5972 0.10279 0.59346 0.0
C710 C 0.57826 0.08192 0.57793 0.0
H711 H 0.84768 0.67696 0.61013 0.0
H712 H 0.80097 0.63358 0.53454 0.0
H713 H 0.88718 0.6612 0.59584 0.0
H714 H 0.84101 0.61909 0.51917 0.0
H715 H 0.90081 0.55837 0.54154 0.0
H716 H 0.86416 0.58348 0.54216 0.0
H717 H 0.92115 0.66183 0.56071 0.0
H718 H 0.95801 0.6364 0.56069 0.0
C719 C 0.84599 0.66446 0.59013 0.0
C720 C 0.82109 0.65589 0.57392 0.0
C721 C 0.86875 0.6558 0.58164 0.0
C722 C 0.86713 0.63856 0.5566 0.0
C723 C 0.84272 0.63191 0.53893 0.0
C724 C 0.81986 0.64044 0.54757 0.0
C725 C 0.90557 0.58101 0.54548 0.0
C726 C 0.93224 0.59533 0.5516 0.0
C727 C 0.88455 0.59551 0.54547 0.0
C728 C 0.88974 0.62465 0.55158 0.0
C729 C 0.91652 0.63928 0.55634 0.0
C730 C 0.93759 0.62472 0.55643 0.0
H731 H 0.39884 0.42925 0.27607 0.0
H732 H 0.32229 0.40453 0.22609 0.0
H733 H 0.41873 0.45148 0.23019 0.0
H734 H 0.34151 0.42831 0.18027 0.0
H735 H 0.39342 0.43515 0.09907 0.0
H736 H 0.36979 0.42032 0.14453 0.0
H737 H 0.42315 0.48786 0.19312 0.0
H738 H 0.44806 0.50119 0.14809 0.0
C739 C 0.38618 0.42925 0.25527 0.0
C740 C 0.35919 0.41511 0.25434 0.0
C741 C 0.39746 0.44217 0.22897 0.0
C742 C 0.38181 0.44166 0.20131 0.0
C743 C 0.35437 0.42859 0.20092 0.0
C744 C 0.34326 0.41513 0.22712 0.0
C745 C 0.39998 0.44701 0.11938 0.0
C746 C 0.42273 0.46925 0.11998 0.0
C747 C 0.38623 0.43866 0.1455 0.0
C748 C 0.39458 0.45273 0.17274 0.0
C749 C 0.41649 0.47604 0.17282 0.0
C750 C 0.43063 0.48394 0.14685 0.0
H751 H 0.42369 0.68185 0.85706 0.0
H752 H 0.37408 0.59812 0.84567 0.0
H753 H 0.45063 0.66294 0.89783 0.0
H754 H 0.40169 0.5787 0.88572 0.0
H755 H 0.44726 0.55306 0.97108 0.0
H756 H 0.41621 0.5751 0.93778 0.0
H757 H 0.48349 0.63539 0.9032 0.0
H758 H 0.51414 0.61429 0.93707 0.0
C759 C 0.41861 0.65932 0.86329 0.0
C760 C 0.39693 0.64142 0.848 0.0
C761 C 0.43414 0.64839 0.8866 0.0
C762 C 0.4287 0.61913 0.89497 0.0
C763 C 0.4064 0.60138 0.88026 0.0
C764 C 0.3906 0.61245 0.85717 0.0
C765 C 0.45536 0.57137 0.95677 0.0
C766 C 0.48329 0.58183 0.95687 0.0
C767 C 0.43754 0.58385 0.93739 0.0
C768 C 0.4472 0.60703 0.91753 0.0
C769 C 0.47508 0.61794 0.91841 0.0
C770 C 0.4928 0.60565 0.93785 0.0
H771 H 0.35842 0.41097 0.82865 0.0
H772 H 0.40783 0.34851 0.84935 0.0
H773 H 0.38403 0.44103 0.86821 0.0
H774 H 0.43335 0.37852 0.88907 0.0
H775 H 0.45867 0.43147 0.975 0.0
H776 H 0.42734 0.39989 0.9406 0.0
H777 H 0.43315 0.46816 0.8723 0.0
H778 H 0.46459 0.49938 0.90623 0.0
C779 C 0.3745 0.40349 0.84195 0.0
C780 C 0.38118 0.37743 0.83582 0.0
C781 C 0.38923 0.42075 0.86449 0.0
C782 C 0.41068 0.41211 0.88175 0.0
C783 C 0.41678 0.38561 0.87632 0.0
C784 C 0.40234 0.36857 0.85343 0.0
C785 C 0.45289 0.43979 0.95281 0.0
C786 C 0.46413 0.46785 0.94326 0.0
C787 C 0.43514 0.42169 0.93307 0.0
C788 C 0.42785 0.43156 0.90375 0.0
C789 C 0.43823 0.46 0.8948 0.0
C790 C 0.45632 0.47783 0.91421 0.0
H791 H 0.61491 0.36142 0.81981 0.0
H792 H 0.68585 0.42808 0.83109 0.0
H793 H 0.5915 0.38586 0.85262 0.0
H794 H 0.66235 0.45247 0.86426 0.0
H795 H 0.61575 0.47327 0.94458 0.0
H796 H 0.64171 0.44854 0.91437 0.0
H797 H 0.57404 0.42982 0.84866 0.0
H798 H 0.54826 0.45397 0.8786 0.0
C799 C 0.6255 0.38136 0.82916 0.0
C800 C 0.6522 0.39288 0.82248 0.0
C801 C 0.61208 0.39536 0.84805 0.0
C802 C 0.62498 0.42126 0.86087 0.0
C803 C 0.65192 0.43244 0.85495 0.0
C804 C 0.66537 0.41844 0.83593 0.0
C805 C 0.60648 0.46383 0.9237 0.0
C806 C 0.57985 0.46543 0.91418 0.0
C807 C 0.62137 0.44979 0.90633 0.0
C808 C 0.60983 0.43693 0.87926 0.0
C809 C 0.58337 0.43896 0.86967 0.0
C810 C 0.56863 0.45302 0.88683 0.0
H811 H 0.60907 0.58838 0.75008 0.0
H812 H 0.68646 0.61938 0.79675 0.0
H813 H 0.59102 0.5699 0.79788 0.0
H814 H 0.66913 0.59832 0.84402 0.0
H815 H 0.62091 0.59314 0.92776 0.0
H816 H 0.64196 0.60698 0.8804 0.0
H817 H 0.58865 0.53595 0.8372 0.0
H818 H 0.56631 0.52356 0.88407 0.0
C819 C 0.62236 0.59107 0.77044 0.0
C820 C 0.64919 0.60579 0.76937 0.0
C821 C 0.6121 0.57991 0.79792 0.0
C822 C 0.62852 0.58263 0.82507 0.0
C823 C 0.65566 0.59627 0.82379 0.0
C824 C 0.66577 0.60795 0.79641 0.0
C825 C 0.61383 0.58034 0.90821 0.0
C826 C 0.59186 0.55731 0.90969 0.0
C827 C 0.62607 0.58814 0.88099 0.0
C828 C 0.617 0.57273 0.85469 0.0
C829 C 0.59582 0.5488 0.85667 0.0
C830 C 0.58318 0.54143 0.88373 0.0
H831 H 0.60363 0.62031 0.23489 0.0
H832 H 0.65342 0.67 0.16856 0.0
H833 H 0.5776 0.59182 0.19499 0.0
H834 H 0.6278 0.64076 0.12828 0.0
H835 H 0.55672 0.59723 0.06216 0.0
H836 H 0.58554 0.62804 0.09916 0.0
H837 H 0.58176 0.55592 0.16274 0.0
H838 H 0.55233 0.52587 0.1265 0.0
C839 C 0.60913 0.62498 0.21171 0.0
C840 C 0.63072 0.64722 0.20492 0.0
C841 C 0.5943 0.60852 0.18876 0.0
C842 C 0.60084 0.61353 0.15831 0.0
C843 C 0.62208 0.63631 0.15138 0.0
C844 C 0.63679 0.65305 0.17445 0.0
C845 C 0.56245 0.58802 0.08392 0.0
C846 C 0.55205 0.55926 0.0916 0.0
C847 C 0.57895 0.60563 0.10516 0.0
C848 C 0.58555 0.59469 0.13432 0.0
C849 C 0.57642 0.56543 0.14101 0.0
C850 C 0.55973 0.54807 0.12009 0.0
H851 H 0.38289 0.6014 0.2558 0.0
H852 H 0.3469 0.64281 0.17925 0.0
H853 H 0.40535 0.57744 0.2215 0.0
H854 H 0.36969 0.61898 0.14474 0.0
H855 H 0.4004 0.55264 0.09114 0.0
H856 H 0.37356 0.57332 0.12432 0.0
H857 H 0.44191 0.59127 0.18929 0.0
H858 H 0.46822 0.57042 0.15686 0.0
C859 C 0.37987 0.6055 0.23162 0.0
C860 C 0.36334 0.62431 0.22033 0.0
C861 C 0.39276 0.59175 0.2119 0.0
C862 C 0.38964 0.59652 0.18029 0.0
C863 C 0.3724 0.61462 0.1689 0.0
C864 C 0.35938 0.62833 0.1887 0.0
C865 C 0.40961 0.56103 0.11251 0.0
C866 C 0.43647 0.55982 0.12128 0.0
C867 C 0.39427 0.57296 0.13149 0.0
C868 C 0.40547 0.58378 0.15966 0.0
C869 C 0.43237 0.58265 0.16814 0.0
C870 C 0.44758 0.57083 0.14931 0.0
H871 H 0.59909 0.40865 0.22043 0.0
H872 H 0.64465 0.38484 0.15116 0.0
H873 H 0.56945 0.42631 0.18127 0.0
H874 H 0.61507 0.40294 0.11185 0.0
H875 H 0.57022 0.472 0.05877 0.0
H876 H 0.60182 0.45275 0.09449 0.0
H877 H 0.53531 0.40109 0.13938 0.0
H878 H 0.5038 0.41967 0.10374 0.0
C879 C 0.60294 0.4075 0.19683 0.0
C880 C 0.6242 0.39536 0.18889 0.0
C881 C 0.58586 0.41741 0.17441 0.0
C882 C 0.58988 0.41588 0.1435 0.0
C883 C 0.61155 0.40444 0.13549 0.0
C884 C 0.62837 0.39399 0.15796 0.0
C885 C 0.56232 0.45615 0.0759 0.0
C886 C 0.53439 0.44747 0.07828 0.0
C887 C 0.58044 0.44516 0.09636 0.0
C888 C 0.571 0.42568 0.11993 0.0
C889 C 0.54316 0.41634 0.12168 0.0
C890 C 0.52511 0.42688 0.10102 0.0
loop_
_geom_bond_atom_site_label_1
_geom_bond_atom_site_label_2
_geom_bond_distance
_geom_bond_site_symmetry_2
_ccdc_geom_bond_type
C0 C1 1.386 . S
C0 C2 1.397 . S
C0 H24 0.931 . S
C1 C0 1.386 . S
C1 C5 1.397 . S
C2 C0 1.397 . S
C2 C3 1.384 . S
C2 H25 0.930 . S
C3 C2 1.384 . S
C3 C4 1.377 . S
C3 C6 1.481 . S
C4 C3 1.377 . S
C4 C5 1.389 . S
C4 H26 0.929 . S
C5 C1 1.397 . S
C5 C4 1.389 . S
C5 H27 0.931 . S
C6 C3 1.481 . S
C6 C7 1.387 . S
C6 C11 1.390 . S
C7 C6 1.387 . S
C7 C8 1.401 . S
C7 H28 0.930 . S
C8 C7 1.401 . S
C8 C9 1.376 . S
C8 C17 1.511 . S
C9 C8 1.376 . S
C9 C10 1.392 . S
C9 H30 0.931 . S
C10 C9 1.392 . S
C10 C11 1.361 . S
C10 C12 1.500 . S
C11 C6 1.390 . S
C11 C10 1.361 . S
C11 H29 0.931 . S
C12 C10 1.500 . S
C12 C13 1.371 . S
C12 C14 1.365 . S
C13 C12 1.371 . S
C13 C23 1.386 . S
C13 H31 0.931 . S
C14 C12 1.365 . S
C14 C15 1.409 . S
C14 H32 0.929 . S
C15 C14 1.409 . S
C15 C16 1.380 . S
C15 H33 0.930 . S
C16 C15 1.380 . S
C16 C23 1.357 . S
C17 C8 1.511 . S
C17 C18 1.341 . S
C17 C19 1.371 . S
C18 C17 1.341 . S
C18 C22 1.394 . S
C18 H34 0.930 . S
C19 C17 1.371 . S
C19 C20 1.392 . S
C19 H35 0.931 . S
C20 C19 1.392 . S
C20 C21 1.331 . S
C20 H38 0.932 . S
C21 C20 1.331 . S
C21 C22 1.336 . S
C22 C18 1.394 . S
C22 C21 1.336 . S
C22 H37 0.929 . S
C23 C13 1.386 . S
C23 C16 1.357 . S
C23 H36 0.928 . S
H24 C0 0.931 . S
H25 C2 0.930 . S
H26 C4 0.929 . S
H27 C5 0.931 . S
H28 C7 0.930 . S
H29 C11 0.931 . S
H30 C9 0.931 . S
H31 C13 0.931 . S
H32 C14 0.929 . S
H33 C15 0.930 . S
H34 C18 0.930 . S
H35 C19 0.931 . S
H36 C23 0.928 . S
H37 C22 0.929 . S
H38 C20 0.932 . S
C39 C40 1.386 . S
C39 C41 1.397 . S
C39 H63 0.931 . S
C40 C39 1.386 . S
C40 C44 1.397 . S
C41 C39 1.397 . S
C41 C42 1.384 . S
C41 H64 0.930 . S
C42 C41 1.384 . S
C42 C43 1.377 . S
C42 C45 1.481 . S
C43 C42 1.377 . S
C43 C44 1.389 . S
C43 H65 0.929 . S
C44 C40 1.397 . S
C44 C43 1.389 . S
C44 H66 0.931 . S
C45 C42 1.481 . S
C45 C46 1.387 . S
C45 C50 1.390 . S
C46 C45 1.387 . S
C46 C47 1.401 . S
C46 H67 0.930 . S
C47 C46 1.401 . S
C47 C48 1.376 . S
C47 C56 1.511 . S
C48 C47 1.376 . S
C48 C49 1.392 . S
C48 H69 0.931 . S
C49 C48 1.392 . S
C49 C50 1.361 . S
C49 C51 1.500 . S
C50 C45 1.390 . S
C50 C49 1.361 . S
C50 H68 0.931 . S
C51 C49 1.500 . S
C51 C52 1.371 . S
C51 C53 1.365 . S
C52 C51 1.371 . S
C52 C62 1.386 . S
C52 H70 0.931 . S
C53 C51 1.365 . S
C53 C54 1.409 . S
C53 H71 0.929 . S
C54 C53 1.409 . S
C54 C55 1.380 . S
C54 H72 0.930 . S
C55 C54 1.380 . S
C55 C62 1.357 . S
C56 C47 1.511 . S
C56 C57 1.341 . S
C56 C58 1.371 . S
C57 C56 1.341 . S
C57 C61 1.394 . S
C57 H73 0.930 . S
C58 C56 1.371 . S
C58 C59 1.392 . S
C58 H74 0.931 . S
C59 C58 1.392 . S
C59 C60 1.331 . S
C59 H77 0.932 . S
C60 C59 1.331 . S
C60 C61 1.336 . S
C61 C57 1.394 . S
C61 C60 1.336 . S
C61 H76 0.929 . S
C62 C52 1.386 . S
C62 C55 1.357 . S
C62 H75 0.928 . S
H63 C39 0.931 . S
H64 C41 0.930 . S
H65 C43 0.929 . S
H66 C44 0.931 . S
H67 C46 0.930 . S
H68 C50 0.931 . S
H69 C48 0.931 . S
H70 C52 0.931 . S
H71 C53 0.929 . S
H72 C54 0.930 . S
H73 C57 0.930 . S
H74 C58 0.931 . S
H75 C62 0.928 . S
H76 C61 0.929 . S
H77 C59 0.932 . S
C78 C79 1.386 . S
C78 C80 1.397 . S
C78 H102 0.931 . S
C79 C78 1.386 . S
C79 C83 1.397 . S
C80 C78 1.397 . S
C80 C81 1.384 . S
C80 H103 0.930 . S
C81 C80 1.384 . S
C81 C82 1.377 . S
C81 C84 1.481 . S
C82 C81 1.377 . S
C82 C83 1.389 . S
C82 H104 0.929 . S
C83 C79 1.397 . S
C83 C82 1.389 . S
C83 H105 0.931 . S
C84 C81 1.481 . S
C84 C85 1.387 . S
C84 C89 1.390 . S
C85 C84 1.387 . S
C85 C86 1.401 . S
C85 H106 0.930 . S
C86 C85 1.401 . S
C86 C87 1.376 . S
C86 C95 1.511 . S
C87 C86 1.376 . S
C87 C88 1.392 . S
C87 H108 0.931 . S
C88 C87 1.392 . S
C88 C89 1.361 . S
C88 C90 1.500 . S
C89 C84 1.390 . S
C89 C88 1.361 . S
C89 H107 0.931 . S
C90 C88 1.500 . S
C90 C91 1.371 . S
C90 C92 1.365 . S
C91 C90 1.371 . S
C91 C101 1.386 . S
C91 H109 0.931 . S
C92 C90 1.365 . S
C92 C93 1.409 . S
C92 H110 0.929 . S
C93 C92 1.409 . S
C93 C94 1.380 . S
C93 H111 0.930 . S
C94 C93 1.380 . S
C94 C101 1.357 . S
C95 C86 1.511 . S
C95 C96 1.341 . S
C95 C97 1.371 . S
C96 C95 1.341 . S
C96 C100 1.394 . S
C96 H112 0.930 . S
C97 C95 1.371 . S
C97 C98 1.392 . S
C97 H113 0.931 . S
C98 C97 1.392 . S
C98 C99 1.331 . S
C98 H116 0.932 . S
C99 C98 1.331 . S
C99 C100 1.336 . S
C100 C96 1.394 . S
C100 C99 1.336 . S
C100 H115 0.929 . S
C101 C91 1.386 . S
C101 C94 1.357 . S
C101 H114 0.928 . S
H102 C78 0.931 . S
H103 C80 0.930 . S
H104 C82 0.929 . S
H105 C83 0.931 . S
H106 C85 0.930 . S
H107 C89 0.931 . S
H108 C87 0.931 . S
H109 C91 0.931 . S
H110 C92 0.929 . S
H111 C93 0.930 . S
H112 C96 0.930 . S
H113 C97 0.931 . S
H114 C101 0.928 . S
H115 C100 0.929 . S
H116 C98 0.932 . S
C117 C118 1.386 . S
C117 C119 1.397 . S
C117 H141 0.931 . S
C118 C117 1.386 . S
C118 C122 1.397 . S
C119 C117 1.397 . S
C119 C120 1.384 . S
C119 H142 0.930 . S
C120 C119 1.384 . S
C120 C121 1.377 . S
C120 C123 1.481 . S
C121 C120 1.377 . S
C121 C122 1.389 . S
C121 H143 0.929 . S
C122 C118 1.397 . S
C122 C121 1.389 . S
C122 H144 0.931 . S
C123 C120 1.481 . S
C123 C124 1.387 . S
C123 C128 1.390 . S
C124 C123 1.387 . S
C124 C125 1.401 . S
C124 H145 0.930 . S
C125 C124 1.401 . S
C125 C126 1.376 . S
C125 C134 1.511 . S
C126 C125 1.376 . S
C126 C127 1.392 . S
C126 H147 0.931 . S
C127 C126 1.392 . S
C127 C128 1.361 . S
C127 C129 1.500 . S
C128 C123 1.390 . S
C128 C127 1.361 . S
C128 H146 0.931 . S
C129 C127 1.500 . S
C129 C130 1.371 . S
C129 C131 1.365 . S
C130 C129 1.371 . S
C130 C140 1.386 . S
C130 H148 0.931 . S
C131 C129 1.365 . S
C131 C132 1.409 . S
C131 H149 0.929 . S
C132 C131 1.409 . S
C132 C133 1.380 . S
C132 H150 0.930 . S
C133 C132 1.380 . S
C133 C140 1.357 . S
C134 C125 1.511 . S
C134 C135 1.341 . S
C134 C136 1.371 . S
C135 C134 1.341 . S
C135 C139 1.394 . S
C135 H151 0.930 . S
C136 C134 1.371 . S
C136 C137 1.392 . S
C136 H152 0.931 . S
C137 C136 1.392 . S
C137 C138 1.331 . S
C137 H155 0.932 . S
C138 C137 1.331 . S
C138 C139 1.336 . S
C139 C135 1.394 . S
C139 C138 1.336 . S
C139 H154 0.929 . S
C140 C130 1.386 . S
C140 C133 1.357 . S
C140 H153 0.928 . S
H141 C117 0.931 . S
H142 C119 0.930 . S
H143 C121 0.929 . S
H144 C122 0.931 . S
H145 C124 0.930 . S
H146 C128 0.931 . S
H147 C126 0.931 . S
H148 C130 0.931 . S
H149 C131 0.929 . S
H150 C132 0.930 . S
H151 C135 0.930 . S
H152 C136 0.931 . S
H153 C140 0.928 . S
H154 C139 0.929 . S
H155 C137 0.932 . S
C156 C157 1.386 . S
C156 C158 1.397 . S
C156 H180 0.931 . S
C157 C156 1.386 . S
C157 C161 1.397 . S
C158 C156 1.397 . S
C158 C159 1.384 . S
C158 H181 0.930 . S
C159 C158 1.384 . S
C159 C160 1.377 . S
C159 C162 1.481 . S
C160 C159 1.377 . S
C160 C161 1.389 . S
C160 H182 0.929 . S
C161 C157 1.397 . S
C161 C160 1.389 . S
C161 H183 0.931 . S
C162 C159 1.481 . S
C162 C163 1.387 . S
C162 C167 1.390 . S
C163 C162 1.387 . S
C163 C164 1.401 . S
C163 H184 0.930 . S
C164 C163 1.401 . S
C164 C165 1.376 . S
C164 C173 1.511 . S
C165 C164 1.376 . S
C165 C166 1.392 . S
C165 H186 0.931 . S
C166 C165 1.392 . S
C166 C167 1.361 . S
C166 C168 1.500 . S
C167 C162 1.390 . S
C167 C166 1.361 . S
C167 H185 0.931 . S
C168 C166 1.500 . S
C168 C169 1.371 . S
C168 C170 1.365 . S
C169 C168 1.371 . S
C169 C179 1.386 . S
C169 H187 0.931 . S
C170 C168 1.365 . S
C170 C171 1.409 . S
C170 H188 0.929 . S
C171 C170 1.409 . S
C171 C172 1.380 . S
C171 H189 0.930 . S
C172 C171 1.380 . S
C172 C179 1.357 . S
C173 C164 1.511 . S
C173 C174 1.341 . S
C173 C175 1.371 . S
C174 C173 1.341 . S
C174 C178 1.394 . S
C174 H190 0.930 . S
C175 C173 1.371 . S
C175 C176 1.392 . S
C175 H191 0.931 . S
C176 C175 1.392 . S
C176 C177 1.331 . S
C176 H194 0.932 . S
C177 C176 1.331 . S
C177 C178 1.336 . S
C178 C174 1.394 . S
C178 C177 1.336 . S
C178 H193 0.929 . S
C179 C169 1.386 . S
C179 C172 1.357 . S
C179 H192 0.928 . S
H180 C156 0.931 . S
H181 C158 0.930 . S
H182 C160 0.929 . S
H183 C161 0.931 . S
H184 C163 0.930 . S
H185 C167 0.931 . S
H186 C165 0.931 . S
H187 C169 0.931 . S
H188 C170 0.929 . S
H189 C171 0.930 . S
H190 C174 0.930 . S
H191 C175 0.931 . S
H192 C179 0.928 . S
H193 C178 0.929 . S
H194 C176 0.932 . S
C195 C196 1.386 . S
C195 C197 1.397 . S
C195 H219 0.931 . S
C196 C195 1.386 . S
C196 C200 1.397 . S
C197 C195 1.397 . S
C197 C198 1.384 . S
C197 H220 0.930 . S
C198 C197 1.384 . S
C198 C199 1.377 . S
C198 C201 1.481 . S
C199 C198 1.377 . S
C199 C200 1.389 . S
C199 H221 0.929 . S
C200 C196 1.397 . S
C200 C199 1.389 . S
C200 H222 0.931 . S
C201 C198 1.481 . S
C201 C202 1.387 . S
C201 C206 1.390 . S
C202 C201 1.387 . S
C202 C203 1.401 . S
C202 H223 0.930 . S
C203 C202 1.401 . S
C203 C204 1.376 . S
C203 C212 1.511 . S
C204 C203 1.376 . S
C204 C205 1.392 . S
C204 H225 0.931 . S
C205 C204 1.392 . S
C205 C206 1.361 . S
C205 C207 1.500 . S
C206 C201 1.390 . S
C206 C205 1.361 . S
C206 H224 0.931 . S
C207 C205 1.500 . S
C207 C208 1.371 . S
C207 C209 1.365 . S
C208 C207 1.371 . S
C208 C218 1.386 . S
C208 H226 0.931 . S
C209 C207 1.365 . S
C209 C210 1.409 . S
C209 H227 0.929 . S
C210 C209 1.409 . S
C210 C211 1.380 . S
C210 H228 0.930 . S
C211 C210 1.380 . S
C211 C218 1.357 . S
C212 C203 1.511 . S
C212 C213 1.341 . S
C212 C214 1.371 . S
C213 C212 1.341 . S
C213 C217 1.394 . S
C213 H229 0.930 . S
C214 C212 1.371 . S
C214 C215 1.392 . S
C214 H230 0.931 . S
C215 C214 1.392 . S
C215 C216 1.331 . S
C215 H233 0.932 . S
C216 C215 1.331 . S
C216 C217 1.336 . S
C217 C213 1.394 . S
C217 C216 1.336 . S
C217 H232 0.929 . S
C218 C208 1.386 . S
C218 C211 1.357 . S
C218 H231 0.928 . S
H219 C195 0.931 . S
H220 C197 0.930 . S
H221 C199 0.929 . S
H222 C200 0.931 . S
H223 C202 0.930 . S
H224 C206 0.931 . S
H225 C204 0.931 . S
H226 C208 0.931 . S
H227 C209 0.929 . S
H228 C210 0.930 . S
H229 C213 0.930 . S
H230 C214 0.931 . S
H231 C218 0.928 . S
H232 C217 0.929 . S
H233 C215 0.932 . S
C234 C235 1.386 . S
C234 C236 1.397 . S
C234 H258 0.931 . S
C235 C234 1.386 . S
C235 C239 1.397 . S
C236 C234 1.397 . S
C236 C237 1.384 . S
C236 H259 0.930 . S
C237 C236 1.384 . S
C237 C238 1.377 . S
C237 C240 1.481 . S
C238 C237 1.377 . S
C238 C239 1.389 . S
C238 H260 0.929 . S
C239 C235 1.397 . S
C239 C238 1.389 . S
C239 H261 0.931 . S
C240 C237 1.481 . S
C240 C241 1.387 . S
C240 C245 1.390 . S
C241 C240 1.387 . S
C241 C242 1.401 . S
C241 H262 0.930 . S
C242 C241 1.401 . S
C242 C243 1.376 . S
C242 C251 1.511 . S
C243 C242 1.376 . S
C243 C244 1.392 . S
C243 H264 0.931 . S
C244 C243 1.392 . S
C244 C245 1.361 . S
C244 C246 1.500 . S
C245 C240 1.390 . S
C245 C244 1.361 . S
C245 H263 0.931 . S
C246 C244 1.500 . S
C246 C247 1.371 . S
C246 C248 1.365 . S
C247 C246 1.371 . S
C247 C257 1.386 . S
C247 H265 0.931 . S
C248 C246 1.365 . S
C248 C249 1.409 . S
C248 H266 0.929 . S
C249 C248 1.409 . S
C249 C250 1.380 . S
C249 H267 0.930 . S
C250 C249 1.380 . S
C250 C257 1.357 . S
C251 C242 1.511 . S
C251 C252 1.341 . S
C251 C253 1.371 . S
C252 C251 1.341 . S
C252 C256 1.394 . S
C252 H268 0.930 . S
C253 C251 1.371 . S
C253 C254 1.392 . S
C253 H269 0.931 . S
C254 C253 1.392 . S
C254 C255 1.331 . S
C254 H272 0.932 . S
C255 C254 1.331 . S
C255 C256 1.336 . S
C256 C252 1.394 . S
C256 C255 1.336 . S
C256 H271 0.929 . S
C257 C247 1.386 . S
C257 C250 1.357 . S
C257 H270 0.928 . S
H258 C234 0.931 . S
H259 C236 0.930 . S
H260 C238 0.929 . S
H261 C239 0.931 . S
H262 C241 0.930 . S
H263 C245 0.931 . S
H264 C243 0.931 . S
H265 C247 0.931 . S
H266 C248 0.929 . S
H267 C249 0.930 . S
H268 C252 0.930 . S
H269 C253 0.931 . S
H270 C257 0.928 . S
H271 C256 0.929 . S
H272 C254 0.932 . S
C273 C274 1.386 . S
C273 C275 1.397 . S
C273 H297 0.931 . S
C274 C273 1.386 . S
C274 C278 1.397 . S
C275 C273 1.397 . S
C275 C276 1.384 . S
C275 H298 0.930 . S
C276 C275 1.384 . S
C276 C277 1.377 . S
C276 C279 1.481 . S
C277 C276 1.377 . S
C277 C278 1.389 . S
C277 H299 0.929 . S
C278 C274 1.397 . S
C278 C277 1.389 . S
C278 H300 0.931 . S
C279 C276 1.481 . S
C279 C280 1.387 . S
C279 C284 1.390 . S
C280 C279 1.387 . S
C280 C281 1.401 . S
C280 H301 0.930 . S
C281 C280 1.401 . S
C281 C282 1.376 . S
C281 C290 1.511 . S
C282 C281 1.376 . S
C282 C283 1.392 . S
C282 H303 0.931 . S
C283 C282 1.392 . S
C283 C284 1.361 . S
C283 C285 1.500 . S
C284 C279 1.390 . S
C284 C283 1.361 . S
C284 H302 0.931 . S
C285 C283 1.500 . S
C285 C286 1.371 . S
C285 C287 1.365 . S
C286 C285 1.371 . S
C286 C296 1.386 . S
C286 H304 0.931 . S
C287 C285 1.365 . S
C287 C288 1.409 . S
C287 H305 0.929 . S
C288 C287 1.409 . S
C288 C289 1.380 . S
C288 H306 0.930 . S
C289 C288 1.380 . S
C289 C296 1.357 . S
C290 C281 1.511 . S
C290 C291 1.341 . S
C290 C292 1.371 . S
C291 C290 1.341 . S
C291 C295 1.394 . S
C291 H307 0.930 . S
C292 C290 1.371 . S
C292 C293 1.392 . S
C292 H308 0.931 . S
C293 C292 1.392 . S
C293 C294 1.331 . S
C293 H311 0.932 . S
C294 C293 1.331 . S
C294 C295 1.336 . S
C295 C291 1.394 . S
C295 C294 1.336 . S
C295 H310 0.929 . S
C296 C286 1.386 . S
C296 C289 1.357 . S
C296 H309 0.928 . S
H297 C273 0.931 . S
H298 C275 0.930 . S
H299 C277 0.929 . S
H300 C278 0.931 . S
H301 C280 0.930 . S
H302 C284 0.931 . S
H303 C282 0.931 . S
H304 C286 0.931 . S
H305 C287 0.929 . S
H306 C288 0.930 . S
H307 C291 0.930 . S
H308 C292 0.931 . S
H309 C296 0.928 . S
H310 C295 0.929 . S
H311 C293 0.932 . S
Co312 O315 2.042 . S
Co312 O322 2.264 . S
Co312 O341 2.286 . S
Co312 O342 2.069 . S
Co312 O344 2.015 . S
Co313 O315 2.122 . S
Co313 O321 2.073 . S
Co313 O322 2.327 . S
Co313 O323 1.976 . S
Co314 O315 2.087 . S
Co314 O317 2.087 1_455 S
Co314 O324 2.111 . S
Co314 O325 2.143 1_455 S
Co314 O329 2.111 1_455 S
Co314 O343 2.143 . S
O315 Co312 2.042 . S
O315 Co313 2.122 . S
O315 Co314 2.087 . S
O315 H316 0.980 . S
H316 O315 0.980 . S
O317 Co314 2.087 1_655 S
O317 Co318 2.042 . S
O317 Co319 2.122 . S
O317 H320 0.980 . S
Co318 O317 2.042 . S
Co318 O326 2.286 . S
Co318 O327 2.069 . S
Co318 O328 2.015 . S
Co318 O331 2.264 . S
Co319 O317 2.122 . S
Co319 O330 1.976 . S
Co319 O331 2.327 . S
Co319 O332 2.073 . S
H320 O317 0.980 . S
O321 Co313 2.073 . S
O321 C336 1.245 . S
O322 Co312 2.264 . S
O322 Co313 2.327 . S
O322 C336 1.257 . S
O323 Co313 1.976 . S
O323 C335 1.251 . S
O324 Co314 2.111 . S
O324 C335 1.274 . S
O325 Co314 2.143 1_655 S
O325 C338 1.246 . S
O326 Co318 2.286 . S
O326 C337 1.259 . S
O327 Co318 2.069 . S
O327 C337 1.289 . S
O328 Co318 2.015 . S
O328 C338 1.257 . S
O329 Co314 2.111 1_655 S
O329 C339 1.274 . S
O330 Co319 1.976 . S
O330 C339 1.251 . S
O331 Co318 2.264 . S
O331 Co319 2.327 . S
O331 C340 1.257 . S
O332 Co319 2.073 . S
O332 C340 1.245 . S
C333 O341 1.259 . S
C333 O342 1.289 . S
C334 O343 1.246 . S
C334 O344 1.257 . S
C335 O323 1.251 . S
C335 O324 1.274 . S
C336 O321 1.245 . S
C336 O322 1.257 . S
C337 O326 1.259 . S
C337 O327 1.289 . S
C338 O325 1.246 . S
C338 O328 1.257 . S
C339 O329 1.274 . S
C339 O330 1.251 . S
C340 O331 1.257 . S
C340 O332 1.245 . S
O341 Co312 2.286 . S
O341 C333 1.259 . S
O342 Co312 2.069 . S
O342 C333 1.289 . S
O343 Co314 2.143 . S
O343 C334 1.246 . S
O344 Co312 2.015 . S
O344 C334 1.257 . S
Co345 O348 2.042 . S
Co345 O355 2.264 . S
Co345 O374 2.286 . S
Co345 O375 2.069 . S
Co345 O377 2.015 . S
Co346 O348 2.122 . S
Co346 O354 2.073 . S
Co346 O355 2.327 . S
Co346 O356 1.976 . S
Co347 O348 2.087 1_545 S
Co347 O350 2.087 . S
Co347 O357 2.111 1_545 S
Co347 O358 2.143 . S
Co347 O362 2.111 . S
Co347 O376 2.143 1_545 S
O348 Co345 2.042 . S
O348 Co346 2.122 . S
O348 Co347 2.087 1_565 S
O348 H349 0.980 . S
H349 O348 0.980 . S
O350 Co347 2.087 . S
O350 Co351 2.042 . S
O350 Co352 2.122 . S
O350 H353 0.980 . S
Co351 O350 2.042 . S
Co351 O359 2.286 . S
Co351 O360 2.069 . S
Co351 O361 2.015 . S
Co351 O364 2.264 . S
Co352 O350 2.122 . S
Co352 O363 1.976 . S
Co352 O364 2.327 . S
Co352 O365 2.073 . S
H353 O350 0.980 . S
O354 Co346 2.073 . S
O354 C369 1.245 . S
O355 Co345 2.264 . S
O355 Co346 2.327 . S
O355 C369 1.257 . S
O356 Co346 1.976 . S
O356 C368 1.251 . S
O357 Co347 2.111 1_565 S
O357 C368 1.274 . S
O358 Co347 2.143 . S
O358 C371 1.246 . S
O359 Co351 2.286 . S
O359 C370 1.259 . S
O360 Co351 2.069 . S
O360 C370 1.289 . S
O361 Co351 2.015 . S
O361 C371 1.257 . S
O362 Co347 2.111 . S
O362 C372 1.274 . S
O363 Co352 1.976 . S
O363 C372 1.251 . S
O364 Co351 2.264 . S
O364 Co352 2.327 . S
O364 C373 1.257 . S
O365 Co352 2.073 . S
O365 C373 1.245 . S
C366 O374 1.259 . S
C366 O375 1.289 . S
C367 O376 1.246 . S
C367 O377 1.257 . S
C368 O356 1.251 . S
C368 O357 1.274 . S
C369 O354 1.245 . S
C369 O355 1.257 . S
C370 O359 1.259 . S
C370 O360 1.289 . S
C371 O358 1.246 . S
C371 O361 1.257 . S
C372 O362 1.274 . S
C372 O363 1.251 . S
C373 O364 1.257 . S
C373 O365 1.245 . S
O374 Co345 2.286 . S
O374 C366 1.259 . S
O375 Co345 2.069 . S
O375 C366 1.289 . S
O376 Co347 2.143 1_565 S
O376 C367 1.246 . S
O377 Co345 2.015 . S
O377 C367 1.257 . S
Co378 O381 2.042 . S
Co378 O388 2.264 . S
Co378 O407 2.286 . S
Co378 O408 2.069 . S
Co378 O410 2.015 . S
Co379 O381 2.122 . S
Co379 O387 2.073 . S
Co379 O388 2.327 . S
Co379 O389 1.976 . S
Co380 O381 2.087 . S
Co380 O383 2.087 1_554 S
Co380 O390 2.111 . S
Co380 O391 2.143 1_554 S
Co380 O395 2.111 1_554 S
Co380 O409 2.143 . S
O381 Co378 2.042 . S
O381 Co379 2.122 . S
O381 Co380 2.087 . S
O381 H382 0.980 . S
H382 O381 0.980 . S
O383 Co380 2.087 1_556 S
O383 Co384 2.042 . S
O383 Co385 2.122 . S
O383 H386 0.980 . S
Co384 O383 2.042 . S
Co384 O392 2.286 . S
Co384 O393 2.069 . S
Co384 O394 2.015 . S
Co384 O397 2.264 . S
Co385 O383 2.122 . S
Co385 O396 1.976 . S
Co385 O397 2.327 . S
Co385 O398 2.073 . S
H386 O383 0.980 . S
O387 Co379 2.073 . S
O387 C402 1.245 . S
O388 Co378 2.264 . S
O388 Co379 2.327 . S
O388 C402 1.257 . S
O389 Co379 1.976 . S
O389 C401 1.251 . S
O390 Co380 2.111 . S
O390 C401 1.274 . S
O391 Co380 2.143 1_556 S
O391 C404 1.246 . S
O392 Co384 2.286 . S
O392 C403 1.259 . S
O393 Co384 2.069 . S
O393 C403 1.289 . S
O394 Co384 2.015 . S
O394 C404 1.257 . S
O395 Co380 2.111 1_556 S
O395 C405 1.274 . S
O396 Co385 1.976 . S
O396 C405 1.251 . S
O397 Co384 2.264 . S
O397 Co385 2.327 . S
O397 C406 1.257 . S
O398 Co385 2.073 . S
O398 C406 1.245 . S
C399 O407 1.259 . S
C399 O408 1.289 . S
C400 O409 1.246 . S
C400 O410 1.257 . S
C401 O389 1.251 . S
C401 O390 1.274 . S
C402 O387 1.245 . S
C402 O388 1.257 . S
C403 O392 1.259 . S
C403 O393 1.289 . S
C404 O391 1.246 . S
C404 O394 1.257 . S
C405 O395 1.274 . S
C405 O396 1.251 . S
C406 O397 1.257 . S
C406 O398 1.245 . S
O407 Co378 2.286 . S
O407 C399 1.259 . S
O408 Co378 2.069 . S
O408 C399 1.289 . S
O409 Co380 2.143 . S
O409 C400 1.246 . S
O410 Co378 2.015 . S
O410 C400 1.257 . S
H411 C419 0.950 . S
H412 C424 0.950 . S
H413 C421 0.950 . S
H414 C423 0.950 . S
H415 C425 0.950 . S
H416 C427 0.950 . S
H417 C429 0.950 . S
H418 C430 0.950 . S
C419 H411 0.950 . S
C419 C420 1.386 . S
C419 C421 1.391 . S
C420 C419 1.386 . S
C420 C424 1.393 . S
C421 H413 0.950 . S
C421 C419 1.391 . S
C421 C422 1.400 . S
C422 C421 1.400 . S
C422 C423 1.398 . S
C422 C428 1.491 . S
C423 H414 0.950 . S
C423 C422 1.398 . S
C423 C424 1.391 . S
C424 H412 0.950 . S
C424 C420 1.393 . S
C424 C423 1.391 . S
C425 H415 0.950 . S
C425 C426 1.386 . S
C425 C427 1.391 . S
C426 C425 1.386 . S
C426 C430 1.393 . S
C427 H416 0.950 . S
C427 C425 1.391 . S
C427 C428 1.400 . S
C428 C422 1.491 . S
C428 C427 1.400 . S
C428 C429 1.398 . S
C429 H417 0.950 . S
C429 C428 1.398 . S
C429 C430 1.391 . S
C430 H418 0.950 . S
C430 C426 1.393 . S
C430 C429 1.391 . S
H431 C439 0.950 . S
H432 C444 0.950 . S
H433 C441 0.950 . S
H434 C443 0.950 . S
H435 C445 0.950 . S
H436 C447 0.950 . S
H437 C449 0.950 . S
H438 C450 0.950 . S
C439 H431 0.950 . S
C439 C440 1.386 . S
C439 C441 1.391 . S
C440 C439 1.386 . S
C440 C444 1.393 . S
C441 H433 0.950 . S
C441 C439 1.391 . S
C441 C442 1.400 . S
C442 C441 1.400 . S
C442 C443 1.398 . S
C442 C448 1.491 . S
C443 H434 0.950 . S
C443 C442 1.398 . S
C443 C444 1.391 . S
C444 H432 0.950 . S
C444 C440 1.393 . S
C444 C443 1.391 . S
C445 H435 0.950 . S
C445 C446 1.386 . S
C445 C447 1.391 . S
C446 C445 1.386 . S
C446 C450 1.393 . S
C447 H436 0.950 . S
C447 C445 1.391 . S
C447 C448 1.400 . S
C448 C442 1.491 . S
C448 C447 1.400 . S
C448 C449 1.398 . S
C449 H437 0.950 . S
C449 C448 1.398 . S
C449 C450 1.391 . S
C450 H438 0.950 . S
C450 C446 1.393 . S
C450 C449 1.391 . S
H451 C459 0.950 . S
H452 C464 0.950 . S
H453 C461 0.950 . S
H454 C463 0.950 . S
H455 C465 0.950 . S
H456 C467 0.950 . S
H457 C469 0.950 . S
H458 C470 0.950 . S
C459 H451 0.950 . S
C459 C460 1.386 . S
C459 C461 1.391 . S
C460 C459 1.386 . S
C460 C464 1.393 . S
C461 H453 0.950 . S
C461 C459 1.391 . S
C461 C462 1.400 . S
C462 C461 1.400 . S
C462 C463 1.398 . S
C462 C468 1.491 . S
C463 H454 0.950 . S
C463 C462 1.398 . S
C463 C464 1.391 . S
C464 H452 0.950 . S
C464 C460 1.393 . S
C464 C463 1.391 . S
C465 H455 0.950 . S
C465 C466 1.386 . S
C465 C467 1.391 . S
C466 C465 1.386 . S
C466 C470 1.393 . S
C467 H456 0.950 . S
C467 C465 1.391 . S
C467 C468 1.400 . S
C468 C462 1.491 . S
C468 C467 1.400 . S
C468 C469 1.398 . S
C469 H457 0.950 . S
C469 C468 1.398 . S
C469 C470 1.391 . S
C470 H458 0.950 . S
C470 C466 1.393 . S
C470 C469 1.391 . S
H471 C479 0.950 . S
H472 C484 0.950 . S
H473 C481 0.950 . S
H474 C483 0.950 . S
H475 C485 0.950 . S
H476 C487 0.950 . S
H477 C489 0.950 . S
H478 C490 0.950 . S
C479 H471 0.950 . S
C479 C480 1.386 . S
C479 C481 1.391 . S
C480 C479 1.386 . S
C480 C484 1.393 . S
C481 H473 0.950 . S
C481 C479 1.391 . S
C481 C482 1.400 . S
C482 C481 1.400 . S
C482 C483 1.398 . S
C482 C488 1.491 . S
C483 H474 0.950 . S
C483 C482 1.398 . S
C483 C484 1.391 . S
C484 H472 0.950 . S
C484 C480 1.393 . S
C484 C483 1.391 . S
C485 H475 0.950 . S
C485 C486 1.386 . S
C485 C487 1.391 . S
C486 C485 1.386 . S
C486 C490 1.393 . S
C487 H476 0.950 . S
C487 C485 1.391 . S
C487 C488 1.400 . S
C488 C482 1.491 . S
C488 C487 1.400 . S
C488 C489 1.398 . S
C489 H477 0.950 . S
C489 C488 1.398 . S
C489 C490 1.391 . S
C490 H478 0.950 . S
C490 C486 1.393 . S
C490 C489 1.391 . S
H491 C499 0.950 . S
H492 C504 0.950 . S
H493 C501 0.950 . S
H494 C503 0.950 . S
H495 C505 0.950 . S
H496 C507 0.950 . S
H497 C509 0.950 . S
H498 C510 0.950 . S
C499 H491 0.950 . S
C499 C500 1.386 . S
C499 C501 1.391 . S
C500 C499 1.386 . S
C500 C504 1.393 . S
C501 H493 0.950 . S
C501 C499 1.391 . S
C501 C502 1.400 . S
C502 C501 1.400 . S
C502 C503 1.398 . S
C502 C508 1.491 . S
C503 H494 0.950 . S
C503 C502 1.398 . S
C503 C504 1.391 . S
C504 H492 0.950 . S
C504 C500 1.393 . S
C504 C503 1.391 . S
C505 H495 0.950 . S
C505 C506 1.386 . S
C505 C507 1.391 . S
C506 C505 1.386 . S
C506 C510 1.393 . S
C507 H496 0.950 . S
C507 C505 1.391 . S
C507 C508 1.400 . S
C508 C502 1.491 . S
C508 C507 1.400 . S
C508 C509 1.398 . S
C509 H497 0.950 . S
C509 C508 1.398 . S
C509 C510 1.391 . S
C510 H498 0.950 . S
C510 C506 1.393 . S
C510 C509 1.391 . S
H511 C519 0.950 . S
H512 C524 0.950 . S
H513 C521 0.950 . S
H514 C523 0.950 . S
H515 C525 0.950 . S
H516 C527 0.950 . S
H517 C529 0.950 . S
H518 C530 0.950 . S
C519 H511 0.950 . S
C519 C520 1.386 . S
C519 C521 1.391 . S
C520 C519 1.386 . S
C520 C524 1.393 . S
C521 H513 0.950 . S
C521 C519 1.391 . S
C521 C522 1.400 . S
C522 C521 1.400 . S
C522 C523 1.398 . S
C522 C528 1.491 . S
C523 H514 0.950 . S
C523 C522 1.398 . S
C523 C524 1.391 . S
C524 H512 0.950 . S
C524 C520 1.393 . S
C524 C523 1.391 . S
C525 H515 0.950 . S
C525 C526 1.386 . S
C525 C527 1.391 . S
C526 C525 1.386 . S
C526 C530 1.393 . S
C527 H516 0.950 . S
C527 C525 1.391 . S
C527 C528 1.400 . S
C528 C522 1.491 . S
C528 C527 1.400 . S
C528 C529 1.398 . S
C529 H517 0.950 . S
C529 C528 1.398 . S
C529 C530 1.391 . S
C530 H518 0.950 . S
C530 C526 1.393 . S
C530 C529 1.391 . S
H531 C539 0.950 . S
H532 C544 0.950 . S
H533 C541 0.950 . S
H534 C543 0.950 . S
H535 C545 0.950 . S
H536 C547 0.950 . S
H537 C549 0.950 . S
H538 C550 0.950 . S
C539 H531 0.950 . S
C539 C540 1.386 . S
C539 C541 1.391 . S
C540 C539 1.386 . S
C540 C544 1.393 . S
C541 H533 0.950 . S
C541 C539 1.391 . S
C541 C542 1.400 . S
C542 C541 1.400 . S
C542 C543 1.398 . S
C542 C548 1.491 . S
C543 H534 0.950 . S
C543 C542 1.398 . S
C543 C544 1.391 . S
C544 H532 0.950 . S
C544 C540 1.393 . S
C544 C543 1.391 . S
C545 H535 0.950 . S
C545 C546 1.386 . S
C545 C547 1.391 . S
C546 C545 1.386 . S
C546 C550 1.393 . S
C547 H536 0.950 . S
C547 C545 1.391 . S
C547 C548 1.400 . S
C548 C542 1.491 . S
C548 C547 1.400 . S
C548 C549 1.398 . S
C549 H537 0.950 . S
C549 C548 1.398 . S
C549 C550 1.391 . S
C550 H538 0.950 . S
C550 C546 1.393 . S
C550 C549 1.391 . S
H551 C559 0.950 . S
H552 C564 0.950 . S
H553 C561 0.950 . S
H554 C563 0.950 . S
H555 C565 0.950 . S
H556 C567 0.950 . S
H557 C569 0.950 . S
H558 C570 0.950 . S
C559 H551 0.950 . S
C559 C560 1.386 . S
C559 C561 1.391 . S
C560 C559 1.386 . S
C560 C564 1.393 . S
C561 H553 0.950 . S
C561 C559 1.391 . S
C561 C562 1.400 . S
C562 C561 1.400 . S
C562 C563 1.398 . S
C562 C568 1.491 . S
C563 H554 0.950 . S
C563 C562 1.398 . S
C563 C564 1.391 . S
C564 H552 0.950 . S
C564 C560 1.393 . S
C564 C563 1.391 . S
C565 H555 0.950 . S
C565 C566 1.386 . S
C565 C567 1.391 . S
C566 C565 1.386 . S
C566 C570 1.393 . S
C567 H556 0.950 . S
C567 C565 1.391 . S
C567 C568 1.400 . S
C568 C562 1.491 . S
C568 C567 1.400 . S
C568 C569 1.398 . S
C569 H557 0.950 . S
C569 C568 1.398 . S
C569 C570 1.391 . S
C570 H558 0.950 . S
C570 C566 1.393 . S
C570 C569 1.391 . S
H571 C579 0.950 . S
H572 C584 0.950 . S
H573 C581 0.950 . S
H574 C583 0.950 . S
H575 C585 0.950 . S
H576 C587 0.950 . S
H577 C589 0.950 . S
H578 C590 0.950 . S
C579 H571 0.950 . S
C579 C580 1.386 . S
C579 C581 1.391 . S
C580 C579 1.386 . S
C580 C584 1.393 . S
C581 H573 0.950 . S
C581 C579 1.391 . S
C581 C582 1.400 . S
C582 C581 1.400 . S
C582 C583 1.398 . S
C582 C588 1.491 . S
C583 H574 0.950 . S
C583 C582 1.398 . S
C583 C584 1.391 . S
C584 H572 0.950 . S
C584 C580 1.393 . S
C584 C583 1.391 . S
C585 H575 0.950 . S
C585 C586 1.386 . S
C585 C587 1.391 . S
C586 C585 1.386 . S
C586 C590 1.393 . S
C587 H576 0.950 . S
C587 C585 1.391 . S
C587 C588 1.400 . S
C588 C582 1.491 . S
C588 C587 1.400 . S
C588 C589 1.398 . S
C589 H577 0.950 . S
C589 C588 1.398 . S
C589 C590 1.391 . S
C590 H578 0.950 . S
C590 C586 1.393 . S
C590 C589 1.391 . S
H591 C599 0.950 . S
H592 C604 0.950 . S
H593 C601 0.950 . S
H594 C603 0.950 . S
H595 C605 0.950 . S
H596 C607 0.950 . S
H597 C609 0.950 . S
H598 C610 0.950 . S
C599 H591 0.950 . S
C599 C600 1.386 . S
C599 C601 1.391 . S
C600 C599 1.386 . S
C600 C604 1.393 . S
C601 H593 0.950 . S
C601 C599 1.391 . S
C601 C602 1.400 . S
C602 C601 1.400 . S
C602 C603 1.398 . S
C602 C608 1.491 . S
C603 H594 0.950 . S
C603 C602 1.398 . S
C603 C604 1.391 . S
C604 H592 0.950 . S
C604 C600 1.393 . S
C604 C603 1.391 . S
C605 H595 0.950 . S
C605 C606 1.386 . S
C605 C607 1.391 . S
C606 C605 1.386 . S
C606 C610 1.393 . S
C607 H596 0.950 . S
C607 C605 1.391 . S
C607 C608 1.400 . S
C608 C602 1.491 . S
C608 C607 1.400 . S
C608 C609 1.398 . S
C609 H597 0.950 . S
C609 C608 1.398 . S
C609 C610 1.391 . S
C610 H598 0.950 . S
C610 C606 1.393 . S
C610 C609 1.391 . S
H611 C619 0.950 . S
H612 C624 0.950 . S
H613 C621 0.950 . S
H614 C623 0.950 . S
H615 C625 0.950 . S
H616 C627 0.950 . S
H617 C629 0.950 . S
H618 C630 0.950 . S
C619 H611 0.950 . S
C619 C620 1.386 . S
C619 C621 1.391 . S
C620 C619 1.386 . S
C620 C624 1.393 . S
C621 H613 0.950 . S
C621 C619 1.391 . S
C621 C622 1.400 . S
C622 C621 1.400 . S
C622 C623 1.398 . S
C622 C628 1.491 . S
C623 H614 0.950 . S
C623 C622 1.398 . S
C623 C624 1.391 . S
C624 H612 0.950 . S
C624 C620 1.393 . S
C624 C623 1.391 . S
C625 H615 0.950 . S
C625 C626 1.386 . S
C625 C627 1.391 . S
C626 C625 1.386 . S
C626 C630 1.393 . S
C627 H616 0.950 . S
C627 C625 1.391 . S
C627 C628 1.400 . S
C628 C622 1.491 . S
C628 C627 1.400 . S
C628 C629 1.398 . S
C629 H617 0.950 . S
C629 C628 1.398 . S
C629 C630 1.391 . S
C630 H618 0.950 . S
C630 C626 1.393 . S
C630 C629 1.391 . S
H631 C639 0.950 . S
H632 C644 0.950 . S
H633 C641 0.950 . S
H634 C643 0.950 . S
H635 C645 0.950 . S
H636 C647 0.950 . S
H637 C649 0.950 . S
H638 C650 0.950 . S
C639 H631 0.950 . S
C639 C640 1.386 . S
C639 C641 1.391 . S
C640 C639 1.386 . S
C640 C644 1.393 . S
C641 H633 0.950 . S
C641 C639 1.391 . S
C641 C642 1.400 . S
C642 C641 1.400 . S
C642 C643 1.398 . S
C642 C648 1.491 . S
C643 H634 0.950 . S
C643 C642 1.398 . S
C643 C644 1.391 . S
C644 H632 0.950 . S
C644 C640 1.393 . S
C644 C643 1.391 . S
C645 H635 0.950 . S
C645 C646 1.386 . S
C645 C647 1.391 . S
C646 C645 1.386 . S
C646 C650 1.393 . S
C647 H636 0.950 . S
C647 C645 1.391 . S
C647 C648 1.400 . S
C648 C642 1.491 . S
C648 C647 1.400 . S
C648 C649 1.398 . S
C649 H637 0.950 . S
C649 C648 1.398 . S
C649 C650 1.391 . S
C650 H638 0.950 . S
C650 C646 1.393 . S
C650 C649 1.391 . S
H651 C659 0.950 . S
H652 C664 0.950 . S
H653 C661 0.950 . S
H654 C663 0.950 . S
H655 C665 0.950 . S
H656 C667 0.950 . S
H657 C669 0.950 . S
H658 C670 0.950 . S
C659 H651 0.950 . S
C659 C660 1.386 . S
C659 C661 1.391 . S
C660 C659 1.386 . S
C660 C664 1.393 . S
C661 H653 0.950 . S
C661 C659 1.391 . S
C661 C662 1.400 . S
C662 C661 1.400 . S
C662 C663 1.398 . S
C662 C668 1.491 . S
C663 H654 0.950 . S
C663 C662 1.398 . S
C663 C664 1.391 . S
C664 H652 0.950 . S
C664 C660 1.393 . S
C664 C663 1.391 . S
C665 H655 0.950 . S
C665 C666 1.386 . S
C665 C667 1.391 . S
C666 C665 1.386 . S
C666 C670 1.393 . S
C667 H656 0.950 . S
C667 C665 1.391 . S
C667 C668 1.400 . S
C668 C662 1.491 . S
C668 C667 1.400 . S
C668 C669 1.398 . S
C669 H657 0.950 . S
C669 C668 1.398 . S
C669 C670 1.391 . S
C670 H658 0.950 . S
C670 C666 1.393 . S
C670 C669 1.391 . S
H671 C679 0.950 . S
H672 C684 0.950 . S
H673 C681 0.950 . S
H674 C683 0.950 . S
H675 C685 0.950 . S
H676 C687 0.950 . S
H677 C689 0.950 . S
H678 C690 0.950 . S
C679 H671 0.950 . S
C679 C680 1.386 . S
C679 C681 1.391 . S
C680 C679 1.386 . S
C680 C684 1.393 . S
C681 H673 0.950 . S
C681 C679 1.391 . S
C681 C682 1.400 . S
C682 C681 1.400 . S
C682 C683 1.398 . S
C682 C688 1.491 . S
C683 H674 0.950 . S
C683 C682 1.398 . S
C683 C684 1.391 . S
C684 H672 0.950 . S
C684 C680 1.393 . S
C684 C683 1.391 . S
C685 H675 0.950 . S
C685 C686 1.386 . S
C685 C687 1.391 . S
C686 C685 1.386 . S
C686 C690 1.393 . S
C687 H676 0.950 . S
C687 C685 1.391 . S
C687 C688 1.400 . S
C688 C682 1.491 . S
C688 C687 1.400 . S
C688 C689 1.398 . S
C689 H677 0.950 . S
C689 C688 1.398 . S
C689 C690 1.391 . S
C690 H678 0.950 . S
C690 C686 1.393 . S
C690 C689 1.391 . S
H691 C699 0.950 . S
H692 C704 0.950 . S
H693 C701 0.950 . S
H694 C703 0.950 . S
H695 C705 0.950 . S
H696 C707 0.950 . S
H697 C709 0.950 . S
H698 C710 0.950 . S
C699 H691 0.950 . S
C699 C700 1.386 . S
C699 C701 1.391 . S
C700 C699 1.386 . S
C700 C704 1.393 . S
C701 H693 0.950 . S
C701 C699 1.391 . S
C701 C702 1.400 . S
C702 C701 1.400 . S
C702 C703 1.398 . S
C702 C708 1.491 . S
C703 H694 0.950 . S
C703 C702 1.398 . S
C703 C704 1.391 . S
C704 H692 0.950 . S
C704 C700 1.393 . S
C704 C703 1.391 . S
C705 H695 0.950 . S
C705 C706 1.386 . S
C705 C707 1.391 . S
C706 C705 1.386 . S
C706 C710 1.393 . S
C707 H696 0.950 . S
C707 C705 1.391 . S
C707 C708 1.400 . S
C708 C702 1.491 . S
C708 C707 1.400 . S
C708 C709 1.398 . S
C709 H697 0.950 . S
C709 C708 1.398 . S
C709 C710 1.391 . S
C710 H698 0.950 . S
C710 C706 1.393 . S
C710 C709 1.391 . S
H711 C719 0.950 . S
H712 C724 0.950 . S
H713 C721 0.950 . S
H714 C723 0.950 . S
H715 C725 0.950 . S
H716 C727 0.950 . S
H717 C729 0.950 . S
H718 C730 0.950 . S
C719 H711 0.950 . S
C719 C720 1.386 . S
C719 C721 1.391 . S
C720 C719 1.386 . S
C720 C724 1.393 . S
C721 H713 0.950 . S
C721 C719 1.391 . S
C721 C722 1.400 . S
C722 C721 1.400 . S
C722 C723 1.398 . S
C722 C728 1.491 . S
C723 H714 0.950 . S
C723 C722 1.398 . S
C723 C724 1.391 . S
C724 H712 0.950 . S
C724 C720 1.393 . S
C724 C723 1.391 . S
C725 H715 0.950 . S
C725 C726 1.386 . S
C725 C727 1.391 . S
C726 C725 1.386 . S
C726 C730 1.393 . S
C727 H716 0.950 . S
C727 C725 1.391 . S
C727 C728 1.400 . S
C728 C722 1.491 . S
C728 C727 1.400 . S
C728 C729 1.398 . S
C729 H717 0.950 . S
C729 C728 1.398 . S
C729 C730 1.391 . S
C730 H718 0.950 . S
C730 C726 1.393 . S
C730 C729 1.391 . S
H731 C739 0.950 . S
H732 C744 0.950 . S
H733 C741 0.950 . S
H734 C743 0.950 . S
H735 C745 0.950 . S
H736 C747 0.950 . S
H737 C749 0.950 . S
H738 C750 0.950 . S
C739 H731 0.950 . S
C739 C740 1.386 . S
C739 C741 1.391 . S
C740 C739 1.386 . S
C740 C744 1.393 . S
C741 H733 0.950 . S
C741 C739 1.391 . S
C741 C742 1.400 . S
C742 C741 1.400 . S
C742 C743 1.398 . S
C742 C748 1.491 . S
C743 H734 0.950 . S
C743 C742 1.398 . S
C743 C744 1.391 . S
C744 H732 0.950 . S
C744 C740 1.393 . S
C744 C743 1.391 . S
C745 H735 0.950 . S
C745 C746 1.386 . S
C745 C747 1.391 . S
C746 C745 1.386 . S
C746 C750 1.393 . S
C747 H736 0.950 . S
C747 C745 1.391 . S
C747 C748 1.400 . S
C748 C742 1.491 . S
C748 C747 1.400 . S
C748 C749 1.398 . S
C749 H737 0.950 . S
C749 C748 1.398 . S
C749 C750 1.391 . S
C750 H738 0.950 . S
C750 C746 1.393 . S
C750 C749 1.391 . S
H751 C759 0.950 . S
H752 C764 0.950 . S
H753 C761 0.950 . S
H754 C763 0.950 . S
H755 C765 0.950 . S
H756 C767 0.950 . S
H757 C769 0.950 . S
H758 C770 0.950 . S
C759 H751 0.950 . S
C759 C760 1.386 . S
C759 C761 1.391 . S
C760 C759 1.386 . S
C760 C764 1.393 . S
C761 H753 0.950 . S
C761 C759 1.391 . S
C761 C762 1.400 . S
C762 C761 1.400 . S
C762 C763 1.398 . S
C762 C768 1.491 . S
C763 H754 0.950 . S
C763 C762 1.398 . S
C763 C764 1.391 . S
C764 H752 0.950 . S
C764 C760 1.393 . S
C764 C763 1.391 . S
C765 H755 0.950 . S
C765 C766 1.386 . S
C765 C767 1.391 . S
C766 C765 1.386 . S
C766 C770 1.393 . S
C767 H756 0.950 . S
C767 C765 1.391 . S
C767 C768 1.400 . S
C768 C762 1.491 . S
C768 C767 1.400 . S
C768 C769 1.398 . S
C769 H757 0.950 . S
C769 C768 1.398 . S
C769 C770 1.391 . S
C770 H758 0.950 . S
C770 C766 1.393 . S
C770 C769 1.391 . S
H771 C779 0.950 . S
H772 C784 0.950 . S
H773 C781 0.950 . S
H774 C783 0.950 . S
H775 C785 0.950 . S
H776 C787 0.950 . S
H777 C789 0.950 . S
H778 C790 0.950 . S
C779 H771 0.950 . S
C779 C780 1.386 . S
C779 C781 1.391 . S
C780 C779 1.386 . S
C780 C784 1.393 . S
C781 H773 0.950 . S
C781 C779 1.391 . S
C781 C782 1.400 . S
C782 C781 1.400 . S
C782 C783 1.398 . S
C782 C788 1.491 . S
C783 H774 0.950 . S
C783 C782 1.398 . S
C783 C784 1.391 . S
C784 H772 0.950 . S
C784 C780 1.393 . S
C784 C783 1.391 . S
C785 H775 0.950 . S
C785 C786 1.386 . S
C785 C787 1.391 . S
C786 C785 1.386 . S
C786 C790 1.393 . S
C787 H776 0.950 . S
C787 C785 1.391 . S
C787 C788 1.400 . S
C788 C782 1.491 . S
C788 C787 1.400 . S
C788 C789 1.398 . S
C789 H777 0.950 . S
C789 C788 1.398 . S
C789 C790 1.391 . S
C790 H778 0.950 . S
C790 C786 1.393 . S
C790 C789 1.391 . S
H791 C799 0.950 . S
H792 C804 0.950 . S
H793 C801 0.950 . S
H794 C803 0.950 . S
H795 C805 0.950 . S
H796 C807 0.950 . S
H797 C809 0.950 . S
H798 C810 0.950 . S
C799 H791 0.950 . S
C799 C800 1.386 . S
C799 C801 1.391 . S
C800 C799 1.386 . S
C800 C804 1.393 . S
C801 H793 0.950 . S
C801 C799 1.391 . S
C801 C802 1.400 . S
C802 C801 1.400 . S
C802 C803 1.398 . S
C802 C808 1.491 . S
C803 H794 0.950 . S
C803 C802 1.398 . S
C803 C804 1.391 . S
C804 H792 0.950 . S
C804 C800 1.393 . S
C804 C803 1.391 . S
C805 H795 0.950 . S
C805 C806 1.386 . S
C805 C807 1.391 . S
C806 C805 1.386 . S
C806 C810 1.393 . S
C807 H796 0.950 . S
C807 C805 1.391 . S
C807 C808 1.400 . S
C808 C802 1.491 . S
C808 C807 1.400 . S
C808 C809 1.398 . S
C809 H797 0.950 . S
C809 C808 1.398 . S
C809 C810 1.391 . S
C810 H798 0.950 . S
C810 C806 1.393 . S
C810 C809 1.391 . S
H811 C819 0.950 . S
H812 C824 0.950 . S
H813 C821 0.950 . S
H814 C823 0.950 . S
H815 C825 0.950 . S
H816 C827 0.950 . S
H817 C829 0.950 . S
H818 C830 0.950 . S
C819 H811 0.950 . S
C819 C820 1.386 . S
C819 C821 1.391 . S
C820 C819 1.386 . S
C820 C824 1.393 . S
C821 H813 0.950 . S
C821 C819 1.391 . S
C821 C822 1.400 . S
C822 C821 1.400 . S
C822 C823 1.398 . S
C822 C828 1.491 . S
C823 H814 0.950 . S
C823 C822 1.398 . S
C823 C824 1.391 . S
C824 H812 0.950 . S
C824 C820 1.393 . S
C824 C823 1.391 . S
C825 H815 0.950 . S
C825 C826 1.386 . S
C825 C827 1.391 . S
C826 C825 1.386 . S
C826 C830 1.393 . S
C827 H816 0.950 . S
C827 C825 1.391 . S
C827 C828 1.400 . S
C828 C822 1.491 . S
C828 C827 1.400 . S
C828 C829 1.398 . S
C829 H817 0.950 . S
C829 C828 1.398 . S
C829 C830 1.391 . S
C830 H818 0.950 . S
C830 C826 1.393 . S
C830 C829 1.391 . S
H831 C839 0.950 . S
H832 C844 0.950 . S
H833 C841 0.950 . S
H834 C843 0.950 . S
H835 C845 0.950 . S
H836 C847 0.950 . S
H837 C849 0.950 . S
H838 C850 0.950 . S
C839 H831 0.950 . S
C839 C840 1.386 . S
C839 C841 1.391 . S
C840 C839 1.386 . S
C840 C844 1.393 . S
C841 H833 0.950 . S
C841 C839 1.391 . S
C841 C842 1.400 . S
C842 C841 1.400 . S
C842 C843 1.398 . S
C842 C848 1.491 . S
C843 H834 0.950 . S
C843 C842 1.398 . S
C843 C844 1.391 . S
C844 H832 0.950 . S
C844 C840 1.393 . S
C844 C843 1.391 . S
C845 H835 0.950 . S
C845 C846 1.386 . S
C845 C847 1.391 . S
C846 C845 1.386 . S
C846 C850 1.393 . S
C847 H836 0.950 . S
C847 C845 1.391 . S
C847 C848 1.400 . S
C848 C842 1.491 . S
C848 C847 1.400 . S
C848 C849 1.398 . S
C849 H837 0.950 . S
C849 C848 1.398 . S
C849 C850 1.391 . S
C850 H838 0.950 . S
C850 C846 1.393 . S
C850 C849 1.391 . S
H851 C859 0.950 . S
H852 C864 0.950 . S
H853 C861 0.950 . S
H854 C863 0.950 . S
H855 C865 0.950 . S
H856 C867 0.950 . S
H857 C869 0.950 . S
H858 C870 0.950 . S
C859 H851 0.950 . S
C859 C860 1.386 . S
C859 C861 1.391 . S
C860 C859 1.386 . S
C860 C864 1.393 . S
C861 H853 0.950 . S
C861 C859 1.391 . S
C861 C862 1.400 . S
C862 C861 1.400 . S
C862 C863 1.398 . S
C862 C868 1.491 . S
C863 H854 0.950 . S
C863 C862 1.398 . S
C863 C864 1.391 . S
C864 H852 0.950 . S
C864 C860 1.393 . S
C864 C863 1.391 . S
C865 H855 0.950 . S
C865 C866 1.386 . S
C865 C867 1.391 . S
C866 C865 1.386 . S
C866 C870 1.393 . S
C867 H856 0.950 . S
C867 C865 1.391 . S
C867 C868 1.400 . S
C868 C862 1.491 . S
C868 C867 1.400 . S
C868 C869 1.398 . S
C869 H857 0.950 . S
C869 C868 1.398 . S
C869 C870 1.391 . S
C870 H858 0.950 . S
C870 C866 1.393 . S
C870 C869 1.391 . S
H871 C879 0.950 . S
H872 C884 0.950 . S
H873 C881 0.950 . S
H874 C883 0.950 . S
H875 C885 0.950 . S
H876 C887 0.950 . S
H877 C889 0.950 . S
H878 C890 0.950 . S
C879 H871 0.950 . S
C879 C880 1.386 . S
C879 C881 1.391 . S
C880 C879 1.386 . S
C880 C884 1.393 . S
C881 H873 0.950 . S
C881 C879 1.391 . S
C881 C882 1.400 . S
C882 C881 1.400 . S
C882 C883 1.398 . S
C882 C888 1.491 . S
C883 H874 0.950 . S
C883 C882 1.398 . S
C883 C884 1.391 . S
C884 H872 0.950 . S
C884 C880 1.393 . S
C884 C883 1.391 . S
C885 H875 0.950 . S
C885 C886 1.386 . S
C885 C887 1.391 . S
C886 C885 1.386 . S
C886 C890 1.393 . S
C887 H876 0.950 . S
C887 C885 1.391 . S
C887 C888 1.400 . S
C888 C882 1.491 . S
C888 C887 1.400 . S
C888 C889 1.398 . S
C889 H877 0.950 . S
C889 C888 1.398 . S
C889 C890 1.391 . S
C890 H878 0.950 . S
C890 C886 1.393 . S
C890 C889 1.391 . S
C426 C336 1.085 . S
C420 C16 1.120 . S
C446 C372 1.689 . S
C440 C55 1.770 . S
C466 C337 1.399 . S
C460 C99 1.404 . S
C486 C367 1.523 . S
C480 C133 1.545 . S
C506 C334 1.514 . S
C500 C157 1.552 . S
C520 C211 1.693 . S
C526 C370 1.707 . S
C540 C255 1.164 . S
C546 C339 1.078 . S
C566 C369 1.462 . S
C560 C294 1.461 . S
C586 C373 1.461 . S
C580 C21 1.468 . S
C606 C338 1.514 . S
C600 C40 1.548 . S
C626 C366 1.707 . S
C620 C94 1.685 . S
C646 C335 1.068 . S
C640 C138 1.176 . S
C666 C368 1.695 . S
C660 C172 1.777 . S
C680 C216 1.410 . S
C686 C333 1.394 . S
C700 C235 1.558 . S
C706 C371 1.533 . S
C726 C340 1.086 . S
C720 C289 1.119 . S
C746 C402 1.697 . S
C740 C1 1.786 . S
C760 C177 2.037 . S
C766 C405 1.907 . S
C786 C404 1.683 . S
C780 C196 1.747 . S
C800 C250 2.073 . S
C806 C403 2.064 . S
C826 C406 1.675 . S
C820 C274 1.790 . S
C840 C79 1.735 . S
C846 C400 1.707 . S
C866 C399 2.061 . S
C860 C118 2.075 . S
C880 C60 2.025 . S
C886 C401 1.900 . S
