# Generated by pormake.
# Topology tbo, (3,4)-cn, num edge types: 1
# Building blocks:
#     Node 0, Type 0, BuildingBlock: CUQRIR_clean_linker_1, # of connection points: 3
#     Node 1, Type 0, BuildingBlock: CUQRIR_clean_linker_1, # of connection points: 3
#     Node 2, Type 0, BuildingBlock: CUQRIR_clean_linker_1, # of connection points: 3
#     Node 3, Type 0, BuildingBlock: CUQRIR_clean_linker_1, # of connection points: 3
#     Node 4, Type 0, BuildingBlock: CUQRIR_clean_linker_1, # of connection points: 3
#     Node 5, Type 0, BuildingBlock: CUQRIR_clean_linker_1, # of connection points: 3
#     Node 6, Type 0, BuildingBlock: CUQRIR_clean_linker_1, # of connection points: 3
#     Node 7, Type 0, BuildingBlock: CUQRIR_clean_linker_1, # of connection points: 3
#     Node 8, Type 0, BuildingBlock: CUQRIR_clean_linker_1, # of connection points: 3
#     Node 9, Type 0, BuildingBlock: CUQRIR_clean_linker_1, # of connection points: 3
#     Node 10, Type 0, BuildingBlock: CUQRIR_clean_linker_1, # of connection points: 3
#     Node 11, Type 0, BuildingBlock: CUQRIR_clean_linker_1, # of connection points: 3
#     Node 12, Type 0, BuildingBlock: CUQRIR_clean_linker_1, # of connection points: 3
#     Node 13, Type 0, BuildingBlock: CUQRIR_clean_linker_1, # of connection points: 3
#     Node 14, Type 0, BuildingBlock: CUQRIR_clean_linker_1, # of connection points: 3
#     Node 15, Type 0, BuildingBlock: CUQRIR_clean_linker_1, # of connection points: 3
#     Node 16, Type 0, BuildingBlock: CUQRIR_clean_linker_1, # of connection points: 3
#     Node 17, Type 0, BuildingBlock: CUQRIR_clean_linker_1, # of connection points: 3
#     Node 18, Type 0, BuildingBlock: CUQRIR_clean_linker_1, # of connection points: 3
#     Node 19, Type 0, BuildingBlock: CUQRIR_clean_linker_1, # of connection points: 3
#     Node 20, Type 0, BuildingBlock: CUQRIR_clean_linker_1, # of connection points: 3
#     Node 21, Type 0, BuildingBlock: CUQRIR_clean_linker_1, # of connection points: 3
#     Node 22, Type 0, BuildingBlock: CUQRIR_clean_linker_1, # of connection points: 3
#     Node 23, Type 0, BuildingBlock: CUQRIR_clean_linker_1, # of connection points: 3
#     Node 24, Type 0, BuildingBlock: CUQRIR_clean_linker_1, # of connection points: 3
#     Node 25, Type 0, BuildingBlock: CUQRIR_clean_linker_1, # of connection points: 3
#     Node 26, Type 0, BuildingBlock: CUQRIR_clean_linker_1, # of connection points: 3
#     Node 27, Type 0, BuildingBlock: CUQRIR_clean_linker_1, # of connection points: 3
#     Node 28, Type 0, BuildingBlock: CUQRIR_clean_linker_1, # of connection points: 3
#     Node 29, Type 0, BuildingBlock: CUQRIR_clean_linker_1, # of connection points: 3
#     Node 30, Type 0, BuildingBlock: CUQRIR_clean_linker_1, # of connection points: 3
#     Node 31, Type 0, BuildingBlock: CUQRIR_clean_linker_1, # of connection points: 3
#     Node 32, Type 1, BuildingBlock: ESEHIV_clean_sbu_0, # of connection points: 4
#     Node 33, Type 1, BuildingBlock: ESEHIV_clean_sbu_0, # of connection points: 4
#     Node 34, Type 1, BuildingBlock: ESEHIV_clean_sbu_0, # of connection points: 4
#     Node 35, Type 1, BuildingBlock: ESEHIV_clean_sbu_0, # of connection points: 4
#     Node 36, Type 1, BuildingBlock: ESEHIV_clean_sbu_0, # of connection points: 4
#     Node 37, Type 1, BuildingBlock: ESEHIV_clean_sbu_0, # of connection points: 4
#     Node 38, Type 1, BuildingBlock: ESEHIV_clean_sbu_0, # of connection points: 4
#     Node 39, Type 1, BuildingBlock: ESEHIV_clean_sbu_0, # of connection points: 4
#     Node 40, Type 1, BuildingBlock: ESEHIV_clean_sbu_0, # of connection points: 4
#     Node 41, Type 1, BuildingBlock: ESEHIV_clean_sbu_0, # of connection points: 4
#     Node 42, Type 1, BuildingBlock: ESEHIV_clean_sbu_0, # of connection points: 4
#     Node 43, Type 1, BuildingBlock: ESEHIV_clean_sbu_0, # of connection points: 4
#     Node 44, Type 1, BuildingBlock: ESEHIV_clean_sbu_0, # of connection points: 4
#     Node 45, Type 1, BuildingBlock: ESEHIV_clean_sbu_0, # of connection points: 4
#     Node 46, Type 1, BuildingBlock: ESEHIV_clean_sbu_0, # of connection points: 4
#     Node 47, Type 1, BuildingBlock: ESEHIV_clean_sbu_0, # of connection points: 4
#     Node 48, Type 1, BuildingBlock: ESEHIV_clean_sbu_0, # of connection points: 4
#     Node 49, Type 1, BuildingBlock: ESEHIV_clean_sbu_0, # of connection points: 4
#     Node 50, Type 1, BuildingBlock: ESEHIV_clean_sbu_0, # of connection points: 4
#     Node 51, Type 1, BuildingBlock: ESEHIV_clean_sbu_0, # of connection points: 4
#     Node 52, Type 1, BuildingBlock: ESEHIV_clean_sbu_0, # of connection points: 4
#     Node 53, Type 1, BuildingBlock: ESEHIV_clean_sbu_0, # of connection points: 4
#     Node 54, Type 1, BuildingBlock: ESEHIV_clean_sbu_0, # of connection points: 4
#     Node 55, Type 1, BuildingBlock: ESEHIV_clean_sbu_0, # of connection points: 4
#     Edge 56, Type (0, 1), BuildingBlock: KIFKEQ_clean_linker_1, # of connection points: 2
#     Edge 57, Type (0, 1), BuildingBlock: KIFKEQ_clean_linker_1, # of connection points: 2
#     Edge 58, Type (0, 1), BuildingBlock: KIFKEQ_clean_linker_1, # of connection points: 2
#     Edge 59, Type (0, 1), BuildingBlock: KIFKEQ_clean_linker_1, # of connection points: 2
#     Edge 60, Type (0, 1), BuildingBlock: KIFKEQ_clean_linker_1, # of connection points: 2
#     Edge 61, Type (0, 1), BuildingBlock: KIFKEQ_clean_linker_1, # of connection points: 2
#     Edge 62, Type (0, 1), BuildingBlock: KIFKEQ_clean_linker_1, # of connection points: 2
#     Edge 63, Type (0, 1), BuildingBlock: KIFKEQ_clean_linker_1, # of connection points: 2
#     Edge 64, Type (0, 1), BuildingBlock: KIFKEQ_clean_linker_1, # of connection points: 2
#     Edge 65, Type (0, 1), BuildingBlock: KIFKEQ_clean_linker_1, # of connection points: 2
#     Edge 66, Type (0, 1), BuildingBlock: KIFKEQ_clean_linker_1, # of connection points: 2
#     Edge 67, Type (0, 1), BuildingBlock: KIFKEQ_clean_linker_1, # of connection points: 2
#     Edge 68, Type (0, 1), BuildingBlock: KIFKEQ_clean_linker_1, # of connection points: 2
#     Edge 69, Type (0, 1), BuildingBlock: KIFKEQ_clean_linker_1, # of connection points: 2
#     Edge 70, Type (0, 1), BuildingBlock: KIFKEQ_clean_linker_1, # of connection points: 2
#     Edge 71, Type (0, 1), BuildingBlock: KIFKEQ_clean_linker_1, # of connection points: 2
#     Edge 72, Type (0, 1), BuildingBlock: KIFKEQ_clean_linker_1, # of connection points: 2
#     Edge 73, Type (0, 1), BuildingBlock: KIFKEQ_clean_linker_1, # of connection points: 2
#     Edge 74, Type (0, 1), BuildingBlock: KIFKEQ_clean_linker_1, # of connection points: 2
#     Edge 75, Type (0, 1), BuildingBlock: KIFKEQ_clean_linker_1, # of connection points: 2
#     Edge 76, Type (0, 1), BuildingBlock: KIFKEQ_clean_linker_1, # of connection points: 2
#     Edge 77, Type (0, 1), BuildingBlock: KIFKEQ_clean_linker_1, # of connection points: 2
#     Edge 78, Type (0, 1), BuildingBlock: KIFKEQ_clean_linker_1, # of connection points: 2
#     Edge 79, Type (0, 1), BuildingBlock: KIFKEQ_clean_linker_1, # of connection points: 2
#     Edge 80, Type (0, 1), BuildingBlock: KIFKEQ_clean_linker_1, # of connection points: 2
#     Edge 81, Type (0, 1), BuildingBlock: KIFKEQ_clean_linker_1, # of connection points: 2
#     Edge 82, Type (0, 1), BuildingBlock: KIFKEQ_clean_linker_1, # of connection points: 2
#     Edge 83, Type (0, 1), BuildingBlock: KIFKEQ_clean_linker_1, # of connection points: 2
#     Edge 84, Type (0, 1), BuildingBlock: KIFKEQ_clean_linker_1, # of connection points: 2
#     Edge 85, Type (0, 1), BuildingBlock: KIFKEQ_clean_linker_1, # of connection points: 2
#     Edge 86, Type (0, 1), BuildingBlock: KIFKEQ_clean_linker_1, # of connection points: 2
#     Edge 87, Type (0, 1), BuildingBlock: KIFKEQ_clean_linker_1, # of connection points: 2
#     Edge 88, Type (0, 1), BuildingBlock: KIFKEQ_clean_linker_1, # of connection points: 2
#     Edge 89, Type (0, 1), BuildingBlock: KIFKEQ_clean_linker_1, # of connection points: 2
#     Edge 90, Type (0, 1), BuildingBlock: KIFKEQ_clean_linker_1, # of connection points: 2
#     Edge 91, Type (0, 1), BuildingBlock: KIFKEQ_clean_linker_1, # of connection points: 2
#     Edge 92, Type (0, 1), BuildingBlock: KIFKEQ_clean_linker_1, # of connection points: 2
#     Edge 93, Type (0, 1), BuildingBlock: KIFKEQ_clean_linker_1, # of connection points: 2
#     Edge 94, Type (0, 1), BuildingBlock: KIFKEQ_clean_linker_1, # of connection points: 2
#     Edge 95, Type (0, 1), BuildingBlock: KIFKEQ_clean_linker_1, # of connection points: 2
#     Edge 96, Type (0, 1), BuildingBlock: KIFKEQ_clean_linker_1, # of connection points: 2
#     Edge 97, Type (0, 1), BuildingBlock: KIFKEQ_clean_linker_1, # of connection points: 2
#     Edge 98, Type (0, 1), BuildingBlock: KIFKEQ_clean_linker_1, # of connection points: 2
#     Edge 99, Type (0, 1), BuildingBlock: KIFKEQ_clean_linker_1, # of connection points: 2
#     Edge 100, Type (0, 1), BuildingBlock: KIFKEQ_clean_linker_1, # of connection points: 2
#     Edge 101, Type (0, 1), BuildingBlock: KIFKEQ_clean_linker_1, # of connection points: 2
#     Edge 102, Type (0, 1), BuildingBlock: KIFKEQ_clean_linker_1, # of connection points: 2
#     Edge 103, Type (0, 1), BuildingBlock: KIFKEQ_clean_linker_1, # of connection points: 2
#     Edge 104, Type (0, 1), BuildingBlock: KIFKEQ_clean_linker_1, # of connection points: 2
#     Edge 105, Type (0, 1), BuildingBlock: KIFKEQ_clean_linker_1, # of connection points: 2
#     Edge 106, Type (0, 1), BuildingBlock: KIFKEQ_clean_linker_1, # of connection points: 2
#     Edge 107, Type (0, 1), BuildingBlock: KIFKEQ_clean_linker_1, # of connection points: 2
#     Edge 108, Type (0, 1), BuildingBlock: KIFKEQ_clean_linker_1, # of connection points: 2
#     Edge 109, Type (0, 1), BuildingBlock: KIFKEQ_clean_linker_1, # of connection points: 2
#     Edge 110, Type (0, 1), BuildingBlock: KIFKEQ_clean_linker_1, # of connection points: 2
#     Edge 111, Type (0, 1), BuildingBlock: KIFKEQ_clean_linker_1, # of connection points: 2
#     Edge 112, Type (0, 1), BuildingBlock: KIFKEQ_clean_linker_1, # of connection points: 2
#     Edge 113, Type (0, 1), BuildingBlock: KIFKEQ_clean_linker_1, # of connection points: 2
#     Edge 114, Type (0, 1), BuildingBlock: KIFKEQ_clean_linker_1, # of connection points: 2
#     Edge 115, Type (0, 1), BuildingBlock: KIFKEQ_clean_linker_1, # of connection points: 2
#     Edge 116, Type (0, 1), BuildingBlock: KIFKEQ_clean_linker_1, # of connection points: 2
#     Edge 117, Type (0, 1), BuildingBlock: KIFKEQ_clean_linker_1, # of connection points: 2
#     Edge 118, Type (0, 1), BuildingBlock: KIFKEQ_clean_linker_1, # of connection points: 2
#     Edge 119, Type (0, 1), BuildingBlock: KIFKEQ_clean_linker_1, # of connection points: 2
#     Edge 120, Type (0, 1), BuildingBlock: KIFKEQ_clean_linker_1, # of connection points: 2
#     Edge 121, Type (0, 1), BuildingBlock: KIFKEQ_clean_linker_1, # of connection points: 2
#     Edge 122, Type (0, 1), BuildingBlock: KIFKEQ_clean_linker_1, # of connection points: 2
#     Edge 123, Type (0, 1), BuildingBlock: KIFKEQ_clean_linker_1, # of connection points: 2
#     Edge 124, Type (0, 1), BuildingBlock: KIFKEQ_clean_linker_1, # of connection points: 2
#     Edge 125, Type (0, 1), BuildingBlock: KIFKEQ_clean_linker_1, # of connection points: 2
#     Edge 126, Type (0, 1), BuildingBlock: KIFKEQ_clean_linker_1, # of connection points: 2
#     Edge 127, Type (0, 1), BuildingBlock: KIFKEQ_clean_linker_1, # of connection points: 2
#     Edge 128, Type (0, 1), BuildingBlock: KIFKEQ_clean_linker_1, # of connection points: 2
#     Edge 129, Type (0, 1), BuildingBlock: KIFKEQ_clean_linker_1, # of connection points: 2
#     Edge 130, Type (0, 1), BuildingBlock: KIFKEQ_clean_linker_1, # of connection points: 2
#     Edge 131, Type (0, 1), BuildingBlock: KIFKEQ_clean_linker_1, # of connection points: 2
#     Edge 132, Type (0, 1), BuildingBlock: KIFKEQ_clean_linker_1, # of connection points: 2
#     Edge 133, Type (0, 1), BuildingBlock: KIFKEQ_clean_linker_1, # of connection points: 2
#     Edge 134, Type (0, 1), BuildingBlock: KIFKEQ_clean_linker_1, # of connection points: 2
#     Edge 135, Type (0, 1), BuildingBlock: KIFKEQ_clean_linker_1, # of connection points: 2
#     Edge 136, Type (0, 1), BuildingBlock: KIFKEQ_clean_linker_1, # of connection points: 2
#     Edge 137, Type (0, 1), BuildingBlock: KIFKEQ_clean_linker_1, # of connection points: 2
#     Edge 138, Type (0, 1), BuildingBlock: KIFKEQ_clean_linker_1, # of connection points: 2
#     Edge 139, Type (0, 1), BuildingBlock: KIFKEQ_clean_linker_1, # of connection points: 2
#     Edge 140, Type (0, 1), BuildingBlock: KIFKEQ_clean_linker_1, # of connection points: 2
#     Edge 141, Type (0, 1), BuildingBlock: KIFKEQ_clean_linker_1, # of connection points: 2
#     Edge 142, Type (0, 1), BuildingBlock: KIFKEQ_clean_linker_1, # of connection points: 2
#     Edge 143, Type (0, 1), BuildingBlock: KIFKEQ_clean_linker_1, # of connection points: 2
#     Edge 144, Type (0, 1), BuildingBlock: KIFKEQ_clean_linker_1, # of connection points: 2
#     Edge 145, Type (0, 1), BuildingBlock: KIFKEQ_clean_linker_1, # of connection points: 2
#     Edge 146, Type (0, 1), BuildingBlock: KIFKEQ_clean_linker_1, # of connection points: 2
#     Edge 147, Type (0, 1), BuildingBlock: KIFKEQ_clean_linker_1, # of connection points: 2
#     Edge 148, Type (0, 1), BuildingBlock: KIFKEQ_clean_linker_1, # of connection points: 2
#     Edge 149, Type (0, 1), BuildingBlock: KIFKEQ_clean_linker_1, # of connection points: 2
#     Edge 150, Type (0, 1), BuildingBlock: KIFKEQ_clean_linker_1, # of connection points: 2
#     Edge 151, Type (0, 1), BuildingBlock: KIFKEQ_clean_linker_1, # of connection points: 2
# Relax obj value: 0.020
# Max RMSD: 0.192
# Mean RMSD: 0.117
data_MOF--net-tbo--node1-ESEHIV_clean_sbu_0--node2-CUQRIR_clean_linker_1--edge1-KIFKEQ_clean_linker_1
_symmetry_space_group_name_H-M    P1
_symmetry_Int_Tables_number       1
_symmetry_cell_setting            triclinic
loop_
_symmetry_equiv_pos_as_xyz
'x, y, z'
_cell_length_a     68.345689
_cell_length_b     69.034559
_cell_length_c     66.413171
_cell_angle_alpha  87.265131
_cell_angle_beta   95.470403
_cell_angle_gamma 95.205862
loop_
_atom_site_label
_atom_site_type_symbol
_atom_site_fract_x
_atom_site_fract_y
_atom_site_fract_z
_atom_type_partial_charge
C0 C 0.18465 0.17167 0.22867 0.0
N1 N 0.19915 0.172 0.21603 0.0
N2 N 0.17326 0.18659 0.224 0.0
C3 C 0.18146 0.15684 0.24569 0.0
C4 C 0.18134 0.19602 0.20798 0.0
N5 N 0.19704 0.18711 0.20305 0.0
C6 C 0.17416 0.21412 0.19737 0.0
H7 H 0.1687 0.14644 0.24097 0.0
H8 H 0.17784 0.16411 0.25925 0.0
H9 H 0.1944 0.14844 0.24978 0.0
H10 H 0.18473 0.22674 0.20165 0.0
H11 H 0.15931 0.2168 0.20148 0.0
H12 H 0.1736 0.21296 0.18073 0.0
C13 C 0.84577 0.18404 0.17827 0.0
N14 N 0.85718 0.17925 0.19525 0.0
N15 N 0.85027 0.20289 0.17242 0.0
C16 C 0.82986 0.1706 0.16787 0.0
C17 C 0.86492 0.20926 0.18633 0.0
N18 N 0.8689 0.19497 0.20027 0.0
C19 C 0.87631 0.22897 0.18548 0.0
H20 H 0.83652 0.16202 0.15702 0.0
H21 H 0.81837 0.17894 0.1594 0.0
H22 H 0.82298 0.16029 0.17903 0.0
H23 H 0.86828 0.23949 0.19292 0.0
H24 H 0.87762 0.23417 0.16956 0.0
H25 H 0.89128 0.22867 0.1935 0.0
C26 C 0.8906 0.85509 0.20922 0.0
N27 N 0.89473 0.83993 0.19859 0.0
N28 N 0.87322 0.8618 0.20179 0.0
C29 C 0.90346 0.86307 0.22713 0.0
C30 C 0.86685 0.85008 0.18628 0.0
N31 N 0.8798 0.83656 0.18446 0.0
C32 C 0.84797 0.85184 0.17293 0.0
H33 H 0.90325 0.85204 0.23985 0.0
H34 H 0.89849 0.87678 0.23208 0.0
H35 H 0.91893 0.86586 0.22332 0.0
H36 H 0.85007 0.84886 0.15704 0.0
H37 H 0.84258 0.86645 0.17341 0.0
H38 H 0.83645 0.84095 0.17824 0.0
C39 C 0.19794 0.83382 0.1637 0.0
N40 N 0.21159 0.8489 0.16052 0.0
N41 N 0.18572 0.83835 0.17736 0.0
C42 C 0.19568 0.81524 0.15244 0.0
C43 C 0.19245 0.85676 0.18234 0.0
N44 N 0.20807 0.86324 0.17197 0.0
C45 C 0.1847 0.8678 0.19843 0.0
H46 H 0.20012 0.8179 0.13684 0.0
H47 H 0.18024 0.8086 0.15173 0.0
H48 H 0.20542 0.80479 0.16048 0.0
H49 H 0.17782 0.85771 0.20977 0.0
H50 H 0.17334 0.87707 0.19123 0.0
H51 H 0.19668 0.87736 0.20627 0.0
C52 C 0.18275 0.8697 0.84548 0.0
N53 N 0.19992 0.87904 0.85314 0.0
N54 N 0.17393 0.88069 0.8304 0.0
C55 C 0.17374 0.85067 0.8539 0.0
C56 C 0.18625 0.89715 0.82934 0.0
N57 N 0.202 0.89616 0.84323 0.0
C58 C 0.18358 0.91358 0.81391 0.0
H59 H 0.17884 0.83856 0.84594 0.0
H60 H 0.1574 0.84987 0.85162 0.0
H61 H 0.17832 0.84873 0.87031 0.0
H62 H 0.17575 0.92482 0.82048 0.0
H63 H 0.17467 0.9084 0.80005 0.0
H64 H 0.19806 0.92042 0.80981 0.0
C65 C 0.22998 0.17254 0.86141 0.0
N66 N 0.22766 0.1849 0.87615 0.0
N67 N 0.24799 0.16566 0.86415 0.0
C68 C 0.21529 0.16831 0.84347 0.0
C69 C 0.25665 0.17431 0.88101 0.0
N70 N 0.24442 0.18622 0.88822 0.0
C71 C 0.27642 0.16986 0.89129 0.0
H72 H 0.20431 0.15636 0.84777 0.0
H73 H 0.22262 0.16369 0.83051 0.0
H74 H 0.20734 0.18131 0.83865 0.0
H75 H 0.28791 0.18087 0.8861 0.0
H76 H 0.28019 0.15525 0.88748 0.0
H77 H 0.27659 0.17045 0.90798 0.0
C78 C 0.8847 0.19408 0.84724 0.0
N79 N 0.8981 0.18895 0.83512 0.0
N80 N 0.89299 0.20778 0.86015 0.0
C81 C 0.86402 0.18462 0.84755 0.0
C82 C 0.91192 0.21077 0.85541 0.0
N83 N 0.9151 0.19917 0.84036 0.0
C84 C 0.92684 0.2261 0.86442 0.0
H85 H 0.85406 0.1928 0.83679 0.0
H86 H 0.85884 0.18485 0.86286 0.0
H87 H 0.86309 0.16935 0.84279 0.0
H88 H 0.93565 0.21952 0.87744 0.0
H89 H 0.91945 0.23824 0.8699 0.0
H90 H 0.93703 0.23198 0.85313 0.0
C91 C 0.85969 0.88807 0.86023 0.0
N92 N 0.86997 0.87227 0.86463 0.0
N93 N 0.86268 0.89565 0.84149 0.0
C94 C 0.84587 0.89548 0.87385 0.0
C95 C 0.87508 0.88377 0.83455 0.0
N96 N 0.87943 0.86939 0.84855 0.0
C97 C 0.88404 0.88714 0.81472 0.0
H98 H 0.83872 0.88334 0.88285 0.0
H99 H 0.83428 0.90341 0.86501 0.0
H100 H 0.85446 0.9056 0.88454 0.0
H101 H 0.88402 0.90263 0.80942 0.0
H102 H 0.87524 0.87808 0.80318 0.0
H103 H 0.89941 0.88292 0.81613 0.0
C104 C 0.19773 0.69411 0.7069 0.0
N105 N 0.21145 0.69365 0.6935 0.0
N106 N 0.18614 0.70888 0.70199 0.0
C107 C 0.1953 0.67989 0.72453 0.0
C108 C 0.19331 0.71737 0.68501 0.0
N109 N 0.2086 0.70801 0.67975 0.0
C110 C 0.18527 0.73461 0.67339 0.0
H111 H 0.18465 0.66757 0.71957 0.0
H112 H 0.18937 0.68686 0.7371 0.0
H113 H 0.20947 0.67399 0.73008 0.0
H114 H 0.17658 0.74291 0.68265 0.0
H115 H 0.17542 0.72936 0.66016 0.0
H116 H 0.19747 0.74443 0.66768 0.0
C117 C 0.85908 0.68824 0.65323 0.0
N118 N 0.87375 0.68899 0.66841 0.0
N119 N 0.8623 0.7029 0.63934 0.0
C120 C 0.84134 0.67362 0.65245 0.0
C121 C 0.87951 0.71253 0.64662 0.0
N122 N 0.88655 0.70395 0.66425 0.0
C123 C 0.88931 0.73047 0.63677 0.0
H124 H 0.84583 0.65898 0.65749 0.0
H125 H 0.83348 0.67292 0.63709 0.0
H126 H 0.83098 0.67783 0.66301 0.0
H127 H 0.87963 0.73687 0.62438 0.0
H128 H 0.90274 0.72657 0.6303 0.0
H129 H 0.89399 0.74152 0.64827 0.0
C130 C 0.90556 0.37535 0.71165 0.0
N131 N 0.90784 0.35812 0.70361 0.0
N132 N 0.88851 0.38241 0.70386 0.0
C133 C 0.91954 0.38486 0.72791 0.0
C134 C 0.88036 0.36879 0.69082 0.0
N135 N 0.89203 0.35381 0.69076 0.0
C136 C 0.862 0.37118 0.67684 0.0
H137 H 0.91177 0.39416 0.73713 0.0
H138 H 0.93124 0.39414 0.72068 0.0
H139 H 0.9267 0.37378 0.73802 0.0
H140 H 0.85945 0.38678 0.67421 0.0
H141 H 0.84912 0.36373 0.68387 0.0
H142 H 0.86304 0.36467 0.66207 0.0
C143 C 0.21555 0.35656 0.68271 0.0
N144 N 0.22883 0.372 0.67954 0.0
N145 N 0.20205 0.36125 0.69493 0.0
C146 C 0.21484 0.33741 0.67265 0.0
C147 C 0.20757 0.3801 0.69905 0.0
N148 N 0.22366 0.38671 0.68952 0.0
C149 C 0.19803 0.3917 0.71345 0.0
H150 H 0.19971 0.32998 0.67159 0.0
H151 H 0.22487 0.32789 0.68174 0.0
H152 H 0.21987 0.33954 0.65724 0.0
H153 H 0.20902 0.40229 0.72127 0.0
H154 H 0.19089 0.38203 0.72496 0.0
H155 H 0.1866 0.39994 0.70476 0.0
C156 C 0.17199 0.34891 0.36717 0.0
N157 N 0.18939 0.35994 0.37009 0.0
N158 N 0.16067 0.35615 0.35124 0.0
C159 C 0.16536 0.332 0.38078 0.0
C160 C 0.17168 0.37197 0.34458 0.0
N161 N 0.18901 0.37448 0.35622 0.0
C162 C 0.16627 0.38384 0.32556 0.0
H163 H 0.17041 0.31848 0.37542 0.0
H164 H 0.14903 0.33022 0.38046 0.0
H165 H 0.17177 0.33402 0.3966 0.0
H166 H 0.15906 0.39671 0.3296 0.0
H167 H 0.15586 0.37525 0.31485 0.0
H168 H 0.17959 0.38905 0.31786 0.0
C169 C 0.22865 0.64798 0.34032 0.0
N170 N 0.22351 0.66128 0.3529 0.0
N171 N 0.24364 0.63808 0.3493 0.0
C172 C 0.21829 0.64376 0.3198 0.0
C173 C 0.24746 0.64583 0.36774 0.0
N174 N 0.23515 0.6597 0.37003 0.0
C175 C 0.26404 0.64064 0.3831 0.0
H176 H 0.22 0.62865 0.31569 0.0
H177 H 0.22486 0.65394 0.30836 0.0
H178 H 0.20236 0.64589 0.31943 0.0
H179 H 0.26955 0.65306 0.39267 0.0
H180 H 0.27651 0.63588 0.37558 0.0
H181 H 0.2585 0.62846 0.39314 0.0
C182 C 0.87392 0.68478 0.35274 0.0
N183 N 0.88388 0.67605 0.33954 0.0
N184 N 0.88458 0.70092 0.35989 0.0
C185 C 0.85423 0.67694 0.35949 0.0
C186 C 0.90142 0.70171 0.35051 0.0
N187 N 0.90103 0.68658 0.33813 0.0
C188 C 0.91835 0.71711 0.35375 0.0
H189 H 0.84238 0.68295 0.34911 0.0
H190 H 0.85261 0.68126 0.37508 0.0
H191 H 0.85232 0.66083 0.35896 0.0
H192 H 0.92899 0.71194 0.36606 0.0
H193 H 0.91313 0.7309 0.35824 0.0
H194 H 0.92626 0.72003 0.33998 0.0
C195 C 0.85878 0.37067 0.37649 0.0
N196 N 0.86579 0.35385 0.38447 0.0
N197 N 0.86673 0.37616 0.3589 0.0
C198 C 0.8431 0.38094 0.38494 0.0
C199 C 0.87878 0.36212 0.35645 0.0
N200 N 0.87817 0.34856 0.37183 0.0
C201 C 0.8914 0.36178 0.33912 0.0
H202 H 0.83228 0.37031 0.39186 0.0
H203 H 0.83526 0.38994 0.37303 0.0
H204 H 0.85014 0.39067 0.39689 0.0
H205 H 0.89465 0.37664 0.33246 0.0
H206 H 0.88335 0.35258 0.32724 0.0
H207 H 0.90546 0.35539 0.34412 0.0
C208 C 0.69399 0.18144 0.71091 0.0
N209 N 0.70729 0.18011 0.69722 0.0
N210 N 0.68465 0.19794 0.70746 0.0
C211 C 0.69145 0.16758 0.72888 0.0
C212 C 0.693 0.2068 0.69129 0.0
N213 N 0.70693 0.1961 0.68515 0.0
C214 C 0.68629 0.22501 0.68046 0.0
H215 H 0.68008 0.15564 0.72452 0.0
H216 H 0.68659 0.17507 0.7417 0.0
H217 H 0.70544 0.1611 0.73398 0.0
H218 H 0.69542 0.2378 0.68677 0.0
H219 H 0.67062 0.22665 0.68255 0.0
H220 H 0.68802 0.22483 0.66403 0.0
C221 C 0.35635 0.19349 0.68125 0.0
N222 N 0.37183 0.19273 0.69549 0.0
N223 N 0.35816 0.21019 0.66977 0.0
C224 C 0.3401 0.17749 0.67793 0.0
C225 C 0.37543 0.21944 0.67741 0.0
N226 N 0.38382 0.20873 0.69297 0.0
C227 C 0.38435 0.2386 0.66922 0.0
H228 H 0.34626 0.16471 0.67218 0.0
H229 H 0.32799 0.18212 0.66694 0.0
H230 H 0.33407 0.17287 0.69249 0.0
H231 H 0.37284 0.24795 0.66266 0.0
H232 H 0.39365 0.2358 0.65703 0.0
H233 H 0.39373 0.24655 0.68124 0.0
C234 C 0.39574 0.87818 0.71903 0.0
N235 N 0.4008 0.86334 0.70852 0.0
N236 N 0.38173 0.88794 0.70813 0.0
C237 C 0.4055 0.88409 0.73938 0.0
C238 C 0.37863 0.87868 0.69042 0.0
N239 N 0.39034 0.86378 0.69058 0.0
C240 C 0.36317 0.88328 0.67366 0.0
H241 H 0.39781 0.87572 0.75143 0.0
H242 H 0.40468 0.89984 0.74148 0.0
H243 H 0.42121 0.88092 0.7411 0.0
H244 H 0.37026 0.89262 0.66187 0.0
H245 H 0.35149 0.89119 0.6793 0.0
H246 H 0.35636 0.86976 0.66657 0.0
C247 C 0.7019 0.84172 0.66077 0.0
N248 N 0.7168 0.85519 0.65651 0.0
N249 N 0.69538 0.84493 0.67889 0.0
C250 C 0.69478 0.8246 0.64804 0.0
C251 C 0.70694 0.86082 0.68547 0.0
N252 N 0.72002 0.86695 0.67195 0.0
C253 C 0.70474 0.871 0.70455 0.0
H254 H 0.68307 0.82903 0.63645 0.0
H255 H 0.68853 0.81224 0.6574 0.0
H256 H 0.70695 0.81978 0.6401 0.0
H257 H 0.71493 0.86524 0.71695 0.0
H258 H 0.68944 0.86844 0.70897 0.0
H259 H 0.70863 0.88689 0.70261 0.0
C260 C 0.67153 0.83809 0.33618 0.0
N261 N 0.68934 0.84689 0.3427 0.0
N262 N 0.66365 0.84778 0.31955 0.0
C263 C 0.66143 0.82067 0.3466 0.0
C264 C 0.67731 0.86277 0.31623 0.0
N265 N 0.693 0.8621 0.3302 0.0
C266 C 0.67485 0.87862 0.30013 0.0
H267 H 0.65182 0.81159 0.33571 0.0
H268 H 0.65202 0.82579 0.35764 0.0
H269 H 0.67236 0.81156 0.35489 0.0
H270 H 0.67006 0.89152 0.30704 0.0
H271 H 0.66359 0.87388 0.28778 0.0
H272 H 0.68907 0.88302 0.29376 0.0
C273 C 0.71046 0.15186 0.3362 0.0
N274 N 0.70896 0.16527 0.35022 0.0
N275 N 0.72322 0.13874 0.34343 0.0
C276 C 0.69809 0.15041 0.31624 0.0
C277 C 0.72936 0.14449 0.36235 0.0
N278 N 0.72058 0.16045 0.3666 0.0
C279 C 0.7445 0.13488 0.37641 0.0
H280 H 0.68277 0.15378 0.3179 0.0
H281 H 0.69775 0.1357 0.31012 0.0
H282 H 0.70445 0.16119 0.30521 0.0
H283 H 0.75409 0.12677 0.36789 0.0
H284 H 0.7368 0.12447 0.38689 0.0
H285 H 0.75382 0.14583 0.3856 0.0
C286 C 0.369 0.18676 0.37154 0.0
N287 N 0.38049 0.17863 0.35927 0.0
N288 N 0.37972 0.20077 0.38256 0.0
C289 C 0.34769 0.18028 0.3737 0.0
C290 C 0.3981 0.20089 0.37646 0.0
N291 N 0.39858 0.18738 0.36245 0.0
C292 C 0.41514 0.21532 0.3829 0.0
H293 H 0.33834 0.18866 0.36251 0.0
H294 H 0.34374 0.183 0.38908 0.0
H295 H 0.34452 0.16457 0.37071 0.0
H296 H 0.42394 0.20899 0.39608 0.0
H297 H 0.40986 0.22908 0.3874 0.0
H298 H 0.4249 0.21864 0.37053 0.0
C299 C 0.34351 0.87024 0.36831 0.0
N300 N 0.35497 0.85542 0.37334 0.0
N301 N 0.35047 0.88147 0.35287 0.0
C302 C 0.32581 0.87406 0.37888 0.0
C303 C 0.36667 0.87299 0.3487 0.0
N304 N 0.36955 0.85714 0.36124 0.0
C305 C 0.37873 0.87942 0.3314 0.0
H306 H 0.31274 0.86514 0.37207 0.0
H307 H 0.32286 0.88962 0.37715 0.0
H308 H 0.32788 0.86982 0.39522 0.0
H309 H 0.39176 0.88902 0.33716 0.0
H310 H 0.37005 0.88774 0.31954 0.0
H311 H 0.384 0.86672 0.32457 0.0
C312 C 0.68278 0.68039 0.21279 0.0
N313 N 0.69639 0.68129 0.19906 0.0
N314 N 0.67009 0.69437 0.20851 0.0
C315 C 0.6815 0.66565 0.23012 0.0
C316 C 0.67644 0.70374 0.1916 0.0
N317 N 0.69232 0.69573 0.18578 0.0
C318 C 0.66742 0.72108 0.1812 0.0
H319 H 0.67126 0.65304 0.22512 0.0
H320 H 0.67557 0.67193 0.24312 0.0
H321 H 0.69604 0.66027 0.23512 0.0
H322 H 0.67466 0.73449 0.1882 0.0
H323 H 0.65141 0.72039 0.1831 0.0
H324 H 0.66955 0.72216 0.16485 0.0
C325 C 0.33363 0.68069 0.15049 0.0
N326 N 0.34722 0.67814 0.16633 0.0
N327 N 0.3379 0.69777 0.14035 0.0
C328 C 0.31659 0.66614 0.14452 0.0
C329 C 0.35474 0.70547 0.15051 0.0
N330 N 0.36051 0.69342 0.16624 0.0
C331 C 0.36621 0.72414 0.14439 0.0
H332 H 0.32162 0.65542 0.13466 0.0
H333 H 0.3043 0.6734 0.13606 0.0
H334 H 0.31122 0.65813 0.1581 0.0
H335 H 0.35657 0.73451 0.13618 0.0
H336 H 0.37727 0.72077 0.13418 0.0
H337 H 0.37411 0.73121 0.15785 0.0
C338 C 0.42292 0.35899 0.22491 0.0
N339 N 0.42325 0.34303 0.21376 0.0
N340 N 0.40553 0.36701 0.22099 0.0
C341 C 0.43877 0.36578 0.24096 0.0
C342 C 0.39519 0.35533 0.20721 0.0
N343 N 0.40586 0.3407 0.20285 0.0
C344 C 0.37477 0.35843 0.19777 0.0
H345 H 0.44518 0.35317 0.24927 0.0
H346 H 0.43296 0.37493 0.25192 0.0
H347 H 0.45071 0.37458 0.23363 0.0
H348 H 0.37144 0.37377 0.19881 0.0
H349 H 0.36392 0.34888 0.2059 0.0
H350 H 0.37311 0.35446 0.18166 0.0
C351 C 0.7065 0.34816 0.1658 0.0
N352 N 0.71802 0.365 0.16386 0.0
N353 N 0.69483 0.34886 0.18104 0.0
C354 C 0.7071 0.33079 0.15304 0.0
C355 C 0.69973 0.36684 0.18841 0.0
N356 N 0.71376 0.37678 0.17781 0.0
C357 C 0.6913 0.37423 0.20643 0.0
H358 H 0.69667 0.33219 0.1393 0.0
H359 H 0.70281 0.31705 0.16148 0.0
H360 H 0.72207 0.33006 0.1481 0.0
H361 H 0.7006 0.37018 0.22034 0.0
H362 H 0.67605 0.36759 0.20774 0.0
H363 H 0.69108 0.39024 0.20566 0.0
C364 C 0.69777 0.36706 0.85175 0.0
N365 N 0.71525 0.37704 0.85716 0.0
N366 N 0.68733 0.37712 0.8371 0.0
C367 C 0.69042 0.34802 0.86153 0.0
C368 C 0.69906 0.39368 0.8339 0.0
N369 N 0.7161 0.39361 0.84615 0.0
C370 C 0.69437 0.40918 0.81797 0.0
H371 H 0.69504 0.33594 0.85315 0.0
H372 H 0.67408 0.34659 0.86104 0.0
H373 H 0.69676 0.34663 0.87749 0.0
H374 H 0.68792 0.42106 0.82507 0.0
H375 H 0.68351 0.4033 0.8058 0.0
H376 H 0.70796 0.4154 0.81131 0.0
C377 C 0.72253 0.66357 0.84664 0.0
N378 N 0.72069 0.67645 0.86096 0.0
N379 N 0.73709 0.65196 0.85266 0.0
C380 C 0.70959 0.66186 0.82706 0.0
C381 C 0.74409 0.65827 0.87124 0.0
N382 N 0.73397 0.67305 0.87643 0.0
C383 C 0.76218 0.65142 0.88322 0.0
H384 H 0.70899 0.64697 0.82131 0.0
H385 H 0.71571 0.67236 0.81561 0.0
H386 H 0.6944 0.66544 0.82907 0.0
H387 H 0.77046 0.66344 0.89177 0.0
H388 H 0.77214 0.64556 0.87322 0.0
H389 H 0.75756 0.63965 0.89419 0.0
C390 C 0.37865 0.69615 0.85551 0.0
N391 N 0.38879 0.68879 0.84152 0.0
N392 N 0.38801 0.71305 0.86233 0.0
C393 C 0.36015 0.68627 0.86328 0.0
C394 C 0.4042 0.71574 0.85186 0.0
N395 N 0.40468 0.701 0.83917 0.0
C396 C 0.41985 0.73247 0.85448 0.0
H397 H 0.34718 0.6917 0.85414 0.0
H398 H 0.35927 0.68959 0.87934 0.0
H399 H 0.35947 0.67027 0.8619 0.0
H400 H 0.4324 0.72759 0.86472 0.0
H401 H 0.41412 0.74504 0.86108 0.0
H402 H 0.42554 0.73738 0.83986 0.0
C403 C 0.37135 0.3787 0.87203 0.0
N404 N 0.38011 0.36336 0.88148 0.0
N405 N 0.3819 0.38672 0.85695 0.0
C406 C 0.3534 0.38692 0.87854 0.0
C407 C 0.39747 0.37582 0.85763 0.0
N408 N 0.39654 0.36181 0.87262 0.0
C409 C 0.4129 0.37801 0.84274 0.0
H410 H 0.33998 0.37922 0.87087 0.0
H411 H 0.3534 0.40266 0.87431 0.0
H412 H 0.35275 0.38488 0.89514 0.0
H413 H 0.42572 0.38752 0.84913 0.0
H414 H 0.4071 0.38471 0.82812 0.0
H415 H 0.41811 0.36371 0.83991 0.0
Cu416 Cu 0.30611 0.27059 0.05072 0.0
N417 N 0.30968 0.29308 0.03374 0.0
N418 N 0.32012 0.31153 1.00739 0.0
C419 C 0.32074 0.29425 0.01783 0.0
C420 C 0.30824 0.32167 0.01724 0.0
C421 C 0.3019 0.31032 0.03349 0.0
O422 O 0.30139 0.24954 0.03147 0.0
C423 C 0.32848 0.28469 0.08364 0.0
O424 O 0.31445 0.29657 0.08027 0.0
H425 H 0.32864 0.28237 1.01365 0.0
H426 H 0.29223 0.31437 0.04425 0.0
N427 N 0.28384 0.26901 0.06585 0.0
N428 N 0.26337 0.25768 0.08915 0.0
C429 C 0.28064 0.25592 0.08125 0.0
C430 C 0.26808 0.27953 0.06401 0.0
C431 C 0.25546 0.27257 0.07827 0.0
C432 C 0.2852 0.25068 0.02025 0.0
O433 O 0.27405 0.26453 0.02347 0.0
H434 H 0.29068 0.24504 0.08628 0.0
H435 H 0.26573 0.29125 0.05292 0.0
O436 O 0.32885 0.27105 0.07133 0.0
H437 H 0.30444 0.3363 1.01305 0.0
H438 H 0.24157 0.27817 0.08049 0.0
Cu439 Cu 0.80549 0.29873 1.00827 0.0
N440 N 0.78485 0.3114 0.02015 0.0
N441 N 0.7698 0.32853 0.04093 0.0
C442 C 0.78627 0.31994 0.03817 0.0
C443 C 0.75758 0.32535 0.02401 0.0
C444 C 0.76687 0.31473 1.01124 0.0
O445 O 0.81092 0.28313 0.0346 0.0
C446 C 0.80033 0.33061 0.97735 0.0
O447 O 0.80854 0.34236 0.99133 0.0
H448 H 0.79921 0.32031 0.04888 0.0
H449 H 0.76105 0.31002 0.99639 0.0
N450 N 0.82653 0.28665 0.99659 0.0
N451 N 0.84406 0.2728 0.97525 0.0
C452 C 0.82613 0.27834 0.97851 0.0
C453 C 0.8452 0.28634 1.00495 0.0
C454 C 0.85597 0.27775 0.99197 0.0
C455 C 0.82284 0.28877 0.04944 0.0
O456 O 0.83271 0.30598 0.04838 0.0
H457 H 0.81317 0.27693 0.9678 0.0
H458 H 0.85076 0.29225 0.01936 0.0
O459 O 0.7985 0.31238 0.9812 0.0
H460 H 0.74289 0.33017 0.02118 0.0
H461 H 0.87143 0.27536 0.99473 0.0
Cu462 Cu 0.80043 0.77026 0.03027 0.0
N463 N 0.80548 0.79329 1.01461 0.0
N464 N 0.81712 0.81306 0.98982 0.0
C465 C 0.815 0.7946 0.99763 0.0
C466 C 0.80843 0.8237 1.00246 0.0
C467 C 0.80132 0.81151 0.0177 0.0
O468 O 0.79368 0.74974 1.01074 0.0
C469 C 0.83773 0.77926 0.0529 0.0
O470 O 0.84102 0.79198 0.03801 0.0
H471 H 0.82068 0.78222 0.99151 0.0
H472 H 0.79386 0.81567 0.03026 0.0
N473 N 0.77865 0.77088 0.04535 0.0
N474 N 0.75796 0.76187 0.06904 0.0
C475 C 0.77493 0.7587 0.06129 0.0
C476 C 0.76355 0.78224 0.0429 0.0
C477 C 0.75076 0.77671 0.05745 0.0
C478 C 0.77915 0.75331 0.99792 0.0
O479 O 0.77048 0.76929 0.99967 0.0
H480 H 0.78434 0.74743 0.06677 0.0
H481 H 0.76182 0.79359 0.03124 0.0
O482 O 0.82255 0.76703 0.05101 0.0
H483 H 0.80717 0.83922 1.0009 0.0
H484 H 0.73728 0.78322 0.05937 0.0
Cu485 Cu 0.30293 0.80657 1.00159 0.0
N486 N 0.30503 0.82517 0.02136 0.0
N487 N 0.29682 0.83986 0.04824 0.0
C488 C 0.29061 0.82767 0.0332 0.0
C489 C 0.31593 0.84533 0.04572 0.0
C490 C 0.32094 0.8363 0.02904 0.0
O491 O 0.29323 0.78265 0.01507 0.0
C492 C 0.28874 0.83105 0.97058 0.0
O493 O 0.30438 0.84207 0.97754 0.0
H494 H 0.27617 0.81975 0.03154 0.0
H495 H 0.33535 0.83717 0.02344 0.0
N496 N 0.32728 0.80296 0.99234 0.0
N497 N 0.34822 0.79122 0.97307 0.0
C498 C 0.32996 0.797 0.97385 0.0
C499 C 0.3445 0.80115 1.00359 0.0
C500 C 0.35746 0.79396 0.99174 0.0
C501 C 0.29824 0.76595 1.01149 0.0
O502 O 0.30791 0.76391 0.99567 0.0
H503 H 0.31816 0.7952 0.96182 0.0
H504 H 0.34698 0.80353 0.01965 0.0
O505 O 0.28501 0.81439 0.97905 0.0
H506 H 0.32567 0.85479 0.05551 0.0
H507 H 0.3722 0.79013 0.99677 0.0
Cu508 Cu 1.01831 0.24872 0.31217 0.0
N509 N 0.03784 0.23124 0.31461 0.0
N510 N 0.06385 0.21716 0.30562 0.0
C511 C 0.0518 0.2316 0.30156 0.0
C512 C 0.05707 0.20726 0.32199 0.0
C513 C 0.04102 0.216 0.32751 0.0
O514 O 0.03188 0.27318 0.30391 0.0
C515 C 0.98688 0.22477 0.29659 0.0
O516 O 0.98973 0.21646 0.31471 0.0
H517 H 0.05268 0.24203 0.28892 0.0
H518 H 0.03219 0.21142 0.33984 0.0
N519 N 1.00583 0.25172 0.33569 0.0
N520 N 0.98311 0.26175 0.35425 0.0
C521 C 0.98828 0.25923 0.33544 0.0
C522 C 1.01204 0.24907 0.35536 0.0
C523 C 0.99807 0.25522 0.36684 0.0
C524 C 0.03014 0.28961 0.31108 0.0
O525 O 1.01592 0.29146 0.32262 0.0
H526 H 0.98009 0.26374 0.32154 0.0
H527 H 0.02597 0.24362 0.36095 0.0
O528 O 0.99821 0.23955 0.29175 0.0
H529 H 0.06323 0.19464 0.32949 0.0
H530 H 0.99915 0.25519 0.38319 0.0
Cu531 Cu 0.81489 1.00467 0.28623 0.0
N532 N 0.83563 0.02415 0.28497 0.0
N533 N 0.85001 0.05282 0.27483 0.0
C534 C 0.83321 0.04102 0.27448 0.0
C535 C 0.86372 0.04302 0.28598 0.0
C536 C 0.85473 0.02532 0.29242 0.0
O537 O 0.79135 0.01903 0.28551 0.0
C538 C 0.83212 0.97732 0.26736 0.0
O539 O 0.84583 0.98321 0.28146 0.0
H540 H 0.81937 0.0444 0.26633 0.0
H541 H 0.8617 0.01413 0.30168 0.0
N542 N 0.8152 0.98959 0.31037 0.0
N543 N 0.80243 0.96611 0.33076 0.0
C544 C 0.79868 0.97947 0.3158 0.0
C545 C 0.83006 0.98259 0.32257 0.0
C546 C 0.82218 0.96789 0.33508 0.0
C547 C 0.79134 0.02859 0.30153 0.0
O548 O 0.8061 0.02735 0.3156 0.0
H549 H 0.78436 0.98061 0.30755 0.0
H550 H 0.84556 0.98674 0.32144 0.0
O551 O 0.81625 0.98595 0.26511 0.0
H552 H 0.87902 0.04832 0.28935 0.0
H553 H 0.83037 0.95852 0.34564 0.0
Cu554 Cu 0.05566 0.74574 0.27683 0.0
N555 N 0.03917 0.76596 0.27816 0.0
N556 N 1.01395 0.78397 0.26824 0.0
C557 C 0.02258 0.76752 0.26564 0.0
C558 C 0.0256 0.79309 0.28313 0.0
C559 C 0.0411 0.78197 0.28923 0.0
O560 O 0.03675 0.72255 0.27583 0.0
C561 C 0.08049 0.76888 0.25479 0.0
O562 O 0.07974 0.7786 0.27118 0.0
H563 H 1.0174 0.75707 0.25426 0.0
H564 H 0.0532 0.78568 0.30044 0.0
N565 N 0.07508 0.74336 0.29889 0.0
N566 N 0.10246 0.73375 0.31674 0.0
C567 C 0.09071 0.73265 0.29911 0.0
C568 C 0.07696 0.75158 0.31701 0.0
C569 C 0.09373 0.74571 0.328 0.0
C570 C 0.03147 0.71547 0.2928 0.0
O571 O 0.04129 0.72187 0.30947 0.0
H572 H 0.09321 0.72408 0.28653 0.0
H573 H 0.0668 0.76106 0.322 0.0
O574 O 0.07047 0.75239 0.25324 0.0
H575 H 0.02324 0.80693 0.2891 0.0
H576 H 0.09911 0.75017 0.34306 0.0
Cu577 Cu 0.30118 0.02936 0.24908 0.0
N578 N 0.32297 0.04777 0.24828 0.0
N579 N 0.34252 0.07343 0.25992 0.0
C580 C 0.33231 0.05641 0.26473 0.0
C581 C 0.34003 0.07516 0.2395 0.0
C582 C 0.3279 0.0594 0.2324 0.0
O583 O 0.27831 0.04476 0.24757 0.0
C584 C 0.29473 0.99858 0.27951 0.0
O585 O 0.27622 0.99684 0.27194 0.0
H586 H 0.3296 0.05152 0.28002 0.0
H587 H 0.32157 0.05758 0.21698 0.0
N588 N 0.29859 1.01338 0.22679 0.0
N589 N 0.28739 0.98849 0.20711 0.0
C590 C 0.2842 0.99899 0.22299 0.0
C591 C 0.31134 1.01206 0.21279 0.0
C592 C 0.30447 0.99678 0.20062 0.0
C593 C 0.279 0.05987 0.25802 0.0
O594 O 0.29266 0.06214 0.2732 0.0
H595 H 0.27207 0.99581 0.23228 0.0
H596 H 0.32501 0.02113 0.2119 0.0
O597 O 0.30637 1.01243 0.27301 0.0
H598 H 0.34534 0.0876 0.23039 0.0
H599 H 0.31171 0.99201 0.18817 0.0
Cu600 Cu 0.02864 0.78196 0.77755 0.0
N601 N 0.04728 0.76339 0.78102 0.0
N602 N 0.07283 0.7473 0.77402 0.0
C603 C 0.06172 0.76231 0.76869 0.0
C604 C 0.06495 0.73859 0.79043 0.0
C605 C 0.04925 0.74855 0.79472 0.0
O606 O 0.04396 0.80613 0.77091 0.0
C607 C 0.99875 0.75779 0.75987 0.0
O608 O 1.00207 0.74884 0.77761 0.0
H609 H 0.0637 0.77219 0.75576 0.0
H610 H 0.03985 0.74511 0.80684 0.0
N611 N 1.01507 0.78493 0.8005 0.0
N612 N 0.9919 0.79471 0.81874 0.0
C613 C 0.99707 0.79165 0.80001 0.0
C614 C 0.02155 0.78346 0.82022 0.0
C615 C 1.00732 0.78941 0.83147 0.0
C616 C 0.04323 0.82204 0.77963 0.0
O617 O 0.029 0.82373 0.79121 0.0
H618 H 0.98829 0.79478 0.78602 0.0
H619 H 0.03593 0.77916 0.82596 0.0
O620 O 1.00918 0.7735 0.75595 0.0
H621 H 0.07021 0.72601 0.79889 0.0
H622 H 1.00875 0.79055 0.84774 0.0
Cu623 Cu 0.33644 0.03352 0.79595 0.0
N624 N 0.36044 0.04883 0.79628 0.0
N625 N 0.37934 0.07471 0.78571 0.0
C626 C 0.36453 0.0611 0.78063 0.0
C627 C 0.38501 0.07073 0.80539 0.0
C628 C 0.37338 0.05462 0.81187 0.0
O629 O 0.31645 0.05223 0.79484 0.0
C630 C 0.34945 1.00414 0.77709 0.0
O631 O 0.36257 1.00723 0.79264 0.0
H632 H 0.35528 0.06141 0.76645 0.0
H633 H 0.37308 0.04886 0.82727 0.0
N634 N 0.33283 0.01788 0.81922 0.0
N635 N 0.3158 0.99614 0.83828 0.0
C636 C 0.31509 1.00877 0.82218 0.0
C637 C 0.34544 1.01088 0.83404 0.0
C638 C 0.33492 0.99737 0.84585 0.0
C639 C 0.31903 0.06269 0.81038 0.0
O640 O 0.3331 0.05886 0.8245 0.0
H641 H 0.30212 1.01054 0.8118 0.0
H642 H 0.36121 0.01456 0.83556 0.0
O643 O 0.33551 0.01535 0.77411 0.0
H644 H 0.39574 0.07965 0.81475 0.0
H645 H 0.34099 0.98873 0.85857 0.0
Cu646 Cu 0.06831 0.2679 0.7892 0.0
N647 N 0.05092 0.2874 0.78927 0.0
N648 N 0.02522 0.30435 0.77842 0.0
C649 C 0.03467 0.28835 0.77615 0.0
C650 C 0.03597 0.31382 0.79367 0.0
C651 C 0.05177 0.30332 0.80035 0.0
O652 O 0.05052 0.2447 0.78375 0.0
C653 C 0.09565 0.29207 0.77078 0.0
O654 O 0.09305 0.30181 0.78669 0.0
H655 H 0.03029 0.2778 0.76467 0.0
H656 H 0.0633 0.30731 0.81209 0.0
N657 N 0.08408 0.26494 0.81377 0.0
N658 N 0.10882 0.25544 0.83557 0.0
C659 C 0.10041 0.25515 0.8163 0.0
C660 C 0.08207 0.27166 0.8321 0.0
C661 C 0.09736 0.2659 0.84554 0.0
C662 C 0.04812 0.23054 0.79654 0.0
O663 O 0.06135 0.22872 0.81203 0.0
H664 H 0.10601 0.24797 0.80418 0.0
H665 H 0.0702 0.27993 0.83554 0.0
O666 O 0.08603 0.27553 0.76833 0.0
H667 H 0.03274 0.32743 0.79951 0.0
H668 H 0.09958 0.26876 0.86152 0.0
Cu669 Cu 0.81417 0.03828 0.73288 0.0
N670 N 0.83773 0.05436 0.73335 0.0
N671 N 0.85963 0.07834 0.74458 0.0
C672 C 0.84376 0.06625 0.74862 0.0
C673 C 0.86387 0.07389 0.72601 0.0
C674 C 0.85039 0.05893 0.71915 0.0
O675 O 0.7931 0.0561 0.73015 0.0
C676 C 0.80452 1.00978 0.76524 0.0
O677 O 0.78603 1.00887 0.75758 0.0
H678 H 0.83593 0.06675 0.76198 0.0
H679 H 0.84947 0.05249 0.70456 0.0
N680 N 0.81074 0.02115 0.71135 0.0
N681 N 0.80066 0.9939 0.69467 0.0
C682 C 0.80219 1.00281 0.71253 0.0
C683 C 0.81483 0.02407 0.69195 0.0
C684 C 0.80868 1.00733 0.68167 0.0
C685 C 0.79409 0.06875 0.71549 0.0
O686 O 0.80794 0.06794 0.70322 0.0
H687 H 0.79672 0.99632 0.72616 0.0
H688 H 0.82143 0.0375 0.68555 0.0
O689 O 0.81709 0.02224 0.7579 0.0
H690 H 0.87558 0.08118 0.71783 0.0
H691 H 0.80993 1.0054 0.66579 0.0
Cu692 Cu 0.31381 0.75823 0.534 0.0
N693 N 0.33747 0.76219 0.5507 0.0
N694 N 0.35794 0.77457 0.57616 0.0
C695 C 0.33911 0.77201 0.56792 0.0
C696 C 0.36865 0.76602 0.5636 0.0
C697 C 0.35597 0.75833 0.54793 0.0
O698 O 0.29273 0.75665 0.55224 0.0
C699 C 0.32622 0.77574 0.49904 0.0
O700 O 0.33714 0.76099 0.50202 0.0
H701 H 0.32676 0.7779 0.57382 0.0
H702 H 0.36007 0.75093 0.53518 0.0
N703 N 0.3107 0.73478 0.52053 0.0
N704 N 0.29873 0.71496 0.4958 0.0
C705 C 0.296 0.73079 0.50595 0.0
C706 C 0.3231 0.7208 0.51984 0.0
C707 C 0.31578 0.70858 0.50445 0.0
C708 C 0.29438 0.74267 0.56546 0.0
O709 O 0.30891 0.73157 0.5647 0.0
H710 H 0.2843 0.74021 0.50186 0.0
H711 H 0.337 0.72018 0.529 0.0
O712 O 0.31426 0.77848 0.51212 0.0
H713 H 0.3845 0.76554 0.56547 0.0
H714 H 0.32279 0.69641 0.49954 0.0
Cu715 Cu 0.80018 0.79838 0.49768 0.0
N716 N 0.82369 0.79602 0.48608 0.0
N717 N 0.84342 0.7845 0.46527 0.0
C718 C 0.82471 0.78745 0.46847 0.0
C719 C 0.85465 0.79193 0.48143 0.0
C720 C 0.84242 0.79895 0.49427 0.0
O721 O 0.77955 0.8019 0.47604 0.0
C722 C 0.80054 0.75885 0.51208 0.0
O723 O 0.80771 0.75583 0.49497 0.0
H724 H 0.81176 0.78265 0.45873 0.0
H725 H 0.84675 0.80477 0.50903 0.0
N726 N 0.80175 0.81944 0.51457 0.0
N727 N 0.79415 0.83661 0.53999 0.0
C728 C 0.7934 0.81886 0.53216 0.0
C729 C 0.8082 0.83822 0.51118 0.0
C730 C 0.80342 0.84889 0.52683 0.0
C731 C 0.78326 0.81527 0.46273 0.0
O732 O 0.80042 0.82557 0.46452 0.0
H733 H 0.78589 0.80583 0.53852 0.0
H734 H 0.81519 0.84388 0.49793 0.0
O735 O 0.79481 0.77544 0.51493 0.0
H736 H 0.87043 0.7913 0.4844 0.0
H737 H 0.80615 0.86448 0.52821 0.0
Cu738 Cu 0.808 0.25032 0.53662 0.0
N739 N 0.80334 0.22842 0.52052 0.0
N740 N 0.78982 0.21039 0.49472 0.0
C741 C 0.78969 0.22711 0.50447 0.0
C742 C 0.80417 0.20078 0.50518 0.0
C743 C 0.81253 0.21196 0.52103 0.0
O744 O 0.81094 0.27248 0.51676 0.0
C745 C 0.78665 0.23253 0.56598 0.0
O746 O 0.79975 0.2203 0.56333 0.0
H747 H 0.7799 0.23835 0.50006 0.0
H748 H 0.82462 0.20849 0.53192 0.0
N749 N 0.83146 0.25111 0.55401 0.0
N750 N 0.85262 0.26127 0.57998 0.0
C751 C 0.83378 0.26026 0.57169 0.0
C752 C 0.84952 0.24592 0.55117 0.0
C753 C 0.86265 0.25237 0.5671 0.0
C754 C 0.82392 0.27 0.50462 0.0
O755 O 0.83344 0.25427 0.50742 0.0
H756 H 0.82206 0.26702 0.57781 0.0
H757 H 0.8531 0.23862 0.53814 0.0
O758 O 0.78679 0.2483 0.555 0.0
H759 H 0.8087 0.18688 0.5014 0.0
H760 H 0.87838 0.25101 0.56889 0.0
Cu761 Cu 0.30609 0.31092 0.51949 0.0
N762 N 0.31047 0.33109 0.53779 0.0
N763 N 0.30552 0.34783 0.56473 0.0
C764 C 0.3012 0.33111 0.55481 0.0
C765 C 0.31809 0.35879 0.55343 0.0
C766 C 0.32112 0.34843 0.53684 0.0
O767 O 0.30247 0.28705 0.53615 0.0
C768 C 0.28569 0.33153 0.48946 0.0
O769 O 0.30216 0.34283 0.49232 0.0
H770 H 0.29084 0.31928 0.55936 0.0
H771 H 0.33003 0.35346 0.52471 0.0
N772 N 0.32677 0.30836 0.50341 0.0
N773 N 0.34332 0.29482 0.48095 0.0
C774 C 0.32631 0.29438 0.48985 0.0
C775 C 0.34469 0.31814 0.50309 0.0
C776 C 0.35494 0.30981 0.48926 0.0
C777 C 0.31817 0.27968 0.54354 0.0
O778 O 0.3353 0.28786 0.53877 0.0
H779 H 0.31388 0.28366 0.48717 0.0
H780 H 0.35012 0.33015 0.51253 0.0
O781 O 0.2835 0.31605 0.50056 0.0
H782 H 0.32453 0.37332 0.55677 0.0
H783 H 0.36981 0.31442 0.48571 0.0
Cu784 Cu 0.83799 0.53023 0.78472 0.0
N785 N 0.85882 0.54907 0.78108 0.0
N786 N 0.87238 0.577 0.76817 0.0
C787 C 0.85739 0.56293 0.76631 0.0
C788 C 0.88406 0.5715 0.78463 0.0
C789 C 0.87556 0.55422 0.79268 0.0
O790 O 0.81428 0.54432 0.78409 0.0
C791 C 0.85468 0.50311 0.76515 0.0
O792 O 0.86894 0.50941 0.77858 0.0
H793 H 0.84499 0.56303 0.7549 0.0
H794 H 0.88062 0.54657 0.80652 0.0
N795 N 0.83979 0.51669 0.80958 0.0
N796 N 0.82848 0.49349 0.83115 0.0
C797 C 0.83062 0.4988 0.81166 0.0
C798 C 0.84393 0.52303 0.8285 0.0
C799 C 0.83689 0.50868 0.8419 0.0
C800 C 0.81652 0.5594 0.79478 0.0
O801 O 0.83367 0.56385 0.80487 0.0
H802 H 0.82361 0.49077 0.79891 0.0
H803 H 0.84999 0.53759 0.83218 0.0
O804 O 0.83829 0.51075 0.76433 0.0
H805 H 0.89714 0.57987 0.79103 0.0
H806 H 0.83676 0.50988 0.85808 0.0
Cu807 Cu 0.31586 0.54242 0.74606 0.0
N808 N 0.33557 0.52508 0.74754 0.0
N809 N 0.35082 0.49923 0.7605 0.0
C810 C 0.33677 0.51133 0.76257 0.0
C811 C 0.35895 0.50577 0.74339 0.0
C812 C 0.34939 0.52168 0.73533 0.0
O813 O 0.29197 0.52464 0.74277 0.0
C814 C 0.3387 0.56547 0.7728 0.0
O815 O 0.35151 0.56041 0.76092 0.0
H816 H 0.32727 0.51024 0.77478 0.0
H817 H 0.35204 0.52984 0.7214 0.0
N818 N 0.31502 0.56127 0.72474 0.0
N819 N 0.3035 0.58772 0.70842 0.0
C820 C 0.29931 0.57171 0.72025 0.0
C821 C 0.32976 0.57097 0.71534 0.0
C822 C 0.32269 0.58728 0.70523 0.0
C823 C 0.28837 0.51819 0.72495 0.0
O824 O 0.29895 0.52586 0.7106 0.0
H825 H 0.28556 0.56853 0.72709 0.0
H826 H 0.3449 0.5673 0.71697 0.0
O827 O 0.32083 0.55815 0.77004 0.0
H828 H 0.37053 0.49922 0.73682 0.0
H829 H 0.33125 0.59843 0.69702 0.0
Cu830 Cu 0.31834 0.50493 0.27224 0.0
N831 N 0.29328 0.49224 0.26899 0.0
N832 N 0.26853 0.4725 0.27983 0.0
C833 C 0.28813 0.47524 0.27864 0.0
C834 C 0.26099 0.48833 0.27056 0.0
C835 C 0.27634 0.50049 0.26375 0.0
O836 O 0.33589 0.48413 0.27741 0.0
C837 C 0.32427 0.53949 0.2964 0.0
O838 O 0.33943 0.54552 0.28628 0.0
H839 H 0.2987 0.46631 0.28686 0.0
H840 H 0.27547 0.51519 0.25754 0.0
N841 N 0.32401 0.51881 0.24835 0.0
N842 N 0.33097 0.54371 0.22676 0.0
C843 C 0.32242 0.53786 0.24378 0.0
C844 C 0.3332 0.51227 0.23331 0.0
C845 C 0.33765 0.52763 0.22004 0.0
C846 C 0.35391 0.48503 0.27377 0.0
O847 O 0.36324 0.50205 0.26971 0.0
H848 H 0.31613 0.54748 0.2533 0.0
H849 H 0.33722 0.49754 0.23257 0.0
O850 O 0.31609 0.52232 0.29409 0.0
H851 H 0.24577 0.4916 0.2703 0.0
H852 H 0.3457 0.52713 0.20683 0.0
Cu853 Cu 0.80509 0.53066 0.24643 0.0
N854 N 0.82627 0.51481 0.24859 0.0
N855 N 0.84247 0.48987 0.26235 0.0
C856 C 0.82551 0.49859 0.26069 0.0
C857 C 0.85455 0.50104 0.2507 0.0
C858 C 0.84444 0.51638 0.24204 0.0
O859 O 0.78251 0.51149 0.24062 0.0
C860 C 0.82549 0.55551 0.2719 0.0
O861 O 0.83682 0.55408 0.25726 0.0
H862 H 0.81288 0.49374 0.26888 0.0
H863 H 0.85016 0.52812 0.23228 0.0
N864 N 0.80316 0.55051 0.22612 0.0
N865 N 0.79099 0.57755 0.21177 0.0
C866 C 0.79055 0.56423 0.22731 0.0
C867 C 0.81206 0.55521 0.20911 0.0
C868 C 0.80447 0.57187 0.20014 0.0
C869 C 0.78431 0.50362 0.2239 0.0
O870 O 0.79868 0.51083 0.21321 0.0
H871 H 0.78103 0.56424 0.23942 0.0
H872 H 0.82325 0.5472 0.20366 0.0
O873 O 0.80875 0.5455 0.27116 0.0
H874 H 0.86962 0.49844 0.24875 0.0
H875 H 0.80878 0.57935 0.18635 0.0
Cu876 Cu 0.53663 0.27062 0.80061 0.0
N877 N 0.52227 0.27002 0.82356 0.0
N878 N 0.49994 0.27862 0.84343 0.0
C879 C 0.51064 0.28388 0.82763 0.0
C880 C 0.50501 0.26066 0.8495 0.0
C881 C 0.51869 0.25539 0.83721 0.0
O882 O 0.51727 0.26399 0.77819 0.0
C883 C 0.55862 0.30475 0.81263 0.0
O884 O 0.5553 0.2971 0.83061 0.0
H885 H 0.50941 0.2972 0.8185 0.0
H886 H 0.52484 0.24149 0.83767 0.0
N887 N 0.55606 0.25292 0.80165 0.0
N888 N 0.5808 0.23786 0.79117 0.0
C889 C 0.5671 0.25065 0.78626 0.0
C890 C 0.56311 0.24126 0.81694 0.0
C891 C 0.57826 0.23185 0.81047 0.0
C892 C 0.50861 0.2469 0.77942 0.0
O893 O 0.51424 0.23518 0.79462 0.0
H894 H 0.56513 0.25839 0.77175 0.0
H895 H 0.55805 0.24004 0.8319 0.0
O896 O 0.55076 0.29609 0.79698 0.0
H897 H 0.49902 0.25179 0.86171 0.0
H898 H 0.58712 0.22184 0.81952 0.0
Cu899 Cu 0.56051 0.76588 0.78312 0.0
N900 N 0.57823 0.76324 0.80643 0.0
N901 N 0.60453 0.75356 0.82589 0.0
C902 C 0.59414 0.75291 0.8075 0.0
C903 C 0.59462 0.76477 0.83682 0.0
C904 C 0.57846 0.77072 0.8248 0.0
O905 O 0.57717 0.77142 0.76073 0.0
C906 C 0.53601 0.73431 0.79735 0.0
O907 O 0.54634 0.73866 0.81446 0.0
H908 H 0.5978 0.7449 0.79497 0.0
H909 H 0.56758 0.77969 0.82926 0.0
N910 N 0.54507 0.78688 0.78354 0.0
N911 N 0.52004 0.80517 0.77432 0.0
C912 C 0.52849 0.78878 0.77117 0.0
C913 C 0.54731 0.8027 0.7949 0.0
C914 C 0.53183 0.81396 0.78931 0.0
C915 C 0.5894 0.78636 0.76366 0.0
O916 O 0.58874 0.79603 0.78011 0.0
H917 H 0.52263 0.77815 0.76019 0.0
H918 H 0.55943 0.806 0.80623 0.0
O919 O 0.54098 0.74315 0.78103 0.0
H920 H 0.5988 0.76862 0.85234 0.0
H921 H 0.52963 0.82773 0.79554 0.0
Cu922 Cu 0.50656 0.75764 0.28272 0.0
N923 N 0.49247 0.76019 0.30548 0.0
N924 N 0.47097 0.77168 0.32456 0.0
C925 C 0.4786 0.77281 0.30643 0.0
C926 C 0.48036 0.75768 0.33542 0.0
C927 C 0.49363 0.7507 0.32369 0.0
O928 O 0.48719 0.74957 0.26075 0.0
C929 C 0.528 0.79349 0.29078 0.0
O930 O 0.52188 0.78984 0.30883 0.0
H931 H 0.47424 0.78267 0.29398 0.0
H932 H 0.50358 0.73968 0.32828 0.0
N933 N 0.52558 0.73933 0.28577 0.0
N934 N 0.55214 0.72462 0.27881 0.0
C935 C 0.54127 0.74006 0.27474 0.0
C936 C 0.52641 0.72279 0.29725 0.0
C937 C 0.54275 0.71377 0.29307 0.0
C938 C 0.47635 0.73395 0.26409 0.0
O939 O 0.47926 0.72448 0.2816 0.0
H940 H 0.54422 0.75152 0.26348 0.0
H941 H 0.5157 0.71737 0.30756 0.0
O942 O 0.52164 0.78215 0.27658 0.0
H943 H 0.47818 0.75314 0.35093 0.0
H944 H 0.54717 0.70017 0.30001 0.0
Cu945 Cu 0.55933 0.23182 0.26851 0.0
N946 N 0.54177 0.20982 0.27215 0.0
N947 N 0.51648 0.19232 0.28504 0.0
C948 C 0.52889 0.20863 0.2863 0.0
C949 C 0.52177 0.18281 0.26938 0.0
C950 C 0.53749 0.19365 0.26146 0.0
O951 O 0.54257 0.25364 0.26442 0.0
C952 C 0.58546 0.21657 0.29886 0.0
O953 O 0.5761 0.20036 0.29214 0.0
H954 H 0.5281 0.22005 0.29673 0.0
H955 H 0.54489 0.19023 0.24857 0.0
N956 N 0.57275 0.23163 0.2454 0.0
N957 N 0.59448 0.24395 0.22415 0.0
C958 C 0.58981 0.24258 0.24343 0.0
C959 C 0.5665 0.22558 0.22671 0.0
C960 C 0.57987 0.23332 0.21349 0.0
C961 C 0.52828 0.25081 0.25068 0.0
O962 O 0.5267 0.23451 0.24102 0.0
H963 H 0.59765 0.25091 0.25557 0.0
H964 H 0.55257 0.21738 0.22265 0.0
O965 O 0.57996 0.23281 0.29135 0.0
H966 H 0.51465 0.16918 0.26388 0.0
H967 H 0.57841 0.23215 0.19721 0.0
H968 H 0.23345 0.20608 0.20607 0.0
H969 H 0.18714 0.18258 0.16339 0.0
H970 H 0.25081 0.22202 0.17811 0.0
H971 H 0.20431 0.19814 0.13531 0.0
H972 H 0.22455 0.25044 0.09495 0.0
H973 H 0.21014 0.23134 0.12244 0.0
H974 H 0.26827 0.2185 0.14786 0.0
H975 H 0.28278 0.23811 0.12046 0.0
C976 C 0.22734 0.20391 0.19061 0.0
C977 C 0.20909 0.19309 0.18675 0.0
C978 C 0.23718 0.21305 0.17458 0.0
C979 C 0.22886 0.21163 0.15438 0.0
C980 C 0.21102 0.19991 0.15063 0.0
C981 C 0.20128 0.19078 0.16663 0.0
C982 C 0.23432 0.24367 0.10642 0.0
C983 C 0.25488 0.24594 0.1054 0.0
C984 C 0.22602 0.23247 0.12212 0.0
C985 C 0.23798 0.22319 0.13741 0.0
C986 C 0.25857 0.22546 0.13645 0.0
C987 C 0.26689 0.23659 0.12061 0.0
H988 H 0.83498 0.23742 0.1717 0.0
H989 H 0.84901 0.19277 0.13364 0.0
H990 H 0.82693 0.25827 0.14173 0.0
H991 H 0.84078 0.21341 0.1035 0.0
H992 H 0.80857 0.25078 0.05412 0.0
H993 H 0.81287 0.22922 0.08405 0.0
H994 H 0.8473 0.27571 0.11592 0.0
H995 H 0.84295 0.29741 0.08599 0.0
C996 C 0.83606 0.23205 0.15682 0.0
C997 C 0.84264 0.21364 0.15481 0.0
C998 C 0.83158 0.24394 0.13974 0.0
C999 C 0.83345 0.23754 0.12031 0.0
C1000 C 0.83909 0.21868 0.11828 0.0
C1001 C 0.84371 0.20684 0.13543 0.0
C1002 C 0.81702 0.25645 0.06752 0.0
C1003 C 0.82545 0.27582 0.06769 0.0
C1004 C 0.81953 0.24405 0.08462 0.0
C1005 C 0.83037 0.25079 0.1023 0.0
C1006 C 0.83867 0.27019 0.10255 0.0
C1007 C 0.8363 0.28257 0.08538 0.0
H1008 H 0.84978 0.80919 0.17628 0.0
H1009 H 0.90605 0.83223 0.15743 0.0
H1010 H 0.84285 0.79144 0.14526 0.0
H1011 H 0.89997 0.81345 0.12676 0.0
H1012 H 0.86749 0.80721 0.06282 0.0
H1013 H 0.88076 0.81681 0.09628 0.0
H1014 H 0.84695 0.76772 0.12271 0.0
H1015 H 0.83282 0.75866 0.08895 0.0
C1016 C 0.86092 0.80994 0.16566 0.0
C1017 C 0.87826 0.82233 0.16901 0.0
C1018 C 0.85707 0.79961 0.14788 0.0
C1019 C 0.87066 0.80118 0.13308 0.0
C1020 C 0.88887 0.81224 0.13744 0.0
C1021 C 0.89257 0.82277 0.15516 0.0
C1022 C 0.86309 0.7982 0.07571 0.0
C1023 C 0.84884 0.78228 0.0731 0.0
C1024 C 0.87088 0.80367 0.09506 0.0
C1025 C 0.86485 0.79325 0.11248 0.0
C1026 C 0.85165 0.77644 0.10978 0.0
C1027 C 0.84367 0.77108 0.09036 0.0
H1028 H 0.24138 0.8262 0.15908 0.0
H1029 H 0.21334 0.87419 0.12858 0.0
H1030 H 0.26365 0.82633 0.13213 0.0
H1031 H 0.23541 0.87436 0.10141 0.0
H1032 H 0.25802 0.84497 0.04624 0.0
H1033 H 0.23859 0.84943 0.0745 0.0
H1034 H 0.29115 0.84826 0.11594 0.0
H1035 H 0.31061 0.84393 0.08756 0.0
C1036 C 0.24022 0.83688 0.14665 0.0
C1037 C 0.22578 0.85016 0.14572 0.0
C1038 C 0.25295 0.83705 0.13132 0.0
C1039 C 0.25121 0.85033 0.11465 0.0
C1040 C 0.237 0.86391 0.11402 0.0
C1041 C 0.22449 0.86391 0.12952 0.0
C1042 C 0.26541 0.84584 0.06137 0.0
C1043 C 0.28579 0.84409 0.06471 0.0
C1044 C 0.25434 0.84852 0.07751 0.0
C1045 C 0.26337 0.84917 0.09742 0.0
C1046 C 0.28382 0.84774 0.10075 0.0
C1047 C 0.29496 0.84541 0.08452 0.0
H1048 H 0.2128 0.89796 0.88705 0.0
H1049 H 0.21658 0.84503 0.85636 0.0
H1050 H 0.23472 0.88634 0.91553 0.0
H1051 H 0.23833 0.83312 0.88488 0.0
H1052 H 0.25743 0.81083 0.94988 0.0
H1053 H 0.23611 0.82259 0.92112 0.0
H1054 H 0.26957 0.87874 0.923 0.0
H1055 H 0.29078 0.86709 0.95179 0.0
C1056 C 0.21852 0.8839 0.88641 0.0
C1057 C 0.21311 0.87233 0.86966 0.0
C1058 C 0.231 0.87723 0.90265 0.0
C1059 C 0.23818 0.85879 0.90245 0.0
C1060 C 0.2328 0.84727 0.88558 0.0
C1061 C 0.22043 0.85403 0.8693 0.0
C1062 C 0.26023 0.82568 0.94416 0.0
C1063 C 0.27578 0.83803 0.95313 0.0
C1064 C 0.24809 0.83237 0.92763 0.0
C1065 C 0.25118 0.85158 0.91983 0.0
C1066 C 0.26671 0.86393 0.92882 0.0
C1067 C 0.27892 0.85721 0.94525 0.0
H1068 H 0.27527 0.21233 0.89752 0.0
H1069 H 0.2231 0.18334 0.9206 0.0
H1070 H 0.28541 0.22605 0.9306 0.0
H1071 H 0.23306 0.19698 0.95386 0.0
H1072 H 0.24806 0.24263 1.00303 0.0
H1073 H 0.23754 0.22732 0.97119 0.0
H1074 H 0.29768 0.21565 0.96509 0.0
H1075 H 0.30833 0.23142 0.99719 0.0
C1076 C 0.26589 0.20912 0.90972 0.0
C1077 C 0.24842 0.19684 0.90659 0.0
C1078 C 0.27178 0.21675 0.92871 0.0
C1079 C 0.26026 0.21239 0.94506 0.0
C1080 C 0.24231 0.2007 0.94164 0.0
C1081 C 0.23647 0.19301 0.9226 0.0
C1082 C 0.25906 0.23657 0.99508 0.0
C1083 C 0.27907 0.23829 1.00265 0.0
C1084 C 0.25298 0.2277 0.97679 0.0
C1085 C 0.26673 0.22037 0.9654 0.0
C1086 C 0.28671 0.22141 0.97333 0.0
C1087 C 0.29281 0.2302 0.99184 0.0
H1088 H 0.90728 0.2082 0.89925 0.0
H1089 H 0.85928 0.22594 0.85773 0.0
H1090 H 0.89425 0.22398 0.92667 0.0
H1091 H 0.84592 0.24173 0.88526 0.0
H1092 H 0.82062 0.25127 0.94744 0.0
H1093 H 0.83125 0.23495 0.91886 0.0
H1094 H 0.89127 0.2581 0.93459 0.0
H1095 H 0.88079 0.27448 0.96266 0.0
C1096 C 0.89392 0.21555 0.89606 0.0
C1097 C 0.8844 0.2161 0.87641 0.0
C1098 C 0.88644 0.22457 0.9117 0.0
C1099 C 0.86916 0.23431 0.9081 0.0
C1100 C 0.85921 0.23429 0.88854 0.0
C1101 C 0.86682 0.2253 0.87281 0.0
C1102 C 0.83604 0.25303 0.94466 0.0
C1103 C 0.84986 0.26397 0.95764 0.0
C1104 C 0.84212 0.24367 0.9283 0.0
C1105 C 0.86216 0.24498 0.92465 0.0
C1106 C 0.87581 0.25638 0.93726 0.0
C1107 C 0.86976 0.26576 0.95345 0.0
H1108 H 0.84902 0.83755 0.86712 0.0
H1109 H 0.8858 0.87981 0.90222 0.0
H1110 H 0.83784 0.8215 0.8982 0.0
H1111 H 0.87547 0.86357 0.93351 0.0
H1112 H 0.8307 0.85034 0.98004 0.0
H1113 H 0.84638 0.86215 0.9501 0.0
H1114 H 0.84303 0.80347 0.92939 0.0
H1115 H 0.8263 0.79171 0.95893 0.0
C1116 C 0.85538 0.84279 0.88163 0.0
C1117 C 0.86841 0.85969 0.88243 0.0
C1118 C 0.84892 0.83373 0.89947 0.0
C1119 C 0.85543 0.8414 0.9185 0.0
C1120 C 0.86971 0.85749 0.9192 0.0
C1121 C 0.87597 0.86661 0.90136 0.0
C1122 C 0.8331 0.83988 0.96912 0.0
C1123 C 0.82702 0.82 0.9721 0.0
C1124 C 0.84247 0.84666 0.95197 0.0
C1125 C 0.84623 0.83379 0.93725 0.0
C1126 C 0.84032 0.81388 0.94027 0.0
C1127 C 0.83084 0.80709 0.95741 0.0
H1128 H 0.17092 0.21988 0.24295 0.0
H1129 H 0.13942 0.16453 0.22936 0.0
H1130 H 0.14467 0.22751 0.26325 0.0
H1131 H 0.11295 0.17199 0.24937 0.0
H1132 H 0.07952 0.18247 0.30363 0.0
H1133 H 0.1061 0.17545 0.28381 0.0
H1134 H 0.11104 0.23524 0.26123 0.0
H1135 H 0.0851 0.24242 0.28166 0.0
C1136 C 0.15818 0.20949 0.24415 0.0
C1137 C 0.1571 0.19166 0.23465 0.0
C1138 C 0.14314 0.2138 0.25574 0.0
C1139 C 0.12665 0.20033 0.2581 0.0
C1140 C 0.12554 0.18258 0.24826 0.0
C1141 C 0.1406 0.17831 0.23671 0.0
C1142 C 0.0864 0.19418 0.29464 0.0
C1143 C 0.07999 0.21301 0.29427 0.0
C1144 C 0.10153 0.1901 0.28304 0.0
C1145 C 0.11072 0.20474 0.27075 0.0
C1146 C 0.10447 0.22361 0.27059 0.0
C1147 C 0.08936 0.22769 0.28217 0.0
H1148 H 0.84827 0.17379 0.23357 0.0
H1149 H 0.86487 0.14428 0.18297 0.0
H1150 H 0.84782 0.14326 0.25404 0.0
H1151 H 0.86455 0.11353 0.20339 0.0
H1152 H 0.88124 0.06819 0.25539 0.0
H1153 H 0.88373 0.09937 0.23592 0.0
H1154 H 0.82634 0.11096 0.25211 0.0
H1155 H 0.82388 0.07994 0.27136 0.0
C1156 C 0.85182 0.16066 0.22694 0.0
C1157 C 0.85647 0.16113 0.20682 0.0
C1158 C 0.85154 0.14326 0.23855 0.0
C1159 C 0.85618 0.12606 0.23029 0.0
C1160 C 0.86108 0.12662 0.21015 0.0
C1161 C 0.86108 0.14404 0.19845 0.0
C1162 C 0.86932 0.07756 0.25492 0.0
C1163 C 0.85236 0.0717 0.2648 0.0
C1164 C 0.87065 0.09525 0.24367 0.0
C1165 C 0.85519 0.10751 0.24248 0.0
C1166 C 0.8385 0.10184 0.25285 0.0
C1167 C 0.83705 0.08408 0.26376 0.0
H1168 H 0.89499 0.80466 0.21767 0.0
H1169 H 0.93218 0.85074 0.19138 0.0
H1170 H 0.92428 0.78967 0.23334 0.0
H1171 H 0.96158 0.83591 0.20668 0.0
H1172 H 1.00537 0.82144 0.2609 0.0
H1173 H 0.97649 0.83306 0.24133 0.0
H1174 H 0.9544 0.7738 0.22904 0.0
H1175 H 0.98319 0.76213 0.24911 0.0
C1176 C 0.90952 0.81113 0.21469 0.0
C1177 C 0.91147 0.82869 0.20325 0.0
C1178 C 0.9263 0.80267 0.22372 0.0
C1179 C 0.94535 0.81174 0.22156 0.0
C1180 C 0.94718 0.82872 0.20901 0.0
C1181 C 0.93042 0.83708 0.2 0.0
C1182 C 0.99433 0.81085 0.25418 0.0
C1183 C 0.99669 0.79082 0.25666 0.0
C1184 C 0.97784 0.81753 0.24268 0.0
C1185 C 0.96313 0.80439 0.23339 0.0
C1186 C 0.96538 0.78434 0.23598 0.0
C1187 C 0.98199 0.77765 0.24738 0.0
H1188 H 0.24728 0.86871 0.1818 0.0
H1189 H 0.19518 0.89907 0.16707 0.0
H1190 H 0.26672 0.89964 0.18867 0.0
H1191 H 0.21444 0.93017 0.17352 0.0
H1192 H 0.24883 0.97756 0.21194 0.0
H1193 H 0.23002 0.94749 0.20181 0.0
H1194 H 0.28037 0.93003 0.17477 0.0
H1195 H 0.29952 0.95972 0.18577 0.0
C1196 C 0.24013 0.88213 0.1797 0.0
C1197 C 0.2198 0.88162 0.17407 0.0
C1198 C 0.25121 0.89986 0.18358 0.0
C1199 C 0.24216 0.91748 0.18183 0.0
C1200 C 0.22186 0.91691 0.17546 0.0
C1201 C 0.21082 0.89916 0.17166 0.0
C1202 C 0.25599 0.96731 0.20396 0.0
C1203 C 0.27583 0.97115 0.19986 0.0
C1204 C 0.24507 0.9501 0.19788 0.0
C1205 C 0.25362 0.93624 0.18744 0.0
C1206 C 0.27334 0.94022 0.18299 0.0
C1207 C 0.28429 0.95743 0.18911 0.0
H1208 H 0.16408 0.84822 0.80971 0.0
H1209 H 0.14261 0.90212 0.82429 0.0
H1210 H 0.13182 0.83779 0.79297 0.0
H1211 H 0.11038 0.89232 0.8066 0.0
H1212 H 0.05145 0.85222 0.8051 0.0
H1213 H 0.08343 0.86959 0.81352 0.0
H1214 H 0.1073 0.84147 0.76566 0.0
H1215 H 0.07537 0.82346 0.75775 0.0
C1216 C 0.15243 0.85794 0.80896 0.0
C1217 C 0.15563 0.87581 0.81842 0.0
C1218 C 0.13401 0.85214 0.79915 0.0
C1219 C 0.11839 0.86419 0.79842 0.0
C1220 C 0.12197 0.88256 0.80707 0.0
C1221 C 0.14042 0.88828 0.81703 0.0
C1222 C 0.06337 0.85007 0.79603 0.0
C1223 C 0.06094 0.83615 0.78102 0.0
C1224 C 0.08177 0.86013 0.80082 0.0
C1225 C 0.09812 0.85666 0.79055 0.0
C1226 C 0.09518 0.8441 0.77425 0.0
C1227 C 0.07681 0.83389 0.76959 0.0
H1228 H 0.23313 0.12918 0.85523 0.0
H1229 H 0.28135 0.17218 0.84563 0.0
H1230 H 0.24908 0.1053 0.83759 0.0
H1231 H 0.29721 0.14872 0.82759 0.0
H1232 H 0.33211 0.09481 0.83056 0.0
H1233 H 0.31353 0.12062 0.83988 0.0
H1234 H 0.26131 0.09482 0.80598 0.0
H1235 H 0.28027 0.06835 0.79674 0.0
C1236 C 0.24698 0.13355 0.84894 0.0
C1237 C 0.25624 0.15232 0.85194 0.0
C1238 C 0.25605 0.11998 0.83875 0.0
C1239 C 0.27454 0.12501 0.83134 0.0
C1240 C 0.28317 0.14422 0.83342 0.0
C1241 C 0.27415 0.15767 0.8437 0.0
C1242 C 0.31671 0.09469 0.82484 0.0
C1243 C 0.30761 0.07947 0.81302 0.0
C1244 C 0.30606 0.10965 0.83006 0.0
C1245 C 0.2859 0.10988 0.82368 0.0
C1246 C 0.27682 0.09499 0.81124 0.0
C1247 C 0.28765 0.07996 0.8058 0.0
H1248 H 0.95041 0.19314 0.85997 0.0
H1249 H 0.92097 0.20313 0.80064 0.0
H1250 H 0.9822 0.19642 0.84591 0.0
H1251 H 0.95274 0.20537 0.78602 0.0
H1252 H 1.01317 0.2404 0.77689 0.0
H1253 H 0.98027 0.22851 0.78514 0.0
H1254 H 1.00495 0.18473 0.82624 0.0
H1255 H 0.03803 0.19731 0.81863 0.0
C1256 C 0.95083 0.19571 0.8438 0.0
C1257 C 0.9334 0.19822 0.83142 0.0
C1258 C 0.96901 0.19733 0.83563 0.0
C1259 C 0.97019 0.20128 0.81475 0.0
C1260 C 0.9525 0.20264 0.80219 0.0
C1261 C 0.93428 0.20117 0.81047 0.0
C1262 C 1.01159 0.2279 0.7873 0.0
C1263 C 0.02828 0.22 0.79735 0.0
C1264 C 0.99261 0.22101 0.79202 0.0
C1265 C 0.98985 0.20587 0.80672 0.0
C1266 C 1.00649 0.19678 0.8153 0.0
C1267 C 0.02549 0.20386 0.81079 0.0
H1268 H 0.84055 0.89646 0.80565 0.0
H1269 H 0.86569 0.93231 0.85449 0.0
H1270 H 0.82549 0.92456 0.78867 0.0
H1271 H 0.85061 0.9605 0.83775 0.0
H1272 H 0.84021 1.0094 0.78774 0.0
H1273 H 0.85393 0.98193 0.80689 0.0
H1274 H 0.79931 0.94657 0.79319 0.0
H1275 H 0.78555 0.97406 0.77399 0.0
C1276 C 0.84286 0.91043 0.81266 0.0
C1277 C 0.85426 0.91232 0.83129 0.0
C1278 C 0.83411 0.92646 0.8031 0.0
C1279 C 0.83676 0.9448 0.81189 0.0
C1280 C 0.84836 0.94665 0.8305 0.0
C1281 C 0.85692 0.93056 0.84013 0.0
C1282 C 0.831 0.99586 0.78906 0.0
C1283 C 0.81175 0.99399 0.77932 0.0
C1284 C 0.83887 0.98011 0.80008 0.0
C1285 C 0.8278 0.96197 0.80145 0.0
C1286 C 0.80834 0.96025 0.79222 0.0
C1287 C 0.80037 0.97609 0.78139 0.0
H1288 H 0.22998 0.172 0.24388 0.0
H1289 H 0.20164 0.14172 0.1925 0.0
H1290 H 0.24988 0.14497 0.25311 0.0
H1291 H 0.22244 0.11474 0.20065 0.0
H1292 H 0.24293 0.05989 0.23557 0.0
H1293 H 0.22567 0.08818 0.22292 0.0
H1294 H 0.27447 0.12619 0.24889 0.0
H1295 H 0.29071 0.09808 0.26259 0.0
C1296 C 0.22877 0.15979 0.23405 0.0
C1297 C 0.2145 0.1589 0.21745 0.0
C1298 C 0.24013 0.14416 0.2393 0.0
C1299 C 0.23779 0.12729 0.22782 0.0
C1300 C 0.22441 0.12714 0.21024 0.0
C1301 C 0.21277 0.14273 0.20523 0.0
C1302 C 0.24976 0.07434 0.23872 0.0
C1303 C 0.26795 0.07672 0.25047 0.0
C1304 C 0.24002 0.09065 0.23123 0.0
C1305 C 0.24849 0.10975 0.23487 0.0
C1306 C 0.26702 0.11192 0.24618 0.0
C1307 C 0.27644 0.0957 0.25406 0.0
H1308 H 0.20166 0.93306 0.85416 0.0
H1309 H 0.23975 0.89084 0.83867 0.0
H1310 H 0.2298 0.95763 0.85768 0.0
H1311 H 0.26796 0.91539 0.84122 0.0
H1312 H 0.31812 0.96019 0.85665 0.0
H1313 H 0.29065 0.9358 0.86171 0.0
H1314 H 0.2497 0.97661 0.83627 0.0
H1315 H 0.2769 1.00109 0.83245 0.0
C1316 C 0.21616 0.92919 0.85147 0.0
C1317 C 0.21871 0.91031 0.84599 0.0
C1318 C 0.23227 0.94317 0.85339 0.0
C1319 C 0.25121 0.93861 0.84955 0.0
C1320 C 0.25372 0.91943 0.84458 0.0
C1321 C 0.23762 0.9054 0.84293 0.0
C1322 C 0.30322 0.96407 0.85264 0.0
C1323 C 0.29974 0.98252 0.84387 0.0
C1324 C 0.28746 0.95 0.85528 0.0
C1325 C 0.2679 0.95408 0.84916 0.0
C1326 C 0.26447 0.97288 0.84135 0.0
C1327 C 0.28015 0.98691 0.83887 0.0
H1328 H 0.19012 0.17035 0.87841 0.0
H1329 H 0.22712 0.22404 0.87487 0.0
H1330 H 0.16072 0.1881 0.87083 0.0
H1331 H 0.19766 0.24209 0.86747 0.0
H1332 H 0.13604 0.26747 0.86594 0.0
H1333 H 0.16499 0.25096 0.87989 0.0
H1334 H 0.14906 0.20507 0.83792 0.0
H1335 H 0.12032 0.22149 0.82409 0.0
C1336 C 0.19185 0.18606 0.87654 0.0
C1337 C 0.21079 0.19586 0.87706 0.0
C1338 C 0.17508 0.19621 0.87204 0.0
C1339 C 0.17687 0.21646 0.86817 0.0
C1340 C 0.1958 0.22649 0.87038 0.0
C1341 C 0.21264 0.21624 0.87472 0.0
C1342 C 0.13871 0.25381 0.8598 0.0
C1343 C 0.1259 0.24581 0.84387 0.0
C1344 C 0.15533 0.24442 0.86771 0.0
C1345 C 0.15925 0.22664 0.86012 0.0
C1346 C 0.14634 0.21862 0.84429 0.0
C1347 C 0.12997 0.22813 0.8362 0.0
H1348 H 0.91619 0.15583 0.83708 0.0
H1349 H 0.87334 0.18795 0.80117 0.0
H1350 H 0.90937 0.12869 0.81405 0.0
H1351 H 0.86658 0.16104 0.77787 0.0
H1352 H 0.87264 0.11458 0.7316 0.0
H1353 H 0.88433 0.14223 0.75278 0.0
H1354 H 0.87796 0.1052 0.80641 0.0
H1355 H 0.8661 0.07773 0.78524 0.0
C1356 C 0.90552 0.15708 0.82404 0.0
C1357 C 0.89521 0.17377 0.82075 0.0
C1358 C 0.90156 0.14163 0.81096 0.0
C1359 C 0.88746 0.14279 0.79418 0.0
C1360 C 0.87765 0.15983 0.79057 0.0
C1361 C 0.88139 0.17513 0.80386 0.0
C1362 C 0.87406 0.11234 0.7479 0.0
C1363 C 0.86845 0.09406 0.75682 0.0
C1364 C 0.8806 0.12815 0.76 0.0
C1365 C 0.88202 0.12584 0.78122 0.0
C1366 C 0.87714 0.10737 0.7901 0.0
C1367 C 0.87026 0.0917 0.77802 0.0
H1368 H 0.87865 0.84377 0.81903 0.0
H1369 H 0.91165 0.86287 0.87404 0.0
H1370 H 0.905 0.82376 0.81262 0.0
H1371 H 0.93823 0.8429 0.86779 0.0
H1372 H 0.97742 0.7945 0.85578 0.0
H1373 H 0.94902 0.81025 0.86455 0.0
H1374 H 0.93812 0.83059 0.80239 0.0
H1375 H 0.96644 0.81516 0.79361 0.0
C1376 C 0.89148 0.84341 0.8299 0.0
C1377 C 0.8932 0.85493 0.84695 0.0
C1378 C 0.90666 0.83209 0.82619 0.0
C1379 C 0.92398 0.83192 0.83949 0.0
C1380 C 0.92513 0.84257 0.85723 0.0
C1381 C 0.9099 0.85396 0.8609 0.0
C1382 C 0.96908 0.80237 0.84393 0.0
C1383 C 0.9745 0.80342 0.8239 0.0
C1384 C 0.9527 0.81142 0.84901 0.0
C1385 C 0.94113 0.82167 0.8342 0.0
C1386 C 0.9464 0.82254 0.81417 0.0
C1387 C 0.96279 0.81362 0.80912 0.0
H1388 H 0.86613 0.89641 0.18307 0.0
H1389 H 0.85875 0.86189 0.23794 0.0
H1390 H 0.85259 0.92387 0.19772 0.0
H1391 H 0.84533 0.88914 0.25276 0.0
H1392 H 0.85618 0.94954 0.28025 0.0
H1393 H 0.86292 0.92102 0.26321 0.0
H1394 H 0.82174 0.93582 0.21266 0.0
H1395 H 0.81471 0.96489 0.23009 0.0
C1396 C 0.86121 0.89466 0.19812 0.0
C1397 C 0.86343 0.87717 0.20947 0.0
C1398 C 0.85342 0.91027 0.20647 0.0
C1399 C 0.84796 0.9087 0.22642 0.0
C1400 C 0.84954 0.89086 0.23741 0.0
C1401 C 0.85717 0.87528 0.22901 0.0
C1402 C 0.84843 0.94682 0.26552 0.0
C1403 C 0.83495 0.95961 0.25649 0.0
C1404 C 0.85221 0.93029 0.25582 0.0
C1405 C 0.8428 0.92605 0.23665 0.0
C1406 C 0.82922 0.93875 0.22746 0.0
C1407 C 0.82514 0.95531 0.23743 0.0
H1408 H 0.14839 0.84806 0.17616 0.0
H1409 H 0.18563 0.8022 0.19492 0.0
H1410 H 0.1207 0.82962 0.19108 0.0
H1411 H 0.15802 0.78361 0.21018 0.0
H1412 H 0.09992 0.7505 0.22738 0.0
H1413 H 0.1243 0.76599 0.20526 0.0
H1414 H 0.11416 0.82234 0.22587 0.0
H1415 H 0.09009 0.80709 0.24745 0.0
C1416 C 0.15054 0.83394 0.18343 0.0
C1417 C 0.1691 0.82661 0.18465 0.0
C1418 C 0.13474 0.82336 0.19197 0.0
C1419 C 0.13716 0.80518 0.20202 0.0
C1420 C 0.15557 0.79745 0.2024 0.0
C1421 C 0.17139 0.80809 0.19379 0.0
C1422 C 0.10268 0.7662 0.22678 0.0
C1423 C 0.09314 0.77757 0.23918 0.0
C1424 C 0.11675 0.77507 0.21429 0.0
C1425 C 0.1212 0.79544 0.21377 0.0
C1426 C 0.11097 0.80669 0.22561 0.0
C1427 C 0.09722 0.79789 0.23814 0.0
H1428 H 0.90417 0.18227 0.19704 0.0
H1429 H 0.87004 0.20962 0.23701 0.0
H1430 H 0.93368 0.18733 0.2211 0.0
H1431 H 0.8993 0.21437 0.26145 0.0
H1432 H 0.95377 0.20272 0.30618 0.0
H1433 H 0.92471 0.19276 0.28343 0.0
H1434 H 0.95271 0.22098 0.23293 0.0
H1435 H 0.98169 0.23128 0.25567 0.0
C1436 C 0.90305 0.18896 0.21126 0.0
C1437 C 0.88516 0.19551 0.21551 0.0
C1438 C 0.91979 0.19194 0.22487 0.0
C1439 C 0.91864 0.20123 0.24302 0.0
C1440 C 0.90044 0.20703 0.2476 0.0
C1441 C 0.88382 0.20436 0.23378 0.0
C1442 C 0.95379 0.20666 0.29019 0.0
C1443 C 0.96993 0.21782 0.28266 0.0
C1444 C 0.93717 0.20101 0.27725 0.0
C1445 C 0.93661 0.2061 0.25653 0.0
C1446 C 0.95294 0.21677 0.24887 0.0
C1447 C 0.96942 0.22274 0.26187 0.0
H1448 H 0.19608 0.71195 0.63995 0.0
H1449 H 0.24799 0.71626 0.6822 0.0
H1450 H 0.21633 0.72192 0.612 0.0
H1451 H 0.26837 0.7259 0.65444 0.0
H1452 H 0.29975 0.71813 0.5982 0.0
H1453 H 0.27872 0.71041 0.6253 0.0
H1454 H 0.23779 0.75029 0.59806 0.0
H1455 H 0.25909 0.75809 0.57039 0.0
C1456 C 0.21183 0.71514 0.64321 0.0
C1457 C 0.22054 0.71327 0.66317 0.0
C1458 C 0.22341 0.7209 0.62726 0.0
C1459 C 0.24398 0.72472 0.63095 0.0
C1460 C 0.25261 0.72285 0.651 0.0
C1461 C 0.24101 0.71723 0.6669 0.0
C1462 C 0.2863 0.72536 0.59785 0.0
C1463 C 0.28114 0.73877 0.58201 0.0
C1464 C 0.27427 0.72099 0.61357 0.0
C1465 C 0.25661 0.72979 0.61398 0.0
C1466 C 0.25128 0.74318 0.59813 0.0
C1467 C 0.26351 0.74773 0.58235 0.0
H1468 H 0.85373 0.68193 0.60608 0.0
H1469 H 0.84271 0.73487 0.63301 0.0
H1470 H 0.83376 0.69115 0.57507 0.0
H1471 H 0.82373 0.74492 0.60187 0.0
H1472 H 0.78406 0.75784 0.54807 0.0
H1473 H 0.79522 0.74069 0.5794 0.0
H1474 H 0.83702 0.71335 0.54755 0.0
H1475 H 0.82517 0.7297 0.51622 0.0
C1476 C 0.84688 0.69552 0.60524 0.0
C1477 C 0.84973 0.70783 0.62163 0.0
C1478 C 0.83558 0.7009 0.58753 0.0
C1479 C 0.82715 0.71886 0.58583 0.0
C1480 C 0.82963 0.73085 0.60263 0.0
C1481 C 0.84068 0.72529 0.62039 0.0
C1482 C 0.79525 0.74773 0.5477 0.0
C1483 C 0.80391 0.74531 0.52973 0.0
C1484 C 0.80181 0.73804 0.5657 0.0
C1485 C 0.81739 0.72597 0.56618 0.0
C1486 C 0.82494 0.72242 0.54784 0.0
C1487 C 0.81817 0.73187 0.5298 0.0
H1488 H 0.91755 0.33999 0.6672 0.0
H1489 H 0.85858 0.33007 0.6854 0.0
H1490 H 0.91015 0.31461 0.64258 0.0
H1491 H 0.85024 0.30635 0.65955 0.0
H1492 H 0.83884 0.25826 0.61672 0.0
H1493 H 0.85067 0.27728 0.64611 0.0
H1494 H 0.89493 0.30847 0.61143 0.0
H1495 H 0.8839 0.28808 0.58287 0.0
C1496 C 0.90304 0.33221 0.66604 0.0
C1497 C 0.88857 0.33715 0.67807 0.0
C1498 C 0.89858 0.31789 0.65159 0.0
C1499 C 0.87939 0.30841 0.6485 0.0
C1500 C 0.86525 0.3129 0.66132 0.0
C1501 C 0.8699 0.3268 0.67605 0.0
C1502 C 0.85129 0.26903 0.61565 0.0
C1503 C 0.86048 0.27174 0.59763 0.0
C1504 C 0.85801 0.28016 0.63242 0.0
C1505 C 0.87371 0.29486 0.63138 0.0
C1506 C 0.8831 0.29721 0.61326 0.0
C1507 C 0.87672 0.28561 0.59672 0.0
H1508 H 0.25949 0.34999 0.68227 0.0
H1509 H 0.23203 0.39501 0.64589 0.0
H1510 H 0.28111 0.34591 0.65575 0.0
H1511 H 0.25325 0.39083 0.61892 0.0
H1512 H 0.30093 0.38424 0.57671 0.0
H1513 H 0.28567 0.39274 0.60654 0.0
H1514 H 0.27566 0.33168 0.62338 0.0
H1515 H 0.2915 0.3233 0.59416 0.0
C1516 C 0.25846 0.35929 0.66869 0.0
C1517 C 0.24419 0.37278 0.66601 0.0
C1518 C 0.27064 0.35685 0.65339 0.0
C1519 C 0.26871 0.36777 0.63495 0.0
C1520 C 0.25526 0.38222 0.6329 0.0
C1521 C 0.24313 0.3847 0.64832 0.0
C1522 C 0.29577 0.37265 0.58695 0.0
C1523 C 0.29739 0.35305 0.58289 0.0
C1524 C 0.28683 0.37752 0.60398 0.0
C1525 C 0.2794 0.36293 0.61746 0.0
C1526 C 0.28143 0.34337 0.61358 0.0
C1527 C 0.2903 0.33852 0.59659 0.0
H1528 H 0.20789 0.32738 0.37848 0.0
H1529 H 0.20536 0.38578 0.3975 0.0
H1530 H 0.23099 0.3207 0.40793 0.0
H1531 H 0.22856 0.37933 0.42707 0.0
H1532 H 0.28533 0.365 0.46609 0.0
H1533 H 0.26283 0.3724 0.43668 0.0
H1534 H 0.23008 0.31653 0.44494 0.0
H1535 H 0.25286 0.30895 0.47437 0.0
C1536 C 0.21246 0.33879 0.38899 0.0
C1537 C 0.20488 0.35703 0.38591 0.0
C1538 C 0.22553 0.33497 0.40589 0.0
C1539 C 0.2314 0.34939 0.42001 0.0
C1540 C 0.22439 0.36793 0.41644 0.0
C1541 C 0.21122 0.37169 0.39953 0.0
C1542 C 0.27328 0.35429 0.46174 0.0
C1543 C 0.27093 0.33633 0.47256 0.0
C1544 C 0.26033 0.3586 0.4449 0.0
C1545 C 0.24473 0.34503 0.43839 0.0
C1546 C 0.24214 0.32719 0.44941 0.0
C1547 C 0.25507 0.3229 0.46637 0.0
H1548 H 0.25575 0.69449 0.37142 0.0
H1549 H 0.22133 0.65249 0.40636 0.0
H1550 H 0.26978 0.71021 0.40259 0.0
H1551 H 0.23485 0.66838 0.43762 0.0
H1552 H 0.25905 0.71263 0.48818 0.0
H1553 H 0.23963 0.70236 0.45681 0.0
H1554 H 0.29335 0.69288 0.4309 0.0
H1555 H 0.31262 0.70274 0.46229 0.0
C1556 C 0.25044 0.68933 0.38574 0.0
C1557 C 0.23728 0.67258 0.38661 0.0
C1558 C 0.25864 0.69807 0.40355 0.0
C1559 C 0.25353 0.69036 0.4225 0.0
C1560 C 0.23896 0.67467 0.42321 0.0
C1561 C 0.23106 0.66572 0.40539 0.0
C1562 C 0.26663 0.7083 0.47575 0.0
C1563 C 0.28731 0.70832 0.47768 0.0
C1564 C 0.25555 0.70246 0.45786 0.0
C1565 C 0.26502 0.69706 0.44139 0.0
C1566 C 0.2857 0.69722 0.44328 0.0
C1567 C 0.29671 0.70262 0.4613 0.0
H1568 H 0.90534 0.71091 0.39505 0.0
H1569 H 0.8519 0.72022 0.35738 0.0
H1570 H 0.89587 0.73233 0.4202 0.0
H1571 H 0.84224 0.74163 0.38238 0.0
H1572 H 0.8211 0.75747 0.4425 0.0
H1573 H 0.83159 0.73834 0.41649 0.0
H1574 H 0.89059 0.76649 0.42587 0.0
H1575 H 0.88002 0.78597 0.45197 0.0
C1576 C 0.89167 0.71777 0.39212 0.0
C1577 C 0.8793 0.71398 0.37438 0.0
C1578 C 0.88624 0.73003 0.40645 0.0
C1579 C 0.86826 0.73867 0.40334 0.0
C1580 C 0.85604 0.73501 0.3854 0.0
C1581 C 0.86153 0.72281 0.37108 0.0
C1582 C 0.83624 0.75994 0.43889 0.0
C1583 C 0.84965 0.77347 0.44938 0.0
C1584 C 0.84227 0.74886 0.42392 0.0
C1585 C 0.86192 0.7509 0.41901 0.0
C1586 C 0.87538 0.76441 0.42943 0.0
C1587 C 0.86932 0.77559 0.4444 0.0
H1588 H 0.85117 0.3163 0.38537 0.0
H1589 H 0.86502 0.3659 0.42267 0.0
H1590 H 0.83936 0.29699 0.41424 0.0
H1591 H 0.85304 0.34665 0.45184 0.0
H1592 H 0.81356 0.30786 0.49531 0.0
H1593 H 0.82292 0.32905 0.46615 0.0
H1594 H 0.85421 0.28326 0.44554 0.0
H1595 H 0.8449 0.26245 0.47385 0.0
C1596 C 0.85193 0.32296 0.39987 0.0
C1597 C 0.85932 0.34246 0.40186 0.0
C1598 C 0.84503 0.31198 0.41642 0.0
C1599 C 0.84529 0.32021 0.43548 0.0
C1600 C 0.85241 0.33989 0.43739 0.0
C1601 C 0.85939 0.35087 0.42076 0.0
C1602 C 0.82232 0.30237 0.48444 0.0
C1603 C 0.82843 0.28341 0.48703 0.0
C1604 C 0.82779 0.31452 0.46781 0.0
C1605 C 0.83923 0.30783 0.45336 0.0
C1606 C 0.84514 0.28887 0.45606 0.0
C1607 C 0.83986 0.27693 0.47253 0.0
H1608 H 0.15192 0.68737 0.70732 0.0
H1609 H 0.18424 0.74232 0.72083 0.0
H1610 H 0.12441 0.69647 0.72504 0.0
H1611 H 0.157 0.75159 0.73877 0.0
H1612 H 0.09657 0.77024 0.75026 0.0
H1613 H 0.12374 0.76072 0.73284 0.0
H1614 H 0.11457 0.70215 0.75808 0.0
H1615 H 0.08689 0.71152 0.77494 0.0
C1616 C 0.15307 0.70139 0.71417 0.0
C1617 C 0.17 0.71427 0.71253 0.0
C1618 C 0.1374 0.70661 0.72442 0.0
C1619 C 0.13834 0.72485 0.73333 0.0
C1620 C 0.15551 0.73759 0.73183 0.0
C1621 C 0.17115 0.73233 0.72161 0.0
C1622 C 0.10017 0.75528 0.75199 0.0
C1623 C 0.08934 0.74168 0.76404 0.0
C1624 C 0.11599 0.74985 0.74215 0.0
C1625 C 0.12149 0.73063 0.744 0.0
C1626 C 0.1107 0.71702 0.75607 0.0
C1627 C 0.0949 0.72247 0.76597 0.0
H1628 H 0.84979 0.68324 0.69828 0.0
H1629 H 0.9023 0.6648 0.67685 0.0
H1630 H 0.85125 0.65825 0.72561 0.0
H1631 H 0.90358 0.63908 0.70361 0.0
H1632 H 0.90578 0.5996 0.76054 0.0
H1633 H 0.90796 0.62938 0.73894 0.0
H1634 H 0.84445 0.62426 0.72691 0.0
H1635 H 0.8423 0.59558 0.74908 0.0
C1636 C 0.86165 0.67373 0.69957 0.0
C1637 C 0.87576 0.67555 0.68551 0.0
C1638 C 0.8625 0.6594 0.71509 0.0
C1639 C 0.87734 0.64637 0.71662 0.0
C1640 C 0.89204 0.6489 0.70301 0.0
C1641 C 0.89129 0.66347 0.68764 0.0
C1642 C 0.89233 0.60508 0.75348 0.0
C1643 C 0.87391 0.59502 0.75628 0.0
C1644 C 0.89356 0.62202 0.74097 0.0
C1645 C 0.87638 0.62925 0.73112 0.0
C1646 C 0.858 0.61938 0.73442 0.0
C1647 C 0.85678 0.60262 0.74689 0.0
H1648 H 0.94549 0.36798 0.69689 0.0
H1649 H 0.90714 0.32309 0.72356 0.0
H1650 H 0.97437 0.35328 0.7135 0.0
H1651 H 0.93601 0.30822 0.74055 0.0
H1652 H 0.99555 0.28148 0.7589 0.0
H1653 H 0.96699 0.29219 0.73756 0.0
H1654 H 0.98726 0.35201 0.74924 0.0
H1655 H 1.01584 0.34138 0.77012 0.0
C1656 C 0.94337 0.35459 0.70589 0.0
C1657 C 0.92424 0.34658 0.70896 0.0
C1658 C 0.95983 0.3463 0.71562 0.0
C1659 C 0.95751 0.32979 0.72871 0.0
C1660 C 0.93833 0.32091 0.73057 0.0
C1661 C 0.92181 0.3293 0.72079 0.0
C1662 C 0.99397 0.29692 0.75678 0.0
C1663 C 1.00805 0.31057 0.76622 0.0
C1664 C 0.97753 0.30304 0.74466 0.0
C1665 C 0.97491 0.32296 0.74151 0.0
C1666 C 0.98896 0.33656 0.75104 0.0
C1667 C 1.00526 0.33046 0.76326 0.0
H1668 H 0.21014 0.4206 0.67593 0.0
H1669 H 0.25956 0.39543 0.70882 0.0
H1670 H 0.22427 0.45323 0.6852 0.0
H1671 H 0.27395 0.42807 0.71831 0.0
H1672 H 0.28085 0.48643 0.75045 0.0
H1673 H 0.26547 0.4543 0.74065 0.0
H1674 H 0.25293 0.47685 0.67946 0.0
H1675 H 0.26821 0.50872 0.68922 0.0
C1676 C 0.22433 0.42224 0.68472 0.0
C1677 C 0.234 0.40573 0.69143 0.0
C1678 C 0.23236 0.44082 0.69017 0.0
C1679 C 0.25013 0.44323 0.7027 0.0
C1680 C 0.2601 0.42667 0.70889 0.0
C1681 C 0.25212 0.40808 0.70321 0.0
C1682 C 0.27432 0.4846 0.73507 0.0
C1683 C 0.27558 0.50011 0.72063 0.0
C1684 C 0.26582 0.46615 0.72936 0.0
C1685 C 0.25819 0.46298 0.7092 0.0
C1686 C 0.25861 0.47879 0.6951 0.0
C1687 C 0.26731 0.49707 0.70071 0.0
H1688 H 0.12831 0.37583 0.34486 0.0
H1689 H 0.15004 0.31994 0.33887 0.0
H1690 H 0.09552 0.36336 0.33032 0.0
H1691 H 0.11728 0.30709 0.32497 0.0
H1692 H 0.03726 0.3218 0.33397 0.0
H1693 H 0.06896 0.34034 0.34103 0.0
H1694 H 0.09335 0.30953 0.29549 0.0
H1695 H 0.06175 0.29064 0.28872 0.0
C1696 C 0.12595 0.36087 0.34035 0.0
C1697 C 0.14145 0.34873 0.34297 0.0
C1698 C 0.10727 0.35372 0.33212 0.0
C1699 C 0.10384 0.33429 0.32637 0.0
C1700 C 0.11952 0.32224 0.32888 0.0
C1701 C 0.13815 0.32942 0.33709 0.0
C1702 C 0.0492 0.31935 0.32505 0.0
C1703 C 0.04712 0.30445 0.31111 0.0
C1704 C 0.0674 0.33001 0.32909 0.0
C1705 C 0.08377 0.32604 0.31916 0.0
C1706 C 0.08112 0.31253 0.30377 0.0
C1707 C 0.06297 0.30182 0.29978 0.0
H1708 H 0.26195 0.64054 0.31484 0.0
H1709 H 0.24902 0.60241 0.36595 0.0
H1710 H 0.28208 0.61651 0.30293 0.0
H1711 H 0.26958 0.57859 0.35466 0.0
H1712 H 0.29121 0.53223 0.31678 0.0
H1713 H 0.27122 0.55576 0.32907 0.0
H1714 H 0.31324 0.60259 0.31149 0.0
H1715 H 0.33309 0.57901 0.29872 0.0
C1716 C 0.26331 0.6269 0.32338 0.0
C1717 C 0.25395 0.62325 0.34125 0.0
C1718 C 0.27505 0.61324 0.31677 0.0
C1719 C 0.27766 0.59561 0.32791 0.0
C1720 C 0.26785 0.59188 0.34558 0.0
C1721 C 0.25614 0.60552 0.35213 0.0
C1722 C 0.29639 0.54752 0.31576 0.0
C1723 C 0.31384 0.55366 0.30673 0.0
C1724 C 0.28488 0.56106 0.32285 0.0
C1725 C 0.29046 0.58116 0.32114 0.0
C1726 C 0.30826 0.58727 0.31272 0.0
C1727 C 0.3198 0.57371 0.30563 0.0
H1728 H 0.92802 0.66045 0.34539 0.0
H1729 H 0.90924 0.70601 0.3036 0.0
H1730 H 0.95897 0.66087 0.32965 0.0
H1731 H 0.94057 0.70769 0.28854 0.0
H1732 H 0.9992 0.71083 0.26447 0.0
H1733 H 0.96579 0.69769 0.27096 0.0
H1734 H 0.98712 0.68192 0.33243 0.0
H1735 H 0.02015 0.69409 0.32562 0.0
C1736 C 0.93032 0.67009 0.33233 0.0
C1737 C 0.91631 0.68309 0.32556 0.0
C1738 C 0.94821 0.67068 0.32351 0.0
C1739 C 0.9527 0.6847 0.30807 0.0
C1740 C 0.93782 0.69658 0.30023 0.0
C1741 C 0.9198 0.69568 0.30883 0.0
C1742 C 0.99679 0.70392 0.27912 0.0
C1743 C 1.01234 0.70367 0.29457 0.0
C1744 C 0.97755 0.6966 0.28297 0.0
C1745 C 0.97346 0.68891 0.30236 0.0
C1746 C 0.98943 0.68743 0.31723 0.0
C1747 C 1.00852 0.69461 0.31337 0.0
H1748 H 0.87491 0.41431 0.36615 0.0
H1749 H 0.84989 0.3746 0.32067 0.0
H1750 H 0.86982 0.44199 0.342 0.0
H1751 H 0.8445 0.40207 0.29652 0.0
H1752 H 0.8174 0.45832 0.26946 0.0
H1753 H 0.82331 0.43069 0.29298 0.0
H1754 H 0.88282 0.4555 0.30831 0.0
H1755 H 0.87686 0.48319 0.28455 0.0
C1756 C 0.86817 0.41161 0.351 0.0
C1757 C 0.86268 0.39246 0.34519 0.0
C1758 C 0.86542 0.42736 0.33715 0.0
C1759 C 0.8568 0.42423 0.31731 0.0
C1760 C 0.85107 0.405 0.31169 0.0
C1761 C 0.85413 0.38929 0.32544 0.0
C1762 C 0.83177 0.45782 0.27778 0.0
C1763 C 0.84666 0.47293 0.27515 0.0
C1764 C 0.83519 0.44196 0.29119 0.0
C1765 C 0.85351 0.44092 0.30259 0.0
C1766 C 0.8685 0.45596 0.29987 0.0
C1767 C 0.86517 0.4717 0.28613 0.0
H1768 H 0.2448 0.69171 0.71823 0.0
H1769 H 0.21003 0.66374 0.66867 0.0
H1770 H 0.26802 0.66641 0.71979 0.0
H1771 H 0.23305 0.63817 0.67012 0.0
H1772 H 0.26379 0.58449 0.70048 0.0
H1773 H 0.24211 0.61093 0.69497 0.0
H1774 H 0.2929 0.65298 0.69982 0.0
H1775 H 0.31456 0.62649 0.70539 0.0
C1776 C 0.24233 0.68016 0.70757 0.0
C1777 C 0.22575 0.67952 0.69337 0.0
C1778 C 0.25559 0.66574 0.70836 0.0
C1779 C 0.25239 0.65021 0.69511 0.0
C1780 C 0.23587 0.64982 0.68065 0.0
C1781 C 0.22277 0.66443 0.67971 0.0
C1782 C 0.27032 0.59938 0.70022 0.0
C1783 C 0.29091 0.60335 0.7034 0.0
C1784 C 0.25791 0.61454 0.69693 0.0
C1785 C 0.26575 0.6341 0.69701 0.0
C1786 C 0.28637 0.63808 0.69981 0.0
C1787 C 0.29881 0.6229 0.70281 0.0
H1788 H 0.1863 0.41285 0.35541 0.0
H1789 H 0.2262 0.36942 0.34843 0.0
H1790 H 0.20786 0.43733 0.33912 0.0
H1791 H 0.24898 0.39417 0.3333 0.0
H1792 H 0.26626 0.43356 0.27872 0.0
H1793 H 0.25011 0.41011 0.30192 0.0
H1794 H 0.23562 0.45774 0.33636 0.0
H1795 H 0.25049 0.48084 0.31207 0.0
C1796 C 0.20023 0.40884 0.35108 0.0
C1797 C 0.20457 0.38937 0.35282 0.0
C1798 C 0.21271 0.42286 0.34177 0.0
C1799 C 0.23012 0.41777 0.33438 0.0
C1800 C 0.23543 0.39855 0.33816 0.0
C1801 C 0.22265 0.38443 0.34719 0.0
C1802 C 0.2594 0.4388 0.29121 0.0
C1803 C 0.25904 0.45881 0.29345 0.0
C1804 C 0.25042 0.42545 0.30474 0.0
C1805 C 0.2414 0.43191 0.32114 0.0
C1806 C 0.24187 0.4521 0.3237 0.0
C1807 C 0.25037 0.46539 0.30984 0.0
H1808 H 0.21759 0.68692 0.32134 0.0
H1809 H 0.19321 0.66353 0.37569 0.0
H1810 H 0.18887 0.70549 0.31297 0.0
H1811 H 0.16418 0.6817 0.36737 0.0
H1812 H 0.12079 0.72802 0.35469 0.0
H1813 H 0.15095 0.71236 0.36406 0.0
H1814 H 0.15504 0.70102 0.30128 0.0
H1815 H 0.12547 0.71754 0.29177 0.0
C1816 C 0.20603 0.68585 0.33151 0.0
C1817 C 0.20756 0.67379 0.34912 0.0
C1818 C 0.18948 0.69636 0.32669 0.0
C1819 C 0.17392 0.69503 0.33933 0.0
C1820 C 0.17584 0.68336 0.35732 0.0
C1821 C 0.19248 0.67292 0.36215 0.0
C1822 C 0.12816 0.72244 0.34278 0.0
C1823 C 0.12043 0.7242 0.32238 0.0
C1824 C 0.14546 0.71319 0.34823 0.0
C1825 C 0.15562 0.70531 0.3335 0.0
C1826 C 0.14792 0.70709 0.31311 0.0
C1827 C 0.13066 0.71641 0.30764 0.0
H1828 H 0.89645 0.64061 0.34833 0.0
H1829 H 0.85468 0.67159 0.30976 0.0
H1830 H 0.88092 0.60963 0.33567 0.0
H1831 H 0.83914 0.64078 0.29654 0.0
H1832 H 0.80458 0.58251 0.28781 0.0
H1833 H 0.81899 0.61159 0.30558 0.0
H1834 H 0.87688 0.59088 0.30632 0.0
H1835 H 0.86245 0.56199 0.28923 0.0
C1836 C 0.88433 0.64072 0.3366 0.0
C1837 C 0.87709 0.65836 0.32948 0.0
C1838 C 0.87524 0.62302 0.32949 0.0
C1839 C 0.85864 0.62262 0.31512 0.0
C1840 C 0.85163 0.64044 0.30784 0.0
C1841 C 0.86072 0.65809 0.31504 0.0
C1842 C 0.82024 0.5839 0.29253 0.0
C1843 C 0.83238 0.56996 0.2873 0.0
C1844 C 0.82859 0.60071 0.30235 0.0
C1845 C 0.8492 0.60378 0.30714 0.0
C1846 C 0.86101 0.58907 0.30306 0.0
C1847 C 0.85271 0.57245 0.29326 0.0
H1848 H 0.87164 0.31433 0.35376 0.0
H1849 H 0.91261 0.34751 0.3947 0.0
H1850 H 0.89541 0.29012 0.35235 0.0
H1851 H 0.93716 0.32418 0.39255 0.0
H1852 H 0.97706 0.27609 0.39069 0.0
H1853 H 0.94969 0.29383 0.39833 0.0
H1854 H 0.92376 0.28789 0.33675 0.0
H1855 H 0.95014 0.26909 0.32959 0.0
C1856 C 0.88566 0.31608 0.36285 0.0
C1857 C 0.89027 0.33245 0.37463 0.0
C1858 C 0.89948 0.30246 0.36179 0.0
C1859 C 0.91852 0.30523 0.37203 0.0
C1860 C 0.92268 0.32127 0.38462 0.0
C1861 C 0.90866 0.33468 0.38593 0.0
C1862 C 0.96538 0.27821 0.37885 0.0
C1863 C 0.9662 0.27122 0.35937 0.0
C1864 C 0.94968 0.28865 0.3832 0.0
C1865 C 0.93439 0.29254 0.36818 0.0
C1866 C 0.93497 0.28506 0.34891 0.0
C1867 C 0.95047 0.27446 0.34465 0.0
H1868 H 0.90656 0.4182 0.69842 0.0
H1869 H 0.85425 0.38738 0.71929 0.0
H1870 H 0.89653 0.44876 0.70956 0.0
H1871 H 0.84421 0.41786 0.73111 0.0
H1872 H 0.82733 0.47947 0.74192 0.0
H1873 H 0.83373 0.45091 0.72358 0.0
H1874 H 0.89596 0.46126 0.7423 0.0
H1875 H 0.8897 0.48954 0.75995 0.0
C1876 C 0.89279 0.41811 0.70528 0.0
C1877 C 0.88124 0.40056 0.70822 0.0
C1878 C 0.88705 0.43553 0.71176 0.0
C1879 C 0.86969 0.43578 0.72157 0.0
C1880 C 0.85758 0.41828 0.72353 0.0
C1881 C 0.86331 0.40083 0.71686 0.0
C1882 C 0.84237 0.47574 0.7418 0.0
C1883 C 0.85798 0.48679 0.75242 0.0
C1884 C 0.84604 0.45932 0.73143 0.0
C1885 C 0.86539 0.45378 0.73136 0.0
C1886 C 0.88092 0.46519 0.74164 0.0
C1887 C 0.87728 0.4814 0.75197 0.0
H1888 H 0.20284 0.32596 0.71427 0.0
H1889 H 0.16413 0.36946 0.6915 0.0
H1890 H 0.17533 0.30725 0.72959 0.0
H1891 H 0.13667 0.35104 0.7069 0.0
H1892 H 0.10701 0.33028 0.765 0.0
H1893 H 0.13155 0.34527 0.74366 0.0
H1894 H 0.14076 0.28885 0.72269 0.0
H1895 H 0.11577 0.27363 0.74423 0.0
C1896 C 0.18833 0.33127 0.71226 0.0
C1897 C 0.18554 0.3492 0.70198 0.0
C1898 C 0.1726 0.32059 0.72095 0.0
C1899 C 0.15389 0.32777 0.71958 0.0
C1900 C 0.15098 0.34527 0.70843 0.0
C1901 C 0.16663 0.35583 0.69967 0.0
C1902 C 0.1141 0.32102 0.75573 0.0
C1903 C 0.10949 0.30076 0.75634 0.0
C1904 C 0.12808 0.32965 0.74338 0.0
C1905 C 0.13804 0.31826 0.73144 0.0
C1906 C 0.13332 0.29797 0.73178 0.0
C1907 C 0.11898 0.28929 0.74399 0.0
H1908 H 0.92448 0.71111 0.65577 0.0
H1909 H 0.88567 0.71317 0.70292 0.0
H1910 H 0.9523 0.72462 0.67851 0.0
H1911 H 0.91337 0.72618 0.72587 0.0
H1912 H 0.97131 0.72769 0.76646 0.0
H1913 H 0.94459 0.7144 0.74291 0.0
H1914 H 0.96302 0.75621 0.69652 0.0
H1915 H 0.99 0.76964 0.7202 0.0
C1916 C 0.92197 0.71456 0.67099 0.0
C1917 C 0.90306 0.71118 0.6777 0.0
C1918 C 0.9378 0.72224 0.68397 0.0
C1919 C 0.93498 0.72644 0.70394 0.0
C1920 C 0.91603 0.72288 0.71063 0.0
C1921 C 0.90022 0.71539 0.6976 0.0
C1922 C 0.96975 0.73408 0.75124 0.0
C1923 C 0.98276 0.74977 0.74521 0.0
C1924 C 0.95436 0.72649 0.73779 0.0
C1925 C 0.95169 0.73432 0.71792 0.0
C1926 C 0.96484 0.74983 0.71172 0.0
C1927 C 0.98019 0.75757 0.72529 0.0
H1928 H 0.71014 0.17384 0.65337 0.0
H1929 H 0.72968 0.2294 0.67846 0.0
H1930 H 0.72777 0.18305 0.62344 0.0
H1931 H 0.74744 0.23879 0.64868 0.0
H1932 H 0.76312 0.25629 0.58394 0.0
H1933 H 0.74324 0.24745 0.61251 0.0
H1934 H 0.76046 0.18872 0.61339 0.0
H1935 H 0.77968 0.19734 0.58503 0.0
C1936 C 0.71846 0.18793 0.65255 0.0
C1937 C 0.7186 0.20088 0.66821 0.0
C1938 C 0.72852 0.1933 0.63539 0.0
C1939 C 0.73901 0.21178 0.63347 0.0
C1940 C 0.73925 0.22463 0.64935 0.0
C1941 C 0.72923 0.21921 0.66649 0.0
C1942 C 0.76241 0.24147 0.59011 0.0
C1943 C 0.77306 0.22759 0.58214 0.0
C1944 C 0.75117 0.2364 0.60661 0.0
C1945 C 0.75021 0.21731 0.61538 0.0
C1946 C 0.76053 0.20345 0.607 0.0
C1947 C 0.77174 0.2085 0.59071 0.0
H1948 H 0.33563 0.24029 0.66437 0.0
H1949 H 0.35456 0.19225 0.63449 0.0
H1950 H 0.32054 0.25292 0.63202 0.0
H1951 H 0.33903 0.20434 0.60206 0.0
H1952 H 0.34497 0.25329 0.55129 0.0
H1953 H 0.34973 0.2324 0.58144 0.0
H1954 H 0.29619 0.24981 0.60232 0.0
H1955 H 0.29156 0.27109 0.57187 0.0
C1956 C 0.33604 0.23223 0.65084 0.0
C1957 C 0.3464 0.21556 0.65163 0.0
C1958 C 0.32729 0.2393 0.63237 0.0
C1959 C 0.32874 0.22974 0.61439 0.0
C1960 C 0.3379 0.2122 0.61557 0.0
C1961 C 0.34669 0.20521 0.63405 0.0
C1962 C 0.33393 0.25229 0.56206 0.0
C1963 C 0.31799 0.2639 0.55934 0.0
C1964 C 0.33658 0.24019 0.57932 0.0
C1965 C 0.32341 0.23951 0.59441 0.0
C1966 C 0.30669 0.25016 0.59105 0.0
C1967 C 0.30393 0.26219 0.57356 0.0
H1968 H 0.39753 0.87055 0.65161 0.0
H1969 H 0.38109 0.82518 0.69506 0.0
H1970 H 0.39186 0.84726 0.62446 0.0
H1971 H 0.37536 0.80167 0.66803 0.0
H1972 H 0.33899 0.77755 0.60965 0.0
H1973 H 0.34961 0.79794 0.63842 0.0
H1974 H 0.40353 0.81691 0.61154 0.0
H1975 H 0.39279 0.79652 0.58265 0.0
C1976 C 0.39302 0.85546 0.6553 0.0
C1977 C 0.3897 0.84955 0.67528 0.0
C1978 C 0.38984 0.84212 0.63985 0.0
C1979 C 0.38305 0.82263 0.64407 0.0
C1980 C 0.38042 0.81661 0.66426 0.0
C1981 C 0.38384 0.82995 0.67974 0.0
C1982 C 0.35315 0.786 0.60994 0.0
C1983 C 0.365 0.78549 0.59382 0.0
C1984 C 0.35932 0.79754 0.62651 0.0
C1985 C 0.37742 0.80906 0.62727 0.0
C1986 C 0.38946 0.80828 0.61134 0.0
C1987 C 0.38339 0.7965 0.59487 0.0
H1988 H 0.70535 0.85956 0.61674 0.0
H1989 H 0.75551 0.85044 0.65934 0.0
H1990 H 0.72571 0.85711 0.58851 0.0
H1991 H 0.77595 0.8477 0.63127 0.0
H1992 H 0.79231 0.81532 0.57495 0.0
H1993 H 0.77449 0.82192 0.6038 0.0
H1994 H 0.7568 0.87503 0.57333 0.0
H1995 H 0.77486 0.86847 0.54452 0.0
C1996 C 0.72081 0.85721 0.61994 0.0
C1997 C 0.729 0.85518 0.64001 0.0
C1998 C 0.73245 0.85589 0.6039 0.0
C1999 C 0.75239 0.85218 0.60773 0.0
C2000 C 0.76061 0.85048 0.6279 0.0
C2001 C 0.74903 0.85213 0.6439 0.0
C2002 C 0.78475 0.82847 0.57453 0.0
C2003 C 0.78496 0.84138 0.55754 0.0
C2004 C 0.77466 0.83231 0.59105 0.0
C2005 C 0.76425 0.84898 0.59077 0.0
C2006 C 0.76465 0.86204 0.57389 0.0
C2007 C 0.77508 0.85838 0.55751 0.0
H2008 H 0.727 0.83892 0.34257 0.0
H2009 H 0.68067 0.84248 0.38153 0.0
H2010 H 0.74955 0.8304 0.37188 0.0
H2011 H 0.70306 0.83377 0.41102 0.0
H2012 H 0.74515 0.79912 0.45524 0.0
H2013 H 0.72182 0.80601 0.42599 0.0
H2014 H 0.76571 0.84732 0.40176 0.0
H2015 H 0.78894 0.84042 0.43065 0.0
C2016 C 0.72174 0.83785 0.35749 0.0
C2017 C 0.70224 0.84127 0.35995 0.0
C2018 C 0.73456 0.833 0.37422 0.0
C2019 C 0.72806 0.83144 0.39374 0.0
C2020 C 0.7084 0.83462 0.39614 0.0
C2021 C 0.69562 0.8396 0.37936 0.0
C2022 C 0.74979 0.80964 0.44364 0.0
C2023 C 0.7689 0.81919 0.44525 0.0
C2024 C 0.73642 0.81365 0.42697 0.0
C2025 C 0.74199 0.82714 0.41156 0.0
C2026 C 0.76108 0.83665 0.41324 0.0
C2027 C 0.77435 0.83276 0.42989 0.0
H2028 H 0.73897 0.19637 0.37088 0.0
H2029 H 0.71252 0.14724 0.40381 0.0
H2030 H 0.75415 0.20987 0.40276 0.0
H2031 H 0.72717 0.16067 0.4358 0.0
H2032 H 0.78015 0.17351 0.48242 0.0
H2033 H 0.76033 0.16339 0.45172 0.0
H2034 H 0.75116 0.2234 0.43531 0.0
H2035 H 0.77163 0.23358 0.46572 0.0
C2036 C 0.73581 0.18892 0.38507 0.0
C2037 C 0.72459 0.17088 0.38504 0.0
C2038 C 0.74456 0.19652 0.40334 0.0
C2039 C 0.74223 0.18618 0.42191 0.0
C2040 C 0.7297 0.16882 0.42182 0.0
C2041 C 0.72105 0.16125 0.40358 0.0
C2042 C 0.77402 0.18458 0.47226 0.0
C2043 C 0.77759 0.20438 0.47667 0.0
C2044 C 0.76238 0.17876 0.45473 0.0
C2045 C 0.75394 0.19255 0.44102 0.0
C2046 C 0.75745 0.21236 0.44543 0.0
C2047 C 0.76907 0.21819 0.46303 0.0
H2048 H 0.3498 0.22401 0.37671 0.0
H2049 H 0.39534 0.20567 0.42093 0.0
H2050 H 0.34057 0.247 0.40044 0.0
H2051 H 0.38619 0.22841 0.44487 0.0
H2052 H 0.37989 0.28594 0.47357 0.0
H2053 H 0.38804 0.26293 0.44965 0.0
H2054 H 0.32603 0.24948 0.43188 0.0
H2055 H 0.31792 0.27306 0.45521 0.0
C2056 C 0.35759 0.22475 0.39167 0.0
C2057 C 0.37326 0.21316 0.39705 0.0
C2058 C 0.35237 0.23789 0.40527 0.0
C2059 C 0.36273 0.23971 0.42457 0.0
C2060 C 0.37813 0.22772 0.43003 0.0
C2061 C 0.38332 0.21461 0.41642 0.0
C2062 C 0.36798 0.27828 0.46443 0.0
C2063 C 0.34822 0.28142 0.46644 0.0
C2064 C 0.37265 0.26485 0.45085 0.0
C2065 C 0.3577 0.25419 0.43887 0.0
C2066 C 0.33795 0.25749 0.44072 0.0
C2067 C 0.33328 0.2709 0.45431 0.0
H2068 H 0.3735 0.8589 0.41063 0.0
H2069 H 0.33014 0.82309 0.37465 0.0
H2070 H 0.36478 0.84006 0.44139 0.0
H2071 H 0.32148 0.80393 0.40515 0.0
H2072 H 0.33029 0.76254 0.46234 0.0
H2073 H 0.33767 0.78128 0.43156 0.0
H2074 H 0.33403 0.8346 0.46187 0.0
H2075 H 0.32631 0.8156 0.49293 0.0
C2076 C 0.36251 0.84658 0.40935 0.0
C2077 C 0.35283 0.84198 0.39038 0.0
C2078 C 0.35726 0.83606 0.42689 0.0
C2079 C 0.34233 0.82061 0.42572 0.0
C2080 C 0.3331 0.81569 0.40656 0.0
C2081 C 0.33815 0.82643 0.3891 0.0
C2082 C 0.33075 0.77828 0.46237 0.0
C2083 C 0.32767 0.78763 0.48001 0.0
C2084 C 0.33498 0.789 0.44471 0.0
C2085 C 0.3366 0.80941 0.44431 0.0
C2086 C 0.33306 0.81886 0.46182 0.0
C2087 C 0.32842 0.80804 0.47949 0.0
H2088 H 0.65108 0.17694 0.71635 0.0
H2089 H 0.68329 0.23315 0.72337 0.0
H2090 H 0.62571 0.18672 0.73647 0.0
H2091 H 0.65776 0.24323 0.74326 0.0
H2092 H 0.5977 0.25964 0.76121 0.0
H2093 H 0.62249 0.25028 0.7402 0.0
H2094 H 0.62244 0.19427 0.772 0.0
H2095 H 0.59745 0.20353 0.79279 0.0
C2096 C 0.6527 0.1914 0.72225 0.0
C2097 C 0.66918 0.20425 0.7184 0.0
C2098 C 0.6382 0.19702 0.73378 0.0
C2099 C 0.63971 0.21574 0.7416 0.0
C2100 C 0.65602 0.22877 0.73734 0.0
C2101 C 0.67063 0.22305 0.72594 0.0
C2102 C 0.60285 0.24528 0.76362 0.0
C2103 C 0.5955 0.23233 0.77869 0.0
C2104 C 0.61722 0.23998 0.7517 0.0
C2105 C 0.62448 0.22151 0.75437 0.0
C2106 C 0.61706 0.20854 0.76938 0.0
C2107 C 0.60285 0.21391 0.78145 0.0
H2108 H 0.39995 0.16811 0.6944 0.0
H2109 H 0.35254 0.18174 0.72804 0.0
H2110 H 0.40579 0.13992 0.71762 0.0
H2111 H 0.35832 0.15381 0.75147 0.0
H2112 H 0.38396 0.11143 0.79895 0.0
H2113 H 0.38499 0.14149 0.77775 0.0
H2114 H 0.38477 0.1078 0.72459 0.0
H2115 H 0.38359 0.07781 0.74583 0.0
C2116 C 0.39093 0.16504 0.70691 0.0
C2117 C 0.37573 0.17675 0.70952 0.0
C2118 C 0.39422 0.14902 0.72013 0.0
C2119 C 0.38254 0.14473 0.73637 0.0
C2120 C 0.36768 0.15689 0.73923 0.0
C2121 C 0.36424 0.17269 0.72582 0.0
C2122 C 0.3847 0.11054 0.78281 0.0
C2123 C 0.38373 0.09235 0.77397 0.0
C2124 C 0.38509 0.12768 0.77067 0.0
C2125 C 0.38484 0.12695 0.74953 0.0
C2126 C 0.3851 0.10882 0.74085 0.0
C2127 C 0.38438 0.09168 0.75295 0.0
H2128 H 0.40226 0.84032 0.74231 0.0
H2129 H 0.43332 0.85791 0.69012 0.0
H2130 H 0.43083 0.82422 0.75763 0.0
H2131 H 0.46206 0.84169 0.70526 0.0
H2132 H 0.50553 0.79871 0.73549 0.0
H2133 H 0.47522 0.80988 0.7179 0.0
H2134 H 0.46395 0.83802 0.77179 0.0
H2135 H 0.49404 0.82668 0.78939 0.0
C2136 C 0.41514 0.84035 0.73399 0.0
C2137 C 0.41577 0.85044 0.71519 0.0
C2138 C 0.43152 0.83129 0.74277 0.0
C2139 C 0.44885 0.83199 0.73284 0.0
C2140 C 0.44893 0.84088 0.7133 0.0
C2141 C 0.43251 0.85007 0.70457 0.0
C2142 C 0.49648 0.80714 0.74362 0.0
C2143 C 0.5022 0.81179 0.76387 0.0
C2144 C 0.47921 0.81365 0.73349 0.0
C2145 C 0.46711 0.82473 0.74347 0.0
C2146 C 0.4728 0.82929 0.76374 0.0
C2147 C 0.49016 0.82298 0.77377 0.0
H2148 H 0.72076 0.8987 0.64691 0.0
H2149 H 0.75057 0.87304 0.70019 0.0
H2150 H 0.74197 0.929 0.65146 0.0
H2151 H 0.77265 0.90276 0.70445 0.0
H2152 H 0.79004 0.96492 0.72201 0.0
H2153 H 0.77195 0.93402 0.71521 0.0
H2154 H 0.7729 0.94651 0.65091 0.0
H2155 H 0.78987 0.97831 0.65769 0.0
C2156 C 0.73223 0.89954 0.65935 0.0
C2157 C 0.73406 0.8838 0.67332 0.0
C2158 C 0.74447 0.91681 0.66197 0.0
C2159 C 0.759 0.91856 0.6785 0.0
C2160 C 0.76134 0.90227 0.69186 0.0
C2161 C 0.74887 0.88517 0.68939 0.0
C2162 C 0.78631 0.96138 0.70636 0.0
C2163 C 0.7913 0.9746 0.69045 0.0
C2164 C 0.77612 0.94329 0.70244 0.0
C2165 C 0.77084 0.93756 0.68247 0.0
C2166 C 0.77636 0.95046 0.66651 0.0
C2167 C 0.78636 0.96873 0.67044 0.0
H2168 H 0.63388 0.87073 0.31898 0.0
H2169 H 0.64984 0.81694 0.2977 0.0
H2170 H 0.59944 0.8626 0.30603 0.0
H2171 H 0.61547 0.8082 0.28537 0.0
H2172 H 0.54208 0.82228 0.31615 0.0
H2173 H 0.57477 0.83933 0.31822 0.0
H2174 H 0.58643 0.81364 0.26296 0.0
H2175 H 0.55368 0.79606 0.2612 0.0
C2176 C 0.62994 0.85731 0.3112 0.0
C2177 C 0.64419 0.84426 0.30951 0.0
C2178 C 0.61029 0.85257 0.3039 0.0
C2179 C 0.60461 0.83463 0.29485 0.0
C2180 C 0.61928 0.82221 0.29204 0.0
C2181 C 0.6389 0.82704 0.29926 0.0
C2182 C 0.55142 0.82063 0.30415 0.0
C2183 C 0.54542 0.80757 0.28871 0.0
C2184 C 0.57018 0.83054 0.30525 0.0
C2185 C 0.5834 0.82764 0.29092 0.0
C2186 C 0.57673 0.81591 0.27445 0.0
C2187 C 0.55789 0.80598 0.27333 0.0
H2188 H 0.7154 0.10165 0.35621 0.0
H2189 H 0.74219 0.13745 0.30976 0.0
H2190 H 0.72709 0.0727 0.3431 0.0
H2191 H 0.75467 0.10862 0.2968 0.0
H2192 H 0.76976 0.05104 0.27351 0.0
H2193 H 0.74912 0.07676 0.28108 0.0
H2194 H 0.75907 0.0616 0.3449 0.0
H2195 H 0.77902 0.03615 0.33734 0.0
C2196 C 0.72367 0.10317 0.34302 0.0
C2197 C 0.72811 0.12163 0.33406 0.0
C2198 C 0.73045 0.08668 0.33553 0.0
C2199 C 0.74212 0.0883 0.31904 0.0
C2200 C 0.74563 0.10675 0.30939 0.0
C2201 C 0.73863 0.12327 0.31683 0.0
C2202 C 0.76699 0.05295 0.28906 0.0
C2203 C 0.77598 0.04161 0.30484 0.0
C2204 C 0.75539 0.06779 0.29344 0.0
C2205 C 0.75241 0.07133 0.31363 0.0
C2206 C 0.76068 0.05922 0.32917 0.0
C2207 C 0.77229 0.04465 0.32483 0.0
H2208 H 0.43417 0.17731 0.37801 0.0
H2209 H 0.4 0.19077 0.32208 0.0
H2210 H 0.4631 0.17457 0.35956 0.0
H2211 H 0.42885 0.18841 0.30341 0.0
H2212 H 0.48145 0.17236 0.27338 0.0
H2213 H 0.45243 0.16754 0.29257 0.0
H2214 H 0.4852 0.19741 0.34253 0.0
H2215 H 0.51416 0.20152 0.32371 0.0
C2216 C 0.43295 0.17958 0.36171 0.0
C2217 C 0.41509 0.18436 0.35138 0.0
C2218 C 0.44943 0.17807 0.35114 0.0
C2219 C 0.44835 0.18141 0.33 0.0
C2220 C 0.43016 0.1855 0.31963 0.0
C2221 C 0.41368 0.18696 0.33025 0.0
C2222 C 0.48252 0.17749 0.28862 0.0
C2223 C 0.50003 0.18749 0.29696 0.0
C2224 C 0.46586 0.17493 0.29954 0.0
C2225 C 0.46643 0.18221 0.31905 0.0
C2226 C 0.48424 0.19145 0.32765 0.0
C2227 C 0.50081 0.19403 0.31676 0.0
H2228 H 0.31488 0.88347 0.3321 0.0
H2229 H 0.36811 0.91792 0.35227 0.0
H2230 H 0.30128 0.91237 0.31558 0.0
H2231 H 0.35442 0.94723 0.33684 0.0
H2232 H 0.33345 0.99184 0.28853 0.0
H2233 H 0.34673 0.96385 0.30658 0.0
H2234 H 0.28785 0.94151 0.31945 0.0
H2235 H 0.27451 0.96914 0.30034 0.0
C2236 C 0.32353 0.89739 0.33308 0.0
C2237 C 0.3425 0.89859 0.34327 0.0
C2238 C 0.31573 0.91403 0.32382 0.0
C2239 C 0.32664 0.93238 0.32481 0.0
C2240 C 0.34563 0.93344 0.33531 0.0
C2241 C 0.35351 0.91671 0.34428 0.0
C2242 C 0.32332 0.98107 0.29539 0.0
C2243 C 0.30287 0.98277 0.29291 0.0
C2244 C 0.33098 0.96495 0.30589 0.0
C2245 C 0.31846 0.95014 0.31452 0.0
C2246 C 0.29802 0.95227 0.31267 0.0
C2247 C 0.29033 0.96827 0.30188 0.0
H2248 H 0.69555 0.14193 0.69525 0.0
H2249 H 0.74717 0.18272 0.69833 0.0
H2250 H 0.7164 0.11475 0.69984 0.0
H2251 H 0.76827 0.15556 0.70256 0.0
H2252 H 0.79843 0.10074 0.69026 0.0
H2253 H 0.77762 0.12755 0.68448 0.0
H2254 H 0.73911 0.1008 0.72771 0.0
H2255 H 0.76014 0.07368 0.7336 0.0
C2256 C 0.71142 0.14501 0.69669 0.0
C2257 C 0.71978 0.16438 0.69653 0.0
C2258 C 0.72336 0.12949 0.69947 0.0
C2259 C 0.74401 0.13295 0.70187 0.0
C2260 C 0.75241 0.15237 0.70073 0.0
C2261 C 0.7404 0.16793 0.69817 0.0
C2262 C 0.78552 0.10046 0.69858 0.0
C2263 C 0.78095 0.08494 0.71239 0.0
C2264 C 0.77365 0.11597 0.69532 0.0
C2265 C 0.7567 0.11638 0.70561 0.0
C2266 C 0.752 0.10084 0.71939 0.0
C2267 C 0.76407 0.08535 0.72285 0.0
H2268 H 0.70009 0.88792 0.35952 0.0
H2269 H 0.72322 0.86778 0.30701 0.0
H2270 H 0.72836 0.91257 0.36393 0.0
H2271 H 0.75165 0.89216 0.31132 0.0
H2272 H 0.80772 0.92774 0.3341 0.0
H2273 H 0.78172 0.90105 0.33677 0.0
H2274 H 0.73935 0.94281 0.34227 0.0
H2275 H 0.76533 0.96936 0.33942 0.0
C2276 C 0.71135 0.88886 0.34901 0.0
C2277 C 0.70961 0.87635 0.33281 0.0
C2278 C 0.72745 0.90282 0.35151 0.0
C2279 C 0.74221 0.9042 0.33802 0.0
C2280 C 0.74061 0.89127 0.32208 0.0
C2281 C 0.72436 0.87752 0.31945 0.0
C2282 C 0.79297 0.93111 0.3365 0.0
C2283 C 0.78845 0.95054 0.33659 0.0
C2284 C 0.77808 0.9159 0.3378 0.0
C2285 C 0.75852 0.9199 0.33956 0.0
C2286 C 0.75431 0.9393 0.34103 0.0
C2287 C 0.76911 0.95447 0.33939 0.0
H2288 H 0.68084 0.16828 0.37548 0.0
H2289 H 0.70417 0.19372 0.32139 0.0
H2290 H 0.65153 0.18626 0.36829 0.0
H2291 H 0.67464 0.21112 0.31352 0.0
H2292 H 0.61945 0.24149 0.3019 0.0
H2293 H 0.65145 0.23427 0.31933 0.0
H2294 H 0.62434 0.18023 0.34357 0.0
H2295 H 0.59277 0.18761 0.3266 0.0
C2296 C 0.67993 0.17823 0.36239 0.0
C2297 C 0.6946 0.1795 0.34887 0.0
C2298 C 0.66304 0.18834 0.35807 0.0
C2299 C 0.66042 0.19986 0.34005 0.0
C2300 C 0.67605 0.20249 0.32754 0.0
C2301 C 0.69295 0.19244 0.33195 0.0
C2302 C 0.62029 0.22842 0.31153 0.0
C2303 C 0.60362 0.21507 0.3128 0.0
C2304 C 0.63866 0.22415 0.32135 0.0
C2305 C 0.64063 0.20655 0.33278 0.0
C2306 C 0.62353 0.19401 0.33517 0.0
C2307 C 0.60535 0.19819 0.32529 0.0
H2308 H 0.39775 0.14518 0.35819 0.0
H2309 H 0.35078 0.1771 0.32937 0.0
H2310 H 0.38988 0.11966 0.33364 0.0
H2311 H 0.34222 0.15131 0.30517 0.0
H2312 H 0.3451 0.11266 0.25241 0.0
H2313 H 0.35478 0.13788 0.27662 0.0
H2314 H 0.36527 0.09378 0.32381 0.0
H2315 H 0.35634 0.06851 0.29933 0.0
C2316 C 0.38562 0.14658 0.34664 0.0
C2317 C 0.37483 0.16301 0.34562 0.0
C2318 C 0.381 0.13194 0.33266 0.0
C2319 C 0.36543 0.1334 0.31734 0.0
C2320 C 0.35448 0.14981 0.31655 0.0
C2321 C 0.35915 0.16445 0.33054 0.0
C2322 C 0.34985 0.10828 0.26782 0.0
C2323 C 0.34993 0.08845 0.27385 0.0
C2324 C 0.35511 0.12279 0.28182 0.0
C2325 C 0.36062 0.11792 0.30226 0.0
C2326 C 0.36122 0.09812 0.30819 0.0
C2327 C 0.35595 0.0836 0.29417 0.0
H2328 H 0.3642 0.81811 0.35728 0.0
H2329 H 0.40888 0.86619 0.3625 0.0
H2330 H 0.38912 0.79662 0.34989 0.0
H2331 H 0.43378 0.84499 0.35475 0.0
H2332 H 0.46458 0.80886 0.31243 0.0
H2333 H 0.44032 0.8288 0.32374 0.0
H2334 H 0.42007 0.78136 0.3634 0.0
H2335 H 0.44432 0.76131 0.35191 0.0
C2336 C 0.37945 0.82394 0.35734 0.0
C2337 C 0.38462 0.84381 0.36038 0.0
C2338 C 0.39372 0.81169 0.35298 0.0
C2339 C 0.41344 0.81913 0.35139 0.0
C2340 C 0.41869 0.83884 0.35544 0.0
C2341 C 0.40449 0.85097 0.35998 0.0
C2342 C 0.4549 0.80261 0.32346 0.0
C2343 C 0.45643 0.78343 0.33121 0.0
C2344 C 0.4411 0.81413 0.33013 0.0
C2345 C 0.42827 0.80675 0.34459 0.0
C2346 C 0.42966 0.7875 0.35221 0.0
C2347 C 0.44366 0.77605 0.34572 0.0
H2348 H 0.38002 0.92398 0.69048 0.0
H2349 H 0.36156 0.88755 0.74085 0.0
H2350 H 0.36822 0.95234 0.70527 0.0
H2351 H 0.34974 0.91559 0.75566 0.0
H2352 H 0.36775 0.97209 0.78928 0.0
H2353 H 0.37158 0.94382 0.77035 0.0
H2354 H 0.33792 0.96806 0.71839 0.0
H2355 H 0.33385 0.99689 0.73774 0.0
C2356 C 0.37295 0.92203 0.70443 0.0
C2357 C 0.37187 0.90377 0.71474 0.0
C2358 C 0.36617 0.93817 0.71286 0.0
C2359 C 0.35827 0.93622 0.73174 0.0
C2360 C 0.35599 0.9176 0.74123 0.0
C2361 C 0.36272 0.90158 0.73282 0.0
C2362 C 0.36104 0.9715 0.77385 0.0
C2363 C 0.35053 0.98681 0.765 0.0
C2364 C 0.36312 0.95515 0.76304 0.0
C2365 C 0.35493 0.95361 0.74293 0.0
C2366 C 0.34437 0.96887 0.7339 0.0
C2367 C 0.34197 0.98528 0.74496 0.0
H2368 H 0.65737 0.83523 0.66505 0.0
H2369 H 0.69997 0.82884 0.7165 0.0
H2370 H 0.63143 0.81847 0.68442 0.0
H2371 H 0.67434 0.81216 0.7359 0.0
H2372 H 0.62059 0.81283 0.77131 0.0
H2373 H 0.64598 0.82457 0.7497 0.0
H2374 H 0.61935 0.7867 0.70291 0.0
H2375 H 0.59337 0.77474 0.72488 0.0
C2376 C 0.66117 0.82995 0.68041 0.0
C2377 C 0.68052 0.83352 0.68946 0.0
C2378 C 0.6464 0.82032 0.69147 0.0
C2379 C 0.65076 0.81418 0.71178 0.0
C2380 C 0.67039 0.81701 0.72041 0.0
C2381 C 0.68506 0.82655 0.70938 0.0
C2382 C 0.62001 0.80686 0.75645 0.0
C2383 C 0.60485 0.79279 0.74987 0.0
C2384 C 0.63475 0.81354 0.74408 0.0
C2385 C 0.63485 0.80646 0.72464 0.0
C2386 C 0.61965 0.79245 0.71783 0.0
C2387 C 0.60485 0.78555 0.73042 0.0
H2388 H 0.41948 0.21814 0.67906 0.0
H2389 H 0.38963 0.20999 0.73352 0.0
H2390 H 0.45059 0.22751 0.69924 0.0
H2391 H 0.42073 0.21868 0.75383 0.0
H2392 H 0.48368 0.21416 0.78292 0.0
H2393 H 0.45392 0.20451 0.76139 0.0
H2394 H 0.46428 0.25563 0.72257 0.0
H2395 H 0.49423 0.26551 0.7443 0.0
C2396 C 0.41964 0.21843 0.69536 0.0
C2397 C 0.40225 0.2135 0.70482 0.0
C2398 C 0.43736 0.22374 0.70687 0.0
C2399 C 0.43803 0.22385 0.72807 0.0
C2400 C 0.42067 0.21856 0.73751 0.0
C2401 C 0.40292 0.21354 0.72597 0.0
C2402 C 0.47975 0.22334 0.76974 0.0
C2403 C 0.49131 0.24067 0.76536 0.0
C2404 C 0.46263 0.21783 0.75748 0.0
C2405 C 0.45675 0.22938 0.74042 0.0
C2406 C 0.46856 0.24643 0.73562 0.0
C2407 C 0.48563 0.2521 0.74808 0.0
H2408 H 0.68027 0.69243 0.1463 0.0
H2409 H 0.72896 0.71392 0.18742 0.0
H2410 H 0.69692 0.70729 0.11755 0.0
H2411 H 0.74578 0.72917 0.15884 0.0
H2412 H 0.77668 0.7421 0.10054 0.0
H2413 H 0.76177 0.72398 0.1285 0.0
H2414 H 0.70439 0.74 0.10401 0.0
H2415 H 0.71918 0.75754 0.07579 0.0
C2416 C 0.6947 0.7002 0.14904 0.0
C2417 C 0.70336 0.70221 0.16891 0.0
C2418 C 0.70418 0.70887 0.13268 0.0
C2419 C 0.7226 0.71971 0.13585 0.0
C2420 C 0.73167 0.72087 0.15578 0.0
C2421 C 0.72211 0.71219 0.17215 0.0
C2422 C 0.76086 0.7416 0.10099 0.0
C2423 C 0.74917 0.75131 0.0858 0.0
C2424 C 0.75232 0.73134 0.11716 0.0
C2425 C 0.73184 0.73042 0.11853 0.0
C2426 C 0.72017 0.74012 0.10334 0.0
C2427 C 0.72871 0.75043 0.08724 0.0
H2428 H 0.33341 0.67965 0.10508 0.0
H2429 H 0.32052 0.73113 0.1336 0.0
H2430 H 0.31843 0.69195 0.07259 0.0
H2431 H 0.30667 0.74426 0.10108 0.0
H2432 H 0.27582 0.76284 0.04359 0.0
H2433 H 0.28135 0.74285 0.0745 0.0
H2434 H 0.32699 0.71592 0.04796 0.0
H2435 H 0.32077 0.73517 0.01689 0.0
C2436 C 0.32727 0.69362 0.10427 0.0
C2437 C 0.32831 0.70468 0.12155 0.0
C2438 C 0.31883 0.70075 0.08571 0.0
C2439 C 0.31145 0.7192 0.08409 0.0
C2440 C 0.31192 0.72989 0.1017 0.0
C2441 C 0.32012 0.7226 0.12027 0.0
C2442 C 0.28662 0.75222 0.0442 0.0
C2443 C 0.29805 0.75076 0.02792 0.0
C2444 C 0.28995 0.7409 0.06199 0.0
C2445 C 0.30497 0.7281 0.06397 0.0
C2446 C 0.31523 0.72552 0.04703 0.0
C2447 C 0.3117 0.73663 0.02915 0.0
H2448 H 0.37732 0.31162 0.20563 0.0
H2449 H 0.41955 0.33808 0.16639 0.0
H2450 H 0.3608 0.29267 0.17772 0.0
H2451 H 0.40278 0.31961 0.13799 0.0
H2452 H 0.3685 0.27959 0.09034 0.0
H2453 H 0.3905 0.28859 0.12076 0.0
H2454 H 0.34031 0.30451 0.1492 0.0
H2455 H 0.31883 0.2956 0.1194 0.0
C2456 C 0.38337 0.31287 0.19109 0.0
C2457 C 0.39966 0.32618 0.18808 0.0
C2458 C 0.37384 0.30221 0.17503 0.0
C2459 C 0.38019 0.30486 0.15542 0.0
C2460 C 0.39751 0.31709 0.15284 0.0
C2461 C 0.40715 0.32766 0.16906 0.0
C2462 C 0.36225 0.2846 0.10333 0.0
C2463 C 0.34195 0.28692 0.10247 0.0
C2464 C 0.37482 0.28991 0.12067 0.0
C2465 C 0.36721 0.29723 0.13755 0.0
C2466 C 0.34677 0.29865 0.13678 0.0
C2467 C 0.33441 0.29366 0.11954 0.0
H2468 H 0.75698 0.36213 0.16311 0.0
H2469 H 0.70447 0.37626 0.12664 0.0
H2470 H 0.77331 0.35812 0.13257 0.0
H2471 H 0.71983 0.37106 0.09606 0.0
H2472 H 0.74979 0.36051 0.04168 0.0
H2473 H 0.74132 0.37614 0.07149 0.0
H2474 H 0.7715 0.33367 0.10988 0.0
H2475 H 0.78078 0.31899 0.08001 0.0
C2476 C 0.7493 0.36526 0.14846 0.0
C2477 C 0.72966 0.36988 0.14712 0.0
C2478 C 0.75839 0.36244 0.1309 0.0
C2479 C 0.74782 0.3637 0.11163 0.0
C2480 C 0.7287 0.37007 0.11041 0.0
C2481 C 0.71982 0.37322 0.12794 0.0
C2482 C 0.75473 0.35472 0.05655 0.0
C2483 C 0.76581 0.33846 0.05854 0.0
C2484 C 0.74984 0.36362 0.0737 0.0
C2485 C 0.75551 0.3562 0.09334 0.0
C2486 C 0.76712 0.3402 0.09519 0.0
C2487 C 0.77235 0.33159 0.07803 0.0
H2488 H 0.7271 0.39627 0.89095 0.0
H2489 H 0.73602 0.34578 0.85856 0.0
H2490 H 0.75022 0.38599 0.91905 0.0
H2491 H 0.75994 0.33572 0.88595 0.0
H2492 H 0.77762 0.30997 0.94857 0.0
H2493 H 0.759 0.32221 0.91869 0.0
H2494 H 0.78304 0.38087 0.93169 0.0
H2495 H 0.80118 0.36854 0.96247 0.0
C2496 C 0.73434 0.38309 0.88987 0.0
C2497 C 0.72977 0.37158 0.87298 0.0
C2498 C 0.74769 0.37726 0.90578 0.0
C2499 C 0.75688 0.35991 0.9049 0.0
C2500 C 0.75281 0.3489 0.88743 0.0
C2501 C 0.73923 0.3546 0.87172 0.0
C2502 C 0.77914 0.32549 0.94504 0.0
C2503 C 0.79083 0.3383 0.95801 0.0
C2504 C 0.76852 0.33252 0.92771 0.0
C2505 C 0.76948 0.35256 0.92266 0.0
C2506 C 0.78171 0.36537 0.93527 0.0
C2507 C 0.79223 0.35831 0.95283 0.0
H2508 H 0.74131 0.71209 0.87763 0.0
H2509 H 0.73733 0.65964 0.91535 0.0
H2510 H 0.75219 0.73107 0.90747 0.0
H2511 H 0.74857 0.67847 0.94533 0.0
H2512 H 0.79106 0.71752 0.98935 0.0
H2513 H 0.77919 0.69773 0.96013 0.0
H2514 H 0.73956 0.74099 0.9385 0.0
H2515 H 0.75129 0.76059 0.96722 0.0
C2516 C 0.74241 0.70471 0.89239 0.0
C2517 C 0.73838 0.68445 0.89424 0.0
C2518 C 0.74878 0.71551 0.90948 0.0
C2519 C 0.75139 0.70627 0.92881 0.0
C2520 C 0.74702 0.686 0.93066 0.0
C2521 C 0.74047 0.67524 0.91357 0.0
C2522 C 0.77981 0.72274 0.97835 0.0
C2523 C 0.7722 0.74067 0.98067 0.0
C2524 C 0.77293 0.71138 0.96167 0.0
C2525 C 0.75847 0.71784 0.94691 0.0
C2526 C 0.75087 0.73569 0.94938 0.0
C2527 C 0.75758 0.74689 0.966 0.0
H2528 H 0.41063 0.72408 0.89604 0.0
H2529 H 0.35324 0.72823 0.86403 0.0
H2530 H 0.40189 0.74433 0.9224 0.0
H2531 H 0.34381 0.74754 0.89092 0.0
H2532 H 0.33865 0.79667 0.93284 0.0
H2533 H 0.34877 0.77836 0.90561 0.0
H2534 H 0.38245 0.74363 0.94978 0.0
H2535 H 0.37276 0.76231 0.97673 0.0
C2536 C 0.39611 0.72938 0.89473 0.0
C2537 C 0.38264 0.72476 0.87801 0.0
C2538 C 0.39097 0.74078 0.90992 0.0
C2539 C 0.37209 0.74763 0.9089 0.0
C2540 C 0.35858 0.74285 0.89213 0.0
C2541 C 0.36384 0.7316 0.87683 0.0
C2542 C 0.34828 0.78517 0.93665 0.0
C2543 C 0.35498 0.78103 0.95692 0.0
C2544 C 0.35401 0.77457 0.92106 0.0
C2545 C 0.36643 0.75941 0.9254 0.0
C2546 C 0.3732 0.7554 0.94573 0.0
C2547 C 0.36764 0.76613 0.96126 0.0
H2548 H 0.34408 0.34452 0.88386 0.0
H2549 H 0.40037 0.35645 0.91788 0.0
H2550 H 0.33002 0.33064 0.91444 0.0
H2551 H 0.38649 0.34216 0.94865 0.0
H2552 H 0.35495 0.30107 0.99644 0.0
H2553 H 0.37064 0.31122 0.96545 0.0
H2554 H 0.32227 0.34581 0.946 0.0
H2555 H 0.30668 0.33568 0.97681 0.0
C2556 C 0.35351 0.34385 0.89789 0.0
C2557 C 0.37324 0.35173 0.89856 0.0
C2558 C 0.34546 0.33601 0.91543 0.0
C2559 C 0.35701 0.33558 0.93412 0.0
C2560 C 0.37716 0.34226 0.93452 0.0
C2561 C 0.38517 0.35033 0.91692 0.0
C2562 C 0.34764 0.31077 0.98549 0.0
C2563 C 0.32952 0.31756 0.98916 0.0
C2564 C 0.3567 0.31669 0.9678 0.0
C2565 C 0.34768 0.32925 0.95314 0.0
C2566 C 0.32954 0.33595 0.95682 0.0
C2567 C 0.32067 0.33029 0.9746 0.0
H2568 H 0.66505 0.72795 0.22578 0.0
H2569 H 0.63804 0.67008 0.21565 0.0
H2570 H 0.63699 0.73532 0.24354 0.0
H2571 H 0.60959 0.67732 0.23287 0.0
H2572 H 0.56897 0.69003 0.28001 0.0
H2573 H 0.59785 0.68284 0.26412 0.0
H2574 H 0.60363 0.74171 0.23897 0.0
H2575 H 0.57541 0.74925 0.25576 0.0
C2576 C 0.65297 0.71686 0.22732 0.0
C2577 C 0.65366 0.69847 0.21939 0.0
C2578 C 0.63681 0.72105 0.23739 0.0
C2579 C 0.62079 0.70698 0.23969 0.0
C2580 C 0.62166 0.68849 0.23178 0.0
C2581 C 0.63792 0.68429 0.22183 0.0
C2582 C 0.57642 0.70159 0.27133 0.0
C2583 C 0.56953 0.72029 0.26932 0.0
C2584 C 0.59299 0.69735 0.26192 0.0
C2585 C 0.60323 0.71161 0.25007 0.0
C2586 C 0.59641 0.73033 0.24812 0.0
C2587 C 0.57991 0.73461 0.25762 0.0
H2588 H 0.33388 0.6688 0.20259 0.0
H2589 H 0.36341 0.64712 0.15509 0.0
H2590 H 0.3318 0.63637 0.21935 0.0
H2591 H 0.36057 0.61443 0.17088 0.0
H2592 H 0.36342 0.55938 0.20974 0.0
H2593 H 0.37017 0.59295 0.19765 0.0
H2594 H 0.3133 0.60623 0.21421 0.0
H2595 H 0.30704 0.57273 0.22698 0.0
C2596 C 0.34034 0.65707 0.1961 0.0
C2597 C 0.34917 0.66027 0.17793 0.0
C2598 C 0.33886 0.63845 0.2054 0.0
C2599 C 0.34585 0.62265 0.1964 0.0
C2600 C 0.35531 0.6262 0.17848 0.0
C2601 C 0.35697 0.64485 0.16939 0.0
C2602 C 0.35235 0.56948 0.21066 0.0
C2603 C 0.33463 0.56343 0.21912 0.0
C2604 C 0.3562 0.58875 0.20376 0.0
C2605 C 0.34229 0.6024 0.20489 0.0
C2606 C 0.32456 0.59629 0.21344 0.0
C2607 C 0.32085 0.57706 0.22061 0.0
H2608 H 0.46232 0.35094 0.2108 0.0
H2609 H 0.41795 0.30459 0.22292 0.0
H2610 H 0.48828 0.32902 0.2203 0.0
H2611 H 0.44369 0.28249 0.23212 0.0
H2612 H 0.49388 0.24426 0.22718 0.0
H2613 H 0.46895 0.26645 0.21701 0.0
H2614 H 0.50274 0.31148 0.25159 0.0
H2615 H 0.52818 0.28902 0.26183 0.0
C2616 C 0.45818 0.33596 0.21527 0.0
C2617 C 0.43818 0.32939 0.21607 0.0
C2618 C 0.47299 0.32347 0.22087 0.0
C2619 C 0.46809 0.30405 0.22717 0.0
C2620 C 0.448 0.29733 0.22722 0.0
C2621 C 0.43323 0.30988 0.22178 0.0
C2622 C 0.49613 0.25888 0.23272 0.0
C2623 C 0.51313 0.26483 0.24536 0.0
C2624 C 0.48169 0.27158 0.22692 0.0
C2625 C 0.48378 0.29073 0.23349 0.0
C2626 C 0.50078 0.29683 0.24613 0.0
C2627 C 0.51528 0.28396 0.25212 0.0
H2628 H 0.6978 0.41131 0.17622 0.0
H2629 H 0.75213 0.3844 0.19013 0.0
H2630 H 0.71397 0.4424 0.1885 0.0
H2631 H 0.76859 0.41549 0.20169 0.0
H2632 H 0.79423 0.47926 0.19663 0.0
H2633 H 0.77683 0.44916 0.185 0.0
H2634 H 0.73088 0.45579 0.22375 0.0
H2635 H 0.74867 0.48636 0.23589 0.0
C2636 C 0.71327 0.41219 0.18172 0.0
C2637 C 0.7238 0.39557 0.18228 0.0
C2638 C 0.72246 0.42986 0.18887 0.0
C2639 C 0.74248 0.43131 0.19625 0.0
C2640 C 0.75314 0.41481 0.19608 0.0
C2641 C 0.74385 0.3971 0.18928 0.0
C2642 C 0.78039 0.47448 0.20276 0.0
C2643 C 0.77283 0.48534 0.21722 0.0
C2644 C 0.77048 0.45709 0.1961 0.0
C2645 C 0.75255 0.45008 0.20346 0.0
C2646 C 0.74469 0.46094 0.21775 0.0
C2647 C 0.75487 0.47836 0.22476 0.0
H2648 H 0.65434 0.39538 0.83831 0.0
H2649 H 0.67705 0.34552 0.81527 0.0
H2650 H 0.62051 0.38226 0.82755 0.0
H2651 H 0.64347 0.33224 0.80451 0.0
H2652 H 0.58164 0.31414 0.78139 0.0
H2653 H 0.61196 0.33603 0.78257 0.0
H2654 H 0.60134 0.35318 0.84199 0.0
H2655 H 0.57121 0.33142 0.84082 0.0
C2656 C 0.65201 0.38187 0.83043 0.0
C2657 C 0.66805 0.37133 0.82762 0.0
C2658 C 0.63275 0.37431 0.82438 0.0
C2659 C 0.62933 0.35618 0.81525 0.0
C2660 C 0.64559 0.34634 0.81127 0.0
C2661 C 0.66477 0.35381 0.8175 0.0
C2662 C 0.58549 0.32304 0.79442 0.0
C2663 C 0.57418 0.32094 0.81111 0.0
C2664 C 0.60291 0.33546 0.79515 0.0
C2665 C 0.60912 0.3462 0.81244 0.0
C2666 C 0.59691 0.34524 0.82839 0.0
C2667 C 0.57969 0.33267 0.82777 0.0
H2668 H 0.7418 0.61449 0.86397 0.0
H2669 H 0.74986 0.65732 0.81551 0.0
H2670 H 0.75746 0.59096 0.8456 0.0
H2671 H 0.76513 0.63386 0.79683 0.0
H2672 H 0.81965 0.59845 0.79198 0.0
H2673 H 0.79714 0.62019 0.80314 0.0
H2674 H 0.75548 0.57094 0.81467 0.0
H2675 H 0.77833 0.54903 0.80327 0.0
C2676 C 0.74671 0.6187 0.84923 0.0
C2677 C 0.74476 0.63765 0.84113 0.0
C2678 C 0.75546 0.60523 0.83861 0.0
C2679 C 0.76255 0.61053 0.81973 0.0
C2680 C 0.75994 0.62934 0.81137 0.0
C2681 C 0.75113 0.64274 0.82197 0.0
C2682 C 0.80541 0.59233 0.7963 0.0
C2683 C 0.80064 0.57212 0.79666 0.0
C2684 C 0.79248 0.60479 0.80269 0.0
C2685 C 0.77454 0.59732 0.80992 0.0
C2686 C 0.76927 0.57711 0.8093 0.0
C2687 C 0.78218 0.5646 0.80256 0.0
H2688 H 0.4131 0.72211 0.80558 0.0
H2689 H 0.43218 0.67531 0.84556 0.0
H2690 H 0.44478 0.7252 0.7911 0.0
H2691 H 0.46338 0.67704 0.83019 0.0
H2692 H 0.52416 0.71126 0.82889 0.0
H2693 H 0.49111 0.6983 0.8345 0.0
H2694 H 0.47069 0.71693 0.7736 0.0
H2695 H 0.50413 0.73095 0.76839 0.0
C2696 C 0.42384 0.71187 0.81054 0.0
C2697 C 0.42033 0.69855 0.82668 0.0
C2698 C 0.44204 0.71355 0.80224 0.0
C2699 C 0.45705 0.70168 0.80973 0.0
C2700 C 0.45253 0.68689 0.8244 0.0
C2701 C 0.43448 0.68554 0.83298 0.0
C2702 C 0.51275 0.71231 0.81649 0.0
C2703 C 0.51682 0.72242 0.79828 0.0
C2704 C 0.49363 0.70464 0.81965 0.0
C2705 C 0.4779 0.70662 0.80461 0.0
C2706 C 0.48226 0.71542 0.78574 0.0
C2707 C 0.50151 0.72328 0.78262 0.0
H2708 H 0.34814 0.39044 0.83307 0.0
H2709 H 0.40569 0.41912 0.84924 0.0
H2710 H 0.34073 0.41721 0.80882 0.0
H2711 H 0.39845 0.4461 0.82516 0.0
H2712 H 0.38565 0.48254 0.76647 0.0
H2713 H 0.3933 0.45486 0.78934 0.0
H2714 H 0.33405 0.4507 0.80764 0.0
H2715 H 0.32626 0.47768 0.78438 0.0
C2716 C 0.35911 0.40262 0.83151 0.0
C2717 C 0.37743 0.40279 0.84302 0.0
C2718 C 0.35492 0.41797 0.81765 0.0
C2719 C 0.36898 0.43391 0.81496 0.0
C2720 C 0.38736 0.43399 0.82654 0.0
C2721 C 0.39151 0.41861 0.84041 0.0
C2722 C 0.37422 0.47558 0.77522 0.0
C2723 C 0.35538 0.48252 0.77361 0.0
C2724 C 0.37865 0.45982 0.78852 0.0
C2725 C 0.36432 0.45051 0.80047 0.0
C2726 C 0.34543 0.45731 0.79861 0.0
C2727 C 0.34103 0.47304 0.78539 0.0
H2728 H 0.729 0.68058 0.22503 0.0
H2729 H 0.69913 0.65386 0.17212 0.0
H2730 H 0.75396 0.65708 0.22679 0.0
H2731 H 0.72375 0.62985 0.17388 0.0
H2732 H 0.77886 0.59593 0.17607 0.0
H2733 H 0.75771 0.62294 0.17131 0.0
H2734 H 0.75513 0.62343 0.23601 0.0
H2735 H 0.77661 0.59717 0.2407 0.0
C2736 C 0.72797 0.66968 0.2137 0.0
C2737 C 0.71217 0.6688 0.19859 0.0
C2738 C 0.74212 0.65611 0.21473 0.0
C2739 C 0.74079 0.64127 0.20067 0.0
C2740 C 0.72539 0.64106 0.18492 0.0
C2741 C 0.71124 0.65472 0.1839 0.0
C2742 C 0.77398 0.60201 0.18926 0.0
C2743 C 0.77936 0.59419 0.20876 0.0
C2744 C 0.76168 0.61739 0.18653 0.0
C2745 C 0.75461 0.62546 0.20326 0.0
C2746 C 0.7604 0.61786 0.22274 0.0
C2747 C 0.77256 0.60252 0.22544 0.0
H2748 H 0.71749 0.43245 0.85052 0.0
H2749 H 0.75316 0.38579 0.84163 0.0
H2750 H 0.74666 0.45584 0.84993 0.0
H2751 H 0.78253 0.40869 0.84226 0.0
H2752 H 0.82268 0.45823 0.81503 0.0
H2753 H 0.79595 0.43345 0.82053 0.0
H2754 H 0.77782 0.46712 0.86766 0.0
H2755 H 0.80425 0.49239 0.86141 0.0
C2756 C 0.73164 0.42727 0.84853 0.0
C2757 C 0.73318 0.40745 0.84601 0.0
C2758 C 0.74839 0.44054 0.84852 0.0
C2759 C 0.767 0.43415 0.84608 0.0
C2760 C 0.76845 0.41418 0.84393 0.0
C2761 C 0.7517 0.40102 0.84375 0.0
C2762 C 0.81314 0.46019 0.82675 0.0
C2763 C 0.81544 0.47732 0.83763 0.0
C2764 C 0.79786 0.44593 0.83003 0.0
C2765 C 0.78455 0.44836 0.84441 0.0
C2766 C 0.78759 0.46496 0.85621 0.0
C2767 C 0.80292 0.4793 0.85287 0.0
H2768 H 0.69007 0.67762 0.88348 0.0
H2769 H 0.71924 0.70705 0.83465 0.0
H2770 H 0.66237 0.69793 0.87626 0.0
H2771 H 0.69216 0.72795 0.82767 0.0
H2772 H 0.63042 0.7406 0.80201 0.0
H2773 H 0.65947 0.72378 0.8126 0.0
H2774 H 0.64935 0.72909 0.87524 0.0
H2775 H 0.61951 0.7451 0.86458 0.0
C2776 C 0.69073 0.68891 0.87161 0.0
C2777 C 0.70661 0.69087 0.85956 0.0
C2778 C 0.67492 0.70055 0.86741 0.0
C2779 C 0.67479 0.71443 0.85111 0.0
C2780 C 0.69142 0.71711 0.83997 0.0
C2781 C 0.70706 0.70536 0.84407 0.0
C2782 C 0.63417 0.73808 0.81805 0.0
C2783 C 0.62235 0.74419 0.83236 0.0
C2784 C 0.65113 0.72865 0.82418 0.0
C2785 C 0.65696 0.72512 0.84484 0.0
C2786 C 0.64529 0.73138 0.85921 0.0
C2787 C 0.62822 0.74078 0.85306 0.0
H2788 H 0.4027 0.65396 0.85055 0.0
H2789 H 0.36079 0.68356 0.81072 0.0
H2790 H 0.38963 0.62276 0.83641 0.0
H2791 H 0.34756 0.65249 0.79621 0.0
H2792 H 0.31624 0.59201 0.78734 0.0
H2793 H 0.32863 0.62183 0.80483 0.0
H2794 H 0.38819 0.60531 0.8057 0.0
H2795 H 0.37586 0.57566 0.78877 0.0
C2796 C 0.39108 0.65374 0.83828 0.0
C2797 C 0.38314 0.67105 0.83115 0.0
C2798 C 0.3834 0.63593 0.83032 0.0
C2799 C 0.36747 0.63506 0.81518 0.0
C2800 C 0.35964 0.65254 0.80802 0.0
C2801 C 0.36737 0.67034 0.816 0.0
C2802 C 0.3319 0.59457 0.79177 0.0
C2803 C 0.34506 0.5815 0.78667 0.0
C2804 C 0.33905 0.61176 0.80152 0.0
C2805 C 0.35946 0.6161 0.80647 0.0
C2806 C 0.37241 0.60246 0.80227 0.0
C2807 C 0.36531 0.58544 0.79249 0.0
H2808 H 0.43423 0.3672 0.88786 0.0
H2809 H 0.38996 0.32388 0.86415 0.0
H2810 H 0.46 0.34557 0.88414 0.0
H2811 H 0.41562 0.30209 0.85997 0.0
H2812 H 0.46764 0.26411 0.86215 0.0
H2813 H 0.44242 0.28249 0.87424 0.0
H2814 H 0.47344 0.33608 0.85393 0.0
H2815 H 0.49877 0.31779 0.84236 0.0
C2816 C 0.43004 0.35268 0.88257 0.0
C2817 C 0.4102 0.34705 0.87649 0.0
C2818 C 0.44476 0.3404 0.8801 0.0
C2819 C 0.43997 0.3222 0.87135 0.0
C2820 C 0.41988 0.31594 0.86682 0.0
C2821 C 0.40514 0.3283 0.86934 0.0
C2822 C 0.46922 0.27983 0.86053 0.0
C2823 C 0.48528 0.28945 0.85122 0.0
C2824 C 0.45466 0.29036 0.86732 0.0
C2825 C 0.45588 0.3108 0.86518 0.0
C2826 C 0.47211 0.32039 0.85615 0.0
C2827 C 0.48656 0.30988 0.84925 0.0
H2828 H 0.37762 0.36633 0.24695 0.0
H2829 H 0.41908 0.40453 0.21589 0.0
H2830 H 0.36653 0.39414 0.26284 0.0
H2831 H 0.40742 0.43273 0.23058 0.0
H2832 H 0.39267 0.48007 0.2693 0.0
H2833 H 0.40614 0.45107 0.25865 0.0
H2834 H 0.34802 0.4203 0.2568 0.0
H2835 H 0.33497 0.4488 0.2685 0.0
C2836 C 0.38419 0.38083 0.24348 0.0
C2837 C 0.39907 0.38347 0.23025 0.0
C2838 C 0.3778 0.39683 0.25242 0.0
C2839 C 0.38592 0.41592 0.24802 0.0
C2840 C 0.40099 0.41837 0.23475 0.0
C2841 C 0.40759 0.40229 0.22612 0.0
C2842 C 0.38288 0.46697 0.26697 0.0
C2843 C 0.36275 0.46681 0.2698 0.0
C2844 C 0.39055 0.45035 0.2606 0.0
C2845 C 0.37822 0.43319 0.25655 0.0
C2846 C 0.35818 0.43297 0.26 0.0
C2847 C 0.35061 0.44945 0.26668 0.0
H2848 H 0.66555 0.33083 0.15701 0.0
H2849 H 0.69098 0.33339 0.21879 0.0
H2850 H 0.64218 0.30399 0.16639 0.0
H2851 H 0.66641 0.3078 0.22887 0.0
H2852 H 0.63227 0.24991 0.23948 0.0
H2853 H 0.65699 0.27497 0.22855 0.0
H2854 H 0.61407 0.29503 0.18182 0.0
H2855 H 0.59007 0.26908 0.19209 0.0
C2856 C 0.66594 0.32569 0.17268 0.0
C2857 C 0.68008 0.33406 0.18716 0.0
C2858 C 0.65236 0.31047 0.17818 0.0
C2859 C 0.65225 0.30353 0.19846 0.0
C2860 C 0.6662 0.31234 0.21304 0.0
C2861 C 0.68009 0.32728 0.20739 0.0
C2862 C 0.62839 0.25955 0.22666 0.0
C2863 C 0.60944 0.25752 0.21647 0.0
C2864 C 0.64242 0.2741 0.22052 0.0
C2865 C 0.63762 0.28731 0.20435 0.0
C2866 C 0.61859 0.28501 0.19405 0.0
C2867 C 0.60475 0.27015 0.1999 0.0
H2868 H 0.36151 0.69512 0.20663 0.0
H2869 H 0.39833 0.69894 0.15724 0.0
H2870 H 0.39039 0.70377 0.23023 0.0
H2871 H 0.42735 0.70796 0.18066 0.0
H2872 H 0.46695 0.74833 0.2254 0.0
H2873 H 0.43941 0.73672 0.20147 0.0
H2874 H 0.42182 0.69157 0.24501 0.0
H2875 H 0.44912 0.70314 0.2689 0.0
C2876 C 0.3759 0.69743 0.20097 0.0
C2877 C 0.37781 0.69638 0.18025 0.0
C2878 C 0.39241 0.70248 0.21439 0.0
C2879 C 0.41114 0.7067 0.20727 0.0
C2880 C 0.41308 0.7051 0.18655 0.0
C2881 C 0.39657 0.69988 0.17318 0.0
C2882 C 0.45725 0.73589 0.22982 0.0
C2883 C 0.4602 0.72673 0.24909 0.0
C2884 C 0.44155 0.72916 0.21607 0.0
C2885 C 0.42841 0.71325 0.22139 0.0
C2886 C 0.43154 0.70399 0.24056 0.0
C2887 C 0.44726 0.7106 0.25421 0.0
loop_
_geom_bond_atom_site_label_1
_geom_bond_atom_site_label_2
_geom_bond_distance
_geom_bond_site_symmetry_2
_ccdc_geom_bond_type
C0 N1 1.317 . S
C0 N2 1.348 . S
C0 C3 1.485 . S
N1 C0 1.317 . S
N1 N5 1.370 . S
N2 C0 1.348 . S
N2 C4 1.346 . S
C3 C0 1.485 . S
C3 H7 0.960 . S
C3 H8 0.961 . S
C3 H9 0.960 . S
C4 N2 1.346 . S
C4 N5 1.307 . S
C4 C6 1.486 . S
N5 N1 1.370 . S
N5 C4 1.307 . S
C6 C4 1.486 . S
C6 H10 0.960 . S
C6 H11 0.960 . S
C6 H12 0.959 . S
H7 C3 0.960 . S
H8 C3 0.961 . S
H9 C3 0.960 . S
H10 C6 0.960 . S
H11 C6 0.960 . S
H12 C6 0.959 . S
C13 N14 1.317 . S
C13 N15 1.348 . S
C13 C16 1.485 . S
N14 C13 1.317 . S
N14 N18 1.370 . S
N15 C13 1.348 . S
N15 C17 1.346 . S
C16 C13 1.485 . S
C16 H20 0.960 . S
C16 H21 0.961 . S
C16 H22 0.960 . S
C17 N15 1.346 . S
C17 N18 1.307 . S
C17 C19 1.486 . S
N18 N14 1.370 . S
N18 C17 1.307 . S
C19 C17 1.486 . S
C19 H23 0.960 . S
C19 H24 0.960 . S
C19 H25 0.959 . S
H20 C16 0.960 . S
H21 C16 0.961 . S
H22 C16 0.960 . S
H23 C19 0.960 . S
H24 C19 0.960 . S
H25 C19 0.959 . S
C26 N27 1.317 . S
C26 N28 1.348 . S
C26 C29 1.485 . S
N27 C26 1.317 . S
N27 N31 1.370 . S
N28 C26 1.348 . S
N28 C30 1.346 . S
C29 C26 1.485 . S
C29 H33 0.960 . S
C29 H34 0.961 . S
C29 H35 0.960 . S
C30 N28 1.346 . S
C30 N31 1.307 . S
C30 C32 1.486 . S
N31 N27 1.370 . S
N31 C30 1.307 . S
C32 C30 1.486 . S
C32 H36 0.960 . S
C32 H37 0.960 . S
C32 H38 0.959 . S
H33 C29 0.960 . S
H34 C29 0.961 . S
H35 C29 0.960 . S
H36 C32 0.960 . S
H37 C32 0.960 . S
H38 C32 0.959 . S
C39 N40 1.317 . S
C39 N41 1.348 . S
C39 C42 1.485 . S
N40 C39 1.317 . S
N40 N44 1.370 . S
N41 C39 1.348 . S
N41 C43 1.346 . S
C42 C39 1.485 . S
C42 H46 0.960 . S
C42 H47 0.961 . S
C42 H48 0.960 . S
C43 N41 1.346 . S
C43 N44 1.307 . S
C43 C45 1.486 . S
N44 N40 1.370 . S
N44 C43 1.307 . S
C45 C43 1.486 . S
C45 H49 0.960 . S
C45 H50 0.960 . S
C45 H51 0.959 . S
H46 C42 0.960 . S
H47 C42 0.961 . S
H48 C42 0.960 . S
H49 C45 0.960 . S
H50 C45 0.960 . S
H51 C45 0.959 . S
C52 N53 1.317 . S
C52 N54 1.348 . S
C52 C55 1.485 . S
N53 C52 1.317 . S
N53 N57 1.370 . S
N54 C52 1.348 . S
N54 C56 1.346 . S
C55 C52 1.485 . S
C55 H59 0.960 . S
C55 H60 0.961 . S
C55 H61 0.960 . S
C56 N54 1.346 . S
C56 N57 1.307 . S
C56 C58 1.486 . S
N57 N53 1.370 . S
N57 C56 1.307 . S
C58 C56 1.486 . S
C58 H62 0.960 . S
C58 H63 0.960 . S
C58 H64 0.959 . S
H59 C55 0.960 . S
H60 C55 0.961 . S
H61 C55 0.960 . S
H62 C58 0.960 . S
H63 C58 0.960 . S
H64 C58 0.959 . S
C65 N66 1.317 . S
C65 N67 1.348 . S
C65 C68 1.485 . S
N66 C65 1.317 . S
N66 N70 1.370 . S
N67 C65 1.348 . S
N67 C69 1.346 . S
C68 C65 1.485 . S
C68 H72 0.960 . S
C68 H73 0.961 . S
C68 H74 0.960 . S
C69 N67 1.346 . S
C69 N70 1.307 . S
C69 C71 1.486 . S
N70 N66 1.370 . S
N70 C69 1.307 . S
C71 C69 1.486 . S
C71 H75 0.960 . S
C71 H76 0.960 . S
C71 H77 0.959 . S
H72 C68 0.960 . S
H73 C68 0.961 . S
H74 C68 0.960 . S
H75 C71 0.960 . S
H76 C71 0.960 . S
H77 C71 0.959 . S
C78 N79 1.317 . S
C78 N80 1.348 . S
C78 C81 1.485 . S
N79 C78 1.317 . S
N79 N83 1.370 . S
N80 C78 1.348 . S
N80 C82 1.346 . S
C81 C78 1.485 . S
C81 H85 0.960 . S
C81 H86 0.961 . S
C81 H87 0.960 . S
C82 N80 1.346 . S
C82 N83 1.307 . S
C82 C84 1.486 . S
N83 N79 1.370 . S
N83 C82 1.307 . S
C84 C82 1.486 . S
C84 H88 0.960 . S
C84 H89 0.960 . S
C84 H90 0.959 . S
H85 C81 0.960 . S
H86 C81 0.961 . S
H87 C81 0.960 . S
H88 C84 0.960 . S
H89 C84 0.960 . S
H90 C84 0.959 . S
C91 N92 1.317 . S
C91 N93 1.348 . S
C91 C94 1.485 . S
N92 C91 1.317 . S
N92 N96 1.370 . S
N93 C91 1.348 . S
N93 C95 1.346 . S
C94 C91 1.485 . S
C94 H98 0.960 . S
C94 H99 0.961 . S
C94 H100 0.960 . S
C95 N93 1.346 . S
C95 N96 1.307 . S
C95 C97 1.486 . S
N96 N92 1.370 . S
N96 C95 1.307 . S
C97 C95 1.486 . S
C97 H101 0.960 . S
C97 H102 0.960 . S
C97 H103 0.959 . S
H98 C94 0.960 . S
H99 C94 0.961 . S
H100 C94 0.960 . S
H101 C97 0.960 . S
H102 C97 0.960 . S
H103 C97 0.959 . S
C104 N105 1.317 . S
C104 N106 1.348 . S
C104 C107 1.485 . S
N105 C104 1.317 . S
N105 N109 1.370 . S
N106 C104 1.348 . S
N106 C108 1.346 . S
C107 C104 1.485 . S
C107 H111 0.960 . S
C107 H112 0.961 . S
C107 H113 0.960 . S
C108 N106 1.346 . S
C108 N109 1.307 . S
C108 C110 1.486 . S
N109 N105 1.370 . S
N109 C108 1.307 . S
C110 C108 1.486 . S
C110 H114 0.960 . S
C110 H115 0.960 . S
C110 H116 0.959 . S
H111 C107 0.960 . S
H112 C107 0.961 . S
H113 C107 0.960 . S
H114 C110 0.960 . S
H115 C110 0.960 . S
H116 C110 0.959 . S
C117 N118 1.317 . S
C117 N119 1.348 . S
C117 C120 1.485 . S
N118 C117 1.317 . S
N118 N122 1.370 . S
N119 C117 1.348 . S
N119 C121 1.346 . S
C120 C117 1.485 . S
C120 H124 0.960 . S
C120 H125 0.961 . S
C120 H126 0.960 . S
C121 N119 1.346 . S
C121 N122 1.307 . S
C121 C123 1.486 . S
N122 N118 1.370 . S
N122 C121 1.307 . S
C123 C121 1.486 . S
C123 H127 0.960 . S
C123 H128 0.960 . S
C123 H129 0.959 . S
H124 C120 0.960 . S
H125 C120 0.961 . S
H126 C120 0.960 . S
H127 C123 0.960 . S
H128 C123 0.960 . S
H129 C123 0.959 . S
C130 N131 1.317 . S
C130 N132 1.348 . S
C130 C133 1.485 . S
N131 C130 1.317 . S
N131 N135 1.370 . S
N132 C130 1.348 . S
N132 C134 1.346 . S
C133 C130 1.485 . S
C133 H137 0.960 . S
C133 H138 0.961 . S
C133 H139 0.960 . S
C134 N132 1.346 . S
C134 N135 1.307 . S
C134 C136 1.486 . S
N135 N131 1.370 . S
N135 C134 1.307 . S
C136 C134 1.486 . S
C136 H140 0.960 . S
C136 H141 0.960 . S
C136 H142 0.959 . S
H137 C133 0.960 . S
H138 C133 0.961 . S
H139 C133 0.960 . S
H140 C136 0.960 . S
H141 C136 0.960 . S
H142 C136 0.959 . S
C143 N144 1.317 . S
C143 N145 1.348 . S
C143 C146 1.485 . S
N144 C143 1.317 . S
N144 N148 1.370 . S
N145 C143 1.348 . S
N145 C147 1.346 . S
C146 C143 1.485 . S
C146 H150 0.960 . S
C146 H151 0.961 . S
C146 H152 0.960 . S
C147 N145 1.346 . S
C147 N148 1.307 . S
C147 C149 1.486 . S
N148 N144 1.370 . S
N148 C147 1.307 . S
C149 C147 1.486 . S
C149 H153 0.960 . S
C149 H154 0.960 . S
C149 H155 0.959 . S
H150 C146 0.960 . S
H151 C146 0.961 . S
H152 C146 0.960 . S
H153 C149 0.960 . S
H154 C149 0.960 . S
H155 C149 0.959 . S
C156 N157 1.317 . S
C156 N158 1.348 . S
C156 C159 1.485 . S
N157 C156 1.317 . S
N157 N161 1.370 . S
N158 C156 1.348 . S
N158 C160 1.346 . S
C159 C156 1.485 . S
C159 H163 0.960 . S
C159 H164 0.961 . S
C159 H165 0.960 . S
C160 N158 1.346 . S
C160 N161 1.307 . S
C160 C162 1.486 . S
N161 N157 1.370 . S
N161 C160 1.307 . S
C162 C160 1.486 . S
C162 H166 0.960 . S
C162 H167 0.960 . S
C162 H168 0.959 . S
H163 C159 0.960 . S
H164 C159 0.961 . S
H165 C159 0.960 . S
H166 C162 0.960 . S
H167 C162 0.960 . S
H168 C162 0.959 . S
C169 N170 1.317 . S
C169 N171 1.348 . S
C169 C172 1.485 . S
N170 C169 1.317 . S
N170 N174 1.370 . S
N171 C169 1.348 . S
N171 C173 1.346 . S
C172 C169 1.485 . S
C172 H176 0.960 . S
C172 H177 0.961 . S
C172 H178 0.960 . S
C173 N171 1.346 . S
C173 N174 1.307 . S
C173 C175 1.486 . S
N174 N170 1.370 . S
N174 C173 1.307 . S
C175 C173 1.486 . S
C175 H179 0.960 . S
C175 H180 0.960 . S
C175 H181 0.959 . S
H176 C172 0.960 . S
H177 C172 0.961 . S
H178 C172 0.960 . S
H179 C175 0.960 . S
H180 C175 0.960 . S
H181 C175 0.959 . S
C182 N183 1.317 . S
C182 N184 1.348 . S
C182 C185 1.485 . S
N183 C182 1.317 . S
N183 N187 1.370 . S
N184 C182 1.348 . S
N184 C186 1.346 . S
C185 C182 1.485 . S
C185 H189 0.960 . S
C185 H190 0.961 . S
C185 H191 0.960 . S
C186 N184 1.346 . S
C186 N187 1.307 . S
C186 C188 1.486 . S
N187 N183 1.370 . S
N187 C186 1.307 . S
C188 C186 1.486 . S
C188 H192 0.960 . S
C188 H193 0.960 . S
C188 H194 0.959 . S
H189 C185 0.960 . S
H190 C185 0.961 . S
H191 C185 0.960 . S
H192 C188 0.960 . S
H193 C188 0.960 . S
H194 C188 0.959 . S
C195 N196 1.317 . S
C195 N197 1.348 . S
C195 C198 1.485 . S
N196 C195 1.317 . S
N196 N200 1.370 . S
N197 C195 1.348 . S
N197 C199 1.346 . S
C198 C195 1.485 . S
C198 H202 0.960 . S
C198 H203 0.961 . S
C198 H204 0.960 . S
C199 N197 1.346 . S
C199 N200 1.307 . S
C199 C201 1.486 . S
N200 N196 1.370 . S
N200 C199 1.307 . S
C201 C199 1.486 . S
C201 H205 0.960 . S
C201 H206 0.960 . S
C201 H207 0.959 . S
H202 C198 0.960 . S
H203 C198 0.961 . S
H204 C198 0.960 . S
H205 C201 0.960 . S
H206 C201 0.960 . S
H207 C201 0.959 . S
C208 N209 1.317 . S
C208 N210 1.348 . S
C208 C211 1.485 . S
N209 C208 1.317 . S
N209 N213 1.370 . S
N210 C208 1.348 . S
N210 C212 1.346 . S
C211 C208 1.485 . S
C211 H215 0.960 . S
C211 H216 0.961 . S
C211 H217 0.960 . S
C212 N210 1.346 . S
C212 N213 1.307 . S
C212 C214 1.486 . S
N213 N209 1.370 . S
N213 C212 1.307 . S
C214 C212 1.486 . S
C214 H218 0.960 . S
C214 H219 0.960 . S
C214 H220 0.959 . S
H215 C211 0.960 . S
H216 C211 0.961 . S
H217 C211 0.960 . S
H218 C214 0.960 . S
H219 C214 0.960 . S
H220 C214 0.959 . S
C221 N222 1.317 . S
C221 N223 1.348 . S
C221 C224 1.485 . S
N222 C221 1.317 . S
N222 N226 1.370 . S
N223 C221 1.348 . S
N223 C225 1.346 . S
C224 C221 1.485 . S
C224 H228 0.960 . S
C224 H229 0.961 . S
C224 H230 0.960 . S
C225 N223 1.346 . S
C225 N226 1.307 . S
C225 C227 1.486 . S
N226 N222 1.370 . S
N226 C225 1.307 . S
C227 C225 1.486 . S
C227 H231 0.960 . S
C227 H232 0.960 . S
C227 H233 0.959 . S
H228 C224 0.960 . S
H229 C224 0.961 . S
H230 C224 0.960 . S
H231 C227 0.960 . S
H232 C227 0.960 . S
H233 C227 0.959 . S
C234 N235 1.317 . S
C234 N236 1.348 . S
C234 C237 1.485 . S
N235 C234 1.317 . S
N235 N239 1.370 . S
N236 C234 1.348 . S
N236 C238 1.346 . S
C237 C234 1.485 . S
C237 H241 0.960 . S
C237 H242 0.961 . S
C237 H243 0.960 . S
C238 N236 1.346 . S
C238 N239 1.307 . S
C238 C240 1.486 . S
N239 N235 1.370 . S
N239 C238 1.307 . S
C240 C238 1.486 . S
C240 H244 0.960 . S
C240 H245 0.960 . S
C240 H246 0.959 . S
H241 C237 0.960 . S
H242 C237 0.961 . S
H243 C237 0.960 . S
H244 C240 0.960 . S
H245 C240 0.960 . S
H246 C240 0.959 . S
C247 N248 1.317 . S
C247 N249 1.348 . S
C247 C250 1.485 . S
N248 C247 1.317 . S
N248 N252 1.370 . S
N249 C247 1.348 . S
N249 C251 1.346 . S
C250 C247 1.485 . S
C250 H254 0.960 . S
C250 H255 0.961 . S
C250 H256 0.960 . S
C251 N249 1.346 . S
C251 N252 1.307 . S
C251 C253 1.486 . S
N252 N248 1.370 . S
N252 C251 1.307 . S
C253 C251 1.486 . S
C253 H257 0.960 . S
C253 H258 0.960 . S
C253 H259 0.959 . S
H254 C250 0.960 . S
H255 C250 0.961 . S
H256 C250 0.960 . S
H257 C253 0.960 . S
H258 C253 0.960 . S
H259 C253 0.959 . S
C260 N261 1.317 . S
C260 N262 1.348 . S
C260 C263 1.485 . S
N261 C260 1.317 . S
N261 N265 1.370 . S
N262 C260 1.348 . S
N262 C264 1.346 . S
C263 C260 1.485 . S
C263 H267 0.960 . S
C263 H268 0.961 . S
C263 H269 0.960 . S
C264 N262 1.346 . S
C264 N265 1.307 . S
C264 C266 1.486 . S
N265 N261 1.370 . S
N265 C264 1.307 . S
C266 C264 1.486 . S
C266 H270 0.960 . S
C266 H271 0.960 . S
C266 H272 0.959 . S
H267 C263 0.960 . S
H268 C263 0.961 . S
H269 C263 0.960 . S
H270 C266 0.960 . S
H271 C266 0.960 . S
H272 C266 0.959 . S
C273 N274 1.317 . S
C273 N275 1.348 . S
C273 C276 1.485 . S
N274 C273 1.317 . S
N274 N278 1.370 . S
N275 C273 1.348 . S
N275 C277 1.346 . S
C276 C273 1.485 . S
C276 H280 0.960 . S
C276 H281 0.961 . S
C276 H282 0.960 . S
C277 N275 1.346 . S
C277 N278 1.307 . S
C277 C279 1.486 . S
N278 N274 1.370 . S
N278 C277 1.307 . S
C279 C277 1.486 . S
C279 H283 0.960 . S
C279 H284 0.960 . S
C279 H285 0.959 . S
H280 C276 0.960 . S
H281 C276 0.961 . S
H282 C276 0.960 . S
H283 C279 0.960 . S
H284 C279 0.960 . S
H285 C279 0.959 . S
C286 N287 1.317 . S
C286 N288 1.348 . S
C286 C289 1.485 . S
N287 C286 1.317 . S
N287 N291 1.370 . S
N288 C286 1.348 . S
N288 C290 1.346 . S
C289 C286 1.485 . S
C289 H293 0.960 . S
C289 H294 0.961 . S
C289 H295 0.960 . S
C290 N288 1.346 . S
C290 N291 1.307 . S
C290 C292 1.486 . S
N291 N287 1.370 . S
N291 C290 1.307 . S
C292 C290 1.486 . S
C292 H296 0.960 . S
C292 H297 0.960 . S
C292 H298 0.959 . S
H293 C289 0.960 . S
H294 C289 0.961 . S
H295 C289 0.960 . S
H296 C292 0.960 . S
H297 C292 0.960 . S
H298 C292 0.959 . S
C299 N300 1.317 . S
C299 N301 1.348 . S
C299 C302 1.485 . S
N300 C299 1.317 . S
N300 N304 1.370 . S
N301 C299 1.348 . S
N301 C303 1.346 . S
C302 C299 1.485 . S
C302 H306 0.960 . S
C302 H307 0.961 . S
C302 H308 0.960 . S
C303 N301 1.346 . S
C303 N304 1.307 . S
C303 C305 1.486 . S
N304 N300 1.370 . S
N304 C303 1.307 . S
C305 C303 1.486 . S
C305 H309 0.960 . S
C305 H310 0.960 . S
C305 H311 0.959 . S
H306 C302 0.960 . S
H307 C302 0.961 . S
H308 C302 0.960 . S
H309 C305 0.960 . S
H310 C305 0.960 . S
H311 C305 0.959 . S
C312 N313 1.317 . S
C312 N314 1.348 . S
C312 C315 1.485 . S
N313 C312 1.317 . S
N313 N317 1.370 . S
N314 C312 1.348 . S
N314 C316 1.346 . S
C315 C312 1.485 . S
C315 H319 0.960 . S
C315 H320 0.961 . S
C315 H321 0.960 . S
C316 N314 1.346 . S
C316 N317 1.307 . S
C316 C318 1.486 . S
N317 N313 1.370 . S
N317 C316 1.307 . S
C318 C316 1.486 . S
C318 H322 0.960 . S
C318 H323 0.960 . S
C318 H324 0.959 . S
H319 C315 0.960 . S
H320 C315 0.961 . S
H321 C315 0.960 . S
H322 C318 0.960 . S
H323 C318 0.960 . S
H324 C318 0.959 . S
C325 N326 1.317 . S
C325 N327 1.348 . S
C325 C328 1.485 . S
N326 C325 1.317 . S
N326 N330 1.370 . S
N327 C325 1.348 . S
N327 C329 1.346 . S
C328 C325 1.485 . S
C328 H332 0.960 . S
C328 H333 0.961 . S
C328 H334 0.960 . S
C329 N327 1.346 . S
C329 N330 1.307 . S
C329 C331 1.486 . S
N330 N326 1.370 . S
N330 C329 1.307 . S
C331 C329 1.486 . S
C331 H335 0.960 . S
C331 H336 0.960 . S
C331 H337 0.959 . S
H332 C328 0.960 . S
H333 C328 0.961 . S
H334 C328 0.960 . S
H335 C331 0.960 . S
H336 C331 0.960 . S
H337 C331 0.959 . S
C338 N339 1.317 . S
C338 N340 1.348 . S
C338 C341 1.485 . S
N339 C338 1.317 . S
N339 N343 1.370 . S
N340 C338 1.348 . S
N340 C342 1.346 . S
C341 C338 1.485 . S
C341 H345 0.960 . S
C341 H346 0.961 . S
C341 H347 0.960 . S
C342 N340 1.346 . S
C342 N343 1.307 . S
C342 C344 1.486 . S
N343 N339 1.370 . S
N343 C342 1.307 . S
C344 C342 1.486 . S
C344 H348 0.960 . S
C344 H349 0.960 . S
C344 H350 0.959 . S
H345 C341 0.960 . S
H346 C341 0.961 . S
H347 C341 0.960 . S
H348 C344 0.960 . S
H349 C344 0.960 . S
H350 C344 0.959 . S
C351 N352 1.317 . S
C351 N353 1.348 . S
C351 C354 1.485 . S
N352 C351 1.317 . S
N352 N356 1.370 . S
N353 C351 1.348 . S
N353 C355 1.346 . S
C354 C351 1.485 . S
C354 H358 0.960 . S
C354 H359 0.961 . S
C354 H360 0.960 . S
C355 N353 1.346 . S
C355 N356 1.307 . S
C355 C357 1.486 . S
N356 N352 1.370 . S
N356 C355 1.307 . S
C357 C355 1.486 . S
C357 H361 0.960 . S
C357 H362 0.960 . S
C357 H363 0.959 . S
H358 C354 0.960 . S
H359 C354 0.961 . S
H360 C354 0.960 . S
H361 C357 0.960 . S
H362 C357 0.960 . S
H363 C357 0.959 . S
C364 N365 1.317 . S
C364 N366 1.348 . S
C364 C367 1.485 . S
N365 C364 1.317 . S
N365 N369 1.370 . S
N366 C364 1.348 . S
N366 C368 1.346 . S
C367 C364 1.485 . S
C367 H371 0.960 . S
C367 H372 0.961 . S
C367 H373 0.960 . S
C368 N366 1.346 . S
C368 N369 1.307 . S
C368 C370 1.486 . S
N369 N365 1.370 . S
N369 C368 1.307 . S
C370 C368 1.486 . S
C370 H374 0.960 . S
C370 H375 0.960 . S
C370 H376 0.959 . S
H371 C367 0.960 . S
H372 C367 0.961 . S
H373 C367 0.960 . S
H374 C370 0.960 . S
H375 C370 0.960 . S
H376 C370 0.959 . S
C377 N378 1.317 . S
C377 N379 1.348 . S
C377 C380 1.485 . S
N378 C377 1.317 . S
N378 N382 1.370 . S
N379 C377 1.348 . S
N379 C381 1.346 . S
C380 C377 1.485 . S
C380 H384 0.960 . S
C380 H385 0.961 . S
C380 H386 0.960 . S
C381 N379 1.346 . S
C381 N382 1.307 . S
C381 C383 1.486 . S
N382 N378 1.370 . S
N382 C381 1.307 . S
C383 C381 1.486 . S
C383 H387 0.960 . S
C383 H388 0.960 . S
C383 H389 0.959 . S
H384 C380 0.960 . S
H385 C380 0.961 . S
H386 C380 0.960 . S
H387 C383 0.960 . S
H388 C383 0.960 . S
H389 C383 0.959 . S
C390 N391 1.317 . S
C390 N392 1.348 . S
C390 C393 1.485 . S
N391 C390 1.317 . S
N391 N395 1.370 . S
N392 C390 1.348 . S
N392 C394 1.346 . S
C393 C390 1.485 . S
C393 H397 0.960 . S
C393 H398 0.961 . S
C393 H399 0.960 . S
C394 N392 1.346 . S
C394 N395 1.307 . S
C394 C396 1.486 . S
N395 N391 1.370 . S
N395 C394 1.307 . S
C396 C394 1.486 . S
C396 H400 0.960 . S
C396 H401 0.960 . S
C396 H402 0.959 . S
H397 C393 0.960 . S
H398 C393 0.961 . S
H399 C393 0.960 . S
H400 C396 0.960 . S
H401 C396 0.960 . S
H402 C396 0.959 . S
C403 N404 1.317 . S
C403 N405 1.348 . S
C403 C406 1.485 . S
N404 C403 1.317 . S
N404 N408 1.370 . S
N405 C403 1.348 . S
N405 C407 1.346 . S
C406 C403 1.485 . S
C406 H410 0.960 . S
C406 H411 0.961 . S
C406 H412 0.960 . S
C407 N405 1.346 . S
C407 N408 1.307 . S
C407 C409 1.486 . S
N408 N404 1.370 . S
N408 C407 1.307 . S
C409 C407 1.486 . S
C409 H413 0.960 . S
C409 H414 0.960 . S
C409 H415 0.959 . S
H410 C406 0.960 . S
H411 C406 0.961 . S
H412 C406 0.960 . S
H413 C409 0.960 . S
H414 C409 0.960 . S
H415 C409 0.959 . S
Cu416 N417 1.999 . S
Cu416 O422 1.974 1_554 S
Cu416 N427 1.985 . S
Cu416 O436 1.959 . S
N417 Cu416 1.999 . S
N417 C419 1.263 1_554 S
N417 C421 1.389 . S
N418 C419 1.358 . S
N418 C420 1.400 . S
C419 N417 1.263 1_556 S
C419 N418 1.358 . S
C419 H425 0.930 . S
C420 N418 1.400 . S
C420 C421 1.351 1_556 S
C420 H437 0.930 . S
C421 N417 1.389 . S
C421 C420 1.351 1_554 S
C421 H426 0.930 . S
O422 Cu416 1.974 1_556 S
O422 C432 1.282 . S
C423 O424 1.261 . S
C423 O436 1.251 . S
O424 C423 1.261 . S
H425 C419 0.930 . S
H426 C421 0.930 . S
N427 Cu416 1.985 . S
N427 C429 1.335 . S
N427 C430 1.390 . S
N428 C429 1.345 . S
N428 C431 1.336 . S
C429 N427 1.335 . S
C429 N428 1.345 . S
C429 H434 0.930 . S
C430 N427 1.390 . S
C430 C431 1.346 . S
C430 H435 0.930 . S
C431 N428 1.336 . S
C431 C430 1.346 . S
C431 H438 0.929 . S
C432 O422 1.282 . S
C432 O433 1.216 . S
O433 C432 1.216 . S
H434 C429 0.930 . S
H435 C430 0.930 . S
O436 Cu416 1.959 . S
O436 C423 1.251 . S
H437 C420 0.930 . S
H438 C431 0.929 . S
Cu439 N440 1.999 . S
Cu439 O445 1.974 . S
Cu439 N450 1.985 1_554 S
Cu439 O459 1.959 1_554 S
N440 Cu439 1.999 . S
N440 C442 1.263 . S
N440 C444 1.389 . S
N441 C442 1.358 . S
N441 C443 1.400 . S
C442 N440 1.263 . S
C442 N441 1.358 . S
C442 H448 0.930 . S
C443 N441 1.400 . S
C443 C444 1.351 . S
C443 H460 0.930 . S
C444 N440 1.389 . S
C444 C443 1.351 . S
C444 H449 0.930 . S
O445 Cu439 1.974 . S
O445 C455 1.282 . S
C446 O447 1.261 . S
C446 O459 1.251 . S
O447 C446 1.261 . S
H448 C442 0.930 . S
H449 C444 0.930 . S
N450 Cu439 1.985 1_556 S
N450 C452 1.335 . S
N450 C453 1.390 1_556 S
N451 C452 1.345 . S
N451 C454 1.336 . S
C452 N450 1.335 . S
C452 N451 1.345 . S
C452 H457 0.930 . S
C453 N450 1.390 1_554 S
C453 C454 1.346 1_554 S
C453 H458 0.930 . S
C454 N451 1.336 . S
C454 C453 1.346 1_556 S
C454 H461 0.929 . S
C455 O445 1.282 . S
C455 O456 1.216 . S
O456 C455 1.216 . S
H457 C452 0.930 . S
H458 C453 0.930 . S
O459 Cu439 1.959 1_556 S
O459 C446 1.251 . S
H460 C443 0.930 . S
H461 C454 0.929 . S
Cu462 N463 1.999 1_554 S
Cu462 O468 1.974 1_554 S
Cu462 N473 1.985 . S
Cu462 O482 1.959 . S
N463 Cu462 1.999 1_556 S
N463 C465 1.263 . S
N463 C467 1.389 . S
N464 C465 1.358 . S
N464 C466 1.400 . S
C465 N463 1.263 . S
C465 N464 1.358 . S
C465 H471 0.930 . S
C466 N464 1.400 . S
C466 C467 1.351 . S
C466 H483 0.930 . S
C467 N463 1.389 . S
C467 C466 1.351 . S
C467 H472 0.930 1_556 S
O468 Cu462 1.974 1_556 S
O468 C478 1.282 . S
C469 O470 1.261 . S
C469 O482 1.251 . S
O470 C469 1.261 . S
H471 C465 0.930 . S
H472 C467 0.930 1_554 S
N473 Cu462 1.985 . S
N473 C475 1.335 . S
N473 C476 1.390 . S
N474 C475 1.345 . S
N474 C477 1.336 . S
C475 N473 1.335 . S
C475 N474 1.345 . S
C475 H480 0.930 . S
C476 N473 1.390 . S
C476 C477 1.346 . S
C476 H481 0.930 . S
C477 N474 1.336 . S
C477 C476 1.346 . S
C477 H484 0.929 . S
C478 O468 1.282 . S
C478 O479 1.216 . S
O479 C478 1.216 . S
H480 C475 0.930 . S
H481 C476 0.930 . S
O482 Cu462 1.959 . S
O482 C469 1.251 . S
H483 C466 0.930 . S
H484 C477 0.929 . S
Cu485 N486 1.999 . S
Cu485 O491 1.974 . S
Cu485 N496 1.985 1_554 S
Cu485 O505 1.959 1_554 S
N486 Cu485 1.999 . S
N486 C488 1.263 . S
N486 C490 1.389 . S
N487 C488 1.358 . S
N487 C489 1.400 . S
C488 N486 1.263 . S
C488 N487 1.358 . S
C488 H494 0.930 . S
C489 N487 1.400 . S
C489 C490 1.351 . S
C489 H506 0.930 . S
C490 N486 1.389 . S
C490 C489 1.351 . S
C490 H495 0.930 . S
O491 Cu485 1.974 . S
O491 C501 1.282 . S
C492 O493 1.261 . S
C492 O505 1.251 . S
O493 C492 1.261 . S
H494 C488 0.930 . S
H495 C490 0.930 . S
N496 Cu485 1.985 1_556 S
N496 C498 1.335 . S
N496 C499 1.390 . S
N497 C498 1.345 . S
N497 C500 1.336 . S
C498 N496 1.335 . S
C498 N497 1.345 . S
C498 H503 0.930 . S
C499 N496 1.390 . S
C499 C500 1.346 . S
C499 H504 0.930 1_556 S
C500 N497 1.336 . S
C500 C499 1.346 . S
C500 H507 0.929 . S
C501 O491 1.282 . S
C501 O502 1.216 . S
O502 C501 1.216 . S
H503 C498 0.930 . S
H504 C499 0.930 1_554 S
O505 Cu485 1.959 1_556 S
O505 C492 1.251 . S
H506 C489 0.930 . S
H507 C500 0.929 . S
Cu508 N509 1.999 . S
Cu508 O514 1.974 . S
Cu508 N519 1.985 1_455 S
Cu508 O528 1.959 1_455 S
N509 Cu508 1.999 . S
N509 C511 1.263 . S
N509 C513 1.389 . S
N510 C511 1.358 . S
N510 C512 1.400 . S
C511 N509 1.263 . S
C511 N510 1.358 . S
C511 H517 0.930 . S
C512 N510 1.400 . S
C512 C513 1.351 . S
C512 H529 0.930 . S
C513 N509 1.389 . S
C513 C512 1.351 . S
C513 H518 0.930 . S
O514 Cu508 1.974 . S
O514 C524 1.282 . S
C515 O516 1.261 . S
C515 O528 1.251 . S
O516 C515 1.261 . S
H517 C511 0.930 . S
H518 C513 0.930 . S
N519 Cu508 1.985 1_655 S
N519 C521 1.335 . S
N519 C522 1.390 1_655 S
N520 C521 1.345 . S
N520 C523 1.336 . S
C521 N519 1.335 . S
C521 N520 1.345 . S
C521 H526 0.930 . S
C522 N519 1.390 1_455 S
C522 C523 1.346 1_455 S
C522 H527 0.930 . S
C523 N520 1.336 . S
C523 C522 1.346 1_655 S
C523 H530 0.929 . S
C524 O514 1.282 . S
C524 O525 1.216 . S
O525 C524 1.216 . S
H526 C521 0.930 . S
H527 C522 0.930 . S
O528 Cu508 1.959 1_655 S
O528 C515 1.251 . S
H529 C512 0.930 . S
H530 C523 0.929 . S
Cu531 N532 2.040 . S
Cu531 O537 2.020 . S
Cu531 N542 1.947 1_545 S
Cu531 O551 1.914 1_545 S
N532 Cu531 2.040 . S
N532 C534 1.263 . S
N532 C536 1.389 . S
N533 C534 1.358 . S
N533 C535 1.400 . S
C534 N532 1.263 . S
C534 N533 1.358 . S
C534 H540 0.930 . S
C535 N533 1.400 . S
C535 C536 1.351 . S
C535 H552 0.930 . S
C536 N532 1.389 . S
C536 C535 1.351 . S
C536 H541 0.930 . S
O537 Cu531 2.020 . S
O537 C547 1.282 . S
C538 O539 1.261 . S
C538 O551 1.251 . S
O539 C538 1.261 . S
H540 C534 0.930 . S
H541 C536 0.930 . S
N542 Cu531 1.947 1_565 S
N542 C544 1.335 . S
N542 C545 1.390 . S
N543 C544 1.345 . S
N543 C546 1.336 . S
C544 N542 1.335 . S
C544 N543 1.345 . S
C544 H549 0.930 . S
C545 N542 1.390 . S
C545 C546 1.346 . S
C545 H550 0.930 . S
C546 N543 1.336 . S
C546 C545 1.346 . S
C546 H553 0.929 . S
C547 O537 1.282 . S
C547 O548 1.216 . S
O548 C547 1.216 . S
H549 C544 0.930 . S
H550 C545 0.930 . S
O551 Cu531 1.914 1_565 S
O551 C538 1.251 . S
H552 C535 0.930 . S
H553 C546 0.929 . S
Cu554 N555 1.999 1_455 S
Cu554 O560 1.974 1_455 S
Cu554 N565 1.985 . S
Cu554 O574 1.959 . S
N555 Cu554 1.999 1_655 S
N555 C557 1.263 . S
N555 C559 1.389 . S
N556 C557 1.358 . S
N556 C558 1.400 . S
C557 N555 1.263 . S
C557 N556 1.358 . S
C557 H563 0.930 . S
C558 N556 1.400 . S
C558 C559 1.351 . S
C558 H575 0.930 . S
C559 N555 1.389 . S
C559 C558 1.351 . S
C559 H564 0.930 1_655 S
O560 Cu554 1.974 1_655 S
O560 C570 1.282 . S
C561 O562 1.261 . S
C561 O574 1.251 . S
O562 C561 1.261 . S
H563 C557 0.930 . S
H564 C559 0.930 1_455 S
N565 Cu554 1.985 . S
N565 C567 1.335 . S
N565 C568 1.390 . S
N566 C567 1.345 . S
N566 C569 1.336 . S
C567 N565 1.335 . S
C567 N566 1.345 . S
C567 H572 0.930 . S
C568 N565 1.390 . S
C568 C569 1.346 . S
C568 H573 0.930 . S
C569 N566 1.336 . S
C569 C568 1.346 . S
C569 H576 0.929 . S
C570 O560 1.282 . S
C570 O571 1.216 . S
O571 C570 1.216 . S
H572 C567 0.930 . S
H573 C568 0.930 . S
O574 Cu554 1.959 . S
O574 C561 1.251 . S
H575 C558 0.930 . S
H576 C569 0.929 . S
Cu577 N578 1.999 . S
Cu577 O583 1.974 . S
Cu577 N588 1.985 . S
Cu577 O597 1.956 . S
N578 Cu577 1.999 . S
N578 C580 1.263 . S
N578 C582 1.389 . S
N579 C580 1.358 . S
N579 C581 1.400 . S
C580 N578 1.263 . S
C580 N579 1.358 . S
C580 H586 0.930 . S
C581 N579 1.400 . S
C581 C582 1.351 . S
C581 H598 0.930 . S
C582 N578 1.389 . S
C582 C581 1.351 . S
C582 H587 0.930 . S
O583 Cu577 1.974 . S
O583 C593 1.282 . S
C584 O585 1.261 . S
C584 O597 1.253 1_565 S
O585 C584 1.261 . S
H586 C580 0.930 . S
H587 C582 0.930 . S
N588 Cu577 1.985 . S
N588 C590 1.335 1_545 S
N588 C591 1.390 . S
N589 C590 1.345 . S
N589 C592 1.336 . S
C590 N588 1.335 1_565 S
C590 N589 1.345 . S
C590 H595 0.930 . S
C591 N588 1.390 . S
C591 C592 1.346 1_545 S
C591 H596 0.930 . S
C592 N589 1.336 . S
C592 C591 1.346 1_565 S
C592 H599 0.929 . S
C593 O583 1.282 . S
C593 O594 1.216 . S
O594 C593 1.216 . S
H595 C590 0.930 . S
H596 C591 0.930 . S
O597 Cu577 1.956 . S
O597 C584 1.253 1_545 S
H598 C581 0.930 . S
H599 C592 0.929 . S
Cu600 N601 1.999 . S
Cu600 O606 1.974 . S
Cu600 N611 1.985 1_455 S
Cu600 O620 1.959 1_455 S
N601 Cu600 1.999 . S
N601 C603 1.263 . S
N601 C605 1.389 . S
N602 C603 1.358 . S
N602 C604 1.400 . S
C603 N601 1.263 . S
C603 N602 1.358 . S
C603 H609 0.930 . S
C604 N602 1.400 . S
C604 C605 1.351 . S
C604 H621 0.930 . S
C605 N601 1.389 . S
C605 C604 1.351 . S
C605 H610 0.930 . S
O606 Cu600 1.974 . S
O606 C616 1.282 . S
C607 O608 1.261 . S
C607 O620 1.251 . S
O608 C607 1.261 . S
H609 C603 0.930 . S
H610 C605 0.930 . S
N611 Cu600 1.985 1_655 S
N611 C613 1.335 . S
N611 C614 1.384 1_655 S
N612 C613 1.345 . S
N612 C615 1.336 . S
C613 N611 1.335 . S
C613 N612 1.345 . S
C613 H618 0.930 . S
C614 N611 1.384 1_455 S
C614 C615 1.320 1_455 S
C614 H619 0.958 . S
C615 N612 1.336 . S
C615 C614 1.320 1_655 S
C615 H622 0.929 . S
C616 O606 1.282 . S
C616 O617 1.216 . S
O617 C616 1.216 . S
H618 C613 0.930 . S
H619 C614 0.958 . S
O620 Cu600 1.959 1_655 S
O620 C607 1.251 . S
H621 C604 0.930 . S
H622 C615 0.929 . S
Cu623 N624 1.999 . S
Cu623 O629 1.974 . S
Cu623 N634 1.985 1_545 S
Cu623 O643 1.959 1_545 S
N624 Cu623 1.999 . S
N624 C626 1.263 . S
N624 C628 1.389 . S
N625 C626 1.358 . S
N625 C627 1.400 . S
C626 N624 1.263 . S
C626 N625 1.358 . S
C626 H632 0.930 . S
C627 N625 1.400 . S
C627 C628 1.351 . S
C627 H644 0.930 . S
C628 N624 1.389 . S
C628 C627 1.351 . S
C628 H633 0.930 . S
O629 Cu623 1.974 . S
O629 C639 1.282 . S
C630 O631 1.261 . S
C630 O643 1.251 . S
O631 C630 1.261 . S
H632 C626 0.930 . S
H633 C628 0.930 . S
N634 Cu623 1.985 1_565 S
N634 C636 1.335 . S
N634 C637 1.390 . S
N635 C636 1.345 . S
N635 C638 1.336 . S
C636 N634 1.335 . S
C636 N635 1.345 . S
C636 H641 0.930 . S
C637 N634 1.390 . S
C637 C638 1.346 . S
C637 H642 0.926 1_565 S
C638 N635 1.336 . S
C638 C637 1.346 . S
C638 H645 0.929 . S
C639 O629 1.282 . S
C639 O640 1.216 . S
O640 C639 1.216 . S
H641 C636 0.930 . S
H642 C637 0.926 1_545 S
O643 Cu623 1.959 1_565 S
O643 C630 1.251 . S
H644 C627 0.930 . S
H645 C638 0.929 . S
Cu646 N647 1.999 . S
Cu646 O652 1.974 . S
Cu646 N657 1.985 . S
Cu646 O666 1.959 . S
N647 Cu646 1.999 . S
N647 C649 1.263 . S
N647 C651 1.389 . S
N648 C649 1.358 1_655 S
N648 C650 1.400 1_655 S
C649 N647 1.263 . S
C649 N648 1.358 1_455 S
C649 H655 0.930 . S
C650 N648 1.400 1_455 S
C650 C651 1.351 . S
C650 H667 0.930 . S
C651 N647 1.389 . S
C651 C650 1.351 . S
C651 H656 0.930 . S
O652 Cu646 1.974 . S
O652 C662 1.282 . S
C653 O654 1.261 . S
C653 O666 1.251 . S
O654 C653 1.261 . S
H655 C649 0.930 . S
H656 C651 0.930 . S
N657 Cu646 1.985 . S
N657 C659 1.335 . S
N657 C660 1.390 . S
N658 C659 1.345 . S
N658 C661 1.336 . S
C659 N657 1.335 . S
C659 N658 1.345 . S
C659 H664 0.930 . S
C660 N657 1.390 . S
C660 C661 1.346 . S
C660 H665 0.930 . S
C661 N658 1.336 . S
C661 C660 1.346 . S
C661 H668 0.929 . S
C662 O652 1.282 . S
C662 O663 1.216 . S
O663 C662 1.216 . S
H664 C659 0.930 . S
H665 C660 0.930 . S
O666 Cu646 1.959 . S
O666 C653 1.251 . S
H667 C650 0.930 . S
H668 C661 0.929 . S
Cu669 N670 1.999 . S
Cu669 O675 1.974 . S
Cu669 N680 1.985 . S
Cu669 O689 1.959 . S
N670 Cu669 1.999 . S
N670 C672 1.263 . S
N670 C674 1.389 . S
N671 C672 1.358 . S
N671 C673 1.400 . S
C672 N670 1.263 . S
C672 N671 1.358 . S
C672 H678 0.930 . S
C673 N671 1.400 . S
C673 C674 1.351 . S
C673 H690 0.930 . S
C674 N670 1.389 . S
C674 C673 1.351 . S
C674 H679 0.930 . S
O675 Cu669 1.974 . S
O675 C685 1.282 . S
C676 O677 1.261 . S
C676 O689 1.251 . S
O677 C676 1.261 . S
H678 C672 0.930 . S
H679 C674 0.930 . S
N680 Cu669 1.985 . S
N680 C682 1.335 . S
N680 C683 1.390 . S
N681 C682 1.345 1_565 S
N681 C684 1.336 1_565 S
C682 N680 1.335 . S
C682 N681 1.345 1_545 S
C682 H687 0.930 1_545 S
C683 N680 1.390 . S
C683 C684 1.346 . S
C683 H688 0.930 . S
C684 N681 1.336 1_545 S
C684 C683 1.346 . S
C684 H691 0.929 . S
C685 O675 1.282 . S
C685 O686 1.216 . S
O686 C685 1.216 . S
H687 C682 0.930 1_565 S
H688 C683 0.930 . S
O689 Cu669 1.959 . S
O689 C676 1.251 . S
H690 C673 0.930 . S
H691 C684 0.929 . S
Cu692 N693 1.999 . S
Cu692 O698 1.974 . S
Cu692 N703 1.985 . S
Cu692 O712 1.959 . S
N693 Cu692 1.999 . S
N693 C695 1.263 . S
N693 C697 1.389 . S
N694 C695 1.358 . S
N694 C696 1.400 . S
C695 N693 1.263 . S
C695 N694 1.358 . S
C695 H701 0.930 . S
C696 N694 1.400 . S
C696 C697 1.351 . S
C696 H713 0.930 . S
C697 N693 1.389 . S
C697 C696 1.351 . S
C697 H702 0.930 . S
O698 Cu692 1.974 . S
O698 C708 1.282 . S
C699 O700 1.261 . S
C699 O712 1.251 . S
O700 C699 1.261 . S
H701 C695 0.930 . S
H702 C697 0.930 . S
N703 Cu692 1.985 . S
N703 C705 1.335 . S
N703 C706 1.390 . S
N704 C705 1.345 . S
N704 C707 1.336 . S
C705 N703 1.335 . S
C705 N704 1.345 . S
C705 H710 0.930 . S
C706 N703 1.390 . S
C706 C707 1.346 . S
C706 H711 0.930 . S
C707 N704 1.336 . S
C707 C706 1.346 . S
C707 H714 0.929 . S
C708 O698 1.282 . S
C708 O709 1.216 . S
O709 C708 1.216 . S
H710 C705 0.930 . S
H711 C706 0.930 . S
O712 Cu692 1.959 . S
O712 C699 1.251 . S
H713 C696 0.930 . S
H714 C707 0.929 . S
Cu715 N716 1.999 . S
Cu715 O721 1.974 . S
Cu715 N726 1.985 . S
Cu715 O735 1.959 . S
N716 Cu715 1.999 . S
N716 C718 1.263 . S
N716 C720 1.389 . S
N717 C718 1.358 . S
N717 C719 1.400 . S
C718 N716 1.263 . S
C718 N717 1.358 . S
C718 H724 0.930 . S
C719 N717 1.400 . S
C719 C720 1.351 . S
C719 H736 0.930 . S
C720 N716 1.389 . S
C720 C719 1.351 . S
C720 H725 0.930 . S
O721 Cu715 1.974 . S
O721 C731 1.282 . S
C722 O723 1.261 . S
C722 O735 1.251 . S
O723 C722 1.261 . S
H724 C718 0.930 . S
H725 C720 0.930 . S
N726 Cu715 1.985 . S
N726 C728 1.335 . S
N726 C729 1.390 . S
N727 C728 1.345 . S
N727 C730 1.336 . S
C728 N726 1.335 . S
C728 N727 1.345 . S
C728 H733 0.930 . S
C729 N726 1.390 . S
C729 C730 1.346 . S
C729 H734 0.930 . S
C730 N727 1.336 . S
C730 C729 1.346 . S
C730 H737 0.929 . S
C731 O721 1.282 . S
C731 O732 1.216 . S
O732 C731 1.216 . S
H733 C728 0.930 . S
H734 C729 0.930 . S
O735 Cu715 1.959 . S
O735 C722 1.251 . S
H736 C719 0.930 . S
H737 C730 0.929 . S
Cu738 N739 1.999 . S
Cu738 O744 1.974 . S
Cu738 N749 1.985 . S
Cu738 O758 1.959 . S
N739 Cu738 1.999 . S
N739 C741 1.263 . S
N739 C743 1.389 . S
N740 C741 1.358 . S
N740 C742 1.400 . S
C741 N739 1.263 . S
C741 N740 1.358 . S
C741 H747 0.930 . S
C742 N740 1.400 . S
C742 C743 1.351 . S
C742 H759 0.930 . S
C743 N739 1.389 . S
C743 C742 1.351 . S
C743 H748 0.930 . S
O744 Cu738 1.974 . S
O744 C754 1.282 . S
C745 O746 1.261 . S
C745 O758 1.251 . S
O746 C745 1.261 . S
H747 C741 0.930 . S
H748 C743 0.930 . S
N749 Cu738 1.985 . S
N749 C751 1.335 . S
N749 C752 1.390 . S
N750 C751 1.345 . S
N750 C753 1.336 . S
C751 N749 1.335 . S
C751 N750 1.345 . S
C751 H756 0.930 . S
C752 N749 1.390 . S
C752 C753 1.346 . S
C752 H757 0.930 . S
C753 N750 1.336 . S
C753 C752 1.346 . S
C753 H760 0.929 . S
C754 O744 1.282 . S
C754 O755 1.216 . S
O755 C754 1.216 . S
H756 C751 0.930 . S
H757 C752 0.930 . S
O758 Cu738 1.959 . S
O758 C745 1.251 . S
H759 C742 0.930 . S
H760 C753 0.929 . S
Cu761 N762 1.999 . S
Cu761 O767 1.974 . S
Cu761 N772 1.985 . S
Cu761 O781 1.959 . S
N762 Cu761 1.999 . S
N762 C764 1.263 . S
N762 C766 1.389 . S
N763 C764 1.358 . S
N763 C765 1.400 . S
C764 N762 1.263 . S
C764 N763 1.358 . S
C764 H770 0.930 . S
C765 N763 1.400 . S
C765 C766 1.351 . S
C765 H782 0.930 . S
C766 N762 1.389 . S
C766 C765 1.351 . S
C766 H771 0.930 . S
O767 Cu761 1.974 . S
O767 C777 1.282 . S
C768 O769 1.261 . S
C768 O781 1.251 . S
O769 C768 1.261 . S
H770 C764 0.930 . S
H771 C766 0.930 . S
N772 Cu761 1.985 . S
N772 C774 1.335 . S
N772 C775 1.390 . S
N773 C774 1.345 . S
N773 C776 1.336 . S
C774 N772 1.335 . S
C774 N773 1.345 . S
C774 H779 0.930 . S
C775 N772 1.390 . S
C775 C776 1.346 . S
C775 H780 0.930 . S
C776 N773 1.336 . S
C776 C775 1.346 . S
C776 H783 0.929 . S
C777 O767 1.282 . S
C777 O778 1.216 . S
O778 C777 1.216 . S
H779 C774 0.930 . S
H780 C775 0.930 . S
O781 Cu761 1.959 . S
O781 C768 1.251 . S
H782 C765 0.930 . S
H783 C776 0.929 . S
Cu784 N785 1.999 . S
Cu784 O790 1.974 . S
Cu784 N795 1.985 . S
Cu784 O804 1.959 . S
N785 Cu784 1.999 . S
N785 C787 1.263 . S
N785 C789 1.389 . S
N786 C787 1.358 . S
N786 C788 1.400 . S
C787 N785 1.263 . S
C787 N786 1.358 . S
C787 H793 0.930 . S
C788 N786 1.400 . S
C788 C789 1.351 . S
C788 H805 0.930 . S
C789 N785 1.389 . S
C789 C788 1.351 . S
C789 H794 0.930 . S
O790 Cu784 1.974 . S
O790 C800 1.282 . S
C791 O792 1.261 . S
C791 O804 1.251 . S
O792 C791 1.261 . S
H793 C787 0.930 . S
H794 C789 0.930 . S
N795 Cu784 1.985 . S
N795 C797 1.335 . S
N795 C798 1.390 . S
N796 C797 1.345 . S
N796 C799 1.336 . S
C797 N795 1.335 . S
C797 N796 1.345 . S
C797 H802 0.930 . S
C798 N795 1.390 . S
C798 C799 1.346 . S
C798 H803 0.930 . S
C799 N796 1.336 . S
C799 C798 1.346 . S
C799 H806 0.929 . S
C800 O790 1.282 . S
C800 O801 1.216 . S
O801 C800 1.216 . S
H802 C797 0.930 . S
H803 C798 0.930 . S
O804 Cu784 1.959 . S
O804 C791 1.251 . S
H805 C788 0.930 . S
H806 C799 0.929 . S
Cu807 N808 1.999 . S
Cu807 O813 1.974 . S
Cu807 N818 1.985 . S
Cu807 O827 1.959 . S
N808 Cu807 1.999 . S
N808 C810 1.263 . S
N808 C812 1.389 . S
N809 C810 1.358 . S
N809 C811 1.400 . S
C810 N808 1.263 . S
C810 N809 1.358 . S
C810 H816 0.930 . S
C811 N809 1.400 . S
C811 C812 1.351 . S
C811 H828 0.930 . S
C812 N808 1.389 . S
C812 C811 1.351 . S
C812 H817 0.930 . S
O813 Cu807 1.974 . S
O813 C823 1.282 . S
C814 O815 1.261 . S
C814 O827 1.251 . S
O815 C814 1.261 . S
H816 C810 0.930 . S
H817 C812 0.930 . S
N818 Cu807 1.985 . S
N818 C820 1.335 . S
N818 C821 1.390 . S
N819 C820 1.345 . S
N819 C822 1.336 . S
C820 N818 1.335 . S
C820 N819 1.345 . S
C820 H825 0.930 . S
C821 N818 1.390 . S
C821 C822 1.346 . S
C821 H826 0.930 . S
C822 N819 1.336 . S
C822 C821 1.346 . S
C822 H829 0.929 . S
C823 O813 1.282 . S
C823 O824 1.216 . S
O824 C823 1.216 . S
H825 C820 0.930 . S
H826 C821 0.930 . S
O827 Cu807 1.959 . S
O827 C814 1.251 . S
H828 C811 0.930 . S
H829 C822 0.929 . S
Cu830 N831 1.999 . S
Cu830 O836 1.974 . S
Cu830 N841 1.985 . S
Cu830 O850 1.959 . S
N831 Cu830 1.999 . S
N831 C833 1.263 . S
N831 C835 1.389 . S
N832 C833 1.358 . S
N832 C834 1.400 . S
C833 N831 1.263 . S
C833 N832 1.358 . S
C833 H839 0.930 . S
C834 N832 1.400 . S
C834 C835 1.351 . S
C834 H851 0.930 . S
C835 N831 1.389 . S
C835 C834 1.351 . S
C835 H840 0.930 . S
O836 Cu830 1.974 . S
O836 C846 1.282 . S
C837 O838 1.261 . S
C837 O850 1.251 . S
O838 C837 1.261 . S
H839 C833 0.930 . S
H840 C835 0.930 . S
N841 Cu830 1.985 . S
N841 C843 1.335 . S
N841 C844 1.390 . S
N842 C843 1.345 . S
N842 C845 1.336 . S
C843 N841 1.335 . S
C843 N842 1.345 . S
C843 H848 0.930 . S
C844 N841 1.390 . S
C844 C845 1.346 . S
C844 H849 0.930 . S
C845 N842 1.336 . S
C845 C844 1.346 . S
C845 H852 0.929 . S
C846 O836 1.282 . S
C846 O847 1.216 . S
O847 C846 1.216 . S
H848 C843 0.930 . S
H849 C844 0.930 . S
O850 Cu830 1.959 . S
O850 C837 1.251 . S
H851 C834 0.930 . S
H852 C845 0.929 . S
Cu853 N854 1.999 . S
Cu853 O859 1.974 . S
Cu853 N864 1.985 . S
Cu853 O873 1.959 . S
N854 Cu853 1.999 . S
N854 C856 1.263 . S
N854 C858 1.389 . S
N855 C856 1.358 . S
N855 C857 1.400 . S
C856 N854 1.263 . S
C856 N855 1.358 . S
C856 H862 0.930 . S
C857 N855 1.400 . S
C857 C858 1.351 . S
C857 H874 0.930 . S
C858 N854 1.389 . S
C858 C857 1.351 . S
C858 H863 0.930 . S
O859 Cu853 1.974 . S
O859 C869 1.282 . S
C860 O861 1.261 . S
C860 O873 1.251 . S
O861 C860 1.261 . S
H862 C856 0.930 . S
H863 C858 0.930 . S
N864 Cu853 1.985 . S
N864 C866 1.335 . S
N864 C867 1.390 . S
N865 C866 1.345 . S
N865 C868 1.336 . S
C866 N864 1.335 . S
C866 N865 1.345 . S
C866 H871 0.930 . S
C867 N864 1.390 . S
C867 C868 1.346 . S
C867 H872 0.930 . S
C868 N865 1.336 . S
C868 C867 1.346 . S
C868 H875 0.929 . S
C869 O859 1.282 . S
C869 O870 1.216 . S
O870 C869 1.216 . S
H871 C866 0.930 . S
H872 C867 0.930 . S
O873 Cu853 1.959 . S
O873 C860 1.251 . S
H874 C857 0.930 . S
H875 C868 0.929 . S
Cu876 N877 1.999 . S
Cu876 O882 1.974 . S
Cu876 N887 1.985 . S
Cu876 O896 1.959 . S
N877 Cu876 1.999 . S
N877 C879 1.263 . S
N877 C881 1.389 . S
N878 C879 1.358 . S
N878 C880 1.400 . S
C879 N877 1.263 . S
C879 N878 1.358 . S
C879 H885 0.930 . S
C880 N878 1.400 . S
C880 C881 1.351 . S
C880 H897 0.930 . S
C881 N877 1.389 . S
C881 C880 1.351 . S
C881 H886 0.930 . S
O882 Cu876 1.974 . S
O882 C892 1.282 . S
C883 O884 1.261 . S
C883 O896 1.251 . S
O884 C883 1.261 . S
H885 C879 0.930 . S
H886 C881 0.930 . S
N887 Cu876 1.985 . S
N887 C889 1.335 . S
N887 C890 1.390 . S
N888 C889 1.345 . S
N888 C891 1.336 . S
C889 N887 1.335 . S
C889 N888 1.345 . S
C889 H894 0.930 . S
C890 N887 1.390 . S
C890 C891 1.346 . S
C890 H895 0.930 . S
C891 N888 1.336 . S
C891 C890 1.346 . S
C891 H898 0.929 . S
C892 O882 1.282 . S
C892 O893 1.216 . S
O893 C892 1.216 . S
H894 C889 0.930 . S
H895 C890 0.930 . S
O896 Cu876 1.959 . S
O896 C883 1.251 . S
H897 C880 0.930 . S
H898 C891 0.929 . S
Cu899 N900 1.999 . S
Cu899 O905 1.974 . S
Cu899 N910 1.985 . S
Cu899 O919 1.959 . S
N900 Cu899 1.999 . S
N900 C902 1.263 . S
N900 C904 1.389 . S
N901 C902 1.358 . S
N901 C903 1.400 . S
C902 N900 1.263 . S
C902 N901 1.358 . S
C902 H908 0.930 . S
C903 N901 1.400 . S
C903 C904 1.351 . S
C903 H920 0.930 . S
C904 N900 1.389 . S
C904 C903 1.351 . S
C904 H909 0.930 . S
O905 Cu899 1.974 . S
O905 C915 1.282 . S
C906 O907 1.261 . S
C906 O919 1.251 . S
O907 C906 1.261 . S
H908 C902 0.930 . S
H909 C904 0.930 . S
N910 Cu899 1.985 . S
N910 C912 1.335 . S
N910 C913 1.390 . S
N911 C912 1.345 . S
N911 C914 1.336 . S
C912 N910 1.335 . S
C912 N911 1.345 . S
C912 H917 0.930 . S
C913 N910 1.390 . S
C913 C914 1.346 . S
C913 H918 0.930 . S
C914 N911 1.336 . S
C914 C913 1.346 . S
C914 H921 0.929 . S
C915 O905 1.282 . S
C915 O916 1.216 . S
O916 C915 1.216 . S
H917 C912 0.930 . S
H918 C913 0.930 . S
O919 Cu899 1.959 . S
O919 C906 1.251 . S
H920 C903 0.930 . S
H921 C914 0.929 . S
Cu922 N923 1.999 . S
Cu922 O928 1.974 . S
Cu922 N933 1.985 . S
Cu922 O942 1.959 . S
N923 Cu922 1.999 . S
N923 C925 1.263 . S
N923 C927 1.389 . S
N924 C925 1.358 . S
N924 C926 1.400 . S
C925 N923 1.263 . S
C925 N924 1.358 . S
C925 H931 0.930 . S
C926 N924 1.400 . S
C926 C927 1.351 . S
C926 H943 0.930 . S
C927 N923 1.389 . S
C927 C926 1.351 . S
C927 H932 0.930 . S
O928 Cu922 1.974 . S
O928 C938 1.282 . S
C929 O930 1.261 . S
C929 O942 1.251 . S
O930 C929 1.261 . S
H931 C925 0.930 . S
H932 C927 0.930 . S
N933 Cu922 1.985 . S
N933 C935 1.335 . S
N933 C936 1.390 . S
N934 C935 1.345 . S
N934 C937 1.336 . S
C935 N933 1.335 . S
C935 N934 1.345 . S
C935 H940 0.930 . S
C936 N933 1.390 . S
C936 C937 1.346 . S
C936 H941 0.930 . S
C937 N934 1.336 . S
C937 C936 1.346 . S
C937 H944 0.929 . S
C938 O928 1.282 . S
C938 O939 1.216 . S
O939 C938 1.216 . S
H940 C935 0.930 . S
H941 C936 0.930 . S
O942 Cu922 1.959 . S
O942 C929 1.251 . S
H943 C926 0.930 . S
H944 C937 0.929 . S
Cu945 N946 1.999 . S
Cu945 O951 1.974 . S
Cu945 N956 1.985 . S
Cu945 O965 1.959 . S
N946 Cu945 1.999 . S
N946 C948 1.263 . S
N946 C950 1.389 . S
N947 C948 1.358 . S
N947 C949 1.400 . S
C948 N946 1.263 . S
C948 N947 1.358 . S
C948 H954 0.930 . S
C949 N947 1.400 . S
C949 C950 1.351 . S
C949 H966 0.930 . S
C950 N946 1.389 . S
C950 C949 1.351 . S
C950 H955 0.930 . S
O951 Cu945 1.974 . S
O951 C961 1.282 . S
C952 O953 1.261 . S
C952 O965 1.251 . S
O953 C952 1.261 . S
H954 C948 0.930 . S
H955 C950 0.930 . S
N956 Cu945 1.985 . S
N956 C958 1.335 . S
N956 C959 1.390 . S
N957 C958 1.345 . S
N957 C960 1.336 . S
C958 N956 1.335 . S
C958 N957 1.345 . S
C958 H963 0.930 . S
C959 N956 1.390 . S
C959 C960 1.346 . S
C959 H964 0.930 . S
C960 N957 1.336 . S
C960 C959 1.346 . S
C960 H967 0.929 . S
C961 O951 1.282 . S
C961 O962 1.216 . S
O962 C961 1.216 . S
H963 C958 0.930 . S
H964 C959 0.930 . S
O965 Cu945 1.959 . S
O965 C952 1.251 . S
H966 C949 0.930 . S
H967 C960 0.929 . S
H968 C976 0.950 . S
H969 C981 0.950 . S
H970 C978 0.950 . S
H971 C980 0.950 . S
H972 C982 0.950 . S
H973 C984 0.950 . S
H974 C986 0.950 . S
H975 C987 0.950 . S
C976 H968 0.950 . S
C976 C977 1.386 . S
C976 C978 1.391 . S
C977 C976 1.386 . S
C977 C981 1.393 . S
C978 H970 0.950 . S
C978 C976 1.391 . S
C978 C979 1.400 . S
C979 C978 1.400 . S
C979 C980 1.398 . S
C979 C985 1.491 . S
C980 H971 0.950 . S
C980 C979 1.398 . S
C980 C981 1.391 . S
C981 H969 0.950 . S
C981 C977 1.393 . S
C981 C980 1.391 . S
C982 H972 0.950 . S
C982 C983 1.386 . S
C982 C984 1.391 . S
C983 C982 1.386 . S
C983 C987 1.393 . S
C984 H973 0.950 . S
C984 C982 1.391 . S
C984 C985 1.400 . S
C985 C979 1.491 . S
C985 C984 1.400 . S
C985 C986 1.398 . S
C986 H974 0.950 . S
C986 C985 1.398 . S
C986 C987 1.391 . S
C987 H975 0.950 . S
C987 C983 1.393 . S
C987 C986 1.391 . S
H988 C996 0.950 . S
H989 C1001 0.950 . S
H990 C998 0.950 . S
H991 C1000 0.950 . S
H992 C1002 0.950 . S
H993 C1004 0.950 . S
H994 C1006 0.950 . S
H995 C1007 0.950 . S
C996 H988 0.950 . S
C996 C997 1.386 . S
C996 C998 1.391 . S
C997 C996 1.386 . S
C997 C1001 1.393 . S
C998 H990 0.950 . S
C998 C996 1.391 . S
C998 C999 1.400 . S
C999 C998 1.400 . S
C999 C1000 1.398 . S
C999 C1005 1.491 . S
C1000 H991 0.950 . S
C1000 C999 1.398 . S
C1000 C1001 1.391 . S
C1001 H989 0.950 . S
C1001 C997 1.393 . S
C1001 C1000 1.391 . S
C1002 H992 0.950 . S
C1002 C1003 1.386 . S
C1002 C1004 1.391 . S
C1003 C1002 1.386 . S
C1003 C1007 1.393 . S
C1004 H993 0.950 . S
C1004 C1002 1.391 . S
C1004 C1005 1.400 . S
C1005 C999 1.491 . S
C1005 C1004 1.400 . S
C1005 C1006 1.398 . S
C1006 H994 0.950 . S
C1006 C1005 1.398 . S
C1006 C1007 1.391 . S
C1007 H995 0.950 . S
C1007 C1003 1.393 . S
C1007 C1006 1.391 . S
H1008 C1016 0.950 . S
H1009 C1021 0.950 . S
H1010 C1018 0.950 . S
H1011 C1020 0.950 . S
H1012 C1022 0.950 . S
H1013 C1024 0.950 . S
H1014 C1026 0.950 . S
H1015 C1027 0.950 . S
C1016 H1008 0.950 . S
C1016 C1017 1.386 . S
C1016 C1018 1.391 . S
C1017 C1016 1.386 . S
C1017 C1021 1.393 . S
C1018 H1010 0.950 . S
C1018 C1016 1.391 . S
C1018 C1019 1.400 . S
C1019 C1018 1.400 . S
C1019 C1020 1.398 . S
C1019 C1025 1.491 . S
C1020 H1011 0.950 . S
C1020 C1019 1.398 . S
C1020 C1021 1.391 . S
C1021 H1009 0.950 . S
C1021 C1017 1.393 . S
C1021 C1020 1.391 . S
C1022 H1012 0.950 . S
C1022 C1023 1.386 . S
C1022 C1024 1.391 . S
C1023 C1022 1.386 . S
C1023 C1027 1.393 . S
C1024 H1013 0.950 . S
C1024 C1022 1.391 . S
C1024 C1025 1.400 . S
C1025 C1019 1.491 . S
C1025 C1024 1.400 . S
C1025 C1026 1.398 . S
C1026 H1014 0.950 . S
C1026 C1025 1.398 . S
C1026 C1027 1.391 . S
C1027 H1015 0.950 . S
C1027 C1023 1.393 . S
C1027 C1026 1.391 . S
H1028 C1036 0.950 . S
H1029 C1041 0.950 . S
H1030 C1038 0.950 . S
H1031 C1040 0.950 . S
H1032 C1042 0.950 . S
H1033 C1044 0.950 . S
H1034 C1046 0.950 . S
H1035 C1047 0.950 . S
C1036 H1028 0.950 . S
C1036 C1037 1.386 . S
C1036 C1038 1.391 . S
C1037 C1036 1.386 . S
C1037 C1041 1.393 . S
C1038 H1030 0.950 . S
C1038 C1036 1.391 . S
C1038 C1039 1.400 . S
C1039 C1038 1.400 . S
C1039 C1040 1.398 . S
C1039 C1045 1.491 . S
C1040 H1031 0.950 . S
C1040 C1039 1.398 . S
C1040 C1041 1.391 . S
C1041 H1029 0.950 . S
C1041 C1037 1.393 . S
C1041 C1040 1.391 . S
C1042 H1032 0.950 . S
C1042 C1043 1.386 . S
C1042 C1044 1.391 . S
C1043 C1042 1.386 . S
C1043 C1047 1.393 . S
C1044 H1033 0.950 . S
C1044 C1042 1.391 . S
C1044 C1045 1.400 . S
C1045 C1039 1.491 . S
C1045 C1044 1.400 . S
C1045 C1046 1.398 . S
C1046 H1034 0.950 . S
C1046 C1045 1.398 . S
C1046 C1047 1.391 . S
C1047 H1035 0.950 . S
C1047 C1043 1.393 . S
C1047 C1046 1.391 . S
H1048 C1056 0.950 . S
H1049 C1061 0.950 . S
H1050 C1058 0.950 . S
H1051 C1060 0.950 . S
H1052 C1062 0.950 . S
H1053 C1064 0.950 . S
H1054 C1066 0.950 . S
H1055 C1067 0.950 . S
C1056 H1048 0.950 . S
C1056 C1057 1.386 . S
C1056 C1058 1.391 . S
C1057 C1056 1.386 . S
C1057 C1061 1.393 . S
C1058 H1050 0.950 . S
C1058 C1056 1.391 . S
C1058 C1059 1.400 . S
C1059 C1058 1.400 . S
C1059 C1060 1.398 . S
C1059 C1065 1.491 . S
C1060 H1051 0.950 . S
C1060 C1059 1.398 . S
C1060 C1061 1.391 . S
C1061 H1049 0.950 . S
C1061 C1057 1.393 . S
C1061 C1060 1.391 . S
C1062 H1052 0.950 . S
C1062 C1063 1.386 . S
C1062 C1064 1.391 . S
C1063 C1062 1.386 . S
C1063 C1067 1.393 . S
C1064 H1053 0.950 . S
C1064 C1062 1.391 . S
C1064 C1065 1.400 . S
C1065 C1059 1.491 . S
C1065 C1064 1.400 . S
C1065 C1066 1.398 . S
C1066 H1054 0.950 . S
C1066 C1065 1.398 . S
C1066 C1067 1.391 . S
C1067 H1055 0.950 . S
C1067 C1063 1.393 . S
C1067 C1066 1.391 . S
H1068 C1076 0.950 . S
H1069 C1081 0.950 . S
H1070 C1078 0.950 . S
H1071 C1080 0.950 . S
H1072 C1082 0.950 . S
H1073 C1084 0.950 . S
H1074 C1086 0.950 . S
H1075 C1087 0.950 . S
C1076 H1068 0.950 . S
C1076 C1077 1.386 . S
C1076 C1078 1.391 . S
C1077 C1076 1.386 . S
C1077 C1081 1.393 . S
C1078 H1070 0.950 . S
C1078 C1076 1.391 . S
C1078 C1079 1.400 . S
C1079 C1078 1.400 . S
C1079 C1080 1.398 . S
C1079 C1085 1.491 . S
C1080 H1071 0.950 . S
C1080 C1079 1.398 . S
C1080 C1081 1.391 . S
C1081 H1069 0.950 . S
C1081 C1077 1.393 . S
C1081 C1080 1.391 . S
C1082 H1072 0.950 . S
C1082 C1083 1.386 . S
C1082 C1084 1.391 . S
C1083 C1082 1.386 . S
C1083 C1087 1.393 . S
C1084 H1073 0.950 . S
C1084 C1082 1.391 . S
C1084 C1085 1.400 . S
C1085 C1079 1.491 . S
C1085 C1084 1.400 . S
C1085 C1086 1.398 . S
C1086 H1074 0.950 . S
C1086 C1085 1.398 . S
C1086 C1087 1.391 . S
C1087 H1075 0.950 . S
C1087 C1083 1.393 . S
C1087 C1086 1.391 . S
H1088 C1096 0.950 . S
H1089 C1101 0.950 . S
H1090 C1098 0.950 . S
H1091 C1100 0.950 . S
H1092 C1102 0.950 . S
H1093 C1104 0.950 . S
H1094 C1106 0.950 . S
H1095 C1107 0.950 . S
C1096 H1088 0.950 . S
C1096 C1097 1.386 . S
C1096 C1098 1.391 . S
C1097 C1096 1.386 . S
C1097 C1101 1.393 . S
C1098 H1090 0.950 . S
C1098 C1096 1.391 . S
C1098 C1099 1.400 . S
C1099 C1098 1.400 . S
C1099 C1100 1.398 . S
C1099 C1105 1.491 . S
C1100 H1091 0.950 . S
C1100 C1099 1.398 . S
C1100 C1101 1.391 . S
C1101 H1089 0.950 . S
C1101 C1097 1.393 . S
C1101 C1100 1.391 . S
C1102 H1092 0.950 . S
C1102 C1103 1.386 . S
C1102 C1104 1.391 . S
C1103 C1102 1.386 . S
C1103 C1107 1.393 . S
C1104 H1093 0.950 . S
C1104 C1102 1.391 . S
C1104 C1105 1.400 . S
C1105 C1099 1.491 . S
C1105 C1104 1.400 . S
C1105 C1106 1.398 . S
C1106 H1094 0.950 . S
C1106 C1105 1.398 . S
C1106 C1107 1.391 . S
C1107 H1095 0.950 . S
C1107 C1103 1.393 . S
C1107 C1106 1.391 . S
H1108 C1116 0.950 . S
H1109 C1121 0.950 . S
H1110 C1118 0.950 . S
H1111 C1120 0.950 . S
H1112 C1122 0.950 . S
H1113 C1124 0.950 . S
H1114 C1126 0.950 . S
H1115 C1127 0.950 . S
C1116 H1108 0.950 . S
C1116 C1117 1.386 . S
C1116 C1118 1.391 . S
C1117 C1116 1.386 . S
C1117 C1121 1.393 . S
C1118 H1110 0.950 . S
C1118 C1116 1.391 . S
C1118 C1119 1.400 . S
C1119 C1118 1.400 . S
C1119 C1120 1.398 . S
C1119 C1125 1.491 . S
C1120 H1111 0.950 . S
C1120 C1119 1.398 . S
C1120 C1121 1.391 . S
C1121 H1109 0.950 . S
C1121 C1117 1.393 . S
C1121 C1120 1.391 . S
C1122 H1112 0.950 . S
C1122 C1123 1.386 . S
C1122 C1124 1.391 . S
C1123 C1122 1.386 . S
C1123 C1127 1.393 . S
C1124 H1113 0.950 . S
C1124 C1122 1.391 . S
C1124 C1125 1.400 . S
C1125 C1119 1.491 . S
C1125 C1124 1.400 . S
C1125 C1126 1.398 . S
C1126 H1114 0.950 . S
C1126 C1125 1.398 . S
C1126 C1127 1.391 . S
C1127 H1115 0.950 . S
C1127 C1123 1.393 . S
C1127 C1126 1.391 . S
H1128 C1136 0.950 . S
H1129 C1141 0.950 . S
H1130 C1138 0.950 . S
H1131 C1140 0.950 . S
H1132 C1142 0.950 . S
H1133 C1144 0.950 . S
H1134 C1146 0.950 . S
H1135 C1147 0.950 . S
C1136 H1128 0.950 . S
C1136 C1137 1.386 . S
C1136 C1138 1.391 . S
C1137 C1136 1.386 . S
C1137 C1141 1.393 . S
C1138 H1130 0.950 . S
C1138 C1136 1.391 . S
C1138 C1139 1.400 . S
C1139 C1138 1.400 . S
C1139 C1140 1.398 . S
C1139 C1145 1.491 . S
C1140 H1131 0.950 . S
C1140 C1139 1.398 . S
C1140 C1141 1.391 . S
C1141 H1129 0.950 . S
C1141 C1137 1.393 . S
C1141 C1140 1.391 . S
C1142 H1132 0.950 . S
C1142 C1143 1.386 . S
C1142 C1144 1.391 . S
C1143 C1142 1.386 . S
C1143 C1147 1.393 . S
C1144 H1133 0.950 . S
C1144 C1142 1.391 . S
C1144 C1145 1.400 . S
C1145 C1139 1.491 . S
C1145 C1144 1.400 . S
C1145 C1146 1.398 . S
C1146 H1134 0.950 . S
C1146 C1145 1.398 . S
C1146 C1147 1.391 . S
C1147 H1135 0.950 . S
C1147 C1143 1.393 . S
C1147 C1146 1.391 . S
H1148 C1156 0.950 . S
H1149 C1161 0.950 . S
H1150 C1158 0.950 . S
H1151 C1160 0.950 . S
H1152 C1162 0.950 . S
H1153 C1164 0.950 . S
H1154 C1166 0.950 . S
H1155 C1167 0.950 . S
C1156 H1148 0.950 . S
C1156 C1157 1.386 . S
C1156 C1158 1.391 . S
C1157 C1156 1.386 . S
C1157 C1161 1.393 . S
C1158 H1150 0.950 . S
C1158 C1156 1.391 . S
C1158 C1159 1.400 . S
C1159 C1158 1.400 . S
C1159 C1160 1.398 . S
C1159 C1165 1.491 . S
C1160 H1151 0.950 . S
C1160 C1159 1.398 . S
C1160 C1161 1.391 . S
C1161 H1149 0.950 . S
C1161 C1157 1.393 . S
C1161 C1160 1.391 . S
C1162 H1152 0.950 . S
C1162 C1163 1.386 . S
C1162 C1164 1.391 . S
C1163 C1162 1.386 . S
C1163 C1167 1.393 . S
C1164 H1153 0.950 . S
C1164 C1162 1.391 . S
C1164 C1165 1.400 . S
C1165 C1159 1.491 . S
C1165 C1164 1.400 . S
C1165 C1166 1.398 . S
C1166 H1154 0.950 . S
C1166 C1165 1.398 . S
C1166 C1167 1.391 . S
C1167 H1155 0.950 . S
C1167 C1163 1.393 . S
C1167 C1166 1.391 . S
H1168 C1176 0.950 . S
H1169 C1181 0.950 . S
H1170 C1178 0.950 . S
H1171 C1180 0.950 . S
H1172 C1182 0.950 . S
H1173 C1184 0.950 . S
H1174 C1186 0.950 . S
H1175 C1187 0.950 . S
C1176 H1168 0.950 . S
C1176 C1177 1.386 . S
C1176 C1178 1.391 . S
C1177 C1176 1.386 . S
C1177 C1181 1.393 . S
C1178 H1170 0.950 . S
C1178 C1176 1.391 . S
C1178 C1179 1.400 . S
C1179 C1178 1.400 . S
C1179 C1180 1.398 . S
C1179 C1185 1.491 . S
C1180 H1171 0.950 . S
C1180 C1179 1.398 . S
C1180 C1181 1.391 . S
C1181 H1169 0.950 . S
C1181 C1177 1.393 . S
C1181 C1180 1.391 . S
C1182 H1172 0.950 . S
C1182 C1183 1.386 . S
C1182 C1184 1.391 . S
C1183 C1182 1.386 . S
C1183 C1187 1.393 . S
C1184 H1173 0.950 . S
C1184 C1182 1.391 . S
C1184 C1185 1.400 . S
C1185 C1179 1.491 . S
C1185 C1184 1.400 . S
C1185 C1186 1.398 . S
C1186 H1174 0.950 . S
C1186 C1185 1.398 . S
C1186 C1187 1.391 . S
C1187 H1175 0.950 . S
C1187 C1183 1.393 . S
C1187 C1186 1.391 . S
H1188 C1196 0.950 . S
H1189 C1201 0.950 . S
H1190 C1198 0.950 . S
H1191 C1200 0.950 . S
H1192 C1202 0.950 . S
H1193 C1204 0.950 . S
H1194 C1206 0.950 . S
H1195 C1207 0.950 . S
C1196 H1188 0.950 . S
C1196 C1197 1.386 . S
C1196 C1198 1.391 . S
C1197 C1196 1.386 . S
C1197 C1201 1.393 . S
C1198 H1190 0.950 . S
C1198 C1196 1.391 . S
C1198 C1199 1.400 . S
C1199 C1198 1.400 . S
C1199 C1200 1.398 . S
C1199 C1205 1.491 . S
C1200 H1191 0.950 . S
C1200 C1199 1.398 . S
C1200 C1201 1.391 . S
C1201 H1189 0.950 . S
C1201 C1197 1.393 . S
C1201 C1200 1.391 . S
C1202 H1192 0.950 . S
C1202 C1203 1.386 . S
C1202 C1204 1.391 . S
C1203 C1202 1.386 . S
C1203 C1207 1.393 . S
C1204 H1193 0.950 . S
C1204 C1202 1.391 . S
C1204 C1205 1.400 . S
C1205 C1199 1.491 . S
C1205 C1204 1.400 . S
C1205 C1206 1.398 . S
C1206 H1194 0.950 . S
C1206 C1205 1.398 . S
C1206 C1207 1.391 . S
C1207 H1195 0.950 . S
C1207 C1203 1.393 . S
C1207 C1206 1.391 . S
H1208 C1216 0.950 . S
H1209 C1221 0.950 . S
H1210 C1218 0.950 . S
H1211 C1220 0.950 . S
H1212 C1222 0.950 . S
H1213 C1224 0.950 . S
H1214 C1226 0.950 . S
H1215 C1227 0.950 . S
C1216 H1208 0.950 . S
C1216 C1217 1.386 . S
C1216 C1218 1.391 . S
C1217 C1216 1.386 . S
C1217 C1221 1.393 . S
C1218 H1210 0.950 . S
C1218 C1216 1.391 . S
C1218 C1219 1.400 . S
C1219 C1218 1.400 . S
C1219 C1220 1.398 . S
C1219 C1225 1.491 . S
C1220 H1211 0.950 . S
C1220 C1219 1.398 . S
C1220 C1221 1.391 . S
C1221 H1209 0.950 . S
C1221 C1217 1.393 . S
C1221 C1220 1.391 . S
C1222 H1212 0.950 . S
C1222 C1223 1.386 . S
C1222 C1224 1.391 . S
C1223 C1222 1.386 . S
C1223 C1227 1.393 . S
C1224 H1213 0.950 . S
C1224 C1222 1.391 . S
C1224 C1225 1.400 . S
C1225 C1219 1.491 . S
C1225 C1224 1.400 . S
C1225 C1226 1.398 . S
C1226 H1214 0.950 . S
C1226 C1225 1.398 . S
C1226 C1227 1.391 . S
C1227 H1215 0.950 . S
C1227 C1223 1.393 . S
C1227 C1226 1.391 . S
H1228 C1236 0.950 . S
H1229 C1241 0.950 . S
H1230 C1238 0.950 . S
H1231 C1240 0.950 . S
H1232 C1242 0.950 . S
H1233 C1244 0.950 . S
H1234 C1246 0.950 . S
H1235 C1247 0.950 . S
C1236 H1228 0.950 . S
C1236 C1237 1.386 . S
C1236 C1238 1.391 . S
C1237 C1236 1.386 . S
C1237 C1241 1.393 . S
C1238 H1230 0.950 . S
C1238 C1236 1.391 . S
C1238 C1239 1.400 . S
C1239 C1238 1.400 . S
C1239 C1240 1.398 . S
C1239 C1245 1.491 . S
C1240 H1231 0.950 . S
C1240 C1239 1.398 . S
C1240 C1241 1.391 . S
C1241 H1229 0.950 . S
C1241 C1237 1.393 . S
C1241 C1240 1.391 . S
C1242 H1232 0.950 . S
C1242 C1243 1.386 . S
C1242 C1244 1.391 . S
C1243 C1242 1.386 . S
C1243 C1247 1.393 . S
C1244 H1233 0.950 . S
C1244 C1242 1.391 . S
C1244 C1245 1.400 . S
C1245 C1239 1.491 . S
C1245 C1244 1.400 . S
C1245 C1246 1.398 . S
C1246 H1234 0.950 . S
C1246 C1245 1.398 . S
C1246 C1247 1.391 . S
C1247 H1235 0.950 . S
C1247 C1243 1.393 . S
C1247 C1246 1.391 . S
H1248 C1256 0.950 . S
H1249 C1261 0.950 . S
H1250 C1258 0.950 . S
H1251 C1260 0.950 . S
H1252 C1262 0.950 . S
H1253 C1264 0.950 . S
H1254 C1266 0.950 . S
H1255 C1267 0.950 1_455 S
C1256 H1248 0.950 . S
C1256 C1257 1.386 . S
C1256 C1258 1.391 . S
C1257 C1256 1.386 . S
C1257 C1261 1.393 . S
C1258 H1250 0.950 . S
C1258 C1256 1.391 . S
C1258 C1259 1.400 . S
C1259 C1258 1.400 . S
C1259 C1260 1.398 . S
C1259 C1265 1.491 . S
C1260 H1251 0.950 . S
C1260 C1259 1.398 . S
C1260 C1261 1.391 . S
C1261 H1249 0.950 . S
C1261 C1257 1.393 . S
C1261 C1260 1.391 . S
C1262 H1252 0.950 . S
C1262 C1263 1.386 . S
C1262 C1264 1.391 . S
C1263 C1262 1.386 . S
C1263 C1267 1.393 . S
C1264 H1253 0.950 . S
C1264 C1262 1.391 . S
C1264 C1265 1.400 . S
C1265 C1259 1.491 . S
C1265 C1264 1.400 . S
C1265 C1266 1.398 . S
C1266 H1254 0.950 . S
C1266 C1265 1.398 . S
C1266 C1267 1.391 . S
C1267 H1255 0.950 1_655 S
C1267 C1263 1.393 . S
C1267 C1266 1.391 . S
H1268 C1276 0.950 . S
H1269 C1281 0.950 . S
H1270 C1278 0.950 . S
H1271 C1280 0.950 . S
H1272 C1282 0.951 . S
H1273 C1284 0.950 . S
H1274 C1286 0.950 . S
H1275 C1287 0.950 . S
C1276 H1268 0.950 . S
C1276 C1277 1.386 . S
C1276 C1278 1.391 . S
C1277 C1276 1.386 . S
C1277 C1281 1.393 . S
C1278 H1270 0.950 . S
C1278 C1276 1.391 . S
C1278 C1279 1.400 . S
C1279 C1278 1.400 . S
C1279 C1280 1.398 . S
C1279 C1285 1.491 . S
C1280 H1271 0.950 . S
C1280 C1279 1.398 . S
C1280 C1281 1.391 . S
C1281 H1269 0.950 . S
C1281 C1277 1.393 . S
C1281 C1280 1.391 . S
C1282 H1272 0.951 . S
C1282 C1283 1.386 . S
C1282 C1284 1.391 . S
C1283 C1282 1.386 . S
C1283 C1287 1.393 . S
C1284 H1273 0.950 . S
C1284 C1282 1.391 . S
C1284 C1285 1.400 . S
C1285 C1279 1.491 . S
C1285 C1284 1.400 . S
C1285 C1286 1.398 . S
C1286 H1274 0.950 . S
C1286 C1285 1.398 . S
C1286 C1287 1.391 . S
C1287 H1275 0.950 . S
C1287 C1283 1.393 . S
C1287 C1286 1.391 . S
H1288 C1296 0.950 . S
H1289 C1301 0.950 . S
H1290 C1298 0.950 . S
H1291 C1300 0.950 . S
H1292 C1302 0.950 . S
H1293 C1304 0.950 . S
H1294 C1306 0.950 . S
H1295 C1307 0.950 . S
C1296 H1288 0.950 . S
C1296 C1297 1.386 . S
C1296 C1298 1.391 . S
C1297 C1296 1.386 . S
C1297 C1301 1.393 . S
C1298 H1290 0.950 . S
C1298 C1296 1.391 . S
C1298 C1299 1.400 . S
C1299 C1298 1.400 . S
C1299 C1300 1.398 . S
C1299 C1305 1.491 . S
C1300 H1291 0.950 . S
C1300 C1299 1.398 . S
C1300 C1301 1.391 . S
C1301 H1289 0.950 . S
C1301 C1297 1.393 . S
C1301 C1300 1.391 . S
C1302 H1292 0.950 . S
C1302 C1303 1.386 . S
C1302 C1304 1.391 . S
C1303 C1302 1.386 . S
C1303 C1307 1.393 . S
C1304 H1293 0.950 . S
C1304 C1302 1.391 . S
C1304 C1305 1.400 . S
C1305 C1299 1.491 . S
C1305 C1304 1.400 . S
C1305 C1306 1.398 . S
C1306 H1294 0.950 . S
C1306 C1305 1.398 . S
C1306 C1307 1.391 . S
C1307 H1295 0.950 . S
C1307 C1303 1.393 . S
C1307 C1306 1.391 . S
H1308 C1316 0.950 . S
H1309 C1321 0.950 . S
H1310 C1318 0.950 . S
H1311 C1320 0.950 . S
H1312 C1322 0.950 . S
H1313 C1324 0.950 . S
H1314 C1326 0.950 . S
H1315 C1327 0.950 . S
C1316 H1308 0.950 . S
C1316 C1317 1.386 . S
C1316 C1318 1.391 . S
C1317 C1316 1.386 . S
C1317 C1321 1.393 . S
C1318 H1310 0.950 . S
C1318 C1316 1.391 . S
C1318 C1319 1.400 . S
C1319 C1318 1.400 . S
C1319 C1320 1.398 . S
C1319 C1325 1.491 . S
C1320 H1311 0.950 . S
C1320 C1319 1.398 . S
C1320 C1321 1.391 . S
C1321 H1309 0.950 . S
C1321 C1317 1.393 . S
C1321 C1320 1.391 . S
C1322 H1312 0.950 . S
C1322 C1323 1.386 . S
C1322 C1324 1.391 . S
C1323 C1322 1.386 . S
C1323 C1327 1.393 . S
C1324 H1313 0.950 . S
C1324 C1322 1.391 . S
C1324 C1325 1.400 . S
C1325 C1319 1.491 . S
C1325 C1324 1.400 . S
C1325 C1326 1.398 . S
C1326 H1314 0.950 . S
C1326 C1325 1.398 . S
C1326 C1327 1.391 . S
C1327 H1315 0.950 . S
C1327 C1323 1.393 . S
C1327 C1326 1.391 . S
H1328 C1336 0.950 . S
H1329 C1341 0.950 . S
H1330 C1338 0.950 . S
H1331 C1340 0.950 . S
H1332 C1342 0.950 . S
H1333 C1344 0.950 . S
H1334 C1346 0.950 . S
H1335 C1347 0.950 . S
C1336 H1328 0.950 . S
C1336 C1337 1.386 . S
C1336 C1338 1.391 . S
C1337 C1336 1.386 . S
C1337 C1341 1.393 . S
C1338 H1330 0.950 . S
C1338 C1336 1.391 . S
C1338 C1339 1.400 . S
C1339 C1338 1.400 . S
C1339 C1340 1.398 . S
C1339 C1345 1.491 . S
C1340 H1331 0.950 . S
C1340 C1339 1.398 . S
C1340 C1341 1.391 . S
C1341 H1329 0.950 . S
C1341 C1337 1.393 . S
C1341 C1340 1.391 . S
C1342 H1332 0.950 . S
C1342 C1343 1.386 . S
C1342 C1344 1.391 . S
C1343 C1342 1.386 . S
C1343 C1347 1.393 . S
C1344 H1333 0.950 . S
C1344 C1342 1.391 . S
C1344 C1345 1.400 . S
C1345 C1339 1.491 . S
C1345 C1344 1.400 . S
C1345 C1346 1.398 . S
C1346 H1334 0.950 . S
C1346 C1345 1.398 . S
C1346 C1347 1.391 . S
C1347 H1335 0.950 . S
C1347 C1343 1.393 . S
C1347 C1346 1.391 . S
H1348 C1356 0.950 . S
H1349 C1361 0.950 . S
H1350 C1358 0.950 . S
H1351 C1360 0.950 . S
H1352 C1362 0.950 . S
H1353 C1364 0.950 . S
H1354 C1366 0.950 . S
H1355 C1367 0.950 . S
C1356 H1348 0.950 . S
C1356 C1357 1.386 . S
C1356 C1358 1.391 . S
C1357 C1356 1.386 . S
C1357 C1361 1.393 . S
C1358 H1350 0.950 . S
C1358 C1356 1.391 . S
C1358 C1359 1.400 . S
C1359 C1358 1.400 . S
C1359 C1360 1.398 . S
C1359 C1365 1.491 . S
C1360 H1351 0.950 . S
C1360 C1359 1.398 . S
C1360 C1361 1.391 . S
C1361 H1349 0.950 . S
C1361 C1357 1.393 . S
C1361 C1360 1.391 . S
C1362 H1352 0.950 . S
C1362 C1363 1.386 . S
C1362 C1364 1.391 . S
C1363 C1362 1.386 . S
C1363 C1367 1.393 . S
C1364 H1353 0.950 . S
C1364 C1362 1.391 . S
C1364 C1365 1.400 . S
C1365 C1359 1.491 . S
C1365 C1364 1.400 . S
C1365 C1366 1.398 . S
C1366 H1354 0.950 . S
C1366 C1365 1.398 . S
C1366 C1367 1.391 . S
C1367 H1355 0.950 . S
C1367 C1363 1.393 . S
C1367 C1366 1.391 . S
H1368 C1376 0.950 . S
H1369 C1381 0.950 . S
H1370 C1378 0.950 . S
H1371 C1380 0.950 . S
H1372 C1382 0.950 . S
H1373 C1384 0.950 . S
H1374 C1386 0.950 . S
H1375 C1387 0.950 . S
C1376 H1368 0.950 . S
C1376 C1377 1.386 . S
C1376 C1378 1.391 . S
C1377 C1376 1.386 . S
C1377 C1381 1.393 . S
C1378 H1370 0.950 . S
C1378 C1376 1.391 . S
C1378 C1379 1.400 . S
C1379 C1378 1.400 . S
C1379 C1380 1.398 . S
C1379 C1385 1.491 . S
C1380 H1371 0.950 . S
C1380 C1379 1.398 . S
C1380 C1381 1.391 . S
C1381 H1369 0.950 . S
C1381 C1377 1.393 . S
C1381 C1380 1.391 . S
C1382 H1372 0.950 . S
C1382 C1383 1.386 . S
C1382 C1384 1.391 . S
C1383 C1382 1.386 . S
C1383 C1387 1.393 . S
C1384 H1373 0.950 . S
C1384 C1382 1.391 . S
C1384 C1385 1.400 . S
C1385 C1379 1.491 . S
C1385 C1384 1.400 . S
C1385 C1386 1.398 . S
C1386 H1374 0.950 . S
C1386 C1385 1.398 . S
C1386 C1387 1.391 . S
C1387 H1375 0.950 . S
C1387 C1383 1.393 . S
C1387 C1386 1.391 . S
H1388 C1396 0.950 . S
H1389 C1401 0.950 . S
H1390 C1398 0.950 . S
H1391 C1400 0.950 . S
H1392 C1402 0.950 . S
H1393 C1404 0.950 . S
H1394 C1406 0.950 . S
H1395 C1407 0.950 . S
C1396 H1388 0.950 . S
C1396 C1397 1.386 . S
C1396 C1398 1.391 . S
C1397 C1396 1.386 . S
C1397 C1401 1.393 . S
C1398 H1390 0.950 . S
C1398 C1396 1.391 . S
C1398 C1399 1.400 . S
C1399 C1398 1.400 . S
C1399 C1400 1.398 . S
C1399 C1405 1.491 . S
C1400 H1391 0.950 . S
C1400 C1399 1.398 . S
C1400 C1401 1.391 . S
C1401 H1389 0.950 . S
C1401 C1397 1.393 . S
C1401 C1400 1.391 . S
C1402 H1392 0.950 . S
C1402 C1403 1.386 . S
C1402 C1404 1.391 . S
C1403 C1402 1.386 . S
C1403 C1407 1.393 . S
C1404 H1393 0.950 . S
C1404 C1402 1.391 . S
C1404 C1405 1.400 . S
C1405 C1399 1.491 . S
C1405 C1404 1.400 . S
C1405 C1406 1.398 . S
C1406 H1394 0.950 . S
C1406 C1405 1.398 . S
C1406 C1407 1.391 . S
C1407 H1395 0.950 . S
C1407 C1403 1.393 . S
C1407 C1406 1.391 . S
H1408 C1416 0.950 . S
H1409 C1421 0.950 . S
H1410 C1418 0.950 . S
H1411 C1420 0.950 . S
H1412 C1422 0.950 . S
H1413 C1424 0.950 . S
H1414 C1426 0.950 . S
H1415 C1427 0.950 . S
C1416 H1408 0.950 . S
C1416 C1417 1.386 . S
C1416 C1418 1.391 . S
C1417 C1416 1.386 . S
C1417 C1421 1.393 . S
C1418 H1410 0.950 . S
C1418 C1416 1.391 . S
C1418 C1419 1.400 . S
C1419 C1418 1.400 . S
C1419 C1420 1.398 . S
C1419 C1425 1.491 . S
C1420 H1411 0.950 . S
C1420 C1419 1.398 . S
C1420 C1421 1.391 . S
C1421 H1409 0.950 . S
C1421 C1417 1.393 . S
C1421 C1420 1.391 . S
C1422 H1412 0.950 . S
C1422 C1423 1.386 . S
C1422 C1424 1.391 . S
C1423 C1422 1.386 . S
C1423 C1427 1.393 . S
C1424 H1413 0.950 . S
C1424 C1422 1.391 . S
C1424 C1425 1.400 . S
C1425 C1419 1.491 . S
C1425 C1424 1.400 . S
C1425 C1426 1.398 . S
C1426 H1414 0.950 . S
C1426 C1425 1.398 . S
C1426 C1427 1.391 . S
C1427 H1415 0.950 . S
C1427 C1423 1.393 . S
C1427 C1426 1.391 . S
H1428 C1436 0.950 . S
H1429 C1441 0.950 . S
H1430 C1438 0.950 . S
H1431 C1440 0.950 . S
H1432 C1442 0.950 . S
H1433 C1444 0.950 . S
H1434 C1446 0.950 . S
H1435 C1447 0.950 . S
C1436 H1428 0.950 . S
C1436 C1437 1.386 . S
C1436 C1438 1.391 . S
C1437 C1436 1.386 . S
C1437 C1441 1.393 . S
C1438 H1430 0.950 . S
C1438 C1436 1.391 . S
C1438 C1439 1.400 . S
C1439 C1438 1.400 . S
C1439 C1440 1.398 . S
C1439 C1445 1.491 . S
C1440 H1431 0.950 . S
C1440 C1439 1.398 . S
C1440 C1441 1.391 . S
C1441 H1429 0.950 . S
C1441 C1437 1.393 . S
C1441 C1440 1.391 . S
C1442 H1432 0.950 . S
C1442 C1443 1.386 . S
C1442 C1444 1.391 . S
C1443 C1442 1.386 . S
C1443 C1447 1.393 . S
C1444 H1433 0.950 . S
C1444 C1442 1.391 . S
C1444 C1445 1.400 . S
C1445 C1439 1.491 . S
C1445 C1444 1.400 . S
C1445 C1446 1.398 . S
C1446 H1434 0.950 . S
C1446 C1445 1.398 . S
C1446 C1447 1.391 . S
C1447 H1435 0.950 . S
C1447 C1443 1.393 . S
C1447 C1446 1.391 . S
H1448 C1456 0.950 . S
H1449 C1461 0.950 . S
H1450 C1458 0.950 . S
H1451 C1460 0.950 . S
H1452 C1462 0.950 . S
H1453 C1464 0.950 . S
H1454 C1466 0.950 . S
H1455 C1467 0.950 . S
C1456 H1448 0.950 . S
C1456 C1457 1.386 . S
C1456 C1458 1.391 . S
C1457 C1456 1.386 . S
C1457 C1461 1.393 . S
C1458 H1450 0.950 . S
C1458 C1456 1.391 . S
C1458 C1459 1.400 . S
C1459 C1458 1.400 . S
C1459 C1460 1.398 . S
C1459 C1465 1.491 . S
C1460 H1451 0.950 . S
C1460 C1459 1.398 . S
C1460 C1461 1.391 . S
C1461 H1449 0.950 . S
C1461 C1457 1.393 . S
C1461 C1460 1.391 . S
C1462 H1452 0.950 . S
C1462 C1463 1.386 . S
C1462 C1464 1.391 . S
C1463 C1462 1.386 . S
C1463 C1467 1.393 . S
C1464 H1453 0.950 . S
C1464 C1462 1.391 . S
C1464 C1465 1.400 . S
C1465 C1459 1.491 . S
C1465 C1464 1.400 . S
C1465 C1466 1.398 . S
C1466 H1454 0.950 . S
C1466 C1465 1.398 . S
C1466 C1467 1.391 . S
C1467 H1455 0.950 . S
C1467 C1463 1.393 . S
C1467 C1466 1.391 . S
H1468 C1476 0.950 . S
H1469 C1481 0.950 . S
H1470 C1478 0.950 . S
H1471 C1480 0.950 . S
H1472 C1482 0.950 . S
H1473 C1484 0.950 . S
H1474 C1486 0.950 . S
H1475 C1487 0.950 . S
C1476 H1468 0.950 . S
C1476 C1477 1.386 . S
C1476 C1478 1.391 . S
C1477 C1476 1.386 . S
C1477 C1481 1.393 . S
C1478 H1470 0.950 . S
C1478 C1476 1.391 . S
C1478 C1479 1.400 . S
C1479 C1478 1.400 . S
C1479 C1480 1.398 . S
C1479 C1485 1.491 . S
C1480 H1471 0.950 . S
C1480 C1479 1.398 . S
C1480 C1481 1.391 . S
C1481 H1469 0.950 . S
C1481 C1477 1.393 . S
C1481 C1480 1.391 . S
C1482 H1472 0.950 . S
C1482 C1483 1.386 . S
C1482 C1484 1.391 . S
C1483 C1482 1.386 . S
C1483 C1487 1.393 . S
C1484 H1473 0.950 . S
C1484 C1482 1.391 . S
C1484 C1485 1.400 . S
C1485 C1479 1.491 . S
C1485 C1484 1.400 . S
C1485 C1486 1.398 . S
C1486 H1474 0.950 . S
C1486 C1485 1.398 . S
C1486 C1487 1.391 . S
C1487 H1475 0.950 . S
C1487 C1483 1.393 . S
C1487 C1486 1.391 . S
H1488 C1496 0.950 . S
H1489 C1501 0.950 . S
H1490 C1498 0.950 . S
H1491 C1500 0.950 . S
H1492 C1502 0.950 . S
H1493 C1504 0.950 . S
H1494 C1506 0.950 . S
H1495 C1507 0.950 . S
C1496 H1488 0.950 . S
C1496 C1497 1.386 . S
C1496 C1498 1.391 . S
C1497 C1496 1.386 . S
C1497 C1501 1.393 . S
C1498 H1490 0.950 . S
C1498 C1496 1.391 . S
C1498 C1499 1.400 . S
C1499 C1498 1.400 . S
C1499 C1500 1.398 . S
C1499 C1505 1.491 . S
C1500 H1491 0.950 . S
C1500 C1499 1.398 . S
C1500 C1501 1.391 . S
C1501 H1489 0.950 . S
C1501 C1497 1.393 . S
C1501 C1500 1.391 . S
C1502 H1492 0.950 . S
C1502 C1503 1.386 . S
C1502 C1504 1.391 . S
C1503 C1502 1.386 . S
C1503 C1507 1.393 . S
C1504 H1493 0.950 . S
C1504 C1502 1.391 . S
C1504 C1505 1.400 . S
C1505 C1499 1.491 . S
C1505 C1504 1.400 . S
C1505 C1506 1.398 . S
C1506 H1494 0.950 . S
C1506 C1505 1.398 . S
C1506 C1507 1.391 . S
C1507 H1495 0.950 . S
C1507 C1503 1.393 . S
C1507 C1506 1.391 . S
H1508 C1516 0.950 . S
H1509 C1521 0.950 . S
H1510 C1518 0.950 . S
H1511 C1520 0.950 . S
H1512 C1522 0.950 . S
H1513 C1524 0.950 . S
H1514 C1526 0.950 . S
H1515 C1527 0.950 . S
C1516 H1508 0.950 . S
C1516 C1517 1.386 . S
C1516 C1518 1.391 . S
C1517 C1516 1.386 . S
C1517 C1521 1.393 . S
C1518 H1510 0.950 . S
C1518 C1516 1.391 . S
C1518 C1519 1.400 . S
C1519 C1518 1.400 . S
C1519 C1520 1.398 . S
C1519 C1525 1.491 . S
C1520 H1511 0.950 . S
C1520 C1519 1.398 . S
C1520 C1521 1.391 . S
C1521 H1509 0.950 . S
C1521 C1517 1.393 . S
C1521 C1520 1.391 . S
C1522 H1512 0.950 . S
C1522 C1523 1.386 . S
C1522 C1524 1.391 . S
C1523 C1522 1.386 . S
C1523 C1527 1.393 . S
C1524 H1513 0.950 . S
C1524 C1522 1.391 . S
C1524 C1525 1.400 . S
C1525 C1519 1.491 . S
C1525 C1524 1.400 . S
C1525 C1526 1.398 . S
C1526 H1514 0.950 . S
C1526 C1525 1.398 . S
C1526 C1527 1.391 . S
C1527 H1515 0.950 . S
C1527 C1523 1.393 . S
C1527 C1526 1.391 . S
H1528 C1536 0.950 . S
H1529 C1541 0.950 . S
H1530 C1538 0.950 . S
H1531 C1540 0.950 . S
H1532 C1542 0.950 . S
H1533 C1544 0.950 . S
H1534 C1546 0.950 . S
H1535 C1547 0.950 . S
C1536 H1528 0.950 . S
C1536 C1537 1.386 . S
C1536 C1538 1.391 . S
C1537 C1536 1.386 . S
C1537 C1541 1.393 . S
C1538 H1530 0.950 . S
C1538 C1536 1.391 . S
C1538 C1539 1.400 . S
C1539 C1538 1.400 . S
C1539 C1540 1.398 . S
C1539 C1545 1.491 . S
C1540 H1531 0.950 . S
C1540 C1539 1.398 . S
C1540 C1541 1.391 . S
C1541 H1529 0.950 . S
C1541 C1537 1.393 . S
C1541 C1540 1.391 . S
C1542 H1532 0.950 . S
C1542 C1543 1.386 . S
C1542 C1544 1.391 . S
C1543 C1542 1.386 . S
C1543 C1547 1.393 . S
C1544 H1533 0.950 . S
C1544 C1542 1.391 . S
C1544 C1545 1.400 . S
C1545 C1539 1.491 . S
C1545 C1544 1.400 . S
C1545 C1546 1.398 . S
C1546 H1534 0.950 . S
C1546 C1545 1.398 . S
C1546 C1547 1.391 . S
C1547 H1535 0.950 . S
C1547 C1543 1.393 . S
C1547 C1546 1.391 . S
H1548 C1556 0.950 . S
H1549 C1561 0.950 . S
H1550 C1558 0.950 . S
H1551 C1560 0.950 . S
H1552 C1562 0.950 . S
H1553 C1564 0.950 . S
H1554 C1566 0.950 . S
H1555 C1567 0.950 . S
C1556 H1548 0.950 . S
C1556 C1557 1.386 . S
C1556 C1558 1.391 . S
C1557 C1556 1.386 . S
C1557 C1561 1.393 . S
C1558 H1550 0.950 . S
C1558 C1556 1.391 . S
C1558 C1559 1.400 . S
C1559 C1558 1.400 . S
C1559 C1560 1.398 . S
C1559 C1565 1.491 . S
C1560 H1551 0.950 . S
C1560 C1559 1.398 . S
C1560 C1561 1.391 . S
C1561 H1549 0.950 . S
C1561 C1557 1.393 . S
C1561 C1560 1.391 . S
C1562 H1552 0.950 . S
C1562 C1563 1.386 . S
C1562 C1564 1.391 . S
C1563 C1562 1.386 . S
C1563 C1567 1.393 . S
C1564 H1553 0.950 . S
C1564 C1562 1.391 . S
C1564 C1565 1.400 . S
C1565 C1559 1.491 . S
C1565 C1564 1.400 . S
C1565 C1566 1.398 . S
C1566 H1554 0.950 . S
C1566 C1565 1.398 . S
C1566 C1567 1.391 . S
C1567 H1555 0.950 . S
C1567 C1563 1.393 . S
C1567 C1566 1.391 . S
H1568 C1576 0.950 . S
H1569 C1581 0.950 . S
H1570 C1578 0.950 . S
H1571 C1580 0.950 . S
H1572 C1582 0.950 . S
H1573 C1584 0.950 . S
H1574 C1586 0.950 . S
H1575 C1587 0.950 . S
C1576 H1568 0.950 . S
C1576 C1577 1.386 . S
C1576 C1578 1.391 . S
C1577 C1576 1.386 . S
C1577 C1581 1.393 . S
C1578 H1570 0.950 . S
C1578 C1576 1.391 . S
C1578 C1579 1.400 . S
C1579 C1578 1.400 . S
C1579 C1580 1.398 . S
C1579 C1585 1.491 . S
C1580 H1571 0.950 . S
C1580 C1579 1.398 . S
C1580 C1581 1.391 . S
C1581 H1569 0.950 . S
C1581 C1577 1.393 . S
C1581 C1580 1.391 . S
C1582 H1572 0.950 . S
C1582 C1583 1.386 . S
C1582 C1584 1.391 . S
C1583 C1582 1.386 . S
C1583 C1587 1.393 . S
C1584 H1573 0.950 . S
C1584 C1582 1.391 . S
C1584 C1585 1.400 . S
C1585 C1579 1.491 . S
C1585 C1584 1.400 . S
C1585 C1586 1.398 . S
C1586 H1574 0.950 . S
C1586 C1585 1.398 . S
C1586 C1587 1.391 . S
C1587 H1575 0.950 . S
C1587 C1583 1.393 . S
C1587 C1586 1.391 . S
H1588 C1596 0.950 . S
H1589 C1601 0.950 . S
H1590 C1598 0.950 . S
H1591 C1600 0.950 . S
H1592 C1602 0.950 . S
H1593 C1604 0.950 . S
H1594 C1606 0.950 . S
H1595 C1607 0.950 . S
C1596 H1588 0.950 . S
C1596 C1597 1.386 . S
C1596 C1598 1.391 . S
C1597 C1596 1.386 . S
C1597 C1601 1.393 . S
C1598 H1590 0.950 . S
C1598 C1596 1.391 . S
C1598 C1599 1.400 . S
C1599 C1598 1.400 . S
C1599 C1600 1.398 . S
C1599 C1605 1.491 . S
C1600 H1591 0.950 . S
C1600 C1599 1.398 . S
C1600 C1601 1.391 . S
C1601 H1589 0.950 . S
C1601 C1597 1.393 . S
C1601 C1600 1.391 . S
C1602 H1592 0.950 . S
C1602 C1603 1.386 . S
C1602 C1604 1.391 . S
C1603 C1602 1.386 . S
C1603 C1607 1.393 . S
C1604 H1593 0.950 . S
C1604 C1602 1.391 . S
C1604 C1605 1.400 . S
C1605 C1599 1.491 . S
C1605 C1604 1.400 . S
C1605 C1606 1.398 . S
C1606 H1594 0.950 . S
C1606 C1605 1.398 . S
C1606 C1607 1.391 . S
C1607 H1595 0.950 . S
C1607 C1603 1.393 . S
C1607 C1606 1.391 . S
H1608 C1616 0.950 . S
H1609 C1621 0.950 . S
H1610 C1618 0.950 . S
H1611 C1620 0.950 . S
H1612 C1622 0.950 . S
H1613 C1624 0.950 . S
H1614 C1626 0.950 . S
H1615 C1627 0.950 . S
C1616 H1608 0.950 . S
C1616 C1617 1.386 . S
C1616 C1618 1.391 . S
C1617 C1616 1.386 . S
C1617 C1621 1.393 . S
C1618 H1610 0.950 . S
C1618 C1616 1.391 . S
C1618 C1619 1.400 . S
C1619 C1618 1.400 . S
C1619 C1620 1.398 . S
C1619 C1625 1.491 . S
C1620 H1611 0.950 . S
C1620 C1619 1.398 . S
C1620 C1621 1.391 . S
C1621 H1609 0.950 . S
C1621 C1617 1.393 . S
C1621 C1620 1.391 . S
C1622 H1612 0.950 . S
C1622 C1623 1.386 . S
C1622 C1624 1.391 . S
C1623 C1622 1.386 . S
C1623 C1627 1.393 . S
C1624 H1613 0.950 . S
C1624 C1622 1.391 . S
C1624 C1625 1.400 . S
C1625 C1619 1.491 . S
C1625 C1624 1.400 . S
C1625 C1626 1.398 . S
C1626 H1614 0.950 . S
C1626 C1625 1.398 . S
C1626 C1627 1.391 . S
C1627 H1615 0.950 . S
C1627 C1623 1.393 . S
C1627 C1626 1.391 . S
H1628 C1636 0.950 . S
H1629 C1641 0.950 . S
H1630 C1638 0.950 . S
H1631 C1640 0.950 . S
H1632 C1642 0.950 . S
H1633 C1644 0.950 . S
H1634 C1646 0.950 . S
H1635 C1647 0.950 . S
C1636 H1628 0.950 . S
C1636 C1637 1.386 . S
C1636 C1638 1.391 . S
C1637 C1636 1.386 . S
C1637 C1641 1.393 . S
C1638 H1630 0.950 . S
C1638 C1636 1.391 . S
C1638 C1639 1.400 . S
C1639 C1638 1.400 . S
C1639 C1640 1.398 . S
C1639 C1645 1.491 . S
C1640 H1631 0.950 . S
C1640 C1639 1.398 . S
C1640 C1641 1.391 . S
C1641 H1629 0.950 . S
C1641 C1637 1.393 . S
C1641 C1640 1.391 . S
C1642 H1632 0.950 . S
C1642 C1643 1.386 . S
C1642 C1644 1.391 . S
C1643 C1642 1.386 . S
C1643 C1647 1.393 . S
C1644 H1633 0.950 . S
C1644 C1642 1.391 . S
C1644 C1645 1.400 . S
C1645 C1639 1.491 . S
C1645 C1644 1.400 . S
C1645 C1646 1.398 . S
C1646 H1634 0.950 . S
C1646 C1645 1.398 . S
C1646 C1647 1.391 . S
C1647 H1635 0.950 . S
C1647 C1643 1.393 . S
C1647 C1646 1.391 . S
H1648 C1656 0.950 . S
H1649 C1661 0.950 . S
H1650 C1658 0.950 . S
H1651 C1660 0.950 . S
H1652 C1662 0.950 . S
H1653 C1664 0.950 . S
H1654 C1666 0.950 . S
H1655 C1667 0.950 . S
C1656 H1648 0.950 . S
C1656 C1657 1.386 . S
C1656 C1658 1.391 . S
C1657 C1656 1.386 . S
C1657 C1661 1.393 . S
C1658 H1650 0.950 . S
C1658 C1656 1.391 . S
C1658 C1659 1.400 . S
C1659 C1658 1.400 . S
C1659 C1660 1.398 . S
C1659 C1665 1.491 . S
C1660 H1651 0.950 . S
C1660 C1659 1.398 . S
C1660 C1661 1.391 . S
C1661 H1649 0.950 . S
C1661 C1657 1.393 . S
C1661 C1660 1.391 . S
C1662 H1652 0.950 . S
C1662 C1663 1.386 . S
C1662 C1664 1.391 . S
C1663 C1662 1.386 . S
C1663 C1667 1.393 . S
C1664 H1653 0.950 . S
C1664 C1662 1.391 . S
C1664 C1665 1.400 . S
C1665 C1659 1.491 . S
C1665 C1664 1.400 . S
C1665 C1666 1.398 . S
C1666 H1654 0.950 . S
C1666 C1665 1.398 . S
C1666 C1667 1.391 . S
C1667 H1655 0.950 . S
C1667 C1663 1.393 . S
C1667 C1666 1.391 . S
H1668 C1676 0.950 . S
H1669 C1681 0.950 . S
H1670 C1678 0.950 . S
H1671 C1680 0.950 . S
H1672 C1682 0.950 . S
H1673 C1684 0.950 . S
H1674 C1686 0.950 . S
H1675 C1687 0.950 . S
C1676 H1668 0.950 . S
C1676 C1677 1.386 . S
C1676 C1678 1.391 . S
C1677 C1676 1.386 . S
C1677 C1681 1.393 . S
C1678 H1670 0.950 . S
C1678 C1676 1.391 . S
C1678 C1679 1.400 . S
C1679 C1678 1.400 . S
C1679 C1680 1.398 . S
C1679 C1685 1.491 . S
C1680 H1671 0.950 . S
C1680 C1679 1.398 . S
C1680 C1681 1.391 . S
C1681 H1669 0.950 . S
C1681 C1677 1.393 . S
C1681 C1680 1.391 . S
C1682 H1672 0.950 . S
C1682 C1683 1.386 . S
C1682 C1684 1.391 . S
C1683 C1682 1.386 . S
C1683 C1687 1.393 . S
C1684 H1673 0.950 . S
C1684 C1682 1.391 . S
C1684 C1685 1.400 . S
C1685 C1679 1.491 . S
C1685 C1684 1.400 . S
C1685 C1686 1.398 . S
C1686 H1674 0.950 . S
C1686 C1685 1.398 . S
C1686 C1687 1.391 . S
C1687 H1675 0.950 . S
C1687 C1683 1.393 . S
C1687 C1686 1.391 . S
H1688 C1696 0.950 . S
H1689 C1701 0.950 . S
H1690 C1698 0.950 . S
H1691 C1700 0.950 . S
H1692 C1702 0.950 . S
H1693 C1704 0.950 . S
H1694 C1706 0.950 . S
H1695 C1707 0.950 . S
C1696 H1688 0.950 . S
C1696 C1697 1.386 . S
C1696 C1698 1.391 . S
C1697 C1696 1.386 . S
C1697 C1701 1.393 . S
C1698 H1690 0.950 . S
C1698 C1696 1.391 . S
C1698 C1699 1.400 . S
C1699 C1698 1.400 . S
C1699 C1700 1.398 . S
C1699 C1705 1.491 . S
C1700 H1691 0.950 . S
C1700 C1699 1.398 . S
C1700 C1701 1.391 . S
C1701 H1689 0.950 . S
C1701 C1697 1.393 . S
C1701 C1700 1.391 . S
C1702 H1692 0.950 . S
C1702 C1703 1.386 . S
C1702 C1704 1.391 . S
C1703 C1702 1.386 . S
C1703 C1707 1.393 . S
C1704 H1693 0.950 . S
C1704 C1702 1.391 . S
C1704 C1705 1.400 . S
C1705 C1699 1.491 . S
C1705 C1704 1.400 . S
C1705 C1706 1.398 . S
C1706 H1694 0.950 . S
C1706 C1705 1.398 . S
C1706 C1707 1.391 . S
C1707 H1695 0.950 . S
C1707 C1703 1.393 . S
C1707 C1706 1.391 . S
H1708 C1716 0.950 . S
H1709 C1721 0.950 . S
H1710 C1718 0.950 . S
H1711 C1720 0.950 . S
H1712 C1722 0.950 . S
H1713 C1724 0.950 . S
H1714 C1726 0.950 . S
H1715 C1727 0.950 . S
C1716 H1708 0.950 . S
C1716 C1717 1.386 . S
C1716 C1718 1.391 . S
C1717 C1716 1.386 . S
C1717 C1721 1.393 . S
C1718 H1710 0.950 . S
C1718 C1716 1.391 . S
C1718 C1719 1.400 . S
C1719 C1718 1.400 . S
C1719 C1720 1.398 . S
C1719 C1725 1.491 . S
C1720 H1711 0.950 . S
C1720 C1719 1.398 . S
C1720 C1721 1.391 . S
C1721 H1709 0.950 . S
C1721 C1717 1.393 . S
C1721 C1720 1.391 . S
C1722 H1712 0.950 . S
C1722 C1723 1.386 . S
C1722 C1724 1.391 . S
C1723 C1722 1.386 . S
C1723 C1727 1.393 . S
C1724 H1713 0.950 . S
C1724 C1722 1.391 . S
C1724 C1725 1.400 . S
C1725 C1719 1.491 . S
C1725 C1724 1.400 . S
C1725 C1726 1.398 . S
C1726 H1714 0.950 . S
C1726 C1725 1.398 . S
C1726 C1727 1.391 . S
C1727 H1715 0.950 . S
C1727 C1723 1.393 . S
C1727 C1726 1.391 . S
H1728 C1736 0.950 . S
H1729 C1741 0.950 . S
H1730 C1738 0.950 . S
H1731 C1740 0.950 . S
H1732 C1742 0.950 . S
H1733 C1744 0.950 . S
H1734 C1746 0.950 . S
H1735 C1747 0.950 . S
C1736 H1728 0.950 . S
C1736 C1737 1.386 . S
C1736 C1738 1.391 . S
C1737 C1736 1.386 . S
C1737 C1741 1.393 . S
C1738 H1730 0.950 . S
C1738 C1736 1.391 . S
C1738 C1739 1.400 . S
C1739 C1738 1.400 . S
C1739 C1740 1.398 . S
C1739 C1745 1.491 . S
C1740 H1731 0.950 . S
C1740 C1739 1.398 . S
C1740 C1741 1.391 . S
C1741 H1729 0.950 . S
C1741 C1737 1.393 . S
C1741 C1740 1.391 . S
C1742 H1732 0.950 . S
C1742 C1743 1.386 . S
C1742 C1744 1.391 . S
C1743 C1742 1.386 . S
C1743 C1747 1.393 . S
C1744 H1733 0.950 . S
C1744 C1742 1.391 . S
C1744 C1745 1.400 . S
C1745 C1739 1.491 . S
C1745 C1744 1.400 . S
C1745 C1746 1.398 . S
C1746 H1734 0.950 . S
C1746 C1745 1.398 . S
C1746 C1747 1.391 . S
C1747 H1735 0.950 . S
C1747 C1743 1.393 . S
C1747 C1746 1.391 . S
H1748 C1756 0.950 . S
H1749 C1761 0.950 . S
H1750 C1758 0.950 . S
H1751 C1760 0.950 . S
H1752 C1762 0.950 . S
H1753 C1764 0.950 . S
H1754 C1766 0.950 . S
H1755 C1767 0.950 . S
C1756 H1748 0.950 . S
C1756 C1757 1.386 . S
C1756 C1758 1.391 . S
C1757 C1756 1.386 . S
C1757 C1761 1.393 . S
C1758 H1750 0.950 . S
C1758 C1756 1.391 . S
C1758 C1759 1.400 . S
C1759 C1758 1.400 . S
C1759 C1760 1.398 . S
C1759 C1765 1.491 . S
C1760 H1751 0.950 . S
C1760 C1759 1.398 . S
C1760 C1761 1.391 . S
C1761 H1749 0.950 . S
C1761 C1757 1.393 . S
C1761 C1760 1.391 . S
C1762 H1752 0.950 . S
C1762 C1763 1.386 . S
C1762 C1764 1.391 . S
C1763 C1762 1.386 . S
C1763 C1767 1.393 . S
C1764 H1753 0.950 . S
C1764 C1762 1.391 . S
C1764 C1765 1.400 . S
C1765 C1759 1.491 . S
C1765 C1764 1.400 . S
C1765 C1766 1.398 . S
C1766 H1754 0.950 . S
C1766 C1765 1.398 . S
C1766 C1767 1.391 . S
C1767 H1755 0.950 . S
C1767 C1763 1.393 . S
C1767 C1766 1.391 . S
H1768 C1776 0.950 . S
H1769 C1781 0.950 . S
H1770 C1778 0.950 . S
H1771 C1780 0.950 . S
H1772 C1782 0.950 . S
H1773 C1784 0.950 . S
H1774 C1786 0.950 . S
H1775 C1787 0.950 . S
C1776 H1768 0.950 . S
C1776 C1777 1.386 . S
C1776 C1778 1.391 . S
C1777 C1776 1.386 . S
C1777 C1781 1.393 . S
C1778 H1770 0.950 . S
C1778 C1776 1.391 . S
C1778 C1779 1.400 . S
C1779 C1778 1.400 . S
C1779 C1780 1.398 . S
C1779 C1785 1.491 . S
C1780 H1771 0.950 . S
C1780 C1779 1.398 . S
C1780 C1781 1.391 . S
C1781 H1769 0.950 . S
C1781 C1777 1.393 . S
C1781 C1780 1.391 . S
C1782 H1772 0.950 . S
C1782 C1783 1.386 . S
C1782 C1784 1.391 . S
C1783 C1782 1.386 . S
C1783 C1787 1.393 . S
C1784 H1773 0.950 . S
C1784 C1782 1.391 . S
C1784 C1785 1.400 . S
C1785 C1779 1.491 . S
C1785 C1784 1.400 . S
C1785 C1786 1.398 . S
C1786 H1774 0.950 . S
C1786 C1785 1.398 . S
C1786 C1787 1.391 . S
C1787 H1775 0.950 . S
C1787 C1783 1.393 . S
C1787 C1786 1.391 . S
H1788 C1796 0.950 . S
H1789 C1801 0.950 . S
H1790 C1798 0.950 . S
H1791 C1800 0.950 . S
H1792 C1802 0.950 . S
H1793 C1804 0.950 . S
H1794 C1806 0.950 . S
H1795 C1807 0.950 . S
C1796 H1788 0.950 . S
C1796 C1797 1.386 . S
C1796 C1798 1.391 . S
C1797 C1796 1.386 . S
C1797 C1801 1.393 . S
C1798 H1790 0.950 . S
C1798 C1796 1.391 . S
C1798 C1799 1.400 . S
C1799 C1798 1.400 . S
C1799 C1800 1.398 . S
C1799 C1805 1.491 . S
C1800 H1791 0.950 . S
C1800 C1799 1.398 . S
C1800 C1801 1.391 . S
C1801 H1789 0.950 . S
C1801 C1797 1.393 . S
C1801 C1800 1.391 . S
C1802 H1792 0.950 . S
C1802 C1803 1.386 . S
C1802 C1804 1.391 . S
C1803 C1802 1.386 . S
C1803 C1807 1.393 . S
C1804 H1793 0.950 . S
C1804 C1802 1.391 . S
C1804 C1805 1.400 . S
C1805 C1799 1.491 . S
C1805 C1804 1.400 . S
C1805 C1806 1.398 . S
C1806 H1794 0.950 . S
C1806 C1805 1.398 . S
C1806 C1807 1.391 . S
C1807 H1795 0.950 . S
C1807 C1803 1.393 . S
C1807 C1806 1.391 . S
H1808 C1816 0.950 . S
H1809 C1821 0.950 . S
H1810 C1818 0.950 . S
H1811 C1820 0.950 . S
H1812 C1822 0.950 . S
H1813 C1824 0.950 . S
H1814 C1826 0.950 . S
H1815 C1827 0.950 . S
C1816 H1808 0.950 . S
C1816 C1817 1.386 . S
C1816 C1818 1.391 . S
C1817 C1816 1.386 . S
C1817 C1821 1.393 . S
C1818 H1810 0.950 . S
C1818 C1816 1.391 . S
C1818 C1819 1.400 . S
C1819 C1818 1.400 . S
C1819 C1820 1.398 . S
C1819 C1825 1.491 . S
C1820 H1811 0.950 . S
C1820 C1819 1.398 . S
C1820 C1821 1.391 . S
C1821 H1809 0.950 . S
C1821 C1817 1.393 . S
C1821 C1820 1.391 . S
C1822 H1812 0.950 . S
C1822 C1823 1.386 . S
C1822 C1824 1.391 . S
C1823 C1822 1.386 . S
C1823 C1827 1.393 . S
C1824 H1813 0.950 . S
C1824 C1822 1.391 . S
C1824 C1825 1.400 . S
C1825 C1819 1.491 . S
C1825 C1824 1.400 . S
C1825 C1826 1.398 . S
C1826 H1814 0.950 . S
C1826 C1825 1.398 . S
C1826 C1827 1.391 . S
C1827 H1815 0.950 . S
C1827 C1823 1.393 . S
C1827 C1826 1.391 . S
H1828 C1836 0.950 . S
H1829 C1841 0.950 . S
H1830 C1838 0.950 . S
H1831 C1840 0.950 . S
H1832 C1842 0.950 . S
H1833 C1844 0.950 . S
H1834 C1846 0.950 . S
H1835 C1847 0.950 . S
C1836 H1828 0.950 . S
C1836 C1837 1.386 . S
C1836 C1838 1.391 . S
C1837 C1836 1.386 . S
C1837 C1841 1.393 . S
C1838 H1830 0.950 . S
C1838 C1836 1.391 . S
C1838 C1839 1.400 . S
C1839 C1838 1.400 . S
C1839 C1840 1.398 . S
C1839 C1845 1.491 . S
C1840 H1831 0.950 . S
C1840 C1839 1.398 . S
C1840 C1841 1.391 . S
C1841 H1829 0.950 . S
C1841 C1837 1.393 . S
C1841 C1840 1.391 . S
C1842 H1832 0.950 . S
C1842 C1843 1.386 . S
C1842 C1844 1.391 . S
C1843 C1842 1.386 . S
C1843 C1847 1.393 . S
C1844 H1833 0.950 . S
C1844 C1842 1.391 . S
C1844 C1845 1.400 . S
C1845 C1839 1.491 . S
C1845 C1844 1.400 . S
C1845 C1846 1.398 . S
C1846 H1834 0.950 . S
C1846 C1845 1.398 . S
C1846 C1847 1.391 . S
C1847 H1835 0.950 . S
C1847 C1843 1.393 . S
C1847 C1846 1.391 . S
H1848 C1856 0.950 . S
H1849 C1861 0.950 . S
H1850 C1858 0.950 . S
H1851 C1860 0.950 . S
H1852 C1862 0.950 . S
H1853 C1864 0.950 . S
H1854 C1866 0.950 . S
H1855 C1867 0.950 . S
C1856 H1848 0.950 . S
C1856 C1857 1.386 . S
C1856 C1858 1.391 . S
C1857 C1856 1.386 . S
C1857 C1861 1.393 . S
C1858 H1850 0.950 . S
C1858 C1856 1.391 . S
C1858 C1859 1.400 . S
C1859 C1858 1.400 . S
C1859 C1860 1.398 . S
C1859 C1865 1.491 . S
C1860 H1851 0.950 . S
C1860 C1859 1.398 . S
C1860 C1861 1.391 . S
C1861 H1849 0.950 . S
C1861 C1857 1.393 . S
C1861 C1860 1.391 . S
C1862 H1852 0.950 . S
C1862 C1863 1.386 . S
C1862 C1864 1.391 . S
C1863 C1862 1.386 . S
C1863 C1867 1.393 . S
C1864 H1853 0.950 . S
C1864 C1862 1.391 . S
C1864 C1865 1.400 . S
C1865 C1859 1.491 . S
C1865 C1864 1.400 . S
C1865 C1866 1.398 . S
C1866 H1854 0.950 . S
C1866 C1865 1.398 . S
C1866 C1867 1.391 . S
C1867 H1855 0.950 . S
C1867 C1863 1.393 . S
C1867 C1866 1.391 . S
H1868 C1876 0.950 . S
H1869 C1881 0.950 . S
H1870 C1878 0.950 . S
H1871 C1880 0.950 . S
H1872 C1882 0.950 . S
H1873 C1884 0.950 . S
H1874 C1886 0.950 . S
H1875 C1887 0.950 . S
C1876 H1868 0.950 . S
C1876 C1877 1.386 . S
C1876 C1878 1.391 . S
C1877 C1876 1.386 . S
C1877 C1881 1.393 . S
C1878 H1870 0.950 . S
C1878 C1876 1.391 . S
C1878 C1879 1.400 . S
C1879 C1878 1.400 . S
C1879 C1880 1.398 . S
C1879 C1885 1.491 . S
C1880 H1871 0.950 . S
C1880 C1879 1.398 . S
C1880 C1881 1.391 . S
C1881 H1869 0.950 . S
C1881 C1877 1.393 . S
C1881 C1880 1.391 . S
C1882 H1872 0.950 . S
C1882 C1883 1.386 . S
C1882 C1884 1.391 . S
C1883 C1882 1.386 . S
C1883 C1887 1.393 . S
C1884 H1873 0.950 . S
C1884 C1882 1.391 . S
C1884 C1885 1.400 . S
C1885 C1879 1.491 . S
C1885 C1884 1.400 . S
C1885 C1886 1.398 . S
C1886 H1874 0.950 . S
C1886 C1885 1.398 . S
C1886 C1887 1.391 . S
C1887 H1875 0.950 . S
C1887 C1883 1.393 . S
C1887 C1886 1.391 . S
H1888 C1896 0.950 . S
H1889 C1901 0.950 . S
H1890 C1898 0.950 . S
H1891 C1900 0.950 . S
H1892 C1902 0.950 . S
H1893 C1904 0.950 . S
H1894 C1906 0.950 . S
H1895 C1907 0.950 . S
C1896 H1888 0.950 . S
C1896 C1897 1.386 . S
C1896 C1898 1.391 . S
C1897 C1896 1.386 . S
C1897 C1901 1.393 . S
C1898 H1890 0.950 . S
C1898 C1896 1.391 . S
C1898 C1899 1.400 . S
C1899 C1898 1.400 . S
C1899 C1900 1.398 . S
C1899 C1905 1.491 . S
C1900 H1891 0.950 . S
C1900 C1899 1.398 . S
C1900 C1901 1.391 . S
C1901 H1889 0.950 . S
C1901 C1897 1.393 . S
C1901 C1900 1.391 . S
C1902 H1892 0.950 . S
C1902 C1903 1.386 . S
C1902 C1904 1.391 . S
C1903 C1902 1.386 . S
C1903 C1907 1.393 . S
C1904 H1893 0.950 . S
C1904 C1902 1.391 . S
C1904 C1905 1.400 . S
C1905 C1899 1.491 . S
C1905 C1904 1.400 . S
C1905 C1906 1.398 . S
C1906 H1894 0.950 . S
C1906 C1905 1.398 . S
C1906 C1907 1.391 . S
C1907 H1895 0.950 . S
C1907 C1903 1.393 . S
C1907 C1906 1.391 . S
H1908 C1916 0.950 . S
H1909 C1921 0.950 . S
H1910 C1918 0.950 . S
H1911 C1920 0.950 . S
H1912 C1922 0.950 . S
H1913 C1924 0.950 . S
H1914 C1926 0.950 . S
H1915 C1927 0.950 . S
C1916 H1908 0.950 . S
C1916 C1917 1.386 . S
C1916 C1918 1.391 . S
C1917 C1916 1.386 . S
C1917 C1921 1.393 . S
C1918 H1910 0.950 . S
C1918 C1916 1.391 . S
C1918 C1919 1.400 . S
C1919 C1918 1.400 . S
C1919 C1920 1.398 . S
C1919 C1925 1.491 . S
C1920 H1911 0.950 . S
C1920 C1919 1.398 . S
C1920 C1921 1.391 . S
C1921 H1909 0.950 . S
C1921 C1917 1.393 . S
C1921 C1920 1.391 . S
C1922 H1912 0.950 . S
C1922 C1923 1.386 . S
C1922 C1924 1.391 . S
C1923 C1922 1.386 . S
C1923 C1927 1.393 . S
C1924 H1913 0.950 . S
C1924 C1922 1.391 . S
C1924 C1925 1.400 . S
C1925 C1919 1.491 . S
C1925 C1924 1.400 . S
C1925 C1926 1.398 . S
C1926 H1914 0.950 . S
C1926 C1925 1.398 . S
C1926 C1927 1.391 . S
C1927 H1915 0.950 . S
C1927 C1923 1.393 . S
C1927 C1926 1.391 . S
H1928 C1936 0.950 . S
H1929 C1941 0.950 . S
H1930 C1938 0.950 . S
H1931 C1940 0.950 . S
H1932 C1942 0.950 . S
H1933 C1944 0.950 . S
H1934 C1946 0.950 . S
H1935 C1947 0.950 . S
C1936 H1928 0.950 . S
C1936 C1937 1.386 . S
C1936 C1938 1.391 . S
C1937 C1936 1.386 . S
C1937 C1941 1.393 . S
C1938 H1930 0.950 . S
C1938 C1936 1.391 . S
C1938 C1939 1.400 . S
C1939 C1938 1.400 . S
C1939 C1940 1.398 . S
C1939 C1945 1.491 . S
C1940 H1931 0.950 . S
C1940 C1939 1.398 . S
C1940 C1941 1.391 . S
C1941 H1929 0.950 . S
C1941 C1937 1.393 . S
C1941 C1940 1.391 . S
C1942 H1932 0.950 . S
C1942 C1943 1.386 . S
C1942 C1944 1.391 . S
C1943 C1942 1.386 . S
C1943 C1947 1.393 . S
C1944 H1933 0.950 . S
C1944 C1942 1.391 . S
C1944 C1945 1.400 . S
C1945 C1939 1.491 . S
C1945 C1944 1.400 . S
C1945 C1946 1.398 . S
C1946 H1934 0.950 . S
C1946 C1945 1.398 . S
C1946 C1947 1.391 . S
C1947 H1935 0.950 . S
C1947 C1943 1.393 . S
C1947 C1946 1.391 . S
H1948 C1956 0.950 . S
H1949 C1961 0.950 . S
H1950 C1958 0.950 . S
H1951 C1960 0.950 . S
H1952 C1962 0.950 . S
H1953 C1964 0.950 . S
H1954 C1966 0.950 . S
H1955 C1967 0.950 . S
C1956 H1948 0.950 . S
C1956 C1957 1.386 . S
C1956 C1958 1.391 . S
C1957 C1956 1.386 . S
C1957 C1961 1.393 . S
C1958 H1950 0.950 . S
C1958 C1956 1.391 . S
C1958 C1959 1.400 . S
C1959 C1958 1.400 . S
C1959 C1960 1.398 . S
C1959 C1965 1.491 . S
C1960 H1951 0.950 . S
C1960 C1959 1.398 . S
C1960 C1961 1.391 . S
C1961 H1949 0.950 . S
C1961 C1957 1.393 . S
C1961 C1960 1.391 . S
C1962 H1952 0.950 . S
C1962 C1963 1.386 . S
C1962 C1964 1.391 . S
C1963 C1962 1.386 . S
C1963 C1967 1.393 . S
C1964 H1953 0.950 . S
C1964 C1962 1.391 . S
C1964 C1965 1.400 . S
C1965 C1959 1.491 . S
C1965 C1964 1.400 . S
C1965 C1966 1.398 . S
C1966 H1954 0.950 . S
C1966 C1965 1.398 . S
C1966 C1967 1.391 . S
C1967 H1955 0.950 . S
C1967 C1963 1.393 . S
C1967 C1966 1.391 . S
H1968 C1976 0.950 . S
H1969 C1981 0.950 . S
H1970 C1978 0.950 . S
H1971 C1980 0.950 . S
H1972 C1982 0.950 . S
H1973 C1984 0.950 . S
H1974 C1986 0.950 . S
H1975 C1987 0.950 . S
C1976 H1968 0.950 . S
C1976 C1977 1.386 . S
C1976 C1978 1.391 . S
C1977 C1976 1.386 . S
C1977 C1981 1.393 . S
C1978 H1970 0.950 . S
C1978 C1976 1.391 . S
C1978 C1979 1.400 . S
C1979 C1978 1.400 . S
C1979 C1980 1.398 . S
C1979 C1985 1.491 . S
C1980 H1971 0.950 . S
C1980 C1979 1.398 . S
C1980 C1981 1.391 . S
C1981 H1969 0.950 . S
C1981 C1977 1.393 . S
C1981 C1980 1.391 . S
C1982 H1972 0.950 . S
C1982 C1983 1.386 . S
C1982 C1984 1.391 . S
C1983 C1982 1.386 . S
C1983 C1987 1.393 . S
C1984 H1973 0.950 . S
C1984 C1982 1.391 . S
C1984 C1985 1.400 . S
C1985 C1979 1.491 . S
C1985 C1984 1.400 . S
C1985 C1986 1.398 . S
C1986 H1974 0.950 . S
C1986 C1985 1.398 . S
C1986 C1987 1.391 . S
C1987 H1975 0.950 . S
C1987 C1983 1.393 . S
C1987 C1986 1.391 . S
H1988 C1996 0.950 . S
H1989 C2001 0.950 . S
H1990 C1998 0.950 . S
H1991 C2000 0.950 . S
H1992 C2002 0.950 . S
H1993 C2004 0.950 . S
H1994 C2006 0.950 . S
H1995 C2007 0.950 . S
C1996 H1988 0.950 . S
C1996 C1997 1.386 . S
C1996 C1998 1.391 . S
C1997 C1996 1.386 . S
C1997 C2001 1.393 . S
C1998 H1990 0.950 . S
C1998 C1996 1.391 . S
C1998 C1999 1.400 . S
C1999 C1998 1.400 . S
C1999 C2000 1.398 . S
C1999 C2005 1.491 . S
C2000 H1991 0.950 . S
C2000 C1999 1.398 . S
C2000 C2001 1.391 . S
C2001 H1989 0.950 . S
C2001 C1997 1.393 . S
C2001 C2000 1.391 . S
C2002 H1992 0.950 . S
C2002 C2003 1.386 . S
C2002 C2004 1.391 . S
C2003 C2002 1.386 . S
C2003 C2007 1.393 . S
C2004 H1993 0.950 . S
C2004 C2002 1.391 . S
C2004 C2005 1.400 . S
C2005 C1999 1.491 . S
C2005 C2004 1.400 . S
C2005 C2006 1.398 . S
C2006 H1994 0.950 . S
C2006 C2005 1.398 . S
C2006 C2007 1.391 . S
C2007 H1995 0.950 . S
C2007 C2003 1.393 . S
C2007 C2006 1.391 . S
H2008 C2016 0.950 . S
H2009 C2021 0.950 . S
H2010 C2018 0.950 . S
H2011 C2020 0.950 . S
H2012 C2022 0.950 . S
H2013 C2024 0.950 . S
H2014 C2026 0.950 . S
H2015 C2027 0.950 . S
C2016 H2008 0.950 . S
C2016 C2017 1.386 . S
C2016 C2018 1.391 . S
C2017 C2016 1.386 . S
C2017 C2021 1.393 . S
C2018 H2010 0.950 . S
C2018 C2016 1.391 . S
C2018 C2019 1.400 . S
C2019 C2018 1.400 . S
C2019 C2020 1.398 . S
C2019 C2025 1.491 . S
C2020 H2011 0.950 . S
C2020 C2019 1.398 . S
C2020 C2021 1.391 . S
C2021 H2009 0.950 . S
C2021 C2017 1.393 . S
C2021 C2020 1.391 . S
C2022 H2012 0.950 . S
C2022 C2023 1.386 . S
C2022 C2024 1.391 . S
C2023 C2022 1.386 . S
C2023 C2027 1.393 . S
C2024 H2013 0.950 . S
C2024 C2022 1.391 . S
C2024 C2025 1.400 . S
C2025 C2019 1.491 . S
C2025 C2024 1.400 . S
C2025 C2026 1.398 . S
C2026 H2014 0.950 . S
C2026 C2025 1.398 . S
C2026 C2027 1.391 . S
C2027 H2015 0.950 . S
C2027 C2023 1.393 . S
C2027 C2026 1.391 . S
H2028 C2036 0.950 . S
H2029 C2041 0.950 . S
H2030 C2038 0.950 . S
H2031 C2040 0.950 . S
H2032 C2042 0.950 . S
H2033 C2044 0.950 . S
H2034 C2046 0.950 . S
H2035 C2047 0.950 . S
C2036 H2028 0.950 . S
C2036 C2037 1.386 . S
C2036 C2038 1.391 . S
C2037 C2036 1.386 . S
C2037 C2041 1.393 . S
C2038 H2030 0.950 . S
C2038 C2036 1.391 . S
C2038 C2039 1.400 . S
C2039 C2038 1.400 . S
C2039 C2040 1.398 . S
C2039 C2045 1.491 . S
C2040 H2031 0.950 . S
C2040 C2039 1.398 . S
C2040 C2041 1.391 . S
C2041 H2029 0.950 . S
C2041 C2037 1.393 . S
C2041 C2040 1.391 . S
C2042 H2032 0.950 . S
C2042 C2043 1.386 . S
C2042 C2044 1.391 . S
C2043 C2042 1.386 . S
C2043 C2047 1.393 . S
C2044 H2033 0.950 . S
C2044 C2042 1.391 . S
C2044 C2045 1.400 . S
C2045 C2039 1.491 . S
C2045 C2044 1.400 . S
C2045 C2046 1.398 . S
C2046 H2034 0.950 . S
C2046 C2045 1.398 . S
C2046 C2047 1.391 . S
C2047 H2035 0.950 . S
C2047 C2043 1.393 . S
C2047 C2046 1.391 . S
H2048 C2056 0.950 . S
H2049 C2061 0.950 . S
H2050 C2058 0.950 . S
H2051 C2060 0.950 . S
H2052 C2062 0.950 . S
H2053 C2064 0.950 . S
H2054 C2066 0.950 . S
H2055 C2067 0.950 . S
C2056 H2048 0.950 . S
C2056 C2057 1.386 . S
C2056 C2058 1.391 . S
C2057 C2056 1.386 . S
C2057 C2061 1.393 . S
C2058 H2050 0.950 . S
C2058 C2056 1.391 . S
C2058 C2059 1.400 . S
C2059 C2058 1.400 . S
C2059 C2060 1.398 . S
C2059 C2065 1.491 . S
C2060 H2051 0.950 . S
C2060 C2059 1.398 . S
C2060 C2061 1.391 . S
C2061 H2049 0.950 . S
C2061 C2057 1.393 . S
C2061 C2060 1.391 . S
C2062 H2052 0.950 . S
C2062 C2063 1.386 . S
C2062 C2064 1.391 . S
C2063 C2062 1.386 . S
C2063 C2067 1.393 . S
C2064 H2053 0.950 . S
C2064 C2062 1.391 . S
C2064 C2065 1.400 . S
C2065 C2059 1.491 . S
C2065 C2064 1.400 . S
C2065 C2066 1.398 . S
C2066 H2054 0.950 . S
C2066 C2065 1.398 . S
C2066 C2067 1.391 . S
C2067 H2055 0.950 . S
C2067 C2063 1.393 . S
C2067 C2066 1.391 . S
H2068 C2076 0.950 . S
H2069 C2081 0.950 . S
H2070 C2078 0.950 . S
H2071 C2080 0.950 . S
H2072 C2082 0.950 . S
H2073 C2084 0.950 . S
H2074 C2086 0.950 . S
H2075 C2087 0.950 . S
C2076 H2068 0.950 . S
C2076 C2077 1.386 . S
C2076 C2078 1.391 . S
C2077 C2076 1.386 . S
C2077 C2081 1.393 . S
C2078 H2070 0.950 . S
C2078 C2076 1.391 . S
C2078 C2079 1.400 . S
C2079 C2078 1.400 . S
C2079 C2080 1.398 . S
C2079 C2085 1.491 . S
C2080 H2071 0.950 . S
C2080 C2079 1.398 . S
C2080 C2081 1.391 . S
C2081 H2069 0.950 . S
C2081 C2077 1.393 . S
C2081 C2080 1.391 . S
C2082 H2072 0.950 . S
C2082 C2083 1.386 . S
C2082 C2084 1.391 . S
C2083 C2082 1.386 . S
C2083 C2087 1.393 . S
C2084 H2073 0.950 . S
C2084 C2082 1.391 . S
C2084 C2085 1.400 . S
C2085 C2079 1.491 . S
C2085 C2084 1.400 . S
C2085 C2086 1.398 . S
C2086 H2074 0.950 . S
C2086 C2085 1.398 . S
C2086 C2087 1.391 . S
C2087 H2075 0.950 . S
C2087 C2083 1.393 . S
C2087 C2086 1.391 . S
H2088 C2096 0.950 . S
H2089 C2101 0.950 . S
H2090 C2098 0.950 . S
H2091 C2100 0.950 . S
H2092 C2102 0.950 . S
H2093 C2104 0.950 . S
H2094 C2106 0.950 . S
H2095 C2107 0.950 . S
C2096 H2088 0.950 . S
C2096 C2097 1.386 . S
C2096 C2098 1.391 . S
C2097 C2096 1.386 . S
C2097 C2101 1.393 . S
C2098 H2090 0.950 . S
C2098 C2096 1.391 . S
C2098 C2099 1.400 . S
C2099 C2098 1.400 . S
C2099 C2100 1.398 . S
C2099 C2105 1.491 . S
C2100 H2091 0.950 . S
C2100 C2099 1.398 . S
C2100 C2101 1.391 . S
C2101 H2089 0.950 . S
C2101 C2097 1.393 . S
C2101 C2100 1.391 . S
C2102 H2092 0.950 . S
C2102 C2103 1.386 . S
C2102 C2104 1.391 . S
C2103 C2102 1.386 . S
C2103 C2107 1.393 . S
C2104 H2093 0.950 . S
C2104 C2102 1.391 . S
C2104 C2105 1.400 . S
C2105 C2099 1.491 . S
C2105 C2104 1.400 . S
C2105 C2106 1.398 . S
C2106 H2094 0.950 . S
C2106 C2105 1.398 . S
C2106 C2107 1.391 . S
C2107 H2095 0.950 . S
C2107 C2103 1.393 . S
C2107 C2106 1.391 . S
H2108 C2116 0.950 . S
H2109 C2121 0.950 . S
H2110 C2118 0.950 . S
H2111 C2120 0.950 . S
H2112 C2122 0.950 . S
H2113 C2124 0.950 . S
H2114 C2126 0.950 . S
H2115 C2127 0.950 . S
C2116 H2108 0.950 . S
C2116 C2117 1.386 . S
C2116 C2118 1.391 . S
C2117 C2116 1.386 . S
C2117 C2121 1.393 . S
C2118 H2110 0.950 . S
C2118 C2116 1.391 . S
C2118 C2119 1.400 . S
C2119 C2118 1.400 . S
C2119 C2120 1.398 . S
C2119 C2125 1.491 . S
C2120 H2111 0.950 . S
C2120 C2119 1.398 . S
C2120 C2121 1.391 . S
C2121 H2109 0.950 . S
C2121 C2117 1.393 . S
C2121 C2120 1.391 . S
C2122 H2112 0.950 . S
C2122 C2123 1.386 . S
C2122 C2124 1.391 . S
C2123 C2122 1.386 . S
C2123 C2127 1.393 . S
C2124 H2113 0.950 . S
C2124 C2122 1.391 . S
C2124 C2125 1.400 . S
C2125 C2119 1.491 . S
C2125 C2124 1.400 . S
C2125 C2126 1.398 . S
C2126 H2114 0.950 . S
C2126 C2125 1.398 . S
C2126 C2127 1.391 . S
C2127 H2115 0.950 . S
C2127 C2123 1.393 . S
C2127 C2126 1.391 . S
H2128 C2136 0.950 . S
H2129 C2141 0.950 . S
H2130 C2138 0.950 . S
H2131 C2140 0.950 . S
H2132 C2142 0.950 . S
H2133 C2144 0.950 . S
H2134 C2146 0.950 . S
H2135 C2147 0.950 . S
C2136 H2128 0.950 . S
C2136 C2137 1.386 . S
C2136 C2138 1.391 . S
C2137 C2136 1.386 . S
C2137 C2141 1.393 . S
C2138 H2130 0.950 . S
C2138 C2136 1.391 . S
C2138 C2139 1.400 . S
C2139 C2138 1.400 . S
C2139 C2140 1.398 . S
C2139 C2145 1.491 . S
C2140 H2131 0.950 . S
C2140 C2139 1.398 . S
C2140 C2141 1.391 . S
C2141 H2129 0.950 . S
C2141 C2137 1.393 . S
C2141 C2140 1.391 . S
C2142 H2132 0.950 . S
C2142 C2143 1.386 . S
C2142 C2144 1.391 . S
C2143 C2142 1.386 . S
C2143 C2147 1.393 . S
C2144 H2133 0.950 . S
C2144 C2142 1.391 . S
C2144 C2145 1.400 . S
C2145 C2139 1.491 . S
C2145 C2144 1.400 . S
C2145 C2146 1.398 . S
C2146 H2134 0.950 . S
C2146 C2145 1.398 . S
C2146 C2147 1.391 . S
C2147 H2135 0.950 . S
C2147 C2143 1.393 . S
C2147 C2146 1.391 . S
H2148 C2156 0.950 . S
H2149 C2161 0.950 . S
H2150 C2158 0.950 . S
H2151 C2160 0.950 . S
H2152 C2162 0.950 . S
H2153 C2164 0.950 . S
H2154 C2166 0.950 . S
H2155 C2167 0.950 . S
C2156 H2148 0.950 . S
C2156 C2157 1.386 . S
C2156 C2158 1.391 . S
C2157 C2156 1.386 . S
C2157 C2161 1.393 . S
C2158 H2150 0.950 . S
C2158 C2156 1.391 . S
C2158 C2159 1.400 . S
C2159 C2158 1.400 . S
C2159 C2160 1.398 . S
C2159 C2165 1.491 . S
C2160 H2151 0.950 . S
C2160 C2159 1.398 . S
C2160 C2161 1.391 . S
C2161 H2149 0.950 . S
C2161 C2157 1.393 . S
C2161 C2160 1.391 . S
C2162 H2152 0.950 . S
C2162 C2163 1.386 . S
C2162 C2164 1.391 . S
C2163 C2162 1.386 . S
C2163 C2167 1.393 . S
C2164 H2153 0.950 . S
C2164 C2162 1.391 . S
C2164 C2165 1.400 . S
C2165 C2159 1.491 . S
C2165 C2164 1.400 . S
C2165 C2166 1.398 . S
C2166 H2154 0.950 . S
C2166 C2165 1.398 . S
C2166 C2167 1.391 . S
C2167 H2155 0.950 . S
C2167 C2163 1.393 . S
C2167 C2166 1.391 . S
H2168 C2176 0.950 . S
H2169 C2181 0.950 . S
H2170 C2178 0.950 . S
H2171 C2180 0.950 . S
H2172 C2182 0.950 . S
H2173 C2184 0.950 . S
H2174 C2186 0.950 . S
H2175 C2187 0.950 . S
C2176 H2168 0.950 . S
C2176 C2177 1.386 . S
C2176 C2178 1.391 . S
C2177 C2176 1.386 . S
C2177 C2181 1.393 . S
C2178 H2170 0.950 . S
C2178 C2176 1.391 . S
C2178 C2179 1.400 . S
C2179 C2178 1.400 . S
C2179 C2180 1.398 . S
C2179 C2185 1.491 . S
C2180 H2171 0.950 . S
C2180 C2179 1.398 . S
C2180 C2181 1.391 . S
C2181 H2169 0.950 . S
C2181 C2177 1.393 . S
C2181 C2180 1.391 . S
C2182 H2172 0.950 . S
C2182 C2183 1.386 . S
C2182 C2184 1.391 . S
C2183 C2182 1.386 . S
C2183 C2187 1.393 . S
C2184 H2173 0.950 . S
C2184 C2182 1.391 . S
C2184 C2185 1.400 . S
C2185 C2179 1.491 . S
C2185 C2184 1.400 . S
C2185 C2186 1.398 . S
C2186 H2174 0.950 . S
C2186 C2185 1.398 . S
C2186 C2187 1.391 . S
C2187 H2175 0.950 . S
C2187 C2183 1.393 . S
C2187 C2186 1.391 . S
H2188 C2196 0.950 . S
H2189 C2201 0.950 . S
H2190 C2198 0.950 . S
H2191 C2200 0.950 . S
H2192 C2202 0.950 . S
H2193 C2204 0.950 . S
H2194 C2206 0.950 . S
H2195 C2207 0.950 . S
C2196 H2188 0.950 . S
C2196 C2197 1.386 . S
C2196 C2198 1.391 . S
C2197 C2196 1.386 . S
C2197 C2201 1.393 . S
C2198 H2190 0.950 . S
C2198 C2196 1.391 . S
C2198 C2199 1.400 . S
C2199 C2198 1.400 . S
C2199 C2200 1.398 . S
C2199 C2205 1.491 . S
C2200 H2191 0.950 . S
C2200 C2199 1.398 . S
C2200 C2201 1.391 . S
C2201 H2189 0.950 . S
C2201 C2197 1.393 . S
C2201 C2200 1.391 . S
C2202 H2192 0.950 . S
C2202 C2203 1.386 . S
C2202 C2204 1.391 . S
C2203 C2202 1.386 . S
C2203 C2207 1.393 . S
C2204 H2193 0.950 . S
C2204 C2202 1.391 . S
C2204 C2205 1.400 . S
C2205 C2199 1.491 . S
C2205 C2204 1.400 . S
C2205 C2206 1.398 . S
C2206 H2194 0.950 . S
C2206 C2205 1.398 . S
C2206 C2207 1.391 . S
C2207 H2195 0.950 . S
C2207 C2203 1.393 . S
C2207 C2206 1.391 . S
H2208 C2216 0.950 . S
H2209 C2221 0.950 . S
H2210 C2218 0.950 . S
H2211 C2220 0.950 . S
H2212 C2222 0.950 . S
H2213 C2224 0.950 . S
H2214 C2226 0.950 . S
H2215 C2227 0.950 . S
C2216 H2208 0.950 . S
C2216 C2217 1.386 . S
C2216 C2218 1.391 . S
C2217 C2216 1.386 . S
C2217 C2221 1.393 . S
C2218 H2210 0.950 . S
C2218 C2216 1.391 . S
C2218 C2219 1.400 . S
C2219 C2218 1.400 . S
C2219 C2220 1.398 . S
C2219 C2225 1.491 . S
C2220 H2211 0.950 . S
C2220 C2219 1.398 . S
C2220 C2221 1.391 . S
C2221 H2209 0.950 . S
C2221 C2217 1.393 . S
C2221 C2220 1.391 . S
C2222 H2212 0.950 . S
C2222 C2223 1.386 . S
C2222 C2224 1.391 . S
C2223 C2222 1.386 . S
C2223 C2227 1.393 . S
C2224 H2213 0.950 . S
C2224 C2222 1.391 . S
C2224 C2225 1.400 . S
C2225 C2219 1.491 . S
C2225 C2224 1.400 . S
C2225 C2226 1.398 . S
C2226 H2214 0.950 . S
C2226 C2225 1.398 . S
C2226 C2227 1.391 . S
C2227 H2215 0.950 . S
C2227 C2223 1.393 . S
C2227 C2226 1.391 . S
H2228 C2236 0.950 . S
H2229 C2241 0.950 . S
H2230 C2238 0.950 . S
H2231 C2240 0.950 . S
H2232 C2242 0.950 . S
H2233 C2244 0.950 . S
H2234 C2246 0.950 . S
H2235 C2247 0.950 . S
C2236 H2228 0.950 . S
C2236 C2237 1.386 . S
C2236 C2238 1.391 . S
C2237 C2236 1.386 . S
C2237 C2241 1.393 . S
C2238 H2230 0.950 . S
C2238 C2236 1.391 . S
C2238 C2239 1.400 . S
C2239 C2238 1.400 . S
C2239 C2240 1.398 . S
C2239 C2245 1.491 . S
C2240 H2231 0.950 . S
C2240 C2239 1.398 . S
C2240 C2241 1.391 . S
C2241 H2229 0.950 . S
C2241 C2237 1.393 . S
C2241 C2240 1.391 . S
C2242 H2232 0.950 . S
C2242 C2243 1.386 . S
C2242 C2244 1.391 . S
C2243 C2242 1.386 . S
C2243 C2247 1.393 . S
C2244 H2233 0.950 . S
C2244 C2242 1.391 . S
C2244 C2245 1.400 . S
C2245 C2239 1.491 . S
C2245 C2244 1.400 . S
C2245 C2246 1.398 . S
C2246 H2234 0.950 . S
C2246 C2245 1.398 . S
C2246 C2247 1.391 . S
C2247 H2235 0.950 . S
C2247 C2243 1.393 . S
C2247 C2246 1.391 . S
H2248 C2256 0.950 . S
H2249 C2261 0.950 . S
H2250 C2258 0.950 . S
H2251 C2260 0.950 . S
H2252 C2262 0.950 . S
H2253 C2264 0.950 . S
H2254 C2266 0.950 . S
H2255 C2267 0.950 . S
C2256 H2248 0.950 . S
C2256 C2257 1.386 . S
C2256 C2258 1.391 . S
C2257 C2256 1.386 . S
C2257 C2261 1.393 . S
C2258 H2250 0.950 . S
C2258 C2256 1.391 . S
C2258 C2259 1.400 . S
C2259 C2258 1.400 . S
C2259 C2260 1.398 . S
C2259 C2265 1.491 . S
C2260 H2251 0.950 . S
C2260 C2259 1.398 . S
C2260 C2261 1.391 . S
C2261 H2249 0.950 . S
C2261 C2257 1.393 . S
C2261 C2260 1.391 . S
C2262 H2252 0.950 . S
C2262 C2263 1.386 . S
C2262 C2264 1.391 . S
C2263 C2262 1.386 . S
C2263 C2267 1.393 . S
C2264 H2253 0.950 . S
C2264 C2262 1.391 . S
C2264 C2265 1.400 . S
C2265 C2259 1.491 . S
C2265 C2264 1.400 . S
C2265 C2266 1.398 . S
C2266 H2254 0.950 . S
C2266 C2265 1.398 . S
C2266 C2267 1.391 . S
C2267 H2255 0.950 . S
C2267 C2263 1.393 . S
C2267 C2266 1.391 . S
H2268 C2276 0.950 . S
H2269 C2281 0.950 . S
H2270 C2278 0.950 . S
H2271 C2280 0.950 . S
H2272 C2282 0.950 . S
H2273 C2284 0.950 . S
H2274 C2286 0.950 . S
H2275 C2287 0.950 . S
C2276 H2268 0.950 . S
C2276 C2277 1.386 . S
C2276 C2278 1.391 . S
C2277 C2276 1.386 . S
C2277 C2281 1.393 . S
C2278 H2270 0.950 . S
C2278 C2276 1.391 . S
C2278 C2279 1.400 . S
C2279 C2278 1.400 . S
C2279 C2280 1.398 . S
C2279 C2285 1.491 . S
C2280 H2271 0.950 . S
C2280 C2279 1.398 . S
C2280 C2281 1.391 . S
C2281 H2269 0.950 . S
C2281 C2277 1.393 . S
C2281 C2280 1.391 . S
C2282 H2272 0.950 . S
C2282 C2283 1.386 . S
C2282 C2284 1.391 . S
C2283 C2282 1.386 . S
C2283 C2287 1.393 . S
C2284 H2273 0.950 . S
C2284 C2282 1.391 . S
C2284 C2285 1.400 . S
C2285 C2279 1.491 . S
C2285 C2284 1.400 . S
C2285 C2286 1.398 . S
C2286 H2274 0.950 . S
C2286 C2285 1.398 . S
C2286 C2287 1.391 . S
C2287 H2275 0.950 . S
C2287 C2283 1.393 . S
C2287 C2286 1.391 . S
H2288 C2296 0.950 . S
H2289 C2301 0.950 . S
H2290 C2298 0.950 . S
H2291 C2300 0.950 . S
H2292 C2302 0.950 . S
H2293 C2304 0.950 . S
H2294 C2306 0.950 . S
H2295 C2307 0.950 . S
C2296 H2288 0.950 . S
C2296 C2297 1.386 . S
C2296 C2298 1.391 . S
C2297 C2296 1.386 . S
C2297 C2301 1.393 . S
C2298 H2290 0.950 . S
C2298 C2296 1.391 . S
C2298 C2299 1.400 . S
C2299 C2298 1.400 . S
C2299 C2300 1.398 . S
C2299 C2305 1.491 . S
C2300 H2291 0.950 . S
C2300 C2299 1.398 . S
C2300 C2301 1.391 . S
C2301 H2289 0.950 . S
C2301 C2297 1.393 . S
C2301 C2300 1.391 . S
C2302 H2292 0.950 . S
C2302 C2303 1.386 . S
C2302 C2304 1.391 . S
C2303 C2302 1.386 . S
C2303 C2307 1.393 . S
C2304 H2293 0.950 . S
C2304 C2302 1.391 . S
C2304 C2305 1.400 . S
C2305 C2299 1.491 . S
C2305 C2304 1.400 . S
C2305 C2306 1.398 . S
C2306 H2294 0.950 . S
C2306 C2305 1.398 . S
C2306 C2307 1.391 . S
C2307 H2295 0.950 . S
C2307 C2303 1.393 . S
C2307 C2306 1.391 . S
H2308 C2316 0.950 . S
H2309 C2321 0.950 . S
H2310 C2318 0.950 . S
H2311 C2320 0.950 . S
H2312 C2322 0.950 . S
H2313 C2324 0.950 . S
H2314 C2326 0.950 . S
H2315 C2327 0.950 . S
C2316 H2308 0.950 . S
C2316 C2317 1.386 . S
C2316 C2318 1.391 . S
C2317 C2316 1.386 . S
C2317 C2321 1.393 . S
C2318 H2310 0.950 . S
C2318 C2316 1.391 . S
C2318 C2319 1.400 . S
C2319 C2318 1.400 . S
C2319 C2320 1.398 . S
C2319 C2325 1.491 . S
C2320 H2311 0.950 . S
C2320 C2319 1.398 . S
C2320 C2321 1.391 . S
C2321 H2309 0.950 . S
C2321 C2317 1.393 . S
C2321 C2320 1.391 . S
C2322 H2312 0.950 . S
C2322 C2323 1.386 . S
C2322 C2324 1.391 . S
C2323 C2322 1.386 . S
C2323 C2327 1.393 . S
C2324 H2313 0.950 . S
C2324 C2322 1.391 . S
C2324 C2325 1.400 . S
C2325 C2319 1.491 . S
C2325 C2324 1.400 . S
C2325 C2326 1.398 . S
C2326 H2314 0.950 . S
C2326 C2325 1.398 . S
C2326 C2327 1.391 . S
C2327 H2315 0.950 . S
C2327 C2323 1.393 . S
C2327 C2326 1.391 . S
H2328 C2336 0.950 . S
H2329 C2341 0.950 . S
H2330 C2338 0.950 . S
H2331 C2340 0.950 . S
H2332 C2342 0.950 . S
H2333 C2344 0.950 . S
H2334 C2346 0.950 . S
H2335 C2347 0.950 . S
C2336 H2328 0.950 . S
C2336 C2337 1.386 . S
C2336 C2338 1.391 . S
C2337 C2336 1.386 . S
C2337 C2341 1.393 . S
C2338 H2330 0.950 . S
C2338 C2336 1.391 . S
C2338 C2339 1.400 . S
C2339 C2338 1.400 . S
C2339 C2340 1.398 . S
C2339 C2345 1.491 . S
C2340 H2331 0.950 . S
C2340 C2339 1.398 . S
C2340 C2341 1.391 . S
C2341 H2329 0.950 . S
C2341 C2337 1.393 . S
C2341 C2340 1.391 . S
C2342 H2332 0.950 . S
C2342 C2343 1.386 . S
C2342 C2344 1.391 . S
C2343 C2342 1.386 . S
C2343 C2347 1.393 . S
C2344 H2333 0.950 . S
C2344 C2342 1.391 . S
C2344 C2345 1.400 . S
C2345 C2339 1.491 . S
C2345 C2344 1.400 . S
C2345 C2346 1.398 . S
C2346 H2334 0.950 . S
C2346 C2345 1.398 . S
C2346 C2347 1.391 . S
C2347 H2335 0.950 . S
C2347 C2343 1.393 . S
C2347 C2346 1.391 . S
H2348 C2356 0.950 . S
H2349 C2361 0.950 . S
H2350 C2358 0.950 . S
H2351 C2360 0.950 . S
H2352 C2362 0.950 . S
H2353 C2364 0.950 . S
H2354 C2366 0.950 . S
H2355 C2367 0.950 . S
C2356 H2348 0.950 . S
C2356 C2357 1.386 . S
C2356 C2358 1.391 . S
C2357 C2356 1.386 . S
C2357 C2361 1.393 . S
C2358 H2350 0.950 . S
C2358 C2356 1.391 . S
C2358 C2359 1.400 . S
C2359 C2358 1.400 . S
C2359 C2360 1.398 . S
C2359 C2365 1.491 . S
C2360 H2351 0.950 . S
C2360 C2359 1.398 . S
C2360 C2361 1.391 . S
C2361 H2349 0.950 . S
C2361 C2357 1.393 . S
C2361 C2360 1.391 . S
C2362 H2352 0.950 . S
C2362 C2363 1.386 . S
C2362 C2364 1.391 . S
C2363 C2362 1.386 . S
C2363 C2367 1.393 . S
C2364 H2353 0.950 . S
C2364 C2362 1.391 . S
C2364 C2365 1.400 . S
C2365 C2359 1.491 . S
C2365 C2364 1.400 . S
C2365 C2366 1.398 . S
C2366 H2354 0.950 . S
C2366 C2365 1.398 . S
C2366 C2367 1.391 . S
C2367 H2355 0.950 . S
C2367 C2363 1.393 . S
C2367 C2366 1.391 . S
H2368 C2376 0.950 . S
H2369 C2381 0.950 . S
H2370 C2378 0.950 . S
H2371 C2380 0.950 . S
H2372 C2382 0.950 . S
H2373 C2384 0.950 . S
H2374 C2386 0.950 . S
H2375 C2387 0.950 . S
C2376 H2368 0.950 . S
C2376 C2377 1.386 . S
C2376 C2378 1.391 . S
C2377 C2376 1.386 . S
C2377 C2381 1.393 . S
C2378 H2370 0.950 . S
C2378 C2376 1.391 . S
C2378 C2379 1.400 . S
C2379 C2378 1.400 . S
C2379 C2380 1.398 . S
C2379 C2385 1.491 . S
C2380 H2371 0.950 . S
C2380 C2379 1.398 . S
C2380 C2381 1.391 . S
C2381 H2369 0.950 . S
C2381 C2377 1.393 . S
C2381 C2380 1.391 . S
C2382 H2372 0.950 . S
C2382 C2383 1.386 . S
C2382 C2384 1.391 . S
C2383 C2382 1.386 . S
C2383 C2387 1.393 . S
C2384 H2373 0.950 . S
C2384 C2382 1.391 . S
C2384 C2385 1.400 . S
C2385 C2379 1.491 . S
C2385 C2384 1.400 . S
C2385 C2386 1.398 . S
C2386 H2374 0.950 . S
C2386 C2385 1.398 . S
C2386 C2387 1.391 . S
C2387 H2375 0.950 . S
C2387 C2383 1.393 . S
C2387 C2386 1.391 . S
H2388 C2396 0.950 . S
H2389 C2401 0.950 . S
H2390 C2398 0.950 . S
H2391 C2400 0.950 . S
H2392 C2402 0.950 . S
H2393 C2404 0.950 . S
H2394 C2406 0.950 . S
H2395 C2407 0.950 . S
C2396 H2388 0.950 . S
C2396 C2397 1.386 . S
C2396 C2398 1.391 . S
C2397 C2396 1.386 . S
C2397 C2401 1.393 . S
C2398 H2390 0.950 . S
C2398 C2396 1.391 . S
C2398 C2399 1.400 . S
C2399 C2398 1.400 . S
C2399 C2400 1.398 . S
C2399 C2405 1.491 . S
C2400 H2391 0.950 . S
C2400 C2399 1.398 . S
C2400 C2401 1.391 . S
C2401 H2389 0.950 . S
C2401 C2397 1.393 . S
C2401 C2400 1.391 . S
C2402 H2392 0.950 . S
C2402 C2403 1.386 . S
C2402 C2404 1.391 . S
C2403 C2402 1.386 . S
C2403 C2407 1.393 . S
C2404 H2393 0.950 . S
C2404 C2402 1.391 . S
C2404 C2405 1.400 . S
C2405 C2399 1.491 . S
C2405 C2404 1.400 . S
C2405 C2406 1.398 . S
C2406 H2394 0.950 . S
C2406 C2405 1.398 . S
C2406 C2407 1.391 . S
C2407 H2395 0.950 . S
C2407 C2403 1.393 . S
C2407 C2406 1.391 . S
H2408 C2416 0.950 . S
H2409 C2421 0.950 . S
H2410 C2418 0.950 . S
H2411 C2420 0.950 . S
H2412 C2422 0.950 . S
H2413 C2424 0.950 . S
H2414 C2426 0.950 . S
H2415 C2427 0.950 . S
C2416 H2408 0.950 . S
C2416 C2417 1.386 . S
C2416 C2418 1.391 . S
C2417 C2416 1.386 . S
C2417 C2421 1.393 . S
C2418 H2410 0.950 . S
C2418 C2416 1.391 . S
C2418 C2419 1.400 . S
C2419 C2418 1.400 . S
C2419 C2420 1.398 . S
C2419 C2425 1.491 . S
C2420 H2411 0.950 . S
C2420 C2419 1.398 . S
C2420 C2421 1.391 . S
C2421 H2409 0.950 . S
C2421 C2417 1.393 . S
C2421 C2420 1.391 . S
C2422 H2412 0.950 . S
C2422 C2423 1.386 . S
C2422 C2424 1.391 . S
C2423 C2422 1.386 . S
C2423 C2427 1.393 . S
C2424 H2413 0.950 . S
C2424 C2422 1.391 . S
C2424 C2425 1.400 . S
C2425 C2419 1.491 . S
C2425 C2424 1.400 . S
C2425 C2426 1.398 . S
C2426 H2414 0.950 . S
C2426 C2425 1.398 . S
C2426 C2427 1.391 . S
C2427 H2415 0.950 . S
C2427 C2423 1.393 . S
C2427 C2426 1.391 . S
H2428 C2436 0.950 . S
H2429 C2441 0.950 . S
H2430 C2438 0.950 . S
H2431 C2440 0.950 . S
H2432 C2442 0.950 . S
H2433 C2444 0.950 . S
H2434 C2446 0.950 . S
H2435 C2447 0.950 . S
C2436 H2428 0.950 . S
C2436 C2437 1.386 . S
C2436 C2438 1.391 . S
C2437 C2436 1.386 . S
C2437 C2441 1.393 . S
C2438 H2430 0.950 . S
C2438 C2436 1.391 . S
C2438 C2439 1.400 . S
C2439 C2438 1.400 . S
C2439 C2440 1.398 . S
C2439 C2445 1.491 . S
C2440 H2431 0.950 . S
C2440 C2439 1.398 . S
C2440 C2441 1.391 . S
C2441 H2429 0.950 . S
C2441 C2437 1.393 . S
C2441 C2440 1.391 . S
C2442 H2432 0.950 . S
C2442 C2443 1.386 . S
C2442 C2444 1.391 . S
C2443 C2442 1.386 . S
C2443 C2447 1.393 . S
C2444 H2433 0.950 . S
C2444 C2442 1.391 . S
C2444 C2445 1.400 . S
C2445 C2439 1.491 . S
C2445 C2444 1.400 . S
C2445 C2446 1.398 . S
C2446 H2434 0.950 . S
C2446 C2445 1.398 . S
C2446 C2447 1.391 . S
C2447 H2435 0.950 . S
C2447 C2443 1.393 . S
C2447 C2446 1.391 . S
H2448 C2456 0.950 . S
H2449 C2461 0.950 . S
H2450 C2458 0.950 . S
H2451 C2460 0.950 . S
H2452 C2462 0.950 . S
H2453 C2464 0.950 . S
H2454 C2466 0.950 . S
H2455 C2467 0.950 . S
C2456 H2448 0.950 . S
C2456 C2457 1.386 . S
C2456 C2458 1.391 . S
C2457 C2456 1.386 . S
C2457 C2461 1.393 . S
C2458 H2450 0.950 . S
C2458 C2456 1.391 . S
C2458 C2459 1.400 . S
C2459 C2458 1.400 . S
C2459 C2460 1.398 . S
C2459 C2465 1.491 . S
C2460 H2451 0.950 . S
C2460 C2459 1.398 . S
C2460 C2461 1.391 . S
C2461 H2449 0.950 . S
C2461 C2457 1.393 . S
C2461 C2460 1.391 . S
C2462 H2452 0.950 . S
C2462 C2463 1.386 . S
C2462 C2464 1.391 . S
C2463 C2462 1.386 . S
C2463 C2467 1.393 . S
C2464 H2453 0.950 . S
C2464 C2462 1.391 . S
C2464 C2465 1.400 . S
C2465 C2459 1.491 . S
C2465 C2464 1.400 . S
C2465 C2466 1.398 . S
C2466 H2454 0.950 . S
C2466 C2465 1.398 . S
C2466 C2467 1.391 . S
C2467 H2455 0.950 . S
C2467 C2463 1.393 . S
C2467 C2466 1.391 . S
H2468 C2476 0.950 . S
H2469 C2481 0.950 . S
H2470 C2478 0.950 . S
H2471 C2480 0.950 . S
H2472 C2482 0.950 . S
H2473 C2484 0.950 . S
H2474 C2486 0.950 . S
H2475 C2487 0.950 . S
C2476 H2468 0.950 . S
C2476 C2477 1.386 . S
C2476 C2478 1.391 . S
C2477 C2476 1.386 . S
C2477 C2481 1.393 . S
C2478 H2470 0.950 . S
C2478 C2476 1.391 . S
C2478 C2479 1.400 . S
C2479 C2478 1.400 . S
C2479 C2480 1.398 . S
C2479 C2485 1.491 . S
C2480 H2471 0.950 . S
C2480 C2479 1.398 . S
C2480 C2481 1.391 . S
C2481 H2469 0.950 . S
C2481 C2477 1.393 . S
C2481 C2480 1.391 . S
C2482 H2472 0.950 . S
C2482 C2483 1.386 . S
C2482 C2484 1.391 . S
C2483 C2482 1.386 . S
C2483 C2487 1.393 . S
C2484 H2473 0.950 . S
C2484 C2482 1.391 . S
C2484 C2485 1.400 . S
C2485 C2479 1.491 . S
C2485 C2484 1.400 . S
C2485 C2486 1.398 . S
C2486 H2474 0.950 . S
C2486 C2485 1.398 . S
C2486 C2487 1.391 . S
C2487 H2475 0.950 . S
C2487 C2483 1.393 . S
C2487 C2486 1.391 . S
H2488 C2496 0.950 . S
H2489 C2501 0.950 . S
H2490 C2498 0.950 . S
H2491 C2500 0.950 . S
H2492 C2502 0.950 . S
H2493 C2504 0.950 . S
H2494 C2506 0.950 . S
H2495 C2507 0.950 . S
C2496 H2488 0.950 . S
C2496 C2497 1.386 . S
C2496 C2498 1.391 . S
C2497 C2496 1.386 . S
C2497 C2501 1.393 . S
C2498 H2490 0.950 . S
C2498 C2496 1.391 . S
C2498 C2499 1.400 . S
C2499 C2498 1.400 . S
C2499 C2500 1.398 . S
C2499 C2505 1.491 . S
C2500 H2491 0.950 . S
C2500 C2499 1.398 . S
C2500 C2501 1.391 . S
C2501 H2489 0.950 . S
C2501 C2497 1.393 . S
C2501 C2500 1.391 . S
C2502 H2492 0.950 . S
C2502 C2503 1.386 . S
C2502 C2504 1.391 . S
C2503 C2502 1.386 . S
C2503 C2507 1.393 . S
C2504 H2493 0.950 . S
C2504 C2502 1.391 . S
C2504 C2505 1.400 . S
C2505 C2499 1.491 . S
C2505 C2504 1.400 . S
C2505 C2506 1.398 . S
C2506 H2494 0.950 . S
C2506 C2505 1.398 . S
C2506 C2507 1.391 . S
C2507 H2495 0.950 . S
C2507 C2503 1.393 . S
C2507 C2506 1.391 . S
H2508 C2516 0.950 . S
H2509 C2521 0.950 . S
H2510 C2518 0.950 . S
H2511 C2520 0.950 . S
H2512 C2522 0.950 . S
H2513 C2524 0.950 . S
H2514 C2526 0.950 . S
H2515 C2527 0.950 . S
C2516 H2508 0.950 . S
C2516 C2517 1.386 . S
C2516 C2518 1.391 . S
C2517 C2516 1.386 . S
C2517 C2521 1.393 . S
C2518 H2510 0.950 . S
C2518 C2516 1.391 . S
C2518 C2519 1.400 . S
C2519 C2518 1.400 . S
C2519 C2520 1.398 . S
C2519 C2525 1.491 . S
C2520 H2511 0.950 . S
C2520 C2519 1.398 . S
C2520 C2521 1.391 . S
C2521 H2509 0.950 . S
C2521 C2517 1.393 . S
C2521 C2520 1.391 . S
C2522 H2512 0.950 . S
C2522 C2523 1.386 . S
C2522 C2524 1.391 . S
C2523 C2522 1.386 . S
C2523 C2527 1.393 . S
C2524 H2513 0.950 . S
C2524 C2522 1.391 . S
C2524 C2525 1.400 . S
C2525 C2519 1.491 . S
C2525 C2524 1.400 . S
C2525 C2526 1.398 . S
C2526 H2514 0.950 . S
C2526 C2525 1.398 . S
C2526 C2527 1.391 . S
C2527 H2515 0.950 . S
C2527 C2523 1.393 . S
C2527 C2526 1.391 . S
H2528 C2536 0.950 . S
H2529 C2541 0.950 . S
H2530 C2538 0.950 . S
H2531 C2540 0.950 . S
H2532 C2542 0.950 . S
H2533 C2544 0.950 . S
H2534 C2546 0.950 . S
H2535 C2547 0.950 . S
C2536 H2528 0.950 . S
C2536 C2537 1.386 . S
C2536 C2538 1.391 . S
C2537 C2536 1.386 . S
C2537 C2541 1.393 . S
C2538 H2530 0.950 . S
C2538 C2536 1.391 . S
C2538 C2539 1.400 . S
C2539 C2538 1.400 . S
C2539 C2540 1.398 . S
C2539 C2545 1.491 . S
C2540 H2531 0.950 . S
C2540 C2539 1.398 . S
C2540 C2541 1.391 . S
C2541 H2529 0.950 . S
C2541 C2537 1.393 . S
C2541 C2540 1.391 . S
C2542 H2532 0.950 . S
C2542 C2543 1.386 . S
C2542 C2544 1.391 . S
C2543 C2542 1.386 . S
C2543 C2547 1.393 . S
C2544 H2533 0.950 . S
C2544 C2542 1.391 . S
C2544 C2545 1.400 . S
C2545 C2539 1.491 . S
C2545 C2544 1.400 . S
C2545 C2546 1.398 . S
C2546 H2534 0.950 . S
C2546 C2545 1.398 . S
C2546 C2547 1.391 . S
C2547 H2535 0.950 . S
C2547 C2543 1.393 . S
C2547 C2546 1.391 . S
H2548 C2556 0.950 . S
H2549 C2561 0.950 . S
H2550 C2558 0.950 . S
H2551 C2560 0.950 . S
H2552 C2562 0.950 . S
H2553 C2564 0.950 . S
H2554 C2566 0.950 . S
H2555 C2567 0.950 . S
C2556 H2548 0.950 . S
C2556 C2557 1.386 . S
C2556 C2558 1.391 . S
C2557 C2556 1.386 . S
C2557 C2561 1.393 . S
C2558 H2550 0.950 . S
C2558 C2556 1.391 . S
C2558 C2559 1.400 . S
C2559 C2558 1.400 . S
C2559 C2560 1.398 . S
C2559 C2565 1.491 . S
C2560 H2551 0.950 . S
C2560 C2559 1.398 . S
C2560 C2561 1.391 . S
C2561 H2549 0.950 . S
C2561 C2557 1.393 . S
C2561 C2560 1.391 . S
C2562 H2552 0.950 . S
C2562 C2563 1.386 . S
C2562 C2564 1.391 . S
C2563 C2562 1.386 . S
C2563 C2567 1.393 . S
C2564 H2553 0.950 . S
C2564 C2562 1.391 . S
C2564 C2565 1.400 . S
C2565 C2559 1.491 . S
C2565 C2564 1.400 . S
C2565 C2566 1.398 . S
C2566 H2554 0.950 . S
C2566 C2565 1.398 . S
C2566 C2567 1.391 . S
C2567 H2555 0.950 . S
C2567 C2563 1.393 . S
C2567 C2566 1.391 . S
H2568 C2576 0.950 . S
H2569 C2581 0.950 . S
H2570 C2578 0.950 . S
H2571 C2580 0.950 . S
H2572 C2582 0.950 . S
H2573 C2584 0.950 . S
H2574 C2586 0.950 . S
H2575 C2587 0.950 . S
C2576 H2568 0.950 . S
C2576 C2577 1.386 . S
C2576 C2578 1.391 . S
C2577 C2576 1.386 . S
C2577 C2581 1.393 . S
C2578 H2570 0.950 . S
C2578 C2576 1.391 . S
C2578 C2579 1.400 . S
C2579 C2578 1.400 . S
C2579 C2580 1.398 . S
C2579 C2585 1.491 . S
C2580 H2571 0.950 . S
C2580 C2579 1.398 . S
C2580 C2581 1.391 . S
C2581 H2569 0.950 . S
C2581 C2577 1.393 . S
C2581 C2580 1.391 . S
C2582 H2572 0.950 . S
C2582 C2583 1.386 . S
C2582 C2584 1.391 . S
C2583 C2582 1.386 . S
C2583 C2587 1.393 . S
C2584 H2573 0.950 . S
C2584 C2582 1.391 . S
C2584 C2585 1.400 . S
C2585 C2579 1.491 . S
C2585 C2584 1.400 . S
C2585 C2586 1.398 . S
C2586 H2574 0.950 . S
C2586 C2585 1.398 . S
C2586 C2587 1.391 . S
C2587 H2575 0.950 . S
C2587 C2583 1.393 . S
C2587 C2586 1.391 . S
H2588 C2596 0.950 . S
H2589 C2601 0.950 . S
H2590 C2598 0.950 . S
H2591 C2600 0.950 . S
H2592 C2602 0.950 . S
H2593 C2604 0.950 . S
H2594 C2606 0.950 . S
H2595 C2607 0.950 . S
C2596 H2588 0.950 . S
C2596 C2597 1.386 . S
C2596 C2598 1.391 . S
C2597 C2596 1.386 . S
C2597 C2601 1.393 . S
C2598 H2590 0.950 . S
C2598 C2596 1.391 . S
C2598 C2599 1.400 . S
C2599 C2598 1.400 . S
C2599 C2600 1.398 . S
C2599 C2605 1.491 . S
C2600 H2591 0.950 . S
C2600 C2599 1.398 . S
C2600 C2601 1.391 . S
C2601 H2589 0.950 . S
C2601 C2597 1.393 . S
C2601 C2600 1.391 . S
C2602 H2592 0.950 . S
C2602 C2603 1.386 . S
C2602 C2604 1.391 . S
C2603 C2602 1.386 . S
C2603 C2607 1.393 . S
C2604 H2593 0.950 . S
C2604 C2602 1.391 . S
C2604 C2605 1.400 . S
C2605 C2599 1.491 . S
C2605 C2604 1.400 . S
C2605 C2606 1.398 . S
C2606 H2594 0.950 . S
C2606 C2605 1.398 . S
C2606 C2607 1.391 . S
C2607 H2595 0.950 . S
C2607 C2603 1.393 . S
C2607 C2606 1.391 . S
H2608 C2616 0.950 . S
H2609 C2621 0.950 . S
H2610 C2618 0.950 . S
H2611 C2620 0.950 . S
H2612 C2622 0.950 . S
H2613 C2624 0.950 . S
H2614 C2626 0.950 . S
H2615 C2627 0.950 . S
C2616 H2608 0.950 . S
C2616 C2617 1.386 . S
C2616 C2618 1.391 . S
C2617 C2616 1.386 . S
C2617 C2621 1.393 . S
C2618 H2610 0.950 . S
C2618 C2616 1.391 . S
C2618 C2619 1.400 . S
C2619 C2618 1.400 . S
C2619 C2620 1.398 . S
C2619 C2625 1.491 . S
C2620 H2611 0.950 . S
C2620 C2619 1.398 . S
C2620 C2621 1.391 . S
C2621 H2609 0.950 . S
C2621 C2617 1.393 . S
C2621 C2620 1.391 . S
C2622 H2612 0.950 . S
C2622 C2623 1.386 . S
C2622 C2624 1.391 . S
C2623 C2622 1.386 . S
C2623 C2627 1.393 . S
C2624 H2613 0.950 . S
C2624 C2622 1.391 . S
C2624 C2625 1.400 . S
C2625 C2619 1.491 . S
C2625 C2624 1.400 . S
C2625 C2626 1.398 . S
C2626 H2614 0.950 . S
C2626 C2625 1.398 . S
C2626 C2627 1.391 . S
C2627 H2615 0.950 . S
C2627 C2623 1.393 . S
C2627 C2626 1.391 . S
H2628 C2636 0.950 . S
H2629 C2641 0.950 . S
H2630 C2638 0.950 . S
H2631 C2640 0.950 . S
H2632 C2642 0.950 . S
H2633 C2644 0.950 . S
H2634 C2646 0.950 . S
H2635 C2647 0.950 . S
C2636 H2628 0.950 . S
C2636 C2637 1.386 . S
C2636 C2638 1.391 . S
C2637 C2636 1.386 . S
C2637 C2641 1.393 . S
C2638 H2630 0.950 . S
C2638 C2636 1.391 . S
C2638 C2639 1.400 . S
C2639 C2638 1.400 . S
C2639 C2640 1.398 . S
C2639 C2645 1.491 . S
C2640 H2631 0.950 . S
C2640 C2639 1.398 . S
C2640 C2641 1.391 . S
C2641 H2629 0.950 . S
C2641 C2637 1.393 . S
C2641 C2640 1.391 . S
C2642 H2632 0.950 . S
C2642 C2643 1.386 . S
C2642 C2644 1.391 . S
C2643 C2642 1.386 . S
C2643 C2647 1.393 . S
C2644 H2633 0.950 . S
C2644 C2642 1.391 . S
C2644 C2645 1.400 . S
C2645 C2639 1.491 . S
C2645 C2644 1.400 . S
C2645 C2646 1.398 . S
C2646 H2634 0.950 . S
C2646 C2645 1.398 . S
C2646 C2647 1.391 . S
C2647 H2635 0.950 . S
C2647 C2643 1.393 . S
C2647 C2646 1.391 . S
H2648 C2656 0.950 . S
H2649 C2661 0.950 . S
H2650 C2658 0.950 . S
H2651 C2660 0.950 . S
H2652 C2662 0.950 . S
H2653 C2664 0.950 . S
H2654 C2666 0.950 . S
H2655 C2667 0.950 . S
C2656 H2648 0.950 . S
C2656 C2657 1.386 . S
C2656 C2658 1.391 . S
C2657 C2656 1.386 . S
C2657 C2661 1.393 . S
C2658 H2650 0.950 . S
C2658 C2656 1.391 . S
C2658 C2659 1.400 . S
C2659 C2658 1.400 . S
C2659 C2660 1.398 . S
C2659 C2665 1.491 . S
C2660 H2651 0.950 . S
C2660 C2659 1.398 . S
C2660 C2661 1.391 . S
C2661 H2649 0.950 . S
C2661 C2657 1.393 . S
C2661 C2660 1.391 . S
C2662 H2652 0.950 . S
C2662 C2663 1.386 . S
C2662 C2664 1.391 . S
C2663 C2662 1.386 . S
C2663 C2667 1.393 . S
C2664 H2653 0.950 . S
C2664 C2662 1.391 . S
C2664 C2665 1.400 . S
C2665 C2659 1.491 . S
C2665 C2664 1.400 . S
C2665 C2666 1.398 . S
C2666 H2654 0.950 . S
C2666 C2665 1.398 . S
C2666 C2667 1.391 . S
C2667 H2655 0.950 . S
C2667 C2663 1.393 . S
C2667 C2666 1.391 . S
H2668 C2676 0.950 . S
H2669 C2681 0.950 . S
H2670 C2678 0.950 . S
H2671 C2680 0.950 . S
H2672 C2682 0.950 . S
H2673 C2684 0.950 . S
H2674 C2686 0.950 . S
H2675 C2687 0.950 . S
C2676 H2668 0.950 . S
C2676 C2677 1.386 . S
C2676 C2678 1.391 . S
C2677 C2676 1.386 . S
C2677 C2681 1.393 . S
C2678 H2670 0.950 . S
C2678 C2676 1.391 . S
C2678 C2679 1.400 . S
C2679 C2678 1.400 . S
C2679 C2680 1.398 . S
C2679 C2685 1.491 . S
C2680 H2671 0.950 . S
C2680 C2679 1.398 . S
C2680 C2681 1.391 . S
C2681 H2669 0.950 . S
C2681 C2677 1.393 . S
C2681 C2680 1.391 . S
C2682 H2672 0.950 . S
C2682 C2683 1.386 . S
C2682 C2684 1.391 . S
C2683 C2682 1.386 . S
C2683 C2687 1.393 . S
C2684 H2673 0.950 . S
C2684 C2682 1.391 . S
C2684 C2685 1.400 . S
C2685 C2679 1.491 . S
C2685 C2684 1.400 . S
C2685 C2686 1.398 . S
C2686 H2674 0.950 . S
C2686 C2685 1.398 . S
C2686 C2687 1.391 . S
C2687 H2675 0.950 . S
C2687 C2683 1.393 . S
C2687 C2686 1.391 . S
H2688 C2696 0.950 . S
H2689 C2701 0.950 . S
H2690 C2698 0.950 . S
H2691 C2700 0.950 . S
H2692 C2702 0.950 . S
H2693 C2704 0.950 . S
H2694 C2706 0.950 . S
H2695 C2707 0.950 . S
C2696 H2688 0.950 . S
C2696 C2697 1.386 . S
C2696 C2698 1.391 . S
C2697 C2696 1.386 . S
C2697 C2701 1.393 . S
C2698 H2690 0.950 . S
C2698 C2696 1.391 . S
C2698 C2699 1.400 . S
C2699 C2698 1.400 . S
C2699 C2700 1.398 . S
C2699 C2705 1.491 . S
C2700 H2691 0.950 . S
C2700 C2699 1.398 . S
C2700 C2701 1.391 . S
C2701 H2689 0.950 . S
C2701 C2697 1.393 . S
C2701 C2700 1.391 . S
C2702 H2692 0.950 . S
C2702 C2703 1.386 . S
C2702 C2704 1.391 . S
C2703 C2702 1.386 . S
C2703 C2707 1.393 . S
C2704 H2693 0.950 . S
C2704 C2702 1.391 . S
C2704 C2705 1.400 . S
C2705 C2699 1.491 . S
C2705 C2704 1.400 . S
C2705 C2706 1.398 . S
C2706 H2694 0.950 . S
C2706 C2705 1.398 . S
C2706 C2707 1.391 . S
C2707 H2695 0.950 . S
C2707 C2703 1.393 . S
C2707 C2706 1.391 . S
H2708 C2716 0.950 . S
H2709 C2721 0.950 . S
H2710 C2718 0.950 . S
H2711 C2720 0.950 . S
H2712 C2722 0.950 . S
H2713 C2724 0.950 . S
H2714 C2726 0.950 . S
H2715 C2727 0.950 . S
C2716 H2708 0.950 . S
C2716 C2717 1.386 . S
C2716 C2718 1.391 . S
C2717 C2716 1.386 . S
C2717 C2721 1.393 . S
C2718 H2710 0.950 . S
C2718 C2716 1.391 . S
C2718 C2719 1.400 . S
C2719 C2718 1.400 . S
C2719 C2720 1.398 . S
C2719 C2725 1.491 . S
C2720 H2711 0.950 . S
C2720 C2719 1.398 . S
C2720 C2721 1.391 . S
C2721 H2709 0.950 . S
C2721 C2717 1.393 . S
C2721 C2720 1.391 . S
C2722 H2712 0.950 . S
C2722 C2723 1.386 . S
C2722 C2724 1.391 . S
C2723 C2722 1.386 . S
C2723 C2727 1.393 . S
C2724 H2713 0.950 . S
C2724 C2722 1.391 . S
C2724 C2725 1.400 . S
C2725 C2719 1.491 . S
C2725 C2724 1.400 . S
C2725 C2726 1.398 . S
C2726 H2714 0.950 . S
C2726 C2725 1.398 . S
C2726 C2727 1.391 . S
C2727 H2715 0.950 . S
C2727 C2723 1.393 . S
C2727 C2726 1.391 . S
H2728 C2736 0.950 . S
H2729 C2741 0.950 . S
H2730 C2738 0.950 . S
H2731 C2740 0.950 . S
H2732 C2742 0.950 . S
H2733 C2744 0.950 . S
H2734 C2746 0.950 . S
H2735 C2747 0.950 . S
C2736 H2728 0.950 . S
C2736 C2737 1.386 . S
C2736 C2738 1.391 . S
C2737 C2736 1.386 . S
C2737 C2741 1.393 . S
C2738 H2730 0.950 . S
C2738 C2736 1.391 . S
C2738 C2739 1.400 . S
C2739 C2738 1.400 . S
C2739 C2740 1.398 . S
C2739 C2745 1.491 . S
C2740 H2731 0.950 . S
C2740 C2739 1.398 . S
C2740 C2741 1.391 . S
C2741 H2729 0.950 . S
C2741 C2737 1.393 . S
C2741 C2740 1.391 . S
C2742 H2732 0.950 . S
C2742 C2743 1.386 . S
C2742 C2744 1.391 . S
C2743 C2742 1.386 . S
C2743 C2747 1.393 . S
C2744 H2733 0.950 . S
C2744 C2742 1.391 . S
C2744 C2745 1.400 . S
C2745 C2739 1.491 . S
C2745 C2744 1.400 . S
C2745 C2746 1.398 . S
C2746 H2734 0.950 . S
C2746 C2745 1.398 . S
C2746 C2747 1.391 . S
C2747 H2735 0.950 . S
C2747 C2743 1.393 . S
C2747 C2746 1.391 . S
H2748 C2756 0.950 . S
H2749 C2761 0.950 . S
H2750 C2758 0.950 . S
H2751 C2760 0.950 . S
H2752 C2762 0.950 . S
H2753 C2764 0.950 . S
H2754 C2766 0.950 . S
H2755 C2767 0.950 . S
C2756 H2748 0.950 . S
C2756 C2757 1.386 . S
C2756 C2758 1.391 . S
C2757 C2756 1.386 . S
C2757 C2761 1.393 . S
C2758 H2750 0.950 . S
C2758 C2756 1.391 . S
C2758 C2759 1.400 . S
C2759 C2758 1.400 . S
C2759 C2760 1.398 . S
C2759 C2765 1.491 . S
C2760 H2751 0.950 . S
C2760 C2759 1.398 . S
C2760 C2761 1.391 . S
C2761 H2749 0.950 . S
C2761 C2757 1.393 . S
C2761 C2760 1.391 . S
C2762 H2752 0.950 . S
C2762 C2763 1.386 . S
C2762 C2764 1.391 . S
C2763 C2762 1.386 . S
C2763 C2767 1.393 . S
C2764 H2753 0.950 . S
C2764 C2762 1.391 . S
C2764 C2765 1.400 . S
C2765 C2759 1.491 . S
C2765 C2764 1.400 . S
C2765 C2766 1.398 . S
C2766 H2754 0.950 . S
C2766 C2765 1.398 . S
C2766 C2767 1.391 . S
C2767 H2755 0.950 . S
C2767 C2763 1.393 . S
C2767 C2766 1.391 . S
H2768 C2776 0.950 . S
H2769 C2781 0.950 . S
H2770 C2778 0.950 . S
H2771 C2780 0.950 . S
H2772 C2782 0.950 . S
H2773 C2784 0.950 . S
H2774 C2786 0.950 . S
H2775 C2787 0.950 . S
C2776 H2768 0.950 . S
C2776 C2777 1.386 . S
C2776 C2778 1.391 . S
C2777 C2776 1.386 . S
C2777 C2781 1.393 . S
C2778 H2770 0.950 . S
C2778 C2776 1.391 . S
C2778 C2779 1.400 . S
C2779 C2778 1.400 . S
C2779 C2780 1.398 . S
C2779 C2785 1.491 . S
C2780 H2771 0.950 . S
C2780 C2779 1.398 . S
C2780 C2781 1.391 . S
C2781 H2769 0.950 . S
C2781 C2777 1.393 . S
C2781 C2780 1.391 . S
C2782 H2772 0.950 . S
C2782 C2783 1.386 . S
C2782 C2784 1.391 . S
C2783 C2782 1.386 . S
C2783 C2787 1.393 . S
C2784 H2773 0.950 . S
C2784 C2782 1.391 . S
C2784 C2785 1.400 . S
C2785 C2779 1.491 . S
C2785 C2784 1.400 . S
C2785 C2786 1.398 . S
C2786 H2774 0.950 . S
C2786 C2785 1.398 . S
C2786 C2787 1.391 . S
C2787 H2775 0.950 . S
C2787 C2783 1.393 . S
C2787 C2786 1.391 . S
H2788 C2796 0.950 . S
H2789 C2801 0.950 . S
H2790 C2798 0.950 . S
H2791 C2800 0.950 . S
H2792 C2802 0.950 . S
H2793 C2804 0.950 . S
H2794 C2806 0.950 . S
H2795 C2807 0.950 . S
C2796 H2788 0.950 . S
C2796 C2797 1.386 . S
C2796 C2798 1.391 . S
C2797 C2796 1.386 . S
C2797 C2801 1.393 . S
C2798 H2790 0.950 . S
C2798 C2796 1.391 . S
C2798 C2799 1.400 . S
C2799 C2798 1.400 . S
C2799 C2800 1.398 . S
C2799 C2805 1.491 . S
C2800 H2791 0.950 . S
C2800 C2799 1.398 . S
C2800 C2801 1.391 . S
C2801 H2789 0.950 . S
C2801 C2797 1.393 . S
C2801 C2800 1.391 . S
C2802 H2792 0.950 . S
C2802 C2803 1.386 . S
C2802 C2804 1.391 . S
C2803 C2802 1.386 . S
C2803 C2807 1.393 . S
C2804 H2793 0.950 . S
C2804 C2802 1.391 . S
C2804 C2805 1.400 . S
C2805 C2799 1.491 . S
C2805 C2804 1.400 . S
C2805 C2806 1.398 . S
C2806 H2794 0.950 . S
C2806 C2805 1.398 . S
C2806 C2807 1.391 . S
C2807 H2795 0.950 . S
C2807 C2803 1.393 . S
C2807 C2806 1.391 . S
H2808 C2816 0.950 . S
H2809 C2821 0.950 . S
H2810 C2818 0.950 . S
H2811 C2820 0.950 . S
H2812 C2822 0.950 . S
H2813 C2824 0.950 . S
H2814 C2826 0.950 . S
H2815 C2827 0.950 . S
C2816 H2808 0.950 . S
C2816 C2817 1.386 . S
C2816 C2818 1.391 . S
C2817 C2816 1.386 . S
C2817 C2821 1.393 . S
C2818 H2810 0.950 . S
C2818 C2816 1.391 . S
C2818 C2819 1.400 . S
C2819 C2818 1.400 . S
C2819 C2820 1.398 . S
C2819 C2825 1.491 . S
C2820 H2811 0.950 . S
C2820 C2819 1.398 . S
C2820 C2821 1.391 . S
C2821 H2809 0.950 . S
C2821 C2817 1.393 . S
C2821 C2820 1.391 . S
C2822 H2812 0.950 . S
C2822 C2823 1.386 . S
C2822 C2824 1.391 . S
C2823 C2822 1.386 . S
C2823 C2827 1.393 . S
C2824 H2813 0.950 . S
C2824 C2822 1.391 . S
C2824 C2825 1.400 . S
C2825 C2819 1.491 . S
C2825 C2824 1.400 . S
C2825 C2826 1.398 . S
C2826 H2814 0.950 . S
C2826 C2825 1.398 . S
C2826 C2827 1.391 . S
C2827 H2815 0.950 . S
C2827 C2823 1.393 . S
C2827 C2826 1.391 . S
H2828 C2836 0.950 . S
H2829 C2841 0.950 . S
H2830 C2838 0.950 . S
H2831 C2840 0.950 . S
H2832 C2842 0.950 . S
H2833 C2844 0.950 . S
H2834 C2846 0.950 . S
H2835 C2847 0.950 . S
C2836 H2828 0.950 . S
C2836 C2837 1.386 . S
C2836 C2838 1.391 . S
C2837 C2836 1.386 . S
C2837 C2841 1.393 . S
C2838 H2830 0.950 . S
C2838 C2836 1.391 . S
C2838 C2839 1.400 . S
C2839 C2838 1.400 . S
C2839 C2840 1.398 . S
C2839 C2845 1.491 . S
C2840 H2831 0.950 . S
C2840 C2839 1.398 . S
C2840 C2841 1.391 . S
C2841 H2829 0.950 . S
C2841 C2837 1.393 . S
C2841 C2840 1.391 . S
C2842 H2832 0.950 . S
C2842 C2843 1.386 . S
C2842 C2844 1.391 . S
C2843 C2842 1.386 . S
C2843 C2847 1.393 . S
C2844 H2833 0.950 . S
C2844 C2842 1.391 . S
C2844 C2845 1.400 . S
C2845 C2839 1.491 . S
C2845 C2844 1.400 . S
C2845 C2846 1.398 . S
C2846 H2834 0.950 . S
C2846 C2845 1.398 . S
C2846 C2847 1.391 . S
C2847 H2835 0.950 . S
C2847 C2843 1.393 . S
C2847 C2846 1.391 . S
H2848 C2856 0.950 . S
H2849 C2861 0.950 . S
H2850 C2858 0.950 . S
H2851 C2860 0.950 . S
H2852 C2862 0.950 . S
H2853 C2864 0.950 . S
H2854 C2866 0.950 . S
H2855 C2867 0.950 . S
C2856 H2848 0.950 . S
C2856 C2857 1.386 . S
C2856 C2858 1.391 . S
C2857 C2856 1.386 . S
C2857 C2861 1.393 . S
C2858 H2850 0.950 . S
C2858 C2856 1.391 . S
C2858 C2859 1.400 . S
C2859 C2858 1.400 . S
C2859 C2860 1.398 . S
C2859 C2865 1.491 . S
C2860 H2851 0.950 . S
C2860 C2859 1.398 . S
C2860 C2861 1.391 . S
C2861 H2849 0.950 . S
C2861 C2857 1.393 . S
C2861 C2860 1.391 . S
C2862 H2852 0.950 . S
C2862 C2863 1.386 . S
C2862 C2864 1.391 . S
C2863 C2862 1.386 . S
C2863 C2867 1.393 . S
C2864 H2853 0.950 . S
C2864 C2862 1.391 . S
C2864 C2865 1.400 . S
C2865 C2859 1.491 . S
C2865 C2864 1.400 . S
C2865 C2866 1.398 . S
C2866 H2854 0.950 . S
C2866 C2865 1.398 . S
C2866 C2867 1.391 . S
C2867 H2855 0.950 . S
C2867 C2863 1.393 . S
C2867 C2866 1.391 . S
H2868 C2876 0.950 . S
H2869 C2881 0.950 . S
H2870 C2878 0.950 . S
H2871 C2880 0.950 . S
H2872 C2882 0.950 . S
H2873 C2884 0.950 . S
H2874 C2886 0.950 . S
H2875 C2887 0.950 . S
C2876 H2868 0.950 . S
C2876 C2877 1.386 . S
C2876 C2878 1.391 . S
C2877 C2876 1.386 . S
C2877 C2881 1.393 . S
C2878 H2870 0.950 . S
C2878 C2876 1.391 . S
C2878 C2879 1.400 . S
C2879 C2878 1.400 . S
C2879 C2880 1.398 . S
C2879 C2885 1.491 . S
C2880 H2871 0.950 . S
C2880 C2879 1.398 . S
C2880 C2881 1.391 . S
C2881 H2869 0.950 . S
C2881 C2877 1.393 . S
C2881 C2880 1.391 . S
C2882 H2872 0.950 . S
C2882 C2883 1.386 . S
C2882 C2884 1.391 . S
C2883 C2882 1.386 . S
C2883 C2887 1.393 . S
C2884 H2873 0.950 . S
C2884 C2882 1.391 . S
C2884 C2885 1.400 . S
C2885 C2879 1.491 . S
C2885 C2884 1.400 . S
C2885 C2886 1.398 . S
C2886 H2874 0.950 . S
C2886 C2885 1.398 . S
C2886 C2887 1.391 . S
C2887 H2875 0.950 . S
C2887 C2883 1.393 . S
C2887 C2886 1.391 . S
C983 N428 1.664 . S
C977 N5 1.720 . S
C1003 C455 1.610 . S
C997 N15 1.620 . S
C1017 N31 1.695 . S
C1023 C469 1.711 . S
C1043 N487 1.489 . S
C1037 N40 1.555 . S
C1057 N53 1.473 . S
C1063 C492 1.460 . S
C1077 N70 1.625 . S
C1083 C432 1.637 . S
C1097 N80 1.492 . S
C1103 N451 1.450 . S
C1123 N464 1.713 . S
C1117 N92 1.740 . S
C1143 N510 1.648 . S
C1137 N2 1.741 . S
C1157 N14 1.441 . S
C1163 N533 1.424 . S
C1177 N27 1.737 . S
C1183 N556 1.718 . S
C1203 N589 1.635 . S
C1197 N44 1.698 . S
C1217 N54 1.349 . S
C1223 C616 1.355 . S
C1243 C639 1.397 . S
C1237 N67 1.392 . S
C1257 N83 1.309 . S
C1263 C662 1.289 1_655 S
C1283 C676 1.566 1_565 S
C1277 N93 1.581 . S
C1297 N1 1.642 . S
C1303 C593 1.604 . S
C1317 N57 1.457 . S
C1323 N635 1.418 . S
C1343 N658 1.758 . S
C1337 N66 1.781 . S
C1357 N79 1.831 . S
C1363 N671 1.796 . S
C1383 N612 1.756 . S
C1377 N96 1.787 . S
C1403 C538 1.590 . S
C1397 N28 1.596 . S
C1417 N41 1.436 . S
C1423 C561 1.427 . S
C1443 C515 1.486 . S
C1437 N18 1.520 . S
C1463 C708 1.735 . S
C1457 N109 1.735 . S
C1477 N119 1.510 . S
C1483 C722 1.486 . S
C1497 N135 1.638 . S
C1503 N750 1.602 . S
C1523 N763 1.485 . S
C1517 N144 1.525 . S
C1537 N157 1.523 . S
C1543 C768 1.482 . S
C1557 N174 1.625 . S
C1563 N704 1.581 . S
C1577 N184 1.598 . S
C1583 N717 1.499 . S
C1597 N196 1.733 . S
C1603 C754 1.738 . S
C1623 N602 1.609 . S
C1617 N106 1.716 . S
C1637 N118 1.459 . S
C1643 N786 1.406 . S
C1663 N648 1.630 . S
C1657 N131 1.653 . S
C1677 N148 1.779 . S
C1683 C823 1.774 . S
C1697 N158 1.487 . S
C1703 C524 1.481 . S
C1723 C837 1.450 . S
C1717 N171 1.453 . S
C1737 N187 1.392 . S
C1743 C570 1.372 . S
C1763 N855 1.520 . S
C1757 N197 1.641 . S
C1777 N105 1.663 . S
C1783 N819 1.630 . S
C1803 N832 1.407 . S
C1797 N161 1.480 . S
C1817 N170 1.800 . S
C1823 N566 1.771 . S
C1843 C860 1.750 . S
C1837 N183 1.769 . S
C1857 N200 1.788 . S
C1863 N520 1.759 . S
C1877 N132 1.516 . S
C1883 C791 1.513 . S
C1897 N145 1.462 . S
C1903 C653 1.459 . S
C1917 N122 1.368 . S
C1923 C607 1.343 . S
C1937 N213 1.772 . S
C1943 C745 1.774 . S
C1963 C777 1.496 . S
C1957 N223 1.508 . S
C1977 N239 1.653 . S
C1983 N694 1.626 . S
C1997 N248 1.546 . S
C2003 N727 1.519 . S
C2017 N261 1.530 . S
C2023 C731 1.516 . S
C2037 N278 1.662 . S
C2043 N740 1.644 . S
C2063 N773 1.453 . S
C2057 N288 1.480 . S
C2077 N300 1.778 . S
C2083 C699 1.785 . S
C2103 N888 1.749 . S
C2097 N210 1.775 . S
C2117 N222 1.451 . S
C2123 N625 1.389 . S
C2143 N911 1.579 . S
C2137 N235 1.645 . S
C2157 N252 1.754 . S
C2163 N681 1.692 . S
C2177 N262 1.428 . S
C2183 C929 1.407 . S
C2197 N275 1.475 . S
C2203 C547 1.476 . S
C2223 N947 1.260 . S
C2217 N291 1.307 . S
C2237 N301 1.612 . S
C2243 C584 1.596 . S
C2263 C685 1.635 . S
C2257 N209 1.692 . S
C2283 N543 1.406 . S
C2277 N265 1.443 . S
C2297 N274 1.874 . S
C2303 C952 1.898 . S
C2317 N287 1.752 . S
C2323 N579 1.720 . S
C2343 N924 1.721 . S
C2337 N304 1.835 . S
C2363 C630 1.515 . S
C2357 N236 1.521 . S
C2383 C915 1.421 . S
C2377 N249 1.443 . S
C2403 C892 1.414 . S
C2397 N226 1.423 . S
C2417 N317 1.666 . S
C2423 N474 1.618 . S
C2437 N327 1.501 . S
C2443 C501 1.503 . S
C2463 C423 1.714 . S
C2457 N343 1.691 . S
C2483 N441 1.450 . S
C2477 N352 1.493 . S
C2503 C446 1.544 . S
C2497 N365 1.579 . S
C2523 C478 1.648 . S
C2517 N382 1.639 . S
C2543 N497 1.552 . S
C2537 N392 1.594 . S
C2557 N404 1.739 . S
C2563 N418 1.705 . S
C2577 N314 1.685 . S
C2583 N934 1.665 . S
C2603 N842 1.422 . S
C2597 N326 1.426 . S
C2623 C961 1.775 . S
C2617 N339 1.773 . S
C2643 C869 1.627 . S
C2637 N356 1.627 . S
C2657 N366 1.451 . S
C2663 C883 1.435 . S
C2683 C800 1.419 . S
C2677 N379 1.415 . S
C2703 C906 1.445 . S
C2697 N395 1.430 . S
C2717 N405 1.601 . S
C2723 N809 1.518 . S
C2743 N865 1.626 . S
C2737 N313 1.661 . S
C2763 N796 1.411 . S
C2757 N369 1.448 . S
C2783 N901 1.797 . S
C2777 N378 1.790 . S
C2797 N391 1.864 . S
C2803 C814 1.838 . S
C2817 N408 1.797 . S
C2823 N878 1.684 . S
C2837 N340 1.620 . S
C2843 C846 1.619 . S
C2857 N353 1.408 . S
C2863 N957 1.367 . S
C2883 C938 1.427 . S
C2877 N330 1.443 . S
