# Generated by pormake.
# Topology anh, (6,3)-cn, num edge types: 1
# Building blocks:
#     Node 0, Type 0, BuildingBlock: HISSIN_clean_sbu_0, # of connection points: 6
#     Node 1, Type 0, BuildingBlock: HISSIN_clean_sbu_0, # of connection points: 6
#     Node 2, Type 0, BuildingBlock: HISSIN_clean_sbu_0, # of connection points: 6
#     Node 3, Type 1, BuildingBlock: CUQRIR_clean_linker_1, # of connection points: 3
#     Node 4, Type 1, BuildingBlock: CUQRIR_clean_linker_1, # of connection points: 3
#     Node 5, Type 1, BuildingBlock: CUQRIR_clean_linker_1, # of connection points: 3
#     Node 6, Type 1, BuildingBlock: CUQRIR_clean_linker_1, # of connection points: 3
#     Node 7, Type 1, BuildingBlock: CUQRIR_clean_linker_1, # of connection points: 3
#     Node 8, Type 1, BuildingBlock: CUQRIR_clean_linker_1, # of connection points: 3
#     Edge 9, Type (0, 1), BuildingBlock: TEMPAE_clean_linker_10, # of connection points: 2
#     Edge 10, Type (0, 1), BuildingBlock: TEMPAE_clean_linker_10, # of connection points: 2
#     Edge 11, Type (0, 1), BuildingBlock: TEMPAE_clean_linker_10, # of connection points: 2
#     Edge 12, Type (0, 1), BuildingBlock: TEMPAE_clean_linker_10, # of connection points: 2
#     Edge 13, Type (0, 1), BuildingBlock: TEMPAE_clean_linker_10, # of connection points: 2
#     Edge 14, Type (0, 1), BuildingBlock: TEMPAE_clean_linker_10, # of connection points: 2
#     Edge 15, Type (0, 1), BuildingBlock: TEMPAE_clean_linker_10, # of connection points: 2
#     Edge 16, Type (0, 1), BuildingBlock: TEMPAE_clean_linker_10, # of connection points: 2
#     Edge 17, Type (0, 1), BuildingBlock: TEMPAE_clean_linker_10, # of connection points: 2
#     Edge 18, Type (0, 1), BuildingBlock: TEMPAE_clean_linker_10, # of connection points: 2
#     Edge 19, Type (0, 1), BuildingBlock: TEMPAE_clean_linker_10, # of connection points: 2
#     Edge 20, Type (0, 1), BuildingBlock: TEMPAE_clean_linker_10, # of connection points: 2
#     Edge 21, Type (0, 1), BuildingBlock: TEMPAE_clean_linker_10, # of connection points: 2
#     Edge 22, Type (0, 1), BuildingBlock: TEMPAE_clean_linker_10, # of connection points: 2
#     Edge 23, Type (0, 1), BuildingBlock: TEMPAE_clean_linker_10, # of connection points: 2
#     Edge 24, Type (0, 1), BuildingBlock: TEMPAE_clean_linker_10, # of connection points: 2
#     Edge 25, Type (0, 1), BuildingBlock: TEMPAE_clean_linker_10, # of connection points: 2
#     Edge 26, Type (0, 1), BuildingBlock: TEMPAE_clean_linker_10, # of connection points: 2
# Relax obj value: 0.295
# Max RMSD: 0.204
# Mean RMSD: 0.159
data_MOF--net-anh--node1-HISSIN_clean_sbu_0--node2-CUQRIR_clean_linker_1--edge1-TEMPAE_clean_linker_10
_symmetry_space_group_name_H-M    P1
_symmetry_Int_Tables_number       1
_symmetry_cell_setting            triclinic
loop_
_symmetry_equiv_pos_as_xyz
'x, y, z'
_cell_length_a     28.468473
_cell_length_b     28.29359
_cell_length_c     47.705747
_cell_angle_alpha  88.292506
_cell_angle_beta   91.324771
_cell_angle_gamma 120.00932
loop_
_atom_site_label
_atom_site_type_symbol
_atom_site_fract_x
_atom_site_fract_y
_atom_site_fract_z
_atom_type_partial_charge
Eu0 Eu 1.05943 0.49571 0.14541 0.0
Eu1 Eu 1.11902 0.62166 0.15784 0.0
C2 C 1.07845 0.5385 0.20912 0.0
C3 C 0.94129 0.3668 0.15543 0.0
C4 C 0.9292 0.40233 0.16923 0.0
C5 C 0.85386 0.29104 0.16975 0.0
C6 C 0.88131 0.38301 0.18364 0.0
C7 C 0.90355 0.31071 0.15582 0.0
C8 C 0.84221 0.32739 0.18364 0.0
C9 C 0.9944 0.39144 0.14176 0.0
O10 O 0.19005 0.6087 0.14548 0.0
O11 O 0.14794 0.51553 0.15175 0.0
C12 C 0.19277 0.56319 0.14766 0.0
O13 O 1.10751 0.53467 0.10591 0.0
O14 O 0.1827 0.69634 0.17695 0.0
O15 O 1.11533 0.69642 0.15448 0.0
O16 O 1.10977 0.61578 0.11111 0.0
C17 C 1.11687 0.58227 0.09577 0.0
O18 O 0.99962 0.52462 0.13169 0.0
O19 O 1.02774 0.59071 0.16363 0.0
O20 O 1.11899 0.58415 0.1998 0.0
O21 O 1.00062 0.42565 0.12126 0.0
O22 O 1.03546 0.41234 0.15926 0.0
O23 O 1.04354 0.50356 0.19131 0.0
C24 C 0.19439 0.78292 0.16181 0.0
C25 C 0.18314 0.80788 0.13871 0.0
C26 C 0.25695 0.87187 0.18002 0.0
C27 C 0.20782 0.86484 0.13674 0.0
C28 C 0.23281 0.81542 0.18182 0.0
C29 C 0.24367 0.89738 0.15792 0.0
C30 C 0.16005 0.72467 0.16871 0.0
C31 C 0.98986 0.55786 0.14595 0.0
H32 H 0.95697 0.44568 0.16888 0.0
H33 H 0.82445 0.24786 0.16926 0.0
H34 H 0.87504 0.41224 0.19473 0.0
H35 H 0.91215 0.28255 0.14528 0.0
H36 H 0.15334 0.7835 0.123 0.0
H37 H 0.28326 0.89507 0.19716 0.0
H38 H 0.19722 0.88317 0.11929 0.0
H39 H 0.24141 0.79705 0.20003 0.0
Eu40 Eu 0.65658 1.0052 0.47672 0.0
Eu41 Eu 0.59659 1.07475 0.48961 0.0
C42 C 0.64071 1.03097 0.54191 0.0
C43 C 0.76097 0.96115 0.47825 0.0
C44 C 0.7882 0.99701 0.50026 0.0
C45 C 0.82355 0.92702 0.48236 0.0
C46 C 0.83224 0.9969 0.51376 0.0
C47 C 0.77956 0.92712 0.46896 0.0
C48 C 0.84963 0.961 0.50533 0.0
C49 C 0.71084 0.95611 0.46646 0.0
O50 O 0.6853 0.14269 0.48784 0.0
O51 O 0.72641 0.09427 0.47528 0.0
C52 C 0.72895 0.14109 0.48058 0.0
O53 O 0.61516 1.01023 0.43659 0.0
O54 O 0.57708 0.12738 0.51319 0.0
O55 O 0.54091 0.10013 0.47207 0.0
O56 O 0.63108 0.09433 0.44632 0.0
C57 C 0.61981 1.05669 0.42815 0.0
O58 O 0.56796 0.93845 0.4745 0.0
O59 O 0.52556 0.98605 0.4866 0.0
O60 O 0.61412 1.05564 0.53332 0.0
O61 O 0.67033 0.9368 0.48384 0.0
O62 O 0.71602 0.99815 0.45184 0.0
O63 O 0.6601 1.00999 0.52435 0.0
C64 C 0.57679 0.19286 0.48262 0.0
C65 C 0.61761 0.21347 0.46223 0.0
C66 C 0.60372 0.28542 0.49509 0.0
C67 C 0.65302 0.26953 0.45934 0.0
C68 C 0.56847 0.22921 0.49811 0.0
C69 C 0.6483 0.30588 0.47687 0.0
C70 C 0.55225 0.13543 0.49182 0.0
C71 C 0.52349 0.94004 0.47965 0.0
H72 H 0.77414 1.02364 0.50761 0.0
H73 H 0.83511 0.89802 0.4757 0.0
H74 H 0.85157 1.02355 0.5313 0.0
H75 H 0.75875 0.89909 0.45208 0.0
H76 H 0.62505 0.18617 0.4501 0.0
H77 H 0.59833 0.31262 0.50844 0.0
H78 H 0.68681 0.28379 0.44514 0.0
H79 H 0.53737 0.21411 0.51399 0.0
Eu80 Eu 0.64776 0.55664 0.81455 0.0
Eu81 Eu 0.77733 0.62309 0.82745 0.0
C82 C 0.69407 0.57876 0.87793 0.0
C83 C 0.50563 0.52334 0.82157 0.0
C84 C 0.50112 0.52291 0.85093 0.0
C85 C 0.45863 0.575 0.81701 0.0
C86 C 0.47756 0.55012 0.86317 0.0
C87 C 0.48192 0.54749 0.80473 0.0
C88 C 0.45824 0.57837 0.84633 0.0
C89 C 0.54305 0.50826 0.80887 0.0
O90 O 0.76139 0.53687 0.81786 0.0
O91 O 0.66801 0.48807 0.81641 0.0
C92 C 0.71525 0.48993 0.8158 0.0
O93 O 0.68913 0.56161 0.77371 0.0
O94 O 0.86106 0.65131 0.81523 0.0
O95 O 0.8437 0.67148 0.85597 0.0
O96 O 0.76573 0.6422 0.78286 0.0
C97 C 0.73312 0.60564 0.76512 0.0
O98 O 0.66805 0.64538 0.80874 0.0
O99 O 0.75553 0.6913 0.82597 0.0
O100 O 0.73833 0.58218 0.86836 0.0
O101 O 0.57632 0.54335 0.79036 0.0
O102 O 0.56745 0.49065 0.82619 0.0
O103 O 0.65823 0.57955 0.86044 0.0
C104 C 0.92651 0.73608 0.83466 0.0
C105 C 0.92528 0.78028 0.84666 0.0
C106 C 1.02139 0.79581 0.82354 0.0
C107 C 0.97258 0.83116 0.84833 0.0
C108 C 0.97429 0.74491 0.82208 0.0
C109 C 1.02164 0.8387 0.83786 0.0
C110 C 0.881 0.67971 0.83793 0.0
C111 C 0.71176 0.69123 0.8159 0.0
H112 H 0.51892 0.50471 0.8646 0.0
H113 H 0.44316 0.59579 0.80359 0.0
H114 H 0.47791 0.55218 0.88582 0.0
H115 H 0.48463 0.54824 0.78209 0.0
H116 H 0.88871 0.77483 0.85623 0.0
H117 H 1.05869 0.8 0.81562 0.0
H118 H 0.97162 0.86355 0.8594 0.0
H119 H 0.97612 0.71149 0.81266 0.0
C120 C 0.4522 0.24143 0.25471 0.0
N121 N 0.48696 0.22996 0.26897 0.0
N122 N 0.40013 0.19957 0.25644 0.0
C123 C 0.46999 0.2951 0.23959 0.0
C124 C 0.40467 0.16401 0.27485 0.0
N125 N 0.45701 0.18258 0.28216 0.0
C126 C 0.3594 0.10793 0.28327 0.0
H127 H 0.43473 0.29991 0.23348 0.0
H128 H 0.49359 0.29834 0.22072 0.0
H129 H 0.49758 0.32891 0.25346 0.0
H130 H 0.3407 1.0827 0.26455 0.0
H131 H 0.32783 0.11173 0.29449 0.0
H132 H 0.3737 1.08576 0.29734 0.0
C133 C 0.96406 0.69707 0.54518 0.0
N134 N 0.95716 0.71355 0.57034 0.0
N135 N 0.94403 0.64246 0.5452 0.0
C136 C 0.98004 0.73235 0.51895 0.0
C137 C 0.92738 0.62686 0.57199 0.0
N138 N 0.93415 0.66955 0.58704 0.0
C139 C 0.89382 0.56826 0.58171 0.0
H140 H 0.94463 0.73492 0.51065 0.0
H141 H 0.99373 0.71484 0.50264 0.0
H142 H 1.01283 0.77434 0.52373 0.0
H143 H 0.90688 0.54224 0.57132 0.0
H144 H 0.85065 0.5534 0.57622 0.0
H145 H 0.8972 0.56452 0.6048 0.0
C146 C 0.37542 0.88894 0.91283 0.0
N147 N 0.37646 0.84961 0.92918 0.0
N148 N 0.34464 0.90734 0.92431 0.0
C149 C 0.39612 0.90251 0.88327 0.0
C150 C 0.32934 0.87929 0.94911 0.0
N151 N 0.34796 0.84377 0.95193 0.0
C152 C 0.28572 0.87725 0.96723 0.0
H153 H 0.40649 0.94489 0.87744 0.0
H154 H 0.36399 0.87438 0.86866 0.0
H155 H 0.43226 0.89777 0.88102 0.0
H156 H 0.24618 0.84127 0.96157 0.0
H157 H 0.28274 0.9147 0.96414 0.0
H158 H 0.2942 0.87274 0.98966 0.0
C159 C 1.12534 0.5389 0.45971 0.0
N160 N 1.08628 0.50234 0.44156 0.0
N161 N 0.16485 0.58419 0.4458 0.0
C162 C 1.12622 0.53041 0.49092 0.0
C163 C 0.1492 0.57342 0.41864 0.0
N164 N 1.10256 0.5249 0.41598 0.0
C165 C 0.18027 0.61049 0.39426 0.0
H166 H 1.10224 0.5462 0.50102 0.0
H167 H 0.16792 0.55307 0.4996 0.0
H168 H 1.10874 0.48646 0.49642 0.0
H169 H 0.22406 0.63581 0.3994 0.0
H170 H 0.16376 0.63791 0.38915 0.0
H171 H 0.17613 0.58703 0.37528 0.0
C172 C 0.70824 1.08722 0.7914 0.0
N173 N 0.70095 1.04655 0.77354 0.0
N174 N 0.70238 0.12745 0.77772 0.0
C175 C 0.72148 1.08815 0.82211 0.0
C176 C 0.69037 0.10914 0.75111 0.0
N177 N 0.68962 1.06111 0.74848 0.0
C178 C 0.67894 0.13829 0.72726 0.0
H179 H 0.70161 1.04613 0.83123 0.0
H180 H 0.7087 0.1129 0.83385 0.0
H181 H 0.76603 0.10688 0.82479 0.0
H182 H 0.71718 0.16489 0.71585 0.0
H183 H 0.66278 0.16388 0.73504 0.0
H184 H 0.64929 0.10888 0.71215 0.0
C185 C 0.59358 0.56409 0.12594 0.0
N186 N 0.63365 0.56886 0.10834 0.0
N187 N 0.55357 0.56908 0.11161 0.0
C188 C 0.59289 0.5535 0.15697 0.0
C189 C 0.57149 0.57761 0.08478 0.0
N190 N 0.61894 0.5774 0.08276 0.0
C191 C 0.54211 0.58581 0.06007 0.0
H192 H 0.57516 0.50899 0.16092 0.0
H193 H 0.56779 0.56683 0.16794 0.0
H194 H 0.63476 0.57466 0.16571 0.0
H195 H 0.57084 0.61293 0.04379 0.0
H196 H 0.51736 0.6038 0.06659 0.0
H197 H 0.51494 0.54571 0.0505 0.0
C198 C 0.28715 0.60261 0.12572 0.0
C199 C 0.247 0.56492 0.14419 0.0
C200 C 0.33675 0.60281 0.12136 0.0
C201 C 0.34872 0.56572 0.13646 0.0
C202 C 0.30872 0.52844 0.1556 0.0
C203 C 0.25865 0.52781 0.15877 0.0
C204 C 0.37591 0.64211 0.09989 0.0
C205 C 0.31885 0.48897 0.17298 0.0
C206 C 0.45251 0.52824 0.10719 0.0
C207 C 0.50186 0.56401 0.1208 0.0
C208 C 0.40346 0.52864 0.11191 0.0
C209 C 0.40168 0.56457 0.13157 0.0
C210 C 0.45094 0.59939 0.14624 0.0
C211 C 0.50003 0.59936 0.14043 0.0
C212 C 0.35364 0.49147 0.09498 0.0
C213 C 0.45208 0.63764 0.16792 0.0
H214 H 0.27908 0.63114 0.1139 0.0
H215 H 0.22868 0.49845 0.17318 0.0
H216 H 0.41597 0.66863 0.10986 0.0
H217 H 0.38212 0.61904 0.08336 0.0
H218 H 0.36132 0.66838 0.08981 0.0
H219 H 0.32195 0.45989 0.15911 0.0
H220 H 0.35804 0.51141 0.18447 0.0
H221 H 0.28612 0.46533 0.18837 0.0
H222 H 0.45272 0.50074 0.09195 0.0
H223 H 0.53744 0.62828 0.15071 0.0
H224 H 0.33923 0.51606 0.08296 0.0
H225 H 0.3204 0.46335 0.10914 0.0
H226 H 0.36139 0.4668 0.08005 0.0
H227 H 0.44483 0.66911 0.15762 0.0
H228 H 0.49148 0.65846 0.17938 0.0
H229 H 0.41912 0.61487 0.18329 0.0
C230 C 0.78271 0.24285 0.46838 0.0
C231 C 0.78214 0.19426 0.47639 0.0
C232 C 0.83169 0.29225 0.46258 0.0
C233 C 0.88292 0.29494 0.46596 0.0
C234 C 0.8825 0.24624 0.47501 0.0
C235 C 0.83265 0.19676 0.47935 0.0
C236 C 0.82722 0.34113 0.45285 0.0
C237 C 0.93472 0.24577 0.48028 0.0
C238 C 1.01512 0.40534 0.42978 0.0
C239 C 1.03602 0.44995 0.44806 0.0
C240 C 0.96515 0.35636 0.43463 0.0
C241 C 0.93629 0.34801 0.45992 0.0
C242 C 0.95884 0.39101 0.47946 0.0
C243 C 1.00608 0.44168 0.47277 0.0
C244 C 0.9441 0.31353 0.41236 0.0
C245 C 0.93436 0.38238 0.50816 0.0
H246 H 0.74441 0.24206 0.46578 0.0
H247 H 0.83339 0.15998 0.48559 0.0
H248 H 0.81875 0.35879 0.47122 0.0
H249 H 0.86439 0.37334 0.44245 0.0
H250 H 0.79249 0.32851 0.43804 0.0
H251 H 0.92881 0.21248 0.49528 0.0
H252 H 0.94899 0.23859 0.46028 0.0
H253 H 0.96697 0.28519 0.48866 0.0
H254 H 1.03775 0.40769 0.41151 0.0
H255 H 1.01927 0.47465 0.48722 0.0
H256 H 0.89912 0.28927 0.412 0.0
H257 H 0.96004 0.28536 0.41655 0.0
H258 H 0.95817 0.3324 0.39123 0.0
H259 H 0.89074 0.36957 0.50642 0.0
H260 H 0.9554 0.41947 0.5211 0.0
H261 H 0.93696 0.34872 0.51928 0.0
C262 C 0.75273 0.78765 0.79509 0.0
C263 C 0.71214 0.74473 0.81114 0.0
C264 C 0.75123 0.83626 0.78838 0.0
C265 C 0.7097 0.84463 0.79927 0.0
C266 C 0.66961 0.80178 0.81638 0.0
C267 C 0.67041 0.75231 0.82128 0.0
C268 C 0.79424 0.87787 0.76912 0.0
C269 C 0.62506 0.80736 0.82959 0.0
C270 C 0.74374 0.99644 0.79786 0.0
C271 C 0.70368 0.99642 0.77989 0.0
C272 C 0.74512 0.94788 0.80498 0.0
C273 C 0.70771 0.89719 0.79255 0.0
C274 C 0.66843 0.89745 0.77353 0.0
C275 C 0.66592 0.9459 0.76832 0.0
C276 C 0.78726 0.95188 0.82603 0.0
C277 C 0.62829 0.8469 0.75817 0.0
H278 H 0.78488 0.7824 0.78672 0.0
H279 H 0.63855 0.71966 0.83361 0.0
H280 H 0.78058 0.90348 0.75751 0.0
H281 H 0.83079 0.90482 0.78171 0.0
H282 H 0.80654 0.8576 0.75365 0.0
H283 H 0.60953 0.78122 0.84882 0.0
H284 H 0.63893 0.85024 0.83509 0.0
H285 H 0.59074 0.79376 0.81453 0.0
H286 H 0.7745 1.03461 0.80655 0.0
H287 H 0.6335 0.94361 0.75519 0.0
H288 H 0.82562 0.96411 0.81495 0.0
H289 H 0.77454 0.91267 0.83747 0.0
H290 H 0.79601 0.98376 0.84161 0.0
H291 H 0.64094 0.81571 0.75746 0.0
H292 H 0.62242 0.85773 0.73629 0.0
H293 H 0.58833 0.82871 0.76858 0.0
C294 C 0.8993 0.5284 0.12005 0.0
C295 C 0.93651 0.55858 0.14152 0.0
C296 C 0.85019 0.5295 0.11504 0.0
C297 C 0.83595 0.56099 0.13199 0.0
C298 C 0.87296 0.59093 0.15396 0.0
C299 C 0.92222 0.58968 0.15829 0.0
C300 C 0.81361 0.49717 0.09115 0.0
C301 C 0.86049 0.62462 0.17309 0.0
C302 C 0.73422 0.60589 0.10321 0.0
C303 C 0.68402 0.56724 0.11505 0.0
C304 C 0.78294 0.60419 0.10834 0.0
C305 C 0.78332 0.56334 0.12639 0.0
C306 C 0.73287 0.52456 0.13872 0.0
C307 C 0.68444 0.52664 0.13281 0.0
C308 C 0.83433 0.64635 0.09415 0.0
C309 C 0.72993 0.4804 0.15828 0.0
H310 H 0.90885 0.50407 0.10672 0.0
H311 H 0.94965 0.61323 0.17502 0.0
H312 H 0.77288 0.46713 0.09922 0.0
H313 H 0.80822 0.52488 0.07616 0.0
H314 H 0.8299 0.47497 0.07966 0.0
H315 H 0.89176 0.64411 0.18979 0.0
H316 H 0.85779 0.65702 0.16072 0.0
H317 H 0.8205 0.59855 0.18308 0.0
H318 H 0.73566 0.63825 0.08994 0.0
H319 H 0.64655 0.49568 0.14185 0.0
H320 H 0.85102 0.62586 0.08157 0.0
H321 H 0.8654 0.67067 0.11016 0.0
H322 H 0.82767 0.67458 0.08014 0.0
H323 H 0.74081 0.45362 0.14693 0.0
H324 H 0.68889 0.45485 0.16733 0.0
H325 H 0.75977 0.49895 0.17566 0.0
C326 C 0.45991 0.85192 0.45472 0.0
C327 C 0.46915 0.88794 0.47664 0.0
C328 C 0.4095 0.803 0.45121 0.0
C329 C 0.3669 0.78736 0.47074 0.0
C330 C 0.37647 0.82309 0.4933 0.0
C331 C 0.42658 0.87306 0.49561 0.0
C332 C 0.40157 0.76837 0.42615 0.0
C333 C 0.33395 0.80808 0.51538 0.0
C334 C 0.21923 0.68591 0.4477 0.0
C335 C 0.21206 0.63451 0.45602 0.0
C336 C 0.26854 0.73526 0.45246 0.0
C337 C 0.31236 0.73463 0.46704 0.0
C338 C 0.30441 0.68302 0.47677 0.0
C339 C 0.25532 0.63394 0.47064 0.0
C340 C 0.27455 0.78801 0.44058 0.0
C341 C 0.34844 0.67937 0.49316 0.0
H342 H 0.49198 0.86272 0.43975 0.0
H343 H 0.43297 0.8999 0.5128 0.0
H344 H 0.39475 0.72775 0.4332 0.0
H345 H 0.36501 0.76163 0.41406 0.0
H346 H 0.43703 0.78736 0.41194 0.0
H347 H 0.29706 0.80584 0.5058 0.0
H348 H 0.32195 0.76707 0.5245 0.0
H349 H 0.34842 0.83797 0.53256 0.0
H350 H 0.1866 0.68721 0.43622 0.0
H351 H 0.25158 0.59494 0.4765 0.0
H352 H 0.30829 0.80628 0.42533 0.0
H353 H 0.28506 0.81782 0.45749 0.0
H354 H 0.237 0.78206 0.42982 0.0
H355 H 0.38245 0.68833 0.47905 0.0
H356 H 0.33361 0.63821 0.50287 0.0
H357 H 0.36478 0.71014 0.50992 0.0
C358 C 0.67583 0.39525 0.79526 0.0
C359 C 0.71577 0.43701 0.81186 0.0
C360 C 0.67554 0.34562 0.79088 0.0
C361 C 0.71487 0.33536 0.80424 0.0
C362 C 0.75466 0.37697 0.82154 0.0
C363 C 0.7553 0.42724 0.82465 0.0
C364 C 0.63341 0.30439 0.77141 0.0
C365 C 0.79635 0.3681 0.83717 0.0
C366 C 0.67876 0.18319 0.80863 0.0
C367 C 0.71036 0.18004 0.78728 0.0
C368 C 0.68159 0.23339 0.81521 0.0
C369 C 0.71511 0.28208 0.79939 0.0
C370 C 0.74729 0.27898 0.77796 0.0
C371 C 0.74528 0.22889 0.77262 0.0
C372 C 0.64758 0.23394 0.83881 0.0
C373 C 0.78234 0.32824 0.75967 0.0
H374 H 0.64519 0.40193 0.78502 0.0
H375 H 0.78617 0.45853 0.83772 0.0
H376 H 0.65355 0.29488 0.7546 0.0
H377 H 0.60726 0.26575 0.78309 0.0
H378 H 0.60722 0.31912 0.76153 0.0
H379 H 0.82225 0.40236 0.85123 0.0
H380 H 0.77584 0.32972 0.84991 0.0
H381 H 0.82281 0.36354 0.82209 0.0
H382 H 0.65044 0.14601 0.81968 0.0
H383 H 0.76982 0.22736 0.75605 0.0
H384 H 0.614 0.23924 0.83013 0.0
H385 H 0.67236 0.26885 0.8527 0.0
H386 H 0.62983 0.19554 0.85161 0.0
H387 H 0.75669 0.34234 0.7486 0.0
H388 H 0.80481 0.31952 0.7438 0.0
H389 H 0.81205 0.36234 0.77271 0.0
C390 C 0.92594 0.94157 0.50903 0.0
C391 C 0.88936 0.95282 0.52233 0.0
C392 C 0.94982 0.91524 0.52366 0.0
C393 C 0.93718 0.9007 0.55229 0.0
C394 C 0.90818 0.92065 0.56683 0.0
C395 C 0.88388 0.94606 0.55157 0.0
C396 C 0.98197 0.89608 0.5075 0.0
C397 C 0.89676 0.90878 0.59772 0.0
C398 C 0.90031 0.7543 0.56303 0.0
C399 C 0.94918 0.75943 0.57274 0.0
C400 C 0.89469 0.80011 0.55847 0.0
C401 C 0.93951 0.85262 0.56376 0.0
C402 C 0.98773 0.85767 0.57584 0.0
C403 C 0.99225 0.81065 0.5799 0.0
C404 C 0.84232 0.79229 0.54554 0.0
C405 C 1.03579 0.9125 0.5827 0.0
H406 H 0.93188 0.9487 0.48659 0.0
H407 H 0.85641 0.95551 0.56219 0.0
H408 H 1.01866 0.90321 0.51949 0.0
H409 H 0.95676 0.8515 0.50412 0.0
H410 H 0.9946 0.91709 0.4867 0.0
H411 H 0.8873 0.93841 0.60721 0.0
H412 H 0.86124 0.86726 0.60071 0.0
H413 H 0.93185 0.90998 0.60903 0.0
H414 H 0.86791 0.71455 0.55682 0.0
H415 H 1.03016 0.81413 0.5872 0.0
H416 H 0.85002 0.81076 0.52409 0.0
H417 H 0.82586 0.81297 0.5581 0.0
H418 H 0.81082 0.74851 0.54409 0.0
H419 H 1.06342 0.92814 0.56448 0.0
H420 H 1.05903 0.90888 0.60086 0.0
H421 H 1.02338 0.94282 0.5875 0.0
C422 C 1.08338 0.89475 0.87597 0.0
C423 C 1.0743 0.88487 0.84717 0.0
C424 C 0.13611 0.91975 0.88713 0.0
C425 C 0.18026 0.93535 0.86892 0.0
C426 C 0.17185 0.93545 0.83958 0.0
C427 C 1.11857 0.90922 0.82893 0.0
C428 C 0.14349 0.92077 0.91857 0.0
C429 C 0.21849 0.95578 0.81954 0.0
C430 C 0.31285 0.96966 0.90649 0.0
C431 C 0.30827 0.91809 0.90766 0.0
C432 C 0.27325 0.97752 0.89231 0.0
C433 C 0.22791 0.93225 0.87989 0.0
C434 C 0.22474 0.88057 0.88034 0.0
C435 C 0.26513 0.87444 0.89407 0.0
C436 C 0.27932 1.03361 0.89172 0.0
C437 C 0.17731 0.83072 0.86758 0.0
H438 H 1.04935 0.87676 0.89021 0.0
H439 H 1.11167 0.90314 0.80654 0.0
H440 H 0.15042 0.88689 0.92547 0.0
H441 H 0.17939 0.95961 0.925 0.0
H442 H 1.10728 0.91584 0.92957 0.0
H443 H 0.20811 0.96734 0.79883 0.0
H444 H 0.25529 0.99149 0.82815 0.0
H445 H 0.22821 0.92294 0.81628 0.0
H446 H 0.34655 1.00323 0.91712 0.0
H447 H 0.26218 0.83471 0.89529 0.0
H448 H 0.26333 1.03956 0.91149 0.0
H449 H 0.25701 1.03952 0.87384 0.0
H450 H 0.32279 1.06561 0.89045 0.0
H451 H 0.13894 0.82215 0.87756 0.0
H452 H 0.18131 0.79372 0.87011 0.0
H453 H 0.17389 0.838 0.84485 0.0
C454 C 0.31349 0.99121 0.1715 0.0
C455 C 0.26281 0.95668 0.1594 0.0
C456 C 0.32612 1.04208 0.18155 0.0
C457 C 0.28886 1.06131 0.17709 0.0
C458 C 0.24109 1.02993 0.16108 0.0
C459 C 0.22788 0.97726 0.15304 0.0
C460 C 0.37796 1.07284 0.19857 0.0
C461 C 0.20233 1.04999 0.15327 0.0
C462 C 0.30586 0.14463 0.23889 0.0
C463 C 0.36023 0.18363 0.23388 0.0
C464 C 0.27576 0.10575 0.21849 0.0
C465 C 0.29884 0.11121 0.19174 0.0
C466 C 0.34496 0.16106 0.18425 0.0
C467 C 0.37717 0.19539 0.2057 0.0
C468 C 0.22346 1.05547 0.22683 0.0
C469 C 0.36527 0.17329 0.15453 0.0
H470 H 0.3419 0.97666 0.17509 0.0
H471 H 0.18885 0.95141 0.14318 0.0
H472 H 0.4086 0.10813 0.18614 0.0
H473 H 0.37069 1.08844 0.21803 0.0
H474 H 0.39589 1.04697 0.20464 0.0
H475 H 0.19222 1.04379 0.13055 0.0
H476 H 0.16377 1.02521 0.16475 0.0
H477 H 0.21878 0.09378 0.15775 0.0
H478 H 0.29005 0.13922 0.25986 0.0
H479 H 0.41771 0.22672 0.2003 0.0
H480 H 0.22696 1.01841 0.22456 0.0
H481 H 0.19014 1.05157 0.21285 0.0
H482 H 0.21228 1.05682 0.24883 0.0
H483 H 0.39659 0.16149 0.15179 0.0
H484 H 0.38448 0.21777 0.14979 0.0
H485 H 0.33177 0.15067 0.13927 0.0
C486 C 0.72349 0.39379 0.45617 0.0
C487 C 0.69421 0.36257 0.47961 0.0
C488 C 0.77024 0.44526 0.45939 0.0
C489 C 0.78769 0.46579 0.48667 0.0
C490 C 0.75805 0.43442 0.51031 0.0
C491 C 0.71196 0.38339 0.50647 0.0
C492 C 0.8004 0.47763 0.43368 0.0
C493 C 0.77531 0.45437 0.53988 0.0
C494 C 0.92531 0.56752 0.514 0.0
C495 C 0.91504 0.6085 0.52196 0.0
C496 C 0.8865 0.52329 0.49847 0.0
C497 C 0.83639 0.52007 0.49139 0.0
C498 C 0.82934 0.56519 0.49613 0.0
C499 C 0.86876 0.60887 0.51156 0.0
C500 C 0.89624 0.4769 0.4929 0.0
C501 C 0.77719 0.56421 0.48838 0.0
H502 H 0.70999 0.37788 0.43533 0.0
H503 H 0.6907 0.35892 0.52475 0.0
H504 H 0.79172 0.51137 0.42978 0.0
H505 H 0.84486 0.49628 0.43676 0.0
H506 H 0.78808 0.45202 0.41475 0.0
H507 H 0.74819 0.4245 0.55594 0.0
H508 H 0.81719 0.46251 0.54403 0.0
H509 H 0.77529 0.4932 0.54244 0.0
H510 H 0.96129 0.56769 0.52207 0.0
H511 H 0.86084 0.64064 0.51797 0.0
H512 H 0.88292 0.46173 0.47137 0.0
H513 H 0.87207 0.44283 0.50786 0.0
H514 H 0.93972 0.48934 0.49551 0.0
H515 H 0.76185 0.54544 0.46765 0.0
H516 H 0.78252 0.6059 0.48783 0.0
H517 H 0.74589 0.53922 0.50419 0.0
C518 C 0.41032 0.5997 0.88297 0.0
C519 C 0.44342 0.61594 0.85926 0.0
C520 C 0.39871 0.63636 0.89612 0.0
C521 C 0.42116 0.69044 0.88535 0.0
C522 C 0.45465 0.707 0.86143 0.0
C523 C 0.46548 0.66956 0.84872 0.0
C524 C 0.36213 0.6172 0.92134 0.0
C525 C 0.47975 0.76449 0.84945 0.0
C526 C 0.35391 0.77382 0.89808 0.0
C527 C 0.38701 0.80855 0.91917 0.0
C528 C 0.36344 0.73381 0.88761 0.0
C529 C 0.40786 0.72929 0.89823 0.0
C530 C 0.44103 0.76389 0.91991 0.0
C531 C 0.42973 0.80298 0.93039 0.0
C532 C 0.32686 0.6974 0.86471 0.0
C533 C 0.48913 0.76058 0.93143 0.0
H534 H 0.3933 0.55824 0.89113 0.0
H535 H 0.49227 0.68263 0.83082 0.0
H536 H 0.38356 0.64323 0.93952 0.0
H537 H 0.32583 0.6212 0.91689 0.0
H538 H 0.34853 0.57403 0.92732 0.0
H539 H 0.49848 0.76855 0.82871 0.0
H540 H 0.44898 0.77747 0.847 0.0
H541 H 0.51154 0.79298 0.8641 0.0
H542 H 0.32038 0.77814 0.8899 0.0
H543 H 0.45478 0.83001 0.94684 0.0
H544 H 0.31097 0.65388 0.87072 0.0
H545 H 0.35039 0.70556 0.84518 0.0
H546 H 0.29201 0.70387 0.86016 0.0
H547 H 0.47627 0.71828 0.93874 0.0
H548 H 0.50926 0.78864 0.94913 0.0
H549 H 0.51924 0.77112 0.91459 0.0
C550 C 0.76716 0.34373 0.19657 0.0
C551 C 0.78958 0.30933 0.19763 0.0
C552 C 0.72065 0.33109 0.21153 0.0
C553 C 0.69352 0.28106 0.22666 0.0
C554 C 0.71471 0.24515 0.22737 0.0
C555 C 0.76303 0.26003 0.21307 0.0
C556 C 0.69991 0.37095 0.21029 0.0
C557 C 0.68583 0.19077 0.24276 0.0
C558 C 0.58528 0.26822 0.27642 0.0
C559 C 0.53988 0.24584 0.25868 0.0
C560 C 0.63576 0.27821 0.26672 0.0
C561 C 0.63996 0.26446 0.23888 0.0
C562 C 0.5935 0.2402 0.22132 0.0
C563 C 0.54416 0.23148 0.23143 0.0
C564 C 0.68474 0.30493 0.28582 0.0
C565 C 0.59594 0.22417 0.19169 0.0
H566 H 0.78599 0.38102 0.18393 0.0
H567 H 0.78014 0.23336 0.21419 0.0
H568 H 0.6673 0.35788 0.19416 0.0
H569 H 0.6828 0.37263 0.23065 0.0
H570 H 0.73265 0.41278 0.20464 0.0
H571 H 0.70862 0.16842 0.24223 0.0
H572 H 0.67949 0.19667 0.26495 0.0
H573 H 0.64513 0.16503 0.23321 0.0
H574 H 0.58102 0.27763 0.29775 0.0
H575 H 0.50813 0.21209 0.21825 0.0
H576 H 0.71376 0.34617 0.2773 0.0
H577 H 0.70595 0.28103 0.28673 0.0
H578 H 0.67384 0.30906 0.30747 0.0
H579 H 0.62033 0.26139 0.17859 0.0
H580 H 0.55503 0.20053 0.18193 0.0
H581 H 0.61614 0.19932 0.19139 0.0
C582 C 0.18436 0.59266 0.05994 0.0
C583 C 0.14459 0.6042 0.06878 0.0
C584 C 0.22063 0.62428 0.03851 0.0
C585 C 0.21671 0.66814 0.02584 0.0
C586 C 0.17415 0.67727 0.03345 0.0
C587 C 0.13863 0.64512 0.05476 0.0
C588 C 0.26509 0.61296 0.03075 0.0
C589 C 0.16826 0.72345 0.02045 0.0
C590 C 0.33512 0.79957 -0.00163 0.0
C591 C 0.32328 0.7956 0.96969 0.0
C592 C 0.3033 0.75613 0.0169 0.0
C593 C 0.25889 0.70769 0.00626 0.0
C594 C 0.24973 0.70209 0.97696 0.0
C595 C 0.28149 0.74658 0.95905 0.0
C596 C 0.31429 0.76397 0.04801 0.0
C597 C 0.20357 0.65097 0.96467 0.0
H598 H 0.18957 0.56154 0.07103 0.0
H599 H 1.1078 0.65399 0.06156 0.0
H600 H 0.26951 0.61444 0.00764 0.0
H601 H 0.30426 0.64485 0.03961 0.0
H602 H 0.25734 0.57256 0.03898 0.0
H603 H 1.13142 0.72331 0.02777 0.0
H604 H 0.20428 0.76315 0.02583 0.0
H605 H 0.16619 0.7208 -0.00274 0.0
H606 H 0.36716 0.83794 0.00638 0.0
H607 H 0.27148 0.74427 0.93693 0.0
H608 H 0.31362 0.72772 0.05798 0.0
H609 H 0.28193 0.76868 0.05783 0.0
H610 H 0.35403 0.80069 0.05262 0.0
H611 H 0.20014 0.614 0.97535 0.0
H612 H 0.20874 0.64868 0.94183 0.0
H613 H 0.16487 0.65058 0.96779 0.0
C614 C 0.55741 1.02459 0.38676 0.0
C615 C 0.60438 1.06545 0.39964 0.0
C616 C 0.53351 1.03741 0.36384 0.0
C617 C 0.55789 1.09204 0.35352 0.0
C618 C 0.60834 0.13201 0.36473 0.0
C619 C 0.63063 0.11834 0.38789 0.0
C620 C 0.47964 0.99371 0.35255 0.0
C621 C 0.63637 0.19046 0.35395 0.0
C622 C 0.50768 0.13304 0.28777 0.0
C623 C 0.47821 0.15493 0.29948 0.0
C624 C 0.53299 0.11101 0.30499 0.0
C625 C 0.52722 0.10969 0.33445 0.0
C626 C 0.49508 0.1294 0.34614 0.0
C627 C 0.47129 0.15215 0.32845 0.0
C628 C 0.56742 1.09112 0.29178 0.0
C629 C 0.48746 0.12836 0.37744 0.0
H630 H 0.53683 0.98382 0.39606 0.0
H631 H 0.66709 0.1499 0.39788 0.0
H632 H 0.44689 1.0001 0.36043 0.0
H633 H 0.47849 0.99602 0.32931 0.0
H634 H 0.47088 0.95215 0.35922 0.0
H635 H 0.67884 0.21412 0.36181 0.0
H636 H 0.63667 0.19213 0.33068 0.0
H637 H 0.61393 0.21064 0.36094 0.0
H638 H 0.51191 0.13439 0.26522 0.0
H639 H 0.44813 0.169 0.33719 0.0
H640 H 0.55397 1.04855 0.2988 0.0
H641 H 0.61025 0.1166 0.29868 0.0
H642 H 0.56577 0.09276 0.2685 0.0
H643 H 0.47316 1.08668 0.38625 0.0
H644 H 0.45787 0.14126 0.38291 0.0
H645 H 0.52686 0.15612 0.38771 0.0
C646 C 0.77601 0.66488 0.72334 0.0
C647 C 0.75084 0.61265 0.73585 0.0
C648 C 0.80243 0.67502 0.69758 0.0
C649 C 0.80526 0.63221 0.68458 0.0
C650 C 0.77814 0.57884 0.69667 0.0
C651 C 0.75049 0.56952 0.72206 0.0
C652 C 0.82922 0.732 0.6849 0.0
C653 C 0.78111 0.53239 0.6837 0.0
C654 C 0.84753 0.64604 0.6086 0.0
C655 C 0.90299 0.66415 0.61142 0.0
C656 C 0.81541 0.63684 0.63219 0.0
C657 C 0.83912 0.644 0.65924 0.0
C658 C 0.8953 0.66206 0.66213 0.0
C659 C 0.92676 0.67247 0.63804 0.0
C660 C 0.7561 0.61894 0.62816 0.0
C661 C 0.92184 0.66916 0.69065 0.0
H662 H 0.77622 0.6982 0.73414 0.0
H663 H 0.73176 0.52936 0.73206 0.0
H664 H 0.87394 0.75031 0.68586 0.0
H665 H 0.81753 0.73076 0.66246 0.0
H666 H 0.81823 0.75903 0.696 0.0
H667 H 0.7555 0.49284 0.69488 0.0
H668 H 0.76807 0.52819 0.6614 0.0
H669 H 0.82375 0.54122 0.6842 0.0
H670 H 0.8293 0.63834 0.58785 0.0
H671 H 0.96955 0.68561 0.6399 0.0
H672 H 0.74611 0.64645 0.63947 0.0
H673 H 0.73073 0.57723 0.63715 0.0
H674 H 0.74493 0.61882 0.60568 0.0
H675 H 0.9175 0.69978 0.70259 0.0
H676 H 0.96567 0.68255 0.68925 0.0
H677 H 0.9013 0.63005 0.70279 0.0
C678 C 0.66133 0.98862 0.58451 0.0
C679 C 0.64991 1.02796 0.57274 0.0
C680 C 0.66896 0.9854 0.61374 0.0
C681 C 0.66639 1.02319 0.63164 0.0
C682 C 0.65585 1.06353 0.61975 0.0
C683 C 0.6472 1.06501 0.59066 0.0
C684 C 0.67897 0.94111 0.62553 0.0
C685 C 0.65376 0.10543 0.6378 0.0
C686 C 0.63464 1.00331 0.70962 0.0
C687 C 0.68581 1.03689 0.72166 0.0
C688 C 0.62832 0.99413 0.68056 0.0
C689 C 0.67408 1.02099 0.66284 0.0
C690 C 0.7263 1.05229 0.67516 0.0
C691 C 0.73147 1.05952 0.70441 0.0
C692 C 0.57198 0.95945 0.66864 0.0
C693 C 0.77623 1.0826 0.65729 0.0
H694 H 0.66333 0.95965 0.57093 0.0
H695 H 0.63898 0.09594 0.58187 0.0
H696 H 0.71801 0.95943 0.63727 0.0
H697 H 0.64657 0.91495 0.6406 0.0
H698 H 0.68002 0.91498 0.60891 0.0
H699 H 0.64771 0.13568 0.62522 0.0
H700 H 0.6201 1.08481 0.65297 0.0
H701 H 0.69196 0.12762 0.65012 0.0
H702 H 0.59911 0.98749 0.72273 0.0
H703 H 0.77077 1.08698 0.71358 0.0
H704 H 0.57192 0.93249 0.6522 0.0
H705 H 0.55792 0.98623 0.65873 0.0
H706 H 0.54255 0.93382 0.68512 0.0
H707 H 0.77668 1.05591 0.64087 0.0
H708 H 0.81415 0.09838 0.66997 0.0
H709 H 0.77584 0.1177 0.64651 0.0
C710 C 0.72556 0.57786 0.92767 0.0
C711 C 0.68584 0.57605 0.90892 0.0
C712 C 0.71947 0.57721 0.95693 0.0
C713 C 0.67246 0.57462 0.96797 0.0
C714 C 0.63191 0.57215 0.9492 0.0
C715 C 0.63906 0.57291 0.92 0.0
C716 C 0.76373 0.57996 0.97607 0.0
C717 C 0.58106 0.56926 0.95998 0.0
C718 C 0.62775 0.52787 0.04358 0.0
C719 C 0.64306 0.5774 0.05645 0.0
C720 C 0.63898 0.52637 0.0151 0.0
C721 C 0.66604 0.5757 -0.00093 0.0
C722 C 0.68416 0.62605 0.01253 0.0
C723 C 0.67223 0.62621 0.041 0.0
C724 C 0.61909 0.47179 0.00179 0.0
C725 C 0.71341 0.67967 -0.00351 0.0
H726 H 0.76193 0.58031 0.91949 0.0
H727 H 0.60803 0.57143 0.90585 0.0
H728 H 0.7808 0.61725 0.98881 0.0
H729 H 0.74676 0.54442 0.99088 0.0
H730 H 0.7972 0.5805 0.96428 0.0
H731 H 0.55287 0.56643 0.94276 0.0
H732 H 0.5595 0.53327 0.97426 0.0
H733 H 0.59187 0.60605 0.9723 0.0
H734 H 0.60419 0.49017 0.05546 0.0
H735 H 0.68294 0.66434 0.0509 0.0
H736 H 0.6522 0.47182 0.98996 0.0
H737 H 0.58603 0.46402 0.98658 0.0
H738 H 0.60344 0.43776 0.01755 0.0
H739 H 0.74789 0.6823 0.98479 0.0
H740 H 0.72905 0.71524 0.01048 0.0
H741 H 0.68531 0.68236 0.98087 0.0
C742 C 1.0283 0.47967 0.25135 0.0
C743 C 1.07183 0.52774 0.24007 0.0
C744 C 1.02282 0.46973 0.28064 0.0
C745 C 1.06176 0.50868 0.29913 0.0
C746 C 1.10537 0.55742 0.2878 0.0
C747 C 1.10982 0.56626 0.2586 0.0
C748 C 0.97574 0.41733 0.29178 0.0
C749 C 0.14804 0.60019 0.30656 0.0
C750 C 1.04379 0.52254 0.37681 0.0
C751 C 1.07703 0.50416 0.38913 0.0
C752 C 1.03425 0.51985 0.34759 0.0
C753 C 1.05896 0.49863 0.33029 0.0
C754 C 1.08876 0.47579 0.34307 0.0
C755 C 1.0978 0.47933 0.37223 0.0
C756 C 1.00207 0.54455 0.33507 0.0
C757 C 1.11573 0.4525 0.32572 0.0
H758 H 0.99858 0.44963 0.23731 0.0
H759 H 0.14361 0.6036 0.25029 0.0
H760 H 0.99107 0.39286 0.30312 0.0
H761 H 0.95269 0.42642 0.30707 0.0
H762 H 0.94761 0.39226 0.27483 0.0
H763 H 0.17808 0.63686 0.29458 0.0
H764 H 1.1287 0.61319 0.32217 0.0
H765 H 0.17005 0.58271 0.31836 0.0
H766 H 1.02904 0.54311 0.38976 0.0
H767 H 1.12479 0.4666 0.38169 0.0
H768 H 0.9744 0.51856 0.31826 0.0
H769 H 1.0303 0.58499 0.32545 0.0
H770 H 0.97782 0.55028 0.35114 0.0
H771 H 1.08766 0.42584 0.30923 0.0
H772 H 1.12963 0.42858 0.3388 0.0
H773 H 0.15151 0.48634 0.31508 0.0
loop_
_geom_bond_atom_site_label_1
_geom_bond_atom_site_label_2
_geom_bond_distance
_geom_bond_site_symmetry_2
_ccdc_geom_bond_type
Eu0 C9 2.828 . S
Eu0 O11 2.392 1_655 S
Eu0 O13 2.418 . S
Eu0 O18 2.373 . S
Eu0 O21 2.488 . S
Eu0 O22 2.471 . S
Eu0 O23 2.349 . S
Eu1 O10 2.373 . S
Eu1 O14 2.488 . S
Eu1 O15 2.471 . S
Eu1 O16 2.349 . S
Eu1 O19 2.392 1_455 S
Eu1 O20 2.418 . S
Eu1 C30 2.828 . S
C2 O20 1.244 . S
C2 O23 1.265 1_455 S
C3 C4 1.379 . S
C3 C7 1.373 . S
C3 C9 1.505 . S
C4 C3 1.379 . S
C4 C6 1.369 . S
C4 H32 0.930 . S
C5 C7 1.383 . S
C5 C8 1.382 . S
C5 H33 0.930 . S
C6 C4 1.369 . S
C6 C8 1.392 . S
C6 H34 0.930 . S
C7 C3 1.373 . S
C7 C5 1.383 . S
C7 H35 0.931 . S
C8 C5 1.382 . S
C8 C6 1.392 . S
C9 Eu0 2.828 . S
C9 C3 1.505 . S
C9 O21 1.249 . S
C9 O22 1.244 . S
O10 Eu1 2.373 . S
O10 C12 1.258 . S
O11 Eu0 2.392 1_455 S
O11 C12 1.242 . S
C12 O10 1.258 . S
C12 O11 1.242 . S
O13 Eu0 2.418 . S
O13 C17 1.244 . S
O14 Eu1 2.488 . S
O14 C30 1.249 . S
O15 Eu1 2.471 . S
O15 C30 1.244 . S
O16 Eu1 2.349 . S
O16 C17 1.265 1_455 S
C17 O13 1.244 . S
C17 O16 1.265 1_655 S
O18 Eu0 2.373 . S
O18 C31 1.258 . S
O19 Eu1 2.392 1_655 S
O19 C31 1.242 . S
O20 Eu1 2.418 . S
O20 C2 1.244 . S
O21 Eu0 2.488 . S
O21 C9 1.249 . S
O22 Eu0 2.471 . S
O22 C9 1.244 . S
O23 Eu0 2.349 . S
O23 C2 1.265 1_655 S
C24 C25 1.379 . S
C24 C28 1.373 . S
C24 C30 1.505 . S
C25 C24 1.379 . S
C25 C27 1.369 . S
C25 H36 0.930 . S
C26 C28 1.383 . S
C26 C29 1.382 . S
C26 H37 0.930 . S
C27 C25 1.369 . S
C27 C29 1.392 . S
C27 H38 0.930 . S
C28 C24 1.373 . S
C28 C26 1.383 . S
C28 H39 0.931 . S
C29 C26 1.382 . S
C29 C27 1.392 . S
C30 Eu1 2.828 . S
C30 O14 1.249 . S
C30 O15 1.244 . S
C30 C24 1.505 . S
C31 O18 1.258 . S
C31 O19 1.242 . S
H32 C4 0.930 . S
H33 C5 0.930 . S
H34 C6 0.930 . S
H35 C7 0.931 . S
H36 C25 0.930 . S
H37 C26 0.930 . S
H38 C27 0.930 . S
H39 C28 0.931 . S
Eu40 C49 2.828 . S
Eu40 O51 2.392 1_565 S
Eu40 O53 2.421 . S
Eu40 O58 2.373 . S
Eu40 O61 2.488 . S
Eu40 O62 2.471 . S
Eu40 O63 2.349 1_565 S
Eu41 O50 2.373 . S
Eu41 O54 2.488 . S
Eu41 O55 2.471 . S
Eu41 O56 2.349 . S
Eu41 O59 2.392 1_545 S
Eu41 O60 2.418 . S
Eu41 C70 2.828 . S
C42 O60 1.244 . S
C42 O63 1.265 . S
C43 C44 1.379 . S
C43 C47 1.373 . S
C43 C49 1.505 . S
C44 C43 1.379 . S
C44 C46 1.369 . S
C44 H72 0.930 . S
C45 C47 1.383 . S
C45 C48 1.382 . S
C45 H73 0.930 . S
C46 C44 1.369 . S
C46 C48 1.392 . S
C46 H74 0.930 . S
C47 C43 1.373 . S
C47 C45 1.383 . S
C47 H75 0.931 . S
C48 C45 1.382 . S
C48 C46 1.392 . S
C49 Eu40 2.828 . S
C49 C43 1.505 . S
C49 O61 1.249 . S
C49 O62 1.244 . S
O50 Eu41 2.373 . S
O50 C52 1.258 . S
O51 Eu40 2.392 1_545 S
O51 C52 1.242 . S
C52 O50 1.258 . S
C52 O51 1.242 . S
O53 Eu40 2.421 . S
O53 C57 1.226 1_565 S
O54 Eu41 2.488 . S
O54 C70 1.249 . S
O55 Eu41 2.471 . S
O55 C70 1.244 . S
O56 Eu41 2.349 . S
O56 C57 1.265 . S
C57 O53 1.226 1_545 S
C57 O56 1.265 . S
O58 Eu40 2.373 . S
O58 C71 1.258 . S
O59 Eu41 2.392 1_565 S
O59 C71 1.242 . S
O60 Eu41 2.418 . S
O60 C42 1.244 . S
O61 Eu40 2.488 . S
O61 C49 1.249 . S
O62 Eu40 2.471 . S
O62 C49 1.244 . S
O63 Eu40 2.349 1_545 S
O63 C42 1.265 . S
C64 C65 1.379 . S
C64 C68 1.373 . S
C64 C70 1.505 . S
C65 C64 1.379 . S
C65 C67 1.369 . S
C65 H76 0.930 . S
C66 C68 1.383 . S
C66 C69 1.382 . S
C66 H77 0.930 . S
C67 C65 1.369 . S
C67 C69 1.392 . S
C67 H78 0.930 . S
C68 C64 1.373 . S
C68 C66 1.383 . S
C68 H79 0.931 . S
C69 C66 1.382 . S
C69 C67 1.392 . S
C70 Eu41 2.828 . S
C70 O54 1.249 . S
C70 O55 1.244 . S
C70 C64 1.505 . S
C71 O58 1.258 . S
C71 O59 1.242 . S
H72 C44 0.930 . S
H73 C45 0.930 . S
H74 C46 0.930 . S
H75 C47 0.931 . S
H76 C65 0.930 . S
H77 C66 0.930 . S
H78 C67 0.930 . S
H79 C68 0.931 . S
Eu80 C89 2.828 . S
Eu80 O91 2.392 . S
Eu80 O93 2.418 . S
Eu80 O98 2.373 . S
Eu80 O101 2.488 . S
Eu80 O102 2.471 . S
Eu80 O103 2.349 . S
Eu81 O90 2.373 . S
Eu81 O94 2.488 . S
Eu81 O95 2.471 . S
Eu81 O96 2.349 . S
Eu81 O99 2.392 . S
Eu81 O100 2.418 . S
Eu81 C110 2.828 . S
C82 O100 1.244 . S
C82 O103 1.265 . S
C83 C84 1.379 . S
C83 C87 1.373 . S
C83 C89 1.505 . S
C84 C83 1.379 . S
C84 C86 1.369 . S
C84 H112 0.930 . S
C85 C87 1.383 . S
C85 C88 1.382 . S
C85 H113 0.930 . S
C86 C84 1.369 . S
C86 C88 1.392 . S
C86 H114 0.930 . S
C87 C83 1.373 . S
C87 C85 1.383 . S
C87 H115 0.931 . S
C88 C85 1.382 . S
C88 C86 1.392 . S
C89 Eu80 2.828 . S
C89 C83 1.505 . S
C89 O101 1.249 . S
C89 O102 1.244 . S
O90 Eu81 2.373 . S
O90 C92 1.258 . S
O91 Eu80 2.392 . S
O91 C92 1.242 . S
C92 O90 1.258 . S
C92 O91 1.242 . S
O93 Eu80 2.418 . S
O93 C97 1.244 . S
O94 Eu81 2.488 . S
O94 C110 1.249 . S
O95 Eu81 2.471 . S
O95 C110 1.244 . S
O96 Eu81 2.349 . S
O96 C97 1.265 . S
C97 O93 1.244 . S
C97 O96 1.265 . S
O98 Eu80 2.373 . S
O98 C111 1.258 . S
O99 Eu81 2.392 . S
O99 C111 1.242 . S
O100 Eu81 2.418 . S
O100 C82 1.244 . S
O101 Eu80 2.488 . S
O101 C89 1.249 . S
O102 Eu80 2.471 . S
O102 C89 1.244 . S
O103 Eu80 2.349 . S
O103 C82 1.265 . S
C104 C105 1.379 . S
C104 C108 1.373 . S
C104 C110 1.505 . S
C105 C104 1.379 . S
C105 C107 1.369 . S
C105 H116 0.930 . S
C106 C108 1.383 . S
C106 C109 1.382 . S
C106 H117 0.930 . S
C107 C105 1.369 . S
C107 C109 1.392 . S
C107 H118 0.930 . S
C108 C104 1.373 . S
C108 C106 1.383 . S
C108 H119 0.931 . S
C109 C106 1.382 . S
C109 C107 1.392 . S
C110 Eu81 2.828 . S
C110 O94 1.249 . S
C110 O95 1.244 . S
C110 C104 1.505 . S
C111 O98 1.258 . S
C111 O99 1.242 . S
H112 C84 0.930 . S
H113 C85 0.930 . S
H114 C86 0.930 . S
H115 C87 0.931 . S
H116 C105 0.930 . S
H117 C106 0.930 . S
H118 C107 0.930 . S
H119 C108 0.931 . S
C120 N121 1.317 . S
C120 N122 1.348 1_545 S
C120 C123 1.485 . S
N121 C120 1.317 . S
N121 N125 1.370 . S
N122 C120 1.348 1_565 S
N122 C124 1.346 . S
C123 C120 1.485 . S
C123 H127 0.960 . S
C123 H128 0.961 1_545 S
C123 H129 0.960 . S
C124 N122 1.346 . S
C124 N125 1.307 1_565 S
C124 C126 1.486 . S
N125 N121 1.370 . S
N125 C124 1.307 1_545 S
C126 C124 1.486 . S
C126 H130 0.960 . S
C126 H131 0.960 . S
C126 H132 0.959 . S
H127 C123 0.960 . S
H128 C123 0.961 1_565 S
H129 C123 0.960 . S
H130 C126 0.960 . S
H131 C126 0.960 . S
H132 C126 0.959 . S
C133 N134 1.317 . S
C133 N135 1.348 . S
C133 C136 1.485 . S
N134 C133 1.317 . S
N134 N138 1.370 . S
N135 C133 1.348 . S
N135 C137 1.346 . S
C136 C133 1.485 . S
C136 H140 0.960 . S
C136 H141 0.961 . S
C136 H142 0.960 . S
C137 N135 1.346 . S
C137 N138 1.307 . S
C137 C139 1.486 . S
N138 N134 1.370 . S
N138 C137 1.307 . S
C139 C137 1.486 . S
C139 H143 0.960 . S
C139 H144 0.960 . S
C139 H145 0.959 . S
H140 C136 0.960 . S
H141 C136 0.961 . S
H142 C136 0.960 . S
H143 C139 0.960 . S
H144 C139 0.960 . S
H145 C139 0.959 . S
C146 N147 1.317 . S
C146 N148 1.348 1_455 S
C146 C149 1.485 . S
N147 C146 1.317 . S
N147 N151 1.370 . S
N148 C146 1.348 1_655 S
N148 C150 1.346 . S
C149 C146 1.485 . S
C149 H153 0.960 . S
C149 H154 0.961 . S
C149 H155 0.960 . S
C150 N148 1.346 . S
C150 N151 1.307 1_655 S
C150 C152 1.486 . S
N151 N147 1.370 . S
N151 C150 1.307 1_455 S
C152 C150 1.486 . S
C152 H156 0.960 . S
C152 H157 0.960 . S
C152 H158 0.959 . S
H153 C149 0.960 . S
H154 C149 0.961 . S
H155 C149 0.960 . S
H156 C152 0.960 . S
H157 C152 0.960 . S
H158 C152 0.959 . S
C159 N160 1.317 . S
C159 N161 1.348 . S
C159 C162 1.485 . S
N160 C159 1.317 . S
N160 N164 1.370 . S
N161 C159 1.348 . S
N161 C163 1.346 . S
C162 C159 1.485 . S
C162 H166 0.960 . S
C162 H167 0.961 . S
C162 H168 0.960 . S
C163 N161 1.346 . S
C163 N164 1.307 . S
C163 C165 1.486 . S
N164 N160 1.370 . S
N164 C163 1.307 . S
C165 C163 1.486 . S
C165 H169 0.960 . S
C165 H170 0.960 . S
C165 H171 0.959 . S
H166 C162 0.960 . S
H167 C162 0.961 . S
H168 C162 0.960 . S
H169 C165 0.960 . S
H170 C165 0.960 . S
H171 C165 0.959 . S
C172 N173 1.317 . S
C172 N174 1.348 . S
C172 C175 1.485 . S
N173 C172 1.317 . S
N173 N177 1.370 . S
N174 C172 1.348 . S
N174 C176 1.346 . S
C175 C172 1.485 . S
C175 H179 0.960 . S
C175 H180 0.961 . S
C175 H181 0.960 . S
C176 N174 1.346 . S
C176 N177 1.307 . S
C176 C178 1.486 . S
N177 N173 1.370 . S
N177 C176 1.307 . S
C178 C176 1.486 . S
C178 H182 0.960 . S
C178 H183 0.960 . S
C178 H184 0.959 . S
H179 C175 0.960 . S
H180 C175 0.961 . S
H181 C175 0.960 . S
H182 C178 0.960 . S
H183 C178 0.960 . S
H184 C178 0.959 . S
C185 N186 1.317 . S
C185 N187 1.348 . S
C185 C188 1.485 . S
N186 C185 1.317 . S
N186 N190 1.370 . S
N187 C185 1.348 . S
N187 C189 1.346 . S
C188 C185 1.485 . S
C188 H192 0.960 . S
C188 H193 0.961 . S
C188 H194 0.960 . S
C189 N187 1.346 . S
C189 N190 1.307 . S
C189 C191 1.486 . S
N190 N186 1.370 . S
N190 C189 1.307 . S
C191 C189 1.486 . S
C191 H195 0.960 . S
C191 H196 0.960 . S
C191 H197 0.959 . S
H192 C188 0.960 . S
H193 C188 0.961 . S
H194 C188 0.960 . S
H195 C191 0.960 . S
H196 C191 0.960 . S
H197 C191 0.959 . S
C198 C199 1.391 . S
C198 C200 1.394 . S
C198 H214 0.931 . S
C199 C198 1.391 . S
C199 C203 1.376 . S
C200 C198 1.394 . S
C200 C201 1.369 . S
C200 C204 1.531 . S
C201 C200 1.369 . S
C201 C202 1.410 . S
C201 C209 1.503 . S
C202 C201 1.410 . S
C202 C203 1.392 . S
C202 C205 1.511 . S
C203 C199 1.376 . S
C203 C202 1.392 . S
C203 H215 0.929 . S
C204 C200 1.531 . S
C204 H216 0.960 . S
C204 H217 0.962 . S
C204 H218 0.960 . S
C205 C202 1.511 . S
C205 H219 0.961 . S
C205 H220 0.961 . S
C205 H221 0.961 . S
C206 C207 1.370 . S
C206 C208 1.363 . S
C206 H222 0.931 . S
C207 C206 1.370 . S
C207 C211 1.408 . S
C208 C206 1.363 . S
C208 C209 1.370 . S
C208 C212 1.524 . S
C209 C201 1.503 . S
C209 C208 1.370 . S
C209 C210 1.403 . S
C210 C209 1.403 . S
C210 C211 1.404 . S
C210 C213 1.539 . S
C211 C207 1.408 . S
C211 C210 1.404 . S
C211 H223 0.930 . S
C212 C208 1.524 . S
C212 H224 0.956 . S
C212 H225 0.961 . S
C212 H226 0.961 . S
C213 C210 1.539 . S
C213 H227 0.958 . S
C213 H228 0.961 . S
C213 H229 0.960 . S
H214 C198 0.931 . S
H215 C203 0.929 . S
H216 C204 0.960 . S
H217 C204 0.962 . S
H218 C204 0.960 . S
H219 C205 0.961 . S
H220 C205 0.961 . S
H221 C205 0.961 . S
H222 C206 0.931 . S
H223 C211 0.930 . S
H224 C212 0.956 . S
H225 C212 0.961 . S
H226 C212 0.961 . S
H227 C213 0.958 . S
H228 C213 0.961 . S
H229 C213 0.960 . S
C230 C231 1.391 . S
C230 C232 1.394 . S
C230 H246 0.931 . S
C231 C230 1.391 . S
C231 C235 1.376 . S
C232 C230 1.394 . S
C232 C233 1.369 . S
C232 C236 1.531 . S
C233 C232 1.369 . S
C233 C234 1.410 . S
C233 C241 1.503 . S
C234 C233 1.410 . S
C234 C235 1.392 . S
C234 C237 1.511 . S
C235 C231 1.376 . S
C235 C234 1.392 . S
C235 H247 0.929 . S
C236 C232 1.531 . S
C236 H248 0.960 . S
C236 H249 0.962 . S
C236 H250 0.960 . S
C237 C234 1.511 . S
C237 H251 0.961 . S
C237 H252 0.961 . S
C237 H253 0.961 . S
C238 C239 1.370 . S
C238 C240 1.363 . S
C238 H254 0.931 . S
C239 C238 1.370 . S
C239 C243 1.408 . S
C240 C238 1.363 . S
C240 C241 1.370 . S
C240 C244 1.524 . S
C241 C233 1.503 . S
C241 C240 1.370 . S
C241 C242 1.403 . S
C242 C241 1.403 . S
C242 C243 1.404 . S
C242 C245 1.539 . S
C243 C239 1.408 . S
C243 C242 1.404 . S
C243 H255 0.930 . S
C244 C240 1.524 . S
C244 H256 0.956 . S
C244 H257 0.961 . S
C244 H258 0.961 . S
C245 C242 1.539 . S
C245 H259 0.958 . S
C245 H260 0.961 . S
C245 H261 0.960 . S
H246 C230 0.931 . S
H247 C235 0.929 . S
H248 C236 0.960 . S
H249 C236 0.962 . S
H250 C236 0.960 . S
H251 C237 0.961 . S
H252 C237 0.961 . S
H253 C237 0.961 . S
H254 C238 0.931 . S
H255 C243 0.930 . S
H256 C244 0.956 . S
H257 C244 0.961 . S
H258 C244 0.961 . S
H259 C245 0.958 . S
H260 C245 0.961 . S
H261 C245 0.960 . S
C262 C263 1.391 . S
C262 C264 1.394 . S
C262 H278 0.931 . S
C263 C262 1.391 . S
C263 C267 1.376 . S
C264 C262 1.394 . S
C264 C265 1.369 . S
C264 C268 1.531 . S
C265 C264 1.369 . S
C265 C266 1.410 . S
C265 C273 1.503 . S
C266 C265 1.410 . S
C266 C267 1.392 . S
C266 C269 1.511 . S
C267 C263 1.376 . S
C267 C266 1.392 . S
C267 H279 0.929 . S
C268 C264 1.531 . S
C268 H280 0.960 . S
C268 H281 0.962 . S
C268 H282 0.960 . S
C269 C266 1.511 . S
C269 H283 0.961 . S
C269 H284 0.961 . S
C269 H285 0.961 . S
C270 C271 1.370 . S
C270 C272 1.363 . S
C270 H286 0.931 . S
C271 C270 1.370 . S
C271 C275 1.408 . S
C272 C270 1.363 . S
C272 C273 1.370 . S
C272 C276 1.524 . S
C273 C265 1.503 . S
C273 C272 1.370 . S
C273 C274 1.403 . S
C274 C273 1.403 . S
C274 C275 1.404 . S
C274 C277 1.539 . S
C275 C271 1.408 . S
C275 C274 1.404 . S
C275 H287 0.930 . S
C276 C272 1.524 . S
C276 H288 0.956 . S
C276 H289 0.961 . S
C276 H290 0.961 . S
C277 C274 1.539 . S
C277 H291 0.958 . S
C277 H292 0.961 . S
C277 H293 0.960 . S
H278 C262 0.931 . S
H279 C267 0.929 . S
H280 C268 0.960 . S
H281 C268 0.962 . S
H282 C268 0.960 . S
H283 C269 0.961 . S
H284 C269 0.961 . S
H285 C269 0.961 . S
H286 C270 0.931 . S
H287 C275 0.930 . S
H288 C276 0.956 . S
H289 C276 0.961 . S
H290 C276 0.961 . S
H291 C277 0.958 . S
H292 C277 0.961 . S
H293 C277 0.960 . S
C294 C295 1.391 . S
C294 C296 1.394 . S
C294 H310 0.931 . S
C295 C294 1.391 . S
C295 C299 1.376 . S
C296 C294 1.394 . S
C296 C297 1.369 . S
C296 C300 1.531 . S
C297 C296 1.369 . S
C297 C298 1.410 . S
C297 C305 1.503 . S
C298 C297 1.410 . S
C298 C299 1.392 . S
C298 C301 1.511 . S
C299 C295 1.376 . S
C299 C298 1.392 . S
C299 H311 0.929 . S
C300 C296 1.531 . S
C300 H312 0.960 . S
C300 H313 0.962 . S
C300 H314 0.960 . S
C301 C298 1.511 . S
C301 H315 0.961 . S
C301 H316 0.961 . S
C301 H317 0.961 . S
C302 C303 1.370 . S
C302 C304 1.363 . S
C302 H318 0.931 . S
C303 C302 1.370 . S
C303 C307 1.408 . S
C304 C302 1.363 . S
C304 C305 1.370 . S
C304 C308 1.524 . S
C305 C297 1.503 . S
C305 C304 1.370 . S
C305 C306 1.403 . S
C306 C305 1.403 . S
C306 C307 1.404 . S
C306 C309 1.539 . S
C307 C303 1.408 . S
C307 C306 1.404 . S
C307 H319 0.930 . S
C308 C304 1.524 . S
C308 H320 0.956 . S
C308 H321 0.961 . S
C308 H322 0.961 . S
C309 C306 1.539 . S
C309 H323 0.958 . S
C309 H324 0.961 . S
C309 H325 0.960 . S
H310 C294 0.931 . S
H311 C299 0.929 . S
H312 C300 0.960 . S
H313 C300 0.962 . S
H314 C300 0.960 . S
H315 C301 0.961 . S
H316 C301 0.961 . S
H317 C301 0.961 . S
H318 C302 0.931 . S
H319 C307 0.930 . S
H320 C308 0.956 . S
H321 C308 0.961 . S
H322 C308 0.961 . S
H323 C309 0.958 . S
H324 C309 0.961 . S
H325 C309 0.960 . S
C326 C327 1.391 . S
C326 C328 1.394 . S
C326 H342 0.931 . S
C327 C326 1.391 . S
C327 C331 1.376 . S
C328 C326 1.394 . S
C328 C329 1.369 . S
C328 C332 1.531 . S
C329 C328 1.369 . S
C329 C330 1.410 . S
C329 C337 1.503 . S
C330 C329 1.410 . S
C330 C331 1.392 . S
C330 C333 1.511 . S
C331 C327 1.376 . S
C331 C330 1.392 . S
C331 H343 0.929 . S
C332 C328 1.531 . S
C332 H344 0.960 . S
C332 H345 0.962 . S
C332 H346 0.960 . S
C333 C330 1.511 . S
C333 H347 0.961 . S
C333 H348 0.961 . S
C333 H349 0.961 . S
C334 C335 1.370 . S
C334 C336 1.363 . S
C334 H350 0.931 . S
C335 C334 1.370 . S
C335 C339 1.408 . S
C336 C334 1.363 . S
C336 C337 1.370 . S
C336 C340 1.524 . S
C337 C329 1.503 . S
C337 C336 1.370 . S
C337 C338 1.403 . S
C338 C337 1.403 . S
C338 C339 1.404 . S
C338 C341 1.539 . S
C339 C335 1.408 . S
C339 C338 1.404 . S
C339 H351 0.930 . S
C340 C336 1.524 . S
C340 H352 0.956 . S
C340 H353 0.961 . S
C340 H354 0.961 . S
C341 C338 1.539 . S
C341 H355 0.958 . S
C341 H356 0.961 . S
C341 H357 0.960 . S
H342 C326 0.931 . S
H343 C331 0.929 . S
H344 C332 0.960 . S
H345 C332 0.962 . S
H346 C332 0.960 . S
H347 C333 0.961 . S
H348 C333 0.961 . S
H349 C333 0.961 . S
H350 C334 0.931 . S
H351 C339 0.930 . S
H352 C340 0.956 . S
H353 C340 0.961 . S
H354 C340 0.961 . S
H355 C341 0.958 . S
H356 C341 0.961 . S
H357 C341 0.960 . S
C358 C359 1.391 . S
C358 C360 1.394 . S
C358 H374 0.931 . S
C359 C358 1.391 . S
C359 C363 1.376 . S
C360 C358 1.394 . S
C360 C361 1.369 . S
C360 C364 1.531 . S
C361 C360 1.369 . S
C361 C362 1.410 . S
C361 C369 1.503 . S
C362 C361 1.410 . S
C362 C363 1.392 . S
C362 C365 1.511 . S
C363 C359 1.376 . S
C363 C362 1.392 . S
C363 H375 0.929 . S
C364 C360 1.531 . S
C364 H376 0.960 . S
C364 H377 0.962 . S
C364 H378 0.960 . S
C365 C362 1.511 . S
C365 H379 0.961 . S
C365 H380 0.961 . S
C365 H381 0.961 . S
C366 C367 1.370 . S
C366 C368 1.363 . S
C366 H382 0.931 . S
C367 C366 1.370 . S
C367 C371 1.408 . S
C368 C366 1.363 . S
C368 C369 1.370 . S
C368 C372 1.524 . S
C369 C361 1.503 . S
C369 C368 1.370 . S
C369 C370 1.403 . S
C370 C369 1.403 . S
C370 C371 1.404 . S
C370 C373 1.539 . S
C371 C367 1.408 . S
C371 C370 1.404 . S
C371 H383 0.930 . S
C372 C368 1.524 . S
C372 H384 0.956 . S
C372 H385 0.961 . S
C372 H386 0.961 . S
C373 C370 1.539 . S
C373 H387 0.958 . S
C373 H388 0.961 . S
C373 H389 0.960 . S
H374 C358 0.931 . S
H375 C363 0.929 . S
H376 C364 0.960 . S
H377 C364 0.962 . S
H378 C364 0.960 . S
H379 C365 0.961 . S
H380 C365 0.961 . S
H381 C365 0.961 . S
H382 C366 0.931 . S
H383 C371 0.930 . S
H384 C372 0.956 . S
H385 C372 0.961 . S
H386 C372 0.961 . S
H387 C373 0.958 . S
H388 C373 0.961 . S
H389 C373 0.960 . S
C390 C391 1.391 . S
C390 C392 1.394 . S
C390 H406 0.931 . S
C391 C390 1.391 . S
C391 C395 1.376 . S
C392 C390 1.394 . S
C392 C393 1.369 . S
C392 C396 1.531 . S
C393 C392 1.369 . S
C393 C394 1.410 . S
C393 C401 1.503 . S
C394 C393 1.410 . S
C394 C395 1.392 . S
C394 C397 1.511 . S
C395 C391 1.376 . S
C395 C394 1.392 . S
C395 H407 0.929 . S
C396 C392 1.531 . S
C396 H408 0.960 . S
C396 H409 0.962 . S
C396 H410 0.960 . S
C397 C394 1.511 . S
C397 H411 0.961 . S
C397 H412 0.961 . S
C397 H413 0.961 . S
C398 C399 1.370 . S
C398 C400 1.363 . S
C398 H414 0.931 . S
C399 C398 1.370 . S
C399 C403 1.408 . S
C400 C398 1.363 . S
C400 C401 1.370 . S
C400 C404 1.524 . S
C401 C393 1.503 . S
C401 C400 1.370 . S
C401 C402 1.403 . S
C402 C401 1.403 . S
C402 C403 1.404 . S
C402 C405 1.539 . S
C403 C399 1.408 . S
C403 C402 1.404 . S
C403 H415 0.930 . S
C404 C400 1.524 . S
C404 H416 0.956 . S
C404 H417 0.961 . S
C404 H418 0.961 . S
C405 C402 1.539 . S
C405 H419 0.958 . S
C405 H420 0.961 . S
C405 H421 0.960 . S
H406 C390 0.931 . S
H407 C395 0.929 . S
H408 C396 0.960 . S
H409 C396 0.962 . S
H410 C396 0.960 . S
H411 C397 0.961 . S
H412 C397 0.961 . S
H413 C397 0.961 . S
H414 C398 0.931 . S
H415 C403 0.930 . S
H416 C404 0.956 . S
H417 C404 0.961 . S
H418 C404 0.961 . S
H419 C405 0.958 . S
H420 C405 0.961 . S
H421 C405 0.960 . S
C422 C423 1.391 . S
C422 C424 1.394 . S
C422 H438 0.931 . S
C423 C422 1.391 . S
C423 C427 1.376 . S
C424 C422 1.394 . S
C424 C425 1.369 . S
C424 C428 1.531 . S
C425 C424 1.369 . S
C425 C426 1.410 . S
C425 C433 1.503 . S
C426 C425 1.410 . S
C426 C427 1.392 . S
C426 C429 1.511 . S
C427 C423 1.376 . S
C427 C426 1.392 . S
C427 H439 0.929 . S
C428 C424 1.531 . S
C428 H440 0.960 . S
C428 H441 0.962 . S
C428 H442 0.960 . S
C429 C426 1.511 . S
C429 H443 0.961 . S
C429 H444 0.961 . S
C429 H445 0.961 . S
C430 C431 1.370 . S
C430 C432 1.363 . S
C430 H446 0.931 . S
C431 C430 1.370 . S
C431 C435 1.408 . S
C432 C430 1.363 . S
C432 C433 1.370 . S
C432 C436 1.524 . S
C433 C425 1.503 . S
C433 C432 1.370 . S
C433 C434 1.403 . S
C434 C433 1.403 . S
C434 C435 1.404 . S
C434 C437 1.539 . S
C435 C431 1.408 . S
C435 C434 1.404 . S
C435 H447 0.930 . S
C436 C432 1.524 . S
C436 H448 0.956 . S
C436 H449 0.961 . S
C436 H450 0.961 . S
C437 C434 1.539 . S
C437 H451 0.958 . S
C437 H452 0.961 . S
C437 H453 0.960 . S
H438 C422 0.931 . S
H439 C427 0.929 . S
H440 C428 0.960 . S
H441 C428 0.962 . S
H442 C428 0.960 . S
H443 C429 0.961 . S
H444 C429 0.961 . S
H445 C429 0.961 . S
H446 C430 0.931 . S
H447 C435 0.930 . S
H448 C436 0.956 . S
H449 C436 0.961 . S
H450 C436 0.961 . S
H451 C437 0.958 . S
H452 C437 0.961 . S
H453 C437 0.960 . S
C454 C455 1.391 . S
C454 C456 1.394 . S
C454 H470 0.931 . S
C455 C454 1.391 . S
C455 C459 1.376 . S
C456 C454 1.394 . S
C456 C457 1.369 . S
C456 C460 1.531 . S
C457 C456 1.369 . S
C457 C458 1.410 . S
C457 C465 1.503 . S
C458 C457 1.410 . S
C458 C459 1.392 . S
C458 C461 1.511 . S
C459 C455 1.376 . S
C459 C458 1.392 . S
C459 H471 0.929 . S
C460 C456 1.531 . S
C460 H472 0.960 . S
C460 H473 0.962 . S
C460 H474 0.960 . S
C461 C458 1.511 . S
C461 H475 0.961 . S
C461 H476 0.961 . S
C461 H477 0.961 . S
C462 C463 1.370 . S
C462 C464 1.363 . S
C462 H478 0.931 . S
C463 C462 1.370 . S
C463 C467 1.408 . S
C464 C462 1.363 . S
C464 C465 1.370 . S
C464 C468 1.524 . S
C465 C457 1.503 . S
C465 C464 1.370 . S
C465 C466 1.403 . S
C466 C465 1.403 . S
C466 C467 1.404 . S
C466 C469 1.539 . S
C467 C463 1.408 . S
C467 C466 1.404 . S
C467 H479 0.930 . S
C468 C464 1.524 . S
C468 H480 0.956 . S
C468 H481 0.961 . S
C468 H482 0.961 . S
C469 C466 1.539 . S
C469 H483 0.958 . S
C469 H484 0.961 . S
C469 H485 0.960 . S
H470 C454 0.931 . S
H471 C459 0.929 . S
H472 C460 0.960 . S
H473 C460 0.962 . S
H474 C460 0.960 . S
H475 C461 0.961 . S
H476 C461 0.961 . S
H477 C461 0.961 . S
H478 C462 0.931 . S
H479 C467 0.930 . S
H480 C468 0.956 . S
H481 C468 0.961 . S
H482 C468 0.961 . S
H483 C469 0.958 . S
H484 C469 0.961 . S
H485 C469 0.960 . S
C486 C487 1.391 . S
C486 C488 1.394 . S
C486 H502 0.931 . S
C487 C486 1.391 . S
C487 C491 1.376 . S
C488 C486 1.394 . S
C488 C489 1.369 . S
C488 C492 1.531 . S
C489 C488 1.369 . S
C489 C490 1.410 . S
C489 C497 1.503 . S
C490 C489 1.410 . S
C490 C491 1.392 . S
C490 C493 1.511 . S
C491 C487 1.376 . S
C491 C490 1.392 . S
C491 H503 0.929 . S
C492 C488 1.531 . S
C492 H504 0.960 . S
C492 H505 0.962 . S
C492 H506 0.960 . S
C493 C490 1.511 . S
C493 H507 0.961 . S
C493 H508 0.961 . S
C493 H509 0.961 . S
C494 C495 1.370 . S
C494 C496 1.363 . S
C494 H510 0.931 . S
C495 C494 1.370 . S
C495 C499 1.408 . S
C496 C494 1.363 . S
C496 C497 1.370 . S
C496 C500 1.524 . S
C497 C489 1.503 . S
C497 C496 1.370 . S
C497 C498 1.403 . S
C498 C497 1.403 . S
C498 C499 1.404 . S
C498 C501 1.539 . S
C499 C495 1.408 . S
C499 C498 1.404 . S
C499 H511 0.930 . S
C500 C496 1.524 . S
C500 H512 0.956 . S
C500 H513 0.961 . S
C500 H514 0.961 . S
C501 C498 1.539 . S
C501 H515 0.958 . S
C501 H516 0.961 . S
C501 H517 0.960 . S
H502 C486 0.931 . S
H503 C491 0.929 . S
H504 C492 0.960 . S
H505 C492 0.962 . S
H506 C492 0.960 . S
H507 C493 0.961 . S
H508 C493 0.961 . S
H509 C493 0.961 . S
H510 C494 0.931 . S
H511 C499 0.930 . S
H512 C500 0.956 . S
H513 C500 0.961 . S
H514 C500 0.961 . S
H515 C501 0.958 . S
H516 C501 0.961 . S
H517 C501 0.960 . S
C518 C519 1.391 . S
C518 C520 1.394 . S
C518 H534 0.931 . S
C519 C518 1.391 . S
C519 C523 1.376 . S
C520 C518 1.394 . S
C520 C521 1.369 . S
C520 C524 1.531 . S
C521 C520 1.369 . S
C521 C522 1.410 . S
C521 C529 1.503 . S
C522 C521 1.410 . S
C522 C523 1.392 . S
C522 C525 1.511 . S
C523 C519 1.376 . S
C523 C522 1.392 . S
C523 H535 0.929 . S
C524 C520 1.531 . S
C524 H536 0.960 . S
C524 H537 0.962 . S
C524 H538 0.960 . S
C525 C522 1.511 . S
C525 H539 0.961 . S
C525 H540 0.961 . S
C525 H541 0.961 . S
C526 C527 1.370 . S
C526 C528 1.363 . S
C526 H542 0.931 . S
C527 C526 1.370 . S
C527 C531 1.408 . S
C528 C526 1.363 . S
C528 C529 1.370 . S
C528 C532 1.524 . S
C529 C521 1.503 . S
C529 C528 1.370 . S
C529 C530 1.403 . S
C530 C529 1.403 . S
C530 C531 1.404 . S
C530 C533 1.539 . S
C531 C527 1.408 . S
C531 C530 1.404 . S
C531 H543 0.930 . S
C532 C528 1.524 . S
C532 H544 0.956 . S
C532 H545 0.961 . S
C532 H546 0.961 . S
C533 C530 1.539 . S
C533 H547 0.958 . S
C533 H548 0.961 . S
C533 H549 0.960 . S
H534 C518 0.931 . S
H535 C523 0.929 . S
H536 C524 0.960 . S
H537 C524 0.962 . S
H538 C524 0.960 . S
H539 C525 0.961 . S
H540 C525 0.961 . S
H541 C525 0.961 . S
H542 C526 0.931 . S
H543 C531 0.930 . S
H544 C532 0.956 . S
H545 C532 0.961 . S
H546 C532 0.961 . S
H547 C533 0.958 . S
H548 C533 0.961 . S
H549 C533 0.960 . S
C550 C551 1.391 . S
C550 C552 1.394 . S
C550 H566 0.931 . S
C551 C550 1.391 . S
C551 C555 1.376 . S
C552 C550 1.394 . S
C552 C553 1.369 . S
C552 C556 1.531 . S
C553 C552 1.369 . S
C553 C554 1.410 . S
C553 C561 1.503 . S
C554 C553 1.410 . S
C554 C555 1.392 . S
C554 C557 1.511 . S
C555 C551 1.376 . S
C555 C554 1.392 . S
C555 H567 0.929 . S
C556 C552 1.531 . S
C556 H568 0.960 . S
C556 H569 0.962 . S
C556 H570 0.960 . S
C557 C554 1.511 . S
C557 H571 0.961 . S
C557 H572 0.961 . S
C557 H573 0.961 . S
C558 C559 1.370 . S
C558 C560 1.363 . S
C558 H574 0.931 . S
C559 C558 1.370 . S
C559 C563 1.408 . S
C560 C558 1.363 . S
C560 C561 1.370 . S
C560 C564 1.524 . S
C561 C553 1.503 . S
C561 C560 1.370 . S
C561 C562 1.403 . S
C562 C561 1.403 . S
C562 C563 1.404 . S
C562 C565 1.539 . S
C563 C559 1.408 . S
C563 C562 1.404 . S
C563 H575 0.930 . S
C564 C560 1.524 . S
C564 H576 0.956 . S
C564 H577 0.961 . S
C564 H578 0.961 . S
C565 C562 1.539 . S
C565 H579 0.958 . S
C565 H580 0.961 . S
C565 H581 0.960 . S
H566 C550 0.931 . S
H567 C555 0.929 . S
H568 C556 0.960 . S
H569 C556 0.962 . S
H570 C556 0.960 . S
H571 C557 0.961 . S
H572 C557 0.961 . S
H573 C557 0.961 . S
H574 C558 0.931 . S
H575 C563 0.930 . S
H576 C564 0.956 . S
H577 C564 0.961 . S
H578 C564 0.961 . S
H579 C565 0.958 . S
H580 C565 0.961 . S
H581 C565 0.960 . S
C582 C583 1.391 . S
C582 C584 1.394 . S
C582 H598 0.931 . S
C583 C582 1.391 . S
C583 C587 1.376 1_455 S
C584 C582 1.394 . S
C584 C585 1.369 . S
C584 C588 1.531 . S
C585 C584 1.369 . S
C585 C586 1.410 1_455 S
C585 C593 1.503 1_554 S
C586 C585 1.410 1_655 S
C586 C587 1.392 . S
C586 C589 1.511 . S
C587 C583 1.376 1_655 S
C587 C586 1.392 . S
C587 H599 0.929 . S
C588 C584 1.531 . S
C588 H600 0.960 . S
C588 H601 0.962 . S
C588 H602 0.960 . S
C589 C586 1.511 . S
C589 H603 0.961 . S
C589 H604 0.961 . S
C589 H605 0.961 . S
C590 C591 1.370 . S
C590 C592 1.363 . S
C590 H606 0.931 . S
C591 C590 1.370 . S
C591 C595 1.408 . S
C592 C590 1.363 . S
C592 C593 1.370 . S
C592 C596 1.524 1_556 S
C593 C585 1.503 1_556 S
C593 C592 1.370 . S
C593 C594 1.403 . S
C594 C593 1.403 . S
C594 C595 1.404 . S
C594 C597 1.539 . S
C595 C591 1.408 . S
C595 C594 1.404 . S
C595 H607 0.930 . S
C596 C592 1.524 1_554 S
C596 H608 0.956 . S
C596 H609 0.961 1_455 S
C596 H610 0.961 1_554 S
C597 C594 1.539 . S
C597 H611 0.958 . S
C597 H612 0.961 . S
C597 H613 0.960 1_556 S
H598 C582 0.931 . S
H599 C587 0.929 . S
H600 C588 0.960 . S
H601 C588 0.962 . S
H602 C588 0.960 . S
H603 C589 0.961 . S
H604 C589 0.961 . S
H605 C589 0.961 . S
H606 C590 0.931 . S
H607 C595 0.930 . S
H608 C596 0.956 . S
H609 C596 0.961 1_655 S
H610 C596 0.961 1_556 S
H611 C597 0.958 . S
H612 C597 0.961 . S
H613 C597 0.960 1_554 S
C614 C615 1.391 1_565 S
C614 C616 1.394 . S
C614 H630 0.931 . S
C615 C614 1.391 1_545 S
C615 C619 1.376 . S
C616 C614 1.394 . S
C616 C617 1.369 1_565 S
C616 C620 1.531 . S
C617 C616 1.369 1_545 S
C617 C618 1.410 . S
C617 C625 1.503 . S
C618 C617 1.410 . S
C618 C619 1.392 . S
C618 C621 1.511 . S
C619 C615 1.376 . S
C619 C618 1.392 . S
C619 H631 0.929 . S
C620 C616 1.531 . S
C620 H632 0.960 . S
C620 H633 0.962 . S
C620 H634 0.960 . S
C621 C618 1.511 . S
C621 H635 0.961 . S
C621 H636 0.961 . S
C621 H637 0.961 . S
C622 C623 1.370 . S
C622 C624 1.363 . S
C622 H638 0.931 . S
C623 C622 1.370 . S
C623 C627 1.408 . S
C624 C622 1.363 . S
C624 C625 1.370 . S
C624 C628 1.524 . S
C625 C617 1.503 . S
C625 C624 1.370 . S
C625 C626 1.403 . S
C626 C625 1.403 . S
C626 C627 1.404 . S
C626 C629 1.539 1_545 S
C627 C623 1.408 . S
C627 C626 1.404 . S
C627 H639 0.930 1_545 S
C628 C624 1.524 . S
C628 H640 0.956 . S
C628 H641 0.961 . S
C628 H642 0.961 . S
C629 C626 1.539 1_565 S
C629 H643 0.958 . S
C629 H644 0.961 . S
C629 H645 0.960 . S
H630 C614 0.931 . S
H631 C619 0.929 . S
H632 C620 0.960 . S
H633 C620 0.962 . S
H634 C620 0.960 . S
H635 C621 0.961 . S
H636 C621 0.961 . S
H637 C621 0.961 . S
H638 C622 0.931 . S
H639 C627 0.930 1_565 S
H640 C628 0.956 . S
H641 C628 0.961 . S
H642 C628 0.961 . S
H643 C629 0.958 . S
H644 C629 0.961 . S
H645 C629 0.960 . S
C646 C647 1.391 . S
C646 C648 1.394 . S
C646 H662 0.931 . S
C647 C646 1.391 . S
C647 C651 1.376 . S
C648 C646 1.394 . S
C648 C649 1.369 . S
C648 C652 1.531 . S
C649 C648 1.369 . S
C649 C650 1.410 . S
C649 C657 1.503 . S
C650 C649 1.410 . S
C650 C651 1.392 . S
C650 C653 1.511 . S
C651 C647 1.376 . S
C651 C650 1.392 . S
C651 H663 0.929 . S
C652 C648 1.531 . S
C652 H664 0.960 . S
C652 H665 0.962 . S
C652 H666 0.960 . S
C653 C650 1.511 . S
C653 H667 0.961 . S
C653 H668 0.961 . S
C653 H669 0.961 . S
C654 C655 1.370 . S
C654 C656 1.363 . S
C654 H670 0.931 . S
C655 C654 1.370 . S
C655 C659 1.408 . S
C656 C654 1.363 . S
C656 C657 1.370 . S
C656 C660 1.524 . S
C657 C649 1.503 . S
C657 C656 1.370 . S
C657 C658 1.403 . S
C658 C657 1.403 . S
C658 C659 1.404 . S
C658 C661 1.539 . S
C659 C655 1.408 . S
C659 C658 1.404 . S
C659 H671 0.930 . S
C660 C656 1.524 . S
C660 H672 0.956 . S
C660 H673 0.961 . S
C660 H674 0.961 . S
C661 C658 1.539 . S
C661 H675 0.958 . S
C661 H676 0.961 . S
C661 H677 0.960 . S
H662 C646 0.931 . S
H663 C651 0.929 . S
H664 C652 0.960 . S
H665 C652 0.962 . S
H666 C652 0.960 . S
H667 C653 0.961 . S
H668 C653 0.961 . S
H669 C653 0.961 . S
H670 C654 0.931 . S
H671 C659 0.930 . S
H672 C660 0.956 . S
H673 C660 0.961 . S
H674 C660 0.961 . S
H675 C661 0.958 . S
H676 C661 0.961 . S
H677 C661 0.960 . S
C678 C679 1.391 . S
C678 C680 1.394 . S
C678 H694 0.931 . S
C679 C678 1.391 . S
C679 C683 1.376 . S
C680 C678 1.394 . S
C680 C681 1.369 . S
C680 C684 1.531 . S
C681 C680 1.369 . S
C681 C682 1.410 . S
C681 C689 1.503 . S
C682 C681 1.410 . S
C682 C683 1.392 . S
C682 C685 1.511 . S
C683 C679 1.376 . S
C683 C682 1.392 . S
C683 H695 0.929 . S
C684 C680 1.531 . S
C684 H696 0.960 . S
C684 H697 0.962 . S
C684 H698 0.960 . S
C685 C682 1.511 . S
C685 H699 0.961 1_545 S
C685 H700 0.961 . S
C685 H701 0.961 . S
C686 C687 1.370 . S
C686 C688 1.363 . S
C686 H702 0.931 1_545 S
C687 C686 1.370 . S
C687 C691 1.408 . S
C688 C686 1.363 . S
C688 C689 1.370 . S
C688 C692 1.524 1_545 S
C689 C681 1.503 . S
C689 C688 1.370 . S
C689 C690 1.403 . S
C690 C689 1.403 . S
C690 C691 1.404 . S
C690 C693 1.539 . S
C691 C687 1.408 . S
C691 C690 1.404 . S
C691 H703 0.930 . S
C692 C688 1.524 1_565 S
C692 H704 0.956 . S
C692 H705 0.961 . S
C692 H706 0.961 . S
C693 C690 1.539 . S
C693 H707 0.958 . S
C693 H708 0.961 . S
C693 H709 0.960 . S
H694 C678 0.931 . S
H695 C683 0.929 . S
H696 C684 0.960 . S
H697 C684 0.962 . S
H698 C684 0.960 . S
H699 C685 0.961 1_565 S
H700 C685 0.961 . S
H701 C685 0.961 . S
H702 C686 0.931 1_565 S
H703 C691 0.930 . S
H704 C692 0.956 . S
H705 C692 0.961 . S
H706 C692 0.961 . S
H707 C693 0.958 . S
H708 C693 0.961 . S
H709 C693 0.960 . S
C710 C711 1.391 . S
C710 C712 1.394 . S
C710 H726 0.931 . S
C711 C710 1.391 . S
C711 C715 1.376 . S
C712 C710 1.394 . S
C712 C713 1.369 . S
C712 C716 1.531 . S
C713 C712 1.369 . S
C713 C714 1.410 . S
C713 C721 1.503 1_556 S
C714 C713 1.410 . S
C714 C715 1.392 . S
C714 C717 1.511 . S
C715 C711 1.376 . S
C715 C714 1.392 . S
C715 H727 0.929 . S
C716 C712 1.531 . S
C716 H728 0.960 1_556 S
C716 H729 0.962 . S
C716 H730 0.960 . S
C717 C714 1.511 . S
C717 H731 0.961 . S
C717 H732 0.961 . S
C717 H733 0.961 . S
C718 C719 1.370 . S
C718 C720 1.363 . S
C718 H734 0.931 . S
C719 C718 1.370 . S
C719 C723 1.408 . S
C720 C718 1.363 . S
C720 C721 1.370 . S
C720 C724 1.524 . S
C721 C713 1.503 1_554 S
C721 C720 1.370 . S
C721 C722 1.403 . S
C722 C721 1.403 . S
C722 C723 1.404 . S
C722 C725 1.539 . S
C723 C719 1.408 . S
C723 C722 1.404 . S
C723 H735 0.930 . S
C724 C720 1.524 . S
C724 H736 0.956 1_554 S
C724 H737 0.961 1_554 S
C724 H738 0.961 . S
C725 C722 1.539 . S
C725 H739 0.958 . S
C725 H740 0.961 . S
C725 H741 0.960 . S
H726 C710 0.931 . S
H727 C715 0.929 . S
H728 C716 0.960 1_554 S
H729 C716 0.962 . S
H730 C716 0.960 . S
H731 C717 0.961 . S
H732 C717 0.961 . S
H733 C717 0.961 . S
H734 C718 0.931 . S
H735 C723 0.930 . S
H736 C724 0.956 1_556 S
H737 C724 0.961 1_556 S
H738 C724 0.961 . S
H739 C725 0.958 . S
H740 C725 0.961 . S
H741 C725 0.960 . S
C742 C743 1.391 1_655 S
C742 C744 1.394 . S
C742 H758 0.931 . S
C743 C742 1.391 1_455 S
C743 C747 1.376 . S
C744 C742 1.394 . S
C744 C745 1.369 1_655 S
C744 C748 1.531 . S
C745 C744 1.369 1_455 S
C745 C746 1.410 . S
C745 C753 1.503 . S
C746 C745 1.410 . S
C746 C747 1.392 . S
C746 C749 1.511 . S
C747 C743 1.376 . S
C747 C746 1.392 . S
C747 H759 0.929 . S
C748 C744 1.531 . S
C748 H760 0.960 . S
C748 H761 0.962 . S
C748 H762 0.960 . S
C749 C746 1.511 . S
C749 H763 0.961 . S
C749 H764 0.961 . S
C749 H765 0.961 . S
C750 C751 1.370 . S
C750 C752 1.363 . S
C750 H766 0.931 . S
C751 C750 1.370 . S
C751 C755 1.408 . S
C752 C750 1.363 . S
C752 C753 1.370 . S
C752 C756 1.524 . S
C753 C745 1.503 . S
C753 C752 1.370 . S
C753 C754 1.403 . S
C754 C753 1.403 . S
C754 C755 1.404 . S
C754 C757 1.539 . S
C755 C751 1.408 . S
C755 C754 1.404 . S
C755 H767 0.930 . S
C756 C752 1.524 . S
C756 H768 0.956 1_455 S
C756 H769 0.961 . S
C756 H770 0.961 . S
C757 C754 1.539 . S
C757 H771 0.958 . S
C757 H772 0.961 . S
C757 H773 0.960 . S
H758 C742 0.931 . S
H759 C747 0.929 . S
H760 C748 0.960 . S
H761 C748 0.962 . S
H762 C748 0.960 . S
H763 C749 0.961 . S
H764 C749 0.961 . S
H765 C749 0.961 . S
H766 C750 0.931 . S
H767 C755 0.930 . S
H768 C756 0.956 1_655 S
H769 C756 0.961 . S
H770 C756 0.961 . S
H771 C757 0.958 . S
H772 C757 0.961 . S
H773 C757 0.960 . S
C199 C12 2.691 . S
C207 N187 2.653 . S
C231 C52 2.859 . S
C239 N160 2.863 1_655 S
C263 C111 2.889 . S
C271 N173 2.896 1_565 S
C295 C31 3.344 . S
C303 N186 3.356 . S
C335 N161 3.114 . S
C327 C71 3.139 . S
C367 N174 3.076 . S
C359 C92 3.102 . S
C391 C48 0.218 . S
C399 N134 0.250 . S
C423 C109 0.524 . S
C431 N148 0.139 . S
C455 C29 0.693 . S
C463 N122 0.569 . S
C495 N135 0.427 . S
C487 C69 0.462 . S
C527 N147 0.562 . S
C519 C88 0.565 . S
C551 C8 0.326 . S
C559 N121 0.262 . S
C591 N151 1.216 . S
C583 C17 1.201 1_455 S
C615 C57 1.268 . S
C623 N125 1.260 . S
C647 C97 1.211 . S
C655 N138 1.230 . S
C687 N177 1.812 . S
C679 C42 1.697 . S
C719 N190 1.737 . S
C711 C82 1.731 . S
C743 C2 1.721 . S
C751 N164 1.774 . S
