# Generated by pormake.
# Topology pyr, (3,6)-cn, num edge types: 1
# Building blocks:
#     Node 0, Type 0, BuildingBlock: PAMTOO_clean_linker_0, # of connection points: 3
#     Node 1, Type 0, BuildingBlock: PAMTOO_clean_linker_0, # of connection points: 3
#     Node 2, Type 0, BuildingBlock: PAMTOO_clean_linker_0, # of connection points: 3
#     Node 3, Type 0, BuildingBlock: PAMTOO_clean_linker_0, # of connection points: 3
#     Node 4, Type 0, BuildingBlock: PAMTOO_clean_linker_0, # of connection points: 3
#     Node 5, Type 0, BuildingBlock: PAMTOO_clean_linker_0, # of connection points: 3
#     Node 6, Type 0, BuildingBlock: PAMTOO_clean_linker_0, # of connection points: 3
#     Node 7, Type 0, BuildingBlock: PAMTOO_clean_linker_0, # of connection points: 3
#     Node 8, Type 1, BuildingBlock: BETDIP_clean_sbu_0, # of connection points: 6
#     Node 9, Type 1, BuildingBlock: BETDIP_clean_sbu_0, # of connection points: 6
#     Node 10, Type 1, BuildingBlock: BETDIP_clean_sbu_0, # of connection points: 6
#     Node 11, Type 1, BuildingBlock: BETDIP_clean_sbu_0, # of connection points: 6
#     Edge 12, Type (0, 1), BuildingBlock: XUDNAN_clean_linker_2, # of connection points: 2
#     Edge 13, Type (0, 1), BuildingBlock: XUDNAN_clean_linker_2, # of connection points: 2
#     Edge 14, Type (0, 1), BuildingBlock: XUDNAN_clean_linker_2, # of connection points: 2
#     Edge 15, Type (0, 1), BuildingBlock: XUDNAN_clean_linker_2, # of connection points: 2
#     Edge 16, Type (0, 1), BuildingBlock: XUDNAN_clean_linker_2, # of connection points: 2
#     Edge 17, Type (0, 1), BuildingBlock: XUDNAN_clean_linker_2, # of connection points: 2
#     Edge 18, Type (0, 1), BuildingBlock: XUDNAN_clean_linker_2, # of connection points: 2
#     Edge 19, Type (0, 1), BuildingBlock: XUDNAN_clean_linker_2, # of connection points: 2
#     Edge 20, Type (0, 1), BuildingBlock: XUDNAN_clean_linker_2, # of connection points: 2
#     Edge 21, Type (0, 1), BuildingBlock: XUDNAN_clean_linker_2, # of connection points: 2
#     Edge 22, Type (0, 1), BuildingBlock: XUDNAN_clean_linker_2, # of connection points: 2
#     Edge 23, Type (0, 1), BuildingBlock: XUDNAN_clean_linker_2, # of connection points: 2
#     Edge 24, Type (0, 1), BuildingBlock: XUDNAN_clean_linker_2, # of connection points: 2
#     Edge 25, Type (0, 1), BuildingBlock: XUDNAN_clean_linker_2, # of connection points: 2
#     Edge 26, Type (0, 1), BuildingBlock: XUDNAN_clean_linker_2, # of connection points: 2
#     Edge 27, Type (0, 1), BuildingBlock: XUDNAN_clean_linker_2, # of connection points: 2
#     Edge 28, Type (0, 1), BuildingBlock: XUDNAN_clean_linker_2, # of connection points: 2
#     Edge 29, Type (0, 1), BuildingBlock: XUDNAN_clean_linker_2, # of connection points: 2
#     Edge 30, Type (0, 1), BuildingBlock: XUDNAN_clean_linker_2, # of connection points: 2
#     Edge 31, Type (0, 1), BuildingBlock: XUDNAN_clean_linker_2, # of connection points: 2
#     Edge 32, Type (0, 1), BuildingBlock: XUDNAN_clean_linker_2, # of connection points: 2
#     Edge 33, Type (0, 1), BuildingBlock: XUDNAN_clean_linker_2, # of connection points: 2
#     Edge 34, Type (0, 1), BuildingBlock: XUDNAN_clean_linker_2, # of connection points: 2
#     Edge 35, Type (0, 1), BuildingBlock: XUDNAN_clean_linker_2, # of connection points: 2
# Relax obj value: 0.181
# Max RMSD: 0.284
# Mean RMSD: 0.150
data_MOF--net-pyr--node1-BETDIP_clean_sbu_0--node2-PAMTOO_clean_linker_0--edge1-XUDNAN_clean_linker_2
_symmetry_space_group_name_H-M    P1
_symmetry_Int_Tables_number       1
_symmetry_cell_setting            triclinic
loop_
_symmetry_equiv_pos_as_xyz
'x, y, z'
_cell_length_a     34.118937
_cell_length_b     39.675451
_cell_length_c     38.374504
_cell_angle_alpha  89.290044
_cell_angle_beta   93.738049
_cell_angle_gamma 108.17241
loop_
_atom_site_label
_atom_site_type_symbol
_atom_site_fract_x
_atom_site_fract_y
_atom_site_fract_z
_atom_type_partial_charge
H0 H 0.31906 0.31841 0.25385 0.0
H1 H 0.42233 0.28638 0.29418 0.0
H2 H 0.39274 0.28369 0.1838 0.0
H3 H 0.40364 0.22171 0.25655 0.0
C4 C 0.43448 0.23359 0.24569 0.0
O5 O 0.43995 0.26782 0.2341 0.0
H6 H 0.45771 0.23449 0.26766 0.0
C7 C 0.34542 0.30966 0.24947 0.0
C8 C 0.35406 0.30367 0.21512 0.0
C9 C 0.36898 0.30249 0.27826 0.0
C10 C 0.40359 0.29198 0.27233 0.0
C11 C 0.41134 0.28424 0.23848 0.0
C12 C 0.3868 0.29022 0.20986 0.0
H13 H 0.24452 0.85249 0.74735 0.0
H14 H 0.16622 0.79876 0.65943 0.0
H15 H 0.23857 0.74584 0.7209 0.0
H16 H 0.21277 0.7611 0.6235 0.0
C17 C 0.20067 0.73527 0.63704 0.0
O18 O 0.18428 0.73979 0.66795 0.0
H19 H 0.17545 0.71822 0.6193 0.0
C20 C 0.2329 0.82948 0.73028 0.0
C21 C 0.24577 0.79958 0.73716 0.0
C22 C 0.20457 0.82986 0.7022 0.0
C23 C 0.18795 0.79917 0.68143 0.0
C24 C 0.20031 0.76905 0.68822 0.0
C25 C 0.22909 0.76921 0.71604 0.0
H26 H 0.71736 0.31693 0.93535 0.0
H27 H 0.62597 0.30944 0.84984 0.0
H28 H 0.72976 0.40403 0.86489 0.0
H29 H 0.64258 0.41021 0.84071 0.0
C30 C 0.6376 0.39116 0.81858 0.0
O31 O 0.66521 0.37171 0.82291 0.0
H32 H 0.60563 0.37257 0.81922 0.0
C33 C 0.70456 0.32856 0.91354 0.0
C34 C 0.72682 0.36308 0.90326 0.0
C35 C 0.66767 0.30844 0.89513 0.0
C36 C 0.65366 0.32411 0.86517 0.0
C37 C 0.67579 0.3587 0.85419 0.0
C38 C 0.71196 0.37808 0.87381 0.0
H39 H 0.89981 0.76374 0.44084 0.0
H40 H 0.89036 0.67356 0.37572 0.0
H41 H 0.98391 0.77325 0.35948 0.0
H42 H 0.9488 0.72919 0.29098 0.0
C43 C 0.94047 0.70226 0.30257 0.0
O44 O 0.95358 0.70572 0.33815 0.0
H45 H 0.90624 0.69078 0.29997 0.0
C46 C 0.91024 0.75245 0.41912 0.0
C47 C 0.94425 0.77386 0.40167 0.0
C48 C 0.89061 0.71619 0.41066 0.0
C49 C 0.90432 0.70142 0.38216 0.0
C50 C 0.93775 0.72185 0.36312 0.0
C51 C 0.95761 0.75794 0.37334 0.0
H52 H 0.78946 0.87553 0.91388 0.0
H53 H 0.69304 0.79491 0.96232 0.0
H54 H 0.78479 0.76669 0.90802 0.0
H55 H 0.68417 0.72999 0.89475 0.0
C56 C 0.69547 0.7172 0.9176 0.0
O57 O 0.71763 0.74211 0.94236 0.0
H58 H 0.66771 0.69929 0.92937 0.0
C59 C 0.77498 0.84806 0.92077 0.0
C60 C 0.79085 0.8222 0.90864 0.0
C61 C 0.74027 0.8389 0.94085 0.0
C62 C 0.71999 0.80277 0.94705 0.0
C63 C 0.73588 0.77667 0.93498 0.0
C64 C 0.77185 0.7866 0.91655 0.0
H65 H 0.86851 0.24294 0.37455 0.0
H66 H 0.89072 0.35557 0.384 0.0
H67 H 0.95783 0.30412 0.4526 0.0
H68 H 0.96686 0.39449 0.47883 0.0
C69 C 0.93839 0.3757 0.46607 0.0
O70 O 0.94811 0.36473 0.43468 0.0
H71 H 0.92845 0.35298 0.48428 0.0
C72 C 0.88393 0.26799 0.38777 0.0
C73 C 0.91332 0.26925 0.41557 0.0
C74 C 0.87528 0.29885 0.37606 0.0
C75 C 0.89691 0.33144 0.39237 0.0
C76 C 0.9268 0.33316 0.41963 0.0
C77 C 0.93512 0.30227 0.43103 0.0
H78 H 0.39165 0.75749 0.17487 0.0
H79 H 0.37482 0.66914 0.24499 0.0
H80 H 0.48808 0.75599 0.25282 0.0
H81 H 0.41817 0.70241 0.31981 0.0
C82 C 0.44868 0.70013 0.31371 0.0
O83 O 0.44857 0.69333 0.27817 0.0
H84 H 0.47242 0.72608 0.32014 0.0
C85 C 0.40297 0.74502 0.19688 0.0
C86 C 0.44288 0.76169 0.21241 0.0
C87 C 0.37798 0.71165 0.20818 0.0
C88 C 0.39348 0.69475 0.236 0.0
C89 C 0.4331 0.7108 0.25239 0.0
C90 C 0.45759 0.74402 0.24027 0.0
H91 H 0.09589 0.32069 0.80093 0.0
H92 H 0.18685 0.4231 0.7873 0.0
H93 H 0.18104 0.33661 0.71913 0.0
H94 H 0.26569 0.385 0.75328 0.0
C95 C 0.26067 0.40934 0.74175 0.0
O96 O 0.21887 0.40343 0.73312 0.0
H97 H 0.27118 0.43053 0.76208 0.0
C98 C 0.12179 0.33762 0.78763 0.0
C99 C 0.13633 0.32373 0.75855 0.0
C100 C 0.13994 0.37383 0.79866 0.0
C101 C 0.17316 0.39537 0.78018 0.0
C102 C 0.18813 0.3819 0.75178 0.0
C103 C 0.16946 0.34648 0.7412 0.0
Tb104 Tb 1.01114 1.03331 0.58896 0.0
Tb105 Tb 0.08874 0.06956 0.565 0.0
C106 C 0.94845 0.98906 0.61303 0.0
C107 C 0.94201 0.96711 0.64452 0.0
C108 C 0.902 0.94682 0.65216 0.0
C109 C 0.89543 0.92752 0.68315 0.0
C110 C 0.92893 0.92802 0.70688 0.0
C111 C 0.96912 0.94764 0.69847 0.0
C112 C 0.97551 0.96729 0.66781 0.0
C113 C 0.04689 0.09727 0.61981 0.0
C114 C 0.0906 1.01734 0.62273 0.0
C115 C 0.15327 0.1165 0.54787 0.0
C116 C 0.16846 0.14286 0.52051 0.0
C117 C 0.18356 0.17901 0.52968 0.0
C118 C 0.20324 0.20421 0.5055 0.0
C119 C 0.20851 0.19357 0.47186 0.0
C120 C 0.19167 0.15761 0.46219 0.0
C121 C 0.17181 0.13245 0.48628 0.0
C122 C 0.05692 1.00526 0.53464 0.0
C123 C 1.00891 0.08326 0.52851 0.0
O124 O 0.97081 0.98109 0.59012 0.0
O125 O 0.95908 1.02314 0.61849 0.0
O126 O 0.06366 0.07379 0.61384 0.0
O127 O 1.00862 0.08489 0.60844 0.0
O128 O 0.05082 1.0044 0.61381 0.0
O129 O 0.11198 0.0483 0.61091 0.0
O130 O 0.12694 0.12249 0.56823 0.0
O131 O 0.14398 0.08296 0.53957 0.0
O132 O 0.03688 1.02675 0.54047 0.0
O133 O 0.09522 1.0207 0.54469 0.0
O134 O 0.04913 0.0959 0.536 0.0
O135 O 0.98692 0.0537 0.54281 0.0
H136 H 0.87574 0.94658 0.63457 0.0
H137 H 0.86398 0.91325 0.68901 0.0
H138 H 0.99568 0.94829 0.71583 0.0
H139 H 1.00658 0.98315 0.6628 0.0
H140 H 0.18152 0.18763 0.556 0.0
H141 H 0.2161 0.23172 0.51364 0.0
H142 H 0.1948 0.14881 0.4362 0.0
H143 H 0.16034 0.10481 0.47837 0.0
Tb144 Tb 0.60544 0.06239 0.07994 0.0
Tb145 Tb 0.52273 1.01386 0.04515 0.0
C146 C 0.66647 0.11213 0.10386 0.0
C147 C 0.67515 0.14508 0.12427 0.0
C148 C 0.71141 0.17289 0.11919 0.0
C149 C 0.72452 0.20163 0.14245 0.0
C150 C 0.70147 0.20305 0.17121 0.0
C151 C 0.66344 0.17642 0.17458 0.0
C152 C 0.6505 0.14757 0.15142 0.0
C153 C 0.57632 0.99749 0.10578 0.0
C154 C 0.5204 0.07339 0.09773 0.0
C155 C 0.46136 0.95978 1.03336 0.0
C156 C 0.44486 0.93484 1.00424 0.0
C157 C 0.40672 0.90849 1.00648 0.0
C158 C 0.39045 0.88461 0.97885 0.0
C159 C 0.41219 0.8867 0.94856 0.0
C160 C 0.45092 0.91284 0.94679 0.0
C161 C 0.46713 0.93676 0.97443 0.0
C162 C 0.5545 0.07118 1.00563 0.0
C163 C 0.60912 1.00886 1.02289 0.0
O164 O 0.65019 0.11169 0.07191 0.0
O165 O 0.64995 0.08264 0.12057 0.0
O166 O 0.55513 1.01729 0.09536 0.0
O167 O 0.61508 1.01481 0.10312 0.0
O168 O 0.56124 0.08562 0.09923 0.0
O169 O 0.49883 0.04386 0.08081 0.0
O170 O 0.4967 0.95888 0.04821 0.0
O171 O 0.4602 0.99224 1.02833 0.0
O172 O 0.56796 0.06249 1.03452 0.0
O173 O 0.52127 0.04522 0.9969 0.0
O174 O 0.569 0.99259 1.02512 0.0
O175 O 0.6284 0.04003 1.03777 0.0
H176 H 0.73085 0.1714 0.0984 0.0
H177 H 0.75416 0.2214 0.1392 0.0
H178 H 0.64468 0.17699 0.19613 0.0
H179 H 0.62245 0.12631 0.15589 0.0
H180 H 0.38932 0.90663 1.02945 0.0
H181 H 0.36028 0.86519 0.98083 0.0
H182 H 0.46858 0.91492 0.92396 0.0
H183 H 0.49688 0.95683 0.97252 0.0
Tb184 Tb 0.56428 0.5743 0.57397 0.0
Tb185 Tb 0.56132 0.51044 0.53766 0.0
C186 C 0.54676 0.62738 0.5955 0.0
C187 C 0.50975 0.63382 0.60789 0.0
C188 C 0.4702 0.60987 0.59999 0.0
C189 C 0.4352 0.61681 0.61089 0.0
C190 C 0.43902 0.64809 0.62951 0.0
C191 C 0.47872 0.67195 0.63756 0.0
C192 C 0.5138 0.66476 0.62695 0.0
C193 C 0.60225 0.53458 0.61038 0.0
C194 C 0.48591 0.50455 0.58163 0.0
C195 C 0.5793 0.45779 0.51606 0.0
C196 C 0.61524 0.45253 0.50041 0.0
C197 C 0.63855 0.47716 0.47711 0.0
C198 C 0.67469 0.47309 0.46511 0.0
C199 C 0.6884 0.44452 0.47647 0.0
C200 C 0.66438 0.41966 0.49935 0.0
C201 C 0.62816 0.4236 0.51106 0.0
C202 C 0.52127 0.54857 0.50163 0.0
C203 C 0.64062 0.58024 0.53141 0.0
O204 O 0.5445 0.61839 0.56259 0.0
O205 O 0.56352 0.6081 0.61557 0.0
O206 O 0.56848 0.52385 0.59205 0.0
O207 O 0.61556 0.56897 0.60893 0.0
O208 O 0.50178 0.53944 0.58483 0.0
O209 O 0.5058 0.48613 0.56565 0.0
O210 O 0.58595 0.46893 0.54847 0.0
O211 O 0.55758 0.47414 0.49725 0.0
O212 O 0.55564 0.56054 0.51926 0.0
O213 O 0.50913 0.51424 0.50382 0.0
O214 O 0.62357 0.54573 0.52554 0.0
O215 O 0.62181 0.59823 0.54914 0.0
H216 H 0.46615 0.58615 0.58476 0.0
H217 H 0.40504 0.59818 0.60378 0.0
H218 H 0.48261 0.69617 0.65203 0.0
H219 H 0.54408 0.68359 0.63324 0.0
H220 H 0.62933 0.4999 0.46871 0.0
H221 H 0.6921 0.49255 0.44724 0.0
H222 H 0.67426 0.39777 0.50934 0.0
H223 H 0.61082 0.40454 0.52932 0.0
Tb224 Tb 0.04787 0.56803 1.03503 0.0
Tb225 Tb 0.05324 0.5087 0.07627 0.0
C226 C 0.02166 0.6132 1.00289 0.0
C227 C 0.99085 0.61422 0.97457 0.0
C228 C 0.95438 0.58561 0.9688 0.0
C229 C 0.92115 0.58999 0.948 0.0
C230 C 0.92404 0.62285 0.93243 0.0
C231 C 0.96182 0.65039 0.93582 0.0
C232 C 0.99492 0.64613 0.9569 0.0
C233 C 0.12337 0.57934 0.06703 0.0
C234 C 0.02379 0.56476 0.11604 0.0
C235 C 0.07788 0.46228 0.10755 0.0
C236 C 0.10482 0.44077 0.10035 0.0
C237 C 0.14653 0.4568 0.0936 0.0
C238 C 0.17287 0.43625 0.09127 0.0
C239 C 0.15804 0.39922 0.09538 0.0
C240 C 0.11566 0.3831 0.09983 0.0
C241 C 0.0894 0.40371 0.10252 0.0
C242 C 0.97763 0.49955 0.04539 0.0
C243 C 0.07183 0.50856 0.99567 0.0
O244 O 0.05471 0.60578 0.99473 0.0
O245 O 1.00638 0.59702 1.03115 0.0
O246 O 0.0887 0.56378 0.07872 0.0
O247 O 0.11532 0.59073 1.03648 0.0
O248 O 0.02367 0.57993 0.0849 0.0
O249 O 0.03622 0.5363 0.11944 0.0
O250 O 0.09584 0.49643 0.11168 0.0
O251 O 0.04265 0.45501 0.0891 0.0
O252 O 1.01224 0.5136 1.03306 0.0
O253 O 0.98548 0.48944 0.07666 0.0
O254 O 0.08197 0.49958 1.02769 0.0
O255 O 0.05158 0.53224 0.99247 0.0
H256 H 0.95064 0.56065 0.9821 0.0
H257 H 0.89248 0.56832 0.94546 0.0
H258 H 0.96477 0.67608 0.92434 0.0
H259 H 0.02275 0.66851 0.96116 0.0
H260 H 0.15932 0.48534 0.09149 0.0
H261 H 0.20533 0.44971 0.08822 0.0
H262 H 0.10303 0.35461 0.10248 0.0
H263 H 0.05728 0.39075 0.10743 0.0
H264 H 0.36572 0.24934 0.32423 0.0
H265 H 0.3325 0.34592 0.31066 0.0
H266 H 0.29244 0.33156 0.36337 0.0
H267 H 0.27269 0.19639 0.34472 0.0
H268 H 0.29065 0.16998 0.37669 0.0
H269 H 0.32303 0.191 0.34249 0.0
H270 H 0.38192 0.22307 0.38806 0.0
H271 H 0.3501 0.20145 0.4226 0.0
H272 H 0.3715 0.24912 0.42235 0.0
H273 H 0.24821 0.30184 0.4128 0.0
H274 H 0.20588 0.26047 0.45495 0.0
H275 H 0.26943 0.18432 0.4347 0.0
C276 C 0.35175 0.26845 0.33314 0.0
C277 C 0.35267 0.29897 0.31351 0.0
C278 C 0.33227 0.32239 0.32536 0.0
C279 C 0.3096 0.31452 0.35532 0.0
C280 C 0.30801 0.28334 0.37321 0.0
C281 C 0.32912 0.26099 0.36276 0.0
C282 C 0.31935 0.22739 0.38393 0.0
C283 C 0.3003 0.19427 0.36055 0.0
C284 C 0.35802 0.22514 0.40553 0.0
C285 C 0.28807 0.23352 0.40701 0.0
C286 C 0.28229 0.26613 0.401 0.0
C287 C 0.25301 0.27652 0.4181 0.0
C288 C 0.22909 0.2529 0.44187 0.0
C289 C 0.23428 0.2192 0.44777 0.0
C290 C 0.26451 0.20978 0.43039 0.0
H291 H 0.31611 0.85334 0.75509 0.0
H292 H 0.24234 0.74897 0.78733 0.0
H293 H 0.28567 0.75624 0.84271 0.0
H294 H 0.41743 0.85337 0.80041 0.0
H295 H 0.43001 0.89964 0.81181 0.0
H296 H 0.39957 0.88278 0.77195 0.0
H297 H 0.34216 0.90731 0.79115 0.0
H298 H 0.37214 0.92397 0.83102 0.0
H299 H 0.32022 0.89409 0.83257 0.0
H300 H 0.32867 0.77938 0.89828 0.0
H301 H 0.36821 0.81558 0.94844 0.0
H302 H 0.41144 0.90555 0.87994 0.0
C303 C 0.30977 0.83162 0.77344 0.0
C304 C 0.27592 0.80061 0.76704 0.0
C305 C 0.26848 0.77276 0.79158 0.0
C306 C 0.29288 0.77672 0.82311 0.0
C307 C 0.3248 0.80848 0.82936 0.0
C308 C 0.33356 0.83528 0.80494 0.0
C309 C 0.36587 0.86844 0.81935 0.0
C310 C 0.40558 0.87652 0.79971 0.0
C311 C 0.34907 0.9003 0.81848 0.0
C312 C 0.37254 0.85681 0.85629 0.0
C313 C 0.34924 0.82194 0.86145 0.0
C314 C 0.34763 0.80646 0.89435 0.0
C315 C 0.36989 0.82731 0.92273 0.0
C316 C 0.39308 0.86335 0.91807 0.0
C317 C 0.39495 0.87787 0.88423 0.0
H318 H 0.57828 0.38964 0.76428 0.0
H319 H 0.70664 0.44242 0.79687 0.0
H320 H 0.71245 0.48247 0.74597 0.0
H321 H 0.59083 0.39556 0.66902 0.0
H322 H 0.54198 0.40333 0.65928 0.0
H323 H 0.54875 0.37744 0.6968 0.0
H324 H 0.52648 0.41954 0.73651 0.0
H325 H 0.51985 0.44562 0.69917 0.0
H326 H 0.55359 0.46648 0.73618 0.0
H327 H 0.70241 0.52038 0.69384 0.0
H328 H 0.67875 0.55077 0.64393 0.0
H329 H 0.55726 0.4725 0.64297 0.0
C330 C 0.6079 0.40909 0.76025 0.0
C331 C 0.64237 0.41235 0.78446 0.0
C332 C 0.68014 0.43888 0.77853 0.0
C333 C 0.68359 0.46188 0.7497 0.0
C334 C 0.64898 0.45822 0.72662 0.0
C335 C 0.61191 0.43221 0.73139 0.0
C336 C 0.57905 0.43462 0.70333 0.0
C337 C 0.56428 0.40071 0.68077 0.0
C338 C 0.54259 0.442 0.71979 0.0
C339 C 0.60316 0.46629 0.68228 0.0
C340 C 0.64346 0.47955 0.69627 0.0
C341 C 0.67109 0.50982 0.68253 0.0
C342 C 0.65734 0.527 0.65409 0.0
C343 C 0.61633 0.51397 0.63904 0.0
C344 C 0.58905 0.48287 0.65332 0.0
H345 H 0.95691 0.70698 0.23213 0.0
H346 H 0.9615 0.64141 0.32237 0.0
H347 H 0.98302 0.60025 0.28531 0.0
H348 H 0.91526 0.6357 0.1702 0.0
H349 H 0.94453 0.65838 0.1347 0.0
H350 H 0.93159 0.68347 0.16847 0.0
H351 H 1.0089 0.71873 0.18061 0.0
H352 H 0.02205 0.6939 0.1467 0.0
H353 H 0.04564 0.69511 0.19027 0.0
H354 H 1.00296 0.56469 0.23665 0.0
H355 H 1.01955 0.53928 0.18328 0.0
H356 H 1.00161 0.62723 0.12322 0.0
C357 C 0.9633 0.68435 0.24434 0.0
C358 C 0.95867 0.67842 0.28089 0.0
C359 C 0.96588 0.64751 0.29504 0.0
C360 C 0.97792 0.62374 0.27394 0.0
C361 C 0.98233 0.63055 0.23817 0.0
C362 C 0.97529 0.66027 0.22352 0.0
C363 C 0.98116 0.66112 0.18422 0.0
C364 C 0.94073 0.65958 0.16316 0.0
C365 C 1.01654 0.69418 0.1749 0.0
C366 C 0.99257 0.62727 0.17882 0.0
C367 C 0.99307 0.61004 0.21035 0.0
C368 C 1.00262 0.57822 0.21202 0.0
C369 C 1.01204 0.56384 0.18123 0.0
C370 C 1.01204 0.58077 0.14832 0.0
C371 C 1.00193 0.61314 0.14752 0.0
H372 H 0.50597 0.22422 0.22601 0.0
H373 H 0.37371 0.19059 0.20125 0.0
H374 H 0.38081 0.14662 0.15871 0.0
H375 H 0.53633 0.21357 0.13724 0.0
H376 H 0.5782 0.19783 0.15352 0.0
H377 H 0.56257 0.22856 0.1792 0.0
H378 H 0.55244 0.18477 0.23087 0.0
H379 H 0.56685 0.1534 0.2052 0.0
H380 H 0.51782 0.14017 0.22478 0.0
H381 H 0.40221 0.10242 0.12321 0.0
H382 H 0.4369 0.0652 0.09403 0.0
H383 H 0.55483 0.12935 0.14222 0.0
C384 C 0.47871 0.20799 0.21109 0.0
C385 C 0.43929 0.21028 0.2169 0.0
C386 C 0.40411 0.18882 0.1971 0.0
C387 C 0.40787 0.16386 0.17301 0.0
C388 C 0.44709 0.16122 0.16883 0.0
C389 C 0.48196 0.1831 0.18696 0.0
C390 C 0.52031 0.17412 0.17884 0.0
C391 C 0.55116 0.20538 0.16113 0.0
C392 C 0.54052 0.16242 0.21189 0.0
C393 C 0.50151 0.14345 0.15375 0.0
C394 C 0.45931 0.13627 0.14822 0.0
C395 C 0.43535 0.10807 0.12702 0.0
C396 C 0.45525 0.08696 0.11073 0.0
C397 C 0.49862 0.09433 0.11576 0.0
C398 C 0.52173 0.12296 0.13762 0.0
H399 H 0.12817 0.83612 0.681 0.0
H400 H 0.25644 0.8981 0.70516 0.0
H401 H 0.23904 0.95304 0.69366 0.0
H402 H 0.11165 0.88879 0.60931 0.0
H403 H 0.05911 0.88454 0.61823 0.0
H404 H 0.08085 0.85005 0.63124 0.0
H405 H 0.06264 0.85592 0.69497 0.0
H406 H 0.04131 0.89079 0.68218 0.0
H407 H 0.08153 0.89847 0.71675 0.0
H408 H 0.20938 1.00096 0.6767 0.0
H409 H 0.1698 0.03883 0.65154 0.0
H410 H 0.06077 0.94639 0.63728 0.0
C411 C 0.15259 0.86124 0.68388 0.0
C412 C 0.19359 0.86273 0.69449 0.0
C413 C 0.22462 0.89622 0.69791 0.0
C414 C 0.21509 0.92763 0.69136 0.0
C415 C 0.17441 0.92523 0.68128 0.0
C416 C 0.14364 0.89296 0.67732 0.0
C417 C 0.10293 0.89789 0.66415 0.0
C418 C 0.08776 0.87922 0.62862 0.0
C419 C 0.07017 0.885 0.69113 0.0
C420 C 0.11596 0.93789 0.66066 0.0
C421 C 0.15721 0.95311 0.67109 0.0
C422 C 0.17696 0.98944 0.6687 0.0
C423 C 0.1542 1.01073 0.65438 0.0
C424 C 0.11221 0.99559 0.64256 0.0
C425 C 0.09268 0.9588 0.64653 0.0
H426 H 0.75361 0.42672 0.94063 0.0
H427 H 0.79313 0.33933 0.9067 0.0
H428 H 0.86112 0.36561 0.93831 0.0
H429 H 0.85414 0.49676 0.9378 0.0
H430 H 0.84707 0.51835 0.97692 0.0
H431 H 0.80282 0.4939 0.94935 0.0
H432 H 0.7728 0.45671 1.00308 0.0
H433 H 0.81777 0.48075 1.03014 0.0
H434 H 0.80297 0.43307 1.02718 0.0
H435 H 0.92406 0.4 0.97388 0.0
H436 H 0.97869 0.44041 1.01271 0.0
H437 H 0.89993 0.50574 1.02663 0.0
C438 C 0.77691 0.41352 0.93957 0.0
C439 C 0.76827 0.38106 0.92099 0.0
C440 C 0.79918 0.36418 0.92068 0.0
C441 C 0.83788 0.37893 0.93854 0.0
C442 C 0.84537 0.4106 0.95697 0.0
C443 C 0.81587 0.42778 0.95778 0.0
C444 C 0.83174 0.46074 0.98106 0.0
C445 C 0.83409 0.49443 0.95999 0.0
C446 C 0.80471 0.45762 1.01221 0.0
C447 C 0.87472 0.4594 0.99297 0.0
C448 C 0.88176 0.4302 0.97853 0.0
C449 C 0.91888 0.42289 0.98537 0.0
C450 C 0.94969 0.44593 1.00749 0.0
C451 C 0.94337 0.47591 1.02282 0.0
C452 C 0.90537 0.48281 1.01543 0.0
H453 H 0.81588 0.6616 0.39345 0.0
H454 H 0.89202 0.71956 0.48191 0.0
H455 H 0.83788 0.6901 0.521 0.0
H456 H 0.71839 0.66177 0.42076 0.0
H457 H 0.6902 0.61689 0.40739 0.0
H458 H 0.73534 0.6414 0.38539 0.0
H459 H 0.7682 0.59163 0.39884 0.0
H460 H 0.72303 0.56691 0.42078 0.0
H461 H 0.77343 0.57775 0.44335 0.0
H462 H 0.77352 0.65988 0.55041 0.0
H463 H 0.70499 0.62493 0.5694 0.0
H464 H 0.67023 0.58019 0.46519 0.0
C465 C 0.82142 0.66771 0.4211 0.0
C466 C 0.85827 0.69407 0.43408 0.0
C467 C 0.86387 0.70076 0.47067 0.0
C468 C 0.83328 0.68382 0.49337 0.0
C469 C 0.79702 0.65916 0.47971 0.0
C470 C 0.79109 0.65037 0.4446 0.0
C471 C 0.74881 0.62251 0.43732 0.0
C472 C 0.72158 0.63649 0.41116 0.0
C473 C 0.75367 0.58764 0.42429 0.0
C474 C 0.73179 0.61799 0.47357 0.0
C475 C 0.76031 0.63965 0.49747 0.0
C476 C 0.75124 0.6423 0.53207 0.0
C477 C 0.71213 0.6224 0.54265 0.0
C478 C 0.68241 0.59942 0.51908 0.0
C479 C 0.69263 0.59696 0.48404 0.0
H480 H 0.26998 0.28775 0.21035 0.0
H481 H 0.37877 0.33618 0.15312 0.0
H482 H 0.33583 0.35653 0.1084 0.0
H483 H 0.19159 0.26494 0.13367 0.0
H484 H 0.15429 0.27679 0.15797 0.0
H485 H 0.19124 0.25862 0.18026 0.0
H486 H 0.21552 0.31336 0.22173 0.0
H487 H 0.17878 0.33156 0.19969 0.0
H488 H 0.2328 0.35717 0.20335 0.0
H489 H 0.28363 0.38045 0.07601 0.0
H490 H 0.22831 0.40687 0.06013 0.0
H491 H 0.1557 0.34577 0.14147 0.0
C492 C 0.28469 0.30203 0.18803 0.0
C493 C 0.32774 0.31056 0.18528 0.0
C494 C 0.34574 0.32902 0.15555 0.0
C495 C 0.32157 0.34068 0.13004 0.0
C496 C 0.27946 0.33333 0.13453 0.0
C497 C 0.26118 0.31416 0.16274 0.0
C498 C 0.21699 0.31398 0.16456 0.0
C499 C 0.18674 0.27634 0.15875 0.0
C500 C 0.2107 0.32999 0.19937 0.0
C501 C 0.21382 0.33764 0.13405 0.0
C502 C 0.2497 0.3478 0.11642 0.0
C503 C 0.25517 0.37219 0.08927 0.0
C504 C 0.2237 0.38728 0.08063 0.0
C505 C 0.18752 0.37841 0.0995 0.0
C506 C 0.1823 0.35246 0.12581 0.0
H507 H 0.66351 0.27838 0.96207 0.0
H508 H 0.62347 0.2509 0.85334 0.0
H509 H 0.59178 0.18879 0.87018 0.0
H510 H 0.69136 0.19902 0.98211 0.0
H511 H 0.67394 0.19512 1.02577 0.0
H512 H 0.69205 0.23813 1.00587 0.0
H513 H 0.62298 0.24919 1.01669 0.0
H514 H 0.60481 0.20628 1.03675 0.0
H515 H 0.57496 0.21751 1.00055 0.0
H516 H 0.56408 0.12896 0.89841 0.0
H517 H 0.54239 0.07626 0.93582 0.0
H518 H 0.60349 0.13994 1.02637 0.0
C519 C 0.64842 0.25947 0.94153 0.0
C520 C 0.64624 0.27048 0.90604 0.0
C521 C 0.62522 0.24417 0.88068 0.0
C522 C 0.60735 0.20843 0.88999 0.0
C523 C 0.61071 0.19868 0.92488 0.0
C524 C 0.63076 0.22341 0.95033 0.0
C525 C 0.63035 0.20564 0.98595 0.0
C526 C 0.67456 0.20973 1.0008 0.0
C527 C 0.60687 0.22054 1.01149 0.0
C528 C 0.60696 0.16703 0.97653 0.0
C529 C 0.59582 0.16382 0.94111 0.0
C530 C 0.57295 0.13124 0.92609 0.0
C531 C 0.56079 0.10133 0.94763 0.0
C532 C 0.57172 0.10356 0.984 0.0
C533 C 0.59548 0.13702 0.99858 0.0
H534 H 0.91345 0.82338 0.43422 0.0
H535 H 0.02809 0.81049 0.40289 0.0
H536 H 0.06663 0.86795 0.43066 0.0
H537 H 0.94266 0.91998 0.42395 0.0
H538 H 0.91751 0.92676 0.46193 0.0
H539 H 0.89804 0.8856 0.43774 0.0
H540 H 0.90447 0.85079 0.49407 0.0
H541 H 0.92401 0.89182 0.51843 0.0
H542 H 0.95355 0.86123 0.51886 0.0
H543 H 0.09417 0.92517 0.4655 0.0
H544 H 0.10872 0.97842 0.5021 0.0
H545 H 0.97738 0.95707 0.513 0.0
C546 C 0.94669 0.83238 0.43302 0.0
C547 C 0.96723 0.81138 0.41575 0.0
C548 C 1.01087 0.82545 0.41493 0.0
C549 C 0.0333 0.85824 0.4311 0.0
C550 C 1.01218 0.87753 0.44832 0.0
C551 C 0.96976 0.86526 0.44923 0.0
C552 C 0.95488 0.8911 0.47029 0.0
C553 C 0.92658 0.90679 0.44709 0.0
C554 C 0.93292 0.87263 0.50231 0.0
C555 C 0.99559 0.91969 0.48137 0.0
C556 C 0.0281 0.91102 0.46825 0.0
C557 C 0.0688 0.93219 0.47553 0.0
C558 C 0.07674 0.96269 0.49661 0.0
C559 C 0.04447 0.97286 0.51061 0.0
C560 C 1.003 0.95079 0.50253 0.0
H561 H 0.28371 0.76218 0.62632 0.0
H562 H 0.19107 0.6685 0.66184 0.0
H563 H 0.24384 0.63747 0.66914 0.0
H564 H 0.33407 0.71785 0.57563 0.0
H565 H 0.38543 0.74755 0.58598 0.0
H566 H 0.34159 0.76343 0.58726 0.0
H567 H 0.36358 0.78424 0.65136 0.0
H568 H 0.40759 0.76838 0.65028 0.0
H569 H 0.37126 0.75299 0.6835 0.0
H570 H 0.30495 0.61524 0.66751 0.0
H571 H 0.37002 0.60321 0.65717 0.0
H572 H 0.42278 0.71137 0.6222 0.0
C573 C 0.2748 0.73531 0.63611 0.0
C574 C 0.23351 0.71754 0.64356 0.0
C575 C 0.2227 0.68237 0.65609 0.0
C576 C 0.25242 0.66468 0.66038 0.0
C577 C 0.2928 0.6827 0.6522 0.0
C578 C 0.30408 0.71729 0.64048 0.0
C579 C 0.3489 0.7299 0.63151 0.0
C580 C 0.35269 0.74027 0.5928 0.0
C581 C 0.37433 0.7607 0.65561 0.0
C582 C 0.36073 0.69665 0.63901 0.0
C583 C 0.32807 0.66987 0.65129 0.0
C584 C 0.33087 0.63612 0.65826 0.0
C585 C 0.36784 0.62946 0.65211 0.0
C586 C 0.40148 0.65634 0.63898 0.0
C587 C 0.39791 0.69049 0.63289 0.0
H588 H 0.79107 0.80024 0.84202 0.0
H589 H 0.86658 0.87046 0.92297 0.0
H590 H 0.91782 0.89871 0.88026 0.0
H591 H 0.87942 0.79508 0.78759 0.0
H592 H 0.84876 0.79575 0.74766 0.0
H593 H 0.8241 0.77497 0.78602 0.0
H594 H 0.7766 0.8148 0.78133 0.0
H595 H 0.80149 0.83616 0.74354 0.0
H596 H 0.79954 0.86236 0.78104 0.0
H597 H 0.95227 0.92693 0.82803 0.0
H598 H 0.96882 0.95263 0.77017 0.0
H599 H 0.87143 0.86425 0.72187 0.0
C600 C 0.81947 0.82036 0.85092 0.0
C601 C 0.82555 0.83291 0.88568 0.0
C602 C 0.86197 0.8603 0.89644 0.0
C603 C 0.89116 0.87639 0.8724 0.0
C604 C 0.88339 0.86466 0.83779 0.0
C605 C 0.84865 0.83697 0.82708 0.0
C606 C 0.84443 0.83301 0.78767 0.0
C607 C 0.8495 0.7976 0.77658 0.0
C608 C 0.80308 0.83683 0.77254 0.0
C609 C 0.88074 0.86406 0.77784 0.0
C610 C 0.90333 0.88144 0.80716 0.0
C611 C 0.93566 0.91295 0.80484 0.0
C612 C 0.94489 0.92732 0.77174 0.0
C613 C 0.92173 0.91032 0.7413 0.0
C614 C 0.8898 0.87788 0.74455 0.0
H615 H 0.80126 0.2471 0.36196 0.0
H616 H 0.88147 0.34511 0.32126 0.0
H617 H 0.83619 0.33655 0.26711 0.0
H618 H 0.78976 0.19935 0.28733 0.0
H619 H 0.73671 0.17302 0.29165 0.0
H620 H 0.76935 0.19109 0.32988 0.0
H621 H 0.71687 0.22201 0.34764 0.0
H622 H 0.68399 0.20401 0.30923 0.0
H623 H 0.70126 0.25119 0.3173 0.0
H624 H 0.78962 0.31212 0.21382 0.0
H625 H 0.74722 0.2736 0.16624 0.0
H626 H 0.69992 0.19046 0.24124 0.0
C627 C 0.80887 0.26717 0.34196 0.0
C628 C 0.84494 0.29677 0.34589 0.0
C629 C 0.85369 0.32248 0.31913 0.0
C630 C 0.82814 0.31781 0.28822 0.0
C631 C 0.79376 0.28748 0.2846 0.0
C632 C 0.78396 0.26273 0.31093 0.0
C633 C 0.74878 0.23023 0.29909 0.0
C634 C 0.76197 0.19646 0.30215 0.0
C635 C 0.71045 0.22666 0.31953 0.0
C636 C 0.74178 0.23965 0.26138 0.0
C637 C 0.76725 0.27313 0.25369 0.0
C638 C 0.76899 0.28614 0.2197 0.0
C639 C 0.745 0.26399 0.1928 0.0
C640 C 0.72003 0.22904 0.19997 0.0
C641 C 0.71765 0.21733 0.23493 0.0
H642 H 0.51035 0.7059 0.36717 0.0
H643 H 0.40459 0.62907 0.31425 0.0
H644 H 0.41186 0.58313 0.35631 0.0
H645 H 0.56985 0.64406 0.38828 0.0
H646 H 0.5898 0.66427 0.43025 0.0
H647 H 0.57755 0.69062 0.39512 0.0
H648 H 0.52929 0.70978 0.43439 0.0
H649 H 0.54104 0.68321 0.46951 0.0
H650 H 0.48809 0.67635 0.45399 0.0
H651 H 0.42795 0.54636 0.40622 0.0
H652 H 0.45422 0.5198 0.45721 0.0
H653 H 0.5515 0.61927 0.47873 0.0
C654 C 0.48924 0.6792 0.364 0.0
C655 C 0.45716 0.67099 0.3368 0.0
C656 C 0.42972 0.63588 0.33427 0.0
C657 C 0.43352 0.60968 0.35827 0.0
C658 C 0.46503 0.61875 0.38494 0.0
C659 C 0.49277 0.65257 0.38777 0.0
C660 C 0.52352 0.65529 0.41924 0.0
C661 C 0.56781 0.66408 0.40752 0.0
C662 C 0.52028 0.6828 0.44585 0.0
C663 C 0.50857 0.61783 0.43388 0.0
C664 C 0.47465 0.59735 0.41363 0.0
C665 C 0.45468 0.56215 0.42198 0.0
C666 C 0.46991 0.54727 0.45123 0.0
C667 C 0.50517 0.56715 0.47223 0.0
C668 C 0.52456 0.60319 0.46338 0.0
H669 H 0.15755 0.38189 0.87193 0.0
H670 H 0.08305 0.40823 0.78663 0.0
H671 H 0.05851 0.44426 0.827 0.0
H672 H 0.08233 0.37624 0.93986 0.0
H673 H 0.12177 0.39546 0.97384 0.0
H674 H 0.13262 0.37053 0.93878 0.0
H675 H 0.19535 0.42416 0.92483 0.0
H676 H 0.18447 0.4493 0.95966 0.0
H677 H 0.188 0.46659 0.91592 0.0
H678 H 0.04472 0.48084 0.87578 0.0
H679 H 0.03853 0.51154 0.9294 0.0
H680 H 0.11904 0.46151 0.98679 0.0
C681 C 0.13538 0.39464 0.86196 0.0
C682 C 0.12168 0.39142 0.82573 0.0
C683 C 0.09349 0.4095 0.81399 0.0
C684 C 0.07953 0.43031 0.83687 0.0
C685 C 0.09369 0.43322 0.8721 0.0
C686 C 0.12062 0.41553 0.88485 0.0
C687 C 0.13089 0.42358 0.92409 0.0
C688 C 0.11602 0.38942 0.94541 0.0
C689 C 0.17745 0.442 0.93156 0.0
C690 C 0.10605 0.44881 0.93122 0.0
C691 C 0.08504 0.45397 0.90061 0.0
C692 C 0.06087 0.47666 0.89985 0.0
C693 C 0.05766 0.49427 0.93078 0.0
C694 C 0.07812 0.48948 0.96306 0.0
C695 C 0.10274 0.46608 0.96295 0.0
H696 H 0.66043 0.84113 0.94704 0.0
H697 H 0.78972 0.90178 0.96869 0.0
H698 H 0.76952 0.95258 0.98739 0.0
H699 H 0.6249 0.91265 0.91578 0.0
H700 H 0.57698 0.8985 0.93712 0.0
H701 H 0.60079 0.86626 0.92445 0.0
H702 H 0.60122 0.84373 0.98812 0.0
H703 H 0.57678 0.87551 1.00079 0.0
H704 H 0.62473 0.8749 1.02304 0.0
H705 H 0.73693 0.99747 1.00133 0.0
H706 H 0.69282 1.03192 1.01876 0.0
H707 H 0.58359 0.94214 0.99239 0.0
C708 C 0.68442 0.86495 0.95606 0.0
C709 C 0.72675 0.86769 0.95549 0.0
C710 C 0.75716 0.89935 0.96775 0.0
C711 C 0.74604 0.92838 0.97857 0.0
C712 C 0.70431 0.92528 0.97767 0.0
C713 C 0.67383 0.89426 0.96751 0.0
C714 C 0.6312 0.89793 0.97065 0.0
C715 C 0.60705 0.89358 0.93486 0.0
C716 C 0.60707 0.87145 0.99724 0.0
C717 C 0.64277 0.93584 0.98402 0.0
C718 C 0.68515 0.95111 0.98737 0.0
C719 C 0.70365 0.98582 0.99908 0.0
C720 C 0.67821 1.00523 1.00877 0.0
C721 C 0.63464 0.98978 1.00712 0.0
C722 C 0.61674 0.95479 0.99389 0.0
H723 H 0.98719 0.25913 0.43865 0.0
H724 H 0.85553 0.20412 0.42291 0.0
H725 H 0.86673 0.14916 0.44527 0.0
H726 H 0.02321 0.18529 0.41682 0.0
H727 H 0.0647 0.19624 0.45044 0.0
H728 H 0.04699 0.23077 0.43066 0.0
H729 H 0.03365 0.25057 0.49173 0.0
H730 H 0.05156 0.21628 0.51163 0.0
H731 H 1.00098 0.21851 0.51971 0.0
H732 H 0.89135 0.101 0.47242 0.0
H733 H 0.92756 0.06373 0.50418 0.0
H734 H 0.04287 0.1503 0.50328 0.0
C735 C 0.96066 0.23558 0.43989 0.0
C736 C 0.92049 0.23601 0.42865 0.0
C737 C 0.88673 0.2044 0.4306 0.0
C738 C 0.89273 0.17303 0.44343 0.0
C739 C 0.93265 0.17359 0.45431 0.0
C740 C 0.96605 0.20404 0.45279 0.0
C741 C 1.00546 0.19795 0.46778 0.0
C742 C 0.03694 0.20285 0.43975 0.0
C743 C 0.02398 0.22226 0.4996 0.0
C744 C 0.98885 0.15946 0.47841 0.0
C745 C 0.94684 0.14582 0.47017 0.0
C746 C 0.92432 0.11128 0.47876 0.0
C747 C 0.94516 0.09031 0.49679 0.0
C748 C 0.98807 0.10399 0.50609 0.0
C749 C 1.01016 0.13886 0.49621 0.0
H750 H 0.34084 0.64249 0.18304 0.0
H751 H 0.31936 0.74403 0.19288 0.0
H752 H 0.25196 0.72025 0.15995 0.0
H753 H 0.29669 0.62383 0.09566 0.0
H754 H 0.27317 0.5769 0.10184 0.0
H755 H 0.31887 0.60072 0.12817 0.0
H756 H 0.28077 0.57893 0.18431 0.0
H757 H 0.23499 0.5549 0.15811 0.0
H758 H 0.23236 0.58685 0.19013 0.0
H759 H 0.18855 0.68722 0.12377 0.0
H760 H 0.13212 0.64631 0.08684 0.0
H761 H 0.19202 0.56489 0.09913 0.0
C762 C 0.32158 0.65947 0.17874 0.0
C763 C 0.33564 0.6953 0.19066 0.0
C764 C 0.30964 0.71671 0.18391 0.0
C765 C 0.27114 0.70337 0.16528 0.0
C766 C 0.25857 0.66835 0.15334 0.0
C767 C 0.2828 0.64653 0.15984 0.0
C768 C 0.26215 0.61022 0.14278 0.0
C769 C 0.28935 0.60247 0.11549 0.0
C770 C 0.25196 0.58099 0.17049 0.0
C771 C 0.22286 0.61527 0.12547 0.0
C772 C 0.22158 0.64907 0.13214 0.0
C773 C 0.18915 0.66066 0.11853 0.0
C774 C 0.15726 0.63727 0.09752 0.0
C775 C 0.15769 0.60254 0.0901 0.0
C776 C 0.19086 0.59129 0.10448 0.0
H777 H 0.31976 0.47362 0.72782 0.0
H778 H 0.262 0.36783 0.68525 0.0
H779 H 0.31074 0.38127 0.63798 0.0
H780 H 0.34177 0.51953 0.64327 0.0
H781 H 0.3908 0.54922 0.65999 0.0
H782 H 0.34941 0.53248 0.68871 0.0
H783 H 0.39732 0.50843 0.73011 0.0
H784 H 0.43873 0.52524 0.70152 0.0
H785 H 0.42247 0.47897 0.713 0.0
H786 H 0.37079 0.40475 0.59844 0.0
H787 H 0.43327 0.43716 0.56815 0.0
H788 H 0.45073 0.52864 0.63509 0.0
C789 C 0.31677 0.45356 0.70807 0.0
C790 C 0.2867 0.41965 0.71008 0.0
C791 C 0.2844 0.39401 0.68403 0.0
C792 C 0.31211 0.40142 0.65717 0.0
C793 C 0.34199 0.4348 0.65638 0.0
C794 C 0.34412 0.46064 0.68094 0.0
C795 C 0.38005 0.49392 0.675 0.0
C796 C 0.36453 0.52566 0.66622 0.0
C797 C 0.41149 0.5021 0.7068 0.0
C798 C 0.39811 0.48273 0.64357 0.0
C799 C 0.37581 0.44848 0.63328 0.0
C800 C 0.388 0.43175 0.60604 0.0
C801 C 0.42369 0.45039 0.58897 0.0
C802 C 0.44688 0.48567 0.59879 0.0
C803 C 0.43344 0.50197 0.62639 0.0
H804 H 0.71726 0.66605 0.95472 0.0
H805 H 0.7368 0.72334 0.85737 0.0
H806 H 0.79239 0.69791 0.84579 0.0
H807 H 0.81781 0.68046 0.9803 0.0
H808 H 0.8123 0.63767 0.99952 0.0
H809 H 0.76926 0.65474 0.9968 0.0
H810 H 0.72423 0.59829 0.96307 0.0
H811 H 0.7672 0.58083 0.9659 0.0
H812 H 0.74223 0.58501 0.92394 0.0
H813 H 0.85396 0.67547 0.85077 0.0
H814 H 0.91334 0.65489 0.87016 0.0
H815 H 0.85132 0.61 0.96283 0.0
C816 C 0.73214 0.67195 0.93031 0.0
C817 C 0.72252 0.69612 0.90666 0.0
C818 C 0.74333 0.70429 0.87544 0.0
C819 C 0.77496 0.69004 0.86873 0.0
C820 C 0.78475 0.66713 0.89321 0.0
C821 C 0.76337 0.65761 0.92308 0.0
C822 C 0.78229 0.63533 0.94687 0.0
C823 C 0.79625 0.65314 0.98298 0.0
C824 C 0.75219 0.59762 0.95012 0.0
C825 C 0.81882 0.63524 0.9266 0.0
C826 C 0.8196 0.65342 0.89555 0.0
C827 C 0.85303 0.66027 0.87449 0.0
C828 C 0.88665 0.64864 0.8857 0.0
C829 C 0.88641 0.63024 0.91756 0.0
C830 C 0.85163 0.62289 0.93775 0.0
H831 H 0.41971 0.81945 0.18607 0.0
H832 H 0.5269 0.78333 0.20544 0.0
H833 H 0.57068 0.83867 0.18042 0.0
H834 H 0.44933 0.86134 0.10289 0.0
H835 H 0.43028 0.89807 0.11012 0.0
H836 H 0.40668 0.85585 0.13011 0.0
H837 H 0.42002 0.88606 0.19102 0.0
H838 H 0.44348 0.92839 0.17122 0.0
H839 H 0.47176 0.91242 0.20541 0.0
H840 H 0.60325 0.89707 0.15203 0.0
H841 H 0.62324 0.95578 0.12456 0.0
H842 H 0.49617 0.95647 0.12253 0.0
C843 C 0.45236 0.823 0.18497 0.0
C844 C 0.46955 0.79651 0.19819 0.0
C845 C 0.51268 0.80297 0.19636 0.0
C846 C 0.5379 0.83437 0.1818 0.0
C847 C 0.51994 0.85956 0.16893 0.0
C848 C 0.47818 0.8544 0.17043 0.0
C849 C 0.467 0.88608 0.15473 0.0
C850 C 0.43651 0.87464 0.12256 0.0
C851 C 0.44953 0.90432 0.18224 0.0
C852 C 0.50903 0.90987 0.14431 0.0
C853 C 0.53895 0.89373 0.15265 0.0
C854 C 0.58007 0.90993 0.14553 0.0
C855 C 0.59112 0.94346 0.12984 0.0
C856 C 0.56149 0.96109 0.12125 0.0
C857 C 0.51966 0.94382 0.12857 0.0
H858 H 0.09325 0.29748 0.69538 0.0
H859 H 0.14328 0.26375 0.79129 0.0
H860 H 0.12725 0.20312 0.76646 0.0
H861 H 1.00725 0.21356 0.67957 0.0
H862 H 1.01039 0.21585 0.63285 0.0
H863 H 0.02501 0.25606 0.65858 0.0
H864 H 0.09658 0.27542 0.63242 0.0
H865 H 0.08232 0.23505 0.60697 0.0
H866 H 0.12822 0.2465 0.6361 0.0
H867 H 0.11227 0.14677 0.72764 0.0
H868 H 0.08937 0.09836 0.68336 0.0
H869 H 0.04168 0.16581 0.61462 0.0
C870 C 0.09986 0.27707 0.7115 0.0
C871 C 0.11905 0.28556 0.74579 0.0
C872 C 0.1279 0.25804 0.76547 0.0
C873 C 0.11923 0.22348 0.7513 0.0
C874 C 0.10097 0.21616 0.71732 0.0
C875 C 0.09041 0.24205 0.69799 0.0
C876 C 0.07026 0.2271 0.66233 0.0
C877 C 0.02557 0.22821 0.65809 0.0
C878 C 0.09587 0.24722 0.63271 0.0
C879 C 0.07139 0.18892 0.66438 0.0
C880 C 0.09002 0.18335 0.69608 0.0
C881 C 0.09701 0.15088 0.70308 0.0
C882 C 0.08407 0.12344 0.67761 0.0
C883 C 0.06328 0.12783 0.64549 0.0
C884 C 0.05698 0.16126 0.63902 0.0
H885 H 0.85448 0.34385 0.46 0.0
H886 H 0.94812 0.44683 0.45972 0.0
H887 H 0.89344 0.47592 0.45534 0.0
H888 H 0.77764 0.36773 0.39884 0.0
H889 H 0.7347 0.34067 0.42192 0.0
H890 H 0.78115 0.32827 0.42081 0.0
H891 H 0.78688 0.32709 0.48848 0.0
H892 H 0.74075 0.33969 0.48982 0.0
H893 H 0.78795 0.36603 0.51277 0.0
H894 H 0.82923 0.49354 0.45876 0.0
H895 H 0.76066 0.49863 0.4685 0.0
H896 H 0.70817 0.38385 0.46312 0.0
C897 C 0.86327 0.37249 0.45839 0.0
C898 C 0.90526 0.39327 0.46054 0.0
C899 C 0.91597 0.43062 0.45835 0.0
C900 C 0.88518 0.44728 0.45571 0.0
C901 C 0.84393 0.42608 0.45459 0.0
C902 C 0.83293 0.38947 0.45544 0.0
C903 C 0.78656 0.37286 0.4559 0.0
C904 C 0.76897 0.3511 0.42237 0.0
C905 C 0.77488 0.35009 0.4887 0.0
C906 C 0.77333 0.40587 0.45697 0.0
C907 C 0.80679 0.43629 0.45569 0.0
C908 C 0.80265 0.46993 0.45901 0.0
C909 C 0.76341 0.47254 0.46437 0.0
C910 C 0.72874 0.44167 0.46648 0.0
C911 C 0.73392 0.40801 0.46187 0.0
loop_
_geom_bond_atom_site_label_1
_geom_bond_atom_site_label_2
_geom_bond_distance
_geom_bond_site_symmetry_2
_ccdc_geom_bond_type
H0 C7 0.929 . S
H1 C10 0.930 . S
H2 C12 0.929 . S
H3 C4 0.969 . S
C4 H3 0.969 . S
C4 O5 1.550 . S
C4 H6 0.973 . S
O5 C4 1.550 . S
O5 C11 1.412 . S
H6 C4 0.973 . S
C7 H0 0.929 . S
C7 C8 1.400 . S
C7 C9 1.364 . S
C8 C7 1.400 . S
C8 C12 1.377 . S
C9 C7 1.364 . S
C9 C10 1.374 . S
C10 H1 0.930 . S
C10 C9 1.374 . S
C10 C11 1.383 . S
C11 O5 1.412 . S
C11 C10 1.383 . S
C11 C12 1.394 . S
C12 H2 0.929 . S
C12 C8 1.377 . S
C12 C11 1.394 . S
H13 C20 0.929 . S
H14 C23 0.930 . S
H15 C25 0.929 . S
H16 C17 0.969 . S
C17 H16 0.969 . S
C17 O18 1.550 . S
C17 H19 0.973 . S
O18 C17 1.550 . S
O18 C24 1.412 . S
H19 C17 0.973 . S
C20 H13 0.929 . S
C20 C21 1.400 . S
C20 C22 1.364 . S
C21 C20 1.400 . S
C21 C25 1.377 . S
C22 C20 1.364 . S
C22 C23 1.374 . S
C23 H14 0.930 . S
C23 C22 1.374 . S
C23 C24 1.383 . S
C24 O18 1.412 . S
C24 C23 1.383 . S
C24 C25 1.394 . S
C25 H15 0.929 . S
C25 C21 1.377 . S
C25 C24 1.394 . S
H26 C33 0.929 . S
H27 C36 0.930 . S
H28 C38 0.929 . S
H29 C30 0.969 . S
C30 H29 0.969 . S
C30 O31 1.550 . S
C30 H32 0.973 . S
O31 C30 1.550 . S
O31 C37 1.412 . S
H32 C30 0.973 . S
C33 H26 0.929 . S
C33 C34 1.400 . S
C33 C35 1.364 . S
C34 C33 1.400 . S
C34 C38 1.377 . S
C35 C33 1.364 . S
C35 C36 1.374 . S
C36 H27 0.930 . S
C36 C35 1.374 . S
C36 C37 1.383 . S
C37 O31 1.412 . S
C37 C36 1.383 . S
C37 C38 1.394 . S
C38 H28 0.929 . S
C38 C34 1.377 . S
C38 C37 1.394 . S
H39 C46 0.929 . S
H40 C49 0.930 . S
H41 C51 0.929 . S
H42 C43 0.969 . S
C43 H42 0.969 . S
C43 O44 1.550 . S
C43 H45 0.973 . S
O44 C43 1.550 . S
O44 C50 1.412 . S
H45 C43 0.973 . S
C46 H39 0.929 . S
C46 C47 1.400 . S
C46 C48 1.364 . S
C47 C46 1.400 . S
C47 C51 1.377 . S
C48 C46 1.364 . S
C48 C49 1.374 . S
C49 H40 0.930 . S
C49 C48 1.374 . S
C49 C50 1.383 . S
C50 O44 1.412 . S
C50 C49 1.383 . S
C50 C51 1.394 . S
C51 H41 0.929 . S
C51 C47 1.377 . S
C51 C50 1.394 . S
H52 C59 0.929 . S
H53 C62 0.930 . S
H54 C64 0.929 . S
H55 C56 0.969 . S
C56 H55 0.969 . S
C56 O57 1.550 . S
C56 H58 0.973 . S
O57 C56 1.550 . S
O57 C63 1.412 . S
H58 C56 0.973 . S
C59 H52 0.929 . S
C59 C60 1.400 . S
C59 C61 1.364 . S
C60 C59 1.400 . S
C60 C64 1.377 . S
C61 C59 1.364 . S
C61 C62 1.374 . S
C62 H53 0.930 . S
C62 C61 1.374 . S
C62 C63 1.383 . S
C63 O57 1.412 . S
C63 C62 1.383 . S
C63 C64 1.394 . S
C64 H54 0.929 . S
C64 C60 1.377 . S
C64 C63 1.394 . S
H65 C72 0.929 . S
H66 C75 0.930 . S
H67 C77 0.929 . S
H68 C69 0.969 . S
C69 H68 0.969 . S
C69 O70 1.550 . S
C69 H71 0.973 . S
O70 C69 1.550 . S
O70 C76 1.412 . S
H71 C69 0.973 . S
C72 H65 0.929 . S
C72 C73 1.400 . S
C72 C74 1.364 . S
C73 C72 1.400 . S
C73 C77 1.377 . S
C74 C72 1.364 . S
C74 C75 1.374 . S
C75 H66 0.930 . S
C75 C74 1.374 . S
C75 C76 1.383 . S
C76 O70 1.412 . S
C76 C75 1.383 . S
C76 C77 1.394 . S
C77 H67 0.929 . S
C77 C73 1.377 . S
C77 C76 1.394 . S
H78 C85 0.929 . S
H79 C88 0.930 . S
H80 C90 0.929 . S
H81 C82 0.969 . S
C82 H81 0.969 . S
C82 O83 1.550 . S
C82 H84 0.973 . S
O83 C82 1.550 . S
O83 C89 1.412 . S
H84 C82 0.973 . S
C85 H78 0.929 . S
C85 C86 1.400 . S
C85 C87 1.364 . S
C86 C85 1.400 . S
C86 C90 1.377 . S
C87 C85 1.364 . S
C87 C88 1.374 . S
C88 H79 0.930 . S
C88 C87 1.374 . S
C88 C89 1.383 . S
C89 O83 1.412 . S
C89 C88 1.383 . S
C89 C90 1.394 . S
C90 H80 0.929 . S
C90 C86 1.377 . S
C90 C89 1.394 . S
H91 C98 0.929 . S
H92 C101 0.930 . S
H93 C103 0.929 . S
H94 C95 0.969 . S
C95 H94 0.969 . S
C95 O96 1.550 . S
C95 H97 0.973 . S
O96 C95 1.550 . S
O96 C102 1.412 . S
H97 C95 0.973 . S
C98 H91 0.929 . S
C98 C99 1.400 . S
C98 C100 1.364 . S
C99 C98 1.400 . S
C99 C103 1.377 . S
C100 C98 1.364 . S
C100 C101 1.374 . S
C101 H92 0.930 . S
C101 C100 1.374 . S
C101 C102 1.383 . S
C102 O96 1.412 . S
C102 C101 1.383 . S
C102 C103 1.394 . S
C103 H93 0.929 . S
C103 C99 1.377 . S
C103 C102 1.394 . S
Tb104 C106 2.809 1_545 S
Tb104 O124 2.484 1_545 S
Tb104 O125 2.440 1_545 S
Tb104 O126 2.658 1_655 S
Tb104 O127 2.409 1_655 S
Tb104 O128 2.378 1_645 S
Tb104 O132 2.325 1_545 S
Tb104 O135 2.341 . S
Tb105 C115 2.809 . S
Tb105 O126 2.325 . S
Tb105 O129 2.341 1_545 S
Tb105 O130 2.484 . S
Tb105 O131 2.440 . S
Tb105 O132 2.658 1_445 S
Tb105 O133 2.409 1_545 S
Tb105 O134 2.378 . S
C106 Tb104 2.809 1_565 S
C106 C107 1.514 . S
C106 O124 1.248 . S
C106 O125 1.266 . S
C107 C106 1.514 . S
C107 C108 1.359 . S
C107 C112 1.348 . S
C108 C107 1.359 . S
C108 C109 1.380 . S
C108 H136 0.929 . S
C109 C108 1.380 . S
C109 C110 1.347 . S
C109 H137 0.931 . S
C110 C109 1.347 . S
C110 C111 1.369 . S
C111 C110 1.369 . S
C111 C112 1.408 . S
C111 H138 0.930 . S
C112 C107 1.348 . S
C112 C111 1.408 . S
C112 H139 0.930 . S
C113 O126 1.281 . S
C113 O127 1.254 . S
C114 O128 1.236 . S
C114 O129 1.266 . S
C115 Tb105 2.809 . S
C115 C116 1.514 . S
C115 O130 1.248 . S
C115 O131 1.266 . S
C116 C115 1.514 . S
C116 C117 1.359 . S
C116 C121 1.348 . S
C117 C116 1.359 . S
C117 C118 1.380 . S
C117 H140 0.929 . S
C118 C117 1.380 . S
C118 C119 1.347 . S
C118 H141 0.931 . S
C119 C118 1.347 . S
C119 C120 1.369 . S
C120 C119 1.369 . S
C120 C121 1.408 . S
C120 H142 0.930 . S
C121 C116 1.348 . S
C121 C120 1.408 . S
C121 H143 0.930 . S
C122 O132 1.281 . S
C122 O133 1.254 1_655 S
C123 O134 1.236 1_655 S
C123 O135 1.266 . S
O124 Tb104 2.484 1_565 S
O124 C106 1.248 . S
O125 Tb104 2.440 1_565 S
O125 C106 1.266 . S
O126 Tb104 2.658 1_455 S
O126 Tb105 2.325 . S
O126 C113 1.281 . S
O127 Tb104 2.409 1_455 S
O127 C113 1.254 . S
O128 Tb104 2.378 1_465 S
O128 C114 1.236 . S
O129 Tb105 2.341 1_565 S
O129 C114 1.266 . S
O130 Tb105 2.484 . S
O130 C115 1.248 . S
O131 Tb105 2.440 . S
O131 C115 1.266 . S
O132 Tb104 2.325 1_565 S
O132 Tb105 2.658 1_665 S
O132 C122 1.281 . S
O133 Tb105 2.409 1_565 S
O133 C122 1.254 1_455 S
O134 Tb105 2.378 . S
O134 C123 1.236 1_455 S
O135 Tb104 2.341 . S
O135 C123 1.266 . S
H136 C108 0.929 . S
H137 C109 0.931 . S
H138 C111 0.930 . S
H139 C112 0.930 . S
H140 C117 0.929 . S
H141 C118 0.931 . S
H142 C120 0.930 . S
H143 C121 0.930 . S
Tb144 C146 2.809 . S
Tb144 O164 2.484 . S
Tb144 O165 2.440 . S
Tb144 O166 2.658 1_545 S
Tb144 O167 2.409 1_545 S
Tb144 O168 2.378 . S
Tb144 O172 2.325 1_554 S
Tb144 O175 2.341 1_544 S
Tb145 C155 2.809 1_545 S
Tb145 O166 2.325 1_546 S
Tb145 O169 2.341 1_556 S
Tb145 O170 2.484 1_545 S
Tb145 O171 2.440 1_545 S
Tb145 O172 2.658 . S
Tb145 O173 2.409 . S
Tb145 O174 2.378 1_545 S
C146 Tb144 2.809 . S
C146 C147 1.514 . S
C146 O164 1.248 . S
C146 O165 1.266 . S
C147 C146 1.514 . S
C147 C148 1.359 . S
C147 C152 1.348 . S
C148 C147 1.359 . S
C148 C149 1.380 . S
C148 H176 0.929 . S
C149 C148 1.380 . S
C149 C150 1.347 . S
C149 H177 0.931 . S
C150 C149 1.347 . S
C150 C151 1.369 . S
C151 C150 1.369 . S
C151 C152 1.408 . S
C151 H178 0.930 . S
C152 C147 1.348 . S
C152 C151 1.408 . S
C152 H179 0.930 . S
C153 O166 1.281 . S
C153 O167 1.254 . S
C154 O168 1.236 . S
C154 O169 1.266 . S
C155 Tb145 2.809 1_565 S
C155 C156 1.514 . S
C155 O170 1.248 . S
C155 O171 1.266 . S
C156 C155 1.514 . S
C156 C157 1.359 . S
C156 C161 1.348 . S
C157 C156 1.359 . S
C157 C158 1.380 . S
C157 H180 0.929 . S
C158 C157 1.380 . S
C158 C159 1.347 . S
C158 H181 0.931 . S
C159 C158 1.347 . S
C159 C160 1.369 . S
C160 C159 1.369 . S
C160 C161 1.408 . S
C160 H182 0.930 . S
C161 C156 1.348 . S
C161 C160 1.408 . S
C161 H183 0.930 . S
C162 O172 1.281 . S
C162 O173 1.254 . S
C163 O174 1.236 . S
C163 O175 1.266 . S
O164 Tb144 2.484 . S
O164 C146 1.248 . S
O165 Tb144 2.440 . S
O165 C146 1.266 . S
O166 Tb144 2.658 1_565 S
O166 Tb145 2.325 1_564 S
O166 C153 1.281 . S
O167 Tb144 2.409 1_565 S
O167 C153 1.254 . S
O168 Tb144 2.378 . S
O168 C154 1.236 . S
O169 Tb145 2.341 1_554 S
O169 C154 1.266 . S
O170 Tb145 2.484 1_565 S
O170 C155 1.248 . S
O171 Tb145 2.440 1_565 S
O171 C155 1.266 . S
O172 Tb144 2.325 1_556 S
O172 Tb145 2.658 . S
O172 C162 1.281 . S
O173 Tb145 2.409 . S
O173 C162 1.254 . S
O174 Tb145 2.378 1_565 S
O174 C163 1.236 . S
O175 Tb144 2.341 1_566 S
O175 C163 1.266 . S
H176 C148 0.929 . S
H177 C149 0.931 . S
H178 C151 0.930 . S
H179 C152 0.930 . S
H180 C157 0.929 . S
H181 C158 0.931 . S
H182 C160 0.930 . S
H183 C161 0.930 . S
Tb184 C186 2.809 . S
Tb184 O204 2.484 . S
Tb184 O205 2.440 . S
Tb184 O206 2.658 . S
Tb184 O207 2.409 . S
Tb184 O208 2.378 . S
Tb184 O212 2.325 . S
Tb184 O215 2.341 . S
Tb185 C195 2.809 . S
Tb185 O206 2.325 . S
Tb185 O209 2.341 . S
Tb185 O210 2.484 . S
Tb185 O211 2.440 . S
Tb185 O212 2.658 . S
Tb185 O213 2.409 . S
Tb185 O214 2.378 . S
C186 Tb184 2.809 . S
C186 C187 1.514 . S
C186 O204 1.248 . S
C186 O205 1.266 . S
C187 C186 1.514 . S
C187 C188 1.359 . S
C187 C192 1.348 . S
C188 C187 1.359 . S
C188 C189 1.380 . S
C188 H216 0.929 . S
C189 C188 1.380 . S
C189 C190 1.347 . S
C189 H217 0.931 . S
C190 C189 1.347 . S
C190 C191 1.369 . S
C191 C190 1.369 . S
C191 C192 1.408 . S
C191 H218 0.930 . S
C192 C187 1.348 . S
C192 C191 1.408 . S
C192 H219 0.930 . S
C193 O206 1.281 . S
C193 O207 1.254 . S
C194 O208 1.236 . S
C194 O209 1.266 . S
C195 Tb185 2.809 . S
C195 C196 1.514 . S
C195 O210 1.248 . S
C195 O211 1.266 . S
C196 C195 1.514 . S
C196 C197 1.359 . S
C196 C201 1.348 . S
C197 C196 1.359 . S
C197 C198 1.380 . S
C197 H220 0.929 . S
C198 C197 1.380 . S
C198 C199 1.347 . S
C198 H221 0.931 . S
C199 C198 1.347 . S
C199 C200 1.369 . S
C200 C199 1.369 . S
C200 C201 1.408 . S
C200 H222 0.930 . S
C201 C196 1.348 . S
C201 C200 1.408 . S
C201 H223 0.930 . S
C202 O212 1.281 . S
C202 O213 1.254 . S
C203 O214 1.236 . S
C203 O215 1.266 . S
O204 Tb184 2.484 . S
O204 C186 1.248 . S
O205 Tb184 2.440 . S
O205 C186 1.266 . S
O206 Tb184 2.658 . S
O206 Tb185 2.325 . S
O206 C193 1.281 . S
O207 Tb184 2.409 . S
O207 C193 1.254 . S
O208 Tb184 2.378 . S
O208 C194 1.236 . S
O209 Tb185 2.341 . S
O209 C194 1.266 . S
O210 Tb185 2.484 . S
O210 C195 1.248 . S
O211 Tb185 2.440 . S
O211 C195 1.266 . S
O212 Tb184 2.325 . S
O212 Tb185 2.658 . S
O212 C202 1.281 . S
O213 Tb185 2.409 . S
O213 C202 1.254 . S
O214 Tb185 2.378 . S
O214 C203 1.236 . S
O215 Tb184 2.341 . S
O215 C203 1.266 . S
H216 C188 0.929 . S
H217 C189 0.931 . S
H218 C191 0.930 . S
H219 C192 0.930 . S
H220 C197 0.929 . S
H221 C198 0.931 . S
H222 C200 0.930 . S
H223 C201 0.930 . S
Tb224 C226 2.809 1_455 S
Tb224 O244 2.484 1_455 S
Tb224 O245 2.440 . S
Tb224 O246 2.658 . S
Tb224 O247 2.409 . S
Tb224 O248 2.378 1_455 S
Tb224 O252 2.325 1_455 S
Tb224 O255 2.341 1_554 S
Tb225 C235 2.809 . S
Tb225 O246 2.325 . S
Tb225 O249 2.341 1_455 S
Tb225 O250 2.484 . S
Tb225 O251 2.440 . S
Tb225 O252 2.658 1_455 S
Tb225 O253 2.409 1_455 S
Tb225 O254 2.378 . S
C226 Tb224 2.809 1_655 S
C226 C227 1.514 . S
C226 O244 1.248 . S
C226 O245 1.266 1_655 S
C227 C226 1.514 . S
C227 C228 1.358 1_554 S
C227 C232 1.349 . S
C228 C227 1.358 1_556 S
C228 C229 1.380 . S
C228 H256 0.929 . S
C229 C228 1.380 . S
C229 C230 1.347 . S
C229 H257 0.931 . S
C230 C229 1.347 . S
C230 C231 1.369 . S
C231 C230 1.369 . S
C231 C232 1.408 1_556 S
C231 H258 0.930 . S
C232 C227 1.349 . S
C232 C231 1.408 1_554 S
C232 H259 0.930 . S
C233 O246 1.281 . S
C233 O247 1.254 . S
C234 O248 1.236 . S
C234 O249 1.266 . S
C235 Tb225 2.809 . S
C235 C236 1.514 . S
C235 O250 1.248 . S
C235 O251 1.266 . S
C236 C235 1.514 . S
C236 C237 1.359 . S
C236 C241 1.348 . S
C237 C236 1.359 . S
C237 C238 1.380 . S
C237 H260 0.929 . S
C238 C237 1.380 . S
C238 C239 1.347 . S
C238 H261 0.931 . S
C239 C238 1.347 . S
C239 C240 1.369 . S
C240 C239 1.369 . S
C240 C241 1.408 . S
C240 H262 0.930 . S
C241 C236 1.348 . S
C241 C240 1.408 . S
C241 H263 0.930 . S
C242 O252 1.281 . S
C242 O253 1.254 . S
C243 O254 1.236 . S
C243 O255 1.266 1_554 S
O244 Tb224 2.484 1_655 S
O244 C226 1.248 . S
O245 Tb224 2.440 . S
O245 C226 1.266 1_455 S
O246 Tb224 2.658 . S
O246 Tb225 2.325 . S
O246 C233 1.281 . S
O247 Tb224 2.409 . S
O247 C233 1.254 . S
O248 Tb224 2.378 1_655 S
O248 C234 1.236 . S
O249 Tb225 2.341 1_655 S
O249 C234 1.266 . S
O250 Tb225 2.484 . S
O250 C235 1.248 . S
O251 Tb225 2.440 . S
O251 C235 1.266 . S
O252 Tb224 2.325 1_655 S
O252 Tb225 2.658 1_655 S
O252 C242 1.281 . S
O253 Tb225 2.409 1_655 S
O253 C242 1.254 . S
O254 Tb225 2.378 . S
O254 C243 1.236 . S
O255 Tb224 2.341 1_556 S
O255 C243 1.266 1_556 S
H256 C228 0.929 . S
H257 C229 0.931 . S
H258 C231 0.930 . S
H259 C232 0.930 . S
H260 C237 0.929 . S
H261 C238 0.931 . S
H262 C240 0.930 . S
H263 C241 0.930 . S
H264 C276 0.930 . S
H265 C278 0.930 . S
H266 C279 0.930 . S
H267 C283 0.959 . S
H268 C283 0.959 . S
H269 C283 0.961 . S
H270 C284 0.960 . S
H271 C284 0.961 . S
H272 C284 0.959 . S
H273 C287 0.929 . S
H274 C288 0.931 . S
H275 C290 0.930 . S
C276 H264 0.930 . S
C276 C277 1.399 . S
C276 C281 1.399 . S
C277 C276 1.399 . S
C277 C278 1.376 . S
C278 H265 0.930 . S
C278 C277 1.376 . S
C278 C279 1.388 . S
C279 H266 0.930 . S
C279 C278 1.388 . S
C279 C280 1.390 . S
C280 C279 1.390 . S
C280 C281 1.394 . S
C280 C286 1.465 . S
C281 C276 1.399 . S
C281 C280 1.394 . S
C281 C282 1.516 . S
C282 C281 1.516 . S
C282 C283 1.502 . S
C282 C284 1.561 . S
C282 C285 1.526 . S
C283 H267 0.959 . S
C283 H268 0.959 . S
C283 H269 0.961 . S
C283 C282 1.502 . S
C284 H270 0.960 . S
C284 H271 0.961 . S
C284 H272 0.959 . S
C284 C282 1.561 . S
C285 C282 1.526 . S
C285 C286 1.396 . S
C285 C290 1.390 . S
C286 C280 1.465 . S
C286 C285 1.396 . S
C286 C287 1.399 . S
C287 H273 0.929 . S
C287 C286 1.399 . S
C287 C288 1.385 . S
C288 H274 0.931 . S
C288 C287 1.385 . S
C288 C289 1.389 . S
C289 C288 1.389 . S
C289 C290 1.387 . S
C290 H275 0.930 . S
C290 C285 1.390 . S
C290 C289 1.387 . S
H291 C303 0.930 . S
H292 C305 0.930 . S
H293 C306 0.930 . S
H294 C310 0.959 . S
H295 C310 0.959 . S
H296 C310 0.961 . S
H297 C311 0.960 . S
H298 C311 0.961 . S
H299 C311 0.959 . S
H300 C314 0.929 . S
H301 C315 0.931 . S
H302 C317 0.930 . S
C303 H291 0.930 . S
C303 C304 1.399 . S
C303 C308 1.399 . S
C304 C303 1.399 . S
C304 C305 1.376 . S
C305 H292 0.930 . S
C305 C304 1.376 . S
C305 C306 1.388 . S
C306 H293 0.930 . S
C306 C305 1.388 . S
C306 C307 1.390 . S
C307 C306 1.390 . S
C307 C308 1.394 . S
C307 C313 1.465 . S
C308 C303 1.399 . S
C308 C307 1.394 . S
C308 C309 1.516 . S
C309 C308 1.516 . S
C309 C310 1.502 . S
C309 C311 1.561 . S
C309 C312 1.526 . S
C310 H294 0.959 . S
C310 H295 0.959 . S
C310 H296 0.961 . S
C310 C309 1.502 . S
C311 H297 0.960 . S
C311 H298 0.961 . S
C311 H299 0.959 . S
C311 C309 1.561 . S
C312 C309 1.526 . S
C312 C313 1.396 . S
C312 C317 1.390 . S
C313 C307 1.465 . S
C313 C312 1.396 . S
C313 C314 1.399 . S
C314 H300 0.929 . S
C314 C313 1.399 . S
C314 C315 1.385 . S
C315 H301 0.931 . S
C315 C314 1.385 . S
C315 C316 1.389 . S
C316 C315 1.389 . S
C316 C317 1.387 . S
C317 H302 0.930 . S
C317 C312 1.390 . S
C317 C316 1.387 . S
H318 C330 0.930 . S
H319 C332 0.930 . S
H320 C333 0.930 . S
H321 C337 0.959 . S
H322 C337 0.959 . S
H323 C337 0.961 . S
H324 C338 0.960 . S
H325 C338 0.961 . S
H326 C338 0.959 . S
H327 C341 0.929 . S
H328 C342 0.931 . S
H329 C344 0.930 . S
C330 H318 0.930 . S
C330 C331 1.399 . S
C330 C335 1.399 . S
C331 C330 1.399 . S
C331 C332 1.376 . S
C332 H319 0.930 . S
C332 C331 1.376 . S
C332 C333 1.388 . S
C333 H320 0.930 . S
C333 C332 1.388 . S
C333 C334 1.390 . S
C334 C333 1.390 . S
C334 C335 1.394 . S
C334 C340 1.465 . S
C335 C330 1.399 . S
C335 C334 1.394 . S
C335 C336 1.516 . S
C336 C335 1.516 . S
C336 C337 1.502 . S
C336 C338 1.561 . S
C336 C339 1.526 . S
C337 H321 0.959 . S
C337 H322 0.959 . S
C337 H323 0.961 . S
C337 C336 1.502 . S
C338 H324 0.960 . S
C338 H325 0.961 . S
C338 H326 0.959 . S
C338 C336 1.561 . S
C339 C336 1.526 . S
C339 C340 1.396 . S
C339 C344 1.390 . S
C340 C334 1.465 . S
C340 C339 1.396 . S
C340 C341 1.399 . S
C341 H327 0.929 . S
C341 C340 1.399 . S
C341 C342 1.385 . S
C342 H328 0.931 . S
C342 C341 1.385 . S
C342 C343 1.389 . S
C343 C342 1.389 . S
C343 C344 1.387 . S
C344 H329 0.930 . S
C344 C339 1.390 . S
C344 C343 1.387 . S
H345 C357 0.930 . S
H346 C359 0.930 . S
H347 C360 0.930 . S
H348 C364 0.959 . S
H349 C364 0.959 . S
H350 C364 0.961 . S
H351 C365 0.960 . S
H352 C365 0.961 . S
H353 C365 0.959 . S
H354 C368 0.929 . S
H355 C369 0.931 . S
H356 C371 0.930 . S
C357 H345 0.930 . S
C357 C358 1.399 . S
C357 C362 1.399 . S
C358 C357 1.399 . S
C358 C359 1.376 . S
C359 H346 0.930 . S
C359 C358 1.376 . S
C359 C360 1.388 . S
C360 H347 0.930 . S
C360 C359 1.388 . S
C360 C361 1.390 . S
C361 C360 1.390 . S
C361 C362 1.394 . S
C361 C367 1.465 . S
C362 C357 1.399 . S
C362 C361 1.394 . S
C362 C363 1.516 . S
C363 C362 1.516 . S
C363 C364 1.502 . S
C363 C365 1.561 . S
C363 C366 1.526 . S
C364 H348 0.959 . S
C364 H349 0.959 . S
C364 H350 0.961 . S
C364 C363 1.502 . S
C365 H351 0.960 . S
C365 H352 0.961 . S
C365 H353 0.959 . S
C365 C363 1.561 . S
C366 C363 1.526 . S
C366 C367 1.396 . S
C366 C371 1.390 . S
C367 C361 1.465 . S
C367 C366 1.396 . S
C367 C368 1.399 . S
C368 H354 0.929 . S
C368 C367 1.399 . S
C368 C369 1.385 . S
C369 H355 0.931 . S
C369 C368 1.385 . S
C369 C370 1.389 . S
C370 C369 1.389 . S
C370 C371 1.387 . S
C371 H356 0.930 . S
C371 C366 1.390 . S
C371 C370 1.387 . S
H372 C384 0.930 . S
H373 C386 0.930 . S
H374 C387 0.930 . S
H375 C391 0.959 . S
H376 C391 0.959 . S
H377 C391 0.961 . S
H378 C392 0.960 . S
H379 C392 0.961 . S
H380 C392 0.959 . S
H381 C395 0.929 . S
H382 C396 0.931 . S
H383 C398 0.930 . S
C384 H372 0.930 . S
C384 C385 1.399 . S
C384 C389 1.399 . S
C385 C384 1.399 . S
C385 C386 1.376 . S
C386 H373 0.930 . S
C386 C385 1.376 . S
C386 C387 1.388 . S
C387 H374 0.930 . S
C387 C386 1.388 . S
C387 C388 1.390 . S
C388 C387 1.390 . S
C388 C389 1.394 . S
C388 C394 1.465 . S
C389 C384 1.399 . S
C389 C388 1.394 . S
C389 C390 1.516 . S
C390 C389 1.516 . S
C390 C391 1.502 . S
C390 C392 1.561 . S
C390 C393 1.526 . S
C391 H375 0.959 . S
C391 H376 0.959 . S
C391 H377 0.961 . S
C391 C390 1.502 . S
C392 H378 0.960 . S
C392 H379 0.961 . S
C392 H380 0.959 . S
C392 C390 1.561 . S
C393 C390 1.526 . S
C393 C394 1.396 . S
C393 C398 1.390 . S
C394 C388 1.465 . S
C394 C393 1.396 . S
C394 C395 1.399 . S
C395 H381 0.929 . S
C395 C394 1.399 . S
C395 C396 1.385 . S
C396 H382 0.931 . S
C396 C395 1.385 . S
C396 C397 1.389 . S
C397 C396 1.389 . S
C397 C398 1.387 . S
C398 H383 0.930 . S
C398 C393 1.390 . S
C398 C397 1.387 . S
H399 C411 0.930 . S
H400 C413 0.930 . S
H401 C414 0.930 . S
H402 C418 0.959 . S
H403 C418 0.959 . S
H404 C418 0.961 . S
H405 C419 0.960 . S
H406 C419 0.961 . S
H407 C419 0.959 . S
H408 C422 0.929 . S
H409 C423 0.931 . S
H410 C425 0.930 . S
C411 H399 0.930 . S
C411 C412 1.399 . S
C411 C416 1.399 . S
C412 C411 1.399 . S
C412 C413 1.376 . S
C413 H400 0.930 . S
C413 C412 1.376 . S
C413 C414 1.388 . S
C414 H401 0.930 . S
C414 C413 1.388 . S
C414 C415 1.390 . S
C415 C414 1.390 . S
C415 C416 1.394 . S
C415 C421 1.465 . S
C416 C411 1.399 . S
C416 C415 1.394 . S
C416 C417 1.516 . S
C417 C416 1.516 . S
C417 C418 1.502 . S
C417 C419 1.561 . S
C417 C420 1.526 . S
C418 H402 0.959 . S
C418 H403 0.959 . S
C418 H404 0.961 . S
C418 C417 1.502 . S
C419 H405 0.960 . S
C419 H406 0.961 . S
C419 H407 0.959 . S
C419 C417 1.561 . S
C420 C417 1.526 . S
C420 C421 1.396 . S
C420 C425 1.390 . S
C421 C415 1.465 . S
C421 C420 1.396 . S
C421 C422 1.399 . S
C422 H408 0.929 . S
C422 C421 1.399 . S
C422 C423 1.385 . S
C423 H409 0.931 . S
C423 C422 1.385 . S
C423 C424 1.389 . S
C424 C423 1.389 . S
C424 C425 1.387 . S
C425 H410 0.930 . S
C425 C420 1.390 . S
C425 C424 1.387 . S
H426 C438 0.930 . S
H427 C440 0.930 . S
H428 C441 0.930 . S
H429 C445 0.959 . S
H430 C445 0.959 . S
H431 C445 0.961 . S
H432 C446 0.960 . S
H433 C446 0.961 . S
H434 C446 0.959 . S
H435 C449 0.929 . S
H436 C450 0.931 . S
H437 C452 0.930 . S
C438 H426 0.930 . S
C438 C439 1.399 . S
C438 C443 1.399 . S
C439 C438 1.399 . S
C439 C440 1.376 . S
C440 H427 0.930 . S
C440 C439 1.376 . S
C440 C441 1.388 . S
C441 H428 0.930 . S
C441 C440 1.388 . S
C441 C442 1.390 . S
C442 C441 1.390 . S
C442 C443 1.394 . S
C442 C448 1.465 . S
C443 C438 1.399 . S
C443 C442 1.394 . S
C443 C444 1.516 . S
C444 C443 1.516 . S
C444 C445 1.502 . S
C444 C446 1.561 . S
C444 C447 1.526 . S
C445 H429 0.959 . S
C445 H430 0.959 . S
C445 H431 0.961 . S
C445 C444 1.502 . S
C446 H432 0.960 . S
C446 H433 0.961 . S
C446 H434 0.959 . S
C446 C444 1.561 . S
C447 C444 1.526 . S
C447 C448 1.396 . S
C447 C452 1.390 . S
C448 C442 1.465 . S
C448 C447 1.396 . S
C448 C449 1.399 . S
C449 H435 0.929 . S
C449 C448 1.399 . S
C449 C450 1.385 1_556 S
C450 H436 0.931 . S
C450 C449 1.385 1_554 S
C450 C451 1.389 1_554 S
C451 C450 1.389 1_556 S
C451 C452 1.387 . S
C452 H437 0.930 . S
C452 C447 1.390 . S
C452 C451 1.387 . S
H453 C465 0.930 . S
H454 C467 0.930 . S
H455 C468 0.930 . S
H456 C472 0.959 . S
H457 C472 0.959 . S
H458 C472 0.961 . S
H459 C473 0.960 . S
H460 C473 0.961 . S
H461 C473 0.959 . S
H462 C476 0.929 . S
H463 C477 0.931 . S
H464 C479 0.930 . S
C465 H453 0.930 . S
C465 C466 1.399 . S
C465 C470 1.399 . S
C466 C465 1.399 . S
C466 C467 1.376 . S
C467 H454 0.930 . S
C467 C466 1.376 . S
C467 C468 1.388 . S
C468 H455 0.930 . S
C468 C467 1.388 . S
C468 C469 1.390 . S
C469 C468 1.390 . S
C469 C470 1.394 . S
C469 C475 1.465 . S
C470 C465 1.399 . S
C470 C469 1.394 . S
C470 C471 1.516 . S
C471 C470 1.516 . S
C471 C472 1.502 . S
C471 C473 1.561 . S
C471 C474 1.526 . S
C472 H456 0.959 . S
C472 H457 0.959 . S
C472 H458 0.961 . S
C472 C471 1.502 . S
C473 H459 0.960 . S
C473 H460 0.961 . S
C473 H461 0.959 . S
C473 C471 1.561 . S
C474 C471 1.526 . S
C474 C475 1.396 . S
C474 C479 1.390 . S
C475 C469 1.465 . S
C475 C474 1.396 . S
C475 C476 1.399 . S
C476 H462 0.929 . S
C476 C475 1.399 . S
C476 C477 1.385 . S
C477 H463 0.931 . S
C477 C476 1.385 . S
C477 C478 1.389 . S
C478 C477 1.389 . S
C478 C479 1.387 . S
C479 H464 0.930 . S
C479 C474 1.390 . S
C479 C478 1.387 . S
H480 C492 0.930 . S
H481 C494 0.930 . S
H482 C495 0.930 . S
H483 C499 0.959 . S
H484 C499 0.959 . S
H485 C499 0.961 . S
H486 C500 0.960 . S
H487 C500 0.961 . S
H488 C500 0.959 . S
H489 C503 0.929 . S
H490 C504 0.931 . S
H491 C506 0.930 . S
C492 H480 0.930 . S
C492 C493 1.399 . S
C492 C497 1.399 . S
C493 C492 1.399 . S
C493 C494 1.376 . S
C494 H481 0.930 . S
C494 C493 1.376 . S
C494 C495 1.388 . S
C495 H482 0.930 . S
C495 C494 1.388 . S
C495 C496 1.390 . S
C496 C495 1.390 . S
C496 C497 1.394 . S
C496 C502 1.465 . S
C497 C492 1.399 . S
C497 C496 1.394 . S
C497 C498 1.516 . S
C498 C497 1.516 . S
C498 C499 1.502 . S
C498 C500 1.561 . S
C498 C501 1.526 . S
C499 H483 0.959 . S
C499 H484 0.959 . S
C499 H485 0.961 . S
C499 C498 1.502 . S
C500 H486 0.960 . S
C500 H487 0.961 . S
C500 H488 0.959 . S
C500 C498 1.561 . S
C501 C498 1.526 . S
C501 C502 1.396 . S
C501 C506 1.390 . S
C502 C496 1.465 . S
C502 C501 1.396 . S
C502 C503 1.399 . S
C503 H489 0.929 . S
C503 C502 1.399 . S
C503 C504 1.385 . S
C504 H490 0.931 . S
C504 C503 1.385 . S
C504 C505 1.389 . S
C505 C504 1.389 . S
C505 C506 1.387 . S
C506 H491 0.930 . S
C506 C501 1.390 . S
C506 C505 1.387 . S
H507 C519 0.930 . S
H508 C521 0.930 . S
H509 C522 0.930 . S
H510 C526 0.959 . S
H511 C526 0.959 . S
H512 C526 0.961 . S
H513 C527 0.960 . S
H514 C527 0.961 . S
H515 C527 0.959 . S
H516 C530 0.929 . S
H517 C531 0.931 . S
H518 C533 0.930 . S
C519 H507 0.930 . S
C519 C520 1.399 . S
C519 C524 1.399 . S
C520 C519 1.399 . S
C520 C521 1.376 . S
C521 H508 0.930 . S
C521 C520 1.376 . S
C521 C522 1.388 . S
C522 H509 0.930 . S
C522 C521 1.388 . S
C522 C523 1.390 . S
C523 C522 1.390 . S
C523 C524 1.394 . S
C523 C529 1.465 . S
C524 C519 1.399 . S
C524 C523 1.394 . S
C524 C525 1.516 . S
C525 C524 1.516 . S
C525 C526 1.502 . S
C525 C527 1.561 . S
C525 C528 1.526 . S
C526 H510 0.959 . S
C526 H511 0.959 . S
C526 H512 0.961 . S
C526 C525 1.502 . S
C527 H513 0.960 . S
C527 H514 0.961 . S
C527 H515 0.959 . S
C527 C525 1.561 . S
C528 C525 1.526 . S
C528 C529 1.396 . S
C528 C533 1.390 . S
C529 C523 1.465 . S
C529 C528 1.396 . S
C529 C530 1.399 . S
C530 H516 0.929 . S
C530 C529 1.399 . S
C530 C531 1.385 . S
C531 H517 0.931 . S
C531 C530 1.385 . S
C531 C532 1.389 . S
C532 C531 1.389 . S
C532 C533 1.387 . S
C533 H518 0.930 . S
C533 C528 1.390 . S
C533 C532 1.387 . S
H534 C546 0.930 . S
H535 C548 0.930 . S
H536 C549 0.930 . S
H537 C553 0.961 . S
H538 C553 0.959 1_455 S
H539 C553 0.961 . S
H540 C554 0.960 . S
H541 C554 0.961 . S
H542 C554 0.959 . S
H543 C557 0.929 . S
H544 C558 0.931 . S
H545 C560 0.930 . S
C546 H534 0.930 . S
C546 C547 1.399 . S
C546 C551 1.399 . S
C547 C546 1.399 . S
C547 C548 1.376 . S
C548 H535 0.930 . S
C548 C547 1.376 . S
C548 C549 1.388 . S
C549 H536 0.930 . S
C549 C548 1.388 . S
C549 C550 1.390 . S
C550 C549 1.390 . S
C550 C551 1.394 . S
C550 C556 1.465 . S
C551 C546 1.399 . S
C551 C550 1.394 . S
C551 C552 1.516 . S
C552 C551 1.516 . S
C552 C553 1.502 . S
C552 C554 1.561 . S
C552 C555 1.526 . S
C553 H537 0.961 . S
C553 H538 0.959 1_655 S
C553 H539 0.961 . S
C553 C552 1.502 . S
C554 H540 0.960 . S
C554 H541 0.961 . S
C554 H542 0.959 . S
C554 C552 1.561 . S
C555 C552 1.526 . S
C555 C556 1.396 . S
C555 C560 1.390 . S
C556 C550 1.465 . S
C556 C555 1.396 . S
C556 C557 1.399 . S
C557 H543 0.929 . S
C557 C556 1.399 . S
C557 C558 1.385 . S
C558 H544 0.931 . S
C558 C557 1.385 . S
C558 C559 1.389 . S
C559 C558 1.389 . S
C559 C560 1.387 . S
C560 H545 0.930 . S
C560 C555 1.390 . S
C560 C559 1.387 . S
H561 C573 0.930 . S
H562 C575 0.930 . S
H563 C576 0.930 . S
H564 C580 0.959 . S
H565 C580 0.959 . S
H566 C580 0.961 . S
H567 C581 0.960 . S
H568 C581 0.961 . S
H569 C581 0.959 . S
H570 C584 0.929 . S
H571 C585 0.931 . S
H572 C587 0.930 . S
C573 H561 0.930 . S
C573 C574 1.399 . S
C573 C578 1.399 . S
C574 C573 1.399 . S
C574 C575 1.376 . S
C575 H562 0.930 . S
C575 C574 1.376 . S
C575 C576 1.388 . S
C576 H563 0.930 . S
C576 C575 1.388 . S
C576 C577 1.390 . S
C577 C576 1.390 . S
C577 C578 1.394 . S
C577 C583 1.465 . S
C578 C573 1.399 . S
C578 C577 1.394 . S
C578 C579 1.516 . S
C579 C578 1.516 . S
C579 C580 1.502 . S
C579 C581 1.561 . S
C579 C582 1.526 . S
C580 H564 0.959 . S
C580 H565 0.959 . S
C580 H566 0.961 . S
C580 C579 1.502 . S
C581 H567 0.960 . S
C581 H568 0.961 . S
C581 H569 0.959 . S
C581 C579 1.561 . S
C582 C579 1.526 . S
C582 C583 1.396 . S
C582 C587 1.390 . S
C583 C577 1.465 . S
C583 C582 1.396 . S
C583 C584 1.399 . S
C584 H570 0.929 . S
C584 C583 1.399 . S
C584 C585 1.385 . S
C585 H571 0.931 . S
C585 C584 1.385 . S
C585 C586 1.389 . S
C586 C585 1.389 . S
C586 C587 1.387 . S
C587 H572 0.930 . S
C587 C582 1.390 . S
C587 C586 1.387 . S
H588 C600 0.930 . S
H589 C602 0.930 . S
H590 C603 0.930 . S
H591 C607 0.959 . S
H592 C607 0.959 . S
H593 C607 0.961 . S
H594 C608 0.960 . S
H595 C608 0.961 . S
H596 C608 0.959 . S
H597 C611 0.929 . S
H598 C612 0.931 . S
H599 C614 0.930 . S
C600 H588 0.930 . S
C600 C601 1.399 . S
C600 C605 1.399 . S
C601 C600 1.399 . S
C601 C602 1.376 . S
C602 H589 0.930 . S
C602 C601 1.376 . S
C602 C603 1.388 . S
C603 H590 0.930 . S
C603 C602 1.388 . S
C603 C604 1.390 . S
C604 C603 1.390 . S
C604 C605 1.394 . S
C604 C610 1.465 . S
C605 C600 1.399 . S
C605 C604 1.394 . S
C605 C606 1.516 . S
C606 C605 1.516 . S
C606 C607 1.502 . S
C606 C608 1.561 . S
C606 C609 1.526 . S
C607 H591 0.959 . S
C607 H592 0.959 . S
C607 H593 0.961 . S
C607 C606 1.502 . S
C608 H594 0.960 . S
C608 H595 0.961 . S
C608 H596 0.959 . S
C608 C606 1.561 . S
C609 C606 1.526 . S
C609 C610 1.396 . S
C609 C614 1.390 . S
C610 C604 1.465 . S
C610 C609 1.396 . S
C610 C611 1.399 . S
C611 H597 0.929 . S
C611 C610 1.399 . S
C611 C612 1.385 . S
C612 H598 0.931 . S
C612 C611 1.385 . S
C612 C613 1.389 . S
C613 C612 1.389 . S
C613 C614 1.387 . S
C614 H599 0.930 . S
C614 C609 1.390 . S
C614 C613 1.387 . S
H615 C627 0.930 . S
H616 C629 0.930 . S
H617 C630 0.930 . S
H618 C634 0.959 . S
H619 C634 0.959 . S
H620 C634 0.961 . S
H621 C635 0.960 . S
H622 C635 0.961 . S
H623 C635 0.959 . S
H624 C638 0.929 . S
H625 C639 0.931 . S
H626 C641 0.930 . S
C627 H615 0.930 . S
C627 C628 1.399 . S
C627 C632 1.399 . S
C628 C627 1.399 . S
C628 C629 1.376 . S
C629 H616 0.930 . S
C629 C628 1.376 . S
C629 C630 1.388 . S
C630 H617 0.930 . S
C630 C629 1.388 . S
C630 C631 1.390 . S
C631 C630 1.390 . S
C631 C632 1.394 . S
C631 C637 1.465 . S
C632 C627 1.399 . S
C632 C631 1.394 . S
C632 C633 1.516 . S
C633 C632 1.516 . S
C633 C634 1.502 . S
C633 C635 1.561 . S
C633 C636 1.526 . S
C634 H618 0.959 . S
C634 H619 0.959 . S
C634 H620 0.961 . S
C634 C633 1.502 . S
C635 H621 0.960 . S
C635 H622 0.961 . S
C635 H623 0.959 . S
C635 C633 1.561 . S
C636 C633 1.526 . S
C636 C637 1.396 . S
C636 C641 1.390 . S
C637 C631 1.465 . S
C637 C636 1.396 . S
C637 C638 1.399 . S
C638 H624 0.929 . S
C638 C637 1.399 . S
C638 C639 1.385 . S
C639 H625 0.931 . S
C639 C638 1.385 . S
C639 C640 1.389 . S
C640 C639 1.389 . S
C640 C641 1.387 . S
C641 H626 0.930 . S
C641 C636 1.390 . S
C641 C640 1.387 . S
H642 C654 0.930 . S
H643 C656 0.930 . S
H644 C657 0.930 . S
H645 C661 0.959 . S
H646 C661 0.959 . S
H647 C661 0.961 . S
H648 C662 0.960 . S
H649 C662 0.961 . S
H650 C662 0.959 . S
H651 C665 0.929 . S
H652 C666 0.931 . S
H653 C668 0.930 . S
C654 H642 0.930 . S
C654 C655 1.399 . S
C654 C659 1.399 . S
C655 C654 1.399 . S
C655 C656 1.376 . S
C656 H643 0.930 . S
C656 C655 1.376 . S
C656 C657 1.388 . S
C657 H644 0.930 . S
C657 C656 1.388 . S
C657 C658 1.390 . S
C658 C657 1.390 . S
C658 C659 1.394 . S
C658 C664 1.465 . S
C659 C654 1.399 . S
C659 C658 1.394 . S
C659 C660 1.516 . S
C660 C659 1.516 . S
C660 C661 1.502 . S
C660 C662 1.561 . S
C660 C663 1.526 . S
C661 H645 0.959 . S
C661 H646 0.959 . S
C661 H647 0.961 . S
C661 C660 1.502 . S
C662 H648 0.960 . S
C662 H649 0.961 . S
C662 H650 0.959 . S
C662 C660 1.561 . S
C663 C660 1.526 . S
C663 C664 1.396 . S
C663 C668 1.390 . S
C664 C658 1.465 . S
C664 C663 1.396 . S
C664 C665 1.399 . S
C665 H651 0.929 . S
C665 C664 1.399 . S
C665 C666 1.385 . S
C666 H652 0.931 . S
C666 C665 1.385 . S
C666 C667 1.389 . S
C667 C666 1.389 . S
C667 C668 1.387 . S
C668 H653 0.930 . S
C668 C663 1.390 . S
C668 C667 1.387 . S
H669 C681 0.930 . S
H670 C683 0.930 . S
H671 C684 0.930 . S
H672 C688 0.959 . S
H673 C688 0.959 . S
H674 C688 0.961 . S
H675 C689 0.960 . S
H676 C689 0.961 . S
H677 C689 0.959 . S
H678 C692 0.929 . S
H679 C693 0.931 . S
H680 C695 0.930 . S
C681 H669 0.930 . S
C681 C682 1.399 . S
C681 C686 1.399 . S
C682 C681 1.399 . S
C682 C683 1.376 . S
C683 H670 0.930 . S
C683 C682 1.376 . S
C683 C684 1.388 . S
C684 H671 0.930 . S
C684 C683 1.388 . S
C684 C685 1.390 . S
C685 C684 1.390 . S
C685 C686 1.394 . S
C685 C691 1.465 . S
C686 C681 1.399 . S
C686 C685 1.394 . S
C686 C687 1.516 . S
C687 C686 1.516 . S
C687 C688 1.502 . S
C687 C689 1.561 . S
C687 C690 1.526 . S
C688 H672 0.959 . S
C688 H673 0.959 . S
C688 H674 0.961 . S
C688 C687 1.502 . S
C689 H675 0.960 . S
C689 H676 0.961 . S
C689 H677 0.959 . S
C689 C687 1.561 . S
C690 C687 1.526 . S
C690 C691 1.396 . S
C690 C695 1.390 . S
C691 C685 1.465 . S
C691 C690 1.396 . S
C691 C692 1.399 . S
C692 H678 0.929 . S
C692 C691 1.399 . S
C692 C693 1.385 . S
C693 H679 0.931 . S
C693 C692 1.385 . S
C693 C694 1.389 . S
C694 C693 1.389 . S
C694 C695 1.387 . S
C695 H680 0.930 . S
C695 C690 1.390 . S
C695 C694 1.387 . S
H696 C708 0.930 . S
H697 C710 0.930 . S
H698 C711 0.930 . S
H699 C715 0.959 . S
H700 C715 0.959 . S
H701 C715 0.961 . S
H702 C716 0.960 . S
H703 C716 0.961 . S
H704 C716 0.959 . S
H705 C719 0.929 . S
H706 C720 0.919 1_554 S
H707 C722 0.930 . S
C708 H696 0.930 . S
C708 C709 1.399 . S
C708 C713 1.399 . S
C709 C708 1.399 . S
C709 C710 1.376 . S
C710 H697 0.930 . S
C710 C709 1.376 . S
C710 C711 1.388 . S
C711 H698 0.930 . S
C711 C710 1.388 . S
C711 C712 1.390 . S
C712 C711 1.390 . S
C712 C713 1.394 . S
C712 C718 1.465 . S
C713 C708 1.399 . S
C713 C712 1.394 . S
C713 C714 1.516 . S
C714 C713 1.516 . S
C714 C715 1.502 . S
C714 C716 1.561 . S
C714 C717 1.526 . S
C715 H699 0.959 . S
C715 H700 0.959 . S
C715 H701 0.961 . S
C715 C714 1.502 . S
C716 H702 0.960 . S
C716 H703 0.961 . S
C716 H704 0.959 . S
C716 C714 1.561 . S
C717 C714 1.526 . S
C717 C718 1.396 . S
C717 C722 1.390 . S
C718 C712 1.465 . S
C718 C717 1.396 . S
C718 C719 1.399 . S
C719 H705 0.929 . S
C719 C718 1.399 . S
C719 C720 1.385 . S
C720 H706 0.919 1_556 S
C720 C719 1.385 . S
C720 C721 1.389 . S
C721 C720 1.389 . S
C721 C722 1.387 . S
C722 H707 0.930 . S
C722 C717 1.390 . S
C722 C721 1.387 . S
H723 C735 0.930 . S
H724 C737 0.930 . S
H725 C738 0.930 . S
H726 C742 0.959 . S
H727 C742 0.959 . S
H728 C742 0.961 . S
H729 C743 0.960 . S
H730 C743 0.961 . S
H731 C743 0.959 . S
H732 C746 0.929 . S
H733 C747 0.931 . S
H734 C749 0.930 1_455 S
C735 H723 0.930 . S
C735 C736 1.399 . S
C735 C740 1.399 . S
C736 C735 1.399 . S
C736 C737 1.376 . S
C737 H724 0.930 . S
C737 C736 1.376 . S
C737 C738 1.388 . S
C738 H725 0.930 . S
C738 C737 1.388 . S
C738 C739 1.390 . S
C739 C738 1.390 . S
C739 C740 1.394 . S
C739 C745 1.465 . S
C740 C735 1.399 . S
C740 C739 1.394 . S
C740 C741 1.516 . S
C741 C740 1.516 . S
C741 C742 1.502 1_655 S
C741 C743 1.561 . S
C741 C744 1.526 . S
C742 H726 0.959 . S
C742 H727 0.959 . S
C742 H728 0.961 . S
C742 C741 1.502 1_455 S
C743 H729 0.960 . S
C743 H730 0.961 . S
C743 H731 0.959 . S
C743 C741 1.561 . S
C744 C741 1.526 . S
C744 C745 1.396 . S
C744 C749 1.390 . S
C745 C739 1.465 . S
C745 C744 1.396 . S
C745 C746 1.399 . S
C746 H732 0.929 . S
C746 C745 1.399 . S
C746 C747 1.385 . S
C747 H733 0.931 . S
C747 C746 1.385 . S
C747 C748 1.389 . S
C748 C747 1.389 . S
C748 C749 1.387 . S
C749 H734 0.930 1_655 S
C749 C744 1.390 . S
C749 C748 1.387 . S
H750 C762 0.930 . S
H751 C764 0.930 . S
H752 C765 0.930 . S
H753 C769 0.959 . S
H754 C769 0.959 . S
H755 C769 0.961 . S
H756 C770 0.960 . S
H757 C770 0.961 . S
H758 C770 0.959 . S
H759 C773 0.929 . S
H760 C774 0.931 . S
H761 C776 0.930 . S
C762 H750 0.930 . S
C762 C763 1.399 . S
C762 C767 1.399 . S
C763 C762 1.399 . S
C763 C764 1.376 . S
C764 H751 0.930 . S
C764 C763 1.376 . S
C764 C765 1.388 . S
C765 H752 0.930 . S
C765 C764 1.388 . S
C765 C766 1.390 . S
C766 C765 1.390 . S
C766 C767 1.394 . S
C766 C772 1.465 . S
C767 C762 1.399 . S
C767 C766 1.394 . S
C767 C768 1.516 . S
C768 C767 1.516 . S
C768 C769 1.502 . S
C768 C770 1.561 . S
C768 C771 1.526 . S
C769 H753 0.959 . S
C769 H754 0.959 . S
C769 H755 0.961 . S
C769 C768 1.502 . S
C770 H756 0.960 . S
C770 H757 0.961 . S
C770 H758 0.959 . S
C770 C768 1.561 . S
C771 C768 1.526 . S
C771 C772 1.396 . S
C771 C776 1.390 . S
C772 C766 1.465 . S
C772 C771 1.396 . S
C772 C773 1.399 . S
C773 H759 0.929 . S
C773 C772 1.399 . S
C773 C774 1.385 . S
C774 H760 0.931 . S
C774 C773 1.385 . S
C774 C775 1.389 . S
C775 C774 1.389 . S
C775 C776 1.387 . S
C776 H761 0.930 . S
C776 C771 1.390 . S
C776 C775 1.387 . S
H777 C789 0.930 . S
H778 C791 0.930 . S
H779 C792 0.930 . S
H780 C796 0.959 . S
H781 C796 0.959 . S
H782 C796 0.961 . S
H783 C797 0.960 . S
H784 C797 0.961 . S
H785 C797 0.959 . S
H786 C800 0.929 . S
H787 C801 0.931 . S
H788 C803 0.930 . S
C789 H777 0.930 . S
C789 C790 1.399 . S
C789 C794 1.399 . S
C790 C789 1.399 . S
C790 C791 1.376 . S
C791 H778 0.930 . S
C791 C790 1.376 . S
C791 C792 1.388 . S
C792 H779 0.930 . S
C792 C791 1.388 . S
C792 C793 1.390 . S
C793 C792 1.390 . S
C793 C794 1.394 . S
C793 C799 1.465 . S
C794 C789 1.399 . S
C794 C793 1.394 . S
C794 C795 1.516 . S
C795 C794 1.516 . S
C795 C796 1.502 . S
C795 C797 1.561 . S
C795 C798 1.526 . S
C796 H780 0.959 . S
C796 H781 0.959 . S
C796 H782 0.961 . S
C796 C795 1.502 . S
C797 H783 0.960 . S
C797 H784 0.961 . S
C797 H785 0.959 . S
C797 C795 1.561 . S
C798 C795 1.526 . S
C798 C799 1.396 . S
C798 C803 1.390 . S
C799 C793 1.465 . S
C799 C798 1.396 . S
C799 C800 1.399 . S
C800 H786 0.929 . S
C800 C799 1.399 . S
C800 C801 1.385 . S
C801 H787 0.931 . S
C801 C800 1.385 . S
C801 C802 1.389 . S
C802 C801 1.389 . S
C802 C803 1.387 . S
C803 H788 0.930 . S
C803 C798 1.390 . S
C803 C802 1.387 . S
H804 C816 0.930 . S
H805 C818 0.930 . S
H806 C819 0.930 . S
H807 C823 0.959 1_554 S
H808 C823 0.959 1_554 S
H809 C823 0.961 . S
H810 C824 0.960 . S
H811 C824 0.961 . S
H812 C824 0.959 . S
H813 C827 0.929 . S
H814 C828 0.931 . S
H815 C830 0.912 1_554 S
C816 H804 0.930 . S
C816 C817 1.399 . S
C816 C821 1.399 . S
C817 C816 1.399 . S
C817 C818 1.376 . S
C818 H805 0.930 . S
C818 C817 1.376 . S
C818 C819 1.388 . S
C819 H806 0.930 . S
C819 C818 1.388 . S
C819 C820 1.390 . S
C820 C819 1.390 . S
C820 C821 1.394 . S
C820 C826 1.465 . S
C821 C816 1.399 . S
C821 C820 1.394 . S
C821 C822 1.516 . S
C822 C821 1.516 . S
C822 C823 1.502 . S
C822 C824 1.561 . S
C822 C825 1.526 . S
C823 H807 0.959 1_556 S
C823 H808 0.959 1_556 S
C823 H809 0.961 . S
C823 C822 1.502 . S
C824 H810 0.960 . S
C824 H811 0.961 . S
C824 H812 0.959 . S
C824 C822 1.561 . S
C825 C822 1.526 . S
C825 C826 1.396 . S
C825 C830 1.390 . S
C826 C820 1.465 . S
C826 C825 1.396 . S
C826 C827 1.399 . S
C827 H813 0.929 . S
C827 C826 1.399 . S
C827 C828 1.385 . S
C828 H814 0.931 . S
C828 C827 1.385 . S
C828 C829 1.389 . S
C829 C828 1.389 . S
C829 C830 1.387 . S
C830 H815 0.912 1_556 S
C830 C825 1.390 . S
C830 C829 1.387 . S
H831 C843 0.930 . S
H832 C845 0.930 . S
H833 C846 0.930 . S
H834 C850 0.959 . S
H835 C850 0.959 . S
H836 C850 0.961 . S
H837 C851 0.960 . S
H838 C851 0.961 . S
H839 C851 0.959 . S
H840 C854 0.929 . S
H841 C855 0.931 . S
H842 C857 0.930 . S
C843 H831 0.930 . S
C843 C844 1.399 . S
C843 C848 1.399 . S
C844 C843 1.399 . S
C844 C845 1.376 . S
C845 H832 0.930 . S
C845 C844 1.376 . S
C845 C846 1.388 . S
C846 H833 0.930 . S
C846 C845 1.388 . S
C846 C847 1.390 . S
C847 C846 1.390 . S
C847 C848 1.394 . S
C847 C853 1.465 . S
C848 C843 1.399 . S
C848 C847 1.394 . S
C848 C849 1.516 . S
C849 C848 1.516 . S
C849 C850 1.502 . S
C849 C851 1.561 . S
C849 C852 1.526 . S
C850 H834 0.959 . S
C850 H835 0.959 . S
C850 H836 0.961 . S
C850 C849 1.502 . S
C851 H837 0.960 . S
C851 H838 0.961 . S
C851 H839 0.959 . S
C851 C849 1.561 . S
C852 C849 1.526 . S
C852 C853 1.396 . S
C852 C857 1.390 . S
C853 C847 1.465 . S
C853 C852 1.396 . S
C853 C854 1.399 . S
C854 H840 0.929 . S
C854 C853 1.399 . S
C854 C855 1.385 . S
C855 H841 0.931 . S
C855 C854 1.385 . S
C855 C856 1.389 . S
C856 C855 1.389 . S
C856 C857 1.387 . S
C857 H842 0.930 . S
C857 C852 1.390 . S
C857 C856 1.387 . S
H858 C870 0.930 . S
H859 C872 0.930 . S
H860 C873 0.930 . S
H861 C877 0.959 . S
H862 C877 0.959 . S
H863 C877 0.961 . S
H864 C878 0.960 . S
H865 C878 0.961 . S
H866 C878 0.959 . S
H867 C881 0.929 . S
H868 C882 0.931 . S
H869 C884 0.930 . S
C870 H858 0.930 . S
C870 C871 1.399 . S
C870 C875 1.399 . S
C871 C870 1.399 . S
C871 C872 1.376 . S
C872 H859 0.930 . S
C872 C871 1.376 . S
C872 C873 1.388 . S
C873 H860 0.930 . S
C873 C872 1.388 . S
C873 C874 1.390 . S
C874 C873 1.390 . S
C874 C875 1.394 . S
C874 C880 1.465 . S
C875 C870 1.399 . S
C875 C874 1.394 . S
C875 C876 1.516 . S
C876 C875 1.516 . S
C876 C877 1.502 . S
C876 C878 1.561 . S
C876 C879 1.526 . S
C877 H861 0.959 . S
C877 H862 0.959 . S
C877 H863 0.961 . S
C877 C876 1.502 . S
C878 H864 0.960 . S
C878 H865 0.961 . S
C878 H866 0.959 . S
C878 C876 1.561 . S
C879 C876 1.526 . S
C879 C880 1.396 . S
C879 C884 1.390 . S
C880 C874 1.465 . S
C880 C879 1.396 . S
C880 C881 1.399 . S
C881 H867 0.929 . S
C881 C880 1.399 . S
C881 C882 1.385 . S
C882 H868 0.931 . S
C882 C881 1.385 . S
C882 C883 1.389 . S
C883 C882 1.389 . S
C883 C884 1.387 . S
C884 H869 0.930 . S
C884 C879 1.390 . S
C884 C883 1.387 . S
H885 C897 0.930 . S
H886 C899 0.930 . S
H887 C900 0.930 . S
H888 C904 0.959 . S
H889 C904 0.959 . S
H890 C904 0.961 . S
H891 C905 0.960 . S
H892 C905 0.961 . S
H893 C905 0.959 . S
H894 C908 0.929 . S
H895 C909 0.931 . S
H896 C911 0.930 . S
C897 H885 0.930 . S
C897 C898 1.399 . S
C897 C902 1.399 . S
C898 C897 1.399 . S
C898 C899 1.376 . S
C899 H886 0.930 . S
C899 C898 1.376 . S
C899 C900 1.388 . S
C900 H887 0.930 . S
C900 C899 1.388 . S
C900 C901 1.390 . S
C901 C900 1.390 . S
C901 C902 1.394 . S
C901 C907 1.465 . S
C902 C897 1.399 . S
C902 C901 1.394 . S
C902 C903 1.516 . S
C903 C902 1.516 . S
C903 C904 1.502 . S
C903 C905 1.561 . S
C903 C906 1.526 . S
C904 H888 0.959 . S
C904 H889 0.959 . S
C904 H890 0.961 . S
C904 C903 1.502 . S
C905 H891 0.960 . S
C905 H892 0.961 . S
C905 H893 0.959 . S
C905 C903 1.561 . S
C906 C903 1.526 . S
C906 C907 1.396 . S
C906 C911 1.390 . S
C907 C901 1.465 . S
C907 C906 1.396 . S
C907 C908 1.399 . S
C908 H894 0.929 . S
C908 C907 1.399 . S
C908 C909 1.385 . S
C909 H895 0.931 . S
C909 C908 1.385 . S
C909 C910 1.389 . S
C910 C909 1.389 . S
C910 C911 1.387 . S
C911 H896 0.930 . S
C911 C906 1.390 . S
C911 C910 1.387 . S
C277 C9 1.584 . S
C289 C119 1.631 . S
C304 C21 1.050 . S
C316 C159 1.063 . S
C343 C193 2.021 . S
C331 C30 1.981 . S
C358 C43 2.391 . S
C370 C234 2.384 . S
C397 C154 1.349 . S
C385 C4 1.152 . S
C424 C114 2.460 . S
C412 C22 2.365 . S
C451 C242 1.318 1_556 S
C439 C34 1.310 . S
C478 C203 1.657 . S
C466 C48 1.652 . S
C493 C8 1.463 . S
C505 C239 1.419 . S
C532 C162 1.900 . S
C520 C35 1.975 . S
C547 C47 2.534 . S
C559 C122 2.454 . S
C574 C17 1.455 . S
C586 C190 1.450 . S
C613 C110 1.110 . S
C601 C60 1.158 . S
C628 C74 1.074 . S
C640 C150 1.120 . S
C655 C82 1.600 . S
C667 C202 1.698 . S
C682 C100 2.993 . S
C694 C243 2.926 1_556 S
C709 C61 1.708 . S
C721 C163 1.738 . S
C748 C123 1.912 . S
C736 C73 1.783 . S
C775 C233 1.713 . S
C763 C87 1.796 . S
C802 C194 1.557 . S
C790 C95 1.658 . S
C817 C56 1.236 . S
C829 C230 1.208 . S
C856 C153 2.132 . S
C844 C86 2.181 . S
C883 C113 2.407 . S
C871 C99 2.503 . S
C898 C69 1.162 . S
C910 C199 1.327 . S
