# Generated by pormake.
# Topology nom, (4,4)-cn, num edge types: 1
# Building blocks:
#     Node 0, Type 0, BuildingBlock: GIZVER_clean_linker_0, # of connection points: 4
#     Node 1, Type 0, BuildingBlock: GIZVER_clean_linker_0, # of connection points: 4
#     Node 2, Type 0, BuildingBlock: GIZVER_clean_linker_0, # of connection points: 4
#     Node 3, Type 0, BuildingBlock: GIZVER_clean_linker_0, # of connection points: 4
#     Node 4, Type 0, BuildingBlock: GIZVER_clean_linker_0, # of connection points: 4
#     Node 5, Type 0, BuildingBlock: GIZVER_clean_linker_0, # of connection points: 4
#     Node 6, Type 1, BuildingBlock: CEKHIL_clean_sbu_0, # of connection points: 4
#     Node 7, Type 1, BuildingBlock: CEKHIL_clean_sbu_0, # of connection points: 4
#     Node 8, Type 1, BuildingBlock: CEKHIL_clean_sbu_0, # of connection points: 4
#     Node 9, Type 1, BuildingBlock: CEKHIL_clean_sbu_0, # of connection points: 4
#     Node 10, Type 1, BuildingBlock: CEKHIL_clean_sbu_0, # of connection points: 4
#     Node 11, Type 1, BuildingBlock: CEKHIL_clean_sbu_0, # of connection points: 4
#     Edge 12, Type (0, 1), BuildingBlock: XIVTED_clean_linker_0, # of connection points: 2
#     Edge 13, Type (0, 1), BuildingBlock: XIVTED_clean_linker_0, # of connection points: 2
#     Edge 14, Type (0, 1), BuildingBlock: XIVTED_clean_linker_0, # of connection points: 2
#     Edge 15, Type (0, 1), BuildingBlock: XIVTED_clean_linker_0, # of connection points: 2
#     Edge 16, Type (0, 1), BuildingBlock: XIVTED_clean_linker_0, # of connection points: 2
#     Edge 17, Type (0, 1), BuildingBlock: XIVTED_clean_linker_0, # of connection points: 2
#     Edge 18, Type (0, 1), BuildingBlock: XIVTED_clean_linker_0, # of connection points: 2
#     Edge 19, Type (0, 1), BuildingBlock: XIVTED_clean_linker_0, # of connection points: 2
#     Edge 20, Type (0, 1), BuildingBlock: XIVTED_clean_linker_0, # of connection points: 2
#     Edge 21, Type (0, 1), BuildingBlock: XIVTED_clean_linker_0, # of connection points: 2
#     Edge 22, Type (0, 1), BuildingBlock: XIVTED_clean_linker_0, # of connection points: 2
#     Edge 23, Type (0, 1), BuildingBlock: XIVTED_clean_linker_0, # of connection points: 2
#     Edge 24, Type (0, 1), BuildingBlock: XIVTED_clean_linker_0, # of connection points: 2
#     Edge 25, Type (0, 1), BuildingBlock: XIVTED_clean_linker_0, # of connection points: 2
#     Edge 26, Type (0, 1), BuildingBlock: XIVTED_clean_linker_0, # of connection points: 2
#     Edge 27, Type (0, 1), BuildingBlock: XIVTED_clean_linker_0, # of connection points: 2
#     Edge 28, Type (0, 1), BuildingBlock: XIVTED_clean_linker_0, # of connection points: 2
#     Edge 29, Type (0, 1), BuildingBlock: XIVTED_clean_linker_0, # of connection points: 2
#     Edge 30, Type (0, 1), BuildingBlock: XIVTED_clean_linker_0, # of connection points: 2
#     Edge 31, Type (0, 1), BuildingBlock: XIVTED_clean_linker_0, # of connection points: 2
#     Edge 32, Type (0, 1), BuildingBlock: XIVTED_clean_linker_0, # of connection points: 2
#     Edge 33, Type (0, 1), BuildingBlock: XIVTED_clean_linker_0, # of connection points: 2
#     Edge 34, Type (0, 1), BuildingBlock: XIVTED_clean_linker_0, # of connection points: 2
#     Edge 35, Type (0, 1), BuildingBlock: XIVTED_clean_linker_0, # of connection points: 2
# Relax obj value: 0.005
# Max RMSD: 0.071
# Mean RMSD: 0.052
data_MOF--net-nom--node1-CEKHIL_clean_sbu_0--node2-GIZVER_clean_linker_0--edge1-XIVTED_clean_linker_0
_symmetry_space_group_name_H-M    P1
_symmetry_Int_Tables_number       1
_symmetry_cell_setting            triclinic
loop_
_symmetry_equiv_pos_as_xyz
'x, y, z'
_cell_length_a     46.928572
_cell_length_b     46.477599
_cell_length_c     46.474663
_cell_angle_alpha  89.946272
_cell_angle_beta   90.05607
_cell_angle_gamma 121.07256
loop_
_atom_site_label
_atom_site_type_symbol
_atom_site_fract_x
_atom_site_fract_y
_atom_site_fract_z
_atom_type_partial_charge
H0 H 0.96542 0.57748 0.36815 0.0
H1 H 1.00398 0.57848 0.28345 0.0
H2 H 0.90462 0.50194 0.306 0.0
H3 H 0.0173 0.62631 0.35225 0.0
H4 H 0.02818 0.63033 0.3151 0.0
H5 H 0.03027 0.58849 0.3839 0.0
H6 H 0.12651 0.60333 0.36541 0.0
H7 H 0.07798 0.6314 0.30271 0.0
C8 C 0.96256 0.56617 0.34716 0.0
C9 C 0.93205 0.5373 0.33973 0.0
C10 C 0.98915 0.58075 0.32714 0.0
C11 C 0.98438 0.56673 0.2994 0.0
C12 C 0.95394 0.53819 0.29202 0.0
C13 C 0.92841 0.52346 0.31231 0.0
C14 C 0.02114 0.61324 0.33397 0.0
C15 C 0.04956 0.6079 0.34146 0.0
C16 C 0.05044 0.59535 0.36886 0.0
C17 C 0.07822 0.59365 0.37755 0.0
C18 C 0.10476 0.60394 0.35843 0.0
C19 C 0.10566 0.61871 0.3319 0.0
C20 C 0.07744 0.61964 0.32301 0.0
H21 H 0.40354 0.94476 0.51322 0.0
H22 H 0.44369 0.99453 0.43219 0.0
H23 H 0.42857 0.89658 0.44752 0.0
H24 H 0.40456 0.99571 0.50259 0.0
H25 H 0.40865 0.00799 0.46575 0.0
H26 H 0.4603 0.01473 0.53079 0.0
H27 H 0.53241 0.11821 0.5143 0.0
H28 H 0.4523 0.06343 0.4545 0.0
C29 C 0.41441 0.94554 0.49247 0.0
C30 C 0.41457 0.917 0.48248 0.0
C31 C 0.4259 0.97418 0.47468 0.0
C32 C 0.43712 0.97372 0.44668 0.0
C33 C 0.43803 0.94567 0.43682 0.0
C34 C 0.42825 0.91837 0.45535 0.0
C35 C 0.42127 1.00287 0.48358 0.0
C36 C 0.45381 0.03464 0.49075 0.0
C37 C 0.47026 0.03638 0.51667 0.0
C38 C 0.49876 0.06651 0.52488 0.0
C39 C 0.51073 0.09483 0.50735 0.0
C40 C 0.49381 0.09445 0.48244 0.0
C41 C 0.46578 0.06393 0.47362 0.0
H42 H 0.38338 0.42867 0.623 0.0
H43 H 0.44382 0.43775 0.69669 0.0
H44 H 0.41146 0.50788 0.68454 0.0
H45 H 0.39616 0.38562 0.63179 0.0
H46 H 0.4037 0.38114 0.66864 0.0
H47 H 0.44947 0.42763 0.60138 0.0
H48 H 0.52667 0.40535 0.61392 0.0
H49 H 0.44975 0.37419 0.67729 0.0
C50 C 0.39732 0.44226 0.64192 0.0
C51 C 0.39519 0.46978 0.65186 0.0
C52 C 0.41559 0.43089 0.65773 0.0
C53 C 0.43147 0.44734 0.68351 0.0
C54 C 0.43001 0.47517 0.69289 0.0
C55 C 0.4128 0.48662 0.67667 0.0
C56 C 0.4139 0.39836 0.64984 0.0
C57 C 0.44734 0.40304 0.64153 0.0
C58 C 0.46165 0.41816 0.61493 0.0
C59 C 0.49035 0.4191 0.60496 0.0
C60 C 0.50501 0.40539 0.62201 0.0
C61 C 0.4902 0.38819 0.64759 0.0
C62 C 0.46178 0.38791 0.65781 0.0
H63 H 0.96064 0.39438 0.80354 0.0
H64 H 1.00664 0.43654 0.88536 0.0
H65 H 0.91088 0.42207 0.86522 0.0
H66 H 1.00919 0.39297 0.81838 0.0
H67 H 0.0217 0.40124 0.85518 0.0
H68 H 0.02603 0.44936 0.78764 0.0
H69 H 0.13087 0.5181 0.79654 0.0
H70 H 0.07904 0.44198 0.86073 0.0
C71 C 0.96073 0.40599 0.82377 0.0
C72 C 0.9323 0.40686 0.83211 0.0
C73 C 0.98826 0.41766 0.84264 0.0
C74 C 0.98677 0.42983 0.87001 0.0
C75 C 0.95878 0.43133 0.87826 0.0
C76 C 0.93267 0.42136 0.85865 0.0
C77 C 0.01658 0.41192 0.8358 0.0
C78 C 0.0482 0.4436 0.82652 0.0
C79 C 0.04857 0.45909 0.8003 0.0
C80 C 0.07841 0.48612 0.78982 0.0
C81 C 0.10781 0.49762 0.80531 0.0
C82 C 0.10867 0.48154 0.83044 0.0
C83 C 0.07857 0.45495 0.84152 0.0
H84 H 0.6332 0.07618 0.01108 0.0
H85 H 0.59386 0.0258 0.93012 0.0
H86 H 0.6074 0.12316 0.94477 0.0
H87 H 0.63247 0.02538 0.00127 0.0
H88 H 0.62972 0.01354 0.96451 0.0
H89 H 0.58302 0.99699 0.03306 0.0
H90 H 0.50525 0.89939 0.00626 0.0
H91 H 0.57861 0.96537 0.9449 0.0
C92 C 0.62212 0.07498 0.99032 0.0
C93 C 0.62169 0.10327 0.97997 0.0
C94 C 0.6109 0.04622 0.97275 0.0
C95 C 0.59981 0.04643 0.9446 0.0
C96 C 0.59852 0.0742 0.93448 0.0
C97 C 0.6078 0.10147 0.95285 0.0
C98 C 0.6162 0.01801 0.98192 0.0
C99 C 0.58392 0.9855 0.988 0.0
C100 C 0.5707 0.97864 0.01609 0.0
C101 C 0.54228 0.94758 0.02245 0.0
C102 C 0.52667 0.92368 0.00076 0.0
C103 C 0.53934 0.92966 0.97272 0.0
C104 C 0.56815 0.96073 0.96637 0.0
H105 H 0.64206 0.58771 0.11369 0.0
H106 H 0.60666 0.59066 0.1989 0.0
H107 H 0.62652 0.51323 0.17672 0.0
H108 H 0.63972 0.63629 0.12821 0.0
H109 H 0.63799 0.64297 0.16569 0.0
H110 H 0.59101 0.61684 0.098 0.0
H111 H 0.50619 0.61625 0.13353 0.0
H112 H 0.58562 0.631 0.18905 0.0
C113 C 0.63376 0.57685 0.13488 0.0
C114 C 0.63471 0.54799 0.14256 0.0
C115 C 0.6227 0.59202 0.15493 0.0
C116 C 0.61365 0.57849 0.1829 0.0
C117 C 0.61498 0.55004 0.1905 0.0
C118 C 0.62488 0.53479 0.17026 0.0
C119 C 0.6246 0.62486 0.14795 0.0
C120 C 0.59068 0.62112 0.14425 0.0
C121 C 0.57712 0.61734 0.1164 0.0
C122 C 0.54728 0.6171 0.1122 0.0
C123 C 0.52979 0.61763 0.13641 0.0
C124 C 0.5437 0.6238 0.16396 0.0
C125 C 0.57424 0.62542 0.16791 0.0
Co126 Co 0.6366 0.38569 0.39652 0.0
O127 O 0.67402 0.38862 0.3764 0.0
O128 O 0.67762 0.42624 0.40757 0.0
C129 C 0.61284 0.33088 0.4093 0.0
O130 O 0.60473 0.39115 0.42255 0.0
Co131 Co 0.56346 0.33732 0.37727 0.0
O132 O 0.55164 0.35149 0.4133 0.0
C133 C 0.60454 0.40227 0.34713 0.0
C134 C 0.69273 0.41638 0.39036 0.0
C135 C 0.57334 0.37649 0.42785 0.0
O136 O 0.62895 0.41066 0.36463 0.0
O137 O 0.57772 0.37343 0.34755 0.0
O138 O 0.63724 0.35428 0.42422 0.0
O139 O 0.60542 0.34089 0.38612 0.0
Co140 Co 0.2671 0.63235 0.58365 0.0
O141 O 0.29768 0.62606 0.60687 0.0
O142 O 0.26317 0.58954 0.57481 0.0
C143 C 0.30369 0.68603 0.56993 0.0
O144 O 0.23253 0.62972 0.55537 0.0
Co145 Co 0.24944 0.68671 0.59881 0.0
O146 O 0.22376 0.67241 0.56242 0.0
C147 C 0.21746 0.6223 0.63072 0.0
C148 C 0.28638 0.59746 0.59386 0.0
C149 C 0.21824 0.64622 0.54881 0.0
O150 O 0.2316 0.61087 0.6144 0.0
O151 O 0.22355 0.65248 0.62922 0.0
O152 O 0.30268 0.66093 0.55664 0.0
O153 O 0.28503 0.67815 0.59242 0.0
Co154 Co 0.65325 0.26334 0.7251 0.0
O155 O 0.64808 0.29464 0.70145 0.0
O156 O 0.61118 0.26026 0.73329 0.0
C157 C 0.70646 0.2994 0.7394 0.0
O158 O 0.64936 0.22821 0.75372 0.0
Co159 Co 0.70601 0.24367 0.71121 0.0
O160 O 0.6907 0.21775 0.74758 0.0
C161 C 0.64268 0.21232 0.67864 0.0
C162 C 0.61962 0.28369 0.71414 0.0
C163 C 0.66482 0.21302 0.76076 0.0
O164 O 0.63176 0.22737 0.69446 0.0
O165 O 0.67226 0.2177 0.68063 0.0
O166 O 0.68168 0.29911 0.75218 0.0
O167 O 0.69865 0.28048 0.71696 0.0
Co168 Co 0.40538 0.64233 0.88825 0.0
O169 O 0.36884 0.63317 0.86298 0.0
O170 O 0.36513 0.60163 0.90011 0.0
C171 C 0.42458 0.69769 0.89529 0.0
O172 O 0.43618 0.64337 0.91974 0.0
Co173 Co 0.47931 0.69242 0.87184 0.0
O174 O 0.48986 0.68109 0.9099 0.0
C175 C 0.44367 0.62479 0.84573 0.0
C176 C 0.35041 0.60695 0.87887 0.0
C177 C 0.46739 0.65861 0.92594 0.0
O178 O 0.41838 0.61601 0.86222 0.0
O179 O 0.46882 0.65476 0.84475 0.0
O180 O 0.39923 0.67489 0.90975 0.0
O181 O 0.43546 0.68645 0.87537 0.0
Co182 Co 0.76603 0.38811 0.0816 0.0
O183 O 0.73224 0.39187 0.10201 0.0
O184 O 0.76887 0.43033 0.07234 0.0
C185 C 0.73197 0.33434 0.0667 0.0
O186 O 0.80342 0.3931 0.05567 0.0
Co187 Co 0.78549 0.33552 0.09835 0.0
O188 O 0.81295 0.35097 0.06297 0.0
C189 C 0.81253 0.39879 0.13164 0.0
C190 C 0.74339 0.42057 0.0892 0.0
C191 C 0.81863 0.37739 0.04964 0.0
O192 O 0.79874 0.40988 0.11445 0.0
O193 O 0.8079 0.36917 0.12988 0.0
O194 O 0.73316 0.35917 0.05272 0.0
O195 O 0.74916 0.34244 0.0901 0.0
Co196 Co 0.38768 0.75414 0.23095 0.0
O197 O 0.3901 0.71891 0.21105 0.0
O198 O 0.42868 0.75561 0.24058 0.0
C199 C 0.33417 0.72158 0.246 0.0
O200 O 0.39409 0.79268 0.25651 0.0
Co201 Co 0.33787 0.77657 0.21389 0.0
O202 O 0.3538 0.80439 0.24922 0.0
C203 C 0.40044 0.80172 0.18082 0.0
C204 C 0.41836 0.72956 0.22401 0.0
C205 C 0.37962 0.80911 0.26253 0.0
O206 O 0.41029 0.78668 0.19792 0.0
O207 O 0.37169 0.79849 0.18259 0.0
O208 O 0.3583 0.72184 0.26001 0.0
O209 O 0.34268 0.73861 0.2224 0.0
H210 H 0.11886 0.6183 0.27361 0.0
H211 H 0.31327 0.70068 0.30105 0.0
H212 H 0.1667 0.66085 0.35484 0.0
H213 H 0.27714 0.70685 0.21727 0.0
H214 H 0.25697 0.67697 0.3202 0.0
H215 H 0.17443 0.6437 0.25104 0.0
C216 C 0.1409 0.63313 0.28659 0.0
C217 C 0.1381 0.63674 0.31629 0.0
C218 C 0.26135 0.68349 0.2976 0.0
C219 C 0.20124 0.66508 0.29093 0.0
C220 C 0.29345 0.69686 0.28665 0.0
C221 C 0.29992 0.70587 0.25758 0.0
C222 C 0.23531 0.67854 0.27929 0.0
C223 C 0.27321 0.70039 0.23989 0.0
C224 C 0.17251 0.64744 0.27379 0.0
C225 C 0.16756 0.65642 0.33208 0.0
N226 N 0.24198 0.68691 0.25097 0.0
N227 N 0.19771 0.66936 0.31935 0.0
H228 H 0.50732 0.11241 0.4249 0.0
H229 H 0.6098 0.30643 0.46334 0.0
H230 H 0.50483 0.15148 0.50839 0.0
H231 H 0.57163 0.27486 0.37738 0.0
H232 H 0.57688 0.24798 0.47928 0.0
H233 H 0.53444 0.17016 0.40539 0.0
C234 C 0.51192 0.13296 0.43895 0.0
C235 C 0.50436 0.12727 0.46838 0.0
C236 C 0.57563 0.25383 0.45692 0.0
C237 C 0.53584 0.19289 0.44659 0.0
C238 C 0.59456 0.28716 0.4478 0.0
C239 C 0.59337 0.29549 0.41904 0.0
C240 C 0.5558 0.22845 0.43706 0.0
C241 C 0.57309 0.26946 0.39981 0.0
C242 C 0.52753 0.16583 0.4279 0.0
C243 C 0.51091 0.15482 0.48569 0.0
N244 N 0.55526 0.237 0.4091 0.0
N245 N 0.52669 0.18635 0.47468 0.0
H246 H 0.38993 0.48607 0.59528 0.0
H247 H 0.31336 0.59353 0.64439 0.0
H248 H 0.34909 0.47751 0.68009 0.0
H249 H 0.28935 0.55094 0.55913 0.0
H250 H 0.33553 0.55748 0.65602 0.0
H251 H 0.36002 0.51414 0.5789 0.0
C252 C 0.37417 0.4894 0.61023 0.0
C253 C 0.37242 0.47993 0.63919 0.0
C254 C 0.32532 0.55593 0.63477 0.0
C255 C 0.33921 0.51258 0.62096 0.0
C256 C 0.3128 0.57659 0.62808 0.0
C257 C 0.29935 0.57512 0.60081 0.0
C258 C 0.32529 0.53412 0.61384 0.0
C259 C 0.29928 0.55262 0.5805 0.0
C260 C 0.35732 0.50555 0.60095 0.0
C261 C 0.35171 0.48499 0.65771 0.0
N262 N 0.31243 0.53321 0.58729 0.0
N263 N 0.33655 0.50148 0.64847 0.0
H264 H 0.92115 0.40576 0.77315 0.0
H265 H 0.72583 0.32485 0.79359 0.0
H266 H 0.87001 0.36658 0.85385 0.0
H267 H 0.76459 0.31315 0.71318 0.0
H268 H 0.78158 0.35045 0.81441 0.0
H269 H 0.86652 0.37992 0.74879 0.0
C270 C 0.89862 0.3917 0.7857 0.0
C271 C 0.90028 0.38917 0.81572 0.0
C272 C 0.77791 0.34235 0.79217 0.0
C273 C 0.83814 0.36029 0.78824 0.0
C274 C 0.74612 0.3279 0.78024 0.0
C275 C 0.74052 0.3167 0.75167 0.0
C276 C 0.80453 0.3462 0.77532 0.0
C277 C 0.76783 0.32129 0.73538 0.0
C278 C 0.86753 0.37712 0.77184 0.0
C279 C 0.87016 0.37038 0.83085 0.0
N280 N 0.79875 0.33582 0.74739 0.0
N281 N 0.84054 0.35715 0.81707 0.0
H282 H 0.56879 0.90389 0.93866 0.0
H283 H 0.39994 0.72874 0.92786 0.0
H284 H 0.47327 0.89025 0.96035 0.0
H285 H 0.48614 0.74914 0.87838 0.0
H286 H 0.42742 0.78826 0.94025 0.0
H287 H 0.54028 0.84866 0.91499 0.0
C288 C 0.54186 0.88975 0.93767 0.0
C289 C 0.52336 0.90149 0.95175 0.0
C290 C 0.44028 0.77983 0.92648 0.0
C291 C 0.49068 0.83806 0.92562 0.0
C292 C 0.42465 0.74578 0.91955 0.0
C293 C 0.44081 0.73393 0.90217 0.0
C294 C 0.47262 0.80226 0.9164 0.0
C295 C 0.47279 0.75723 0.89188 0.0
C296 C 0.5256 0.85809 0.92443 0.0
C297 C 0.48849 0.88193 0.95011 0.0
N298 N 0.48784 0.79024 0.89941 0.0
N299 N 0.47334 0.851 0.93781 0.0
H300 H 0.69686 0.57674 0.11813 0.0
H301 H 0.682 0.39894 0.11167 0.0
H302 H 0.60426 0.48254 0.12623 0.0
H303 H 0.76649 0.48671 0.07479 0.0
H304 H 0.65412 0.43059 0.11757 0.0
H305 H 0.72342 0.54616 0.1006 0.0
C306 C 0.68187 0.54979 0.11521 0.0
C307 C 0.64833 0.53212 0.12364 0.0
C308 C 0.67869 0.443 0.10802 0.0
C309 C 0.67867 0.49695 0.10474 0.0
C310 C 0.69476 0.42496 0.10485 0.0
C311 C 0.72673 0.4402 0.09285 0.0
C312 C 0.69478 0.47688 0.09959 0.0
C313 C 0.74185 0.47398 0.08419 0.0
C314 C 0.6971 0.5323 0.10556 0.0
C315 C 0.63019 0.49711 0.12 0.0
N316 N 0.7259 0.49132 0.088 0.0
N317 N 0.64567 0.4807 0.11133 0.0
H318 H 0.41343 0.90359 0.54099 0.0
H319 H 0.32927 0.70647 0.51595 0.0
H320 H 0.37461 0.85485 0.45919 0.0
H321 H 0.3189 0.74446 0.59746 0.0
H322 H 0.35617 0.76343 0.4963 0.0
H323 H 0.38697 0.84766 0.56395 0.0
C324 C 0.39939 0.88132 0.52789 0.0
C325 C 0.39708 0.88406 0.49796 0.0
C326 C 0.34808 0.75932 0.51853 0.0
C327 C 0.36747 0.82041 0.52389 0.0
C328 C 0.33288 0.72684 0.52978 0.0
C329 C 0.32169 0.7207 0.55832 0.0
C330 C 0.35265 0.78604 0.53603 0.0
C331 C 0.32701 0.74812 0.57526 0.0
C332 C 0.38445 0.84949 0.54096 0.0
C333 C 0.3783 0.8542 0.48212 0.0
N334 N 0.34223 0.77969 0.56391 0.0
N335 N 0.36468 0.82383 0.49516 0.0
H336 H 0.50302 0.34493 0.61953 0.0
H337 H 0.57197 0.28538 0.74752 0.0
H338 H 0.50589 0.38338 0.7046 0.0
H339 H 0.61788 0.31265 0.66375 0.0
H340 H 0.53682 0.30855 0.73397 0.0
H341 H 0.53264 0.3183 0.63741 0.0
C342 C 0.5097 0.3476 0.64211 0.0
C343 C 0.50273 0.36726 0.66043 0.0
C344 C 0.55465 0.30939 0.71869 0.0
C345 C 0.53624 0.33598 0.68116 0.0
C346 C 0.57455 0.29608 0.72628 0.0
C347 C 0.59788 0.2971 0.70669 0.0
C348 C 0.55749 0.3228 0.69104 0.0
C349 C 0.60034 0.31142 0.67955 0.0
C350 C 0.52663 0.33236 0.65225 0.0
C351 C 0.51105 0.36876 0.68969 0.0
N352 N 0.5802 0.32332 0.67245 0.0
N353 N 0.52765 0.35349 0.6992 0.0
H354 H 0.13395 0.50199 0.88555 0.0
H355 H 0.31799 0.59679 0.82784 0.0
H356 H 0.15974 0.4841 0.80119 0.0
H357 H 0.3007 0.56679 0.91699 0.0
H358 H 0.25831 0.56105 0.81863 0.0
H359 H 0.19326 0.52943 0.89947 0.0
C360 C 0.15189 0.50311 0.87025 0.0
C361 C 0.14203 0.49115 0.84208 0.0
C362 C 0.26757 0.56214 0.8402 0.0
C363 C 0.20943 0.52311 0.85743 0.0
C364 C 0.3016 0.58265 0.84548 0.0
C365 C 0.31432 0.58465 0.87317 0.0
C366 C 0.24582 0.54406 0.86289 0.0
C367 C 0.29188 0.56572 0.89526 0.0
C368 C 0.18566 0.51892 0.8781 0.0
C369 C 0.16634 0.49345 0.82299 0.0
N370 N 0.25858 0.54647 0.88975 0.0
N371 N 0.19884 0.50965 0.83081 0.0
H372 H 0.66298 0.16416 0.95537 0.0
H373 H 0.7155 0.27663 0.09596 0.0
H374 H 0.62284 0.11876 0.03798 0.0
H375 H 0.70934 0.31278 0.01203 0.0
H376 H 0.68866 0.21927 0.07654 0.0
H377 H 0.68834 0.21936 0.97728 0.0
C378 C 0.65922 0.16575 0.97818 0.0
C379 C 0.63974 0.1366 0.99467 0.0
C380 C 0.69306 0.23978 0.06249 0.0
C381 C 0.6699 0.20037 0.02013 0.0
C382 C 0.70845 0.27249 0.07347 0.0
C383 C 0.71469 0.29951 0.05553 0.0
C384 C 0.68456 0.23424 0.03325 0.0
C385 C 0.70496 0.29273 0.02663 0.0
C386 C 0.67389 0.1974 0.99066 0.0
C387 C 0.63729 0.14049 0.02439 0.0
N388 N 0.69069 0.26085 0.01634 0.0
N389 N 0.65215 0.17189 0.03622 0.0
H390 H 0.57202 0.68357 0.19282 0.0
H391 H 0.39598 0.66699 0.20208 0.0
H392 H 0.47949 0.58962 0.18316 0.0
H393 H 0.48342 0.75192 0.23875 0.0
H394 H 0.42687 0.63825 0.19633 0.0
H395 H 0.54141 0.70848 0.21327 0.0
C396 C 0.54544 0.66778 0.19619 0.0
C397 C 0.52825 0.63449 0.1862 0.0
C398 C 0.43932 0.66307 0.20585 0.0
C399 C 0.49292 0.66316 0.20834 0.0
C400 C 0.42173 0.67963 0.20892 0.0
C401 C 0.43718 0.71204 0.22071 0.0
C402 C 0.47292 0.67915 0.21416 0.0
C403 C 0.47056 0.72699 0.22945 0.0
C404 C 0.52789 0.68215 0.20745 0.0
C405 C 0.49369 0.61539 0.19053 0.0
N406 N 0.48745 0.71061 0.22569 0.0
N407 N 0.47712 0.63016 0.20065 0.0
H408 H 0.9006 0.56773 0.36345 0.0
H409 H 0.73075 0.39315 0.36812 0.0
H410 H 0.89413 0.4721 0.35655 0.0
H411 H 0.73855 0.48158 0.40613 0.0
H412 H 0.79109 0.42315 0.36315 0.0
H413 H 0.84265 0.53863 0.38062 0.0
C414 C 0.88739 0.54077 0.36656 0.0
C415 C 0.90211 0.52226 0.35851 0.0
C416 C 0.77974 0.43604 0.37276 0.0
C417 C 0.83571 0.4888 0.37702 0.0
C418 C 0.74518 0.41896 0.3754 0.0
C419 C 0.72951 0.4349 0.38743 0.0
C420 C 0.79902 0.46966 0.38173 0.0
C421 C 0.74963 0.46835 0.3967 0.0
C422 C 0.85422 0.52413 0.37602 0.0
C423 C 0.88366 0.48729 0.36242 0.0
N424 N 0.78335 0.48478 0.39337 0.0
N425 N 0.85135 0.47171 0.37087 0.0
H426 H 0.07264 0.62508 0.42473 0.0
H427 H 0.19909 0.59202 0.51301 0.0
H428 H 0.09948 0.55302 0.39918 0.0
H429 H 0.17819 0.67018 0.53246 0.0
H430 H 0.15576 0.57067 0.47601 0.0
H431 H 0.10162 0.63283 0.47034 0.0
C432 C 0.0835 0.60988 0.4292 0.0
C433 C 0.084 0.58866 0.40803 0.0
C434 C 0.16058 0.59238 0.48851 0.0
C435 C 0.11837 0.59837 0.45968 0.0
C436 C 0.18548 0.60474 0.50953 0.0
C437 C 0.19269 0.63324 0.52572 0.0
C438 C 0.14264 0.60855 0.48367 0.0
C439 C 0.17389 0.6484 0.52037 0.0
C440 C 0.10057 0.61473 0.45506 0.0
C441 C 0.09886 0.5699 0.41486 0.0
N442 N 0.14991 0.63596 0.49979 0.0
N443 N 0.11605 0.57569 0.43986 0.0
H444 H 0.47387 0.07216 0.57569 0.0
H445 H 0.65745 0.17719 0.64041 0.0
H446 H 0.55972 0.07662 0.53774 0.0
H447 H 0.57538 0.18614 0.6708 0.0
H448 H 0.61964 0.1322 0.60844 0.0
H449 H 0.50776 0.10346 0.61741 0.0
C450 C 0.49949 0.07835 0.57686 0.0
C451 C 0.51409 0.07166 0.55352 0.0
C452 C 0.60982 0.1439 0.62213 0.0
C453 C 0.55321 0.10852 0.60031 0.0
C454 C 0.63147 0.16982 0.64036 0.0
C455 C 0.61974 0.18589 0.65822 0.0
C456 C 0.57603 0.13375 0.62157 0.0
C457 C 0.58567 0.17482 0.65723 0.0
C458 C 0.51897 0.09675 0.60036 0.0
C459 C 0.54758 0.08103 0.55554 0.0
N460 N 0.56503 0.14952 0.63911 0.0
N461 N 0.56615 0.09943 0.57833 0.0
H462 H 0.48652 0.53392 0.70569 0.0
H463 H 0.39691 0.55721 0.84063 0.0
H464 H 0.39758 0.45252 0.74351 0.0
H465 H 0.49317 0.63397 0.80895 0.0
H466 H 0.39943 0.51654 0.80888 0.0
H467 H 0.49379 0.56844 0.74793 0.0
C468 C 0.4694 0.52291 0.72357 0.0
C469 C 0.44172 0.49035 0.72147 0.0
C470 C 0.42012 0.54224 0.80913 0.0
C471 C 0.44856 0.53005 0.76901 0.0
C472 C 0.41859 0.56553 0.82713 0.0
C473 C 0.44462 0.59925 0.82726 0.0
C474 C 0.4478 0.55277 0.79104 0.0
C475 C 0.47225 0.60841 0.80945 0.0
C476 C 0.47317 0.54271 0.74749 0.0
C477 C 0.41954 0.47742 0.7447 0.0
N478 N 0.47295 0.58543 0.79197 0.0
N479 N 0.42303 0.49754 0.7673 0.0
H480 H 0.96477 0.40028 0.92566 0.0
H481 H 0.83727 0.43152 0.01385 0.0
H482 H 0.93603 0.47084 0.89967 0.0
H483 H 0.86048 0.35521 0.0344 0.0
H484 H 0.88046 0.45322 0.97678 0.0
H485 H 0.93617 0.39259 0.97143 0.0
C486 C 0.95352 0.41514 0.93002 0.0
C487 C 0.95243 0.43593 0.9087 0.0
C488 C 0.87622 0.43186 0.98956 0.0
C489 C 0.91855 0.42632 0.96061 0.0
C490 C 0.85142 0.41933 0.01065 0.0
C491 C 0.84482 0.39117 0.0271 0.0
C492 C 0.89464 0.4162 0.98487 0.0
C493 C 0.86429 0.37669 0.02208 0.0
C494 C 0.9367 0.41033 0.956 0.0
C495 C 0.93709 0.45424 0.91544 0.0
N496 N 0.88812 0.38925 0.00137 0.0
N497 N 0.92019 0.44853 0.94057 0.0
H498 H 0.56481 0.92402 0.06485 0.0
H499 H 0.38919 0.84068 0.14412 0.0
H500 H 0.48794 0.94531 0.04488 0.0
H501 H 0.46519 0.81915 0.16845 0.0
H502 H 0.42758 0.88259 0.11057 0.0
H503 H 0.53239 0.89093 0.10667 0.0
C504 C 0.54169 0.92278 0.07004 0.0
C505 C 0.5291 0.93771 0.05186 0.0
C506 C 0.43603 0.86882 0.1232 0.0
C507 C 0.49141 0.89903 0.09862 0.0
C508 C 0.41395 0.84456 0.14236 0.0
C509 C 0.42375 0.82596 0.15915 0.0
C510 C 0.46835 0.8747 0.12039 0.0
C511 C 0.4564 0.83263 0.15585 0.0
C512 C 0.52299 0.90354 0.09359 0.0
C513 C 0.49862 0.93457 0.05875 0.0
N514 N 0.47751 0.85638 0.13673 0.0
N515 N 0.48066 0.91531 0.08141 0.0
H516 H 0.55786 0.49813 0.21213 0.0
H517 H 0.65608 0.46729 0.33752 0.0
H518 H 0.6598 0.56947 0.23389 0.0
H519 H 0.55595 0.3951 0.31019 0.0
H520 H 0.65618 0.50841 0.30434 0.0
H521 H 0.55395 0.46449 0.25414 0.0
C522 C 0.57898 0.5073 0.22652 0.0
C523 C 0.60898 0.53669 0.22001 0.0
C524 C 0.63419 0.48357 0.30577 0.0
C525 C 0.60548 0.49773 0.26711 0.0
C526 C 0.63419 0.46001 0.32457 0.0
C527 C 0.60611 0.42748 0.32653 0.0
C528 C 0.60588 0.47457 0.28891 0.0
C529 C 0.57834 0.41967 0.30935 0.0
C530 C 0.577 0.48791 0.25022 0.0
C531 C 0.63608 0.54715 0.23866 0.0
N532 N 0.579 0.44295 0.29131 0.0
N533 N 0.63387 0.52742 0.2612 0.0
H534 H 0.40623 0.9536 0.39117 0.0
H535 H 0.43398 0.82687 0.2969 0.0
H536 H 0.47685 0.92393 0.41259 0.0
H537 H 0.35894 0.85199 0.27943 0.0
H538 H 0.45684 0.86982 0.33442 0.0
H539 H 0.39751 0.92641 0.34435 0.0
C540 C 0.42088 0.94249 0.38558 0.0
C541 C 0.44199 0.94064 0.4059 0.0
C542 C 0.43552 0.86608 0.32222 0.0
C543 C 0.43123 0.90839 0.35282 0.0
C544 C 0.42231 0.84141 0.30086 0.0
C545 C 0.39415 0.83538 0.28516 0.0
C546 C 0.4205 0.88493 0.328 0.0
C547 C 0.3804 0.85536 0.29115 0.0
C548 C 0.4155 0.92648 0.359 0.0
C549 C 0.46004 0.92554 0.39761 0.0
N550 N 0.39356 0.87903 0.31218 0.0
N551 N 0.45376 0.9094 0.37193 0.0
H552 H 0.45259 0.3947 0.55651 0.0
H553 H 0.61093 0.42746 0.46612 0.0
H554 H 0.55378 0.45966 0.58472 0.0
H555 H 0.5091 0.35633 0.44252 0.0
H556 H 0.59078 0.44783 0.50496 0.0
H557 H 0.47314 0.39097 0.50922 0.0
C558 C 0.4791 0.40928 0.55239 0.0
C559 C 0.50156 0.42717 0.57464 0.0
C560 C 0.57287 0.42795 0.49112 0.0
C561 C 0.52533 0.42199 0.52098 0.0
C562 C 0.58436 0.41616 0.469 0.0
C563 C 0.56172 0.38975 0.45121 0.0
C564 C 0.53849 0.41327 0.49551 0.0
C565 C 0.52755 0.3764 0.45587 0.0
C566 C 0.49088 0.4067 0.52551 0.0
C567 C 0.53569 0.44527 0.56818 0.0
N568 N 0.51703 0.38814 0.47764 0.0
N569 N 0.54659 0.44166 0.54212 0.0
H570 H 0.08568 0.54611 0.77529 0.0
H571 H 0.1909 0.55427 0.63846 0.0
H572 H 0.08279 0.45918 0.73971 0.0
H573 H 0.18378 0.63791 0.6696 0.0
H574 H 0.14674 0.51739 0.67202 0.0
H575 H 0.11433 0.57793 0.73207 0.0
C576 C 0.08974 0.53337 0.75769 0.0
C577 C 0.08165 0.50002 0.76075 0.0
C578 C 0.15473 0.54379 0.6713 0.0
C579 C 0.11613 0.53654 0.7121 0.0
C580 C 0.18017 0.56493 0.65233 0.0
C581 C 0.19145 0.59939 0.65135 0.0
C582 C 0.14058 0.55723 0.68952 0.0
C583 C 0.17623 0.61163 0.66965 0.0
C584 C 0.10662 0.55162 0.73323 0.0
C585 C 0.08828 0.48477 0.73782 0.0
N586 N 0.15181 0.59065 0.68802 0.0
N587 N 0.10583 0.50336 0.71467 0.0
H588 H 0.55897 0.09418 0.9088 0.0
H589 H 0.68669 0.17144 0.77857 0.0
H590 H 0.63347 0.06899 0.89025 0.0
H591 H 0.61045 0.19504 0.79521 0.0
H592 H 0.66266 0.12824 0.81561 0.0
H593 H 0.5706 0.12319 0.86248 0.0
C594 C 0.5769 0.0937 0.89445 0.0
C595 C 0.59553 0.07948 0.90345 0.0
C596 C 0.65105 0.14272 0.81109 0.0
C597 C 0.60978 0.1135 0.85095 0.0
C598 C 0.66494 0.16767 0.79004 0.0
C599 C 0.65086 0.18732 0.7839 0.0
C600 C 0.62292 0.13736 0.82637 0.0
C601 C 0.62239 0.18081 0.79934 0.0
C602 C 0.58384 0.11061 0.86817 0.0
C603 C 0.61852 0.07959 0.88413 0.0
N604 N 0.60952 0.15656 0.81998 0.0
N605 N 0.62552 0.09702 0.85905 0.0
H606 H 0.55186 0.59125 0.05945 0.0
H607 H 0.43424 0.63832 0.97709 0.0
H608 H 0.51823 0.6533 0.0979 0.0
H609 H 0.52406 0.65692 0.93485 0.0
H610 H 0.4534 0.625 0.02154 0.0
H611 H 0.53191 0.59869 0.01246 0.0
C612 C 0.54021 0.60615 0.05822 0.0
C613 C 0.53596 0.62079 0.08308 0.0
C614 C 0.46866 0.6317 0.00238 0.0
C615 C 0.51245 0.62838 0.0299 0.0
C616 C 0.4578 0.63928 0.97712 0.0
C617 C 0.47785 0.64916 0.95249 0.0
C618 C 0.49927 0.63312 0.00271 0.0
C619 C 0.50817 0.64991 0.95361 0.0
C620 C 0.52876 0.61021 0.03149 0.0
C621 C 0.52077 0.64003 0.07992 0.0
N622 N 0.51801 0.64189 0.97836 0.0
N623 N 0.50922 0.64284 0.05402 0.0
H624 H 0.94015 0.56422 0.24538 0.0
H625 H 0.84657 0.38389 0.17064 0.0
H626 H 0.94664 0.47951 0.27356 0.0
H627 H 0.83489 0.46578 0.14218 0.0
H628 H 0.88847 0.42122 0.20467 0.0
H629 H 0.90882 0.53212 0.20281 0.0
C630 C 0.93614 0.53934 0.24189 0.0
C631 C 0.9462 0.52447 0.26263 0.0
C632 C 0.87687 0.43117 0.19101 0.0
C633 C 0.90947 0.48729 0.21495 0.0
C634 C 0.85264 0.40974 0.17157 0.0
C635 C 0.8368 0.42153 0.15351 0.0
C636 C 0.88548 0.46484 0.19278 0.0
C637 C 0.84618 0.45546 0.15579 0.0
C638 C 0.91784 0.52086 0.2179 0.0
C639 C 0.93961 0.49189 0.25777 0.0
N640 N 0.86983 0.47592 0.17517 0.0
N641 N 0.92134 0.47425 0.2346 0.0
loop_
_geom_bond_atom_site_label_1
_geom_bond_atom_site_label_2
_geom_bond_distance
_geom_bond_site_symmetry_2
_ccdc_geom_bond_type
H0 C8 0.930 . S
H1 C11 0.930 . S
H2 C13 0.930 . S
H3 C14 0.970 . S
H4 C14 0.970 . S
H5 C16 0.930 . S
H6 C18 0.930 . S
H7 C20 0.930 . S
C8 H0 0.930 . S
C8 C9 1.382 . S
C8 C10 1.426 . S
C9 C8 1.382 . S
C9 C13 1.389 . S
C10 C8 1.426 . S
C10 C11 1.375 . S
C10 C14 1.532 1_655 S
C11 H1 0.930 . S
C11 C10 1.375 . S
C11 C12 1.416 . S
C12 C11 1.416 . S
C12 C13 1.371 . S
C13 H2 0.930 . S
C13 C9 1.389 . S
C13 C12 1.371 . S
C14 H3 0.970 . S
C14 H4 0.970 . S
C14 C10 1.532 1_455 S
C14 C15 1.499 . S
C15 C14 1.499 . S
C15 C16 1.370 . S
C15 C20 1.415 . S
C16 H5 0.930 . S
C16 C15 1.370 . S
C16 C17 1.407 . S
C17 C16 1.407 . S
C17 C18 1.365 . S
C18 H6 0.930 . S
C18 C17 1.365 . S
C18 C19 1.393 . S
C19 C18 1.393 . S
C19 C20 1.387 . S
C20 H7 0.930 . S
C20 C15 1.415 . S
C20 C19 1.387 . S
H21 C29 0.930 . S
H22 C32 0.930 . S
H23 C34 0.930 . S
H24 C35 0.970 . S
H25 C35 0.970 . S
H26 C37 0.930 . S
H27 C39 0.930 . S
H28 C41 0.930 . S
C29 H21 0.930 . S
C29 C30 1.382 . S
C29 C31 1.426 . S
C30 C29 1.382 . S
C30 C34 1.389 . S
C31 C29 1.426 . S
C31 C32 1.375 . S
C31 C35 1.532 1_565 S
C32 H22 0.930 . S
C32 C31 1.375 . S
C32 C33 1.416 . S
C33 C32 1.416 . S
C33 C34 1.371 . S
C34 H23 0.930 . S
C34 C30 1.389 . S
C34 C33 1.371 . S
C35 H24 0.970 . S
C35 H25 0.970 . S
C35 C31 1.532 1_545 S
C35 C36 1.499 . S
C36 C35 1.499 . S
C36 C37 1.370 . S
C36 C41 1.415 . S
C37 H26 0.930 . S
C37 C36 1.370 . S
C37 C38 1.407 . S
C38 C37 1.407 . S
C38 C39 1.365 . S
C39 H27 0.930 . S
C39 C38 1.365 . S
C39 C40 1.393 . S
C40 C39 1.393 . S
C40 C41 1.387 . S
C41 H28 0.930 . S
C41 C36 1.415 . S
C41 C40 1.387 . S
H42 C50 0.930 . S
H43 C53 0.930 . S
H44 C55 0.930 . S
H45 C56 0.970 . S
H46 C56 0.970 . S
H47 C58 0.930 . S
H48 C60 0.930 . S
H49 C62 0.930 . S
C50 H42 0.930 . S
C50 C51 1.382 . S
C50 C52 1.426 . S
C51 C50 1.382 . S
C51 C55 1.389 . S
C52 C50 1.426 . S
C52 C53 1.375 . S
C52 C56 1.532 . S
C53 H43 0.930 . S
C53 C52 1.375 . S
C53 C54 1.416 . S
C54 C53 1.416 . S
C54 C55 1.371 . S
C55 H44 0.930 . S
C55 C51 1.389 . S
C55 C54 1.371 . S
C56 H45 0.970 . S
C56 H46 0.970 . S
C56 C52 1.532 . S
C56 C57 1.499 . S
C57 C56 1.499 . S
C57 C58 1.370 . S
C57 C62 1.415 . S
C58 H47 0.930 . S
C58 C57 1.370 . S
C58 C59 1.407 . S
C59 C58 1.407 . S
C59 C60 1.365 . S
C60 H48 0.930 . S
C60 C59 1.365 . S
C60 C61 1.393 . S
C61 C60 1.393 . S
C61 C62 1.387 . S
C62 H49 0.930 . S
C62 C57 1.415 . S
C62 C61 1.387 . S
H63 C71 0.930 . S
H64 C74 0.930 . S
H65 C76 0.930 . S
H66 C77 0.968 . S
H67 C77 0.970 . S
H68 C79 0.930 . S
H69 C81 0.930 . S
H70 C83 0.930 . S
C71 H63 0.930 . S
C71 C72 1.382 . S
C71 C73 1.426 . S
C72 C71 1.382 . S
C72 C76 1.389 . S
C73 C71 1.426 . S
C73 C74 1.375 . S
C73 C77 1.532 1_655 S
C74 H64 0.930 . S
C74 C73 1.375 . S
C74 C75 1.416 . S
C75 C74 1.416 . S
C75 C76 1.371 . S
C76 H65 0.930 . S
C76 C72 1.389 . S
C76 C75 1.371 . S
C77 H66 0.968 . S
C77 H67 0.970 . S
C77 C73 1.532 1_455 S
C77 C78 1.499 . S
C78 C77 1.499 . S
C78 C79 1.370 . S
C78 C83 1.415 . S
C79 H68 0.930 . S
C79 C78 1.370 . S
C79 C80 1.407 . S
C80 C79 1.407 . S
C80 C81 1.365 . S
C81 H69 0.930 . S
C81 C80 1.365 . S
C81 C82 1.393 . S
C82 C81 1.393 . S
C82 C83 1.387 . S
C83 H70 0.930 . S
C83 C78 1.415 . S
C83 C82 1.387 . S
H84 C92 0.930 . S
H85 C95 0.930 . S
H86 C97 0.930 . S
H87 C98 0.970 1_554 S
H88 C98 0.970 1_565 S
H89 C100 0.930 . S
H90 C102 0.930 . S
H91 C104 0.930 . S
C92 H84 0.930 . S
C92 C93 1.379 1_554 S
C92 C94 1.426 1_554 S
C93 C92 1.379 1_556 S
C93 C97 1.400 . S
C94 C92 1.426 1_556 S
C94 C95 1.375 . S
C94 C98 1.532 . S
C95 H85 0.930 . S
C95 C94 1.375 . S
C95 C96 1.416 . S
C96 C95 1.416 . S
C96 C97 1.371 . S
C97 H86 0.930 . S
C97 C93 1.400 . S
C97 C96 1.371 . S
C98 H87 0.970 1_556 S
C98 H88 0.970 1_545 S
C98 C94 1.532 . S
C98 C99 1.492 1_546 S
C99 C98 1.492 1_564 S
C99 C100 1.402 . S
C99 C104 1.392 1_554 S
C100 H89 0.930 . S
C100 C99 1.402 . S
C100 C101 1.407 . S
C101 C100 1.407 . S
C101 C102 1.365 . S
C102 H90 0.930 . S
C102 C101 1.365 . S
C102 C103 1.393 1_554 S
C103 C102 1.393 1_556 S
C103 C104 1.387 . S
C104 H91 0.930 . S
C104 C99 1.392 1_556 S
C104 C103 1.387 . S
H105 C113 0.930 . S
H106 C116 0.930 . S
H107 C118 0.930 . S
H108 C119 0.970 . S
H109 C119 0.970 . S
H110 C121 0.930 . S
H111 C123 0.930 . S
H112 C125 0.930 . S
C113 H105 0.930 . S
C113 C114 1.382 . S
C113 C115 1.426 . S
C114 C113 1.382 . S
C114 C118 1.389 . S
C115 C113 1.426 . S
C115 C116 1.375 . S
C115 C119 1.532 . S
C116 H106 0.930 . S
C116 C115 1.375 . S
C116 C117 1.416 . S
C117 C116 1.416 . S
C117 C118 1.371 . S
C118 H107 0.930 . S
C118 C114 1.389 . S
C118 C117 1.371 . S
C119 H108 0.970 . S
C119 H109 0.970 . S
C119 C115 1.532 . S
C119 C120 1.499 . S
C120 C119 1.499 . S
C120 C121 1.370 . S
C120 C125 1.415 . S
C121 H110 0.930 . S
C121 C120 1.370 . S
C121 C122 1.407 . S
C122 C121 1.407 . S
C122 C123 1.365 . S
C123 H111 0.930 . S
C123 C122 1.365 . S
C123 C124 1.393 . S
C124 C123 1.393 . S
C124 C125 1.387 . S
C125 H112 0.930 . S
C125 C120 1.415 . S
C125 C124 1.387 . S
Co126 O127 2.216 . S
Co126 O128 2.091 . S
Co126 O130 2.004 . S
Co126 O136 2.021 . S
Co126 O138 2.137 . S
Co126 O139 2.244 . S
O127 Co126 2.216 . S
O127 C134 1.247 . S
O128 Co126 2.091 . S
O128 C134 1.261 . S
C129 O138 1.247 . S
C129 O139 1.272 . S
O130 Co126 2.004 . S
O130 C135 1.259 . S
Co131 O132 2.061 . S
Co131 O137 2.052 . S
Co131 O139 2.135 . S
O132 Co131 2.061 . S
O132 C135 1.235 . S
C133 O136 1.238 . S
C133 O137 1.241 . S
C134 O127 1.247 . S
C134 O128 1.261 . S
C135 O130 1.259 . S
C135 O132 1.235 . S
O136 Co126 2.021 . S
O136 C133 1.238 . S
O137 Co131 2.052 . S
O137 C133 1.241 . S
O138 Co126 2.137 . S
O138 C129 1.247 . S
O139 Co126 2.244 . S
O139 C129 1.272 . S
O139 Co131 2.135 . S
Co140 O141 2.216 . S
Co140 O142 2.091 . S
Co140 O144 2.004 . S
Co140 O150 2.021 . S
Co140 O152 2.137 . S
Co140 O153 2.244 . S
O141 Co140 2.216 . S
O141 C148 1.247 . S
O142 Co140 2.091 . S
O142 C148 1.261 . S
C143 O152 1.247 . S
C143 O153 1.272 . S
O144 Co140 2.004 . S
O144 C149 1.259 . S
Co145 O146 2.061 . S
Co145 O151 2.052 . S
Co145 O153 2.135 . S
O146 Co145 2.061 . S
O146 C149 1.235 . S
C147 O150 1.238 . S
C147 O151 1.241 . S
C148 O141 1.247 . S
C148 O142 1.261 . S
C149 O144 1.259 . S
C149 O146 1.235 . S
O150 Co140 2.021 . S
O150 C147 1.238 . S
O151 Co145 2.052 . S
O151 C147 1.241 . S
O152 Co140 2.137 . S
O152 C143 1.247 . S
O153 Co140 2.244 . S
O153 C143 1.272 . S
O153 Co145 2.135 . S
Co154 O155 2.216 . S
Co154 O156 2.091 . S
Co154 O158 2.004 . S
Co154 O164 2.021 . S
Co154 O166 2.137 . S
Co154 O167 2.244 . S
O155 Co154 2.216 . S
O155 C162 1.247 . S
O156 Co154 2.091 . S
O156 C162 1.261 . S
C157 O166 1.247 . S
C157 O167 1.272 . S
O158 Co154 2.004 . S
O158 C163 1.259 . S
Co159 O160 2.061 . S
Co159 O165 2.052 . S
Co159 O167 2.135 . S
O160 Co159 2.061 . S
O160 C163 1.235 . S
C161 O164 1.238 . S
C161 O165 1.241 . S
C162 O155 1.247 . S
C162 O156 1.261 . S
C163 O158 1.259 . S
C163 O160 1.235 . S
O164 Co154 2.021 . S
O164 C161 1.238 . S
O165 Co159 2.052 . S
O165 C161 1.241 . S
O166 Co154 2.137 . S
O166 C157 1.247 . S
O167 Co154 2.244 . S
O167 C157 1.272 . S
O167 Co159 2.135 . S
Co168 O169 2.216 . S
Co168 O170 2.091 . S
Co168 O172 2.004 . S
Co168 O178 2.021 . S
Co168 O180 2.137 . S
Co168 O181 2.244 . S
O169 Co168 2.216 . S
O169 C176 1.247 . S
O170 Co168 2.091 . S
O170 C176 1.261 . S
C171 O180 1.247 . S
C171 O181 1.272 . S
O172 Co168 2.004 . S
O172 C177 1.259 . S
Co173 O174 2.061 . S
Co173 O179 2.052 . S
Co173 O181 2.135 . S
O174 Co173 2.061 . S
O174 C177 1.235 . S
C175 O178 1.238 . S
C175 O179 1.241 . S
C176 O169 1.247 . S
C176 O170 1.261 . S
C177 O172 1.259 . S
C177 O174 1.235 . S
O178 Co168 2.021 . S
O178 C175 1.238 . S
O179 Co173 2.052 . S
O179 C175 1.241 . S
O180 Co168 2.137 . S
O180 C171 1.247 . S
O181 Co168 2.244 . S
O181 C171 1.272 . S
O181 Co173 2.135 . S
Co182 O183 2.216 . S
Co182 O184 2.091 . S
Co182 O186 2.004 . S
Co182 O192 2.021 . S
Co182 O194 2.137 . S
Co182 O195 2.244 . S
O183 Co182 2.216 . S
O183 C190 1.247 . S
O184 Co182 2.091 . S
O184 C190 1.261 . S
C185 O194 1.247 . S
C185 O195 1.272 . S
O186 Co182 2.004 . S
O186 C191 1.259 . S
Co187 O188 2.061 . S
Co187 O193 2.052 . S
Co187 O195 2.135 . S
O188 Co187 2.061 . S
O188 C191 1.235 . S
C189 O192 1.238 . S
C189 O193 1.241 . S
C190 O183 1.247 . S
C190 O184 1.261 . S
C191 O186 1.259 . S
C191 O188 1.235 . S
O192 Co182 2.021 . S
O192 C189 1.238 . S
O193 Co187 2.052 . S
O193 C189 1.241 . S
O194 Co182 2.137 . S
O194 C185 1.247 . S
O195 Co182 2.244 . S
O195 C185 1.272 . S
O195 Co187 2.135 . S
Co196 O197 2.216 . S
Co196 O198 2.091 . S
Co196 O200 2.004 . S
Co196 O206 2.021 . S
Co196 O208 2.137 . S
Co196 O209 2.244 . S
O197 Co196 2.216 . S
O197 C204 1.247 . S
O198 Co196 2.091 . S
O198 C204 1.261 . S
C199 O208 1.247 . S
C199 O209 1.272 . S
O200 Co196 2.004 . S
O200 C205 1.259 . S
Co201 O202 2.061 . S
Co201 O207 2.052 . S
Co201 O209 2.135 . S
O202 Co201 2.061 . S
O202 C205 1.235 . S
C203 O206 1.238 . S
C203 O207 1.241 . S
C204 O197 1.247 . S
C204 O198 1.261 . S
C205 O200 1.259 . S
C205 O202 1.235 . S
O206 Co196 2.021 . S
O206 C203 1.238 . S
O207 Co201 2.052 . S
O207 C203 1.241 . S
O208 Co196 2.137 . S
O208 C199 1.247 . S
O209 Co196 2.244 . S
O209 C199 1.272 . S
O209 Co201 2.135 . S
H210 C216 0.930 . S
H211 C220 0.930 . S
H212 C225 0.929 . S
H213 C223 0.929 . S
H214 C218 0.929 . S
H215 C224 0.929 . S
C216 H210 0.930 . S
C216 C217 1.367 . S
C216 C224 1.378 . S
C217 C216 1.367 . S
C217 C225 1.433 . S
C218 H214 0.929 . S
C218 C220 1.378 . S
C218 C222 1.350 . S
C219 C222 1.463 . S
C219 C224 1.350 . S
C219 N227 1.427 . S
C220 H211 0.930 . S
C220 C218 1.378 . S
C220 C221 1.367 . S
C221 C220 1.367 . S
C221 C223 1.433 . S
C222 C218 1.350 . S
C222 C219 1.463 . S
C222 N226 1.427 . S
C223 H213 0.929 . S
C223 C221 1.433 . S
C223 N226 1.384 . S
C224 H215 0.929 . S
C224 C216 1.378 . S
C224 C219 1.350 . S
C225 H212 0.929 . S
C225 C217 1.433 . S
C225 N227 1.384 . S
N226 C222 1.427 . S
N226 C223 1.384 . S
N227 C219 1.427 . S
N227 C225 1.384 . S
H228 C234 0.930 . S
H229 C238 0.930 . S
H230 C243 0.929 . S
H231 C241 0.929 . S
H232 C236 0.929 . S
H233 C242 0.929 . S
C234 H228 0.930 . S
C234 C235 1.367 . S
C234 C242 1.378 . S
C235 C234 1.367 . S
C235 C243 1.433 . S
C236 H232 0.929 . S
C236 C238 1.378 . S
C236 C240 1.350 . S
C237 C240 1.463 . S
C237 C242 1.350 . S
C237 N245 1.427 . S
C238 H229 0.930 . S
C238 C236 1.378 . S
C238 C239 1.367 . S
C239 C238 1.367 . S
C239 C241 1.433 . S
C240 C236 1.350 . S
C240 C237 1.463 . S
C240 N244 1.427 . S
C241 H231 0.929 . S
C241 C239 1.433 . S
C241 N244 1.384 . S
C242 H233 0.929 . S
C242 C234 1.378 . S
C242 C237 1.350 . S
C243 H230 0.929 . S
C243 C235 1.433 . S
C243 N245 1.384 . S
N244 C240 1.427 . S
N244 C241 1.384 . S
N245 C237 1.427 . S
N245 C243 1.384 . S
H246 C252 0.930 . S
H247 C256 0.930 . S
H248 C261 0.929 . S
H249 C259 0.929 . S
H250 C254 0.929 . S
H251 C260 0.929 . S
C252 H246 0.930 . S
C252 C253 1.367 . S
C252 C260 1.378 . S
C253 C252 1.367 . S
C253 C261 1.433 . S
C254 H250 0.929 . S
C254 C256 1.378 . S
C254 C258 1.350 . S
C255 C258 1.463 . S
C255 C260 1.350 . S
C255 N263 1.427 . S
C256 H247 0.930 . S
C256 C254 1.378 . S
C256 C257 1.367 . S
C257 C256 1.367 . S
C257 C259 1.433 . S
C258 C254 1.350 . S
C258 C255 1.463 . S
C258 N262 1.427 . S
C259 H249 0.929 . S
C259 C257 1.433 . S
C259 N262 1.384 . S
C260 H251 0.929 . S
C260 C252 1.378 . S
C260 C255 1.350 . S
C261 H248 0.929 . S
C261 C253 1.433 . S
C261 N263 1.384 . S
N262 C258 1.427 . S
N262 C259 1.384 . S
N263 C255 1.427 . S
N263 C261 1.384 . S
H264 C270 0.930 . S
H265 C274 0.930 . S
H266 C279 0.929 . S
H267 C277 0.929 . S
H268 C272 0.929 . S
H269 C278 0.929 . S
C270 H264 0.930 . S
C270 C271 1.367 . S
C270 C278 1.378 . S
C271 C270 1.367 . S
C271 C279 1.433 . S
C272 H268 0.929 . S
C272 C274 1.378 . S
C272 C276 1.350 . S
C273 C276 1.463 . S
C273 C278 1.350 . S
C273 N281 1.427 . S
C274 H265 0.930 . S
C274 C272 1.378 . S
C274 C275 1.367 . S
C275 C274 1.367 . S
C275 C277 1.433 . S
C276 C272 1.350 . S
C276 C273 1.463 . S
C276 N280 1.427 . S
C277 H267 0.929 . S
C277 C275 1.433 . S
C277 N280 1.384 . S
C278 H269 0.929 . S
C278 C270 1.378 . S
C278 C273 1.350 . S
C279 H266 0.929 . S
C279 C271 1.433 . S
C279 N281 1.384 . S
N280 C276 1.427 . S
N280 C277 1.384 . S
N281 C273 1.427 . S
N281 C279 1.384 . S
H282 C288 0.930 . S
H283 C292 0.930 . S
H284 C297 0.929 . S
H285 C295 0.929 . S
H286 C290 0.929 . S
H287 C296 0.929 . S
C288 H282 0.930 . S
C288 C289 1.367 . S
C288 C296 1.378 . S
C289 C288 1.367 . S
C289 C297 1.433 . S
C290 H286 0.929 . S
C290 C292 1.378 . S
C290 C294 1.350 . S
C291 C294 1.463 . S
C291 C296 1.350 . S
C291 N299 1.427 . S
C292 H283 0.930 . S
C292 C290 1.378 . S
C292 C293 1.367 . S
C293 C292 1.367 . S
C293 C295 1.433 . S
C294 C290 1.350 . S
C294 C291 1.463 . S
C294 N298 1.427 . S
C295 H285 0.929 . S
C295 C293 1.433 . S
C295 N298 1.384 . S
C296 H287 0.929 . S
C296 C288 1.378 . S
C296 C291 1.350 . S
C297 H284 0.929 . S
C297 C289 1.433 . S
C297 N299 1.384 . S
N298 C294 1.427 . S
N298 C295 1.384 . S
N299 C291 1.427 . S
N299 C297 1.384 . S
H300 C306 0.930 . S
H301 C310 0.930 . S
H302 C315 0.929 . S
H303 C313 0.929 . S
H304 C308 0.929 . S
H305 C314 0.929 . S
C306 H300 0.930 . S
C306 C307 1.367 . S
C306 C314 1.378 . S
C307 C306 1.367 . S
C307 C315 1.433 . S
C308 H304 0.929 . S
C308 C310 1.378 . S
C308 C312 1.350 . S
C309 C312 1.463 . S
C309 C314 1.350 . S
C309 N317 1.427 . S
C310 H301 0.930 . S
C310 C308 1.378 . S
C310 C311 1.367 . S
C311 C310 1.367 . S
C311 C313 1.433 . S
C312 C308 1.350 . S
C312 C309 1.463 . S
C312 N316 1.427 . S
C313 H303 0.929 . S
C313 C311 1.433 . S
C313 N316 1.384 . S
C314 H305 0.929 . S
C314 C306 1.378 . S
C314 C309 1.350 . S
C315 H302 0.929 . S
C315 C307 1.433 . S
C315 N317 1.384 . S
N316 C312 1.427 . S
N316 C313 1.384 . S
N317 C309 1.427 . S
N317 C315 1.384 . S
H318 C324 0.930 . S
H319 C328 0.930 . S
H320 C333 0.929 . S
H321 C331 0.929 . S
H322 C326 0.929 . S
H323 C332 0.929 . S
C324 H318 0.930 . S
C324 C325 1.367 . S
C324 C332 1.378 . S
C325 C324 1.367 . S
C325 C333 1.433 . S
C326 H322 0.929 . S
C326 C328 1.378 . S
C326 C330 1.350 . S
C327 C330 1.463 . S
C327 C332 1.350 . S
C327 N335 1.427 . S
C328 H319 0.930 . S
C328 C326 1.378 . S
C328 C329 1.367 . S
C329 C328 1.367 . S
C329 C331 1.433 . S
C330 C326 1.350 . S
C330 C327 1.463 . S
C330 N334 1.427 . S
C331 H321 0.929 . S
C331 C329 1.433 . S
C331 N334 1.384 . S
C332 H323 0.929 . S
C332 C324 1.378 . S
C332 C327 1.350 . S
C333 H320 0.929 . S
C333 C325 1.433 . S
C333 N335 1.384 . S
N334 C330 1.427 . S
N334 C331 1.384 . S
N335 C327 1.427 . S
N335 C333 1.384 . S
H336 C342 0.930 . S
H337 C346 0.930 . S
H338 C351 0.929 . S
H339 C349 0.929 . S
H340 C344 0.929 . S
H341 C350 0.929 . S
C342 H336 0.930 . S
C342 C343 1.367 . S
C342 C350 1.378 . S
C343 C342 1.367 . S
C343 C351 1.433 . S
C344 H340 0.929 . S
C344 C346 1.378 . S
C344 C348 1.350 . S
C345 C348 1.463 . S
C345 C350 1.350 . S
C345 N353 1.427 . S
C346 H337 0.930 . S
C346 C344 1.378 . S
C346 C347 1.367 . S
C347 C346 1.367 . S
C347 C349 1.433 . S
C348 C344 1.350 . S
C348 C345 1.463 . S
C348 N352 1.427 . S
C349 H339 0.929 . S
C349 C347 1.433 . S
C349 N352 1.384 . S
C350 H341 0.929 . S
C350 C342 1.378 . S
C350 C345 1.350 . S
C351 H338 0.929 . S
C351 C343 1.433 . S
C351 N353 1.384 . S
N352 C348 1.427 . S
N352 C349 1.384 . S
N353 C345 1.427 . S
N353 C351 1.384 . S
H354 C360 0.930 . S
H355 C364 0.930 . S
H356 C369 0.929 . S
H357 C367 0.929 . S
H358 C362 0.929 . S
H359 C368 0.929 . S
C360 H354 0.930 . S
C360 C361 1.367 . S
C360 C368 1.378 . S
C361 C360 1.367 . S
C361 C369 1.433 . S
C362 H358 0.929 . S
C362 C364 1.378 . S
C362 C366 1.350 . S
C363 C366 1.463 . S
C363 C368 1.350 . S
C363 N371 1.427 . S
C364 H355 0.930 . S
C364 C362 1.378 . S
C364 C365 1.367 . S
C365 C364 1.367 . S
C365 C367 1.433 . S
C366 C362 1.350 . S
C366 C363 1.463 . S
C366 N370 1.427 . S
C367 H357 0.929 . S
C367 C365 1.433 . S
C367 N370 1.384 . S
C368 H359 0.929 . S
C368 C360 1.378 . S
C368 C363 1.350 . S
C369 H356 0.929 . S
C369 C361 1.433 . S
C369 N371 1.384 . S
N370 C366 1.427 . S
N370 C367 1.384 . S
N371 C363 1.427 . S
N371 C369 1.384 . S
H372 C378 0.930 . S
H373 C382 0.930 . S
H374 C387 0.929 . S
H375 C385 0.929 . S
H376 C380 0.929 . S
H377 C386 0.929 1_556 S
C378 H372 0.930 . S
C378 C379 1.367 1_556 S
C378 C386 1.378 1_556 S
C379 C378 1.367 1_554 S
C379 C387 1.433 . S
C380 H376 0.929 . S
C380 C382 1.378 . S
C380 C384 1.350 . S
C381 C384 1.463 . S
C381 C386 1.350 . S
C381 N389 1.427 . S
C382 H373 0.930 . S
C382 C380 1.378 . S
C382 C383 1.367 . S
C383 C382 1.367 . S
C383 C385 1.433 . S
C384 C380 1.350 . S
C384 C381 1.463 . S
C384 N388 1.427 . S
C385 H375 0.929 . S
C385 C383 1.433 . S
C385 N388 1.384 . S
C386 H377 0.929 1_554 S
C386 C378 1.378 1_554 S
C386 C381 1.350 . S
C387 H374 0.929 . S
C387 C379 1.433 . S
C387 N389 1.384 . S
N388 C384 1.427 . S
N388 C385 1.384 . S
N389 C381 1.427 . S
N389 C387 1.384 . S
H390 C396 0.930 . S
H391 C400 0.930 . S
H392 C405 0.929 . S
H393 C403 0.929 . S
H394 C398 0.929 . S
H395 C404 0.929 . S
C396 H390 0.930 . S
C396 C397 1.367 . S
C396 C404 1.378 . S
C397 C396 1.367 . S
C397 C405 1.433 . S
C398 H394 0.929 . S
C398 C400 1.378 . S
C398 C402 1.350 . S
C399 C402 1.463 . S
C399 C404 1.350 . S
C399 N407 1.427 . S
C400 H391 0.930 . S
C400 C398 1.378 . S
C400 C401 1.367 . S
C401 C400 1.367 . S
C401 C403 1.433 . S
C402 C398 1.350 . S
C402 C399 1.463 . S
C402 N406 1.427 . S
C403 H393 0.929 . S
C403 C401 1.433 . S
C403 N406 1.384 . S
C404 H395 0.929 . S
C404 C396 1.378 . S
C404 C399 1.350 . S
C405 H392 0.929 . S
C405 C397 1.433 . S
C405 N407 1.384 . S
N406 C402 1.427 . S
N406 C403 1.384 . S
N407 C399 1.427 . S
N407 C405 1.384 . S
H408 C414 0.930 . S
H409 C418 0.930 . S
H410 C423 0.929 . S
H411 C421 0.929 . S
H412 C416 0.929 . S
H413 C422 0.929 . S
C414 H408 0.930 . S
C414 C415 1.367 . S
C414 C422 1.378 . S
C415 C414 1.367 . S
C415 C423 1.433 . S
C416 H412 0.929 . S
C416 C418 1.378 . S
C416 C420 1.350 . S
C417 C420 1.463 . S
C417 C422 1.350 . S
C417 N425 1.427 . S
C418 H409 0.930 . S
C418 C416 1.378 . S
C418 C419 1.367 . S
C419 C418 1.367 . S
C419 C421 1.433 . S
C420 C416 1.350 . S
C420 C417 1.463 . S
C420 N424 1.427 . S
C421 H411 0.929 . S
C421 C419 1.433 . S
C421 N424 1.384 . S
C422 H413 0.929 . S
C422 C414 1.378 . S
C422 C417 1.350 . S
C423 H410 0.929 . S
C423 C415 1.433 . S
C423 N425 1.384 . S
N424 C420 1.427 . S
N424 C421 1.384 . S
N425 C417 1.427 . S
N425 C423 1.384 . S
H426 C432 0.930 . S
H427 C436 0.930 . S
H428 C441 0.929 . S
H429 C439 0.929 . S
H430 C434 0.929 . S
H431 C440 0.929 . S
C432 H426 0.930 . S
C432 C433 1.367 . S
C432 C440 1.378 . S
C433 C432 1.367 . S
C433 C441 1.433 . S
C434 H430 0.929 . S
C434 C436 1.378 . S
C434 C438 1.350 . S
C435 C438 1.463 . S
C435 C440 1.350 . S
C435 N443 1.427 . S
C436 H427 0.930 . S
C436 C434 1.378 . S
C436 C437 1.367 . S
C437 C436 1.367 . S
C437 C439 1.433 . S
C438 C434 1.350 . S
C438 C435 1.463 . S
C438 N442 1.427 . S
C439 H429 0.929 . S
C439 C437 1.433 . S
C439 N442 1.384 . S
C440 H431 0.929 . S
C440 C432 1.378 . S
C440 C435 1.350 . S
C441 H428 0.929 . S
C441 C433 1.433 . S
C441 N443 1.384 . S
N442 C438 1.427 . S
N442 C439 1.384 . S
N443 C435 1.427 . S
N443 C441 1.384 . S
H444 C450 0.930 . S
H445 C454 0.930 . S
H446 C459 0.929 . S
H447 C457 0.929 . S
H448 C452 0.929 . S
H449 C458 0.929 . S
C450 H444 0.930 . S
C450 C451 1.367 . S
C450 C458 1.378 . S
C451 C450 1.367 . S
C451 C459 1.433 . S
C452 H448 0.929 . S
C452 C454 1.378 . S
C452 C456 1.350 . S
C453 C456 1.463 . S
C453 C458 1.350 . S
C453 N461 1.427 . S
C454 H445 0.930 . S
C454 C452 1.378 . S
C454 C455 1.367 . S
C455 C454 1.367 . S
C455 C457 1.433 . S
C456 C452 1.350 . S
C456 C453 1.463 . S
C456 N460 1.427 . S
C457 H447 0.929 . S
C457 C455 1.433 . S
C457 N460 1.384 . S
C458 H449 0.929 . S
C458 C450 1.378 . S
C458 C453 1.350 . S
C459 H446 0.929 . S
C459 C451 1.433 . S
C459 N461 1.384 . S
N460 C456 1.427 . S
N460 C457 1.384 . S
N461 C453 1.427 . S
N461 C459 1.384 . S
H462 C468 0.930 . S
H463 C472 0.930 . S
H464 C477 0.929 . S
H465 C475 0.929 . S
H466 C470 0.929 . S
H467 C476 0.929 . S
C468 H462 0.930 . S
C468 C469 1.367 . S
C468 C476 1.378 . S
C469 C468 1.367 . S
C469 C477 1.433 . S
C470 H466 0.929 . S
C470 C472 1.378 . S
C470 C474 1.350 . S
C471 C474 1.463 . S
C471 C476 1.350 . S
C471 N479 1.427 . S
C472 H463 0.930 . S
C472 C470 1.378 . S
C472 C473 1.367 . S
C473 C472 1.367 . S
C473 C475 1.433 . S
C474 C470 1.350 . S
C474 C471 1.463 . S
C474 N478 1.427 . S
C475 H465 0.929 . S
C475 C473 1.433 . S
C475 N478 1.384 . S
C476 H467 0.929 . S
C476 C468 1.378 . S
C476 C471 1.350 . S
C477 H464 0.929 . S
C477 C469 1.433 . S
C477 N479 1.384 . S
N478 C474 1.427 . S
N478 C475 1.384 . S
N479 C471 1.427 . S
N479 C477 1.384 . S
H480 C486 0.930 . S
H481 C490 0.938 . S
H482 C495 0.929 . S
H483 C493 0.929 . S
H484 C488 0.929 . S
H485 C494 0.929 . S
C486 H480 0.930 . S
C486 C487 1.367 . S
C486 C494 1.378 . S
C487 C486 1.367 . S
C487 C495 1.433 . S
C488 H484 0.929 . S
C488 C490 1.369 1_556 S
C488 C492 1.350 . S
C489 C492 1.463 . S
C489 C494 1.350 . S
C489 N497 1.427 . S
C490 H481 0.938 . S
C490 C488 1.369 1_554 S
C490 C491 1.368 . S
C491 C490 1.368 . S
C491 C493 1.433 1_554 S
C492 C488 1.350 . S
C492 C489 1.463 . S
C492 N496 1.427 . S
C493 H483 0.929 . S
C493 C491 1.433 1_556 S
C493 N496 1.384 . S
C494 H485 0.929 . S
C494 C486 1.378 . S
C494 C489 1.350 . S
C495 H482 0.929 . S
C495 C487 1.433 . S
C495 N497 1.384 . S
N496 C492 1.427 . S
N496 C493 1.384 . S
N497 C489 1.427 . S
N497 C495 1.384 . S
H498 C504 0.930 . S
H499 C508 0.930 . S
H500 C513 0.929 . S
H501 C511 0.929 . S
H502 C506 0.929 . S
H503 C512 0.929 . S
C504 H498 0.930 . S
C504 C505 1.367 . S
C504 C512 1.378 . S
C505 C504 1.367 . S
C505 C513 1.433 . S
C506 H502 0.929 . S
C506 C508 1.378 . S
C506 C510 1.350 . S
C507 C510 1.463 . S
C507 C512 1.350 . S
C507 N515 1.427 . S
C508 H499 0.930 . S
C508 C506 1.378 . S
C508 C509 1.367 . S
C509 C508 1.367 . S
C509 C511 1.433 . S
C510 C506 1.350 . S
C510 C507 1.463 . S
C510 N514 1.427 . S
C511 H501 0.929 . S
C511 C509 1.433 . S
C511 N514 1.384 . S
C512 H503 0.929 . S
C512 C504 1.378 . S
C512 C507 1.350 . S
C513 H500 0.929 . S
C513 C505 1.433 . S
C513 N515 1.384 . S
N514 C510 1.427 . S
N514 C511 1.384 . S
N515 C507 1.427 . S
N515 C513 1.384 . S
H516 C522 0.930 . S
H517 C526 0.930 . S
H518 C531 0.929 . S
H519 C529 0.929 . S
H520 C524 0.929 . S
H521 C530 0.929 . S
C522 H516 0.930 . S
C522 C523 1.367 . S
C522 C530 1.378 . S
C523 C522 1.367 . S
C523 C531 1.433 . S
C524 H520 0.929 . S
C524 C526 1.378 . S
C524 C528 1.350 . S
C525 C528 1.463 . S
C525 C530 1.350 . S
C525 N533 1.427 . S
C526 H517 0.930 . S
C526 C524 1.378 . S
C526 C527 1.367 . S
C527 C526 1.367 . S
C527 C529 1.433 . S
C528 C524 1.350 . S
C528 C525 1.463 . S
C528 N532 1.427 . S
C529 H519 0.929 . S
C529 C527 1.433 . S
C529 N532 1.384 . S
C530 H521 0.929 . S
C530 C522 1.378 . S
C530 C525 1.350 . S
C531 H518 0.929 . S
C531 C523 1.433 . S
C531 N533 1.384 . S
N532 C528 1.427 . S
N532 C529 1.384 . S
N533 C525 1.427 . S
N533 C531 1.384 . S
H534 C540 0.930 . S
H535 C544 0.930 . S
H536 C549 0.929 . S
H537 C547 0.929 . S
H538 C542 0.929 . S
H539 C548 0.929 . S
C540 H534 0.930 . S
C540 C541 1.367 . S
C540 C548 1.378 . S
C541 C540 1.367 . S
C541 C549 1.433 . S
C542 H538 0.929 . S
C542 C544 1.378 . S
C542 C546 1.350 . S
C543 C546 1.463 . S
C543 C548 1.350 . S
C543 N551 1.427 . S
C544 H535 0.930 . S
C544 C542 1.378 . S
C544 C545 1.367 . S
C545 C544 1.367 . S
C545 C547 1.433 . S
C546 C542 1.350 . S
C546 C543 1.463 . S
C546 N550 1.427 . S
C547 H537 0.929 . S
C547 C545 1.433 . S
C547 N550 1.384 . S
C548 H539 0.929 . S
C548 C540 1.378 . S
C548 C543 1.350 . S
C549 H536 0.929 . S
C549 C541 1.433 . S
C549 N551 1.384 . S
N550 C546 1.427 . S
N550 C547 1.384 . S
N551 C543 1.427 . S
N551 C549 1.384 . S
H552 C558 0.930 . S
H553 C562 0.930 . S
H554 C567 0.929 . S
H555 C565 0.929 . S
H556 C560 0.929 . S
H557 C566 0.929 . S
C558 H552 0.930 . S
C558 C559 1.367 . S
C558 C566 1.378 . S
C559 C558 1.367 . S
C559 C567 1.433 . S
C560 H556 0.929 . S
C560 C562 1.378 . S
C560 C564 1.350 . S
C561 C564 1.463 . S
C561 C566 1.350 . S
C561 N569 1.427 . S
C562 H553 0.930 . S
C562 C560 1.378 . S
C562 C563 1.367 . S
C563 C562 1.367 . S
C563 C565 1.433 . S
C564 C560 1.350 . S
C564 C561 1.463 . S
C564 N568 1.427 . S
C565 H555 0.929 . S
C565 C563 1.433 . S
C565 N568 1.384 . S
C566 H557 0.929 . S
C566 C558 1.378 . S
C566 C561 1.350 . S
C567 H554 0.929 . S
C567 C559 1.433 . S
C567 N569 1.384 . S
N568 C564 1.427 . S
N568 C565 1.384 . S
N569 C561 1.427 . S
N569 C567 1.384 . S
H570 C576 0.930 . S
H571 C580 0.930 . S
H572 C585 0.929 . S
H573 C583 0.929 . S
H574 C578 0.929 . S
H575 C584 0.929 . S
C576 H570 0.930 . S
C576 C577 1.367 . S
C576 C584 1.378 . S
C577 C576 1.367 . S
C577 C585 1.433 . S
C578 H574 0.929 . S
C578 C580 1.378 . S
C578 C582 1.350 . S
C579 C582 1.463 . S
C579 C584 1.350 . S
C579 N587 1.427 . S
C580 H571 0.930 . S
C580 C578 1.378 . S
C580 C581 1.367 . S
C581 C580 1.367 . S
C581 C583 1.433 . S
C582 C578 1.350 . S
C582 C579 1.463 . S
C582 N586 1.427 . S
C583 H573 0.929 . S
C583 C581 1.433 . S
C583 N586 1.384 . S
C584 H575 0.929 . S
C584 C576 1.378 . S
C584 C579 1.350 . S
C585 H572 0.929 . S
C585 C577 1.433 . S
C585 N587 1.384 . S
N586 C582 1.427 . S
N586 C583 1.384 . S
N587 C579 1.427 . S
N587 C585 1.384 . S
H588 C594 0.930 . S
H589 C598 0.930 . S
H590 C603 0.929 . S
H591 C601 0.929 . S
H592 C596 0.929 . S
H593 C602 0.929 . S
C594 H588 0.930 . S
C594 C595 1.367 . S
C594 C602 1.378 . S
C595 C594 1.367 . S
C595 C603 1.433 . S
C596 H592 0.929 . S
C596 C598 1.378 . S
C596 C600 1.350 . S
C597 C600 1.463 . S
C597 C602 1.350 . S
C597 N605 1.427 . S
C598 H589 0.930 . S
C598 C596 1.378 . S
C598 C599 1.367 . S
C599 C598 1.367 . S
C599 C601 1.433 . S
C600 C596 1.350 . S
C600 C597 1.463 . S
C600 N604 1.427 . S
C601 H591 0.929 . S
C601 C599 1.433 . S
C601 N604 1.384 . S
C602 H593 0.929 . S
C602 C594 1.378 . S
C602 C597 1.350 . S
C603 H590 0.929 . S
C603 C595 1.433 . S
C603 N605 1.384 . S
N604 C600 1.427 . S
N604 C601 1.384 . S
N605 C597 1.427 . S
N605 C603 1.384 . S
H606 C612 0.930 . S
H607 C616 0.930 . S
H608 C621 0.929 . S
H609 C619 0.929 . S
H610 C614 0.929 . S
H611 C620 0.929 . S
C612 H606 0.930 . S
C612 C613 1.367 . S
C612 C620 1.378 . S
C613 C612 1.367 . S
C613 C621 1.433 . S
C614 H610 0.929 . S
C614 C616 1.378 . S
C614 C618 1.350 . S
C615 C618 1.463 . S
C615 C620 1.350 . S
C615 N623 1.427 . S
C616 H607 0.930 . S
C616 C614 1.378 . S
C616 C617 1.367 1_554 S
C617 C616 1.367 1_556 S
C617 C619 1.433 . S
C618 C614 1.350 . S
C618 C615 1.463 . S
C618 N622 1.427 1_554 S
C619 H609 0.929 . S
C619 C617 1.433 . S
C619 N622 1.384 . S
C620 H611 0.929 . S
C620 C612 1.378 . S
C620 C615 1.350 . S
C621 H608 0.929 . S
C621 C613 1.433 . S
C621 N623 1.384 . S
N622 C618 1.427 1_556 S
N622 C619 1.384 . S
N623 C615 1.427 . S
N623 C621 1.384 . S
H624 C630 0.930 . S
H625 C634 0.930 . S
H626 C639 0.929 . S
H627 C637 0.929 . S
H628 C632 0.929 . S
H629 C638 0.929 . S
C630 H624 0.930 . S
C630 C631 1.367 . S
C630 C638 1.378 . S
C631 C630 1.367 . S
C631 C639 1.433 . S
C632 H628 0.929 . S
C632 C634 1.378 . S
C632 C636 1.350 . S
C633 C636 1.463 . S
C633 C638 1.350 . S
C633 N641 1.427 . S
C634 H625 0.930 . S
C634 C632 1.378 . S
C634 C635 1.367 . S
C635 C634 1.367 . S
C635 C637 1.433 . S
C636 C632 1.350 . S
C636 C633 1.463 . S
C636 N640 1.427 . S
C637 H627 0.929 . S
C637 C635 1.433 . S
C637 N640 1.384 . S
C638 H629 0.929 . S
C638 C630 1.378 . S
C638 C633 1.350 . S
C639 H626 0.929 . S
C639 C631 1.433 . S
C639 N641 1.384 . S
N640 C636 1.427 . S
N640 C637 1.384 . S
N641 C633 1.427 . S
N641 C639 1.384 . S
C221 C199 1.599 . S
C217 C19 1.513 . S
C235 C40 1.520 . S
C239 C129 1.600 . S
C253 C51 1.515 . S
C257 C148 1.621 . S
C271 C72 1.501 . S
C275 C157 1.603 . S
C293 C171 1.598 . S
C289 C103 1.511 . S
C307 C114 1.496 . S
C311 C190 1.612 . S
C325 C30 1.502 . S
C329 C143 1.598 . S
C343 C61 1.493 . S
C347 C162 1.595 . S
C361 C82 1.510 . S
C365 C176 1.594 . S
C383 C185 1.592 . S
C379 C93 1.475 1_554 S
C401 C204 1.594 . S
C397 C124 1.492 . S
C419 C134 1.598 . S
C415 C9 1.492 . S
C433 C17 1.435 . S
C437 C149 1.517 . S
C451 C38 1.438 . S
C455 C161 1.489 . S
C473 C175 1.493 . S
C469 C54 1.430 . S
C487 C75 1.423 . S
C491 C191 1.514 . S
C509 C203 1.489 . S
C505 C101 1.431 . S
C527 C133 1.492 . S
C523 C117 1.426 . S
C545 C205 1.516 . S
C541 C33 1.428 . S
C559 C59 1.442 . S
C563 C135 1.528 . S
C581 C147 1.507 . S
C577 C80 1.447 . S
C595 C96 1.446 . S
C599 C163 1.516 . S
C613 C122 1.450 . S
C617 C177 1.526 . S
C631 C12 1.445 . S
C635 C189 1.503 . S
