# Generated by pormake.
# Topology nom, (4,4)-cn, num edge types: 1
# Building blocks:
#     Node 0, Type 0, BuildingBlock: MUDLON_clean_linker_0, # of connection points: 4
#     Node 1, Type 0, BuildingBlock: MUDLON_clean_linker_0, # of connection points: 4
#     Node 2, Type 0, BuildingBlock: MUDLON_clean_linker_0, # of connection points: 4
#     Node 3, Type 0, BuildingBlock: MUDLON_clean_linker_0, # of connection points: 4
#     Node 4, Type 0, BuildingBlock: MUDLON_clean_linker_0, # of connection points: 4
#     Node 5, Type 0, BuildingBlock: MUDLON_clean_linker_0, # of connection points: 4
#     Node 6, Type 1, BuildingBlock: NAHDIM_clean_sbu_0, # of connection points: 4
#     Node 7, Type 1, BuildingBlock: NAHDIM_clean_sbu_0, # of connection points: 4
#     Node 8, Type 1, BuildingBlock: NAHDIM_clean_sbu_0, # of connection points: 4
#     Node 9, Type 1, BuildingBlock: NAHDIM_clean_sbu_0, # of connection points: 4
#     Node 10, Type 1, BuildingBlock: NAHDIM_clean_sbu_0, # of connection points: 4
#     Node 11, Type 1, BuildingBlock: NAHDIM_clean_sbu_0, # of connection points: 4
#     Edge 12, Type (0, 1), None
#     Edge 13, Type (0, 1), None
#     Edge 14, Type (0, 1), None
#     Edge 15, Type (0, 1), None
#     Edge 16, Type (0, 1), None
#     Edge 17, Type (0, 1), None
#     Edge 18, Type (0, 1), None
#     Edge 19, Type (0, 1), None
#     Edge 20, Type (0, 1), None
#     Edge 21, Type (0, 1), None
#     Edge 22, Type (0, 1), None
#     Edge 23, Type (0, 1), None
#     Edge 24, Type (0, 1), None
#     Edge 25, Type (0, 1), None
#     Edge 26, Type (0, 1), None
#     Edge 27, Type (0, 1), None
#     Edge 28, Type (0, 1), None
#     Edge 29, Type (0, 1), None
#     Edge 30, Type (0, 1), None
#     Edge 31, Type (0, 1), None
#     Edge 32, Type (0, 1), None
#     Edge 33, Type (0, 1), None
#     Edge 34, Type (0, 1), None
#     Edge 35, Type (0, 1), None
# Relax obj value: 0.030
# Max RMSD: 0.126
# Mean RMSD: 0.105
data_MOF--net-nom--node1-NAHDIM_clean_sbu_0--node2-MUDLON_clean_linker_0--edge1-none
_symmetry_space_group_name_H-M    P1
_symmetry_Int_Tables_number       1
_symmetry_cell_setting            triclinic
loop_
_symmetry_equiv_pos_as_xyz
'x, y, z'
_cell_length_a     35.03811
_cell_length_b     36.785078
_cell_length_c     35.6264
_cell_angle_alpha  90.410291
_cell_angle_beta   90.594083
_cell_angle_gamma 121.65673
loop_
_atom_site_label
_atom_site_type_symbol
_atom_site_fract_x
_atom_site_fract_y
_atom_site_fract_z
_atom_type_partial_charge
H0 H 0.23652 0.56806 0.31526 0.0
N1 N 0.16085 0.55694 0.34184 0.0
H2 H 0.29184 0.6266 0.27706 0.0
H3 H 0.1534 0.6224 0.31334 0.0
H4 H 0.20832 0.6809 0.2748 0.0
H5 H 0.18057 0.62907 0.38158 0.0
H6 H 0.20875 0.64674 0.44595 0.0
H7 H 0.16716 0.50609 0.39108 0.0
H8 H 0.1944 0.52322 0.45649 0.0
H9 H 0.11757 0.49229 0.29357 0.0
H10 H 0.09864 0.57527 0.36663 0.0
H11 H 0.03962 0.45795 0.27178 0.0
H12 H 0.02043 0.54021 0.34621 0.0
H13 H 0.78686 0.34692 0.21438 0.0
H14 H 0.75912 0.34473 0.15052 0.0
H15 H 0.84305 0.48233 0.14614 0.0
H16 H 0.87043 0.48408 0.20953 0.0
H17 H 0.82438 0.48095 0.26225 0.0
H18 H 0.76844 0.48217 0.30152 0.0
H19 H 0.73088 0.35836 0.34464 0.0
H20 H 0.78767 0.35783 0.30565 0.0
H21 H 0.88651 0.37831 0.26847 0.0
H22 H 0.96409 0.41153 0.29115 0.0
H23 H 0.9761 0.53468 0.29246 0.0
N24 N 0.84025 0.4155 0.25626 0.0
H25 H 0.89849 0.50106 0.27132 0.0
C26 C 0.19081 0.59053 0.31701 0.0
C27 C 0.23005 0.5924 0.30621 0.0
C28 C 0.26163 0.626 0.28451 0.0
C29 C 0.25453 0.65854 0.27301 0.0
C30 C 0.2147 0.65628 0.28313 0.0
C31 C 0.18318 0.6227 0.30512 0.0
C32 C 0.17238 0.56633 0.38121 0.0
C33 C 0.18328 0.60564 0.39757 0.0
C34 C 0.19947 0.61574 0.43449 0.0
C35 C 0.20432 0.58655 0.45613 0.0
C36 C 0.19114 0.54639 0.44047 0.0
C37 C 0.17557 0.53654 0.40321 0.0
C38 C 0.1139 0.53596 0.33187 0.0
C39 C 0.09632 0.5026 0.30529 0.0
C40 C 0.05175 0.48295 0.29303 0.0
C41 C 0.02366 0.49626 0.30727 0.0
C42 C 0.04124 0.52952 0.33427 0.0
C43 C 0.08596 0.54933 0.34635 0.0
C44 C 0.8305 0.41546 0.21687 0.0
C45 C 0.7999 0.37644 0.19921 0.0
C46 C 0.78407 0.37531 0.16279 0.0
C47 C 0.79852 0.41341 0.14338 0.0
C48 C 0.83102 0.4524 0.16038 0.0
C49 C 0.84684 0.45346 0.19679 0.0
C50 C 0.81032 0.41917 0.28119 0.0
C51 C 0.80489 0.45448 0.28069 0.0
C52 C 0.77275 0.45514 0.30316 0.0
C53 C 0.74511 0.4203 0.32603 0.0
C54 C 0.7515 0.38563 0.32716 0.0
C55 C 0.78392 0.38524 0.30504 0.0
C56 C 0.88665 0.43697 0.26794 0.0
C57 C 0.90609 0.41248 0.27357 0.0
C58 C 0.95044 0.43159 0.28637 0.0
C59 C 0.97641 0.47584 0.29366 0.0
C60 C 0.95691 0.50044 0.2877 0.0
C61 C 0.91245 0.48122 0.27513 0.0
H62 H 0.48852 0.81495 0.44497 0.0
N63 N 0.47872 0.8783 0.42374 0.0
H64 H 0.43721 0.75318 0.48217 0.0
H65 H 0.40546 0.86795 0.46112 0.0
H66 H 0.35384 0.80621 0.49866 0.0
H67 H 0.39926 0.86076 0.39177 0.0
H68 H 0.37087 0.83038 0.32975 0.0
H69 H 0.52275 0.86593 0.36979 0.0
H70 H 0.49352 0.83343 0.30748 0.0
H71 H 0.55482 0.92651 0.46147 0.0
H72 H 0.44232 0.92851 0.41384 0.0
H73 H 0.58603 -0.00072 0.48566 0.0
H74 H 0.47379 0.00127 0.43665 0.0
H75 H 0.66029 0.19565 0.5802 0.0
H76 H 0.65156 0.21945 0.64225 0.0
H77 H 0.52362 0.19939 0.60616 0.0
H78 H 0.5332 0.17692 0.54448 0.0
H79 H 0.54194 0.17603 0.47597 0.0
H80 H 0.55098 0.23428 0.43651 0.0
H81 H 0.69201 0.30794 0.46655 0.0
H82 H 0.68252 0.24968 0.50568 0.0
H83 H 0.65131 0.14399 0.49068 0.0
H84 H 0.62038 0.07168 0.46535 0.0
H85 H 0.48719 0.04099 0.49415 0.0
N86 N 0.60736 0.17741 0.52023 0.0
H87 H 0.51821 0.11345 0.5181 0.0
C88 C 0.45097 0.84594 0.45025 0.0
C89 C 0.45961 0.81355 0.4572 0.0
C90 C 0.43009 0.77824 0.47828 0.0
C91 C 0.39122 0.77467 0.49303 0.0
C92 C 0.38352 0.80812 0.48764 0.0
C93 C 0.41306 0.84345 0.4662 0.0
C94 C 0.46379 0.86665 0.38525 0.0
C95 C 0.421 0.85675 0.37319 0.0
C96 C 0.40452 0.83883 0.33764 0.0
C97 C 0.42988 0.82929 0.31373 0.0
C98 C 0.47319 0.84037 0.3253 0.0
C99 C 0.49002 0.85913 0.3607 0.0
C100 C 0.49655 0.92196 0.43558 0.0
C101 C 0.53718 0.94285 0.45584 0.0
C102 C 0.555 0.98447 0.46947 0.0
C103 C 0.53246 0.00622 0.46303 0.0
C104 C 0.49175 0.9853 0.44253 0.0
C105 C 0.47385 0.94355 0.42905 0.0
C106 C 0.59738 0.18409 0.55784 0.0
C107 C 0.62997 0.19553 0.58612 0.0
C108 C 0.625 0.20928 0.62141 0.0
C109 C 0.58701 0.21154 0.62904 0.0
C110 C 0.55324 0.19791 0.60126 0.0
C111 C 0.55852 0.18468 0.56589 0.0
C112 C 0.61182 0.20866 0.49368 0.0
C113 C 0.57485 0.20449 0.47364 0.0
C114 C 0.58003 0.23783 0.45114 0.0
C115 C 0.62211 0.27584 0.44864 0.0
C116 C 0.65904 0.27924 0.46802 0.0
C117 C 0.65386 0.24598 0.49023 0.0
C118 C 0.58737 0.13414 0.50657 0.0
C119 C 0.61546 0.12151 0.49152 0.0
C120 C 0.59772 0.08015 0.47726 0.0
C121 C 0.55128 0.05041 0.47784 0.0
C122 C 0.52305 0.0632 0.49286 0.0
C123 C 0.54087 0.10471 0.50696 0.0
H124 H 0.46073 0.69449 0.64417 0.0
N125 N 0.4633 0.62898 0.67125 0.0
H126 H 0.40371 0.69264 0.60277 0.0
H127 H 0.39218 0.55711 0.63785 0.0
H128 H 0.33518 0.55491 0.59628 0.0
H129 H 0.38796 0.56719 0.70633 0.0
H130 H 0.36469 0.57111 0.76929 0.0
H131 H 0.50905 0.69029 0.72256 0.0
H132 H 0.48503 0.69525 0.78597 0.0
H133 H 0.53848 0.65881 0.63345 0.0
H134 H 0.4352 0.54536 0.68733 0.0
H135 H 0.57397 0.61989 0.61288 0.0
H136 H 0.47056 0.50679 0.66752 0.0
H137 H 0.66141 0.50355 0.53088 0.0
H138 H 0.65547 0.47237 0.46836 0.0
H139 H 0.52619 0.36368 0.49695 0.0
H140 H 0.53306 0.39422 0.55911 0.0
H141 H 0.53859 0.40234 0.62815 0.0
H142 H 0.54636 0.35245 0.66776 0.0
H143 H 0.6885 0.42127 0.64599 0.0
H144 H 0.68037 0.47092 0.60672 0.0
H145 H 0.64738 0.54641 0.61564 0.0
H146 H 0.61392 0.58655 0.638 0.0
H147 H 0.48229 0.47935 0.60859 0.0
N148 N 0.60568 0.4677 0.58758 0.0
H149 H 0.51573 0.43956 0.58692 0.0
C150 C 0.43102 0.62623 0.64409 0.0
C151 C 0.43367 0.664 0.63343 0.0
C152 C 0.40094 0.66278 0.6099 0.0
C153 C 0.36472 0.62354 0.59639 0.0
C154 C 0.36268 0.58562 0.60615 0.0
C155 C 0.39539 0.58689 0.62997 0.0
C156 C 0.45076 0.62831 0.70979 0.0
C157 C 0.41016 0.5947 0.72371 0.0
C158 C 0.39671 0.59714 0.75987 0.0
C159 C 0.42298 0.63358 0.78267 0.0
C160 C 0.46408 0.66676 0.7691 0.0
C161 C 0.47788 0.66395 0.73301 0.0
C162 C 0.48436 0.60538 0.662 0.0
C163 C 0.52379 0.62572 0.64119 0.0
C164 C 0.54402 0.60348 0.62959 0.0
C165 C 0.52495 0.56021 0.63849 0.0
C166 C 0.48572 0.53995 0.6598 0.0
C167 C 0.46561 0.56224 0.67146 0.0
C168 C 0.59761 0.45166 0.54951 0.0
C169 C 0.63145 0.47344 0.52319 0.0
C170 C 0.62807 0.45551 0.48764 0.0
C171 C 0.59044 0.41549 0.47777 0.0
C172 C 0.55555 0.39466 0.50358 0.0
C173 C 0.55925 0.41233 0.53921 0.0
C174 C 0.60919 0.44059 0.61455 0.0
C175 C 0.5715 0.40711 0.63235 0.0
C176 C 0.57593 0.37848 0.65497 0.0
C177 C 0.61793 0.38267 0.65973 0.0
C178 C 0.65557 0.41688 0.64269 0.0
C179 C 0.65115 0.44549 0.62043 0.0
C180 C 0.58434 0.49014 0.59956 0.0
C181 C 0.61133 0.53175 0.614 0.0
C182 C 0.59219 0.55461 0.6266 0.0
C183 C 0.54545 0.53607 0.6251 0.0
C184 C 0.51837 0.4943 0.61057 0.0
C185 C 0.53758 0.47153 0.59788 0.0
H186 H 0.23087 0.6937 0.77886 0.0
N187 N 0.15485 0.62717 0.75319 0.0
H188 H 0.28763 0.69347 0.81896 0.0
H189 H 0.1483 0.55661 0.78575 0.0
H190 H 0.20486 0.55594 0.82607 0.0
H191 H 0.15962 0.56357 0.71725 0.0
H192 H 0.18817 0.56671 0.65486 0.0
H193 H 0.17529 0.68686 0.7022 0.0
H194 H 0.20528 0.69086 0.63939 0.0
H195 H 0.11726 0.65686 0.79791 0.0
H196 H 0.08796 0.5447 0.73421 0.0
H197 H 0.04132 0.61827 0.82275 0.0
H198 H 0.01205 0.50661 0.7577 0.0
H199 H 0.79253 0.48828 0.88814 0.0
H200 H 0.76566 0.46752 0.95215 0.0
H201 H 0.84434 0.40867 0.96301 0.0
H202 H 0.87106 0.42975 0.89941 0.0
H203 H 0.82324 0.38407 0.84789 0.0
H204 H 0.76464 0.32451 0.81075 0.0
H205 H 0.72813 0.40928 0.76124 0.0
H206 H 0.78746 0.46891 0.79821 0.0
H207 H 0.88823 0.54805 0.83096 0.0
H208 H 0.96397 0.58816 0.80563 0.0
H209 H 0.9735 0.47604 0.81493 0.0
N210 N 0.84154 0.46644 0.84915 0.0
H211 H 0.89766 0.43613 0.83872 0.0
C212 C 0.18548 0.62546 0.77938 0.0
C213 C 0.22488 0.66363 0.78942 0.0
C214 C 0.25726 0.6633 0.8122 0.0
C215 C 0.25084 0.62458 0.82552 0.0
C216 C 0.21076 0.58625 0.81626 0.0
C217 C 0.17837 0.58663 0.79323 0.0
C218 C 0.16481 0.62493 0.71436 0.0
C219 C 0.16805 0.59089 0.70017 0.0
C220 C 0.18478 0.5929 0.66439 0.0
C221 C 0.1994 0.62924 0.64223 0.0
C222 C 0.19442 0.66247 0.65579 0.0
C223 C 0.17714 0.66019 0.69153 0.0
C224 C 0.10848 0.60411 0.76403 0.0
C225 C 0.09419 0.62418 0.78879 0.0
C226 C 0.05079 0.60209 0.80286 0.0
C227 C 0.02059 0.55926 0.79231 0.0
C228 C 0.03467 0.53935 0.7669 0.0
C229 C 0.07821 0.56141 0.75302 0.0
C230 C 0.83347 0.46044 0.88882 0.0
C231 C 0.80476 0.47183 0.90478 0.0
C232 C 0.7894 0.45983 0.9413 0.0
C233 C 0.80238 0.43591 0.96251 0.0
C234 C 0.83343 0.42682 0.94733 0.0
C235 C 0.84884 0.43894 0.9108 0.0
C236 C 0.80978 0.43115 0.82567 0.0
C237 C 0.80332 0.39013 0.82856 0.0
C238 C 0.76967 0.35596 0.80731 0.0
C239 C 0.74161 0.36213 0.78324 0.0
C240 C 0.74903 0.40341 0.77972 0.0
C241 C 0.78289 0.43754 0.80068 0.0
C242 C 0.8873 0.48933 0.83698 0.0
C243 C 0.90695 0.53238 0.82772 0.0
C244 C 0.95021 0.5552 0.81337 0.0
C245 C 0.97481 0.53528 0.80813 0.0
C246 C 0.95525 0.49219 0.81801 0.0
C247 C 0.91188 0.46936 0.83214 0.0
H248 H 0.53115 0.22805 0.95624 0.0
N249 N 0.52888 0.16007 0.92842 0.0
H250 H 0.59009 0.2855 0.99497 0.0
H251 H 0.60322 0.16255 0.9572 0.0
H252 H 0.66283 0.22014 0.99583 0.0
H253 H 0.6 0.16797 0.88963 0.0
H254 H 0.62042 0.19276 0.82589 0.0
H255 H 0.48314 0.17804 0.87977 0.0
H256 H 0.50502 0.20549 0.81583 0.0
H257 H 0.46331 0.12089 0.97713 0.0
H258 H 0.54936 0.09993 0.90633 0.0
H259 H 0.43051 0.04869 0.00155 0.0
H260 H 0.51571 0.02792 0.92908 0.0
H261 H 0.3274 0.81867 0.06841 0.0
H262 H 0.33222 0.79318 0.13063 0.0
H263 H 0.47609 0.85709 0.12013 0.0
H264 H 0.47081 0.88172 0.05839 0.0
H265 H 0.45978 0.84768 0.99736 0.0
H266 H 0.45068 0.7917 0.954 0.0
H267 H 0.31025 0.74789 0.94018 0.0
H268 H 0.31998 0.80476 0.9827 0.0
H269 H 0.35143 0.9025 0.00903 0.0
H270 H 0.38301 0.97501 0.98557 0.0
H271 H 0.51404 0.99029 0.98315 0.0
N272 N 0.39329 0.86088 0.02033 0.0
H273 H 0.48193 0.91771 0.00465 0.0
C274 C 0.56275 0.19123 0.95381 0.0
C275 C 0.5596 0.226 0.96518 0.0
C276 C 0.59344 0.2588 0.98719 0.0
C277 C 0.63142 0.25758 -0.00173 0.0
C278 C 0.63411 0.2221 0.98768 0.0
C279 C 0.60004 0.18916 0.96558 0.0
C280 C 0.53913 0.16992 0.8893 0.0
C281 C 0.5779 0.17429 0.87345 0.0
C282 C 0.58979 0.18885 0.83689 0.0
C283 C 0.5642 0.20091 0.81581 0.0
C284 C 0.52523 0.19622 0.83141 0.0
C285 C 0.51263 0.18044 0.86775 0.0
C286 C 0.50855 0.11616 0.93969 0.0
C287 C 0.47463 0.10055 0.96643 0.0
C288 C 0.45585 0.05923 0.98023 0.0
C289 C 0.47051 0.03241 0.96737 0.0
C290 C 0.50413 0.04789 0.94016 0.0
C291 C 0.52321 0.08935 0.92669 0.0
C292 C 0.39856 0.85218 0.05873 0.0
C293 C 0.35999 0.8278 0.08002 0.0
C294 C 0.36282 0.8132 0.11545 0.0
C295 C 0.40451 0.82285 0.13024 0.0
C296 C 0.44341 0.849 0.10957 0.0
C297 C 0.44047 0.86333 0.07408 0.0
C298 C 0.39042 0.8306 0.99294 0.0
C299 C 0.42733 0.82682 0.98432 0.0
C300 C 0.42211 0.79469 0.95959 0.0
C301 C 0.37978 0.76543 0.94384 0.0
C302 C 0.34327 0.76989 0.95204 0.0
C303 C 0.34869 0.80232 0.97617 0.0
C304 C 0.4141 0.90464 0.00895 0.0
C305 C 0.387 0.92176 0.00359 0.0
C306 C 0.40519 0.96324 0.99035 0.0
C307 C 0.45113 0.98859 0.98236 0.0
C308 C 0.47839 0.97151 0.98837 0.0
C309 C 0.46006 0.9299 0.00127 0.0
H310 H 0.50949 0.3249 0.16045 0.0
N311 N 0.5189 0.39849 0.18057 0.0
H312 H 0.56081 0.3135 0.12367 0.0
H313 H 0.59362 0.46069 0.14467 0.0
H314 H 0.64518 0.44965 0.10749 0.0
H315 H 0.59609 0.4627 0.21414 0.0
H316 H 0.62248 0.46302 0.27742 0.0
H317 H 0.47495 0.34172 0.23368 0.0
H318 H 0.50279 0.34052 0.29701 0.0
H319 H 0.44269 0.3682 0.14244 0.0
H320 H 0.55472 0.48547 0.18756 0.0
H321 H 0.41112 0.40814 0.11578 0.0
H322 H 0.52296 0.52511 0.16231 0.0
H323 H 0.33352 0.53067 0.01999 0.0
H324 H 0.34036 0.5632 0.95858 0.0
H325 H 0.47166 0.66857 0.99167 0.0
H326 H 0.46388 0.63679 0.05276 0.0
H327 H 0.4569 0.6296 0.12116 0.0
H328 H 0.44976 0.67958 0.16198 0.0
H329 H 0.30763 0.61202 0.13624 0.0
H330 H 0.31522 0.56251 0.09578 0.0
H331 H 0.34552 0.48788 0.10819 0.0
H332 H 0.37651 0.44713 0.13409 0.0
H333 H 0.5094 0.54812 0.10336 0.0
N334 N 0.38945 0.56471 0.07845 0.0
H335 H 0.47837 0.58891 0.07877 0.0
C336 C 0.54749 0.39337 0.15518 0.0
C337 C 0.53874 0.35215 0.1485 0.0
C338 C 0.56827 0.34583 0.12768 0.0
C339 C 0.60725 0.38076 0.11291 0.0
C340 C 0.61541 0.42214 0.11852 0.0
C341 C 0.58588 0.42846 0.13972 0.0
C342 C 0.53261 0.40273 0.21944 0.0
C343 C 0.57427 0.43693 0.23243 0.0
C344 C 0.58966 0.4368 0.26866 0.0
C345 C 0.56462 0.4018 0.29216 0.0
C346 C 0.52268 0.36795 0.27949 0.0
C347 C 0.50667 0.36871 0.24353 0.0
C348 C 0.50076 0.42341 0.16732 0.0
C349 C 0.46016 0.40245 0.147 0.0
C350 C 0.44216 0.42532 0.13192 0.0
C351 C 0.4645 0.46988 0.13691 0.0
C352 C 0.50516 0.4909 0.15748 0.0
C353 C 0.52322 0.46799 0.1724 0.0
C354 C 0.39829 0.58079 0.04078 0.0
C355 C 0.36415 0.56026 0.01348 0.0
C356 C 0.36802 0.57899 0.97858 0.0
C357 C 0.40646 0.61855 0.97035 0.0
C358 C 0.44167 0.63797 0.99703 0.0
C359 C 0.43746 0.61955 0.03204 0.0
C360 C 0.38631 0.5922 0.10553 0.0
C361 C 0.42418 0.62531 0.1247 0.0
C362 C 0.42009 0.65392 0.14797 0.0
C363 C 0.37823 0.64999 0.15211 0.0
C364 C 0.34046 0.61622 0.13351 0.0
C365 C 0.34456 0.5877 0.11054 0.0
C366 C 0.40931 0.5412 0.09131 0.0
C367 C 0.3813 0.50098 0.10691 0.0
C368 C 0.39907 0.47773 0.12153 0.0
C369 C 0.44549 0.49433 0.1208 0.0
C370 C 0.47358 0.53462 0.10484 0.0
C371 C 0.45573 0.55792 0.09036 0.0
C372 C 0.62802 0.31265 0.42715 0.0
O373 O 0.66598 0.34962 0.43029 0.0
O374 O 0.67585 0.38246 0.35747 0.0
Zn375 Zn 0.61733 0.36639 0.38153 0.0
O376 O 0.62384 0.40694 0.4228 0.0
C377 C 0.58447 0.39944 0.32809 0.0
O378 O 0.61678 0.43461 0.34422 0.0
O379 O 0.59708 0.30991 0.40601 0.0
C380 C 0.58881 0.39376 0.44218 0.0
O381 O 0.55227 0.35759 0.43238 0.0
C382 C 0.70773 0.41842 0.34663 0.0
O383 O 0.70549 0.45269 0.35132 0.0
O384 O 0.5755 0.36359 0.34073 0.0
C385 C 0.35795 0.73474 0.51154 0.0
O386 O 0.35994 0.70032 0.5068 0.0
O387 O 0.32668 0.65614 0.57235 0.0
Zn388 Zn 0.28467 0.67205 0.5488 0.0
O389 O 0.24939 0.63863 0.50253 0.0
C390 C 0.22308 0.63352 0.60683 0.0
O391 O 0.22763 0.6021 0.59509 0.0
O392 O 0.32591 0.732 0.53042 0.0
C393 C 0.22497 0.59915 0.49409 0.0
O394 O 0.21934 0.57024 0.51849 0.0
C395 C 0.32852 0.6226 0.5738 0.0
O396 O 0.29742 0.58732 0.55696 0.0
O397 O 0.24374 0.66889 0.58978 0.0
C398 C 0.62311 0.35115 0.68104 0.0
O399 O 0.66059 0.35132 0.6785 0.0
O400 O 0.67184 0.33003 0.75065 0.0
Zn401 Zn 0.61245 0.28713 0.72659 0.0
O402 O 0.61838 0.2525 0.68567 0.0
C403 C 0.58081 0.22164 0.77925 0.0
O404 O 0.61039 0.21672 0.76131 0.0
O405 O 0.59213 0.32335 0.70158 0.0
C406 C 0.58411 0.23127 0.66436 0.0
O407 O 0.54755 0.23142 0.67186 0.0
C408 C 0.70299 0.32557 0.76366 0.0
O409 O 0.69905 0.28808 0.76187 0.0
O410 O 0.57239 0.2494 0.76776 0.0
C411 C 0.37224 0.72851 0.92106 0.0
O412 O 0.33194 0.69398 0.91947 0.0
O413 O 0.32499 0.65891 0.85009 0.0
Zn414 Zn 0.38203 0.67242 0.87653 0.0
O415 O 0.37361 0.63005 0.91595 0.0
C416 C 0.40536 0.63774 0.81896 0.0
O417 O 0.36821 0.6051 0.83185 0.0
O418 O 0.40389 0.7286 0.90371 0.0
C419 C 0.40868 0.64139 0.93566 0.0
O420 O 0.44603 0.67687 0.92723 0.0
C421 C 0.28676 0.62474 0.84783 0.0
O422 O 0.28002 0.59014 0.86447 0.0
O423 O 0.42216 0.67369 0.83577 0.0
C424 C 0.63956 0.3735 0.09309 0.0
O425 O 0.63578 0.33609 0.09514 0.0
O426 O 0.66605 0.3269 0.0257 0.0
Zn427 Zn 0.70977 0.383 0.05092 0.0
O428 O 0.74574 0.37811 0.09281 0.0
C429 C 0.78016 0.41668 -0.00167 0.0
O430 O 0.78728 0.38896 0.01498 0.0
O431 O 0.67163 0.40282 0.07449 0.0
C432 C 0.77695 0.41303 0.10731 0.0
O433 O 0.7858 0.44916 0.09237 0.0
C434 C 0.66831 0.29406 0.01959 0.0
O435 O 0.70391 0.29365 0.03085 0.0
O436 O 0.74932 0.42192 0.01041 0.0
C437 C 0.3732 0.68105 0.1747 0.0
O438 O 0.335 0.67974 0.17326 0.0
O439 O 0.3277 0.69951 0.2485 0.0
Zn440 Zn 0.38324 0.74368 0.22219 0.0
O441 O 0.37216 0.7755 0.18208 0.0
C442 C 0.40932 0.80482 0.27852 0.0
O443 O 0.371 0.7991 0.26632 0.0
O444 O 0.4048 0.70934 0.19552 0.0
C445 C 0.40739 0.80306 0.16533 0.0
O446 O 0.44634 0.81001 0.1772 0.0
C447 C 0.28937 0.69497 0.25152 0.0
O448 O 0.28148 0.72277 0.23609 0.0
O449 O 0.42507 0.78474 0.26217 0.0
loop_
_geom_bond_atom_site_label_1
_geom_bond_atom_site_label_2
_geom_bond_distance
_geom_bond_site_symmetry_2
_ccdc_geom_bond_type
H0 C27 0.929 . S
N1 C26 1.433 . S
N1 C32 1.435 . S
N1 C38 1.423 . S
H2 C28 0.930 . S
H3 C31 0.931 . S
H4 C30 0.929 . S
H5 C33 0.930 . S
H6 C34 0.932 . S
H7 C37 0.929 . S
H8 C36 0.931 . S
H9 C39 0.929 . S
H10 C43 0.932 . S
H11 C40 0.931 . S
H12 C42 0.929 . S
H13 C45 0.929 . S
H14 C46 0.930 . S
H15 C48 0.929 . S
H16 C49 0.931 . S
H17 C51 0.930 . S
H18 C52 0.932 . S
H19 C54 0.931 . S
H20 C55 0.929 . S
H21 C57 0.929 . S
H22 C58 0.931 . S
H23 C60 0.929 . S
N24 C44 1.433 . S
N24 C50 1.435 . S
N24 C56 1.423 . S
H25 C61 0.932 . S
C26 N1 1.433 . S
C26 C27 1.363 . S
C26 C31 1.370 . S
C27 H0 0.929 . S
C27 C26 1.363 . S
C27 C28 1.385 . S
C28 H2 0.930 . S
C28 C27 1.385 . S
C28 C29 1.357 . S
C29 C28 1.357 . S
C29 C30 1.406 . S
C30 H4 0.929 . S
C30 C29 1.406 . S
C30 C31 1.391 . S
C31 H3 0.931 . S
C31 C26 1.370 . S
C31 C30 1.391 . S
C32 N1 1.435 . S
C32 C33 1.358 . S
C32 C37 1.371 . S
C33 H5 0.930 . S
C33 C32 1.358 . S
C33 C34 1.405 . S
C34 H6 0.932 . S
C34 C33 1.405 . S
C34 C35 1.383 . S
C35 C34 1.383 . S
C35 C36 1.393 . S
C36 H8 0.931 . S
C36 C35 1.393 . S
C36 C37 1.382 . S
C37 H7 0.929 . S
C37 C32 1.371 . S
C37 C36 1.382 . S
C38 N1 1.423 . S
C38 C39 1.362 . S
C38 C43 1.388 . S
C39 H9 0.929 . S
C39 C38 1.362 . S
C39 C40 1.376 . S
C40 H11 0.931 . S
C40 C39 1.376 . S
C40 C41 1.396 . S
C41 C40 1.396 . S
C41 C42 1.348 . S
C41 C59 1.472 1_455 S
C42 H12 0.929 . S
C42 C41 1.348 . S
C42 C43 1.443 . S
C43 H10 0.932 . S
C43 C38 1.388 . S
C43 C42 1.443 . S
C44 N24 1.433 . S
C44 C45 1.363 . S
C44 C49 1.370 . S
C45 H13 0.929 . S
C45 C44 1.363 . S
C45 C46 1.385 . S
C46 H14 0.930 . S
C46 C45 1.385 . S
C46 C47 1.357 . S
C47 C46 1.357 . S
C47 C48 1.406 . S
C48 H15 0.929 . S
C48 C47 1.406 . S
C48 C49 1.391 . S
C49 H16 0.931 . S
C49 C44 1.370 . S
C49 C48 1.391 . S
C50 N24 1.435 . S
C50 C51 1.358 . S
C50 C55 1.371 . S
C51 H17 0.930 . S
C51 C50 1.358 . S
C51 C52 1.405 . S
C52 H18 0.932 . S
C52 C51 1.405 . S
C52 C53 1.383 . S
C53 C52 1.383 . S
C53 C54 1.393 . S
C54 H19 0.931 . S
C54 C53 1.393 . S
C54 C55 1.382 . S
C55 H20 0.929 . S
C55 C50 1.371 . S
C55 C54 1.382 . S
C56 N24 1.423 . S
C56 C57 1.362 . S
C56 C61 1.388 . S
C57 H21 0.929 . S
C57 C56 1.362 . S
C57 C58 1.376 . S
C58 H22 0.931 . S
C58 C57 1.376 . S
C58 C59 1.396 . S
C59 C41 1.472 1_655 S
C59 C58 1.396 . S
C59 C60 1.348 . S
C60 H23 0.929 . S
C60 C59 1.348 . S
C60 C61 1.443 . S
C61 H25 0.932 . S
C61 C56 1.388 . S
C61 C60 1.443 . S
H62 C89 0.929 . S
N63 C88 1.433 . S
N63 C94 1.435 . S
N63 C100 1.423 . S
H64 C90 0.930 . S
H65 C93 0.931 . S
H66 C92 0.929 . S
H67 C95 0.930 . S
H68 C96 0.932 . S
H69 C99 0.929 . S
H70 C98 0.931 . S
H71 C101 0.929 . S
H72 C105 0.932 . S
H73 C102 0.931 . S
H74 C104 0.929 1_545 S
H75 C107 0.929 . S
H76 C108 0.930 . S
H77 C110 0.929 . S
H78 C111 0.931 . S
H79 C113 0.930 . S
H80 C114 0.932 . S
H81 C116 0.931 . S
H82 C117 0.929 . S
H83 C119 0.929 . S
H84 C120 0.931 . S
H85 C122 0.929 . S
N86 C106 1.433 . S
N86 C112 1.435 . S
N86 C118 1.423 . S
H87 C123 0.932 . S
C88 N63 1.433 . S
C88 C89 1.363 . S
C88 C93 1.370 . S
C89 H62 0.929 . S
C89 C88 1.363 . S
C89 C90 1.385 . S
C90 H64 0.930 . S
C90 C89 1.385 . S
C90 C91 1.357 . S
C91 C90 1.357 . S
C91 C92 1.406 . S
C92 H66 0.929 . S
C92 C91 1.406 . S
C92 C93 1.391 . S
C93 H65 0.931 . S
C93 C88 1.370 . S
C93 C92 1.391 . S
C94 N63 1.435 . S
C94 C95 1.358 . S
C94 C99 1.371 . S
C95 H67 0.930 . S
C95 C94 1.358 . S
C95 C96 1.405 . S
C96 H68 0.932 . S
C96 C95 1.405 . S
C96 C97 1.383 . S
C97 C96 1.383 . S
C97 C98 1.393 . S
C98 H70 0.931 . S
C98 C97 1.393 . S
C98 C99 1.382 . S
C99 H69 0.929 . S
C99 C94 1.371 . S
C99 C98 1.382 . S
C100 N63 1.423 . S
C100 C101 1.362 . S
C100 C105 1.388 . S
C101 H71 0.929 . S
C101 C100 1.362 . S
C101 C102 1.376 . S
C102 H73 0.931 . S
C102 C101 1.376 . S
C102 C103 1.396 1_565 S
C103 C102 1.396 1_545 S
C103 C104 1.348 1_545 S
C103 C121 1.472 . S
C104 H74 0.929 1_565 S
C104 C103 1.348 1_565 S
C104 C105 1.443 . S
C105 H72 0.932 . S
C105 C100 1.388 . S
C105 C104 1.443 . S
C106 N86 1.433 . S
C106 C107 1.363 . S
C106 C111 1.370 . S
C107 H75 0.929 . S
C107 C106 1.363 . S
C107 C108 1.385 . S
C108 H76 0.930 . S
C108 C107 1.385 . S
C108 C109 1.357 . S
C109 C108 1.357 . S
C109 C110 1.406 . S
C110 H77 0.929 . S
C110 C109 1.406 . S
C110 C111 1.391 . S
C111 H78 0.931 . S
C111 C106 1.370 . S
C111 C110 1.391 . S
C112 N86 1.435 . S
C112 C113 1.358 . S
C112 C117 1.371 . S
C113 H79 0.930 . S
C113 C112 1.358 . S
C113 C114 1.405 . S
C114 H80 0.932 . S
C114 C113 1.405 . S
C114 C115 1.383 . S
C115 C114 1.383 . S
C115 C116 1.393 . S
C116 H81 0.931 . S
C116 C115 1.393 . S
C116 C117 1.382 . S
C117 H82 0.929 . S
C117 C112 1.371 . S
C117 C116 1.382 . S
C118 N86 1.423 . S
C118 C119 1.362 . S
C118 C123 1.388 . S
C119 H83 0.929 . S
C119 C118 1.362 . S
C119 C120 1.376 . S
C120 H84 0.931 . S
C120 C119 1.376 . S
C120 C121 1.396 . S
C121 C103 1.472 . S
C121 C120 1.396 . S
C121 C122 1.348 . S
C122 H85 0.929 . S
C122 C121 1.348 . S
C122 C123 1.443 . S
C123 H87 0.932 . S
C123 C118 1.388 . S
C123 C122 1.443 . S
H124 C151 0.929 . S
N125 C150 1.433 . S
N125 C156 1.435 . S
N125 C162 1.423 . S
H126 C152 0.930 . S
H127 C155 0.931 . S
H128 C154 0.929 . S
H129 C157 0.930 . S
H130 C158 0.932 . S
H131 C161 0.929 . S
H132 C160 0.931 . S
H133 C163 0.929 . S
H134 C167 0.932 . S
H135 C164 0.931 . S
H136 C166 0.929 . S
H137 C169 0.929 . S
H138 C170 0.930 . S
H139 C172 0.929 . S
H140 C173 0.931 . S
H141 C175 0.930 . S
H142 C176 0.932 . S
H143 C178 0.931 . S
H144 C179 0.929 . S
H145 C181 0.929 . S
H146 C182 0.931 . S
H147 C184 0.929 . S
N148 C168 1.433 . S
N148 C174 1.435 . S
N148 C180 1.423 . S
H149 C185 0.932 . S
C150 N125 1.433 . S
C150 C151 1.363 . S
C150 C155 1.370 . S
C151 H124 0.929 . S
C151 C150 1.363 . S
C151 C152 1.385 . S
C152 H126 0.930 . S
C152 C151 1.385 . S
C152 C153 1.357 . S
C153 C152 1.357 . S
C153 C154 1.406 . S
C154 H128 0.929 . S
C154 C153 1.406 . S
C154 C155 1.391 . S
C155 H127 0.931 . S
C155 C150 1.370 . S
C155 C154 1.391 . S
C156 N125 1.435 . S
C156 C157 1.358 . S
C156 C161 1.371 . S
C157 H129 0.930 . S
C157 C156 1.358 . S
C157 C158 1.405 . S
C158 H130 0.932 . S
C158 C157 1.405 . S
C158 C159 1.383 . S
C159 C158 1.383 . S
C159 C160 1.393 . S
C160 H132 0.931 . S
C160 C159 1.393 . S
C160 C161 1.382 . S
C161 H131 0.929 . S
C161 C156 1.371 . S
C161 C160 1.382 . S
C162 N125 1.423 . S
C162 C163 1.362 . S
C162 C167 1.388 . S
C163 H133 0.929 . S
C163 C162 1.362 . S
C163 C164 1.376 . S
C164 H135 0.931 . S
C164 C163 1.376 . S
C164 C165 1.396 . S
C165 C164 1.396 . S
C165 C166 1.348 . S
C165 C183 1.472 . S
C166 H136 0.929 . S
C166 C165 1.348 . S
C166 C167 1.443 . S
C167 H134 0.932 . S
C167 C162 1.388 . S
C167 C166 1.443 . S
C168 N148 1.433 . S
C168 C169 1.363 . S
C168 C173 1.370 . S
C169 H137 0.929 . S
C169 C168 1.363 . S
C169 C170 1.385 . S
C170 H138 0.930 . S
C170 C169 1.385 . S
C170 C171 1.357 . S
C171 C170 1.357 . S
C171 C172 1.406 . S
C172 H139 0.929 . S
C172 C171 1.406 . S
C172 C173 1.391 . S
C173 H140 0.931 . S
C173 C168 1.370 . S
C173 C172 1.391 . S
C174 N148 1.435 . S
C174 C175 1.358 . S
C174 C179 1.371 . S
C175 H141 0.930 . S
C175 C174 1.358 . S
C175 C176 1.405 . S
C176 H142 0.932 . S
C176 C175 1.405 . S
C176 C177 1.383 . S
C177 C176 1.383 . S
C177 C178 1.393 . S
C178 H143 0.931 . S
C178 C177 1.393 . S
C178 C179 1.382 . S
C179 H144 0.929 . S
C179 C174 1.371 . S
C179 C178 1.382 . S
C180 N148 1.423 . S
C180 C181 1.362 . S
C180 C185 1.388 . S
C181 H145 0.929 . S
C181 C180 1.362 . S
C181 C182 1.376 . S
C182 H146 0.931 . S
C182 C181 1.376 . S
C182 C183 1.396 . S
C183 C165 1.472 . S
C183 C182 1.396 . S
C183 C184 1.348 . S
C184 H147 0.929 . S
C184 C183 1.348 . S
C184 C185 1.443 . S
C185 H149 0.932 . S
C185 C180 1.388 . S
C185 C184 1.443 . S
H186 C213 0.929 . S
N187 C212 1.433 . S
N187 C218 1.435 . S
N187 C224 1.423 . S
H188 C214 0.930 . S
H189 C217 0.931 . S
H190 C216 0.929 . S
H191 C219 0.930 . S
H192 C220 0.932 . S
H193 C223 0.929 . S
H194 C222 0.931 . S
H195 C225 0.929 . S
H196 C229 0.932 . S
H197 C226 0.931 . S
H198 C228 0.929 . S
H199 C231 0.929 . S
H200 C232 0.930 . S
H201 C234 0.929 . S
H202 C235 0.931 . S
H203 C237 0.930 . S
H204 C238 0.932 . S
H205 C240 0.931 . S
H206 C241 0.929 . S
H207 C243 0.929 . S
H208 C244 0.931 . S
H209 C246 0.929 . S
N210 C230 1.433 . S
N210 C236 1.435 . S
N210 C242 1.423 . S
H211 C247 0.932 . S
C212 N187 1.433 . S
C212 C213 1.363 . S
C212 C217 1.370 . S
C213 H186 0.929 . S
C213 C212 1.363 . S
C213 C214 1.385 . S
C214 H188 0.930 . S
C214 C213 1.385 . S
C214 C215 1.357 . S
C215 C214 1.357 . S
C215 C216 1.406 . S
C216 H190 0.929 . S
C216 C215 1.406 . S
C216 C217 1.391 . S
C217 H189 0.931 . S
C217 C212 1.370 . S
C217 C216 1.391 . S
C218 N187 1.435 . S
C218 C219 1.358 . S
C218 C223 1.371 . S
C219 H191 0.930 . S
C219 C218 1.358 . S
C219 C220 1.405 . S
C220 H192 0.932 . S
C220 C219 1.405 . S
C220 C221 1.383 . S
C221 C220 1.383 . S
C221 C222 1.393 . S
C222 H194 0.931 . S
C222 C221 1.393 . S
C222 C223 1.382 . S
C223 H193 0.929 . S
C223 C218 1.371 . S
C223 C222 1.382 . S
C224 N187 1.423 . S
C224 C225 1.362 . S
C224 C229 1.388 . S
C225 H195 0.929 . S
C225 C224 1.362 . S
C225 C226 1.376 . S
C226 H197 0.931 . S
C226 C225 1.376 . S
C226 C227 1.396 . S
C227 C226 1.396 . S
C227 C228 1.348 . S
C227 C245 1.472 1_455 S
C228 H198 0.929 . S
C228 C227 1.348 . S
C228 C229 1.443 . S
C229 H196 0.932 . S
C229 C224 1.388 . S
C229 C228 1.443 . S
C230 N210 1.433 . S
C230 C231 1.363 . S
C230 C235 1.370 . S
C231 H199 0.929 . S
C231 C230 1.363 . S
C231 C232 1.385 . S
C232 H200 0.930 . S
C232 C231 1.385 . S
C232 C233 1.357 . S
C233 C232 1.357 . S
C233 C234 1.406 . S
C234 H201 0.929 . S
C234 C233 1.406 . S
C234 C235 1.391 . S
C235 H202 0.931 . S
C235 C230 1.370 . S
C235 C234 1.391 . S
C236 N210 1.435 . S
C236 C237 1.358 . S
C236 C241 1.371 . S
C237 H203 0.930 . S
C237 C236 1.358 . S
C237 C238 1.405 . S
C238 H204 0.932 . S
C238 C237 1.405 . S
C238 C239 1.383 . S
C239 C238 1.383 . S
C239 C240 1.393 . S
C240 H205 0.931 . S
C240 C239 1.393 . S
C240 C241 1.382 . S
C241 H206 0.929 . S
C241 C236 1.371 . S
C241 C240 1.382 . S
C242 N210 1.423 . S
C242 C243 1.362 . S
C242 C247 1.388 . S
C243 H207 0.929 . S
C243 C242 1.362 . S
C243 C244 1.376 . S
C244 H208 0.931 . S
C244 C243 1.376 . S
C244 C245 1.396 . S
C245 C227 1.472 1_655 S
C245 C244 1.396 . S
C245 C246 1.348 . S
C246 H209 0.929 . S
C246 C245 1.348 . S
C246 C247 1.443 . S
C247 H211 0.932 . S
C247 C242 1.388 . S
C247 C246 1.443 . S
H248 C275 0.929 . S
N249 C274 1.433 . S
N249 C280 1.435 . S
N249 C286 1.423 . S
H250 C276 0.930 . S
H251 C279 0.931 . S
H252 C278 0.929 . S
H253 C281 0.930 . S
H254 C282 0.932 . S
H255 C285 0.929 . S
H256 C284 0.931 . S
H257 C287 0.929 . S
H258 C291 0.932 . S
H259 C288 0.931 . S
H260 C290 0.929 . S
H261 C293 0.929 . S
H262 C294 0.930 . S
H263 C296 0.929 . S
H264 C297 0.931 . S
H265 C299 0.930 . S
H266 C300 0.932 . S
H267 C302 0.931 . S
H268 C303 0.929 . S
H269 C305 0.929 . S
H270 C306 0.931 . S
H271 C308 0.929 . S
N272 C292 1.433 . S
N272 C298 1.435 1_554 S
N272 C304 1.423 . S
H273 C309 0.932 . S
C274 N249 1.433 . S
C274 C275 1.363 . S
C274 C279 1.370 . S
C275 H248 0.929 . S
C275 C274 1.363 . S
C275 C276 1.385 . S
C276 H250 0.930 . S
C276 C275 1.385 . S
C276 C277 1.357 1_556 S
C277 C276 1.357 1_554 S
C277 C278 1.406 . S
C278 H252 0.929 . S
C278 C277 1.406 . S
C278 C279 1.391 1_554 S
C279 H251 0.931 . S
C279 C274 1.370 . S
C279 C278 1.391 1_556 S
C280 N249 1.435 . S
C280 C281 1.358 . S
C280 C285 1.371 . S
C281 H253 0.930 . S
C281 C280 1.358 . S
C281 C282 1.405 . S
C282 H254 0.932 . S
C282 C281 1.405 . S
C282 C283 1.383 . S
C283 C282 1.383 . S
C283 C284 1.393 . S
C284 H256 0.931 . S
C284 C283 1.393 . S
C284 C285 1.382 . S
C285 H255 0.929 . S
C285 C280 1.371 . S
C285 C284 1.382 . S
C286 N249 1.423 . S
C286 C287 1.362 . S
C286 C291 1.388 . S
C287 H257 0.929 . S
C287 C286 1.362 . S
C287 C288 1.376 . S
C288 H259 0.931 . S
C288 C287 1.376 . S
C288 C289 1.396 . S
C289 C288 1.396 . S
C289 C290 1.348 . S
C289 C307 1.472 1_545 S
C290 H260 0.929 . S
C290 C289 1.348 . S
C290 C291 1.443 . S
C291 H258 0.932 . S
C291 C286 1.388 . S
C291 C290 1.443 . S
C292 N272 1.433 . S
C292 C293 1.363 . S
C292 C297 1.370 . S
C293 H261 0.929 . S
C293 C292 1.363 . S
C293 C294 1.385 . S
C294 H262 0.930 . S
C294 C293 1.385 . S
C294 C295 1.357 . S
C295 C294 1.357 . S
C295 C296 1.406 . S
C296 H263 0.929 . S
C296 C295 1.406 . S
C296 C297 1.391 . S
C297 H264 0.931 . S
C297 C292 1.370 . S
C297 C296 1.391 . S
C298 N272 1.435 1_556 S
C298 C299 1.358 1_556 S
C298 C303 1.371 . S
C299 H265 0.930 . S
C299 C298 1.358 1_554 S
C299 C300 1.405 1_554 S
C300 H266 0.932 . S
C300 C299 1.405 1_556 S
C300 C301 1.383 . S
C301 C300 1.383 . S
C301 C302 1.393 . S
C302 H267 0.931 . S
C302 C301 1.393 . S
C302 C303 1.382 . S
C303 H268 0.929 . S
C303 C298 1.371 . S
C303 C302 1.382 . S
C304 N272 1.423 . S
C304 C305 1.362 . S
C304 C309 1.388 1_554 S
C305 H269 0.929 . S
C305 C304 1.362 . S
C305 C306 1.376 . S
C306 H270 0.931 . S
C306 C305 1.376 . S
C306 C307 1.396 1_554 S
C307 C289 1.472 1_565 S
C307 C306 1.396 1_556 S
C307 C308 1.348 . S
C308 H271 0.929 . S
C308 C307 1.348 . S
C308 C309 1.443 . S
C309 H273 0.932 . S
C309 C304 1.388 1_556 S
C309 C308 1.443 . S
H310 C337 0.929 . S
N311 C336 1.433 . S
N311 C342 1.435 . S
N311 C348 1.423 . S
H312 C338 0.930 . S
H313 C341 0.931 . S
H314 C340 0.929 . S
H315 C343 0.930 . S
H316 C344 0.932 . S
H317 C347 0.929 . S
H318 C346 0.931 . S
H319 C349 0.929 . S
H320 C353 0.932 . S
H321 C350 0.931 . S
H322 C352 0.929 . S
H323 C355 0.929 . S
H324 C356 0.930 . S
H325 C358 0.929 . S
H326 C359 0.931 . S
H327 C361 0.930 . S
H328 C362 0.932 . S
H329 C364 0.931 . S
H330 C365 0.929 . S
H331 C367 0.929 . S
H332 C368 0.931 . S
H333 C370 0.929 . S
N334 C354 1.433 . S
N334 C360 1.435 . S
N334 C366 1.423 . S
H335 C371 0.932 . S
C336 N311 1.433 . S
C336 C337 1.363 . S
C336 C341 1.370 . S
C337 H310 0.929 . S
C337 C336 1.363 . S
C337 C338 1.385 . S
C338 H312 0.930 . S
C338 C337 1.385 . S
C338 C339 1.357 . S
C339 C338 1.357 . S
C339 C340 1.406 . S
C340 H314 0.929 . S
C340 C339 1.406 . S
C340 C341 1.391 . S
C341 H313 0.931 . S
C341 C336 1.370 . S
C341 C340 1.391 . S
C342 N311 1.435 . S
C342 C343 1.358 . S
C342 C347 1.371 . S
C343 H315 0.930 . S
C343 C342 1.358 . S
C343 C344 1.405 . S
C344 H316 0.932 . S
C344 C343 1.405 . S
C344 C345 1.383 . S
C345 C344 1.383 . S
C345 C346 1.393 . S
C346 H318 0.931 . S
C346 C345 1.393 . S
C346 C347 1.382 . S
C347 H317 0.929 . S
C347 C342 1.371 . S
C347 C346 1.382 . S
C348 N311 1.423 . S
C348 C349 1.362 . S
C348 C353 1.388 . S
C349 H319 0.929 . S
C349 C348 1.362 . S
C349 C350 1.376 . S
C350 H321 0.931 . S
C350 C349 1.376 . S
C350 C351 1.396 . S
C351 C350 1.396 . S
C351 C352 1.348 . S
C351 C369 1.472 . S
C352 H322 0.929 . S
C352 C351 1.348 . S
C352 C353 1.443 . S
C353 H320 0.932 . S
C353 C348 1.388 . S
C353 C352 1.443 . S
C354 N334 1.433 . S
C354 C355 1.363 . S
C354 C359 1.370 . S
C355 H323 0.929 . S
C355 C354 1.363 . S
C355 C356 1.385 1_554 S
C356 H324 0.930 . S
C356 C355 1.385 1_556 S
C356 C357 1.357 . S
C357 C356 1.357 . S
C357 C358 1.406 . S
C358 H325 0.929 . S
C358 C357 1.406 . S
C358 C359 1.391 1_556 S
C359 H326 0.931 . S
C359 C354 1.370 . S
C359 C358 1.391 1_554 S
C360 N334 1.435 . S
C360 C361 1.358 . S
C360 C365 1.371 . S
C361 H327 0.930 . S
C361 C360 1.358 . S
C361 C362 1.405 . S
C362 H328 0.932 . S
C362 C361 1.405 . S
C362 C363 1.383 . S
C363 C362 1.383 . S
C363 C364 1.393 . S
C364 H329 0.931 . S
C364 C363 1.393 . S
C364 C365 1.382 . S
C365 H330 0.929 . S
C365 C360 1.371 . S
C365 C364 1.382 . S
C366 N334 1.423 . S
C366 C367 1.362 . S
C366 C371 1.388 . S
C367 H331 0.929 . S
C367 C366 1.362 . S
C367 C368 1.376 . S
C368 H332 0.931 . S
C368 C367 1.376 . S
C368 C369 1.396 . S
C369 C351 1.472 . S
C369 C368 1.396 . S
C369 C370 1.348 . S
C370 H333 0.929 . S
C370 C369 1.348 . S
C370 C371 1.443 . S
C371 H335 0.932 . S
C371 C366 1.388 . S
C371 C370 1.443 . S
C372 O373 1.160 . S
C372 O379 1.185 . S
O373 C372 1.160 . S
O374 Zn375 1.899 . S
O374 C382 1.284 . S
Zn375 O374 1.899 . S
Zn375 O376 2.032 . S
Zn375 O379 2.086 . S
Zn375 O384 1.977 . S
O376 Zn375 2.032 . S
O376 C380 1.278 . S
C377 O378 1.203 . S
C377 O384 1.267 . S
O378 C377 1.203 . S
O379 C372 1.185 . S
O379 Zn375 2.086 . S
C380 O376 1.278 . S
C380 O381 1.211 . S
O381 C380 1.211 . S
C382 O374 1.284 . S
C382 O383 1.273 . S
O383 C382 1.273 . S
O384 Zn375 1.977 . S
O384 C377 1.267 . S
C385 O386 1.160 . S
C385 O392 1.185 . S
O386 C385 1.160 . S
O387 Zn388 1.899 . S
O387 C395 1.284 . S
Zn388 O387 1.899 . S
Zn388 O389 2.032 . S
Zn388 O392 2.086 . S
Zn388 O397 1.977 . S
O389 Zn388 2.032 . S
O389 C393 1.278 . S
C390 O391 1.203 . S
C390 O397 1.267 . S
O391 C390 1.203 . S
O392 C385 1.185 . S
O392 Zn388 2.086 . S
C393 O389 1.278 . S
C393 O394 1.211 . S
O394 C393 1.211 . S
C395 O387 1.284 . S
C395 O396 1.273 . S
O396 C395 1.273 . S
O397 Zn388 1.977 . S
O397 C390 1.267 . S
C398 O399 1.160 . S
C398 O405 1.185 . S
O399 C398 1.160 . S
O400 Zn401 1.899 . S
O400 C408 1.284 . S
Zn401 O400 1.899 . S
Zn401 O402 2.032 . S
Zn401 O405 2.086 . S
Zn401 O410 1.977 . S
O402 Zn401 2.032 . S
O402 C406 1.278 . S
C403 O404 1.203 . S
C403 O410 1.267 . S
O404 C403 1.203 . S
O405 C398 1.185 . S
O405 Zn401 2.086 . S
C406 O402 1.278 . S
C406 O407 1.211 . S
O407 C406 1.211 . S
C408 O400 1.284 . S
C408 O409 1.273 . S
O409 C408 1.273 . S
O410 Zn401 1.977 . S
O410 C403 1.267 . S
C411 O412 1.160 . S
C411 O418 1.185 . S
O412 C411 1.160 . S
O413 Zn414 1.899 . S
O413 C421 1.284 . S
Zn414 O413 1.899 . S
Zn414 O415 2.032 . S
Zn414 O418 2.086 . S
Zn414 O423 1.977 . S
O415 Zn414 2.032 . S
O415 C419 1.278 . S
C416 O417 1.203 . S
C416 O423 1.267 . S
O417 C416 1.203 . S
O418 C411 1.185 . S
O418 Zn414 2.086 . S
C419 O415 1.278 . S
C419 O420 1.211 . S
O420 C419 1.211 . S
C421 O413 1.284 . S
C421 O422 1.273 . S
O422 C421 1.273 . S
O423 Zn414 1.977 . S
O423 C416 1.267 . S
C424 O425 1.160 . S
C424 O431 1.185 . S
O425 C424 1.160 . S
O426 Zn427 1.899 . S
O426 C434 1.284 . S
Zn427 O426 1.899 . S
Zn427 O428 2.032 . S
Zn427 O431 2.086 . S
Zn427 O436 1.977 . S
O428 Zn427 2.032 . S
O428 C432 1.278 . S
C429 O430 1.203 . S
C429 O436 1.267 1_556 S
O430 C429 1.203 . S
O431 C424 1.185 . S
O431 Zn427 2.086 . S
C432 O428 1.278 . S
C432 O433 1.211 . S
O433 C432 1.211 . S
C434 O426 1.284 . S
C434 O435 1.273 . S
O435 C434 1.273 . S
O436 Zn427 1.977 . S
O436 C429 1.267 1_554 S
C437 O438 1.160 . S
C437 O444 1.185 . S
O438 C437 1.160 . S
O439 Zn440 1.899 . S
O439 C447 1.284 . S
Zn440 O439 1.899 . S
Zn440 O441 2.032 . S
Zn440 O444 2.086 . S
Zn440 O449 1.977 . S
O441 Zn440 2.032 . S
O441 C445 1.278 . S
C442 O443 1.203 . S
C442 O449 1.267 . S
O443 C442 1.203 . S
O444 C437 1.185 . S
O444 Zn440 2.086 . S
C445 O441 1.278 . S
C445 O446 1.211 . S
O446 C445 1.211 . S
C447 O439 1.284 . S
C447 O448 1.273 . S
O448 C447 1.273 . S
O449 Zn440 1.977 . S
O449 C442 1.267 . S
C447 C29 2.395 . S
C115 C372 2.171 . S
C153 C395 2.230 . S
C239 C408 2.149 . S
C411 C301 2.198 . S
C339 C424 2.135 . S
C91 C385 1.699 . S
C177 C398 2.260 . S
C215 C421 1.908 . S
C434 C277 2.695 . S
C437 C363 2.111 . S
C382 C53 2.589 . S
C35 C393 1.956 . S
C109 C406 1.210 . S
C416 C159 1.687 . S
C233 C429 1.696 . S
C445 C295 1.379 . S
C377 C345 1.480 . S
C442 C97 1.608 . S
C171 C380 1.248 . S
C390 C221 1.699 . S
C283 C403 1.578 . S
C357 C419 1.262 . S
C47 C432 1.851 . S
