# Generated by pormake.
# Topology rtl, (3,6)-cn, num edge types: 1
# Building blocks:
#     Node 0, Type 0, BuildingBlock: BETDIP_clean_linker_0, # of connection points: 3
#     Node 1, Type 0, BuildingBlock: BETDIP_clean_linker_0, # of connection points: 3
#     Node 2, Type 0, BuildingBlock: BETDIP_clean_linker_0, # of connection points: 3
#     Node 3, Type 0, BuildingBlock: BETDIP_clean_linker_0, # of connection points: 3
#     Node 4, Type 1, BuildingBlock: KUMBUR_clean_sbu_1, # of connection points: 6
#     Node 5, Type 1, BuildingBlock: KUMBUR_clean_sbu_1, # of connection points: 6
#     Edge 6, Type (0, 1), BuildingBlock: OJICUG_clean_linker_0, # of connection points: 2
#     Edge 7, Type (0, 1), BuildingBlock: OJICUG_clean_linker_0, # of connection points: 2
#     Edge 8, Type (0, 1), BuildingBlock: OJICUG_clean_linker_0, # of connection points: 2
#     Edge 9, Type (0, 1), BuildingBlock: OJICUG_clean_linker_0, # of connection points: 2
#     Edge 10, Type (0, 1), BuildingBlock: OJICUG_clean_linker_0, # of connection points: 2
#     Edge 11, Type (0, 1), BuildingBlock: OJICUG_clean_linker_0, # of connection points: 2
#     Edge 12, Type (0, 1), BuildingBlock: OJICUG_clean_linker_0, # of connection points: 2
#     Edge 13, Type (0, 1), BuildingBlock: OJICUG_clean_linker_0, # of connection points: 2
#     Edge 14, Type (0, 1), BuildingBlock: OJICUG_clean_linker_0, # of connection points: 2
#     Edge 15, Type (0, 1), BuildingBlock: OJICUG_clean_linker_0, # of connection points: 2
#     Edge 16, Type (0, 1), BuildingBlock: OJICUG_clean_linker_0, # of connection points: 2
#     Edge 17, Type (0, 1), BuildingBlock: OJICUG_clean_linker_0, # of connection points: 2
# Relax obj value: 0.054
# Max RMSD: 0.240
# Mean RMSD: 0.172
data_MOF--net-rtl--node1-KUMBUR_clean_sbu_1--node2-BETDIP_clean_linker_0--edge1-OJICUG_clean_linker_0
_symmetry_space_group_name_H-M    P1
_symmetry_Int_Tables_number       1
_symmetry_cell_setting            triclinic
loop_
_symmetry_equiv_pos_as_xyz
'x, y, z'
_cell_length_a     25.750685
_cell_length_b     26.327941
_cell_length_c     20.670817
_cell_angle_alpha  74.000366
_cell_angle_beta   99.208685
_cell_angle_gamma 92.447946
loop_
_atom_site_label
_atom_site_type_symbol
_atom_site_fract_x
_atom_site_fract_y
_atom_site_fract_z
_atom_type_partial_charge
H0 H 0.22767 0.82204 0.90144 0.0
H1 H 0.26115 0.8101 0.11656 0.0
H2 H 0.15082 0.92549 0.98424 0.0
H3 H 0.30641 0.73879 0.12377 0.0
C4 C 0.31378 0.73735 0.07411 0.0
C5 C 0.22133 0.83521 0.94487 0.0
C6 C 0.18643 0.87681 0.93564 0.0
C7 C 0.2488 0.81074 0.00945 0.0
C8 C 0.2404 0.82797 0.06611 0.0
C9 C 0.20545 0.87003 0.05694 0.0
C10 C 0.1789 0.89407 0.99152 0.0
N11 N 0.28514 0.77025 0.01378 0.0
H12 H 0.72282 0.72919 0.77807 0.0
H13 H 0.72156 0.72166 0.57184 0.0
H14 H 0.6148 0.62645 0.69383 0.0
H15 H 0.80234 0.74974 0.58576 0.0
C16 C 0.80343 0.77669 0.6173 0.0
C17 C 0.70691 0.71354 0.73571 0.0
C18 C 0.66504 0.67705 0.74214 0.0
C19 C 0.7284 0.72973 0.6746 0.0
C20 C 0.70727 0.70872 0.62013 0.0
C21 C 0.66668 0.67114 0.62681 0.0
C22 C 0.6454 0.65624 0.6876 0.0
N23 N 0.77043 0.76738 0.66881 0.0
H24 H 0.78441 0.20775 0.9941 0.0
H25 H 0.82065 0.20242 0.20718 0.0
H26 H 0.89758 0.09634 0.12957 0.0
H27 H 0.74335 0.23766 0.19172 0.0
C28 C 0.73543 0.26226 0.13964 0.0
C29 C 0.80571 0.19063 0.04467 0.0
C30 C 0.84175 0.14934 0.05552 0.0
C31 C 0.79615 0.20908 0.09942 0.0
C32 C 0.82524 0.18753 0.16465 0.0
C33 C 0.86104 0.14625 0.17571 0.0
C34 C 0.86876 0.12728 0.12121 0.0
N35 N 0.75775 0.24946 0.08732 0.0
H36 H 0.32962 0.31065 0.35545 0.0
H37 H 0.30648 0.33122 0.54852 0.0
H38 H 0.42177 0.42391 0.43837 0.0
H39 H 0.28236 0.2475 0.57105 0.0
C40 C 0.26241 0.24169 0.52325 0.0
C41 C 0.34019 0.32952 0.39616 0.0
C42 C 0.37693 0.37101 0.38923 0.0
C43 C 0.31615 0.31307 0.45513 0.0
C44 C 0.32789 0.34032 0.5059 0.0
C45 C 0.36576 0.38096 0.50045 0.0
C46 C 0.39098 0.39439 0.44273 0.0
N47 N 0.27896 0.27072 0.46079 0.0
Tb48 Tb 0.0689 0.96791 0.52275 0.0
C49 C 0.94014 0.17189 0.49394 0.0
N50 N 0.98381 0.15294 0.53937 0.0
C51 C 0.01997 0.24035 0.52055 0.0
C52 C 0.93513 0.22598 0.45887 0.0
C53 C 0.02324 0.18633 0.55386 0.0
C54 C 0.97583 0.26027 0.47264 0.0
C55 C 0.85591 0.15427 0.43264 0.0
C56 C 0.90116 0.13642 0.48086 0.0
C57 C 0.85064 0.20815 0.39763 0.0
C58 C 0.89015 0.24391 0.41072 0.0
Tb59 Tb 0.98516 0.06411 0.58945 0.0
N60 N 0.90868 0.08417 0.5136 0.0
C61 C 0.81757 0.11733 0.42059 0.0
C62 C 0.86998 0.04853 0.50463 0.0
C63 C 0.8244 0.06435 0.45735 0.0
H64 H 0.05674 0.17158 0.59219 0.0
H65 H 0.79427 0.0357 0.44979 0.0
H66 H 1.00672 0.85347 0.5419 0.0
H67 H 0.26441 0.01824 0.63029 0.0
H68 H 0.87305 1.0081 0.53445 0.0
H69 H 0.7823 0.12939 0.38382 0.0
H70 H 0.183 0.03282 0.5484 0.0
H71 H 0.05139 0.26663 0.53208 0.0
H72 H 0.8163 0.22252 0.3601 0.0
H73 H 0.88566 0.28531 0.38307 0.0
H74 H 0.02018 0.76198 0.61462 0.0
H75 H 0.97351 0.30211 0.44675 0.0
H76 H 0.28185 0.93123 0.7144 0.0
N77 N 0.07871 0.88165 0.5851 0.0
C78 C 0.12442 0.86899 0.62903 0.0
C79 C 0.04969 0.79178 0.61953 0.0
C80 C 0.13404 0.81722 0.67139 0.0
C81 C 0.04181 0.8438 0.57895 0.0
C82 C 0.09588 0.77846 0.66623 0.0
N83 N 0.14922 0.95851 0.59226 0.0
C84 C 0.18741 0.99643 0.58807 0.0
C85 C 0.20812 0.89763 0.67926 0.0
C86 C 0.16061 0.90886 0.63332 0.0
C87 C 0.24488 0.93817 0.67991 0.0
C88 C 0.23493 0.98747 0.63302 0.0
H89 H 0.10173 0.73821 0.69792 0.0
H90 H 0.18876 0.76669 0.75156 0.0
H91 H 0.2538 0.83704 0.7582 0.0
O92 O 0.12209 0.9836 0.4525 0.0
O93 O 0.05772 0.94618 0.62983 0.0
O94 O 0.0549 0.02496 0.65683 0.0
O95 O 0.06991 0.91757 0.45928 0.0
O96 O 0.09096 0.0525 0.50454 0.0
O97 O 0.07008 0.07705 0.59653 0.0
O98 O 0.92946 0.04328 0.65606 0.0
O99 O 0.99232 0.08459 0.48104 0.0
O100 O 0.9987 1.00559 0.45519 0.0
O101 O 0.98037 0.10977 0.65752 0.0
O102 O 0.95962 0.98115 0.60457 0.0
O103 O 0.98427 0.95041 0.51851 0.0
C104 C 0.06741 0.97466 0.67325 0.0
C105 C 0.09423 0.95869 0.35208 0.0
C106 C 0.11568 0.95123 0.24435 0.0
C107 C 0.07642 0.98884 0.20943 0.0
C108 C 0.05567 0.99644 0.31626 0.0
C109 C 0.04652 0.01108 0.24529 0.0
C110 C 0.12394 0.93572 0.31601 0.0
C111 C 0.09717 0.0835 0.54588 0.0
C112 C 0.10541 0.94499 0.42678 0.0
C113 C 0.18081 0.80612 0.71818 0.0
C114 C 0.21774 0.84624 0.72215 0.0
C115 C 0.98396 0.05527 0.43845 0.0
C116 C 0.95392 0.06232 0.76099 0.0
C117 C 0.93184 0.06633 0.86976 0.0
C118 C 0.96943 0.02662 0.90337 0.0
C119 C 0.99072 0.0224 0.79535 0.0
C120 C 0.92471 0.08445 0.79827 0.0
C121 C 0.99871 1.00494 0.86625 0.0
C122 C 0.95498 0.94777 0.56649 0.0
C123 C 0.94446 0.07988 0.68634 0.0
H124 H 0.06877 1.00094 0.15426 0.0
H125 H 0.0332 0.01508 0.34312 0.0
H126 H 1.01654 0.04014 0.21801 0.0
H127 H 0.15431 0.90708 0.34355 0.0
H128 H 0.97642 0.01257 0.95845 0.0
H129 H 1.01279 1.00441 0.76737 0.0
H130 H 0.89572 0.1148 0.77162 0.0
H131 H 0.02742 0.97432 0.89247 0.0
Tb132 Tb 0.48327 0.48716 0.01151 0.0
C133 C 0.67663 0.61597 0.07631 0.0
N134 N 0.6666 0.56434 0.10503 0.0
C135 C 0.7531 0.54054 0.09473 0.0
C136 C 0.72485 0.63181 0.053 0.0
C137 C 0.70444 0.52676 0.1166 0.0
C138 C 0.76319 0.59323 0.06217 0.0
C139 C 0.64715 0.70689 0.04141 0.0
C140 C 0.63821 0.65279 0.0706 0.0
C141 C 0.69434 0.72287 0.01569 0.0
C142 C 0.73318 0.68541 0.02164 0.0
Tb143 Tb 0.58692 0.54582 0.14007 0.0
N144 N 0.59335 0.63579 0.09684 0.0
C145 C 0.60918 0.74344 0.041 0.0
C146 C 0.55863 0.67187 0.10198 0.0
C147 C 0.56521 0.72589 0.07258 0.0
H148 H 0.69709 0.48617 0.14258 0.0
H149 H 0.53691 0.75406 0.07562 0.0
H150 H 0.38047 0.57042 0.95436 0.0
H151 H 0.48334 0.27548 0.11555 0.0
H152 H 0.52656 0.65982 0.13042 0.0
H153 H 0.6145 0.78537 0.01904 0.0
H154 H 0.519 0.36165 0.05655 0.0
H155 H 0.7828 0.51057 0.1031 0.0
H156 H 0.70169 0.76422 0.99256 0.0
H157 H 0.76975 0.69837 0.00267 0.0
H158 H 0.29085 0.57467 0.98023 0.0
H159 H 0.80082 0.60377 0.04505 0.0
H160 H 0.39649 0.27145 0.15374 0.0
N161 N 0.39732 0.49471 0.02428 0.0
C162 C 0.37596 0.4502 0.06139 0.0
C163 C 0.31474 0.53975 0.00463 0.0
C164 C 0.32399 0.44971 0.07499 0.0
C165 C 0.36613 0.53776 0.99149 0.0
C166 C 0.29397 0.49593 0.04796 0.0
N167 N 0.45398 0.40562 0.0643 0.0
C168 C 0.48128 0.36011 0.07356 0.0
C169 C 0.38278 0.35572 0.11418 0.0
C170 C 0.40475 0.40378 0.08061 0.0
C171 C 0.41199 0.30924 0.12805 0.0
C172 C 0.46109 0.31136 0.10664 0.0
H173 H 0.25387 0.49726 0.05722 0.0
H174 H 0.26329 0.40155 0.12388 0.0
H175 H 0.31489 0.31921 0.15837 0.0
O176 O 0.51072 0.47073 0.92836 0.0
O177 O 0.49927 0.44691 0.12123 0.0
O178 O 0.51292 0.51339 0.17319 0.0
O179 O 0.42837 0.47194 0.93263 0.0
O180 O 0.56341 0.45394 0.03506 0.0
O181 O 0.59959 0.46353 0.14211 0.0
O182 O 0.61435 0.58277 0.21735 0.0
O183 O 0.60121 0.54798 0.03726 0.0
O184 O 0.52017 0.56369 0.97208 0.0
O185 O 0.62568 0.4996 0.23382 0.0
O186 O 0.50528 0.5735 0.12164 0.0
O187 O 0.46911 0.56932 0.01288 0.0
C188 C 0.49158 0.46794 0.16935 0.0
C189 C 0.45227 0.49715 0.82441 0.0
C190 C 0.42206 0.49629 0.70627 0.0
C191 C 0.41689 0.5518 0.68883 0.0
C192 C 0.44737 0.55224 0.80571 0.0
C193 C 0.43017 0.57941 0.73801 0.0
C194 C 0.44071 0.46952 0.77473 0.0
C195 C 0.59717 0.44045 0.09242 0.0
C196 C 0.46354 0.46737 0.89634 0.0
C197 C 0.30291 0.40254 0.11214 0.0
C198 C 0.33221 0.3556 0.13156 0.0
C199 C 0.57128 0.57149 0.98003 0.0
C200 C 0.60562 0.52828 0.3259 0.0
C201 C 0.59829 0.55332 0.42949 0.0
C202 C 0.5596 0.51417 0.4439 0.0
C203 C 0.56707 0.48928 0.34148 0.0
C204 C 0.62106 0.56008 0.37008 0.0
C205 C 0.54423 0.48243 0.40011 0.0
C206 C 0.4703 0.58849 0.0659 0.0
C207 C 0.6279 0.53826 0.2621 0.0
H208 H 0.40142 0.5742 0.63757 0.0
H209 H 0.45537 0.57393 0.84375 0.0
H210 H 0.42576 0.62193 0.72385 0.0
H211 H 0.44565 0.42702 0.79022 0.0
H212 H 0.54178 0.50749 0.48958 0.0
H213 H 0.55436 0.46425 0.30831 0.0
H214 H 0.65012 0.59076 0.35738 0.0
H215 H 0.51455 0.45232 0.4117 0.0
C216 C 0.19608 0.18544 0.46945 0.0
C217 C 0.21953 0.20184 0.52661 0.0
H218 H 0.13898 0.13473 0.43076 0.0
C219 C 0.20218 0.17937 0.58936 0.0
H220 H 0.20872 0.20191 0.42042 0.0
C221 C 0.16223 0.14151 0.59515 0.0
C222 C 0.13875 0.12477 0.53835 0.0
H223 H 0.21961 0.19114 0.63431 0.0
H224 H 0.1502 0.12479 0.64454 0.0
C225 C 0.15626 0.14694 0.47541 0.0
C226 C 0.36491 0.69554 0.00744 0.0
C227 C 0.3532 0.6993 0.07025 0.0
H228 H 0.41185 0.65814 0.95654 0.0
C229 C 0.38002 0.66656 0.13064 0.0
H230 H 0.3451 0.72055 0.95985 0.0
C231 C 0.41774 0.63077 0.12862 0.0
C232 C 0.4295 0.62657 0.06609 0.0
H233 H 0.37196 0.66876 0.17966 0.0
H234 H 0.4379 0.60648 0.17644 0.0
C235 C 0.40288 0.65959 0.00542 0.0
C236 C 0.86488 0.833 0.5461 0.0
C237 C 0.84071 0.82178 0.60481 0.0
H238 H 0.91825 0.88214 0.48672 0.0
C239 C 0.85312 0.85325 0.65004 0.0
H240 H 0.85571 0.80965 0.51001 0.0
C241 C 0.8899 0.89436 0.63735 0.0
C242 C 0.91474 0.90513 0.57891 0.0
H243 H 0.83513 0.84565 0.69568 0.0
H244 H 0.89927 0.9173 0.67386 0.0
C245 C 0.90096 0.87443 0.53292 0.0
C246 C 0.68835 0.32463 0.1807 0.0
C247 C 0.70043 0.30837 0.12567 0.0
H248 H 0.64677 0.37921 0.21341 0.0
C249 C 0.67849 0.33587 0.05911 0.0
H250 H 0.70477 0.30403 0.23252 0.0
C251 C 0.64454 0.37868 0.04806 0.0
C252 C 0.63274 0.39515 0.10332 0.0
H253 H 0.68703 0.32403 0.01572 0.0
H254 H 0.62794 0.39912 0.9963 0.0
C255 C 0.65523 0.36777 0.16969 0.0
C256 C 0.19288 0.94386 0.10679 0.0
C257 C 0.19407 0.8892 0.11432 0.0
H258 H 0.16728 1.00611 0.14237 0.0
C259 C 0.17596 0.85449 0.17106 0.0
H260 H 0.20714 0.97146 0.06393 0.0
C261 C 0.15309 0.87446 0.21627 0.0
C262 C 0.14789 0.92932 0.20497 0.0
H263 H 0.17614 0.81221 0.17775 0.0
H264 H 0.13653 0.84716 0.25736 0.0
C265 C 0.16985 0.96369 0.15141 0.0
C266 C 0.67357 0.62463 0.86424 0.0
C267 C 0.64297 0.65692 0.80648 0.0
H268 H 0.67433 0.57005 0.96247 0.0
C269 C 0.589 0.66259 0.80697 0.0
H270 H 0.71492 0.61845 0.86439 0.0
C271 C 0.56591 0.63597 0.86391 0.0
C272 C 0.59612 0.60221 0.92103 0.0
H273 H 0.56443 0.68664 0.76248 0.0
H274 H 0.52423 0.64111 0.86263 0.0
C275 C 0.65023 0.59701 0.92047 0.0
C276 C 0.89465 0.06797 0.27096 0.0
C277 C 0.8915 0.1231 0.24382 0.0
H278 H 0.9262 1.00323 0.35421 0.0
C279 C 0.91952 0.15573 0.28056 0.0
H280 H 0.87323 0.04202 0.24354 0.0
C281 C 0.95057 0.13355 0.34314 0.0
C282 C 0.95329 0.07843 0.37071 0.0
H283 H 0.9183 0.19831 0.26021 0.0
H284 H 0.97257 0.15962 0.36985 0.0
C285 C 0.92511 0.04583 0.334 0.0
C286 C 0.37528 0.38629 0.62243 0.0
C287 C 0.37869 0.41053 0.55349 0.0
H288 H 0.38364 0.39417 0.72353 0.0
C289 C 0.39564 0.46351 0.53553 0.0
H290 H 0.36299 0.34555 0.639 0.0
C291 C 0.41063 0.49055 0.58486 0.0
C292 C 0.40703 0.46654 0.65377 0.0
H293 H 0.39744 0.48473 0.48306 0.0
H294 H 0.42547 0.53034 0.56839 0.0
C295 C 0.38847 0.41409 0.6716 0.0
C296 C 0.59487 0.63415 0.55521 0.0
C297 C 0.64852 0.64484 0.57215 0.0
H298 H 0.53684 0.59769 0.4962 0.0
C299 C 0.68522 0.6272 0.53957 0.0
H300 H 0.56556 0.64781 0.57878 0.0
C301 C 0.66882 0.59833 0.49249 0.0
C302 C 0.61531 0.58647 0.47681 0.0
H303 H 0.72691 0.63404 0.55227 0.0
H304 H 0.69832 0.58385 0.47004 0.0
C305 C 0.57845 0.60532 0.50806 0.0
C306 C 0.85601 0.07448 0.00847 0.0
C307 C 0.8539 0.12927 0.99941 0.0
H308 H 0.88193 0.01177 0.97409 0.0
C309 C 0.87158 0.1636 0.94216 0.0
H310 H 0.84213 0.0472 0.05188 0.0
C311 C 0.8947 0.14325 0.89762 0.0
C312 C 0.90048 0.08834 0.90996 0.0
H313 H 0.87073 0.20598 0.93444 0.0
H314 H 0.91079 0.17042 0.856 0.0
C315 C 0.87912 0.05424 0.96431 0.0
C316 C 0.42819 0.36203 0.29845 0.0
C317 C 0.39979 0.39335 0.32579 0.0
H318 H 0.48084 0.36144 0.2276 0.0
C319 C 0.39852 0.44838 0.29724 0.0
H320 H 0.43011 0.31958 0.3199 0.0
C321 C 0.42735 0.472 0.24533 0.0
C322 C 0.45782 0.44127 0.22006 0.0
H323 H 0.37658 0.47344 0.31695 0.0
H324 H 0.42653 0.51457 0.22578 0.0
C325 C 0.45724 0.38594 0.24597 0.0
C326 C 0.15668 0.95705 0.84156 0.0
C327 C 0.15663 0.90187 0.86797 0.0
H328 H 0.12864 0.02349 0.75849 0.0
C329 C 0.12602 0.87094 0.831 0.0
H330 H 0.17997 0.98162 0.86952 0.0
C331 C 0.09577 0.89487 0.76853 0.0
C332 C 0.09675 0.94995 0.7412 0.0
H333 H 0.12471 0.82838 0.85107 0.0
H334 H 0.07151 0.87024 0.74165 0.0
C335 C 0.12717 0.98093 0.77844 0.0
loop_
_geom_bond_atom_site_label_1
_geom_bond_atom_site_label_2
_geom_bond_distance
_geom_bond_site_symmetry_2
_ccdc_geom_bond_type
H0 C5 0.930 . S
H1 C8 0.930 . S
H2 C10 0.930 . S
H3 C4 1.016 . S
C4 H3 1.016 . S
C4 N11 1.286 . S
C5 H0 0.930 . S
C5 C6 1.397 . S
C5 C7 1.361 1_556 S
C6 C5 1.397 . S
C6 C10 1.390 1_556 S
C7 C5 1.361 1_554 S
C7 C8 1.393 . S
C7 N11 1.413 . S
C8 H1 0.930 . S
C8 C7 1.393 . S
C8 C9 1.399 . S
C9 C8 1.399 . S
C9 C10 1.381 . S
C10 H2 0.930 . S
C10 C6 1.390 1_554 S
C10 C9 1.381 . S
N11 C4 1.286 . S
N11 C7 1.413 . S
H12 C17 0.930 . S
H13 C20 0.930 . S
H14 C22 0.930 . S
H15 C16 1.016 . S
C16 H15 1.016 . S
C16 N23 1.286 . S
C17 H12 0.930 . S
C17 C18 1.397 . S
C17 C19 1.361 . S
C18 C17 1.397 . S
C18 C22 1.390 . S
C19 C17 1.361 . S
C19 C20 1.393 . S
C19 N23 1.413 . S
C20 H13 0.930 . S
C20 C19 1.393 . S
C20 C21 1.399 . S
C21 C20 1.399 . S
C21 C22 1.381 . S
C22 H14 0.930 . S
C22 C18 1.390 . S
C22 C21 1.381 . S
N23 C16 1.286 . S
N23 C19 1.413 . S
H24 C29 0.930 1_556 S
H25 C32 0.930 . S
H26 C34 0.930 . S
H27 C28 1.016 . S
C28 H27 1.016 . S
C28 N35 1.286 . S
C29 H24 0.930 1_554 S
C29 C30 1.397 . S
C29 C31 1.361 . S
C30 C29 1.397 . S
C30 C34 1.390 . S
C31 C29 1.361 . S
C31 C32 1.393 . S
C31 N35 1.413 . S
C32 H25 0.930 . S
C32 C31 1.393 . S
C32 C33 1.399 . S
C33 C32 1.399 . S
C33 C34 1.381 . S
C34 H26 0.930 . S
C34 C30 1.390 . S
C34 C33 1.381 . S
N35 C28 1.286 . S
N35 C31 1.413 . S
H36 C41 0.930 . S
H37 C44 0.930 . S
H38 C46 0.930 . S
H39 C40 1.016 . S
C40 H39 1.016 . S
C40 N47 1.286 . S
C41 H36 0.930 . S
C41 C42 1.397 . S
C41 C43 1.361 . S
C42 C41 1.397 . S
C42 C46 1.390 . S
C43 C41 1.361 . S
C43 C44 1.393 . S
C43 N47 1.413 . S
C44 H37 0.930 . S
C44 C43 1.393 . S
C44 C45 1.399 . S
C45 C44 1.399 . S
C45 C46 1.381 . S
C46 H38 0.930 . S
C46 C42 1.390 . S
C46 C45 1.381 . S
N47 C40 1.286 . S
N47 C43 1.413 . S
Tb48 N77 2.617 . S
Tb48 N83 2.572 . S
Tb48 O92 2.465 . S
Tb48 O93 2.387 . S
Tb48 O95 2.428 . S
Tb48 O96 2.308 1_565 S
Tb48 O100 2.349 1_465 S
Tb48 O103 2.393 1_455 S
Tb48 C112 2.802 . S
C49 N50 1.379 . S
C49 C52 1.416 . S
C49 C56 1.424 . S
N50 C49 1.379 . S
N50 C53 1.334 1_655 S
N50 Tb59 2.617 . S
C51 C53 1.390 . S
C51 C54 1.339 1_455 S
C51 H71 0.930 . S
C52 C49 1.416 . S
C52 C54 1.416 . S
C52 C58 1.448 . S
C53 N50 1.334 1_455 S
C53 C51 1.390 . S
C53 H64 0.930 . S
C54 C51 1.339 1_655 S
C54 C52 1.416 . S
C54 H75 0.930 . S
C55 C56 1.413 . S
C55 C57 1.427 . S
C55 C61 1.416 . S
C56 C49 1.424 . S
C56 C55 1.413 . S
C56 N60 1.361 . S
C57 C55 1.427 . S
C57 C58 1.328 . S
C57 H72 0.929 . S
C58 C52 1.448 . S
C58 C57 1.328 . S
C58 H73 0.930 . S
Tb59 N50 2.617 . S
Tb59 N60 2.572 . S
Tb59 O94 2.349 1_655 S
Tb59 O97 2.393 1_655 S
Tb59 O98 2.465 . S
Tb59 O99 2.387 . S
Tb59 O101 2.428 . S
Tb59 O102 2.308 1_545 S
Tb59 C123 2.802 . S
N60 C56 1.361 . S
N60 Tb59 2.572 . S
N60 C62 1.340 . S
C61 C55 1.416 . S
C61 C63 1.332 . S
C61 H69 0.931 . S
C62 N60 1.340 . S
C62 C63 1.407 . S
C62 H68 0.930 . S
C63 C61 1.332 . S
C63 C62 1.407 . S
C63 H65 0.929 . S
H64 C53 0.930 . S
H65 C63 0.929 . S
H66 C81 0.930 1_655 S
H67 C88 0.929 . S
H68 C62 0.930 . S
H69 C61 0.931 . S
H70 C84 0.930 . S
H71 C51 0.930 . S
H72 C57 0.929 . S
H73 C58 0.930 . S
H74 C79 0.930 1_655 S
H75 C54 0.930 . S
H76 C87 0.931 . S
N77 Tb48 2.617 . S
N77 C78 1.379 . S
N77 C81 1.334 . S
C78 N77 1.379 . S
C78 C80 1.416 . S
C78 C86 1.424 . S
C79 H74 0.930 1_455 S
C79 C81 1.390 . S
C79 C82 1.339 . S
C80 C78 1.416 . S
C80 C82 1.416 . S
C80 C113 1.448 . S
C81 H66 0.930 1_455 S
C81 N77 1.334 . S
C81 C79 1.390 . S
C82 C79 1.339 . S
C82 C80 1.416 . S
C82 H89 0.930 . S
N83 Tb48 2.572 . S
N83 C84 1.340 . S
N83 C86 1.361 . S
C84 H70 0.930 . S
C84 N83 1.340 . S
C84 C88 1.407 . S
C85 C86 1.413 . S
C85 C87 1.416 . S
C85 C114 1.427 . S
C86 C78 1.424 . S
C86 N83 1.361 . S
C86 C85 1.413 . S
C87 H76 0.931 . S
C87 C85 1.416 . S
C87 C88 1.332 . S
C88 H67 0.929 . S
C88 C84 1.407 . S
C88 C87 1.332 . S
H89 C82 0.930 . S
H90 C113 0.930 . S
H91 C114 0.929 . S
O92 Tb48 2.465 . S
O92 C112 1.264 . S
O93 Tb48 2.387 . S
O93 C104 1.264 . S
O94 Tb59 2.349 1_455 S
O94 C104 1.243 1_545 S
O95 Tb48 2.428 . S
O95 C112 1.256 . S
O96 Tb48 2.308 1_545 S
O96 C111 1.266 . S
O97 Tb59 2.393 1_455 S
O97 C111 1.248 . S
O98 Tb59 2.465 . S
O98 C123 1.264 . S
O99 Tb59 2.387 . S
O99 C115 1.264 . S
O100 Tb48 2.349 1_645 S
O100 C115 1.243 . S
O101 Tb59 2.428 . S
O101 C123 1.256 . S
O102 Tb59 2.308 1_565 S
O102 C122 1.266 . S
O103 Tb48 2.393 1_655 S
O103 C122 1.248 . S
C104 O93 1.264 . S
C104 O94 1.243 1_565 S
C105 C108 1.399 . S
C105 C110 1.383 . S
C105 C112 1.496 . S
C106 C107 1.399 . S
C106 C110 1.389 . S
C107 C106 1.399 . S
C107 C109 1.380 . S
C107 H124 0.929 . S
C108 C105 1.399 . S
C108 C109 1.392 . S
C108 H125 0.929 . S
C109 C107 1.380 . S
C109 C108 1.392 . S
C109 H126 0.929 . S
C110 C105 1.383 . S
C110 C106 1.389 . S
C110 H127 0.931 . S
C111 O96 1.266 . S
C111 O97 1.248 . S
C112 Tb48 2.802 . S
C112 O92 1.264 . S
C112 O95 1.256 . S
C112 C105 1.496 . S
C113 C80 1.448 . S
C113 H90 0.930 . S
C113 C114 1.328 . S
C114 C85 1.427 . S
C114 H91 0.929 . S
C114 C113 1.328 . S
C115 O99 1.264 . S
C115 O100 1.243 . S
C116 C119 1.399 . S
C116 C120 1.383 . S
C116 C123 1.496 . S
C117 C118 1.399 . S
C117 C120 1.389 . S
C118 C117 1.399 . S
C118 C121 1.380 . S
C118 H128 0.929 . S
C119 C116 1.399 . S
C119 C121 1.392 . S
C119 H129 0.929 . S
C120 C116 1.383 . S
C120 C117 1.389 . S
C120 H130 0.931 . S
C121 C118 1.380 . S
C121 C119 1.392 . S
C121 H131 0.929 . S
C122 O102 1.266 . S
C122 O103 1.248 . S
C123 Tb59 2.802 . S
C123 O98 1.264 . S
C123 O101 1.256 . S
C123 C116 1.496 . S
H124 C107 0.929 . S
H125 C108 0.929 . S
H126 C109 0.929 . S
H127 C110 0.931 . S
H128 C118 0.929 . S
H129 C119 0.929 . S
H130 C120 0.931 . S
H131 C121 0.929 . S
Tb132 N161 2.617 . S
Tb132 N167 2.572 . S
Tb132 O176 2.465 1_554 S
Tb132 O177 2.387 . S
Tb132 O179 2.428 1_554 S
Tb132 O180 2.308 . S
Tb132 O184 2.349 1_554 S
Tb132 O187 2.393 . S
Tb132 C196 2.802 1_554 S
C133 N134 1.379 . S
C133 C136 1.416 . S
C133 C140 1.424 . S
N134 C133 1.379 . S
N134 C137 1.334 . S
N134 Tb143 2.617 . S
C135 C137 1.390 . S
C135 C138 1.339 . S
C135 H155 0.930 . S
C136 C133 1.416 . S
C136 C138 1.416 . S
C136 C142 1.448 . S
C137 N134 1.334 . S
C137 C135 1.390 . S
C137 H148 0.930 . S
C138 C135 1.339 . S
C138 C136 1.416 . S
C138 H159 0.930 . S
C139 C140 1.413 . S
C139 C141 1.427 . S
C139 C145 1.416 . S
C140 C133 1.424 . S
C140 C139 1.413 . S
C140 N144 1.361 . S
C141 C139 1.427 . S
C141 C142 1.328 . S
C141 H156 0.929 . S
C142 C136 1.448 . S
C142 C141 1.328 . S
C142 H157 0.930 . S
Tb143 N134 2.617 . S
Tb143 N144 2.572 . S
Tb143 O178 2.349 . S
Tb143 O181 2.393 . S
Tb143 O182 2.465 . S
Tb143 O183 2.387 . S
Tb143 O185 2.428 . S
Tb143 O186 2.308 . S
Tb143 C207 2.802 . S
N144 C140 1.361 . S
N144 Tb143 2.572 . S
N144 C146 1.340 . S
C145 C139 1.416 . S
C145 C147 1.332 . S
C145 H153 0.931 . S
C146 N144 1.340 . S
C146 C147 1.407 . S
C146 H152 0.930 . S
C147 C145 1.332 . S
C147 C146 1.407 . S
C147 H149 0.929 . S
H148 C137 0.930 . S
H149 C147 0.929 . S
H150 C165 0.930 . S
H151 C172 0.929 . S
H152 C146 0.930 . S
H153 C145 0.931 . S
H154 C168 0.930 . S
H155 C135 0.930 . S
H156 C141 0.929 . S
H157 C142 0.930 . S
H158 C163 0.930 . S
H159 C138 0.930 . S
H160 C171 0.931 . S
N161 Tb132 2.617 . S
N161 C162 1.379 . S
N161 C165 1.334 1_554 S
C162 N161 1.379 . S
C162 C164 1.416 . S
C162 C170 1.424 . S
C163 H158 0.930 . S
C163 C165 1.390 . S
C163 C166 1.339 1_556 S
C164 C162 1.416 . S
C164 C166 1.416 . S
C164 C197 1.448 . S
C165 H150 0.930 . S
C165 N161 1.334 1_556 S
C165 C163 1.390 . S
C166 C163 1.339 1_554 S
C166 C164 1.416 . S
C166 H173 0.930 . S
N167 Tb132 2.572 . S
N167 C168 1.340 . S
N167 C170 1.361 . S
C168 H154 0.930 . S
C168 N167 1.340 . S
C168 C172 1.407 . S
C169 C170 1.413 . S
C169 C171 1.416 . S
C169 C198 1.427 . S
C170 C162 1.424 . S
C170 N167 1.361 . S
C170 C169 1.413 . S
C171 H160 0.931 . S
C171 C169 1.416 . S
C171 C172 1.332 . S
C172 H151 0.929 . S
C172 C168 1.407 . S
C172 C171 1.332 . S
H173 C166 0.930 . S
H174 C197 0.930 . S
H175 C198 0.929 . S
O176 Tb132 2.465 1_556 S
O176 C196 1.264 . S
O177 Tb132 2.387 . S
O177 C188 1.264 . S
O178 Tb143 2.349 . S
O178 C188 1.243 . S
O179 Tb132 2.428 1_556 S
O179 C196 1.256 . S
O180 Tb132 2.308 . S
O180 C195 1.266 . S
O181 Tb143 2.393 . S
O181 C195 1.248 . S
O182 Tb143 2.465 . S
O182 C207 1.264 . S
O183 Tb143 2.387 . S
O183 C199 1.264 1_554 S
O184 Tb132 2.349 1_556 S
O184 C199 1.243 . S
O185 Tb143 2.428 . S
O185 C207 1.256 . S
O186 Tb143 2.308 . S
O186 C206 1.266 . S
O187 Tb132 2.393 . S
O187 C206 1.248 . S
C188 O177 1.264 . S
C188 O178 1.243 . S
C189 C192 1.399 . S
C189 C194 1.383 . S
C189 C196 1.496 . S
C190 C191 1.399 . S
C190 C194 1.389 . S
C191 C190 1.399 . S
C191 C193 1.380 . S
C191 H208 0.929 . S
C192 C189 1.399 . S
C192 C193 1.392 . S
C192 H209 0.929 . S
C193 C191 1.380 . S
C193 C192 1.392 . S
C193 H210 0.929 . S
C194 C189 1.383 . S
C194 C190 1.389 . S
C194 H211 0.931 . S
C195 O180 1.266 . S
C195 O181 1.248 . S
C196 Tb132 2.802 1_556 S
C196 O176 1.264 . S
C196 O179 1.256 . S
C196 C189 1.496 . S
C197 C164 1.448 . S
C197 H174 0.930 . S
C197 C198 1.328 . S
C198 C169 1.427 . S
C198 H175 0.929 . S
C198 C197 1.328 . S
C199 O183 1.264 1_556 S
C199 O184 1.243 . S
C200 C203 1.399 . S
C200 C204 1.383 . S
C200 C207 1.496 . S
C201 C202 1.399 . S
C201 C204 1.389 . S
C202 C201 1.399 . S
C202 C205 1.380 . S
C202 H212 0.929 . S
C203 C200 1.399 . S
C203 C205 1.392 . S
C203 H213 0.929 . S
C204 C200 1.383 . S
C204 C201 1.389 . S
C204 H214 0.931 . S
C205 C202 1.380 . S
C205 C203 1.392 . S
C205 H215 0.929 . S
C206 O186 1.266 . S
C206 O187 1.248 . S
C207 Tb143 2.802 . S
C207 O182 1.264 . S
C207 O185 1.256 . S
C207 C200 1.496 . S
H208 C191 0.929 . S
H209 C192 0.929 . S
H210 C193 0.929 . S
H211 C194 0.931 . S
H212 C202 0.929 . S
H213 C203 0.929 . S
H214 C204 0.931 . S
H215 C205 0.929 . S
C216 C217 1.387 . S
C216 H220 0.950 . S
C216 C225 1.390 . S
C217 C216 1.387 . S
C217 C219 1.387 . S
H218 C225 0.950 . S
C219 C217 1.387 . S
C219 C221 1.390 . S
C219 H223 0.950 . S
H220 C216 0.950 . S
C221 C219 1.390 . S
C221 C222 1.387 . S
C221 H224 0.950 . S
C222 C221 1.387 . S
C222 C225 1.387 . S
H223 C219 0.950 . S
H224 C221 0.950 . S
C225 C216 1.390 . S
C225 H218 0.950 . S
C225 C222 1.387 . S
C226 C227 1.387 . S
C226 H230 0.950 1_554 S
C226 C235 1.390 . S
C227 C226 1.387 . S
C227 C229 1.387 . S
H228 C235 0.950 1_556 S
C229 C227 1.387 . S
C229 C231 1.390 . S
C229 H233 0.950 . S
H230 C226 0.950 1_556 S
C231 C229 1.390 . S
C231 C232 1.387 . S
C231 H234 0.950 . S
C232 C231 1.387 . S
C232 C235 1.387 . S
H233 C229 0.950 . S
H234 C231 0.950 . S
C235 C226 1.390 . S
C235 H228 0.950 1_554 S
C235 C232 1.387 . S
C236 C237 1.387 . S
C236 H240 0.950 . S
C236 C245 1.390 . S
C237 C236 1.387 . S
C237 C239 1.387 . S
H238 C245 0.950 . S
C239 C237 1.387 . S
C239 C241 1.390 . S
C239 H243 0.950 . S
H240 C236 0.950 . S
C241 C239 1.390 . S
C241 C242 1.387 . S
C241 H244 0.950 . S
C242 C241 1.387 . S
C242 C245 1.387 . S
H243 C239 0.950 . S
H244 C241 0.950 . S
C245 C236 1.390 . S
C245 H238 0.950 . S
C245 C242 1.387 . S
C246 C247 1.387 . S
C246 H250 0.950 . S
C246 C255 1.390 . S
C247 C246 1.387 . S
C247 C249 1.387 . S
H248 C255 0.950 . S
C249 C247 1.387 . S
C249 C251 1.390 . S
C249 H253 0.950 1_554 S
H250 C246 0.950 . S
C251 C249 1.390 . S
C251 C252 1.387 . S
C251 H254 0.950 1_554 S
C252 C251 1.387 . S
C252 C255 1.387 . S
H253 C249 0.950 1_556 S
H254 C251 0.950 1_556 S
C255 C246 1.390 . S
C255 H248 0.950 . S
C255 C252 1.387 . S
C256 C257 1.387 . S
C256 H260 0.950 . S
C256 C265 1.390 . S
C257 C256 1.387 . S
C257 C259 1.387 . S
H258 C265 0.950 1_545 S
C259 C257 1.387 . S
C259 C261 1.390 . S
C259 H263 0.950 . S
H260 C256 0.950 . S
C261 C259 1.390 . S
C261 C262 1.387 . S
C261 H264 0.950 . S
C262 C261 1.387 . S
C262 C265 1.387 . S
H263 C259 0.950 . S
H264 C261 0.950 . S
C265 C256 1.390 . S
C265 H258 0.950 1_565 S
C265 C262 1.387 . S
C266 C267 1.387 . S
C266 H270 0.950 . S
C266 C275 1.390 . S
C267 C266 1.387 . S
C267 C269 1.387 . S
H268 C275 0.950 . S
C269 C267 1.387 . S
C269 C271 1.390 . S
C269 H273 0.950 . S
H270 C266 0.950 . S
C271 C269 1.390 . S
C271 C272 1.387 . S
C271 H274 0.950 . S
C272 C271 1.387 . S
C272 C275 1.387 . S
H273 C269 0.950 . S
H274 C271 0.950 . S
C275 C266 1.390 . S
C275 H268 0.950 . S
C275 C272 1.387 . S
C276 C277 1.387 . S
C276 H280 0.950 . S
C276 C285 1.390 . S
C277 C276 1.387 . S
C277 C279 1.387 . S
H278 C285 0.964 . S
C279 C277 1.387 . S
C279 C281 1.390 . S
C279 H283 0.950 . S
H280 C276 0.950 . S
C281 C279 1.390 . S
C281 C282 1.387 . S
C281 H284 0.950 . S
C282 C281 1.387 . S
C282 C285 1.387 . S
H283 C279 0.950 . S
H284 C281 0.950 . S
C285 C276 1.390 . S
C285 H278 0.964 . S
C285 C282 1.387 . S
C286 C287 1.387 . S
C286 H290 0.950 . S
C286 C295 1.390 . S
C287 C286 1.387 . S
C287 C289 1.387 . S
H288 C295 0.950 . S
C289 C287 1.387 . S
C289 C291 1.390 . S
C289 H293 0.950 . S
H290 C286 0.950 . S
C291 C289 1.390 . S
C291 C292 1.387 . S
C291 H294 0.950 . S
C292 C291 1.387 . S
C292 C295 1.387 . S
H293 C289 0.950 . S
H294 C291 0.950 . S
C295 C286 1.390 . S
C295 H288 0.950 . S
C295 C292 1.387 . S
C296 C297 1.387 . S
C296 H300 0.950 . S
C296 C305 1.390 . S
C297 C296 1.387 . S
C297 C299 1.387 . S
H298 C305 0.950 . S
C299 C297 1.387 . S
C299 C301 1.390 . S
C299 H303 0.950 . S
H300 C296 0.950 . S
C301 C299 1.390 . S
C301 C302 1.387 . S
C301 H304 0.950 . S
C302 C301 1.387 . S
C302 C305 1.387 . S
H303 C299 0.950 . S
H304 C301 0.950 . S
C305 C296 1.390 . S
C305 H298 0.950 . S
C305 C302 1.387 . S
C306 C307 1.387 . S
C306 H310 0.950 1_556 S
C306 C315 1.390 . S
C307 C306 1.387 . S
C307 C309 1.387 . S
H308 C315 0.950 . S
C309 C307 1.387 . S
C309 C311 1.390 . S
C309 H313 0.950 . S
H310 C306 0.950 1_554 S
C311 C309 1.390 . S
C311 C312 1.387 . S
C311 H314 0.950 . S
C312 C311 1.387 . S
C312 C315 1.387 . S
H313 C309 0.950 . S
H314 C311 0.950 . S
C315 C306 1.390 . S
C315 H308 0.950 . S
C315 C312 1.387 . S
C316 C317 1.387 . S
C316 H320 0.950 . S
C316 C325 1.390 . S
C317 C316 1.387 . S
C317 C319 1.387 . S
H318 C325 0.950 . S
C319 C317 1.387 . S
C319 C321 1.390 . S
C319 H323 0.950 . S
H320 C316 0.950 . S
C321 C319 1.390 . S
C321 C322 1.387 . S
C321 H324 0.950 . S
C322 C321 1.387 . S
C322 C325 1.387 . S
H323 C319 0.950 . S
H324 C321 0.950 . S
C325 C316 1.390 . S
C325 H318 0.950 . S
C325 C322 1.387 . S
C326 C327 1.387 . S
C326 H330 0.950 . S
C326 C335 1.390 . S
C327 C326 1.387 . S
C327 C329 1.387 . S
H328 C335 0.950 1_545 S
C329 C327 1.387 . S
C329 C331 1.390 . S
C329 H333 0.950 . S
H330 C326 0.950 . S
C331 C329 1.390 . S
C331 C332 1.387 . S
C331 H334 0.950 . S
C332 C331 1.387 . S
C332 C335 1.387 . S
H333 C329 0.950 . S
H334 C331 0.950 . S
C335 C326 1.390 . S
C335 H328 0.950 1_565 S
C335 C332 1.387 . S
C222 C111 1.634 . S
C217 C40 1.635 . S
C227 C4 1.642 . S
C232 C206 1.635 . S
C237 C16 1.629 . S
C242 C122 1.652 . S
C247 C28 1.601 . S
C252 C195 1.609 . S
C262 C106 1.407 . S
C257 C9 1.590 . S
C272 C199 1.688 . S
C267 C18 1.683 . S
C277 C33 1.625 . S
C282 C115 1.650 . S
C287 C45 1.591 . S
C292 C190 1.428 . S
C302 C201 1.397 . S
C297 C21 1.562 . S
C312 C117 1.362 . S
C307 C30 1.549 1_556 S
C322 C188 1.627 . S
C317 C42 1.613 . S
C327 C6 1.571 . S
C332 C104 1.600 . S
