# Generated by pormake.
# Topology pth, (4,4)-cn, num edge types: 1
# Building blocks:
#     Node 0, Type 0, BuildingBlock: TATPOV_clean_sbu_0, # of connection points: 4
#     Node 1, Type 0, BuildingBlock: TATPOV_clean_sbu_0, # of connection points: 4
#     Node 2, Type 0, BuildingBlock: TATPOV_clean_sbu_0, # of connection points: 4
#     Node 3, Type 1, BuildingBlock: MIFKUJ_clean_linker_1, # of connection points: 4
#     Node 4, Type 1, BuildingBlock: MIFKUJ_clean_linker_1, # of connection points: 4
#     Node 5, Type 1, BuildingBlock: MIFKUJ_clean_linker_1, # of connection points: 4
#     Edge 6, Type (0, 1), BuildingBlock: UVAHIK_clean_linker_0, # of connection points: 2
#     Edge 7, Type (0, 1), BuildingBlock: UVAHIK_clean_linker_0, # of connection points: 2
#     Edge 8, Type (0, 1), BuildingBlock: UVAHIK_clean_linker_0, # of connection points: 2
#     Edge 9, Type (0, 1), BuildingBlock: UVAHIK_clean_linker_0, # of connection points: 2
#     Edge 10, Type (0, 1), BuildingBlock: UVAHIK_clean_linker_0, # of connection points: 2
#     Edge 11, Type (0, 1), BuildingBlock: UVAHIK_clean_linker_0, # of connection points: 2
#     Edge 12, Type (0, 1), BuildingBlock: UVAHIK_clean_linker_0, # of connection points: 2
#     Edge 13, Type (0, 1), BuildingBlock: UVAHIK_clean_linker_0, # of connection points: 2
#     Edge 14, Type (0, 1), BuildingBlock: UVAHIK_clean_linker_0, # of connection points: 2
#     Edge 15, Type (0, 1), BuildingBlock: UVAHIK_clean_linker_0, # of connection points: 2
#     Edge 16, Type (0, 1), BuildingBlock: UVAHIK_clean_linker_0, # of connection points: 2
#     Edge 17, Type (0, 1), BuildingBlock: UVAHIK_clean_linker_0, # of connection points: 2
# Relax obj value: 0.038
# Max RMSD: 0.160
# Mean RMSD: 0.089
data_MOF--net-pth--node1-TATPOV_clean_sbu_0--node2-MIFKUJ_clean_linker_1--edge1-UVAHIK_clean_linker_0
_symmetry_space_group_name_H-M    P1
_symmetry_Int_Tables_number       1
_symmetry_cell_setting            triclinic
loop_
_symmetry_equiv_pos_as_xyz
'x, y, z'
_cell_length_a     36.965424
_cell_length_b     36.648674
_cell_length_c     77.559896
_cell_angle_alpha  92.496862
_cell_angle_beta   92.086146
_cell_angle_gamma 120.79039
loop_
_atom_site_label
_atom_site_type_symbol
_atom_site_fract_x
_atom_site_fract_y
_atom_site_fract_z
_atom_type_partial_charge
Zn0 Zn 0.11992 0.01078 0.03386 0.0
Zn1 Zn 0.0876 0.05207 0.05086 0.0
O2 O 0.09068 0.01407 0.06895 0.0
O3 O 0.11666 0.97977 0.05516 0.0
O4 O 0.06847 0.08688 0.06427 0.0
O5 O 0.17227 0.06599 0.02946 0.0
O6 O 0.14264 0.09878 0.04148 0.0
C7 C 0.10219 0.98669 0.06867 0.0
C8 C 0.03864 0.99311 0.01901 0.0
O9 O 0.0409 0.01736 0.0318 0.0
O10 O 0.06855 0.98628 0.0168 0.0
C11 C 0.03014 0.07574 0.06594 0.0
O12 O 0.0 0.03905 0.05861 0.0
C13 C 0.1729 0.1001 0.0336 0.0
Zn14 Zn 0.12637 0.09875 0.35224 0.0
Zn15 Zn 0.05939 0.07178 0.37166 0.0
O16 O 0.10908 0.09009 0.38962 0.0
O17 O 0.16448 0.11486 0.37407 0.0
O18 O 0.00982 0.05708 0.38587 0.0
O19 O 0.11433 0.14062 0.34127 0.0
O20 O 0.05974 0.11762 0.35717 0.0
C21 C 0.14873 0.10656 0.38864 0.0
C22 C 0.06227 0.00879 0.34577 0.0
O23 O 0.04312 0.01647 0.35741 0.0
O24 O 0.09766 0.03828 0.34144 0.0
C25 C 0.00357 0.04033 0.40029 0.0
O26 O 0.03032 0.03008 0.40669 0.0
C27 C 0.08229 0.14166 0.34577 0.0
Zn28 Zn 0.08393 0.963 0.72735 0.0
Zn29 Zn 0.03757 0.98431 0.70717 0.0
O30 O 0.07289 0.97396 0.68983 0.0
O31 O 0.11169 0.95764 0.70624 0.0
O32 O -0.00187 0.9946 0.69236 0.0
O33 O 0.03201 0.91217 0.73508 0.0
O34 O 0.99515 0.93329 0.72016 0.0
C35 C 0.10115 0.96401 0.69146 0.0
C36 C 0.09748 0.0474 0.73607 0.0
O37 O 0.07224 0.03913 0.72288 0.0
O38 O 0.10651 0.0201 0.74072 0.0
C39 C 0.00653 0.01179 0.67802 0.0
O40 O 0.04396 0.02542 0.67219 0.0
C41 C -0.00322 0.90779 0.73039 0.0
H42 H 0.99046 0.47209 0.17265 0.0
H43 H 0.0006 0.42172 0.15497 0.0
H44 H 0.88594 0.31745 0.17242 0.0
H45 H 0.87499 0.36818 0.18948 0.0
H46 H 0.9372 0.49638 0.17337 0.0
H47 H 0.98947 0.44169 0.21317 0.0
H48 H 0.00186 0.39401 0.22986 0.0
H49 H 0.87555 0.33701 0.24729 0.0
H50 H 0.86386 0.38605 0.23078 0.0
H51 H 0.85691 0.51956 0.22995 0.0
H52 H 0.86403 0.57593 0.25078 0.0
H53 H -0.00066 0.64296 0.24786 0.0
H54 H 0.99198 0.58714 0.22699 0.0
H55 H 0.91119 0.47471 0.23545 0.0
H56 H 0.87985 0.55798 0.19475 0.0
H57 H 0.8988 0.62647 0.18323 0.0
H58 H 0.02116 0.64635 0.17232 0.0
H59 H 0.00221 0.5783 0.1839 0.0
C60 C 0.93208 0.42398 0.18249 0.0
C61 C 0.96717 0.43843 0.17249 0.0
C62 C 0.9732 0.40952 0.16253 0.0
C63 C 0.94427 0.36548 0.16238 0.0
C64 C 0.90866 0.35114 0.17212 0.0
C65 C 0.90257 0.38011 0.18203 0.0
C66 C 0.92708 0.4547 0.19381 0.0
C67 C 0.93114 0.49131 0.1869 0.0
C68 C 0.92022 0.44894 0.21159 0.0
C69 C 0.92554 0.41698 0.22055 0.0
C70 C 0.96416 0.41841 0.22034 0.0
C71 C 0.97115 0.39099 0.22988 0.0
C72 C 0.93962 0.36143 0.23988 0.0
C73 C 0.90066 0.35967 0.23989 0.0
C74 C 0.89379 0.38742 0.23038 0.0
C75 C 0.92393 0.54951 0.22697 0.0
C76 C 0.88798 0.54657 0.23379 0.0
C77 C 0.89207 0.57866 0.2456 0.0
C78 C 0.93224 0.61348 0.25097 0.0
C79 C 0.96808 0.61617 0.24407 0.0
C80 C 0.96393 0.58454 0.23212 0.0
C81 C 0.92044 0.51549 0.21488 0.0
C82 C 0.91523 0.4785 0.22172 0.0
C83 C 0.9291 0.52233 0.19736 0.0
C84 C 0.93962 0.5631 0.19012 0.0
C85 C 0.91076 0.57722 0.18991 0.0
C86 C 0.92156 0.61622 0.18331 0.0
C87 C 0.96155 0.64183 0.17699 0.0
C88 C 0.99037 0.6276 0.17733 0.0
C89 C 0.97942 0.58854 0.18376 0.0
H90 H 0.63189 0.08739 0.50863 0.0
H91 H 0.68703 0.08779 0.49198 0.0
H92 H 0.65238 0.96372 0.50873 0.0
H93 H 0.59738 0.96352 0.52532 0.0
H94 H 0.54918 0.03811 0.50656 0.0
H95 H 0.65836 0.07766 0.54956 0.0
H96 H 0.71467 0.07586 0.5662 0.0
H97 H 0.62376 0.95224 0.58268 0.0
H98 H 0.56741 0.9544 0.56603 0.0
H99 H 0.45156 0.94937 0.56194 0.0
H100 H 0.39114 0.94079 0.57713 0.0
H101 H 0.42596 0.06962 0.56735 0.0
H102 H 0.4871 0.07838 0.55267 0.0
H103 H 0.53772 0.00687 0.56842 0.0
H104 H 0.4282 0.97311 0.52257 0.0
H105 H 0.3765 0.98689 0.50845 0.0
H106 H 0.47668 0.11364 0.4992 0.0
H107 H 0.528 0.09999 0.51372 0.0
C108 C 0.61079 0.02565 0.51837 0.0
C109 C 0.6361 0.06023 0.50866 0.0
C110 C 0.66753 0.06036 0.49912 0.0
C111 C 0.67417 0.02583 0.49908 0.0
C112 C 0.64855 0.9911 0.50872 0.0
C113 C 0.61706 0.99094 0.5182 0.0
C114 C 0.57746 0.02548 0.52855 0.0
C115 C 0.54702 0.03177 0.52014 0.0
C116 C 0.57464 0.0174 0.54629 0.0
C117 C 0.60871 0.01595 0.5564 0.0
C118 C 0.65059 0.04998 0.55663 0.0
C119 C 0.68279 0.04887 0.56613 0.0
C120 C 0.67377 0.01382 0.57572 0.0
C121 C 0.63171 0.9799 0.57558 0.0
C122 C 0.59949 0.98102 0.56604 0.0
C123 C 0.47358 0.01436 0.55607 0.0
C124 C 0.44631 0.97583 0.5632 0.0
C125 C 0.41155 0.97085 0.57169 0.0
C126 C 0.40352 0.0044 0.57331 0.0
C127 C 0.43138 0.04325 0.56641 0.0
C128 C 0.46617 0.04822 0.55793 0.0
C129 C 0.50913 0.01857 0.54632 0.0
C130 C 0.53998 0.0131 0.55484 0.0
C131 C 0.513 0.02858 0.52882 0.0
C132 C 0.48186 0.03567 0.51931 0.0
C133 C 0.43895 0.00385 0.51751 0.0
C134 C 0.4095 0.01171 0.50936 0.0
C135 C 0.42247 0.05147 0.50281 0.0
C136 C 0.4656 0.08295 0.50436 0.0
C137 C 0.49501 0.07505 0.51248 0.0
H138 H 0.48352 0.4653 0.84382 0.0
H139 H 0.42135 0.41043 0.82634 0.0
H140 H 0.34095 0.43305 0.85844 0.0
H141 H 0.40337 0.4899 0.87545 0.0
H142 H 0.51596 0.54227 0.84657 0.0
H143 H 0.46747 0.44133 0.88716 0.0
H144 H 0.42655 0.38873 0.90746 0.0
H145 H 0.41337 0.48337 0.93716 0.0
H146 H 0.45261 0.53538 0.91627 0.0
H147 H 0.56238 0.65868 0.90398 0.0
H148 H 0.62398 0.71988 0.91932 0.0
H149 H 0.70038 0.66626 0.90539 0.0
H150 H 0.63885 0.60613 0.88951 0.0
H151 H 0.53044 0.56783 0.9104 0.0
H152 H 0.59171 0.66802 0.86392 0.0
H153 H 0.64942 0.7106 0.84555 0.0
H154 H 0.65369 0.59844 0.82967 0.0
H155 H 0.59686 0.55647 0.84823 0.0
C156 C 0.44835 0.48198 0.86099 0.0
C157 C 0.45263 0.45878 0.84712 0.0
C158 C 0.41719 0.4274 0.83715 0.0
C159 C 0.37671 0.418 0.84106 0.0
C160 C 0.37202 0.43991 0.85526 0.0
C161 C 0.40763 0.47208 0.86503 0.0
C162 C 0.48658 0.51833 0.87036 0.0
C163 C 0.51899 0.54729 0.86057 0.0
C164 C 0.49123 0.52518 0.88864 0.0
C165 C 0.46278 0.49227 0.90005 0.0
C166 C 0.45486 0.45053 0.89778 0.0
C167 C 0.43199 0.42061 0.90957 0.0
C168 C 0.41703 0.43192 0.92405 0.0
C169 C 0.4241 0.47346 0.92608 0.0
C170 C 0.44677 0.50332 0.9142 0.0
C171 C 0.59626 0.62817 0.89559 0.0
C172 C 0.59253 0.66037 0.9042 0.0
C173 C 0.62773 0.69517 0.91304 0.0
C174 C 0.66723 0.69806 0.91365 0.0
C175 C 0.67072 0.66555 0.90495 0.0
C176 C 0.63556 0.63099 0.89596 0.0
C177 C 0.5587 0.59112 0.88653 0.0
C178 C 0.52656 0.56237 0.89641 0.0
C179 C 0.55546 0.58279 0.86845 0.0
C180 C 0.59025 0.60919 0.85749 0.0
C181 C 0.60536 0.65279 0.85657 0.0
C182 C 0.63804 0.67695 0.84598 0.0
C183 C 0.65612 0.65784 0.83622 0.0
C184 C 0.6408 0.61417 0.83721 0.0
C185 C 0.60813 0.5901 0.8477 0.0
C186 C 0.05211 0.1419 0.08484 0.0
C187 C 0.01981 0.10412 0.07601 0.0
C188 C 0.04258 0.16883 0.09433 0.0
C189 C 0.96125 0.19759 0.09844 0.0
H190 H 0.01911 0.2475 0.14352 0.0
C191 C 0.91815 0.29827 0.14326 0.0
C192 C 0.95175 0.33464 0.15238 0.0
C193 C 0.92531 0.26915 0.13405 0.0
C194 C 0.00301 0.23424 0.13087 0.0
H195 H 0.95213 0.0651 0.0702 0.0
H196 H 0.93553 0.11223 0.08681 0.0
H197 H 0.03364 0.19853 0.12728 0.0
H198 H 0.0192 0.36857 0.15906 0.0
H199 H 0.03183 0.31855 0.14265 0.0
H200 H 0.93097 0.23369 0.10194 0.0
C201 C 0.96824 0.12105 0.08629 0.0
C202 C 0.0113 0.20611 0.12158 0.0
C203 C 0.97775 0.09395 0.07685 0.0
C204 C 0.99266 0.34121 0.15202 0.0
C205 C -0.00018 0.31218 0.14279 0.0
C206 C 0.95306 0.22588 0.10772 0.0
C207 C 0.00057 0.15874 0.09516 0.0
C208 C 0.99071 0.18765 0.10522 0.0
C209 C 0.96624 0.27571 0.13373 0.0
C210 C 0.97404 0.24475 0.12401 0.0
H211 H 0.08486 0.15077 0.08444 0.0
H212 H 0.06825 0.1979 0.10083 0.0
H213 H 0.94523 0.18426 0.08578 0.0
H214 H 0.8863 0.29243 0.14312 0.0
H215 H 0.89866 0.24121 0.12735 0.0
C216 C 0.96191 0.01939 0.4267 0.0
C217 C 0.96778 0.03496 0.41015 0.0
C218 C 0.92937 0.01663 0.4363 0.0
C219 C 0.86121 0.06247 0.44008 0.0
H220 H 0.79369 0.96575 0.46676 0.0
C221 C 0.71383 0.04034 0.4722 0.0
C222 C 0.70752 0.02589 0.48893 0.0
C223 C 0.74522 0.04047 0.46265 0.0
C224 C 0.81259 0.9932 0.45953 0.0
H225 H 0.94331 0.05875 0.39054 0.0
H226 H 0.88656 0.05357 0.40719 0.0
H227 H 0.84891 0.96715 0.44994 0.0
H228 H 0.72953 0.00063 0.50882 0.0
H229 H 0.78444 0.001 0.49217 0.0
H230 H 0.82515 0.08866 0.44968 0.0
C231 C 0.90747 0.04414 0.41288 0.0
C232 C 0.8442 0.99398 0.44989 0.0
C233 C 0.93989 0.04685 0.40329 0.0
C234 C 0.73323 0.01143 0.49588 0.0
C235 C 0.76467 0.01161 0.48633 0.0
C236 C 0.82969 0.06172 0.44972 0.0
C237 C 0.90211 0.02947 0.42957 0.0
C238 C 0.86874 0.02856 0.43999 0.0
C239 C 0.7711 0.02623 0.46961 0.0
C240 C 0.80488 0.02703 0.45951 0.0
H241 H 0.98286 0.00999 0.43237 0.0
H242 H 0.92626 0.00549 0.44917 0.0
H243 H 0.88009 0.08997 0.43287 0.0
H244 H 0.6941 0.05101 0.46636 0.0
H245 H 0.74885 0.05126 0.4497 0.0
C246 C 0.92091 0.87701 0.73668 0.0
C247 C 0.95823 0.87568 0.73817 0.0
C248 C 0.88648 0.85054 0.74606 0.0
C249 C 0.86372 0.79302 0.78571 0.0
H250 H 0.74684 0.74249 0.76859 0.0
C251 C 0.72556 0.67758 0.82448 0.0
C252 C 0.69063 0.68302 0.8249 0.0
C253 C 0.75748 0.70014 0.81343 0.0
C254 C 0.77936 0.75676 0.77358 0.0
H255 H 0.98766 0.84358 0.74978 0.0
H256 H 0.9274 0.7969 0.76581 0.0
H257 H 0.80308 0.78142 0.7493 0.0
H258 H 0.66171 0.71634 0.81408 0.0
H259 H 0.71789 0.75627 0.79486 0.0
H260 H 0.84012 0.76849 0.80996 0.0
C261 C 0.92511 0.81918 0.75777 0.0
C262 C 0.81155 0.77899 0.76254 0.0
C263 C 0.95955 0.84575 0.74849 0.0
C264 C 0.68844 0.71177 0.81413 0.0
C265 C 0.72032 0.73423 0.803 0.0
C266 C 0.83161 0.77073 0.7967 0.0
C267 C 0.88863 0.82208 0.75705 0.0
C268 C 0.8541 0.79736 0.76848 0.0
C269 C 0.75513 0.72859 0.80252 0.0
C270 C 0.7891 0.75238 0.79078 0.0
H271 H 0.91888 0.89975 0.72885 0.0
H272 H 0.85894 0.85374 0.74527 0.0
H273 H 0.89617 0.80758 0.79083 0.0
H274 H 0.7283 0.65592 0.83275 0.0
H275 H 0.78374 0.69486 0.81327 0.0
C276 C 0.07398 0.96277 0.0977 0.0
C277 C 0.09409 0.95914 0.08322 0.0
C278 C 0.06055 0.93235 0.11002 0.0
C279 C 0.02404 0.82005 0.11222 0.0
H280 H 0.04205 0.84211 0.16208 0.0
C281 C 0.94483 0.6842 0.15719 0.0
C282 C 0.97288 0.68244 0.16935 0.0
C283 C 0.95742 0.72094 0.14843 0.0
C284 C 0.03669 0.8356 0.14817 0.0
H285 H 0.11819 0.92218 0.07095 0.0
H286 H 0.09455 0.86933 0.09231 0.0
H287 H 0.07143 0.90201 0.14344 0.0
H288 H 0.03504 0.71854 0.18272 0.0
H289 H 0.05706 0.78282 0.16739 0.0
H290 H 0.98975 0.75392 0.11676 0.0
C291 C 0.0888 0.89539 0.09403 0.0
C292 C 0.05332 0.86978 0.13755 0.0
C293 C 0.10251 0.92585 0.08184 0.0
C294 C 0.01296 0.7189 0.17325 0.0
C295 C 0.02541 0.75578 0.16461 0.0
C296 C 0.00702 0.78607 0.12278 0.0
C297 C 0.06668 0.89766 0.10796 0.0
C298 C 0.04769 0.86219 0.11947 0.0
C299 C -0.00184 0.75676 0.15178 0.0
C300 C 0.01354 0.7934 0.14085 0.0
H301 H 0.06709 0.98809 0.09917 0.0
H302 H 0.04358 0.93479 0.12068 0.0
H303 H 0.0188 0.81335 0.09831 0.0
H304 H 0.91383 0.65655 0.15387 0.0
H305 H 0.93566 0.72099 0.1387 0.0
C306 C 0.15839 0.09469 0.41971 0.0
C307 C 0.17602 0.11178 0.40415 0.0
C308 C 0.18359 0.09376 0.43339 0.0
C309 C 0.29509 0.13562 0.44947 0.0
H310 H 0.2489 0.02561 0.46862 0.0
C311 C 0.35896 0.02923 0.48258 0.0
C312 C 0.39126 0.06008 0.49426 0.0
C313 C 0.33057 0.03791 0.47404 0.0
C314 C 0.26228 0.05651 0.4634 0.0
H315 H 0.23443 0.14375 0.39121 0.0
H316 H 0.27803 0.1418 0.41489 0.0
H317 H 0.2041 0.03918 0.44944 0.0
H318 H 0.4181 0.12368 0.50661 0.0
H319 H 0.36845 0.13883 0.4917 0.0
H320 H 0.35384 0.1522 0.46272 0.0
C321 C 0.24487 0.12931 0.41663 0.0
C322 C 0.23643 0.06452 0.45258 0.0
C323 C 0.21974 0.13017 0.40297 0.0
C324 C 0.394 0.09951 0.49746 0.0
C325 C 0.36553 0.10817 0.48893 0.0
C326 C 0.32096 0.12759 0.46027 0.0
C327 C 0.22693 0.11006 0.43182 0.0
C328 C 0.25278 0.10384 0.44518 0.0
C329 C 0.33371 0.07761 0.477 0.0
C330 C 0.3051 0.08761 0.46704 0.0
H331 H 0.12484 0.08042 0.42107 0.0
H332 H 0.16893 0.07927 0.44503 0.0
H333 H 0.30853 0.16642 0.44414 0.0
H334 H 0.35633 -0.00125 0.47967 0.0
H335 H 0.30692 0.0139 0.46471 0.0
C336 C 0.12505 0.12591 0.73829 0.0
C337 C 0.11658 0.08879 0.74619 0.0
C338 C 0.14646 0.16547 0.74778 0.0
C339 C 0.17362 0.21785 0.79141 0.0
H340 H 0.28245 0.29777 0.77501 0.0
C341 C 0.30869 0.34852 0.83688 0.0
C342 C 0.33972 0.3857 0.83004 0.0
C343 C 0.27609 0.31599 0.826 0.0
C344 C 0.25178 0.27657 0.77966 0.0
H345 H 0.1217 0.06344 0.7703 0.0
H346 H 0.15795 0.13227 0.78694 0.0
H347 H 0.23315 0.23428 0.75683 0.0
H348 H 0.36021 0.41966 0.80688 0.0
H349 H 0.3022 0.36397 0.78793 0.0
H350 H 0.19186 0.25986 0.81422 0.0
C351 C 0.14852 0.13087 0.77341 0.0
C352 C 0.22361 0.24007 0.76921 0.0
C353 C 0.12811 0.09161 0.76387 0.0
C354 C 0.33668 0.39091 0.81235 0.0
C355 C 0.30363 0.35884 0.80152 0.0
C356 C 0.20143 0.25479 0.80175 0.0
C357 C 0.15858 0.1682 0.76539 0.0
C358 C 0.18484 0.20988 0.7752 0.0
C359 C 0.27348 0.32041 0.8081 0.0
C360 C 0.24145 0.28404 0.79624 0.0
H361 H 0.11653 0.12455 0.72466 0.0
H362 H 0.15404 0.19396 0.74135 0.0
H363 H 0.14368 0.19501 0.79623 0.0
H364 H 0.31072 0.34389 0.85051 0.0
H365 H 0.25403 0.28674 0.83156 0.0
C366 C 0.93351 -0.00038 0.67398 0.0
C367 C 0.97351 0.01432 0.66765 0.0
C368 C 0.90166 0.00022 0.66397 0.0
C369 C 0.88277 0.04917 0.62664 0.0
H370 H 0.76905 0.95155 0.62594 0.0
C371 C 0.74773 0.02772 0.57928 0.0
C372 C 0.70809 0.013 0.58597 0.0
C373 C 0.7803 0.02783 0.58907 0.0
C374 C 0.80053 0.97924 0.62613 0.0
H375 H 0.01152 0.04174 0.6459 0.0
H376 H 0.95574 0.04245 0.62835 0.0
H377 H 0.82574 0.95253 0.64338 0.0
H378 H 0.67177 0.98715 0.60828 0.0
H379 H 0.72852 0.98721 0.62534 0.0
H380 H 0.85748 0.07582 0.60934 0.0
C381 C 0.94918 0.03084 0.64115 0.0
C382 C 0.83305 0.97983 0.63614 0.0
C383 C 0.9811 0.03025 0.65117 0.0
C384 C 0.7017 -0.00191 0.60264 0.0
C385 C 0.73425 -0.00184 0.61242 0.0
C386 C 0.85023 0.04856 0.6166 0.0
C387 C 0.90897 0.01549 0.64737 0.0
C388 C 0.87454 0.01486 0.63657 0.0
C389 C 0.77397 0.01315 0.60578 0.0
C390 C 0.80871 0.01363 0.61627 0.0
H391 H 0.92661 0.98733 0.68665 0.0
H392 H 0.8713 0.98885 0.66928 0.0
H393 H 0.91425 0.07688 0.62685 0.0
H394 H 0.7535 0.03878 0.56638 0.0
H395 H 0.8103 0.03895 0.58347 0.0
C396 C 0.96222 0.9672 0.01181 0.0
C397 C 0.00032 0.97109 0.00706 0.0
C398 C 0.92519 0.94293 0.00115 0.0
C399 C 0.88422 0.89591 0.95677 0.0
H400 H 0.78869 0.80791 0.97873 0.0
C401 C 0.74506 0.75171 0.9177 0.0
C402 C 0.70437 0.73421 0.92367 0.0
C403 C 0.78011 0.78441 0.9275 0.0
C404 C 0.81467 0.83277 0.97239 0.0
H405 H 0.02989 0.95428 0.98707 0.0
H406 H 0.96541 0.91242 0.96841 0.0
H407 H 0.85168 0.8599 0.99638 0.0
H408 H 0.66879 0.738 0.94463 0.0
H409 H 0.72952 0.79612 0.96129 0.0
H410 H 0.84736 0.86897 0.93277 0.0
C411 C 0.96415 0.92797 0.98039 0.0
C412 C 0.8508 0.86252 0.98253 0.0
C413 C 0.00099 0.95171 0.99113 0.0
C414 C 0.69953 0.75095 0.9395 0.0
C415 C 0.73452 0.78394 0.94921 0.0
C416 C 0.84789 0.86646 0.94663 0.0
C417 C 0.92576 0.92269 0.98543 0.0
C418 C 0.88615 0.89394 0.97479 0.0
C419 C 0.77533 0.80076 0.94344 0.0
C420 C 0.81289 0.83406 0.95428 0.0
H421 H 0.96069 0.98175 0.02401 0.0
H422 H 0.896 0.93955 0.00527 0.0
H423 H 0.91094 0.92012 0.95051 0.0
H424 H 0.74995 0.74009 0.90545 0.0
H425 H 0.81106 0.79615 0.92272 0.0
C426 C 0.06363 0.95848 0.32343 0.0
C427 C 0.04389 0.96544 0.33727 0.0
C428 C 0.04765 0.91772 0.31562 0.0
C429 C 0.02522 0.82701 0.30919 0.0
H430 H 0.90568 0.74928 0.29777 0.0
C431 C 0.967 0.66066 0.2779 0.0
C432 C 0.93735 0.64727 0.26371 0.0
C433 C 0.97544 0.69555 0.28896 0.0
C434 C 0.93916 0.77069 0.30085 0.0
H435 H 0.99123 0.93497 0.35355 0.0
H436 H 0.96344 0.86324 0.33995 0.0
H437 H 0.92977 0.81909 0.31253 0.0
H438 H 0.89194 0.65847 0.25028 0.0
H439 H 0.90746 0.72041 0.26935 0.0
H440 H 0.03513 0.77992 0.29697 0.0
C441 C 0.99119 0.88963 0.3351 0.0
C442 C 0.9529 0.81046 0.30946 0.0
C443 C 0.0072 0.93065 0.34293 0.0
C444 C 0.91486 0.66817 0.2612 0.0
C445 C 0.92366 0.7035 0.27216 0.0
C446 C 0.01158 0.7875 0.30058 0.0
C447 C 0.01159 0.88272 0.32149 0.0
C448 C -0.00382 0.83929 0.31347 0.0
C449 C 0.95485 0.71824 0.28592 0.0
C450 C 0.96844 0.75897 0.29615 0.0
H451 H 0.0917 0.98458 0.3186 0.0
H452 H 0.06356 0.91366 0.30491 0.0
H453 H 0.05872 0.84818 0.31234 0.0
H454 H 0.98424 0.64455 0.28027 0.0
H455 H -0.00113 0.70536 0.29968 0.0
C456 C 0.15078 0.94591 0.67789 0.0
C457 C 0.12349 0.96186 0.67634 0.0
C458 C 0.17468 0.94685 0.66423 0.0
C459 C 0.20814 0.93505 0.63074 0.0
H460 H 0.27007 0.04211 0.60935 0.0
C461 C 0.32737 0.96063 0.57988 0.0
C462 C 0.36649 -0.00105 0.58236 0.0
C463 C 0.29309 0.95472 0.58902 0.0
C464 C 0.25296 0.012 0.6152 0.0
H465 H 0.09899 0.99023 0.65901 0.0
H466 H 0.14104 0.99197 0.63505 0.0
H467 H 0.2174 0.0324 0.62967 0.0
H468 H 0.40007 0.06131 0.59621 0.0
H469 H 0.34035 0.05097 0.61218 0.0
H470 H 0.24482 0.91523 0.61687 0.0
C471 C 0.14397 0.97894 0.64694 0.0
C472 C 0.22245 0.00626 0.62667 0.0
C473 C 0.11975 0.97772 0.66061 0.0
C474 C 0.37024 0.03161 0.59385 0.0
C475 C 0.33597 0.02571 0.60298 0.0
C476 C 0.23852 0.94073 0.61925 0.0
C477 C 0.17204 0.96392 0.64869 0.0
C478 C 0.20039 0.96806 0.63487 0.0
C479 C 0.29714 0.987 0.60083 0.0
C480 C 0.2619 0.97959 0.61162 0.0
H481 H 0.15438 0.93338 0.6898 0.0
H482 H 0.19638 0.93554 0.66608 0.0
H483 H 0.19131 0.90507 0.63671 0.0
H484 H 0.32322 0.93515 0.57087 0.0
H485 H 0.26343 0.92478 0.58689 0.0
C486 C 0.24234 0.14338 0.02076 0.0
C487 C 0.20616 0.14059 0.02733 0.0
C488 C 0.27026 0.17875 0.01213 0.0
C489 C 0.29789 0.28823 0.00182 0.0
H490 H 0.33278 0.25835 0.95956 0.0
C491 C 0.3609 0.39839 0.94529 0.0
C492 C 0.39564 0.40097 0.93731 0.0
C493 C 0.34095 0.36914 0.95772 0.0
C494 C 0.32377 0.26735 0.97142 0.0
H495 H 0.17221 0.17389 0.03091 0.0
H496 H 0.22031 0.23512 0.0155 0.0
H497 H 0.29391 0.20392 0.97938 0.0
H498 H 0.43747 0.37575 0.93664 0.0
H499 H 0.40221 0.32435 0.95807 0.0
H500 H 0.32689 0.35159 0.99342 0.0
C501 C 0.22755 0.21031 0.01721 0.0
C502 C 0.30162 0.23617 0.98285 0.0
C503 C 0.19985 0.1751 0.02601 0.0
C504 C 0.4102 0.37396 0.94221 0.0
C505 C 0.39014 0.34462 0.95456 0.0
C506 C 0.31987 0.31943 0.99028 0.0
C507 C 0.26237 0.21193 0.00969 0.0
C508 C 0.28824 0.24612 -0.00183 0.0
C509 C 0.35518 0.34173 0.96238 0.0
C510 C 0.33287 0.30922 0.97493 0.0
H511 H 0.24838 0.11755 0.02175 0.0
H512 H 0.29738 0.17947 0.00691 0.0
H513 H 0.28849 0.29712 0.01358 0.0
H514 H 0.34861 0.41842 0.94169 0.0
H515 H 0.31374 0.36726 0.96339 0.0
C516 C 0.03618 0.1731 0.34253 0.0
C517 C 0.0688 0.16774 0.3366 0.0
C518 C 0.02063 0.19403 0.33282 0.0
C519 C 0.00725 0.21436 0.2883 0.0
H520 H 0.99367 0.30584 0.30738 0.0
C521 C 0.97308 0.31766 0.24482 0.0
C522 C 0.94841 0.33408 0.25077 0.0
C523 C 0.98468 0.29527 0.25557 0.0
C524 C -0.00353 0.27979 0.3019 0.0
H525 H 0.11146 0.18123 0.31609 0.0
H526 H 0.08388 0.2172 0.29911 0.0
H527 H 0.02093 0.27224 0.32613 0.0
H528 H 0.91553 0.3386 0.27263 0.0
H529 H 0.93417 0.29787 0.29112 0.0
H530 H 0.98217 0.22098 0.26419 0.0
C531 C 0.07039 0.20515 0.31124 0.0
C532 C 0.01233 0.26078 0.31264 0.0
C533 C 0.08633 0.18481 0.32104 0.0
C534 C 0.93427 0.32613 0.26755 0.0
C535 C 0.94553 0.30331 0.27827 0.0
C536 C 0.99087 0.23289 0.27762 0.0
C537 C 0.037 0.20937 0.31691 0.0
C538 C 0.01846 0.22838 0.30586 0.0
C539 C 0.97144 0.28817 0.2725 0.0
C540 C 0.98589 0.26632 0.2842 0.0
H541 H 0.02207 0.16037 0.35449 0.0
H542 H 0.99482 0.1969 0.33744 0.0
H543 H 0.011 0.18887 0.28284 0.0
H544 H 0.98398 0.32256 0.23188 0.0
H545 H 0.00505 0.28459 0.25071 0.0
loop_
_geom_bond_atom_site_label_1
_geom_bond_atom_site_label_2
_geom_bond_distance
_geom_bond_site_symmetry_2
_ccdc_geom_bond_type
Zn0 O3 2.031 1_545 S
Zn0 O5 2.049 . S
Zn0 O10 2.067 1_545 S
Zn1 O2 1.962 . S
Zn1 O4 1.986 . S
Zn1 O6 1.996 . S
Zn1 O9 1.943 . S
O2 Zn1 1.962 . S
O2 C7 1.254 1_545 S
O3 Zn0 2.031 1_565 S
O3 C7 1.269 . S
O4 Zn1 1.986 . S
O4 C11 1.262 . S
O5 Zn0 2.049 . S
O5 C13 1.260 . S
O6 Zn1 1.996 . S
O6 C13 1.257 . S
C7 O2 1.254 1_565 S
C7 O3 1.269 . S
C8 O9 1.249 1_565 S
C8 O10 1.270 . S
O9 Zn1 1.943 . S
O9 C8 1.249 1_545 S
O10 Zn0 2.067 1_565 S
O10 C8 1.270 . S
C11 O4 1.262 . S
C11 O12 1.232 . S
O12 C11 1.232 . S
C13 O5 1.260 . S
C13 O6 1.257 . S
Zn14 O17 2.031 . S
Zn14 O19 2.049 . S
Zn14 O24 2.067 . S
Zn15 O16 1.962 . S
Zn15 O18 1.986 1_455 S
Zn15 O20 1.996 . S
Zn15 O23 1.943 1_455 S
O16 Zn15 1.962 . S
O16 C21 1.254 . S
O17 Zn14 2.031 . S
O17 C21 1.269 . S
O18 Zn15 1.986 1_655 S
O18 C25 1.262 . S
O19 Zn14 2.049 . S
O19 C27 1.260 . S
O20 Zn15 1.996 . S
O20 C27 1.257 . S
C21 O16 1.254 . S
C21 O17 1.269 . S
C22 O23 1.249 1_455 S
C22 O24 1.270 . S
O23 Zn15 1.943 1_655 S
O23 C22 1.249 1_655 S
O24 Zn14 2.067 . S
O24 C22 1.270 . S
C25 O18 1.262 . S
C25 O26 1.232 . S
O26 C25 1.232 . S
C27 O19 1.260 . S
C27 O20 1.257 . S
Zn28 O31 2.031 1_565 S
Zn28 O33 2.049 . S
Zn28 O38 2.067 1_565 S
Zn29 O30 1.962 1_545 S
Zn29 O32 1.986 1_445 S
Zn29 O34 1.996 1_445 S
Zn29 O37 1.943 . S
O30 Zn29 1.962 1_565 S
O30 C35 1.254 . S
O31 Zn28 2.031 1_545 S
O31 C35 1.269 1_545 S
O32 Zn29 1.986 1_665 S
O32 C39 1.262 1_565 S
O33 Zn28 2.049 . S
O33 C41 1.260 1_455 S
O34 Zn29 1.996 1_665 S
O34 C41 1.257 . S
C35 O30 1.254 . S
C35 O31 1.269 1_565 S
C36 O37 1.249 . S
C36 O38 1.270 . S
O37 Zn29 1.943 . S
O37 C36 1.249 . S
O38 Zn28 2.067 1_545 S
O38 C36 1.270 . S
C39 O32 1.262 1_545 S
C39 O40 1.232 . S
O40 C39 1.232 . S
C41 O33 1.260 1_655 S
C41 O34 1.257 . S
H42 C61 0.949 . S
H43 C62 0.950 . S
H44 C64 0.950 1_655 S
H45 C65 0.950 1_655 S
H46 C67 0.950 . S
H47 C70 0.950 . S
H48 C71 0.950 . S
H49 C73 0.951 . S
H50 C74 0.949 . S
H51 C76 0.949 . S
H52 C77 0.950 . S
H53 C79 0.950 . S
H54 C80 0.950 . S
H55 C82 0.950 . S
H56 C85 0.950 1_655 S
H57 C86 0.950 1_655 S
H58 C88 0.951 . S
H59 C89 0.949 . S
C60 C61 1.376 . S
C60 C65 1.386 . S
C60 C66 1.483 . S
C61 H42 0.949 . S
C61 C60 1.376 . S
C61 C62 1.397 . S
C62 H43 0.950 . S
C62 C61 1.397 . S
C62 C63 1.391 . S
C63 C62 1.391 . S
C63 C64 1.405 . S
C64 H44 0.950 1_455 S
C64 C63 1.405 . S
C64 C65 1.367 . S
C65 H45 0.950 1_455 S
C65 C60 1.386 . S
C65 C64 1.367 . S
C66 C60 1.483 . S
C66 C67 1.382 . S
C66 C68 1.403 . S
C67 H46 0.950 . S
C67 C66 1.382 . S
C67 C83 1.411 . S
C68 C66 1.403 . S
C68 C69 1.489 . S
C68 C82 1.411 . S
C69 C68 1.489 . S
C69 C70 1.383 . S
C69 C74 1.382 1_455 S
C70 H47 0.950 . S
C70 C69 1.383 . S
C70 C71 1.395 . S
C71 H48 0.950 . S
C71 C70 1.395 . S
C71 C72 1.288 . S
C72 C71 1.288 . S
C72 C73 1.392 1_455 S
C73 H49 0.951 . S
C73 C72 1.392 1_655 S
C73 C74 1.392 . S
C74 H50 0.949 . S
C74 C69 1.382 1_655 S
C74 C73 1.392 . S
C75 C76 1.376 1_455 S
C75 C80 1.386 . S
C75 C81 1.483 . S
C76 H51 0.949 . S
C76 C75 1.376 1_655 S
C76 C77 1.397 . S
C77 H52 0.950 . S
C77 C76 1.397 . S
C77 C78 1.391 1_655 S
C78 C77 1.391 1_455 S
C78 C79 1.405 . S
C79 H53 0.950 . S
C79 C78 1.405 . S
C79 C80 1.367 . S
C80 H54 0.950 . S
C80 C75 1.386 . S
C80 C79 1.367 . S
C81 C75 1.483 . S
C81 C82 1.382 . S
C81 C83 1.403 . S
C82 H55 0.950 . S
C82 C68 1.411 . S
C82 C81 1.382 . S
C83 C67 1.411 . S
C83 C81 1.403 . S
C83 C84 1.489 . S
C84 C83 1.489 . S
C84 C85 1.383 . S
C84 C89 1.382 . S
C85 H56 0.950 1_455 S
C85 C84 1.383 . S
C85 C86 1.395 . S
C86 H57 0.950 1_455 S
C86 C85 1.395 . S
C86 C87 1.288 . S
C87 C86 1.288 . S
C87 C88 1.392 . S
C88 H58 0.951 . S
C88 C87 1.392 . S
C88 C89 1.392 . S
C89 H59 0.949 . S
C89 C84 1.382 . S
C89 C88 1.392 . S
H90 C109 0.949 . S
H91 C110 0.950 . S
H92 C112 0.950 1_565 S
H93 C113 0.950 1_565 S
H94 C115 0.950 . S
H95 C118 0.950 . S
H96 C119 0.950 . S
H97 C121 0.951 . S
H98 C122 0.949 . S
H99 C124 0.949 . S
H100 C125 0.950 . S
H101 C127 0.950 . S
H102 C128 0.950 . S
H103 C130 0.950 . S
H104 C133 0.950 1_565 S
H105 C134 0.950 1_565 S
H106 C136 0.951 . S
H107 C137 0.949 . S
C108 C109 1.376 . S
C108 C113 1.386 . S
C108 C114 1.483 . S
C109 H90 0.949 . S
C109 C108 1.376 . S
C109 C110 1.397 . S
C110 H91 0.950 . S
C110 C109 1.397 . S
C110 C111 1.391 . S
C111 C110 1.391 . S
C111 C112 1.405 . S
C112 H92 0.950 1_545 S
C112 C111 1.405 . S
C112 C113 1.367 . S
C113 H93 0.950 1_545 S
C113 C108 1.386 . S
C113 C112 1.367 . S
C114 C108 1.483 . S
C114 C115 1.382 . S
C114 C116 1.403 . S
C115 H94 0.950 . S
C115 C114 1.382 . S
C115 C131 1.411 . S
C116 C114 1.403 . S
C116 C117 1.489 . S
C116 C130 1.411 . S
C117 C116 1.489 . S
C117 C118 1.383 . S
C117 C122 1.382 1_545 S
C118 H95 0.950 . S
C118 C117 1.383 . S
C118 C119 1.395 . S
C119 H96 0.950 . S
C119 C118 1.395 . S
C119 C120 1.288 . S
C120 C119 1.288 . S
C120 C121 1.392 1_545 S
C121 H97 0.951 . S
C121 C120 1.392 1_565 S
C121 C122 1.392 . S
C122 H98 0.949 . S
C122 C117 1.382 1_565 S
C122 C121 1.392 . S
C123 C124 1.376 1_545 S
C123 C128 1.386 . S
C123 C129 1.483 . S
C124 H99 0.949 . S
C124 C123 1.376 1_565 S
C124 C125 1.397 . S
C125 H100 0.950 . S
C125 C124 1.397 . S
C125 C126 1.391 1_565 S
C126 C125 1.391 1_545 S
C126 C127 1.405 . S
C127 H101 0.950 . S
C127 C126 1.405 . S
C127 C128 1.367 . S
C128 H102 0.950 . S
C128 C123 1.386 . S
C128 C127 1.367 . S
C129 C123 1.483 . S
C129 C130 1.382 . S
C129 C131 1.403 . S
C130 H103 0.950 . S
C130 C116 1.411 . S
C130 C129 1.382 . S
C131 C115 1.411 . S
C131 C129 1.403 . S
C131 C132 1.489 . S
C132 C131 1.489 . S
C132 C133 1.383 . S
C132 C137 1.382 . S
C133 H104 0.950 1_545 S
C133 C132 1.383 . S
C133 C134 1.395 . S
C134 H105 0.950 1_545 S
C134 C133 1.395 . S
C134 C135 1.288 . S
C135 C134 1.288 . S
C135 C136 1.392 . S
C136 H106 0.951 . S
C136 C135 1.392 . S
C136 C137 1.392 . S
C137 H107 0.949 . S
C137 C132 1.382 . S
C137 C136 1.392 . S
H138 C157 0.949 . S
H139 C158 0.950 . S
H140 C160 0.950 . S
H141 C161 0.950 . S
H142 C163 0.950 . S
H143 C166 0.950 . S
H144 C167 0.950 . S
H145 C169 0.951 . S
H146 C170 0.949 . S
H147 C172 0.949 . S
H148 C173 0.950 . S
H149 C175 0.950 . S
H150 C176 0.950 . S
H151 C178 0.950 . S
H152 C181 0.950 . S
H153 C182 0.950 . S
H154 C184 0.951 . S
H155 C185 0.949 . S
C156 C157 1.376 . S
C156 C161 1.386 . S
C156 C162 1.483 . S
C157 H138 0.949 . S
C157 C156 1.376 . S
C157 C158 1.397 . S
C158 H139 0.950 . S
C158 C157 1.397 . S
C158 C159 1.391 . S
C159 C158 1.391 . S
C159 C160 1.405 . S
C160 H140 0.950 . S
C160 C159 1.405 . S
C160 C161 1.367 . S
C161 H141 0.950 . S
C161 C156 1.386 . S
C161 C160 1.367 . S
C162 C156 1.483 . S
C162 C163 1.382 . S
C162 C164 1.403 . S
C163 H142 0.950 . S
C163 C162 1.382 . S
C163 C179 1.411 . S
C164 C162 1.403 . S
C164 C165 1.489 . S
C164 C178 1.411 . S
C165 C164 1.489 . S
C165 C166 1.383 . S
C165 C170 1.382 . S
C166 H143 0.950 . S
C166 C165 1.383 . S
C166 C167 1.395 . S
C167 H144 0.950 . S
C167 C166 1.395 . S
C167 C168 1.288 . S
C168 C167 1.288 . S
C168 C169 1.392 . S
C169 H145 0.951 . S
C169 C168 1.392 . S
C169 C170 1.392 . S
C170 H146 0.949 . S
C170 C165 1.382 . S
C170 C169 1.392 . S
C171 C172 1.376 . S
C171 C176 1.386 . S
C171 C177 1.483 . S
C172 H147 0.949 . S
C172 C171 1.376 . S
C172 C173 1.397 . S
C173 H148 0.950 . S
C173 C172 1.397 . S
C173 C174 1.391 . S
C174 C173 1.391 . S
C174 C175 1.405 . S
C175 H149 0.950 . S
C175 C174 1.405 . S
C175 C176 1.367 . S
C176 H150 0.950 . S
C176 C171 1.386 . S
C176 C175 1.367 . S
C177 C171 1.483 . S
C177 C178 1.382 . S
C177 C179 1.403 . S
C178 H151 0.950 . S
C178 C164 1.411 . S
C178 C177 1.382 . S
C179 C163 1.411 . S
C179 C177 1.403 . S
C179 C180 1.489 . S
C180 C179 1.489 . S
C180 C181 1.383 . S
C180 C185 1.382 . S
C181 H152 0.950 . S
C181 C180 1.383 . S
C181 C182 1.395 . S
C182 H153 0.950 . S
C182 C181 1.395 . S
C182 C183 1.288 . S
C183 C182 1.288 . S
C183 C184 1.392 . S
C184 H154 0.951 . S
C184 C183 1.392 . S
C184 C185 1.392 . S
C185 H155 0.949 . S
C185 C180 1.382 . S
C185 C184 1.392 . S
C186 C187 1.349 . S
C186 C188 1.327 . S
C186 H211 0.950 . S
C187 C186 1.349 . S
C187 C203 1.349 . S
C188 C186 1.327 . S
C188 C207 1.429 . S
C188 H212 0.950 . S
C189 C206 1.574 . S
C189 C208 1.368 . S
C189 H213 0.949 1_455 S
H190 C194 0.949 . S
C191 C192 1.349 . S
C191 C193 1.327 . S
C191 H214 0.950 1_455 S
C192 C191 1.349 . S
C192 C204 1.349 . S
C193 C191 1.327 . S
C193 C209 1.429 . S
C193 H215 0.950 1_455 S
C194 H190 0.949 . S
C194 C202 1.574 . S
C194 C210 1.368 . S
H195 C203 0.950 1_655 S
H196 C201 0.950 1_655 S
H197 C202 0.949 . S
H198 C204 0.950 . S
H199 C205 0.950 . S
H200 C206 0.949 1_655 S
C201 H196 0.950 1_455 S
C201 C203 1.327 . S
C201 C207 1.429 . S
C202 C194 1.574 . S
C202 H197 0.949 . S
C202 C208 1.368 . S
C203 C187 1.349 . S
C203 H195 0.950 1_455 S
C203 C201 1.327 . S
C204 C192 1.349 . S
C204 H198 0.950 . S
C204 C205 1.327 . S
C205 H199 0.950 . S
C205 C204 1.327 . S
C205 C209 1.429 . S
C206 C189 1.574 . S
C206 H200 0.949 1_455 S
C206 C210 1.368 . S
C207 C188 1.429 . S
C207 C201 1.429 . S
C207 C208 1.523 . S
C208 C189 1.368 . S
C208 C202 1.368 . S
C208 C207 1.523 . S
C209 C193 1.429 . S
C209 C205 1.429 . S
C209 C210 1.523 . S
C210 C194 1.368 . S
C210 C206 1.368 . S
C210 C209 1.523 . S
H211 C186 0.950 . S
H212 C188 0.950 . S
H213 C189 0.949 1_655 S
H214 C191 0.950 1_655 S
H215 C193 0.950 1_655 S
C216 C217 1.349 . S
C216 C218 1.327 . S
C216 H241 0.950 1_545 S
C217 C216 1.349 . S
C217 C233 1.349 . S
C218 C216 1.327 . S
C218 C237 1.429 . S
C218 H242 0.950 1_545 S
C219 C236 1.574 . S
C219 C238 1.368 . S
C219 H243 0.949 . S
H220 C224 0.949 1_565 S
C221 C222 1.349 . S
C221 C223 1.327 . S
C221 H244 0.950 . S
C222 C221 1.349 . S
C222 C234 1.349 . S
C223 C221 1.327 . S
C223 C239 1.429 . S
C223 H245 0.950 . S
C224 H220 0.949 1_545 S
C224 C232 1.574 . S
C224 C240 1.368 . S
H225 C233 0.950 . S
H226 C231 0.950 . S
H227 C232 0.949 1_565 S
H228 C234 0.950 1_565 S
H229 C235 0.950 1_565 S
H230 C236 0.949 . S
C231 H226 0.950 . S
C231 C233 1.327 . S
C231 C237 1.429 . S
C232 C224 1.574 . S
C232 H227 0.949 1_545 S
C232 C238 1.368 . S
C233 C217 1.349 . S
C233 H225 0.950 . S
C233 C231 1.327 . S
C234 C222 1.349 . S
C234 H228 0.950 1_545 S
C234 C235 1.327 . S
C235 H229 0.950 1_545 S
C235 C234 1.327 . S
C235 C239 1.429 . S
C236 C219 1.574 . S
C236 H230 0.949 . S
C236 C240 1.368 . S
C237 C218 1.429 . S
C237 C231 1.429 . S
C237 C238 1.523 . S
C238 C219 1.368 . S
C238 C232 1.368 . S
C238 C237 1.523 . S
C239 C223 1.429 . S
C239 C235 1.429 . S
C239 C240 1.523 . S
C240 C224 1.368 . S
C240 C236 1.368 . S
C240 C239 1.523 . S
H241 C216 0.950 1_565 S
H242 C218 0.950 1_565 S
H243 C219 0.949 . S
H244 C221 0.950 . S
H245 C223 0.950 . S
C246 C247 1.349 . S
C246 C248 1.327 . S
C246 H271 0.950 . S
C247 C246 1.349 . S
C247 C263 1.349 . S
C248 C246 1.327 . S
C248 C267 1.429 . S
C248 H272 0.950 . S
C249 C266 1.574 . S
C249 C268 1.368 . S
C249 H273 0.949 . S
H250 C254 0.949 . S
C251 C252 1.349 . S
C251 C253 1.327 . S
C251 H274 0.950 . S
C252 C251 1.349 . S
C252 C264 1.349 . S
C253 C251 1.327 . S
C253 C269 1.429 . S
C253 H275 0.950 . S
C254 H250 0.949 . S
C254 C262 1.574 . S
C254 C270 1.368 . S
H255 C263 0.950 . S
H256 C261 0.950 . S
H257 C262 0.949 . S
H258 C264 0.950 . S
H259 C265 0.950 . S
H260 C266 0.949 . S
C261 H256 0.950 . S
C261 C263 1.327 . S
C261 C267 1.429 . S
C262 C254 1.574 . S
C262 H257 0.949 . S
C262 C268 1.368 . S
C263 C247 1.349 . S
C263 H255 0.950 . S
C263 C261 1.327 . S
C264 C252 1.349 . S
C264 H258 0.950 . S
C264 C265 1.327 . S
C265 H259 0.950 . S
C265 C264 1.327 . S
C265 C269 1.429 . S
C266 C249 1.574 . S
C266 H260 0.949 . S
C266 C270 1.368 . S
C267 C248 1.429 . S
C267 C261 1.429 . S
C267 C268 1.523 . S
C268 C249 1.368 . S
C268 C262 1.368 . S
C268 C267 1.523 . S
C269 C253 1.429 . S
C269 C265 1.429 . S
C269 C270 1.523 . S
C270 C254 1.368 . S
C270 C266 1.368 . S
C270 C269 1.523 . S
H271 C246 0.950 . S
H272 C248 0.950 . S
H273 C249 0.949 . S
H274 C251 0.950 . S
H275 C253 0.950 . S
C276 C277 1.349 . S
C276 C278 1.327 . S
C276 H301 0.950 . S
C277 C276 1.349 . S
C277 C293 1.349 . S
C278 C276 1.327 . S
C278 C297 1.429 . S
C278 H302 0.950 . S
C279 C296 1.574 . S
C279 C298 1.368 . S
C279 H303 0.949 . S
H280 C284 0.949 . S
C281 C282 1.349 . S
C281 C283 1.327 . S
C281 H304 0.950 . S
C282 C281 1.349 . S
C282 C294 1.349 . S
C283 C281 1.327 . S
C283 C299 1.429 . S
C283 H305 0.950 . S
C284 H280 0.949 . S
C284 C292 1.574 . S
C284 C300 1.368 . S
H285 C293 0.950 . S
H286 C291 0.950 . S
H287 C292 0.949 . S
H288 C294 0.950 . S
H289 C295 0.950 . S
H290 C296 0.949 . S
C291 H286 0.950 . S
C291 C293 1.327 . S
C291 C297 1.429 . S
C292 C284 1.574 . S
C292 H287 0.949 . S
C292 C298 1.368 . S
C293 C277 1.349 . S
C293 H285 0.950 . S
C293 C291 1.327 . S
C294 C282 1.349 . S
C294 H288 0.950 . S
C294 C295 1.327 . S
C295 H289 0.950 . S
C295 C294 1.327 . S
C295 C299 1.429 . S
C296 C279 1.574 . S
C296 H290 0.949 . S
C296 C300 1.368 . S
C297 C278 1.429 . S
C297 C291 1.429 . S
C297 C298 1.523 . S
C298 C279 1.368 . S
C298 C292 1.368 . S
C298 C297 1.523 . S
C299 C283 1.429 . S
C299 C295 1.429 . S
C299 C300 1.523 . S
C300 C284 1.368 . S
C300 C296 1.368 . S
C300 C299 1.523 . S
H301 C276 0.950 . S
H302 C278 0.950 . S
H303 C279 0.949 . S
H304 C281 0.950 . S
H305 C283 0.950 . S
C306 C307 1.349 . S
C306 C308 1.327 . S
C306 H331 0.950 . S
C307 C306 1.349 . S
C307 C323 1.349 . S
C308 C306 1.327 . S
C308 C327 1.429 . S
C308 H332 0.950 . S
C309 C326 1.574 . S
C309 C328 1.368 . S
C309 H333 0.949 . S
H310 C314 0.949 . S
C311 C312 1.349 . S
C311 C313 1.327 . S
C311 H334 0.950 1_545 S
C312 C311 1.349 . S
C312 C324 1.349 . S
C313 C311 1.327 . S
C313 C329 1.429 . S
C313 H335 0.950 1_545 S
C314 H310 0.949 . S
C314 C322 1.574 . S
C314 C330 1.368 . S
H315 C323 0.950 . S
H316 C321 0.950 . S
H317 C322 0.949 . S
H318 C324 0.950 . S
H319 C325 0.950 . S
H320 C326 0.949 1_565 S
C321 H316 0.950 . S
C321 C323 1.327 . S
C321 C327 1.429 . S
C322 C314 1.574 . S
C322 H317 0.949 . S
C322 C328 1.368 . S
C323 C307 1.349 . S
C323 H315 0.950 . S
C323 C321 1.327 . S
C324 C312 1.349 . S
C324 H318 0.950 . S
C324 C325 1.327 . S
C325 H319 0.950 . S
C325 C324 1.327 . S
C325 C329 1.429 . S
C326 C309 1.574 . S
C326 H320 0.949 1_545 S
C326 C330 1.368 . S
C327 C308 1.429 . S
C327 C321 1.429 . S
C327 C328 1.523 . S
C328 C309 1.368 . S
C328 C322 1.368 . S
C328 C327 1.523 . S
C329 C313 1.429 . S
C329 C325 1.429 . S
C329 C330 1.523 . S
C330 C314 1.368 . S
C330 C326 1.368 . S
C330 C329 1.523 . S
H331 C306 0.950 . S
H332 C308 0.950 . S
H333 C309 0.949 . S
H334 C311 0.950 1_565 S
H335 C313 0.950 1_565 S
C336 C337 1.349 . S
C336 C338 1.327 . S
C336 H361 0.950 . S
C337 C336 1.349 . S
C337 C353 1.349 . S
C338 C336 1.327 . S
C338 C357 1.429 . S
C338 H362 0.950 . S
C339 C356 1.574 . S
C339 C358 1.368 . S
C339 H363 0.949 . S
H340 C344 0.949 . S
C341 C342 1.349 . S
C341 C343 1.327 . S
C341 H364 0.950 . S
C342 C341 1.349 . S
C342 C354 1.349 . S
C343 C341 1.327 . S
C343 C359 1.429 . S
C343 H365 0.950 . S
C344 H340 0.949 . S
C344 C352 1.574 . S
C344 C360 1.368 . S
H345 C353 0.950 . S
H346 C351 0.950 . S
H347 C352 0.949 . S
H348 C354 0.950 . S
H349 C355 0.950 . S
H350 C356 0.949 . S
C351 H346 0.950 . S
C351 C353 1.327 . S
C351 C357 1.429 . S
C352 C344 1.574 . S
C352 H347 0.949 . S
C352 C358 1.368 . S
C353 C337 1.349 . S
C353 H345 0.950 . S
C353 C351 1.327 . S
C354 C342 1.349 . S
C354 H348 0.950 . S
C354 C355 1.327 . S
C355 H349 0.950 . S
C355 C354 1.327 . S
C355 C359 1.429 . S
C356 C339 1.574 . S
C356 H350 0.949 . S
C356 C360 1.368 . S
C357 C338 1.429 . S
C357 C351 1.429 . S
C357 C358 1.523 . S
C358 C339 1.368 . S
C358 C352 1.368 . S
C358 C357 1.523 . S
C359 C343 1.429 . S
C359 C355 1.429 . S
C359 C360 1.523 . S
C360 C344 1.368 . S
C360 C356 1.368 . S
C360 C359 1.523 . S
H361 C336 0.950 . S
H362 C338 0.950 . S
H363 C339 0.949 . S
H364 C341 0.950 . S
H365 C343 0.950 . S
C366 C367 1.349 1_565 S
C366 C368 1.327 . S
C366 H391 0.950 . S
C367 C366 1.349 1_545 S
C367 C383 1.349 . S
C368 C366 1.327 . S
C368 C387 1.429 1_565 S
C368 H392 0.950 . S
C369 C386 1.574 . S
C369 C388 1.368 . S
C369 H393 0.949 . S
H370 C374 0.949 . S
C371 C372 1.349 . S
C371 C373 1.327 . S
C371 H394 0.950 . S
C372 C371 1.349 . S
C372 C384 1.349 1_545 S
C373 C371 1.327 . S
C373 C389 1.429 . S
C373 H395 0.950 . S
C374 H370 0.949 . S
C374 C382 1.574 . S
C374 C390 1.368 1_565 S
H375 C383 0.950 . S
H376 C381 0.950 . S
H377 C382 0.949 . S
H378 C384 0.950 . S
H379 C385 0.950 . S
H380 C386 0.949 . S
C381 H376 0.950 . S
C381 C383 1.327 . S
C381 C387 1.429 . S
C382 C374 1.574 . S
C382 H377 0.949 . S
C382 C388 1.368 1_565 S
C383 C367 1.349 . S
C383 H375 0.950 . S
C383 C381 1.327 . S
C384 C372 1.349 1_565 S
C384 H378 0.950 . S
C384 C385 1.327 . S
C385 H379 0.950 . S
C385 C384 1.327 . S
C385 C389 1.429 1_565 S
C386 C369 1.574 . S
C386 H380 0.949 . S
C386 C390 1.368 . S
C387 C368 1.429 1_545 S
C387 C381 1.429 . S
C387 C388 1.523 . S
C388 C369 1.368 . S
C388 C382 1.368 1_545 S
C388 C387 1.523 . S
C389 C373 1.429 . S
C389 C385 1.429 1_545 S
C389 C390 1.523 . S
C390 C374 1.368 1_545 S
C390 C386 1.368 . S
C390 C389 1.523 . S
H391 C366 0.950 . S
H392 C368 0.950 . S
H393 C369 0.949 . S
H394 C371 0.950 . S
H395 C373 0.950 . S
C396 C397 1.349 . S
C396 C398 1.327 . S
C396 H421 0.950 . S
C397 C396 1.349 . S
C397 C413 1.349 . S
C398 C396 1.327 . S
C398 C417 1.429 1_554 S
C398 H422 0.950 . S
C399 C416 1.574 . S
C399 C418 1.368 . S
C399 H423 0.949 . S
H400 C404 0.949 . S
C401 C402 1.349 . S
C401 C403 1.327 . S
C401 H424 0.950 . S
C402 C401 1.349 . S
C402 C414 1.349 . S
C403 C401 1.327 . S
C403 C419 1.429 . S
C403 H425 0.950 . S
C404 H400 0.949 . S
C404 C412 1.574 . S
C404 C420 1.368 . S
H405 C413 0.950 . S
H406 C411 0.950 . S
H407 C412 0.949 . S
H408 C414 0.950 . S
H409 C415 0.950 . S
H410 C416 0.949 . S
C411 H406 0.950 . S
C411 C413 1.327 1_556 S
C411 C417 1.429 . S
C412 C404 1.574 . S
C412 H407 0.949 . S
C412 C418 1.368 . S
C413 C397 1.349 . S
C413 H405 0.950 . S
C413 C411 1.327 1_554 S
C414 C402 1.349 . S
C414 H408 0.950 . S
C414 C415 1.327 . S
C415 H409 0.950 . S
C415 C414 1.327 . S
C415 C419 1.429 . S
C416 C399 1.574 . S
C416 H410 0.949 . S
C416 C420 1.368 . S
C417 C398 1.429 1_556 S
C417 C411 1.429 . S
C417 C418 1.523 . S
C418 C399 1.368 . S
C418 C412 1.368 . S
C418 C417 1.523 . S
C419 C403 1.429 . S
C419 C415 1.429 . S
C419 C420 1.523 . S
C420 C404 1.368 . S
C420 C416 1.368 . S
C420 C419 1.523 . S
H421 C396 0.950 . S
H422 C398 0.950 . S
H423 C399 0.949 . S
H424 C401 0.950 . S
H425 C403 0.950 . S
C426 C427 1.349 1_655 S
C426 C428 1.327 . S
C426 H451 0.950 . S
C427 C426 1.349 1_455 S
C427 C443 1.349 . S
C428 C426 1.327 . S
C428 C447 1.429 1_655 S
C428 H452 0.950 . S
C429 C446 1.574 . S
C429 C448 1.368 . S
C429 H453 0.949 . S
H430 C434 0.949 . S
C431 C432 1.349 . S
C431 C433 1.327 . S
C431 H454 0.950 . S
C432 C431 1.349 . S
C432 C444 1.349 1_455 S
C433 C431 1.327 . S
C433 C449 1.429 . S
C433 H455 0.950 . S
C434 H430 0.949 . S
C434 C442 1.574 . S
C434 C450 1.368 1_655 S
H435 C443 0.950 1_545 S
H436 C441 0.950 . S
H437 C442 0.949 . S
H438 C444 0.950 . S
H439 C445 0.950 . S
H440 C446 0.949 . S
C441 H436 0.950 . S
C441 C443 1.327 . S
C441 C447 1.429 . S
C442 C434 1.574 . S
C442 H437 0.949 . S
C442 C448 1.368 1_655 S
C443 C427 1.349 . S
C443 H435 0.950 1_565 S
C443 C441 1.327 . S
C444 C432 1.349 1_655 S
C444 H438 0.950 . S
C444 C445 1.327 . S
C445 H439 0.950 . S
C445 C444 1.327 . S
C445 C449 1.429 1_655 S
C446 C429 1.574 . S
C446 H440 0.949 . S
C446 C450 1.368 . S
C447 C428 1.429 1_455 S
C447 C441 1.429 . S
C447 C448 1.523 . S
C448 C429 1.368 . S
C448 C442 1.368 1_455 S
C448 C447 1.523 . S
C449 C433 1.429 . S
C449 C445 1.429 1_455 S
C449 C450 1.523 . S
C450 C434 1.368 1_455 S
C450 C446 1.368 . S
C450 C449 1.523 . S
H451 C426 0.950 . S
H452 C428 0.950 . S
H453 C429 0.949 . S
H454 C431 0.950 . S
H455 C433 0.950 . S
C456 C457 1.349 1_545 S
C456 C458 1.327 . S
C456 H481 0.950 . S
C457 C456 1.349 1_565 S
C457 C473 1.349 . S
C458 C456 1.327 . S
C458 C477 1.429 . S
C458 H482 0.950 . S
C459 C476 1.574 . S
C459 C478 1.368 1_565 S
C459 H483 0.949 . S
H460 C464 0.949 . S
C461 C462 1.349 1_565 S
C461 C463 1.327 . S
C461 H484 0.950 . S
C462 C461 1.349 1_545 S
C462 C474 1.349 . S
C463 C461 1.327 . S
C463 C479 1.429 1_565 S
C463 H485 0.950 . S
C464 H460 0.949 . S
C464 C472 1.574 . S
C464 C480 1.368 . S
H465 C473 0.950 . S
H466 C471 0.950 . S
H467 C472 0.949 . S
H468 C474 0.950 . S
H469 C475 0.950 . S
H470 C476 0.949 . S
C471 H466 0.950 . S
C471 C473 1.327 . S
C471 C477 1.429 1_565 S
C472 C464 1.574 . S
C472 H467 0.949 . S
C472 C478 1.368 . S
C473 C457 1.349 . S
C473 H465 0.950 . S
C473 C471 1.327 . S
C474 C462 1.349 . S
C474 H468 0.950 . S
C474 C475 1.327 . S
C475 H469 0.950 . S
C475 C474 1.327 . S
C475 C479 1.429 . S
C476 C459 1.574 . S
C476 H470 0.949 . S
C476 C480 1.368 1_565 S
C477 C458 1.429 . S
C477 C471 1.429 1_545 S
C477 C478 1.523 . S
C478 C459 1.368 1_545 S
C478 C472 1.368 . S
C478 C477 1.523 . S
C479 C463 1.429 1_545 S
C479 C475 1.429 . S
C479 C480 1.523 . S
C480 C464 1.368 . S
C480 C476 1.368 1_545 S
C480 C479 1.523 . S
H481 C456 0.950 . S
H482 C458 0.950 . S
H483 C459 0.949 . S
H484 C461 0.950 . S
H485 C463 0.950 . S
C486 C487 1.349 . S
C486 C488 1.327 1_554 S
C486 H511 0.950 . S
C487 C486 1.349 . S
C487 C503 1.349 . S
C488 C486 1.327 1_556 S
C488 C507 1.429 . S
C488 H512 0.950 . S
C489 C506 1.574 . S
C489 C508 1.368 . S
C489 H513 0.949 . S
H490 C494 0.949 . S
C491 C492 1.349 . S
C491 C493 1.327 . S
C491 H514 0.950 . S
C492 C491 1.349 . S
C492 C504 1.349 . S
C493 C491 1.327 . S
C493 C509 1.429 . S
C493 H515 0.950 . S
C494 H490 0.949 . S
C494 C502 1.574 . S
C494 C510 1.368 . S
H495 C503 0.950 . S
H496 C501 0.950 . S
H497 C502 0.949 . S
H498 C504 0.950 . S
H499 C505 0.950 . S
H500 C506 0.949 . S
C501 H496 0.950 . S
C501 C503 1.327 . S
C501 C507 1.429 1_554 S
C502 C494 1.574 . S
C502 H497 0.949 . S
C502 C508 1.368 . S
C503 C487 1.349 . S
C503 H495 0.950 . S
C503 C501 1.327 . S
C504 C492 1.349 . S
C504 H498 0.950 . S
C504 C505 1.327 . S
C505 H499 0.950 . S
C505 C504 1.327 . S
C505 C509 1.429 . S
C506 C489 1.574 . S
C506 H500 0.949 . S
C506 C510 1.368 . S
C507 C488 1.429 . S
C507 C501 1.429 1_556 S
C507 C508 1.523 . S
C508 C489 1.368 . S
C508 C502 1.368 . S
C508 C507 1.523 . S
C509 C493 1.429 . S
C509 C505 1.429 . S
C509 C510 1.523 . S
C510 C494 1.368 . S
C510 C506 1.368 . S
C510 C509 1.523 . S
H511 C486 0.950 . S
H512 C488 0.950 . S
H513 C489 0.949 . S
H514 C491 0.950 . S
H515 C493 0.950 . S
C516 C517 1.349 . S
C516 C518 1.327 . S
C516 H541 0.950 . S
C517 C516 1.349 . S
C517 C533 1.349 . S
C518 C516 1.327 . S
C518 C537 1.429 . S
C518 H542 0.950 . S
C519 C536 1.574 . S
C519 C538 1.368 . S
C519 H543 0.949 . S
H520 C524 0.949 . S
C521 C522 1.349 . S
C521 C523 1.327 . S
C521 H544 0.950 . S
C522 C521 1.349 . S
C522 C534 1.349 . S
C523 C521 1.327 . S
C523 C539 1.429 . S
C523 H545 0.950 . S
C524 H520 0.949 . S
C524 C532 1.574 . S
C524 C540 1.368 . S
H525 C533 0.950 . S
H526 C531 0.950 . S
H527 C532 0.949 . S
H528 C534 0.950 . S
H529 C535 0.950 . S
H530 C536 0.949 . S
C531 H526 0.950 . S
C531 C533 1.327 . S
C531 C537 1.429 . S
C532 C524 1.574 . S
C532 H527 0.949 . S
C532 C538 1.368 . S
C533 C517 1.349 . S
C533 H525 0.950 . S
C533 C531 1.327 . S
C534 C522 1.349 . S
C534 H528 0.950 . S
C534 C535 1.327 . S
C535 H529 0.950 . S
C535 C534 1.327 . S
C535 C539 1.429 . S
C536 C519 1.574 . S
C536 H530 0.949 . S
C536 C540 1.368 . S
C537 C518 1.429 . S
C537 C531 1.429 . S
C537 C538 1.523 . S
C538 C519 1.368 . S
C538 C532 1.368 . S
C538 C537 1.523 . S
C539 C523 1.429 . S
C539 C535 1.429 . S
C539 C540 1.523 . S
C540 C524 1.368 . S
C540 C536 1.368 . S
C540 C539 1.523 . S
H541 C516 0.950 . S
H542 C518 0.950 . S
H543 C519 0.949 . S
H544 C521 0.950 . S
H545 C523 0.950 . S
C192 C63 1.315 . S
C187 C11 1.303 . S
C217 C25 1.377 . S
C222 C111 1.389 . S
C247 C41 1.380 . S
C252 C183 1.440 . S
C277 C7 1.328 . S
C282 C87 1.325 . S
C312 C135 1.397 . S
C307 C21 1.400 . S
C337 C36 1.391 . S
C342 C159 1.450 . S
C372 C120 1.382 . S
C367 C39 1.372 . S
C397 C8 1.389 1_655 S
C402 C174 1.440 . S
C432 C78 1.499 . S
C427 C22 1.445 1_565 S
C462 C126 1.397 . S
C457 C35 1.394 . S
C492 C168 1.429 . S
C487 C13 1.376 . S
C517 C27 1.429 . S
C522 C72 1.479 . S
