# Generated by pormake.
# Topology pyr, (3,6)-cn, num edge types: 1
# Building blocks:
#     Node 0, Type 0, BuildingBlock: KAKCAD_clean_linker_0, # of connection points: 3
#     Node 1, Type 0, BuildingBlock: KAKCAD_clean_linker_0, # of connection points: 3
#     Node 2, Type 0, BuildingBlock: KAKCAD_clean_linker_0, # of connection points: 3
#     Node 3, Type 0, BuildingBlock: KAKCAD_clean_linker_0, # of connection points: 3
#     Node 4, Type 0, BuildingBlock: KAKCAD_clean_linker_0, # of connection points: 3
#     Node 5, Type 0, BuildingBlock: KAKCAD_clean_linker_0, # of connection points: 3
#     Node 6, Type 0, BuildingBlock: KAKCAD_clean_linker_0, # of connection points: 3
#     Node 7, Type 0, BuildingBlock: KAKCAD_clean_linker_0, # of connection points: 3
#     Node 8, Type 1, BuildingBlock: MIFKUJ_clean_sbu_0, # of connection points: 6
#     Node 9, Type 1, BuildingBlock: MIFKUJ_clean_sbu_0, # of connection points: 6
#     Node 10, Type 1, BuildingBlock: MIFKUJ_clean_sbu_0, # of connection points: 6
#     Node 11, Type 1, BuildingBlock: MIFKUJ_clean_sbu_0, # of connection points: 6
#     Edge 12, Type (0, 1), BuildingBlock: XUDNAN_clean_linker_2, # of connection points: 2
#     Edge 13, Type (0, 1), BuildingBlock: XUDNAN_clean_linker_2, # of connection points: 2
#     Edge 14, Type (0, 1), BuildingBlock: XUDNAN_clean_linker_2, # of connection points: 2
#     Edge 15, Type (0, 1), BuildingBlock: XUDNAN_clean_linker_2, # of connection points: 2
#     Edge 16, Type (0, 1), BuildingBlock: XUDNAN_clean_linker_2, # of connection points: 2
#     Edge 17, Type (0, 1), BuildingBlock: XUDNAN_clean_linker_2, # of connection points: 2
#     Edge 18, Type (0, 1), BuildingBlock: XUDNAN_clean_linker_2, # of connection points: 2
#     Edge 19, Type (0, 1), BuildingBlock: XUDNAN_clean_linker_2, # of connection points: 2
#     Edge 20, Type (0, 1), BuildingBlock: XUDNAN_clean_linker_2, # of connection points: 2
#     Edge 21, Type (0, 1), BuildingBlock: XUDNAN_clean_linker_2, # of connection points: 2
#     Edge 22, Type (0, 1), BuildingBlock: XUDNAN_clean_linker_2, # of connection points: 2
#     Edge 23, Type (0, 1), BuildingBlock: XUDNAN_clean_linker_2, # of connection points: 2
#     Edge 24, Type (0, 1), BuildingBlock: XUDNAN_clean_linker_2, # of connection points: 2
#     Edge 25, Type (0, 1), BuildingBlock: XUDNAN_clean_linker_2, # of connection points: 2
#     Edge 26, Type (0, 1), BuildingBlock: XUDNAN_clean_linker_2, # of connection points: 2
#     Edge 27, Type (0, 1), BuildingBlock: XUDNAN_clean_linker_2, # of connection points: 2
#     Edge 28, Type (0, 1), BuildingBlock: XUDNAN_clean_linker_2, # of connection points: 2
#     Edge 29, Type (0, 1), BuildingBlock: XUDNAN_clean_linker_2, # of connection points: 2
#     Edge 30, Type (0, 1), BuildingBlock: XUDNAN_clean_linker_2, # of connection points: 2
#     Edge 31, Type (0, 1), BuildingBlock: XUDNAN_clean_linker_2, # of connection points: 2
#     Edge 32, Type (0, 1), BuildingBlock: XUDNAN_clean_linker_2, # of connection points: 2
#     Edge 33, Type (0, 1), BuildingBlock: XUDNAN_clean_linker_2, # of connection points: 2
#     Edge 34, Type (0, 1), BuildingBlock: XUDNAN_clean_linker_2, # of connection points: 2
#     Edge 35, Type (0, 1), BuildingBlock: XUDNAN_clean_linker_2, # of connection points: 2
# Relax obj value: 0.027
# Max RMSD: 0.079
# Mean RMSD: 0.047
data_MOF--net-pyr--node1-MIFKUJ_clean_sbu_0--node2-KAKCAD_clean_linker_0--edge1-XUDNAN_clean_linker_2
_symmetry_space_group_name_H-M    P1
_symmetry_Int_Tables_number       1
_symmetry_cell_setting            triclinic
loop_
_symmetry_equiv_pos_as_xyz
'x, y, z'
_cell_length_a     48.373277
_cell_length_b     43.334622
_cell_length_c     46.858253
_cell_angle_alpha  86.526275
_cell_angle_beta   88.07677
_cell_angle_gamma 95.622229
loop_
_atom_site_label
_atom_site_type_symbol
_atom_site_fract_x
_atom_site_fract_y
_atom_site_fract_z
_atom_type_partial_charge
C0 C 0.14368 0.13127 0.2888 0.0
C1 C 0.15816 0.12752 0.31405 0.0
C2 C 0.15729 0.14527 0.26397 0.0
C3 C 0.18572 0.15573 0.26377 0.0
C4 C 0.2005 0.15118 0.2887 0.0
C5 C 0.18677 0.13736 0.31373 0.0
C6 C 0.1993 0.17237 0.23772 0.0
C7 C 0.18637 0.19617 0.22379 0.0
C8 C 0.19706 0.21043 0.1975 0.0
C9 C 0.22192 0.20135 0.18569 0.0
C10 C 0.23564 0.17797 0.19986 0.0
C11 C 0.2241 0.16363 0.22593 0.0
C12 C 0.26098 0.16677 0.1869 0.0
C13 C 0.26269 0.16126 0.15764 0.0
C14 C 0.28269 0.159 0.20432 0.0
C15 C 0.30465 0.14424 0.1932 0.0
C16 C 0.3055 0.13704 0.16438 0.0
C17 C 0.18136 0.23396 0.18248 0.0
C18 C 0.1521 0.22999 0.18356 0.0
C19 C 0.19502 0.26097 0.16815 0.0
C20 C 0.17965 0.2839 0.15609 0.0
C21 C 0.15047 0.28031 0.15853 0.0
C22 C 0.13687 0.25303 0.17204 0.0
C23 C 0.28481 0.14658 0.14646 0.0
H24 H 0.12159 0.12422 0.28845 0.0
H25 H 0.1455 0.14823 0.24491 0.0
H26 H 0.22243 0.15909 0.28904 0.0
H27 H 0.19848 0.13453 0.33285 0.0
H28 H 0.16767 0.2035 0.23359 0.0
H29 H 0.23368 0.14465 0.23643 0.0
H30 H 0.23033 0.21205 0.16534 0.0
H31 H 0.24622 0.16678 0.14369 0.0
H32 H 0.2823 0.16355 0.2268 0.0
H33 H 0.32062 0.13768 0.20738 0.0
H34 H 0.14083 0.20908 0.19357 0.0
H35 H 0.2175 0.26482 0.16701 0.0
H36 H 0.2849 0.1412 0.12418 0.0
H37 H 0.11437 0.24949 0.17364 0.0
H38 H 0.19053 0.30482 0.14563 0.0
C39 C 0.34798 0.89629 0.78011 0.0
C40 C 0.37661 0.89784 0.78456 0.0
C41 C 0.337 0.88258 0.75609 0.0
C42 C 0.35454 0.87067 0.73575 0.0
C43 C 0.38335 0.87316 0.74002 0.0
C44 C 0.39418 0.88623 0.76429 0.0
C45 C 0.34303 0.85537 0.71037 0.0
C46 C 0.3198 0.8657 0.69673 0.0
C47 C 0.3095 0.85161 0.67245 0.0
C48 C 0.32277 0.82716 0.66155 0.0
C49 C 0.34591 0.81649 0.67484 0.0
C50 C 0.35556 0.83037 0.69942 0.0
C51 C 0.36042 0.79115 0.66298 0.0
C52 C 0.34538 0.76456 0.65342 0.0
C53 C 0.38961 0.79337 0.66142 0.0
C54 C 0.40348 0.76937 0.65103 0.0
C55 C 0.38852 0.74251 0.64197 0.0
C56 C 0.28494 0.86253 0.65829 0.0
C57 C 0.26089 0.86702 0.67449 0.0
C58 C 0.28524 0.86803 0.62843 0.0
C59 C 0.26195 0.8778 0.61502 0.0
C60 C 0.23767 0.88198 0.63113 0.0
C61 C 0.23746 0.87648 0.66107 0.0
C62 C 0.3593 0.74047 0.64303 0.0
H63 H 0.33402 0.90497 0.79559 0.0
H64 H 0.31471 0.88078 0.75385 0.0
H65 H 0.3977 0.86515 0.72455 0.0
H66 H 0.4164 0.88756 0.76709 0.0
H67 H 0.31013 0.88529 0.70443 0.0
H68 H 0.37273 0.82125 0.71028 0.0
H69 H 0.31512 0.81651 0.64263 0.0
H70 H 0.32287 0.76207 0.65458 0.0
H71 H 0.40179 0.81384 0.66806 0.0
H72 H 0.426 0.77198 0.64991 0.0
H73 H 0.25999 0.8626 0.69752 0.0
H74 H 0.30365 0.86513 0.61545 0.0
H75 H 0.34717 0.71996 0.63644 0.0
H76 H 0.21904 0.87895 0.67416 0.0
H77 H 0.26313 0.88242 0.59202 0.0
C78 C 0.73936 0.41279 0.84479 0.0
C79 C 0.76261 0.39646 0.85027 0.0
C80 C 0.7158 0.39823 0.83299 0.0
C81 C 0.71468 0.36685 0.82704 0.0
C82 C 0.73753 0.35023 0.83287 0.0
C83 C 0.76139 0.36496 0.84411 0.0
C84 C 0.68957 0.35154 0.81486 0.0
C85 C 0.6795 0.36394 0.78934 0.0
C86 C 0.65553 0.34967 0.77762 0.0
C87 C 0.64139 0.32314 0.79221 0.0
C88 C 0.65109 0.31059 0.81793 0.0
C89 C 0.67545 0.3248 0.82895 0.0
C90 C 0.63555 0.28282 0.83326 0.0
C91 C 0.60633 0.27981 0.83492 0.0
C92 C 0.64967 0.25896 0.84594 0.0
C93 C 0.63485 0.23244 0.85947 0.0
C94 C 0.60563 0.22918 0.86045 0.0
C95 C 0.6455 0.36196 0.74993 0.0
C96 C 0.6461 0.39413 0.74331 0.0
C97 C 0.63521 0.34141 0.72982 0.0
C98 C 0.62556 0.35266 0.70388 0.0
C99 C 0.62625 0.3848 0.69713 0.0
C100 C 0.63661 0.40543 0.71718 0.0
C101 C 0.59156 0.25328 0.84827 0.0
H102 H 0.73911 0.43678 0.8499 0.0
H103 H 0.69823 0.41135 0.82896 0.0
H104 H 0.73708 0.326 0.82824 0.0
H105 H 0.77896 0.35171 0.84756 0.0
H106 H 0.69087 0.38422 0.77826 0.0
H107 H 0.68301 0.31572 0.84897 0.0
H108 H 0.62274 0.31213 0.78347 0.0
H109 H 0.5948 0.29805 0.82599 0.0
H110 H 0.67216 0.26043 0.84481 0.0
H111 H 0.64624 0.21412 0.8685 0.0
H112 H 0.65365 0.41061 0.75843 0.0
H113 H 0.6348 0.31651 0.73398 0.0
H114 H 0.56906 0.2517 0.84918 0.0
H115 H 0.63766 0.43032 0.7126 0.0
H116 H 0.61731 0.33605 0.6892 0.0
C117 C 0.83955 0.61745 0.18399 0.0
C118 C 0.86822 0.61437 0.18147 0.0
C119 C 0.82857 0.63258 0.20668 0.0
C120 C 0.84596 0.64522 0.22737 0.0
C121 C 0.87468 0.64271 0.22457 0.0
C122 C 0.88566 0.62743 0.20196 0.0
C123 C 0.8341 0.66006 0.25225 0.0
C124 C 0.80966 0.64614 0.26694 0.0
C125 C 0.79923 0.65887 0.29148 0.0
C126 C 0.81291 0.68634 0.30066 0.0
C127 C 0.83724 0.70065 0.28643 0.0
C128 C 0.84782 0.6873 0.26228 0.0
C129 C 0.85237 0.72799 0.29873 0.0
C130 C 0.83748 0.75131 0.30959 0.0
C131 C 0.88102 0.7288 0.30337 0.0
C132 C 0.89392 0.75092 0.32052 0.0
C133 C 0.87836 0.77256 0.3331 0.0
C134 C 0.7754 0.64257 0.30908 0.0
C135 C 0.75095 0.63049 0.29657 0.0
C136 C 0.77705 0.63936 0.33899 0.0
C137 C 0.75483 0.62473 0.35603 0.0
C138 C 0.73031 0.61271 0.3437 0.0
C139 C 0.72853 0.61586 0.31375 0.0
C140 C 0.85032 0.77324 0.32678 0.0
H141 H 0.82552 0.60827 0.16835 0.0
H142 H 0.80641 0.6345 0.20796 0.0
H143 H 0.88864 0.65177 0.24035 0.0
H144 H 0.90776 0.62515 0.20104 0.0
H145 H 0.79957 0.62451 0.26016 0.0
H146 H 0.86663 0.69823 0.25124 0.0
H147 H 0.80502 0.69607 0.31972 0.0
H148 H 0.81548 0.75156 0.30605 0.0
H149 H 0.893 0.71103 0.29548 0.0
H150 H 0.91554 0.74987 0.32547 0.0
H151 H 0.74905 0.63273 0.27359 0.0
H152 H 0.7957 0.64803 0.3493 0.0
H153 H 0.83798 0.7897 0.33643 0.0
H154 H 0.70999 0.60664 0.30357 0.0
H155 H 0.75681 0.62307 0.37902 0.0
C156 C 0.84927 0.84066 0.69461 0.0
C157 C 0.84624 0.87262 0.69156 0.0
C158 C 0.83458 0.82181 0.71656 0.0
C159 C 0.81662 0.83458 0.73588 0.0
C160 C 0.81267 0.86626 0.73178 0.0
C161 C 0.8271 0.88491 0.70982 0.0
C162 C 0.80377 0.81607 0.76167 0.0
C163 C 0.81906 0.79539 0.77736 0.0
C164 C 0.80887 0.78153 0.80406 0.0
C165 C 0.78316 0.78907 0.8152 0.0
C166 C 0.76756 0.80987 0.79997 0.0
C167 C 0.77757 0.822 0.77266 0.0
C168 C 0.74241 0.82131 0.81359 0.0
C169 C 0.72503 0.8023 0.83358 0.0
C170 C 0.73649 0.85222 0.80789 0.0
C171 C 0.7141 0.86379 0.82181 0.0
C172 C 0.69735 0.84516 0.84255 0.0
C173 C 0.82634 0.76157 0.8214 0.0
C174 C 0.84267 0.74079 0.80835 0.0
C175 C 0.82771 0.76413 0.8511 0.0
C176 C 0.8453 0.74693 0.86719 0.0
C177 C 0.86239 0.727 0.85404 0.0
C178 C 0.86053 0.72374 0.82447 0.0
C179 C 0.70306 0.81415 0.84809 0.0
H180 H 0.86389 0.83048 0.68088 0.0
H181 H 0.83783 0.79743 0.71882 0.0
H182 H 0.79938 0.87719 0.74633 0.0
H183 H 0.82387 0.90931 0.70771 0.0
H184 H 0.83974 0.7916 0.76966 0.0
H185 H 0.7653 0.83704 0.76017 0.0
H186 H 0.77579 0.77949 0.83625 0.0
H187 H 0.72849 0.77826 0.83833 0.0
H188 H 0.74954 0.86801 0.79318 0.0
H189 H 0.71016 0.88754 0.81631 0.0
H190 H 0.84188 0.73791 0.78558 0.0
H191 H 0.8158 0.78012 0.86196 0.0
H192 H 0.691 0.79902 0.86414 0.0
H193 H 0.87341 0.70869 0.81359 0.0
H194 H 0.84568 0.74955 0.89002 0.0
C195 C 0.6434 0.09453 0.23461 0.0
C196 C 0.63702 0.11738 0.21393 0.0
C197 C 0.65288 0.10295 0.26129 0.0
C198 C 0.65573 0.1343 0.26786 0.0
C199 C 0.64929 0.15703 0.24715 0.0
C200 C 0.64008 0.14869 0.22055 0.0
C201 C 0.6649 0.14369 0.29629 0.0
C202 C 0.68843 0.13248 0.30853 0.0
C203 C 0.69827 0.14358 0.33435 0.0
C204 C 0.68371 0.16528 0.34829 0.0
C205 C 0.66016 0.17653 0.33634 0.0
C206 C 0.65088 0.16554 0.31046 0.0
C207 C 0.64584 0.2008 0.35011 0.0
C208 C 0.63833 0.19771 0.37943 0.0
C209 C 0.63934 0.22718 0.33373 0.0
C210 C 0.62541 0.2499 0.34636 0.0
C211 C 0.61744 0.24659 0.37556 0.0
C212 C 0.72488 0.13449 0.34561 0.0
C213 C 0.73115 0.10345 0.34636 0.0
C214 C 0.74466 0.15727 0.35496 0.0
C215 C 0.77026 0.14933 0.36436 0.0
C216 C 0.77673 0.11841 0.36476 0.0
C217 C 0.75678 0.09545 0.35601 0.0
C218 C 0.62406 0.2203 0.39202 0.0
H219 H 0.64134 0.07022 0.23005 0.0
H220 H 0.65757 0.08495 0.27693 0.0
H221 H 0.65153 0.18142 0.25147 0.0
H222 H 0.63502 0.16682 0.20523 0.0
H223 H 0.6999 0.11644 0.29719 0.0
H224 H 0.63255 0.17405 0.30131 0.0
H225 H 0.69113 0.17407 0.36812 0.0
H226 H 0.64305 0.17755 0.3925 0.0
H227 H 0.64514 0.23029 0.31113 0.0
H228 H 0.62042 0.26983 0.33314 0.0
H229 H 0.71627 0.08538 0.33943 0.0
H230 H 0.74063 0.18144 0.35435 0.0
H231 H 0.61834 0.21732 0.41464 0.0
H232 H 0.76127 0.07145 0.35591 0.0
H233 H 0.7851 0.1675 0.37122 0.0
C234 C 0.24557 0.60044 0.18045 0.0
C235 C 0.24208 0.60501 0.15094 0.0
C236 C 0.26875 0.6151 0.19302 0.0
C237 C 0.28917 0.63407 0.17617 0.0
C238 C 0.2857 0.63792 0.14645 0.0
C239 C 0.26224 0.62389 0.13408 0.0
C240 C 0.3139 0.65003 0.1893 0.0
C241 C 0.32655 0.63585 0.21267 0.0
C242 C 0.35034 0.65074 0.22443 0.0
C243 C 0.36152 0.68 0.21232 0.0
C244 C 0.34964 0.69405 0.18864 0.0
C245 C 0.32552 0.67934 0.17778 0.0
C246 C 0.36383 0.72269 0.17365 0.0
C247 C 0.37478 0.7477 0.18899 0.0
C248 C 0.36818 0.72413 0.14376 0.0
C249 C 0.38399 0.7495 0.12961 0.0
C250 C 0.39543 0.774 0.14503 0.0
C251 C 0.36399 0.6358 0.24898 0.0
C252 C 0.34814 0.61922 0.27173 0.0
C253 C 0.39315 0.63936 0.25047 0.0
C254 C 0.40597 0.62841 0.27476 0.0
C255 C 0.39004 0.61302 0.2978 0.0
C256 C 0.36111 0.60777 0.2959 0.0
C257 C 0.39039 0.77329 0.17472 0.0
H258 H 0.23017 0.58587 0.19379 0.0
H259 H 0.27043 0.61185 0.21596 0.0
H260 H 0.30125 0.65149 0.13253 0.0
H261 H 0.2601 0.62726 0.11118 0.0
H262 H 0.3185 0.61279 0.22112 0.0
H263 H 0.31589 0.69094 0.16015 0.0
H264 H 0.37995 0.69168 0.22092 0.0
H265 H 0.37162 0.74724 0.21201 0.0
H266 H 0.36033 0.70504 0.13143 0.0
H267 H 0.38789 0.74966 0.10669 0.0
H268 H 0.32567 0.61617 0.27141 0.0
H269 H 0.40613 0.65111 0.23306 0.0
H270 H 0.39927 0.79202 0.18691 0.0
H271 H 0.34848 0.59608 0.31362 0.0
H272 H 0.42837 0.63249 0.27581 0.0
C273 C 0.15958 0.2312 0.67225 0.0
C274 C 0.13205 0.23154 0.66396 0.0
C275 C 0.17128 0.25395 0.68921 0.0
C276 C 0.1558 0.27781 0.69788 0.0
C277 C 0.12759 0.27689 0.69121 0.0
C278 C 0.11577 0.25383 0.67431 0.0
C279 C 0.1701 0.30509 0.71095 0.0
C280 C 0.19589 0.3183 0.69916 0.0
C281 C 0.21037 0.344 0.71072 0.0
C282 C 0.19824 0.35705 0.7343 0.0
C283 C 0.17204 0.34448 0.74618 0.0
C284 C 0.15817 0.31842 0.73431 0.0
C285 C 0.15908 0.35827 0.77105 0.0
C286 C 0.17497 0.36728 0.79428 0.0
C287 C 0.13048 0.36183 0.77202 0.0
C288 C 0.11799 0.37369 0.79579 0.0
C289 C 0.13378 0.38226 0.81922 0.0
C290 C 0.23766 0.3572 0.69712 0.0
C291 C 0.25618 0.33725 0.68625 0.0
C292 C 0.24448 0.3895 0.69269 0.0
C293 C 0.26851 0.40143 0.67652 0.0
C294 C 0.28595 0.38128 0.66426 0.0
C295 C 0.27984 0.34913 0.66979 0.0
C296 C 0.16245 0.37907 0.81811 0.0
H297 H 0.17241 0.21409 0.66451 0.0
H298 H 0.19289 0.25369 0.69451 0.0
H299 H 0.11518 0.29501 0.69753 0.0
H300 H 0.09451 0.25451 0.66793 0.0
H301 H 0.2044 0.30895 0.6802 0.0
H302 H 0.13835 0.30809 0.74363 0.0
H303 H 0.20908 0.37705 0.7433 0.0
H304 H 0.197 0.36463 0.79431 0.0
H305 H 0.11769 0.35545 0.75435 0.0
H306 H 0.09583 0.37559 0.79601 0.0
H307 H 0.25205 0.31228 0.68988 0.0
H308 H 0.23066 0.40554 0.70057 0.0
H309 H 0.17528 0.38579 0.83564 0.0
H310 H 0.29323 0.33311 0.66104 0.0
H311 H 0.2728 0.42635 0.67255 0.0
Zn312 Zn 0.0335 0.00925 0.53321 0.0
Zn313 Zn 0.97124 0.98956 0.47156 0.0
C314 C 0.06805 0.06258 0.54547 0.0
O315 O 0.08334 0.05126 0.52571 0.0
C316 C 0.94667 0.92809 0.46381 0.0
O317 O 0.93399 0.93305 0.48808 0.0
O318 O 0.062 0.97906 0.54133 0.0
O319 O 0.99609 0.99152 0.54816 0.0
O320 O 0.9647 0.9814 0.51516 0.0
C321 C 0.07299 0.97793 0.56561 0.0
O322 O 0.0645 0.9954 0.58544 0.0
O323 O 0.04469 0.04808 0.55335 0.0
C324 C 0.94522 0.03408 0.43548 0.0
O325 O 0.97007 0.03756 0.42285 0.0
O326 O 0.94053 0.01494 0.45721 0.0
O327 O 0.00778 0.01281 0.45566 0.0
O328 O 0.03515 0.02125 0.4918 0.0
O329 O 0.96473 0.94892 0.45249 0.0
C330 C 0.97186 0.98152 0.54113 0.0
C331 C 0.03023 0.02477 0.46553 0.0
Zn332 Zn 0.52427 0.98224 0.98623 0.0
Zn333 Zn 0.48601 0.01993 0.02419 0.0
C334 C 0.48372 0.95168 0.9516 0.0
O335 O 0.49708 0.92782 0.95958 0.0
C336 C 0.52963 0.05707 0.04931 0.0
O337 O 0.52066 0.07818 0.03158 0.0
O338 O 0.55172 0.95736 0.96681 0.0
O339 O 0.53867 0.02747 0.98417 0.0
O340 O 0.49567 0.04047 0.98462 0.0
C341 C 0.5719 0.96683 0.94941 0.0
O342 O 0.57798 0.99678 0.94337 0.0
O343 O 0.49062 0.97782 0.96165 0.0
C344 C 0.44784 0.02853 0.0678 0.0
O345 O 0.46126 0.00575 0.07835 0.0
O346 O 0.45462 0.04013 0.04266 0.0
O347 O 0.47343 0.97403 0.02769 0.0
O348 O 0.51579 0.96009 0.02478 0.0
O349 O 0.5184 0.02923 0.04988 0.0
C350 C 0.52104 0.04571 0.97604 0.0
C351 C 0.49068 0.95464 0.03383 0.0
Zn352 Zn 0.51684 0.47731 0.47706 0.0
Zn353 Zn 0.49305 0.52312 0.52543 0.0
C354 C 0.55613 0.52356 0.44437 0.0
O355 O 0.53591 0.52512 0.42649 0.0
C356 C 0.45306 0.48739 0.56234 0.0
O357 O 0.46805 0.50274 0.5807 0.0
O358 O 0.52105 0.43788 0.45654 0.0
O359 O 0.51707 0.46199 0.51848 0.0
O360 O 0.52781 0.50601 0.53857 0.0
C361 C 0.54387 0.433 0.44408 0.0
O362 O 0.56469 0.45492 0.4424 0.0
O363 O 0.55197 0.50639 0.46746 0.0
C364 C 0.46493 0.57281 0.54499 0.0
O365 O 0.44804 0.56331 0.52521 0.0
O366 O 0.48677 0.55928 0.54901 0.0
O367 O 0.4921 0.54023 0.48469 0.0
O368 O 0.48347 0.49722 0.46224 0.0
O369 O 0.46012 0.49122 0.53583 0.0
C370 C 0.53012 0.47725 0.53699 0.0
C371 C 0.48159 0.52611 0.46403 0.0
Zn372 Zn 0.97394 0.51535 0.96832 0.0
Zn373 Zn 0.03165 0.48963 0.03105 0.0
C374 C 0.92899 0.46873 0.95206 0.0
O375 O 0.94586 0.44697 0.95576 0.0
C376 C 0.07448 0.53763 0.04998 0.0
O377 O 0.05474 0.55549 0.05529 0.0
O378 O 0.97394 0.55801 0.94862 0.0
O379 O 0.97706 0.51773 0.01111 0.0
O380 O 1.00062 0.51 0.0499 0.0
C381 C 0.96818 0.58127 0.96211 0.0
O382 O 0.966 0.57874 0.99018 0.0
O383 O 0.93663 0.49632 0.95815 0.0
C384 C 0.05732 0.43688 0.04963 0.0
O385 O 0.07625 0.45051 0.03105 0.0
O386 O 0.03432 0.44846 0.05269 0.0
O387 O 0.02654 0.48387 0.9888 0.0
O388 O 0.00334 0.49206 0.94997 0.0
O389 O 0.06875 0.51231 0.03817 0.0
C390 C 0.97938 0.51905 0.03796 0.0
C391 C 0.02324 0.48034 0.96231 0.0
H392 H 0.11912 0.07701 0.32099 0.0
H393 H 0.16237 0.14965 0.3673 0.0
H394 H 0.13442 0.13089 0.41114 0.0
H395 H 0.05215 0.08048 0.35315 0.0
H396 H 0.04258 0.03914 0.3546 0.0
H397 H 0.06697 0.0571 0.3272 0.0
H398 H 0.1032 0.01987 0.34304 0.0
H399 H 0.07882 0.00162 0.37034 0.0
H400 H 0.11285 0.01752 0.37988 0.0
H401 H 0.10047 0.10594 0.44906 0.0
H402 H 0.06404 0.0749 0.47944 0.0
H403 H 0.0426 0.0184 0.4086 0.0
C404 C 0.12277 0.08888 0.3404 0.0
C405 C 0.14295 0.11473 0.34081 0.0
C406 C 0.14729 0.12953 0.36665 0.0
C407 C 0.1314 0.11918 0.39156 0.0
C408 C 0.11138 0.09395 0.39028 0.0
C409 C 0.10715 0.07882 0.36545 0.0
C410 C 0.08413 0.05243 0.36977 0.0
C411 C 0.06003 0.05762 0.35 0.0
C412 C 0.09543 0.021 0.36551 0.0
C413 C 0.07571 0.05544 0.40079 0.0
C414 C 0.09182 0.07944 0.41222 0.0
C415 C 0.08797 0.08685 0.44046 0.0
C416 C 0.0674 0.06894 0.4576 0.0
C417 C 0.05095 0.04391 0.44651 0.0
C418 C 0.05492 0.03738 0.41761 0.0
H419 H 0.40895 0.87023 0.82301 0.0
H420 H 0.37068 0.95509 0.80423 0.0
H421 H 0.39229 0.97789 0.84645 0.0
H422 H 0.40048 0.87067 0.90075 0.0
H423 H 0.43307 0.85493 0.90683 0.0
H424 H 0.41392 0.84535 0.8757 0.0
H425 H 0.45708 0.8653 0.84303 0.0
H426 H 0.47635 0.87491 0.87401 0.0
H427 H 0.47312 0.9043 0.84575 0.0
H428 H 0.42074 0.99221 0.88921 0.0
H429 H 0.45208 0.99625 0.92977 0.0
H430 H 0.46979 0.90088 0.92121 0.0
C431 C 0.40506 0.89356 0.82793 0.0
C432 C 0.38829 0.91104 0.81048 0.0
C433 C 0.38339 0.94137 0.81755 0.0
C434 C 0.3956 0.95447 0.84139 0.0
C435 C 0.41222 0.93666 0.85812 0.0
C436 C 0.41669 0.90673 0.85183 0.0
C437 C 0.43538 0.89243 0.87307 0.0
C438 C 0.41978 0.86417 0.8901 0.0
C439 C 0.46206 0.88374 0.85806 0.0
C440 C 0.44142 0.91925 0.89189 0.0
C441 C 0.42783 0.94454 0.88303 0.0
C442 C 0.4312 0.9724 0.89653 0.0
C443 C 0.44903 0.97448 0.91956 0.0
C444 C 0.46323 0.94881 0.92886 0.0
C445 C 0.45903 0.92082 0.9149 0.0
H446 H 0.59619 0.4349 0.68636 0.0
H447 H 0.63328 0.36116 0.64473 0.0
H448 H 0.61365 0.37782 0.59919 0.0
H449 H 0.53363 0.43074 0.64969 0.0
H450 H 0.53147 0.47208 0.64643 0.0
H451 H 0.54918 0.45522 0.67579 0.0
H452 H 0.59369 0.49191 0.66151 0.0
H453 H 0.57605 0.50905 0.63218 0.0
H454 H 0.60839 0.49278 0.62556 0.0
H455 H 0.5873 0.39958 0.55928 0.0
H456 H 0.55839 0.42781 0.52625 0.0
H457 H 0.54104 0.48986 0.59243 0.0
C458 C 0.60066 0.42259 0.66758 0.0
C459 C 0.61608 0.39647 0.66928 0.0
C460 C 0.62104 0.38079 0.64419 0.0
C461 C 0.61017 0.39022 0.61814 0.0
C462 C 0.59469 0.41565 0.61735 0.0
C463 C 0.5902 0.4319 0.64127 0.0
C464 C 0.57245 0.45819 0.63459 0.0
C465 C 0.54506 0.45378 0.6527 0.0
C466 C 0.58862 0.48986 0.6387 0.0
C467 C 0.5674 0.45386 0.60328 0.0
C468 C 0.58031 0.42907 0.59385 0.0
C469 C 0.57739 0.41931 0.56625 0.0
C470 C 0.56085 0.43536 0.54773 0.0
C471 C 0.54774 0.46108 0.55679 0.0
C472 C 0.55124 0.47058 0.58486 0.0
H473 H 0.91832 0.62739 0.15098 0.0
H474 H 0.84454 0.56126 0.15917 0.0
H475 H 0.86363 0.53192 0.12093 0.0
H476 H 0.92936 0.62557 0.07383 0.0
H477 H 0.96667 0.62824 0.07554 0.0
H478 H 0.94636 0.64552 0.10209 0.0
H479 H 0.96848 0.61373 0.14238 0.0
H480 H 0.98894 0.5965 0.11601 0.0
H481 H 0.96672 0.57204 0.14157 0.0
H482 H 0.89097 0.50932 0.08188 0.0
H483 H 0.92641 0.49288 0.04804 0.0
H484 H 0.98365 0.5711 0.06806 0.0
C485 C 0.90615 0.60671 0.14484 0.0
C486 C 0.87972 0.59692 0.15803 0.0
C487 C 0.86451 0.56977 0.14905 0.0
C488 C 0.87524 0.55281 0.1274 0.0
C489 C 0.90129 0.56315 0.1149 0.0
C490 C 0.91664 0.58935 0.12342 0.0
C491 C 0.94461 0.59476 0.10738 0.0
C492 C 0.94687 0.62534 0.0886 0.0
C493 C 0.9686 0.59421 0.12808 0.0
C494 C 0.94296 0.56695 0.08919 0.0
C495 C 0.91752 0.54942 0.09332 0.0
C496 C 0.91095 0.52286 0.07851 0.0
C497 C 0.93107 0.51376 0.0593 0.0
C498 C 0.95751 0.53081 0.05562 0.0
C499 C 0.96348 0.55776 0.07063 0.0
H500 H 0.33766 0.145 0.11416 0.0
H501 H 0.3202 0.08392 0.19087 0.0
H502 H 0.35416 0.04966 0.17394 0.0
H503 H 0.34609 0.08513 0.06536 0.0
H504 H 0.37438 0.10689 0.04466 0.0
H505 H 0.3487 0.127 0.06267 0.0
H506 H 0.38751 0.15806 0.0889 0.0
H507 H 0.41334 0.13813 0.07092 0.0
H508 H 0.41154 0.13745 0.10944 0.0
H509 H 0.3892 0.02191 0.14923 0.0
H510 H 0.42494 0.00246 0.11846 0.0
H511 H 0.42062 0.08104 0.05716 0.0
C512 C 0.34101 0.12436 0.12729 0.0
C513 C 0.32647 0.1172 0.15393 0.0
C514 C 0.33145 0.09011 0.17064 0.0
C515 C 0.35055 0.07039 0.16113 0.0
C516 C 0.36458 0.0781 0.13487 0.0
C517 C 0.36023 0.10445 0.11819 0.0
C518 C 0.37853 0.1074 0.09102 0.0
C519 C 0.36087 0.10654 0.06435 0.0
C520 C 0.39894 0.13702 0.09002 0.0
C521 C 0.39359 0.07841 0.095 0.0
C522 C 0.38514 0.06195 0.12049 0.0
C523 C 0.39606 0.03457 0.12923 0.0
C524 C 0.41639 0.02374 0.11157 0.0
C525 C 0.42564 0.04023 0.0854 0.0
C526 C 0.4139 0.06786 0.07697 0.0
H527 H 0.20115 0.92187 0.65016 0.0
H528 H 0.21751 0.86487 0.57956 0.0
H529 H 0.17681 0.88249 0.55536 0.0
H530 H 0.12598 0.90683 0.65041 0.0
H531 H 0.1204 0.94562 0.65952 0.0
H532 H 0.15089 0.92848 0.6712 0.0
H533 H 0.1822 0.97534 0.64683 0.0
H534 H 0.15184 0.9926 0.63505 0.0
H535 H 0.17873 0.98563 0.60935 0.0
H536 H 0.13472 0.90737 0.53834 0.0
H537 H 0.09439 0.93722 0.53015 0.0
H538 H 0.10472 0.97598 0.61289 0.0
C539 C 0.19604 0.91269 0.6298 0.0
C540 C 0.21273 0.89203 0.61678 0.0
C541 C 0.20542 0.88112 0.58982 0.0
C542 C 0.18218 0.89079 0.57598 0.0
C543 C 0.16627 0.91119 0.58945 0.0
C544 C 0.17282 0.92188 0.61581 0.0
C545 C 0.15242 0.94374 0.62568 0.0
C546 C 0.13647 0.93036 0.65334 0.0
C547 C 0.16719 0.97625 0.62944 0.0
C548 C 0.13355 0.944 0.60057 0.0
C549 C 0.14183 0.92505 0.5799 0.0
C550 C 0.12794 0.92214 0.55446 0.0
C551 C 0.10506 0.93919 0.55001 0.0
C552 C 0.09629 0.95884 0.57091 0.0
C553 C 0.11072 0.961 0.59656 0.0
H554 H 0.79878 0.37181 0.88796 0.0
H555 H 0.78435 0.45721 0.83958 0.0
H556 H 0.82433 0.48452 0.86154 0.0
H557 H 0.82104 0.40471 0.95166 0.0
H558 H 0.84808 0.37953 0.95772 0.0
H559 H 0.81793 0.36627 0.93863 0.0
H560 H 0.84948 0.35443 0.89571 0.0
H561 H 0.87977 0.36738 0.91476 0.0
H562 H 0.87447 0.38463 0.87965 0.0
H563 H 0.8638 0.50338 0.89024 0.0
H564 H 0.90427 0.51178 0.92017 0.0
H565 H 0.89663 0.4134 0.94673 0.0
C566 C 0.80418 0.39613 0.88157 0.0
C567 C 0.7879 0.41237 0.86233 0.0
C568 C 0.79578 0.44433 0.8549 0.0
C569 C 0.81866 0.46006 0.86707 0.0
C570 C 0.83385 0.44345 0.88624 0.0
C571 C 0.82732 0.41211 0.89309 0.0
C572 C 0.84768 0.3997 0.91375 0.0
C573 C 0.83278 0.3868 0.94212 0.0
C574 C 0.86381 0.37508 0.90015 0.0
C575 C 0.86642 0.42914 0.9177 0.0
C576 C 0.85779 0.4541 0.9018 0.0
C577 C 0.87095 0.484 0.9026 0.0
C578 C 0.89381 0.48853 0.91985 0.0
C579 C 0.90358 0.46321 0.93579 0.0
C580 C 0.88968 0.43311 0.93467 0.0
H581 H 0.67396 0.61759 0.34009 0.0
H582 H 0.73407 0.57127 0.38939 0.0
H583 H 0.69631 0.54637 0.42204 0.0
H584 H 0.62875 0.63118 0.40035 0.0
H585 H 0.59718 0.62386 0.38144 0.0
H586 H 0.62894 0.63898 0.36211 0.0
H587 H 0.62418 0.59299 0.32918 0.0
H588 H 0.59228 0.57793 0.3482 0.0
H589 H 0.62034 0.55373 0.34494 0.0
H590 H 0.65248 0.52665 0.44956 0.0
H591 H 0.60472 0.50964 0.46785 0.0
H592 H 0.57229 0.56694 0.40005 0.0
C593 C 0.67913 0.60202 0.35763 0.0
C594 C 0.70707 0.59664 0.36231 0.0
C595 C 0.71294 0.57625 0.38565 0.0
C596 C 0.69162 0.56191 0.4043 0.0
C597 C 0.66443 0.56809 0.39937 0.0
C598 C 0.65804 0.58743 0.37652 0.0
C599 C 0.62693 0.58953 0.37583 0.0
C600 C 0.62005 0.62287 0.38019 0.0
C601 C 0.61525 0.57783 0.34788 0.0
C602 C 0.61686 0.56775 0.40145 0.0
C603 C 0.63893 0.5561 0.41498 0.0
C604 C 0.63501 0.53559 0.43916 0.0
C605 C 0.60777 0.52618 0.44948 0.0
C606 C 0.58472 0.53692 0.43541 0.0
C607 C 0.58946 0.55831 0.41128 0.0
H608 H 0.15232 0.30739 0.10419 0.0
H609 H 0.11091 0.30778 0.18762 0.0
H610 H 0.08071 0.34637 0.16837 0.0
H611 H 0.15206 0.38844 0.08349 0.0
H612 H 0.14501 0.38199 0.04667 0.0
H613 H 0.16333 0.3548 0.06738 0.0
H614 H 0.1266 0.31015 0.05552 0.0
H615 H 0.10793 0.33733 0.03512 0.0
H616 H 0.09038 0.31301 0.06408 0.0
H617 H 0.05456 0.3842 0.13964 0.0
H618 H 0.03683 0.42155 0.10437 0.0
H619 H 0.09547 0.39618 0.0399 0.0
C620 C 0.13709 0.31593 0.11839 0.0
C621 C 0.13386 0.30484 0.14732 0.0
C622 C 0.11349 0.31604 0.16532 0.0
C623 C 0.09628 0.33785 0.15458 0.0
C624 C 0.09957 0.34791 0.12576 0.0
C625 C 0.11953 0.33742 0.10794 0.0
C626 C 0.11859 0.35164 0.07775 0.0
C627 C 0.1464 0.37034 0.06828 0.0
C628 C 0.11039 0.32654 0.05689 0.0
C629 C 0.09565 0.37254 0.08159 0.0
C630 C 0.08458 0.36967 0.10929 0.0
C631 C 0.06302 0.38662 0.11785 0.0
C632 C 0.05295 0.40757 0.09766 0.0
C633 C 0.06477 0.41161 0.06947 0.0
C634 C 0.08608 0.39352 0.06133 0.0
H635 H 0.61457 0.19724 0.91132 0.0
H636 H 0.56083 0.19637 0.83897 0.0
H637 H 0.53327 0.1495 0.86095 0.0
H638 H 0.61584 0.11442 0.92196 0.0
H639 H 0.61499 0.11438 0.96046 0.0
H640 H 0.63041 0.14807 0.93917 0.0
H641 H 0.59753 0.18226 0.9648 0.0
H642 H 0.58193 0.14861 0.98606 0.0
H643 H 0.56049 0.17213 0.96493 0.0
H644 H 0.51044 0.10426 0.89141 0.0
H645 H 0.49561 0.06099 0.92731 0.0
H646 H 0.56557 0.08913 0.97852 0.0
C647 C 0.59716 0.18699 0.90001 0.0
C648 C 0.58971 0.20053 0.87352 0.0
C649 C 0.56661 0.18666 0.8595 0.0
C650 C 0.55091 0.15998 0.87174 0.0
C651 C 0.5586 0.14743 0.898 0.0
C652 C 0.58123 0.16033 0.91195 0.0
C653 C 0.58489 0.14226 0.94006 0.0
C654 C 0.61321 0.12898 0.94041 0.0
C655 C 0.58097 0.16252 0.96546 0.0
C656 C 0.56116 0.1168 0.93935 0.0
C657 C 0.54597 0.12058 0.91514 0.0
C658 C 0.52228 0.10088 0.91034 0.0
C659 C 0.51396 0.07653 0.9308 0.0
C660 C 0.52965 0.07185 0.9553 0.0
C661 C 0.55355 0.09213 0.95963 0.0
H662 H 0.91282 0.82735 0.32927 0.0
H663 H 0.86838 0.75846 0.38934 0.0
H664 H 0.88423 0.78901 0.42966 0.0
H665 H 0.97247 0.84718 0.37422 0.0
H666 H 0.97491 0.88799 0.3633 0.0
H667 H 0.96202 0.85962 0.33913 0.0
H668 H 0.91693 0.88687 0.3341 0.0
H669 H 0.9297 0.91529 0.3582 0.0
H670 H 0.89653 0.89304 0.36579 0.0
H671 H 0.90166 0.82813 0.46288 0.0
H672 H 0.91972 0.87411 0.48759 0.0
H673 H 0.95366 0.91828 0.4066 0.0
C674 C 0.90692 0.81864 0.351 0.0
C675 C 0.88965 0.79057 0.3565 0.0
C676 C 0.88177 0.7799 0.38498 0.0
C677 C 0.89069 0.79702 0.40792 0.0
C678 C 0.9075 0.82478 0.40195 0.0
C679 C 0.91562 0.8356 0.37425 0.0
C680 C 0.9325 0.86707 0.3739 0.0
C681 C 0.96225 0.86535 0.36193 0.0
C682 C 0.91804 0.89203 0.357 0.0
C683 C 0.93221 0.87233 0.40563 0.0
C684 C 0.91776 0.84754 0.42136 0.0
C685 C 0.9133 0.84756 0.45088 0.0
C686 C 0.92358 0.87381 0.4647 0.0
C687 C 0.93826 0.89964 0.44907 0.0
C688 C 0.94294 0.89865 0.41918 0.0
H689 H 0.3767 0.70715 0.59623 0.0
H690 H 0.43417 0.71936 0.66481 0.0
H691 H 0.46012 0.6776 0.64726 0.0
H692 H 0.37465 0.6232 0.59752 0.0
H693 H 0.3728 0.62211 0.55923 0.0
H694 H 0.35865 0.65291 0.5773 0.0
H695 H 0.38949 0.69367 0.54442 0.0
H696 H 0.40384 0.663 0.52636 0.0
H697 H 0.42659 0.69198 0.54235 0.0
H698 H 0.48025 0.63516 0.62198 0.0
H699 H 0.49255 0.59389 0.59121 0.0
H700 H 0.42146 0.60862 0.53968 0.0
C701 C 0.39456 0.70082 0.60774 0.0
C702 C 0.40349 0.71667 0.63181 0.0
C703 C 0.42719 0.70791 0.64605 0.0
C704 C 0.44198 0.6841 0.63636 0.0
C705 C 0.43276 0.66917 0.61245 0.0
C706 C 0.40955 0.67706 0.59839 0.0
C707 C 0.40415 0.65743 0.57312 0.0
C708 C 0.37589 0.63774 0.57704 0.0
C709 C 0.40615 0.67774 0.5449 0.0
C710 C 0.42801 0.63734 0.57517 0.0
C711 C 0.44428 0.64452 0.59798 0.0
C712 C 0.46764 0.62926 0.60407 0.0
C713 C 0.47449 0.60591 0.58643 0.0
C714 C 0.45799 0.59802 0.56303 0.0
C715 C 0.43448 0.61406 0.55741 0.0
H716 H 0.86252 0.86357 0.63563 0.0
H717 H 0.87199 0.92929 0.7019 0.0
H718 H 0.90238 0.96513 0.66921 0.0
H719 H 0.93327 0.87656 0.60828 0.0
H720 H 0.9247 0.87292 0.57141 0.0
H721 H 0.90249 0.85264 0.59954 0.0
H722 H 0.8605 0.87877 0.57982 0.0
H723 H 0.88267 0.89928 0.55174 0.0
H724 H 0.86247 0.92055 0.5753 0.0
H725 H 0.93334 0.99266 0.63135 0.0
H726 H 0.96394 0.01084 0.58934 0.0
H727 H 0.93483 0.92866 0.54627 0.0
C728 C 0.87096 0.88553 0.64318 0.0
C729 C 0.86447 0.89381 0.67122 0.0
C730 C 0.87604 0.92273 0.68033 0.0
C731 C 0.89347 0.94321 0.66198 0.0
C732 C 0.89925 0.93453 0.6345 0.0
C733 C 0.88846 0.90644 0.62502 0.0
C734 C 0.89888 0.90269 0.5946 0.0
C735 C 0.91584 0.87453 0.5934 0.0
C736 C 0.87468 0.90018 0.57416 0.0
C737 C 0.91725 0.93302 0.58867 0.0
C738 C 0.91709 0.95091 0.61211 0.0
C739 C 0.93344 0.9791 0.6127 0.0
C740 C 0.95073 0.98921 0.5888 0.0
C741 C 0.95134 0.97136 0.56454 0.0
C742 C 0.93414 0.94308 0.56429 0.0
H743 H 0.59741 0.0704 0.20157 0.0
H744 H 0.654 0.14599 0.16195 0.0
H745 H 0.6349 0.1359 0.11492 0.0
H746 H 0.59922 0.01882 0.14153 0.0
H747 H 0.56279 0.00541 0.14627 0.0
H748 H 0.5824 0.01683 0.17661 0.0
H749 H 0.54709 0.05602 0.18803 0.0
H750 H 0.52744 0.04482 0.15773 0.0
H751 H 0.53989 0.08502 0.1608 0.0
H752 H 0.60684 0.12152 0.07341 0.0
H753 H 0.57249 0.10212 0.03923 0.0
H754 H 0.53515 0.03407 0.10453 0.0
C755 C 0.6062 0.08432 0.18287 0.0
C756 C 0.62717 0.10904 0.18542 0.0
C757 C 0.63774 0.12716 0.16055 0.0
C758 C 0.62715 0.12149 0.13371 0.0
C759 C 0.6061 0.09743 0.132 0.0
C760 C 0.59583 0.07894 0.15581 0.0
C761 C 0.57212 0.05568 0.14817 0.0
C762 C 0.5796 0.0222 0.15346 0.0
C763 C 0.54504 0.0607 0.16466 0.0
C764 C 0.57046 0.06433 0.11645 0.0
C765 C 0.59027 0.08851 0.10763 0.0
C766 C 0.59156 0.10223 0.07989 0.0
C767 C 0.57195 0.09113 0.06067 0.0
C768 C 0.55152 0.06636 0.06917 0.0
C769 C 0.55103 0.05252 0.09731 0.0
H770 H 0.3958 0.55511 0.32283 0.0
H771 H 0.4151 0.65362 0.33252 0.0
H772 H 0.43939 0.64188 0.37689 0.0
H773 H 0.38523 0.53081 0.39855 0.0
H774 H 0.40187 0.49563 0.3956 0.0
H775 H 0.38462 0.51164 0.36546 0.0
H776 H 0.42997 0.51292 0.33417 0.0
H777 H 0.44735 0.49698 0.36424 0.0
H778 H 0.46157 0.53307 0.34584 0.0
H779 H 0.46157 0.61995 0.41941 0.0
H780 H 0.4825 0.58913 0.4572 0.0
H781 H 0.45107 0.50415 0.41938 0.0
C782 C 0.40495 0.57405 0.33458 0.0
C783 C 0.40356 0.60525 0.32465 0.0
C784 C 0.41603 0.62962 0.34006 0.0
C785 C 0.42977 0.62317 0.36521 0.0
C786 C 0.43105 0.5922 0.37442 0.0
C787 C 0.41917 0.56799 0.35958 0.0
C788 C 0.42478 0.53684 0.3736 0.0
C789 C 0.3975 0.5176 0.38392 0.0
C790 C 0.44194 0.5189 0.35325 0.0
C791 C 0.44161 0.54742 0.3986 0.0
C792 C 0.44474 0.57945 0.39869 0.0
C793 C 0.45931 0.59485 0.41959 0.0
C794 C 0.47112 0.57707 0.44099 0.0
C795 C 0.46852 0.54418 0.44127 0.0
C796 C 0.45352 0.52923 0.41972 0.0
H797 H 0.09371 0.42309 0.82081 0.0
H798 H 0.14308 0.36784 0.87571 0.0
H799 H 0.12036 0.3869 0.91829 0.0
H800 H 0.09463 0.48885 0.86372 0.0
H801 H 0.05933 0.49605 0.85674 0.0
H802 H 0.07954 0.47807 0.83064 0.0
H803 H 0.04148 0.43154 0.83125 0.0
H804 H 0.02113 0.44936 0.85736 0.0
H805 H 0.03055 0.41053 0.86476 0.0
H806 H 0.09149 0.4114 0.955 0.0
H807 H 0.05943 0.44026 0.98273 0.0
H808 H 0.02935 0.47971 0.90387 0.0
C809 C 0.09963 0.4148 0.84177 0.0
C810 C 0.12026 0.39399 0.84487 0.0
C811 C 0.12764 0.3841 0.87275 0.0
C812 C 0.11471 0.39464 0.89708 0.0
C813 C 0.09445 0.4151 0.89322 0.0
C814 C 0.08698 0.42511 0.86626 0.0
C815 C 0.06469 0.44725 0.86796 0.0
C816 C 0.07519 0.47946 0.85394 0.0
C817 C 0.03788 0.43386 0.85454 0.0
C818 C 0.06081 0.44819 0.90008 0.0
C819 C 0.07811 0.42944 0.91429 0.0
C820 C 0.07806 0.42638 0.94407 0.0
C821 C 0.05997 0.44309 0.95969 0.0
C822 C 0.0423 0.46274 0.94563 0.0
C823 C 0.04269 0.46504 0.91536 0.0
H824 H 0.69522 0.9055 0.85817 0.0
H825 H 0.6473 0.81485 0.86377 0.0
H826 H 0.61085 0.83599 0.89237 0.0
H827 H 0.6783 0.9288 0.92677 0.0
H828 H 0.67501 0.96866 0.91518 0.0
H829 H 0.69781 0.94644 0.8955 0.0
H830 H 0.6721 0.95819 0.84907 0.0
H831 H 0.64934 0.98068 0.86854 0.0
H832 H 0.63497 0.94899 0.84867 0.0
H833 H 0.58032 0.86638 0.92178 0.0
H834 H 0.55609 0.90484 0.94696 0.0
H835 H 0.62187 0.97674 0.91869 0.0
C836 C 0.67693 0.89003 0.86484 0.0
C837 C 0.67453 0.85824 0.85875 0.0
C838 C 0.65023 0.83902 0.86863 0.0
C839 C 0.62919 0.85088 0.88471 0.0
C840 C 0.63242 0.88218 0.89036 0.0
C841 C 0.65546 0.90161 0.88037 0.0
C842 C 0.6535 0.93457 0.88882 0.0
C843 C 0.67758 0.94522 0.9077 0.0
C844 C 0.65241 0.95692 0.86219 0.0
C845 C 0.62597 0.93049 0.90565 0.0
C846 C 0.61423 0.90004 0.90635 0.0
C847 C 0.58919 0.89034 0.92119 0.0
C848 C 0.57566 0.91237 0.93554 0.0
C849 C 0.58706 0.94385 0.93477 0.0
C850 C 0.61256 0.95292 0.91956 0.0
H851 H 0.78988 0.06947 0.40051 0.0
H852 H 0.82677 0.14968 0.34769 0.0
H853 H 0.87348 0.13753 0.36132 0.0
H854 H 0.83821 0.07663 0.45771 0.0
H855 H 0.83926 0.03532 0.46401 0.0
H856 H 0.8085 0.05026 0.45034 0.0
H857 H 0.81095 0.01604 0.40705 0.0
H858 H 0.84166 0.00093 0.42063 0.0
H859 H 0.8424 0.01892 0.38487 0.0
H860 H 0.91601 0.11605 0.37901 0.0
H861 H 0.95219 0.08702 0.40067 0.0
H862 H 0.88835 0.0212 0.44342 0.0
C863 C 0.80783 0.08437 0.39177 0.0
C864 C 0.8047 0.11061 0.37312 0.0
C865 C 0.82866 0.12971 0.36229 0.0
C866 C 0.85528 0.12293 0.36981 0.0
C867 C 0.85764 0.09704 0.38832 0.0
C868 C 0.83463 0.07808 0.39926 0.0
C869 C 0.84314 0.05169 0.41879 0.0
C870 C 0.83159 0.05361 0.44954 0.0
C871 C 0.834 0.02002 0.40713 0.0
C872 C 0.87452 0.0587 0.41687 0.0
C873 C 0.88236 0.08493 0.39909 0.0
C874 C 0.91016 0.09559 0.39313 0.0
C875 C 0.93055 0.0789 0.40551 0.0
C876 C 0.92311 0.05195 0.42385 0.0
C877 C 0.89467 0.04193 0.42977 0.0
H878 H 0.20205 0.63214 0.12148 0.0
H879 H 0.22812 0.54287 0.15003 0.0
H880 H 0.18912 0.51621 0.12517 0.0
H881 H 0.12836 0.60896 0.13116 0.0
H882 H 0.11924 0.63218 0.10031 0.0
H883 H 0.14979 0.64412 0.11937 0.0
H884 H 0.17978 0.64572 0.07235 0.0
H885 H 0.14935 0.63356 0.05317 0.0
H886 H 0.1791 0.61158 0.05213 0.0
H887 H 0.14911 0.49961 0.09575 0.0
H888 H 0.10635 0.49307 0.06891 0.0
H889 H 0.10331 0.59307 0.06241 0.0
C890 C 0.1994 0.60698 0.12243 0.0
C891 C 0.21794 0.58936 0.13743 0.0
C892 C 0.21394 0.55656 0.13862 0.0
C893 C 0.19203 0.54133 0.12447 0.0
C894 C 0.17418 0.55933 0.10963 0.0
C895 C 0.17728 0.5914 0.1089 0.0
C896 C 0.15436 0.6051 0.09254 0.0
C897 C 0.1369 0.62368 0.11201 0.0
C898 C 0.16638 0.62518 0.06597 0.0
C899 C 0.13786 0.57568 0.08421 0.0
C900 C 0.15005 0.54963 0.09386 0.0
C901 C 0.13926 0.51979 0.08823 0.0
C902 C 0.11505 0.51637 0.07278 0.0
C903 C 0.10154 0.5426 0.06355 0.0
C904 C 0.11319 0.57265 0.06928 0.0
H905 H 0.32798 0.4265 0.6735 0.0
H906 H 0.29743 0.36333 0.61075 0.0
H907 H 0.33687 0.38328 0.57755 0.0
H908 H 0.35279 0.49093 0.62432 0.0
H909 H 0.38323 0.5017 0.64404 0.0
H910 H 0.35235 0.48275 0.66253 0.0
H911 H 0.38086 0.43968 0.6835 0.0
H912 H 0.41181 0.45848 0.66502 0.0
H913 H 0.4007 0.41841 0.65961 0.0
H914 H 0.37913 0.41147 0.55061 0.0
H915 H 0.42215 0.44382 0.53317 0.0
H916 H 0.42602 0.48652 0.61455 0.0
C917 C 0.32959 0.41703 0.65271 0.0
C918 C 0.3097 0.39347 0.64459 0.0
C919 C 0.3126 0.3813 0.61738 0.0
C920 C 0.33484 0.39254 0.59837 0.0
C921 C 0.35419 0.41573 0.60703 0.0
C922 C 0.35191 0.42766 0.63364 0.0
C923 C 0.37588 0.45187 0.63801 0.0
C924 C 0.36543 0.4837 0.64248 0.0
C925 C 0.39334 0.44148 0.66302 0.0
C926 C 0.39182 0.45196 0.60962 0.0
C927 C 0.37893 0.4311 0.59195 0.0
C928 C 0.38951 0.42774 0.56435 0.0
C929 C 0.4139 0.44622 0.55461 0.0
C930 C 0.42755 0.46752 0.57253 0.0
C931 C 0.41628 0.47022 0.6004 0.0
H932 H 0.87719 0.66725 0.84979 0.0
H933 H 0.89374 0.74988 0.89701 0.0
H934 H 0.92524 0.7226 0.92743 0.0
H935 H 0.87667 0.61217 0.90816 0.0
H936 H 0.89415 0.58424 0.8892 0.0
H937 H 0.87386 0.61065 0.86999 0.0
H938 H 0.91661 0.62973 0.83654 0.0
H939 H 0.93707 0.60337 0.85572 0.0
H940 H 0.94868 0.64427 0.85178 0.0
H941 H 0.95131 0.6854 0.95565 0.0
H942 H 0.97196 0.64067 0.97865 0.0
H943 H 0.94183 0.58323 0.91133 0.0
C944 C 0.8878 0.67981 0.86618 0.0
C945 C 0.88262 0.71068 0.87116 0.0
C946 C 0.89676 0.72604 0.89313 0.0
C947 C 0.91496 0.71085 0.91038 0.0
C948 C 0.91926 0.68038 0.90521 0.0
C949 C 0.90633 0.66506 0.8835 0.0
C950 C 0.91406 0.63198 0.88311 0.0
C951 C 0.88814 0.60838 0.88791 0.0
C952 C 0.93006 0.62706 0.85512 0.0
C953 C 0.93276 0.63099 0.90844 0.0
C954 C 0.93548 0.6592 0.92083 0.0
C955 C 0.94985 0.66336 0.94583 0.0
C956 C 0.96149 0.63788 0.95875 0.0
C957 C 0.95898 0.60879 0.94645 0.0
C958 C 0.9448 0.6055 0.92072 0.0
H959 H 0.38454 0.833 0.12817 0.0
H960 H 0.44876 0.76999 0.12816 0.0
H961 H 0.48085 0.81017 0.10098 0.0
H962 H 0.39929 0.86522 0.05685 0.0
H963 H 0.39228 0.90407 0.06438 0.0
H964 H 0.37496 0.87126 0.08548 0.0
H965 H 0.39327 0.89455 0.13174 0.0
H966 H 0.41059 0.9275 0.11075 0.0
H967 H 0.43009 0.90459 0.13465 0.0
H968 H 0.50524 0.85619 0.07292 0.0
H969 H 0.52057 0.90516 0.04479 0.0
H970 H 0.44004 0.93818 0.06177 0.0
C971 C 0.40551 0.82802 0.12269 0.0
C972 C 0.41455 0.7988 0.1303 0.0
C973 C 0.4418 0.79251 0.12253 0.0
C974 C 0.46006 0.81511 0.10717 0.0
C975 C 0.45057 0.84372 0.09968 0.0
C976 C 0.42395 0.85029 0.10712 0.0
C977 C 0.41867 0.88241 0.09527 0.0
C978 C 0.39489 0.88062 0.07424 0.0
C979 C 0.41281 0.90351 0.11955 0.0
C980 C 0.4464 0.89274 0.07995 0.0
C981 C 0.46452 0.87013 0.08292 0.0
C982 C 0.49129 0.87414 0.0705 0.0
C983 C 0.49979 0.90205 0.05457 0.0
C984 C 0.48152 0.92551 0.05107 0.0
C985 C 0.45449 0.92069 0.06401 0.0
H986 H 0.0921 0.18144 0.66862 0.0
H987 H 0.1506 0.2361 0.60899 0.0
H988 H 0.13794 0.20063 0.57115 0.0
H989 H 0.10683 0.10833 0.64579 0.0
H990 H 0.07164 0.09025 0.64992 0.0
H991 H 0.08299 0.12153 0.6717 0.0
H992 H 0.04277 0.15224 0.6542 0.0
H993 H 0.03122 0.12095 0.63244 0.0
H994 H 0.03894 0.15982 0.61635 0.0
H995 H 0.12262 0.15744 0.54143 0.0
H996 H 0.10417 0.10911 0.52052 0.0
H997 H 0.05476 0.08182 0.59862 0.0
C998 C 0.1017 0.18611 0.64738 0.0
C999 C 0.12212 0.21145 0.6414 0.0
C1000 C 0.13483 0.21676 0.6137 0.0
C1001 C 0.12775 0.19683 0.59215 0.0
C1002 C 0.10794 0.17166 0.59872 0.0
C1003 C 0.09495 0.16621 0.62556 0.0
C1004 C 0.07567 0.13629 0.62724 0.0
C1005 C 0.08484 0.11272 0.65001 0.0
C1006 C 0.04535 0.14273 0.63289 0.0
C1007 C 0.08015 0.12573 0.59729 0.0
C1008 C 0.09885 0.14655 0.58126 0.0
C1009 C 0.10768 0.14111 0.5536 0.0
C1010 C 0.09721 0.11355 0.54197 0.0
C1011 C 0.07798 0.0919 0.55791 0.0
C1012 C 0.06913 0.09825 0.58582 0.0
H1013 H 0.62948 0.30974 0.36991 0.0
H1014 H 0.57054 0.23712 0.41056 0.0
H1015 H 0.54381 0.27702 0.43093 0.0
H1016 H 0.62988 0.36037 0.42767 0.0
H1017 H 0.63296 0.39539 0.4045 0.0
H1018 H 0.64686 0.36104 0.39276 0.0
H1019 H 0.61742 0.36354 0.34761 0.0
H1020 H 0.60327 0.39778 0.35935 0.0
H1021 H 0.5803 0.36426 0.35166 0.0
H1022 H 0.52308 0.3252 0.44601 0.0
H1023 H 0.51243 0.37761 0.45829 0.0
H1024 H 0.58581 0.41818 0.40858 0.0
C1025 C 0.61085 0.30227 0.38297 0.0
C1026 C 0.60195 0.2704 0.38859 0.0
C1027 C 0.57776 0.26145 0.40617 0.0
C1028 C 0.56237 0.28392 0.41764 0.0
C1029 C 0.57158 0.31519 0.41145 0.0
C1030 C 0.59543 0.32434 0.39477 0.0
C1031 C 0.60144 0.35934 0.39214 0.0
C1032 C 0.62944 0.36963 0.40505 0.0
C1033 C 0.60055 0.37196 0.36083 0.0
C1034 C 0.57727 0.36849 0.40997 0.0
C1035 C 0.56009 0.34275 0.42068 0.0
C1036 C 0.53641 0.34552 0.43776 0.0
C1037 C 0.53044 0.37538 0.44449 0.0
C1038 C 0.54829 0.40195 0.4344 0.0
C1039 C 0.57178 0.39832 0.41666 0.0
loop_
_geom_bond_atom_site_label_1
_geom_bond_atom_site_label_2
_geom_bond_distance
_geom_bond_site_symmetry_2
_ccdc_geom_bond_type
C0 C1 1.386 . S
C0 C2 1.397 . S
C0 H24 0.931 . S
C1 C0 1.386 . S
C1 C5 1.397 . S
C2 C0 1.397 . S
C2 C3 1.384 . S
C2 H25 0.930 . S
C3 C2 1.384 . S
C3 C4 1.377 . S
C3 C6 1.481 . S
C4 C3 1.377 . S
C4 C5 1.389 . S
C4 H26 0.929 . S
C5 C1 1.397 . S
C5 C4 1.389 . S
C5 H27 0.931 . S
C6 C3 1.481 . S
C6 C7 1.387 . S
C6 C11 1.390 . S
C7 C6 1.387 . S
C7 C8 1.401 . S
C7 H28 0.930 . S
C8 C7 1.401 . S
C8 C9 1.376 . S
C8 C17 1.511 . S
C9 C8 1.376 . S
C9 C10 1.392 . S
C9 H30 0.931 . S
C10 C9 1.392 . S
C10 C11 1.361 . S
C10 C12 1.500 . S
C11 C6 1.390 . S
C11 C10 1.361 . S
C11 H29 0.931 . S
C12 C10 1.500 . S
C12 C13 1.371 . S
C12 C14 1.365 . S
C13 C12 1.371 . S
C13 C23 1.386 . S
C13 H31 0.931 . S
C14 C12 1.365 . S
C14 C15 1.409 . S
C14 H32 0.929 . S
C15 C14 1.409 . S
C15 C16 1.380 . S
C15 H33 0.930 . S
C16 C15 1.380 . S
C16 C23 1.357 . S
C17 C8 1.511 . S
C17 C18 1.341 . S
C17 C19 1.371 . S
C18 C17 1.341 . S
C18 C22 1.394 . S
C18 H34 0.930 . S
C19 C17 1.371 . S
C19 C20 1.392 . S
C19 H35 0.931 . S
C20 C19 1.392 . S
C20 C21 1.331 . S
C20 H38 0.932 . S
C21 C20 1.331 . S
C21 C22 1.336 . S
C22 C18 1.394 . S
C22 C21 1.336 . S
C22 H37 0.929 . S
C23 C13 1.386 . S
C23 C16 1.357 . S
C23 H36 0.928 . S
H24 C0 0.931 . S
H25 C2 0.930 . S
H26 C4 0.929 . S
H27 C5 0.931 . S
H28 C7 0.930 . S
H29 C11 0.931 . S
H30 C9 0.931 . S
H31 C13 0.931 . S
H32 C14 0.929 . S
H33 C15 0.930 . S
H34 C18 0.930 . S
H35 C19 0.931 . S
H36 C23 0.928 . S
H37 C22 0.929 . S
H38 C20 0.932 . S
C39 C40 1.386 . S
C39 C41 1.397 . S
C39 H63 0.931 . S
C40 C39 1.386 . S
C40 C44 1.397 . S
C41 C39 1.397 . S
C41 C42 1.384 . S
C41 H64 0.930 . S
C42 C41 1.384 . S
C42 C43 1.377 . S
C42 C45 1.481 . S
C43 C42 1.377 . S
C43 C44 1.389 . S
C43 H65 0.929 . S
C44 C40 1.397 . S
C44 C43 1.389 . S
C44 H66 0.931 . S
C45 C42 1.481 . S
C45 C46 1.387 . S
C45 C50 1.390 . S
C46 C45 1.387 . S
C46 C47 1.401 . S
C46 H67 0.930 . S
C47 C46 1.401 . S
C47 C48 1.376 . S
C47 C56 1.511 . S
C48 C47 1.376 . S
C48 C49 1.392 . S
C48 H69 0.931 . S
C49 C48 1.392 . S
C49 C50 1.361 . S
C49 C51 1.500 . S
C50 C45 1.390 . S
C50 C49 1.361 . S
C50 H68 0.931 . S
C51 C49 1.500 . S
C51 C52 1.371 . S
C51 C53 1.365 . S
C52 C51 1.371 . S
C52 C62 1.386 . S
C52 H70 0.931 . S
C53 C51 1.365 . S
C53 C54 1.409 . S
C53 H71 0.929 . S
C54 C53 1.409 . S
C54 C55 1.380 . S
C54 H72 0.930 . S
C55 C54 1.380 . S
C55 C62 1.357 . S
C56 C47 1.511 . S
C56 C57 1.341 . S
C56 C58 1.371 . S
C57 C56 1.341 . S
C57 C61 1.394 . S
C57 H73 0.930 . S
C58 C56 1.371 . S
C58 C59 1.392 . S
C58 H74 0.931 . S
C59 C58 1.392 . S
C59 C60 1.331 . S
C59 H77 0.932 . S
C60 C59 1.331 . S
C60 C61 1.336 . S
C61 C57 1.394 . S
C61 C60 1.336 . S
C61 H76 0.929 . S
C62 C52 1.386 . S
C62 C55 1.357 . S
C62 H75 0.928 . S
H63 C39 0.931 . S
H64 C41 0.930 . S
H65 C43 0.929 . S
H66 C44 0.931 . S
H67 C46 0.930 . S
H68 C50 0.931 . S
H69 C48 0.931 . S
H70 C52 0.931 . S
H71 C53 0.929 . S
H72 C54 0.930 . S
H73 C57 0.930 . S
H74 C58 0.931 . S
H75 C62 0.928 . S
H76 C61 0.929 . S
H77 C59 0.932 . S
C78 C79 1.386 . S
C78 C80 1.397 . S
C78 H102 0.931 . S
C79 C78 1.386 . S
C79 C83 1.397 . S
C80 C78 1.397 . S
C80 C81 1.384 . S
C80 H103 0.930 . S
C81 C80 1.384 . S
C81 C82 1.377 . S
C81 C84 1.481 . S
C82 C81 1.377 . S
C82 C83 1.389 . S
C82 H104 0.929 . S
C83 C79 1.397 . S
C83 C82 1.389 . S
C83 H105 0.931 . S
C84 C81 1.481 . S
C84 C85 1.387 . S
C84 C89 1.390 . S
C85 C84 1.387 . S
C85 C86 1.401 . S
C85 H106 0.930 . S
C86 C85 1.401 . S
C86 C87 1.376 . S
C86 C95 1.511 . S
C87 C86 1.376 . S
C87 C88 1.392 . S
C87 H108 0.931 . S
C88 C87 1.392 . S
C88 C89 1.361 . S
C88 C90 1.500 . S
C89 C84 1.390 . S
C89 C88 1.361 . S
C89 H107 0.931 . S
C90 C88 1.500 . S
C90 C91 1.371 . S
C90 C92 1.365 . S
C91 C90 1.371 . S
C91 C101 1.386 . S
C91 H109 0.931 . S
C92 C90 1.365 . S
C92 C93 1.409 . S
C92 H110 0.929 . S
C93 C92 1.409 . S
C93 C94 1.380 . S
C93 H111 0.930 . S
C94 C93 1.380 . S
C94 C101 1.357 . S
C95 C86 1.511 . S
C95 C96 1.341 . S
C95 C97 1.371 . S
C96 C95 1.341 . S
C96 C100 1.394 . S
C96 H112 0.930 . S
C97 C95 1.371 . S
C97 C98 1.392 . S
C97 H113 0.931 . S
C98 C97 1.392 . S
C98 C99 1.331 . S
C98 H116 0.932 . S
C99 C98 1.331 . S
C99 C100 1.336 . S
C100 C96 1.394 . S
C100 C99 1.336 . S
C100 H115 0.929 . S
C101 C91 1.386 . S
C101 C94 1.357 . S
C101 H114 0.928 . S
H102 C78 0.931 . S
H103 C80 0.930 . S
H104 C82 0.929 . S
H105 C83 0.931 . S
H106 C85 0.930 . S
H107 C89 0.931 . S
H108 C87 0.931 . S
H109 C91 0.931 . S
H110 C92 0.929 . S
H111 C93 0.930 . S
H112 C96 0.930 . S
H113 C97 0.931 . S
H114 C101 0.928 . S
H115 C100 0.929 . S
H116 C98 0.932 . S
C117 C118 1.386 . S
C117 C119 1.397 . S
C117 H141 0.931 . S
C118 C117 1.386 . S
C118 C122 1.397 . S
C119 C117 1.397 . S
C119 C120 1.384 . S
C119 H142 0.930 . S
C120 C119 1.384 . S
C120 C121 1.377 . S
C120 C123 1.481 . S
C121 C120 1.377 . S
C121 C122 1.389 . S
C121 H143 0.929 . S
C122 C118 1.397 . S
C122 C121 1.389 . S
C122 H144 0.931 . S
C123 C120 1.481 . S
C123 C124 1.387 . S
C123 C128 1.390 . S
C124 C123 1.387 . S
C124 C125 1.401 . S
C124 H145 0.930 . S
C125 C124 1.401 . S
C125 C126 1.376 . S
C125 C134 1.511 . S
C126 C125 1.376 . S
C126 C127 1.392 . S
C126 H147 0.931 . S
C127 C126 1.392 . S
C127 C128 1.361 . S
C127 C129 1.500 . S
C128 C123 1.390 . S
C128 C127 1.361 . S
C128 H146 0.931 . S
C129 C127 1.500 . S
C129 C130 1.371 . S
C129 C131 1.365 . S
C130 C129 1.371 . S
C130 C140 1.386 . S
C130 H148 0.931 . S
C131 C129 1.365 . S
C131 C132 1.409 . S
C131 H149 0.929 . S
C132 C131 1.409 . S
C132 C133 1.380 . S
C132 H150 0.930 . S
C133 C132 1.380 . S
C133 C140 1.357 . S
C134 C125 1.511 . S
C134 C135 1.341 . S
C134 C136 1.371 . S
C135 C134 1.341 . S
C135 C139 1.394 . S
C135 H151 0.930 . S
C136 C134 1.371 . S
C136 C137 1.392 . S
C136 H152 0.931 . S
C137 C136 1.392 . S
C137 C138 1.331 . S
C137 H155 0.932 . S
C138 C137 1.331 . S
C138 C139 1.336 . S
C139 C135 1.394 . S
C139 C138 1.336 . S
C139 H154 0.929 . S
C140 C130 1.386 . S
C140 C133 1.357 . S
C140 H153 0.928 . S
H141 C117 0.931 . S
H142 C119 0.930 . S
H143 C121 0.929 . S
H144 C122 0.931 . S
H145 C124 0.930 . S
H146 C128 0.931 . S
H147 C126 0.931 . S
H148 C130 0.931 . S
H149 C131 0.929 . S
H150 C132 0.930 . S
H151 C135 0.930 . S
H152 C136 0.931 . S
H153 C140 0.928 . S
H154 C139 0.929 . S
H155 C137 0.932 . S
C156 C157 1.386 . S
C156 C158 1.397 . S
C156 H180 0.931 . S
C157 C156 1.386 . S
C157 C161 1.397 . S
C158 C156 1.397 . S
C158 C159 1.384 . S
C158 H181 0.930 . S
C159 C158 1.384 . S
C159 C160 1.377 . S
C159 C162 1.481 . S
C160 C159 1.377 . S
C160 C161 1.389 . S
C160 H182 0.929 . S
C161 C157 1.397 . S
C161 C160 1.389 . S
C161 H183 0.931 . S
C162 C159 1.481 . S
C162 C163 1.387 . S
C162 C167 1.390 . S
C163 C162 1.387 . S
C163 C164 1.401 . S
C163 H184 0.930 . S
C164 C163 1.401 . S
C164 C165 1.376 . S
C164 C173 1.511 . S
C165 C164 1.376 . S
C165 C166 1.392 . S
C165 H186 0.931 . S
C166 C165 1.392 . S
C166 C167 1.361 . S
C166 C168 1.500 . S
C167 C162 1.390 . S
C167 C166 1.361 . S
C167 H185 0.931 . S
C168 C166 1.500 . S
C168 C169 1.371 . S
C168 C170 1.365 . S
C169 C168 1.371 . S
C169 C179 1.386 . S
C169 H187 0.931 . S
C170 C168 1.365 . S
C170 C171 1.409 . S
C170 H188 0.929 . S
C171 C170 1.409 . S
C171 C172 1.380 . S
C171 H189 0.930 . S
C172 C171 1.380 . S
C172 C179 1.357 . S
C173 C164 1.511 . S
C173 C174 1.341 . S
C173 C175 1.371 . S
C174 C173 1.341 . S
C174 C178 1.394 . S
C174 H190 0.930 . S
C175 C173 1.371 . S
C175 C176 1.392 . S
C175 H191 0.931 . S
C176 C175 1.392 . S
C176 C177 1.331 . S
C176 H194 0.932 . S
C177 C176 1.331 . S
C177 C178 1.336 . S
C178 C174 1.394 . S
C178 C177 1.336 . S
C178 H193 0.929 . S
C179 C169 1.386 . S
C179 C172 1.357 . S
C179 H192 0.928 . S
H180 C156 0.931 . S
H181 C158 0.930 . S
H182 C160 0.929 . S
H183 C161 0.931 . S
H184 C163 0.930 . S
H185 C167 0.931 . S
H186 C165 0.931 . S
H187 C169 0.931 . S
H188 C170 0.929 . S
H189 C171 0.930 . S
H190 C174 0.930 . S
H191 C175 0.931 . S
H192 C179 0.928 . S
H193 C178 0.929 . S
H194 C176 0.932 . S
C195 C196 1.386 . S
C195 C197 1.397 . S
C195 H219 0.931 . S
C196 C195 1.386 . S
C196 C200 1.397 . S
C197 C195 1.397 . S
C197 C198 1.384 . S
C197 H220 0.930 . S
C198 C197 1.384 . S
C198 C199 1.377 . S
C198 C201 1.481 . S
C199 C198 1.377 . S
C199 C200 1.389 . S
C199 H221 0.929 . S
C200 C196 1.397 . S
C200 C199 1.389 . S
C200 H222 0.931 . S
C201 C198 1.481 . S
C201 C202 1.387 . S
C201 C206 1.390 . S
C202 C201 1.387 . S
C202 C203 1.401 . S
C202 H223 0.930 . S
C203 C202 1.401 . S
C203 C204 1.376 . S
C203 C212 1.511 . S
C204 C203 1.376 . S
C204 C205 1.392 . S
C204 H225 0.931 . S
C205 C204 1.392 . S
C205 C206 1.361 . S
C205 C207 1.500 . S
C206 C201 1.390 . S
C206 C205 1.361 . S
C206 H224 0.931 . S
C207 C205 1.500 . S
C207 C208 1.371 . S
C207 C209 1.365 . S
C208 C207 1.371 . S
C208 C218 1.386 . S
C208 H226 0.931 . S
C209 C207 1.365 . S
C209 C210 1.409 . S
C209 H227 0.929 . S
C210 C209 1.409 . S
C210 C211 1.380 . S
C210 H228 0.930 . S
C211 C210 1.380 . S
C211 C218 1.357 . S
C212 C203 1.511 . S
C212 C213 1.341 . S
C212 C214 1.371 . S
C213 C212 1.341 . S
C213 C217 1.394 . S
C213 H229 0.930 . S
C214 C212 1.371 . S
C214 C215 1.392 . S
C214 H230 0.931 . S
C215 C214 1.392 . S
C215 C216 1.331 . S
C215 H233 0.932 . S
C216 C215 1.331 . S
C216 C217 1.336 . S
C217 C213 1.394 . S
C217 C216 1.336 . S
C217 H232 0.929 . S
C218 C208 1.386 . S
C218 C211 1.357 . S
C218 H231 0.928 . S
H219 C195 0.931 . S
H220 C197 0.930 . S
H221 C199 0.929 . S
H222 C200 0.931 . S
H223 C202 0.930 . S
H224 C206 0.931 . S
H225 C204 0.931 . S
H226 C208 0.931 . S
H227 C209 0.929 . S
H228 C210 0.930 . S
H229 C213 0.930 . S
H230 C214 0.931 . S
H231 C218 0.928 . S
H232 C217 0.929 . S
H233 C215 0.932 . S
C234 C235 1.386 . S
C234 C236 1.397 . S
C234 H258 0.931 . S
C235 C234 1.386 . S
C235 C239 1.397 . S
C236 C234 1.397 . S
C236 C237 1.384 . S
C236 H259 0.930 . S
C237 C236 1.384 . S
C237 C238 1.377 . S
C237 C240 1.481 . S
C238 C237 1.377 . S
C238 C239 1.389 . S
C238 H260 0.929 . S
C239 C235 1.397 . S
C239 C238 1.389 . S
C239 H261 0.931 . S
C240 C237 1.481 . S
C240 C241 1.387 . S
C240 C245 1.390 . S
C241 C240 1.387 . S
C241 C242 1.401 . S
C241 H262 0.930 . S
C242 C241 1.401 . S
C242 C243 1.376 . S
C242 C251 1.511 . S
C243 C242 1.376 . S
C243 C244 1.392 . S
C243 H264 0.931 . S
C244 C243 1.392 . S
C244 C245 1.361 . S
C244 C246 1.500 . S
C245 C240 1.390 . S
C245 C244 1.361 . S
C245 H263 0.931 . S
C246 C244 1.500 . S
C246 C247 1.371 . S
C246 C248 1.365 . S
C247 C246 1.371 . S
C247 C257 1.386 . S
C247 H265 0.931 . S
C248 C246 1.365 . S
C248 C249 1.409 . S
C248 H266 0.929 . S
C249 C248 1.409 . S
C249 C250 1.380 . S
C249 H267 0.930 . S
C250 C249 1.380 . S
C250 C257 1.357 . S
C251 C242 1.511 . S
C251 C252 1.341 . S
C251 C253 1.371 . S
C252 C251 1.341 . S
C252 C256 1.394 . S
C252 H268 0.930 . S
C253 C251 1.371 . S
C253 C254 1.392 . S
C253 H269 0.931 . S
C254 C253 1.392 . S
C254 C255 1.331 . S
C254 H272 0.932 . S
C255 C254 1.331 . S
C255 C256 1.336 . S
C256 C252 1.394 . S
C256 C255 1.336 . S
C256 H271 0.929 . S
C257 C247 1.386 . S
C257 C250 1.357 . S
C257 H270 0.928 . S
H258 C234 0.931 . S
H259 C236 0.930 . S
H260 C238 0.929 . S
H261 C239 0.931 . S
H262 C241 0.930 . S
H263 C245 0.931 . S
H264 C243 0.931 . S
H265 C247 0.931 . S
H266 C248 0.929 . S
H267 C249 0.930 . S
H268 C252 0.930 . S
H269 C253 0.931 . S
H270 C257 0.928 . S
H271 C256 0.929 . S
H272 C254 0.932 . S
C273 C274 1.386 . S
C273 C275 1.397 . S
C273 H297 0.931 . S
C274 C273 1.386 . S
C274 C278 1.397 . S
C275 C273 1.397 . S
C275 C276 1.384 . S
C275 H298 0.930 . S
C276 C275 1.384 . S
C276 C277 1.377 . S
C276 C279 1.481 . S
C277 C276 1.377 . S
C277 C278 1.389 . S
C277 H299 0.929 . S
C278 C274 1.397 . S
C278 C277 1.389 . S
C278 H300 0.931 . S
C279 C276 1.481 . S
C279 C280 1.387 . S
C279 C284 1.390 . S
C280 C279 1.387 . S
C280 C281 1.401 . S
C280 H301 0.930 . S
C281 C280 1.401 . S
C281 C282 1.376 . S
C281 C290 1.511 . S
C282 C281 1.376 . S
C282 C283 1.392 . S
C282 H303 0.931 . S
C283 C282 1.392 . S
C283 C284 1.361 . S
C283 C285 1.500 . S
C284 C279 1.390 . S
C284 C283 1.361 . S
C284 H302 0.931 . S
C285 C283 1.500 . S
C285 C286 1.371 . S
C285 C287 1.365 . S
C286 C285 1.371 . S
C286 C296 1.386 . S
C286 H304 0.931 . S
C287 C285 1.365 . S
C287 C288 1.409 . S
C287 H305 0.929 . S
C288 C287 1.409 . S
C288 C289 1.380 . S
C288 H306 0.930 . S
C289 C288 1.380 . S
C289 C296 1.357 . S
C290 C281 1.511 . S
C290 C291 1.341 . S
C290 C292 1.371 . S
C291 C290 1.341 . S
C291 C295 1.394 . S
C291 H307 0.930 . S
C292 C290 1.371 . S
C292 C293 1.392 . S
C292 H308 0.931 . S
C293 C292 1.392 . S
C293 C294 1.331 . S
C293 H311 0.932 . S
C294 C293 1.331 . S
C294 C295 1.336 . S
C295 C291 1.394 . S
C295 C294 1.336 . S
C295 H310 0.929 . S
C296 C286 1.386 . S
C296 C289 1.357 . S
C296 H309 0.928 . S
H297 C273 0.931 . S
H298 C275 0.930 . S
H299 C277 0.929 . S
H300 C278 0.931 . S
H301 C280 0.930 . S
H302 C284 0.931 . S
H303 C282 0.931 . S
H304 C286 0.931 . S
H305 C287 0.929 . S
H306 C288 0.930 . S
H307 C291 0.930 . S
H308 C292 0.931 . S
H309 C296 0.928 . S
H310 C295 0.929 . S
H311 C293 0.932 . S
Zn312 O318 1.969 1_545 S
Zn312 O319 1.965 1_545 S
Zn312 O323 2.024 . S
Zn312 O328 1.969 . S
Zn313 O320 1.969 . S
Zn313 O326 1.969 1_565 S
Zn313 O327 1.933 1_665 S
Zn313 O329 2.024 . S
C314 O315 1.229 . S
C314 O323 1.058 . S
O315 C314 1.229 . S
C316 O317 1.229 . S
C316 O329 1.058 . S
O317 C316 1.229 . S
O318 Zn312 1.969 1_565 S
O318 C321 1.267 . S
O319 Zn312 1.965 1_565 S
O319 C330 1.260 1_455 S
O320 Zn313 1.969 . S
O320 C330 1.258 . S
C321 O318 1.267 . S
C321 O322 1.228 . S
O322 C321 1.228 . S
O323 Zn312 2.024 . S
O323 C314 1.058 . S
C324 O325 1.228 . S
C324 O326 1.267 . S
O325 C324 1.228 . S
O326 Zn313 1.969 1_545 S
O326 C324 1.267 . S
O327 Zn313 1.933 1_445 S
O327 C331 1.302 . S
O328 Zn312 1.969 . S
O328 C331 1.258 . S
O329 Zn313 2.024 . S
O329 C316 1.058 . S
C330 O319 1.260 1_655 S
C330 O320 1.258 . S
C331 O327 1.302 . S
C331 O328 1.258 . S
Zn332 O338 1.969 . S
Zn332 O339 1.965 1_565 S
Zn332 O343 2.024 . S
Zn332 O348 1.993 . S
Zn333 O340 1.969 . S
Zn333 O346 1.969 . S
Zn333 O347 1.965 1_545 S
Zn333 O349 2.024 . S
C334 O335 1.229 . S
C334 O343 1.058 . S
O335 C334 1.229 . S
C336 O337 1.229 . S
C336 O349 1.058 . S
O337 C336 1.229 . S
O338 Zn332 1.969 . S
O338 C341 1.267 . S
O339 Zn332 1.965 1_545 S
O339 C350 1.260 . S
O340 Zn333 1.969 . S
O340 C350 1.258 1_554 S
C341 O338 1.267 . S
C341 O342 1.228 . S
O342 C341 1.228 . S
O343 Zn332 2.024 . S
O343 C334 1.058 . S
C344 O345 1.228 . S
C344 O346 1.267 . S
O345 C344 1.228 . S
O346 Zn333 1.969 . S
O346 C344 1.267 . S
O347 Zn333 1.965 1_565 S
O347 C351 1.260 . S
O348 Zn332 1.993 . S
O348 C351 1.233 1_556 S
O349 Zn333 2.024 . S
O349 C336 1.058 . S
C350 O339 1.260 . S
C350 O340 1.258 1_556 S
C351 O347 1.260 . S
C351 O348 1.233 1_554 S
Zn352 O358 1.969 . S
Zn352 O359 1.965 . S
Zn352 O363 2.024 . S
Zn352 O368 1.969 . S
Zn353 O360 1.969 . S
Zn353 O366 1.969 . S
Zn353 O367 1.965 . S
Zn353 O369 2.024 . S
C354 O355 1.229 . S
C354 O363 1.058 . S
O355 C354 1.229 . S
C356 O357 1.229 . S
C356 O369 1.058 . S
O357 C356 1.229 . S
O358 Zn352 1.969 . S
O358 C361 1.267 . S
O359 Zn352 1.965 . S
O359 C370 1.260 . S
O360 Zn353 1.969 . S
O360 C370 1.258 . S
C361 O358 1.267 . S
C361 O362 1.228 . S
O362 C361 1.228 . S
O363 Zn352 2.024 . S
O363 C354 1.058 . S
C364 O365 1.228 . S
C364 O366 1.267 . S
O365 C364 1.228 . S
O366 Zn353 1.969 . S
O366 C364 1.267 . S
O367 Zn353 1.965 . S
O367 C371 1.260 . S
O368 Zn352 1.969 . S
O368 C371 1.258 . S
O369 Zn353 2.024 . S
O369 C356 1.058 . S
C370 O359 1.260 . S
C370 O360 1.258 . S
C371 O367 1.260 . S
C371 O368 1.258 . S
Zn372 O378 1.969 . S
Zn372 O379 1.965 1_556 S
Zn372 O383 2.024 . S
Zn372 O388 1.969 1_655 S
Zn373 O380 1.969 . S
Zn373 O386 1.969 . S
Zn373 O387 1.965 1_554 S
Zn373 O389 2.024 . S
C374 O375 1.229 . S
C374 O383 1.058 . S
O375 C374 1.229 . S
C376 O377 1.229 . S
C376 O389 1.058 . S
O377 C376 1.229 . S
O378 Zn372 1.969 . S
O378 C381 1.267 . S
O379 Zn372 1.965 1_554 S
O379 C390 1.260 . S
O380 Zn373 1.969 . S
O380 C390 1.258 1_455 S
C381 O378 1.267 . S
C381 O382 1.228 . S
O382 C381 1.228 . S
O383 Zn372 2.024 . S
O383 C374 1.058 . S
C384 O385 1.228 . S
C384 O386 1.267 . S
O385 C384 1.228 . S
O386 Zn373 1.969 . S
O386 C384 1.267 . S
O387 Zn373 1.965 1_556 S
O387 C391 1.260 . S
O388 Zn372 1.969 1_455 S
O388 C391 1.258 . S
O389 Zn373 2.024 . S
O389 C376 1.058 . S
C390 O379 1.260 . S
C390 O380 1.258 1_655 S
C391 O387 1.260 . S
C391 O388 1.258 . S
H392 C404 0.930 . S
H393 C406 0.930 . S
H394 C407 0.930 . S
H395 C411 0.959 . S
H396 C411 0.959 . S
H397 C411 0.961 . S
H398 C412 0.960 . S
H399 C412 0.961 . S
H400 C412 0.959 . S
H401 C415 0.929 . S
H402 C416 0.931 . S
H403 C418 0.930 . S
C404 H392 0.930 . S
C404 C405 1.399 . S
C404 C409 1.399 . S
C405 C404 1.399 . S
C405 C406 1.376 . S
C406 H393 0.930 . S
C406 C405 1.376 . S
C406 C407 1.388 . S
C407 H394 0.930 . S
C407 C406 1.388 . S
C407 C408 1.390 . S
C408 C407 1.390 . S
C408 C409 1.394 . S
C408 C414 1.465 . S
C409 C404 1.399 . S
C409 C408 1.394 . S
C409 C410 1.516 . S
C410 C409 1.516 . S
C410 C411 1.502 . S
C410 C412 1.561 . S
C410 C413 1.526 . S
C411 H395 0.959 . S
C411 H396 0.959 . S
C411 H397 0.961 . S
C411 C410 1.502 . S
C412 H398 0.960 . S
C412 H399 0.961 . S
C412 H400 0.959 . S
C412 C410 1.561 . S
C413 C410 1.526 . S
C413 C414 1.396 . S
C413 C418 1.390 . S
C414 C408 1.465 . S
C414 C413 1.396 . S
C414 C415 1.399 . S
C415 H401 0.929 . S
C415 C414 1.399 . S
C415 C416 1.385 . S
C416 H402 0.931 . S
C416 C415 1.385 . S
C416 C417 1.389 . S
C417 C416 1.389 . S
C417 C418 1.387 . S
C418 H403 0.930 . S
C418 C413 1.390 . S
C418 C417 1.387 . S
H419 C431 0.930 . S
H420 C433 0.930 . S
H421 C434 0.930 . S
H422 C438 0.959 . S
H423 C438 0.959 . S
H424 C438 0.961 . S
H425 C439 0.960 . S
H426 C439 0.961 . S
H427 C439 0.959 . S
H428 C442 0.929 . S
H429 C443 0.931 1_545 S
H430 C445 0.930 . S
C431 H419 0.930 . S
C431 C432 1.399 . S
C431 C436 1.399 . S
C432 C431 1.399 . S
C432 C433 1.376 . S
C433 H420 0.930 . S
C433 C432 1.376 . S
C433 C434 1.388 . S
C434 H421 0.930 . S
C434 C433 1.388 . S
C434 C435 1.390 . S
C435 C434 1.390 . S
C435 C436 1.394 . S
C435 C441 1.465 . S
C436 C431 1.399 . S
C436 C435 1.394 . S
C436 C437 1.516 . S
C437 C436 1.516 . S
C437 C438 1.502 . S
C437 C439 1.561 . S
C437 C440 1.526 . S
C438 H422 0.959 . S
C438 H423 0.959 . S
C438 H424 0.961 . S
C438 C437 1.502 . S
C439 H425 0.960 . S
C439 H426 0.961 . S
C439 H427 0.959 . S
C439 C437 1.561 . S
C440 C437 1.526 . S
C440 C441 1.396 . S
C440 C445 1.390 . S
C441 C435 1.465 . S
C441 C440 1.396 . S
C441 C442 1.399 . S
C442 H428 0.929 . S
C442 C441 1.399 . S
C442 C443 1.385 . S
C443 H429 0.931 1_565 S
C443 C442 1.385 . S
C443 C444 1.389 . S
C444 C443 1.389 . S
C444 C445 1.387 . S
C445 H430 0.930 . S
C445 C440 1.390 . S
C445 C444 1.387 . S
H446 C458 0.930 . S
H447 C460 0.930 . S
H448 C461 0.930 . S
H449 C465 0.959 . S
H450 C465 0.959 . S
H451 C465 0.961 . S
H452 C466 0.960 . S
H453 C466 0.961 . S
H454 C466 0.959 . S
H455 C469 0.929 . S
H456 C470 0.931 . S
H457 C472 0.930 . S
C458 H446 0.930 . S
C458 C459 1.399 . S
C458 C463 1.399 . S
C459 C458 1.399 . S
C459 C460 1.376 . S
C460 H447 0.930 . S
C460 C459 1.376 . S
C460 C461 1.388 . S
C461 H448 0.930 . S
C461 C460 1.388 . S
C461 C462 1.390 . S
C462 C461 1.390 . S
C462 C463 1.394 . S
C462 C468 1.465 . S
C463 C458 1.399 . S
C463 C462 1.394 . S
C463 C464 1.516 . S
C464 C463 1.516 . S
C464 C465 1.502 . S
C464 C466 1.561 . S
C464 C467 1.526 . S
C465 H449 0.959 . S
C465 H450 0.959 . S
C465 H451 0.961 . S
C465 C464 1.502 . S
C466 H452 0.960 . S
C466 H453 0.961 . S
C466 H454 0.959 . S
C466 C464 1.561 . S
C467 C464 1.526 . S
C467 C468 1.396 . S
C467 C472 1.390 . S
C468 C462 1.465 . S
C468 C467 1.396 . S
C468 C469 1.399 . S
C469 H455 0.929 . S
C469 C468 1.399 . S
C469 C470 1.385 . S
C470 H456 0.931 . S
C470 C469 1.385 . S
C470 C471 1.389 . S
C471 C470 1.389 . S
C471 C472 1.387 . S
C472 H457 0.930 . S
C472 C467 1.390 . S
C472 C471 1.387 . S
H473 C485 0.930 . S
H474 C487 0.930 . S
H475 C488 0.930 . S
H476 C492 0.959 . S
H477 C492 0.959 . S
H478 C492 0.961 . S
H479 C493 0.960 . S
H480 C493 0.961 . S
H481 C493 0.959 . S
H482 C496 0.929 . S
H483 C497 0.931 . S
H484 C499 0.930 . S
C485 H473 0.930 . S
C485 C486 1.399 . S
C485 C490 1.399 . S
C486 C485 1.399 . S
C486 C487 1.376 . S
C487 H474 0.930 . S
C487 C486 1.376 . S
C487 C488 1.388 . S
C488 H475 0.930 . S
C488 C487 1.388 . S
C488 C489 1.390 . S
C489 C488 1.390 . S
C489 C490 1.394 . S
C489 C495 1.465 . S
C490 C485 1.399 . S
C490 C489 1.394 . S
C490 C491 1.516 . S
C491 C490 1.516 . S
C491 C492 1.502 . S
C491 C493 1.561 . S
C491 C494 1.526 . S
C492 H476 0.959 . S
C492 H477 0.959 . S
C492 H478 0.961 . S
C492 C491 1.502 . S
C493 H479 0.960 . S
C493 H480 0.961 . S
C493 H481 0.959 . S
C493 C491 1.561 . S
C494 C491 1.526 . S
C494 C495 1.396 . S
C494 C499 1.390 . S
C495 C489 1.465 . S
C495 C494 1.396 . S
C495 C496 1.399 . S
C496 H482 0.929 . S
C496 C495 1.399 . S
C496 C497 1.385 . S
C497 H483 0.931 . S
C497 C496 1.385 . S
C497 C498 1.389 . S
C498 C497 1.389 . S
C498 C499 1.387 . S
C499 H484 0.930 . S
C499 C494 1.390 . S
C499 C498 1.387 . S
H500 C512 0.930 . S
H501 C514 0.930 . S
H502 C515 0.930 . S
H503 C519 0.959 . S
H504 C519 0.959 . S
H505 C519 0.961 . S
H506 C520 0.960 . S
H507 C520 0.961 . S
H508 C520 0.959 . S
H509 C523 0.929 . S
H510 C524 0.931 . S
H511 C526 0.930 . S
C512 H500 0.930 . S
C512 C513 1.399 . S
C512 C517 1.399 . S
C513 C512 1.399 . S
C513 C514 1.376 . S
C514 H501 0.930 . S
C514 C513 1.376 . S
C514 C515 1.388 . S
C515 H502 0.930 . S
C515 C514 1.388 . S
C515 C516 1.390 . S
C516 C515 1.390 . S
C516 C517 1.394 . S
C516 C522 1.465 . S
C517 C512 1.399 . S
C517 C516 1.394 . S
C517 C518 1.516 . S
C518 C517 1.516 . S
C518 C519 1.502 . S
C518 C520 1.561 . S
C518 C521 1.526 . S
C519 H503 0.959 . S
C519 H504 0.959 . S
C519 H505 0.961 . S
C519 C518 1.502 . S
C520 H506 0.960 . S
C520 H507 0.961 . S
C520 H508 0.959 . S
C520 C518 1.561 . S
C521 C518 1.526 . S
C521 C522 1.396 . S
C521 C526 1.390 . S
C522 C516 1.465 . S
C522 C521 1.396 . S
C522 C523 1.399 . S
C523 H509 0.929 . S
C523 C522 1.399 . S
C523 C524 1.385 . S
C524 H510 0.931 . S
C524 C523 1.385 . S
C524 C525 1.389 . S
C525 C524 1.389 . S
C525 C526 1.387 . S
C526 H511 0.930 . S
C526 C521 1.390 . S
C526 C525 1.387 . S
H527 C539 0.930 . S
H528 C541 0.930 . S
H529 C542 0.930 . S
H530 C546 0.959 . S
H531 C546 0.959 . S
H532 C546 0.961 . S
H533 C547 0.960 . S
H534 C547 0.961 . S
H535 C547 0.959 . S
H536 C550 0.929 . S
H537 C551 0.931 . S
H538 C553 0.930 . S
C539 H527 0.930 . S
C539 C540 1.399 . S
C539 C544 1.399 . S
C540 C539 1.399 . S
C540 C541 1.376 . S
C541 H528 0.930 . S
C541 C540 1.376 . S
C541 C542 1.388 . S
C542 H529 0.930 . S
C542 C541 1.388 . S
C542 C543 1.390 . S
C543 C542 1.390 . S
C543 C544 1.394 . S
C543 C549 1.465 . S
C544 C539 1.399 . S
C544 C543 1.394 . S
C544 C545 1.516 . S
C545 C544 1.516 . S
C545 C546 1.502 . S
C545 C547 1.561 . S
C545 C548 1.526 . S
C546 H530 0.959 . S
C546 H531 0.959 . S
C546 H532 0.961 . S
C546 C545 1.502 . S
C547 H533 0.960 . S
C547 H534 0.961 . S
C547 H535 0.959 . S
C547 C545 1.561 . S
C548 C545 1.526 . S
C548 C549 1.396 . S
C548 C553 1.390 . S
C549 C543 1.465 . S
C549 C548 1.396 . S
C549 C550 1.399 . S
C550 H536 0.929 . S
C550 C549 1.399 . S
C550 C551 1.385 . S
C551 H537 0.931 . S
C551 C550 1.385 . S
C551 C552 1.389 . S
C552 C551 1.389 . S
C552 C553 1.387 . S
C553 H538 0.930 . S
C553 C548 1.390 . S
C553 C552 1.387 . S
H554 C566 0.930 . S
H555 C568 0.930 . S
H556 C569 0.930 . S
H557 C573 0.959 . S
H558 C573 0.959 . S
H559 C573 0.961 . S
H560 C574 0.960 . S
H561 C574 0.961 . S
H562 C574 0.959 . S
H563 C577 0.929 . S
H564 C578 0.931 . S
H565 C580 0.930 . S
C566 H554 0.930 . S
C566 C567 1.399 . S
C566 C571 1.399 . S
C567 C566 1.399 . S
C567 C568 1.376 . S
C568 H555 0.930 . S
C568 C567 1.376 . S
C568 C569 1.388 . S
C569 H556 0.930 . S
C569 C568 1.388 . S
C569 C570 1.390 . S
C570 C569 1.390 . S
C570 C571 1.394 . S
C570 C576 1.465 . S
C571 C566 1.399 . S
C571 C570 1.394 . S
C571 C572 1.516 . S
C572 C571 1.516 . S
C572 C573 1.502 . S
C572 C574 1.561 . S
C572 C575 1.526 . S
C573 H557 0.959 . S
C573 H558 0.959 . S
C573 H559 0.961 . S
C573 C572 1.502 . S
C574 H560 0.960 . S
C574 H561 0.961 . S
C574 H562 0.959 . S
C574 C572 1.561 . S
C575 C572 1.526 . S
C575 C576 1.396 . S
C575 C580 1.390 . S
C576 C570 1.465 . S
C576 C575 1.396 . S
C576 C577 1.399 . S
C577 H563 0.929 . S
C577 C576 1.399 . S
C577 C578 1.385 . S
C578 H564 0.931 . S
C578 C577 1.385 . S
C578 C579 1.389 . S
C579 C578 1.389 . S
C579 C580 1.387 . S
C580 H565 0.930 . S
C580 C575 1.390 . S
C580 C579 1.387 . S
H581 C593 0.930 . S
H582 C595 0.930 . S
H583 C596 0.930 . S
H584 C600 0.959 . S
H585 C600 0.959 . S
H586 C600 0.961 . S
H587 C601 0.960 . S
H588 C601 0.961 . S
H589 C601 0.959 . S
H590 C604 0.929 . S
H591 C605 0.931 . S
H592 C607 0.930 . S
C593 H581 0.930 . S
C593 C594 1.399 . S
C593 C598 1.399 . S
C594 C593 1.399 . S
C594 C595 1.376 . S
C595 H582 0.930 . S
C595 C594 1.376 . S
C595 C596 1.388 . S
C596 H583 0.930 . S
C596 C595 1.388 . S
C596 C597 1.390 . S
C597 C596 1.390 . S
C597 C598 1.394 . S
C597 C603 1.465 . S
C598 C593 1.399 . S
C598 C597 1.394 . S
C598 C599 1.516 . S
C599 C598 1.516 . S
C599 C600 1.502 . S
C599 C601 1.561 . S
C599 C602 1.526 . S
C600 H584 0.959 . S
C600 H585 0.959 . S
C600 H586 0.961 . S
C600 C599 1.502 . S
C601 H587 0.960 . S
C601 H588 0.961 . S
C601 H589 0.959 . S
C601 C599 1.561 . S
C602 C599 1.526 . S
C602 C603 1.396 . S
C602 C607 1.390 . S
C603 C597 1.465 . S
C603 C602 1.396 . S
C603 C604 1.399 . S
C604 H590 0.929 . S
C604 C603 1.399 . S
C604 C605 1.385 . S
C605 H591 0.931 . S
C605 C604 1.385 . S
C605 C606 1.389 . S
C606 C605 1.389 . S
C606 C607 1.387 . S
C607 H592 0.930 . S
C607 C602 1.390 . S
C607 C606 1.387 . S
H608 C620 0.930 . S
H609 C622 0.930 . S
H610 C623 0.930 . S
H611 C627 0.959 . S
H612 C627 0.959 . S
H613 C627 0.961 . S
H614 C628 0.960 . S
H615 C628 0.961 . S
H616 C628 0.959 . S
H617 C631 0.929 . S
H618 C632 0.931 . S
H619 C634 0.930 . S
C620 H608 0.930 . S
C620 C621 1.399 . S
C620 C625 1.399 . S
C621 C620 1.399 . S
C621 C622 1.376 . S
C622 H609 0.930 . S
C622 C621 1.376 . S
C622 C623 1.388 . S
C623 H610 0.930 . S
C623 C622 1.388 . S
C623 C624 1.390 . S
C624 C623 1.390 . S
C624 C625 1.394 . S
C624 C630 1.465 . S
C625 C620 1.399 . S
C625 C624 1.394 . S
C625 C626 1.516 . S
C626 C625 1.516 . S
C626 C627 1.502 . S
C626 C628 1.561 . S
C626 C629 1.526 . S
C627 H611 0.959 . S
C627 H612 0.959 . S
C627 H613 0.961 . S
C627 C626 1.502 . S
C628 H614 0.960 . S
C628 H615 0.961 . S
C628 H616 0.959 . S
C628 C626 1.561 . S
C629 C626 1.526 . S
C629 C630 1.396 . S
C629 C634 1.390 . S
C630 C624 1.465 . S
C630 C629 1.396 . S
C630 C631 1.399 . S
C631 H617 0.929 . S
C631 C630 1.399 . S
C631 C632 1.385 . S
C632 H618 0.931 . S
C632 C631 1.385 . S
C632 C633 1.389 . S
C633 C632 1.389 . S
C633 C634 1.387 . S
C634 H619 0.930 . S
C634 C629 1.390 . S
C634 C633 1.387 . S
H635 C647 0.930 . S
H636 C649 0.930 . S
H637 C650 0.930 . S
H638 C654 0.959 . S
H639 C654 0.959 . S
H640 C654 0.961 . S
H641 C655 0.960 . S
H642 C655 0.961 . S
H643 C655 0.959 . S
H644 C658 0.929 . S
H645 C659 0.931 . S
H646 C661 0.930 . S
C647 H635 0.930 . S
C647 C648 1.399 . S
C647 C652 1.399 . S
C648 C647 1.399 . S
C648 C649 1.376 . S
C649 H636 0.930 . S
C649 C648 1.376 . S
C649 C650 1.388 . S
C650 H637 0.930 . S
C650 C649 1.388 . S
C650 C651 1.390 . S
C651 C650 1.390 . S
C651 C652 1.394 . S
C651 C657 1.465 . S
C652 C647 1.399 . S
C652 C651 1.394 . S
C652 C653 1.516 . S
C653 C652 1.516 . S
C653 C654 1.502 . S
C653 C655 1.561 . S
C653 C656 1.526 . S
C654 H638 0.959 . S
C654 H639 0.959 . S
C654 H640 0.961 . S
C654 C653 1.502 . S
C655 H641 0.960 . S
C655 H642 0.961 . S
C655 H643 0.959 . S
C655 C653 1.561 . S
C656 C653 1.526 . S
C656 C657 1.396 . S
C656 C661 1.390 . S
C657 C651 1.465 . S
C657 C656 1.396 . S
C657 C658 1.399 . S
C658 H644 0.929 . S
C658 C657 1.399 . S
C658 C659 1.385 . S
C659 H645 0.931 . S
C659 C658 1.385 . S
C659 C660 1.389 . S
C660 C659 1.389 . S
C660 C661 1.387 . S
C661 H646 0.930 . S
C661 C656 1.390 . S
C661 C660 1.387 . S
H662 C674 0.930 . S
H663 C676 0.930 . S
H664 C677 0.930 . S
H665 C681 0.959 . S
H666 C681 0.959 . S
H667 C681 0.961 . S
H668 C682 0.960 . S
H669 C682 0.961 . S
H670 C682 0.959 . S
H671 C685 0.929 . S
H672 C686 0.931 . S
H673 C688 0.930 . S
C674 H662 0.930 . S
C674 C675 1.399 . S
C674 C679 1.399 . S
C675 C674 1.399 . S
C675 C676 1.376 . S
C676 H663 0.930 . S
C676 C675 1.376 . S
C676 C677 1.388 . S
C677 H664 0.930 . S
C677 C676 1.388 . S
C677 C678 1.390 . S
C678 C677 1.390 . S
C678 C679 1.394 . S
C678 C684 1.465 . S
C679 C674 1.399 . S
C679 C678 1.394 . S
C679 C680 1.516 . S
C680 C679 1.516 . S
C680 C681 1.502 . S
C680 C682 1.561 . S
C680 C683 1.526 . S
C681 H665 0.959 . S
C681 H666 0.959 . S
C681 H667 0.961 . S
C681 C680 1.502 . S
C682 H668 0.960 . S
C682 H669 0.961 . S
C682 H670 0.959 . S
C682 C680 1.561 . S
C683 C680 1.526 . S
C683 C684 1.396 . S
C683 C688 1.390 . S
C684 C678 1.465 . S
C684 C683 1.396 . S
C684 C685 1.399 . S
C685 H671 0.929 . S
C685 C684 1.399 . S
C685 C686 1.385 . S
C686 H672 0.931 . S
C686 C685 1.385 . S
C686 C687 1.389 . S
C687 C686 1.389 . S
C687 C688 1.387 . S
C688 H673 0.930 . S
C688 C683 1.390 . S
C688 C687 1.387 . S
H689 C701 0.930 . S
H690 C703 0.930 . S
H691 C704 0.930 . S
H692 C708 0.959 . S
H693 C708 0.959 . S
H694 C708 0.961 . S
H695 C709 0.960 . S
H696 C709 0.961 . S
H697 C709 0.959 . S
H698 C712 0.929 . S
H699 C713 0.931 . S
H700 C715 0.930 . S
C701 H689 0.930 . S
C701 C702 1.399 . S
C701 C706 1.399 . S
C702 C701 1.399 . S
C702 C703 1.376 . S
C703 H690 0.930 . S
C703 C702 1.376 . S
C703 C704 1.388 . S
C704 H691 0.930 . S
C704 C703 1.388 . S
C704 C705 1.390 . S
C705 C704 1.390 . S
C705 C706 1.394 . S
C705 C711 1.465 . S
C706 C701 1.399 . S
C706 C705 1.394 . S
C706 C707 1.516 . S
C707 C706 1.516 . S
C707 C708 1.502 . S
C707 C709 1.561 . S
C707 C710 1.526 . S
C708 H692 0.959 . S
C708 H693 0.959 . S
C708 H694 0.961 . S
C708 C707 1.502 . S
C709 H695 0.960 . S
C709 H696 0.961 . S
C709 H697 0.959 . S
C709 C707 1.561 . S
C710 C707 1.526 . S
C710 C711 1.396 . S
C710 C715 1.390 . S
C711 C705 1.465 . S
C711 C710 1.396 . S
C711 C712 1.399 . S
C712 H698 0.929 . S
C712 C711 1.399 . S
C712 C713 1.385 . S
C713 H699 0.931 . S
C713 C712 1.385 . S
C713 C714 1.389 . S
C714 C713 1.389 . S
C714 C715 1.387 . S
C715 H700 0.930 . S
C715 C710 1.390 . S
C715 C714 1.387 . S
H716 C728 0.930 . S
H717 C730 0.930 . S
H718 C731 0.930 . S
H719 C735 0.959 . S
H720 C735 0.959 . S
H721 C735 0.961 . S
H722 C736 0.960 . S
H723 C736 0.961 . S
H724 C736 0.959 . S
H725 C739 0.929 . S
H726 C740 0.931 1_545 S
H727 C742 0.930 . S
C728 H716 0.930 . S
C728 C729 1.399 . S
C728 C733 1.399 . S
C729 C728 1.399 . S
C729 C730 1.376 . S
C730 H717 0.930 . S
C730 C729 1.376 . S
C730 C731 1.388 . S
C731 H718 0.930 . S
C731 C730 1.388 . S
C731 C732 1.390 . S
C732 C731 1.390 . S
C732 C733 1.394 . S
C732 C738 1.465 . S
C733 C728 1.399 . S
C733 C732 1.394 . S
C733 C734 1.516 . S
C734 C733 1.516 . S
C734 C735 1.502 . S
C734 C736 1.561 . S
C734 C737 1.526 . S
C735 H719 0.959 . S
C735 H720 0.959 . S
C735 H721 0.961 . S
C735 C734 1.502 . S
C736 H722 0.960 . S
C736 H723 0.961 . S
C736 H724 0.959 . S
C736 C734 1.561 . S
C737 C734 1.526 . S
C737 C738 1.396 . S
C737 C742 1.390 . S
C738 C732 1.465 . S
C738 C737 1.396 . S
C738 C739 1.399 . S
C739 H725 0.929 . S
C739 C738 1.399 . S
C739 C740 1.385 . S
C740 H726 0.931 1_565 S
C740 C739 1.385 . S
C740 C741 1.389 . S
C741 C740 1.389 . S
C741 C742 1.387 . S
C742 H727 0.930 . S
C742 C737 1.390 . S
C742 C741 1.387 . S
H743 C755 0.930 . S
H744 C757 0.930 . S
H745 C758 0.930 . S
H746 C762 0.959 . S
H747 C762 0.959 . S
H748 C762 0.961 . S
H749 C763 0.960 . S
H750 C763 0.961 . S
H751 C763 0.959 . S
H752 C766 0.929 . S
H753 C767 0.931 . S
H754 C769 0.930 . S
C755 H743 0.930 . S
C755 C756 1.399 . S
C755 C760 1.399 . S
C756 C755 1.399 . S
C756 C757 1.376 . S
C757 H744 0.930 . S
C757 C756 1.376 . S
C757 C758 1.388 . S
C758 H745 0.930 . S
C758 C757 1.388 . S
C758 C759 1.390 . S
C759 C758 1.390 . S
C759 C760 1.394 . S
C759 C765 1.465 . S
C760 C755 1.399 . S
C760 C759 1.394 . S
C760 C761 1.516 . S
C761 C760 1.516 . S
C761 C762 1.502 . S
C761 C763 1.561 . S
C761 C764 1.526 . S
C762 H746 0.959 . S
C762 H747 0.959 . S
C762 H748 0.961 . S
C762 C761 1.502 . S
C763 H749 0.960 . S
C763 H750 0.961 . S
C763 H751 0.959 . S
C763 C761 1.561 . S
C764 C761 1.526 . S
C764 C765 1.396 . S
C764 C769 1.390 . S
C765 C759 1.465 . S
C765 C764 1.396 . S
C765 C766 1.399 . S
C766 H752 0.929 . S
C766 C765 1.399 . S
C766 C767 1.385 . S
C767 H753 0.931 . S
C767 C766 1.385 . S
C767 C768 1.389 . S
C768 C767 1.389 . S
C768 C769 1.387 . S
C769 H754 0.930 . S
C769 C764 1.390 . S
C769 C768 1.387 . S
H770 C782 0.930 . S
H771 C784 0.930 . S
H772 C785 0.930 . S
H773 C789 0.959 . S
H774 C789 0.959 . S
H775 C789 0.961 . S
H776 C790 0.960 . S
H777 C790 0.961 . S
H778 C790 0.959 . S
H779 C793 0.929 . S
H780 C794 0.931 . S
H781 C796 0.930 . S
C782 H770 0.930 . S
C782 C783 1.399 . S
C782 C787 1.399 . S
C783 C782 1.399 . S
C783 C784 1.376 . S
C784 H771 0.930 . S
C784 C783 1.376 . S
C784 C785 1.388 . S
C785 H772 0.930 . S
C785 C784 1.388 . S
C785 C786 1.390 . S
C786 C785 1.390 . S
C786 C787 1.394 . S
C786 C792 1.465 . S
C787 C782 1.399 . S
C787 C786 1.394 . S
C787 C788 1.516 . S
C788 C787 1.516 . S
C788 C789 1.502 . S
C788 C790 1.561 . S
C788 C791 1.526 . S
C789 H773 0.959 . S
C789 H774 0.959 . S
C789 H775 0.961 . S
C789 C788 1.502 . S
C790 H776 0.960 . S
C790 H777 0.961 . S
C790 H778 0.959 . S
C790 C788 1.561 . S
C791 C788 1.526 . S
C791 C792 1.396 . S
C791 C796 1.390 . S
C792 C786 1.465 . S
C792 C791 1.396 . S
C792 C793 1.399 . S
C793 H779 0.929 . S
C793 C792 1.399 . S
C793 C794 1.385 . S
C794 H780 0.931 . S
C794 C793 1.385 . S
C794 C795 1.389 . S
C795 C794 1.389 . S
C795 C796 1.387 . S
C796 H781 0.930 . S
C796 C791 1.390 . S
C796 C795 1.387 . S
H797 C809 0.930 . S
H798 C811 0.930 . S
H799 C812 0.930 . S
H800 C816 0.959 . S
H801 C816 0.959 . S
H802 C816 0.961 . S
H803 C817 0.960 . S
H804 C817 0.961 . S
H805 C817 0.959 . S
H806 C820 0.929 . S
H807 C821 0.931 . S
H808 C823 0.930 . S
C809 H797 0.930 . S
C809 C810 1.399 . S
C809 C814 1.399 . S
C810 C809 1.399 . S
C810 C811 1.376 . S
C811 H798 0.930 . S
C811 C810 1.376 . S
C811 C812 1.388 . S
C812 H799 0.930 . S
C812 C811 1.388 . S
C812 C813 1.390 . S
C813 C812 1.390 . S
C813 C814 1.394 . S
C813 C819 1.465 . S
C814 C809 1.399 . S
C814 C813 1.394 . S
C814 C815 1.516 . S
C815 C814 1.516 . S
C815 C816 1.502 . S
C815 C817 1.561 . S
C815 C818 1.526 . S
C816 H800 0.959 . S
C816 H801 0.959 . S
C816 H802 0.961 . S
C816 C815 1.502 . S
C817 H803 0.960 . S
C817 H804 0.961 . S
C817 H805 0.959 . S
C817 C815 1.561 . S
C818 C815 1.526 . S
C818 C819 1.396 . S
C818 C823 1.390 . S
C819 C813 1.465 . S
C819 C818 1.396 . S
C819 C820 1.399 . S
C820 H806 0.929 . S
C820 C819 1.399 . S
C820 C821 1.385 . S
C821 H807 0.931 . S
C821 C820 1.385 . S
C821 C822 1.389 . S
C822 C821 1.389 . S
C822 C823 1.387 . S
C823 H808 0.930 . S
C823 C818 1.390 . S
C823 C822 1.387 . S
H824 C836 0.930 . S
H825 C838 0.930 . S
H826 C839 0.930 . S
H827 C843 0.959 . S
H828 C843 0.959 . S
H829 C843 0.961 . S
H830 C844 0.960 . S
H831 C844 0.961 . S
H832 C844 0.959 . S
H833 C847 0.929 . S
H834 C848 0.931 . S
H835 C850 0.930 . S
C836 H824 0.930 . S
C836 C837 1.399 . S
C836 C841 1.399 . S
C837 C836 1.399 . S
C837 C838 1.376 . S
C838 H825 0.930 . S
C838 C837 1.376 . S
C838 C839 1.388 . S
C839 H826 0.930 . S
C839 C838 1.388 . S
C839 C840 1.390 . S
C840 C839 1.390 . S
C840 C841 1.394 . S
C840 C846 1.465 . S
C841 C836 1.399 . S
C841 C840 1.394 . S
C841 C842 1.516 . S
C842 C841 1.516 . S
C842 C843 1.502 . S
C842 C844 1.561 . S
C842 C845 1.526 . S
C843 H827 0.959 . S
C843 H828 0.959 . S
C843 H829 0.961 . S
C843 C842 1.502 . S
C844 H830 0.960 . S
C844 H831 0.961 . S
C844 H832 0.959 . S
C844 C842 1.561 . S
C845 C842 1.526 . S
C845 C846 1.396 . S
C845 C850 1.390 . S
C846 C840 1.465 . S
C846 C845 1.396 . S
C846 C847 1.399 . S
C847 H833 0.929 . S
C847 C846 1.399 . S
C847 C848 1.385 . S
C848 H834 0.931 . S
C848 C847 1.385 . S
C848 C849 1.389 . S
C849 C848 1.389 . S
C849 C850 1.387 . S
C850 H835 0.930 . S
C850 C845 1.390 . S
C850 C849 1.387 . S
H851 C863 0.930 . S
H852 C865 0.930 . S
H853 C866 0.930 . S
H854 C870 0.959 . S
H855 C870 0.959 . S
H856 C870 0.961 . S
H857 C871 0.960 . S
H858 C871 0.961 1_565 S
H859 C871 0.959 . S
H860 C874 0.929 . S
H861 C875 0.931 . S
H862 C877 0.930 . S
C863 H851 0.930 . S
C863 C864 1.399 . S
C863 C868 1.399 . S
C864 C863 1.399 . S
C864 C865 1.376 . S
C865 H852 0.930 . S
C865 C864 1.376 . S
C865 C866 1.388 . S
C866 H853 0.930 . S
C866 C865 1.388 . S
C866 C867 1.390 . S
C867 C866 1.390 . S
C867 C868 1.394 . S
C867 C873 1.465 . S
C868 C863 1.399 . S
C868 C867 1.394 . S
C868 C869 1.516 . S
C869 C868 1.516 . S
C869 C870 1.502 . S
C869 C871 1.561 . S
C869 C872 1.526 . S
C870 H854 0.959 . S
C870 H855 0.959 . S
C870 H856 0.961 . S
C870 C869 1.502 . S
C871 H857 0.960 . S
C871 H858 0.961 1_545 S
C871 H859 0.959 . S
C871 C869 1.561 . S
C872 C869 1.526 . S
C872 C873 1.396 . S
C872 C877 1.390 . S
C873 C867 1.465 . S
C873 C872 1.396 . S
C873 C874 1.399 . S
C874 H860 0.929 . S
C874 C873 1.399 . S
C874 C875 1.385 . S
C875 H861 0.931 . S
C875 C874 1.385 . S
C875 C876 1.389 . S
C876 C875 1.389 . S
C876 C877 1.387 . S
C877 H862 0.930 . S
C877 C872 1.390 . S
C877 C876 1.387 . S
H878 C890 0.930 . S
H879 C892 0.930 . S
H880 C893 0.930 . S
H881 C897 0.959 . S
H882 C897 0.959 . S
H883 C897 0.961 . S
H884 C898 0.960 . S
H885 C898 0.961 . S
H886 C898 0.959 . S
H887 C901 0.929 . S
H888 C902 0.931 . S
H889 C904 0.930 . S
C890 H878 0.930 . S
C890 C891 1.399 . S
C890 C895 1.399 . S
C891 C890 1.399 . S
C891 C892 1.376 . S
C892 H879 0.930 . S
C892 C891 1.376 . S
C892 C893 1.388 . S
C893 H880 0.930 . S
C893 C892 1.388 . S
C893 C894 1.390 . S
C894 C893 1.390 . S
C894 C895 1.394 . S
C894 C900 1.465 . S
C895 C890 1.399 . S
C895 C894 1.394 . S
C895 C896 1.516 . S
C896 C895 1.516 . S
C896 C897 1.502 . S
C896 C898 1.561 . S
C896 C899 1.526 . S
C897 H881 0.959 . S
C897 H882 0.959 . S
C897 H883 0.961 . S
C897 C896 1.502 . S
C898 H884 0.960 . S
C898 H885 0.961 . S
C898 H886 0.959 . S
C898 C896 1.561 . S
C899 C896 1.526 . S
C899 C900 1.396 . S
C899 C904 1.390 . S
C900 C894 1.465 . S
C900 C899 1.396 . S
C900 C901 1.399 . S
C901 H887 0.929 . S
C901 C900 1.399 . S
C901 C902 1.385 . S
C902 H888 0.931 . S
C902 C901 1.385 . S
C902 C903 1.389 . S
C903 C902 1.389 . S
C903 C904 1.387 . S
C904 H889 0.930 . S
C904 C899 1.390 . S
C904 C903 1.387 . S
H905 C917 0.930 . S
H906 C919 0.930 . S
H907 C920 0.930 . S
H908 C924 0.959 . S
H909 C924 0.959 . S
H910 C924 0.961 . S
H911 C925 0.960 . S
H912 C925 0.961 . S
H913 C925 0.959 . S
H914 C928 0.929 . S
H915 C929 0.931 . S
H916 C931 0.930 . S
C917 H905 0.930 . S
C917 C918 1.399 . S
C917 C922 1.399 . S
C918 C917 1.399 . S
C918 C919 1.376 . S
C919 H906 0.930 . S
C919 C918 1.376 . S
C919 C920 1.388 . S
C920 H907 0.930 . S
C920 C919 1.388 . S
C920 C921 1.390 . S
C921 C920 1.390 . S
C921 C922 1.394 . S
C921 C927 1.465 . S
C922 C917 1.399 . S
C922 C921 1.394 . S
C922 C923 1.516 . S
C923 C922 1.516 . S
C923 C924 1.502 . S
C923 C925 1.561 . S
C923 C926 1.526 . S
C924 H908 0.959 . S
C924 H909 0.959 . S
C924 H910 0.961 . S
C924 C923 1.502 . S
C925 H911 0.960 . S
C925 H912 0.961 . S
C925 H913 0.959 . S
C925 C923 1.561 . S
C926 C923 1.526 . S
C926 C927 1.396 . S
C926 C931 1.390 . S
C927 C921 1.465 . S
C927 C926 1.396 . S
C927 C928 1.399 . S
C928 H914 0.929 . S
C928 C927 1.399 . S
C928 C929 1.385 . S
C929 H915 0.931 . S
C929 C928 1.385 . S
C929 C930 1.389 . S
C930 C929 1.389 . S
C930 C931 1.387 . S
C931 H916 0.930 . S
C931 C926 1.390 . S
C931 C930 1.387 . S
H932 C944 0.930 . S
H933 C946 0.930 . S
H934 C947 0.930 . S
H935 C951 0.959 . S
H936 C951 0.959 . S
H937 C951 0.961 . S
H938 C952 0.960 . S
H939 C952 0.961 . S
H940 C952 0.959 . S
H941 C955 0.929 . S
H942 C956 0.931 . S
H943 C958 0.930 . S
C944 H932 0.930 . S
C944 C945 1.399 . S
C944 C949 1.399 . S
C945 C944 1.399 . S
C945 C946 1.376 . S
C946 H933 0.930 . S
C946 C945 1.376 . S
C946 C947 1.388 . S
C947 H934 0.930 . S
C947 C946 1.388 . S
C947 C948 1.390 . S
C948 C947 1.390 . S
C948 C949 1.394 . S
C948 C954 1.465 . S
C949 C944 1.399 . S
C949 C948 1.394 . S
C949 C950 1.516 . S
C950 C949 1.516 . S
C950 C951 1.502 . S
C950 C952 1.561 . S
C950 C953 1.526 . S
C951 H935 0.959 . S
C951 H936 0.959 . S
C951 H937 0.961 . S
C951 C950 1.502 . S
C952 H938 0.960 . S
C952 H939 0.961 . S
C952 H940 0.959 . S
C952 C950 1.561 . S
C953 C950 1.526 . S
C953 C954 1.396 . S
C953 C958 1.390 . S
C954 C948 1.465 . S
C954 C953 1.396 . S
C954 C955 1.399 . S
C955 H941 0.929 . S
C955 C954 1.399 . S
C955 C956 1.385 . S
C956 H942 0.931 . S
C956 C955 1.385 . S
C956 C957 1.389 . S
C957 C956 1.389 . S
C957 C958 1.387 . S
C958 H943 0.930 . S
C958 C953 1.390 . S
C958 C957 1.387 . S
H959 C971 0.930 . S
H960 C973 0.930 . S
H961 C974 0.930 . S
H962 C978 0.959 . S
H963 C978 0.959 . S
H964 C978 0.961 . S
H965 C979 0.960 . S
H966 C979 0.961 . S
H967 C979 0.959 . S
H968 C982 0.929 . S
H969 C983 0.931 . S
H970 C985 0.930 . S
C971 H959 0.930 . S
C971 C972 1.399 . S
C971 C976 1.399 . S
C972 C971 1.399 . S
C972 C973 1.376 . S
C973 H960 0.930 . S
C973 C972 1.376 . S
C973 C974 1.388 . S
C974 H961 0.930 . S
C974 C973 1.388 . S
C974 C975 1.390 . S
C975 C974 1.390 . S
C975 C976 1.394 . S
C975 C981 1.465 . S
C976 C971 1.399 . S
C976 C975 1.394 . S
C976 C977 1.516 . S
C977 C976 1.516 . S
C977 C978 1.502 . S
C977 C979 1.561 . S
C977 C980 1.526 . S
C978 H962 0.959 . S
C978 H963 0.959 . S
C978 H964 0.961 . S
C978 C977 1.502 . S
C979 H965 0.960 . S
C979 H966 0.961 . S
C979 H967 0.959 . S
C979 C977 1.561 . S
C980 C977 1.526 . S
C980 C981 1.396 . S
C980 C985 1.390 . S
C981 C975 1.465 . S
C981 C980 1.396 . S
C981 C982 1.399 . S
C982 H968 0.929 . S
C982 C981 1.399 . S
C982 C983 1.385 . S
C983 H969 0.931 . S
C983 C982 1.385 . S
C983 C984 1.389 . S
C984 C983 1.389 . S
C984 C985 1.387 . S
C985 H970 0.930 . S
C985 C980 1.390 . S
C985 C984 1.387 . S
H986 C998 0.930 . S
H987 C1000 0.930 . S
H988 C1001 0.930 . S
H989 C1005 0.959 . S
H990 C1005 0.959 . S
H991 C1005 0.961 . S
H992 C1006 0.960 . S
H993 C1006 0.961 . S
H994 C1006 0.959 . S
H995 C1009 0.929 . S
H996 C1010 0.931 . S
H997 C1012 0.930 . S
C998 H986 0.930 . S
C998 C999 1.399 . S
C998 C1003 1.399 . S
C999 C998 1.399 . S
C999 C1000 1.376 . S
C1000 H987 0.930 . S
C1000 C999 1.376 . S
C1000 C1001 1.388 . S
C1001 H988 0.930 . S
C1001 C1000 1.388 . S
C1001 C1002 1.390 . S
C1002 C1001 1.390 . S
C1002 C1003 1.394 . S
C1002 C1008 1.465 . S
C1003 C998 1.399 . S
C1003 C1002 1.394 . S
C1003 C1004 1.516 . S
C1004 C1003 1.516 . S
C1004 C1005 1.502 . S
C1004 C1006 1.561 . S
C1004 C1007 1.526 . S
C1005 H989 0.959 . S
C1005 H990 0.959 . S
C1005 H991 0.961 . S
C1005 C1004 1.502 . S
C1006 H992 0.960 . S
C1006 H993 0.961 . S
C1006 H994 0.959 . S
C1006 C1004 1.561 . S
C1007 C1004 1.526 . S
C1007 C1008 1.396 . S
C1007 C1012 1.390 . S
C1008 C1002 1.465 . S
C1008 C1007 1.396 . S
C1008 C1009 1.399 . S
C1009 H995 0.929 . S
C1009 C1008 1.399 . S
C1009 C1010 1.385 . S
C1010 H996 0.931 . S
C1010 C1009 1.385 . S
C1010 C1011 1.389 . S
C1011 C1010 1.389 . S
C1011 C1012 1.387 . S
C1012 H997 0.930 . S
C1012 C1007 1.390 . S
C1012 C1011 1.387 . S
H1013 C1025 0.930 . S
H1014 C1027 0.930 . S
H1015 C1028 0.930 . S
H1016 C1032 0.959 . S
H1017 C1032 0.959 . S
H1018 C1032 0.961 . S
H1019 C1033 0.960 . S
H1020 C1033 0.961 . S
H1021 C1033 0.959 . S
H1022 C1036 0.929 . S
H1023 C1037 0.931 . S
H1024 C1039 0.930 . S
C1025 H1013 0.930 . S
C1025 C1026 1.399 . S
C1025 C1030 1.399 . S
C1026 C1025 1.399 . S
C1026 C1027 1.376 . S
C1027 H1014 0.930 . S
C1027 C1026 1.376 . S
C1027 C1028 1.388 . S
C1028 H1015 0.930 . S
C1028 C1027 1.388 . S
C1028 C1029 1.390 . S
C1029 C1028 1.390 . S
C1029 C1030 1.394 . S
C1029 C1035 1.465 . S
C1030 C1025 1.399 . S
C1030 C1029 1.394 . S
C1030 C1031 1.516 . S
C1031 C1030 1.516 . S
C1031 C1032 1.502 . S
C1031 C1033 1.561 . S
C1031 C1034 1.526 . S
C1032 H1016 0.959 . S
C1032 H1017 0.959 . S
C1032 H1018 0.961 . S
C1032 C1031 1.502 . S
C1033 H1019 0.960 . S
C1033 H1020 0.961 . S
C1033 H1021 0.959 . S
C1033 C1031 1.561 . S
C1034 C1031 1.526 . S
C1034 C1035 1.396 . S
C1034 C1039 1.390 . S
C1035 C1029 1.465 . S
C1035 C1034 1.396 . S
C1035 C1036 1.399 . S
C1036 H1022 0.929 . S
C1036 C1035 1.399 . S
C1036 C1037 1.385 . S
C1037 H1023 0.931 . S
C1037 C1036 1.385 . S
C1037 C1038 1.389 . S
C1038 C1037 1.389 . S
C1038 C1039 1.387 . S
C1039 H1024 0.930 . S
C1039 C1034 1.390 . S
C1039 C1038 1.387 . S
C405 C1 1.542 . S
C417 C331 1.459 . S
C432 C40 1.293 . S
C444 C334 1.280 . S
C471 C370 1.758 . S
C459 C99 1.777 . S
C486 C118 1.647 . S
C498 C390 1.652 . S
C525 C344 1.673 . S
C513 C16 1.736 . S
C552 C321 1.525 . S
C540 C60 1.527 . S
C579 C374 1.505 . S
C567 C79 1.689 . S
C606 C354 1.346 . S
C594 C138 1.457 . S
C621 C21 1.365 . S
C633 C384 1.318 . S
C660 C350 1.639 . S
C648 C94 1.642 . S
C675 C133 1.620 . S
C687 C316 1.573 . S
C702 C55 1.334 . S
C714 C364 1.331 . S
C741 C330 1.520 . S
C729 C157 1.528 . S
C756 C196 1.300 . S
C768 C336 1.234 . S
C783 C255 1.761 . S
C795 C371 1.734 . S
C810 C289 1.663 . S
C822 C391 1.635 . S
C837 C172 1.735 . S
C849 C341 1.692 . S
C876 C324 1.505 . S
C864 C216 1.533 . S
C903 C376 1.515 . S
C891 C235 1.680 . S
C930 C356 1.420 . S
C918 C294 1.443 . S
C945 C177 1.350 . S
C957 C381 1.334 . S
C984 C351 1.625 . S
C972 C250 1.639 . S
C1011 C314 1.582 . S
C999 C274 1.624 . S
C1026 C211 1.329 . S
C1038 C361 1.327 . S
