# Generated by pormake.
# Topology anh, (6,3)-cn, num edge types: 1
# Building blocks:
#     Node 0, Type 0, BuildingBlock: MIFKUJ_clean_sbu_0, # of connection points: 6
#     Node 1, Type 0, BuildingBlock: MIFKUJ_clean_sbu_0, # of connection points: 6
#     Node 2, Type 0, BuildingBlock: MIFKUJ_clean_sbu_0, # of connection points: 6
#     Node 3, Type 1, BuildingBlock: BELTOD_clean_linker_0, # of connection points: 3
#     Node 4, Type 1, BuildingBlock: BELTOD_clean_linker_0, # of connection points: 3
#     Node 5, Type 1, BuildingBlock: BELTOD_clean_linker_0, # of connection points: 3
#     Node 6, Type 1, BuildingBlock: BELTOD_clean_linker_0, # of connection points: 3
#     Node 7, Type 1, BuildingBlock: BELTOD_clean_linker_0, # of connection points: 3
#     Node 8, Type 1, BuildingBlock: BELTOD_clean_linker_0, # of connection points: 3
#     Edge 9, Type (0, 1), BuildingBlock: TEMPAE_clean_linker_10, # of connection points: 2
#     Edge 10, Type (0, 1), BuildingBlock: TEMPAE_clean_linker_10, # of connection points: 2
#     Edge 11, Type (0, 1), BuildingBlock: TEMPAE_clean_linker_10, # of connection points: 2
#     Edge 12, Type (0, 1), BuildingBlock: TEMPAE_clean_linker_10, # of connection points: 2
#     Edge 13, Type (0, 1), BuildingBlock: TEMPAE_clean_linker_10, # of connection points: 2
#     Edge 14, Type (0, 1), BuildingBlock: TEMPAE_clean_linker_10, # of connection points: 2
#     Edge 15, Type (0, 1), BuildingBlock: TEMPAE_clean_linker_10, # of connection points: 2
#     Edge 16, Type (0, 1), BuildingBlock: TEMPAE_clean_linker_10, # of connection points: 2
#     Edge 17, Type (0, 1), BuildingBlock: TEMPAE_clean_linker_10, # of connection points: 2
#     Edge 18, Type (0, 1), BuildingBlock: TEMPAE_clean_linker_10, # of connection points: 2
#     Edge 19, Type (0, 1), BuildingBlock: TEMPAE_clean_linker_10, # of connection points: 2
#     Edge 20, Type (0, 1), BuildingBlock: TEMPAE_clean_linker_10, # of connection points: 2
#     Edge 21, Type (0, 1), BuildingBlock: TEMPAE_clean_linker_10, # of connection points: 2
#     Edge 22, Type (0, 1), BuildingBlock: TEMPAE_clean_linker_10, # of connection points: 2
#     Edge 23, Type (0, 1), BuildingBlock: TEMPAE_clean_linker_10, # of connection points: 2
#     Edge 24, Type (0, 1), BuildingBlock: TEMPAE_clean_linker_10, # of connection points: 2
#     Edge 25, Type (0, 1), BuildingBlock: TEMPAE_clean_linker_10, # of connection points: 2
#     Edge 26, Type (0, 1), BuildingBlock: TEMPAE_clean_linker_10, # of connection points: 2
# Relax obj value: 0.123
# Max RMSD: 0.177
# Mean RMSD: 0.136
data_MOF--net-anh--node1-MIFKUJ_clean_sbu_0--node2-BELTOD_clean_linker_0--edge1-TEMPAE_clean_linker_10
_symmetry_space_group_name_H-M    P1
_symmetry_Int_Tables_number       1
_symmetry_cell_setting            triclinic
loop_
_symmetry_equiv_pos_as_xyz
'x, y, z'
_cell_length_a     35.053816
_cell_length_b     34.992915
_cell_length_c     58.710828
_cell_angle_alpha  94.013513
_cell_angle_beta   90.710124
_cell_angle_gamma 120.07869
loop_
_atom_site_label
_atom_site_type_symbol
_atom_site_fract_x
_atom_site_fract_y
_atom_site_fract_z
_atom_type_partial_charge
Zn0 Zn 0.02571 0.60004 0.17108 0.0
Zn1 Zn 0.92242 0.50487 0.1647 0.0
C2 C 0.08164 0.56481 0.17693 0.0
O3 O 0.08677 0.5862 0.19707 0.0
C4 C 0.85475 0.5198 0.14663 0.0
O5 O 0.86274 0.50324 0.12772 0.0
O6 O 0.07841 0.66143 0.1722 0.0
O7 O 0.98342 0.59506 0.14619 0.0
O8 O 0.95883 0.52457 0.13687 0.0
C9 C 0.10055 0.67049 0.15438 0.0
O10 O 0.08502 0.64174 0.13626 0.0
O11 O 0.05338 0.56264 0.16229 0.0
C12 C 0.85449 0.42072 0.17429 0.0
O13 O 0.84917 0.44652 0.1897 0.0
O14 O 0.88538 0.43836 0.16064 0.0
O15 O 0.95117 0.51825 0.19661 0.0
O16 O 0.00451 0.58843 0.20274 0.0
O17 O 0.87801 0.52592 0.16478 0.0
C18 C 0.97399 0.56364 0.13098 0.0
C19 C 0.97848 0.55118 0.2101 0.0
Zn20 Zn 0.53095 0.04362 0.4928 0.0
Zn21 Zn 0.54297 0.9601 0.49611 0.0
C22 C 0.61401 0.12169 0.50607 0.0
O23 O 0.58822 0.12777 0.52009 0.0
C24 C 0.45996 0.88599 0.47988 0.0
O25 O 0.48714 0.88106 0.46641 0.0
O26 O 0.50914 0.08639 0.49057 0.0
O27 O 0.51144 0.00406 0.46311 0.0
O28 O 0.56411 0.98798 0.46685 0.0
C29 C 0.52235 0.11116 0.47419 0.0
O30 O 0.54281 0.10241 0.45782 0.0
O31 O 0.59774 0.08537 0.49337 0.0
C32 C 0.54902 0.88829 0.51217 0.0
O33 O 0.51612 0.88498 0.52404 0.0
O34 O 0.56691 0.91897 0.49882 0.0
O35 O 0.56449 1.00009 0.52514 0.0
O36 O 0.51289 0.01803 0.52349 0.0
O37 O 0.47569 0.92013 0.49418 0.0
C38 C 0.53887 0.99465 0.45414 0.0
C39 C 0.53952 0.01153 0.53519 0.0
Zn40 Zn 0.54891 0.5045 0.83671 0.0
Zn41 Zn 0.45587 0.50232 0.82722 0.0
C42 C 0.54797 0.42466 0.84519 0.0
O43 O 0.57822 0.45287 0.86067 0.0
C44 C 0.48944 0.58874 0.81416 0.0
O45 O 0.46622 0.56388 0.79573 0.0
O46 O 0.61479 0.5349 0.84178 0.0
O47 O 0.54039 0.52556 0.80699 0.0
O48 O 0.46992 0.47953 0.79793 0.0
C49 C 0.63706 0.5309 0.82582 0.0
O50 O 0.61635 0.50781 0.80653 0.0
O51 O 0.52815 0.43835 0.83266 0.0
C52 C 0.3895 0.51543 0.84165 0.0
O53 O 0.42067 0.53432 0.85813 0.0
O54 O 0.39489 0.49448 0.82457 0.0
O55 O 0.45601 0.47384 0.85584 0.0
O56 O 0.52637 0.51789 0.86584 0.0
O57 O 0.49375 0.56989 0.83102 0.0
C58 C 0.50934 0.50232 0.79195 0.0
C59 C 0.48697 0.49304 0.87127 0.0
P60 P 0.5729 0.95176 0.20562 0.0
H61 H 0.52565 0.95016 0.16316 0.0
H62 H 0.44731 0.90734 0.1501 0.0
H63 H 0.41687 0.84258 0.21278 0.0
H64 H 0.49438 0.88506 0.22566 0.0
H65 H 0.66468 0.99983 0.19377 0.0
H66 H 0.71205 0.07492 0.18287 0.0
H67 H 0.6006 0.0959 0.18286 0.0
H68 H 0.55321 0.02031 0.19322 0.0
H69 H 0.58667 0.90864 0.24335 0.0
H70 H 0.56078 0.01527 0.23519 0.0
O71 O 0.59452 0.91972 0.19888 0.0
H72 H 0.58179 0.9175 0.28476 0.0
H73 H 0.55614 0.02439 0.27645 0.0
C74 C 0.51568 0.92187 0.19571 0.0
C75 C 0.50198 0.92722 0.1742 0.0
C76 C 0.45731 0.90271 0.16673 0.0
C77 C 0.42606 0.87174 0.18046 0.0
C78 C 0.44022 0.86599 0.20177 0.0
C79 C 0.48457 0.89064 0.20924 0.0
C80 C 0.60528 0.00422 0.19391 0.0
C81 C 0.6502 0.02021 0.19088 0.0
C82 C 0.67736 0.06331 0.18487 0.0
C83 C 0.66015 0.09147 0.18207 0.0
C84 C 0.61477 0.07488 0.18454 0.0
C85 C 0.58762 0.03166 0.1905 0.0
C86 C 0.57509 0.96195 0.23622 0.0
C87 C 0.58076 0.93448 0.25047 0.0
C88 C 0.57756 0.93928 0.27409 0.0
C89 C 0.56866 0.97169 0.2838 0.0
C90 C 0.56364 0.99956 0.26947 0.0
C91 C 0.56644 0.99444 0.24587 0.0
P92 P 0.67414 0.56205 0.56157 0.0
H93 H 0.71285 0.52677 0.52856 0.0
H94 H 0.68362 0.45428 0.50707 0.0
H95 H 0.55556 0.41231 0.53387 0.0
H96 H 0.58483 0.4849 0.55504 0.0
H97 H 0.72758 0.65819 0.5636 0.0
H98 H 0.71322 0.71478 0.55071 0.0
H99 H 0.58683 0.61208 0.52014 0.0
H100 H 0.60254 0.55582 0.53215 0.0
H101 H 0.69359 0.53359 0.6035 0.0
H102 H 0.59702 0.56497 0.57876 0.0
O103 O 0.72818 0.58197 0.56628 0.0
H104 H 0.65883 0.51812 0.64017 0.0
H105 H 0.56161 0.54869 0.61505 0.0
C106 C 0.65123 0.5108 0.54374 0.0
C107 C 0.67841 0.50208 0.52964 0.0
C108 C 0.66171 0.46066 0.51742 0.0
C109 C 0.61742 0.42748 0.51898 0.0
C110 C 0.58974 0.43725 0.53222 0.0
C111 C 0.60654 0.47863 0.54448 0.0
C112 C 0.66638 0.60286 0.54859 0.0
C113 C 0.6973 0.64789 0.5536 0.0
C114 C 0.68878 0.68023 0.54645 0.0
C115 C 0.64865 0.66806 0.53457 0.0
C116 C 0.61833 0.62273 0.52896 0.0
C117 C 0.62721 0.59043 0.53587 0.0
C118 C 0.64864 0.55151 0.5886 0.0
C119 C 0.66502 0.5373 0.60598 0.0
C120 C 0.64481 0.52801 0.62684 0.0
C121 C 0.60751 0.53234 0.63056 0.0
C122 C 0.59072 0.54578 0.61288 0.0
C123 C 0.61102 0.55513 0.59207 0.0
P124 P 0.09235 0.67588 0.89557 0.0
H125 H 0.17341 0.70588 0.8712 0.0
H126 H 0.21117 0.66801 0.85604 0.0
H127 H 0.1044 0.54355 0.87534 0.0
H128 H 0.06797 0.58236 0.89155 0.0
H129 H 0.03869 0.71725 0.89896 0.0
H130 H 0.966 0.69653 0.88218 0.0
H131 H 0.96296 0.58681 0.84187 0.0
H132 H 0.0355 0.60762 0.85868 0.0
H133 H 0.14072 0.71259 0.93994 0.0
H134 H 0.01465 0.60305 0.91387 0.0
O135 O 0.1274 0.73044 0.89689 0.0
H136 H 0.12146 0.69218 0.97893 0.0
H137 H 0.99552 0.58188 0.95265 0.0
C138 C 0.11815 0.64701 0.8827 0.0
C139 C 0.15807 0.67044 0.87213 0.0
C140 C 0.1794 0.64854 0.8632 0.0
C141 C 0.16087 0.60257 0.86441 0.0
C142 C 0.12001 0.57902 0.87442 0.0
C143 C 0.09903 0.60113 0.88362 0.0
C144 C 0.04262 0.66418 0.88003 0.0
C145 C 0.02276 0.6893 0.88615 0.0
C146 C 0.98128 0.67747 0.87652 0.0
C147 C 0.9588 0.63999 0.86075 0.0
C148 C 0.97939 0.61562 0.85414 0.0
C149 C 0.021 0.62764 0.86371 0.0
C150 C 0.07874 0.65993 0.92412 0.0
C151 C 0.10893 0.68413 0.94262 0.0
C152 C 0.098 0.6722 0.96487 0.0
C153 C 0.05678 0.6356 0.96891 0.0
C154 C 0.02715 0.61075 0.95017 0.0
C155 C 0.03812 0.62274 0.92797 0.0
P156 P 0.04803 0.47489 0.4461 0.0
H157 H 0.13054 0.50461 0.47279 0.0
H158 H 0.19178 0.57824 0.48467 0.0
H159 H 0.1126 0.63517 0.46569 0.0
H160 H 0.05157 0.5608 0.45306 0.0
H161 H 0.01489 0.38768 0.46287 0.0
H162 H 0.94429 0.33432 0.47662 0.0
H163 H 0.90032 0.42947 0.47483 0.0
H164 H 0.97186 0.48326 0.46072 0.0
H165 H 0.1044 0.53276 0.41311 0.0
H166 H 0.96515 0.44101 0.41734 0.0
O167 O 0.0747 0.4471 0.44094 0.0
H168 H 0.09052 0.54718 0.37465 0.0
H169 H 0.95115 0.45579 0.37896 0.0
C170 C 0.08658 0.52714 0.46177 0.0
C171 C 0.12583 0.53274 0.47168 0.0
C172 C 0.16101 0.57516 0.47858 0.0
C173 C 0.15764 0.61307 0.47587 0.0
C174 C 0.11683 0.60694 0.4676 0.0
C175 C 0.08162 0.56434 0.46064 0.0
C176 C 0.99875 0.43955 0.46061 0.0
C177 C 0.99055 0.39762 0.46576 0.0
C178 C 0.94997 0.36697 0.47375 0.0
C179 C 0.91637 0.37737 0.47675 0.0
C180 C 0.92527 0.42016 0.47245 0.0
C181 C 0.96627 0.4511 0.46461 0.0
C182 C 0.03578 0.48664 0.41839 0.0
C183 C 0.07076 0.51616 0.40591 0.0
C184 C 0.06286 0.52417 0.38388 0.0
C185 C 0.01974 0.50272 0.37387 0.0
C186 C 0.98463 0.47326 0.38642 0.0
C187 C 0.99265 0.46489 0.40842 0.0
P188 P 0.58406 0.03931 0.78604 0.0
H189 H 0.59106 0.08483 0.83102 0.0
H190 H 0.56954 0.1396 0.84322 0.0
H191 H 0.49409 0.10962 0.77929 0.0
H192 H 0.51468 0.05474 0.76736 0.0
H193 H 0.62116 0.98424 0.77439 0.0
H194 H 0.60643 0.91224 0.78477 0.0
H195 H 0.50379 0.90408 0.82774 0.0
H196 H 0.51844 0.97675 0.81668 0.0
H197 H 0.63716 0.09537 0.75096 0.0
H198 H 0.51415 0.9729 0.75374 0.0
O199 O 0.63761 0.07341 0.79308 0.0
H200 H 0.62606 0.09041 0.70956 0.0
H201 H 0.50153 0.96861 0.71235 0.0
C202 C 0.55516 0.06598 0.79814 0.0
C203 C 0.56853 0.08881 0.81999 0.0
C204 C 0.55632 0.12021 0.82693 0.0
C205 C 0.53083 0.1294 0.81199 0.0
C206 C 0.5143 0.10365 0.79099 0.0
C207 C 0.52607 0.07203 0.7842 0.0
C208 C 0.57106 0.98589 0.79483 0.0
C209 C 0.59553 0.96708 0.78612 0.0
C210 C 0.58729 0.92595 0.79225 0.0
C211 C 0.55433 0.90245 0.80738 0.0
C212 C 0.52939 0.92124 0.81602 0.0
C213 C 0.53777 0.96279 0.8098 0.0
C214 C 0.57686 0.03409 0.75533 0.0
C215 C 0.60779 0.06727 0.74262 0.0
C216 C 0.60106 0.06466 0.71893 0.0
C217 C 0.56276 0.02918 0.70752 0.0
C218 C 0.53173 0.99602 0.72044 0.0
C219 C 0.53882 0.99842 0.74412 0.0
P220 P 0.41254 0.43954 0.1158 0.0
H221 H 0.45047 0.41687 0.15363 0.0
H222 H 0.52681 0.44203 0.16588 0.0
H223 H 0.57187 0.54454 0.11914 0.0
H224 H 0.49529 0.52048 0.10792 0.0
H225 H 0.34186 0.40661 0.14765 0.0
H226 H 0.28968 0.42998 0.15915 0.0
H227 H 0.35692 0.54417 0.12027 0.0
H228 H 0.41054 0.52146 0.10979 0.0
H229 H 0.47261 0.43177 0.08449 0.0
H230 H 0.3601 0.45029 0.07948 0.0
O231 O 0.38745 0.3857 0.11984 0.0
H232 H 0.48125 0.43799 0.04353 0.0
H233 H 0.36857 0.45643 0.03843 0.0
C234 C 0.46729 0.46606 0.12942 0.0
C235 C 0.47676 0.4455 0.14647 0.0
C236 C 0.52055 0.45968 0.15328 0.0
C237 C 0.55573 0.4945 0.14301 0.0
C238 C 0.54584 0.51759 0.12743 0.0
C239 C 0.50195 0.50374 0.1209 0.0
C240 C 0.37939 0.46168 0.12736 0.0
C241 C 0.34579 0.437 0.14183 0.0
C242 C 0.31561 0.45023 0.14822 0.0
C243 C 0.31814 0.48834 0.14013 0.0
C244 C 0.35374 0.5146 0.12682 0.0
C245 C 0.38438 0.50159 0.1207 0.0
C246 C 0.41711 0.44282 0.08532 0.0
C247 C 0.45002 0.43766 0.07465 0.0
C248 C 0.45465 0.44073 0.05116 0.0
C249 C 0.42595 0.44832 0.03781 0.0
C250 C 0.39183 0.45164 0.04839 0.0
C251 C 0.38712 0.44836 0.07191 0.0
C252 C 0.13643 0.54271 0.18789 0.0
C253 C 0.11268 0.54919 0.17068 0.0
C254 C 0.16916 0.53211 0.18255 0.0
C255 C 0.17896 0.52861 0.15944 0.0
C256 C 0.15471 0.53461 0.14194 0.0
C257 C 0.12158 0.54446 0.14775 0.0
C258 C 0.19363 0.52519 0.2017 0.0
C259 C 0.16455 0.53173 0.11712 0.0
C260 C 0.29246 0.54328 0.14902 0.0
C261 C 0.28262 0.49918 0.14477 0.0
C262 C 0.25897 0.55342 0.15335 0.0
C263 C 0.21458 0.51864 0.15369 0.0
C264 C 0.20438 0.47417 0.14926 0.0
C265 C 0.23836 0.46503 0.14469 0.0
C266 C 0.27115 0.60135 0.15781 0.0
C267 C 0.15756 0.4361 0.14961 0.0
H268 H 0.12966 0.54627 0.20564 0.0
H269 H 0.10373 0.55 0.13439 0.0
H270 H 0.19065 0.4921 0.19877 0.0
H271 H 0.22928 0.5503 0.20204 0.0
H272 H 0.18106 0.52764 0.2187 0.0
H273 H 0.14233 0.53661 0.10554 0.0
H274 H 0.1992 0.55729 0.11458 0.0
H275 H 0.16114 0.49897 0.1121 0.0
H276 H 0.32646 0.56995 0.14931 0.0
H277 H 0.23006 0.4309 0.14086 0.0
H278 H 0.26311 0.60743 0.17542 0.0
H279 H 0.25154 0.609 0.1459 0.0
H280 H 0.30679 0.62459 0.15581 0.0
H281 H 0.14454 0.43665 0.16668 0.0
H282 H 0.15507 0.40338 0.1457 0.0
H283 H 0.13599 0.43961 0.13695 0.0
C284 C 0.68609 0.15501 0.48669 0.0
C285 C 0.65946 0.1589 0.50327 0.0
C286 C 0.72783 0.19121 0.48292 0.0
C287 C 0.74348 0.23235 0.49607 0.0
C288 C 0.71694 0.23632 0.51298 0.0
C289 C 0.67538 0.19966 0.51637 0.0
C290 C 0.75497 0.1856 0.46464 0.0
C291 C 0.73232 0.27943 0.52744 0.0
C292 C 0.86757 0.31342 0.49943 0.0
C293 C 0.87174 0.34261 0.4831 0.0
C294 C 0.82609 0.27793 0.50406 0.0
C295 C 0.78759 0.27121 0.49209 0.0
C296 C 0.79137 0.30122 0.47605 0.0
C297 C 0.83332 0.33652 0.47177 0.0
C298 C 0.82355 0.24712 0.52151 0.0
C299 C 0.75115 0.29539 0.46298 0.0
H300 H 0.67406 0.12383 0.47638 0.0
H301 H 0.65509 0.20323 0.52916 0.0
H302 H 0.76151 0.20933 0.45159 0.0
H303 H 0.78742 0.19322 0.47223 0.0
H304 H 0.73829 0.15148 0.45597 0.0
H305 H 0.70736 0.27741 0.53952 0.0
H306 H 0.76331 0.28875 0.53739 0.0
H307 H 0.73974 0.30644 0.51633 0.0
H308 H 0.89694 0.31817 0.50852 0.0
H309 H 0.83615 0.3585 0.45895 0.0
H310 H 0.80991 0.21306 0.51315 0.0
H311 H 0.80084 0.24557 0.53487 0.0
H312 H 0.85633 0.25768 0.52989 0.0
H313 H 0.73499 0.26318 0.4524 0.0
H314 H 0.75945 0.3223 0.45162 0.0
H315 H 0.72672 0.29469 0.47504 0.0
C316 C 0.50949 0.65809 0.79585 0.0
C317 C 0.50471 0.63683 0.81588 0.0
C318 C 0.51876 0.70213 0.79668 0.0
C319 C 0.52282 0.72556 0.81808 0.0
C320 C 0.51895 0.70462 0.83845 0.0
C321 C 0.51021 0.66055 0.83711 0.0
C322 C 0.52334 0.72328 0.77455 0.0
C323 C 0.52263 0.72827 0.86157 0.0
C324 C 0.5814 0.85079 0.81685 0.0
C325 C 0.54592 0.85814 0.81338 0.0
C326 C 0.57436 0.80816 0.81946 0.0
C327 C 0.53072 0.77178 0.81884 0.0
C328 C 0.4947 0.77929 0.81672 0.0
C329 C 0.50271 0.82233 0.81396 0.0
C330 C 0.61373 0.80178 0.82171 0.0
C331 C 0.44763 0.7415 0.81622 0.0
H332 H 0.50537 0.63999 0.77938 0.0
H333 H 0.50598 0.64412 0.85264 0.0
H334 H 0.4972 0.73203 0.77254 0.0
H335 H 0.55563 0.75447 0.77486 0.0
H336 H 0.52083 0.70111 0.75939 0.0
H337 H 0.52107 0.7083 0.87581 0.0
H338 H 0.55407 0.76043 0.8637 0.0
H339 H 0.49538 0.73565 0.86288 0.0
H340 H 0.61493 0.87837 0.81697 0.0
H341 H 0.47506 0.82749 0.81121 0.0
H342 H 0.61477 0.78248 0.80614 0.0
H343 H 0.61084 0.78253 0.83646 0.0
H344 H 0.64539 0.83381 0.82395 0.0
H345 H 0.44012 0.71956 0.80023 0.0
H346 H 0.42355 0.75333 0.81704 0.0
H347 H 0.44296 0.72115 0.83073 0.0
C348 C 0.79968 0.53169 0.16829 0.0
C349 C 0.81558 0.52556 0.14732 0.0
C350 C 0.75946 0.53142 0.16917 0.0
C351 C 0.7347 0.52517 0.1486 0.0
C352 C 0.75176 0.52132 0.12736 0.0
C353 C 0.79186 0.52141 0.12699 0.0
C354 C 0.74241 0.53552 0.19216 0.0
C355 C 0.72666 0.51502 0.10501 0.0
C356 C 0.60964 0.468 0.148 0.0
C357 C 0.60189 0.50349 0.14665 0.0
C358 C 0.65266 0.47491 0.14941 0.0
C359 C 0.68917 0.51837 0.14921 0.0
C360 C 0.68182 0.55455 0.1484 0.0
C361 C 0.6383 0.54671 0.14719 0.0
C362 C 0.65895 0.43535 0.15033 0.0
C363 C 0.71988 0.60138 0.14815 0.0
H364 H 0.81774 0.53491 0.1841 0.0
H365 H 0.80402 0.51702 0.1107 0.0
H366 H 0.73187 0.56061 0.19249 0.0
H367 H 0.713 0.50337 0.19522 0.0
H368 H 0.76756 0.54489 0.20636 0.0
H369 H 0.74622 0.51665 0.08999 0.0
H370 H 0.69584 0.48225 0.10361 0.0
H371 H 0.71699 0.54066 0.10439 0.0
H372 H 0.58199 0.43437 0.14711 0.0
H373 H 0.6328 0.57444 0.14642 0.0
H374 H 0.68162 0.44059 0.16509 0.0
H375 H 0.67432 0.43136 0.13461 0.0
H376 H 0.62729 0.40409 0.15181 0.0
H377 H 0.74372 0.6095 0.16282 0.0
H378 H 0.70882 0.62612 0.1489 0.0
H379 H 0.73782 0.60444 0.13232 0.0
C380 C 0.38241 0.85442 0.49319 0.0
C381 C 0.41305 0.84982 0.47982 0.0
C382 C 0.33864 0.8191 0.49387 0.0
C383 C 0.32535 0.77804 0.48112 0.0
C384 C 0.35609 0.77346 0.46747 0.0
C385 C 0.39927 0.80933 0.46688 0.0
C386 C 0.30673 0.82554 0.50838 0.0
C387 C 0.34361 0.73028 0.45373 0.0
C388 C 0.23005 0.66823 0.49697 0.0
C389 C 0.19779 0.65834 0.47954 0.0
C390 C 0.27089 0.70806 0.49839 0.0
C391 C 0.27974 0.73926 0.48218 0.0
C392 C 0.24634 0.73081 0.46545 0.0
C393 C 0.20598 0.69047 0.46425 0.0
C394 C 0.3055 0.7156 0.5165 0.0
C395 C 0.25409 0.76329 0.44797 0.0
H396 H 0.39267 0.88554 0.50323 0.0
H397 H 0.42257 0.80521 0.45655 0.0
H398 H 0.27683 0.81764 0.49779 0.0
H399 H 0.29583 0.80242 0.52202 0.0
H400 H 0.32154 0.85997 0.51649 0.0
H401 H 0.3713 0.73214 0.44392 0.0
H402 H 0.33314 0.70339 0.46531 0.0
H403 H 0.31522 0.72088 0.44157 0.0
H404 H 0.22389 0.6442 0.50918 0.0
H405 H 0.18173 0.68328 0.45054 0.0
H406 H 0.31914 0.74889 0.5258 0.0
H407 H 0.33328 0.71447 0.50826 0.0
H408 H 0.29223 0.69026 0.52907 0.0
H409 H 0.26857 0.79741 0.45639 0.0
H410 H 0.22317 0.75481 0.43815 0.0
H411 H 0.27804 0.76338 0.43577 0.0
C412 C 0.57359 0.37023 0.84826 0.0
C413 C 0.5405 0.37898 0.84128 0.0
C414 C 0.56873 0.32803 0.84387 0.0
C415 C 0.52928 0.29317 0.8327 0.0
C416 C 0.49512 0.3014 0.8262 0.0
C417 C 0.50138 0.3444 0.83028 0.0
C418 C 0.60647 0.32116 0.85057 0.0
C419 C 0.45218 0.26489 0.81474 0.0
C420 C 0.53908 0.20048 0.80066 0.0
C421 C 0.52637 0.16923 0.81687 0.0
C422 C 0.53911 0.24038 0.8054 0.0
C423 C 0.52522 0.24901 0.82673 0.0
C424 C 0.51075 0.2168 0.84285 0.0
C425 C 0.51211 0.17754 0.83787 0.0
C426 C 0.5559 0.27415 0.78793 0.0
C427 C 0.49475 0.22426 0.86557 0.0
H428 H 0.60408 0.39684 0.85661 0.0
H429 H 0.47558 0.35089 0.82498 0.0
H430 H 0.59519 0.29415 0.8621 0.0
H431 H 0.61818 0.31092 0.83511 0.0
H432 H 0.63479 0.35158 0.85932 0.0
H433 H 0.42764 0.27573 0.81241 0.0
H434 H 0.45828 0.25371 0.79774 0.0
H435 H 0.43781 0.23585 0.82503 0.0
H436 H 0.55074 0.19447 0.78454 0.0
H437 H 0.50215 0.15337 0.85039 0.0
H438 H 0.58606 0.3047 0.79513 0.0
H439 H 0.53093 0.28356 0.78375 0.0
H440 H 0.56398 0.26169 0.77185 0.0
H441 H 0.52264 0.25184 0.87618 0.0
H442 H 0.48039 0.19426 0.87518 0.0
H443 H 0.46948 0.23401 0.86296 0.0
C444 C 0.53904 0.8174 0.52488 0.0
C445 C 0.56444 0.85625 0.51407 0.0
C446 C 0.55322 0.78674 0.52699 0.0
C447 C 0.59406 0.79543 0.51832 0.0
C448 C 0.61975 0.83445 0.50726 0.0
C449 C 0.60449 0.86431 0.50514 0.0
C450 C 0.52467 0.74523 0.53868 0.0
C451 C 0.66371 0.84503 0.49806 0.0
C452 C 0.64803 0.73817 0.54572 0.0
C453 C 0.63714 0.70227 0.52953 0.0
C454 C 0.63531 0.76942 0.54195 0.0
C455 C 0.61049 0.76436 0.52165 0.0
C456 C 0.59989 0.72866 0.50505 0.0
C457 C 0.61356 0.69816 0.50913 0.0
C458 C 0.64749 0.80724 0.56 0.0
C459 C 0.57323 0.7221 0.48324 0.0
H460 H 0.50788 0.81079 0.53165 0.0
H461 H 0.6243 0.89432 0.49679 0.0
H462 H 0.51734 0.71548 0.52723 0.0
H463 H 0.5426 0.74492 0.5543 0.0
H464 H 0.49297 0.74253 0.5436 0.0
H465 H 0.6791 0.87617 0.48936 0.0
H466 H 0.68668 0.84842 0.51226 0.0
H467 H 0.65958 0.81751 0.48576 0.0
H468 H 0.66547 0.74125 0.56173 0.0
H469 H 0.6055 0.6709 0.49639 0.0
H470 H 0.61713 0.80412 0.56732 0.0
H471 H 0.6645 0.83936 0.55228 0.0
H472 H 0.66932 0.80806 0.57414 0.0
H473 H 0.5401 0.71649 0.48737 0.0
H474 H 0.56897 0.69348 0.47174 0.0
H475 H 0.58946 0.75236 0.4739 0.0
C476 C 0.70606 0.56748 0.85116 0.0
C477 C 0.68524 0.5498 0.82937 0.0
C478 C 0.7513 0.58336 0.85504 0.0
C479 C 0.77637 0.58185 0.83664 0.0
C480 C 0.75581 0.56505 0.81449 0.0
C481 C 0.7104 0.54905 0.81112 0.0
C482 C 0.77205 0.60082 0.87895 0.0
C483 C 0.78161 0.56327 0.79444 0.0
C484 C 0.90072 0.65495 0.84579 0.0
C485 C 0.91279 0.62466 0.85257 0.0
C486 C 0.85653 0.64124 0.83983 0.0
C487 C 0.82373 0.59627 0.84089 0.0
C488 C 0.83591 0.56535 0.84716 0.0
C489 C 0.88033 0.57991 0.85287 0.0
C490 C 0.8448 0.67504 0.83299 0.0
C491 C 0.80182 0.51716 0.84862 0.0
H492 H 0.68683 0.5681 0.86535 0.0
H493 H 0.69457 0.53566 0.7942 0.0
H494 H 0.78519 0.58016 0.88509 0.0
H495 H 0.80029 0.63514 0.87893 0.0
H496 H 0.74823 0.60086 0.89124 0.0
H497 H 0.76123 0.55147 0.77809 0.0
H498 H 0.81053 0.59658 0.79273 0.0
H499 H 0.79446 0.54069 0.79738 0.0
H500 H 0.92584 0.68949 0.84533 0.0
H501 H 0.88943 0.5565 0.85841 0.0
H502 H 0.82371 0.67882 0.84584 0.0
H503 H 0.82549 0.66361 0.81635 0.0
H504 H 0.8745 0.70803 0.83157 0.0
H505 H 0.77878 0.51433 0.86206 0.0
H506 H 0.81698 0.49699 0.85269 0.0
H507 H 0.78192 0.50291 0.83221 0.0
C508 C 0.17232 0.71467 0.13632 0.0
C509 C 0.14647 0.7081 0.15532 0.0
C510 C 0.21786 0.74501 0.13804 0.0
C511 C 0.23794 0.76934 0.15926 0.0
C512 C 0.21154 0.76506 0.17805 0.0
C513 C 0.16607 0.73449 0.17585 0.0
C514 C 0.24482 0.74884 0.11757 0.0
C515 C 0.23173 0.79066 0.20093 0.0
C516 C 0.35526 0.79952 0.17536 0.0
C517 C 0.3787 0.84512 0.17286 0.0
C518 C 0.30964 0.77431 0.17031 0.0
C519 C 0.28684 0.79527 0.16264 0.0
C520 C 0.31053 0.841 0.15927 0.0
C521 C 0.35633 0.86544 0.16439 0.0
C522 C 0.28567 0.72545 0.17383 0.0
C523 C 0.28731 0.86436 0.15103 0.0
H524 H 0.15739 0.69469 0.12031 0.0
H525 H 0.14631 0.72983 0.19058 0.0
H526 H 0.2681 0.78413 0.11509 0.0
H527 H 0.2648 0.73293 0.12051 0.0
H528 H 0.22372 0.73255 0.10162 0.0
H529 H 0.20628 0.78721 0.21303 0.0
H530 H 0.25218 0.77839 0.20866 0.0
H531 H 0.25378 0.82636 0.19879 0.0
H532 H 0.37264 0.78362 0.18155 0.0
H533 H 0.37438 0.90075 0.16256 0.0
H534 H 0.26667 0.70563 0.15789 0.0
H535 H 0.26169 0.7186 0.18731 0.0
H536 H 0.30857 0.71389 0.17894 0.0
H537 H 0.26652 0.84624 0.13523 0.0
H538 H 0.31088 0.89907 0.1475 0.0
H539 H 0.26502 0.8648 0.16416 0.0
C540 C 0.51406 0.16917 0.49711 0.0
C541 C 0.52519 0.15491 0.47665 0.0
C542 C 0.52536 0.21355 0.50179 0.0
C543 C 0.54787 0.24424 0.4855 0.0
C544 C 0.55608 0.22935 0.46409 0.0
C545 C 0.54473 0.18481 0.45994 0.0
C546 C 0.51605 0.22815 0.52485 0.0
C547 C 0.5795 0.26098 0.44618 0.0
C548 C 0.55902 0.35766 0.49703 0.0
C549 C 0.60097 0.38185 0.50832 0.0
C550 C 0.54179 0.31316 0.4887 0.0
C551 C 0.56699 0.29241 0.49197 0.0
C552 C 0.6099 0.31707 0.50274 0.0
C553 C 0.62637 0.36151 0.51074 0.0
C554 C 0.49622 0.28803 0.47698 0.0
C555 C 0.63782 0.29609 0.50661 0.0
H556 H 0.4988 0.1463 0.5101 0.0
H557 H 0.55317 0.174 0.444 0.0
H558 H 0.54764 0.24945 0.53501 0.0
H559 H 0.49998 0.2482 0.52282 0.0
H560 H 0.49453 0.19962 0.53466 0.0
H561 H 0.57718 0.24322 0.42931 0.0
H562 H 0.56558 0.28295 0.44413 0.0
H563 H 0.61492 0.28243 0.45167 0.0
H564 H 0.5395 0.37344 0.49491 0.0
H565 H 0.65857 0.37988 0.51971 0.0
H566 H 0.47353 0.26163 0.4876 0.0
H567 H 0.49702 0.27156 0.46029 0.0
H568 H 0.48248 0.30992 0.47406 0.0
H569 H 0.62119 0.26908 0.51806 0.0
H570 H 0.67115 0.32038 0.51441 0.0
H571 H 0.64175 0.28103 0.49019 0.0
C572 C 0.31245 0.4954 0.82896 0.0
C573 C 0.35154 0.52276 0.84236 0.0
C574 C 0.2766 0.50288 0.83004 0.0
C575 C 0.28052 0.53898 0.8445 0.0
C576 C 0.32027 0.56704 0.8577 0.0
C577 C 0.35505 0.55835 0.85661 0.0
C578 C 0.23445 0.47198 0.81598 0.0
C579 C 0.32618 0.60638 0.87305 0.0
C580 C 0.21172 0.59344 0.83765 0.0
C581 C 0.18575 0.58024 0.85671 0.0
C582 C 0.24076 0.57784 0.83243 0.0
C583 C 0.24333 0.54776 0.84639 0.0
C584 C 0.21463 0.53152 0.86449 0.0
C585 C 0.18648 0.54823 0.86957 0.0
C586 C 0.27099 0.59617 0.81305 0.0
C587 C 0.21598 0.49898 0.8796 0.0
H588 H 0.30968 0.46786 0.81794 0.0
H589 H 0.3854 0.58001 0.86678 0.0
H590 H 0.20681 0.45576 0.82744 0.0
H591 H 0.22596 0.49097 0.80462 0.0
H592 H 0.23694 0.44588 0.80533 0.0
H593 H 0.35973 0.62572 0.88162 0.0
H594 H 0.32034 0.6288 0.86296 0.0
H595 H 0.30163 0.59497 0.8864 0.0
H596 H 0.21057 0.61726 0.82724 0.0
H597 H 0.16688 0.53794 0.88443 0.0
H598 H 0.27187 0.56922 0.80238 0.0
H599 H 0.30511 0.61944 0.82017 0.0
H600 H 0.26077 0.61426 0.80193 0.0
H601 H 0.21704 0.47188 0.86917 0.0
H602 H 0.18702 0.48422 0.89039 0.0
H603 H 0.24638 0.51623 0.89104 0.0
C604 C 0.79108 0.35343 0.1883 0.0
C605 C 0.82538 0.37199 0.1733 0.0
C606 C 0.76392 0.30737 0.18821 0.0
C607 C 0.77122 0.27909 0.17275 0.0
C608 C 0.80528 0.29754 0.15727 0.0
C609 C 0.83199 0.34383 0.15772 0.0
C610 C 0.7279 0.28897 0.20498 0.0
C611 C 0.81402 0.26837 0.14055 0.0
C612 C 0.73059 0.16349 0.19075 0.0
C613 C 0.68992 0.1388 0.17824 0.0
C614 C 0.75796 0.2089 0.18858 0.0
C615 C 0.7443 0.23025 0.17358 0.0
C616 C 0.70383 0.20537 0.16047 0.0
C617 C 0.67707 0.15991 0.16297 0.0
C618 C 0.80082 0.23432 0.20292 0.0
C619 C 0.68827 0.22701 0.14425 0.0
H620 H 0.78559 0.3749 0.20034 0.0
H621 H 0.85837 0.35791 0.14603 0.0
H622 H 0.69553 0.26648 0.19574 0.0
H623 H 0.73425 0.26911 0.21678 0.0
H624 H 0.72552 0.31546 0.21531 0.0
H625 H 0.84039 0.28788 0.12894 0.0
H626 H 0.82403 0.24816 0.15002 0.0
H627 H 0.78343 0.24501 0.13008 0.0
H628 H 0.74045 0.14762 0.20286 0.0
H629 H 0.64591 0.14089 0.15308 0.0
H630 H 0.79942 0.25913 0.21519 0.0
H631 H 0.82869 0.25272 0.19191 0.0
H632 H 0.8079 0.21232 0.21271 0.0
H633 H 0.68237 0.2517 0.15402 0.0
H634 H 0.65732 0.20257 0.1343 0.0
H635 H 0.71411 0.24511 0.13214 0.0
C636 C 0.00318 0.61688 0.10076 0.0
C637 C 0.98495 0.57336 0.107 0.0
C638 C 0.0151 0.62692 0.07831 0.0
C639 C 0.00837 0.5926 0.06163 0.0
C640 C 0.98967 0.54856 0.06774 0.0
C641 C 0.97817 0.53946 0.09036 0.0
C642 C 0.03506 0.67432 0.07246 0.0
C643 C 0.98196 0.51108 0.0504 0.0
C644 C 1.00172 0.61194 -0.00074 0.0
C645 C 0.04431 0.62387 0.9926 0.0
C646 C 0.98949 0.60134 0.02162 0.0
C647 C 0.02064 0.60281 0.03775 0.0
C648 C 0.06364 0.61465 0.03115 0.0
C649 C 0.07496 0.62503 0.00864 0.0
C650 C 0.94338 0.58903 0.02805 0.0
C651 C 0.09771 0.6165 0.04789 0.0
H652 H 0.00851 0.64331 0.11348 0.0
H653 H 0.96409 0.50574 0.09501 0.0
H654 H 0.06832 0.68589 0.06591 0.0
H655 H 0.01445 0.67649 0.05868 0.0
H656 H 0.03814 0.69714 0.08742 0.0
H657 H 0.96707 0.47868 0.05789 0.0
H658 H 0.95975 0.50846 0.03599 0.0
H659 H 0.01366 0.51794 0.04317 0.0
H660 H 0.97808 0.61162 0.98707 0.0
H661 H 0.10775 0.63369 0.00353 0.0
H662 H 0.94494 0.61304 0.04195 0.0
H663 H 0.92678 0.55582 0.03467 0.0
H664 H 0.92281 0.58856 0.01337 0.0
H665 H 0.10387 0.64082 0.06267 0.0
H666 H 0.12957 0.626 0.04001 0.0
H667 H 0.08522 0.58373 0.05468 0.0
C668 C 0.51237 0.99549 0.41438 0.0
C669 C 0.54209 0.99183 0.42902 0.0
C670 C 0.51537 0.99263 0.39055 0.0
C671 C 0.54905 0.9863 0.38121 0.0
C672 C 0.57929 0.98289 0.39591 0.0
C673 C 0.57535 0.98555 0.4196 0.0
C674 C 0.4824 0.99615 0.37535 0.0
C675 C 0.61585 0.97642 0.3866 0.0
C676 C 0.5368 0.93761 0.31994 0.0
C677 C 0.56327 0.97559 0.3087 0.0
C678 C 0.53107 0.94073 0.34347 0.0
C679 C 0.55269 0.98282 0.35605 0.0
C680 C 0.57925 0.02132 0.34476 0.0
C681 C 0.58407 0.01725 0.32117 0.0
C682 C 0.50217 0.89898 0.35489 0.0
C683 C 0.6032 0.0667 0.35767 0.0
H684 H 0.48658 1.00035 0.42152 0.0
H685 H 0.5986 0.98285 0.43076 0.0
H686 H 0.49985 0.02428 0.36464 0.0
H687 H 0.46411 0.9656 0.36357 0.0
H688 H 0.45821 1.00109 0.3853 0.0
H689 H 0.63709 0.97513 0.40038 0.0
H690 H 0.60159 0.94514 0.37529 0.0
H691 H 0.63688 0.00388 0.3761 0.0
H692 H 0.52013 0.90543 0.31026 0.0
H693 H 0.60478 0.04663 0.31253 0.0
H694 H 0.47597 0.90195 0.36384 0.0
H695 H 0.52215 0.8942 0.36797 0.0
H696 H 0.48632 0.86905 0.3425 0.0
H697 H 0.5794 0.07346 0.3668 0.0
H698 H 0.62151 0.09344 0.34624 0.0
H699 H 0.62697 0.06794 0.37077 0.0
C700 C 0.56367 0.52934 0.76159 0.0
C701 C 0.51965 0.50425 0.76751 0.0
C702 C 0.57486 0.53164 0.73873 0.0
C703 C 0.54119 0.50857 0.72123 0.0
C704 C 0.49662 0.48329 0.72697 0.0
C705 C 0.48635 0.48133 0.7501 0.0
C706 C 0.62283 0.55886 0.73335 0.0
C707 C 0.4599 0.45845 0.7087 0.0
C708 C 0.5737 0.55261 0.66316 0.0
C709 C 0.58689 0.52389 0.65299 0.0
C710 C 0.55679 0.54677 0.68498 0.0
C711 C 0.55317 0.51148 0.69696 0.0
C712 C 0.56499 0.48147 0.68649 0.0
C713 C 0.58168 0.48802 0.66462 0.0
C714 C 0.5446 0.57951 0.69559 0.0
C715 C 0.5616 0.44344 0.69874 0.0
H716 H 0.58971 0.5473 0.77486 0.0
H717 H 0.45227 0.46193 0.75452 0.0
H718 H 0.63313 0.53769 0.72343 0.0
H719 H 0.62739 0.58554 0.7226 0.0
H720 H 0.64505 0.57428 0.74901 0.0
H721 H 0.42698 0.44023 0.71599 0.0
H722 H 0.45953 0.48192 0.69706 0.0
H723 H 0.46566 0.4344 0.69818 0.0
H724 H 0.57802 0.58066 0.65439 0.0
H725 H 0.59108 0.46526 0.65669 0.0
H726 H 0.56805 0.59944 0.7103 0.0
H727 H 0.51112 0.56181 0.70226 0.0
H728 H 0.54534 0.60249 0.68324 0.0
H729 H 0.58538 0.4566 0.71383 0.0
H730 H 0.56871 0.42106 0.68756 0.0
H731 H 0.52809 0.42376 0.70512 0.0
C732 C 0.57796 0.02082 0.57294 0.0
C733 C 0.54126 0.01624 0.5605 0.0
C734 C 0.57997 0.02388 0.59689 0.0
C735 C 0.54408 0.02159 0.60876 0.0
C736 C 0.50699 0.01722 0.59634 0.0
C737 C 0.50618 0.01498 0.57231 0.0
C738 C 0.62044 0.02928 0.60951 0.0
C739 C 0.46786 0.01405 0.60841 0.0
C740 C 0.53654 0.98608 0.66896 0.0
C741 C 0.55542 0.02688 0.68227 0.0
C742 C 0.53107 0.98371 0.64508 0.0
C743 C 0.54544 0.02315 0.63416 0.0
C744 C 0.56372 0.06432 0.64747 0.0
C745 C 0.56814 0.06565 0.67135 0.0
C746 C 0.51101 0.93909 0.63148 0.0
C747 C 0.57979 0.10715 0.63644 0.0
H748 H 0.60536 0.02217 0.56392 0.0
H749 H 0.47764 0.01122 0.56278 0.0
H750 H 0.63493 0.05936 0.62174 0.0
H751 H 0.61115 1.00049 0.61958 0.0
H752 H 0.64615 0.03207 0.59775 0.0
H753 H 0.44188 0.01143 0.5963 0.0
H754 H 0.45323 0.98457 0.61838 0.0
H755 H 0.47859 0.04357 0.62072 0.0
H756 H 0.52705 0.95597 0.67713 0.0
H757 H 0.58183 0.09724 0.68146 0.0
H758 H 0.53621 0.93763 0.6208 0.0
H759 H 0.48361 0.93425 0.61972 0.0
H760 H 0.49814 0.9113 0.64263 0.0
H761 H 0.6073 0.11272 0.62542 0.0
H762 H 0.59156 0.13621 0.64925 0.0
H763 H 0.55298 0.10519 0.62529 0.0
C764 C 0.51101 0.50674 0.91284 0.0
C765 C 0.47701 0.48633 0.89562 0.0
C766 C 0.50201 0.50046 0.93594 0.0
C767 C 0.45798 0.47304 0.94196 0.0
C768 C 0.4235 0.45243 0.92469 0.0
C769 C 0.43341 0.45936 0.90173 0.0
C770 C 0.53965 0.52308 0.9539 0.0
C771 C 0.37615 0.42292 0.93046 0.0
C772 C 0.44138 0.42478 -0.00062 0.0
C773 C 0.43218 0.45342 0.01302 0.0
C774 C 0.44928 0.43045 0.97615 0.0
C775 C 0.4481 0.46569 0.96635 0.0
C776 C 0.43826 0.49437 0.97994 0.0
C777 C 0.43033 0.48782 0.00312 0.0
C778 C 0.45931 0.39897 0.96214 0.0
C779 C 0.43691 0.53243 0.97011 0.0
H780 H 0.54478 0.52764 0.9083 0.0
H781 H 0.40689 0.44351 0.88857 0.0
H782 H 0.53362 0.54449 0.96641 0.0
H783 H 0.54171 0.49791 0.9635 0.0
H784 H 0.57194 0.54375 0.94641 0.0
H785 H 0.35316 0.4095 0.91503 0.0
H786 H 0.37314 0.39474 0.93944 0.0
H787 H 0.36567 0.4417 0.94226 0.0
H788 H 0.44229 0.3978 0.00689 0.0
H789 H 0.42374 0.51035 0.01365 0.0
H790 H 0.49268 0.41759 0.95545 0.0
H791 H 0.43538 0.38302 0.94718 0.0
H792 H 0.45798 0.37265 0.97222 0.0
H793 H 0.46973 0.55575 0.96395 0.0
H794 H 0.42765 0.55101 0.98282 0.0
H795 H 0.41285 0.51996 0.95516 0.0
C796 C 0.00959 0.5812 0.25029 0.0
C797 C 0.98107 0.54525 0.23475 0.0
C798 C 0.01428 0.57529 0.27337 0.0
C799 C 0.99018 0.53239 0.28106 0.0
C800 C 0.96062 0.49617 0.2656 0.0
C801 C 0.95629 0.50305 0.24268 0.0
C802 C 0.04585 0.6148 0.2894 0.0
C803 C 0.93454 0.44985 0.27311 0.0
C804 C 0.03812 0.50834 0.3328 0.0
C805 C 0.01179 0.51017 0.35014 0.0
C806 C 0.03129 0.51537 0.31026 0.0
C807 C 0.9976 0.52493 0.30496 0.0
C808 C 0.97097 0.52697 0.32241 0.0
C809 C 0.97821 0.51926 0.3448 0.0
C810 C 0.05998 0.51229 0.29207 0.0
C811 C 0.93507 0.53755 0.31745 0.0
H812 H 0.02877 0.61395 0.24439 0.0
H813 H 0.93414 0.47502 0.23086 0.0
H814 H 0.02879 0.61748 0.3047 0.0
H815 H 0.0734 0.61039 0.29544 0.0
H816 H 0.05992 0.64637 0.28113 0.0
H817 H 0.91148 0.42563 0.25925 0.0
H818 H 0.95749 0.43869 0.27865 0.0
H819 H 0.91526 0.44955 0.288 0.0
H820 H 0.06374 0.50077 0.33684 0.0
H821 H 0.95806 0.52104 0.35823 0.0
H822 H 0.07789 0.54415 0.28417 0.0
H823 H 0.03911 0.48635 0.27829 0.0
H824 H 0.08454 0.50428 0.29899 0.0
H825 H 0.94943 0.57023 0.31033 0.0
H826 H 0.91756 0.53831 0.33297 0.0
H827 H 0.9106 0.51249 0.30436 0.0
loop_
_geom_bond_atom_site_label_1
_geom_bond_atom_site_label_2
_geom_bond_distance
_geom_bond_site_symmetry_2
_ccdc_geom_bond_type
Zn0 O6 1.969 . S
Zn0 O7 1.965 . S
Zn0 O11 2.024 . S
Zn0 O16 1.969 . S
Zn1 O8 1.969 . S
Zn1 O14 1.969 . S
Zn1 O15 1.965 . S
Zn1 O17 2.024 . S
C2 O3 1.229 . S
C2 O11 1.058 . S
O3 C2 1.229 . S
C4 O5 1.229 . S
C4 O17 1.058 . S
O5 C4 1.229 . S
O6 Zn0 1.969 . S
O6 C9 1.267 . S
O7 Zn0 1.965 . S
O7 C18 1.260 1_455 S
O8 Zn1 1.969 . S
O8 C18 1.258 . S
C9 O6 1.267 . S
C9 O10 1.228 . S
O10 C9 1.228 . S
O11 Zn0 2.024 . S
O11 C2 1.058 . S
C12 O13 1.228 . S
C12 O14 1.267 . S
O13 C12 1.228 . S
O14 Zn1 1.969 . S
O14 C12 1.267 . S
O15 Zn1 1.965 . S
O15 C19 1.260 1_655 S
O16 Zn0 1.969 . S
O16 C19 1.258 . S
O17 Zn1 2.024 . S
O17 C4 1.058 . S
C18 O7 1.260 1_655 S
C18 O8 1.258 . S
C19 O15 1.260 1_455 S
C19 O16 1.258 . S
Zn20 O26 1.969 . S
Zn20 O27 1.965 . S
Zn20 O31 2.024 . S
Zn20 O36 1.969 . S
Zn21 O28 1.969 . S
Zn21 O34 1.969 . S
Zn21 O35 1.965 . S
Zn21 O37 2.024 . S
C22 O23 1.229 . S
C22 O31 1.058 . S
O23 C22 1.229 . S
C24 O25 1.229 . S
C24 O37 1.058 . S
O25 C24 1.229 . S
O26 Zn20 1.969 . S
O26 C29 1.267 . S
O27 Zn20 1.965 . S
O27 C38 1.260 . S
O28 Zn21 1.969 . S
O28 C38 1.258 1_565 S
C29 O26 1.267 . S
C29 O30 1.228 . S
O30 C29 1.228 . S
O31 Zn20 2.024 . S
O31 C22 1.058 . S
C32 O33 1.228 . S
C32 O34 1.267 . S
O33 C32 1.228 . S
O34 Zn21 1.969 . S
O34 C32 1.267 . S
O35 Zn21 1.965 . S
O35 C39 1.260 1_565 S
O36 Zn20 1.969 . S
O36 C39 1.258 . S
O37 Zn21 2.024 . S
O37 C24 1.058 . S
C38 O27 1.260 . S
C38 O28 1.258 1_545 S
C39 O35 1.260 1_545 S
C39 O36 1.258 . S
Zn40 O46 1.969 . S
Zn40 O47 1.965 . S
Zn40 O51 2.024 . S
Zn40 O56 1.969 . S
Zn41 O48 1.969 . S
Zn41 O54 1.969 . S
Zn41 O55 1.965 . S
Zn41 O57 2.024 . S
C42 O43 1.229 . S
C42 O51 1.058 . S
O43 C42 1.229 . S
C44 O45 1.229 . S
C44 O57 1.058 . S
O45 C44 1.229 . S
O46 Zn40 1.969 . S
O46 C49 1.267 . S
O47 Zn40 1.965 . S
O47 C58 1.260 . S
O48 Zn41 1.969 . S
O48 C58 1.258 . S
C49 O46 1.267 . S
C49 O50 1.228 . S
O50 C49 1.228 . S
O51 Zn40 2.024 . S
O51 C42 1.058 . S
C52 O53 1.228 . S
C52 O54 1.267 . S
O53 C52 1.228 . S
O54 Zn41 1.969 . S
O54 C52 1.267 . S
O55 Zn41 1.965 . S
O55 C59 1.260 . S
O56 Zn40 1.969 . S
O56 C59 1.258 . S
O57 Zn41 2.024 . S
O57 C44 1.058 . S
C58 O47 1.260 . S
C58 O48 1.258 . S
C59 O55 1.260 . S
C59 O56 1.258 . S
P60 O71 1.490 . S
P60 C74 1.812 . S
P60 C80 1.803 1_565 S
P60 C86 1.819 1_565 S
H61 C75 0.941 . S
H62 C76 0.939 . S
H63 C78 0.940 . S
H64 C79 0.940 . S
H65 C81 0.939 . S
H66 C82 0.942 . S
H67 C84 0.940 . S
H68 C85 0.939 . S
H69 C87 0.941 . S
H70 C91 0.939 . S
O71 P60 1.490 . S
H72 C88 0.939 . S
H73 C90 0.940 . S
C74 P60 1.812 . S
C74 C75 1.389 . S
C74 C79 1.391 . S
C75 H61 0.941 . S
C75 C74 1.389 . S
C75 C76 1.397 . S
C76 H62 0.939 . S
C76 C75 1.397 . S
C76 C77 1.378 . S
C77 C76 1.378 . S
C77 C78 1.378 . S
C78 H63 0.940 . S
C78 C77 1.378 . S
C78 C79 1.396 . S
C79 H64 0.940 . S
C79 C74 1.391 . S
C79 C78 1.396 . S
C80 P60 1.803 1_545 S
C80 C81 1.378 . S
C80 C85 1.400 . S
C81 H65 0.939 . S
C81 C80 1.378 . S
C81 C82 1.361 . S
C82 H66 0.942 . S
C82 C81 1.361 . S
C82 C83 1.369 . S
C83 C82 1.369 . S
C83 C84 1.404 . S
C84 H67 0.940 . S
C84 C83 1.404 . S
C84 C85 1.389 . S
C85 H68 0.939 . S
C85 C80 1.400 . S
C85 C84 1.389 . S
C86 P60 1.819 1_545 S
C86 C87 1.391 1_545 S
C86 C91 1.391 . S
C87 H69 0.941 . S
C87 C86 1.391 1_565 S
C87 C88 1.396 . S
C88 H72 0.939 . S
C88 C87 1.396 . S
C88 C89 1.397 1_565 S
C89 C88 1.397 1_545 S
C89 C90 1.385 . S
C90 H73 0.940 . S
C90 C89 1.385 . S
C90 C91 1.388 . S
C91 H70 0.939 . S
C91 C86 1.391 . S
C91 C90 1.388 . S
P92 O103 1.490 . S
P92 C106 1.812 . S
P92 C112 1.803 . S
P92 C118 1.819 . S
H93 C107 0.941 . S
H94 C108 0.939 . S
H95 C110 0.940 . S
H96 C111 0.940 . S
H97 C113 0.939 . S
H98 C114 0.942 . S
H99 C116 0.940 . S
H100 C117 0.939 . S
H101 C119 0.941 . S
H102 C123 0.939 . S
O103 P92 1.490 . S
H104 C120 0.939 . S
H105 C122 0.940 . S
C106 P92 1.812 . S
C106 C107 1.389 . S
C106 C111 1.391 . S
C107 H93 0.941 . S
C107 C106 1.389 . S
C107 C108 1.397 . S
C108 H94 0.939 . S
C108 C107 1.397 . S
C108 C109 1.378 . S
C109 C108 1.378 . S
C109 C110 1.378 . S
C110 H95 0.940 . S
C110 C109 1.378 . S
C110 C111 1.396 . S
C111 H96 0.940 . S
C111 C106 1.391 . S
C111 C110 1.396 . S
C112 P92 1.803 . S
C112 C113 1.378 . S
C112 C117 1.400 . S
C113 H97 0.939 . S
C113 C112 1.378 . S
C113 C114 1.361 . S
C114 H98 0.942 . S
C114 C113 1.361 . S
C114 C115 1.369 . S
C115 C114 1.369 . S
C115 C116 1.404 . S
C116 H99 0.940 . S
C116 C115 1.404 . S
C116 C117 1.389 . S
C117 H100 0.939 . S
C117 C112 1.400 . S
C117 C116 1.389 . S
C118 P92 1.819 . S
C118 C119 1.391 . S
C118 C123 1.391 . S
C119 H101 0.941 . S
C119 C118 1.391 . S
C119 C120 1.396 . S
C120 H104 0.939 . S
C120 C119 1.396 . S
C120 C121 1.397 . S
C121 C120 1.397 . S
C121 C122 1.385 . S
C122 H105 0.940 . S
C122 C121 1.385 . S
C122 C123 1.388 . S
C123 H102 0.939 . S
C123 C118 1.391 . S
C123 C122 1.388 . S
P124 O135 1.490 . S
P124 C138 1.812 . S
P124 C144 1.803 . S
P124 C150 1.819 . S
H125 C139 0.941 . S
H126 C140 0.939 . S
H127 C142 0.940 . S
H128 C143 0.940 . S
H129 C145 0.939 1_455 S
H130 C146 0.942 . S
H131 C148 0.940 . S
H132 C149 0.951 . S
H133 C151 0.941 . S
H134 C155 0.939 1_655 S
O135 P124 1.490 . S
H136 C152 0.939 . S
H137 C154 0.921 1_655 S
C138 P124 1.812 . S
C138 C139 1.389 . S
C138 C143 1.391 . S
C139 H125 0.941 . S
C139 C138 1.389 . S
C139 C140 1.397 . S
C140 H126 0.939 . S
C140 C139 1.397 . S
C140 C141 1.378 . S
C141 C140 1.378 . S
C141 C142 1.378 . S
C142 H127 0.940 . S
C142 C141 1.378 . S
C142 C143 1.396 . S
C143 H128 0.940 . S
C143 C138 1.391 . S
C143 C142 1.396 . S
C144 P124 1.803 . S
C144 C145 1.378 1_455 S
C144 C149 1.400 1_455 S
C145 H129 0.939 1_655 S
C145 C144 1.378 1_655 S
C145 C146 1.361 . S
C146 H130 0.942 . S
C146 C145 1.361 . S
C146 C147 1.369 . S
C147 C146 1.369 . S
C147 C148 1.404 . S
C148 H131 0.940 . S
C148 C147 1.404 . S
C148 C149 1.389 . S
C149 H132 0.951 . S
C149 C144 1.400 1_655 S
C149 C148 1.389 . S
C150 P124 1.819 . S
C150 C151 1.391 . S
C150 C155 1.391 . S
C151 H133 0.941 . S
C151 C150 1.391 . S
C151 C152 1.396 . S
C152 H136 0.939 . S
C152 C151 1.396 . S
C152 C153 1.397 . S
C153 C152 1.397 . S
C153 C154 1.405 . S
C154 H137 0.921 1_455 S
C154 C153 1.405 . S
C154 C155 1.388 . S
C155 H134 0.939 1_455 S
C155 C150 1.391 . S
C155 C154 1.388 . S
P156 O167 1.490 . S
P156 C170 1.812 . S
P156 C176 1.801 1_455 S
P156 C182 1.819 . S
H157 C171 0.941 . S
H158 C172 0.939 . S
H159 C174 0.940 . S
H160 C175 0.940 . S
H161 C177 0.939 . S
H162 C178 0.942 . S
H163 C180 0.940 . S
H164 C181 0.939 . S
H165 C183 0.941 . S
H166 C187 0.939 . S
O167 P156 1.490 . S
H168 C184 0.939 . S
H169 C186 0.940 . S
C170 P156 1.812 . S
C170 C171 1.389 . S
C170 C175 1.391 . S
C171 H157 0.941 . S
C171 C170 1.389 . S
C171 C172 1.397 . S
C172 H158 0.939 . S
C172 C171 1.397 . S
C172 C173 1.378 . S
C173 C172 1.378 . S
C173 C174 1.378 . S
C174 H159 0.940 . S
C174 C173 1.378 . S
C174 C175 1.396 . S
C175 H160 0.940 . S
C175 C170 1.391 . S
C175 C174 1.396 . S
C176 P156 1.801 1_655 S
C176 C177 1.378 . S
C176 C181 1.402 . S
C177 H161 0.939 . S
C177 C176 1.378 . S
C177 C178 1.361 . S
C178 H162 0.942 . S
C178 C177 1.361 . S
C178 C179 1.369 . S
C179 C178 1.369 . S
C179 C180 1.404 . S
C180 H163 0.940 . S
C180 C179 1.404 . S
C180 C181 1.389 . S
C181 H164 0.939 . S
C181 C176 1.402 . S
C181 C180 1.389 . S
C182 P156 1.819 . S
C182 C183 1.391 . S
C182 C187 1.391 1_455 S
C183 H165 0.941 . S
C183 C182 1.391 . S
C183 C184 1.396 . S
C184 H168 0.939 . S
C184 C183 1.396 . S
C184 C185 1.397 . S
C185 C184 1.397 . S
C185 C186 1.385 1_455 S
C186 H169 0.940 . S
C186 C185 1.385 1_655 S
C186 C187 1.388 . S
C187 H166 0.939 . S
C187 C182 1.391 1_655 S
C187 C186 1.388 . S
P188 O199 1.490 . S
P188 C202 1.812 . S
P188 C208 1.803 1_545 S
P188 C214 1.819 . S
H189 C203 0.941 . S
H190 C204 0.939 . S
H191 C206 0.940 . S
H192 C207 0.940 . S
H193 C209 0.939 . S
H194 C210 0.942 . S
H195 C212 0.940 . S
H196 C213 0.939 . S
H197 C215 0.941 . S
H198 C219 0.939 . S
O199 P188 1.490 . S
H200 C216 0.939 . S
H201 C218 0.940 . S
C202 P188 1.812 . S
C202 C203 1.389 . S
C202 C207 1.391 . S
C203 H189 0.941 . S
C203 C202 1.389 . S
C203 C204 1.397 . S
C204 H190 0.939 . S
C204 C203 1.397 . S
C204 C205 1.378 . S
C205 C204 1.378 . S
C205 C206 1.378 . S
C206 H191 0.940 . S
C206 C205 1.378 . S
C206 C207 1.396 . S
C207 H192 0.940 . S
C207 C202 1.391 . S
C207 C206 1.396 . S
C208 P188 1.803 1_565 S
C208 C209 1.378 . S
C208 C213 1.400 . S
C209 H193 0.939 . S
C209 C208 1.378 . S
C209 C210 1.361 . S
C210 H194 0.942 . S
C210 C209 1.361 . S
C210 C211 1.369 . S
C211 C210 1.369 . S
C211 C212 1.404 . S
C212 H195 0.940 . S
C212 C211 1.404 . S
C212 C213 1.389 . S
C213 H196 0.939 . S
C213 C208 1.400 . S
C213 C212 1.389 . S
C214 P188 1.819 . S
C214 C215 1.391 . S
C214 C219 1.391 1_545 S
C215 H197 0.941 . S
C215 C214 1.391 . S
C215 C216 1.396 . S
C216 H200 0.939 . S
C216 C215 1.396 . S
C216 C217 1.397 . S
C217 C216 1.397 . S
C217 C218 1.385 1_545 S
C218 H201 0.940 . S
C218 C217 1.385 1_565 S
C218 C219 1.388 . S
C219 H198 0.939 . S
C219 C214 1.391 1_565 S
C219 C218 1.388 . S
P220 O231 1.490 . S
P220 C234 1.812 . S
P220 C240 1.803 . S
P220 C246 1.819 . S
H221 C235 0.941 . S
H222 C236 0.939 . S
H223 C238 0.940 . S
H224 C239 0.940 . S
H225 C241 0.939 . S
H226 C242 0.942 . S
H227 C244 0.940 . S
H228 C245 0.939 . S
H229 C247 0.941 . S
H230 C251 0.939 . S
O231 P220 1.490 . S
H232 C248 0.939 . S
H233 C250 0.940 . S
C234 P220 1.812 . S
C234 C235 1.389 . S
C234 C239 1.391 . S
C235 H221 0.941 . S
C235 C234 1.389 . S
C235 C236 1.397 . S
C236 H222 0.939 . S
C236 C235 1.397 . S
C236 C237 1.378 . S
C237 C236 1.378 . S
C237 C238 1.378 . S
C238 H223 0.940 . S
C238 C237 1.378 . S
C238 C239 1.396 . S
C239 H224 0.940 . S
C239 C234 1.391 . S
C239 C238 1.396 . S
C240 P220 1.803 . S
C240 C241 1.378 . S
C240 C245 1.400 . S
C241 H225 0.939 . S
C241 C240 1.378 . S
C241 C242 1.361 . S
C242 H226 0.942 . S
C242 C241 1.361 . S
C242 C243 1.369 . S
C243 C242 1.369 . S
C243 C244 1.404 . S
C244 H227 0.940 . S
C244 C243 1.404 . S
C244 C245 1.389 . S
C245 H228 0.939 . S
C245 C240 1.400 . S
C245 C244 1.389 . S
C246 P220 1.819 . S
C246 C247 1.391 . S
C246 C251 1.391 . S
C247 H229 0.941 . S
C247 C246 1.391 . S
C247 C248 1.396 . S
C248 H232 0.939 . S
C248 C247 1.396 . S
C248 C249 1.397 . S
C249 C248 1.397 . S
C249 C250 1.385 . S
C250 H233 0.940 . S
C250 C249 1.385 . S
C250 C251 1.388 . S
C251 H230 0.939 . S
C251 C246 1.391 . S
C251 C250 1.388 . S
C252 C253 1.391 . S
C252 C254 1.394 . S
C252 H268 0.931 . S
C253 C252 1.391 . S
C253 C257 1.376 . S
C254 C252 1.394 . S
C254 C255 1.369 . S
C254 C258 1.531 . S
C255 C254 1.369 . S
C255 C256 1.410 . S
C255 C263 1.503 . S
C256 C255 1.410 . S
C256 C257 1.392 . S
C256 C259 1.511 . S
C257 C253 1.376 . S
C257 C256 1.392 . S
C257 H269 0.929 . S
C258 C254 1.531 . S
C258 H270 0.960 . S
C258 H271 0.962 . S
C258 H272 0.960 . S
C259 C256 1.511 . S
C259 H273 0.961 . S
C259 H274 0.961 . S
C259 H275 0.961 . S
C260 C261 1.370 . S
C260 C262 1.363 . S
C260 H276 0.931 . S
C261 C260 1.370 . S
C261 C265 1.408 . S
C262 C260 1.363 . S
C262 C263 1.370 . S
C262 C266 1.524 . S
C263 C255 1.503 . S
C263 C262 1.370 . S
C263 C264 1.403 . S
C264 C263 1.403 . S
C264 C265 1.404 . S
C264 C267 1.539 . S
C265 C261 1.408 . S
C265 C264 1.404 . S
C265 H277 0.930 . S
C266 C262 1.524 . S
C266 H278 0.956 . S
C266 H279 0.961 . S
C266 H280 0.961 . S
C267 C264 1.539 . S
C267 H281 0.958 . S
C267 H282 0.961 . S
C267 H283 0.960 . S
H268 C252 0.931 . S
H269 C257 0.929 . S
H270 C258 0.960 . S
H271 C258 0.962 . S
H272 C258 0.960 . S
H273 C259 0.961 . S
H274 C259 0.961 . S
H275 C259 0.961 . S
H276 C260 0.931 . S
H277 C265 0.930 . S
H278 C266 0.956 . S
H279 C266 0.961 . S
H280 C266 0.961 . S
H281 C267 0.958 . S
H282 C267 0.961 . S
H283 C267 0.960 . S
C284 C285 1.391 . S
C284 C286 1.394 . S
C284 H300 0.931 . S
C285 C284 1.391 . S
C285 C289 1.376 . S
C286 C284 1.394 . S
C286 C287 1.369 . S
C286 C290 1.531 . S
C287 C286 1.369 . S
C287 C288 1.410 . S
C287 C295 1.503 . S
C288 C287 1.410 . S
C288 C289 1.392 . S
C288 C291 1.511 . S
C289 C285 1.376 . S
C289 C288 1.392 . S
C289 H301 0.929 . S
C290 C286 1.531 . S
C290 H302 0.960 . S
C290 H303 0.962 . S
C290 H304 0.960 . S
C291 C288 1.511 . S
C291 H305 0.961 . S
C291 H306 0.961 . S
C291 H307 0.961 . S
C292 C293 1.370 . S
C292 C294 1.363 . S
C292 H308 0.931 . S
C293 C292 1.370 . S
C293 C297 1.408 . S
C294 C292 1.363 . S
C294 C295 1.370 . S
C294 C298 1.524 . S
C295 C287 1.503 . S
C295 C294 1.370 . S
C295 C296 1.403 . S
C296 C295 1.403 . S
C296 C297 1.404 . S
C296 C299 1.539 . S
C297 C293 1.408 . S
C297 C296 1.404 . S
C297 H309 0.930 . S
C298 C294 1.524 . S
C298 H310 0.956 . S
C298 H311 0.961 . S
C298 H312 0.961 . S
C299 C296 1.539 . S
C299 H313 0.958 . S
C299 H314 0.961 . S
C299 H315 0.960 . S
H300 C284 0.931 . S
H301 C289 0.929 . S
H302 C290 0.960 . S
H303 C290 0.962 . S
H304 C290 0.960 . S
H305 C291 0.961 . S
H306 C291 0.961 . S
H307 C291 0.961 . S
H308 C292 0.931 . S
H309 C297 0.930 . S
H310 C298 0.956 . S
H311 C298 0.961 . S
H312 C298 0.961 . S
H313 C299 0.958 . S
H314 C299 0.961 . S
H315 C299 0.960 . S
C316 C317 1.391 . S
C316 C318 1.394 . S
C316 H332 0.931 . S
C317 C316 1.391 . S
C317 C321 1.376 . S
C318 C316 1.394 . S
C318 C319 1.369 . S
C318 C322 1.531 . S
C319 C318 1.369 . S
C319 C320 1.410 . S
C319 C327 1.503 . S
C320 C319 1.410 . S
C320 C321 1.392 . S
C320 C323 1.511 . S
C321 C317 1.376 . S
C321 C320 1.392 . S
C321 H333 0.929 . S
C322 C318 1.531 . S
C322 H334 0.960 . S
C322 H335 0.962 . S
C322 H336 0.960 . S
C323 C320 1.511 . S
C323 H337 0.961 . S
C323 H338 0.961 . S
C323 H339 0.961 . S
C324 C325 1.370 . S
C324 C326 1.363 . S
C324 H340 0.931 . S
C325 C324 1.370 . S
C325 C329 1.408 . S
C326 C324 1.363 . S
C326 C327 1.370 . S
C326 C330 1.524 . S
C327 C319 1.503 . S
C327 C326 1.370 . S
C327 C328 1.403 . S
C328 C327 1.403 . S
C328 C329 1.404 . S
C328 C331 1.539 . S
C329 C325 1.408 . S
C329 C328 1.404 . S
C329 H341 0.930 . S
C330 C326 1.524 . S
C330 H342 0.956 . S
C330 H343 0.961 . S
C330 H344 0.961 . S
C331 C328 1.539 . S
C331 H345 0.958 . S
C331 H346 0.961 . S
C331 H347 0.960 . S
H332 C316 0.931 . S
H333 C321 0.929 . S
H334 C322 0.960 . S
H335 C322 0.962 . S
H336 C322 0.960 . S
H337 C323 0.961 . S
H338 C323 0.961 . S
H339 C323 0.961 . S
H340 C324 0.931 . S
H341 C329 0.930 . S
H342 C330 0.956 . S
H343 C330 0.961 . S
H344 C330 0.961 . S
H345 C331 0.958 . S
H346 C331 0.961 . S
H347 C331 0.960 . S
C348 C349 1.391 . S
C348 C350 1.394 . S
C348 H364 0.931 . S
C349 C348 1.391 . S
C349 C353 1.376 . S
C350 C348 1.394 . S
C350 C351 1.369 . S
C350 C354 1.531 . S
C351 C350 1.369 . S
C351 C352 1.410 . S
C351 C359 1.503 . S
C352 C351 1.410 . S
C352 C353 1.392 . S
C352 C355 1.511 . S
C353 C349 1.376 . S
C353 C352 1.392 . S
C353 H365 0.929 . S
C354 C350 1.531 . S
C354 H366 0.960 . S
C354 H367 0.962 . S
C354 H368 0.960 . S
C355 C352 1.511 . S
C355 H369 0.961 . S
C355 H370 0.961 . S
C355 H371 0.961 . S
C356 C357 1.370 . S
C356 C358 1.363 . S
C356 H372 0.931 . S
C357 C356 1.370 . S
C357 C361 1.408 . S
C358 C356 1.363 . S
C358 C359 1.370 . S
C358 C362 1.524 . S
C359 C351 1.503 . S
C359 C358 1.370 . S
C359 C360 1.403 . S
C360 C359 1.403 . S
C360 C361 1.404 . S
C360 C363 1.539 . S
C361 C357 1.408 . S
C361 C360 1.404 . S
C361 H373 0.930 . S
C362 C358 1.524 . S
C362 H374 0.956 . S
C362 H375 0.961 . S
C362 H376 0.961 . S
C363 C360 1.539 . S
C363 H377 0.958 . S
C363 H378 0.961 . S
C363 H379 0.960 . S
H364 C348 0.931 . S
H365 C353 0.929 . S
H366 C354 0.960 . S
H367 C354 0.962 . S
H368 C354 0.960 . S
H369 C355 0.961 . S
H370 C355 0.961 . S
H371 C355 0.961 . S
H372 C356 0.931 . S
H373 C361 0.930 . S
H374 C362 0.956 . S
H375 C362 0.961 . S
H376 C362 0.961 . S
H377 C363 0.958 . S
H378 C363 0.961 . S
H379 C363 0.960 . S
C380 C381 1.391 . S
C380 C382 1.394 . S
C380 H396 0.931 . S
C381 C380 1.391 . S
C381 C385 1.376 . S
C382 C380 1.394 . S
C382 C383 1.369 . S
C382 C386 1.531 . S
C383 C382 1.369 . S
C383 C384 1.410 . S
C383 C391 1.503 . S
C384 C383 1.410 . S
C384 C385 1.392 . S
C384 C387 1.511 . S
C385 C381 1.376 . S
C385 C384 1.392 . S
C385 H397 0.929 . S
C386 C382 1.531 . S
C386 H398 0.960 . S
C386 H399 0.962 . S
C386 H400 0.960 . S
C387 C384 1.511 . S
C387 H401 0.961 . S
C387 H402 0.961 . S
C387 H403 0.961 . S
C388 C389 1.370 . S
C388 C390 1.363 . S
C388 H404 0.931 . S
C389 C388 1.370 . S
C389 C393 1.408 . S
C390 C388 1.363 . S
C390 C391 1.370 . S
C390 C394 1.524 . S
C391 C383 1.503 . S
C391 C390 1.370 . S
C391 C392 1.403 . S
C392 C391 1.403 . S
C392 C393 1.404 . S
C392 C395 1.539 . S
C393 C389 1.408 . S
C393 C392 1.404 . S
C393 H405 0.930 . S
C394 C390 1.524 . S
C394 H406 0.956 . S
C394 H407 0.961 . S
C394 H408 0.961 . S
C395 C392 1.539 . S
C395 H409 0.958 . S
C395 H410 0.961 . S
C395 H411 0.960 . S
H396 C380 0.931 . S
H397 C385 0.929 . S
H398 C386 0.960 . S
H399 C386 0.962 . S
H400 C386 0.960 . S
H401 C387 0.961 . S
H402 C387 0.961 . S
H403 C387 0.961 . S
H404 C388 0.931 . S
H405 C393 0.930 . S
H406 C394 0.956 . S
H407 C394 0.961 . S
H408 C394 0.961 . S
H409 C395 0.958 . S
H410 C395 0.961 . S
H411 C395 0.960 . S
C412 C413 1.391 . S
C412 C414 1.394 . S
C412 H428 0.931 . S
C413 C412 1.391 . S
C413 C417 1.376 . S
C414 C412 1.394 . S
C414 C415 1.369 . S
C414 C418 1.531 . S
C415 C414 1.369 . S
C415 C416 1.410 . S
C415 C423 1.503 . S
C416 C415 1.410 . S
C416 C417 1.392 . S
C416 C419 1.511 . S
C417 C413 1.376 . S
C417 C416 1.392 . S
C417 H429 0.929 . S
C418 C414 1.531 . S
C418 H430 0.960 . S
C418 H431 0.962 . S
C418 H432 0.960 . S
C419 C416 1.511 . S
C419 H433 0.961 . S
C419 H434 0.961 . S
C419 H435 0.961 . S
C420 C421 1.370 . S
C420 C422 1.363 . S
C420 H436 0.931 . S
C421 C420 1.370 . S
C421 C425 1.408 . S
C422 C420 1.363 . S
C422 C423 1.370 . S
C422 C426 1.524 . S
C423 C415 1.503 . S
C423 C422 1.370 . S
C423 C424 1.403 . S
C424 C423 1.403 . S
C424 C425 1.404 . S
C424 C427 1.539 . S
C425 C421 1.408 . S
C425 C424 1.404 . S
C425 H437 0.930 . S
C426 C422 1.524 . S
C426 H438 0.956 . S
C426 H439 0.961 . S
C426 H440 0.961 . S
C427 C424 1.539 . S
C427 H441 0.958 . S
C427 H442 0.961 . S
C427 H443 0.960 . S
H428 C412 0.931 . S
H429 C417 0.929 . S
H430 C418 0.960 . S
H431 C418 0.962 . S
H432 C418 0.960 . S
H433 C419 0.961 . S
H434 C419 0.961 . S
H435 C419 0.961 . S
H436 C420 0.931 . S
H437 C425 0.930 . S
H438 C426 0.956 . S
H439 C426 0.961 . S
H440 C426 0.961 . S
H441 C427 0.958 . S
H442 C427 0.961 . S
H443 C427 0.960 . S
C444 C445 1.391 . S
C444 C446 1.394 . S
C444 H460 0.931 . S
C445 C444 1.391 . S
C445 C449 1.376 . S
C446 C444 1.394 . S
C446 C447 1.369 . S
C446 C450 1.531 . S
C447 C446 1.369 . S
C447 C448 1.410 . S
C447 C455 1.503 . S
C448 C447 1.410 . S
C448 C449 1.392 . S
C448 C451 1.511 . S
C449 C445 1.376 . S
C449 C448 1.392 . S
C449 H461 0.929 . S
C450 C446 1.531 . S
C450 H462 0.960 . S
C450 H463 0.962 . S
C450 H464 0.960 . S
C451 C448 1.511 . S
C451 H465 0.961 . S
C451 H466 0.961 . S
C451 H467 0.961 . S
C452 C453 1.370 . S
C452 C454 1.363 . S
C452 H468 0.931 . S
C453 C452 1.370 . S
C453 C457 1.408 . S
C454 C452 1.363 . S
C454 C455 1.370 . S
C454 C458 1.524 . S
C455 C447 1.503 . S
C455 C454 1.370 . S
C455 C456 1.403 . S
C456 C455 1.403 . S
C456 C457 1.404 . S
C456 C459 1.539 . S
C457 C453 1.408 . S
C457 C456 1.404 . S
C457 H469 0.930 . S
C458 C454 1.524 . S
C458 H470 0.956 . S
C458 H471 0.961 . S
C458 H472 0.961 . S
C459 C456 1.539 . S
C459 H473 0.958 . S
C459 H474 0.961 . S
C459 H475 0.960 . S
H460 C444 0.931 . S
H461 C449 0.929 . S
H462 C450 0.960 . S
H463 C450 0.962 . S
H464 C450 0.960 . S
H465 C451 0.961 . S
H466 C451 0.961 . S
H467 C451 0.961 . S
H468 C452 0.931 . S
H469 C457 0.930 . S
H470 C458 0.956 . S
H471 C458 0.961 . S
H472 C458 0.961 . S
H473 C459 0.958 . S
H474 C459 0.961 . S
H475 C459 0.960 . S
C476 C477 1.391 . S
C476 C478 1.394 . S
C476 H492 0.931 . S
C477 C476 1.391 . S
C477 C481 1.376 . S
C478 C476 1.394 . S
C478 C479 1.369 . S
C478 C482 1.531 . S
C479 C478 1.369 . S
C479 C480 1.410 . S
C479 C487 1.503 . S
C480 C479 1.410 . S
C480 C481 1.392 . S
C480 C483 1.511 . S
C481 C477 1.376 . S
C481 C480 1.392 . S
C481 H493 0.929 . S
C482 C478 1.531 . S
C482 H494 0.960 . S
C482 H495 0.962 . S
C482 H496 0.960 . S
C483 C480 1.511 . S
C483 H497 0.961 . S
C483 H498 0.961 . S
C483 H499 0.961 . S
C484 C485 1.370 . S
C484 C486 1.363 . S
C484 H500 0.931 . S
C485 C484 1.370 . S
C485 C489 1.408 . S
C486 C484 1.363 . S
C486 C487 1.370 . S
C486 C490 1.524 . S
C487 C479 1.503 . S
C487 C486 1.370 . S
C487 C488 1.403 . S
C488 C487 1.403 . S
C488 C489 1.404 . S
C488 C491 1.539 . S
C489 C485 1.408 . S
C489 C488 1.404 . S
C489 H501 0.930 . S
C490 C486 1.524 . S
C490 H502 0.956 . S
C490 H503 0.961 . S
C490 H504 0.961 . S
C491 C488 1.539 . S
C491 H505 0.958 . S
C491 H506 0.961 . S
C491 H507 0.960 . S
H492 C476 0.931 . S
H493 C481 0.929 . S
H494 C482 0.960 . S
H495 C482 0.962 . S
H496 C482 0.960 . S
H497 C483 0.961 . S
H498 C483 0.961 . S
H499 C483 0.961 . S
H500 C484 0.931 . S
H501 C489 0.930 . S
H502 C490 0.956 . S
H503 C490 0.961 . S
H504 C490 0.961 . S
H505 C491 0.958 . S
H506 C491 0.961 . S
H507 C491 0.960 . S
C508 C509 1.391 . S
C508 C510 1.394 . S
C508 H524 0.931 . S
C509 C508 1.391 . S
C509 C513 1.376 . S
C510 C508 1.394 . S
C510 C511 1.369 . S
C510 C514 1.531 . S
C511 C510 1.369 . S
C511 C512 1.410 . S
C511 C519 1.503 . S
C512 C511 1.410 . S
C512 C513 1.392 . S
C512 C515 1.511 . S
C513 C509 1.376 . S
C513 C512 1.392 . S
C513 H525 0.929 . S
C514 C510 1.531 . S
C514 H526 0.960 . S
C514 H527 0.962 . S
C514 H528 0.960 . S
C515 C512 1.511 . S
C515 H529 0.961 . S
C515 H530 0.961 . S
C515 H531 0.961 . S
C516 C517 1.370 . S
C516 C518 1.363 . S
C516 H532 0.931 . S
C517 C516 1.370 . S
C517 C521 1.408 . S
C518 C516 1.363 . S
C518 C519 1.370 . S
C518 C522 1.524 . S
C519 C511 1.503 . S
C519 C518 1.370 . S
C519 C520 1.403 . S
C520 C519 1.403 . S
C520 C521 1.404 . S
C520 C523 1.539 . S
C521 C517 1.408 . S
C521 C520 1.404 . S
C521 H533 0.930 . S
C522 C518 1.524 . S
C522 H534 0.956 . S
C522 H535 0.961 . S
C522 H536 0.961 . S
C523 C520 1.539 . S
C523 H537 0.958 . S
C523 H538 0.961 . S
C523 H539 0.960 . S
H524 C508 0.931 . S
H525 C513 0.929 . S
H526 C514 0.960 . S
H527 C514 0.962 . S
H528 C514 0.960 . S
H529 C515 0.961 . S
H530 C515 0.961 . S
H531 C515 0.961 . S
H532 C516 0.931 . S
H533 C521 0.930 . S
H534 C522 0.956 . S
H535 C522 0.961 . S
H536 C522 0.961 . S
H537 C523 0.958 . S
H538 C523 0.961 . S
H539 C523 0.960 . S
C540 C541 1.391 . S
C540 C542 1.394 . S
C540 H556 0.931 . S
C541 C540 1.391 . S
C541 C545 1.376 . S
C542 C540 1.394 . S
C542 C543 1.369 . S
C542 C546 1.531 . S
C543 C542 1.369 . S
C543 C544 1.410 . S
C543 C551 1.503 . S
C544 C543 1.410 . S
C544 C545 1.392 . S
C544 C547 1.511 . S
C545 C541 1.376 . S
C545 C544 1.392 . S
C545 H557 0.929 . S
C546 C542 1.531 . S
C546 H558 0.960 . S
C546 H559 0.962 . S
C546 H560 0.960 . S
C547 C544 1.511 . S
C547 H561 0.961 . S
C547 H562 0.961 . S
C547 H563 0.961 . S
C548 C549 1.370 . S
C548 C550 1.363 . S
C548 H564 0.931 . S
C549 C548 1.370 . S
C549 C553 1.408 . S
C550 C548 1.363 . S
C550 C551 1.370 . S
C550 C554 1.524 . S
C551 C543 1.503 . S
C551 C550 1.370 . S
C551 C552 1.403 . S
C552 C551 1.403 . S
C552 C553 1.404 . S
C552 C555 1.539 . S
C553 C549 1.408 . S
C553 C552 1.404 . S
C553 H565 0.930 . S
C554 C550 1.524 . S
C554 H566 0.956 . S
C554 H567 0.961 . S
C554 H568 0.961 . S
C555 C552 1.539 . S
C555 H569 0.958 . S
C555 H570 0.961 . S
C555 H571 0.960 . S
H556 C540 0.931 . S
H557 C545 0.929 . S
H558 C546 0.960 . S
H559 C546 0.962 . S
H560 C546 0.960 . S
H561 C547 0.961 . S
H562 C547 0.961 . S
H563 C547 0.961 . S
H564 C548 0.931 . S
H565 C553 0.930 . S
H566 C554 0.956 . S
H567 C554 0.961 . S
H568 C554 0.961 . S
H569 C555 0.958 . S
H570 C555 0.961 . S
H571 C555 0.960 . S
C572 C573 1.391 . S
C572 C574 1.394 . S
C572 H588 0.931 . S
C573 C572 1.391 . S
C573 C577 1.376 . S
C574 C572 1.394 . S
C574 C575 1.369 . S
C574 C578 1.531 . S
C575 C574 1.369 . S
C575 C576 1.410 . S
C575 C583 1.503 . S
C576 C575 1.410 . S
C576 C577 1.392 . S
C576 C579 1.511 . S
C577 C573 1.376 . S
C577 C576 1.392 . S
C577 H589 0.929 . S
C578 C574 1.531 . S
C578 H590 0.960 . S
C578 H591 0.962 . S
C578 H592 0.960 . S
C579 C576 1.511 . S
C579 H593 0.961 . S
C579 H594 0.961 . S
C579 H595 0.961 . S
C580 C581 1.370 . S
C580 C582 1.363 . S
C580 H596 0.931 . S
C581 C580 1.370 . S
C581 C585 1.408 . S
C582 C580 1.363 . S
C582 C583 1.370 . S
C582 C586 1.524 . S
C583 C575 1.503 . S
C583 C582 1.370 . S
C583 C584 1.403 . S
C584 C583 1.403 . S
C584 C585 1.404 . S
C584 C587 1.539 . S
C585 C581 1.408 . S
C585 C584 1.404 . S
C585 H597 0.930 . S
C586 C582 1.524 . S
C586 H598 0.956 . S
C586 H599 0.961 . S
C586 H600 0.961 . S
C587 C584 1.539 . S
C587 H601 0.958 . S
C587 H602 0.961 . S
C587 H603 0.960 . S
H588 C572 0.931 . S
H589 C577 0.929 . S
H590 C578 0.960 . S
H591 C578 0.962 . S
H592 C578 0.960 . S
H593 C579 0.961 . S
H594 C579 0.961 . S
H595 C579 0.961 . S
H596 C580 0.931 . S
H597 C585 0.930 . S
H598 C586 0.956 . S
H599 C586 0.961 . S
H600 C586 0.961 . S
H601 C587 0.958 . S
H602 C587 0.961 . S
H603 C587 0.960 . S
C604 C605 1.391 . S
C604 C606 1.394 . S
C604 H620 0.931 . S
C605 C604 1.391 . S
C605 C609 1.376 . S
C606 C604 1.394 . S
C606 C607 1.369 . S
C606 C610 1.531 . S
C607 C606 1.369 . S
C607 C608 1.410 . S
C607 C615 1.503 . S
C608 C607 1.410 . S
C608 C609 1.392 . S
C608 C611 1.511 . S
C609 C605 1.376 . S
C609 C608 1.392 . S
C609 H621 0.929 . S
C610 C606 1.531 . S
C610 H622 0.960 . S
C610 H623 0.962 . S
C610 H624 0.960 . S
C611 C608 1.511 . S
C611 H625 0.961 . S
C611 H626 0.961 . S
C611 H627 0.961 . S
C612 C613 1.370 . S
C612 C614 1.363 . S
C612 H628 0.931 . S
C613 C612 1.370 . S
C613 C617 1.408 . S
C614 C612 1.363 . S
C614 C615 1.370 . S
C614 C618 1.524 . S
C615 C607 1.503 . S
C615 C614 1.370 . S
C615 C616 1.403 . S
C616 C615 1.403 . S
C616 C617 1.404 . S
C616 C619 1.539 . S
C617 C613 1.408 . S
C617 C616 1.404 . S
C617 H629 0.930 . S
C618 C614 1.524 . S
C618 H630 0.956 . S
C618 H631 0.961 . S
C618 H632 0.961 . S
C619 C616 1.539 . S
C619 H633 0.958 . S
C619 H634 0.961 . S
C619 H635 0.960 . S
H620 C604 0.931 . S
H621 C609 0.929 . S
H622 C610 0.960 . S
H623 C610 0.962 . S
H624 C610 0.960 . S
H625 C611 0.961 . S
H626 C611 0.961 . S
H627 C611 0.961 . S
H628 C612 0.931 . S
H629 C617 0.930 . S
H630 C618 0.956 . S
H631 C618 0.961 . S
H632 C618 0.961 . S
H633 C619 0.958 . S
H634 C619 0.961 . S
H635 C619 0.960 . S
C636 C637 1.391 . S
C636 C638 1.394 . S
C636 H652 0.931 . S
C637 C636 1.391 . S
C637 C641 1.376 . S
C638 C636 1.394 . S
C638 C639 1.369 . S
C638 C642 1.531 . S
C639 C638 1.369 . S
C639 C640 1.410 . S
C639 C647 1.503 . S
C640 C639 1.410 . S
C640 C641 1.392 . S
C640 C643 1.511 . S
C641 C637 1.376 . S
C641 C640 1.392 . S
C641 H653 0.929 1_455 S
C642 C638 1.531 . S
C642 H654 0.960 . S
C642 H655 0.962 . S
C642 H656 0.960 . S
C643 C640 1.511 . S
C643 H657 0.961 1_455 S
C643 H658 0.961 1_455 S
C643 H659 0.961 . S
C644 C645 1.373 1_654 S
C644 C646 1.358 . S
C644 H660 0.934 1_554 S
C645 C644 1.373 1_456 S
C645 C649 1.408 1_556 S
C646 C644 1.358 . S
C646 C647 1.370 1_655 S
C646 C650 1.524 . S
C647 C639 1.503 . S
C647 C646 1.370 1_455 S
C647 C648 1.403 . S
C648 C647 1.403 . S
C648 C649 1.404 . S
C648 C651 1.539 . S
C649 C645 1.408 1_554 S
C649 C648 1.404 . S
C649 H661 0.930 1_554 S
C650 C646 1.524 . S
C650 H662 0.956 . S
C650 H663 0.961 . S
C650 H664 0.961 . S
C651 C648 1.539 . S
C651 H665 0.958 . S
C651 H666 0.961 . S
C651 H667 0.960 . S
H652 C636 0.931 . S
H653 C641 0.929 1_655 S
H654 C642 0.960 . S
H655 C642 0.962 . S
H656 C642 0.960 . S
H657 C643 0.961 1_655 S
H658 C643 0.961 1_655 S
H659 C643 0.961 . S
H660 C644 0.934 1_556 S
H661 C649 0.930 1_556 S
H662 C650 0.956 . S
H663 C650 0.961 . S
H664 C650 0.961 . S
H665 C651 0.958 . S
H666 C651 0.961 . S
H667 C651 0.960 . S
C668 C669 1.391 . S
C668 C670 1.394 . S
C668 H684 0.931 . S
C669 C668 1.391 . S
C669 C673 1.376 1_545 S
C670 C668 1.394 . S
C670 C671 1.369 . S
C670 C674 1.531 . S
C671 C670 1.369 . S
C671 C672 1.410 1_545 S
C671 C679 1.503 . S
C672 C671 1.410 1_565 S
C672 C673 1.392 . S
C672 C675 1.511 . S
C673 C669 1.376 1_565 S
C673 C672 1.392 . S
C673 H685 0.929 . S
C674 C670 1.531 . S
C674 H686 0.960 . S
C674 H687 0.962 . S
C674 H688 0.960 . S
C675 C672 1.511 . S
C675 H689 0.961 . S
C675 H690 0.961 . S
C675 H691 0.961 . S
C676 C677 1.367 1_565 S
C676 C678 1.365 . S
C676 H692 0.933 . S
C677 C676 1.367 1_545 S
C677 C681 1.408 . S
C678 C676 1.365 . S
C678 C679 1.370 1_565 S
C678 C682 1.524 . S
C679 C671 1.503 . S
C679 C678 1.370 1_545 S
C679 C680 1.403 . S
C680 C679 1.403 . S
C680 C681 1.404 . S
C680 C683 1.539 . S
C681 C677 1.408 . S
C681 C680 1.404 . S
C681 H693 0.930 . S
C682 C678 1.524 . S
C682 H694 0.956 . S
C682 H695 0.961 . S
C682 H696 0.961 . S
C683 C680 1.539 . S
C683 H697 0.958 . S
C683 H698 0.961 . S
C683 H699 0.960 . S
H684 C668 0.931 . S
H685 C673 0.929 . S
H686 C674 0.960 . S
H687 C674 0.962 . S
H688 C674 0.960 . S
H689 C675 0.961 . S
H690 C675 0.961 . S
H691 C675 0.961 . S
H692 C676 0.933 . S
H693 C681 0.930 . S
H694 C682 0.956 . S
H695 C682 0.961 . S
H696 C682 0.961 . S
H697 C683 0.958 . S
H698 C683 0.961 . S
H699 C683 0.960 . S
C700 C701 1.391 . S
C700 C702 1.394 . S
C700 H716 0.931 . S
C701 C700 1.391 . S
C701 C705 1.376 . S
C702 C700 1.394 . S
C702 C703 1.369 . S
C702 C706 1.531 . S
C703 C702 1.369 . S
C703 C704 1.410 . S
C703 C711 1.503 . S
C704 C703 1.410 . S
C704 C705 1.392 . S
C704 C707 1.511 . S
C705 C701 1.376 . S
C705 C704 1.392 . S
C705 H717 0.929 . S
C706 C702 1.531 . S
C706 H718 0.960 . S
C706 H719 0.962 . S
C706 H720 0.960 . S
C707 C704 1.511 . S
C707 H721 0.961 . S
C707 H722 0.961 . S
C707 H723 0.961 . S
C708 C709 1.370 . S
C708 C710 1.363 . S
C708 H724 0.931 . S
C709 C708 1.370 . S
C709 C713 1.408 . S
C710 C708 1.363 . S
C710 C711 1.370 . S
C710 C714 1.524 . S
C711 C703 1.503 . S
C711 C710 1.370 . S
C711 C712 1.403 . S
C712 C711 1.403 . S
C712 C713 1.404 . S
C712 C715 1.539 . S
C713 C709 1.408 . S
C713 C712 1.404 . S
C713 H725 0.930 . S
C714 C710 1.524 . S
C714 H726 0.956 . S
C714 H727 0.961 . S
C714 H728 0.961 . S
C715 C712 1.539 . S
C715 H729 0.958 . S
C715 H730 0.961 . S
C715 H731 0.960 . S
H716 C700 0.931 . S
H717 C705 0.929 . S
H718 C706 0.960 . S
H719 C706 0.962 . S
H720 C706 0.960 . S
H721 C707 0.961 . S
H722 C707 0.961 . S
H723 C707 0.961 . S
H724 C708 0.931 . S
H725 C713 0.930 . S
H726 C714 0.956 . S
H727 C714 0.961 . S
H728 C714 0.961 . S
H729 C715 0.958 . S
H730 C715 0.961 . S
H731 C715 0.960 . S
C732 C733 1.391 . S
C732 C734 1.394 . S
C732 H748 0.931 . S
C733 C732 1.391 . S
C733 C737 1.376 1_545 S
C734 C732 1.394 . S
C734 C735 1.369 . S
C734 C738 1.531 . S
C735 C734 1.369 . S
C735 C736 1.410 1_545 S
C735 C743 1.503 . S
C736 C735 1.410 1_565 S
C736 C737 1.392 . S
C736 C739 1.511 . S
C737 C733 1.376 1_565 S
C737 C736 1.392 . S
C737 H749 0.929 . S
C738 C734 1.531 . S
C738 H750 0.960 . S
C738 H751 0.962 . S
C738 H752 0.960 . S
C739 C736 1.511 . S
C739 H753 0.961 . S
C739 H754 0.961 . S
C739 H755 0.940 1_565 S
C740 C741 1.370 1_565 S
C740 C742 1.363 . S
C740 H756 0.931 . S
C741 C740 1.370 1_545 S
C741 C745 1.408 . S
C742 C740 1.363 . S
C742 C743 1.370 1_565 S
C742 C746 1.524 . S
C743 C735 1.503 . S
C743 C742 1.370 1_545 S
C743 C744 1.403 . S
C744 C743 1.403 . S
C744 C745 1.404 . S
C744 C747 1.539 . S
C745 C741 1.408 . S
C745 C744 1.404 . S
C745 H757 0.930 . S
C746 C742 1.524 . S
C746 H758 0.956 . S
C746 H759 0.961 . S
C746 H760 0.961 . S
C747 C744 1.539 . S
C747 H761 0.958 . S
C747 H762 0.961 . S
C747 H763 0.960 . S
H748 C732 0.931 . S
H749 C737 0.929 . S
H750 C738 0.960 . S
H751 C738 0.962 . S
H752 C738 0.960 . S
H753 C739 0.961 . S
H754 C739 0.961 . S
H755 C739 0.940 1_545 S
H756 C740 0.931 . S
H757 C745 0.930 . S
H758 C746 0.956 . S
H759 C746 0.961 . S
H760 C746 0.961 . S
H761 C747 0.958 . S
H762 C747 0.961 . S
H763 C747 0.960 . S
C764 C765 1.391 . S
C764 C766 1.394 . S
C764 H780 0.931 . S
C765 C764 1.391 . S
C765 C769 1.376 . S
C766 C764 1.394 . S
C766 C767 1.369 . S
C766 C770 1.531 . S
C767 C766 1.369 . S
C767 C768 1.410 . S
C767 C775 1.503 . S
C768 C767 1.410 . S
C768 C769 1.392 . S
C768 C771 1.511 . S
C769 C765 1.376 . S
C769 C768 1.392 . S
C769 H781 0.929 . S
C770 C766 1.531 . S
C770 H782 0.960 . S
C770 H783 0.962 . S
C770 H784 0.960 . S
C771 C768 1.511 . S
C771 H785 0.961 . S
C771 H786 0.961 . S
C771 H787 0.961 . S
C772 C773 1.370 1_556 S
C772 C774 1.363 . S
C772 H788 0.931 1_556 S
C773 C772 1.370 1_554 S
C773 C777 1.408 . S
C774 C772 1.363 . S
C774 C775 1.370 . S
C774 C778 1.524 . S
C775 C767 1.503 . S
C775 C774 1.370 . S
C775 C776 1.403 . S
C776 C775 1.403 . S
C776 C777 1.404 1_556 S
C776 C779 1.539 . S
C777 C773 1.408 . S
C777 C776 1.404 1_554 S
C777 H789 0.930 . S
C778 C774 1.524 . S
C778 H790 0.956 . S
C778 H791 0.961 . S
C778 H792 0.961 . S
C779 C776 1.539 . S
C779 H793 0.958 . S
C779 H794 0.961 . S
C779 H795 0.960 . S
H780 C764 0.931 . S
H781 C769 0.929 . S
H782 C770 0.960 . S
H783 C770 0.962 . S
H784 C770 0.960 . S
H785 C771 0.961 . S
H786 C771 0.961 . S
H787 C771 0.961 . S
H788 C772 0.931 1_554 S
H789 C777 0.930 . S
H790 C778 0.956 . S
H791 C778 0.961 . S
H792 C778 0.961 . S
H793 C779 0.958 . S
H794 C779 0.961 . S
H795 C779 0.960 . S
C796 C797 1.394 . S
C796 C798 1.394 . S
C796 H812 0.931 . S
C797 C796 1.394 . S
C797 C801 1.373 1_455 S
C798 C796 1.394 . S
C798 C799 1.369 . S
C798 C802 1.531 . S
C799 C798 1.369 . S
C799 C800 1.410 1_455 S
C799 C807 1.503 . S
C800 C799 1.410 1_655 S
C800 C801 1.392 . S
C800 C803 1.511 . S
C801 C797 1.373 1_655 S
C801 C800 1.392 . S
C801 H813 0.929 . S
C802 C798 1.531 . S
C802 H814 0.960 . S
C802 H815 0.962 . S
C802 H816 0.960 . S
C803 C800 1.511 . S
C803 H817 0.961 . S
C803 H818 0.961 . S
C803 H819 0.961 . S
C804 C805 1.371 1_655 S
C804 C806 1.363 . S
C804 H820 0.930 . S
C805 C804 1.371 1_455 S
C805 C809 1.408 . S
C806 C804 1.363 . S
C806 C807 1.370 1_655 S
C806 C810 1.524 . S
C807 C799 1.503 . S
C807 C806 1.370 1_455 S
C807 C808 1.403 . S
C808 C807 1.403 . S
C808 C809 1.404 . S
C808 C811 1.539 . S
C809 C805 1.408 . S
C809 C808 1.404 . S
C809 H821 0.930 . S
C810 C806 1.524 . S
C810 H822 0.956 1_655 S
C810 H823 0.961 . S
C810 H824 0.961 . S
C811 C808 1.539 . S
C811 H825 0.958 . S
C811 H826 0.961 . S
C811 H827 0.960 . S
H812 C796 0.931 . S
H813 C801 0.929 . S
H814 C802 0.960 . S
H815 C802 0.962 . S
H816 C802 0.960 . S
H817 C803 0.961 . S
H818 C803 0.961 . S
H819 C803 0.961 . S
H820 C804 0.930 . S
H821 C809 0.930 . S
H822 C810 0.956 1_455 S
H823 C810 0.961 . S
H824 C810 0.961 . S
H825 C811 0.958 . S
H826 C811 0.961 . S
H827 C811 0.960 . S
C253 C2 1.353 . S
C261 C243 1.375 . S
C285 C22 1.304 . S
C293 C179 1.413 . S
C317 C44 1.343 . S
C325 C211 1.451 . S
C349 C4 1.550 . S
C357 C237 1.602 . S
C389 C173 1.576 . S
C381 C24 1.505 . S
C421 C205 1.550 . S
C413 C42 1.472 . S
C445 C32 1.307 . S
C453 C115 1.330 . S
C477 C49 1.212 . S
C485 C147 1.255 . S
C509 C9 1.239 . S
C517 C77 1.243 . S
C549 C109 1.242 . S
C541 C29 1.187 . S
C581 C141 1.302 . S
C573 C52 1.255 . S
C605 C12 1.224 . S
C613 C83 1.276 . S
C645 C153 1.427 . S
C637 C18 1.449 1_455 S
C669 C38 1.441 . S
C677 C89 1.398 . S
C701 C58 1.438 . S
C709 C121 1.436 . S
C741 C217 1.475 . S
C733 C39 1.471 . S
C773 C249 1.473 . S
C765 C59 1.488 . S
C797 C19 1.476 . S
C805 C185 1.477 . S
