# Generated by pormake.
# Topology pyr, (3,6)-cn, num edge types: 1
# Building blocks:
#     Node 0, Type 0, BuildingBlock: PAMTOO_clean_linker_0, # of connection points: 3
#     Node 1, Type 0, BuildingBlock: PAMTOO_clean_linker_0, # of connection points: 3
#     Node 2, Type 0, BuildingBlock: PAMTOO_clean_linker_0, # of connection points: 3
#     Node 3, Type 0, BuildingBlock: PAMTOO_clean_linker_0, # of connection points: 3
#     Node 4, Type 0, BuildingBlock: PAMTOO_clean_linker_0, # of connection points: 3
#     Node 5, Type 0, BuildingBlock: PAMTOO_clean_linker_0, # of connection points: 3
#     Node 6, Type 0, BuildingBlock: PAMTOO_clean_linker_0, # of connection points: 3
#     Node 7, Type 0, BuildingBlock: PAMTOO_clean_linker_0, # of connection points: 3
#     Node 8, Type 1, BuildingBlock: FUNLAD_clean_sbu_0, # of connection points: 6
#     Node 9, Type 1, BuildingBlock: FUNLAD_clean_sbu_0, # of connection points: 6
#     Node 10, Type 1, BuildingBlock: FUNLAD_clean_sbu_0, # of connection points: 6
#     Node 11, Type 1, BuildingBlock: FUNLAD_clean_sbu_0, # of connection points: 6
#     Edge 12, Type (0, 1), BuildingBlock: ZUJKAS_clean_linker_0, # of connection points: 2
#     Edge 13, Type (0, 1), BuildingBlock: ZUJKAS_clean_linker_0, # of connection points: 2
#     Edge 14, Type (0, 1), BuildingBlock: ZUJKAS_clean_linker_0, # of connection points: 2
#     Edge 15, Type (0, 1), BuildingBlock: ZUJKAS_clean_linker_0, # of connection points: 2
#     Edge 16, Type (0, 1), BuildingBlock: ZUJKAS_clean_linker_0, # of connection points: 2
#     Edge 17, Type (0, 1), BuildingBlock: ZUJKAS_clean_linker_0, # of connection points: 2
#     Edge 18, Type (0, 1), BuildingBlock: ZUJKAS_clean_linker_0, # of connection points: 2
#     Edge 19, Type (0, 1), BuildingBlock: ZUJKAS_clean_linker_0, # of connection points: 2
#     Edge 20, Type (0, 1), BuildingBlock: ZUJKAS_clean_linker_0, # of connection points: 2
#     Edge 21, Type (0, 1), BuildingBlock: ZUJKAS_clean_linker_0, # of connection points: 2
#     Edge 22, Type (0, 1), BuildingBlock: ZUJKAS_clean_linker_0, # of connection points: 2
#     Edge 23, Type (0, 1), BuildingBlock: ZUJKAS_clean_linker_0, # of connection points: 2
#     Edge 24, Type (0, 1), BuildingBlock: ZUJKAS_clean_linker_0, # of connection points: 2
#     Edge 25, Type (0, 1), BuildingBlock: ZUJKAS_clean_linker_0, # of connection points: 2
#     Edge 26, Type (0, 1), BuildingBlock: ZUJKAS_clean_linker_0, # of connection points: 2
#     Edge 27, Type (0, 1), BuildingBlock: ZUJKAS_clean_linker_0, # of connection points: 2
#     Edge 28, Type (0, 1), BuildingBlock: ZUJKAS_clean_linker_0, # of connection points: 2
#     Edge 29, Type (0, 1), BuildingBlock: ZUJKAS_clean_linker_0, # of connection points: 2
#     Edge 30, Type (0, 1), BuildingBlock: ZUJKAS_clean_linker_0, # of connection points: 2
#     Edge 31, Type (0, 1), BuildingBlock: ZUJKAS_clean_linker_0, # of connection points: 2
#     Edge 32, Type (0, 1), BuildingBlock: ZUJKAS_clean_linker_0, # of connection points: 2
#     Edge 33, Type (0, 1), BuildingBlock: ZUJKAS_clean_linker_0, # of connection points: 2
#     Edge 34, Type (0, 1), BuildingBlock: ZUJKAS_clean_linker_0, # of connection points: 2
#     Edge 35, Type (0, 1), BuildingBlock: ZUJKAS_clean_linker_0, # of connection points: 2
# Relax obj value: 0.147
# Max RMSD: 0.207
# Mean RMSD: 0.133
data_MOF--net-pry--node1-FUNLAD_clean_sbu_0--node2-PAMTOO_clean_linker_0--edge1-ZUJKAS_clean_linker_0
_symmetry_space_group_name_H-M    P1
_symmetry_Int_Tables_number       1
_symmetry_cell_setting            triclinic
loop_
_symmetry_equiv_pos_as_xyz
'x, y, z'
_cell_length_a     44.980961
_cell_length_b     48.600322
_cell_length_c     48.898317
_cell_angle_alpha  89.939455
_cell_angle_beta   90.923362
_cell_angle_gamma 89.876712
loop_
_atom_site_label
_atom_site_type_symbol
_atom_site_fract_x
_atom_site_fract_y
_atom_site_fract_z
_atom_type_partial_charge
H0 H 0.15579 0.21891 0.24461 0.0
H1 H 0.22214 0.15463 0.2398 0.0
H2 H 0.21989 0.2185 0.17986 0.0
H3 H 0.23273 0.16374 0.15822 0.0
C4 C 0.2453 0.15482 0.17592 0.0
O5 O 0.24767 0.17423 0.19652 0.0
H6 H 0.23248 0.13681 0.18334 0.0
C7 C 0.17452 0.20947 0.23461 0.0
C8 C 0.18557 0.2216 0.21042 0.0
C9 C 0.18755 0.18525 0.24588 0.0
C10 C 0.21195 0.17342 0.23228 0.0
C11 C 0.22344 0.18539 0.20861 0.0
C12 C 0.21034 0.20933 0.19791 0.0
H13 H 0.36904 0.92718 0.73366 0.0
H14 H 0.36945 0.8614 0.67455 0.0
H15 H 0.43233 0.86054 0.74097 0.0
H16 H 0.45762 0.84073 0.68967 0.0
C17 C 0.43686 0.83394 0.67903 0.0
O18 O 0.41361 0.83461 0.69718 0.0
H19 H 0.43242 0.84859 0.66191 0.0
C20 C 0.37827 0.90807 0.72624 0.0
C21 C 0.40261 0.89586 0.7404 0.0
C22 C 0.36565 0.89578 0.70257 0.0
C23 C 0.37814 0.87106 0.69295 0.0
C24 C 0.40222 0.85863 0.70665 0.0
C25 C 0.41416 0.87085 0.73036 0.0
H26 H 0.69616 0.41692 0.99117 0.0
H27 H 0.62487 0.44385 0.93777 0.0
H28 H 0.68511 0.50297 0.97203 0.0
H29 H 0.61413 0.52794 0.95236 0.0
C30 C 0.61172 0.50635 0.94519 0.0
O31 O 0.63943 0.49576 0.93952 0.0
H32 H 0.60062 0.49453 0.96168 0.0
C33 C 0.68393 0.43334 0.98104 0.0
C34 C 0.69409 0.4606 0.9834 0.0
C35 C 0.65861 0.42702 0.96502 0.0
C36 C 0.64361 0.44836 0.95118 0.0
C37 C 0.6529 0.47565 0.95421 0.0
C38 C 0.67782 0.48178 0.97046 0.0
H39 H 0.90102 0.65272 0.50042 0.0
H40 H 0.91222 0.56514 0.49223 0.0
H41 H 0.9816 0.61927 0.46719 0.0
H42 H 0.93156 0.55246 0.44462 0.0
C43 C 0.95616 0.55255 0.44762 0.0
O44 O 0.96443 0.568 0.47022 0.0
H45 H 0.96254 0.53082 0.45174 0.0
C46 C 0.91446 0.63517 0.49471 0.0
C47 C 0.94292 0.63943 0.48395 0.0
C48 C 0.90297 0.60849 0.49775 0.0
C49 C 0.92068 0.58591 0.49047 0.0
C50 C 0.94856 0.58991 0.47883 0.0
C51 C 0.95973 0.61656 0.47574 0.0
H52 H 0.87863 0.92111 0.84327 0.0
H53 H 0.88502 0.86007 0.90726 0.0
H54 H 0.94667 0.85851 0.84144 0.0
H55 H 0.92468 0.80267 0.85989 0.0
C56 C 0.92124 0.80743 0.88187 0.0
O57 O 0.93044 0.83416 0.88698 0.0
H58 H 0.89702 0.80558 0.8858 0.0
C59 C 0.8896 0.90346 0.85249 0.0
C60 C 0.91427 0.89164 0.83929 0.0
C61 C 0.87839 0.89225 0.87695 0.0
C62 C 0.89253 0.86877 0.88819 0.0
C63 C 0.91682 0.85643 0.8753 0.0
C64 C 0.92755 0.86786 0.85091 0.0
H65 H 0.74503 0.13462 0.34179 0.0
H66 H 0.67569 0.19591 0.33644 0.0
H67 H 0.73549 0.19535 0.4054 0.0
H68 H 0.67154 0.20289 0.416 0.0
C69 C 0.66651 0.21834 0.39973 0.0
O70 O 0.69042 0.22054 0.38242 0.0
H71 H 0.64677 0.2109 0.38794 0.0
C72 C 0.73337 0.15198 0.35047 0.0
C73 C 0.74355 0.16334 0.3755 0.0
C74 C 0.70892 0.16349 0.33598 0.0
C75 C 0.69464 0.18676 0.34699 0.0
C76 C 0.70427 0.19811 0.37198 0.0
C77 C 0.72859 0.18644 0.38603 0.0
H78 H 0.42347 0.64601 0.07796 0.0
H79 H 0.42611 0.56768 0.11936 0.0
H80 H 0.49847 0.6238 0.12924 0.0
H81 H 0.51553 0.56567 0.12676 0.0
C82 C 0.49789 0.55747 0.14023 0.0
O83 O 0.47629 0.57704 0.14447 0.0
H84 H 0.48783 0.53905 0.13032 0.0
C85 C 0.435 0.63115 0.09085 0.0
C86 C 0.46292 0.63782 0.10229 0.0
C87 C 0.4214 0.60585 0.09674 0.0
C88 C 0.43664 0.58676 0.11343 0.0
C89 C 0.46445 0.59325 0.12479 0.0
C90 C 0.47762 0.61857 0.11912 0.0
H91 H 0.14818 0.41272 0.66597 0.0
H92 H 0.14399 0.49996 0.65189 0.0
H93 H 0.16175 0.44532 0.58523 0.0
H94 H 0.17529 0.52763 0.6194 0.0
C95 C 0.17494 0.51683 0.59934 0.0
O96 O 0.15341 0.4966 0.59927 0.0
H97 H 0.16844 0.53262 0.58391 0.0
C98 C 0.15074 0.43017 0.65239 0.0
C99 C 0.15587 0.42563 0.62451 0.0
C100 C 0.14679 0.45683 0.66267 0.0
C101 C 0.14749 0.47921 0.64452 0.0
C102 C 0.15348 0.47504 0.61677 0.0
C103 C 0.15786 0.44834 0.60683 0.0
C104 C 0.0804 0.05034 0.49223 0.0
N105 N 0.06875 0.08908 0.5674 0.0
C106 C 0.09694 0.09783 0.56276 0.0
C107 C 0.10523 0.12471 0.56872 0.0
C108 C 0.08436 0.14297 0.57954 0.0
C109 C 0.05581 0.13316 0.58552 0.0
C110 C 0.04836 0.10592 0.57911 0.0
Zn111 Zn 0.05809 0.05156 0.55132 0.0
C112 C 1.00031 0.05214 0.52063 0.0
N113 N 0.041 0.97438 0.51334 0.0
C114 C 0.06221 0.95923 0.50068 0.0
C115 C 0.01318 0.9643 0.51704 0.0
C116 C 1.00606 0.93768 0.50875 0.0
C117 C 0.02781 0.92108 0.4967 0.0
C118 C 0.05604 0.93236 0.49211 0.0
Zn119 Zn 0.05075 1.01175 0.53016 0.0
O120 O 0.07792 0.06475 0.51377 0.0
C121 C 0.1085 1.01099 0.56091 0.0
O122 O 0.07132 0.02552 0.49267 0.0
H123 H 0.99667 0.97665 0.52719 0.0
H124 H 0.11279 0.08429 0.55322 0.0
H125 H 0.08421 0.96766 0.49801 0.0
O126 O 0.09978 0.03525 0.56637 0.0
O127 O 0.09233 0.99604 0.5454 0.0
H128 H 0.02601 0.0986 0.58241 0.0
O129 O 0.03042 0.9986 0.56793 0.0
O130 O 0.03761 0.03808 0.58862 0.0
O131 O 1.00914 0.02789 0.51517 0.0
O132 O 0.01641 0.06721 0.53612 0.0
C133 C 0.02802 1.01342 0.58929 0.0
H134 H 0.1276 0.13138 0.5642 0.0
H135 H 0.03908 0.14672 0.59382 0.0
H136 H 0.98385 0.93001 0.51222 0.0
H137 H 0.07351 0.92021 0.48304 0.0
C138 C 0.62167 1.01075 1.01067 0.0
N139 N 0.57933 0.08827 1.00595 0.0
C140 C 0.60698 0.09931 1.00848 0.0
C141 C 0.61222 0.12627 1.00014 0.0
C142 C 0.58873 0.14215 0.98925 0.0
C143 C 0.56067 0.12987 0.98586 0.0
C144 C 0.55643 0.10273 0.9944 0.0
Zn145 Zn 0.57206 0.05055 0.02273 0.0
C146 C 0.53857 1.01276 0.98549 0.0
N147 N 0.55802 0.97269 0.05977 0.0
C148 C 0.58081 0.95892 0.0723 0.0
C149 C 0.53078 0.961 0.0564 0.0
C150 C 0.52591 0.93404 0.06493 0.0
C151 C 0.54928 0.91894 0.07711 0.0
C152 C 0.57689 0.93188 0.08122 0.0
Zn153 Zn 0.56513 1.01033 0.04294 0.0
O154 O 0.61305 0.0353 1.00593 0.0
C155 C 0.59811 0.04818 0.08044 0.0
O156 O 0.60595 0.9956 0.02596 0.0
H157 H 0.51303 0.9723 0.04627 0.0
H158 H 0.62486 0.08746 0.01775 0.0
H159 H 0.60228 0.96866 0.07475 0.0
O160 O 0.59492 0.06363 0.05956 0.0
O161 O 0.58811 0.02372 0.07931 0.0
H162 H 0.53461 0.09353 0.99264 0.0
O163 O 0.52424 0.02546 0.05973 0.0
O164 O 0.53115 0.06519 0.03966 0.0
O165 O 0.54222 0.99733 1.00632 0.0
O166 O 0.54872 0.03719 0.98635 0.0
C167 C 0.5155 0.04996 0.05494 0.0
H168 H 0.63434 0.13475 1.00269 0.0
H169 H 0.54188 0.14142 0.97778 0.0
H170 H 0.50438 0.9248 0.06097 0.0
H171 H 0.5954 0.92111 0.09083 0.0
C172 C 0.56042 0.46873 0.52666 0.0
N173 N 0.55418 0.50103 0.60648 0.0
C174 C 0.54256 0.47735 0.61662 0.0
C175 C 0.54481 0.47156 0.64458 0.0
C176 C 0.55942 0.49018 0.66209 0.0
C177 C 0.57212 0.51392 0.65089 0.0
C178 C 0.56909 0.51904 0.62294 0.0
Zn179 Zn 0.54619 0.51217 0.56683 0.0
C180 C 0.5983 0.53922 0.54195 0.0
N181 N 0.52776 0.53797 0.48519 0.0
C182 C 0.51414 0.51905 0.46883 0.0
C183 C 0.53852 0.56187 0.47479 0.0
C184 C 0.53685 0.56691 0.44665 0.0
C185 C 0.52401 0.54714 0.42916 0.0
C186 C 0.51204 0.52321 0.4407 0.0
Zn187 Zn 0.53573 0.52716 0.52489 0.0
O188 O 0.56105 0.47273 0.55239 0.0
C189 C 0.4834 0.5005 0.54997 0.0
O190 O 0.55069 0.48781 0.51111 0.0
H191 H 0.54934 0.57659 0.48819 0.0
H192 H 0.53079 0.46333 0.60316 0.0
H193 H 0.50599 0.50007 0.47746 0.0
O194 O 0.50201 0.49743 0.56956 0.0
O195 O 0.49164 0.51225 0.52815 0.0
H196 H 0.5778 0.53791 0.61456 0.0
O197 O 0.52108 0.56648 0.53918 0.0
O198 O 0.53141 0.5518 0.58067 0.0
O199 O 0.57984 0.54208 0.5222 0.0
O200 O 0.59011 0.52723 0.56364 0.0
C201 C 0.5219 0.57082 0.56485 0.0
H202 H 0.53492 0.45293 0.65247 0.0
H203 H 0.58322 0.52898 0.66376 0.0
H204 H 0.54602 0.58581 0.43864 0.0
H205 H 0.50238 0.50719 0.42804 0.0
C206 C 0.03531 0.57323 0.03602 0.0
N207 N 0.04171 0.54622 0.11809 0.0
C208 C 0.04813 0.57249 0.12572 0.0
C209 C 0.04191 0.58153 0.15217 0.0
C210 C 0.02919 0.56328 0.17098 0.0
C211 C 0.02305 0.53624 0.16245 0.0
C212 C 0.02927 0.52821 0.13582 0.0
Zn213 Zn 0.05058 0.53233 0.07972 0.0
C214 C 0.99749 0.50364 0.0553 0.0
N215 N 0.06803 0.50103 1.00034 0.0
C216 C 0.08151 0.5195 0.98372 0.0
C217 C 0.06002 0.47565 0.9911 0.0
C218 C 0.06508 0.46828 0.96389 0.0
C219 C 0.0781 0.4874 0.94619 0.0
C220 C 0.08666 0.51313 0.9565 0.0
Zn221 Zn 0.0591 0.51423 0.03893 0.0
O222 O 0.03538 0.57085 0.06196 0.0
C223 C 0.11213 0.54301 0.06326 0.0
O224 O 0.04414 0.55293 0.02188 0.0
H225 H 0.0493 0.46132 1.0047 0.0
H226 H 0.05805 0.58646 0.11126 0.0
H227 H 0.08795 0.53948 0.99146 0.0
O228 O 0.09447 0.54777 0.08273 0.0
O229 O 0.10291 0.52945 0.04263 0.0
H230 H 0.02423 0.50745 0.12936 0.0
O231 O 0.07381 0.47564 0.05644 0.0
O232 O 0.06598 0.49354 0.09679 0.0
O233 O 0.01515 0.49919 0.03575 0.0
O234 O 1.00676 0.51676 0.07622 0.0
C235 C 0.07436 0.47319 0.0824 0.0
H236 H 0.04676 0.60264 0.15769 0.0
H237 H 0.01389 0.52118 0.17628 0.0
H238 H 0.05818 0.44821 0.95659 0.0
H239 H 0.09723 0.52824 0.94358 0.0
H240 H 0.21933 0.15814 0.28654 0.0
H241 H 0.20087 0.1342 0.32649 0.0
H242 H 0.11159 0.16019 0.30592 0.0
H243 H 0.12962 0.18253 0.26458 0.0
H244 H 0.17619 0.1496 0.37054 0.0
H245 H 0.09527 0.08118 0.31843 0.0
H246 H 0.12139 0.10176 0.29981 0.0
H247 H 0.08739 0.11677 0.31193 0.0
C248 C 0.19563 0.15837 0.28998 0.0
C249 C 0.17606 0.17207 0.27164 0.0
C250 C 0.18508 0.1448 0.31323 0.0
C251 C 0.15461 0.14462 0.31923 0.0
C252 C 0.13507 0.15909 0.30155 0.0
H253 H 0.09054 0.10491 0.48269 0.0
H254 H 0.10807 0.12691 0.44121 0.0
C255 C 0.14558 0.1724 0.278 0.0
C256 C 0.14377 0.1299 0.3443 0.0
H257 H 0.09291 0.08301 0.36705 0.0
C258 C 0.15804 0.13496 0.36962 0.0
C259 C 0.12044 0.11025 0.34344 0.0
C260 C 0.10545 0.10192 0.3169 0.0
C261 C 0.14958 0.12143 0.39382 0.0
C262 C 0.12527 0.10284 0.39321 0.0
C263 C 0.11127 0.09742 0.36784 0.0
C264 C 0.11396 0.08907 0.4186 0.0
C265 C 0.1675 0.12675 0.41963 0.0
C266 C 0.11002 0.06032 0.4198 0.0
C267 C 0.09929 0.04757 0.44358 0.0
C268 C 0.09234 0.06325 0.46684 0.0
C269 C 0.09607 0.092 0.46545 0.0
C270 C 0.10636 0.1047 0.44164 0.0
H271 H 0.1905 0.13336 0.41494 0.0
H272 H 0.1569 0.1436 0.43129 0.0
H273 H 0.16879 0.10817 0.43282 0.0
H274 H 0.11543 0.04765 0.40236 0.0
H275 H 0.09655 0.02544 0.44377 0.0
H276 H 0.3743 0.92507 0.78097 0.0
H277 H 0.39631 0.9472 0.82122 0.0
H278 H 0.48279 0.91717 0.79877 0.0
H279 H 0.46139 0.89666 0.75751 0.0
H280 H 0.42334 0.92783 0.86462 0.0
H281 H 0.50334 0.9954 0.81262 0.0
H282 H 0.47479 0.97682 0.79414 0.0
H283 H 0.50909 0.96 0.80393 0.0
C284 C 0.39812 0.92362 0.78414 0.0
C285 C 0.41594 0.90912 0.76554 0.0
C286 C 0.41068 0.93612 0.80746 0.0
C287 C 0.44142 0.93445 0.81297 0.0
C288 C 0.45918 0.91955 0.79477 0.0
H289 H 0.52411 0.95936 0.97365 0.0
H290 H 0.50022 0.94125 0.9323 0.0
C291 C 0.44672 0.90733 0.77129 0.0
C292 C 0.45466 0.9475 0.83813 0.0
H293 H 0.51073 0.98963 0.86084 0.0
C294 C 0.44233 0.9415 0.8637 0.0
C295 C 0.47913 0.96584 0.83717 0.0
C296 C 0.49214 0.97514 0.81046 0.0
C297 C 0.45407 0.95268 0.88815 0.0
C298 C 0.47959 0.96974 0.88733 0.0
C299 C 0.49148 0.97629 0.86171 0.0
C300 C 0.49436 0.9809 0.91269 0.0
C301 C 0.43847 0.94647 0.91455 0.0
C302 C 0.50027 1.00922 0.91533 0.0
C303 C 0.51457 0.01963 0.93888 0.0
C304 C 0.52322 1.00198 0.96043 0.0
C305 C 0.51745 0.97365 0.95767 0.0
C306 C 0.50352 0.96324 0.93402 0.0
H307 H 0.41466 0.94143 0.91082 0.0
H308 H 0.44909 0.92832 0.92445 0.0
H309 H 0.43979 0.96411 0.92892 0.0
H310 H 0.49367 0.02336 0.8992 0.0
H311 H 0.5187 0.04154 0.94024 0.0
H312 H 0.60941 0.54427 0.90412 0.0
H313 H 0.58962 0.53774 0.85767 0.0
H314 H 0.55578 0.45814 0.8806 0.0
H315 H 0.57553 0.46473 0.9272 0.0
H316 H 0.59394 0.45697 0.83645 0.0
H317 H 0.50706 0.53658 0.82064 0.0
H318 H 0.54082 0.55008 0.83533 0.0
H319 H 0.51944 0.52553 0.85426 0.0
C320 C 0.59672 0.52589 0.89947 0.0
C321 C 0.59352 0.50519 0.91923 0.0
C322 C 0.58543 0.52216 0.87298 0.0
C323 C 0.57092 0.4976 0.86581 0.0
C324 C 0.56664 0.47735 0.88584 0.0
H325 H 0.51339 0.47529 0.69467 0.0
H326 H 0.51341 0.47279 0.74478 0.0
C327 C 0.57781 0.48115 0.91239 0.0
C328 C 0.56407 0.49171 0.83672 0.0
H329 H 0.52926 0.51816 0.78001 0.0
C330 C 0.57934 0.47001 0.82419 0.0
C331 C 0.54488 0.50861 0.82084 0.0
C332 C 0.52687 0.53135 0.8335 0.0
C333 C 0.57724 0.46576 0.79588 0.0
C334 C 0.55962 0.48381 0.77976 0.0
C335 C 0.54297 0.5045 0.79246 0.0
C336 C 0.55999 0.48295 0.74957 0.0
C337 C 0.59444 0.44241 0.78333 0.0
C338 C 0.58622 0.48934 0.73582 0.0
C339 C 0.58628 0.49082 0.70732 0.0
C340 C 0.56008 0.48591 0.69209 0.0
C341 C 0.53399 0.47882 0.70589 0.0
C342 C 0.5339 0.47755 0.73445 0.0
H343 H 0.60002 0.42625 0.79867 0.0
H344 H 0.58167 0.43291 0.76617 0.0
H345 H 0.61558 0.45048 0.77514 0.0
H346 H 0.60648 0.49395 0.74718 0.0
H347 H 0.6067 0.49622 0.6972 0.0
H348 H 0.99485 0.52524 0.4146 0.0
H349 H 1.01176 0.53885 0.36949 0.0
H350 H 0.96659 0.61685 0.37746 0.0
H351 H 0.94751 0.60216 0.42161 0.0
H352 H 0.95337 0.59778 0.33154 0.0
H353 H 0.07453 0.58581 0.3403 0.0
H354 H 0.05791 0.55414 0.35064 0.0
H355 H 0.05125 0.58513 0.36999 0.0
C356 C 0.98905 0.54551 0.40695 0.0
C357 C 0.97038 0.56288 0.42188 0.0
C358 C 0.99903 0.55345 0.38124 0.0
C359 C 0.99121 0.57925 0.37022 0.0
C360 C 0.97328 0.59699 0.38558 0.0
H361 H 0.06134 0.59813 0.20448 0.0
H362 H 0.05171 0.60968 0.25219 0.0
C363 C 0.96266 0.58874 0.411 0.0
C364 C 0.99859 0.58599 0.34145 0.0
H365 H 0.05312 0.57835 0.29438 0.0
C366 C 0.97541 0.59417 0.3236 0.0
C367 C 0.02745 0.58219 0.33091 0.0
C368 C 0.05419 0.57667 0.34913 0.0
C369 C 0.97976 0.59648 0.29537 0.0
C370 C 1.00766 0.5892 0.2845 0.0
C371 C 0.03146 0.58325 0.30252 0.0
C372 C 1.01185 0.58498 0.25473 0.0
C373 C 0.95417 0.60631 0.27754 0.0
C374 C 0.99259 0.56743 0.24016 0.0
C375 C 0.99759 0.56136 0.21278 0.0
C376 C 0.02255 0.57197 0.19943 0.0
C377 C 0.04169 0.58984 0.21394 0.0
C378 C 0.03636 0.59629 0.24132 0.0
H379 H 0.94023 0.62136 0.28868 0.0
H380 H 0.96198 0.61612 0.25845 0.0
H381 H 0.93976 0.58857 0.27211 0.0
H382 H 0.97403 0.55773 0.25015 0.0
H383 H 0.98205 0.54794 0.20221 0.0
H384 H 0.28309 0.1812 0.14091 0.0
H385 H 0.32982 0.16393 0.12181 0.0
H386 H 0.32277 0.09047 0.17077 0.0
H387 H 0.27603 0.1076 0.18968 0.0
H388 H 0.3844 0.14725 0.1462 0.0
H389 H 0.32939 0.05988 0.09291 0.0
H390 H 0.30877 0.08835 0.10687 0.0
H391 H 0.32269 0.06153 0.12898 0.0
C392 C 0.2917 0.16147 0.14771 0.0
C393 C 0.2757 0.14556 0.16646 0.0
C394 C 0.31836 0.15159 0.13678 0.0
C395 C 0.32955 0.12558 0.14433 0.0
C396 C 0.31429 0.11028 0.16407 0.0
H397 H 0.47869 0.0242 0.09123 0.0
H398 H 0.43451 0.04296 0.11322 0.0
C399 C 0.28768 0.12016 0.17502 0.0
C400 C 0.35681 0.11427 0.13124 0.0
H401 H 0.38193 0.06109 0.09191 0.0
C402 C 0.38385 0.12846 0.13426 0.0
C403 C 0.3562 0.0897 0.11565 0.0
C404 C 0.32769 0.07405 0.11064 0.0
C405 C 0.41027 0.11853 0.12262 0.0
C406 C 0.40963 0.09401 0.10691 0.0
C407 C 0.38257 0.07983 0.10392 0.0
C408 C 0.43669 0.0827 0.09337 0.0
C409 C 0.43878 0.13408 0.1279 0.0
C410 C 0.45253 0.0985 0.07443 0.0
C411 C 0.4779 0.08784 0.06185 0.0
C412 C 0.48795 0.06096 0.06768 0.0
C413 C 0.47171 0.04497 0.08624 0.0
C414 C 0.44638 0.0557 0.09887 0.0
H415 H 0.43732 0.14727 0.14638 0.0
H416 H 0.45791 0.1198 0.13059 0.0
H417 H 0.44322 0.14766 0.11018 0.0
H418 H 0.44517 0.1191 0.06919 0.0
H419 H 0.48965 0.10072 0.04755 0.0
H420 H 0.31796 0.86972 0.67809 0.0
H421 H 0.27611 0.8902 0.65302 0.0
H422 H 0.31049 0.97121 0.67012 0.0
H423 H 0.35339 0.95087 0.69391 0.0
H424 H 0.2327 0.92331 0.66908 0.0
H425 H 0.29627 0.97745 0.58926 0.0
H426 H 0.31325 0.95253 0.612 0.0
H427 H 0.30716 0.98731 0.6233 0.0
C428 C 0.31704 0.8919 0.67614 0.0
C429 C 0.33947 0.90852 0.6879 0.0
C430 C 0.29283 0.90362 0.66195 0.0
C431 C 0.29026 0.9323 0.65912 0.0
C432 C 0.31222 0.94902 0.67133 0.0
H433 H 0.15075 0.03874 0.59107 0.0
H434 H 0.19482 0.01974 0.61448 0.0
C435 C 0.3366 0.9373 0.68536 0.0
C436 C 0.26423 0.94453 0.64399 0.0
H437 H 0.2446 0.98773 0.59129 0.0
C438 C 0.23538 0.93727 0.65199 0.0
C439 C 0.26753 0.96279 0.6216 0.0
C440 C 0.29771 0.97029 0.61083 0.0
C441 C 0.20996 0.94795 0.63854 0.0
C442 C 0.21331 0.9663 0.61632 0.0
C443 C 0.24205 0.97371 0.60836 0.0
C444 C 0.18716 0.97792 0.60112 0.0
C445 C 0.17961 0.93987 0.64845 0.0
C446 C 0.16849 0.96084 0.58534 0.0
C447 C 0.14338 0.97166 0.57174 0.0
C448 C 0.1363 0.99983 0.57372 0.0
C449 C 0.15542 0.01697 0.58913 0.0
C450 C 0.18066 1.00615 0.60253 0.0
H451 H 0.18072 0.93011 0.669 0.0
H452 H 0.16474 0.9581 0.64934 0.0
H453 H 0.16951 0.92493 0.63391 0.0
H454 H 0.17326 0.93906 0.58367 0.0
H455 H 0.12922 0.95784 0.56008 0.0
H456 H 0.71641 0.43884 0.03142 0.0
H457 H 0.76647 0.44508 0.05098 0.0
H458 H 0.78731 0.50127 0.98577 0.0
H459 H 0.73774 0.49493 0.96594 0.0
H460 H 0.81964 0.43285 0.02453 0.0
H461 H 0.81546 0.54269 0.05429 0.0
H462 H 0.78239 0.52272 0.04727 0.0
H463 H 0.80333 0.53697 0.01962 0.0
C464 C 0.7316 0.45268 0.02138 0.0
C465 C 0.72304 0.46648 0.99718 0.0
C466 C 0.76011 0.45628 0.03263 0.0
C467 C 0.7804 0.4739 0.02 0.0
C468 C 0.77174 0.48808 0.99618 0.0
H469 H 0.96925 0.47854 1.01214 0.0
H470 H 0.91619 0.46873 1.00711 0.0
C471 C 0.74334 0.48447 0.98491 0.0
C472 C 0.81136 0.47611 0.0304 0.0
H473 H 0.86404 0.52284 0.04979 0.0
C474 C 0.82929 0.45244 0.03046 0.0
C475 C 0.82376 0.5016 0.03843 0.0
C476 C 0.80516 0.5274 0.04019 0.0
C477 C 0.85972 0.45385 0.03709 0.0
C478 C 0.8725 0.47968 0.04341 0.0
C479 C 0.85425 0.50309 0.04465 0.0
C480 C 0.90493 0.48323 0.0475 0.0
C481 C 0.87794 0.42776 0.03701 0.0
C482 C 0.91615 0.49481 0.0718 0.0
C483 C 0.94643 0.50063 0.07467 0.0
C484 C 0.966 0.49513 0.05318 0.0
C485 C 0.95479 0.48292 0.02911 0.0
C486 C 0.9245 0.47713 0.02626 0.0
H487 H 0.86381 0.40932 0.04008 0.0
H488 H 0.88884 0.42563 0.01692 0.0
H489 H 0.89552 0.42817 0.05321 0.0
H490 H 0.90137 0.49979 0.08837 0.0
H491 H 0.95434 0.51002 0.09349 0.0
H492 H 0.8817 0.56853 0.53194 0.0
H493 H 0.82967 0.55876 0.54225 0.0
H494 H 0.80188 0.62895 0.49427 0.0
H495 H 0.85362 0.63848 0.48315 0.0
H496 H 0.77344 0.61999 0.55007 0.0
H497 H 0.77075 0.53102 0.47833 0.0
H498 H 0.80133 0.53263 0.50249 0.0
H499 H 0.79805 0.55809 0.47603 0.0
C500 C 0.86454 0.58191 0.52359 0.0
C501 C 0.87185 0.6042 0.50659 0.0
C502 C 0.83489 0.57638 0.52962 0.0
C503 C 0.8121 0.59307 0.51886 0.0
C504 C 0.81928 0.61592 0.50281 0.0
H505 H 0.62461 0.56053 0.49663 0.0
H506 H 0.67632 0.5751 0.49206 0.0
C507 C 0.84888 0.6214 0.49663 0.0
C508 C 0.78064 0.58582 0.52299 0.0
H509 H 0.72738 0.53971 0.50334 0.0
C510 C 0.76331 0.60241 0.53997 0.0
C511 C 0.76759 0.56308 0.50945 0.0
C512 C 0.78521 0.54518 0.49038 0.0
C513 C 0.73311 0.5966 0.54399 0.0
C514 C 0.72018 0.57364 0.53071 0.0
C515 C 0.73749 0.55723 0.51355 0.0
C516 C 0.6886 0.56629 0.53412 0.0
C517 C 0.71511 0.61525 0.56201 0.0
C518 C 0.67851 0.5565 0.55929 0.0
C519 C 0.64904 0.548 0.56196 0.0
C520 C 0.62918 0.54919 0.53946 0.0
C521 C 0.63932 0.55939 0.51436 0.0
C522 C 0.66883 0.56771 0.51169 0.0
H523 H 0.7268 0.6349 0.56646 0.0
H524 H 0.69321 0.61993 0.55225 0.0
H525 H 0.71096 0.60469 0.58171 0.0
H526 H 0.6936 0.55492 0.57672 0.0
H527 H 0.64192 0.54026 0.58157 0.0
H528 H 0.17582 0.23334 0.156 0.0
H529 H 0.15643 0.27559 0.13534 0.0
H530 H 0.14393 0.31018 0.21543 0.0
H531 H 0.16361 0.26783 0.23641 0.0
H532 H 0.09581 0.32043 0.17999 0.0
H533 H 0.2009 0.34805 0.12929 0.0
H534 H 0.18792 0.31417 0.12086 0.0
H535 H 0.19915 0.32194 0.15547 0.0
C536 C 0.16923 0.24996 0.16935 0.0
C537 C 0.17176 0.24708 0.198 0.0
C538 C 0.15812 0.27423 0.15742 0.0
C539 C 0.14927 0.29651 0.1737 0.0
C540 C 0.15078 0.29345 0.20232 0.0
H541 H 0.07818 0.46153 0.13735 0.0
H542 H 0.09569 0.41926 0.15954 0.0
C543 C 0.16194 0.26909 0.21433 0.0
C544 C 0.13841 0.3228 0.16077 0.0
H545 H 0.15812 0.37403 0.11641 0.0
C546 C 0.10953 0.33223 0.16624 0.0
C547 C 0.15616 0.33835 0.1427 0.0
C548 C 0.18785 0.33031 0.13689 0.0
C549 C 0.09774 0.35617 0.15371 0.0
C550 C 0.11545 0.37164 0.13552 0.0
C551 C 0.14438 0.36227 0.13019 0.0
C552 C 0.10451 0.39757 0.12189 0.0
C553 C 0.06605 0.36421 0.1595 0.0
C554 C 0.10427 0.4001 0.09321 0.0
C555 C 0.09441 0.42446 0.08037 0.0
C556 C 0.08472 0.44708 0.0959 0.0
C557 C 0.08525 0.44458 0.12463 0.0
C558 C 0.0951 0.42023 0.13742 0.0
H559 H 0.05303 0.34651 0.16724 0.0
H560 H 0.06598 0.38047 0.17541 0.0
H561 H 0.05471 0.37245 0.14087 0.0
H562 H 0.11156 0.38309 0.08067 0.0
H563 H 0.09444 0.42555 0.05825 0.0
H564 H 0.69223 0.38038 0.95909 0.0
H565 H 0.67504 0.3328 0.95793 0.0
H566 H 0.58417 0.36066 0.9628 0.0
H567 H 0.60127 0.40836 0.96518 0.0
H568 H 0.59646 0.32076 0.99943 0.0
H569 H 0.63556 0.28828 0.89779 0.0
H570 H 0.66496 0.30298 0.91817 0.0
H571 H 0.63369 0.32397 0.90787 0.0
C572 C 0.66858 0.37641 0.95997 0.0
C573 C 0.64813 0.39817 0.96241 0.0
C574 C 0.65876 0.34921 0.95885 0.0
C575 C 0.62829 0.34321 0.95978 0.0
C576 C 0.60777 0.36487 0.96178 0.0
H577 H 0.56668 0.17202 0.94565 0.0
H578 H 0.57274 0.22144 0.93713 0.0
C579 C 0.61757 0.39211 0.96302 0.0
C580 C 0.61816 0.31427 0.961 0.0
H581 H 0.62482 0.25185 0.92968 0.0
C582 C 0.60227 0.30578 0.98397 0.0
C583 C 0.62532 0.29481 0.94061 0.0
C584 C 0.64054 0.30303 0.91458 0.0
C585 C 0.59469 0.27811 0.9878 0.0
C586 C 0.60379 0.25836 0.96841 0.0
C587 C 0.61826 0.26701 0.94471 0.0
C588 C 0.60003 0.22853 0.97327 0.0
C589 C 0.5773 0.27023 1.01274 0.0
C590 C 0.61379 0.21619 0.9961 0.0
C591 C 0.61025 0.18816 1.00109 0.0
C592 C 0.59312 0.17179 0.98316 0.0
C593 C 0.57974 0.18413 0.95999 0.0
C594 C 0.58329 0.21229 0.95503 0.0
H595 H 0.56434 0.28795 0.02062 0.0
H596 H 0.56177 0.25304 1.00821 0.0
H597 H 0.59297 0.26351 0.0292 0.0
H598 H 0.62726 0.22828 1.01015 0.0
H599 H 0.62054 0.17943 0.01931 0.0
H600 H 0.93907 0.6815 0.52059 0.0
H601 H 0.95567 0.72893 0.5151 0.0
H602 H 0.99069 0.70916 0.43594 0.0
H603 H 0.97351 0.66151 0.44097 0.0
H604 H 0.02954 0.74194 0.47409 0.0
H605 H 0.91581 0.7844 0.45931 0.0
H606 H 0.91986 0.76154 0.48806 0.0
H607 H 0.92456 0.74851 0.45401 0.0
C608 C 0.95007 0.68723 0.50189 0.0
C609 C 0.95466 0.6678 0.48109 0.0
C610 C 0.95963 0.7143 0.49884 0.0
C611 C 0.97398 0.72253 0.47497 0.0
C612 C 0.9795 0.70312 0.45446 0.0
H613 H 0.04377 0.89102 0.45155 0.0
H614 H 0.03236 0.84253 0.44196 0.0
C615 C 0.96981 0.67594 0.45744 0.0
C616 C 0.98286 0.75159 0.47175 0.0
H617 H 0.95402 0.81653 0.47117 0.0
C618 C 0.01316 0.75833 0.47291 0.0
C619 C 0.96133 0.77275 0.47006 0.0
C620 C 0.92856 0.76652 0.46753 0.0
C621 C 0.02242 0.78591 0.47425 0.0
C622 C 1.00075 0.80704 0.47407 0.0
C623 C 0.97056 0.80023 0.47142 0.0
C624 C 1.00852 0.83609 0.47951 0.0
C625 C 0.05511 0.79224 0.47739 0.0
C626 C 0.9987 0.84844 0.50362 0.0
C627 C 1.00513 0.87593 0.50912 0.0
C628 C 0.02138 0.89176 0.49052 0.0
C629 C 0.0314 0.8793 0.46637 0.0
C630 C 0.02492 0.85165 0.46086 0.0
H631 H 0.06867 0.77339 0.48087 0.0
H632 H 0.06297 0.80249 0.45856 0.0
H633 H 0.05896 0.80658 0.49476 0.0
H634 H 0.98612 0.83671 0.51831 0.0
H635 H 0.9976 0.88469 0.52816 0.0
H636 H 0.46113 0.78901 0.70526 0.0
H637 H 0.4732 0.74374 0.68581 0.0
H638 H 0.43496 0.76897 0.60833 0.0
H639 H 0.42301 0.81415 0.62767 0.0
H640 H 0.43677 0.70282 0.65962 0.0
H641 H 0.52038 0.74564 0.58896 0.0
H642 H 0.50611 0.76495 0.61744 0.0
H643 H 0.48421 0.7613 0.58661 0.0
C644 C 0.45511 0.78473 0.68416 0.0
C645 C 0.44147 0.80518 0.66789 0.0
C646 C 0.46202 0.75892 0.67305 0.0
C647 C 0.45555 0.75311 0.64543 0.0
C648 C 0.44076 0.77313 0.6295 0.0
H649 H 0.49643 0.61481 0.5378 0.0
H650 H 0.47918 0.65831 0.55737 0.0
C651 C 0.43378 0.79889 0.64061 0.0
C652 C 0.46476 0.72637 0.63315 0.0
H653 H 0.50944 0.69832 0.5845 0.0
C654 C 0.4527 0.70181 0.64324 0.0
C655 C 0.4855 0.72502 0.61169 0.0
C656 C 0.50005 0.75057 0.60062 0.0
C657 C 0.46044 0.67604 0.6322 0.0
C658 C 0.48142 0.67466 0.6109 0.0
C659 C 0.49337 0.69927 0.60076 0.0
C660 C 0.4916 0.64795 0.59908 0.0
C661 C 0.44549 0.65061 0.64308 0.0
C662 C 0.50479 0.62767 0.61583 0.0
C663 C 0.51456 0.60273 0.60472 0.0
C664 C 0.51171 0.59752 0.57646 0.0
C665 C 0.49894 0.61803 0.55963 0.0
C666 C 0.48905 0.64296 0.57081 0.0
H667 H 0.42406 0.65566 0.65292 0.0
H668 H 0.4412 0.63542 0.62655 0.0
H669 H 0.46018 0.64087 0.65878 0.0
H670 H 0.50783 0.63121 0.63756 0.0
H671 H 0.5245 0.58757 0.61832 0.0
H672 H 0.93391 0.86573 0.79268 0.0
H673 H 0.95296 0.88676 0.75083 0.0
H674 H 0.94029 0.96737 0.78536 0.0
H675 H 0.92161 0.94656 0.82732 0.0
H676 H 0.92377 0.92559 0.71462 0.0
H677 H 0.02748 0.96905 0.75974 0.0
H678 H 1.00639 0.94254 0.77653 0.0
H679 H 0.99397 0.97768 0.77737 0.0
C680 C 0.93544 0.88793 0.79153 0.0
C681 C 0.92619 0.90435 0.81359 0.0
C682 C 0.9462 0.89996 0.76745 0.0
C683 C 0.94845 0.92871 0.76489 0.0
C684 C 0.93922 0.94516 0.78683 0.0
H685 H 0.01521 0.03964 0.63778 0.0
H686 H 0.99493 0.0195 0.67955 0.0
C687 C 0.92823 0.93317 0.8108 0.0
C688 C 0.95988 0.94152 0.73916 0.0
H689 H 0.01584 0.98152 0.71404 0.0
C690 C 0.94397 0.93772 0.71448 0.0
C691 C 0.98612 0.9576 0.73886 0.0
C692 C 1.0047 0.96186 0.76445 0.0
C693 C 0.95321 0.94985 0.68978 0.0
C694 C 0.97972 0.96567 0.68934 0.0
C695 C 0.99557 0.96949 0.71411 0.0
C696 C 0.99158 0.97811 0.66349 0.0
C697 C 0.93385 0.9462 0.66456 0.0
C698 C 0.9969 0.96174 0.64036 0.0
C699 C 1.00822 0.97328 0.61633 0.0
C700 C 0.01507 1.00153 0.61478 0.0
C701 C 1.01012 0.01787 0.63806 0.0
C702 C 0.99855 1.00632 0.66206 0.0
H703 H 0.91045 0.94171 0.66996 0.0
H704 H 0.9341 0.96483 0.6514 0.0
H705 H 0.94221 0.92852 0.65256 0.0
H706 H 0.99269 0.93982 0.64093 0.0
H707 H 1.01201 0.95989 0.59903 0.0
H708 H 0.70239 0.10885 0.32275 0.0
H709 H 0.68526 0.08896 0.27924 0.0
H710 H 0.67399 0.17036 0.24557 0.0
H711 H 0.69144 0.19042 0.28887 0.0
H712 H 0.62924 0.09831 0.25108 0.0
H713 H 0.72519 0.1298 0.1883 0.0
H714 H 0.72682 0.12918 0.22523 0.0
H715 H 0.70821 0.15689 0.20762 0.0
C716 C 0.69656 0.12255 0.30602 0.0
C717 C 0.69844 0.15129 0.30939 0.0
C718 C 0.6866 0.11112 0.28117 0.0
C719 C 0.67864 0.1281 0.25895 0.0
C720 C 0.68038 0.15678 0.26224 0.0
H721 H 0.61527 0.10117 0.09174 0.0
H722 H 0.63459 0.11971 0.13497 0.0
C723 C 0.69012 0.16824 0.28715 0.0
C724 C 0.6679 0.11585 0.23258 0.0
H725 H 0.68413 0.11008 0.1647 0.0
C726 C 0.64131 0.10076 0.23221 0.0
C727 C 0.68353 0.11914 0.2079 0.0
C728 C 0.71266 0.13443 0.20714 0.0
C729 C 0.6296 0.08941 0.20781 0.0
C730 C 0.64533 0.09252 0.18307 0.0
C731 C 0.67201 0.10758 0.18353 0.0
C732 C 0.63427 0.08078 0.15648 0.0
C733 C 0.59995 0.07499 0.20868 0.0
C734 C 0.62818 0.05252 0.15373 0.0
C735 C 0.61689 0.04185 0.129 0.0
C736 C 0.61181 0.0591 0.10624 0.0
C737 C 0.61884 0.08722 0.10878 0.0
C738 C 0.62992 0.0979 0.13356 0.0
H739 H 0.58697 0.08137 0.22675 0.0
H740 H 0.58646 0.07924 0.18993 0.0
H741 H 0.60369 0.05246 0.21016 0.0
H742 H 0.63211 0.03864 0.17075 0.0
H743 H 0.61199 0.02007 0.12779 0.0
H744 H 0.47495 0.52211 0.17746 0.0
H745 H 0.48762 0.51936 0.22626 0.0
H746 H 0.56098 0.57492 0.21427 0.0
H747 H 0.54772 0.57833 0.16552 0.0
H748 H 0.53671 0.50565 0.258 0.0
H749 H 0.50917 0.61691 0.26728 0.0
H750 H 0.50141 0.59755 0.23657 0.0
H751 H 0.53857 0.60913 0.24411 0.0
C752 C 0.49434 0.53301 0.18515 0.0
C753 C 0.51061 0.55015 0.16782 0.0
C754 C 0.50147 0.53156 0.21299 0.0
C755 C 0.52487 0.54737 0.22393 0.0
C756 C 0.54249 0.56298 0.20629 0.0
H757 H 0.56926 0.56745 0.39818 0.0
H758 H 0.57202 0.56853 0.34819 0.0
C759 C 0.53518 0.56463 0.17845 0.0
C760 C 0.52889 0.54922 0.25397 0.0
H761 H 0.52294 0.59363 0.30777 0.0
C762 C 0.53399 0.52492 0.26887 0.0
C763 C 0.52504 0.5744 0.26809 0.0
C764 C 0.51798 0.60097 0.25329 0.0
C765 C 0.53491 0.52508 0.29755 0.0
C766 C 0.53057 0.55012 0.31155 0.0
C767 C 0.52636 0.57453 0.29677 0.0
C768 C 0.5284 0.55096 0.34157 0.0
C769 C 0.53996 0.49846 0.31283 0.0
C770 C 0.50259 0.54148 0.35412 0.0
C771 C 0.50071 0.54122 0.38256 0.0
C772 C 0.52472 0.55031 0.39896 0.0
C773 C 0.55023 0.56061 0.38619 0.0
C774 C 0.55199 0.56102 0.35767 0.0
H775 H 0.54765 0.48172 0.29917 0.0
H776 H 0.55665 0.50138 0.32956 0.0
H777 H 0.51884 0.49192 0.32227 0.0
H778 H 0.48402 0.53399 0.34187 0.0
H779 H 0.48055 0.53361 0.39172 0.0
H780 H 0.17347 0.4307 0.70603 0.0
H781 H 0.1604 0.43366 0.75421 0.0
H782 H 0.09452 0.49552 0.73457 0.0
H783 H 0.10649 0.49175 0.68608 0.0
H784 H 0.16226 0.47611 0.78991 0.0
H785 H 0.04617 0.43971 0.77639 0.0
H786 H 0.07327 0.43711 0.7497 0.0
H787 H 0.05453 0.46922 0.75582 0.0
C788 C 0.15601 0.44478 0.71192 0.0
C789 C 0.14073 0.46073 0.69217 0.0
C790 C 0.14871 0.44655 0.73948 0.0
C791 C 0.12604 0.46433 0.74787 0.0
C792 C 0.11157 0.48114 0.72841 0.0
H793 H 0.0632 0.51956 0.9026 0.0
H794 H 0.07445 0.51154 0.85446 0.0
C795 C 0.11874 0.47926 0.70077 0.0
C796 C 0.11777 0.46534 0.77703 0.0
H797 H 0.05939 0.45785 0.82023 0.0
C798 C 0.13984 0.47189 0.79656 0.0
C799 C 0.08853 0.45956 0.78565 0.0
C800 C 0.06432 0.45073 0.76584 0.0
C801 C 0.13323 0.4736 0.82444 0.0
C802 C 0.10388 0.46858 0.83288 0.0
C803 C 0.08187 0.46167 0.81351 0.0
C804 C 0.09537 0.47205 0.86165 0.0
C805 C 0.15739 0.48142 0.84471 0.0
C806 C 0.10294 0.45214 0.88136 0.0
C807 C 0.09641 0.45659 0.90889 0.0
C808 C 0.08253 0.48114 0.91695 0.0
C809 C 0.07424 0.50061 0.89694 0.0
C810 C 0.08051 0.49604 0.8695 0.0
H811 H 0.17855 0.48672 0.83457 0.0
H812 H 0.15014 0.49927 0.85711 0.0
H813 H 0.16162 0.46399 0.85894 0.0
H814 H 0.11437 0.43346 0.87551 0.0
H815 H 0.10312 0.44134 0.92395 0.0
H816 H 0.8636 0.94728 0.88135 0.0
H817 H 0.82076 0.96774 0.90401 0.0
H818 H 0.79069 0.88703 0.92711 0.0
H819 H 0.83294 0.86629 0.90397 0.0
H820 H 0.75837 0.95824 0.89438 0.0
H821 H 0.79271 0.92979 1.00025 0.0
H822 H 0.8182 0.92932 0.97209 0.0
H823 H 0.79203 0.90182 0.97624 0.0
C824 C 0.84778 0.93376 0.89098 0.0
C825 C 0.85207 0.90499 0.89079 0.0
C826 C 0.82332 0.94557 0.90411 0.0
C827 C 0.80264 0.92901 0.91768 0.0
C828 C 0.80662 0.90034 0.91733 0.0
H829 H 0.64276 0.95772 1.01215 0.0
H830 H 0.68623 0.93879 0.9893 0.0
C831 C 0.83095 0.88849 0.90408 0.0
C832 C 0.7767 0.94165 0.93181 0.0
H833 H 0.74453 0.94883 0.99438 0.0
C834 C 0.75542 0.95632 0.91627 0.0
C835 C 0.77269 0.93907 0.96037 0.0
C836 C 0.7952 0.92436 0.97834 0.0
C837 C 0.72999 0.96787 0.92833 0.0
C838 C 0.726 0.96541 0.95696 0.0
C839 C 0.74742 0.95082 0.97249 0.0
C840 C 0.69961 0.97736 0.97114 0.0
C841 C 0.70717 0.98178 0.91004 0.0
C842 C 0.69267 1.00555 0.96913 0.0
C843 C 0.6676 0.01645 0.98208 0.0
C844 C 0.64902 0.99951 0.99772 0.0
C845 C 0.65645 0.97144 1.00029 0.0
C846 C 0.6814 0.96054 0.98719 0.0
H847 H 0.70898 0.9749 0.88847 0.0
H848 H 0.68424 0.97761 0.91701 0.0
H849 H 0.71087 1.00434 0.9105 0.0
H850 H 0.70671 0.01923 0.95758 0.0
H851 H 0.66278 0.03818 0.97979 0.0
H852 H 0.78787 0.19058 0.40388 0.0
H853 H 0.83016 0.17092 0.42919 0.0
H854 H 0.80181 0.08934 0.40649 0.0
H855 H 0.759 0.10872 0.38159 0.0
H856 H 0.82977 0.1321 0.47348 0.0
H857 H 0.89002 0.09186 0.38359 0.0
H858 H 0.86071 0.11718 0.38048 0.0
H859 H 0.85177 0.08159 0.38582 0.0
C860 C 0.79037 0.16842 0.40441 0.0
C861 C 0.76983 0.1513 0.39057 0.0
C862 C 0.81473 0.15722 0.41881 0.0
C863 C 0.81941 0.12867 0.41952 0.0
C864 C 0.799 0.11147 0.40583 0.0
H865 H 0.95881 0.02413 0.48995 0.0
H866 H 0.91432 0.04249 0.46695 0.0
C867 C 0.77453 0.12263 0.39151 0.0
C868 C 0.84538 0.11694 0.43494 0.0
H869 H 0.90978 0.08048 0.42722 0.0
C870 C 0.84732 0.12086 0.46338 0.0
C871 C 0.86822 0.10219 0.42179 0.0
C872 C 0.86786 0.09807 0.39121 0.0
C873 C 0.87118 0.11007 0.47905 0.0
C874 C 0.89423 0.09552 0.46587 0.0
C875 C 0.8922 0.09158 0.43741 0.0
C876 C 0.9207 0.08428 0.48108 0.0
C877 C 0.87101 0.11379 0.50968 0.0
C878 C 0.93931 0.10156 0.49676 0.0
C879 C 0.96471 0.09105 0.51017 0.0
C880 C 0.97234 0.06304 0.50791 0.0
C881 C 0.95364 0.04578 0.49222 0.0
C882 C 0.92818 0.05628 0.47898 0.0
H883 H 0.84819 0.11767 0.51718 0.0
H884 H 0.88022 0.09542 0.52038 0.0
H885 H 0.88489 0.13183 0.51527 0.0
H886 H 0.93457 0.12336 0.49819 0.0
H887 H 0.97871 0.10502 0.52181 0.0
H888 H 0.37499 0.64213 0.09763 0.0
H889 H 0.32246 0.63259 0.0888 0.0
H890 H 0.34383 0.54843 0.06921 0.0
H891 H 0.39669 0.55786 0.07771 0.0
H892 H 0.29139 0.61131 0.04205 0.0
H893 H 0.28461 0.54316 0.13313 0.0
H894 H 0.31552 0.56604 0.12766 0.0
H895 H 0.31293 0.53418 0.10919 0.0
C896 C 0.36867 0.62173 0.09084 0.0
C897 C 0.39003 0.60071 0.08841 0.0
C898 C 0.33861 0.6163 0.08598 0.0
C899 C 0.32932 0.58974 0.07877 0.0
C900 C 0.3506 0.56896 0.07523 0.0
H901 H 0.15457 0.53695 0.02446 0.0
H902 H 0.20691 0.54986 0.02778 0.0
C903 C 0.38073 0.57437 0.08007 0.0
C904 C 0.29724 0.58365 0.07614 0.0
H905 H 0.24152 0.54662 0.105 0.0
C906 C 0.28043 0.59716 0.05575 0.0
C907 C 0.28304 0.56555 0.09441 0.0
C908 C 0.29982 0.55154 0.11751 0.0
C909 C 0.24973 0.59268 0.05288 0.0
C910 C 0.23569 0.57402 0.07071 0.0
C911 C 0.25244 0.56082 0.09131 0.0
C912 C 0.20367 0.56758 0.0682 0.0
C913 C 0.23249 0.60825 0.03111 0.0
C914 C 0.18461 0.57298 0.08999 0.0
C915 C 0.15466 0.5655 0.08825 0.0
C916 C 0.14337 0.55229 0.06474 0.0
C917 C 0.16253 0.54716 0.04285 0.0
C918 C 0.19242 0.55467 0.04461 0.0
H919 H 0.24479 0.62667 0.02402 0.0
H920 H 0.22865 0.5946 1.01323 0.0
H921 H 0.2105 0.61491 0.03875 0.0
H922 H 0.19298 0.58281 0.10843 0.0
H923 H 0.14049 0.56969 0.10547 0.0
H924 H 0.21457 0.49228 0.6348 0.0
H925 H 0.2664 0.47954 0.62637 0.0
H926 H 0.25578 0.50432 0.54202 0.0
H927 H 0.20363 0.51618 0.55022 0.0
H928 H 0.29156 0.45761 0.54849 0.0
H929 H 0.32678 0.54131 0.61924 0.0
H930 H 0.30343 0.51577 0.63438 0.0
H931 H 0.28882 0.53742 0.60749 0.0
C932 C 0.22323 0.49451 0.61437 0.0
C933 C 0.20543 0.50565 0.59324 0.0
C934 C 0.25281 0.4874 0.60961 0.0
C935 C 0.26512 0.49167 0.58375 0.0
C936 C 0.24677 0.50108 0.56218 0.0
H937 H 0.43753 0.5055 0.51283 0.0
H938 H 0.38462 0.49848 0.52095 0.0
C939 C 0.21709 0.50793 0.56688 0.0
C940 C 0.29752 0.48849 0.57965 0.0
H941 H 0.36469 0.51472 0.59983 0.0
C942 C 0.3076 0.46998 0.55979 0.0
C943 C 0.31838 0.5048 0.59432 0.0
C944 C 0.30889 0.52613 0.61487 0.0
C945 C 0.33804 0.46732 0.55424 0.0
C946 C 0.35877 0.48381 0.56876 0.0
C947 C 0.34872 0.50195 0.5889 0.0
C948 C 0.39088 0.48398 0.56251 0.0
C949 C 0.3478 0.44689 0.53298 0.0
C950 C 0.41197 0.47804 0.58314 0.0
C951 C 0.44223 0.48217 0.57862 0.0
C952 C 0.45192 0.49259 0.55345 0.0
C953 C 0.43082 0.49745 0.53244 0.0
C954 C 0.40056 0.49325 0.53697 0.0
H955 H 0.33068 0.43081 0.52927 0.0
H956 H 0.35146 0.45785 0.51341 0.0
H957 H 0.36899 0.43676 0.53924 0.0
H958 H 0.40492 0.47103 0.60305 0.0
H959 H 0.45788 0.47817 0.59523 0.0
H960 H 0.92088 0.80244 0.93805 0.0
H961 H 0.94263 0.76557 0.9666 0.0
H962 H 0.97829 0.72751 0.89454 0.0
H963 H 0.95719 0.76446 0.86627 0.0
H964 H 0.93092 0.71106 0.9658 0.0
H965 H 0.05021 0.72493 0.94415 0.0
H966 H 0.02263 0.75054 0.93514 0.0
H967 H 0.02826 0.7211 0.91347 0.0
C968 C 0.93396 0.78651 0.92846 0.0
C969 C 0.93766 0.78663 0.89994 0.0
C970 C 0.94624 0.76531 0.94475 0.0
C971 C 0.96263 0.74378 0.93293 0.0
C972 C 0.96653 0.74411 0.90444 0.0
H973 H 0.03616 0.58549 0.98129 0.0
H974 H 0.01857 0.6272 0.95812 0.0
C975 C 0.95432 0.76527 0.8882 0.0
C976 C 0.97418 0.7202 0.94999 0.0
H977 H 0.03665 0.68207 0.96457 0.0
C978 C 0.95412 0.70497 0.96576 0.0
C979 C 1.00448 0.712 0.95008 0.0
C980 C 0.02769 0.72817 0.93502 0.0
C981 C 0.96322 0.68145 0.9807 0.0
C982 C 0.99337 0.67294 0.98029 0.0
C983 C 0.01352 0.6884 0.96488 0.0
C984 C 1.00428 0.64761 0.99494 0.0
C985 C 0.94021 0.6653 0.99603 0.0
C986 C 1.00257 0.64507 0.02355 0.0
C987 C 0.01275 0.62111 0.03698 0.0
C988 C 0.02491 0.59908 0.02211 0.0
C989 C 0.02686 0.60187 0.9935 0.0
C990 C 0.01683 0.62582 0.98015 0.0
H991 H 0.91722 0.67068 0.98926 0.0
H992 H 0.94357 0.64284 0.99327 0.0
H993 H 0.94236 0.66995 0.01818 0.0
H994 H 0.99353 0.6617 0.03558 0.0
H995 H 1.01097 0.61983 0.05901 0.0
H996 H 0.52023 0.65261 0.09127 0.0
H997 H 0.54062 0.69943 0.08929 0.0
H998 H 0.45368 0.73287 0.10497 0.0
H999 H 0.43325 0.68639 0.10721 0.0
H1000 H 0.51852 0.74543 0.05339 0.0
H1001 H 0.51183 0.76651 0.16478 0.0
H1002 H 0.51225 0.73206 0.15091 0.0
H1003 H 0.47882 0.75228 0.14917 0.0
C1004 C 0.50552 0.66999 0.09426 0.0
C1005 C 0.47515 0.6659 0.09928 0.0
C1006 C 0.51716 0.69662 0.0931 0.0
C1007 C 0.49866 0.71942 0.09734 0.0
C1008 C 0.46831 0.71543 0.10195 0.0
H1009 H 0.50067 0.8944 0.09957 0.0
H1010 H 0.49176 0.84518 0.10534 0.0
C1011 C 0.45664 0.68891 0.10292 0.0
C1012 C 0.51073 0.7476 0.0966 0.0
H1013 H 0.52078 0.8049 0.13585 0.0
C1014 C 0.51946 0.75841 0.07142 0.0
C1015 C 0.51176 0.76428 0.12023 0.0
C1016 C 0.50341 0.75322 0.1479 0.0
C1017 C 0.52795 0.78604 0.06896 0.0
C1018 C 0.52835 0.80298 0.09252 0.0
C1019 C 0.52046 0.79185 0.11787 0.0
C1020 C 0.53498 0.83272 0.09091 0.0
C1021 C 0.53503 0.79718 0.04098 0.0
C1022 C 0.56254 0.842 0.08164 0.0
C1023 C 0.56757 0.87011 0.078 0.0
C1024 C 0.54519 0.88942 0.08383 0.0
C1025 C 0.51814 0.88004 0.09441 0.0
C1026 C 0.5131 0.85195 0.0979 0.0
H1027 H 0.52715 0.78326 0.02439 0.0
H1028 H 0.52477 0.81775 0.03778 0.0
H1029 H 0.55947 0.79937 0.03922 0.0
H1030 H 0.57992 0.82748 0.07666 0.0
H1031 H 0.58858 0.8766 0.06966 0.0
H1032 H 0.12689 0.40582 0.57908 0.0
H1033 H 0.11799 0.35749 0.56764 0.0
H1034 H 0.17382 0.33242 0.63578 0.0
H1035 H 0.1838 0.38063 0.64666 0.0
H1036 H 0.17994 0.29862 0.59133 0.0
H1037 H 0.06091 0.31448 0.61549 0.0
H1038 H 0.07424 0.33626 0.58868 0.0
H1039 H 0.08901 0.33995 0.62288 0.0
C1040 C 0.13802 0.39003 0.59109 0.0
C1041 C 0.1557 0.397 0.61402 0.0
C1042 C 0.13258 0.36244 0.58477 0.0
C1043 C 0.14451 0.34146 0.6014 0.0
C1044 C 0.16408 0.34833 0.62292 0.0
H1045 H 0.07417 0.17655 0.62346 0.0
H1046 H 0.08937 0.22477 0.62895 0.0
C1047 C 0.16967 0.37586 0.62915 0.0
C1048 C 0.13512 0.3125 0.59769 0.0
H1049 H 0.07444 0.27046 0.59924 0.0
C1050 C 0.15688 0.29243 0.59298 0.0
C1051 C 0.10509 0.30445 0.60055 0.0
C1052 C 0.08097 0.32484 0.60745 0.0
C1053 C 0.14938 0.26451 0.59068 0.0
C1054 C 0.11921 0.2566 0.59255 0.0
C1055 C 0.0975 0.27663 0.59759 0.0
C1056 C 0.10966 0.22764 0.58919 0.0
C1057 C 0.17394 0.24371 0.58691 0.0
C1058 C 0.11541 0.21359 0.56482 0.0
C1059 C 0.10691 0.18619 0.56174 0.0
C1060 C 0.09218 0.17238 0.58284 0.0
C1061 C 0.08551 0.18672 0.60691 0.0
C1062 C 0.09425 0.21417 0.61007 0.0
H1063 H 0.19583 0.25189 0.59389 0.0
H1064 H 0.16939 0.22442 0.59828 0.0
H1065 H 0.17561 0.23863 0.56487 0.0
H1066 H 0.12642 0.22384 0.54813 0.0
H1067 H 0.11172 0.17582 0.54271 0.0
H1068 H 0.67353 0.23446 0.45343 0.0
H1069 H 0.65672 0.27725 0.47485 0.0
H1070 H 0.62638 0.30728 0.39619 0.0
H1071 H 0.64268 0.26417 0.37482 0.0
H1072 H 0.67062 0.33179 0.46743 0.0
H1073 H 0.55174 0.31427 0.44123 0.0
H1074 H 0.57962 0.28784 0.43765 0.0
H1075 H 0.57554 0.31433 0.41213 0.0
C1076 C 0.66342 0.25027 0.4407 0.0
C1077 C 0.65911 0.24589 0.41248 0.0
C1078 C 0.65381 0.27473 0.45296 0.0
C1079 C 0.63963 0.29533 0.4373 0.0
C1080 C 0.63653 0.29146 0.40888 0.0
H1081 H 0.5597 0.4539 0.47272 0.0
H1082 H 0.57951 0.4121 0.4521 0.0
C1083 C 0.64607 0.26696 0.39662 0.0
C1084 C 0.62775 0.32055 0.4508 0.0
H1085 H 0.56398 0.35752 0.4607 0.0
C1086 C 0.64728 0.33734 0.46605 0.0
C1087 C 0.59724 0.32783 0.44915 0.0
C1088 C 0.57473 0.31002 0.43439 0.0
C1089 C 0.63731 0.36144 0.47909 0.0
C1090 C 0.60685 0.36879 0.47726 0.0
C1091 C 0.58732 0.35195 0.46211 0.0
C1092 C 0.59484 0.39418 0.49031 0.0
C1093 C 0.65963 0.3792 0.49412 0.0
C1094 C 0.59638 0.39799 0.51881 0.0
C1095 C 0.58496 0.42199 0.53077 0.0
C1096 C 0.57166 0.44265 0.51447 0.0
C1097 C 0.56981 0.43853 0.48598 0.0
C1098 C 0.58115 0.41458 0.47409 0.0
H1099 H 0.68279 0.37446 0.48808 0.0
H1100 H 0.65519 0.40136 0.49025 0.0
H1101 H 0.6579 0.37546 0.51643 0.0
H1102 H 0.60628 0.38234 0.53185 0.0
H1103 H 0.58671 0.4244 0.55275 0.0
loop_
_geom_bond_atom_site_label_1
_geom_bond_atom_site_label_2
_geom_bond_distance
_geom_bond_site_symmetry_2
_ccdc_geom_bond_type
H0 C7 0.929 . S
H1 C10 0.930 . S
H2 C12 0.929 . S
H3 C4 0.969 . S
C4 H3 0.969 . S
C4 O5 1.550 . S
C4 H6 0.973 . S
O5 C4 1.550 . S
O5 C11 1.412 . S
H6 C4 0.973 . S
C7 H0 0.929 . S
C7 C8 1.400 . S
C7 C9 1.364 . S
C8 C7 1.400 . S
C8 C12 1.377 . S
C9 C7 1.364 . S
C9 C10 1.374 . S
C10 H1 0.930 . S
C10 C9 1.374 . S
C10 C11 1.383 . S
C11 O5 1.412 . S
C11 C10 1.383 . S
C11 C12 1.394 . S
C12 H2 0.929 . S
C12 C8 1.377 . S
C12 C11 1.394 . S
H13 C20 0.929 . S
H14 C23 0.930 . S
H15 C25 0.929 . S
H16 C17 0.969 . S
C17 H16 0.969 . S
C17 O18 1.550 . S
C17 H19 0.973 . S
O18 C17 1.550 . S
O18 C24 1.412 . S
H19 C17 0.973 . S
C20 H13 0.929 . S
C20 C21 1.400 . S
C20 C22 1.364 . S
C21 C20 1.400 . S
C21 C25 1.377 . S
C22 C20 1.364 . S
C22 C23 1.374 . S
C23 H14 0.930 . S
C23 C22 1.374 . S
C23 C24 1.383 . S
C24 O18 1.412 . S
C24 C23 1.383 . S
C24 C25 1.394 . S
C25 H15 0.929 . S
C25 C21 1.377 . S
C25 C24 1.394 . S
H26 C33 0.929 . S
H27 C36 0.930 . S
H28 C38 0.929 . S
H29 C30 0.969 . S
C30 H29 0.969 . S
C30 O31 1.550 . S
C30 H32 0.973 . S
O31 C30 1.550 . S
O31 C37 1.412 . S
H32 C30 0.973 . S
C33 H26 0.929 . S
C33 C34 1.400 . S
C33 C35 1.364 . S
C34 C33 1.400 . S
C34 C38 1.377 . S
C35 C33 1.364 . S
C35 C36 1.374 . S
C36 H27 0.930 . S
C36 C35 1.374 . S
C36 C37 1.383 . S
C37 O31 1.412 . S
C37 C36 1.383 . S
C37 C38 1.394 . S
C38 H28 0.929 . S
C38 C34 1.377 . S
C38 C37 1.394 . S
H39 C46 0.929 . S
H40 C49 0.930 . S
H41 C51 0.929 . S
H42 C43 0.969 . S
C43 H42 0.969 . S
C43 O44 1.550 . S
C43 H45 0.973 . S
O44 C43 1.550 . S
O44 C50 1.412 . S
H45 C43 0.973 . S
C46 H39 0.929 . S
C46 C47 1.400 . S
C46 C48 1.364 . S
C47 C46 1.400 . S
C47 C51 1.377 . S
C48 C46 1.364 . S
C48 C49 1.374 . S
C49 H40 0.930 . S
C49 C48 1.374 . S
C49 C50 1.383 . S
C50 O44 1.412 . S
C50 C49 1.383 . S
C50 C51 1.394 . S
C51 H41 0.929 . S
C51 C47 1.377 . S
C51 C50 1.394 . S
H52 C59 0.929 . S
H53 C62 0.930 . S
H54 C64 0.929 . S
H55 C56 0.969 . S
C56 H55 0.969 . S
C56 O57 1.550 . S
C56 H58 0.973 . S
O57 C56 1.550 . S
O57 C63 1.412 . S
H58 C56 0.973 . S
C59 H52 0.929 . S
C59 C60 1.400 . S
C59 C61 1.364 . S
C60 C59 1.400 . S
C60 C64 1.377 . S
C61 C59 1.364 . S
C61 C62 1.374 . S
C62 H53 0.930 . S
C62 C61 1.374 . S
C62 C63 1.383 . S
C63 O57 1.412 . S
C63 C62 1.383 . S
C63 C64 1.394 . S
C64 H54 0.929 . S
C64 C60 1.377 . S
C64 C63 1.394 . S
H65 C72 0.929 . S
H66 C75 0.930 . S
H67 C77 0.929 . S
H68 C69 0.969 . S
C69 H68 0.969 . S
C69 O70 1.550 . S
C69 H71 0.973 . S
O70 C69 1.550 . S
O70 C76 1.412 . S
H71 C69 0.973 . S
C72 H65 0.929 . S
C72 C73 1.400 . S
C72 C74 1.364 . S
C73 C72 1.400 . S
C73 C77 1.377 . S
C74 C72 1.364 . S
C74 C75 1.374 . S
C75 H66 0.930 . S
C75 C74 1.374 . S
C75 C76 1.383 . S
C76 O70 1.412 . S
C76 C75 1.383 . S
C76 C77 1.394 . S
C77 H67 0.929 . S
C77 C73 1.377 . S
C77 C76 1.394 . S
H78 C85 0.929 . S
H79 C88 0.930 . S
H80 C90 0.929 . S
H81 C82 0.969 . S
C82 H81 0.969 . S
C82 O83 1.550 . S
C82 H84 0.973 . S
O83 C82 1.550 . S
O83 C89 1.412 . S
H84 C82 0.973 . S
C85 H78 0.929 . S
C85 C86 1.400 . S
C85 C87 1.364 . S
C86 C85 1.400 . S
C86 C90 1.377 . S
C87 C85 1.364 . S
C87 C88 1.374 . S
C88 H79 0.930 . S
C88 C87 1.374 . S
C88 C89 1.383 . S
C89 O83 1.412 . S
C89 C88 1.383 . S
C89 C90 1.394 . S
C90 H80 0.929 . S
C90 C86 1.377 . S
C90 C89 1.394 . S
H91 C98 0.929 . S
H92 C101 0.930 . S
H93 C103 0.929 . S
H94 C95 0.969 . S
C95 H94 0.969 . S
C95 O96 1.550 . S
C95 H97 0.973 . S
O96 C95 1.550 . S
O96 C102 1.412 . S
H97 C95 0.973 . S
C98 H91 0.929 . S
C98 C99 1.400 . S
C98 C100 1.364 . S
C99 C98 1.400 . S
C99 C103 1.377 . S
C100 C98 1.364 . S
C100 C101 1.374 . S
C101 H92 0.930 . S
C101 C100 1.374 . S
C101 C102 1.383 . S
C102 O96 1.412 . S
C102 C101 1.383 . S
C102 C103 1.394 . S
C103 H93 0.929 . S
C103 C99 1.377 . S
C103 C102 1.394 . S
C104 O120 1.251 . S
C104 O122 1.254 . S
N105 C106 1.333 . S
N105 C110 1.307 . S
N105 Zn111 2.020 . S
C106 N105 1.333 . S
C106 C107 1.379 . S
C106 H124 0.952 . S
C107 C106 1.379 . S
C107 C108 1.390 . S
C107 H134 0.949 . S
C108 C107 1.390 . S
C108 C109 1.357 . S
C109 C108 1.357 . S
C109 C110 1.370 . S
C109 H135 0.950 . S
C110 N105 1.307 . S
C110 C109 1.370 . S
C110 H128 0.948 . S
Zn111 N105 2.020 . S
Zn111 O120 2.039 . S
Zn111 O126 2.034 . S
Zn111 O130 2.025 . S
Zn111 O132 2.024 1_455 S
C112 O131 1.246 . S
C112 O132 1.249 . S
N113 C114 1.307 1_655 S
N113 C115 1.333 . S
N113 Zn119 2.020 1_655 S
C114 N113 1.307 1_455 S
C114 C118 1.370 . S
C114 H125 0.948 . S
C115 N113 1.333 . S
C115 C116 1.379 . S
C115 H123 0.952 . S
C116 C115 1.379 . S
C116 C117 1.390 . S
C116 H136 0.949 . S
C117 C116 1.390 . S
C117 C118 1.357 1_655 S
C118 C114 1.370 . S
C118 C117 1.357 1_455 S
C118 H137 0.950 . S
Zn119 N113 2.020 1_455 S
Zn119 O122 2.025 1_565 S
Zn119 O127 2.024 . S
Zn119 O129 2.039 . S
Zn119 O131 2.034 1_465 S
O120 C104 1.251 . S
O120 Zn111 2.039 . S
C121 O126 1.246 . S
C121 O127 1.249 1_545 S
O122 C104 1.254 . S
O122 Zn119 2.025 1_545 S
H123 C115 0.952 . S
H124 C106 0.952 . S
H125 C114 0.948 . S
O126 Zn111 2.034 . S
O126 C121 1.246 . S
O127 Zn119 2.024 . S
O127 C121 1.249 1_565 S
H128 C110 0.948 . S
O129 Zn119 2.039 . S
O129 C133 1.251 1_565 S
O130 Zn111 2.025 . S
O130 C133 1.254 . S
O131 C112 1.246 . S
O131 Zn119 2.034 1_645 S
O132 Zn111 2.024 1_655 S
O132 C112 1.249 . S
C133 O129 1.251 1_545 S
C133 O130 1.254 . S
H134 C107 0.949 . S
H135 C109 0.950 . S
H136 C116 0.949 . S
H137 C118 0.950 . S
C138 O154 1.290 . S
C138 O156 1.227 1_545 S
N139 C140 1.332 . S
N139 C144 1.309 . S
N139 Zn145 2.018 1_556 S
C140 N139 1.332 . S
C140 C141 1.387 . S
C140 H158 0.946 1_556 S
C141 C140 1.387 . S
C141 C142 1.390 . S
C141 H168 0.949 . S
C142 C141 1.390 . S
C142 C143 1.357 . S
C143 C142 1.357 . S
C143 C144 1.370 . S
C143 H169 0.950 . S
C144 N139 1.309 . S
C144 C143 1.370 . S
C144 H162 0.948 . S
Zn145 N139 2.018 1_554 S
Zn145 O154 2.039 . S
Zn145 O160 2.034 . S
Zn145 O164 2.025 . S
Zn145 O166 2.024 1_554 S
C146 O165 1.246 1_545 S
C146 O166 1.249 . S
N147 C148 1.307 . S
N147 C149 1.333 . S
N147 Zn153 2.020 . S
C148 N147 1.307 . S
C148 C152 1.370 . S
C148 H159 0.948 . S
C149 N147 1.333 . S
C149 C150 1.379 . S
C149 H157 0.952 . S
C150 C149 1.379 . S
C150 C151 1.390 . S
C150 H170 0.949 . S
C151 C150 1.390 . S
C151 C152 1.357 . S
C152 C148 1.370 . S
C152 C151 1.357 . S
C152 H171 0.950 . S
Zn153 N147 2.020 . S
Zn153 O156 2.025 . S
Zn153 O161 2.024 1_565 S
Zn153 O163 2.039 1_565 S
Zn153 O165 2.034 1_554 S
O154 C138 1.290 . S
O154 Zn145 2.039 . S
C155 O160 1.246 . S
C155 O161 1.249 . S
O156 C138 1.227 1_565 S
O156 Zn153 2.025 . S
H157 C149 0.952 . S
H158 C140 0.946 1_554 S
H159 C148 0.948 . S
O160 Zn145 2.034 . S
O160 C155 1.246 . S
O161 Zn153 2.024 1_545 S
O161 C155 1.249 . S
H162 C144 0.948 . S
O163 Zn153 2.039 1_545 S
O163 C167 1.251 . S
O164 Zn145 2.025 . S
O164 C167 1.254 . S
O165 C146 1.246 1_565 S
O165 Zn153 2.034 1_556 S
O166 Zn145 2.024 1_556 S
O166 C146 1.249 . S
C167 O163 1.251 . S
C167 O164 1.254 . S
H168 C141 0.949 . S
H169 C143 0.950 . S
H170 C150 0.949 . S
H171 C152 0.950 . S
C172 O188 1.251 . S
C172 O190 1.254 . S
N173 C174 1.333 . S
N173 C178 1.307 . S
N173 Zn179 2.020 . S
C174 N173 1.333 . S
C174 C175 1.379 . S
C174 H192 0.952 . S
C175 C174 1.379 . S
C175 C176 1.390 . S
C175 H202 0.949 . S
C176 C175 1.390 . S
C176 C177 1.357 . S
C177 C176 1.357 . S
C177 C178 1.370 . S
C177 H203 0.950 . S
C178 N173 1.307 . S
C178 C177 1.370 . S
C178 H196 0.948 . S
Zn179 N173 2.020 . S
Zn179 O188 2.039 . S
Zn179 O194 2.034 . S
Zn179 O198 2.025 . S
Zn179 O200 2.024 . S
C180 O199 1.246 . S
C180 O200 1.249 . S
N181 C182 1.307 . S
N181 C183 1.333 . S
N181 Zn187 2.020 . S
C182 N181 1.307 . S
C182 C186 1.370 . S
C182 H193 0.948 . S
C183 N181 1.333 . S
C183 C184 1.379 . S
C183 H191 0.952 . S
C184 C183 1.379 . S
C184 C185 1.390 . S
C184 H204 0.949 . S
C185 C184 1.390 . S
C185 C186 1.357 . S
C186 C182 1.370 . S
C186 C185 1.357 . S
C186 H205 0.950 . S
Zn187 N181 2.020 . S
Zn187 O190 2.025 . S
Zn187 O195 2.024 . S
Zn187 O197 2.039 . S
Zn187 O199 2.034 . S
O188 C172 1.251 . S
O188 Zn179 2.039 . S
C189 O194 1.246 . S
C189 O195 1.249 . S
O190 C172 1.254 . S
O190 Zn187 2.025 . S
H191 C183 0.952 . S
H192 C174 0.952 . S
H193 C182 0.948 . S
O194 Zn179 2.034 . S
O194 C189 1.246 . S
O195 Zn187 2.024 . S
O195 C189 1.249 . S
H196 C178 0.948 . S
O197 Zn187 2.039 . S
O197 C201 1.251 . S
O198 Zn179 2.025 . S
O198 C201 1.254 . S
O199 C180 1.246 . S
O199 Zn187 2.034 . S
O200 Zn179 2.024 . S
O200 C180 1.249 . S
C201 O197 1.251 . S
C201 O198 1.254 . S
H202 C175 0.949 . S
H203 C177 0.950 . S
H204 C184 0.949 . S
H205 C186 0.950 . S
C206 O222 1.251 . S
C206 O224 1.254 1_554 S
N207 C208 1.333 . S
N207 C212 1.307 . S
N207 Zn213 2.020 . S
C208 N207 1.333 . S
C208 C209 1.379 . S
C208 H226 0.952 . S
C209 C208 1.379 . S
C209 C210 1.397 . S
C209 H236 0.949 . S
C210 C209 1.397 . S
C210 C211 1.356 1_455 S
C211 C210 1.356 1_655 S
C211 C212 1.370 1_655 S
C211 H237 0.950 . S
C212 N207 1.307 . S
C212 C211 1.370 1_455 S
C212 H230 0.948 . S
Zn213 N207 2.020 . S
Zn213 O222 2.039 . S
Zn213 O228 2.034 . S
Zn213 O232 2.025 . S
Zn213 O234 2.024 1_455 S
C214 O233 1.246 1_654 S
C214 O234 1.249 . S
N215 C216 1.307 . S
N215 C217 1.333 . S
N215 Zn221 2.020 1_556 S
C216 N215 1.307 . S
C216 C220 1.370 . S
C216 H227 0.948 . S
C217 N215 1.333 . S
C217 C218 1.379 . S
C217 H225 0.952 . S
C218 C217 1.379 . S
C218 C219 1.390 . S
C218 H238 0.949 . S
C219 C218 1.390 . S
C219 C220 1.357 . S
C220 C216 1.370 . S
C220 C219 1.357 . S
C220 H239 0.950 . S
Zn221 N215 2.020 1_554 S
Zn221 O224 2.025 1_554 S
Zn221 O229 2.024 . S
Zn221 O231 2.039 . S
Zn221 O233 2.034 1_554 S
O222 C206 1.251 . S
O222 Zn213 2.039 . S
C223 O228 1.246 . S
C223 O229 1.249 . S
O224 C206 1.254 1_556 S
O224 Zn221 2.025 1_556 S
H225 C217 0.952 . S
H226 C208 0.952 . S
H227 C216 0.948 . S
O228 Zn213 2.034 . S
O228 C223 1.246 . S
O229 Zn221 2.024 . S
O229 C223 1.249 . S
H230 C212 0.948 . S
O231 Zn221 2.039 . S
O231 C235 1.251 . S
O232 Zn213 2.025 . S
O232 C235 1.254 . S
O233 C214 1.246 1_456 S
O233 Zn221 2.034 1_556 S
O234 Zn213 2.024 1_655 S
O234 C214 1.249 . S
C235 O231 1.251 . S
C235 O232 1.254 . S
H236 C209 0.949 . S
H237 C211 0.950 . S
H238 C218 0.949 . S
H239 C220 0.950 . S
H240 C248 0.929 . S
H241 C250 0.930 . S
H242 C252 0.930 . S
H243 C255 0.929 . S
H244 C258 0.930 . S
H245 C260 0.960 . S
H246 C260 0.960 . S
H247 C260 0.960 . S
C248 H240 0.929 . S
C248 C249 1.377 . S
C248 C250 1.384 . S
C249 C248 1.377 . S
C249 C255 1.390 . S
C250 H241 0.930 . S
C250 C248 1.384 . S
C250 C251 1.372 . S
C251 C250 1.372 . S
C251 C252 1.400 . S
C251 C256 1.490 . S
C252 H242 0.930 . S
C252 C251 1.400 . S
C252 C255 1.386 . S
H253 C269 0.930 . S
H254 C270 0.931 . S
C255 H243 0.929 . S
C255 C249 1.390 . S
C255 C252 1.386 . S
C256 C251 1.490 . S
C256 C258 1.395 . S
C256 C259 1.403 . S
H257 C263 0.930 . S
C258 H244 0.930 . S
C258 C256 1.395 . S
C258 C261 1.403 . S
C259 C256 1.403 . S
C259 C260 1.524 . S
C259 C263 1.400 . S
C260 H245 0.960 . S
C260 H246 0.960 . S
C260 H247 0.960 . S
C260 C259 1.524 . S
C261 C258 1.403 . S
C261 C262 1.392 . S
C261 C265 1.495 . S
C262 C261 1.392 . S
C262 C263 1.385 . S
C262 C264 1.478 . S
C263 H257 0.930 . S
C263 C259 1.400 . S
C263 C262 1.385 . S
C264 C262 1.478 . S
C264 C266 1.381 . S
C264 C270 1.383 . S
C265 C261 1.495 . S
C265 H271 0.959 . S
C265 H272 0.961 . S
C265 H273 0.960 . S
C266 C264 1.381 . S
C266 C267 1.394 . S
C266 H274 0.930 . S
C267 C266 1.394 . S
C267 C268 1.383 . S
C267 H275 0.929 . S
C268 C267 1.383 . S
C268 C269 1.377 . S
C269 H253 0.930 . S
C269 C268 1.377 . S
C269 C270 1.379 . S
C270 H254 0.931 . S
C270 C264 1.383 . S
C270 C269 1.379 . S
H271 C265 0.959 . S
H272 C265 0.961 . S
H273 C265 0.960 . S
H274 C266 0.930 . S
H275 C267 0.929 . S
H276 C284 0.929 . S
H277 C286 0.930 . S
H278 C288 0.930 . S
H279 C291 0.929 . S
H280 C294 0.930 . S
H281 C296 0.960 1_545 S
H282 C296 0.960 1_545 S
H283 C296 0.960 . S
C284 H276 0.929 . S
C284 C285 1.377 . S
C284 C286 1.384 . S
C285 C284 1.377 . S
C285 C291 1.390 . S
C286 H277 0.930 . S
C286 C284 1.384 . S
C286 C287 1.372 . S
C287 C286 1.372 . S
C287 C288 1.400 . S
C287 C292 1.490 . S
C288 H278 0.930 . S
C288 C287 1.400 . S
C288 C291 1.386 . S
H289 C305 0.930 . S
H290 C306 0.931 . S
C291 H279 0.929 . S
C291 C285 1.390 . S
C291 C288 1.386 . S
C292 C287 1.490 . S
C292 C294 1.395 . S
C292 C295 1.403 . S
H293 C299 0.930 . S
C294 H280 0.930 . S
C294 C292 1.395 . S
C294 C297 1.403 . S
C295 C292 1.403 . S
C295 C296 1.524 . S
C295 C299 1.400 . S
C296 H281 0.960 1_565 S
C296 H282 0.960 1_565 S
C296 H283 0.960 . S
C296 C295 1.524 . S
C297 C294 1.403 . S
C297 C298 1.392 . S
C297 C301 1.495 . S
C298 C297 1.392 . S
C298 C299 1.385 . S
C298 C300 1.478 . S
C299 H293 0.930 . S
C299 C295 1.400 . S
C299 C298 1.385 . S
C300 C298 1.478 . S
C300 C302 1.381 . S
C300 C306 1.383 . S
C301 C297 1.495 . S
C301 H307 0.959 . S
C301 H308 0.961 . S
C301 H309 0.960 . S
C302 C300 1.381 . S
C302 C303 1.394 . S
C302 H310 0.930 . S
C303 C302 1.394 . S
C303 C304 1.383 . S
C303 H311 0.929 1_565 S
C304 C303 1.383 . S
C304 C305 1.377 . S
C305 H289 0.930 . S
C305 C304 1.377 . S
C305 C306 1.379 . S
C306 H290 0.931 . S
C306 C300 1.383 . S
C306 C305 1.379 . S
H307 C301 0.959 . S
H308 C301 0.961 . S
H309 C301 0.960 . S
H310 C302 0.930 . S
H311 C303 0.929 1_545 S
H312 C320 0.929 . S
H313 C322 0.930 . S
H314 C324 0.930 . S
H315 C327 0.929 . S
H316 C330 0.930 . S
H317 C332 0.960 . S
H318 C332 0.960 . S
H319 C332 0.960 . S
C320 H312 0.929 . S
C320 C321 1.377 . S
C320 C322 1.384 . S
C321 C320 1.377 . S
C321 C327 1.390 . S
C322 H313 0.930 . S
C322 C320 1.384 . S
C322 C323 1.372 . S
C323 C322 1.372 . S
C323 C324 1.400 . S
C323 C328 1.490 . S
C324 H314 0.930 . S
C324 C323 1.400 . S
C324 C327 1.386 . S
H325 C341 0.930 . S
H326 C342 0.931 . S
C327 H315 0.929 . S
C327 C321 1.390 . S
C327 C324 1.386 . S
C328 C323 1.490 . S
C328 C330 1.395 . S
C328 C331 1.403 . S
H329 C335 0.930 . S
C330 H316 0.930 . S
C330 C328 1.395 . S
C330 C333 1.403 . S
C331 C328 1.403 . S
C331 C332 1.524 . S
C331 C335 1.400 . S
C332 H317 0.960 . S
C332 H318 0.960 . S
C332 H319 0.960 . S
C332 C331 1.524 . S
C333 C330 1.403 . S
C333 C334 1.392 . S
C333 C337 1.495 . S
C334 C333 1.392 . S
C334 C335 1.385 . S
C334 C336 1.478 . S
C335 H329 0.930 . S
C335 C331 1.400 . S
C335 C334 1.385 . S
C336 C334 1.478 . S
C336 C338 1.381 . S
C336 C342 1.383 . S
C337 C333 1.495 . S
C337 H343 0.959 . S
C337 H344 0.961 . S
C337 H345 0.960 . S
C338 C336 1.381 . S
C338 C339 1.394 . S
C338 H346 0.930 . S
C339 C338 1.394 . S
C339 C340 1.383 . S
C339 H347 0.929 . S
C340 C339 1.383 . S
C340 C341 1.377 . S
C341 H325 0.930 . S
C341 C340 1.377 . S
C341 C342 1.379 . S
C342 H326 0.931 . S
C342 C336 1.383 . S
C342 C341 1.379 . S
H343 C337 0.959 . S
H344 C337 0.961 . S
H345 C337 0.960 . S
H346 C338 0.930 . S
H347 C339 0.929 . S
H348 C356 0.929 . S
H349 C358 0.930 . S
H350 C360 0.930 . S
H351 C363 0.929 . S
H352 C366 0.930 . S
H353 C368 0.960 1_455 S
H354 C368 0.960 . S
H355 C368 0.960 1_455 S
C356 H348 0.929 . S
C356 C357 1.377 . S
C356 C358 1.384 . S
C357 C356 1.377 . S
C357 C363 1.390 . S
C358 H349 0.930 . S
C358 C356 1.384 . S
C358 C359 1.372 . S
C359 C358 1.372 . S
C359 C360 1.400 . S
C359 C364 1.490 . S
C360 H350 0.930 . S
C360 C359 1.400 . S
C360 C363 1.386 . S
H361 C377 0.930 . S
H362 C378 0.931 . S
C363 H351 0.929 . S
C363 C357 1.390 . S
C363 C360 1.386 . S
C364 C359 1.490 . S
C364 C366 1.395 . S
C364 C367 1.403 . S
H365 C371 0.948 . S
C366 H352 0.930 . S
C366 C364 1.395 . S
C366 C369 1.403 . S
C367 C364 1.403 . S
C367 C368 1.524 . S
C367 C371 1.400 . S
C368 H353 0.960 1_655 S
C368 H354 0.960 . S
C368 H355 0.960 1_655 S
C368 C367 1.524 . S
C369 C366 1.403 . S
C369 C370 1.392 . S
C369 C373 1.495 . S
C370 C369 1.392 . S
C370 C371 1.385 . S
C370 C372 1.478 . S
C371 H365 0.948 . S
C371 C367 1.400 . S
C371 C370 1.385 . S
C372 C370 1.478 . S
C372 C374 1.381 . S
C372 C378 1.383 1_655 S
C373 C369 1.495 . S
C373 H379 0.959 . S
C373 H380 0.961 . S
C373 H381 0.960 . S
C374 C372 1.381 . S
C374 C375 1.394 . S
C374 H382 0.930 . S
C375 C374 1.394 . S
C375 C376 1.383 . S
C375 H383 0.929 . S
C376 C375 1.383 . S
C376 C377 1.377 1_655 S
C377 H361 0.930 . S
C377 C376 1.377 1_455 S
C377 C378 1.379 . S
C378 H362 0.931 . S
C378 C372 1.383 1_455 S
C378 C377 1.379 . S
H379 C373 0.959 . S
H380 C373 0.961 . S
H381 C373 0.960 . S
H382 C374 0.930 . S
H383 C375 0.929 . S
H384 C392 0.929 . S
H385 C394 0.930 . S
H386 C396 0.930 . S
H387 C399 0.929 . S
H388 C402 0.930 . S
H389 C404 0.960 . S
H390 C404 0.960 . S
H391 C404 0.960 . S
C392 H384 0.929 . S
C392 C393 1.377 . S
C392 C394 1.384 . S
C393 C392 1.377 . S
C393 C399 1.390 . S
C394 H385 0.930 . S
C394 C392 1.384 . S
C394 C395 1.372 . S
C395 C394 1.372 . S
C395 C396 1.400 . S
C395 C400 1.490 . S
C396 H386 0.930 . S
C396 C395 1.400 . S
C396 C399 1.386 . S
H397 C413 0.930 . S
H398 C414 0.931 . S
C399 H387 0.929 . S
C399 C393 1.390 . S
C399 C396 1.386 . S
C400 C395 1.490 . S
C400 C402 1.395 . S
C400 C403 1.403 . S
H401 C407 0.930 . S
C402 H388 0.930 . S
C402 C400 1.395 . S
C402 C405 1.403 . S
C403 C400 1.403 . S
C403 C404 1.524 . S
C403 C407 1.400 . S
C404 H389 0.960 . S
C404 H390 0.960 . S
C404 H391 0.960 . S
C404 C403 1.524 . S
C405 C402 1.403 . S
C405 C406 1.392 . S
C405 C409 1.495 . S
C406 C405 1.392 . S
C406 C407 1.385 . S
C406 C408 1.478 . S
C407 H401 0.930 . S
C407 C403 1.400 . S
C407 C406 1.385 . S
C408 C406 1.478 . S
C408 C410 1.381 . S
C408 C414 1.383 . S
C409 C405 1.495 . S
C409 H415 0.959 . S
C409 H416 0.961 . S
C409 H417 0.960 . S
C410 C408 1.381 . S
C410 C411 1.394 . S
C410 H418 0.930 . S
C411 C410 1.394 . S
C411 C412 1.383 . S
C411 H419 0.929 . S
C412 C411 1.383 . S
C412 C413 1.377 . S
C413 H397 0.930 . S
C413 C412 1.377 . S
C413 C414 1.379 . S
C414 H398 0.931 . S
C414 C408 1.383 . S
C414 C413 1.379 . S
H415 C409 0.959 . S
H416 C409 0.961 . S
H417 C409 0.960 . S
H418 C410 0.930 . S
H419 C411 0.929 . S
H420 C428 0.929 . S
H421 C430 0.930 . S
H422 C432 0.930 . S
H423 C435 0.929 . S
H424 C438 0.930 . S
H425 C440 0.960 . S
H426 C440 0.960 . S
H427 C440 0.960 . S
C428 H420 0.929 . S
C428 C429 1.377 . S
C428 C430 1.384 . S
C429 C428 1.377 . S
C429 C435 1.390 . S
C430 H421 0.930 . S
C430 C428 1.384 . S
C430 C431 1.372 . S
C431 C430 1.372 . S
C431 C432 1.400 . S
C431 C436 1.490 . S
C432 H422 0.930 . S
C432 C431 1.400 . S
C432 C435 1.386 . S
H433 C449 0.930 . S
H434 C450 0.931 . S
C435 H423 0.929 . S
C435 C429 1.390 . S
C435 C432 1.386 . S
C436 C431 1.490 . S
C436 C438 1.395 . S
C436 C439 1.403 . S
H437 C443 0.930 . S
C438 H424 0.930 . S
C438 C436 1.395 . S
C438 C441 1.403 . S
C439 C436 1.403 . S
C439 C440 1.524 . S
C439 C443 1.400 . S
C440 H425 0.960 . S
C440 H426 0.960 . S
C440 H427 0.960 . S
C440 C439 1.524 . S
C441 C438 1.403 . S
C441 C442 1.392 . S
C441 C445 1.495 . S
C442 C441 1.392 . S
C442 C443 1.385 . S
C442 C444 1.478 . S
C443 H437 0.930 . S
C443 C439 1.400 . S
C443 C442 1.385 . S
C444 C442 1.478 . S
C444 C446 1.381 . S
C444 C450 1.383 1_565 S
C445 C441 1.495 . S
C445 H451 0.959 . S
C445 H452 0.961 . S
C445 H453 0.960 . S
C446 C444 1.381 . S
C446 C447 1.394 . S
C446 H454 0.930 . S
C447 C446 1.394 . S
C447 C448 1.383 . S
C447 H455 0.929 . S
C448 C447 1.383 . S
C448 C449 1.377 1_565 S
C449 H433 0.930 . S
C449 C448 1.377 1_545 S
C449 C450 1.379 . S
C450 H434 0.931 . S
C450 C444 1.383 1_545 S
C450 C449 1.379 . S
H451 C445 0.959 . S
H452 C445 0.961 . S
H453 C445 0.960 . S
H454 C446 0.930 . S
H455 C447 0.929 . S
H456 C464 0.929 . S
H457 C466 0.945 . S
H458 C468 0.930 . S
H459 C471 0.929 . S
H460 C474 0.930 . S
H461 C476 0.960 . S
H462 C476 0.960 . S
H463 C476 0.960 . S
C464 H456 0.929 . S
C464 C465 1.377 . S
C464 C466 1.384 . S
C465 C464 1.377 . S
C465 C471 1.390 . S
C466 H457 0.945 . S
C466 C464 1.384 . S
C466 C467 1.372 . S
C467 C466 1.372 . S
C467 C468 1.400 . S
C467 C472 1.490 . S
C468 H458 0.930 . S
C468 C467 1.400 . S
C468 C471 1.386 . S
H469 C485 0.930 . S
H470 C486 0.931 . S
C471 H459 0.929 . S
C471 C465 1.390 . S
C471 C468 1.386 . S
C472 C467 1.490 . S
C472 C474 1.395 . S
C472 C475 1.403 . S
H473 C479 0.930 . S
C474 H460 0.930 . S
C474 C472 1.395 . S
C474 C477 1.403 . S
C475 C472 1.403 . S
C475 C476 1.524 . S
C475 C479 1.400 . S
C476 H461 0.960 . S
C476 H462 0.960 . S
C476 H463 0.960 . S
C476 C475 1.524 . S
C477 C474 1.403 . S
C477 C478 1.392 . S
C477 C481 1.495 1_556 S
C478 C477 1.392 . S
C478 C479 1.385 . S
C478 C480 1.478 . S
C479 H473 0.930 . S
C479 C475 1.400 . S
C479 C478 1.385 . S
C480 C478 1.478 . S
C480 C482 1.381 1_556 S
C480 C486 1.383 . S
C481 C477 1.495 1_554 S
C481 H487 0.959 . S
C481 H488 0.961 . S
C481 H489 0.960 . S
C482 C480 1.381 1_554 S
C482 C483 1.394 . S
C482 H490 0.930 . S
C483 C482 1.394 . S
C483 C484 1.383 . S
C483 H491 0.929 . S
C484 C483 1.383 . S
C484 C485 1.377 1_554 S
C485 H469 0.930 . S
C485 C484 1.377 1_556 S
C485 C486 1.379 . S
C486 H470 0.931 . S
C486 C480 1.383 . S
C486 C485 1.379 . S
H487 C481 0.959 . S
H488 C481 0.961 . S
H489 C481 0.960 . S
H490 C482 0.930 . S
H491 C483 0.929 . S
H492 C500 0.929 . S
H493 C502 0.930 . S
H494 C504 0.930 . S
H495 C507 0.929 . S
H496 C510 0.930 . S
H497 C512 0.960 . S
H498 C512 0.960 . S
H499 C512 0.960 . S
C500 H492 0.929 . S
C500 C501 1.377 . S
C500 C502 1.384 . S
C501 C500 1.377 . S
C501 C507 1.390 . S
C502 H493 0.930 . S
C502 C500 1.384 . S
C502 C503 1.372 . S
C503 C502 1.372 . S
C503 C504 1.400 . S
C503 C508 1.490 . S
C504 H494 0.930 . S
C504 C503 1.400 . S
C504 C507 1.386 . S
H505 C521 0.930 . S
H506 C522 0.931 . S
C507 H495 0.929 . S
C507 C501 1.390 . S
C507 C504 1.386 . S
C508 C503 1.490 . S
C508 C510 1.395 . S
C508 C511 1.403 . S
H509 C515 0.930 . S
C510 H496 0.930 . S
C510 C508 1.395 . S
C510 C513 1.403 . S
C511 C508 1.403 . S
C511 C512 1.524 . S
C511 C515 1.400 . S
C512 H497 0.960 . S
C512 H498 0.960 . S
C512 H499 0.960 . S
C512 C511 1.524 . S
C513 C510 1.403 . S
C513 C514 1.392 . S
C513 C517 1.495 . S
C514 C513 1.392 . S
C514 C515 1.385 . S
C514 C516 1.478 . S
C515 H509 0.930 . S
C515 C511 1.400 . S
C515 C514 1.385 . S
C516 C514 1.478 . S
C516 C518 1.381 . S
C516 C522 1.383 . S
C517 C513 1.495 . S
C517 H523 0.959 . S
C517 H524 0.961 . S
C517 H525 0.960 . S
C518 C516 1.381 . S
C518 C519 1.394 . S
C518 H526 0.930 . S
C519 C518 1.394 . S
C519 C520 1.383 . S
C519 H527 0.929 . S
C520 C519 1.383 . S
C520 C521 1.377 . S
C521 H505 0.930 . S
C521 C520 1.377 . S
C521 C522 1.379 . S
C522 H506 0.931 . S
C522 C516 1.383 . S
C522 C521 1.379 . S
H523 C517 0.959 . S
H524 C517 0.961 . S
H525 C517 0.960 . S
H526 C518 0.930 . S
H527 C519 0.929 . S
H528 C536 0.929 . S
H529 C538 0.930 . S
H530 C540 0.930 . S
H531 C543 0.929 . S
H532 C546 0.930 . S
H533 C548 0.960 . S
H534 C548 0.960 . S
H535 C548 0.960 . S
C536 H528 0.929 . S
C536 C537 1.377 . S
C536 C538 1.384 . S
C537 C536 1.377 . S
C537 C543 1.390 . S
C538 H529 0.930 . S
C538 C536 1.384 . S
C538 C539 1.372 . S
C539 C538 1.372 . S
C539 C540 1.400 . S
C539 C544 1.490 . S
C540 H530 0.930 . S
C540 C539 1.400 . S
C540 C543 1.386 . S
H541 C557 0.930 . S
H542 C558 0.931 . S
C543 H531 0.929 . S
C543 C537 1.390 . S
C543 C540 1.386 . S
C544 C539 1.490 . S
C544 C546 1.395 . S
C544 C547 1.403 . S
H545 C551 0.930 . S
C546 H532 0.930 . S
C546 C544 1.395 . S
C546 C549 1.403 . S
C547 C544 1.403 . S
C547 C548 1.524 . S
C547 C551 1.400 . S
C548 H533 0.960 . S
C548 H534 0.960 . S
C548 H535 0.960 . S
C548 C547 1.524 . S
C549 C546 1.403 . S
C549 C550 1.392 . S
C549 C553 1.495 . S
C550 C549 1.392 . S
C550 C551 1.385 . S
C550 C552 1.478 . S
C551 H545 0.930 . S
C551 C547 1.400 . S
C551 C550 1.385 . S
C552 C550 1.478 . S
C552 C554 1.381 . S
C552 C558 1.383 . S
C553 C549 1.495 . S
C553 H559 0.959 . S
C553 H560 0.961 . S
C553 H561 0.960 . S
C554 C552 1.381 . S
C554 C555 1.394 . S
C554 H562 0.930 . S
C555 C554 1.394 . S
C555 C556 1.383 . S
C555 H563 0.929 . S
C556 C555 1.383 . S
C556 C557 1.377 . S
C557 H541 0.930 . S
C557 C556 1.377 . S
C557 C558 1.379 . S
C558 H542 0.931 . S
C558 C552 1.383 . S
C558 C557 1.379 . S
H559 C553 0.959 . S
H560 C553 0.961 . S
H561 C553 0.960 . S
H562 C554 0.930 . S
H563 C555 0.929 . S
H564 C572 0.929 . S
H565 C574 0.930 . S
H566 C576 0.930 . S
H567 C579 0.929 . S
H568 C582 0.930 . S
H569 C584 0.960 . S
H570 C584 0.960 . S
H571 C584 0.960 . S
C572 H564 0.929 . S
C572 C573 1.377 . S
C572 C574 1.384 . S
C573 C572 1.377 . S
C573 C579 1.390 . S
C574 H565 0.930 . S
C574 C572 1.384 . S
C574 C575 1.372 . S
C575 C574 1.372 . S
C575 C576 1.400 . S
C575 C580 1.490 . S
C576 H566 0.930 . S
C576 C575 1.400 . S
C576 C579 1.386 . S
H577 C593 0.930 . S
H578 C594 0.931 . S
C579 H567 0.929 . S
C579 C573 1.390 . S
C579 C576 1.386 . S
C580 C575 1.490 . S
C580 C582 1.395 . S
C580 C583 1.403 . S
H581 C587 0.930 . S
C582 H568 0.930 . S
C582 C580 1.395 . S
C582 C585 1.403 . S
C583 C580 1.403 . S
C583 C584 1.524 . S
C583 C587 1.400 . S
C584 H569 0.960 . S
C584 H570 0.960 . S
C584 H571 0.960 . S
C584 C583 1.524 . S
C585 C582 1.403 . S
C585 C586 1.392 . S
C585 C589 1.495 1_556 S
C586 C585 1.392 . S
C586 C587 1.385 . S
C586 C588 1.478 . S
C587 H581 0.930 . S
C587 C583 1.400 . S
C587 C586 1.385 . S
C588 C586 1.478 . S
C588 C590 1.381 . S
C588 C594 1.383 . S
C589 C585 1.495 1_554 S
C589 H595 0.959 . S
C589 H596 0.961 . S
C589 H597 0.960 . S
C590 C588 1.381 . S
C590 C591 1.394 . S
C590 H598 0.930 . S
C591 C590 1.394 . S
C591 C592 1.383 . S
C591 H599 0.929 . S
C592 C591 1.383 . S
C592 C593 1.377 . S
C593 H577 0.930 . S
C593 C592 1.377 . S
C593 C594 1.379 . S
C594 H578 0.931 . S
C594 C588 1.383 . S
C594 C593 1.379 . S
H595 C589 0.959 . S
H596 C589 0.961 . S
H597 C589 0.960 . S
H598 C590 0.930 . S
H599 C591 0.929 . S
H600 C608 0.929 . S
H601 C610 0.930 . S
H602 C612 0.930 . S
H603 C615 0.929 . S
H604 C618 0.930 . S
H605 C620 0.960 . S
H606 C620 0.960 . S
H607 C620 0.960 . S
C608 H600 0.929 . S
C608 C609 1.377 . S
C608 C610 1.384 . S
C609 C608 1.377 . S
C609 C615 1.390 . S
C610 H601 0.930 . S
C610 C608 1.384 . S
C610 C611 1.372 . S
C611 C610 1.372 . S
C611 C612 1.400 . S
C611 C616 1.490 . S
C612 H602 0.930 . S
C612 C611 1.400 . S
C612 C615 1.386 . S
H613 C629 0.930 . S
H614 C630 0.931 . S
C615 H603 0.929 . S
C615 C609 1.390 . S
C615 C612 1.386 . S
C616 C611 1.490 . S
C616 C618 1.395 . S
C616 C619 1.403 . S
H617 C623 0.930 . S
C618 H604 0.930 . S
C618 C616 1.395 . S
C618 C621 1.403 . S
C619 C616 1.403 . S
C619 C620 1.524 . S
C619 C623 1.400 . S
C620 H605 0.960 . S
C620 H606 0.960 . S
C620 H607 0.960 . S
C620 C619 1.524 . S
C621 C618 1.403 . S
C621 C622 1.392 . S
C621 C625 1.495 1_655 S
C622 C621 1.392 . S
C622 C623 1.385 . S
C622 C624 1.478 . S
C623 H617 0.930 . S
C623 C619 1.400 . S
C623 C622 1.385 . S
C624 C622 1.478 . S
C624 C626 1.381 . S
C624 C630 1.383 . S
C625 C621 1.495 1_455 S
C625 H631 0.959 . S
C625 H632 0.961 . S
C625 H633 0.960 . S
C626 C624 1.381 . S
C626 C627 1.394 . S
C626 H634 0.930 . S
C627 C626 1.394 . S
C627 C628 1.383 . S
C627 H635 0.929 . S
C628 C627 1.383 . S
C628 C629 1.377 . S
C629 H613 0.930 . S
C629 C628 1.377 . S
C629 C630 1.379 . S
C630 H614 0.931 . S
C630 C624 1.383 . S
C630 C629 1.379 . S
H631 C625 0.959 . S
H632 C625 0.961 . S
H633 C625 0.960 . S
H634 C626 0.930 . S
H635 C627 0.929 . S
H636 C644 0.929 . S
H637 C646 0.930 . S
H638 C648 0.930 . S
H639 C651 0.929 . S
H640 C654 0.930 . S
H641 C656 0.960 . S
H642 C656 0.960 . S
H643 C656 0.960 . S
C644 H636 0.929 . S
C644 C645 1.377 . S
C644 C646 1.384 . S
C645 C644 1.377 . S
C645 C651 1.390 . S
C646 H637 0.930 . S
C646 C644 1.384 . S
C646 C647 1.372 . S
C647 C646 1.372 . S
C647 C648 1.400 . S
C647 C652 1.490 . S
C648 H638 0.930 . S
C648 C647 1.400 . S
C648 C651 1.386 . S
H649 C665 0.930 . S
H650 C666 0.931 . S
C651 H639 0.929 . S
C651 C645 1.390 . S
C651 C648 1.386 . S
C652 C647 1.490 . S
C652 C654 1.395 . S
C652 C655 1.403 . S
H653 C659 0.930 . S
C654 H640 0.930 . S
C654 C652 1.395 . S
C654 C657 1.403 . S
C655 C652 1.403 . S
C655 C656 1.524 . S
C655 C659 1.400 . S
C656 H641 0.960 . S
C656 H642 0.960 . S
C656 H643 0.960 . S
C656 C655 1.524 . S
C657 C654 1.403 . S
C657 C658 1.392 . S
C657 C661 1.495 . S
C658 C657 1.392 . S
C658 C659 1.385 . S
C658 C660 1.478 . S
C659 H653 0.930 . S
C659 C655 1.400 . S
C659 C658 1.385 . S
C660 C658 1.478 . S
C660 C662 1.381 . S
C660 C666 1.383 . S
C661 C657 1.495 . S
C661 H667 0.959 . S
C661 H668 0.961 . S
C661 H669 0.960 . S
C662 C660 1.381 . S
C662 C663 1.394 . S
C662 H670 0.930 . S
C663 C662 1.394 . S
C663 C664 1.383 . S
C663 H671 0.929 . S
C664 C663 1.383 . S
C664 C665 1.377 . S
C665 H649 0.930 . S
C665 C664 1.377 . S
C665 C666 1.379 . S
C666 H650 0.931 . S
C666 C660 1.383 . S
C666 C665 1.379 . S
H667 C661 0.959 . S
H668 C661 0.961 . S
H669 C661 0.960 . S
H670 C662 0.930 . S
H671 C663 0.929 . S
H672 C680 0.929 . S
H673 C682 0.930 . S
H674 C684 0.930 . S
H675 C687 0.929 . S
H676 C690 0.930 . S
H677 C692 0.960 . S
H678 C692 0.960 . S
H679 C692 0.960 . S
C680 H672 0.929 . S
C680 C681 1.377 . S
C680 C682 1.384 . S
C681 C680 1.377 . S
C681 C687 1.390 . S
C682 H673 0.930 . S
C682 C680 1.384 . S
C682 C683 1.372 . S
C683 C682 1.372 . S
C683 C684 1.400 . S
C683 C688 1.490 . S
C684 H674 0.930 . S
C684 C683 1.400 . S
C684 C687 1.386 . S
H685 C701 0.930 . S
H686 C702 0.931 . S
C687 H675 0.929 . S
C687 C681 1.390 . S
C687 C684 1.386 . S
C688 C683 1.490 . S
C688 C690 1.395 . S
C688 C691 1.403 . S
H689 C695 0.930 1_455 S
C690 H676 0.930 . S
C690 C688 1.395 . S
C690 C693 1.403 . S
C691 C688 1.403 . S
C691 C692 1.524 1_655 S
C691 C695 1.400 . S
C692 H677 0.960 . S
C692 H678 0.960 . S
C692 H679 0.960 . S
C692 C691 1.524 1_455 S
C693 C690 1.403 . S
C693 C694 1.392 . S
C693 C697 1.495 . S
C694 C693 1.392 . S
C694 C695 1.385 . S
C694 C696 1.478 . S
C695 H689 0.930 1_655 S
C695 C691 1.400 . S
C695 C694 1.385 . S
C696 C694 1.478 . S
C696 C698 1.381 . S
C696 C702 1.383 1_565 S
C697 C693 1.495 . S
C697 H703 0.959 . S
C697 H704 0.961 . S
C697 H705 0.960 . S
C698 C696 1.381 . S
C698 C699 1.394 . S
C698 H706 0.930 . S
C699 C698 1.394 . S
C699 C700 1.383 . S
C699 H707 0.929 . S
C700 C699 1.383 . S
C700 C701 1.377 1_565 S
C701 H685 0.930 . S
C701 C700 1.377 1_545 S
C701 C702 1.379 . S
C702 H686 0.931 . S
C702 C696 1.383 1_545 S
C702 C701 1.379 . S
H703 C697 0.959 . S
H704 C697 0.961 . S
H705 C697 0.960 . S
H706 C698 0.930 . S
H707 C699 0.929 . S
H708 C716 0.929 . S
H709 C718 0.930 . S
H710 C720 0.930 . S
H711 C723 0.929 . S
H712 C726 0.930 . S
H713 C728 0.960 . S
H714 C728 0.960 . S
H715 C728 0.960 . S
C716 H708 0.929 . S
C716 C717 1.377 . S
C716 C718 1.384 . S
C717 C716 1.377 . S
C717 C723 1.390 . S
C718 H709 0.930 . S
C718 C716 1.384 . S
C718 C719 1.372 . S
C719 C718 1.372 . S
C719 C720 1.400 . S
C719 C724 1.490 . S
C720 H710 0.930 . S
C720 C719 1.400 . S
C720 C723 1.386 . S
H721 C737 0.930 . S
H722 C738 0.931 . S
C723 H711 0.929 . S
C723 C717 1.390 . S
C723 C720 1.386 . S
C724 C719 1.490 . S
C724 C726 1.395 . S
C724 C727 1.403 . S
H725 C731 0.930 . S
C726 H712 0.930 . S
C726 C724 1.395 . S
C726 C729 1.403 . S
C727 C724 1.403 . S
C727 C728 1.524 . S
C727 C731 1.400 . S
C728 H713 0.960 . S
C728 H714 0.960 . S
C728 H715 0.960 . S
C728 C727 1.524 . S
C729 C726 1.403 . S
C729 C730 1.392 . S
C729 C733 1.495 . S
C730 C729 1.392 . S
C730 C731 1.385 . S
C730 C732 1.478 . S
C731 H725 0.930 . S
C731 C727 1.400 . S
C731 C730 1.385 . S
C732 C730 1.478 . S
C732 C734 1.381 . S
C732 C738 1.383 . S
C733 C729 1.495 . S
C733 H739 0.959 . S
C733 H740 0.961 . S
C733 H741 0.960 . S
C734 C732 1.381 . S
C734 C735 1.394 . S
C734 H742 0.930 . S
C735 C734 1.394 . S
C735 C736 1.383 . S
C735 H743 0.929 . S
C736 C735 1.383 . S
C736 C737 1.377 . S
C737 H721 0.930 . S
C737 C736 1.377 . S
C737 C738 1.379 . S
C738 H722 0.931 . S
C738 C732 1.383 . S
C738 C737 1.379 . S
H739 C733 0.959 . S
H740 C733 0.961 . S
H741 C733 0.960 . S
H742 C734 0.930 . S
H743 C735 0.929 . S
H744 C752 0.929 . S
H745 C754 0.930 . S
H746 C756 0.930 . S
H747 C759 0.929 . S
H748 C762 0.930 . S
H749 C764 0.960 . S
H750 C764 0.960 . S
H751 C764 0.960 . S
C752 H744 0.929 . S
C752 C753 1.377 . S
C752 C754 1.384 . S
C753 C752 1.377 . S
C753 C759 1.390 . S
C754 H745 0.930 . S
C754 C752 1.384 . S
C754 C755 1.372 . S
C755 C754 1.372 . S
C755 C756 1.400 . S
C755 C760 1.490 . S
C756 H746 0.930 . S
C756 C755 1.400 . S
C756 C759 1.386 . S
H757 C773 0.930 . S
H758 C774 0.931 . S
C759 H747 0.929 . S
C759 C753 1.390 . S
C759 C756 1.386 . S
C760 C755 1.490 . S
C760 C762 1.395 . S
C760 C763 1.403 . S
H761 C767 0.930 . S
C762 H748 0.930 . S
C762 C760 1.395 . S
C762 C765 1.403 . S
C763 C760 1.403 . S
C763 C764 1.524 . S
C763 C767 1.400 . S
C764 H749 0.960 . S
C764 H750 0.960 . S
C764 H751 0.960 . S
C764 C763 1.524 . S
C765 C762 1.403 . S
C765 C766 1.392 . S
C765 C769 1.495 . S
C766 C765 1.392 . S
C766 C767 1.385 . S
C766 C768 1.478 . S
C767 H761 0.930 . S
C767 C763 1.400 . S
C767 C766 1.385 . S
C768 C766 1.478 . S
C768 C770 1.381 . S
C768 C774 1.383 . S
C769 C765 1.495 . S
C769 H775 0.959 . S
C769 H776 0.961 . S
C769 H777 0.960 . S
C770 C768 1.381 . S
C770 C771 1.394 . S
C770 H778 0.930 . S
C771 C770 1.394 . S
C771 C772 1.383 . S
C771 H779 0.929 . S
C772 C771 1.383 . S
C772 C773 1.377 . S
C773 H757 0.930 . S
C773 C772 1.377 . S
C773 C774 1.379 . S
C774 H758 0.931 . S
C774 C768 1.383 . S
C774 C773 1.379 . S
H775 C769 0.959 . S
H776 C769 0.961 . S
H777 C769 0.960 . S
H778 C770 0.930 . S
H779 C771 0.929 . S
H780 C788 0.929 . S
H781 C790 0.930 . S
H782 C792 0.930 . S
H783 C795 0.929 . S
H784 C798 0.930 . S
H785 C800 0.960 . S
H786 C800 0.960 . S
H787 C800 0.960 . S
C788 H780 0.929 . S
C788 C789 1.377 . S
C788 C790 1.384 . S
C789 C788 1.377 . S
C789 C795 1.390 . S
C790 H781 0.930 . S
C790 C788 1.384 . S
C790 C791 1.372 . S
C791 C790 1.372 . S
C791 C792 1.400 . S
C791 C796 1.490 . S
C792 H782 0.930 . S
C792 C791 1.400 . S
C792 C795 1.386 . S
H793 C809 0.930 . S
H794 C810 0.931 . S
C795 H783 0.929 . S
C795 C789 1.390 . S
C795 C792 1.386 . S
C796 C791 1.490 . S
C796 C798 1.395 . S
C796 C799 1.403 . S
H797 C803 0.930 . S
C798 H784 0.930 . S
C798 C796 1.395 . S
C798 C801 1.403 . S
C799 C796 1.403 . S
C799 C800 1.524 . S
C799 C803 1.400 . S
C800 H785 0.960 . S
C800 H786 0.960 . S
C800 H787 0.960 . S
C800 C799 1.524 . S
C801 C798 1.403 . S
C801 C802 1.392 . S
C801 C805 1.495 . S
C802 C801 1.392 . S
C802 C803 1.385 . S
C802 C804 1.478 . S
C803 H797 0.930 . S
C803 C799 1.400 . S
C803 C802 1.385 . S
C804 C802 1.478 . S
C804 C806 1.381 . S
C804 C810 1.383 . S
C805 C801 1.495 . S
C805 H811 0.959 . S
C805 H812 0.961 . S
C805 H813 0.960 . S
C806 C804 1.381 . S
C806 C807 1.394 . S
C806 H814 0.930 . S
C807 C806 1.394 . S
C807 C808 1.383 . S
C807 H815 0.929 . S
C808 C807 1.383 . S
C808 C809 1.377 . S
C809 H793 0.930 . S
C809 C808 1.377 . S
C809 C810 1.379 . S
C810 H794 0.931 . S
C810 C804 1.383 . S
C810 C809 1.379 . S
H811 C805 0.959 . S
H812 C805 0.961 . S
H813 C805 0.960 . S
H814 C806 0.930 . S
H815 C807 0.929 . S
H816 C824 0.929 . S
H817 C826 0.930 . S
H818 C828 0.930 . S
H819 C831 0.929 . S
H820 C834 0.930 . S
H821 C836 0.960 . S
H822 C836 0.960 . S
H823 C836 0.960 . S
C824 H816 0.929 . S
C824 C825 1.377 . S
C824 C826 1.384 . S
C825 C824 1.377 . S
C825 C831 1.390 . S
C826 H817 0.930 . S
C826 C824 1.384 . S
C826 C827 1.372 . S
C827 C826 1.372 . S
C827 C828 1.400 . S
C827 C832 1.490 . S
C828 H818 0.930 . S
C828 C827 1.400 . S
C828 C831 1.386 . S
H829 C845 0.930 . S
H830 C846 0.931 . S
C831 H819 0.929 . S
C831 C825 1.390 . S
C831 C828 1.386 . S
C832 C827 1.490 . S
C832 C834 1.395 . S
C832 C835 1.403 . S
H833 C839 0.930 . S
C834 H820 0.930 . S
C834 C832 1.395 . S
C834 C837 1.403 . S
C835 C832 1.403 . S
C835 C836 1.524 . S
C835 C839 1.400 . S
C836 H821 0.960 . S
C836 H822 0.960 . S
C836 H823 0.960 . S
C836 C835 1.524 . S
C837 C834 1.403 . S
C837 C838 1.392 . S
C837 C841 1.495 1_565 S
C838 C837 1.392 . S
C838 C839 1.385 . S
C838 C840 1.478 . S
C839 H833 0.930 . S
C839 C835 1.400 . S
C839 C838 1.385 . S
C840 C838 1.478 . S
C840 C842 1.381 . S
C840 C846 1.383 . S
C841 C837 1.495 1_545 S
C841 H847 0.959 . S
C841 H848 0.961 . S
C841 H849 0.960 . S
C842 C840 1.381 . S
C842 C843 1.394 1_566 S
C842 H850 0.924 1_566 S
C843 C842 1.394 1_544 S
C843 C844 1.383 1_544 S
C843 H851 0.929 . S
C844 C843 1.383 1_566 S
C844 C845 1.377 . S
C845 H829 0.930 . S
C845 C844 1.377 . S
C845 C846 1.379 . S
C846 H830 0.931 . S
C846 C840 1.383 . S
C846 C845 1.379 . S
H847 C841 0.959 . S
H848 C841 0.961 . S
H849 C841 0.960 . S
H850 C842 0.924 1_544 S
H851 C843 0.929 . S
H852 C860 0.929 . S
H853 C862 0.930 . S
H854 C864 0.930 . S
H855 C867 0.929 . S
H856 C870 0.930 . S
H857 C872 0.960 . S
H858 C872 0.960 . S
H859 C872 0.960 . S
C860 H852 0.929 . S
C860 C861 1.377 . S
C860 C862 1.384 . S
C861 C860 1.377 . S
C861 C867 1.390 . S
C862 H853 0.930 . S
C862 C860 1.384 . S
C862 C863 1.372 . S
C863 C862 1.372 . S
C863 C864 1.400 . S
C863 C868 1.490 . S
C864 H854 0.930 . S
C864 C863 1.400 . S
C864 C867 1.386 . S
H865 C881 0.930 . S
H866 C882 0.931 . S
C867 H855 0.929 . S
C867 C861 1.390 . S
C867 C864 1.386 . S
C868 C863 1.490 . S
C868 C870 1.395 . S
C868 C871 1.403 . S
H869 C875 0.930 . S
C870 H856 0.930 . S
C870 C868 1.395 . S
C870 C873 1.403 . S
C871 C868 1.403 . S
C871 C872 1.524 . S
C871 C875 1.400 . S
C872 H857 0.960 . S
C872 H858 0.960 . S
C872 H859 0.960 . S
C872 C871 1.524 . S
C873 C870 1.403 . S
C873 C874 1.392 . S
C873 C877 1.495 . S
C874 C873 1.392 . S
C874 C875 1.385 . S
C874 C876 1.478 . S
C875 H869 0.930 . S
C875 C871 1.400 . S
C875 C874 1.385 . S
C876 C874 1.478 . S
C876 C878 1.381 . S
C876 C882 1.383 . S
C877 C873 1.495 . S
C877 H883 0.959 . S
C877 H884 0.961 . S
C877 H885 0.960 . S
C878 C876 1.381 . S
C878 C879 1.394 . S
C878 H886 0.930 . S
C879 C878 1.394 . S
C879 C880 1.383 . S
C879 H887 0.929 . S
C880 C879 1.383 . S
C880 C881 1.377 . S
C881 H865 0.930 . S
C881 C880 1.377 . S
C881 C882 1.379 . S
C882 H866 0.931 . S
C882 C876 1.383 . S
C882 C881 1.379 . S
H883 C877 0.959 . S
H884 C877 0.961 . S
H885 C877 0.960 . S
H886 C878 0.930 . S
H887 C879 0.929 . S
H888 C896 0.929 . S
H889 C898 0.930 . S
H890 C900 0.930 . S
H891 C903 0.929 . S
H892 C906 0.930 . S
H893 C908 0.960 . S
H894 C908 0.960 . S
H895 C908 0.960 . S
C896 H888 0.929 . S
C896 C897 1.377 . S
C896 C898 1.384 . S
C897 C896 1.377 . S
C897 C903 1.390 . S
C898 H889 0.930 . S
C898 C896 1.384 . S
C898 C899 1.372 . S
C899 C898 1.372 . S
C899 C900 1.400 . S
C899 C904 1.490 . S
C900 H890 0.930 . S
C900 C899 1.400 . S
C900 C903 1.386 . S
H901 C917 0.930 . S
H902 C918 0.931 . S
C903 H891 0.929 . S
C903 C897 1.390 . S
C903 C900 1.386 . S
C904 C899 1.490 . S
C904 C906 1.395 . S
C904 C907 1.403 . S
H905 C911 0.930 . S
C906 H892 0.930 . S
C906 C904 1.395 . S
C906 C909 1.403 . S
C907 C904 1.403 . S
C907 C908 1.524 . S
C907 C911 1.400 . S
C908 H893 0.960 . S
C908 H894 0.960 . S
C908 H895 0.960 . S
C908 C907 1.524 . S
C909 C906 1.403 . S
C909 C910 1.392 . S
C909 C913 1.495 . S
C910 C909 1.392 . S
C910 C911 1.385 . S
C910 C912 1.478 . S
C911 H905 0.930 . S
C911 C907 1.400 . S
C911 C910 1.385 . S
C912 C910 1.478 . S
C912 C914 1.381 . S
C912 C918 1.383 . S
C913 C909 1.495 . S
C913 H919 0.959 . S
C913 H920 0.961 . S
C913 H921 0.960 . S
C914 C912 1.381 . S
C914 C915 1.394 . S
C914 H922 0.930 . S
C915 C914 1.394 . S
C915 C916 1.383 . S
C915 H923 0.929 . S
C916 C915 1.383 . S
C916 C917 1.377 . S
C917 H901 0.930 . S
C917 C916 1.377 . S
C917 C918 1.379 . S
C918 H902 0.931 . S
C918 C912 1.383 . S
C918 C917 1.379 . S
H919 C913 0.959 . S
H920 C913 0.961 . S
H921 C913 0.960 . S
H922 C914 0.930 . S
H923 C915 0.929 . S
H924 C932 0.929 . S
H925 C934 0.930 . S
H926 C936 0.930 . S
H927 C939 0.929 . S
H928 C942 0.930 . S
H929 C944 0.960 . S
H930 C944 0.960 . S
H931 C944 0.960 . S
C932 H924 0.929 . S
C932 C933 1.377 . S
C932 C934 1.384 . S
C933 C932 1.377 . S
C933 C939 1.390 . S
C934 H925 0.930 . S
C934 C932 1.384 . S
C934 C935 1.372 . S
C935 C934 1.372 . S
C935 C936 1.400 . S
C935 C940 1.490 . S
C936 H926 0.930 . S
C936 C935 1.400 . S
C936 C939 1.386 . S
H937 C953 0.930 . S
H938 C954 0.931 . S
C939 H927 0.929 . S
C939 C933 1.390 . S
C939 C936 1.386 . S
C940 C935 1.490 . S
C940 C942 1.395 . S
C940 C943 1.403 . S
H941 C947 0.930 . S
C942 H928 0.930 . S
C942 C940 1.395 . S
C942 C945 1.403 . S
C943 C940 1.403 . S
C943 C944 1.524 . S
C943 C947 1.400 . S
C944 H929 0.960 . S
C944 H930 0.960 . S
C944 H931 0.960 . S
C944 C943 1.524 . S
C945 C942 1.403 . S
C945 C946 1.392 . S
C945 C949 1.495 . S
C946 C945 1.392 . S
C946 C947 1.385 . S
C946 C948 1.478 . S
C947 H941 0.930 . S
C947 C943 1.400 . S
C947 C946 1.385 . S
C948 C946 1.478 . S
C948 C950 1.381 . S
C948 C954 1.383 . S
C949 C945 1.495 . S
C949 H955 0.959 . S
C949 H956 0.961 . S
C949 H957 0.960 . S
C950 C948 1.381 . S
C950 C951 1.394 . S
C950 H958 0.930 . S
C951 C950 1.394 . S
C951 C952 1.383 . S
C951 H959 0.929 . S
C952 C951 1.383 . S
C952 C953 1.377 . S
C953 H937 0.930 . S
C953 C952 1.377 . S
C953 C954 1.379 . S
C954 H938 0.931 . S
C954 C948 1.383 . S
C954 C953 1.379 . S
H955 C949 0.959 . S
H956 C949 0.961 . S
H957 C949 0.960 . S
H958 C950 0.930 . S
H959 C951 0.929 . S
H960 C968 0.929 . S
H961 C970 0.930 . S
H962 C972 0.930 1_455 S
H963 C975 0.929 1_455 S
H964 C978 0.930 . S
H965 C980 0.973 . S
H966 C980 0.973 . S
H967 C980 0.945 1_556 S
C968 H960 0.929 . S
C968 C969 1.377 . S
C968 C970 1.384 . S
C969 C968 1.377 . S
C969 C975 1.390 . S
C970 H961 0.930 . S
C970 C968 1.384 . S
C970 C971 1.372 . S
C971 C970 1.372 . S
C971 C972 1.400 . S
C971 C976 1.490 . S
C972 H962 0.930 1_655 S
C972 C971 1.400 . S
C972 C975 1.386 . S
H973 C989 0.930 . S
H974 C990 0.931 . S
C975 H963 0.929 1_655 S
C975 C969 1.390 . S
C975 C972 1.386 . S
C976 C971 1.490 . S
C976 C978 1.395 . S
C976 C979 1.403 1_655 S
H977 C983 0.930 1_554 S
C978 H964 0.930 . S
C978 C976 1.395 . S
C978 C981 1.403 . S
C979 C976 1.403 1_455 S
C979 C980 1.513 1_556 S
C979 C983 1.400 . S
C980 H965 0.973 . S
C980 H966 0.973 . S
C980 H967 0.945 1_554 S
C980 C979 1.513 1_554 S
C981 C978 1.403 . S
C981 C982 1.392 . S
C981 C985 1.495 . S
C982 C981 1.392 . S
C982 C983 1.385 1_655 S
C982 C984 1.478 . S
C983 H977 0.930 1_556 S
C983 C979 1.400 . S
C983 C982 1.385 1_455 S
C984 C982 1.478 . S
C984 C986 1.377 1_556 S
C984 C990 1.383 1_655 S
C985 C981 1.495 . S
C985 H991 0.959 . S
C985 H992 0.961 . S
C985 H993 0.960 . S
C986 C984 1.377 1_554 S
C986 C987 1.397 . S
C986 H994 0.932 . S
C987 C986 1.397 . S
C987 C988 1.383 1_655 S
C987 H995 0.929 . S
C988 C987 1.383 1_455 S
C988 C989 1.377 1_554 S
C989 H973 0.930 . S
C989 C988 1.377 1_556 S
C989 C990 1.379 . S
C990 H974 0.931 . S
C990 C984 1.383 1_455 S
C990 C989 1.379 . S
H991 C985 0.959 . S
H992 C985 0.961 . S
H993 C985 0.960 . S
H994 C986 0.932 . S
H995 C987 0.929 . S
H996 C1004 0.929 . S
H997 C1006 0.930 . S
H998 C1008 0.930 . S
H999 C1011 0.929 . S
H1000 C1014 0.930 . S
H1001 C1016 0.960 . S
H1002 C1016 0.960 . S
H1003 C1016 0.960 . S
C1004 H996 0.929 . S
C1004 C1005 1.377 . S
C1004 C1006 1.384 . S
C1005 C1004 1.377 . S
C1005 C1011 1.390 . S
C1006 H997 0.930 . S
C1006 C1004 1.384 . S
C1006 C1007 1.372 . S
C1007 C1006 1.372 . S
C1007 C1008 1.400 . S
C1007 C1012 1.490 . S
C1008 H998 0.930 . S
C1008 C1007 1.400 . S
C1008 C1011 1.386 . S
H1009 C1025 0.930 . S
H1010 C1026 0.931 . S
C1011 H999 0.929 . S
C1011 C1005 1.390 . S
C1011 C1008 1.386 . S
C1012 C1007 1.490 . S
C1012 C1014 1.395 . S
C1012 C1015 1.403 . S
H1013 C1019 0.930 . S
C1014 H1000 0.930 . S
C1014 C1012 1.395 . S
C1014 C1017 1.403 . S
C1015 C1012 1.403 . S
C1015 C1016 1.524 . S
C1015 C1019 1.400 . S
C1016 H1001 0.960 . S
C1016 H1002 0.960 . S
C1016 H1003 0.960 . S
C1016 C1015 1.524 . S
C1017 C1014 1.403 . S
C1017 C1018 1.392 . S
C1017 C1021 1.495 . S
C1018 C1017 1.392 . S
C1018 C1019 1.385 . S
C1018 C1020 1.478 . S
C1019 H1013 0.930 . S
C1019 C1015 1.400 . S
C1019 C1018 1.385 . S
C1020 C1018 1.478 . S
C1020 C1022 1.381 . S
C1020 C1026 1.383 . S
C1021 C1017 1.495 . S
C1021 H1027 0.959 . S
C1021 H1028 0.961 . S
C1021 H1029 0.960 . S
C1022 C1020 1.381 . S
C1022 C1023 1.394 . S
C1022 H1030 0.930 . S
C1023 C1022 1.394 . S
C1023 C1024 1.383 . S
C1023 H1031 0.929 . S
C1024 C1023 1.383 . S
C1024 C1025 1.377 . S
C1025 H1009 0.930 . S
C1025 C1024 1.377 . S
C1025 C1026 1.379 . S
C1026 H1010 0.931 . S
C1026 C1020 1.383 . S
C1026 C1025 1.379 . S
H1027 C1021 0.959 . S
H1028 C1021 0.961 . S
H1029 C1021 0.960 . S
H1030 C1022 0.930 . S
H1031 C1023 0.929 . S
H1032 C1040 0.929 . S
H1033 C1042 0.930 . S
H1034 C1044 0.930 . S
H1035 C1047 0.929 . S
H1036 C1050 0.930 . S
H1037 C1052 0.960 . S
H1038 C1052 0.960 . S
H1039 C1052 0.960 . S
C1040 H1032 0.929 . S
C1040 C1041 1.377 . S
C1040 C1042 1.384 . S
C1041 C1040 1.377 . S
C1041 C1047 1.390 . S
C1042 H1033 0.930 . S
C1042 C1040 1.384 . S
C1042 C1043 1.372 . S
C1043 C1042 1.372 . S
C1043 C1044 1.400 . S
C1043 C1048 1.490 . S
C1044 H1034 0.930 . S
C1044 C1043 1.400 . S
C1044 C1047 1.386 . S
H1045 C1061 0.930 . S
H1046 C1062 0.931 . S
C1047 H1035 0.929 . S
C1047 C1041 1.390 . S
C1047 C1044 1.386 . S
C1048 C1043 1.490 . S
C1048 C1050 1.395 . S
C1048 C1051 1.403 . S
H1049 C1055 0.930 . S
C1050 H1036 0.930 . S
C1050 C1048 1.395 . S
C1050 C1053 1.403 . S
C1051 C1048 1.403 . S
C1051 C1052 1.524 . S
C1051 C1055 1.400 . S
C1052 H1037 0.960 . S
C1052 H1038 0.960 . S
C1052 H1039 0.960 . S
C1052 C1051 1.524 . S
C1053 C1050 1.403 . S
C1053 C1054 1.392 . S
C1053 C1057 1.495 . S
C1054 C1053 1.392 . S
C1054 C1055 1.385 . S
C1054 C1056 1.478 . S
C1055 H1049 0.930 . S
C1055 C1051 1.400 . S
C1055 C1054 1.385 . S
C1056 C1054 1.478 . S
C1056 C1058 1.381 . S
C1056 C1062 1.383 . S
C1057 C1053 1.495 . S
C1057 H1063 0.959 . S
C1057 H1064 0.961 . S
C1057 H1065 0.960 . S
C1058 C1056 1.381 . S
C1058 C1059 1.394 . S
C1058 H1066 0.930 . S
C1059 C1058 1.394 . S
C1059 C1060 1.383 . S
C1059 H1067 0.929 . S
C1060 C1059 1.383 . S
C1060 C1061 1.377 . S
C1061 H1045 0.930 . S
C1061 C1060 1.377 . S
C1061 C1062 1.379 . S
C1062 H1046 0.931 . S
C1062 C1056 1.383 . S
C1062 C1061 1.379 . S
H1063 C1057 0.959 . S
H1064 C1057 0.961 . S
H1065 C1057 0.960 . S
H1066 C1058 0.930 . S
H1067 C1059 0.929 . S
H1068 C1076 0.929 . S
H1069 C1078 0.930 . S
H1070 C1080 0.930 . S
H1071 C1083 0.929 . S
H1072 C1086 0.930 . S
H1073 C1088 0.960 . S
H1074 C1088 0.960 . S
H1075 C1088 0.960 . S
C1076 H1068 0.929 . S
C1076 C1077 1.377 . S
C1076 C1078 1.384 . S
C1077 C1076 1.377 . S
C1077 C1083 1.390 . S
C1078 H1069 0.930 . S
C1078 C1076 1.384 . S
C1078 C1079 1.372 . S
C1079 C1078 1.372 . S
C1079 C1080 1.400 . S
C1079 C1084 1.490 . S
C1080 H1070 0.930 . S
C1080 C1079 1.400 . S
C1080 C1083 1.386 . S
H1081 C1097 0.930 . S
H1082 C1098 0.931 . S
C1083 H1071 0.929 . S
C1083 C1077 1.390 . S
C1083 C1080 1.386 . S
C1084 C1079 1.490 . S
C1084 C1086 1.395 . S
C1084 C1087 1.403 . S
H1085 C1091 0.930 . S
C1086 H1072 0.930 . S
C1086 C1084 1.395 . S
C1086 C1089 1.403 . S
C1087 C1084 1.403 . S
C1087 C1088 1.524 . S
C1087 C1091 1.400 . S
C1088 H1073 0.960 . S
C1088 H1074 0.960 . S
C1088 H1075 0.960 . S
C1088 C1087 1.524 . S
C1089 C1086 1.403 . S
C1089 C1090 1.392 . S
C1089 C1093 1.495 . S
C1090 C1089 1.392 . S
C1090 C1091 1.385 . S
C1090 C1092 1.478 . S
C1091 H1085 0.930 . S
C1091 C1087 1.400 . S
C1091 C1090 1.385 . S
C1092 C1090 1.478 . S
C1092 C1094 1.381 . S
C1092 C1098 1.383 . S
C1093 C1089 1.495 . S
C1093 H1099 0.959 . S
C1093 H1100 0.961 . S
C1093 H1101 0.960 . S
C1094 C1092 1.381 . S
C1094 C1095 1.394 . S
C1094 H1102 0.930 . S
C1095 C1094 1.394 . S
C1095 C1096 1.383 . S
C1095 H1103 0.929 . S
C1096 C1095 1.383 . S
C1096 C1097 1.377 . S
C1097 H1081 0.930 . S
C1097 C1096 1.377 . S
C1097 C1098 1.379 . S
C1098 H1082 0.931 . S
C1098 C1092 1.383 . S
C1098 C1097 1.379 . S
H1099 C1093 0.959 . S
H1100 C1093 0.961 . S
H1101 C1093 0.960 . S
H1102 C1094 0.930 . S
H1103 C1095 0.929 . S
C249 C9 2.838 . S
C268 C104 2.845 . S
C285 C21 2.216 . S
C304 C146 2.216 1_565 S
C340 C176 0.651 . S
C321 C30 0.646 . S
C357 C43 0.743 . S
C376 C210 0.748 1_655 S
C412 C167 1.773 . S
C393 C4 1.753 . S
C448 C121 2.437 1_565 S
C429 C22 2.430 . S
C484 C214 0.885 . S
C465 C34 0.889 . S
C520 C180 1.112 . S
C501 C48 1.107 . S
C537 C8 2.283 . S
C556 C235 2.287 . S
C592 C142 1.135 . S
C573 C35 1.142 . S
C609 C47 1.138 . S
C628 C117 1.136 . S
C645 C17 1.889 . S
C664 C201 1.912 . S
C700 C133 2.348 1_665 S
C681 C60 2.338 . S
C717 C74 2.592 . S
C736 C155 2.602 . S
C753 C82 0.469 . S
C772 C185 0.438 . S
C789 C100 1.283 . S
C808 C219 1.297 . S
C825 C61 2.241 . S
C844 C138 2.241 1_566 S
C880 C112 1.939 . S
C861 C73 1.930 . S
C916 C223 1.427 . S
C897 C87 1.437 . S
C952 C189 0.752 . S
C933 C95 0.745 . S
C969 C56 2.244 . S
C988 C206 2.351 . S
C1024 C151 1.151 . S
C1005 C86 1.154 . S
C1060 C108 1.019 . S
C1041 C99 1.020 . S
C1077 C69 2.028 . S
C1096 C172 2.058 . S
