# Generated by pormake.
# Topology eea, (3,6)-cn, num edge types: 1
# Building blocks:
#     Node 0, Type 0, BuildingBlock: QEWDON_clean_linker_0, # of connection points: 3
#     Node 1, Type 0, BuildingBlock: QEWDON_clean_linker_0, # of connection points: 3
#     Node 2, Type 0, BuildingBlock: QEWDON_clean_linker_0, # of connection points: 3
#     Node 3, Type 0, BuildingBlock: QEWDON_clean_linker_0, # of connection points: 3
#     Node 4, Type 0, BuildingBlock: QEWDON_clean_linker_0, # of connection points: 3
#     Node 5, Type 0, BuildingBlock: QEWDON_clean_linker_0, # of connection points: 3
#     Node 6, Type 0, BuildingBlock: QEWDON_clean_linker_0, # of connection points: 3
#     Node 7, Type 0, BuildingBlock: QEWDON_clean_linker_0, # of connection points: 3
#     Node 8, Type 0, BuildingBlock: QEWDON_clean_linker_0, # of connection points: 3
#     Node 9, Type 0, BuildingBlock: QEWDON_clean_linker_0, # of connection points: 3
#     Node 10, Type 0, BuildingBlock: QEWDON_clean_linker_0, # of connection points: 3
#     Node 11, Type 0, BuildingBlock: QEWDON_clean_linker_0, # of connection points: 3
#     Node 12, Type 0, BuildingBlock: QEWDON_clean_linker_0, # of connection points: 3
#     Node 13, Type 0, BuildingBlock: QEWDON_clean_linker_0, # of connection points: 3
#     Node 14, Type 0, BuildingBlock: QEWDON_clean_linker_0, # of connection points: 3
#     Node 15, Type 0, BuildingBlock: QEWDON_clean_linker_0, # of connection points: 3
#     Node 16, Type 0, BuildingBlock: QEWDON_clean_linker_0, # of connection points: 3
#     Node 17, Type 0, BuildingBlock: QEWDON_clean_linker_0, # of connection points: 3
#     Node 18, Type 1, BuildingBlock: CUWYAW_clean_sbu_0, # of connection points: 6
#     Node 19, Type 1, BuildingBlock: CUWYAW_clean_sbu_0, # of connection points: 6
#     Node 20, Type 1, BuildingBlock: CUWYAW_clean_sbu_0, # of connection points: 6
#     Node 21, Type 1, BuildingBlock: CUWYAW_clean_sbu_0, # of connection points: 6
#     Node 22, Type 1, BuildingBlock: CUWYAW_clean_sbu_0, # of connection points: 6
#     Node 23, Type 1, BuildingBlock: CUWYAW_clean_sbu_0, # of connection points: 6
#     Node 24, Type 1, BuildingBlock: CUWYAW_clean_sbu_0, # of connection points: 6
#     Node 25, Type 1, BuildingBlock: CUWYAW_clean_sbu_0, # of connection points: 6
#     Node 26, Type 1, BuildingBlock: CUWYAW_clean_sbu_0, # of connection points: 6
#     Edge 27, Type (0, 1), BuildingBlock: ZUJKAS_clean_linker_0, # of connection points: 2
#     Edge 28, Type (0, 1), BuildingBlock: ZUJKAS_clean_linker_0, # of connection points: 2
#     Edge 29, Type (0, 1), BuildingBlock: ZUJKAS_clean_linker_0, # of connection points: 2
#     Edge 30, Type (0, 1), BuildingBlock: ZUJKAS_clean_linker_0, # of connection points: 2
#     Edge 31, Type (0, 1), BuildingBlock: ZUJKAS_clean_linker_0, # of connection points: 2
#     Edge 32, Type (0, 1), BuildingBlock: ZUJKAS_clean_linker_0, # of connection points: 2
#     Edge 33, Type (0, 1), BuildingBlock: ZUJKAS_clean_linker_0, # of connection points: 2
#     Edge 34, Type (0, 1), BuildingBlock: ZUJKAS_clean_linker_0, # of connection points: 2
#     Edge 35, Type (0, 1), BuildingBlock: ZUJKAS_clean_linker_0, # of connection points: 2
#     Edge 36, Type (0, 1), BuildingBlock: ZUJKAS_clean_linker_0, # of connection points: 2
#     Edge 37, Type (0, 1), BuildingBlock: ZUJKAS_clean_linker_0, # of connection points: 2
#     Edge 38, Type (0, 1), BuildingBlock: ZUJKAS_clean_linker_0, # of connection points: 2
#     Edge 39, Type (0, 1), BuildingBlock: ZUJKAS_clean_linker_0, # of connection points: 2
#     Edge 40, Type (0, 1), BuildingBlock: ZUJKAS_clean_linker_0, # of connection points: 2
#     Edge 41, Type (0, 1), BuildingBlock: ZUJKAS_clean_linker_0, # of connection points: 2
#     Edge 42, Type (0, 1), BuildingBlock: ZUJKAS_clean_linker_0, # of connection points: 2
#     Edge 43, Type (0, 1), BuildingBlock: ZUJKAS_clean_linker_0, # of connection points: 2
#     Edge 44, Type (0, 1), BuildingBlock: ZUJKAS_clean_linker_0, # of connection points: 2
#     Edge 45, Type (0, 1), BuildingBlock: ZUJKAS_clean_linker_0, # of connection points: 2
#     Edge 46, Type (0, 1), BuildingBlock: ZUJKAS_clean_linker_0, # of connection points: 2
#     Edge 47, Type (0, 1), BuildingBlock: ZUJKAS_clean_linker_0, # of connection points: 2
#     Edge 48, Type (0, 1), BuildingBlock: ZUJKAS_clean_linker_0, # of connection points: 2
#     Edge 49, Type (0, 1), BuildingBlock: ZUJKAS_clean_linker_0, # of connection points: 2
#     Edge 50, Type (0, 1), BuildingBlock: ZUJKAS_clean_linker_0, # of connection points: 2
#     Edge 51, Type (0, 1), BuildingBlock: ZUJKAS_clean_linker_0, # of connection points: 2
#     Edge 52, Type (0, 1), BuildingBlock: ZUJKAS_clean_linker_0, # of connection points: 2
#     Edge 53, Type (0, 1), BuildingBlock: ZUJKAS_clean_linker_0, # of connection points: 2
#     Edge 54, Type (0, 1), BuildingBlock: ZUJKAS_clean_linker_0, # of connection points: 2
#     Edge 55, Type (0, 1), BuildingBlock: ZUJKAS_clean_linker_0, # of connection points: 2
#     Edge 56, Type (0, 1), BuildingBlock: ZUJKAS_clean_linker_0, # of connection points: 2
#     Edge 57, Type (0, 1), BuildingBlock: ZUJKAS_clean_linker_0, # of connection points: 2
#     Edge 58, Type (0, 1), BuildingBlock: ZUJKAS_clean_linker_0, # of connection points: 2
#     Edge 59, Type (0, 1), BuildingBlock: ZUJKAS_clean_linker_0, # of connection points: 2
#     Edge 60, Type (0, 1), BuildingBlock: ZUJKAS_clean_linker_0, # of connection points: 2
#     Edge 61, Type (0, 1), BuildingBlock: ZUJKAS_clean_linker_0, # of connection points: 2
#     Edge 62, Type (0, 1), BuildingBlock: ZUJKAS_clean_linker_0, # of connection points: 2
#     Edge 63, Type (0, 1), BuildingBlock: ZUJKAS_clean_linker_0, # of connection points: 2
#     Edge 64, Type (0, 1), BuildingBlock: ZUJKAS_clean_linker_0, # of connection points: 2
#     Edge 65, Type (0, 1), BuildingBlock: ZUJKAS_clean_linker_0, # of connection points: 2
#     Edge 66, Type (0, 1), BuildingBlock: ZUJKAS_clean_linker_0, # of connection points: 2
#     Edge 67, Type (0, 1), BuildingBlock: ZUJKAS_clean_linker_0, # of connection points: 2
#     Edge 68, Type (0, 1), BuildingBlock: ZUJKAS_clean_linker_0, # of connection points: 2
#     Edge 69, Type (0, 1), BuildingBlock: ZUJKAS_clean_linker_0, # of connection points: 2
#     Edge 70, Type (0, 1), BuildingBlock: ZUJKAS_clean_linker_0, # of connection points: 2
#     Edge 71, Type (0, 1), BuildingBlock: ZUJKAS_clean_linker_0, # of connection points: 2
#     Edge 72, Type (0, 1), BuildingBlock: ZUJKAS_clean_linker_0, # of connection points: 2
#     Edge 73, Type (0, 1), BuildingBlock: ZUJKAS_clean_linker_0, # of connection points: 2
#     Edge 74, Type (0, 1), BuildingBlock: ZUJKAS_clean_linker_0, # of connection points: 2
#     Edge 75, Type (0, 1), BuildingBlock: ZUJKAS_clean_linker_0, # of connection points: 2
#     Edge 76, Type (0, 1), BuildingBlock: ZUJKAS_clean_linker_0, # of connection points: 2
#     Edge 77, Type (0, 1), BuildingBlock: ZUJKAS_clean_linker_0, # of connection points: 2
#     Edge 78, Type (0, 1), BuildingBlock: ZUJKAS_clean_linker_0, # of connection points: 2
#     Edge 79, Type (0, 1), BuildingBlock: ZUJKAS_clean_linker_0, # of connection points: 2
#     Edge 80, Type (0, 1), BuildingBlock: ZUJKAS_clean_linker_0, # of connection points: 2
# Relax obj value: 0.084
# Max RMSD: 0.253
# Mean RMSD: 0.173
data_MOF--net-eea--node1-CUWYAW_clean_sbu_0--node2-QEWDON_clean_linker_0--edge1-ZUJKAS_clean_linker_0
_symmetry_space_group_name_H-M    P1
_symmetry_Int_Tables_number       1
_symmetry_cell_setting            triclinic
loop_
_symmetry_equiv_pos_as_xyz
'x, y, z'
_cell_length_a     75.31069
_cell_length_b     75.106316
_cell_length_c     82.857908
_cell_angle_alpha  93.326148
_cell_angle_beta   93.50003
_cell_angle_gamma 119.83049
loop_
_atom_site_label
_atom_site_type_symbol
_atom_site_fract_x
_atom_site_fract_y
_atom_site_fract_z
_atom_type_partial_charge
H0 H 0.20351 0.11824 0.41627 0.0
C1 C 0.20488 0.10576 0.41042 0.0
C2 C 0.21507 0.09727 0.4191 0.0
C3 C 0.19523 0.09726 0.39461 0.0
H4 H 0.22348 0.07365 0.41827 0.0
C5 C 0.21587 0.0804 0.41161 0.0
C6 C 0.20635 0.07172 0.39582 0.0
C7 C 0.19635 0.08047 0.38737 0.0
C8 C 0.18252 0.1046 0.38602 0.0
H9 H 0.18922 0.07407 0.37509 0.0
C10 C 0.18945 0.12583 0.38561 0.0
C11 C 0.17735 0.13226 0.37681 0.0
C12 C 0.16311 0.09003 0.378 0.0
H13 H 0.15715 0.07365 0.37839 0.0
C14 C 0.15104 0.09637 0.36952 0.0
H15 H 0.2044 0.13724 0.39164 0.0
C16 C 0.1581 0.11729 0.36885 0.0
H17 H 0.14835 0.1218 0.36223 0.0
H18 H 0.13612 0.085 0.36344 0.0
H19 H 0.90182 0.10187 0.42314 0.0
C20 C 0.91359 0.11591 0.41888 0.0
C21 C 0.92161 0.13482 0.42859 0.0
C22 C 0.92151 0.11479 0.40417 0.0
H23 H 0.94387 0.16745 0.4306 0.0
C24 C 0.93771 0.15277 0.42332 0.0
C25 C 0.9458 0.15201 0.40861 0.0
C26 C 0.9374 0.133 0.39906 0.0
C27 C 0.91439 0.09451 0.39466 0.0
H28 H 0.94369 0.13228 0.38778 0.0
C29 C 0.89335 0.0791 0.39223 0.0
C30 C 0.887 0.06018 0.38294 0.0
C31 C 0.92892 0.09045 0.38801 0.0
H32 H 0.94521 0.10166 0.38998 0.0
C33 C 0.92271 0.07173 0.37895 0.0
H34 H 0.88193 0.082 0.39718 0.0
C35 C 0.90195 0.05673 0.37638 0.0
H36 H 0.89761 0.04223 0.36943 0.0
H37 H 0.93407 0.0688 0.37395 0.0
H38 H 0.92032 0.80123 0.43839 0.0
C39 C 0.90691 0.80048 0.43203 0.0
C40 C 0.88745 0.78877 0.43761 0.0
C41 C 0.90931 0.8121 0.41879 0.0
H42 H 0.85542 0.7801 0.43414 0.0
C43 C 0.87028 0.78839 0.4295 0.0
C44 C 0.87238 0.79989 0.41624 0.0
C45 C 0.89196 0.81161 0.41093 0.0
C46 C 0.93016 0.82657 0.41429 0.0
H47 H 0.8938 0.82063 0.40076 0.0
C48 C 0.94447 0.82012 0.41135 0.0
C49 C 0.96435 0.83442 0.40752 0.0
C50 C 0.93593 0.84735 0.41329 0.0
H51 H 0.92531 0.85274 0.41564 0.0
C52 C 0.95556 0.86149 0.40956 0.0
H53 H 0.94018 0.80413 0.41205 0.0
C54 C 0.9697 0.85512 0.40673 0.0
H55 H 0.98477 0.86637 0.40365 0.0
H56 H 0.95984 0.87746 0.40887 0.0
H57 H 0.11042 0.20859 0.58286 0.0
C58 C 0.09817 0.20944 0.58844 0.0
C59 C 0.0896 0.22054 0.58158 0.0
C60 C 0.09007 0.19824 0.60172 0.0
H61 H 0.06592 0.22861 0.58278 0.0
C62 C 0.07284 0.22048 0.58831 0.0
C63 C 0.06473 0.20968 0.60184 0.0
C64 C 0.07375 0.1989 0.60856 0.0
C65 C 0.0971 0.18414 0.60746 0.0
H66 H 0.06796 0.19074 0.61911 0.0
C67 C 0.11818 0.19035 0.60999 0.0
C68 C 0.12431 0.17633 0.6148 0.0
C69 C 0.08234 0.16383 0.6099 0.0
H70 H 0.06604 0.1585 0.60782 0.0
C71 C 0.08837 0.14999 0.6147 0.0
H72 H 0.12973 0.20595 0.60816 0.0
C73 C 0.10917 0.15614 0.61711 0.0
H74 H 0.11345 0.14513 0.621 0.0
H75 H 0.07685 0.1344 0.61652 0.0
H76 H 0.80756 0.91579 0.60642 0.0
C77 C 0.80636 0.90204 0.61099 0.0
C78 C 0.79474 0.88285 0.60157 0.0
C79 C 0.81702 0.90372 0.62604 0.0
H80 H 0.78487 0.85041 0.60032 0.0
C81 C 0.79357 0.86518 0.60758 0.0
C82 C 0.80398 0.86648 0.62267 0.0
C83 C 0.81552 0.88582 0.63182 0.0
C84 C 0.83089 0.92427 0.63529 0.0
H85 H 0.82388 0.88708 0.64334 0.0
C86 C 0.82502 0.93939 0.6372 0.0
C87 C 0.83827 0.9585 0.64638 0.0
C88 C 0.85037 0.92882 0.6423 0.0
H89 H 0.85558 0.91779 0.64073 0.0
C90 C 0.86355 0.94776 0.65123 0.0
H91 H 0.81003 0.9361 0.63198 0.0
C92 C 0.85755 0.96247 0.65333 0.0
H93 H 0.86817 0.97713 0.66023 0.0
H94 H 0.87851 0.95107 0.65652 0.0
H95 H 0.09462 0.88814 0.59096 0.0
C96 C 0.10818 0.90126 0.59748 0.0
C97 C 0.12747 0.90832 0.59161 0.0
C98 C 0.10616 0.91173 0.61124 0.0
H99 H 0.15968 0.93137 0.59521 0.0
C100 C 0.14486 0.92575 0.59985 0.0
C101 C 0.14316 0.9366 0.61351 0.0
C102 C 0.12374 0.9293 0.61921 0.0
C103 C 0.08544 0.90592 0.61615 0.0
H104 H 0.1221 0.93777 0.62949 0.0
C105 C 0.07093 0.88537 0.61848 0.0
C106 C 0.05114 0.88029 0.62261 0.0
C107 C 0.07994 0.92122 0.61808 0.0
H108 H 0.09068 0.93706 0.61618 0.0
C109 C 0.06043 0.91622 0.62214 0.0
H110 H 0.07497 0.87343 0.61705 0.0
C111 C 0.0461 0.89593 0.62436 0.0
H112 H 0.0311 0.8925 0.62767 0.0
H113 H 0.05637 0.92813 0.62355 0.0
H114 H 0.87012 0.45484 0.74897 0.0
C115 C 0.87127 0.44215 0.74326 0.0
C116 C 0.88142 0.43371 0.75205 0.0
C117 C 0.8614 0.43337 0.72755 0.0
H118 H 0.8895 0.40986 0.75154 0.0
C119 C 0.88194 0.41658 0.74477 0.0
C120 C 0.87222 0.40762 0.72909 0.0
C121 C 0.86229 0.41635 0.72051 0.0
C122 C 0.84872 0.44068 0.71886 0.0
H123 H 0.85502 0.40975 0.70829 0.0
C124 C 0.8557 0.4619 0.71831 0.0
C125 C 0.84363 0.4683 0.70945 0.0
C126 C 0.82928 0.4261 0.7109 0.0
H127 H 0.82326 0.40972 0.7114 0.0
C128 C 0.81723 0.4324 0.70234 0.0
H129 H 0.87068 0.47333 0.7243 0.0
C130 C 0.82435 0.45331 0.70154 0.0
H131 H 0.81462 0.4578 0.69487 0.0
H132 H 0.80229 0.42102 0.6963 0.0
H133 H 0.56444 0.43611 0.75521 0.0
C134 C 0.57659 0.45 0.75106 0.0
C135 C 0.58504 0.46887 0.7609 0.0
C136 C 0.58456 0.44873 0.7364 0.0
H137 H 0.6081 0.50123 0.76331 0.0
C138 C 0.60159 0.48663 0.75585 0.0
C139 C 0.60962 0.48577 0.74114 0.0
C140 C 0.60081 0.46683 0.73143 0.0
C141 C 0.57709 0.42842 0.72678 0.0
H142 H 0.60707 0.46606 0.72015 0.0
C143 C 0.55599 0.41313 0.72452 0.0
C144 C 0.54936 0.39423 0.7151 0.0
C145 C 0.59137 0.42418 0.71984 0.0
H146 H 0.60771 0.43523 0.72171 0.0
C147 C 0.58486 0.4055 0.71062 0.0
H148 H 0.54473 0.4161 0.7297 0.0
C149 C 0.56404 0.39066 0.7082 0.0
H150 H 0.55944 0.37617 0.70111 0.0
H151 H 0.59603 0.40246 0.70539 0.0
H152 H 0.5831 0.132 0.77219 0.0
C153 C 0.56998 0.13128 0.76535 0.0
C154 C 0.55031 0.12031 0.77074 0.0
C155 C 0.57307 0.14284 0.75199 0.0
H156 H 0.51845 0.11193 0.76627 0.0
C157 C 0.5336 0.12024 0.7621 0.0
C158 C 0.53639 0.13161 0.74868 0.0
C159 C 0.55622 0.14288 0.74372 0.0
C160 C 0.59419 0.15709 0.74797 0.0
H161 H 0.55867 0.152 0.73353 0.0
C162 C 0.60783 0.15004 0.74424 0.0
C163 C 0.62796 0.16413 0.7408 0.0
C164 C 0.60085 0.17821 0.74817 0.0
H165 H 0.59068 0.18399 0.7511 0.0
C166 C 0.62077 0.19215 0.74489 0.0
H167 H 0.6028 0.13376 0.74399 0.0
C168 C 0.63426 0.18521 0.74126 0.0
H169 H 0.64957 0.19632 0.73853 0.0
H170 H 0.62576 0.20841 0.74513 0.0
H171 H 0.77661 0.53905 0.91743 0.0
C172 C 0.76475 0.54086 0.92275 0.0
C173 C 0.75664 0.55188 0.91499 0.0
C174 C 0.7568 0.53124 0.93677 0.0
H175 H 0.73377 0.56125 0.91529 0.0
C176 C 0.74036 0.55316 0.92138 0.0
C177 C 0.73223 0.54369 0.93536 0.0
C178 C 0.74091 0.53328 0.94314 0.0
C179 C 0.76391 0.51792 0.9443 0.0
H180 H 0.73508 0.52659 0.95424 0.0
C181 C 0.78467 0.52271 0.94503 0.0
C182 C 0.79096 0.50995 0.95245 0.0
C183 C 0.74954 0.49995 0.95078 0.0
H184 H 0.73337 0.49525 0.94994 0.0
C185 C 0.75571 0.48761 0.95839 0.0
H186 H 0.79586 0.53628 0.93987 0.0
C187 C 0.7762 0.49263 0.95939 0.0
H188 H 0.78045 0.48288 0.96573 0.0
H189 H 0.74451 0.47404 0.96356 0.0
H190 H 0.47487 0.24678 0.93881 0.0
C191 C 0.47409 0.23326 0.94349 0.0
C192 C 0.46346 0.21411 0.93392 0.0
C193 C 0.48417 0.23515 0.95888 0.0
H194 H 0.45559 0.18219 0.93229 0.0
C195 C 0.46299 0.19674 0.93991 0.0
C196 C 0.473 0.1983 0.95525 0.0
C197 C 0.48315 0.21748 0.96473 0.0
C198 C 0.49687 0.25566 0.96852 0.0
H199 H 0.49042 0.2187 0.97676 0.0
C200 C 0.49023 0.27024 0.96973 0.0
C201 C 0.50237 0.28933 0.97927 0.0
C202 C 0.51603 0.26073 0.97661 0.0
H203 H 0.52186 0.25017 0.97561 0.0
C204 C 0.5281 0.27963 0.98592 0.0
H205 H 0.47547 0.26656 0.96367 0.0
C206 C 0.52134 0.2938 0.9873 0.0
H207 H 0.53114 0.30846 0.99449 0.0
H208 H 0.54282 0.28334 0.99205 0.0
H209 H 0.76333 0.22229 0.92407 0.0
C210 C 0.7769 0.23514 0.93082 0.0
C211 C 0.79568 0.24451 0.92382 0.0
C212 C 0.77525 0.24336 0.94598 0.0
H213 H 0.82732 0.26919 0.92701 0.0
C214 C 0.81293 0.2618 0.93242 0.0
C215 C 0.81162 0.27015 0.94761 0.0
C216 C 0.79277 0.26061 0.95435 0.0
C217 C 0.75496 0.23567 0.9525 0.0
H218 H 0.79159 0.26681 0.96612 0.0
C219 C 0.74139 0.21447 0.95367 0.0
C220 C 0.7229 0.20811 0.96084 0.0
C221 C 0.74933 0.25008 0.958 0.0
H222 H 0.75921 0.26639 0.95699 0.0
C223 C 0.73092 0.2437 0.96484 0.0
H224 H 0.74547 0.20313 0.94954 0.0
C225 C 0.71786 0.22289 0.96638 0.0
H226 H 0.70369 0.21826 0.97187 0.0
H227 H 0.72682 0.25497 0.96905 0.0
H228 H 0.53827 0.78407 0.08349 0.0
C229 C 0.53931 0.77151 0.07739 0.0
C230 C 0.55034 0.76342 0.08541 0.0
C231 C 0.52839 0.76246 0.06201 0.0
H232 H 0.55978 0.74064 0.08356 0.0
C233 C 0.5509 0.7466 0.0776 0.0
C234 C 0.53997 0.73721 0.06232 0.0
C235 C 0.52896 0.74544 0.05455 0.0
C236 C 0.51493 0.76948 0.05421 0.0
H237 H 0.52022 0.73816 0.04285 0.0
C238 C 0.52176 0.79063 0.0534 0.0
C239 C 0.50897 0.79677 0.04531 0.0
C240 C 0.49495 0.75472 0.04734 0.0
H241 H 0.48908 0.73841 0.04808 0.0
C242 C 0.4822 0.76079 0.03956 0.0
H243 H 0.53715 0.80218 0.05855 0.0
C244 C 0.48915 0.78163 0.03846 0.0
H245 H 0.4789 0.78594 0.03239 0.0
H246 H 0.46685 0.74928 0.03435 0.0
H247 H 0.23372 0.76968 0.09223 0.0
C248 C 0.24535 0.78335 0.08743 0.0
C249 C 0.25303 0.80281 0.09619 0.0
C250 C 0.25355 0.78124 0.07313 0.0
H251 H 0.27496 0.83539 0.09696 0.0
C252 C 0.26902 0.82033 0.09036 0.0
C253 C 0.27733 0.81859 0.076 0.0
C254 C 0.2693 0.79902 0.0674 0.0
C255 C 0.24708 0.76038 0.065 0.0
H256 H 0.27583 0.79754 0.05645 0.0
C257 C 0.22625 0.74444 0.063 0.0
C258 C 0.22064 0.72458 0.05587 0.0
C259 C 0.26211 0.75614 0.05968 0.0
H260 H 0.27827 0.76784 0.06134 0.0
C261 C 0.2566 0.73663 0.05248 0.0
H262 H 0.21448 0.74742 0.06707 0.0
C263 C 0.23607 0.72096 0.05058 0.0
H264 H 0.23223 0.70599 0.04481 0.0
H265 H 0.26832 0.7336 0.04842 0.0
H266 H 0.25203 0.4697 0.10691 0.0
C267 C 0.23884 0.46866 0.09992 0.0
C268 C 0.21922 0.45789 0.10543 0.0
C269 C 0.24177 0.4796 0.08619 0.0
H270 H 0.1873 0.44926 0.10088 0.0
C271 C 0.2024 0.4574 0.0966 0.0
C272 C 0.205 0.46806 0.08276 0.0
C273 C 0.22478 0.47913 0.07766 0.0
C274 C 0.26281 0.49378 0.08196 0.0
H275 H 0.22707 0.48771 0.06715 0.0
C276 C 0.27667 0.48686 0.07865 0.0
C277 C 0.29666 0.50091 0.07483 0.0
C278 C 0.26912 0.51475 0.08141 0.0
H279 H 0.25879 0.52044 0.08401 0.0
C280 C 0.28886 0.52864 0.07776 0.0
H281 H 0.27191 0.47071 0.07899 0.0
C282 C 0.30254 0.52182 0.0745 0.0
H283 H 0.31768 0.5329 0.07142 0.0
H284 H 0.29356 0.54476 0.0774 0.0
H285 H 0.44719 0.87644 0.25213 0.0
C286 C 0.43463 0.87741 0.25699 0.0
C287 C 0.42708 0.88926 0.24983 0.0
C288 C 0.42553 0.86611 0.27001 0.0
H289 H 0.40407 0.89847 0.25049 0.0
C290 C 0.41054 0.89006 0.25624 0.0
C291 C 0.40141 0.87904 0.2694 0.0
C292 C 0.40918 0.86731 0.27626 0.0
C293 C 0.43169 0.85159 0.27628 0.0
H294 H 0.40235 0.85889 0.28649 0.0
C295 C 0.45255 0.8574 0.27996 0.0
C296 C 0.45782 0.84339 0.2863 0.0
C297 C 0.41629 0.8315 0.2786 0.0
H298 H 0.40018 0.82646 0.27559 0.0
C299 C 0.42146 0.81755 0.28459 0.0
H300 H 0.46455 0.87289 0.27836 0.0
C301 C 0.44201 0.82342 0.28845 0.0
H302 H 0.44556 0.81217 0.29296 0.0
H303 H 0.40946 0.8021 0.28623 0.0
H304 H 0.14365 0.58082 0.26908 0.0
C305 C 0.14226 0.5674 0.27442 0.0
C306 C 0.13047 0.54778 0.2657 0.0
C307 C 0.15347 0.57 0.28942 0.0
H308 H 0.12032 0.51541 0.26573 0.0
C309 C 0.12962 0.53058 0.27232 0.0
C310 C 0.14067 0.53278 0.28731 0.0
C311 C 0.15237 0.55255 0.29582 0.0
C312 C 0.16783 0.59106 0.29767 0.0
H313 H 0.16122 0.55449 0.30726 0.0
C314 C 0.1623 0.6065 0.29868 0.0
C315 C 0.17647 0.62657 0.30599 0.0
C316 C 0.18764 0.596 0.30415 0.0
H317 H 0.19256 0.58469 0.30328 0.0
C318 C 0.20157 0.61573 0.31153 0.0
H319 H 0.14713 0.60297 0.29372 0.0
C320 C 0.19608 0.63091 0.31245 0.0
H321 H 0.20717 0.64606 0.31837 0.0
H322 H 0.21674 0.6193 0.31648 0.0
H323 H 0.42803 0.55664 0.25608 0.0
C324 C 0.44153 0.56964 0.26277 0.0
C325 C 0.46073 0.57774 0.25651 0.0
C326 C 0.43948 0.57894 0.2772 0.0
H327 H 0.49254 0.60193 0.25984 0.0
C328 C 0.47798 0.59509 0.26504 0.0
C329 C 0.47627 0.60458 0.27953 0.0
C330 C 0.45695 0.59618 0.28559 0.0
C331 C 0.4188 0.57244 0.28251 0.0
H332 H 0.45533 0.60327 0.29674 0.0
C333 C 0.40461 0.55165 0.28444 0.0
C334 C 0.38491 0.54605 0.2891 0.0
C335 C 0.41306 0.58744 0.28533 0.0
H336 H 0.42356 0.60347 0.28378 0.0
C337 C 0.39362 0.58194 0.28988 0.0
H338 H 0.40887 0.53995 0.28234 0.0
C339 C 0.37963 0.56143 0.29173 0.0
H340 H 0.36471 0.55761 0.29548 0.0
H341 H 0.38938 0.59363 0.29198 0.0
C342 C 0.52482 0.01246 0.05991 0.0
Eu343 Eu 0.5129 0.0125 0.0297 0.0
C344 C 0.51568 1.00157 0.07413 0.0
C345 C 0.49637 0.99794 0.07816 0.0
C346 C 0.48836 0.9882 0.09202 0.0
C347 C 0.49941 0.98172 0.10201 0.0
C348 C 0.51853 0.98502 0.09774 0.0
C349 C 0.52659 0.9949 0.08396 0.0
C350 C 0.50338 0.03956 0.01725 0.0
C351 C 0.46317 0.97966 0.02197 0.0
C352 C 0.48085 0.99902 0.96433 0.0
Eu353 Eu 0.49284 1.00025 0.99477 0.0
C354 C 0.48939 0.00965 0.94986 0.0
C355 C 0.48768 0.99788 0.93546 0.0
C356 C 0.49517 0.00738 0.92144 0.0
C357 C 0.5044 0.0289 0.92149 0.0
C358 C 0.50626 0.04073 0.93597 0.0
C359 C 0.49891 0.03122 0.95005 0.0
C360 C 0.50215 0.9732 0.00751 0.0
C361 C 0.54237 0.03359 0.0025 0.0
O362 O 0.52641 1.00148 0.04784 0.0
O363 O 0.51899 0.02519 0.05502 0.0
O364 O 0.51969 0.04503 0.02716 0.0
O365 O 0.49228 0.02016 0.0151 0.0
O366 O 0.48016 0.98701 0.03207 0.0
O367 O 0.46368 0.98461 0.0069 0.0
O368 O 0.47812 0.00943 0.9762 0.0
O369 O 0.48802 0.98747 0.96952 0.0
O370 O 0.48567 0.96771 0.99784 0.0
O371 O 0.5134 0.99258 0.00936 0.0
O372 O 0.52532 0.02634 0.99249 0.0
O373 O 0.54198 0.02838 0.01749 0.0
H374 H 0.48751 0.00274 0.07067 0.0
H375 H 0.47346 0.98562 0.09486 0.0
H376 H 0.5275 0.98038 0.10525 0.0
H377 H 0.54149 0.99751 0.08106 0.0
H378 H 0.48036 0.98124 0.93502 0.0
H379 H 0.49326 0.99782 0.91044 0.0
H380 H 0.51347 0.05736 0.93642 0.0
H381 H 0.50058 0.04073 0.96103 0.0
C382 C 0.01152 0.52686 0.05559 0.0
Eu383 Eu 0.00517 0.50979 0.0259 0.0
C384 C 0.02287 0.52892 0.07135 0.0
C385 C 0.02517 0.51266 0.07657 0.0
C386 C 0.03472 0.51453 0.09211 0.0
C387 C 0.04224 0.53273 0.10266 0.0
C388 C 0.04048 0.54919 0.09709 0.0
C389 C 0.03085 0.54727 0.08162 0.0
C390 C 0.97612 0.47074 0.01444 0.0
C391 C 0.03579 0.49122 0.02021 0.0
C392 C 1.0018 0.47817 0.96215 0.0
Eu393 Eu 0.00887 0.49597 0.99165 0.0
C394 C 0.99248 0.47841 0.94612 0.0
C395 C 0.99038 0.49526 0.94224 0.0
C396 C 0.9819 0.49529 0.92672 0.0
C397 C 0.97534 0.47844 0.91488 0.0
C398 C 0.97716 0.46146 0.91902 0.0
C399 C 0.98568 0.46148 0.93448 0.0
C400 C 0.03817 0.53492 0.00297 0.0
C401 C 0.97844 0.51498 0.9973 0.0
O402 O 0.02246 0.53649 0.04399 0.0
O403 O 0.99607 0.50853 0.0504 0.0
O404 O 0.97244 0.48299 0.02347 0.0
O405 O 0.995 0.4792 0.01255 0.0
O406 O 0.03152 0.50321 0.02955 0.0
O407 O 0.02637 0.48359 0.0054 0.0
O408 O 0.98921 0.47035 0.97329 0.0
O409 O 0.01904 0.49485 0.96778 0.0
O410 O 0.04153 0.52264 0.99365 0.0
O411 O 0.01932 0.52664 0.00501 0.0
O412 O 0.98397 0.50452 0.98743 0.0
O413 O 0.98626 0.52094 0.01264 0.0
H414 H 0.01923 0.49838 0.06878 0.0
H415 H 0.03566 0.50148 0.096 0.0
H416 H 0.04647 0.56359 0.10473 0.0
H417 H 0.02936 0.56005 0.07775 0.0
H418 H 0.99545 0.50843 0.95114 0.0
H419 H 0.98084 0.50866 0.92393 0.0
H420 H 0.97187 0.44803 0.91035 0.0
H421 H 0.98701 0.44827 0.93734 0.0
C422 C 0.48373 0.48014 0.95988 0.0
Eu423 Eu 0.49685 0.50042 0.98875 0.0
C424 C 0.49257 0.4796 0.94462 0.0
C425 C 0.51156 0.49607 0.94142 0.0
C426 C 0.51953 0.49545 0.9267 0.0
C427 C 0.50869 0.47831 0.91494 0.0
C428 C 0.48981 0.46173 0.91839 0.0
C429 C 0.48184 0.4624 0.93308 0.0
C430 C 0.5068 0.53994 0.99687 0.0
C431 C 0.54728 0.52198 0.99474 0.0
C432 C 0.53251 0.53868 0.05171 0.0
Eu433 Eu 0.51922 0.51869 0.02274 0.0
C434 C 0.52431 0.53959 0.06727 0.0
C435 C 0.50971 0.52166 0.07358 0.0
C436 C 0.50275 0.52297 0.08866 0.0
C437 C 0.51014 0.54224 0.09768 0.0
C438 C 0.52441 0.56015 0.09107 0.0
C439 C 0.53144 0.55881 0.07607 0.0
C440 C 0.50949 0.47927 0.01433 0.0
C441 C 0.46886 0.49756 0.01674 0.0
O442 O 0.48949 0.47341 0.97221 0.0
O443 O 0.48315 0.4969 0.96402 0.0
O444 O 0.49003 0.52652 0.98802 0.0
O445 O 0.51804 0.53234 1.00018 0.0
O446 O 0.52991 0.50868 0.98578 0.0
O447 O 0.54724 0.53067 0.00907 0.0
O448 O 0.52669 0.54556 0.03952 0.0
O449 O 0.53306 0.52194 0.04738 0.0
O450 O 0.52634 0.49277 0.02305 0.0
O451 O 0.4981 0.48677 0.0113 0.0
O452 O 0.48627 0.51062 0.02574 0.0
O453 O 0.46876 0.48888 0.00236 0.0
H454 H 0.52013 0.50946 0.95025 0.0
H455 H 0.534 0.50858 0.92443 0.0
H456 H 0.48123 0.44811 0.9098 0.0
H457 H 0.46725 0.44948 0.93541 0.0
H458 H 0.50385 0.50663 0.06696 0.0
H459 H 0.4919 0.50884 0.09338 0.0
H460 H 0.53011 0.57529 0.09745 0.0
H461 H 0.54256 0.57285 0.07135 0.0
C462 C 0.19322 0.34694 0.39397 0.0
Eu463 Eu 0.18116 0.34789 0.36401 0.0
C464 C 0.18402 0.33604 0.40815 0.0
C465 C 0.16443 0.33185 0.41182 0.0
C466 C 0.15629 0.32201 0.42562 0.0
C467 C 0.16755 0.31607 0.43597 0.0
C468 C 0.18699 0.31994 0.43199 0.0
C469 C 0.19513 0.32985 0.41825 0.0
C470 C 0.17161 0.37538 0.3525 0.0
C471 C 0.13133 0.3154 0.35616 0.0
C472 C 0.14923 0.33606 0.29871 0.0
Eu473 Eu 0.16098 0.33667 0.3291 0.0
C474 C 0.15791 0.3471 0.28444 0.0
C475 C 0.15516 0.33561 0.26961 0.0
C476 C 0.16297 0.34551 0.25581 0.0
C477 C 0.17361 0.36716 0.25652 0.0
C478 C 0.17647 0.3787 0.27143 0.0
C479 C 0.16878 0.36877 0.2853 0.0
C480 C 0.17044 0.30927 0.34101 0.0
C481 C 0.21041 0.36997 0.33699 0.0
O482 O 0.19408 0.33578 0.38166 0.0
O483 O 0.18799 0.36026 0.38945 0.0
O484 O 0.18791 0.38056 0.36232 0.0
O485 O 0.16052 0.356 0.34994 0.0
O486 O 0.14834 0.32238 0.36617 0.0
O487 O 0.13184 0.32083 0.34123 0.0
O488 O 0.14632 0.34615 0.31071 0.0
O489 O 0.15648 0.3245 0.30371 0.0
O490 O 0.15386 0.304 0.33155 0.0
O491 O 0.18165 0.32864 0.34316 0.0
O492 O 0.19325 0.36338 0.32728 0.0
O493 O 0.21013 0.36377 0.35162 0.0
H494 H 0.15548 0.33636 0.40414 0.0
H495 H 0.14137 0.31947 0.42834 0.0
H496 H 0.19592 0.31522 0.43945 0.0
H497 H 0.21019 0.33278 0.41555 0.0
H498 H 0.14682 0.3189 0.26867 0.0
H499 H 0.16029 0.33618 0.24447 0.0
H500 H 0.18476 0.3954 0.27239 0.0
H501 H 0.17129 0.37802 0.29664 0.0
C502 C 0.67757 0.85874 0.39027 0.0
Eu503 Eu 0.67183 0.84202 0.36053 0.0
C504 C 0.68853 0.86035 0.40611 0.0
C505 C 0.69107 0.84408 0.41096 0.0
C506 C 0.7006 0.84564 0.42644 0.0
C507 C 0.70792 0.86357 0.43725 0.0
C508 C 0.70575 0.87998 0.43216 0.0
C509 C 0.6961 0.87835 0.41675 0.0
C510 C 0.64254 0.80319 0.34869 0.0
C511 C 0.70222 0.82302 0.3554 0.0
C512 C 0.67082 0.812 0.29679 0.0
Eu513 Eu 0.67622 0.8284 0.32659 0.0
C514 C 0.66151 0.81214 0.28068 0.0
C515 C 0.67156 0.81226 0.26697 0.0
C516 C 0.66306 0.8122 0.25149 0.0
C517 C 0.64429 0.81202 0.2494 0.0
C518 C 0.63429 0.81203 0.26321 0.0
C519 C 0.64284 0.81211 0.27872 0.0
C520 C 0.70561 0.86718 0.33845 0.0
C521 C 0.64564 0.8473 0.3317 0.0
O522 O 0.68893 0.86843 0.37888 0.0
O523 O 0.66203 0.84058 0.38481 0.0
O524 O 0.63888 0.81562 0.35751 0.0
O525 O 0.66149 0.81135 0.34715 0.0
O526 O 0.69794 0.83514 0.36459 0.0
O527 O 0.69303 0.81549 0.34052 0.0
O528 O 0.65832 0.80292 0.30775 0.0
O529 O 0.68729 0.82918 0.30277 0.0
O530 O 0.70915 0.8547 0.3296 0.0
O531 O 0.68665 0.8591 0.33995 0.0
O532 O 0.65053 0.83584 0.32231 0.0
O533 O 0.65419 0.85423 0.34681 0.0
H534 H 0.68551 0.8301 0.40286 0.0
H535 H 0.70228 0.83284 0.42994 0.0
H536 H 0.71104 0.89391 0.44024 0.0
H537 H 0.69428 0.89107 0.41321 0.0
H538 H 0.68596 0.81224 0.26823 0.0
H539 H 0.671 0.81184 0.24112 0.0
H540 H 0.61991 0.81208 0.26205 0.0
H541 H 0.63483 0.81205 0.28915 0.0
C542 C 0.15332 0.81684 0.29539 0.0
Eu543 Eu 0.16683 0.83572 0.32471 0.0
C544 C 0.16172 0.81579 0.27996 0.0
C545 C 0.15128 0.81561 0.26531 0.0
C546 C 0.15893 0.81475 0.2505 0.0
C547 C 0.17723 0.81407 0.25005 0.0
C548 C 0.18771 0.8143 0.2648 0.0
C549 C 0.18 0.81512 0.27961 0.0
C550 C 0.17656 0.87495 0.33395 0.0
C551 C 0.21716 0.8568 0.33065 0.0
C552 C 0.20233 0.87205 0.38798 0.0
Eu553 Eu 0.18903 0.85286 0.35874 0.0
C554 C 0.1937 0.87273 0.40332 0.0
C555 C 0.17536 0.85588 0.40717 0.0
C556 C 0.16777 0.85668 0.42205 0.0
C557 C 0.17829 0.87442 0.43325 0.0
C558 C 0.19646 0.89137 0.42917 0.0
C559 C 0.20409 0.8905 0.41436 0.0
C560 C 0.17963 0.81373 0.34954 0.0
C561 C 0.13873 0.832 0.35275 0.0
O562 O 0.15767 0.8088 0.30755 0.0
O563 O 0.1543 0.8343 0.2999 0.0
O564 O 0.15961 0.86161 0.32527 0.0
O565 O 0.18796 0.86738 0.33668 0.0
O566 O 0.19979 0.84376 0.32157 0.0
O567 O 0.21712 0.8651 0.34515 0.0
O568 O 0.19733 0.87968 0.37588 0.0
O569 O 0.20203 0.85491 0.38344 0.0
O570 O 0.19639 0.82714 0.3584 0.0
O571 O 0.16805 0.82112 0.34676 0.0
O572 O 0.15611 0.84486 0.36186 0.0
O573 O 0.1387 0.82368 0.33825 0.0
H574 H 0.13719 0.8162 0.26531 0.0
H575 H 0.15062 0.8149 0.23942 0.0
H576 H 0.20171 0.81356 0.26489 0.0
H577 H 0.18829 0.81515 0.29077 0.0
H578 H 0.16699 0.84208 0.39872 0.0
H579 H 0.15362 0.84347 0.42476 0.0
H580 H 0.20503 0.90518 0.43759 0.0
H581 H 0.21824 0.90367 0.41158 0.0
C582 C 0.85811 0.68026 0.72763 0.0
Eu583 Eu 0.84585 0.68222 0.698 0.0
C584 C 0.84907 0.66887 0.74165 0.0
C585 C 0.82946 0.66437 0.74554 0.0
C586 C 0.82149 0.65408 0.7592 0.0
C587 C 0.83292 0.64798 0.76919 0.0
C588 C 0.85238 0.65216 0.76498 0.0
C589 C 0.86035 0.66253 0.75138 0.0
C590 C 0.8353 0.7095 0.68758 0.0
C591 C 0.79614 0.64946 0.68994 0.0
C592 C 0.81334 0.67345 0.63316 0.0
Eu593 Eu 0.8255 0.67221 0.66303 0.0
C594 C 0.82215 0.684 0.61868 0.0
C595 C 0.83622 0.68058 0.61057 0.0
C596 C 0.84336 0.68973 0.59633 0.0
C597 C 0.83662 0.70253 0.58986 0.0
C598 C 0.82289 0.70628 0.59822 0.0
C599 C 0.8157 0.69706 0.61242 0.0
C600 C 0.83582 0.64486 0.67364 0.0
C601 C 0.87509 0.70538 0.67116 0.0
O602 O 0.85883 0.66947 0.71498 0.0
O603 O 0.85284 0.69374 0.72365 0.0
O604 O 0.8518 0.7148 0.69719 0.0
O605 O 0.82467 0.69014 0.68465 0.0
O606 O 0.81322 0.65605 0.69978 0.0
O607 O 0.79652 0.65574 0.67532 0.0
O608 O 0.81293 0.68482 0.64556 0.0
O609 O 0.8181 0.65977 0.63759 0.0
O610 O 0.81926 0.63961 0.66414 0.0
O611 O 0.84662 0.66422 0.67638 0.0
O612 O 0.85799 0.69869 0.66133 0.0
O613 O 0.8748 0.699 0.68573 0.0
H614 H 0.82038 0.66899 0.73814 0.0
H615 H 0.80656 0.65131 0.76211 0.0
H616 H 0.86145 0.64734 0.77215 0.0
H617 H 0.87543 0.66569 0.7485 0.0
H618 H 0.84151 0.67058 0.61506 0.0
H619 H 0.85373 0.6863 0.59015 0.0
H620 H 0.81764 0.71633 0.59378 0.0
H621 H 0.80488 0.69998 0.61843 0.0
C622 C 0.34289 0.19212 0.72418 0.0
Eu623 Eu 0.33672 0.17541 0.69438 0.0
C624 C 0.35311 0.19272 0.74013 0.0
C625 C 0.34264 0.19052 0.75396 0.0
C626 C 0.35195 0.1913 0.7693 0.0
C627 C 0.37201 0.1944 0.77114 0.0
C628 C 0.38249 0.19654 0.75724 0.0
C629 C 0.3731 0.19564 0.74185 0.0
C630 C 0.30748 0.13631 0.68309 0.0
C631 C 0.36725 0.15664 0.68875 0.0
C632 C 0.33404 0.14422 0.63062 0.0
Eu633 Eu 0.34034 0.16135 0.66029 0.0
C634 C 0.32398 0.14358 0.61465 0.0
C635 C 0.32071 0.15969 0.61059 0.0
C636 C 0.31192 0.15907 0.59502 0.0
C637 C 0.3062 0.1423 0.58329 0.0
C638 C 0.30906 0.12599 0.58765 0.0
C639 C 0.3179 0.12667 0.60315 0.0
C640 C 0.36965 0.20039 0.67167 0.0
C641 C 0.30998 0.18031 0.6658 0.0
O642 O 0.35465 0.20136 0.71285 0.0
O643 O 0.32662 0.17455 0.71861 0.0
O644 O 0.30392 0.14876 0.69197 0.0
O645 O 0.32636 0.14463 0.6812 0.0
O646 O 0.36299 0.16869 0.69807 0.0
O647 O 0.3578 0.14894 0.67397 0.0
O648 O 0.32194 0.13538 0.64184 0.0
O649 O 0.35043 0.16171 0.6362 0.0
O650 O 0.37317 0.18795 0.66273 0.0
O651 O 0.35076 0.19213 0.67347 0.0
O652 O 0.31431 0.16832 0.65649 0.0
O653 O 0.31921 0.18782 0.68067 0.0
H654 H 0.32724 0.18831 0.75291 0.0
H655 H 0.34357 0.18987 0.77977 0.0
H656 H 0.39787 0.19874 0.75824 0.0
H657 H 0.38148 0.19729 0.73135 0.0
H658 H 0.32521 0.17285 0.61937 0.0
H659 H 0.31005 0.17194 0.59208 0.0
H660 H 0.30442 0.11261 0.57908 0.0
H661 H 0.32015 0.11402 0.60613 0.0
C662 C 0.81812 0.15701 0.62325 0.0
Eu663 Eu 0.8303 0.17208 0.65357 0.0
C664 C 0.8262 0.15206 0.60901 0.0
C665 C 0.81576 0.1488 0.59359 0.0
C666 C 0.82385 0.14567 0.57968 0.0
C667 C 0.84261 0.14574 0.58091 0.0
C668 C 0.85292 0.14873 0.59647 0.0
C669 C 0.84477 0.15187 0.61041 0.0
C670 C 0.83943 0.21007 0.66614 0.0
C671 C 0.87991 0.18935 0.66192 0.0
C672 C 0.86593 0.20945 0.71828 0.0
Eu673 Eu 0.85174 0.1871 0.69038 0.0
C674 C 0.85945 0.20804 0.73478 0.0
C675 C 0.8423 0.1901 0.73883 0.0
C676 C 0.83549 0.1895 0.75426 0.0
C677 C 0.84567 0.20686 0.76588 0.0
C678 C 0.86296 0.22472 0.76172 0.0
C679 C 0.86976 0.22527 0.74632 0.0
C680 C 0.83767 0.14604 0.68276 0.0
C681 C 0.80146 0.16528 0.68222 0.0
O682 O 0.81475 0.14548 0.63527 0.0
O683 O 0.82662 0.17665 0.62819 0.0
O684 O 0.82312 0.19792 0.65627 0.0
O685 O 0.85048 0.202 0.6684 0.0
O686 O 0.863 0.17896 0.65161 0.0
O687 O 0.87982 0.19593 0.67711 0.0
O688 O 0.85422 0.2117 0.7072 0.0
O689 O 0.87161 0.19635 0.71317 0.0
O690 O 0.8467 0.15575 0.69697 0.0
O691 O 0.83632 0.1586 0.67417 0.0
O692 O 0.81828 0.17753 0.69222 0.0
O693 O 0.80208 0.15877 0.66715 0.0
H694 H 0.80152 0.14912 0.59227 0.0
H695 H 0.81567 0.14379 0.56793 0.0
H696 H 0.86728 0.14868 0.59789 0.0
H697 H 0.85308 0.15441 0.62224 0.0
H698 H 0.83404 0.17668 0.72999 0.0
H699 H 0.82227 0.17543 0.75707 0.0
H700 H 0.87097 0.2385 0.7702 0.0
H701 H 0.88287 0.23933 0.74333 0.0
H702 H 0.31194 0.84861 0.09449 0.0
H703 H 0.3424 0.87738 0.08523 0.0
H704 H 0.31413 0.85846 0.03579 0.0
H705 H 0.28345 0.8298 0.04498 0.0
H706 H 0.3672 0.87294 0.06213 0.0
H707 H 0.33512 0.92136 0.04168 0.0
H708 H 0.32275 0.9018 0.05533 0.0
H709 H 0.32068 0.89454 0.03397 0.0
C710 C 0.31202 0.85079 0.08169 0.0
C711 C 0.29522 0.83693 0.07048 0.0
C712 C 0.3295 0.86717 0.0764 0.0
C713 C 0.33046 0.87019 0.05985 0.0
C714 C 0.3136 0.8566 0.04865 0.0
H715 H 0.42564 0.95617 0.00397 0.0
H716 H 0.39349 0.92982 0.01321 0.0
C717 C 0.29616 0.84013 0.05391 0.0
C718 C 0.34957 0.88682 0.05422 0.0
H719 H 0.36902 0.93137 0.03573 0.0
C720 C 0.36764 0.88578 0.05643 0.0
C721 C 0.35004 0.90343 0.04666 0.0
C722 C 0.33118 0.90555 0.04434 0.0
C723 C 0.38613 0.90074 0.05108 0.0
C724 C 0.38672 0.91756 0.0437 0.0
C725 C 0.36859 0.91854 0.04143 0.0
C726 C 0.40602 0.93423 0.03827 0.0
C727 C 0.4047 0.89806 0.05302 0.0
C728 C 0.42365 0.94586 0.04934 0.0
C729 C 0.44207 0.96082 0.04409 0.0
C730 C 0.44322 0.96471 0.02766 0.0
C731 C 0.42534 0.95358 0.01669 0.0
C732 C 0.40693 0.93849 0.02196 0.0
H733 H 0.40023 0.88176 0.05437 0.0
H734 H 0.41381 0.90303 0.04245 0.0
H735 H 0.4147 0.90761 0.06413 0.0
H736 H 0.42321 0.94328 0.06207 0.0
H737 H 0.45545 0.96922 0.05292 0.0
H738 H 0.1654 0.43625 0.07489 0.0
H739 H 0.13586 0.43807 0.06292 0.0
H740 H 0.17487 0.50338 0.06034 0.0
H741 H 0.20442 0.50167 0.07225 0.0
H742 H 0.11903 0.46013 0.07501 0.0
H743 H 0.14505 0.48435 0.01487 0.0
H744 H 0.15724 0.47457 0.02827 0.0
H745 H 0.16344 0.50103 0.03147 0.0
C746 C 0.1677 0.45098 0.07169 0.0
C747 C 0.1873 0.4688 0.07445 0.0
C748 C 0.15082 0.45199 0.06481 0.0
C749 C 0.15318 0.4708 0.0605 0.0
C750 C 0.17274 0.48859 0.06317 0.0
H751 H 0.05997 0.50584 0.04931 0.0
H752 H 0.08755 0.49967 0.05892 0.0
C753 C 0.18964 0.48758 0.06998 0.0
C754 C 0.13501 0.47205 0.05402 0.0
H755 H 0.11654 0.48753 0.02239 0.0
C756 C 0.11841 0.46597 0.06344 0.0
C757 C 0.13407 0.4794 0.03883 0.0
C758 C 0.1508 0.48501 0.02769 0.0
C759 C 0.10118 0.46758 0.0583 0.0
C760 C 0.10068 0.47586 0.04347 0.0
C761 C 0.11701 0.48139 0.03384 0.0
C762 C 0.08349 0.47914 0.03781 0.0
C763 C 0.08358 0.46018 0.06874 0.0
C764 C 0.07226 0.47 0.02257 0.0
C765 C 0.05656 0.47365 0.01695 0.0
C766 C 0.05182 0.48659 0.02643 0.0
C767 C 0.06307 0.49566 0.04172 0.0
C768 C 0.0788 0.49206 0.0473 0.0
H769 H 0.08352 0.44888 0.07684 0.0
H770 H 0.08521 0.47354 0.07654 0.0
H771 H 0.06853 0.4529 0.06118 0.0
H772 H 0.07567 0.46005 0.015 0.0
H773 H 0.04827 0.46644 0.00511 0.0
H774 H 0.54027 0.72579 0.03018 0.0
H775 H 0.53561 0.69291 0.01833 0.0
H776 H 0.53319 0.67253 0.06615 0.0
H777 H 0.53679 0.70477 0.078 0.0
H778 H 0.55803 0.67344 0.02268 0.0
H779 H 0.48012 0.62636 0.04215 0.0
H780 H 0.49292 0.65412 0.04312 0.0
H781 H 0.4992 0.64188 0.05874 0.0
C782 C 0.53859 0.71425 0.03817 0.0
C783 C 0.53877 0.71795 0.05506 0.0
C784 C 0.53608 0.69553 0.03138 0.0
C785 C 0.53367 0.68011 0.04132 0.0
C786 C 0.53459 0.68402 0.0582 0.0
H787 H 0.54165 0.5703 0.01489 0.0
H788 H 0.54874 0.60468 0.02526 0.0
C789 C 0.53695 0.70264 0.06499 0.0
C790 C 0.52986 0.6598 0.03406 0.0
H791 H 0.49587 0.60804 0.0318 0.0
C792 C 0.54441 0.65913 0.0246 0.0
C793 C 0.51191 0.64115 0.03636 0.0
C794 C 0.49504 0.64086 0.0455 0.0
C795 C 0.54167 0.64029 0.01763 0.0
C796 C 0.52411 0.6216 0.02049 0.0
C797 C 0.50943 0.62233 0.02973 0.0
C798 C 0.52034 0.60106 0.01381 0.0
C799 C 0.55741 0.64065 0.00702 0.0
C800 C 0.50184 0.58738 0.00423 0.0
C801 C 0.49761 0.56762 0.99859 0.0
C802 C 0.51178 0.56113 0.00241 0.0
C803 C 0.53042 0.57488 0.01182 0.0
C804 C 0.53458 0.59461 0.01759 0.0
H805 H 0.56635 0.65586 0.00226 0.0
H806 H 0.56841 0.63777 0.01432 0.0
H807 H 0.55 0.62852 0.99659 0.0
H808 H 0.49059 0.59196 1.00119 0.0
H809 H 0.48312 0.55735 0.99136 0.0
H810 H 0.85278 0.28211 0.9498 0.0
H811 H 0.88202 0.31519 0.96172 0.0
H812 H 0.84032 0.33551 0.97585 0.0
H813 H 0.81108 0.30282 0.96366 0.0
H814 H 0.89173 0.35565 0.95311 0.0
H815 H 0.87856 0.3468 0.01807 0.0
H816 H 0.86721 0.32515 0.00257 0.0
H817 H 0.85636 0.3416 0.00482 0.0
C818 C 0.8498 0.29361 0.95542 0.0
C819 C 0.82949 0.28968 0.95581 0.0
C820 C 0.86654 0.31247 0.96229 0.0
C821 C 0.86333 0.3277 0.96984 0.0
C822 C 0.84314 0.32381 0.97037 0.0
H823 H 0.93474 0.45232 0.01545 0.0
H824 H 0.90836 0.41744 0.00427 0.0
C825 C 0.82641 0.30504 0.96344 0.0
C826 C 0.88105 0.34802 0.97661 0.0
H827 H 0.9029 0.38026 0.0117 0.0
C828 C 0.89434 0.36099 0.96594 0.0
C829 C 0.88435 0.35494 0.99333 0.0
C830 C 0.871 0.34136 0.00542 0.0
C831 C 0.91041 0.38102 0.97146 0.0
C832 C 0.91356 0.38807 0.98818 0.0
C833 C 0.90048 0.3749 0.99888 0.0
C834 C 0.92982 0.4093 0.99478 0.0
C835 C 0.92336 0.39471 0.95923 0.0
C836 C 0.95072 0.41633 0.9933 0.0
C837 C 0.96584 0.43635 0.99962 0.0
C838 C 0.96032 0.44959 0.00768 0.0
C839 C 0.93945 0.44246 0.0093 0.0
C840 C 0.92436 0.42252 0.00293 0.0
H841 H 0.91571 0.38903 0.94663 0.0
H842 H 0.92668 0.41079 0.96196 0.0
H843 H 0.93822 0.39493 0.95973 0.0
H844 H 0.95537 0.40629 0.9874 0.0
H845 H 0.98184 0.4414 0.99832 0.0
H846 H 0.69845 0.51119 0.94544 0.0
H847 H 0.66841 0.51061 0.95552 0.0
H848 H 0.69431 0.57516 0.94918 0.0
H849 H 0.72452 0.57583 0.93895 0.0
H850 H 0.66599 0.53223 0.98201 0.0
H851 H 0.6367 0.55013 0.92571 0.0
H852 H 0.65632 0.54299 0.92598 0.0
H853 H 0.66283 0.56875 0.93322 0.0
C854 C 0.69785 0.52532 0.94626 0.0
C855 C 0.71394 0.54358 0.94143 0.0
C856 C 0.6806 0.52494 0.95198 0.0
C857 C 0.67896 0.54276 0.95296 0.0
C858 C 0.69502 0.56109 0.94822 0.0
H859 H 0.58643 0.54955 0.0087 0.0
H860 H 0.619 0.55641 0.99878 0.0
C861 C 0.7123 0.56147 0.94241 0.0
C862 C 0.66052 0.54201 0.95924 0.0
H863 H 0.61899 0.54749 0.94886 0.0
C864 C 0.65575 0.53566 0.97479 0.0
C865 C 0.64706 0.54627 0.94975 0.0
C866 C 0.65081 0.55224 0.93268 0.0
C867 C 0.63783 0.53324 0.98104 0.0
C868 C 0.62448 0.53773 0.97163 0.0
C869 C 0.62933 0.54424 0.95613 0.0
C870 C 0.60484 0.53462 0.97728 0.0
C871 C 0.63301 0.52517 0.99742 0.0
C872 C 0.58605 0.52065 0.96821 0.0
C873 C 0.56742 0.51684 0.97375 0.0
C874 C 0.56716 0.52694 0.98851 0.0
C875 C 0.58603 0.54136 0.99736 0.0
C876 C 0.60469 0.54522 0.99175 0.0
H877 H 0.64196 0.51772 1.00118 0.0
H878 H 0.63703 0.5382 0.00671 0.0
H879 H 0.61637 0.51381 0.99733 0.0
H880 H 0.58577 0.51235 0.95697 0.0
H881 H 0.55321 0.50569 0.96655 0.0
H882 H 0.50577 0.19822 0.97138 0.0
H883 H 0.50733 0.16899 0.98124 0.0
H884 H 0.44418 0.12816 0.96194 0.0
H885 H 0.44228 0.15749 0.95226 0.0
H886 H 0.48109 0.14123 0.00333 0.0
H887 H 0.47644 0.10098 0.94327 0.0
H888 H 0.48339 0.1278 0.94574 0.0
H889 H 0.45709 0.10797 0.94605 0.0
C890 C 0.49209 0.18309 0.96936 0.0
C891 C 0.47384 0.18028 0.9611 0.0
C892 C 0.49308 0.16636 0.97491 0.0
C893 C 0.47594 0.14639 0.9722 0.0
C894 C 0.45768 0.14341 0.96394 0.0
H895 H 0.46787 0.03109 0.99911 0.0
H896 H 0.45945 0.05601 0.98813 0.0
C897 C 0.45664 0.1602 0.95841 0.0
C898 C 0.47728 0.12892 0.97844 0.0
H899 H 0.47927 0.08565 0.96657 0.0
C900 C 0.48058 0.12901 0.9953 0.0
C901 C 0.47644 0.11292 0.96794 0.0
C902 C 0.47328 0.11233 0.94972 0.0
C903 C 0.48336 0.11369 0.00196 0.0
C904 C 0.48333 0.09812 0.99145 0.0
C905 C 0.47938 0.09764 0.9746 0.0
C906 C 0.48841 0.08287 0.99774 0.0
C907 C 0.48626 0.11431 0.02021 0.0
C908 C 0.50762 0.08966 0.00646 0.0
C909 C 0.51242 0.07551 0.01271 0.0
C910 C 0.49818 0.05426 0.01025 0.0
C911 C 0.47912 0.04739 1.0012 0.0
C912 C 0.4743 0.0616 0.99494 0.0
H913 H 0.4797 0.12294 0.02636 0.0
H914 H 0.47895 0.09852 0.02413 0.0
H915 H 0.50296 0.12229 0.02432 0.0
H916 H 0.51894 0.10596 0.00844 0.0
H917 H 0.52731 0.08125 0.01949 0.0
H918 H 0.71614 0.1907 0.98918 0.0
H919 H 0.6872 0.15727 0.99411 0.0
H920 H 0.66719 0.14364 0.94276 0.0
H921 H 0.69635 0.17718 0.93783 0.0
H922 H 0.63728 0.14187 0.96336 0.0
H923 H 0.67192 0.09622 0.98483 0.0
H924 H 0.68395 0.12218 0.99442 0.0
H925 H 0.68517 0.11781 0.97307 0.0
C926 C 0.70597 0.1802 0.97891 0.0
C927 C 0.70858 0.18627 0.96311 0.0
C928 C 0.68945 0.16113 0.98172 0.0
C929 C 0.67513 0.14784 0.9688 0.0
C930 C 0.67818 0.15356 0.95289 0.0
H931 H 0.55024 0.04364 0.97147 0.0
H932 H 0.58239 0.0699 0.96236 0.0
C933 C 0.69487 0.17261 0.95006 0.0
C934 C 0.65579 0.12935 0.9722 0.0
H935 H 0.63708 0.08421 0.98981 0.0
C936 C 0.63717 0.1291 0.96893 0.0
C937 C 0.65574 0.11287 0.97967 0.0
C938 C 0.67523 0.11211 0.9831 0.0
C939 C 0.61858 0.1132 0.97342 0.0
C940 C 0.61848 0.09671 0.98099 0.0
C941 C 0.6371 0.0968 0.98401 0.0
C942 C 0.59933 0.07961 0.98628 0.0
C943 C 0.59941 0.11476 0.97065 0.0
C944 C 0.59832 0.07557 0.00265 0.0
C945 C 0.58 0.06029 0.00788 0.0
C946 C 0.56227 0.04874 0.99684 0.0
C947 C 0.56351 0.05238 0.98036 0.0
C948 C 0.58188 0.06751 0.97513 0.0
H949 H 0.60317 0.13081 0.96906 0.0
H950 H 0.59011 0.10489 0.95941 0.0
H951 H 0.58986 0.10946 0.98094 0.0
H952 H 0.61159 0.08461 0.01149 0.0
H953 H 0.57963 0.0579 0.02065 0.0
H954 H 0.82711 0.54772 0.95638 0.0
H955 H 0.8624 0.55413 0.95958 0.0
H956 H 0.83912 0.4885 0.95507 0.0
H957 H 0.80433 0.48207 0.95025 0.0
H958 H 0.88139 0.54702 0.98197 0.0
H959 H 0.88347 0.50342 0.92742 0.0
H960 H 0.86259 0.50835 0.92955 0.0
H961 H 0.86199 0.48616 0.93748 0.0
C962 C 0.82953 0.53466 0.95554 0.0
C963 C 0.81269 0.51435 0.95318 0.0
C964 C 0.84976 0.53835 0.95754 0.0
C965 C 0.85362 0.52182 0.95732 0.0
C966 C 0.83682 0.5016 0.95478 0.0
H967 H 0.94919 0.51655 0.01392 0.0
H968 H 0.92085 0.52094 0.00329 0.0
C969 C 0.81674 0.49794 0.95241 0.0
C970 C 0.87485 0.52538 0.9611 0.0
H971 H 0.90603 0.50639 0.95121 0.0
C972 C 0.88695 0.53845 0.97502 0.0
C973 C 0.88266 0.51482 0.95185 0.0
C974 C 0.87205 0.50264 0.93565 0.0
C975 C 0.90584 0.54018 0.98049 0.0
C976 C 0.91238 0.52766 0.97234 0.0
C977 C 0.90095 0.51564 0.95782 0.0
C978 C 0.93031 0.52592 0.97897 0.0
C979 C 0.91853 0.55557 0.99491 0.0
C980 C 0.94474 0.52627 0.96878 0.0
C981 C 0.96051 0.52287 0.97472 0.0
C982 C 0.96245 0.51953 0.99108 0.0
C983 C 0.9483 0.51952 1.00134 0.0
C984 C 0.93217 0.52226 0.99528 0.0
H985 H 0.91624 0.5691 0.99524 0.0
H986 H 0.91346 0.54825 0.00628 0.0
H987 H 0.93521 0.56118 0.99467 0.0
H988 H 0.94368 0.52893 0.95613 0.0
H989 H 0.97119 0.52289 0.96653 0.0
H990 H 0.50293 0.31089 0.00706 0.0
H991 H 0.49723 0.34015 0.00957 0.0
H992 H 0.48145 0.33271 0.95774 0.0
H993 H 0.48751 0.30344 0.95513 0.0
H994 H 0.51136 0.37231 0.96927 0.0
H995 H 0.44633 0.34597 0.00685 0.0
H996 H 0.46624 0.34191 0.01564 0.0
H997 H 0.45249 0.32832 0.99628 0.0
C998 C 0.49795 0.31528 0.99622 0.0
C999 C 0.49577 0.30494 0.98088 0.0
C1000 C 0.49449 0.33189 0.99769 0.0
C1001 C 0.48866 0.3385 0.98388 0.0
C1002 C 0.48577 0.32776 0.96858 0.0
H1003 H 0.47339 0.44751 0.99868 0.0
H1004 H 0.46621 0.41274 0.989 0.0
C1005 C 0.48913 0.311 0.96711 0.0
C1006 C 0.48786 0.35789 0.9854 0.0
H1007 H 0.46852 0.38295 0.00753 0.0
C1008 C 0.50169 0.37451 0.97739 0.0
C1009 C 0.4751 0.36076 0.99584 0.0
C1010 C 0.45905 0.34321 0.00401 0.0
C1011 C 0.50402 0.3942 0.98033 0.0
C1012 C 0.49241 0.39742 0.99174 0.0
C1013 C 0.47763 0.38053 0.99895 0.0
C1014 C 0.49658 0.41843 0.99726 0.0
C1015 C 0.51923 0.41153 0.97146 0.0
C1016 C 0.51588 0.43299 0.0053 0.0
C1017 C 0.51996 0.45271 0.01085 0.0
C1018 C 0.5048 0.45826 0.0085 0.0
C1019 C 0.48539 0.44365 1.00057 0.0
C1020 C 0.48127 0.42382 0.99506 0.0
H1021 H 0.52217 0.40556 0.95994 0.0
H1022 H 0.51368 0.42232 0.96865 0.0
H1023 H 0.53408 0.42031 0.97925 0.0
H1024 H 0.52778 0.42904 0.00741 0.0
H1025 H 0.53504 0.46363 0.01697 0.0
H1026 H 0.20586 0.6848 0.06256 0.0
H1027 H 0.17118 0.65545 0.0554 0.0
H1028 H 0.15124 0.696 0.03728 0.0
H1029 H 0.18622 0.72554 0.04412 0.0
H1030 H 0.13173 0.64601 0.0636 0.0
H1031 H 0.13944 0.65443 0.99765 0.0
H1032 H 0.16115 0.66793 0.01294 0.0
H1033 H 0.14292 0.67656 0.01011 0.0
C1034 C 0.19407 0.68751 0.05713 0.0
C1035 C 0.19886 0.70745 0.05366 0.0
C1036 C 0.17422 0.67073 0.05315 0.0
C1037 C 0.1587 0.67347 0.04557 0.0
C1038 C 0.16308 0.6935 0.0429 0.0
H1039 H 0.03387 0.56444 0.02064 0.0
H1040 H 0.06136 0.59925 0.03159 0.0
C1041 C 0.18301 0.71038 0.04693 0.0
C1042 C 0.13852 0.65503 0.03954 0.0
H1043 H 0.10959 0.62584 0.0046 0.0
C1044 C 0.12668 0.64172 0.05071 0.0
C1045 C 0.13212 0.64938 0.0227 0.0
C1046 C 0.14457 0.66269 0.01009 0.0
C1047 C 0.10892 0.62264 0.04549 0.0
C1048 C 0.1028 0.61682 0.02865 0.0
C1049 C 0.11427 0.63042 0.01751 0.0
C1050 C 0.08587 0.59589 0.02223 0.0
C1051 C 0.09741 0.60839 0.05794 0.0
C1052 C 0.09049 0.58261 0.0132 0.0
C1053 C 0.07492 0.56285 0.007 0.0
C1054 C 0.05435 0.55596 0.00963 0.0
C1055 C 0.04963 0.56929 0.01857 0.0
C1056 C 0.0653 0.58914 0.02484 0.0
H1057 H 0.10591 0.61385 0.07029 0.0
H1058 H 0.08227 0.60741 0.05846 0.0
H1059 H 0.09453 0.59259 0.05446 0.0
H1060 H 0.10624 0.5875 0.01103 0.0
H1061 H 0.07903 0.55293 1.00017 0.0
H1062 H 0.33696 0.51841 0.08668 0.0
H1063 H 0.36284 0.51112 0.07673 0.0
H1064 H 0.31601 0.46117 0.04338 0.0
H1065 H 0.28996 0.46854 0.05326 0.0
H1066 H 0.36557 0.47365 0.07396 0.0
H1067 H 0.35891 0.50161 0.01431 0.0
H1068 H 0.34884 0.50703 0.03198 0.0
H1069 H 0.33562 0.48175 0.02112 0.0
C1070 C 0.33213 0.50571 0.07736 0.0
C1071 C 0.31147 0.49416 0.07064 0.0
C1072 C 0.34691 0.50152 0.07172 0.0
C1073 C 0.34141 0.48582 0.05915 0.0
C1074 C 0.32062 0.47353 0.05296 0.0
H1075 H 0.42941 0.4714 0.00248 0.0
H1076 H 0.39715 0.46527 0.01268 0.0
C1077 C 0.30574 0.47763 0.0587 0.0
C1078 C 0.35777 0.48334 0.05201 0.0
H1079 H 0.38444 0.49269 0.01864 0.0
C1080 C 0.36957 0.47757 0.0618 0.0
C1081 C 0.36293 0.48843 0.03613 0.0
C1082 C 0.35106 0.49519 0.02523 0.0
C1083 C 0.38662 0.47712 0.05623 0.0
C1084 C 0.39236 0.48311 0.04061 0.0
C1085 C 0.38008 0.48813 0.03061 0.0
C1086 C 0.41178 0.48571 0.03484 0.0
C1087 C 0.39833 0.47026 0.06719 0.0
C1088 C 0.43077 0.49933 0.04381 0.0
C1089 C 0.44918 0.5028 0.03806 0.0
C1090 C 0.4491 0.49292 0.02307 0.0
C1091 C 0.43006 0.47923 0.01409 0.0
C1092 C 0.41159 0.47571 0.0199 0.0
H1093 H 0.38833 0.45974 0.07577 0.0
H1094 H 0.40481 0.46225 0.06007 0.0
H1095 H 0.4112 0.48397 0.07452 0.0
H1096 H 0.43141 0.5077 0.05513 0.0
H1097 H 0.4635 0.51356 0.04529 0.0
H1098 H 0.50664 0.81395 0.01786 0.0
H1099 H 0.51317 0.84892 0.01564 0.0
H1100 H 0.53308 0.86446 0.06697 0.0
H1101 H 0.52634 0.82916 0.06928 0.0
H1102 H 0.50281 0.87361 0.05688 0.0
H1103 H 0.56531 0.90508 0.01679 0.0
H1104 H 0.54473 0.88002 0.0087 0.0
H1105 H 0.55946 0.8829 0.02761 0.0
C1106 C 0.51273 0.82491 0.02863 0.0
C1107 C 0.5159 0.81883 0.04376 0.0
C1108 C 0.51663 0.84496 0.02732 0.0
C1109 C 0.52386 0.85941 0.04109 0.0
C1110 C 0.52769 0.8536 0.05616 0.0
H1111 H 0.53864 0.98102 0.02364 0.0
H1112 H 0.54649 0.95572 0.03475 0.0
C1113 C 0.52392 0.8335 0.05746 0.0
C1114 C 0.52517 0.87967 0.03983 0.0
H1115 H 0.54354 0.92036 0.01685 0.0
C1116 C 0.51207 0.88408 0.0484 0.0
C1117 C 0.53742 0.89349 0.02892 0.0
C1118 C 0.55268 0.89025 0.02011 0.0
C1119 C 0.5098 0.90111 0.04548 0.0
C1120 C 0.52073 0.9139 0.03355 0.0
C1121 C 0.53496 0.91039 0.02585 0.0
C1122 C 0.51603 0.92956 0.02771 0.0
C1123 C 0.49522 0.90491 0.05482 0.0
C1124 C 0.49641 0.92319 0.01999 0.0
C1125 C 0.49197 0.93749 0.01359 0.0
C1126 C 0.50707 0.95847 0.01479 0.0
C1127 C 0.5267 0.96494 0.02264 0.0
C1128 C 0.5312 0.95054 0.02895 0.0
H1129 H 0.49302 0.89806 0.06658 0.0
H1130 H 0.50091 0.92168 0.05723 0.0
H1131 H 0.47998 0.89762 0.04755 0.0
H1132 H 0.4846 0.90704 0.01862 0.0
H1133 H 0.47671 0.93207 0.00761 0.0
H1134 H 0.9518 0.16541 0.37821 0.0
H1135 H 0.98268 0.1945 0.36965 0.0
H1136 H 0.01123 0.21015 0.419 0.0
H1137 H 0.98062 0.1809 0.42761 0.0
H1138 H 0.00382 0.23817 0.38102 0.0
H1139 H 0.05215 0.20244 0.39212 0.0
H1140 H 0.02439 0.18784 0.39068 0.0
H1141 H 0.03887 0.20403 0.40895 0.0
C1142 C 0.96466 0.17504 0.38724 0.0
C1143 C 0.96377 0.17073 0.40359 0.0
C1144 C 0.98224 0.19172 0.38235 0.0
C1145 C 0.99935 0.20431 0.39365 0.0
C1146 C 0.9983 0.20046 0.41004 0.0
H1147 H 0.12397 0.30294 0.38665 0.0
H1148 H 0.09158 0.27708 0.39566 0.0
C1149 C 0.9807 0.18385 0.41497 0.0
C1150 C 0.01849 0.22113 0.38823 0.0
H1151 H 0.069 0.23657 0.38488 0.0
C1152 C 0.01808 0.23784 0.38182 0.0
C1153 C 0.03706 0.22064 0.38927 0.0
C1154 C 0.03823 0.20272 0.39549 0.0
C1155 C 0.03587 0.2543 0.37674 0.0
C1156 C 0.05446 0.25379 0.37776 0.0
C1157 C 0.0548 0.23701 0.38413 0.0
C1158 C 0.0738 0.27043 0.37234 0.0
C1159 C 0.0347 0.2723 0.37073 0.0
C1160 C 0.07468 0.27538 0.3562 0.0
C1161 C 0.09322 0.29032 0.351 0.0
C1162 C 0.11134 0.30045 0.3618 0.0
C1163 C 0.11036 0.29551 0.37798 0.0
C1164 C 0.09182 0.28068 0.38317 0.0
H1165 H 0.02143 0.27315 0.37503 0.0
H1166 H 0.04902 0.28711 0.37479 0.0
H1167 H 0.03266 0.27042 0.35724 0.0
H1168 H 0.06113 0.26736 0.34749 0.0
H1169 H 0.09342 0.29358 0.33843 0.0
H1170 H 0.87129 0.83398 0.40754 0.0
H1171 H 0.84145 0.83598 0.39679 0.0
H1172 H 0.8029 0.77025 0.39748 0.0
H1173 H 0.83273 0.76813 0.4083 0.0
H1174 H 0.81517 0.8178 0.36892 0.0
H1175 H 0.7725 0.79253 0.42315 0.0
H1176 H 0.79922 0.79976 0.42326 0.0
H1177 H 0.77937 0.77468 0.41432 0.0
C1178 C 0.85652 0.81989 0.40523 0.0
C1179 C 0.8544 0.80088 0.40881 0.0
C1180 C 0.83944 0.82109 0.39917 0.0
C1181 C 0.81986 0.80333 0.39659 0.0
C1182 C 0.81776 0.78424 0.39974 0.0
H1183 H 0.71473 0.79812 0.34057 0.0
H1184 H 0.74254 0.79233 0.35043 0.0
C1185 C 0.83483 0.78304 0.40588 0.0
C1186 C 0.80173 0.80493 0.39059 0.0
H1187 H 0.75497 0.7968 0.40031 0.0
C1188 C 0.80199 0.81318 0.37577 0.0
C1189 C 0.78465 0.79916 0.39964 0.0
C1190 C 0.78391 0.79122 0.41605 0.0
C1191 C 0.78565 0.81575 0.36972 0.0
C1192 C 0.76836 0.80953 0.37858 0.0
C1193 C 0.76813 0.80136 0.39344 0.0
C1194 C 0.7507 0.81207 0.37292 0.0
C1195 C 0.78734 0.82565 0.35412 0.0
C1196 C 0.74548 0.82445 0.38256 0.0
C1197 C 0.72945 0.82763 0.37704 0.0
C1198 C 0.71824 0.81845 0.36175 0.0
C1199 C 0.72311 0.80556 0.35233 0.0
C1200 C 0.73912 0.80234 0.35791 0.0
H1201 H 0.80351 0.83427 0.35113 0.0
H1202 H 0.77817 0.81347 0.34398 0.0
H1203 H 0.78127 0.83642 0.35487 0.0
H1204 H 0.75412 0.83201 0.39424 0.0
H1205 H 0.72611 0.8376 0.38465 0.0
H1206 H 0.17375 0.038 0.37836 0.0
H1207 H 0.17199 0.0062 0.36741 0.0
H1208 H 0.23519 0.03005 0.38623 0.0
H1209 H 0.23723 0.06216 0.39706 0.0
H1210 H 0.19656 1.00057 0.34506 0.0
H1211 H 0.20368 0.97391 0.40513 0.0
H1212 H 0.19753 0.99406 0.40287 0.0
H1213 H 0.22348 0.99945 0.40196 0.0
C1214 C 0.1874 0.03666 0.37999 0.0
C1215 C 0.20565 0.05269 0.3886 0.0
C1216 C 0.18631 0.0184 0.3738 0.0
C1217 C 0.20336 0.01565 0.37618 0.0
C1218 C 0.22172 0.0317 0.38452 0.0
H1219 H 0.21261 0.90579 0.35023 0.0
H1220 H 0.22068 0.94076 0.36003 0.0
C1221 C 0.22286 0.05004 0.3907 0.0
C1222 C 0.20173 0.99592 0.36991 0.0
H1223 H 0.2011 0.95284 0.38185 0.0
C1224 C 0.19763 0.99016 0.35309 0.0
C1225 C 0.20324 0.98243 0.38041 0.0
C1226 C 0.20707 0.98761 0.39862 0.0
C1227 C 0.19486 0.97119 0.34648 0.0
C1228 C 0.19576 0.95741 0.35701 0.0
C1229 C 0.20037 0.9634 0.3738 0.0
C1230 C 0.19108 0.93638 0.3509 0.0
C1231 C 0.1911 0.96613 0.32827 0.0
C1232 C 0.17169 0.92224 0.34273 0.0
C1233 C 0.16707 0.90233 0.33716 0.0
C1234 C 0.18169 0.89611 0.33977 0.0
C1235 C 0.20105 0.91019 0.34806 0.0
C1236 C 0.20567 0.93014 0.35365 0.0
H1237 H 0.19696 0.98031 0.32188 0.0
H1238 H 0.19855 0.95736 0.3241 0.0
H1239 H 0.1743 0.95652 0.32467 0.0
H1240 H 0.16002 0.92654 0.34082 0.0
H1241 H 0.15197 0.89175 0.33092 0.0
H1242 H 0.51707 0.61518 0.28337 0.0
H1243 H 0.54658 0.64799 0.29545 0.0
H1244 H 0.50591 0.67097 0.30619 0.0
H1245 H 0.47644 0.63861 0.29375 0.0
H1246 H 0.5582 0.68928 0.28582 0.0
H1247 H 0.54145 0.68076 0.35018 0.0
H1248 H 0.53074 0.65905 0.33476 0.0
H1249 H 0.52013 0.6758 0.33593 0.0
C1250 C 0.51437 0.62722 0.28824 0.0
C1251 C 0.49427 0.62411 0.28764 0.0
C1252 C 0.53127 0.64593 0.29521 0.0
C1253 C 0.5284 0.66181 0.30188 0.0
C1254 C 0.50842 0.65877 0.30137 0.0
H1255 H 0.60109 0.78574 0.34857 0.0
H1256 H 0.5744 0.75128 0.33681 0.0
C1257 C 0.49156 0.64017 0.29432 0.0
C1258 C 0.54627 0.68184 0.30895 0.0
H1259 H 0.56728 0.71375 0.34427 0.0
C1260 C 0.56035 0.6946 0.29862 0.0
C1261 C 0.54895 0.68872 0.32563 0.0
C1262 C 0.53464 0.67535 0.33735 0.0
C1263 C 0.57665 0.71441 0.30444 0.0
C1264 C 0.57921 0.72142 0.32112 0.0
C1265 C 0.56532 0.70843 0.33148 0.0
C1266 C 0.59568 0.74244 0.32802 0.0
C1267 C 0.59046 0.72794 0.29253 0.0
C1268 C 0.61659 0.74896 0.32711 0.0
C1269 C 0.6319 0.76876 0.33375 0.0
C1270 C 0.62656 0.78227 0.34158 0.0
C1271 C 0.60567 0.77565 0.34262 0.0
C1272 C 0.5904 0.75595 0.33591 0.0
H1273 H 0.58327 0.7225 0.27978 0.0
H1274 H 0.59425 0.74418 0.29519 0.0
H1275 H 0.60504 0.72759 0.29349 0.0
H1276 H 0.6211 0.73867 0.32142 0.0
H1277 H 0.6479 0.77341 0.33288 0.0
H1278 H 0.36645 0.84578 0.27736 0.0
H1279 H 0.33658 0.84511 0.2879 0.0
H1280 H 0.36469 0.91079 0.28584 0.0
H1281 H 0.39476 0.91157 0.27521 0.0
H1282 H 0.33459 0.86496 0.31596 0.0
H1283 H 0.30761 0.88916 0.26209 0.0
H1284 H 0.3265 0.8811 0.26135 0.0
H1285 H 0.33385 0.90656 0.27014 0.0
C1286 C 0.36636 0.86013 0.27921 0.0
C1287 C 0.38306 0.87876 0.2755 0.0
C1288 C 0.34922 0.8597 0.28518 0.0
C1289 C 0.34827 0.87785 0.28753 0.0
C1290 C 0.36488 0.89652 0.28384 0.0
H1291 H 0.25635 0.88282 0.34536 0.0
H1292 H 0.28887 0.88977 0.33528 0.0
C1293 C 0.38207 0.89695 0.27779 0.0
C1294 C 0.33 0.87707 0.29417 0.0
H1295 H 0.28961 0.88487 0.28529 0.0
C1296 C 0.3248 0.8694 0.30929 0.0
C1297 C 0.31712 0.88268 0.28538 0.0
C1298 C 0.32138 0.89017 0.26878 0.0
C1299 C 0.30701 0.86698 0.31578 0.0
C1300 C 0.29423 0.87278 0.30708 0.0
C1301 C 0.29951 0.88061 0.29202 0.0
C1302 C 0.27468 0.86964 0.31293 0.0
C1303 C 0.30169 0.85754 0.33164 0.0
C1304 C 0.25591 0.85658 0.30349 0.0
C1305 C 0.23732 0.85272 0.30914 0.0
C1306 C 0.23706 0.86186 0.32437 0.0
C1307 C 0.25593 0.87538 0.33363 0.0
C1308 C 0.27456 0.87929 0.32793 0.0
H1309 H 0.31026 0.84949 0.33473 0.0
H1310 H 0.30578 0.86991 0.34157 0.0
H1311 H 0.28495 0.84636 0.33116 0.0
H1312 H 0.2556 0.84902 0.29184 0.0
H1313 H 0.22315 0.84232 0.30161 0.0
H1314 H 0.14024 0.52324 0.3189 0.0
H1315 H 0.14394 0.49528 0.32926 0.0
H1316 H 0.1449 0.47299 0.28036 0.0
H1317 H 0.14223 0.50141 0.26997 0.0
H1318 H 0.12048 0.45313 0.32377 0.0
H1319 H 0.19763 0.48015 0.3029 0.0
H1320 H 0.18555 0.49572 0.30298 0.0
H1321 H 0.17821 0.47546 0.28689 0.0
C1322 C 0.1414 0.5125 0.31034 0.0
C1323 C 0.14113 0.51476 0.29359 0.0
C1324 C 0.14334 0.49641 0.31628 0.0
C1325 C 0.14509 0.48225 0.30562 0.0
C1326 C 0.14402 0.48398 0.28886 0.0
H1327 H 0.13721 0.36745 0.33301 0.0
H1328 H 0.13001 0.39265 0.32113 0.0
C1329 C 0.1422 0.50011 0.28291 0.0
C1330 C 0.14842 0.46596 0.31209 0.0
H1331 H 0.18199 0.44782 0.31362 0.0
C1332 C 0.13392 0.45195 0.32156 0.0
C1333 C 0.16611 0.4646 0.30938 0.0
C1334 C 0.18288 0.47989 0.30012 0.0
C1335 C 0.13657 0.43658 0.32833 0.0
C1336 C 0.15402 0.43492 0.32527 0.0
C1337 C 0.16852 0.44896 0.31583 0.0
C1338 C 0.15811 0.41939 0.33235 0.0
C1339 C 0.12098 0.42265 0.33905 0.0
C1340 C 0.17652 0.42595 0.34224 0.0
C1341 C 0.18079 0.41159 0.34879 0.0
C1342 C 0.16676 0.39035 0.34557 0.0
C1343 C 0.14834 0.38373 0.33564 0.0
C1344 C 0.14411 0.39813 0.32899 0.0
H1345 H 0.11169 0.42929 0.34356 0.0
H1346 H 0.11028 0.4076 0.33196 0.0
H1347 H 0.1286 0.41978 0.34967 0.0
H1348 H 0.18759 0.44225 0.34496 0.0
H1349 H 0.19514 0.41716 0.35636 0.0
H1350 H 0.34467 0.52372 0.27674 0.0
H1351 H 0.31812 0.49059 0.28445 0.0
H1352 H 0.36389 0.48663 0.31543 0.0
H1353 H 0.39065 0.51996 0.30772 0.0
H1354 H 0.31528 0.44938 0.28368 0.0
H1355 H 0.32008 0.48569 0.3456 0.0
H1356 H 0.33017 0.5008 0.32878 0.0
H1357 H 0.3436 0.4894 0.33828 0.0
C1358 C 0.34913 0.51564 0.285 0.0
C1359 C 0.3697 0.52447 0.29171 0.0
C1360 C 0.33396 0.49671 0.28938 0.0
C1361 C 0.33899 0.48629 0.30066 0.0
C1362 C 0.35967 0.49453 0.3068 0.0
H1363 H 0.24959 0.38532 0.35189 0.0
H1364 H 0.28196 0.4117 0.34294 0.0
C1365 C 0.37495 0.51346 0.3023 0.0
C1366 C 0.32226 0.46757 0.30666 0.0
H1367 H 0.29435 0.4511 0.33912 0.0
C1368 C 0.31081 0.44964 0.29586 0.0
C1369 C 0.31651 0.46794 0.32255 0.0
C1370 C 0.32809 0.48697 0.33453 0.0
C1371 C 0.29356 0.43215 0.30046 0.0
C1372 C 0.28723 0.43283 0.31613 0.0
C1373 C 0.29913 0.45056 0.3271 0.0
C1374 C 0.26772 0.41588 0.3211 0.0
C1375 C 0.28236 0.41312 0.28845 0.0
C1376 C 0.24888 0.40951 0.31192 0.0
C1377 C 0.23039 0.39435 0.31693 0.0
C1378 C 0.23024 0.38539 0.33142 0.0
C1379 C 0.24912 0.39183 0.34066 0.0
C1380 C 0.26765 0.40693 0.33555 0.0
H1381 H 0.29278 0.41246 0.2798 0.0
H1382 H 0.27569 0.39883 0.2947 0.0
H1383 H 0.26969 0.41356 0.28126 0.0
H1384 H 0.24838 0.41658 0.301 0.0
H1385 H 0.21617 0.38998 0.30957 0.0
H1386 H 0.49116 0.86398 0.26904 0.0
H1387 H 0.52584 0.86899 0.27506 0.0
H1388 H 0.50809 0.84048 0.31946 0.0
H1389 H 0.4737 0.83566 0.31368 0.0
H1390 H 0.55672 0.88846 0.30497 0.0
H1391 H 0.52538 0.8043 0.29088 0.0
H1392 H 0.51174 0.81712 0.28424 0.0
H1393 H 0.51187 0.81107 0.30489 0.0
C1394 C 0.49481 0.85917 0.28023 0.0
C1395 C 0.4796 0.84913 0.29076 0.0
C1396 C 0.51458 0.86197 0.28362 0.0
C1397 C 0.51937 0.85478 0.29757 0.0
C1398 C 0.50458 0.84584 0.30851 0.0
H1399 H 0.62877 0.86715 0.34801 0.0
H1400 H 0.5997 0.87099 0.33824 0.0
C1401 C 0.48493 0.84305 0.30516 0.0
C1402 C 0.5393 0.85536 0.30037 0.0
H1403 H 0.55955 0.82378 0.30369 0.0
C1404 C 0.55743 0.87437 0.30455 0.0
C1405 C 0.5402 0.83697 0.2996 0.0
C1406 C 0.52131 0.81619 0.29453 0.0
C1407 C 0.57637 0.87538 0.30858 0.0
C1408 C 0.57706 0.85687 0.30858 0.0
C1409 C 0.55902 0.83796 0.3038 0.0
C1410 C 0.59608 0.85653 0.31397 0.0
C1411 C 0.59545 0.89622 0.31279 0.0
C1412 C 0.60369 0.847 0.30363 0.0
C1413 C 0.62023 0.84464 0.30922 0.0
C1414 C 0.62945 0.85162 0.32532 0.0
C1415 C 0.62214 0.86166 0.33552 0.0
C1416 C 0.60557 0.86401 0.32992 0.0
H1417 H 0.59362 0.90863 0.30765 0.0
H1418 H 0.59836 0.89975 0.3262 0.0
H1419 H 0.60911 0.89643 0.30825 0.0
H1420 H 0.59656 0.84102 0.2913 0.0
H1421 H 0.62546 0.8369 0.30099 0.0
H1422 H 0.19987 0.66635 0.29921 0.0
H1423 H 0.19357 0.69494 0.30463 0.0
H1424 H 0.13475 0.65317 0.32061 0.0
H1425 H 0.14117 0.6244 0.31549 0.0
H1426 H 0.16151 0.70239 0.29377 0.0
H1427 H 0.16626 0.69619 0.36038 0.0
H1428 H 0.17435 0.6831 0.34627 0.0
H1429 H 0.14745 0.6734 0.34773 0.0
C1430 C 0.18553 0.66321 0.3038 0.0
C1431 C 0.17115 0.64317 0.30716 0.0
C1432 C 0.18189 0.67955 0.30679 0.0
C1433 C 0.16384 0.67626 0.31326 0.0
C1434 C 0.14891 0.65609 0.31583 0.0
H1435 H 0.14443 0.78254 0.33216 0.0
H1436 H 0.13749 0.74779 0.32267 0.0
C1437 C 0.15252 0.63966 0.31278 0.0
C1438 C 0.1616 0.6943 0.31826 0.0
H1439 H 0.16332 0.72393 0.35187 0.0
C1440 C 0.16156 0.70696 0.30644 0.0
C1441 C 0.1619 0.70031 0.33483 0.0
C1442 C 0.16263 0.68768 0.34811 0.0
C1443 C 0.16241 0.72577 0.3108 0.0
C1444 C 0.16321 0.73199 0.3274 0.0
C1445 C 0.16258 0.71902 0.33915 0.0
C1446 C 0.16692 0.7528 0.33299 0.0
C1447 C 0.1635 0.73938 0.29775 0.0
C1448 C 0.1856 0.76698 0.34206 0.0
C1449 C 0.1896 0.78672 0.3474 0.0
C1450 C 0.17492 0.79267 0.34387 0.0
C1451 C 0.15608 0.77841 0.33492 0.0
C1452 C 0.15212 0.7586 0.32949 0.0
H1453 H 0.16549 0.73359 0.28574 0.0
H1454 H 0.14907 0.74001 0.29655 0.0
H1455 H 0.17646 0.75536 0.3011 0.0
H1456 H 0.19722 0.76282 0.3449 0.0
H1457 H 0.20425 0.79736 0.35427 0.0
H1458 H 0.85844 0.04528 0.40503 0.0
H1459 H 0.82368 0.01485 0.40062 0.0
H1460 H 0.8315 0.00721 0.35005 0.0
H1461 H 0.86587 0.03766 0.35428 0.0
H1462 H 0.79178 0.99988 0.35534 0.0
H1463 H 0.81671 0.95669 0.39433 0.0
H1464 H 0.82 0.98057 0.40352 0.0
H1465 H 0.83484 0.98086 0.38728 0.0
C1466 C 0.85255 0.03733 0.39292 0.0
C1467 C 0.86499 0.04369 0.38005 0.0
C1468 C 0.83277 0.01986 0.39044 0.0
C1469 C 0.82514 0.00854 0.37506 0.0
C1470 C 0.83709 0.01561 0.36203 0.0
H1471 H 0.74677 0.88435 0.33764 0.0
H1472 H 0.77383 0.91913 0.34823 0.0
C1473 C 0.85679 0.03296 0.3645 0.0
C1474 C 0.80541 0.98857 0.37251 0.0
H1475 H 0.78348 0.93826 0.38062 0.0
C1476 C 0.78977 0.98646 0.36105 0.0
C1477 C 0.80296 0.97104 0.37987 0.0
C1478 C 0.81952 0.97222 0.39186 0.0
C1479 C 0.77206 0.96716 0.35637 0.0
C1480 C 0.76987 0.94956 0.36343 0.0
C1481 C 0.78517 0.95181 0.3753 0.0
C1482 C 0.75305 0.92839 0.35743 0.0
C1483 C 0.75633 0.96552 0.34328 0.0
C1484 C 0.73233 0.92195 0.35921 0.0
C1485 C 0.71676 0.90198 0.35312 0.0
C1486 C 0.72172 0.8882 0.3452 0.0
C1487 C 0.74247 0.89465 0.34363 0.0
C1488 C 0.75796 0.9145 0.34971 0.0
H1489 H 0.76185 0.97998 0.33731 0.0
H1490 H 0.75239 0.95263 0.33386 0.0
H1491 H 0.74204 0.96223 0.34873 0.0
H1492 H 0.72823 0.93233 0.36531 0.0
H1493 H 0.70088 0.89737 0.35452 0.0
H1494 H 0.95909 0.80256 0.38613 0.0
H1495 H 0.98597 0.79576 0.37734 0.0
H1496 H 0.03099 0.84579 0.41161 0.0
H1497 H 0.00432 0.8526 0.42038 0.0
H1498 H 0.02198 0.82665 0.36406 0.0
H1499 H 0.04293 0.79827 0.41818 0.0
H1500 H 0.01864 0.79756 0.41483 0.0
H1501 H 0.04155 0.82124 0.42256 0.0
C1502 C 0.97463 0.81174 0.39204 0.0
C1503 C 0.97964 0.82811 0.40392 0.0
C1504 C 0.98997 0.80792 0.38696 0.0
C1505 C 0.01045 0.82016 0.39392 0.0
C1506 C 0.01526 0.83595 0.40625 0.0
H1507 H 0.13312 0.84911 0.38063 0.0
H1508 H 0.10082 0.84373 0.38983 0.0
C1509 C 1.00004 0.8399 0.41118 0.0
C1510 C 0.02723 0.81791 0.38735 0.0
H1511 H 0.0671 0.81014 0.3984 0.0
C1512 C 0.03167 0.8227 0.37144 0.0
C1513 C 0.03991 0.81291 0.39707 0.0
C1514 C 0.03546 0.80702 0.41407 0.0
C1515 C 0.04904 0.82362 0.36524 0.0
C1516 C 0.06205 0.81909 0.37509 0.0
C1517 C 0.05718 0.81363 0.39084 0.0
C1518 C 0.08148 0.82125 0.3697 0.0
C1519 C 0.05388 0.83052 0.34851 0.0
C1520 C 0.08142 0.81008 0.35548 0.0
C1521 C 0.09996 0.81326 0.35006 0.0
C1522 C 0.11892 0.8275 0.35889 0.0
C1523 C 0.11885 0.83808 0.37346 0.0
C1524 C 0.10035 0.83499 0.37878 0.0
H1525 H 0.04538 0.83824 0.34426 0.0
H1526 H 0.07061 0.84134 0.34833 0.0
H1527 H 0.04931 0.81687 0.33974 0.0
H1528 H 0.06704 0.799 0.34847 0.0
H1529 H 0.09942 0.80471 0.33888 0.0
H1530 H 0.17718 0.15069 0.34957 0.0
H1531 H 0.18357 0.18567 0.34785 0.0
H1532 H 0.19953 0.19903 0.39974 0.0
H1533 H 0.19281 0.16366 0.40155 0.0
H1534 H 0.17011 0.20833 0.38887 0.0
H1535 H 0.23497 0.24224 0.35122 0.0
H1536 H 0.21495 0.21745 0.34209 0.0
H1537 H 0.22855 0.21945 0.36137 0.0
C1538 C 0.18237 0.16118 0.36059 0.0
C1539 C 0.1844 0.15443 0.37571 0.0
C1540 C 0.18623 0.18125 0.35958 0.0
C1541 C 0.19229 0.1951 0.37363 0.0
C1542 C 0.19504 0.18866 0.38872 0.0
H1543 H 0.20677 0.31685 0.35726 0.0
H1544 H 0.21451 0.29138 0.36814 0.0
C1545 C 0.19129 0.16851 0.38973 0.0
C1546 C 0.19343 0.21532 0.37255 0.0
H1547 H 0.21258 0.25689 0.3505 0.0
C1548 C 0.17973 0.21919 0.38076 0.0
C1549 C 0.20617 0.22967 0.36216 0.0
C1550 C 0.22214 0.2271 0.35385 0.0
C1551 C 0.17738 0.23619 0.37792 0.0
C1552 C 0.1888 0.24949 0.36643 0.0
C1553 C 0.2036 0.24651 0.35914 0.0
C1554 C 0.18417 0.26523 0.36064 0.0
C1555 C 0.16222 0.23943 0.38692 0.0
C1556 C 0.16467 0.25895 0.3527 0.0
C1557 C 0.16029 0.27336 0.34646 0.0
C1558 C 0.17533 0.29438 0.34801 0.0
C1559 C 0.19487 0.30075 0.356 0.0
C1560 C 0.1993 0.28624 0.36219 0.0
H1561 H 0.15976 0.23237 0.39859 0.0
H1562 H 0.16754 0.25611 0.38946 0.0
H1563 H 0.14718 0.23198 0.37935 0.0
H1564 H 0.15291 0.24278 0.35106 0.0
H1565 H 0.14511 0.268 0.34034 0.0
H1566 H 0.61593 0.49964 0.71091 0.0
H1567 H 0.64709 0.52859 0.70256 0.0
H1568 H 0.67569 0.54291 0.75184 0.0
H1569 H 0.64476 0.51381 0.76024 0.0
H1570 H 0.66878 0.5722 0.71476 0.0
H1571 H 0.7161 0.53506 0.72419 0.0
H1572 H 0.68833 0.52076 0.72269 0.0
H1573 H 0.70287 0.53633 0.74117 0.0
C1574 C 0.62886 0.50894 0.71997 0.0
C1575 C 0.62789 0.50432 0.73624 0.0
C1576 C 0.64661 0.52553 0.71519 0.0
C1577 C 0.6638 0.53772 0.72653 0.0
C1578 C 0.66269 0.53353 0.74285 0.0
H1579 H 0.78895 0.63565 0.72004 0.0
H1580 H 0.75653 0.60956 0.72885 0.0
C1581 C 0.64492 0.51701 0.74766 0.0
C1582 C 0.68304 0.55454 0.72124 0.0
H1583 H 0.73332 0.56941 0.71745 0.0
C1584 C 0.6829 0.57161 0.7153 0.0
C1585 C 0.70143 0.55372 0.72197 0.0
C1586 C 0.70228 0.53543 0.72771 0.0
C1587 C 0.70079 0.58809 0.71038 0.0
C1588 C 0.7192 0.58724 0.71105 0.0
C1589 C 0.71926 0.57011 0.71695 0.0
C1590 C 0.73863 0.6039 0.70574 0.0
C1591 C 0.69992 0.60648 0.70491 0.0
C1592 C 0.73946 0.60945 0.68978 0.0
C1593 C 0.75801 0.62453 0.68471 0.0
C1594 C 0.77619 0.63419 0.69544 0.0
C1595 C 0.77529 0.62859 0.71142 0.0
C1596 C 0.75673 0.61363 0.7165 0.0
H1597 H 0.68685 0.60746 0.70951 0.0
H1598 H 0.71441 0.62109 0.70909 0.0
H1599 H 0.69774 0.605 0.69143 0.0
H1600 H 0.72585 0.60183 0.68112 0.0
H1601 H 0.75816 0.6283 0.67228 0.0
H1602 H 0.53634 0.16607 0.73966 0.0
H1603 H 0.50694 0.16877 0.72877 0.0
H1604 H 0.46738 0.10313 0.7291 0.0
H1605 H 0.49674 0.1003 0.74005 0.0
H1606 H 0.48018 0.15091 0.70086 0.0
H1607 H 0.43833 0.12643 0.75557 0.0
H1608 H 0.46491 0.13323 0.75537 0.0
H1609 H 0.44468 0.10825 0.74658 0.0
C1610 C 0.52145 0.15215 0.73721 0.0
C1611 C 0.51887 0.13297 0.74079 0.0
C1612 C 0.50463 0.15374 0.73106 0.0
C1613 C 0.48489 0.13622 0.72841 0.0
C1614 C 0.48238 0.11694 0.73143 0.0
H1615 H 0.37949 0.13164 0.67372 0.0
H1616 H 0.40751 0.126 0.68319 0.0
C1617 C 0.49917 0.11534 0.73764 0.0
C1618 C 0.46696 0.13825 0.72265 0.0
H1619 H 0.42067 0.13089 0.73292 0.0
C1620 C 0.46715 0.14652 0.70785 0.0
C1621 C 0.45011 0.13279 0.73191 0.0
C1622 C 0.44949 0.12486 0.74831 0.0
C1623 C 0.45091 0.14934 0.702 0.0
C1624 C 0.43381 0.14338 0.71106 0.0
C1625 C 0.43368 0.13525 0.72591 0.0
C1626 C 0.41619 0.14605 0.70557 0.0
C1627 C 0.45246 0.15918 0.68638 0.0
C1628 C 0.41124 0.1586 0.71527 0.0
C1629 C 0.39509 0.16171 0.70997 0.0
C1630 C 0.3835 0.15228 0.69485 0.0
C1631 C 0.38816 0.13928 0.68536 0.0
C1632 C 0.40428 0.13613 0.69071 0.0
H1633 H 0.46857 0.16762 0.68323 0.0
H1634 H 0.44304 0.14698 0.67631 0.0
H1635 H 0.44656 0.1701 0.68723 0.0
H1636 H 0.42015 0.16631 0.72683 0.0
H1637 H 0.39194 0.1718 0.71762 0.0
H1638 H 0.83931 0.37384 0.71198 0.0
H1639 H 0.83711 0.34172 0.70136 0.0
H1640 H 0.90026 0.36512 0.72008 0.0
H1641 H 0.90276 0.39758 0.73055 0.0
H1642 H 0.86188 0.33588 0.67903 0.0
H1643 H 0.86794 0.30898 0.73924 0.0
H1644 H 0.86188 0.32918 0.73685 0.0
H1645 H 0.88782 0.33449 0.73606 0.0
C1646 C 0.85286 0.37234 0.71366 0.0
C1647 C 0.87124 0.38836 0.72212 0.0
C1648 C 0.85151 0.35388 0.70767 0.0
C1649 C 0.86843 0.35094 0.71011 0.0
C1650 C 0.88691 0.36694 0.71833 0.0
H1651 H 0.87533 0.23971 0.68352 0.0
H1652 H 0.88397 0.27464 0.69409 0.0
C1653 C 0.8883 0.38548 0.7243 0.0
C1654 C 0.86656 0.33108 0.70392 0.0
H1655 H 0.86478 0.28754 0.71602 0.0
C1656 C 0.8626 0.32534 0.68711 0.0
C1657 C 0.86765 0.31743 0.71449 0.0
C1658 C 0.87141 0.32266 0.73268 0.0
C1659 C 0.85949 0.30622 0.68056 0.0
C1660 C 0.85988 0.29226 0.69114 0.0
C1661 C 0.86442 0.29823 0.70794 0.0
C1662 C 0.85468 0.27107 0.68504 0.0
C1663 C 0.8559 0.30119 0.66234 0.0
C1664 C 0.83523 0.25736 0.67678 0.0
C1665 C 0.83029 0.2375 0.67077 0.0
C1666 C 0.84464 0.23087 0.67305 0.0
C1667 C 0.86398 0.24443 0.68161 0.0
C1668 C 0.86892 0.26436 0.68763 0.0
H1669 H 0.86213 0.31539 0.65596 0.0
H1670 H 0.86309 0.29212 0.65827 0.0
H1671 H 0.8391 0.29188 0.65862 0.0
H1672 H 0.82382 0.26203 0.67498 0.0
H1673 H 0.81522 0.22732 0.66432 0.0
H1674 H 0.17237 0.9675 0.59795 0.0
H1675 H 0.20155 1.00033 0.60993 0.0
H1676 H 0.18368 0.98427 0.6578 0.0
H1677 H 0.15481 0.95092 0.64593 0.0
H1678 H 0.20061 0.03126 0.62779 0.0
H1679 H 0.24485 0.0035 0.66378 0.0
H1680 H 0.2242 0.987 0.64827 0.0
H1681 H 0.21857 0.9925 0.66811 0.0
C1682 C 0.17486 0.97069 0.61106 0.0
C1683 C 0.1613 0.9564 0.62098 0.0
C1684 C 0.19148 0.98959 0.61788 0.0
C1685 C 0.19502 0.99469 0.63478 0.0
C1686 C 0.18154 0.98052 0.64475 0.0
H1687 H 0.26623 0.11811 0.68472 0.0
H1688 H 0.2394 0.08372 0.67291 0.0
C1689 C 0.16489 0.96155 0.63793 0.0
C1690 C 0.21221 0.01526 0.64181 0.0
H1691 H 0.25575 0.03922 0.66859 0.0
C1692 C 0.2127 0.03298 0.63667 0.0
C1693 C 0.22816 0.01754 0.65323 0.0
C1694 C 0.2291 0.99914 0.65858 0.0
C1695 C 0.22844 0.05286 0.64284 0.0
C1696 C 0.24396 0.05514 0.65471 0.0
C1697 C 0.24374 0.03745 0.65961 0.0
C1698 C 0.2604 0.07578 0.66225 0.0
C1699 C 0.22846 0.07128 0.63642 0.0
C1700 C 0.2812 0.08256 0.66059 0.0
C1701 C 0.29661 0.10221 0.66744 0.0
C1702 C 0.29145 0.11535 0.67612 0.0
C1703 C 0.27066 0.10837 0.67802 0.0
C1704 C 0.2553 0.08877 0.6712 0.0
H1705 H 0.21908 0.06705 0.62447 0.0
H1706 H 0.22177 0.07751 0.6451 0.0
H1707 H 0.24436 0.08369 0.63506 0.0
H1708 H 0.2855 0.07275 0.65382 0.0
H1709 H 0.31253 0.10714 0.66589 0.0
H1710 H 0.05421 0.24005 0.60428 0.0
H1711 H 0.02341 0.23779 0.6143 0.0
H1712 H 0.00318 0.17558 0.62547 0.0
H1713 H 0.03292 0.17706 0.61427 0.0
H1714 H 0.97236 0.17696 0.61188 0.0
H1715 H 0.01134 0.24265 0.65981 0.0
H1716 H 0.01861 0.25034 0.64007 0.0
H1717 H 0.02513 0.23273 0.64895 0.0
C1718 C 0.04315 0.22579 0.60871 0.0
C1719 C 0.0463 0.2088 0.60852 0.0
C1720 C 0.02565 0.22466 0.61473 0.0
C1721 C 0.01112 0.20668 0.62105 0.0
C1722 C 0.01421 0.18972 0.62083 0.0
H1723 H 0.91521 0.19716 0.67998 0.0
H1724 H 0.94688 0.20137 0.66995 0.0
C1725 C 0.03146 0.1907 0.61457 0.0
C1726 C 0.99226 0.20509 0.62728 0.0
H1727 H 0.9752 0.22845 0.65378 0.0
C1728 C 0.97303 0.18819 0.62111 0.0
C1729 C 0.99304 0.21953 0.63951 0.0
C1730 C 0.01315 0.2372 0.6476 0.0
C1731 C 0.95466 0.18535 0.62673 0.0
C1732 C 0.95535 0.20029 0.63841 0.0
C1733 C 0.97458 0.21712 0.64468 0.0
C1734 C 0.93636 0.19851 0.6445 0.0
C1735 C 0.9348 0.16597 0.62039 0.0
C1736 C 0.92003 0.19598 0.63362 0.0
C1737 C 0.90179 0.19317 0.63931 0.0
C1738 C 0.89968 0.19343 0.65606 0.0
C1739 C 0.91636 0.19689 0.66701 0.0
C1740 C 0.93447 0.1993 0.66128 0.0
H1741 H 0.93759 0.15344 0.61591 0.0
H1742 H 0.92407 0.16028 0.62992 0.0
H1743 H 0.92722 0.16928 0.61002 0.0
H1744 H 0.9213 0.19604 0.62068 0.0
H1745 H 0.88935 0.19086 0.63056 0.0
H1746 H 0.80594 0.83564 0.6048 0.0
H1747 H 0.80763 0.80644 0.61461 0.0
H1748 H 0.80511 0.82696 0.66367 0.0
H1749 H 0.80221 0.85552 0.65387 0.0
H1750 H 0.83686 0.8072 0.6344 0.0
H1751 H 0.7637 0.76675 0.66213 0.0
H1752 H 0.76895 0.78683 0.64904 0.0
H1753 H 0.77877 0.7933 0.67021 0.0
C1754 C 0.80517 0.83367 0.61763 0.0
C1755 C 0.80384 0.84797 0.62851 0.0
C1756 C 0.80634 0.81703 0.62324 0.0
C1757 C 0.80622 0.81427 0.63986 0.0
C1758 C 0.80475 0.82842 0.65075 0.0
H1759 H 0.859 0.75133 0.69037 0.0
H1760 H 0.85123 0.77592 0.67825 0.0
C1761 C 0.8034 0.84496 0.64513 0.0
C1762 C 0.80902 0.79746 0.64592 0.0
H1763 H 0.78918 0.75765 0.66979 0.0
C1764 C 0.82631 0.79625 0.64201 0.0
C1765 C 0.79511 0.78291 0.65565 0.0
C1766 C 0.77548 0.78235 0.65935 0.0
C1767 C 0.83041 0.78138 0.64794 0.0
C1768 C 0.81717 0.76765 0.65845 0.0
C1769 C 0.79951 0.76838 0.66194 0.0
C1770 C 0.82158 0.75266 0.66613 0.0
C1771 C 0.84879 0.7804 0.64272 0.0
C1772 C 0.80717 0.73143 0.66389 0.0
C1773 C 0.81147 0.71735 0.67103 0.0
C1774 C 0.83027 0.72427 0.6805 0.0
C1775 C 0.84446 0.74553 0.68302 0.0
C1776 C 0.84011 0.75959 0.67598 0.0
H1777 H 0.85337 0.78725 0.63108 0.0
H1778 H 0.86204 0.78933 0.65212 0.0
H1779 H 0.84559 0.76425 0.64123 0.0
H1780 H 0.79269 0.72573 0.65648 0.0
H1781 H 0.80012 0.70107 0.6691 0.0
H1782 H 0.05563 0.8549 0.64287 0.0
H1783 H 0.02824 0.82193 0.65059 0.0
H1784 H 0.98414 0.82512 0.61697 0.0
H1785 H 0.01131 0.85792 0.60929 0.0
H1786 H 0.99163 0.81821 0.66387 0.0
H1787 H 0.97209 0.76475 0.60812 0.0
H1788 H 0.99653 0.78842 0.61244 0.0
H1789 H 0.97406 0.78905 0.60469 0.0
C1790 C 0.04018 0.84827 0.63686 0.0
C1791 C 0.03557 0.85894 0.62548 0.0
C1792 C 0.02455 0.82953 0.64134 0.0
C1793 C 0.00418 0.82099 0.63426 0.0
C1794 C 0.99978 0.83125 0.62242 0.0
H1795 H 0.881 0.72625 0.64419 0.0
H1796 H 0.91332 0.7533 0.63602 0.0
C1797 C 0.01529 0.85003 0.6181 0.0
C1798 C 0.98711 0.80243 0.64017 0.0
H1799 H 0.94759 0.75374 0.62758 0.0
C1800 C 0.98216 0.80397 0.65605 0.0
C1801 C 0.9747 0.78397 0.62988 0.0
C1802 C 0.97966 0.78129 0.61286 0.0
C1803 C 0.96459 0.7879 0.6617 0.0
C1804 C 0.95191 0.76951 0.65131 0.0
C1805 C 0.95726 0.76779 0.63556 0.0
C1806 C 0.93244 0.7524 0.65618 0.0
C1807 C 0.95925 0.79122 0.67845 0.0
C1808 C 0.93236 0.74254 0.6701 0.0
C1809 C 0.91379 0.72713 0.67493 0.0
C1810 C 0.89495 0.72105 0.66578 0.0
C1811 C 0.89518 0.73052 0.65156 0.0
C1812 C 0.91369 0.74601 0.64684 0.0
H1813 H 0.96738 0.80783 0.68309 0.0
H1814 H 0.94243 0.78498 0.67846 0.0
H1815 H 0.96391 0.7831 0.68701 0.0
H1816 H 0.94664 0.74679 0.67729 0.0
H1817 H 0.91423 0.72004 0.68585 0.0
H1818 H 0.14288 0.15572 0.60326 0.0
H1819 H 0.17781 0.16279 0.61119 0.0
H1820 H 0.19041 0.21744 0.64122 0.0
H1821 H 0.15532 0.2104 0.63331 0.0
H1822 H 0.21913 0.20116 0.61018 0.0
H1823 H 0.19822 0.17794 0.67202 0.0
H1824 H 0.17896 0.17067 0.65502 0.0
H1825 H 0.19261 0.19674 0.66437 0.0
C1826 C 0.15318 0.16938 0.61139 0.0
C1827 C 0.14635 0.18242 0.61777 0.0
C1828 C 0.17313 0.17344 0.61587 0.0
C1829 C 0.18658 0.1905 0.62691 0.0
C1830 C 0.18017 0.20411 0.63275 0.0
H1831 H 0.29896 0.20693 0.6798 0.0
H1832 H 0.27104 0.21262 0.66999 0.0
C1833 C 0.16021 0.20015 0.62815 0.0
C1834 C 0.20669 0.19302 0.63306 0.0
H1835 H 0.23102 0.18546 0.6658 0.0
C1836 C 0.22188 0.19796 0.62239 0.0
C1837 C 0.2102 0.18889 0.649 0.0
C1838 C 0.19417 0.18315 0.66082 0.0
C1839 C 0.24044 0.19861 0.62719 0.0
C1840 C 0.2436 0.19358 0.64293 0.0
C1841 C 0.22863 0.18928 0.65374 0.0
C1842 C 0.26169 0.19149 0.64817 0.0
C1843 C 0.25647 0.20474 0.61535 0.0
C1844 C 0.26577 0.17771 0.63919 0.0
C1845 C 0.28181 0.17455 0.6447 0.0
C1846 C 0.29394 0.18484 0.65946 0.0
C1847 C 0.28994 0.19875 0.66839 0.0
C1848 C 0.27397 0.20203 0.66279 0.0
H1849 H 0.25505 0.21477 0.60663 0.0
H1850 H 0.27229 0.21301 0.62173 0.0
H1851 H 0.2542 0.19066 0.60821 0.0
H1852 H 0.25617 0.16892 0.62813 0.0
H1853 H 0.28431 0.1636 0.63756 0.0
H1854 H 0.8414 0.98031 0.67485 0.0
H1855 H 0.83668 0.01011 0.67869 0.0
H1856 H 0.81786 0.00348 0.62744 0.0
H1857 H 0.82243 0.97336 0.62355 0.0
H1858 H 0.85919 0.04567 0.66385 0.0
H1859 H 0.77526 0.01386 0.64834 0.0
H1860 H 0.78601 0.99773 0.65301 0.0
H1861 H 0.78816 0.00744 0.63349 0.0
C1862 C 0.83597 0.98501 0.66443 0.0
C1863 C 0.83243 0.9746 0.64888 0.0
C1864 C 0.83324 1.00202 0.66664 0.0
C1865 C 0.82687 0.00903 0.65338 0.0
C1866 C 0.82247 0.99817 0.63791 0.0
H1867 H 0.82912 0.12718 0.65165 0.0
H1868 H 0.82481 0.09324 0.64314 0.0
C1869 C 0.82511 0.98099 0.63569 0.0
C1870 C 0.82678 0.02875 0.65572 0.0
H1871 H 0.79589 0.05012 0.65431 0.0
C1872 C 0.84534 0.04661 0.66172 0.0
C1873 C 0.80875 0.03002 0.65279 0.0
C1874 C 0.78834 0.01125 0.64667 0.0
C1875 C 0.8463 0.06559 0.66515 0.0
C1876 C 0.82819 0.06675 0.66269 0.0
C1877 C 0.80972 0.04911 0.65622 0.0
C1878 C 0.82822 0.08605 0.66764 0.0
C1879 C 0.86668 0.08428 0.67153 0.0
C1880 C 0.83107 0.09297 0.68418 0.0
C1881 C 0.83338 0.1122 0.68902 0.0
C1882 C 0.8328 0.12484 0.6774 0.0
C1883 C 0.82922 0.1176 0.66084 0.0
C1884 C 0.82687 0.09828 0.65598 0.0
H1885 H 0.87982 0.0819 0.66946 0.0
H1886 H 0.86888 0.09807 0.66567 0.0
H1887 H 0.86692 0.08751 0.68481 0.0
H1888 H 0.83208 0.08371 0.69336 0.0
H1889 H 0.83613 0.11739 0.70188 0.0
H1890 H 0.52737 0.37269 0.68643 0.0
H1891 H 0.493 0.34225 0.68235 0.0
H1892 H 0.48708 0.34781 0.73357 0.0
H1893 H 0.52182 0.37834 0.73777 0.0
H1894 H 0.4789 0.30885 0.72181 0.0
H1895 H 0.43504 0.33343 0.68215 0.0
H1896 H 0.45899 0.33908 0.67471 0.0
H1897 H 0.45908 0.35161 0.69393 0.0
C1898 C 0.51862 0.36764 0.69679 0.0
C1899 C 0.52731 0.37785 0.71243 0.0
C1900 C 0.49889 0.35033 0.69442 0.0
C1901 C 0.48733 0.34285 0.70761 0.0
C1902 C 0.49567 0.35341 0.72319 0.0
H1903 H 0.36467 0.23045 0.68757 0.0
H1904 H 0.39183 0.2654 0.69855 0.0
C1905 C 0.51544 0.37089 0.72557 0.0
C1906 C 0.4676 0.32286 0.7052 0.0
H1907 H 0.42182 0.29668 0.68117 0.0
C1908 C 0.46625 0.30629 0.71316 0.0
C1909 C 0.45097 0.31951 0.69405 0.0
C1910 C 0.45097 0.33692 0.68585 0.0
C1911 C 0.44931 0.28624 0.70951 0.0
C1912 C 0.43342 0.28264 0.69746 0.0
C1913 C 0.43413 0.29941 0.69026 0.0
C1914 C 0.41686 0.26142 0.69129 0.0
C1915 C 0.44878 0.26899 0.71832 0.0
C1916 C 0.42192 0.24772 0.68343 0.0
C1917 C 0.40651 0.22791 0.67713 0.0
C1918 C 0.38571 0.22138 0.67853 0.0
C1919 C 0.3806 0.23508 0.68638 0.0
C1920 C 0.39607 0.25501 0.69263 0.0
H1921 H 0.45849 0.27494 0.73017 0.0
H1922 H 0.43281 0.25756 0.7205 0.0
H1923 H 0.45485 0.26093 0.71079 0.0
H1924 H 0.43782 0.25245 0.68199 0.0
H1925 H 0.41091 0.21771 0.67111 0.0
H1926 H 0.62153 0.13391 0.71717 0.0
H1927 H 0.64754 0.1267 0.70692 0.0
H1928 H 0.69331 0.17225 0.74358 0.0
H1929 H 0.66751 0.17949 0.75377 0.0
H1930 H 0.68451 0.1585 0.69525 0.0
H1931 H 0.70241 0.12219 0.74527 0.0
H1932 H 0.67868 0.12276 0.74276 0.0
H1933 H 0.70197 0.14518 0.75184 0.0
C1934 C 0.63703 0.14196 0.72327 0.0
C1935 C 0.64254 0.15725 0.73626 0.0
C1936 C 0.65187 0.13792 0.71737 0.0
C1937 C 0.67231 0.14882 0.72458 0.0
C1938 C 0.67757 0.16343 0.73799 0.0
H1939 H 0.79435 0.17845 0.71128 0.0
H1940 H 0.76155 0.17148 0.72032 0.0
C1941 C 0.66286 0.16763 0.74375 0.0
C1942 C 0.68871 0.14659 0.71726 0.0
H1943 H 0.72738 0.13634 0.7262 0.0
C1944 C 0.69368 0.15329 0.70185 0.0
C1945 C 0.70068 0.13991 0.72596 0.0
C1946 C 0.6956 0.13192 0.74232 0.0
C1947 C 0.71103 0.15461 0.69528 0.0
C1948 C 0.72344 0.14853 0.70422 0.0
C1949 C 0.71791 0.14102 0.71935 0.0
C1950 C 0.74313 0.15151 0.69876 0.0
C1951 C 0.71656 0.16362 0.67929 0.0
C1952 C 0.74375 0.14227 0.68373 0.0
C1953 C 0.76263 0.14638 0.67839 0.0
C1954 C 0.78123 0.15964 0.6881 0.0
C1955 C 0.78042 0.16823 0.70341 0.0
C1956 C 0.76161 0.16422 0.70865 0.0
H1957 H 0.70824 0.17183 0.67589 0.0
H1958 H 0.73335 0.17458 0.67976 0.0
H1959 H 0.71233 0.151 0.66955 0.0
H1960 H 0.72966 0.13201 0.67604 0.0
H1961 H 0.76264 0.13935 0.66661 0.0
H1962 H 0.84354 0.48659 0.68211 0.0
H1963 H 0.84986 0.52153 0.68026 0.0
H1964 H 0.86569 0.53512 0.73216 0.0
H1965 H 0.85905 0.49979 0.73409 0.0
H1966 H 0.83611 0.54412 0.72113 0.0
H1967 H 0.90108 0.57826 0.6836 0.0
H1968 H 0.88118 0.5534 0.6745 0.0
H1969 H 0.89478 0.55554 0.69382 0.0
C1970 C 0.8487 0.49713 0.6931 0.0
C1971 C 0.8507 0.49045 0.70826 0.0
C1972 C 0.85251 0.51718 0.69201 0.0
C1973 C 0.85851 0.53106 0.70604 0.0
C1974 C 0.86125 0.5247 0.72116 0.0
H1975 H 0.87217 0.65257 0.68992 0.0
H1976 H 0.88011 0.62715 0.70064 0.0
C1977 C 0.85755 0.50459 0.72225 0.0
C1978 C 0.85953 0.55121 0.70489 0.0
H1979 H 0.87854 0.59273 0.68277 0.0
C1980 C 0.84572 0.55499 0.71302 0.0
C1981 C 0.87225 0.56557 0.69449 0.0
C1982 C 0.88831 0.5631 0.68625 0.0
C1983 C 0.84325 0.5719 0.71012 0.0
C1984 C 0.85468 0.58522 0.69863 0.0
C1985 C 0.86956 0.58234 0.69141 0.0
C1986 C 0.84997 0.60088 0.69281 0.0
C1987 C 0.82798 0.57505 0.71902 0.0
C1988 C 0.83052 0.59449 0.68471 0.0
C1989 C 0.82602 0.60887 0.67856 0.0
C1990 C 0.84088 0.62995 0.68037 0.0
C1991 C 0.86039 0.63641 0.68847 0.0
C1992 C 0.86494 0.62194 0.69456 0.0
H1993 H 0.82538 0.56789 0.73065 0.0
H1994 H 0.83328 0.59171 0.72162 0.0
H1995 H 0.81301 0.56765 0.71136 0.0
H1996 H 0.81888 0.57829 0.68293 0.0
H1997 H 0.81087 0.60345 0.67235 0.0
H1998 H 0.43904 0.87487 0.22389 0.0
H1999 H 0.45205 0.89148 0.19941 0.0
H2000 H 0.44589 0.9431 0.21703 0.0
H2001 H 0.43387 0.92709 0.24199 0.0
H2002 H 0.43297 0.90166 0.17632 0.0
H2003 H 0.50359 0.97238 0.204 0.0
H2004 H 0.48919 0.95056 0.21521 0.0
H2005 H 0.48067 0.96879 0.21224 0.0
C2006 C 0.4409 0.88998 0.22279 0.0
C2007 C 0.43556 0.8997 0.23506 0.0
C2008 C 0.44815 0.89937 0.20867 0.0
C2009 C 0.45025 0.91869 0.20644 0.0
C2010 C 0.44485 0.92841 0.2186 0.0
H2011 H 0.48178 0.99366 0.12501 0.0
H2012 H 0.46922 0.97805 0.15011 0.0
C2013 C 0.43772 0.91909 0.23279 0.0
C2014 C 0.45732 0.92819 0.19112 0.0
H2015 H 0.4938 0.97146 0.17598 0.0
C2016 C 0.44634 0.91688 0.17626 0.0
C2017 C 0.47476 0.94807 0.19101 0.0
C2018 C 0.48787 0.96059 0.20645 0.0
C2019 C 0.45218 0.92498 0.16137 0.0
C2020 C 0.46952 0.94486 0.1613 0.0
C2021 C 0.48046 0.95624 0.1761 0.0
C2022 C 0.47673 0.95398 0.14594 0.0
C2023 C 0.43962 0.91236 0.14579 0.0
C2024 C 0.48517 0.94565 0.13533 0.0
C2025 C 0.4924 0.95454 0.12102 0.0
C2026 C 0.49124 0.97192 0.11702 0.0
C2027 C 0.48266 0.98015 0.12765 0.0
C2028 C 0.47559 0.97134 0.14203 0.0
H2029 H 0.42449 0.89923 0.14804 0.0
H2030 H 0.43697 0.92212 0.13753 0.0
H2031 H 0.44819 0.90603 0.13949 0.0
H2032 H 0.48636 0.93237 0.13822 0.0
H2033 H 0.4988 0.94776 0.11304 0.0
H2034 H 0.10809 0.56552 0.25548 0.0
H2035 H 0.09205 0.56229 0.22799 0.0
H2036 H 0.11405 0.52207 0.21112 0.0
H2037 H 0.12996 0.52512 0.23849 0.0
H2038 H 0.11026 0.57302 0.19983 0.0
H2039 H 0.05384 0.48916 0.19372 0.0
H2040 H 0.06737 0.50343 0.21301 0.0
H2041 H 0.07976 0.49503 0.19906 0.0
C2042 C 0.10943 0.55594 0.24591 0.0
C2043 C 0.12013 0.54542 0.24919 0.0
C2044 C 0.10022 0.55406 0.23023 0.0
C2045 C 0.10152 0.54163 0.21756 0.0
C2046 C 0.11234 0.53127 0.22079 0.0
H2047 H 0.06752 0.5182 0.11327 0.0
H2048 H 0.08182 0.52055 0.14118 0.0
C2049 C 0.12145 0.53305 0.23645 0.0
C2050 C 0.09233 0.54018 0.20082 0.0
H2051 H 0.05893 0.50596 0.16946 0.0
C2052 C 0.09892 0.55838 0.19324 0.0
C2053 C 0.07755 0.52104 0.19221 0.0
C2054 C 0.06905 0.50108 0.19996 0.0
C2055 C 0.09145 0.55792 0.17718 0.0
C2056 C 0.07688 0.53878 0.16854 0.0
C2057 C 0.07021 0.52059 0.17611 0.0
C2058 C 0.06819 0.53736 0.15167 0.0
C2059 C 0.09949 0.57786 0.16945 0.0
C2060 C 0.05559 0.54581 0.14839 0.0
C2061 C 0.04724 0.54433 0.13251 0.0
C2062 C 0.05132 0.53437 0.11955 0.0
C2063 C 0.06389 0.5258 0.12294 0.0
C2064 C 0.07216 0.52721 0.13886 0.0
H2065 H 0.11376 0.59053 0.17639 0.0
H2066 H 0.10272 0.57585 0.15677 0.0
H2067 H 0.08766 0.58257 0.16904 0.0
H2068 H 0.05203 0.55337 0.15816 0.0
H2069 H 0.03728 0.55071 0.13044 0.0
H2070 H 0.43532 0.56779 0.22838 0.0
H2071 H 0.44055 0.5579 0.20115 0.0
H2072 H 0.49605 0.56005 0.22067 0.0
H2073 H 0.49079 0.5697 0.24797 0.0
H2074 H 0.47625 0.58292 0.1854 0.0
H2075 H 0.46504 0.50472 0.19091 0.0
H2076 H 0.45546 0.51665 0.20476 0.0
H2077 H 0.48221 0.52411 0.20685 0.0
C2078 C 0.44836 0.56566 0.22694 0.0
C2079 C 0.46262 0.56947 0.24034 0.0
C2080 C 0.4514 0.56015 0.21136 0.0
C2081 C 0.46859 0.55807 0.20891 0.0
C2082 C 0.48252 0.56127 0.22232 0.0
H2083 H 0.53319 0.56846 0.12473 0.0
H2084 H 0.52184 0.57163 0.15118 0.0
C2085 C 0.47958 0.56692 0.23788 0.0
C2086 C 0.47286 0.55423 0.1922 0.0
H2087 H 0.47992 0.52074 0.16742 0.0
C2088 C 0.47689 0.56925 0.18143 0.0
C2089 C 0.47358 0.53634 0.18702 0.0
C2090 C 0.46868 0.51941 0.19791 0.0
C2091 C 0.48219 0.56713 0.16576 0.0
C2092 C 0.48357 0.54958 0.16077 0.0
C2093 C 0.47897 0.53425 0.17135 0.0
C2094 C 0.49035 0.54726 0.14475 0.0
C2095 C 0.4864 0.58371 0.15465 0.0
C2096 C 0.47643 0.53232 0.13243 0.0
C2097 C 0.48279 0.53062 0.11716 0.0
C2098 C 0.50327 0.54373 0.11398 0.0
C2099 C 0.51722 0.55841 0.12655 0.0
C2100 C 0.5108 0.56017 0.14174 0.0
H2101 H 0.48081 0.59412 0.15905 0.0
H2102 H 0.50323 0.59315 0.154 0.0
H2103 H 0.47897 0.57675 0.14216 0.0
H2104 H 0.46056 0.52221 0.13454 0.0
H2105 H 0.47156 0.51929 0.10776 0.0
H2106 H 0.8788 0.41161 0.77774 0.0
H2107 H 0.89473 0.42462 0.80552 0.0
H2108 H 0.91969 0.48714 0.79334 0.0
H2109 H 0.90435 0.47416 0.76515 0.0
H2110 H 0.94835 0.4817 0.81047 0.0
H2111 H 0.87756 0.4494 0.84159 0.0
H2112 H 0.87816 0.42978 0.82863 0.0
H2113 H 0.87716 0.45072 0.8199 0.0
C2114 C 0.88776 0.42815 0.7809 0.0
C2115 C 0.89043 0.44185 0.76917 0.0
C2116 C 0.89661 0.43556 0.79688 0.0
C2117 C 0.90808 0.45685 0.80161 0.0
C2118 C 0.91072 0.47064 0.78999 0.0
H2119 H 0.94907 0.49248 0.90597 0.0
H2120 H 0.93412 0.49124 0.87854 0.0
C2121 C 0.90188 0.46321 0.77392 0.0
C2122 C 0.91816 0.46445 0.81849 0.0
H2123 H 0.90881 0.45786 0.85812 0.0
C2124 C 0.93968 0.47678 0.82091 0.0
C2125 C 0.90686 0.45842 0.83214 0.0
C2126 C 0.88364 0.44654 0.83045 0.0
C2127 C 0.95027 0.48217 0.83656 0.0
C2128 C 0.93905 0.47462 0.85009 0.0
C2129 C 0.91746 0.46338 0.84775 0.0
C2130 C 0.94936 0.47698 0.86659 0.0
C2131 C 0.97338 0.49572 0.8384 0.0
C2132 C 0.96286 0.46936 0.869 0.0
C2133 C 0.97157 0.47023 0.8846 0.0
C2134 C 0.96675 0.47848 0.89821 0.0
C2135 C 0.95332 0.48626 0.89576 0.0
C2136 C 0.94467 0.48545 0.8801 0.0
H2137 H 0.97865 0.50583 0.82839 0.0
H2138 H 0.97903 0.50555 0.85018 0.0
H2139 H 0.98049 0.48586 0.83784 0.0
H2140 H 0.96634 0.46229 0.85885 0.0
H2141 H 0.98204 0.46434 0.88599 0.0
H2142 H 0.60726 0.48864 0.79015 0.0
H2143 H 0.59422 0.49003 0.81624 0.0
H2144 H 0.53193 0.45308 0.79359 0.0
H2145 H 0.54488 0.45145 0.76748 0.0
H2146 H 0.57013 0.50552 0.8253 0.0
H2147 H 0.53066 0.4217 0.8319 0.0
H2148 H 0.54837 0.43315 0.81687 0.0
H2149 H 0.52224 0.42765 0.81331 0.0
C2150 C 0.59078 0.48087 0.79071 0.0
C2151 C 0.5771 0.46987 0.77674 0.0
C2152 C 0.58335 0.48162 0.80565 0.0
C2153 C 0.5621 0.47137 0.80697 0.0
C2154 C 0.54839 0.46065 0.79299 0.0
H2155 H 0.4871 0.46317 0.88474 0.0
H2156 H 0.50042 0.46181 0.8588 0.0
C2157 C 0.55581 0.45978 0.77805 0.0
C2158 C 0.55434 0.4723 0.8229 0.0
H2159 H 0.52426 0.44242 0.85078 0.0
C2160 C 0.5602 0.49172 0.83091 0.0
C2161 C 0.5414 0.45429 0.83025 0.0
C2162 C 0.53545 0.43303 0.82273 0.0
C2163 C 0.55317 0.4936 0.84589 0.0
C2164 C 0.5401 0.4756 0.85313 0.0
C2165 C 0.53425 0.45619 0.84516 0.0
C2166 C 0.53221 0.47657 0.86894 0.0
C2167 C 0.55945 0.51481 0.85373 0.0
C2168 C 0.54567 0.48513 0.88329 0.0
C2169 C 0.53809 0.48574 0.89821 0.0
C2170 C 0.51687 0.47776 0.89907 0.0
C2171 C 0.50347 0.46917 0.88461 0.0
C2172 C 0.51106 0.46849 0.86974 0.0
H2173 H 0.5659 0.52672 0.84508 0.0
H2174 H 0.54612 0.515 0.8586 0.0
H2175 H 0.5714 0.51908 0.86405 0.0
H2176 H 0.56202 0.49114 0.88298 0.0
H2177 H 0.54883 0.49215 0.90909 0.0
H2178 H 0.52862 0.12271 0.79508 0.0
H2179 H 0.52301 0.10639 0.82031 0.0
H2180 H 0.55977 0.07959 0.80695 0.0
H2181 H 0.56553 0.09604 0.7815 0.0
H2182 H 0.50424 0.06494 0.82395 0.0
H2183 H 0.5848 0.10605 0.85322 0.0
H2184 H 0.57684 0.11471 0.8358 0.0
H2185 H 0.58101 0.0932 0.83327 0.0
C2186 C 0.53543 0.11324 0.79742 0.0
C2187 C 0.54737 0.11051 0.7862 0.0
C2188 C 0.5323 0.10401 0.81191 0.0
C2189 C 0.54109 0.09191 0.8156 0.0
C2190 C 0.55314 0.08918 0.80449 0.0
H2191 H 0.52602 0.02128 0.89935 0.0
H2192 H 0.53547 0.03604 0.87345 0.0
C2193 C 0.55636 0.09852 0.78995 0.0
C2194 C 0.53694 0.08174 0.83088 0.0
H2195 H 0.55969 0.08029 0.8674 0.0
C2196 C 0.51638 0.06827 0.83343 0.0
C2197 C 0.55281 0.08605 0.84321 0.0
C2198 C 0.57511 0.10091 0.84137 0.0
C2199 C 0.51123 0.05917 0.84802 0.0
C2200 C 0.52703 0.06382 0.86047 0.0
C2201 C 0.54763 0.07685 0.85781 0.0
C2202 C 0.52227 0.05569 0.87648 0.0
C2203 C 0.4889 0.04463 0.85003 0.0
C2204 C 0.51209 0.06217 0.88686 0.0
C2205 C 0.50672 0.05383 0.90165 0.0
C2206 C 0.51137 0.03878 0.9063 0.0
C2207 C 0.52201 0.03267 0.89601 0.0
C2208 C 0.52751 0.04114 0.88127 0.0
H2209 H 0.47916 0.03913 0.83819 0.0
H2210 H 0.48707 0.03106 0.85603 0.0
H2211 H 0.48315 0.05277 0.85785 0.0
H2212 H 0.50809 0.07353 0.88342 0.0
H2213 H 0.49841 0.05874 0.90922 0.0
H2214 H 0.12969 0.24501 0.57571 0.0
H2215 H 0.14256 0.26182 0.55113 0.0
H2216 H 0.08018 0.23643 0.5294 0.0
H2217 H 0.06726 0.21983 0.55397 0.0
H2218 H 0.13737 0.24474 0.52031 0.0
H2219 H 0.1044 0.29631 0.52174 0.0
H2220 H 0.10528 0.28291 0.53889 0.0
H2221 H 0.08545 0.26967 0.52222 0.0
C2222 C 0.11873 0.24309 0.56571 0.0
C2223 C 0.09746 0.23123 0.56684 0.0
C2224 C 0.1261 0.25273 0.55168 0.0
C2225 C 0.11235 0.25071 0.5385 0.0
C2226 C 0.0911 0.23873 0.53956 0.0
H2227 H 0.12755 0.28767 0.44027 0.0
H2228 H 0.11416 0.27183 0.46507 0.0
C2229 C 0.08373 0.2292 0.55362 0.0
C2230 C 0.12027 0.26047 0.52344 0.0
H2231 H 0.11854 0.29344 0.49744 0.0
C2232 C 0.13334 0.25548 0.51537 0.0
C2233 C 0.115 0.27448 0.51697 0.0
C2234 C 0.10193 0.28134 0.52548 0.0
C2235 C 0.14103 0.26388 0.50093 0.0
C2236 C 0.13563 0.27773 0.49443 0.0
C2237 C 0.12255 0.28271 0.50243 0.0
C2238 C 0.14374 0.2875 0.47947 0.0
C2239 C 0.15464 0.25764 0.49257 0.0
C2240 C 0.16475 0.30175 0.47944 0.0
C2241 C 0.17243 0.31102 0.46536 0.0
C2242 C 0.15925 0.30618 0.45098 0.0
C2243 C 0.13813 0.29196 0.45113 0.0
C2244 C 0.13045 0.28279 0.46527 0.0
H2245 H 0.15388 0.24372 0.49721 0.0
H2246 H 0.15021 0.25451 0.47924 0.0
H2247 H 0.17083 0.27046 0.49474 0.0
H2248 H 0.1752 0.30585 0.49037 0.0
H2249 H 0.18868 0.32221 0.46585 0.0
H2250 H 0.81026 0.90963 0.5783 0.0
H2251 H 0.79465 0.90644 0.55079 0.0
H2252 H 0.74184 0.84893 0.5594 0.0
H2253 H 0.75689 0.85248 0.58721 0.0
H2254 H 0.78462 0.87635 0.5264 0.0
H2255 H 0.71464 0.87873 0.5402 0.0
H2256 H 0.73588 0.88594 0.55543 0.0
H2257 H 0.71727 0.85917 0.54969 0.0
C2258 C 0.7951 0.89654 0.5745 0.0
C2259 C 0.78479 0.88138 0.58505 0.0
C2260 C 0.78628 0.89464 0.5587 0.0
C2261 C 0.76695 0.87758 0.55307 0.0
C2262 C 0.75657 0.86244 0.56355 0.0
H2263 H 0.69429 0.83427 0.45871 0.0
H2264 H 0.70901 0.83728 0.48664 0.0
C2265 C 0.76533 0.86438 0.5794 0.0
C2266 C 0.75816 0.87521 0.53601 0.0
H2267 H 0.71616 0.86916 0.51265 0.0
C2268 C 0.7697 0.8749 0.52341 0.0
C2269 C 0.73866 0.87326 0.5321 0.0
C2270 C 0.72596 0.87448 0.54506 0.0
C2271 C 0.76217 0.87246 0.50702 0.0
C2272 C 0.74268 0.87042 0.50314 0.0
C2273 C 0.73108 0.87064 0.5157 0.0
C2274 C 0.73419 0.86842 0.48609 0.0
C2275 C 0.77498 0.87176 0.49395 0.0
C2276 C 0.74348 0.88495 0.47659 0.0
C2277 C 0.73512 0.88329 0.46066 0.0
C2278 C 0.71732 0.86503 0.45393 0.0
C2279 C 0.70816 0.84843 0.46347 0.0
C2280 C 0.71646 0.85017 0.47944 0.0
H2281 H 0.78747 0.86913 0.49883 0.0
H2282 H 0.76522 0.85938 0.48407 0.0
H2283 H 0.78214 0.88669 0.48858 0.0
H2284 H 0.75706 0.89924 0.48157 0.0
H2285 H 0.74259 0.89629 0.45359 0.0
H2286 H 0.10381 0.89918 0.56271 0.0
H2287 H 0.11034 0.88916 0.5361 0.0
H2288 H 0.16237 0.88693 0.55842 0.0
H2289 H 0.15612 0.89737 0.58505 0.0
H2290 H 0.17287 0.90973 0.5338 0.0
H2291 H 0.10132 0.8363 0.51317 0.0
H2292 H 0.09629 0.85662 0.51894 0.0
H2293 H 0.10747 0.84769 0.53399 0.0
C2294 C 0.11629 0.896 0.562 0.0
C2295 C 0.12944 0.89902 0.57597 0.0
C2296 C 0.12 0.89022 0.54676 0.0
C2297 C 0.13672 0.88704 0.54523 0.0
C2298 C 0.14936 0.88926 0.55928 0.0
H2299 H 0.16366 0.84447 0.45422 0.0
H2300 H 0.15332 0.8468 0.48138 0.0
C2301 C 0.14578 0.89522 0.57448 0.0
C2302 C 0.14225 0.88346 0.52889 0.0
H2303 H 0.12322 0.85333 0.49257 0.0
C2304 C 0.16205 0.89726 0.52486 0.0
C2305 C 0.12825 0.86707 0.51724 0.0
C2306 C 0.10723 0.85095 0.5211 0.0
C2307 C 0.16807 0.89547 0.50943 0.0
C2308 C 0.15372 0.87976 0.49749 0.0
C2309 C 0.13411 0.86557 0.50164 0.0
C2310 C 0.15887 0.8779 0.48067 0.0
C2311 C 0.18986 0.91032 0.50615 0.0
C2312 C 0.1649 0.89439 0.47106 0.0
C2313 C 0.17088 0.89312 0.45559 0.0
C2314 C 0.1707 0.87523 0.44929 0.0
C2315 C 0.16388 0.85842 0.45868 0.0
C2316 C 0.15803 0.85975 0.47422 0.0
H2317 H 0.20033 0.91714 0.5176 0.0
H2318 H 0.19591 0.9026 0.4982 0.0
H2319 H 0.19013 0.92314 0.49994 0.0
H2320 H 0.16514 0.90833 0.47559 0.0
H2321 H 0.17566 0.90618 0.44854 0.0
H2322 H 0.54951 0.74101 0.11038 0.0
H2323 H 0.56653 0.75365 0.13794 0.0
H2324 H 0.58992 0.81637 0.12683 0.0
H2325 H 0.57307 0.8038 0.09893 0.0
H2326 H 0.60994 0.78075 0.14627 0.0
H2327 H 0.56261 0.81244 0.17007 0.0
H2328 H 0.55384 0.79412 0.15219 0.0
H2329 H 0.57304 0.82053 0.15111 0.0
C2330 C 0.55839 0.75752 0.11371 0.0
C2331 C 0.56014 0.77142 0.10237 0.0
C2332 C 0.56799 0.7647 0.12951 0.0
C2333 C 0.5794 0.78591 0.13443 0.0
C2334 C 0.58097 0.79991 0.1233 0.0
H2335 H 0.66371 0.8331 0.22405 0.0
H2336 H 0.64882 0.82915 0.19607 0.0
C2337 C 0.57135 0.79272 0.10739 0.0
C2338 C 0.59018 0.79308 0.15108 0.0
H2339 H 0.58938 0.81494 0.18816 0.0
C2340 C 0.60561 0.78841 0.1554 0.0
C2341 C 0.58432 0.80289 0.16296 0.0
C2342 C 0.56747 0.80773 0.15899 0.0
C2343 C 0.61511 0.79297 0.17137 0.0
C2344 C 0.60919 0.80268 0.18329 0.0
C2345 C 0.59395 0.80762 0.17894 0.0
C2346 C 0.61788 0.80669 0.20052 0.0
C2347 C 0.63088 0.78667 0.17548 0.0
C2348 C 0.60528 0.79588 0.21239 0.0
C2349 C 0.61373 0.79804 0.22838 0.0
C2350 C 0.63497 0.81112 0.23279 0.0
C2351 C 0.64738 0.82259 0.22098 0.0
C2352 C 0.6389 0.82041 0.205 0.0
H2353 H 0.63069 0.77575 0.16574 0.0
H2354 H 0.64646 0.80058 0.1771 0.0
H2355 H 0.62817 0.77934 0.18703 0.0
H2356 H 0.58901 0.7852 0.20915 0.0
H2357 H 0.60376 0.78887 0.23712 0.0
H2358 H 0.27502 0.8263 0.12455 0.0
H2359 H 0.26199 0.82835 0.15051 0.0
H2360 H 0.20008 0.7855 0.12936 0.0
H2361 H 0.21296 0.78341 0.10331 0.0
H2362 H 0.23358 0.84033 0.15826 0.0
H2363 H 0.20567 0.75891 0.16964 0.0
H2364 H 0.2227 0.77115 0.15434 0.0
H2365 H 0.19562 0.76194 0.15043 0.0
C2366 C 0.2586 0.81746 0.12536 0.0
C2367 C 0.24504 0.80463 0.11184 0.0
C2368 C 0.2512 0.81857 0.14024 0.0
C2369 C 0.23011 0.80682 0.14195 0.0
C2370 C 0.21647 0.79433 0.12842 0.0
H2371 H 0.1554 0.79133 0.22142 0.0
H2372 H 0.16849 0.79032 0.19529 0.0
C2373 C 0.22385 0.79318 0.11353 0.0
C2374 C 0.22241 0.80776 0.15788 0.0
H2375 H 0.19697 0.77833 0.18774 0.0
C2376 C 0.22565 0.8268 0.16475 0.0
C2377 C 0.21208 0.79008 0.16632 0.0
C2378 C 0.20894 0.76939 0.15991 0.0
C2379 C 0.21849 0.82858 0.17969 0.0
C2380 C 0.20812 0.8109 0.18811 0.0
C2381 C 0.2049 0.79186 0.18125 0.0
C2382 C 0.20034 0.81176 0.20401 0.0
C2383 C 0.22166 0.84927 0.18615 0.0
C2384 C 0.21393 0.82396 0.21766 0.0
C2385 C 0.20648 0.82466 0.23262 0.0
C2386 C 0.18528 0.8131 0.23423 0.0
C2387 C 0.17176 0.80069 0.22056 0.0
C2388 C 0.17923 0.79998 0.20563 0.0
H2389 H 0.22511 0.85984 0.17648 0.0
H2390 H 0.20785 0.84752 0.19163 0.0
H2391 H 0.23487 0.8566 0.19573 0.0
H2392 H 0.23032 0.83289 0.21677 0.0
H2393 H 0.2173 0.83448 0.24285 0.0
H2394 H 0.23405 0.43355 0.11674 0.0
H2395 H 0.22793 0.41748 0.1424 0.0
H2396 H 0.19254 0.44599 0.1553 0.0
H2397 H 0.19839 0.46181 0.12982 0.0
H2398 H 0.23707 0.43424 0.17457 0.0
H2399 H 0.1527 0.38578 0.15976 0.0
H2400 H 0.16976 0.39879 0.14468 0.0
H2401 H 0.16174 0.41259 0.15808 0.0
C2402 C 0.22499 0.43637 0.12509 0.0
C2403 C 0.21637 0.44861 0.12113 0.0
C2404 C 0.22149 0.42718 0.13971 0.0
C2405 C 0.20934 0.43012 0.15058 0.0
C2406 C 0.2014 0.44296 0.14688 0.0
H2407 H 0.17016 0.39907 0.24557 0.0
H2408 H 0.18035 0.41452 0.22004 0.0
C2409 C 0.20477 0.45201 0.1323 0.0
C2410 C 0.20495 0.41998 0.16588 0.0
H2411 H 0.16551 0.38938 0.18759 0.0
C2412 C 0.22145 0.42425 0.17736 0.0
C2413 C 0.18454 0.40684 0.16947 0.0
C2414 C 0.16618 0.40054 0.15728 0.0
C2415 C 0.21801 0.41634 0.19256 0.0
C2416 C 0.1976 0.40382 0.1963 0.0
C2417 C 0.18115 0.39919 0.18472 0.0
C2418 C 0.19288 0.39543 0.21223 0.0
C2419 C 0.23615 0.42183 0.20471 0.0
C2420 C 0.19662 0.37963 0.21628 0.0
C2421 C 0.19074 0.37073 0.23082 0.0
C2422 C 0.18109 0.37752 0.24159 0.0
C2423 C 0.17777 0.39366 0.23762 0.0
C2424 C 0.18348 0.40243 0.22302 0.0
H2425 H 0.25082 0.43416 0.20092 0.0
H2426 H 0.23382 0.42702 0.21682 0.0
H2427 H 0.23755 0.40794 0.20602 0.0
H2428 H 0.20367 0.37389 0.20803 0.0
H2429 H 0.19364 0.35842 0.23359 0.0
H2430 H 0.73444 0.5502 0.88696 0.0
H2431 H 0.74749 0.56586 0.86206 0.0
H2432 H 0.80978 0.59088 0.88388 0.0
H2433 H 0.7968 0.57499 0.90875 0.0
H2434 H 0.77119 0.60586 0.85713 0.0
H2435 H 0.81158 0.56352 0.84117 0.0
H2436 H 0.7939 0.55606 0.85655 0.0
H2437 H 0.81995 0.57701 0.8612 0.0
C2438 C 0.75093 0.55907 0.88646 0.0
C2439 C 0.7646 0.56134 0.89982 0.0
C2440 C 0.75836 0.56795 0.8722 0.0
C2441 C 0.77962 0.57928 0.87097 0.0
C2442 C 0.79332 0.58176 0.88435 0.0
H2443 H 0.85433 0.65339 0.79881 0.0
H2444 H 0.84105 0.63643 0.82317 0.0
C2445 C 0.78588 0.57274 0.89859 0.0
C2446 C 0.78737 0.58897 0.85584 0.0
H2447 H 0.81784 0.59172 0.82603 0.0
C2448 C 0.78128 0.60265 0.85028 0.0
C2449 C 0.80052 0.58477 0.84687 0.0
C2450 C 0.80672 0.56939 0.85164 0.0
C2451 C 0.78827 0.61251 0.8362 0.0
C2452 C 0.80158 0.60847 0.82737 0.0
C2453 C 0.80767 0.59481 0.83287 0.0
C2454 C 0.8095 0.61845 0.81244 0.0
C2455 C 0.78171 0.62748 0.83101 0.0
C2456 C 0.79617 0.61375 0.79826 0.0
C2457 C 0.80373 0.62323 0.78421 0.0
C2458 C 0.8248 0.63763 0.78407 0.0
C2459 C 0.83809 0.64217 0.79834 0.0
C2460 C 0.83052 0.63259 0.81233 0.0
H2461 H 0.77473 0.6319 0.84077 0.0
H2462 H 0.79504 0.64166 0.82752 0.0
H2463 H 0.77013 0.62023 0.82023 0.0
H2464 H 0.77992 0.60263 0.79802 0.0
H2465 H 0.79309 0.61907 0.7734 0.0
H2466 H 0.47933 0.24028 0.91035 0.0
H2467 H 0.46356 0.23686 0.88276 0.0
H2468 H 0.41009 0.18037 0.89214 0.0
H2469 H 0.4256 0.18384 0.91984 0.0
H2470 H 0.44991 0.20228 0.85833 0.0
H2471 H 0.38658 0.21582 0.87401 0.0
H2472 H 0.409 0.22328 0.88806 0.0
H2473 H 0.38888 0.19676 0.88466 0.0
C2474 C 0.46408 0.22729 0.90663 0.0
C2475 C 0.45366 0.21239 0.91732 0.0
C2476 C 0.45517 0.22529 0.89083 0.0
C2477 C 0.43559 0.20848 0.88548 0.0
C2478 C 0.4251 0.1936 0.89611 0.0
H2479 H 0.35498 0.16991 0.79547 0.0
H2480 H 0.3709 0.17299 0.8229 0.0
C2481 C 0.43405 0.19553 0.91188 0.0
C2482 C 0.42638 0.20621 0.86862 0.0
H2483 H 0.38615 0.2053 0.84646 0.0
C2484 C 0.43601 0.20301 0.85569 0.0
C2485 C 0.40821 0.20708 0.86527 0.0
C2486 C 0.39759 0.21108 0.87869 0.0
C2487 C 0.42776 0.2003 0.83947 0.0
C2488 C 0.40964 0.20131 0.8361 0.0
C2489 C 0.40003 0.20452 0.84905 0.0
C2490 C 0.40036 0.19909 0.81923 0.0
C2491 C 0.43823 0.19585 0.82615 0.0
C2492 C 0.41159 0.21278 0.80804 0.0
C2493 C 0.40254 0.21102 0.79233 0.0
C2494 C 0.38198 0.19569 0.78757 0.0
C2495 C 0.37078 0.182 0.7988 0.0
C2496 C 0.37988 0.1837 0.81447 0.0
H2497 H 0.44809 0.18978 0.83087 0.0
H2498 H 0.4268 0.18452 0.81633 0.0
H2499 H 0.44823 0.21036 0.82081 0.0
H2500 H 0.42725 0.2251 0.81155 0.0
H2501 H 0.41147 0.22201 0.78406 0.0
H2502 H 0.78 0.20466 0.90991 0.0
H2503 H 0.78424 0.19357 0.88262 0.0
H2504 H 0.81938 0.25716 0.87288 0.0
H2505 H 0.81459 0.26823 0.89967 0.0
H2506 H 0.79154 0.23287 0.84726 0.0
H2507 H 0.83728 0.19772 0.86902 0.0
H2508 H 0.81234 0.18763 0.8762 0.0
H2509 H 0.83191 0.21392 0.88236 0.0
C2510 C 0.78847 0.21623 0.90187 0.0
C2511 C 0.79724 0.23735 0.90708 0.0
C2512 C 0.79106 0.20989 0.88635 0.0
C2513 C 0.80248 0.22456 0.87581 0.0
C2514 C 0.81066 0.24556 0.88083 0.0
H2515 H 0.8684 0.2241 0.79547 0.0
H2516 H 0.85598 0.22621 0.82166 0.0
C2517 C 0.80806 0.25188 0.89623 0.0
C2518 C 0.80623 0.21839 0.85955 0.0
H2519 H 0.83111 0.19677 0.84069 0.0
C2520 C 0.80003 0.2248 0.84579 0.0
C2521 C 0.81751 0.20807 0.85769 0.0
C2522 C 0.82533 0.20155 0.87208 0.0
C2523 C 0.80519 0.22163 0.83029 0.0
C2524 C 0.81651 0.21134 0.82842 0.0
C2525 C 0.82233 0.20452 0.84212 0.0
C2526 C 0.82372 0.20886 0.81257 0.0
C2527 C 0.79928 0.23018 0.81622 0.0
C2528 C 0.80972 0.19803 0.79877 0.0
C2529 C 0.81679 0.19703 0.78369 0.0
C2530 C 0.83804 0.20669 0.78212 0.0
C2531 C 0.85197 0.21684 0.79612 0.0
C2532 C 0.84488 0.21791 0.81116 0.0
H2533 H 0.79502 0.24176 0.82038 0.0
H2534 H 0.81209 0.23752 0.80847 0.0
H2535 H 0.78579 0.21742 0.80862 0.0
H2536 H 0.79331 0.19057 0.79961 0.0
H2537 H 0.8056 0.18917 0.77318 0.0
H2538 H 0.21263 0.07466 0.44443 0.0
H2539 H 0.22793 0.08718 0.4724 0.0
H2540 H 0.25183 0.14996 0.46122 0.0
H2541 H 0.2372 0.13751 0.43283 0.0
H2542 H 0.28064 0.14513 0.4786 0.0
H2543 H 0.20883 0.10993 0.5084 0.0
H2544 H 0.21049 0.09103 0.49536 0.0
H2545 H 0.20893 0.11177 0.48678 0.0
C2546 C 0.22126 0.09115 0.44783 0.0
C2547 C 0.22381 0.10509 0.43632 0.0
C2548 C 0.22973 0.09828 0.46393 0.0
C2549 C 0.24069 0.11949 0.46901 0.0
C2550 C 0.24326 0.13351 0.4576 0.0
H2551 H 0.27863 0.15457 0.5738 0.0
H2552 H 0.26389 0.15273 0.54615 0.0
C2553 C 0.23481 0.12637 0.44141 0.0
C2554 C 0.25028 0.12684 0.48604 0.0
H2555 H 0.23996 0.11921 0.52541 0.0
C2556 C 0.27171 0.13974 0.48885 0.0
C2557 C 0.23862 0.12018 0.49946 0.0
C2558 C 0.21542 0.10765 0.49736 0.0
C2559 C 0.28191 0.14514 0.50465 0.0
C2560 C 0.27039 0.13705 0.51795 0.0
C2561 C 0.24885 0.12516 0.51521 0.0
C2562 C 0.2804 0.13961 0.53461 0.0
C2563 C 0.30493 0.15936 0.50689 0.0
C2564 C 0.29451 0.13279 0.53734 0.0
C2565 C 0.3031 0.13402 0.55307 0.0
C2566 C 0.29755 0.14181 0.56651 0.0
C2567 C 0.28345 0.14872 0.56374 0.0
C2568 C 0.27492 0.14757 0.54795 0.0
H2569 H 0.31018 0.16962 0.49698 0.0
H2570 H 0.30998 0.16907 0.51873 0.0
H2571 H 0.31259 0.15 0.50652 0.0
H2572 H 0.29861 0.12612 0.52733 0.0
H2573 H 0.31409 0.1288 0.55469 0.0
H2574 H 0.94374 0.157 0.45738 0.0
H2575 H 0.93077 0.1582 0.48353 0.0
H2576 H 0.86885 0.11564 0.46227 0.0
H2577 H 0.88161 0.11457 0.43597 0.0
H2578 H 0.90145 0.16994 0.49095 0.0
H2579 H 0.87528 0.08894 0.50274 0.0
H2580 H 0.89264 0.10157 0.48772 0.0
H2581 H 0.86554 0.0919 0.48335 0.0
C2582 C 0.92733 0.14802 0.45819 0.0
C2583 C 0.91372 0.13567 0.44453 0.0
C2584 C 0.91997 0.14863 0.47319 0.0
C2585 C 0.8989 0.13678 0.47491 0.0
C2586 C 0.88523 0.12457 0.4613 0.0
H2587 H 0.82246 0.11988 0.55305 0.0
H2588 H 0.83674 0.11812 0.52769 0.0
C2589 C 0.89256 0.12398 0.44627 0.0
C2590 C 0.89119 0.13759 0.49084 0.0
H2591 H 0.86619 0.10807 0.52079 0.0
C2592 C 0.89384 0.15646 0.49754 0.0
C2593 C 0.88124 0.11996 0.49938 0.0
C2594 C 0.87862 0.09946 0.49304 0.0
C2595 C 0.88639 0.15808 0.51237 0.0
C2596 C 0.87642 0.14044 0.52092 0.0
C2597 C 0.87386 0.12159 0.51425 0.0
C2598 C 0.86807 0.14112 0.5366 0.0
C2599 C 0.88872 0.17854 0.51849 0.0
C2600 C 0.881 0.15429 0.55018 0.0
C2601 C 0.87284 0.15549 0.56468 0.0
C2602 C 0.85159 0.14341 0.56592 0.0
C2603 C 0.83882 0.1297 0.55244 0.0
C2604 C 0.84698 0.12856 0.53796 0.0
H2605 H 0.89172 0.1888 0.50863 0.0
H2606 H 0.87471 0.17634 0.52388 0.0
H2607 H 0.90194 0.18647 0.52803 0.0
H2608 H 0.89739 0.1638 0.54954 0.0
H2609 H 0.88313 0.1663 0.57475 0.0
H2610 H 0.85738 0.75022 0.44333 0.0
H2611 H 0.85115 0.73541 0.46941 0.0
H2612 H 0.90589 0.78941 0.49238 0.0
H2613 H 0.91206 0.80448 0.46644 0.0
H2614 H 0.87736 0.72774 0.49238 0.0
H2615 H 0.85741 0.78521 0.51735 0.0
H2616 H 0.85818 0.78042 0.49587 0.0
H2617 H 0.88169 0.79552 0.50896 0.0
C2618 C 0.86817 0.75887 0.45392 0.0
C2619 C 0.88515 0.77857 0.45284 0.0
C2620 C 0.86464 0.75035 0.46877 0.0
C2621 C 0.87792 0.76144 0.48283 0.0
C2622 C 0.89535 0.78071 0.48168 0.0
H2623 H 0.87492 0.71824 0.57905 0.0
H2624 H 0.88558 0.73221 0.55311 0.0
C2625 C 0.89896 0.7892 0.46682 0.0
C2626 C 0.87289 0.7533 0.49883 0.0
H2627 H 0.85745 0.7617 0.535 0.0
C2628 C 0.8731 0.73519 0.50175 0.0
C2629 C 0.86709 0.76294 0.51092 0.0
C2630 C 0.86589 0.78202 0.50816 0.0
C2631 C 0.86776 0.7265 0.51653 0.0
C2632 C 0.86217 0.73628 0.52867 0.0
C2633 C 0.86189 0.75434 0.52571 0.0
C2634 C 0.8558 0.7276 0.54433 0.0
C2635 C 0.86764 0.70669 0.51891 0.0
C2636 C 0.83562 0.72068 0.54808 0.0
C2637 C 0.82944 0.71259 0.56283 0.0
C2638 C 0.84338 0.71143 0.57424 0.0
C2639 C 0.86368 0.71858 0.57047 0.0
C2640 C 0.86982 0.7266 0.55566 0.0
H2641 H 0.86837 0.69901 0.50729 0.0
H2642 H 0.8812 0.71009 0.52736 0.0
H2643 H 0.8536 0.6958 0.52437 0.0
H2644 H 0.82456 0.72133 0.5395 0.0
H2645 H 0.81362 0.70695 0.56517 0.0
loop_
_geom_bond_atom_site_label_1
_geom_bond_atom_site_label_2
_geom_bond_distance
_geom_bond_site_symmetry_2
_ccdc_geom_bond_type
H0 C1 0.949 . S
C1 H0 0.949 . S
C1 C2 1.395 . S
C1 C3 1.391 . S
C2 C1 1.395 . S
C2 C5 1.390 . S
C3 C1 1.391 . S
C3 C7 1.387 . S
C3 C8 1.491 . S
H4 C5 0.950 . S
C5 C2 1.390 . S
C5 H4 0.950 . S
C5 C6 1.378 . S
C6 C5 1.378 . S
C6 C7 1.409 . S
C7 C3 1.387 . S
C7 C6 1.409 . S
C7 H9 0.951 . S
C8 C3 1.491 . S
C8 C10 1.382 . S
C8 C12 1.404 . S
H9 C7 0.951 . S
C10 C8 1.382 . S
C10 C11 1.390 . S
C10 H15 0.949 . S
C11 C10 1.390 . S
C11 C16 1.399 . S
C12 C8 1.404 . S
C12 H13 0.950 . S
C12 C14 1.375 . S
H13 C12 0.950 . S
C14 C12 1.375 . S
C14 C16 1.382 . S
C14 H18 0.950 . S
H15 C10 0.949 . S
C16 C11 1.399 . S
C16 C14 1.382 . S
C16 H17 0.952 . S
H17 C16 0.952 . S
H18 C14 0.950 . S
H19 C20 0.949 . S
C20 H19 0.949 . S
C20 C21 1.395 . S
C20 C22 1.391 . S
C21 C20 1.395 . S
C21 C24 1.390 . S
C22 C20 1.391 . S
C22 C26 1.387 . S
C22 C27 1.491 . S
H23 C24 0.950 . S
C24 C21 1.390 . S
C24 H23 0.950 . S
C24 C25 1.378 . S
C25 C24 1.378 . S
C25 C26 1.409 . S
C26 C22 1.387 . S
C26 C25 1.409 . S
C26 H28 0.951 . S
C27 C22 1.491 . S
C27 C29 1.382 . S
C27 C31 1.404 . S
H28 C26 0.951 . S
C29 C27 1.382 . S
C29 C30 1.390 . S
C29 H34 0.949 . S
C30 C29 1.390 . S
C30 C35 1.399 . S
C31 C27 1.404 . S
C31 H32 0.950 . S
C31 C33 1.375 . S
H32 C31 0.950 . S
C33 C31 1.375 . S
C33 C35 1.382 . S
C33 H37 0.950 . S
H34 C29 0.949 . S
C35 C30 1.399 . S
C35 C33 1.382 . S
C35 H36 0.952 . S
H36 C35 0.952 . S
H37 C33 0.950 . S
H38 C39 0.949 . S
C39 H38 0.949 . S
C39 C40 1.395 . S
C39 C41 1.391 . S
C40 C39 1.395 . S
C40 C43 1.390 . S
C41 C39 1.391 . S
C41 C45 1.387 . S
C41 C46 1.491 . S
H42 C43 0.950 . S
C43 C40 1.390 . S
C43 H42 0.950 . S
C43 C44 1.378 . S
C44 C43 1.378 . S
C44 C45 1.409 . S
C45 C41 1.387 . S
C45 C44 1.409 . S
C45 H47 0.951 . S
C46 C41 1.491 . S
C46 C48 1.382 . S
C46 C50 1.404 . S
H47 C45 0.951 . S
C48 C46 1.382 . S
C48 C49 1.390 . S
C48 H53 0.949 . S
C49 C48 1.390 . S
C49 C54 1.399 . S
C50 C46 1.404 . S
C50 H51 0.950 . S
C50 C52 1.375 . S
H51 C50 0.950 . S
C52 C50 1.375 . S
C52 C54 1.382 . S
C52 H56 0.950 . S
H53 C48 0.949 . S
C54 C49 1.399 . S
C54 C52 1.382 . S
C54 H55 0.952 . S
H55 C54 0.952 . S
H56 C52 0.950 . S
H57 C58 0.949 . S
C58 H57 0.949 . S
C58 C59 1.395 . S
C58 C60 1.391 . S
C59 C58 1.395 . S
C59 C62 1.390 . S
C60 C58 1.391 . S
C60 C64 1.387 . S
C60 C65 1.491 . S
H61 C62 0.950 . S
C62 C59 1.390 . S
C62 H61 0.950 . S
C62 C63 1.378 . S
C63 C62 1.378 . S
C63 C64 1.409 . S
C64 C60 1.387 . S
C64 C63 1.409 . S
C64 H66 0.951 . S
C65 C60 1.491 . S
C65 C67 1.382 . S
C65 C69 1.404 . S
H66 C64 0.951 . S
C67 C65 1.382 . S
C67 C68 1.390 . S
C67 H72 0.949 . S
C68 C67 1.390 . S
C68 C73 1.399 . S
C69 C65 1.404 . S
C69 H70 0.950 . S
C69 C71 1.375 . S
H70 C69 0.950 . S
C71 C69 1.375 . S
C71 C73 1.382 . S
C71 H75 0.950 . S
H72 C67 0.949 . S
C73 C68 1.399 . S
C73 C71 1.382 . S
C73 H74 0.952 . S
H74 C73 0.952 . S
H75 C71 0.950 . S
H76 C77 0.949 . S
C77 H76 0.949 . S
C77 C78 1.395 . S
C77 C79 1.391 . S
C78 C77 1.395 . S
C78 C81 1.390 . S
C79 C77 1.391 . S
C79 C83 1.387 . S
C79 C84 1.491 . S
H80 C81 0.950 . S
C81 C78 1.390 . S
C81 H80 0.950 . S
C81 C82 1.378 . S
C82 C81 1.378 . S
C82 C83 1.409 . S
C83 C79 1.387 . S
C83 C82 1.409 . S
C83 H85 0.951 . S
C84 C79 1.491 . S
C84 C86 1.382 . S
C84 C88 1.404 . S
H85 C83 0.951 . S
C86 C84 1.382 . S
C86 C87 1.390 . S
C86 H91 0.949 . S
C87 C86 1.390 . S
C87 C92 1.399 . S
C88 C84 1.404 . S
C88 H89 0.950 . S
C88 C90 1.375 . S
H89 C88 0.950 . S
C90 C88 1.375 . S
C90 C92 1.382 . S
C90 H94 0.950 . S
H91 C86 0.949 . S
C92 C87 1.399 . S
C92 C90 1.382 . S
C92 H93 0.952 . S
H93 C92 0.952 . S
H94 C90 0.950 . S
H95 C96 0.949 . S
C96 H95 0.949 . S
C96 C97 1.395 . S
C96 C98 1.391 . S
C97 C96 1.395 . S
C97 C100 1.390 . S
C98 C96 1.391 . S
C98 C102 1.387 . S
C98 C103 1.491 . S
H99 C100 0.950 . S
C100 C97 1.390 . S
C100 H99 0.950 . S
C100 C101 1.378 . S
C101 C100 1.378 . S
C101 C102 1.409 . S
C102 C98 1.387 . S
C102 C101 1.409 . S
C102 H104 0.951 . S
C103 C98 1.491 . S
C103 C105 1.382 . S
C103 C107 1.404 . S
H104 C102 0.951 . S
C105 C103 1.382 . S
C105 C106 1.390 . S
C105 H110 0.949 . S
C106 C105 1.390 . S
C106 C111 1.399 . S
C107 C103 1.404 . S
C107 H108 0.950 . S
C107 C109 1.375 . S
H108 C107 0.950 . S
C109 C107 1.375 . S
C109 C111 1.382 . S
C109 H113 0.950 . S
H110 C105 0.949 . S
C111 C106 1.399 . S
C111 C109 1.382 . S
C111 H112 0.952 . S
H112 C111 0.952 . S
H113 C109 0.950 . S
H114 C115 0.949 . S
C115 H114 0.949 . S
C115 C116 1.395 . S
C115 C117 1.391 . S
C116 C115 1.395 . S
C116 C119 1.390 . S
C117 C115 1.391 . S
C117 C121 1.387 . S
C117 C122 1.491 . S
H118 C119 0.950 . S
C119 C116 1.390 . S
C119 H118 0.950 . S
C119 C120 1.378 . S
C120 C119 1.378 . S
C120 C121 1.409 . S
C121 C117 1.387 . S
C121 C120 1.409 . S
C121 H123 0.951 . S
C122 C117 1.491 . S
C122 C124 1.382 . S
C122 C126 1.404 . S
H123 C121 0.951 . S
C124 C122 1.382 . S
C124 C125 1.390 . S
C124 H129 0.949 . S
C125 C124 1.390 . S
C125 C130 1.399 . S
C126 C122 1.404 . S
C126 H127 0.950 . S
C126 C128 1.375 . S
H127 C126 0.950 . S
C128 C126 1.375 . S
C128 C130 1.382 . S
C128 H132 0.950 . S
H129 C124 0.949 . S
C130 C125 1.399 . S
C130 C128 1.382 . S
C130 H131 0.952 . S
H131 C130 0.952 . S
H132 C128 0.950 . S
H133 C134 0.949 . S
C134 H133 0.949 . S
C134 C135 1.395 . S
C134 C136 1.391 . S
C135 C134 1.395 . S
C135 C138 1.390 . S
C136 C134 1.391 . S
C136 C140 1.387 . S
C136 C141 1.491 . S
H137 C138 0.950 . S
C138 C135 1.390 . S
C138 H137 0.950 . S
C138 C139 1.378 . S
C139 C138 1.378 . S
C139 C140 1.409 . S
C140 C136 1.387 . S
C140 C139 1.409 . S
C140 H142 0.951 . S
C141 C136 1.491 . S
C141 C143 1.382 . S
C141 C145 1.404 . S
H142 C140 0.951 . S
C143 C141 1.382 . S
C143 C144 1.390 . S
C143 H148 0.949 . S
C144 C143 1.390 . S
C144 C149 1.399 . S
C145 C141 1.404 . S
C145 H146 0.950 . S
C145 C147 1.375 . S
H146 C145 0.950 . S
C147 C145 1.375 . S
C147 C149 1.382 . S
C147 H151 0.950 . S
H148 C143 0.949 . S
C149 C144 1.399 . S
C149 C147 1.382 . S
C149 H150 0.952 . S
H150 C149 0.952 . S
H151 C147 0.950 . S
H152 C153 0.949 . S
C153 H152 0.949 . S
C153 C154 1.395 . S
C153 C155 1.391 . S
C154 C153 1.395 . S
C154 C157 1.390 . S
C155 C153 1.391 . S
C155 C159 1.387 . S
C155 C160 1.491 . S
H156 C157 0.950 . S
C157 C154 1.390 . S
C157 H156 0.950 . S
C157 C158 1.378 . S
C158 C157 1.378 . S
C158 C159 1.409 . S
C159 C155 1.387 . S
C159 C158 1.409 . S
C159 H161 0.951 . S
C160 C155 1.491 . S
C160 C162 1.382 . S
C160 C164 1.404 . S
H161 C159 0.951 . S
C162 C160 1.382 . S
C162 C163 1.390 . S
C162 H167 0.949 . S
C163 C162 1.390 . S
C163 C168 1.399 . S
C164 C160 1.404 . S
C164 H165 0.950 . S
C164 C166 1.375 . S
H165 C164 0.950 . S
C166 C164 1.375 . S
C166 C168 1.382 . S
C166 H170 0.950 . S
H167 C162 0.949 . S
C168 C163 1.399 . S
C168 C166 1.382 . S
C168 H169 0.952 . S
H169 C168 0.952 . S
H170 C166 0.950 . S
H171 C172 0.949 . S
C172 H171 0.949 . S
C172 C173 1.395 . S
C172 C174 1.391 . S
C173 C172 1.395 . S
C173 C176 1.390 . S
C174 C172 1.391 . S
C174 C178 1.387 . S
C174 C179 1.491 . S
H175 C176 0.950 . S
C176 C173 1.390 . S
C176 H175 0.950 . S
C176 C177 1.378 . S
C177 C176 1.378 . S
C177 C178 1.409 . S
C178 C174 1.387 . S
C178 C177 1.409 . S
C178 H180 0.951 . S
C179 C174 1.491 . S
C179 C181 1.382 . S
C179 C183 1.404 . S
H180 C178 0.951 . S
C181 C179 1.382 . S
C181 C182 1.390 . S
C181 H186 0.949 . S
C182 C181 1.390 . S
C182 C187 1.399 . S
C183 C179 1.404 . S
C183 H184 0.950 . S
C183 C185 1.375 . S
H184 C183 0.950 . S
C185 C183 1.375 . S
C185 C187 1.382 . S
C185 H189 0.950 . S
H186 C181 0.949 . S
C187 C182 1.399 . S
C187 C185 1.382 . S
C187 H188 0.952 . S
H188 C187 0.952 . S
H189 C185 0.950 . S
H190 C191 0.949 . S
C191 H190 0.949 . S
C191 C192 1.395 . S
C191 C193 1.391 . S
C192 C191 1.395 . S
C192 C195 1.390 . S
C193 C191 1.391 . S
C193 C197 1.387 . S
C193 C198 1.491 . S
H194 C195 0.950 . S
C195 C192 1.390 . S
C195 H194 0.950 . S
C195 C196 1.378 . S
C196 C195 1.378 . S
C196 C197 1.409 . S
C197 C193 1.387 . S
C197 C196 1.409 . S
C197 H199 0.951 1_556 S
C198 C193 1.491 . S
C198 C200 1.382 . S
C198 C202 1.404 1_556 S
H199 C197 0.951 1_554 S
C200 C198 1.382 . S
C200 C201 1.376 1_556 S
C200 H205 0.949 . S
C201 C200 1.376 1_554 S
C201 C206 1.417 . S
C202 C198 1.404 1_554 S
C202 H203 0.950 . S
C202 C204 1.375 . S
H203 C202 0.950 . S
C204 C202 1.375 . S
C204 C206 1.382 . S
C204 H208 0.950 . S
H205 C200 0.949 . S
C206 C201 1.417 . S
C206 C204 1.382 . S
C206 H207 0.952 . S
H207 C206 0.952 . S
H208 C204 0.950 . S
H209 C210 0.949 . S
C210 H209 0.949 . S
C210 C211 1.395 . S
C210 C212 1.391 . S
C211 C210 1.395 . S
C211 C214 1.390 . S
C212 C210 1.391 . S
C212 C216 1.387 . S
C212 C217 1.491 . S
H213 C214 0.950 . S
C214 C211 1.390 . S
C214 H213 0.950 . S
C214 C215 1.378 . S
C215 C214 1.378 . S
C215 C216 1.409 . S
C216 C212 1.387 . S
C216 C215 1.409 . S
C216 H218 0.951 . S
C217 C212 1.491 . S
C217 C219 1.382 . S
C217 C221 1.404 . S
H218 C216 0.951 . S
C219 C217 1.382 . S
C219 C220 1.390 . S
C219 H224 0.949 . S
C220 C219 1.390 . S
C220 C225 1.399 . S
C221 C217 1.404 . S
C221 H222 0.950 . S
C221 C223 1.375 . S
H222 C221 0.950 . S
C223 C221 1.375 . S
C223 C225 1.382 . S
C223 H227 0.950 . S
H224 C219 0.949 . S
C225 C220 1.399 . S
C225 C223 1.382 . S
C225 H226 0.952 . S
H226 C225 0.952 . S
H227 C223 0.950 . S
H228 C229 0.949 . S
C229 H228 0.949 . S
C229 C230 1.395 . S
C229 C231 1.391 . S
C230 C229 1.395 . S
C230 C233 1.390 . S
C231 C229 1.391 . S
C231 C235 1.387 . S
C231 C236 1.491 . S
H232 C233 0.950 . S
C233 C230 1.390 . S
C233 H232 0.950 . S
C233 C234 1.378 . S
C234 C233 1.378 . S
C234 C235 1.409 . S
C235 C231 1.387 . S
C235 C234 1.409 . S
C235 H237 0.951 . S
C236 C231 1.491 . S
C236 C238 1.382 . S
C236 C240 1.404 . S
H237 C235 0.951 . S
C238 C236 1.382 . S
C238 C239 1.390 . S
C238 H243 0.949 . S
C239 C238 1.390 . S
C239 C244 1.399 . S
C240 C236 1.404 . S
C240 H241 0.950 . S
C240 C242 1.375 . S
H241 C240 0.950 . S
C242 C240 1.375 . S
C242 C244 1.382 . S
C242 H246 0.950 . S
H243 C238 0.949 . S
C244 C239 1.399 . S
C244 C242 1.382 . S
C244 H245 0.952 . S
H245 C244 0.952 . S
H246 C242 0.950 . S
H247 C248 0.949 . S
C248 H247 0.949 . S
C248 C249 1.395 . S
C248 C250 1.391 . S
C249 C248 1.395 . S
C249 C252 1.390 . S
C250 C248 1.391 . S
C250 C254 1.387 . S
C250 C255 1.491 . S
H251 C252 0.950 . S
C252 C249 1.390 . S
C252 H251 0.950 . S
C252 C253 1.378 . S
C253 C252 1.378 . S
C253 C254 1.409 . S
C254 C250 1.387 . S
C254 C253 1.409 . S
C254 H256 0.951 . S
C255 C250 1.491 . S
C255 C257 1.382 . S
C255 C259 1.404 . S
H256 C254 0.951 . S
C257 C255 1.382 . S
C257 C258 1.390 . S
C257 H262 0.949 . S
C258 C257 1.390 . S
C258 C263 1.399 . S
C259 C255 1.404 . S
C259 H260 0.950 . S
C259 C261 1.375 . S
H260 C259 0.950 . S
C261 C259 1.375 . S
C261 C263 1.382 . S
C261 H265 0.950 . S
H262 C257 0.949 . S
C263 C258 1.399 . S
C263 C261 1.382 . S
C263 H264 0.952 . S
H264 C263 0.952 . S
H265 C261 0.950 . S
H266 C267 0.949 . S
C267 H266 0.949 . S
C267 C268 1.395 . S
C267 C269 1.391 . S
C268 C267 1.395 . S
C268 C271 1.390 . S
C269 C267 1.391 . S
C269 C273 1.387 . S
C269 C274 1.491 . S
H270 C271 0.950 . S
C271 C268 1.390 . S
C271 H270 0.950 . S
C271 C272 1.378 . S
C272 C271 1.378 . S
C272 C273 1.409 . S
C273 C269 1.387 . S
C273 C272 1.409 . S
C273 H275 0.951 . S
C274 C269 1.491 . S
C274 C276 1.382 . S
C274 C278 1.404 . S
H275 C273 0.951 . S
C276 C274 1.382 . S
C276 C277 1.390 . S
C276 H281 0.949 . S
C277 C276 1.390 . S
C277 C282 1.399 . S
C278 C274 1.404 . S
C278 H279 0.950 . S
C278 C280 1.375 . S
H279 C278 0.950 . S
C280 C278 1.375 . S
C280 C282 1.382 . S
C280 H284 0.950 . S
H281 C276 0.949 . S
C282 C277 1.399 . S
C282 C280 1.382 . S
C282 H283 0.952 . S
H283 C282 0.952 . S
H284 C280 0.950 . S
H285 C286 0.949 . S
C286 H285 0.949 . S
C286 C287 1.395 . S
C286 C288 1.391 . S
C287 C286 1.395 . S
C287 C290 1.390 . S
C288 C286 1.391 . S
C288 C292 1.387 . S
C288 C293 1.491 . S
H289 C290 0.950 . S
C290 C287 1.390 . S
C290 H289 0.950 . S
C290 C291 1.378 . S
C291 C290 1.378 . S
C291 C292 1.409 . S
C292 C288 1.387 . S
C292 C291 1.409 . S
C292 H294 0.951 . S
C293 C288 1.491 . S
C293 C295 1.382 . S
C293 C297 1.404 . S
H294 C292 0.951 . S
C295 C293 1.382 . S
C295 C296 1.390 . S
C295 H300 0.949 . S
C296 C295 1.390 . S
C296 C301 1.399 . S
C297 C293 1.404 . S
C297 H298 0.950 . S
C297 C299 1.375 . S
H298 C297 0.950 . S
C299 C297 1.375 . S
C299 C301 1.382 . S
C299 H303 0.950 . S
H300 C295 0.949 . S
C301 C296 1.399 . S
C301 C299 1.382 . S
C301 H302 0.952 . S
H302 C301 0.952 . S
H303 C299 0.950 . S
H304 C305 0.949 . S
C305 H304 0.949 . S
C305 C306 1.395 . S
C305 C307 1.391 . S
C306 C305 1.395 . S
C306 C309 1.390 . S
C307 C305 1.391 . S
C307 C311 1.387 . S
C307 C312 1.491 . S
H308 C309 0.950 . S
C309 C306 1.390 . S
C309 H308 0.950 . S
C309 C310 1.378 . S
C310 C309 1.378 . S
C310 C311 1.409 . S
C311 C307 1.387 . S
C311 C310 1.409 . S
C311 H313 0.951 . S
C312 C307 1.491 . S
C312 C314 1.382 . S
C312 C316 1.404 . S
H313 C311 0.951 . S
C314 C312 1.382 . S
C314 C315 1.390 . S
C314 H319 0.949 . S
C315 C314 1.390 . S
C315 C320 1.399 . S
C316 C312 1.404 . S
C316 H317 0.950 . S
C316 C318 1.375 . S
H317 C316 0.950 . S
C318 C316 1.375 . S
C318 C320 1.382 . S
C318 H322 0.950 . S
H319 C314 0.949 . S
C320 C315 1.399 . S
C320 C318 1.382 . S
C320 H321 0.952 . S
H321 C320 0.952 . S
H322 C318 0.950 . S
H323 C324 0.949 . S
C324 H323 0.949 . S
C324 C325 1.395 . S
C324 C326 1.391 . S
C325 C324 1.395 . S
C325 C328 1.390 . S
C326 C324 1.391 . S
C326 C330 1.387 . S
C326 C331 1.491 . S
H327 C328 0.950 . S
C328 C325 1.390 . S
C328 H327 0.950 . S
C328 C329 1.378 . S
C329 C328 1.378 . S
C329 C330 1.409 . S
C330 C326 1.387 . S
C330 C329 1.409 . S
C330 H332 0.951 . S
C331 C326 1.491 . S
C331 C333 1.382 . S
C331 C335 1.404 . S
H332 C330 0.951 . S
C333 C331 1.382 . S
C333 C334 1.390 . S
C333 H338 0.949 . S
C334 C333 1.390 . S
C334 C339 1.399 . S
C335 C331 1.404 . S
C335 H336 0.950 . S
C335 C337 1.375 . S
H336 C335 0.950 . S
C337 C335 1.375 . S
C337 C339 1.382 . S
C337 H341 0.950 . S
H338 C333 0.949 . S
C339 C334 1.399 . S
C339 C337 1.382 . S
C339 H340 0.952 . S
H340 C339 0.952 . S
H341 C337 0.950 . S
C342 Eu343 2.835 1_565 S
C342 C344 1.500 . S
C342 O362 1.257 . S
C342 O363 1.260 1_565 S
Eu343 C342 2.835 1_545 S
Eu343 O362 2.473 1_545 S
Eu343 O363 2.480 . S
Eu343 O364 2.430 . S
Eu343 O365 2.731 . S
Eu343 O366 2.394 1_545 S
Eu343 O371 2.355 1_545 S
Eu343 O373 2.374 . S
C344 C342 1.500 . S
C344 C345 1.377 . S
C344 C349 1.377 . S
C345 C344 1.377 . S
C345 C346 1.395 . S
C345 H374 0.931 1_565 S
C346 C345 1.395 . S
C346 C347 1.383 . S
C346 H375 0.941 . S
C347 C346 1.383 . S
C347 C348 1.394 . S
C348 C347 1.394 . S
C348 C349 1.378 . S
C348 H376 0.931 . S
C349 C344 1.377 . S
C349 C348 1.378 . S
C349 H377 0.931 . S
C350 O364 1.259 . S
C350 O365 1.305 . S
C351 O366 1.251 . S
C351 O367 1.251 1_554 S
C352 Eu353 2.835 1_545 S
C352 C354 1.500 . S
C352 O368 1.257 . S
C352 O369 1.260 1_545 S
Eu353 C352 2.835 1_565 S
Eu353 O365 2.314 1_566 S
Eu353 O367 2.374 . S
Eu353 O368 2.473 1_565 S
Eu353 O369 2.480 . S
Eu353 O370 2.430 . S
Eu353 O371 2.670 1_556 S
Eu353 O372 2.394 1_565 S
C354 C352 1.500 . S
C354 C355 1.377 . S
C354 C359 1.377 . S
C355 C354 1.377 . S
C355 C356 1.395 . S
C355 H378 0.931 1_545 S
C356 C355 1.395 . S
C356 C357 1.383 . S
C356 H379 0.931 . S
C357 C356 1.383 . S
C357 C358 1.394 . S
C358 C357 1.394 . S
C358 C359 1.378 . S
C358 H380 0.931 . S
C359 C354 1.377 . S
C359 C358 1.378 . S
C359 H381 0.931 . S
C360 O370 1.259 1_554 S
C360 O371 1.270 . S
C361 O372 1.261 . S
C361 O373 1.235 1_556 S
O362 C342 1.257 . S
O362 Eu343 2.473 1_565 S
O363 C342 1.260 1_545 S
O363 Eu343 2.480 . S
O364 Eu343 2.430 . S
O364 C350 1.259 . S
O365 Eu343 2.731 . S
O365 C350 1.305 . S
O365 Eu353 2.314 1_544 S
O366 Eu343 2.394 1_565 S
O366 C351 1.251 . S
O367 C351 1.251 1_556 S
O367 Eu353 2.374 . S
O368 C352 1.257 . S
O368 Eu353 2.473 1_545 S
O369 C352 1.260 1_565 S
O369 Eu353 2.480 . S
O370 Eu353 2.430 . S
O370 C360 1.259 1_556 S
O371 Eu343 2.355 1_565 S
O371 Eu353 2.670 1_554 S
O371 C360 1.270 . S
O372 Eu353 2.394 1_545 S
O372 C361 1.261 . S
O373 Eu343 2.374 . S
O373 C361 1.235 1_554 S
H374 C345 0.931 1_545 S
H375 C346 0.941 . S
H376 C348 0.931 . S
H377 C349 0.931 . S
H378 C355 0.931 1_565 S
H379 C356 0.931 . S
H380 C358 0.931 . S
H381 C359 0.931 . S
C382 Eu383 2.835 1_455 S
C382 C384 1.500 . S
C382 O402 1.257 . S
C382 O403 1.260 1_455 S
Eu383 C382 2.835 1_655 S
Eu383 O402 2.473 1_655 S
Eu383 O403 2.480 . S
Eu383 O404 2.430 . S
Eu383 O405 2.670 1_554 S
Eu383 O406 2.394 1_655 S
Eu383 O411 2.355 1_655 S
Eu383 O413 2.374 . S
C384 C382 1.500 . S
C384 C385 1.377 . S
C384 C389 1.377 . S
C385 C384 1.377 . S
C385 C386 1.395 . S
C385 H414 0.931 1_455 S
C386 C385 1.395 . S
C386 C387 1.383 . S
C386 H415 0.931 . S
C387 C386 1.383 . S
C387 C388 1.394 . S
C388 C387 1.394 . S
C388 C389 1.378 . S
C388 H416 0.931 . S
C389 C384 1.377 . S
C389 C388 1.378 . S
C389 H417 0.931 . S
C390 O404 1.259 . S
C390 O405 1.270 1_554 S
C391 O406 1.251 . S
C391 O407 1.251 . S
C392 Eu393 2.835 1_655 S
C392 C394 1.500 . S
C392 O408 1.257 . S
C392 O409 1.260 1_655 S
Eu393 C392 2.835 1_455 S
Eu393 O405 2.355 1_455 S
Eu393 O407 2.374 1_556 S
Eu393 O408 2.473 1_455 S
Eu393 O409 2.480 . S
Eu393 O410 2.430 . S
Eu393 O411 2.670 1_556 S
Eu393 O412 2.394 1_455 S
C394 C392 1.500 . S
C394 C395 1.377 . S
C394 C399 1.377 . S
C395 C394 1.377 . S
C395 C396 1.395 . S
C395 H418 0.931 1_655 S
C396 C395 1.395 . S
C396 C397 1.383 . S
C396 H419 0.931 . S
C397 C396 1.383 . S
C397 C398 1.394 . S
C398 C397 1.394 . S
C398 C399 1.378 . S
C398 H420 0.931 . S
C399 C394 1.377 . S
C399 C398 1.378 . S
C399 H421 0.931 . S
C400 O410 1.259 1_554 S
C400 O411 1.270 . S
C401 O412 1.251 . S
C401 O413 1.251 1_556 S
O402 C382 1.257 . S
O402 Eu383 2.473 1_455 S
O403 C382 1.260 1_655 S
O403 Eu383 2.480 . S
O404 Eu383 2.430 . S
O404 C390 1.259 . S
O405 Eu383 2.670 1_556 S
O405 C390 1.270 1_556 S
O405 Eu393 2.355 1_655 S
O406 Eu383 2.394 1_455 S
O406 C391 1.251 . S
O407 C391 1.251 . S
O407 Eu393 2.374 1_554 S
O408 C392 1.257 . S
O408 Eu393 2.473 1_655 S
O409 C392 1.260 1_455 S
O409 Eu393 2.480 . S
O410 Eu393 2.430 . S
O410 C400 1.259 1_556 S
O411 Eu383 2.355 1_455 S
O411 Eu393 2.670 1_554 S
O411 C400 1.270 . S
O412 Eu393 2.394 1_655 S
O412 C401 1.251 . S
O413 Eu383 2.374 . S
O413 C401 1.251 1_554 S
H414 C385 0.931 1_655 S
H415 C386 0.931 . S
H416 C388 0.931 . S
H417 C389 0.931 . S
H418 C395 0.931 1_455 S
H419 C396 0.931 . S
H420 C398 0.931 . S
H421 C399 0.931 . S
C422 Eu423 2.835 . S
C422 C424 1.500 . S
C422 O442 1.257 . S
C422 O443 1.260 . S
Eu423 C422 2.835 . S
Eu423 O442 2.473 . S
Eu423 O443 2.480 . S
Eu423 O444 2.430 . S
Eu423 O445 2.670 1_556 S
Eu423 O446 2.394 . S
Eu423 O451 2.355 1_556 S
Eu423 O453 2.374 1_556 S
C424 C422 1.500 . S
C424 C425 1.377 . S
C424 C429 1.377 . S
C425 C424 1.377 . S
C425 C426 1.395 . S
C425 H454 0.931 . S
C426 C425 1.395 . S
C426 C427 1.383 . S
C426 H455 0.931 . S
C427 C426 1.383 . S
C427 C428 1.394 . S
C428 C427 1.394 . S
C428 C429 1.378 . S
C428 H456 0.931 . S
C429 C424 1.377 . S
C429 C428 1.378 . S
C429 H457 0.931 . S
C430 O444 1.259 1_554 S
C430 O445 1.270 . S
C431 O446 1.251 1_554 S
C431 O447 1.251 . S
C432 Eu433 2.835 . S
C432 C434 1.500 . S
C432 O448 1.257 . S
C432 O449 1.260 . S
Eu433 C432 2.835 . S
Eu433 O445 2.355 . S
Eu433 O447 2.374 . S
Eu433 O448 2.473 . S
Eu433 O449 2.480 . S
Eu433 O450 2.430 . S
Eu433 O451 2.670 . S
Eu433 O452 2.394 . S
C434 C432 1.500 . S
C434 C435 1.377 . S
C434 C439 1.377 . S
C435 C434 1.377 . S
C435 C436 1.395 . S
C435 H458 0.931 . S
C436 C435 1.395 . S
C436 C437 1.383 . S
C436 H459 0.931 . S
C437 C436 1.383 . S
C437 C438 1.394 . S
C438 C437 1.394 . S
C438 C439 1.378 . S
C438 H460 0.931 . S
C439 C434 1.377 . S
C439 C438 1.378 . S
C439 H461 0.931 . S
C440 O450 1.259 . S
C440 O451 1.270 . S
C441 O452 1.251 . S
C441 O453 1.251 . S
O442 C422 1.257 . S
O442 Eu423 2.473 . S
O443 C422 1.260 . S
O443 Eu423 2.480 . S
O444 Eu423 2.430 . S
O444 C430 1.259 1_556 S
O445 Eu423 2.670 1_554 S
O445 C430 1.270 . S
O445 Eu433 2.355 . S
O446 Eu423 2.394 . S
O446 C431 1.251 1_556 S
O447 C431 1.251 . S
O447 Eu433 2.374 . S
O448 C432 1.257 . S
O448 Eu433 2.473 . S
O449 C432 1.260 . S
O449 Eu433 2.480 . S
O450 Eu433 2.430 . S
O450 C440 1.259 . S
O451 Eu423 2.355 1_554 S
O451 Eu433 2.670 . S
O451 C440 1.270 . S
O452 Eu433 2.394 . S
O452 C441 1.251 . S
O453 Eu423 2.374 1_554 S
O453 C441 1.251 . S
H454 C425 0.931 . S
H455 C426 0.931 . S
H456 C428 0.931 . S
H457 C429 0.931 . S
H458 C435 0.931 . S
H459 C436 0.931 . S
H460 C438 0.931 . S
H461 C439 0.931 . S
C462 Eu463 2.835 . S
C462 C464 1.500 . S
C462 O482 1.257 . S
C462 O483 1.260 . S
Eu463 C462 2.835 . S
Eu463 O482 2.473 . S
Eu463 O483 2.480 . S
Eu463 O484 2.430 . S
Eu463 O485 2.670 . S
Eu463 O486 2.394 . S
Eu463 O491 2.355 . S
Eu463 O493 2.374 . S
C464 C462 1.500 . S
C464 C465 1.377 . S
C464 C469 1.377 . S
C465 C464 1.377 . S
C465 C466 1.395 . S
C465 H494 0.931 . S
C466 C465 1.395 . S
C466 C467 1.383 . S
C466 H495 0.931 . S
C467 C466 1.383 . S
C467 C468 1.394 . S
C468 C467 1.394 . S
C468 C469 1.378 . S
C468 H496 0.931 . S
C469 C464 1.377 . S
C469 C468 1.378 . S
C469 H497 0.931 . S
C470 O484 1.259 . S
C470 O485 1.270 . S
C471 O486 1.251 . S
C471 O487 1.251 . S
C472 Eu473 2.835 . S
C472 C474 1.500 . S
C472 O488 1.257 . S
C472 O489 1.260 . S
Eu473 C472 2.835 . S
Eu473 O485 2.355 . S
Eu473 O487 2.374 . S
Eu473 O488 2.473 . S
Eu473 O489 2.480 . S
Eu473 O490 2.430 . S
Eu473 O491 2.670 . S
Eu473 O492 2.394 . S
C474 C472 1.500 . S
C474 C475 1.377 . S
C474 C479 1.377 . S
C475 C474 1.377 . S
C475 C476 1.395 . S
C475 H498 0.931 . S
C476 C475 1.395 . S
C476 C477 1.383 . S
C476 H499 0.931 . S
C477 C476 1.383 . S
C477 C478 1.394 . S
C478 C477 1.394 . S
C478 C479 1.378 . S
C478 H500 0.931 . S
C479 C474 1.377 . S
C479 C478 1.378 . S
C479 H501 0.931 . S
C480 O490 1.259 . S
C480 O491 1.270 . S
C481 O492 1.251 . S
C481 O493 1.251 . S
O482 C462 1.257 . S
O482 Eu463 2.473 . S
O483 C462 1.260 . S
O483 Eu463 2.480 . S
O484 Eu463 2.430 . S
O484 C470 1.259 . S
O485 Eu463 2.670 . S
O485 C470 1.270 . S
O485 Eu473 2.355 . S
O486 Eu463 2.394 . S
O486 C471 1.251 . S
O487 C471 1.251 . S
O487 Eu473 2.374 . S
O488 C472 1.257 . S
O488 Eu473 2.473 . S
O489 C472 1.260 . S
O489 Eu473 2.480 . S
O490 Eu473 2.430 . S
O490 C480 1.259 . S
O491 Eu463 2.355 . S
O491 Eu473 2.670 . S
O491 C480 1.270 . S
O492 Eu473 2.394 . S
O492 C481 1.251 . S
O493 Eu463 2.374 . S
O493 C481 1.251 . S
H494 C465 0.931 . S
H495 C466 0.931 . S
H496 C468 0.931 . S
H497 C469 0.931 . S
H498 C475 0.931 . S
H499 C476 0.931 . S
H500 C478 0.931 . S
H501 C479 0.931 . S
C502 Eu503 2.835 . S
C502 C504 1.500 . S
C502 O522 1.257 . S
C502 O523 1.260 . S
Eu503 C502 2.835 . S
Eu503 O522 2.473 . S
Eu503 O523 2.480 . S
Eu503 O524 2.430 . S
Eu503 O525 2.670 . S
Eu503 O526 2.394 . S
Eu503 O531 2.355 . S
Eu503 O533 2.374 . S
C504 C502 1.500 . S
C504 C505 1.377 . S
C504 C509 1.377 . S
C505 C504 1.377 . S
C505 C506 1.395 . S
C505 H534 0.931 . S
C506 C505 1.395 . S
C506 C507 1.383 . S
C506 H535 0.931 . S
C507 C506 1.383 . S
C507 C508 1.394 . S
C508 C507 1.394 . S
C508 C509 1.378 . S
C508 H536 0.931 . S
C509 C504 1.377 . S
C509 C508 1.378 . S
C509 H537 0.931 . S
C510 O524 1.259 . S
C510 O525 1.270 . S
C511 O526 1.251 . S
C511 O527 1.251 . S
C512 Eu513 2.835 . S
C512 C514 1.500 . S
C512 O528 1.257 . S
C512 O529 1.260 . S
Eu513 C512 2.835 . S
Eu513 O525 2.355 . S
Eu513 O527 2.374 . S
Eu513 O528 2.473 . S
Eu513 O529 2.480 . S
Eu513 O530 2.430 . S
Eu513 O531 2.670 . S
Eu513 O532 2.394 . S
C514 C512 1.500 . S
C514 C515 1.377 . S
C514 C519 1.377 . S
C515 C514 1.377 . S
C515 C516 1.395 . S
C515 H538 0.931 . S
C516 C515 1.395 . S
C516 C517 1.383 . S
C516 H539 0.931 . S
C517 C516 1.383 . S
C517 C518 1.394 . S
C518 C517 1.394 . S
C518 C519 1.378 . S
C518 H540 0.931 . S
C519 C514 1.377 . S
C519 C518 1.378 . S
C519 H541 0.931 . S
C520 O530 1.259 . S
C520 O531 1.270 . S
C521 O532 1.251 . S
C521 O533 1.251 . S
O522 C502 1.257 . S
O522 Eu503 2.473 . S
O523 C502 1.260 . S
O523 Eu503 2.480 . S
O524 Eu503 2.430 . S
O524 C510 1.259 . S
O525 Eu503 2.670 . S
O525 C510 1.270 . S
O525 Eu513 2.355 . S
O526 Eu503 2.394 . S
O526 C511 1.251 . S
O527 C511 1.251 . S
O527 Eu513 2.374 . S
O528 C512 1.257 . S
O528 Eu513 2.473 . S
O529 C512 1.260 . S
O529 Eu513 2.480 . S
O530 Eu513 2.430 . S
O530 C520 1.259 . S
O531 Eu503 2.355 . S
O531 Eu513 2.670 . S
O531 C520 1.270 . S
O532 Eu513 2.394 . S
O532 C521 1.251 . S
O533 Eu503 2.374 . S
O533 C521 1.251 . S
H534 C505 0.931 . S
H535 C506 0.931 . S
H536 C508 0.931 . S
H537 C509 0.931 . S
H538 C515 0.931 . S
H539 C516 0.931 . S
H540 C518 0.931 . S
H541 C519 0.931 . S
C542 Eu543 2.835 . S
C542 C544 1.500 . S
C542 O562 1.257 . S
C542 O563 1.260 . S
Eu543 C542 2.835 . S
Eu543 O562 2.473 . S
Eu543 O563 2.480 . S
Eu543 O564 2.430 . S
Eu543 O565 2.670 . S
Eu543 O566 2.394 . S
Eu543 O571 2.355 . S
Eu543 O573 2.374 . S
C544 C542 1.500 . S
C544 C545 1.377 . S
C544 C549 1.377 . S
C545 C544 1.377 . S
C545 C546 1.395 . S
C545 H574 0.931 . S
C546 C545 1.395 . S
C546 C547 1.383 . S
C546 H575 0.931 . S
C547 C546 1.383 . S
C547 C548 1.394 . S
C548 C547 1.394 . S
C548 C549 1.378 . S
C548 H576 0.931 . S
C549 C544 1.377 . S
C549 C548 1.378 . S
C549 H577 0.931 . S
C550 O564 1.259 . S
C550 O565 1.270 . S
C551 O566 1.251 . S
C551 O567 1.251 . S
C552 Eu553 2.835 . S
C552 C554 1.500 . S
C552 O568 1.257 . S
C552 O569 1.260 . S
Eu553 C552 2.835 . S
Eu553 O565 2.355 . S
Eu553 O567 2.374 . S
Eu553 O568 2.473 . S
Eu553 O569 2.480 . S
Eu553 O570 2.430 . S
Eu553 O571 2.670 . S
Eu553 O572 2.394 . S
C554 C552 1.500 . S
C554 C555 1.377 . S
C554 C559 1.377 . S
C555 C554 1.377 . S
C555 C556 1.395 . S
C555 H578 0.931 . S
C556 C555 1.395 . S
C556 C557 1.383 . S
C556 H579 0.931 . S
C557 C556 1.383 . S
C557 C558 1.394 . S
C558 C557 1.394 . S
C558 C559 1.378 . S
C558 H580 0.931 . S
C559 C554 1.377 . S
C559 C558 1.378 . S
C559 H581 0.931 . S
C560 O570 1.259 . S
C560 O571 1.270 . S
C561 O572 1.251 . S
C561 O573 1.251 . S
O562 C542 1.257 . S
O562 Eu543 2.473 . S
O563 C542 1.260 . S
O563 Eu543 2.480 . S
O564 Eu543 2.430 . S
O564 C550 1.259 . S
O565 Eu543 2.670 . S
O565 C550 1.270 . S
O565 Eu553 2.355 . S
O566 Eu543 2.394 . S
O566 C551 1.251 . S
O567 C551 1.251 . S
O567 Eu553 2.374 . S
O568 C552 1.257 . S
O568 Eu553 2.473 . S
O569 C552 1.260 . S
O569 Eu553 2.480 . S
O570 Eu553 2.430 . S
O570 C560 1.259 . S
O571 Eu543 2.355 . S
O571 Eu553 2.670 . S
O571 C560 1.270 . S
O572 Eu553 2.394 . S
O572 C561 1.251 . S
O573 Eu543 2.374 . S
O573 C561 1.251 . S
H574 C545 0.931 . S
H575 C546 0.931 . S
H576 C548 0.931 . S
H577 C549 0.931 . S
H578 C555 0.931 . S
H579 C556 0.931 . S
H580 C558 0.931 . S
H581 C559 0.931 . S
C582 Eu583 2.835 . S
C582 C584 1.500 . S
C582 O602 1.257 . S
C582 O603 1.260 . S
Eu583 C582 2.835 . S
Eu583 O602 2.473 . S
Eu583 O603 2.480 . S
Eu583 O604 2.430 . S
Eu583 O605 2.670 . S
Eu583 O606 2.394 . S
Eu583 O611 2.355 . S
Eu583 O613 2.374 . S
C584 C582 1.500 . S
C584 C585 1.377 . S
C584 C589 1.377 . S
C585 C584 1.377 . S
C585 C586 1.395 . S
C585 H614 0.931 . S
C586 C585 1.395 . S
C586 C587 1.383 . S
C586 H615 0.931 . S
C587 C586 1.383 . S
C587 C588 1.394 . S
C588 C587 1.394 . S
C588 C589 1.378 . S
C588 H616 0.931 . S
C589 C584 1.377 . S
C589 C588 1.378 . S
C589 H617 0.931 . S
C590 O604 1.259 . S
C590 O605 1.270 . S
C591 O606 1.251 . S
C591 O607 1.251 . S
C592 Eu593 2.835 . S
C592 C594 1.500 . S
C592 O608 1.257 . S
C592 O609 1.260 . S
Eu593 C592 2.835 . S
Eu593 O605 2.355 . S
Eu593 O607 2.374 . S
Eu593 O608 2.473 . S
Eu593 O609 2.480 . S
Eu593 O610 2.430 . S
Eu593 O611 2.670 . S
Eu593 O612 2.394 . S
C594 C592 1.500 . S
C594 C595 1.377 . S
C594 C599 1.377 . S
C595 C594 1.377 . S
C595 C596 1.395 . S
C595 H618 0.931 . S
C596 C595 1.395 . S
C596 C597 1.383 . S
C596 H619 0.931 . S
C597 C596 1.383 . S
C597 C598 1.394 . S
C598 C597 1.394 . S
C598 C599 1.378 . S
C598 H620 0.931 . S
C599 C594 1.377 . S
C599 C598 1.378 . S
C599 H621 0.931 . S
C600 O610 1.259 . S
C600 O611 1.270 . S
C601 O612 1.251 . S
C601 O613 1.251 . S
O602 C582 1.257 . S
O602 Eu583 2.473 . S
O603 C582 1.260 . S
O603 Eu583 2.480 . S
O604 Eu583 2.430 . S
O604 C590 1.259 . S
O605 Eu583 2.670 . S
O605 C590 1.270 . S
O605 Eu593 2.355 . S
O606 Eu583 2.394 . S
O606 C591 1.251 . S
O607 C591 1.251 . S
O607 Eu593 2.374 . S
O608 C592 1.257 . S
O608 Eu593 2.473 . S
O609 C592 1.260 . S
O609 Eu593 2.480 . S
O610 Eu593 2.430 . S
O610 C600 1.259 . S
O611 Eu583 2.355 . S
O611 Eu593 2.670 . S
O611 C600 1.270 . S
O612 Eu593 2.394 . S
O612 C601 1.251 . S
O613 Eu583 2.374 . S
O613 C601 1.251 . S
H614 C585 0.931 . S
H615 C586 0.931 . S
H616 C588 0.931 . S
H617 C589 0.931 . S
H618 C595 0.931 . S
H619 C596 0.931 . S
H620 C598 0.931 . S
H621 C599 0.931 . S
C622 Eu623 2.835 . S
C622 C624 1.500 . S
C622 O642 1.257 . S
C622 O643 1.260 . S
Eu623 C622 2.835 . S
Eu623 O642 2.473 . S
Eu623 O643 2.480 . S
Eu623 O644 2.430 . S
Eu623 O645 2.670 . S
Eu623 O646 2.394 . S
Eu623 O651 2.355 . S
Eu623 O653 2.374 . S
C624 C622 1.500 . S
C624 C625 1.377 . S
C624 C629 1.377 . S
C625 C624 1.377 . S
C625 C626 1.395 . S
C625 H654 0.931 . S
C626 C625 1.395 . S
C626 C627 1.383 . S
C626 H655 0.931 . S
C627 C626 1.383 . S
C627 C628 1.394 . S
C628 C627 1.394 . S
C628 C629 1.378 . S
C628 H656 0.931 . S
C629 C624 1.377 . S
C629 C628 1.378 . S
C629 H657 0.931 . S
C630 O644 1.259 . S
C630 O645 1.270 . S
C631 O646 1.251 . S
C631 O647 1.251 . S
C632 Eu633 2.835 . S
C632 C634 1.500 . S
C632 O648 1.257 . S
C632 O649 1.260 . S
Eu633 C632 2.835 . S
Eu633 O645 2.355 . S
Eu633 O647 2.374 . S
Eu633 O648 2.473 . S
Eu633 O649 2.480 . S
Eu633 O650 2.430 . S
Eu633 O651 2.670 . S
Eu633 O652 2.394 . S
C634 C632 1.500 . S
C634 C635 1.377 . S
C634 C639 1.377 . S
C635 C634 1.377 . S
C635 C636 1.395 . S
C635 H658 0.931 . S
C636 C635 1.395 . S
C636 C637 1.383 . S
C636 H659 0.931 . S
C637 C636 1.383 . S
C637 C638 1.394 . S
C638 C637 1.394 . S
C638 C639 1.378 . S
C638 H660 0.931 . S
C639 C634 1.377 . S
C639 C638 1.378 . S
C639 H661 0.931 . S
C640 O650 1.259 . S
C640 O651 1.270 . S
C641 O652 1.251 . S
C641 O653 1.251 . S
O642 C622 1.257 . S
O642 Eu623 2.473 . S
O643 C622 1.260 . S
O643 Eu623 2.480 . S
O644 Eu623 2.430 . S
O644 C630 1.259 . S
O645 Eu623 2.670 . S
O645 C630 1.270 . S
O645 Eu633 2.355 . S
O646 Eu623 2.394 . S
O646 C631 1.251 . S
O647 C631 1.251 . S
O647 Eu633 2.374 . S
O648 C632 1.257 . S
O648 Eu633 2.473 . S
O649 C632 1.260 . S
O649 Eu633 2.480 . S
O650 Eu633 2.430 . S
O650 C640 1.259 . S
O651 Eu623 2.355 . S
O651 Eu633 2.670 . S
O651 C640 1.270 . S
O652 Eu633 2.394 . S
O652 C641 1.251 . S
O653 Eu623 2.374 . S
O653 C641 1.251 . S
H654 C625 0.931 . S
H655 C626 0.931 . S
H656 C628 0.931 . S
H657 C629 0.931 . S
H658 C635 0.931 . S
H659 C636 0.931 . S
H660 C638 0.931 . S
H661 C639 0.931 . S
C662 Eu663 2.835 . S
C662 C664 1.500 . S
C662 O682 1.257 . S
C662 O683 1.260 . S
Eu663 C662 2.835 . S
Eu663 O682 2.473 . S
Eu663 O683 2.480 . S
Eu663 O684 2.430 . S
Eu663 O685 2.670 . S
Eu663 O686 2.394 . S
Eu663 O691 2.355 . S
Eu663 O693 2.374 . S
C664 C662 1.500 . S
C664 C665 1.377 . S
C664 C669 1.377 . S
C665 C664 1.377 . S
C665 C666 1.395 . S
C665 H694 0.931 . S
C666 C665 1.395 . S
C666 C667 1.383 . S
C666 H695 0.931 . S
C667 C666 1.383 . S
C667 C668 1.394 . S
C668 C667 1.394 . S
C668 C669 1.378 . S
C668 H696 0.931 . S
C669 C664 1.377 . S
C669 C668 1.378 . S
C669 H697 0.931 . S
C670 O684 1.259 . S
C670 O685 1.270 . S
C671 O686 1.251 . S
C671 O687 1.251 . S
C672 Eu673 2.835 . S
C672 C674 1.500 . S
C672 O688 1.257 . S
C672 O689 1.260 . S
Eu673 C672 2.835 . S
Eu673 O685 2.355 . S
Eu673 O687 2.374 . S
Eu673 O688 2.473 . S
Eu673 O689 2.480 . S
Eu673 O690 2.430 . S
Eu673 O691 2.670 . S
Eu673 O692 2.394 . S
C674 C672 1.500 . S
C674 C675 1.377 . S
C674 C679 1.377 . S
C675 C674 1.377 . S
C675 C676 1.395 . S
C675 H698 0.931 . S
C676 C675 1.395 . S
C676 C677 1.383 . S
C676 H699 0.931 . S
C677 C676 1.383 . S
C677 C678 1.394 . S
C678 C677 1.394 . S
C678 C679 1.378 . S
C678 H700 0.931 . S
C679 C674 1.377 . S
C679 C678 1.378 . S
C679 H701 0.931 . S
C680 O690 1.259 . S
C680 O691 1.270 . S
C681 O692 1.251 . S
C681 O693 1.251 . S
O682 C662 1.257 . S
O682 Eu663 2.473 . S
O683 C662 1.260 . S
O683 Eu663 2.480 . S
O684 Eu663 2.430 . S
O684 C670 1.259 . S
O685 Eu663 2.670 . S
O685 C670 1.270 . S
O685 Eu673 2.355 . S
O686 Eu663 2.394 . S
O686 C671 1.251 . S
O687 C671 1.251 . S
O687 Eu673 2.374 . S
O688 C672 1.257 . S
O688 Eu673 2.473 . S
O689 C672 1.260 . S
O689 Eu673 2.480 . S
O690 Eu673 2.430 . S
O690 C680 1.259 . S
O691 Eu663 2.355 . S
O691 Eu673 2.670 . S
O691 C680 1.270 . S
O692 Eu673 2.394 . S
O692 C681 1.251 . S
O693 Eu663 2.374 . S
O693 C681 1.251 . S
H694 C665 0.931 . S
H695 C666 0.931 . S
H696 C668 0.931 . S
H697 C669 0.931 . S
H698 C675 0.931 . S
H699 C676 0.931 . S
H700 C678 0.931 . S
H701 C679 0.931 . S
H702 C710 0.929 . S
H703 C712 0.930 . S
H704 C714 0.930 . S
H705 C717 0.929 . S
H706 C720 0.930 . S
H707 C722 0.960 . S
H708 C722 0.960 . S
H709 C722 0.960 . S
C710 H702 0.929 . S
C710 C711 1.377 . S
C710 C712 1.384 . S
C711 C710 1.377 . S
C711 C717 1.390 . S
C712 H703 0.930 . S
C712 C710 1.384 . S
C712 C713 1.372 . S
C713 C712 1.372 . S
C713 C714 1.400 . S
C713 C718 1.490 . S
C714 H704 0.930 . S
C714 C713 1.400 . S
C714 C717 1.386 . S
H715 C731 0.930 1_556 S
H716 C732 0.935 1_556 S
C717 H705 0.929 . S
C717 C711 1.390 . S
C717 C714 1.386 . S
C718 C713 1.490 . S
C718 C720 1.395 . S
C718 C721 1.403 . S
H719 C725 0.930 . S
C720 H706 0.930 . S
C720 C718 1.395 . S
C720 C723 1.403 . S
C721 C718 1.403 . S
C721 C722 1.524 . S
C721 C725 1.400 . S
C722 H707 0.960 . S
C722 H708 0.960 . S
C722 H709 0.960 . S
C722 C721 1.524 . S
C723 C720 1.403 . S
C723 C724 1.392 . S
C723 C727 1.495 . S
C724 C723 1.392 . S
C724 C725 1.385 . S
C724 C726 1.478 . S
C725 H719 0.930 . S
C725 C721 1.400 . S
C725 C724 1.385 . S
C726 C724 1.478 . S
C726 C728 1.381 . S
C726 C732 1.383 . S
C727 C723 1.495 . S
C727 H733 0.959 . S
C727 H734 0.961 . S
C727 H735 0.960 . S
C728 C726 1.381 . S
C728 C729 1.394 . S
C728 H736 0.930 . S
C729 C728 1.394 . S
C729 C730 1.383 . S
C729 H737 0.929 . S
C730 C729 1.383 . S
C730 C731 1.377 . S
C731 H715 0.930 1_554 S
C731 C730 1.377 . S
C731 C732 1.379 . S
C732 H716 0.935 1_554 S
C732 C726 1.383 . S
C732 C731 1.379 . S
H733 C727 0.959 . S
H734 C727 0.961 . S
H735 C727 0.960 . S
H736 C728 0.930 . S
H737 C729 0.929 . S
H738 C746 0.929 . S
H739 C748 0.930 . S
H740 C750 0.930 . S
H741 C753 0.929 . S
H742 C756 0.930 . S
H743 C758 0.960 . S
H744 C758 0.960 . S
H745 C758 0.960 . S
C746 H738 0.929 . S
C746 C747 1.377 . S
C746 C748 1.384 . S
C747 C746 1.377 . S
C747 C753 1.390 . S
C748 H739 0.930 . S
C748 C746 1.384 . S
C748 C749 1.372 . S
C749 C748 1.372 . S
C749 C750 1.400 . S
C749 C754 1.490 . S
C750 H740 0.930 . S
C750 C749 1.400 . S
C750 C753 1.386 . S
H751 C767 0.930 . S
H752 C768 0.931 . S
C753 H741 0.929 . S
C753 C747 1.390 . S
C753 C750 1.386 . S
C754 C749 1.490 . S
C754 C756 1.395 . S
C754 C757 1.403 . S
H755 C761 0.930 . S
C756 H742 0.930 . S
C756 C754 1.395 . S
C756 C759 1.403 . S
C757 C754 1.403 . S
C757 C758 1.524 . S
C757 C761 1.400 . S
C758 H743 0.960 . S
C758 H744 0.960 . S
C758 H745 0.960 . S
C758 C757 1.524 . S
C759 C756 1.403 . S
C759 C760 1.392 . S
C759 C763 1.495 . S
C760 C759 1.392 . S
C760 C761 1.385 . S
C760 C762 1.478 . S
C761 H755 0.930 . S
C761 C757 1.400 . S
C761 C760 1.385 . S
C762 C760 1.478 . S
C762 C764 1.381 . S
C762 C768 1.383 . S
C763 C759 1.495 . S
C763 H769 0.959 . S
C763 H770 0.961 . S
C763 H771 0.960 . S
C764 C762 1.381 . S
C764 C765 1.394 . S
C764 H772 0.930 . S
C765 C764 1.394 . S
C765 C766 1.383 . S
C765 H773 0.929 . S
C766 C765 1.383 . S
C766 C767 1.377 . S
C767 H751 0.930 . S
C767 C766 1.377 . S
C767 C768 1.379 . S
C768 H752 0.931 . S
C768 C762 1.383 . S
C768 C767 1.379 . S
H769 C763 0.959 . S
H770 C763 0.961 . S
H771 C763 0.960 . S
H772 C764 0.930 . S
H773 C765 0.929 . S
H774 C782 0.929 . S
H775 C784 0.930 . S
H776 C786 0.930 . S
H777 C789 0.929 . S
H778 C792 0.930 . S
H779 C794 0.960 . S
H780 C794 0.960 . S
H781 C794 0.960 . S
C782 H774 0.929 . S
C782 C783 1.377 . S
C782 C784 1.384 . S
C783 C782 1.377 . S
C783 C789 1.390 . S
C784 H775 0.930 . S
C784 C782 1.384 . S
C784 C785 1.372 . S
C785 C784 1.372 . S
C785 C786 1.400 . S
C785 C790 1.490 . S
C786 H776 0.930 . S
C786 C785 1.400 . S
C786 C789 1.386 . S
H787 C803 0.930 . S
H788 C804 0.931 . S
C789 H777 0.929 . S
C789 C783 1.390 . S
C789 C786 1.386 . S
C790 C785 1.490 . S
C790 C792 1.395 . S
C790 C793 1.403 . S
H791 C797 0.930 . S
C792 H778 0.930 . S
C792 C790 1.395 . S
C792 C795 1.403 . S
C793 C790 1.403 . S
C793 C794 1.524 . S
C793 C797 1.400 . S
C794 H779 0.960 . S
C794 H780 0.960 . S
C794 H781 0.960 . S
C794 C793 1.524 . S
C795 C792 1.403 . S
C795 C796 1.392 . S
C795 C799 1.495 . S
C796 C795 1.392 . S
C796 C797 1.385 . S
C796 C798 1.478 . S
C797 H791 0.930 . S
C797 C793 1.400 . S
C797 C796 1.385 . S
C798 C796 1.478 . S
C798 C800 1.381 . S
C798 C804 1.383 . S
C799 C795 1.495 . S
C799 H805 0.959 . S
C799 H806 0.961 . S
C799 H807 0.960 . S
C800 C798 1.381 . S
C800 C801 1.394 . S
C800 H808 0.930 1_554 S
C801 C800 1.394 . S
C801 C802 1.383 . S
C801 H809 0.929 1_554 S
C802 C801 1.383 . S
C802 C803 1.377 . S
C803 H787 0.930 . S
C803 C802 1.377 . S
C803 C804 1.379 . S
C804 H788 0.931 . S
C804 C798 1.383 . S
C804 C803 1.379 . S
H805 C799 0.959 . S
H806 C799 0.961 . S
H807 C799 0.960 . S
H808 C800 0.930 1_556 S
H809 C801 0.929 1_556 S
H810 C818 0.929 . S
H811 C820 0.930 . S
H812 C822 0.930 . S
H813 C825 0.929 . S
H814 C828 0.930 . S
H815 C830 0.960 . S
H816 C830 0.960 . S
H817 C830 0.960 1_556 S
C818 H810 0.929 . S
C818 C819 1.377 . S
C818 C820 1.384 . S
C819 C818 1.377 . S
C819 C825 1.390 . S
C820 H811 0.930 . S
C820 C818 1.384 . S
C820 C821 1.372 . S
C821 C820 1.372 . S
C821 C822 1.400 . S
C821 C826 1.490 . S
C822 H812 0.930 . S
C822 C821 1.400 . S
C822 C825 1.386 . S
H823 C839 0.930 . S
H824 C840 0.931 . S
C825 H813 0.929 . S
C825 C819 1.390 . S
C825 C822 1.386 . S
C826 C821 1.490 . S
C826 C828 1.395 . S
C826 C829 1.403 . S
H827 C833 0.930 1_554 S
C828 H814 0.930 . S
C828 C826 1.395 . S
C828 C831 1.403 . S
C829 C826 1.403 . S
C829 C830 1.524 1_556 S
C829 C833 1.400 . S
C830 H815 0.960 . S
C830 H816 0.960 . S
C830 H817 0.960 1_554 S
C830 C829 1.524 1_554 S
C831 C828 1.403 . S
C831 C832 1.392 . S
C831 C835 1.495 . S
C832 C831 1.392 . S
C832 C833 1.385 . S
C832 C834 1.478 . S
C833 H827 0.930 1_556 S
C833 C829 1.400 . S
C833 C832 1.385 . S
C834 C832 1.478 . S
C834 C836 1.381 . S
C834 C840 1.383 . S
C835 C831 1.495 . S
C835 H841 0.959 . S
C835 H842 0.961 . S
C835 H843 0.960 . S
C836 C834 1.381 . S
C836 C837 1.388 1_556 S
C836 H844 0.945 . S
C837 C836 1.388 1_554 S
C837 C838 1.367 1_554 S
C837 H845 0.958 . S
C838 C837 1.367 1_556 S
C838 C839 1.377 . S
C839 H823 0.930 . S
C839 C838 1.377 . S
C839 C840 1.379 . S
C840 H824 0.931 . S
C840 C834 1.383 . S
C840 C839 1.379 . S
H841 C835 0.959 . S
H842 C835 0.961 . S
H843 C835 0.960 . S
H844 C836 0.945 . S
H845 C837 0.958 . S
H846 C854 0.929 . S
H847 C856 0.930 . S
H848 C858 0.930 . S
H849 C861 0.929 . S
H850 C864 0.930 . S
H851 C866 0.960 . S
H852 C866 0.960 . S
H853 C866 0.960 . S
C854 H846 0.929 . S
C854 C855 1.377 . S
C854 C856 1.384 . S
C855 C854 1.377 . S
C855 C861 1.390 . S
C856 H847 0.930 . S
C856 C854 1.384 . S
C856 C857 1.372 . S
C857 C856 1.372 . S
C857 C858 1.400 . S
C857 C862 1.490 . S
C858 H848 0.930 . S
C858 C857 1.400 . S
C858 C861 1.386 . S
H859 C875 0.930 . S
H860 C876 0.931 . S
C861 H849 0.929 . S
C861 C855 1.390 . S
C861 C858 1.386 . S
C862 C857 1.490 . S
C862 C864 1.395 . S
C862 C865 1.403 . S
H863 C869 0.930 . S
C864 H850 0.930 . S
C864 C862 1.395 . S
C864 C867 1.403 . S
C865 C862 1.403 . S
C865 C866 1.524 . S
C865 C869 1.400 . S
C866 H851 0.960 . S
C866 H852 0.960 . S
C866 H853 0.960 . S
C866 C865 1.524 . S
C867 C864 1.403 . S
C867 C868 1.392 . S
C867 C871 1.495 1_556 S
C868 C867 1.392 . S
C868 C869 1.385 . S
C868 C870 1.478 . S
C869 H863 0.930 . S
C869 C865 1.400 . S
C869 C868 1.385 . S
C870 C868 1.478 . S
C870 C872 1.381 . S
C870 C876 1.383 . S
C871 C867 1.495 1_554 S
C871 H877 0.959 . S
C871 H878 0.961 . S
C871 H879 0.960 . S
C872 C870 1.381 . S
C872 C873 1.394 . S
C872 H880 0.930 . S
C873 C872 1.394 . S
C873 C874 1.383 . S
C873 H881 0.929 . S
C874 C873 1.383 . S
C874 C875 1.377 . S
C875 H859 0.930 . S
C875 C874 1.377 . S
C875 C876 1.379 . S
C876 H860 0.931 . S
C876 C870 1.383 . S
C876 C875 1.379 . S
H877 C871 0.959 . S
H878 C871 0.961 . S
H879 C871 0.960 . S
H880 C872 0.930 . S
H881 C873 0.929 . S
H882 C890 0.929 . S
H883 C892 0.930 . S
H884 C894 0.930 . S
H885 C897 0.929 . S
H886 C900 0.930 . S
H887 C902 0.960 . S
H888 C902 0.960 . S
H889 C902 0.960 . S
C890 H882 0.929 . S
C890 C891 1.377 . S
C890 C892 1.384 . S
C891 C890 1.377 . S
C891 C897 1.390 . S
C892 H883 0.930 . S
C892 C890 1.384 . S
C892 C893 1.372 . S
C893 C892 1.372 . S
C893 C894 1.400 . S
C893 C898 1.490 . S
C894 H884 0.930 . S
C894 C893 1.400 . S
C894 C897 1.386 . S
H895 C911 0.930 . S
H896 C912 0.931 . S
C897 H885 0.929 . S
C897 C891 1.390 . S
C897 C894 1.386 . S
C898 C893 1.490 . S
C898 C900 1.395 1_556 S
C898 C901 1.403 . S
H899 C905 0.930 . S
C900 H886 0.930 . S
C900 C898 1.395 1_554 S
C900 C903 1.403 . S
C901 C898 1.403 . S
C901 C902 1.524 . S
C901 C905 1.400 . S
C902 H887 0.960 . S
C902 H888 0.960 . S
C902 H889 0.960 . S
C902 C901 1.524 . S
C903 C900 1.403 . S
C903 C904 1.390 1_554 S
C903 C907 1.495 . S
C904 C903 1.390 1_556 S
C904 C905 1.388 . S
C904 C906 1.477 1_556 S
C905 H899 0.930 . S
C905 C901 1.400 . S
C905 C904 1.388 . S
C906 C904 1.477 1_554 S
C906 C908 1.381 . S
C906 C912 1.383 . S
C907 C903 1.495 . S
C907 H913 0.959 . S
C907 H914 0.961 . S
C907 H915 0.960 . S
C908 C906 1.381 . S
C908 C909 1.394 . S
C908 H916 0.930 . S
C909 C908 1.394 . S
C909 C910 1.383 . S
C909 H917 0.929 . S
C910 C909 1.383 . S
C910 C911 1.377 . S
C911 H895 0.930 . S
C911 C910 1.377 . S
C911 C912 1.379 . S
C912 H896 0.931 . S
C912 C906 1.383 . S
C912 C911 1.379 . S
H913 C907 0.959 . S
H914 C907 0.961 . S
H915 C907 0.960 . S
H916 C908 0.930 . S
H917 C909 0.929 . S
H918 C926 0.929 . S
H919 C928 0.930 . S
H920 C930 0.930 . S
H921 C933 0.929 . S
H922 C936 0.930 . S
H923 C938 0.971 . S
H924 C938 0.960 1_554 S
H925 C938 0.960 . S
C926 H918 0.929 . S
C926 C927 1.377 . S
C926 C928 1.384 . S
C927 C926 1.377 . S
C927 C933 1.390 . S
C928 H919 0.930 . S
C928 C926 1.384 . S
C928 C929 1.372 . S
C929 C928 1.372 . S
C929 C930 1.400 . S
C929 C934 1.490 . S
C930 H920 0.930 . S
C930 C929 1.400 . S
C930 C933 1.386 . S
H931 C947 0.930 . S
H932 C948 0.931 . S
C933 H921 0.929 . S
C933 C927 1.390 . S
C933 C930 1.386 . S
C934 C929 1.490 . S
C934 C936 1.395 . S
C934 C937 1.403 . S
H935 C941 0.930 . S
C936 H922 0.930 . S
C936 C934 1.395 . S
C936 C939 1.403 . S
C937 C934 1.403 . S
C937 C938 1.524 . S
C937 C941 1.400 . S
C938 H923 0.971 . S
C938 H924 0.960 1_556 S
C938 H925 0.960 . S
C938 C937 1.524 . S
C939 C936 1.403 . S
C939 C940 1.392 . S
C939 C943 1.495 . S
C940 C939 1.392 . S
C940 C941 1.385 . S
C940 C942 1.478 . S
C941 H935 0.930 . S
C941 C937 1.400 . S
C941 C940 1.385 . S
C942 C940 1.478 . S
C942 C944 1.381 1_556 S
C942 C948 1.383 . S
C943 C939 1.495 . S
C943 H949 0.959 . S
C943 H950 0.961 . S
C943 H951 0.960 . S
C944 C942 1.381 1_554 S
C944 C945 1.394 . S
C944 H952 0.930 . S
C945 C944 1.394 . S
C945 C946 1.383 1_554 S
C945 H953 0.929 . S
C946 C945 1.383 1_556 S
C946 C947 1.377 . S
C947 H931 0.930 . S
C947 C946 1.377 . S
C947 C948 1.379 . S
C948 H932 0.931 . S
C948 C942 1.383 . S
C948 C947 1.379 . S
H949 C943 0.959 . S
H950 C943 0.961 . S
H951 C943 0.960 . S
H952 C944 0.930 . S
H953 C945 0.929 . S
H954 C962 0.929 . S
H955 C964 0.930 . S
H956 C966 0.930 . S
H957 C969 0.929 . S
H958 C972 0.930 . S
H959 C974 0.960 . S
H960 C974 0.960 . S
H961 C974 0.960 . S
C962 H954 0.929 . S
C962 C963 1.377 . S
C962 C964 1.384 . S
C963 C962 1.377 . S
C963 C969 1.390 . S
C964 H955 0.930 . S
C964 C962 1.384 . S
C964 C965 1.372 . S
C965 C964 1.372 . S
C965 C966 1.400 . S
C965 C970 1.490 . S
C966 H956 0.930 . S
C966 C965 1.400 . S
C966 C969 1.386 . S
H967 C983 0.930 . S
H968 C984 0.931 . S
C969 H957 0.929 . S
C969 C963 1.390 . S
C969 C966 1.386 . S
C970 C965 1.490 . S
C970 C972 1.395 . S
C970 C973 1.403 . S
H971 C977 0.930 . S
C972 H958 0.930 . S
C972 C970 1.395 . S
C972 C975 1.403 . S
C973 C970 1.403 . S
C973 C974 1.524 . S
C973 C977 1.400 . S
C974 H959 0.960 . S
C974 H960 0.960 . S
C974 H961 0.960 . S
C974 C973 1.524 . S
C975 C972 1.403 . S
C975 C976 1.392 . S
C975 C979 1.495 1_556 S
C976 C975 1.392 . S
C976 C977 1.385 . S
C976 C978 1.478 . S
C977 H971 0.930 . S
C977 C973 1.400 . S
C977 C976 1.385 . S
C978 C976 1.478 . S
C978 C980 1.381 . S
C978 C984 1.383 . S
C979 C975 1.495 1_554 S
C979 H985 0.959 . S
C979 H986 0.961 . S
C979 H987 0.960 . S
C980 C978 1.381 . S
C980 C981 1.394 . S
C980 H988 0.930 . S
C981 C980 1.394 . S
C981 C982 1.383 . S
C981 H989 0.929 . S
C982 C981 1.383 . S
C982 C983 1.377 . S
C983 H967 0.930 . S
C983 C982 1.377 . S
C983 C984 1.379 . S
C984 H968 0.931 . S
C984 C978 1.383 . S
C984 C983 1.379 . S
H985 C979 0.959 . S
H986 C979 0.961 . S
H987 C979 0.960 . S
H988 C980 0.930 . S
H989 C981 0.929 . S
H990 C998 0.929 . S
H991 C1000 0.930 . S
H992 C1002 0.930 . S
H993 C1005 0.929 . S
H994 C1008 0.928 1_556 S
H995 C1010 0.960 . S
H996 C1010 0.960 . S
H997 C1010 0.960 . S
C998 H990 0.929 . S
C998 C999 1.377 . S
C998 C1000 1.384 . S
C999 C998 1.377 . S
C999 C1005 1.390 1_554 S
C1000 H991 0.930 . S
C1000 C998 1.384 . S
C1000 C1001 1.372 . S
C1001 C1000 1.372 . S
C1001 C1002 1.400 1_554 S
C1001 C1006 1.490 . S
C1002 H992 0.930 . S
C1002 C1001 1.400 1_556 S
C1002 C1005 1.386 . S
H1003 C1019 0.930 . S
H1004 C1020 0.931 . S
C1005 H993 0.929 . S
C1005 C999 1.390 1_556 S
C1005 C1002 1.386 . S
C1006 C1001 1.490 . S
C1006 C1008 1.397 . S
C1006 C1009 1.403 . S
H1007 C1013 0.930 . S
C1008 H994 0.928 1_554 S
C1008 C1006 1.397 . S
C1008 C1011 1.406 . S
C1009 C1006 1.403 . S
C1009 C1010 1.524 . S
C1009 C1013 1.400 . S
C1010 H995 0.960 . S
C1010 H996 0.960 . S
C1010 H997 0.960 . S
C1010 C1009 1.524 . S
C1011 C1008 1.406 . S
C1011 C1012 1.403 . S
C1011 C1015 1.483 1_554 S
C1012 C1011 1.403 . S
C1012 C1013 1.385 . S
C1012 C1014 1.478 . S
C1013 H1007 0.930 . S
C1013 C1009 1.400 . S
C1013 C1012 1.385 . S
C1014 C1012 1.478 . S
C1014 C1016 1.381 . S
C1014 C1020 1.383 1_554 S
C1015 C1011 1.483 1_556 S
C1015 H1021 0.959 . S
C1015 H1022 0.961 . S
C1015 H1023 0.960 1_556 S
C1016 C1014 1.381 . S
C1016 C1017 1.394 . S
C1016 H1024 0.930 . S
C1017 C1016 1.394 . S
C1017 C1018 1.383 . S
C1017 H1025 0.929 . S
C1018 C1017 1.383 . S
C1018 C1019 1.377 1_554 S
C1019 H1003 0.930 . S
C1019 C1018 1.377 1_556 S
C1019 C1020 1.379 . S
C1020 H1004 0.931 . S
C1020 C1014 1.383 1_556 S
C1020 C1019 1.379 . S
H1021 C1015 0.959 . S
H1022 C1015 0.961 . S
H1023 C1015 0.960 1_554 S
H1024 C1016 0.930 . S
H1025 C1017 0.929 . S
H1026 C1034 0.929 . S
H1027 C1036 0.930 . S
H1028 C1038 0.930 . S
H1029 C1041 0.929 . S
H1030 C1044 0.930 . S
H1031 C1046 0.960 . S
H1032 C1046 0.960 . S
H1033 C1046 0.960 1_554 S
C1034 H1026 0.929 . S
C1034 C1035 1.377 . S
C1034 C1036 1.384 . S
C1035 C1034 1.377 . S
C1035 C1041 1.390 . S
C1036 H1027 0.930 . S
C1036 C1034 1.384 . S
C1036 C1037 1.372 . S
C1037 C1036 1.372 . S
C1037 C1038 1.400 . S
C1037 C1042 1.490 . S
C1038 H1028 0.930 . S
C1038 C1037 1.400 . S
C1038 C1041 1.386 . S
H1039 C1055 0.930 . S
H1040 C1056 0.931 . S
C1041 H1029 0.929 . S
C1041 C1035 1.390 . S
C1041 C1038 1.386 . S
C1042 C1037 1.490 . S
C1042 C1044 1.395 . S
C1042 C1045 1.403 . S
H1043 C1049 0.930 . S
C1044 H1030 0.930 . S
C1044 C1042 1.395 . S
C1044 C1047 1.403 . S
C1045 C1042 1.403 . S
C1045 C1046 1.524 1_554 S
C1045 C1049 1.400 . S
C1046 H1031 0.960 . S
C1046 H1032 0.960 . S
C1046 H1033 0.960 1_556 S
C1046 C1045 1.524 1_556 S
C1047 C1044 1.403 . S
C1047 C1048 1.392 . S
C1047 C1051 1.495 . S
C1048 C1047 1.392 . S
C1048 C1049 1.385 . S
C1048 C1050 1.478 . S
C1049 H1043 0.930 . S
C1049 C1045 1.400 . S
C1049 C1048 1.385 . S
C1050 C1048 1.478 . S
C1050 C1052 1.381 . S
C1050 C1056 1.383 . S
C1051 C1047 1.495 . S
C1051 H1057 0.959 . S
C1051 H1058 0.961 . S
C1051 H1059 0.960 . S
C1052 C1050 1.381 . S
C1052 C1053 1.394 . S
C1052 H1060 0.930 . S
C1053 C1052 1.394 . S
C1053 C1054 1.383 . S
C1053 H1061 0.929 . S
C1054 C1053 1.383 . S
C1054 C1055 1.377 . S
C1055 H1039 0.930 . S
C1055 C1054 1.377 . S
C1055 C1056 1.379 . S
C1056 H1040 0.931 . S
C1056 C1050 1.383 . S
C1056 C1055 1.379 . S
H1057 C1051 0.959 . S
H1058 C1051 0.961 . S
H1059 C1051 0.960 . S
H1060 C1052 0.930 . S
H1061 C1053 0.929 . S
H1062 C1070 0.929 . S
H1063 C1072 0.930 . S
H1064 C1074 0.930 . S
H1065 C1077 0.929 . S
H1066 C1080 0.930 . S
H1067 C1082 0.960 . S
H1068 C1082 0.960 . S
H1069 C1082 0.960 . S
C1070 H1062 0.929 . S
C1070 C1071 1.377 . S
C1070 C1072 1.384 . S
C1071 C1070 1.377 . S
C1071 C1077 1.390 . S
C1072 H1063 0.930 . S
C1072 C1070 1.384 . S
C1072 C1073 1.372 . S
C1073 C1072 1.372 . S
C1073 C1074 1.400 . S
C1073 C1078 1.490 . S
C1074 H1064 0.930 . S
C1074 C1073 1.400 . S
C1074 C1077 1.386 . S
H1075 C1091 0.930 . S
H1076 C1092 0.931 . S
C1077 H1065 0.929 . S
C1077 C1071 1.390 . S
C1077 C1074 1.386 . S
C1078 C1073 1.490 . S
C1078 C1080 1.395 . S
C1078 C1081 1.403 . S
H1079 C1085 0.930 . S
C1080 H1066 0.930 . S
C1080 C1078 1.395 . S
C1080 C1083 1.403 . S
C1081 C1078 1.403 . S
C1081 C1082 1.524 . S
C1081 C1085 1.400 . S
C1082 H1067 0.960 . S
C1082 H1068 0.960 . S
C1082 H1069 0.960 . S
C1082 C1081 1.524 . S
C1083 C1080 1.403 . S
C1083 C1084 1.392 . S
C1083 C1087 1.495 . S
C1084 C1083 1.392 . S
C1084 C1085 1.385 . S
C1084 C1086 1.478 . S
C1085 H1079 0.930 . S
C1085 C1081 1.400 . S
C1085 C1084 1.385 . S
C1086 C1084 1.478 . S
C1086 C1088 1.381 . S
C1086 C1092 1.383 . S
C1087 C1083 1.495 . S
C1087 H1093 0.959 . S
C1087 H1094 0.961 . S
C1087 H1095 0.960 . S
C1088 C1086 1.381 . S
C1088 C1089 1.394 . S
C1088 H1096 0.930 . S
C1089 C1088 1.394 . S
C1089 C1090 1.383 . S
C1089 H1097 0.929 . S
C1090 C1089 1.383 . S
C1090 C1091 1.377 . S
C1091 H1075 0.930 . S
C1091 C1090 1.377 . S
C1091 C1092 1.379 . S
C1092 H1076 0.931 . S
C1092 C1086 1.383 . S
C1092 C1091 1.379 . S
H1093 C1087 0.959 . S
H1094 C1087 0.961 . S
H1095 C1087 0.960 . S
H1096 C1088 0.930 . S
H1097 C1089 0.929 . S
H1098 C1106 0.904 1_556 S
H1099 C1108 0.930 1_556 S
H1100 C1110 0.930 . S
H1101 C1113 0.929 . S
H1102 C1116 0.930 . S
H1103 C1118 0.960 . S
H1104 C1118 0.960 . S
H1105 C1118 0.960 . S
C1106 H1098 0.904 1_554 S
C1106 C1107 1.377 . S
C1106 C1108 1.384 . S
C1107 C1106 1.377 . S
C1107 C1113 1.390 . S
C1108 H1099 0.930 1_554 S
C1108 C1106 1.384 . S
C1108 C1109 1.372 . S
C1109 C1108 1.372 . S
C1109 C1110 1.400 . S
C1109 C1114 1.490 . S
C1110 H1100 0.930 . S
C1110 C1109 1.400 . S
C1110 C1113 1.386 . S
H1111 C1127 0.930 . S
H1112 C1128 0.931 . S
C1113 H1101 0.929 . S
C1113 C1107 1.390 . S
C1113 C1110 1.386 . S
C1114 C1109 1.490 . S
C1114 C1116 1.395 . S
C1114 C1117 1.403 . S
H1115 C1121 0.930 . S
C1116 H1102 0.930 . S
C1116 C1114 1.395 . S
C1116 C1119 1.403 . S
C1117 C1114 1.403 . S
C1117 C1118 1.524 . S
C1117 C1121 1.400 . S
C1118 H1103 0.960 . S
C1118 H1104 0.960 . S
C1118 H1105 0.960 . S
C1118 C1117 1.524 . S
C1119 C1116 1.403 . S
C1119 C1120 1.392 . S
C1119 C1123 1.495 . S
C1120 C1119 1.392 . S
C1120 C1121 1.385 . S
C1120 C1122 1.478 . S
C1121 H1115 0.930 . S
C1121 C1117 1.400 . S
C1121 C1120 1.385 . S
C1122 C1120 1.478 . S
C1122 C1124 1.381 1_554 S
C1122 C1128 1.383 . S
C1123 C1119 1.495 . S
C1123 H1129 0.959 . S
C1123 H1130 0.961 . S
C1123 H1131 0.960 . S
C1124 C1122 1.381 1_556 S
C1124 C1125 1.394 . S
C1124 H1132 0.930 . S
C1125 C1124 1.394 . S
C1125 C1126 1.383 1_556 S
C1125 H1133 0.929 . S
C1126 C1125 1.383 1_554 S
C1126 C1127 1.377 . S
C1127 H1111 0.930 . S
C1127 C1126 1.377 . S
C1127 C1128 1.379 . S
C1128 H1112 0.931 . S
C1128 C1122 1.383 . S
C1128 C1127 1.379 . S
H1129 C1123 0.959 . S
H1130 C1123 0.961 . S
H1131 C1123 0.960 . S
H1132 C1124 0.930 . S
H1133 C1125 0.929 . S
H1134 C1142 0.929 . S
H1135 C1144 0.930 . S
H1136 C1146 0.930 . S
H1137 C1149 0.929 . S
H1138 C1152 0.930 . S
H1139 C1154 0.960 1_455 S
H1140 C1154 0.960 . S
H1141 C1154 0.960 . S
C1142 H1134 0.929 . S
C1142 C1143 1.377 . S
C1142 C1144 1.384 . S
C1143 C1142 1.377 . S
C1143 C1149 1.390 . S
C1144 H1135 0.930 . S
C1144 C1142 1.384 . S
C1144 C1145 1.372 . S
C1145 C1144 1.372 . S
C1145 C1146 1.400 . S
C1145 C1150 1.490 . S
C1146 H1136 0.930 . S
C1146 C1145 1.400 . S
C1146 C1149 1.386 . S
H1147 C1163 0.930 . S
H1148 C1164 0.931 . S
C1149 H1137 0.929 . S
C1149 C1143 1.390 . S
C1149 C1146 1.386 . S
C1150 C1145 1.490 . S
C1150 C1152 1.395 . S
C1150 C1153 1.403 . S
H1151 C1157 0.930 . S
C1152 H1138 0.930 . S
C1152 C1150 1.395 . S
C1152 C1155 1.403 . S
C1153 C1150 1.403 . S
C1153 C1154 1.524 . S
C1153 C1157 1.400 1_655 S
C1154 H1139 0.960 1_655 S
C1154 H1140 0.960 . S
C1154 H1141 0.960 . S
C1154 C1153 1.524 . S
C1155 C1152 1.403 . S
C1155 C1156 1.392 1_655 S
C1155 C1159 1.495 . S
C1156 C1155 1.392 1_455 S
C1156 C1157 1.385 . S
C1156 C1158 1.478 . S
C1157 H1151 0.930 . S
C1157 C1153 1.400 1_455 S
C1157 C1156 1.385 . S
C1158 C1156 1.478 . S
C1158 C1160 1.381 . S
C1158 C1164 1.383 . S
C1159 C1155 1.495 . S
C1159 H1165 0.959 . S
C1159 H1166 0.961 . S
C1159 H1167 0.960 . S
C1160 C1158 1.381 . S
C1160 C1161 1.394 . S
C1160 H1168 0.930 . S
C1161 C1160 1.394 . S
C1161 C1162 1.383 . S
C1161 H1169 0.929 . S
C1162 C1161 1.383 . S
C1162 C1163 1.377 . S
C1163 H1147 0.930 . S
C1163 C1162 1.377 . S
C1163 C1164 1.379 . S
C1164 H1148 0.931 . S
C1164 C1158 1.383 . S
C1164 C1163 1.379 . S
H1165 C1159 0.959 . S
H1166 C1159 0.961 . S
H1167 C1159 0.960 . S
H1168 C1160 0.930 . S
H1169 C1161 0.929 . S
H1170 C1178 0.929 . S
H1171 C1180 0.930 . S
H1172 C1182 0.930 . S
H1173 C1185 0.929 . S
H1174 C1188 0.930 . S
H1175 C1190 0.960 . S
H1176 C1190 0.960 . S
H1177 C1190 0.960 . S
C1178 H1170 0.929 . S
C1178 C1179 1.377 . S
C1178 C1180 1.384 . S
C1179 C1178 1.377 . S
C1179 C1185 1.390 . S
C1180 H1171 0.930 . S
C1180 C1178 1.384 . S
C1180 C1181 1.372 . S
C1181 C1180 1.372 . S
C1181 C1182 1.400 . S
C1181 C1186 1.490 . S
C1182 H1172 0.930 . S
C1182 C1181 1.400 . S
C1182 C1185 1.386 . S
H1183 C1199 0.930 . S
H1184 C1200 0.931 . S
C1185 H1173 0.929 . S
C1185 C1179 1.390 . S
C1185 C1182 1.386 . S
C1186 C1181 1.490 . S
C1186 C1188 1.395 . S
C1186 C1189 1.403 . S
H1187 C1193 0.930 . S
C1188 H1174 0.930 . S
C1188 C1186 1.395 . S
C1188 C1191 1.403 . S
C1189 C1186 1.403 . S
C1189 C1190 1.524 . S
C1189 C1193 1.400 . S
C1190 H1175 0.960 . S
C1190 H1176 0.960 . S
C1190 H1177 0.960 . S
C1190 C1189 1.524 . S
C1191 C1188 1.403 . S
C1191 C1192 1.392 . S
C1191 C1195 1.495 . S
C1192 C1191 1.392 . S
C1192 C1193 1.385 . S
C1192 C1194 1.478 . S
C1193 H1187 0.930 . S
C1193 C1189 1.400 . S
C1193 C1192 1.385 . S
C1194 C1192 1.478 . S
C1194 C1196 1.381 . S
C1194 C1200 1.383 . S
C1195 C1191 1.495 . S
C1195 H1201 0.959 . S
C1195 H1202 0.961 . S
C1195 H1203 0.960 . S
C1196 C1194 1.381 . S
C1196 C1197 1.394 . S
C1196 H1204 0.930 . S
C1197 C1196 1.394 . S
C1197 C1198 1.383 . S
C1197 H1205 0.929 . S
C1198 C1197 1.383 . S
C1198 C1199 1.377 . S
C1199 H1183 0.930 . S
C1199 C1198 1.377 . S
C1199 C1200 1.379 . S
C1200 H1184 0.931 . S
C1200 C1194 1.383 . S
C1200 C1199 1.379 . S
H1201 C1195 0.959 . S
H1202 C1195 0.961 . S
H1203 C1195 0.960 . S
H1204 C1196 0.930 . S
H1205 C1197 0.929 . S
H1206 C1214 0.929 . S
H1207 C1216 0.930 . S
H1208 C1218 0.930 . S
H1209 C1221 0.929 . S
H1210 C1224 0.930 . S
H1211 C1226 0.960 . S
H1212 C1226 0.960 . S
H1213 C1226 0.960 . S
C1214 H1206 0.929 . S
C1214 C1215 1.377 . S
C1214 C1216 1.384 . S
C1215 C1214 1.377 . S
C1215 C1221 1.390 . S
C1216 H1207 0.930 . S
C1216 C1214 1.384 . S
C1216 C1217 1.372 . S
C1217 C1216 1.372 . S
C1217 C1218 1.400 . S
C1217 C1222 1.490 . S
C1218 H1208 0.930 . S
C1218 C1217 1.400 . S
C1218 C1221 1.386 . S
H1219 C1235 0.930 . S
H1220 C1236 0.931 . S
C1221 H1209 0.929 . S
C1221 C1215 1.390 . S
C1221 C1218 1.386 . S
C1222 C1217 1.490 . S
C1222 C1224 1.395 . S
C1222 C1225 1.403 . S
H1223 C1229 0.930 . S
C1224 H1210 0.930 . S
C1224 C1222 1.395 . S
C1224 C1227 1.403 . S
C1225 C1222 1.403 . S
C1225 C1226 1.524 . S
C1225 C1229 1.400 . S
C1226 H1211 0.960 . S
C1226 H1212 0.960 . S
C1226 H1213 0.960 . S
C1226 C1225 1.524 . S
C1227 C1224 1.403 . S
C1227 C1228 1.392 1_545 S
C1227 C1231 1.495 1_545 S
C1228 C1227 1.392 1_565 S
C1228 C1229 1.385 1_565 S
C1228 C1230 1.478 . S
C1229 H1223 0.930 . S
C1229 C1225 1.400 . S
C1229 C1228 1.385 1_545 S
C1230 C1228 1.478 . S
C1230 C1232 1.381 . S
C1230 C1236 1.383 . S
C1231 C1227 1.495 1_565 S
C1231 H1237 0.959 . S
C1231 H1238 0.961 . S
C1231 H1239 0.960 . S
C1232 C1230 1.381 . S
C1232 C1233 1.394 . S
C1232 H1240 0.930 . S
C1233 C1232 1.394 . S
C1233 C1234 1.383 . S
C1233 H1241 0.929 . S
C1234 C1233 1.383 . S
C1234 C1235 1.377 . S
C1235 H1219 0.930 . S
C1235 C1234 1.377 . S
C1235 C1236 1.379 . S
C1236 H1220 0.931 . S
C1236 C1230 1.383 . S
C1236 C1235 1.379 . S
H1237 C1231 0.959 . S
H1238 C1231 0.961 . S
H1239 C1231 0.960 . S
H1240 C1232 0.930 . S
H1241 C1233 0.929 . S
H1242 C1250 0.929 . S
H1243 C1252 0.930 . S
H1244 C1254 0.930 . S
H1245 C1257 0.929 . S
H1246 C1260 0.930 . S
H1247 C1262 0.960 . S
H1248 C1262 0.960 . S
H1249 C1262 0.960 . S
C1250 H1242 0.929 . S
C1250 C1251 1.377 . S
C1250 C1252 1.384 . S
C1251 C1250 1.377 . S
C1251 C1257 1.390 . S
C1252 H1243 0.930 . S
C1252 C1250 1.384 . S
C1252 C1253 1.372 . S
C1253 C1252 1.372 . S
C1253 C1254 1.400 . S
C1253 C1258 1.490 . S
C1254 H1244 0.930 . S
C1254 C1253 1.400 . S
C1254 C1257 1.386 . S
H1255 C1271 0.930 . S
H1256 C1272 0.931 . S
C1257 H1245 0.929 . S
C1257 C1251 1.390 . S
C1257 C1254 1.386 . S
C1258 C1253 1.490 . S
C1258 C1260 1.395 . S
C1258 C1261 1.403 . S
H1259 C1265 0.930 . S
C1260 H1246 0.930 . S
C1260 C1258 1.395 . S
C1260 C1263 1.403 . S
C1261 C1258 1.403 . S
C1261 C1262 1.524 . S
C1261 C1265 1.400 . S
C1262 H1247 0.960 . S
C1262 H1248 0.960 . S
C1262 H1249 0.960 . S
C1262 C1261 1.524 . S
C1263 C1260 1.403 . S
C1263 C1264 1.392 . S
C1263 C1267 1.495 . S
C1264 C1263 1.392 . S
C1264 C1265 1.385 . S
C1264 C1266 1.478 . S
C1265 H1259 0.930 . S
C1265 C1261 1.400 . S
C1265 C1264 1.385 . S
C1266 C1264 1.478 . S
C1266 C1268 1.381 . S
C1266 C1272 1.383 . S
C1267 C1263 1.495 . S
C1267 H1273 0.959 . S
C1267 H1274 0.961 . S
C1267 H1275 0.960 . S
C1268 C1266 1.381 . S
C1268 C1269 1.394 . S
C1268 H1276 0.930 . S
C1269 C1268 1.394 . S
C1269 C1270 1.383 . S
C1269 H1277 0.929 . S
C1270 C1269 1.383 . S
C1270 C1271 1.377 . S
C1271 H1255 0.930 . S
C1271 C1270 1.377 . S
C1271 C1272 1.379 . S
C1272 H1256 0.931 . S
C1272 C1266 1.383 . S
C1272 C1271 1.379 . S
H1273 C1267 0.959 . S
H1274 C1267 0.961 . S
H1275 C1267 0.960 . S
H1276 C1268 0.930 . S
H1277 C1269 0.929 . S
H1278 C1286 0.929 . S
H1279 C1288 0.930 . S
H1280 C1290 0.930 . S
H1281 C1293 0.929 . S
H1282 C1296 0.930 . S
H1283 C1298 0.960 . S
H1284 C1298 0.960 . S
H1285 C1298 0.960 . S
C1286 H1278 0.929 . S
C1286 C1287 1.377 . S
C1286 C1288 1.384 . S
C1287 C1286 1.377 . S
C1287 C1293 1.390 . S
C1288 H1279 0.930 . S
C1288 C1286 1.384 . S
C1288 C1289 1.372 . S
C1289 C1288 1.372 . S
C1289 C1290 1.400 . S
C1289 C1294 1.490 . S
C1290 H1280 0.930 . S
C1290 C1289 1.400 . S
C1290 C1293 1.386 . S
H1291 C1307 0.930 . S
H1292 C1308 0.931 . S
C1293 H1281 0.929 . S
C1293 C1287 1.390 . S
C1293 C1290 1.386 . S
C1294 C1289 1.490 . S
C1294 C1296 1.395 . S
C1294 C1297 1.403 . S
H1295 C1301 0.930 . S
C1296 H1282 0.930 . S
C1296 C1294 1.395 . S
C1296 C1299 1.403 . S
C1297 C1294 1.403 . S
C1297 C1298 1.524 . S
C1297 C1301 1.400 . S
C1298 H1283 0.960 . S
C1298 H1284 0.960 . S
C1298 H1285 0.960 . S
C1298 C1297 1.524 . S
C1299 C1296 1.403 . S
C1299 C1300 1.392 . S
C1299 C1303 1.495 . S
C1300 C1299 1.392 . S
C1300 C1301 1.385 . S
C1300 C1302 1.478 . S
C1301 H1295 0.930 . S
C1301 C1297 1.400 . S
C1301 C1300 1.385 . S
C1302 C1300 1.478 . S
C1302 C1304 1.381 . S
C1302 C1308 1.383 . S
C1303 C1299 1.495 . S
C1303 H1309 0.959 . S
C1303 H1310 0.961 . S
C1303 H1311 0.960 . S
C1304 C1302 1.381 . S
C1304 C1305 1.394 . S
C1304 H1312 0.930 . S
C1305 C1304 1.394 . S
C1305 C1306 1.383 . S
C1305 H1313 0.929 . S
C1306 C1305 1.383 . S
C1306 C1307 1.377 . S
C1307 H1291 0.930 . S
C1307 C1306 1.377 . S
C1307 C1308 1.379 . S
C1308 H1292 0.931 . S
C1308 C1302 1.383 . S
C1308 C1307 1.379 . S
H1309 C1303 0.959 . S
H1310 C1303 0.961 . S
H1311 C1303 0.960 . S
H1312 C1304 0.930 . S
H1313 C1305 0.929 . S
H1314 C1322 0.929 . S
H1315 C1324 0.930 . S
H1316 C1326 0.930 . S
H1317 C1329 0.929 . S
H1318 C1332 0.930 . S
H1319 C1334 0.960 . S
H1320 C1334 0.960 . S
H1321 C1334 0.960 . S
C1322 H1314 0.929 . S
C1322 C1323 1.377 . S
C1322 C1324 1.384 . S
C1323 C1322 1.377 . S
C1323 C1329 1.390 . S
C1324 H1315 0.930 . S
C1324 C1322 1.384 . S
C1324 C1325 1.372 . S
C1325 C1324 1.372 . S
C1325 C1326 1.400 . S
C1325 C1330 1.490 . S
C1326 H1316 0.930 . S
C1326 C1325 1.400 . S
C1326 C1329 1.386 . S
H1327 C1343 0.930 . S
H1328 C1344 0.931 . S
C1329 H1317 0.929 . S
C1329 C1323 1.390 . S
C1329 C1326 1.386 . S
C1330 C1325 1.490 . S
C1330 C1332 1.395 . S
C1330 C1333 1.403 . S
H1331 C1337 0.930 . S
C1332 H1318 0.930 . S
C1332 C1330 1.395 . S
C1332 C1335 1.403 . S
C1333 C1330 1.403 . S
C1333 C1334 1.524 . S
C1333 C1337 1.400 . S
C1334 H1319 0.960 . S
C1334 H1320 0.960 . S
C1334 H1321 0.960 . S
C1334 C1333 1.524 . S
C1335 C1332 1.403 . S
C1335 C1336 1.392 . S
C1335 C1339 1.495 . S
C1336 C1335 1.392 . S
C1336 C1337 1.385 . S
C1336 C1338 1.478 . S
C1337 H1331 0.930 . S
C1337 C1333 1.400 . S
C1337 C1336 1.385 . S
C1338 C1336 1.478 . S
C1338 C1340 1.381 . S
C1338 C1344 1.383 . S
C1339 C1335 1.495 . S
C1339 H1345 0.959 . S
C1339 H1346 0.961 . S
C1339 H1347 0.960 . S
C1340 C1338 1.381 . S
C1340 C1341 1.394 . S
C1340 H1348 0.930 . S
C1341 C1340 1.394 . S
C1341 C1342 1.383 . S
C1341 H1349 0.929 . S
C1342 C1341 1.383 . S
C1342 C1343 1.377 . S
C1343 H1327 0.930 . S
C1343 C1342 1.377 . S
C1343 C1344 1.379 . S
C1344 H1328 0.931 . S
C1344 C1338 1.383 . S
C1344 C1343 1.379 . S
H1345 C1339 0.959 . S
H1346 C1339 0.961 . S
H1347 C1339 0.960 . S
H1348 C1340 0.930 . S
H1349 C1341 0.929 . S
H1350 C1358 0.929 . S
H1351 C1360 0.930 . S
H1352 C1362 0.930 . S
H1353 C1365 0.929 . S
H1354 C1368 0.930 . S
H1355 C1370 0.960 . S
H1356 C1370 0.960 . S
H1357 C1370 0.960 . S
C1358 H1350 0.929 . S
C1358 C1359 1.377 . S
C1358 C1360 1.384 . S
C1359 C1358 1.377 . S
C1359 C1365 1.390 . S
C1360 H1351 0.930 . S
C1360 C1358 1.384 . S
C1360 C1361 1.372 . S
C1361 C1360 1.372 . S
C1361 C1362 1.400 . S
C1361 C1366 1.490 . S
C1362 H1352 0.930 . S
C1362 C1361 1.400 . S
C1362 C1365 1.386 . S
H1363 C1379 0.930 . S
H1364 C1380 0.931 . S
C1365 H1353 0.929 . S
C1365 C1359 1.390 . S
C1365 C1362 1.386 . S
C1366 C1361 1.490 . S
C1366 C1368 1.395 . S
C1366 C1369 1.403 . S
H1367 C1373 0.930 . S
C1368 H1354 0.930 . S
C1368 C1366 1.395 . S
C1368 C1371 1.403 . S
C1369 C1366 1.403 . S
C1369 C1370 1.524 . S
C1369 C1373 1.400 . S
C1370 H1355 0.960 . S
C1370 H1356 0.960 . S
C1370 H1357 0.960 . S
C1370 C1369 1.524 . S
C1371 C1368 1.403 . S
C1371 C1372 1.392 . S
C1371 C1375 1.495 . S
C1372 C1371 1.392 . S
C1372 C1373 1.385 . S
C1372 C1374 1.478 . S
C1373 H1367 0.930 . S
C1373 C1369 1.400 . S
C1373 C1372 1.385 . S
C1374 C1372 1.478 . S
C1374 C1376 1.381 . S
C1374 C1380 1.383 . S
C1375 C1371 1.495 . S
C1375 H1381 0.959 . S
C1375 H1382 0.961 . S
C1375 H1383 0.960 . S
C1376 C1374 1.381 . S
C1376 C1377 1.394 . S
C1376 H1384 0.930 . S
C1377 C1376 1.394 . S
C1377 C1378 1.383 . S
C1377 H1385 0.929 . S
C1378 C1377 1.383 . S
C1378 C1379 1.377 . S
C1379 H1363 0.930 . S
C1379 C1378 1.377 . S
C1379 C1380 1.379 . S
C1380 H1364 0.931 . S
C1380 C1374 1.383 . S
C1380 C1379 1.379 . S
H1381 C1375 0.959 . S
H1382 C1375 0.961 . S
H1383 C1375 0.960 . S
H1384 C1376 0.930 . S
H1385 C1377 0.929 . S
H1386 C1394 0.929 . S
H1387 C1396 0.930 . S
H1388 C1398 0.930 . S
H1389 C1401 0.929 . S
H1390 C1404 0.930 . S
H1391 C1406 0.960 . S
H1392 C1406 0.960 . S
H1393 C1406 0.960 . S
C1394 H1386 0.929 . S
C1394 C1395 1.377 . S
C1394 C1396 1.384 . S
C1395 C1394 1.377 . S
C1395 C1401 1.390 . S
C1396 H1387 0.930 . S
C1396 C1394 1.384 . S
C1396 C1397 1.372 . S
C1397 C1396 1.372 . S
C1397 C1398 1.400 . S
C1397 C1402 1.490 . S
C1398 H1388 0.930 . S
C1398 C1397 1.400 . S
C1398 C1401 1.386 . S
H1399 C1415 0.930 . S
H1400 C1416 0.931 . S
C1401 H1389 0.929 . S
C1401 C1395 1.390 . S
C1401 C1398 1.386 . S
C1402 C1397 1.490 . S
C1402 C1404 1.395 . S
C1402 C1405 1.403 . S
H1403 C1409 0.930 . S
C1404 H1390 0.930 . S
C1404 C1402 1.395 . S
C1404 C1407 1.403 . S
C1405 C1402 1.403 . S
C1405 C1406 1.524 . S
C1405 C1409 1.400 . S
C1406 H1391 0.960 . S
C1406 H1392 0.960 . S
C1406 H1393 0.960 . S
C1406 C1405 1.524 . S
C1407 C1404 1.403 . S
C1407 C1408 1.392 . S
C1407 C1411 1.495 . S
C1408 C1407 1.392 . S
C1408 C1409 1.385 . S
C1408 C1410 1.478 . S
C1409 H1403 0.930 . S
C1409 C1405 1.400 . S
C1409 C1408 1.385 . S
C1410 C1408 1.478 . S
C1410 C1412 1.381 . S
C1410 C1416 1.383 . S
C1411 C1407 1.495 . S
C1411 H1417 0.959 . S
C1411 H1418 0.961 . S
C1411 H1419 0.960 . S
C1412 C1410 1.381 . S
C1412 C1413 1.394 . S
C1412 H1420 0.930 . S
C1413 C1412 1.394 . S
C1413 C1414 1.383 . S
C1413 H1421 0.929 . S
C1414 C1413 1.383 . S
C1414 C1415 1.377 . S
C1415 H1399 0.930 . S
C1415 C1414 1.377 . S
C1415 C1416 1.379 . S
C1416 H1400 0.931 . S
C1416 C1410 1.383 . S
C1416 C1415 1.379 . S
H1417 C1411 0.959 . S
H1418 C1411 0.961 . S
H1419 C1411 0.960 . S
H1420 C1412 0.930 . S
H1421 C1413 0.929 . S
H1422 C1430 0.929 . S
H1423 C1432 0.930 . S
H1424 C1434 0.930 . S
H1425 C1437 0.929 . S
H1426 C1440 0.930 . S
H1427 C1442 0.960 . S
H1428 C1442 0.960 . S
H1429 C1442 0.960 . S
C1430 H1422 0.929 . S
C1430 C1431 1.377 . S
C1430 C1432 1.384 . S
C1431 C1430 1.377 . S
C1431 C1437 1.390 . S
C1432 H1423 0.930 . S
C1432 C1430 1.384 . S
C1432 C1433 1.372 . S
C1433 C1432 1.372 . S
C1433 C1434 1.400 . S
C1433 C1438 1.490 . S
C1434 H1424 0.930 . S
C1434 C1433 1.400 . S
C1434 C1437 1.386 . S
H1435 C1451 0.930 . S
H1436 C1452 0.931 . S
C1437 H1425 0.929 . S
C1437 C1431 1.390 . S
C1437 C1434 1.386 . S
C1438 C1433 1.490 . S
C1438 C1440 1.395 . S
C1438 C1441 1.403 . S
H1439 C1445 0.930 . S
C1440 H1426 0.930 . S
C1440 C1438 1.395 . S
C1440 C1443 1.403 . S
C1441 C1438 1.403 . S
C1441 C1442 1.524 . S
C1441 C1445 1.400 . S
C1442 H1427 0.960 . S
C1442 H1428 0.960 . S
C1442 H1429 0.960 . S
C1442 C1441 1.524 . S
C1443 C1440 1.403 . S
C1443 C1444 1.392 . S
C1443 C1447 1.495 . S
C1444 C1443 1.392 . S
C1444 C1445 1.385 . S
C1444 C1446 1.478 . S
C1445 H1439 0.930 . S
C1445 C1441 1.400 . S
C1445 C1444 1.385 . S
C1446 C1444 1.478 . S
C1446 C1448 1.381 . S
C1446 C1452 1.383 . S
C1447 C1443 1.495 . S
C1447 H1453 0.959 . S
C1447 H1454 0.961 . S
C1447 H1455 0.960 . S
C1448 C1446 1.381 . S
C1448 C1449 1.394 . S
C1448 H1456 0.930 . S
C1449 C1448 1.394 . S
C1449 C1450 1.383 . S
C1449 H1457 0.929 . S
C1450 C1449 1.383 . S
C1450 C1451 1.377 . S
C1451 H1435 0.930 . S
C1451 C1450 1.377 . S
C1451 C1452 1.379 . S
C1452 H1436 0.931 . S
C1452 C1446 1.383 . S
C1452 C1451 1.379 . S
H1453 C1447 0.959 . S
H1454 C1447 0.961 . S
H1455 C1447 0.960 . S
H1456 C1448 0.930 . S
H1457 C1449 0.929 . S
H1458 C1466 0.929 . S
H1459 C1468 0.930 1_565 S
H1460 C1470 0.911 1_565 S
H1461 C1473 0.929 . S
H1462 C1476 0.930 . S
H1463 C1478 0.960 . S
H1464 C1478 0.960 . S
H1465 C1478 0.960 . S
C1466 H1458 0.929 . S
C1466 C1467 1.377 . S
C1466 C1468 1.384 . S
C1467 C1466 1.377 . S
C1467 C1473 1.390 . S
C1468 H1459 0.930 1_545 S
C1468 C1466 1.384 . S
C1468 C1469 1.372 1_545 S
C1469 C1468 1.372 1_565 S
C1469 C1470 1.391 1_565 S
C1469 C1474 1.490 . S
C1470 H1460 0.911 1_545 S
C1470 C1469 1.391 1_545 S
C1470 C1473 1.414 . S
H1471 C1487 0.930 . S
H1472 C1488 0.931 . S
C1473 H1461 0.929 . S
C1473 C1467 1.390 . S
C1473 C1470 1.414 . S
C1474 C1469 1.490 . S
C1474 C1476 1.395 . S
C1474 C1477 1.403 . S
H1475 C1481 0.930 . S
C1476 H1462 0.930 . S
C1476 C1474 1.395 . S
C1476 C1479 1.403 . S
C1477 C1474 1.403 . S
C1477 C1478 1.524 . S
C1477 C1481 1.400 . S
C1478 H1463 0.960 . S
C1478 H1464 0.960 . S
C1478 H1465 0.960 . S
C1478 C1477 1.524 . S
C1479 C1476 1.403 . S
C1479 C1480 1.392 . S
C1479 C1483 1.495 . S
C1480 C1479 1.392 . S
C1480 C1481 1.385 . S
C1480 C1482 1.478 . S
C1481 H1475 0.930 . S
C1481 C1477 1.400 . S
C1481 C1480 1.385 . S
C1482 C1480 1.478 . S
C1482 C1484 1.381 . S
C1482 C1488 1.383 . S
C1483 C1479 1.495 . S
C1483 H1489 0.959 . S
C1483 H1490 0.961 . S
C1483 H1491 0.960 . S
C1484 C1482 1.381 . S
C1484 C1485 1.394 . S
C1484 H1492 0.930 . S
C1485 C1484 1.394 . S
C1485 C1486 1.383 . S
C1485 H1493 0.929 . S
C1486 C1485 1.383 . S
C1486 C1487 1.377 . S
C1487 H1471 0.930 . S
C1487 C1486 1.377 . S
C1487 C1488 1.379 . S
C1488 H1472 0.931 . S
C1488 C1482 1.383 . S
C1488 C1487 1.379 . S
H1489 C1483 0.959 . S
H1490 C1483 0.961 . S
H1491 C1483 0.960 . S
H1492 C1484 0.930 . S
H1493 C1485 0.929 . S
H1494 C1502 0.929 . S
H1495 C1504 0.930 . S
H1496 C1506 0.930 . S
H1497 C1509 0.929 . S
H1498 C1512 0.930 . S
H1499 C1514 0.960 . S
H1500 C1514 0.960 . S
H1501 C1514 0.960 . S
C1502 H1494 0.929 . S
C1502 C1503 1.377 . S
C1502 C1504 1.384 1_655 S
C1503 C1502 1.377 . S
C1503 C1509 1.390 1_655 S
C1504 H1495 0.930 . S
C1504 C1502 1.384 1_455 S
C1504 C1505 1.372 . S
C1505 C1504 1.372 . S
C1505 C1506 1.400 . S
C1505 C1510 1.490 . S
C1506 H1496 0.930 . S
C1506 C1505 1.400 . S
C1506 C1509 1.386 . S
H1507 C1523 0.930 . S
H1508 C1524 0.931 . S
C1509 H1497 0.929 . S
C1509 C1503 1.390 1_455 S
C1509 C1506 1.386 . S
C1510 C1505 1.490 . S
C1510 C1512 1.395 . S
C1510 C1513 1.403 . S
H1511 C1517 0.930 . S
C1512 H1498 0.930 . S
C1512 C1510 1.395 . S
C1512 C1515 1.403 . S
C1513 C1510 1.403 . S
C1513 C1514 1.524 . S
C1513 C1517 1.400 . S
C1514 H1499 0.960 . S
C1514 H1500 0.960 . S
C1514 H1501 0.960 . S
C1514 C1513 1.524 . S
C1515 C1512 1.403 . S
C1515 C1516 1.392 . S
C1515 C1519 1.495 . S
C1516 C1515 1.392 . S
C1516 C1517 1.385 . S
C1516 C1518 1.478 . S
C1517 H1511 0.930 . S
C1517 C1513 1.400 . S
C1517 C1516 1.385 . S
C1518 C1516 1.478 . S
C1518 C1520 1.381 . S
C1518 C1524 1.383 . S
C1519 C1515 1.495 . S
C1519 H1525 0.959 . S
C1519 H1526 0.961 . S
C1519 H1527 0.960 . S
C1520 C1518 1.381 . S
C1520 C1521 1.394 . S
C1520 H1528 0.930 . S
C1521 C1520 1.394 . S
C1521 C1522 1.383 . S
C1521 H1529 0.929 . S
C1522 C1521 1.383 . S
C1522 C1523 1.377 . S
C1523 H1507 0.930 . S
C1523 C1522 1.377 . S
C1523 C1524 1.379 . S
C1524 H1508 0.931 . S
C1524 C1518 1.383 . S
C1524 C1523 1.379 . S
H1525 C1519 0.959 . S
H1526 C1519 0.961 . S
H1527 C1519 0.960 . S
H1528 C1520 0.930 . S
H1529 C1521 0.929 . S
H1530 C1538 0.929 . S
H1531 C1540 0.930 . S
H1532 C1542 0.930 . S
H1533 C1545 0.929 . S
H1534 C1548 0.930 . S
H1535 C1550 0.960 . S
H1536 C1550 0.960 . S
H1537 C1550 0.960 . S
C1538 H1530 0.929 . S
C1538 C1539 1.377 . S
C1538 C1540 1.384 . S
C1539 C1538 1.377 . S
C1539 C1545 1.390 . S
C1540 H1531 0.930 . S
C1540 C1538 1.384 . S
C1540 C1541 1.372 . S
C1541 C1540 1.372 . S
C1541 C1542 1.400 . S
C1541 C1546 1.490 . S
C1542 H1532 0.930 . S
C1542 C1541 1.400 . S
C1542 C1545 1.386 . S
H1543 C1559 0.930 . S
H1544 C1560 0.931 . S
C1545 H1533 0.929 . S
C1545 C1539 1.390 . S
C1545 C1542 1.386 . S
C1546 C1541 1.490 . S
C1546 C1548 1.395 . S
C1546 C1549 1.403 . S
H1547 C1553 0.930 . S
C1548 H1534 0.930 . S
C1548 C1546 1.395 . S
C1548 C1551 1.403 . S
C1549 C1546 1.403 . S
C1549 C1550 1.524 . S
C1549 C1553 1.400 . S
C1550 H1535 0.960 . S
C1550 H1536 0.960 . S
C1550 H1537 0.960 . S
C1550 C1549 1.524 . S
C1551 C1548 1.403 . S
C1551 C1552 1.392 . S
C1551 C1555 1.495 . S
C1552 C1551 1.392 . S
C1552 C1553 1.385 . S
C1552 C1554 1.478 . S
C1553 H1547 0.930 . S
C1553 C1549 1.400 . S
C1553 C1552 1.385 . S
C1554 C1552 1.478 . S
C1554 C1556 1.381 . S
C1554 C1560 1.383 . S
C1555 C1551 1.495 . S
C1555 H1561 0.959 . S
C1555 H1562 0.961 . S
C1555 H1563 0.960 . S
C1556 C1554 1.381 . S
C1556 C1557 1.394 . S
C1556 H1564 0.930 . S
C1557 C1556 1.394 . S
C1557 C1558 1.383 . S
C1557 H1565 0.929 . S
C1558 C1557 1.383 . S
C1558 C1559 1.377 . S
C1559 H1543 0.930 . S
C1559 C1558 1.377 . S
C1559 C1560 1.379 . S
C1560 H1544 0.931 . S
C1560 C1554 1.383 . S
C1560 C1559 1.379 . S
H1561 C1555 0.959 . S
H1562 C1555 0.961 . S
H1563 C1555 0.960 . S
H1564 C1556 0.930 . S
H1565 C1557 0.929 . S
H1566 C1574 0.929 . S
H1567 C1576 0.930 . S
H1568 C1578 0.930 . S
H1569 C1581 0.929 . S
H1570 C1584 0.930 . S
H1571 C1586 0.960 . S
H1572 C1586 0.960 . S
H1573 C1586 0.960 . S
C1574 H1566 0.929 . S
C1574 C1575 1.377 . S
C1574 C1576 1.384 . S
C1575 C1574 1.377 . S
C1575 C1581 1.390 . S
C1576 H1567 0.930 . S
C1576 C1574 1.384 . S
C1576 C1577 1.372 . S
C1577 C1576 1.372 . S
C1577 C1578 1.400 . S
C1577 C1582 1.490 . S
C1578 H1568 0.930 . S
C1578 C1577 1.400 . S
C1578 C1581 1.386 . S
H1579 C1595 0.930 . S
H1580 C1596 0.931 . S
C1581 H1569 0.929 . S
C1581 C1575 1.390 . S
C1581 C1578 1.386 . S
C1582 C1577 1.490 . S
C1582 C1584 1.395 . S
C1582 C1585 1.403 . S
H1583 C1589 0.930 . S
C1584 H1570 0.930 . S
C1584 C1582 1.395 . S
C1584 C1587 1.403 . S
C1585 C1582 1.403 . S
C1585 C1586 1.524 . S
C1585 C1589 1.400 . S
C1586 H1571 0.960 . S
C1586 H1572 0.960 . S
C1586 H1573 0.960 . S
C1586 C1585 1.524 . S
C1587 C1584 1.403 . S
C1587 C1588 1.392 . S
C1587 C1591 1.495 . S
C1588 C1587 1.392 . S
C1588 C1589 1.385 . S
C1588 C1590 1.478 . S
C1589 H1583 0.930 . S
C1589 C1585 1.400 . S
C1589 C1588 1.385 . S
C1590 C1588 1.478 . S
C1590 C1592 1.381 . S
C1590 C1596 1.383 . S
C1591 C1587 1.495 . S
C1591 H1597 0.959 . S
C1591 H1598 0.961 . S
C1591 H1599 0.960 . S
C1592 C1590 1.381 . S
C1592 C1593 1.394 . S
C1592 H1600 0.930 . S
C1593 C1592 1.394 . S
C1593 C1594 1.383 . S
C1593 H1601 0.929 . S
C1594 C1593 1.383 . S
C1594 C1595 1.377 . S
C1595 H1579 0.930 . S
C1595 C1594 1.377 . S
C1595 C1596 1.379 . S
C1596 H1580 0.931 . S
C1596 C1590 1.383 . S
C1596 C1595 1.379 . S
H1597 C1591 0.959 . S
H1598 C1591 0.961 . S
H1599 C1591 0.960 . S
H1600 C1592 0.930 . S
H1601 C1593 0.929 . S
H1602 C1610 0.929 . S
H1603 C1612 0.930 . S
H1604 C1614 0.930 . S
H1605 C1617 0.929 . S
H1606 C1620 0.930 . S
H1607 C1622 0.960 . S
H1608 C1622 0.960 . S
H1609 C1622 0.960 . S
C1610 H1602 0.929 . S
C1610 C1611 1.377 . S
C1610 C1612 1.384 . S
C1611 C1610 1.377 . S
C1611 C1617 1.390 . S
C1612 H1603 0.930 . S
C1612 C1610 1.384 . S
C1612 C1613 1.372 . S
C1613 C1612 1.372 . S
C1613 C1614 1.400 . S
C1613 C1618 1.490 . S
C1614 H1604 0.930 . S
C1614 C1613 1.400 . S
C1614 C1617 1.386 . S
H1615 C1631 0.930 . S
H1616 C1632 0.931 . S
C1617 H1605 0.929 . S
C1617 C1611 1.390 . S
C1617 C1614 1.386 . S
C1618 C1613 1.490 . S
C1618 C1620 1.395 . S
C1618 C1621 1.403 . S
H1619 C1625 0.930 . S
C1620 H1606 0.930 . S
C1620 C1618 1.395 . S
C1620 C1623 1.403 . S
C1621 C1618 1.403 . S
C1621 C1622 1.524 . S
C1621 C1625 1.400 . S
C1622 H1607 0.960 . S
C1622 H1608 0.960 . S
C1622 H1609 0.960 . S
C1622 C1621 1.524 . S
C1623 C1620 1.403 . S
C1623 C1624 1.392 . S
C1623 C1627 1.495 . S
C1624 C1623 1.392 . S
C1624 C1625 1.385 . S
C1624 C1626 1.478 . S
C1625 H1619 0.930 . S
C1625 C1621 1.400 . S
C1625 C1624 1.385 . S
C1626 C1624 1.478 . S
C1626 C1628 1.381 . S
C1626 C1632 1.383 . S
C1627 C1623 1.495 . S
C1627 H1633 0.959 . S
C1627 H1634 0.961 . S
C1627 H1635 0.960 . S
C1628 C1626 1.381 . S
C1628 C1629 1.394 . S
C1628 H1636 0.930 . S
C1629 C1628 1.394 . S
C1629 C1630 1.383 . S
C1629 H1637 0.929 . S
C1630 C1629 1.383 . S
C1630 C1631 1.377 . S
C1631 H1615 0.930 . S
C1631 C1630 1.377 . S
C1631 C1632 1.379 . S
C1632 H1616 0.931 . S
C1632 C1626 1.383 . S
C1632 C1631 1.379 . S
H1633 C1627 0.959 . S
H1634 C1627 0.961 . S
H1635 C1627 0.960 . S
H1636 C1628 0.930 . S
H1637 C1629 0.929 . S
H1638 C1646 0.929 . S
H1639 C1648 0.930 . S
H1640 C1650 0.930 . S
H1641 C1653 0.929 . S
H1642 C1656 0.930 . S
H1643 C1658 0.960 . S
H1644 C1658 0.960 . S
H1645 C1658 0.960 . S
C1646 H1638 0.929 . S
C1646 C1647 1.377 . S
C1646 C1648 1.384 . S
C1647 C1646 1.377 . S
C1647 C1653 1.390 . S
C1648 H1639 0.930 . S
C1648 C1646 1.384 . S
C1648 C1649 1.372 . S
C1649 C1648 1.372 . S
C1649 C1650 1.400 . S
C1649 C1654 1.490 . S
C1650 H1640 0.930 . S
C1650 C1649 1.400 . S
C1650 C1653 1.386 . S
H1651 C1667 0.930 . S
H1652 C1668 0.931 . S
C1653 H1641 0.929 . S
C1653 C1647 1.390 . S
C1653 C1650 1.386 . S
C1654 C1649 1.490 . S
C1654 C1656 1.395 . S
C1654 C1657 1.403 . S
H1655 C1661 0.930 . S
C1656 H1642 0.930 . S
C1656 C1654 1.395 . S
C1656 C1659 1.403 . S
C1657 C1654 1.403 . S
C1657 C1658 1.524 . S
C1657 C1661 1.400 . S
C1658 H1643 0.960 . S
C1658 H1644 0.960 . S
C1658 H1645 0.960 . S
C1658 C1657 1.524 . S
C1659 C1656 1.403 . S
C1659 C1660 1.392 . S
C1659 C1663 1.495 . S
C1660 C1659 1.392 . S
C1660 C1661 1.385 . S
C1660 C1662 1.478 . S
C1661 H1655 0.930 . S
C1661 C1657 1.400 . S
C1661 C1660 1.385 . S
C1662 C1660 1.478 . S
C1662 C1664 1.381 . S
C1662 C1668 1.383 . S
C1663 C1659 1.495 . S
C1663 H1669 0.959 . S
C1663 H1670 0.961 . S
C1663 H1671 0.960 . S
C1664 C1662 1.381 . S
C1664 C1665 1.394 . S
C1664 H1672 0.930 . S
C1665 C1664 1.394 . S
C1665 C1666 1.383 . S
C1665 H1673 0.929 . S
C1666 C1665 1.383 . S
C1666 C1667 1.377 . S
C1667 H1651 0.930 . S
C1667 C1666 1.377 . S
C1667 C1668 1.379 . S
C1668 H1652 0.931 . S
C1668 C1662 1.383 . S
C1668 C1667 1.379 . S
H1669 C1663 0.959 . S
H1670 C1663 0.961 . S
H1671 C1663 0.960 . S
H1672 C1664 0.930 . S
H1673 C1665 0.929 . S
H1674 C1682 0.929 . S
H1675 C1684 0.930 . S
H1676 C1686 0.930 . S
H1677 C1689 0.929 . S
H1678 C1692 0.930 . S
H1679 C1694 0.960 . S
H1680 C1694 0.960 . S
H1681 C1694 0.960 . S
C1682 H1674 0.929 . S
C1682 C1683 1.377 . S
C1682 C1684 1.384 . S
C1683 C1682 1.377 . S
C1683 C1689 1.390 . S
C1684 H1675 0.930 . S
C1684 C1682 1.384 . S
C1684 C1685 1.372 . S
C1685 C1684 1.372 . S
C1685 C1686 1.400 . S
C1685 C1690 1.490 . S
C1686 H1676 0.930 . S
C1686 C1685 1.400 . S
C1686 C1689 1.386 . S
H1687 C1703 0.930 . S
H1688 C1704 0.931 . S
C1689 H1677 0.929 . S
C1689 C1683 1.390 . S
C1689 C1686 1.386 . S
C1690 C1685 1.490 . S
C1690 C1692 1.395 . S
C1690 C1693 1.403 . S
H1691 C1697 0.930 1_545 S
C1692 H1678 0.930 . S
C1692 C1690 1.395 . S
C1692 C1695 1.403 1_565 S
C1693 C1690 1.403 . S
C1693 C1694 1.524 . S
C1693 C1697 1.400 . S
C1694 H1679 0.960 . S
C1694 H1680 0.960 . S
C1694 H1681 0.960 . S
C1694 C1693 1.524 . S
C1695 C1692 1.403 1_545 S
C1695 C1696 1.392 . S
C1695 C1699 1.495 . S
C1696 C1695 1.392 . S
C1696 C1697 1.385 1_545 S
C1696 C1698 1.478 . S
C1697 H1691 0.930 1_565 S
C1697 C1693 1.400 . S
C1697 C1696 1.385 1_565 S
C1698 C1696 1.478 . S
C1698 C1700 1.381 . S
C1698 C1704 1.383 . S
C1699 C1695 1.495 . S
C1699 H1705 0.959 . S
C1699 H1706 0.961 . S
C1699 H1707 0.960 . S
C1700 C1698 1.381 . S
C1700 C1701 1.394 . S
C1700 H1708 0.930 . S
C1701 C1700 1.394 . S
C1701 C1702 1.383 . S
C1701 H1709 0.929 . S
C1702 C1701 1.383 . S
C1702 C1703 1.377 . S
C1703 H1687 0.930 . S
C1703 C1702 1.377 . S
C1703 C1704 1.379 . S
C1704 H1688 0.931 . S
C1704 C1698 1.383 . S
C1704 C1703 1.379 . S
H1705 C1699 0.959 . S
H1706 C1699 0.961 . S
H1707 C1699 0.960 . S
H1708 C1700 0.930 . S
H1709 C1701 0.929 . S
H1710 C1718 0.929 . S
H1711 C1720 0.930 . S
H1712 C1722 0.930 . S
H1713 C1725 0.929 . S
H1714 C1728 0.930 . S
H1715 C1730 0.960 . S
H1716 C1730 0.960 . S
H1717 C1730 0.960 . S
C1718 H1710 0.929 . S
C1718 C1719 1.377 . S
C1718 C1720 1.384 . S
C1719 C1718 1.377 . S
C1719 C1725 1.390 . S
C1720 H1711 0.930 . S
C1720 C1718 1.384 . S
C1720 C1721 1.372 . S
C1721 C1720 1.372 . S
C1721 C1722 1.400 . S
C1721 C1726 1.490 . S
C1722 H1712 0.930 . S
C1722 C1721 1.400 . S
C1722 C1725 1.386 . S
H1723 C1739 0.930 . S
H1724 C1740 0.931 . S
C1725 H1713 0.929 . S
C1725 C1719 1.390 . S
C1725 C1722 1.386 . S
C1726 C1721 1.490 . S
C1726 C1728 1.395 . S
C1726 C1729 1.403 . S
H1727 C1733 0.946 . S
C1728 H1714 0.930 . S
C1728 C1726 1.395 . S
C1728 C1731 1.403 1_455 S
C1729 C1726 1.403 . S
C1729 C1730 1.524 . S
C1729 C1733 1.400 . S
C1730 H1715 0.960 . S
C1730 H1716 0.960 . S
C1730 H1717 0.960 . S
C1730 C1729 1.524 . S
C1731 C1728 1.403 1_655 S
C1731 C1732 1.392 . S
C1731 C1735 1.495 . S
C1732 C1731 1.392 . S
C1732 C1733 1.385 1_655 S
C1732 C1734 1.478 . S
C1733 H1727 0.946 . S
C1733 C1729 1.400 . S
C1733 C1732 1.385 1_455 S
C1734 C1732 1.478 . S
C1734 C1736 1.381 . S
C1734 C1740 1.383 . S
C1735 C1731 1.495 . S
C1735 H1741 0.959 . S
C1735 H1742 0.961 . S
C1735 H1743 0.960 . S
C1736 C1734 1.381 . S
C1736 C1737 1.394 . S
C1736 H1744 0.930 . S
C1737 C1736 1.394 . S
C1737 C1738 1.383 . S
C1737 H1745 0.929 . S
C1738 C1737 1.383 . S
C1738 C1739 1.377 . S
C1739 H1723 0.930 . S
C1739 C1738 1.377 . S
C1739 C1740 1.379 . S
C1740 H1724 0.931 . S
C1740 C1734 1.383 . S
C1740 C1739 1.379 . S
H1741 C1735 0.959 . S
H1742 C1735 0.961 . S
H1743 C1735 0.960 . S
H1744 C1736 0.930 . S
H1745 C1737 0.929 . S
H1746 C1754 0.929 . S
H1747 C1756 0.930 . S
H1748 C1758 0.930 . S
H1749 C1761 0.929 . S
H1750 C1764 0.930 . S
H1751 C1766 0.960 . S
H1752 C1766 0.960 . S
H1753 C1766 0.960 . S
C1754 H1746 0.929 . S
C1754 C1755 1.377 . S
C1754 C1756 1.384 . S
C1755 C1754 1.377 . S
C1755 C1761 1.390 . S
C1756 H1747 0.930 . S
C1756 C1754 1.384 . S
C1756 C1757 1.372 . S
C1757 C1756 1.372 . S
C1757 C1758 1.400 . S
C1757 C1762 1.490 . S
C1758 H1748 0.930 . S
C1758 C1757 1.400 . S
C1758 C1761 1.386 . S
H1759 C1775 0.930 . S
H1760 C1776 0.931 . S
C1761 H1749 0.929 . S
C1761 C1755 1.390 . S
C1761 C1758 1.386 . S
C1762 C1757 1.490 . S
C1762 C1764 1.395 . S
C1762 C1765 1.403 . S
H1763 C1769 0.930 . S
C1764 H1750 0.930 . S
C1764 C1762 1.395 . S
C1764 C1767 1.403 . S
C1765 C1762 1.403 . S
C1765 C1766 1.524 . S
C1765 C1769 1.400 . S
C1766 H1751 0.960 . S
C1766 H1752 0.960 . S
C1766 H1753 0.960 . S
C1766 C1765 1.524 . S
C1767 C1764 1.403 . S
C1767 C1768 1.392 . S
C1767 C1771 1.495 . S
C1768 C1767 1.392 . S
C1768 C1769 1.385 . S
C1768 C1770 1.478 . S
C1769 H1763 0.930 . S
C1769 C1765 1.400 . S
C1769 C1768 1.385 . S
C1770 C1768 1.478 . S
C1770 C1772 1.381 . S
C1770 C1776 1.383 . S
C1771 C1767 1.495 . S
C1771 H1777 0.959 . S
C1771 H1778 0.961 . S
C1771 H1779 0.960 . S
C1772 C1770 1.381 . S
C1772 C1773 1.394 . S
C1772 H1780 0.930 . S
C1773 C1772 1.394 . S
C1773 C1774 1.383 . S
C1773 H1781 0.929 . S
C1774 C1773 1.383 . S
C1774 C1775 1.377 . S
C1775 H1759 0.930 . S
C1775 C1774 1.377 . S
C1775 C1776 1.379 . S
C1776 H1760 0.931 . S
C1776 C1770 1.383 . S
C1776 C1775 1.379 . S
H1777 C1771 0.959 . S
H1778 C1771 0.961 . S
H1779 C1771 0.960 . S
H1780 C1772 0.930 . S
H1781 C1773 0.929 . S
H1782 C1790 0.929 . S
H1783 C1792 0.930 1_655 S
H1784 C1794 0.930 . S
H1785 C1797 0.929 . S
H1786 C1800 0.930 . S
H1787 C1802 0.960 . S
H1788 C1802 0.960 . S
H1789 C1802 0.960 . S
C1790 H1782 0.929 . S
C1790 C1791 1.377 . S
C1790 C1792 1.384 . S
C1791 C1790 1.377 . S
C1791 C1797 1.390 . S
C1792 H1783 0.930 1_455 S
C1792 C1790 1.384 . S
C1792 C1793 1.372 1_455 S
C1793 C1792 1.372 1_655 S
C1793 C1794 1.400 . S
C1793 C1798 1.490 . S
C1794 H1784 0.930 . S
C1794 C1793 1.400 . S
C1794 C1797 1.386 1_655 S
H1795 C1811 0.930 . S
H1796 C1812 0.931 . S
C1797 H1785 0.929 . S
C1797 C1791 1.390 . S
C1797 C1794 1.386 1_455 S
C1798 C1793 1.490 . S
C1798 C1800 1.395 . S
C1798 C1801 1.403 . S
H1799 C1805 0.930 . S
C1800 H1786 0.930 . S
C1800 C1798 1.395 . S
C1800 C1803 1.403 . S
C1801 C1798 1.403 . S
C1801 C1802 1.524 . S
C1801 C1805 1.400 . S
C1802 H1787 0.960 . S
C1802 H1788 0.960 . S
C1802 H1789 0.960 . S
C1802 C1801 1.524 . S
C1803 C1800 1.403 . S
C1803 C1804 1.392 . S
C1803 C1807 1.495 . S
C1804 C1803 1.392 . S
C1804 C1805 1.385 . S
C1804 C1806 1.478 . S
C1805 H1799 0.930 . S
C1805 C1801 1.400 . S
C1805 C1804 1.385 . S
C1806 C1804 1.478 . S
C1806 C1808 1.381 . S
C1806 C1812 1.383 . S
C1807 C1803 1.495 . S
C1807 H1813 0.959 . S
C1807 H1814 0.961 . S
C1807 H1815 0.960 . S
C1808 C1806 1.381 . S
C1808 C1809 1.394 . S
C1808 H1816 0.930 . S
C1809 C1808 1.394 . S
C1809 C1810 1.383 . S
C1809 H1817 0.929 . S
C1810 C1809 1.383 . S
C1810 C1811 1.377 . S
C1811 H1795 0.930 . S
C1811 C1810 1.377 . S
C1811 C1812 1.379 . S
C1812 H1796 0.931 . S
C1812 C1806 1.383 . S
C1812 C1811 1.379 . S
H1813 C1807 0.959 . S
H1814 C1807 0.961 . S
H1815 C1807 0.960 . S
H1816 C1808 0.930 . S
H1817 C1809 0.929 . S
H1818 C1826 0.929 . S
H1819 C1828 0.930 . S
H1820 C1830 0.930 . S
H1821 C1833 0.929 . S
H1822 C1836 0.930 . S
H1823 C1838 0.960 . S
H1824 C1838 0.960 . S
H1825 C1838 0.960 . S
C1826 H1818 0.929 . S
C1826 C1827 1.377 . S
C1826 C1828 1.384 . S
C1827 C1826 1.377 . S
C1827 C1833 1.390 . S
C1828 H1819 0.930 . S
C1828 C1826 1.384 . S
C1828 C1829 1.372 . S
C1829 C1828 1.372 . S
C1829 C1830 1.400 . S
C1829 C1834 1.490 . S
C1830 H1820 0.930 . S
C1830 C1829 1.400 . S
C1830 C1833 1.386 . S
H1831 C1847 0.930 . S
H1832 C1848 0.931 . S
C1833 H1821 0.929 . S
C1833 C1827 1.390 . S
C1833 C1830 1.386 . S
C1834 C1829 1.490 . S
C1834 C1836 1.395 . S
C1834 C1837 1.403 . S
H1835 C1841 0.930 . S
C1836 H1822 0.930 . S
C1836 C1834 1.395 . S
C1836 C1839 1.403 . S
C1837 C1834 1.403 . S
C1837 C1838 1.524 . S
C1837 C1841 1.400 . S
C1838 H1823 0.960 . S
C1838 H1824 0.960 . S
C1838 H1825 0.960 . S
C1838 C1837 1.524 . S
C1839 C1836 1.403 . S
C1839 C1840 1.392 . S
C1839 C1843 1.495 . S
C1840 C1839 1.392 . S
C1840 C1841 1.385 . S
C1840 C1842 1.478 . S
C1841 H1835 0.930 . S
C1841 C1837 1.400 . S
C1841 C1840 1.385 . S
C1842 C1840 1.478 . S
C1842 C1844 1.381 . S
C1842 C1848 1.383 . S
C1843 C1839 1.495 . S
C1843 H1849 0.959 . S
C1843 H1850 0.961 . S
C1843 H1851 0.960 . S
C1844 C1842 1.381 . S
C1844 C1845 1.394 . S
C1844 H1852 0.930 . S
C1845 C1844 1.394 . S
C1845 C1846 1.383 . S
C1845 H1853 0.929 . S
C1846 C1845 1.383 . S
C1846 C1847 1.377 . S
C1847 H1831 0.930 . S
C1847 C1846 1.377 . S
C1847 C1848 1.379 . S
C1848 H1832 0.931 . S
C1848 C1842 1.383 . S
C1848 C1847 1.379 . S
H1849 C1843 0.959 . S
H1850 C1843 0.961 . S
H1851 C1843 0.960 . S
H1852 C1844 0.930 . S
H1853 C1845 0.929 . S
H1854 C1862 0.929 . S
H1855 C1864 0.930 . S
H1856 C1866 0.930 . S
H1857 C1869 0.929 . S
H1858 C1872 0.930 . S
H1859 C1874 0.960 . S
H1860 C1874 0.960 . S
H1861 C1874 0.960 . S
C1862 H1854 0.929 . S
C1862 C1863 1.377 . S
C1862 C1864 1.384 1_565 S
C1863 C1862 1.377 . S
C1863 C1869 1.390 . S
C1864 H1855 0.930 . S
C1864 C1862 1.384 1_545 S
C1864 C1865 1.372 . S
C1865 C1864 1.372 . S
C1865 C1866 1.400 . S
C1865 C1870 1.490 . S
C1866 H1856 0.930 . S
C1866 C1865 1.400 . S
C1866 C1869 1.386 1_545 S
H1867 C1883 0.930 . S
H1868 C1884 0.931 . S
C1869 H1857 0.929 . S
C1869 C1863 1.390 . S
C1869 C1866 1.386 1_565 S
C1870 C1865 1.490 . S
C1870 C1872 1.395 . S
C1870 C1873 1.403 . S
H1871 C1877 0.930 . S
C1872 H1858 0.930 . S
C1872 C1870 1.395 . S
C1872 C1875 1.403 . S
C1873 C1870 1.403 . S
C1873 C1874 1.524 . S
C1873 C1877 1.400 . S
C1874 H1859 0.960 . S
C1874 H1860 0.960 . S
C1874 H1861 0.960 . S
C1874 C1873 1.524 . S
C1875 C1872 1.403 . S
C1875 C1876 1.392 . S
C1875 C1879 1.495 . S
C1876 C1875 1.392 . S
C1876 C1877 1.385 . S
C1876 C1878 1.478 . S
C1877 H1871 0.930 . S
C1877 C1873 1.400 . S
C1877 C1876 1.385 . S
C1878 C1876 1.478 . S
C1878 C1880 1.381 . S
C1878 C1884 1.383 . S
C1879 C1875 1.495 . S
C1879 H1885 0.959 . S
C1879 H1886 0.961 . S
C1879 H1887 0.960 . S
C1880 C1878 1.381 . S
C1880 C1881 1.394 . S
C1880 H1888 0.930 . S
C1881 C1880 1.394 . S
C1881 C1882 1.383 . S
C1881 H1889 0.929 . S
C1882 C1881 1.383 . S
C1882 C1883 1.377 . S
C1883 H1867 0.930 . S
C1883 C1882 1.377 . S
C1883 C1884 1.379 . S
C1884 H1868 0.931 . S
C1884 C1878 1.383 . S
C1884 C1883 1.379 . S
H1885 C1879 0.959 . S
H1886 C1879 0.961 . S
H1887 C1879 0.960 . S
H1888 C1880 0.930 . S
H1889 C1881 0.929 . S
H1890 C1898 0.929 . S
H1891 C1900 0.930 . S
H1892 C1902 0.930 . S
H1893 C1905 0.929 . S
H1894 C1908 0.930 . S
H1895 C1910 0.960 . S
H1896 C1910 0.960 . S
H1897 C1910 0.960 . S
C1898 H1890 0.929 . S
C1898 C1899 1.377 . S
C1898 C1900 1.384 . S
C1899 C1898 1.377 . S
C1899 C1905 1.390 . S
C1900 H1891 0.930 . S
C1900 C1898 1.384 . S
C1900 C1901 1.372 . S
C1901 C1900 1.372 . S
C1901 C1902 1.400 . S
C1901 C1906 1.490 . S
C1902 H1892 0.930 . S
C1902 C1901 1.400 . S
C1902 C1905 1.386 . S
H1903 C1919 0.930 . S
H1904 C1920 0.931 . S
C1905 H1893 0.929 . S
C1905 C1899 1.390 . S
C1905 C1902 1.386 . S
C1906 C1901 1.490 . S
C1906 C1908 1.395 . S
C1906 C1909 1.403 . S
H1907 C1913 0.930 . S
C1908 H1894 0.930 . S
C1908 C1906 1.395 . S
C1908 C1911 1.403 . S
C1909 C1906 1.403 . S
C1909 C1910 1.524 . S
C1909 C1913 1.400 . S
C1910 H1895 0.960 . S
C1910 H1896 0.960 . S
C1910 H1897 0.960 . S
C1910 C1909 1.524 . S
C1911 C1908 1.403 . S
C1911 C1912 1.392 . S
C1911 C1915 1.495 . S
C1912 C1911 1.392 . S
C1912 C1913 1.385 . S
C1912 C1914 1.478 . S
C1913 H1907 0.930 . S
C1913 C1909 1.400 . S
C1913 C1912 1.385 . S
C1914 C1912 1.478 . S
C1914 C1916 1.381 . S
C1914 C1920 1.383 . S
C1915 C1911 1.495 . S
C1915 H1921 0.959 . S
C1915 H1922 0.961 . S
C1915 H1923 0.960 . S
C1916 C1914 1.381 . S
C1916 C1917 1.394 . S
C1916 H1924 0.930 . S
C1917 C1916 1.394 . S
C1917 C1918 1.383 . S
C1917 H1925 0.929 . S
C1918 C1917 1.383 . S
C1918 C1919 1.377 . S
C1919 H1903 0.930 . S
C1919 C1918 1.377 . S
C1919 C1920 1.379 . S
C1920 H1904 0.931 . S
C1920 C1914 1.383 . S
C1920 C1919 1.379 . S
H1921 C1915 0.959 . S
H1922 C1915 0.961 . S
H1923 C1915 0.960 . S
H1924 C1916 0.930 . S
H1925 C1917 0.929 . S
H1926 C1934 0.929 . S
H1927 C1936 0.930 . S
H1928 C1938 0.930 . S
H1929 C1941 0.929 . S
H1930 C1944 0.930 . S
H1931 C1946 0.960 . S
H1932 C1946 0.960 . S
H1933 C1946 0.960 . S
C1934 H1926 0.929 . S
C1934 C1935 1.377 . S
C1934 C1936 1.384 . S
C1935 C1934 1.377 . S
C1935 C1941 1.390 . S
C1936 H1927 0.930 . S
C1936 C1934 1.384 . S
C1936 C1937 1.372 . S
C1937 C1936 1.372 . S
C1937 C1938 1.400 . S
C1937 C1942 1.490 . S
C1938 H1928 0.930 . S
C1938 C1937 1.400 . S
C1938 C1941 1.386 . S
H1939 C1955 0.930 . S
H1940 C1956 0.931 . S
C1941 H1929 0.929 . S
C1941 C1935 1.390 . S
C1941 C1938 1.386 . S
C1942 C1937 1.490 . S
C1942 C1944 1.395 . S
C1942 C1945 1.403 . S
H1943 C1949 0.930 . S
C1944 H1930 0.930 . S
C1944 C1942 1.395 . S
C1944 C1947 1.403 . S
C1945 C1942 1.403 . S
C1945 C1946 1.524 . S
C1945 C1949 1.400 . S
C1946 H1931 0.960 . S
C1946 H1932 0.960 . S
C1946 H1933 0.960 . S
C1946 C1945 1.524 . S
C1947 C1944 1.403 . S
C1947 C1948 1.392 . S
C1947 C1951 1.495 . S
C1948 C1947 1.392 . S
C1948 C1949 1.385 . S
C1948 C1950 1.478 . S
C1949 H1943 0.930 . S
C1949 C1945 1.400 . S
C1949 C1948 1.385 . S
C1950 C1948 1.478 . S
C1950 C1952 1.381 . S
C1950 C1956 1.383 . S
C1951 C1947 1.495 . S
C1951 H1957 0.959 . S
C1951 H1958 0.961 . S
C1951 H1959 0.960 . S
C1952 C1950 1.381 . S
C1952 C1953 1.394 . S
C1952 H1960 0.930 . S
C1953 C1952 1.394 . S
C1953 C1954 1.383 . S
C1953 H1961 0.929 . S
C1954 C1953 1.383 . S
C1954 C1955 1.377 . S
C1955 H1939 0.930 . S
C1955 C1954 1.377 . S
C1955 C1956 1.379 . S
C1956 H1940 0.931 . S
C1956 C1950 1.383 . S
C1956 C1955 1.379 . S
H1957 C1951 0.959 . S
H1958 C1951 0.961 . S
H1959 C1951 0.960 . S
H1960 C1952 0.930 . S
H1961 C1953 0.929 . S
H1962 C1970 0.929 . S
H1963 C1972 0.930 . S
H1964 C1974 0.930 . S
H1965 C1977 0.929 . S
H1966 C1980 0.930 . S
H1967 C1982 0.960 . S
H1968 C1982 0.960 . S
H1969 C1982 0.960 . S
C1970 H1962 0.929 . S
C1970 C1971 1.377 . S
C1970 C1972 1.384 . S
C1971 C1970 1.377 . S
C1971 C1977 1.390 . S
C1972 H1963 0.930 . S
C1972 C1970 1.384 . S
C1972 C1973 1.372 . S
C1973 C1972 1.372 . S
C1973 C1974 1.400 . S
C1973 C1978 1.490 . S
C1974 H1964 0.930 . S
C1974 C1973 1.400 . S
C1974 C1977 1.386 . S
H1975 C1991 0.930 . S
H1976 C1992 0.931 . S
C1977 H1965 0.929 . S
C1977 C1971 1.390 . S
C1977 C1974 1.386 . S
C1978 C1973 1.490 . S
C1978 C1980 1.395 . S
C1978 C1981 1.403 . S
H1979 C1985 0.930 . S
C1980 H1966 0.930 . S
C1980 C1978 1.395 . S
C1980 C1983 1.403 . S
C1981 C1978 1.403 . S
C1981 C1982 1.524 . S
C1981 C1985 1.400 . S
C1982 H1967 0.960 . S
C1982 H1968 0.960 . S
C1982 H1969 0.960 . S
C1982 C1981 1.524 . S
C1983 C1980 1.403 . S
C1983 C1984 1.392 . S
C1983 C1987 1.495 . S
C1984 C1983 1.392 . S
C1984 C1985 1.385 . S
C1984 C1986 1.478 . S
C1985 H1979 0.930 . S
C1985 C1981 1.400 . S
C1985 C1984 1.385 . S
C1986 C1984 1.478 . S
C1986 C1988 1.381 . S
C1986 C1992 1.383 . S
C1987 C1983 1.495 . S
C1987 H1993 0.959 . S
C1987 H1994 0.961 . S
C1987 H1995 0.960 . S
C1988 C1986 1.381 . S
C1988 C1989 1.394 . S
C1988 H1996 0.930 . S
C1989 C1988 1.394 . S
C1989 C1990 1.383 . S
C1989 H1997 0.929 . S
C1990 C1989 1.383 . S
C1990 C1991 1.377 . S
C1991 H1975 0.930 . S
C1991 C1990 1.377 . S
C1991 C1992 1.379 . S
C1992 H1976 0.931 . S
C1992 C1986 1.383 . S
C1992 C1991 1.379 . S
H1993 C1987 0.959 . S
H1994 C1987 0.961 . S
H1995 C1987 0.960 . S
H1996 C1988 0.930 . S
H1997 C1989 0.929 . S
H1998 C2006 0.929 . S
H1999 C2008 0.930 . S
H2000 C2010 0.930 . S
H2001 C2013 0.929 . S
H2002 C2016 0.930 . S
H2003 C2018 0.960 . S
H2004 C2018 0.960 . S
H2005 C2018 0.960 . S
C2006 H1998 0.929 . S
C2006 C2007 1.377 . S
C2006 C2008 1.384 . S
C2007 C2006 1.377 . S
C2007 C2013 1.390 . S
C2008 H1999 0.930 . S
C2008 C2006 1.384 . S
C2008 C2009 1.372 . S
C2009 C2008 1.372 . S
C2009 C2010 1.400 . S
C2009 C2014 1.490 . S
C2010 H2000 0.930 . S
C2010 C2009 1.400 . S
C2010 C2013 1.386 . S
H2011 C2027 0.930 . S
H2012 C2028 0.931 . S
C2013 H2001 0.929 . S
C2013 C2007 1.390 . S
C2013 C2010 1.386 . S
C2014 C2009 1.490 . S
C2014 C2016 1.395 . S
C2014 C2017 1.403 . S
H2015 C2021 0.930 . S
C2016 H2002 0.930 . S
C2016 C2014 1.395 . S
C2016 C2019 1.403 . S
C2017 C2014 1.403 . S
C2017 C2018 1.524 . S
C2017 C2021 1.400 . S
C2018 H2003 0.960 . S
C2018 H2004 0.960 . S
C2018 H2005 0.960 . S
C2018 C2017 1.524 . S
C2019 C2016 1.403 . S
C2019 C2020 1.392 . S
C2019 C2023 1.495 . S
C2020 C2019 1.392 . S
C2020 C2021 1.385 . S
C2020 C2022 1.478 . S
C2021 H2015 0.930 . S
C2021 C2017 1.400 . S
C2021 C2020 1.385 . S
C2022 C2020 1.478 . S
C2022 C2024 1.381 . S
C2022 C2028 1.383 . S
C2023 C2019 1.495 . S
C2023 H2029 0.959 . S
C2023 H2030 0.961 . S
C2023 H2031 0.960 . S
C2024 C2022 1.381 . S
C2024 C2025 1.394 . S
C2024 H2032 0.930 . S
C2025 C2024 1.394 . S
C2025 C2026 1.383 . S
C2025 H2033 0.929 . S
C2026 C2025 1.383 . S
C2026 C2027 1.377 . S
C2027 H2011 0.930 . S
C2027 C2026 1.377 . S
C2027 C2028 1.379 . S
C2028 H2012 0.931 . S
C2028 C2022 1.383 . S
C2028 C2027 1.379 . S
H2029 C2023 0.959 . S
H2030 C2023 0.961 . S
H2031 C2023 0.960 . S
H2032 C2024 0.930 . S
H2033 C2025 0.929 . S
H2034 C2042 0.929 . S
H2035 C2044 0.930 . S
H2036 C2046 0.930 . S
H2037 C2049 0.929 . S
H2038 C2052 0.930 . S
H2039 C2054 0.960 . S
H2040 C2054 0.960 . S
H2041 C2054 0.960 . S
C2042 H2034 0.929 . S
C2042 C2043 1.377 . S
C2042 C2044 1.384 . S
C2043 C2042 1.377 . S
C2043 C2049 1.390 . S
C2044 H2035 0.930 . S
C2044 C2042 1.384 . S
C2044 C2045 1.372 . S
C2045 C2044 1.372 . S
C2045 C2046 1.400 . S
C2045 C2050 1.490 . S
C2046 H2036 0.930 . S
C2046 C2045 1.400 . S
C2046 C2049 1.386 . S
H2047 C2063 0.930 . S
H2048 C2064 0.931 . S
C2049 H2037 0.929 . S
C2049 C2043 1.390 . S
C2049 C2046 1.386 . S
C2050 C2045 1.490 . S
C2050 C2052 1.395 . S
C2050 C2053 1.403 . S
H2051 C2057 0.930 . S
C2052 H2038 0.930 . S
C2052 C2050 1.395 . S
C2052 C2055 1.403 . S
C2053 C2050 1.403 . S
C2053 C2054 1.524 . S
C2053 C2057 1.400 . S
C2054 H2039 0.960 . S
C2054 H2040 0.960 . S
C2054 H2041 0.960 . S
C2054 C2053 1.524 . S
C2055 C2052 1.403 . S
C2055 C2056 1.392 . S
C2055 C2059 1.495 . S
C2056 C2055 1.392 . S
C2056 C2057 1.385 . S
C2056 C2058 1.478 . S
C2057 H2051 0.930 . S
C2057 C2053 1.400 . S
C2057 C2056 1.385 . S
C2058 C2056 1.478 . S
C2058 C2060 1.381 . S
C2058 C2064 1.383 . S
C2059 C2055 1.495 . S
C2059 H2065 0.959 . S
C2059 H2066 0.961 . S
C2059 H2067 0.960 . S
C2060 C2058 1.381 . S
C2060 C2061 1.394 . S
C2060 H2068 0.930 . S
C2061 C2060 1.394 . S
C2061 C2062 1.383 . S
C2061 H2069 0.929 . S
C2062 C2061 1.383 . S
C2062 C2063 1.377 . S
C2063 H2047 0.930 . S
C2063 C2062 1.377 . S
C2063 C2064 1.379 . S
C2064 H2048 0.931 . S
C2064 C2058 1.383 . S
C2064 C2063 1.379 . S
H2065 C2059 0.959 . S
H2066 C2059 0.961 . S
H2067 C2059 0.960 . S
H2068 C2060 0.930 . S
H2069 C2061 0.929 . S
H2070 C2078 0.929 . S
H2071 C2080 0.930 . S
H2072 C2082 0.930 . S
H2073 C2085 0.929 . S
H2074 C2088 0.930 . S
H2075 C2090 0.960 . S
H2076 C2090 0.960 . S
H2077 C2090 0.960 . S
C2078 H2070 0.929 . S
C2078 C2079 1.377 . S
C2078 C2080 1.384 . S
C2079 C2078 1.377 . S
C2079 C2085 1.390 . S
C2080 H2071 0.930 . S
C2080 C2078 1.384 . S
C2080 C2081 1.372 . S
C2081 C2080 1.372 . S
C2081 C2082 1.400 . S
C2081 C2086 1.490 . S
C2082 H2072 0.930 . S
C2082 C2081 1.400 . S
C2082 C2085 1.386 . S
H2083 C2099 0.930 . S
H2084 C2100 0.931 . S
C2085 H2073 0.929 . S
C2085 C2079 1.390 . S
C2085 C2082 1.386 . S
C2086 C2081 1.490 . S
C2086 C2088 1.395 . S
C2086 C2089 1.403 . S
H2087 C2093 0.930 . S
C2088 H2074 0.930 . S
C2088 C2086 1.395 . S
C2088 C2091 1.403 . S
C2089 C2086 1.403 . S
C2089 C2090 1.524 . S
C2089 C2093 1.400 . S
C2090 H2075 0.960 . S
C2090 H2076 0.960 . S
C2090 H2077 0.960 . S
C2090 C2089 1.524 . S
C2091 C2088 1.403 . S
C2091 C2092 1.392 . S
C2091 C2095 1.495 . S
C2092 C2091 1.392 . S
C2092 C2093 1.385 . S
C2092 C2094 1.478 . S
C2093 H2087 0.930 . S
C2093 C2089 1.400 . S
C2093 C2092 1.385 . S
C2094 C2092 1.478 . S
C2094 C2096 1.381 . S
C2094 C2100 1.383 . S
C2095 C2091 1.495 . S
C2095 H2101 0.959 . S
C2095 H2102 0.961 . S
C2095 H2103 0.960 . S
C2096 C2094 1.381 . S
C2096 C2097 1.394 . S
C2096 H2104 0.930 . S
C2097 C2096 1.394 . S
C2097 C2098 1.383 . S
C2097 H2105 0.929 . S
C2098 C2097 1.383 . S
C2098 C2099 1.377 . S
C2099 H2083 0.930 . S
C2099 C2098 1.377 . S
C2099 C2100 1.379 . S
C2100 H2084 0.931 . S
C2100 C2094 1.383 . S
C2100 C2099 1.379 . S
H2101 C2095 0.959 . S
H2102 C2095 0.961 . S
H2103 C2095 0.960 . S
H2104 C2096 0.930 . S
H2105 C2097 0.929 . S
H2106 C2114 0.929 . S
H2107 C2116 0.930 . S
H2108 C2118 0.930 . S
H2109 C2121 0.929 . S
H2110 C2124 0.930 . S
H2111 C2126 0.960 . S
H2112 C2126 0.960 . S
H2113 C2126 0.960 . S
C2114 H2106 0.929 . S
C2114 C2115 1.377 . S
C2114 C2116 1.384 . S
C2115 C2114 1.377 . S
C2115 C2121 1.390 . S
C2116 H2107 0.930 . S
C2116 C2114 1.384 . S
C2116 C2117 1.372 . S
C2117 C2116 1.372 . S
C2117 C2118 1.400 . S
C2117 C2122 1.490 . S
C2118 H2108 0.930 . S
C2118 C2117 1.400 . S
C2118 C2121 1.386 . S
H2119 C2135 0.930 . S
H2120 C2136 0.931 . S
C2121 H2109 0.929 . S
C2121 C2115 1.390 . S
C2121 C2118 1.386 . S
C2122 C2117 1.490 . S
C2122 C2124 1.395 . S
C2122 C2125 1.403 . S
H2123 C2129 0.930 . S
C2124 H2110 0.930 . S
C2124 C2122 1.395 . S
C2124 C2127 1.403 . S
C2125 C2122 1.403 . S
C2125 C2126 1.524 . S
C2125 C2129 1.400 . S
C2126 H2111 0.960 . S
C2126 H2112 0.960 . S
C2126 H2113 0.960 . S
C2126 C2125 1.524 . S
C2127 C2124 1.403 . S
C2127 C2128 1.392 . S
C2127 C2131 1.495 . S
C2128 C2127 1.392 . S
C2128 C2129 1.385 . S
C2128 C2130 1.478 . S
C2129 H2123 0.930 . S
C2129 C2125 1.400 . S
C2129 C2128 1.385 . S
C2130 C2128 1.478 . S
C2130 C2132 1.381 . S
C2130 C2136 1.383 . S
C2131 C2127 1.495 . S
C2131 H2137 0.959 . S
C2131 H2138 0.961 . S
C2131 H2139 0.960 . S
C2132 C2130 1.381 . S
C2132 C2133 1.394 . S
C2132 H2140 0.930 . S
C2133 C2132 1.394 . S
C2133 C2134 1.383 . S
C2133 H2141 0.929 . S
C2134 C2133 1.383 . S
C2134 C2135 1.377 . S
C2135 H2119 0.930 . S
C2135 C2134 1.377 . S
C2135 C2136 1.379 . S
C2136 H2120 0.931 . S
C2136 C2130 1.383 . S
C2136 C2135 1.379 . S
H2137 C2131 0.959 . S
H2138 C2131 0.961 . S
H2139 C2131 0.960 . S
H2140 C2132 0.930 . S
H2141 C2133 0.929 . S
H2142 C2150 0.929 . S
H2143 C2152 0.930 . S
H2144 C2154 0.930 . S
H2145 C2157 0.929 . S
H2146 C2160 0.930 . S
H2147 C2162 0.960 . S
H2148 C2162 0.960 . S
H2149 C2162 0.960 . S
C2150 H2142 0.929 . S
C2150 C2151 1.377 . S
C2150 C2152 1.384 . S
C2151 C2150 1.377 . S
C2151 C2157 1.390 . S
C2152 H2143 0.930 . S
C2152 C2150 1.384 . S
C2152 C2153 1.372 . S
C2153 C2152 1.372 . S
C2153 C2154 1.400 . S
C2153 C2158 1.490 . S
C2154 H2144 0.930 . S
C2154 C2153 1.400 . S
C2154 C2157 1.386 . S
H2155 C2171 0.930 . S
H2156 C2172 0.931 . S
C2157 H2145 0.929 . S
C2157 C2151 1.390 . S
C2157 C2154 1.386 . S
C2158 C2153 1.490 . S
C2158 C2160 1.395 . S
C2158 C2161 1.403 . S
H2159 C2165 0.930 . S
C2160 H2146 0.930 . S
C2160 C2158 1.395 . S
C2160 C2163 1.403 . S
C2161 C2158 1.403 . S
C2161 C2162 1.524 . S
C2161 C2165 1.400 . S
C2162 H2147 0.960 . S
C2162 H2148 0.960 . S
C2162 H2149 0.960 . S
C2162 C2161 1.524 . S
C2163 C2160 1.403 . S
C2163 C2164 1.392 . S
C2163 C2167 1.495 . S
C2164 C2163 1.392 . S
C2164 C2165 1.385 . S
C2164 C2166 1.478 . S
C2165 H2159 0.930 . S
C2165 C2161 1.400 . S
C2165 C2164 1.385 . S
C2166 C2164 1.478 . S
C2166 C2168 1.381 . S
C2166 C2172 1.383 . S
C2167 C2163 1.495 . S
C2167 H2173 0.959 . S
C2167 H2174 0.961 . S
C2167 H2175 0.960 . S
C2168 C2166 1.381 . S
C2168 C2169 1.394 . S
C2168 H2176 0.930 . S
C2169 C2168 1.394 . S
C2169 C2170 1.383 . S
C2169 H2177 0.929 . S
C2170 C2169 1.383 . S
C2170 C2171 1.377 . S
C2171 H2155 0.930 . S
C2171 C2170 1.377 . S
C2171 C2172 1.379 . S
C2172 H2156 0.931 . S
C2172 C2166 1.383 . S
C2172 C2171 1.379 . S
H2173 C2167 0.959 . S
H2174 C2167 0.961 . S
H2175 C2167 0.960 . S
H2176 C2168 0.930 . S
H2177 C2169 0.929 . S
H2178 C2186 0.929 . S
H2179 C2188 0.930 . S
H2180 C2190 0.930 . S
H2181 C2193 0.929 . S
H2182 C2196 0.930 . S
H2183 C2198 0.960 . S
H2184 C2198 0.960 . S
H2185 C2198 0.960 . S
C2186 H2178 0.929 . S
C2186 C2187 1.377 . S
C2186 C2188 1.384 . S
C2187 C2186 1.377 . S
C2187 C2193 1.390 . S
C2188 H2179 0.930 . S
C2188 C2186 1.384 . S
C2188 C2189 1.372 . S
C2189 C2188 1.372 . S
C2189 C2190 1.400 . S
C2189 C2194 1.490 . S
C2190 H2180 0.930 . S
C2190 C2189 1.400 . S
C2190 C2193 1.386 . S
H2191 C2207 0.930 . S
H2192 C2208 0.931 . S
C2193 H2181 0.929 . S
C2193 C2187 1.390 . S
C2193 C2190 1.386 . S
C2194 C2189 1.490 . S
C2194 C2196 1.395 . S
C2194 C2197 1.403 . S
H2195 C2201 0.930 . S
C2196 H2182 0.930 . S
C2196 C2194 1.395 . S
C2196 C2199 1.403 . S
C2197 C2194 1.403 . S
C2197 C2198 1.524 . S
C2197 C2201 1.400 . S
C2198 H2183 0.960 . S
C2198 H2184 0.960 . S
C2198 H2185 0.960 . S
C2198 C2197 1.524 . S
C2199 C2196 1.403 . S
C2199 C2200 1.392 . S
C2199 C2203 1.495 . S
C2200 C2199 1.392 . S
C2200 C2201 1.385 . S
C2200 C2202 1.478 . S
C2201 H2195 0.930 . S
C2201 C2197 1.400 . S
C2201 C2200 1.385 . S
C2202 C2200 1.478 . S
C2202 C2204 1.381 . S
C2202 C2208 1.383 . S
C2203 C2199 1.495 . S
C2203 H2209 0.959 . S
C2203 H2210 0.961 . S
C2203 H2211 0.960 . S
C2204 C2202 1.381 . S
C2204 C2205 1.394 . S
C2204 H2212 0.930 . S
C2205 C2204 1.394 . S
C2205 C2206 1.383 . S
C2205 H2213 0.929 . S
C2206 C2205 1.383 . S
C2206 C2207 1.377 . S
C2207 H2191 0.930 . S
C2207 C2206 1.377 . S
C2207 C2208 1.379 . S
C2208 H2192 0.931 . S
C2208 C2202 1.383 . S
C2208 C2207 1.379 . S
H2209 C2203 0.959 . S
H2210 C2203 0.961 . S
H2211 C2203 0.960 . S
H2212 C2204 0.930 . S
H2213 C2205 0.929 . S
H2214 C2222 0.929 . S
H2215 C2224 0.930 . S
H2216 C2226 0.930 . S
H2217 C2229 0.929 . S
H2218 C2232 0.930 . S
H2219 C2234 0.960 . S
H2220 C2234 0.960 . S
H2221 C2234 0.960 . S
C2222 H2214 0.929 . S
C2222 C2223 1.377 . S
C2222 C2224 1.384 . S
C2223 C2222 1.377 . S
C2223 C2229 1.390 . S
C2224 H2215 0.930 . S
C2224 C2222 1.384 . S
C2224 C2225 1.372 . S
C2225 C2224 1.372 . S
C2225 C2226 1.400 . S
C2225 C2230 1.490 . S
C2226 H2216 0.930 . S
C2226 C2225 1.400 . S
C2226 C2229 1.386 . S
H2227 C2243 0.930 . S
H2228 C2244 0.931 . S
C2229 H2217 0.929 . S
C2229 C2223 1.390 . S
C2229 C2226 1.386 . S
C2230 C2225 1.490 . S
C2230 C2232 1.395 . S
C2230 C2233 1.403 . S
H2231 C2237 0.930 . S
C2232 H2218 0.930 . S
C2232 C2230 1.395 . S
C2232 C2235 1.403 . S
C2233 C2230 1.403 . S
C2233 C2234 1.524 . S
C2233 C2237 1.400 . S
C2234 H2219 0.960 . S
C2234 H2220 0.960 . S
C2234 H2221 0.960 . S
C2234 C2233 1.524 . S
C2235 C2232 1.403 . S
C2235 C2236 1.392 . S
C2235 C2239 1.495 . S
C2236 C2235 1.392 . S
C2236 C2237 1.385 . S
C2236 C2238 1.478 . S
C2237 H2231 0.930 . S
C2237 C2233 1.400 . S
C2237 C2236 1.385 . S
C2238 C2236 1.478 . S
C2238 C2240 1.381 . S
C2238 C2244 1.383 . S
C2239 C2235 1.495 . S
C2239 H2245 0.959 . S
C2239 H2246 0.961 . S
C2239 H2247 0.960 . S
C2240 C2238 1.381 . S
C2240 C2241 1.394 . S
C2240 H2248 0.930 . S
C2241 C2240 1.394 . S
C2241 C2242 1.383 . S
C2241 H2249 0.929 . S
C2242 C2241 1.383 . S
C2242 C2243 1.377 . S
C2243 H2227 0.930 . S
C2243 C2242 1.377 . S
C2243 C2244 1.379 . S
C2244 H2228 0.931 . S
C2244 C2238 1.383 . S
C2244 C2243 1.379 . S
H2245 C2239 0.959 . S
H2246 C2239 0.961 . S
H2247 C2239 0.960 . S
H2248 C2240 0.930 . S
H2249 C2241 0.929 . S
H2250 C2258 0.929 . S
H2251 C2260 0.930 . S
H2252 C2262 0.930 . S
H2253 C2265 0.929 . S
H2254 C2268 0.930 . S
H2255 C2270 0.960 . S
H2256 C2270 0.960 . S
H2257 C2270 0.960 . S
C2258 H2250 0.929 . S
C2258 C2259 1.377 . S
C2258 C2260 1.384 . S
C2259 C2258 1.377 . S
C2259 C2265 1.390 . S
C2260 H2251 0.930 . S
C2260 C2258 1.384 . S
C2260 C2261 1.372 . S
C2261 C2260 1.372 . S
C2261 C2262 1.400 . S
C2261 C2266 1.490 . S
C2262 H2252 0.930 . S
C2262 C2261 1.400 . S
C2262 C2265 1.386 . S
H2263 C2279 0.930 . S
H2264 C2280 0.931 . S
C2265 H2253 0.929 . S
C2265 C2259 1.390 . S
C2265 C2262 1.386 . S
C2266 C2261 1.490 . S
C2266 C2268 1.395 . S
C2266 C2269 1.403 . S
H2267 C2273 0.930 . S
C2268 H2254 0.930 . S
C2268 C2266 1.395 . S
C2268 C2271 1.403 . S
C2269 C2266 1.403 . S
C2269 C2270 1.524 . S
C2269 C2273 1.400 . S
C2270 H2255 0.960 . S
C2270 H2256 0.960 . S
C2270 H2257 0.960 . S
C2270 C2269 1.524 . S
C2271 C2268 1.403 . S
C2271 C2272 1.392 . S
C2271 C2275 1.495 . S
C2272 C2271 1.392 . S
C2272 C2273 1.385 . S
C2272 C2274 1.478 . S
C2273 H2267 0.930 . S
C2273 C2269 1.400 . S
C2273 C2272 1.385 . S
C2274 C2272 1.478 . S
C2274 C2276 1.381 . S
C2274 C2280 1.383 . S
C2275 C2271 1.495 . S
C2275 H2281 0.959 . S
C2275 H2282 0.961 . S
C2275 H2283 0.960 . S
C2276 C2274 1.381 . S
C2276 C2277 1.394 . S
C2276 H2284 0.930 . S
C2277 C2276 1.394 . S
C2277 C2278 1.383 . S
C2277 H2285 0.929 . S
C2278 C2277 1.383 . S
C2278 C2279 1.377 . S
C2279 H2263 0.930 . S
C2279 C2278 1.377 . S
C2279 C2280 1.379 . S
C2280 H2264 0.931 . S
C2280 C2274 1.383 . S
C2280 C2279 1.379 . S
H2281 C2275 0.959 . S
H2282 C2275 0.961 . S
H2283 C2275 0.960 . S
H2284 C2276 0.930 . S
H2285 C2277 0.929 . S
H2286 C2294 0.929 . S
H2287 C2296 0.930 . S
H2288 C2298 0.930 . S
H2289 C2301 0.929 . S
H2290 C2304 0.930 . S
H2291 C2306 0.960 . S
H2292 C2306 0.960 . S
H2293 C2306 0.960 . S
C2294 H2286 0.929 . S
C2294 C2295 1.377 . S
C2294 C2296 1.384 . S
C2295 C2294 1.377 . S
C2295 C2301 1.390 . S
C2296 H2287 0.930 . S
C2296 C2294 1.384 . S
C2296 C2297 1.372 . S
C2297 C2296 1.372 . S
C2297 C2298 1.400 . S
C2297 C2302 1.490 . S
C2298 H2288 0.930 . S
C2298 C2297 1.400 . S
C2298 C2301 1.386 . S
H2299 C2315 0.930 . S
H2300 C2316 0.931 . S
C2301 H2289 0.929 . S
C2301 C2295 1.390 . S
C2301 C2298 1.386 . S
C2302 C2297 1.490 . S
C2302 C2304 1.395 . S
C2302 C2305 1.403 . S
H2303 C2309 0.930 . S
C2304 H2290 0.930 . S
C2304 C2302 1.395 . S
C2304 C2307 1.403 . S
C2305 C2302 1.403 . S
C2305 C2306 1.524 . S
C2305 C2309 1.400 . S
C2306 H2291 0.960 . S
C2306 H2292 0.960 . S
C2306 H2293 0.960 . S
C2306 C2305 1.524 . S
C2307 C2304 1.403 . S
C2307 C2308 1.392 . S
C2307 C2311 1.495 . S
C2308 C2307 1.392 . S
C2308 C2309 1.385 . S
C2308 C2310 1.478 . S
C2309 H2303 0.930 . S
C2309 C2305 1.400 . S
C2309 C2308 1.385 . S
C2310 C2308 1.478 . S
C2310 C2312 1.381 . S
C2310 C2316 1.383 . S
C2311 C2307 1.495 . S
C2311 H2317 0.959 . S
C2311 H2318 0.961 . S
C2311 H2319 0.960 . S
C2312 C2310 1.381 . S
C2312 C2313 1.394 . S
C2312 H2320 0.930 . S
C2313 C2312 1.394 . S
C2313 C2314 1.383 . S
C2313 H2321 0.929 . S
C2314 C2313 1.383 . S
C2314 C2315 1.377 . S
C2315 H2299 0.930 . S
C2315 C2314 1.377 . S
C2315 C2316 1.379 . S
C2316 H2300 0.931 . S
C2316 C2310 1.383 . S
C2316 C2315 1.379 . S
H2317 C2311 0.959 . S
H2318 C2311 0.961 . S
H2319 C2311 0.960 . S
H2320 C2312 0.930 . S
H2321 C2313 0.929 . S
H2322 C2330 0.929 . S
H2323 C2332 0.930 . S
H2324 C2334 0.930 . S
H2325 C2337 0.929 . S
H2326 C2340 0.930 . S
H2327 C2342 0.960 . S
H2328 C2342 0.960 . S
H2329 C2342 0.960 . S
C2330 H2322 0.929 . S
C2330 C2331 1.377 . S
C2330 C2332 1.384 . S
C2331 C2330 1.377 . S
C2331 C2337 1.390 . S
C2332 H2323 0.930 . S
C2332 C2330 1.384 . S
C2332 C2333 1.372 . S
C2333 C2332 1.372 . S
C2333 C2334 1.400 . S
C2333 C2338 1.490 . S
C2334 H2324 0.930 . S
C2334 C2333 1.400 . S
C2334 C2337 1.386 . S
H2335 C2351 0.930 . S
H2336 C2352 0.931 . S
C2337 H2325 0.929 . S
C2337 C2331 1.390 . S
C2337 C2334 1.386 . S
C2338 C2333 1.490 . S
C2338 C2340 1.395 . S
C2338 C2341 1.403 . S
H2339 C2345 0.930 . S
C2340 H2326 0.930 . S
C2340 C2338 1.395 . S
C2340 C2343 1.403 . S
C2341 C2338 1.403 . S
C2341 C2342 1.524 . S
C2341 C2345 1.400 . S
C2342 H2327 0.960 . S
C2342 H2328 0.960 . S
C2342 H2329 0.960 . S
C2342 C2341 1.524 . S
C2343 C2340 1.403 . S
C2343 C2344 1.392 . S
C2343 C2347 1.495 . S
C2344 C2343 1.392 . S
C2344 C2345 1.385 . S
C2344 C2346 1.478 . S
C2345 H2339 0.930 . S
C2345 C2341 1.400 . S
C2345 C2344 1.385 . S
C2346 C2344 1.478 . S
C2346 C2348 1.381 . S
C2346 C2352 1.383 . S
C2347 C2343 1.495 . S
C2347 H2353 0.959 . S
C2347 H2354 0.961 . S
C2347 H2355 0.960 . S
C2348 C2346 1.381 . S
C2348 C2349 1.394 . S
C2348 H2356 0.930 . S
C2349 C2348 1.394 . S
C2349 C2350 1.383 . S
C2349 H2357 0.929 . S
C2350 C2349 1.383 . S
C2350 C2351 1.377 . S
C2351 H2335 0.930 . S
C2351 C2350 1.377 . S
C2351 C2352 1.379 . S
C2352 H2336 0.931 . S
C2352 C2346 1.383 . S
C2352 C2351 1.379 . S
H2353 C2347 0.959 . S
H2354 C2347 0.961 . S
H2355 C2347 0.960 . S
H2356 C2348 0.930 . S
H2357 C2349 0.929 . S
H2358 C2366 0.929 . S
H2359 C2368 0.930 . S
H2360 C2370 0.930 . S
H2361 C2373 0.929 . S
H2362 C2376 0.930 . S
H2363 C2378 0.960 . S
H2364 C2378 0.960 . S
H2365 C2378 0.960 . S
C2366 H2358 0.929 . S
C2366 C2367 1.377 . S
C2366 C2368 1.384 . S
C2367 C2366 1.377 . S
C2367 C2373 1.390 . S
C2368 H2359 0.930 . S
C2368 C2366 1.384 . S
C2368 C2369 1.372 . S
C2369 C2368 1.372 . S
C2369 C2370 1.400 . S
C2369 C2374 1.490 . S
C2370 H2360 0.930 . S
C2370 C2369 1.400 . S
C2370 C2373 1.386 . S
H2371 C2387 0.930 . S
H2372 C2388 0.931 . S
C2373 H2361 0.929 . S
C2373 C2367 1.390 . S
C2373 C2370 1.386 . S
C2374 C2369 1.490 . S
C2374 C2376 1.395 . S
C2374 C2377 1.403 . S
H2375 C2381 0.930 . S
C2376 H2362 0.930 . S
C2376 C2374 1.395 . S
C2376 C2379 1.403 . S
C2377 C2374 1.403 . S
C2377 C2378 1.524 . S
C2377 C2381 1.400 . S
C2378 H2363 0.960 . S
C2378 H2364 0.960 . S
C2378 H2365 0.960 . S
C2378 C2377 1.524 . S
C2379 C2376 1.403 . S
C2379 C2380 1.392 . S
C2379 C2383 1.495 . S
C2380 C2379 1.392 . S
C2380 C2381 1.385 . S
C2380 C2382 1.478 . S
C2381 H2375 0.930 . S
C2381 C2377 1.400 . S
C2381 C2380 1.385 . S
C2382 C2380 1.478 . S
C2382 C2384 1.381 . S
C2382 C2388 1.383 . S
C2383 C2379 1.495 . S
C2383 H2389 0.959 . S
C2383 H2390 0.961 . S
C2383 H2391 0.960 . S
C2384 C2382 1.381 . S
C2384 C2385 1.394 . S
C2384 H2392 0.930 . S
C2385 C2384 1.394 . S
C2385 C2386 1.383 . S
C2385 H2393 0.929 . S
C2386 C2385 1.383 . S
C2386 C2387 1.377 . S
C2387 H2371 0.930 . S
C2387 C2386 1.377 . S
C2387 C2388 1.379 . S
C2388 H2372 0.931 . S
C2388 C2382 1.383 . S
C2388 C2387 1.379 . S
H2389 C2383 0.959 . S
H2390 C2383 0.961 . S
H2391 C2383 0.960 . S
H2392 C2384 0.930 . S
H2393 C2385 0.929 . S
H2394 C2402 0.929 . S
H2395 C2404 0.930 . S
H2396 C2406 0.930 . S
H2397 C2409 0.929 . S
H2398 C2412 0.930 . S
H2399 C2414 0.960 . S
H2400 C2414 0.960 . S
H2401 C2414 0.960 . S
C2402 H2394 0.929 . S
C2402 C2403 1.377 . S
C2402 C2404 1.384 . S
C2403 C2402 1.377 . S
C2403 C2409 1.390 . S
C2404 H2395 0.930 . S
C2404 C2402 1.384 . S
C2404 C2405 1.372 . S
C2405 C2404 1.372 . S
C2405 C2406 1.400 . S
C2405 C2410 1.490 . S
C2406 H2396 0.930 . S
C2406 C2405 1.400 . S
C2406 C2409 1.386 . S
H2407 C2423 0.930 . S
H2408 C2424 0.931 . S
C2409 H2397 0.929 . S
C2409 C2403 1.390 . S
C2409 C2406 1.386 . S
C2410 C2405 1.490 . S
C2410 C2412 1.395 . S
C2410 C2413 1.403 . S
H2411 C2417 0.930 . S
C2412 H2398 0.930 . S
C2412 C2410 1.395 . S
C2412 C2415 1.403 . S
C2413 C2410 1.403 . S
C2413 C2414 1.524 . S
C2413 C2417 1.400 . S
C2414 H2399 0.960 . S
C2414 H2400 0.960 . S
C2414 H2401 0.960 . S
C2414 C2413 1.524 . S
C2415 C2412 1.403 . S
C2415 C2416 1.392 . S
C2415 C2419 1.495 . S
C2416 C2415 1.392 . S
C2416 C2417 1.385 . S
C2416 C2418 1.478 . S
C2417 H2411 0.930 . S
C2417 C2413 1.400 . S
C2417 C2416 1.385 . S
C2418 C2416 1.478 . S
C2418 C2420 1.381 . S
C2418 C2424 1.383 . S
C2419 C2415 1.495 . S
C2419 H2425 0.959 . S
C2419 H2426 0.961 . S
C2419 H2427 0.960 . S
C2420 C2418 1.381 . S
C2420 C2421 1.394 . S
C2420 H2428 0.930 . S
C2421 C2420 1.394 . S
C2421 C2422 1.383 . S
C2421 H2429 0.929 . S
C2422 C2421 1.383 . S
C2422 C2423 1.377 . S
C2423 H2407 0.930 . S
C2423 C2422 1.377 . S
C2423 C2424 1.379 . S
C2424 H2408 0.931 . S
C2424 C2418 1.383 . S
C2424 C2423 1.379 . S
H2425 C2419 0.959 . S
H2426 C2419 0.961 . S
H2427 C2419 0.960 . S
H2428 C2420 0.930 . S
H2429 C2421 0.929 . S
H2430 C2438 0.929 . S
H2431 C2440 0.930 . S
H2432 C2442 0.930 . S
H2433 C2445 0.929 . S
H2434 C2448 0.930 . S
H2435 C2450 0.960 . S
H2436 C2450 0.960 . S
H2437 C2450 0.960 . S
C2438 H2430 0.929 . S
C2438 C2439 1.377 . S
C2438 C2440 1.384 . S
C2439 C2438 1.377 . S
C2439 C2445 1.390 . S
C2440 H2431 0.930 . S
C2440 C2438 1.384 . S
C2440 C2441 1.372 . S
C2441 C2440 1.372 . S
C2441 C2442 1.400 . S
C2441 C2446 1.490 . S
C2442 H2432 0.930 . S
C2442 C2441 1.400 . S
C2442 C2445 1.386 . S
H2443 C2459 0.930 . S
H2444 C2460 0.931 . S
C2445 H2433 0.929 . S
C2445 C2439 1.390 . S
C2445 C2442 1.386 . S
C2446 C2441 1.490 . S
C2446 C2448 1.395 . S
C2446 C2449 1.403 . S
H2447 C2453 0.930 . S
C2448 H2434 0.930 . S
C2448 C2446 1.395 . S
C2448 C2451 1.403 . S
C2449 C2446 1.403 . S
C2449 C2450 1.524 . S
C2449 C2453 1.400 . S
C2450 H2435 0.960 . S
C2450 H2436 0.960 . S
C2450 H2437 0.960 . S
C2450 C2449 1.524 . S
C2451 C2448 1.403 . S
C2451 C2452 1.392 . S
C2451 C2455 1.495 . S
C2452 C2451 1.392 . S
C2452 C2453 1.385 . S
C2452 C2454 1.478 . S
C2453 H2447 0.930 . S
C2453 C2449 1.400 . S
C2453 C2452 1.385 . S
C2454 C2452 1.478 . S
C2454 C2456 1.381 . S
C2454 C2460 1.383 . S
C2455 C2451 1.495 . S
C2455 H2461 0.959 . S
C2455 H2462 0.961 . S
C2455 H2463 0.960 . S
C2456 C2454 1.381 . S
C2456 C2457 1.394 . S
C2456 H2464 0.930 . S
C2457 C2456 1.394 . S
C2457 C2458 1.383 . S
C2457 H2465 0.929 . S
C2458 C2457 1.383 . S
C2458 C2459 1.377 . S
C2459 H2443 0.930 . S
C2459 C2458 1.377 . S
C2459 C2460 1.379 . S
C2460 H2444 0.931 . S
C2460 C2454 1.383 . S
C2460 C2459 1.379 . S
H2461 C2455 0.959 . S
H2462 C2455 0.961 . S
H2463 C2455 0.960 . S
H2464 C2456 0.930 . S
H2465 C2457 0.929 . S
H2466 C2474 0.929 . S
H2467 C2476 0.930 . S
H2468 C2478 0.930 . S
H2469 C2481 0.929 . S
H2470 C2484 0.930 . S
H2471 C2486 0.960 . S
H2472 C2486 0.960 . S
H2473 C2486 0.960 . S
C2474 H2466 0.929 . S
C2474 C2475 1.377 . S
C2474 C2476 1.384 . S
C2475 C2474 1.377 . S
C2475 C2481 1.390 . S
C2476 H2467 0.930 . S
C2476 C2474 1.384 . S
C2476 C2477 1.372 . S
C2477 C2476 1.372 . S
C2477 C2478 1.400 . S
C2477 C2482 1.490 . S
C2478 H2468 0.930 . S
C2478 C2477 1.400 . S
C2478 C2481 1.386 . S
H2479 C2495 0.930 . S
H2480 C2496 0.931 . S
C2481 H2469 0.929 . S
C2481 C2475 1.390 . S
C2481 C2478 1.386 . S
C2482 C2477 1.490 . S
C2482 C2484 1.395 . S
C2482 C2485 1.403 . S
H2483 C2489 0.930 . S
C2484 H2470 0.930 . S
C2484 C2482 1.395 . S
C2484 C2487 1.403 . S
C2485 C2482 1.403 . S
C2485 C2486 1.524 . S
C2485 C2489 1.400 . S
C2486 H2471 0.960 . S
C2486 H2472 0.960 . S
C2486 H2473 0.960 . S
C2486 C2485 1.524 . S
C2487 C2484 1.403 . S
C2487 C2488 1.392 . S
C2487 C2491 1.495 . S
C2488 C2487 1.392 . S
C2488 C2489 1.385 . S
C2488 C2490 1.478 . S
C2489 H2483 0.930 . S
C2489 C2485 1.400 . S
C2489 C2488 1.385 . S
C2490 C2488 1.478 . S
C2490 C2492 1.381 . S
C2490 C2496 1.383 . S
C2491 C2487 1.495 . S
C2491 H2497 0.959 . S
C2491 H2498 0.961 . S
C2491 H2499 0.960 . S
C2492 C2490 1.381 . S
C2492 C2493 1.394 . S
C2492 H2500 0.930 . S
C2493 C2492 1.394 . S
C2493 C2494 1.383 . S
C2493 H2501 0.929 . S
C2494 C2493 1.383 . S
C2494 C2495 1.377 . S
C2495 H2479 0.930 . S
C2495 C2494 1.377 . S
C2495 C2496 1.379 . S
C2496 H2480 0.931 . S
C2496 C2490 1.383 . S
C2496 C2495 1.379 . S
H2497 C2491 0.959 . S
H2498 C2491 0.961 . S
H2499 C2491 0.960 . S
H2500 C2492 0.930 . S
H2501 C2493 0.929 . S
H2502 C2510 0.929 . S
H2503 C2512 0.930 . S
H2504 C2514 0.930 . S
H2505 C2517 0.929 . S
H2506 C2520 0.930 . S
H2507 C2522 0.960 . S
H2508 C2522 0.960 . S
H2509 C2522 0.960 . S
C2510 H2502 0.929 . S
C2510 C2511 1.377 . S
C2510 C2512 1.384 . S
C2511 C2510 1.377 . S
C2511 C2517 1.390 . S
C2512 H2503 0.930 . S
C2512 C2510 1.384 . S
C2512 C2513 1.372 . S
C2513 C2512 1.372 . S
C2513 C2514 1.400 . S
C2513 C2518 1.490 . S
C2514 H2504 0.930 . S
C2514 C2513 1.400 . S
C2514 C2517 1.386 . S
H2515 C2531 0.930 . S
H2516 C2532 0.931 . S
C2517 H2505 0.929 . S
C2517 C2511 1.390 . S
C2517 C2514 1.386 . S
C2518 C2513 1.490 . S
C2518 C2520 1.395 . S
C2518 C2521 1.403 . S
H2519 C2525 0.930 . S
C2520 H2506 0.930 . S
C2520 C2518 1.395 . S
C2520 C2523 1.403 . S
C2521 C2518 1.403 . S
C2521 C2522 1.524 . S
C2521 C2525 1.400 . S
C2522 H2507 0.960 . S
C2522 H2508 0.960 . S
C2522 H2509 0.960 . S
C2522 C2521 1.524 . S
C2523 C2520 1.403 . S
C2523 C2524 1.392 . S
C2523 C2527 1.495 . S
C2524 C2523 1.392 . S
C2524 C2525 1.385 . S
C2524 C2526 1.478 . S
C2525 H2519 0.930 . S
C2525 C2521 1.400 . S
C2525 C2524 1.385 . S
C2526 C2524 1.478 . S
C2526 C2528 1.381 . S
C2526 C2532 1.383 . S
C2527 C2523 1.495 . S
C2527 H2533 0.959 . S
C2527 H2534 0.961 . S
C2527 H2535 0.960 . S
C2528 C2526 1.381 . S
C2528 C2529 1.394 . S
C2528 H2536 0.930 . S
C2529 C2528 1.394 . S
C2529 C2530 1.383 . S
C2529 H2537 0.929 . S
C2530 C2529 1.383 . S
C2530 C2531 1.377 . S
C2531 H2515 0.930 . S
C2531 C2530 1.377 . S
C2531 C2532 1.379 . S
C2532 H2516 0.931 . S
C2532 C2526 1.383 . S
C2532 C2531 1.379 . S
H2533 C2527 0.959 . S
H2534 C2527 0.961 . S
H2535 C2527 0.960 . S
H2536 C2528 0.930 . S
H2537 C2529 0.929 . S
H2538 C2546 0.929 . S
H2539 C2548 0.930 . S
H2540 C2550 0.930 . S
H2541 C2553 0.929 . S
H2542 C2556 0.930 . S
H2543 C2558 0.960 . S
H2544 C2558 0.960 . S
H2545 C2558 0.960 . S
C2546 H2538 0.929 . S
C2546 C2547 1.377 . S
C2546 C2548 1.384 . S
C2547 C2546 1.377 . S
C2547 C2553 1.390 . S
C2548 H2539 0.930 . S
C2548 C2546 1.384 . S
C2548 C2549 1.372 . S
C2549 C2548 1.372 . S
C2549 C2550 1.400 . S
C2549 C2554 1.490 . S
C2550 H2540 0.930 . S
C2550 C2549 1.400 . S
C2550 C2553 1.386 . S
H2551 C2567 0.930 . S
H2552 C2568 0.931 . S
C2553 H2541 0.929 . S
C2553 C2547 1.390 . S
C2553 C2550 1.386 . S
C2554 C2549 1.490 . S
C2554 C2556 1.395 . S
C2554 C2557 1.403 . S
H2555 C2561 0.930 . S
C2556 H2542 0.930 . S
C2556 C2554 1.395 . S
C2556 C2559 1.403 . S
C2557 C2554 1.403 . S
C2557 C2558 1.524 . S
C2557 C2561 1.400 . S
C2558 H2543 0.960 . S
C2558 H2544 0.960 . S
C2558 H2545 0.960 . S
C2558 C2557 1.524 . S
C2559 C2556 1.403 . S
C2559 C2560 1.392 . S
C2559 C2563 1.495 . S
C2560 C2559 1.392 . S
C2560 C2561 1.385 . S
C2560 C2562 1.478 . S
C2561 H2555 0.930 . S
C2561 C2557 1.400 . S
C2561 C2560 1.385 . S
C2562 C2560 1.478 . S
C2562 C2564 1.381 . S
C2562 C2568 1.383 . S
C2563 C2559 1.495 . S
C2563 H2569 0.959 . S
C2563 H2570 0.961 . S
C2563 H2571 0.960 . S
C2564 C2562 1.381 . S
C2564 C2565 1.394 . S
C2564 H2572 0.930 . S
C2565 C2564 1.394 . S
C2565 C2566 1.383 . S
C2565 H2573 0.929 . S
C2566 C2565 1.383 . S
C2566 C2567 1.377 . S
C2567 H2551 0.930 . S
C2567 C2566 1.377 . S
C2567 C2568 1.379 . S
C2568 H2552 0.931 . S
C2568 C2562 1.383 . S
C2568 C2567 1.379 . S
H2569 C2563 0.959 . S
H2570 C2563 0.961 . S
H2571 C2563 0.960 . S
H2572 C2564 0.930 . S
H2573 C2565 0.929 . S
H2574 C2582 0.929 . S
H2575 C2584 0.930 . S
H2576 C2586 0.930 . S
H2577 C2589 0.929 . S
H2578 C2592 0.930 . S
H2579 C2594 0.960 . S
H2580 C2594 0.960 . S
H2581 C2594 0.960 . S
C2582 H2574 0.929 . S
C2582 C2583 1.377 . S
C2582 C2584 1.384 . S
C2583 C2582 1.377 . S
C2583 C2589 1.390 . S
C2584 H2575 0.930 . S
C2584 C2582 1.384 . S
C2584 C2585 1.372 . S
C2585 C2584 1.372 . S
C2585 C2586 1.400 . S
C2585 C2590 1.490 . S
C2586 H2576 0.930 . S
C2586 C2585 1.400 . S
C2586 C2589 1.386 . S
H2587 C2603 0.930 . S
H2588 C2604 0.931 . S
C2589 H2577 0.929 . S
C2589 C2583 1.390 . S
C2589 C2586 1.386 . S
C2590 C2585 1.490 . S
C2590 C2592 1.395 . S
C2590 C2593 1.403 . S
H2591 C2597 0.930 . S
C2592 H2578 0.930 . S
C2592 C2590 1.395 . S
C2592 C2595 1.403 . S
C2593 C2590 1.403 . S
C2593 C2594 1.524 . S
C2593 C2597 1.400 . S
C2594 H2579 0.960 . S
C2594 H2580 0.960 . S
C2594 H2581 0.960 . S
C2594 C2593 1.524 . S
C2595 C2592 1.403 . S
C2595 C2596 1.392 . S
C2595 C2599 1.495 . S
C2596 C2595 1.392 . S
C2596 C2597 1.385 . S
C2596 C2598 1.478 . S
C2597 H2591 0.930 . S
C2597 C2593 1.400 . S
C2597 C2596 1.385 . S
C2598 C2596 1.478 . S
C2598 C2600 1.381 . S
C2598 C2604 1.383 . S
C2599 C2595 1.495 . S
C2599 H2605 0.959 . S
C2599 H2606 0.961 . S
C2599 H2607 0.960 . S
C2600 C2598 1.381 . S
C2600 C2601 1.394 . S
C2600 H2608 0.930 . S
C2601 C2600 1.394 . S
C2601 C2602 1.383 . S
C2601 H2609 0.929 . S
C2602 C2601 1.383 . S
C2602 C2603 1.377 . S
C2603 H2587 0.930 . S
C2603 C2602 1.377 . S
C2603 C2604 1.379 . S
C2604 H2588 0.931 . S
C2604 C2598 1.383 . S
C2604 C2603 1.379 . S
H2605 C2599 0.959 . S
H2606 C2599 0.961 . S
H2607 C2599 0.960 . S
H2608 C2600 0.930 . S
H2609 C2601 0.929 . S
H2610 C2618 0.929 . S
H2611 C2620 0.930 . S
H2612 C2622 0.930 . S
H2613 C2625 0.929 . S
H2614 C2628 0.930 . S
H2615 C2630 0.960 . S
H2616 C2630 0.960 . S
H2617 C2630 0.960 . S
C2618 H2610 0.929 . S
C2618 C2619 1.377 . S
C2618 C2620 1.384 . S
C2619 C2618 1.377 . S
C2619 C2625 1.390 . S
C2620 H2611 0.930 . S
C2620 C2618 1.384 . S
C2620 C2621 1.372 . S
C2621 C2620 1.372 . S
C2621 C2622 1.400 . S
C2621 C2626 1.490 . S
C2622 H2612 0.930 . S
C2622 C2621 1.400 . S
C2622 C2625 1.386 . S
H2623 C2639 0.930 . S
H2624 C2640 0.931 . S
C2625 H2613 0.929 . S
C2625 C2619 1.390 . S
C2625 C2622 1.386 . S
C2626 C2621 1.490 . S
C2626 C2628 1.395 . S
C2626 C2629 1.403 . S
H2627 C2633 0.930 . S
C2628 H2614 0.930 . S
C2628 C2626 1.395 . S
C2628 C2631 1.403 . S
C2629 C2626 1.403 . S
C2629 C2630 1.524 . S
C2629 C2633 1.400 . S
C2630 H2615 0.960 . S
C2630 H2616 0.960 . S
C2630 H2617 0.960 . S
C2630 C2629 1.524 . S
C2631 C2628 1.403 . S
C2631 C2632 1.392 . S
C2631 C2635 1.495 . S
C2632 C2631 1.392 . S
C2632 C2633 1.385 . S
C2632 C2634 1.478 . S
C2633 H2627 0.930 . S
C2633 C2629 1.400 . S
C2633 C2632 1.385 . S
C2634 C2632 1.478 . S
C2634 C2636 1.381 . S
C2634 C2640 1.383 . S
C2635 C2631 1.495 . S
C2635 H2641 0.959 . S
C2635 H2642 0.961 . S
C2635 H2643 0.960 . S
C2636 C2634 1.381 . S
C2636 C2637 1.394 . S
C2636 H2644 0.930 . S
C2637 C2636 1.394 . S
C2637 C2638 1.383 . S
C2637 H2645 0.929 . S
C2638 C2637 1.383 . S
C2638 C2639 1.377 . S
C2639 H2623 0.930 . S
C2639 C2638 1.377 . S
C2639 C2640 1.379 . S
C2640 H2624 0.931 . S
C2640 C2634 1.383 . S
C2640 C2639 1.379 . S
H2641 C2635 0.959 . S
H2642 C2635 0.961 . S
H2643 C2635 0.960 . S
H2644 C2636 0.930 . S
H2645 C2637 0.929 . S
C711 C253 1.744 . S
C730 C351 1.755 . S
C747 C272 1.885 . S
C766 C391 1.885 . S
C783 C234 1.627 . S
C802 C430 1.600 . S
C819 C215 1.472 . S
C838 C390 1.449 1_556 S
C874 C431 1.539 1_556 S
C855 C177 1.544 . S
C891 C196 1.354 . S
C910 C350 1.307 . S
C946 C361 1.709 . S
C927 C220 1.561 . S
C982 C401 1.636 . S
C963 C182 1.577 . S
C999 C201 1.646 . S
C1018 C440 1.750 . S
C1035 C258 1.430 . S
C1054 C400 1.534 . S
C1071 C277 1.311 . S
C1090 C441 1.415 . S
C1126 C360 1.508 . S
C1107 C239 1.392 . S
C1162 C471 1.739 . S
C1143 C25 1.743 . S
C1179 C44 1.882 . S
C1198 C511 1.876 . S
C1215 C6 1.621 . S
C1234 C550 1.560 . S
C1251 C329 1.470 . S
C1270 C510 1.433 . S
C1287 C291 1.544 . S
C1306 C551 1.542 . S
C1323 C310 1.360 . S
C1342 C470 1.349 . S
C1359 C334 1.559 . S
C1378 C481 1.664 . S
C1395 C296 1.571 . S
C1414 C521 1.640 . S
C1450 C560 1.765 . S
C1431 C315 1.641 . S
C1467 C30 1.431 . S
C1486 C520 1.527 . S
C1522 C561 1.434 . S
C1503 C49 1.324 . S
C1539 C11 1.392 . S
C1558 C480 1.508 . S
C1594 C591 1.741 . S
C1575 C139 1.745 . S
C1611 C158 1.882 . S
C1630 C631 1.875 . S
C1666 C670 1.559 . S
C1647 C120 1.621 . S
C1702 C630 1.405 . S
C1683 C101 1.467 . S
C1738 C671 1.546 . S
C1719 C63 1.546 . S
C1755 C82 1.355 . S
C1774 C590 1.313 . S
C1791 C106 1.563 . S
C1810 C601 1.701 . S
C1827 C68 1.567 . S
C1846 C641 1.672 . S
C1882 C680 1.726 . S
C1863 C87 1.655 . S
C1899 C144 1.442 . S
C1918 C640 1.499 . S
C1935 C163 1.326 . S
C1954 C681 1.429 . S
C1971 C125 1.394 . S
C1990 C600 1.504 . S
C2007 C287 1.521 . S
C2026 C347 1.531 . S
C2062 C387 2.127 . S
C2043 C306 2.130 . S
C2079 C325 1.643 . S
C2098 C437 1.667 . S
C2115 C116 1.904 . S
C2134 C397 1.928 . S
C2151 C135 1.821 . S
C2170 C427 1.830 . S
C2206 C357 1.298 . S
C2187 C154 1.274 . S
C2223 C59 1.520 . S
C2242 C467 1.502 . S
C2259 C78 2.129 . S
C2278 C507 2.144 . S
C2295 C97 1.640 . S
C2314 C557 1.675 . S
C2331 C230 1.905 . S
C2350 C517 1.934 . S
C2386 C547 1.840 . S
C2367 C249 1.823 . S
C2403 C268 1.279 . S
C2422 C477 1.287 . S
C2439 C173 1.515 . S
C2458 C587 1.520 . S
C2475 C192 2.130 . S
C2494 C627 2.142 . S
C2530 C677 1.664 . S
C2511 C211 1.643 . S
C2547 C2 1.903 . S
C2566 C637 1.927 . S
C2583 C21 1.822 . S
C2602 C667 1.837 . S
C2619 C40 1.273 . S
C2638 C597 1.296 . S
