# Generated by pormake.
# Topology anh, (6,3)-cn, num edge types: 1
# Building blocks:
#     Node 0, Type 0, BuildingBlock: CUWYAW_clean_sbu_0, # of connection points: 6
#     Node 1, Type 0, BuildingBlock: CUWYAW_clean_sbu_0, # of connection points: 6
#     Node 2, Type 0, BuildingBlock: CUWYAW_clean_sbu_0, # of connection points: 6
#     Node 3, Type 1, BuildingBlock: BETDAH_clean_linker_0, # of connection points: 3
#     Node 4, Type 1, BuildingBlock: BETDAH_clean_linker_0, # of connection points: 3
#     Node 5, Type 1, BuildingBlock: BETDAH_clean_linker_0, # of connection points: 3
#     Node 6, Type 1, BuildingBlock: BETDAH_clean_linker_0, # of connection points: 3
#     Node 7, Type 1, BuildingBlock: BETDAH_clean_linker_0, # of connection points: 3
#     Node 8, Type 1, BuildingBlock: BETDAH_clean_linker_0, # of connection points: 3
#     Edge 9, Type (0, 1), BuildingBlock: CIFDUS_clean_linker_0, # of connection points: 2
#     Edge 10, Type (0, 1), BuildingBlock: CIFDUS_clean_linker_0, # of connection points: 2
#     Edge 11, Type (0, 1), BuildingBlock: CIFDUS_clean_linker_0, # of connection points: 2
#     Edge 12, Type (0, 1), BuildingBlock: CIFDUS_clean_linker_0, # of connection points: 2
#     Edge 13, Type (0, 1), BuildingBlock: CIFDUS_clean_linker_0, # of connection points: 2
#     Edge 14, Type (0, 1), BuildingBlock: CIFDUS_clean_linker_0, # of connection points: 2
#     Edge 15, Type (0, 1), BuildingBlock: CIFDUS_clean_linker_0, # of connection points: 2
#     Edge 16, Type (0, 1), BuildingBlock: CIFDUS_clean_linker_0, # of connection points: 2
#     Edge 17, Type (0, 1), BuildingBlock: CIFDUS_clean_linker_0, # of connection points: 2
#     Edge 18, Type (0, 1), BuildingBlock: CIFDUS_clean_linker_0, # of connection points: 2
#     Edge 19, Type (0, 1), BuildingBlock: CIFDUS_clean_linker_0, # of connection points: 2
#     Edge 20, Type (0, 1), BuildingBlock: CIFDUS_clean_linker_0, # of connection points: 2
#     Edge 21, Type (0, 1), BuildingBlock: CIFDUS_clean_linker_0, # of connection points: 2
#     Edge 22, Type (0, 1), BuildingBlock: CIFDUS_clean_linker_0, # of connection points: 2
#     Edge 23, Type (0, 1), BuildingBlock: CIFDUS_clean_linker_0, # of connection points: 2
#     Edge 24, Type (0, 1), BuildingBlock: CIFDUS_clean_linker_0, # of connection points: 2
#     Edge 25, Type (0, 1), BuildingBlock: CIFDUS_clean_linker_0, # of connection points: 2
#     Edge 26, Type (0, 1), BuildingBlock: CIFDUS_clean_linker_0, # of connection points: 2
# Relax obj value: 0.300
# Max RMSD: 0.153
# Mean RMSD: 0.117
data_MOF--net-anh--node1-CUWYAW_clean_sbu_0--node2-BETDAH_clean_linker_0--edge1-CIFDUS_clean_linker_0
_symmetry_space_group_name_H-M    P1
_symmetry_Int_Tables_number       1
_symmetry_cell_setting            triclinic
loop_
_symmetry_equiv_pos_as_xyz
'x, y, z'
_cell_length_a     27.153203
_cell_length_b     26.914342
_cell_length_c     43.829375
_cell_angle_alpha  93.272138
_cell_angle_beta   90.926935
_cell_angle_gamma 119.46962
loop_
_atom_site_label
_atom_site_type_symbol
_atom_site_fract_x
_atom_site_fract_y
_atom_site_fract_z
_atom_type_partial_charge
C0 C 1.08712 0.49249 0.12219 0.0
Eu1 Eu 0.13496 0.59781 0.1448 0.0
C2 C 1.05011 0.45927 0.09519 0.0
C3 C 0.99473 0.44977 0.09185 0.0
C4 C 0.95619 0.40684 0.07076 0.0
C5 C 0.97215 0.37156 0.05329 0.0
C6 C 1.03055 0.39063 0.05197 0.0
C7 C 1.06898 0.43299 0.07345 0.0
C8 C 0.15606 0.63719 0.20518 0.0
C9 C 1.04303 0.64506 0.14044 0.0
C10 C 0.22336 0.82909 0.16526 0.0
Eu11 Eu 0.17626 0.7196 0.15185 0.0
C12 C 0.27379 0.87841 0.15526 0.0
C13 C 0.27424 0.93028 0.15278 0.0
C14 C 0.32231 0.97757 0.14311 0.0
C15 C 0.37051 0.97343 0.13598 0.0
C16 C 0.36835 0.92018 0.1369 0.0
C17 C 0.3203 0.87305 0.14631 0.0
C18 C 0.15703 0.67448 0.09274 0.0
C19 C 0.27165 0.67368 0.14614 0.0
O20 O 0.13855 0.53078 0.11657 0.0
O21 O 1.06565 0.50991 0.1441 0.0
O22 O 0.16334 0.59619 0.19332 0.0
O23 O 0.13381 0.65337 0.18516 0.0
O24 O 1.05704 0.60673 0.12939 0.0
O25 O 1.08223 0.69083 0.15676 0.0
O26 O 0.23149 0.79481 0.18213 0.0
O27 O 0.1837 0.80171 0.14377 0.0
O28 O 0.14236 0.71138 0.1024 0.0
O29 O 0.18099 0.66525 0.11437 0.0
O30 O 0.26237 0.71779 0.15211 0.0
O31 O 0.22771 0.62157 0.14147 0.0
H32 H 0.97979 0.47198 0.10715 0.0
H33 H 0.91266 0.39727 0.07154 0.0
H34 H 1.04589 0.36848 0.03697 0.0
H35 H 1.11259 0.44219 0.07443 0.0
H36 H 0.23781 0.93441 0.15881 0.0
H37 H 0.32262 1.01789 0.14239 0.0
H38 H 0.40493 0.9155 0.13214 0.0
H39 H 0.3201 0.83285 0.14734 0.0
C40 C 0.57236 0.22925 0.46423 0.0
Eu41 Eu 0.61282 0.16337 0.47862 0.0
C42 C 0.59762 0.28833 0.45576 0.0
C43 C 0.57511 0.32199 0.46736 0.0
C44 C 0.60812 0.38144 0.46955 0.0
C45 C 0.66419 0.40788 0.46014 0.0
C46 C 0.6835 0.37402 0.4446 0.0
C47 C 0.65057 0.31445 0.44267 0.0
C48 C 0.61727 0.13584 0.5377 0.0
C49 C 0.75182 0.23667 0.47864 0.0
C50 C 0.73234 1.05601 0.50561 0.0
Eu51 Eu 0.6697 0.09722 0.48649 0.0
C52 C 0.74367 1.00785 0.50545 0.0
C53 C 0.78838 1.01051 0.48861 0.0
C54 C 0.80915 0.97336 0.49353 0.0
C55 C 0.78574 0.93304 0.51547 0.0
C56 C 0.73816 0.92729 0.53059 0.0
C57 C 0.71742 0.96466 0.52574 0.0
C58 C 0.63987 0.09625 0.42739 0.0
C59 C 0.53242 1.02439 0.47272 0.0
O60 O 0.57428 0.19182 0.44459 0.0
O61 O 0.58611 0.2248 0.49224 0.0
O62 O 0.5724 0.13122 0.52405 0.0
O63 O 0.65681 0.15376 0.51954 0.0
O64 O 0.70427 0.23914 0.47598 0.0
O65 O 0.74856 0.18684 0.48371 0.0
O66 O 0.68985 1.05332 0.52069 0.0
O67 O 0.74076 1.08264 0.48056 0.0
O68 O 0.63553 1.05164 0.4397 0.0
O69 O 0.66071 0.13901 0.44658 0.0
O70 O 0.57555 1.02389 0.48749 0.0
O71 O 0.54019 1.0736 0.46324 0.0
H72 H 0.53432 0.30238 0.47761 0.0
H73 H 0.59178 0.40597 0.48171 0.0
H74 H 0.72603 0.39328 0.4365 0.0
H75 H 0.66856 0.28904 0.43344 0.0
H76 H 0.80972 1.04364 0.47298 0.0
H77 H 0.84547 0.97816 0.48135 0.0
H78 H 0.71955 0.89671 0.54777 0.0
H79 H 0.68317 0.96185 0.53922 0.0
C80 C 0.81676 0.71225 0.79878 0.0
Eu81 Eu 0.71358 0.67763 0.81364 0.0
C82 C 0.84713 0.68139 0.80517 0.0
C83 C 0.82755 0.64321 0.8283 0.0
C84 C 0.84759 0.60539 0.83185 0.0
C85 C 0.88802 0.605 0.8125 0.0
C86 C 0.90936 0.64445 0.78991 0.0
C87 C 0.88828 0.68208 0.78595 0.0
C88 C 0.68356 0.66432 0.87321 0.0
C89 C 0.65621 0.5348 0.80915 0.0
C90 C 0.48872 0.55972 0.83794 0.0
Eu91 Eu 0.59084 0.60549 0.81987 0.0
C92 C 0.43057 0.53374 0.84808 0.0
C93 C 0.38681 0.52912 0.8286 0.0
C94 C 0.33086 0.50059 0.83728 0.0
C95 C 0.31767 0.47559 0.86546 0.0
C96 C 0.36195 0.48183 0.88528 0.0
C97 C 0.41795 0.51091 0.87671 0.0
C98 C 0.62324 0.61416 0.76163 0.0
C99 C 0.64546 0.74622 0.8126 0.0
O100 O 0.77331 0.68379 0.77941 0.0
O101 O 0.80438 0.73416 0.8229 0.0
O102 O 0.72182 0.71177 0.86313 0.0
O103 O 0.66368 0.62542 0.85158 0.0
O104 O 0.69885 0.58577 0.80354 0.0
O105 O 0.60905 0.53084 0.8197 0.0
O106 O 0.53294 0.5816 0.8572 0.0
O107 O 0.49993 0.56286 0.80898 0.0
O108 O 0.58424 0.56681 0.7716 0.0
O109 O 0.64071 0.65419 0.78238 0.0
O110 O 0.60408 0.6983 0.82293 0.0
O111 O 0.69249 0.74748 0.80386 0.0
H112 H 0.79513 0.64125 0.8431 0.0
H113 H 0.83148 0.57636 0.84993 0.0
H114 H 0.94112 0.64517 0.77502 0.0
H115 H 0.90292 0.71051 0.76758 0.0
H116 H 0.39574 0.547 0.80651 0.0
H117 H 0.2979 0.49759 0.82178 0.0
H118 H 0.35325 0.46253 0.90697 0.0
H119 H 0.45112 0.51383 0.89205 0.0
H120 H 0.62651 0.15793 0.25104 0.0
H121 H 0.79291 0.17644 0.25184 0.0
H122 H 0.71161 0.17804 0.16743 0.0
C123 C 0.66367 0.16548 0.23882 0.0
C124 C 0.66389 0.16895 0.20701 0.0
C125 C 0.7102 0.16893 0.2551 0.0
C126 C 0.75745 0.17528 0.23945 0.0
C127 C 0.75795 0.17791 0.20762 0.0
C128 C 0.71165 0.17614 0.19182 0.0
N129 N 0.80393 0.17974 0.19169 0.0
C130 C 0.80838 0.18554 0.16034 0.0
H131 H 0.78211 0.61236 0.60356 0.0
H132 H 0.91703 0.76289 0.65254 0.0
H133 H 0.94571 0.70177 0.56589 0.0
C134 C 0.82594 0.6462 0.60593 0.0
C135 C 0.86231 0.65123 0.5825 0.0
C136 C 0.84524 0.68555 0.63173 0.0
C137 C 0.90168 0.73054 0.63354 0.0
C138 C 0.93786 0.73633 0.60989 0.0
C139 C 0.91842 0.69586 0.58474 0.0
N140 N 0.98737 0.78943 0.60759 0.0
C141 C 0.9806 0.82864 0.5915 0.0
H142 H 0.94456 0.48162 0.93799 0.0
H143 H 0.98247 0.36869 0.98598 0.0
H144 H 0.91499 0.32248 0.89306 0.0
C145 C 0.94329 0.44081 0.93902 0.0
C146 C 0.92606 0.40282 0.91277 0.0
C147 C 0.96312 0.42875 0.96569 0.0
C148 C 0.96429 0.37727 0.96616 0.0
C149 C 0.94572 0.33832 0.94025 0.0
C150 C 0.92592 0.35085 0.91365 0.0
N151 N 0.95912 0.29387 0.93865 0.0
C152 C 1.01489 0.30945 0.93358 0.0
H153 H 0.25119 0.73671 0.38798 0.0
H154 H 1.09477 0.58165 0.39919 0.0
H155 H 0.19834 0.68446 0.47859 0.0
C156 C 0.22053 0.70811 0.40314 0.0
C157 C 0.23214 0.71899 0.43518 0.0
C158 C 0.17181 0.65879 0.39 0.0
C159 C 1.132 0.6194 0.40928 0.0
C160 C 0.14034 0.62805 0.44136 0.0
C161 C 0.19115 0.67777 0.45397 0.0
N162 N 1.10018 0.58783 0.46156 0.0
C163 C 1.04584 0.53794 0.4553 0.0
H164 H 0.63135 0.2442 0.72154 0.0
H165 H 0.6338 1.0865 0.7298 0.0
H166 H 0.64744 0.19287 0.81068 0.0
C167 C 0.63531 0.21471 0.73588 0.0
C168 C 0.6412 0.22647 0.76788 0.0
C169 C 0.63209 0.16444 0.72196 0.0
C170 C 0.63664 0.12522 0.74043 0.0
C171 C 0.64213 0.13489 0.77264 0.0
C172 C 0.64376 0.18542 0.78599 0.0
N173 N 0.64438 0.09494 0.79258 0.0
C174 C 0.64612 1.04371 0.78557 0.0
H175 H 0.77477 0.65889 0.05565 0.0
H176 H 0.62021 0.66519 0.06541 0.0
H177 H 0.71295 0.66122 0.14541 0.0
C178 C 0.74283 0.6583 0.07039 0.0
C179 C 0.7502 0.65782 0.10229 0.0
C180 C 0.6966 0.66114 0.057 0.0
C181 C 0.65502 0.66211 0.07575 0.0
C182 C 0.66004 0.66216 0.10785 0.0
C183 C 0.7083 0.66056 0.12078 0.0
N184 N 0.61967 0.66608 0.12795 0.0
C185 C 0.56712 0.66459 0.12154 0.0
H186 H 0.30476 0.59442 0.12644 0.0
H187 H 0.37622 0.77238 0.15744 0.0
H188 H 0.47184 0.78614 0.15181 0.0
H189 H 0.53747 0.74746 0.13886 0.0
H190 H 0.46493 0.56991 0.10709 0.0
H191 H 0.36949 0.55676 0.11208 0.0
C192 C 0.34103 0.63643 0.13209 0.0
C193 C 0.3317 0.68216 0.14272 0.0
C194 C 0.39682 0.64433 0.12846 0.0
C195 C 0.38058 0.73599 0.14944 0.0
C196 C 0.43588 0.74396 0.14614 0.0
C197 C 0.50083 0.70598 0.13263 0.0
C198 C 0.5095 0.65981 0.12213 0.0
C199 C 0.44493 0.69853 0.1357 0.0
C200 C 0.46062 0.60649 0.11478 0.0
C201 C 0.40555 0.59886 0.11783 0.0
H202 H 0.7823 0.34907 0.46315 0.0
H203 H 0.8565 0.24522 0.48539 0.0
H204 H 0.9508 0.3254 0.47929 0.0
H205 H 1.01541 0.42704 0.46831 0.0
H206 H 0.94309 0.53194 0.44573 0.0
H207 H 0.84754 0.45119 0.45098 0.0
C208 C 0.81892 0.34371 0.46674 0.0
C209 C 0.81046 0.2895 0.475 0.0
C210 C 0.87471 0.39111 0.46294 0.0
C211 C 0.85991 0.28515 0.47922 0.0
C212 C 0.91466 0.33156 0.47565 0.0
C213 C 0.9788 0.43226 0.46418 0.0
C214 C 0.9876 0.48643 0.45611 0.0
C215 C 0.92305 0.38497 0.46752 0.0
C216 C 0.93869 0.49139 0.45149 0.0
C217 C 0.88351 0.44482 0.45473 0.0
H218 H 0.71412 0.84771 0.7855 0.0
H219 H 0.55801 0.7624 0.83186 0.0
H220 H 0.54316 0.84409 0.82661 0.0
H221 H 0.57489 0.94198 0.80973 0.0
H222 H 0.73023 1.02713 0.76306 0.0
H223 H 0.74451 0.94445 0.76737 0.0
C224 C 0.67681 0.8468 0.79456 0.0
C225 C 0.63749 0.79798 0.80934 0.0
C226 C 0.66808 0.89447 0.79122 0.0
C227 C 0.58936 0.79858 0.82053 0.0
C228 C 0.5807 0.84566 0.81747 0.0
C229 C 0.61153 0.94217 0.80013 0.0
C230 C 0.65109 0.99104 0.78566 0.0
C231 C 0.61969 0.89405 0.8029 0.0
C232 C 0.69866 0.99032 0.7739 0.0
C233 C 0.707 0.94288 0.77655 0.0
H234 H 0.98763 0.70234 0.16562 0.0
H235 H 0.96554 0.57394 0.09485 0.0
H236 H 0.87606 0.56628 0.07737 0.0
H237 H 0.80302 0.59663 0.08081 0.0
H238 H 0.82056 0.72024 0.15327 0.0
H239 H 0.91026 0.72791 0.17127 0.0
C240 C 0.96325 0.67235 0.14646 0.0
C241 C 0.9851 0.63908 0.13164 0.0
C242 C 0.90983 0.66692 0.13668 0.0
C243 C 0.95133 0.60042 0.10696 0.0
C244 C 0.89952 0.59595 0.09682 0.0
C245 C 0.82609 0.62528 0.10066 0.0
C246 C 0.80355 0.65797 0.11535 0.0
C247 C 0.87818 0.62909 0.11128 0.0
C248 C 0.83516 0.69396 0.14133 0.0
C249 C 0.88727 0.6987 0.1516 0.0
H250 H 0.47545 0.91513 0.49821 0.0
H251 H 0.45828 1.00874 0.42589 0.0
H252 H 0.36743 0.92694 0.40899 0.0
H253 H 0.29061 0.82817 0.4136 0.0
H254 H 0.30278 0.73209 0.48585 0.0
H255 H 0.39474 0.81408 0.50364 0.0
C256 C 0.45204 0.91778 0.47871 0.0
C257 C 0.47555 0.96982 0.46359 0.0
C258 C 0.39749 0.86941 0.46893 0.0
C259 C 0.4428 0.9708 0.43847 0.0
C260 C 0.39009 0.92339 0.42857 0.0
C261 C 0.31304 0.82439 0.4332 0.0
C262 C 0.28805 0.77211 0.44792 0.0
C263 C 0.36666 0.87234 0.44349 0.0
C264 C 0.3191 0.77067 0.47378 0.0
C265 C 0.3726 0.818 0.48395 0.0
H266 H 0.59773 0.42386 0.82985 0.0
H267 H 0.72642 0.52489 0.76853 0.0
H268 H 0.73421 0.4415 0.75128 0.0
H269 H 0.70282 0.33807 0.75157 0.0
H270 H 0.57949 0.23692 0.81497 0.0
H271 H 0.57208 0.32083 0.83329 0.0
C272 C 0.62762 0.42778 0.81278 0.0
C273 C 0.66107 0.48168 0.80052 0.0
C274 C 0.63306 0.37896 0.80315 0.0
C275 C 0.69993 0.48493 0.77863 0.0
C276 C 0.70443 0.43679 0.76857 0.0
C277 C 0.67448 0.33423 0.76955 0.0
C278 C 0.64152 0.28017 0.78158 0.0
C279 C 0.67099 0.38334 0.78039 0.0
C280 C 0.60573 0.27728 0.8052 0.0
C281 C 0.60118 0.32556 0.8156 0.0
H282 H 0.89752 0.97952 0.52958 0.0
H283 H 0.74001 0.81963 0.52507 0.0
H284 H 0.78848 0.77258 0.54702 0.0
H285 H 0.87442 0.7787 0.5701 0.0
H286 H 1.0312 0.93892 0.57638 0.0
H287 H 0.98439 0.98466 0.55069 0.0
C288 C 0.87408 0.93409 0.53282 0.0
C289 C 0.81543 0.90282 0.52558 0.0
C290 C 0.902 0.90784 0.54586 0.0
C291 C 0.78517 0.84439 0.53055 0.0
C292 C 0.81282 0.81761 0.54307 0.0
C293 C 0.89829 0.82352 0.56549 0.0
C294 C 0.9558 0.85584 0.57476 0.0
C295 C 0.87096 0.84917 0.55123 0.0
C296 C 0.98678 0.91369 0.56914 0.0
C297 C 0.96003 0.93961 0.55458 0.0
H298 H 0.82602 0.49063 0.8152 0.0
H299 H 0.99718 0.63168 0.82399 0.0
H300 H 1.02721 0.57403 0.85176 0.0
H301 H 0.99942 0.49296 0.88351 0.0
H302 H 0.82677 0.35513 0.87845 0.0
H303 H 0.80221 0.40139 0.83892 0.0
C304 C 0.87026 0.5078 0.82231 0.0
C305 C 0.90933 0.56535 0.81821 0.0
C306 C 0.88639 0.47539 0.83948 0.0
C307 C 0.96658 0.58744 0.82702 0.0
C308 C 0.98349 0.55475 0.84324 0.0
C309 C 0.95686 0.47249 0.87302 0.0
C310 C 0.91451 0.42161 0.88397 0.0
C311 C 0.94302 0.50015 0.85118 0.0
C312 C 0.85965 0.3946 0.8703 0.0
C313 C 0.84569 0.42119 0.84792 0.0
H314 H 0.41179 1.07393 0.17017 0.0
H315 H 0.45479 0.98922 0.09743 0.0
H316 H 0.55527 1.05356 0.11015 0.0
H317 H 0.62545 0.11205 0.15065 0.0
H318 H 0.5837 0.19869 0.22321 0.0
H319 H 0.48689 0.15447 0.20152 0.0
C320 C 0.44293 1.07117 0.15607 0.0
C321 C 0.4261 1.02533 0.1338 0.0
C322 C 0.50042 0.10705 0.16412 0.0
C323 C 0.467 1.02302 0.11545 0.0
C324 C 0.52439 1.05953 0.12283 0.0
C325 C 0.59648 0.12383 0.16118 0.0
C326 C 0.61152 0.15695 0.18935 0.0
C327 C 0.54113 0.09852 0.14862 0.0
C328 C 0.57258 0.17117 0.2023 0.0
C329 C 0.51732 0.1463 0.18979 0.0
H330 H 0.76978 0.44497 0.48441 0.0
H331 H 0.64917 0.50169 0.46646 0.0
H332 H 0.70398 0.58645 0.50159 0.0
H333 H 0.77772 0.63565 0.54315 0.0
H334 H 0.89811 0.57886 0.5604 0.0
H335 H 0.85242 0.50309 0.51898 0.0
C336 C 0.75657 0.47694 0.48703 0.0
C337 C 0.70497 0.46657 0.47308 0.0
C338 C 0.78772 0.52489 0.50753 0.0
C339 C 0.68824 0.50822 0.47731 0.0
C340 C 0.71941 0.55653 0.49748 0.0
C341 C 0.7942 0.60703 0.53741 0.0
C342 C 0.8402 0.61155 0.55489 0.0
C343 C 0.76768 0.56378 0.51375 0.0
C344 C 0.86232 0.5754 0.54721 0.0
C345 C 0.83619 0.53221 0.52367 0.0
H346 H 0.27362 0.47177 0.92127 0.0
H347 H 0.22728 0.40054 0.82766 0.0
H348 H 1.12943 0.34069 0.84091 0.0
H349 H 1.05669 0.30814 0.87916 0.0
H350 H 1.10261 0.37798 0.97267 0.0
H351 H 0.20149 0.43775 0.95971 0.0
C352 C 0.24226 0.44271 0.90384 0.0
C353 C 0.25785 0.44075 0.87353 0.0
C354 C 0.18625 0.40755 0.91171 0.0
C355 C 0.21636 0.40367 0.85108 0.0
C356 C 0.16046 0.36892 0.85867 0.0
C357 C 1.08884 0.33566 0.89669 0.0
C358 C 1.07363 0.33805 0.92685 0.0
C359 C 0.14501 0.37029 0.88892 0.0
C360 C 1.11445 0.37478 0.94944 0.0
C361 C 0.1706 0.40922 0.94196 0.0
H362 H 0.8543 0.31635 0.0449 0.0
H363 H 0.99017 0.27739 0.04505 0.0
H364 H 0.93902 0.20028 0.07749 0.0
H365 H 0.87709 0.17289 0.12148 0.0
H366 H 0.75278 0.22796 0.12857 0.0
H367 H 0.77859 0.27099 0.08009 0.0
C368 C 0.8726 0.29064 0.05181 0.0
C369 C 0.92997 0.30904 0.04691 0.0
C370 C 0.84582 0.25075 0.07362 0.0
C371 C 0.94874 0.26931 0.05144 0.0
C372 C 0.91979 0.22518 0.07059 0.0
C373 C 0.85452 0.19265 0.11177 0.0
C374 C 0.81368 0.1978 0.12859 0.0
C375 C 0.87189 0.22043 0.08464 0.0
C376 C 0.78435 0.22326 0.11605 0.0
C377 C 0.79926 0.24822 0.08824 0.0
H378 H 1.05407 0.63854 0.06438 0.0
H379 H 0.19984 0.61472 0.06356 0.0
H380 H 0.15162 0.53438 0.02501 0.0
H381 H 1.06734 0.46963 -0.00751 0.0
H382 H 0.9197 0.49022 -0.00557 0.0
H383 H 0.96858 0.57223 0.03221 0.0
C384 C 1.07539 0.61623 0.05531 0.0
C385 C 1.1305 0.63268 0.0663 0.0
C386 C 1.04663 0.5688 0.03397 0.0
C387 C 0.15756 0.60298 0.05497 0.0
C388 C 1.1299 0.55684 0.0332 0.0
C389 C 1.04565 0.4916 0.00156 0.0
C390 C 0.99 0.47387 -0.009 0.0
C391 C 1.07418 0.53889 0.02286 0.0
C392 C 0.9626 0.50323 0.00241 0.0
C393 C 0.99059 0.55019 0.02383 0.0
H394 H 0.71561 0.18729 0.39894 0.0
H395 H 0.57442 1.01621 0.38225 0.0
H396 H 0.58434 1.02328 0.32689 0.0
H397 H 0.63379 1.07842 0.28351 0.0
H398 H 0.77918 0.24658 0.30043 0.0
H399 H 0.76793 0.24033 0.35576 0.0
C400 C 0.68678 0.15181 0.3831 0.0
C401 C 0.64386 0.10156 0.3943 0.0
C402 C 0.69411 0.15551 0.35158 0.0
C403 C 0.60745 1.05533 0.37384 0.0
C404 C 0.61327 1.05933 0.34234 0.0
C405 C 0.66313 0.11337 0.29946 0.0
C406 C 0.70719 0.16288 0.28829 0.0
C407 C 0.65662 0.10911 0.331 0.0
C408 C 0.74531 0.208 0.30882 0.0
C409 C 0.73859 0.20455 0.34029 0.0
H410 H 0.69664 0.70903 0.735 0.0
H411 H 0.62219 0.52535 0.72798 0.0
H412 H 0.68441 0.53122 0.68692 0.0
H413 H 0.76374 0.58915 0.6553 0.0
H414 H 0.83638 0.77288 0.66148 0.0
H415 H 0.7719 0.76648 0.7011 0.0
C416 C 0.69366 0.67032 0.72416 0.0
C417 C 0.65513 0.61692 0.73437 0.0
C418 C 0.72986 0.6741 0.70085 0.0
C419 C 0.65136 0.56693 0.72026 0.0
C420 C 0.68721 0.57031 0.69699 0.0
C421 C 0.76508 0.62778 0.66503 0.0
C422 C 0.80544 0.68146 0.65564 0.0
C423 C 0.72719 0.62375 0.68743 0.0
C424 C 0.80682 0.73109 0.66878 0.0
C425 C 0.76954 0.72747 0.69122 0.0
H426 H 0.54689 0.13172 0.58275 0.0
H427 H 0.70753 0.14029 0.56878 0.0
H428 H 0.725 0.14538 0.62416 0.0
H429 H 0.69668 0.15244 0.67733 0.0
H430 H 0.53858 0.14974 0.69069 0.0
H431 H 0.51806 0.13714 0.63537 0.0
C432 C 0.5855 0.1342 0.59181 0.0
C433 C 0.62572 0.13544 0.57148 0.0
C434 C 0.59587 0.1384 0.62385 0.0
C435 C 0.67575 0.13917 0.58378 0.0
C436 C 0.68584 0.14218 0.61554 0.0
C437 C 0.65749 0.14835 0.66805 0.0
C438 C 0.61905 0.15176 0.68817 0.0
C439 C 0.64651 0.14248 0.63592 0.0
C440 C 0.56879 0.14719 0.67574 0.0
C441 C 0.55707 0.14009 0.64406 0.0
H442 H 0.74207 0.73974 0.92186 0.0
H443 H 0.60843 0.56656 0.89964 0.0
H444 H 0.59801 0.55044 0.9543 0.0
H445 H 0.62911 0.58535 0.00911 0.0
H446 H 0.76578 0.7574 0.03008 0.0
H447 H 0.77274 0.77421 0.97566 0.0
C448 C 0.71045 0.69848 0.92892 0.0
C449 C 0.67596 0.65452 0.90651 0.0
C450 C 0.70527 0.68934 0.96041 0.0
C451 C 0.63548 0.60126 0.91627 0.0
C452 C 0.62955 0.59202 0.94761 0.0
C453 C 0.65992 0.6266 0.00165 0.0
C454 C 0.6966 0.67037 0.02366 0.0
C455 C 0.66439 0.63567 0.96999 0.0
C456 C 0.73691 0.72329 0.01364 0.0
C457 C 0.74098 0.73285 0.98249 0.0
H458 H 0.1517 0.57006 0.2504 0.0
H459 H 0.1642 0.73286 0.23613 0.0
H460 H 0.17081 0.75474 0.29176 0.0
H461 H 0.17448 0.72767 0.34498 0.0
H462 H 0.15482 0.56147 0.35818 0.0
H463 H 0.14923 0.54076 0.3028 0.0
C464 C 0.15576 0.61035 0.25942 0.0
C465 C 0.15784 0.64996 0.23899 0.0
C466 C 0.15812 0.62194 0.29143 0.0
C467 C 0.16247 0.70161 0.25123 0.0
C468 C 0.16635 0.71413 0.28309 0.0
C469 C 0.16871 0.68685 0.33567 0.0
C470 C 0.16507 0.64614 0.35588 0.0
C471 C 0.16442 0.67469 0.3035 0.0
C472 C 0.15725 0.59335 0.34332 0.0
C473 C 0.15433 0.58158 0.31158 0.0
loop_
_geom_bond_atom_site_label_1
_geom_bond_atom_site_label_2
_geom_bond_distance
_geom_bond_site_symmetry_2
_ccdc_geom_bond_type
C0 Eu1 2.835 . S
C0 C2 1.500 . S
C0 O20 1.257 . S
C0 O21 1.260 . S
Eu1 C0 2.835 . S
Eu1 O20 2.473 . S
Eu1 O21 2.480 . S
Eu1 O22 2.430 . S
Eu1 O23 2.670 1_655 S
Eu1 O24 2.394 . S
Eu1 O29 2.352 . S
Eu1 O31 2.374 1_655 S
C2 C0 1.500 . S
C2 C3 1.377 . S
C2 C7 1.377 . S
C3 C2 1.377 . S
C3 C4 1.395 . S
C3 H32 0.931 . S
C4 C3 1.395 . S
C4 C5 1.383 . S
C4 H33 0.931 . S
C5 C4 1.383 . S
C5 C6 1.394 . S
C6 C5 1.394 . S
C6 C7 1.378 . S
C6 H34 0.931 . S
C7 C2 1.377 . S
C7 C6 1.378 . S
C7 H35 0.931 . S
C8 O22 1.259 1_455 S
C8 O23 1.270 . S
C9 O24 1.251 . S
C9 O25 1.251 . S
C10 Eu11 2.835 . S
C10 C12 1.500 . S
C10 O26 1.257 . S
C10 O27 1.260 . S
Eu11 C10 2.835 . S
Eu11 O23 2.355 . S
Eu11 O25 2.374 1_455 S
Eu11 O26 2.473 . S
Eu11 O27 2.480 . S
Eu11 O28 2.430 . S
Eu11 O29 2.669 1_455 S
Eu11 O30 2.394 . S
C12 C10 1.500 . S
C12 C13 1.377 . S
C12 C17 1.377 . S
C13 C12 1.377 . S
C13 C14 1.395 . S
C13 H36 0.931 . S
C14 C13 1.395 . S
C14 C15 1.383 . S
C14 H37 0.931 . S
C15 C14 1.383 . S
C15 C16 1.394 . S
C16 C15 1.394 . S
C16 C17 1.378 . S
C16 H38 0.931 . S
C17 C12 1.377 . S
C17 C16 1.378 . S
C17 H39 0.931 . S
C18 O28 1.259 . S
C18 O29 1.265 1_455 S
C19 O30 1.251 . S
C19 O31 1.251 . S
O20 C0 1.257 . S
O20 Eu1 2.473 . S
O21 C0 1.260 . S
O21 Eu1 2.480 . S
O22 Eu1 2.430 . S
O22 C8 1.259 1_655 S
O23 Eu1 2.670 1_455 S
O23 C8 1.270 . S
O23 Eu11 2.355 . S
O24 Eu1 2.394 . S
O24 C9 1.251 . S
O25 C9 1.251 . S
O25 Eu11 2.374 1_655 S
O26 C10 1.257 . S
O26 Eu11 2.473 . S
O27 C10 1.260 . S
O27 Eu11 2.480 . S
O28 Eu11 2.430 . S
O28 C18 1.259 . S
O29 Eu1 2.352 . S
O29 Eu11 2.669 1_655 S
O29 C18 1.265 1_655 S
O30 Eu11 2.394 . S
O30 C19 1.251 . S
O31 Eu1 2.374 1_455 S
O31 C19 1.251 . S
H32 C3 0.931 . S
H33 C4 0.931 . S
H34 C6 0.931 . S
H35 C7 0.931 . S
H36 C13 0.931 . S
H37 C14 0.931 . S
H38 C16 0.931 . S
H39 C17 0.931 . S
C40 Eu41 2.835 . S
C40 C42 1.500 . S
C40 O60 1.257 . S
C40 O61 1.260 . S
Eu41 C40 2.835 . S
Eu41 O60 2.473 . S
Eu41 O61 2.480 . S
Eu41 O62 2.430 . S
Eu41 O63 2.670 . S
Eu41 O64 2.394 . S
Eu41 O69 2.355 . S
Eu41 O71 2.374 1_545 S
C42 C40 1.500 . S
C42 C43 1.377 . S
C42 C47 1.377 . S
C43 C42 1.377 . S
C43 C44 1.395 . S
C43 H72 0.931 . S
C44 C43 1.395 . S
C44 C45 1.383 . S
C44 H73 0.931 . S
C45 C44 1.383 . S
C45 C46 1.394 . S
C46 C45 1.394 . S
C46 C47 1.378 . S
C46 H74 0.931 . S
C47 C42 1.377 . S
C47 C46 1.378 . S
C47 H75 0.931 . S
C48 O62 1.259 . S
C48 O63 1.270 . S
C49 O64 1.251 . S
C49 O65 1.251 . S
C50 Eu51 2.835 1_565 S
C50 C52 1.500 . S
C50 O66 1.257 . S
C50 O67 1.260 . S
Eu51 C50 2.835 1_545 S
Eu51 O63 2.355 . S
Eu51 O65 2.374 . S
Eu51 O66 2.473 1_545 S
Eu51 O67 2.480 1_545 S
Eu51 O68 2.430 . S
Eu51 O69 2.670 . S
Eu51 O70 2.394 1_545 S
C52 C50 1.500 . S
C52 C53 1.377 . S
C52 C57 1.377 . S
C53 C52 1.377 . S
C53 C54 1.395 . S
C53 H76 0.931 . S
C54 C53 1.395 . S
C54 C55 1.383 . S
C54 H77 0.931 . S
C55 C54 1.383 . S
C55 C56 1.394 . S
C56 C55 1.394 . S
C56 C57 1.378 . S
C56 H78 0.931 . S
C57 C52 1.377 . S
C57 C56 1.378 . S
C57 H79 0.931 . S
C58 O68 1.259 . S
C58 O69 1.270 . S
C59 O70 1.251 . S
C59 O71 1.251 . S
O60 C40 1.257 . S
O60 Eu41 2.473 . S
O61 C40 1.260 . S
O61 Eu41 2.480 . S
O62 Eu41 2.430 . S
O62 C48 1.259 . S
O63 Eu41 2.670 . S
O63 C48 1.270 . S
O63 Eu51 2.355 . S
O64 Eu41 2.394 . S
O64 C49 1.251 . S
O65 C49 1.251 . S
O65 Eu51 2.374 . S
O66 C50 1.257 . S
O66 Eu51 2.473 1_565 S
O67 C50 1.260 . S
O67 Eu51 2.480 1_565 S
O68 Eu51 2.430 . S
O68 C58 1.259 . S
O69 Eu41 2.355 . S
O69 Eu51 2.670 . S
O69 C58 1.270 . S
O70 Eu51 2.394 1_565 S
O70 C59 1.251 . S
O71 Eu41 2.374 1_565 S
O71 C59 1.251 . S
H72 C43 0.931 . S
H73 C44 0.931 . S
H74 C46 0.931 . S
H75 C47 0.931 . S
H76 C53 0.931 . S
H77 C54 0.931 . S
H78 C56 0.931 . S
H79 C57 0.931 . S
C80 Eu81 2.835 . S
C80 C82 1.500 . S
C80 O100 1.257 . S
C80 O101 1.260 . S
Eu81 C80 2.835 . S
Eu81 O100 2.473 . S
Eu81 O101 2.480 . S
Eu81 O102 2.430 . S
Eu81 O103 2.670 . S
Eu81 O104 2.394 . S
Eu81 O109 2.355 . S
Eu81 O111 2.374 . S
C82 C80 1.500 . S
C82 C83 1.377 . S
C82 C87 1.377 . S
C83 C82 1.377 . S
C83 C84 1.395 . S
C83 H112 0.931 . S
C84 C83 1.395 . S
C84 C85 1.383 . S
C84 H113 0.931 . S
C85 C84 1.383 . S
C85 C86 1.394 . S
C86 C85 1.394 . S
C86 C87 1.378 . S
C86 H114 0.931 . S
C87 C82 1.377 . S
C87 C86 1.378 . S
C87 H115 0.931 . S
C88 O102 1.259 . S
C88 O103 1.270 . S
C89 O104 1.251 . S
C89 O105 1.251 . S
C90 Eu91 2.835 . S
C90 C92 1.500 . S
C90 O106 1.257 . S
C90 O107 1.260 . S
Eu91 C90 2.835 . S
Eu91 O103 2.355 . S
Eu91 O105 2.374 . S
Eu91 O106 2.473 . S
Eu91 O107 2.480 . S
Eu91 O108 2.430 . S
Eu91 O109 2.670 . S
Eu91 O110 2.394 . S
C92 C90 1.500 . S
C92 C93 1.377 . S
C92 C97 1.377 . S
C93 C92 1.377 . S
C93 C94 1.395 . S
C93 H116 0.931 . S
C94 C93 1.395 . S
C94 C95 1.383 . S
C94 H117 0.931 . S
C95 C94 1.383 . S
C95 C96 1.394 . S
C96 C95 1.394 . S
C96 C97 1.378 . S
C96 H118 0.931 . S
C97 C92 1.377 . S
C97 C96 1.378 . S
C97 H119 0.931 . S
C98 O108 1.259 . S
C98 O109 1.270 . S
C99 O110 1.251 . S
C99 O111 1.251 . S
O100 C80 1.257 . S
O100 Eu81 2.473 . S
O101 C80 1.260 . S
O101 Eu81 2.480 . S
O102 Eu81 2.430 . S
O102 C88 1.259 . S
O103 Eu81 2.670 . S
O103 C88 1.270 . S
O103 Eu91 2.355 . S
O104 Eu81 2.394 . S
O104 C89 1.251 . S
O105 C89 1.251 . S
O105 Eu91 2.374 . S
O106 C90 1.257 . S
O106 Eu91 2.473 . S
O107 C90 1.260 . S
O107 Eu91 2.480 . S
O108 Eu91 2.430 . S
O108 C98 1.259 . S
O109 Eu81 2.355 . S
O109 Eu91 2.670 . S
O109 C98 1.270 . S
O110 Eu91 2.394 . S
O110 C99 1.251 . S
O111 Eu81 2.374 . S
O111 C99 1.251 . S
H112 C83 0.931 . S
H113 C84 0.931 . S
H114 C86 0.931 . S
H115 C87 0.931 . S
H116 C93 0.931 . S
H117 C94 0.931 . S
H118 C96 0.931 . S
H119 C97 0.931 . S
H120 C123 0.929 1_565 S
H121 C126 0.929 . S
H122 C128 0.930 . S
C123 H120 0.929 1_545 S
C123 C124 1.398 . S
C123 C125 1.396 . S
C124 C123 1.398 . S
C124 C128 1.407 . S
C125 C123 1.396 . S
C125 C126 1.394 . S
C126 H121 0.929 . S
C126 C125 1.394 . S
C126 C127 1.382 . S
C127 C126 1.382 . S
C127 C128 1.392 . S
C127 N129 1.420 . S
C128 H122 0.930 . S
C128 C124 1.407 . S
C128 C127 1.392 . S
N129 C127 1.420 . S
N129 C130 1.244 . S
C130 N129 1.244 . S
H131 C134 0.929 . S
H132 C137 0.929 . S
H133 C139 0.930 . S
C134 H131 0.929 . S
C134 C135 1.398 . S
C134 C136 1.396 . S
C135 C134 1.398 . S
C135 C139 1.407 . S
C136 C134 1.396 . S
C136 C137 1.394 . S
C137 H132 0.929 . S
C137 C136 1.394 . S
C137 C138 1.382 . S
C138 C137 1.382 . S
C138 C139 1.392 . S
C138 N140 1.420 . S
C139 H133 0.930 . S
C139 C135 1.407 . S
C139 C138 1.392 . S
N140 C138 1.420 . S
N140 C141 1.244 . S
C141 N140 1.244 . S
H142 C145 0.929 . S
H143 C148 0.929 . S
H144 C150 0.930 . S
C145 H142 0.929 . S
C145 C146 1.398 . S
C145 C147 1.396 . S
C146 C145 1.398 . S
C146 C150 1.407 . S
C147 C145 1.396 . S
C147 C148 1.394 1_655 S
C148 H143 0.929 . S
C148 C147 1.394 1_455 S
C148 C149 1.382 . S
C149 C148 1.382 . S
C149 C150 1.392 1_455 S
C149 N151 1.420 . S
C150 H144 0.930 . S
C150 C146 1.407 . S
C150 C149 1.392 1_655 S
N151 C149 1.420 . S
N151 C152 1.244 . S
C152 N151 1.244 . S
H153 C156 0.929 . S
H154 C159 0.929 1_655 S
H155 C161 0.930 . S
C156 H153 0.929 . S
C156 C157 1.398 . S
C156 C158 1.396 . S
C157 C156 1.398 . S
C157 C161 1.407 . S
C158 C156 1.396 . S
C158 C159 1.394 . S
C159 H154 0.929 1_455 S
C159 C158 1.394 . S
C159 C160 1.382 . S
C160 C159 1.382 . S
C160 C161 1.392 . S
C160 N162 1.420 1_455 S
C161 H155 0.930 . S
C161 C157 1.407 . S
C161 C160 1.392 . S
N162 C160 1.420 1_655 S
N162 C163 1.244 . S
C163 N162 1.244 . S
H164 C167 0.929 . S
H165 C170 0.929 1_565 S
H166 C172 0.930 . S
C167 H164 0.929 . S
C167 C168 1.398 . S
C167 C169 1.396 . S
C168 C167 1.398 . S
C168 C172 1.407 . S
C169 C167 1.396 . S
C169 C170 1.394 . S
C170 H165 0.929 1_545 S
C170 C169 1.394 . S
C170 C171 1.382 . S
C171 C170 1.382 . S
C171 C172 1.392 . S
C171 N173 1.420 1_545 S
C172 H166 0.930 . S
C172 C168 1.407 . S
C172 C171 1.392 . S
N173 C171 1.420 1_565 S
N173 C174 1.244 . S
C174 N173 1.244 . S
H175 C178 0.929 . S
H176 C181 0.929 . S
H177 C183 0.930 . S
C178 H175 0.929 . S
C178 C179 1.398 . S
C178 C180 1.396 . S
C179 C178 1.398 . S
C179 C183 1.407 . S
C180 C178 1.396 . S
C180 C181 1.394 . S
C181 H176 0.929 . S
C181 C180 1.394 . S
C181 C182 1.382 . S
C182 C181 1.382 . S
C182 C183 1.392 . S
C182 N184 1.420 . S
C183 H177 0.930 . S
C183 C179 1.407 . S
C183 C182 1.392 . S
N184 C182 1.420 . S
N184 C185 1.244 . S
C185 N184 1.244 . S
H186 C192 0.930 . S
H187 C195 0.930 . S
H188 C196 0.930 . S
H189 C197 0.930 . S
H190 C200 0.930 . S
H191 C201 0.930 . S
C192 H186 0.930 . S
C192 C193 1.355 . S
C192 C194 1.415 . S
C193 C192 1.355 . S
C193 C195 1.419 . S
C194 C192 1.415 . S
C194 C199 1.425 . S
C194 C201 1.409 . S
C195 H187 0.930 . S
C195 C193 1.419 . S
C195 C196 1.362 . S
C196 H188 0.930 . S
C196 C195 1.362 . S
C196 C199 1.409 . S
C197 H189 0.930 . S
C197 C198 1.355 . S
C197 C199 1.415 . S
C198 C197 1.355 . S
C198 C200 1.419 . S
C199 C194 1.425 . S
C199 C196 1.409 . S
C199 C197 1.415 . S
C200 H190 0.930 . S
C200 C198 1.419 . S
C200 C201 1.362 . S
C201 H191 0.930 . S
C201 C194 1.409 . S
C201 C200 1.362 . S
H202 C208 0.930 . S
H203 C211 0.930 . S
H204 C212 0.930 . S
H205 C213 0.930 . S
H206 C216 0.930 . S
H207 C217 0.930 . S
C208 H202 0.930 . S
C208 C209 1.355 . S
C208 C210 1.415 . S
C209 C208 1.355 . S
C209 C211 1.419 . S
C210 C208 1.415 . S
C210 C215 1.425 . S
C210 C217 1.409 . S
C211 H203 0.930 . S
C211 C209 1.419 . S
C211 C212 1.362 . S
C212 H204 0.930 . S
C212 C211 1.362 . S
C212 C215 1.409 . S
C213 H205 0.930 . S
C213 C214 1.355 . S
C213 C215 1.415 . S
C214 C213 1.355 . S
C214 C216 1.419 . S
C215 C210 1.425 . S
C215 C212 1.409 . S
C215 C213 1.415 . S
C216 H206 0.930 . S
C216 C214 1.419 . S
C216 C217 1.362 . S
C217 H207 0.930 . S
C217 C210 1.409 . S
C217 C216 1.362 . S
H218 C224 0.930 . S
H219 C227 0.930 . S
H220 C228 0.930 . S
H221 C229 0.930 . S
H222 C232 0.930 . S
H223 C233 0.930 . S
C224 H218 0.930 . S
C224 C225 1.355 . S
C224 C226 1.415 . S
C225 C224 1.355 . S
C225 C227 1.419 . S
C226 C224 1.415 . S
C226 C231 1.425 . S
C226 C233 1.409 . S
C227 H219 0.930 . S
C227 C225 1.419 . S
C227 C228 1.362 . S
C228 H220 0.930 . S
C228 C227 1.362 . S
C228 C231 1.409 . S
C229 H221 0.930 . S
C229 C230 1.355 . S
C229 C231 1.415 . S
C230 C229 1.355 . S
C230 C232 1.419 . S
C231 C226 1.425 . S
C231 C228 1.409 . S
C231 C229 1.415 . S
C232 H222 0.930 . S
C232 C230 1.419 . S
C232 C233 1.362 . S
C233 H223 0.930 . S
C233 C226 1.409 . S
C233 C232 1.362 . S
H234 C240 0.930 . S
H235 C243 0.930 . S
H236 C244 0.930 . S
H237 C245 0.930 . S
H238 C248 0.930 . S
H239 C249 0.930 . S
C240 H234 0.930 . S
C240 C241 1.355 . S
C240 C242 1.415 . S
C241 C240 1.355 . S
C241 C243 1.419 . S
C242 C240 1.415 . S
C242 C247 1.425 . S
C242 C249 1.409 . S
C243 H235 0.930 . S
C243 C241 1.419 . S
C243 C244 1.362 . S
C244 H236 0.930 . S
C244 C243 1.362 . S
C244 C247 1.409 . S
C245 H237 0.930 . S
C245 C246 1.355 . S
C245 C247 1.415 . S
C246 C245 1.355 . S
C246 C248 1.419 . S
C247 C242 1.425 . S
C247 C244 1.409 . S
C247 C245 1.415 . S
C248 H238 0.930 . S
C248 C246 1.419 . S
C248 C249 1.362 . S
C249 H239 0.930 . S
C249 C242 1.409 . S
C249 C248 1.362 . S
H250 C256 0.930 . S
H251 C259 0.930 . S
H252 C260 0.930 . S
H253 C261 0.930 . S
H254 C264 0.930 . S
H255 C265 0.930 . S
C256 H250 0.930 . S
C256 C257 1.355 . S
C256 C258 1.415 . S
C257 C256 1.355 . S
C257 C259 1.419 . S
C258 C256 1.415 . S
C258 C263 1.425 . S
C258 C265 1.409 . S
C259 H251 0.930 . S
C259 C257 1.419 . S
C259 C260 1.362 . S
C260 H252 0.930 . S
C260 C259 1.362 . S
C260 C263 1.409 . S
C261 H253 0.930 . S
C261 C262 1.355 . S
C261 C263 1.415 . S
C262 C261 1.355 . S
C262 C264 1.419 . S
C263 C258 1.425 . S
C263 C260 1.409 . S
C263 C261 1.415 . S
C264 H254 0.930 . S
C264 C262 1.419 . S
C264 C265 1.362 . S
C265 H255 0.930 . S
C265 C258 1.409 . S
C265 C264 1.362 . S
H266 C272 0.930 . S
H267 C275 0.930 . S
H268 C276 0.930 . S
H269 C277 0.930 . S
H270 C280 0.930 . S
H271 C281 0.930 . S
C272 H266 0.930 . S
C272 C273 1.355 . S
C272 C274 1.415 . S
C273 C272 1.355 . S
C273 C275 1.419 . S
C274 C272 1.415 . S
C274 C279 1.425 . S
C274 C281 1.409 . S
C275 H267 0.930 . S
C275 C273 1.419 . S
C275 C276 1.362 . S
C276 H268 0.930 . S
C276 C275 1.362 . S
C276 C279 1.409 . S
C277 H269 0.930 . S
C277 C278 1.355 . S
C277 C279 1.415 . S
C278 C277 1.355 . S
C278 C280 1.419 . S
C279 C274 1.425 . S
C279 C276 1.409 . S
C279 C277 1.415 . S
C280 H270 0.930 . S
C280 C278 1.419 . S
C280 C281 1.362 . S
C281 H271 0.930 . S
C281 C274 1.409 . S
C281 C280 1.362 . S
H282 C288 0.930 . S
H283 C291 0.930 . S
H284 C292 0.930 . S
H285 C293 0.930 . S
H286 C296 0.930 . S
H287 C297 0.930 . S
C288 H282 0.930 . S
C288 C289 1.355 . S
C288 C290 1.415 . S
C289 C288 1.355 . S
C289 C291 1.419 . S
C290 C288 1.415 . S
C290 C295 1.425 . S
C290 C297 1.409 . S
C291 H283 0.930 . S
C291 C289 1.419 . S
C291 C292 1.362 . S
C292 H284 0.930 . S
C292 C291 1.362 . S
C292 C295 1.409 . S
C293 H285 0.930 . S
C293 C294 1.355 . S
C293 C295 1.415 . S
C294 C293 1.355 . S
C294 C296 1.419 . S
C295 C290 1.425 . S
C295 C292 1.409 . S
C295 C293 1.415 . S
C296 H286 0.930 . S
C296 C294 1.419 . S
C296 C297 1.362 . S
C297 H287 0.930 . S
C297 C290 1.409 . S
C297 C296 1.362 . S
H298 C304 0.930 . S
H299 C307 0.930 . S
H300 C308 0.930 . S
H301 C309 0.930 . S
H302 C312 0.930 . S
H303 C313 0.930 . S
C304 H298 0.930 . S
C304 C305 1.355 . S
C304 C306 1.415 . S
C305 C304 1.355 . S
C305 C307 1.419 . S
C306 C304 1.415 . S
C306 C311 1.425 . S
C306 C313 1.409 . S
C307 H299 0.930 . S
C307 C305 1.419 . S
C307 C308 1.362 . S
C308 H300 0.930 . S
C308 C307 1.362 . S
C308 C311 1.409 . S
C309 H301 0.930 . S
C309 C310 1.355 . S
C309 C311 1.415 . S
C310 C309 1.355 . S
C310 C312 1.419 . S
C311 C306 1.425 . S
C311 C308 1.409 . S
C311 C309 1.415 . S
C312 H302 0.930 . S
C312 C310 1.419 . S
C312 C313 1.362 . S
C313 H303 0.930 . S
C313 C306 1.409 . S
C313 C312 1.362 . S
H314 C320 0.930 . S
H315 C323 0.930 . S
H316 C324 0.930 . S
H317 C325 0.930 . S
H318 C328 0.930 1_545 S
H319 C329 0.930 . S
C320 H314 0.930 . S
C320 C321 1.355 . S
C320 C322 1.415 . S
C321 C320 1.355 . S
C321 C323 1.419 . S
C322 C320 1.415 . S
C322 C327 1.425 . S
C322 C329 1.409 . S
C323 H315 0.930 . S
C323 C321 1.419 . S
C323 C324 1.362 . S
C324 H316 0.930 . S
C324 C323 1.362 . S
C324 C327 1.409 . S
C325 H317 0.930 . S
C325 C326 1.355 1_565 S
C325 C327 1.415 . S
C326 C325 1.355 1_545 S
C326 C328 1.419 1_545 S
C327 C322 1.425 . S
C327 C324 1.409 . S
C327 C325 1.415 . S
C328 H318 0.930 1_565 S
C328 C326 1.419 1_565 S
C328 C329 1.362 . S
C329 H319 0.930 . S
C329 C322 1.409 . S
C329 C328 1.362 . S
H330 C336 0.930 . S
H331 C339 0.930 . S
H332 C340 0.930 . S
H333 C341 0.930 . S
H334 C344 0.930 . S
H335 C345 0.930 . S
C336 H330 0.930 . S
C336 C337 1.355 . S
C336 C338 1.415 . S
C337 C336 1.355 . S
C337 C339 1.419 . S
C338 C336 1.415 . S
C338 C343 1.425 . S
C338 C345 1.409 . S
C339 H331 0.930 . S
C339 C337 1.419 . S
C339 C340 1.362 . S
C340 H332 0.930 . S
C340 C339 1.362 . S
C340 C343 1.409 . S
C341 H333 0.930 . S
C341 C342 1.355 . S
C341 C343 1.415 . S
C342 C341 1.355 . S
C342 C344 1.419 . S
C343 C338 1.425 . S
C343 C340 1.409 . S
C343 C341 1.415 . S
C344 H334 0.930 . S
C344 C342 1.419 . S
C344 C345 1.362 . S
C345 H335 0.930 . S
C345 C338 1.409 . S
C345 C344 1.362 . S
H346 C352 0.930 . S
H347 C355 0.930 . S
H348 C356 0.930 . S
H349 C357 0.930 . S
H350 C360 0.930 . S
H351 C361 0.930 . S
C352 H346 0.930 . S
C352 C353 1.355 . S
C352 C354 1.415 . S
C353 C352 1.355 . S
C353 C355 1.419 . S
C354 C352 1.415 . S
C354 C359 1.425 . S
C354 C361 1.409 . S
C355 H347 0.930 . S
C355 C353 1.419 . S
C355 C356 1.362 . S
C356 H348 0.930 . S
C356 C355 1.362 . S
C356 C359 1.409 . S
C357 H349 0.930 . S
C357 C358 1.355 . S
C357 C359 1.415 . S
C358 C357 1.355 . S
C358 C360 1.419 . S
C359 C354 1.425 . S
C359 C356 1.409 . S
C359 C357 1.415 . S
C360 H350 0.930 . S
C360 C358 1.419 . S
C360 C361 1.362 . S
C361 H351 0.930 . S
C361 C354 1.409 . S
C361 C360 1.362 . S
H362 C368 0.930 . S
H363 C371 0.930 . S
H364 C372 0.930 . S
H365 C373 0.930 . S
H366 C376 0.930 . S
H367 C377 0.930 . S
C368 H362 0.930 . S
C368 C369 1.355 . S
C368 C370 1.415 . S
C369 C368 1.355 . S
C369 C371 1.419 . S
C370 C368 1.415 . S
C370 C375 1.425 . S
C370 C377 1.409 . S
C371 H363 0.930 . S
C371 C369 1.419 . S
C371 C372 1.362 . S
C372 H364 0.930 . S
C372 C371 1.362 . S
C372 C375 1.409 . S
C373 H365 0.930 . S
C373 C374 1.355 . S
C373 C375 1.415 . S
C374 C373 1.355 . S
C374 C376 1.419 . S
C375 C370 1.425 . S
C375 C372 1.409 . S
C375 C373 1.415 . S
C376 H366 0.930 . S
C376 C374 1.419 . S
C376 C377 1.362 . S
C377 H367 0.930 . S
C377 C370 1.409 . S
C377 C376 1.362 . S
H378 C384 0.930 . S
H379 C387 0.930 . S
H380 C388 0.930 . S
H381 C389 0.930 . S
H382 C392 0.930 . S
H383 C393 0.930 1_554 S
C384 H378 0.930 . S
C384 C385 1.355 1_655 S
C384 C386 1.415 . S
C385 C384 1.355 1_455 S
C385 C387 1.419 . S
C386 C384 1.415 . S
C386 C391 1.425 1_655 S
C386 C393 1.409 1_554 S
C387 H379 0.930 . S
C387 C385 1.419 . S
C387 C388 1.362 . S
C388 H380 0.930 . S
C388 C387 1.362 . S
C388 C391 1.409 . S
C389 H381 0.930 . S
C389 C390 1.355 1_455 S
C389 C391 1.415 1_556 S
C390 C389 1.355 1_655 S
C390 C392 1.419 . S
C391 C386 1.425 1_455 S
C391 C388 1.409 . S
C391 C389 1.415 1_554 S
C392 H382 0.930 . S
C392 C390 1.419 . S
C392 C393 1.362 . S
C393 H383 0.930 1_556 S
C393 C386 1.409 1_556 S
C393 C392 1.362 . S
H394 C400 0.930 . S
H395 C403 0.930 . S
H396 C404 0.930 . S
H397 C405 0.930 . S
H398 C408 0.930 . S
H399 C409 0.930 . S
C400 H394 0.930 . S
C400 C401 1.355 . S
C400 C402 1.415 . S
C401 C400 1.355 . S
C401 C403 1.419 . S
C402 C400 1.415 . S
C402 C407 1.425 . S
C402 C409 1.409 . S
C403 H395 0.930 . S
C403 C401 1.419 . S
C403 C404 1.362 . S
C404 H396 0.930 . S
C404 C403 1.362 . S
C404 C407 1.409 . S
C405 H397 0.930 . S
C405 C406 1.355 . S
C405 C407 1.415 . S
C406 C405 1.355 . S
C406 C408 1.419 . S
C407 C402 1.425 . S
C407 C404 1.409 . S
C407 C405 1.415 . S
C408 H398 0.930 . S
C408 C406 1.419 . S
C408 C409 1.362 . S
C409 H399 0.930 . S
C409 C402 1.409 . S
C409 C408 1.362 . S
H410 C416 0.930 . S
H411 C419 0.930 . S
H412 C420 0.930 . S
H413 C421 0.930 . S
H414 C424 0.930 . S
H415 C425 0.930 . S
C416 H410 0.930 . S
C416 C417 1.355 . S
C416 C418 1.415 . S
C417 C416 1.355 . S
C417 C419 1.419 . S
C418 C416 1.415 . S
C418 C423 1.425 . S
C418 C425 1.409 . S
C419 H411 0.930 . S
C419 C417 1.419 . S
C419 C420 1.362 . S
C420 H412 0.930 . S
C420 C419 1.362 . S
C420 C423 1.409 . S
C421 H413 0.930 . S
C421 C422 1.355 . S
C421 C423 1.415 . S
C422 C421 1.355 . S
C422 C424 1.419 . S
C423 C418 1.425 . S
C423 C420 1.409 . S
C423 C421 1.415 . S
C424 H414 0.930 . S
C424 C422 1.419 . S
C424 C425 1.362 . S
C425 H415 0.930 . S
C425 C418 1.409 . S
C425 C424 1.362 . S
H426 C432 0.930 1_565 S
H427 C435 0.930 . S
H428 C436 0.930 . S
H429 C437 0.930 . S
H430 C440 0.930 . S
H431 C441 0.930 . S
C432 H426 0.930 1_545 S
C432 C433 1.355 . S
C432 C434 1.415 . S
C433 C432 1.355 . S
C433 C435 1.419 . S
C434 C432 1.415 . S
C434 C439 1.425 . S
C434 C441 1.409 1_545 S
C435 H427 0.930 . S
C435 C433 1.419 . S
C435 C436 1.362 . S
C436 H428 0.930 . S
C436 C435 1.362 . S
C436 C439 1.409 . S
C437 H429 0.930 . S
C437 C438 1.355 . S
C437 C439 1.415 . S
C438 C437 1.355 . S
C438 C440 1.419 1_545 S
C439 C434 1.425 . S
C439 C436 1.409 . S
C439 C437 1.415 . S
C440 H430 0.930 . S
C440 C438 1.419 1_565 S
C440 C441 1.362 . S
C441 H431 0.930 . S
C441 C434 1.409 1_565 S
C441 C440 1.362 . S
H442 C448 0.930 . S
H443 C451 0.930 . S
H444 C452 0.930 . S
H445 C453 0.930 . S
H446 C456 0.930 . S
H447 C457 0.930 1_556 S
C448 H442 0.930 . S
C448 C449 1.355 . S
C448 C450 1.415 . S
C449 C448 1.355 . S
C449 C451 1.419 . S
C450 C448 1.415 . S
C450 C455 1.425 . S
C450 C457 1.409 1_556 S
C451 H443 0.930 . S
C451 C449 1.419 . S
C451 C452 1.362 . S
C452 H444 0.930 . S
C452 C451 1.362 . S
C452 C455 1.409 . S
C453 H445 0.930 . S
C453 C454 1.355 . S
C453 C455 1.415 1_554 S
C454 C453 1.355 . S
C454 C456 1.419 . S
C455 C450 1.425 . S
C455 C452 1.409 . S
C455 C453 1.415 1_556 S
C456 H446 0.930 . S
C456 C454 1.419 . S
C456 C457 1.362 . S
C457 H447 0.930 1_554 S
C457 C450 1.409 1_554 S
C457 C456 1.362 . S
H458 C464 0.930 . S
H459 C467 0.930 . S
H460 C468 0.930 . S
H461 C469 0.930 1_655 S
H462 C472 0.930 . S
H463 C473 0.930 . S
C464 H458 0.930 . S
C464 C465 1.355 . S
C464 C466 1.415 . S
C465 C464 1.355 . S
C465 C467 1.419 1_455 S
C466 C464 1.415 . S
C466 C471 1.425 . S
C466 C473 1.409 . S
C467 H459 0.930 . S
C467 C465 1.419 1_655 S
C467 C468 1.362 . S
C468 H460 0.930 . S
C468 C467 1.362 . S
C468 C471 1.409 1_655 S
C469 H461 0.930 1_455 S
C469 C470 1.355 . S
C469 C471 1.415 . S
C470 C469 1.355 . S
C470 C472 1.419 . S
C471 C466 1.425 . S
C471 C468 1.409 1_455 S
C471 C469 1.415 . S
C472 H462 0.930 . S
C472 C470 1.419 . S
C472 C473 1.362 . S
C473 H463 0.930 . S
C473 C466 1.409 . S
C473 C472 1.362 . S
C193 C19 3.064 . S
C198 C185 2.991 . S
C209 C49 3.133 . S
C214 C163 3.070 . S
C225 C99 3.047 . S
C230 C174 2.999 . S
C241 C9 3.001 . S
C246 C179 2.950 . S
C262 C157 2.926 . S
C257 C59 2.936 . S
C278 C168 2.968 . S
C273 C89 3.016 . S
C289 C55 0.720 . S
C294 C141 0.676 . S
C305 C85 0.361 . S
C310 C146 0.332 . S
C321 C15 0.371 . S
C326 C124 0.252 . S
C342 C135 0.418 . S
C337 C45 0.450 . S
C358 C152 0.476 . S
C353 C95 0.449 . S
C369 C5 0.436 . S
C374 C130 0.465 . S
C390 C147 1.216 . S
C385 C18 1.227 . S
C401 C58 1.073 . S
C406 C125 1.164 . S
C417 C98 1.178 . S
C422 C136 1.229 . S
C438 C169 1.752 . S
C433 C48 1.670 . S
C454 C180 1.764 . S
C449 C88 1.732 . S
C465 C8 1.679 . S
C470 C158 1.808 . S
