# Generated by pormake.
# Topology eea, (3,6)-cn, num edge types: 1
# Building blocks:
#     Node 0, Type 0, BuildingBlock: KAKCAD_clean_linker_0, # of connection points: 3
#     Node 1, Type 0, BuildingBlock: KAKCAD_clean_linker_0, # of connection points: 3
#     Node 2, Type 0, BuildingBlock: KAKCAD_clean_linker_0, # of connection points: 3
#     Node 3, Type 0, BuildingBlock: KAKCAD_clean_linker_0, # of connection points: 3
#     Node 4, Type 0, BuildingBlock: KAKCAD_clean_linker_0, # of connection points: 3
#     Node 5, Type 0, BuildingBlock: KAKCAD_clean_linker_0, # of connection points: 3
#     Node 6, Type 0, BuildingBlock: KAKCAD_clean_linker_0, # of connection points: 3
#     Node 7, Type 0, BuildingBlock: KAKCAD_clean_linker_0, # of connection points: 3
#     Node 8, Type 0, BuildingBlock: KAKCAD_clean_linker_0, # of connection points: 3
#     Node 9, Type 0, BuildingBlock: KAKCAD_clean_linker_0, # of connection points: 3
#     Node 10, Type 0, BuildingBlock: KAKCAD_clean_linker_0, # of connection points: 3
#     Node 11, Type 0, BuildingBlock: KAKCAD_clean_linker_0, # of connection points: 3
#     Node 12, Type 0, BuildingBlock: KAKCAD_clean_linker_0, # of connection points: 3
#     Node 13, Type 0, BuildingBlock: KAKCAD_clean_linker_0, # of connection points: 3
#     Node 14, Type 0, BuildingBlock: KAKCAD_clean_linker_0, # of connection points: 3
#     Node 15, Type 0, BuildingBlock: KAKCAD_clean_linker_0, # of connection points: 3
#     Node 16, Type 0, BuildingBlock: KAKCAD_clean_linker_0, # of connection points: 3
#     Node 17, Type 0, BuildingBlock: KAKCAD_clean_linker_0, # of connection points: 3
#     Node 18, Type 1, BuildingBlock: CUKXOW_clean_sbu_0, # of connection points: 6
#     Node 19, Type 1, BuildingBlock: CUKXOW_clean_sbu_0, # of connection points: 6
#     Node 20, Type 1, BuildingBlock: CUKXOW_clean_sbu_0, # of connection points: 6
#     Node 21, Type 1, BuildingBlock: CUKXOW_clean_sbu_0, # of connection points: 6
#     Node 22, Type 1, BuildingBlock: CUKXOW_clean_sbu_0, # of connection points: 6
#     Node 23, Type 1, BuildingBlock: CUKXOW_clean_sbu_0, # of connection points: 6
#     Node 24, Type 1, BuildingBlock: CUKXOW_clean_sbu_0, # of connection points: 6
#     Node 25, Type 1, BuildingBlock: CUKXOW_clean_sbu_0, # of connection points: 6
#     Node 26, Type 1, BuildingBlock: CUKXOW_clean_sbu_0, # of connection points: 6
#     Edge 27, Type (0, 1), BuildingBlock: UVAHIK_clean_linker_0, # of connection points: 2
#     Edge 28, Type (0, 1), BuildingBlock: UVAHIK_clean_linker_0, # of connection points: 2
#     Edge 29, Type (0, 1), BuildingBlock: UVAHIK_clean_linker_0, # of connection points: 2
#     Edge 30, Type (0, 1), BuildingBlock: UVAHIK_clean_linker_0, # of connection points: 2
#     Edge 31, Type (0, 1), BuildingBlock: UVAHIK_clean_linker_0, # of connection points: 2
#     Edge 32, Type (0, 1), BuildingBlock: UVAHIK_clean_linker_0, # of connection points: 2
#     Edge 33, Type (0, 1), BuildingBlock: UVAHIK_clean_linker_0, # of connection points: 2
#     Edge 34, Type (0, 1), BuildingBlock: UVAHIK_clean_linker_0, # of connection points: 2
#     Edge 35, Type (0, 1), BuildingBlock: UVAHIK_clean_linker_0, # of connection points: 2
#     Edge 36, Type (0, 1), BuildingBlock: UVAHIK_clean_linker_0, # of connection points: 2
#     Edge 37, Type (0, 1), BuildingBlock: UVAHIK_clean_linker_0, # of connection points: 2
#     Edge 38, Type (0, 1), BuildingBlock: UVAHIK_clean_linker_0, # of connection points: 2
#     Edge 39, Type (0, 1), BuildingBlock: UVAHIK_clean_linker_0, # of connection points: 2
#     Edge 40, Type (0, 1), BuildingBlock: UVAHIK_clean_linker_0, # of connection points: 2
#     Edge 41, Type (0, 1), BuildingBlock: UVAHIK_clean_linker_0, # of connection points: 2
#     Edge 42, Type (0, 1), BuildingBlock: UVAHIK_clean_linker_0, # of connection points: 2
#     Edge 43, Type (0, 1), BuildingBlock: UVAHIK_clean_linker_0, # of connection points: 2
#     Edge 44, Type (0, 1), BuildingBlock: UVAHIK_clean_linker_0, # of connection points: 2
#     Edge 45, Type (0, 1), BuildingBlock: UVAHIK_clean_linker_0, # of connection points: 2
#     Edge 46, Type (0, 1), BuildingBlock: UVAHIK_clean_linker_0, # of connection points: 2
#     Edge 47, Type (0, 1), BuildingBlock: UVAHIK_clean_linker_0, # of connection points: 2
#     Edge 48, Type (0, 1), BuildingBlock: UVAHIK_clean_linker_0, # of connection points: 2
#     Edge 49, Type (0, 1), BuildingBlock: UVAHIK_clean_linker_0, # of connection points: 2
#     Edge 50, Type (0, 1), BuildingBlock: UVAHIK_clean_linker_0, # of connection points: 2
#     Edge 51, Type (0, 1), BuildingBlock: UVAHIK_clean_linker_0, # of connection points: 2
#     Edge 52, Type (0, 1), BuildingBlock: UVAHIK_clean_linker_0, # of connection points: 2
#     Edge 53, Type (0, 1), BuildingBlock: UVAHIK_clean_linker_0, # of connection points: 2
#     Edge 54, Type (0, 1), BuildingBlock: UVAHIK_clean_linker_0, # of connection points: 2
#     Edge 55, Type (0, 1), BuildingBlock: UVAHIK_clean_linker_0, # of connection points: 2
#     Edge 56, Type (0, 1), BuildingBlock: UVAHIK_clean_linker_0, # of connection points: 2
#     Edge 57, Type (0, 1), BuildingBlock: UVAHIK_clean_linker_0, # of connection points: 2
#     Edge 58, Type (0, 1), BuildingBlock: UVAHIK_clean_linker_0, # of connection points: 2
#     Edge 59, Type (0, 1), BuildingBlock: UVAHIK_clean_linker_0, # of connection points: 2
#     Edge 60, Type (0, 1), BuildingBlock: UVAHIK_clean_linker_0, # of connection points: 2
#     Edge 61, Type (0, 1), BuildingBlock: UVAHIK_clean_linker_0, # of connection points: 2
#     Edge 62, Type (0, 1), BuildingBlock: UVAHIK_clean_linker_0, # of connection points: 2
#     Edge 63, Type (0, 1), BuildingBlock: UVAHIK_clean_linker_0, # of connection points: 2
#     Edge 64, Type (0, 1), BuildingBlock: UVAHIK_clean_linker_0, # of connection points: 2
#     Edge 65, Type (0, 1), BuildingBlock: UVAHIK_clean_linker_0, # of connection points: 2
#     Edge 66, Type (0, 1), BuildingBlock: UVAHIK_clean_linker_0, # of connection points: 2
#     Edge 67, Type (0, 1), BuildingBlock: UVAHIK_clean_linker_0, # of connection points: 2
#     Edge 68, Type (0, 1), BuildingBlock: UVAHIK_clean_linker_0, # of connection points: 2
#     Edge 69, Type (0, 1), BuildingBlock: UVAHIK_clean_linker_0, # of connection points: 2
#     Edge 70, Type (0, 1), BuildingBlock: UVAHIK_clean_linker_0, # of connection points: 2
#     Edge 71, Type (0, 1), BuildingBlock: UVAHIK_clean_linker_0, # of connection points: 2
#     Edge 72, Type (0, 1), BuildingBlock: UVAHIK_clean_linker_0, # of connection points: 2
#     Edge 73, Type (0, 1), BuildingBlock: UVAHIK_clean_linker_0, # of connection points: 2
#     Edge 74, Type (0, 1), BuildingBlock: UVAHIK_clean_linker_0, # of connection points: 2
#     Edge 75, Type (0, 1), BuildingBlock: UVAHIK_clean_linker_0, # of connection points: 2
#     Edge 76, Type (0, 1), BuildingBlock: UVAHIK_clean_linker_0, # of connection points: 2
#     Edge 77, Type (0, 1), BuildingBlock: UVAHIK_clean_linker_0, # of connection points: 2
#     Edge 78, Type (0, 1), BuildingBlock: UVAHIK_clean_linker_0, # of connection points: 2
#     Edge 79, Type (0, 1), BuildingBlock: UVAHIK_clean_linker_0, # of connection points: 2
#     Edge 80, Type (0, 1), BuildingBlock: UVAHIK_clean_linker_0, # of connection points: 2
# Relax obj value: 0.017
# Max RMSD: 0.127
# Mean RMSD: 0.052
data_MOF--net-eea--node1-CUKXOW_clean_sbu_0--node2-KAKCAD_clean_linker_0--edge1-UVAHIK_clean_linker_0
_symmetry_space_group_name_H-M    P1
_symmetry_Int_Tables_number       1
_symmetry_cell_setting            triclinic
loop_
_symmetry_equiv_pos_as_xyz
'x, y, z'
_cell_length_a     82.738406
_cell_length_b     79.81991
_cell_length_c     91.553435
_cell_angle_alpha  93.176858
_cell_angle_beta   92.987002
_cell_angle_gamma 119.92618
loop_
_atom_site_label
_atom_site_type_symbol
_atom_site_fract_x
_atom_site_fract_y
_atom_site_fract_z
_atom_type_partial_charge
C0 C 0.28261 0.16712 0.48343 0.0
C1 C 0.29601 0.16218 0.48818 0.0
C2 C 0.2771 0.16542 0.46847 0.0
C3 C 0.2848 0.15865 0.45796 0.0
C4 C 0.29856 0.15423 0.46266 0.0
C5 C 0.30415 0.15604 0.47759 0.0
C6 C 0.27774 0.15514 0.44222 0.0
C7 C 0.27474 0.16879 0.43535 0.0
C8 C 0.26721 0.16501 0.42062 0.0
C9 C 0.26264 0.14732 0.41281 0.0
C10 C 0.26546 0.13349 0.41954 0.0
C11 C 0.27316 0.13759 0.4342 0.0
C12 C 0.25942 0.11429 0.41159 0.0
C13 C 0.24192 0.10395 0.40331 0.0
C14 C 0.2707 0.10578 0.41274 0.0
C15 C 0.26446 0.08717 0.40601 0.0
C16 C 0.24677 0.07665 0.39803 0.0
C17 C 0.26336 0.17911 0.41354 0.0
C18 C 0.2552 0.18831 0.42119 0.0
C19 C 0.26716 0.18291 0.39892 0.0
C20 C 0.26253 0.19533 0.392 0.0
C21 C 0.25404 0.20425 0.39957 0.0
C22 C 0.25058 0.20073 0.41428 0.0
C23 C 0.23565 0.08533 0.39662 0.0
H24 H 0.2759 0.17167 0.49129 0.0
H25 H 0.26631 0.16872 0.46517 0.0
H26 H 0.30492 0.14924 0.45477 0.0
H27 H 0.3148 0.15251 0.48083 0.0
H28 H 0.27843 0.18243 0.44146 0.0
H29 H 0.2748 0.12672 0.43962 0.0
H30 H 0.25653 0.14413 0.40153 0.0
H31 H 0.23282 0.11004 0.40234 0.0
H32 H 0.28432 0.11346 0.41895 0.0
H33 H 0.27329 0.08082 0.40739 0.0
H34 H 0.25183 0.18546 0.43239 0.0
H35 H 0.2737 0.17626 0.3928 0.0
H36 H 0.22204 0.07767 0.39041 0.0
H37 H 0.24379 0.20713 0.42035 0.0
H38 H 0.26563 0.19797 0.38073 0.0
C39 C 0.86786 0.17515 0.48285 0.0
C40 C 0.86296 0.16164 0.49338 0.0
C41 C 0.86949 0.17004 0.46836 0.0
C42 C 0.86605 0.15126 0.46412 0.0
C43 C 0.86109 0.13778 0.47466 0.0
C44 C 0.85958 0.14291 0.48912 0.0
C45 C 0.86786 0.14567 0.44884 0.0
C46 C 0.88346 0.15798 0.44158 0.0
C47 C 0.886 0.15196 0.42761 0.0
C48 C 0.87258 0.13362 0.42076 0.0
C49 C 0.85672 0.12126 0.42777 0.0
C50 C 0.85446 0.12746 0.44178 0.0
C51 C 0.84287 0.10162 0.42074 0.0
C52 C 0.83699 0.09873 0.40567 0.0
C53 C 0.83554 0.08556 0.42908 0.0
C54 C 0.8226 0.06704 0.42253 0.0
C55 C 0.81669 0.06412 0.40747 0.0
C56 C 0.90327 0.16434 0.42057 0.0
C57 C 0.90948 0.1841 0.41957 0.0
C58 C 0.91391 0.15651 0.41516 0.0
C59 C 0.93062 0.16828 0.40906 0.0
C60 C 0.93688 0.18805 0.40809 0.0
C61 C 0.92608 0.19584 0.41327 0.0
C62 C 0.82404 0.08017 0.3991 0.0
H63 H 0.87063 0.18972 0.48585 0.0
H64 H 0.87326 0.18069 0.46044 0.0
H65 H 0.85858 0.12327 0.47177 0.0
H66 H 0.85556 0.13211 0.49694 0.0
H67 H 0.89412 0.17185 0.44709 0.0
H68 H 0.84219 0.1181 0.44723 0.0
H69 H 0.87467 0.12885 0.41007 0.0
H70 H 0.84222 0.11085 0.39899 0.0
H71 H 0.84005 0.08723 0.44065 0.0
H72 H 0.81746 0.05493 0.42922 0.0
H73 H 0.90148 0.19045 0.42364 0.0
H74 H 0.9095 0.14134 0.41592 0.0
H75 H 0.81959 0.07842 0.38751 0.0
H76 H 0.93068 0.21107 0.41271 0.0
H77 H 0.93864 0.16191 0.40506 0.0
C78 C 0.88015 0.71751 0.49835 0.0
C79 C 0.86168 0.70355 0.50056 0.0
C80 C 0.88443 0.72515 0.4848 0.0
C81 C 0.87033 0.71901 0.47319 0.0
C82 C 0.85195 0.70473 0.47528 0.0
C83 C 0.84767 0.69706 0.48881 0.0
C84 C 0.87467 0.72798 0.45911 0.0
C85 C 0.89096 0.73144 0.45269 0.0
C86 C 0.89558 0.74069 0.43968 0.0
C87 C 0.88343 0.7461 0.43295 0.0
C88 C 0.86702 0.74273 0.4392 0.0
C89 C 0.86282 0.7337 0.45233 0.0
C90 C 0.8545 0.74903 0.43225 0.0
C91 C 0.86197 0.76647 0.4255 0.0
C92 C 0.83496 0.73774 0.43244 0.0
C93 C 0.82322 0.74383 0.42621 0.0
C94 C 0.83068 0.76123 0.4194 0.0
C95 C 0.9134 0.74532 0.43341 0.0
C96 C 0.92993 0.75198 0.44268 0.0
C97 C 0.91419 0.74375 0.41813 0.0
C98 C 0.93117 0.74916 0.41225 0.0
C99 C 0.94775 0.75609 0.42152 0.0
C100 C 0.94688 0.75721 0.43681 0.0
C101 C 0.85021 0.77241 0.41907 0.0
H102 H 0.8912 0.72302 0.50723 0.0
H103 H 0.89868 0.73631 0.48357 0.0
H104 H 0.84086 0.69952 0.46644 0.0
H105 H 0.83337 0.68609 0.49009 0.0
H106 H 0.89998 0.72676 0.45778 0.0
H107 H 0.85063 0.7317 0.45759 0.0
H108 H 0.88688 0.7532 0.4229 0.0
H109 H 0.87695 0.77573 0.42533 0.0
H110 H 0.82866 0.7241 0.43736 0.0
H111 H 0.80829 0.73495 0.4269 0.0
H112 H 0.9299 0.75359 0.4545 0.0
H113 H 0.90168 0.73842 0.41067 0.0
H114 H 0.85649 0.78574 0.41374 0.0
H115 H 0.95931 0.7622 0.44428 0.0
H116 H 0.93132 0.7483 0.40042 0.0
C117 C 0.14811 0.28602 0.50734 0.0
C118 C 0.14272 0.29948 0.50363 0.0
C119 C 0.14461 0.27833 0.52088 0.0
C120 C 0.1357 0.28398 0.53108 0.0
C121 C 0.13023 0.2974 0.52736 0.0
C122 C 0.13368 0.30506 0.51375 0.0
C123 C 0.13195 0.27557 0.54542 0.0
C124 C 0.14536 0.27262 0.55305 0.0
C125 C 0.14148 0.26318 0.56599 0.0
C126 C 0.12411 0.25722 0.57154 0.0
C127 C 0.11065 0.26039 0.56423 0.0
C128 C 0.11468 0.26958 0.55117 0.0
C129 C 0.09219 0.25357 0.57003 0.0
C130 C 0.08264 0.23523 0.5754 0.0
C131 C 0.08405 0.26538 0.57036 0.0
C132 C 0.06685 0.25909 0.57613 0.0
C133 C 0.05744 0.24086 0.58169 0.0
C134 C 0.15518 0.25869 0.57327 0.0
C135 C 0.16532 0.25261 0.56478 0.0
C136 C 0.15779 0.2598 0.58867 0.0
C137 C 0.16995 0.25454 0.5954 0.0
C138 C 0.17988 0.24819 0.58689 0.0
C139 C 0.1776 0.24754 0.57151 0.0
C140 C 0.06546 0.22895 0.58118 0.0
H141 H 0.15477 0.28115 0.49965 0.0
H142 H 0.14861 0.26768 0.52325 0.0
H143 H 0.12348 0.30216 0.53504 0.0
H144 H 0.1295 0.31553 0.51121 0.0
H145 H 0.1589 0.2777 0.54888 0.0
H146 H 0.10407 0.27134 0.54518 0.0
H147 H 0.12091 0.24983 0.58147 0.0
H148 H 0.08837 0.22564 0.57503 0.0
H149 H 0.09117 0.27966 0.56643 0.0
H150 H 0.06112 0.26868 0.57654 0.0
H151 H 0.1635 0.25133 0.5529 0.0
H152 H 0.15038 0.26466 0.59554 0.0
H153 H 0.05839 0.21469 0.58514 0.0
H154 H 0.18525 0.24305 0.5646 0.0
H155 H 0.17124 0.25506 0.60727 0.0
C156 C 0.69047 0.82853 0.51998 0.0
C157 C 0.70139 0.84111 0.50983 0.0
C158 C 0.69672 0.83246 0.53494 0.0
C159 C 0.71373 0.84926 0.53996 0.0
C160 C 0.72453 0.8619 0.52981 0.0
C161 C 0.71849 0.85777 0.51487 0.0
C162 C 0.72049 0.85372 0.55572 0.0
C163 C 0.72319 0.84045 0.56338 0.0
C164 C 0.7315 0.8455 0.57792 0.0
C165 C 0.73649 0.8638 0.58489 0.0
C166 C 0.7337 0.87716 0.57738 0.0
C167 C 0.72565 0.87195 0.56279 0.0
C168 C 0.74009 0.89692 0.58448 0.0
C169 C 0.7374 0.89972 0.59925 0.0
C170 C 0.74922 0.91321 0.5765 0.0
C171 C 0.75544 0.93183 0.58311 0.0
C172 C 0.75275 0.93465 0.59787 0.0
C173 C 0.73644 0.83238 0.58534 0.0
C174 C 0.7239 0.81225 0.58428 0.0
C175 C 0.75419 0.8399 0.59298 0.0
C176 C 0.75944 0.82755 0.59919 0.0
C177 C 0.74707 0.8074 0.59791 0.0
C178 C 0.72914 0.79988 0.59056 0.0
C179 C 0.74369 0.9184 0.60589 0.0
H180 H 0.67725 0.81557 0.5163 0.0
H181 H 0.6882 0.82254 0.54262 0.0
H182 H 0.73776 0.87487 0.53344 0.0
H183 H 0.72707 0.86773 0.50724 0.0
H184 H 0.71982 0.82665 0.55771 0.0
H185 H 0.72342 0.8821 0.55683 0.0
H186 H 0.74306 0.86785 0.59605 0.0
H187 H 0.73024 0.88745 0.60564 0.0
H188 H 0.75188 0.91162 0.5652 0.0
H189 H 0.76268 0.94409 0.57672 0.0
H190 H 0.71008 0.80606 0.57853 0.0
H191 H 0.76427 0.8553 0.59384 0.0
H192 H 0.74126 0.92011 0.61725 0.0
H193 H 0.71934 0.78439 0.58932 0.0
H194 H 0.77327 0.8338 0.60494 0.0
C195 C 0.12387 0.83615 0.51231 0.0
C196 C 0.14152 0.83904 0.50927 0.0
C197 C 0.12034 0.83925 0.52667 0.0
C198 C 0.13439 0.84537 0.53832 0.0
C199 C 0.15193 0.8479 0.53536 0.0
C200 C 0.15544 0.84472 0.521 0.0
C201 C 0.13098 0.84987 0.55341 0.0
C202 C 0.11398 0.83761 0.55914 0.0
C203 C 0.11019 0.8424 0.57306 0.0
C204 C 0.12376 0.85962 0.58129 0.0
C205 C 0.14085 0.87206 0.57574 0.0
C206 C 0.14439 0.86699 0.56183 0.0
C207 C 0.15451 0.8909 0.58407 0.0
C208 C 0.1483 0.90254 0.59101 0.0
C209 C 0.17385 0.89769 0.58476 0.0
C210 C 0.18669 0.91587 0.592 0.0
C211 C 0.18047 0.92766 0.59866 0.0
C212 C 0.0918 0.82992 0.57877 0.0
C213 C 0.07514 0.82171 0.5694 0.0
C214 C 0.09068 0.8267 0.59373 0.0
C215 C 0.0733 0.81592 0.59924 0.0
C216 C 0.05667 0.80799 0.5899 0.0
C217 C 0.05777 0.81082 0.5749 0.0
C218 C 0.16112 0.92068 0.59823 0.0
H219 H 0.11293 0.83207 0.50353 0.0
H220 H 0.10677 0.83744 0.52859 0.0
H221 H 0.16295 0.85237 0.54415 0.0
H222 H 0.16908 0.84674 0.51909 0.0
H223 H 0.10372 0.82425 0.55277 0.0
H224 H 0.15724 0.87685 0.55724 0.0
H225 H 0.12087 0.86359 0.59194 0.0
H226 H 0.13352 0.89785 0.59056 0.0
H227 H 0.17905 0.88898 0.57963 0.0
H228 H 0.20151 0.92089 0.59204 0.0
H229 H 0.07546 0.82415 0.55787 0.0
H230 H 0.10324 0.83253 0.6012 0.0
H231 H 0.15586 0.92932 0.60341 0.0
H232 H 0.04517 0.80507 0.56747 0.0
H233 H 0.07288 0.81372 0.61082 0.0
C234 C 0.95795 0.50146 0.81918 0.0
C235 C 0.9715 0.49648 0.82337 0.0
C236 C 0.95066 0.49823 0.80454 0.0
C237 C 0.95668 0.48991 0.79375 0.0
C238 C 0.97052 0.48532 0.79785 0.0
C239 C 0.97788 0.48862 0.8125 0.0
C240 C 0.94784 0.48519 0.77844 0.0
C241 C 0.94403 0.49835 0.77164 0.0
C242 C 0.93401 0.49331 0.7577 0.0
C243 C 0.92823 0.47493 0.75044 0.0
C244 C 0.93232 0.46177 0.75692 0.0
C245 C 0.94213 0.46703 0.77093 0.0
C246 C 0.92572 0.44222 0.74934 0.0
C247 C 0.90754 0.43134 0.74219 0.0
C248 C 0.93744 0.43416 0.74939 0.0
C249 C 0.93107 0.41558 0.74254 0.0
C250 C 0.91282 0.40463 0.73551 0.0
C251 C 0.92891 0.50686 0.75102 0.0
C252 C 0.92453 0.51875 0.75992 0.0
C253 C 0.92784 0.50766 0.73568 0.0
C254 C 0.92207 0.51962 0.72943 0.0
C255 C 0.91772 0.53136 0.73839 0.0
C256 C 0.9192 0.53103 0.75367 0.0
C257 C 0.90117 0.41276 0.73536 0.0
H258 H 0.9525 0.50724 0.82728 0.0
H259 H 0.9398 0.50165 0.80176 0.0
H260 H 0.97559 0.47911 0.78974 0.0
H261 H 0.98852 0.48492 0.81531 0.0
H262 H 0.94895 0.51257 0.77729 0.0
H263 H 0.9446 0.45662 0.77627 0.0
H264 H 0.92028 0.47069 0.73979 0.0
H265 H 0.89808 0.43703 0.7421 0.0
H266 H 0.95157 0.44225 0.7547 0.0
H267 H 0.94034 0.40966 0.74298 0.0
H268 H 0.92475 0.51829 0.77172 0.0
H269 H 0.93146 0.49907 0.72847 0.0
H270 H 0.8871 0.40478 0.72991 0.0
H271 H 0.9157 0.53986 0.76076 0.0
H272 H 0.92111 0.5198 0.7176 0.0
C273 C 0.52848 0.50044 0.81771 0.0
C274 C 0.52079 0.48558 0.82715 0.0
C275 C 0.53108 0.49635 0.80326 0.0
C276 C 0.52581 0.4773 0.79793 0.0
C277 C 0.51782 0.46241 0.8073 0.0
C278 C 0.51541 0.46652 0.82177 0.0
C279 C 0.52917 0.47296 0.78281 0.0
C280 C 0.54666 0.48453 0.77754 0.0
C281 C 0.55043 0.47985 0.76359 0.0
C282 C 0.53637 0.46335 0.75492 0.0
C283 C 0.51876 0.45153 0.76 0.0
C284 C 0.51525 0.45664 0.77394 0.0
C285 C 0.50448 0.43337 0.75109 0.0
C286 C 0.50284 0.43233 0.73562 0.0
C287 C 0.49295 0.41658 0.75797 0.0
C288 C 0.4804 0.3992 0.74963 0.0
C289 C 0.47936 0.39811 0.73424 0.0
C290 C 0.56922 0.49178 0.75826 0.0
C291 C 0.57915 0.51212 0.76124 0.0
C292 C 0.57739 0.48291 0.75015 0.0
C293 C 0.59487 0.4941 0.74494 0.0
C294 C 0.60472 0.51437 0.74792 0.0
C295 C 0.59678 0.52328 0.7562 0.0
C296 C 0.49057 0.41481 0.72729 0.0
H297 H 0.53284 0.51528 0.82161 0.0
H298 H 0.53719 0.50808 0.79624 0.0
H299 H 0.51379 0.44762 0.80353 0.0
H300 H 0.50927 0.45476 0.82876 0.0
H301 H 0.55759 0.49675 0.78459 0.0
H302 H 0.50165 0.44796 0.77794 0.0
H303 H 0.5393 0.45952 0.74425 0.0
H304 H 0.51113 0.44501 0.7299 0.0
H305 H 0.494 0.41662 0.76981 0.0
H306 H 0.47198 0.3864 0.7552 0.0
H307 H 0.5732 0.51947 0.76727 0.0
H308 H 0.5704 0.46728 0.74795 0.0
H309 H 0.48985 0.41428 0.71541 0.0
H310 H 0.60406 0.53892 0.75853 0.0
H311 H 0.60083 0.48688 0.73874 0.0
C312 C 0.55097 0.0537 0.83104 0.0
C313 C 0.53289 0.03916 0.83357 0.0
C314 C 0.55442 0.06143 0.81749 0.0
C315 C 0.53982 0.05488 0.80623 0.0
C316 C 0.52175 0.04027 0.80873 0.0
C317 C 0.51834 0.03241 0.82225 0.0
C318 C 0.54346 0.0635 0.79201 0.0
C319 C 0.55928 0.0665 0.78507 0.0
C320 C 0.56336 0.07542 0.77191 0.0
C321 C 0.55108 0.0809 0.76553 0.0
C322 C 0.53513 0.07803 0.77232 0.0
C323 C 0.53148 0.06931 0.78561 0.0
C324 C 0.52259 0.08456 0.76572 0.0
C325 C 0.52995 0.1015 0.75833 0.0
C326 C 0.50315 0.07395 0.76676 0.0
C327 C 0.49144 0.08015 0.76064 0.0
C328 C 0.49877 0.09692 0.75304 0.0
C329 C 0.58086 0.07979 0.76517 0.0
C330 C 0.59762 0.08624 0.77408 0.0
C331 C 0.58114 0.07828 0.74983 0.0
C332 C 0.59787 0.08362 0.74355 0.0
C333 C 0.6147 0.09037 0.75247 0.0
C334 C 0.61429 0.09133 0.76781 0.0
C335 C 0.5182 0.10746 0.75193 0.0
H336 H 0.56247 0.05908 0.83954 0.0
H337 H 0.56846 0.0728 0.8159 0.0
H338 H 0.51028 0.03487 0.80019 0.0
H339 H 0.50422 0.02134 0.82395 0.0
H340 H 0.56835 0.06173 0.7899 0.0
H341 H 0.51967 0.06763 0.79129 0.0
H342 H 0.55412 0.08769 0.75535 0.0
H343 H 0.54486 0.11033 0.75753 0.0
H344 H 0.49688 0.06071 0.77219 0.0
H345 H 0.47662 0.0718 0.76198 0.0
H346 H 0.59801 0.08782 0.78594 0.0
H347 H 0.56845 0.07309 0.74262 0.0
H348 H 0.52442 0.12027 0.74599 0.0
H349 H 0.62689 0.09612 0.77504 0.0
H350 H 0.59765 0.08287 0.73169 0.0
C351 C 0.80806 0.61733 0.84048 0.0
C352 C 0.80774 0.63462 0.83932 0.0
C353 C 0.80503 0.60884 0.85372 0.0
C354 C 0.80132 0.61732 0.86597 0.0
C355 C 0.80094 0.6346 0.86483 0.0
C356 C 0.80433 0.64332 0.85162 0.0
C357 C 0.79753 0.60783 0.87979 0.0
C358 C 0.8098 0.6022 0.88588 0.0
C359 C 0.8058 0.59208 0.89849 0.0
C360 C 0.78921 0.58754 0.90494 0.0
C361 C 0.77673 0.593 0.89893 0.0
C362 C 0.78114 0.6034 0.88645 0.0
C363 C 0.75867 0.58699 0.90524 0.0
C364 C 0.74783 0.568 0.90925 0.0
C365 C 0.75197 0.59998 0.90705 0.0
C366 C 0.7348 0.59412 0.91277 0.0
C367 C 0.72393 0.5751 0.91673 0.0
C368 C 0.81866 0.58581 0.90469 0.0
C369 C 0.82694 0.57826 0.89536 0.0
C370 C 0.82261 0.58712 0.91997 0.0
C371 C 0.83446 0.5809 0.92578 0.0
C372 C 0.84268 0.57331 0.91645 0.0
C373 C 0.83885 0.57212 0.90117 0.0
C374 C 0.73065 0.56212 0.91492 0.0
H375 H 0.81077 0.61044 0.83115 0.0
H376 H 0.80526 0.59544 0.85432 0.0
H377 H 0.79815 0.64141 0.87417 0.0
H378 H 0.80396 0.65663 0.85094 0.0
H379 H 0.82258 0.60588 0.88081 0.0
H380 H 0.77139 0.60725 0.88149 0.0
H381 H 0.78585 0.57945 0.91453 0.0
H382 H 0.75249 0.55757 0.90781 0.0
H383 H 0.76007 0.61473 0.90412 0.0
H384 H 0.72992 0.6044 0.91393 0.0
H385 H 0.82394 0.57675 0.88355 0.0
H386 H 0.81668 0.59313 0.92745 0.0
H387 H 0.7227 0.54744 0.91801 0.0
H388 H 0.84476 0.56607 0.89371 0.0
H389 H 0.83737 0.58225 0.9376 0.0
C390 C 0.354 0.15457 0.85431 0.0
C391 C 0.36197 0.16846 0.84416 0.0
C392 C 0.36022 0.15956 0.86928 0.0
C393 C 0.37432 0.17857 0.87434 0.0
C394 C 0.382 0.19248 0.86419 0.0
C395 C 0.37591 0.18748 0.84929 0.0
C396 C 0.38164 0.18393 0.89006 0.0
C397 C 0.38641 0.17203 0.89775 0.0
C398 C 0.39524 0.17806 0.91212 0.0
C399 C 0.39892 0.19602 0.91888 0.0
C400 C 0.39414 0.20804 0.91138 0.0
C401 C 0.38532 0.20176 0.89703 0.0
C402 C 0.39944 0.22766 0.91818 0.0
C403 C 0.39777 0.2307 0.93317 0.0
C404 C 0.40687 0.24367 0.90977 0.0
C405 C 0.41265 0.26228 0.91622 0.0
C406 C 0.41122 0.26535 0.93124 0.0
C407 C 0.40184 0.16628 0.91966 0.0
C408 C 0.39044 0.14601 0.91916 0.0
C409 C 0.41989 0.17526 0.92705 0.0
C410 C 0.42648 0.16421 0.93367 0.0
C411 C 0.41518 0.14392 0.93305 0.0
C412 C 0.39702 0.13494 0.92584 0.0
C413 C 0.40364 0.24936 0.93964 0.0
H414 H 0.34327 0.13979 0.85064 0.0
H415 H 0.35402 0.14857 0.87688 0.0
H416 H 0.39303 0.20718 0.86772 0.0
H417 H 0.38214 0.19855 0.84174 0.0
H418 H 0.38421 0.15858 0.89225 0.0
H419 H 0.38142 0.21085 0.89119 0.0
H420 H 0.40601 0.20086 0.92986 0.0
H421 H 0.39189 0.21864 0.93991 0.0
H422 H 0.40871 0.24193 0.89827 0.0
H423 H 0.41871 0.27435 0.90951 0.0
H424 H 0.37643 0.1387 0.91361 0.0
H425 H 0.42911 0.19083 0.92747 0.0
H426 H 0.40216 0.25125 0.9512 0.0
H427 H 0.38803 0.11931 0.92508 0.0
H428 H 0.44046 0.17157 0.93928 0.0
C429 C 0.78884 0.16685 0.84226 0.0
C430 C 0.80679 0.17028 0.83965 0.0
C431 C 0.78491 0.17036 0.85639 0.0
C432 C 0.79886 0.17742 0.86821 0.0
C433 C 0.81666 0.18034 0.86569 0.0
C434 C 0.82057 0.17677 0.85157 0.0
C435 C 0.79511 0.1827 0.88294 0.0
C436 C 0.7781 0.17063 0.88874 0.0
C437 C 0.77388 0.17623 0.90219 0.0
C438 C 0.7871 0.1941 0.9099 0.0
C439 C 0.80429 0.20622 0.90435 0.0
C440 C 0.80818 0.20037 0.89088 0.0
C441 C 0.81789 0.22535 0.9123 0.0
C442 C 0.81174 0.23752 0.91837 0.0
C443 C 0.83716 0.2318 0.91354 0.0
C444 C 0.85002 0.25013 0.92053 0.0
C445 C 0.84388 0.26242 0.92639 0.0
C446 C 0.75552 0.16373 0.90801 0.0
C447 C 0.73902 0.15351 0.89845 0.0
C448 C 0.75426 0.16224 0.92319 0.0
C449 C 0.73694 0.15115 0.92869 0.0
C450 C 0.72042 0.141 0.91915 0.0
C451 C 0.72172 0.14219 0.90394 0.0
C452 C 0.82458 0.25585 0.92533 0.0
H453 H 0.77798 0.16212 0.8333 0.0
H454 H 0.77114 0.16821 0.85795 0.0
H455 H 0.82761 0.18552 0.87464 0.0
H456 H 0.83444 0.17923 0.84998 0.0
H457 H 0.76821 0.15677 0.88278 0.0
H458 H 0.82109 0.21001 0.88626 0.0
H459 H 0.78395 0.19875 0.92017 0.0
H460 H 0.797 0.23306 0.91747 0.0
H461 H 0.84232 0.22268 0.90908 0.0
H462 H 0.8648 0.25483 0.92106 0.0
H463 H 0.73937 0.15448 0.88671 0.0
H464 H 0.76667 0.16965 0.93087 0.0
H465 H 0.8194 0.26489 0.92988 0.0
H466 H 0.70938 0.13436 0.89622 0.0
H467 H 0.73652 0.15084 0.94047 0.0
C468 C 0.62182 0.83331 0.15129 0.0
C469 C 0.63621 0.82959 0.15557 0.0
C470 C 0.61472 0.82998 0.13658 0.0
C471 C 0.62183 0.82283 0.12582 0.0
C472 C 0.63651 0.81953 0.13003 0.0
C473 C 0.64363 0.8229 0.14474 0.0
C474 C 0.61338 0.81804 0.11037 0.0
C475 C 0.60839 0.8304 0.10363 0.0
C476 C 0.59933 0.82535 0.08934 0.0
C477 C 0.59541 0.80777 0.08174 0.0
C478 C 0.60029 0.79521 0.08831 0.0
C479 C 0.60938 0.80053 0.10259 0.0
C480 C 0.59487 0.77601 0.08066 0.0
C481 C 0.57688 0.76435 0.07335 0.0
C482 C 0.60734 0.76886 0.08109 0.0
C483 C 0.6018 0.75031 0.07458 0.0
C484 C 0.58365 0.73849 0.06757 0.0
C485 C 0.59316 0.83797 0.0826 0.0
C486 C 0.58473 0.84631 0.09094 0.0
C487 C 0.59511 0.84129 0.06771 0.0
C488 C 0.58857 0.85252 0.06126 0.0
C489 C 0.57995 0.86067 0.06957 0.0
C490 C 0.57821 0.85753 0.0845 0.0
C491 C 0.57133 0.74581 0.06689 0.0
H492 H 0.6156 0.8382 0.15937 0.0
H493 H 0.60322 0.8324 0.13372 0.0
H494 H 0.64245 0.81429 0.12195 0.0
H495 H 0.65494 0.8202 0.14763 0.0
H496 H 0.61166 0.84405 0.1095 0.0
H497 H 0.61255 0.79059 0.10792 0.0
H498 H 0.58819 0.80363 0.07079 0.0
H499 H 0.56688 0.76935 0.07296 0.0
H500 H 0.62135 0.77757 0.08655 0.0
H501 H 0.61157 0.74503 0.07537 0.0
H502 H 0.58273 0.84376 0.10238 0.0
H503 H 0.60176 0.83527 0.06104 0.0
H504 H 0.55733 0.73713 0.06142 0.0
H505 H 0.57137 0.86336 0.09115 0.0
H506 H 0.59037 0.85491 0.04978 0.0
C507 C 0.19135 0.83672 0.14997 0.0
C508 C 0.18881 0.82433 0.16102 0.0
C509 C 0.19392 0.83178 0.13571 0.0
C510 C 0.19349 0.81418 0.13229 0.0
C511 C 0.19054 0.80166 0.14331 0.0
C512 C 0.1884 0.80678 0.15758 0.0
C513 C 0.19681 0.80895 0.11747 0.0
C514 C 0.21337 0.82137 0.11133 0.0
C515 C 0.21782 0.81527 0.09824 0.0
C516 C 0.20531 0.79678 0.09111 0.0
C517 C 0.1883 0.78438 0.09685 0.0
C518 C 0.18421 0.79072 0.11007 0.0
C519 C 0.1751 0.76469 0.08934 0.0
C520 C 0.17301 0.76135 0.07389 0.0
C521 C 0.16449 0.74897 0.09756 0.0
C522 C 0.15196 0.73059 0.09056 0.0
C523 C 0.1501 0.72737 0.07521 0.0
C524 C 0.23601 0.82781 0.09244 0.0
C525 C 0.24192 0.84731 0.09051 0.0
C526 C 0.24771 0.82037 0.089 0.0
C527 C 0.26506 0.83225 0.08379 0.0
C528 C 0.2709 0.85169 0.08173 0.0
C529 C 0.25916 0.85911 0.08508 0.0
C530 C 0.16078 0.74281 0.06691 0.0
H531 H 0.19174 0.85035 0.15246 0.0
H532 H 0.1962 0.84164 0.12735 0.0
H533 H 0.19033 0.78809 0.14095 0.0
H534 H 0.18639 0.79701 0.16596 0.0
H535 H 0.22329 0.83533 0.11716 0.0
H536 H 0.17122 0.7815 0.11475 0.0
H537 H 0.20904 0.79201 0.08119 0.0
H538 H 0.18064 0.77308 0.06714 0.0
H539 H 0.16599 0.75073 0.10945 0.0
H540 H 0.14395 0.71876 0.09714 0.0
H541 H 0.23311 0.85334 0.09308 0.0
H542 H 0.24353 0.80543 0.09052 0.0
H543 H 0.15943 0.74059 0.05503 0.0
H544 H 0.26341 0.87409 0.08363 0.0
H545 H 0.27381 0.82616 0.08119 0.0
C546 C 0.20885 0.36669 0.1561 0.0
C547 C 0.19063 0.35251 0.15867 0.0
C548 C 0.21248 0.37432 0.14252 0.0
C549 C 0.19796 0.36796 0.13122 0.0
C550 C 0.17986 0.35327 0.13362 0.0
C551 C 0.17624 0.34557 0.1472 0.0
C552 C 0.20159 0.37736 0.11729 0.0
C553 C 0.21798 0.38189 0.11057 0.0
C554 C 0.22219 0.39202 0.09798 0.0
C555 C 0.20956 0.39722 0.0919 0.0
C556 C 0.19316 0.39303 0.09854 0.0
C557 C 0.18928 0.383 0.11122 0.0
C558 C 0.18062 0.39995 0.09266 0.0
C559 C 0.18812 0.41803 0.08681 0.0
C560 C 0.16109 0.38875 0.09303 0.0
C561 C 0.14941 0.39548 0.08777 0.0
C562 C 0.15691 0.41347 0.08178 0.0
C563 C 0.24033 0.39832 0.09173 0.0
C564 C 0.25699 0.40641 0.10106 0.0
C565 C 0.24127 0.39724 0.07645 0.0
C566 C 0.25855 0.40444 0.07063 0.0
C567 C 0.27524 0.41288 0.07996 0.0
C568 C 0.27425 0.4136 0.09524 0.0
C569 C 0.17643 0.4246 0.08133 0.0
H570 H 0.22024 0.37219 0.1647 0.0
H571 H 0.22655 0.38573 0.14107 0.0
H572 H 0.16844 0.34796 0.12505 0.0
H573 H 0.16203 0.33474 0.14892 0.0
H574 H 0.22753 0.37757 0.11519 0.0
H575 H 0.17711 0.38034 0.11681 0.0
H576 H 0.21279 0.40501 0.08216 0.0
H577 H 0.20309 0.42728 0.08659 0.0
H578 H 0.15477 0.37468 0.09732 0.0
H579 H 0.13449 0.3866 0.08853 0.0
H580 H 0.25676 0.40776 0.11287 0.0
H581 H 0.22864 0.39086 0.06899 0.0
H582 H 0.18275 0.43838 0.07661 0.0
H583 H 0.28687 0.42027 0.10272 0.0
H584 H 0.25884 0.4034 0.05881 0.0
C585 C 0.47154 0.94719 0.17137 0.0
C586 C 0.46627 0.96104 0.16863 0.0
C587 C 0.47015 0.94023 0.18517 0.0
C588 C 0.46346 0.94696 0.19654 0.0
C589 C 0.45823 0.96085 0.19382 0.0
C590 C 0.45965 0.96785 0.18001 0.0
C591 C 0.46171 0.93929 0.21112 0.0
C592 C 0.47588 0.93654 0.21758 0.0
C593 C 0.47404 0.92871 0.23116 0.0
C594 C 0.45793 0.92394 0.2384 0.0
C595 C 0.44357 0.92652 0.23209 0.0
C596 C 0.44561 0.9342 0.21841 0.0
C597 C 0.42622 0.9207 0.23952 0.0
C598 C 0.41823 0.90385 0.24701 0.0
C599 C 0.41734 0.93179 0.239 0.0
C600 C 0.40076 0.92604 0.24563 0.0
C601 C 0.39277 0.90919 0.25312 0.0
C602 C 0.48853 0.92473 0.23751 0.0
C603 C 0.49654 0.91655 0.22848 0.0
C604 C 0.49389 0.92828 0.2527 0.0
C605 C 0.50658 0.92328 0.25876 0.0
C606 C 0.51425 0.91471 0.24976 0.0
C607 C 0.50929 0.91164 0.23453 0.0
C608 C 0.40179 0.89824 0.2538 0.0
H609 H 0.47693 0.94186 0.16288 0.0
H610 H 0.47411 0.92939 0.18688 0.0
H611 H 0.45315 0.96642 0.20241 0.0
H612 H 0.45537 0.97842 0.1782 0.0
H613 H 0.48845 0.94069 0.21209 0.0
H614 H 0.43435 0.93559 0.21317 0.0
H615 H 0.45646 0.91791 0.24889 0.0
H616 H 0.42451 0.89478 0.24746 0.0
H617 H 0.4232 0.94499 0.2335 0.0
H618 H 0.3941 0.93471 0.24468 0.0
H619 H 0.49251 0.91336 0.21677 0.0
H620 H 0.48822 0.93486 0.25992 0.0
H621 H 0.39621 0.88534 0.25964 0.0
H622 H 0.51479 0.90484 0.22735 0.0
H623 H 0.51037 0.92609 0.27051 0.0
C624 C 0.02718 0.49664 0.18809 0.0
C625 C 0.03836 0.50835 0.17764 0.0
C626 C 0.03332 0.50135 0.20305 0.0
C627 C 0.05053 0.51808 0.20778 0.0
C628 C 0.06171 0.52973 0.19732 0.0
C629 C 0.05575 0.52482 0.18237 0.0
C630 C 0.05673 0.5237 0.2236 0.0
C631 C 0.05813 0.51069 0.23257 0.0
C632 C 0.065 0.51644 0.24745 0.0
C633 C 0.06963 0.53508 0.2534 0.0
C634 C 0.06833 0.54817 0.24451 0.0
C635 C 0.06203 0.54246 0.2296 0.0
C636 C 0.07446 0.56816 0.25063 0.0
C637 C 0.06715 0.57147 0.26324 0.0
C638 C 0.08795 0.58405 0.244 0.0
C639 C 0.09423 0.60298 0.24998 0.0
C640 C 0.0869 0.60645 0.26259 0.0
C641 C 0.06887 0.50367 0.25642 0.0
C642 C 0.05638 0.48354 0.25545 0.0
C643 C 0.0857 0.51155 0.26552 0.0
C644 C 0.0901 0.49958 0.27327 0.0
C645 C 0.0778 0.47941 0.27211 0.0
C646 C 0.06079 0.47153 0.26322 0.0
C647 C 0.07316 0.59042 0.26908 0.0
H648 H 0.01374 0.48383 0.18466 0.0
H649 H 0.02447 0.4922 0.21096 0.0
H650 H 0.07508 0.54264 0.20073 0.0
H651 H 0.06454 0.53415 0.17452 0.0
H652 H 0.05479 0.4965 0.22774 0.0
H653 H 0.06107 0.55259 0.22268 0.0
H654 H 0.07481 0.53965 0.26488 0.0
H655 H 0.05662 0.55939 0.26846 0.0
H656 H 0.09395 0.5818 0.23436 0.0
H657 H 0.1051 0.61485 0.24484 0.0
H658 H 0.04322 0.47707 0.24864 0.0
H659 H 0.09582 0.52694 0.26629 0.0
H660 H 0.0669 0.59246 0.27861 0.0
H661 H 0.05092 0.45607 0.26224 0.0
H662 H 0.10347 0.50609 0.27979 0.0
C663 C 0.4596 0.49986 0.17793 0.0
C664 C 0.47758 0.50361 0.17508 0.0
C665 C 0.45586 0.50329 0.19215 0.0
C666 C 0.47002 0.51055 0.20384 0.0
C667 C 0.48784 0.51372 0.20107 0.0
C668 C 0.49158 0.51029 0.18686 0.0
C669 C 0.46651 0.51585 0.21866 0.0
C670 C 0.44953 0.50393 0.22459 0.0
C671 C 0.44571 0.50957 0.2382 0.0
C672 C 0.45916 0.52729 0.24591 0.0
C673 C 0.47618 0.53938 0.24015 0.0
C674 C 0.47977 0.53349 0.22657 0.0
C675 C 0.48972 0.55869 0.24787 0.0
C676 C 0.48339 0.57073 0.2539 0.0
C677 C 0.50906 0.5655 0.24884 0.0
C678 C 0.52181 0.58405 0.25551 0.0
C679 C 0.51548 0.59621 0.2613 0.0
C680 C 0.42734 0.49755 0.24407 0.0
C681 C 0.41065 0.4891 0.23474 0.0
C682 C 0.42629 0.49521 0.25917 0.0
C683 C 0.40894 0.48513 0.26485 0.0
C684 C 0.39225 0.47709 0.25556 0.0
C685 C 0.39329 0.47896 0.24042 0.0
C686 C 0.49612 0.58927 0.26054 0.0
H687 H 0.44858 0.49496 0.16909 0.0
H688 H 0.44206 0.50095 0.19388 0.0
H689 H 0.49896 0.51902 0.20989 0.0
H690 H 0.50549 0.513 0.18506 0.0
H691 H 0.43932 0.4902 0.21863 0.0
H692 H 0.49257 0.54311 0.22181 0.0
H693 H 0.45622 0.53191 0.2563 0.0
H694 H 0.4686 0.566 0.25319 0.0
H695 H 0.51434 0.55649 0.24438 0.0
H696 H 0.53664 0.58905 0.25583 0.0
H697 H 0.41095 0.49087 0.22309 0.0
H698 H 0.43889 0.50126 0.26662 0.0
H699 H 0.4908 0.59821 0.26505 0.0
H700 H 0.38068 0.47311 0.233 0.0
H701 H 0.40858 0.48364 0.27654 0.0
Tb702 Tb 0.51528 0.01378 0.99714 0.0
C703 C 0.50618 0.97404 0.00882 0.0
Tb704 Tb 0.47503 0.98609 0.00441 0.0
O705 O 0.52511 0.02194 0.02052 0.0
O706 O 0.49759 0.01317 0.01327 0.0
O707 O 0.51686 0.98779 0.00046 0.0
C708 C 0.44397 0.96459 0.01746 0.0
O709 O 0.48986 0.97159 0.01257 0.0
C710 C 0.48174 0.98266 0.97706 0.0
C711 C 0.48421 0.02591 0.99279 0.0
O712 O 0.46091 0.97235 0.02365 0.0
O713 O 0.44456 0.96879 0.00396 0.0
O714 O 0.46529 0.97798 0.98098 0.0
O715 O 0.49271 0.98669 0.98835 0.0
O716 O 0.47349 0.01213 0.00113 0.0
O717 O 0.50052 0.02834 0.98904 0.0
C718 C 0.54633 0.03506 0.98402 0.0
O719 O 0.5294 0.02684 0.97771 0.0
O720 O 0.54572 0.03144 0.99766 0.0
C721 C 0.50868 0.01724 0.0245 0.0
Tb722 Tb 0.98562 0.50076 0.99565 0.0
C723 C 0.02388 0.53212 0.01214 0.0
Tb724 Tb 0.01439 0.4885 0.00498 0.0
O725 O 0.98159 0.50642 0.01846 0.0
O726 O 0.98998 0.48638 0.01286 0.0
O727 O 0.00958 0.52906 0.00288 0.0
C728 C 0.03734 0.47881 0.01881 0.0
O729 O 0.02701 0.51802 0.01583 0.0
C730 C 0.01252 0.49431 0.97725 0.0
C731 C 0.97535 0.45691 0.98943 0.0
O732 O 0.04262 0.49471 0.01255 0.0
O733 O 0.01923 0.46847 0.01733 0.0
O734 O 0.01825 0.48302 0.98209 0.0
O735 O 0.01039 0.5033 0.98799 0.0
O736 O 0.98974 0.46022 0.99867 0.0
O737 O 0.97238 0.47098 0.98548 0.0
C738 C 0.9624 0.50938 0.98104 0.0
O739 O 0.95834 0.49875 0.99199 0.0
O740 O 0.97952 0.51513 0.97829 0.0
C741 C 0.98765 0.49547 0.02348 0.0
Tb742 Tb 0.48247 0.49702 0.00545 0.0
C743 C 0.48734 0.46354 0.99114 0.0
Tb744 Tb 0.52138 0.5073 0.99631 0.0
O745 O 0.47097 0.49 0.98246 0.0
O746 O 0.49904 0.51097 0.98832 0.0
O747 O 0.47733 0.46794 -0.00022 0.0
C748 C 0.55097 0.51379 0.982 0.0
O749 O 0.50397 0.47683 0.98735 0.0
C750 C 0.51667 0.50266 0.0241 0.0
C751 C 0.51644 0.54071 0.01069 0.0
O752 O 0.54727 0.50645 0.99453 0.0
O753 O 0.53799 0.5174 0.97753 0.0
O754 O 0.53272 0.51431 0.01938 0.0
O755 O 0.50477 0.49329 0.01334 0.0
O756 O 0.52644 0.53642 0.00193 0.0
O757 O 0.49994 0.52732 0.01458 0.0
C758 C 0.45287 0.49033 0.01976 0.0
O759 O 0.45697 0.49851 0.00758 0.0
O760 O 0.46547 0.48602 0.02389 0.0
C761 C 0.48698 0.50153 0.97764 0.0
Tb762 Tb 0.18403 0.35373 0.32846 0.0
C763 C 0.17653 0.3131 0.33718 0.0
Tb764 Tb 0.14401 0.32239 0.33478 0.0
O765 O 0.19486 0.35604 0.35131 0.0
O766 O 0.16689 0.34766 0.34599 0.0
O767 O 0.18622 0.32761 0.32909 0.0
C768 C 0.11147 0.30161 0.34602 0.0
O769 O 0.1607 0.30999 0.34237 0.0
C770 C 0.15369 0.31957 0.30822 0.0
C771 C 0.1516 0.36406 0.32731 0.0
O772 O 0.1278 0.30662 0.35248 0.0
O773 O 0.11345 0.30822 0.33318 0.0
O774 O 0.14132 0.30473 0.31433 0.0
O775 O 0.15825 0.33459 0.31643 0.0
O776 O 0.14023 0.34735 0.33268 0.0
O777 O 0.1689 0.36913 0.3241 0.0
C778 C 0.21427 0.37667 0.31525 0.0
O779 O 0.20897 0.38203 0.32688 0.0
O780 O 0.2025 0.35851 0.31108 0.0
C781 C 0.17853 0.34953 0.35623 0.0
Tb782 Tb 0.65306 0.83643 0.32733 0.0
C783 C 0.69076 0.86838 0.3441 0.0
Tb784 Tb 0.68224 0.82515 0.33728 0.0
O785 O 0.64872 0.84226 0.35001 0.0
O786 O 0.65738 0.82233 0.34481 0.0
O787 O 0.67687 0.86498 0.33424 0.0
C788 C 0.70613 0.81701 0.35147 0.0
O789 O 0.69368 0.85436 0.34838 0.0
C790 C 0.68074 0.83082 0.30946 0.0
C791 C 0.64362 0.7928 0.32171 0.0
O792 O 0.71076 0.8329 0.34538 0.0
O793 O 0.68812 0.80576 0.34959 0.0
O794 O 0.6866 0.81974 0.31449 0.0
O795 O 0.67824 0.83967 0.32008 0.0
O796 O 0.65797 0.79656 0.33118 0.0
O797 O 0.64037 0.80656 0.31743 0.0
C798 C 0.62969 0.84468 0.31251 0.0
O799 O 0.62586 0.83464 0.32379 0.0
O800 O 0.64664 0.84998 0.30952 0.0
C801 C 0.65473 0.83139 0.35526 0.0
Tb802 Tb 0.15004 0.83367 0.33923 0.0
C803 C 0.15799 0.80298 0.32456 0.0
Tb804 Tb 0.19007 0.84617 0.3316 0.0
O805 O 0.13919 0.83003 0.31616 0.0
O806 O 0.16737 0.84871 0.32277 0.0
O807 O 0.14909 0.80609 0.33507 0.0
C808 C 0.2215 0.85474 0.31928 0.0
O809 O 0.17294 0.81746 0.3196 0.0
C810 C 0.1837 0.83945 0.35904 0.0
C811 C 0.18166 0.87824 0.34446 0.0
O812 O 0.21066 0.83846 0.32459 0.0
O813 O 0.21467 0.86614 0.32091 0.0
O814 O 0.20012 0.85109 0.35496 0.0
O815 O 0.17253 0.83067 0.34784 0.0
O816 O 0.19306 0.87453 0.33701 0.0
O817 O 0.16475 0.86445 0.34729 0.0
C818 C 0.11933 0.82341 0.35304 0.0
O819 O 0.13635 0.83503 0.35878 0.0
O820 O 0.11967 0.81779 0.33956 0.0
C821 C 0.15566 0.84053 0.31173 0.0
Tb822 Tb 0.85023 0.68322 0.66582 0.0
C823 C 0.8451 0.64724 0.68147 0.0
Tb824 Tb 0.81049 0.6534 0.67405 0.0
O825 O 0.86125 0.69262 0.68893 0.0
O826 O 0.83278 0.68091 0.6826 0.0
O827 O 0.85543 0.66067 0.67278 0.0
C828 C 0.77963 0.63116 0.68706 0.0
O829 O 0.82825 0.64365 0.68476 0.0
C830 C 0.81635 0.65038 0.64648 0.0
C831 C 0.81606 0.69019 0.65913 0.0
O832 O 0.78935 0.62502 0.68027 0.0
O833 O 0.78729 0.64976 0.68655 0.0
O834 O 0.79987 0.64453 0.65087 0.0
O835 O 0.828 0.65545 0.65752 0.0
O836 O 0.80584 0.67664 0.66778 0.0
O837 O 0.83288 0.69381 0.65581 0.0
C838 C 0.88024 0.70451 0.65164 0.0
O839 O 0.87525 0.71093 0.66287 0.0
O840 O 0.86833 0.6862 0.64842 0.0
C841 C 0.84475 0.68623 0.6935 0.0
Tb842 Tb 0.31757 0.16736 0.6632 0.0
C843 C 0.35886 0.20185 0.67319 0.0
Tb844 Tb 0.34907 0.15792 0.6695 0.0
O845 O 0.30375 0.15261 0.68236 0.0
O846 O 0.33249 0.16547 0.68179 0.0
O847 O 0.34161 0.1966 0.66769 0.0
C848 C 0.37382 0.15061 0.68292 0.0
O849 O 0.36462 0.18926 0.67548 0.0
C850 C 0.34019 0.15828 0.6417 0.0
C851 C 0.30825 0.12429 0.65881 0.0
O852 O 0.37752 0.16272 0.67295 0.0
O853 O 0.35628 0.1427 0.68528 0.0
O854 O 0.34759 0.14828 0.64632 0.0
O855 O 0.34013 0.16888 0.65234 0.0
O856 O 0.32383 0.12923 0.66719 0.0
O857 O 0.30425 0.13733 0.65412 0.0
C858 C 0.29552 0.17977 0.65208 0.0
O859 O 0.3001 0.16845 0.64498 0.0
O860 O 0.30327 0.18402 0.66549 0.0
C861 C 0.31913 0.15506 0.68902 0.0
Tb862 Tb 0.81612 0.1639 0.66975 0.0
C863 C 0.82438 0.13213 0.65747 0.0
Tb864 Tb 0.85598 0.17656 0.66219 0.0
O865 O 0.80584 0.15817 0.64644 0.0
O866 O 0.83338 0.17922 0.65337 0.0
O867 O 0.81452 0.13591 0.6667 0.0
C868 C 0.88644 0.18429 0.64875 0.0
O869 O 0.83998 0.14617 0.65285 0.0
C870 C 0.8499 0.17124 0.68972 0.0
C871 C 0.84792 0.20878 0.67485 0.0
O872 O 0.88248 0.17681 0.6612 0.0
O873 O 0.87329 0.18744 0.6439 0.0
O874 O 0.86603 0.18365 0.68552 0.0
O875 O 0.83874 0.16143 0.67867 0.0
O876 O 0.85958 0.20515 0.66769 0.0
O877 O 0.83086 0.19491 0.67738 0.0
C878 C 0.78542 0.15514 0.68316 0.0
O879 O 0.80241 0.16487 0.68938 0.0
O880 O 0.78576 0.15054 0.66944 0.0
C881 C 0.82211 0.1701 0.64226 0.0
C882 C 0.29019 0.87477 0.06396 0.0
C883 C 0.28913 0.8641 0.07592 0.0
C884 C 0.30724 0.88582 0.05805 0.0
C885 C 0.3579 0.91111 0.06641 0.0
H886 H 0.35919 0.90335 0.02441 0.0
C887 C 0.42729 0.94725 0.03865 0.0
C888 C 0.42668 0.95322 0.0246 0.0
C889 C 0.41072 0.93629 0.04525 0.0
C890 C 0.35907 0.90597 0.03612 0.0
H891 H 0.30503 0.85696 0.09135 0.0
H892 H 0.335 0.87662 0.08115 0.0
H893 H 0.32984 0.88504 0.03541 0.0
H894 H 0.40854 0.95295 0.00656 0.0
H895 H 0.37977 0.93454 0.01819 0.0
H896 H 0.38698 0.93244 0.06715 0.0
C897 C 0.3226 0.87629 0.07631 0.0
C898 C 0.34225 0.89539 0.04241 0.0
C899 C 0.30548 0.86498 0.08207 0.0
C900 C 0.40935 0.94834 0.01735 0.0
C901 C 0.39284 0.93764 0.02399 0.0
C902 C 0.37472 0.92194 0.0601 0.0
C903 C 0.32358 0.88663 0.06415 0.0
C904 C 0.3415 0.89788 0.05759 0.0
C905 C 0.39326 0.93131 0.03798 0.0
C906 C 0.37551 0.91955 0.04485 0.0
H907 H 0.27775 0.87424 0.05898 0.0
H908 H 0.30767 0.89377 0.04873 0.0
H909 H 0.35763 0.91336 0.07816 0.0
H910 H 0.44054 0.95087 0.04446 0.0
H911 H 0.4116 0.93149 0.05594 0.0
C912 C 0.15038 0.44048 0.07729 0.0
C913 C 0.14448 0.42056 0.07593 0.0
C914 C 0.13898 0.44718 0.07138 0.0
C915 C 0.09765 0.43191 0.04449 0.0
H916 H 0.09768 0.47644 0.06378 0.0
C917 C 0.04258 0.45363 0.02926 0.0
C918 C 0.0498 0.47293 0.026 0.0
C919 C 0.05438 0.44768 0.03556 0.0
C920 C 0.09765 0.46406 0.05826 0.0
H921 H 0.12171 0.39207 0.06729 0.0
H922 H 0.10147 0.40358 0.05781 0.0
H923 H 0.11739 0.46482 0.07469 0.0
H924 H 0.07478 0.50128 0.02704 0.0
H925 H 0.09546 0.49092 0.0385 0.0
H926 H 0.07736 0.43084 0.02837 0.0
C927 C 0.11517 0.41416 0.06305 0.0
C928 C 0.10899 0.45743 0.06444 0.0
C929 C 0.1267 0.40749 0.06874 0.0
C930 C 0.06893 0.48631 0.02944 0.0
C931 C 0.0807 0.48042 0.03601 0.0
C932 C 0.08608 0.43834 0.03848 0.0
C933 C 0.12123 0.43412 0.06414 0.0
C934 C 0.10915 0.44125 0.05763 0.0
C935 C 0.07353 0.461 0.03896 0.0
C936 C 0.086 0.45446 0.04531 0.0
H937 H 0.16383 0.45099 0.08297 0.0
H938 H 0.14427 0.46267 0.07232 0.0
H939 H 0.09768 0.41972 0.03871 0.0
H940 H 0.02785 0.44305 0.02671 0.0
H941 H 0.04853 0.43266 0.03784 0.0
C942 C 0.5891 0.71415 0.05338 0.0
C943 C 0.57733 0.71836 0.06142 0.0
C944 C 0.58312 0.6951 0.0478 0.0
C945 C 0.54943 0.64426 0.05329 0.0
H946 H 0.55765 0.63322 0.01346 0.0
C947 C 0.51337 0.5664 0.02513 0.0
C948 C 0.52392 0.56121 0.01635 0.0
C949 C 0.52043 0.58569 0.0306 0.0
C950 C 0.55546 0.63608 0.02467 0.0
H951 H 0.55018 0.70586 0.07006 0.0
H952 H 0.53968 0.67272 0.06018 0.0
H953 H 0.56914 0.66676 0.02309 0.0
H954 H 0.55023 0.57231 0.00647 0.0
H955 H 0.56262 0.60594 0.01617 0.0
H956 H 0.53578 0.61366 0.05493 0.0
C957 C 0.55356 0.68411 0.05825 0.0
C958 C 0.56203 0.65529 0.03018 0.0
C959 C 0.55949 0.70313 0.06376 0.0
C960 C 0.54169 0.57579 0.01315 0.0
C961 C 0.54877 0.5951 0.01865 0.0
C962 C 0.54291 0.62508 0.04781 0.0
C963 C 0.56531 0.67986 0.05024 0.0
C964 C 0.55894 0.65956 0.04451 0.0
C965 C 0.53823 0.60026 0.02747 0.0
C966 C 0.54571 0.62074 0.0334 0.0
H967 H 0.60287 0.72561 0.05131 0.0
H968 H 0.59254 0.69225 0.04175 0.0
H969 H 0.54713 0.64712 0.06447 0.0
H970 H 0.4996 0.55559 0.02778 0.0
H971 H 0.51182 0.58921 0.03716 0.0
C972 C 0.85534 0.29807 0.93027 0.0
C973 C 0.85757 0.28222 0.93324 0.0
C974 C 0.86835 0.31678 0.93647 0.0
C975 C 0.90502 0.34354 0.96702 0.0
H976 H 0.92095 0.38642 0.94274 0.0
C977 C 0.96479 0.42137 0.98678 0.0
C978 C 0.96205 0.43673 0.98322 0.0
C979 C 0.95231 0.40237 0.98077 0.0
C980 C 0.9165 0.37464 0.94971 0.0
H981 H 0.87509 0.27355 0.94523 0.0
H982 H 0.89797 0.30632 0.95593 0.0
H983 H 0.89868 0.35353 0.93214 0.0
H984 H 0.9439 0.4441 0.97058 0.0
H985 H 0.92208 0.41102 0.96026 0.0
H986 H 0.9228 0.3647 0.98462 0.0
C987 C 0.88607 0.30422 0.94887 0.0
C988 C 0.90374 0.35579 0.94363 0.0
C989 C 0.87307 0.28549 0.94263 0.0
C990 C 0.9465 0.43266 0.97354 0.0
C991 C 0.93404 0.41368 0.96754 0.0
C992 C 0.91778 0.36242 0.97311 0.0
C993 C 0.88388 0.32008 0.9458 0.0
C994 C 0.89777 0.34004 0.95223 0.0
C995 C 0.93681 0.39833 0.97105 0.0
C996 C 0.92358 0.37819 0.96454 0.0
H997 H 0.84367 0.29608 0.92296 0.0
H998 H 0.86615 0.32866 0.93402 0.0
H999 H 0.90053 0.33173 0.97397 0.0
H1000 H 0.97665 0.42398 0.99416 0.0
H1001 H 0.95496 0.3909 0.98356 0.0
C1002 C 0.70368 0.58091 0.93334 0.0
C1003 C 0.70566 0.56876 0.92277 0.0
C1004 C 0.68662 0.57469 0.93933 0.0
C1005 C 0.65305 0.55273 0.9567 0.0
H1006 H 0.60611 0.52518 0.93198 0.0
C1007 C 0.58184 0.51557 0.98106 0.0
C1008 C 0.56783 0.51848 0.97451 0.0
C1009 C 0.59834 0.52108 0.97436 0.0
C1010 C 0.61911 0.53294 0.93901 0.0
H1011 H 0.69116 0.54076 0.90992 0.0
H1012 H 0.66144 0.52981 0.92052 0.0
H1013 H 0.63567 0.53677 0.92093 0.0
H1014 H 0.55974 0.52895 0.95575 0.0
H1015 H 0.58863 0.53866 0.94404 0.0
H1016 H 0.63655 0.54916 0.97475 0.0
C1017 C 0.67306 0.54418 0.92412 0.0
C1018 C 0.63602 0.53942 0.9327 0.0
C1019 C 0.69013 0.55037 0.91817 0.0
C1020 C 0.57037 0.52657 0.96101 0.0
C1021 C 0.58685 0.53203 0.95428 0.0
C1022 C 0.63616 0.5462 0.963 0.0
C1023 C 0.67115 0.55622 0.93484 0.0
C1024 C 0.65317 0.54941 0.94148 0.0
C1025 C 0.60111 0.52955 0.96098 0.0
C1026 C 0.619 0.53624 0.95424 0.0
H1027 H 0.71543 0.5951 0.93718 0.0
H1028 H 0.68553 0.58438 0.94745 0.0
H1029 H 0.66602 0.5602 0.96377 0.0
H1030 H 0.58016 0.50929 0.99145 0.0
H1031 H 0.60895 0.51872 0.97968 0.0
C1032 C 0.41124 0.11677 0.94787 0.0
C1033 C 0.42249 0.13218 0.93968 0.0
C1034 C 0.41822 0.10577 0.95408 0.0
C1035 C 0.45431 0.09209 0.95031 0.0
H1036 H 0.44505 0.07789 0.99012 0.0
C1037 C 0.48922 0.05452 0.9795 0.0
C1038 C 0.47792 0.03922 0.98776 0.0
C1039 C 0.48286 0.06647 0.97414 0.0
C1040 C 0.4476 0.08157 0.97893 0.0
H1041 H 0.44979 0.14798 0.93142 0.0
H1042 H 0.46201 0.12892 0.94237 0.0
H1043 H 0.43289 0.09731 0.97963 0.0
H1044 H 0.45114 0.02461 0.99701 0.0
H1045 H 0.44 0.04528 0.98751 0.0
H1046 H 0.46884 0.07623 0.94951 0.0
C1047 C 0.44777 0.12528 0.94394 0.0
C1048 C 0.44063 0.09269 0.97293 0.0
C1049 C 0.44084 0.13632 0.9378 0.0
C1050 C 0.46025 0.03632 0.99074 0.0
C1051 C 0.45388 0.04824 0.98535 0.0
C1052 C 0.46122 0.08093 0.95628 0.0
C1053 C 0.43655 0.10988 0.95215 0.0
C1054 C 0.44392 0.09807 0.95856 0.0
C1055 C 0.46505 0.06336 0.97689 0.0
C1056 C 0.45795 0.07553 0.97067 0.0
H1057 H 0.3971 0.11333 0.9496 0.0
H1058 H 0.40917 0.09387 0.96024 0.0
H1059 H 0.45684 0.09576 0.93912 0.0
H1060 H 0.50293 0.05722 0.97704 0.0
H1061 H 0.49193 0.07818 0.96786 0.0
C1062 C 0.68578 0.12873 0.91844 0.0
C1063 C 0.70191 0.1295 0.92507 0.0
C1064 C 0.66852 0.11835 0.92424 0.0
C1065 C 0.64824 0.10212 0.9585 0.0
H1066 H 0.60345 0.064 0.93433 0.0
C1067 C 0.58097 0.0515 0.98435 0.0
C1068 C 0.56364 0.04612 0.97683 0.0
C1069 C 0.5975 0.06175 0.97764 0.0
C1070 C 0.61573 0.07483 0.9412 0.0
H1071 H 0.71225 0.11936 0.94282 0.0
H1072 H 0.68228 0.10189 0.9532 0.0
H1073 H 0.63294 0.08181 0.92321 0.0
H1074 H 0.54983 0.04717 0.95644 0.0
H1075 H 0.57881 0.0658 0.94481 0.0
H1076 H 0.6312 0.09573 0.97641 0.0
C1077 C 0.6831 0.10938 0.94351 0.0
C1078 C 0.63262 0.08493 0.93483 0.0
C1079 C 0.70028 0.11949 0.93759 0.0
C1080 C 0.56307 0.0512 0.96246 0.0
C1081 C 0.57967 0.06173 0.95578 0.0
C1082 C 0.63134 0.09228 0.96483 0.0
C1083 C 0.66709 0.10878 0.93692 0.0
C1084 C 0.64905 0.09849 0.94347 0.0
C1085 C 0.59712 0.06715 0.9633 0.0
C1086 C 0.61489 0.0783 0.95632 0.0
H1087 H 0.68651 0.13651 0.90895 0.0
H1088 H 0.65639 0.11822 0.91904 0.0
H1089 H 0.66068 0.11274 0.96534 0.0
H1090 H 0.58176 0.04757 0.9954 0.0
H1091 H 0.61056 0.06521 0.98366 0.0
C1092 C 0.8718 0.57093 0.91641 0.0
C1093 C 0.85507 0.56647 0.92261 0.0
C1094 C 0.8834 0.56438 0.92217 0.0
C1095 C 0.88302 0.52703 0.94425 0.0
H1096 H 0.93669 0.56218 0.95033 0.0
C1097 C 0.93215 0.5091 0.97822 0.0
C1098 C 0.94982 0.51479 0.97339 0.0
C1099 C 0.92048 0.51487 0.97137 0.0
C1100 C 0.92177 0.55209 0.9485 0.0
H1101 H 0.8373 0.55146 0.93959 0.0
H1102 H 0.85765 0.54017 0.94974 0.0
H1103 H 0.91658 0.57342 0.93966 0.0
H1104 H 0.9691 0.53057 0.95748 0.0
H1105 H 0.94859 0.54044 0.94532 0.0
H1106 H 0.88817 0.50569 0.95307 0.0
C1107 C 0.86173 0.54864 0.94037 0.0
C1108 C 0.91025 0.55855 0.94241 0.0
C1109 C 0.85018 0.55529 0.93467 0.0
C1110 C 0.95555 0.52608 0.96145 0.0
C1111 C 0.94385 0.53181 0.95456 0.0
C1112 C 0.89454 0.52055 0.95029 0.0
C1113 C 0.87846 0.55312 0.93419 0.0
C1114 C 0.89074 0.54612 0.94031 0.0
C1115 C 0.92623 0.52639 0.95951 0.0
C1116 C 0.91404 0.53304 0.95258 0.0
H1117 H 0.87601 0.57966 0.90719 0.0
H1118 H 0.89614 0.56793 0.9171 0.0
H1119 H 0.86807 0.51703 0.94254 0.0
H1120 H 0.92744 0.50043 0.98745 0.0
H1121 H 0.90711 0.51065 0.9756 0.0
C1122 C 0.42891 0.29169 0.95175 0.0
C1123 C 0.41808 0.28529 0.93813 0.0
C1124 C 0.43612 0.31076 0.95791 0.0
C1125 C 0.42975 0.3532 0.95669 0.0
H1126 H 0.48148 0.38205 0.97336 0.0
C1127 C 0.46159 0.42876 0.98862 0.0
C1128 C 0.47957 0.44297 0.9855 0.0
C1129 C 0.45405 0.40941 0.98312 0.0
C1130 C 0.46705 0.37421 0.96868 0.0
H1131 H 0.40592 0.29368 0.92046 0.0
H1132 H 0.41861 0.327 0.93115 0.0
H1133 H 0.46812 0.34837 0.96322 0.0
H1134 H 0.50377 0.44789 0.97419 0.0
H1135 H 0.49055 0.41407 0.96457 0.0
H1136 H 0.42875 0.37911 0.96195 0.0
C1137 C 0.42148 0.31727 0.9371 0.0
C1138 C 0.45934 0.35487 0.96302 0.0
C1139 C 0.41435 0.29825 0.93091 0.0
C1140 C 0.4899 0.43733 0.97683 0.0
C1141 C 0.48237 0.41793 0.97138 0.0
C1142 C 0.43743 0.3725 0.96242 0.0
C1143 C 0.43256 0.32378 0.95061 0.0
C1144 C 0.44062 0.34418 0.95692 0.0
C1145 C 0.46434 0.40378 0.97442 0.0
C1146 C 0.45618 0.38323 0.96844 0.0
H1147 H 0.43216 0.28209 0.95751 0.0
H1148 H 0.44446 0.3153 0.9684 0.0
H1149 H 0.41524 0.3453 0.95218 0.0
H1150 H 0.45323 0.43255 0.99527 0.0
H1151 H 0.44021 0.3988 0.9858 0.0
C1152 C 0.14387 0.69759 0.05989 0.0
C1153 C 0.13707 0.70783 0.06794 0.0
C1154 C 0.13163 0.67864 0.05368 0.0
C1155 C 0.08327 0.63699 0.05583 0.0
H1156 H 0.09339 0.61736 0.01983 0.0
C1157 C 0.03052 0.56542 0.02056 0.0
C1158 C 0.03684 0.55212 0.01867 0.0
C1159 C 0.04276 0.5844 0.02669 0.0
C1160 C 0.0905 0.62271 0.02992 0.0
H1161 H 0.11234 0.70688 0.07551 0.0
H1162 H 0.09071 0.67424 0.06401 0.0
H1163 H 0.11442 0.65096 0.02974 0.0
H1164 H 0.0609 0.54822 0.02152 0.0
H1165 H 0.08251 0.58174 0.0318 0.0
H1166 H 0.05882 0.60879 0.05549 0.0
C1167 C 0.10552 0.68033 0.06292 0.0
C1168 C 0.10258 0.64191 0.03568 0.0
C1169 C 0.11784 0.6991 0.06941 0.0
C1170 C 0.05566 0.55817 0.02291 0.0
C1171 C 0.06801 0.5773 0.02871 0.0
C1172 C 0.07099 0.61795 0.04986 0.0
C1173 C 0.11226 0.6697 0.05513 0.0
C1174 C 0.0992 0.64932 0.04878 0.0
C1175 C 0.06162 0.5905 0.03069 0.0
C1176 C 0.07458 0.61065 0.03693 0.0
H1177 H 0.15873 0.70407 0.05875 0.0
H1178 H 0.13747 0.6709 0.04803 0.0
H1179 H 0.08035 0.6419 0.06609 0.0
H1180 H 0.01606 0.56111 0.01745 0.0
H1181 H 0.03759 0.59441 0.02811 0.0
C1182 C 0.29717 0.43259 0.06179 0.0
C1183 C 0.29368 0.42142 0.07382 0.0
C1184 C 0.31467 0.44109 0.05626 0.0
C1185 C 0.3642 0.45645 0.06631 0.0
H1186 H 0.36708 0.45472 0.02416 0.0
C1187 C 0.43228 0.47515 0.03968 0.0
C1188 C 0.43574 0.48509 0.027 0.0
C1189 C 0.41534 0.46877 0.0459 0.0
C1190 C 0.36653 0.45558 0.03596 0.0
H1191 H 0.30572 0.41013 0.0893 0.0
H1192 H 0.33629 0.42494 0.0796 0.0
H1193 H 0.33658 0.44048 0.03386 0.0
H1194 H 0.42466 0.4968 0.01113 0.0
H1195 H 0.3951 0.48586 0.02208 0.0
H1196 H 0.39417 0.47144 0.06838 0.0
C1197 C 0.32557 0.42737 0.07461 0.0
C1198 C 0.34905 0.44739 0.04151 0.0
C1199 C 0.30805 0.41887 0.08014 0.0
C1200 C 0.42226 0.48908 0.02088 0.0
C1201 C 0.40532 0.48271 0.02709 0.0
C1202 C 0.3817 0.46466 0.06075 0.0
C1203 C 0.32908 0.43862 0.06263 0.0
C1204 C 0.34768 0.44765 0.05675 0.0
C1205 C 0.40156 0.47223 0.03954 0.0
C1206 C 0.38305 0.46423 0.04551 0.0
H1207 H 0.28648 0.4351 0.05684 0.0
H1208 H 0.31703 0.44989 0.04714 0.0
H1209 H 0.36361 0.45715 0.0781 0.0
H1210 H 0.44248 0.4719 0.0446 0.0
H1211 H 0.41281 0.46059 0.0554 0.0
C1212 C 0.57473 0.88908 0.07018 0.0
C1213 C 0.57246 0.8721 0.06266 0.0
C1214 C 0.56716 0.8995 0.06389 0.0
C1215 C 0.54977 0.90723 0.02842 0.0
H1216 H 0.52576 0.92777 0.05309 0.0
C1217 C 0.50213 0.94659 0.02324 0.0
C1218 C 0.51255 0.96081 0.01387 0.0
C1219 C 0.50874 0.93486 0.02865 0.0
C1220 C 0.53225 0.92197 0.04602 0.0
H1221 H 0.5604 0.85272 0.04264 0.0
H1222 H 0.5472 0.87093 0.03164 0.0
H1223 H 0.53869 0.90909 0.06361 0.0
H1224 H 0.53796 0.97362 0.00265 0.0
H1225 H 0.54949 0.95329 0.01218 0.0
H1226 H 0.54312 0.91992 0.01078 0.0
C1227 C 0.55505 0.87631 0.04233 0.0
C1228 C 0.53987 0.91148 0.05209 0.0
C1229 C 0.56262 0.86589 0.04863 0.0
C1230 C 0.52954 0.96279 0.00982 0.0
C1231 C 0.53612 0.95105 0.01522 0.0
C1232 C 0.54217 0.91775 0.02235 0.0
C1233 C 0.55714 0.89317 0.04993 0.0
C1234 C 0.5488 0.90407 0.04338 0.0
C1235 C 0.52589 0.93708 0.0248 0.0
C1236 C 0.53339 0.92531 0.03109 0.0
H1237 H 0.58249 0.89442 0.08091 0.0
H1238 H 0.56931 0.91262 0.06991 0.0
H1239 H 0.55668 0.90184 0.02144 0.0
H1240 H 0.48898 0.94465 0.02658 0.0
H1241 H 0.50041 0.92405 0.03587 0.0
C1242 C 0.97101 0.20018 0.4067 0.0
C1243 C 0.95479 0.20054 0.40189 0.0
C1244 C 0.98792 0.21184 0.40083 0.0
C1245 C 0.0073 0.23567 0.36815 0.0
H1246 H 0.05287 0.26715 0.39386 0.0
C1247 C 0.07704 0.28844 0.34551 0.0
C1248 C 0.09354 0.29044 0.35238 0.0
C1249 C 0.06004 0.27801 0.35164 0.0
C1250 C 0.04035 0.25824 0.3865 0.0
H1251 H 0.94345 0.21323 0.38716 0.0
H1252 H 0.97308 0.23348 0.37667 0.0
H1253 H 0.0233 0.24781 0.40441 0.0
H1254 H 0.10536 0.28309 0.37091 0.0
H1255 H 0.07564 0.26428 0.38138 0.0
H1256 H 0.02427 0.24551 0.35022 0.0
C1257 C 0.97266 0.22423 0.38505 0.0
C1258 C 0.02341 0.24725 0.39256 0.0
C1259 C 0.95579 0.21277 0.39109 0.0
C1260 C 0.0928 0.28179 0.36543 0.0
C1261 C 0.07578 0.27115 0.37148 0.0
C1262 C 0.02427 0.24645 0.36206 0.0
C1263 C 0.98888 0.22388 0.38989 0.0
C1264 C 0.00675 0.23586 0.38345 0.0
C1265 C 0.05917 0.26917 0.36469 0.0
C1266 C 0.04104 0.25786 0.37116 0.0
H1267 H 0.97062 0.19098 0.4151 0.0
H1268 H 0.0002 0.21122 0.40467 0.0
H1269 H 0.99466 0.22682 0.36088 0.0
H1270 H 0.0773 0.29511 0.33547 0.0
H1271 H 0.04764 0.27711 0.34624 0.0
C1272 C 0.80041 0.75407 0.40573 0.0
C1273 C 0.81815 0.7677 0.41274 0.0
C1274 C 0.78853 0.7601 0.39968 0.0
C1275 C 0.78806 0.8005 0.38388 0.0
H1276 H 0.73685 0.77678 0.39418 0.0
C1277 C 0.73799 0.82646 0.36276 0.0
C1278 C 0.71917 0.81222 0.35911 0.0
C1279 C 0.75031 0.82174 0.36995 0.0
C1280 C 0.75101 0.78337 0.39099 0.0
H1281 H 0.83715 0.79848 0.4189 0.0
H1282 H 0.81661 0.80895 0.4078 0.0
H1283 H 0.75789 0.76688 0.40513 0.0
H1284 H 0.69836 0.78196 0.35994 0.0
H1285 H 0.71989 0.77347 0.37192 0.0
H1286 H 0.78114 0.81648 0.36933 0.0
C1287 C 0.81199 0.7936 0.4071 0.0
C1288 C 0.76306 0.77775 0.39734 0.0
C1289 C 0.82376 0.78756 0.41337 0.0
C1290 C 0.71282 0.79322 0.36272 0.0
C1291 C 0.72516 0.78842 0.3697 0.0
C1292 C 0.77593 0.80591 0.37733 0.0
C1293 C 0.79424 0.77991 0.40029 0.0
C1294 C 0.78165 0.78622 0.3938 0.0
C1295 C 0.74407 0.80262 0.37344 0.0
C1296 C 0.75721 0.79735 0.38076 0.0
H1297 H 0.79573 0.7387 0.40473 0.0
H1298 H 0.77497 0.74929 0.39432 0.0
H1299 H 0.80232 0.80712 0.3809 0.0
H1300 H 0.74316 0.84126 0.36015 0.0
H1301 H 0.76467 0.83313 0.37287 0.0
C1302 C 0.25145 0.05136 0.38452 0.0
C1303 C 0.23965 0.05645 0.39165 0.0
C1304 C 0.24483 0.03218 0.37893 0.0
C1305 C 0.20852 0.98202 0.38341 0.0
H1306 H 0.22084 0.97035 0.3453 0.0
C1307 C 0.17596 0.90353 0.35661 0.0
C1308 C 0.1879 0.89869 0.34946 0.0
C1309 C 0.18197 0.92283 0.36144 0.0
C1310 C 0.21744 0.97338 0.35603 0.0
H1311 H 0.2117 0.04538 0.39856 0.0
H1312 H 0.2001 0.01198 0.38864 0.0
H1313 H 0.23198 0.00403 0.35426 0.0
H1314 H 0.2156 0.91039 0.34181 0.0
H1315 H 0.22612 0.94393 0.3504 0.0
H1316 H 0.19414 0.95143 0.38526 0.0
C1317 C 0.21449 0.02279 0.38745 0.0
C1318 C 0.22381 0.99267 0.36115 0.0
C1319 C 0.22107 0.04197 0.39298 0.0
C1320 C 0.20598 0.91358 0.34722 0.0
C1321 C 0.21199 0.93286 0.35207 0.0
C1322 C 0.20219 0.96275 0.37831 0.0
C1323 C 0.22632 0.01767 0.38043 0.0
C1324 C 0.21943 0.99719 0.3749 0.0
C1325 C 0.20008 0.93772 0.35925 0.0
C1326 C 0.2066 0.9582 0.36457 0.0
H1327 H 0.26579 0.06223 0.38322 0.0
H1328 H 0.25433 0.02865 0.37368 0.0
H1329 H 0.20516 0.98507 0.39415 0.0
H1330 H 0.16193 0.89245 0.35849 0.0
H1331 H 0.17236 0.92611 0.36677 0.0
C1332 C 0.54478 0.62018 0.27704 0.0
C1333 C 0.52899 0.61627 0.26774 0.0
C1334 C 0.55751 0.63914 0.28298 0.0
C1335 C 0.57382 0.69025 0.277 0.0
H1336 H 0.59304 0.70051 0.31801 0.0
C1337 C 0.61504 0.7678 0.30593 0.0
C1338 C 0.63069 0.77246 0.31569 0.0
C1339 C 0.60292 0.74864 0.30014 0.0
C1340 C 0.58798 0.69786 0.30649 0.0
H1341 H 0.51434 0.62923 0.25722 0.0
H1342 H 0.53638 0.66222 0.26774 0.0
H1343 H 0.57145 0.66718 0.30776 0.0
H1344 H 0.64588 0.76056 0.32699 0.0
H1345 H 0.62483 0.72718 0.31675 0.0
H1346 H 0.59031 0.72087 0.2757 0.0
C1347 C 0.53899 0.65066 0.27037 0.0
C1348 C 0.57561 0.67877 0.30063 0.0
C1349 C 0.52624 0.63172 0.26449 0.0
C1350 C 0.63392 0.75749 0.31954 0.0
C1351 C 0.6218 0.73833 0.31374 0.0
C1352 C 0.5862 0.70931 0.28285 0.0
C1353 C 0.55478 0.65459 0.27966 0.0
C1354 C 0.56831 0.67478 0.28584 0.0
C1355 C 0.60618 0.73369 0.30395 0.0
C1356 C 0.59333 0.71335 0.29768 0.0
H1357 H 0.54719 0.60855 0.27983 0.0
H1358 H 0.56963 0.64175 0.29001 0.0
H1359 H 0.56869 0.6876 0.26549 0.0
H1360 H 0.61207 0.77893 0.30275 0.0
H1361 H 0.59086 0.74552 0.2928 0.0
C1362 C 0.36154 0.88317 0.2599 0.0
C1363 C 0.37502 0.90299 0.26006 0.0
C1364 C 0.3448 0.87739 0.2663 0.0
C1365 C 0.3125 0.89387 0.27553 0.0
H1366 H 0.29584 0.85515 0.30358 0.0
C1367 C 0.25076 0.87873 0.30924 0.0
C1368 C 0.23878 0.85961 0.3124 0.0
C1369 C 0.26721 0.88353 0.30272 0.0
C1370 C 0.3001 0.86574 0.29558 0.0
H1371 H 0.38149 0.93221 0.26739 0.0
H1372 H 0.35198 0.92205 0.27808 0.0
H1373 H 0.32485 0.86428 0.29229 0.0
H1374 H 0.23431 0.83041 0.31115 0.0
H1375 H 0.26279 0.83859 0.29929 0.0
H1376 H 0.28767 0.8951 0.27845 0.0
C1377 C 0.35446 0.91107 0.27297 0.0
C1378 C 0.31676 0.87101 0.28919 0.0
C1379 C 0.37131 0.91686 0.26678 0.0
C1380 C 0.24343 0.8453 0.30888 0.0
C1381 C 0.25979 0.85004 0.30217 0.0
C1382 C 0.29573 0.88842 0.28175 0.0
C1383 C 0.34107 0.8913 0.27278 0.0
C1384 C 0.32318 0.88525 0.27923 0.0
C1385 C 0.27191 0.86924 0.29903 0.0
C1386 C 0.28941 0.87444 0.29199 0.0
H1387 H 0.36373 0.87209 0.25461 0.0
H1388 H 0.33458 0.86205 0.2659 0.0
H1389 H 0.31704 0.90469 0.26771 0.0
H1390 H 0.24751 0.89005 0.31194 0.0
H1391 H 0.27636 0.89853 0.30076 0.0
C1392 C 0.09252 0.47239 0.29385 0.0
C1393 C 0.08323 0.46669 0.27961 0.0
C1394 C 0.09903 0.46123 0.30041 0.0
C1395 C 0.12258 0.44245 0.30654 0.0
H1396 H 0.09367 0.38619 0.30234 0.0
C1397 C 0.15491 0.39417 0.31732 0.0
C1398 C 0.1442 0.3771 0.32412 0.0
C1399 C 0.14728 0.40559 0.31325 0.0
C1400 C 0.10185 0.4019 0.30375 0.0
H1401 H 0.07327 0.4446 0.2612 0.0
H1402 H 0.08454 0.42506 0.27268 0.0
H1403 H 0.07986 0.40466 0.2929 0.0
H1404 H 0.11726 0.35905 0.33245 0.0
H1405 H 0.1041 0.37903 0.32546 0.0
H1406 H 0.14456 0.43968 0.3174 0.0
C1407 C 0.08661 0.43808 0.27883 0.0
C1408 C 0.09401 0.41246 0.2982 0.0
C1409 C 0.08012 0.44926 0.27226 0.0
C1410 C 0.1259 0.37203 0.32715 0.0
C1411 C 0.11828 0.38342 0.32307 0.0
C1412 C 0.13045 0.43188 0.31205 0.0
C1413 C 0.09637 0.44408 0.29289 0.0
C1414 C 0.10433 0.43285 0.29944 0.0
C1415 C 0.12879 0.40016 0.31589 0.0
C1416 C 0.12021 0.41148 0.31063 0.0
H1417 H 0.09486 0.48558 0.2999 0.0
H1418 H 0.10623 0.46606 0.31136 0.0
H1419 H 0.13096 0.45815 0.30753 0.0
H1420 H 0.16904 0.39851 0.3148 0.0
H1421 H 0.15568 0.41832 0.30762 0.0
C1422 C 0.37091 0.47547 0.27458 0.0
C1423 C 0.37381 0.4673 0.2617 0.0
C1424 C 0.35345 0.46656 0.2802 0.0
C1425 C 0.30333 0.43122 0.26958 0.0
H1426 H 0.30059 0.429 0.31165 0.0
C1427 C 0.23534 0.38129 0.29554 0.0
C1428 C 0.23166 0.38869 0.30841 0.0
C1429 C 0.25235 0.39199 0.28952 0.0
C1430 C 0.30113 0.42974 0.29989 0.0
H1431 H 0.36079 0.4432 0.24475 0.0
H1432 H 0.33034 0.42748 0.25464 0.0
H1433 H 0.33108 0.44515 0.30189 0.0
H1434 H 0.24255 0.41316 0.32494 0.0
H1435 H 0.27241 0.43196 0.3144 0.0
H1436 H 0.27334 0.41552 0.2676 0.0
C1437 C 0.34145 0.441 0.26024 0.0
C1438 C 0.3186 0.43899 0.29429 0.0
C1439 C 0.3589 0.44996 0.25459 0.0
C1440 C 0.24509 0.40715 0.315 0.0
C1441 C 0.26219 0.41783 0.30903 0.0
C1442 C 0.28586 0.42192 0.27518 0.0
C1443 C 0.3385 0.44923 0.27309 0.0
C1444 C 0.31991 0.43974 0.27907 0.0
C1445 C 0.26606 0.41026 0.2963 0.0
C1446 C 0.28458 0.42099 0.29039 0.0
H1447 H 0.38205 0.489 0.28017 0.0
H1448 H 0.35158 0.47345 0.28999 0.0
H1449 H 0.30383 0.43185 0.25782 0.0
H1450 H 0.22519 0.36707 0.29025 0.0
H1451 H 0.25499 0.38568 0.2798 0.0
C1452 C 0.54294 0.91155 0.24965 0.0
C1453 C 0.52679 0.90828 0.25627 0.0
C1454 C 0.55435 0.90485 0.25555 0.0
C1455 C 0.56522 0.88792 0.28956 0.0
H1456 H 0.58563 0.86491 0.26327 0.0
C1457 C 0.60025 0.84605 0.31055 0.0
C1458 C 0.61736 0.85056 0.3051 0.0
C1459 C 0.58913 0.85281 0.30421 0.0
C1460 C 0.58015 0.87144 0.27073 0.0
H1461 H 0.50982 0.89525 0.27414 0.0
H1462 H 0.5296 0.88341 0.28435 0.0
H1463 H 0.56661 0.87776 0.25311 0.0
H1464 H 0.63611 0.86512 0.28855 0.0
H1465 H 0.61661 0.87692 0.27738 0.0
H1466 H 0.5786 0.88141 0.30717 0.0
C1467 C 0.53369 0.8915 0.27479 0.0
C1468 C 0.5693 0.87885 0.26492 0.0
C1469 C 0.52234 0.89827 0.26894 0.0
C1470 C 0.62296 0.86147 0.29295 0.0
C1471 C 0.61178 0.86814 0.28653 0.0
C1472 C 0.57597 0.88042 0.29535 0.0
C1473 C 0.54981 0.89465 0.26815 0.0
C1474 C 0.56167 0.88713 0.27428 0.0
C1475 C 0.59488 0.8641 0.29224 0.0
C1476 C 0.58349 0.87205 0.286 0.0
H1477 H 0.54682 0.91942 0.23997 0.0
H1478 H 0.56683 0.9078 0.2503 0.0
H1479 H 0.55984 0.89451 0.29707 0.0
H1480 H 0.59562 0.83761 0.3199 0.0
H1481 H 0.57605 0.84924 0.3087 0.0
C1482 C 0.09536 0.63104 0.28431 0.0
C1483 C 0.09373 0.62668 0.269 0.0
C1484 C 0.10203 0.65007 0.29031 0.0
C1485 C 0.13241 0.7002 0.28392 0.0
H1486 H 0.10362 0.71208 0.31034 0.0
C1487 C 0.15491 0.77919 0.30413 0.0
C1488 C 0.15114 0.7829 0.31834 0.0
C1489 C 0.14785 0.76012 0.29807 0.0
C1490 C 0.11204 0.70902 0.3032 0.0
H1491 H 0.09753 0.6391 0.24804 0.0
H1492 H 0.10995 0.67238 0.25865 0.0
H1493 H 0.09148 0.6787 0.30009 0.0
H1494 H 0.13749 0.7697 0.33753 0.0
H1495 H 0.12592 0.73651 0.32729 0.0
H1496 H 0.15332 0.73023 0.28734 0.0
C1497 C 0.10597 0.66095 0.26591 0.0
C1498 C 0.10499 0.68991 0.29727 0.0
C1499 C 0.09896 0.64189 0.25988 0.0
C1500 C 0.14046 0.76724 0.32648 0.0
C1501 C 0.13371 0.74819 0.32054 0.0
C1502 C 0.13966 0.71926 0.29006 0.0
C1503 C 0.10754 0.66518 0.28117 0.0
C1504 C 0.11507 0.68537 0.28753 0.0
C1505 C 0.13715 0.74433 0.3062 0.0
C1506 C 0.12954 0.72397 0.29974 0.0
H1507 H 0.09183 0.61985 0.29173 0.0
H1508 H 0.10328 0.65305 0.30213 0.0
H1509 H 0.14051 0.69696 0.27653 0.0
H1510 H 0.16295 0.79102 0.29756 0.0
H1511 H 0.15052 0.75779 0.28691 0.0
C1512 C 0.80564 0.0378 0.38676 0.0
C1513 C 0.80307 0.04435 0.40054 0.0
C1514 C 0.79317 0.01893 0.38051 0.0
C1515 C 0.75844 0.97051 0.39041 0.0
H1516 H 0.74279 0.96019 0.34866 0.0
C1517 C 0.70088 0.90377 0.34628 0.0
C1518 C 0.70342 0.88855 0.35063 0.0
C1519 C 0.71289 0.92283 0.35234 0.0
C1520 C 0.74692 0.96285 0.36036 0.0
H1521 H 0.78505 0.03644 0.41834 0.0
H1522 H 0.76327 0.00354 0.40742 0.0
H1523 H 0.76359 0.99353 0.35923 0.0
H1524 H 0.72059 0.88147 0.36482 0.0
H1525 H 0.74162 0.91476 0.37527 0.0
H1526 H 0.74154 0.93989 0.3916 0.0
C1527 C 0.77513 0.01287 0.40157 0.0
C1528 C 0.759 0.98193 0.36638 0.0
C1529 C 0.7876 0.03171 0.40782 0.0
C1530 C 0.7182 0.89282 0.36122 0.0
C1531 C 0.7302 0.9119 0.36729 0.0
C1532 C 0.74638 0.95145 0.38439 0.0
C1533 C 0.77784 0.00621 0.3879 0.0
C1534 C 0.7649 0.98597 0.38148 0.0
C1535 C 0.7277 0.92711 0.36289 0.0
C1536 C 0.74049 0.94739 0.3693 0.0
H1537 H 0.81756 0.0471 0.38096 0.0
H1538 H 0.79578 0.01417 0.37004 0.0
H1539 H 0.76289 0.97312 0.40205 0.0
H1540 H 0.68961 0.90101 0.33818 0.0
H1541 H 0.71043 0.93418 0.34887 0.0
C1542 C 0.98239 0.77906 0.42183 0.0
C1543 C 0.96595 0.76262 0.41524 0.0
C1544 C -0.00064 0.78562 0.41564 0.0
C1545 C 0.01818 0.78578 0.38058 0.0
H1546 H 0.06401 0.79852 0.4039 0.0
C1547 C 0.08497 0.80252 0.35357 0.0
C1548 C 0.10225 0.81697 0.3606 0.0
C1549 C 0.06864 0.79612 0.36061 0.0
C1550 C 0.05141 0.79532 0.39727 0.0
H1551 H 0.95469 0.73988 0.39719 0.0
H1552 H 0.98425 0.7517 0.38619 0.0
H1553 H 0.03488 0.78676 0.41564 0.0
H1554 H 0.11619 0.83612 0.38047 0.0
H1555 H 0.08749 0.82537 0.39272 0.0
H1556 H 0.03456 0.79467 0.36228 0.0
C1557 C 0.98389 0.7595 0.39612 0.0
C1558 C 0.03474 0.7885 0.40399 0.0
C1559 C 0.96697 0.7528 0.4024 0.0
C1560 C 0.10298 0.82495 0.37483 0.0
C1561 C 0.08657 0.81868 0.38186 0.0
C1562 C 0.03484 0.79279 0.3739 0.0
C1563 C 0.00021 0.77603 0.40264 0.0
C1564 C 0.01796 0.78352 0.39566 0.0
C1565 C 0.06919 0.8042 0.37481 0.0
C1566 C 0.05164 0.79746 0.38212 0.0
H1567 H 0.98208 0.78719 0.43158 0.0
H1568 H 0.01172 0.79852 0.42079 0.0
H1569 H 0.00548 0.78234 0.37396 0.0
H1570 H 0.08408 0.79601 0.34263 0.0
H1571 H 0.0556 0.78465 0.35497 0.0
C1572 C 0.23943 0.21099 0.37761 0.0
C1573 C 0.24815 0.21661 0.39204 0.0
C1574 C 0.23278 0.22194 0.37087 0.0
C1575 C 0.21665 0.25621 0.38014 0.0
H1576 H 0.22059 0.2651 0.33891 0.0
C1577 C 0.20195 0.30456 0.33754 0.0
C1578 C 0.18433 0.30077 0.34154 0.0
C1579 C 0.20998 0.29402 0.34287 0.0
C1580 C 0.21948 0.26282 0.35046 0.0
H1581 H 0.25746 0.23861 0.41043 0.0
H1582 H 0.24583 0.25772 0.39867 0.0
H1583 H 0.23529 0.24821 0.35 0.0
H1584 H 0.16102 0.28236 0.3538 0.0
H1585 H 0.17494 0.26395 0.3629 0.0
H1586 H 0.20105 0.27095 0.38069 0.0
C1587 C 0.24386 0.24465 0.39267 0.0
C1588 C 0.22775 0.25301 0.35677 0.0
C1589 C 0.25051 0.23371 0.39941 0.0
C1590 C 0.17467 0.28578 0.35056 0.0
C1591 C 0.18269 0.27529 0.35587 0.0
C1592 C 0.20835 0.26593 0.37383 0.0
C1593 C 0.23468 0.23874 0.3784 0.0
C1594 C 0.22639 0.24958 0.37168 0.0
C1595 C 0.20057 0.27951 0.35231 0.0
C1596 C 0.20958 0.26927 0.35891 0.0
H1597 H 0.23718 0.19776 0.37169 0.0
H1598 H 0.22558 0.21687 0.35993 0.0
H1599 H 0.21515 0.2536 0.3916 0.0
H1600 H 0.20978 0.31601 0.33062 0.0
H1601 H 0.22382 0.29768 0.33999 0.0
C1602 C 0.62552 0.52335 0.72745 0.0
C1603 C 0.62317 0.52616 0.74228 0.0
C1604 C 0.64289 0.53451 0.72206 0.0
C1605 C 0.68853 0.5801 0.73088 0.0
H1606 H 0.70381 0.5572 0.70003 0.0
C1607 C 0.75156 0.6268 0.69887 0.0
C1608 C 0.7625 0.61903 0.69413 0.0
C1609 C 0.73505 0.61529 0.7053 0.0
C1610 C 0.69992 0.56379 0.70879 0.0
H1611 H 0.63709 0.54248 0.7632 0.0
H1612 H 0.66765 0.56158 0.75395 0.0
H1613 H 0.67449 0.53725 0.71049 0.0
H1614 H 0.76519 0.59338 0.69263 0.0
H1615 H 0.73667 0.57334 0.70433 0.0
H1616 H 0.7143 0.60643 0.72959 0.0
C1617 C 0.65599 0.55119 0.74634 0.0
C1618 C 0.68291 0.5524 0.71464 0.0
C1619 C 0.63853 0.54021 0.75167 0.0
C1620 C 0.75687 0.59964 0.69611 0.0
C1621 C 0.74048 0.58816 0.70273 0.0
C1622 C 0.70565 0.59142 0.72517 0.0
C1623 C 0.65839 0.54853 0.73144 0.0
C1624 C 0.67688 0.56046 0.72564 0.0
C1625 C 0.72928 0.5958 0.70732 0.0
C1626 C 0.71148 0.58348 0.71392 0.0
H1627 H 0.61381 0.51274 0.71996 0.0
H1628 H 0.64406 0.53232 0.71048 0.0
H1629 H 0.6843 0.5869 0.73923 0.0
H1630 H 0.75559 0.64172 0.69739 0.0
H1631 H 0.72665 0.6216 0.70841 0.0
C1632 C 0.49252 0.12322 0.74547 0.0
C1633 C 0.48624 0.10334 0.74622 0.0
C1634 C 0.48089 0.12918 0.73881 0.0
C1635 C 0.43328 0.117 0.73191 0.0
H1636 H 0.44692 0.14434 0.69685 0.0
C1637 C 0.3806 0.12936 0.69776 0.0
C1638 C 0.38721 0.14615 0.69035 0.0
C1639 C 0.39311 0.12483 0.70477 0.0
C1640 C 0.44302 0.13708 0.70679 0.0
H1641 H 0.46264 0.0742 0.74035 0.0
H1642 H 0.44212 0.08481 0.72948 0.0
H1643 H 0.4682 0.13556 0.7091 0.0
H1644 H 0.41196 0.17163 0.6846 0.0
H1645 H 0.43399 0.16433 0.69747 0.0
H1646 H 0.40851 0.11902 0.73013 0.0
C1647 C 0.45616 0.09564 0.73396 0.0
C1648 C 0.45517 0.13195 0.71371 0.0
C1649 C 0.46791 0.08963 0.7403 0.0
C1650 C 0.40656 0.15851 0.69018 0.0
C1651 C 0.41914 0.15421 0.69748 0.0
C1652 C 0.42131 0.1225 0.72522 0.0
C1653 C 0.46262 0.11543 0.73309 0.0
C1654 C 0.45025 0.12167 0.72619 0.0
C1655 C 0.41258 0.13725 0.70483 0.0
C1656 C 0.42586 0.13235 0.71242 0.0
H1657 H 0.50635 0.13426 0.75016 0.0
H1658 H 0.48605 0.14455 0.73833 0.0
H1659 H 0.42935 0.10923 0.74164 0.0
H1660 H 0.3657 0.11952 0.69794 0.0
H1661 H 0.38744 0.11141 0.70996 0.0
C1662 C 0.88761 0.36972 0.73031 0.0
C1663 C 0.90585 0.38467 0.7286 0.0
C1664 C 0.88111 0.35085 0.72405 0.0
C1665 C 0.88984 0.32275 0.69531 0.0
H1666 H 0.86135 0.27971 0.71832 0.0
C1667 C 0.87205 0.24424 0.67788 0.0
C1668 C 0.8541 0.22912 0.68017 0.0
C1669 C 0.87811 0.26334 0.68335 0.0
C1670 C 0.86908 0.29154 0.71167 0.0
H1671 H 0.93149 0.39157 0.71875 0.0
H1672 H 0.92026 0.35854 0.70801 0.0
H1673 H 0.87244 0.31279 0.72869 0.0
H1674 H 0.82836 0.22233 0.68985 0.0
H1675 H 0.83887 0.25563 0.69924 0.0
H1676 H 0.88652 0.30146 0.6783 0.0
C1677 C 0.91092 0.36146 0.7141 0.0
C1678 C 0.87545 0.31051 0.71762 0.0
C1679 C 0.91742 0.38034 0.72039 0.0
C1680 C 0.84229 0.23358 0.68791 0.0
C1681 C 0.84835 0.25267 0.69338 0.0
C1682 C 0.88347 0.30376 0.68935 0.0
C1683 C 0.89271 0.34649 0.71591 0.0
C1684 C 0.8859 0.32633 0.70951 0.0
C1685 C 0.86637 0.26775 0.69124 0.0
C1686 C 0.87301 0.28794 0.69747 0.0
H1687 H 0.8784 0.37252 0.7367 0.0
H1688 H 0.86695 0.33969 0.72551 0.0
H1689 H 0.89765 0.33461 0.6887 0.0
H1690 H 0.88155 0.24134 0.672 0.0
H1691 H 0.89215 0.27459 0.68166 0.0
C1692 C 0.21015 0.9511 0.61431 0.0
C1693 C 0.19406 0.94748 0.60555 0.0
C1694 C 0.22301 0.9699 0.62055 0.0
C1695 C 0.23868 0.0212 0.61584 0.0
H1696 H 0.25973 0.03085 0.65633 0.0
C1697 C 0.27848 0.09807 0.64518 0.0
C1698 C 0.29513 0.10355 0.65393 0.0
C1699 C 0.26656 0.07874 0.63977 0.0
C1700 C 0.25413 0.02835 0.64496 0.0
H1701 H 0.17897 0.96079 0.59638 0.0
H1702 H 0.20116 0.9934 0.60742 0.0
H1703 H 0.23827 0.99752 0.64582 0.0
H1704 H 0.31208 0.09286 0.66413 0.0
H1705 H 0.29121 0.05902 0.65456 0.0
H1706 H 0.25442 0.05193 0.61493 0.0
C1707 C 0.20395 0.98177 0.60939 0.0
C1708 C 0.24186 0.00928 0.63894 0.0
C1709 C 0.1911 0.96303 0.6032 0.0
C1710 C 0.29936 0.08914 0.65743 0.0
C1711 C 0.28738 0.06974 0.65199 0.0
C1712 C 0.25092 0.04021 0.62184 0.0
C1713 C 0.22009 0.98545 0.61807 0.0
C1714 C 0.23383 0.00554 0.62436 0.0
C1715 C 0.27097 0.06439 0.64294 0.0
C1716 C 0.25861 0.04404 0.63651 0.0
H1717 H 0.21274 0.93939 0.61641 0.0
H1718 H 0.23539 0.9723 0.62712 0.0
H1719 H 0.23306 0.01878 0.60448 0.0
H1720 H 0.27468 0.10873 0.64234 0.0
H1721 H 0.25384 0.07504 0.63307 0.0
C1722 C 0.02558 0.23745 0.58157 0.0
C1723 C 0.03946 0.23438 0.58824 0.0
C1724 C 0.00873 0.23145 0.58784 0.0
C1725 C 0.98791 0.21946 0.62305 0.0
H1726 H 0.94072 0.19442 0.59865 0.0
C1727 C 0.91704 0.18547 0.64791 0.0
C1728 C 0.90339 0.18894 0.64142 0.0
C1729 C 0.93339 0.19042 0.64116 0.0
C1730 C 0.9538 0.20156 0.60559 0.0
H1731 H 0.04661 0.22277 0.60678 0.0
H1732 H 0.0171 0.21205 0.6176 0.0
H1733 H 0.96985 0.20437 0.58733 0.0
H1734 H 0.89582 0.2 0.62276 0.0
H1735 H 0.9245 0.20885 0.611 0.0
H1736 H 0.97193 0.21678 0.64129 0.0
C1737 C 0.0193 0.21922 0.60758 0.0
C1738 C 0.97048 0.20726 0.59911 0.0
C1739 C 0.03611 0.22516 0.60129 0.0
C1740 C 0.90618 0.19719 0.62798 0.0
C1741 C 0.92253 0.20214 0.62121 0.0
C1742 C 0.97126 0.21379 0.62952 0.0
C1743 C 0.00544 0.22234 0.60094 0.0
C1744 C 0.98771 0.21626 0.60777 0.0
C1745 C 0.93637 0.19893 0.62778 0.0
C1746 C 0.95402 0.20477 0.62087 0.0
H1747 H 0.02769 0.24435 0.57143 0.0
H1748 H 0.99838 0.23421 0.58254 0.0
H1749 H 0.001 0.22665 0.62999 0.0
H1750 H 0.91514 0.17903 0.65825 0.0
H1751 H 0.94366 0.1875 0.64638 0.0
C1752 C 0.77108 0.79734 0.60181 0.0
C1753 C 0.75313 0.7943 0.60388 0.0
C1754 C 0.77697 0.7852 0.60747 0.0
C1755 C 0.76826 0.75181 0.63596 0.0
H1756 H 0.79608 0.73479 0.61257 0.0
C1757 C 0.79023 0.6978 0.65549 0.0
C1758 C 0.8083 0.70165 0.65281 0.0
C1759 C 0.78281 0.70844 0.64932 0.0
C1760 C 0.7885 0.73958 0.6193 0.0
H1761 H 0.72727 0.77613 0.6135 0.0
H1762 H 0.73756 0.75476 0.62335 0.0
H1763 H 0.78419 0.75438 0.60208 0.0
H1764 H 0.83275 0.7198 0.64154 0.0
H1765 H 0.81993 0.7385 0.631 0.0
H1766 H 0.77276 0.73723 0.65326 0.0
C1767 C 0.74709 0.76665 0.61741 0.0
C1768 C 0.78166 0.75078 0.61328 0.0
C1769 C 0.74114 0.77876 0.61167 0.0
C1770 C 0.81878 0.7164 0.64383 0.0
C1771 C 0.81138 0.72705 0.63769 0.0
C1772 C 0.77515 0.74066 0.64201 0.0
C1773 C 0.76507 0.76976 0.61537 0.0
C1774 C 0.77159 0.75714 0.62157 0.0
C1775 C 0.79329 0.72317 0.64034 0.0
C1776 C 0.78547 0.73453 0.63379 0.0
H1777 H 0.78055 0.80905 0.5957 0.0
H1778 H 0.79098 0.7881 0.60584 0.0
H1779 H 0.76074 0.7567 0.64268 0.0
H1780 H 0.78171 0.68647 0.66228 0.0
H1781 H 0.76876 0.70492 0.65143 0.0
C1782 C 0.02381 0.77981 0.58842 0.0
C1783 C 0.0382 0.79724 0.59586 0.0
C1784 C 0.00634 0.76986 0.59396 0.0
C1785 C 0.97562 0.77689 0.61806 0.0
H1786 H 0.95162 0.72121 0.61985 0.0
C1787 C 0.91094 0.73458 0.6501 0.0
C1788 C 0.89733 0.7158 0.64425 0.0
C1789 C 0.9277 0.74477 0.64359 0.0
C1790 C 0.95797 0.73671 0.61922 0.0
H1791 H 0.04553 0.81803 0.61481 0.0
H1792 H 0.01503 0.8006 0.62453 0.0
H1793 H 0.98174 0.73838 0.60964 0.0
H1794 H 0.89011 0.69309 0.6268 0.0
H1795 H 0.91915 0.71101 0.6152 0.0
H1796 H 0.95185 0.77526 0.62755 0.0
C1797 C 0.01725 0.79467 0.6144 0.0
C1798 C 0.97526 0.74654 0.61341 0.0
C1799 C 0.03476 0.80453 0.60892 0.0
C1800 C 0.90048 0.70753 0.63158 0.0
C1801 C 0.91717 0.71775 0.62501 0.0
C1802 C 0.95827 0.76704 0.6238 0.0
C1803 C 0.00286 0.77723 0.60698 0.0
C1804 C 0.98431 0.76674 0.61284 0.0
C1805 C 0.9311 0.7364 0.63104 0.0
C1806 C 0.94928 0.74684 0.62452 0.0
H1807 H 0.0261 0.77378 0.57838 0.0
H1808 H 0.99546 0.75651 0.58796 0.0
H1809 H 0.98216 0.79244 0.61758 0.0
H1810 H 0.90884 0.74123 0.65991 0.0
H1811 H 0.93819 0.75899 0.64864 0.0
C1812 C 0.19298 0.22584 0.58748 0.0
C1813 C 0.19224 0.24182 0.59395 0.0
C1814 C 0.20462 0.21984 0.59399 0.0
C1815 C 0.22792 0.22037 0.62908 0.0
H1816 H 0.25939 0.20955 0.60493 0.0
C1817 C 0.28163 0.20117 0.65384 0.0
C1818 C 0.28378 0.18707 0.64577 0.0
C1819 C 0.2708 0.20841 0.6477 0.0
C1820 C 0.25051 0.21225 0.6118 0.0
H1821 H 0.20327 0.26402 0.61237 0.0
H1822 H 0.22331 0.25317 0.62391 0.0
H1823 H 0.23977 0.22112 0.5939 0.0
H1824 H 0.27626 0.16923 0.6251 0.0
H1825 H 0.2569 0.18138 0.61449 0.0
H1826 H 0.23825 0.21106 0.64691 0.0
C1827 C 0.21482 0.24536 0.61378 0.0
C1828 C 0.23934 0.21895 0.60548 0.0
C1829 C 0.2033 0.25151 0.60719 0.0
C1830 C 0.27485 0.18017 0.63152 0.0
C1831 C 0.26389 0.18726 0.62542 0.0
C1832 C 0.23895 0.21347 0.63538 0.0
C1833 C 0.21564 0.22952 0.60719 0.0
C1834 C 0.22789 0.223 0.61404 0.0
C1835 C 0.26181 0.20154 0.6334 0.0
C1836 C 0.25032 0.20924 0.6268 0.0
H1837 H 0.18435 0.21775 0.57747 0.0
H1838 H 0.20478 0.20739 0.5888 0.0
H1839 H 0.21906 0.22319 0.63588 0.0
H1840 H 0.28849 0.20679 0.66484 0.0
H1841 H 0.26973 0.21959 0.65408 0.0
C1842 C 0.76901 0.96038 0.61901 0.0
C1843 C 0.75958 0.95454 0.60483 0.0
C1844 C 0.77619 0.97942 0.62524 0.0
C1845 C 0.79097 0.02877 0.61492 0.0
H1846 H 0.78768 0.03973 0.6561 0.0
C1847 C 0.80106 0.09661 0.65663 0.0
C1848 C 0.81788 0.11167 0.65233 0.0
C1849 C 0.79451 0.07734 0.65137 0.0
C1850 C 0.78862 0.0369 0.64456 0.0
H1851 H 0.74967 0.96382 0.5863 0.0
H1852 H 0.76205 0.99695 0.59719 0.0
H1853 H 0.7744 0.00616 0.6458 0.0
H1854 H 0.84118 0.11822 0.63933 0.0
H1855 H 0.82985 0.08457 0.63031 0.0
H1856 H 0.80473 0.05944 0.61355 0.0
C1857 C 0.76428 0.98698 0.60337 0.0
C1858 C 0.78119 0.01768 0.6387 0.0
C1859 C 0.75716 0.96799 0.59714 0.0
C1860 C 0.82814 0.10699 0.64282 0.0
C1861 C 0.82159 0.08771 0.63758 0.0
C1862 C 0.79838 0.04797 0.62077 0.0
C1863 C 0.77405 0.99298 0.61743 0.0
C1864 C 0.78219 0.01339 0.62379 0.0
C1865 C 0.80463 0.07267 0.6417 0.0
C1866 C 0.79723 0.05227 0.63564 0.0
H1867 H 0.77127 0.95039 0.62514 0.0
H1868 H 0.78381 0.98363 0.63603 0.0
H1869 H 0.7922 0.02599 0.60343 0.0
H1870 H 0.79276 0.09968 0.66391 0.0
H1871 H 0.78127 0.06614 0.65461 0.0
C1872 C 0.44805 0.36852 0.72746 0.0
C1873 C 0.46721 0.3793 0.72554 0.0
C1874 C 0.43681 0.35017 0.71988 0.0
C1875 C 0.43822 0.3082 0.70604 0.0
H1876 H 0.39243 0.2939 0.68203 0.0
C1877 C 0.39141 0.23031 0.67826 0.0
C1878 C 0.37197 0.2227 0.6774 0.0
C1879 C 0.40369 0.25002 0.68255 0.0
C1880 C 0.40502 0.29753 0.68886 0.0
H1881 H 0.48975 0.37961 0.71432 0.0
H1882 H 0.47012 0.34711 0.70138 0.0
H1883 H 0.41236 0.32736 0.69269 0.0
H1884 H 0.35009 0.22963 0.68051 0.0
H1885 H 0.3713 0.2636 0.68865 0.0
H1886 H 0.43058 0.27836 0.70305 0.0
C1887 C 0.46381 0.35303 0.70854 0.0
C1888 C 0.41647 0.31673 0.69485 0.0
C1889 C 0.47496 0.37157 0.71586 0.0
C1890 C 0.36502 0.23513 0.68091 0.0
C1891 C 0.37725 0.2547 0.68548 0.0
C1892 C 0.42658 0.2889 0.70033 0.0
C1893 C 0.44468 0.34218 0.71056 0.0
C1894 C 0.43309 0.32217 0.70354 0.0
C1895 C 0.39677 0.26246 0.68638 0.0
C1896 C 0.40973 0.28324 0.69175 0.0
H1897 H 0.44182 0.37425 0.73489 0.0
H1898 H 0.4221 0.34196 0.72166 0.0
H1899 H 0.45092 0.31208 0.71284 0.0
H1900 H 0.39715 0.22108 0.67549 0.0
H1901 H 0.41859 0.25547 0.68281 0.0
C1902 C 0.64934 0.11301 0.75242 0.0
C1903 C 0.63266 0.09688 0.74581 0.0
C1904 C 0.66615 0.11945 0.746 0.0
C1905 C 0.68461 0.12058 0.71076 0.0
H1906 H 0.72972 0.12988 0.73341 0.0
C1907 C 0.7508 0.13626 0.68308 0.0
C1908 C 0.7683 0.14936 0.69055 0.0
C1909 C 0.73447 0.13024 0.69007 0.0
C1910 C 0.71734 0.12768 0.72698 0.0
H1911 H 0.62078 0.07467 0.72736 0.0
H1912 H 0.65007 0.08638 0.71594 0.0
H1913 H 0.70074 0.11855 0.74526 0.0
H1914 H 0.78264 0.16665 0.71107 0.0
H1915 H 0.75401 0.15669 0.72321 0.0
H1916 H 0.70111 0.13013 0.69257 0.0
C1917 C 0.65001 0.09396 0.72611 0.0
C1918 C 0.70075 0.12109 0.73376 0.0
C1919 C 0.63325 0.08734 0.73263 0.0
C1920 C 0.76926 0.1565 0.7051 0.0
C1921 C 0.75287 0.15067 0.71206 0.0
C1922 C 0.70123 0.12742 0.70402 0.0
C1923 C 0.66658 0.11009 0.73273 0.0
C1924 C 0.68422 0.11733 0.72566 0.0
C1925 C 0.73527 0.13741 0.70463 0.0
C1926 C 0.71777 0.13088 0.712 0.0
H1927 H 0.64939 0.12097 0.76241 0.0
H1928 H 0.67872 0.13205 0.75123 0.0
H1929 H 0.67209 0.11807 0.70435 0.0
H1930 H 0.74973 0.13042 0.67187 0.0
H1931 H 0.72124 0.11971 0.68409 0.0
C1932 C 0.92069 0.56368 0.7355 0.0
C1933 C 0.91103 0.54352 0.73184 0.0
C1934 C 0.91394 0.57507 0.72969 0.0
C1935 C 0.87247 0.57546 0.71911 0.0
H1936 H 0.89988 0.61397 0.6924 0.0
C1937 C 0.8406 0.61656 0.69089 0.0
C1938 C 0.85268 0.63564 0.68767 0.0
C1939 C 0.84782 0.60532 0.69621 0.0
C1940 C 0.89217 0.60358 0.70007 0.0
H1941 H 0.88683 0.51932 0.71946 0.0
H1942 H 0.87461 0.53928 0.70966 0.0
H1943 H 0.91269 0.59466 0.70198 0.0
H1944 H 0.88172 0.65822 0.68792 0.0
H1945 H 0.89436 0.63909 0.69794 0.0
H1946 H 0.85235 0.58476 0.71789 0.0
C1947 C 0.88754 0.54621 0.71679 0.0
C1948 C 0.89947 0.59243 0.70542 0.0
C1949 C 0.89453 0.53488 0.72232 0.0
C1950 C 0.87209 0.64345 0.69016 0.0
C1951 C 0.87932 0.63238 0.6958 0.0
C1952 C 0.86535 0.5869 0.71404 0.0
C1953 C 0.8972 0.56636 0.72045 0.0
C1954 C 0.88961 0.57824 0.71489 0.0
C1955 C 0.8673 0.61307 0.69876 0.0
C1956 C 0.87503 0.60106 0.70437 0.0
H1957 H 0.93345 0.57058 0.74284 0.0
H1958 H 0.92153 0.59061 0.73265 0.0
H1959 H 0.86475 0.56466 0.72653 0.0
H1960 H 0.82555 0.61013 0.68893 0.0
H1961 H 0.83806 0.59042 0.69804 0.0
C1962 C 0.46266 0.95571 0.14115 0.0
C1963 C 0.46789 0.96845 0.15396 0.0
C1964 C 0.46518 0.96277 0.12734 0.0
C1965 C 0.49437 0.00695 0.10975 0.0
H1966 H 0.45956 0.97801 0.07556 0.0
C1967 C 0.48557 0.01094 0.04295 0.0
C1968 C 0.50346 0.01491 0.03967 0.0
C1969 C 0.48022 0.00728 0.05719 0.0
C1970 C 0.46931 0.98642 0.08502 0.0
H1971 H 0.47947 0.99857 0.16233 0.0
H1972 H 0.48364 0.01089 0.13817 0.0
H1973 H 0.45104 0.96761 0.09994 0.0
H1974 H 0.53004 0.01893 0.04863 0.0
H1975 H 0.52077 0.01257 0.07347 0.0
H1976 H 0.51269 0.02567 0.09483 0.0
C1977 C 0.47775 0.99544 0.13884 0.0
C1978 C 0.46451 0.98034 0.09896 0.0
C1979 C 0.47521 0.98837 0.15265 0.0
C1980 C 0.51616 0.0159 0.05091 0.0
C1981 C 0.51087 0.01235 0.06514 0.0
C1982 C 0.49917 0.01301 0.09582 0.0
C1983 C 0.47298 0.98275 0.12604 0.0
C1984 C 0.47715 0.99032 0.11144 0.0
C1985 C 0.49277 0.00776 0.0684 0.0
C1986 C 0.48685 0.00259 0.08328 0.0
H1987 H 0.45675 0.94025 0.14179 0.0
H1988 H 0.46154 0.95262 0.11772 0.0
H1989 H 0.50448 0.01487 0.11912 0.0
H1990 H 0.47563 0.01038 0.03448 0.0
H1991 H 0.46626 0.004 0.05941 0.0
C1992 C 0.01424 0.50119 0.15692 0.0
C1993 C 0.03179 0.50385 0.16182 0.0
C1994 C 0.00872 0.49862 0.14189 0.0
C1995 C 0.02894 0.50713 0.10587 0.0
H1996 H 0.97689 0.47575 0.09036 0.0
C1997 C 0.00552 0.49034 0.04381 0.0
C1998 C 0.99154 0.4944 0.03916 0.0
C1999 C 0.00987 0.49031 0.05874 0.0
C2000 C 0.99146 0.4846 0.09459 0.0
H2001 H 0.05698 0.50504 0.15505 0.0
H2002 H 0.04712 0.49974 0.12883 0.0
H2003 H 0.98549 0.47707 0.11651 0.0
H2004 H 0.97102 0.50158 0.04634 0.0
H2005 H 0.97832 0.50111 0.07258 0.0
H2006 H 0.03487 0.51426 0.08384 0.0
C2007 C 0.03783 0.50033 0.13649 0.0
C2008 C 0.99641 0.48545 0.10957 0.0
C2009 C 0.04346 0.50322 0.15149 0.0
C2010 C 0.9818 0.49828 0.04968 0.0
C2011 C 0.98591 0.49793 0.06464 0.0
C2012 C 0.02402 0.50601 0.09089 0.0
C2013 C 0.02054 0.49838 0.13145 0.0
C2014 C 0.01522 0.49683 0.11543 0.0
C2015 C 0.00011 0.49413 0.06929 0.0
C2016 C 0.00524 0.49484 0.08513 0.0
H2017 H 0.00508 0.50181 0.1647 0.0
H2018 H 0.99545 0.49746 0.13848 0.0
H2019 H 0.0435 0.51641 0.10997 0.0
H2020 H 0.01353 0.48788 0.03596 0.0
H2021 H 0.02091 0.48737 0.06205 0.0
C2022 C 0.49881 0.51567 0.15487 0.0
C2023 C 0.48196 0.50149 0.1598 0.0
C2024 C 0.50261 0.51429 0.14032 0.0
C2025 C 0.47913 0.49233 0.10335 0.0
H2026 H 0.52936 0.50701 0.09381 0.0
C2027 C 0.4966 0.48526 0.04382 0.0
C2028 C 0.51288 0.50111 0.03964 0.0
C2029 C 0.49277 0.48415 0.05853 0.0
C2030 C 0.51529 0.503 0.0963 0.0
H2031 H 0.45609 0.47446 0.15337 0.0
H2032 H 0.46275 0.47202 0.12791 0.0
H2033 H 0.52277 0.50687 0.11947 0.0
H2034 H 0.53817 0.52799 0.04747 0.0
H2035 H 0.53154 0.52611 0.07321 0.0
H2036 H 0.4717 0.48861 0.08017 0.0
C2037 C 0.4729 0.48436 0.13529 0.0
C2038 C 0.51151 0.50292 0.11099 0.0
C2039 C 0.4691 0.48575 0.14986 0.0
C2040 C 0.52551 0.51561 0.05044 0.0
C2041 C 0.52174 0.51448 0.06516 0.0
C2042 C 0.4829 0.49238 0.08865 0.0
C2043 C 0.48965 0.4987 0.13032 0.0
C2044 C 0.49343 0.49777 0.1147 0.0
C2045 C 0.50527 0.49879 0.06936 0.0
C2046 C 0.50107 0.4979 0.08496 0.0
H2047 H 0.50887 0.52816 0.16217 0.0
H2048 H 0.5155 0.52576 0.1368 0.0
H2049 H 0.46511 0.48855 0.10582 0.0
H2050 H 0.48688 0.47366 0.03572 0.0
H2051 H 0.48012 0.47173 0.06145 0.0
C2052 C 0.98076 0.48414 0.84501 0.0
C2053 C 0.97825 0.49866 0.8391 0.0
C2054 C 0.9861 0.48558 0.85995 0.0
C2055 C 0.98488 0.50794 0.89568 0.0
H2056 H 0.02056 0.49269 0.90888 0.0
C2057 C 0.00831 0.51234 0.95726 0.0
C2058 C 0.00956 0.49642 0.96163 0.0
C2059 C 0.00555 0.51412 0.94235 0.0
C2060 C 0.01046 0.49685 0.90537 0.0
H2061 H 0.97994 0.52639 0.84425 0.0
H2062 H 0.98913 0.52881 0.87041 0.0
H2063 H 0.01416 0.49326 0.88269 0.0
H2064 H 0.00899 0.46994 0.95403 0.0
H2065 H 0.00401 0.47288 0.92806 0.0
H2066 H 0.98094 0.5112 0.91837 0.0
C2067 C 0.98676 0.51621 0.86345 0.0
C2068 C 0.00682 0.4972 0.89037 0.0
C2069 C 0.98148 0.51481 0.84848 0.0
C2070 C 0.00814 0.4824 0.95091 0.0
C2071 C 0.00539 0.48415 0.93605 0.0
C2072 C 0.9885 0.50755 0.91071 0.0
C2073 C 0.989 0.50154 0.86936 0.0
C2074 C 0.99381 0.5025 0.88534 0.0
C2075 C 0.00411 0.50005 0.93157 0.0
C2076 C 0.00113 0.50173 0.91571 0.0
H2077 H 0.97805 0.47134 0.83817 0.0
H2078 H 0.98743 0.47389 0.8642 0.0
H2079 H 0.97464 0.51189 0.89213 0.0
H2080 H 0.0098 0.52357 0.96534 0.0
H2081 H 0.00485 0.52666 0.93925 0.0
C2082 C 0.51068 0.50147 0.84613 0.0
C2083 C 0.51858 0.4899 0.84262 0.0
C2084 C 0.50803 0.50492 0.86071 0.0
C2085 C 0.49248 0.49724 0.89076 0.0
H2086 H 0.531 0.50947 0.92226 0.0
C2087 C 0.47766 0.48788 0.95149 0.0
C2088 C 0.49062 0.50251 0.96206 0.0
C2089 C 0.48139 0.48824 0.93677 0.0
C2090 C 0.52018 0.50624 0.91357 0.0
H2091 H 0.53042 0.47338 0.85159 0.0
H2092 H 0.5258 0.4794 0.87704 0.0
H2093 H 0.53752 0.507 0.89674 0.0
H2094 H 0.51707 0.52955 0.96554 0.0
H2095 H 0.5239 0.52993 0.93982 0.0
H2096 H 0.47505 0.49619 0.90759 0.0
C2097 C 0.52166 0.4858 0.86854 0.0
C2098 C 0.52386 0.50468 0.89899 0.0
C2099 C 0.52413 0.48219 0.85398 0.0
C2100 C 0.50713 0.5178 0.95764 0.0
C2101 C 0.51097 0.51807 0.94294 0.0
C2102 C 0.48875 0.49863 0.90534 0.0
C2103 C 0.51344 0.49706 0.87205 0.0
C2104 C 0.50998 0.49998 0.88745 0.0
C2105 C 0.49818 0.50322 0.93238 0.0
C2106 C 0.5025 0.50296 0.9169 0.0
H2107 H 0.5062 0.50751 0.83758 0.0
H2108 H 0.50176 0.51374 0.86313 0.0
H2109 H 0.48149 0.49347 0.88209 0.0
H2110 H 0.46479 0.47595 0.95463 0.0
H2111 H 0.47135 0.47651 0.9289 0.0
C2112 C 0.53615 0.04426 0.861 0.0
C2113 C 0.52911 0.03149 0.84812 0.0
C2114 C 0.532 0.03719 0.87473 0.0
C2115 C 0.52845 0.0183 0.903 0.0
H2116 H 0.47764 0.97743 0.90681 0.0
C2117 C 0.50466 0.98809 0.95864 0.0
C2118 C 0.48716 0.98528 0.96196 0.0
C2119 C 0.51022 0.99182 0.94446 0.0
C2120 C 0.49187 0.9889 0.90595 0.0
H2121 H 0.5127 0.00127 0.83949 0.0
H2122 H 0.50565 0.98881 0.86351 0.0
H2123 H 0.48691 0.9881 0.88272 0.0
H2124 H 0.46155 0.98364 0.95319 0.0
H2125 H 0.47128 0.9904 0.92852 0.0
H2126 H 0.53311 0.01978 0.92635 0.0
C2127 C 0.51407 0.00435 0.863 0.0
C2128 C 0.49727 0.99484 0.89209 0.0
C2129 C 0.51811 0.01146 0.84925 0.0
C2130 C 0.4751 0.9857 0.95086 0.0
C2131 C 0.48065 0.98948 0.93671 0.0
C2132 C 0.52301 0.01244 0.91687 0.0
C2133 C 0.52081 0.01715 0.8759 0.0
C2134 C 0.51555 0.00981 0.89047 0.0
C2135 C 0.49835 0.99275 0.93337 0.0
C2136 C 0.50457 0.99787 0.91853 0.0
H2137 H 0.54446 0.0598 0.86044 0.0
H2138 H 0.53713 0.0475 0.8844 0.0
H2139 H 0.54272 0.02967 0.90212 0.0
H2140 H 0.51412 0.98761 0.96702 0.0
H2141 H 0.52383 0.994 0.94221 0.0
C2142 C 0.13251 0.30864 0.4806 0.0
C2143 C 0.14642 0.30742 0.48915 0.0
C2144 C 0.13566 0.31492 0.46653 0.0
C2145 C 0.17324 0.34118 0.44238 0.0
H2146 H 0.13446 0.31061 0.4108 0.0
C2147 C 0.18797 0.34603 0.38162 0.0
C2148 C 0.17446 0.34572 0.37152 0.0
C2149 C 0.18418 0.34244 0.39615 0.0
C2150 C 0.14533 0.31946 0.41952 0.0
H2151 H 0.17478 0.31253 0.48993 0.0
H2152 H 0.18021 0.32324 0.46536 0.0
H2153 H 0.12852 0.30301 0.4361 0.0
H2154 H 0.14659 0.34178 0.36861 0.0
H2155 H 0.13989 0.33544 0.39405 0.0
H2156 H 0.19013 0.35747 0.4258 0.0
C2157 C 0.1669 0.31944 0.46951 0.0
C2158 C 0.14192 0.31512 0.43401 0.0
C2159 C 0.16372 0.31311 0.48353 0.0
C2160 C 0.15713 0.34184 0.37617 0.0
C2161 C 0.15331 0.33821 0.39071 0.0
C2162 C 0.17664 0.34552 0.4279 0.0
C2163 C 0.15284 0.32021 0.46079 0.0
C2164 C 0.15593 0.32578 0.44557 0.0
C2165 C 0.16682 0.33851 0.40087 0.0
C2166 C 0.16281 0.33455 0.4163 0.0
H2167 H 0.119 0.30424 0.48462 0.0
H2168 H 0.12463 0.31554 0.4601 0.0
H2169 H 0.18419 0.34984 0.45108 0.0
H2170 H 0.20141 0.34891 0.37826 0.0
H2171 H 0.19476 0.34247 0.40366 0.0
C2172 C 0.70692 0.83673 0.48374 0.0
C2173 C 0.69507 0.83711 0.494 0.0
C2174 C 0.7016 0.83431 0.46871 0.0
C2175 C 0.66079 0.82053 0.4414 0.0
H2176 H 0.70011 0.84931 0.41631 0.0
C2177 C 0.64858 0.83481 0.38132 0.0
C2178 C 0.65811 0.83022 0.37102 0.0
C2179 C 0.65218 0.8343 0.39633 0.0
C2180 C 0.68902 0.8411 0.42319 0.0
H2181 H 0.66836 0.83508 0.49675 0.0
H2182 H 0.65928 0.83164 0.47047 0.0
H2183 H 0.70805 0.85101 0.44252 0.0
H2184 H 0.67907 0.82206 0.36828 0.0
H2185 H 0.68572 0.82148 0.39451 0.0
H2186 H 0.64174 0.81136 0.42193 0.0
C2187 C 0.67245 0.83262 0.47394 0.0
C2188 C 0.69354 0.84194 0.43821 0.0
C2189 C 0.67765 0.83468 0.489 0.0
C2190 C 0.67133 0.82524 0.37596 0.0
C2191 C 0.67522 0.82511 0.39096 0.0
C2192 C 0.65624 0.81999 0.42639 0.0
C2193 C 0.68447 0.83263 0.46358 0.0
C2194 C 0.67951 0.83158 0.44753 0.0
C2195 C 0.66569 0.82965 0.40127 0.0
C2196 C 0.67035 0.83019 0.41716 0.0
H2197 H 0.72035 0.83837 0.48738 0.0
H2198 H 0.71102 0.83386 0.46113 0.0
H2199 H 0.64963 0.81212 0.44815 0.0
H2200 H 0.63834 0.83877 0.37776 0.0
H2201 H 0.64477 0.83802 0.4041 0.0
C2202 C 0.13204 0.82192 0.48373 0.0
C2203 C 0.14561 0.83685 0.49388 0.0
C2204 C 0.13571 0.82041 0.46912 0.0
C2205 C 0.17438 0.83552 0.44528 0.0
H2206 H 0.13686 0.82738 0.41415 0.0
C2207 C 0.19208 0.85003 0.38575 0.0
C2208 C 0.17894 0.83731 0.37435 0.0
C2209 C 0.18757 0.84846 0.40028 0.0
C2210 C 0.14738 0.82937 0.4227 0.0
H2211 H 0.17366 0.86198 0.49656 0.0
H2212 H 0.18009 0.85921 0.47118 0.0
H2213 H 0.12979 0.82717 0.43971 0.0
H2214 H 0.15094 0.81272 0.3691 0.0
H2215 H 0.143 0.80989 0.39456 0.0
H2216 H 0.19202 0.83784 0.42833 0.0
C2217 C 0.1667 0.84852 0.47456 0.0
C2218 C 0.14333 0.82926 0.43734 0.0
C2219 C 0.16301 0.85008 0.48912 0.0
C2220 C 0.16125 0.82283 0.37771 0.0
C2221 C 0.15671 0.82126 0.39227 0.0
C2222 C 0.17841 0.83557 0.43066 0.0
C2223 C 0.15306 0.83374 0.46437 0.0
C2224 C 0.15688 0.83259 0.4488 0.0
C2225 C 0.16983 0.83408 0.40372 0.0
C2226 C 0.16506 0.83277 0.4192 0.0
H2227 H 0.11859 0.81132 0.48707 0.0
H2228 H 0.12501 0.80873 0.46156 0.0
H2229 H 0.18499 0.83779 0.45385 0.0
H2230 H 0.20579 0.86138 0.38344 0.0
H2231 H 0.1979 0.85877 0.4088 0.0
C2232 C 0.64637 0.81797 0.17717 0.0
C2233 C 0.64288 0.8319 0.17133 0.0
C2234 C 0.65189 0.81962 0.1921 0.0
C2235 C 0.65023 0.84156 0.22799 0.0
H2236 H 0.68756 0.82833 0.24076 0.0
C2237 C 0.67593 0.84821 0.28928 0.0
C2238 C 0.67761 0.83259 0.2938 0.0
C2239 C 0.67269 0.84954 0.27436 0.0
C2240 C 0.67701 0.83193 0.23737 0.0
H2241 H 0.64289 0.85875 0.17656 0.0
H2242 H 0.65251 0.86159 0.20268 0.0
H2243 H 0.68033 0.82827 0.21461 0.0
H2244 H 0.67751 0.80629 0.28642 0.0
H2245 H 0.6718 0.80852 0.2604 0.0
H2246 H 0.64677 0.84498 0.25078 0.0
C2247 C 0.65074 0.84927 0.19571 0.0
C2248 C 0.67287 0.8319 0.22239 0.0
C2249 C 0.64523 0.84763 0.18075 0.0
C2250 C 0.6763 0.8185 0.28319 0.0
C2251 C 0.67312 0.81984 0.2683 0.0
C2252 C 0.65437 0.84158 0.24299 0.0
C2253 C 0.65404 0.83522 0.20156 0.0
C2254 C 0.65927 0.83647 0.21751 0.0
C2255 C 0.67125 0.83536 0.2637 0.0
C2256 C 0.66764 0.83652 0.24784 0.0
H2257 H 0.64436 0.80548 0.17029 0.0
H2258 H 0.65401 0.80836 0.1963 0.0
H2259 H 0.63952 0.84493 0.22458 0.0
H2260 H 0.67738 0.85952 0.29725 0.0
H2261 H 0.67158 0.86181 0.27115 0.0
C2262 C 0.19974 0.83128 0.18764 0.0
C2263 C 0.18691 0.82965 0.17625 0.0
C2264 C 0.19724 0.8347 0.20222 0.0
C2265 C 0.16963 0.84871 0.22597 0.0
H2266 H 0.18324 0.82261 0.25446 0.0
C2267 C 0.14541 0.83626 0.285 0.0
C2268 C 0.15981 0.8418 0.29625 0.0
C2269 C 0.14916 0.83651 0.27026 0.0
C2270 C 0.1795 0.83008 0.24662 0.0
H2271 H 0.16162 0.83058 0.17093 0.0
H2272 H 0.15665 0.83574 0.19649 0.0
H2273 H 0.18883 0.81968 0.22889 0.0
H2274 H 0.1892 0.85179 0.30097 0.0
H2275 H 0.19578 0.85181 0.27527 0.0
H2276 H 0.15953 0.85831 0.24386 0.0
C2277 C 0.16899 0.83497 0.19424 0.0
C2278 C 0.18282 0.82855 0.23196 0.0
C2279 C 0.17174 0.83192 0.1796 0.0
C2280 C 0.17799 0.84769 0.29254 0.0
C2281 C 0.18168 0.84758 0.27785 0.0
C2282 C 0.166 0.84993 0.24063 0.0
C2283 C 0.18157 0.83611 0.20577 0.0
C2284 C 0.17805 0.83794 0.22142 0.0
C2285 C 0.16728 0.8419 0.26658 0.0
C2286 C 0.17102 0.84071 0.25107 0.0
H2287 H 0.21164 0.82973 0.18524 0.0
H2288 H 0.20753 0.83605 0.21072 0.0
H2289 H 0.166 0.85637 0.21825 0.0
H2290 H 0.13124 0.83162 0.28759 0.0
H2291 H 0.1378 0.83194 0.26175 0.0
C2292 C 0.17473 0.32657 0.17583 0.0
C2293 C 0.18641 0.34622 0.17361 0.0
C2294 C 0.1701 0.32107 0.18997 0.0
C2295 C 0.16502 0.3407 0.2252 0.0
H2296 H 0.17122 0.30093 0.24282 0.0
C2297 C 0.16744 0.33789 0.28689 0.0
C2298 C 0.15739 0.3199 0.29264 0.0
C2299 C 0.16996 0.33882 0.27201 0.0
C2300 C 0.16915 0.31185 0.23795 0.0
H2301 H 0.20236 0.37547 0.18441 0.0
H2302 H 0.1943 0.3659 0.20896 0.0
H2303 H 0.17736 0.30662 0.21707 0.0
H2304 H 0.14238 0.28871 0.28742 0.0
H2305 H 0.14662 0.29033 0.26103 0.0
H2306 H 0.15694 0.34613 0.24588 0.0
C2307 C 0.18876 0.35475 0.19982 0.0
C2308 C 0.17267 0.31511 0.22326 0.0
C2309 C 0.19352 0.3602 0.18578 0.0
C2310 C 0.15021 0.30276 0.28323 0.0
C2311 C 0.15269 0.30369 0.26819 0.0
C2312 C 0.16141 0.33739 0.23975 0.0
C2313 C 0.17684 0.33519 0.20203 0.0
C2314 C 0.17113 0.32995 0.21692 0.0
C2315 C 0.16228 0.32179 0.26241 0.0
C2316 C 0.16397 0.32335 0.24644 0.0
H2317 H 0.16915 0.31549 0.16663 0.0
H2318 H 0.16087 0.30589 0.19142 0.0
H2319 H 0.16332 0.35193 0.22046 0.0
H2320 H 0.17296 0.35137 0.29383 0.0
H2321 H 0.17776 0.35298 0.26797 0.0
C2322 C 0.82465 0.66274 0.82438 0.0
C2323 C 0.81076 0.64332 0.82517 0.0
C2324 C 0.8283 0.67043 0.81078 0.0
C2325 C 0.80792 0.66393 0.77299 0.0
H2326 H 0.85865 0.68523 0.76198 0.0
C2327 C 0.82387 0.66913 0.71277 0.0
C2328 C 0.84077 0.68438 0.70899 0.0
C2329 C 0.82031 0.66676 0.72745 0.0
C2330 C 0.84449 0.67974 0.76493 0.0
H2331 H 0.78933 0.61693 0.81264 0.0
H2332 H 0.79545 0.63047 0.78891 0.0
H2333 H 0.85196 0.67676 0.78702 0.0
H2334 H 0.86741 0.7092 0.71749 0.0
H2335 H 0.86109 0.70555 0.7433 0.0
H2336 H 0.80033 0.66685 0.75101 0.0
C2337 C 0.80359 0.63969 0.79874 0.0
C2338 C 0.84067 0.67484 0.77928 0.0
C2339 C 0.80018 0.63192 0.81227 0.0
C2340 C 0.85418 0.69734 0.72017 0.0
C2341 C 0.85058 0.69516 0.73492 0.0
C2342 C 0.81175 0.66907 0.75872 0.0
C2343 C 0.81784 0.65893 0.79785 0.0
C2344 C 0.82228 0.66645 0.78331 0.0
C2345 C 0.83361 0.67976 0.73875 0.0
C2346 C 0.83 0.67654 0.75439 0.0
H2347 H 0.83302 0.67176 0.83421 0.0
H2348 H 0.83934 0.68532 0.81034 0.0
H2349 H 0.79365 0.65769 0.77591 0.0
H2350 H 0.81375 0.65851 0.70443 0.0
H2351 H 0.80735 0.65435 0.72992 0.0
C2352 C 0.36975 0.16969 0.81811 0.0
C2353 C 0.35613 0.1633 0.8282 0.0
C2354 C 0.3645 0.16636 0.80305 0.0
C2355 C 0.32529 0.13768 0.77442 0.0
H2356 H 0.35419 0.18186 0.75253 0.0
C2357 C 0.30646 0.14329 0.71304 0.0
C2358 C 0.32169 0.15197 0.7045 0.0
C2359 C 0.3095 0.14254 0.72815 0.0
C2360 C 0.3461 0.1693 0.75844 0.0
H2361 H 0.32631 0.14774 0.83045 0.0
H2362 H 0.31706 0.14204 0.80397 0.0
H2363 H 0.36159 0.18445 0.77885 0.0
H2364 H 0.35192 0.16598 0.70485 0.0
H2365 H 0.35716 0.1643 0.73093 0.0
H2366 H 0.3097 0.12264 0.75381 0.0
C2367 C 0.33182 0.14951 0.80776 0.0
C2368 C 0.35036 0.17078 0.77354 0.0
C2369 C 0.3371 0.15278 0.8229 0.0
C2370 C 0.33989 0.15913 0.71114 0.0
C2371 C 0.34291 0.15835 0.72612 0.0
C2372 C 0.32098 0.13621 0.75922 0.0
C2373 C 0.34549 0.15665 0.79769 0.0
C2374 C 0.34021 0.15493 0.78169 0.0
C2375 C 0.32782 0.15053 0.73488 0.0
C2376 C 0.33155 0.15194 0.75106 0.0
H2377 H 0.38452 0.17746 0.82188 0.0
H2378 H 0.37539 0.17161 0.79558 0.0
H2379 H 0.31724 0.1252 0.78041 0.0
H2380 H 0.29229 0.13766 0.70817 0.0
H2381 H 0.29761 0.13646 0.73464 0.0
C2382 C 0.82857 0.18176 0.81974 0.0
C2383 C 0.81135 0.16801 0.82444 0.0
C2384 C 0.83256 0.18029 0.80525 0.0
C2385 C 0.80959 0.15993 0.76806 0.0
H2386 H 0.85927 0.17162 0.75916 0.0
C2387 C 0.82809 0.15407 0.70861 0.0
C2388 C 0.84529 0.16926 0.70508 0.0
C2389 C 0.82366 0.15252 0.72319 0.0
C2390 C 0.84537 0.16847 0.76147 0.0
H2391 H 0.78502 0.1416 0.81767 0.0
H2392 H 0.79197 0.13912 0.7923 0.0
H2393 H 0.85211 0.1712 0.78468 0.0
H2394 H 0.87142 0.19462 0.71387 0.0
H2395 H 0.8637 0.19203 0.7393 0.0
H2396 H 0.80293 0.1575 0.74485 0.0
C2397 C 0.80228 0.15115 0.79983 0.0
C2398 C 0.84126 0.16821 0.77608 0.0
C2399 C 0.79831 0.15259 0.81435 0.0
C2400 C 0.85808 0.18273 0.71633 0.0
C2401 C 0.85369 0.18118 0.73089 0.0
C2402 C 0.8137 0.16022 0.75343 0.0
C2403 C 0.8194 0.16507 0.7951 0.0
C2404 C 0.82339 0.16414 0.77955 0.0
C2405 C 0.83642 0.16607 0.7345 0.0
C2406 C 0.83171 0.16472 0.74998 0.0
H2407 H 0.8388 0.19402 0.82714 0.0
H2408 H 0.84576 0.19143 0.8019 0.0
H2409 H 0.79575 0.15698 0.77039 0.0
H2410 H 0.81806 0.14339 0.70012 0.0
H2411 H 0.81033 0.1406 0.72562 0.0
C2412 C 0.30358 0.14791 0.50941 0.0
C2413 C 0.30096 0.16267 0.50411 0.0
C2414 C 0.30794 0.14809 0.52437 0.0
C2415 C 0.30464 0.16699 0.56092 0.0
H2416 H 0.34283 0.1547 0.5731 0.0
C2417 C 0.33114 0.17324 0.62195 0.0
C2418 C 0.33488 0.1588 0.62621 0.0
C2419 C 0.32679 0.17406 0.60713 0.0
C2420 C 0.33196 0.15793 0.56988 0.0
H2421 H 0.30103 0.1893 0.51046 0.0
H2422 H 0.30849 0.18948 0.53667 0.0
H2423 H 0.33589 0.15572 0.5471 0.0
H2424 H 0.33665 0.13367 0.61852 0.0
H2425 H 0.3288 0.13486 0.5927 0.0
H2426 H 0.30057 0.16899 0.58372 0.0
C2427 C 0.30702 0.17771 0.52919 0.0
C2428 C 0.32803 0.15856 0.55498 0.0
C2429 C 0.30274 0.17759 0.51419 0.0
C2430 C 0.33395 0.14504 0.61549 0.0
C2431 C 0.32956 0.1458 0.6007 0.0
C2432 C 0.30853 0.16628 0.57585 0.0
C2433 C 0.3097 0.16297 0.53443 0.0
C2434 C 0.31425 0.16298 0.55032 0.0
C2435 C 0.32612 0.16044 0.59632 0.0
C2436 C 0.32215 0.16161 0.5805 0.0
H2437 H 0.30192 0.13596 0.50202 0.0
H2438 H 0.30961 0.13634 0.5281 0.0
H2439 H 0.29381 0.17024 0.55764 0.0
H2440 H 0.33193 0.18413 0.63002 0.0
H2441 H 0.32441 0.18563 0.60413 0.0
C2442 C 0.86832 0.16113 0.52049 0.0
C2443 C 0.8611 0.16682 0.50876 0.0
C2444 C 0.86543 0.16469 0.53493 0.0
C2445 C 0.86437 0.18164 0.56515 0.0
H2446 H 0.81366 0.16818 0.57225 0.0
C2447 C 0.84314 0.18857 0.62336 0.0
C2448 C 0.82665 0.17242 0.62692 0.0
C2449 C 0.84786 0.19018 0.60886 0.0
C2450 C 0.82788 0.172 0.57043 0.0
H2451 H 0.84558 0.18117 0.50301 0.0
H2452 H 0.84061 0.18754 0.52833 0.0
H2453 H 0.82172 0.16723 0.54709 0.0
H2454 H 0.80178 0.14565 0.6182 0.0
H2455 H 0.80993 0.14843 0.59285 0.0
H2456 H 0.87035 0.18576 0.58852 0.0
C2457 C 0.8484 0.18018 0.5263 0.0
C2458 C 0.83255 0.17167 0.55602 0.0
C2459 C 0.85139 0.17669 0.51183 0.0
C2460 C 0.8146 0.15823 0.61572 0.0
C2461 C 0.81924 0.15988 0.60121 0.0
C2462 C 0.85971 0.18204 0.57956 0.0
C2463 C 0.85519 0.17399 0.53799 0.0
C2464 C 0.85077 0.17617 0.55323 0.0
C2465 C 0.83601 0.17577 0.59765 0.0
C2466 C 0.84133 0.17691 0.58236 0.0
H2467 H 0.87605 0.1537 0.51847 0.0
H2468 H 0.87069 0.15958 0.54367 0.0
H2469 H 0.87856 0.18536 0.56333 0.0
H2470 H 0.85239 0.19995 0.63178 0.0
H2471 H 0.86073 0.20273 0.60642 0.0
C2472 C 0.84057 0.69438 0.5209 0.0
C2473 C 0.85689 0.6965 0.51525 0.0
C2474 C 0.83645 0.6887 0.535 0.0
C2475 C 0.84707 0.66518 0.56461 0.0
H2476 H 0.82851 0.69211 0.58891 0.0
C2477 C 0.83729 0.6554 0.62648 0.0
C2478 C 0.82097 0.65421 0.6313 0.0
C2479 C 0.84206 0.66014 0.61225 0.0
C2480 C 0.83351 0.68432 0.58221 0.0
H2481 H 0.88144 0.6938 0.51984 0.0
H2482 H 0.87438 0.68417 0.54463 0.0
H2483 H 0.83609 0.70108 0.56416 0.0
H2484 H 0.79644 0.65626 0.62508 0.0
H2485 H 0.80456 0.66425 0.60019 0.0
H2486 H 0.84447 0.64844 0.58277 0.0
C2487 C 0.86472 0.68679 0.53807 0.0
C2488 C 0.83783 0.68945 0.56803 0.0
C2489 C 0.86885 0.69248 0.52394 0.0
C2490 C 0.80916 0.65719 0.62161 0.0
C2491 C 0.8139 0.66194 0.60742 0.0
C2492 C 0.84275 0.66006 0.57884 0.0
C2493 C 0.84857 0.68504 0.5438 0.0
C2494 C 0.84449 0.67982 0.55901 0.0
C2495 C 0.8305 0.66369 0.60264 0.0
C2496 C 0.83575 0.66946 0.58773 0.0
H2497 H 0.83117 0.69756 0.51456 0.0
H2498 H 0.82376 0.68722 0.53902 0.0
H2499 H 0.85203 0.6574 0.55788 0.0
H2500 H 0.84634 0.65267 0.6337 0.0
H2501 H 0.85495 0.66141 0.60887 0.0
loop_
_geom_bond_atom_site_label_1
_geom_bond_atom_site_label_2
_geom_bond_distance
_geom_bond_site_symmetry_2
_ccdc_geom_bond_type
C0 C1 1.386 . S
C0 C2 1.397 . S
C0 H24 0.931 . S
C1 C0 1.386 . S
C1 C5 1.397 . S
C2 C0 1.397 . S
C2 C3 1.384 . S
C2 H25 0.930 . S
C3 C2 1.384 . S
C3 C4 1.377 . S
C3 C6 1.481 . S
C4 C3 1.377 . S
C4 C5 1.389 . S
C4 H26 0.929 . S
C5 C1 1.397 . S
C5 C4 1.389 . S
C5 H27 0.931 . S
C6 C3 1.481 . S
C6 C7 1.387 . S
C6 C11 1.390 . S
C7 C6 1.387 . S
C7 C8 1.401 . S
C7 H28 0.930 . S
C8 C7 1.401 . S
C8 C9 1.376 . S
C8 C17 1.511 . S
C9 C8 1.376 . S
C9 C10 1.392 . S
C9 H30 0.931 . S
C10 C9 1.392 . S
C10 C11 1.361 . S
C10 C12 1.500 . S
C11 C6 1.390 . S
C11 C10 1.361 . S
C11 H29 0.931 . S
C12 C10 1.500 . S
C12 C13 1.371 . S
C12 C14 1.365 . S
C13 C12 1.371 . S
C13 C23 1.386 . S
C13 H31 0.931 . S
C14 C12 1.365 . S
C14 C15 1.409 . S
C14 H32 0.929 . S
C15 C14 1.409 . S
C15 C16 1.380 . S
C15 H33 0.930 . S
C16 C15 1.380 . S
C16 C23 1.357 . S
C17 C8 1.511 . S
C17 C18 1.341 . S
C17 C19 1.371 . S
C18 C17 1.341 . S
C18 C22 1.394 . S
C18 H34 0.930 . S
C19 C17 1.371 . S
C19 C20 1.392 . S
C19 H35 0.931 . S
C20 C19 1.392 . S
C20 C21 1.331 . S
C20 H38 0.932 . S
C21 C20 1.331 . S
C21 C22 1.336 . S
C22 C18 1.394 . S
C22 C21 1.336 . S
C22 H37 0.929 . S
C23 C13 1.386 . S
C23 C16 1.357 . S
C23 H36 0.928 . S
H24 C0 0.931 . S
H25 C2 0.930 . S
H26 C4 0.929 . S
H27 C5 0.931 . S
H28 C7 0.930 . S
H29 C11 0.931 . S
H30 C9 0.931 . S
H31 C13 0.931 . S
H32 C14 0.929 . S
H33 C15 0.930 . S
H34 C18 0.930 . S
H35 C19 0.931 . S
H36 C23 0.928 . S
H37 C22 0.929 . S
H38 C20 0.932 . S
C39 C40 1.386 . S
C39 C41 1.397 . S
C39 H63 0.931 . S
C40 C39 1.386 . S
C40 C44 1.397 . S
C41 C39 1.397 . S
C41 C42 1.384 . S
C41 H64 0.930 . S
C42 C41 1.384 . S
C42 C43 1.377 . S
C42 C45 1.481 . S
C43 C42 1.377 . S
C43 C44 1.389 . S
C43 H65 0.929 . S
C44 C40 1.397 . S
C44 C43 1.389 . S
C44 H66 0.931 . S
C45 C42 1.481 . S
C45 C46 1.387 . S
C45 C50 1.390 . S
C46 C45 1.387 . S
C46 C47 1.401 . S
C46 H67 0.930 . S
C47 C46 1.401 . S
C47 C48 1.376 . S
C47 C56 1.511 . S
C48 C47 1.376 . S
C48 C49 1.392 . S
C48 H69 0.931 . S
C49 C48 1.392 . S
C49 C50 1.361 . S
C49 C51 1.500 . S
C50 C45 1.390 . S
C50 C49 1.361 . S
C50 H68 0.931 . S
C51 C49 1.500 . S
C51 C52 1.371 . S
C51 C53 1.365 . S
C52 C51 1.371 . S
C52 C62 1.386 . S
C52 H70 0.931 . S
C53 C51 1.365 . S
C53 C54 1.409 . S
C53 H71 0.929 . S
C54 C53 1.409 . S
C54 C55 1.380 . S
C54 H72 0.930 . S
C55 C54 1.380 . S
C55 C62 1.357 . S
C56 C47 1.511 . S
C56 C57 1.341 . S
C56 C58 1.371 . S
C57 C56 1.341 . S
C57 C61 1.394 . S
C57 H73 0.930 . S
C58 C56 1.371 . S
C58 C59 1.392 . S
C58 H74 0.931 . S
C59 C58 1.392 . S
C59 C60 1.331 . S
C59 H77 0.932 . S
C60 C59 1.331 . S
C60 C61 1.336 . S
C61 C57 1.394 . S
C61 C60 1.336 . S
C61 H76 0.929 . S
C62 C52 1.386 . S
C62 C55 1.357 . S
C62 H75 0.928 . S
H63 C39 0.931 . S
H64 C41 0.930 . S
H65 C43 0.929 . S
H66 C44 0.931 . S
H67 C46 0.930 . S
H68 C50 0.931 . S
H69 C48 0.931 . S
H70 C52 0.931 . S
H71 C53 0.929 . S
H72 C54 0.930 . S
H73 C57 0.930 . S
H74 C58 0.931 . S
H75 C62 0.928 . S
H76 C61 0.929 . S
H77 C59 0.932 . S
C78 C79 1.386 . S
C78 C80 1.397 . S
C78 H102 0.931 . S
C79 C78 1.386 . S
C79 C83 1.397 . S
C80 C78 1.397 . S
C80 C81 1.384 . S
C80 H103 0.930 . S
C81 C80 1.384 . S
C81 C82 1.377 . S
C81 C84 1.481 . S
C82 C81 1.377 . S
C82 C83 1.389 . S
C82 H104 0.929 . S
C83 C79 1.397 . S
C83 C82 1.389 . S
C83 H105 0.931 . S
C84 C81 1.481 . S
C84 C85 1.387 . S
C84 C89 1.390 . S
C85 C84 1.387 . S
C85 C86 1.401 . S
C85 H106 0.930 . S
C86 C85 1.401 . S
C86 C87 1.376 . S
C86 C95 1.511 . S
C87 C86 1.376 . S
C87 C88 1.392 . S
C87 H108 0.931 . S
C88 C87 1.392 . S
C88 C89 1.361 . S
C88 C90 1.500 . S
C89 C84 1.390 . S
C89 C88 1.361 . S
C89 H107 0.931 . S
C90 C88 1.500 . S
C90 C91 1.371 . S
C90 C92 1.365 . S
C91 C90 1.371 . S
C91 C101 1.386 . S
C91 H109 0.931 . S
C92 C90 1.365 . S
C92 C93 1.409 . S
C92 H110 0.929 . S
C93 C92 1.409 . S
C93 C94 1.380 . S
C93 H111 0.930 . S
C94 C93 1.380 . S
C94 C101 1.357 . S
C95 C86 1.511 . S
C95 C96 1.341 . S
C95 C97 1.371 . S
C96 C95 1.341 . S
C96 C100 1.394 . S
C96 H112 0.930 . S
C97 C95 1.371 . S
C97 C98 1.392 . S
C97 H113 0.931 . S
C98 C97 1.392 . S
C98 C99 1.331 . S
C98 H116 0.932 . S
C99 C98 1.331 . S
C99 C100 1.336 . S
C100 C96 1.394 . S
C100 C99 1.336 . S
C100 H115 0.929 . S
C101 C91 1.386 . S
C101 C94 1.357 . S
C101 H114 0.928 . S
H102 C78 0.931 . S
H103 C80 0.930 . S
H104 C82 0.929 . S
H105 C83 0.931 . S
H106 C85 0.930 . S
H107 C89 0.931 . S
H108 C87 0.931 . S
H109 C91 0.931 . S
H110 C92 0.929 . S
H111 C93 0.930 . S
H112 C96 0.930 . S
H113 C97 0.931 . S
H114 C101 0.928 . S
H115 C100 0.929 . S
H116 C98 0.932 . S
C117 C118 1.386 . S
C117 C119 1.397 . S
C117 H141 0.931 . S
C118 C117 1.386 . S
C118 C122 1.397 . S
C119 C117 1.397 . S
C119 C120 1.384 . S
C119 H142 0.930 . S
C120 C119 1.384 . S
C120 C121 1.377 . S
C120 C123 1.481 . S
C121 C120 1.377 . S
C121 C122 1.389 . S
C121 H143 0.929 . S
C122 C118 1.397 . S
C122 C121 1.389 . S
C122 H144 0.931 . S
C123 C120 1.481 . S
C123 C124 1.387 . S
C123 C128 1.390 . S
C124 C123 1.387 . S
C124 C125 1.401 . S
C124 H145 0.930 . S
C125 C124 1.401 . S
C125 C126 1.376 . S
C125 C134 1.511 . S
C126 C125 1.376 . S
C126 C127 1.392 . S
C126 H147 0.931 . S
C127 C126 1.392 . S
C127 C128 1.361 . S
C127 C129 1.500 . S
C128 C123 1.390 . S
C128 C127 1.361 . S
C128 H146 0.931 . S
C129 C127 1.500 . S
C129 C130 1.371 . S
C129 C131 1.365 . S
C130 C129 1.371 . S
C130 C140 1.386 . S
C130 H148 0.931 . S
C131 C129 1.365 . S
C131 C132 1.409 . S
C131 H149 0.929 . S
C132 C131 1.409 . S
C132 C133 1.380 . S
C132 H150 0.930 . S
C133 C132 1.380 . S
C133 C140 1.357 . S
C134 C125 1.511 . S
C134 C135 1.341 . S
C134 C136 1.371 . S
C135 C134 1.341 . S
C135 C139 1.394 . S
C135 H151 0.930 . S
C136 C134 1.371 . S
C136 C137 1.392 . S
C136 H152 0.931 . S
C137 C136 1.392 . S
C137 C138 1.331 . S
C137 H155 0.932 . S
C138 C137 1.331 . S
C138 C139 1.336 . S
C139 C135 1.394 . S
C139 C138 1.336 . S
C139 H154 0.929 . S
C140 C130 1.386 . S
C140 C133 1.357 . S
C140 H153 0.928 . S
H141 C117 0.931 . S
H142 C119 0.930 . S
H143 C121 0.929 . S
H144 C122 0.931 . S
H145 C124 0.930 . S
H146 C128 0.931 . S
H147 C126 0.931 . S
H148 C130 0.931 . S
H149 C131 0.929 . S
H150 C132 0.930 . S
H151 C135 0.930 . S
H152 C136 0.931 . S
H153 C140 0.928 . S
H154 C139 0.929 . S
H155 C137 0.932 . S
C156 C157 1.386 . S
C156 C158 1.397 . S
C156 H180 0.931 . S
C157 C156 1.386 . S
C157 C161 1.397 . S
C158 C156 1.397 . S
C158 C159 1.384 . S
C158 H181 0.930 . S
C159 C158 1.384 . S
C159 C160 1.377 . S
C159 C162 1.481 . S
C160 C159 1.377 . S
C160 C161 1.389 . S
C160 H182 0.929 . S
C161 C157 1.397 . S
C161 C160 1.389 . S
C161 H183 0.931 . S
C162 C159 1.481 . S
C162 C163 1.387 . S
C162 C167 1.390 . S
C163 C162 1.387 . S
C163 C164 1.401 . S
C163 H184 0.930 . S
C164 C163 1.401 . S
C164 C165 1.376 . S
C164 C173 1.511 . S
C165 C164 1.376 . S
C165 C166 1.392 . S
C165 H186 0.931 . S
C166 C165 1.392 . S
C166 C167 1.361 . S
C166 C168 1.500 . S
C167 C162 1.390 . S
C167 C166 1.361 . S
C167 H185 0.931 . S
C168 C166 1.500 . S
C168 C169 1.371 . S
C168 C170 1.365 . S
C169 C168 1.371 . S
C169 C179 1.386 . S
C169 H187 0.931 . S
C170 C168 1.365 . S
C170 C171 1.409 . S
C170 H188 0.929 . S
C171 C170 1.409 . S
C171 C172 1.380 . S
C171 H189 0.930 . S
C172 C171 1.380 . S
C172 C179 1.357 . S
C173 C164 1.511 . S
C173 C174 1.341 . S
C173 C175 1.371 . S
C174 C173 1.341 . S
C174 C178 1.394 . S
C174 H190 0.930 . S
C175 C173 1.371 . S
C175 C176 1.392 . S
C175 H191 0.931 . S
C176 C175 1.392 . S
C176 C177 1.331 . S
C176 H194 0.932 . S
C177 C176 1.331 . S
C177 C178 1.336 . S
C178 C174 1.394 . S
C178 C177 1.336 . S
C178 H193 0.929 . S
C179 C169 1.386 . S
C179 C172 1.357 . S
C179 H192 0.928 . S
H180 C156 0.931 . S
H181 C158 0.930 . S
H182 C160 0.929 . S
H183 C161 0.931 . S
H184 C163 0.930 . S
H185 C167 0.931 . S
H186 C165 0.931 . S
H187 C169 0.931 . S
H188 C170 0.929 . S
H189 C171 0.930 . S
H190 C174 0.930 . S
H191 C175 0.931 . S
H192 C179 0.928 . S
H193 C178 0.929 . S
H194 C176 0.932 . S
C195 C196 1.386 . S
C195 C197 1.397 . S
C195 H219 0.931 . S
C196 C195 1.386 . S
C196 C200 1.397 . S
C197 C195 1.397 . S
C197 C198 1.384 . S
C197 H220 0.930 . S
C198 C197 1.384 . S
C198 C199 1.377 . S
C198 C201 1.481 . S
C199 C198 1.377 . S
C199 C200 1.389 . S
C199 H221 0.929 . S
C200 C196 1.397 . S
C200 C199 1.389 . S
C200 H222 0.931 . S
C201 C198 1.481 . S
C201 C202 1.387 . S
C201 C206 1.390 . S
C202 C201 1.387 . S
C202 C203 1.401 . S
C202 H223 0.930 . S
C203 C202 1.401 . S
C203 C204 1.376 . S
C203 C212 1.511 . S
C204 C203 1.376 . S
C204 C205 1.392 . S
C204 H225 0.931 . S
C205 C204 1.392 . S
C205 C206 1.361 . S
C205 C207 1.500 . S
C206 C201 1.390 . S
C206 C205 1.361 . S
C206 H224 0.931 . S
C207 C205 1.500 . S
C207 C208 1.371 . S
C207 C209 1.365 . S
C208 C207 1.371 . S
C208 C218 1.386 . S
C208 H226 0.931 . S
C209 C207 1.365 . S
C209 C210 1.409 . S
C209 H227 0.929 . S
C210 C209 1.409 . S
C210 C211 1.380 . S
C210 H228 0.930 . S
C211 C210 1.380 . S
C211 C218 1.357 . S
C212 C203 1.511 . S
C212 C213 1.341 . S
C212 C214 1.371 . S
C213 C212 1.341 . S
C213 C217 1.394 . S
C213 H229 0.930 . S
C214 C212 1.371 . S
C214 C215 1.392 . S
C214 H230 0.931 . S
C215 C214 1.392 . S
C215 C216 1.331 . S
C215 H233 0.932 . S
C216 C215 1.331 . S
C216 C217 1.336 . S
C217 C213 1.394 . S
C217 C216 1.336 . S
C217 H232 0.929 . S
C218 C208 1.386 . S
C218 C211 1.357 . S
C218 H231 0.928 . S
H219 C195 0.931 . S
H220 C197 0.930 . S
H221 C199 0.929 . S
H222 C200 0.931 . S
H223 C202 0.930 . S
H224 C206 0.931 . S
H225 C204 0.931 . S
H226 C208 0.931 . S
H227 C209 0.929 . S
H228 C210 0.930 . S
H229 C213 0.930 . S
H230 C214 0.931 . S
H231 C218 0.928 . S
H232 C217 0.929 . S
H233 C215 0.932 . S
C234 C235 1.386 . S
C234 C236 1.397 . S
C234 H258 0.931 . S
C235 C234 1.386 . S
C235 C239 1.397 . S
C236 C234 1.397 . S
C236 C237 1.384 . S
C236 H259 0.930 . S
C237 C236 1.384 . S
C237 C238 1.377 . S
C237 C240 1.481 . S
C238 C237 1.377 . S
C238 C239 1.389 . S
C238 H260 0.929 . S
C239 C235 1.397 . S
C239 C238 1.389 . S
C239 H261 0.931 . S
C240 C237 1.481 . S
C240 C241 1.387 . S
C240 C245 1.390 . S
C241 C240 1.387 . S
C241 C242 1.401 . S
C241 H262 0.930 . S
C242 C241 1.401 . S
C242 C243 1.376 . S
C242 C251 1.511 . S
C243 C242 1.376 . S
C243 C244 1.392 . S
C243 H264 0.931 . S
C244 C243 1.392 . S
C244 C245 1.361 . S
C244 C246 1.500 . S
C245 C240 1.390 . S
C245 C244 1.361 . S
C245 H263 0.931 . S
C246 C244 1.500 . S
C246 C247 1.371 . S
C246 C248 1.365 . S
C247 C246 1.371 . S
C247 C257 1.386 . S
C247 H265 0.931 . S
C248 C246 1.365 . S
C248 C249 1.409 . S
C248 H266 0.929 . S
C249 C248 1.409 . S
C249 C250 1.380 . S
C249 H267 0.930 . S
C250 C249 1.380 . S
C250 C257 1.357 . S
C251 C242 1.511 . S
C251 C252 1.341 . S
C251 C253 1.371 . S
C252 C251 1.341 . S
C252 C256 1.394 . S
C252 H268 0.930 . S
C253 C251 1.371 . S
C253 C254 1.392 . S
C253 H269 0.931 . S
C254 C253 1.392 . S
C254 C255 1.331 . S
C254 H272 0.932 . S
C255 C254 1.331 . S
C255 C256 1.336 . S
C256 C252 1.394 . S
C256 C255 1.336 . S
C256 H271 0.929 . S
C257 C247 1.386 . S
C257 C250 1.357 . S
C257 H270 0.928 . S
H258 C234 0.931 . S
H259 C236 0.930 . S
H260 C238 0.929 . S
H261 C239 0.931 . S
H262 C241 0.930 . S
H263 C245 0.931 . S
H264 C243 0.931 . S
H265 C247 0.931 . S
H266 C248 0.929 . S
H267 C249 0.930 . S
H268 C252 0.930 . S
H269 C253 0.931 . S
H270 C257 0.928 . S
H271 C256 0.929 . S
H272 C254 0.932 . S
C273 C274 1.386 . S
C273 C275 1.397 . S
C273 H297 0.931 . S
C274 C273 1.386 . S
C274 C278 1.397 . S
C275 C273 1.397 . S
C275 C276 1.384 . S
C275 H298 0.930 . S
C276 C275 1.384 . S
C276 C277 1.377 . S
C276 C279 1.481 . S
C277 C276 1.377 . S
C277 C278 1.389 . S
C277 H299 0.929 . S
C278 C274 1.397 . S
C278 C277 1.389 . S
C278 H300 0.931 . S
C279 C276 1.481 . S
C279 C280 1.387 . S
C279 C284 1.390 . S
C280 C279 1.387 . S
C280 C281 1.401 . S
C280 H301 0.930 . S
C281 C280 1.401 . S
C281 C282 1.376 . S
C281 C290 1.511 . S
C282 C281 1.376 . S
C282 C283 1.392 . S
C282 H303 0.931 . S
C283 C282 1.392 . S
C283 C284 1.361 . S
C283 C285 1.500 . S
C284 C279 1.390 . S
C284 C283 1.361 . S
C284 H302 0.931 . S
C285 C283 1.500 . S
C285 C286 1.371 . S
C285 C287 1.365 . S
C286 C285 1.371 . S
C286 C296 1.386 . S
C286 H304 0.931 . S
C287 C285 1.365 . S
C287 C288 1.409 . S
C287 H305 0.929 . S
C288 C287 1.409 . S
C288 C289 1.380 . S
C288 H306 0.930 . S
C289 C288 1.380 . S
C289 C296 1.357 . S
C290 C281 1.511 . S
C290 C291 1.341 . S
C290 C292 1.371 . S
C291 C290 1.341 . S
C291 C295 1.394 . S
C291 H307 0.930 . S
C292 C290 1.371 . S
C292 C293 1.392 . S
C292 H308 0.931 . S
C293 C292 1.392 . S
C293 C294 1.331 . S
C293 H311 0.932 . S
C294 C293 1.331 . S
C294 C295 1.336 . S
C295 C291 1.394 . S
C295 C294 1.336 . S
C295 H310 0.929 . S
C296 C286 1.386 . S
C296 C289 1.357 . S
C296 H309 0.928 . S
H297 C273 0.931 . S
H298 C275 0.930 . S
H299 C277 0.929 . S
H300 C278 0.931 . S
H301 C280 0.930 . S
H302 C284 0.931 . S
H303 C282 0.931 . S
H304 C286 0.931 . S
H305 C287 0.929 . S
H306 C288 0.930 . S
H307 C291 0.930 . S
H308 C292 0.931 . S
H309 C296 0.928 . S
H310 C295 0.929 . S
H311 C293 0.932 . S
C312 C313 1.386 . S
C312 C314 1.397 . S
C312 H336 0.931 . S
C313 C312 1.386 . S
C313 C317 1.397 . S
C314 C312 1.397 . S
C314 C315 1.384 . S
C314 H337 0.930 . S
C315 C314 1.384 . S
C315 C316 1.377 . S
C315 C318 1.481 . S
C316 C315 1.377 . S
C316 C317 1.389 . S
C316 H338 0.929 . S
C317 C313 1.397 . S
C317 C316 1.389 . S
C317 H339 0.931 . S
C318 C315 1.481 . S
C318 C319 1.387 . S
C318 C323 1.390 . S
C319 C318 1.387 . S
C319 C320 1.401 . S
C319 H340 0.930 . S
C320 C319 1.401 . S
C320 C321 1.376 . S
C320 C329 1.511 . S
C321 C320 1.376 . S
C321 C322 1.392 . S
C321 H342 0.931 . S
C322 C321 1.392 . S
C322 C323 1.361 . S
C322 C324 1.500 . S
C323 C318 1.390 . S
C323 C322 1.361 . S
C323 H341 0.931 . S
C324 C322 1.500 . S
C324 C325 1.371 . S
C324 C326 1.365 . S
C325 C324 1.371 . S
C325 C335 1.386 . S
C325 H343 0.931 . S
C326 C324 1.365 . S
C326 C327 1.409 . S
C326 H344 0.929 . S
C327 C326 1.409 . S
C327 C328 1.380 . S
C327 H345 0.930 . S
C328 C327 1.380 . S
C328 C335 1.357 . S
C329 C320 1.511 . S
C329 C330 1.341 . S
C329 C331 1.371 . S
C330 C329 1.341 . S
C330 C334 1.394 . S
C330 H346 0.930 . S
C331 C329 1.371 . S
C331 C332 1.392 . S
C331 H347 0.931 . S
C332 C331 1.392 . S
C332 C333 1.331 . S
C332 H350 0.932 . S
C333 C332 1.331 . S
C333 C334 1.336 . S
C334 C330 1.394 . S
C334 C333 1.336 . S
C334 H349 0.929 . S
C335 C325 1.386 . S
C335 C328 1.357 . S
C335 H348 0.928 . S
H336 C312 0.931 . S
H337 C314 0.930 . S
H338 C316 0.929 . S
H339 C317 0.931 . S
H340 C319 0.930 . S
H341 C323 0.931 . S
H342 C321 0.931 . S
H343 C325 0.931 . S
H344 C326 0.929 . S
H345 C327 0.930 . S
H346 C330 0.930 . S
H347 C331 0.931 . S
H348 C335 0.928 . S
H349 C334 0.929 . S
H350 C332 0.932 . S
C351 C352 1.386 . S
C351 C353 1.397 . S
C351 H375 0.931 . S
C352 C351 1.386 . S
C352 C356 1.397 . S
C353 C351 1.397 . S
C353 C354 1.384 . S
C353 H376 0.930 . S
C354 C353 1.384 . S
C354 C355 1.377 . S
C354 C357 1.481 . S
C355 C354 1.377 . S
C355 C356 1.389 . S
C355 H377 0.929 . S
C356 C352 1.397 . S
C356 C355 1.389 . S
C356 H378 0.931 . S
C357 C354 1.481 . S
C357 C358 1.387 . S
C357 C362 1.390 . S
C358 C357 1.387 . S
C358 C359 1.401 . S
C358 H379 0.930 . S
C359 C358 1.401 . S
C359 C360 1.376 . S
C359 C368 1.511 . S
C360 C359 1.376 . S
C360 C361 1.392 . S
C360 H381 0.931 . S
C361 C360 1.392 . S
C361 C362 1.361 . S
C361 C363 1.500 . S
C362 C357 1.390 . S
C362 C361 1.361 . S
C362 H380 0.931 . S
C363 C361 1.500 . S
C363 C364 1.371 . S
C363 C365 1.365 . S
C364 C363 1.371 . S
C364 C374 1.386 . S
C364 H382 0.931 . S
C365 C363 1.365 . S
C365 C366 1.409 . S
C365 H383 0.929 . S
C366 C365 1.409 . S
C366 C367 1.380 . S
C366 H384 0.930 . S
C367 C366 1.380 . S
C367 C374 1.357 . S
C368 C359 1.511 . S
C368 C369 1.341 . S
C368 C370 1.371 . S
C369 C368 1.341 . S
C369 C373 1.394 . S
C369 H385 0.930 . S
C370 C368 1.371 . S
C370 C371 1.392 . S
C370 H386 0.931 . S
C371 C370 1.392 . S
C371 C372 1.331 . S
C371 H389 0.932 . S
C372 C371 1.331 . S
C372 C373 1.336 . S
C373 C369 1.394 . S
C373 C372 1.336 . S
C373 H388 0.929 . S
C374 C364 1.386 . S
C374 C367 1.357 . S
C374 H387 0.928 . S
H375 C351 0.931 . S
H376 C353 0.930 . S
H377 C355 0.929 . S
H378 C356 0.931 . S
H379 C358 0.930 . S
H380 C362 0.931 . S
H381 C360 0.931 . S
H382 C364 0.931 . S
H383 C365 0.929 . S
H384 C366 0.930 . S
H385 C369 0.930 . S
H386 C370 0.931 . S
H387 C374 0.928 . S
H388 C373 0.929 . S
H389 C371 0.932 . S
C390 C391 1.386 . S
C390 C392 1.397 . S
C390 H414 0.931 . S
C391 C390 1.386 . S
C391 C395 1.397 . S
C392 C390 1.397 . S
C392 C393 1.384 . S
C392 H415 0.930 . S
C393 C392 1.384 . S
C393 C394 1.377 . S
C393 C396 1.481 . S
C394 C393 1.377 . S
C394 C395 1.389 . S
C394 H416 0.929 . S
C395 C391 1.397 . S
C395 C394 1.389 . S
C395 H417 0.931 . S
C396 C393 1.481 . S
C396 C397 1.387 . S
C396 C401 1.390 . S
C397 C396 1.387 . S
C397 C398 1.401 . S
C397 H418 0.930 . S
C398 C397 1.401 . S
C398 C399 1.376 . S
C398 C407 1.511 . S
C399 C398 1.376 . S
C399 C400 1.392 . S
C399 H420 0.931 . S
C400 C399 1.392 . S
C400 C401 1.361 . S
C400 C402 1.500 . S
C401 C396 1.390 . S
C401 C400 1.361 . S
C401 H419 0.931 . S
C402 C400 1.500 . S
C402 C403 1.371 . S
C402 C404 1.365 . S
C403 C402 1.371 . S
C403 C413 1.386 . S
C403 H421 0.931 . S
C404 C402 1.365 . S
C404 C405 1.409 . S
C404 H422 0.929 . S
C405 C404 1.409 . S
C405 C406 1.380 . S
C405 H423 0.930 . S
C406 C405 1.380 . S
C406 C413 1.357 . S
C407 C398 1.511 . S
C407 C408 1.341 . S
C407 C409 1.371 . S
C408 C407 1.341 . S
C408 C412 1.394 . S
C408 H424 0.930 . S
C409 C407 1.371 . S
C409 C410 1.392 . S
C409 H425 0.931 . S
C410 C409 1.392 . S
C410 C411 1.331 . S
C410 H428 0.932 . S
C411 C410 1.331 . S
C411 C412 1.336 . S
C412 C408 1.394 . S
C412 C411 1.336 . S
C412 H427 0.929 . S
C413 C403 1.386 . S
C413 C406 1.357 . S
C413 H426 0.928 . S
H414 C390 0.931 . S
H415 C392 0.930 . S
H416 C394 0.929 . S
H417 C395 0.931 . S
H418 C397 0.930 . S
H419 C401 0.931 . S
H420 C399 0.931 . S
H421 C403 0.931 . S
H422 C404 0.929 . S
H423 C405 0.930 . S
H424 C408 0.930 . S
H425 C409 0.931 . S
H426 C413 0.928 . S
H427 C412 0.929 . S
H428 C410 0.932 . S
C429 C430 1.386 . S
C429 C431 1.397 . S
C429 H453 0.931 . S
C430 C429 1.386 . S
C430 C434 1.397 . S
C431 C429 1.397 . S
C431 C432 1.384 . S
C431 H454 0.930 . S
C432 C431 1.384 . S
C432 C433 1.377 . S
C432 C435 1.481 . S
C433 C432 1.377 . S
C433 C434 1.389 . S
C433 H455 0.929 . S
C434 C430 1.397 . S
C434 C433 1.389 . S
C434 H456 0.931 . S
C435 C432 1.481 . S
C435 C436 1.387 . S
C435 C440 1.390 . S
C436 C435 1.387 . S
C436 C437 1.401 . S
C436 H457 0.930 . S
C437 C436 1.401 . S
C437 C438 1.376 . S
C437 C446 1.511 . S
C438 C437 1.376 . S
C438 C439 1.392 . S
C438 H459 0.931 . S
C439 C438 1.392 . S
C439 C440 1.361 . S
C439 C441 1.500 . S
C440 C435 1.390 . S
C440 C439 1.361 . S
C440 H458 0.931 . S
C441 C439 1.500 . S
C441 C442 1.371 . S
C441 C443 1.365 . S
C442 C441 1.371 . S
C442 C452 1.386 . S
C442 H460 0.931 . S
C443 C441 1.365 . S
C443 C444 1.409 . S
C443 H461 0.929 . S
C444 C443 1.409 . S
C444 C445 1.380 . S
C444 H462 0.930 . S
C445 C444 1.380 . S
C445 C452 1.357 . S
C446 C437 1.511 . S
C446 C447 1.341 . S
C446 C448 1.371 . S
C447 C446 1.341 . S
C447 C451 1.394 . S
C447 H463 0.930 . S
C448 C446 1.371 . S
C448 C449 1.392 . S
C448 H464 0.931 . S
C449 C448 1.392 . S
C449 C450 1.331 . S
C449 H467 0.932 . S
C450 C449 1.331 . S
C450 C451 1.336 . S
C451 C447 1.394 . S
C451 C450 1.336 . S
C451 H466 0.929 . S
C452 C442 1.386 . S
C452 C445 1.357 . S
C452 H465 0.928 . S
H453 C429 0.931 . S
H454 C431 0.930 . S
H455 C433 0.929 . S
H456 C434 0.931 . S
H457 C436 0.930 . S
H458 C440 0.931 . S
H459 C438 0.931 . S
H460 C442 0.931 . S
H461 C443 0.929 . S
H462 C444 0.930 . S
H463 C447 0.930 . S
H464 C448 0.931 . S
H465 C452 0.928 . S
H466 C451 0.929 . S
H467 C449 0.932 . S
C468 C469 1.386 . S
C468 C470 1.397 . S
C468 H492 0.931 . S
C469 C468 1.386 . S
C469 C473 1.397 . S
C470 C468 1.397 . S
C470 C471 1.384 . S
C470 H493 0.930 . S
C471 C470 1.384 . S
C471 C472 1.377 . S
C471 C474 1.481 . S
C472 C471 1.377 . S
C472 C473 1.389 . S
C472 H494 0.929 . S
C473 C469 1.397 . S
C473 C472 1.389 . S
C473 H495 0.931 . S
C474 C471 1.481 . S
C474 C475 1.387 . S
C474 C479 1.390 . S
C475 C474 1.387 . S
C475 C476 1.401 . S
C475 H496 0.930 . S
C476 C475 1.401 . S
C476 C477 1.376 . S
C476 C485 1.511 . S
C477 C476 1.376 . S
C477 C478 1.392 . S
C477 H498 0.931 . S
C478 C477 1.392 . S
C478 C479 1.361 . S
C478 C480 1.500 . S
C479 C474 1.390 . S
C479 C478 1.361 . S
C479 H497 0.931 . S
C480 C478 1.500 . S
C480 C481 1.371 . S
C480 C482 1.365 . S
C481 C480 1.371 . S
C481 C491 1.386 . S
C481 H499 0.931 . S
C482 C480 1.365 . S
C482 C483 1.409 . S
C482 H500 0.929 . S
C483 C482 1.409 . S
C483 C484 1.380 . S
C483 H501 0.930 . S
C484 C483 1.380 . S
C484 C491 1.357 . S
C485 C476 1.511 . S
C485 C486 1.341 . S
C485 C487 1.371 . S
C486 C485 1.341 . S
C486 C490 1.394 . S
C486 H502 0.930 . S
C487 C485 1.371 . S
C487 C488 1.392 . S
C487 H503 0.931 . S
C488 C487 1.392 . S
C488 C489 1.331 . S
C488 H506 0.932 . S
C489 C488 1.331 . S
C489 C490 1.336 . S
C490 C486 1.394 . S
C490 C489 1.336 . S
C490 H505 0.929 . S
C491 C481 1.386 . S
C491 C484 1.357 . S
C491 H504 0.928 . S
H492 C468 0.931 . S
H493 C470 0.930 . S
H494 C472 0.929 . S
H495 C473 0.931 . S
H496 C475 0.930 . S
H497 C479 0.931 . S
H498 C477 0.931 . S
H499 C481 0.931 . S
H500 C482 0.929 . S
H501 C483 0.930 . S
H502 C486 0.930 . S
H503 C487 0.931 . S
H504 C491 0.928 . S
H505 C490 0.929 . S
H506 C488 0.932 . S
C507 C508 1.386 . S
C507 C509 1.397 . S
C507 H531 0.931 . S
C508 C507 1.386 . S
C508 C512 1.397 . S
C509 C507 1.397 . S
C509 C510 1.384 . S
C509 H532 0.930 . S
C510 C509 1.384 . S
C510 C511 1.377 . S
C510 C513 1.481 . S
C511 C510 1.377 . S
C511 C512 1.389 . S
C511 H533 0.929 . S
C512 C508 1.397 . S
C512 C511 1.389 . S
C512 H534 0.931 . S
C513 C510 1.481 . S
C513 C514 1.387 . S
C513 C518 1.390 . S
C514 C513 1.387 . S
C514 C515 1.401 . S
C514 H535 0.930 . S
C515 C514 1.401 . S
C515 C516 1.376 . S
C515 C524 1.511 . S
C516 C515 1.376 . S
C516 C517 1.392 . S
C516 H537 0.931 . S
C517 C516 1.392 . S
C517 C518 1.361 . S
C517 C519 1.500 . S
C518 C513 1.390 . S
C518 C517 1.361 . S
C518 H536 0.931 . S
C519 C517 1.500 . S
C519 C520 1.371 . S
C519 C521 1.365 . S
C520 C519 1.371 . S
C520 C530 1.386 . S
C520 H538 0.931 . S
C521 C519 1.365 . S
C521 C522 1.409 . S
C521 H539 0.929 . S
C522 C521 1.409 . S
C522 C523 1.380 . S
C522 H540 0.930 . S
C523 C522 1.380 . S
C523 C530 1.357 . S
C524 C515 1.511 . S
C524 C525 1.341 . S
C524 C526 1.371 . S
C525 C524 1.341 . S
C525 C529 1.394 . S
C525 H541 0.930 . S
C526 C524 1.371 . S
C526 C527 1.392 . S
C526 H542 0.931 . S
C527 C526 1.392 . S
C527 C528 1.331 . S
C527 H545 0.932 . S
C528 C527 1.331 . S
C528 C529 1.336 . S
C529 C525 1.394 . S
C529 C528 1.336 . S
C529 H544 0.929 . S
C530 C520 1.386 . S
C530 C523 1.357 . S
C530 H543 0.928 . S
H531 C507 0.931 . S
H532 C509 0.930 . S
H533 C511 0.929 . S
H534 C512 0.931 . S
H535 C514 0.930 . S
H536 C518 0.931 . S
H537 C516 0.931 . S
H538 C520 0.931 . S
H539 C521 0.929 . S
H540 C522 0.930 . S
H541 C525 0.930 . S
H542 C526 0.931 . S
H543 C530 0.928 . S
H544 C529 0.929 . S
H545 C527 0.932 . S
C546 C547 1.386 . S
C546 C548 1.397 . S
C546 H570 0.931 . S
C547 C546 1.386 . S
C547 C551 1.397 . S
C548 C546 1.397 . S
C548 C549 1.384 . S
C548 H571 0.930 . S
C549 C548 1.384 . S
C549 C550 1.377 . S
C549 C552 1.481 . S
C550 C549 1.377 . S
C550 C551 1.389 . S
C550 H572 0.929 . S
C551 C547 1.397 . S
C551 C550 1.389 . S
C551 H573 0.931 . S
C552 C549 1.481 . S
C552 C553 1.387 . S
C552 C557 1.390 . S
C553 C552 1.387 . S
C553 C554 1.401 . S
C553 H574 0.930 . S
C554 C553 1.401 . S
C554 C555 1.376 . S
C554 C563 1.511 . S
C555 C554 1.376 . S
C555 C556 1.392 . S
C555 H576 0.931 . S
C556 C555 1.392 . S
C556 C557 1.361 . S
C556 C558 1.500 . S
C557 C552 1.390 . S
C557 C556 1.361 . S
C557 H575 0.931 . S
C558 C556 1.500 . S
C558 C559 1.371 . S
C558 C560 1.365 . S
C559 C558 1.371 . S
C559 C569 1.386 . S
C559 H577 0.931 . S
C560 C558 1.365 . S
C560 C561 1.409 . S
C560 H578 0.929 . S
C561 C560 1.409 . S
C561 C562 1.380 . S
C561 H579 0.930 . S
C562 C561 1.380 . S
C562 C569 1.357 . S
C563 C554 1.511 . S
C563 C564 1.341 . S
C563 C565 1.371 . S
C564 C563 1.341 . S
C564 C568 1.394 . S
C564 H580 0.930 . S
C565 C563 1.371 . S
C565 C566 1.392 . S
C565 H581 0.931 . S
C566 C565 1.392 . S
C566 C567 1.331 . S
C566 H584 0.932 . S
C567 C566 1.331 . S
C567 C568 1.336 . S
C568 C564 1.394 . S
C568 C567 1.336 . S
C568 H583 0.929 . S
C569 C559 1.386 . S
C569 C562 1.357 . S
C569 H582 0.928 . S
H570 C546 0.931 . S
H571 C548 0.930 . S
H572 C550 0.929 . S
H573 C551 0.931 . S
H574 C553 0.930 . S
H575 C557 0.931 . S
H576 C555 0.931 . S
H577 C559 0.931 . S
H578 C560 0.929 . S
H579 C561 0.930 . S
H580 C564 0.930 . S
H581 C565 0.931 . S
H582 C569 0.928 . S
H583 C568 0.929 . S
H584 C566 0.932 . S
C585 C586 1.386 . S
C585 C587 1.397 . S
C585 H609 0.931 . S
C586 C585 1.386 . S
C586 C590 1.397 . S
C587 C585 1.397 . S
C587 C588 1.384 . S
C587 H610 0.930 . S
C588 C587 1.384 . S
C588 C589 1.377 . S
C588 C591 1.481 . S
C589 C588 1.377 . S
C589 C590 1.389 . S
C589 H611 0.929 . S
C590 C586 1.397 . S
C590 C589 1.389 . S
C590 H612 0.931 . S
C591 C588 1.481 . S
C591 C592 1.387 . S
C591 C596 1.390 . S
C592 C591 1.387 . S
C592 C593 1.401 . S
C592 H613 0.930 . S
C593 C592 1.401 . S
C593 C594 1.376 . S
C593 C602 1.511 . S
C594 C593 1.376 . S
C594 C595 1.392 . S
C594 H615 0.931 . S
C595 C594 1.392 . S
C595 C596 1.361 . S
C595 C597 1.500 . S
C596 C591 1.390 . S
C596 C595 1.361 . S
C596 H614 0.931 . S
C597 C595 1.500 . S
C597 C598 1.371 . S
C597 C599 1.365 . S
C598 C597 1.371 . S
C598 C608 1.386 . S
C598 H616 0.931 . S
C599 C597 1.365 . S
C599 C600 1.409 . S
C599 H617 0.929 . S
C600 C599 1.409 . S
C600 C601 1.380 . S
C600 H618 0.930 . S
C601 C600 1.380 . S
C601 C608 1.357 . S
C602 C593 1.511 . S
C602 C603 1.341 . S
C602 C604 1.371 . S
C603 C602 1.341 . S
C603 C607 1.394 . S
C603 H619 0.930 . S
C604 C602 1.371 . S
C604 C605 1.392 . S
C604 H620 0.931 . S
C605 C604 1.392 . S
C605 C606 1.331 . S
C605 H623 0.932 . S
C606 C605 1.331 . S
C606 C607 1.336 . S
C607 C603 1.394 . S
C607 C606 1.336 . S
C607 H622 0.929 . S
C608 C598 1.386 . S
C608 C601 1.357 . S
C608 H621 0.928 . S
H609 C585 0.931 . S
H610 C587 0.930 . S
H611 C589 0.929 . S
H612 C590 0.931 . S
H613 C592 0.930 . S
H614 C596 0.931 . S
H615 C594 0.931 . S
H616 C598 0.931 . S
H617 C599 0.929 . S
H618 C600 0.930 . S
H619 C603 0.930 . S
H620 C604 0.931 . S
H621 C608 0.928 . S
H622 C607 0.929 . S
H623 C605 0.932 . S
C624 C625 1.386 . S
C624 C626 1.397 . S
C624 H648 0.931 . S
C625 C624 1.386 . S
C625 C629 1.397 . S
C626 C624 1.397 . S
C626 C627 1.384 . S
C626 H649 0.930 . S
C627 C626 1.384 . S
C627 C628 1.377 . S
C627 C630 1.481 . S
C628 C627 1.377 . S
C628 C629 1.389 . S
C628 H650 0.929 . S
C629 C625 1.397 . S
C629 C628 1.389 . S
C629 H651 0.931 . S
C630 C627 1.481 . S
C630 C631 1.387 . S
C630 C635 1.390 . S
C631 C630 1.387 . S
C631 C632 1.401 . S
C631 H652 0.930 . S
C632 C631 1.401 . S
C632 C633 1.376 . S
C632 C641 1.511 . S
C633 C632 1.376 . S
C633 C634 1.392 . S
C633 H654 0.931 . S
C634 C633 1.392 . S
C634 C635 1.361 . S
C634 C636 1.500 . S
C635 C630 1.390 . S
C635 C634 1.361 . S
C635 H653 0.931 . S
C636 C634 1.500 . S
C636 C637 1.371 . S
C636 C638 1.365 . S
C637 C636 1.371 . S
C637 C647 1.386 . S
C637 H655 0.931 . S
C638 C636 1.365 . S
C638 C639 1.409 . S
C638 H656 0.929 . S
C639 C638 1.409 . S
C639 C640 1.380 . S
C639 H657 0.930 . S
C640 C639 1.380 . S
C640 C647 1.357 . S
C641 C632 1.511 . S
C641 C642 1.341 . S
C641 C643 1.371 . S
C642 C641 1.341 . S
C642 C646 1.394 . S
C642 H658 0.930 . S
C643 C641 1.371 . S
C643 C644 1.392 . S
C643 H659 0.931 . S
C644 C643 1.392 . S
C644 C645 1.331 . S
C644 H662 0.932 . S
C645 C644 1.331 . S
C645 C646 1.336 . S
C646 C642 1.394 . S
C646 C645 1.336 . S
C646 H661 0.929 . S
C647 C637 1.386 . S
C647 C640 1.357 . S
C647 H660 0.928 . S
H648 C624 0.931 . S
H649 C626 0.930 . S
H650 C628 0.929 . S
H651 C629 0.931 . S
H652 C631 0.930 . S
H653 C635 0.931 . S
H654 C633 0.931 . S
H655 C637 0.931 . S
H656 C638 0.929 . S
H657 C639 0.930 . S
H658 C642 0.930 . S
H659 C643 0.931 . S
H660 C647 0.928 . S
H661 C646 0.929 . S
H662 C644 0.932 . S
C663 C664 1.386 . S
C663 C665 1.397 . S
C663 H687 0.931 . S
C664 C663 1.386 . S
C664 C668 1.397 . S
C665 C663 1.397 . S
C665 C666 1.384 . S
C665 H688 0.930 . S
C666 C665 1.384 . S
C666 C667 1.377 . S
C666 C669 1.481 . S
C667 C666 1.377 . S
C667 C668 1.389 . S
C667 H689 0.929 . S
C668 C664 1.397 . S
C668 C667 1.389 . S
C668 H690 0.931 . S
C669 C666 1.481 . S
C669 C670 1.387 . S
C669 C674 1.390 . S
C670 C669 1.387 . S
C670 C671 1.401 . S
C670 H691 0.930 . S
C671 C670 1.401 . S
C671 C672 1.376 . S
C671 C680 1.511 . S
C672 C671 1.376 . S
C672 C673 1.392 . S
C672 H693 0.931 . S
C673 C672 1.392 . S
C673 C674 1.361 . S
C673 C675 1.500 . S
C674 C669 1.390 . S
C674 C673 1.361 . S
C674 H692 0.931 . S
C675 C673 1.500 . S
C675 C676 1.371 . S
C675 C677 1.365 . S
C676 C675 1.371 . S
C676 C686 1.386 . S
C676 H694 0.931 . S
C677 C675 1.365 . S
C677 C678 1.409 . S
C677 H695 0.929 . S
C678 C677 1.409 . S
C678 C679 1.380 . S
C678 H696 0.930 . S
C679 C678 1.380 . S
C679 C686 1.357 . S
C680 C671 1.511 . S
C680 C681 1.341 . S
C680 C682 1.371 . S
C681 C680 1.341 . S
C681 C685 1.394 . S
C681 H697 0.930 . S
C682 C680 1.371 . S
C682 C683 1.392 . S
C682 H698 0.931 . S
C683 C682 1.392 . S
C683 C684 1.331 . S
C683 H701 0.932 . S
C684 C683 1.331 . S
C684 C685 1.336 . S
C685 C681 1.394 . S
C685 C684 1.336 . S
C685 H700 0.929 . S
C686 C676 1.386 . S
C686 C679 1.357 . S
C686 H699 0.928 . S
H687 C663 0.931 . S
H688 C665 0.930 . S
H689 C667 0.929 . S
H690 C668 0.931 . S
H691 C670 0.930 . S
H692 C674 0.931 . S
H693 C672 0.931 . S
H694 C676 0.931 . S
H695 C677 0.929 . S
H696 C678 0.930 . S
H697 C681 0.930 . S
H698 C682 0.931 . S
H699 C686 0.928 . S
H700 C685 0.929 . S
H701 C683 0.932 . S
Tb702 O705 2.453 . S
Tb702 O706 2.596 1_545 S
Tb702 O707 2.374 1_545 S
Tb702 O715 2.343 1_554 S
Tb702 O717 2.353 . S
Tb702 O719 2.427 1_554 S
Tb702 O720 2.513 1_554 S
C703 O707 1.251 . S
C703 O709 1.240 1_554 S
Tb704 O706 2.343 1_556 S
Tb704 O709 2.363 . S
Tb704 O712 2.427 1_556 S
Tb704 O713 2.513 1_556 S
Tb704 O714 2.453 . S
Tb704 O715 2.596 1_565 S
Tb704 O716 2.374 1_565 S
O705 Tb702 2.453 . S
O705 C721 1.245 . S
O706 Tb702 2.596 1_565 S
O706 Tb704 2.343 1_554 S
O706 C721 1.259 1_565 S
O707 Tb702 2.374 1_565 S
O707 C703 1.251 . S
C708 O712 1.275 . S
C708 O713 1.246 . S
O709 C703 1.240 1_556 S
O709 Tb704 2.363 . S
C710 O714 1.243 . S
C710 O715 1.260 1_565 S
C711 O716 1.250 . S
C711 O717 1.263 1_556 S
O712 Tb704 2.427 1_554 S
O712 C708 1.275 . S
O713 Tb704 2.513 1_554 S
O713 C708 1.246 . S
O714 Tb704 2.453 . S
O714 C710 1.243 . S
O715 Tb702 2.343 1_556 S
O715 Tb704 2.596 1_545 S
O715 C710 1.260 1_545 S
O716 Tb704 2.374 1_545 S
O716 C711 1.250 . S
O717 Tb702 2.353 . S
O717 C711 1.263 1_554 S
C718 O719 1.275 . S
C718 O720 1.246 . S
O719 Tb702 2.427 1_556 S
O719 C718 1.275 . S
O720 Tb702 2.513 1_556 S
O720 C718 1.246 . S
C721 O705 1.245 . S
C721 O706 1.259 1_545 S
Tb722 O725 2.453 . S
Tb722 O726 2.596 1_655 S
Tb722 O727 2.374 1_655 S
Tb722 O735 2.343 1_554 S
Tb722 O737 2.358 . S
Tb722 O739 2.427 1_554 S
Tb722 O740 2.513 1_554 S
C723 O727 1.251 . S
C723 O729 1.263 . S
Tb724 O726 2.343 1_556 S
Tb724 O729 2.353 1_556 S
Tb724 O732 2.427 1_556 S
Tb724 O733 2.513 1_556 S
Tb724 O734 2.453 . S
Tb724 O735 2.596 1_455 S
Tb724 O736 2.374 1_455 S
O725 Tb722 2.453 . S
O725 C741 1.245 1_655 S
O726 Tb722 2.596 1_455 S
O726 Tb724 2.343 1_554 S
O726 C741 1.259 . S
O727 Tb722 2.374 1_455 S
O727 C723 1.251 . S
C728 O732 1.275 . S
C728 O733 1.246 . S
O729 C723 1.263 . S
O729 Tb724 2.353 1_554 S
C730 O734 1.284 . S
C730 O735 1.245 1_455 S
C731 O736 1.250 . S
C731 O737 1.249 1_556 S
O732 Tb724 2.427 1_554 S
O732 C728 1.275 . S
O733 Tb724 2.513 1_554 S
O733 C728 1.246 . S
O734 Tb724 2.453 . S
O734 C730 1.284 . S
O735 Tb722 2.343 1_556 S
O735 Tb724 2.596 1_655 S
O735 C730 1.245 1_655 S
O736 Tb724 2.374 1_655 S
O736 C731 1.250 . S
O737 Tb722 2.358 . S
O737 C731 1.249 1_554 S
C738 O739 1.275 . S
C738 O740 1.246 . S
O739 Tb722 2.427 1_556 S
O739 C738 1.275 . S
O740 Tb722 2.513 1_556 S
O740 C738 1.246 . S
C741 O725 1.245 1_455 S
C741 O726 1.259 . S
Tb742 O745 2.453 . S
Tb742 O746 2.596 . S
Tb742 O747 2.374 . S
Tb742 O755 2.343 1_556 S
Tb742 O757 2.353 1_556 S
Tb742 O759 2.427 1_556 S
Tb742 O760 2.513 1_556 S
C743 O747 1.251 . S
C743 O749 1.263 1_556 S
Tb744 O746 2.343 1_554 S
Tb744 O749 2.353 . S
Tb744 O752 2.427 1_554 S
Tb744 O753 2.513 1_554 S
Tb744 O754 2.453 . S
Tb744 O755 2.596 . S
Tb744 O756 2.374 . S
O745 Tb742 2.453 . S
O745 C761 1.245 . S
O746 Tb742 2.596 . S
O746 Tb744 2.343 1_556 S
O746 C761 1.259 . S
O747 Tb742 2.374 . S
O747 C743 1.251 . S
C748 O752 1.275 . S
C748 O753 1.246 . S
O749 C743 1.263 1_554 S
O749 Tb744 2.353 . S
C750 O754 1.245 . S
C750 O755 1.259 . S
C751 O756 1.250 . S
C751 O757 1.263 . S
O752 Tb744 2.427 1_556 S
O752 C748 1.275 . S
O753 Tb744 2.513 1_556 S
O753 C748 1.246 . S
O754 Tb744 2.453 . S
O754 C750 1.245 . S
O755 Tb742 2.343 1_554 S
O755 Tb744 2.596 . S
O755 C750 1.259 . S
O756 Tb744 2.374 . S
O756 C751 1.250 . S
O757 Tb742 2.353 1_554 S
O757 C751 1.263 . S
C758 O759 1.275 . S
C758 O760 1.246 . S
O759 Tb742 2.427 1_554 S
O759 C758 1.275 . S
O760 Tb742 2.513 1_554 S
O760 C758 1.246 . S
C761 O745 1.245 . S
C761 O746 1.259 . S
Tb762 O765 2.453 . S
Tb762 O766 2.596 . S
Tb762 O767 2.374 . S
Tb762 O775 2.343 . S
Tb762 O777 2.353 . S
Tb762 O779 2.427 . S
Tb762 O780 2.513 . S
C763 O767 1.251 . S
C763 O769 1.263 . S
Tb764 O766 2.343 . S
Tb764 O769 2.353 . S
Tb764 O772 2.427 . S
Tb764 O773 2.513 . S
Tb764 O774 2.453 . S
Tb764 O775 2.596 . S
Tb764 O776 2.374 . S
O765 Tb762 2.453 . S
O765 C781 1.245 . S
O766 Tb762 2.596 . S
O766 Tb764 2.343 . S
O766 C781 1.259 . S
O767 Tb762 2.374 . S
O767 C763 1.251 . S
C768 O772 1.275 . S
C768 O773 1.246 . S
O769 C763 1.263 . S
O769 Tb764 2.353 . S
C770 O774 1.245 . S
C770 O775 1.259 . S
C771 O776 1.250 . S
C771 O777 1.263 . S
O772 Tb764 2.427 . S
O772 C768 1.275 . S
O773 Tb764 2.513 . S
O773 C768 1.246 . S
O774 Tb764 2.453 . S
O774 C770 1.245 . S
O775 Tb762 2.343 . S
O775 Tb764 2.596 . S
O775 C770 1.259 . S
O776 Tb764 2.374 . S
O776 C771 1.250 . S
O777 Tb762 2.353 . S
O777 C771 1.263 . S
C778 O779 1.275 . S
C778 O780 1.246 . S
O779 Tb762 2.427 . S
O779 C778 1.275 . S
O780 Tb762 2.513 . S
O780 C778 1.246 . S
C781 O765 1.245 . S
C781 O766 1.259 . S
Tb782 O785 2.453 . S
Tb782 O786 2.596 . S
Tb782 O787 2.374 . S
Tb782 O795 2.343 . S
Tb782 O797 2.353 . S
Tb782 O799 2.427 . S
Tb782 O800 2.513 . S
C783 O787 1.251 . S
C783 O789 1.263 . S
Tb784 O786 2.343 . S
Tb784 O789 2.353 . S
Tb784 O792 2.427 . S
Tb784 O793 2.513 . S
Tb784 O794 2.453 . S
Tb784 O795 2.596 . S
Tb784 O796 2.374 . S
O785 Tb782 2.453 . S
O785 C801 1.245 . S
O786 Tb782 2.596 . S
O786 Tb784 2.343 . S
O786 C801 1.259 . S
O787 Tb782 2.374 . S
O787 C783 1.251 . S
C788 O792 1.275 . S
C788 O793 1.246 . S
O789 C783 1.263 . S
O789 Tb784 2.353 . S
C790 O794 1.245 . S
C790 O795 1.259 . S
C791 O796 1.250 . S
C791 O797 1.263 . S
O792 Tb784 2.427 . S
O792 C788 1.275 . S
O793 Tb784 2.513 . S
O793 C788 1.246 . S
O794 Tb784 2.453 . S
O794 C790 1.245 . S
O795 Tb782 2.343 . S
O795 Tb784 2.596 . S
O795 C790 1.259 . S
O796 Tb784 2.374 . S
O796 C791 1.250 . S
O797 Tb782 2.353 . S
O797 C791 1.263 . S
C798 O799 1.275 . S
C798 O800 1.246 . S
O799 Tb782 2.427 . S
O799 C798 1.275 . S
O800 Tb782 2.513 . S
O800 C798 1.246 . S
C801 O785 1.245 . S
C801 O786 1.259 . S
Tb802 O805 2.453 . S
Tb802 O806 2.596 . S
Tb802 O807 2.374 . S
Tb802 O815 2.343 . S
Tb802 O817 2.353 . S
Tb802 O819 2.427 . S
Tb802 O820 2.513 . S
C803 O807 1.251 . S
C803 O809 1.263 . S
Tb804 O806 2.343 . S
Tb804 O809 2.353 . S
Tb804 O812 2.427 . S
Tb804 O813 2.513 . S
Tb804 O814 2.453 . S
Tb804 O815 2.596 . S
Tb804 O816 2.374 . S
O805 Tb802 2.453 . S
O805 C821 1.245 . S
O806 Tb802 2.596 . S
O806 Tb804 2.343 . S
O806 C821 1.259 . S
O807 Tb802 2.374 . S
O807 C803 1.251 . S
C808 O812 1.275 . S
C808 O813 1.246 . S
O809 C803 1.263 . S
O809 Tb804 2.353 . S
C810 O814 1.245 . S
C810 O815 1.259 . S
C811 O816 1.250 . S
C811 O817 1.263 . S
O812 Tb804 2.427 . S
O812 C808 1.275 . S
O813 Tb804 2.513 . S
O813 C808 1.246 . S
O814 Tb804 2.453 . S
O814 C810 1.245 . S
O815 Tb802 2.343 . S
O815 Tb804 2.596 . S
O815 C810 1.259 . S
O816 Tb804 2.374 . S
O816 C811 1.250 . S
O817 Tb802 2.353 . S
O817 C811 1.263 . S
C818 O819 1.275 . S
C818 O820 1.246 . S
O819 Tb802 2.427 . S
O819 C818 1.275 . S
O820 Tb802 2.513 . S
O820 C818 1.246 . S
C821 O805 1.245 . S
C821 O806 1.259 . S
Tb822 O825 2.453 . S
Tb822 O826 2.596 . S
Tb822 O827 2.374 . S
Tb822 O835 2.343 . S
Tb822 O837 2.353 . S
Tb822 O839 2.427 . S
Tb822 O840 2.513 . S
C823 O827 1.251 . S
C823 O829 1.263 . S
Tb824 O826 2.343 . S
Tb824 O829 2.353 . S
Tb824 O832 2.427 . S
Tb824 O833 2.513 . S
Tb824 O834 2.453 . S
Tb824 O835 2.596 . S
Tb824 O836 2.374 . S
O825 Tb822 2.453 . S
O825 C841 1.245 . S
O826 Tb822 2.596 . S
O826 Tb824 2.343 . S
O826 C841 1.259 . S
O827 Tb822 2.374 . S
O827 C823 1.251 . S
C828 O832 1.275 . S
C828 O833 1.246 . S
O829 C823 1.263 . S
O829 Tb824 2.353 . S
C830 O834 1.245 . S
C830 O835 1.259 . S
C831 O836 1.250 . S
C831 O837 1.263 . S
O832 Tb824 2.427 . S
O832 C828 1.275 . S
O833 Tb824 2.513 . S
O833 C828 1.246 . S
O834 Tb824 2.453 . S
O834 C830 1.245 . S
O835 Tb822 2.343 . S
O835 Tb824 2.596 . S
O835 C830 1.259 . S
O836 Tb824 2.374 . S
O836 C831 1.250 . S
O837 Tb822 2.353 . S
O837 C831 1.263 . S
C838 O839 1.275 . S
C838 O840 1.246 . S
O839 Tb822 2.427 . S
O839 C838 1.275 . S
O840 Tb822 2.513 . S
O840 C838 1.246 . S
C841 O825 1.245 . S
C841 O826 1.259 . S
Tb842 O845 2.453 . S
Tb842 O846 2.596 . S
Tb842 O847 2.374 . S
Tb842 O855 2.343 . S
Tb842 O857 2.353 . S
Tb842 O859 2.427 . S
Tb842 O860 2.513 . S
C843 O847 1.251 . S
C843 O849 1.263 . S
Tb844 O846 2.343 . S
Tb844 O849 2.353 . S
Tb844 O852 2.427 . S
Tb844 O853 2.513 . S
Tb844 O854 2.453 . S
Tb844 O855 2.596 . S
Tb844 O856 2.374 . S
O845 Tb842 2.453 . S
O845 C861 1.245 . S
O846 Tb842 2.596 . S
O846 Tb844 2.343 . S
O846 C861 1.259 . S
O847 Tb842 2.374 . S
O847 C843 1.251 . S
C848 O852 1.275 . S
C848 O853 1.246 . S
O849 C843 1.263 . S
O849 Tb844 2.353 . S
C850 O854 1.245 . S
C850 O855 1.259 . S
C851 O856 1.250 . S
C851 O857 1.263 . S
O852 Tb844 2.427 . S
O852 C848 1.275 . S
O853 Tb844 2.513 . S
O853 C848 1.246 . S
O854 Tb844 2.453 . S
O854 C850 1.245 . S
O855 Tb842 2.343 . S
O855 Tb844 2.596 . S
O855 C850 1.259 . S
O856 Tb844 2.374 . S
O856 C851 1.250 . S
O857 Tb842 2.353 . S
O857 C851 1.263 . S
C858 O859 1.275 . S
C858 O860 1.246 . S
O859 Tb842 2.427 . S
O859 C858 1.275 . S
O860 Tb842 2.513 . S
O860 C858 1.246 . S
C861 O845 1.245 . S
C861 O846 1.259 . S
Tb862 O865 2.453 . S
Tb862 O866 2.596 . S
Tb862 O867 2.374 . S
Tb862 O875 2.343 . S
Tb862 O877 2.353 . S
Tb862 O879 2.427 . S
Tb862 O880 2.513 . S
C863 O867 1.251 . S
C863 O869 1.263 . S
Tb864 O866 2.343 . S
Tb864 O869 2.353 . S
Tb864 O872 2.427 . S
Tb864 O873 2.513 . S
Tb864 O874 2.453 . S
Tb864 O875 2.596 . S
Tb864 O876 2.374 . S
O865 Tb862 2.453 . S
O865 C881 1.245 . S
O866 Tb862 2.596 . S
O866 Tb864 2.343 . S
O866 C881 1.259 . S
O867 Tb862 2.374 . S
O867 C863 1.251 . S
C868 O872 1.275 . S
C868 O873 1.246 . S
O869 C863 1.263 . S
O869 Tb864 2.353 . S
C870 O874 1.245 . S
C870 O875 1.259 . S
C871 O876 1.250 . S
C871 O877 1.263 . S
O872 Tb864 2.427 . S
O872 C868 1.275 . S
O873 Tb864 2.513 . S
O873 C868 1.246 . S
O874 Tb864 2.453 . S
O874 C870 1.245 . S
O875 Tb862 2.343 . S
O875 Tb864 2.596 . S
O875 C870 1.259 . S
O876 Tb864 2.374 . S
O876 C871 1.250 . S
O877 Tb862 2.353 . S
O877 C871 1.263 . S
C878 O879 1.275 . S
C878 O880 1.246 . S
O879 Tb862 2.427 . S
O879 C878 1.275 . S
O880 Tb862 2.513 . S
O880 C878 1.246 . S
C881 O865 1.245 . S
C881 O866 1.259 . S
C882 C883 1.349 . S
C882 C884 1.327 . S
C882 H907 0.950 . S
C883 C882 1.349 . S
C883 C899 1.349 . S
C884 C882 1.327 . S
C884 C903 1.429 . S
C884 H908 0.950 . S
C885 C902 1.574 . S
C885 C904 1.368 . S
C885 H909 0.949 . S
H886 C890 0.949 . S
C887 C888 1.349 . S
C887 C889 1.327 . S
C887 H910 0.950 . S
C888 C887 1.349 . S
C888 C900 1.349 . S
C889 C887 1.327 . S
C889 C905 1.429 . S
C889 H911 0.950 . S
C890 H886 0.949 . S
C890 C898 1.574 . S
C890 C906 1.368 . S
H891 C899 0.950 . S
H892 C897 0.950 . S
H893 C898 0.949 . S
H894 C900 0.950 . S
H895 C901 0.950 . S
H896 C902 0.949 . S
C897 H892 0.950 . S
C897 C899 1.327 . S
C897 C903 1.429 . S
C898 C890 1.574 . S
C898 H893 0.949 . S
C898 C904 1.368 . S
C899 C883 1.349 . S
C899 H891 0.950 . S
C899 C897 1.327 . S
C900 C888 1.349 . S
C900 H894 0.950 . S
C900 C901 1.327 . S
C901 H895 0.950 . S
C901 C900 1.327 . S
C901 C905 1.429 . S
C902 C885 1.574 . S
C902 H896 0.949 . S
C902 C906 1.368 . S
C903 C884 1.429 . S
C903 C897 1.429 . S
C903 C904 1.523 . S
C904 C885 1.368 . S
C904 C898 1.368 . S
C904 C903 1.523 . S
C905 C889 1.429 . S
C905 C901 1.429 . S
C905 C906 1.523 . S
C906 C890 1.368 . S
C906 C902 1.368 . S
C906 C905 1.523 . S
H907 C882 0.950 . S
H908 C884 0.950 . S
H909 C885 0.949 . S
H910 C887 0.950 . S
H911 C889 0.950 . S
C912 C913 1.349 . S
C912 C914 1.327 . S
C912 H937 0.950 . S
C913 C912 1.349 . S
C913 C929 1.349 . S
C914 C912 1.327 . S
C914 C933 1.429 . S
C914 H938 0.950 . S
C915 C932 1.574 . S
C915 C934 1.368 . S
C915 H939 0.949 . S
H916 C920 0.949 . S
C917 C918 1.349 . S
C917 C919 1.327 . S
C917 H940 0.950 . S
C918 C917 1.349 . S
C918 C930 1.349 . S
C919 C917 1.327 . S
C919 C935 1.429 . S
C919 H941 0.950 . S
C920 H916 0.949 . S
C920 C928 1.574 . S
C920 C936 1.368 . S
H921 C929 0.950 . S
H922 C927 0.950 . S
H923 C928 0.949 . S
H924 C930 0.950 . S
H925 C931 0.950 . S
H926 C932 0.949 . S
C927 H922 0.950 . S
C927 C929 1.327 . S
C927 C933 1.429 . S
C928 C920 1.574 . S
C928 H923 0.949 . S
C928 C934 1.368 . S
C929 C913 1.349 . S
C929 H921 0.950 . S
C929 C927 1.327 . S
C930 C918 1.349 . S
C930 H924 0.950 . S
C930 C931 1.327 . S
C931 H925 0.950 . S
C931 C930 1.327 . S
C931 C935 1.429 . S
C932 C915 1.574 . S
C932 H926 0.949 . S
C932 C936 1.368 . S
C933 C914 1.429 . S
C933 C927 1.429 . S
C933 C934 1.523 . S
C934 C915 1.368 . S
C934 C928 1.368 . S
C934 C933 1.523 . S
C935 C919 1.429 . S
C935 C931 1.429 . S
C935 C936 1.523 . S
C936 C920 1.368 . S
C936 C932 1.368 . S
C936 C935 1.523 . S
H937 C912 0.950 . S
H938 C914 0.950 . S
H939 C915 0.949 . S
H940 C917 0.950 . S
H941 C919 0.950 . S
C942 C943 1.349 . S
C942 C944 1.327 . S
C942 H967 0.950 . S
C943 C942 1.349 . S
C943 C959 1.349 . S
C944 C942 1.327 . S
C944 C963 1.429 . S
C944 H968 0.950 . S
C945 C962 1.574 . S
C945 C964 1.368 . S
C945 H969 0.949 . S
H946 C950 0.949 . S
C947 C948 1.349 . S
C947 C949 1.327 . S
C947 H970 0.950 . S
C948 C947 1.349 . S
C948 C960 1.349 . S
C949 C947 1.327 . S
C949 C965 1.429 . S
C949 H971 0.950 . S
C950 H946 0.949 . S
C950 C958 1.574 . S
C950 C966 1.368 . S
H951 C959 0.950 . S
H952 C957 0.950 . S
H953 C958 0.949 . S
H954 C960 0.899 1_556 S
H955 C961 0.950 . S
H956 C962 0.949 . S
C957 H952 0.950 . S
C957 C959 1.327 . S
C957 C963 1.429 . S
C958 C950 1.574 . S
C958 H953 0.949 . S
C958 C964 1.368 . S
C959 C943 1.349 . S
C959 H951 0.950 . S
C959 C957 1.327 . S
C960 C948 1.349 . S
C960 H954 0.899 1_554 S
C960 C961 1.327 . S
C961 H955 0.950 . S
C961 C960 1.327 . S
C961 C965 1.429 . S
C962 C945 1.574 . S
C962 H956 0.949 . S
C962 C966 1.368 . S
C963 C944 1.429 . S
C963 C957 1.429 . S
C963 C964 1.523 . S
C964 C945 1.368 . S
C964 C958 1.368 . S
C964 C963 1.523 . S
C965 C949 1.429 . S
C965 C961 1.429 . S
C965 C966 1.523 . S
C966 C950 1.368 . S
C966 C962 1.368 . S
C966 C965 1.523 . S
H967 C942 0.950 . S
H968 C944 0.950 . S
H969 C945 0.949 . S
H970 C947 0.950 . S
H971 C949 0.950 . S
C972 C973 1.349 . S
C972 C974 1.327 . S
C972 H997 0.950 . S
C973 C972 1.349 . S
C973 C989 1.349 . S
C974 C972 1.327 . S
C974 C993 1.429 . S
C974 H998 0.950 . S
C975 C992 1.574 . S
C975 C994 1.368 . S
C975 H999 0.949 . S
H976 C980 0.949 . S
C977 C978 1.349 . S
C977 C979 1.327 . S
C977 H1000 0.950 1_556 S
C978 C977 1.349 . S
C978 C990 1.349 . S
C979 C977 1.327 . S
C979 C995 1.429 . S
C979 H1001 0.950 . S
C980 H976 0.949 . S
C980 C988 1.574 . S
C980 C996 1.368 . S
H981 C989 0.950 . S
H982 C987 0.950 . S
H983 C988 0.949 . S
H984 C990 0.950 . S
H985 C991 0.950 . S
H986 C992 0.949 . S
C987 H982 0.950 . S
C987 C989 1.327 . S
C987 C993 1.429 . S
C988 C980 1.574 . S
C988 H983 0.949 . S
C988 C994 1.368 . S
C989 C973 1.349 . S
C989 H981 0.950 . S
C989 C987 1.327 . S
C990 C978 1.349 . S
C990 H984 0.950 . S
C990 C991 1.327 . S
C991 H985 0.950 . S
C991 C990 1.327 . S
C991 C995 1.429 . S
C992 C975 1.574 . S
C992 H986 0.949 . S
C992 C996 1.368 . S
C993 C974 1.429 . S
C993 C987 1.429 . S
C993 C994 1.523 . S
C994 C975 1.368 . S
C994 C988 1.368 . S
C994 C993 1.523 . S
C995 C979 1.429 . S
C995 C991 1.429 . S
C995 C996 1.523 . S
C996 C980 1.368 . S
C996 C992 1.368 . S
C996 C995 1.523 . S
H997 C972 0.950 . S
H998 C974 0.950 . S
H999 C975 0.949 . S
H1000 C977 0.950 1_554 S
H1001 C979 0.950 . S
C1002 C1003 1.349 . S
C1002 C1004 1.327 . S
C1002 H1027 0.950 . S
C1003 C1002 1.349 . S
C1003 C1019 1.349 . S
C1004 C1002 1.327 . S
C1004 C1023 1.429 . S
C1004 H1028 0.950 . S
C1005 C1022 1.574 . S
C1005 C1024 1.368 . S
C1005 H1029 0.949 . S
H1006 C1010 0.949 . S
C1007 C1008 1.349 . S
C1007 C1009 1.327 . S
C1007 H1030 0.950 . S
C1008 C1007 1.349 . S
C1008 C1020 1.349 . S
C1009 C1007 1.327 . S
C1009 C1025 1.429 . S
C1009 H1031 0.950 . S
C1010 H1006 0.949 . S
C1010 C1018 1.574 . S
C1010 C1026 1.368 . S
H1011 C1019 0.950 . S
H1012 C1017 0.950 . S
H1013 C1018 0.949 . S
H1014 C1020 0.950 . S
H1015 C1021 0.950 . S
H1016 C1022 0.949 . S
C1017 H1012 0.950 . S
C1017 C1019 1.327 . S
C1017 C1023 1.429 . S
C1018 C1010 1.574 . S
C1018 H1013 0.949 . S
C1018 C1024 1.368 . S
C1019 C1003 1.349 . S
C1019 H1011 0.950 . S
C1019 C1017 1.327 . S
C1020 C1008 1.349 . S
C1020 H1014 0.950 . S
C1020 C1021 1.327 . S
C1021 H1015 0.950 . S
C1021 C1020 1.327 . S
C1021 C1025 1.429 . S
C1022 C1005 1.574 . S
C1022 H1016 0.949 . S
C1022 C1026 1.368 . S
C1023 C1004 1.429 . S
C1023 C1017 1.429 . S
C1023 C1024 1.523 . S
C1024 C1005 1.368 . S
C1024 C1018 1.368 . S
C1024 C1023 1.523 . S
C1025 C1009 1.429 . S
C1025 C1021 1.429 . S
C1025 C1026 1.523 . S
C1026 C1010 1.368 . S
C1026 C1022 1.368 . S
C1026 C1025 1.523 . S
H1027 C1002 0.950 . S
H1028 C1004 0.950 . S
H1029 C1005 0.949 . S
H1030 C1007 0.950 . S
H1031 C1009 0.950 . S
C1032 C1033 1.349 . S
C1032 C1034 1.327 . S
C1032 H1057 0.950 . S
C1033 C1032 1.349 . S
C1033 C1049 1.349 . S
C1034 C1032 1.327 . S
C1034 C1053 1.429 . S
C1034 H1058 0.950 . S
C1035 C1052 1.574 . S
C1035 C1054 1.368 . S
C1035 H1059 0.949 . S
H1036 C1040 0.949 . S
C1037 C1038 1.349 . S
C1037 C1039 1.327 . S
C1037 H1060 0.950 . S
C1038 C1037 1.349 . S
C1038 C1050 1.349 . S
C1039 C1037 1.327 . S
C1039 C1055 1.429 . S
C1039 H1061 0.950 . S
C1040 H1036 0.949 . S
C1040 C1048 1.574 . S
C1040 C1056 1.368 . S
H1041 C1049 0.950 . S
H1042 C1047 0.950 . S
H1043 C1048 0.949 . S
H1044 C1050 0.950 1_554 S
H1045 C1051 0.950 . S
H1046 C1052 0.949 . S
C1047 H1042 0.950 . S
C1047 C1049 1.327 . S
C1047 C1053 1.429 . S
C1048 C1040 1.574 . S
C1048 H1043 0.949 . S
C1048 C1054 1.368 . S
C1049 C1033 1.349 . S
C1049 H1041 0.950 . S
C1049 C1047 1.327 . S
C1050 C1038 1.349 . S
C1050 H1044 0.950 1_556 S
C1050 C1051 1.327 . S
C1051 H1045 0.950 . S
C1051 C1050 1.327 . S
C1051 C1055 1.429 . S
C1052 C1035 1.574 . S
C1052 H1046 0.949 . S
C1052 C1056 1.368 . S
C1053 C1034 1.429 . S
C1053 C1047 1.429 . S
C1053 C1054 1.523 . S
C1054 C1035 1.368 . S
C1054 C1048 1.368 . S
C1054 C1053 1.523 . S
C1055 C1039 1.429 . S
C1055 C1051 1.429 . S
C1055 C1056 1.523 . S
C1056 C1040 1.368 . S
C1056 C1052 1.368 . S
C1056 C1055 1.523 . S
H1057 C1032 0.950 . S
H1058 C1034 0.950 . S
H1059 C1035 0.949 . S
H1060 C1037 0.950 . S
H1061 C1039 0.950 . S
C1062 C1063 1.349 . S
C1062 C1064 1.327 . S
C1062 H1087 0.950 . S
C1063 C1062 1.349 . S
C1063 C1079 1.349 . S
C1064 C1062 1.327 . S
C1064 C1083 1.429 . S
C1064 H1088 0.950 . S
C1065 C1082 1.574 . S
C1065 C1084 1.368 . S
C1065 H1089 0.949 . S
H1066 C1070 0.949 . S
C1067 C1068 1.349 . S
C1067 C1069 1.327 . S
C1067 H1090 0.950 . S
C1068 C1067 1.349 . S
C1068 C1080 1.349 . S
C1069 C1067 1.327 . S
C1069 C1085 1.429 . S
C1069 H1091 0.950 . S
C1070 H1066 0.949 . S
C1070 C1078 1.574 . S
C1070 C1086 1.368 . S
H1071 C1079 0.950 . S
H1072 C1077 0.950 . S
H1073 C1078 0.949 . S
H1074 C1080 0.950 . S
H1075 C1081 0.950 . S
H1076 C1082 0.949 . S
C1077 H1072 0.950 . S
C1077 C1079 1.327 . S
C1077 C1083 1.429 . S
C1078 C1070 1.574 . S
C1078 H1073 0.949 . S
C1078 C1084 1.368 . S
C1079 C1063 1.349 . S
C1079 H1071 0.950 . S
C1079 C1077 1.327 . S
C1080 C1068 1.349 . S
C1080 H1074 0.950 . S
C1080 C1081 1.327 . S
C1081 H1075 0.950 . S
C1081 C1080 1.327 . S
C1081 C1085 1.429 . S
C1082 C1065 1.574 . S
C1082 H1076 0.949 . S
C1082 C1086 1.368 . S
C1083 C1064 1.429 . S
C1083 C1077 1.429 . S
C1083 C1084 1.523 . S
C1084 C1065 1.368 . S
C1084 C1078 1.368 . S
C1084 C1083 1.523 . S
C1085 C1069 1.429 . S
C1085 C1081 1.429 . S
C1085 C1086 1.523 . S
C1086 C1070 1.368 . S
C1086 C1082 1.368 . S
C1086 C1085 1.523 . S
H1087 C1062 0.950 . S
H1088 C1064 0.950 . S
H1089 C1065 0.949 . S
H1090 C1067 0.950 . S
H1091 C1069 0.950 . S
C1092 C1093 1.349 . S
C1092 C1094 1.327 . S
C1092 H1117 0.950 . S
C1093 C1092 1.349 . S
C1093 C1109 1.349 . S
C1094 C1092 1.327 . S
C1094 C1113 1.429 . S
C1094 H1118 0.950 . S
C1095 C1112 1.574 . S
C1095 C1114 1.368 . S
C1095 H1119 0.949 . S
H1096 C1100 0.949 . S
C1097 C1098 1.349 . S
C1097 C1099 1.327 . S
C1097 H1120 0.950 . S
C1098 C1097 1.349 . S
C1098 C1110 1.349 . S
C1099 C1097 1.327 . S
C1099 C1115 1.429 . S
C1099 H1121 0.950 . S
C1100 H1096 0.949 . S
C1100 C1108 1.574 . S
C1100 C1116 1.368 . S
H1101 C1109 0.950 . S
H1102 C1107 0.950 . S
H1103 C1108 0.949 . S
H1104 C1110 0.950 . S
H1105 C1111 0.950 . S
H1106 C1112 0.949 . S
C1107 H1102 0.950 . S
C1107 C1109 1.327 . S
C1107 C1113 1.429 . S
C1108 C1100 1.574 . S
C1108 H1103 0.949 . S
C1108 C1114 1.368 . S
C1109 C1093 1.349 . S
C1109 H1101 0.950 . S
C1109 C1107 1.327 . S
C1110 C1098 1.349 . S
C1110 H1104 0.950 . S
C1110 C1111 1.327 . S
C1111 H1105 0.950 . S
C1111 C1110 1.327 . S
C1111 C1115 1.429 . S
C1112 C1095 1.574 . S
C1112 H1106 0.949 . S
C1112 C1116 1.368 . S
C1113 C1094 1.429 . S
C1113 C1107 1.429 . S
C1113 C1114 1.523 . S
C1114 C1095 1.368 . S
C1114 C1108 1.368 . S
C1114 C1113 1.523 . S
C1115 C1099 1.429 . S
C1115 C1111 1.429 . S
C1115 C1116 1.523 . S
C1116 C1100 1.368 . S
C1116 C1112 1.368 . S
C1116 C1115 1.523 . S
H1117 C1092 0.950 . S
H1118 C1094 0.950 . S
H1119 C1095 0.949 . S
H1120 C1097 0.950 . S
H1121 C1099 0.950 . S
C1122 C1123 1.349 . S
C1122 C1124 1.327 . S
C1122 H1147 0.950 . S
C1123 C1122 1.349 . S
C1123 C1139 1.349 . S
C1124 C1122 1.327 . S
C1124 C1143 1.429 . S
C1124 H1148 0.950 . S
C1125 C1142 1.574 . S
C1125 C1144 1.368 . S
C1125 H1149 0.949 . S
H1126 C1130 0.949 . S
C1127 C1128 1.349 . S
C1127 C1129 1.327 . S
C1127 H1150 0.950 . S
C1128 C1127 1.349 . S
C1128 C1140 1.349 . S
C1129 C1127 1.327 . S
C1129 C1145 1.429 . S
C1129 H1151 0.950 . S
C1130 H1126 0.949 . S
C1130 C1138 1.574 . S
C1130 C1146 1.368 . S
H1131 C1139 0.950 . S
H1132 C1137 0.950 . S
H1133 C1138 0.949 . S
H1134 C1140 0.950 . S
H1135 C1141 0.950 . S
H1136 C1142 0.949 . S
C1137 H1132 0.950 . S
C1137 C1139 1.327 . S
C1137 C1143 1.429 . S
C1138 C1130 1.574 . S
C1138 H1133 0.949 . S
C1138 C1144 1.368 . S
C1139 C1123 1.349 . S
C1139 H1131 0.950 . S
C1139 C1137 1.327 . S
C1140 C1128 1.349 . S
C1140 H1134 0.950 . S
C1140 C1141 1.327 . S
C1141 H1135 0.950 . S
C1141 C1140 1.327 . S
C1141 C1145 1.429 . S
C1142 C1125 1.574 . S
C1142 H1136 0.949 . S
C1142 C1146 1.368 . S
C1143 C1124 1.429 . S
C1143 C1137 1.429 . S
C1143 C1144 1.523 . S
C1144 C1125 1.368 . S
C1144 C1138 1.368 . S
C1144 C1143 1.523 . S
C1145 C1129 1.429 . S
C1145 C1141 1.429 . S
C1145 C1146 1.523 . S
C1146 C1130 1.368 . S
C1146 C1142 1.368 . S
C1146 C1145 1.523 . S
H1147 C1122 0.950 . S
H1148 C1124 0.950 . S
H1149 C1125 0.949 . S
H1150 C1127 0.950 . S
H1151 C1129 0.950 . S
C1152 C1153 1.349 . S
C1152 C1154 1.327 . S
C1152 H1177 0.950 . S
C1153 C1152 1.349 . S
C1153 C1169 1.349 . S
C1154 C1152 1.327 . S
C1154 C1173 1.429 . S
C1154 H1178 0.950 . S
C1155 C1172 1.574 . S
C1155 C1174 1.368 . S
C1155 H1179 0.949 . S
H1156 C1160 0.949 . S
C1157 C1158 1.349 . S
C1157 C1159 1.327 . S
C1157 H1180 0.950 . S
C1158 C1157 1.349 . S
C1158 C1170 1.349 . S
C1159 C1157 1.327 . S
C1159 C1175 1.429 . S
C1159 H1181 0.950 . S
C1160 H1156 0.949 . S
C1160 C1168 1.574 . S
C1160 C1176 1.368 . S
H1161 C1169 0.950 . S
H1162 C1167 0.950 . S
H1163 C1168 0.949 . S
H1164 C1170 0.950 . S
H1165 C1171 0.950 . S
H1166 C1172 0.949 . S
C1167 H1162 0.950 . S
C1167 C1169 1.327 . S
C1167 C1173 1.429 . S
C1168 C1160 1.574 . S
C1168 H1163 0.949 . S
C1168 C1174 1.368 . S
C1169 C1153 1.349 . S
C1169 H1161 0.950 . S
C1169 C1167 1.327 . S
C1170 C1158 1.349 . S
C1170 H1164 0.950 . S
C1170 C1171 1.327 . S
C1171 H1165 0.950 . S
C1171 C1170 1.327 . S
C1171 C1175 1.429 . S
C1172 C1155 1.574 . S
C1172 H1166 0.949 . S
C1172 C1176 1.368 . S
C1173 C1154 1.429 . S
C1173 C1167 1.429 . S
C1173 C1174 1.523 . S
C1174 C1155 1.368 . S
C1174 C1168 1.368 . S
C1174 C1173 1.523 . S
C1175 C1159 1.429 . S
C1175 C1171 1.429 . S
C1175 C1176 1.523 . S
C1176 C1160 1.368 . S
C1176 C1172 1.368 . S
C1176 C1175 1.523 . S
H1177 C1152 0.950 . S
H1178 C1154 0.950 . S
H1179 C1155 0.949 . S
H1180 C1157 0.950 . S
H1181 C1159 0.950 . S
C1182 C1183 1.349 . S
C1182 C1184 1.327 . S
C1182 H1207 0.950 . S
C1183 C1182 1.349 . S
C1183 C1199 1.349 . S
C1184 C1182 1.327 . S
C1184 C1203 1.429 . S
C1184 H1208 0.950 . S
C1185 C1202 1.574 . S
C1185 C1204 1.368 . S
C1185 H1209 0.949 . S
H1186 C1190 0.949 . S
C1187 C1188 1.349 . S
C1187 C1189 1.327 . S
C1187 H1210 0.950 . S
C1188 C1187 1.349 . S
C1188 C1200 1.349 . S
C1189 C1187 1.327 . S
C1189 C1205 1.429 . S
C1189 H1211 0.950 . S
C1190 H1186 0.949 . S
C1190 C1198 1.574 . S
C1190 C1206 1.368 . S
H1191 C1199 0.950 . S
H1192 C1197 0.950 . S
H1193 C1198 0.949 . S
H1194 C1200 0.950 . S
H1195 C1201 0.950 . S
H1196 C1202 0.949 . S
C1197 H1192 0.950 . S
C1197 C1199 1.327 . S
C1197 C1203 1.429 . S
C1198 C1190 1.574 . S
C1198 H1193 0.949 . S
C1198 C1204 1.368 . S
C1199 C1183 1.349 . S
C1199 H1191 0.950 . S
C1199 C1197 1.327 . S
C1200 C1188 1.349 . S
C1200 H1194 0.950 . S
C1200 C1201 1.327 . S
C1201 H1195 0.950 . S
C1201 C1200 1.327 . S
C1201 C1205 1.429 . S
C1202 C1185 1.574 . S
C1202 H1196 0.949 . S
C1202 C1206 1.368 . S
C1203 C1184 1.429 . S
C1203 C1197 1.429 . S
C1203 C1204 1.523 . S
C1204 C1185 1.368 . S
C1204 C1198 1.368 . S
C1204 C1203 1.523 . S
C1205 C1189 1.429 . S
C1205 C1201 1.429 . S
C1205 C1206 1.523 . S
C1206 C1190 1.368 . S
C1206 C1202 1.368 . S
C1206 C1205 1.523 . S
H1207 C1182 0.950 . S
H1208 C1184 0.950 . S
H1209 C1185 0.949 . S
H1210 C1187 0.950 . S
H1211 C1189 0.950 . S
C1212 C1213 1.349 . S
C1212 C1214 1.327 . S
C1212 H1237 0.950 . S
C1213 C1212 1.349 . S
C1213 C1229 1.349 . S
C1214 C1212 1.327 . S
C1214 C1233 1.429 . S
C1214 H1238 0.950 . S
C1215 C1232 1.574 . S
C1215 C1234 1.368 . S
C1215 H1239 0.949 . S
H1216 C1220 0.949 . S
C1217 C1218 1.349 . S
C1217 C1219 1.327 . S
C1217 H1240 0.950 1_554 S
C1218 C1217 1.349 . S
C1218 C1230 1.349 . S
C1219 C1217 1.327 . S
C1219 C1235 1.429 . S
C1219 H1241 0.950 . S
C1220 H1216 0.949 . S
C1220 C1228 1.574 . S
C1220 C1236 1.368 . S
H1221 C1229 0.950 . S
H1222 C1227 0.950 . S
H1223 C1228 0.949 . S
H1224 C1230 0.950 . S
H1225 C1231 0.950 . S
H1226 C1232 0.949 . S
C1227 H1222 0.950 . S
C1227 C1229 1.327 . S
C1227 C1233 1.429 . S
C1228 C1220 1.574 . S
C1228 H1223 0.949 . S
C1228 C1234 1.368 . S
C1229 C1213 1.349 . S
C1229 H1221 0.950 . S
C1229 C1227 1.327 . S
C1230 C1218 1.349 . S
C1230 H1224 0.950 . S
C1230 C1231 1.327 . S
C1231 H1225 0.950 . S
C1231 C1230 1.327 . S
C1231 C1235 1.429 . S
C1232 C1215 1.574 . S
C1232 H1226 0.949 . S
C1232 C1236 1.368 . S
C1233 C1214 1.429 . S
C1233 C1227 1.429 . S
C1233 C1234 1.523 . S
C1234 C1215 1.368 . S
C1234 C1228 1.368 . S
C1234 C1233 1.523 . S
C1235 C1219 1.429 . S
C1235 C1231 1.429 . S
C1235 C1236 1.523 . S
C1236 C1220 1.368 . S
C1236 C1232 1.368 . S
C1236 C1235 1.523 . S
H1237 C1212 0.950 . S
H1238 C1214 0.950 . S
H1239 C1215 0.949 . S
H1240 C1217 0.950 1_556 S
H1241 C1219 0.950 . S
C1242 C1243 1.349 . S
C1242 C1244 1.327 . S
C1242 H1267 0.950 . S
C1243 C1242 1.349 . S
C1243 C1259 1.349 . S
C1244 C1242 1.327 . S
C1244 C1263 1.429 . S
C1244 H1268 0.950 . S
C1245 C1262 1.574 . S
C1245 C1264 1.368 . S
C1245 H1269 0.889 1_455 S
H1246 C1250 0.949 . S
C1247 C1248 1.349 . S
C1247 C1249 1.327 . S
C1247 H1270 0.950 . S
C1248 C1247 1.349 . S
C1248 C1260 1.349 . S
C1249 C1247 1.327 . S
C1249 C1265 1.429 . S
C1249 H1271 0.950 . S
C1250 H1246 0.949 . S
C1250 C1258 1.574 . S
C1250 C1266 1.368 . S
H1251 C1259 0.950 . S
H1252 C1257 0.950 . S
H1253 C1258 0.949 . S
H1254 C1260 0.950 . S
H1255 C1261 0.950 . S
H1256 C1262 0.949 . S
C1257 H1252 0.950 . S
C1257 C1259 1.327 . S
C1257 C1263 1.429 . S
C1258 C1250 1.574 . S
C1258 H1253 0.949 . S
C1258 C1264 1.368 . S
C1259 C1243 1.349 . S
C1259 H1251 0.950 . S
C1259 C1257 1.327 . S
C1260 C1248 1.349 . S
C1260 H1254 0.950 . S
C1260 C1261 1.327 . S
C1261 H1255 0.950 . S
C1261 C1260 1.327 . S
C1261 C1265 1.429 . S
C1262 C1245 1.574 . S
C1262 H1256 0.949 . S
C1262 C1266 1.368 . S
C1263 C1244 1.429 . S
C1263 C1257 1.429 . S
C1263 C1264 1.523 1_655 S
C1264 C1245 1.368 . S
C1264 C1258 1.368 . S
C1264 C1263 1.523 1_455 S
C1265 C1249 1.429 . S
C1265 C1261 1.429 . S
C1265 C1266 1.523 . S
C1266 C1250 1.368 . S
C1266 C1262 1.368 . S
C1266 C1265 1.523 . S
H1267 C1242 0.950 . S
H1268 C1244 0.950 . S
H1269 C1245 0.889 1_655 S
H1270 C1247 0.950 . S
H1271 C1249 0.950 . S
C1272 C1273 1.349 . S
C1272 C1274 1.327 . S
C1272 H1297 0.950 . S
C1273 C1272 1.349 . S
C1273 C1289 1.349 . S
C1274 C1272 1.327 . S
C1274 C1293 1.429 . S
C1274 H1298 0.950 . S
C1275 C1292 1.574 . S
C1275 C1294 1.368 . S
C1275 H1299 0.949 . S
H1276 C1280 0.949 . S
C1277 C1278 1.349 . S
C1277 C1279 1.327 . S
C1277 H1300 0.950 . S
C1278 C1277 1.349 . S
C1278 C1290 1.349 . S
C1279 C1277 1.327 . S
C1279 C1295 1.429 . S
C1279 H1301 0.950 . S
C1280 H1276 0.949 . S
C1280 C1288 1.574 . S
C1280 C1296 1.368 . S
H1281 C1289 0.950 . S
H1282 C1287 0.950 . S
H1283 C1288 0.949 . S
H1284 C1290 0.950 . S
H1285 C1291 0.950 . S
H1286 C1292 0.949 . S
C1287 H1282 0.950 . S
C1287 C1289 1.327 . S
C1287 C1293 1.429 . S
C1288 C1280 1.574 . S
C1288 H1283 0.949 . S
C1288 C1294 1.368 . S
C1289 C1273 1.349 . S
C1289 H1281 0.950 . S
C1289 C1287 1.327 . S
C1290 C1278 1.349 . S
C1290 H1284 0.950 . S
C1290 C1291 1.327 . S
C1291 H1285 0.950 . S
C1291 C1290 1.327 . S
C1291 C1295 1.429 . S
C1292 C1275 1.574 . S
C1292 H1286 0.949 . S
C1292 C1296 1.368 . S
C1293 C1274 1.429 . S
C1293 C1287 1.429 . S
C1293 C1294 1.523 . S
C1294 C1275 1.368 . S
C1294 C1288 1.368 . S
C1294 C1293 1.523 . S
C1295 C1279 1.429 . S
C1295 C1291 1.429 . S
C1295 C1296 1.523 . S
C1296 C1280 1.368 . S
C1296 C1292 1.368 . S
C1296 C1295 1.523 . S
H1297 C1272 0.950 . S
H1298 C1274 0.950 . S
H1299 C1275 0.949 . S
H1300 C1277 0.950 . S
H1301 C1279 0.950 . S
C1302 C1303 1.349 . S
C1302 C1304 1.327 . S
C1302 H1327 0.950 . S
C1303 C1302 1.349 . S
C1303 C1319 1.349 . S
C1304 C1302 1.327 . S
C1304 C1323 1.429 . S
C1304 H1328 0.950 . S
C1305 C1322 1.574 . S
C1305 C1324 1.368 . S
C1305 H1329 0.949 . S
H1306 C1310 0.949 . S
C1307 C1308 1.349 . S
C1307 C1309 1.327 . S
C1307 H1330 0.950 . S
C1308 C1307 1.349 . S
C1308 C1320 1.349 . S
C1309 C1307 1.327 . S
C1309 C1325 1.429 . S
C1309 H1331 0.950 . S
C1310 H1306 0.949 . S
C1310 C1318 1.574 . S
C1310 C1326 1.368 . S
H1311 C1319 0.950 . S
H1312 C1317 0.950 . S
H1313 C1318 0.949 . S
H1314 C1320 0.950 . S
H1315 C1321 0.950 . S
H1316 C1322 0.949 . S
C1317 H1312 0.950 . S
C1317 C1319 1.327 . S
C1317 C1323 1.429 . S
C1318 C1310 1.574 . S
C1318 H1313 0.949 . S
C1318 C1324 1.368 . S
C1319 C1303 1.349 . S
C1319 H1311 0.950 . S
C1319 C1317 1.327 . S
C1320 C1308 1.349 . S
C1320 H1314 0.950 . S
C1320 C1321 1.327 . S
C1321 H1315 0.950 . S
C1321 C1320 1.327 . S
C1321 C1325 1.429 . S
C1322 C1305 1.574 . S
C1322 H1316 0.949 . S
C1322 C1326 1.368 . S
C1323 C1304 1.429 . S
C1323 C1317 1.429 . S
C1323 C1324 1.523 1_545 S
C1324 C1305 1.368 . S
C1324 C1318 1.368 . S
C1324 C1323 1.523 1_565 S
C1325 C1309 1.429 . S
C1325 C1321 1.429 . S
C1325 C1326 1.523 . S
C1326 C1310 1.368 . S
C1326 C1322 1.368 . S
C1326 C1325 1.523 . S
H1327 C1302 0.950 . S
H1328 C1304 0.950 . S
H1329 C1305 0.949 . S
H1330 C1307 0.950 . S
H1331 C1309 0.950 . S
C1332 C1333 1.349 . S
C1332 C1334 1.327 . S
C1332 H1357 0.950 . S
C1333 C1332 1.349 . S
C1333 C1349 1.349 . S
C1334 C1332 1.327 . S
C1334 C1353 1.429 . S
C1334 H1358 0.950 . S
C1335 C1352 1.574 . S
C1335 C1354 1.368 . S
C1335 H1359 0.949 . S
H1336 C1340 0.949 . S
C1337 C1338 1.349 . S
C1337 C1339 1.327 . S
C1337 H1360 0.950 . S
C1338 C1337 1.349 . S
C1338 C1350 1.349 . S
C1339 C1337 1.327 . S
C1339 C1355 1.429 . S
C1339 H1361 0.950 . S
C1340 H1336 0.949 . S
C1340 C1348 1.574 . S
C1340 C1356 1.368 . S
H1341 C1349 0.950 . S
H1342 C1347 0.950 . S
H1343 C1348 0.949 . S
H1344 C1350 0.950 . S
H1345 C1351 0.950 . S
H1346 C1352 0.949 . S
C1347 H1342 0.950 . S
C1347 C1349 1.327 . S
C1347 C1353 1.429 . S
C1348 C1340 1.574 . S
C1348 H1343 0.949 . S
C1348 C1354 1.368 . S
C1349 C1333 1.349 . S
C1349 H1341 0.950 . S
C1349 C1347 1.327 . S
C1350 C1338 1.349 . S
C1350 H1344 0.950 . S
C1350 C1351 1.327 . S
C1351 H1345 0.950 . S
C1351 C1350 1.327 . S
C1351 C1355 1.429 . S
C1352 C1335 1.574 . S
C1352 H1346 0.949 . S
C1352 C1356 1.368 . S
C1353 C1334 1.429 . S
C1353 C1347 1.429 . S
C1353 C1354 1.523 . S
C1354 C1335 1.368 . S
C1354 C1348 1.368 . S
C1354 C1353 1.523 . S
C1355 C1339 1.429 . S
C1355 C1351 1.429 . S
C1355 C1356 1.523 . S
C1356 C1340 1.368 . S
C1356 C1352 1.368 . S
C1356 C1355 1.523 . S
H1357 C1332 0.950 . S
H1358 C1334 0.950 . S
H1359 C1335 0.949 . S
H1360 C1337 0.950 . S
H1361 C1339 0.950 . S
C1362 C1363 1.349 . S
C1362 C1364 1.327 . S
C1362 H1387 0.950 . S
C1363 C1362 1.349 . S
C1363 C1379 1.349 . S
C1364 C1362 1.327 . S
C1364 C1383 1.429 . S
C1364 H1388 0.950 . S
C1365 C1382 1.574 . S
C1365 C1384 1.368 . S
C1365 H1389 0.949 . S
H1366 C1370 0.949 . S
C1367 C1368 1.349 . S
C1367 C1369 1.327 . S
C1367 H1390 0.950 . S
C1368 C1367 1.349 . S
C1368 C1380 1.349 . S
C1369 C1367 1.327 . S
C1369 C1385 1.429 . S
C1369 H1391 0.950 . S
C1370 H1366 0.949 . S
C1370 C1378 1.574 . S
C1370 C1386 1.368 . S
H1371 C1379 0.950 . S
H1372 C1377 0.950 . S
H1373 C1378 0.949 . S
H1374 C1380 0.950 . S
H1375 C1381 0.950 . S
H1376 C1382 0.949 . S
C1377 H1372 0.950 . S
C1377 C1379 1.327 . S
C1377 C1383 1.429 . S
C1378 C1370 1.574 . S
C1378 H1373 0.949 . S
C1378 C1384 1.368 . S
C1379 C1363 1.349 . S
C1379 H1371 0.950 . S
C1379 C1377 1.327 . S
C1380 C1368 1.349 . S
C1380 H1374 0.950 . S
C1380 C1381 1.327 . S
C1381 H1375 0.950 . S
C1381 C1380 1.327 . S
C1381 C1385 1.429 . S
C1382 C1365 1.574 . S
C1382 H1376 0.949 . S
C1382 C1386 1.368 . S
C1383 C1364 1.429 . S
C1383 C1377 1.429 . S
C1383 C1384 1.523 . S
C1384 C1365 1.368 . S
C1384 C1378 1.368 . S
C1384 C1383 1.523 . S
C1385 C1369 1.429 . S
C1385 C1381 1.429 . S
C1385 C1386 1.523 . S
C1386 C1370 1.368 . S
C1386 C1382 1.368 . S
C1386 C1385 1.523 . S
H1387 C1362 0.950 . S
H1388 C1364 0.950 . S
H1389 C1365 0.949 . S
H1390 C1367 0.950 . S
H1391 C1369 0.950 . S
C1392 C1393 1.349 . S
C1392 C1394 1.327 . S
C1392 H1417 0.950 . S
C1393 C1392 1.349 . S
C1393 C1409 1.349 . S
C1394 C1392 1.327 . S
C1394 C1413 1.429 . S
C1394 H1418 0.950 . S
C1395 C1412 1.574 . S
C1395 C1414 1.368 . S
C1395 H1419 0.949 . S
H1396 C1400 0.949 . S
C1397 C1398 1.349 . S
C1397 C1399 1.327 . S
C1397 H1420 0.950 . S
C1398 C1397 1.349 . S
C1398 C1410 1.349 . S
C1399 C1397 1.327 . S
C1399 C1415 1.429 . S
C1399 H1421 0.950 . S
C1400 H1396 0.949 . S
C1400 C1408 1.574 . S
C1400 C1416 1.368 . S
H1401 C1409 0.950 . S
H1402 C1407 0.950 . S
H1403 C1408 0.949 . S
H1404 C1410 0.950 . S
H1405 C1411 0.950 . S
H1406 C1412 0.949 . S
C1407 H1402 0.950 . S
C1407 C1409 1.327 . S
C1407 C1413 1.429 . S
C1408 C1400 1.574 . S
C1408 H1403 0.949 . S
C1408 C1414 1.368 . S
C1409 C1393 1.349 . S
C1409 H1401 0.950 . S
C1409 C1407 1.327 . S
C1410 C1398 1.349 . S
C1410 H1404 0.950 . S
C1410 C1411 1.327 . S
C1411 H1405 0.950 . S
C1411 C1410 1.327 . S
C1411 C1415 1.429 . S
C1412 C1395 1.574 . S
C1412 H1406 0.949 . S
C1412 C1416 1.368 . S
C1413 C1394 1.429 . S
C1413 C1407 1.429 . S
C1413 C1414 1.523 . S
C1414 C1395 1.368 . S
C1414 C1408 1.368 . S
C1414 C1413 1.523 . S
C1415 C1399 1.429 . S
C1415 C1411 1.429 . S
C1415 C1416 1.523 . S
C1416 C1400 1.368 . S
C1416 C1412 1.368 . S
C1416 C1415 1.523 . S
H1417 C1392 0.950 . S
H1418 C1394 0.950 . S
H1419 C1395 0.949 . S
H1420 C1397 0.950 . S
H1421 C1399 0.950 . S
C1422 C1423 1.349 . S
C1422 C1424 1.327 . S
C1422 H1447 0.950 . S
C1423 C1422 1.349 . S
C1423 C1439 1.349 . S
C1424 C1422 1.327 . S
C1424 C1443 1.429 . S
C1424 H1448 0.950 . S
C1425 C1442 1.574 . S
C1425 C1444 1.368 . S
C1425 H1449 0.949 . S
H1426 C1430 0.949 . S
C1427 C1428 1.349 . S
C1427 C1429 1.327 . S
C1427 H1450 0.950 . S
C1428 C1427 1.349 . S
C1428 C1440 1.349 . S
C1429 C1427 1.327 . S
C1429 C1445 1.429 . S
C1429 H1451 0.950 . S
C1430 H1426 0.949 . S
C1430 C1438 1.574 . S
C1430 C1446 1.368 . S
H1431 C1439 0.950 . S
H1432 C1437 0.950 . S
H1433 C1438 0.949 . S
H1434 C1440 0.950 . S
H1435 C1441 0.950 . S
H1436 C1442 0.949 . S
C1437 H1432 0.950 . S
C1437 C1439 1.327 . S
C1437 C1443 1.429 . S
C1438 C1430 1.574 . S
C1438 H1433 0.949 . S
C1438 C1444 1.368 . S
C1439 C1423 1.349 . S
C1439 H1431 0.950 . S
C1439 C1437 1.327 . S
C1440 C1428 1.349 . S
C1440 H1434 0.950 . S
C1440 C1441 1.327 . S
C1441 H1435 0.950 . S
C1441 C1440 1.327 . S
C1441 C1445 1.429 . S
C1442 C1425 1.574 . S
C1442 H1436 0.949 . S
C1442 C1446 1.368 . S
C1443 C1424 1.429 . S
C1443 C1437 1.429 . S
C1443 C1444 1.523 . S
C1444 C1425 1.368 . S
C1444 C1438 1.368 . S
C1444 C1443 1.523 . S
C1445 C1429 1.429 . S
C1445 C1441 1.429 . S
C1445 C1446 1.523 . S
C1446 C1430 1.368 . S
C1446 C1442 1.368 . S
C1446 C1445 1.523 . S
H1447 C1422 0.950 . S
H1448 C1424 0.950 . S
H1449 C1425 0.949 . S
H1450 C1427 0.950 . S
H1451 C1429 0.950 . S
C1452 C1453 1.349 . S
C1452 C1454 1.327 . S
C1452 H1477 0.950 . S
C1453 C1452 1.349 . S
C1453 C1469 1.349 . S
C1454 C1452 1.327 . S
C1454 C1473 1.429 . S
C1454 H1478 0.950 . S
C1455 C1472 1.574 . S
C1455 C1474 1.368 . S
C1455 H1479 0.949 . S
H1456 C1460 0.949 . S
C1457 C1458 1.349 . S
C1457 C1459 1.327 . S
C1457 H1480 0.950 . S
C1458 C1457 1.349 . S
C1458 C1470 1.349 . S
C1459 C1457 1.327 . S
C1459 C1475 1.429 . S
C1459 H1481 0.950 . S
C1460 H1456 0.949 . S
C1460 C1468 1.574 . S
C1460 C1476 1.368 . S
H1461 C1469 0.950 . S
H1462 C1467 0.950 . S
H1463 C1468 0.949 . S
H1464 C1470 0.950 . S
H1465 C1471 0.950 . S
H1466 C1472 0.949 . S
C1467 H1462 0.950 . S
C1467 C1469 1.327 . S
C1467 C1473 1.429 . S
C1468 C1460 1.574 . S
C1468 H1463 0.949 . S
C1468 C1474 1.368 . S
C1469 C1453 1.349 . S
C1469 H1461 0.950 . S
C1469 C1467 1.327 . S
C1470 C1458 1.349 . S
C1470 H1464 0.950 . S
C1470 C1471 1.327 . S
C1471 H1465 0.950 . S
C1471 C1470 1.327 . S
C1471 C1475 1.429 . S
C1472 C1455 1.574 . S
C1472 H1466 0.949 . S
C1472 C1476 1.368 . S
C1473 C1454 1.429 . S
C1473 C1467 1.429 . S
C1473 C1474 1.523 . S
C1474 C1455 1.368 . S
C1474 C1468 1.368 . S
C1474 C1473 1.523 . S
C1475 C1459 1.429 . S
C1475 C1471 1.429 . S
C1475 C1476 1.523 . S
C1476 C1460 1.368 . S
C1476 C1472 1.368 . S
C1476 C1475 1.523 . S
H1477 C1452 0.950 . S
H1478 C1454 0.950 . S
H1479 C1455 0.949 . S
H1480 C1457 0.950 . S
H1481 C1459 0.950 . S
C1482 C1483 1.349 . S
C1482 C1484 1.327 . S
C1482 H1507 0.950 . S
C1483 C1482 1.349 . S
C1483 C1499 1.349 . S
C1484 C1482 1.327 . S
C1484 C1503 1.429 . S
C1484 H1508 0.950 . S
C1485 C1502 1.574 . S
C1485 C1504 1.368 . S
C1485 H1509 0.949 . S
H1486 C1490 0.949 . S
C1487 C1488 1.349 . S
C1487 C1489 1.327 . S
C1487 H1510 0.950 . S
C1488 C1487 1.349 . S
C1488 C1500 1.349 . S
C1489 C1487 1.327 . S
C1489 C1505 1.429 . S
C1489 H1511 0.950 . S
C1490 H1486 0.949 . S
C1490 C1498 1.574 . S
C1490 C1506 1.368 . S
H1491 C1499 0.950 . S
H1492 C1497 0.950 . S
H1493 C1498 0.949 . S
H1494 C1500 0.950 . S
H1495 C1501 0.950 . S
H1496 C1502 0.949 . S
C1497 H1492 0.950 . S
C1497 C1499 1.327 . S
C1497 C1503 1.429 . S
C1498 C1490 1.574 . S
C1498 H1493 0.949 . S
C1498 C1504 1.368 . S
C1499 C1483 1.349 . S
C1499 H1491 0.950 . S
C1499 C1497 1.327 . S
C1500 C1488 1.349 . S
C1500 H1494 0.950 . S
C1500 C1501 1.327 . S
C1501 H1495 0.950 . S
C1501 C1500 1.327 . S
C1501 C1505 1.429 . S
C1502 C1485 1.574 . S
C1502 H1496 0.949 . S
C1502 C1506 1.368 . S
C1503 C1484 1.429 . S
C1503 C1497 1.429 . S
C1503 C1504 1.523 . S
C1504 C1485 1.368 . S
C1504 C1498 1.368 . S
C1504 C1503 1.523 . S
C1505 C1489 1.429 . S
C1505 C1501 1.429 . S
C1505 C1506 1.523 . S
C1506 C1490 1.368 . S
C1506 C1502 1.368 . S
C1506 C1505 1.523 . S
H1507 C1482 0.950 . S
H1508 C1484 0.950 . S
H1509 C1485 0.949 . S
H1510 C1487 0.950 . S
H1511 C1489 0.950 . S
C1512 C1513 1.349 . S
C1512 C1514 1.327 . S
C1512 H1537 0.950 . S
C1513 C1512 1.349 . S
C1513 C1529 1.349 . S
C1514 C1512 1.327 . S
C1514 C1533 1.429 . S
C1514 H1538 0.950 . S
C1515 C1532 1.574 . S
C1515 C1534 1.368 . S
C1515 H1539 0.949 . S
H1516 C1520 0.949 . S
C1517 C1518 1.349 . S
C1517 C1519 1.327 . S
C1517 H1540 0.950 . S
C1518 C1517 1.349 . S
C1518 C1530 1.349 . S
C1519 C1517 1.327 . S
C1519 C1535 1.429 . S
C1519 H1541 0.950 . S
C1520 H1516 0.949 . S
C1520 C1528 1.574 . S
C1520 C1536 1.368 . S
H1521 C1529 0.950 . S
H1522 C1527 0.950 . S
H1523 C1528 0.949 . S
H1524 C1530 0.950 . S
H1525 C1531 0.950 . S
H1526 C1532 0.949 . S
C1527 H1522 0.950 . S
C1527 C1529 1.327 . S
C1527 C1533 1.429 . S
C1528 C1520 1.574 . S
C1528 H1523 0.949 . S
C1528 C1534 1.368 . S
C1529 C1513 1.349 . S
C1529 H1521 0.950 . S
C1529 C1527 1.327 . S
C1530 C1518 1.349 . S
C1530 H1524 0.950 . S
C1530 C1531 1.327 . S
C1531 H1525 0.950 . S
C1531 C1530 1.327 . S
C1531 C1535 1.429 . S
C1532 C1515 1.574 . S
C1532 H1526 0.949 . S
C1532 C1536 1.368 . S
C1533 C1514 1.429 . S
C1533 C1527 1.429 . S
C1533 C1534 1.523 1_545 S
C1534 C1515 1.368 . S
C1534 C1528 1.368 . S
C1534 C1533 1.523 1_565 S
C1535 C1519 1.429 . S
C1535 C1531 1.429 . S
C1535 C1536 1.523 . S
C1536 C1520 1.368 . S
C1536 C1532 1.368 . S
C1536 C1535 1.523 . S
H1537 C1512 0.950 . S
H1538 C1514 0.950 . S
H1539 C1515 0.949 . S
H1540 C1517 0.950 . S
H1541 C1519 0.950 . S
C1542 C1543 1.349 . S
C1542 C1544 1.362 . S
C1542 H1567 0.950 . S
C1543 C1542 1.349 . S
C1543 C1559 1.349 . S
C1544 C1542 1.362 . S
C1544 C1563 1.415 1_655 S
C1544 H1568 0.927 1_655 S
C1545 C1562 1.574 . S
C1545 C1564 1.368 . S
C1545 H1569 0.949 . S
H1546 C1550 0.949 . S
C1547 C1548 1.349 . S
C1547 C1549 1.327 . S
C1547 H1570 0.950 . S
C1548 C1547 1.349 . S
C1548 C1560 1.349 . S
C1549 C1547 1.327 . S
C1549 C1565 1.429 . S
C1549 H1571 0.950 . S
C1550 H1546 0.949 . S
C1550 C1558 1.574 . S
C1550 C1566 1.368 . S
H1551 C1559 0.950 . S
H1552 C1557 0.950 . S
H1553 C1558 0.949 . S
H1554 C1560 0.950 . S
H1555 C1561 0.950 . S
H1556 C1562 0.949 . S
C1557 H1552 0.950 . S
C1557 C1559 1.327 . S
C1557 C1563 1.420 1_655 S
C1558 C1550 1.574 . S
C1558 H1553 0.949 . S
C1558 C1564 1.368 . S
C1559 C1543 1.349 . S
C1559 H1551 0.950 . S
C1559 C1557 1.327 . S
C1560 C1548 1.349 . S
C1560 H1554 0.950 . S
C1560 C1561 1.327 . S
C1561 H1555 0.950 . S
C1561 C1560 1.327 . S
C1561 C1565 1.429 . S
C1562 C1545 1.574 . S
C1562 H1556 0.949 . S
C1562 C1566 1.368 . S
C1563 C1544 1.415 1_455 S
C1563 C1557 1.420 1_455 S
C1563 C1564 1.534 . S
C1564 C1545 1.368 . S
C1564 C1558 1.368 . S
C1564 C1563 1.534 . S
C1565 C1549 1.429 . S
C1565 C1561 1.429 . S
C1565 C1566 1.523 . S
C1566 C1550 1.368 . S
C1566 C1562 1.368 . S
C1566 C1565 1.523 . S
H1567 C1542 0.950 . S
H1568 C1544 0.927 1_455 S
H1569 C1545 0.949 . S
H1570 C1547 0.950 . S
H1571 C1549 0.950 . S
C1572 C1573 1.349 . S
C1572 C1574 1.327 . S
C1572 H1597 0.950 . S
C1573 C1572 1.349 . S
C1573 C1589 1.349 . S
C1574 C1572 1.327 . S
C1574 C1593 1.429 . S
C1574 H1598 0.950 . S
C1575 C1592 1.574 . S
C1575 C1594 1.368 . S
C1575 H1599 0.949 . S
H1576 C1580 0.949 . S
C1577 C1578 1.349 . S
C1577 C1579 1.327 . S
C1577 H1600 0.950 . S
C1578 C1577 1.349 . S
C1578 C1590 1.349 . S
C1579 C1577 1.327 . S
C1579 C1595 1.429 . S
C1579 H1601 0.950 . S
C1580 H1576 0.949 . S
C1580 C1588 1.574 . S
C1580 C1596 1.368 . S
H1581 C1589 0.950 . S
H1582 C1587 0.950 . S
H1583 C1588 0.949 . S
H1584 C1590 0.950 . S
H1585 C1591 0.950 . S
H1586 C1592 0.949 . S
C1587 H1582 0.950 . S
C1587 C1589 1.327 . S
C1587 C1593 1.429 . S
C1588 C1580 1.574 . S
C1588 H1583 0.949 . S
C1588 C1594 1.368 . S
C1589 C1573 1.349 . S
C1589 H1581 0.950 . S
C1589 C1587 1.327 . S
C1590 C1578 1.349 . S
C1590 H1584 0.950 . S
C1590 C1591 1.327 . S
C1591 H1585 0.950 . S
C1591 C1590 1.327 . S
C1591 C1595 1.429 . S
C1592 C1575 1.574 . S
C1592 H1586 0.949 . S
C1592 C1596 1.368 . S
C1593 C1574 1.429 . S
C1593 C1587 1.429 . S
C1593 C1594 1.523 . S
C1594 C1575 1.368 . S
C1594 C1588 1.368 . S
C1594 C1593 1.523 . S
C1595 C1579 1.429 . S
C1595 C1591 1.429 . S
C1595 C1596 1.523 . S
C1596 C1580 1.368 . S
C1596 C1592 1.368 . S
C1596 C1595 1.523 . S
H1597 C1572 0.950 . S
H1598 C1574 0.950 . S
H1599 C1575 0.949 . S
H1600 C1577 0.950 . S
H1601 C1579 0.950 . S
C1602 C1603 1.349 . S
C1602 C1604 1.327 . S
C1602 H1627 0.950 . S
C1603 C1602 1.349 . S
C1603 C1619 1.349 . S
C1604 C1602 1.327 . S
C1604 C1623 1.429 . S
C1604 H1628 0.950 . S
C1605 C1622 1.574 . S
C1605 C1624 1.368 . S
C1605 H1629 0.949 . S
H1606 C1610 0.949 . S
C1607 C1608 1.349 . S
C1607 C1609 1.327 . S
C1607 H1630 0.950 . S
C1608 C1607 1.349 . S
C1608 C1620 1.349 . S
C1609 C1607 1.327 . S
C1609 C1625 1.429 . S
C1609 H1631 0.950 . S
C1610 H1606 0.949 . S
C1610 C1618 1.574 . S
C1610 C1626 1.368 . S
H1611 C1619 0.950 . S
H1612 C1617 0.950 . S
H1613 C1618 0.949 . S
H1614 C1620 0.950 . S
H1615 C1621 0.950 . S
H1616 C1622 0.949 . S
C1617 H1612 0.950 . S
C1617 C1619 1.327 . S
C1617 C1623 1.429 . S
C1618 C1610 1.574 . S
C1618 H1613 0.949 . S
C1618 C1624 1.368 . S
C1619 C1603 1.349 . S
C1619 H1611 0.950 . S
C1619 C1617 1.327 . S
C1620 C1608 1.349 . S
C1620 H1614 0.950 . S
C1620 C1621 1.327 . S
C1621 H1615 0.950 . S
C1621 C1620 1.327 . S
C1621 C1625 1.429 . S
C1622 C1605 1.574 . S
C1622 H1616 0.949 . S
C1622 C1626 1.368 . S
C1623 C1604 1.429 . S
C1623 C1617 1.429 . S
C1623 C1624 1.523 . S
C1624 C1605 1.368 . S
C1624 C1618 1.368 . S
C1624 C1623 1.523 . S
C1625 C1609 1.429 . S
C1625 C1621 1.429 . S
C1625 C1626 1.523 . S
C1626 C1610 1.368 . S
C1626 C1622 1.368 . S
C1626 C1625 1.523 . S
H1627 C1602 0.950 . S
H1628 C1604 0.950 . S
H1629 C1605 0.949 . S
H1630 C1607 0.950 . S
H1631 C1609 0.950 . S
C1632 C1633 1.349 . S
C1632 C1634 1.327 . S
C1632 H1657 0.950 . S
C1633 C1632 1.349 . S
C1633 C1649 1.349 . S
C1634 C1632 1.327 . S
C1634 C1653 1.429 . S
C1634 H1658 0.950 . S
C1635 C1652 1.574 . S
C1635 C1654 1.368 . S
C1635 H1659 0.949 . S
H1636 C1640 0.949 . S
C1637 C1638 1.349 . S
C1637 C1639 1.327 . S
C1637 H1660 0.950 . S
C1638 C1637 1.349 . S
C1638 C1650 1.349 . S
C1639 C1637 1.327 . S
C1639 C1655 1.429 . S
C1639 H1661 0.950 . S
C1640 H1636 0.949 . S
C1640 C1648 1.574 . S
C1640 C1656 1.368 . S
H1641 C1649 0.950 . S
H1642 C1647 0.950 . S
H1643 C1648 0.949 . S
H1644 C1650 0.950 . S
H1645 C1651 0.950 . S
H1646 C1652 0.949 . S
C1647 H1642 0.950 . S
C1647 C1649 1.327 . S
C1647 C1653 1.429 . S
C1648 C1640 1.574 . S
C1648 H1643 0.949 . S
C1648 C1654 1.368 . S
C1649 C1633 1.349 . S
C1649 H1641 0.950 . S
C1649 C1647 1.327 . S
C1650 C1638 1.349 . S
C1650 H1644 0.950 . S
C1650 C1651 1.327 . S
C1651 H1645 0.950 . S
C1651 C1650 1.327 . S
C1651 C1655 1.429 . S
C1652 C1635 1.574 . S
C1652 H1646 0.949 . S
C1652 C1656 1.368 . S
C1653 C1634 1.429 . S
C1653 C1647 1.429 . S
C1653 C1654 1.523 . S
C1654 C1635 1.368 . S
C1654 C1648 1.368 . S
C1654 C1653 1.523 . S
C1655 C1639 1.429 . S
C1655 C1651 1.429 . S
C1655 C1656 1.523 . S
C1656 C1640 1.368 . S
C1656 C1652 1.368 . S
C1656 C1655 1.523 . S
H1657 C1632 0.950 . S
H1658 C1634 0.950 . S
H1659 C1635 0.949 . S
H1660 C1637 0.950 . S
H1661 C1639 0.950 . S
C1662 C1663 1.349 . S
C1662 C1664 1.327 . S
C1662 H1687 0.950 . S
C1663 C1662 1.349 . S
C1663 C1679 1.349 . S
C1664 C1662 1.327 . S
C1664 C1683 1.429 . S
C1664 H1688 0.950 . S
C1665 C1682 1.574 . S
C1665 C1684 1.368 . S
C1665 H1689 0.949 . S
H1666 C1670 0.949 . S
C1667 C1668 1.349 . S
C1667 C1669 1.327 . S
C1667 H1690 0.950 . S
C1668 C1667 1.349 . S
C1668 C1680 1.349 . S
C1669 C1667 1.327 . S
C1669 C1685 1.429 . S
C1669 H1691 0.950 . S
C1670 H1666 0.949 . S
C1670 C1678 1.574 . S
C1670 C1686 1.368 . S
H1671 C1679 0.950 . S
H1672 C1677 0.950 . S
H1673 C1678 0.949 . S
H1674 C1680 0.950 . S
H1675 C1681 0.950 . S
H1676 C1682 0.949 . S
C1677 H1672 0.950 . S
C1677 C1679 1.327 . S
C1677 C1683 1.429 . S
C1678 C1670 1.574 . S
C1678 H1673 0.949 . S
C1678 C1684 1.368 . S
C1679 C1663 1.349 . S
C1679 H1671 0.950 . S
C1679 C1677 1.327 . S
C1680 C1668 1.349 . S
C1680 H1674 0.950 . S
C1680 C1681 1.327 . S
C1681 H1675 0.950 . S
C1681 C1680 1.327 . S
C1681 C1685 1.429 . S
C1682 C1665 1.574 . S
C1682 H1676 0.949 . S
C1682 C1686 1.368 . S
C1683 C1664 1.429 . S
C1683 C1677 1.429 . S
C1683 C1684 1.523 . S
C1684 C1665 1.368 . S
C1684 C1678 1.368 . S
C1684 C1683 1.523 . S
C1685 C1669 1.429 . S
C1685 C1681 1.429 . S
C1685 C1686 1.523 . S
C1686 C1670 1.368 . S
C1686 C1682 1.368 . S
C1686 C1685 1.523 . S
H1687 C1662 0.950 . S
H1688 C1664 0.950 . S
H1689 C1665 0.949 . S
H1690 C1667 0.950 . S
H1691 C1669 0.950 . S
C1692 C1693 1.349 . S
C1692 C1694 1.327 . S
C1692 H1717 0.950 . S
C1693 C1692 1.349 . S
C1693 C1709 1.349 . S
C1694 C1692 1.327 . S
C1694 C1713 1.429 . S
C1694 H1718 0.950 . S
C1695 C1712 1.574 . S
C1695 C1714 1.368 . S
C1695 H1719 0.949 . S
H1696 C1700 0.949 . S
C1697 C1698 1.349 . S
C1697 C1699 1.327 . S
C1697 H1720 0.950 . S
C1698 C1697 1.349 . S
C1698 C1710 1.349 . S
C1699 C1697 1.327 . S
C1699 C1715 1.429 . S
C1699 H1721 0.950 . S
C1700 H1696 0.949 . S
C1700 C1708 1.574 . S
C1700 C1716 1.368 . S
H1701 C1709 0.950 . S
H1702 C1707 0.950 . S
H1703 C1708 0.949 . S
H1704 C1710 0.950 . S
H1705 C1711 0.950 . S
H1706 C1712 0.949 . S
C1707 H1702 0.950 . S
C1707 C1709 1.327 . S
C1707 C1713 1.429 . S
C1708 C1700 1.574 . S
C1708 H1703 0.949 . S
C1708 C1714 1.368 . S
C1709 C1693 1.349 . S
C1709 H1701 0.950 . S
C1709 C1707 1.327 . S
C1710 C1698 1.349 . S
C1710 H1704 0.950 . S
C1710 C1711 1.327 . S
C1711 H1705 0.950 . S
C1711 C1710 1.327 . S
C1711 C1715 1.429 . S
C1712 C1695 1.574 . S
C1712 H1706 0.949 . S
C1712 C1716 1.368 . S
C1713 C1694 1.429 . S
C1713 C1707 1.429 . S
C1713 C1714 1.523 1_565 S
C1714 C1695 1.368 . S
C1714 C1708 1.368 . S
C1714 C1713 1.523 1_545 S
C1715 C1699 1.429 . S
C1715 C1711 1.429 . S
C1715 C1716 1.523 . S
C1716 C1700 1.368 . S
C1716 C1712 1.368 . S
C1716 C1715 1.523 . S
H1717 C1692 0.950 . S
H1718 C1694 0.950 . S
H1719 C1695 0.949 . S
H1720 C1697 0.950 . S
H1721 C1699 0.950 . S
C1722 C1723 1.349 . S
C1722 C1724 1.327 . S
C1722 H1747 0.950 . S
C1723 C1722 1.349 . S
C1723 C1739 1.349 . S
C1724 C1722 1.327 . S
C1724 C1743 1.429 . S
C1724 H1748 0.950 1_455 S
C1725 C1742 1.574 . S
C1725 C1744 1.368 . S
C1725 H1749 0.949 . S
H1726 C1730 0.949 . S
C1727 C1728 1.349 . S
C1727 C1729 1.327 . S
C1727 H1750 0.950 . S
C1728 C1727 1.349 . S
C1728 C1740 1.349 . S
C1729 C1727 1.327 . S
C1729 C1745 1.429 . S
C1729 H1751 0.950 . S
C1730 H1726 0.949 . S
C1730 C1738 1.574 . S
C1730 C1746 1.368 . S
H1731 C1739 0.950 . S
H1732 C1737 0.950 . S
H1733 C1738 0.949 . S
H1734 C1740 0.950 . S
H1735 C1741 0.950 . S
H1736 C1742 0.949 . S
C1737 H1732 0.950 . S
C1737 C1739 1.327 . S
C1737 C1743 1.429 . S
C1738 C1730 1.574 . S
C1738 H1733 0.949 . S
C1738 C1744 1.368 . S
C1739 C1723 1.349 . S
C1739 H1731 0.950 . S
C1739 C1737 1.327 . S
C1740 C1728 1.349 . S
C1740 H1734 0.950 . S
C1740 C1741 1.327 . S
C1741 H1735 0.950 . S
C1741 C1740 1.327 . S
C1741 C1745 1.429 . S
C1742 C1725 1.574 . S
C1742 H1736 0.949 . S
C1742 C1746 1.368 . S
C1743 C1724 1.429 . S
C1743 C1737 1.429 . S
C1743 C1744 1.523 1_455 S
C1744 C1725 1.368 . S
C1744 C1738 1.368 . S
C1744 C1743 1.523 1_655 S
C1745 C1729 1.429 . S
C1745 C1741 1.429 . S
C1745 C1746 1.523 . S
C1746 C1730 1.368 . S
C1746 C1742 1.368 . S
C1746 C1745 1.523 . S
H1747 C1722 0.950 . S
H1748 C1724 0.950 1_655 S
H1749 C1725 0.949 . S
H1750 C1727 0.950 . S
H1751 C1729 0.950 . S
C1752 C1753 1.349 . S
C1752 C1754 1.327 . S
C1752 H1777 0.950 . S
C1753 C1752 1.349 . S
C1753 C1769 1.349 . S
C1754 C1752 1.327 . S
C1754 C1773 1.429 . S
C1754 H1778 0.950 . S
C1755 C1772 1.574 . S
C1755 C1774 1.368 . S
C1755 H1779 0.949 . S
H1756 C1760 0.949 . S
C1757 C1758 1.349 . S
C1757 C1759 1.327 . S
C1757 H1780 0.950 . S
C1758 C1757 1.349 . S
C1758 C1770 1.349 . S
C1759 C1757 1.327 . S
C1759 C1775 1.429 . S
C1759 H1781 0.950 . S
C1760 H1756 0.949 . S
C1760 C1768 1.574 . S
C1760 C1776 1.368 . S
H1761 C1769 0.950 . S
H1762 C1767 0.950 . S
H1763 C1768 0.949 . S
H1764 C1770 0.950 . S
H1765 C1771 0.950 . S
H1766 C1772 0.949 . S
C1767 H1762 0.950 . S
C1767 C1769 1.327 . S
C1767 C1773 1.429 . S
C1768 C1760 1.574 . S
C1768 H1763 0.949 . S
C1768 C1774 1.368 . S
C1769 C1753 1.349 . S
C1769 H1761 0.950 . S
C1769 C1767 1.327 . S
C1770 C1758 1.349 . S
C1770 H1764 0.950 . S
C1770 C1771 1.327 . S
C1771 H1765 0.950 . S
C1771 C1770 1.327 . S
C1771 C1775 1.429 . S
C1772 C1755 1.574 . S
C1772 H1766 0.949 . S
C1772 C1776 1.368 . S
C1773 C1754 1.429 . S
C1773 C1767 1.429 . S
C1773 C1774 1.523 . S
C1774 C1755 1.368 . S
C1774 C1768 1.368 . S
C1774 C1773 1.523 . S
C1775 C1759 1.429 . S
C1775 C1771 1.429 . S
C1775 C1776 1.523 . S
C1776 C1760 1.368 . S
C1776 C1772 1.368 . S
C1776 C1775 1.523 . S
H1777 C1752 0.950 . S
H1778 C1754 0.950 . S
H1779 C1755 0.949 . S
H1780 C1757 0.950 . S
H1781 C1759 0.950 . S
C1782 C1783 1.349 . S
C1782 C1784 1.327 . S
C1782 H1807 0.950 . S
C1783 C1782 1.349 . S
C1783 C1799 1.349 . S
C1784 C1782 1.327 . S
C1784 C1803 1.429 . S
C1784 H1808 0.950 . S
C1785 C1802 1.574 . S
C1785 C1804 1.368 . S
C1785 H1809 0.949 . S
H1786 C1790 0.949 . S
C1787 C1788 1.349 . S
C1787 C1789 1.327 . S
C1787 H1810 0.950 . S
C1788 C1787 1.349 . S
C1788 C1800 1.349 . S
C1789 C1787 1.327 . S
C1789 C1805 1.429 . S
C1789 H1811 0.950 . S
C1790 H1786 0.949 . S
C1790 C1798 1.574 . S
C1790 C1806 1.368 . S
H1791 C1799 0.950 . S
H1792 C1797 0.950 . S
H1793 C1798 0.949 . S
H1794 C1800 0.950 . S
H1795 C1801 0.950 . S
H1796 C1802 0.949 . S
C1797 H1792 0.950 . S
C1797 C1799 1.327 . S
C1797 C1803 1.429 . S
C1798 C1790 1.574 . S
C1798 H1793 0.949 . S
C1798 C1804 1.368 . S
C1799 C1783 1.349 . S
C1799 H1791 0.950 . S
C1799 C1797 1.327 . S
C1800 C1788 1.349 . S
C1800 H1794 0.950 . S
C1800 C1801 1.327 . S
C1801 H1795 0.950 . S
C1801 C1800 1.327 . S
C1801 C1805 1.429 . S
C1802 C1785 1.574 . S
C1802 H1796 0.949 . S
C1802 C1806 1.368 . S
C1803 C1784 1.429 . S
C1803 C1797 1.429 . S
C1803 C1804 1.523 1_455 S
C1804 C1785 1.368 . S
C1804 C1798 1.368 . S
C1804 C1803 1.523 1_655 S
C1805 C1789 1.429 . S
C1805 C1801 1.429 . S
C1805 C1806 1.523 . S
C1806 C1790 1.368 . S
C1806 C1802 1.368 . S
C1806 C1805 1.523 . S
H1807 C1782 0.950 . S
H1808 C1784 0.950 . S
H1809 C1785 0.949 . S
H1810 C1787 0.950 . S
H1811 C1789 0.950 . S
C1812 C1813 1.349 . S
C1812 C1814 1.327 . S
C1812 H1837 0.950 . S
C1813 C1812 1.349 . S
C1813 C1829 1.349 . S
C1814 C1812 1.327 . S
C1814 C1833 1.429 . S
C1814 H1838 0.950 . S
C1815 C1832 1.574 . S
C1815 C1834 1.368 . S
C1815 H1839 0.949 . S
H1816 C1820 0.949 . S
C1817 C1818 1.349 . S
C1817 C1819 1.327 . S
C1817 H1840 0.950 . S
C1818 C1817 1.349 . S
C1818 C1830 1.349 . S
C1819 C1817 1.327 . S
C1819 C1835 1.429 . S
C1819 H1841 0.950 . S
C1820 H1816 0.949 . S
C1820 C1828 1.574 . S
C1820 C1836 1.368 . S
H1821 C1829 0.950 . S
H1822 C1827 0.950 . S
H1823 C1828 0.949 . S
H1824 C1830 0.950 . S
H1825 C1831 0.950 . S
H1826 C1832 0.949 . S
C1827 H1822 0.950 . S
C1827 C1829 1.327 . S
C1827 C1833 1.429 . S
C1828 C1820 1.574 . S
C1828 H1823 0.949 . S
C1828 C1834 1.368 . S
C1829 C1813 1.349 . S
C1829 H1821 0.950 . S
C1829 C1827 1.327 . S
C1830 C1818 1.349 . S
C1830 H1824 0.950 . S
C1830 C1831 1.327 . S
C1831 H1825 0.950 . S
C1831 C1830 1.327 . S
C1831 C1835 1.429 . S
C1832 C1815 1.574 . S
C1832 H1826 0.949 . S
C1832 C1836 1.368 . S
C1833 C1814 1.429 . S
C1833 C1827 1.429 . S
C1833 C1834 1.523 . S
C1834 C1815 1.368 . S
C1834 C1828 1.368 . S
C1834 C1833 1.523 . S
C1835 C1819 1.429 . S
C1835 C1831 1.429 . S
C1835 C1836 1.523 . S
C1836 C1820 1.368 . S
C1836 C1832 1.368 . S
C1836 C1835 1.523 . S
H1837 C1812 0.950 . S
H1838 C1814 0.950 . S
H1839 C1815 0.949 . S
H1840 C1817 0.950 . S
H1841 C1819 0.950 . S
C1842 C1843 1.349 . S
C1842 C1844 1.327 . S
C1842 H1867 0.950 . S
C1843 C1842 1.349 . S
C1843 C1859 1.349 . S
C1844 C1842 1.327 . S
C1844 C1863 1.429 . S
C1844 H1868 0.950 . S
C1845 C1862 1.574 . S
C1845 C1864 1.368 . S
C1845 H1869 0.949 . S
H1846 C1850 0.949 . S
C1847 C1848 1.349 . S
C1847 C1849 1.327 . S
C1847 H1870 0.950 . S
C1848 C1847 1.349 . S
C1848 C1860 1.349 . S
C1849 C1847 1.327 . S
C1849 C1865 1.429 . S
C1849 H1871 0.950 . S
C1850 H1846 0.949 . S
C1850 C1858 1.574 . S
C1850 C1866 1.368 . S
H1851 C1859 0.950 . S
H1852 C1857 0.950 . S
H1853 C1858 0.949 . S
H1854 C1860 0.950 . S
H1855 C1861 0.950 . S
H1856 C1862 0.949 . S
C1857 H1852 0.950 . S
C1857 C1859 1.327 . S
C1857 C1863 1.429 . S
C1858 C1850 1.574 . S
C1858 H1853 0.949 . S
C1858 C1864 1.368 . S
C1859 C1843 1.349 . S
C1859 H1851 0.950 . S
C1859 C1857 1.327 . S
C1860 C1848 1.349 . S
C1860 H1854 0.950 . S
C1860 C1861 1.327 . S
C1861 H1855 0.950 . S
C1861 C1860 1.327 . S
C1861 C1865 1.429 . S
C1862 C1845 1.574 . S
C1862 H1856 0.949 . S
C1862 C1866 1.368 . S
C1863 C1844 1.429 . S
C1863 C1857 1.429 . S
C1863 C1864 1.523 1_565 S
C1864 C1845 1.368 . S
C1864 C1858 1.368 . S
C1864 C1863 1.523 1_545 S
C1865 C1849 1.429 . S
C1865 C1861 1.429 . S
C1865 C1866 1.523 . S
C1866 C1850 1.368 . S
C1866 C1862 1.368 . S
C1866 C1865 1.523 . S
H1867 C1842 0.950 . S
H1868 C1844 0.950 . S
H1869 C1845 0.949 . S
H1870 C1847 0.950 . S
H1871 C1849 0.950 . S
C1872 C1873 1.349 . S
C1872 C1874 1.327 . S
C1872 H1897 0.950 . S
C1873 C1872 1.349 . S
C1873 C1889 1.349 . S
C1874 C1872 1.327 . S
C1874 C1893 1.429 . S
C1874 H1898 0.950 . S
C1875 C1892 1.574 . S
C1875 C1894 1.368 . S
C1875 H1899 0.949 . S
H1876 C1880 0.949 . S
C1877 C1878 1.349 . S
C1877 C1879 1.327 . S
C1877 H1900 0.950 . S
C1878 C1877 1.349 . S
C1878 C1890 1.349 . S
C1879 C1877 1.327 . S
C1879 C1895 1.429 . S
C1879 H1901 0.950 . S
C1880 H1876 0.949 . S
C1880 C1888 1.574 . S
C1880 C1896 1.368 . S
H1881 C1889 0.950 . S
H1882 C1887 0.950 . S
H1883 C1888 0.949 . S
H1884 C1890 0.950 . S
H1885 C1891 0.950 . S
H1886 C1892 0.949 . S
C1887 H1882 0.950 . S
C1887 C1889 1.327 . S
C1887 C1893 1.429 . S
C1888 C1880 1.574 . S
C1888 H1883 0.949 . S
C1888 C1894 1.368 . S
C1889 C1873 1.349 . S
C1889 H1881 0.950 . S
C1889 C1887 1.327 . S
C1890 C1878 1.349 . S
C1890 H1884 0.950 . S
C1890 C1891 1.327 . S
C1891 H1885 0.950 . S
C1891 C1890 1.327 . S
C1891 C1895 1.429 . S
C1892 C1875 1.574 . S
C1892 H1886 0.949 . S
C1892 C1896 1.368 . S
C1893 C1874 1.429 . S
C1893 C1887 1.429 . S
C1893 C1894 1.523 . S
C1894 C1875 1.368 . S
C1894 C1888 1.368 . S
C1894 C1893 1.523 . S
C1895 C1879 1.429 . S
C1895 C1891 1.429 . S
C1895 C1896 1.523 . S
C1896 C1880 1.368 . S
C1896 C1892 1.368 . S
C1896 C1895 1.523 . S
H1897 C1872 0.950 . S
H1898 C1874 0.950 . S
H1899 C1875 0.949 . S
H1900 C1877 0.950 . S
H1901 C1879 0.950 . S
C1902 C1903 1.349 . S
C1902 C1904 1.327 . S
C1902 H1927 0.950 . S
C1903 C1902 1.349 . S
C1903 C1919 1.349 . S
C1904 C1902 1.327 . S
C1904 C1923 1.429 . S
C1904 H1928 0.950 . S
C1905 C1922 1.574 . S
C1905 C1924 1.368 . S
C1905 H1929 0.949 . S
H1906 C1910 0.949 . S
C1907 C1908 1.349 . S
C1907 C1909 1.327 . S
C1907 H1930 0.950 . S
C1908 C1907 1.349 . S
C1908 C1920 1.349 . S
C1909 C1907 1.327 . S
C1909 C1925 1.429 . S
C1909 H1931 0.950 . S
C1910 H1906 0.949 . S
C1910 C1918 1.574 . S
C1910 C1926 1.368 . S
H1911 C1919 0.950 . S
H1912 C1917 0.950 . S
H1913 C1918 0.949 . S
H1914 C1920 0.950 . S
H1915 C1921 0.950 . S
H1916 C1922 0.949 . S
C1917 H1912 0.950 . S
C1917 C1919 1.327 . S
C1917 C1923 1.429 . S
C1918 C1910 1.574 . S
C1918 H1913 0.949 . S
C1918 C1924 1.368 . S
C1919 C1903 1.349 . S
C1919 H1911 0.950 . S
C1919 C1917 1.327 . S
C1920 C1908 1.349 . S
C1920 H1914 0.950 . S
C1920 C1921 1.327 . S
C1921 H1915 0.950 . S
C1921 C1920 1.327 . S
C1921 C1925 1.429 . S
C1922 C1905 1.574 . S
C1922 H1916 0.949 . S
C1922 C1926 1.368 . S
C1923 C1904 1.429 . S
C1923 C1917 1.429 . S
C1923 C1924 1.523 . S
C1924 C1905 1.368 . S
C1924 C1918 1.368 . S
C1924 C1923 1.523 . S
C1925 C1909 1.429 . S
C1925 C1921 1.429 . S
C1925 C1926 1.523 . S
C1926 C1910 1.368 . S
C1926 C1922 1.368 . S
C1926 C1925 1.523 . S
H1927 C1902 0.950 . S
H1928 C1904 0.950 . S
H1929 C1905 0.949 . S
H1930 C1907 0.950 . S
H1931 C1909 0.950 . S
C1932 C1933 1.349 . S
C1932 C1934 1.327 . S
C1932 H1957 0.950 . S
C1933 C1932 1.349 . S
C1933 C1949 1.349 . S
C1934 C1932 1.327 . S
C1934 C1953 1.429 . S
C1934 H1958 0.950 . S
C1935 C1952 1.574 . S
C1935 C1954 1.368 . S
C1935 H1959 0.949 . S
H1936 C1940 0.949 . S
C1937 C1938 1.349 . S
C1937 C1939 1.327 . S
C1937 H1960 0.950 . S
C1938 C1937 1.349 . S
C1938 C1950 1.349 . S
C1939 C1937 1.327 . S
C1939 C1955 1.429 . S
C1939 H1961 0.950 . S
C1940 H1936 0.949 . S
C1940 C1948 1.574 . S
C1940 C1956 1.368 . S
H1941 C1949 0.950 . S
H1942 C1947 0.950 . S
H1943 C1948 0.949 . S
H1944 C1950 0.950 . S
H1945 C1951 0.950 . S
H1946 C1952 0.949 . S
C1947 H1942 0.950 . S
C1947 C1949 1.327 . S
C1947 C1953 1.429 . S
C1948 C1940 1.574 . S
C1948 H1943 0.949 . S
C1948 C1954 1.368 . S
C1949 C1933 1.349 . S
C1949 H1941 0.950 . S
C1949 C1947 1.327 . S
C1950 C1938 1.349 . S
C1950 H1944 0.950 . S
C1950 C1951 1.327 . S
C1951 H1945 0.950 . S
C1951 C1950 1.327 . S
C1951 C1955 1.429 . S
C1952 C1935 1.574 . S
C1952 H1946 0.949 . S
C1952 C1956 1.368 . S
C1953 C1934 1.429 . S
C1953 C1947 1.429 . S
C1953 C1954 1.523 . S
C1954 C1935 1.368 . S
C1954 C1948 1.368 . S
C1954 C1953 1.523 . S
C1955 C1939 1.429 . S
C1955 C1951 1.429 . S
C1955 C1956 1.523 . S
C1956 C1940 1.368 . S
C1956 C1952 1.368 . S
C1956 C1955 1.523 . S
H1957 C1932 0.950 . S
H1958 C1934 0.950 . S
H1959 C1935 0.949 . S
H1960 C1937 0.950 . S
H1961 C1939 0.950 . S
C1962 C1963 1.349 . S
C1962 C1964 1.327 . S
C1962 H1987 0.950 . S
C1963 C1962 1.349 . S
C1963 C1979 1.349 . S
C1964 C1962 1.327 . S
C1964 C1983 1.429 . S
C1964 H1988 0.950 . S
C1965 C1982 1.574 . S
C1965 C1984 1.368 . S
C1965 H1989 0.949 . S
H1966 C1970 0.949 . S
C1967 C1968 1.349 1_545 S
C1967 C1969 1.327 . S
C1967 H1990 0.950 . S
C1968 C1967 1.349 1_565 S
C1968 C1980 1.349 . S
C1969 C1967 1.327 . S
C1969 C1985 1.429 1_545 S
C1969 H1991 0.950 . S
C1970 H1966 0.949 . S
C1970 C1978 1.574 . S
C1970 C1986 1.368 . S
H1971 C1979 0.950 . S
H1972 C1977 0.950 . S
H1973 C1978 0.949 . S
H1974 C1980 0.950 . S
H1975 C1981 0.950 . S
H1976 C1982 0.949 1_545 S
C1977 H1972 0.950 . S
C1977 C1979 1.327 . S
C1977 C1983 1.429 . S
C1978 C1970 1.574 . S
C1978 H1973 0.949 . S
C1978 C1984 1.368 . S
C1979 C1963 1.349 . S
C1979 H1971 0.950 . S
C1979 C1977 1.327 . S
C1980 C1968 1.349 . S
C1980 H1974 0.950 . S
C1980 C1981 1.327 . S
C1981 H1975 0.950 . S
C1981 C1980 1.327 . S
C1981 C1985 1.429 . S
C1982 C1965 1.574 . S
C1982 H1976 0.949 1_565 S
C1982 C1986 1.368 . S
C1983 C1964 1.429 . S
C1983 C1977 1.429 . S
C1983 C1984 1.523 . S
C1984 C1965 1.368 . S
C1984 C1978 1.368 . S
C1984 C1983 1.523 . S
C1985 C1969 1.429 1_565 S
C1985 C1981 1.429 . S
C1985 C1986 1.523 . S
C1986 C1970 1.368 . S
C1986 C1982 1.368 . S
C1986 C1985 1.523 . S
H1987 C1962 0.950 . S
H1988 C1964 0.950 . S
H1989 C1965 0.949 . S
H1990 C1967 0.950 . S
H1991 C1969 0.950 . S
C1992 C1993 1.349 . S
C1992 C1994 1.327 . S
C1992 H2017 0.950 . S
C1993 C1992 1.349 . S
C1993 C2009 1.349 . S
C1994 C1992 1.327 . S
C1994 C2013 1.429 . S
C1994 H2018 0.954 1_455 S
C1995 C2012 1.574 . S
C1995 C2014 1.368 . S
C1995 H2019 0.949 . S
H1996 C2000 0.949 1_655 S
C1997 C1998 1.349 . S
C1997 C1999 1.327 . S
C1997 H2020 0.950 . S
C1998 C1997 1.349 . S
C1998 C2010 1.349 1_455 S
C1999 C1997 1.327 . S
C1999 C2015 1.429 . S
C1999 H2021 0.950 . S
C2000 H1996 0.949 1_455 S
C2000 C2008 1.574 . S
C2000 C2016 1.368 . S
H2001 C2009 0.950 . S
H2002 C2007 0.950 . S
H2003 C2008 0.949 1_655 S
H2004 C2010 0.950 . S
H2005 C2011 0.950 . S
H2006 C2012 0.949 . S
C2007 H2002 0.950 . S
C2007 C2009 1.327 . S
C2007 C2013 1.429 . S
C2008 C2000 1.574 . S
C2008 H2003 0.949 1_455 S
C2008 C2014 1.368 . S
C2009 C1993 1.349 . S
C2009 H2001 0.950 . S
C2009 C2007 1.327 . S
C2010 C1998 1.349 1_655 S
C2010 H2004 0.950 . S
C2010 C2011 1.327 . S
C2011 H2005 0.950 . S
C2011 C2010 1.327 . S
C2011 C2015 1.429 1_655 S
C2012 C1995 1.574 . S
C2012 H2006 0.949 . S
C2012 C2016 1.368 . S
C2013 C1994 1.429 . S
C2013 C2007 1.429 . S
C2013 C2014 1.523 . S
C2014 C1995 1.368 . S
C2014 C2008 1.368 . S
C2014 C2013 1.523 . S
C2015 C1999 1.429 . S
C2015 C2011 1.429 1_455 S
C2015 C2016 1.523 . S
C2016 C2000 1.368 . S
C2016 C2012 1.368 . S
C2016 C2015 1.523 . S
H2017 C1992 0.950 . S
H2018 C1994 0.954 1_655 S
H2019 C1995 0.949 . S
H2020 C1997 0.950 . S
H2021 C1999 0.950 . S
C2022 C2023 1.349 . S
C2022 C2024 1.327 . S
C2022 H2047 0.950 . S
C2023 C2022 1.349 . S
C2023 C2039 1.349 . S
C2024 C2022 1.327 . S
C2024 C2043 1.429 . S
C2024 H2048 0.950 . S
C2025 C2042 1.574 . S
C2025 C2044 1.368 . S
C2025 H2049 0.949 . S
H2026 C2030 0.949 . S
C2027 C2028 1.349 . S
C2027 C2029 1.327 . S
C2027 H2050 0.950 . S
C2028 C2027 1.349 . S
C2028 C2040 1.349 . S
C2029 C2027 1.327 . S
C2029 C2045 1.429 . S
C2029 H2051 0.950 . S
C2030 H2026 0.949 . S
C2030 C2038 1.574 . S
C2030 C2046 1.368 . S
H2031 C2039 0.950 . S
H2032 C2037 0.950 . S
H2033 C2038 0.949 . S
H2034 C2040 0.950 . S
H2035 C2041 0.950 . S
H2036 C2042 0.949 . S
C2037 H2032 0.950 . S
C2037 C2039 1.327 . S
C2037 C2043 1.429 . S
C2038 C2030 1.574 . S
C2038 H2033 0.949 . S
C2038 C2044 1.368 . S
C2039 C2023 1.349 . S
C2039 H2031 0.950 . S
C2039 C2037 1.327 . S
C2040 C2028 1.349 . S
C2040 H2034 0.950 . S
C2040 C2041 1.327 . S
C2041 H2035 0.950 . S
C2041 C2040 1.327 . S
C2041 C2045 1.429 . S
C2042 C2025 1.574 . S
C2042 H2036 0.949 . S
C2042 C2046 1.368 . S
C2043 C2024 1.429 . S
C2043 C2037 1.429 . S
C2043 C2044 1.523 . S
C2044 C2025 1.368 . S
C2044 C2038 1.368 . S
C2044 C2043 1.523 . S
C2045 C2029 1.429 . S
C2045 C2041 1.429 . S
C2045 C2046 1.523 . S
C2046 C2030 1.368 . S
C2046 C2042 1.368 . S
C2046 C2045 1.523 . S
H2047 C2022 0.950 . S
H2048 C2024 0.950 . S
H2049 C2025 0.949 . S
H2050 C2027 0.950 . S
H2051 C2029 0.950 . S
C2052 C2053 1.349 . S
C2052 C2054 1.327 . S
C2052 H2077 0.950 . S
C2053 C2052 1.349 . S
C2053 C2069 1.349 . S
C2054 C2052 1.327 . S
C2054 C2073 1.429 . S
C2054 H2078 0.950 . S
C2055 C2072 1.574 . S
C2055 C2074 1.368 . S
C2055 H2079 0.949 . S
H2056 C2060 0.949 . S
C2057 C2058 1.349 . S
C2057 C2059 1.327 . S
C2057 H2080 0.950 . S
C2058 C2057 1.349 . S
C2058 C2070 1.349 . S
C2059 C2057 1.327 . S
C2059 C2075 1.429 . S
C2059 H2081 0.950 . S
C2060 H2056 0.949 . S
C2060 C2068 1.574 . S
C2060 C2076 1.368 . S
H2061 C2069 0.950 . S
H2062 C2067 0.950 . S
H2063 C2068 0.949 . S
H2064 C2070 0.950 . S
H2065 C2071 0.950 . S
H2066 C2072 0.949 . S
C2067 H2062 0.950 . S
C2067 C2069 1.327 . S
C2067 C2073 1.429 . S
C2068 C2060 1.574 . S
C2068 H2063 0.949 . S
C2068 C2074 1.368 . S
C2069 C2053 1.349 . S
C2069 H2061 0.950 . S
C2069 C2067 1.327 . S
C2070 C2058 1.349 . S
C2070 H2064 0.950 . S
C2070 C2071 1.327 . S
C2071 H2065 0.950 . S
C2071 C2070 1.327 . S
C2071 C2075 1.429 . S
C2072 C2055 1.574 . S
C2072 H2066 0.949 . S
C2072 C2076 1.368 . S
C2073 C2054 1.429 . S
C2073 C2067 1.429 . S
C2073 C2074 1.523 . S
C2074 C2055 1.368 . S
C2074 C2068 1.368 . S
C2074 C2073 1.523 . S
C2075 C2059 1.429 . S
C2075 C2071 1.429 . S
C2075 C2076 1.523 . S
C2076 C2060 1.368 . S
C2076 C2072 1.368 . S
C2076 C2075 1.523 . S
H2077 C2052 0.950 . S
H2078 C2054 0.950 . S
H2079 C2055 0.949 . S
H2080 C2057 0.950 . S
H2081 C2059 0.950 . S
C2082 C2083 1.349 . S
C2082 C2084 1.327 . S
C2082 H2107 0.950 . S
C2083 C2082 1.349 . S
C2083 C2099 1.349 . S
C2084 C2082 1.327 . S
C2084 C2103 1.429 . S
C2084 H2108 0.950 . S
C2085 C2102 1.574 . S
C2085 C2104 1.368 . S
C2085 H2109 0.949 . S
H2086 C2090 0.949 . S
C2087 C2088 1.349 . S
C2087 C2089 1.327 . S
C2087 H2110 0.950 . S
C2088 C2087 1.349 . S
C2088 C2100 1.349 . S
C2089 C2087 1.327 . S
C2089 C2105 1.429 . S
C2089 H2111 0.950 . S
C2090 H2086 0.949 . S
C2090 C2098 1.574 . S
C2090 C2106 1.368 . S
H2091 C2099 0.950 . S
H2092 C2097 0.950 . S
H2093 C2098 0.949 . S
H2094 C2100 0.950 . S
H2095 C2101 0.950 . S
H2096 C2102 0.949 . S
C2097 H2092 0.950 . S
C2097 C2099 1.327 . S
C2097 C2103 1.429 . S
C2098 C2090 1.574 . S
C2098 H2093 0.949 . S
C2098 C2104 1.368 . S
C2099 C2083 1.349 . S
C2099 H2091 0.950 . S
C2099 C2097 1.327 . S
C2100 C2088 1.349 . S
C2100 H2094 0.950 . S
C2100 C2101 1.327 . S
C2101 H2095 0.950 . S
C2101 C2100 1.327 . S
C2101 C2105 1.429 . S
C2102 C2085 1.574 . S
C2102 H2096 0.949 . S
C2102 C2106 1.368 . S
C2103 C2084 1.429 . S
C2103 C2097 1.429 . S
C2103 C2104 1.523 . S
C2104 C2085 1.368 . S
C2104 C2098 1.368 . S
C2104 C2103 1.523 . S
C2105 C2089 1.429 . S
C2105 C2101 1.429 . S
C2105 C2106 1.523 . S
C2106 C2090 1.368 . S
C2106 C2102 1.368 . S
C2106 C2105 1.523 . S
H2107 C2082 0.950 . S
H2108 C2084 0.950 . S
H2109 C2085 0.949 . S
H2110 C2087 0.950 . S
H2111 C2089 0.950 . S
C2112 C2113 1.349 . S
C2112 C2114 1.327 . S
C2112 H2137 0.950 . S
C2113 C2112 1.349 . S
C2113 C2129 1.349 . S
C2114 C2112 1.327 . S
C2114 C2133 1.429 . S
C2114 H2138 0.950 . S
C2115 C2132 1.574 . S
C2115 C2134 1.368 . S
C2115 H2139 0.949 . S
H2116 C2120 0.949 . S
C2117 C2118 1.349 1_565 S
C2117 C2119 1.327 1_565 S
C2117 H2140 0.950 . S
C2118 C2117 1.349 1_545 S
C2118 C2130 1.349 . S
C2119 C2117 1.327 1_545 S
C2119 C2135 1.429 . S
C2119 H2141 0.950 1_545 S
C2120 H2116 0.949 . S
C2120 C2128 1.574 . S
C2120 C2136 1.368 . S
H2121 C2129 0.950 . S
H2122 C2127 0.950 . S
H2123 C2128 0.949 . S
H2124 C2130 0.950 . S
H2125 C2131 0.950 . S
H2126 C2132 0.889 1_565 S
C2127 H2122 0.950 . S
C2127 C2129 1.327 . S
C2127 C2133 1.429 . S
C2128 C2120 1.574 . S
C2128 H2123 0.949 . S
C2128 C2134 1.368 . S
C2129 C2113 1.349 . S
C2129 H2121 0.950 . S
C2129 C2127 1.327 . S
C2130 C2118 1.349 . S
C2130 H2124 0.950 . S
C2130 C2131 1.327 . S
C2131 H2125 0.950 . S
C2131 C2130 1.327 . S
C2131 C2135 1.429 . S
C2132 C2115 1.574 . S
C2132 H2126 0.889 1_545 S
C2132 C2136 1.368 . S
C2133 C2114 1.429 . S
C2133 C2127 1.429 . S
C2133 C2134 1.523 . S
C2134 C2115 1.368 . S
C2134 C2128 1.368 . S
C2134 C2133 1.523 . S
C2135 C2119 1.429 . S
C2135 C2131 1.429 . S
C2135 C2136 1.523 . S
C2136 C2120 1.368 . S
C2136 C2132 1.368 . S
C2136 C2135 1.523 . S
H2137 C2112 0.950 . S
H2138 C2114 0.950 . S
H2139 C2115 0.949 . S
H2140 C2117 0.950 . S
H2141 C2119 0.950 1_565 S
C2142 C2143 1.349 . S
C2142 C2144 1.327 . S
C2142 H2167 0.950 . S
C2143 C2142 1.349 . S
C2143 C2159 1.349 . S
C2144 C2142 1.327 . S
C2144 C2163 1.429 . S
C2144 H2168 0.950 . S
C2145 C2162 1.574 . S
C2145 C2164 1.368 . S
C2145 H2169 0.949 . S
H2146 C2150 0.949 . S
C2147 C2148 1.349 . S
C2147 C2149 1.327 . S
C2147 H2170 0.950 . S
C2148 C2147 1.349 . S
C2148 C2160 1.349 . S
C2149 C2147 1.327 . S
C2149 C2165 1.429 . S
C2149 H2171 0.950 . S
C2150 H2146 0.949 . S
C2150 C2158 1.574 . S
C2150 C2166 1.368 . S
H2151 C2159 0.950 . S
H2152 C2157 0.950 . S
H2153 C2158 0.949 . S
H2154 C2160 0.950 . S
H2155 C2161 0.950 . S
H2156 C2162 0.949 . S
C2157 H2152 0.950 . S
C2157 C2159 1.327 . S
C2157 C2163 1.429 . S
C2158 C2150 1.574 . S
C2158 H2153 0.949 . S
C2158 C2164 1.368 . S
C2159 C2143 1.349 . S
C2159 H2151 0.950 . S
C2159 C2157 1.327 . S
C2160 C2148 1.349 . S
C2160 H2154 0.950 . S
C2160 C2161 1.327 . S
C2161 H2155 0.950 . S
C2161 C2160 1.327 . S
C2161 C2165 1.429 . S
C2162 C2145 1.574 . S
C2162 H2156 0.949 . S
C2162 C2166 1.368 . S
C2163 C2144 1.429 . S
C2163 C2157 1.429 . S
C2163 C2164 1.523 . S
C2164 C2145 1.368 . S
C2164 C2158 1.368 . S
C2164 C2163 1.523 . S
C2165 C2149 1.429 . S
C2165 C2161 1.429 . S
C2165 C2166 1.523 . S
C2166 C2150 1.368 . S
C2166 C2162 1.368 . S
C2166 C2165 1.523 . S
H2167 C2142 0.950 . S
H2168 C2144 0.950 . S
H2169 C2145 0.949 . S
H2170 C2147 0.950 . S
H2171 C2149 0.950 . S
C2172 C2173 1.349 . S
C2172 C2174 1.327 . S
C2172 H2197 0.950 . S
C2173 C2172 1.349 . S
C2173 C2189 1.349 . S
C2174 C2172 1.327 . S
C2174 C2193 1.429 . S
C2174 H2198 0.950 . S
C2175 C2192 1.574 . S
C2175 C2194 1.368 . S
C2175 H2199 0.949 . S
H2176 C2180 0.949 . S
C2177 C2178 1.349 . S
C2177 C2179 1.327 . S
C2177 H2200 0.950 . S
C2178 C2177 1.349 . S
C2178 C2190 1.349 . S
C2179 C2177 1.327 . S
C2179 C2195 1.429 . S
C2179 H2201 0.950 . S
C2180 H2176 0.949 . S
C2180 C2188 1.574 . S
C2180 C2196 1.368 . S
H2181 C2189 0.950 . S
H2182 C2187 0.950 . S
H2183 C2188 0.949 . S
H2184 C2190 0.950 . S
H2185 C2191 0.950 . S
H2186 C2192 0.949 . S
C2187 H2182 0.950 . S
C2187 C2189 1.327 . S
C2187 C2193 1.429 . S
C2188 C2180 1.574 . S
C2188 H2183 0.949 . S
C2188 C2194 1.368 . S
C2189 C2173 1.349 . S
C2189 H2181 0.950 . S
C2189 C2187 1.327 . S
C2190 C2178 1.349 . S
C2190 H2184 0.950 . S
C2190 C2191 1.327 . S
C2191 H2185 0.950 . S
C2191 C2190 1.327 . S
C2191 C2195 1.429 . S
C2192 C2175 1.574 . S
C2192 H2186 0.949 . S
C2192 C2196 1.368 . S
C2193 C2174 1.429 . S
C2193 C2187 1.429 . S
C2193 C2194 1.523 . S
C2194 C2175 1.368 . S
C2194 C2188 1.368 . S
C2194 C2193 1.523 . S
C2195 C2179 1.429 . S
C2195 C2191 1.429 . S
C2195 C2196 1.523 . S
C2196 C2180 1.368 . S
C2196 C2192 1.368 . S
C2196 C2195 1.523 . S
H2197 C2172 0.950 . S
H2198 C2174 0.950 . S
H2199 C2175 0.949 . S
H2200 C2177 0.950 . S
H2201 C2179 0.950 . S
C2202 C2203 1.349 . S
C2202 C2204 1.327 . S
C2202 H2227 0.950 . S
C2203 C2202 1.349 . S
C2203 C2219 1.349 . S
C2204 C2202 1.327 . S
C2204 C2223 1.429 . S
C2204 H2228 0.950 . S
C2205 C2222 1.574 . S
C2205 C2224 1.368 . S
C2205 H2229 0.949 . S
H2206 C2210 0.949 . S
C2207 C2208 1.349 . S
C2207 C2209 1.327 . S
C2207 H2230 0.950 . S
C2208 C2207 1.349 . S
C2208 C2220 1.349 . S
C2209 C2207 1.327 . S
C2209 C2225 1.429 . S
C2209 H2231 0.950 . S
C2210 H2206 0.949 . S
C2210 C2218 1.574 . S
C2210 C2226 1.368 . S
H2211 C2219 0.950 . S
H2212 C2217 0.950 . S
H2213 C2218 0.949 . S
H2214 C2220 0.950 . S
H2215 C2221 0.950 . S
H2216 C2222 0.949 . S
C2217 H2212 0.950 . S
C2217 C2219 1.327 . S
C2217 C2223 1.429 . S
C2218 C2210 1.574 . S
C2218 H2213 0.949 . S
C2218 C2224 1.368 . S
C2219 C2203 1.349 . S
C2219 H2211 0.950 . S
C2219 C2217 1.327 . S
C2220 C2208 1.349 . S
C2220 H2214 0.950 . S
C2220 C2221 1.327 . S
C2221 H2215 0.950 . S
C2221 C2220 1.327 . S
C2221 C2225 1.429 . S
C2222 C2205 1.574 . S
C2222 H2216 0.949 . S
C2222 C2226 1.368 . S
C2223 C2204 1.429 . S
C2223 C2217 1.429 . S
C2223 C2224 1.523 . S
C2224 C2205 1.368 . S
C2224 C2218 1.368 . S
C2224 C2223 1.523 . S
C2225 C2209 1.429 . S
C2225 C2221 1.429 . S
C2225 C2226 1.523 . S
C2226 C2210 1.368 . S
C2226 C2222 1.368 . S
C2226 C2225 1.523 . S
H2227 C2202 0.950 . S
H2228 C2204 0.950 . S
H2229 C2205 0.949 . S
H2230 C2207 0.950 . S
H2231 C2209 0.950 . S
C2232 C2233 1.349 . S
C2232 C2234 1.327 . S
C2232 H2257 0.950 . S
C2233 C2232 1.349 . S
C2233 C2249 1.349 . S
C2234 C2232 1.327 . S
C2234 C2253 1.429 . S
C2234 H2258 0.950 . S
C2235 C2252 1.574 . S
C2235 C2254 1.368 . S
C2235 H2259 0.949 . S
H2236 C2240 0.949 . S
C2237 C2238 1.349 . S
C2237 C2239 1.327 . S
C2237 H2260 0.950 . S
C2238 C2237 1.349 . S
C2238 C2250 1.349 . S
C2239 C2237 1.327 . S
C2239 C2255 1.429 . S
C2239 H2261 0.950 . S
C2240 H2236 0.949 . S
C2240 C2248 1.574 . S
C2240 C2256 1.368 . S
H2241 C2249 0.950 . S
H2242 C2247 0.950 . S
H2243 C2248 0.949 . S
H2244 C2250 0.950 . S
H2245 C2251 0.950 . S
H2246 C2252 0.949 . S
C2247 H2242 0.950 . S
C2247 C2249 1.327 . S
C2247 C2253 1.429 . S
C2248 C2240 1.574 . S
C2248 H2243 0.949 . S
C2248 C2254 1.368 . S
C2249 C2233 1.349 . S
C2249 H2241 0.950 . S
C2249 C2247 1.327 . S
C2250 C2238 1.349 . S
C2250 H2244 0.950 . S
C2250 C2251 1.327 . S
C2251 H2245 0.950 . S
C2251 C2250 1.327 . S
C2251 C2255 1.429 . S
C2252 C2235 1.574 . S
C2252 H2246 0.949 . S
C2252 C2256 1.368 . S
C2253 C2234 1.429 . S
C2253 C2247 1.429 . S
C2253 C2254 1.523 . S
C2254 C2235 1.368 . S
C2254 C2248 1.368 . S
C2254 C2253 1.523 . S
C2255 C2239 1.429 . S
C2255 C2251 1.429 . S
C2255 C2256 1.523 . S
C2256 C2240 1.368 . S
C2256 C2252 1.368 . S
C2256 C2255 1.523 . S
H2257 C2232 0.950 . S
H2258 C2234 0.950 . S
H2259 C2235 0.949 . S
H2260 C2237 0.950 . S
H2261 C2239 0.950 . S
C2262 C2263 1.349 . S
C2262 C2264 1.327 . S
C2262 H2287 0.950 . S
C2263 C2262 1.349 . S
C2263 C2279 1.349 . S
C2264 C2262 1.327 . S
C2264 C2283 1.429 . S
C2264 H2288 0.950 . S
C2265 C2282 1.574 . S
C2265 C2284 1.368 . S
C2265 H2289 0.949 . S
H2266 C2270 0.949 . S
C2267 C2268 1.349 . S
C2267 C2269 1.327 . S
C2267 H2290 0.950 . S
C2268 C2267 1.349 . S
C2268 C2280 1.349 . S
C2269 C2267 1.327 . S
C2269 C2285 1.429 . S
C2269 H2291 0.950 . S
C2270 H2266 0.949 . S
C2270 C2278 1.574 . S
C2270 C2286 1.368 . S
H2271 C2279 0.950 . S
H2272 C2277 0.950 . S
H2273 C2278 0.949 . S
H2274 C2280 0.950 . S
H2275 C2281 0.950 . S
H2276 C2282 0.949 . S
C2277 H2272 0.950 . S
C2277 C2279 1.327 . S
C2277 C2283 1.429 . S
C2278 C2270 1.574 . S
C2278 H2273 0.949 . S
C2278 C2284 1.368 . S
C2279 C2263 1.349 . S
C2279 H2271 0.950 . S
C2279 C2277 1.327 . S
C2280 C2268 1.349 . S
C2280 H2274 0.950 . S
C2280 C2281 1.327 . S
C2281 H2275 0.950 . S
C2281 C2280 1.327 . S
C2281 C2285 1.429 . S
C2282 C2265 1.574 . S
C2282 H2276 0.949 . S
C2282 C2286 1.368 . S
C2283 C2264 1.429 . S
C2283 C2277 1.429 . S
C2283 C2284 1.523 . S
C2284 C2265 1.368 . S
C2284 C2278 1.368 . S
C2284 C2283 1.523 . S
C2285 C2269 1.429 . S
C2285 C2281 1.429 . S
C2285 C2286 1.523 . S
C2286 C2270 1.368 . S
C2286 C2282 1.368 . S
C2286 C2285 1.523 . S
H2287 C2262 0.950 . S
H2288 C2264 0.950 . S
H2289 C2265 0.949 . S
H2290 C2267 0.950 . S
H2291 C2269 0.950 . S
C2292 C2293 1.349 . S
C2292 C2294 1.327 . S
C2292 H2317 0.950 . S
C2293 C2292 1.349 . S
C2293 C2309 1.349 . S
C2294 C2292 1.327 . S
C2294 C2313 1.429 . S
C2294 H2318 0.950 . S
C2295 C2312 1.574 . S
C2295 C2314 1.368 . S
C2295 H2319 0.949 . S
H2296 C2300 0.949 . S
C2297 C2298 1.349 . S
C2297 C2299 1.327 . S
C2297 H2320 0.950 . S
C2298 C2297 1.349 . S
C2298 C2310 1.349 . S
C2299 C2297 1.327 . S
C2299 C2315 1.429 . S
C2299 H2321 0.950 . S
C2300 H2296 0.949 . S
C2300 C2308 1.574 . S
C2300 C2316 1.368 . S
H2301 C2309 0.950 . S
H2302 C2307 0.950 . S
H2303 C2308 0.949 . S
H2304 C2310 0.950 . S
H2305 C2311 0.950 . S
H2306 C2312 0.949 . S
C2307 H2302 0.950 . S
C2307 C2309 1.327 . S
C2307 C2313 1.429 . S
C2308 C2300 1.574 . S
C2308 H2303 0.949 . S
C2308 C2314 1.368 . S
C2309 C2293 1.349 . S
C2309 H2301 0.950 . S
C2309 C2307 1.327 . S
C2310 C2298 1.349 . S
C2310 H2304 0.950 . S
C2310 C2311 1.327 . S
C2311 H2305 0.950 . S
C2311 C2310 1.327 . S
C2311 C2315 1.429 . S
C2312 C2295 1.574 . S
C2312 H2306 0.949 . S
C2312 C2316 1.368 . S
C2313 C2294 1.429 . S
C2313 C2307 1.429 . S
C2313 C2314 1.523 . S
C2314 C2295 1.368 . S
C2314 C2308 1.368 . S
C2314 C2313 1.523 . S
C2315 C2299 1.429 . S
C2315 C2311 1.429 . S
C2315 C2316 1.523 . S
C2316 C2300 1.368 . S
C2316 C2312 1.368 . S
C2316 C2315 1.523 . S
H2317 C2292 0.950 . S
H2318 C2294 0.950 . S
H2319 C2295 0.949 . S
H2320 C2297 0.950 . S
H2321 C2299 0.950 . S
C2322 C2323 1.349 . S
C2322 C2324 1.327 . S
C2322 H2347 0.950 . S
C2323 C2322 1.349 . S
C2323 C2339 1.349 . S
C2324 C2322 1.327 . S
C2324 C2343 1.429 . S
C2324 H2348 0.950 . S
C2325 C2342 1.574 . S
C2325 C2344 1.368 . S
C2325 H2349 0.949 . S
H2326 C2330 0.949 . S
C2327 C2328 1.349 . S
C2327 C2329 1.327 . S
C2327 H2350 0.950 . S
C2328 C2327 1.349 . S
C2328 C2340 1.349 . S
C2329 C2327 1.327 . S
C2329 C2345 1.429 . S
C2329 H2351 0.950 . S
C2330 H2326 0.949 . S
C2330 C2338 1.574 . S
C2330 C2346 1.368 . S
H2331 C2339 0.950 . S
H2332 C2337 0.950 . S
H2333 C2338 0.949 . S
H2334 C2340 0.950 . S
H2335 C2341 0.950 . S
H2336 C2342 0.949 . S
C2337 H2332 0.950 . S
C2337 C2339 1.327 . S
C2337 C2343 1.429 . S
C2338 C2330 1.574 . S
C2338 H2333 0.949 . S
C2338 C2344 1.368 . S
C2339 C2323 1.349 . S
C2339 H2331 0.950 . S
C2339 C2337 1.327 . S
C2340 C2328 1.349 . S
C2340 H2334 0.950 . S
C2340 C2341 1.327 . S
C2341 H2335 0.950 . S
C2341 C2340 1.327 . S
C2341 C2345 1.429 . S
C2342 C2325 1.574 . S
C2342 H2336 0.949 . S
C2342 C2346 1.368 . S
C2343 C2324 1.429 . S
C2343 C2337 1.429 . S
C2343 C2344 1.523 . S
C2344 C2325 1.368 . S
C2344 C2338 1.368 . S
C2344 C2343 1.523 . S
C2345 C2329 1.429 . S
C2345 C2341 1.429 . S
C2345 C2346 1.523 . S
C2346 C2330 1.368 . S
C2346 C2342 1.368 . S
C2346 C2345 1.523 . S
H2347 C2322 0.950 . S
H2348 C2324 0.950 . S
H2349 C2325 0.949 . S
H2350 C2327 0.950 . S
H2351 C2329 0.950 . S
C2352 C2353 1.349 . S
C2352 C2354 1.327 . S
C2352 H2377 0.950 . S
C2353 C2352 1.349 . S
C2353 C2369 1.349 . S
C2354 C2352 1.327 . S
C2354 C2373 1.429 . S
C2354 H2378 0.950 . S
C2355 C2372 1.574 . S
C2355 C2374 1.368 . S
C2355 H2379 0.949 . S
H2356 C2360 0.949 . S
C2357 C2358 1.349 . S
C2357 C2359 1.327 . S
C2357 H2380 0.950 . S
C2358 C2357 1.349 . S
C2358 C2370 1.349 . S
C2359 C2357 1.327 . S
C2359 C2375 1.429 . S
C2359 H2381 0.950 . S
C2360 H2356 0.949 . S
C2360 C2368 1.574 . S
C2360 C2376 1.368 . S
H2361 C2369 0.950 . S
H2362 C2367 0.950 . S
H2363 C2368 0.949 . S
H2364 C2370 0.950 . S
H2365 C2371 0.950 . S
H2366 C2372 0.949 . S
C2367 H2362 0.950 . S
C2367 C2369 1.327 . S
C2367 C2373 1.429 . S
C2368 C2360 1.574 . S
C2368 H2363 0.949 . S
C2368 C2374 1.368 . S
C2369 C2353 1.349 . S
C2369 H2361 0.950 . S
C2369 C2367 1.327 . S
C2370 C2358 1.349 . S
C2370 H2364 0.950 . S
C2370 C2371 1.327 . S
C2371 H2365 0.950 . S
C2371 C2370 1.327 . S
C2371 C2375 1.429 . S
C2372 C2355 1.574 . S
C2372 H2366 0.949 . S
C2372 C2376 1.368 . S
C2373 C2354 1.429 . S
C2373 C2367 1.429 . S
C2373 C2374 1.523 . S
C2374 C2355 1.368 . S
C2374 C2368 1.368 . S
C2374 C2373 1.523 . S
C2375 C2359 1.429 . S
C2375 C2371 1.429 . S
C2375 C2376 1.523 . S
C2376 C2360 1.368 . S
C2376 C2372 1.368 . S
C2376 C2375 1.523 . S
H2377 C2352 0.950 . S
H2378 C2354 0.950 . S
H2379 C2355 0.949 . S
H2380 C2357 0.950 . S
H2381 C2359 0.950 . S
C2382 C2383 1.349 . S
C2382 C2384 1.327 . S
C2382 H2407 0.950 . S
C2383 C2382 1.349 . S
C2383 C2399 1.349 . S
C2384 C2382 1.327 . S
C2384 C2403 1.429 . S
C2384 H2408 0.950 . S
C2385 C2402 1.574 . S
C2385 C2404 1.368 . S
C2385 H2409 0.949 . S
H2386 C2390 0.949 . S
C2387 C2388 1.349 . S
C2387 C2389 1.327 . S
C2387 H2410 0.950 . S
C2388 C2387 1.349 . S
C2388 C2400 1.349 . S
C2389 C2387 1.327 . S
C2389 C2405 1.429 . S
C2389 H2411 0.950 . S
C2390 H2386 0.949 . S
C2390 C2398 1.574 . S
C2390 C2406 1.368 . S
H2391 C2399 0.950 . S
H2392 C2397 0.950 . S
H2393 C2398 0.949 . S
H2394 C2400 0.950 . S
H2395 C2401 0.950 . S
H2396 C2402 0.949 . S
C2397 H2392 0.950 . S
C2397 C2399 1.327 . S
C2397 C2403 1.429 . S
C2398 C2390 1.574 . S
C2398 H2393 0.949 . S
C2398 C2404 1.368 . S
C2399 C2383 1.349 . S
C2399 H2391 0.950 . S
C2399 C2397 1.327 . S
C2400 C2388 1.349 . S
C2400 H2394 0.950 . S
C2400 C2401 1.327 . S
C2401 H2395 0.950 . S
C2401 C2400 1.327 . S
C2401 C2405 1.429 . S
C2402 C2385 1.574 . S
C2402 H2396 0.949 . S
C2402 C2406 1.368 . S
C2403 C2384 1.429 . S
C2403 C2397 1.429 . S
C2403 C2404 1.523 . S
C2404 C2385 1.368 . S
C2404 C2398 1.368 . S
C2404 C2403 1.523 . S
C2405 C2389 1.429 . S
C2405 C2401 1.429 . S
C2405 C2406 1.523 . S
C2406 C2390 1.368 . S
C2406 C2402 1.368 . S
C2406 C2405 1.523 . S
H2407 C2382 0.950 . S
H2408 C2384 0.950 . S
H2409 C2385 0.949 . S
H2410 C2387 0.950 . S
H2411 C2389 0.950 . S
C2412 C2413 1.349 . S
C2412 C2414 1.327 . S
C2412 H2437 0.950 . S
C2413 C2412 1.349 . S
C2413 C2429 1.349 . S
C2414 C2412 1.327 . S
C2414 C2433 1.429 . S
C2414 H2438 0.950 . S
C2415 C2432 1.574 . S
C2415 C2434 1.368 . S
C2415 H2439 0.949 . S
H2416 C2420 0.949 . S
C2417 C2418 1.349 . S
C2417 C2419 1.327 . S
C2417 H2440 0.950 . S
C2418 C2417 1.349 . S
C2418 C2430 1.349 . S
C2419 C2417 1.327 . S
C2419 C2435 1.429 . S
C2419 H2441 0.950 . S
C2420 H2416 0.949 . S
C2420 C2428 1.574 . S
C2420 C2436 1.368 . S
H2421 C2429 0.950 . S
H2422 C2427 0.950 . S
H2423 C2428 0.949 . S
H2424 C2430 0.950 . S
H2425 C2431 0.950 . S
H2426 C2432 0.949 . S
C2427 H2422 0.950 . S
C2427 C2429 1.327 . S
C2427 C2433 1.429 . S
C2428 C2420 1.574 . S
C2428 H2423 0.949 . S
C2428 C2434 1.368 . S
C2429 C2413 1.349 . S
C2429 H2421 0.950 . S
C2429 C2427 1.327 . S
C2430 C2418 1.349 . S
C2430 H2424 0.950 . S
C2430 C2431 1.327 . S
C2431 H2425 0.950 . S
C2431 C2430 1.327 . S
C2431 C2435 1.429 . S
C2432 C2415 1.574 . S
C2432 H2426 0.949 . S
C2432 C2436 1.368 . S
C2433 C2414 1.429 . S
C2433 C2427 1.429 . S
C2433 C2434 1.523 . S
C2434 C2415 1.368 . S
C2434 C2428 1.368 . S
C2434 C2433 1.523 . S
C2435 C2419 1.429 . S
C2435 C2431 1.429 . S
C2435 C2436 1.523 . S
C2436 C2420 1.368 . S
C2436 C2432 1.368 . S
C2436 C2435 1.523 . S
H2437 C2412 0.950 . S
H2438 C2414 0.950 . S
H2439 C2415 0.949 . S
H2440 C2417 0.950 . S
H2441 C2419 0.950 . S
C2442 C2443 1.349 . S
C2442 C2444 1.327 . S
C2442 H2467 0.950 . S
C2443 C2442 1.349 . S
C2443 C2459 1.349 . S
C2444 C2442 1.327 . S
C2444 C2463 1.429 . S
C2444 H2468 0.950 . S
C2445 C2462 1.574 . S
C2445 C2464 1.368 . S
C2445 H2469 0.949 . S
H2446 C2450 0.949 . S
C2447 C2448 1.349 . S
C2447 C2449 1.327 . S
C2447 H2470 0.950 . S
C2448 C2447 1.349 . S
C2448 C2460 1.349 . S
C2449 C2447 1.327 . S
C2449 C2465 1.429 . S
C2449 H2471 0.950 . S
C2450 H2446 0.949 . S
C2450 C2458 1.574 . S
C2450 C2466 1.368 . S
H2451 C2459 0.950 . S
H2452 C2457 0.950 . S
H2453 C2458 0.949 . S
H2454 C2460 0.950 . S
H2455 C2461 0.950 . S
H2456 C2462 0.949 . S
C2457 H2452 0.950 . S
C2457 C2459 1.327 . S
C2457 C2463 1.429 . S
C2458 C2450 1.574 . S
C2458 H2453 0.949 . S
C2458 C2464 1.368 . S
C2459 C2443 1.349 . S
C2459 H2451 0.950 . S
C2459 C2457 1.327 . S
C2460 C2448 1.349 . S
C2460 H2454 0.950 . S
C2460 C2461 1.327 . S
C2461 H2455 0.950 . S
C2461 C2460 1.327 . S
C2461 C2465 1.429 . S
C2462 C2445 1.574 . S
C2462 H2456 0.949 . S
C2462 C2466 1.368 . S
C2463 C2444 1.429 . S
C2463 C2457 1.429 . S
C2463 C2464 1.523 . S
C2464 C2445 1.368 . S
C2464 C2458 1.368 . S
C2464 C2463 1.523 . S
C2465 C2449 1.429 . S
C2465 C2461 1.429 . S
C2465 C2466 1.523 . S
C2466 C2450 1.368 . S
C2466 C2462 1.368 . S
C2466 C2465 1.523 . S
H2467 C2442 0.950 . S
H2468 C2444 0.950 . S
H2469 C2445 0.949 . S
H2470 C2447 0.950 . S
H2471 C2449 0.950 . S
C2472 C2473 1.349 . S
C2472 C2474 1.327 . S
C2472 H2497 0.950 . S
C2473 C2472 1.349 . S
C2473 C2489 1.349 . S
C2474 C2472 1.327 . S
C2474 C2493 1.429 . S
C2474 H2498 0.950 . S
C2475 C2492 1.574 . S
C2475 C2494 1.368 . S
C2475 H2499 0.949 . S
H2476 C2480 0.949 . S
C2477 C2478 1.349 . S
C2477 C2479 1.327 . S
C2477 H2500 0.950 . S
C2478 C2477 1.349 . S
C2478 C2490 1.349 . S
C2479 C2477 1.327 . S
C2479 C2495 1.429 . S
C2479 H2501 0.950 . S
C2480 H2476 0.949 . S
C2480 C2488 1.574 . S
C2480 C2496 1.368 . S
H2481 C2489 0.950 . S
H2482 C2487 0.950 . S
H2483 C2488 0.949 . S
H2484 C2490 0.950 . S
H2485 C2491 0.950 . S
H2486 C2492 0.949 . S
C2487 H2482 0.950 . S
C2487 C2489 1.327 . S
C2487 C2493 1.429 . S
C2488 C2480 1.574 . S
C2488 H2483 0.949 . S
C2488 C2494 1.368 . S
C2489 C2473 1.349 . S
C2489 H2481 0.950 . S
C2489 C2487 1.327 . S
C2490 C2478 1.349 . S
C2490 H2484 0.950 . S
C2490 C2491 1.327 . S
C2491 H2485 0.950 . S
C2491 C2490 1.327 . S
C2491 C2495 1.429 . S
C2492 C2475 1.574 . S
C2492 H2486 0.949 . S
C2492 C2496 1.368 . S
C2493 C2474 1.429 . S
C2493 C2487 1.429 . S
C2493 C2494 1.523 . S
C2494 C2475 1.368 . S
C2494 C2488 1.368 . S
C2494 C2493 1.523 . S
C2495 C2479 1.429 . S
C2495 C2491 1.429 . S
C2495 C2496 1.523 . S
C2496 C2480 1.368 . S
C2496 C2492 1.368 . S
C2496 C2495 1.523 . S
H2497 C2472 0.950 . S
H2498 C2474 0.950 . S
H2499 C2475 0.949 . S
H2500 C2477 0.950 . S
H2501 C2479 0.950 . S
C883 C528 1.534 . S
C888 C708 1.513 . S
C913 C562 1.557 . S
C918 C728 1.527 . S
C943 C484 1.564 . S
C948 C751 1.560 . S
C973 C445 1.445 . S
C978 C731 1.440 . S
C1008 C748 1.414 . S
C1003 C367 1.430 . S
C1033 C411 1.412 . S
C1038 C711 1.406 . S
C1068 C718 1.531 . S
C1063 C450 1.545 . S
C1098 C738 1.509 . S
C1093 C372 1.536 . S
C1123 C406 1.562 . S
C1128 C743 1.561 . S
C1153 C523 1.443 . S
C1158 C723 1.440 . S
C1183 C567 1.408 . S
C1188 C758 1.395 . S
C1218 C703 1.426 . S
C1213 C489 1.424 . S
C1248 C768 1.513 . S
C1243 C60 1.534 . S
C1273 C94 1.557 . S
C1278 C788 1.527 . S
C1303 C16 1.564 . S
C1308 C811 1.561 . S
C1333 C679 1.445 . S
C1338 C791 1.440 . S
C1363 C601 1.430 . S
C1368 C808 1.414 . S
C1393 C645 1.412 . S
C1398 C771 1.406 . S
C1423 C684 1.545 . S
C1428 C778 1.531 . S
C1453 C606 1.536 . S
C1458 C798 1.509 . S
C1488 C803 1.561 . S
C1483 C640 1.562 . S
C1513 C55 1.442 . S
C1518 C783 1.439 . S
C1548 C818 1.395 . S
C1543 C99 1.408 . S
C1573 C21 1.424 . S
C1578 C763 1.426 . S
C1608 C828 1.513 . S
C1603 C294 1.534 . S
C1633 C328 1.557 . S
C1638 C848 1.527 . S
C1668 C871 1.560 . S
C1663 C250 1.564 . S
C1698 C851 1.440 . S
C1693 C211 1.445 . S
C1728 C868 1.414 . S
C1723 C133 1.430 . S
C1753 C177 1.412 . S
C1758 C831 1.406 . S
C1783 C216 1.545 . S
C1788 C838 1.531 . S
C1813 C138 1.536 . S
C1818 C858 1.510 . S
C1848 C863 1.560 . S
C1843 C172 1.562 . S
C1873 C289 1.442 . S
C1878 C843 1.439 . S
C1903 C333 1.408 . S
C1908 C878 1.395 . S
C1933 C255 1.424 . S
C1938 C823 1.426 . S
C1963 C586 1.230 . S
C1968 C721 1.203 1_565 S
C1998 C741 1.633 . S
C1993 C625 1.695 . S
C2023 C664 1.488 . S
C2028 C750 1.448 . S
C2053 C235 1.710 . S
C2058 C730 1.639 1_655 S
C2083 C274 1.472 . S
C2088 C761 1.429 . S
C2118 C710 1.200 1_545 S
C2113 C313 1.227 . S
C2143 C118 1.230 . S
C2148 C781 1.203 . S
C2173 C157 1.695 . S
C2178 C801 1.633 . S
C2203 C196 1.488 . S
C2208 C810 1.448 . S
C2233 C469 1.709 . S
C2238 C790 1.651 . S
C2268 C821 1.429 . S
C2263 C508 1.472 . S
C2293 C547 1.227 . S
C2298 C770 1.200 . S
C2323 C352 1.230 . S
C2328 C841 1.203 . S
C2353 C391 1.695 . S
C2358 C861 1.633 . S
C2388 C870 1.448 . S
C2383 C430 1.488 . S
C2413 C1 1.710 . S
C2418 C850 1.651 . S
C2443 C40 1.472 . S
C2448 C881 1.429 . S
C2473 C79 1.227 . S
C2478 C830 1.200 . S
