# Generated by pormake.
# Topology nom, (4,4)-cn, num edge types: 1
# Building blocks:
#     Node 0, Type 0, BuildingBlock: NAHDIM_clean_linker_0, # of connection points: 4
#     Node 1, Type 0, BuildingBlock: NAHDIM_clean_linker_0, # of connection points: 4
#     Node 2, Type 0, BuildingBlock: NAHDIM_clean_linker_0, # of connection points: 4
#     Node 3, Type 0, BuildingBlock: NAHDIM_clean_linker_0, # of connection points: 4
#     Node 4, Type 0, BuildingBlock: NAHDIM_clean_linker_0, # of connection points: 4
#     Node 5, Type 0, BuildingBlock: NAHDIM_clean_linker_0, # of connection points: 4
#     Node 6, Type 1, BuildingBlock: QUQFOY_clean_sbu_3, # of connection points: 4
#     Node 7, Type 1, BuildingBlock: QUQFOY_clean_sbu_3, # of connection points: 4
#     Node 8, Type 1, BuildingBlock: QUQFOY_clean_sbu_3, # of connection points: 4
#     Node 9, Type 1, BuildingBlock: QUQFOY_clean_sbu_3, # of connection points: 4
#     Node 10, Type 1, BuildingBlock: QUQFOY_clean_sbu_3, # of connection points: 4
#     Node 11, Type 1, BuildingBlock: QUQFOY_clean_sbu_3, # of connection points: 4
#     Edge 12, Type (0, 1), BuildingBlock: XUDNAN_clean_linker_2, # of connection points: 2
#     Edge 13, Type (0, 1), BuildingBlock: XUDNAN_clean_linker_2, # of connection points: 2
#     Edge 14, Type (0, 1), BuildingBlock: XUDNAN_clean_linker_2, # of connection points: 2
#     Edge 15, Type (0, 1), BuildingBlock: XUDNAN_clean_linker_2, # of connection points: 2
#     Edge 16, Type (0, 1), BuildingBlock: XUDNAN_clean_linker_2, # of connection points: 2
#     Edge 17, Type (0, 1), BuildingBlock: XUDNAN_clean_linker_2, # of connection points: 2
#     Edge 18, Type (0, 1), BuildingBlock: XUDNAN_clean_linker_2, # of connection points: 2
#     Edge 19, Type (0, 1), BuildingBlock: XUDNAN_clean_linker_2, # of connection points: 2
#     Edge 20, Type (0, 1), BuildingBlock: XUDNAN_clean_linker_2, # of connection points: 2
#     Edge 21, Type (0, 1), BuildingBlock: XUDNAN_clean_linker_2, # of connection points: 2
#     Edge 22, Type (0, 1), BuildingBlock: XUDNAN_clean_linker_2, # of connection points: 2
#     Edge 23, Type (0, 1), BuildingBlock: XUDNAN_clean_linker_2, # of connection points: 2
#     Edge 24, Type (0, 1), BuildingBlock: XUDNAN_clean_linker_2, # of connection points: 2
#     Edge 25, Type (0, 1), BuildingBlock: XUDNAN_clean_linker_2, # of connection points: 2
#     Edge 26, Type (0, 1), BuildingBlock: XUDNAN_clean_linker_2, # of connection points: 2
#     Edge 27, Type (0, 1), BuildingBlock: XUDNAN_clean_linker_2, # of connection points: 2
#     Edge 28, Type (0, 1), BuildingBlock: XUDNAN_clean_linker_2, # of connection points: 2
#     Edge 29, Type (0, 1), BuildingBlock: XUDNAN_clean_linker_2, # of connection points: 2
#     Edge 30, Type (0, 1), BuildingBlock: XUDNAN_clean_linker_2, # of connection points: 2
#     Edge 31, Type (0, 1), BuildingBlock: XUDNAN_clean_linker_2, # of connection points: 2
#     Edge 32, Type (0, 1), BuildingBlock: XUDNAN_clean_linker_2, # of connection points: 2
#     Edge 33, Type (0, 1), BuildingBlock: XUDNAN_clean_linker_2, # of connection points: 2
#     Edge 34, Type (0, 1), BuildingBlock: XUDNAN_clean_linker_2, # of connection points: 2
#     Edge 35, Type (0, 1), BuildingBlock: XUDNAN_clean_linker_2, # of connection points: 2
# Relax obj value: 0.048
# Max RMSD: 0.130
# Mean RMSD: 0.099
data_MOF--net-nom--node1-QUQFOY_clean_sbu_3--node2-NAHDIM_clean_linker_0--edge1-XUDNAN_clean_linker_2
_symmetry_space_group_name_H-M    P1
_symmetry_Int_Tables_number       1
_symmetry_cell_setting            triclinic
loop_
_symmetry_equiv_pos_as_xyz
'x, y, z'
_cell_length_a     58.109132
_cell_length_b     59.389059
_cell_length_c     70.925805
_cell_angle_alpha  90.201205
_cell_angle_beta   90.160264
_cell_angle_gamma 120.01733
loop_
_atom_site_label
_atom_site_type_symbol
_atom_site_fract_x
_atom_site_fract_y
_atom_site_fract_z
_atom_type_partial_charge
C0 C 0.16935 0.58117 0.23421 0.0
C1 C 0.17777 0.59022 0.25463 0.0
C2 C 0.1349 0.58022 0.26845 0.0
C3 C 0.12447 0.55322 0.27016 0.0
C4 C 0.09794 0.53678 0.27541 0.0
C5 C 0.08128 0.5474 0.27871 0.0
C6 C 0.09175 0.57457 0.27723 0.0
C7 C 0.11855 0.59064 0.27238 0.0
C8 C 0.0876 0.50795 0.27716 0.0
C9 C 0.07451 0.58659 0.28035 0.0
C10 C 0.97694 0.43739 0.17505 0.0
C11 C 0.96787 0.45393 0.18584 0.0
C12 C 0.96877 0.45663 0.22001 0.0
C13 C 0.97431 0.48236 0.22223 0.0
C14 C 0.98619 0.49634 0.23885 0.0
C15 C 0.99292 0.48438 0.25341 0.0
C16 C 0.98642 0.45809 0.25143 0.0
C17 C 0.97393 0.4444 0.23485 0.0
C18 C 0.99212 0.52405 0.24067 0.0
C19 C 0.99361 0.44472 0.26649 0.0
C20 C 0.88134 0.44888 0.35628 0.0
C21 C 0.89484 0.4756 0.35296 0.0
C22 C 0.9217 0.48882 0.34786 0.0
C23 C 0.93547 0.47489 0.34623 0.0
C24 C 0.92177 0.44766 0.34901 0.0
C25 C 0.8947 0.43484 0.35374 0.0
C26 C 0.93551 0.51779 0.3447 0.0
C27 C 0.9359 0.43224 0.34738 0.0
C28 C 0.05312 0.5851 0.44113 0.0
C29 C 0.07652 0.58671 0.43006 0.0
C30 C 0.05518 0.55253 0.40577 0.0
C31 C 0.0455 0.56558 0.39461 0.0
C32 C 0.03066 0.55402 0.37819 0.0
C33 C 0.02529 0.5289 0.37281 0.0
C34 C 0.03501 0.51572 0.38394 0.0
C35 C 0.04989 0.52777 0.40027 0.0
C36 C 0.02051 0.56858 0.36663 0.0
C37 C 0.02954 0.48886 0.37861 0.0
C38 C 0.0526 0.52992 0.28267 0.0
C39 C 0.03594 0.5164 0.26749 0.0
C40 C 0.00866 0.49987 0.26996 0.0
C41 C -0.00263 0.49745 0.28799 0.0
C42 C 0.96978 0.48246 0.29076 0.0
C43 C 0.95891 0.47991 0.30862 0.0
C44 C 0.97527 0.49188 0.32443 0.0
C45 C 0.96451 0.48915 0.34268 0.0
C46 C 0.98138 0.50108 0.3581 0.0
C47 C 0.00886 0.51616 0.35581 0.0
C48 C 0.02002 0.5195 0.33765 0.0
C49 C 0.04757 0.53488 0.3348 0.0
C50 C 0.05831 0.53835 0.31682 0.0
C51 C 0.04194 0.52641 0.30102 0.0
C52 C 0.01415 0.51039 0.30363 0.0
C53 C 0.00315 0.5072 0.32192 0.0
C54 C 0.84836 0.40808 0.38753 0.0
C55 C 0.83925 0.41256 0.36824 0.0
O56 O 0.16031 0.59683 0.26287 0.0
O57 O 0.06942 0.56282 0.42193 0.0
O58 O 0.85575 0.43781 0.3622 0.0
O59 O 0.95912 0.44341 0.20356 0.0
H60 H 0.1779 0.57432 0.26275 0.0
H61 H 0.14938 0.56347 0.23381 0.0
H62 H 0.16858 0.59661 0.22589 0.0
H63 H 0.18361 0.57635 0.22749 0.0
H64 H 0.13671 0.54465 0.26734 0.0
H65 H 0.12672 0.61145 0.27112 0.0
H66 H 0.07379 0.49756 0.26528 0.0
H67 H 0.10385 0.50324 0.2769 0.0
H68 H 0.0763 0.50049 0.29047 0.0
H69 H 0.08505 0.60767 0.27699 0.0
H70 H 0.05629 0.57654 0.27149 0.0
H71 H 0.06817 0.58416 0.2953 0.0
H72 H 0.98585 0.47365 0.18702 0.0
H73 H 0.9831 0.44497 0.16053 0.0
H74 H 0.99426 0.43821 0.18239 0.0
H75 H 0.9609 0.41673 0.17426 0.0
H76 H 0.96954 0.49156 0.21092 0.0
H77 H 0.96928 0.42443 0.23302 0.0
H78 H 0.01387 0.53742 0.23953 0.0
H79 H 0.98204 0.52914 0.22953 0.0
H80 H 0.98579 0.52729 0.2547 0.0
H81 H 0.98935 0.42505 0.26203 0.0
H82 H 0.01505 0.4566 0.27013 0.0
H83 H 0.98213 0.44274 0.27947 0.0
H84 H 0.83938 0.39867 0.35772 0.0
H85 H 0.88429 0.48622 0.35473 0.0
H86 H 0.88435 0.41401 0.35573 0.0
H87 H 0.94701 0.5229 0.33138 0.0
H88 H 0.9213 0.52512 0.34407 0.0
H89 H 0.94976 0.5279 0.35641 0.0
H90 H 0.92267 0.41133 0.35061 0.0
H91 H 0.94367 0.43392 0.33287 0.0
H92 H 0.95318 0.44033 0.35719 0.0
H93 H 0.08246 0.60169 0.4189 0.0
H94 H 0.04655 0.57001 0.45225 0.0
H95 H 0.05897 0.60416 0.44785 0.0
H96 H 0.03602 0.58003 0.43159 0.0
H97 H 0.04918 0.58469 0.39859 0.0
H98 H 0.05737 0.5178 0.40893 0.0
H99 H 0.02791 0.57077 0.35195 0.0
H100 H -0.00152 0.55728 0.366 0.0
H101 H 0.02677 0.58818 0.37251 0.0
H102 H 0.039 0.48143 0.38853 0.0
H103 H 0.00776 0.47518 0.37845 0.0
H104 H 0.037 0.48913 0.36417 0.0
H105 H 0.04441 0.51852 0.25354 0.0
H106 H 0.95629 0.47267 0.2791 0.0
H107 H 0.93753 0.46825 0.30992 0.0
H108 H 0.97295 0.49895 0.37206 0.0
H109 H 0.06113 0.54451 0.34645 0.0
H110 H 0.07965 0.55043 0.31545 0.0
H111 H 0.84932 0.42242 0.39807 0.0
H112 H 0.8343 0.38815 0.3926 0.0
H113 H 0.86831 0.41002 0.38663 0.0
C114 C 0.37071 0.88047 0.56296 0.0
C115 C 0.38977 0.87012 0.55933 0.0
C116 C 0.41785 0.89778 0.5346 0.0
C117 C 0.44407 0.90296 0.53389 0.0
C118 C 0.46453 0.9272 0.52772 0.0
C119 C 0.45843 0.94662 0.52241 0.0
C120 C 0.43176 0.94121 0.52301 0.0
C121 C 0.41169 0.91656 0.52869 0.0
C122 C 0.49261 0.93211 0.52696 0.0
C123 C 0.42441 0.96148 0.5179 0.0
C124 C 0.56117 0.04148 0.62412 0.0
C125 C 0.54965 0.05474 0.61197 0.0
C126 C 0.55352 0.05524 0.57793 0.0
C127 C 0.52928 0.05331 0.57279 0.0
C128 C 0.51721 0.04222 0.55544 0.0
C129 C 0.52956 0.03266 0.54315 0.0
C130 C 0.55481 0.03608 0.54786 0.0
C131 C 0.5667 0.04778 0.56513 0.0
C132 C 0.49066 0.0396 0.55066 0.0
C133 C 0.5685 0.026 0.53517 0.0
C134 C 0.5772 0.13129 0.43628 0.0
C135 C 0.55286 0.12376 0.44511 0.0
C136 C 0.53571 0.09767 0.44994 0.0
C137 C 0.54345 0.07893 0.44627 0.0
C138 C 0.56788 0.08651 0.43715 0.0
C139 C 0.58423 0.11258 0.43198 0.0
C140 C 0.50929 0.09016 0.45886 0.0
C141 C 0.57683 0.06714 0.43298 0.0
C142 C 0.39116 0.88468 0.39253 0.0
C143 C 0.4198 0.90572 0.38835 0.0
C144 C 0.44063 0.94987 0.40177 0.0
C145 C 0.43395 0.96748 0.4095 0.0
C146 C 0.45147 0.98745 0.42164 0.0
C147 C 0.47647 0.99 0.42586 0.0
C148 C 0.48419 0.97349 0.41691 0.0
C149 C 0.46615 0.95352 0.40492 0.0
C150 C 0.44279 0.00502 0.43067 0.0
C151 C 0.51106 0.97627 0.42068 0.0
C152 C 0.47991 0.97282 0.51675 0.0
C153 C 0.4954 0.99011 0.53097 0.0
C154 C 0.51438 0.01585 0.52694 0.0
C155 C 0.51792 0.02486 0.50816 0.0
C156 C 0.53613 0.05085 0.50362 0.0
C157 C 0.53904 0.05952 0.48507 0.0
C158 C 0.52368 0.04258 0.47039 0.0
C159 C 0.52578 0.05131 0.45157 0.0
C160 C 0.51048 0.03375 0.43732 0.0
C161 C 0.49293 0.00762 0.44134 0.0
C162 C 0.49024 -0.00137 0.46007 0.0
C163 C 0.47235 0.97252 0.4646 0.0
C164 C 0.46926 0.96395 0.4831 0.0
C165 C 0.48382 0.98115 0.49781 0.0
C166 C 0.50257 0.00737 0.49353 0.0
C167 C 0.5056 0.01618 0.47464 0.0
C168 C 0.62956 0.19558 0.44386 0.0
C169 C 0.59943 0.17794 0.44229 0.0
O170 O 0.39841 0.87448 0.54081 0.0
O171 O 0.42185 0.92973 0.39145 0.0
O172 O 0.59417 0.15635 0.43153 0.0
O173 O 0.56406 0.06329 0.59541 0.0
H174 H 0.40724 0.88039 0.56898 0.0
H175 H 0.3815 0.902 0.5621 0.0
H176 H 0.35425 0.87233 0.55245 0.0
H177 H 0.36215 0.87519 0.57734 0.0
H178 H 0.44844 0.88803 0.53827 0.0
H179 H 0.39117 0.91203 0.52884 0.0
H180 H 0.50477 0.94649 0.53801 0.0
H181 H 0.49353 0.91408 0.52925 0.0
H182 H 0.50164 0.94048 0.5131 0.0
H183 H 0.40372 0.95556 0.52201 0.0
H184 H 0.43814 0.98034 0.52485 0.0
H185 H 0.4262 0.96461 0.50243 0.0
H186 H 0.52861 0.03967 0.60895 0.0
H187 H 0.55003 0.03466 0.63755 0.0
H188 H 0.55947 0.02436 0.61647 0.0
H189 H 0.5825 0.05501 0.62735 0.0
H190 H 0.51956 0.05994 0.58252 0.0
H191 H 0.58561 0.04975 0.5692 0.0
H192 H 0.4748 0.01904 0.55244 0.0
H193 H 0.48605 0.05198 0.55989 0.0
H194 H 0.49025 0.04496 0.53572 0.0
H195 H 0.5881 0.03022 0.54087 0.0
H196 H 0.55575 0.00464 0.53332 0.0
H197 H 0.57151 0.03494 0.52102 0.0
H198 H 0.59184 0.17201 0.45691 0.0
H199 H 0.54709 0.13819 0.44794 0.0
H200 H 0.60297 0.11862 0.42497 0.0
H201 H 0.50959 0.08501 0.47384 0.0
H202 H 0.50468 0.10618 0.45832 0.0
H203 H 0.49307 0.0728 0.45165 0.0
H204 H 0.59764 0.07668 0.42784 0.0
H205 H 0.57524 0.05583 0.44583 0.0
H206 H 0.56367 0.05319 0.42203 0.0
H207 H 0.43282 0.90254 0.39821 0.0
H208 H 0.38873 0.86497 0.39112 0.0
H209 H 0.38599 0.88696 0.40721 0.0
H210 H 0.3771 0.88631 0.38274 0.0
H211 H 0.41442 0.96484 0.4066 0.0
H212 H 0.47198 0.94074 0.39821 0.0
H213 H 0.44142 0.00212 0.44617 0.0
H214 H 0.4578 0.02567 0.42801 0.0
H215 H 0.4232 0.00124 0.42527 0.0
H216 H 0.51537 0.96417 0.41094 0.0
H217 H 0.52689 0.99693 0.41927 0.0
H218 H 0.51177 0.97026 0.43537 0.0
H219 H 0.49228 0.98354 0.54549 0.0
H220 H 0.54821 0.06477 0.51439 0.0
H221 H 0.55337 0.07972 0.4824 0.0
H222 H 0.51205 0.04056 0.42294 0.0
H223 H 0.46033 0.95838 0.45393 0.0
H224 H 0.45516 0.94366 0.48573 0.0
H225 H 0.63457 0.21275 0.45292 0.0
H226 H 0.63851 0.1847 0.45031 0.0
H227 H 0.63842 0.20238 0.42969 0.0
C228 C 0.52249 0.39286 0.72359 0.0
C229 C 0.55179 0.40873 0.71782 0.0
C230 C 0.54939 0.43363 0.69211 0.0
C231 C 0.56978 0.45956 0.69219 0.0
C232 C 0.56476 0.47943 0.68677 0.0
C233 C 0.5386 0.47305 0.68161 0.0
C234 C 0.5181 0.44662 0.68109 0.0
C235 C 0.52398 0.42718 0.68593 0.0
C236 C 0.58724 0.50724 0.68711 0.0
C237 C 0.48976 0.43887 0.67621 0.0
C238 C 0.54231 0.57093 0.79293 0.0
C239 C 0.51801 0.55843 0.77985 0.0
C240 C 0.52204 0.56122 0.74575 0.0
C241 C 0.50053 0.53672 0.74095 0.0
C242 C 0.49971 0.52512 0.72351 0.0
C243 C 0.52093 0.53825 0.7107 0.0
C244 C 0.54212 0.5634 0.71523 0.0
C245 C 0.54215 0.57474 0.73264 0.0
C246 C 0.47643 0.49861 0.71891 0.0
C247 C 0.56514 0.57793 0.70197 0.0
C248 C 0.45664 0.59376 0.62127 0.0
C249 C 0.43963 0.56666 0.62153 0.0
C250 C 0.44998 0.54979 0.62109 0.0
C251 C 0.4778 0.56023 0.62 0.0
C252 C 0.49479 0.58741 0.61841 0.0
C253 C 0.48393 0.60383 0.61909 0.0
C254 C 0.43129 0.52083 0.62237 0.0
C255 C 0.52448 0.59913 0.6167 0.0
C256 C 0.46267 0.42273 0.52965 0.0
C257 C 0.49022 0.43263 0.5386 0.0
C258 C 0.50149 0.47157 0.55758 0.0
C259 C 0.48176 0.45917 0.57135 0.0
C260 C 0.48115 0.47274 0.5874 0.0
C261 C 0.50113 0.49903 0.59003 0.0
C262 C 0.52093 0.51161 0.57616 0.0
C263 C 0.52062 0.49776 0.55999 0.0
C264 C 0.45913 0.45889 0.60156 0.0
C265 C 0.54254 0.53961 0.57849 0.0
C266 C 0.53206 0.49396 0.67855 0.0
C267 C 0.53037 0.50699 0.69447 0.0
C268 C 0.52176 0.52506 0.6931 0.0
C269 C 0.5139 0.52991 0.67541 0.0
C270 C 0.50366 0.5468 0.67369 0.0
C271 C 0.49562 0.55115 0.65626 0.0
C272 C 0.49766 0.53889 0.63984 0.0
C273 C 0.48925 0.54296 0.62209 0.0
C274 C 0.49106 0.5301 0.60612 0.0
C275 C 0.50128 0.51325 0.60733 0.0
C276 C 0.51023 0.50926 0.62492 0.0
C277 C 0.5211 0.49285 0.62661 0.0
C278 C 0.52862 0.48807 0.64412 0.0
C279 C 0.52572 0.49965 0.66058 0.0
C280 C 0.51606 0.51727 0.65907 0.0
C281 C 0.50811 0.52192 0.64125 0.0
C282 C 0.42818 0.62836 0.64359 0.0
C283 C 0.42355 0.6058 0.63066 0.0
O284 O 0.55385 0.41485 0.69882 0.0
O285 O 0.50267 0.45921 0.54173 0.0
O286 O 0.44771 0.61085 0.62325 0.0
O287 O 0.52418 0.572 0.76303 0.0
H288 H 0.56151 0.42706 0.7263 0.0
H289 H 0.51276 0.40479 0.72223 0.0
H290 H 0.51176 0.37526 0.71454 0.0
H291 H 0.52076 0.38677 0.73856 0.0
H292 H 0.58946 0.46421 0.69685 0.0
H293 H 0.50848 0.40692 0.68577 0.0
H294 H 0.58518 0.51731 0.69965 0.0
H295 H 0.60696 0.5085 0.68785 0.0
H296 H 0.58652 0.5177 0.67438 0.0
H297 H 0.47568 0.4181 0.67937 0.0
H298 H 0.48349 0.45105 0.68414 0.0
H299 H 0.48824 0.44197 0.66095 0.0
H300 H 0.51381 0.53815 0.77743 0.0
H301 H 0.53745 0.56091 0.80677 0.0
H302 H 0.55876 0.56914 0.78652 0.0
H303 H 0.54941 0.59191 0.7952 0.0
H304 H 0.48447 0.52662 0.75088 0.0
H305 H 0.55848 0.59379 0.73643 0.0
H306 H 0.4831 0.48406 0.71889 0.0
H307 H 0.46007 0.49244 0.72927 0.0
H308 H 0.46861 0.49861 0.70461 0.0
H309 H 0.58068 0.59678 0.70799 0.0
H310 H 0.57428 0.56586 0.69858 0.0
H311 H 0.55788 0.58175 0.68854 0.0
H312 H 0.41495 0.58821 0.63972 0.0
H313 H 0.41833 0.55855 0.62226 0.0
H314 H 0.49684 0.62474 0.6185 0.0
H315 H 0.43608 0.51315 0.63513 0.0
H316 H 0.41013 0.51575 0.62304 0.0
H317 H 0.43395 0.51098 0.60993 0.0
H318 H 0.53462 0.62024 0.6135 0.0
H319 H 0.53263 0.59644 0.63014 0.0
H320 H 0.52914 0.58902 0.60543 0.0
H321 H 0.48724 0.42218 0.55219 0.0
H322 H 0.46375 0.43488 0.51745 0.0
H323 H 0.45413 0.4022 0.52495 0.0
H324 H 0.44885 0.42351 0.54002 0.0
H325 H 0.46657 0.43902 0.56966 0.0
H326 H 0.53566 0.50723 0.54926 0.0
H327 H 0.46734 0.45517 0.61456 0.0
H328 H 0.45047 0.47119 0.6055 0.0
H329 H 0.44299 0.43996 0.59607 0.0
H330 H 0.55781 0.54585 0.56727 0.0
H331 H 0.53364 0.55235 0.57805 0.0
H332 H 0.55241 0.54249 0.59243 0.0
H333 H 0.53543 0.50267 0.70821 0.0
H334 H 0.50151 0.55668 0.68585 0.0
H335 H 0.48768 0.56419 0.65586 0.0
H336 H 0.4841 0.53298 0.59262 0.0
H337 H 0.52367 0.4833 0.61443 0.0
H338 H 0.53662 0.47507 0.64464 0.0
H339 H 0.40907 0.6248 0.64972 0.0
H340 H 0.44171 0.63019 0.65534 0.0
H341 H 0.43738 0.647 0.63574 0.0
C342 C 0.13887 0.54866 0.90571 0.0
C343 C 0.15317 0.56279 0.88766 0.0
C344 C 0.11892 0.53872 0.86401 0.0
C345 C 0.10976 0.55624 0.86085 0.0
C346 C 0.08423 0.54756 0.85354 0.0
C347 C 0.06758 0.52086 0.84938 0.0
C348 C 0.07727 0.50339 0.85165 0.0
C349 C 0.10306 0.5127 0.85871 0.0
C350 C 0.07475 0.56679 0.85073 0.0
C351 C 0.06002 0.47477 0.84734 0.0
C352 C 0.90485 0.45179 0.9485 0.0
C353 C 0.92651 0.45597 0.93541 0.0
C354 C 0.94666 0.47893 0.90612 0.0
C355 C 0.95635 0.46243 0.90065 0.0
C356 C 0.97131 0.4672 0.88417 0.0
C357 C 0.97737 0.48931 0.87316 0.0
C358 C 0.96802 0.5062 0.87878 0.0
C359 C 0.9524 0.5005 0.89504 0.0
C360 C 0.9809 0.4487 0.87865 0.0
C361 C 0.97479 0.53042 0.86776 0.0
C362 C 0.87008 0.43854 0.77844 0.0
C363 C 0.88155 0.42272 0.78032 0.0
C364 C 0.90919 0.4335 0.77988 0.0
C365 C 0.92564 0.46066 0.77766 0.0
C366 C 0.91407 0.47633 0.77427 0.0
C367 C 0.88629 0.46494 0.77452 0.0
C368 C 0.92088 0.4161 0.78289 0.0
C369 C 0.93107 0.50528 0.77155 0.0
C370 C 0.11519 0.50936 0.7253 0.0
C371 C 0.10166 0.52391 0.71762 0.0
C372 C 0.05518 0.50194 0.72586 0.0
C373 C 0.03846 0.47674 0.73234 0.0
C374 C 0.0194 0.4719 0.74624 0.0
C375 C 0.0167 0.49277 0.75335 0.0
C376 C 0.0323 0.51799 0.74576 0.0
C377 C 0.05157 0.52234 0.73216 0.0
C378 C 0.00288 0.44472 0.75383 0.0
C379 C 0.02925 0.54048 0.75248 0.0
C380 C 0.03928 0.51082 0.84454 0.0
C381 C 0.02182 0.50586 0.85947 0.0
C382 C 0.99462 0.49532 0.85636 0.0
C383 C 0.98443 0.4898 0.83775 0.0
C384 C 0.95712 0.47885 0.8341 0.0
C385 C 0.94733 0.47362 0.81574 0.0
C386 C 0.96441 0.47872 0.8003 0.0
C387 C 0.95452 0.47296 0.7816 0.0
C388 C 0.97195 0.47806 0.76658 0.0
C389 C -0.00078 0.48864 0.76975 0.0
C390 C 0.00949 0.49449 0.78838 0.0
C391 C 0.03679 0.50492 0.79211 0.0
C392 C 0.04666 0.51055 0.81047 0.0
C393 C 0.02958 0.50565 0.82582 0.0
C394 C 0.00202 0.49512 0.82242 0.0
C395 C 0.99199 0.48955 0.80368 0.0
C396 C 0.81076 0.41836 0.8046 0.0
C397 C 0.82809 0.41 0.79385 0.0
O398 O 0.14276 0.54616 0.87228 0.0
O399 O 0.07513 0.50632 0.71391 0.0
O400 O 0.84368 0.42911 0.78101 0.0
O401 O 0.93178 0.47472 0.92187 0.0
H402 H 0.15047 0.5799 0.88593 0.0
H403 H 0.11754 0.54293 0.90483 0.0
H404 H 0.14027 0.53084 0.90774 0.0
H405 H 0.14772 0.56165 0.91816 0.0
H406 H 0.1224 0.57669 0.86403 0.0
H407 H 0.11054 0.49946 0.86092 0.0
H408 H 0.05914 0.56309 0.86125 0.0
H409 H 0.09109 0.58724 0.85236 0.0
H410 H 0.06574 0.56426 0.83649 0.0
H411 H 0.07045 0.46372 0.85008 0.0
H412 H 0.04177 0.46647 0.85607 0.0
H413 H 0.0537 0.47204 0.83233 0.0
H414 H 0.94482 0.45794 0.94212 0.0
H415 H 0.87406 0.41287 0.94249 0.0
H416 H 0.9148 0.45802 0.96273 0.0
H417 H 0.90191 0.46909 0.94701 0.0
H418 H 0.95228 0.44574 0.90913 0.0
H419 H 0.94492 0.51316 0.89939 0.0
H420 H 0.97721 0.44376 0.86341 0.0
H421 H 0.00265 0.45822 0.88115 0.0
H422 H 0.97105 0.43041 0.88691 0.0
H423 H 0.96866 0.54305 0.87521 0.0
H424 H -0.00349 0.5418 0.86512 0.0
H425 H 0.96459 0.52489 0.85386 0.0
H426 H 0.84083 0.40807 0.80478 0.0
H427 H 0.869 0.40207 0.78259 0.0
H428 H 0.87719 0.47688 0.77271 0.0
H429 H 0.93009 0.4198 0.79712 0.0
H430 H 0.90561 0.39516 0.78177 0.0
H431 H 0.93672 0.42052 0.7724 0.0
H432 H 0.91909 0.51447 0.76779 0.0
H433 H 0.94226 0.51438 0.78475 0.0
H434 H 0.94585 0.50939 0.76026 0.0
H435 H 0.1036 0.5381 0.72872 0.0
H436 H 0.13658 0.52316 0.72816 0.0
H437 H 0.10566 0.49963 0.73873 0.0
H438 H 0.11341 0.49429 0.71513 0.0
H439 H 0.04125 0.4611 0.72712 0.0
H440 H 0.0641 0.5417 0.72662 0.0
H441 H 0.0059 0.44479 0.76931 0.0
H442 H 0.98149 0.43777 0.75132 0.0
H443 H 0.00792 0.43078 0.74717 0.0
H444 H 0.03995 0.5578 0.74331 0.0
H445 H 0.0079 0.53475 0.75291 0.0
H446 H 0.03731 0.54597 0.76702 0.0
H447 H 0.02948 0.50984 0.87381 0.0
H448 H 0.94299 0.47426 0.8454 0.0
H449 H 0.92612 0.4654 0.81386 0.0
H450 H 0.96417 0.47342 0.7523 0.0
H451 H 0.05088 0.50888 0.7809 0.0
H452 H 0.06783 0.51866 0.8125 0.0
H453 H 0.79742 0.40286 0.8145 0.0
H454 H 0.82362 0.43625 0.81291 0.0
H455 H 0.79854 0.42267 0.79479 0.0
C456 C 0.49915 0.88208 0.90024 0.0
C457 C 0.4701 0.86638 0.90666 0.0
C458 C 0.47202 0.89262 0.93317 0.0
C459 C 0.451 0.89766 0.93407 0.0
C460 C 0.45526 0.92187 0.9405 0.0
C461 C 0.48127 0.94151 0.94568 0.0
C462 C 0.50243 0.9361 0.94511 0.0
C463 C 0.49732 0.91142 0.93932 0.0
C464 C 0.43208 0.9266 0.94131 0.0
C465 C 0.53064 0.95658 0.94993 0.0
C466 C 0.4685 0.03983 0.84303 0.0
C467 C 0.4945 0.0552 0.85407 0.0
C468 C 0.49137 0.04918 0.88814 0.0
C469 C 0.5137 0.04657 0.8916 0.0
C470 C 0.51544 0.03439 0.90804 0.0
C471 C 0.49436 0.02461 0.92118 0.0
C472 C 0.47222 0.02797 0.91795 0.0
C473 C 0.47124 0.04063 0.90156 0.0
C474 C 0.53965 0.03175 0.91129 0.0
C475 C 0.44931 0.01767 0.93159 0.0
C476 C 0.55993 0.13717 0.01822 0.0
C477 C 0.57661 0.1267 0.01518 0.0
C478 C 0.56593 0.09981 0.01286 0.0
C479 C 0.5381 0.08303 0.01402 0.0
C480 C 0.52141 0.0934 0.01801 0.0
C481 C 0.5326 0.12039 0.02011 0.0
C482 C 0.58435 0.08931 0.00901 0.0
C483 C 0.49173 0.076 0.01971 0.0
C484 C 0.50705 0.90822 0.07411 0.0
C485 C 0.49574 0.92304 0.08464 0.0
C486 C 0.5136 0.96518 0.06959 0.0
C487 C 0.53757 0.98172 0.06067 0.0
C488 C 0.53856 0.9975 0.04567 0.0
C489 C 0.51505 0.99717 0.03993 0.0
C490 C 0.49098 0.98148 0.04964 0.0
C491 C 0.49049 0.9655 0.06435 0.0
C492 C 0.56464 0.0142 0.03581 0.0
C493 C 0.46577 0.98139 0.04433 0.0
C494 C 0.48683 0.96826 0.95016 0.0
C495 C 0.48743 0.98371 0.93514 0.0
C496 C 0.49487 0.0098 0.93784 0.0
C497 C 0.50258 0.02116 0.95596 0.0
C498 C 0.51165 0.04771 0.95899 0.0
C499 C 0.5195 0.05876 0.97686 0.0
C500 C 0.51831 0.04361 0.99243 0.0
C501 C 0.52651 0.05471 0.01062 0.0
C502 C 0.52477 0.03905 0.02582 0.0
C503 C 0.51546 0.0125 0.02334 0.0
C504 C 0.50763 0.00112 0.0052 0.0
C505 C 0.49874 0.97458 0.00212 0.0
C506 C 0.49152 0.96367 0.98417 0.0
C507 C 0.49312 0.97891 0.96858 0.0
C508 C 0.50144 0.00557 0.97142 0.0
C509 C 0.50898 0.01674 0.98972 0.0
C510 C 0.58392 0.19822 -0.00177 0.0
C511 C 0.592 0.18291 0.01131 0.0
O512 O 0.46816 0.86992 0.92582 0.0
O513 O 0.51349 0.94951 0.08347 0.0
O514 O 0.56935 0.16315 0.01968 0.0
O515 O 0.48878 0.06008 0.87209 0.0
H516 H 0.4582 0.87325 0.89873 0.0
H517 H 0.50662 0.90323 0.90176 0.0
H518 H 0.51187 0.87688 0.90877 0.0
H519 H 0.50096 0.87828 0.88512 0.0
H520 H 0.43141 0.88276 0.92946 0.0
H521 H 0.51333 0.90705 0.93876 0.0
H522 H 0.43341 0.93929 0.92942 0.0
H523 H 0.41271 0.9082 0.94028 0.0
H524 H 0.43262 0.93675 0.95463 0.0
H525 H 0.54521 0.95063 0.94563 0.0
H526 H 0.53595 0.97526 0.94295 0.0
H527 H 0.53252 0.96005 0.96537 0.0
H528 H 0.50406 0.04298 0.85451 0.0
H529 H 0.47249 0.03541 0.82856 0.0
H530 H 0.45542 0.02115 0.85025 0.0
H531 H 0.45789 0.05101 0.84205 0.0
H532 H 0.52981 0.05416 0.88154 0.0
H533 H 0.4543 0.04314 0.89884 0.0
H534 H 0.53394 0.01093 0.91032 0.0
H535 H 0.55552 0.04283 0.90083 0.0
H536 H 0.54776 0.0387 0.92568 0.0
H537 H 0.43288 0.02054 0.92646 0.0
H538 H 0.44142 0.99658 0.93396 0.0
H539 H 0.45636 0.0277 0.9454 0.0
H540 H 0.60193 0.17501 0.00225 0.0
H541 H 0.59794 0.13935 0.01475 0.0
H542 H 0.51996 0.12861 0.02284 0.0
H543 H 0.57846 0.07791 -0.00433 0.0
H544 H 0.60544 0.10498 0.00793 0.0
H545 H 0.58266 0.07596 0.02051 0.0
H546 H 0.48162 0.08696 0.02377 0.0
H547 H 0.48342 0.06605 0.00602 0.0
H548 H 0.48722 0.06072 0.03038 0.0
H549 H 0.47638 0.91801 0.07798 0.0
H550 H 0.49306 0.88692 0.07484 0.0
H551 H 0.51005 0.91397 0.05904 0.0
H552 H 0.52649 0.91265 0.08029 0.0
H553 H 0.55537 0.98163 0.06514 0.0
H554 H 0.47215 0.95349 0.07185 0.0
H555 H 0.56216 0.01068 0.02036 0.0
H556 H 0.57115 0.035 0.03832 0.0
H557 H 0.58052 0.01046 0.04088 0.0
H558 H 0.44954 0.97042 0.05457 0.0
H559 H 0.46957 0.00164 0.04349 0.0
H560 H 0.45899 0.97234 0.03019 0.0
H561 H 0.48238 0.9754 0.92105 0.0
H562 H 0.51301 0.06031 0.94752 0.0
H563 H 0.52649 0.07934 0.9783 0.0
H564 H 0.53113 0.04771 0.03973 0.0
H565 H 0.49738 0.96192 0.01354 0.0
H566 H 0.48478 0.94314 0.98264 0.0
H567 H 0.57352 0.20662 0.00621 0.0
H568 H 0.60172 0.21422 0.99133 0.0
H569 H 0.5703 0.18514 0.98707 0.0
C570 C 0.57504 0.43293 0.06625 0.0
C571 C 0.58409 0.43447 0.08676 0.0
C572 C 0.57666 0.46838 0.10069 0.0
C573 C 0.54881 0.45315 0.10191 0.0
C574 C 0.53364 0.46389 0.10854 0.0
C575 C 0.54647 0.49044 0.1138 0.0
C576 C 0.57445 0.50585 0.11254 0.0
C577 C 0.58917 0.49449 0.10617 0.0
C578 C 0.50383 0.44691 0.10975 0.0
C579 C 0.58876 0.53437 0.11767 0.0
C580 C 0.46826 0.57376 0.01851 0.0
C581 C 0.48206 0.57521 0.03646 0.0
C582 C 0.47606 0.54776 0.06369 0.0
C583 C 0.50165 0.5637 0.0712 0.0
C584 C 0.51069 0.55546 0.08659 0.0
C585 C 0.49395 0.53068 0.09447 0.0
C586 C 0.46816 0.51461 0.08698 0.0
C587 C 0.45945 0.52353 0.07178 0.0
C588 C 0.53825 0.57316 0.09436 0.0
C589 C 0.44999 0.48794 0.09491 0.0
C590 C 0.44192 0.57324 0.20013 0.0
C591 C 0.46779 0.58879 0.19331 0.0
C592 C 0.48415 0.57814 0.18981 0.0
C593 C 0.474 0.55118 0.19258 0.0
C594 C 0.44823 0.53571 0.20016 0.0
C595 C 0.43268 0.54712 0.20416 0.0
C596 C 0.51202 0.59562 0.18272 0.0
C597 C 0.43681 0.50698 0.2035 0.0
C598 C 0.59574 0.4791 0.24347 0.0
C599 C 0.57378 0.47793 0.25601 0.0
C600 C 0.55848 0.50464 0.23999 0.0
C601 C 0.56995 0.52941 0.2321 0.0
C602 C 0.55683 0.53512 0.21792 0.0
C603 C 0.5313 0.51564 0.21186 0.0
C604 C 0.5191 0.4908 0.22031 0.0
C605 C 0.53285 0.48551 0.23431 0.0
C606 C 0.57037 0.56184 0.20922 0.0
C607 C 0.49158 0.46987 0.21449 0.0
C608 C 0.53047 0.50231 0.11981 0.0
C609 C 0.51904 0.50999 0.10573 0.0
C610 C 0.50382 0.52145 0.11023 0.0
C611 C 0.49951 0.52514 0.1293 0.0
C612 C 0.4838 0.53609 0.13431 0.0
C613 C 0.48006 0.54005 0.15313 0.0
C614 C 0.49249 0.53389 0.16766 0.0
C615 C 0.48983 0.53896 0.18681 0.0
C616 C 0.50253 0.53263 0.20085 0.0
C617 C 0.51771 0.52112 0.19633 0.0
C618 C 0.52046 0.51573 0.1773 0.0
C619 C 0.53546 0.50398 0.1723 0.0
C620 C 0.53841 0.49915 0.15351 0.0
C621 C 0.52686 0.50629 0.13899 0.0
C622 C 0.51137 0.51784 0.14373 0.0
C623 C 0.50803 0.52241 0.16292 0.0
C624 C 0.39172 0.58683 0.1861 0.0
C625 C 0.42153 0.59766 0.18905 0.0
O626 O 0.59224 0.45896 0.09419 0.0
O627 O 0.57234 0.50035 0.25354 0.0
O628 O 0.42529 0.58284 0.20242 0.0
O629 O 0.4668 0.55492 0.0486 0.0
H630 H 0.56739 0.41945 0.0952 0.0
H631 H 0.55779 0.4361 0.06545 0.0
H632 H 0.59136 0.44799 0.05758 0.0
H633 H 0.56888 0.41343 0.06019 0.0
H634 H 0.53863 0.43295 0.09764 0.0
H635 H 0.61062 0.5061 0.10516 0.0
H636 H 0.49427 0.45351 0.09926 0.0
H637 H 0.4971 0.4261 0.10696 0.0
H638 H 0.49687 0.44873 0.12394 0.0
H639 H 0.61037 0.54405 0.11461 0.0
H640 H 0.58004 0.54445 0.10976 0.0
H641 H 0.5862 0.53667 0.13292 0.0
H642 H 0.49225 0.59468 0.04345 0.0
H643 H 0.49046 0.56671 -0.00234 0.0
H644 H 0.4464 0.56007 0.02092 0.0
H645 H 0.46629 0.5917 0.01854 0.0
H646 H 0.51464 0.58259 0.06515 0.0
H647 H 0.43976 0.51138 0.06587 0.0
H648 H 0.55066 0.56397 0.0923 0.0
H649 H 0.54819 0.59248 0.08743 0.0
H650 H 0.53724 0.57601 0.10975 0.0
H651 H 0.43076 0.47755 0.08718 0.0
H652 H 0.45987 0.47607 0.09425 0.0
H653 H 0.44594 0.48968 0.10997 0.0
H654 H 0.42941 0.59583 0.17514 0.0
H655 H 0.47512 0.60922 0.19067 0.0
H656 H 0.41275 0.53542 0.20964 0.0
H657 H 0.51268 0.59245 0.16735 0.0
H658 H 0.51866 0.6165 0.1851 0.0
H659 H 0.52625 0.59102 0.18978 0.0
H660 H 0.41566 0.49729 0.2079 0.0
H661 H 0.43831 0.49736 0.19048 0.0
H662 H 0.44845 0.50409 0.2147 0.0
H663 H 0.55475 0.46036 0.25204 0.0
H664 H 0.59717 0.46125 0.24519 0.0
H665 H 0.59119 0.48048 0.22844 0.0
H666 H 0.61523 0.49637 0.24712 0.0
H667 H 0.58955 0.54415 0.23684 0.0
H668 H 0.52322 0.46666 0.24098 0.0
H669 H 0.57245 0.56019 0.1938 0.0
H670 H 0.55796 0.57103 0.21129 0.0
H671 H 0.59037 0.57476 0.2154 0.0
H672 H 0.48433 0.45193 0.22301 0.0
H673 H 0.47743 0.47718 0.21597 0.0
H674 H 0.49165 0.46483 0.19941 0.0
H675 H 0.5223 0.50729 0.09104 0.0
H676 H 0.47415 0.54165 0.12372 0.0
H677 H 0.46755 0.54832 0.1561 0.0
H678 H 0.5007 0.53686 0.21549 0.0
H679 H 0.54512 0.49839 0.18286 0.0
H680 H 0.55012 0.49003 0.1505 0.0
H681 H 0.38828 0.59857 0.17549 0.0
H682 H 0.38235 0.56647 0.18085 0.0
H683 H 0.38195 0.58691 0.19952 0.0
C684 C 0.67362 0.40925 0.40274 0.0
O685 O 0.67894 0.42976 0.41182 0.0
Cd686 Cd 0.64325 0.43641 0.42209 0.0
O687 O 0.64959 0.39153 0.40027 0.0
Cd688 Cd 0.60393 0.38017 0.40839 0.0
C689 C 0.60916 0.42784 0.3803 0.0
O690 O 0.61048 0.39988 0.43963 0.0
O691 O 0.57344 0.38971 0.42534 0.0
O692 O 0.59663 0.34057 0.42259 0.0
C693 C 0.58748 0.39742 0.44026 0.0
O694 O 0.62395 0.44275 0.39346 0.0
C695 C 0.58087 0.32502 0.41023 0.0
O696 O 0.5996 0.40331 0.38121 0.0
O697 O 0.57475 0.33494 0.3966 0.0
C698 C 0.27057 0.58961 0.5637 0.0
O699 O 0.24901 0.56813 0.56199 0.0
Cd700 Cd 0.20768 0.56767 0.55526 0.0
O701 O 0.27048 0.61095 0.56363 0.0
Cd702 Cd 0.23803 0.62573 0.56301 0.0
C703 C 0.19415 0.58557 0.59652 0.0
O704 O 0.21507 0.60267 0.53371 0.0
O705 O 0.20262 0.62786 0.54691 0.0
O706 O 0.27208 0.6685 0.55153 0.0
C707 C 0.20089 0.61342 0.53315 0.0
O708 O 0.18648 0.56667 0.58503 0.0
C709 C 0.27335 0.68041 0.56674 0.0
O710 O 0.21306 0.60799 0.59215 0.0
O711 O 0.25793 0.66703 0.57994 0.0
C712 C 0.68509 0.25356 0.73464 0.0
O713 O 0.68113 0.23092 0.73103 0.0
Cd714 Cd 0.63859 0.19539 0.72105 0.0
O715 O 0.66604 0.25833 0.73394 0.0
Cd716 Cd 0.61771 0.23589 0.72831 0.0
C717 C 0.60172 0.1872 0.76046 0.0
O718 O 0.61876 0.21296 0.70029 0.0
O719 O 0.57971 0.2035 0.70997 0.0
O720 O 0.61667 0.27353 0.71506 0.0
C721 C 0.59376 0.20009 0.69787 0.0
O722 O 0.61226 0.17779 0.74961 0.0
C723 C 0.60667 0.27757 0.72969 0.0
O724 O 0.60234 0.20835 0.75634 0.0
O725 O 0.6014 0.26202 0.74334 0.0
C726 C 0.33414 0.58996 0.89959 0.0
O727 O 0.33293 0.56866 0.90397 0.0
Cd728 Cd 0.37139 0.5645 0.91025 0.0
O729 O 0.35645 0.61068 0.89752 0.0
Cd730 Cd 0.40492 0.6284 0.89842 0.0
C731 C 0.40447 0.58304 0.86772 0.0
O732 O 0.40088 0.60412 0.92607 0.0
O733 O 0.44137 0.62986 0.91748 0.0
O734 O 0.41251 0.67015 0.91055 0.0
C735 C 0.42539 0.61234 0.92863 0.0
O736 O 0.3907 0.56548 0.87969 0.0
C737 C 0.42262 0.68261 0.89547 0.0
O738 O 0.41169 0.60685 0.87085 0.0
O739 O 0.42535 0.67009 0.88193 0.0
C740 C 0.74815 0.42605 0.07389 0.0
O741 O 0.76661 0.4472 0.06724 0.0
Cd742 Cd 0.8063 0.44786 0.057 0.0
O743 O 0.75102 0.40621 0.07491 0.0
Cd744 Cd 0.77985 0.38763 0.06856 0.0
C745 C 0.82809 0.43043 0.09733 0.0
O746 O 0.79101 0.40925 0.03797 0.0
O747 O 0.81154 0.3887 0.04555 0.0
O748 O 0.73392 0.35345 0.06939 0.0
C749 C 0.80728 0.40184 0.03343 0.0
O750 O 0.83011 0.44725 0.08533 0.0
C751 C 0.73798 0.33443 0.06923 0.0
O752 O 0.81044 0.40654 0.09538 0.0
O753 O 0.76204 0.33972 0.06905 0.0
C754 C 0.34672 0.75372 0.23592 0.0
O755 O 0.3427 0.77148 0.22972 0.0
Cd756 Cd 0.38013 0.81389 0.22235 0.0
O757 O 0.37033 0.75802 0.23788 0.0
Cd758 Cd 0.41686 0.79189 0.23339 0.0
C759 C 0.41531 0.83409 0.26411 0.0
O760 O 0.41338 0.81146 0.20394 0.0
O761 O 0.44973 0.83295 0.22028 0.0
O762 O 0.42885 0.76556 0.21469 0.0
C763 C 0.43698 0.83063 0.20514 0.0
O764 O 0.40136 0.83671 0.25137 0.0
C765 C 0.44084 0.76061 0.22749 0.0
O766 O 0.4225 0.8171 0.26248 0.0
O767 O 0.44225 0.77042 0.24371 0.0
H768 H 0.19454 0.64209 0.24732 0.0
H769 H 0.22398 0.58995 0.26137 0.0
H770 H 0.27008 0.62645 0.25937 0.0
H771 H 0.24335 0.67896 0.21357 0.0
H772 H 0.24644 0.70977 0.21998 0.0
H773 H 0.21561 0.68008 0.22389 0.0
H774 H 0.21734 0.69192 0.25926 0.0
H775 H 0.24813 0.72175 0.25543 0.0
H776 H 0.24635 0.69918 0.27308 0.0
H777 H 0.31257 0.66755 0.25447 0.0
H778 H 0.34946 0.71113 0.24692 0.0
H779 H 0.29301 0.73728 0.23575 0.0
C780 C 0.21072 0.63854 0.25035 0.0
C781 C 0.20572 0.61331 0.25494 0.0
C782 C 0.2274 0.60922 0.25823 0.0
C783 C 0.25361 0.6298 0.25709 0.0
C784 C 0.25786 0.65437 0.25255 0.0
C785 C 0.23709 0.65892 0.24929 0.0
C786 C 0.24729 0.68707 0.24397 0.0
C787 C 0.2376 0.68907 0.22417 0.0
C788 C 0.2393 0.70079 0.25882 0.0
C789 C 0.27702 0.69741 0.24431 0.0
C790 C 0.2826 0.67823 0.24947 0.0
C791 C 0.3085 0.68281 0.25052 0.0
C792 C 0.32933 0.70767 0.24618 0.0
C793 C 0.3242 0.72772 0.24073 0.0
C794 C 0.29762 0.72243 0.23986 0.0
H795 H 0.58699 0.21087 0.46033 0.0
H796 H 0.58678 0.18044 0.4047 0.0
H797 H 0.57311 0.21012 0.39086 0.0
H798 H 0.53197 0.2259 0.45237 0.0
H799 H 0.54931 0.25554 0.46595 0.0
H800 H 0.55304 0.22801 0.4718 0.0
H801 H 0.6042 0.25675 0.46881 0.0
H802 H 0.60063 0.28423 0.46299 0.0
H803 H 0.61809 0.27416 0.4472 0.0
H804 H 0.5654 0.24728 0.38272 0.0
H805 H 0.56865 0.29045 0.38093 0.0
H806 H 0.57615 0.2975 0.44176 0.0
C807 C 0.58304 0.20979 0.44533 0.0
C808 C 0.58713 0.19281 0.43369 0.0
C809 C 0.58302 0.19275 0.41397 0.0
C810 C 0.57522 0.20954 0.40599 0.0
C811 C 0.57181 0.2264 0.41788 0.0
C812 C 0.57565 0.22663 0.43716 0.0
C813 C 0.57468 0.24901 0.44659 0.0
C814 C 0.55083 0.23901 0.45997 0.0
C815 C 0.60096 0.2671 0.45699 0.0
C816 C 0.5709 0.26206 0.42956 0.0
C817 C 0.56849 0.24839 0.41315 0.0
C818 C 0.5668 0.25789 0.39551 0.0
C819 C 0.56855 0.28236 0.39461 0.0
C820 C 0.57254 0.29716 0.41122 0.0
C821 C 0.57285 0.28644 0.42887 0.0
H822 H 0.3702 0.56995 0.62787 0.0
H823 H 0.43378 0.63569 0.59888 0.0
H824 H 0.40157 0.63417 0.5754 0.0
H825 H 0.32981 0.53599 0.58459 0.0
H826 H 0.29896 0.52573 0.59676 0.0
H827 H 0.32752 0.52935 0.60951 0.0
H828 H 0.32383 0.56091 0.63297 0.0
H829 H 0.29538 0.55746 0.62033 0.0
H830 H 0.32384 0.58933 0.62409 0.0
H831 H 0.36232 0.63029 0.55856 0.0
H832 H 0.31847 0.62356 0.54885 0.0
H833 H 0.27989 0.55892 0.58749 0.0
C834 C 0.37737 0.58346 0.61622 0.0
C835 C 0.40449 0.60264 0.61495 0.0
C836 C 0.41314 0.62056 0.59987 0.0
C837 C 0.39501 0.61981 0.58648 0.0
C838 C 0.36833 0.6009 0.58828 0.0
C839 C 0.35952 0.58286 0.60266 0.0
C840 C 0.32949 0.56611 0.60239 0.0
C841 C 0.32094 0.5376 0.59805 0.0
C842 C 0.31744 0.56862 0.62105 0.0
C843 C 0.32271 0.57834 0.58616 0.0
C844 C 0.34546 0.5982 0.57811 0.0
C845 C 0.34438 0.61434 0.56436 0.0
C846 C 0.31944 0.61043 0.55896 0.0
C847 C 0.29594 0.5904 0.56715 0.0
C848 C 0.29757 0.57376 0.58057 0.0
H849 H 0.78923 0.39743 0.76672 0.0
H850 H 0.82908 0.36455 0.7986 0.0
H851 H 0.80038 0.32186 0.78345 0.0
H852 H 0.7254 0.34453 0.77294 0.0
H853 H 0.71316 0.34659 0.75 0.0
H854 H 0.73959 0.37531 0.76095 0.0
H855 H 0.76916 0.38305 0.73163 0.0
H856 H 0.74278 0.35422 0.72061 0.0
H857 H 0.77519 0.35763 0.7236 0.0
H858 H 0.76537 0.28214 0.76652 0.0
H859 H 0.72411 0.24769 0.75161 0.0
H860 H 0.70511 0.30601 0.73288 0.0
C861 C 0.79208 0.3813 0.77036 0.0
C862 C 0.81138 0.38427 0.78381 0.0
C863 C 0.81447 0.36269 0.78826 0.0
C864 C 0.79836 0.33842 0.77968 0.0
C865 C 0.77913 0.33602 0.76677 0.0
C866 C 0.77579 0.35684 0.76225 0.0
C867 C 0.75186 0.34853 0.74957 0.0
C868 C 0.73129 0.35406 0.75893 0.0
C869 C 0.76026 0.36164 0.7302 0.0
C870 C 0.7418 0.31966 0.74813 0.0
C871 C 0.75818 0.31292 0.75772 0.0
C872 C 0.75248 0.2872 0.75885 0.0
C873 C 0.72907 0.26779 0.7503 0.0
C874 C 0.71145 0.27422 0.74115 0.0
C875 C 0.71823 0.30054 0.73979 0.0
H876 H 0.46412 0.82608 0.93015 0.0
H877 H 0.45291 0.84279 0.87242 0.0
H878 H 0.43997 0.7978 0.86315 0.0
H879 H 0.49093 0.7857 0.92029 0.0
H880 H 0.47381 0.76294 0.93898 0.0
H881 H 0.48152 0.7962 0.94131 0.0
H882 H 0.43185 0.78093 0.94711 0.0
H883 H 0.42402 0.74759 0.94506 0.0
H884 H 0.40722 0.75954 0.93026 0.0
H885 H 0.43198 0.75239 0.8597 0.0
H886 H 0.42371 0.70751 0.86301 0.0
H887 H 0.43653 0.71923 0.92339 0.0
C888 C 0.45844 0.82018 0.91564 0.0
C889 C 0.45924 0.83789 0.902 0.0
C890 C 0.45213 0.82941 0.88309 0.0
C891 C 0.44488 0.80399 0.87769 0.0
C892 C 0.44454 0.78713 0.89142 0.0
C893 C 0.45062 0.79468 0.91007 0.0
C894 C 0.44838 0.77262 0.92207 0.0
C895 C 0.47526 0.7798 0.93119 0.0
C896 C 0.42656 0.7647 0.937 0.0
C897 C 0.44051 0.75163 0.90719 0.0
C898 C 0.43872 0.76052 0.88957 0.0
C899 C 0.43297 0.74508 0.87346 0.0
C900 C 0.4285 0.71972 0.87545 0.0
C901 C 0.42937 0.70995 0.89345 0.0
C902 C 0.43551 0.72617 0.90949 0.0
H903 H 0.63721 0.46768 0.07888 0.0
H904 H 0.58179 0.38852 0.09577 0.0
H905 H 0.61834 0.37863 0.09613 0.0
H906 H 0.67497 0.45236 0.04781 0.0
H907 H 0.70647 0.48045 0.0538 0.0
H908 H 0.67632 0.48177 0.056 0.0
H909 H 0.68747 0.49541 0.09108 0.0
H910 H 0.71769 0.49411 0.08898 0.0
H911 H 0.69379 0.47536 0.10686 0.0
H912 H 0.6602 0.37691 0.09366 0.0
H913 H 0.70449 0.38277 0.08738 0.0
H914 H 0.73302 0.46318 0.0719 0.0
C915 C 0.6329 0.4484 0.08295 0.0
C916 C 0.60681 0.42899 0.08774 0.0
C917 C 0.60174 0.40377 0.09244 0.0
C918 C 0.62234 0.39799 0.09268 0.0
C919 C 0.64786 0.41763 0.08809 0.0
C920 C 0.65324 0.44231 0.08329 0.0
C921 C 0.68223 0.45954 0.0782 0.0
C922 C 0.68515 0.46908 0.05774 0.0
C923 C 0.69611 0.48246 0.09211 0.0
C924 C 0.69218 0.44052 0.08055 0.0
C925 C 0.67207 0.41654 0.08644 0.0
C926 C 0.67617 0.39563 0.08916 0.0
C927 C 0.70145 0.3992 0.08556 0.0
C928 C 0.72232 0.42348 0.07918 0.0
C929 C 0.71758 0.44445 0.07687 0.0
H930 H 0.36243 0.82801 0.5349 0.0
H931 H 0.38437 0.84756 0.59371 0.0
H932 H 0.35785 0.80101 0.60199 0.0
H933 H 0.29659 0.77854 0.54201 0.0
H934 H 0.29618 0.75764 0.52336 0.0
H935 H 0.31791 0.79228 0.52185 0.0
H936 H 0.35852 0.78577 0.51791 0.0
H937 H 0.33689 0.75106 0.51921 0.0
H938 H 0.36472 0.7672 0.53518 0.0
H939 H 0.32599 0.75317 0.60416 0.0
H940 H 0.29392 0.70636 0.59978 0.0
H941 H 0.29518 0.71755 0.53929 0.0
C942 C 0.36218 0.82247 0.54946 0.0
C943 C 0.37587 0.84135 0.56367 0.0
C944 C 0.37438 0.83331 0.58262 0.0
C945 C 0.35933 0.80699 0.58744 0.0
C946 C 0.34605 0.78892 0.57311 0.0
C947 C 0.34763 0.79624 0.55447 0.0
C948 C 0.33116 0.77295 0.54183 0.0
C949 C 0.30916 0.77552 0.53167 0.0
C950 C 0.34889 0.76901 0.5277 0.0
C951 C 0.31968 0.75146 0.55632 0.0
C952 C 0.32839 0.76113 0.57429 0.0
C953 C 0.31934 0.74529 0.59013 0.0
C954 C 0.30105 0.71879 0.58752 0.0
C955 C 0.2923 0.7084 0.56921 0.0
C956 C 0.30185 0.72496 0.55343 0.0
H957 H 0.55944 0.3753 0.69441 0.0
H958 H 0.57324 0.40623 0.75142 0.0
H959 H 0.59066 0.37736 0.76037 0.0
H960 H 0.53771 0.31069 0.70605 0.0
H961 H 0.55392 0.30439 0.6868 0.0
H962 H 0.54431 0.32872 0.68442 0.0
H963 H 0.59277 0.36328 0.67623 0.0
H964 H 0.60251 0.33897 0.67839 0.0
H965 H 0.61935 0.36856 0.69207 0.0
H966 H 0.60167 0.34199 0.76395 0.0
H967 H 0.60986 0.30508 0.76122 0.0
H968 H 0.59229 0.29936 0.70135 0.0
C969 C 0.56681 0.37652 0.70864 0.0
C970 C 0.56551 0.3934 0.72218 0.0
C971 C 0.57457 0.39379 0.7408 0.0
C972 C 0.58439 0.37743 0.746 0.0
C973 C 0.58523 0.36094 0.73237 0.0
C974 C 0.5771 0.36064 0.71399 0.0
C975 C 0.5795 0.34057 0.70222 0.0
C976 C 0.55224 0.31987 0.69442 0.0
C977 C 0.59974 0.35363 0.68629 0.0
C978 C 0.58968 0.32925 0.71696 0.0
C979 C 0.59266 0.34117 0.73428 0.0
C980 C 0.5999 0.33282 0.7504 0.0
C981 C 0.60435 0.31179 0.74874 0.0
C982 C 0.60194 0.29967 0.73106 0.0
C983 C 0.59472 0.30865 0.71496 0.0
H984 H 0.1783 0.53383 0.88615 0.0
H985 H 0.19386 0.61281 0.89344 0.0
H986 H 0.24189 0.62838 0.89661 0.0
H987 H 0.22621 0.53795 0.91977 0.0
H988 H 0.23573 0.51824 0.90617 0.0
H989 H 0.2027 0.51342 0.90385 0.0
H990 H 0.20927 0.52056 0.8678 0.0
H991 H 0.24234 0.5254 0.87 0.0
H992 H 0.23729 0.54994 0.85906 0.0
H993 H 0.28791 0.63536 0.89866 0.0
H994 H 0.3291 0.6332 0.90109 0.0
H995 H 0.28349 0.54939 0.89349 0.0
C996 C 0.19189 0.55441 0.88829 0.0
C997 C 0.18251 0.57222 0.88928 0.0
C998 C 0.20075 0.59895 0.8924 0.0
C999 C 0.228 0.60794 0.89422 0.0
C1000 C 0.23661 0.58991 0.89302 0.0
C1001 C 0.21913 0.5637 0.89021 0.0
C1002 C 0.23352 0.54836 0.88987 0.0
C1003 C 0.22397 0.52831 0.90587 0.0
C1004 C 0.23042 0.5353 0.87053 0.0
C1005 C 0.2618 0.57003 0.89313 0.0
C1006 C 0.26315 0.59386 0.8947 0.0
C1007 C 0.28714 0.61682 0.89748 0.0
C1008 C 0.31042 0.61539 0.89878 0.0
C1009 C 0.30947 0.59112 0.89751 0.0
C1010 C 0.2848 0.56819 0.89463 0.0
H1011 H 0.64655 0.20666 0.0115 0.0
H1012 H 0.5806 0.20095 0.04376 0.0
H1013 H 0.61217 0.2348 0.06567 0.0
H1014 H 0.69363 0.22172 0.05259 0.0
H1015 H 0.72175 0.24416 0.03875 0.0
H1016 H 0.69422 0.21634 0.02761 0.0
H1017 H 0.68904 0.24675 0.00403 0.0
H1018 H 0.71643 0.27457 0.01506 0.0
H1019 H 0.68467 0.27285 0.01292 0.0
H1020 H 0.64973 0.27373 0.08045 0.0
H1021 H 0.69096 0.31499 0.08735 0.0
H1022 H 0.73339 0.29499 0.04666 0.0
C1023 C 0.63885 0.21194 0.02357 0.0
C1024 C 0.61118 0.20079 0.02621 0.0
C1025 C 0.60173 0.20883 0.04175 0.0
C1026 C 0.61951 0.22802 0.05427 0.0
C1027 C 0.64668 0.23889 0.05112 0.0
C1028 C 0.65636 0.23102 0.03625 0.0
C1029 C 0.68633 0.24771 0.03485 0.0
C1030 C 0.69978 0.23151 0.03869 0.0
C1031 C 0.69458 0.26127 0.01558 0.0
C1032 C 0.69185 0.26701 0.05068 0.0
C1033 C 0.66871 0.26132 0.06003 0.0
C1034 C 0.6681 0.27798 0.07364 0.0
C1035 C 0.69157 0.30135 0.07746 0.0
C1036 C 0.71534 0.30773 0.06785 0.0
C1037 C 0.71566 0.29002 0.05469 0.0
H1038 H 0.41581 0.61855 0.22239 0.0
H1039 H 0.45662 0.64026 0.16876 0.0
H1040 H 0.47397 0.68656 0.17637 0.0
H1041 H 0.39283 0.66102 0.22079 0.0
H1042 H 0.39629 0.66899 0.24557 0.0
H1043 H 0.39202 0.63827 0.23792 0.0
H1044 H 0.43549 0.64831 0.25525 0.0
H1045 H 0.43993 0.67922 0.26295 0.0
H1046 H 0.46594 0.6779 0.25008 0.0
H1047 H 0.47942 0.72866 0.18653 0.0
H1048 H 0.47222 0.76373 0.19847 0.0
H1049 H 0.42896 0.71606 0.24609 0.0
C1050 C 0.42909 0.63317 0.21257 0.0
C1051 C 0.43509 0.62592 0.19506 0.0
C1052 C 0.45201 0.64545 0.18231 0.0
C1053 C 0.46205 0.67179 0.18656 0.0
C1054 C 0.45512 0.67831 0.20369 0.0
C1055 C 0.43916 0.65959 0.21657 0.0
C1056 C 0.43184 0.6715 0.23277 0.0
C1057 C 0.40146 0.65922 0.23434 0.0
C1058 C 0.44404 0.66909 0.25137 0.0
C1059 C 0.44492 0.69958 0.22644 0.0
C1060 C 0.45871 0.70315 0.2098 0.0
C1061 C 0.46948 0.7264 0.19985 0.0
C1062 C 0.46533 0.7462 0.20672 0.0
C1063 C 0.45078 0.74273 0.22344 0.0
C1064 C 0.44117 0.71949 0.23374 0.0
H1065 H 0.82343 0.44489 0.38422 0.0
H1066 H 0.79228 0.36962 0.35703 0.0
H1067 H 0.74644 0.36125 0.36173 0.0
H1068 H 0.7747 0.425 0.41959 0.0
H1069 H 0.7731 0.45454 0.41944 0.0
H1070 H 0.80331 0.45526 0.41275 0.0
H1071 H 0.80287 0.47592 0.38071 0.0
H1072 H 0.77269 0.47538 0.38734 0.0
H1073 H 0.77387 0.45992 0.36574 0.0
H1074 H 0.70421 0.36054 0.37064 0.0
H1075 H 0.6685 0.36716 0.38316 0.0
H1076 H 0.72755 0.44301 0.40478 0.0
C1077 C 0.80695 0.42683 0.37898 0.0
C1078 C 0.81133 0.40806 0.36995 0.0
C1079 C 0.78929 0.38438 0.3637 0.0
C1080 C 0.76326 0.37948 0.36633 0.0
C1081 C 0.75968 0.39843 0.3753 0.0
C1082 C 0.78092 0.42165 0.3815 0.0
C1083 C 0.77172 0.43838 0.39137 0.0
C1084 C 0.78127 0.44358 0.41201 0.0
C1085 C 0.78083 0.46391 0.38064 0.0
C1086 C 0.74192 0.42077 0.39005 0.0
C1087 C 0.73539 0.3979 0.38062 0.0
C1088 C 0.70909 0.37841 0.37797 0.0
C1089 C 0.68895 0.38237 0.38517 0.0
C1090 C 0.69519 0.40561 0.39499 0.0
C1091 C 0.72209 0.42505 0.39734 0.0
H1092 H 0.08416 0.55718 0.45677 0.0
H1093 H 0.1211 0.63488 0.43337 0.0
H1094 H 0.1582 0.64936 0.45608 0.0
H1095 H 0.10021 0.57713 0.50445 0.0
H1096 H 0.10623 0.55121 0.51098 0.0
H1097 H 0.08345 0.54643 0.49208 0.0
H1098 H 0.11026 0.53386 0.46952 0.0
H1099 H 0.13311 0.53854 0.48838 0.0
H1100 H 0.14537 0.55587 0.46654 0.0
H1101 H 0.18914 0.65632 0.48273 0.0
H1102 H 0.21309 0.65489 0.51121 0.0
H1103 H 0.15742 0.57243 0.51675 0.0
C1104 C 0.10034 0.5771 0.45624 0.0
C1105 C 0.10004 0.59483 0.44311 0.0
C1106 C 0.12117 0.62093 0.44313 0.0
C1107 C 0.14228 0.62932 0.45597 0.0
C1108 C 0.14193 0.61139 0.46875 0.0
C1109 C 0.1216 0.5858 0.46896 0.0
C1110 C 0.12548 0.57082 0.48471 0.0
C1111 C 0.10248 0.56081 0.49889 0.0
C1112 C 0.12876 0.54845 0.47681 0.0
C1113 C 0.15116 0.59201 0.49334 0.0
C1114 C 0.16019 0.6153 0.48396 0.0
C1115 C 0.18251 0.63814 0.49003 0.0
C1116 C 0.19592 0.63719 0.50617 0.0
C1117 C 0.18716 0.61352 0.51582 0.0
C1118 C 0.16469 0.59061 0.50927 0.0
H1119 H 0.59349 0.10167 0.62157 0.0
H1120 H 0.50771 0.05789 0.62681 0.0
H1121 H 0.50928 0.09274 0.6469 0.0
H1122 H 0.60669 0.1223 0.66823 0.0
H1123 H 0.6345 0.15409 0.66337 0.0
H1124 H 0.62635 0.12756 0.64735 0.0
H1125 H 0.62276 0.15428 0.61983 0.0
H1126 H 0.63103 0.18099 0.63579 0.0
H1127 H 0.6009 0.1675 0.62197 0.0
H1128 H 0.52056 0.13021 0.66875 0.0
H1129 H 0.54073 0.16716 0.69113 0.0
H1130 H 0.61927 0.18609 0.672 0.0
C1131 C 0.57503 0.09976 0.62662 0.0
C1132 C 0.55045 0.07729 0.6225 0.0
C1133 C 0.5267 0.07512 0.62965 0.0
C1134 C 0.5274 0.0948 0.64104 0.0
C1135 C 0.55202 0.11651 0.64512 0.0
C1136 C 0.5754 0.11915 0.63807 0.0
C1137 C 0.59937 0.14332 0.64578 0.0
C1138 C 0.6178 0.13639 0.65684 0.0
C1139 C 0.6144 0.16267 0.62989 0.0
C1140 C 0.58588 0.15347 0.6587 0.0
C1141 C 0.55855 0.13794 0.65792 0.0
C1142 C 0.54192 0.1427 0.66931 0.0
C1143 C 0.55357 0.1637 0.682 0.0
C1144 C 0.58156 0.17954 0.68327 0.0
C1145 C 0.59781 0.17449 0.67124 0.0
H1146 H 0.51317 0.59981 0.79315 0.0
H1147 H 0.46936 0.51582 0.7872 0.0
H1148 H 0.43211 0.51403 0.80507 0.0
H1149 H 0.49747 0.6009 0.83978 0.0
H1150 H 0.49482 0.62983 0.83847 0.0
H1151 H 0.51571 0.62515 0.82217 0.0
H1152 H 0.49024 0.63056 0.79411 0.0
H1153 H 0.46922 0.63529 0.81039 0.0
H1154 H 0.45463 0.61019 0.7926 0.0
H1155 H 0.40283 0.52046 0.82713 0.0
H1156 H 0.38374 0.53447 0.85242 0.0
H1157 H 0.44677 0.61437 0.84504 0.0
C1158 C 0.49552 0.58111 0.79532 0.0
C1159 C 0.49419 0.55791 0.7889 0.0
C1160 C 0.47079 0.5338 0.79202 0.0
C1161 C 0.4495 0.53261 0.80209 0.0
C1162 C 0.45185 0.55573 0.80886 0.0
C1163 C 0.47422 0.57956 0.80557 0.0
C1164 C 0.47302 0.60113 0.81622 0.0
C1165 C 0.49665 0.61505 0.82997 0.0
C1166 C 0.47169 0.62043 0.80251 0.0
C1167 C 0.44702 0.58554 0.82662 0.0
C1168 C 0.4349 0.55946 0.82187 0.0
C1169 C 0.41186 0.54088 0.83073 0.0
C1170 C 0.40123 0.54903 0.84515 0.0
C1171 C 0.4137 0.57553 0.85065 0.0
C1172 C 0.43651 0.59406 0.8409 0.0
H1173 H 0.92084 0.40888 0.95614 0.0
H1174 H 0.87944 0.44348 0.90774 0.0
H1175 H 0.84349 0.44058 0.9373 0.0
H1176 H 0.85233 0.36475 0.98191 0.0
H1177 H 0.86607 0.37027 0.0054 0.0
H1178 H 0.8867 0.37393 0.98543 0.0
H1179 H 0.92032 0.42096 -0.00355 0.0
H1180 H 0.89942 0.41714 0.01631 0.0
H1181 H 0.90883 0.44374 0.00025 0.0
H1182 H 0.81972 0.43454 0.97229 0.0
H1183 H 0.79702 0.42367 0.00305 0.0
H1184 H 0.84874 0.39557 0.02271 0.0
C1185 C 0.90578 0.41363 0.95217 0.0
C1186 C 0.90739 0.43087 0.92978 0.0
C1187 C 0.87954 0.43574 0.9215 0.0
C1188 C 0.85847 0.43532 0.94017 0.0
C1189 C 0.86187 0.42568 0.96338 0.0
C1190 C 0.88352 0.41443 0.96914 0.0
C1191 C 0.87843 0.40582 0.98921 0.0
C1192 C 0.8704 0.37699 0.99056 0.0
C1193 C 0.90322 0.42292 0.00126 0.0
C1194 C 0.85528 0.41034 -0.00559 0.0
C1195 C 0.84681 0.42134 0.98036 0.0
C1196 C 0.82602 0.42619 0.9833 0.0
C1197 C 0.81325 0.41996 0.00079 0.0
C1198 C 0.82115 0.40873 0.01513 0.0
C1199 C 0.84233 0.40403 0.01184 0.0
H1200 H 0.45083 0.88274 0.09995 0.0
H1201 H 0.53058 0.94339 0.11491 0.0
H1202 H 0.5231 0.9278 0.14778 0.0
H1203 H 0.41849 0.88249 0.14405 0.0
H1204 H 0.39744 0.84763 0.14404 0.0
H1205 H 0.40838 0.86479 0.12204 0.0
H1206 H 0.42807 0.83576 0.11237 0.0
H1207 H 0.41724 0.81856 0.13433 0.0
H1208 H 0.45173 0.83373 0.12773 0.0
H1209 H 0.50765 0.90462 0.17858 0.0
H1210 H 0.48583 0.87461 0.20506 0.0
H1211 H 0.41637 0.82844 0.16988 0.0
C1212 C 0.4665 0.89301 0.11027 0.0
C1213 C 0.49096 0.91474 0.10504 0.0
C1214 C 0.51141 0.92715 0.11873 0.0
C1215 C 0.50738 0.9184 0.1374 0.0
C1216 C 0.48294 0.89703 0.14209 0.0
C1217 C 0.46288 0.88442 0.12891 0.0
C1218 C 0.43906 0.86099 0.13734 0.0
C1219 C 0.41439 0.86418 0.13684 0.0
C1220 C 0.43372 0.83577 0.12735 0.0
C1221 C 0.44891 0.86233 0.15731 0.0
C1222 C 0.47421 0.88332 0.15977 0.0
C1223 C 0.48779 0.88819 0.17686 0.0
C1224 C 0.47523 0.87101 0.1918 0.0
C1225 C 0.44939 0.84922 0.18953 0.0
C1226 C 0.43605 0.84502 0.17208 0.0
H1227 H 0.56209 0.43341 0.27514 0.0
H1228 H 0.60032 0.51709 0.28258 0.0
H1229 H 0.61082 0.51266 0.31556 0.0
H1230 H 0.53421 0.41495 0.32224 0.0
H1231 H 0.54106 0.38858 0.32396 0.0
H1232 H 0.53484 0.39804 0.30125 0.0
H1233 H 0.5798 0.40463 0.28911 0.0
H1234 H 0.58616 0.39517 0.31175 0.0
H1235 H 0.60994 0.42605 0.30181 0.0
H1236 H 0.61814 0.49956 0.34726 0.0
H1237 H 0.62422 0.47896 0.37539 0.0
H1238 H 0.58263 0.40364 0.34739 0.0
C1239 C 0.5723 0.45071 0.28385 0.0
C1240 C 0.57961 0.47547 0.27647 0.0
C1241 C 0.59381 0.49783 0.28805 0.0
C1242 C 0.59993 0.49553 0.3068 0.0
C1243 C 0.59214 0.47082 0.31367 0.0
C1244 C 0.57883 0.44881 0.30255 0.0
C1245 C 0.57417 0.42474 0.3131 0.0
C1246 C 0.54429 0.40544 0.31527 0.0
C1247 C 0.58837 0.4119 0.30336 0.0
C1248 C 0.58703 0.4367 0.33188 0.0
C1249 C 0.59709 0.46328 0.3319 0.0
C1250 C 0.61033 0.47876 0.34745 0.0
C1251 C 0.61369 0.46682 0.36337 0.0
C1252 C 0.60396 0.43964 0.36363 0.0
C1253 C 0.59021 0.42441 0.34769 0.0
H1254 H 0.42766 0.86746 0.37352 0.0
H1255 H 0.4261 0.93717 0.35742 0.0
H1256 H 0.43181 0.92911 0.32426 0.0
H1257 H 0.47434 0.87003 0.33592 0.0
H1258 H 0.45581 0.83527 0.33251 0.0
H1259 H 0.45694 0.84904 0.35543 0.0
H1260 H 0.40549 0.82488 0.35609 0.0
H1261 H 0.40418 0.81117 0.3332 0.0
H1262 H 0.38768 0.82963 0.33711 0.0
H1263 H 0.43104 0.91085 0.29295 0.0
H1264 H 0.42317 0.88302 0.26512 0.0
H1265 H 0.42411 0.82408 0.30058 0.0
C1266 C 0.4293 0.88139 0.36303 0.0
C1267 C 0.42682 0.90311 0.36819 0.0
C1268 C 0.42832 0.92058 0.35401 0.0
C1269 C 0.43163 0.9162 0.33507 0.0
C1270 C 0.43325 0.89423 0.33045 0.0
C1271 C 0.43219 0.87709 0.34399 0.0
C1272 C 0.43108 0.85333 0.33502 0.0
C1273 C 0.45604 0.85184 0.34002 0.0
C1274 C 0.40559 0.82829 0.34069 0.0
C1275 C 0.43066 0.85936 0.31431 0.0
C1276 C 0.43239 0.88329 0.31207 0.0
C1277 C 0.43013 0.8923 0.29448 0.0
C1278 C 0.42549 0.87627 0.27878 0.0
C1279 C 0.42311 0.85146 0.28072 0.0
C1280 C 0.42635 0.84316 0.29867 0.0
H1281 H 0.49802 0.43809 0.49967 0.0
H1282 H 0.52416 0.41583 0.55008 0.0
H1283 H 0.55395 0.40679 0.53069 0.0
H1284 H 0.49465 0.38809 0.47019 0.0
H1285 H 0.50603 0.40814 0.44944 0.0
H1286 H 0.48852 0.41482 0.46749 0.0
H1287 H 0.52783 0.46211 0.47035 0.0
H1288 H 0.54553 0.45553 0.45234 0.0
H1289 H 0.56079 0.4677 0.47506 0.0
H1290 H 0.58062 0.39986 0.50565 0.0
H1291 H 0.59956 0.39244 0.47663 0.0
H1292 H 0.55291 0.41576 0.4427 0.0
C1293 C 0.5097 0.43103 0.5067 0.0
C1294 C 0.50811 0.42692 0.5264 0.0
C1295 C 0.52461 0.41856 0.53497 0.0
C1296 C 0.54168 0.41352 0.5241 0.0
C1297 C 0.54213 0.41705 0.50467 0.0
C1298 C 0.52646 0.42547 0.49604 0.0
C1299 C 0.5297 0.42657 0.47484 0.0
C1300 C 0.50315 0.40831 0.46491 0.0
C1301 C 0.54168 0.45465 0.46774 0.0
C1302 C 0.54921 0.4169 0.47285 0.0
C1303 C 0.55663 0.41209 0.49023 0.0
C1304 C 0.57488 0.40347 0.49196 0.0
C1305 C 0.58557 0.39938 0.47545 0.0
C1306 C 0.57748 0.40335 0.45753 0.0
C1307 C 0.55919 0.41233 0.45626 0.0
H1308 H 0.10123 0.50392 0.68229 0.0
H1309 H 0.13374 0.5766 0.71337 0.0
H1310 H 0.15911 0.60046 0.68526 0.0
H1311 H 0.16018 0.51885 0.65822 0.0
H1312 H 0.14397 0.50306 0.63645 0.0
H1313 H 0.12657 0.49188 0.65843 0.0
H1314 H 0.08843 0.49821 0.64554 0.0
H1315 H 0.10566 0.5093 0.62345 0.0
H1316 H 0.09597 0.52942 0.63634 0.0
H1317 H 0.18291 0.61605 0.65461 0.0
H1318 H 0.20344 0.62255 0.62327 0.0
H1319 H 0.15576 0.53962 0.61203 0.0
C1320 C 0.11336 0.5249 0.68302 0.0
C1321 C 0.11532 0.53849 0.6999 0.0
C1322 C 0.13176 0.56589 0.7005 0.0
C1323 C 0.14623 0.57958 0.68463 0.0
C1324 C 0.14409 0.56557 0.66828 0.0
C1325 C 0.12802 0.53886 0.66733 0.0
C1326 C 0.13027 0.52839 0.64833 0.0
C1327 C 0.14089 0.50943 0.6505 0.0
C1328 C 0.10349 0.51558 0.63779 0.0
C1329 C 0.15042 0.55336 0.63887 0.0
C1330 C 0.15801 0.57457 0.6506 0.0
C1331 C 0.17699 0.59962 0.64523 0.0
C1332 C 0.18859 0.60309 0.6274 0.0
C1333 C 0.18121 0.58162 0.61514 0.0
C1334 C 0.16174 0.55646 0.62099 0.0
H1335 H 0.53244 0.06401 0.82773 0.0
H1336 H 0.49575 0.10232 0.85675 0.0
H1337 H 0.52234 0.14184 0.83778 0.0
H1338 H 0.59896 0.12209 0.82176 0.0
H1339 H 0.60295 0.11195 0.7986 0.0
H1340 H 0.58344 0.08796 0.81604 0.0
H1341 H 0.54336 0.06747 0.79294 0.0
H1342 H 0.56265 0.09143 0.7755 0.0
H1343 H 0.53128 0.08757 0.78304 0.0
H1344 H 0.55023 0.17577 0.81396 0.0
H1345 H 0.57652 0.20125 0.7867 0.0
H1346 H 0.59439 0.14032 0.77288 0.0
C1347 C 0.53057 0.08099 0.83042 0.0
C1348 C 0.51264 0.0804 0.84407 0.0
C1349 C 0.50992 0.10262 0.84672 0.0
C1350 C 0.52489 0.12511 0.83599 0.0
C1351 C 0.54232 0.12499 0.82259 0.0
C1352 C 0.54525 0.10351 0.81979 0.0
C1353 C 0.56376 0.10763 0.80353 0.0
C1354 C 0.58876 0.1074 0.8104 0.0
C1355 C 0.54939 0.08732 0.78783 0.0
C1356 C 0.5703 0.13453 0.79732 0.0
C1357 C 0.55799 0.14434 0.80862 0.0
C1358 C 0.56018 0.1684 0.80513 0.0
C1359 C 0.57513 0.18271 0.78957 0.0
C1360 C 0.58758 0.17283 0.77762 0.0
C1361 C 0.5853 0.14854 0.78177 0.0
H1362 H 0.5279 0.61861 0.01524 0.0
H1363 H 0.46545 0.51941 0.02205 0.0
H1364 H 0.43581 0.52194 0.98989 0.0
H1365 H 0.47294 0.63239 -0.00113 0.0
H1366 H 0.49191 0.65624 0.98124 0.0
H1367 H 0.50874 0.65016 0.00019 0.0
H1368 H 0.53578 0.64053 0.97556 0.0
H1369 H 0.51856 0.64639 0.95675 0.0
H1370 H 0.5183 0.61595 0.95776 0.0
H1371 H 0.41525 0.54193 0.96366 0.0
H1372 H 0.40009 0.56202 0.9399 0.0
H1373 H 0.47101 0.63655 0.94933 0.0
C1374 C 0.51205 0.60024 0.00993 0.0
C1375 C 0.49745 0.56977 0.02416 0.0
C1376 C 0.47215 0.5373 0.01435 0.0
C1377 C 0.45321 0.5393 -0.005 0.0
C1378 C 0.46276 0.57003 0.9845 0.0
C1379 C 0.49118 0.59894 0.99089 0.0
C1380 C 0.49247 0.61978 0.97842 0.0
C1381 C 0.49145 0.64088 0.99039 0.0
C1382 C 0.51777 0.63134 0.96641 0.0
C1383 C 0.46722 0.6047 0.96616 0.0
C1384 C 0.45136 0.57787 0.96975 0.0
C1385 C 0.42735 0.56241 0.96047 0.0
C1386 C 0.41885 0.57397 0.9471 0.0
C1387 C 0.43462 0.60065 0.94285 0.0
C1388 C 0.45899 0.61599 0.95232 0.0
H1389 H 0.91857 0.41388 0.17427 0.0
H1390 H 0.96831 0.49789 0.17356 0.0
H1391 H 0.93487 0.50101 0.15395 0.0
H1392 H 0.90036 0.40739 0.12693 0.0
H1393 H 0.86683 0.38104 0.1301 0.0
H1394 H 0.89242 0.38551 0.14654 0.0
H1395 H 0.86452 0.38779 0.17414 0.0
H1396 H 0.83876 0.38327 0.15775 0.0
H1397 H 0.85322 0.41105 0.17337 0.0
H1398 H 0.89899 0.49496 0.13183 0.0
H1399 H 0.8634 0.48031 0.10803 0.0
H1400 H 0.83726 0.3999 0.12195 0.0
C1401 C 0.92222 0.43293 0.17019 0.0
C1402 C 0.94611 0.45566 0.17532 0.0
C1403 C 0.95017 0.48025 0.16974 0.0
C1404 C 0.93126 0.48221 0.15866 0.0
C1405 C 0.90835 0.4594 0.15332 0.0
C1406 C 0.9037 0.43521 0.1589 0.0
C1407 C 0.8787 0.41366 0.14974 0.0
C1408 C 0.88497 0.39587 0.13761 0.0
C1409 C 0.85754 0.39802 0.16464 0.0
C1410 C 0.87051 0.42951 0.13767 0.0
C1411 C 0.88767 0.45585 0.14022 0.0
C1412 C 0.88522 0.4744 0.12987 0.0
C1413 C 0.86496 0.46584 0.11632 0.0
C1414 C 0.84748 0.43893 0.1131 0.0
C1415 C 0.85007 0.42059 0.12421 0.0
loop_
_geom_bond_atom_site_label_1
_geom_bond_atom_site_label_2
_geom_bond_distance
_geom_bond_site_symmetry_2
_ccdc_geom_bond_type
C0 C1 1.560 . S
C0 H61 0.959 . S
C0 H62 0.959 . S
C0 H63 0.960 . S
C1 C0 1.560 . S
C1 O56 1.426 . S
C1 H60 0.980 . S
C2 C3 1.407 . S
C2 C7 1.418 . S
C2 O56 1.334 . S
C3 C2 1.407 . S
C3 C4 1.360 . S
C3 H64 0.929 . S
C4 C3 1.360 . S
C4 C5 1.401 . S
C4 C8 1.527 . S
C5 C4 1.401 . S
C5 C6 1.405 . S
C5 C38 1.587 . S
C6 C5 1.405 . S
C6 C7 1.332 . S
C6 C9 1.496 . S
C7 C2 1.418 . S
C7 C6 1.332 . S
C7 H65 0.929 . S
C8 C4 1.527 . S
C8 H66 0.959 . S
C8 H67 0.961 . S
C8 H68 0.961 . S
C9 C6 1.496 . S
C9 H69 0.960 . S
C9 H70 0.960 . S
C9 H71 0.961 . S
C10 C11 1.517 . S
C10 H73 0.961 . S
C10 H74 0.960 . S
C10 H75 0.959 . S
C11 C10 1.517 . S
C11 O59 1.468 . S
C11 H72 0.980 . S
C12 C13 1.349 . S
C12 C17 1.367 . S
C12 O59 1.408 . S
C13 C12 1.349 . S
C13 C14 1.407 . S
C13 H76 0.930 . S
C14 C13 1.407 . S
C14 C15 1.449 . S
C14 C18 1.535 . S
C15 C14 1.449 . S
C15 C16 1.384 . S
C15 C40 1.553 1_655 S
C16 C15 1.384 . S
C16 C17 1.364 . S
C16 C19 1.450 . S
C17 C12 1.367 . S
C17 C16 1.364 . S
C17 H77 0.931 . S
C18 C14 1.535 . S
C18 H78 0.959 1_655 S
C18 H79 0.961 1_655 S
C18 H80 0.959 . S
C19 C16 1.450 . S
C19 H81 0.960 . S
C19 H82 0.960 1_655 S
C19 H83 0.960 . S
C20 C21 1.309 . S
C20 C25 1.304 . S
C20 O58 1.435 . S
C21 C20 1.309 . S
C21 C22 1.476 . S
C21 H85 0.930 . S
C22 C21 1.476 . S
C22 C23 1.400 . S
C22 C26 1.567 . S
C23 C22 1.400 . S
C23 C24 1.373 . S
C23 C45 1.432 . S
C24 C23 1.373 . S
C24 C25 1.339 . S
C24 C27 1.530 . S
C25 C20 1.304 . S
C25 C24 1.339 . S
C25 H86 0.930 . S
C26 C22 1.567 . S
C26 H87 0.961 . S
C26 H88 0.960 . S
C26 H89 0.958 . S
C27 C24 1.530 . S
C27 H90 0.961 . S
C27 H91 0.960 . S
C27 H92 0.960 . S
C28 C29 1.530 . S
C28 H94 0.961 . S
C28 H95 0.961 . S
C28 H96 0.959 . S
C29 C28 1.530 . S
C29 O57 1.412 . S
C29 H93 0.980 . S
C30 C31 1.288 . S
C30 C35 1.377 . S
C30 O57 1.393 . S
C31 C30 1.288 . S
C31 C32 1.369 . S
C31 H97 0.932 . S
C32 C31 1.369 . S
C32 C33 1.398 . S
C32 C36 1.527 . S
C33 C32 1.398 . S
C33 C34 1.380 . S
C33 C47 1.497 . S
C34 C33 1.380 . S
C34 C35 1.383 . S
C34 C37 1.603 . S
C35 C30 1.377 . S
C35 C34 1.383 . S
C35 H98 0.929 . S
C36 C32 1.527 . S
C36 H99 0.961 . S
C36 H100 0.990 . S
C36 H101 0.959 . S
C37 C34 1.603 . S
C37 H102 0.960 . S
C37 H103 0.962 . S
C37 H104 0.961 . S
C38 C5 1.587 . S
C38 C39 1.360 . S
C38 C51 1.412 . S
C39 C38 1.360 . S
C39 C40 1.365 . S
C39 H105 0.929 . S
C40 C15 1.553 1_455 S
C40 C39 1.365 . S
C40 C41 1.404 . S
C41 C40 1.404 . S
C41 C42 1.395 1_455 S
C41 C52 1.451 . S
C42 C41 1.395 1_655 S
C42 C43 1.322 . S
C42 H106 0.930 . S
C43 C42 1.322 . S
C43 C44 1.459 . S
C43 H107 0.929 . S
C44 C43 1.459 . S
C44 C45 1.445 . S
C44 C53 1.395 1_655 S
C45 C23 1.432 . S
C45 C44 1.445 . S
C45 C46 1.370 . S
C46 C45 1.370 . S
C46 C47 1.438 1_655 S
C46 H108 0.930 . S
C47 C33 1.497 . S
C47 C46 1.438 1_455 S
C47 C48 1.360 . S
C48 C47 1.360 . S
C48 C49 1.401 . S
C48 C53 1.446 . S
C49 C48 1.401 . S
C49 C50 1.347 . S
C49 H109 0.929 . S
C50 C49 1.347 . S
C50 C51 1.455 . S
C50 H110 0.930 . S
C51 C38 1.412 . S
C51 C50 1.455 . S
C51 C52 1.331 . S
C52 C41 1.451 . S
C52 C51 1.331 . S
C52 C53 1.497 . S
C53 C44 1.395 1_455 S
C53 C48 1.446 . S
C53 C52 1.497 . S
C54 C55 1.582 . S
C54 H111 0.962 . S
C54 H112 0.959 . S
C54 H113 0.958 . S
C55 C54 1.582 . S
C55 O58 1.458 . S
C55 H84 0.980 . S
O56 C1 1.426 . S
O56 C2 1.334 . S
O57 C29 1.412 . S
O57 C30 1.393 . S
O58 C20 1.435 . S
O58 C55 1.458 . S
O59 C11 1.468 . S
O59 C12 1.408 . S
H60 C1 0.980 . S
H61 C0 0.959 . S
H62 C0 0.959 . S
H63 C0 0.960 . S
H64 C3 0.929 . S
H65 C7 0.929 . S
H66 C8 0.959 . S
H67 C8 0.961 . S
H68 C8 0.961 . S
H69 C9 0.960 . S
H70 C9 0.960 . S
H71 C9 0.961 . S
H72 C11 0.980 . S
H73 C10 0.961 . S
H74 C10 0.960 . S
H75 C10 0.959 . S
H76 C13 0.930 . S
H77 C17 0.931 . S
H78 C18 0.959 1_455 S
H79 C18 0.961 1_455 S
H80 C18 0.959 . S
H81 C19 0.960 . S
H82 C19 0.960 1_455 S
H83 C19 0.960 . S
H84 C55 0.980 . S
H85 C21 0.930 . S
H86 C25 0.930 . S
H87 C26 0.961 . S
H88 C26 0.960 . S
H89 C26 0.958 . S
H90 C27 0.961 . S
H91 C27 0.960 . S
H92 C27 0.960 . S
H93 C29 0.980 . S
H94 C28 0.961 . S
H95 C28 0.961 . S
H96 C28 0.959 . S
H97 C31 0.932 . S
H98 C35 0.929 . S
H99 C36 0.961 . S
H100 C36 0.990 . S
H101 C36 0.959 . S
H102 C37 0.960 . S
H103 C37 0.962 . S
H104 C37 0.961 . S
H105 C39 0.929 . S
H106 C42 0.930 . S
H107 C43 0.929 . S
H108 C46 0.930 . S
H109 C49 0.929 . S
H110 C50 0.930 . S
H111 C54 0.962 . S
H112 C54 0.959 . S
H113 C54 0.958 . S
C114 C115 1.560 . S
C114 H175 0.959 . S
C114 H176 0.959 . S
C114 H177 0.960 . S
C115 C114 1.560 . S
C115 O170 1.426 . S
C115 H174 0.980 . S
C116 C117 1.407 . S
C116 C121 1.418 . S
C116 O170 1.334 . S
C117 C116 1.407 . S
C117 C118 1.360 . S
C117 H178 0.929 . S
C118 C117 1.360 . S
C118 C119 1.401 . S
C118 C122 1.527 . S
C119 C118 1.401 . S
C119 C120 1.405 . S
C119 C152 1.587 . S
C120 C119 1.405 . S
C120 C121 1.332 . S
C120 C123 1.496 . S
C121 C116 1.418 . S
C121 C120 1.332 . S
C121 H179 0.929 . S
C122 C118 1.527 . S
C122 H180 0.959 . S
C122 H181 0.961 . S
C122 H182 0.961 . S
C123 C120 1.496 . S
C123 H183 0.960 . S
C123 H184 0.960 . S
C123 H185 0.961 . S
C124 C125 1.517 . S
C124 H187 0.961 . S
C124 H188 0.960 . S
C124 H189 0.959 . S
C125 C124 1.517 . S
C125 O173 1.468 . S
C125 H186 0.980 . S
C126 C127 1.349 . S
C126 C131 1.367 . S
C126 O173 1.408 . S
C127 C126 1.349 . S
C127 C128 1.407 . S
C127 H190 0.930 . S
C128 C127 1.407 . S
C128 C129 1.449 . S
C128 C132 1.535 . S
C129 C128 1.449 . S
C129 C130 1.384 . S
C129 C154 1.553 . S
C130 C129 1.384 . S
C130 C131 1.364 . S
C130 C133 1.450 . S
C131 C126 1.367 . S
C131 C130 1.364 . S
C131 H191 0.931 . S
C132 C128 1.535 . S
C132 H192 0.959 . S
C132 H193 0.961 . S
C132 H194 0.959 . S
C133 C130 1.450 . S
C133 H195 0.960 . S
C133 H196 0.960 . S
C133 H197 0.960 . S
C134 C135 1.309 . S
C134 C139 1.304 . S
C134 O172 1.435 . S
C135 C134 1.309 . S
C135 C136 1.476 . S
C135 H199 0.930 . S
C136 C135 1.476 . S
C136 C137 1.400 . S
C136 C140 1.567 . S
C137 C136 1.400 . S
C137 C138 1.373 . S
C137 C159 1.432 . S
C138 C137 1.373 . S
C138 C139 1.339 . S
C138 C141 1.530 . S
C139 C134 1.304 . S
C139 C138 1.339 . S
C139 H200 0.930 . S
C140 C136 1.567 . S
C140 H201 0.961 . S
C140 H202 0.960 . S
C140 H203 0.958 . S
C141 C138 1.530 . S
C141 H204 0.961 . S
C141 H205 0.960 . S
C141 H206 0.960 . S
C142 C143 1.530 . S
C142 H208 0.961 . S
C142 H209 0.961 . S
C142 H210 0.959 . S
C143 C142 1.530 . S
C143 O171 1.412 . S
C143 H207 0.980 . S
C144 C145 1.288 . S
C144 C149 1.377 . S
C144 O171 1.393 . S
C145 C144 1.288 . S
C145 C146 1.369 . S
C145 H211 0.932 . S
C146 C145 1.369 . S
C146 C147 1.398 . S
C146 C150 1.527 1_565 S
C147 C146 1.398 . S
C147 C148 1.380 . S
C147 C161 1.497 1_565 S
C148 C147 1.380 . S
C148 C149 1.383 . S
C148 C151 1.603 . S
C149 C144 1.377 . S
C149 C148 1.383 . S
C149 H212 0.929 . S
C150 C146 1.527 1_545 S
C150 H213 0.961 . S
C150 H214 0.959 . S
C150 H215 0.959 1_545 S
C151 C148 1.603 . S
C151 H216 0.960 . S
C151 H217 0.962 . S
C151 H218 0.961 . S
C152 C119 1.587 . S
C152 C153 1.360 . S
C152 C165 1.412 . S
C153 C152 1.360 . S
C153 C154 1.365 1_565 S
C153 H219 0.929 . S
C154 C129 1.553 . S
C154 C153 1.365 1_545 S
C154 C155 1.404 . S
C155 C154 1.404 . S
C155 C156 1.395 . S
C155 C166 1.451 . S
C156 C155 1.395 . S
C156 C157 1.322 . S
C156 H220 0.930 . S
C157 C156 1.322 . S
C157 C158 1.459 . S
C157 H221 0.929 . S
C158 C157 1.459 . S
C158 C159 1.445 . S
C158 C167 1.395 . S
C159 C137 1.432 . S
C159 C158 1.445 . S
C159 C160 1.370 . S
C160 C159 1.370 . S
C160 C161 1.438 . S
C160 H222 0.930 . S
C161 C147 1.497 1_545 S
C161 C160 1.438 . S
C161 C162 1.360 1_545 S
C162 C161 1.360 1_565 S
C162 C163 1.401 . S
C162 C167 1.446 1_565 S
C163 C162 1.401 . S
C163 C164 1.347 . S
C163 H223 0.929 . S
C164 C163 1.347 . S
C164 C165 1.455 . S
C164 H224 0.930 . S
C165 C152 1.412 . S
C165 C164 1.455 . S
C165 C166 1.331 1_565 S
C166 C155 1.451 . S
C166 C165 1.331 1_545 S
C166 C167 1.497 . S
C167 C158 1.395 . S
C167 C162 1.446 1_545 S
C167 C166 1.497 . S
C168 C169 1.582 . S
C168 H225 0.962 . S
C168 H226 0.959 . S
C168 H227 0.958 . S
C169 C168 1.582 . S
C169 O172 1.458 . S
C169 H198 0.980 . S
O170 C115 1.426 . S
O170 C116 1.334 . S
O171 C143 1.412 . S
O171 C144 1.393 . S
O172 C134 1.435 . S
O172 C169 1.458 . S
O173 C125 1.468 . S
O173 C126 1.408 . S
H174 C115 0.980 . S
H175 C114 0.959 . S
H176 C114 0.959 . S
H177 C114 0.960 . S
H178 C117 0.929 . S
H179 C121 0.929 . S
H180 C122 0.959 . S
H181 C122 0.961 . S
H182 C122 0.961 . S
H183 C123 0.960 . S
H184 C123 0.960 . S
H185 C123 0.961 . S
H186 C125 0.980 . S
H187 C124 0.961 . S
H188 C124 0.960 . S
H189 C124 0.959 . S
H190 C127 0.930 . S
H191 C131 0.931 . S
H192 C132 0.959 . S
H193 C132 0.961 . S
H194 C132 0.959 . S
H195 C133 0.960 . S
H196 C133 0.960 . S
H197 C133 0.960 . S
H198 C169 0.980 . S
H199 C135 0.930 . S
H200 C139 0.930 . S
H201 C140 0.961 . S
H202 C140 0.960 . S
H203 C140 0.958 . S
H204 C141 0.961 . S
H205 C141 0.960 . S
H206 C141 0.960 . S
H207 C143 0.980 . S
H208 C142 0.961 . S
H209 C142 0.961 . S
H210 C142 0.959 . S
H211 C145 0.932 . S
H212 C149 0.929 . S
H213 C150 0.961 . S
H214 C150 0.959 . S
H215 C150 0.959 1_565 S
H216 C151 0.960 . S
H217 C151 0.962 . S
H218 C151 0.961 . S
H219 C153 0.929 . S
H220 C156 0.930 . S
H221 C157 0.929 . S
H222 C160 0.930 . S
H223 C163 0.929 . S
H224 C164 0.930 . S
H225 C168 0.962 . S
H226 C168 0.959 . S
H227 C168 0.958 . S
C228 C229 1.560 . S
C228 H289 0.959 . S
C228 H290 0.959 . S
C228 H291 0.960 . S
C229 C228 1.560 . S
C229 O284 1.426 . S
C229 H288 0.980 . S
C230 C231 1.407 . S
C230 C235 1.418 . S
C230 O284 1.334 . S
C231 C230 1.407 . S
C231 C232 1.360 . S
C231 H292 0.929 . S
C232 C231 1.360 . S
C232 C233 1.401 . S
C232 C236 1.527 . S
C233 C232 1.401 . S
C233 C234 1.405 . S
C233 C266 1.587 . S
C234 C233 1.405 . S
C234 C235 1.332 . S
C234 C237 1.496 . S
C235 C230 1.418 . S
C235 C234 1.332 . S
C235 H293 0.929 . S
C236 C232 1.527 . S
C236 H294 0.959 . S
C236 H295 0.961 . S
C236 H296 0.961 . S
C237 C234 1.496 . S
C237 H297 0.960 . S
C237 H298 0.960 . S
C237 H299 0.961 . S
C238 C239 1.517 . S
C238 H301 0.961 . S
C238 H302 0.960 . S
C238 H303 0.959 . S
C239 C238 1.517 . S
C239 O287 1.468 . S
C239 H300 0.980 . S
C240 C241 1.349 . S
C240 C245 1.367 . S
C240 O287 1.408 . S
C241 C240 1.349 . S
C241 C242 1.407 . S
C241 H304 0.930 . S
C242 C241 1.407 . S
C242 C243 1.449 . S
C242 C246 1.535 . S
C243 C242 1.449 . S
C243 C244 1.384 . S
C243 C268 1.553 . S
C244 C243 1.384 . S
C244 C245 1.364 . S
C244 C247 1.450 . S
C245 C240 1.367 . S
C245 C244 1.364 . S
C245 H305 0.931 . S
C246 C242 1.535 . S
C246 H306 0.959 . S
C246 H307 0.961 . S
C246 H308 0.959 . S
C247 C244 1.450 . S
C247 H309 0.960 . S
C247 H310 0.960 . S
C247 H311 0.960 . S
C248 C249 1.309 . S
C248 C253 1.304 . S
C248 O286 1.435 . S
C249 C248 1.309 . S
C249 C250 1.476 . S
C249 H313 0.930 . S
C250 C249 1.476 . S
C250 C251 1.400 . S
C250 C254 1.567 . S
C251 C250 1.400 . S
C251 C252 1.373 . S
C251 C273 1.432 . S
C252 C251 1.373 . S
C252 C253 1.339 . S
C252 C255 1.530 . S
C253 C248 1.304 . S
C253 C252 1.339 . S
C253 H314 0.930 . S
C254 C250 1.567 . S
C254 H315 0.961 . S
C254 H316 0.960 . S
C254 H317 0.958 . S
C255 C252 1.530 . S
C255 H318 0.961 . S
C255 H319 0.960 . S
C255 H320 0.960 . S
C256 C257 1.530 . S
C256 H322 0.961 . S
C256 H323 0.961 . S
C256 H324 0.959 . S
C257 C256 1.530 . S
C257 O285 1.412 . S
C257 H321 0.980 . S
C258 C259 1.288 . S
C258 C263 1.377 . S
C258 O285 1.393 . S
C259 C258 1.288 . S
C259 C260 1.369 . S
C259 H325 0.932 . S
C260 C259 1.369 . S
C260 C261 1.398 . S
C260 C264 1.527 . S
C261 C260 1.398 . S
C261 C262 1.380 . S
C261 C275 1.497 . S
C262 C261 1.380 . S
C262 C263 1.383 . S
C262 C265 1.603 . S
C263 C258 1.377 . S
C263 C262 1.383 . S
C263 H326 0.929 . S
C264 C260 1.527 . S
C264 H327 0.961 . S
C264 H328 0.959 . S
C264 H329 0.959 . S
C265 C262 1.603 . S
C265 H330 0.960 . S
C265 H331 0.962 . S
C265 H332 0.961 . S
C266 C233 1.587 . S
C266 C267 1.360 . S
C266 C279 1.412 . S
C267 C266 1.360 . S
C267 C268 1.365 . S
C267 H333 0.929 . S
C268 C243 1.553 . S
C268 C267 1.365 . S
C268 C269 1.404 . S
C269 C268 1.404 . S
C269 C270 1.395 . S
C269 C280 1.451 . S
C270 C269 1.395 . S
C270 C271 1.322 . S
C270 H334 0.930 . S
C271 C270 1.322 . S
C271 C272 1.459 . S
C271 H335 0.929 . S
C272 C271 1.459 . S
C272 C273 1.445 . S
C272 C281 1.395 . S
C273 C251 1.432 . S
C273 C272 1.445 . S
C273 C274 1.370 . S
C274 C273 1.370 . S
C274 C275 1.438 . S
C274 H336 0.930 . S
C275 C261 1.497 . S
C275 C274 1.438 . S
C275 C276 1.360 . S
C276 C275 1.360 . S
C276 C277 1.401 . S
C276 C281 1.446 . S
C277 C276 1.401 . S
C277 C278 1.347 . S
C277 H337 0.929 . S
C278 C277 1.347 . S
C278 C279 1.455 . S
C278 H338 0.930 . S
C279 C266 1.412 . S
C279 C278 1.455 . S
C279 C280 1.331 . S
C280 C269 1.451 . S
C280 C279 1.331 . S
C280 C281 1.497 . S
C281 C272 1.395 . S
C281 C276 1.446 . S
C281 C280 1.497 . S
C282 C283 1.582 . S
C282 H339 0.962 . S
C282 H340 0.959 . S
C282 H341 0.958 . S
C283 C282 1.582 . S
C283 O286 1.458 . S
C283 H312 0.980 . S
O284 C229 1.426 . S
O284 C230 1.334 . S
O285 C257 1.412 . S
O285 C258 1.393 . S
O286 C248 1.435 . S
O286 C283 1.458 . S
O287 C239 1.468 . S
O287 C240 1.408 . S
H288 C229 0.980 . S
H289 C228 0.959 . S
H290 C228 0.959 . S
H291 C228 0.960 . S
H292 C231 0.929 . S
H293 C235 0.929 . S
H294 C236 0.959 . S
H295 C236 0.961 . S
H296 C236 0.961 . S
H297 C237 0.960 . S
H298 C237 0.960 . S
H299 C237 0.961 . S
H300 C239 0.980 . S
H301 C238 0.961 . S
H302 C238 0.960 . S
H303 C238 0.959 . S
H304 C241 0.930 . S
H305 C245 0.931 . S
H306 C246 0.959 . S
H307 C246 0.961 . S
H308 C246 0.959 . S
H309 C247 0.960 . S
H310 C247 0.960 . S
H311 C247 0.960 . S
H312 C283 0.980 . S
H313 C249 0.930 . S
H314 C253 0.930 . S
H315 C254 0.961 . S
H316 C254 0.960 . S
H317 C254 0.958 . S
H318 C255 0.961 . S
H319 C255 0.960 . S
H320 C255 0.960 . S
H321 C257 0.980 . S
H322 C256 0.961 . S
H323 C256 0.961 . S
H324 C256 0.959 . S
H325 C259 0.932 . S
H326 C263 0.929 . S
H327 C264 0.961 . S
H328 C264 0.959 . S
H329 C264 0.959 . S
H330 C265 0.960 . S
H331 C265 0.962 . S
H332 C265 0.961 . S
H333 C267 0.929 . S
H334 C270 0.930 . S
H335 C271 0.929 . S
H336 C274 0.930 . S
H337 C277 0.929 . S
H338 C278 0.930 . S
H339 C282 0.962 . S
H340 C282 0.959 . S
H341 C282 0.958 . S
C342 C343 1.560 . S
C342 H403 0.959 . S
C342 H404 0.959 . S
C342 H405 0.960 . S
C343 C342 1.560 . S
C343 O398 1.426 . S
C343 H402 0.980 . S
C344 C345 1.407 . S
C344 C349 1.418 . S
C344 O398 1.334 . S
C345 C344 1.407 . S
C345 C346 1.360 . S
C345 H406 0.929 . S
C346 C345 1.360 . S
C346 C347 1.401 . S
C346 C350 1.527 . S
C347 C346 1.401 . S
C347 C348 1.405 . S
C347 C380 1.587 . S
C348 C347 1.405 . S
C348 C349 1.332 . S
C348 C351 1.496 . S
C349 C344 1.418 . S
C349 C348 1.332 . S
C349 H407 0.929 . S
C350 C346 1.527 . S
C350 H408 0.959 . S
C350 H409 0.961 . S
C350 H410 0.961 . S
C351 C348 1.496 . S
C351 H411 0.960 . S
C351 H412 0.960 . S
C351 H413 0.961 . S
C352 C353 1.517 . S
C352 H415 0.961 . S
C352 H416 0.960 . S
C352 H417 0.959 . S
C353 C352 1.517 . S
C353 O401 1.468 . S
C353 H414 0.980 . S
C354 C355 1.349 . S
C354 C359 1.367 . S
C354 O401 1.408 . S
C355 C354 1.349 . S
C355 C356 1.407 . S
C355 H418 0.930 . S
C356 C355 1.407 . S
C356 C357 1.449 . S
C356 C360 1.535 . S
C357 C356 1.449 . S
C357 C358 1.384 . S
C357 C382 1.553 1_655 S
C358 C357 1.384 . S
C358 C359 1.364 . S
C358 C361 1.450 . S
C359 C354 1.367 . S
C359 C358 1.364 . S
C359 H419 0.931 . S
C360 C356 1.535 . S
C360 H420 0.959 1_655 S
C360 H421 0.961 1_655 S
C360 H422 0.959 . S
C361 C358 1.450 . S
C361 H423 0.960 . S
C361 H424 0.960 1_655 S
C361 H425 0.960 . S
C362 C363 1.309 . S
C362 C367 1.304 . S
C362 O400 1.435 . S
C363 C362 1.309 . S
C363 C364 1.476 . S
C363 H427 0.930 . S
C364 C363 1.476 . S
C364 C365 1.400 . S
C364 C368 1.567 . S
C365 C364 1.400 . S
C365 C366 1.373 . S
C365 C387 1.432 . S
C366 C365 1.373 . S
C366 C367 1.339 . S
C366 C369 1.530 . S
C367 C362 1.304 . S
C367 C366 1.339 . S
C367 H428 0.930 . S
C368 C364 1.567 . S
C368 H429 0.961 . S
C368 H430 0.960 . S
C368 H431 0.958 . S
C369 C366 1.530 . S
C369 H432 0.961 . S
C369 H433 0.960 . S
C369 H434 0.960 . S
C370 C371 1.530 . S
C370 H436 0.961 . S
C370 H437 0.961 . S
C370 H438 0.959 . S
C371 C370 1.530 . S
C371 O399 1.412 . S
C371 H435 0.980 . S
C372 C373 1.288 . S
C372 C377 1.377 . S
C372 O399 1.393 . S
C373 C372 1.288 . S
C373 C374 1.369 . S
C373 H439 0.932 . S
C374 C373 1.369 . S
C374 C375 1.398 . S
C374 C378 1.527 . S
C375 C374 1.398 . S
C375 C376 1.380 . S
C375 C389 1.497 . S
C376 C375 1.380 . S
C376 C377 1.383 . S
C376 C379 1.603 . S
C377 C372 1.377 . S
C377 C376 1.383 . S
C377 H440 0.929 . S
C378 C374 1.527 . S
C378 H441 0.961 . S
C378 H442 0.959 1_455 S
C378 H443 0.959 . S
C379 C376 1.603 . S
C379 H444 0.960 . S
C379 H445 0.962 . S
C379 H446 0.961 . S
C380 C347 1.587 . S
C380 C381 1.360 . S
C380 C393 1.412 . S
C381 C380 1.360 . S
C381 C382 1.365 . S
C381 H447 0.929 . S
C382 C357 1.553 1_455 S
C382 C381 1.365 . S
C382 C383 1.401 1_455 S
C383 C382 1.401 1_655 S
C383 C384 1.403 . S
C383 C394 1.445 1_655 S
C384 C383 1.403 . S
C384 C385 1.322 . S
C384 H448 0.930 . S
C385 C384 1.322 . S
C385 C386 1.459 . S
C385 H449 0.929 . S
C386 C385 1.459 . S
C386 C387 1.445 . S
C386 C395 1.395 1_655 S
C387 C365 1.432 . S
C387 C386 1.445 . S
C387 C388 1.370 . S
C388 C387 1.370 . S
C388 C389 1.438 1_655 S
C388 H450 0.930 . S
C389 C375 1.497 . S
C389 C388 1.438 1_455 S
C389 C390 1.360 . S
C390 C389 1.360 . S
C390 C391 1.401 . S
C390 C395 1.446 . S
C391 C390 1.401 . S
C391 C392 1.347 . S
C391 H451 0.929 . S
C392 C391 1.347 . S
C392 C393 1.455 . S
C392 H452 0.930 . S
C393 C380 1.412 . S
C393 C392 1.455 . S
C393 C394 1.331 . S
C394 C383 1.445 1_455 S
C394 C393 1.331 . S
C394 C395 1.497 . S
C395 C386 1.395 1_455 S
C395 C390 1.446 . S
C395 C394 1.497 . S
C396 C397 1.582 . S
C396 H453 0.962 . S
C396 H454 0.959 . S
C396 H455 0.958 . S
C397 C396 1.582 . S
C397 O400 1.458 . S
C397 H426 0.980 . S
O398 C343 1.426 . S
O398 C344 1.334 . S
O399 C371 1.412 . S
O399 C372 1.393 . S
O400 C362 1.435 . S
O400 C397 1.458 . S
O401 C353 1.468 . S
O401 C354 1.408 . S
H402 C343 0.980 . S
H403 C342 0.959 . S
H404 C342 0.959 . S
H405 C342 0.960 . S
H406 C345 0.929 . S
H407 C349 0.929 . S
H408 C350 0.959 . S
H409 C350 0.961 . S
H410 C350 0.961 . S
H411 C351 0.960 . S
H412 C351 0.960 . S
H413 C351 0.961 . S
H414 C353 0.980 . S
H415 C352 0.961 . S
H416 C352 0.960 . S
H417 C352 0.959 . S
H418 C355 0.930 . S
H419 C359 0.931 . S
H420 C360 0.959 1_455 S
H421 C360 0.961 1_455 S
H422 C360 0.959 . S
H423 C361 0.960 . S
H424 C361 0.960 1_455 S
H425 C361 0.960 . S
H426 C397 0.980 . S
H427 C363 0.930 . S
H428 C367 0.930 . S
H429 C368 0.961 . S
H430 C368 0.960 . S
H431 C368 0.958 . S
H432 C369 0.961 . S
H433 C369 0.960 . S
H434 C369 0.960 . S
H435 C371 0.980 . S
H436 C370 0.961 . S
H437 C370 0.961 . S
H438 C370 0.959 . S
H439 C373 0.932 . S
H440 C377 0.929 . S
H441 C378 0.961 . S
H442 C378 0.959 1_655 S
H443 C378 0.959 . S
H444 C379 0.960 . S
H445 C379 0.962 . S
H446 C379 0.961 . S
H447 C381 0.929 . S
H448 C384 0.930 . S
H449 C385 0.929 . S
H450 C388 0.930 . S
H451 C391 0.929 . S
H452 C392 0.930 . S
H453 C396 0.962 . S
H454 C396 0.959 . S
H455 C396 0.958 . S
C456 C457 1.560 . S
C456 H517 0.959 . S
C456 H518 0.959 . S
C456 H519 0.960 . S
C457 C456 1.560 . S
C457 O512 1.426 . S
C457 H516 0.980 . S
C458 C459 1.407 . S
C458 C463 1.418 . S
C458 O512 1.334 . S
C459 C458 1.407 . S
C459 C460 1.360 . S
C459 H520 0.929 . S
C460 C459 1.360 . S
C460 C461 1.401 . S
C460 C464 1.527 . S
C461 C460 1.401 . S
C461 C462 1.405 . S
C461 C494 1.587 . S
C462 C461 1.405 . S
C462 C463 1.332 . S
C462 C465 1.496 . S
C463 C458 1.418 . S
C463 C462 1.332 . S
C463 H521 0.929 . S
C464 C460 1.527 . S
C464 H522 0.959 . S
C464 H523 0.961 . S
C464 H524 0.961 . S
C465 C462 1.496 . S
C465 H525 0.960 . S
C465 H526 0.960 . S
C465 H527 0.961 . S
C466 C467 1.517 . S
C466 H529 0.961 . S
C466 H530 0.960 . S
C466 H531 0.959 . S
C467 C466 1.517 . S
C467 O515 1.468 . S
C467 H528 0.980 . S
C468 C469 1.349 . S
C468 C473 1.367 . S
C468 O515 1.408 . S
C469 C468 1.349 . S
C469 C470 1.407 . S
C469 H532 0.930 . S
C470 C469 1.407 . S
C470 C471 1.449 . S
C470 C474 1.535 . S
C471 C470 1.449 . S
C471 C472 1.384 . S
C471 C496 1.553 . S
C472 C471 1.384 . S
C472 C473 1.364 . S
C472 C475 1.450 . S
C473 C468 1.367 . S
C473 C472 1.364 . S
C473 H533 0.931 . S
C474 C470 1.535 . S
C474 H534 0.959 . S
C474 H535 0.961 . S
C474 H536 0.959 . S
C475 C472 1.450 . S
C475 H537 0.960 . S
C475 H538 0.960 . S
C475 H539 0.960 . S
C476 C477 1.309 . S
C476 C481 1.304 . S
C476 O514 1.435 . S
C477 C476 1.309 . S
C477 C478 1.476 . S
C477 H541 0.930 . S
C478 C477 1.476 . S
C478 C479 1.400 . S
C478 C482 1.567 . S
C479 C478 1.400 . S
C479 C480 1.373 . S
C479 C501 1.432 . S
C480 C479 1.373 . S
C480 C481 1.339 . S
C480 C483 1.530 . S
C481 C476 1.304 . S
C481 C480 1.339 . S
C481 H542 0.930 . S
C482 C478 1.567 . S
C482 H543 0.961 . S
C482 H544 0.960 . S
C482 H545 0.958 . S
C483 C480 1.530 . S
C483 H546 0.961 . S
C483 H547 0.960 . S
C483 H548 0.960 . S
C484 C485 1.530 . S
C484 H550 0.961 . S
C484 H551 0.961 . S
C484 H552 0.959 . S
C485 C484 1.530 . S
C485 O513 1.412 . S
C485 H549 0.980 . S
C486 C487 1.288 . S
C486 C491 1.377 . S
C486 O513 1.393 . S
C487 C486 1.288 . S
C487 C488 1.369 . S
C487 H553 0.932 . S
C488 C487 1.369 . S
C488 C489 1.398 . S
C488 C492 1.527 1_565 S
C489 C488 1.398 . S
C489 C490 1.380 . S
C489 C503 1.497 1_565 S
C490 C489 1.380 . S
C490 C491 1.383 . S
C490 C493 1.603 . S
C491 C486 1.377 . S
C491 C490 1.383 . S
C491 H554 0.929 . S
C492 C488 1.527 1_545 S
C492 H555 0.961 1_545 S
C492 H556 0.959 . S
C492 H557 0.959 1_545 S
C493 C490 1.603 . S
C493 H558 0.960 . S
C493 H559 0.962 . S
C493 H560 0.961 . S
C494 C461 1.587 . S
C494 C495 1.360 . S
C494 C507 1.412 . S
C495 C494 1.360 . S
C495 C496 1.365 1_565 S
C495 H561 0.929 . S
C496 C471 1.553 . S
C496 C495 1.365 1_545 S
C496 C497 1.404 . S
C497 C496 1.404 . S
C497 C498 1.395 . S
C497 C508 1.426 1_545 S
C498 C497 1.395 . S
C498 C499 1.322 . S
C498 H562 0.930 . S
C499 C498 1.322 . S
C499 C500 1.459 . S
C499 H563 0.929 . S
C500 C499 1.459 . S
C500 C501 1.445 1_556 S
C500 C509 1.395 . S
C501 C479 1.432 . S
C501 C500 1.445 1_554 S
C501 C502 1.370 . S
C502 C501 1.370 . S
C502 C503 1.438 . S
C502 H564 0.930 . S
C503 C489 1.497 1_545 S
C503 C502 1.438 . S
C503 C504 1.360 1_545 S
C504 C503 1.360 1_565 S
C504 C505 1.401 . S
C504 C509 1.446 1_564 S
C505 C504 1.401 . S
C505 C506 1.347 1_554 S
C505 H565 0.929 . S
C506 C505 1.347 1_556 S
C506 C507 1.455 . S
C506 H566 0.930 . S
C507 C494 1.412 . S
C507 C506 1.455 . S
C507 C508 1.366 . S
C508 C497 1.426 1_565 S
C508 C507 1.366 . S
C508 C509 1.484 1_565 S
C509 C500 1.395 . S
C509 C504 1.446 1_546 S
C509 C508 1.484 1_545 S
C510 C511 1.582 . S
C510 H567 0.962 . S
C510 H568 0.959 . S
C510 H569 0.958 . S
C511 C510 1.582 . S
C511 O514 1.458 . S
C511 H540 0.980 . S
O512 C457 1.426 . S
O512 C458 1.334 . S
O513 C485 1.412 . S
O513 C486 1.393 . S
O514 C476 1.435 . S
O514 C511 1.458 . S
O515 C467 1.468 . S
O515 C468 1.408 . S
H516 C457 0.980 . S
H517 C456 0.959 . S
H518 C456 0.959 . S
H519 C456 0.960 . S
H520 C459 0.929 . S
H521 C463 0.929 . S
H522 C464 0.959 . S
H523 C464 0.961 . S
H524 C464 0.961 . S
H525 C465 0.960 . S
H526 C465 0.960 . S
H527 C465 0.961 . S
H528 C467 0.980 . S
H529 C466 0.961 . S
H530 C466 0.960 . S
H531 C466 0.959 . S
H532 C469 0.930 . S
H533 C473 0.931 . S
H534 C474 0.959 . S
H535 C474 0.961 . S
H536 C474 0.959 . S
H537 C475 0.960 . S
H538 C475 0.960 . S
H539 C475 0.960 . S
H540 C511 0.980 . S
H541 C477 0.930 . S
H542 C481 0.930 . S
H543 C482 0.961 . S
H544 C482 0.960 . S
H545 C482 0.958 . S
H546 C483 0.961 . S
H547 C483 0.960 . S
H548 C483 0.960 . S
H549 C485 0.980 . S
H550 C484 0.961 . S
H551 C484 0.961 . S
H552 C484 0.959 . S
H553 C487 0.932 . S
H554 C491 0.929 . S
H555 C492 0.961 1_565 S
H556 C492 0.959 . S
H557 C492 0.959 1_565 S
H558 C493 0.960 . S
H559 C493 0.962 . S
H560 C493 0.961 . S
H561 C495 0.929 . S
H562 C498 0.930 . S
H563 C499 0.929 . S
H564 C502 0.930 . S
H565 C505 0.929 . S
H566 C506 0.930 . S
H567 C510 0.962 . S
H568 C510 0.959 . S
H569 C510 0.958 . S
C570 C571 1.560 . S
C570 H631 0.959 . S
C570 H632 0.959 . S
C570 H633 0.960 . S
C571 C570 1.560 . S
C571 O626 1.426 . S
C571 H630 0.980 . S
C572 C573 1.407 . S
C572 C577 1.418 . S
C572 O626 1.334 . S
C573 C572 1.407 . S
C573 C574 1.360 . S
C573 H634 0.929 . S
C574 C573 1.360 . S
C574 C575 1.401 . S
C574 C578 1.527 . S
C575 C574 1.401 . S
C575 C576 1.405 . S
C575 C608 1.587 . S
C576 C575 1.405 . S
C576 C577 1.332 . S
C576 C579 1.496 . S
C577 C572 1.418 . S
C577 C576 1.332 . S
C577 H635 0.929 . S
C578 C574 1.527 . S
C578 H636 0.959 . S
C578 H637 0.961 . S
C578 H638 0.961 . S
C579 C576 1.496 . S
C579 H639 0.960 . S
C579 H640 0.960 . S
C579 H641 0.961 . S
C580 C581 1.517 . S
C580 H643 0.961 . S
C580 H644 0.960 . S
C580 H645 0.959 . S
C581 C580 1.517 . S
C581 O629 1.468 . S
C581 H642 0.980 . S
C582 C583 1.349 . S
C582 C587 1.367 . S
C582 O629 1.408 . S
C583 C582 1.349 . S
C583 C584 1.407 . S
C583 H646 0.930 . S
C584 C583 1.407 . S
C584 C585 1.449 . S
C584 C588 1.535 . S
C585 C584 1.449 . S
C585 C586 1.384 . S
C585 C610 1.553 . S
C586 C585 1.384 . S
C586 C587 1.364 . S
C586 C589 1.450 . S
C587 C582 1.367 . S
C587 C586 1.364 . S
C587 H647 0.931 . S
C588 C584 1.535 . S
C588 H648 0.959 . S
C588 H649 0.961 . S
C588 H650 0.959 . S
C589 C586 1.450 . S
C589 H651 0.960 . S
C589 H652 0.960 . S
C589 H653 0.960 . S
C590 C591 1.309 . S
C590 C595 1.304 . S
C590 O628 1.435 . S
C591 C590 1.309 . S
C591 C592 1.476 . S
C591 H655 0.930 . S
C592 C591 1.476 . S
C592 C593 1.400 . S
C592 C596 1.567 . S
C593 C592 1.400 . S
C593 C594 1.373 . S
C593 C615 1.432 . S
C594 C593 1.373 . S
C594 C595 1.339 . S
C594 C597 1.530 . S
C595 C590 1.304 . S
C595 C594 1.339 . S
C595 H656 0.930 . S
C596 C592 1.567 . S
C596 H657 0.961 . S
C596 H658 0.960 . S
C596 H659 0.958 . S
C597 C594 1.530 . S
C597 H660 0.961 . S
C597 H661 0.960 . S
C597 H662 0.960 . S
C598 C599 1.530 . S
C598 H664 0.961 . S
C598 H665 0.961 . S
C598 H666 0.959 . S
C599 C598 1.530 . S
C599 O627 1.412 . S
C599 H663 0.980 . S
C600 C601 1.288 . S
C600 C605 1.377 . S
C600 O627 1.393 . S
C601 C600 1.288 . S
C601 C602 1.369 . S
C601 H667 0.932 . S
C602 C601 1.369 . S
C602 C603 1.398 . S
C602 C606 1.527 . S
C603 C602 1.398 . S
C603 C604 1.380 . S
C603 C617 1.497 . S
C604 C603 1.380 . S
C604 C605 1.383 . S
C604 C607 1.603 . S
C605 C600 1.377 . S
C605 C604 1.383 . S
C605 H668 0.929 . S
C606 C602 1.527 . S
C606 H669 0.961 . S
C606 H670 0.959 . S
C606 H671 0.959 . S
C607 C604 1.603 . S
C607 H672 0.960 . S
C607 H673 0.962 . S
C607 H674 0.961 . S
C608 C575 1.587 . S
C608 C609 1.360 . S
C608 C621 1.412 . S
C609 C608 1.360 . S
C609 C610 1.365 . S
C609 H675 0.929 . S
C610 C585 1.553 . S
C610 C609 1.365 . S
C610 C611 1.404 . S
C611 C610 1.404 . S
C611 C612 1.395 . S
C611 C622 1.451 . S
C612 C611 1.395 . S
C612 C613 1.322 . S
C612 H676 0.930 . S
C613 C612 1.322 . S
C613 C614 1.459 . S
C613 H677 0.929 . S
C614 C613 1.459 . S
C614 C615 1.445 . S
C614 C623 1.395 . S
C615 C593 1.432 . S
C615 C614 1.445 . S
C615 C616 1.370 . S
C616 C615 1.370 . S
C616 C617 1.438 . S
C616 H678 0.930 . S
C617 C603 1.497 . S
C617 C616 1.438 . S
C617 C618 1.360 . S
C618 C617 1.360 . S
C618 C619 1.401 . S
C618 C623 1.446 . S
C619 C618 1.401 . S
C619 C620 1.347 . S
C619 H679 0.929 . S
C620 C619 1.347 . S
C620 C621 1.455 . S
C620 H680 0.930 . S
C621 C608 1.412 . S
C621 C620 1.455 . S
C621 C622 1.331 . S
C622 C611 1.451 . S
C622 C621 1.331 . S
C622 C623 1.497 . S
C623 C614 1.395 . S
C623 C618 1.446 . S
C623 C622 1.497 . S
C624 C625 1.582 . S
C624 H681 0.962 . S
C624 H682 0.959 . S
C624 H683 0.958 . S
C625 C624 1.582 . S
C625 O628 1.458 . S
C625 H654 0.980 . S
O626 C571 1.426 . S
O626 C572 1.334 . S
O627 C599 1.412 . S
O627 C600 1.393 . S
O628 C590 1.435 . S
O628 C625 1.458 . S
O629 C581 1.468 . S
O629 C582 1.408 . S
H630 C571 0.980 . S
H631 C570 0.959 . S
H632 C570 0.959 . S
H633 C570 0.960 . S
H634 C573 0.929 . S
H635 C577 0.929 . S
H636 C578 0.959 . S
H637 C578 0.961 . S
H638 C578 0.961 . S
H639 C579 0.960 . S
H640 C579 0.960 . S
H641 C579 0.961 . S
H642 C581 0.980 . S
H643 C580 0.961 . S
H644 C580 0.960 . S
H645 C580 0.959 . S
H646 C583 0.930 . S
H647 C587 0.931 . S
H648 C588 0.959 . S
H649 C588 0.961 . S
H650 C588 0.959 . S
H651 C589 0.960 . S
H652 C589 0.960 . S
H653 C589 0.960 . S
H654 C625 0.980 . S
H655 C591 0.930 . S
H656 C595 0.930 . S
H657 C596 0.961 . S
H658 C596 0.960 . S
H659 C596 0.958 . S
H660 C597 0.961 . S
H661 C597 0.960 . S
H662 C597 0.960 . S
H663 C599 0.980 . S
H664 C598 0.961 . S
H665 C598 0.961 . S
H666 C598 0.959 . S
H667 C601 0.932 . S
H668 C605 0.929 . S
H669 C606 0.961 . S
H670 C606 0.959 . S
H671 C606 0.959 . S
H672 C607 0.960 . S
H673 C607 0.962 . S
H674 C607 0.961 . S
H675 C609 0.929 . S
H676 C612 0.930 . S
H677 C613 0.929 . S
H678 C616 0.930 . S
H679 C619 0.929 . S
H680 C620 0.930 . S
H681 C624 0.962 . S
H682 C624 0.959 . S
H683 C624 0.958 . S
C684 O685 1.306 . S
C684 O687 1.160 . S
O685 C684 1.306 . S
O685 Cd686 2.228 . S
Cd686 O685 2.228 . S
Cd686 O690 2.273 . S
Cd686 O694 2.277 . S
O687 C684 1.160 . S
O687 Cd688 2.203 . S
Cd688 O687 2.203 . S
Cd688 O690 2.411 . S
Cd688 O691 2.333 . S
Cd688 O692 2.352 . S
Cd688 O696 2.277 . S
Cd688 O697 2.356 . S
C689 O694 1.209 . S
C689 O696 1.226 . S
O690 Cd686 2.273 . S
O690 Cd688 2.411 . S
O690 C693 1.320 . S
O691 Cd688 2.333 . S
O691 C693 1.214 . S
O692 Cd688 2.352 . S
O692 C695 1.258 . S
C693 O690 1.320 . S
C693 O691 1.214 . S
O694 Cd686 2.277 . S
O694 C689 1.209 . S
C695 O692 1.258 . S
C695 O697 1.282 . S
O696 Cd688 2.277 . S
O696 C689 1.226 . S
O697 Cd688 2.356 . S
O697 C695 1.282 . S
C698 O699 1.306 . S
C698 O701 1.160 . S
O699 C698 1.306 . S
O699 Cd700 2.228 . S
Cd700 O699 2.228 . S
Cd700 O704 2.273 . S
Cd700 O708 2.277 . S
O701 C698 1.160 . S
O701 Cd702 2.203 . S
Cd702 O701 2.203 . S
Cd702 O704 2.411 . S
Cd702 O705 2.333 . S
Cd702 O706 2.352 . S
Cd702 O710 2.277 . S
Cd702 O711 2.356 . S
C703 O708 1.209 . S
C703 O710 1.226 . S
O704 Cd700 2.273 . S
O704 Cd702 2.411 . S
O704 C707 1.320 . S
O705 Cd702 2.333 . S
O705 C707 1.214 . S
O706 Cd702 2.352 . S
O706 C709 1.258 . S
C707 O704 1.320 . S
C707 O705 1.214 . S
O708 Cd700 2.277 . S
O708 C703 1.209 . S
C709 O706 1.258 . S
C709 O711 1.282 . S
O710 Cd702 2.277 . S
O710 C703 1.226 . S
O711 Cd702 2.356 . S
O711 C709 1.282 . S
C712 O713 1.306 . S
C712 O715 1.160 . S
O713 C712 1.306 . S
O713 Cd714 2.228 . S
Cd714 O713 2.228 . S
Cd714 O718 2.273 . S
Cd714 O722 2.277 . S
O715 C712 1.160 . S
O715 Cd716 2.203 . S
Cd716 O715 2.203 . S
Cd716 O718 2.411 . S
Cd716 O719 2.333 . S
Cd716 O720 2.352 . S
Cd716 O724 2.277 . S
Cd716 O725 2.356 . S
C717 O722 1.209 . S
C717 O724 1.226 . S
O718 Cd714 2.273 . S
O718 Cd716 2.411 . S
O718 C721 1.320 . S
O719 Cd716 2.333 . S
O719 C721 1.214 . S
O720 Cd716 2.352 . S
O720 C723 1.258 . S
C721 O718 1.320 . S
C721 O719 1.214 . S
O722 Cd714 2.277 . S
O722 C717 1.209 . S
C723 O720 1.258 . S
C723 O725 1.282 . S
O724 Cd716 2.277 . S
O724 C717 1.226 . S
O725 Cd716 2.356 . S
O725 C723 1.282 . S
C726 O727 1.306 . S
C726 O729 1.160 . S
O727 C726 1.306 . S
O727 Cd728 2.228 . S
Cd728 O727 2.228 . S
Cd728 O732 2.273 . S
Cd728 O736 2.277 . S
O729 C726 1.160 . S
O729 Cd730 2.203 . S
Cd730 O729 2.203 . S
Cd730 O732 2.411 . S
Cd730 O733 2.333 . S
Cd730 O734 2.352 . S
Cd730 O738 2.277 . S
Cd730 O739 2.356 . S
C731 O736 1.209 . S
C731 O738 1.226 . S
O732 Cd728 2.273 . S
O732 Cd730 2.411 . S
O732 C735 1.320 . S
O733 Cd730 2.333 . S
O733 C735 1.214 . S
O734 Cd730 2.352 . S
O734 C737 1.258 . S
C735 O732 1.320 . S
C735 O733 1.214 . S
O736 Cd728 2.277 . S
O736 C731 1.209 . S
C737 O734 1.258 . S
C737 O739 1.282 . S
O738 Cd730 2.277 . S
O738 C731 1.226 . S
O739 Cd730 2.356 . S
O739 C737 1.282 . S
C740 O741 1.306 . S
C740 O743 1.160 . S
O741 C740 1.306 . S
O741 Cd742 2.228 . S
Cd742 O741 2.228 . S
Cd742 O746 2.273 . S
Cd742 O750 2.277 . S
O743 C740 1.160 . S
O743 Cd744 2.203 . S
Cd744 O743 2.203 . S
Cd744 O746 2.411 . S
Cd744 O747 2.333 . S
Cd744 O748 2.352 . S
Cd744 O752 2.277 . S
Cd744 O753 2.356 . S
C745 O750 1.209 . S
C745 O752 1.226 . S
O746 Cd742 2.273 . S
O746 Cd744 2.411 . S
O746 C749 1.320 . S
O747 Cd744 2.333 . S
O747 C749 1.214 . S
O748 Cd744 2.352 . S
O748 C751 1.258 . S
C749 O746 1.320 . S
C749 O747 1.214 . S
O750 Cd742 2.277 . S
O750 C745 1.209 . S
C751 O748 1.258 . S
C751 O753 1.282 . S
O752 Cd744 2.277 . S
O752 C745 1.226 . S
O753 Cd744 2.356 . S
O753 C751 1.282 . S
C754 O755 1.306 . S
C754 O757 1.160 . S
O755 C754 1.306 . S
O755 Cd756 2.228 . S
Cd756 O755 2.228 . S
Cd756 O760 2.273 . S
Cd756 O764 2.277 . S
O757 C754 1.160 . S
O757 Cd758 2.203 . S
Cd758 O757 2.203 . S
Cd758 O760 2.411 . S
Cd758 O761 2.333 . S
Cd758 O762 2.352 . S
Cd758 O766 2.277 . S
Cd758 O767 2.356 . S
C759 O764 1.209 . S
C759 O766 1.226 . S
O760 Cd756 2.273 . S
O760 Cd758 2.411 . S
O760 C763 1.320 . S
O761 Cd758 2.333 . S
O761 C763 1.214 . S
O762 Cd758 2.352 . S
O762 C765 1.258 . S
C763 O760 1.320 . S
C763 O761 1.214 . S
O764 Cd756 2.277 . S
O764 C759 1.209 . S
C765 O762 1.258 . S
C765 O767 1.282 . S
O766 Cd758 2.277 . S
O766 C759 1.226 . S
O767 Cd758 2.356 . S
O767 C765 1.282 . S
H768 C780 0.930 . S
H769 C782 0.930 . S
H770 C783 0.930 . S
H771 C787 0.959 . S
H772 C787 0.959 . S
H773 C787 0.961 . S
H774 C788 0.960 . S
H775 C788 0.961 . S
H776 C788 0.959 . S
H777 C791 0.929 . S
H778 C792 0.931 . S
H779 C794 0.930 . S
C780 H768 0.930 . S
C780 C781 1.399 . S
C780 C785 1.399 . S
C781 C780 1.399 . S
C781 C782 1.376 . S
C782 H769 0.930 . S
C782 C781 1.376 . S
C782 C783 1.388 . S
C783 H770 0.930 . S
C783 C782 1.388 . S
C783 C784 1.390 . S
C784 C783 1.390 . S
C784 C785 1.394 . S
C784 C790 1.465 . S
C785 C780 1.399 . S
C785 C784 1.394 . S
C785 C786 1.516 . S
C786 C785 1.516 . S
C786 C787 1.502 . S
C786 C788 1.561 . S
C786 C789 1.526 . S
C787 H771 0.959 . S
C787 H772 0.959 . S
C787 H773 0.961 . S
C787 C786 1.502 . S
C788 H774 0.960 . S
C788 H775 0.961 . S
C788 H776 0.959 . S
C788 C786 1.561 . S
C789 C786 1.526 . S
C789 C790 1.396 . S
C789 C794 1.390 . S
C790 C784 1.465 . S
C790 C789 1.396 . S
C790 C791 1.399 . S
C791 H777 0.929 . S
C791 C790 1.399 . S
C791 C792 1.385 . S
C792 H778 0.931 . S
C792 C791 1.385 . S
C792 C793 1.389 . S
C793 C792 1.389 . S
C793 C794 1.387 . S
C794 H779 0.930 . S
C794 C789 1.390 . S
C794 C793 1.387 . S
H795 C807 0.930 . S
H796 C809 0.930 . S
H797 C810 0.930 . S
H798 C814 0.959 . S
H799 C814 0.959 . S
H800 C814 0.961 . S
H801 C815 0.960 . S
H802 C815 0.961 . S
H803 C815 0.959 . S
H804 C818 0.929 . S
H805 C819 0.931 . S
H806 C821 0.930 . S
C807 H795 0.930 . S
C807 C808 1.399 . S
C807 C812 1.399 . S
C808 C807 1.399 . S
C808 C809 1.376 . S
C809 H796 0.930 . S
C809 C808 1.376 . S
C809 C810 1.388 . S
C810 H797 0.930 . S
C810 C809 1.388 . S
C810 C811 1.390 . S
C811 C810 1.390 . S
C811 C812 1.394 . S
C811 C817 1.465 . S
C812 C807 1.399 . S
C812 C811 1.394 . S
C812 C813 1.516 . S
C813 C812 1.516 . S
C813 C814 1.502 . S
C813 C815 1.561 . S
C813 C816 1.526 . S
C814 H798 0.959 . S
C814 H799 0.959 . S
C814 H800 0.961 . S
C814 C813 1.502 . S
C815 H801 0.960 . S
C815 H802 0.961 . S
C815 H803 0.959 . S
C815 C813 1.561 . S
C816 C813 1.526 . S
C816 C817 1.396 . S
C816 C821 1.390 . S
C817 C811 1.465 . S
C817 C816 1.396 . S
C817 C818 1.399 . S
C818 H804 0.929 . S
C818 C817 1.399 . S
C818 C819 1.385 . S
C819 H805 0.931 . S
C819 C818 1.385 . S
C819 C820 1.389 . S
C820 C819 1.389 . S
C820 C821 1.387 . S
C821 H806 0.930 . S
C821 C816 1.390 . S
C821 C820 1.387 . S
H822 C834 0.930 . S
H823 C836 0.930 . S
H824 C837 0.930 . S
H825 C841 0.959 . S
H826 C841 0.959 . S
H827 C841 0.961 . S
H828 C842 0.960 . S
H829 C842 0.961 . S
H830 C842 0.959 . S
H831 C845 0.929 . S
H832 C846 0.931 . S
H833 C848 0.930 . S
C834 H822 0.930 . S
C834 C835 1.399 . S
C834 C839 1.399 . S
C835 C834 1.399 . S
C835 C836 1.376 . S
C836 H823 0.930 . S
C836 C835 1.376 . S
C836 C837 1.388 . S
C837 H824 0.930 . S
C837 C836 1.388 . S
C837 C838 1.390 . S
C838 C837 1.390 . S
C838 C839 1.394 . S
C838 C844 1.465 . S
C839 C834 1.399 . S
C839 C838 1.394 . S
C839 C840 1.516 . S
C840 C839 1.516 . S
C840 C841 1.502 . S
C840 C842 1.561 . S
C840 C843 1.526 . S
C841 H825 0.959 . S
C841 H826 0.959 . S
C841 H827 0.961 . S
C841 C840 1.502 . S
C842 H828 0.960 . S
C842 H829 0.961 . S
C842 H830 0.959 . S
C842 C840 1.561 . S
C843 C840 1.526 . S
C843 C844 1.396 . S
C843 C848 1.390 . S
C844 C838 1.465 . S
C844 C843 1.396 . S
C844 C845 1.399 . S
C845 H831 0.929 . S
C845 C844 1.399 . S
C845 C846 1.385 . S
C846 H832 0.931 . S
C846 C845 1.385 . S
C846 C847 1.389 . S
C847 C846 1.389 . S
C847 C848 1.387 . S
C848 H833 0.930 . S
C848 C843 1.390 . S
C848 C847 1.387 . S
H849 C861 0.930 . S
H850 C863 0.930 . S
H851 C864 0.930 . S
H852 C868 0.959 . S
H853 C868 0.959 . S
H854 C868 0.961 . S
H855 C869 0.960 . S
H856 C869 0.961 . S
H857 C869 0.959 . S
H858 C872 0.929 . S
H859 C873 0.931 . S
H860 C875 0.930 . S
C861 H849 0.930 . S
C861 C862 1.399 . S
C861 C866 1.399 . S
C862 C861 1.399 . S
C862 C863 1.376 . S
C863 H850 0.930 . S
C863 C862 1.376 . S
C863 C864 1.388 . S
C864 H851 0.930 . S
C864 C863 1.388 . S
C864 C865 1.390 . S
C865 C864 1.390 . S
C865 C866 1.394 . S
C865 C871 1.465 . S
C866 C861 1.399 . S
C866 C865 1.394 . S
C866 C867 1.516 . S
C867 C866 1.516 . S
C867 C868 1.502 . S
C867 C869 1.561 . S
C867 C870 1.526 . S
C868 H852 0.959 . S
C868 H853 0.959 . S
C868 H854 0.961 . S
C868 C867 1.502 . S
C869 H855 0.960 . S
C869 H856 0.961 . S
C869 H857 0.959 . S
C869 C867 1.561 . S
C870 C867 1.526 . S
C870 C871 1.396 . S
C870 C875 1.390 . S
C871 C865 1.465 . S
C871 C870 1.396 . S
C871 C872 1.399 . S
C872 H858 0.929 . S
C872 C871 1.399 . S
C872 C873 1.385 . S
C873 H859 0.931 . S
C873 C872 1.385 . S
C873 C874 1.389 . S
C874 C873 1.389 . S
C874 C875 1.387 . S
C875 H860 0.930 . S
C875 C870 1.390 . S
C875 C874 1.387 . S
H876 C888 0.930 . S
H877 C890 0.930 . S
H878 C891 0.930 . S
H879 C895 0.959 . S
H880 C895 0.959 . S
H881 C895 0.961 . S
H882 C896 0.960 . S
H883 C896 0.961 . S
H884 C896 0.959 . S
H885 C899 0.929 . S
H886 C900 0.931 . S
H887 C902 0.930 . S
C888 H876 0.930 . S
C888 C889 1.399 . S
C888 C893 1.399 . S
C889 C888 1.399 . S
C889 C890 1.376 . S
C890 H877 0.930 . S
C890 C889 1.376 . S
C890 C891 1.388 . S
C891 H878 0.930 . S
C891 C890 1.388 . S
C891 C892 1.390 . S
C892 C891 1.390 . S
C892 C893 1.394 . S
C892 C898 1.465 . S
C893 C888 1.399 . S
C893 C892 1.394 . S
C893 C894 1.516 . S
C894 C893 1.516 . S
C894 C895 1.502 . S
C894 C896 1.561 . S
C894 C897 1.526 . S
C895 H879 0.959 . S
C895 H880 0.959 . S
C895 H881 0.961 . S
C895 C894 1.502 . S
C896 H882 0.960 . S
C896 H883 0.961 . S
C896 H884 0.959 . S
C896 C894 1.561 . S
C897 C894 1.526 . S
C897 C898 1.396 . S
C897 C902 1.390 . S
C898 C892 1.465 . S
C898 C897 1.396 . S
C898 C899 1.399 . S
C899 H885 0.929 . S
C899 C898 1.399 . S
C899 C900 1.385 . S
C900 H886 0.931 . S
C900 C899 1.385 . S
C900 C901 1.389 . S
C901 C900 1.389 . S
C901 C902 1.387 . S
C902 H887 0.930 . S
C902 C897 1.390 . S
C902 C901 1.387 . S
H903 C915 0.930 . S
H904 C917 0.930 . S
H905 C918 0.930 . S
H906 C922 0.959 . S
H907 C922 0.959 . S
H908 C922 0.961 . S
H909 C923 0.960 . S
H910 C923 0.961 . S
H911 C923 0.959 . S
H912 C926 0.929 . S
H913 C927 0.931 . S
H914 C929 0.930 . S
C915 H903 0.930 . S
C915 C916 1.399 . S
C915 C920 1.399 . S
C916 C915 1.399 . S
C916 C917 1.376 . S
C917 H904 0.930 . S
C917 C916 1.376 . S
C917 C918 1.388 . S
C918 H905 0.930 . S
C918 C917 1.388 . S
C918 C919 1.390 . S
C919 C918 1.390 . S
C919 C920 1.394 . S
C919 C925 1.465 . S
C920 C915 1.399 . S
C920 C919 1.394 . S
C920 C921 1.516 . S
C921 C920 1.516 . S
C921 C922 1.502 . S
C921 C923 1.561 . S
C921 C924 1.526 . S
C922 H906 0.959 . S
C922 H907 0.959 . S
C922 H908 0.961 . S
C922 C921 1.502 . S
C923 H909 0.960 . S
C923 H910 0.961 . S
C923 H911 0.959 . S
C923 C921 1.561 . S
C924 C921 1.526 . S
C924 C925 1.396 . S
C924 C929 1.390 . S
C925 C919 1.465 . S
C925 C924 1.396 . S
C925 C926 1.399 . S
C926 H912 0.929 . S
C926 C925 1.399 . S
C926 C927 1.385 . S
C927 H913 0.931 . S
C927 C926 1.385 . S
C927 C928 1.389 . S
C928 C927 1.389 . S
C928 C929 1.387 . S
C929 H914 0.930 . S
C929 C924 1.390 . S
C929 C928 1.387 . S
H930 C942 0.930 . S
H931 C944 0.930 . S
H932 C945 0.930 . S
H933 C949 0.959 . S
H934 C949 0.959 . S
H935 C949 0.961 . S
H936 C950 0.960 . S
H937 C950 0.961 . S
H938 C950 0.959 . S
H939 C953 0.929 . S
H940 C954 0.931 . S
H941 C956 0.930 . S
C942 H930 0.930 . S
C942 C943 1.399 . S
C942 C947 1.399 . S
C943 C942 1.399 . S
C943 C944 1.376 . S
C944 H931 0.930 . S
C944 C943 1.376 . S
C944 C945 1.388 . S
C945 H932 0.930 . S
C945 C944 1.388 . S
C945 C946 1.390 . S
C946 C945 1.390 . S
C946 C947 1.394 . S
C946 C952 1.465 . S
C947 C942 1.399 . S
C947 C946 1.394 . S
C947 C948 1.516 . S
C948 C947 1.516 . S
C948 C949 1.502 . S
C948 C950 1.561 . S
C948 C951 1.526 . S
C949 H933 0.959 . S
C949 H934 0.959 . S
C949 H935 0.961 . S
C949 C948 1.502 . S
C950 H936 0.960 . S
C950 H937 0.961 . S
C950 H938 0.959 . S
C950 C948 1.561 . S
C951 C948 1.526 . S
C951 C952 1.396 . S
C951 C956 1.390 . S
C952 C946 1.465 . S
C952 C951 1.396 . S
C952 C953 1.399 . S
C953 H939 0.929 . S
C953 C952 1.399 . S
C953 C954 1.385 . S
C954 H940 0.931 . S
C954 C953 1.385 . S
C954 C955 1.389 . S
C955 C954 1.389 . S
C955 C956 1.387 . S
C956 H941 0.930 . S
C956 C951 1.390 . S
C956 C955 1.387 . S
H957 C969 0.930 . S
H958 C971 0.930 . S
H959 C972 0.930 . S
H960 C976 0.959 . S
H961 C976 0.959 . S
H962 C976 0.961 . S
H963 C977 0.960 . S
H964 C977 0.961 . S
H965 C977 0.959 . S
H966 C980 0.929 . S
H967 C981 0.931 . S
H968 C983 0.930 . S
C969 H957 0.930 . S
C969 C970 1.399 . S
C969 C974 1.399 . S
C970 C969 1.399 . S
C970 C971 1.376 . S
C971 H958 0.930 . S
C971 C970 1.376 . S
C971 C972 1.388 . S
C972 H959 0.930 . S
C972 C971 1.388 . S
C972 C973 1.390 . S
C973 C972 1.390 . S
C973 C974 1.394 . S
C973 C979 1.465 . S
C974 C969 1.399 . S
C974 C973 1.394 . S
C974 C975 1.516 . S
C975 C974 1.516 . S
C975 C976 1.502 . S
C975 C977 1.561 . S
C975 C978 1.526 . S
C976 H960 0.959 . S
C976 H961 0.959 . S
C976 H962 0.961 . S
C976 C975 1.502 . S
C977 H963 0.960 . S
C977 H964 0.961 . S
C977 H965 0.959 . S
C977 C975 1.561 . S
C978 C975 1.526 . S
C978 C979 1.396 . S
C978 C983 1.390 . S
C979 C973 1.465 . S
C979 C978 1.396 . S
C979 C980 1.399 . S
C980 H966 0.929 . S
C980 C979 1.399 . S
C980 C981 1.385 . S
C981 H967 0.931 . S
C981 C980 1.385 . S
C981 C982 1.389 . S
C982 C981 1.389 . S
C982 C983 1.387 . S
C983 H968 0.930 . S
C983 C978 1.390 . S
C983 C982 1.387 . S
H984 C996 0.930 . S
H985 C998 0.930 . S
H986 C999 0.930 . S
H987 C1003 0.959 . S
H988 C1003 0.959 . S
H989 C1003 0.961 . S
H990 C1004 0.960 . S
H991 C1004 0.961 . S
H992 C1004 0.959 . S
H993 C1007 0.929 . S
H994 C1008 0.931 . S
H995 C1010 0.930 . S
C996 H984 0.930 . S
C996 C997 1.399 . S
C996 C1001 1.399 . S
C997 C996 1.399 . S
C997 C998 1.376 . S
C998 H985 0.930 . S
C998 C997 1.376 . S
C998 C999 1.388 . S
C999 H986 0.930 . S
C999 C998 1.388 . S
C999 C1000 1.390 . S
C1000 C999 1.390 . S
C1000 C1001 1.394 . S
C1000 C1006 1.465 . S
C1001 C996 1.399 . S
C1001 C1000 1.394 . S
C1001 C1002 1.516 . S
C1002 C1001 1.516 . S
C1002 C1003 1.502 . S
C1002 C1004 1.561 . S
C1002 C1005 1.526 . S
C1003 H987 0.959 . S
C1003 H988 0.959 . S
C1003 H989 0.961 . S
C1003 C1002 1.502 . S
C1004 H990 0.960 . S
C1004 H991 0.961 . S
C1004 H992 0.959 . S
C1004 C1002 1.561 . S
C1005 C1002 1.526 . S
C1005 C1006 1.396 . S
C1005 C1010 1.390 . S
C1006 C1000 1.465 . S
C1006 C1005 1.396 . S
C1006 C1007 1.399 . S
C1007 H993 0.929 . S
C1007 C1006 1.399 . S
C1007 C1008 1.385 . S
C1008 H994 0.931 . S
C1008 C1007 1.385 . S
C1008 C1009 1.389 . S
C1009 C1008 1.389 . S
C1009 C1010 1.387 . S
C1010 H995 0.930 . S
C1010 C1005 1.390 . S
C1010 C1009 1.387 . S
H1011 C1023 0.930 . S
H1012 C1025 0.930 . S
H1013 C1026 0.930 . S
H1014 C1030 0.959 . S
H1015 C1030 0.959 . S
H1016 C1030 0.961 . S
H1017 C1031 0.960 . S
H1018 C1031 0.961 . S
H1019 C1031 0.959 . S
H1020 C1034 0.929 . S
H1021 C1035 0.931 . S
H1022 C1037 0.930 . S
C1023 H1011 0.930 . S
C1023 C1024 1.399 . S
C1023 C1028 1.399 . S
C1024 C1023 1.399 . S
C1024 C1025 1.376 . S
C1025 H1012 0.930 . S
C1025 C1024 1.376 . S
C1025 C1026 1.388 . S
C1026 H1013 0.930 . S
C1026 C1025 1.388 . S
C1026 C1027 1.390 . S
C1027 C1026 1.390 . S
C1027 C1028 1.394 . S
C1027 C1033 1.465 . S
C1028 C1023 1.399 . S
C1028 C1027 1.394 . S
C1028 C1029 1.516 . S
C1029 C1028 1.516 . S
C1029 C1030 1.502 . S
C1029 C1031 1.561 . S
C1029 C1032 1.526 . S
C1030 H1014 0.959 . S
C1030 H1015 0.959 . S
C1030 H1016 0.961 . S
C1030 C1029 1.502 . S
C1031 H1017 0.960 . S
C1031 H1018 0.961 . S
C1031 H1019 0.959 . S
C1031 C1029 1.561 . S
C1032 C1029 1.526 . S
C1032 C1033 1.396 . S
C1032 C1037 1.390 . S
C1033 C1027 1.465 . S
C1033 C1032 1.396 . S
C1033 C1034 1.399 . S
C1034 H1020 0.929 . S
C1034 C1033 1.399 . S
C1034 C1035 1.385 . S
C1035 H1021 0.931 . S
C1035 C1034 1.385 . S
C1035 C1036 1.389 . S
C1036 C1035 1.389 . S
C1036 C1037 1.387 . S
C1037 H1022 0.930 . S
C1037 C1032 1.390 . S
C1037 C1036 1.387 . S
H1038 C1050 0.930 . S
H1039 C1052 0.930 . S
H1040 C1053 0.930 . S
H1041 C1057 0.959 . S
H1042 C1057 0.959 . S
H1043 C1057 0.961 . S
H1044 C1058 0.960 . S
H1045 C1058 0.961 . S
H1046 C1058 0.959 . S
H1047 C1061 0.929 . S
H1048 C1062 0.931 . S
H1049 C1064 0.930 . S
C1050 H1038 0.930 . S
C1050 C1051 1.399 . S
C1050 C1055 1.399 . S
C1051 C1050 1.399 . S
C1051 C1052 1.376 . S
C1052 H1039 0.930 . S
C1052 C1051 1.376 . S
C1052 C1053 1.388 . S
C1053 H1040 0.930 . S
C1053 C1052 1.388 . S
C1053 C1054 1.390 . S
C1054 C1053 1.390 . S
C1054 C1055 1.394 . S
C1054 C1060 1.465 . S
C1055 C1050 1.399 . S
C1055 C1054 1.394 . S
C1055 C1056 1.516 . S
C1056 C1055 1.516 . S
C1056 C1057 1.502 . S
C1056 C1058 1.561 . S
C1056 C1059 1.526 . S
C1057 H1041 0.959 . S
C1057 H1042 0.959 . S
C1057 H1043 0.961 . S
C1057 C1056 1.502 . S
C1058 H1044 0.960 . S
C1058 H1045 0.961 . S
C1058 H1046 0.959 . S
C1058 C1056 1.561 . S
C1059 C1056 1.526 . S
C1059 C1060 1.396 . S
C1059 C1064 1.390 . S
C1060 C1054 1.465 . S
C1060 C1059 1.396 . S
C1060 C1061 1.399 . S
C1061 H1047 0.929 . S
C1061 C1060 1.399 . S
C1061 C1062 1.385 . S
C1062 H1048 0.931 . S
C1062 C1061 1.385 . S
C1062 C1063 1.389 . S
C1063 C1062 1.389 . S
C1063 C1064 1.387 . S
C1064 H1049 0.930 . S
C1064 C1059 1.390 . S
C1064 C1063 1.387 . S
H1065 C1077 0.930 . S
H1066 C1079 0.930 . S
H1067 C1080 0.930 . S
H1068 C1084 0.959 . S
H1069 C1084 0.959 . S
H1070 C1084 0.961 . S
H1071 C1085 0.960 . S
H1072 C1085 0.961 . S
H1073 C1085 0.959 . S
H1074 C1088 0.929 . S
H1075 C1089 0.931 . S
H1076 C1091 0.930 . S
C1077 H1065 0.930 . S
C1077 C1078 1.399 . S
C1077 C1082 1.399 . S
C1078 C1077 1.399 . S
C1078 C1079 1.376 . S
C1079 H1066 0.930 . S
C1079 C1078 1.376 . S
C1079 C1080 1.388 . S
C1080 H1067 0.930 . S
C1080 C1079 1.388 . S
C1080 C1081 1.390 . S
C1081 C1080 1.390 . S
C1081 C1082 1.394 . S
C1081 C1087 1.465 . S
C1082 C1077 1.399 . S
C1082 C1081 1.394 . S
C1082 C1083 1.516 . S
C1083 C1082 1.516 . S
C1083 C1084 1.502 . S
C1083 C1085 1.561 . S
C1083 C1086 1.526 . S
C1084 H1068 0.959 . S
C1084 H1069 0.959 . S
C1084 H1070 0.961 . S
C1084 C1083 1.502 . S
C1085 H1071 0.960 . S
C1085 H1072 0.961 . S
C1085 H1073 0.959 . S
C1085 C1083 1.561 . S
C1086 C1083 1.526 . S
C1086 C1087 1.396 . S
C1086 C1091 1.390 . S
C1087 C1081 1.465 . S
C1087 C1086 1.396 . S
C1087 C1088 1.399 . S
C1088 H1074 0.929 . S
C1088 C1087 1.399 . S
C1088 C1089 1.385 . S
C1089 H1075 0.931 . S
C1089 C1088 1.385 . S
C1089 C1090 1.389 . S
C1090 C1089 1.389 . S
C1090 C1091 1.387 . S
C1091 H1076 0.930 . S
C1091 C1086 1.390 . S
C1091 C1090 1.387 . S
H1092 C1104 0.930 . S
H1093 C1106 0.930 . S
H1094 C1107 0.930 . S
H1095 C1111 0.959 . S
H1096 C1111 0.959 . S
H1097 C1111 0.961 . S
H1098 C1112 0.960 . S
H1099 C1112 0.961 . S
H1100 C1112 0.959 . S
H1101 C1115 0.929 . S
H1102 C1116 0.931 . S
H1103 C1118 0.930 . S
C1104 H1092 0.930 . S
C1104 C1105 1.399 . S
C1104 C1109 1.399 . S
C1105 C1104 1.399 . S
C1105 C1106 1.376 . S
C1106 H1093 0.930 . S
C1106 C1105 1.376 . S
C1106 C1107 1.388 . S
C1107 H1094 0.930 . S
C1107 C1106 1.388 . S
C1107 C1108 1.390 . S
C1108 C1107 1.390 . S
C1108 C1109 1.394 . S
C1108 C1114 1.465 . S
C1109 C1104 1.399 . S
C1109 C1108 1.394 . S
C1109 C1110 1.516 . S
C1110 C1109 1.516 . S
C1110 C1111 1.502 . S
C1110 C1112 1.561 . S
C1110 C1113 1.526 . S
C1111 H1095 0.959 . S
C1111 H1096 0.959 . S
C1111 H1097 0.961 . S
C1111 C1110 1.502 . S
C1112 H1098 0.960 . S
C1112 H1099 0.961 . S
C1112 H1100 0.959 . S
C1112 C1110 1.561 . S
C1113 C1110 1.526 . S
C1113 C1114 1.396 . S
C1113 C1118 1.390 . S
C1114 C1108 1.465 . S
C1114 C1113 1.396 . S
C1114 C1115 1.399 . S
C1115 H1101 0.929 . S
C1115 C1114 1.399 . S
C1115 C1116 1.385 . S
C1116 H1102 0.931 . S
C1116 C1115 1.385 . S
C1116 C1117 1.389 . S
C1117 C1116 1.389 . S
C1117 C1118 1.387 . S
C1118 H1103 0.930 . S
C1118 C1113 1.390 . S
C1118 C1117 1.387 . S
H1119 C1131 0.930 . S
H1120 C1133 0.930 . S
H1121 C1134 0.930 . S
H1122 C1138 0.959 . S
H1123 C1138 0.959 . S
H1124 C1138 0.961 . S
H1125 C1139 0.960 . S
H1126 C1139 0.961 . S
H1127 C1139 0.959 . S
H1128 C1142 0.929 . S
H1129 C1143 0.931 . S
H1130 C1145 0.930 . S
C1131 H1119 0.930 . S
C1131 C1132 1.399 . S
C1131 C1136 1.399 . S
C1132 C1131 1.399 . S
C1132 C1133 1.376 . S
C1133 H1120 0.930 . S
C1133 C1132 1.376 . S
C1133 C1134 1.388 . S
C1134 H1121 0.930 . S
C1134 C1133 1.388 . S
C1134 C1135 1.390 . S
C1135 C1134 1.390 . S
C1135 C1136 1.394 . S
C1135 C1141 1.465 . S
C1136 C1131 1.399 . S
C1136 C1135 1.394 . S
C1136 C1137 1.516 . S
C1137 C1136 1.516 . S
C1137 C1138 1.502 . S
C1137 C1139 1.561 . S
C1137 C1140 1.526 . S
C1138 H1122 0.959 . S
C1138 H1123 0.959 . S
C1138 H1124 0.961 . S
C1138 C1137 1.502 . S
C1139 H1125 0.960 . S
C1139 H1126 0.961 . S
C1139 H1127 0.959 . S
C1139 C1137 1.561 . S
C1140 C1137 1.526 . S
C1140 C1141 1.396 . S
C1140 C1145 1.390 . S
C1141 C1135 1.465 . S
C1141 C1140 1.396 . S
C1141 C1142 1.399 . S
C1142 H1128 0.929 . S
C1142 C1141 1.399 . S
C1142 C1143 1.385 . S
C1143 H1129 0.931 . S
C1143 C1142 1.385 . S
C1143 C1144 1.389 . S
C1144 C1143 1.389 . S
C1144 C1145 1.387 . S
C1145 H1130 0.930 . S
C1145 C1140 1.390 . S
C1145 C1144 1.387 . S
H1146 C1158 0.930 . S
H1147 C1160 0.930 . S
H1148 C1161 0.930 . S
H1149 C1165 0.959 . S
H1150 C1165 0.959 . S
H1151 C1165 0.961 . S
H1152 C1166 0.960 . S
H1153 C1166 0.961 . S
H1154 C1166 0.959 . S
H1155 C1169 0.929 . S
H1156 C1170 0.931 . S
H1157 C1172 0.930 . S
C1158 H1146 0.930 . S
C1158 C1159 1.399 . S
C1158 C1163 1.399 . S
C1159 C1158 1.399 . S
C1159 C1160 1.376 . S
C1160 H1147 0.930 . S
C1160 C1159 1.376 . S
C1160 C1161 1.388 . S
C1161 H1148 0.930 . S
C1161 C1160 1.388 . S
C1161 C1162 1.390 . S
C1162 C1161 1.390 . S
C1162 C1163 1.394 . S
C1162 C1168 1.465 . S
C1163 C1158 1.399 . S
C1163 C1162 1.394 . S
C1163 C1164 1.516 . S
C1164 C1163 1.516 . S
C1164 C1165 1.502 . S
C1164 C1166 1.561 . S
C1164 C1167 1.526 . S
C1165 H1149 0.959 . S
C1165 H1150 0.959 . S
C1165 H1151 0.961 . S
C1165 C1164 1.502 . S
C1166 H1152 0.960 . S
C1166 H1153 0.961 . S
C1166 H1154 0.959 . S
C1166 C1164 1.561 . S
C1167 C1164 1.526 . S
C1167 C1168 1.396 . S
C1167 C1172 1.390 . S
C1168 C1162 1.465 . S
C1168 C1167 1.396 . S
C1168 C1169 1.399 . S
C1169 H1155 0.929 . S
C1169 C1168 1.399 . S
C1169 C1170 1.385 . S
C1170 H1156 0.931 . S
C1170 C1169 1.385 . S
C1170 C1171 1.389 . S
C1171 C1170 1.389 . S
C1171 C1172 1.387 . S
C1172 H1157 0.930 . S
C1172 C1167 1.390 . S
C1172 C1171 1.387 . S
H1173 C1185 0.930 . S
H1174 C1187 0.930 . S
H1175 C1188 0.930 . S
H1176 C1192 0.959 . S
H1177 C1192 0.959 . S
H1178 C1192 0.961 1_556 S
H1179 C1193 0.960 . S
H1180 C1193 0.961 1_554 S
H1181 C1193 0.959 . S
H1182 C1196 0.929 . S
H1183 C1197 0.931 . S
H1184 C1199 0.930 . S
C1185 H1173 0.930 . S
C1185 C1186 1.399 . S
C1185 C1190 1.399 . S
C1186 C1185 1.399 . S
C1186 C1187 1.376 . S
C1187 H1174 0.930 . S
C1187 C1186 1.376 . S
C1187 C1188 1.388 . S
C1188 H1175 0.930 . S
C1188 C1187 1.388 . S
C1188 C1189 1.390 . S
C1189 C1188 1.390 . S
C1189 C1190 1.394 . S
C1189 C1195 1.465 . S
C1190 C1185 1.399 . S
C1190 C1189 1.394 . S
C1190 C1191 1.516 . S
C1191 C1190 1.516 . S
C1191 C1192 1.502 1_556 S
C1191 C1193 1.561 . S
C1191 C1194 1.526 1_556 S
C1192 H1176 0.959 . S
C1192 H1177 0.959 . S
C1192 H1178 0.961 1_554 S
C1192 C1191 1.502 1_554 S
C1193 H1179 0.960 . S
C1193 H1180 0.961 1_556 S
C1193 H1181 0.959 . S
C1193 C1191 1.561 . S
C1194 C1191 1.526 1_554 S
C1194 C1195 1.396 1_554 S
C1194 C1199 1.390 . S
C1195 C1189 1.465 . S
C1195 C1194 1.396 1_556 S
C1195 C1196 1.399 . S
C1196 H1182 0.929 . S
C1196 C1195 1.399 . S
C1196 C1197 1.385 1_556 S
C1197 H1183 0.931 . S
C1197 C1196 1.385 1_554 S
C1197 C1198 1.389 . S
C1198 C1197 1.389 . S
C1198 C1199 1.387 . S
C1199 H1184 0.930 . S
C1199 C1194 1.390 . S
C1199 C1198 1.387 . S
H1200 C1212 0.930 . S
H1201 C1214 0.930 . S
H1202 C1215 0.930 . S
H1203 C1219 0.959 . S
H1204 C1219 0.959 . S
H1205 C1219 0.961 . S
H1206 C1220 0.960 . S
H1207 C1220 0.961 . S
H1208 C1220 0.959 . S
H1209 C1223 0.929 . S
H1210 C1224 0.931 . S
H1211 C1226 0.930 . S
C1212 H1200 0.930 . S
C1212 C1213 1.399 . S
C1212 C1217 1.399 . S
C1213 C1212 1.399 . S
C1213 C1214 1.376 . S
C1214 H1201 0.930 . S
C1214 C1213 1.376 . S
C1214 C1215 1.388 . S
C1215 H1202 0.930 . S
C1215 C1214 1.388 . S
C1215 C1216 1.390 . S
C1216 C1215 1.390 . S
C1216 C1217 1.394 . S
C1216 C1222 1.465 . S
C1217 C1212 1.399 . S
C1217 C1216 1.394 . S
C1217 C1218 1.516 . S
C1218 C1217 1.516 . S
C1218 C1219 1.502 . S
C1218 C1220 1.561 . S
C1218 C1221 1.526 . S
C1219 H1203 0.959 . S
C1219 H1204 0.959 . S
C1219 H1205 0.961 . S
C1219 C1218 1.502 . S
C1220 H1206 0.960 . S
C1220 H1207 0.961 . S
C1220 H1208 0.959 . S
C1220 C1218 1.561 . S
C1221 C1218 1.526 . S
C1221 C1222 1.396 . S
C1221 C1226 1.390 . S
C1222 C1216 1.465 . S
C1222 C1221 1.396 . S
C1222 C1223 1.399 . S
C1223 H1209 0.929 . S
C1223 C1222 1.399 . S
C1223 C1224 1.385 . S
C1224 H1210 0.931 . S
C1224 C1223 1.385 . S
C1224 C1225 1.389 . S
C1225 C1224 1.389 . S
C1225 C1226 1.387 . S
C1226 H1211 0.930 . S
C1226 C1221 1.390 . S
C1226 C1225 1.387 . S
H1227 C1239 0.930 . S
H1228 C1241 0.930 . S
H1229 C1242 0.930 . S
H1230 C1246 0.959 . S
H1231 C1246 0.959 . S
H1232 C1246 0.961 . S
H1233 C1247 0.960 . S
H1234 C1247 0.961 . S
H1235 C1247 0.959 . S
H1236 C1250 0.929 . S
H1237 C1251 0.931 . S
H1238 C1253 0.930 . S
C1239 H1227 0.930 . S
C1239 C1240 1.399 . S
C1239 C1244 1.399 . S
C1240 C1239 1.399 . S
C1240 C1241 1.376 . S
C1241 H1228 0.930 . S
C1241 C1240 1.376 . S
C1241 C1242 1.388 . S
C1242 H1229 0.930 . S
C1242 C1241 1.388 . S
C1242 C1243 1.390 . S
C1243 C1242 1.390 . S
C1243 C1244 1.394 . S
C1243 C1249 1.465 . S
C1244 C1239 1.399 . S
C1244 C1243 1.394 . S
C1244 C1245 1.516 . S
C1245 C1244 1.516 . S
C1245 C1246 1.502 . S
C1245 C1247 1.561 . S
C1245 C1248 1.526 . S
C1246 H1230 0.959 . S
C1246 H1231 0.959 . S
C1246 H1232 0.961 . S
C1246 C1245 1.502 . S
C1247 H1233 0.960 . S
C1247 H1234 0.961 . S
C1247 H1235 0.959 . S
C1247 C1245 1.561 . S
C1248 C1245 1.526 . S
C1248 C1249 1.396 . S
C1248 C1253 1.390 . S
C1249 C1243 1.465 . S
C1249 C1248 1.396 . S
C1249 C1250 1.399 . S
C1250 H1236 0.929 . S
C1250 C1249 1.399 . S
C1250 C1251 1.385 . S
C1251 H1237 0.931 . S
C1251 C1250 1.385 . S
C1251 C1252 1.389 . S
C1252 C1251 1.389 . S
C1252 C1253 1.387 . S
C1253 H1238 0.930 . S
C1253 C1248 1.390 . S
C1253 C1252 1.387 . S
H1254 C1266 0.930 . S
H1255 C1268 0.930 . S
H1256 C1269 0.930 . S
H1257 C1273 0.959 . S
H1258 C1273 0.959 . S
H1259 C1273 0.961 . S
H1260 C1274 0.960 . S
H1261 C1274 0.961 . S
H1262 C1274 0.959 . S
H1263 C1277 0.929 . S
H1264 C1278 0.931 . S
H1265 C1280 0.930 . S
C1266 H1254 0.930 . S
C1266 C1267 1.399 . S
C1266 C1271 1.399 . S
C1267 C1266 1.399 . S
C1267 C1268 1.376 . S
C1268 H1255 0.930 . S
C1268 C1267 1.376 . S
C1268 C1269 1.388 . S
C1269 H1256 0.930 . S
C1269 C1268 1.388 . S
C1269 C1270 1.390 . S
C1270 C1269 1.390 . S
C1270 C1271 1.394 . S
C1270 C1276 1.465 . S
C1271 C1266 1.399 . S
C1271 C1270 1.394 . S
C1271 C1272 1.516 . S
C1272 C1271 1.516 . S
C1272 C1273 1.502 . S
C1272 C1274 1.561 . S
C1272 C1275 1.526 . S
C1273 H1257 0.959 . S
C1273 H1258 0.959 . S
C1273 H1259 0.961 . S
C1273 C1272 1.502 . S
C1274 H1260 0.960 . S
C1274 H1261 0.961 . S
C1274 H1262 0.959 . S
C1274 C1272 1.561 . S
C1275 C1272 1.526 . S
C1275 C1276 1.396 . S
C1275 C1280 1.390 . S
C1276 C1270 1.465 . S
C1276 C1275 1.396 . S
C1276 C1277 1.399 . S
C1277 H1263 0.929 . S
C1277 C1276 1.399 . S
C1277 C1278 1.385 . S
C1278 H1264 0.931 . S
C1278 C1277 1.385 . S
C1278 C1279 1.389 . S
C1279 C1278 1.389 . S
C1279 C1280 1.387 . S
C1280 H1265 0.930 . S
C1280 C1275 1.390 . S
C1280 C1279 1.387 . S
H1281 C1293 0.930 . S
H1282 C1295 0.930 . S
H1283 C1296 0.930 . S
H1284 C1300 0.959 . S
H1285 C1300 0.959 . S
H1286 C1300 0.961 . S
H1287 C1301 0.960 . S
H1288 C1301 0.961 . S
H1289 C1301 0.959 . S
H1290 C1304 0.929 . S
H1291 C1305 0.931 . S
H1292 C1307 0.930 . S
C1293 H1281 0.930 . S
C1293 C1294 1.399 . S
C1293 C1298 1.399 . S
C1294 C1293 1.399 . S
C1294 C1295 1.376 . S
C1295 H1282 0.930 . S
C1295 C1294 1.376 . S
C1295 C1296 1.388 . S
C1296 H1283 0.930 . S
C1296 C1295 1.388 . S
C1296 C1297 1.390 . S
C1297 C1296 1.390 . S
C1297 C1298 1.394 . S
C1297 C1303 1.465 . S
C1298 C1293 1.399 . S
C1298 C1297 1.394 . S
C1298 C1299 1.516 . S
C1299 C1298 1.516 . S
C1299 C1300 1.502 . S
C1299 C1301 1.561 . S
C1299 C1302 1.526 . S
C1300 H1284 0.959 . S
C1300 H1285 0.959 . S
C1300 H1286 0.961 . S
C1300 C1299 1.502 . S
C1301 H1287 0.960 . S
C1301 H1288 0.961 . S
C1301 H1289 0.959 . S
C1301 C1299 1.561 . S
C1302 C1299 1.526 . S
C1302 C1303 1.396 . S
C1302 C1307 1.390 . S
C1303 C1297 1.465 . S
C1303 C1302 1.396 . S
C1303 C1304 1.399 . S
C1304 H1290 0.929 . S
C1304 C1303 1.399 . S
C1304 C1305 1.385 . S
C1305 H1291 0.931 . S
C1305 C1304 1.385 . S
C1305 C1306 1.389 . S
C1306 C1305 1.389 . S
C1306 C1307 1.387 . S
C1307 H1292 0.930 . S
C1307 C1302 1.390 . S
C1307 C1306 1.387 . S
H1308 C1320 0.930 . S
H1309 C1322 0.930 . S
H1310 C1323 0.930 . S
H1311 C1327 0.959 . S
H1312 C1327 0.959 . S
H1313 C1327 0.961 . S
H1314 C1328 0.960 . S
H1315 C1328 0.961 . S
H1316 C1328 0.959 . S
H1317 C1331 0.929 . S
H1318 C1332 0.931 . S
H1319 C1334 0.930 . S
C1320 H1308 0.930 . S
C1320 C1321 1.399 . S
C1320 C1325 1.399 . S
C1321 C1320 1.399 . S
C1321 C1322 1.376 . S
C1322 H1309 0.930 . S
C1322 C1321 1.376 . S
C1322 C1323 1.388 . S
C1323 H1310 0.930 . S
C1323 C1322 1.388 . S
C1323 C1324 1.390 . S
C1324 C1323 1.390 . S
C1324 C1325 1.394 . S
C1324 C1330 1.465 . S
C1325 C1320 1.399 . S
C1325 C1324 1.394 . S
C1325 C1326 1.516 . S
C1326 C1325 1.516 . S
C1326 C1327 1.502 . S
C1326 C1328 1.561 . S
C1326 C1329 1.526 . S
C1327 H1311 0.959 . S
C1327 H1312 0.959 . S
C1327 H1313 0.961 . S
C1327 C1326 1.502 . S
C1328 H1314 0.960 . S
C1328 H1315 0.961 . S
C1328 H1316 0.959 . S
C1328 C1326 1.561 . S
C1329 C1326 1.526 . S
C1329 C1330 1.396 . S
C1329 C1334 1.390 . S
C1330 C1324 1.465 . S
C1330 C1329 1.396 . S
C1330 C1331 1.399 . S
C1331 H1317 0.929 . S
C1331 C1330 1.399 . S
C1331 C1332 1.385 . S
C1332 H1318 0.931 . S
C1332 C1331 1.385 . S
C1332 C1333 1.389 . S
C1333 C1332 1.389 . S
C1333 C1334 1.387 . S
C1334 H1319 0.930 . S
C1334 C1329 1.390 . S
C1334 C1333 1.387 . S
H1335 C1347 0.930 . S
H1336 C1349 0.930 . S
H1337 C1350 0.930 . S
H1338 C1354 0.959 . S
H1339 C1354 0.959 . S
H1340 C1354 0.961 . S
H1341 C1355 0.960 . S
H1342 C1355 0.961 . S
H1343 C1355 0.959 . S
H1344 C1358 0.929 . S
H1345 C1359 0.931 . S
H1346 C1361 0.930 . S
C1347 H1335 0.930 . S
C1347 C1348 1.399 . S
C1347 C1352 1.399 . S
C1348 C1347 1.399 . S
C1348 C1349 1.376 . S
C1349 H1336 0.930 . S
C1349 C1348 1.376 . S
C1349 C1350 1.388 . S
C1350 H1337 0.930 . S
C1350 C1349 1.388 . S
C1350 C1351 1.390 . S
C1351 C1350 1.390 . S
C1351 C1352 1.394 . S
C1351 C1357 1.465 . S
C1352 C1347 1.399 . S
C1352 C1351 1.394 . S
C1352 C1353 1.516 . S
C1353 C1352 1.516 . S
C1353 C1354 1.502 . S
C1353 C1355 1.561 . S
C1353 C1356 1.526 . S
C1354 H1338 0.959 . S
C1354 H1339 0.959 . S
C1354 H1340 0.961 . S
C1354 C1353 1.502 . S
C1355 H1341 0.960 . S
C1355 H1342 0.961 . S
C1355 H1343 0.959 . S
C1355 C1353 1.561 . S
C1356 C1353 1.526 . S
C1356 C1357 1.396 . S
C1356 C1361 1.390 . S
C1357 C1351 1.465 . S
C1357 C1356 1.396 . S
C1357 C1358 1.399 . S
C1358 H1344 0.929 . S
C1358 C1357 1.399 . S
C1358 C1359 1.385 . S
C1359 H1345 0.931 . S
C1359 C1358 1.385 . S
C1359 C1360 1.389 . S
C1360 C1359 1.389 . S
C1360 C1361 1.387 . S
C1361 H1346 0.930 . S
C1361 C1356 1.390 . S
C1361 C1360 1.387 . S
H1362 C1374 0.930 . S
H1363 C1376 0.930 . S
H1364 C1377 0.930 1_556 S
H1365 C1381 0.959 . S
H1366 C1381 0.959 . S
H1367 C1381 0.961 . S
H1368 C1382 0.960 1_554 S
H1369 C1382 0.961 . S
H1370 C1382 0.959 . S
H1371 C1385 0.929 . S
H1372 C1386 0.931 . S
H1373 C1388 0.930 . S
C1374 H1362 0.930 . S
C1374 C1375 1.399 . S
C1374 C1379 1.399 . S
C1375 C1374 1.399 . S
C1375 C1376 1.376 . S
C1376 H1363 0.930 . S
C1376 C1375 1.376 . S
C1376 C1377 1.388 . S
C1377 H1364 0.930 1_554 S
C1377 C1376 1.388 . S
C1377 C1378 1.390 1_554 S
C1378 C1377 1.390 1_556 S
C1378 C1379 1.394 1_556 S
C1378 C1384 1.465 . S
C1379 C1374 1.399 . S
C1379 C1378 1.394 1_554 S
C1379 C1380 1.491 1_554 S
C1380 C1379 1.491 1_556 S
C1380 C1381 1.474 1_556 S
C1380 C1382 1.573 . S
C1380 C1383 1.574 . S
C1381 H1365 0.959 . S
C1381 H1366 0.959 . S
C1381 H1367 0.961 . S
C1381 C1380 1.474 1_554 S
C1382 H1368 0.960 1_556 S
C1382 H1369 0.961 . S
C1382 H1370 0.959 . S
C1382 C1380 1.573 . S
C1383 C1380 1.574 . S
C1383 C1384 1.396 . S
C1383 C1388 1.390 . S
C1384 C1378 1.465 . S
C1384 C1383 1.396 . S
C1384 C1385 1.399 . S
C1385 H1371 0.929 . S
C1385 C1384 1.399 . S
C1385 C1386 1.385 . S
C1386 H1372 0.931 . S
C1386 C1385 1.385 . S
C1386 C1387 1.389 . S
C1387 C1386 1.389 . S
C1387 C1388 1.387 . S
C1388 H1373 0.930 . S
C1388 C1383 1.390 . S
C1388 C1387 1.387 . S
H1389 C1401 0.930 . S
H1390 C1403 0.930 . S
H1391 C1404 0.930 . S
H1392 C1408 0.959 . S
H1393 C1408 0.959 . S
H1394 C1408 0.961 . S
H1395 C1409 0.960 . S
H1396 C1409 0.961 . S
H1397 C1409 0.959 . S
H1398 C1412 0.929 . S
H1399 C1413 0.931 . S
H1400 C1415 0.930 . S
C1401 H1389 0.930 . S
C1401 C1402 1.399 . S
C1401 C1406 1.399 . S
C1402 C1401 1.399 . S
C1402 C1403 1.376 . S
C1403 H1390 0.930 . S
C1403 C1402 1.376 . S
C1403 C1404 1.388 . S
C1404 H1391 0.930 . S
C1404 C1403 1.388 . S
C1404 C1405 1.390 . S
C1405 C1404 1.390 . S
C1405 C1406 1.394 . S
C1405 C1411 1.465 . S
C1406 C1401 1.399 . S
C1406 C1405 1.394 . S
C1406 C1407 1.516 . S
C1407 C1406 1.516 . S
C1407 C1408 1.502 . S
C1407 C1409 1.561 . S
C1407 C1410 1.526 . S
C1408 H1392 0.959 . S
C1408 H1393 0.959 . S
C1408 H1394 0.961 . S
C1408 C1407 1.502 . S
C1409 H1395 0.960 . S
C1409 H1396 0.961 . S
C1409 H1397 0.959 . S
C1409 C1407 1.561 . S
C1410 C1407 1.526 . S
C1410 C1411 1.396 . S
C1410 C1415 1.390 . S
C1411 C1405 1.465 . S
C1411 C1410 1.396 . S
C1411 C1412 1.399 . S
C1412 H1398 0.929 . S
C1412 C1411 1.399 . S
C1412 C1413 1.385 . S
C1413 H1399 0.931 . S
C1413 C1412 1.385 . S
C1413 C1414 1.389 . S
C1414 C1413 1.389 . S
C1414 C1415 1.387 . S
C1415 H1400 0.930 . S
C1415 C1410 1.390 . S
C1415 C1414 1.387 . S
C793 C754 1.719 . S
C781 C1 1.335 . S
C808 C169 1.483 . S
C820 C695 1.785 . S
C835 C283 1.433 . S
C847 C698 1.816 . S
C862 C397 1.342 . S
C874 C712 1.615 . S
C901 C737 1.585 . S
C889 C457 1.195 . S
C916 C571 1.166 . S
C928 C740 1.506 . S
C943 C115 1.208 . S
C955 C709 1.608 . S
C970 C229 1.188 . S
C982 C723 1.565 . S
C997 C343 1.078 . S
C1009 C726 1.438 . S
C1036 C751 1.669 . S
C1024 C511 1.313 . S
C1063 C765 1.736 . S
C1051 C625 1.424 . S
C1090 C684 1.801 . S
C1078 C55 1.413 . S
C1105 C29 1.049 . S
C1117 C707 1.388 . S
C1132 C125 0.938 . S
C1144 C721 1.521 . S
C1171 C731 1.457 . S
C1159 C239 1.008 . S
C1186 C353 0.980 . S
C1198 C749 1.407 . S
C1225 C763 1.394 . S
C1213 C485 1.165 . S
C1252 C689 1.436 . S
C1240 C599 1.079 . S
C1279 C759 1.482 . S
C1267 C143 1.215 . S
C1294 C257 1.055 . S
C1306 C693 1.435 . S
C1333 C703 1.393 . S
C1321 C371 1.184 . S
C1348 C467 0.963 . S
C1360 C717 1.486 . S
C1375 C581 0.793 . S
C1387 C735 1.479 . S
C1402 C11 0.997 . S
C1414 C745 1.528 . S
