# Generated by pormake.
# Topology ctn, (3,4)-cn, num edge types: 1
# Building blocks:
#     Node 0, Type 0, BuildingBlock: CUQRIR_clean_linker_1, # of connection points: 3
#     Node 1, Type 0, BuildingBlock: CUQRIR_clean_linker_1, # of connection points: 3
#     Node 2, Type 0, BuildingBlock: CUQRIR_clean_linker_1, # of connection points: 3
#     Node 3, Type 0, BuildingBlock: CUQRIR_clean_linker_1, # of connection points: 3
#     Node 4, Type 0, BuildingBlock: CUQRIR_clean_linker_1, # of connection points: 3
#     Node 5, Type 0, BuildingBlock: CUQRIR_clean_linker_1, # of connection points: 3
#     Node 6, Type 0, BuildingBlock: CUQRIR_clean_linker_1, # of connection points: 3
#     Node 7, Type 0, BuildingBlock: CUQRIR_clean_linker_1, # of connection points: 3
#     Node 8, Type 0, BuildingBlock: CUQRIR_clean_linker_1, # of connection points: 3
#     Node 9, Type 0, BuildingBlock: CUQRIR_clean_linker_1, # of connection points: 3
#     Node 10, Type 0, BuildingBlock: CUQRIR_clean_linker_1, # of connection points: 3
#     Node 11, Type 0, BuildingBlock: CUQRIR_clean_linker_1, # of connection points: 3
#     Node 12, Type 0, BuildingBlock: CUQRIR_clean_linker_1, # of connection points: 3
#     Node 13, Type 0, BuildingBlock: CUQRIR_clean_linker_1, # of connection points: 3
#     Node 14, Type 0, BuildingBlock: CUQRIR_clean_linker_1, # of connection points: 3
#     Node 15, Type 0, BuildingBlock: CUQRIR_clean_linker_1, # of connection points: 3
#     Node 16, Type 1, BuildingBlock: TATPOV_clean_sbu_0, # of connection points: 4
#     Node 17, Type 1, BuildingBlock: TATPOV_clean_sbu_0, # of connection points: 4
#     Node 18, Type 1, BuildingBlock: TATPOV_clean_sbu_0, # of connection points: 4
#     Node 19, Type 1, BuildingBlock: TATPOV_clean_sbu_0, # of connection points: 4
#     Node 20, Type 1, BuildingBlock: TATPOV_clean_sbu_0, # of connection points: 4
#     Node 21, Type 1, BuildingBlock: TATPOV_clean_sbu_0, # of connection points: 4
#     Node 22, Type 1, BuildingBlock: TATPOV_clean_sbu_0, # of connection points: 4
#     Node 23, Type 1, BuildingBlock: TATPOV_clean_sbu_0, # of connection points: 4
#     Node 24, Type 1, BuildingBlock: TATPOV_clean_sbu_0, # of connection points: 4
#     Node 25, Type 1, BuildingBlock: TATPOV_clean_sbu_0, # of connection points: 4
#     Node 26, Type 1, BuildingBlock: TATPOV_clean_sbu_0, # of connection points: 4
#     Node 27, Type 1, BuildingBlock: TATPOV_clean_sbu_0, # of connection points: 4
#     Edge 28, Type (0, 1), BuildingBlock: MIFKUJ_clean_linker_0, # of connection points: 2
#     Edge 29, Type (0, 1), BuildingBlock: MIFKUJ_clean_linker_0, # of connection points: 2
#     Edge 30, Type (0, 1), BuildingBlock: MIFKUJ_clean_linker_0, # of connection points: 2
#     Edge 31, Type (0, 1), BuildingBlock: MIFKUJ_clean_linker_0, # of connection points: 2
#     Edge 32, Type (0, 1), BuildingBlock: MIFKUJ_clean_linker_0, # of connection points: 2
#     Edge 33, Type (0, 1), BuildingBlock: MIFKUJ_clean_linker_0, # of connection points: 2
#     Edge 34, Type (0, 1), BuildingBlock: MIFKUJ_clean_linker_0, # of connection points: 2
#     Edge 35, Type (0, 1), BuildingBlock: MIFKUJ_clean_linker_0, # of connection points: 2
#     Edge 36, Type (0, 1), BuildingBlock: MIFKUJ_clean_linker_0, # of connection points: 2
#     Edge 37, Type (0, 1), BuildingBlock: MIFKUJ_clean_linker_0, # of connection points: 2
#     Edge 38, Type (0, 1), BuildingBlock: MIFKUJ_clean_linker_0, # of connection points: 2
#     Edge 39, Type (0, 1), BuildingBlock: MIFKUJ_clean_linker_0, # of connection points: 2
#     Edge 40, Type (0, 1), BuildingBlock: MIFKUJ_clean_linker_0, # of connection points: 2
#     Edge 41, Type (0, 1), BuildingBlock: MIFKUJ_clean_linker_0, # of connection points: 2
#     Edge 42, Type (0, 1), BuildingBlock: MIFKUJ_clean_linker_0, # of connection points: 2
#     Edge 43, Type (0, 1), BuildingBlock: MIFKUJ_clean_linker_0, # of connection points: 2
#     Edge 44, Type (0, 1), BuildingBlock: MIFKUJ_clean_linker_0, # of connection points: 2
#     Edge 45, Type (0, 1), BuildingBlock: MIFKUJ_clean_linker_0, # of connection points: 2
#     Edge 46, Type (0, 1), BuildingBlock: MIFKUJ_clean_linker_0, # of connection points: 2
#     Edge 47, Type (0, 1), BuildingBlock: MIFKUJ_clean_linker_0, # of connection points: 2
#     Edge 48, Type (0, 1), BuildingBlock: MIFKUJ_clean_linker_0, # of connection points: 2
#     Edge 49, Type (0, 1), BuildingBlock: MIFKUJ_clean_linker_0, # of connection points: 2
#     Edge 50, Type (0, 1), BuildingBlock: MIFKUJ_clean_linker_0, # of connection points: 2
#     Edge 51, Type (0, 1), BuildingBlock: MIFKUJ_clean_linker_0, # of connection points: 2
#     Edge 52, Type (0, 1), BuildingBlock: MIFKUJ_clean_linker_0, # of connection points: 2
#     Edge 53, Type (0, 1), BuildingBlock: MIFKUJ_clean_linker_0, # of connection points: 2
#     Edge 54, Type (0, 1), BuildingBlock: MIFKUJ_clean_linker_0, # of connection points: 2
#     Edge 55, Type (0, 1), BuildingBlock: MIFKUJ_clean_linker_0, # of connection points: 2
#     Edge 56, Type (0, 1), BuildingBlock: MIFKUJ_clean_linker_0, # of connection points: 2
#     Edge 57, Type (0, 1), BuildingBlock: MIFKUJ_clean_linker_0, # of connection points: 2
#     Edge 58, Type (0, 1), BuildingBlock: MIFKUJ_clean_linker_0, # of connection points: 2
#     Edge 59, Type (0, 1), BuildingBlock: MIFKUJ_clean_linker_0, # of connection points: 2
#     Edge 60, Type (0, 1), BuildingBlock: MIFKUJ_clean_linker_0, # of connection points: 2
#     Edge 61, Type (0, 1), BuildingBlock: MIFKUJ_clean_linker_0, # of connection points: 2
#     Edge 62, Type (0, 1), BuildingBlock: MIFKUJ_clean_linker_0, # of connection points: 2
#     Edge 63, Type (0, 1), BuildingBlock: MIFKUJ_clean_linker_0, # of connection points: 2
#     Edge 64, Type (0, 1), BuildingBlock: MIFKUJ_clean_linker_0, # of connection points: 2
#     Edge 65, Type (0, 1), BuildingBlock: MIFKUJ_clean_linker_0, # of connection points: 2
#     Edge 66, Type (0, 1), BuildingBlock: MIFKUJ_clean_linker_0, # of connection points: 2
#     Edge 67, Type (0, 1), BuildingBlock: MIFKUJ_clean_linker_0, # of connection points: 2
#     Edge 68, Type (0, 1), BuildingBlock: MIFKUJ_clean_linker_0, # of connection points: 2
#     Edge 69, Type (0, 1), BuildingBlock: MIFKUJ_clean_linker_0, # of connection points: 2
#     Edge 70, Type (0, 1), BuildingBlock: MIFKUJ_clean_linker_0, # of connection points: 2
#     Edge 71, Type (0, 1), BuildingBlock: MIFKUJ_clean_linker_0, # of connection points: 2
#     Edge 72, Type (0, 1), BuildingBlock: MIFKUJ_clean_linker_0, # of connection points: 2
#     Edge 73, Type (0, 1), BuildingBlock: MIFKUJ_clean_linker_0, # of connection points: 2
#     Edge 74, Type (0, 1), BuildingBlock: MIFKUJ_clean_linker_0, # of connection points: 2
#     Edge 75, Type (0, 1), BuildingBlock: MIFKUJ_clean_linker_0, # of connection points: 2
# Relax obj value: 0.080
# Max RMSD: 0.208
# Mean RMSD: 0.131
data_MOF--net-ctn--node1-TATPOV_clean_sbu_0--node2-CUQRIR_clean_linker_1--edge1-MIFKUJ_clean_linker_0
_symmetry_space_group_name_H-M    P1
_symmetry_Int_Tables_number       1
_symmetry_cell_setting            triclinic
loop_
_symmetry_equiv_pos_as_xyz
'x, y, z'
_cell_length_a     68.962385
_cell_length_b     64.523837
_cell_length_c     66.035829
_cell_angle_alpha  97.527916
_cell_angle_beta   90.075356
_cell_angle_gamma 93.779486
loop_
_atom_site_label
_atom_site_type_symbol
_atom_site_fract_x
_atom_site_fract_y
_atom_site_fract_z
_atom_type_partial_charge
C0 C 0.03844 0.01632 0.06574 0.0
N1 N 0.04796 0.02259 0.04938 0.0
N2 N 0.02104 0.02492 0.06808 0.0
C3 C 0.04533 1.0004 0.07839 0.0
C4 C 0.02022 0.03648 0.05245 0.0
N5 N 0.03642 0.03485 0.04088 0.0
C6 C 0.00429 0.05071 0.04947 0.0
H7 H 0.03293 0.9922 0.0854 0.0
H8 H 0.05501 0.00852 0.09079 0.0
H9 H 0.05367 0.98863 0.06895 0.0
H10 H 0.99705 0.05575 0.06412 0.0
H11 H 0.99328 0.04213 0.03867 0.0
H12 H 0.01008 0.0648 0.04292 0.0
C13 C 0.26613 0.72608 0.23754 0.0
N14 N 0.27494 0.71551 0.25099 0.0
N15 N 0.27854 0.74118 0.23149 0.0
C16 C 0.24599 0.72035 0.22887 0.0
C17 C 0.29531 0.73924 0.24165 0.0
N18 N 0.29322 0.72344 0.25336 0.0
C19 C 0.3132 0.75388 0.24135 0.0
H20 H 0.24483 0.72429 0.21308 0.0
H21 H 0.23544 0.72928 0.23856 0.0
H22 H 0.24199 0.70339 0.22873 0.0
H23 H 0.30938 0.76944 0.23775 0.0
H24 H 0.32316 0.74722 0.22941 0.0
H25 H 0.32093 0.75588 0.2563 0.0
C26 C 0.96938 0.47708 0.07489 0.0
N27 N 0.98054 0.46041 0.07276 0.0
N28 N 0.95453 0.47412 0.06113 0.0
C29 C 0.97187 0.4953 0.09164 0.0
C30 C 0.95696 0.45494 0.05071 0.0
N31 N 0.97256 0.44648 0.05801 0.0
C32 C 0.94517 0.44524 0.03226 0.0
H33 H 0.95782 0.50229 0.0953 0.0
H34 H 0.98217 0.50747 0.08655 0.0
H35 H 0.9779 0.49031 0.10569 0.0
H36 H 0.93944 0.45746 0.02396 0.0
H37 H 0.93271 0.43548 0.03732 0.0
H38 H 0.95399 0.43502 0.02162 0.0
C39 C 0.71317 0.74395 0.23543 0.0
N40 N 0.72679 0.75571 0.22644 0.0
N41 N 0.70721 0.75459 0.25313 0.0
C42 C 0.70429 0.72305 0.22583 0.0
C43 C 0.71762 0.77326 0.25448 0.0
N44 N 0.7295 0.77404 0.23821 0.0
C45 C 0.7164 0.79052 0.27201 0.0
H46 H 0.69195 0.72568 0.21588 0.0
H47 H 0.69867 0.71344 0.23754 0.0
H48 H 0.71505 0.71433 0.21624 0.0
H49 H 0.71242 0.78395 0.28627 0.0
H50 H 0.70496 0.80092 0.26862 0.0
H51 H 0.73043 0.80002 0.27435 0.0
C52 C 0.03064 0.97496 0.4679 0.0
N53 N 0.04697 0.97863 0.4796 0.0
N54 N 0.03238 0.98494 0.45109 0.0
C55 C 0.01378 0.96001 0.47182 0.0
C56 C 0.05046 0.9946 0.45289 0.0
N57 N 0.05939 0.99055 0.47007 0.0
C58 C 0.05884 0.00928 0.43873 0.0
H59 H 0.01873 0.94708 0.47968 0.0
H60 H 0.00631 0.95321 0.45735 0.0
H61 H 0.00321 0.96858 0.48179 0.0
H62 H 0.06903 0.02154 0.44704 0.0
H63 H 0.04719 0.01693 0.4315 0.0
H64 H 0.06703 1.00022 0.42654 0.0
C65 C 0.18961 0.72952 0.78636 0.0
N66 N 0.20408 0.72131 0.79597 0.0
N67 N 0.18858 0.72147 0.76638 0.0
C68 C 0.17764 0.74681 0.79601 0.0
C69 C 0.20311 0.70826 0.76407 0.0
N70 N 0.21273 0.70835 0.78202 0.0
C71 C 0.20676 0.69393 0.74477 0.0
H72 H 0.16467 0.73982 0.80318 0.0
H73 H 0.17267 0.75637 0.78446 0.0
H74 H 0.18612 0.75719 0.80802 0.0
H75 H 0.19342 0.69075 0.73515 0.0
H76 H 0.21184 0.67884 0.74833 0.0
H77 H 0.21821 0.7015 0.73591 0.0
C78 C 0.94124 0.54563 0.4545 0.0
N79 N 0.95483 0.56197 0.45673 0.0
N80 N 0.92801 0.54778 0.46969 0.0
C81 C 0.94207 0.52653 0.43884 0.0
C82 C 0.93417 0.56587 0.48133 0.0
N83 N 0.9505 0.57435 0.47356 0.0
C84 C 0.92395 0.57565 0.49994 0.0
H85 H 0.93409 0.52913 0.42489 0.0
H86 H 0.9352 0.51245 0.44463 0.0
H87 H 0.95731 0.52359 0.43463 0.0
H88 H 0.9304 0.57055 0.51372 0.0
H89 H 0.9082 0.57078 0.49929 0.0
H90 H 0.92586 0.593 0.50143 0.0
C91 C 0.81141 0.83134 0.84165 0.0
N92 N 0.82498 0.81736 0.83638 0.0
N93 N 0.81063 0.84498 0.82778 0.0
C94 C 0.79792 0.83065 0.8595 0.0
C95 C 0.82396 0.83864 0.81372 0.0
N96 N 0.83253 0.82173 0.8188 0.0
C97 C 0.82773 0.84821 0.79437 0.0
H98 H 0.78649 0.84194 0.8595 0.0
H99 H 0.80641 0.83454 0.87392 0.0
H100 H 0.79105 0.81457 0.85927 0.0
H101 H 0.82507 0.8651 0.79651 0.0
H102 H 0.81772 0.8402 0.78221 0.0
H103 H 0.84289 0.84631 0.78924 0.0
C104 C 0.31069 0.33007 0.3384 0.0
N105 N 0.32416 0.31578 0.33396 0.0
N106 N 0.31342 0.34592 0.32694 0.0
C107 C 0.29406 0.32794 0.35288 0.0
C108 C 0.329 0.3408 0.31541 0.0
N109 N 0.33569 0.32265 0.31982 0.0
C110 C 0.3368 0.35273 0.29876 0.0
H111 H 0.28113 0.32041 0.34415 0.0
H112 H 0.2902 0.34352 0.36032 0.0
H113 H 0.2977 0.31822 0.36484 0.0
H114 H 0.33321 0.36937 0.30161 0.0
H115 H 0.33014 0.34556 0.28397 0.0
H116 H 0.35279 0.35186 0.29756 0.0
C117 C 0.46939 0.97767 0.5722 0.0
N118 N 0.48068 0.96114 0.57111 0.0
N119 N 0.45458 0.97378 0.55844 0.0
C120 C 0.47177 0.99682 0.58791 0.0
C121 C 0.45716 0.95419 0.54909 0.0
N122 N 0.47284 0.94639 0.55699 0.0
C123 C 0.44537 0.94335 0.5311 0.0
H124 H 0.47774 0.99286 0.60242 0.0
H125 H 0.45769 0.00395 0.59101 0.0
H126 H 0.48207 0.00855 0.58209 0.0
H127 H 0.43988 0.95488 0.5218 0.0
H128 H 0.43277 0.93427 0.53677 0.0
H129 H 0.4541 0.93232 0.52127 0.0
C130 C 0.20376 0.24389 0.72608 0.0
N131 N 0.21808 0.25489 0.71718 0.0
N132 N 0.19645 0.25587 0.74233 0.0
C133 C 0.19562 0.22223 0.71775 0.0
C134 C 0.20672 0.27457 0.74286 0.0
N135 N 0.21969 0.27404 0.72749 0.0
C136 C 0.20508 0.29294 0.75917 0.0
H137 H 0.18012 0.21982 0.72188 0.0
H138 H 0.20395 0.21055 0.72435 0.0
H139 H 0.19691 0.21946 0.70087 0.0
H140 H 0.21961 0.30101 0.76274 0.0
H141 H 0.19877 0.28797 0.77335 0.0
H142 H 0.19565 0.30426 0.75348 0.0
C143 C 0.76545 0.23202 0.73292 0.0
N144 N 0.77362 0.22047 0.74596 0.0
N145 N 0.77817 0.24763 0.72843 0.0
C146 C 0.74573 0.22681 0.72301 0.0
C147 C 0.79448 0.24497 0.73904 0.0
N148 N 0.7918 0.2283 0.74957 0.0
C149 C 0.81245 0.25965 0.7403 0.0
H150 H 0.74167 0.20976 0.72169 0.0
H151 H 0.74537 0.23177 0.70755 0.0
H152 H 0.73475 0.23521 0.73255 0.0
H153 H 0.80889 0.27552 0.73737 0.0
H154 H 0.82289 0.2536 0.72857 0.0
H155 H 0.81952 0.26077 0.75555 0.0
C156 C 0.53476 0.51117 0.56626 0.0
N157 N 0.54408 0.51849 0.55032 0.0
N158 N 0.51991 0.5231 0.57257 0.0
C159 C 0.54101 0.49314 0.57645 0.0
C160 C 0.52063 0.53805 0.55991 0.0
N161 N 0.53544 0.53542 0.5465 0.0
C162 C 0.50583 0.55412 0.55946 0.0
H163 H 0.53481 0.47825 0.56783 0.0
H164 H 0.53597 0.49418 0.59247 0.0
H165 H 0.55707 0.49285 0.5763 0.0
H166 H 0.51123 0.56888 0.56889 0.0
H167 H 0.4917 0.5487 0.56561 0.0
H168 H 0.50357 0.55746 0.54363 0.0
C169 C 0.53083 0.48258 0.97124 0.0
N170 N 0.54676 0.48495 0.98359 0.0
N171 N 0.53208 0.49659 0.95763 0.0
C172 C 0.51446 0.46606 0.97195 0.0
C173 C 0.54923 0.50761 0.96219 0.0
N174 N 0.55805 0.5007 0.97811 0.0
C175 C 0.55762 0.52473 0.95077 0.0
H176 H 0.51852 0.45131 0.96286 0.0
H177 H 0.50081 0.47058 0.9654 0.0
H178 H 0.51185 0.46298 0.9879 0.0
H179 H 0.54594 0.53243 0.94363 0.0
H180 H 0.56714 0.51778 0.93853 0.0
H181 H 0.56655 0.5366 0.9611 0.0
C182 C 0.6981 0.2374 0.27197 0.0
N183 N 0.71192 0.22878 0.28215 0.0
N184 N 0.69393 0.22571 0.25379 0.0
C185 C 0.68823 0.25691 0.28006 0.0
C186 C 0.70552 0.20955 0.25326 0.0
N187 N 0.71635 0.21126 0.27064 0.0
C188 C 0.70619 0.19219 0.23575 0.0
H189 H 0.68512 0.25707 0.29657 0.0
H190 H 0.67452 0.25831 0.27172 0.0
H191 H 0.69809 0.27082 0.27828 0.0
H192 H 0.70183 0.1975 0.2212 0.0
H193 H 0.69587 0.17903 0.23871 0.0
H194 H 0.72098 0.18639 0.23418 0.0
C195 C 0.43422 0.04985 0.94662 0.0
N196 N 0.44986 0.06388 0.94954 0.0
N197 N 0.42284 0.05121 0.96338 0.0
C198 C 0.43109 0.0333 0.92839 0.0
C199 C 0.43217 0.0663 0.97667 0.0
N200 N 0.4487 0.07384 0.9684 0.0
C201 C 0.42453 0.07434 0.99737 0.0
H202 H 0.4233 0.03996 0.9163 0.0
H203 H 0.4222 0.01948 0.93238 0.0
H204 H 0.44519 0.02814 0.92219 0.0
H205 H 0.4312 0.0661 0.00907 0.0
H206 H 0.40852 0.07138 0.99793 0.0
H207 H 0.42831 0.09139 0.00119 0.0
Zn208 Zn 0.27575 0.85693 0.02112 0.0
Zn209 Zn 0.24286 0.87389 0.02536 0.0
O210 O 0.24609 0.86076 0.05288 0.0
O211 O 0.27308 0.84471 0.04703 0.0
O212 O 0.21812 0.88994 0.02899 0.0
O213 O 0.29138 0.88383 0.02084 0.0
O214 O 0.26332 0.8981 0.0203 0.0
C215 C 0.25895 0.84923 0.05859 0.0
C216 C 0.24961 0.84013 0.98894 0.0
O217 O 0.23786 0.85162 0.99947 0.0
O218 O 0.2671 0.84017 0.99474 0.0
C219 C 0.20822 0.89378 0.01375 0.0
O220 O 0.21343 0.88621 0.99526 0.0
C221 C 0.28185 0.89967 0.01955 0.0
Zn222 Zn 0.10935 0.46365 0.28707 0.0
Zn223 Zn 0.12891 0.49926 0.28086 0.0
O224 O 0.11029 0.5092 0.30442 0.0
O225 O 0.09406 0.47967 0.30903 0.0
O226 O 0.14623 0.52498 0.2763 0.0
O227 O 0.13358 0.45044 0.29406 0.0
O228 O 0.14967 0.47968 0.28849 0.0
C229 C 0.09718 0.49928 0.3137 0.0
C230 C 0.10368 0.47363 0.24647 0.0
O231 O 0.11471 0.48985 0.25295 0.0
O232 O 0.09955 0.45992 0.25813 0.0
C233 C 0.14423 0.54365 0.28462 0.0
O234 O 0.12933 0.54751 0.29658 0.0
C235 C 0.14953 0.46116 0.29333 0.0
Zn236 Zn 0.7831 0.60326 0.95784 0.0
Zn237 Zn 0.78111 0.63066 0.99227 0.0
O238 O 0.80316 0.61251 0.99897 0.0
O239 O 0.80413 0.58933 0.97139 0.0
O240 O 0.77876 0.65067 0.01841 0.0
O241 O 0.78965 0.62764 0.94203 0.0
O242 O 0.78806 0.64989 0.97018 0.0
C243 C 0.81028 0.59645 0.9892 0.0
C244 C 0.74604 0.59984 0.97669 0.0
O245 O 0.75402 0.61445 0.98949 0.0
O246 O 0.75536 0.59248 0.96117 0.0
C247 C 0.77017 0.64398 0.03356 0.0
O248 O 0.76326 0.62435 0.03178 0.0
C249 C 0.79099 0.6463 0.95099 0.0
Zn250 Zn 0.84018 0.00356 0.29764 0.0
Zn251 Zn 0.86312 0.00733 0.26573 0.0
O252 O 0.8482 0.03479 0.2689 0.0
O253 O 0.83178 0.03265 0.29726 0.0
O254 O 0.88181 0.01059 0.24242 0.0
O255 O 0.86308 0.99948 0.31524 0.0
O256 O 0.88214 0.0045 0.2894 0.0
C257 C 0.83688 0.0427 0.28272 0.0
C258 C 0.83164 0.97103 0.26409 0.0
O259 O 0.84638 0.97984 0.25622 0.0
O260 O 0.82549 0.97872 0.28134 0.0
C261 C 0.87711 0.00692 0.22359 0.0
O262 O 0.85899 1.00092 0.21846 0.0
C263 C 0.87997 0.00114 0.3079 0.0
Zn264 Zn 0.28226 0.10019 0.45364 0.0
Zn265 Zn 0.27946 0.12788 0.48736 0.0
O266 O 0.30184 0.11025 0.49473 0.0
O267 O 0.30227 0.08585 0.46808 0.0
O268 O 0.27644 0.14854 0.51285 0.0
O269 O 0.2906 0.12391 0.43763 0.0
O270 O 0.28621 0.14668 0.46486 0.0
C271 C 0.30861 0.09364 0.48563 0.0
C272 C 0.24465 0.09717 0.47161 0.0
O273 O 0.25258 0.11137 0.48487 0.0
O274 O 0.25408 0.09025 0.456 0.0
C275 C 0.27664 0.14225 0.53031 0.0
O276 O 0.27914 0.12242 0.53142 0.0
C277 C 0.29073 0.14271 0.44608 0.0
Zn278 Zn 0.34039 0.49954 0.80249 0.0
Zn279 Zn 0.36081 0.5042 0.7696 0.0
O280 O 0.34388 0.53021 0.77311 0.0
O281 O 0.32578 0.52475 0.79955 0.0
O282 O 0.37759 0.50848 0.74491 0.0
O283 O 0.36416 0.5026 0.82019 0.0
O284 O 0.38164 0.50414 0.79253 0.0
C285 C 0.3305 0.53581 0.78564 0.0
C286 C 0.33414 0.46417 0.77181 0.0
O287 O 0.34523 0.47536 0.76145 0.0
O288 O 0.33018 0.47094 0.79009 0.0
C289 C 0.38454 0.49326 0.73361 0.0
O290 O 0.38036 0.47407 0.73764 0.0
C291 C 0.38059 0.50387 0.8118 0.0
Zn292 Zn 0.76998 0.34751 0.51148 0.0
Zn293 Zn 0.74109 0.37132 0.51785 0.0
O294 O 0.74382 0.35888 0.54573 0.0
O295 O 0.7703 0.34181 0.54025 0.0
O296 O 0.71848 0.39061 0.52193 0.0
O297 O 0.78717 0.37099 0.50284 0.0
O298 O 0.76411 0.39216 0.51211 0.0
C299 C 0.75684 0.34794 0.55209 0.0
C300 C 0.74016 0.33296 0.48366 0.0
O301 O 0.73319 0.34991 0.49186 0.0
O302 O 0.75577 0.32718 0.49047 0.0
C303 C 0.7012 0.38528 0.5155 0.0
O304 O 0.6972 0.36614 0.50637 0.0
C305 C 0.78123 0.38927 0.50546 0.0
Zn306 Zn 0.61026 0.96724 0.78554 0.0
Zn307 Zn 0.62974 0.0028 0.77945 0.0
O308 O 0.6103 0.01211 0.80231 0.0
O309 O 0.59545 0.98238 0.8085 0.0
O310 O 0.64623 0.02963 0.77723 0.0
O311 O 0.63455 0.95363 0.79122 0.0
O312 O 0.65074 0.98314 0.78663 0.0
C313 C 0.59788 0.00213 0.81235 0.0
C314 C 0.60467 0.97812 0.74488 0.0
O315 O 0.61613 0.99402 0.7512 0.0
O316 O 0.60008 0.96466 0.75669 0.0
C317 C 0.65454 0.03402 0.76099 0.0
O318 O 0.65186 0.021 0.74403 0.0
C319 C 0.65054 0.96433 0.79069 0.0
Zn320 Zn 0.99306 0.25566 0.87381 0.0
Zn321 Zn 0.99662 0.22297 0.89309 0.0
O322 O 0.02112 0.2238 0.87413 0.0
O323 O 0.01706 0.25088 0.8579 0.0
O324 O 1.00079 0.19757 0.90779 0.0
O325 O 0.99512 0.27509 0.90012 0.0
O326 O 0.99677 0.24786 0.91688 0.0
C327 C 0.02696 0.23582 0.86113 0.0
C328 C 0.96056 0.22612 0.86564 0.0
O329 O 0.96966 0.21611 0.87776 0.0
O330 O 0.9676 0.24365 0.86148 0.0
C331 C 0.01592 0.19785 0.91896 0.0
O332 O 0.02809 0.21454 0.92075 0.0
C333 C 0.99653 0.26762 0.9168 0.0
Zn334 Zn 0.49782 0.75325 0.37259 0.0
Zn335 Zn 0.50096 0.72237 0.39441 0.0
O336 O 0.52589 0.72182 0.37597 0.0
O337 O 0.52206 0.74723 0.35746 0.0
O338 O 0.50489 0.69902 0.4119 0.0
O339 O 0.49942 0.77455 0.39768 0.0
O340 O 0.50067 0.74879 0.41639 0.0
C341 C 0.53194 0.73269 0.3621 0.0
C342 C 0.46526 0.72345 0.36594 0.0
O343 O 0.47415 0.7144 0.37901 0.0
O344 O 0.47248 0.74042 0.3606 0.0
C345 C 0.50859 0.68042 0.40467 0.0
O346 O 0.50921 0.67538 0.38476 0.0
C347 C 0.50045 0.76833 0.41502 0.0
Zn348 Zn 0.96979 0.80708 0.61561 0.0
Zn349 Zn 0.00189 0.79727 0.63442 0.0
O350 O 0.01111 0.82463 0.62331 0.0
O351 O 0.98413 0.83447 0.61064 0.0
O352 O 0.0252 0.78915 0.64915 0.0
O353 O 0.95437 0.80486 0.64149 0.0
O354 O 0.98132 0.79923 0.65717 0.0
C355 C 0.00215 0.83775 0.61459 0.0
C356 C 0.98491 0.76852 0.59705 0.0
O357 O 0.99697 0.77245 0.61189 0.0
O358 O 0.97199 0.78115 0.5948 0.0
C359 C 0.04183 0.78772 0.64101 0.0
O360 O 0.04429 0.79228 0.62233 0.0
C361 C 0.96312 0.80167 0.65757 0.0
Zn362 Zn 0.46574 0.30144 0.11098 0.0
Zn363 Zn 0.4989 0.29474 0.12976 0.0
O364 O 0.50624 0.32248 0.11832 0.0
O365 O 0.47886 0.32852 0.10365 0.0
O366 O 0.52301 0.28833 0.14428 0.0
O367 O 0.45112 0.30039 0.13751 0.0
O368 O 0.47861 0.29593 0.15281 0.0
C369 C 0.49651 0.33385 0.1082 0.0
C370 C 0.48231 0.26347 0.09367 0.0
O371 O 0.49504 0.26921 0.10764 0.0
O372 O 0.46815 0.27463 0.09174 0.0
C373 C 0.53961 0.28825 0.13594 0.0
O374 O 0.54141 0.29329 0.11736 0.0
C375 C 0.46033 0.29785 0.15352 0.0
H376 H 0.18114 0.71907 0.82854 0.0
H377 H 0.18819 0.73595 0.8635 0.0
H378 H 0.24668 0.75314 0.84595 0.0
H379 H 0.23939 0.73662 0.81077 0.0
H380 H 0.2425 0.73964 0.88671 0.0
H381 H 0.21682 0.78856 0.845 0.0
H382 H 0.19267 0.79961 0.82171 0.0
H383 H 0.14789 0.79233 0.86584 0.0
H384 H 0.1718 0.78116 0.88937 0.0
H385 H 0.27284 0.82461 0.95835 0.0
H386 H 0.26379 0.80125 0.92745 0.0
H387 H 0.20355 0.80108 0.94507 0.0
H388 H 0.21256 0.82536 0.97606 0.0
H389 H 0.20621 0.80315 0.90588 0.0
H390 H 0.23182 0.75852 0.94954 0.0
H391 H 0.25517 0.74679 0.97324 0.0
H392 H 0.29864 0.74387 0.92664 0.0
H393 H 0.27564 0.75588 0.90274 0.0
C394 C 0.19559 0.7261 0.83235 0.0
C395 C 0.20969 0.72682 0.81709 0.0
C396 C 0.19959 0.73574 0.85222 0.0
C397 C 0.21785 0.74604 0.85719 0.0
C398 C 0.23248 0.74529 0.84237 0.0
C399 C 0.22839 0.7358 0.82238 0.0
C400 C 0.22104 0.75916 0.87722 0.0
C401 C 0.23473 0.75363 0.8909 0.0
C402 C 0.21038 0.77698 0.88288 0.0
C403 C 0.19604 0.78384 0.86884 0.0
C404 C 0.2018 0.78921 0.84968 0.0
C405 C 0.18818 0.79556 0.83647 0.0
C406 C 0.16875 0.7966 0.84226 0.0
C407 C 0.16294 0.79146 0.86135 0.0
C408 C 0.17653 0.78518 0.87465 0.0
C409 C 0.25763 0.81963 0.95574 0.0
C410 C 0.24342 0.82667 0.9698 0.0
C411 C 0.25249 0.80612 0.93806 0.0
C412 C 0.23306 0.79886 0.93415 0.0
C413 C 0.21869 0.80629 0.94786 0.0
C414 C 0.22382 0.82016 0.96553 0.0
C415 C 0.22798 0.7839 0.91548 0.0
C416 C 0.2139 0.78906 0.90195 0.0
C417 C 0.23815 0.76558 0.91009 0.0
C418 C 0.25203 0.75825 0.92439 0.0
C419 C 0.2464 0.75551 0.94438 0.0
C420 C 0.25957 0.7488 0.95785 0.0
C421 C 0.27839 0.74463 0.95146 0.0
C422 C 0.28406 0.74712 0.93157 0.0
C423 C 0.27095 0.75385 0.91805 0.0
H424 H 0.28856 0.73943 0.96191 0.0
H425 H 0.15821 0.80144 0.83197 0.0
H426 H 0.95503 0.56282 0.41617 0.0
H427 H 0.98335 0.55978 0.39384 0.0
H428 H 0.02089 0.56421 0.44679 0.0
H429 H 0.9924 0.56634 0.46899 0.0
H430 H 0.01771 0.57971 0.38658 0.0
H431 H 0.05343 0.52691 0.43753 0.0
H432 H 0.04442 0.50518 0.46462 0.0
H433 H 0.98623 0.4948 0.44046 0.0
H434 H 0.99499 0.51617 0.41308 0.0
H435 H 0.10169 0.54027 0.33226 0.0
H436 H 0.0812 0.55753 0.35897 0.0
H437 H 0.04462 0.50042 0.35729 0.0
H438 H 0.06504 0.48314 0.33134 0.0
H439 H 0.05133 0.51565 0.39485 0.0
H440 H 0.03205 0.54345 0.33371 0.0
H441 H 0.03749 0.5624 0.3039 0.0
H442 H 0.05725 0.61795 0.34352 0.0
H443 H 0.05214 0.59922 0.37357 0.0
C444 C 0.96941 0.56356 0.42294 0.0
C445 C 0.97163 0.56461 0.44418 0.0
C446 C 0.98558 0.56199 0.41025 0.0
C447 C 0.00423 0.56147 0.41862 0.0
C448 C 0.00661 0.56437 0.43998 0.0
C449 C 0.99039 0.56575 0.45267 0.0
C450 C 0.02049 0.55488 0.40502 0.0
C451 C 0.02527 0.56587 0.38851 0.0
C452 C 0.03013 0.5366 0.40731 0.0
C453 C 0.02482 0.52335 0.42345 0.0
C454 C 0.03874 0.51992 0.43798 0.0
C455 C 0.03368 0.50767 0.45337 0.0
C456 C 0.01475 0.49868 0.45431 0.0
C457 C 0.00087 0.50182 0.43977 0.0
C458 C 0.00588 0.514 0.42431 0.0
C459 C 0.08929 0.53144 0.33765 0.0
C460 C 0.08507 0.5103 0.32969 0.0
C461 C 0.07756 0.54133 0.35286 0.0
C462 C 0.06131 0.53029 0.36015 0.0
C463 C 0.05714 0.50925 0.35211 0.0
C464 C 0.06885 0.49938 0.33716 0.0
C465 C 0.04838 0.54022 0.37609 0.0
C466 C 0.0442 0.52982 0.39313 0.0
C467 C 0.0389 0.55863 0.37387 0.0
C468 C 0.04195 0.56987 0.35584 0.0
C469 C 0.0377 0.55966 0.33604 0.0
C470 C 0.0407 0.57036 0.31911 0.0
C471 C 0.04778 0.59135 0.32181 0.0
C472 C 0.05181 0.60169 0.34146 0.0
C473 C 0.04886 0.59104 0.35844 0.0
H474 H 0.05008 0.59962 0.30868 0.0
H475 H 0.01085 0.48924 0.46626 0.0
H476 H 0.83626 0.81645 0.87521 0.0
H477 H 0.83381 0.78594 0.89377 0.0
H478 H 0.81757 0.74625 0.83771 0.0
H479 H 0.81918 0.77712 0.81945 0.0
H480 H 0.79277 0.73911 0.86589 0.0
H481 H 0.86194 0.74364 0.86343 0.0
H482 H 0.89505 0.76063 0.86737 0.0
H483 H 0.88648 0.77561 0.93188 0.0
H484 H 0.85319 0.75898 0.9283 0.0
H485 H 0.79316 0.64435 0.9095 0.0
H486 H 0.80188 0.67271 0.88947 0.0
H487 H 0.8095 0.71609 0.94482 0.0
H488 H 0.80072 0.68769 0.96512 0.0
H489 H 0.83968 0.7202 0.91634 0.0
H490 H 0.76974 0.71679 0.91772 0.0
H491 H 0.73684 0.69931 0.91324 0.0
H492 H 0.74771 0.68138 0.84954 0.0
H493 H 0.78079 0.69851 0.85372 0.0
C494 C 0.83253 0.80111 0.86688 0.0
C495 C 0.82784 0.79902 0.84601 0.0
C496 C 0.83125 0.78365 0.87742 0.0
C497 C 0.82556 0.76369 0.86717 0.0
C498 C 0.82196 0.76146 0.84599 0.0
C499 C 0.8231 0.779 0.8355 0.0
C500 C 0.82158 0.74565 0.87887 0.0
C501 C 0.80322 0.73474 0.87661 0.0
C502 C 0.83495 0.74025 0.89332 0.0
C503 C 0.855 0.7502 0.89556 0.0
C504 C 0.86705 0.7507 0.87844 0.0
C505 C 0.88587 0.76024 0.88061 0.0
C506 C 0.89285 0.76923 0.89986 0.0
C507 C 0.88105 0.76865 0.91698 0.0
C508 C 0.86221 0.75914 0.91489 0.0
C509 C 0.79668 0.65991 0.91749 0.0
C510 C 0.79616 0.66374 0.93896 0.0
C511 C 0.80164 0.67612 0.90598 0.0
C512 C 0.80624 0.69653 0.91564 0.0
C513 C 0.80601 0.70043 0.93706 0.0
C514 C 0.80089 0.68421 0.94863 0.0
C515 C 0.81097 0.7138 0.90326 0.0
C516 C 0.82938 0.72455 0.90547 0.0
C517 C 0.79773 0.71899 0.88864 0.0
C518 C 0.77782 0.70874 0.88608 0.0
C519 C 0.76518 0.70896 0.9028 0.0
C520 C 0.74648 0.69915 0.9003 0.0
C521 C 0.74021 0.68919 0.88113 0.0
C522 C 0.7526 0.68908 0.86439 0.0
C523 C 0.77132 0.69885 0.86681 0.0
H524 H 0.72573 0.68161 0.87923 0.0
H525 H 0.90742 0.77661 0.90151 0.0
H526 H 0.03748 0.97735 0.41028 0.0
H527 H 0.01306 0.979 0.38348 0.0
H528 H 0.97046 0.99495 0.42971 0.0
H529 H 0.99503 0.99403 0.45641 0.0
H530 H 0.95754 0.96244 0.39798 0.0
H531 H 0.98998 0.03208 0.40668 0.0
H532 H 0.01877 0.05697 0.4075 0.0
H533 H 0.03073 0.03426 0.34501 0.0
H534 H 0.00218 0.00896 0.34393 0.0
H535 H 0.88046 1.00051 0.34905 0.0
H536 H 0.90802 0.99633 0.37083 0.0
H537 H 0.94568 0.99242 0.31855 0.0
H538 H 0.91806 0.99719 0.29654 0.0
H539 H 0.96329 0.01578 0.35018 0.0
H540 H 0.93042 0.94824 0.33965 0.0
H541 H 0.90264 0.92196 0.3379 0.0
H542 H 0.89272 0.93832 0.40201 0.0
H543 H 0.92027 0.96493 0.4041 0.0
C544 C 0.02294 0.98141 0.41462 0.0
C545 C 0.01806 0.9856 0.43533 0.0
C546 C 0.00902 0.98225 0.39937 0.0
C547 C 0.98999 0.98712 0.40465 0.0
C548 C 0.98505 0.99106 0.42534 0.0
C549 C 0.99902 0.99048 0.44054 0.0
C550 C 0.97513 0.98827 0.3887 0.0
C551 C 0.95868 0.97419 0.38762 0.0
C552 C 0.97706 0.00309 0.37472 0.0
C553 C 0.99408 0.01847 0.3753 0.0
C554 C 0.99885 0.03226 0.39317 0.0
C555 C 0.01511 0.04646 0.39367 0.0
C556 C 0.02661 0.04715 0.37634 0.0
C557 C 0.02183 0.03368 0.35844 0.0
C558 C 0.00561 0.01941 0.35787 0.0
C559 C 0.89458 0.99875 0.3421 0.0
C560 C 0.89701 0.99902 0.321 0.0
C561 C 0.91034 0.99626 0.3546 0.0
C562 C 0.92886 0.9936 0.34628 0.0
C563 C 0.93149 0.9943 0.32528 0.0
C564 C 0.91569 0.997 0.31273 0.0
C565 C 0.94536 0.99025 0.35973 0.0
C566 C 0.96217 0.00385 0.36035 0.0
C567 C 0.9439 0.97476 0.37312 0.0
C568 C 0.92734 0.9587 0.37199 0.0
C569 C 0.92223 0.94634 0.35335 0.0
C570 C 0.90654 0.93137 0.3523 0.0
C571 C 0.8959 0.9285 0.36983 0.0
C572 C 0.90097 0.94057 0.38845 0.0
C573 C 0.91664 0.95558 0.38958 0.0
H574 H 0.88375 0.9169 0.36899 0.0
H575 H 0.03919 0.05816 0.37676 0.0
H576 H 0.22056 0.27285 0.68254 0.0
H577 H 0.23459 0.25809 0.65006 0.0
H578 H 0.25221 0.20556 0.67829 0.0
H579 H 0.23868 0.22073 0.71083 0.0
H580 H 0.27924 0.21697 0.65177 0.0
H581 H 0.20978 0.20269 0.6518 0.0
H582 H 0.17577 0.21215 0.65511 0.0
H583 H 0.18308 0.24844 0.60526 0.0
H584 H 0.21727 0.23947 0.60188 0.0
H585 H 0.27965 0.13449 0.56982 0.0
H586 H 0.2732 0.15783 0.60089 0.0
H587 H 0.25995 0.20625 0.5648 0.0
H588 H 0.26633 0.1829 0.53351 0.0
H589 H 0.23244 0.20069 0.59383 0.0
H590 H 0.30163 0.21099 0.59175 0.0
H591 H 0.3353 0.20031 0.58886 0.0
H592 H 0.32812 0.16998 0.64274 0.0
H593 H 0.29431 0.18021 0.6458 0.0
C594 C 0.2279 0.25845 0.68184 0.0
C595 C 0.22851 0.24778 0.69899 0.0
C596 C 0.23574 0.24993 0.6633 0.0
C597 C 0.24416 0.23052 0.66165 0.0
C598 C 0.24574 0.2205 0.67916 0.0
C599 C 0.23795 0.22906 0.69767 0.0
C600 C 0.25001 0.21982 0.6415 0.0
C601 C 0.269 0.21332 0.63912 0.0
C602 C 0.23674 0.21538 0.62486 0.0
C603 C 0.21614 0.22061 0.62673 0.0
C604 C 0.20418 0.21282 0.64164 0.0
C605 C 0.18486 0.21807 0.64352 0.0
C606 C 0.17728 0.23093 0.63044 0.0
C607 C 0.18899 0.23852 0.61541 0.0
C608 C 0.20833 0.23335 0.6135 0.0
C609 C 0.27548 0.15014 0.56845 0.0
C610 C 0.2735 0.15682 0.54916 0.0
C611 C 0.27189 0.16351 0.58626 0.0
C612 C 0.26627 0.18386 0.58519 0.0
C613 C 0.26433 0.19063 0.56597 0.0
C614 C 0.26803 0.17728 0.54812 0.0
C615 C 0.26162 0.19764 0.60415 0.0
C616 C 0.24281 0.20463 0.60633 0.0
C617 C 0.27501 0.20236 0.62065 0.0
C618 C 0.29537 0.19624 0.61891 0.0
C619 C 0.30718 0.2019 0.6029 0.0
C620 C 0.3263 0.19596 0.60124 0.0
C621 C 0.33383 0.18444 0.61558 0.0
C622 C 0.32227 0.17889 0.63163 0.0
C623 C 0.30313 0.18478 0.63335 0.0
H624 H 0.34864 0.17985 0.61427 0.0
H625 H 0.16232 0.23498 0.63191 0.0
H626 H 0.51057 0.55234 0.60343 0.0
H627 H 0.48694 0.54801 0.63052 0.0
H628 H 0.47542 0.48308 0.60568 0.0
H629 H 0.49838 0.48781 0.57803 0.0
H630 H 0.44264 0.49931 0.616 0.0
H631 H 0.50419 0.49893 0.64945 0.0
H632 H 0.53742 0.51221 0.66036 0.0
H633 H 0.51517 0.56755 0.69287 0.0
H634 H 0.48181 0.55473 0.68191 0.0
H635 H 0.39755 0.46431 0.7036 0.0
H636 H 0.41999 0.47028 0.67601 0.0
H637 H 0.42415 0.53651 0.69732 0.0
H638 H 0.40159 0.53071 0.72499 0.0
H639 H 0.46027 0.52029 0.68902 0.0
H640 H 0.39819 0.51919 0.65563 0.0
H641 H 0.36527 0.50456 0.64499 0.0
H642 H 0.38919 0.45005 0.61274 0.0
H643 H 0.42226 0.46423 0.62343 0.0
C644 C 0.50286 0.53722 0.60375 0.0
C645 C 0.5063 0.52038 0.58875 0.0
C646 C 0.48951 0.53467 0.61932 0.0
C647 C 0.47955 0.51511 0.62039 0.0
C648 C 0.48292 0.4983 0.60527 0.0
C649 C 0.49614 0.50093 0.5896 0.0
C650 C 0.46552 0.5122 0.63712 0.0
C651 C 0.44662 0.50366 0.63197 0.0
C652 C 0.47049 0.51824 0.65801 0.0
C653 C 0.49052 0.52596 0.66468 0.0
C654 C 0.5064 0.514 0.65879 0.0
C655 C 0.52525 0.52144 0.66501 0.0
C656 C 0.52841 0.54074 0.67726 0.0
C657 C 0.5127 0.55262 0.68336 0.0
C658 C 0.49382 0.54527 0.67716 0.0
C659 C 0.40316 0.48018 0.70241 0.0
C660 C 0.39772 0.49704 0.71651 0.0
C661 C 0.41596 0.48356 0.68657 0.0
C662 C 0.42367 0.50386 0.68452 0.0
C663 C 0.41836 0.52073 0.6986 0.0
C664 C 0.4054 0.51738 0.71435 0.0
C665 C 0.4375 0.50737 0.66784 0.0
C666 C 0.45634 0.51601 0.67303 0.0
C667 C 0.43255 0.50121 0.64701 0.0
C668 C 0.41269 0.49269 0.6405 0.0
C669 C 0.39642 0.50401 0.64641 0.0
C670 C 0.37774 0.49581 0.64034 0.0
C671 C 0.37513 0.47637 0.62824 0.0
C672 C 0.39122 0.4651 0.62214 0.0
C673 C 0.40994 0.47322 0.62818 0.0
H674 H 0.36066 0.47005 0.62356 0.0
H675 H 0.54302 0.54646 0.68206 0.0
H676 H 0.74891 0.2734 0.72774 0.0
H677 H 0.74272 0.29603 0.70153 0.0
H678 H 0.79511 0.27733 0.67064 0.0
H679 H 0.80107 0.2546 0.69667 0.0
H680 H 0.79098 0.31948 0.67201 0.0
H681 H 0.7511 0.25461 0.65518 0.0
H682 H 0.72592 0.2277 0.66244 0.0
H683 H 0.68367 0.27404 0.67017 0.0
H684 H 0.70871 0.30131 0.6633 0.0
H685 H 0.78448 0.32757 0.56925 0.0
H686 H 0.78512 0.31648 0.60281 0.0
H687 H 0.73025 0.34315 0.61686 0.0
H688 H 0.7293 0.35433 0.58256 0.0
H689 H 0.73175 0.30348 0.62851 0.0
H690 H 0.77073 0.36731 0.63962 0.0
H691 H 0.79605 0.394 0.63223 0.0
H692 H 0.83985 0.35023 0.63548 0.0
H693 H 0.81479 0.32315 0.64258 0.0
C694 C 0.75909 0.27428 0.71536 0.0
C695 C 0.77543 0.26229 0.71412 0.0
C696 C 0.75557 0.28717 0.70044 0.0
C697 C 0.76837 0.28824 0.68401 0.0
C698 C 0.78506 0.27681 0.68319 0.0
C699 C 0.78852 0.26389 0.69806 0.0
C700 C 0.76412 0.30051 0.66714 0.0
C701 C 0.77805 0.31597 0.66248 0.0
C702 C 0.74691 0.29647 0.65513 0.0
C703 C 0.73182 0.28003 0.65897 0.0
C704 C 0.73647 0.25909 0.65858 0.0
C705 C 0.72223 0.24377 0.66261 0.0
C706 C 0.70322 0.24917 0.66682 0.0
C707 C 0.69841 0.26989 0.66695 0.0
C708 C 0.71262 0.28528 0.66299 0.0
C709 C 0.77247 0.33126 0.57936 0.0
C710 C 0.75682 0.34195 0.57311 0.0
C711 C 0.77296 0.32495 0.5987 0.0
C712 C 0.75793 0.32927 0.61254 0.0
C713 C 0.7421 0.3398 0.60646 0.0
C714 C 0.7416 0.34622 0.58691 0.0
C715 C 0.75893 0.32198 0.63298 0.0
C716 C 0.74445 0.30741 0.63832 0.0
C717 C 0.77563 0.32687 0.64568 0.0
C718 C 0.79083 0.34316 0.64157 0.0
C719 C 0.78575 0.36333 0.63864 0.0
C720 C 0.80006 0.37853 0.63452 0.0
C721 C 0.81954 0.37381 0.63337 0.0
C722 C 0.82476 0.35387 0.63638 0.0
C723 C 0.8105 0.3386 0.6405 0.0
H724 H 0.8306 0.3856 0.63016 0.0
H725 H 0.69221 0.23729 0.66994 0.0
H726 H 0.51263 0.98757 0.57665 0.0
H727 H 0.53744 0.98852 0.60342 0.0
H728 H 0.51062 0.93146 0.62139 0.0
H729 H 0.48546 0.93101 0.59492 0.0
H730 H 0.51519 0.96089 0.65319 0.0
H731 H 0.55607 0.93344 0.59909 0.0
H732 H 0.57205 0.93197 0.56561 0.0
H733 H 0.60151 0.99222 0.58402 0.0
H734 H 0.58547 0.99422 0.61752 0.0
H735 H 0.58294 0.9441 0.72651 0.0
H736 H 0.5655 0.94027 0.69409 0.0
H737 H 0.58847 0.00163 0.68342 0.0
H738 H 0.60626 0.00567 0.71617 0.0
H739 H 0.58688 0.97068 0.6476 0.0
H740 H 0.54512 0.99838 0.70114 0.0
H741 H 0.52922 0.99972 0.73466 0.0
H742 H 0.50127 0.93858 0.71684 0.0
H743 H 0.51726 0.93674 0.6833 0.0
C744 C 0.51234 0.97507 0.58613 0.0
C745 C 0.49719 0.95929 0.58395 0.0
C746 C 0.52654 0.97553 0.60132 0.0
C747 C 0.52594 0.96004 0.61444 0.0
C748 C 0.51137 0.94359 0.61146 0.0
C749 C 0.49713 0.9432 0.59628 0.0
C750 C 0.53922 0.96219 0.63246 0.0
C751 C 0.53088 0.96265 0.65188 0.0
C752 C 0.55967 0.96526 0.63087 0.0
C753 C 0.56942 0.96406 0.61076 0.0
C754 C 0.56583 0.94646 0.59595 0.0
C755 C 0.57492 0.94552 0.57697 0.0
C756 C 0.58775 0.96201 0.57267 0.0
C757 C 0.59155 0.97947 0.58736 0.0
C758 C 0.58248 0.9805 0.60636 0.0
C759 C 0.5845 0.95679 0.71728 0.0
C760 C 0.59583 0.97535 0.72412 0.0
C761 C 0.5745 0.95452 0.69869 0.0
C762 C 0.57547 0.97076 0.6865 0.0
C763 C 0.58751 0.98893 0.69267 0.0
C764 C 0.5976 0.99124 0.71139 0.0
C765 C 0.56277 0.96908 0.66812 0.0
C766 C 0.57119 0.96883 0.64877 0.0
C767 C 0.54233 0.9662 0.66969 0.0
C768 C 0.53253 0.96735 0.68977 0.0
C769 C 0.5357 0.98515 0.70442 0.0
C770 C 0.52666 0.98601 0.72342 0.0
C771 C 0.51428 0.96922 0.7279 0.0
C772 C 0.51088 0.95156 0.71336 0.0
C773 C 0.51992 0.95061 0.69434 0.0
H774 H 0.5073 0.96991 0.74262 0.0
H775 H 0.59478 0.96125 0.55797 0.0
H776 H 0.78736 0.22062 0.78872 0.0
H777 H 0.81279 0.21151 0.81152 0.0
H778 H 0.85378 0.21047 0.7621 0.0
H779 H 0.82814 0.21846 0.73927 0.0
H780 H 0.86139 0.18132 0.784 0.0
H781 H 0.84889 0.25462 0.79887 0.0
H782 H 0.82864 0.28432 0.80885 0.0
H783 H 0.81623 0.26173 0.86611 0.0
H784 H 0.83623 0.23171 0.85633 0.0
H785 H 0.95159 0.2244 0.82574 0.0
H786 H 0.91985 0.21595 0.80919 0.0
H787 H 0.89541 0.20176 0.86625 0.0
H788 H 0.92763 0.20971 0.88288 0.0
H789 H 0.87593 0.2326 0.84577 0.0
H790 H 0.89582 0.1629 0.83165 0.0
H791 H 0.91817 0.1355 0.82032 0.0
H792 H 0.91893 0.1538 0.76009 0.0
H793 H 0.89681 0.18152 0.77113 0.0
C794 C 0.80171 0.21795 0.78272 0.0
C795 C 0.80594 0.22056 0.76238 0.0
C796 C 0.81628 0.21294 0.79576 0.0
C797 C 0.8354 0.21075 0.7887 0.0
C798 C 0.83925 0.21218 0.76802 0.0
C799 C 0.82466 0.21695 0.75501 0.0
C800 C 0.85179 0.20845 0.80289 0.0
C801 C 0.86453 0.19253 0.79751 0.0
C802 C 0.85578 0.22275 0.82084 0.0
C803 C 0.84383 0.2408 0.82677 0.0
C804 C 0.84173 0.25591 0.81353 0.0
C805 C 0.83032 0.27281 0.81915 0.0
C806 C 0.8211 0.27488 0.83808 0.0
C807 C 0.82334 0.26008 0.85144 0.0
C808 C 0.8347 0.24312 0.84586 0.0
C809 C 0.93956 0.21897 0.83466 0.0
C810 C 0.94205 0.21758 0.85554 0.0
C811 C 0.92143 0.21414 0.82519 0.0
C812 C 0.90526 0.20818 0.83645 0.0
C813 C 0.90774 0.20624 0.85726 0.0
C814 C 0.92612 0.21063 0.8667 0.0
C815 C 0.88571 0.20584 0.82654 0.0
C816 C 0.87246 0.221 0.83262 0.0
C817 C 0.88146 0.19111 0.80903 0.0
C818 C 0.89471 0.17438 0.80226 0.0
C819 C 0.90086 0.16119 0.81602 0.0
C820 C 0.91347 0.14558 0.80965 0.0
C821 C 0.91999 0.14293 0.7895 0.0
C822 C 0.91387 0.15586 0.77569 0.0
C823 C 0.90126 0.17151 0.78199 0.0
H824 H 0.92975 0.13083 0.7846 0.0
H825 H 0.81228 0.28798 0.84241 0.0
H826 H 0.50649 0.94105 0.53716 0.0
H827 H 0.51572 0.9084 0.51699 0.0
H828 H 0.46545 0.87521 0.53918 0.0
H829 H 0.45623 0.90795 0.55908 0.0
H830 H 0.50047 0.85125 0.53394 0.0
H831 H 0.45858 0.8917 0.49637 0.0
H832 H 0.44963 0.92366 0.48274 0.0
H833 H 0.50455 0.92758 0.45245 0.0
H834 H 0.51375 0.89555 0.46579 0.0
H835 H 0.48359 0.76642 0.45246 0.0
H836 H 0.48273 0.79507 0.4808 0.0
H837 H 0.52041 0.83422 0.44725 0.0
H838 H 0.52023 0.8062 0.41867 0.0
H839 H 0.49306 0.8553 0.45987 0.0
H840 H 0.53414 0.81293 0.49312 0.0
H841 H 0.54404 0.78102 0.50606 0.0
H842 H 0.49404 0.78097 0.54474 0.0
H843 H 0.48369 0.81274 0.53183 0.0
C844 C 0.4979 0.92658 0.53822 0.0
C845 C 0.48076 0.92678 0.54959 0.0
C846 C 0.50306 0.90802 0.52667 0.0
C847 C 0.49117 0.88943 0.52649 0.0
C848 C 0.47486 0.88933 0.53917 0.0
C849 C 0.46961 0.90794 0.55052 0.0
C850 C 0.49424 0.87096 0.51121 0.0
C851 C 0.4988 0.85199 0.51772 0.0
C852 C 0.49237 0.87209 0.49008 0.0
C853 C 0.48691 0.8914 0.48222 0.0
C854 C 0.46878 0.89947 0.4869 0.0
C855 C 0.46364 0.91755 0.47918 0.0
C856 C 0.47656 0.92771 0.46685 0.0
C857 C 0.49458 0.91973 0.46206 0.0
C858 C 0.49973 0.90158 0.46963 0.0
C859 C 0.49186 0.78108 0.45136 0.0
C860 C 0.50184 0.78419 0.43336 0.0
C861 C 0.49148 0.79744 0.46759 0.0
C862 C 0.50158 0.81694 0.46631 0.0
C863 C 0.51233 0.81951 0.44865 0.0
C864 C 0.51227 0.80345 0.43231 0.0
C865 C 0.49974 0.83529 0.48236 0.0
C866 C 0.49511 0.85435 0.47601 0.0
C867 C 0.50187 0.83421 0.50356 0.0
C868 C 0.50804 0.8151 0.51135 0.0
C869 C 0.52517 0.80602 0.50427 0.0
C870 C 0.53088 0.78798 0.51162 0.0
C871 C 0.51965 0.77894 0.52617 0.0
C872 C 0.50271 0.78797 0.53345 0.0
C873 C 0.49693 0.80601 0.52613 0.0
H874 H 0.5241 0.76498 0.53185 0.0
H875 H 0.47257 0.94173 0.46093 0.0
H876 H 0.19263 0.22251 0.76322 0.0
H877 H 0.16591 0.21415 0.78614 0.0
H878 H 0.13811 0.26914 0.77355 0.0
H879 H 0.1646 0.27721 0.75056 0.0
H880 H 0.13983 0.26625 0.81442 0.0
H881 H 0.12202 0.22093 0.75173 0.0
H882 H 0.12738 0.19284 0.72359 0.0
H883 H 0.13258 0.14912 0.76673 0.0
H884 H 0.12754 0.17705 0.79517 0.0
H885 H 0.04184 0.25917 0.8328 0.0
H886 H 0.07301 0.25734 0.816 0.0
H887 H 0.08598 0.205 0.84694 0.0
H888 H 0.05433 0.20676 0.86427 0.0
H889 H 0.09568 0.20183 0.80252 0.0
H890 H 0.10839 0.24666 0.86496 0.0
H891 H 0.10216 0.27503 0.89251 0.0
H892 H 0.10639 0.3198 0.84973 0.0
H893 H 0.11234 0.29165 0.82185 0.0
C894 C 0.18067 0.23261 0.76529 0.0
C895 C 0.18061 0.25053 0.75529 0.0
C896 C 0.16548 0.22789 0.77836 0.0
C897 C 0.15002 0.24104 0.78157 0.0
C898 C 0.14995 0.25886 0.77142 0.0
C899 C 0.16504 0.26349 0.75834 0.0
C900 C 0.1339 0.23665 0.7956 0.0
C901 C 0.13019 0.25216 0.81182 0.0
C902 C 0.12173 0.21792 0.79266 0.0
C903 C 0.12466 0.20113 0.77558 0.0
C904 C 0.12448 0.20537 0.75523 0.0
C905 C 0.12743 0.18947 0.73922 0.0
C906 C 0.13038 0.16922 0.74338 0.0
C907 C 0.13034 0.16482 0.76354 0.0
C908 C 0.12743 0.18068 0.7796 0.0
C909 C 0.05116 0.24714 0.8361 0.0
C910 C 0.04558 0.2332 0.85008 0.0
C911 C 0.06903 0.24614 0.82642 0.0
C912 C 0.08188 0.23122 0.8304 0.0
C913 C 0.07624 0.21669 0.84375 0.0
C914 C 0.05821 0.21774 0.85364 0.0
C915 C 0.10132 0.23176 0.82085 0.0
C916 C 0.10564 0.21563 0.80547 0.0
C917 C 0.11413 0.24993 0.82453 0.0
C918 C 0.11073 0.267 0.84128 0.0
C919 C 0.10786 0.26253 0.86139 0.0
C920 C 0.1044 0.27858 0.87707 0.0
C921 C 0.10386 0.2992 0.87287 0.0
C922 C 0.10682 0.30382 0.85297 0.0
C923 C 0.11027 0.28782 0.83722 0.0
H924 H 0.10117 0.3116 0.88503 0.0
H925 H 0.13266 0.15693 0.73097 0.0
H926 H 0.54604 0.57646 0.55163 0.0
H927 H 0.54441 0.6002 0.52566 0.0
H928 H 0.53207 0.54721 0.47946 0.0
H929 H 0.53356 0.52344 0.50572 0.0
H930 H 0.55697 0.58132 0.46612 0.0
H931 H 0.49391 0.57024 0.49674 0.0
H932 H 0.47107 0.56849 0.5253 0.0
H933 H 0.48852 0.63214 0.54913 0.0
H934 H 0.51134 0.6343 0.52058 0.0
H935 H 0.51346 0.63852 0.39448 0.0
H936 H 0.52089 0.61301 0.41718 0.0
H937 H 0.52155 0.66149 0.46885 0.0
H938 H 0.51357 0.68694 0.44629 0.0
H939 H 0.50287 0.6283 0.47862 0.0
H940 H 0.5642 0.6407 0.44682 0.0
H941 H 0.58679 0.64304 0.41817 0.0
H942 H 0.57402 0.57774 0.39706 0.0
H943 H 0.55114 0.57508 0.42545 0.0
C944 C 0.54364 0.56992 0.5358 0.0
C945 C 0.53999 0.54821 0.53058 0.0
C946 C 0.54254 0.58344 0.52101 0.0
C947 C 0.5378 0.57552 0.50066 0.0
C948 C 0.53571 0.55368 0.49508 0.0
C949 C 0.53673 0.5401 0.50999 0.0
C950 C 0.5333 0.59016 0.48588 0.0
C951 C 0.545 0.59142 0.46866 0.0
C952 C 0.51795 0.60366 0.4894 0.0
C953 C 0.50441 0.60236 0.50666 0.0
C954 C 0.49292 0.58382 0.50813 0.0
C955 C 0.47991 0.5828 0.52424 0.0
C956 C 0.4784 0.60017 0.53906 0.0
C957 C 0.48974 0.61868 0.53767 0.0
C958 C 0.50264 0.61985 0.52147 0.0
C959 C 0.51519 0.64378 0.41068 0.0
C960 C 0.51291 0.66483 0.41853 0.0
C961 C 0.51959 0.62916 0.42366 0.0
C962 C 0.52212 0.63529 0.44477 0.0
C963 C 0.51973 0.65629 0.45264 0.0
C964 C 0.51516 0.67087 0.4397 0.0
C965 C 0.52666 0.61979 0.45879 0.0
C966 C 0.5149 0.61829 0.47595 0.0
C967 C 0.54204 0.60621 0.4552 0.0
C968 C 0.5558 0.60775 0.43814 0.0
C969 C 0.56609 0.62688 0.43598 0.0
C970 C 0.57897 0.62826 0.4198 0.0
C971 C 0.5818 0.61056 0.40577 0.0
C972 C 0.57179 0.59144 0.40792 0.0
C973 C 0.55888 0.58999 0.42406 0.0
H974 H 0.59177 0.61166 0.39326 0.0
H975 H 0.4684 0.59929 0.55159 0.0
H976 H 0.86972 0.81831 0.82955 0.0
H977 H 0.89597 0.80781 0.80592 0.0
H978 H 0.85364 0.79079 0.75736 0.0
H979 H 0.82764 0.80074 0.78115 0.0
H980 H 0.88293 0.76604 0.75173 0.0
H981 H 0.87571 0.84063 0.76672 0.0
H982 H 0.87469 0.87406 0.78947 0.0
H983 H 0.93319 0.86857 0.80948 0.0
H984 H 0.93444 0.83493 0.78702 0.0
H985 H 0.92378 0.79639 0.66141 0.0
H986 H 0.90523 0.7936 0.69251 0.0
H987 H 0.95836 0.80086 0.72797 0.0
H988 H 0.97718 0.80342 0.69674 0.0
H989 H 0.92864 0.82712 0.74391 0.0
H990 H 0.93659 0.75477 0.72175 0.0
H991 H 0.93603 0.72259 0.69705 0.0
H992 H 0.87456 0.72506 0.68835 0.0
H993 H 0.87478 0.75745 0.71278 0.0
C994 C 0.86612 0.81153 0.81402 0.0
C995 C 0.84687 0.81046 0.80696 0.0
C996 C 0.88105 0.80574 0.80049 0.0
C997 C 0.87682 0.799 0.77971 0.0
C998 C 0.85732 0.79603 0.77324 0.0
C999 C 0.84247 0.80171 0.78677 0.0
C1000 C 0.89245 0.79761 0.76416 0.0
C1001 C 0.89296 0.77937 0.75005 0.0
C1002 C 0.90575 0.8149 0.76207 0.0
C1003 C 0.90509 0.83517 0.77542 0.0
C1004 C 0.88831 0.8465 0.77608 0.0
C1005 C 0.88769 0.86547 0.78891 0.0
C1006 C 0.90384 0.8734 0.80097 0.0
C1007 C 0.92067 0.86238 0.80017 0.0
C1008 C 0.92135 0.84337 0.7874 0.0
C1009 C 0.93158 0.79738 0.6758 0.0
C1010 C 0.95198 0.80017 0.67659 0.0
C1011 C 0.92094 0.79564 0.69354 0.0
C1012 C 0.93043 0.79681 0.7125 0.0
C1013 C 0.95078 0.7998 0.71345 0.0
C1014 C 0.96149 0.80125 0.69561 0.0
C1015 C 0.91885 0.79572 0.7313 0.0
C1016 C 0.91901 0.81357 0.74592 0.0
C1017 C 0.90597 0.7782 0.73364 0.0
C1018 C 0.90573 0.75863 0.71902 0.0
C1019 C 0.92297 0.74855 0.71446 0.0
C1020 C 0.92271 0.73025 0.70052 0.0
C1021 C 0.90528 0.7218 0.69111 0.0
C1022 C 0.88805 0.73162 0.69565 0.0
C1023 C 0.88823 0.74994 0.70957 0.0
H1024 H 0.90511 0.70763 0.68032 0.0
H1025 H 0.90334 0.88809 0.81089 0.0
H1026 H 0.07623 0.95516 0.48812 0.0
H1027 H 0.07771 0.93511 0.51723 0.0
H1028 H 0.02587 0.96261 0.54171 0.0
H1029 H 0.02505 0.98319 0.51318 0.0
H1030 H 0.04785 0.95548 0.5721 0.0
H1031 H 0.02434 0.91606 0.50846 0.0
H1032 H 0.02674 0.90175 0.47212 0.0
H1033 H 0.07614 0.86863 0.48578 0.0
H1034 H 0.0742 0.88303 0.5222 0.0
H1035 H 0.98777 0.87441 0.60728 0.0
H1036 H 0.0041 0.90208 0.59031 0.0
H1037 H 0.0568 0.86943 0.58722 0.0
H1038 H 0.04062 0.84179 0.60466 0.0
H1039 H 0.04231 0.879 0.54889 0.0
H1040 H 0.05894 0.91379 0.61542 0.0
H1041 H 0.053 0.92772 0.65127 0.0
H1042 H 0.01245 0.96897 0.63176 0.0
H1043 H 0.01791 0.95507 0.59578 0.0
C1044 C 0.06564 0.9574 0.50017 0.0
C1045 C 0.05038 0.97041 0.49843 0.0
C1046 C 0.06635 0.94584 0.51667 0.0
C1047 C 0.05161 0.94694 0.53143 0.0
C1048 C 0.03736 0.96136 0.53052 0.0
C1049 C 0.03679 0.97302 0.51419 0.0
C1050 C 0.04943 0.9315 0.5463 0.0
C1051 C 0.04671 0.93876 0.56704 0.0
C1052 C 0.04818 0.90962 0.53981 0.0
C1053 C 0.04928 0.90083 0.51798 0.0
C1054 C 0.03579 0.90583 0.50368 0.0
C1055 C 0.03706 0.8977 0.48308 0.0
C1056 C 0.05162 0.88433 0.47663 0.0
C1057 C 0.06491 0.87903 0.49079 0.0
C1058 C 0.06373 0.88718 0.51141 0.0
C1059 C 0.00296 0.87333 0.60339 0.0
C1060 C 0.0129 0.85591 0.60725 0.0
C1061 C 0.01229 0.8892 0.59377 0.0
C1062 C 0.03166 0.88782 0.58756 0.0
C1063 C 0.04187 0.87081 0.59199 0.0
C1064 C 0.03263 0.85509 0.60201 0.0
C1065 C 0.04032 0.90301 0.57456 0.0
C1066 C 0.04408 0.89569 0.5541 0.0
C1067 C 0.04206 0.9248 0.58125 0.0
C1068 C 0.03877 0.93329 0.60288 0.0
C1069 C 0.04864 0.92572 0.61876 0.0
C1070 C 0.04538 0.93363 0.63912 0.0
C1071 C 0.03234 0.9492 0.64379 0.0
C1072 C 0.02255 0.95691 0.62812 0.0
C1073 C 0.02575 0.94904 0.60773 0.0
H1074 H 0.02983 0.9553 0.65956 0.0
H1075 H 0.05258 0.87804 0.46067 0.0
H1076 H 0.14968 0.71884 0.76941 0.0
H1077 H 0.12614 0.72842 0.74503 0.0
H1078 H 0.17298 0.74288 0.70478 0.0
H1079 H 0.19657 0.73396 0.7297 0.0
H1080 H 0.14835 0.77297 0.70847 0.0
H1081 H 0.14224 0.69868 0.69341 0.0
H1082 H 0.13799 0.66216 0.7007 0.0
H1083 H 0.08162 0.67364 0.72556 0.0
H1084 H 0.08564 0.71034 0.7187 0.0
H1085 H 0.07992 0.78544 0.62961 0.0
H1086 H 0.10638 0.77256 0.64828 0.0
H1087 H 0.06678 0.76022 0.69642 0.0
H1088 H 0.0403 0.77297 0.67793 0.0
H1089 H 0.08972 0.72741 0.68501 0.0
H1090 H 0.09779 0.80267 0.70267 0.0
H1091 H 0.10239 0.83912 0.69519 0.0
H1092 H 0.15568 0.82505 0.66441 0.0
H1093 H 0.15126 0.78842 0.67148 0.0
C1094 C 0.15485 0.72405 0.75532 0.0
C1095 C 0.17482 0.72574 0.75133 0.0
C1096 C 0.14145 0.72933 0.74133 0.0
C1097 C 0.14777 0.73612 0.72293 0.0
C1098 C 0.16777 0.7376 0.71883 0.0
C1099 C 0.18119 0.73239 0.73293 0.0
C1100 C 0.13347 0.74253 0.70851 0.0
C1101 C 0.13574 0.76283 0.703 0.0
C1102 C 0.11685 0.72944 0.70161 0.0
C1103 C 0.11431 0.70733 0.70567 0.0
C1104 C 0.12899 0.69347 0.70057 0.0
C1105 C 0.12662 0.67273 0.7046 0.0
C1106 C 0.10956 0.6656 0.71362 0.0
C1107 C 0.09482 0.67919 0.71858 0.0
C1108 C 0.09714 0.69996 0.7146 0.0
C1109 C 0.07685 0.78001 0.64419 0.0
C1110 C 0.05801 0.78029 0.65231 0.0
C1111 C 0.09199 0.77269 0.65484 0.0
C1112 C 0.08854 0.76552 0.67376 0.0
C1113 C 0.06974 0.76565 0.68182 0.0
C1114 C 0.05464 0.77304 0.67126 0.0
C1115 C 0.10446 0.75792 0.68534 0.0
C1116 C 0.10248 0.73739 0.69028 0.0
C1117 C 0.12139 0.77074 0.69161 0.0
C1118 C 0.12407 0.79276 0.68739 0.0
C1119 C 0.1104 0.80731 0.69415 0.0
C1120 C 0.11299 0.82801 0.69002 0.0
C1121 C 0.12929 0.83438 0.67927 0.0
C1122 C 0.14305 0.82008 0.6727 0.0
C1123 C 0.14051 0.79935 0.67677 0.0
H1124 H 0.13127 0.85041 0.67609 0.0
H1125 H 0.10775 0.64953 0.71673 0.0
H1126 H 0.94832 0.61216 0.46145 0.0
H1127 H 0.96032 0.64574 0.48062 0.0
H1128 H 0.98792 0.61258 0.52432 0.0
H1129 H 0.97498 0.57919 0.5055 0.0
H1130 H 0.96748 0.6397 0.5436 0.0
H1131 H 0.01406 0.64315 0.491 0.0
H1132 H 0.02615 0.64155 0.45575 0.0
H1133 H 0.99268 0.69317 0.44582 0.0
H1134 H 0.98012 0.69488 0.48091 0.0
H1135 H 0.00579 0.73458 0.60092 0.0
H1136 H 0.0056 0.70164 0.5778 0.0
H1137 H 0.966 0.72548 0.53729 0.0
H1138 H 0.96597 0.75839 0.56034 0.0
H1139 H 0.99652 0.70297 0.51688 0.0
H1140 H 0.94757 0.69567 0.56876 0.0
H1141 H 0.93616 0.69687 0.60426 0.0
H1142 H 0.97639 0.65153 0.61552 0.0
H1143 H 0.98822 0.65029 0.58015 0.0
C1144 C 0.95746 0.61225 0.47481 0.0
C1145 C 0.96104 0.5934 0.48202 0.0
C1146 C 0.96435 0.63134 0.48575 0.0
C1147 C 0.9752 0.63177 0.50389 0.0
C1148 C 0.97961 0.61271 0.51041 0.0
C1149 C 0.97241 0.59369 0.49965 0.0
C1150 C 0.97995 0.65188 0.51724 0.0
C1151 C 0.97427 0.65335 0.53778 0.0
C1152 C 0.98842 0.66991 0.50967 0.0
C1153 C 0.99603 0.66904 0.48857 0.0
C1154 C 0.00916 0.65407 0.48126 0.0
C1155 C 0.01611 0.65315 0.46131 0.0
C1156 C 0.01016 0.66722 0.44855 0.0
C1157 C 0.99727 0.68227 0.45573 0.0
C1158 C 0.99024 0.68324 0.47566 0.0
C1159 C 0.99716 0.73289 0.58702 0.0
C1160 C 0.98574 0.74904 0.58256 0.0
C1161 C 0.99709 0.71408 0.57383 0.0
C1162 C 0.98573 0.71115 0.5559 0.0
C1163 C 0.9749 0.72749 0.55103 0.0
C1164 C 0.9748 0.74622 0.5643 0.0
C1165 C 0.98399 0.69055 0.54297 0.0
C1166 C 0.9901 0.68909 0.5226 0.0
C1167 C 0.97612 0.67242 0.55069 0.0
C1168 C 0.96894 0.67308 0.57191 0.0
C1169 C 0.9541 0.6861 0.57887 0.0
C1170 C 0.94753 0.68676 0.59895 0.0
C1171 C 0.95559 0.67434 0.61216 0.0
C1172 C 0.97019 0.66118 0.60529 0.0
C1173 C 0.97682 0.66048 0.58523 0.0
H1174 H 0.95049 0.67487 0.6277 0.0
H1175 H 0.01556 0.66649 0.4331 0.0
H1176 H 0.71661 0.81205 0.23579 0.0
H1177 H 0.73624 0.84435 0.23305 0.0
H1178 H 0.78762 0.8094 0.22526 0.0
H1179 H 0.76804 0.77742 0.2303 0.0
H1180 H 0.79643 0.84102 0.24986 0.0
H1181 H 0.76438 0.83416 0.18557 0.0
H1182 H 0.73686 0.8284 0.16122 0.0
H1183 H 0.7123 0.88407 0.19 0.0
H1184 H 0.73935 0.88992 0.21495 0.0
H1185 H 0.84803 0.93969 0.23911 0.0
H1186 H 0.83286 0.90471 0.2268 0.0
H1187 H 0.77864 0.92276 0.25393 0.0
H1188 H 0.79376 0.95735 0.26666 0.0
H1189 H 0.77571 0.89816 0.21298 0.0
H1190 H 0.80501 0.89903 0.28077 0.0
H1191 H 0.8328 0.90451 0.30488 0.0
H1192 H 0.86373 0.85927 0.26632 0.0
H1193 H 0.8362 0.85376 0.24183 0.0
C1194 C 0.73209 0.81132 0.2334 0.0
C1195 C 0.74082 0.79226 0.23321 0.0
C1196 C 0.74332 0.82976 0.23149 0.0
C1197 C 0.76349 0.82945 0.22849 0.0
C1198 C 0.77211 0.81016 0.22744 0.0
C1199 C 0.76089 0.79177 0.22997 0.0
C1200 C 0.77565 0.84949 0.22838 0.0
C1201 C 0.7921 0.85322 0.24129 0.0
C1202 C 0.7701 0.86572 0.21742 0.0
C1203 C 0.75391 0.86244 0.20221 0.0
C1204 C 0.75307 0.84514 0.1868 0.0
C1205 C 0.73755 0.84185 0.17287 0.0
C1206 C 0.72288 0.85587 0.17401 0.0
C1207 C 0.72369 0.87323 0.18911 0.0
C1208 C 0.73912 0.87654 0.20316 0.0
C1209 C 0.83278 0.93629 0.24208 0.0
C1210 C 0.82208 0.95117 0.25393 0.0
C1211 C 0.82417 0.91633 0.2351 0.0
C1212 C 0.80465 0.91118 0.23951 0.0
C1213 C 0.7937 0.92645 0.25031 0.0
C1214 C 0.80237 0.94616 0.25764 0.0
C1215 C 0.79592 0.88947 0.23465 0.0
C1216 C 0.78017 0.88556 0.22095 0.0
C1217 C 0.80223 0.87297 0.24459 0.0
C1218 C 0.81868 0.8762 0.25936 0.0
C1219 C 0.81782 0.8904 0.27735 0.0
C1220 C 0.8335 0.89348 0.29109 0.0
C1221 C 0.85005 0.8823 0.28709 0.0
C1222 C 0.85092 0.86796 0.26937 0.0
C1223 C 0.83529 0.86485 0.25556 0.0
H1224 H 0.86217 0.8847 0.29776 0.0
H1225 H 0.71088 0.85328 0.16319 0.0
H1226 H 0.70945 0.16995 0.27165 0.0
H1227 H 0.73343 0.14454 0.27597 0.0
H1228 H 0.77839 0.19472 0.28572 0.0
H1229 H 0.75424 0.22012 0.28062 0.0
H1230 H 0.79081 0.16297 0.26023 0.0
H1231 H 0.76156 0.17012 0.32525 0.0
H1232 H 0.73485 0.172 0.35005 0.0
H1233 H 0.71544 0.10831 0.32853 0.0
H1234 H 0.74183 0.10616 0.30332 0.0
H1235 H 0.82975 0.07135 0.31509 0.0
H1236 H 0.81357 0.10383 0.31524 0.0
H1237 H 0.80899 0.09275 0.24942 0.0
H1238 H 0.82626 0.06068 0.24926 0.0
H1239 H 0.77941 0.10878 0.30642 0.0
H1240 H 0.80233 0.13713 0.22922 0.0
H1241 H 0.83123 0.13809 0.2073 0.0
H1242 H 0.86819 0.1358 0.25922 0.0
H1243 H 0.83955 0.1351 0.2815 0.0
C1244 C 0.72445 0.17547 0.27478 0.0
C1245 C 0.73012 0.19685 0.27568 0.0
C1246 C 0.73813 0.16102 0.27737 0.0
C1247 C 0.75774 0.16769 0.28127 0.0
C1248 C 0.76336 0.18919 0.28268 0.0
C1249 C 0.74961 0.20368 0.27999 0.0
C1250 C 0.77226 0.152 0.28335 0.0
C1251 C 0.78842 0.15118 0.27041 0.0
C1252 C 0.76943 0.13693 0.29699 0.0
C1253 C 0.75362 0.13803 0.31228 0.0
C1254 C 0.75152 0.15655 0.3257 0.0
C1255 C 0.73644 0.15766 0.33984 0.0
C1256 C 0.72344 0.14029 0.34085 0.0
C1257 C 0.72552 0.12176 0.32773 0.0
C1258 C 0.74055 0.12058 0.31351 0.0
C1259 C 0.82562 0.07607 0.30062 0.0
C1260 C 0.82923 0.0635 0.28216 0.0
C1261 C 0.81629 0.09462 0.30071 0.0
C1262 C 0.80996 0.10089 0.28237 0.0
C1263 C 0.81401 0.08859 0.2638 0.0
C1264 C 0.82383 0.07019 0.26368 0.0
C1265 C 0.79788 0.11935 0.28296 0.0
C1266 C 0.78205 0.12065 0.29637 0.0
C1267 C 0.80143 0.13523 0.27023 0.0
C1268 C 0.81876 0.13587 0.25699 0.0
C1269 C 0.81663 0.13692 0.23597 0.0
C1270 C 0.83297 0.1374 0.22348 0.0
C1271 C 0.85153 0.13694 0.23185 0.0
C1272 C 0.8538 0.13608 0.25275 0.0
C1273 C 0.83752 0.13561 0.26531 0.0
H1274 H 0.86415 0.1373 0.22215 0.0
H1275 H 0.71177 0.14118 0.35181 0.0
H1276 H 0.42057 0.02628 0.99275 0.0
H1277 H 0.39279 0.00286 1.00021 0.0
H1278 H 0.36025 0.02218 0.95088 0.0
H1279 H 0.38834 0.04568 0.94339 0.0
H1280 H 0.33887 0.01958 0.98967 0.0
H1281 H 0.37626 0.97862 0.94051 0.0
H1282 H 0.40631 0.96482 0.92561 0.0
H1283 H 0.41609 0.93557 0.97917 0.0
H1284 H 0.38627 0.94954 0.99457 0.0
H1285 H 0.27006 0.93008 0.99767 0.0
H1286 H 0.29082 0.95869 0.98624 0.0
H1287 H 0.33864 0.94184 0.02161 0.0
H1288 H 0.31828 0.9131 0.03243 0.0
H1289 H 0.34932 0.9437 0.98384 0.0
H1290 H 0.31398 0.98758 0.03445 0.0
H1291 H 0.28434 0.00185 0.04997 0.0
H1292 H 0.27061 0.02544 0.99417 0.0
H1293 H 0.30008 0.01108 0.97824 0.0
C1294 C 0.40742 0.02554 0.98363 0.0
C1295 C 0.40642 0.0376 0.96754 0.0
C1296 C 0.39162 0.01224 0.98785 0.0
C1297 C 0.37451 0.01082 0.97608 0.0
C1298 C 0.37332 0.02316 0.96017 0.0
C1299 C 0.38929 0.03638 0.95581 0.0
C1300 C 0.35841 0.99559 0.98004 0.0
C1301 C 0.34093 0.00292 0.98807 0.0
C1302 C 0.36126 0.97394 0.97807 0.0
C1303 C 0.37909 0.96526 0.96876 0.0
C1304 C 0.38489 0.96938 0.94918 0.0
C1305 C 0.40188 0.96151 0.94064 0.0
C1306 C 0.41312 0.94935 0.95145 0.0
C1307 C 0.40737 0.945 0.97082 0.0
C1308 C 0.39042 0.95288 0.97946 0.0
C1309 C 0.28488 0.93286 0.00332 0.0
C1310 C 0.29264 0.91931 0.01579 0.0
C1311 C 0.29674 0.94916 0.99678 0.0
C1312 C 0.31636 0.95232 0.00295 0.0
C1313 C 0.32364 0.93957 0.01644 0.0
C1314 C 0.31197 0.9232 0.02269 0.0
C1315 C 0.32997 0.96768 0.99437 0.0
C1316 C 0.34704 0.96031 0.98527 0.0
C1317 C 0.32668 0.98923 0.99543 0.0
C1318 C 0.3091 0.99805 0.00508 0.0
C1319 C 0.30456 0.99568 0.02544 0.0
C1320 C 0.28781 0.00381 0.03432 0.0
C1321 C 0.27556 0.01448 0.02304 0.0
C1322 C 0.28009 0.01713 0.00288 0.0
C1323 C 0.29682 0.00902 0.99393 0.0
H1324 H 0.26259 0.02075 0.02993 0.0
H1325 H 0.42627 0.94327 0.9448 0.0
H1326 H 0.30464 0.37972 0.35286 0.0
H1327 H 0.27925 0.40375 0.34794 0.0
H1328 H 0.266 0.36935 0.28843 0.0
H1329 H 0.29146 0.34562 0.29343 0.0
H1330 H 0.26421 0.41065 0.28747 0.0
H1331 H 0.24007 0.35932 0.32965 0.0
H1332 H 0.24069 0.34006 0.35949 0.0
H1333 H 0.23616 0.39748 0.39967 0.0
H1334 H 0.23589 0.41715 0.37004 0.0
H1335 H 0.15398 0.42149 0.30173 0.0
H1336 H 0.18401 0.40561 0.3083 0.0
H1337 H 0.21679 0.46374 0.30228 0.0
H1338 H 0.18666 0.47975 0.29522 0.0
H1339 H 0.21041 0.41336 0.33737 0.0
H1340 H 0.26137 0.45198 0.28191 0.0
H1341 H 0.25961 0.46763 0.24985 0.0
H1342 H 0.20734 0.42949 0.23252 0.0
H1343 H 0.20893 0.41345 0.26434 0.0
C1344 C 0.29635 0.37758 0.33872 0.0
C1345 C 0.29972 0.36094 0.32354 0.0
C1346 C 0.28193 0.39121 0.33589 0.0
C1347 C 0.27061 0.38821 0.31788 0.0
C1348 C 0.27458 0.37202 0.30239 0.0
C1349 C 0.28901 0.35847 0.30523 0.0
C1350 C 0.25372 0.40085 0.31566 0.0
C1351 C 0.25253 0.41143 0.29848 0.0
C1352 C 0.23833 0.40157 0.32984 0.0
C1353 C 0.23818 0.38973 0.34765 0.0
C1354 C 0.23934 0.36786 0.34485 0.0
C1355 C 0.23962 0.35687 0.36173 0.0
C1356 C 0.23851 0.36755 0.38147 0.0
C1357 C 0.23706 0.38924 0.38437 0.0
C1358 C 0.23685 0.40031 0.36754 0.0
C1359 C 0.16754 0.43097 0.30181 0.0
C1360 C 0.1679 0.45189 0.29785 0.0
C1361 C 0.18472 0.42186 0.30567 0.0
C1362 C 0.20267 0.43342 0.30568 0.0
C1363 C 0.20312 0.45444 0.30209 0.0
C1364 C 0.18588 0.46358 0.29812 0.0
C1365 C 0.22081 0.42311 0.3091 0.0
C1366 C 0.22224 0.41295 0.32654 0.0
C1367 C 0.23617 0.42233 0.29487 0.0
C1368 C 0.23515 0.43173 0.27562 0.0
C1369 C 0.24953 0.44692 0.27123 0.0
C1370 C 0.24856 0.45585 0.2531 0.0
C1371 C 0.23333 0.44962 0.2392 0.0
C1372 C 0.21908 0.43438 0.24334 0.0
C1373 C 0.21999 0.42538 0.26143 0.0
H1374 H 0.23261 0.45657 0.22518 0.0
H1375 H 0.23873 0.35901 0.39452 0.0
H1376 H 0.06931 0.01753 0.50371 0.0
H1377 H 0.10157 0.0358 0.51119 0.0
H1378 H 0.12462 0.99934 0.45825 0.0
H1379 H 0.09247 0.98129 0.45097 0.0
H1380 H 0.15079 0.00578 0.49026 0.0
H1381 H 0.10841 0.04601 0.45434 0.0
H1382 H 0.07861 0.06419 0.45011 0.0
H1383 H 0.09168 0.10517 0.50576 0.0
H1384 H 0.12145 0.087 0.51048 0.0
H1385 H 0.22571 0.06387 0.4484 0.0
H1386 H 0.19451 0.04618 0.45492 0.0
H1387 H 0.18752 0.09047 0.50881 0.0
H1388 H 0.21904 0.10841 0.50246 0.0
H1389 H 0.15349 0.08174 0.48394 0.0
H1390 H 0.19942 0.04434 0.5161 0.0
H1391 H 0.22937 0.02599 0.51882 0.0
H1392 H 0.20985 0.9795 0.46919 0.0
H1393 H 0.17991 0.99774 0.46594 0.0
C1394 C 0.0815 0.01313 0.49414 0.0
C1395 C 0.07867 0.99816 0.47682 0.0
C1396 C 0.09981 0.02359 0.49828 0.0
C1397 C 0.11544 0.01908 0.48513 0.0
C1398 C 0.1128 0.00306 0.46861 0.0
C1399 C 0.09453 0.99278 0.46443 0.0
C1400 C 0.13402 0.03218 0.48716 0.0
C1401 C 0.1514 0.02239 0.48892 0.0
C1402 C 0.13478 0.05395 0.48582 0.0
C1403 C 0.11701 0.06499 0.4829 0.0
C1404 C 0.10485 0.0588 0.46576 0.0
C1405 C 0.08798 0.06911 0.46326 0.0
C1406 C 0.08322 0.08578 0.47769 0.0
C1407 C 0.09536 0.09222 0.49462 0.0
C1408 C 0.11223 0.08192 0.49722 0.0
C1409 C 0.21756 0.07001 0.46161 0.0
C1410 C 0.22496 0.08755 0.47496 0.0
C1411 C 0.19974 0.05977 0.46536 0.0
C1412 C 0.18885 0.06682 0.48251 0.0
C1413 C 0.19579 0.08473 0.49556 0.0
C1414 C 0.21378 0.09494 0.4919 0.0
C1415 C 0.17026 0.05522 0.48657 0.0
C1416 C 0.1529 0.06526 0.48584 0.0
C1417 C 0.16951 0.03364 0.48874 0.0
C1418 C 0.18746 0.0225 0.4907 0.0
C1419 C 0.20157 0.03029 0.50566 0.0
C1420 C 0.21854 0.01989 0.50732 0.0
C1421 C 0.22153 0.00161 0.49417 0.0
C1422 C 0.20752 0.99366 0.47936 0.0
C1423 C 0.19053 0.00401 0.47763 0.0
H1424 H 0.23468 0.99358 0.49547 0.0
H1425 H 0.07015 0.09375 0.47573 0.0
H1426 H 0.74126 0.21839 0.76818 0.0
H1427 H 0.72235 0.18647 0.77481 0.0
H1428 H 0.76635 0.149 0.74513 0.0
H1429 H 0.7853 0.18113 0.73878 0.0
H1430 H 0.70653 0.15774 0.74631 0.0
H1431 H 0.76441 0.10137 0.76399 0.0
H1432 H 0.79681 0.10327 0.78026 0.0
H1433 H 0.78432 0.16051 0.81734 0.0
H1434 H 0.75173 0.15875 0.80159 0.0
H1435 H 0.66961 0.05165 0.72842 0.0
H1436 H 0.69123 0.08339 0.72914 0.0
H1437 H 0.69105 0.09151 0.79499 0.0
H1438 H 0.66929 0.05986 0.79444 0.0
H1439 H 0.72853 0.09791 0.77845 0.0
H1440 H 0.66409 0.12071 0.77264 0.0
H1441 H 0.63124 0.12013 0.7577 0.0
H1442 H 0.65586 0.13244 0.70043 0.0
H1443 H 0.68888 0.13279 0.71496 0.0
C1444 C 0.74701 0.20329 0.76357 0.0
C1445 C 0.76463 0.20203 0.75306 0.0
C1446 C 0.73621 0.18511 0.76722 0.0
C1447 C 0.74287 0.16531 0.76042 0.0
C1448 C 0.761 0.16408 0.75073 0.0
C1449 C 0.77185 0.18235 0.74715 0.0
C1450 C 0.73011 0.14611 0.76204 0.0
C1451 C 0.71138 0.1447 0.75338 0.0
C1452 C 0.73632 0.12912 0.7714 0.0
C1453 C 0.75568 0.13001 0.78145 0.0
C1454 C 0.76852 0.11428 0.77571 0.0
C1455 C 0.78693 0.11535 0.78483 0.0
C1456 C 0.79264 0.13203 0.79978 0.0
C1457 C 0.77991 0.14763 0.80572 0.0
C1458 C 0.76146 0.14661 0.79669 0.0
C1459 C 0.67417 0.06016 0.74307 0.0
C1460 C 0.66762 0.05327 0.76137 0.0
C1461 C 0.68653 0.07829 0.74345 0.0
C1462 C 0.69271 0.08982 0.76212 0.0
C1463 C 0.6865 0.08281 0.78042 0.0
C1464 C 0.67395 0.0648 0.78006 0.0
C1465 C 0.70514 0.10956 0.76249 0.0
C1466 C 0.72376 0.11102 0.77143 0.0
C1467 C 0.69879 0.12675 0.75362 0.0
C1468 C 0.67896 0.12656 0.74483 0.0
C1469 C 0.6625 0.12311 0.75681 0.0
C1470 C 0.64385 0.12286 0.74842 0.0
C1471 C 0.64147 0.12619 0.72811 0.0
C1472 C 0.65773 0.12983 0.71615 0.0
C1473 C 0.67642 0.13007 0.72446 0.0
H1474 H 0.62701 0.126 0.72165 0.0
H1475 H 0.80692 0.13286 0.80678 0.0
H1476 H 0.46056 0.01395 0.55131 0.0
H1477 H 0.4359 0.03699 0.54205 0.0
H1478 H 0.39136 0.9874 0.54497 0.0
H1479 H 0.41584 0.96473 0.55528 0.0
H1480 H 0.40216 0.01442 0.50428 0.0
H1481 H 0.38042 0.01347 0.57603 0.0
H1482 H 0.38746 0.01905 0.61305 0.0
H1483 H 0.40922 0.08223 0.6088 0.0
H1484 H 0.40256 0.07686 0.57166 0.0
H1485 H 0.31422 0.05214 0.47995 0.0
H1486 H 0.3394 0.03398 0.49487 0.0
H1487 H 0.36261 0.09258 0.52786 0.0
H1488 H 0.33653 0.11073 0.51372 0.0
H1489 H 0.36544 0.06387 0.55107 0.0
H1490 H 0.38382 0.0688 0.48252 0.0
H1491 H 0.38007 0.06587 0.4451 0.0
H1492 H 0.36942 0.99919 0.4418 0.0
H1493 H 0.37285 0.00174 0.47925 0.0
C1494 C 0.44544 0.0082 0.55044 0.0
C1495 C 0.44003 0.98761 0.55398 0.0
C1496 C 0.43144 0.02129 0.54508 0.0
C1497 C 0.41188 0.01387 0.54302 0.0
C1498 C 0.40641 0.99339 0.54668 0.0
C1499 C 0.42035 0.98045 0.55237 0.0
C1500 C 0.39735 0.02693 0.53552 0.0
C1501 C 0.39392 0.02508 0.51445 0.0
C1502 C 0.38739 0.04145 0.54881 0.0
C1503 C 0.39126 0.04467 0.57108 0.0
C1504 C 0.38692 0.02846 0.58296 0.0
C1505 C 0.39078 0.0316 0.60397 0.0
C1506 C 0.39885 0.05096 0.61326 0.0
C1507 C 0.40301 0.06723 0.60157 0.0
C1508 C 0.39919 0.06415 0.58056 0.0
C1509 C 0.32466 0.06117 0.49042 0.0
C1510 C 0.32359 0.08289 0.49548 0.0
C1511 C 0.33914 0.05079 0.49887 0.0
C1512 C 0.35332 0.06197 0.51202 0.0
C1513 C 0.35195 0.08362 0.51761 0.0
C1514 C 0.33709 0.09399 0.50951 0.0
C1515 C 0.36956 0.0509 0.51966 0.0
C1516 C 0.37355 0.05325 0.54075 0.0
C1517 C 0.38042 0.03713 0.50628 0.0
C1518 C 0.37845 0.03549 0.48372 0.0
C1519 C 0.38056 0.05352 0.47383 0.0
C1520 C 0.37851 0.05193 0.45261 0.0
C1521 C 0.37447 0.03236 0.44108 0.0
C1522 C 0.37254 0.01434 0.45075 0.0
C1523 C 0.37456 0.01584 0.47197 0.0
H1524 H 0.37288 0.03116 0.42466 0.0
H1525 H 0.40183 0.05337 0.62953 0.0
H1526 H 0.54384 0.48283 0.52457 0.0
H1527 H 0.57198 0.46223 0.51564 0.0
H1528 H 0.60987 0.51242 0.54653 0.0
H1529 H 0.58151 0.53312 0.55503 0.0
H1530 H 0.62776 0.49237 0.51316 0.0
H1531 H 0.5947 0.47159 0.57231 0.0
H1532 H 0.56677 0.45995 0.5923 0.0
H1533 H 0.55565 0.40568 0.54779 0.0
H1534 H 0.58364 0.4169 0.52764 0.0
H1535 H 0.70432 0.42676 0.53233 0.0
H1536 H 0.67874 0.4516 0.53561 0.0
H1537 H 0.63775 0.40336 0.50666 0.0
H1538 H 0.66307 0.37847 0.50357 0.0
H1539 H 0.62223 0.42364 0.53945 0.0
H1540 H 0.65726 0.44368 0.48141 0.0
H1541 H 0.68621 0.45499 0.46279 0.0
H1542 H 0.69421 0.51099 0.50569 0.0
H1543 H 0.66544 0.49987 0.52474 0.0
C1544 C 0.55829 0.48971 0.52866 0.0
C1545 C 0.56065 0.50958 0.54018 0.0
C1546 C 0.57433 0.47787 0.52385 0.0
C1547 C 0.59306 0.48554 0.53081 0.0
C1548 C 0.5956 0.5061 0.54103 0.0
C1549 C 0.57948 0.518 0.54573 0.0
C1550 C 0.6095 0.47146 0.52891 0.0
C1551 C 0.62665 0.47744 0.5191 0.0
C1552 C 0.60807 0.45185 0.53646 0.0
C1553 C 0.59113 0.44518 0.5484 0.0
C1554 C 0.58623 0.45723 0.56675 0.0
C1555 C 0.57044 0.45067 0.57813 0.0
C1556 C 0.55938 0.43216 0.57125 0.0
C1557 C 0.5642 0.42005 0.55307 0.0
C1558 C 0.58007 0.42645 0.54171 0.0
C1559 C 0.68986 0.42144 0.52665 0.0
C1560 C 0.6858 0.40056 0.5177 0.0
C1561 C 0.67526 0.43572 0.52842 0.0
C1562 C 0.65629 0.42947 0.52119 0.0
C1563 C 0.65223 0.40862 0.51234 0.0
C1564 C 0.66678 0.39438 0.51057 0.0
C1565 C 0.64045 0.44431 0.5234 0.0
C1566 C 0.62339 0.43852 0.53341 0.0
C1567 C 0.64207 0.46408 0.51611 0.0
C1568 C 0.65931 0.47084 0.50462 0.0
C1569 C 0.66528 0.45833 0.48697 0.0
C1570 C 0.68164 0.46471 0.47632 0.0
C1571 C 0.69208 0.48366 0.48308 0.0
C1572 C 0.68613 0.4963 0.50048 0.0
C1573 C 0.66979 0.48997 0.5112 0.0
H1574 H 0.70475 0.48857 0.47482 0.0
H1575 H 0.54711 0.42717 0.58005 0.0
H1576 H 0.72905 0.26665 0.29543 0.0
H1577 H 0.73362 0.28223 0.33098 0.0
H1578 H 0.71498 0.22295 0.35078 0.0
H1579 H 0.70933 0.20779 0.31493 0.0
H1580 H 0.69672 0.25185 0.37171 0.0
H1581 H 0.76322 0.24507 0.35659 0.0
H1582 H 0.79368 0.24762 0.33731 0.0
H1583 H 0.79303 0.3147 0.34531 0.0
H1584 H 0.76239 0.31254 0.36437 0.0
H1585 H 0.73714 0.29074 0.47384 0.0
H1586 H 0.73059 0.27111 0.43991 0.0
H1587 H 0.71974 0.32852 0.41634 0.0
H1588 H 0.72563 0.34821 0.45052 0.0
H1589 H 0.75328 0.29884 0.39879 0.0
H1590 H 0.68438 0.303 0.41337 0.0
H1591 H 0.65524 0.29795 0.43422 0.0
H1592 H 0.66305 0.23201 0.42929 0.0
H1593 H 0.69244 0.23673 0.40866 0.0
C1594 C 0.72625 0.25694 0.30743 0.0
C1595 C 0.71875 0.23615 0.3026 0.0
C1596 C 0.72897 0.26577 0.32775 0.0
C1597 C 0.72474 0.25379 0.34369 0.0
C1598 C 0.71829 0.23256 0.33879 0.0
C1599 C 0.71531 0.22381 0.31837 0.0
C1600 C 0.72568 0.26398 0.3653 0.0
C1601 C 0.70926 0.26184 0.37767 0.0
C1602 C 0.74191 0.27722 0.37318 0.0
C1603 C 0.7604 0.27863 0.36179 0.0
C1604 C 0.76949 0.26036 0.35411 0.0
C1605 C 0.7868 0.26174 0.34324 0.0
C1606 C 0.79526 0.28131 0.34005 0.0
C1607 C 0.78645 0.29955 0.34778 0.0
C1608 C 0.76912 0.29826 0.35864 0.0
C1609 C 0.73272 0.29907 0.46156 0.0
C1610 C 0.73177 0.32095 0.46477 0.0
C1611 C 0.72905 0.28786 0.44222 0.0
C1612 C 0.72478 0.29841 0.42569 0.0
C1613 C 0.72296 0.32014 0.429 0.0
C1614 C 0.72616 0.33132 0.44851 0.0
C1615 C 0.72426 0.28699 0.40473 0.0
C1616 C 0.74083 0.2888 0.39266 0.0
C1617 C 0.7084 0.27311 0.39732 0.0
C1618 C 0.69075 0.27027 0.4097 0.0
C1619 C 0.68002 0.28746 0.41694 0.0
C1620 C 0.66342 0.28465 0.42866 0.0
C1621 C 0.65733 0.26468 0.43314 0.0
C1622 C 0.6678 0.24747 0.42585 0.0
C1623 C 0.68442 0.25021 0.41413 0.0
H1624 H 0.64447 0.26254 0.44221 0.0
H1625 H 0.80867 0.28234 0.33163 0.0
H1626 H 0.48794 0.0618 0.95807 0.0
H1627 H 0.5145 0.05926 0.93335 0.0
H1628 H 0.47428 0.06655 0.88509 0.0
H1629 H 0.44789 0.06972 0.90997 0.0
H1630 H 0.49334 0.03138 0.87669 0.0
H1631 H 0.50884 0.10272 0.89538 0.0
H1632 H 0.51632 0.13676 0.91638 0.0
H1633 H 0.56783 0.1138 0.93957 0.0
H1634 H 0.56048 0.07943 0.91898 0.0
H1635 H 0.59016 0.04377 0.81729 0.0
H1636 H 0.56578 0.06059 0.83977 0.0
H1637 H 0.55312 0.00265 0.86461 0.0
H1638 H 0.57693 0.98573 0.84202 0.0
H1639 H 0.55895 0.06828 0.88006 0.0
H1640 H 0.50556 0.9936 0.86982 0.0
H1641 H 0.49713 0.96348 0.84356 0.0
H1642 H 0.51823 0.99917 0.79669 0.0
H1643 H 0.52652 0.02959 0.82262 0.0
C1644 C 0.48497 0.06356 0.9423 0.0
C1645 C 0.46592 0.06579 0.93581 0.0
C1646 C 0.5001 0.06205 0.92819 0.0
C1647 C 0.49635 0.06263 0.90735 0.0
C1648 C 0.47748 0.06598 0.90106 0.0
C1649 C 0.46244 0.06773 0.91521 0.0
C1650 C 0.51149 0.05718 0.89197 0.0
C1651 C 0.50766 0.03952 0.8774 0.0
C1652 C 0.52997 0.06818 0.89245 0.0
C1653 C 0.53401 0.08841 0.90574 0.0
C1654 C 0.52161 0.10479 0.9052 0.0
C1655 C 0.52585 0.12418 0.91697 0.0
C1656 C 0.54255 0.12745 0.92925 0.0
C1657 C 0.55491 0.11125 0.93001 0.0
C1658 C 0.55071 0.0918 0.91829 0.0
C1659 C 0.58233 0.03472 0.82774 0.0
C1660 C 0.58527 0.01334 0.82767 0.0
C1661 C 0.56842 0.04435 0.84057 0.0
C1662 C 0.55732 0.03274 0.85355 0.0
C1663 C 0.56117 0.01178 0.85438 0.0
C1664 C 0.57484 0.00214 0.84147 0.0
C1665 C 0.54101 0.04193 0.86552 0.0
C1666 C 0.54461 0.06024 0.87938 0.0
C1667 C 0.52204 0.03197 0.86394 0.0
C1668 C 0.51681 0.01382 0.8482 0.0
C1669 C 0.50831 0.99506 0.8539 0.0
C1670 C 0.50357 0.97792 0.83907 0.0
C1671 C 0.50719 0.97939 0.81848 0.0
C1672 C 0.51549 0.99803 0.81265 0.0
C1673 C 0.52023 0.01521 0.82741 0.0
H1674 H 0.50354 0.96611 0.80703 0.0
H1675 H 0.54597 0.1426 0.93804 0.0
H1676 H 0.35355 0.30149 0.35398 0.0
H1677 H 0.35229 0.26957 0.37078 0.0
H1678 H 0.29354 0.2542 0.34843 0.0
H1679 H 0.29533 0.28538 0.33094 0.0
H1680 H 0.33104 0.26028 0.40067 0.0
H1681 H 0.28112 0.20315 0.34386 0.0
H1682 H 0.27623 0.19451 0.30663 0.0
H1683 H 0.33456 0.21821 0.29659 0.0
H1684 H 0.33996 0.22665 0.33373 0.0
H1685 H 0.28271 0.18408 0.45365 0.0
H1686 H 0.29176 0.21196 0.43296 0.0
H1687 H 0.32175 0.16817 0.39111 0.0
H1688 H 0.31191 0.14014 0.41114 0.0
H1689 H 0.30385 0.19014 0.3699 0.0
H1690 H 0.34597 0.20746 0.42749 0.0
H1691 H 0.35525 0.21494 0.46392 0.0
H1692 H 0.32069 0.26834 0.47082 0.0
H1693 H 0.31098 0.26102 0.43448 0.0
C1694 C 0.34066 0.29087 0.35224 0.0
C1695 C 0.32451 0.29577 0.34132 0.0
C1696 C 0.33983 0.2728 0.36198 0.0
C1697 C 0.32283 0.25937 0.36088 0.0
C1698 C 0.30695 0.26402 0.3493 0.0
C1699 C 0.30788 0.2819 0.33943 0.0
C1700 C 0.32105 0.24131 0.37285 0.0
C1701 C 0.32523 0.2449 0.3939 0.0
C1702 C 0.31389 0.22106 0.36402 0.0
C1703 C 0.31088 0.21568 0.34162 0.0
C1704 C 0.29295 0.2064 0.33372 0.0
C1705 C 0.29009 0.20155 0.31262 0.0
C1706 C 0.30507 0.20585 0.29925 0.0
C1707 C 0.32297 0.21493 0.30695 0.0
C1708 C 0.32593 0.21977 0.32803 0.0
C1709 C 0.29126 0.18044 0.44006 0.0
C1710 C 0.29656 0.15991 0.43403 0.0
C1711 C 0.29656 0.19643 0.42828 0.0
C1712 C 0.30774 0.19233 0.41055 0.0
C1713 C 0.31311 0.17181 0.40464 0.0
C1714 C 0.30749 0.15578 0.41615 0.0
C1715 C 0.31338 0.20923 0.39785 0.0
C1716 C 0.30986 0.20544 0.37666 0.0
C1717 C 0.3218 0.22907 0.40644 0.0
C1718 C 0.32763 0.23358 0.42829 0.0
C1719 C 0.34025 0.22071 0.43681 0.0
C1720 C 0.3456 0.22494 0.45744 0.0
C1721 C 0.33853 0.24208 0.46969 0.0
C1722 C 0.32613 0.25506 0.46131 0.0
C1723 C 0.32072 0.25089 0.4407 0.0
H1724 H 0.34269 0.24533 0.48565 0.0
H1725 H 0.30281 0.20212 0.28292 0.0
H1726 H 0.49565 0.50866 0.96147 0.0
H1727 H 0.47219 0.51014 0.93376 0.0
H1728 H 0.51551 0.49076 0.88939 0.0
H1729 H 0.53893 0.48928 0.91731 0.0
H1730 H 0.49342 0.52251 0.8779 0.0
H1731 H 0.48295 0.45538 0.9007 0.0
H1732 H 0.47784 0.43113 0.92639 0.0
H1733 H 0.4245 0.4587 0.94446 0.0
H1734 H 0.42948 0.48342 0.91914 0.0
H1735 H 0.41837 0.4983 0.79972 0.0
H1736 H 0.44677 0.49704 0.82193 0.0
H1737 H 0.41101 0.51008 0.87505 0.0
H1738 H 0.38278 0.51095 0.85321 0.0
H1739 H 0.43196 0.47814 0.87886 0.0
H1740 H 0.44393 0.54732 0.85861 0.0
H1741 H 0.44943 0.57259 0.83388 0.0
H1742 H 0.49971 0.54145 0.81125 0.0
H1743 H 0.49436 0.51584 0.83569 0.0
C1744 C 0.50004 0.50477 0.94577 0.0
C1745 C 0.5188 0.49853 0.94134 0.0
C1746 C 0.48675 0.50564 0.93 0.0
C1747 C 0.49206 0.50027 0.90954 0.0
C1748 C 0.51112 0.49489 0.90506 0.0
C1749 C 0.52442 0.49399 0.92091 0.0
C1750 C 0.47732 0.49937 0.89304 0.0
C1751 C 0.4801 0.51258 0.87786 0.0
C1752 C 0.45992 0.4865 0.89313 0.0
C1753 C 0.45667 0.47136 0.9081 0.0
C1754 C 0.47019 0.45637 0.91023 0.0
C1755 C 0.46732 0.44253 0.92473 0.0
C1756 C 0.45087 0.44339 0.93707 0.0
C1757 C 0.43724 0.45806 0.9349 0.0
C1758 C 0.44007 0.47198 0.92046 0.0
C1759 C 0.41665 0.50106 0.81614 0.0
C1760 C 0.39829 0.50459 0.82469 0.0
C1761 C 0.43288 0.50038 0.8288 0.0
C1762 C 0.43102 0.50345 0.85018 0.0
C1763 C 0.41279 0.50748 0.85863 0.0
C1764 C 0.39664 0.50801 0.84607 0.0
C1765 C 0.44767 0.50184 0.86405 0.0
C1766 C 0.44533 0.48797 0.87871 0.0
C1767 C 0.4654 0.51414 0.86346 0.0
C1768 C 0.46861 0.52952 0.84879 0.0
C1769 C 0.45606 0.54576 0.84824 0.0
C1770 C 0.45917 0.56016 0.8343 0.0
C1771 C 0.47487 0.55858 0.82096 0.0
C1772 C 0.48753 0.54263 0.82156 0.0
C1773 C 0.48448 0.52818 0.83546 0.0
H1774 H 0.47725 0.56975 0.81018 0.0
H1775 H 0.44867 0.43267 0.94829 0.0
H1776 H 0.76168 0.74069 0.21837 0.0
H1777 H 0.77382 0.72653 0.18481 0.0
H1778 H 0.72073 0.74133 0.15672 0.0
H1779 H 0.70935 0.75658 0.19026 0.0
H1780 H 0.76145 0.69456 0.162 0.0
H1781 H 0.7257 0.74494 0.10658 0.0
H1782 H 0.7192 0.78179 0.10488 0.0
H1783 H 0.76457 0.80216 0.149 0.0
H1784 H 0.77154 0.76545 0.15077 0.0
H1785 H 0.74744 0.63628 0.06582 0.0
H1786 H 0.74375 0.65877 0.09803 0.0
H1787 H 0.78425 0.70555 0.07794 0.0
H1788 H 0.78756 0.68327 0.04525 0.0
H1789 H 0.75573 0.7241 0.09676 0.0
H1790 H 0.79787 0.67354 0.11291 0.0
H1791 H 0.80945 0.63833 0.11386 0.0
H1792 H 0.75968 0.62186 0.14886 0.0
H1793 H 0.74763 0.65687 0.14786 0.0
C1794 C 0.75309 0.74164 0.20483 0.0
C1795 C 0.73494 0.75021 0.2066 0.0
C1796 C 0.75984 0.73332 0.18572 0.0
C1797 C 0.74832 0.73299 0.16806 0.0
C1798 C 0.73019 0.74185 0.1699 0.0
C1799 C 0.72363 0.7505 0.18901 0.0
C1800 C 0.7544 0.72165 0.14817 0.0
C1801 C 0.7603 0.70116 0.14779 0.0
C1802 C 0.75338 0.73026 0.12954 0.0
C1803 C 0.74905 0.7524 0.1289 0.0
C1804 C 0.73433 0.75727 0.11589 0.0
C1805 C 0.73056 0.77814 0.11491 0.0
C1806 C 0.74147 0.7943 0.12681 0.0
C1807 C 0.75611 0.78962 0.13981 0.0
C1808 C 0.75995 0.76878 0.14084 0.0
C1809 C 0.7556 0.65134 0.06821 0.0
C1810 C 0.7679 0.65792 0.053 0.0
C1811 C 0.75353 0.66417 0.08671 0.0
C1812 C 0.764 0.68372 0.09063 0.0
C1813 C 0.77607 0.69051 0.07533 0.0
C1814 C 0.77799 0.67774 0.05667 0.0
C1815 C 0.76218 0.69696 0.11068 0.0
C1816 C 0.75704 0.7177 0.11105 0.0
C1817 C 0.76454 0.68887 0.12939 0.0
C1818 C 0.77178 0.66781 0.13018 0.0
C1819 C 0.78933 0.66237 0.1207 0.0
C1820 C 0.79598 0.64245 0.12126 0.0
C1821 C 0.78529 0.62786 0.13138 0.0
C1822 C 0.76794 0.63318 0.14101 0.0
C1823 C 0.7612 0.65307 0.14048 0.0
H1824 H 0.79047 0.61244 0.13179 0.0
H1825 H 0.7386 0.81044 0.1259 0.0
H1826 H 0.02695 0.03177 0.10885 0.0
H1827 H 0.00255 0.02849 0.1355 0.0
H1828 H 0.9585 0.0097 0.08903 0.0
H1829 H 0.983 0.01301 0.06246 0.0
H1830 H 0.94562 0.03819 0.11847 0.0
H1831 H 0.97752 0.97406 0.11597 0.0
H1832 H 0.00561 0.95243 0.11673 0.0
H1833 H 0.01983 0.98141 0.17769 0.0
H1834 H 0.99198 0.00347 0.17718 0.0
H1835 H 0.87208 1.00014 0.18202 0.0
H1836 H 0.8967 0.00319 0.1558 0.0
H1837 H 0.94048 0.02154 0.20257 0.0
H1838 H 0.91598 0.01827 0.22892 0.0
H1839 H 0.95362 0.99339 0.17311 0.0
H1840 H 0.92201 0.05764 0.17564 0.0
H1841 H 0.89422 0.0797 0.17489 0.0
H1842 H 0.87965 0.05079 0.11399 0.0
H1843 H 0.90722 0.02834 0.11448 0.0
C1844 C 0.01208 0.02676 0.10444 0.0
C1845 C 0.00678 0.02257 0.0837 0.0
C1846 C 0.99815 0.0249 0.11961 0.0
C1847 C 0.97868 0.01867 0.11429 0.0
C1848 C 0.9734 0.01456 0.09352 0.0
C1849 C 0.98734 0.01643 0.07838 0.0
C1850 C 0.9638 0.01662 0.13035 0.0
C1851 C 0.94724 0.02817 0.13025 0.0
C1852 C 0.96612 0.00395 0.14604 0.0
C1853 C 0.98277 0.99056 0.14646 0.0
C1854 C 0.98672 0.97593 0.12948 0.0
C1855 C 0.00259 0.96358 0.12988 0.0
C1856 C 0.01453 0.96558 0.14723 0.0
C1857 C 0.01058 0.9799 0.16425 0.0
C1858 C 0.99475 0.99233 0.16392 0.0
C1859 C 0.88693 0.00487 0.18677 0.0
C1860 C 0.89201 0.00903 0.20761 0.0
C1861 C 0.901 0.00668 0.17172 0.0
C1862 C 0.92044 0.01282 0.17718 0.0
C1863 C 0.92558 0.0168 0.19797 0.0
C1864 C 0.91153 0.01499 0.21303 0.0
C1865 C 0.93541 0.01493 0.1612 0.0
C1866 C 0.95199 0.00341 0.16132 0.0
C1867 C 0.93313 0.02765 0.14554 0.0
C1868 C 0.91657 0.04116 0.14518 0.0
C1869 C 0.91279 0.05587 0.16215 0.0
C1870 C 0.8971 0.06846 0.16176 0.0
C1871 C 0.88515 0.06661 0.14442 0.0
C1872 C 0.88891 0.05219 0.12742 0.0
C1873 C 0.90457 0.03953 0.12774 0.0
H1874 H 0.873 0.07638 0.14415 0.0
H1875 H 0.02681 0.956 0.1475 0.0
H1876 H 0.30013 0.74662 0.19838 0.0
H1877 H 0.29391 0.76928 0.17239 0.0
H1878 H 0.24241 0.78903 0.2044 0.0
H1879 H 0.24889 0.7665 0.23064 0.0
H1880 H 0.23591 0.77932 0.16276 0.0
H1881 H 0.28143 0.82223 0.20676 0.0
H1882 H 0.31148 0.83053 0.22731 0.0
H1883 H 0.34574 0.81874 0.17329 0.0
H1884 H 0.31591 0.81003 0.15244 0.0
H1885 H 0.23088 0.85344 0.08878 0.0
H1886 H 0.23099 0.83925 0.12169 0.0
H1887 H 0.28544 0.81221 0.10617 0.0
H1888 H 0.28558 0.8262 0.07395 0.0
H1889 H 0.28675 0.83143 0.14436 0.0
H1890 H 0.2418 0.78285 0.10185 0.0
H1891 H 0.21208 0.77324 0.08099 0.0
H1892 H 0.17707 0.79537 0.13204 0.0
H1893 H 0.20664 0.80534 0.15312 0.0
C1894 C 0.28767 0.75605 0.19999 0.0
C1895 C 0.27507 0.75499 0.21654 0.0
C1896 C 0.28406 0.76892 0.18513 0.0
C1897 C 0.26777 0.78103 0.18653 0.0
C1898 C 0.25506 0.77986 0.203 0.0
C1899 C 0.25875 0.76703 0.21795 0.0
C1900 C 0.26411 0.79467 0.17061 0.0
C1901 C 0.24685 0.79104 0.159 0.0
C1902 C 0.2784 0.80989 0.1656 0.0
C1903 C 0.29641 0.81536 0.17805 0.0
C1904 C 0.29537 0.82127 0.19927 0.0
C1905 C 0.31237 0.82607 0.21098 0.0
C1906 C 0.3305 0.82514 0.20162 0.0
C1907 C 0.33168 0.81945 0.18052 0.0
C1908 C 0.31473 0.81461 0.16875 0.0
C1909 C 0.24285 0.84449 0.09246 0.0
C1910 C 0.25819 0.841 0.07864 0.0
C1911 C 0.24288 0.83635 0.11123 0.0
C1912 C 0.25826 0.82464 0.11643 0.0
C1913 C 0.2735 0.82129 0.10264 0.0
C1914 C 0.27347 0.82929 0.08408 0.0
C1915 C 0.25889 0.8155 0.13598 0.0
C1916 C 0.27562 0.82003 0.14837 0.0
C1917 C 0.24415 0.80108 0.14162 0.0
C1918 C 0.22642 0.7951 0.12896 0.0
C1919 C 0.22777 0.78583 0.10856 0.0
C1920 C 0.21095 0.78029 0.09671 0.0
C1921 C 0.1927 0.78376 0.10516 0.0
C1922 C 0.19122 0.79274 0.1255 0.0
C1923 C 0.208 0.79833 0.1374 0.0
H1924 H 0.1797 0.77945 0.09597 0.0
H1925 H 0.34365 0.82885 0.21071 0.0
H1926 H 0.9859 0.4287 0.09458 0.0
H1927 H 0.01118 0.42815 0.1207 0.0
H1928 H 0.03745 0.48659 0.10537 0.0
H1929 H 0.01256 0.48662 0.07882 0.0
H1930 H 0.06501 0.46244 0.11693 0.0
H1931 H 0.00448 0.48686 0.1425 0.0
H1932 H 0.96899 0.48487 0.14729 0.0
H1933 H 0.9728 0.42999 0.17713 0.0
H1934 H 0.00831 0.43145 0.1722 0.0
H1935 H 0.10622 0.50055 0.21719 0.0
H1936 H 0.08884 0.49637 0.18424 0.0
H1937 H 0.06357 0.43629 0.19615 0.0
H1938 H 0.08067 0.44025 0.22877 0.0
H1939 H 0.03633 0.46176 0.18573 0.0
H1940 H 0.09829 0.43917 0.16086 0.0
H1941 H 0.13373 0.44289 0.15602 0.0
H1942 H 0.1273 0.49696 0.12561 0.0
H1943 H 0.09182 0.49373 0.13052 0.0
C1944 C 0.99748 0.44099 0.09639 0.0
C1945 C 0.99727 0.45784 0.08501 0.0
C1946 C 0.0118 0.4408 0.11137 0.0
C1947 C 0.02595 0.4576 0.11531 0.0
C1948 C 0.02664 0.47354 0.10272 0.0
C1949 C 0.01241 0.47363 0.08767 0.0
C1950 C 0.03849 0.45985 0.13388 0.0
C1951 C 0.05876 0.46242 0.13199 0.0
C1952 C 0.03034 0.4599 0.15355 0.0
C1953 C 0.00902 0.45914 0.1568 0.0
C1954 C 0.99773 0.47429 0.14997 0.0
C1955 C 0.97762 0.47326 0.15271 0.0
C1956 C 0.96864 0.45728 0.16247 0.0
C1957 C 0.97977 0.44233 0.16955 0.0
C1958 C 0.9999 0.44325 0.16678 0.0
C1959 C 0.09714 0.48636 0.21266 0.0
C1960 C 0.09476 0.47083 0.22573 0.0
C1961 C 0.08726 0.48396 0.19382 0.0
C1962 C 0.07489 0.466 0.18777 0.0
C1963 C 0.07296 0.4503 0.20054 0.0
C1964 C 0.0828 0.45263 0.21923 0.0
C1965 C 0.06291 0.46392 0.16882 0.0
C1966 C 0.04264 0.4616 0.17067 0.0
C1967 C 0.0711 0.46439 0.14923 0.0
C1968 C 0.09242 0.46633 0.14625 0.0
C1969 C 0.10445 0.45196 0.1533 0.0
C1970 C 0.12454 0.45396 0.15051 0.0
C1971 C 0.13277 0.47018 0.14057 0.0
C1972 C 0.12091 0.48442 0.13334 0.0
C1973 C 0.10081 0.4825 0.13611 0.0
H1974 H 0.14833 0.4717 0.13842 0.0
H1975 H 0.95306 0.45651 0.16458 0.0
H1976 H 0.29048 0.71844 0.29336 0.0
H1977 H 0.3168 0.7105 0.3157 0.0
H1978 H 0.35569 0.7061 0.26438 0.0
H1979 H 0.32916 0.71297 0.24206 0.0
H1980 H 0.36384 0.67809 0.28742 0.0
H1981 H 0.35293 0.75182 0.29958 0.0
H1982 H 0.33357 0.78238 0.30897 0.0
H1983 H 0.32287 0.7632 0.36804 0.0
H1984 H 0.34196 0.73234 0.35887 0.0
H1985 H 0.456 0.71909 0.3259 0.0
H1986 H 0.42391 0.71093 0.31006 0.0
H1987 H 0.39968 0.70156 0.3686 0.0
H1988 H 0.43221 0.70927 0.38453 0.0
H1989 H 0.38098 0.73137 0.34702 0.0
H1990 H 0.39877 0.66072 0.33513 0.0
H1991 H 0.4201 0.6322 0.32432 0.0
H1992 H 0.42004 0.64779 0.26308 0.0
H1993 H 0.39894 0.67663 0.27358 0.0
C1994 C 0.30456 0.7153 0.28687 0.0
C1995 C 0.30793 0.71659 0.26609 0.0
C1996 C 0.31965 0.71098 0.29964 0.0
C1997 C 0.33843 0.70812 0.29187 0.0
C1998 C 0.34144 0.70833 0.27085 0.0
C1999 C 0.32634 0.71245 0.25811 0.0
C2000 C 0.3553 0.70618 0.30557 0.0
C2001 C 0.36757 0.68976 0.30044 0.0
C2002 C 0.36006 0.7211 0.32289 0.0
C2003 C 0.34865 0.73965 0.32845 0.0
C2004 C 0.34632 0.75405 0.31451 0.0
C2005 C 0.33542 0.77142 0.3198 0.0
C2006 C 0.32694 0.77469 0.33907 0.0
C2007 C 0.3294 0.76061 0.3531 0.0
C2008 C 0.34026 0.74318 0.34787 0.0
C2009 C 0.44393 0.71473 0.33531 0.0
C2010 C 0.44658 0.71465 0.3564 0.0
C2011 C 0.42559 0.71008 0.32624 0.0
C2012 C 0.40938 0.70559 0.33811 0.0
C2013 C 0.41203 0.70488 0.35914 0.0
C2014 C 0.43058 0.70912 0.36819 0.0
C2015 C 0.38967 0.70359 0.32854 0.0
C2016 C 0.37695 0.71937 0.33435 0.0
C2017 C 0.3847 0.68832 0.31162 0.0
C2018 C 0.39734 0.67093 0.30519 0.0
C2019 C 0.40342 0.65818 0.31939 0.0
C2020 C 0.41545 0.64193 0.31331 0.0
C2021 C 0.42144 0.6382 0.29303 0.0
C2022 C 0.41538 0.6507 0.27878 0.0
C2023 C 0.40336 0.66698 0.28479 0.0
H2024 H 0.43076 0.62561 0.28835 0.0
H2025 H 0.31851 0.78816 0.34314 0.0
H2026 H 0.95456 0.40858 0.05929 0.0
H2027 H 0.96337 0.37539 0.03997 0.0
H2028 H 0.01495 0.40698 0.0186 0.0
H2029 H 0.00613 0.44011 0.03825 0.0
H2030 H 0.98974 0.38651 0.98757 0.0
H2031 H 0.0202 0.37129 0.04876 0.0
H2032 H 0.02164 0.36719 0.08531 0.0
H2033 H 0.97575 0.31848 0.07648 0.0
H2034 H 0.97379 0.32253 0.03992 0.0
H2035 H 0.021 0.30214 0.92351 0.0
H2036 H 0.02129 0.33006 0.95228 0.0
H2037 H 0.97586 0.29542 0.98106 0.0
H2038 H 0.97638 0.26672 0.95256 0.0
H2039 H 0.999 0.31718 0.00965 0.0
H2040 H 0.96547 0.33362 0.95107 0.0
H2041 H 0.96087 0.33796 0.91486 0.0
H2042 H 0.00853 0.38468 0.91925 0.0
H2043 H 0.01359 0.38041 0.95543 0.0
C2044 C 0.96807 0.40813 0.05096 0.0
C2045 C 0.97978 0.42663 0.0502 0.0
C2046 C 0.9731 0.38927 0.03996 0.0
C2047 C 0.98984 0.38872 0.02788 0.0
C2048 C 0.00203 0.40707 0.02791 0.0
C2049 C 0.9971 0.42588 0.03915 0.0
C2050 C 0.9932 0.36977 0.01331 0.0
C2051 C 0.99219 0.37144 0.9924 0.0
C2052 C 0.99546 0.34994 0.01966 0.0
C2053 C 0.99674 0.34734 0.04161 0.0
C2054 C 0.01029 0.35982 0.05463 0.0
C2055 C 0.01123 0.35748 0.07535 0.0
C2056 C 0.99877 0.34261 0.08322 0.0
C2057 C 0.98538 0.33 0.07036 0.0
C2058 C 0.98437 0.3323 0.04963 0.0
C2059 C 0.01138 0.30029 0.93621 0.0
C2060 C 0.99854 0.28243 0.93581 0.0
C2061 C 0.01147 0.3163 0.95259 0.0
C2062 C 0.99817 0.31519 0.96857 0.0
C2063 C 0.98616 0.29673 0.96885 0.0
C2064 C 0.98643 0.28035 0.9526 0.0
C2065 C 0.99584 0.334 0.98385 0.0
C2066 C 0.9968 0.33229 0.00483 0.0
C2067 C 0.99308 0.35384 0.97763 0.0
C2068 C 0.99002 0.35654 0.9559 0.0
C2069 C 0.97505 0.34471 0.94427 0.0
C2070 C 0.97235 0.34717 0.92376 0.0
C2071 C 0.98443 0.36154 0.91474 0.0
C2072 C 0.9992 0.37353 0.92624 0.0
C2073 C 0.00198 0.37111 0.94676 0.0
H2074 H 0.98232 0.36343 0.89886 0.0
H2075 H 0.99951 0.34082 0.09927 0.0
H2076 H 0.70353 0.72257 0.27576 0.0
H2077 H 0.6758 0.71408 0.29742 0.0
H2078 H 0.64686 0.76644 0.27996 0.0
H2079 H 0.67448 0.77473 0.25843 0.0
H2080 H 0.64529 0.76576 0.3205 0.0
H2081 H 0.63414 0.71595 0.25938 0.0
H2082 H 0.64272 0.68698 0.23348 0.0
H2083 H 0.64714 0.64694 0.28012 0.0
H2084 H 0.63886 0.67581 0.30636 0.0
H2085 H 0.54632 0.75202 0.33068 0.0
H2086 H 0.57839 0.75058 0.31579 0.0
H2087 H 0.59312 0.70515 0.35467 0.0
H2088 H 0.56059 0.7066 0.37012 0.0
H2089 H 0.60536 0.69831 0.3095 0.0
H2090 H 0.61173 0.74797 0.37005 0.0
H2091 H 0.60177 0.77732 0.39473 0.0
H2092 H 0.60563 0.81796 0.34814 0.0
H2093 H 0.61531 0.78877 0.32308 0.0
C2094 C 0.69111 0.73205 0.27653 0.0
C2095 C 0.69094 0.7492 0.26548 0.0
C2096 C 0.67533 0.72725 0.28886 0.0
C2097 C 0.6592 0.73958 0.29026 0.0
C2098 C 0.65915 0.75676 0.2792 0.0
C2099 C 0.67486 0.76149 0.26692 0.0
C2100 C 0.64229 0.73496 0.30328 0.0
C2101 C 0.63661 0.75099 0.31809 0.0
C2102 C 0.63125 0.71546 0.30062 0.0
C2103 C 0.63614 0.69811 0.28485 0.0
C2104 C 0.63711 0.70103 0.26413 0.0
C2105 C 0.64189 0.68462 0.24939 0.0
C2106 C 0.64554 0.66515 0.25516 0.0
C2107 C 0.64435 0.66204 0.27568 0.0
C2108 C 0.63962 0.67842 0.29049 0.0
C2109 C 0.5562 0.74153 0.33609 0.0
C2110 C 0.55088 0.72958 0.35183 0.0
C2111 C 0.57457 0.74073 0.32748 0.0
C2112 C 0.58817 0.72795 0.33427 0.0
C2113 C 0.58278 0.71515 0.34927 0.0
C2114 C 0.56424 0.71602 0.35808 0.0
C2115 C 0.6082 0.72933 0.3262 0.0
C2116 C 0.61441 0.71282 0.31229 0.0
C2117 C 0.61976 0.74843 0.32959 0.0
C2118 C 0.61415 0.76613 0.34466 0.0
C2119 C 0.61033 0.76313 0.36503 0.0
C2120 C 0.60475 0.77975 0.37909 0.0
C2121 C 0.60305 0.79949 0.373 0.0
C2122 C 0.60696 0.80266 0.35284 0.0
C2123 C 0.61252 0.78609 0.3387 0.0
H2124 H 0.59872 0.81233 0.38391 0.0
H2125 H 0.64923 0.65247 0.24372 0.0
H2126 H 0.06518 0.06482 0.03861 0.0
H2127 H 0.06615 0.09097 0.01458 0.0
H2128 H 0.01696 0.05754 0.98185 0.0
H2129 H 0.01643 0.03134 0.0056 0.0
H2130 H 0.04009 0.07535 0.95578 0.0
H2131 H 0.0108 0.09762 0.02053 0.0
H2132 H 0.00979 0.10519 0.05811 0.0
H2133 H 0.05817 0.15054 0.05755 0.0
H2134 H 0.0596 0.14305 0.01997 0.0
H2135 H 0.99567 0.15935 0.9167 0.0
H2136 H 0.00279 0.12985 0.9348 0.0
H2137 H 0.05257 0.1658 0.96375 0.0
H2138 H 0.04553 0.19529 0.94587 0.0
H2139 H 0.03137 0.14685 0.99105 0.0
H2140 H 0.05817 0.12626 0.92502 0.0
H2141 H 0.05779 0.11858 0.88744 0.0
H2142 H 0.01257 0.07002 0.89022 0.0
H2143 H 0.01249 0.07761 0.92782 0.0
C2144 C 0.05518 0.06269 0.02574 0.0
C2145 C 0.04075 0.04617 0.02384 0.0
C2146 C 0.05552 0.07773 0.01219 0.0
C2147 C 0.0413 0.07655 0.99666 0.0
C2148 C 0.02803 0.05893 0.9937 0.0
C2149 C 0.02775 0.04391 0.00719 0.0
C2150 C 0.03883 0.09451 0.98495 0.0
C2151 C 0.03809 0.09096 0.9635 0.0
C2152 C 0.03636 0.11499 0.99493 0.0
C2153 C 0.03545 0.11961 0.01749 0.0
C2154 C 0.0213 0.1091 0.02845 0.0
C2155 C 0.02064 0.11339 0.04973 0.0
C2156 C 0.03395 0.12828 0.06021 0.0
C2157 C 0.0479 0.13898 0.04941 0.0
C2158 C 0.04864 0.13473 0.02812 0.0
C2159 C 0.00815 0.16097 0.92689 0.0
C2160 C 0.02001 0.17974 0.92979 0.0
C2161 C 0.01227 0.14403 0.93716 0.0
C2162 C 0.02835 0.14548 0.95052 0.0
C2163 C 0.04012 0.16424 0.95351 0.0
C2164 C 0.03606 0.18111 0.94322 0.0
C2165 C 0.03265 0.12773 0.96186 0.0
C2166 C 0.03361 0.13131 0.98328 0.0
C2167 C 0.03514 0.10729 0.95183 0.0
C2168 C 0.0352 0.10264 0.92923 0.0
C2169 C 0.04804 0.11405 0.91761 0.0
C2170 C 0.04793 0.10969 0.89631 0.0
C2171 C 0.03513 0.09385 0.88645 0.0
C2172 C 0.02246 0.0823 0.89788 0.0
C2173 C 0.0225 0.08661 0.91919 0.0
H2174 H 0.03507 0.0905 0.86995 0.0
H2175 H 0.03342 0.13157 0.07669 0.0
H2176 H 0.32933 0.29891 0.28389 0.0
H2177 H 0.3542 0.28811 0.25907 0.0
H2178 H 0.39891 0.31081 0.30389 0.0
H2179 H 0.37371 0.32231 0.32837 0.0
H2180 H 0.40613 0.32722 0.2714 0.0
H2181 H 0.39182 0.25715 0.28298 0.0
H2182 H 0.37172 0.22517 0.28777 0.0
H2183 H 0.34903 0.22153 0.22673 0.0
H2184 H 0.36882 0.25364 0.22163 0.0
H2185 H 0.47529 0.30037 0.19241 0.0
H2186 H 0.4572 0.29882 0.22421 0.0
H2187 H 0.40328 0.29055 0.1901 0.0
H2188 H 0.42112 0.29229 0.15838 0.0
H2189 H 0.40554 0.26332 0.22063 0.0
H2190 H 0.41663 0.33718 0.2127 0.0
H2191 H 0.43731 0.369 0.20861 0.0
H2192 H 0.46737 0.36415 0.26462 0.0
H2193 H 0.44701 0.33211 0.26888 0.0
C2194 C 0.34447 0.30072 0.28857 0.0
C2195 C 0.34975 0.31103 0.30798 0.0
C2196 C 0.35871 0.29459 0.27444 0.0
C2197 C 0.37854 0.29847 0.27957 0.0
C2198 C 0.38375 0.30758 0.29953 0.0
C2199 C 0.36944 0.31392 0.31359 0.0
C2200 C 0.39351 0.2957 0.26335 0.0
C2201 C 0.40631 0.31299 0.26067 0.0
C2202 C 0.39367 0.27731 0.24905 0.0
C2203 C 0.38175 0.2579 0.25197 0.0
C2204 C 0.38245 0.24962 0.27061 0.0
C2205 C 0.37113 0.23144 0.27337 0.0
C2206 C 0.35909 0.22134 0.25757 0.0
C2207 C 0.35838 0.22937 0.23896 0.0
C2208 C 0.36968 0.24754 0.23611 0.0
C2209 C 0.45958 0.29816 0.19168 0.0
C2210 C 0.44964 0.29662 0.17286 0.0
C2211 C 0.44929 0.29725 0.20985 0.0
C2212 C 0.42891 0.29456 0.20949 0.0
C2213 C 0.41901 0.29254 0.1907 0.0
C2214 C 0.42924 0.2937 0.1726 0.0
C2215 C 0.41767 0.29492 0.22868 0.0
C2216 C 0.40558 0.27727 0.23177 0.0
C2217 C 0.41831 0.31285 0.24352 0.0
C2218 C 0.43049 0.33212 0.24097 0.0
C2219 C 0.42777 0.34279 0.22404 0.0
C2220 C 0.4394 0.36089 0.22172 0.0
C2221 C 0.45369 0.36855 0.23631 0.0
C2222 C 0.45633 0.35817 0.2533 0.0
C2223 C 0.44475 0.34005 0.25569 0.0
H2224 H 0.46268 0.38257 0.23449 0.0
H2225 H 0.35032 0.20728 0.25974 0.0
H2226 H 0.55196 0.49865 0.02367 0.0
H2227 H 0.55228 0.47676 0.05143 0.0
H2228 H 0.54908 0.42133 0.00681 0.0
H2229 H 0.54976 0.44332 0.97935 0.0
H2230 H 0.52427 0.45263 0.06081 0.0
H2231 H 0.56408 0.3795 0.02385 0.0
H2232 H 0.59352 0.37243 0.00366 0.0
H2233 H 0.61866 0.43384 0.02587 0.0
H2234 H 0.58952 0.44122 0.0464 0.0
H2235 H 0.4801 0.35973 0.08458 0.0
H2236 H 0.49567 0.38894 0.0697 0.0
H2237 H 0.54977 0.38034 0.0994 0.0
H2238 H 0.53428 0.35041 0.11405 0.0
H2239 H 0.55656 0.38628 0.0616 0.0
H2240 H 0.52337 0.42326 0.1155 0.0
H2241 H 0.49626 0.43229 0.13858 0.0
H2242 H 0.46279 0.44704 0.08813 0.0
H2243 H 0.48958 0.4378 0.06467 0.0
C2244 C 0.55211 0.48183 0.01994 0.0
C2245 C 0.55079 0.47256 0.99952 0.0
C2246 C 0.5521 0.4693 0.03574 0.0
C2247 C 0.55074 0.44731 0.03131 0.0
C2248 C 0.55052 0.43819 0.01076 0.0
C2249 C 0.55072 0.45071 0.99505 0.0
C2250 C 0.547 0.43385 0.04777 0.0
C2251 C 0.53154 0.43827 0.06114 0.0
C2252 C 0.55682 0.41539 0.04878 0.0
C2253 C 0.57453 0.41094 0.03662 0.0
C2254 C 0.57594 0.39146 0.02455 0.0
C2255 C 0.59257 0.38741 0.01299 0.0
C2256 C 0.60794 0.4027 0.01344 0.0
C2257 C 0.60673 0.42205 0.02547 0.0
C2258 C 0.59014 0.42618 0.03704 0.0
C2259 C 0.49527 0.36409 0.08818 0.0
C2260 C 0.50591 0.35269 0.10059 0.0
C2261 C 0.50416 0.38095 0.07972 0.0
C2262 C 0.52385 0.38713 0.08366 0.0
C2263 C 0.53454 0.37594 0.0962 0.0
C2264 C 0.52564 0.35889 0.10463 0.0
C2265 C 0.53319 0.4046 0.07369 0.0
C2266 C 0.54965 0.40089 0.06157 0.0
C2267 C 0.52468 0.42404 0.07427 0.0
C2268 C 0.5085 0.42976 0.0883 0.0
C2269 C 0.51019 0.42831 0.1093 0.0
C2270 C 0.49488 0.43349 0.12245 0.0
C2271 C 0.47781 0.44022 0.11482 0.0
C2272 C 0.47603 0.44184 0.09402 0.0
C2273 C 0.49129 0.43667 0.08079 0.0
H2274 H 0.46597 0.44421 0.12503 0.0
H2275 H 0.6208 0.39955 0.00448 0.0
H2276 H 0.69964 0.23966 0.21755 0.0
H2277 H 0.67436 0.24828 0.19425 0.0
H2278 H 0.6301 0.22817 0.235 0.0
H2279 H 0.65548 0.21915 0.25785 0.0
H2280 H 0.61935 0.2161 0.19627 0.0
H2281 H 0.64518 0.27978 0.23593 0.0
H2282 H 0.67106 0.30615 0.24949 0.0
H2283 H 0.68527 0.31792 0.18856 0.0
H2284 H 0.65966 0.29134 0.1746 0.0
H2285 H 0.5396 0.27193 0.17207 0.0
H2286 H 0.56712 0.25964 0.18933 0.0
H2287 H 0.60526 0.27683 0.14169 0.0
H2288 H 0.57773 0.28921 0.12422 0.0
H2289 H 0.6204 0.28944 0.18093 0.0
H2290 H 0.59197 0.22692 0.14189 0.0
H2291 H 0.56534 0.20095 0.12952 0.0
H2292 H 0.55504 0.18769 0.19078 0.0
H2293 H 0.58143 0.21381 0.20357 0.0
C2294 C 0.68447 0.23684 0.22119 0.0
C2295 C 0.67928 0.22887 0.2393 0.0
C2296 C 0.67008 0.24184 0.20805 0.0
C2297 C 0.65034 0.23916 0.21305 0.0
C2298 C 0.64522 0.23038 0.23083 0.0
C2299 C 0.65961 0.22528 0.24387 0.0
C2300 C 0.635 0.24639 0.20037 0.0
C2301 C 0.61952 0.23217 0.19304 0.0
C2302 C 0.63539 0.26728 0.19584 0.0
C2303 C 0.65065 0.28341 0.20421 0.0
C2304 C 0.65392 0.28788 0.22541 0.0
C2305 C 0.66853 0.30287 0.23317 0.0
C2306 C 0.67983 0.31367 0.2199 0.0
C2307 C 0.67652 0.30952 0.19883 0.0
C2308 C 0.66196 0.29449 0.19098 0.0
C2309 C 0.55383 0.27317 0.16525 0.0
C2310 C 0.55646 0.2815 0.14672 0.0
C2311 C 0.56953 0.26604 0.1751 0.0
C2312 C 0.58817 0.26711 0.16665 0.0
C2313 C 0.59096 0.2758 0.14839 0.0
C2314 C 0.57521 0.28283 0.13844 0.0
C2315 C 0.6047 0.2592 0.17703 0.0
C2316 C 0.62037 0.27332 0.18396 0.0
C2317 C 0.60439 0.23828 0.18137 0.0
C2318 C 0.58858 0.22246 0.17371 0.0
C2319 C 0.58393 0.21858 0.15275 0.0
C2320 C 0.56889 0.20381 0.14566 0.0
C2321 C 0.55847 0.19271 0.15936 0.0
C2322 C 0.56311 0.19631 0.18018 0.0
C2323 C 0.57812 0.21108 0.18736 0.0
H2324 H 0.54684 0.18128 0.15384 0.0
H2325 H 0.69113 0.32528 0.22593 0.0
H2326 H 0.45933 0.11065 0.95507 0.0
H2327 H 0.47431 0.14185 0.97628 0.0
H2328 H 0.48174 0.10518 0.02549 0.0
H2329 H 0.46743 0.07401 0.00406 0.0
H2330 H 0.45421 0.13963 0.03057 0.0
H2331 H 0.51867 0.12325 0.01522 0.0
H2332 H 0.54784 0.11482 0.99514 0.0
H2333 H 0.54774 0.1736 0.97131 0.0
H2334 H 0.51823 0.18219 0.99085 0.0
H2335 H 0.51011 0.23484 0.09361 0.0
H2336 H 0.51101 0.20106 0.07186 0.0
H2337 H 0.45887 0.21357 0.04076 0.0
H2338 H 0.45772 0.24708 0.06239 0.0
H2339 H 0.51252 0.18886 0.0299 0.0
H2340 H 0.42937 0.16944 0.03429 0.0
H2341 H 0.40249 0.17684 0.05821 0.0
H2342 H 0.44283 0.18631 0.10869 0.0
H2343 H 0.4699 0.17866 0.08511 0.0
C2344 C 0.46501 0.10917 0.97007 0.0
C2345 C 0.46203 0.09021 0.97819 0.0
C2346 C 0.47351 0.12691 0.98216 0.0
C2347 C 0.47901 0.12576 0.00245 0.0
C2348 C 0.47764 0.10633 0.00985 0.0
C2349 C 0.46943 0.08862 0.99769 0.0
C2350 C 0.48213 0.14513 0.017 0.0
C2351 C 0.46698 0.15039 0.03044 0.0
C2352 C 0.49898 0.15884 0.01706 0.0
C2353 C 0.51605 0.15325 0.00434 0.0
C2354 C 0.52461 0.13422 0.0054 0.0
C2355 C 0.54128 0.12945 0.99419 0.0
C2356 C 0.54966 0.14369 0.98201 0.0
C2357 C 0.54125 0.16261 0.98081 0.0
C2358 C 0.52452 0.16741 0.99191 0.0
C2359 C 0.49889 0.23044 0.08206 0.0
C2360 C 0.48372 0.24358 0.07989 0.0
C2361 C 0.4995 0.21119 0.06959 0.0
C2362 C 0.48489 0.20474 0.05487 0.0
C2363 C 0.47015 0.21815 0.05221 0.0
C2364 C 0.46952 0.23732 0.06461 0.0
C2365 C 0.48429 0.1836 0.04292 0.0
C2366 C 0.4998 0.17805 0.02999 0.0
C2367 C 0.46792 0.16931 0.04355 0.0
C2368 C 0.45168 0.17366 0.05789 0.0
C2369 C 0.43249 0.17301 0.0505 0.0
C2370 C 0.41722 0.17726 0.064 0.0
C2371 C 0.42096 0.1821 0.08495 0.0
C2372 C 0.43996 0.18263 0.09245 0.0
C2373 C 0.45527 0.17837 0.07902 0.0
H2374 H 0.40912 0.18541 0.09537 0.0
H2375 H 0.56269 0.14007 0.97352 0.0
H2376 H 0.25857 0.27625 0.7321 0.0
H2377 H 0.28033 0.30824 0.73339 0.0
H2378 H 0.23242 0.34198 0.71568 0.0
H2379 H 0.21075 0.31018 0.71513 0.0
H2380 H 0.29313 0.33788 0.7099 0.0
H2381 H 0.23207 0.38741 0.74366 0.0
H2382 H 0.20165 0.38393 0.76298 0.0
H2383 H 0.2234 0.33302 0.79011 0.0
H2384 H 0.25384 0.33606 0.77077 0.0
H2385 H 0.32872 0.44786 0.73121 0.0
H2386 H 0.31124 0.41435 0.7178 0.0
H2387 H 0.30334 0.39985 0.77933 0.0
H2388 H 0.32015 0.43307 0.79266 0.0
H2389 H 0.27019 0.39497 0.76002 0.0
H2390 H 0.33542 0.37475 0.74545 0.0
H2391 H 0.36774 0.37744 0.72971 0.0
H2392 H 0.34129 0.3683 0.67003 0.0
H2393 H 0.30878 0.36583 0.68545 0.0
C2394 C 0.25298 0.29043 0.72796 0.0
C2395 C 0.23314 0.29102 0.72361 0.0
C2396 C 0.26533 0.30865 0.72868 0.0
C2397 C 0.25793 0.32763 0.72501 0.0
C2398 C 0.2384 0.32765 0.71893 0.0
C2399 C 0.22606 0.30954 0.71849 0.0
C2400 C 0.26987 0.34774 0.72992 0.0
C2401 C 0.28809 0.35044 0.72076 0.0
C2402 C 0.26346 0.36407 0.74426 0.0
C2403 C 0.2451 0.36184 0.75564 0.0
C2404 C 0.23031 0.37544 0.75371 0.0
C2405 C 0.21306 0.37351 0.76461 0.0
C2406 C 0.21055 0.35817 0.77767 0.0
C2407 C 0.2253 0.34477 0.77987 0.0
C2408 C 0.24251 0.34652 0.76887 0.0
C2409 C 0.32341 0.43737 0.74179 0.0
C2410 C 0.32558 0.44325 0.763 0.0
C2411 C 0.31347 0.41822 0.73412 0.0
C2412 C 0.30585 0.4046 0.74757 0.0
C2413 C 0.30884 0.41015 0.76865 0.0
C2414 C 0.3185 0.42921 0.77625 0.0
C2415 C 0.29365 0.38517 0.74025 0.0
C2416 C 0.27522 0.3826 0.74893 0.0
C2417 C 0.30015 0.3689 0.72587 0.0
C2418 C 0.31967 0.37035 0.71661 0.0
C2419 C 0.33649 0.3735 0.72898 0.0
C2420 C 0.35485 0.37494 0.72012 0.0
C2421 C 0.35657 0.37311 0.69888 0.0
C2422 C 0.33993 0.36976 0.68647 0.0
C2423 C 0.32154 0.36832 0.69526 0.0
H2424 H 0.37079 0.37423 0.69205 0.0
H2425 H 0.19721 0.35673 0.78613 0.0
H2426 H 0.24683 0.70664 0.76239 0.0
H2427 H 0.27079 0.68039 0.76391 0.0
H2428 H 0.2374 0.6544 0.81091 0.0
H2429 H 0.21343 0.68073 0.80927 0.0
H2430 H 0.27702 0.65449 0.81767 0.0
H2431 H 0.23134 0.63318 0.7621 0.0
H2432 H 0.21373 0.63782 0.73065 0.0
H2433 H 0.26784 0.64385 0.69916 0.0
H2434 H 0.28579 0.63949 0.73053 0.0
H2435 H 0.30064 0.55012 0.80927 0.0
H2436 H 0.28458 0.58246 0.80898 0.0
H2437 H 0.32142 0.59874 0.75996 0.0
H2438 H 0.33763 0.56592 0.75995 0.0
H2439 H 0.28376 0.60626 0.7534 0.0
H2440 H 0.32935 0.6235 0.80817 0.0
H2441 H 0.34679 0.6188 0.83968 0.0
H2442 H 0.29327 0.62062 0.87283 0.0
H2443 H 0.27544 0.62503 0.84144 0.0
C2444 C 0.24487 0.6955 0.77325 0.0
C2445 C 0.22832 0.69546 0.78559 0.0
C2446 C 0.25848 0.68052 0.77409 0.0
C2447 C 0.25569 0.66519 0.78726 0.0
C2448 C 0.2398 0.66604 0.80059 0.0
C2449 C 0.22618 0.68106 0.79973 0.0
C2450 C 0.26846 0.64741 0.78606 0.0
C2451 C 0.27841 0.64386 0.80368 0.0
C2452 C 0.27069 0.63387 0.76763 0.0
C2453 C 0.25991 0.63623 0.7487 0.0
C2454 C 0.23949 0.63563 0.7485 0.0
C2455 C 0.22944 0.63818 0.73069 0.0
C2456 C 0.23966 0.6412 0.71294 0.0
C2457 C 0.25994 0.64156 0.71294 0.0
C2458 C 0.27006 0.63902 0.73072 0.0
C2459 C 0.30543 0.5605 0.79838 0.0
C2460 C 0.32055 0.55541 0.78468 0.0
C2461 C 0.29626 0.57911 0.79834 0.0
C2462 C 0.30203 0.59326 0.78475 0.0
C2463 C 0.31684 0.58812 0.77071 0.0
C2464 C 0.32608 0.56937 0.77072 0.0
C2465 C 0.29214 0.61311 0.78512 0.0
C2466 C 0.28266 0.61704 0.76735 0.0
C2467 C 0.29036 0.62701 0.80342 0.0
C2468 C 0.30104 0.62445 0.82239 0.0
C2469 C 0.32127 0.62275 0.82214 0.0
C2470 C 0.33123 0.62016 0.83999 0.0
C2471 C 0.32114 0.61938 0.85824 0.0
C2472 C 0.30107 0.62123 0.85868 0.0
C2473 C 0.29103 0.6238 0.84086 0.0
H2474 H 0.32888 0.61737 0.87204 0.0
H2475 H 0.23186 0.6432 0.69917 0.0
H2476 H 0.92037 0.53142 0.50455 0.0
H2477 H 0.89335 0.50651 0.51071 0.0
H2478 H 0.87285 0.50609 0.44886 0.0
H2479 H 0.89947 0.53184 0.44309 0.0
H2480 H 0.84279 0.50532 0.47415 0.0
H2481 H 0.89975 0.46727 0.46167 0.0
H2482 H 0.93379 0.45936 0.46668 0.0
H2483 H 0.92161 0.44982 0.52867 0.0
H2484 H 0.88755 0.458 0.52411 0.0
H2485 H 0.81312 0.38717 0.48141 0.0
H2486 H 0.83607 0.4156 0.47454 0.0
H2487 H 0.80293 0.45985 0.51241 0.0
H2488 H 0.77935 0.43131 0.51878 0.0
H2489 H 0.85952 0.43913 0.49852 0.0
H2490 H 0.81063 0.50853 0.49724 0.0
H2491 H 0.77695 0.51474 0.48823 0.0
H2492 H 0.77332 0.45783 0.44625 0.0
H2493 H 0.80704 0.45143 0.45482 0.0
C2494 C 0.90987 0.52624 0.49244 0.0
C2495 C 0.9119 0.53345 0.47336 0.0
C2496 C 0.89456 0.51191 0.49588 0.0
C2497 C 0.8812 0.50423 0.48017 0.0
C2498 C 0.88297 0.5118 0.46121 0.0
C2499 C 0.89822 0.5263 0.45784 0.0
C2500 C 0.86596 0.48759 0.48324 0.0
C2501 C 0.84641 0.49085 0.47951 0.0
C2502 C 0.87071 0.46854 0.48985 0.0
C2503 C 0.89115 0.46344 0.4926 0.0
C2504 C 0.90437 0.46362 0.47641 0.0
C2505 C 0.92366 0.45908 0.47916 0.0
C2506 C 0.92987 0.45413 0.498 0.0
C2507 C 0.91678 0.45368 0.5141 0.0
C2508 C 0.89748 0.45826 0.51143 0.0
C2509 C 0.81059 0.40296 0.4882 0.0
C2510 C 0.79444 0.40698 0.50072 0.0
C2511 C 0.82378 0.41923 0.48428 0.0
C2512 C 0.82129 0.43991 0.49292 0.0
C2513 C 0.80504 0.44407 0.5053 0.0
C2514 C 0.79161 0.42775 0.509 0.0
C2515 C 0.83622 0.45678 0.48949 0.0
C2516 C 0.8558 0.4536 0.49323 0.0
C2517 C 0.83149 0.47558 0.4823 0.0
C2518 C 0.81128 0.4794 0.47686 0.0
C2519 C 0.80266 0.49738 0.48604 0.0
C2520 C 0.78356 0.50093 0.48102 0.0
C2521 C 0.77298 0.48665 0.46674 0.0
C2522 C 0.7815 0.46884 0.45738 0.0
C2523 C 0.8006 0.46523 0.46233 0.0
H2524 H 0.75819 0.48941 0.46289 0.0
H2525 H 0.94481 0.45062 0.5001 0.0
H2526 H 0.773 0.83473 0.81923 0.0
H2527 H 0.74805 0.85855 0.81284 0.0
H2528 H 0.79052 0.91109 0.82394 0.0
H2529 H 0.81535 0.88705 0.83085 0.0
H2530 H 0.75592 0.92068 0.84088 0.0
H2531 H 0.77788 0.89163 0.77586 0.0
H2532 H 0.78685 0.86371 0.74906 0.0
H2533 H 0.72815 0.83675 0.74658 0.0
H2534 H 0.71889 0.86429 0.77366 0.0
H2535 H 0.68751 0.98318 0.79638 0.0
H2536 H 0.71748 0.96619 0.80242 0.0
H2537 H 0.68475 0.90653 0.79917 0.0
H2538 H 0.65498 0.92318 0.79327 0.0
H2539 H 0.71828 0.90489 0.77596 0.0
H2540 H 0.69814 0.93229 0.84432 0.0
H2541 H 0.6898 0.96048 0.87119 0.0
H2542 H 0.74623 0.99166 0.86625 0.0
H2543 H 0.7548 0.96377 0.83913 0.0
C2544 C 0.77681 0.8514 0.82052 0.0
C2545 C 0.79589 0.85923 0.82548 0.0
C2546 C 0.76269 0.86497 0.81675 0.0
C2547 C 0.76752 0.88657 0.81757 0.0
C2548 C 0.78651 0.89448 0.82315 0.0
C2549 C 0.80064 0.88085 0.82703 0.0
C2550 C 0.75271 0.90063 0.81213 0.0
C2551 C 0.74793 0.91748 0.82653 0.0
C2552 C 0.74229 0.89646 0.7934 0.0
C2553 C 0.74772 0.87998 0.7769 0.0
C2554 C 0.7669 0.87968 0.7697 0.0
C2555 C 0.77204 0.86392 0.75445 0.0
C2556 C 0.75809 0.84845 0.74614 0.0
C2557 C 0.73895 0.84874 0.75304 0.0
C2558 C 0.73374 0.86444 0.76833 0.0
C2559 C 0.68673 0.96645 0.79696 0.0
C2560 C 0.66884 0.95455 0.79439 0.0
C2561 C 0.70384 0.95679 0.80045 0.0
C2562 C 0.70329 0.93511 0.80126 0.0
C2563 C 0.68549 0.92326 0.79854 0.0
C2564 C 0.66846 0.93286 0.79525 0.0
C2565 C 0.72109 0.92445 0.80498 0.0
C2566 C 0.72648 0.90827 0.79018 0.0
C2567 C 0.73216 0.92938 0.82323 0.0
C2568 C 0.72701 0.9461 0.83953 0.0
C2569 C 0.7087 0.94526 0.84883 0.0
C2570 C 0.70394 0.96116 0.86413 0.0
C2571 C 0.71745 0.97789 0.87037 0.0
C2572 C 0.73576 0.97872 0.86137 0.0
C2573 C 0.74058 0.96286 0.84604 0.0
H2574 H 0.71374 0.99018 0.88223 0.0
H2575 H 0.76209 0.83627 0.73433 0.0
H2576 H 0.59098 0.48621 0.96253 0.0
H2577 H 0.62378 0.50266 0.96935 0.0
H2578 H 0.60104 0.54731 0.01634 0.0
H2579 H 0.56811 0.53102 0.00882 0.0
H2580 H 0.62204 0.56712 0.99176 0.0
H2581 H 0.63285 0.50988 0.02751 0.0
H2582 H 0.63247 0.47303 0.03375 0.0
H2583 H 0.67024 0.4593 0.9828 0.0
H2584 H 0.67062 0.49601 0.97605 0.0
H2585 H 0.72053 0.6123 0.00721 0.0
H2586 H 0.68874 0.5952 0.01388 0.0
H2587 H 0.69567 0.54872 0.96167 0.0
H2588 H 0.72719 0.56559 0.95485 0.0
H2589 H 0.68307 0.5313 0.99613 0.0
H2590 H 0.66726 0.58773 0.95809 0.0
H2591 H 0.6673 0.62471 0.95226 0.0
H2592 H 0.63872 0.63989 0.00952 0.0
H2593 H 0.63874 0.603 0.01579 0.0
C2594 C 0.59325 0.49907 0.97476 0.0
C2595 C 0.57735 0.50721 0.98546 0.0
C2596 C 0.61192 0.5085 0.97869 0.0
C2597 C 0.61499 0.52614 0.99355 0.0
C2598 C 0.59909 0.53368 0.00489 0.0
C2599 C 0.58037 0.52431 0.0008 0.0
C2600 C 0.63433 0.53795 0.99551 0.0
C2601 C 0.63535 0.55935 0.99325 0.0
C2602 C 0.65177 0.52785 0.99717 0.0
C2603 C 0.65168 0.50572 0.00121 0.0
C2604 C 0.64097 0.49898 0.01754 0.0
C2605 C 0.64077 0.47811 0.02118 0.0
C2606 C 0.65131 0.46382 0.00866 0.0
C2607 C 0.66209 0.47039 0.99249 0.0
C2608 C 0.66233 0.49124 0.98877 0.0
C2609 C 0.71522 0.5985 0.9971 0.0
C2610 C 0.72639 0.59038 0.98044 0.0
C2611 C 0.69709 0.58874 0.00095 0.0
C2612 C 0.68988 0.57066 0.98828 0.0
C2613 C 0.701 0.56257 0.97171 0.0
C2614 C 0.71899 0.57236 0.96775 0.0
C2615 C 0.67063 0.56017 0.99188 0.0
C2616 C 0.66968 0.53906 0.99513 0.0
C2617 C 0.65325 0.57055 0.99132 0.0
C2618 C 0.65323 0.59269 0.98753 0.0
C2619 C 0.66115 0.59899 0.96952 0.0
C2620 C 0.66113 0.61992 0.96612 0.0
C2621 C 0.65308 0.63466 0.98054 0.0
C2622 C 0.64499 0.62847 0.99838 0.0
C2623 C 0.645 0.60756 0.00186 0.0
H2624 H 0.65307 0.65085 0.97788 0.0
H2625 H 0.65116 0.44767 0.0115 0.0
H2626 H 0.28569 0.67582 0.24427 0.0
H2627 H 0.26668 0.64452 0.25282 0.0
H2628 H 0.22534 0.68412 0.28457 0.0
H2629 H 0.24443 0.71521 0.27603 0.0
H2630 H 0.23131 0.64963 0.30404 0.0
H2631 H 0.21736 0.66504 0.23604 0.0
H2632 H 0.22598 0.67144 0.20106 0.0
H2633 H 0.24794 0.61032 0.18918 0.0
H2634 H 0.2397 0.60368 0.22423 0.0
H2635 H 0.14405 0.5853 0.29941 0.0
H2636 H 0.16918 0.61303 0.29579 0.0
H2637 H 0.20362 0.5683 0.26031 0.0
H2638 H 0.17836 0.54052 0.26353 0.0
H2639 H 0.20387 0.60336 0.24339 0.0
H2640 H 0.21508 0.58666 0.31066 0.0
H2641 H 0.20649 0.58047 0.3457 0.0
H2642 H 0.18986 0.64373 0.35921 0.0
H2643 H 0.1981 0.65022 0.32414 0.0
C2644 C 0.27287 0.67769 0.25361 0.0
C2645 C 0.2664 0.69771 0.25956 0.0
C2646 C 0.26195 0.65991 0.25834 0.0
C2647 C 0.24444 0.662 0.26909 0.0
C2648 C 0.23878 0.68213 0.27627 0.0
C2649 C 0.24962 0.69983 0.27143 0.0
C2650 C 0.23102 0.64344 0.27122 0.0
C2651 C 0.22523 0.63955 0.2908 0.0
C2652 C 0.22335 0.63007 0.25394 0.0
C2653 C 0.22811 0.63396 0.23281 0.0
C2654 C 0.22415 0.65303 0.22601 0.0
C2655 C 0.22896 0.65669 0.20617 0.0
C2656 C 0.23756 0.64132 0.19293 0.0
C2657 C 0.24132 0.62222 0.19948 0.0
C2658 C 0.23658 0.6185 0.21932 0.0
C2659 C 0.15694 0.58134 0.2908 0.0
C2660 C 0.15919 0.56064 0.28182 0.0
C2661 C 0.17138 0.59721 0.28885 0.0
C2662 C 0.18849 0.59272 0.27808 0.0
C2663 C 0.19061 0.57215 0.26878 0.0
C2664 C 0.17614 0.55627 0.27065 0.0
C2665 C 0.20398 0.60956 0.27627 0.0
C2666 C 0.21012 0.6132 0.2567 0.0
C2667 C 0.21196 0.62268 0.29358 0.0
C2668 C 0.20706 0.61887 0.31471 0.0
C2669 C 0.20946 0.59921 0.32105 0.0
C2670 C 0.20468 0.59565 0.34093 0.0
C2671 C 0.1976 0.61168 0.35466 0.0
C2672 C 0.19533 0.63132 0.34855 0.0
C2673 C 0.20008 0.63496 0.32868 0.0
H2674 H 0.1939 0.6089 0.37004 0.0
H2675 H 0.24127 0.64418 0.17757 0.0
H2676 H 0.91576 0.4654 0.05752 0.0
H2677 H 0.89152 0.48883 0.04817 0.0
H2678 H 0.93624 0.5388 0.04856 0.0
H2679 H 0.96067 0.51507 0.05681 0.0
H2680 H 0.89085 0.54355 0.06964 0.0
H2681 H 0.93194 0.52829 0.00798 0.0
H2682 H 0.94841 0.50255 0.98416 0.0
H2683 H 0.89436 0.46597 0.97203 0.0
H2684 H 0.87766 0.49138 0.99605 0.0
H2685 H 0.83787 0.61279 0.01785 0.0
H2686 H 0.86312 0.59409 0.03255 0.0
H2687 H 0.84053 0.5362 0.99765 0.0
H2688 H 0.81625 0.55504 0.98208 0.0
H2689 H 0.87641 0.53664 0.99532 0.0
H2690 H 0.83374 0.55076 0.05202 0.0
H2691 H 0.81486 0.57253 0.07728 0.0
H2692 H 0.86738 0.60677 0.10077 0.0
H2693 H 0.88656 0.58536 0.07546 0.0
C2694 C 0.92035 0.48139 0.05561 0.0
C2695 C 0.94005 0.48843 0.05768 0.0
C2696 C 0.90653 0.49477 0.05051 0.0
C2697 C 0.91216 0.51549 0.04779 0.0
C2698 C 0.93166 0.52288 0.05079 0.0
C2699 C 0.94555 0.50937 0.05552 0.0
C2700 C 0.89801 0.52866 0.03979 0.0
C2701 C 0.8878 0.54239 0.05339 0.0
C2702 C 0.89371 0.52649 0.01871 0.0
C2703 C 0.90363 0.51158 0.0039 0.0
C2704 C 0.92362 0.51467 1.00033 0.0
C2705 C 0.93299 0.50017 0.98679 0.0
C2706 C 0.92245 0.4826 0.97663 0.0
C2707 C 0.90251 0.47956 0.97993 0.0
C2708 C 0.89309 0.49401 0.99349 0.0
C2709 C 0.83836 0.59608 0.01338 0.0
C2710 C 0.82519 0.58537 0.99877 0.0
C2711 C 0.85269 0.58535 0.02188 0.0
C2712 C 0.85366 0.56361 0.01644 0.0
C2713 C 0.84026 0.55295 0.00205 0.0
C2714 C 0.82633 0.56374 0.99317 0.0
C2715 C 0.86889 0.55187 0.02513 0.0
C2716 C 0.87937 0.5382 0.01161 0.0
C2717 C 0.87304 0.55381 0.04638 0.0
C2718 C 0.86156 0.56661 0.0617 0.0
C2719 C 0.84125 0.56303 0.06248 0.0
C2720 C 0.8305 0.57529 0.07682 0.0
C2721 C 0.83991 0.59107 0.09058 0.0
C2722 C 0.86011 0.59456 0.09008 0.0
C2723 C 0.87093 0.58236 0.07575 0.0
H2724 H 0.83155 0.60055 0.10166 0.0
H2725 H 0.92972 0.47138 0.96616 0.0
H2726 H 0.05521 0.00177 0.01226 0.0
H2727 H 0.0842 0.98247 0.00297 0.0
H2728 H 0.11061 0.00725 0.06115 0.0
H2729 H 0.08191 0.02689 0.07 0.0
H2730 H 0.13803 0.00287 0.03319 0.0
H2731 H 0.08441 0.95977 0.05411 0.0
H2732 H 0.05073 0.94424 0.05291 0.0
H2733 H 0.05911 0.91502 0.99158 0.0
H2734 H 0.09279 0.93068 0.9923 0.0
H2735 H 0.19902 0.92037 0.04785 0.0
H2736 H 0.17294 0.94463 0.05142 0.0
H2737 H 0.15412 0.92295 0.98955 0.0
H2738 H 0.18024 0.89886 0.98578 0.0
H2739 H 0.12336 0.92609 0.01748 0.0
H2740 H 0.17886 0.9683 0.99866 0.0
H2741 H 0.21263 0.98356 0.0019 0.0
H2742 H 0.20082 0.01386 0.06204 0.0
H2743 H 0.16704 0.99851 0.05927 0.0
C2744 C 0.06755 0.00361 0.02265 0.0
C2745 C 0.06639 0.01565 0.04185 0.0
C2746 C 0.084 0.99242 0.0175 0.0
C2747 C 0.09946 0.99295 0.03157 0.0
C2748 C 0.0989 0.00641 0.05006 0.0
C2749 C 0.08253 0.01763 0.05513 0.0
C2750 C 0.11529 0.97817 0.02802 0.0
C2751 C 0.13479 0.98608 0.02987 0.0
C2752 C 0.1112 0.95621 0.02359 0.0
C2753 C 0.09104 0.94658 0.02318 0.0
C2754 C 0.07903 0.95014 0.04032 0.0
C2755 C 0.05995 0.94131 0.03973 0.0
C2756 C 0.05277 0.92869 0.02216 0.0
C2757 C 0.06469 0.92483 0.00516 0.0
C2758 C 0.08377 0.93368 0.00565 0.0
C2759 C 0.18927 0.92068 0.03504 0.0
C2760 C 0.19176 0.90767 0.01652 0.0
C2761 C 0.17443 0.93464 0.03706 0.0
C2762 C 0.16166 0.93576 0.02069 0.0
C2763 C 0.16382 0.92242 0.00237 0.0
C2764 C 0.17879 0.90867 1.00024 0.0
C2765 C 0.14604 0.9508 0.02262 0.0
C2766 C 0.12658 0.9429 0.02059 0.0
C2767 C 0.15019 0.97272 0.02718 0.0
C2768 C 0.17046 0.98208 0.02883 0.0
C2769 C 0.1835 0.97807 0.01264 0.0
C2770 C 0.20264 0.98677 0.01438 0.0
C2771 C 0.20888 0.99963 0.03219 0.0
C2772 C 0.19598 0.00387 0.04826 0.0
C2773 C 0.17682 0.99519 0.04661 0.0
H2774 H 0.22371 0.00634 0.03351 0.0
H2775 H 0.03799 0.92186 0.02173 0.0
loop_
_geom_bond_atom_site_label_1
_geom_bond_atom_site_label_2
_geom_bond_distance
_geom_bond_site_symmetry_2
_ccdc_geom_bond_type
C0 N1 1.317 . S
C0 N2 1.348 . S
C0 C3 1.485 1_545 S
N1 C0 1.317 . S
N1 N5 1.370 . S
N2 C0 1.348 . S
N2 C4 1.346 . S
C3 C0 1.485 1_565 S
C3 H7 0.960 . S
C3 H8 0.961 . S
C3 H9 0.960 . S
C4 N2 1.346 . S
C4 N5 1.307 . S
C4 C6 1.486 1_455 S
N5 N1 1.370 . S
N5 C4 1.307 . S
C6 C4 1.486 1_655 S
C6 H10 0.960 . S
C6 H11 0.960 . S
C6 H12 0.959 . S
H7 C3 0.960 . S
H8 C3 0.961 . S
H9 C3 0.960 . S
H10 C6 0.960 . S
H11 C6 0.960 . S
H12 C6 0.959 . S
C13 N14 1.317 . S
C13 N15 1.348 . S
C13 C16 1.485 . S
N14 C13 1.317 . S
N14 N18 1.370 . S
N15 C13 1.348 . S
N15 C17 1.346 . S
C16 C13 1.485 . S
C16 H20 0.960 . S
C16 H21 0.961 . S
C16 H22 0.960 . S
C17 N15 1.346 . S
C17 N18 1.307 . S
C17 C19 1.486 . S
N18 N14 1.370 . S
N18 C17 1.307 . S
C19 C17 1.486 . S
C19 H23 0.960 . S
C19 H24 0.960 . S
C19 H25 0.959 . S
H20 C16 0.960 . S
H21 C16 0.961 . S
H22 C16 0.960 . S
H23 C19 0.960 . S
H24 C19 0.960 . S
H25 C19 0.959 . S
C26 N27 1.317 . S
C26 N28 1.348 . S
C26 C29 1.485 . S
N27 C26 1.317 . S
N27 N31 1.370 . S
N28 C26 1.348 . S
N28 C30 1.346 . S
C29 C26 1.485 . S
C29 H33 0.960 . S
C29 H34 0.961 . S
C29 H35 0.960 . S
C30 N28 1.346 . S
C30 N31 1.307 . S
C30 C32 1.486 . S
N31 N27 1.370 . S
N31 C30 1.307 . S
C32 C30 1.486 . S
C32 H36 0.960 . S
C32 H37 0.960 . S
C32 H38 0.959 . S
H33 C29 0.960 . S
H34 C29 0.961 . S
H35 C29 0.960 . S
H36 C32 0.960 . S
H37 C32 0.960 . S
H38 C32 0.959 . S
C39 N40 1.317 . S
C39 N41 1.348 . S
C39 C42 1.485 . S
N40 C39 1.317 . S
N40 N44 1.370 . S
N41 C39 1.348 . S
N41 C43 1.346 . S
C42 C39 1.485 . S
C42 H46 0.960 . S
C42 H47 0.961 . S
C42 H48 0.960 . S
C43 N41 1.346 . S
C43 N44 1.307 . S
C43 C45 1.486 . S
N44 N40 1.370 . S
N44 C43 1.307 . S
C45 C43 1.486 . S
C45 H49 0.960 . S
C45 H50 0.960 . S
C45 H51 0.959 . S
H46 C42 0.960 . S
H47 C42 0.961 . S
H48 C42 0.960 . S
H49 C45 0.960 . S
H50 C45 0.960 . S
H51 C45 0.959 . S
C52 N53 1.317 . S
C52 N54 1.348 . S
C52 C55 1.485 . S
N53 C52 1.317 . S
N53 N57 1.370 . S
N54 C52 1.348 . S
N54 C56 1.346 . S
C55 C52 1.485 . S
C55 H59 0.960 . S
C55 H60 0.961 . S
C55 H61 0.960 . S
C56 N54 1.346 . S
C56 N57 1.307 . S
C56 C58 1.486 . S
N57 N53 1.370 . S
N57 C56 1.307 . S
C58 C56 1.486 . S
C58 H62 0.960 1_565 S
C58 H63 0.960 . S
C58 H64 0.959 . S
H59 C55 0.960 . S
H60 C55 0.961 . S
H61 C55 0.960 . S
H62 C58 0.960 1_545 S
H63 C58 0.960 . S
H64 C58 0.959 . S
C65 N66 1.317 . S
C65 N67 1.348 . S
C65 C68 1.485 . S
N66 C65 1.317 . S
N66 N70 1.370 . S
N67 C65 1.348 . S
N67 C69 1.346 . S
C68 C65 1.485 . S
C68 H72 0.960 . S
C68 H73 0.961 . S
C68 H74 0.960 . S
C69 N67 1.346 . S
C69 N70 1.307 . S
C69 C71 1.486 . S
N70 N66 1.370 . S
N70 C69 1.307 . S
C71 C69 1.486 . S
C71 H75 0.960 . S
C71 H76 0.960 . S
C71 H77 0.959 . S
H72 C68 0.960 . S
H73 C68 0.961 . S
H74 C68 0.960 . S
H75 C71 0.960 . S
H76 C71 0.960 . S
H77 C71 0.959 . S
C78 N79 1.317 . S
C78 N80 1.348 . S
C78 C81 1.485 . S
N79 C78 1.317 . S
N79 N83 1.370 . S
N80 C78 1.348 . S
N80 C82 1.346 . S
C81 C78 1.485 . S
C81 H85 0.960 . S
C81 H86 0.961 . S
C81 H87 0.960 . S
C82 N80 1.346 . S
C82 N83 1.307 . S
C82 C84 1.486 . S
N83 N79 1.370 . S
N83 C82 1.307 . S
C84 C82 1.486 . S
C84 H88 0.960 . S
C84 H89 0.960 . S
C84 H90 0.959 . S
H85 C81 0.960 . S
H86 C81 0.961 . S
H87 C81 0.960 . S
H88 C84 0.960 . S
H89 C84 0.960 . S
H90 C84 0.959 . S
C91 N92 1.317 . S
C91 N93 1.348 . S
C91 C94 1.485 . S
N92 C91 1.317 . S
N92 N96 1.370 . S
N93 C91 1.348 . S
N93 C95 1.346 . S
C94 C91 1.485 . S
C94 H98 0.960 . S
C94 H99 0.961 . S
C94 H100 0.960 . S
C95 N93 1.346 . S
C95 N96 1.307 . S
C95 C97 1.486 . S
N96 N92 1.370 . S
N96 C95 1.307 . S
C97 C95 1.486 . S
C97 H101 0.960 . S
C97 H102 0.960 . S
C97 H103 0.959 . S
H98 C94 0.960 . S
H99 C94 0.961 . S
H100 C94 0.960 . S
H101 C97 0.960 . S
H102 C97 0.960 . S
H103 C97 0.959 . S
C104 N105 1.317 . S
C104 N106 1.348 . S
C104 C107 1.485 . S
N105 C104 1.317 . S
N105 N109 1.370 . S
N106 C104 1.348 . S
N106 C108 1.346 . S
C107 C104 1.485 . S
C107 H111 0.960 . S
C107 H112 0.961 . S
C107 H113 0.960 . S
C108 N106 1.346 . S
C108 N109 1.307 . S
C108 C110 1.486 . S
N109 N105 1.370 . S
N109 C108 1.307 . S
C110 C108 1.486 . S
C110 H114 0.960 . S
C110 H115 0.960 . S
C110 H116 0.959 . S
H111 C107 0.960 . S
H112 C107 0.961 . S
H113 C107 0.960 . S
H114 C110 0.960 . S
H115 C110 0.960 . S
H116 C110 0.959 . S
C117 N118 1.317 . S
C117 N119 1.348 . S
C117 C120 1.485 . S
N118 C117 1.317 . S
N118 N122 1.370 . S
N119 C117 1.348 . S
N119 C121 1.346 . S
C120 C117 1.485 . S
C120 H124 0.960 . S
C120 H125 0.961 1_565 S
C120 H126 0.960 . S
C121 N119 1.346 . S
C121 N122 1.307 . S
C121 C123 1.486 . S
N122 N118 1.370 . S
N122 C121 1.307 . S
C123 C121 1.486 . S
C123 H127 0.960 . S
C123 H128 0.960 . S
C123 H129 0.959 . S
H124 C120 0.960 . S
H125 C120 0.961 1_545 S
H126 C120 0.960 . S
H127 C123 0.960 . S
H128 C123 0.960 . S
H129 C123 0.959 . S
C130 N131 1.317 . S
C130 N132 1.348 . S
C130 C133 1.485 . S
N131 C130 1.317 . S
N131 N135 1.370 . S
N132 C130 1.348 . S
N132 C134 1.346 . S
C133 C130 1.485 . S
C133 H137 0.960 . S
C133 H138 0.961 . S
C133 H139 0.960 . S
C134 N132 1.346 . S
C134 N135 1.307 . S
C134 C136 1.486 . S
N135 N131 1.370 . S
N135 C134 1.307 . S
C136 C134 1.486 . S
C136 H140 0.960 . S
C136 H141 0.960 . S
C136 H142 0.959 . S
H137 C133 0.960 . S
H138 C133 0.961 . S
H139 C133 0.960 . S
H140 C136 0.960 . S
H141 C136 0.960 . S
H142 C136 0.959 . S
C143 N144 1.317 . S
C143 N145 1.348 . S
C143 C146 1.485 . S
N144 C143 1.317 . S
N144 N148 1.370 . S
N145 C143 1.348 . S
N145 C147 1.346 . S
C146 C143 1.485 . S
C146 H150 0.960 . S
C146 H151 0.961 . S
C146 H152 0.960 . S
C147 N145 1.346 . S
C147 N148 1.307 . S
C147 C149 1.486 . S
N148 N144 1.370 . S
N148 C147 1.307 . S
C149 C147 1.486 . S
C149 H153 0.960 . S
C149 H154 0.960 . S
C149 H155 0.959 . S
H150 C146 0.960 . S
H151 C146 0.961 . S
H152 C146 0.960 . S
H153 C149 0.960 . S
H154 C149 0.960 . S
H155 C149 0.959 . S
C156 N157 1.317 . S
C156 N158 1.348 . S
C156 C159 1.485 . S
N157 C156 1.317 . S
N157 N161 1.370 . S
N158 C156 1.348 . S
N158 C160 1.346 . S
C159 C156 1.485 . S
C159 H163 0.960 . S
C159 H164 0.961 . S
C159 H165 0.960 . S
C160 N158 1.346 . S
C160 N161 1.307 . S
C160 C162 1.486 . S
N161 N157 1.370 . S
N161 C160 1.307 . S
C162 C160 1.486 . S
C162 H166 0.960 . S
C162 H167 0.960 . S
C162 H168 0.959 . S
H163 C159 0.960 . S
H164 C159 0.961 . S
H165 C159 0.960 . S
H166 C162 0.960 . S
H167 C162 0.960 . S
H168 C162 0.959 . S
C169 N170 1.317 . S
C169 N171 1.348 . S
C169 C172 1.485 . S
N170 C169 1.317 . S
N170 N174 1.370 . S
N171 C169 1.348 . S
N171 C173 1.346 . S
C172 C169 1.485 . S
C172 H176 0.960 . S
C172 H177 0.961 . S
C172 H178 0.960 . S
C173 N171 1.346 . S
C173 N174 1.307 . S
C173 C175 1.486 . S
N174 N170 1.370 . S
N174 C173 1.307 . S
C175 C173 1.486 . S
C175 H179 0.960 . S
C175 H180 0.960 . S
C175 H181 0.959 . S
H176 C172 0.960 . S
H177 C172 0.961 . S
H178 C172 0.960 . S
H179 C175 0.960 . S
H180 C175 0.960 . S
H181 C175 0.959 . S
C182 N183 1.317 . S
C182 N184 1.348 . S
C182 C185 1.485 . S
N183 C182 1.317 . S
N183 N187 1.370 . S
N184 C182 1.348 . S
N184 C186 1.346 . S
C185 C182 1.485 . S
C185 H189 0.960 . S
C185 H190 0.961 . S
C185 H191 0.960 . S
C186 N184 1.346 . S
C186 N187 1.307 . S
C186 C188 1.486 . S
N187 N183 1.370 . S
N187 C186 1.307 . S
C188 C186 1.486 . S
C188 H192 0.960 . S
C188 H193 0.960 . S
C188 H194 0.959 . S
H189 C185 0.960 . S
H190 C185 0.961 . S
H191 C185 0.960 . S
H192 C188 0.960 . S
H193 C188 0.960 . S
H194 C188 0.959 . S
C195 N196 1.317 . S
C195 N197 1.348 . S
C195 C198 1.485 . S
N196 C195 1.317 . S
N196 N200 1.370 . S
N197 C195 1.348 . S
N197 C199 1.346 . S
C198 C195 1.485 . S
C198 H202 0.960 . S
C198 H203 0.961 . S
C198 H204 0.960 . S
C199 N197 1.346 . S
C199 N200 1.307 . S
C199 C201 1.486 . S
N200 N196 1.370 . S
N200 C199 1.307 . S
C201 C199 1.486 . S
C201 H205 0.960 . S
C201 H206 0.960 . S
C201 H207 0.959 . S
H202 C198 0.960 . S
H203 C198 0.961 . S
H204 C198 0.960 . S
H205 C201 0.960 . S
H206 C201 0.960 . S
H207 C201 0.959 . S
Zn208 O211 2.031 . S
Zn208 O213 2.049 1_554 S
Zn208 O218 2.067 1_554 S
Zn209 O210 1.962 . S
Zn209 O212 1.986 . S
Zn209 O214 1.996 . S
Zn209 O217 1.943 1_554 S
O210 Zn209 1.962 . S
O210 C215 1.254 . S
O211 Zn208 2.031 . S
O211 C215 1.269 . S
O212 Zn209 1.986 . S
O212 C219 1.262 . S
O213 Zn208 2.049 1_556 S
O213 C221 1.275 . S
O214 Zn209 1.996 . S
O214 C221 1.227 1_554 S
C215 O210 1.254 . S
C215 O211 1.269 . S
C216 O217 1.249 . S
C216 O218 1.270 . S
O217 Zn209 1.943 1_556 S
O217 C216 1.249 . S
O218 Zn208 2.067 1_556 S
O218 C216 1.270 . S
C219 O212 1.262 . S
C219 O220 1.232 . S
O220 C219 1.232 . S
C221 O213 1.275 . S
C221 O214 1.227 1_556 S
Zn222 O225 2.031 . S
Zn222 O227 2.049 . S
Zn222 O232 2.067 . S
Zn223 O224 1.962 . S
Zn223 O226 1.986 . S
Zn223 O228 1.996 . S
Zn223 O231 1.943 . S
O224 Zn223 1.962 . S
O224 C229 1.254 . S
O225 Zn222 2.031 . S
O225 C229 1.269 . S
O226 Zn223 1.986 . S
O226 C233 1.262 . S
O227 Zn222 2.049 . S
O227 C235 1.260 . S
O228 Zn223 1.996 . S
O228 C235 1.257 . S
C229 O224 1.254 . S
C229 O225 1.269 . S
C230 O231 1.249 . S
C230 O232 1.270 . S
O231 Zn223 1.943 . S
O231 C230 1.249 . S
O232 Zn222 2.067 . S
O232 C230 1.270 . S
C233 O226 1.262 . S
C233 O234 1.232 . S
O234 C233 1.232 . S
C235 O227 1.260 . S
C235 O228 1.257 . S
Zn236 O239 2.031 . S
Zn236 O241 2.049 . S
Zn236 O246 2.067 . S
Zn237 O238 1.962 . S
Zn237 O240 1.986 . S
Zn237 O242 1.996 1_554 S
Zn237 O245 1.943 . S
O238 Zn237 1.962 . S
O238 C243 1.254 . S
O239 Zn236 2.031 . S
O239 C243 1.269 1_556 S
O240 Zn237 1.986 . S
O240 C247 1.262 . S
O241 Zn236 2.049 . S
O241 C249 1.260 . S
O242 Zn237 1.996 1_556 S
O242 C249 1.257 . S
C243 O238 1.254 . S
C243 O239 1.269 1_554 S
C244 O245 1.249 1_556 S
C244 O246 1.270 . S
O245 Zn237 1.943 . S
O245 C244 1.249 1_554 S
O246 Zn236 2.067 . S
O246 C244 1.270 . S
C247 O240 1.262 . S
C247 O248 1.232 . S
O248 C247 1.232 . S
C249 O241 1.260 . S
C249 O242 1.257 . S
Zn250 O253 2.031 . S
Zn250 O255 2.049 1_545 S
Zn250 O260 2.067 1_545 S
Zn251 O252 1.962 . S
Zn251 O254 1.986 . S
Zn251 O256 1.996 . S
Zn251 O259 1.943 1_545 S
O252 Zn251 1.962 . S
O252 C257 1.254 . S
O253 Zn250 2.031 . S
O253 C257 1.269 . S
O254 Zn251 1.986 . S
O254 C261 1.262 . S
O255 Zn250 2.049 1_565 S
O255 C263 1.264 . S
O256 Zn251 1.996 . S
O256 C263 1.249 1_545 S
C257 O252 1.254 . S
C257 O253 1.269 . S
C258 O259 1.249 . S
C258 O260 1.270 . S
O259 Zn251 1.943 1_565 S
O259 C258 1.249 . S
O260 Zn250 2.067 1_565 S
O260 C258 1.270 . S
C261 O254 1.262 . S
C261 O262 1.232 . S
O262 C261 1.232 . S
C263 O255 1.264 . S
C263 O256 1.249 1_565 S
Zn264 O267 2.031 . S
Zn264 O269 2.049 . S
Zn264 O274 2.067 . S
Zn265 O266 1.962 . S
Zn265 O268 1.986 . S
Zn265 O270 1.996 . S
Zn265 O273 1.943 . S
O266 Zn265 1.962 . S
O266 C271 1.254 . S
O267 Zn264 2.031 . S
O267 C271 1.269 . S
O268 Zn265 1.986 . S
O268 C275 1.262 . S
O269 Zn264 2.049 . S
O269 C277 1.260 . S
O270 Zn265 1.996 . S
O270 C277 1.257 . S
C271 O266 1.254 . S
C271 O267 1.269 . S
C272 O273 1.249 . S
C272 O274 1.270 . S
O273 Zn265 1.943 . S
O273 C272 1.249 . S
O274 Zn264 2.067 . S
O274 C272 1.270 . S
C275 O268 1.262 . S
C275 O276 1.232 . S
O276 C275 1.232 . S
C277 O269 1.260 . S
C277 O270 1.257 . S
Zn278 O281 2.031 . S
Zn278 O283 2.049 . S
Zn278 O288 2.067 . S
Zn279 O280 1.962 . S
Zn279 O282 1.986 . S
Zn279 O284 1.996 . S
Zn279 O287 1.943 . S
O280 Zn279 1.962 . S
O280 C285 1.254 . S
O281 Zn278 2.031 . S
O281 C285 1.269 . S
O282 Zn279 1.986 . S
O282 C289 1.262 . S
O283 Zn278 2.049 . S
O283 C291 1.260 . S
O284 Zn279 1.996 . S
O284 C291 1.257 . S
C285 O280 1.254 . S
C285 O281 1.269 . S
C286 O287 1.249 . S
C286 O288 1.270 . S
O287 Zn279 1.943 . S
O287 C286 1.249 . S
O288 Zn278 2.067 . S
O288 C286 1.270 . S
C289 O282 1.262 . S
C289 O290 1.232 . S
O290 C289 1.232 . S
C291 O283 1.260 . S
C291 O284 1.257 . S
Zn292 O295 2.031 . S
Zn292 O297 2.049 . S
Zn292 O302 2.067 . S
Zn293 O294 1.962 . S
Zn293 O296 1.986 . S
Zn293 O298 1.996 . S
Zn293 O301 1.943 . S
O294 Zn293 1.962 . S
O294 C299 1.254 . S
O295 Zn292 2.031 . S
O295 C299 1.269 . S
O296 Zn293 1.986 . S
O296 C303 1.262 . S
O297 Zn292 2.049 . S
O297 C305 1.260 . S
O298 Zn293 1.996 . S
O298 C305 1.257 . S
C299 O294 1.254 . S
C299 O295 1.269 . S
C300 O301 1.249 . S
C300 O302 1.270 . S
O301 Zn293 1.943 . S
O301 C300 1.249 . S
O302 Zn292 2.067 . S
O302 C300 1.270 . S
C303 O296 1.262 . S
C303 O304 1.232 . S
O304 C303 1.232 . S
C305 O297 1.260 . S
C305 O298 1.257 . S
Zn306 O309 2.031 1_565 S
Zn306 O311 2.049 . S
Zn306 O316 2.067 . S
Zn307 O308 1.962 . S
Zn307 O310 1.986 . S
Zn307 O312 1.996 1_545 S
Zn307 O315 1.943 . S
O308 Zn307 1.962 . S
O308 C313 1.254 . S
O309 Zn306 2.031 1_545 S
O309 C313 1.269 . S
O310 Zn307 1.986 . S
O310 C317 1.262 . S
O311 Zn306 2.049 . S
O311 C319 1.260 . S
O312 Zn307 1.996 1_565 S
O312 C319 1.257 . S
C313 O308 1.254 . S
C313 O309 1.269 . S
C314 O315 1.249 . S
C314 O316 1.270 1_545 S
O315 Zn307 1.943 . S
O315 C314 1.249 . S
O316 Zn306 2.067 . S
O316 C314 1.270 1_565 S
C317 O310 1.262 . S
C317 O318 1.232 . S
O318 C317 1.232 . S
C319 O311 1.260 . S
C319 O312 1.257 . S
Zn320 O323 2.031 . S
Zn320 O325 2.049 1_455 S
Zn320 O330 2.067 1_455 S
Zn321 O322 1.962 . S
Zn321 O324 1.986 . S
Zn321 O326 1.996 . S
Zn321 O329 1.943 1_455 S
O322 Zn321 1.962 . S
O322 C327 1.254 . S
O323 Zn320 2.031 . S
O323 C327 1.269 . S
O324 Zn321 1.986 . S
O324 C331 1.262 . S
O325 Zn320 2.049 1_655 S
O325 C333 1.260 . S
O326 Zn321 1.996 . S
O326 C333 1.257 1_455 S
C327 O322 1.254 . S
C327 O323 1.269 . S
C328 O329 1.249 . S
C328 O330 1.270 . S
O329 Zn321 1.943 1_655 S
O329 C328 1.249 . S
O330 Zn320 2.067 1_655 S
O330 C328 1.270 . S
C331 O324 1.262 . S
C331 O332 1.232 . S
O332 C331 1.232 . S
C333 O325 1.260 . S
C333 O326 1.257 1_655 S
Zn334 O337 2.031 . S
Zn334 O339 2.049 . S
Zn334 O344 2.067 . S
Zn335 O336 1.962 . S
Zn335 O338 1.986 . S
Zn335 O340 1.996 . S
Zn335 O343 1.943 . S
O336 Zn335 1.962 . S
O336 C341 1.254 . S
O337 Zn334 2.031 . S
O337 C341 1.269 . S
O338 Zn335 1.986 . S
O338 C345 1.262 . S
O339 Zn334 2.049 . S
O339 C347 1.260 . S
O340 Zn335 1.996 . S
O340 C347 1.257 . S
C341 O336 1.254 . S
C341 O337 1.269 . S
C342 O343 1.249 . S
C342 O344 1.270 . S
O343 Zn335 1.943 . S
O343 C342 1.249 . S
O344 Zn334 2.067 . S
O344 C342 1.270 . S
C345 O338 1.262 . S
C345 O346 1.232 . S
O346 C345 1.232 . S
C347 O339 1.260 . S
C347 O340 1.257 . S
Zn348 O351 2.031 1_655 S
Zn348 O353 2.049 . S
Zn348 O358 2.067 . S
Zn349 O350 1.962 . S
Zn349 O352 1.986 . S
Zn349 O354 1.997 . S
Zn349 O357 1.943 . S
O350 Zn349 1.962 . S
O350 C355 1.254 . S
O351 Zn348 2.031 1_455 S
O351 C355 1.269 . S
O352 Zn349 1.986 . S
O352 C359 1.262 . S
O353 Zn348 2.049 . S
O353 C361 1.260 . S
O354 Zn349 1.997 . S
O354 C361 1.256 1_455 S
C355 O350 1.254 . S
C355 O351 1.269 . S
C356 O357 1.249 . S
C356 O358 1.270 1_455 S
O357 Zn349 1.943 . S
O357 C356 1.249 . S
O358 Zn348 2.067 . S
O358 C356 1.270 1_655 S
C359 O352 1.262 . S
C359 O360 1.232 . S
O360 C359 1.232 . S
C361 O353 1.260 . S
C361 O354 1.256 1_655 S
Zn362 O365 2.031 . S
Zn362 O367 2.049 . S
Zn362 O372 2.067 . S
Zn363 O364 1.962 . S
Zn363 O366 1.986 . S
Zn363 O368 1.996 . S
Zn363 O371 1.943 . S
O364 Zn363 1.962 . S
O364 C369 1.254 . S
O365 Zn362 2.031 . S
O365 C369 1.269 . S
O366 Zn363 1.986 . S
O366 C373 1.262 . S
O367 Zn362 2.049 . S
O367 C375 1.260 . S
O368 Zn363 1.996 . S
O368 C375 1.257 . S
C369 O364 1.254 . S
C369 O365 1.269 . S
C370 O371 1.249 . S
C370 O372 1.270 . S
O371 Zn363 1.943 . S
O371 C370 1.249 . S
O372 Zn362 2.067 . S
O372 C370 1.270 . S
C373 O366 1.262 . S
C373 O374 1.232 . S
O374 C373 1.232 . S
C375 O367 1.260 . S
C375 O368 1.257 . S
H376 C394 0.951 . S
H377 C396 0.951 . S
H378 C398 0.950 . S
H379 C399 0.950 . S
H380 C401 0.950 . S
H381 C404 0.950 . S
H382 C405 0.950 . S
H383 C407 0.950 . S
H384 C408 0.950 . S
H385 C409 0.951 . S
H386 C411 0.951 . S
H387 C413 0.950 . S
H388 C414 0.950 . S
H389 C416 0.950 . S
H390 C419 0.950 . S
H391 C420 0.950 . S
H392 C422 0.950 . S
H393 C423 0.950 . S
C394 H376 0.951 . S
C394 C395 1.366 . S
C394 C396 1.388 . S
C395 C394 1.366 . S
C395 C399 1.385 . S
C396 H377 0.951 . S
C396 C394 1.388 . S
C396 C397 1.366 . S
C397 C396 1.366 . S
C397 C398 1.414 . S
C397 C400 1.499 . S
C398 H378 0.950 . S
C398 C397 1.414 . S
C398 C399 1.374 . S
C399 H379 0.950 . S
C399 C395 1.385 . S
C399 C398 1.374 . S
C400 C397 1.499 . S
C400 C401 1.373 . S
C400 C402 1.389 . S
C401 H380 0.950 . S
C401 C400 1.373 . S
C401 C417 1.377 . S
C402 C400 1.389 . S
C402 C403 1.524 . S
C402 C416 1.377 . S
C403 C402 1.524 . S
C403 C404 1.397 . S
C403 C408 1.363 . S
C404 H381 0.950 . S
C404 C403 1.397 . S
C404 C405 1.334 . S
C405 H382 0.950 . S
C405 C404 1.334 . S
C405 C406 1.287 . S
C406 C405 1.287 . S
C406 C407 1.524 . S
C406 H425 0.913 . S
C407 H383 0.950 . S
C407 C406 1.524 . S
C407 C408 1.415 . S
C408 H384 0.950 . S
C408 C403 1.363 . S
C408 C407 1.415 . S
C409 H385 0.951 . S
C409 C410 1.366 . S
C409 C411 1.388 . S
C410 C409 1.366 . S
C410 C414 1.385 . S
C411 H386 0.951 . S
C411 C409 1.388 . S
C411 C412 1.366 . S
C412 C411 1.366 . S
C412 C413 1.414 . S
C412 C415 1.499 . S
C413 H387 0.950 . S
C413 C412 1.414 . S
C413 C414 1.374 . S
C414 H388 0.950 . S
C414 C410 1.385 . S
C414 C413 1.374 . S
C415 C412 1.499 . S
C415 C416 1.373 . S
C415 C417 1.389 . S
C416 H389 0.950 . S
C416 C402 1.377 . S
C416 C415 1.373 . S
C417 C401 1.377 . S
C417 C415 1.389 . S
C417 C418 1.524 . S
C418 C417 1.524 . S
C418 C419 1.397 . S
C418 C423 1.363 . S
C419 H390 0.950 . S
C419 C418 1.397 . S
C419 C420 1.334 . S
C420 H391 0.950 . S
C420 C419 1.334 . S
C420 C421 1.287 . S
C421 C420 1.287 . S
C421 C422 1.524 . S
C421 H424 0.999 . S
C422 H392 0.950 . S
C422 C421 1.524 . S
C422 C423 1.415 . S
C423 H393 0.950 . S
C423 C418 1.363 . S
C423 C422 1.415 . S
H424 C421 0.999 . S
H425 C406 0.913 . S
H426 C444 0.951 . S
H427 C446 0.951 . S
H428 C448 0.950 . S
H429 C449 0.950 . S
H430 C451 0.950 . S
H431 C454 0.950 . S
H432 C455 0.950 . S
H433 C457 0.950 . S
H434 C458 0.950 . S
H435 C459 0.951 . S
H436 C461 0.951 . S
H437 C463 0.950 . S
H438 C464 0.950 . S
H439 C466 0.950 . S
H440 C469 0.950 . S
H441 C470 0.950 . S
H442 C472 0.950 . S
H443 C473 0.950 . S
C444 H426 0.951 . S
C444 C445 1.366 . S
C444 C446 1.388 . S
C445 C444 1.366 . S
C445 C449 1.385 . S
C446 H427 0.951 . S
C446 C444 1.388 . S
C446 C447 1.366 1_655 S
C447 C446 1.366 1_455 S
C447 C448 1.414 . S
C447 C450 1.499 . S
C448 H428 0.950 . S
C448 C447 1.414 . S
C448 C449 1.374 1_455 S
C449 H429 0.950 . S
C449 C445 1.385 . S
C449 C448 1.374 1_655 S
C450 C447 1.499 . S
C450 C451 1.373 . S
C450 C452 1.389 . S
C451 H430 0.950 . S
C451 C450 1.373 . S
C451 C467 1.377 . S
C452 C450 1.389 . S
C452 C453 1.524 . S
C452 C466 1.377 . S
C453 C452 1.524 . S
C453 C454 1.397 . S
C453 C458 1.363 . S
C454 H431 0.950 . S
C454 C453 1.397 . S
C454 C455 1.334 . S
C455 H432 0.950 . S
C455 C454 1.334 . S
C455 C456 1.287 . S
C456 C455 1.287 . S
C456 C457 1.524 . S
C456 H475 0.913 . S
C457 H433 0.950 . S
C457 C456 1.524 . S
C457 C458 1.415 . S
C458 H434 0.950 . S
C458 C453 1.363 . S
C458 C457 1.415 . S
C459 H435 0.951 . S
C459 C460 1.366 . S
C459 C461 1.388 . S
C460 C459 1.366 . S
C460 C464 1.385 . S
C461 H436 0.951 . S
C461 C459 1.388 . S
C461 C462 1.366 . S
C462 C461 1.366 . S
C462 C463 1.414 . S
C462 C465 1.499 . S
C463 H437 0.950 . S
C463 C462 1.414 . S
C463 C464 1.374 . S
C464 H438 0.950 . S
C464 C460 1.385 . S
C464 C463 1.374 . S
C465 C462 1.499 . S
C465 C466 1.373 . S
C465 C467 1.389 . S
C466 H439 0.950 . S
C466 C452 1.377 . S
C466 C465 1.373 . S
C467 C451 1.377 . S
C467 C465 1.389 . S
C467 C468 1.524 . S
C468 C467 1.524 . S
C468 C469 1.397 . S
C468 C473 1.363 . S
C469 H440 0.950 . S
C469 C468 1.397 . S
C469 C470 1.334 . S
C470 H441 0.950 . S
C470 C469 1.334 . S
C470 C471 1.287 . S
C471 C470 1.287 . S
C471 C472 1.524 . S
C471 H474 0.999 . S
C472 H442 0.950 . S
C472 C471 1.524 . S
C472 C473 1.415 . S
C473 H443 0.950 . S
C473 C468 1.363 . S
C473 C472 1.415 . S
H474 C471 0.999 . S
H475 C456 0.913 . S
H476 C494 0.951 . S
H477 C496 0.951 . S
H478 C498 0.950 . S
H479 C499 0.950 . S
H480 C501 0.950 . S
H481 C504 0.950 . S
H482 C505 0.950 . S
H483 C507 0.950 . S
H484 C508 0.950 . S
H485 C509 0.951 . S
H486 C511 0.951 . S
H487 C513 0.950 . S
H488 C514 0.950 . S
H489 C516 0.950 . S
H490 C519 0.950 . S
H491 C520 0.950 . S
H492 C522 0.950 . S
H493 C523 0.950 . S
C494 H476 0.951 . S
C494 C495 1.366 . S
C494 C496 1.388 . S
C495 C494 1.366 . S
C495 C499 1.385 . S
C496 H477 0.951 . S
C496 C494 1.388 . S
C496 C497 1.366 . S
C497 C496 1.366 . S
C497 C498 1.414 . S
C497 C500 1.499 . S
C498 H478 0.950 . S
C498 C497 1.414 . S
C498 C499 1.374 . S
C499 H479 0.950 . S
C499 C495 1.385 . S
C499 C498 1.374 . S
C500 C497 1.499 . S
C500 C501 1.373 . S
C500 C502 1.389 . S
C501 H480 0.950 . S
C501 C500 1.373 . S
C501 C517 1.377 . S
C502 C500 1.389 . S
C502 C503 1.524 . S
C502 C516 1.377 . S
C503 C502 1.524 . S
C503 C504 1.397 . S
C503 C508 1.363 . S
C504 H481 0.950 . S
C504 C503 1.397 . S
C504 C505 1.334 . S
C505 H482 0.950 . S
C505 C504 1.334 . S
C505 C506 1.287 . S
C506 C505 1.287 . S
C506 C507 1.524 . S
C506 H525 0.913 . S
C507 H483 0.950 . S
C507 C506 1.524 . S
C507 C508 1.415 . S
C508 H484 0.950 . S
C508 C503 1.363 . S
C508 C507 1.415 . S
C509 H485 0.951 . S
C509 C510 1.366 . S
C509 C511 1.388 . S
C510 C509 1.366 . S
C510 C514 1.385 . S
C511 H486 0.951 . S
C511 C509 1.388 . S
C511 C512 1.366 . S
C512 C511 1.366 . S
C512 C513 1.414 . S
C512 C515 1.499 . S
C513 H487 0.950 . S
C513 C512 1.414 . S
C513 C514 1.374 . S
C514 H488 0.950 . S
C514 C510 1.385 . S
C514 C513 1.374 . S
C515 C512 1.499 . S
C515 C516 1.373 . S
C515 C517 1.389 . S
C516 H489 0.950 . S
C516 C502 1.377 . S
C516 C515 1.373 . S
C517 C501 1.377 . S
C517 C515 1.389 . S
C517 C518 1.524 . S
C518 C517 1.524 . S
C518 C519 1.397 . S
C518 C523 1.363 . S
C519 H490 0.950 . S
C519 C518 1.397 . S
C519 C520 1.334 . S
C520 H491 0.950 . S
C520 C519 1.334 . S
C520 C521 1.287 . S
C521 C520 1.287 . S
C521 C522 1.524 . S
C521 H524 0.999 . S
C522 H492 0.950 . S
C522 C521 1.524 . S
C522 C523 1.415 . S
C523 H493 0.950 . S
C523 C518 1.363 . S
C523 C522 1.415 . S
H524 C521 0.999 . S
H525 C506 0.913 . S
H526 C544 0.951 . S
H527 C546 0.951 . S
H528 C548 0.950 . S
H529 C549 0.950 . S
H530 C551 0.950 . S
H531 C554 0.980 . S
H532 C555 0.950 . S
H533 C557 0.950 . S
H534 C558 0.950 . S
H535 C559 0.951 . S
H536 C561 0.951 . S
H537 C563 0.950 . S
H538 C564 0.950 1_545 S
H539 C566 0.950 1_545 S
H540 C569 0.950 . S
H541 C570 0.950 . S
H542 C572 0.950 . S
H543 C573 0.950 . S
C544 H526 0.951 . S
C544 C545 1.366 . S
C544 C546 1.388 . S
C545 C544 1.366 . S
C545 C549 1.385 . S
C546 H527 0.951 . S
C546 C544 1.388 . S
C546 C547 1.366 1_455 S
C547 C546 1.366 1_655 S
C547 C548 1.414 . S
C547 C550 1.499 . S
C548 H528 0.950 . S
C548 C547 1.414 . S
C548 C549 1.374 1_655 S
C549 H529 0.950 . S
C549 C545 1.385 . S
C549 C548 1.374 1_455 S
C550 C547 1.499 . S
C550 C551 1.373 . S
C550 C552 1.389 . S
C551 H530 0.950 . S
C551 C550 1.373 . S
C551 C567 1.377 . S
C552 C550 1.389 . S
C552 C553 1.524 1_565 S
C552 C566 1.377 . S
C553 C552 1.524 1_545 S
C553 C554 1.402 . S
C553 C558 1.363 1_655 S
C554 H531 0.980 . S
C554 C553 1.402 . S
C554 C555 1.302 1_655 S
C555 H532 0.950 . S
C555 C554 1.302 1_455 S
C555 C556 1.287 . S
C556 C555 1.287 . S
C556 C557 1.524 . S
C556 H575 0.913 . S
C557 H533 0.950 . S
C557 C556 1.524 . S
C557 C558 1.415 . S
C558 H534 0.950 . S
C558 C553 1.363 1_455 S
C558 C557 1.415 . S
C559 H535 0.951 . S
C559 C560 1.366 . S
C559 C561 1.388 . S
C560 C559 1.366 . S
C560 C564 1.385 . S
C561 H536 0.951 . S
C561 C559 1.388 . S
C561 C562 1.366 . S
C562 C561 1.366 . S
C562 C563 1.414 . S
C562 C565 1.499 . S
C563 H537 0.950 . S
C563 C562 1.414 . S
C563 C564 1.374 . S
C564 H538 0.950 1_565 S
C564 C560 1.385 . S
C564 C563 1.374 . S
C565 C562 1.499 . S
C565 C566 1.373 . S
C565 C567 1.389 . S
C566 H539 0.950 1_565 S
C566 C552 1.377 . S
C566 C565 1.373 . S
C567 C551 1.377 . S
C567 C565 1.389 . S
C567 C568 1.524 . S
C568 C567 1.524 . S
C568 C569 1.397 . S
C568 C573 1.363 . S
C569 H540 0.950 . S
C569 C568 1.397 . S
C569 C570 1.334 . S
C570 H541 0.950 . S
C570 C569 1.334 . S
C570 C571 1.287 . S
C571 C570 1.287 . S
C571 C572 1.524 . S
C571 H574 0.999 . S
C572 H542 0.950 . S
C572 C571 1.524 . S
C572 C573 1.415 . S
C573 H543 0.950 . S
C573 C568 1.363 . S
C573 C572 1.415 . S
H574 C571 0.999 . S
H575 C556 0.913 . S
H576 C594 0.951 . S
H577 C596 0.951 . S
H578 C598 0.950 . S
H579 C599 0.950 . S
H580 C601 0.950 . S
H581 C604 0.950 . S
H582 C605 0.950 . S
H583 C607 0.950 . S
H584 C608 0.950 . S
H585 C609 0.951 . S
H586 C611 0.951 . S
H587 C613 0.950 . S
H588 C614 0.950 . S
H589 C616 0.950 . S
H590 C619 0.950 . S
H591 C620 0.950 . S
H592 C622 0.950 . S
H593 C623 0.950 . S
C594 H576 0.951 . S
C594 C595 1.366 . S
C594 C596 1.388 . S
C595 C594 1.366 . S
C595 C599 1.385 . S
C596 H577 0.951 . S
C596 C594 1.388 . S
C596 C597 1.366 . S
C597 C596 1.366 . S
C597 C598 1.414 . S
C597 C600 1.499 . S
C598 H578 0.950 . S
C598 C597 1.414 . S
C598 C599 1.374 . S
C599 H579 0.950 . S
C599 C595 1.385 . S
C599 C598 1.374 . S
C600 C597 1.499 . S
C600 C601 1.373 . S
C600 C602 1.389 . S
C601 H580 0.950 . S
C601 C600 1.373 . S
C601 C617 1.377 . S
C602 C600 1.389 . S
C602 C603 1.524 . S
C602 C616 1.377 . S
C603 C602 1.524 . S
C603 C604 1.397 . S
C603 C608 1.363 . S
C604 H581 0.950 . S
C604 C603 1.397 . S
C604 C605 1.334 . S
C605 H582 0.950 . S
C605 C604 1.334 . S
C605 C606 1.287 . S
C606 C605 1.287 . S
C606 C607 1.524 . S
C606 H625 0.913 . S
C607 H583 0.950 . S
C607 C606 1.524 . S
C607 C608 1.415 . S
C608 H584 0.950 . S
C608 C603 1.363 . S
C608 C607 1.415 . S
C609 H585 0.951 . S
C609 C610 1.366 . S
C609 C611 1.388 . S
C610 C609 1.366 . S
C610 C614 1.385 . S
C611 H586 0.951 . S
C611 C609 1.388 . S
C611 C612 1.366 . S
C612 C611 1.366 . S
C612 C613 1.414 . S
C612 C615 1.499 . S
C613 H587 0.950 . S
C613 C612 1.414 . S
C613 C614 1.374 . S
C614 H588 0.950 . S
C614 C610 1.385 . S
C614 C613 1.374 . S
C615 C612 1.499 . S
C615 C616 1.373 . S
C615 C617 1.389 . S
C616 H589 0.950 . S
C616 C602 1.377 . S
C616 C615 1.373 . S
C617 C601 1.377 . S
C617 C615 1.389 . S
C617 C618 1.524 . S
C618 C617 1.524 . S
C618 C619 1.397 . S
C618 C623 1.363 . S
C619 H590 0.950 . S
C619 C618 1.397 . S
C619 C620 1.334 . S
C620 H591 0.950 . S
C620 C619 1.334 . S
C620 C621 1.287 . S
C621 C620 1.287 . S
C621 C622 1.524 . S
C621 H624 0.999 . S
C622 H592 0.950 . S
C622 C621 1.524 . S
C622 C623 1.415 . S
C623 H593 0.950 . S
C623 C618 1.363 . S
C623 C622 1.415 . S
H624 C621 0.999 . S
H625 C606 0.913 . S
H626 C644 0.951 . S
H627 C646 0.951 . S
H628 C648 0.950 . S
H629 C649 0.950 . S
H630 C651 0.950 . S
H631 C654 0.950 . S
H632 C655 0.950 . S
H633 C657 0.950 . S
H634 C658 0.950 . S
H635 C659 0.951 . S
H636 C661 0.951 . S
H637 C663 0.950 . S
H638 C664 0.950 . S
H639 C666 0.950 . S
H640 C669 0.950 . S
H641 C670 0.950 . S
H642 C672 0.950 . S
H643 C673 0.950 . S
C644 H626 0.951 . S
C644 C645 1.366 . S
C644 C646 1.388 . S
C645 C644 1.366 . S
C645 C649 1.385 . S
C646 H627 0.951 . S
C646 C644 1.388 . S
C646 C647 1.366 . S
C647 C646 1.366 . S
C647 C648 1.414 . S
C647 C650 1.499 . S
C648 H628 0.950 . S
C648 C647 1.414 . S
C648 C649 1.374 . S
C649 H629 0.950 . S
C649 C645 1.385 . S
C649 C648 1.374 . S
C650 C647 1.499 . S
C650 C651 1.373 . S
C650 C652 1.389 . S
C651 H630 0.950 . S
C651 C650 1.373 . S
C651 C667 1.377 . S
C652 C650 1.389 . S
C652 C653 1.524 . S
C652 C666 1.377 . S
C653 C652 1.524 . S
C653 C654 1.397 . S
C653 C658 1.363 . S
C654 H631 0.950 . S
C654 C653 1.397 . S
C654 C655 1.334 . S
C655 H632 0.950 . S
C655 C654 1.334 . S
C655 C656 1.287 . S
C656 C655 1.287 . S
C656 C657 1.524 . S
C656 H675 0.913 . S
C657 H633 0.950 . S
C657 C656 1.524 . S
C657 C658 1.415 . S
C658 H634 0.950 . S
C658 C653 1.363 . S
C658 C657 1.415 . S
C659 H635 0.951 . S
C659 C660 1.366 . S
C659 C661 1.388 . S
C660 C659 1.366 . S
C660 C664 1.385 . S
C661 H636 0.951 . S
C661 C659 1.388 . S
C661 C662 1.366 . S
C662 C661 1.366 . S
C662 C663 1.414 . S
C662 C665 1.499 . S
C663 H637 0.950 . S
C663 C662 1.414 . S
C663 C664 1.374 . S
C664 H638 0.950 . S
C664 C660 1.385 . S
C664 C663 1.374 . S
C665 C662 1.499 . S
C665 C666 1.373 . S
C665 C667 1.389 . S
C666 H639 0.950 . S
C666 C652 1.377 . S
C666 C665 1.373 . S
C667 C651 1.377 . S
C667 C665 1.389 . S
C667 C668 1.524 . S
C668 C667 1.524 . S
C668 C669 1.397 . S
C668 C673 1.363 . S
C669 H640 0.950 . S
C669 C668 1.397 . S
C669 C670 1.334 . S
C670 H641 0.950 . S
C670 C669 1.334 . S
C670 C671 1.287 . S
C671 C670 1.287 . S
C671 C672 1.524 . S
C671 H674 0.999 . S
C672 H642 0.950 . S
C672 C671 1.524 . S
C672 C673 1.415 . S
C673 H643 0.950 . S
C673 C668 1.363 . S
C673 C672 1.415 . S
H674 C671 0.999 . S
H675 C656 0.913 . S
H676 C694 0.951 . S
H677 C696 0.951 . S
H678 C698 0.950 . S
H679 C699 0.950 . S
H680 C701 0.950 . S
H681 C704 0.950 . S
H682 C705 0.950 . S
H683 C707 0.950 . S
H684 C708 0.950 . S
H685 C709 0.951 . S
H686 C711 0.951 . S
H687 C713 0.950 . S
H688 C714 0.950 . S
H689 C716 0.950 . S
H690 C719 0.950 . S
H691 C720 0.950 . S
H692 C722 0.950 . S
H693 C723 0.950 . S
C694 H676 0.951 . S
C694 C695 1.366 . S
C694 C696 1.388 . S
C695 C694 1.366 . S
C695 C699 1.385 . S
C696 H677 0.951 . S
C696 C694 1.388 . S
C696 C697 1.366 . S
C697 C696 1.366 . S
C697 C698 1.414 . S
C697 C700 1.499 . S
C698 H678 0.950 . S
C698 C697 1.414 . S
C698 C699 1.374 . S
C699 H679 0.950 . S
C699 C695 1.385 . S
C699 C698 1.374 . S
C700 C697 1.499 . S
C700 C701 1.373 . S
C700 C702 1.389 . S
C701 H680 0.950 . S
C701 C700 1.373 . S
C701 C717 1.377 . S
C702 C700 1.389 . S
C702 C703 1.524 . S
C702 C716 1.377 . S
C703 C702 1.524 . S
C703 C704 1.397 . S
C703 C708 1.363 . S
C704 H681 0.950 . S
C704 C703 1.397 . S
C704 C705 1.334 . S
C705 H682 0.950 . S
C705 C704 1.334 . S
C705 C706 1.287 . S
C706 C705 1.287 . S
C706 C707 1.524 . S
C706 H725 0.913 . S
C707 H683 0.950 . S
C707 C706 1.524 . S
C707 C708 1.415 . S
C708 H684 0.950 . S
C708 C703 1.363 . S
C708 C707 1.415 . S
C709 H685 0.951 . S
C709 C710 1.366 . S
C709 C711 1.388 . S
C710 C709 1.366 . S
C710 C714 1.385 . S
C711 H686 0.951 . S
C711 C709 1.388 . S
C711 C712 1.366 . S
C712 C711 1.366 . S
C712 C713 1.414 . S
C712 C715 1.499 . S
C713 H687 0.950 . S
C713 C712 1.414 . S
C713 C714 1.374 . S
C714 H688 0.950 . S
C714 C710 1.385 . S
C714 C713 1.374 . S
C715 C712 1.499 . S
C715 C716 1.373 . S
C715 C717 1.389 . S
C716 H689 0.950 . S
C716 C702 1.377 . S
C716 C715 1.373 . S
C717 C701 1.377 . S
C717 C715 1.389 . S
C717 C718 1.524 . S
C718 C717 1.524 . S
C718 C719 1.397 . S
C718 C723 1.363 . S
C719 H690 0.950 . S
C719 C718 1.397 . S
C719 C720 1.334 . S
C720 H691 0.950 . S
C720 C719 1.334 . S
C720 C721 1.287 . S
C721 C720 1.287 . S
C721 C722 1.524 . S
C721 H724 0.999 . S
C722 H692 0.950 . S
C722 C721 1.524 . S
C722 C723 1.415 . S
C723 H693 0.950 . S
C723 C718 1.363 . S
C723 C722 1.415 . S
H724 C721 0.999 . S
H725 C706 0.913 . S
H726 C744 0.951 . S
H727 C746 0.951 . S
H728 C748 0.950 . S
H729 C749 0.950 . S
H730 C751 0.950 . S
H731 C754 0.950 . S
H732 C755 0.950 . S
H733 C757 0.950 . S
H734 C758 0.950 . S
H735 C759 0.951 . S
H736 C761 0.951 . S
H737 C763 0.950 . S
H738 C764 0.950 . S
H739 C766 0.950 . S
H740 C769 0.950 . S
H741 C770 0.950 . S
H742 C772 0.950 . S
H743 C773 0.950 . S
C744 H726 0.951 . S
C744 C745 1.366 . S
C744 C746 1.388 . S
C745 C744 1.366 . S
C745 C749 1.385 . S
C746 H727 0.951 . S
C746 C744 1.388 . S
C746 C747 1.366 . S
C747 C746 1.366 . S
C747 C748 1.414 . S
C747 C750 1.499 . S
C748 H728 0.950 . S
C748 C747 1.414 . S
C748 C749 1.374 . S
C749 H729 0.950 . S
C749 C745 1.385 . S
C749 C748 1.374 . S
C750 C747 1.499 . S
C750 C751 1.373 . S
C750 C752 1.389 . S
C751 H730 0.950 . S
C751 C750 1.373 . S
C751 C767 1.377 . S
C752 C750 1.389 . S
C752 C753 1.524 . S
C752 C766 1.377 . S
C753 C752 1.524 . S
C753 C754 1.397 . S
C753 C758 1.363 . S
C754 H731 0.950 . S
C754 C753 1.397 . S
C754 C755 1.334 . S
C755 H732 0.950 . S
C755 C754 1.334 . S
C755 C756 1.287 . S
C756 C755 1.287 . S
C756 C757 1.524 . S
C756 H775 0.913 . S
C757 H733 0.950 . S
C757 C756 1.524 . S
C757 C758 1.415 . S
C758 H734 0.950 . S
C758 C753 1.363 . S
C758 C757 1.415 . S
C759 H735 0.951 . S
C759 C760 1.366 . S
C759 C761 1.388 . S
C760 C759 1.366 . S
C760 C764 1.384 1_565 S
C761 H736 0.951 . S
C761 C759 1.388 . S
C761 C762 1.366 . S
C762 C761 1.366 . S
C762 C763 1.414 1_565 S
C762 C765 1.499 . S
C763 H737 0.950 . S
C763 C762 1.414 1_545 S
C763 C764 1.374 . S
C764 H738 0.950 . S
C764 C760 1.384 1_545 S
C764 C763 1.374 . S
C765 C762 1.499 . S
C765 C766 1.373 . S
C765 C767 1.389 . S
C766 H739 0.950 . S
C766 C752 1.377 . S
C766 C765 1.373 . S
C767 C751 1.377 . S
C767 C765 1.389 . S
C767 C768 1.524 1_565 S
C768 C767 1.524 1_545 S
C768 C769 1.397 . S
C768 C773 1.363 1_545 S
C769 H740 0.950 . S
C769 C768 1.397 . S
C769 C770 1.334 . S
C770 H741 0.950 . S
C770 C769 1.334 . S
C770 C771 1.287 . S
C771 C770 1.287 . S
C771 C772 1.524 . S
C771 H774 0.999 . S
C772 H742 0.950 . S
C772 C771 1.524 . S
C772 C773 1.415 1_545 S
C773 H743 0.950 . S
C773 C768 1.363 1_565 S
C773 C772 1.415 1_565 S
H774 C771 0.999 . S
H775 C756 0.913 . S
H776 C794 0.951 . S
H777 C796 0.951 . S
H778 C798 0.950 . S
H779 C799 0.950 . S
H780 C801 0.950 . S
H781 C804 0.950 . S
H782 C805 0.950 . S
H783 C807 0.950 . S
H784 C808 0.950 . S
H785 C809 0.951 . S
H786 C811 0.951 . S
H787 C813 0.950 . S
H788 C814 0.950 . S
H789 C816 0.950 . S
H790 C819 0.950 . S
H791 C820 0.950 . S
H792 C822 0.950 . S
H793 C823 0.950 . S
C794 H776 0.951 . S
C794 C795 1.366 . S
C794 C796 1.388 . S
C795 C794 1.366 . S
C795 C799 1.385 . S
C796 H777 0.951 . S
C796 C794 1.388 . S
C796 C797 1.366 . S
C797 C796 1.366 . S
C797 C798 1.414 . S
C797 C800 1.499 . S
C798 H778 0.950 . S
C798 C797 1.414 . S
C798 C799 1.374 . S
C799 H779 0.950 . S
C799 C795 1.385 . S
C799 C798 1.374 . S
C800 C797 1.499 . S
C800 C801 1.373 . S
C800 C802 1.389 . S
C801 H780 0.950 . S
C801 C800 1.373 . S
C801 C817 1.377 . S
C802 C800 1.389 . S
C802 C803 1.524 . S
C802 C816 1.377 . S
C803 C802 1.524 . S
C803 C804 1.397 . S
C803 C808 1.363 . S
C804 H781 0.950 . S
C804 C803 1.397 . S
C804 C805 1.334 . S
C805 H782 0.950 . S
C805 C804 1.334 . S
C805 C806 1.287 . S
C806 C805 1.287 . S
C806 C807 1.524 . S
C806 H825 0.913 . S
C807 H783 0.950 . S
C807 C806 1.524 . S
C807 C808 1.415 . S
C808 H784 0.950 . S
C808 C803 1.363 . S
C808 C807 1.415 . S
C809 H785 0.951 . S
C809 C810 1.366 . S
C809 C811 1.388 . S
C810 C809 1.366 . S
C810 C814 1.385 . S
C811 H786 0.951 . S
C811 C809 1.388 . S
C811 C812 1.366 . S
C812 C811 1.366 . S
C812 C813 1.414 . S
C812 C815 1.499 . S
C813 H787 0.950 . S
C813 C812 1.414 . S
C813 C814 1.374 . S
C814 H788 0.950 . S
C814 C810 1.385 . S
C814 C813 1.374 . S
C815 C812 1.499 . S
C815 C816 1.373 . S
C815 C817 1.389 . S
C816 H789 0.950 . S
C816 C802 1.377 . S
C816 C815 1.373 . S
C817 C801 1.377 . S
C817 C815 1.389 . S
C817 C818 1.524 . S
C818 C817 1.524 . S
C818 C819 1.397 . S
C818 C823 1.363 . S
C819 H790 0.950 . S
C819 C818 1.397 . S
C819 C820 1.334 . S
C820 H791 0.950 . S
C820 C819 1.334 . S
C820 C821 1.287 . S
C821 C820 1.287 . S
C821 C822 1.524 . S
C821 H824 0.999 . S
C822 H792 0.950 . S
C822 C821 1.524 . S
C822 C823 1.415 . S
C823 H793 0.950 . S
C823 C818 1.363 . S
C823 C822 1.415 . S
H824 C821 0.999 . S
H825 C806 0.913 . S
H826 C844 0.951 . S
H827 C846 0.951 . S
H828 C848 0.950 . S
H829 C849 0.950 . S
H830 C851 0.950 . S
H831 C854 0.950 . S
H832 C855 0.950 . S
H833 C857 0.950 . S
H834 C858 0.950 . S
H835 C859 0.951 . S
H836 C861 0.951 . S
H837 C863 0.950 . S
H838 C864 0.950 . S
H839 C866 0.950 . S
H840 C869 0.950 . S
H841 C870 0.950 . S
H842 C872 0.950 . S
H843 C873 0.950 . S
C844 H826 0.951 . S
C844 C845 1.366 . S
C844 C846 1.388 . S
C845 C844 1.366 . S
C845 C849 1.385 . S
C846 H827 0.951 . S
C846 C844 1.388 . S
C846 C847 1.366 . S
C847 C846 1.366 . S
C847 C848 1.414 . S
C847 C850 1.499 . S
C848 H828 0.950 . S
C848 C847 1.414 . S
C848 C849 1.374 . S
C849 H829 0.950 . S
C849 C845 1.385 . S
C849 C848 1.374 . S
C850 C847 1.499 . S
C850 C851 1.373 . S
C850 C852 1.389 . S
C851 H830 0.950 . S
C851 C850 1.373 . S
C851 C867 1.377 . S
C852 C850 1.389 . S
C852 C853 1.524 . S
C852 C866 1.377 . S
C853 C852 1.524 . S
C853 C854 1.397 . S
C853 C858 1.363 . S
C854 H831 0.950 . S
C854 C853 1.397 . S
C854 C855 1.334 . S
C855 H832 0.950 . S
C855 C854 1.334 . S
C855 C856 1.287 . S
C856 C855 1.287 . S
C856 C857 1.524 . S
C856 H875 0.913 . S
C857 H833 0.950 . S
C857 C856 1.524 . S
C857 C858 1.415 . S
C858 H834 0.950 . S
C858 C853 1.363 . S
C858 C857 1.415 . S
C859 H835 0.951 . S
C859 C860 1.366 . S
C859 C861 1.388 . S
C860 C859 1.366 . S
C860 C864 1.385 . S
C861 H836 0.951 . S
C861 C859 1.388 . S
C861 C862 1.366 . S
C862 C861 1.366 . S
C862 C863 1.414 . S
C862 C865 1.499 . S
C863 H837 0.950 . S
C863 C862 1.414 . S
C863 C864 1.374 . S
C864 H838 0.950 . S
C864 C860 1.385 . S
C864 C863 1.374 . S
C865 C862 1.499 . S
C865 C866 1.373 . S
C865 C867 1.389 . S
C866 H839 0.950 . S
C866 C852 1.377 . S
C866 C865 1.373 . S
C867 C851 1.377 . S
C867 C865 1.389 . S
C867 C868 1.524 . S
C868 C867 1.524 . S
C868 C869 1.397 . S
C868 C873 1.363 . S
C869 H840 0.950 . S
C869 C868 1.397 . S
C869 C870 1.334 . S
C870 H841 0.950 . S
C870 C869 1.334 . S
C870 C871 1.287 . S
C871 C870 1.287 . S
C871 C872 1.524 . S
C871 H874 0.999 . S
C872 H842 0.950 . S
C872 C871 1.524 . S
C872 C873 1.415 . S
C873 H843 0.950 . S
C873 C868 1.363 . S
C873 C872 1.415 . S
H874 C871 0.999 . S
H875 C856 0.913 . S
H876 C894 0.951 . S
H877 C896 0.951 . S
H878 C898 0.950 . S
H879 C899 0.950 . S
H880 C901 0.950 . S
H881 C904 0.950 . S
H882 C905 0.950 . S
H883 C907 0.950 . S
H884 C908 0.950 . S
H885 C909 0.951 . S
H886 C911 0.951 . S
H887 C913 0.950 . S
H888 C914 0.950 . S
H889 C916 0.950 . S
H890 C919 0.950 . S
H891 C920 0.950 . S
H892 C922 0.950 . S
H893 C923 0.950 . S
C894 H876 0.951 . S
C894 C895 1.366 . S
C894 C896 1.388 . S
C895 C894 1.366 . S
C895 C899 1.385 . S
C896 H877 0.951 . S
C896 C894 1.388 . S
C896 C897 1.366 . S
C897 C896 1.366 . S
C897 C898 1.414 . S
C897 C900 1.499 . S
C898 H878 0.950 . S
C898 C897 1.414 . S
C898 C899 1.374 . S
C899 H879 0.950 . S
C899 C895 1.385 . S
C899 C898 1.374 . S
C900 C897 1.499 . S
C900 C901 1.373 . S
C900 C902 1.389 . S
C901 H880 0.950 . S
C901 C900 1.373 . S
C901 C917 1.377 . S
C902 C900 1.389 . S
C902 C903 1.524 . S
C902 C916 1.377 . S
C903 C902 1.524 . S
C903 C904 1.397 . S
C903 C908 1.363 . S
C904 H881 0.950 . S
C904 C903 1.397 . S
C904 C905 1.334 . S
C905 H882 0.950 . S
C905 C904 1.334 . S
C905 C906 1.287 . S
C906 C905 1.287 . S
C906 C907 1.524 . S
C906 H925 0.913 . S
C907 H883 0.950 . S
C907 C906 1.524 . S
C907 C908 1.415 . S
C908 H884 0.950 . S
C908 C903 1.363 . S
C908 C907 1.415 . S
C909 H885 0.951 . S
C909 C910 1.366 . S
C909 C911 1.388 . S
C910 C909 1.366 . S
C910 C914 1.385 . S
C911 H886 0.951 . S
C911 C909 1.388 . S
C911 C912 1.366 . S
C912 C911 1.366 . S
C912 C913 1.414 . S
C912 C915 1.499 . S
C913 H887 0.950 . S
C913 C912 1.414 . S
C913 C914 1.374 . S
C914 H888 0.950 . S
C914 C910 1.385 . S
C914 C913 1.374 . S
C915 C912 1.499 . S
C915 C916 1.373 . S
C915 C917 1.389 . S
C916 H889 0.950 . S
C916 C902 1.377 . S
C916 C915 1.373 . S
C917 C901 1.377 . S
C917 C915 1.389 . S
C917 C918 1.524 . S
C918 C917 1.524 . S
C918 C919 1.397 . S
C918 C923 1.363 . S
C919 H890 0.950 . S
C919 C918 1.397 . S
C919 C920 1.334 . S
C920 H891 0.950 . S
C920 C919 1.334 . S
C920 C921 1.287 . S
C921 C920 1.287 . S
C921 C922 1.524 . S
C921 H924 0.999 . S
C922 H892 0.950 . S
C922 C921 1.524 . S
C922 C923 1.415 . S
C923 H893 0.950 . S
C923 C918 1.363 . S
C923 C922 1.415 . S
H924 C921 0.999 . S
H925 C906 0.913 . S
H926 C944 0.951 . S
H927 C946 0.951 . S
H928 C948 0.950 . S
H929 C949 0.950 . S
H930 C951 0.950 . S
H931 C954 0.950 . S
H932 C955 0.950 . S
H933 C957 0.950 . S
H934 C958 0.950 . S
H935 C959 0.951 . S
H936 C961 0.951 . S
H937 C963 0.950 . S
H938 C964 0.950 . S
H939 C966 0.950 . S
H940 C969 0.950 . S
H941 C970 0.950 . S
H942 C972 0.950 . S
H943 C973 0.950 . S
C944 H926 0.951 . S
C944 C945 1.366 . S
C944 C946 1.388 . S
C945 C944 1.366 . S
C945 C949 1.385 . S
C946 H927 0.951 . S
C946 C944 1.388 . S
C946 C947 1.366 . S
C947 C946 1.366 . S
C947 C948 1.414 . S
C947 C950 1.499 . S
C948 H928 0.950 . S
C948 C947 1.414 . S
C948 C949 1.374 . S
C949 H929 0.950 . S
C949 C945 1.385 . S
C949 C948 1.374 . S
C950 C947 1.499 . S
C950 C951 1.373 . S
C950 C952 1.389 . S
C951 H930 0.950 . S
C951 C950 1.373 . S
C951 C967 1.377 . S
C952 C950 1.389 . S
C952 C953 1.524 . S
C952 C966 1.377 . S
C953 C952 1.524 . S
C953 C954 1.397 . S
C953 C958 1.363 . S
C954 H931 0.950 . S
C954 C953 1.397 . S
C954 C955 1.334 . S
C955 H932 0.950 . S
C955 C954 1.334 . S
C955 C956 1.287 . S
C956 C955 1.287 . S
C956 C957 1.524 . S
C956 H975 0.913 . S
C957 H933 0.950 . S
C957 C956 1.524 . S
C957 C958 1.415 . S
C958 H934 0.950 . S
C958 C953 1.363 . S
C958 C957 1.415 . S
C959 H935 0.951 . S
C959 C960 1.366 . S
C959 C961 1.388 . S
C960 C959 1.366 . S
C960 C964 1.385 . S
C961 H936 0.951 . S
C961 C959 1.388 . S
C961 C962 1.366 . S
C962 C961 1.366 . S
C962 C963 1.414 . S
C962 C965 1.499 . S
C963 H937 0.950 . S
C963 C962 1.414 . S
C963 C964 1.374 . S
C964 H938 0.950 . S
C964 C960 1.385 . S
C964 C963 1.374 . S
C965 C962 1.499 . S
C965 C966 1.373 . S
C965 C967 1.389 . S
C966 H939 0.950 . S
C966 C952 1.377 . S
C966 C965 1.373 . S
C967 C951 1.377 . S
C967 C965 1.389 . S
C967 C968 1.524 . S
C968 C967 1.524 . S
C968 C969 1.397 . S
C968 C973 1.363 . S
C969 H940 0.950 . S
C969 C968 1.397 . S
C969 C970 1.334 . S
C970 H941 0.950 . S
C970 C969 1.334 . S
C970 C971 1.287 . S
C971 C970 1.287 . S
C971 C972 1.524 . S
C971 H974 0.999 . S
C972 H942 0.950 . S
C972 C971 1.524 . S
C972 C973 1.415 . S
C973 H943 0.950 . S
C973 C968 1.363 . S
C973 C972 1.415 . S
H974 C971 0.999 . S
H975 C956 0.913 . S
H976 C994 0.951 . S
H977 C996 0.951 . S
H978 C998 0.950 . S
H979 C999 0.950 . S
H980 C1001 0.950 . S
H981 C1004 0.950 . S
H982 C1005 0.950 . S
H983 C1007 0.950 . S
H984 C1008 0.950 . S
H985 C1009 0.951 . S
H986 C1011 0.951 . S
H987 C1013 0.950 . S
H988 C1014 0.950 . S
H989 C1016 0.950 . S
H990 C1019 0.950 . S
H991 C1020 0.950 . S
H992 C1022 0.950 . S
H993 C1023 0.950 . S
C994 H976 0.951 . S
C994 C995 1.366 . S
C994 C996 1.388 . S
C995 C994 1.366 . S
C995 C999 1.385 . S
C996 H977 0.951 . S
C996 C994 1.388 . S
C996 C997 1.366 . S
C997 C996 1.366 . S
C997 C998 1.414 . S
C997 C1000 1.499 . S
C998 H978 0.950 . S
C998 C997 1.414 . S
C998 C999 1.374 . S
C999 H979 0.950 . S
C999 C995 1.385 . S
C999 C998 1.374 . S
C1000 C997 1.499 . S
C1000 C1001 1.373 . S
C1000 C1002 1.389 . S
C1001 H980 0.950 . S
C1001 C1000 1.373 . S
C1001 C1017 1.377 . S
C1002 C1000 1.389 . S
C1002 C1003 1.524 . S
C1002 C1016 1.377 . S
C1003 C1002 1.524 . S
C1003 C1004 1.397 . S
C1003 C1008 1.363 . S
C1004 H981 0.950 . S
C1004 C1003 1.397 . S
C1004 C1005 1.334 . S
C1005 H982 0.950 . S
C1005 C1004 1.334 . S
C1005 C1006 1.287 . S
C1006 C1005 1.287 . S
C1006 C1007 1.524 . S
C1006 H1025 0.913 . S
C1007 H983 0.950 . S
C1007 C1006 1.524 . S
C1007 C1008 1.415 . S
C1008 H984 0.950 . S
C1008 C1003 1.363 . S
C1008 C1007 1.415 . S
C1009 H985 0.951 . S
C1009 C1010 1.366 . S
C1009 C1011 1.388 . S
C1010 C1009 1.366 . S
C1010 C1014 1.385 . S
C1011 H986 0.951 . S
C1011 C1009 1.388 . S
C1011 C1012 1.366 . S
C1012 C1011 1.366 . S
C1012 C1013 1.414 . S
C1012 C1015 1.499 . S
C1013 H987 0.950 . S
C1013 C1012 1.414 . S
C1013 C1014 1.374 . S
C1014 H988 0.950 . S
C1014 C1010 1.385 . S
C1014 C1013 1.374 . S
C1015 C1012 1.499 . S
C1015 C1016 1.373 . S
C1015 C1017 1.389 . S
C1016 H989 0.950 . S
C1016 C1002 1.377 . S
C1016 C1015 1.373 . S
C1017 C1001 1.377 . S
C1017 C1015 1.389 . S
C1017 C1018 1.524 . S
C1018 C1017 1.524 . S
C1018 C1019 1.397 . S
C1018 C1023 1.363 . S
C1019 H990 0.950 . S
C1019 C1018 1.397 . S
C1019 C1020 1.334 . S
C1020 H991 0.950 . S
C1020 C1019 1.334 . S
C1020 C1021 1.287 . S
C1021 C1020 1.287 . S
C1021 C1022 1.524 . S
C1021 H1024 0.999 . S
C1022 H992 0.950 . S
C1022 C1021 1.524 . S
C1022 C1023 1.415 . S
C1023 H993 0.950 . S
C1023 C1018 1.363 . S
C1023 C1022 1.415 . S
H1024 C1021 0.999 . S
H1025 C1006 0.913 . S
H1026 C1044 0.951 . S
H1027 C1046 0.951 . S
H1028 C1048 0.950 . S
H1029 C1049 0.950 . S
H1030 C1051 0.950 . S
H1031 C1054 0.950 . S
H1032 C1055 0.950 1_655 S
H1033 C1057 0.950 . S
H1034 C1058 0.950 . S
H1035 C1059 0.951 . S
H1036 C1061 0.951 . S
H1037 C1063 0.950 . S
H1038 C1064 0.950 . S
H1039 C1066 0.950 . S
H1040 C1069 0.950 . S
H1041 C1070 0.950 . S
H1042 C1072 0.950 . S
H1043 C1073 0.950 . S
C1044 H1026 0.951 . S
C1044 C1045 1.366 . S
C1044 C1046 1.388 . S
C1045 C1044 1.366 . S
C1045 C1049 1.385 . S
C1046 H1027 0.951 . S
C1046 C1044 1.388 . S
C1046 C1047 1.366 . S
C1047 C1046 1.366 . S
C1047 C1048 1.414 . S
C1047 C1050 1.499 . S
C1048 H1028 0.950 . S
C1048 C1047 1.414 . S
C1048 C1049 1.374 . S
C1049 H1029 0.950 . S
C1049 C1045 1.385 . S
C1049 C1048 1.374 . S
C1050 C1047 1.499 . S
C1050 C1051 1.373 . S
C1050 C1052 1.389 . S
C1051 H1030 0.950 . S
C1051 C1050 1.373 . S
C1051 C1067 1.377 . S
C1052 C1050 1.389 . S
C1052 C1053 1.524 . S
C1052 C1066 1.377 . S
C1053 C1052 1.524 . S
C1053 C1054 1.397 . S
C1053 C1058 1.363 . S
C1054 H1031 0.950 . S
C1054 C1053 1.397 . S
C1054 C1055 1.334 . S
C1055 H1032 0.950 1_455 S
C1055 C1054 1.334 . S
C1055 C1056 1.287 . S
C1056 C1055 1.287 . S
C1056 C1057 1.524 . S
C1056 H1075 0.913 . S
C1057 H1033 0.950 . S
C1057 C1056 1.524 . S
C1057 C1058 1.415 . S
C1058 H1034 0.950 . S
C1058 C1053 1.363 . S
C1058 C1057 1.415 . S
C1059 H1035 0.951 . S
C1059 C1060 1.366 . S
C1059 C1061 1.388 . S
C1060 C1059 1.366 . S
C1060 C1064 1.385 . S
C1061 H1036 0.951 . S
C1061 C1059 1.388 . S
C1061 C1062 1.366 . S
C1062 C1061 1.366 . S
C1062 C1063 1.414 . S
C1062 C1065 1.499 . S
C1063 H1037 0.950 . S
C1063 C1062 1.414 . S
C1063 C1064 1.374 . S
C1064 H1038 0.950 . S
C1064 C1060 1.385 . S
C1064 C1063 1.374 . S
C1065 C1062 1.499 . S
C1065 C1066 1.373 . S
C1065 C1067 1.389 . S
C1066 H1039 0.950 . S
C1066 C1052 1.377 . S
C1066 C1065 1.373 . S
C1067 C1051 1.377 . S
C1067 C1065 1.389 . S
C1067 C1068 1.524 . S
C1068 C1067 1.524 . S
C1068 C1069 1.397 . S
C1068 C1073 1.363 . S
C1069 H1040 0.950 . S
C1069 C1068 1.397 . S
C1069 C1070 1.334 . S
C1070 H1041 0.950 . S
C1070 C1069 1.334 . S
C1070 C1071 1.287 . S
C1071 C1070 1.287 . S
C1071 C1072 1.524 . S
C1071 H1074 0.999 . S
C1072 H1042 0.950 . S
C1072 C1071 1.524 . S
C1072 C1073 1.415 . S
C1073 H1043 0.950 . S
C1073 C1068 1.363 . S
C1073 C1072 1.415 . S
H1074 C1071 0.999 . S
H1075 C1056 0.913 . S
H1076 C1094 0.951 . S
H1077 C1096 0.951 . S
H1078 C1098 0.950 . S
H1079 C1099 0.950 . S
H1080 C1101 0.950 . S
H1081 C1104 0.950 . S
H1082 C1105 0.950 . S
H1083 C1107 0.950 . S
H1084 C1108 0.950 . S
H1085 C1109 0.951 . S
H1086 C1111 0.951 . S
H1087 C1113 0.950 . S
H1088 C1114 0.950 . S
H1089 C1116 0.950 . S
H1090 C1119 0.950 . S
H1091 C1120 0.950 . S
H1092 C1122 0.950 . S
H1093 C1123 0.950 . S
C1094 H1076 0.951 . S
C1094 C1095 1.366 . S
C1094 C1096 1.388 . S
C1095 C1094 1.366 . S
C1095 C1099 1.385 . S
C1096 H1077 0.951 . S
C1096 C1094 1.388 . S
C1096 C1097 1.366 . S
C1097 C1096 1.366 . S
C1097 C1098 1.414 . S
C1097 C1100 1.499 . S
C1098 H1078 0.950 . S
C1098 C1097 1.414 . S
C1098 C1099 1.374 . S
C1099 H1079 0.950 . S
C1099 C1095 1.385 . S
C1099 C1098 1.374 . S
C1100 C1097 1.499 . S
C1100 C1101 1.373 . S
C1100 C1102 1.389 . S
C1101 H1080 0.950 . S
C1101 C1100 1.373 . S
C1101 C1117 1.377 . S
C1102 C1100 1.389 . S
C1102 C1103 1.524 . S
C1102 C1116 1.377 . S
C1103 C1102 1.524 . S
C1103 C1104 1.397 . S
C1103 C1108 1.363 . S
C1104 H1081 0.950 . S
C1104 C1103 1.397 . S
C1104 C1105 1.334 . S
C1105 H1082 0.950 . S
C1105 C1104 1.334 . S
C1105 C1106 1.287 . S
C1106 C1105 1.287 . S
C1106 C1107 1.524 . S
C1106 H1125 0.913 . S
C1107 H1083 0.950 . S
C1107 C1106 1.524 . S
C1107 C1108 1.415 . S
C1108 H1084 0.950 . S
C1108 C1103 1.363 . S
C1108 C1107 1.415 . S
C1109 H1085 0.951 . S
C1109 C1110 1.366 . S
C1109 C1111 1.388 . S
C1110 C1109 1.366 . S
C1110 C1114 1.385 . S
C1111 H1086 0.951 . S
C1111 C1109 1.388 . S
C1111 C1112 1.366 . S
C1112 C1111 1.366 . S
C1112 C1113 1.414 . S
C1112 C1115 1.499 . S
C1113 H1087 0.950 . S
C1113 C1112 1.414 . S
C1113 C1114 1.374 . S
C1114 H1088 0.950 . S
C1114 C1110 1.385 . S
C1114 C1113 1.374 . S
C1115 C1112 1.499 . S
C1115 C1116 1.373 . S
C1115 C1117 1.389 . S
C1116 H1089 0.950 . S
C1116 C1102 1.377 . S
C1116 C1115 1.373 . S
C1117 C1101 1.377 . S
C1117 C1115 1.389 . S
C1117 C1118 1.524 . S
C1118 C1117 1.524 . S
C1118 C1119 1.397 . S
C1118 C1123 1.363 . S
C1119 H1090 0.950 . S
C1119 C1118 1.397 . S
C1119 C1120 1.334 . S
C1120 H1091 0.950 . S
C1120 C1119 1.334 . S
C1120 C1121 1.287 . S
C1121 C1120 1.287 . S
C1121 C1122 1.524 . S
C1121 H1124 0.999 . S
C1122 H1092 0.950 . S
C1122 C1121 1.524 . S
C1122 C1123 1.415 . S
C1123 H1093 0.950 . S
C1123 C1118 1.363 . S
C1123 C1122 1.415 . S
H1124 C1121 0.999 . S
H1125 C1106 0.913 . S
H1126 C1144 0.951 . S
H1127 C1146 0.951 . S
H1128 C1148 0.950 . S
H1129 C1149 0.950 . S
H1130 C1151 0.950 . S
H1131 C1154 0.950 1_455 S
H1132 C1155 0.950 . S
H1133 C1157 0.950 . S
H1134 C1158 0.950 . S
H1135 C1159 0.951 . S
H1136 C1161 0.951 . S
H1137 C1163 0.950 . S
H1138 C1164 0.950 . S
H1139 C1166 0.950 . S
H1140 C1169 0.950 . S
H1141 C1170 0.950 . S
H1142 C1172 0.950 . S
H1143 C1173 0.950 . S
C1144 H1126 0.951 . S
C1144 C1145 1.366 . S
C1144 C1146 1.388 . S
C1145 C1144 1.366 . S
C1145 C1149 1.385 . S
C1146 H1127 0.951 . S
C1146 C1144 1.388 . S
C1146 C1147 1.366 . S
C1147 C1146 1.366 . S
C1147 C1148 1.414 . S
C1147 C1150 1.499 . S
C1148 H1128 0.950 . S
C1148 C1147 1.414 . S
C1148 C1149 1.374 . S
C1149 H1129 0.950 . S
C1149 C1145 1.385 . S
C1149 C1148 1.374 . S
C1150 C1147 1.499 . S
C1150 C1151 1.373 . S
C1150 C1152 1.389 . S
C1151 H1130 0.950 . S
C1151 C1150 1.373 . S
C1151 C1167 1.377 . S
C1152 C1150 1.389 . S
C1152 C1153 1.524 . S
C1152 C1166 1.377 . S
C1153 C1152 1.524 . S
C1153 C1154 1.397 . S
C1153 C1158 1.363 . S
C1154 H1131 0.950 1_655 S
C1154 C1153 1.397 . S
C1154 C1155 1.334 1_655 S
C1155 H1132 0.950 . S
C1155 C1154 1.334 1_455 S
C1155 C1156 1.287 1_455 S
C1156 C1155 1.287 1_655 S
C1156 C1157 1.524 . S
C1156 H1175 0.913 . S
C1157 H1133 0.950 . S
C1157 C1156 1.524 . S
C1157 C1158 1.415 . S
C1158 H1134 0.950 . S
C1158 C1153 1.363 . S
C1158 C1157 1.415 . S
C1159 H1135 0.951 . S
C1159 C1160 1.366 . S
C1159 C1161 1.388 . S
C1160 C1159 1.366 . S
C1160 C1164 1.385 1_455 S
C1161 H1136 0.951 . S
C1161 C1159 1.388 . S
C1161 C1162 1.366 1_455 S
C1162 C1161 1.366 1_655 S
C1162 C1163 1.414 . S
C1162 C1165 1.499 . S
C1163 H1137 0.950 . S
C1163 C1162 1.414 . S
C1163 C1164 1.374 . S
C1164 H1138 0.950 . S
C1164 C1160 1.385 1_655 S
C1164 C1163 1.374 . S
C1165 C1162 1.499 . S
C1165 C1166 1.373 . S
C1165 C1167 1.389 . S
C1166 H1139 0.950 . S
C1166 C1152 1.377 . S
C1166 C1165 1.373 . S
C1167 C1151 1.377 . S
C1167 C1165 1.389 . S
C1167 C1168 1.524 . S
C1168 C1167 1.524 . S
C1168 C1169 1.397 . S
C1168 C1173 1.363 . S
C1169 H1140 0.950 . S
C1169 C1168 1.397 . S
C1169 C1170 1.334 . S
C1170 H1141 0.950 . S
C1170 C1169 1.334 . S
C1170 C1171 1.287 . S
C1171 C1170 1.287 . S
C1171 C1172 1.524 . S
C1171 H1174 0.999 . S
C1172 H1142 0.950 . S
C1172 C1171 1.524 . S
C1172 C1173 1.415 . S
C1173 H1143 0.950 . S
C1173 C1168 1.363 . S
C1173 C1172 1.415 . S
H1174 C1171 0.999 . S
H1175 C1156 0.913 . S
H1176 C1194 0.951 . S
H1177 C1196 0.951 . S
H1178 C1198 0.950 . S
H1179 C1199 0.950 . S
H1180 C1201 0.950 . S
H1181 C1204 0.950 . S
H1182 C1205 0.950 . S
H1183 C1207 0.950 . S
H1184 C1208 0.950 . S
H1185 C1209 0.951 . S
H1186 C1211 0.951 . S
H1187 C1213 0.950 . S
H1188 C1214 0.950 . S
H1189 C1216 0.950 . S
H1190 C1219 0.950 . S
H1191 C1220 0.950 . S
H1192 C1222 0.950 . S
H1193 C1223 0.950 . S
C1194 H1176 0.951 . S
C1194 C1195 1.366 . S
C1194 C1196 1.388 . S
C1195 C1194 1.366 . S
C1195 C1199 1.385 . S
C1196 H1177 0.951 . S
C1196 C1194 1.388 . S
C1196 C1197 1.366 . S
C1197 C1196 1.366 . S
C1197 C1198 1.414 . S
C1197 C1200 1.499 . S
C1198 H1178 0.950 . S
C1198 C1197 1.414 . S
C1198 C1199 1.374 . S
C1199 H1179 0.950 . S
C1199 C1195 1.385 . S
C1199 C1198 1.374 . S
C1200 C1197 1.499 . S
C1200 C1201 1.373 . S
C1200 C1202 1.389 . S
C1201 H1180 0.950 . S
C1201 C1200 1.373 . S
C1201 C1217 1.377 . S
C1202 C1200 1.389 . S
C1202 C1203 1.524 . S
C1202 C1216 1.377 . S
C1203 C1202 1.524 . S
C1203 C1204 1.397 . S
C1203 C1208 1.363 . S
C1204 H1181 0.950 . S
C1204 C1203 1.397 . S
C1204 C1205 1.334 . S
C1205 H1182 0.950 . S
C1205 C1204 1.334 . S
C1205 C1206 1.287 . S
C1206 C1205 1.287 . S
C1206 C1207 1.524 . S
C1206 H1225 0.913 . S
C1207 H1183 0.950 . S
C1207 C1206 1.524 . S
C1207 C1208 1.415 . S
C1208 H1184 0.950 . S
C1208 C1203 1.363 . S
C1208 C1207 1.415 . S
C1209 H1185 0.951 . S
C1209 C1210 1.366 . S
C1209 C1211 1.388 . S
C1210 C1209 1.366 . S
C1210 C1214 1.385 . S
C1211 H1186 0.951 . S
C1211 C1209 1.388 . S
C1211 C1212 1.366 . S
C1212 C1211 1.366 . S
C1212 C1213 1.414 . S
C1212 C1215 1.499 . S
C1213 H1187 0.950 . S
C1213 C1212 1.414 . S
C1213 C1214 1.374 . S
C1214 H1188 0.950 . S
C1214 C1210 1.385 . S
C1214 C1213 1.374 . S
C1215 C1212 1.499 . S
C1215 C1216 1.373 . S
C1215 C1217 1.389 . S
C1216 H1189 0.950 . S
C1216 C1202 1.377 . S
C1216 C1215 1.373 . S
C1217 C1201 1.377 . S
C1217 C1215 1.389 . S
C1217 C1218 1.524 . S
C1218 C1217 1.524 . S
C1218 C1219 1.397 . S
C1218 C1223 1.363 . S
C1219 H1190 0.950 . S
C1219 C1218 1.397 . S
C1219 C1220 1.334 . S
C1220 H1191 0.950 . S
C1220 C1219 1.334 . S
C1220 C1221 1.287 . S
C1221 C1220 1.287 . S
C1221 C1222 1.524 . S
C1221 H1224 0.999 . S
C1222 H1192 0.950 . S
C1222 C1221 1.524 . S
C1222 C1223 1.415 . S
C1223 H1193 0.950 . S
C1223 C1218 1.363 . S
C1223 C1222 1.415 . S
H1224 C1221 0.999 . S
H1225 C1206 0.913 . S
H1226 C1244 0.951 . S
H1227 C1246 0.951 . S
H1228 C1248 0.950 . S
H1229 C1249 0.950 . S
H1230 C1251 0.950 . S
H1231 C1254 0.950 . S
H1232 C1255 0.950 . S
H1233 C1257 0.950 . S
H1234 C1258 0.950 . S
H1235 C1259 0.951 . S
H1236 C1261 0.951 . S
H1237 C1263 0.950 . S
H1238 C1264 0.950 . S
H1239 C1266 0.950 . S
H1240 C1269 0.950 . S
H1241 C1270 0.950 . S
H1242 C1272 0.950 . S
H1243 C1273 0.950 . S
C1244 H1226 0.951 . S
C1244 C1245 1.366 . S
C1244 C1246 1.388 . S
C1245 C1244 1.366 . S
C1245 C1249 1.385 . S
C1246 H1227 0.951 . S
C1246 C1244 1.388 . S
C1246 C1247 1.366 . S
C1247 C1246 1.366 . S
C1247 C1248 1.414 . S
C1247 C1250 1.499 . S
C1248 H1228 0.950 . S
C1248 C1247 1.414 . S
C1248 C1249 1.374 . S
C1249 H1229 0.950 . S
C1249 C1245 1.385 . S
C1249 C1248 1.374 . S
C1250 C1247 1.499 . S
C1250 C1251 1.373 . S
C1250 C1252 1.389 . S
C1251 H1230 0.950 . S
C1251 C1250 1.373 . S
C1251 C1267 1.377 . S
C1252 C1250 1.389 . S
C1252 C1253 1.524 . S
C1252 C1266 1.377 . S
C1253 C1252 1.524 . S
C1253 C1254 1.397 . S
C1253 C1258 1.363 . S
C1254 H1231 0.950 . S
C1254 C1253 1.397 . S
C1254 C1255 1.334 . S
C1255 H1232 0.950 . S
C1255 C1254 1.334 . S
C1255 C1256 1.287 . S
C1256 C1255 1.287 . S
C1256 C1257 1.524 . S
C1256 H1275 0.913 . S
C1257 H1233 0.950 . S
C1257 C1256 1.524 . S
C1257 C1258 1.415 . S
C1258 H1234 0.950 . S
C1258 C1253 1.363 . S
C1258 C1257 1.415 . S
C1259 H1235 0.951 . S
C1259 C1260 1.366 . S
C1259 C1261 1.388 . S
C1260 C1259 1.366 . S
C1260 C1264 1.385 . S
C1261 H1236 0.951 . S
C1261 C1259 1.388 . S
C1261 C1262 1.366 . S
C1262 C1261 1.366 . S
C1262 C1263 1.414 . S
C1262 C1265 1.499 . S
C1263 H1237 0.950 . S
C1263 C1262 1.414 . S
C1263 C1264 1.374 . S
C1264 H1238 0.950 . S
C1264 C1260 1.385 . S
C1264 C1263 1.374 . S
C1265 C1262 1.499 . S
C1265 C1266 1.373 . S
C1265 C1267 1.389 . S
C1266 H1239 0.950 . S
C1266 C1252 1.377 . S
C1266 C1265 1.373 . S
C1267 C1251 1.377 . S
C1267 C1265 1.389 . S
C1267 C1268 1.524 . S
C1268 C1267 1.524 . S
C1268 C1269 1.397 . S
C1268 C1273 1.363 . S
C1269 H1240 0.950 . S
C1269 C1268 1.397 . S
C1269 C1270 1.334 . S
C1270 H1241 0.950 . S
C1270 C1269 1.334 . S
C1270 C1271 1.287 . S
C1271 C1270 1.287 . S
C1271 C1272 1.524 . S
C1271 H1274 0.999 . S
C1272 H1242 0.950 . S
C1272 C1271 1.524 . S
C1272 C1273 1.415 . S
C1273 H1243 0.950 . S
C1273 C1268 1.363 . S
C1273 C1272 1.415 . S
H1274 C1271 0.999 . S
H1275 C1256 0.913 . S
H1276 C1294 0.951 . S
H1277 C1296 0.951 . S
H1278 C1298 0.950 . S
H1279 C1299 0.950 . S
H1280 C1301 0.950 . S
H1281 C1304 0.950 . S
H1282 C1305 0.950 . S
H1283 C1307 0.950 . S
H1284 C1308 0.950 . S
H1285 C1309 0.951 . S
H1286 C1311 0.951 . S
H1287 C1313 0.950 . S
H1288 C1314 0.950 . S
H1289 C1316 0.950 . S
H1290 C1319 0.972 . S
H1291 C1320 0.950 . S
H1292 C1322 0.950 . S
H1293 C1323 0.950 . S
C1294 H1276 0.951 . S
C1294 C1295 1.366 . S
C1294 C1296 1.388 . S
C1295 C1294 1.366 . S
C1295 C1299 1.385 . S
C1296 H1277 0.951 . S
C1296 C1294 1.388 . S
C1296 C1297 1.366 . S
C1297 C1296 1.366 . S
C1297 C1298 1.414 . S
C1297 C1300 1.499 1_545 S
C1298 H1278 0.950 . S
C1298 C1297 1.414 . S
C1298 C1299 1.374 . S
C1299 H1279 0.950 . S
C1299 C1295 1.385 . S
C1299 C1298 1.374 . S
C1300 C1297 1.499 1_565 S
C1300 C1301 1.373 1_565 S
C1300 C1302 1.389 . S
C1301 H1280 0.950 . S
C1301 C1300 1.373 1_545 S
C1301 C1317 1.377 1_545 S
C1302 C1300 1.389 . S
C1302 C1303 1.524 . S
C1302 C1316 1.377 . S
C1303 C1302 1.524 . S
C1303 C1304 1.397 . S
C1303 C1308 1.363 . S
C1304 H1281 0.950 . S
C1304 C1303 1.397 . S
C1304 C1305 1.334 . S
C1305 H1282 0.950 . S
C1305 C1304 1.334 . S
C1305 C1306 1.287 . S
C1306 C1305 1.287 . S
C1306 C1307 1.524 . S
C1306 H1325 0.913 . S
C1307 H1283 0.950 . S
C1307 C1306 1.524 . S
C1307 C1308 1.415 . S
C1308 H1284 0.950 . S
C1308 C1303 1.363 . S
C1308 C1307 1.415 . S
C1309 H1285 0.951 . S
C1309 C1310 1.366 . S
C1309 C1311 1.388 . S
C1310 C1309 1.366 . S
C1310 C1314 1.385 1_556 S
C1311 H1286 0.951 . S
C1311 C1309 1.388 . S
C1311 C1312 1.366 . S
C1312 C1311 1.366 . S
C1312 C1313 1.414 1_556 S
C1312 C1315 1.499 . S
C1313 H1287 0.950 . S
C1313 C1312 1.414 1_554 S
C1313 C1314 1.374 . S
C1314 H1288 0.950 . S
C1314 C1310 1.385 1_554 S
C1314 C1313 1.374 . S
C1315 C1312 1.499 . S
C1315 C1316 1.373 . S
C1315 C1317 1.389 . S
C1316 H1289 0.950 . S
C1316 C1302 1.377 . S
C1316 C1315 1.373 . S
C1317 C1301 1.377 1_565 S
C1317 C1315 1.389 . S
C1317 C1318 1.524 . S
C1318 C1317 1.524 . S
C1318 C1319 1.370 1_556 S
C1318 C1323 1.363 1_565 S
C1319 H1290 0.972 . S
C1319 C1318 1.370 1_554 S
C1319 C1320 1.339 1_565 S
C1320 H1291 0.950 . S
C1320 C1319 1.339 1_545 S
C1320 C1321 1.287 1_554 S
C1321 C1320 1.287 1_556 S
C1321 C1322 1.524 . S
C1321 H1324 0.999 . S
C1322 H1292 0.950 . S
C1322 C1321 1.524 . S
C1322 C1323 1.415 . S
C1323 H1293 0.950 . S
C1323 C1318 1.363 1_545 S
C1323 C1322 1.415 . S
H1324 C1321 0.999 . S
H1325 C1306 0.913 . S
H1326 C1344 0.951 . S
H1327 C1346 0.951 . S
H1328 C1348 0.950 . S
H1329 C1349 0.950 . S
H1330 C1351 0.950 . S
H1331 C1354 0.950 . S
H1332 C1355 0.950 . S
H1333 C1357 0.950 . S
H1334 C1358 0.950 . S
H1335 C1359 0.951 . S
H1336 C1361 0.951 . S
H1337 C1363 0.950 . S
H1338 C1364 0.950 . S
H1339 C1366 0.950 . S
H1340 C1369 0.950 . S
H1341 C1370 0.950 . S
H1342 C1372 0.950 . S
H1343 C1373 0.950 . S
C1344 H1326 0.951 . S
C1344 C1345 1.366 . S
C1344 C1346 1.388 . S
C1345 C1344 1.366 . S
C1345 C1349 1.385 . S
C1346 H1327 0.951 . S
C1346 C1344 1.388 . S
C1346 C1347 1.366 . S
C1347 C1346 1.366 . S
C1347 C1348 1.414 . S
C1347 C1350 1.499 . S
C1348 H1328 0.950 . S
C1348 C1347 1.414 . S
C1348 C1349 1.374 . S
C1349 H1329 0.950 . S
C1349 C1345 1.385 . S
C1349 C1348 1.374 . S
C1350 C1347 1.499 . S
C1350 C1351 1.373 . S
C1350 C1352 1.389 . S
C1351 H1330 0.950 . S
C1351 C1350 1.373 . S
C1351 C1367 1.377 . S
C1352 C1350 1.389 . S
C1352 C1353 1.524 . S
C1352 C1366 1.377 . S
C1353 C1352 1.524 . S
C1353 C1354 1.397 . S
C1353 C1358 1.363 . S
C1354 H1331 0.950 . S
C1354 C1353 1.397 . S
C1354 C1355 1.334 . S
C1355 H1332 0.950 . S
C1355 C1354 1.334 . S
C1355 C1356 1.287 . S
C1356 C1355 1.287 . S
C1356 C1357 1.524 . S
C1356 H1375 0.913 . S
C1357 H1333 0.950 . S
C1357 C1356 1.524 . S
C1357 C1358 1.415 . S
C1358 H1334 0.950 . S
C1358 C1353 1.363 . S
C1358 C1357 1.415 . S
C1359 H1335 0.951 . S
C1359 C1360 1.366 . S
C1359 C1361 1.388 . S
C1360 C1359 1.366 . S
C1360 C1364 1.385 . S
C1361 H1336 0.951 . S
C1361 C1359 1.388 . S
C1361 C1362 1.366 . S
C1362 C1361 1.366 . S
C1362 C1363 1.414 . S
C1362 C1365 1.499 . S
C1363 H1337 0.950 . S
C1363 C1362 1.414 . S
C1363 C1364 1.374 . S
C1364 H1338 0.950 . S
C1364 C1360 1.385 . S
C1364 C1363 1.374 . S
C1365 C1362 1.499 . S
C1365 C1366 1.373 . S
C1365 C1367 1.389 . S
C1366 H1339 0.950 . S
C1366 C1352 1.377 . S
C1366 C1365 1.373 . S
C1367 C1351 1.377 . S
C1367 C1365 1.389 . S
C1367 C1368 1.524 . S
C1368 C1367 1.524 . S
C1368 C1369 1.397 . S
C1368 C1373 1.363 . S
C1369 H1340 0.950 . S
C1369 C1368 1.397 . S
C1369 C1370 1.334 . S
C1370 H1341 0.950 . S
C1370 C1369 1.334 . S
C1370 C1371 1.287 . S
C1371 C1370 1.287 . S
C1371 C1372 1.524 . S
C1371 H1374 0.999 . S
C1372 H1342 0.950 . S
C1372 C1371 1.524 . S
C1372 C1373 1.415 . S
C1373 H1343 0.950 . S
C1373 C1368 1.363 . S
C1373 C1372 1.415 . S
H1374 C1371 0.999 . S
H1375 C1356 0.913 . S
H1376 C1394 0.951 . S
H1377 C1396 0.951 . S
H1378 C1398 0.950 . S
H1379 C1399 0.950 . S
H1380 C1401 0.950 . S
H1381 C1404 0.950 . S
H1382 C1405 0.950 . S
H1383 C1407 0.950 . S
H1384 C1408 0.950 . S
H1385 C1409 0.951 . S
H1386 C1411 0.951 . S
H1387 C1413 0.950 . S
H1388 C1414 0.950 . S
H1389 C1416 0.950 . S
H1390 C1419 0.950 . S
H1391 C1420 0.950 . S
H1392 C1422 0.950 1_565 S
H1393 C1423 0.950 1_565 S
C1394 H1376 0.951 . S
C1394 C1395 1.366 1_545 S
C1394 C1396 1.388 . S
C1395 C1394 1.366 1_565 S
C1395 C1399 1.385 . S
C1396 H1377 0.951 . S
C1396 C1394 1.388 . S
C1396 C1397 1.366 . S
C1397 C1396 1.366 . S
C1397 C1398 1.414 1_545 S
C1397 C1400 1.499 . S
C1398 H1378 0.950 . S
C1398 C1397 1.414 1_565 S
C1398 C1399 1.374 . S
C1399 H1379 0.950 . S
C1399 C1395 1.385 . S
C1399 C1398 1.374 . S
C1400 C1397 1.499 . S
C1400 C1401 1.373 . S
C1400 C1402 1.389 . S
C1401 H1380 0.950 . S
C1401 C1400 1.373 . S
C1401 C1417 1.377 . S
C1402 C1400 1.389 . S
C1402 C1403 1.524 . S
C1402 C1416 1.377 . S
C1403 C1402 1.524 . S
C1403 C1404 1.397 . S
C1403 C1408 1.363 . S
C1404 H1381 0.950 . S
C1404 C1403 1.397 . S
C1404 C1405 1.334 . S
C1405 H1382 0.950 . S
C1405 C1404 1.334 . S
C1405 C1406 1.287 . S
C1406 C1405 1.287 . S
C1406 C1407 1.524 . S
C1406 H1425 0.913 . S
C1407 H1383 0.950 . S
C1407 C1406 1.524 . S
C1407 C1408 1.415 . S
C1408 H1384 0.950 . S
C1408 C1403 1.363 . S
C1408 C1407 1.415 . S
C1409 H1385 0.951 . S
C1409 C1410 1.366 . S
C1409 C1411 1.388 . S
C1410 C1409 1.366 . S
C1410 C1414 1.385 . S
C1411 H1386 0.951 . S
C1411 C1409 1.388 . S
C1411 C1412 1.366 . S
C1412 C1411 1.366 . S
C1412 C1413 1.414 . S
C1412 C1415 1.499 . S
C1413 H1387 0.950 . S
C1413 C1412 1.414 . S
C1413 C1414 1.374 . S
C1414 H1388 0.950 . S
C1414 C1410 1.385 . S
C1414 C1413 1.374 . S
C1415 C1412 1.499 . S
C1415 C1416 1.373 . S
C1415 C1417 1.389 . S
C1416 H1389 0.950 . S
C1416 C1402 1.377 . S
C1416 C1415 1.373 . S
C1417 C1401 1.377 . S
C1417 C1415 1.389 . S
C1417 C1418 1.524 . S
C1418 C1417 1.524 . S
C1418 C1419 1.397 . S
C1418 C1423 1.363 . S
C1419 H1390 0.950 . S
C1419 C1418 1.397 . S
C1419 C1420 1.334 . S
C1420 H1391 0.950 . S
C1420 C1419 1.334 . S
C1420 C1421 1.287 . S
C1421 C1420 1.287 . S
C1421 C1422 1.524 . S
C1421 H1424 0.999 . S
C1422 H1392 0.950 1_545 S
C1422 C1421 1.524 . S
C1422 C1423 1.415 . S
C1423 H1393 0.950 1_545 S
C1423 C1418 1.363 . S
C1423 C1422 1.415 . S
H1424 C1421 0.999 . S
H1425 C1406 0.913 . S
H1426 C1444 0.951 . S
H1427 C1446 0.951 . S
H1428 C1448 0.950 . S
H1429 C1449 0.950 . S
H1430 C1451 0.950 . S
H1431 C1454 0.950 . S
H1432 C1455 0.950 . S
H1433 C1457 0.950 . S
H1434 C1458 0.950 . S
H1435 C1459 0.951 . S
H1436 C1461 0.951 . S
H1437 C1463 0.950 . S
H1438 C1464 0.950 . S
H1439 C1466 0.950 . S
H1440 C1469 0.950 . S
H1441 C1470 0.950 . S
H1442 C1472 0.950 . S
H1443 C1473 0.950 . S
C1444 H1426 0.951 . S
C1444 C1445 1.366 . S
C1444 C1446 1.388 . S
C1445 C1444 1.366 . S
C1445 C1449 1.385 . S
C1446 H1427 0.951 . S
C1446 C1444 1.388 . S
C1446 C1447 1.366 . S
C1447 C1446 1.366 . S
C1447 C1448 1.414 . S
C1447 C1450 1.499 . S
C1448 H1428 0.950 . S
C1448 C1447 1.414 . S
C1448 C1449 1.374 . S
C1449 H1429 0.950 . S
C1449 C1445 1.385 . S
C1449 C1448 1.374 . S
C1450 C1447 1.499 . S
C1450 C1451 1.373 . S
C1450 C1452 1.389 . S
C1451 H1430 0.950 . S
C1451 C1450 1.373 . S
C1451 C1467 1.377 . S
C1452 C1450 1.389 . S
C1452 C1453 1.524 . S
C1452 C1466 1.377 . S
C1453 C1452 1.524 . S
C1453 C1454 1.397 . S
C1453 C1458 1.363 . S
C1454 H1431 0.950 . S
C1454 C1453 1.397 . S
C1454 C1455 1.334 . S
C1455 H1432 0.950 . S
C1455 C1454 1.334 . S
C1455 C1456 1.287 . S
C1456 C1455 1.287 . S
C1456 C1457 1.524 . S
C1456 H1475 0.913 . S
C1457 H1433 0.950 . S
C1457 C1456 1.524 . S
C1457 C1458 1.415 . S
C1458 H1434 0.950 . S
C1458 C1453 1.363 . S
C1458 C1457 1.415 . S
C1459 H1435 0.951 . S
C1459 C1460 1.366 . S
C1459 C1461 1.388 . S
C1460 C1459 1.366 . S
C1460 C1464 1.385 . S
C1461 H1436 0.951 . S
C1461 C1459 1.388 . S
C1461 C1462 1.366 . S
C1462 C1461 1.366 . S
C1462 C1463 1.414 . S
C1462 C1465 1.499 . S
C1463 H1437 0.950 . S
C1463 C1462 1.414 . S
C1463 C1464 1.374 . S
C1464 H1438 0.950 . S
C1464 C1460 1.385 . S
C1464 C1463 1.374 . S
C1465 C1462 1.499 . S
C1465 C1466 1.373 . S
C1465 C1467 1.389 . S
C1466 H1439 0.950 . S
C1466 C1452 1.377 . S
C1466 C1465 1.373 . S
C1467 C1451 1.377 . S
C1467 C1465 1.389 . S
C1467 C1468 1.524 . S
C1468 C1467 1.524 . S
C1468 C1469 1.397 . S
C1468 C1473 1.363 . S
C1469 H1440 0.950 . S
C1469 C1468 1.397 . S
C1469 C1470 1.334 . S
C1470 H1441 0.950 . S
C1470 C1469 1.334 . S
C1470 C1471 1.287 . S
C1471 C1470 1.287 . S
C1471 C1472 1.524 . S
C1471 H1474 0.999 . S
C1472 H1442 0.950 . S
C1472 C1471 1.524 . S
C1472 C1473 1.415 . S
C1473 H1443 0.950 . S
C1473 C1468 1.363 . S
C1473 C1472 1.415 . S
H1474 C1471 0.999 . S
H1475 C1456 0.913 . S
H1476 C1494 0.951 . S
H1477 C1496 0.951 . S
H1478 C1498 0.950 . S
H1479 C1499 0.950 . S
H1480 C1501 0.950 . S
H1481 C1504 0.950 . S
H1482 C1505 0.950 . S
H1483 C1507 0.950 . S
H1484 C1508 0.950 . S
H1485 C1509 0.951 . S
H1486 C1511 0.951 . S
H1487 C1513 0.950 . S
H1488 C1514 0.950 . S
H1489 C1516 0.950 . S
H1490 C1519 0.950 . S
H1491 C1520 0.950 . S
H1492 C1522 0.950 1_565 S
H1493 C1523 0.950 . S
C1494 H1476 0.951 . S
C1494 C1495 1.366 1_545 S
C1494 C1496 1.388 . S
C1495 C1494 1.366 1_565 S
C1495 C1499 1.385 . S
C1496 H1477 0.951 . S
C1496 C1494 1.388 . S
C1496 C1497 1.366 . S
C1497 C1496 1.366 . S
C1497 C1498 1.414 1_545 S
C1497 C1500 1.499 . S
C1498 H1478 0.950 . S
C1498 C1497 1.414 1_565 S
C1498 C1499 1.374 . S
C1499 H1479 0.950 . S
C1499 C1495 1.385 . S
C1499 C1498 1.374 . S
C1500 C1497 1.499 . S
C1500 C1501 1.373 . S
C1500 C1502 1.389 . S
C1501 H1480 0.950 . S
C1501 C1500 1.373 . S
C1501 C1517 1.377 . S
C1502 C1500 1.389 . S
C1502 C1503 1.524 . S
C1502 C1516 1.377 . S
C1503 C1502 1.524 . S
C1503 C1504 1.397 . S
C1503 C1508 1.363 . S
C1504 H1481 0.950 . S
C1504 C1503 1.397 . S
C1504 C1505 1.334 . S
C1505 H1482 0.950 . S
C1505 C1504 1.334 . S
C1505 C1506 1.287 . S
C1506 C1505 1.287 . S
C1506 C1507 1.524 . S
C1506 H1525 0.913 . S
C1507 H1483 0.950 . S
C1507 C1506 1.524 . S
C1507 C1508 1.415 . S
C1508 H1484 0.950 . S
C1508 C1503 1.363 . S
C1508 C1507 1.415 . S
C1509 H1485 0.951 . S
C1509 C1510 1.366 . S
C1509 C1511 1.388 . S
C1510 C1509 1.366 . S
C1510 C1514 1.385 . S
C1511 H1486 0.951 . S
C1511 C1509 1.388 . S
C1511 C1512 1.366 . S
C1512 C1511 1.366 . S
C1512 C1513 1.414 . S
C1512 C1515 1.499 . S
C1513 H1487 0.950 . S
C1513 C1512 1.414 . S
C1513 C1514 1.374 . S
C1514 H1488 0.950 . S
C1514 C1510 1.385 . S
C1514 C1513 1.374 . S
C1515 C1512 1.499 . S
C1515 C1516 1.373 . S
C1515 C1517 1.389 . S
C1516 H1489 0.950 . S
C1516 C1502 1.377 . S
C1516 C1515 1.373 . S
C1517 C1501 1.377 . S
C1517 C1515 1.389 . S
C1517 C1518 1.524 . S
C1518 C1517 1.524 . S
C1518 C1519 1.397 . S
C1518 C1523 1.363 . S
C1519 H1490 0.950 . S
C1519 C1518 1.397 . S
C1519 C1520 1.334 . S
C1520 H1491 0.950 . S
C1520 C1519 1.334 . S
C1520 C1521 1.287 . S
C1521 C1520 1.287 . S
C1521 C1522 1.524 . S
C1521 H1524 0.999 . S
C1522 H1492 0.950 1_545 S
C1522 C1521 1.524 . S
C1522 C1523 1.415 . S
C1523 H1493 0.950 . S
C1523 C1518 1.363 . S
C1523 C1522 1.415 . S
H1524 C1521 0.999 . S
H1525 C1506 0.913 . S
H1526 C1544 0.951 . S
H1527 C1546 0.951 . S
H1528 C1548 0.950 . S
H1529 C1549 0.950 . S
H1530 C1551 0.950 . S
H1531 C1554 0.950 . S
H1532 C1555 0.950 . S
H1533 C1557 0.950 . S
H1534 C1558 0.950 . S
H1535 C1559 0.951 . S
H1536 C1561 0.951 . S
H1537 C1563 0.950 . S
H1538 C1564 0.950 . S
H1539 C1566 0.950 . S
H1540 C1569 0.950 . S
H1541 C1570 0.950 . S
H1542 C1572 0.950 . S
H1543 C1573 0.950 . S
C1544 H1526 0.951 . S
C1544 C1545 1.366 . S
C1544 C1546 1.388 . S
C1545 C1544 1.366 . S
C1545 C1549 1.385 . S
C1546 H1527 0.951 . S
C1546 C1544 1.388 . S
C1546 C1547 1.366 . S
C1547 C1546 1.366 . S
C1547 C1548 1.414 . S
C1547 C1550 1.499 . S
C1548 H1528 0.950 . S
C1548 C1547 1.414 . S
C1548 C1549 1.374 . S
C1549 H1529 0.950 . S
C1549 C1545 1.385 . S
C1549 C1548 1.374 . S
C1550 C1547 1.499 . S
C1550 C1551 1.373 . S
C1550 C1552 1.389 . S
C1551 H1530 0.950 . S
C1551 C1550 1.373 . S
C1551 C1567 1.377 . S
C1552 C1550 1.389 . S
C1552 C1553 1.524 . S
C1552 C1566 1.377 . S
C1553 C1552 1.524 . S
C1553 C1554 1.397 . S
C1553 C1558 1.363 . S
C1554 H1531 0.950 . S
C1554 C1553 1.397 . S
C1554 C1555 1.334 . S
C1555 H1532 0.950 . S
C1555 C1554 1.334 . S
C1555 C1556 1.287 . S
C1556 C1555 1.287 . S
C1556 C1557 1.524 . S
C1556 H1575 0.913 . S
C1557 H1533 0.950 . S
C1557 C1556 1.524 . S
C1557 C1558 1.415 . S
C1558 H1534 0.950 . S
C1558 C1553 1.363 . S
C1558 C1557 1.415 . S
C1559 H1535 0.951 . S
C1559 C1560 1.366 . S
C1559 C1561 1.388 . S
C1560 C1559 1.366 . S
C1560 C1564 1.385 . S
C1561 H1536 0.951 . S
C1561 C1559 1.388 . S
C1561 C1562 1.366 . S
C1562 C1561 1.366 . S
C1562 C1563 1.414 . S
C1562 C1565 1.499 . S
C1563 H1537 0.950 . S
C1563 C1562 1.414 . S
C1563 C1564 1.374 . S
C1564 H1538 0.950 . S
C1564 C1560 1.385 . S
C1564 C1563 1.374 . S
C1565 C1562 1.499 . S
C1565 C1566 1.373 . S
C1565 C1567 1.389 . S
C1566 H1539 0.950 . S
C1566 C1552 1.377 . S
C1566 C1565 1.373 . S
C1567 C1551 1.377 . S
C1567 C1565 1.389 . S
C1567 C1568 1.524 . S
C1568 C1567 1.524 . S
C1568 C1569 1.397 . S
C1568 C1573 1.363 . S
C1569 H1540 0.950 . S
C1569 C1568 1.397 . S
C1569 C1570 1.334 . S
C1570 H1541 0.950 . S
C1570 C1569 1.334 . S
C1570 C1571 1.287 . S
C1571 C1570 1.287 . S
C1571 C1572 1.524 . S
C1571 H1574 0.999 . S
C1572 H1542 0.950 . S
C1572 C1571 1.524 . S
C1572 C1573 1.415 . S
C1573 H1543 0.950 . S
C1573 C1568 1.363 . S
C1573 C1572 1.415 . S
H1574 C1571 0.999 . S
H1575 C1556 0.913 . S
H1576 C1594 0.951 . S
H1577 C1596 0.951 . S
H1578 C1598 0.950 . S
H1579 C1599 0.950 . S
H1580 C1601 0.950 . S
H1581 C1604 0.950 . S
H1582 C1605 0.950 . S
H1583 C1607 0.950 . S
H1584 C1608 0.950 . S
H1585 C1609 0.951 . S
H1586 C1611 0.951 . S
H1587 C1613 0.950 . S
H1588 C1614 0.950 . S
H1589 C1616 0.950 . S
H1590 C1619 0.950 . S
H1591 C1620 0.950 . S
H1592 C1622 0.950 . S
H1593 C1623 0.950 . S
C1594 H1576 0.951 . S
C1594 C1595 1.366 . S
C1594 C1596 1.388 . S
C1595 C1594 1.366 . S
C1595 C1599 1.385 . S
C1596 H1577 0.951 . S
C1596 C1594 1.388 . S
C1596 C1597 1.366 . S
C1597 C1596 1.366 . S
C1597 C1598 1.414 . S
C1597 C1600 1.499 . S
C1598 H1578 0.950 . S
C1598 C1597 1.414 . S
C1598 C1599 1.374 . S
C1599 H1579 0.950 . S
C1599 C1595 1.385 . S
C1599 C1598 1.374 . S
C1600 C1597 1.499 . S
C1600 C1601 1.373 . S
C1600 C1602 1.389 . S
C1601 H1580 0.950 . S
C1601 C1600 1.373 . S
C1601 C1617 1.377 . S
C1602 C1600 1.389 . S
C1602 C1603 1.524 . S
C1602 C1616 1.377 . S
C1603 C1602 1.524 . S
C1603 C1604 1.397 . S
C1603 C1608 1.363 . S
C1604 H1581 0.950 . S
C1604 C1603 1.397 . S
C1604 C1605 1.334 . S
C1605 H1582 0.950 . S
C1605 C1604 1.334 . S
C1605 C1606 1.287 . S
C1606 C1605 1.287 . S
C1606 C1607 1.524 . S
C1606 H1625 0.913 . S
C1607 H1583 0.950 . S
C1607 C1606 1.524 . S
C1607 C1608 1.415 . S
C1608 H1584 0.950 . S
C1608 C1603 1.363 . S
C1608 C1607 1.415 . S
C1609 H1585 0.951 . S
C1609 C1610 1.366 . S
C1609 C1611 1.388 . S
C1610 C1609 1.366 . S
C1610 C1614 1.385 . S
C1611 H1586 0.951 . S
C1611 C1609 1.388 . S
C1611 C1612 1.366 . S
C1612 C1611 1.366 . S
C1612 C1613 1.414 . S
C1612 C1615 1.499 . S
C1613 H1587 0.950 . S
C1613 C1612 1.414 . S
C1613 C1614 1.374 . S
C1614 H1588 0.950 . S
C1614 C1610 1.385 . S
C1614 C1613 1.374 . S
C1615 C1612 1.499 . S
C1615 C1616 1.373 . S
C1615 C1617 1.389 . S
C1616 H1589 0.950 . S
C1616 C1602 1.377 . S
C1616 C1615 1.373 . S
C1617 C1601 1.377 . S
C1617 C1615 1.389 . S
C1617 C1618 1.524 . S
C1618 C1617 1.524 . S
C1618 C1619 1.397 . S
C1618 C1623 1.363 . S
C1619 H1590 0.950 . S
C1619 C1618 1.397 . S
C1619 C1620 1.334 . S
C1620 H1591 0.950 . S
C1620 C1619 1.334 . S
C1620 C1621 1.287 . S
C1621 C1620 1.287 . S
C1621 C1622 1.524 . S
C1621 H1624 0.999 . S
C1622 H1592 0.950 . S
C1622 C1621 1.524 . S
C1622 C1623 1.415 . S
C1623 H1593 0.950 . S
C1623 C1618 1.363 . S
C1623 C1622 1.415 . S
H1624 C1621 0.999 . S
H1625 C1606 0.913 . S
H1626 C1644 0.951 . S
H1627 C1646 0.951 . S
H1628 C1648 0.950 . S
H1629 C1649 0.950 . S
H1630 C1651 0.950 . S
H1631 C1654 0.950 . S
H1632 C1655 0.950 . S
H1633 C1657 0.950 . S
H1634 C1658 0.950 . S
H1635 C1659 0.951 . S
H1636 C1661 0.951 . S
H1637 C1663 0.950 . S
H1638 C1664 0.950 . S
H1639 C1666 0.950 . S
H1640 C1669 0.950 . S
H1641 C1670 0.950 . S
H1642 C1672 0.950 . S
H1643 C1673 0.950 . S
C1644 H1626 0.951 . S
C1644 C1645 1.366 . S
C1644 C1646 1.388 . S
C1645 C1644 1.366 . S
C1645 C1649 1.385 . S
C1646 H1627 0.951 . S
C1646 C1644 1.388 . S
C1646 C1647 1.366 . S
C1647 C1646 1.366 . S
C1647 C1648 1.414 . S
C1647 C1650 1.499 . S
C1648 H1628 0.950 . S
C1648 C1647 1.414 . S
C1648 C1649 1.374 . S
C1649 H1629 0.950 . S
C1649 C1645 1.385 . S
C1649 C1648 1.374 . S
C1650 C1647 1.499 . S
C1650 C1651 1.373 . S
C1650 C1652 1.389 . S
C1651 H1630 0.950 . S
C1651 C1650 1.373 . S
C1651 C1667 1.377 . S
C1652 C1650 1.389 . S
C1652 C1653 1.524 . S
C1652 C1666 1.377 . S
C1653 C1652 1.524 . S
C1653 C1654 1.397 . S
C1653 C1658 1.363 . S
C1654 H1631 0.950 . S
C1654 C1653 1.397 . S
C1654 C1655 1.334 . S
C1655 H1632 0.950 . S
C1655 C1654 1.334 . S
C1655 C1656 1.287 . S
C1656 C1655 1.287 . S
C1656 C1657 1.524 . S
C1656 H1675 0.913 . S
C1657 H1633 0.950 . S
C1657 C1656 1.524 . S
C1657 C1658 1.415 . S
C1658 H1634 0.950 . S
C1658 C1653 1.363 . S
C1658 C1657 1.415 . S
C1659 H1635 0.951 . S
C1659 C1660 1.366 . S
C1659 C1661 1.388 . S
C1660 C1659 1.366 . S
C1660 C1664 1.385 . S
C1661 H1636 0.951 . S
C1661 C1659 1.388 . S
C1661 C1662 1.366 . S
C1662 C1661 1.366 . S
C1662 C1663 1.414 . S
C1662 C1665 1.499 . S
C1663 H1637 0.950 . S
C1663 C1662 1.414 . S
C1663 C1664 1.374 . S
C1664 H1638 0.950 . S
C1664 C1660 1.385 . S
C1664 C1663 1.374 . S
C1665 C1662 1.499 . S
C1665 C1666 1.373 . S
C1665 C1667 1.389 . S
C1666 H1639 0.950 . S
C1666 C1652 1.377 . S
C1666 C1665 1.373 . S
C1667 C1651 1.377 . S
C1667 C1665 1.389 . S
C1667 C1668 1.524 . S
C1668 C1667 1.524 . S
C1668 C1669 1.397 1_545 S
C1668 C1673 1.363 . S
C1669 H1640 0.950 . S
C1669 C1668 1.397 1_565 S
C1669 C1670 1.334 . S
C1670 H1641 0.950 . S
C1670 C1669 1.334 . S
C1670 C1671 1.287 . S
C1671 C1670 1.287 . S
C1671 C1672 1.524 . S
C1671 H1674 0.999 . S
C1672 H1642 0.950 . S
C1672 C1671 1.524 . S
C1672 C1673 1.415 1_565 S
C1673 H1643 0.950 . S
C1673 C1668 1.363 . S
C1673 C1672 1.415 1_545 S
H1674 C1671 0.999 . S
H1675 C1656 0.913 . S
H1676 C1694 0.951 . S
H1677 C1696 0.951 . S
H1678 C1698 0.950 . S
H1679 C1699 0.950 . S
H1680 C1701 0.950 . S
H1681 C1704 0.950 . S
H1682 C1705 0.950 . S
H1683 C1707 0.950 . S
H1684 C1708 0.950 . S
H1685 C1709 0.951 . S
H1686 C1711 0.951 . S
H1687 C1713 0.950 . S
H1688 C1714 0.950 . S
H1689 C1716 0.950 . S
H1690 C1719 0.950 . S
H1691 C1720 0.950 . S
H1692 C1722 0.950 . S
H1693 C1723 0.950 . S
C1694 H1676 0.951 . S
C1694 C1695 1.366 . S
C1694 C1696 1.388 . S
C1695 C1694 1.366 . S
C1695 C1699 1.385 . S
C1696 H1677 0.951 . S
C1696 C1694 1.388 . S
C1696 C1697 1.366 . S
C1697 C1696 1.366 . S
C1697 C1698 1.414 . S
C1697 C1700 1.499 . S
C1698 H1678 0.950 . S
C1698 C1697 1.414 . S
C1698 C1699 1.374 . S
C1699 H1679 0.950 . S
C1699 C1695 1.385 . S
C1699 C1698 1.374 . S
C1700 C1697 1.499 . S
C1700 C1701 1.373 . S
C1700 C1702 1.389 . S
C1701 H1680 0.950 . S
C1701 C1700 1.373 . S
C1701 C1717 1.377 . S
C1702 C1700 1.389 . S
C1702 C1703 1.524 . S
C1702 C1716 1.377 . S
C1703 C1702 1.524 . S
C1703 C1704 1.397 . S
C1703 C1708 1.363 . S
C1704 H1681 0.950 . S
C1704 C1703 1.397 . S
C1704 C1705 1.334 . S
C1705 H1682 0.950 . S
C1705 C1704 1.334 . S
C1705 C1706 1.287 . S
C1706 C1705 1.287 . S
C1706 C1707 1.524 . S
C1706 H1725 0.913 . S
C1707 H1683 0.950 . S
C1707 C1706 1.524 . S
C1707 C1708 1.415 . S
C1708 H1684 0.950 . S
C1708 C1703 1.363 . S
C1708 C1707 1.415 . S
C1709 H1685 0.951 . S
C1709 C1710 1.366 . S
C1709 C1711 1.388 . S
C1710 C1709 1.366 . S
C1710 C1714 1.385 . S
C1711 H1686 0.951 . S
C1711 C1709 1.388 . S
C1711 C1712 1.366 . S
C1712 C1711 1.366 . S
C1712 C1713 1.414 . S
C1712 C1715 1.499 . S
C1713 H1687 0.950 . S
C1713 C1712 1.414 . S
C1713 C1714 1.374 . S
C1714 H1688 0.950 . S
C1714 C1710 1.385 . S
C1714 C1713 1.374 . S
C1715 C1712 1.499 . S
C1715 C1716 1.373 . S
C1715 C1717 1.389 . S
C1716 H1689 0.950 . S
C1716 C1702 1.377 . S
C1716 C1715 1.373 . S
C1717 C1701 1.377 . S
C1717 C1715 1.389 . S
C1717 C1718 1.524 . S
C1718 C1717 1.524 . S
C1718 C1719 1.397 . S
C1718 C1723 1.363 . S
C1719 H1690 0.950 . S
C1719 C1718 1.397 . S
C1719 C1720 1.334 . S
C1720 H1691 0.950 . S
C1720 C1719 1.334 . S
C1720 C1721 1.287 . S
C1721 C1720 1.287 . S
C1721 C1722 1.524 . S
C1721 H1724 0.999 . S
C1722 H1692 0.950 . S
C1722 C1721 1.524 . S
C1722 C1723 1.415 . S
C1723 H1693 0.950 . S
C1723 C1718 1.363 . S
C1723 C1722 1.415 . S
H1724 C1721 0.999 . S
H1725 C1706 0.913 . S
H1726 C1744 0.951 . S
H1727 C1746 0.951 . S
H1728 C1748 0.950 . S
H1729 C1749 0.950 . S
H1730 C1751 0.950 . S
H1731 C1754 0.950 . S
H1732 C1755 0.950 . S
H1733 C1757 0.950 . S
H1734 C1758 0.950 . S
H1735 C1759 0.951 . S
H1736 C1761 0.951 . S
H1737 C1763 0.950 . S
H1738 C1764 0.950 . S
H1739 C1766 0.950 . S
H1740 C1769 0.950 . S
H1741 C1770 0.950 . S
H1742 C1772 0.950 . S
H1743 C1773 0.950 . S
C1744 H1726 0.951 . S
C1744 C1745 1.366 . S
C1744 C1746 1.388 . S
C1745 C1744 1.366 . S
C1745 C1749 1.385 . S
C1746 H1727 0.951 . S
C1746 C1744 1.388 . S
C1746 C1747 1.366 . S
C1747 C1746 1.366 . S
C1747 C1748 1.414 . S
C1747 C1750 1.499 . S
C1748 H1728 0.950 . S
C1748 C1747 1.414 . S
C1748 C1749 1.374 . S
C1749 H1729 0.950 . S
C1749 C1745 1.385 . S
C1749 C1748 1.374 . S
C1750 C1747 1.499 . S
C1750 C1751 1.373 . S
C1750 C1752 1.389 . S
C1751 H1730 0.950 . S
C1751 C1750 1.373 . S
C1751 C1767 1.377 . S
C1752 C1750 1.389 . S
C1752 C1753 1.524 . S
C1752 C1766 1.377 . S
C1753 C1752 1.524 . S
C1753 C1754 1.397 . S
C1753 C1758 1.363 . S
C1754 H1731 0.950 . S
C1754 C1753 1.397 . S
C1754 C1755 1.334 . S
C1755 H1732 0.950 . S
C1755 C1754 1.334 . S
C1755 C1756 1.287 . S
C1756 C1755 1.287 . S
C1756 C1757 1.524 . S
C1756 H1775 0.913 . S
C1757 H1733 0.950 . S
C1757 C1756 1.524 . S
C1757 C1758 1.415 . S
C1758 H1734 0.950 . S
C1758 C1753 1.363 . S
C1758 C1757 1.415 . S
C1759 H1735 0.951 . S
C1759 C1760 1.366 . S
C1759 C1761 1.388 . S
C1760 C1759 1.366 . S
C1760 C1764 1.385 . S
C1761 H1736 0.951 . S
C1761 C1759 1.388 . S
C1761 C1762 1.366 . S
C1762 C1761 1.366 . S
C1762 C1763 1.414 . S
C1762 C1765 1.499 . S
C1763 H1737 0.950 . S
C1763 C1762 1.414 . S
C1763 C1764 1.374 . S
C1764 H1738 0.950 . S
C1764 C1760 1.385 . S
C1764 C1763 1.374 . S
C1765 C1762 1.499 . S
C1765 C1766 1.373 . S
C1765 C1767 1.389 . S
C1766 H1739 0.950 . S
C1766 C1752 1.377 . S
C1766 C1765 1.373 . S
C1767 C1751 1.377 . S
C1767 C1765 1.389 . S
C1767 C1768 1.524 . S
C1768 C1767 1.524 . S
C1768 C1769 1.397 . S
C1768 C1773 1.363 . S
C1769 H1740 0.950 . S
C1769 C1768 1.397 . S
C1769 C1770 1.334 . S
C1770 H1741 0.950 . S
C1770 C1769 1.334 . S
C1770 C1771 1.287 . S
C1771 C1770 1.287 . S
C1771 C1772 1.524 . S
C1771 H1774 0.999 . S
C1772 H1742 0.950 . S
C1772 C1771 1.524 . S
C1772 C1773 1.415 . S
C1773 H1743 0.950 . S
C1773 C1768 1.363 . S
C1773 C1772 1.415 . S
H1774 C1771 0.999 . S
H1775 C1756 0.913 . S
H1776 C1794 0.951 . S
H1777 C1796 0.951 . S
H1778 C1798 0.950 . S
H1779 C1799 0.950 . S
H1780 C1801 0.950 . S
H1781 C1804 0.950 . S
H1782 C1805 0.950 . S
H1783 C1807 0.950 . S
H1784 C1808 0.950 . S
H1785 C1809 0.951 . S
H1786 C1811 0.951 . S
H1787 C1813 0.950 . S
H1788 C1814 0.950 . S
H1789 C1816 0.950 . S
H1790 C1819 0.950 . S
H1791 C1820 0.950 . S
H1792 C1822 0.950 . S
H1793 C1823 0.950 . S
C1794 H1776 0.951 . S
C1794 C1795 1.366 . S
C1794 C1796 1.388 . S
C1795 C1794 1.366 . S
C1795 C1799 1.385 . S
C1796 H1777 0.951 . S
C1796 C1794 1.388 . S
C1796 C1797 1.366 . S
C1797 C1796 1.366 . S
C1797 C1798 1.414 . S
C1797 C1800 1.499 . S
C1798 H1778 0.950 . S
C1798 C1797 1.414 . S
C1798 C1799 1.374 . S
C1799 H1779 0.950 . S
C1799 C1795 1.385 . S
C1799 C1798 1.374 . S
C1800 C1797 1.499 . S
C1800 C1801 1.373 . S
C1800 C1802 1.389 . S
C1801 H1780 0.950 . S
C1801 C1800 1.373 . S
C1801 C1817 1.377 . S
C1802 C1800 1.389 . S
C1802 C1803 1.524 . S
C1802 C1816 1.377 . S
C1803 C1802 1.524 . S
C1803 C1804 1.397 . S
C1803 C1808 1.363 . S
C1804 H1781 0.950 . S
C1804 C1803 1.397 . S
C1804 C1805 1.334 . S
C1805 H1782 0.950 . S
C1805 C1804 1.334 . S
C1805 C1806 1.287 . S
C1806 C1805 1.287 . S
C1806 C1807 1.524 . S
C1806 H1825 0.913 . S
C1807 H1783 0.950 . S
C1807 C1806 1.524 . S
C1807 C1808 1.415 . S
C1808 H1784 0.950 . S
C1808 C1803 1.363 . S
C1808 C1807 1.415 . S
C1809 H1785 0.951 . S
C1809 C1810 1.366 . S
C1809 C1811 1.388 . S
C1810 C1809 1.366 . S
C1810 C1814 1.385 . S
C1811 H1786 0.951 . S
C1811 C1809 1.388 . S
C1811 C1812 1.366 . S
C1812 C1811 1.366 . S
C1812 C1813 1.414 . S
C1812 C1815 1.499 . S
C1813 H1787 0.950 . S
C1813 C1812 1.414 . S
C1813 C1814 1.374 . S
C1814 H1788 0.950 . S
C1814 C1810 1.385 . S
C1814 C1813 1.374 . S
C1815 C1812 1.499 . S
C1815 C1816 1.373 . S
C1815 C1817 1.389 . S
C1816 H1789 0.950 . S
C1816 C1802 1.377 . S
C1816 C1815 1.373 . S
C1817 C1801 1.377 . S
C1817 C1815 1.389 . S
C1817 C1818 1.524 . S
C1818 C1817 1.524 . S
C1818 C1819 1.397 . S
C1818 C1823 1.363 . S
C1819 H1790 0.950 . S
C1819 C1818 1.397 . S
C1819 C1820 1.334 . S
C1820 H1791 0.950 . S
C1820 C1819 1.334 . S
C1820 C1821 1.287 . S
C1821 C1820 1.287 . S
C1821 C1822 1.524 . S
C1821 H1824 0.999 . S
C1822 H1792 0.950 . S
C1822 C1821 1.524 . S
C1822 C1823 1.415 . S
C1823 H1793 0.950 . S
C1823 C1818 1.363 . S
C1823 C1822 1.415 . S
H1824 C1821 0.999 . S
H1825 C1806 0.913 . S
H1826 C1844 0.951 . S
H1827 C1846 0.973 . S
H1828 C1848 0.956 . S
H1829 C1849 0.950 . S
H1830 C1851 0.950 . S
H1831 C1854 0.950 . S
H1832 C1855 0.951 . S
H1833 C1857 0.950 . S
H1834 C1858 0.953 1_545 S
H1835 C1859 0.951 1_565 S
H1836 C1861 0.951 1_565 S
H1837 C1863 0.950 . S
H1838 C1864 0.950 . S
H1839 C1866 0.952 1_565 S
H1840 C1869 0.950 . S
H1841 C1870 0.950 . S
H1842 C1872 0.950 . S
H1843 C1873 0.950 . S
C1844 H1826 0.951 . S
C1844 C1845 1.366 1_455 S
C1844 C1846 1.388 1_455 S
C1845 C1844 1.366 1_655 S
C1845 C1849 1.385 . S
C1846 H1827 0.973 . S
C1846 C1844 1.388 1_655 S
C1846 C1847 1.366 . S
C1847 C1846 1.366 . S
C1847 C1848 1.414 . S
C1847 C1850 1.499 . S
C1848 H1828 0.956 . S
C1848 C1847 1.414 . S
C1848 C1849 1.374 . S
C1849 H1829 0.950 . S
C1849 C1845 1.385 . S
C1849 C1848 1.374 . S
C1850 C1847 1.499 . S
C1850 C1851 1.373 . S
C1850 C1852 1.365 1_545 S
C1851 H1830 0.950 . S
C1851 C1850 1.373 . S
C1851 C1867 1.377 . S
C1852 C1850 1.365 1_565 S
C1852 C1853 1.552 . S
C1852 C1866 1.378 1_565 S
C1853 C1852 1.552 . S
C1853 C1854 1.397 . S
C1853 C1858 1.363 . S
C1854 H1831 0.950 . S
C1854 C1853 1.397 . S
C1854 C1855 1.333 1_655 S
C1855 H1832 0.951 . S
C1855 C1854 1.333 1_455 S
C1855 C1856 1.288 . S
C1856 C1855 1.288 . S
C1856 C1857 1.524 . S
C1856 H1875 0.913 . S
C1857 H1833 0.950 . S
C1857 C1856 1.524 . S
C1857 C1858 1.415 1_455 S
C1858 H1834 0.953 1_565 S
C1858 C1853 1.363 . S
C1858 C1857 1.415 1_655 S
C1859 H1835 0.951 1_545 S
C1859 C1860 1.366 . S
C1859 C1861 1.388 . S
C1860 C1859 1.366 . S
C1860 C1864 1.385 . S
C1861 H1836 0.951 1_545 S
C1861 C1859 1.388 . S
C1861 C1862 1.366 . S
C1862 C1861 1.366 . S
C1862 C1863 1.414 . S
C1862 C1865 1.499 . S
C1863 H1837 0.950 . S
C1863 C1862 1.414 . S
C1863 C1864 1.374 . S
C1864 H1838 0.950 . S
C1864 C1860 1.385 . S
C1864 C1863 1.374 . S
C1865 C1862 1.499 . S
C1865 C1866 1.372 . S
C1865 C1867 1.389 . S
C1866 H1839 0.952 1_545 S
C1866 C1852 1.378 1_545 S
C1866 C1865 1.372 . S
C1867 C1851 1.377 . S
C1867 C1865 1.389 . S
C1867 C1868 1.524 . S
C1868 C1867 1.524 . S
C1868 C1869 1.397 . S
C1868 C1873 1.363 . S
C1869 H1840 0.950 . S
C1869 C1868 1.397 . S
C1869 C1870 1.334 . S
C1870 H1841 0.950 . S
C1870 C1869 1.334 . S
C1870 C1871 1.287 . S
C1871 C1870 1.287 . S
C1871 C1872 1.524 . S
C1871 H1874 0.999 . S
C1872 H1842 0.950 . S
C1872 C1871 1.524 . S
C1872 C1873 1.415 . S
C1873 H1843 0.950 . S
C1873 C1868 1.363 . S
C1873 C1872 1.415 . S
H1874 C1871 0.999 . S
H1875 C1856 0.913 . S
H1876 C1894 0.951 . S
H1877 C1896 0.951 . S
H1878 C1898 0.950 . S
H1879 C1899 0.950 . S
H1880 C1901 0.950 . S
H1881 C1904 0.950 . S
H1882 C1905 0.950 . S
H1883 C1907 0.950 . S
H1884 C1908 0.950 . S
H1885 C1909 0.951 . S
H1886 C1911 0.951 . S
H1887 C1913 0.950 . S
H1888 C1914 0.950 . S
H1889 C1916 0.950 . S
H1890 C1919 0.950 . S
H1891 C1920 0.950 . S
H1892 C1922 0.950 . S
H1893 C1923 0.950 . S
C1894 H1876 0.951 . S
C1894 C1895 1.366 . S
C1894 C1896 1.388 . S
C1895 C1894 1.366 . S
C1895 C1899 1.385 . S
C1896 H1877 0.951 . S
C1896 C1894 1.388 . S
C1896 C1897 1.366 . S
C1897 C1896 1.366 . S
C1897 C1898 1.414 . S
C1897 C1900 1.499 . S
C1898 H1878 0.950 . S
C1898 C1897 1.414 . S
C1898 C1899 1.374 . S
C1899 H1879 0.950 . S
C1899 C1895 1.385 . S
C1899 C1898 1.374 . S
C1900 C1897 1.499 . S
C1900 C1901 1.373 . S
C1900 C1902 1.389 . S
C1901 H1880 0.950 . S
C1901 C1900 1.373 . S
C1901 C1917 1.377 . S
C1902 C1900 1.389 . S
C1902 C1903 1.524 . S
C1902 C1916 1.377 . S
C1903 C1902 1.524 . S
C1903 C1904 1.397 . S
C1903 C1908 1.363 . S
C1904 H1881 0.950 . S
C1904 C1903 1.397 . S
C1904 C1905 1.334 . S
C1905 H1882 0.950 . S
C1905 C1904 1.334 . S
C1905 C1906 1.287 . S
C1906 C1905 1.287 . S
C1906 C1907 1.524 . S
C1906 H1925 0.913 . S
C1907 H1883 0.950 . S
C1907 C1906 1.524 . S
C1907 C1908 1.415 . S
C1908 H1884 0.950 . S
C1908 C1903 1.363 . S
C1908 C1907 1.415 . S
C1909 H1885 0.951 . S
C1909 C1910 1.366 . S
C1909 C1911 1.388 . S
C1910 C1909 1.366 . S
C1910 C1914 1.385 . S
C1911 H1886 0.951 . S
C1911 C1909 1.388 . S
C1911 C1912 1.366 . S
C1912 C1911 1.366 . S
C1912 C1913 1.414 . S
C1912 C1915 1.499 . S
C1913 H1887 0.950 . S
C1913 C1912 1.414 . S
C1913 C1914 1.374 . S
C1914 H1888 0.950 . S
C1914 C1910 1.385 . S
C1914 C1913 1.374 . S
C1915 C1912 1.499 . S
C1915 C1916 1.373 . S
C1915 C1917 1.389 . S
C1916 H1889 0.950 . S
C1916 C1902 1.377 . S
C1916 C1915 1.373 . S
C1917 C1901 1.377 . S
C1917 C1915 1.389 . S
C1917 C1918 1.524 . S
C1918 C1917 1.524 . S
C1918 C1919 1.397 . S
C1918 C1923 1.363 . S
C1919 H1890 0.950 . S
C1919 C1918 1.397 . S
C1919 C1920 1.334 . S
C1920 H1891 0.950 . S
C1920 C1919 1.334 . S
C1920 C1921 1.287 . S
C1921 C1920 1.287 . S
C1921 C1922 1.524 . S
C1921 H1924 0.999 . S
C1922 H1892 0.950 . S
C1922 C1921 1.524 . S
C1922 C1923 1.415 . S
C1923 H1893 0.950 . S
C1923 C1918 1.363 . S
C1923 C1922 1.415 . S
H1924 C1921 0.999 . S
H1925 C1906 0.913 . S
H1926 C1944 0.951 . S
H1927 C1946 0.951 . S
H1928 C1948 0.950 . S
H1929 C1949 0.950 . S
H1930 C1951 0.950 . S
H1931 C1954 0.950 . S
H1932 C1955 0.950 . S
H1933 C1957 0.950 . S
H1934 C1958 0.950 1_455 S
H1935 C1959 0.951 . S
H1936 C1961 0.951 . S
H1937 C1963 0.950 . S
H1938 C1964 0.950 . S
H1939 C1966 0.950 . S
H1940 C1969 0.950 . S
H1941 C1970 0.950 . S
H1942 C1972 0.950 . S
H1943 C1973 0.950 . S
C1944 H1926 0.951 . S
C1944 C1945 1.366 . S
C1944 C1946 1.388 . S
C1945 C1944 1.366 . S
C1945 C1949 1.385 . S
C1946 H1927 0.951 . S
C1946 C1944 1.388 . S
C1946 C1947 1.366 1_655 S
C1947 C1946 1.366 1_455 S
C1947 C1948 1.414 . S
C1947 C1950 1.499 . S
C1948 H1928 0.950 . S
C1948 C1947 1.414 . S
C1948 C1949 1.374 1_455 S
C1949 H1929 0.950 . S
C1949 C1945 1.385 . S
C1949 C1948 1.374 1_655 S
C1950 C1947 1.499 . S
C1950 C1951 1.373 . S
C1950 C1952 1.389 . S
C1951 H1930 0.950 . S
C1951 C1950 1.373 . S
C1951 C1967 1.377 . S
C1952 C1950 1.389 . S
C1952 C1953 1.526 1_455 S
C1952 C1966 1.377 . S
C1953 C1952 1.526 1_655 S
C1953 C1954 1.396 . S
C1953 C1958 1.362 . S
C1954 H1931 0.950 . S
C1954 C1953 1.396 . S
C1954 C1955 1.334 . S
C1955 H1932 0.950 . S
C1955 C1954 1.334 . S
C1955 C1956 1.287 . S
C1956 C1955 1.287 . S
C1956 C1957 1.524 . S
C1956 H1975 0.913 . S
C1957 H1933 0.950 . S
C1957 C1956 1.524 . S
C1957 C1958 1.415 . S
C1958 H1934 0.950 1_655 S
C1958 C1953 1.362 . S
C1958 C1957 1.415 . S
C1959 H1935 0.951 . S
C1959 C1960 1.366 . S
C1959 C1961 1.388 . S
C1960 C1959 1.366 . S
C1960 C1964 1.385 . S
C1961 H1936 0.951 . S
C1961 C1959 1.388 . S
C1961 C1962 1.366 . S
C1962 C1961 1.366 . S
C1962 C1963 1.414 . S
C1962 C1965 1.499 . S
C1963 H1937 0.950 . S
C1963 C1962 1.414 . S
C1963 C1964 1.374 . S
C1964 H1938 0.950 . S
C1964 C1960 1.385 . S
C1964 C1963 1.374 . S
C1965 C1962 1.499 . S
C1965 C1966 1.373 . S
C1965 C1967 1.389 . S
C1966 H1939 0.950 . S
C1966 C1952 1.377 . S
C1966 C1965 1.373 . S
C1967 C1951 1.377 . S
C1967 C1965 1.389 . S
C1967 C1968 1.524 . S
C1968 C1967 1.524 . S
C1968 C1969 1.397 . S
C1968 C1973 1.363 . S
C1969 H1940 0.950 . S
C1969 C1968 1.397 . S
C1969 C1970 1.334 . S
C1970 H1941 0.950 . S
C1970 C1969 1.334 . S
C1970 C1971 1.287 . S
C1971 C1970 1.287 . S
C1971 C1972 1.524 . S
C1971 H1974 0.999 . S
C1972 H1942 0.950 . S
C1972 C1971 1.524 . S
C1972 C1973 1.415 . S
C1973 H1943 0.950 . S
C1973 C1968 1.363 . S
C1973 C1972 1.415 . S
H1974 C1971 0.999 . S
H1975 C1956 0.913 . S
H1976 C1994 0.951 . S
H1977 C1996 0.951 . S
H1978 C1998 0.950 . S
H1979 C1999 0.950 . S
H1980 C2001 0.950 . S
H1981 C2004 0.950 . S
H1982 C2005 0.950 . S
H1983 C2007 0.950 . S
H1984 C2008 0.950 . S
H1985 C2009 0.951 . S
H1986 C2011 0.951 . S
H1987 C2013 0.950 . S
H1988 C2014 0.950 . S
H1989 C2016 0.950 . S
H1990 C2019 0.950 . S
H1991 C2020 0.950 . S
H1992 C2022 0.950 . S
H1993 C2023 0.950 . S
C1994 H1976 0.951 . S
C1994 C1995 1.366 . S
C1994 C1996 1.388 . S
C1995 C1994 1.366 . S
C1995 C1999 1.385 . S
C1996 H1977 0.951 . S
C1996 C1994 1.388 . S
C1996 C1997 1.366 . S
C1997 C1996 1.366 . S
C1997 C1998 1.414 . S
C1997 C2000 1.499 . S
C1998 H1978 0.950 . S
C1998 C1997 1.414 . S
C1998 C1999 1.374 . S
C1999 H1979 0.950 . S
C1999 C1995 1.385 . S
C1999 C1998 1.374 . S
C2000 C1997 1.499 . S
C2000 C2001 1.373 . S
C2000 C2002 1.389 . S
C2001 H1980 0.950 . S
C2001 C2000 1.373 . S
C2001 C2017 1.377 . S
C2002 C2000 1.389 . S
C2002 C2003 1.524 . S
C2002 C2016 1.377 . S
C2003 C2002 1.524 . S
C2003 C2004 1.397 . S
C2003 C2008 1.363 . S
C2004 H1981 0.950 . S
C2004 C2003 1.397 . S
C2004 C2005 1.334 . S
C2005 H1982 0.950 . S
C2005 C2004 1.334 . S
C2005 C2006 1.287 . S
C2006 C2005 1.287 . S
C2006 C2007 1.524 . S
C2006 H2025 0.913 . S
C2007 H1983 0.950 . S
C2007 C2006 1.524 . S
C2007 C2008 1.415 . S
C2008 H1984 0.950 . S
C2008 C2003 1.363 . S
C2008 C2007 1.415 . S
C2009 H1985 0.951 . S
C2009 C2010 1.366 . S
C2009 C2011 1.388 . S
C2010 C2009 1.366 . S
C2010 C2014 1.385 . S
C2011 H1986 0.951 . S
C2011 C2009 1.388 . S
C2011 C2012 1.366 . S
C2012 C2011 1.366 . S
C2012 C2013 1.414 . S
C2012 C2015 1.499 . S
C2013 H1987 0.950 . S
C2013 C2012 1.414 . S
C2013 C2014 1.374 . S
C2014 H1988 0.950 . S
C2014 C2010 1.385 . S
C2014 C2013 1.374 . S
C2015 C2012 1.499 . S
C2015 C2016 1.373 . S
C2015 C2017 1.389 . S
C2016 H1989 0.950 . S
C2016 C2002 1.377 . S
C2016 C2015 1.373 . S
C2017 C2001 1.377 . S
C2017 C2015 1.389 . S
C2017 C2018 1.524 . S
C2018 C2017 1.524 . S
C2018 C2019 1.397 . S
C2018 C2023 1.363 . S
C2019 H1990 0.950 . S
C2019 C2018 1.397 . S
C2019 C2020 1.334 . S
C2020 H1991 0.950 . S
C2020 C2019 1.334 . S
C2020 C2021 1.287 . S
C2021 C2020 1.287 . S
C2021 C2022 1.524 . S
C2021 H2024 0.999 . S
C2022 H1992 0.950 . S
C2022 C2021 1.524 . S
C2022 C2023 1.415 . S
C2023 H1993 0.950 . S
C2023 C2018 1.363 . S
C2023 C2022 1.415 . S
H2024 C2021 0.999 . S
H2025 C2006 0.913 . S
H2026 C2044 0.951 . S
H2027 C2046 0.951 . S
H2028 C2048 0.950 . S
H2029 C2049 0.950 . S
H2030 C2051 0.950 . S
H2031 C2054 0.950 . S
H2032 C2055 0.950 1_455 S
H2033 C2057 0.950 . S
H2034 C2058 0.950 . S
H2035 C2059 0.951 . S
H2036 C2061 0.949 1_455 S
H2037 C2063 0.950 . S
H2038 C2064 0.950 . S
H2039 C2066 0.950 . S
H2040 C2069 0.950 . S
H2041 C2070 0.950 . S
H2042 C2072 0.950 . S
H2043 C2073 0.959 . S
C2044 H2026 0.951 . S
C2044 C2045 1.366 . S
C2044 C2046 1.388 . S
C2045 C2044 1.366 . S
C2045 C2049 1.385 . S
C2046 H2027 0.951 . S
C2046 C2044 1.388 . S
C2046 C2047 1.366 . S
C2047 C2046 1.366 . S
C2047 C2048 1.414 . S
C2047 C2050 1.499 . S
C2048 H2028 0.950 . S
C2048 C2047 1.414 . S
C2048 C2049 1.374 . S
C2049 H2029 0.950 . S
C2049 C2045 1.385 . S
C2049 C2048 1.374 . S
C2050 C2047 1.499 . S
C2050 C2051 1.373 1_554 S
C2050 C2052 1.389 . S
C2051 H2030 0.950 . S
C2051 C2050 1.373 1_556 S
C2051 C2067 1.377 . S
C2052 C2050 1.389 . S
C2052 C2053 1.524 . S
C2052 C2066 1.377 . S
C2053 C2052 1.524 . S
C2053 C2054 1.397 . S
C2053 C2058 1.363 . S
C2054 H2031 0.950 . S
C2054 C2053 1.397 . S
C2054 C2055 1.334 . S
C2055 H2032 0.950 1_655 S
C2055 C2054 1.334 . S
C2055 C2056 1.287 . S
C2056 C2055 1.287 . S
C2056 C2057 1.524 . S
C2056 H2075 0.913 . S
C2057 H2033 0.950 . S
C2057 C2056 1.524 . S
C2057 C2058 1.415 . S
C2058 H2034 0.950 . S
C2058 C2053 1.363 . S
C2058 C2057 1.415 . S
C2059 H2035 0.951 . S
C2059 C2060 1.366 1_455 S
C2059 C2061 1.387 1_455 S
C2060 C2059 1.366 1_655 S
C2060 C2064 1.385 . S
C2061 H2036 0.949 1_655 S
C2061 C2059 1.387 1_655 S
C2061 C2062 1.369 . S
C2062 C2061 1.369 . S
C2062 C2063 1.414 . S
C2062 C2065 1.499 . S
C2063 H2037 0.950 . S
C2063 C2062 1.414 . S
C2063 C2064 1.374 . S
C2064 H2038 0.950 . S
C2064 C2060 1.385 . S
C2064 C2063 1.374 . S
C2065 C2062 1.499 . S
C2065 C2066 1.373 1_556 S
C2065 C2067 1.389 . S
C2066 H2039 0.950 . S
C2066 C2052 1.377 . S
C2066 C2065 1.373 1_554 S
C2067 C2051 1.377 . S
C2067 C2065 1.389 . S
C2067 C2068 1.524 . S
C2068 C2067 1.524 . S
C2068 C2069 1.397 . S
C2068 C2073 1.363 . S
C2069 H2040 0.950 . S
C2069 C2068 1.397 . S
C2069 C2070 1.334 . S
C2070 H2041 0.950 . S
C2070 C2069 1.334 . S
C2070 C2071 1.287 . S
C2071 C2070 1.287 . S
C2071 C2072 1.524 . S
C2071 H2074 0.999 . S
C2072 H2042 0.950 . S
C2072 C2071 1.524 . S
C2072 C2073 1.415 . S
C2073 H2043 0.959 . S
C2073 C2068 1.363 . S
C2073 C2072 1.415 . S
H2074 C2071 0.999 . S
H2075 C2056 0.913 . S
H2076 C2094 0.951 . S
H2077 C2096 0.951 . S
H2078 C2098 0.950 . S
H2079 C2099 0.950 . S
H2080 C2101 0.950 . S
H2081 C2104 0.950 . S
H2082 C2105 0.950 . S
H2083 C2107 0.950 . S
H2084 C2108 0.950 . S
H2085 C2109 0.951 . S
H2086 C2111 0.951 . S
H2087 C2113 0.950 . S
H2088 C2114 0.950 . S
H2089 C2116 0.950 . S
H2090 C2119 0.950 . S
H2091 C2120 0.950 . S
H2092 C2122 0.950 . S
H2093 C2123 0.950 . S
C2094 H2076 0.951 . S
C2094 C2095 1.366 . S
C2094 C2096 1.388 . S
C2095 C2094 1.366 . S
C2095 C2099 1.385 . S
C2096 H2077 0.951 . S
C2096 C2094 1.388 . S
C2096 C2097 1.366 . S
C2097 C2096 1.366 . S
C2097 C2098 1.414 . S
C2097 C2100 1.499 . S
C2098 H2078 0.950 . S
C2098 C2097 1.414 . S
C2098 C2099 1.374 . S
C2099 H2079 0.950 . S
C2099 C2095 1.385 . S
C2099 C2098 1.374 . S
C2100 C2097 1.499 . S
C2100 C2101 1.373 . S
C2100 C2102 1.389 . S
C2101 H2080 0.950 . S
C2101 C2100 1.373 . S
C2101 C2117 1.377 . S
C2102 C2100 1.389 . S
C2102 C2103 1.524 . S
C2102 C2116 1.377 . S
C2103 C2102 1.524 . S
C2103 C2104 1.397 . S
C2103 C2108 1.363 . S
C2104 H2081 0.950 . S
C2104 C2103 1.397 . S
C2104 C2105 1.334 . S
C2105 H2082 0.950 . S
C2105 C2104 1.334 . S
C2105 C2106 1.287 . S
C2106 C2105 1.287 . S
C2106 C2107 1.524 . S
C2106 H2125 0.913 . S
C2107 H2083 0.950 . S
C2107 C2106 1.524 . S
C2107 C2108 1.415 . S
C2108 H2084 0.950 . S
C2108 C2103 1.363 . S
C2108 C2107 1.415 . S
C2109 H2085 0.951 . S
C2109 C2110 1.366 . S
C2109 C2111 1.388 . S
C2110 C2109 1.366 . S
C2110 C2114 1.385 . S
C2111 H2086 0.951 . S
C2111 C2109 1.388 . S
C2111 C2112 1.366 . S
C2112 C2111 1.366 . S
C2112 C2113 1.414 . S
C2112 C2115 1.499 . S
C2113 H2087 0.950 . S
C2113 C2112 1.414 . S
C2113 C2114 1.374 . S
C2114 H2088 0.950 . S
C2114 C2110 1.385 . S
C2114 C2113 1.374 . S
C2115 C2112 1.499 . S
C2115 C2116 1.373 . S
C2115 C2117 1.389 . S
C2116 H2089 0.950 . S
C2116 C2102 1.377 . S
C2116 C2115 1.373 . S
C2117 C2101 1.377 . S
C2117 C2115 1.389 . S
C2117 C2118 1.524 . S
C2118 C2117 1.524 . S
C2118 C2119 1.397 . S
C2118 C2123 1.363 . S
C2119 H2090 0.950 . S
C2119 C2118 1.397 . S
C2119 C2120 1.334 . S
C2120 H2091 0.950 . S
C2120 C2119 1.334 . S
C2120 C2121 1.287 . S
C2121 C2120 1.287 . S
C2121 C2122 1.524 . S
C2121 H2124 0.999 . S
C2122 H2092 0.950 . S
C2122 C2121 1.524 . S
C2122 C2123 1.415 . S
C2123 H2093 0.950 . S
C2123 C2118 1.363 . S
C2123 C2122 1.415 . S
H2124 C2121 0.999 . S
H2125 C2106 0.913 . S
H2126 C2144 0.951 . S
H2127 C2146 0.951 . S
H2128 C2148 0.950 1_655 S
H2129 C2149 0.950 1_655 S
H2130 C2151 0.950 1_655 S
H2131 C2154 0.950 . S
H2132 C2155 0.950 . S
H2133 C2157 0.950 . S
H2134 C2158 0.950 . S
H2135 C2159 0.951 . S
H2136 C2161 0.951 . S
H2137 C2163 0.950 . S
H2138 C2164 0.950 . S
H2139 C2166 0.950 . S
H2140 C2169 0.966 . S
H2141 C2170 0.950 . S
H2142 C2172 0.950 . S
H2143 C2173 0.950 . S
C2144 H2126 0.951 . S
C2144 C2145 1.366 . S
C2144 C2146 1.388 . S
C2145 C2144 1.366 . S
C2145 C2149 1.385 . S
C2146 H2127 0.951 . S
C2146 C2144 1.388 . S
C2146 C2147 1.366 . S
C2147 C2146 1.366 . S
C2147 C2148 1.414 . S
C2147 C2150 1.499 1_554 S
C2148 H2128 0.950 1_455 S
C2148 C2147 1.414 . S
C2148 C2149 1.374 . S
C2149 H2129 0.950 1_455 S
C2149 C2145 1.385 . S
C2149 C2148 1.374 . S
C2150 C2147 1.499 1_556 S
C2150 C2151 1.373 . S
C2150 C2152 1.389 1_556 S
C2151 H2130 0.950 1_455 S
C2151 C2150 1.373 . S
C2151 C2167 1.377 . S
C2152 C2150 1.389 1_554 S
C2152 C2153 1.524 . S
C2152 C2166 1.377 1_554 S
C2153 C2152 1.524 . S
C2153 C2154 1.397 . S
C2153 C2158 1.363 . S
C2154 H2131 0.950 . S
C2154 C2153 1.397 . S
C2154 C2155 1.334 . S
C2155 H2132 0.950 . S
C2155 C2154 1.334 . S
C2155 C2156 1.287 . S
C2156 C2155 1.287 . S
C2156 C2157 1.524 . S
C2156 H2175 0.913 . S
C2157 H2133 0.950 . S
C2157 C2156 1.524 . S
C2157 C2158 1.415 . S
C2158 H2134 0.950 . S
C2158 C2153 1.363 . S
C2158 C2157 1.415 . S
C2159 H2135 0.951 . S
C2159 C2160 1.366 1_655 S
C2159 C2161 1.388 . S
C2160 C2159 1.366 1_455 S
C2160 C2164 1.385 . S
C2161 H2136 0.951 . S
C2161 C2159 1.388 . S
C2161 C2162 1.366 1_655 S
C2162 C2161 1.366 1_455 S
C2162 C2163 1.414 . S
C2162 C2165 1.499 . S
C2163 H2137 0.950 . S
C2163 C2162 1.414 . S
C2163 C2164 1.374 . S
C2164 H2138 0.950 . S
C2164 C2160 1.385 . S
C2164 C2163 1.374 . S
C2165 C2162 1.499 . S
C2165 C2166 1.373 . S
C2165 C2167 1.389 . S
C2166 H2139 0.950 . S
C2166 C2152 1.377 1_556 S
C2166 C2165 1.373 . S
C2167 C2151 1.377 . S
C2167 C2165 1.389 . S
C2167 C2168 1.524 1_455 S
C2168 C2167 1.524 1_655 S
C2168 C2169 1.389 1_655 S
C2168 C2173 1.363 . S
C2169 H2140 0.966 . S
C2169 C2168 1.389 1_455 S
C2169 C2170 1.326 1_455 S
C2170 H2141 0.950 . S
C2170 C2169 1.326 1_655 S
C2170 C2171 1.287 . S
C2171 C2170 1.287 . S
C2171 C2172 1.524 . S
C2171 H2174 0.999 . S
C2172 H2142 0.950 . S
C2172 C2171 1.524 . S
C2172 C2173 1.415 . S
C2173 H2143 0.950 . S
C2173 C2168 1.363 . S
C2173 C2172 1.415 . S
H2174 C2171 0.999 . S
H2175 C2156 0.913 . S
H2176 C2194 0.951 . S
H2177 C2196 0.951 . S
H2178 C2198 0.950 . S
H2179 C2199 0.950 . S
H2180 C2201 0.950 . S
H2181 C2204 0.950 . S
H2182 C2205 0.950 . S
H2183 C2207 0.950 . S
H2184 C2208 0.950 . S
H2185 C2209 0.951 . S
H2186 C2211 0.951 . S
H2187 C2213 0.950 . S
H2188 C2214 0.950 . S
H2189 C2216 0.950 . S
H2190 C2219 0.950 . S
H2191 C2220 0.950 . S
H2192 C2222 0.950 . S
H2193 C2223 0.950 . S
C2194 H2176 0.951 . S
C2194 C2195 1.366 . S
C2194 C2196 1.388 . S
C2195 C2194 1.366 . S
C2195 C2199 1.385 . S
C2196 H2177 0.951 . S
C2196 C2194 1.388 . S
C2196 C2197 1.366 . S
C2197 C2196 1.366 . S
C2197 C2198 1.414 . S
C2197 C2200 1.499 . S
C2198 H2178 0.950 . S
C2198 C2197 1.414 . S
C2198 C2199 1.374 . S
C2199 H2179 0.950 . S
C2199 C2195 1.385 . S
C2199 C2198 1.374 . S
C2200 C2197 1.499 . S
C2200 C2201 1.373 . S
C2200 C2202 1.389 . S
C2201 H2180 0.950 . S
C2201 C2200 1.373 . S
C2201 C2217 1.377 . S
C2202 C2200 1.389 . S
C2202 C2203 1.524 . S
C2202 C2216 1.377 . S
C2203 C2202 1.524 . S
C2203 C2204 1.397 . S
C2203 C2208 1.363 . S
C2204 H2181 0.950 . S
C2204 C2203 1.397 . S
C2204 C2205 1.334 . S
C2205 H2182 0.950 . S
C2205 C2204 1.334 . S
C2205 C2206 1.287 . S
C2206 C2205 1.287 . S
C2206 C2207 1.524 . S
C2206 H2225 0.913 . S
C2207 H2183 0.950 . S
C2207 C2206 1.524 . S
C2207 C2208 1.415 . S
C2208 H2184 0.950 . S
C2208 C2203 1.363 . S
C2208 C2207 1.415 . S
C2209 H2185 0.951 . S
C2209 C2210 1.366 . S
C2209 C2211 1.388 . S
C2210 C2209 1.366 . S
C2210 C2214 1.385 . S
C2211 H2186 0.951 . S
C2211 C2209 1.388 . S
C2211 C2212 1.366 . S
C2212 C2211 1.366 . S
C2212 C2213 1.414 . S
C2212 C2215 1.499 . S
C2213 H2187 0.950 . S
C2213 C2212 1.414 . S
C2213 C2214 1.374 . S
C2214 H2188 0.950 . S
C2214 C2210 1.385 . S
C2214 C2213 1.374 . S
C2215 C2212 1.499 . S
C2215 C2216 1.373 . S
C2215 C2217 1.389 . S
C2216 H2189 0.950 . S
C2216 C2202 1.377 . S
C2216 C2215 1.373 . S
C2217 C2201 1.377 . S
C2217 C2215 1.389 . S
C2217 C2218 1.524 . S
C2218 C2217 1.524 . S
C2218 C2219 1.397 . S
C2218 C2223 1.363 . S
C2219 H2190 0.950 . S
C2219 C2218 1.397 . S
C2219 C2220 1.334 . S
C2220 H2191 0.950 . S
C2220 C2219 1.334 . S
C2220 C2221 1.287 . S
C2221 C2220 1.287 . S
C2221 C2222 1.524 . S
C2221 H2224 0.999 . S
C2222 H2192 0.950 . S
C2222 C2221 1.524 . S
C2222 C2223 1.415 . S
C2223 H2193 0.950 . S
C2223 C2218 1.363 . S
C2223 C2222 1.415 . S
H2224 C2221 0.999 . S
H2225 C2206 0.913 . S
H2226 C2244 0.951 . S
H2227 C2246 0.951 . S
H2228 C2248 0.950 . S
H2229 C2249 0.950 . S
H2230 C2251 0.950 . S
H2231 C2254 0.975 . S
H2232 C2255 0.950 1_556 S
H2233 C2257 0.950 . S
H2234 C2258 0.950 . S
H2235 C2259 0.951 . S
H2236 C2261 0.951 . S
H2237 C2263 0.950 . S
H2238 C2264 0.950 . S
H2239 C2266 0.950 . S
H2240 C2269 0.950 . S
H2241 C2270 0.950 . S
H2242 C2272 0.950 . S
H2243 C2273 0.950 . S
C2244 H2226 0.951 . S
C2244 C2245 1.366 1_554 S
C2244 C2246 1.388 . S
C2245 C2244 1.366 1_556 S
C2245 C2249 1.385 . S
C2246 H2227 0.951 . S
C2246 C2244 1.388 . S
C2246 C2247 1.366 . S
C2247 C2246 1.366 . S
C2247 C2248 1.414 1_554 S
C2247 C2250 1.499 . S
C2248 H2228 0.950 . S
C2248 C2247 1.414 1_556 S
C2248 C2249 1.374 . S
C2249 H2229 0.950 . S
C2249 C2245 1.385 . S
C2249 C2248 1.374 . S
C2250 C2247 1.499 . S
C2250 C2251 1.373 . S
C2250 C2252 1.389 . S
C2251 H2230 0.950 . S
C2251 C2250 1.373 . S
C2251 C2267 1.377 . S
C2252 C2250 1.389 . S
C2252 C2253 1.524 . S
C2252 C2266 1.377 . S
C2253 C2252 1.524 . S
C2253 C2254 1.397 . S
C2253 C2258 1.363 . S
C2254 H2231 0.975 . S
C2254 C2253 1.397 . S
C2254 C2255 1.334 . S
C2255 H2232 0.950 1_554 S
C2255 C2254 1.334 . S
C2255 C2256 1.287 . S
C2256 C2255 1.287 . S
C2256 C2257 1.524 . S
C2256 H2275 0.913 . S
C2257 H2233 0.950 . S
C2257 C2256 1.524 . S
C2257 C2258 1.415 . S
C2258 H2234 0.950 . S
C2258 C2253 1.363 . S
C2258 C2257 1.415 . S
C2259 H2235 0.951 . S
C2259 C2260 1.366 . S
C2259 C2261 1.388 . S
C2260 C2259 1.366 . S
C2260 C2264 1.385 . S
C2261 H2236 0.951 . S
C2261 C2259 1.388 . S
C2261 C2262 1.366 . S
C2262 C2261 1.366 . S
C2262 C2263 1.414 . S
C2262 C2265 1.499 . S
C2263 H2237 0.950 . S
C2263 C2262 1.414 . S
C2263 C2264 1.374 . S
C2264 H2238 0.950 . S
C2264 C2260 1.385 . S
C2264 C2263 1.374 . S
C2265 C2262 1.499 . S
C2265 C2266 1.373 . S
C2265 C2267 1.389 . S
C2266 H2239 0.950 . S
C2266 C2252 1.377 . S
C2266 C2265 1.373 . S
C2267 C2251 1.377 . S
C2267 C2265 1.389 . S
C2267 C2268 1.524 . S
C2268 C2267 1.524 . S
C2268 C2269 1.397 . S
C2268 C2273 1.363 . S
C2269 H2240 0.950 . S
C2269 C2268 1.397 . S
C2269 C2270 1.334 . S
C2270 H2241 0.950 . S
C2270 C2269 1.334 . S
C2270 C2271 1.287 . S
C2271 C2270 1.287 . S
C2271 C2272 1.524 . S
C2271 H2274 0.999 . S
C2272 H2242 0.950 . S
C2272 C2271 1.524 . S
C2272 C2273 1.415 . S
C2273 H2243 0.950 . S
C2273 C2268 1.363 . S
C2273 C2272 1.415 . S
H2274 C2271 0.999 . S
H2275 C2256 0.913 . S
H2276 C2294 0.951 . S
H2277 C2296 0.951 . S
H2278 C2298 0.950 . S
H2279 C2299 0.950 . S
H2280 C2301 0.950 . S
H2281 C2304 0.950 . S
H2282 C2305 0.950 . S
H2283 C2307 0.950 . S
H2284 C2308 0.950 . S
H2285 C2309 0.951 . S
H2286 C2311 0.951 . S
H2287 C2313 0.950 . S
H2288 C2314 0.950 . S
H2289 C2316 0.950 . S
H2290 C2319 0.950 . S
H2291 C2320 0.950 . S
H2292 C2322 0.950 . S
H2293 C2323 0.950 . S
C2294 H2276 0.951 . S
C2294 C2295 1.366 . S
C2294 C2296 1.388 . S
C2295 C2294 1.366 . S
C2295 C2299 1.385 . S
C2296 H2277 0.951 . S
C2296 C2294 1.388 . S
C2296 C2297 1.366 . S
C2297 C2296 1.366 . S
C2297 C2298 1.414 . S
C2297 C2300 1.499 . S
C2298 H2278 0.950 . S
C2298 C2297 1.414 . S
C2298 C2299 1.374 . S
C2299 H2279 0.950 . S
C2299 C2295 1.385 . S
C2299 C2298 1.374 . S
C2300 C2297 1.499 . S
C2300 C2301 1.373 . S
C2300 C2302 1.389 . S
C2301 H2280 0.950 . S
C2301 C2300 1.373 . S
C2301 C2317 1.377 . S
C2302 C2300 1.389 . S
C2302 C2303 1.524 . S
C2302 C2316 1.377 . S
C2303 C2302 1.524 . S
C2303 C2304 1.397 . S
C2303 C2308 1.363 . S
C2304 H2281 0.950 . S
C2304 C2303 1.397 . S
C2304 C2305 1.334 . S
C2305 H2282 0.950 . S
C2305 C2304 1.334 . S
C2305 C2306 1.287 . S
C2306 C2305 1.287 . S
C2306 C2307 1.524 . S
C2306 H2325 0.913 . S
C2307 H2283 0.950 . S
C2307 C2306 1.524 . S
C2307 C2308 1.415 . S
C2308 H2284 0.950 . S
C2308 C2303 1.363 . S
C2308 C2307 1.415 . S
C2309 H2285 0.951 . S
C2309 C2310 1.366 . S
C2309 C2311 1.388 . S
C2310 C2309 1.366 . S
C2310 C2314 1.385 . S
C2311 H2286 0.951 . S
C2311 C2309 1.388 . S
C2311 C2312 1.366 . S
C2312 C2311 1.366 . S
C2312 C2313 1.414 . S
C2312 C2315 1.499 . S
C2313 H2287 0.950 . S
C2313 C2312 1.414 . S
C2313 C2314 1.374 . S
C2314 H2288 0.950 . S
C2314 C2310 1.385 . S
C2314 C2313 1.374 . S
C2315 C2312 1.499 . S
C2315 C2316 1.373 . S
C2315 C2317 1.389 . S
C2316 H2289 0.950 . S
C2316 C2302 1.377 . S
C2316 C2315 1.373 . S
C2317 C2301 1.377 . S
C2317 C2315 1.389 . S
C2317 C2318 1.524 . S
C2318 C2317 1.524 . S
C2318 C2319 1.397 . S
C2318 C2323 1.363 . S
C2319 H2290 0.950 . S
C2319 C2318 1.397 . S
C2319 C2320 1.334 . S
C2320 H2291 0.950 . S
C2320 C2319 1.334 . S
C2320 C2321 1.287 . S
C2321 C2320 1.287 . S
C2321 C2322 1.524 . S
C2321 H2324 0.999 . S
C2322 H2292 0.950 . S
C2322 C2321 1.524 . S
C2322 C2323 1.415 . S
C2323 H2293 0.950 . S
C2323 C2318 1.363 . S
C2323 C2322 1.415 . S
H2324 C2321 0.999 . S
H2325 C2306 0.913 . S
H2326 C2344 0.951 . S
H2327 C2346 0.951 . S
H2328 C2348 0.950 . S
H2329 C2349 0.950 . S
H2330 C2351 0.950 . S
H2331 C2354 0.950 . S
H2332 C2355 0.950 . S
H2333 C2357 0.950 . S
H2334 C2358 0.950 . S
H2335 C2359 0.951 . S
H2336 C2361 0.951 . S
H2337 C2363 0.950 . S
H2338 C2364 0.950 . S
H2339 C2366 0.950 . S
H2340 C2369 0.950 . S
H2341 C2370 0.950 . S
H2342 C2372 0.950 . S
H2343 C2373 0.950 . S
C2344 H2326 0.951 . S
C2344 C2345 1.366 . S
C2344 C2346 1.388 . S
C2345 C2344 1.366 . S
C2345 C2349 1.385 . S
C2346 H2327 0.951 . S
C2346 C2344 1.388 . S
C2346 C2347 1.366 1_556 S
C2347 C2346 1.366 1_554 S
C2347 C2348 1.414 . S
C2347 C2350 1.499 . S
C2348 H2328 0.950 . S
C2348 C2347 1.414 . S
C2348 C2349 1.374 1_554 S
C2349 H2329 0.950 . S
C2349 C2345 1.385 . S
C2349 C2348 1.374 1_556 S
C2350 C2347 1.499 . S
C2350 C2351 1.373 . S
C2350 C2352 1.389 . S
C2351 H2330 0.950 . S
C2351 C2350 1.373 . S
C2351 C2367 1.377 . S
C2352 C2350 1.389 . S
C2352 C2353 1.524 . S
C2352 C2366 1.377 . S
C2353 C2352 1.524 . S
C2353 C2354 1.397 . S
C2353 C2358 1.363 1_554 S
C2354 H2331 0.950 . S
C2354 C2353 1.397 . S
C2354 C2355 1.334 1_554 S
C2355 H2332 0.950 . S
C2355 C2354 1.334 1_556 S
C2355 C2356 1.287 . S
C2356 C2355 1.287 . S
C2356 C2357 1.524 . S
C2356 H2375 0.913 . S
C2357 H2333 0.950 . S
C2357 C2356 1.524 . S
C2357 C2358 1.415 . S
C2358 H2334 0.950 . S
C2358 C2353 1.363 1_556 S
C2358 C2357 1.415 . S
C2359 H2335 0.951 . S
C2359 C2360 1.366 . S
C2359 C2361 1.388 . S
C2360 C2359 1.366 . S
C2360 C2364 1.385 . S
C2361 H2336 0.951 . S
C2361 C2359 1.388 . S
C2361 C2362 1.366 . S
C2362 C2361 1.366 . S
C2362 C2363 1.414 . S
C2362 C2365 1.499 . S
C2363 H2337 0.950 . S
C2363 C2362 1.414 . S
C2363 C2364 1.374 . S
C2364 H2338 0.950 . S
C2364 C2360 1.385 . S
C2364 C2363 1.374 . S
C2365 C2362 1.499 . S
C2365 C2366 1.373 . S
C2365 C2367 1.389 . S
C2366 H2339 0.950 . S
C2366 C2352 1.377 . S
C2366 C2365 1.373 . S
C2367 C2351 1.377 . S
C2367 C2365 1.389 . S
C2367 C2368 1.524 . S
C2368 C2367 1.524 . S
C2368 C2369 1.397 . S
C2368 C2373 1.363 . S
C2369 H2340 0.950 . S
C2369 C2368 1.397 . S
C2369 C2370 1.334 . S
C2370 H2341 0.950 . S
C2370 C2369 1.334 . S
C2370 C2371 1.287 . S
C2371 C2370 1.287 . S
C2371 C2372 1.524 . S
C2371 H2374 0.999 . S
C2372 H2342 0.950 . S
C2372 C2371 1.524 . S
C2372 C2373 1.415 . S
C2373 H2343 0.950 . S
C2373 C2368 1.363 . S
C2373 C2372 1.415 . S
H2374 C2371 0.999 . S
H2375 C2356 0.913 . S
H2376 C2394 0.951 . S
H2377 C2396 0.951 . S
H2378 C2398 0.950 . S
H2379 C2399 0.950 . S
H2380 C2401 0.950 . S
H2381 C2404 0.950 . S
H2382 C2405 0.950 . S
H2383 C2407 0.950 . S
H2384 C2408 0.950 . S
H2385 C2409 0.951 . S
H2386 C2411 0.951 . S
H2387 C2413 0.950 . S
H2388 C2414 0.950 . S
H2389 C2416 0.950 . S
H2390 C2419 0.950 . S
H2391 C2420 0.950 . S
H2392 C2422 0.950 . S
H2393 C2423 0.950 . S
C2394 H2376 0.951 . S
C2394 C2395 1.366 . S
C2394 C2396 1.388 . S
C2395 C2394 1.366 . S
C2395 C2399 1.385 . S
C2396 H2377 0.951 . S
C2396 C2394 1.388 . S
C2396 C2397 1.366 . S
C2397 C2396 1.366 . S
C2397 C2398 1.414 . S
C2397 C2400 1.499 . S
C2398 H2378 0.950 . S
C2398 C2397 1.414 . S
C2398 C2399 1.374 . S
C2399 H2379 0.950 . S
C2399 C2395 1.385 . S
C2399 C2398 1.374 . S
C2400 C2397 1.499 . S
C2400 C2401 1.373 . S
C2400 C2402 1.389 . S
C2401 H2380 0.950 . S
C2401 C2400 1.373 . S
C2401 C2417 1.377 . S
C2402 C2400 1.389 . S
C2402 C2403 1.524 . S
C2402 C2416 1.377 . S
C2403 C2402 1.524 . S
C2403 C2404 1.397 . S
C2403 C2408 1.363 . S
C2404 H2381 0.950 . S
C2404 C2403 1.397 . S
C2404 C2405 1.334 . S
C2405 H2382 0.950 . S
C2405 C2404 1.334 . S
C2405 C2406 1.287 . S
C2406 C2405 1.287 . S
C2406 C2407 1.524 . S
C2406 H2425 0.913 . S
C2407 H2383 0.950 . S
C2407 C2406 1.524 . S
C2407 C2408 1.415 . S
C2408 H2384 0.950 . S
C2408 C2403 1.363 . S
C2408 C2407 1.415 . S
C2409 H2385 0.951 . S
C2409 C2410 1.366 . S
C2409 C2411 1.388 . S
C2410 C2409 1.366 . S
C2410 C2414 1.385 . S
C2411 H2386 0.951 . S
C2411 C2409 1.388 . S
C2411 C2412 1.366 . S
C2412 C2411 1.366 . S
C2412 C2413 1.414 . S
C2412 C2415 1.499 . S
C2413 H2387 0.950 . S
C2413 C2412 1.414 . S
C2413 C2414 1.374 . S
C2414 H2388 0.950 . S
C2414 C2410 1.385 . S
C2414 C2413 1.374 . S
C2415 C2412 1.499 . S
C2415 C2416 1.373 . S
C2415 C2417 1.389 . S
C2416 H2389 0.950 . S
C2416 C2402 1.377 . S
C2416 C2415 1.373 . S
C2417 C2401 1.377 . S
C2417 C2415 1.389 . S
C2417 C2418 1.524 . S
C2418 C2417 1.524 . S
C2418 C2419 1.397 . S
C2418 C2423 1.363 . S
C2419 H2390 0.950 . S
C2419 C2418 1.397 . S
C2419 C2420 1.334 . S
C2420 H2391 0.950 . S
C2420 C2419 1.334 . S
C2420 C2421 1.287 . S
C2421 C2420 1.287 . S
C2421 C2422 1.524 . S
C2421 H2424 0.999 . S
C2422 H2392 0.950 . S
C2422 C2421 1.524 . S
C2422 C2423 1.415 . S
C2423 H2393 0.950 . S
C2423 C2418 1.363 . S
C2423 C2422 1.415 . S
H2424 C2421 0.999 . S
H2425 C2406 0.913 . S
H2426 C2444 0.951 . S
H2427 C2446 0.951 . S
H2428 C2448 0.950 . S
H2429 C2449 0.950 . S
H2430 C2451 0.950 . S
H2431 C2454 0.950 . S
H2432 C2455 0.950 . S
H2433 C2457 0.950 . S
H2434 C2458 0.950 . S
H2435 C2459 0.951 . S
H2436 C2461 0.951 . S
H2437 C2463 0.950 . S
H2438 C2464 0.950 . S
H2439 C2466 0.950 . S
H2440 C2469 0.950 . S
H2441 C2470 0.950 . S
H2442 C2472 0.950 . S
H2443 C2473 0.950 . S
C2444 H2426 0.951 . S
C2444 C2445 1.366 . S
C2444 C2446 1.388 . S
C2445 C2444 1.366 . S
C2445 C2449 1.385 . S
C2446 H2427 0.951 . S
C2446 C2444 1.388 . S
C2446 C2447 1.366 . S
C2447 C2446 1.366 . S
C2447 C2448 1.414 . S
C2447 C2450 1.499 . S
C2448 H2428 0.950 . S
C2448 C2447 1.414 . S
C2448 C2449 1.374 . S
C2449 H2429 0.950 . S
C2449 C2445 1.385 . S
C2449 C2448 1.374 . S
C2450 C2447 1.499 . S
C2450 C2451 1.373 . S
C2450 C2452 1.389 . S
C2451 H2430 0.950 . S
C2451 C2450 1.373 . S
C2451 C2467 1.377 . S
C2452 C2450 1.389 . S
C2452 C2453 1.524 . S
C2452 C2466 1.377 . S
C2453 C2452 1.524 . S
C2453 C2454 1.397 . S
C2453 C2458 1.363 . S
C2454 H2431 0.950 . S
C2454 C2453 1.397 . S
C2454 C2455 1.334 . S
C2455 H2432 0.950 . S
C2455 C2454 1.334 . S
C2455 C2456 1.287 . S
C2456 C2455 1.287 . S
C2456 C2457 1.524 . S
C2456 H2475 0.913 . S
C2457 H2433 0.950 . S
C2457 C2456 1.524 . S
C2457 C2458 1.415 . S
C2458 H2434 0.950 . S
C2458 C2453 1.363 . S
C2458 C2457 1.415 . S
C2459 H2435 0.951 . S
C2459 C2460 1.366 . S
C2459 C2461 1.388 . S
C2460 C2459 1.366 . S
C2460 C2464 1.385 . S
C2461 H2436 0.951 . S
C2461 C2459 1.388 . S
C2461 C2462 1.366 . S
C2462 C2461 1.366 . S
C2462 C2463 1.414 . S
C2462 C2465 1.499 . S
C2463 H2437 0.950 . S
C2463 C2462 1.414 . S
C2463 C2464 1.374 . S
C2464 H2438 0.950 . S
C2464 C2460 1.385 . S
C2464 C2463 1.374 . S
C2465 C2462 1.499 . S
C2465 C2466 1.373 . S
C2465 C2467 1.389 . S
C2466 H2439 0.950 . S
C2466 C2452 1.377 . S
C2466 C2465 1.373 . S
C2467 C2451 1.377 . S
C2467 C2465 1.389 . S
C2467 C2468 1.524 . S
C2468 C2467 1.524 . S
C2468 C2469 1.397 . S
C2468 C2473 1.363 . S
C2469 H2440 0.950 . S
C2469 C2468 1.397 . S
C2469 C2470 1.334 . S
C2470 H2441 0.950 . S
C2470 C2469 1.334 . S
C2470 C2471 1.287 . S
C2471 C2470 1.287 . S
C2471 C2472 1.524 . S
C2471 H2474 0.999 . S
C2472 H2442 0.950 . S
C2472 C2471 1.524 . S
C2472 C2473 1.415 . S
C2473 H2443 0.950 . S
C2473 C2468 1.363 . S
C2473 C2472 1.415 . S
H2474 C2471 0.999 . S
H2475 C2456 0.913 . S
H2476 C2494 0.951 . S
H2477 C2496 0.951 . S
H2478 C2498 0.950 . S
H2479 C2499 0.950 . S
H2480 C2501 0.950 . S
H2481 C2504 0.950 . S
H2482 C2505 0.950 . S
H2483 C2507 0.950 . S
H2484 C2508 0.950 . S
H2485 C2509 0.951 . S
H2486 C2511 0.951 . S
H2487 C2513 0.950 . S
H2488 C2514 0.950 . S
H2489 C2516 0.950 . S
H2490 C2519 0.950 . S
H2491 C2520 0.950 . S
H2492 C2522 0.950 . S
H2493 C2523 0.950 . S
C2494 H2476 0.951 . S
C2494 C2495 1.366 . S
C2494 C2496 1.388 . S
C2495 C2494 1.366 . S
C2495 C2499 1.385 . S
C2496 H2477 0.951 . S
C2496 C2494 1.388 . S
C2496 C2497 1.366 . S
C2497 C2496 1.366 . S
C2497 C2498 1.414 . S
C2497 C2500 1.499 . S
C2498 H2478 0.950 . S
C2498 C2497 1.414 . S
C2498 C2499 1.374 . S
C2499 H2479 0.950 . S
C2499 C2495 1.385 . S
C2499 C2498 1.374 . S
C2500 C2497 1.499 . S
C2500 C2501 1.373 . S
C2500 C2502 1.389 . S
C2501 H2480 0.950 . S
C2501 C2500 1.373 . S
C2501 C2517 1.377 . S
C2502 C2500 1.389 . S
C2502 C2503 1.524 . S
C2502 C2516 1.377 . S
C2503 C2502 1.524 . S
C2503 C2504 1.397 . S
C2503 C2508 1.363 . S
C2504 H2481 0.950 . S
C2504 C2503 1.397 . S
C2504 C2505 1.334 . S
C2505 H2482 0.950 . S
C2505 C2504 1.334 . S
C2505 C2506 1.287 . S
C2506 C2505 1.287 . S
C2506 C2507 1.524 . S
C2506 H2525 0.913 . S
C2507 H2483 0.950 . S
C2507 C2506 1.524 . S
C2507 C2508 1.415 . S
C2508 H2484 0.950 . S
C2508 C2503 1.363 . S
C2508 C2507 1.415 . S
C2509 H2485 0.951 . S
C2509 C2510 1.366 . S
C2509 C2511 1.388 . S
C2510 C2509 1.366 . S
C2510 C2514 1.385 . S
C2511 H2486 0.951 . S
C2511 C2509 1.388 . S
C2511 C2512 1.366 . S
C2512 C2511 1.366 . S
C2512 C2513 1.414 . S
C2512 C2515 1.499 . S
C2513 H2487 0.950 . S
C2513 C2512 1.414 . S
C2513 C2514 1.374 . S
C2514 H2488 0.950 . S
C2514 C2510 1.385 . S
C2514 C2513 1.374 . S
C2515 C2512 1.499 . S
C2515 C2516 1.373 . S
C2515 C2517 1.389 . S
C2516 H2489 0.950 . S
C2516 C2502 1.377 . S
C2516 C2515 1.373 . S
C2517 C2501 1.377 . S
C2517 C2515 1.389 . S
C2517 C2518 1.524 . S
C2518 C2517 1.524 . S
C2518 C2519 1.397 . S
C2518 C2523 1.363 . S
C2519 H2490 0.950 . S
C2519 C2518 1.397 . S
C2519 C2520 1.334 . S
C2520 H2491 0.950 . S
C2520 C2519 1.334 . S
C2520 C2521 1.287 . S
C2521 C2520 1.287 . S
C2521 C2522 1.524 . S
C2521 H2524 0.999 . S
C2522 H2492 0.950 . S
C2522 C2521 1.524 . S
C2522 C2523 1.415 . S
C2523 H2493 0.950 . S
C2523 C2518 1.363 . S
C2523 C2522 1.415 . S
H2524 C2521 0.999 . S
H2525 C2506 0.913 . S
H2526 C2544 0.951 . S
H2527 C2546 0.951 . S
H2528 C2548 0.950 . S
H2529 C2549 0.950 . S
H2530 C2551 0.950 . S
H2531 C2554 0.950 . S
H2532 C2555 0.950 . S
H2533 C2557 0.950 . S
H2534 C2558 0.950 . S
H2535 C2559 0.951 . S
H2536 C2561 0.951 . S
H2537 C2563 0.950 . S
H2538 C2564 0.950 . S
H2539 C2566 0.950 . S
H2540 C2569 0.950 . S
H2541 C2570 0.950 . S
H2542 C2572 0.950 . S
H2543 C2573 0.950 . S
C2544 H2526 0.951 . S
C2544 C2545 1.366 . S
C2544 C2546 1.388 . S
C2545 C2544 1.366 . S
C2545 C2549 1.385 . S
C2546 H2527 0.951 . S
C2546 C2544 1.388 . S
C2546 C2547 1.366 . S
C2547 C2546 1.366 . S
C2547 C2548 1.414 . S
C2547 C2550 1.499 . S
C2548 H2528 0.950 . S
C2548 C2547 1.414 . S
C2548 C2549 1.374 . S
C2549 H2529 0.950 . S
C2549 C2545 1.385 . S
C2549 C2548 1.374 . S
C2550 C2547 1.499 . S
C2550 C2551 1.373 . S
C2550 C2552 1.389 . S
C2551 H2530 0.950 . S
C2551 C2550 1.373 . S
C2551 C2567 1.377 . S
C2552 C2550 1.389 . S
C2552 C2553 1.524 . S
C2552 C2566 1.377 . S
C2553 C2552 1.524 . S
C2553 C2554 1.397 . S
C2553 C2558 1.363 . S
C2554 H2531 0.950 . S
C2554 C2553 1.397 . S
C2554 C2555 1.334 . S
C2555 H2532 0.950 . S
C2555 C2554 1.334 . S
C2555 C2556 1.287 . S
C2556 C2555 1.287 . S
C2556 C2557 1.524 . S
C2556 H2575 0.913 . S
C2557 H2533 0.950 . S
C2557 C2556 1.524 . S
C2557 C2558 1.415 . S
C2558 H2534 0.950 . S
C2558 C2553 1.363 . S
C2558 C2557 1.415 . S
C2559 H2535 0.951 . S
C2559 C2560 1.366 . S
C2559 C2561 1.388 . S
C2560 C2559 1.366 . S
C2560 C2564 1.385 . S
C2561 H2536 0.951 . S
C2561 C2559 1.388 . S
C2561 C2562 1.366 . S
C2562 C2561 1.366 . S
C2562 C2563 1.414 . S
C2562 C2565 1.499 . S
C2563 H2537 0.950 . S
C2563 C2562 1.414 . S
C2563 C2564 1.374 . S
C2564 H2538 0.950 . S
C2564 C2560 1.385 . S
C2564 C2563 1.374 . S
C2565 C2562 1.499 . S
C2565 C2566 1.373 . S
C2565 C2567 1.389 . S
C2566 H2539 0.950 . S
C2566 C2552 1.377 . S
C2566 C2565 1.373 . S
C2567 C2551 1.377 . S
C2567 C2565 1.389 . S
C2567 C2568 1.524 . S
C2568 C2567 1.524 . S
C2568 C2569 1.397 . S
C2568 C2573 1.363 . S
C2569 H2540 0.950 . S
C2569 C2568 1.397 . S
C2569 C2570 1.334 . S
C2570 H2541 0.950 . S
C2570 C2569 1.334 . S
C2570 C2571 1.287 . S
C2571 C2570 1.287 . S
C2571 C2572 1.524 . S
C2571 H2574 0.999 . S
C2572 H2542 0.950 . S
C2572 C2571 1.524 . S
C2572 C2573 1.415 . S
C2573 H2543 0.950 . S
C2573 C2568 1.363 . S
C2573 C2572 1.415 . S
H2574 C2571 0.999 . S
H2575 C2556 0.913 . S
H2576 C2594 0.951 . S
H2577 C2596 0.951 . S
H2578 C2598 0.947 . S
H2579 C2599 0.950 . S
H2580 C2601 0.950 1_554 S
H2581 C2604 0.950 . S
H2582 C2605 0.950 . S
H2583 C2607 0.950 . S
H2584 C2608 0.950 . S
H2585 C2609 0.951 . S
H2586 C2611 0.951 . S
H2587 C2613 0.950 . S
H2588 C2614 0.950 . S
H2589 C2616 0.950 . S
H2590 C2619 0.950 . S
H2591 C2620 0.950 . S
H2592 C2622 0.950 . S
H2593 C2623 0.950 . S
C2594 H2576 0.951 . S
C2594 C2595 1.366 . S
C2594 C2596 1.388 . S
C2595 C2594 1.366 . S
C2595 C2599 1.385 . S
C2596 H2577 0.951 . S
C2596 C2594 1.388 . S
C2596 C2597 1.366 . S
C2597 C2596 1.366 . S
C2597 C2598 1.414 . S
C2597 C2600 1.499 . S
C2598 H2578 0.947 . S
C2598 C2597 1.414 . S
C2598 C2599 1.374 . S
C2599 H2579 0.950 . S
C2599 C2595 1.385 . S
C2599 C2598 1.374 . S
C2600 C2597 1.499 . S
C2600 C2601 1.373 . S
C2600 C2602 1.389 . S
C2601 H2580 0.950 1_556 S
C2601 C2600 1.373 . S
C2601 C2617 1.377 . S
C2602 C2600 1.389 . S
C2602 C2603 1.524 . S
C2602 C2616 1.377 . S
C2603 C2602 1.524 . S
C2603 C2604 1.397 . S
C2603 C2608 1.363 . S
C2604 H2581 0.950 . S
C2604 C2603 1.397 . S
C2604 C2605 1.334 . S
C2605 H2582 0.950 . S
C2605 C2604 1.334 . S
C2605 C2606 1.287 . S
C2606 C2605 1.287 . S
C2606 C2607 1.524 . S
C2606 H2625 0.913 . S
C2607 H2583 0.950 . S
C2607 C2606 1.524 . S
C2607 C2608 1.415 . S
C2608 H2584 0.950 . S
C2608 C2603 1.363 . S
C2608 C2607 1.415 . S
C2609 H2585 0.951 . S
C2609 C2610 1.366 1_554 S
C2609 C2611 1.388 . S
C2610 C2609 1.366 1_556 S
C2610 C2614 1.385 . S
C2611 H2586 0.951 . S
C2611 C2609 1.388 . S
C2611 C2612 1.366 1_554 S
C2612 C2611 1.366 1_556 S
C2612 C2613 1.414 . S
C2612 C2615 1.499 . S
C2613 H2587 0.950 . S
C2613 C2612 1.414 . S
C2613 C2614 1.374 . S
C2614 H2588 0.950 . S
C2614 C2610 1.385 . S
C2614 C2613 1.374 . S
C2615 C2612 1.499 . S
C2615 C2616 1.373 . S
C2615 C2617 1.389 . S
C2616 H2589 0.950 . S
C2616 C2602 1.377 . S
C2616 C2615 1.373 . S
C2617 C2601 1.377 . S
C2617 C2615 1.389 . S
C2617 C2618 1.524 1_556 S
C2618 C2617 1.524 1_554 S
C2618 C2619 1.397 . S
C2618 C2623 1.363 . S
C2619 H2590 0.950 . S
C2619 C2618 1.397 . S
C2619 C2620 1.334 . S
C2620 H2591 0.950 . S
C2620 C2619 1.334 . S
C2620 C2621 1.287 . S
C2621 C2620 1.287 . S
C2621 C2622 1.524 . S
C2621 H2624 0.999 . S
C2622 H2592 0.950 . S
C2622 C2621 1.524 . S
C2622 C2623 1.415 . S
C2623 H2593 0.950 . S
C2623 C2618 1.363 . S
C2623 C2622 1.415 . S
H2624 C2621 0.999 . S
H2625 C2606 0.913 . S
H2626 C2644 0.951 . S
H2627 C2646 0.951 . S
H2628 C2648 0.950 . S
H2629 C2649 0.950 . S
H2630 C2651 0.950 . S
H2631 C2654 0.950 . S
H2632 C2655 0.950 . S
H2633 C2657 0.950 . S
H2634 C2658 0.950 . S
H2635 C2659 0.951 . S
H2636 C2661 0.951 . S
H2637 C2663 0.950 . S
H2638 C2664 0.950 . S
H2639 C2666 0.950 . S
H2640 C2669 0.950 . S
H2641 C2670 0.950 . S
H2642 C2672 0.950 . S
H2643 C2673 0.950 . S
C2644 H2626 0.951 . S
C2644 C2645 1.366 . S
C2644 C2646 1.388 . S
C2645 C2644 1.366 . S
C2645 C2649 1.385 . S
C2646 H2627 0.951 . S
C2646 C2644 1.388 . S
C2646 C2647 1.366 . S
C2647 C2646 1.366 . S
C2647 C2648 1.414 . S
C2647 C2650 1.499 . S
C2648 H2628 0.950 . S
C2648 C2647 1.414 . S
C2648 C2649 1.374 . S
C2649 H2629 0.950 . S
C2649 C2645 1.385 . S
C2649 C2648 1.374 . S
C2650 C2647 1.499 . S
C2650 C2651 1.373 . S
C2650 C2652 1.389 . S
C2651 H2630 0.950 . S
C2651 C2650 1.373 . S
C2651 C2667 1.377 . S
C2652 C2650 1.389 . S
C2652 C2653 1.524 . S
C2652 C2666 1.377 . S
C2653 C2652 1.524 . S
C2653 C2654 1.397 . S
C2653 C2658 1.363 . S
C2654 H2631 0.950 . S
C2654 C2653 1.397 . S
C2654 C2655 1.334 . S
C2655 H2632 0.950 . S
C2655 C2654 1.334 . S
C2655 C2656 1.287 . S
C2656 C2655 1.287 . S
C2656 C2657 1.524 . S
C2656 H2675 0.913 . S
C2657 H2633 0.950 . S
C2657 C2656 1.524 . S
C2657 C2658 1.415 . S
C2658 H2634 0.950 . S
C2658 C2653 1.363 . S
C2658 C2657 1.415 . S
C2659 H2635 0.951 . S
C2659 C2660 1.366 . S
C2659 C2661 1.388 . S
C2660 C2659 1.366 . S
C2660 C2664 1.385 . S
C2661 H2636 0.951 . S
C2661 C2659 1.388 . S
C2661 C2662 1.366 . S
C2662 C2661 1.366 . S
C2662 C2663 1.414 . S
C2662 C2665 1.499 . S
C2663 H2637 0.950 . S
C2663 C2662 1.414 . S
C2663 C2664 1.374 . S
C2664 H2638 0.950 . S
C2664 C2660 1.385 . S
C2664 C2663 1.374 . S
C2665 C2662 1.499 . S
C2665 C2666 1.373 . S
C2665 C2667 1.389 . S
C2666 H2639 0.950 . S
C2666 C2652 1.377 . S
C2666 C2665 1.373 . S
C2667 C2651 1.377 . S
C2667 C2665 1.389 . S
C2667 C2668 1.524 . S
C2668 C2667 1.524 . S
C2668 C2669 1.397 . S
C2668 C2673 1.363 . S
C2669 H2640 0.950 . S
C2669 C2668 1.397 . S
C2669 C2670 1.334 . S
C2670 H2641 0.950 . S
C2670 C2669 1.334 . S
C2670 C2671 1.287 . S
C2671 C2670 1.287 . S
C2671 C2672 1.524 . S
C2671 H2674 0.999 . S
C2672 H2642 0.950 . S
C2672 C2671 1.524 . S
C2672 C2673 1.415 . S
C2673 H2643 0.950 . S
C2673 C2668 1.363 . S
C2673 C2672 1.415 . S
H2674 C2671 0.999 . S
H2675 C2656 0.913 . S
H2676 C2694 0.951 . S
H2677 C2696 0.951 . S
H2678 C2698 0.950 . S
H2679 C2699 0.950 . S
H2680 C2701 0.950 . S
H2681 C2704 0.950 . S
H2682 C2705 0.950 . S
H2683 C2707 0.950 . S
H2684 C2708 0.950 . S
H2685 C2709 0.951 . S
H2686 C2711 0.951 . S
H2687 C2713 0.950 . S
H2688 C2714 0.950 . S
H2689 C2716 0.950 . S
H2690 C2719 0.950 . S
H2691 C2720 0.950 . S
H2692 C2722 0.950 . S
H2693 C2723 0.950 . S
C2694 H2676 0.951 . S
C2694 C2695 1.366 . S
C2694 C2696 1.388 . S
C2695 C2694 1.366 . S
C2695 C2699 1.385 . S
C2696 H2677 0.951 . S
C2696 C2694 1.388 . S
C2696 C2697 1.366 . S
C2697 C2696 1.366 . S
C2697 C2698 1.414 . S
C2697 C2700 1.499 . S
C2698 H2678 0.950 . S
C2698 C2697 1.414 . S
C2698 C2699 1.374 . S
C2699 H2679 0.950 . S
C2699 C2695 1.385 . S
C2699 C2698 1.374 . S
C2700 C2697 1.499 . S
C2700 C2701 1.373 . S
C2700 C2702 1.389 . S
C2701 H2680 0.950 . S
C2701 C2700 1.373 . S
C2701 C2717 1.377 . S
C2702 C2700 1.389 . S
C2702 C2703 1.524 . S
C2702 C2716 1.377 . S
C2703 C2702 1.524 . S
C2703 C2704 1.397 . S
C2703 C2708 1.363 . S
C2704 H2681 0.950 . S
C2704 C2703 1.397 . S
C2704 C2705 1.334 1_554 S
C2705 H2682 0.950 . S
C2705 C2704 1.334 1_556 S
C2705 C2706 1.287 . S
C2706 C2705 1.287 . S
C2706 C2707 1.524 . S
C2706 H2725 0.913 . S
C2707 H2683 0.950 . S
C2707 C2706 1.524 . S
C2707 C2708 1.415 1_556 S
C2708 H2684 0.950 . S
C2708 C2703 1.363 . S
C2708 C2707 1.415 1_554 S
C2709 H2685 0.951 . S
C2709 C2710 1.366 . S
C2709 C2711 1.388 . S
C2710 C2709 1.366 . S
C2710 C2714 1.385 . S
C2711 H2686 0.951 . S
C2711 C2709 1.388 . S
C2711 C2712 1.366 . S
C2712 C2711 1.366 . S
C2712 C2713 1.414 . S
C2712 C2715 1.499 . S
C2713 H2687 0.950 . S
C2713 C2712 1.414 . S
C2713 C2714 1.374 . S
C2714 H2688 0.950 . S
C2714 C2710 1.385 . S
C2714 C2713 1.374 . S
C2715 C2712 1.499 . S
C2715 C2716 1.373 . S
C2715 C2717 1.389 . S
C2716 H2689 0.950 . S
C2716 C2702 1.377 . S
C2716 C2715 1.373 . S
C2717 C2701 1.377 . S
C2717 C2715 1.389 . S
C2717 C2718 1.524 . S
C2718 C2717 1.524 . S
C2718 C2719 1.397 . S
C2718 C2723 1.363 . S
C2719 H2690 0.950 . S
C2719 C2718 1.397 . S
C2719 C2720 1.334 . S
C2720 H2691 0.950 . S
C2720 C2719 1.334 . S
C2720 C2721 1.287 . S
C2721 C2720 1.287 . S
C2721 C2722 1.524 . S
C2721 H2724 0.999 . S
C2722 H2692 0.950 . S
C2722 C2721 1.524 . S
C2722 C2723 1.415 . S
C2723 H2693 0.950 . S
C2723 C2718 1.363 . S
C2723 C2722 1.415 . S
H2724 C2721 0.999 . S
H2725 C2706 0.913 . S
H2726 C2744 0.951 . S
H2727 C2746 0.951 . S
H2728 C2748 0.950 . S
H2729 C2749 0.948 1_545 S
H2730 C2751 0.950 . S
H2731 C2754 0.950 . S
H2732 C2755 0.950 . S
H2733 C2757 0.950 . S
H2734 C2758 0.950 . S
H2735 C2759 0.951 . S
H2736 C2761 0.951 . S
H2737 C2763 0.950 1_556 S
H2738 C2764 0.950 1_556 S
H2739 C2766 0.950 . S
H2740 C2769 0.950 . S
H2741 C2770 0.950 . S
H2742 C2772 0.950 . S
H2743 C2773 0.950 . S
C2744 H2726 0.951 . S
C2744 C2745 1.373 . S
C2744 C2746 1.388 . S
C2745 C2744 1.373 . S
C2745 C2749 1.394 . S
C2746 H2727 0.951 . S
C2746 C2744 1.388 . S
C2746 C2747 1.366 . S
C2747 C2746 1.366 . S
C2747 C2748 1.414 . S
C2747 C2750 1.499 . S
C2748 H2728 0.950 . S
C2748 C2747 1.414 . S
C2748 C2749 1.374 . S
C2749 H2729 0.948 1_565 S
C2749 C2745 1.394 . S
C2749 C2748 1.374 . S
C2750 C2747 1.499 . S
C2750 C2751 1.373 . S
C2750 C2752 1.389 . S
C2751 H2730 0.950 . S
C2751 C2750 1.373 . S
C2751 C2767 1.377 . S
C2752 C2750 1.389 . S
C2752 C2753 1.524 . S
C2752 C2766 1.377 . S
C2753 C2752 1.524 . S
C2753 C2754 1.397 . S
C2753 C2758 1.363 1_554 S
C2754 H2731 0.950 . S
C2754 C2753 1.397 . S
C2754 C2755 1.334 . S
C2755 H2732 0.950 . S
C2755 C2754 1.334 . S
C2755 C2756 1.287 1_554 S
C2756 C2755 1.287 1_556 S
C2756 C2757 1.524 . S
C2756 H2775 0.913 . S
C2757 H2733 0.950 . S
C2757 C2756 1.524 . S
C2757 C2758 1.415 . S
C2758 H2734 0.950 . S
C2758 C2753 1.363 1_556 S
C2758 C2757 1.415 . S
C2759 H2735 0.951 . S
C2759 C2760 1.366 . S
C2759 C2761 1.388 . S
C2760 C2759 1.366 . S
C2760 C2764 1.385 . S
C2761 H2736 0.951 . S
C2761 C2759 1.388 . S
C2761 C2762 1.366 . S
C2762 C2761 1.366 . S
C2762 C2763 1.414 . S
C2762 C2765 1.499 . S
C2763 H2737 0.950 1_554 S
C2763 C2762 1.414 . S
C2763 C2764 1.374 . S
C2764 H2738 0.950 1_554 S
C2764 C2760 1.385 . S
C2764 C2763 1.374 . S
C2765 C2762 1.499 . S
C2765 C2766 1.373 . S
C2765 C2767 1.389 . S
C2766 H2739 0.950 . S
C2766 C2752 1.377 . S
C2766 C2765 1.373 . S
C2767 C2751 1.377 . S
C2767 C2765 1.389 . S
C2767 C2768 1.524 . S
C2768 C2767 1.524 . S
C2768 C2769 1.397 . S
C2768 C2773 1.363 . S
C2769 H2740 0.950 . S
C2769 C2768 1.397 . S
C2769 C2770 1.335 1_565 S
C2770 H2741 0.950 . S
C2770 C2769 1.335 1_545 S
C2770 C2771 1.286 . S
C2771 C2770 1.286 . S
C2771 C2772 1.524 . S
C2771 H2774 0.999 . S
C2772 H2742 0.950 . S
C2772 C2771 1.524 . S
C2772 C2773 1.415 1_545 S
C2773 H2743 0.950 . S
C2773 C2768 1.363 . S
C2773 C2772 1.415 1_565 S
H2774 C2771 0.999 . S
H2775 C2756 0.913 . S
C410 C216 1.228 . S
C395 N66 1.224 . S
C460 C229 1.556 . S
C445 N79 1.543 . S
C495 N92 1.939 . S
C510 C249 1.862 . S
C560 C263 1.233 . S
C545 N54 1.269 . S
C610 C275 1.532 . S
C595 N131 1.529 . S
C660 C289 1.049 . S
C645 N158 1.048 . S
C695 N145 1.557 . S
C710 C299 1.551 . S
C760 C314 1.847 1_565 S
C745 N118 1.846 . S
C795 N148 2.010 . S
C810 C328 1.951 . S
C860 C347 1.414 . S
C845 N122 1.508 . S
C895 N132 1.159 . S
C910 C327 1.145 . S
C960 C345 1.413 . S
C945 N161 1.391 . S
C995 N96 2.066 . S
C1010 C361 1.977 . S
C1045 N53 1.727 . S
C1060 C355 1.742 . S
C1095 N67 1.013 . S
C1110 C359 1.015 . S
C1145 N83 1.337 . S
C1160 C356 1.328 . S
C1195 N44 1.397 . S
C1210 C258 1.385 . S
C1245 N187 1.453 . S
C1260 C257 1.467 . S
C1310 C221 1.051 . S
C1295 N197 1.091 . S
C1360 C235 1.302 . S
C1345 N106 1.376 . S
C1395 N57 1.894 . S
C1410 C272 1.902 . S
C1460 C317 1.494 . S
C1445 N144 1.472 . S
C1510 C271 1.318 . S
C1495 N119 1.316 . S
C1560 C303 1.781 . S
C1545 N157 1.750 . S
C1610 C300 1.228 . S
C1595 N183 1.224 . S
C1645 N196 1.543 . S
C1660 C313 1.556 . S
C1695 N105 1.939 . S
C1710 C277 1.861 . S
C1760 C291 1.228 . S
C1745 N171 1.269 . S
C1795 N40 1.529 . S
C1810 C247 1.532 . S
C1860 C261 1.049 . S
C1845 N2 1.048 1_655 S
C1910 C215 1.551 . S
C1895 N15 1.557 . S
C1960 C230 1.847 . S
C1945 N27 1.847 . S
C1995 N18 2.010 . S
C2010 C342 1.951 . S
C2045 N31 1.507 . S
C2060 C333 1.415 . S
C2095 N41 1.159 . S
C2110 C341 1.145 . S
C2145 N5 1.391 . S
C2160 C331 1.413 . S
C2210 C375 1.977 . S
C2195 N109 2.065 . S
C2260 C369 1.743 . S
C2245 N170 1.727 . S
C2310 C373 1.015 . S
C2295 N184 1.013 . S
C2345 N200 1.337 . S
C2360 C370 1.329 . S
C2395 N135 1.398 . S
C2410 C286 1.385 . S
C2460 C285 1.467 . S
C2445 N70 1.453 . S
C2510 C305 1.034 . S
C2495 N80 1.091 . S
C2560 C319 1.303 . S
C2545 N93 1.376 . S
C2595 N174 1.893 . S
C2610 C244 1.902 . S
C2660 C233 1.494 . S
C2645 N14 1.472 . S
C2695 N28 1.316 . S
C2710 C243 1.317 . S
C2760 C219 1.781 . S
C2745 N1 1.736 1_565 S
