# Generated by pormake.
# Topology apo, (3,6)-cn, num edge types: 1
# Building blocks:
#     Node 0, Type 0, BuildingBlock: PAMTOO_clean_linker_0, # of connection points: 3
#     Node 1, Type 0, BuildingBlock: PAMTOO_clean_linker_0, # of connection points: 3
#     Node 2, Type 0, BuildingBlock: PAMTOO_clean_linker_0, # of connection points: 3
#     Node 3, Type 0, BuildingBlock: PAMTOO_clean_linker_0, # of connection points: 3
#     Node 4, Type 0, BuildingBlock: PAMTOO_clean_linker_0, # of connection points: 3
#     Node 5, Type 0, BuildingBlock: PAMTOO_clean_linker_0, # of connection points: 3
#     Node 6, Type 0, BuildingBlock: PAMTOO_clean_linker_0, # of connection points: 3
#     Node 7, Type 0, BuildingBlock: PAMTOO_clean_linker_0, # of connection points: 3
#     Node 8, Type 1, BuildingBlock: KUMJIN_clean_sbu_1, # of connection points: 6
#     Node 9, Type 1, BuildingBlock: KUMJIN_clean_sbu_1, # of connection points: 6
#     Node 10, Type 1, BuildingBlock: KUMJIN_clean_sbu_1, # of connection points: 6
#     Node 11, Type 1, BuildingBlock: KUMJIN_clean_sbu_1, # of connection points: 6
#     Edge 12, Type (0, 1), BuildingBlock: CIFDUS_clean_linker_0, # of connection points: 2
#     Edge 13, Type (0, 1), BuildingBlock: CIFDUS_clean_linker_0, # of connection points: 2
#     Edge 14, Type (0, 1), BuildingBlock: CIFDUS_clean_linker_0, # of connection points: 2
#     Edge 15, Type (0, 1), BuildingBlock: CIFDUS_clean_linker_0, # of connection points: 2
#     Edge 16, Type (0, 1), BuildingBlock: CIFDUS_clean_linker_0, # of connection points: 2
#     Edge 17, Type (0, 1), BuildingBlock: CIFDUS_clean_linker_0, # of connection points: 2
#     Edge 18, Type (0, 1), BuildingBlock: CIFDUS_clean_linker_0, # of connection points: 2
#     Edge 19, Type (0, 1), BuildingBlock: CIFDUS_clean_linker_0, # of connection points: 2
#     Edge 20, Type (0, 1), BuildingBlock: CIFDUS_clean_linker_0, # of connection points: 2
#     Edge 21, Type (0, 1), BuildingBlock: CIFDUS_clean_linker_0, # of connection points: 2
#     Edge 22, Type (0, 1), BuildingBlock: CIFDUS_clean_linker_0, # of connection points: 2
#     Edge 23, Type (0, 1), BuildingBlock: CIFDUS_clean_linker_0, # of connection points: 2
#     Edge 24, Type (0, 1), BuildingBlock: CIFDUS_clean_linker_0, # of connection points: 2
#     Edge 25, Type (0, 1), BuildingBlock: CIFDUS_clean_linker_0, # of connection points: 2
#     Edge 26, Type (0, 1), BuildingBlock: CIFDUS_clean_linker_0, # of connection points: 2
#     Edge 27, Type (0, 1), BuildingBlock: CIFDUS_clean_linker_0, # of connection points: 2
#     Edge 28, Type (0, 1), BuildingBlock: CIFDUS_clean_linker_0, # of connection points: 2
#     Edge 29, Type (0, 1), BuildingBlock: CIFDUS_clean_linker_0, # of connection points: 2
#     Edge 30, Type (0, 1), BuildingBlock: CIFDUS_clean_linker_0, # of connection points: 2
#     Edge 31, Type (0, 1), BuildingBlock: CIFDUS_clean_linker_0, # of connection points: 2
#     Edge 32, Type (0, 1), BuildingBlock: CIFDUS_clean_linker_0, # of connection points: 2
#     Edge 33, Type (0, 1), BuildingBlock: CIFDUS_clean_linker_0, # of connection points: 2
#     Edge 34, Type (0, 1), BuildingBlock: CIFDUS_clean_linker_0, # of connection points: 2
#     Edge 35, Type (0, 1), BuildingBlock: CIFDUS_clean_linker_0, # of connection points: 2
# Relax obj value: 0.039
# Max RMSD: 0.232
# Mean RMSD: 0.166
data_MOF--net-apo--node1-KUMJIN_clean_sbu_1--node2-PAMTOO_clean_linker_0--edge1-CIFDUS_clean_linker_0
_symmetry_space_group_name_H-M    P1
_symmetry_Int_Tables_number       1
_symmetry_cell_setting            triclinic
loop_
_symmetry_equiv_pos_as_xyz
'x, y, z'
_cell_length_a     24.268445
_cell_length_b     36.947561
_cell_length_c     45.457574
_cell_angle_alpha  90.175093
_cell_angle_beta   90.138513
_cell_angle_gamma 90.140617
loop_
_atom_site_label
_atom_site_type_symbol
_atom_site_fract_x
_atom_site_fract_y
_atom_site_fract_z
_atom_type_partial_charge
H0 H 0.38093 0.46414 0.4289 0.0
H1 H 0.33333 0.39947 0.35399 0.0
H2 H 0.29246 0.3638 0.44091 0.0
H3 H 0.32068 0.30341 0.39659 0.0
C4 C 0.30762 0.31816 0.37646 0.0
O5 O 0.28224 0.35004 0.38454 0.0
H6 H 0.34493 0.32395 0.36306 0.0
C7 C 0.36094 0.4403 0.41984 0.0
C8 C 0.33718 0.41454 0.43883 0.0
C9 C 0.36075 0.43464 0.38921 0.0
C10 C 0.33477 0.40378 0.37758 0.0
C11 C 0.31008 0.37843 0.39618 0.0
C12 C 0.31201 0.38352 0.42672 0.0
H13 H 0.17359 0.0624 0.92782 0.0
H14 H 0.24108 0.17025 0.93596 0.0
H15 H 0.22927 0.11953 0.85112 0.0
H16 H 0.33695 0.15488 0.86838 0.0
C17 C 0.31974 0.18028 0.87786 0.0
O18 O 0.26304 0.17719 0.87978 0.0
H19 H 0.33718 0.18411 0.9003 0.0
C20 C 0.1914 0.08647 0.91808 0.0
C21 C 0.19937 0.08752 0.88749 0.0
C22 C 0.20565 0.11626 0.93602 0.0
C23 C 0.2297 0.14693 0.92277 0.0
C24 C 0.23882 0.14791 0.89226 0.0
C25 C 0.22283 0.11844 0.87469 0.0
H26 H 0.83651 0.07142 0.58768 0.0
H27 H 0.78058 0.12202 0.66808 0.0
H28 H 0.76884 0.17874 0.58639 0.0
H29 H 0.81264 0.22095 0.63925 0.0
C30 C 0.78498 0.20886 0.65609 0.0
O31 O 0.75237 0.18245 0.64331 0.0
H32 H 0.81143 0.1966 0.67342 0.0
C33 C 0.81808 0.09386 0.59941 0.0
C34 C 0.80226 0.12462 0.58334 0.0
C35 C 0.81132 0.09228 0.63022 0.0
C36 C 0.7882 0.12246 0.64463 0.0
C37 C 0.77416 0.15373 0.62897 0.0
C38 C 0.78124 0.1548 0.5984 0.0
H39 H 0.65355 0.42964 0.10588 0.0
H40 H 0.76353 0.33924 0.09519 0.0
H41 H 0.74965 0.39077 0.1793 0.0
H42 H 0.85962 0.36944 0.16563 0.0
C43 C 0.85187 0.34517 0.15164 0.0
O44 O 0.79604 0.33835 0.15008 0.0
H45 H 0.8682 0.35095 0.12926 0.0
C46 C 0.68351 0.41109 0.11504 0.0
C47 C 0.69882 0.41398 0.14492 0.0
C48 C 0.70687 0.38434 0.09685 0.0
C49 C 0.74551 0.36022 0.1088 0.0
C50 C 0.76022 0.36243 0.13853 0.0
C51 C 0.73697 0.38914 0.15646 0.0
H52 H 0.6552 0.56616 0.59561 0.0
H53 H 0.72157 0.67335 0.5843 0.0
H54 H 0.74037 0.61876 0.66711 0.0
H55 H 0.70613 0.69192 0.67154 0.0
C56 C 0.72963 0.70491 0.6534 0.0
O57 O 0.75962 0.67891 0.63849 0.0
H58 H 0.69974 0.71746 0.6379 0.0
C59 C 0.67806 0.58913 0.60423 0.0
C60 C 0.69738 0.58835 0.63334 0.0
C61 C 0.68631 0.61955 0.58631 0.0
C62 C 0.71545 0.64946 0.59768 0.0
C63 C 0.73464 0.64922 0.6269 0.0
C64 C 0.72577 0.61863 0.64457 0.0
H65 H 0.9185 0.94918 0.10144 0.0
H66 H 0.8536 0.89045 0.17515 0.0
H67 H 0.82036 0.8529 0.08753 0.0
H68 H 0.72448 0.85272 0.1292 0.0
C69 C 0.74706 0.84543 0.14968 0.0
O70 O 0.80238 0.84149 0.14334 0.0
H71 H 0.74161 0.86752 0.16611 0.0
C72 C 0.89504 0.92647 0.10987 0.0
C73 C 0.87075 0.90139 0.09033 0.0
C74 C 0.88914 0.92258 0.14038 0.0
C75 C 0.85832 0.89366 0.1516 0.0
C76 C 0.83279 0.86903 0.13244 0.0
C77 C 0.83928 0.87274 0.10197 0.0
H78 H 0.18684 0.94856 0.43758 0.0
H79 H 0.28015 0.84996 0.44323 0.0
H80 H 0.27926 0.9099 0.36278 0.0
H81 H 0.25704 0.83001 0.35931 0.0
C82 C 0.28798 0.82112 0.37591 0.0
O83 O 0.31291 0.85093 0.3886 0.0
H84 H 0.26569 0.80539 0.39302 0.0
C85 C 0.21429 0.92904 0.42753 0.0
C86 C 0.23138 0.93365 0.39814 0.0
C87 C 0.23214 0.8992 0.44412 0.0
C88 C 0.2669 0.87354 0.431 0.0
C89 C 0.28266 0.87714 0.40158 0.0
C90 C 0.26558 0.90725 0.38534 0.0
H91 H 0.32442 0.5624 0.93112 0.0
H92 H 0.26874 0.61295 0.851 0.0
H93 H 0.23457 0.66239 0.9345 0.0
H94 H 0.14418 0.65962 0.89104 0.0
C95 C 0.1679 0.66636 0.87084 0.0
O96 O 0.22344 0.66842 0.87735 0.0
H97 H 0.16057 0.64424 0.85461 0.0
C98 C 0.30287 0.58393 0.9198 0.0
C99 C 0.2792 0.61183 0.93655 0.0
C100 C 0.29932 0.58354 0.88888 0.0
C101 C 0.27299 0.61265 0.87471 0.0
C102 C 0.25005 0.6411 0.89117 0.0
C103 C 0.25348 0.64074 0.922 0.0
Eu104 Eu 0.10686 0.13784 0.23386 0.0
C105 C 0.88977 0.0784 0.28076 0.0
N106 N 0.90582 0.11354 0.27854 0.0
C107 C 0.82099 0.12851 0.25445 0.0
C108 C 0.83911 0.06666 0.26884 0.0
C109 C 0.87189 0.13883 0.26633 0.0
C110 C 0.80472 0.09222 0.25547 0.0
C111 C 0.90915 0.01749 0.29742 0.0
C112 C 0.92455 0.05418 0.29477 0.0
C113 C 0.85944 1.00541 0.28483 0.0
C114 C 0.82446 0.02994 0.27063 0.0
Eu115 Eu 0.99218 0.12887 0.2991 0.0
N116 N 0.97235 0.06671 0.30677 0.0
C117 C 0.94349 0.99424 0.3133 0.0
C118 C 0.00342 0.0448 0.3243 0.0
C119 C 0.99034 0.00812 0.32723 0.0
H120 H 0.88435 0.1669 0.26573 0.0
H121 H 0.01589 0.99074 0.34065 0.0
H122 H 0.20188 0.07314 0.25027 0.0
H123 H 0.14184 0.28108 0.21331 0.0
H124 H 0.03757 0.05563 0.3367 0.0
H125 H 0.93315 0.96587 0.31583 0.0
H126 H 0.09064 0.22294 0.21188 0.0
H127 H 0.79439 0.14852 0.24449 0.0
H128 H 0.84719 0.97727 0.28645 0.0
H129 H 0.78594 0.02032 0.26135 0.0
H130 H 0.29492 0.06995 0.27164 0.0
H131 H 0.76542 0.08427 0.24609 0.0
H132 H 0.23466 0.28375 0.23599 0.0
N133 N 0.19866 0.13079 0.25111 0.0
C134 C 0.22826 0.16184 0.25449 0.0
C135 C 0.27635 0.09602 0.26736 0.0
C136 C 0.28249 0.16122 0.26572 0.0
C137 C 0.22301 0.098 0.25577 0.0
C138 C 0.30588 0.1278 0.27287 0.0
N139 N 0.15352 0.19381 0.23399 0.0
C140 C 0.13115 0.2241 0.22175 0.0
C141 C 0.23606 0.22662 0.24654 0.0
C142 C 0.20546 0.19418 0.24509 0.0
C143 C 0.21248 0.25828 0.23527 0.0
C144 C 0.16005 0.2569 0.22249 0.0
H145 H 0.3474 0.12616 0.28157 0.0
H146 H 0.35368 0.19382 0.27746 0.0
H147 H 0.31295 0.25111 0.26067 0.0
O148 O 0.08003 0.14353 0.18811 0.0
O149 O 0.10023 0.18143 0.2693 0.0
O150 O 0.07718 0.15005 0.31083 0.0
O151 O 0.16101 0.12296 0.19735 0.0
O152 O 0.02493 0.16691 0.22744 0.0
O153 O 0.99132 0.18182 0.27386 0.0
O154 O 0.96911 0.12071 0.34497 0.0
O155 O 0.97529 0.11175 0.25161 0.0
O156 O 0.05644 0.08661 0.23735 0.0
O157 O 0.94799 0.17085 0.32378 0.0
O158 O 0.07676 0.10427 0.30736 0.0
O159 O 0.108 0.08618 0.26156 0.0
C160 C 0.10509 0.17576 0.29765 0.0
C161 C 0.1162 0.10094 0.15475 0.0
C162 C 0.11425 0.08129 0.10325 0.0
C163 C 0.09666 0.04684 0.11258 0.0
C164 C 0.09899 0.06634 0.16342 0.0
C165 C 0.0892 0.0395 0.14241 0.0
C166 C 0.12421 0.10832 0.12465 0.0
C167 C 0.99526 0.18744 0.24523 0.0
C168 C 0.12455 0.12951 0.17704 0.0
C169 C 0.31222 0.19374 0.26856 0.0
C170 C 0.28911 0.22636 0.25892 0.0
C171 C 0.00254 0.08651 0.23754 0.0
C172 C 0.89073 0.15045 0.36302 0.0
C173 C 0.83994 0.14848 0.40941 0.0
C174 C 0.7909 0.14297 0.39348 0.0
C175 C 0.84129 0.14509 0.34757 0.0
C176 C 0.88979 0.15247 0.39394 0.0
C177 C 0.79165 0.14152 0.36277 0.0
C178 C 0.10674 0.08303 0.29048 0.0
C179 C 0.94411 0.15155 0.34765 0.0
H180 H 0.08923 0.02536 0.09678 0.0
H181 H 0.09314 0.06012 0.18643 0.0
H182 H 0.07581 0.01286 0.14928 0.0
H183 H 0.13711 0.13515 0.11792 0.0
H184 H 0.75193 0.14 0.4048 0.0
H185 H 0.84102 0.14327 0.32388 0.0
H186 H 0.92806 0.15605 0.40597 0.0
H187 H 0.75365 0.1373 0.3507 0.0
Eu188 Eu 0.47572 0.38436 0.73273 0.0
C189 C 0.69035 0.43513 0.7901 0.0
N190 N 0.66765 0.4015 0.79173 0.0
C191 C 0.75458 0.37505 0.7788 0.0
C192 C 0.74562 0.44005 0.7814 0.0
C193 C 0.69984 0.37157 0.78793 0.0
C194 C 0.77729 0.40945 0.77497 0.0
C195 C 0.68229 0.49969 0.79931 0.0
C196 C 0.65929 0.46463 0.79895 0.0
C197 C 0.73645 0.50489 0.78935 0.0
C198 C 0.76802 0.47514 0.78037 0.0
Eu199 Eu 0.57298 0.39904 0.80491 0.0
N200 N 0.60664 0.45889 0.80783 0.0
C201 C 0.65042 0.52832 0.81017 0.0
C202 C 0.57636 0.4862 0.81995 0.0
C203 C 0.59753 0.52143 0.82096 0.0
H204 H 0.68393 0.34487 0.79235 0.0
H205 H 0.573 0.54324 0.82993 0.0
H206 H 0.35587 0.41481 0.75899 0.0
H207 H 0.52662 0.25091 0.6877 0.0
H208 H 0.53547 0.48076 0.82823 0.0
H209 H 0.66664 0.55566 0.81084 0.0
H210 H 0.53887 0.31638 0.69575 0.0
H211 H 0.77945 0.35119 0.77516 0.0
H212 H 0.75469 0.53168 0.78911 0.0
H213 H 0.81021 0.47944 0.77344 0.0
H214 H 0.26474 0.3904 0.77324 0.0
H215 H 0.81989 0.41206 0.76819 0.0
H216 H 0.44213 0.22038 0.70535 0.0
N217 N 0.38718 0.36363 0.74588 0.0
C218 C 0.3764 0.32795 0.74118 0.0
C219 C 0.29591 0.37252 0.76444 0.0
C220 C 0.32522 0.31283 0.74913 0.0
C221 C 0.34751 0.38624 0.75648 0.0
C222 C 0.28489 0.33559 0.76105 0.0
N223 N 0.46566 0.3222 0.7208 0.0
C224 C 0.50348 0.30307 0.70501 0.0
C225 C 0.40738 0.26937 0.72377 0.0
C226 C 0.41719 0.30653 0.7288 0.0
C227 C 0.44806 0.24899 0.70962 0.0
C228 C 0.49591 0.26608 0.69975 0.0
H229 H 0.24503 0.325 0.76744 0.0
H230 H 0.27713 0.26341 0.75128 0.0
H231 H 0.34896 0.22538 0.72895 0.0
O232 O 0.45866 0.37693 0.68573 0.0
O233 O 0.45112 0.36086 0.77746 0.0
O234 O 0.53322 0.34421 0.79816 0.0
O235 O 0.43931 0.42781 0.70671 0.0
O236 O 0.5647 0.36487 0.72952 0.0
O237 O 0.58997 0.34867 0.77689 0.0
O238 O 0.54097 0.4058 0.84936 0.0
O239 O 0.56371 0.44337 0.7707 0.0
O240 O 0.55962 0.41093 0.72812 0.0
O241 O 0.62264 0.38449 0.84346 0.0
O242 O 0.48324 0.41662 0.80715 0.0
O243 O 0.45809 0.43469 0.76019 0.0
C244 C 0.48083 0.33806 0.79289 0.0
C245 C 0.38722 0.4116 0.66411 0.0
C246 C 0.34547 0.412 0.61502 0.0
C247 C 0.29472 0.42132 0.62774 0.0
C248 C 0.33596 0.42047 0.67638 0.0
C249 C 0.29001 0.42522 0.65823 0.0
C250 C 0.39156 0.40694 0.63344 0.0
C251 C 0.59381 0.34512 0.74802 0.0
C252 C 0.43726 0.40887 0.68248 0.0
C253 C 0.316 0.27562 0.74502 0.0
C254 C 0.35699 0.25394 0.7324 0.0
C255 C 0.57387 0.44025 0.74254 0.0
C256 C 0.57323 0.36585 0.88559 0.0
C257 C 0.5756 0.34974 0.93765 0.0
C258 C 0.54539 0.31819 0.93112 0.0
C259 C 0.54358 0.33407 0.87946 0.0
C260 C 0.58979 0.37339 0.91464 0.0
C261 C 0.5299 0.31033 0.90215 0.0
C262 C 0.45648 0.43826 0.78909 0.0
C263 C 0.58416 0.39236 0.86226 0.0
H264 H 0.25856 0.42517 0.6141 0.0
H265 H 0.33154 0.42416 0.69989 0.0
H266 H 0.25065 0.4322 0.66782 0.0
H267 H 0.43113 0.40027 0.62383 0.0
H268 H 0.5341 0.29951 0.94843 0.0
H269 H 0.53041 0.32792 0.85725 0.0
H270 H 0.61224 0.39813 0.91947 0.0
H271 H 0.50676 0.28593 0.89731 0.0
Eu272 Eu 0.05436 0.89569 0.72969 0.0
C273 C 0.8113 0.86835 0.78078 0.0
N274 N 0.84325 0.89849 0.78321 0.0
C275 C 0.76489 0.9362 0.7741 0.0
C276 C 0.75456 0.87108 0.77442 0.0
C277 C 0.821 0.93217 0.78029 0.0
C278 C 0.73155 0.90554 0.77103 0.0
C279 C 0.80366 0.80279 0.78141 0.0
C280 C 0.83557 0.83457 0.78426 0.0
C281 C 0.7472 0.80543 0.77494 0.0
C282 C 0.72272 0.83946 0.77147 0.0
Eu283 Eu 0.9378 0.88887 0.7922 0.0
N284 N 0.89078 0.83278 0.78944 0.0
C285 C 0.82957 0.76928 0.78492 0.0
C286 C 0.91575 0.80026 0.79405 0.0
C287 C 0.88574 0.76805 0.79153 0.0
H288 H 0.84639 0.956 0.78308 0.0
H289 H 0.90594 0.74228 0.79479 0.0
H290 H 0.15772 0.84409 0.7546 0.0
H291 H 0.04636 0.04227 0.71214 0.0
H292 H 0.95866 0.79893 0.79978 0.0
H293 H 0.80651 0.74425 0.78283 0.0
H294 H 0.01472 0.97925 0.70731 0.0
H295 H 0.74738 0.96295 0.77173 0.0
H296 H 0.72212 0.7813 0.77251 0.0
H297 H 0.67913 0.84104 0.76646 0.0
H298 H 0.25107 0.85213 0.77552 0.0
H299 H 0.68812 0.90876 0.76613 0.0
H300 H 0.13638 0.05553 0.73549 0.0
N301 N 0.14443 0.90041 0.7488 0.0
C302 C 0.16593 0.93441 0.75065 0.0
C303 C 0.22741 0.87549 0.76877 0.0
C304 C 0.21887 0.94026 0.7626 0.0
C305 C 0.17446 0.87101 0.75711 0.0
C306 C 0.24959 0.91026 0.77171 0.0
N307 N 0.08208 0.95722 0.73103 0.0
C308 C 0.05211 0.98474 0.71919 0.0
C309 C 0.15456 0.99918 0.74404 0.0
C310 C 0.13378 0.96358 0.74168 0.0
C311 C 0.12194 0.02781 0.73403 0.0
C312 C 0.0709 0.02047 0.72108 0.0
H313 H 0.29048 0.91363 0.78097 0.0
H314 H 0.27963 0.98076 0.7747 0.0
H315 H 0.22349 0.03227 0.75837 0.0
O316 O 0.05904 0.91216 0.6837 0.0
O317 O 0.07109 0.91397 0.77726 0.0
O318 O 0.98914 0.93937 0.78893 0.0
O319 O 0.11044 0.86868 0.69903 0.0
O320 O 0.96942 0.91959 0.71978 0.0
O321 O 0.94036 0.94008 0.76499 0.0
O322 O 0.96257 0.87732 0.83748 0.0
O323 O 0.9163 0.86249 0.74843 0.0
O324 O 0.99763 0.84677 0.72514 0.0
O325 O 0.89001 0.90942 0.82934 0.0
O326 O 0.0167 0.85561 0.79827 0.0
O327 O 0.05295 0.84158 0.75241 0.0
C328 C 0.04277 0.93905 0.79091 0.0
C329 C 0.07868 0.86617 0.64979 0.0
C330 C 0.08089 0.85904 0.5964 0.0
C331 C 0.04257 0.8306 0.59864 0.0
C332 C 0.04084 0.83752 0.65156 0.0
C333 C 0.02302 0.81978 0.62611 0.0
C334 C 0.09912 0.87664 0.62218 0.0
C335 C 0.93854 0.94098 0.73607 0.0
C336 C 0.09372 0.88698 0.67628 0.0
C337 C 0.23917 0.97573 0.7654 0.0
C338 C 0.20713 1.00508 0.75616 0.0
C339 C 0.94425 0.84304 0.7294 0.0
C340 C 0.94241 0.92351 0.87158 0.0
C341 C 0.95607 0.93977 0.92322 0.0
C342 C 0.98085 0.9724 0.9143 0.0
C343 C 0.96628 0.95652 0.86323 0.0
C344 C 0.937 0.91531 0.9016 0.0
C345 C 0.98574 0.98069 0.88449 0.0
C346 C 0.04679 0.83511 0.78069 0.0
C347 C 0.92409 0.89731 0.84911 0.0
H348 H 0.0281 0.81656 0.57913 0.0
H349 H 0.0246 0.82917 0.67255 0.0
H350 H 0.9936 0.7978 0.62767 0.0
H351 H 0.12787 0.89907 0.62066 0.0
H352 H 0.99553 0.99184 0.93042 0.0
H353 H 0.96968 0.9637 0.84031 0.0
H354 H 0.91861 0.88979 0.90809 0.0
H355 H 0.0044 1.00601 0.87784 0.0
Eu356 Eu 0.45776 0.63203 0.22414 0.0
C357 C 0.71084 0.65364 0.26636 0.0
N358 N 0.67659 0.62467 0.26913 0.0
C359 C 0.7507 0.58428 0.25776 0.0
C360 C 0.76668 0.64892 0.25877 0.0
C361 C 0.69573 0.59026 0.26547 0.0
C362 C 0.78629 0.61372 0.25428 0.0
C363 C 0.72451 0.71879 0.26834 0.0
C364 C 0.69004 0.68822 0.2711 0.0
C365 C 0.78011 0.71415 0.26074 0.0
C366 C 0.8011 0.67933 0.25593 0.0
Eu367 Eu 0.58471 0.63781 0.28195 0.0
N368 N 0.63556 0.69203 0.27742 0.0
C369 C 0.70189 0.75316 0.27297 0.0
C370 C 0.6137 0.72533 0.283 0.0
C371 C 0.64634 0.75641 0.2805 0.0
H372 H 0.66884 0.56734 0.26895 0.0
H373 H 0.62867 0.78284 0.28445 0.0
H374 H 0.35283 0.67115 0.25933 0.0
H375 H 0.48275 0.49077 0.18941 0.0
H376 H 0.57108 0.72805 0.28919 0.0
H377 H 0.72698 0.77732 0.27091 0.0
H378 H 0.50025 0.55638 0.18808 0.0
H379 H 0.76568 0.55696 0.25472 0.0
H380 H 0.80715 0.73733 0.25839 0.0
H381 H 0.84407 0.67622 0.25005 0.0
H382 H 0.26784 0.65277 0.28557 0.0
H383 H 0.82891 0.60898 0.24839 0.0
H384 H 0.40704 0.46662 0.22003 0.0
N385 N 0.37523 0.61723 0.24855 0.0
C386 C 0.36162 0.5815 0.2494 0.0
C387 C 0.29396 0.6325 0.27557 0.0
C388 C 0.31403 0.5698 0.26435 0.0
C389 C 0.34186 0.64284 0.26074 0.0
C390 C 0.28018 0.59582 0.27758 0.0
N391 N 0.44166 0.56879 0.22127 0.0
C392 C 0.47007 0.54599 0.2032 0.0
C393 C 0.38288 0.51943 0.2362 0.0
C394 C 0.39623 0.55661 0.23578 0.0
C395 C 0.41591 0.49537 0.22029 0.0
C396 C 0.45891 0.50885 0.20315 0.0
H397 H 0.24326 0.58789 0.28928 0.0
H398 H 0.26582 0.52312 0.27738 0.0
H399 H 0.32576 0.47906 0.25254 0.0
O400 O 0.44476 0.62424 0.17685 0.0
O401 O 0.44906 0.61726 0.27274 0.0
O402 O 0.52981 0.58849 0.2816 0.0
O403 O 0.39159 0.66019 0.20095 0.0
O404 O 0.54214 0.6109 0.21067 0.0
O405 O 0.57529 0.58738 0.25388 0.0
O406 O 0.56771 0.6514 0.32786 0.0
O407 O 0.59803 0.6683 0.2391 0.0
O408 O 0.51337 0.68053 0.21718 0.0
O409 O 0.63754 0.61774 0.31732 0.0
O410 O 0.50909 0.6729 0.2915 0.0
O411 O 0.46165 0.68537 0.24806 0.0
C412 C 0.47683 0.59158 0.28589 0.0
C413 C 0.35373 0.63057 0.15925 0.0
C414 C 0.30614 0.6219 0.11222 0.0
C415 C 0.26385 0.60339 0.1271 0.0
C416 C 0.31118 0.61193 0.17357 0.0
C417 C 0.26648 0.59848 0.15753 0.0
C418 C 0.35104 0.63553 0.12862 0.0
C419 C 0.57466 0.58857 0.22499 0.0
C420 C 0.4014 0.64481 0.17575 0.0
C421 C 0.30193 0.53267 0.26575 0.0
C422 C 0.33624 0.50756 0.25172 0.0
C423 C 0.56656 0.68632 0.22063 0.0
C424 C 0.59663 0.60964 0.36386 0.0
C425 C 0.60534 0.59835 0.41664 0.0
C426 C 0.57311 0.56687 0.41308 0.0
C427 C 0.56515 0.57804 0.36079 0.0
C428 C 0.61683 0.61968 0.39173 0.0
C429 C 0.55323 0.55686 0.38534 0.0
C430 C 0.4739 0.69217 0.27577 0.0
C431 C 0.6086 0.63244 0.33821 0.0
H432 H 0.22841 0.59297 0.11525 0.0
H433 H 0.31233 0.60786 0.1971 0.0
H434 H 0.23367 0.58423 0.16872 0.0
H435 H 0.38436 0.6495 0.11754 0.0
H436 H 0.56407 0.54957 0.43165 0.0
H437 H 0.55016 0.56974 0.33942 0.0
H438 H 0.64099 0.64425 0.39402 0.0
H439 H 0.52882 0.53247 0.38282 0.0
H440 H 0.20118 0.93657 0.34003 0.0
H441 H 0.22112 1.00346 0.41744 0.0
H442 H 0.18722 0.05575 0.39042 0.0
H443 H 0.14862 0.08213 0.34553 0.0
H444 H 0.13004 0.01624 0.26769 0.0
H445 H 0.16852 0.96418 0.29388 0.0
C446 C 0.19896 0.96267 0.35092 0.0
C447 C 0.21318 0.96581 0.38093 0.0
C448 C 0.17999 0.99288 0.33512 0.0
C449 C 0.20932 0.99991 0.39462 0.0
C450 C 0.19035 0.02997 0.37912 0.0
C451 C 0.15348 0.05642 0.33424 0.0
C452 C 0.13628 0.05289 0.30482 0.0
C453 C 0.17501 0.02668 0.34949 0.0
C454 C 0.14324 0.01962 0.29032 0.0
C455 C 0.16482 0.98981 0.30536 0.0
H456 H 0.35007 0.5836 0.83472 0.0
H457 H 0.29857 0.51203 0.90454 0.0
H458 H 0.34244 0.46133 0.87996 0.0
H459 H 0.39842 0.43721 0.83966 0.0
H460 H 0.44389 0.50657 0.76763 0.0
H461 H 0.39835 0.55791 0.79166 0.0
C462 C 0.3476 0.55686 0.84438 0.0
C463 C 0.32207 0.55216 0.87197 0.0
C464 C 0.3718 0.52727 0.82968 0.0
C465 C 0.31954 0.51705 0.88396 0.0
C466 C 0.34421 0.48779 0.86976 0.0
C467 C 0.39794 0.46354 0.82916 0.0
C468 C 0.42453 0.46825 0.80205 0.0
C469 C 0.37112 0.49266 0.84287 0.0
C470 C 0.42325 0.50232 0.78845 0.0
C471 C 0.39752 0.53168 0.80226 0.0
H472 H 0.65443 0.58852 0.68856 0.0
H473 H 0.70985 0.51688 0.61974 0.0
H474 H 0.67768 0.46451 0.64767 0.0
H475 H 0.62917 0.43926 0.69052 0.0
H476 H 0.57115 0.51128 0.75846 0.0
H477 H 0.60956 0.56307 0.73239 0.0
C478 C 0.66039 0.56139 0.67997 0.0
C479 C 0.68436 0.55659 0.65211 0.0
C480 C 0.64101 0.53143 0.69595 0.0
C481 C 0.6911 0.52128 0.64105 0.0
C482 C 0.67266 0.49134 0.65698 0.0
C483 C 0.625 0.46631 0.69958 0.0
C484 C 0.59774 0.47136 0.72652 0.0
C485 C 0.64659 0.49612 0.68421 0.0
C486 C 0.59284 0.50655 0.73806 0.0
C487 C 0.61449 0.53625 0.72304 0.0
H488 H 0.85201 0.98879 0.15591 0.0
H489 H 0.98593 0.91437 0.16925 0.0
H490 H 0.03297 0.95854 0.20102 0.0
H491 H 0.03641 0.01874 0.22418 0.0
H492 H 0.9023 0.09329 0.21097 0.0
H493 H 0.85417 0.04859 0.18048 0.0
C494 C 0.89135 0.9824 0.16599 0.0
C495 C 0.91582 0.94869 0.16047 0.0
C496 C 0.9178 1.00782 0.18428 0.0
C497 C 0.96664 0.94029 0.17344 0.0
C498 C 0.99341 0.96549 0.1915 0.0
C499 C 0.99668 0.02516 0.21455 0.0
C500 C 0.97283 0.05919 0.21979 0.0
C501 C 0.96953 0.99941 0.19693 0.0
C502 C 0.92116 0.06711 0.20747 0.0
C503 C 0.89381 0.04165 0.1899 0.0
H504 H 0.8503 0.08882 0.68699 0.0
H505 H 0.81162 0.02086 0.61207 0.0
H506 H 0.8473 0.96846 0.63802 0.0
H507 H 0.89241 0.94183 0.68154 0.0
H508 H 0.92104 0.0085 0.75811 0.0
H509 H 0.88435 0.06108 0.73229 0.0
C510 C 0.84824 0.06257 0.67637 0.0
C511 C 0.82896 0.05947 0.64715 0.0
C512 C 0.86684 0.03203 0.69184 0.0
C513 C 0.82785 0.02482 0.63403 0.0
C514 C 0.84771 0.99453 0.64902 0.0
C515 C 0.88999 0.96782 0.69261 0.0
C516 C 0.90976 0.97136 0.72157 0.0
C517 C 0.86793 0.99788 0.6778 0.0
C518 C 0.90591 1.00505 0.73584 0.0
C519 C 0.88525 0.03519 0.72102 0.0
H520 H 0.68275 0.48493 0.13116 0.0
H521 H 0.6635 0.4084 0.20192 0.0
H522 H 0.62792 0.45623 0.2338 0.0
H523 H 0.59923 0.51956 0.24114 0.0
H524 H 0.6149 0.5953 0.16965 0.0
H525 H 0.65489 0.54814 0.13857 0.0
C526 C 0.6703 0.47862 0.15346 0.0
C527 C 0.6758 0.44306 0.16405 0.0
C528 C 0.64951 0.50622 0.17164 0.0
C529 C 0.66031 0.43558 0.19324 0.0
C530 C 0.63977 0.46291 0.21149 0.0
C531 C 0.61231 0.52582 0.21892 0.0
C532 C 0.60448 0.56087 0.20773 0.0
C533 C 0.63414 0.49833 0.20094 0.0
C534 C 0.6206 0.56848 0.17873 0.0
C535 C 0.64327 0.54152 0.16092 0.0
H536 H 0.33794 0.50592 0.38061 0.0
H537 H 0.44552 0.41998 0.35252 0.0
H538 H 0.4914 0.46098 0.31813 0.0
H539 H 0.50049 0.5212 0.29579 0.0
H540 H 0.38995 0.60657 0.3217 0.0
H541 H 0.34504 0.56598 0.35683 0.0
C542 C 0.37165 0.49641 0.36702 0.0
C543 C 0.38882 0.46021 0.36915 0.0
C544 C 0.39693 0.51995 0.3468 0.0
C545 C 0.43189 0.44783 0.35121 0.0
C546 C 0.45801 0.47122 0.33156 0.0
C547 C 0.46667 0.53086 0.30925 0.0
C548 C 0.44878 0.5668 0.30645 0.0
C549 C 0.44083 0.50729 0.32913 0.0
C550 C 0.40439 0.57895 0.32357 0.0
C551 C 0.37888 0.55581 0.3437 0.0
H552 H 0.11882 0.08754 0.8465 0.0
H553 H 0.23857 0.01844 0.88778 0.0
H554 H 0.20438 0.96642 0.85928 0.0
H555 H 0.13603 0.93995 0.82464 0.0
H556 H 0.01117 0.0089 0.7874 0.0
H557 H 0.05159 0.0615 0.81187 0.0
C558 C 0.13766 0.06111 0.84893 0.0
C559 C 0.18119 0.05666 0.86895 0.0
C560 C 0.11657 0.03127 0.83327 0.0
C561 C 0.20498 0.02231 0.87238 0.0
C562 C 0.18541 0.99265 0.85614 0.0
C563 C 0.11816 0.96659 0.8218 0.0
C564 C 0.07067 0.97062 0.80438 0.0
C565 C 0.14062 0.99666 0.83681 0.0
C566 C 0.04748 1.00515 0.80094 0.0
C567 C 0.0706 0.03525 0.81488 0.0
H568 H 0.11553 0.08915 0.96428 0.0
H569 H 0.27212 0.14096 0.98086 0.0
H570 H 0.25631 0.137 0.03387 0.0
H571 H 0.19994 0.11582 0.0758 0.0
H572 H 0.04463 0.0627 0.05854 0.0
H573 H 0.05843 0.0697 1.00573 0.0
C574 C 0.14648 0.09937 0.97944 0.0
C575 C 0.19516 0.11511 0.96842 0.0
C576 C 0.13745 0.0966 1.00991 0.0
C577 C 0.23407 0.12895 0.98857 0.0
C578 C 0.2252 0.1265 0.01895 0.0
C579 C 0.16884 0.10621 0.06046 0.0
C580 C 0.12149 0.08851 0.07119 0.0
C581 C 0.17725 0.11007 0.02992 0.0
C582 C 0.08181 0.07595 0.05095 0.0
C583 C 0.08959 0.08003 0.0207 0.0
H584 H 0.37174 0.36771 0.48109 0.0
H585 H 0.30346 0.47424 0.46908 0.0
H586 H 0.29991 0.48297 0.52246 0.0
H587 H 0.31435 0.45967 0.57271 0.0
H588 H 0.3871 0.35446 0.58477 0.0
H589 H 0.39104 0.34579 0.53135 0.0
C590 C 0.35615 0.39281 0.49024 0.0
C591 C 0.33758 0.42023 0.47123 0.0
C592 C 0.35503 0.39782 0.52095 0.0
C593 C 0.31815 0.45283 0.48329 0.0
C594 C 0.31594 0.45776 0.51379 0.0
C595 C 0.33106 0.43488 0.56357 0.0
C596 C 0.35007 0.40762 0.58259 0.0
C597 C 0.33395 0.43036 0.53285 0.0
C598 C 0.37237 0.37584 0.57053 0.0
C599 C 0.37444 0.37084 0.54002 0.0
H600 H 0.60365 0.37668 0.07441 0.0
H601 H 0.77427 0.38402 0.04908 0.0
H602 H 0.74868 0.37598 0.99731 0.0
H603 H 0.67774 0.36467 0.95932 0.0
H604 H 0.50789 0.35318 0.98515 0.0
H605 H 0.53285 0.36506 0.0365 0.0
C606 C 0.63503 0.37684 0.05746 0.0
C607 C 0.69069 0.3811 0.06543 0.0
C608 C 0.62009 0.37129 0.02785 0.0
C609 C 0.73117 0.38072 0.04339 0.0
C610 C 0.71654 0.37615 1.01383 0.0
C611 C 0.64629 0.36507 0.97623 0.0
C612 C 0.59109 0.35814 0.96855 0.0
C613 C 0.66117 0.37109 1.0058 0.0
C614 C 0.55069 0.35827 0.99064 0.0
C615 C 0.56493 0.36512 0.01995 0.0
H616 H 0.85069 0.17445 0.54729 0.0
H617 H 0.76073 0.07368 0.54632 0.0
H618 H 0.76408 0.07224 0.4926 0.0
H619 H 0.7922 0.09963 0.44581 0.0
H620 H 0.88588 0.19887 0.44626 0.0
H621 H 0.88188 0.20089 0.50013 0.0
C622 C 0.83178 0.15229 0.53522 0.0
C623 C 0.80539 0.12425 0.55069 0.0
C624 C 0.83466 0.15133 0.50426 0.0
C625 C 0.78154 0.09545 0.53487 0.0
C626 C 0.78331 0.09466 0.50418 0.0
C627 C 0.81155 0.12175 0.45774 0.0
C628 C 0.83895 0.14919 0.44212 0.0
C629 C 0.80969 0.12244 0.48864 0.0
C630 C 0.86469 0.17738 0.45783 0.0
C631 C 0.86223 0.1786 0.4886 0.0
H632 H 0.96425 0.92081 0.06118 0.0
H633 H 0.79456 0.89027 0.04653 0.0
H634 H 0.80689 0.8973 0.99356 0.0
H635 H 0.86484 0.91464 0.95141 0.0
H636 H 0.03335 0.94729 0.96647 0.0
H637 H 0.02218 0.93756 0.01926 0.0
C638 C 0.92974 0.91601 0.04647 0.0
C639 C 0.87849 0.90514 0.05796 0.0
C640 C 0.93685 0.92064 0.01605 0.0
C641 C 0.83466 0.89828 0.03838 0.0
C642 C 0.84156 0.90251 1.00805 0.0
C643 C 0.89925 0.9192 0.96624 0.0
C644 C 0.94981 0.93173 0.95505 0.0
C645 C 0.89238 0.91388 0.99664 0.0
C646 C 0.99386 0.93798 0.97458 0.0
C647 C 0.98755 0.93234 1.00475 0.0
H648 H 0.73702 0.63421 0.53396 0.0
H649 H 0.58028 0.60496 0.57162 0.0
H650 H 0.54064 0.59776 0.52256 0.0
H651 H 0.55174 0.596 0.46909 0.0
H652 H 0.70875 0.62324 0.43071 0.0
H653 H 0.74668 0.63559 0.47965 0.0
C654 C 0.69401 0.62683 0.53131 0.0
C655 C 0.66172 0.61985 0.55634 0.0
C656 C 0.67158 0.62217 0.50289 0.0
C657 C 0.60609 0.61009 0.55266 0.0
C658 C 0.58339 0.60596 0.52462 0.0
C659 C 0.59431 0.60457 0.47141 0.0
C660 C 0.6274 0.60835 0.44623 0.0
C661 C 0.61602 0.61117 0.4996 0.0
C662 C 0.68217 0.62028 0.44966 0.0
C663 C 0.70403 0.62716 0.47769 0.0
H664 H 0.30702 0.66407 0.97689 0.0
H665 H 0.25155 0.5534 0.96942 0.0
H666 H 0.25503 0.54683 0.02275 0.0
H667 H 0.27559 0.57178 0.07143 0.0
H668 H 0.33117 0.6823 0.07981 0.0
H669 H 0.3265 0.68955 0.02636 0.0
C670 C 0.29529 0.63868 0.98703 0.0
C671 C 0.27932 0.60922 0.9692 0.0
C672 C 0.29781 0.63493 0.01786 0.0
C673 C 0.26464 0.57635 0.98262 0.0
C674 C 0.26647 0.57257 1.01312 0.0
C675 C 0.28614 0.5976 0.06163 0.0
C676 C 0.30355 0.62645 0.07967 0.0
C677 C 0.28329 0.60157 0.03095 0.0
C678 C 0.31814 0.6595 0.06646 0.0
C679 C 0.31516 0.66374 0.03588 0.0
H680 H 0.12693 0.90082 0.4641 0.0
H681 H 0.29464 0.88519 0.49267 0.0
H682 H 0.26301 0.87357 0.54288 0.0
H683 H 0.18704 0.8654 0.57828 0.0
H684 H 0.01919 0.8776 0.54884 0.0
H685 H 0.05122 0.89328 0.49948 0.0
C686 C 0.15649 0.89528 0.48144 0.0
C687 C 0.21299 0.89397 0.4748 0.0
C688 C 0.1379 0.8879 0.51007 0.0
C689 C 0.25091 0.88618 0.4973 0.0
C690 C 0.23285 0.8796 0.52599 0.0
C691 C 0.15767 0.87187 0.56106 0.0
C692 C 0.10093 0.87042 0.56707 0.0
C693 C 0.1764 0.88004 0.53258 0.0
C694 C 0.06309 0.87839 0.54459 0.0
C695 C 0.08137 0.88737 0.51642 0.0
H696 H 0.27166 0.24911 0.38677 0.0
H697 H 0.25717 0.33674 0.32494 0.0
H698 H 0.19293 0.3008 0.29501 0.0
H699 H 0.13927 0.24479 0.28721 0.0
H700 H 0.15676 0.15651 0.34831 0.0
H701 H 0.22057 0.19248 0.37804 0.0
C702 C 0.25434 0.26028 0.36675 0.0
C703 C 0.26848 0.2956 0.35817 0.0
C704 C 0.2178 0.23941 0.34965 0.0
C705 C 0.2463 0.30968 0.33203 0.0
C706 C 0.2097 0.28916 0.31496 0.0
C707 C 0.15774 0.2333 0.30678 0.0
C708 C 0.14371 0.19796 0.31537 0.0
C709 C 0.19497 0.25403 0.32362 0.0
C710 C 0.16674 0.18372 0.34125 0.0
C711 C 0.20344 0.20421 0.35822 0.0
H712 H 0.41917 0.18994 0.85305 0.0
H713 H 0.26188 0.24263 0.86202 0.0
H714 H 0.29659 0.29503 0.83473 0.0
H715 H 0.37413 0.32747 0.81077 0.0
H716 H 0.53189 0.27461 0.80393 0.0
H717 H 0.49477 0.22096 0.82791 0.0
C718 C 0.39228 0.21271 0.84865 0.0
C719 C 0.33777 0.21196 0.85901 0.0
C720 C 0.41283 0.24295 0.83353 0.0
C721 C 0.30371 0.24208 0.85383 0.0
C722 C 0.32366 0.27218 0.83834 0.0
C723 C 0.39998 0.30395 0.81415 0.0
C724 C 0.45568 0.30502 0.80556 0.0
C725 C 0.37842 0.27311 0.82835 0.0
C726 C 0.48899 0.27458 0.81049 0.0
C727 C 0.46779 0.24383 0.82418 0.0
H728 H 0.74376 0.21223 0.71192 0.0
H729 H 0.74519 0.26975 0.62963 0.0
H730 H 0.68794 0.31755 0.65101 0.0
H731 H 0.63798 0.34301 0.69314 0.0
H732 H 0.63392 0.2847 0.77519 0.0
H733 H 0.69267 0.23762 0.75418 0.0
C734 C 0.73158 0.23535 0.6988 0.0
C735 C 0.74926 0.2379 0.66943 0.0
C736 C 0.69864 0.26265 0.71127 0.0
C737 C 0.73257 0.26757 0.6524 0.0
C738 C 0.69992 0.29484 0.66462 0.0
C739 C 0.64988 0.31997 0.70643 0.0
C740 C 0.63148 0.31739 0.7357 0.0
C741 C 0.68286 0.29272 0.69405 0.0
C742 C 0.64772 0.2875 0.75267 0.0
C743 C 0.68106 0.26044 0.74061 0.0
H744 H 0.85953 0.32681 0.20943 0.0
H745 H 0.90717 0.29116 0.12285 0.0
H746 H 0.95522 0.23916 0.14406 0.0
H747 H 0.98486 0.20459 0.1872 0.0
H748 H 0.93649 0.23985 0.27406 0.0
H749 H 0.88762 0.29117 0.25279 0.0
C750 C 0.88064 0.30761 0.19534 0.0
C751 C 0.88083 0.313 0.16474 0.0
C752 C 0.90802 0.27779 0.20771 0.0
C753 C 0.9073 0.28774 0.14651 0.0
C754 C 0.93465 0.25805 0.15863 0.0
C755 C 0.9637 0.22345 0.20156 0.0
C756 C 0.96473 0.21832 0.23225 0.0
C757 C 0.93558 0.25293 0.1892 0.0
C758 C 0.93662 0.24304 0.25038 0.0
C759 C 0.90861 0.27248 0.23824 0.0
H760 H 0.84397 0.70754 0.6618 0.0
H761 H 0.69452 0.76795 0.67631 0.0
H762 H 0.74698 0.81601 0.70062 0.0
H763 H 0.83468 0.84091 0.71778 0.0
H764 H 0.98479 0.78094 0.70427 0.0
H765 H 0.93298 0.7332 0.67884 0.0
C766 C 0.82296 0.73139 0.66994 0.0
C767 C 0.7653 0.73446 0.66675 0.0
C768 C 0.85355 0.75912 0.68391 0.0
C769 C 0.73886 0.76527 0.67808 0.0
C770 C 0.76879 0.7927 0.69203 0.0
C771 C 0.85617 0.81736 0.70936 0.0
C772 C 0.91362 0.81462 0.71289 0.0
C773 C 0.82608 0.78993 0.69508 0.0
C774 C 0.94071 0.78403 0.70154 0.0
C775 C 0.91101 0.75657 0.68717 0.0
H776 H 0.63921 0.82871 0.15434 0.0
H777 H 0.80021 0.78624 0.17472 0.0
H778 H 0.75823 0.73257 0.1965 0.0
H779 H 0.67579 0.69808 0.21041 0.0
H780 H 0.5146 0.7425 0.19322 0.0
H781 H 0.55658 0.79441 0.16882 0.0
C782 C 0.665 0.80748 0.16333 0.0
C783 C 0.72263 0.81113 0.16223 0.0
C784 C 0.64058 0.77699 0.17634 0.0
C785 C 0.75574 0.78388 0.17462 0.0
C786 C 0.73175 0.7532 0.18724 0.0
C787 C 0.64979 0.71931 0.2017 0.0
C788 C 0.59211 0.71656 0.20412 0.0
C789 C 0.67423 0.74956 0.18834 0.0
C790 C 0.5591 0.74381 0.19172 0.0
C791 C 0.58308 0.77365 0.17789 0.0
H792 H 0.31346 0.81593 0.31772 0.0
H793 H 0.3579 0.77355 0.40266 0.0
H794 H 0.42285 0.73149 0.37949 0.0
H795 H 0.46208 0.7042 0.33471 0.0
H796 H 0.41509 0.74609 0.24969 0.0
H797 H 0.35626 0.79091 0.27321 0.0
C798 C 0.33764 0.79756 0.33108 0.0
C799 C 0.33052 0.79726 0.36172 0.0
C800 C 0.37422 0.7733 0.31759 0.0
C801 C 0.36248 0.7738 0.37896 0.0
C802 C 0.39947 0.74982 0.36573 0.0
C803 C 0.43953 0.72341 0.32133 0.0
C804 C 0.4428 0.72155 0.29046 0.0
C805 C 0.40501 0.74892 0.335 0.0
C806 C 0.41305 0.74663 0.27349 0.0
C807 C 0.37933 0.77233 0.28691 0.0
H808 H 0.16268 0.68709 0.81329 0.0
H809 H 0.12874 0.72508 0.90104 0.0
H810 H 0.0895 0.78103 0.88118 0.0
H811 H 0.06101 0.81779 0.83868 0.0
H812 H 0.09528 0.77941 0.75079 0.0
H813 H 0.13803 0.72515 0.77082 0.0
C814 C 0.14685 0.70776 0.82798 0.0
C815 C 0.14761 0.70183 0.85851 0.0
C816 C 0.12412 0.73969 0.81637 0.0
C817 C 0.12785 0.72896 0.87743 0.0
C818 C 0.10538 0.76086 0.86608 0.0
C819 C 0.07791 0.79762 0.82388 0.0
C820 C 0.07459 0.80277 0.79322 0.0
C821 C 0.10254 0.7663 0.83555 0.0
C822 C 0.09718 0.77634 0.77446 0.0
C823 C 0.12163 0.74518 0.78589 0.0
loop_
_geom_bond_atom_site_label_1
_geom_bond_atom_site_label_2
_geom_bond_distance
_geom_bond_site_symmetry_2
_ccdc_geom_bond_type
H0 C7 0.929 . S
H1 C10 0.930 . S
H2 C12 0.929 . S
H3 C4 0.969 . S
C4 H3 0.969 . S
C4 O5 1.550 . S
C4 H6 0.973 . S
O5 C4 1.550 . S
O5 C11 1.412 . S
H6 C4 0.973 . S
C7 H0 0.929 . S
C7 C8 1.400 . S
C7 C9 1.364 . S
C8 C7 1.400 . S
C8 C12 1.377 . S
C9 C7 1.364 . S
C9 C10 1.374 . S
C10 H1 0.930 . S
C10 C9 1.374 . S
C10 C11 1.383 . S
C11 O5 1.412 . S
C11 C10 1.383 . S
C11 C12 1.394 . S
C12 H2 0.929 . S
C12 C8 1.377 . S
C12 C11 1.394 . S
H13 C20 0.929 . S
H14 C23 0.930 . S
H15 C25 0.929 . S
H16 C17 0.969 . S
C17 H16 0.969 . S
C17 O18 1.550 . S
C17 H19 0.973 . S
O18 C17 1.550 . S
O18 C24 1.412 . S
H19 C17 0.973 . S
C20 H13 0.929 . S
C20 C21 1.400 . S
C20 C22 1.364 . S
C21 C20 1.400 . S
C21 C25 1.377 . S
C22 C20 1.364 . S
C22 C23 1.374 . S
C23 H14 0.930 . S
C23 C22 1.374 . S
C23 C24 1.383 . S
C24 O18 1.412 . S
C24 C23 1.383 . S
C24 C25 1.394 . S
C25 H15 0.929 . S
C25 C21 1.377 . S
C25 C24 1.394 . S
H26 C33 0.929 . S
H27 C36 0.930 . S
H28 C38 0.929 . S
H29 C30 0.969 . S
C30 H29 0.969 . S
C30 O31 1.550 . S
C30 H32 0.973 . S
O31 C30 1.550 . S
O31 C37 1.412 . S
H32 C30 0.973 . S
C33 H26 0.929 . S
C33 C34 1.400 . S
C33 C35 1.364 . S
C34 C33 1.400 . S
C34 C38 1.377 . S
C35 C33 1.364 . S
C35 C36 1.374 . S
C36 H27 0.930 . S
C36 C35 1.374 . S
C36 C37 1.383 . S
C37 O31 1.412 . S
C37 C36 1.383 . S
C37 C38 1.394 . S
C38 H28 0.929 . S
C38 C34 1.377 . S
C38 C37 1.394 . S
H39 C46 0.929 . S
H40 C49 0.930 . S
H41 C51 0.929 . S
H42 C43 0.969 . S
C43 H42 0.969 . S
C43 O44 1.550 . S
C43 H45 0.973 . S
O44 C43 1.550 . S
O44 C50 1.412 . S
H45 C43 0.973 . S
C46 H39 0.929 . S
C46 C47 1.400 . S
C46 C48 1.364 . S
C47 C46 1.400 . S
C47 C51 1.377 . S
C48 C46 1.364 . S
C48 C49 1.374 . S
C49 H40 0.930 . S
C49 C48 1.374 . S
C49 C50 1.383 . S
C50 O44 1.412 . S
C50 C49 1.383 . S
C50 C51 1.394 . S
C51 H41 0.929 . S
C51 C47 1.377 . S
C51 C50 1.394 . S
H52 C59 0.929 . S
H53 C62 0.930 . S
H54 C64 0.929 . S
H55 C56 0.969 . S
C56 H55 0.969 . S
C56 O57 1.550 . S
C56 H58 0.973 . S
O57 C56 1.550 . S
O57 C63 1.412 . S
H58 C56 0.973 . S
C59 H52 0.929 . S
C59 C60 1.400 . S
C59 C61 1.364 . S
C60 C59 1.400 . S
C60 C64 1.377 . S
C61 C59 1.364 . S
C61 C62 1.374 . S
C62 H53 0.930 . S
C62 C61 1.374 . S
C62 C63 1.383 . S
C63 O57 1.412 . S
C63 C62 1.383 . S
C63 C64 1.394 . S
C64 H54 0.929 . S
C64 C60 1.377 . S
C64 C63 1.394 . S
H65 C72 0.929 . S
H66 C75 0.930 . S
H67 C77 0.929 . S
H68 C69 0.969 . S
C69 H68 0.969 . S
C69 O70 1.550 . S
C69 H71 0.973 . S
O70 C69 1.550 . S
O70 C76 1.412 . S
H71 C69 0.973 . S
C72 H65 0.929 . S
C72 C73 1.400 . S
C72 C74 1.364 . S
C73 C72 1.400 . S
C73 C77 1.377 . S
C74 C72 1.364 . S
C74 C75 1.374 . S
C75 H66 0.930 . S
C75 C74 1.374 . S
C75 C76 1.383 . S
C76 O70 1.412 . S
C76 C75 1.383 . S
C76 C77 1.394 . S
C77 H67 0.929 . S
C77 C73 1.377 . S
C77 C76 1.394 . S
H78 C85 0.929 . S
H79 C88 0.930 . S
H80 C90 0.929 . S
H81 C82 0.969 . S
C82 H81 0.969 . S
C82 O83 1.550 . S
C82 H84 0.973 . S
O83 C82 1.550 . S
O83 C89 1.412 . S
H84 C82 0.973 . S
C85 H78 0.929 . S
C85 C86 1.400 . S
C85 C87 1.364 . S
C86 C85 1.400 . S
C86 C90 1.377 . S
C87 C85 1.364 . S
C87 C88 1.374 . S
C88 H79 0.930 . S
C88 C87 1.374 . S
C88 C89 1.383 . S
C89 O83 1.412 . S
C89 C88 1.383 . S
C89 C90 1.394 . S
C90 H80 0.929 . S
C90 C86 1.377 . S
C90 C89 1.394 . S
H91 C98 0.929 . S
H92 C101 0.930 . S
H93 C103 0.929 . S
H94 C95 0.969 . S
C95 H94 0.969 . S
C95 O96 1.550 . S
C95 H97 0.973 . S
O96 C95 1.550 . S
O96 C102 1.412 . S
H97 C95 0.973 . S
C98 H91 0.929 . S
C98 C99 1.400 . S
C98 C100 1.364 . S
C99 C98 1.400 . S
C99 C103 1.377 . S
C100 C98 1.364 . S
C100 C101 1.374 . S
C101 H92 0.930 . S
C101 C100 1.374 . S
C101 C102 1.383 . S
C102 O96 1.412 . S
C102 C101 1.383 . S
C102 C103 1.394 . S
C103 H93 0.929 . S
C103 C99 1.377 . S
C103 C102 1.394 . S
Eu104 N133 2.600 . S
Eu104 N139 2.562 . S
Eu104 O148 2.462 . S
Eu104 O149 2.373 . S
Eu104 O151 2.432 . S
Eu104 O152 2.291 . S
Eu104 O156 2.335 . S
Eu104 O159 2.372 . S
Eu104 C168 2.787 . S
C105 N106 1.365 . S
C105 C108 1.405 . S
C105 C112 1.448 . S
N106 C105 1.365 . S
N106 C109 1.319 . S
N106 Eu115 2.600 . S
C107 C109 1.397 . S
C107 C110 1.367 . S
C107 H127 0.931 . S
C108 C105 1.405 . S
C108 C110 1.403 . S
C108 C114 1.439 . S
C109 N106 1.319 . S
C109 C107 1.397 . S
C109 H120 0.930 . S
C110 C107 1.367 . S
C110 C108 1.403 . S
C110 H131 0.929 . S
C111 C112 1.430 . S
C111 C113 1.387 . S
C111 C117 1.404 1_545 S
C112 C105 1.448 . S
C112 C111 1.430 . S
C112 N116 1.351 . S
C113 C111 1.387 . S
C113 C114 1.374 . S
C113 H128 0.931 1_545 S
C114 C108 1.439 . S
C114 C113 1.374 . S
C114 H129 0.931 . S
Eu115 N106 2.600 . S
Eu115 N116 2.562 . S
Eu115 O150 2.335 1_655 S
Eu115 O153 2.372 . S
Eu115 O154 2.462 . S
Eu115 O155 2.373 . S
Eu115 O157 2.432 . S
Eu115 O158 2.291 1_655 S
Eu115 C179 2.787 . S
N116 C112 1.351 . S
N116 Eu115 2.562 . S
N116 C118 1.325 . S
C117 C111 1.404 1_565 S
C117 C119 1.366 . S
C117 H125 0.930 . S
C118 N116 1.325 . S
C118 C119 1.416 1_545 S
C118 H124 0.929 . S
C119 C117 1.366 . S
C119 C118 1.416 1_565 S
C119 H121 0.930 . S
H120 C109 0.930 . S
H121 C119 0.930 . S
H122 C137 0.930 . S
H123 C144 0.930 . S
H124 C118 0.929 . S
H125 C117 0.930 . S
H126 C140 0.929 . S
H127 C107 0.931 . S
H128 C113 0.931 1_565 S
H129 C114 0.931 . S
H130 C135 0.931 . S
H131 C110 0.929 . S
H132 C143 0.930 . S
N133 Eu104 2.600 . S
N133 C134 1.365 . S
N133 C137 1.319 . S
C134 N133 1.365 . S
C134 C136 1.405 . S
C134 C142 1.448 . S
C135 H130 0.931 . S
C135 C137 1.397 . S
C135 C138 1.367 . S
C136 C134 1.405 . S
C136 C138 1.403 . S
C136 C169 1.439 . S
C137 H122 0.930 . S
C137 N133 1.319 . S
C137 C135 1.397 . S
C138 C135 1.367 . S
C138 C136 1.403 . S
C138 H145 0.929 . S
N139 Eu104 2.562 . S
N139 C140 1.325 . S
N139 C142 1.351 . S
C140 H126 0.929 . S
C140 N139 1.325 . S
C140 C144 1.416 . S
C141 C142 1.430 . S
C141 C143 1.404 . S
C141 C170 1.387 . S
C142 C134 1.448 . S
C142 N139 1.351 . S
C142 C141 1.430 . S
C143 H132 0.930 . S
C143 C141 1.404 . S
C143 C144 1.366 . S
C144 H123 0.930 . S
C144 C140 1.416 . S
C144 C143 1.366 . S
H145 C138 0.929 . S
H146 C169 0.931 . S
H147 C170 0.931 . S
O148 Eu104 2.462 . S
O148 C168 1.252 . S
O149 Eu104 2.373 . S
O149 C160 1.249 . S
O150 Eu115 2.335 1_455 S
O150 C160 1.264 . S
O151 Eu104 2.432 . S
O151 C168 1.268 . S
O152 Eu104 2.291 . S
O152 C167 1.255 1_455 S
O153 Eu115 2.372 . S
O153 C167 1.257 . S
O154 Eu115 2.462 . S
O154 C179 1.252 . S
O155 Eu115 2.373 . S
O155 C171 1.249 . S
O156 Eu104 2.335 . S
O156 C171 1.264 1_455 S
O157 Eu115 2.432 . S
O157 C179 1.268 . S
O158 Eu115 2.291 1_455 S
O158 C178 1.255 . S
O159 Eu104 2.372 . S
O159 C178 1.257 . S
C160 O149 1.249 . S
C160 O150 1.264 . S
C161 C164 1.382 . S
C161 C166 1.390 . S
C161 C168 1.506 . S
C162 C163 1.398 . S
C162 C166 1.392 . S
C163 C162 1.398 . S
C163 C165 1.372 . S
C163 H180 0.931 . S
C164 C161 1.382 . S
C164 C165 1.390 . S
C164 H181 0.931 . S
C165 C163 1.372 . S
C165 C164 1.390 . S
C165 H182 0.929 . S
C166 C161 1.390 . S
C166 C162 1.392 . S
C166 H183 0.930 . S
C167 O152 1.255 1_655 S
C167 O153 1.257 . S
C168 Eu104 2.787 . S
C168 O148 1.252 . S
C168 O151 1.268 . S
C168 C161 1.506 . S
C169 C136 1.439 . S
C169 H146 0.931 . S
C169 C170 1.374 . S
C170 C141 1.387 . S
C170 H147 0.931 . S
C170 C169 1.374 . S
C171 O155 1.249 . S
C171 O156 1.264 1_655 S
C172 C175 1.382 . S
C172 C176 1.390 . S
C172 C179 1.506 . S
C173 C174 1.398 . S
C173 C176 1.392 . S
C174 C173 1.398 . S
C174 C177 1.372 . S
C174 H184 0.931 . S
C175 C172 1.382 . S
C175 C177 1.390 . S
C175 H185 0.931 . S
C176 C172 1.390 . S
C176 C173 1.392 . S
C176 H186 0.930 . S
C177 C174 1.372 . S
C177 C175 1.390 . S
C177 H187 0.929 . S
C178 O158 1.255 . S
C178 O159 1.257 . S
C179 Eu115 2.787 . S
C179 O154 1.252 . S
C179 O157 1.268 . S
C179 C172 1.506 . S
H180 C163 0.931 . S
H181 C164 0.931 . S
H182 C165 0.929 . S
H183 C166 0.930 . S
H184 C174 0.931 . S
H185 C175 0.931 . S
H186 C176 0.930 . S
H187 C177 0.929 . S
Eu188 N217 2.600 . S
Eu188 N223 2.562 . S
Eu188 O232 2.462 . S
Eu188 O233 2.373 . S
Eu188 O235 2.432 . S
Eu188 O236 2.291 . S
Eu188 O240 2.335 . S
Eu188 O243 2.372 . S
Eu188 C252 2.787 . S
C189 N190 1.365 . S
C189 C192 1.405 . S
C189 C196 1.448 . S
N190 C189 1.365 . S
N190 C193 1.319 . S
N190 Eu199 2.600 . S
C191 C193 1.397 . S
C191 C194 1.367 . S
C191 H211 0.931 . S
C192 C189 1.405 . S
C192 C194 1.403 . S
C192 C198 1.439 . S
C193 N190 1.319 . S
C193 C191 1.397 . S
C193 H204 0.930 . S
C194 C191 1.367 . S
C194 C192 1.403 . S
C194 H215 0.929 . S
C195 C196 1.430 . S
C195 C197 1.387 . S
C195 C201 1.404 . S
C196 C189 1.448 . S
C196 C195 1.430 . S
C196 N200 1.351 . S
C197 C195 1.387 . S
C197 C198 1.374 . S
C197 H212 0.931 . S
C198 C192 1.439 . S
C198 C197 1.374 . S
C198 H213 0.931 . S
Eu199 N190 2.600 . S
Eu199 N200 2.562 . S
Eu199 O234 2.335 . S
Eu199 O237 2.372 . S
Eu199 O238 2.462 . S
Eu199 O239 2.373 . S
Eu199 O241 2.432 . S
Eu199 O242 2.291 . S
Eu199 C263 2.787 . S
N200 C196 1.351 . S
N200 Eu199 2.562 . S
N200 C202 1.325 . S
C201 C195 1.404 . S
C201 C203 1.366 . S
C201 H209 0.930 . S
C202 N200 1.325 . S
C202 C203 1.416 . S
C202 H208 0.929 . S
C203 C201 1.366 . S
C203 C202 1.416 . S
C203 H205 0.930 . S
H204 C193 0.930 . S
H205 C203 0.930 . S
H206 C221 0.930 . S
H207 C228 0.930 . S
H208 C202 0.929 . S
H209 C201 0.930 . S
H210 C224 0.929 . S
H211 C191 0.931 . S
H212 C197 0.931 . S
H213 C198 0.931 . S
H214 C219 0.931 . S
H215 C194 0.929 . S
H216 C227 0.930 . S
N217 Eu188 2.600 . S
N217 C218 1.365 . S
N217 C221 1.319 . S
C218 N217 1.365 . S
C218 C220 1.405 . S
C218 C226 1.448 . S
C219 H214 0.931 . S
C219 C221 1.397 . S
C219 C222 1.367 . S
C220 C218 1.405 . S
C220 C222 1.403 . S
C220 C253 1.439 . S
C221 H206 0.930 . S
C221 N217 1.319 . S
C221 C219 1.397 . S
C222 C219 1.367 . S
C222 C220 1.403 . S
C222 H229 0.929 . S
N223 Eu188 2.562 . S
N223 C224 1.325 . S
N223 C226 1.351 . S
C224 H210 0.929 . S
C224 N223 1.325 . S
C224 C228 1.416 . S
C225 C226 1.430 . S
C225 C227 1.404 . S
C225 C254 1.387 . S
C226 C218 1.448 . S
C226 N223 1.351 . S
C226 C225 1.430 . S
C227 H216 0.930 . S
C227 C225 1.404 . S
C227 C228 1.366 . S
C228 H207 0.930 . S
C228 C224 1.416 . S
C228 C227 1.366 . S
H229 C222 0.929 . S
H230 C253 0.931 . S
H231 C254 0.931 . S
O232 Eu188 2.462 . S
O232 C252 1.252 . S
O233 Eu188 2.373 . S
O233 C244 1.249 . S
O234 Eu199 2.335 . S
O234 C244 1.264 . S
O235 Eu188 2.432 . S
O235 C252 1.268 . S
O236 Eu188 2.291 . S
O236 C251 1.255 . S
O237 Eu199 2.372 . S
O237 C251 1.257 . S
O238 Eu199 2.462 . S
O238 C263 1.252 . S
O239 Eu199 2.373 . S
O239 C255 1.249 . S
O240 Eu188 2.335 . S
O240 C255 1.264 . S
O241 Eu199 2.432 . S
O241 C263 1.268 . S
O242 Eu199 2.291 . S
O242 C262 1.255 . S
O243 Eu188 2.372 . S
O243 C262 1.257 . S
C244 O233 1.249 . S
C244 O234 1.264 . S
C245 C248 1.382 . S
C245 C250 1.390 . S
C245 C252 1.506 . S
C246 C247 1.398 . S
C246 C250 1.392 . S
C247 C246 1.398 . S
C247 C249 1.372 . S
C247 H264 0.931 . S
C248 C245 1.382 . S
C248 C249 1.390 . S
C248 H265 0.931 . S
C249 C247 1.372 . S
C249 C248 1.390 . S
C249 H266 0.929 . S
C250 C245 1.390 . S
C250 C246 1.392 . S
C250 H267 0.930 . S
C251 O236 1.255 . S
C251 O237 1.257 . S
C252 Eu188 2.787 . S
C252 O232 1.252 . S
C252 O235 1.268 . S
C252 C245 1.506 . S
C253 C220 1.439 . S
C253 H230 0.931 . S
C253 C254 1.374 . S
C254 C225 1.387 . S
C254 H231 0.931 . S
C254 C253 1.374 . S
C255 O239 1.249 . S
C255 O240 1.264 . S
C256 C259 1.382 . S
C256 C260 1.390 . S
C256 C263 1.506 . S
C257 C258 1.398 . S
C257 C260 1.392 . S
C258 C257 1.398 . S
C258 C261 1.372 . S
C258 H268 0.931 . S
C259 C256 1.382 . S
C259 C261 1.390 . S
C259 H269 0.931 . S
C260 C256 1.390 . S
C260 C257 1.392 . S
C260 H270 0.930 . S
C261 C258 1.372 . S
C261 C259 1.390 . S
C261 H271 0.929 . S
C262 O242 1.255 . S
C262 O243 1.257 . S
C263 Eu199 2.787 . S
C263 O238 1.252 . S
C263 O241 1.268 . S
C263 C256 1.506 . S
H264 C247 0.931 . S
H265 C248 0.931 . S
H266 C249 0.929 . S
H267 C250 0.930 . S
H268 C258 0.931 . S
H269 C259 0.931 . S
H270 C260 0.930 . S
H271 C261 0.929 . S
Eu272 N301 2.600 . S
Eu272 N307 2.562 . S
Eu272 O316 2.462 . S
Eu272 O317 2.373 . S
Eu272 O319 2.432 . S
Eu272 O320 2.291 . S
Eu272 O324 2.335 . S
Eu272 O327 2.372 . S
Eu272 C336 2.787 . S
C273 N274 1.365 . S
C273 C276 1.405 . S
C273 C280 1.448 . S
N274 C273 1.365 . S
N274 C277 1.319 . S
N274 Eu283 2.600 . S
C275 C277 1.397 . S
C275 C278 1.367 . S
C275 H295 0.931 . S
C276 C273 1.405 . S
C276 C278 1.403 . S
C276 C282 1.439 . S
C277 N274 1.319 . S
C277 C275 1.397 . S
C277 H288 0.930 . S
C278 C275 1.367 . S
C278 C276 1.403 . S
C278 H299 0.929 . S
C279 C280 1.430 . S
C279 C281 1.387 . S
C279 C285 1.404 . S
C280 C273 1.448 . S
C280 C279 1.430 . S
C280 N284 1.351 . S
C281 C279 1.387 . S
C281 C282 1.374 . S
C281 H296 0.931 . S
C282 C276 1.439 . S
C282 C281 1.374 . S
C282 H297 0.931 . S
Eu283 N274 2.600 . S
Eu283 N284 2.562 . S
Eu283 O318 2.335 1_655 S
Eu283 O321 2.372 . S
Eu283 O322 2.462 . S
Eu283 O323 2.373 . S
Eu283 O325 2.432 . S
Eu283 O326 2.291 1_655 S
Eu283 C347 2.787 . S
N284 C280 1.351 . S
N284 Eu283 2.562 . S
N284 C286 1.325 . S
C285 C279 1.404 . S
C285 C287 1.366 . S
C285 H293 0.930 . S
C286 N284 1.325 . S
C286 C287 1.416 . S
C286 H292 0.929 . S
C287 C285 1.366 . S
C287 C286 1.416 . S
C287 H289 0.930 . S
H288 C277 0.930 . S
H289 C287 0.930 . S
H290 C305 0.930 . S
H291 C312 0.930 . S
H292 C286 0.929 . S
H293 C285 0.930 . S
H294 C308 0.929 . S
H295 C275 0.931 . S
H296 C281 0.931 . S
H297 C282 0.931 . S
H298 C303 0.931 . S
H299 C278 0.929 . S
H300 C311 0.930 . S
N301 Eu272 2.600 . S
N301 C302 1.365 . S
N301 C305 1.319 . S
C302 N301 1.365 . S
C302 C304 1.405 . S
C302 C310 1.448 . S
C303 H298 0.931 . S
C303 C305 1.397 . S
C303 C306 1.367 . S
C304 C302 1.405 . S
C304 C306 1.403 . S
C304 C337 1.439 . S
C305 H290 0.930 . S
C305 N301 1.319 . S
C305 C303 1.397 . S
C306 C303 1.367 . S
C306 C304 1.403 . S
C306 H313 0.929 . S
N307 Eu272 2.562 . S
N307 C308 1.325 . S
N307 C310 1.351 . S
C308 H294 0.929 . S
C308 N307 1.325 . S
C308 C312 1.416 1_565 S
C309 C310 1.430 . S
C309 C311 1.404 1_565 S
C309 C338 1.387 . S
C310 C302 1.448 . S
C310 N307 1.351 . S
C310 C309 1.430 . S
C311 H300 0.930 . S
C311 C309 1.404 1_545 S
C311 C312 1.366 . S
C312 H291 0.930 . S
C312 C308 1.416 1_545 S
C312 C311 1.366 . S
H313 C306 0.929 . S
H314 C337 0.931 . S
H315 C338 0.931 1_545 S
O316 Eu272 2.462 . S
O316 C336 1.252 . S
O317 Eu272 2.373 . S
O317 C328 1.249 . S
O318 Eu283 2.335 1_455 S
O318 C328 1.264 . S
O319 Eu272 2.432 . S
O319 C336 1.268 . S
O320 Eu272 2.291 . S
O320 C335 1.255 1_455 S
O321 Eu283 2.372 . S
O321 C335 1.257 . S
O322 Eu283 2.462 . S
O322 C347 1.252 . S
O323 Eu283 2.373 . S
O323 C339 1.249 . S
O324 Eu272 2.335 . S
O324 C339 1.264 1_455 S
O325 Eu283 2.432 . S
O325 C347 1.268 . S
O326 Eu283 2.291 1_455 S
O326 C346 1.255 . S
O327 Eu272 2.372 . S
O327 C346 1.257 . S
C328 O317 1.249 . S
C328 O318 1.264 . S
C329 C332 1.382 . S
C329 C334 1.390 . S
C329 C336 1.506 . S
C330 C331 1.398 . S
C330 C334 1.392 . S
C331 C330 1.398 . S
C331 C333 1.372 . S
C331 H348 0.931 . S
C332 C329 1.382 . S
C332 C333 1.390 . S
C332 H349 0.931 . S
C333 C331 1.372 . S
C333 C332 1.390 . S
C333 H350 0.929 . S
C334 C329 1.390 . S
C334 C330 1.392 . S
C334 H351 0.930 . S
C335 O320 1.255 1_655 S
C335 O321 1.257 . S
C336 Eu272 2.787 . S
C336 O316 1.252 . S
C336 O319 1.268 . S
C336 C329 1.506 . S
C337 C304 1.439 . S
C337 H314 0.931 . S
C337 C338 1.374 . S
C338 C309 1.387 . S
C338 H315 0.931 1_565 S
C338 C337 1.374 . S
C339 O323 1.249 . S
C339 O324 1.264 1_655 S
C340 C343 1.382 . S
C340 C344 1.390 . S
C340 C347 1.506 . S
C341 C342 1.398 . S
C341 C344 1.392 . S
C342 C341 1.398 . S
C342 C345 1.372 . S
C342 H352 0.931 . S
C343 C340 1.382 . S
C343 C345 1.390 . S
C343 H353 0.931 . S
C344 C340 1.390 . S
C344 C341 1.392 . S
C344 H354 0.930 . S
C345 C342 1.372 . S
C345 C343 1.390 . S
C345 H355 0.929 . S
C346 O326 1.255 . S
C346 O327 1.257 . S
C347 Eu283 2.787 . S
C347 O322 1.252 . S
C347 O325 1.268 . S
C347 C340 1.506 . S
H348 C331 0.931 . S
H349 C332 0.931 . S
H350 C333 0.929 . S
H351 C334 0.930 . S
H352 C342 0.931 . S
H353 C343 0.931 . S
H354 C344 0.930 . S
H355 C345 0.929 . S
Eu356 N385 2.600 . S
Eu356 N391 2.562 . S
Eu356 O400 2.462 . S
Eu356 O401 2.373 . S
Eu356 O403 2.432 . S
Eu356 O404 2.291 . S
Eu356 O408 2.335 . S
Eu356 O411 2.372 . S
Eu356 C420 2.787 . S
C357 N358 1.365 . S
C357 C360 1.405 . S
C357 C364 1.448 . S
N358 C357 1.365 . S
N358 C361 1.319 . S
N358 Eu367 2.600 . S
C359 C361 1.397 . S
C359 C362 1.367 . S
C359 H379 0.931 . S
C360 C357 1.405 . S
C360 C362 1.403 . S
C360 C366 1.439 . S
C361 N358 1.319 . S
C361 C359 1.397 . S
C361 H372 0.930 . S
C362 C359 1.367 . S
C362 C360 1.403 . S
C362 H383 0.929 . S
C363 C364 1.430 . S
C363 C365 1.387 . S
C363 C369 1.404 . S
C364 C357 1.448 . S
C364 C363 1.430 . S
C364 N368 1.351 . S
C365 C363 1.387 . S
C365 C366 1.374 . S
C365 H380 0.931 . S
C366 C360 1.439 . S
C366 C365 1.374 . S
C366 H381 0.931 . S
Eu367 N358 2.600 . S
Eu367 N368 2.562 . S
Eu367 O402 2.335 . S
Eu367 O405 2.372 . S
Eu367 O406 2.462 . S
Eu367 O407 2.373 . S
Eu367 O409 2.432 . S
Eu367 O410 2.291 . S
Eu367 C431 2.787 . S
N368 C364 1.351 . S
N368 Eu367 2.562 . S
N368 C370 1.325 . S
C369 C363 1.404 . S
C369 C371 1.366 . S
C369 H377 0.930 . S
C370 N368 1.325 . S
C370 C371 1.416 . S
C370 H376 0.929 . S
C371 C369 1.366 . S
C371 C370 1.416 . S
C371 H373 0.930 . S
H372 C361 0.930 . S
H373 C371 0.930 . S
H374 C389 0.930 . S
H375 C396 0.930 . S
H376 C370 0.929 . S
H377 C369 0.930 . S
H378 C392 0.929 . S
H379 C359 0.931 . S
H380 C365 0.931 . S
H381 C366 0.931 . S
H382 C387 0.931 . S
H383 C362 0.929 . S
H384 C395 0.930 . S
N385 Eu356 2.600 . S
N385 C386 1.365 . S
N385 C389 1.319 . S
C386 N385 1.365 . S
C386 C388 1.405 . S
C386 C394 1.448 . S
C387 H382 0.931 . S
C387 C389 1.397 . S
C387 C390 1.367 . S
C388 C386 1.405 . S
C388 C390 1.403 . S
C388 C421 1.439 . S
C389 H374 0.930 . S
C389 N385 1.319 . S
C389 C387 1.397 . S
C390 C387 1.367 . S
C390 C388 1.403 . S
C390 H397 0.929 . S
N391 Eu356 2.562 . S
N391 C392 1.325 . S
N391 C394 1.351 . S
C392 H378 0.929 . S
C392 N391 1.325 . S
C392 C396 1.416 . S
C393 C394 1.430 . S
C393 C395 1.404 . S
C393 C422 1.387 . S
C394 C386 1.448 . S
C394 N391 1.351 . S
C394 C393 1.430 . S
C395 H384 0.930 . S
C395 C393 1.404 . S
C395 C396 1.366 . S
C396 H375 0.930 . S
C396 C392 1.416 . S
C396 C395 1.366 . S
H397 C390 0.929 . S
H398 C421 0.931 . S
H399 C422 0.931 . S
O400 Eu356 2.462 . S
O400 C420 1.252 . S
O401 Eu356 2.373 . S
O401 C412 1.249 . S
O402 Eu367 2.335 . S
O402 C412 1.264 . S
O403 Eu356 2.432 . S
O403 C420 1.268 . S
O404 Eu356 2.291 . S
O404 C419 1.255 . S
O405 Eu367 2.372 . S
O405 C419 1.257 . S
O406 Eu367 2.462 . S
O406 C431 1.252 . S
O407 Eu367 2.373 . S
O407 C423 1.249 . S
O408 Eu356 2.335 . S
O408 C423 1.264 . S
O409 Eu367 2.432 . S
O409 C431 1.268 . S
O410 Eu367 2.291 . S
O410 C430 1.255 . S
O411 Eu356 2.372 . S
O411 C430 1.257 . S
C412 O401 1.249 . S
C412 O402 1.264 . S
C413 C416 1.382 . S
C413 C418 1.390 . S
C413 C420 1.506 . S
C414 C415 1.398 . S
C414 C418 1.392 . S
C415 C414 1.398 . S
C415 C417 1.372 . S
C415 H432 0.931 . S
C416 C413 1.382 . S
C416 C417 1.390 . S
C416 H433 0.931 . S
C417 C415 1.372 . S
C417 C416 1.390 . S
C417 H434 0.929 . S
C418 C413 1.390 . S
C418 C414 1.392 . S
C418 H435 0.930 . S
C419 O404 1.255 . S
C419 O405 1.257 . S
C420 Eu356 2.787 . S
C420 O400 1.252 . S
C420 O403 1.268 . S
C420 C413 1.506 . S
C421 C388 1.439 . S
C421 H398 0.931 . S
C421 C422 1.374 . S
C422 C393 1.387 . S
C422 H399 0.931 . S
C422 C421 1.374 . S
C423 O407 1.249 . S
C423 O408 1.264 . S
C424 C427 1.382 . S
C424 C428 1.390 . S
C424 C431 1.506 . S
C425 C426 1.398 . S
C425 C428 1.392 . S
C426 C425 1.398 . S
C426 C429 1.372 . S
C426 H436 0.931 . S
C427 C424 1.382 . S
C427 C429 1.390 . S
C427 H437 0.931 . S
C428 C424 1.390 . S
C428 C425 1.392 . S
C428 H438 0.930 . S
C429 C426 1.372 . S
C429 C427 1.390 . S
C429 H439 0.929 . S
C430 O410 1.255 . S
C430 O411 1.257 . S
C431 Eu367 2.787 . S
C431 O406 1.252 . S
C431 O409 1.268 . S
C431 C424 1.506 . S
H432 C415 0.931 . S
H433 C416 0.931 . S
H434 C417 0.929 . S
H435 C418 0.930 . S
H436 C426 0.931 . S
H437 C427 0.931 . S
H438 C428 0.930 . S
H439 C429 0.929 . S
H440 C446 0.930 . S
H441 C449 0.930 . S
H442 C450 0.930 1_545 S
H443 C451 0.930 . S
H444 C454 0.930 . S
H445 C455 0.930 . S
C446 H440 0.930 . S
C446 C447 1.355 . S
C446 C448 1.415 . S
C447 C446 1.355 . S
C447 C449 1.419 . S
C448 C446 1.415 . S
C448 C453 1.425 . S
C448 C455 1.409 . S
C449 H441 0.930 . S
C449 C447 1.419 . S
C449 C450 1.362 . S
C450 H442 0.930 1_565 S
C450 C449 1.362 . S
C450 C453 1.409 . S
C451 H443 0.930 . S
C451 C452 1.355 . S
C451 C453 1.415 1_545 S
C452 C451 1.355 . S
C452 C454 1.419 1_545 S
C453 C448 1.425 . S
C453 C450 1.409 . S
C453 C451 1.415 1_565 S
C454 H444 0.930 . S
C454 C452 1.419 1_565 S
C454 C455 1.362 . S
C455 H445 0.930 . S
C455 C448 1.409 . S
C455 C454 1.362 . S
H456 C462 0.930 . S
H457 C465 0.930 . S
H458 C466 0.930 . S
H459 C467 0.930 . S
H460 C470 0.930 . S
H461 C471 0.930 . S
C462 H456 0.930 . S
C462 C463 1.355 . S
C462 C464 1.415 . S
C463 C462 1.355 . S
C463 C465 1.419 . S
C464 C462 1.415 . S
C464 C469 1.425 . S
C464 C471 1.409 . S
C465 H457 0.930 . S
C465 C463 1.419 . S
C465 C466 1.362 . S
C466 H458 0.930 . S
C466 C465 1.362 . S
C466 C469 1.409 . S
C467 H459 0.930 . S
C467 C468 1.355 . S
C467 C469 1.415 . S
C468 C467 1.355 . S
C468 C470 1.419 . S
C469 C464 1.425 . S
C469 C466 1.409 . S
C469 C467 1.415 . S
C470 H460 0.930 . S
C470 C468 1.419 . S
C470 C471 1.362 . S
C471 H461 0.930 . S
C471 C464 1.409 . S
C471 C470 1.362 . S
H472 C478 0.930 . S
H473 C481 0.930 . S
H474 C482 0.930 . S
H475 C483 0.930 . S
H476 C486 0.930 . S
H477 C487 0.930 . S
C478 H472 0.930 . S
C478 C479 1.355 . S
C478 C480 1.415 . S
C479 C478 1.355 . S
C479 C481 1.419 . S
C480 C478 1.415 . S
C480 C485 1.425 . S
C480 C487 1.409 . S
C481 H473 0.930 . S
C481 C479 1.419 . S
C481 C482 1.362 . S
C482 H474 0.930 . S
C482 C481 1.362 . S
C482 C485 1.409 . S
C483 H475 0.930 . S
C483 C484 1.355 . S
C483 C485 1.415 . S
C484 C483 1.355 . S
C484 C486 1.419 . S
C485 C480 1.425 . S
C485 C482 1.409 . S
C485 C483 1.415 . S
C486 H476 0.930 . S
C486 C484 1.419 . S
C486 C487 1.362 . S
C487 H477 0.930 . S
C487 C480 1.409 . S
C487 C486 1.362 . S
H488 C494 0.930 . S
H489 C497 0.930 . S
H490 C498 0.930 . S
H491 C499 0.930 . S
H492 C502 0.930 . S
H493 C503 0.930 . S
C494 H488 0.930 . S
C494 C495 1.355 . S
C494 C496 1.415 . S
C495 C494 1.355 . S
C495 C497 1.419 . S
C496 C494 1.415 . S
C496 C501 1.425 . S
C496 C503 1.409 1_565 S
C497 H489 0.930 . S
C497 C495 1.419 . S
C497 C498 1.362 . S
C498 H490 0.930 . S
C498 C497 1.362 . S
C498 C501 1.409 . S
C499 H491 0.930 . S
C499 C500 1.355 1_565 S
C499 C501 1.415 . S
C500 C499 1.355 1_545 S
C500 C502 1.419 . S
C501 C496 1.425 . S
C501 C498 1.409 . S
C501 C499 1.415 . S
C502 H492 0.930 . S
C502 C500 1.419 . S
C502 C503 1.362 . S
C503 H493 0.930 . S
C503 C496 1.409 1_545 S
C503 C502 1.362 . S
H504 C510 0.930 . S
H505 C513 0.930 . S
H506 C514 0.930 1_565 S
H507 C515 0.930 . S
H508 C518 0.930 . S
H509 C519 0.930 . S
C510 H504 0.930 . S
C510 C511 1.355 . S
C510 C512 1.415 . S
C511 C510 1.355 . S
C511 C513 1.419 . S
C512 C510 1.415 . S
C512 C517 1.425 . S
C512 C519 1.409 . S
C513 H505 0.930 . S
C513 C511 1.419 . S
C513 C514 1.362 . S
C514 H506 0.930 1_545 S
C514 C513 1.362 . S
C514 C517 1.409 . S
C515 H507 0.930 . S
C515 C516 1.355 . S
C515 C517 1.415 1_565 S
C516 C515 1.355 . S
C516 C518 1.419 1_565 S
C517 C512 1.425 . S
C517 C514 1.409 . S
C517 C515 1.415 1_545 S
C518 H508 0.930 . S
C518 C516 1.419 1_545 S
C518 C519 1.362 . S
C519 H509 0.930 . S
C519 C512 1.409 . S
C519 C518 1.362 . S
H520 C526 0.930 . S
H521 C529 0.930 . S
H522 C530 0.930 . S
H523 C531 0.930 . S
H524 C534 0.930 . S
H525 C535 0.930 . S
C526 H520 0.930 . S
C526 C527 1.355 . S
C526 C528 1.415 . S
C527 C526 1.355 . S
C527 C529 1.419 . S
C528 C526 1.415 . S
C528 C533 1.425 . S
C528 C535 1.409 . S
C529 H521 0.930 . S
C529 C527 1.419 . S
C529 C530 1.362 . S
C530 H522 0.930 . S
C530 C529 1.362 . S
C530 C533 1.409 . S
C531 H523 0.930 . S
C531 C532 1.355 . S
C531 C533 1.415 . S
C532 C531 1.355 . S
C532 C534 1.419 . S
C533 C528 1.425 . S
C533 C530 1.409 . S
C533 C531 1.415 . S
C534 H524 0.930 . S
C534 C532 1.419 . S
C534 C535 1.362 . S
C535 H525 0.930 . S
C535 C528 1.409 . S
C535 C534 1.362 . S
H536 C542 0.930 . S
H537 C545 0.930 . S
H538 C546 0.930 . S
H539 C547 0.930 . S
H540 C550 0.930 . S
H541 C551 0.930 . S
C542 H536 0.930 . S
C542 C543 1.355 . S
C542 C544 1.415 . S
C543 C542 1.355 . S
C543 C545 1.419 . S
C544 C542 1.415 . S
C544 C549 1.425 . S
C544 C551 1.409 . S
C545 H537 0.930 . S
C545 C543 1.419 . S
C545 C546 1.362 . S
C546 H538 0.930 . S
C546 C545 1.362 . S
C546 C549 1.409 . S
C547 H539 0.930 . S
C547 C548 1.355 . S
C547 C549 1.415 . S
C548 C547 1.355 . S
C548 C550 1.419 . S
C549 C544 1.425 . S
C549 C546 1.409 . S
C549 C547 1.415 . S
C550 H540 0.930 . S
C550 C548 1.419 . S
C550 C551 1.362 . S
C551 H541 0.930 . S
C551 C544 1.409 . S
C551 C550 1.362 . S
H552 C558 0.930 . S
H553 C561 0.930 . S
H554 C562 0.930 1_565 S
H555 C563 0.930 . S
H556 C566 0.930 . S
H557 C567 0.930 . S
C558 H552 0.930 . S
C558 C559 1.355 . S
C558 C560 1.415 . S
C559 C558 1.355 . S
C559 C561 1.419 . S
C560 C558 1.415 . S
C560 C565 1.425 . S
C560 C567 1.409 . S
C561 H553 0.930 . S
C561 C559 1.419 . S
C561 C562 1.362 . S
C562 H554 0.930 1_545 S
C562 C561 1.362 . S
C562 C565 1.409 . S
C563 H555 0.930 . S
C563 C564 1.355 . S
C563 C565 1.415 1_565 S
C564 C563 1.355 . S
C564 C566 1.419 1_565 S
C565 C560 1.425 . S
C565 C562 1.409 . S
C565 C563 1.415 1_545 S
C566 H556 0.930 . S
C566 C564 1.419 1_545 S
C566 C567 1.362 . S
C567 H557 0.930 . S
C567 C560 1.409 . S
C567 C566 1.362 . S
H568 C574 0.930 . S
H569 C577 0.930 . S
H570 C578 0.930 . S
H571 C579 0.930 . S
H572 C582 0.930 . S
H573 C583 0.930 1_556 S
C574 H568 0.930 . S
C574 C575 1.355 . S
C574 C576 1.415 . S
C575 C574 1.355 . S
C575 C577 1.419 . S
C576 C574 1.415 . S
C576 C581 1.425 1_556 S
C576 C583 1.409 1_556 S
C577 H569 0.930 . S
C577 C575 1.419 . S
C577 C578 1.362 1_556 S
C578 H570 0.930 . S
C578 C577 1.362 1_554 S
C578 C581 1.409 . S
C579 H571 0.930 . S
C579 C580 1.355 . S
C579 C581 1.415 . S
C580 C579 1.355 . S
C580 C582 1.419 . S
C581 C576 1.425 1_554 S
C581 C578 1.409 . S
C581 C579 1.415 . S
C582 H572 0.930 . S
C582 C580 1.419 . S
C582 C583 1.362 . S
C583 H573 0.930 1_554 S
C583 C576 1.409 1_554 S
C583 C582 1.362 . S
H584 C590 0.930 . S
H585 C593 0.930 . S
H586 C594 0.930 . S
H587 C595 0.930 . S
H588 C598 0.930 . S
H589 C599 0.930 . S
C590 H584 0.930 . S
C590 C591 1.355 . S
C590 C592 1.415 . S
C591 C590 1.355 . S
C591 C593 1.419 . S
C592 C590 1.415 . S
C592 C597 1.425 . S
C592 C599 1.409 . S
C593 H585 0.930 . S
C593 C591 1.419 . S
C593 C594 1.362 . S
C594 H586 0.930 . S
C594 C593 1.362 . S
C594 C597 1.409 . S
C595 H587 0.930 . S
C595 C596 1.355 . S
C595 C597 1.415 . S
C596 C595 1.355 . S
C596 C598 1.419 . S
C597 C592 1.425 . S
C597 C594 1.409 . S
C597 C595 1.415 . S
C598 H588 0.930 . S
C598 C596 1.419 . S
C598 C599 1.362 . S
C599 H589 0.930 . S
C599 C592 1.409 . S
C599 C598 1.362 . S
H600 C606 0.930 . S
H601 C609 0.930 . S
H602 C610 0.947 . S
H603 C611 0.930 . S
H604 C614 0.930 . S
H605 C615 0.937 . S
C606 H600 0.930 . S
C606 C607 1.355 . S
C606 C608 1.415 . S
C607 C606 1.355 . S
C607 C609 1.419 . S
C608 C606 1.415 . S
C608 C613 1.425 1_554 S
C608 C615 1.409 1_554 S
C609 H601 0.930 . S
C609 C607 1.419 . S
C609 C610 1.332 1_554 S
C610 H602 0.947 . S
C610 C609 1.332 1_556 S
C610 C613 1.423 . S
C611 H603 0.930 . S
C611 C612 1.355 . S
C611 C613 1.415 . S
C612 C611 1.355 . S
C612 C614 1.419 . S
C613 C608 1.425 1_556 S
C613 C610 1.423 . S
C613 C611 1.415 . S
C614 H604 0.930 . S
C614 C612 1.419 . S
C614 C615 1.362 . S
C615 H605 0.937 . S
C615 C608 1.409 1_556 S
C615 C614 1.362 . S
H616 C622 0.930 . S
H617 C625 0.930 . S
H618 C626 0.930 . S
H619 C627 0.930 . S
H620 C630 0.930 . S
H621 C631 0.930 . S
C622 H616 0.930 . S
C622 C623 1.355 . S
C622 C624 1.415 . S
C623 C622 1.355 . S
C623 C625 1.419 . S
C624 C622 1.415 . S
C624 C629 1.425 . S
C624 C631 1.409 . S
C625 H617 0.930 . S
C625 C623 1.419 . S
C625 C626 1.362 . S
C626 H618 0.930 . S
C626 C625 1.362 . S
C626 C629 1.409 . S
C627 H619 0.930 . S
C627 C628 1.355 . S
C627 C629 1.415 . S
C628 C627 1.355 . S
C628 C630 1.419 . S
C629 C624 1.425 . S
C629 C626 1.409 . S
C629 C627 1.415 . S
C630 H620 0.930 . S
C630 C628 1.419 . S
C630 C631 1.362 . S
C631 H621 0.930 . S
C631 C624 1.409 . S
C631 C630 1.362 . S
H632 C638 0.930 . S
H633 C641 0.930 . S
H634 C642 0.930 . S
H635 C643 0.930 . S
H636 C646 0.930 . S
H637 C647 0.930 . S
C638 H632 0.930 . S
C638 C639 1.355 . S
C638 C640 1.415 1_554 S
C639 C638 1.355 . S
C639 C641 1.419 . S
C640 C638 1.415 1_556 S
C640 C645 1.425 . S
C640 C647 1.409 . S
C641 H633 0.930 . S
C641 C639 1.419 . S
C641 C642 1.362 1_554 S
C642 H634 0.930 . S
C642 C641 1.362 1_556 S
C642 C645 1.409 . S
C643 H635 0.930 . S
C643 C644 1.355 . S
C643 C645 1.415 . S
C644 C643 1.355 . S
C644 C646 1.419 . S
C645 C640 1.425 . S
C645 C642 1.409 . S
C645 C643 1.415 . S
C646 H636 0.930 . S
C646 C644 1.419 . S
C646 C647 1.362 . S
C647 H637 0.930 . S
C647 C640 1.409 . S
C647 C646 1.362 . S
H648 C654 0.930 . S
H649 C657 0.930 . S
H650 C658 0.930 . S
H651 C659 0.930 . S
H652 C662 0.930 . S
H653 C663 0.930 . S
C654 H648 0.930 . S
C654 C655 1.355 . S
C654 C656 1.415 . S
C655 C654 1.355 . S
C655 C657 1.419 . S
C656 C654 1.415 . S
C656 C661 1.425 . S
C656 C663 1.409 . S
C657 H649 0.930 . S
C657 C655 1.419 . S
C657 C658 1.362 . S
C658 H650 0.930 . S
C658 C657 1.362 . S
C658 C661 1.409 . S
C659 H651 0.930 . S
C659 C660 1.355 . S
C659 C661 1.415 . S
C660 C659 1.355 . S
C660 C662 1.419 . S
C661 C656 1.425 . S
C661 C658 1.409 . S
C661 C659 1.415 . S
C662 H652 0.930 . S
C662 C660 1.419 . S
C662 C663 1.362 . S
C663 H653 0.930 . S
C663 C656 1.409 . S
C663 C662 1.362 . S
H664 C670 0.930 . S
H665 C673 0.930 . S
H666 C674 0.930 . S
H667 C675 0.930 . S
H668 C678 0.930 . S
H669 C679 0.930 . S
C670 H664 0.930 . S
C670 C671 1.355 . S
C670 C672 1.415 1_556 S
C671 C670 1.355 . S
C671 C673 1.419 . S
C672 C670 1.415 1_554 S
C672 C677 1.425 . S
C672 C679 1.409 . S
C673 H665 0.930 . S
C673 C671 1.419 . S
C673 C674 1.362 . S
C674 H666 0.930 . S
C674 C673 1.362 . S
C674 C677 1.409 1_556 S
C675 H667 0.930 . S
C675 C676 1.355 . S
C675 C677 1.415 . S
C676 C675 1.355 . S
C676 C678 1.419 . S
C677 C672 1.425 . S
C677 C674 1.409 1_554 S
C677 C675 1.415 . S
C678 H668 0.930 . S
C678 C676 1.419 . S
C678 C679 1.362 . S
C679 H669 0.930 . S
C679 C672 1.409 . S
C679 C678 1.362 . S
H680 C686 0.930 . S
H681 C689 0.930 . S
H682 C690 0.930 . S
H683 C691 0.930 . S
H684 C694 0.930 . S
H685 C695 0.930 . S
C686 H680 0.930 . S
C686 C687 1.355 . S
C686 C688 1.415 . S
C687 C686 1.355 . S
C687 C689 1.419 . S
C688 C686 1.415 . S
C688 C693 1.425 . S
C688 C695 1.409 . S
C689 H681 0.930 . S
C689 C687 1.419 . S
C689 C690 1.362 . S
C690 H682 0.930 . S
C690 C689 1.362 . S
C690 C693 1.409 . S
C691 H683 0.930 . S
C691 C692 1.355 . S
C691 C693 1.415 . S
C692 C691 1.355 . S
C692 C694 1.419 . S
C693 C688 1.425 . S
C693 C690 1.409 . S
C693 C691 1.415 . S
C694 H684 0.930 . S
C694 C692 1.419 . S
C694 C695 1.362 . S
C695 H685 0.930 . S
C695 C688 1.409 . S
C695 C694 1.362 . S
H696 C702 0.930 . S
H697 C705 0.930 . S
H698 C706 0.930 . S
H699 C707 0.930 . S
H700 C710 0.930 . S
H701 C711 0.930 . S
C702 H696 0.930 . S
C702 C703 1.355 . S
C702 C704 1.415 . S
C703 C702 1.355 . S
C703 C705 1.419 . S
C704 C702 1.415 . S
C704 C709 1.425 . S
C704 C711 1.409 . S
C705 H697 0.930 . S
C705 C703 1.419 . S
C705 C706 1.362 . S
C706 H698 0.930 . S
C706 C705 1.362 . S
C706 C709 1.409 . S
C707 H699 0.930 . S
C707 C708 1.355 . S
C707 C709 1.415 . S
C708 C707 1.355 . S
C708 C710 1.419 . S
C709 C704 1.425 . S
C709 C706 1.409 . S
C709 C707 1.415 . S
C710 H700 0.930 . S
C710 C708 1.419 . S
C710 C711 1.362 . S
C711 H701 0.930 . S
C711 C704 1.409 . S
C711 C710 1.362 . S
H712 C718 0.930 . S
H713 C721 0.930 . S
H714 C722 0.930 . S
H715 C723 0.930 . S
H716 C726 0.930 . S
H717 C727 0.930 . S
C718 H712 0.930 . S
C718 C719 1.355 . S
C718 C720 1.415 . S
C719 C718 1.355 . S
C719 C721 1.419 . S
C720 C718 1.415 . S
C720 C725 1.425 . S
C720 C727 1.409 . S
C721 H713 0.930 . S
C721 C719 1.419 . S
C721 C722 1.362 . S
C722 H714 0.930 . S
C722 C721 1.362 . S
C722 C725 1.409 . S
C723 H715 0.930 . S
C723 C724 1.355 . S
C723 C725 1.415 . S
C724 C723 1.355 . S
C724 C726 1.419 . S
C725 C720 1.425 . S
C725 C722 1.409 . S
C725 C723 1.415 . S
C726 H716 0.930 . S
C726 C724 1.419 . S
C726 C727 1.362 . S
C727 H717 0.930 . S
C727 C720 1.409 . S
C727 C726 1.362 . S
H728 C734 0.930 . S
H729 C737 0.930 . S
H730 C738 0.930 . S
H731 C739 0.930 . S
H732 C742 0.930 . S
H733 C743 0.930 . S
C734 H728 0.930 . S
C734 C735 1.355 . S
C734 C736 1.415 . S
C735 C734 1.355 . S
C735 C737 1.419 . S
C736 C734 1.415 . S
C736 C741 1.425 . S
C736 C743 1.409 . S
C737 H729 0.930 . S
C737 C735 1.419 . S
C737 C738 1.362 . S
C738 H730 0.930 . S
C738 C737 1.362 . S
C738 C741 1.409 . S
C739 H731 0.930 . S
C739 C740 1.355 . S
C739 C741 1.415 . S
C740 C739 1.355 . S
C740 C742 1.419 . S
C741 C736 1.425 . S
C741 C738 1.409 . S
C741 C739 1.415 . S
C742 H732 0.930 . S
C742 C740 1.419 . S
C742 C743 1.362 . S
C743 H733 0.930 . S
C743 C736 1.409 . S
C743 C742 1.362 . S
H744 C750 0.930 . S
H745 C753 0.930 . S
H746 C754 0.930 . S
H747 C755 0.930 . S
H748 C758 0.930 . S
H749 C759 0.930 . S
C750 H744 0.930 . S
C750 C751 1.355 . S
C750 C752 1.415 . S
C751 C750 1.355 . S
C751 C753 1.419 . S
C752 C750 1.415 . S
C752 C757 1.425 . S
C752 C759 1.409 . S
C753 H745 0.930 . S
C753 C751 1.419 . S
C753 C754 1.362 . S
C754 H746 0.930 . S
C754 C753 1.362 . S
C754 C757 1.409 . S
C755 H747 0.930 . S
C755 C756 1.355 . S
C755 C757 1.415 . S
C756 C755 1.355 . S
C756 C758 1.419 . S
C757 C752 1.425 . S
C757 C754 1.409 . S
C757 C755 1.415 . S
C758 H748 0.930 . S
C758 C756 1.419 . S
C758 C759 1.362 . S
C759 H749 0.930 . S
C759 C752 1.409 . S
C759 C758 1.362 . S
H760 C766 0.930 . S
H761 C769 0.930 . S
H762 C770 0.930 . S
H763 C771 0.930 . S
H764 C774 0.930 1_455 S
H765 C775 0.921 1_455 S
C766 H760 0.930 . S
C766 C767 1.355 . S
C766 C768 1.415 . S
C767 C766 1.355 . S
C767 C769 1.419 . S
C768 C766 1.415 . S
C768 C773 1.425 . S
C768 C775 1.409 . S
C769 H761 0.930 . S
C769 C767 1.419 . S
C769 C770 1.362 . S
C770 H762 0.930 . S
C770 C769 1.362 . S
C770 C773 1.409 . S
C771 H763 0.930 . S
C771 C772 1.355 . S
C771 C773 1.415 . S
C772 C771 1.355 . S
C772 C774 1.419 . S
C773 C768 1.425 . S
C773 C770 1.409 . S
C773 C771 1.415 . S
C774 H764 0.930 1_655 S
C774 C772 1.419 . S
C774 C775 1.362 . S
C775 H765 0.921 1_655 S
C775 C768 1.409 . S
C775 C774 1.362 . S
H776 C782 0.930 . S
H777 C785 0.930 . S
H778 C786 0.930 . S
H779 C787 0.930 . S
H780 C790 0.930 . S
H781 C791 0.930 . S
C782 H776 0.930 . S
C782 C783 1.355 . S
C782 C784 1.415 . S
C783 C782 1.355 . S
C783 C785 1.419 . S
C784 C782 1.415 . S
C784 C789 1.425 . S
C784 C791 1.409 . S
C785 H777 0.930 . S
C785 C783 1.419 . S
C785 C786 1.362 . S
C786 H778 0.930 . S
C786 C785 1.362 . S
C786 C789 1.409 . S
C787 H779 0.930 . S
C787 C788 1.355 . S
C787 C789 1.415 . S
C788 C787 1.355 . S
C788 C790 1.419 . S
C789 C784 1.425 . S
C789 C786 1.409 . S
C789 C787 1.415 . S
C790 H780 0.930 . S
C790 C788 1.419 . S
C790 C791 1.362 . S
C791 H781 0.930 . S
C791 C784 1.409 . S
C791 C790 1.362 . S
H792 C798 0.930 . S
H793 C801 0.930 . S
H794 C802 0.930 . S
H795 C803 0.930 . S
H796 C806 0.930 . S
H797 C807 0.930 . S
C798 H792 0.930 . S
C798 C799 1.355 . S
C798 C800 1.415 . S
C799 C798 1.355 . S
C799 C801 1.419 . S
C800 C798 1.415 . S
C800 C805 1.425 . S
C800 C807 1.409 . S
C801 H793 0.930 . S
C801 C799 1.419 . S
C801 C802 1.362 . S
C802 H794 0.930 . S
C802 C801 1.362 . S
C802 C805 1.409 . S
C803 H795 0.930 . S
C803 C804 1.355 . S
C803 C805 1.415 . S
C804 C803 1.355 . S
C804 C806 1.419 . S
C805 C800 1.425 . S
C805 C802 1.409 . S
C805 C803 1.415 . S
C806 H796 0.930 . S
C806 C804 1.419 . S
C806 C807 1.362 . S
C807 H797 0.930 . S
C807 C800 1.409 . S
C807 C806 1.362 . S
H808 C814 0.930 . S
H809 C817 0.930 . S
H810 C818 0.930 . S
H811 C819 0.930 . S
H812 C822 0.930 . S
H813 C823 0.930 . S
C814 H808 0.930 . S
C814 C815 1.355 . S
C814 C816 1.415 . S
C815 C814 1.355 . S
C815 C817 1.419 . S
C816 C814 1.415 . S
C816 C821 1.425 . S
C816 C823 1.409 . S
C817 H809 0.930 . S
C817 C815 1.419 . S
C817 C818 1.362 . S
C818 H810 0.930 . S
C818 C817 1.362 . S
C818 C821 1.409 . S
C819 H811 0.930 . S
C819 C820 1.355 . S
C819 C821 1.415 . S
C820 C819 1.355 . S
C820 C822 1.419 . S
C821 C816 1.425 . S
C821 C818 1.409 . S
C821 C819 1.415 . S
C822 H812 0.930 . S
C822 C820 1.419 . S
C822 C823 1.362 . S
C823 H813 0.930 . S
C823 C816 1.409 . S
C823 C822 1.362 . S
C447 C86 1.629 . S
C452 C178 1.622 . S
C468 C262 1.668 . S
C463 C100 1.694 . S
C484 C255 1.630 . S
C479 C60 1.631 . S
C495 C74 1.674 . S
C500 C171 1.668 . S
C516 C335 1.648 . S
C511 C35 1.678 . S
C532 C419 1.631 . S
C527 C47 1.621 . S
C543 C9 1.688 . S
C548 C412 1.677 . S
C559 C21 1.631 . S
C564 C328 1.630 . S
C580 C162 1.405 . S
C575 C22 1.594 . S
C596 C246 1.476 . S
C591 C8 1.587 . S
C612 C257 1.402 . S
C607 C48 1.591 . S
C628 C173 1.362 . S
C623 C34 1.587 . S
C644 C341 1.477 . S
C639 C73 1.588 . S
C655 C61 1.560 . S
C660 C425 1.373 . S
C676 C414 1.312 . S
C671 C99 1.578 . S
C687 C87 1.584 . S
C692 C330 1.378 . S
C708 C160 1.580 . S
C703 C4 1.458 . S
C724 C244 1.497 . S
C719 C17 1.459 . S
C735 C30 1.536 . S
C740 C251 1.541 . S
C756 C167 1.440 . S
C751 C43 1.447 . S
C772 C339 1.496 . S
C767 C56 1.424 . S
C783 C69 1.493 . S
C788 C423 1.580 . S
C799 C82 1.409 . S
C804 C430 1.450 . S
C815 C95 1.551 . S
C820 C346 1.542 . S
