# Generated by pormake.
# Topology the, (3,8)-cn, num edge types: 1
# Building blocks:
#     Node 0, Type 0, BuildingBlock: ESEHIV_clean_linker_0, # of connection points: 3
#     Node 1, Type 0, BuildingBlock: ESEHIV_clean_linker_0, # of connection points: 3
#     Node 2, Type 0, BuildingBlock: ESEHIV_clean_linker_0, # of connection points: 3
#     Node 3, Type 0, BuildingBlock: ESEHIV_clean_linker_0, # of connection points: 3
#     Node 4, Type 0, BuildingBlock: ESEHIV_clean_linker_0, # of connection points: 3
#     Node 5, Type 0, BuildingBlock: ESEHIV_clean_linker_0, # of connection points: 3
#     Node 6, Type 0, BuildingBlock: ESEHIV_clean_linker_0, # of connection points: 3
#     Node 7, Type 0, BuildingBlock: ESEHIV_clean_linker_0, # of connection points: 3
#     Node 8, Type 1, BuildingBlock: GIZVER_clean_sbu_0, # of connection points: 8
#     Node 9, Type 1, BuildingBlock: GIZVER_clean_sbu_0, # of connection points: 8
#     Node 10, Type 1, BuildingBlock: GIZVER_clean_sbu_0, # of connection points: 8
#     Edge 11, Type (0, 1), BuildingBlock: ZUJKAS_clean_linker_0, # of connection points: 2
#     Edge 12, Type (0, 1), BuildingBlock: ZUJKAS_clean_linker_0, # of connection points: 2
#     Edge 13, Type (0, 1), BuildingBlock: ZUJKAS_clean_linker_0, # of connection points: 2
#     Edge 14, Type (0, 1), BuildingBlock: ZUJKAS_clean_linker_0, # of connection points: 2
#     Edge 15, Type (0, 1), BuildingBlock: ZUJKAS_clean_linker_0, # of connection points: 2
#     Edge 16, Type (0, 1), BuildingBlock: ZUJKAS_clean_linker_0, # of connection points: 2
#     Edge 17, Type (0, 1), BuildingBlock: ZUJKAS_clean_linker_0, # of connection points: 2
#     Edge 18, Type (0, 1), BuildingBlock: ZUJKAS_clean_linker_0, # of connection points: 2
#     Edge 19, Type (0, 1), BuildingBlock: ZUJKAS_clean_linker_0, # of connection points: 2
#     Edge 20, Type (0, 1), BuildingBlock: ZUJKAS_clean_linker_0, # of connection points: 2
#     Edge 21, Type (0, 1), BuildingBlock: ZUJKAS_clean_linker_0, # of connection points: 2
#     Edge 22, Type (0, 1), BuildingBlock: ZUJKAS_clean_linker_0, # of connection points: 2
#     Edge 23, Type (0, 1), BuildingBlock: ZUJKAS_clean_linker_0, # of connection points: 2
#     Edge 24, Type (0, 1), BuildingBlock: ZUJKAS_clean_linker_0, # of connection points: 2
#     Edge 25, Type (0, 1), BuildingBlock: ZUJKAS_clean_linker_0, # of connection points: 2
#     Edge 26, Type (0, 1), BuildingBlock: ZUJKAS_clean_linker_0, # of connection points: 2
#     Edge 27, Type (0, 1), BuildingBlock: ZUJKAS_clean_linker_0, # of connection points: 2
#     Edge 28, Type (0, 1), BuildingBlock: ZUJKAS_clean_linker_0, # of connection points: 2
#     Edge 29, Type (0, 1), BuildingBlock: ZUJKAS_clean_linker_0, # of connection points: 2
#     Edge 30, Type (0, 1), BuildingBlock: ZUJKAS_clean_linker_0, # of connection points: 2
#     Edge 31, Type (0, 1), BuildingBlock: ZUJKAS_clean_linker_0, # of connection points: 2
#     Edge 32, Type (0, 1), BuildingBlock: ZUJKAS_clean_linker_0, # of connection points: 2
#     Edge 33, Type (0, 1), BuildingBlock: ZUJKAS_clean_linker_0, # of connection points: 2
#     Edge 34, Type (0, 1), BuildingBlock: ZUJKAS_clean_linker_0, # of connection points: 2
# Relax obj value: 0.045
# Max RMSD: 0.138
# Mean RMSD: 0.066
data_MOF--net-the--node1-GIZVER_clean_sbu_0--node2-ESEHIV_clean_linker_0--edge1-ZUJKAS_clean_linker_0
_symmetry_space_group_name_H-M    P1
_symmetry_Int_Tables_number       1
_symmetry_cell_setting            triclinic
loop_
_symmetry_equiv_pos_as_xyz
'x, y, z'
_cell_length_a     50.809147
_cell_length_b     47.882329
_cell_length_c     44.190501
_cell_angle_alpha  86.758437
_cell_angle_beta   94.458052
_cell_angle_gamma 101.93828
loop_
_atom_site_label
_atom_site_type_symbol
_atom_site_fract_x
_atom_site_fract_y
_atom_site_fract_z
_atom_type_partial_charge
H0 H 0.30088 0.38901 0.38124 0.0
H1 H 0.35329 0.33085 0.37076 0.0
H2 H 0.30336 0.31917 0.44641 0.0
C3 C 0.3094 0.37087 0.38964 0.0
C4 C 0.30024 0.3555 0.41617 0.0
C5 C 0.32838 0.36201 0.37295 0.0
C6 C 0.3383 0.33764 0.3832 0.0
C7 C 0.3293 0.32208 0.40959 0.0
C8 C 0.31049 0.33128 0.42613 0.0
H9 H 0.71706 0.30467 0.35488 0.0
H10 H 0.71647 0.37661 0.29181 0.0
H11 H 0.64858 0.30594 0.29192 0.0
C12 C 0.70732 0.31514 0.33613 0.0
C13 C 0.68131 0.30218 0.32479 0.0
C14 C 0.72027 0.34206 0.32448 0.0
C15 C 0.70678 0.35586 0.30088 0.0
C16 C 0.68073 0.34314 0.28913 0.0
C17 C 0.66834 0.31626 0.30123 0.0
H18 H 0.66537 0.73873 0.30377 0.0
H19 H 0.72436 0.68616 0.30179 0.0
H20 H 0.73076 0.74554 0.3727 0.0
C21 C 0.68341 0.73201 0.3135 0.0
C22 C 0.69701 0.74488 0.33976 0.0
C23 C 0.69325 0.71095 0.2994 0.0
C24 C 0.71685 0.70266 0.31217 0.0
C25 C 0.73058 0.71507 0.33854 0.0
C26 C 0.72067 0.73639 0.35195 0.0
H27 H 0.28248 0.72236 0.36133 0.0
H28 H 0.3481 0.72164 0.30548 0.0
H29 H 0.279 0.65256 0.30298 0.0
C30 C 0.29146 0.71222 0.34463 0.0
C31 C 0.27741 0.68606 0.3331 0.0
C32 C 0.31707 0.72526 0.33498 0.0
C33 C 0.32847 0.7118 0.31324 0.0
C34 C 0.31489 0.68554 0.30163 0.0
C35 C 0.28944 0.67287 0.31175 0.0
H36 H 0.3024 0.72377 0.67738 0.0
H37 H 0.30084 0.65372 0.74333 0.0
H38 H 0.37059 0.72206 0.74076 0.0
C39 C 0.31182 0.71354 0.69656 0.0
C40 C 0.33807 0.72604 0.70759 0.0
C41 C 0.29815 0.68736 0.70917 0.0
C42 C 0.31113 0.67385 0.73342 0.0
C43 C 0.33742 0.68606 0.74479 0.0
C44 C 0.35061 0.71216 0.7317 0.0
H45 H 0.29462 0.34064 0.72552 0.0
H46 H 0.35343 0.28733 0.72725 0.0
H47 H 0.29228 0.28308 0.65371 0.0
C48 C 0.30254 0.32409 0.71575 0.0
C49 C 0.29053 0.31268 0.68816 0.0
C50 C 0.32542 0.31533 0.73001 0.0
C51 C 0.33591 0.29439 0.71647 0.0
C52 C 0.32419 0.28279 0.68883 0.0
C53 C 0.30161 0.29219 0.6748 0.0
H54 H 0.66733 0.30777 0.72303 0.0
H55 H 0.7337 0.30506 0.66915 0.0
H56 H 0.73891 0.37407 0.72859 0.0
C57 C 0.68741 0.31696 0.71623 0.0
C58 C 0.70145 0.34296 0.72825 0.0
C59 C 0.69902 0.30277 0.69526 0.0
C60 C 0.72496 0.31514 0.68612 0.0
C61 C 0.73922 0.34113 0.69763 0.0
C62 C 0.72747 0.35458 0.71894 0.0
H63 H 0.65562 0.68311 0.65806 0.0
H64 H 0.71508 0.63219 0.64979 0.0
H65 H 0.71119 0.70412 0.58794 0.0
C66 C 0.67203 0.67832 0.64637 0.0
C67 C 0.68179 0.69597 0.62157 0.0
C68 C 0.68373 0.65503 0.65659 0.0
C69 C 0.70557 0.64974 0.64174 0.0
C70 C 0.71569 0.66749 0.61707 0.0
C71 C 0.70342 0.69027 0.60687 0.0
Co72 Co 0.06274 0.48313 0.53395 0.0
Co73 Co 0.03315 0.47211 0.48181 0.0
Co74 Co 0.0092 0.51488 0.51733 0.0
O75 O 0.02521 0.48005 0.52109 0.0
H76 H 0.01362 0.46377 0.53037 0.0
O77 O 0.99342 0.54979 0.5135 0.0
Co78 Co 0.95656 0.54733 0.49864 0.0
Co79 Co 0.98391 0.55792 0.55179 0.0
H80 H 1.00543 0.56609 0.50484 0.0
O81 O 0.04286 0.4376 0.47286 0.0
O82 O 0.06971 0.47649 0.49221 0.0
O83 O 0.03127 0.50124 0.44992 0.0
O84 O 0.03289 0.53386 0.48405 0.0
O85 O 0.98112 0.49503 0.48658 0.0
O86 O 0.92337 0.54839 0.4839 0.0
O87 O 0.95957 0.5846 0.48616 0.0
O88 O 0.94848 0.50795 0.50859 0.0
O89 O 0.98551 0.49579 0.55055 0.0
O90 O 0.98337 0.52843 0.58359 0.0
O91 O 0.94791 0.55548 0.53932 0.0
O92 O 0.97575 0.59337 0.55959 0.0
C93 C 0.0867 0.45559 0.55157 0.0
C94 C 0.06223 0.53801 0.54405 0.0
C95 C 0.03752 0.527 0.45771 0.0
C96 C 0.06677 0.45134 0.48152 0.0
C97 C 0.9341 0.57508 0.47815 0.0
C98 C 0.95605 0.4919 0.49061 0.0
C99 C 0.97905 0.50257 0.57616 0.0
C100 C 0.95177 0.58093 0.54955 0.0
O101 O 0.09657 0.48259 0.54644 0.0
O102 O 0.06101 0.44566 0.54514 0.0
O103 O 0.03716 0.53467 0.54815 0.0
O104 O 0.06975 0.5227 0.52524 0.0
Co105 Co 0.53918 0.95797 0.49821 0.0
Co106 Co 0.55193 0.98079 0.55181 0.0
Co107 Co 0.51053 0.01301 0.51412 0.0
O108 O 0.54277 0.99549 0.51309 0.0
H109 H 0.55807 0.0088 0.5055 0.0
O110 O 0.47827 0.03048 0.51528 0.0
Co111 Co 0.48205 0.06833 0.52948 0.0
Co112 Co 0.46922 0.04463 0.47635 0.0
H113 H 0.46301 0.01728 0.52307 0.0
O114 O 0.58543 0.97066 0.56223 0.0
O115 O 0.54865 0.94383 0.5394 0.0
O116 O 0.52572 0.97757 0.5818 0.0
O117 O 0.49363 0.98556 0.54724 0.0
O118 O 0.53148 0.04009 0.54482 0.0
O119 O 0.48264 0.10237 0.54342 0.0
O120 O 0.44776 0.06477 0.54079 0.0
O121 O 0.51859 0.07702 0.52084 0.0
O122 O 0.52749 0.04036 0.48095 0.0
O123 O 0.49546 0.04819 0.44629 0.0
O124 O 0.47152 0.08157 0.48816 0.0
O125 O 0.43532 0.0531 0.4659 0.0
C126 C 0.5641 0.93584 0.4795 0.0
C127 C 0.48591 0.95914 0.4881 0.0
C128 C 0.501 0.97543 0.5732 0.0
C129 C 0.57301 0.94636 0.55165 0.0
C130 C 0.45771 0.09108 0.54834 0.0
C131 C 0.53485 0.06707 0.53965 0.0
C132 C 0.52017 0.05039 0.45493 0.0
C133 C 0.44694 0.07778 0.47623 0.0
O134 O 0.53903 0.92428 0.4835 0.0
O135 O 0.57371 0.96195 0.48787 0.0
O136 O 0.48946 0.98616 0.4833 0.0
O137 O 0.50243 0.94877 0.50613 0.0
Co138 Co 0.47703 0.52699 0.07753 0.0
Co139 Co 0.46332 0.47488 0.05827 0.0
Co140 Co 0.50727 0.51201 0.01618 0.0
O141 O 0.47423 0.51045 0.0386 0.0
H142 H 0.4595 0.51516 0.0255 0.0
O143 O 0.54031 0.51357 0.99377 0.0
Co144 Co 0.53759 0.49689 0.95494 0.0
Co145 Co 0.5511 0.54893 0.9739 0.0
H146 H 0.55507 0.50898 1.00689 0.0
O147 O 0.42851 0.46248 0.07161 0.0
O148 O 0.46431 0.48893 0.09666 0.0
O149 O 0.48888 0.45007 0.06202 0.0
O150 O 0.52231 0.48337 0.04467 0.0
O151 O 0.48592 0.48059 0.99038 0.0
O152 O 0.53784 0.48058 0.91999 0.0
O153 O 0.57136 0.48951 0.95673 0.0
O154 O 0.50175 0.50162 0.9481 0.0
O155 O 0.49224 0.5407 0.98772 0.0
O156 O 0.52578 0.57395 0.97051 0.0
O157 O 0.5504 0.53492 0.93551 0.0
O158 O 0.58593 0.56136 0.96117 0.0
C159 C 0.45247 0.54476 0.10227 0.0
C160 C 0.53049 0.54033 0.07095 0.0
C161 C 0.51381 0.45962 0.05906 0.0
C162 C 0.43953 0.47489 0.09615 0.0
C163 C 0.56219 0.47908 0.93036 0.0
C164 C 0.48395 0.48365 0.96144 0.0
C165 C 0.50085 0.56455 0.97357 0.0
C166 C 0.5752 0.54905 0.93646 0.0
O167 O 0.47675 0.54297 0.11272 0.0
O168 O 0.44336 0.53463 0.07576 0.0
O169 O 0.52858 0.54342 0.04201 0.0
O170 O 0.5128 0.52214 0.08419 0.0
H171 H 0.29542 0.40913 0.42959 0.0
H172 H 0.25653 0.42283 0.44958 0.0
H173 H 0.21741 0.33412 0.45875 0.0
H174 H 0.25593 0.32022 0.43831 0.0
H175 H 0.20529 0.40667 0.41714 0.0
H176 H 0.20342 0.3704 0.53879 0.0
H177 H 0.2333 0.37489 0.51791 0.0
H178 H 0.2069 0.34382 0.51302 0.0
C179 C 0.27867 0.39254 0.43622 0.0
C180 C 0.2786 0.36364 0.43216 0.0
C181 C 0.25664 0.40037 0.44786 0.0
C182 C 0.23433 0.37943 0.45583 0.0
C183 C 0.23472 0.3505 0.45326 0.0
H184 H 0.06832 0.39588 0.47073 0.0
H185 H 0.10877 0.37586 0.46741 0.0
C186 C 0.25672 0.34264 0.44153 0.0
C187 C 0.20922 0.38802 0.46235 0.0
H188 H 0.16449 0.38629 0.51658 0.0
C189 C 0.1964 0.40227 0.43889 0.0
C190 C 0.1977 0.38194 0.49069 0.0
C191 C 0.2111 0.36711 0.51668 0.0
C192 C 0.17227 0.41073 0.443 0.0
C193 C 0.16083 0.40487 0.47132 0.0
C194 C 0.17342 0.39044 0.49483 0.0
C195 C 0.13667 0.41549 0.47702 0.0
C196 C 0.15916 0.42615 0.41719 0.0
C197 C 0.13934 0.4442 0.48359 0.0
C198 C 0.11652 0.4557 0.48507 0.0
C199 C 0.09064 0.43859 0.4802 0.0
C200 C 0.08802 0.40957 0.47435 0.0
C201 C 0.11099 0.39806 0.47278 0.0
H202 H 0.16905 0.42625 0.39561 0.0
H203 H 0.1375 0.41599 0.41352 0.0
H204 H 0.16031 0.44861 0.42311 0.0
H205 H 0.15912 0.45789 0.48668 0.0
H206 H 0.11923 0.47815 0.48962 0.0
H207 H 0.62921 0.28749 0.34073 0.0
H208 H 0.60572 0.24152 0.36179 0.0
H209 H 0.67786 0.20772 0.3599 0.0
H210 H 0.70157 0.25376 0.33859 0.0
H211 H 0.62603 0.17186 0.33431 0.0
H212 H 0.62156 0.20851 0.45057 0.0
H213 H 0.61108 0.23101 0.41994 0.0
H214 H 0.64557 0.22709 0.42445 0.0
C215 C 0.64007 0.27025 0.34466 0.0
C216 C 0.66726 0.27426 0.33797 0.0
C217 C 0.62666 0.24406 0.35686 0.0
C218 C 0.64011 0.22131 0.36256 0.0
C219 C 0.66718 0.22508 0.35574 0.0
H220 H 0.57385 0.0689 0.47124 0.0
H221 H 0.60529 0.10782 0.44718 0.0
C222 C 0.68071 0.2514 0.34375 0.0
C223 C 0.62571 0.19362 0.37555 0.0
H224 H 0.59517 0.16302 0.43886 0.0
C225 C 0.61945 0.16979 0.35724 0.0
C226 C 0.61739 0.19096 0.40554 0.0
C227 C 0.62437 0.21564 0.42646 0.0
C228 C 0.6043 0.14357 0.36789 0.0
C229 C 0.5951 0.14123 0.39752 0.0
C230 C 0.60214 0.16484 0.41611 0.0
C231 C 0.57732 0.11494 0.4095 0.0
C232 C 0.59824 0.1186 0.34736 0.0
C233 C 0.55129 0.10555 0.39595 0.0
C234 C 0.53318 0.08324 0.40965 0.0
C235 C 0.54072 0.06994 0.43728 0.0
C236 C 0.5673 0.07848 0.44994 0.0
C237 C 0.58533 0.10086 0.43628 0.0
H238 H 0.6125 0.12138 0.32908 0.0
H239 H 0.59918 0.0983 0.36046 0.0
H240 H 0.57756 0.1168 0.33648 0.0
H241 H 0.54451 0.11638 0.37556 0.0
H242 H 0.51289 0.07737 0.3993 0.0
H243 H 0.73703 0.65993 0.34771 0.0
H244 H 0.77623 0.64287 0.37111 0.0
H245 H 0.81773 0.72977 0.38512 0.0
H246 H 0.77837 0.74705 0.36175 0.0
H247 H 0.8278 0.65364 0.35287 0.0
H248 H 0.82696 0.69199 0.4692 0.0
H249 H 0.7989 0.6911 0.44136 0.0
H250 H 0.82841 0.71907 0.43914 0.0
C251 C 0.75454 0.67546 0.3556 0.0
C252 C 0.7546 0.70486 0.35278 0.0
C253 C 0.7769 0.66567 0.36912 0.0
C254 C 0.79982 0.685 0.38021 0.0
C255 C 0.80007 0.71442 0.37733 0.0
H256 H 0.94605 0.63378 0.47002 0.0
H257 H 0.91657 0.6644 0.44523 0.0
C258 C 0.7776 0.72426 0.36389 0.0
C259 C 0.82355 0.67404 0.39392 0.0
H260 H 0.86188 0.66845 0.46025 0.0
C261 C 0.83528 0.65699 0.37633 0.0
C262 C 0.83356 0.67868 0.42444 0.0
C263 C 0.82124 0.69601 0.44479 0.0
C264 C 0.85599 0.64359 0.38869 0.0
C265 C 0.86515 0.64719 0.41953 0.0
C266 C 0.8546 0.66555 0.43668 0.0
C267 C 0.8832 0.62938 0.43503 0.0
C268 C 0.86755 0.62519 0.3688 0.0
C269 C 0.87394 0.59977 0.43809 0.0
C270 C 0.89052 0.58239 0.4522 0.0
C271 C 0.91686 0.5942 0.4636 0.0
C272 C 0.92601 0.62401 0.4611 0.0
C273 C 0.9092 0.64151 0.44706 0.0
H274 H 0.86429 0.63113 0.34433 0.0
H275 H 0.8895 0.62694 0.37447 0.0
H276 H 0.8574 0.60253 0.37252 0.0
H277 H 0.85374 0.59006 0.42955 0.0
H278 H 0.88266 0.55958 0.45396 0.0
H279 H 0.29725 0.77213 0.34829 0.0
H280 H 0.32193 0.81608 0.37144 0.0
H281 H 0.39553 0.78424 0.37469 0.0
H282 H 0.37105 0.74016 0.352 0.0
H283 H 0.35092 0.82212 0.4276 0.0
H284 H 0.41739 0.86418 0.33482 0.0
H285 H 0.38775 0.83621 0.32947 0.0
H286 H 0.41865 0.82798 0.34672 0.0
C287 C 0.31868 0.77442 0.35398 0.0
C288 C 0.33214 0.75255 0.34813 0.0
C289 C 0.33279 0.79965 0.36707 0.0
C290 C 0.36067 0.80369 0.37435 0.0
C291 C 0.37415 0.78194 0.36858 0.0
H292 H 0.46728 0.90311 0.50324 0.0
H293 H 0.43401 0.86837 0.47504 0.0
C294 C 0.36009 0.7567 0.35557 0.0
C295 C 0.37554 0.83001 0.38927 0.0
H296 H 0.43007 0.88492 0.38325 0.0
C297 C 0.36801 0.83606 0.41773 0.0
C298 C 0.39758 0.8485 0.37621 0.0
C299 C 0.40569 0.84411 0.34498 0.0
C300 C 0.38275 0.85922 0.4341 0.0
C301 C 0.4058 0.87665 0.42185 0.0
C302 C 0.41252 0.87147 0.39274 0.0
C303 C 0.42447 0.89872 0.43988 0.0
C304 C 0.37368 0.86462 0.46455 0.0
C305 C 0.43041 0.92749 0.42945 0.0
C306 C 0.44961 0.94762 0.44565 0.0
C307 C 0.46349 0.93915 0.47225 0.0
C308 C 0.45706 0.91042 0.48281 0.0
C309 C 0.43784 0.89049 0.46681 0.0
H310 H 0.35183 0.85571 0.46631 0.0
H311 H 0.38492 0.85402 0.48273 0.0
H312 H 0.37768 0.88783 0.46869 0.0
H313 H 0.42045 0.93427 0.40859 0.0
H314 H 0.4542 0.96953 0.43685 0.0
H315 H 0.25591 0.7133 0.69045 0.0
H316 H 0.21202 0.6915 0.66632 0.0
H317 H 0.23441 0.60918 0.67406 0.0
H318 H 0.27834 0.6308 0.69802 0.0
H319 H 0.20205 0.66416 0.61306 0.0
H320 H 0.1597 0.59044 0.70621 0.0
H321 H 0.18864 0.61909 0.71232 0.0
H322 H 0.19251 0.58592 0.69776 0.0
C323 C 0.25148 0.69052 0.68711 0.0
C324 C 0.27072 0.67382 0.69625 0.0
C325 C 0.22631 0.67807 0.67344 0.0
C326 C 0.21969 0.64861 0.66876 0.0
C327 C 0.23872 0.63182 0.67812 0.0
H328 H 0.11571 0.5529 0.53497 0.0
H329 H 0.15132 0.58226 0.56596 0.0
C330 C 0.2639 0.64425 0.69181 0.0
C331 C 0.19369 0.63575 0.65225 0.0
H332 H 0.13841 0.58137 0.65625 0.0
C333 C 0.18798 0.6463 0.62269 0.0
C334 C 0.17503 0.61273 0.6649 0.0
C335 C 0.1791 0.60155 0.69716 0.0
C336 C 0.16488 0.63363 0.60497 0.0
C337 C 0.14714 0.60945 0.61691 0.0
C338 C 0.15211 0.59975 0.64699 0.0
C339 C 0.12476 0.59258 0.59768 0.0
C340 C 0.15986 0.64608 0.57343 0.0
C341 C 0.09781 0.58814 0.60538 0.0
C342 C 0.07714 0.57112 0.58758 0.0
C343 C 0.08319 0.55796 0.56202 0.0
C344 C 0.1102 0.5627 0.55441 0.0
C345 C 0.13068 0.57968 0.57204 0.0
H346 H 0.16982 0.66899 0.57136 0.0
H347 H 0.16835 0.63443 0.55681 0.0
H348 H 0.13795 0.64402 0.56729 0.0
H349 H 0.09281 0.59774 0.62523 0.0
H350 H 0.0566 0.56777 0.59418 0.0
H351 H 0.33894 0.23481 0.71545 0.0
H352 H 0.3583 0.19946 0.69154 0.0
H353 H 0.3552 0.24672 0.60573 0.0
H354 H 0.3352 0.28169 0.62938 0.0
H355 H 0.3396 0.1904 0.59785 0.0
H356 H 0.43518 0.21071 0.67023 0.0
H357 H 0.40599 0.19988 0.69172 0.0
H358 H 0.41078 0.23323 0.66991 0.0
C359 C 0.34251 0.2377 0.69152 0.0
C360 C 0.33574 0.26113 0.67434 0.0
C361 C 0.35363 0.21752 0.67787 0.0
C362 C 0.35873 0.22068 0.64692 0.0
C363 C 0.35152 0.24382 0.62963 0.0
H364 H 0.4714 0.148 0.55787 0.0
H365 H 0.44546 0.17774 0.58054 0.0
C366 C 0.3401 0.2638 0.64317 0.0
C367 C 0.37191 0.20021 0.63259 0.0
H368 H 0.42864 0.17193 0.63769 0.0
C369 C 0.35906 0.18633 0.60658 0.0
C370 C 0.3975 0.19518 0.64368 0.0
C371 C 0.41331 0.21073 0.67022 0.0
C372 C 0.37109 0.16763 0.59143 0.0
C373 C 0.39635 0.16212 0.60301 0.0
C374 C 0.40911 0.1759 0.62904 0.0
C375 C 0.41092 0.14368 0.58752 0.0
C376 C 0.3571 0.15471 0.56261 0.0
C377 C 0.40005 0.11452 0.58354 0.0
C378 C 0.41492 0.09728 0.57035 0.0
C379 C 0.44099 0.10889 0.56125 0.0
C380 C 0.45152 0.13818 0.5649 0.0
C381 C 0.43669 0.15531 0.57785 0.0
H382 H 0.34167 0.16658 0.55262 0.0
H383 H 0.37186 0.15443 0.54543 0.0
H384 H 0.34685 0.13233 0.56775 0.0
H385 H 0.38035 0.10497 0.59121 0.0
H386 H 0.40623 0.07482 0.56782 0.0
H387 H 0.78194 0.3161 0.68896 0.0
H388 H 0.8259 0.33927 0.6706 0.0
H389 H 0.80095 0.42028 0.66336 0.0
H390 H 0.75701 0.39732 0.68125 0.0
H391 H 0.82469 0.40534 0.61065 0.0
H392 H 0.88738 0.39573 0.71829 0.0
H393 H 0.86493 0.36372 0.70557 0.0
H394 H 0.85129 0.39273 0.71737 0.0
C395 C 0.78583 0.33883 0.68338 0.0
C396 C 0.76604 0.3549 0.68672 0.0
C397 C 0.81101 0.35206 0.67315 0.0
C398 C 0.81677 0.38154 0.66597 0.0
C399 C 0.79697 0.39754 0.669 0.0
H400 H 0.95746 0.50908 0.62979 0.0
H401 H 0.9199 0.47664 0.65272 0.0
C402 C 0.77193 0.38441 0.67938 0.0
C403 C 0.84309 0.39581 0.65448 0.0
H404 H 0.91016 0.41697 0.67553 0.0
C405 C 0.84342 0.4077 0.62472 0.0
C406 C 0.86741 0.39906 0.67304 0.0
C407 C 0.86793 0.38735 0.70544 0.0
C408 C 0.86741 0.42295 0.61306 0.0
C409 C 0.89178 0.42617 0.63158 0.0
C410 C 0.89149 0.41419 0.66132 0.0
C411 C 0.91732 0.44343 0.62079 0.0
C412 C 0.86637 0.43626 0.58129 0.0
C413 C 0.92912 0.43492 0.59612 0.0
C414 C 0.95065 0.45337 0.58296 0.0
C415 C 0.96078 0.48074 0.59423 0.0
C416 C 0.95016 0.48827 0.6204 0.0
C417 C 0.92865 0.46975 0.63356 0.0
H418 H 0.84537 0.43644 0.57226 0.0
H419 H 0.87818 0.45854 0.58077 0.0
H420 H 0.87537 0.42384 0.56591 0.0
H421 H 0.9209 0.4145 0.58621 0.0
H422 H 0.95833 0.44673 0.56293 0.0
H423 H 0.66597 0.71266 0.56411 0.0
H424 H 0.64852 0.75568 0.5484 0.0
H425 H 0.65574 0.77988 0.64176 0.0
H426 H 0.67262 0.73668 0.65757 0.0
H427 H 0.60794 0.78457 0.6142 0.0
H428 H 0.68978 0.83726 0.5414 0.0
H429 H 0.67355 0.80205 0.53027 0.0
H430 H 0.69253 0.80669 0.56638 0.0
C431 C 0.66386 0.72726 0.58119 0.0
C432 C 0.67053 0.72141 0.61203 0.0
C433 C 0.65411 0.75187 0.5722 0.0
C434 C 0.65133 0.77121 0.59386 0.0
C435 C 0.65783 0.76526 0.62468 0.0
H436 H 0.62412 0.94367 0.57467 0.0
H437 H 0.6437 0.90092 0.58237 0.0
C438 C 0.66731 0.74055 0.6337 0.0
C439 C 0.64062 0.79711 0.58481 0.0
H440 H 0.65166 0.85898 0.541 0.0
C441 C 0.61754 0.80086 0.59824 0.0
C442 C 0.65331 0.81838 0.56409 0.0
C443 C 0.67881 0.81609 0.5499 0.0
C444 C 0.60679 0.82532 0.59164 0.0
C445 C 0.61914 0.84629 0.57052 0.0
C446 C 0.64222 0.84266 0.55702 0.0
C447 C 0.60854 0.87242 0.56288 0.0
C448 C 0.58262 0.8288 0.60781 0.0
C449 C 0.58264 0.87048 0.54871 0.0
C450 C 0.57131 0.89465 0.54468 0.0
C451 C 0.58587 0.92129 0.55432 0.0
C452 C 0.61234 0.92341 0.56723 0.0
C453 C 0.6236 0.8991 0.57147 0.0
H454 H 0.57951 0.8142 0.62825 0.0
H455 H 0.58485 0.85111 0.61485 0.0
H456 H 0.56427 0.8238 0.59216 0.0
H457 H 0.57092 0.85009 0.54152 0.0
H458 H 0.55091 0.89224 0.53456 0.0
H459 H 0.33312 0.27869 0.37414 0.0
H460 H 0.35 0.23543 0.38948 0.0
H461 H 0.36391 0.26248 0.48187 0.0
H462 H 0.34684 0.30583 0.46666 0.0
H463 H 0.40103 0.23454 0.41395 0.0
H464 H 0.32445 0.17908 0.49202 0.0
H465 H 0.31896 0.20836 0.46636 0.0
H466 H 0.33947 0.21521 0.5012 0.0
C467 C 0.33977 0.27539 0.39772 0.0
C468 C 0.33886 0.29562 0.41921 0.0
C469 C 0.34921 0.25063 0.40648 0.0
C470 C 0.35787 0.24566 0.43684 0.0
C471 C 0.35675 0.26566 0.45846 0.0
H472 H 0.46702 0.13284 0.49163 0.0
H473 H 0.4443 0.17312 0.48527 0.0
C474 C 0.34714 0.29042 0.44973 0.0
C475 C 0.36997 0.22058 0.44517 0.0
H476 H 0.36332 0.15912 0.48947 0.0
C477 C 0.3928 0.21805 0.43047 0.0
C478 C 0.35901 0.1991 0.4666 0.0
C479 C 0.33398 0.20034 0.4823 0.0
C480 C 0.40507 0.19459 0.43664 0.0
C481 C 0.39449 0.1734 0.45851 0.0
C482 C 0.37152 0.17572 0.47306 0.0
C483 C 0.40688 0.14843 0.46589 0.0
C484 C 0.42895 0.19239 0.41924 0.0
C485 C 0.39288 0.12107 0.45821 0.0
C486 C 0.4057 0.09786 0.46211 0.0
C487 C 0.43269 0.10178 0.47377 0.0
C488 C 0.44626 0.1291 0.48248 0.0
C489 C 0.43337 0.15217 0.4788 0.0
H490 H 0.4305 0.20668 0.39847 0.0
H491 H 0.44775 0.19869 0.43393 0.0
H492 H 0.42764 0.17012 0.4125 0.0
H493 H 0.37235 0.11786 0.44829 0.0
H494 H 0.39466 0.07704 0.45542 0.0
H495 H 0.73836 0.3983 0.33825 0.0
H496 H 0.78184 0.42039 0.36293 0.0
H497 H 0.80705 0.33959 0.36635 0.0
H498 H 0.76361 0.31733 0.34158 0.0
H499 H 0.81663 0.36473 0.42086 0.0
H500 H 0.85612 0.4434 0.33031 0.0
H501 H 0.82312 0.4462 0.3399 0.0
H502 H 0.82782 0.41424 0.32336 0.0
C503 C 0.75332 0.38532 0.34369 0.0
C504 C 0.74742 0.35601 0.33783 0.0
C505 C 0.77825 0.39801 0.3578 0.0
C506 C 0.79796 0.38179 0.36615 0.0
C507 C 0.79224 0.3526 0.36007 0.0
H508 H 0.96096 0.46378 0.43911 0.0
H509 H 0.92444 0.43402 0.40828 0.0
C510 C 0.76732 0.33987 0.346 0.0
C511 C 0.82383 0.39486 0.38284 0.0
H512 H 0.87801 0.45064 0.38015 0.0
C513 C 0.83019 0.38332 0.41177 0.0
C514 C 0.84183 0.41885 0.37089 0.0
C515 C 0.83706 0.43124 0.33928 0.0
C516 C 0.85334 0.39582 0.42955 0.0
C517 C 0.87048 0.4208 0.41833 0.0
C518 C 0.86479 0.43162 0.38887 0.0
C519 C 0.89312 0.43719 0.43766 0.0
C520 C 0.85912 0.38225 0.46034 0.0
C521 C 0.88768 0.4488 0.46436 0.0
C522 C 0.90835 0.4657 0.48186 0.0
C523 C 0.93506 0.47159 0.47308 0.0
C524 C 0.94067 0.45951 0.44661 0.0
C525 C 0.91981 0.44263 0.42892 0.0
H526 H 0.84951 0.35919 0.46156 0.0
H527 H 0.88115 0.38451 0.46582 0.0
H528 H 0.85078 0.39294 0.47792 0.0
H529 H 0.86725 0.4454 0.47132 0.0
H530 H 0.90323 0.47461 0.50209 0.0
H531 H 0.72457 0.79584 0.36187 0.0
H532 H 0.70665 0.8306 0.38871 0.0
H533 H 0.62708 0.77754 0.37934 0.0
H534 H 0.64481 0.74267 0.35264 0.0
H535 H 0.66207 0.85931 0.36629 0.0
H536 H 0.64239 0.79338 0.47272 0.0
H537 H 0.66548 0.7869 0.44607 0.0
H538 H 0.62976 0.7754 0.43829 0.0
C539 C 0.70327 0.79154 0.36564 0.0
C540 C 0.6861 0.76649 0.35516 0.0
C541 C 0.69308 0.81145 0.38089 0.0
C542 C 0.66563 0.80645 0.38632 0.0
C543 C 0.6484 0.78161 0.37568 0.0
H544 H 0.54921 0.88122 0.46104 0.0
H545 H 0.57695 0.85218 0.44025 0.0
C546 C 0.65851 0.76185 0.36019 0.0
C547 C 0.65471 0.82739 0.40257 0.0
H548 H 0.62287 0.83457 0.46609 0.0
C549 C 0.65378 0.85413 0.38828 0.0
C550 C 0.64408 0.82055 0.43131 0.0
C551 C 0.64562 0.7926 0.44822 0.0
C552 C 0.64121 0.87367 0.40128 0.0
C553 C 0.62973 0.86642 0.42958 0.0
C554 C 0.63161 0.84008 0.44437 0.0
C555 C 0.61357 0.88459 0.44292 0.0
C556 C 0.63916 0.9013 0.38396 0.0
C557 C 0.625 0.9125 0.45171 0.0
C558 C 0.60905 0.92938 0.46359 0.0
C559 C 0.58146 0.91855 0.46694 0.0
C560 C 0.57032 0.89041 0.45857 0.0
C561 C 0.58618 0.87367 0.44676 0.0
H562 H 0.64444 0.90119 0.36004 0.0
H563 H 0.61845 0.90543 0.38399 0.0
H564 H 0.65325 0.91922 0.39511 0.0
H565 H 0.64623 0.92119 0.44948 0.0
H566 H 0.61832 0.95083 0.47016 0.0
H567 H 0.26034 0.68192 0.39099 0.0
H568 H 0.2163 0.65788 0.40813 0.0
H569 H 0.18946 0.63412 0.31655 0.0
H570 H 0.23313 0.65871 0.29894 0.0
H571 H 0.15644 0.66587 0.37213 0.0
H572 H 0.18506 0.55929 0.38526 0.0
H573 H 0.20982 0.59179 0.3915 0.0
H574 H 0.19616 0.58338 0.35375 0.0
C575 C 0.24496 0.672 0.37436 0.0
C576 C 0.25037 0.67223 0.34356 0.0
C577 C 0.21986 0.65817 0.38425 0.0
C578 C 0.19974 0.64427 0.36357 0.0
C579 C 0.20481 0.64473 0.33281 0.0
H580 H 0.05315 0.52074 0.40079 0.0
H581 H 0.09017 0.55124 0.375 0.0
C582 C 0.22986 0.65861 0.32287 0.0
C583 C 0.17373 0.62837 0.37432 0.0
H584 H 0.14162 0.56184 0.39792 0.0
C585 C 0.15307 0.64311 0.37772 0.0
C586 C 0.16945 0.59871 0.38127 0.0
C587 C 0.1912 0.58214 0.37788 0.0
C588 C 0.12811 0.62887 0.38811 0.0
C589 C 0.12401 0.59923 0.39583 0.0
C590 C 0.14467 0.58451 0.39195 0.0
C591 C 0.099 0.58312 0.40917 0.0
C592 C 0.1063 0.64563 0.39029 0.0
C593 C 0.09114 0.5912 0.4366 0.0
C594 C 0.06979 0.57395 0.45127 0.0
C595 C 0.05606 0.54796 0.43906 0.0
C596 C 0.06319 0.54058 0.41087 0.0
C597 C 0.08446 0.55795 0.39613 0.0
H598 H 0.10921 0.66492 0.37474 0.0
H599 H 0.086 0.63239 0.38482 0.0
H600 H 0.10704 0.65288 0.41381 0.0
H601 H 0.10237 0.61013 0.44752 0.0
H602 H 0.0651 0.58026 0.47306 0.0
H603 H 0.39041 0.73929 0.69212 0.0
H604 H 0.41482 0.78457 0.67047 0.0
H605 H 0.34328 0.81986 0.66958 0.0
H606 H 0.31872 0.77464 0.6916 0.0
H607 H 0.40051 0.81393 0.61395 0.0
H608 H 0.4042 0.87821 0.71583 0.0
H609 H 0.39774 0.83963 0.71788 0.0
H610 H 0.37172 0.8579 0.70312 0.0
C611 C 0.3799 0.75675 0.68754 0.0
C612 C 0.35266 0.75342 0.69376 0.0
C613 C 0.39384 0.78255 0.67502 0.0
C614 C 0.38094 0.80565 0.66874 0.0
C615 C 0.35369 0.80239 0.67461 0.0
H616 H 0.4473 0.9567 0.55692 0.0
H617 H 0.41614 0.91734 0.58081 0.0
C618 C 0.33964 0.77648 0.68695 0.0
C619 C 0.39608 0.83299 0.65571 0.0
H620 H 0.42295 0.90246 0.67203 0.0
C621 C 0.40528 0.83335 0.62654 0.0
C622 C 0.40247 0.85818 0.67234 0.0
C623 C 0.39374 0.85863 0.70413 0.0
C624 C 0.42078 0.85823 0.61355 0.0
C625 C 0.42707 0.8835 0.63011 0.0
C626 C 0.41786 0.88315 0.65929 0.0
C627 C 0.44447 0.90994 0.618 0.0
C628 C 0.43098 0.85708 0.58254 0.0
C629 C 0.47029 0.91976 0.63183 0.0
C630 C 0.48818 0.94238 0.61834 0.0
C631 C 0.48053 0.95569 0.59076 0.0
C632 C 0.45397 0.94699 0.5781 0.0
C633 C 0.43614 0.92432 0.59159 0.0
H634 H 0.42894 0.83478 0.57551 0.0
H635 H 0.41916 0.86828 0.56551 0.0
H636 H 0.45249 0.86799 0.58215 0.0
H637 H 0.47705 0.90905 0.65233 0.0
H638 H 0.5084 0.94851 0.62881 0.0
H639 H 0.24532 0.31987 0.71397 0.0
H640 H 0.20697 0.33803 0.68946 0.0
H641 H 0.24405 0.34702 0.60391 0.0
H642 H 0.28213 0.3283 0.6282 0.0
H643 H 0.20744 0.38919 0.66393 0.0
H644 H 0.16838 0.30971 0.57653 0.0
H645 H 0.19165 0.30323 0.60787 0.0
H646 H 0.20374 0.32427 0.57487 0.0
C647 C 0.24518 0.32553 0.68989 0.0
C648 C 0.26673 0.32263 0.67301 0.0
C649 C 0.2232 0.33577 0.67586 0.0
C650 C 0.22231 0.34344 0.64468 0.0
C651 C 0.24378 0.34044 0.62775 0.0
H652 H 0.14147 0.46899 0.55683 0.0
H653 H 0.17254 0.43946 0.57815 0.0
C654 C 0.26565 0.32991 0.64171 0.0
C655 C 0.20012 0.35685 0.63059 0.0
H656 H 0.15288 0.35385 0.57062 0.0
C657 C 0.19535 0.3812 0.64374 0.0
C658 C 0.18406 0.34634 0.60437 0.0
C659 C 0.18699 0.31929 0.59025 0.0
C660 C 0.17563 0.39578 0.63099 0.0
C661 C 0.16057 0.38617 0.60392 0.0
C662 C 0.16464 0.36132 0.59121 0.0
C663 C 0.14144 0.4026 0.5881 0.0
C664 C 0.17113 0.42147 0.64661 0.0
C665 C 0.11359 0.39123 0.5854 0.0
C666 C 0.09558 0.40812 0.57296 0.0
C667 C 0.10523 0.43661 0.56315 0.0
C668 C 0.13324 0.44735 0.56475 0.0
C669 C 0.1511 0.43049 0.57689 0.0
H670 H 0.17871 0.42135 0.67088 0.0
H671 H 0.18215 0.4412 0.6352 0.0
H672 H 0.14939 0.42234 0.64531 0.0
H673 H 0.10576 0.36962 0.59373 0.0
H674 H 0.07416 0.39913 0.57173 0.0
H675 H 0.64522 0.28834 0.67675 0.0
H676 H 0.62089 0.24418 0.65402 0.0
H677 H 0.69407 0.21134 0.66059 0.0
H678 H 0.71855 0.25532 0.68376 0.0
H679 H 0.66677 0.20545 0.60359 0.0
H680 H 0.59712 0.16442 0.69378 0.0
H681 H 0.59656 0.20064 0.68128 0.0
H682 H 0.62681 0.19215 0.70001 0.0
C683 C 0.65609 0.27155 0.67391 0.0
C684 C 0.68388 0.27544 0.68224 0.0
C685 C 0.64212 0.24627 0.66088 0.0
C686 C 0.65555 0.22423 0.65599 0.0
C687 C 0.68325 0.22799 0.66425 0.0
H688 H 0.56535 0.05744 0.59217 0.0
H689 H 0.59767 0.0933 0.62133 0.0
C690 C 0.69724 0.25324 0.67735 0.0
C691 C 0.64094 0.19793 0.64085 0.0
H692 H 0.58618 0.14306 0.6455 0.0
C693 C 0.64935 0.19163 0.61294 0.0
C694 C 0.61843 0.1796 0.65323 0.0
C695 C 0.60932 0.18432 0.68387 0.0
C696 C 0.63513 0.16831 0.59644 0.0
C697 C 0.61172 0.15096 0.60799 0.0
C698 C 0.60403 0.15645 0.63655 0.0
C699 C 0.59374 0.12862 0.58968 0.0
C700 C 0.64514 0.16264 0.56657 0.0
C701 C 0.58088 0.13654 0.56228 0.0
C702 C 0.56248 0.11627 0.54576 0.0
C703 C 0.55639 0.0875 0.55625 0.0
C704 C 0.56971 0.07937 0.5834 0.0
C705 C 0.58809 0.09984 0.60012 0.0
H706 H 0.66701 0.17183 0.5654 0.0
H707 H 0.64158 0.13936 0.5629 0.0
H708 H 0.63414 0.17276 0.54778 0.0
H709 H 0.58453 0.15865 0.55402 0.0
H710 H 0.55264 0.12333 0.52495 0.0
H711 H 0.72745 0.61731 0.60118 0.0
H712 H 0.76934 0.61043 0.58153 0.0
H713 H 0.8005 0.70133 0.58129 0.0
H714 H 0.75905 0.70836 0.60167 0.0
H715 H 0.7969 0.63641 0.52712 0.0
H716 H 0.85526 0.66445 0.63717 0.0
H717 H 0.81889 0.65529 0.63406 0.0
H718 H 0.8361 0.68958 0.62005 0.0
C719 C 0.74323 0.6358 0.59693 0.0
C720 C 0.74007 0.66333 0.60311 0.0
C721 C 0.76698 0.63188 0.58548 0.0
C722 C 0.78792 0.65539 0.58022 0.0
C723 C 0.78454 0.68297 0.58542 0.0
H724 H 0.95305 0.63767 0.55671 0.0
H725 H 0.91429 0.66064 0.55802 0.0
C726 C 0.76081 0.68692 0.59686 0.0
C727 C 0.81388 0.65065 0.57112 0.0
H728 H 0.87799 0.64928 0.59916 0.0
C729 C 0.81478 0.63951 0.54265 0.0
C730 C 0.83712 0.65506 0.5914 0.0
C731 C 0.83696 0.66659 0.62248 0.0
C732 C 0.83821 0.63167 0.53429 0.0
C733 C 0.86103 0.63459 0.55527 0.0
C734 C 0.86049 0.64712 0.5831 0.0
C735 C 0.88443 0.62183 0.55059 0.0
C736 C 0.83807 0.61985 0.50334 0.0
C737 C 0.88045 0.59247 0.546 0.0
C738 C 0.90241 0.57942 0.54514 0.0
C739 C 0.92882 0.59537 0.5494 0.0
C740 C 0.93289 0.62484 0.55362 0.0
C741 C 0.91081 0.63799 0.55418 0.0
H742 H 0.82453 0.62922 0.48657 0.0
H743 H 0.85861 0.62401 0.49499 0.0
H744 H 0.83029 0.59642 0.50468 0.0
H745 H 0.86032 0.57939 0.54417 0.0
H746 H 0.89863 0.55663 0.54196 0.0
H747 H 0.3353 0.33938 0.31951 0.0
H748 H 0.35246 0.36491 0.27335 0.0
H749 H 0.35825 0.44539 0.31507 0.0
H750 H 0.34143 0.41997 0.36172 0.0
H751 H 0.33469 0.4411 0.25116 0.0
H752 H 0.43328 0.40779 0.2709 0.0
H753 H 0.40428 0.37917 0.27318 0.0
H754 H 0.41054 0.40646 0.30063 0.0
C755 C 0.34037 0.36251 0.31898 0.0
C756 C 0.33737 0.37766 0.34441 0.0
C757 C 0.35001 0.37703 0.29255 0.0
C758 C 0.35686 0.40695 0.29105 0.0
C759 C 0.35307 0.42226 0.31592 0.0
H760 H 0.45805 0.49574 0.15178 0.0
H761 H 0.43647 0.48448 0.19959 0.0
C762 C 0.34343 0.40772 0.34246 0.0
C763 C 0.36898 0.42198 0.26382 0.0
H764 H 0.42386 0.4286 0.22228 0.0
C765 C 0.35428 0.43866 0.24489 0.0
C766 C 0.39469 0.41901 0.25608 0.0
C767 C 0.41179 0.40236 0.27635 0.0
C768 C 0.36429 0.45159 0.21762 0.0
C769 C 0.38944 0.44742 0.20919 0.0
C770 C 0.40451 0.43163 0.22875 0.0
C771 C 0.40023 0.45805 0.17964 0.0
C772 C 0.34795 0.46952 0.19805 0.0
C773 C 0.38674 0.44735 0.15249 0.0
C774 C 0.39901 0.45379 0.12501 0.0
C775 C 0.42507 0.47083 0.12435 0.0
C776 C 0.438 0.4825 0.15145 0.0
C777 C 0.4257 0.47613 0.17883 0.0
H778 H 0.33318 0.47697 0.21127 0.0
H779 H 0.36122 0.4884 0.18761 0.0
H780 H 0.33658 0.4565 0.17947 0.0
H781 H 0.36728 0.43293 0.15273 0.0
H782 H 0.38851 0.4445 0.10454 0.0
H783 H 0.38985 0.67953 0.74983 0.0
H784 H 0.41356 0.65837 0.79266 0.0
H785 H 0.34064 0.63883 0.84013 0.0
H786 H 0.31668 0.66033 0.79745 0.0
H787 H 0.40353 0.67502 0.86785 0.0
H788 H 0.38657 0.56423 0.82714 0.0
H789 H 0.39208 0.59425 0.80012 0.0
H790 H 0.36158 0.58613 0.81953 0.0
C791 C 0.37882 0.67085 0.76941 0.0
C792 C 0.35137 0.67177 0.77025 0.0
C793 C 0.3924 0.65867 0.79378 0.0
C794 C 0.37884 0.64714 0.81949 0.0
C795 C 0.3514 0.64763 0.8204 0.0
H796 H 0.44571 0.54755 0.9673 0.0
H797 H 0.41419 0.56855 0.93303 0.0
C798 C 0.33773 0.65975 0.79594 0.0
C799 C 0.39368 0.63507 0.84551 0.0
H800 H 0.41566 0.57468 0.87102 0.0
C801 C 0.40603 0.65303 0.86877 0.0
C802 C 0.39671 0.60638 0.84663 0.0
C803 C 0.38355 0.5864 0.82214 0.0
C804 C 0.42189 0.64314 0.89292 0.0
C805 C 0.42581 0.61467 0.89349 0.0
C806 C 0.41272 0.5965 0.8706 0.0
C807 C 0.44445 0.60365 0.91665 0.0
C808 C 0.43425 0.66328 0.91759 0.0
C809 C 0.47194 0.61655 0.91916 0.0
C810 C 0.49002 0.60469 0.93882 0.0
C811 C 0.48108 0.57946 0.95628 0.0
C812 C 0.45336 0.56706 0.95439 0.0
C813 C 0.43528 0.57896 0.93468 0.0
H814 H 0.42284 0.68055 0.91906 0.0
H815 H 0.43499 0.65177 0.94007 0.0
H816 H 0.45517 0.67346 0.91237 0.0
H817 H 0.47964 0.63525 0.90505 0.0
H818 H 0.51119 0.61478 0.93946 0.0
H819 H 0.37961 0.33245 0.74463 0.0
H820 H 0.40168 0.35701 0.78961 0.0
H821 H 0.32416 0.35442 0.82427 0.0
H822 H 0.30186 0.32964 0.77931 0.0
H823 H 0.35631 0.40752 0.82671 0.0
H824 H 0.41343 0.3275 0.87654 0.0
H825 H 0.41962 0.33641 0.8374 0.0
H826 H 0.38636 0.31904 0.84746 0.0
C827 C 0.36722 0.33655 0.76207 0.0
C828 C 0.33892 0.32892 0.75832 0.0
C829 C 0.37991 0.35061 0.78785 0.0
C830 C 0.36463 0.35719 0.81064 0.0
C831 C 0.33639 0.34946 0.80709 0.0
H832 H 0.4489 0.43401 0.9783 0.0
H833 H 0.41637 0.40235 0.94476 0.0
C834 C 0.32367 0.33541 0.78128 0.0
C835 C 0.37814 0.37372 0.8371 0.0
H836 H 0.42808 0.3753 0.89388 0.0
C837 C 0.37173 0.40027 0.84165 0.0
C838 C 0.39796 0.36413 0.857 0.0
C839 C 0.40457 0.33507 0.8546 0.0
C840 C 0.38556 0.41808 0.86446 0.0
C841 C 0.40664 0.40933 0.88299 0.0
C842 C 0.41208 0.38215 0.87953 0.0
C843 C 0.42479 0.42905 0.90406 0.0
C844 C 0.37769 0.44633 0.86823 0.0
C845 C 0.4403 0.45447 0.89237 0.0
C846 C 0.45878 0.47242 0.91131 0.0
C847 C 0.46239 0.46538 0.94252 0.0
C848 C 0.4465 0.44013 0.95443 0.0
C849 C 0.42799 0.422 0.93528 0.0
H850 H 0.35644 0.44583 0.85974 0.0
H851 H 0.38023 0.45219 0.89239 0.0
H852 H 0.39075 0.46326 0.85485 0.0
H853 H 0.43862 0.46013 0.86831 0.0
H854 H 0.47064 0.49165 0.90127 0.0
H855 H 0.70649 0.40092 0.73275 0.0
H856 H 0.68776 0.42603 0.7695 0.0
H857 H 0.6473 0.34545 0.8085 0.0
H858 H 0.66777 0.32005 0.77343 0.0
H859 H 0.63934 0.42946 0.77779 0.0
H860 H 0.67946 0.38282 0.8843 0.0
H861 H 0.69067 0.37736 0.84777 0.0
H862 H 0.66011 0.35543 0.861 0.0
C863 C 0.69418 0.38839 0.7496 0.0
C864 C 0.68906 0.35829 0.7502 0.0
C865 C 0.6832 0.40288 0.77047 0.0
C866 C 0.66653 0.38774 0.79234 0.0
C867 C 0.66077 0.35772 0.79255 0.0
H868 H 0.54606 0.44923 0.87934 0.0
H869 H 0.57344 0.42935 0.84684 0.0
C870 C 0.67212 0.34317 0.77199 0.0
C871 C 0.65424 0.40343 0.8139 0.0
H872 H 0.64272 0.40666 0.88874 0.0
C873 C 0.64038 0.42462 0.80208 0.0
C874 C 0.65605 0.39781 0.84576 0.0
C875 C 0.67265 0.37735 0.86047 0.0
C876 C 0.62746 0.43941 0.82096 0.0
C877 C 0.62749 0.43215 0.85246 0.0
C878 C 0.64228 0.41188 0.86452 0.0
C879 C 0.61112 0.44424 0.87287 0.0
C880 C 0.61406 0.46285 0.80691 0.0
C881 C 0.62297 0.45839 0.89912 0.0
C882 C 0.60718 0.46955 0.91817 0.0
C883 C 0.57927 0.46664 0.91129 0.0
C884 C 0.56752 0.4521 0.88524 0.0
C885 C 0.5832 0.44086 0.86643 0.0
H886 H 0.62353 0.47231 0.78585 0.0
H887 H 0.59253 0.45377 0.80066 0.0
H888 H 0.61511 0.48016 0.82293 0.0
H889 H 0.64446 0.46106 0.90468 0.0
H890 H 0.61684 0.4807 0.93801 0.0
H891 H 0.71382 0.63503 0.70395 0.0
H892 H 0.69766 0.60987 0.75083 0.0
H893 H 0.61567 0.61079 0.71806 0.0
H894 H 0.63154 0.63535 0.67083 0.0
H895 H 0.63459 0.6364 0.77643 0.0
H896 H 0.65309 0.52636 0.76958 0.0
H897 H 0.67992 0.55565 0.75979 0.0
H898 H 0.6491 0.54916 0.73622 0.0
C899 C 0.69231 0.62921 0.70635 0.0
C900 C 0.67395 0.63732 0.68371 0.0
C901 C 0.68313 0.61485 0.73316 0.0
C902 C 0.6555 0.60834 0.73771 0.0
C903 C 0.63709 0.61557 0.71483 0.0
H904 H 0.5585 0.52678 0.88089 0.0
H905 H 0.58088 0.53852 0.8335 0.0
C906 C 0.6462 0.62979 0.688 0.0
C907 C 0.64594 0.59692 0.76754 0.0
H908 H 0.63775 0.53786 0.8157 0.0
C909 C 0.63531 0.61488 0.78506 0.0
C910 C 0.64693 0.56884 0.77854 0.0
C911 C 0.6577 0.54868 0.76009 0.0
C912 C 0.62557 0.60551 0.81343 0.0
C913 C 0.62672 0.57752 0.82461 0.0
C914 C 0.63723 0.55941 0.80707 0.0
C915 C 0.61578 0.56662 0.85394 0.0
C916 C 0.61364 0.62543 0.83105 0.0
C917 C 0.62854 0.57782 0.88119 0.0
C918 C 0.61587 0.57112 0.90836 0.0
C919 C 0.59018 0.55322 0.90862 0.0
C920 C 0.5782 0.54077 0.88149 0.0
C921 C 0.59098 0.54735 0.85438 0.0
H922 H 0.61025 0.64454 0.81705 0.0
H923 H 0.59415 0.61418 0.83974 0.0
H924 H 0.62761 0.63278 0.8509 0.0
H925 H 0.6478 0.59265 0.88119 0.0
H926 H 0.62575 0.58087 0.92889 0.0
H927 H 0.63871 0.69249 0.28822 0.0
H928 H 0.61503 0.66673 0.24453 0.0
H929 H 0.69075 0.67171 0.20468 0.0
H930 H 0.7146 0.69755 0.24826 0.0
H931 H 0.61278 0.68071 0.18202 0.0
H932 H 0.65905 0.58586 0.2082 0.0
H933 H 0.66108 0.61346 0.23495 0.0
H934 H 0.68259 0.61919 0.20382 0.0
C935 C 0.65032 0.68844 0.27 0.0
C936 C 0.67861 0.69689 0.27191 0.0
C937 C 0.63675 0.67361 0.24506 0.0
C938 C 0.65114 0.66686 0.22155 0.0
C939 C 0.67927 0.67612 0.22286 0.0
H940 H 0.56588 0.58972 0.05393 0.0
H941 H 0.59776 0.62193 0.08755 0.0
C942 C 0.69287 0.69087 0.24781 0.0
C943 C 0.63668 0.64948 0.19617 0.0
H944 H 0.62971 0.58481 0.16412 0.0
C945 C 0.6166 0.65984 0.17791 0.0
C946 C 0.64157 0.62214 0.191 0.0
C947 C 0.66206 0.6093 0.21063 0.0
C948 C 0.60101 0.64342 0.15497 0.0
C949 C 0.60585 0.61605 0.1499 0.0
C950 C 0.62625 0.60593 0.16779 0.0
C951 C 0.58802 0.59627 0.12865 0.0
C952 C 0.5787 0.65496 0.13722 0.0
C953 C 0.57265 0.5708 0.14039 0.0
C954 C 0.55466 0.55246 0.12137 0.0
C955 C 0.55161 0.55902 0.09 0.0
C956 C 0.5677 0.58408 0.07797 0.0
C957 C 0.58576 0.60259 0.09719 0.0
H958 H 0.57459 0.67417 0.14744 0.0
H959 H 0.58455 0.66098 0.11369 0.0
H960 H 0.55981 0.63843 0.13594 0.0
H961 H 0.57411 0.56539 0.16452 0.0
H962 H 0.54278 0.53327 0.13147 0.0
H963 H 0.33957 0.70912 0.25057 0.0
H964 H 0.35978 0.68513 0.2136 0.0
H965 H 0.33927 0.60558 0.26556 0.0
H966 H 0.31859 0.62933 0.30216 0.0
H967 H 0.40122 0.65951 0.22017 0.0
H968 H 0.31131 0.57967 0.18234 0.0
H969 H 0.30914 0.60926 0.20491 0.0
H970 H 0.3182 0.57748 0.22272 0.0
C971 C 0.33934 0.6865 0.25404 0.0
C972 C 0.32733 0.67109 0.27918 0.0
C973 C 0.3508 0.67277 0.23285 0.0
C974 C 0.35057 0.64336 0.23636 0.0
C975 C 0.33895 0.62804 0.26172 0.0
H976 H 0.46145 0.55581 0.16233 0.0
H977 H 0.43562 0.57941 0.19325 0.0
C978 C 0.32726 0.64169 0.28275 0.0
C979 C 0.36372 0.62906 0.21439 0.0
H980 H 0.35399 0.57147 0.16938 0.0
C981 C 0.39077 0.64041 0.20888 0.0
C982 C 0.35005 0.60436 0.19917 0.0
C983 C 0.3205 0.59216 0.20232 0.0
C984 C 0.40473 0.62735 0.18941 0.0
C985 C 0.39153 0.60174 0.17561 0.0
C986 C 0.36423 0.59087 0.18028 0.0
C987 C 0.40603 0.58568 0.15695 0.0
C988 C 0.43347 0.64132 0.18366 0.0
C989 C 0.39727 0.57999 0.12652 0.0
C990 C 0.41191 0.56607 0.10873 0.0
C991 C 0.43557 0.55768 0.12109 0.0
C992 C 0.44363 0.56247 0.15187 0.0
C993 C 0.42893 0.5761 0.16961 0.0
H994 H 0.43764 0.66453 0.18789 0.0
H995 H 0.44736 0.63136 0.19933 0.0
H996 H 0.43802 0.63857 0.15997 0.0
H997 H 0.37948 0.58691 0.11635 0.0
H998 H 0.40508 0.56252 0.08517 0.0
H999 H 0.70076 0.3729 0.23788 0.0
H1000 H 0.67581 0.39496 0.19662 0.0
H1001 H 0.60254 0.36721 0.24266 0.0
H1002 H 0.62735 0.34618 0.28429 0.0
H1003 H 0.63332 0.36962 0.15816 0.0
H1004 H 0.60169 0.45062 0.22386 0.0
H1005 H 0.62749 0.43161 0.23843 0.0
H1006 H 0.5924 0.41529 0.24063 0.0
C1007 C 0.67943 0.37195 0.23946 0.0
C1008 C 0.6661 0.35773 0.26446 0.0
C1009 C 0.66515 0.38438 0.21574 0.0
C1010 C 0.63734 0.38309 0.21667 0.0
C1011 C 0.62406 0.36901 0.24163 0.0
H1012 H 0.50362 0.4119 0.09713 0.0
H1013 H 0.53564 0.39339 0.13293 0.0
C1014 C 0.63826 0.35666 0.2653 0.0
C1015 C 0.62184 0.3955 0.1912 0.0
H1016 H 0.57786 0.44048 0.17544 0.0
C1017 C 0.62148 0.38539 0.16187 0.0
C1018 C 0.60646 0.41622 0.19594 0.0
C1019 C 0.60721 0.42929 0.22636 0.0
C1020 C 0.60535 0.39462 0.13754 0.0
C1021 C 0.58922 0.41437 0.14268 0.0
C1022 C 0.59011 0.4251 0.1717 0.0
C1023 C 0.5706 0.42364 0.11848 0.0
C1024 C 0.60499 0.38277 0.1066 0.0
C1025 C 0.57979 0.44645 0.09808 0.0
C1026 C 0.56152 0.45719 0.07751 0.0
C1027 C 0.53369 0.44532 0.07704 0.0
C1028 C 0.52483 0.4216 0.09671 0.0
C1029 C 0.54309 0.41098 0.11729 0.0
H1030 H 0.61844 0.36723 0.10631 0.0
H1031 H 0.58411 0.37206 0.09928 0.0
H1032 H 0.61144 0.40053 0.08979 0.0
H1033 H 0.60096 0.45654 0.09877 0.0
H1034 H 0.56912 0.4755 0.06283 0.0
loop_
_geom_bond_atom_site_label_1
_geom_bond_atom_site_label_2
_geom_bond_distance
_geom_bond_site_symmetry_2
_ccdc_geom_bond_type
H0 C3 0.931 . S
H1 C6 0.928 . S
H2 C8 0.930 . S
C3 H0 0.931 . S
C3 C4 1.413 . S
C3 C5 1.360 . S
C4 C3 1.413 . S
C4 C8 1.429 . S
C5 C3 1.360 . S
C5 C6 1.372 . S
C6 H1 0.928 . S
C6 C5 1.372 . S
C6 C7 1.404 . S
C7 C6 1.404 . S
C7 C8 1.391 . S
C8 H2 0.930 . S
C8 C4 1.429 . S
C8 C7 1.391 . S
H9 C12 0.931 . S
H10 C15 0.928 . S
H11 C17 0.930 . S
C12 H9 0.931 . S
C12 C13 1.413 . S
C12 C14 1.360 . S
C13 C12 1.413 . S
C13 C17 1.429 . S
C14 C12 1.360 . S
C14 C15 1.372 . S
C15 H10 0.928 . S
C15 C14 1.372 . S
C15 C16 1.404 . S
C16 C15 1.404 . S
C16 C17 1.391 . S
C17 H11 0.930 . S
C17 C13 1.429 . S
C17 C16 1.391 . S
H18 C21 0.931 . S
H19 C24 0.928 . S
H20 C26 0.930 . S
C21 H18 0.931 . S
C21 C22 1.413 . S
C21 C23 1.360 . S
C22 C21 1.413 . S
C22 C26 1.429 . S
C23 C21 1.360 . S
C23 C24 1.372 . S
C24 H19 0.928 . S
C24 C23 1.372 . S
C24 C25 1.404 . S
C25 C24 1.404 . S
C25 C26 1.391 . S
C26 H20 0.930 . S
C26 C22 1.429 . S
C26 C25 1.391 . S
H27 C30 0.931 . S
H28 C33 0.928 . S
H29 C35 0.930 . S
C30 H27 0.931 . S
C30 C31 1.413 . S
C30 C32 1.360 . S
C31 C30 1.413 . S
C31 C35 1.429 . S
C32 C30 1.360 . S
C32 C33 1.372 . S
C33 H28 0.928 . S
C33 C32 1.372 . S
C33 C34 1.404 . S
C34 C33 1.404 . S
C34 C35 1.391 . S
C35 H29 0.930 . S
C35 C31 1.429 . S
C35 C34 1.391 . S
H36 C39 0.931 . S
H37 C42 0.928 . S
H38 C44 0.930 . S
C39 H36 0.931 . S
C39 C40 1.413 . S
C39 C41 1.360 . S
C40 C39 1.413 . S
C40 C44 1.429 . S
C41 C39 1.360 . S
C41 C42 1.372 . S
C42 H37 0.928 . S
C42 C41 1.372 . S
C42 C43 1.404 . S
C43 C42 1.404 . S
C43 C44 1.391 . S
C44 H38 0.930 . S
C44 C40 1.429 . S
C44 C43 1.391 . S
H45 C48 0.931 . S
H46 C51 0.928 . S
H47 C53 0.930 . S
C48 H45 0.931 . S
C48 C49 1.413 . S
C48 C50 1.360 . S
C49 C48 1.413 . S
C49 C53 1.429 . S
C50 C48 1.360 . S
C50 C51 1.372 . S
C51 H46 0.928 . S
C51 C50 1.372 . S
C51 C52 1.404 . S
C52 C51 1.404 . S
C52 C53 1.391 . S
C53 H47 0.930 . S
C53 C49 1.429 . S
C53 C52 1.391 . S
H54 C57 0.931 . S
H55 C60 0.928 . S
H56 C62 0.930 . S
C57 H54 0.931 . S
C57 C58 1.413 . S
C57 C59 1.360 . S
C58 C57 1.413 . S
C58 C62 1.429 . S
C59 C57 1.360 . S
C59 C60 1.372 . S
C60 H55 0.928 . S
C60 C59 1.372 . S
C60 C61 1.404 . S
C61 C60 1.404 . S
C61 C62 1.391 . S
C62 H56 0.930 . S
C62 C58 1.429 . S
C62 C61 1.391 . S
H63 C66 0.931 . S
H64 C69 0.928 . S
H65 C71 0.930 . S
C66 H63 0.931 . S
C66 C67 1.413 . S
C66 C68 1.360 . S
C67 C66 1.413 . S
C67 C71 1.429 . S
C68 C66 1.360 . S
C68 C69 1.372 . S
C69 H64 0.928 . S
C69 C68 1.372 . S
C69 C70 1.404 . S
C70 C69 1.404 . S
C70 C71 1.391 . S
C71 H65 0.930 . S
C71 C67 1.429 . S
C71 C70 1.391 . S
Co72 O75 2.042 . S
Co72 O82 2.264 . S
Co72 O101 2.286 . S
Co72 O102 2.069 . S
Co72 O104 2.015 . S
Co73 O75 2.122 . S
Co73 O81 2.073 . S
Co73 O82 2.327 . S
Co73 O83 1.976 . S
Co74 O75 2.087 . S
Co74 O77 2.087 1_455 S
Co74 O84 2.111 . S
Co74 O85 2.143 1_455 S
Co74 O89 2.111 1_455 S
Co74 O103 2.143 . S
O75 Co72 2.042 . S
O75 Co73 2.122 . S
O75 Co74 2.087 . S
O75 H76 0.980 . S
H76 O75 0.980 . S
O77 Co74 2.087 1_655 S
O77 Co78 2.042 . S
O77 Co79 2.122 . S
O77 H80 0.980 . S
Co78 O77 2.042 . S
Co78 O86 2.286 . S
Co78 O87 2.069 . S
Co78 O88 2.015 . S
Co78 O91 2.264 . S
Co79 O77 2.122 . S
Co79 O90 1.976 . S
Co79 O91 2.327 . S
Co79 O92 2.073 . S
H80 O77 0.980 . S
O81 Co73 2.073 . S
O81 C96 1.245 . S
O82 Co72 2.264 . S
O82 Co73 2.327 . S
O82 C96 1.257 . S
O83 Co73 1.976 . S
O83 C95 1.251 . S
O84 Co74 2.111 . S
O84 C95 1.274 . S
O85 Co74 2.143 1_655 S
O85 C98 1.246 . S
O86 Co78 2.286 . S
O86 C97 1.259 . S
O87 Co78 2.069 . S
O87 C97 1.289 . S
O88 Co78 2.015 . S
O88 C98 1.257 . S
O89 Co74 2.111 1_655 S
O89 C99 1.274 . S
O90 Co79 1.976 . S
O90 C99 1.251 . S
O91 Co78 2.264 . S
O91 Co79 2.327 . S
O91 C100 1.257 . S
O92 Co79 2.073 . S
O92 C100 1.245 . S
C93 O101 1.259 . S
C93 O102 1.289 . S
C94 O103 1.246 . S
C94 O104 1.257 . S
C95 O83 1.251 . S
C95 O84 1.274 . S
C96 O81 1.245 . S
C96 O82 1.257 . S
C97 O86 1.259 . S
C97 O87 1.289 . S
C98 O85 1.246 . S
C98 O88 1.257 . S
C99 O89 1.274 . S
C99 O90 1.251 . S
C100 O91 1.257 . S
C100 O92 1.245 . S
O101 Co72 2.286 . S
O101 C93 1.259 . S
O102 Co72 2.069 . S
O102 C93 1.289 . S
O103 Co74 2.143 . S
O103 C94 1.246 . S
O104 Co72 2.015 . S
O104 C94 1.257 . S
Co105 O108 2.042 . S
Co105 O115 2.264 . S
Co105 O134 2.286 . S
Co105 O135 2.069 . S
Co105 O137 2.015 . S
Co106 O108 2.122 . S
Co106 O114 2.073 . S
Co106 O115 2.327 . S
Co106 O116 1.976 . S
Co107 O108 2.087 1_545 S
Co107 O110 2.087 . S
Co107 O117 2.111 1_545 S
Co107 O118 2.143 . S
Co107 O122 2.111 . S
Co107 O136 2.143 1_545 S
O108 Co105 2.042 . S
O108 Co106 2.122 . S
O108 Co107 2.087 1_565 S
O108 H109 0.980 . S
H109 O108 0.980 . S
O110 Co107 2.087 . S
O110 Co111 2.042 . S
O110 Co112 2.122 . S
O110 H113 0.980 . S
Co111 O110 2.042 . S
Co111 O119 2.286 . S
Co111 O120 2.069 . S
Co111 O121 2.015 . S
Co111 O124 2.264 . S
Co112 O110 2.122 . S
Co112 O123 1.976 . S
Co112 O124 2.327 . S
Co112 O125 2.073 . S
H113 O110 0.980 . S
O114 Co106 2.073 . S
O114 C129 1.245 . S
O115 Co105 2.264 . S
O115 Co106 2.327 . S
O115 C129 1.257 . S
O116 Co106 1.976 . S
O116 C128 1.251 . S
O117 Co107 2.111 1_565 S
O117 C128 1.274 . S
O118 Co107 2.143 . S
O118 C131 1.246 . S
O119 Co111 2.286 . S
O119 C130 1.259 . S
O120 Co111 2.069 . S
O120 C130 1.289 . S
O121 Co111 2.015 . S
O121 C131 1.257 . S
O122 Co107 2.111 . S
O122 C132 1.274 . S
O123 Co112 1.976 . S
O123 C132 1.251 . S
O124 Co111 2.264 . S
O124 Co112 2.327 . S
O124 C133 1.257 . S
O125 Co112 2.073 . S
O125 C133 1.245 . S
C126 O134 1.259 . S
C126 O135 1.289 . S
C127 O136 1.246 . S
C127 O137 1.257 . S
C128 O116 1.251 . S
C128 O117 1.274 . S
C129 O114 1.245 . S
C129 O115 1.257 . S
C130 O119 1.259 . S
C130 O120 1.289 . S
C131 O118 1.246 . S
C131 O121 1.257 . S
C132 O122 1.274 . S
C132 O123 1.251 . S
C133 O124 1.257 . S
C133 O125 1.245 . S
O134 Co105 2.286 . S
O134 C126 1.259 . S
O135 Co105 2.069 . S
O135 C126 1.289 . S
O136 Co107 2.143 1_565 S
O136 C127 1.246 . S
O137 Co105 2.015 . S
O137 C127 1.257 . S
Co138 O141 2.042 . S
Co138 O148 2.264 . S
Co138 O167 2.286 . S
Co138 O168 2.069 . S
Co138 O170 2.015 . S
Co139 O141 2.122 . S
Co139 O147 2.073 . S
Co139 O148 2.327 . S
Co139 O149 1.976 . S
Co140 O141 2.087 . S
Co140 O143 2.087 1_554 S
Co140 O150 2.111 . S
Co140 O151 2.143 1_554 S
Co140 O155 2.111 1_554 S
Co140 O169 2.143 . S
O141 Co138 2.042 . S
O141 Co139 2.122 . S
O141 Co140 2.087 . S
O141 H142 0.980 . S
H142 O141 0.980 . S
O143 Co140 2.087 1_556 S
O143 Co144 2.042 . S
O143 Co145 2.122 . S
O143 H146 0.980 . S
Co144 O143 2.042 . S
Co144 O152 2.286 . S
Co144 O153 2.069 . S
Co144 O154 2.015 . S
Co144 O157 2.264 . S
Co145 O143 2.122 . S
Co145 O156 1.976 . S
Co145 O157 2.327 . S
Co145 O158 2.073 . S
H146 O143 0.980 . S
O147 Co139 2.073 . S
O147 C162 1.245 . S
O148 Co138 2.264 . S
O148 Co139 2.327 . S
O148 C162 1.257 . S
O149 Co139 1.976 . S
O149 C161 1.251 . S
O150 Co140 2.111 . S
O150 C161 1.274 . S
O151 Co140 2.143 1_556 S
O151 C164 1.246 . S
O152 Co144 2.286 . S
O152 C163 1.259 . S
O153 Co144 2.069 . S
O153 C163 1.289 . S
O154 Co144 2.015 . S
O154 C164 1.257 . S
O155 Co140 2.111 1_556 S
O155 C165 1.274 . S
O156 Co145 1.976 . S
O156 C165 1.251 . S
O157 Co144 2.264 . S
O157 Co145 2.327 . S
O157 C166 1.257 . S
O158 Co145 2.073 . S
O158 C166 1.245 . S
C159 O167 1.259 . S
C159 O168 1.289 . S
C160 O169 1.246 . S
C160 O170 1.257 . S
C161 O149 1.251 . S
C161 O150 1.274 . S
C162 O147 1.245 . S
C162 O148 1.257 . S
C163 O152 1.259 . S
C163 O153 1.289 . S
C164 O151 1.246 . S
C164 O154 1.257 . S
C165 O155 1.274 . S
C165 O156 1.251 . S
C166 O157 1.257 . S
C166 O158 1.245 . S
O167 Co138 2.286 . S
O167 C159 1.259 . S
O168 Co138 2.069 . S
O168 C159 1.289 . S
O169 Co140 2.143 . S
O169 C160 1.246 . S
O170 Co138 2.015 . S
O170 C160 1.257 . S
H171 C179 0.929 . S
H172 C181 0.930 . S
H173 C183 0.930 . S
H174 C186 0.929 . S
H175 C189 0.930 . S
H176 C191 0.960 . S
H177 C191 0.960 . S
H178 C191 0.960 . S
C179 H171 0.929 . S
C179 C180 1.377 . S
C179 C181 1.384 . S
C180 C179 1.377 . S
C180 C186 1.390 . S
C181 H172 0.930 . S
C181 C179 1.384 . S
C181 C182 1.372 . S
C182 C181 1.372 . S
C182 C183 1.400 . S
C182 C187 1.490 . S
C183 H173 0.930 . S
C183 C182 1.400 . S
C183 C186 1.386 . S
H184 C200 0.930 . S
H185 C201 0.931 . S
C186 H174 0.929 . S
C186 C180 1.390 . S
C186 C183 1.386 . S
C187 C182 1.490 . S
C187 C189 1.395 . S
C187 C190 1.403 . S
H188 C194 0.930 . S
C189 H175 0.930 . S
C189 C187 1.395 . S
C189 C192 1.403 . S
C190 C187 1.403 . S
C190 C191 1.524 . S
C190 C194 1.400 . S
C191 H176 0.960 . S
C191 H177 0.960 . S
C191 H178 0.960 . S
C191 C190 1.524 . S
C192 C189 1.403 . S
C192 C193 1.392 . S
C192 C196 1.495 . S
C193 C192 1.392 . S
C193 C194 1.385 . S
C193 C195 1.478 . S
C194 H188 0.930 . S
C194 C190 1.400 . S
C194 C193 1.385 . S
C195 C193 1.478 . S
C195 C197 1.381 . S
C195 C201 1.383 . S
C196 C192 1.495 . S
C196 H202 0.959 . S
C196 H203 0.961 . S
C196 H204 0.960 . S
C197 C195 1.381 . S
C197 C198 1.394 . S
C197 H205 0.930 . S
C198 C197 1.394 . S
C198 C199 1.383 . S
C198 H206 0.929 . S
C199 C198 1.383 . S
C199 C200 1.377 . S
C200 H184 0.930 . S
C200 C199 1.377 . S
C200 C201 1.379 . S
C201 H185 0.931 . S
C201 C195 1.383 . S
C201 C200 1.379 . S
H202 C196 0.959 . S
H203 C196 0.961 . S
H204 C196 0.960 . S
H205 C197 0.930 . S
H206 C198 0.929 . S
H207 C215 0.929 . S
H208 C217 0.930 . S
H209 C219 0.930 . S
H210 C222 0.929 . S
H211 C225 0.930 . S
H212 C227 0.960 . S
H213 C227 0.960 . S
H214 C227 0.960 . S
C215 H207 0.929 . S
C215 C216 1.377 . S
C215 C217 1.384 . S
C216 C215 1.377 . S
C216 C222 1.390 . S
C217 H208 0.930 . S
C217 C215 1.384 . S
C217 C218 1.372 . S
C218 C217 1.372 . S
C218 C219 1.400 . S
C218 C223 1.490 . S
C219 H209 0.930 . S
C219 C218 1.400 . S
C219 C222 1.386 . S
H220 C236 0.930 . S
H221 C237 0.931 . S
C222 H210 0.929 . S
C222 C216 1.390 . S
C222 C219 1.386 . S
C223 C218 1.490 . S
C223 C225 1.395 . S
C223 C226 1.403 . S
H224 C230 0.930 . S
C225 H211 0.930 . S
C225 C223 1.395 . S
C225 C228 1.403 . S
C226 C223 1.403 . S
C226 C227 1.524 . S
C226 C230 1.400 . S
C227 H212 0.960 . S
C227 H213 0.960 . S
C227 H214 0.960 . S
C227 C226 1.524 . S
C228 C225 1.403 . S
C228 C229 1.392 . S
C228 C232 1.495 . S
C229 C228 1.392 . S
C229 C230 1.385 . S
C229 C231 1.478 . S
C230 H224 0.930 . S
C230 C226 1.400 . S
C230 C229 1.385 . S
C231 C229 1.478 . S
C231 C233 1.381 . S
C231 C237 1.383 . S
C232 C228 1.495 . S
C232 H238 0.959 . S
C232 H239 0.961 . S
C232 H240 0.960 . S
C233 C231 1.381 . S
C233 C234 1.394 . S
C233 H241 0.930 . S
C234 C233 1.394 . S
C234 C235 1.383 . S
C234 H242 0.929 . S
C235 C234 1.383 . S
C235 C236 1.377 . S
C236 H220 0.930 . S
C236 C235 1.377 . S
C236 C237 1.379 . S
C237 H221 0.931 . S
C237 C231 1.383 . S
C237 C236 1.379 . S
H238 C232 0.959 . S
H239 C232 0.961 . S
H240 C232 0.960 . S
H241 C233 0.930 . S
H242 C234 0.929 . S
H243 C251 0.929 . S
H244 C253 0.930 . S
H245 C255 0.930 . S
H246 C258 0.929 . S
H247 C261 0.930 . S
H248 C263 0.960 . S
H249 C263 0.960 . S
H250 C263 0.960 . S
C251 H243 0.929 . S
C251 C252 1.377 . S
C251 C253 1.384 . S
C252 C251 1.377 . S
C252 C258 1.390 . S
C253 H244 0.930 . S
C253 C251 1.384 . S
C253 C254 1.372 . S
C254 C253 1.372 . S
C254 C255 1.400 . S
C254 C259 1.490 . S
C255 H245 0.930 . S
C255 C254 1.400 . S
C255 C258 1.386 . S
H256 C272 0.930 . S
H257 C273 0.931 . S
C258 H246 0.929 . S
C258 C252 1.390 . S
C258 C255 1.386 . S
C259 C254 1.490 . S
C259 C261 1.395 . S
C259 C262 1.403 . S
H260 C266 0.930 . S
C261 H247 0.930 . S
C261 C259 1.395 . S
C261 C264 1.403 . S
C262 C259 1.403 . S
C262 C263 1.524 . S
C262 C266 1.400 . S
C263 H248 0.960 . S
C263 H249 0.960 . S
C263 H250 0.960 . S
C263 C262 1.524 . S
C264 C261 1.403 . S
C264 C265 1.392 . S
C264 C268 1.495 . S
C265 C264 1.392 . S
C265 C266 1.385 . S
C265 C267 1.478 . S
C266 H260 0.930 . S
C266 C262 1.400 . S
C266 C265 1.385 . S
C267 C265 1.478 . S
C267 C269 1.381 . S
C267 C273 1.383 . S
C268 C264 1.495 . S
C268 H274 0.959 . S
C268 H275 0.961 . S
C268 H276 0.960 . S
C269 C267 1.381 . S
C269 C270 1.394 . S
C269 H277 0.930 . S
C270 C269 1.394 . S
C270 C271 1.383 . S
C270 H278 0.929 . S
C271 C270 1.383 . S
C271 C272 1.377 . S
C272 H256 0.930 . S
C272 C271 1.377 . S
C272 C273 1.379 . S
C273 H257 0.931 . S
C273 C267 1.383 . S
C273 C272 1.379 . S
H274 C268 0.959 . S
H275 C268 0.961 . S
H276 C268 0.960 . S
H277 C269 0.930 . S
H278 C270 0.929 . S
H279 C287 0.929 . S
H280 C289 0.930 . S
H281 C291 0.930 . S
H282 C294 0.929 . S
H283 C297 0.930 . S
H284 C299 0.960 . S
H285 C299 0.960 . S
H286 C299 0.960 . S
C287 H279 0.929 . S
C287 C288 1.377 . S
C287 C289 1.384 . S
C288 C287 1.377 . S
C288 C294 1.390 . S
C289 H280 0.930 . S
C289 C287 1.384 . S
C289 C290 1.372 . S
C290 C289 1.372 . S
C290 C291 1.400 . S
C290 C295 1.490 . S
C291 H281 0.930 . S
C291 C290 1.400 . S
C291 C294 1.386 . S
H292 C308 0.930 . S
H293 C309 0.931 . S
C294 H282 0.929 . S
C294 C288 1.390 . S
C294 C291 1.386 . S
C295 C290 1.490 . S
C295 C297 1.395 . S
C295 C298 1.403 . S
H296 C302 0.930 . S
C297 H283 0.930 . S
C297 C295 1.395 . S
C297 C300 1.403 . S
C298 C295 1.403 . S
C298 C299 1.524 . S
C298 C302 1.400 . S
C299 H284 0.960 . S
C299 H285 0.960 . S
C299 H286 0.960 . S
C299 C298 1.524 . S
C300 C297 1.403 . S
C300 C301 1.392 . S
C300 C304 1.495 . S
C301 C300 1.392 . S
C301 C302 1.385 . S
C301 C303 1.478 . S
C302 H296 0.930 . S
C302 C298 1.400 . S
C302 C301 1.385 . S
C303 C301 1.478 . S
C303 C305 1.381 . S
C303 C309 1.383 . S
C304 C300 1.495 . S
C304 H310 0.959 . S
C304 H311 0.961 . S
C304 H312 0.960 . S
C305 C303 1.381 . S
C305 C306 1.394 . S
C305 H313 0.930 . S
C306 C305 1.394 . S
C306 C307 1.383 . S
C306 H314 0.929 . S
C307 C306 1.383 . S
C307 C308 1.377 . S
C308 H292 0.930 . S
C308 C307 1.377 . S
C308 C309 1.379 . S
C309 H293 0.931 . S
C309 C303 1.383 . S
C309 C308 1.379 . S
H310 C304 0.959 . S
H311 C304 0.961 . S
H312 C304 0.960 . S
H313 C305 0.930 . S
H314 C306 0.929 . S
H315 C323 0.929 . S
H316 C325 0.930 . S
H317 C327 0.930 . S
H318 C330 0.929 . S
H319 C333 0.930 . S
H320 C335 0.960 . S
H321 C335 0.960 . S
H322 C335 0.960 . S
C323 H315 0.929 . S
C323 C324 1.377 . S
C323 C325 1.384 . S
C324 C323 1.377 . S
C324 C330 1.390 . S
C325 H316 0.930 . S
C325 C323 1.384 . S
C325 C326 1.372 . S
C326 C325 1.372 . S
C326 C327 1.400 . S
C326 C331 1.490 . S
C327 H317 0.930 . S
C327 C326 1.400 . S
C327 C330 1.386 . S
H328 C344 0.930 . S
H329 C345 0.931 . S
C330 H318 0.929 . S
C330 C324 1.390 . S
C330 C327 1.386 . S
C331 C326 1.490 . S
C331 C333 1.395 . S
C331 C334 1.403 . S
H332 C338 0.930 . S
C333 H319 0.930 . S
C333 C331 1.395 . S
C333 C336 1.403 . S
C334 C331 1.403 . S
C334 C335 1.524 . S
C334 C338 1.400 . S
C335 H320 0.960 . S
C335 H321 0.960 . S
C335 H322 0.960 . S
C335 C334 1.524 . S
C336 C333 1.403 . S
C336 C337 1.392 . S
C336 C340 1.495 . S
C337 C336 1.392 . S
C337 C338 1.385 . S
C337 C339 1.478 . S
C338 H332 0.930 . S
C338 C334 1.400 . S
C338 C337 1.385 . S
C339 C337 1.478 . S
C339 C341 1.381 . S
C339 C345 1.383 . S
C340 C336 1.495 . S
C340 H346 0.959 . S
C340 H347 0.961 . S
C340 H348 0.960 . S
C341 C339 1.381 . S
C341 C342 1.394 . S
C341 H349 0.930 . S
C342 C341 1.394 . S
C342 C343 1.383 . S
C342 H350 0.929 . S
C343 C342 1.383 . S
C343 C344 1.377 . S
C344 H328 0.930 . S
C344 C343 1.377 . S
C344 C345 1.379 . S
C345 H329 0.931 . S
C345 C339 1.383 . S
C345 C344 1.379 . S
H346 C340 0.959 . S
H347 C340 0.961 . S
H348 C340 0.960 . S
H349 C341 0.930 . S
H350 C342 0.929 . S
H351 C359 0.929 . S
H352 C361 0.930 . S
H353 C363 0.930 . S
H354 C366 0.929 . S
H355 C369 0.930 . S
H356 C371 0.960 . S
H357 C371 0.960 . S
H358 C371 0.960 . S
C359 H351 0.929 . S
C359 C360 1.377 . S
C359 C361 1.384 . S
C360 C359 1.377 . S
C360 C366 1.390 . S
C361 H352 0.930 . S
C361 C359 1.384 . S
C361 C362 1.372 . S
C362 C361 1.372 . S
C362 C363 1.400 . S
C362 C367 1.490 . S
C363 H353 0.930 . S
C363 C362 1.400 . S
C363 C366 1.386 . S
H364 C380 0.930 . S
H365 C381 0.931 . S
C366 H354 0.929 . S
C366 C360 1.390 . S
C366 C363 1.386 . S
C367 C362 1.490 . S
C367 C369 1.395 . S
C367 C370 1.403 . S
H368 C374 0.930 . S
C369 H355 0.930 . S
C369 C367 1.395 . S
C369 C372 1.403 . S
C370 C367 1.403 . S
C370 C371 1.524 . S
C370 C374 1.400 . S
C371 H356 0.960 . S
C371 H357 0.960 . S
C371 H358 0.960 . S
C371 C370 1.524 . S
C372 C369 1.403 . S
C372 C373 1.392 . S
C372 C376 1.495 . S
C373 C372 1.392 . S
C373 C374 1.385 . S
C373 C375 1.478 . S
C374 H368 0.930 . S
C374 C370 1.400 . S
C374 C373 1.385 . S
C375 C373 1.478 . S
C375 C377 1.381 . S
C375 C381 1.383 . S
C376 C372 1.495 . S
C376 H382 0.959 . S
C376 H383 0.961 . S
C376 H384 0.960 . S
C377 C375 1.381 . S
C377 C378 1.394 . S
C377 H385 0.930 . S
C378 C377 1.394 . S
C378 C379 1.383 . S
C378 H386 0.929 . S
C379 C378 1.383 . S
C379 C380 1.377 . S
C380 H364 0.930 . S
C380 C379 1.377 . S
C380 C381 1.379 . S
C381 H365 0.931 . S
C381 C375 1.383 . S
C381 C380 1.379 . S
H382 C376 0.959 . S
H383 C376 0.961 . S
H384 C376 0.960 . S
H385 C377 0.930 . S
H386 C378 0.929 . S
H387 C395 0.929 . S
H388 C397 0.930 . S
H389 C399 0.930 . S
H390 C402 0.929 . S
H391 C405 0.930 . S
H392 C407 0.960 . S
H393 C407 0.960 . S
H394 C407 0.960 . S
C395 H387 0.929 . S
C395 C396 1.377 . S
C395 C397 1.384 . S
C396 C395 1.377 . S
C396 C402 1.390 . S
C397 H388 0.930 . S
C397 C395 1.384 . S
C397 C398 1.372 . S
C398 C397 1.372 . S
C398 C399 1.400 . S
C398 C403 1.490 . S
C399 H389 0.930 . S
C399 C398 1.400 . S
C399 C402 1.386 . S
H400 C416 0.930 . S
H401 C417 0.931 . S
C402 H390 0.929 . S
C402 C396 1.390 . S
C402 C399 1.386 . S
C403 C398 1.490 . S
C403 C405 1.395 . S
C403 C406 1.403 . S
H404 C410 0.930 . S
C405 H391 0.930 . S
C405 C403 1.395 . S
C405 C408 1.403 . S
C406 C403 1.403 . S
C406 C407 1.524 . S
C406 C410 1.400 . S
C407 H392 0.960 . S
C407 H393 0.960 . S
C407 H394 0.960 . S
C407 C406 1.524 . S
C408 C405 1.403 . S
C408 C409 1.392 . S
C408 C412 1.495 . S
C409 C408 1.392 . S
C409 C410 1.385 . S
C409 C411 1.478 . S
C410 H404 0.930 . S
C410 C406 1.400 . S
C410 C409 1.385 . S
C411 C409 1.478 . S
C411 C413 1.381 . S
C411 C417 1.383 . S
C412 C408 1.495 . S
C412 H418 0.959 . S
C412 H419 0.961 . S
C412 H420 0.960 . S
C413 C411 1.381 . S
C413 C414 1.394 . S
C413 H421 0.930 . S
C414 C413 1.394 . S
C414 C415 1.383 . S
C414 H422 0.929 . S
C415 C414 1.383 . S
C415 C416 1.377 . S
C416 H400 0.930 . S
C416 C415 1.377 . S
C416 C417 1.379 . S
C417 H401 0.931 . S
C417 C411 1.383 . S
C417 C416 1.379 . S
H418 C412 0.959 . S
H419 C412 0.961 . S
H420 C412 0.960 . S
H421 C413 0.930 . S
H422 C414 0.929 . S
H423 C431 0.929 . S
H424 C433 0.930 . S
H425 C435 0.930 . S
H426 C438 0.929 . S
H427 C441 0.930 . S
H428 C443 0.960 . S
H429 C443 0.960 . S
H430 C443 0.960 . S
C431 H423 0.929 . S
C431 C432 1.377 . S
C431 C433 1.384 . S
C432 C431 1.377 . S
C432 C438 1.390 . S
C433 H424 0.930 . S
C433 C431 1.384 . S
C433 C434 1.372 . S
C434 C433 1.372 . S
C434 C435 1.400 . S
C434 C439 1.490 . S
C435 H425 0.930 . S
C435 C434 1.400 . S
C435 C438 1.386 . S
H436 C452 0.930 . S
H437 C453 0.931 . S
C438 H426 0.929 . S
C438 C432 1.390 . S
C438 C435 1.386 . S
C439 C434 1.490 . S
C439 C441 1.395 . S
C439 C442 1.403 . S
H440 C446 0.930 . S
C441 H427 0.930 . S
C441 C439 1.395 . S
C441 C444 1.403 . S
C442 C439 1.403 . S
C442 C443 1.524 . S
C442 C446 1.400 . S
C443 H428 0.960 . S
C443 H429 0.960 . S
C443 H430 0.960 . S
C443 C442 1.524 . S
C444 C441 1.403 . S
C444 C445 1.392 . S
C444 C448 1.495 . S
C445 C444 1.392 . S
C445 C446 1.385 . S
C445 C447 1.478 . S
C446 H440 0.930 . S
C446 C442 1.400 . S
C446 C445 1.385 . S
C447 C445 1.478 . S
C447 C449 1.381 . S
C447 C453 1.383 . S
C448 C444 1.495 . S
C448 H454 0.959 . S
C448 H455 0.961 . S
C448 H456 0.960 . S
C449 C447 1.381 . S
C449 C450 1.394 . S
C449 H457 0.930 . S
C450 C449 1.394 . S
C450 C451 1.383 . S
C450 H458 0.929 . S
C451 C450 1.383 . S
C451 C452 1.377 . S
C452 H436 0.930 . S
C452 C451 1.377 . S
C452 C453 1.379 . S
C453 H437 0.931 . S
C453 C447 1.383 . S
C453 C452 1.379 . S
H454 C448 0.959 . S
H455 C448 0.961 . S
H456 C448 0.960 . S
H457 C449 0.930 . S
H458 C450 0.929 . S
H459 C467 0.929 . S
H460 C469 0.930 . S
H461 C471 0.930 . S
H462 C474 0.929 . S
H463 C477 0.930 . S
H464 C479 0.960 . S
H465 C479 0.960 . S
H466 C479 0.960 . S
C467 H459 0.929 . S
C467 C468 1.377 . S
C467 C469 1.384 . S
C468 C467 1.377 . S
C468 C474 1.390 . S
C469 H460 0.930 . S
C469 C467 1.384 . S
C469 C470 1.372 . S
C470 C469 1.372 . S
C470 C471 1.400 . S
C470 C475 1.490 . S
C471 H461 0.930 . S
C471 C470 1.400 . S
C471 C474 1.386 . S
H472 C488 0.930 . S
H473 C489 0.931 . S
C474 H462 0.929 . S
C474 C468 1.390 . S
C474 C471 1.386 . S
C475 C470 1.490 . S
C475 C477 1.395 . S
C475 C478 1.403 . S
H476 C482 0.930 . S
C477 H463 0.930 . S
C477 C475 1.395 . S
C477 C480 1.403 . S
C478 C475 1.403 . S
C478 C479 1.524 . S
C478 C482 1.400 . S
C479 H464 0.960 . S
C479 H465 0.960 . S
C479 H466 0.960 . S
C479 C478 1.524 . S
C480 C477 1.403 . S
C480 C481 1.392 . S
C480 C484 1.495 . S
C481 C480 1.392 . S
C481 C482 1.385 . S
C481 C483 1.478 . S
C482 H476 0.930 . S
C482 C478 1.400 . S
C482 C481 1.385 . S
C483 C481 1.478 . S
C483 C485 1.381 . S
C483 C489 1.383 . S
C484 C480 1.495 . S
C484 H490 0.959 . S
C484 H491 0.961 . S
C484 H492 0.960 . S
C485 C483 1.381 . S
C485 C486 1.394 . S
C485 H493 0.930 . S
C486 C485 1.394 . S
C486 C487 1.383 . S
C486 H494 0.929 . S
C487 C486 1.383 . S
C487 C488 1.377 . S
C488 H472 0.930 . S
C488 C487 1.377 . S
C488 C489 1.379 . S
C489 H473 0.931 . S
C489 C483 1.383 . S
C489 C488 1.379 . S
H490 C484 0.959 . S
H491 C484 0.961 . S
H492 C484 0.960 . S
H493 C485 0.930 . S
H494 C486 0.929 . S
H495 C503 0.929 . S
H496 C505 0.930 . S
H497 C507 0.930 . S
H498 C510 0.929 . S
H499 C513 0.930 . S
H500 C515 0.960 . S
H501 C515 0.960 . S
H502 C515 0.960 . S
C503 H495 0.929 . S
C503 C504 1.377 . S
C503 C505 1.384 . S
C504 C503 1.377 . S
C504 C510 1.390 . S
C505 H496 0.930 . S
C505 C503 1.384 . S
C505 C506 1.372 . S
C506 C505 1.372 . S
C506 C507 1.400 . S
C506 C511 1.490 . S
C507 H497 0.930 . S
C507 C506 1.400 . S
C507 C510 1.386 . S
H508 C524 0.930 . S
H509 C525 0.931 . S
C510 H498 0.929 . S
C510 C504 1.390 . S
C510 C507 1.386 . S
C511 C506 1.490 . S
C511 C513 1.395 . S
C511 C514 1.403 . S
H512 C518 0.930 . S
C513 H499 0.930 . S
C513 C511 1.395 . S
C513 C516 1.403 . S
C514 C511 1.403 . S
C514 C515 1.524 . S
C514 C518 1.400 . S
C515 H500 0.960 . S
C515 H501 0.960 . S
C515 H502 0.960 . S
C515 C514 1.524 . S
C516 C513 1.403 . S
C516 C517 1.392 . S
C516 C520 1.495 . S
C517 C516 1.392 . S
C517 C518 1.385 . S
C517 C519 1.478 . S
C518 H512 0.930 . S
C518 C514 1.400 . S
C518 C517 1.385 . S
C519 C517 1.478 . S
C519 C521 1.381 . S
C519 C525 1.383 . S
C520 C516 1.495 . S
C520 H526 0.959 . S
C520 H527 0.961 . S
C520 H528 0.960 . S
C521 C519 1.381 . S
C521 C522 1.394 . S
C521 H529 0.930 . S
C522 C521 1.394 . S
C522 C523 1.383 . S
C522 H530 0.929 . S
C523 C522 1.383 . S
C523 C524 1.377 . S
C524 H508 0.930 . S
C524 C523 1.377 . S
C524 C525 1.379 . S
C525 H509 0.931 . S
C525 C519 1.383 . S
C525 C524 1.379 . S
H526 C520 0.959 . S
H527 C520 0.961 . S
H528 C520 0.960 . S
H529 C521 0.930 . S
H530 C522 0.929 . S
H531 C539 0.929 . S
H532 C541 0.930 . S
H533 C543 0.930 . S
H534 C546 0.929 . S
H535 C549 0.930 . S
H536 C551 0.960 . S
H537 C551 0.960 . S
H538 C551 0.960 . S
C539 H531 0.929 . S
C539 C540 1.377 . S
C539 C541 1.384 . S
C540 C539 1.377 . S
C540 C546 1.390 . S
C541 H532 0.930 . S
C541 C539 1.384 . S
C541 C542 1.372 . S
C542 C541 1.372 . S
C542 C543 1.400 . S
C542 C547 1.490 . S
C543 H533 0.930 . S
C543 C542 1.400 . S
C543 C546 1.386 . S
H544 C560 0.930 . S
H545 C561 0.931 . S
C546 H534 0.929 . S
C546 C540 1.390 . S
C546 C543 1.386 . S
C547 C542 1.490 . S
C547 C549 1.395 . S
C547 C550 1.403 . S
H548 C554 0.930 . S
C549 H535 0.930 . S
C549 C547 1.395 . S
C549 C552 1.403 . S
C550 C547 1.403 . S
C550 C551 1.524 . S
C550 C554 1.400 . S
C551 H536 0.960 . S
C551 H537 0.960 . S
C551 H538 0.960 . S
C551 C550 1.524 . S
C552 C549 1.403 . S
C552 C553 1.392 . S
C552 C556 1.495 . S
C553 C552 1.392 . S
C553 C554 1.385 . S
C553 C555 1.478 . S
C554 H548 0.930 . S
C554 C550 1.400 . S
C554 C553 1.385 . S
C555 C553 1.478 . S
C555 C557 1.381 . S
C555 C561 1.383 . S
C556 C552 1.495 . S
C556 H562 0.959 . S
C556 H563 0.961 . S
C556 H564 0.960 . S
C557 C555 1.381 . S
C557 C558 1.394 . S
C557 H565 0.930 . S
C558 C557 1.394 . S
C558 C559 1.383 . S
C558 H566 0.929 . S
C559 C558 1.383 . S
C559 C560 1.377 . S
C560 H544 0.930 . S
C560 C559 1.377 . S
C560 C561 1.379 . S
C561 H545 0.931 . S
C561 C555 1.383 . S
C561 C560 1.379 . S
H562 C556 0.959 . S
H563 C556 0.961 . S
H564 C556 0.960 . S
H565 C557 0.930 . S
H566 C558 0.929 . S
H567 C575 0.929 . S
H568 C577 0.930 . S
H569 C579 0.930 . S
H570 C582 0.929 . S
H571 C585 0.930 . S
H572 C587 0.960 . S
H573 C587 0.960 . S
H574 C587 0.960 . S
C575 H567 0.929 . S
C575 C576 1.377 . S
C575 C577 1.384 . S
C576 C575 1.377 . S
C576 C582 1.390 . S
C577 H568 0.930 . S
C577 C575 1.384 . S
C577 C578 1.372 . S
C578 C577 1.372 . S
C578 C579 1.400 . S
C578 C583 1.490 . S
C579 H569 0.930 . S
C579 C578 1.400 . S
C579 C582 1.386 . S
H580 C596 0.930 . S
H581 C597 0.931 . S
C582 H570 0.929 . S
C582 C576 1.390 . S
C582 C579 1.386 . S
C583 C578 1.490 . S
C583 C585 1.395 . S
C583 C586 1.403 . S
H584 C590 0.930 . S
C585 H571 0.930 . S
C585 C583 1.395 . S
C585 C588 1.403 . S
C586 C583 1.403 . S
C586 C587 1.524 . S
C586 C590 1.400 . S
C587 H572 0.960 . S
C587 H573 0.960 . S
C587 H574 0.960 . S
C587 C586 1.524 . S
C588 C585 1.403 . S
C588 C589 1.392 . S
C588 C592 1.495 . S
C589 C588 1.392 . S
C589 C590 1.385 . S
C589 C591 1.478 . S
C590 H584 0.930 . S
C590 C586 1.400 . S
C590 C589 1.385 . S
C591 C589 1.478 . S
C591 C593 1.381 . S
C591 C597 1.383 . S
C592 C588 1.495 . S
C592 H598 0.959 . S
C592 H599 0.961 . S
C592 H600 0.960 . S
C593 C591 1.381 . S
C593 C594 1.394 . S
C593 H601 0.930 . S
C594 C593 1.394 . S
C594 C595 1.383 . S
C594 H602 0.929 . S
C595 C594 1.383 . S
C595 C596 1.377 . S
C596 H580 0.930 . S
C596 C595 1.377 . S
C596 C597 1.379 . S
C597 H581 0.931 . S
C597 C591 1.383 . S
C597 C596 1.379 . S
H598 C592 0.959 . S
H599 C592 0.961 . S
H600 C592 0.960 . S
H601 C593 0.930 . S
H602 C594 0.929 . S
H603 C611 0.929 . S
H604 C613 0.930 . S
H605 C615 0.930 . S
H606 C618 0.929 . S
H607 C621 0.930 . S
H608 C623 0.960 . S
H609 C623 0.960 . S
H610 C623 0.960 . S
C611 H603 0.929 . S
C611 C612 1.377 . S
C611 C613 1.384 . S
C612 C611 1.377 . S
C612 C618 1.390 . S
C613 H604 0.930 . S
C613 C611 1.384 . S
C613 C614 1.372 . S
C614 C613 1.372 . S
C614 C615 1.400 . S
C614 C619 1.490 . S
C615 H605 0.930 . S
C615 C614 1.400 . S
C615 C618 1.386 . S
H616 C632 0.930 . S
H617 C633 0.931 . S
C618 H606 0.929 . S
C618 C612 1.390 . S
C618 C615 1.386 . S
C619 C614 1.490 . S
C619 C621 1.395 . S
C619 C622 1.403 . S
H620 C626 0.930 . S
C621 H607 0.930 . S
C621 C619 1.395 . S
C621 C624 1.403 . S
C622 C619 1.403 . S
C622 C623 1.524 . S
C622 C626 1.400 . S
C623 H608 0.960 . S
C623 H609 0.960 . S
C623 H610 0.960 . S
C623 C622 1.524 . S
C624 C621 1.403 . S
C624 C625 1.392 . S
C624 C628 1.495 . S
C625 C624 1.392 . S
C625 C626 1.385 . S
C625 C627 1.478 . S
C626 H620 0.930 . S
C626 C622 1.400 . S
C626 C625 1.385 . S
C627 C625 1.478 . S
C627 C629 1.381 . S
C627 C633 1.383 . S
C628 C624 1.495 . S
C628 H634 0.959 . S
C628 H635 0.961 . S
C628 H636 0.960 . S
C629 C627 1.381 . S
C629 C630 1.394 . S
C629 H637 0.930 . S
C630 C629 1.394 . S
C630 C631 1.383 . S
C630 H638 0.929 . S
C631 C630 1.383 . S
C631 C632 1.377 . S
C632 H616 0.930 . S
C632 C631 1.377 . S
C632 C633 1.379 . S
C633 H617 0.931 . S
C633 C627 1.383 . S
C633 C632 1.379 . S
H634 C628 0.959 . S
H635 C628 0.961 . S
H636 C628 0.960 . S
H637 C629 0.930 . S
H638 C630 0.929 . S
H639 C647 0.929 . S
H640 C649 0.930 . S
H641 C651 0.930 . S
H642 C654 0.929 . S
H643 C657 0.930 . S
H644 C659 0.960 . S
H645 C659 0.960 . S
H646 C659 0.960 . S
C647 H639 0.929 . S
C647 C648 1.377 . S
C647 C649 1.384 . S
C648 C647 1.377 . S
C648 C654 1.390 . S
C649 H640 0.930 . S
C649 C647 1.384 . S
C649 C650 1.372 . S
C650 C649 1.372 . S
C650 C651 1.400 . S
C650 C655 1.490 . S
C651 H641 0.930 . S
C651 C650 1.400 . S
C651 C654 1.386 . S
H652 C668 0.930 . S
H653 C669 0.931 . S
C654 H642 0.929 . S
C654 C648 1.390 . S
C654 C651 1.386 . S
C655 C650 1.490 . S
C655 C657 1.395 . S
C655 C658 1.403 . S
H656 C662 0.930 . S
C657 H643 0.930 . S
C657 C655 1.395 . S
C657 C660 1.403 . S
C658 C655 1.403 . S
C658 C659 1.524 . S
C658 C662 1.400 . S
C659 H644 0.960 . S
C659 H645 0.960 . S
C659 H646 0.960 . S
C659 C658 1.524 . S
C660 C657 1.403 . S
C660 C661 1.392 . S
C660 C664 1.495 . S
C661 C660 1.392 . S
C661 C662 1.385 . S
C661 C663 1.478 . S
C662 H656 0.930 . S
C662 C658 1.400 . S
C662 C661 1.385 . S
C663 C661 1.478 . S
C663 C665 1.381 . S
C663 C669 1.383 . S
C664 C660 1.495 . S
C664 H670 0.959 . S
C664 H671 0.961 . S
C664 H672 0.960 . S
C665 C663 1.381 . S
C665 C666 1.394 . S
C665 H673 0.930 . S
C666 C665 1.394 . S
C666 C667 1.383 . S
C666 H674 0.929 . S
C667 C666 1.383 . S
C667 C668 1.377 . S
C668 H652 0.930 . S
C668 C667 1.377 . S
C668 C669 1.379 . S
C669 H653 0.931 . S
C669 C663 1.383 . S
C669 C668 1.379 . S
H670 C664 0.959 . S
H671 C664 0.961 . S
H672 C664 0.960 . S
H673 C665 0.930 . S
H674 C666 0.929 . S
H675 C683 0.929 . S
H676 C685 0.930 . S
H677 C687 0.930 . S
H678 C690 0.929 . S
H679 C693 0.930 . S
H680 C695 0.960 . S
H681 C695 0.960 . S
H682 C695 0.960 . S
C683 H675 0.929 . S
C683 C684 1.377 . S
C683 C685 1.384 . S
C684 C683 1.377 . S
C684 C690 1.390 . S
C685 H676 0.930 . S
C685 C683 1.384 . S
C685 C686 1.372 . S
C686 C685 1.372 . S
C686 C687 1.400 . S
C686 C691 1.490 . S
C687 H677 0.930 . S
C687 C686 1.400 . S
C687 C690 1.386 . S
H688 C704 0.930 . S
H689 C705 0.931 . S
C690 H678 0.929 . S
C690 C684 1.390 . S
C690 C687 1.386 . S
C691 C686 1.490 . S
C691 C693 1.395 . S
C691 C694 1.403 . S
H692 C698 0.930 . S
C693 H679 0.930 . S
C693 C691 1.395 . S
C693 C696 1.403 . S
C694 C691 1.403 . S
C694 C695 1.524 . S
C694 C698 1.400 . S
C695 H680 0.960 . S
C695 H681 0.960 . S
C695 H682 0.960 . S
C695 C694 1.524 . S
C696 C693 1.403 . S
C696 C697 1.392 . S
C696 C700 1.495 . S
C697 C696 1.392 . S
C697 C698 1.385 . S
C697 C699 1.478 . S
C698 H692 0.930 . S
C698 C694 1.400 . S
C698 C697 1.385 . S
C699 C697 1.478 . S
C699 C701 1.381 . S
C699 C705 1.383 . S
C700 C696 1.495 . S
C700 H706 0.959 . S
C700 H707 0.961 . S
C700 H708 0.960 . S
C701 C699 1.381 . S
C701 C702 1.394 . S
C701 H709 0.930 . S
C702 C701 1.394 . S
C702 C703 1.383 . S
C702 H710 0.929 . S
C703 C702 1.383 . S
C703 C704 1.377 . S
C704 H688 0.930 . S
C704 C703 1.377 . S
C704 C705 1.379 . S
C705 H689 0.931 . S
C705 C699 1.383 . S
C705 C704 1.379 . S
H706 C700 0.959 . S
H707 C700 0.961 . S
H708 C700 0.960 . S
H709 C701 0.930 . S
H710 C702 0.929 . S
H711 C719 0.929 . S
H712 C721 0.930 . S
H713 C723 0.930 . S
H714 C726 0.929 . S
H715 C729 0.930 . S
H716 C731 0.960 . S
H717 C731 0.960 . S
H718 C731 0.960 . S
C719 H711 0.929 . S
C719 C720 1.377 . S
C719 C721 1.384 . S
C720 C719 1.377 . S
C720 C726 1.390 . S
C721 H712 0.930 . S
C721 C719 1.384 . S
C721 C722 1.372 . S
C722 C721 1.372 . S
C722 C723 1.400 . S
C722 C727 1.490 . S
C723 H713 0.930 . S
C723 C722 1.400 . S
C723 C726 1.386 . S
H724 C740 0.930 . S
H725 C741 0.931 . S
C726 H714 0.929 . S
C726 C720 1.390 . S
C726 C723 1.386 . S
C727 C722 1.490 . S
C727 C729 1.395 . S
C727 C730 1.403 . S
H728 C734 0.930 . S
C729 H715 0.930 . S
C729 C727 1.395 . S
C729 C732 1.403 . S
C730 C727 1.403 . S
C730 C731 1.524 . S
C730 C734 1.400 . S
C731 H716 0.960 . S
C731 H717 0.960 . S
C731 H718 0.960 . S
C731 C730 1.524 . S
C732 C729 1.403 . S
C732 C733 1.392 . S
C732 C736 1.495 . S
C733 C732 1.392 . S
C733 C734 1.385 . S
C733 C735 1.478 . S
C734 H728 0.930 . S
C734 C730 1.400 . S
C734 C733 1.385 . S
C735 C733 1.478 . S
C735 C737 1.381 . S
C735 C741 1.383 . S
C736 C732 1.495 . S
C736 H742 0.959 . S
C736 H743 0.961 . S
C736 H744 0.960 . S
C737 C735 1.381 . S
C737 C738 1.394 . S
C737 H745 0.930 . S
C738 C737 1.394 . S
C738 C739 1.383 . S
C738 H746 0.929 . S
C739 C738 1.383 . S
C739 C740 1.377 . S
C740 H724 0.930 . S
C740 C739 1.377 . S
C740 C741 1.379 . S
C741 H725 0.931 . S
C741 C735 1.383 . S
C741 C740 1.379 . S
H742 C736 0.959 . S
H743 C736 0.961 . S
H744 C736 0.960 . S
H745 C737 0.930 . S
H746 C738 0.929 . S
H747 C755 0.929 . S
H748 C757 0.930 . S
H749 C759 0.930 . S
H750 C762 0.929 . S
H751 C765 0.930 . S
H752 C767 0.960 . S
H753 C767 0.960 . S
H754 C767 0.960 . S
C755 H747 0.929 . S
C755 C756 1.377 . S
C755 C757 1.384 . S
C756 C755 1.377 . S
C756 C762 1.390 . S
C757 H748 0.930 . S
C757 C755 1.384 . S
C757 C758 1.372 . S
C758 C757 1.372 . S
C758 C759 1.400 . S
C758 C763 1.490 . S
C759 H749 0.930 . S
C759 C758 1.400 . S
C759 C762 1.386 . S
H760 C776 0.930 . S
H761 C777 0.931 . S
C762 H750 0.929 . S
C762 C756 1.390 . S
C762 C759 1.386 . S
C763 C758 1.490 . S
C763 C765 1.395 . S
C763 C766 1.403 . S
H764 C770 0.930 . S
C765 H751 0.930 . S
C765 C763 1.395 . S
C765 C768 1.403 . S
C766 C763 1.403 . S
C766 C767 1.524 . S
C766 C770 1.400 . S
C767 H752 0.960 . S
C767 H753 0.960 . S
C767 H754 0.960 . S
C767 C766 1.524 . S
C768 C765 1.403 . S
C768 C769 1.392 . S
C768 C772 1.495 . S
C769 C768 1.392 . S
C769 C770 1.385 . S
C769 C771 1.478 . S
C770 H764 0.930 . S
C770 C766 1.400 . S
C770 C769 1.385 . S
C771 C769 1.478 . S
C771 C773 1.381 . S
C771 C777 1.383 . S
C772 C768 1.495 . S
C772 H778 0.959 . S
C772 H779 0.961 . S
C772 H780 0.960 . S
C773 C771 1.381 . S
C773 C774 1.394 . S
C773 H781 0.930 . S
C774 C773 1.394 . S
C774 C775 1.383 . S
C774 H782 0.929 . S
C775 C774 1.383 . S
C775 C776 1.377 . S
C776 H760 0.930 . S
C776 C775 1.377 . S
C776 C777 1.379 . S
C777 H761 0.931 . S
C777 C771 1.383 . S
C777 C776 1.379 . S
H778 C772 0.959 . S
H779 C772 0.961 . S
H780 C772 0.960 . S
H781 C773 0.930 . S
H782 C774 0.929 . S
H783 C791 0.929 . S
H784 C793 0.930 . S
H785 C795 0.930 . S
H786 C798 0.929 . S
H787 C801 0.930 . S
H788 C803 0.960 . S
H789 C803 0.960 . S
H790 C803 0.960 . S
C791 H783 0.929 . S
C791 C792 1.377 . S
C791 C793 1.384 . S
C792 C791 1.377 . S
C792 C798 1.390 . S
C793 H784 0.930 . S
C793 C791 1.384 . S
C793 C794 1.372 . S
C794 C793 1.372 . S
C794 C795 1.400 . S
C794 C799 1.490 . S
C795 H785 0.930 . S
C795 C794 1.400 . S
C795 C798 1.386 . S
H796 C812 0.930 . S
H797 C813 0.931 . S
C798 H786 0.929 . S
C798 C792 1.390 . S
C798 C795 1.386 . S
C799 C794 1.490 . S
C799 C801 1.395 . S
C799 C802 1.403 . S
H800 C806 0.930 . S
C801 H787 0.930 . S
C801 C799 1.395 . S
C801 C804 1.403 . S
C802 C799 1.403 . S
C802 C803 1.524 . S
C802 C806 1.400 . S
C803 H788 0.960 . S
C803 H789 0.960 . S
C803 H790 0.960 . S
C803 C802 1.524 . S
C804 C801 1.403 . S
C804 C805 1.392 . S
C804 C808 1.495 . S
C805 C804 1.392 . S
C805 C806 1.385 . S
C805 C807 1.478 . S
C806 H800 0.930 . S
C806 C802 1.400 . S
C806 C805 1.385 . S
C807 C805 1.478 . S
C807 C809 1.381 . S
C807 C813 1.383 . S
C808 C804 1.495 . S
C808 H814 0.959 . S
C808 H815 0.961 . S
C808 H816 0.960 . S
C809 C807 1.381 . S
C809 C810 1.394 . S
C809 H817 0.930 . S
C810 C809 1.394 . S
C810 C811 1.383 . S
C810 H818 0.929 . S
C811 C810 1.383 . S
C811 C812 1.377 . S
C812 H796 0.930 . S
C812 C811 1.377 . S
C812 C813 1.379 . S
C813 H797 0.931 . S
C813 C807 1.383 . S
C813 C812 1.379 . S
H814 C808 0.959 . S
H815 C808 0.961 . S
H816 C808 0.960 . S
H817 C809 0.930 . S
H818 C810 0.929 . S
H819 C827 0.929 . S
H820 C829 0.930 . S
H821 C831 0.930 . S
H822 C834 0.929 . S
H823 C837 0.930 . S
H824 C839 0.960 . S
H825 C839 0.960 . S
H826 C839 0.960 . S
C827 H819 0.929 . S
C827 C828 1.377 . S
C827 C829 1.384 . S
C828 C827 1.377 . S
C828 C834 1.390 . S
C829 H820 0.930 . S
C829 C827 1.384 . S
C829 C830 1.372 . S
C830 C829 1.372 . S
C830 C831 1.400 . S
C830 C835 1.490 . S
C831 H821 0.930 . S
C831 C830 1.400 . S
C831 C834 1.386 . S
H832 C848 0.930 . S
H833 C849 0.931 . S
C834 H822 0.929 . S
C834 C828 1.390 . S
C834 C831 1.386 . S
C835 C830 1.490 . S
C835 C837 1.395 . S
C835 C838 1.403 . S
H836 C842 0.930 . S
C837 H823 0.930 . S
C837 C835 1.395 . S
C837 C840 1.403 . S
C838 C835 1.403 . S
C838 C839 1.524 . S
C838 C842 1.400 . S
C839 H824 0.960 . S
C839 H825 0.960 . S
C839 H826 0.960 . S
C839 C838 1.524 . S
C840 C837 1.403 . S
C840 C841 1.392 . S
C840 C844 1.495 . S
C841 C840 1.392 . S
C841 C842 1.385 . S
C841 C843 1.478 . S
C842 H836 0.930 . S
C842 C838 1.400 . S
C842 C841 1.385 . S
C843 C841 1.478 . S
C843 C845 1.381 . S
C843 C849 1.383 . S
C844 C840 1.495 . S
C844 H850 0.959 . S
C844 H851 0.961 . S
C844 H852 0.960 . S
C845 C843 1.381 . S
C845 C846 1.394 . S
C845 H853 0.930 . S
C846 C845 1.394 . S
C846 C847 1.383 . S
C846 H854 0.929 . S
C847 C846 1.383 . S
C847 C848 1.377 . S
C848 H832 0.930 . S
C848 C847 1.377 . S
C848 C849 1.379 . S
C849 H833 0.931 . S
C849 C843 1.383 . S
C849 C848 1.379 . S
H850 C844 0.959 . S
H851 C844 0.961 . S
H852 C844 0.960 . S
H853 C845 0.930 . S
H854 C846 0.929 . S
H855 C863 0.929 . S
H856 C865 0.930 . S
H857 C867 0.930 . S
H858 C870 0.929 . S
H859 C873 0.930 . S
H860 C875 0.960 . S
H861 C875 0.960 . S
H862 C875 0.960 . S
C863 H855 0.929 . S
C863 C864 1.377 . S
C863 C865 1.384 . S
C864 C863 1.377 . S
C864 C870 1.390 . S
C865 H856 0.930 . S
C865 C863 1.384 . S
C865 C866 1.372 . S
C866 C865 1.372 . S
C866 C867 1.400 . S
C866 C871 1.490 . S
C867 H857 0.930 . S
C867 C866 1.400 . S
C867 C870 1.386 . S
H868 C884 0.930 . S
H869 C885 0.931 . S
C870 H858 0.929 . S
C870 C864 1.390 . S
C870 C867 1.386 . S
C871 C866 1.490 . S
C871 C873 1.395 . S
C871 C874 1.403 . S
H872 C878 0.930 . S
C873 H859 0.930 . S
C873 C871 1.395 . S
C873 C876 1.403 . S
C874 C871 1.403 . S
C874 C875 1.524 . S
C874 C878 1.400 . S
C875 H860 0.960 . S
C875 H861 0.960 . S
C875 H862 0.960 . S
C875 C874 1.524 . S
C876 C873 1.403 . S
C876 C877 1.392 . S
C876 C880 1.495 . S
C877 C876 1.392 . S
C877 C878 1.385 . S
C877 C879 1.478 . S
C878 H872 0.930 . S
C878 C874 1.400 . S
C878 C877 1.385 . S
C879 C877 1.478 . S
C879 C881 1.381 . S
C879 C885 1.383 . S
C880 C876 1.495 . S
C880 H886 0.959 . S
C880 H887 0.961 . S
C880 H888 0.960 . S
C881 C879 1.381 . S
C881 C882 1.394 . S
C881 H889 0.930 . S
C882 C881 1.394 . S
C882 C883 1.383 . S
C882 H890 0.929 . S
C883 C882 1.383 . S
C883 C884 1.377 . S
C884 H868 0.930 . S
C884 C883 1.377 . S
C884 C885 1.379 . S
C885 H869 0.931 . S
C885 C879 1.383 . S
C885 C884 1.379 . S
H886 C880 0.959 . S
H887 C880 0.961 . S
H888 C880 0.960 . S
H889 C881 0.930 . S
H890 C882 0.929 . S
H891 C899 0.929 . S
H892 C901 0.930 . S
H893 C903 0.930 . S
H894 C906 0.929 . S
H895 C909 0.930 . S
H896 C911 0.960 . S
H897 C911 0.960 . S
H898 C911 0.960 . S
C899 H891 0.929 . S
C899 C900 1.377 . S
C899 C901 1.384 . S
C900 C899 1.377 . S
C900 C906 1.390 . S
C901 H892 0.930 . S
C901 C899 1.384 . S
C901 C902 1.372 . S
C902 C901 1.372 . S
C902 C903 1.400 . S
C902 C907 1.490 . S
C903 H893 0.930 . S
C903 C902 1.400 . S
C903 C906 1.386 . S
H904 C920 0.930 . S
H905 C921 0.931 . S
C906 H894 0.929 . S
C906 C900 1.390 . S
C906 C903 1.386 . S
C907 C902 1.490 . S
C907 C909 1.395 . S
C907 C910 1.403 . S
H908 C914 0.930 . S
C909 H895 0.930 . S
C909 C907 1.395 . S
C909 C912 1.403 . S
C910 C907 1.403 . S
C910 C911 1.524 . S
C910 C914 1.400 . S
C911 H896 0.960 . S
C911 H897 0.960 . S
C911 H898 0.960 . S
C911 C910 1.524 . S
C912 C909 1.403 . S
C912 C913 1.392 . S
C912 C916 1.495 . S
C913 C912 1.392 . S
C913 C914 1.385 . S
C913 C915 1.478 . S
C914 H908 0.930 . S
C914 C910 1.400 . S
C914 C913 1.385 . S
C915 C913 1.478 . S
C915 C917 1.381 . S
C915 C921 1.383 . S
C916 C912 1.495 . S
C916 H922 0.959 . S
C916 H923 0.961 . S
C916 H924 0.960 . S
C917 C915 1.381 . S
C917 C918 1.394 . S
C917 H925 0.930 . S
C918 C917 1.394 . S
C918 C919 1.383 . S
C918 H926 0.929 . S
C919 C918 1.383 . S
C919 C920 1.377 . S
C920 H904 0.930 . S
C920 C919 1.377 . S
C920 C921 1.379 . S
C921 H905 0.931 . S
C921 C915 1.383 . S
C921 C920 1.379 . S
H922 C916 0.959 . S
H923 C916 0.961 . S
H924 C916 0.960 . S
H925 C917 0.930 . S
H926 C918 0.929 . S
H927 C935 0.929 . S
H928 C937 0.930 . S
H929 C939 0.930 . S
H930 C942 0.929 . S
H931 C945 0.930 . S
H932 C947 0.960 . S
H933 C947 0.960 . S
H934 C947 0.960 . S
C935 H927 0.929 . S
C935 C936 1.377 . S
C935 C937 1.384 . S
C936 C935 1.377 . S
C936 C942 1.390 . S
C937 H928 0.930 . S
C937 C935 1.384 . S
C937 C938 1.372 . S
C938 C937 1.372 . S
C938 C939 1.400 . S
C938 C943 1.490 . S
C939 H929 0.930 . S
C939 C938 1.400 . S
C939 C942 1.386 . S
H940 C956 0.930 . S
H941 C957 0.931 . S
C942 H930 0.929 . S
C942 C936 1.390 . S
C942 C939 1.386 . S
C943 C938 1.490 . S
C943 C945 1.395 . S
C943 C946 1.403 . S
H944 C950 0.930 . S
C945 H931 0.930 . S
C945 C943 1.395 . S
C945 C948 1.403 . S
C946 C943 1.403 . S
C946 C947 1.524 . S
C946 C950 1.400 . S
C947 H932 0.960 . S
C947 H933 0.960 . S
C947 H934 0.960 . S
C947 C946 1.524 . S
C948 C945 1.403 . S
C948 C949 1.392 . S
C948 C952 1.495 . S
C949 C948 1.392 . S
C949 C950 1.385 . S
C949 C951 1.478 . S
C950 H944 0.930 . S
C950 C946 1.400 . S
C950 C949 1.385 . S
C951 C949 1.478 . S
C951 C953 1.381 . S
C951 C957 1.383 . S
C952 C948 1.495 . S
C952 H958 0.959 . S
C952 H959 0.961 . S
C952 H960 0.960 . S
C953 C951 1.381 . S
C953 C954 1.394 . S
C953 H961 0.930 . S
C954 C953 1.394 . S
C954 C955 1.383 . S
C954 H962 0.929 . S
C955 C954 1.383 . S
C955 C956 1.377 . S
C956 H940 0.930 . S
C956 C955 1.377 . S
C956 C957 1.379 . S
C957 H941 0.931 . S
C957 C951 1.383 . S
C957 C956 1.379 . S
H958 C952 0.959 . S
H959 C952 0.961 . S
H960 C952 0.960 . S
H961 C953 0.930 . S
H962 C954 0.929 . S
H963 C971 0.929 . S
H964 C973 0.930 . S
H965 C975 0.930 . S
H966 C978 0.929 . S
H967 C981 0.930 . S
H968 C983 0.960 . S
H969 C983 0.960 . S
H970 C983 0.960 . S
C971 H963 0.929 . S
C971 C972 1.377 . S
C971 C973 1.384 . S
C972 C971 1.377 . S
C972 C978 1.390 . S
C973 H964 0.930 . S
C973 C971 1.384 . S
C973 C974 1.372 . S
C974 C973 1.372 . S
C974 C975 1.400 . S
C974 C979 1.490 . S
C975 H965 0.930 . S
C975 C974 1.400 . S
C975 C978 1.386 . S
H976 C992 0.930 . S
H977 C993 0.931 . S
C978 H966 0.929 . S
C978 C972 1.390 . S
C978 C975 1.386 . S
C979 C974 1.490 . S
C979 C981 1.395 . S
C979 C982 1.403 . S
H980 C986 0.930 . S
C981 H967 0.930 . S
C981 C979 1.395 . S
C981 C984 1.403 . S
C982 C979 1.403 . S
C982 C983 1.524 . S
C982 C986 1.400 . S
C983 H968 0.960 . S
C983 H969 0.960 . S
C983 H970 0.960 . S
C983 C982 1.524 . S
C984 C981 1.403 . S
C984 C985 1.392 . S
C984 C988 1.495 . S
C985 C984 1.392 . S
C985 C986 1.385 . S
C985 C987 1.478 . S
C986 H980 0.930 . S
C986 C982 1.400 . S
C986 C985 1.385 . S
C987 C985 1.478 . S
C987 C989 1.381 . S
C987 C993 1.383 . S
C988 C984 1.495 . S
C988 H994 0.959 . S
C988 H995 0.961 . S
C988 H996 0.960 . S
C989 C987 1.381 . S
C989 C990 1.394 . S
C989 H997 0.930 . S
C990 C989 1.394 . S
C990 C991 1.383 . S
C990 H998 0.929 . S
C991 C990 1.383 . S
C991 C992 1.377 . S
C992 H976 0.930 . S
C992 C991 1.377 . S
C992 C993 1.379 . S
C993 H977 0.931 . S
C993 C987 1.383 . S
C993 C992 1.379 . S
H994 C988 0.959 . S
H995 C988 0.961 . S
H996 C988 0.960 . S
H997 C989 0.930 . S
H998 C990 0.929 . S
H999 C1007 0.929 . S
H1000 C1009 0.930 . S
H1001 C1011 0.930 . S
H1002 C1014 0.929 . S
H1003 C1017 0.930 . S
H1004 C1019 0.960 . S
H1005 C1019 0.960 . S
H1006 C1019 0.960 . S
C1007 H999 0.929 . S
C1007 C1008 1.377 . S
C1007 C1009 1.384 . S
C1008 C1007 1.377 . S
C1008 C1014 1.390 . S
C1009 H1000 0.930 . S
C1009 C1007 1.384 . S
C1009 C1010 1.372 . S
C1010 C1009 1.372 . S
C1010 C1011 1.400 . S
C1010 C1015 1.490 . S
C1011 H1001 0.930 . S
C1011 C1010 1.400 . S
C1011 C1014 1.386 . S
H1012 C1028 0.930 . S
H1013 C1029 0.931 . S
C1014 H1002 0.929 . S
C1014 C1008 1.390 . S
C1014 C1011 1.386 . S
C1015 C1010 1.490 . S
C1015 C1017 1.395 . S
C1015 C1018 1.403 . S
H1016 C1022 0.930 . S
C1017 H1003 0.930 . S
C1017 C1015 1.395 . S
C1017 C1020 1.403 . S
C1018 C1015 1.403 . S
C1018 C1019 1.524 . S
C1018 C1022 1.400 . S
C1019 H1004 0.960 . S
C1019 H1005 0.960 . S
C1019 H1006 0.960 . S
C1019 C1018 1.524 . S
C1020 C1017 1.403 . S
C1020 C1021 1.392 . S
C1020 C1024 1.495 . S
C1021 C1020 1.392 . S
C1021 C1022 1.385 . S
C1021 C1023 1.478 . S
C1022 H1016 0.930 . S
C1022 C1018 1.400 . S
C1022 C1021 1.385 . S
C1023 C1021 1.478 . S
C1023 C1025 1.381 . S
C1023 C1029 1.383 . S
C1024 C1020 1.495 . S
C1024 H1030 0.959 . S
C1024 H1031 0.961 . S
C1024 H1032 0.960 . S
C1025 C1023 1.381 . S
C1025 C1026 1.394 . S
C1025 H1033 0.930 . S
C1026 C1025 1.394 . S
C1026 C1027 1.383 . S
C1026 H1034 0.929 . S
C1027 C1026 1.383 . S
C1027 C1028 1.377 . S
C1028 H1012 0.930 . S
C1028 C1027 1.377 . S
C1028 C1029 1.379 . S
C1029 H1013 0.931 . S
C1029 C1023 1.383 . S
C1029 C1028 1.379 . S
H1030 C1024 0.959 . S
H1031 C1024 0.961 . S
H1032 C1024 0.960 . S
H1033 C1025 0.930 . S
H1034 C1026 0.929 . S
C199 C96 1.005 . S
C180 C4 1.105 . S
C235 C132 1.570 . S
C216 C13 1.712 . S
C271 C97 1.316 . S
C252 C25 1.337 . S
C307 C127 1.475 . S
C288 C32 1.514 . S
C343 C94 1.384 . S
C324 C41 1.463 . S
C360 C52 1.606 . S
C379 C130 1.612 . S
C396 C61 1.157 . S
C415 C99 1.088 . S
C451 C129 1.327 . S
C432 C67 1.393 . S
C487 C133 1.299 . S
C468 C7 1.383 . S
C523 C98 1.405 . S
C504 C14 1.479 . S
C559 C126 1.625 . S
C540 C22 1.626 . S
C595 C95 1.099 . S
C576 C31 1.148 . S
C631 C128 1.605 . S
C612 C40 1.692 . S
C648 C49 1.352 . S
C667 C93 1.316 . S
C684 C59 1.524 . S
C703 C131 1.447 . S
C739 C100 1.037 . S
C720 C70 1.096 . S
C775 C162 1.670 . S
C756 C5 1.770 . S
C792 C43 1.939 . S
C811 C165 1.771 . S
C847 C164 1.595 . S
C828 C50 1.656 . S
C864 C58 2.033 . S
C883 C163 2.009 . S
C919 C166 1.629 . S
C900 C68 1.767 . S
C936 C23 1.664 . S
C955 C160 1.571 . S
C991 C159 1.970 . S
C972 C34 2.006 . S
C1008 C16 1.959 . S
C1027 C161 1.837 . S
