# Generated by pormake.
# Topology dag, (6,3)-cn, num edge types: 1
# Building blocks:
#     Node 0, Type 0, BuildingBlock: MIDCAF_clean_sbu_0, # of connection points: 6
#     Node 1, Type 0, BuildingBlock: MIDCAF_clean_sbu_0, # of connection points: 6
#     Node 2, Type 0, BuildingBlock: MIDCAF_clean_sbu_0, # of connection points: 6
#     Node 3, Type 0, BuildingBlock: MIDCAF_clean_sbu_0, # of connection points: 6
#     Node 4, Type 1, BuildingBlock: MIDCAF_clean_linker_0, # of connection points: 3
#     Node 5, Type 1, BuildingBlock: MIDCAF_clean_linker_0, # of connection points: 3
#     Node 6, Type 1, BuildingBlock: MIDCAF_clean_linker_0, # of connection points: 3
#     Node 7, Type 1, BuildingBlock: MIDCAF_clean_linker_0, # of connection points: 3
#     Node 8, Type 1, BuildingBlock: MIDCAF_clean_linker_0, # of connection points: 3
#     Node 9, Type 1, BuildingBlock: MIDCAF_clean_linker_0, # of connection points: 3
#     Node 10, Type 1, BuildingBlock: MIDCAF_clean_linker_0, # of connection points: 3
#     Node 11, Type 1, BuildingBlock: MIDCAF_clean_linker_0, # of connection points: 3
#     Edge 12, Type (0, 1), BuildingBlock: UVAHIK_clean_linker_0, # of connection points: 2
#     Edge 13, Type (0, 1), BuildingBlock: UVAHIK_clean_linker_0, # of connection points: 2
#     Edge 14, Type (0, 1), BuildingBlock: UVAHIK_clean_linker_0, # of connection points: 2
#     Edge 15, Type (0, 1), BuildingBlock: UVAHIK_clean_linker_0, # of connection points: 2
#     Edge 16, Type (0, 1), BuildingBlock: UVAHIK_clean_linker_0, # of connection points: 2
#     Edge 17, Type (0, 1), BuildingBlock: UVAHIK_clean_linker_0, # of connection points: 2
#     Edge 18, Type (0, 1), BuildingBlock: UVAHIK_clean_linker_0, # of connection points: 2
#     Edge 19, Type (0, 1), BuildingBlock: UVAHIK_clean_linker_0, # of connection points: 2
#     Edge 20, Type (0, 1), BuildingBlock: UVAHIK_clean_linker_0, # of connection points: 2
#     Edge 21, Type (0, 1), BuildingBlock: UVAHIK_clean_linker_0, # of connection points: 2
#     Edge 22, Type (0, 1), BuildingBlock: UVAHIK_clean_linker_0, # of connection points: 2
#     Edge 23, Type (0, 1), BuildingBlock: UVAHIK_clean_linker_0, # of connection points: 2
#     Edge 24, Type (0, 1), BuildingBlock: UVAHIK_clean_linker_0, # of connection points: 2
#     Edge 25, Type (0, 1), BuildingBlock: UVAHIK_clean_linker_0, # of connection points: 2
#     Edge 26, Type (0, 1), BuildingBlock: UVAHIK_clean_linker_0, # of connection points: 2
#     Edge 27, Type (0, 1), BuildingBlock: UVAHIK_clean_linker_0, # of connection points: 2
#     Edge 28, Type (0, 1), BuildingBlock: UVAHIK_clean_linker_0, # of connection points: 2
#     Edge 29, Type (0, 1), BuildingBlock: UVAHIK_clean_linker_0, # of connection points: 2
#     Edge 30, Type (0, 1), BuildingBlock: UVAHIK_clean_linker_0, # of connection points: 2
#     Edge 31, Type (0, 1), BuildingBlock: UVAHIK_clean_linker_0, # of connection points: 2
#     Edge 32, Type (0, 1), BuildingBlock: UVAHIK_clean_linker_0, # of connection points: 2
#     Edge 33, Type (0, 1), BuildingBlock: UVAHIK_clean_linker_0, # of connection points: 2
#     Edge 34, Type (0, 1), BuildingBlock: UVAHIK_clean_linker_0, # of connection points: 2
#     Edge 35, Type (0, 1), BuildingBlock: UVAHIK_clean_linker_0, # of connection points: 2
# Relax obj value: 0.310
# Max RMSD: 0.192
# Mean RMSD: 0.181
data_MOF--net-dag--node1-MIDCAF_clean_sbu_0--node2-MIDCAF_clean_linker_0--edge1-UVAHIK_clean_linker_0
_symmetry_space_group_name_H-M    P1
_symmetry_Int_Tables_number       1
_symmetry_cell_setting            triclinic
loop_
_symmetry_equiv_pos_as_xyz
'x, y, z'
_cell_length_a     59.335152
_cell_length_b     60.811677
_cell_length_c     45.341691
_cell_angle_alpha  85.742634
_cell_angle_beta   90.083197
_cell_angle_gamma 89.866803
loop_
_atom_site_label
_atom_site_type_symbol
_atom_site_fract_x
_atom_site_fract_y
_atom_site_fract_z
_atom_type_partial_charge
Zn0 Zn 0.1619 0.84596 0.06252 0.0
Zn1 Zn 0.12082 0.86311 0.9776 0.0
Zn2 Zn 0.14554 0.85472 0.01489 0.0
C3 C 0.13649 0.90126 0.98479 0.0
C4 C 0.11328 0.8203 0.99705 0.0
O5 O 0.16169 0.82197 0.01008 0.0
O6 O 0.17574 0.8173 0.05535 0.0
C7 C 0.18427 0.88369 0.03664 0.0
O8 O 0.15243 0.88731 0.99128 0.0
O9 O 0.1163 0.89464 0.98645 0.0
O10 O 0.10126 0.83737 0.99158 0.0
O11 O 0.13471 0.82242 1.00057 0.0
O12 O 0.18267 0.87178 0.06063 0.0
O13 O 0.1712 0.88022 0.01492 0.0
O14 O 0.11601 0.85585 0.04233 0.0
O15 O 0.13275 0.84524 0.08425 0.0
C16 C 0.11492 0.85016 0.06995 0.0
O17 O 0.15503 0.83209 0.98173 0.0
O18 O 0.14465 0.85651 0.94612 0.0
C19 C 0.17326 0.81055 0.02991 0.0
C20 C 0.1562 0.83961 0.95442 0.0
Zn21 Zn 0.64632 0.62591 0.5428 0.0
Zn22 Zn 0.64348 0.64768 0.65833 0.0
Zn23 Zn 0.64436 0.64351 0.58582 0.0
C24 C 0.63676 0.60301 0.62928 0.0
C25 C 0.61334 0.672 0.62963 0.0
O26 O 0.67507 0.65676 0.5667 0.0
O27 O 0.66214 0.65338 0.52177 0.0
C28 C 0.68255 0.61208 0.57712 0.0
O29 O 0.63688 0.61095 0.60243 0.0
O30 O 0.63934 0.61505 0.65083 0.0
O31 O 0.61692 0.6696 0.65713 0.0
O32 O 0.6253 0.66103 0.61292 0.0
O33 O 0.66735 0.6032 0.56237 0.0
O34 O 0.67963 0.63188 0.58472 0.0
O35 O 0.62093 0.65693 0.55204 0.0
O36 O 0.6123 0.62361 0.54139 0.0
C37 C 0.60729 0.64387 0.54044 0.0
O38 O 0.6772 0.65784 0.59774 0.0
O39 O 0.67314 0.66146 0.64636 0.0
C40 C 0.67586 0.66223 0.53878 0.0
C41 C 0.68437 0.66434 0.62261 0.0
Zn42 Zn 0.86187 0.15345 0.01702 0.0
Zn43 Zn 0.85927 0.15051 0.12349 0.0
Zn44 Zn 0.85339 0.15395 0.07112 0.0
C45 C 0.90087 0.14438 0.0931 0.0
C46 C 0.82537 0.11981 0.11082 0.0
O47 O 0.82073 0.14215 0.05634 0.0
O48 O 0.82651 0.16236 0.01475 0.0
C49 C 0.85209 0.1948 0.02475 0.0
O50 O 0.88799 0.14479 0.07055 0.0
O51 O 0.89273 0.14687 0.1184 0.0
O52 O 0.83818 0.12536 0.13127 0.0
O53 O 0.82755 0.12885 0.08431 0.0
O54 O 0.84243 0.18126 0.00883 0.0
O55 O 0.85625 0.18796 0.0516 0.0
O56 O 0.83857 0.1231 0.05501 0.0
O57 O 0.86064 0.12042 0.01618 0.0
C58 C 0.84692 0.1116 0.03481 0.0
O59 O 0.84431 0.18697 0.08334 0.0
O60 O 0.84761 0.18003 0.13159 0.0
C61 C 0.81266 0.15377 0.03384 0.0
C62 C 0.84245 0.19307 0.10966 0.0
Zn63 Zn 0.35577 0.34262 0.59151 0.0
Zn64 Zn 0.36881 0.34703 0.47327 0.0
Zn65 Zn 0.356 0.34119 0.52343 0.0
C66 C 0.40585 0.35316 0.51078 0.0
C67 C 0.33123 0.37531 0.47948 0.0
O68 O 0.32236 0.35408 0.53476 0.0
O69 O 0.32108 0.3368 0.5798 0.0
C70 C 0.34875 0.30198 0.56685 0.0
O71 O 0.39092 0.34845 0.53049 0.0
O72 O 0.40044 0.35478 0.48373 0.0
O73 O 0.34605 0.37019 0.46119 0.0
O74 O 0.33147 0.36644 0.50621 0.0
O75 O 0.33729 0.31592 0.57972 0.0
O76 O 0.35405 0.30734 0.54011 0.0
O77 O 0.34081 0.37195 0.53639 0.0
O78 O 0.36161 0.375 0.57645 0.0
C79 C 0.34931 0.38387 0.55595 0.0
O80 O 0.34793 0.30957 0.50717 0.0
O81 O 0.36257 0.31623 0.46274 0.0
C82 C 0.31077 0.34554 0.55688 0.0
C83 C 0.35257 0.30333 0.48154 0.0
C84 C 0.15388 0.14897 0.11037 0.0
C85 C 0.14043 0.16313 0.12606 0.0
C86 C 0.15073 0.17592 0.14685 0.0
C87 C 0.17395 0.17428 0.15218 0.0
H88 H 0.22477 0.19566 0.20529 0.0
H89 H 0.24094 0.21167 0.24816 0.0
H90 H 0.30171 0.17351 0.2388 0.0
H91 H 0.28598 0.15805 0.19558 0.0
H92 H 0.27887 0.11055 0.1654 0.0
H93 H 0.2941 0.07622 0.14827 0.0
H94 H 0.25347 0.08549 0.06922 0.0
H95 H 0.2381 0.11936 0.08633 0.0
H96 H 0.18666 0.13583 0.10357 0.0
H97 H 0.14641 0.13868 0.0945 0.0
H98 H 0.14082 0.18713 0.15908 0.0
H99 H 0.18129 0.18414 0.16863 0.0
N100 N 0.22165 0.16798 0.16501 0.0
N101 N 0.25498 0.14766 0.16038 0.0
N102 N 0.2235 0.14056 0.13143 0.0
C103 C 0.24342 0.16379 0.17307 0.0
C104 C 0.24518 0.13611 0.13941 0.0
C105 C 0.21156 0.15643 0.14412 0.0
C106 C 0.25393 0.17531 0.19719 0.0
C107 C 0.24168 0.19087 0.21215 0.0
C108 C 0.25088 0.19995 0.23686 0.0
C109 C 0.27247 0.19363 0.24714 0.0
C110 C 0.28509 0.17885 0.23138 0.0
C111 C 0.27595 0.16985 0.20665 0.0
C112 C 0.25713 0.11749 0.12727 0.0
C113 C 0.27362 0.10548 0.14404 0.0
C114 C 0.28234 0.08587 0.13431 0.0
C115 C 0.27508 0.07831 0.10737 0.0
C116 C 0.25967 0.0911 0.08985 0.0
C117 C 0.25068 0.11039 0.09978 0.0
C118 C 0.18731 0.1597 0.13694 0.0
C119 C 0.17699 0.14727 0.11573 0.0
C120 C 0.30879 0.62164 0.58222 0.0
C121 C 0.29207 0.60848 0.59653 0.0
C122 C 0.27741 0.61821 0.61623 0.0
C123 C 0.27985 0.64044 0.622 0.0
H124 H 0.25934 0.68895 0.67837 0.0
H125 H 0.24073 0.70495 0.71978 0.0
H126 H 0.28553 0.76091 0.71025 0.0
H127 H 0.30377 0.74536 0.66879 0.0
H128 H 0.35296 0.73592 0.6388 0.0
H129 H 0.39161 0.74544 0.62509 0.0
H130 H 0.38427 0.71139 0.54528 0.0
H131 H 0.34599 0.70118 0.55957 0.0
H132 H 0.32459 0.653 0.57665 0.0
H133 H 0.32072 0.61472 0.56739 0.0
H134 H 0.26419 0.6086 0.62741 0.0
H135 H 0.26861 0.64732 0.63773 0.0
N136 N 0.28954 0.6856 0.63736 0.0
N137 N 0.31349 0.71643 0.63337 0.0
N138 N 0.31935 0.68729 0.60346 0.0
C139 C 0.29535 0.70585 0.64597 0.0
C140 C 0.32544 0.70731 0.61193 0.0
C141 C 0.30152 0.67624 0.61597 0.0
C142 C 0.28313 0.7158 0.67021 0.0
C143 C 0.26513 0.70474 0.68497 0.0
C144 C 0.25454 0.71383 0.70882 0.0
C145 C 0.26168 0.73418 0.71831 0.0
C146 C 0.27941 0.74536 0.70325 0.0
C147 C 0.28997 0.73632 0.67951 0.0
C148 C 0.34663 0.71741 0.60055 0.0
C149 C 0.35943 0.73092 0.61799 0.0
C150 C 0.38159 0.73645 0.61006 0.0
C151 C 0.3912 0.72877 0.58437 0.0
C152 C 0.37759 0.71703 0.56562 0.0
C153 C 0.35561 0.71127 0.57373 0.0
C154 C 0.297 0.65336 0.60815 0.0
C155 C 0.31113 0.64372 0.58779 0.0
C156 C 0.82891 0.85228 0.43578 0.0
C157 C 0.83439 0.82976 0.4381 0.0
C158 C 0.8554 0.82301 0.42768 0.0
C159 C 0.87028 0.83841 0.41409 0.0
H160 H 0.92024 0.84245 0.34886 0.0
H161 H 0.94452 0.83162 0.30869 0.0
H162 H 0.9636 0.89959 0.28948 0.0
H163 H 0.93973 0.91049 0.32935 0.0
H164 H 0.90439 0.94728 0.33951 0.0
H165 H 0.88586 0.97916 0.31497 0.0
H166 H 0.82394 0.9617 0.36083 0.0
H167 H 0.8424 0.9294 0.3852 0.0
H168 H 0.83876 0.88485 0.42055 0.0
H169 H 0.81295 0.85796 0.44399 0.0
H170 H 0.85999 0.80571 0.42907 0.0
H171 H 0.88605 0.83258 0.4055 0.0
N172 N 0.89746 0.87028 0.37909 0.0
N173 N 0.90269 0.90627 0.35803 0.0
N174 N 0.87237 0.8985 0.38986 0.0
C175 C 0.90954 0.88491 0.36136 0.0
C176 C 0.88419 0.91325 0.37216 0.0
C177 C 0.87898 0.87706 0.39375 0.0
C178 C 0.92764 0.87741 0.34194 0.0
C179 C 0.93004 0.85501 0.33655 0.0
C180 C 0.9439 0.84878 0.31356 0.0
C181 C 0.95543 0.86487 0.29565 0.0
C182 C 0.95444 0.88695 0.30259 0.0
C183 C 0.94079 0.89315 0.32551 0.0
C184 C 0.87475 0.93541 0.36374 0.0
C185 C 0.88698 0.95046 0.34499 0.0
C186 C 0.87636 0.9689 0.33105 0.0
C187 C 0.85329 0.97274 0.33558 0.0
C188 C 0.84163 0.95892 0.35652 0.0
C189 C 0.85228 0.94046 0.37058 0.0
C190 C 0.86448 0.8609 0.41084 0.0
C191 C 0.84381 0.86768 0.42244 0.0
C192 C 0.6246 0.29442 0.93846 0.0
C193 C 0.62178 0.27147 0.93855 0.0
C194 C 0.60453 0.26312 0.92142 0.0
C195 C 0.59023 0.27741 0.90466 0.0
H196 H 0.53047 0.2781 0.85873 0.0
H197 H 0.49963 0.26434 0.82954 0.0
H198 H 0.47838 0.33127 0.80548 0.0
H199 H 0.50877 0.345 0.83484 0.0
H200 H 0.54508 0.38335 0.83589 0.0
H201 H 0.55714 0.41525 0.80455 0.0
H202 H 0.62664 0.39543 0.81745 0.0
H203 H 0.61454 0.36351 0.84946 0.0
H204 H 0.61316 0.32636 0.92142 0.0
H205 H 0.63792 0.30123 0.95135 0.0
H206 H 0.60198 0.2455 0.92118 0.0
H207 H 0.57708 0.27039 0.8917 0.0
N208 N 0.55745 0.308 0.87782 0.0
N209 N 0.55045 0.3418 0.8514 0.0
N210 N 0.58483 0.33599 0.87632 0.0
C211 C 0.54351 0.32125 0.86067 0.0
C212 C 0.571 0.34933 0.85895 0.0
C213 C 0.57799 0.31534 0.88611 0.0
C214 C 0.52235 0.31267 0.84863 0.0
C215 C 0.51886 0.28985 0.84786 0.0
C216 C 0.50129 0.28196 0.831 0.0
C217 C 0.4868 0.29672 0.81486 0.0
C218 C 0.48917 0.31944 0.81773 0.0
C219 C 0.50675 0.32732 0.8344 0.0
C220 C 0.57884 0.3707 0.84486 0.0
C221 C 0.56298 0.38592 0.83243 0.0
C222 C 0.56987 0.40414 0.81425 0.0
C223 C 0.5928 0.40758 0.80789 0.0
C224 C 0.60882 0.3932 0.82187 0.0
C225 C 0.6019 0.37494 0.84027 0.0
C226 C 0.59313 0.30038 0.90425 0.0
C227 C 0.61054 0.30875 0.92122 0.0
C228 C 0.65374 0.34763 0.47686 0.0
C229 C 0.64108 0.33389 0.45969 0.0
C230 C 0.65222 0.32178 0.43883 0.0
C231 C 0.67548 0.32453 0.43403 0.0
H232 H 0.73477 0.30149 0.39215 0.0
H233 H 0.75273 0.28544 0.35036 0.0
H234 H 0.80105 0.33851 0.34409 0.0
H235 H 0.78328 0.35463 0.38589 0.0
H236 H 0.78209 0.39176 0.43346 0.0
H237 H 0.79384 0.4278 0.44954 0.0
H238 H 0.73275 0.43144 0.5002 0.0
H239 H 0.72101 0.39583 0.48489 0.0
H240 H 0.68572 0.3615 0.48556 0.0
H241 H 0.64565 0.35681 0.49351 0.0
H242 H 0.64281 0.31099 0.4254 0.0
H243 H 0.6835 0.31576 0.41694 0.0
N244 N 0.72373 0.33402 0.42323 0.0
N245 N 0.7538 0.35892 0.42672 0.0
N246 N 0.72097 0.36296 0.45425 0.0
C247 C 0.7449 0.34075 0.4152 0.0
C248 C 0.74191 0.37007 0.44643 0.0
C249 C 0.71169 0.34505 0.44293 0.0
C250 C 0.75734 0.32956 0.39217 0.0
C251 C 0.74938 0.30964 0.38213 0.0
C252 C 0.75973 0.30035 0.35831 0.0
C253 C 0.77811 0.31088 0.34385 0.0
C254 C 0.78671 0.33022 0.35465 0.0
C255 C 0.77654 0.33939 0.37867 0.0
C256 C 0.7505 0.39085 0.45768 0.0
C257 C 0.77129 0.40012 0.44831 0.0
C258 C 0.77805 0.42069 0.45745 0.0
C259 C 0.76407 0.43223 0.47594 0.0
C260 C 0.74372 0.42277 0.48587 0.0
C261 C 0.73705 0.40233 0.477 0.0
C262 C 0.68789 0.33932 0.4502 0.0
C263 C 0.67678 0.35026 0.47227 0.0
C264 C 0.13039 0.20098 0.65896 0.0
C265 C 0.12408 0.22297 0.6513 0.0
C266 C 0.10339 0.23062 0.66166 0.0
C267 C 0.08943 0.21668 0.67941 0.0
H268 H 0.03408 0.21781 0.7358 0.0
H269 H 0.00303 0.23175 0.76457 0.0
H270 H 0.98266 0.16488 0.79005 0.0
H271 H 0.01324 0.151 0.76117 0.0
H272 H 0.04967 0.11312 0.76171 0.0
H273 H 0.06283 0.08008 0.78996 0.0
H274 H 0.13162 0.0972 0.76758 0.0
H275 H 0.11838 0.13028 0.73864 0.0
H276 H 0.12202 0.17028 0.68253 0.0
H277 H 0.14634 0.19464 0.65164 0.0
H278 H 0.09792 0.2474 0.65592 0.0
H279 H 0.07366 0.22325 0.68701 0.0
N280 N 0.06088 0.18761 0.71605 0.0
N281 N 0.05465 0.15405 0.74348 0.0
N282 N 0.08823 0.1595 0.71685 0.0
C283 C 0.04747 0.1746 0.7342 0.0
C284 C 0.07493 0.14633 0.73506 0.0
C285 C 0.08119 0.18013 0.70695 0.0
C286 C 0.02641 0.18327 0.74664 0.0
C287 C 0.02264 0.2061 0.74697 0.0
C288 C 0.00494 0.2141 0.76359 0.0
C289 C 0.99056 0.19943 0.77993 0.0
C290 C 0.99332 0.17666 0.77765 0.0
C291 C 0.01103 0.16869 0.76125 0.0
C292 C 0.08299 0.1246 0.74824 0.0
C293 C 0.06761 0.10978 0.76245 0.0
C294 C 0.07516 0.09084 0.77881 0.0
C295 C 0.09832 0.0862 0.78159 0.0
C296 C 0.11367 0.10026 0.76589 0.0
C297 C 0.10607 0.11926 0.74933 0.0
C298 C 0.09583 0.19473 0.68743 0.0
C299 C 0.11648 0.18704 0.67686 0.0
C300 C 0.35586 0.67473 0.16365 0.0
C301 C 0.33457 0.66729 0.15507 0.0
C302 C 0.32874 0.64518 0.16202 0.0
C303 C 0.34356 0.63088 0.17763 0.0
H304 H 0.34513 0.5697 0.211 0.0
H305 H 0.32635 0.53713 0.23356 0.0
H306 H 0.38523 0.52167 0.28722 0.0
H307 H 0.40418 0.55422 0.26476 0.0
H308 H 0.44464 0.59057 0.26231 0.0
H309 H 0.47257 0.6017 0.29741 0.0
H310 H 0.44968 0.66916 0.28416 0.0
H311 H 0.42169 0.65806 0.24839 0.0
H312 H 0.38691 0.6666 0.18634 0.0
H313 H 0.36075 0.69174 0.15859 0.0
H314 H 0.31263 0.63884 0.15527 0.0
H315 H 0.33817 0.61402 0.18271 0.0
N316 N 0.37318 0.60151 0.20997 0.0
N317 N 0.40431 0.5943 0.24071 0.0
N318 N 0.39857 0.62995 0.21813 0.0
C319 C 0.38534 0.5871 0.22779 0.0
C320 C 0.41115 0.61561 0.23592 0.0
C321 C 0.37961 0.62285 0.20482 0.0
C322 C 0.37602 0.56494 0.23658 0.0
C323 C 0.35434 0.55917 0.22716 0.0
C324 C 0.34349 0.54052 0.2401 0.0
C325 C 0.35417 0.52711 0.26247 0.0
C326 C 0.37658 0.53171 0.26999 0.0
C327 C 0.38739 0.55047 0.25721 0.0
C328 C 0.43061 0.62334 0.25294 0.0
C329 C 0.4457 0.60785 0.26648 0.0
C330 C 0.46169 0.61422 0.28669 0.0
C331 C 0.46297 0.63622 0.29408 0.0
C332 C 0.44906 0.65207 0.27896 0.0
C333 C 0.43301 0.64569 0.25851 0.0
C334 C 0.3647 0.63827 0.1869 0.0
C335 C 0.37077 0.66037 0.17959 0.0
C336 C 0.81102 0.87361 1.00046 0.0
C337 C 0.79519 0.88745 0.98524 0.0
C338 C 0.78152 0.87862 0.96368 0.0
C339 C 0.78424 0.85669 0.95675 0.0
H340 H 0.76993 0.81346 0.89119 0.0
H341 H 0.7534 0.79901 0.84713 0.0
H342 H 0.78006 0.73446 0.87363 0.0
H343 H 0.79685 0.74882 0.91742 0.0
H344 H 0.85355 0.75794 0.93464 0.0
H345 H 0.89198 0.74494 0.94467 0.0
H346 H 0.8971 0.78789 0.01602 0.0
H347 H 0.8588 0.80085 0.00623 0.0
H348 H 0.8266 0.8419 0.00526 0.0
H349 H 0.82204 0.87987 0.01694 0.0
H350 H 0.76896 0.88877 0.95181 0.0
H351 H 0.77386 0.85061 0.93947 0.0
N352 N 0.79262 0.81157 0.94132 0.0
N353 N 0.81746 0.78144 0.94122 0.0
N354 N 0.8249 0.81021 0.9713 0.0
C355 C 0.79822 0.79171 0.93133 0.0
C356 C 0.83091 0.79057 0.96121 0.0
C357 C 0.8058 0.82082 0.96161 0.0
C358 C 0.78499 0.78235 0.90756 0.0
C359 C 0.7719 0.7961 0.88794 0.0
C360 C 0.76251 0.78788 0.86268 0.0
C361 C 0.76565 0.7657 0.85694 0.0
C362 C 0.77734 0.75161 0.87761 0.0
C363 C 0.78707 0.75989 0.90256 0.0
C364 C 0.85309 0.78058 0.96951 0.0
C365 C 0.86272 0.76437 0.95279 0.0
C366 C 0.88479 0.75699 0.95839 0.0
C367 C 0.8976 0.76544 0.98105 0.0
C368 C 0.88761 0.78089 0.99858 0.0
C369 C 0.86567 0.78843 0.99282 0.0
C370 C 0.8008 0.84317 0.97113 0.0
C371 C 0.81377 0.85179 0.99354 0.0
C372 C 0.21998 0.89986 0.05373 0.0
C373 C 0.2011 0.90157 0.03491 0.0
C374 C 0.23447 0.91768 0.05583 0.0
C375 C 0.23113 0.97731 0.05004 0.0
H376 H 0.29531 0.97425 0.06693 0.0
C377 C 0.28558 0.05214 0.06969 0.0
C378 C 0.28047 0.0558 0.09919 0.0
C379 C 0.28321 0.03114 0.05958 0.0
C380 C 0.27744 0.97521 0.06211 0.0
H381 H 0.18343 0.92278 0.00214 0.0
H382 H 0.20877 0.95418 0.00578 0.0
H383 H 0.2759 0.94205 0.04901 0.0
H384 H 0.27148 0.04004 0.14201 0.0
H385 H 0.26723 0.00331 0.12414 0.0
H386 H 0.23256 0.01019 0.06378 0.0
C387 C 0.21224 0.939 0.01905 0.0
C388 C 0.26633 0.95692 0.05191 0.0
C389 C 0.1978 0.92102 0.01679 0.0
C390 C 0.27566 0.03766 0.11921 0.0
C391 C 0.27321 0.01667 0.10904 0.0
C392 C 0.24217 0.99544 0.06024 0.0
C393 C 0.23032 0.9377 0.0393 0.0
C394 C 0.24297 0.95772 0.04613 0.0
C395 C 0.27582 0.01359 0.07889 0.0
C396 C 0.26526 0.99442 0.06668 0.0
H397 H 0.22313 0.88494 0.06772 0.0
H398 H 0.2481 0.91615 0.07177 0.0
H399 H 0.21309 0.97835 0.04645 0.0
H400 H 0.28948 0.06587 0.05393 0.0
H401 H 0.2851 0.02905 0.03619 0.0
C402 C 0.58959 0.70592 0.6261 0.0
C403 C 0.59414 0.68475 0.61742 0.0
C404 C 0.57066 0.71748 0.61495 0.0
C405 C 0.52332 0.71472 0.5603 0.0
H406 H 0.48963 0.74216 0.62098 0.0
C407 C 0.42772 0.7123 0.56956 0.0
C408 C 0.41585 0.73053 0.57908 0.0
C409 C 0.45113 0.71264 0.56759 0.0
C410 C 0.49898 0.73504 0.60351 0.0
H411 H 0.58298 0.65885 0.59068 0.0
H412 H 0.5495 0.67829 0.57229 0.0
H413 H 0.52869 0.73194 0.62994 0.0
H414 H 0.41934 0.76374 0.59294 0.0
H415 H 0.46057 0.76409 0.59003 0.0
H416 H 0.49281 0.71633 0.53493 0.0
C417 C 0.56079 0.68665 0.58653 0.0
C418 C 0.52147 0.72919 0.60859 0.0
C419 C 0.5799 0.67537 0.59719 0.0
C420 C 0.42799 0.74937 0.58577 0.0
C421 C 0.45153 0.74963 0.584 0.0
C422 C 0.50073 0.72029 0.55542 0.0
C423 C 0.5557 0.70773 0.5956 0.0
C424 C 0.53365 0.71814 0.58754 0.0
C425 C 0.4633 0.73112 0.57531 0.0
C426 C 0.48814 0.72975 0.57745 0.0
H427 H 0.60062 0.71348 0.64149 0.0
H428 H 0.56751 0.73384 0.62197 0.0
H429 H 0.53237 0.7068 0.54324 0.0
H430 H 0.41904 0.69728 0.56498 0.0
H431 H 0.45977 0.69792 0.56152 0.0
C432 C 0.81984 0.07987 0.11133 0.0
C433 C 0.81117 0.10046 0.11761 0.0
C434 C 0.81505 0.06119 0.12998 0.0
C435 C 0.78916 0.04207 0.20276 0.0
H436 H 0.8512 0.02588 0.22093 0.0
C437 C 0.82082 0.98274 0.30186 0.0
C438 C 0.84105 0.98889 0.31525 0.0
C439 C 0.81195 0.99551 0.27765 0.0
C440 C 0.83379 0.03029 0.21623 0.0
H441 H 0.78839 0.11734 0.14546 0.0
H442 H 0.78047 0.08498 0.17858 0.0
H443 H 0.84234 0.04559 0.1741 0.0
H444 H 0.86646 0.0144 0.31583 0.0
H445 H 0.85101 0.03665 0.27351 0.0
H446 H 0.78106 0.02717 0.24593 0.0
C447 C 0.79057 0.08293 0.1591 0.0
C448 C 0.82858 0.04119 0.18905 0.0
C449 C 0.79505 0.10153 0.14006 0.0
C450 C 0.85111 0.00903 0.30561 0.0
C451 C 0.84229 0.02173 0.2814 0.0
C452 C 0.79442 0.0309 0.23009 0.0
C453 C 0.80224 0.06312 0.15576 0.0
C454 C 0.80629 0.04763 0.18212 0.0
C455 C 0.82322 0.01455 0.2664 0.0
C456 C 0.8169 0.02548 0.2373 0.0
H457 H 0.83293 0.07873 0.09493 0.0
H458 H 0.82386 0.04598 0.12647 0.0
H459 H 0.77186 0.04689 0.1981 0.0
H460 H 0.81273 0.96723 0.30859 0.0
H461 H 0.79724 0.98962 0.26648 0.0
C462 C 0.36079 0.27377 0.60607 0.0
C463 C 0.3664 0.2911 0.58537 0.0
C464 C 0.37542 0.26775 0.6295 0.0
C465 C 0.39727 0.27449 0.68828 0.0
H466 H 0.4623 0.28028 0.68682 0.0
C467 C 0.44985 0.2985 0.78772 0.0
C468 C 0.47127 0.28892 0.79222 0.0
C469 C 0.43688 0.29386 0.76322 0.0
C470 C 0.44418 0.27826 0.6876 0.0
H471 H 0.39181 0.31532 0.57204 0.0
H472 H 0.41706 0.30533 0.61313 0.0
H473 H 0.44157 0.27961 0.6404 0.0
H474 H 0.49545 0.26623 0.77521 0.0
H475 H 0.47263 0.25788 0.73273 0.0
H476 H 0.39987 0.27353 0.73545 0.0
C477 C 0.40185 0.29577 0.61098 0.0
C478 C 0.43229 0.27807 0.661 0.0
C479 C 0.3874 0.30149 0.58734 0.0
C480 C 0.47892 0.27371 0.77256 0.0
C481 C 0.46599 0.26914 0.74801 0.0
C482 C 0.40915 0.2747 0.71485 0.0
C483 C 0.39561 0.2794 0.63298 0.0
C484 C 0.40865 0.27657 0.66101 0.0
C485 C 0.4451 0.27959 0.74269 0.0
C486 C 0.43268 0.27698 0.71477 0.0
H487 H 0.34454 0.26576 0.6051 0.0
H488 H 0.37035 0.25479 0.64579 0.0
H489 H 0.37905 0.27367 0.68915 0.0
H490 H 0.44345 0.31017 0.8026 0.0
H491 H 0.42089 0.30228 0.75962 0.0
C492 C 0.70279 0.57787 0.59249 0.0
C493 C 0.70386 0.59994 0.58125 0.0
C494 C 0.71961 0.56297 0.58589 0.0
C495 C 0.75647 0.55498 0.52345 0.0
H496 H 0.76744 0.49923 0.5683 0.0
C497 C 0.75762 0.47264 0.47082 0.0
C498 C 0.76956 0.45463 0.48414 0.0
C499 C 0.75839 0.49314 0.48279 0.0
C500 C 0.76511 0.51481 0.55547 0.0
H501 H 0.72407 0.62434 0.55641 0.0
H502 H 0.75397 0.59832 0.54515 0.0
H503 H 0.75422 0.53068 0.59357 0.0
H504 H 0.79257 0.44388 0.51932 0.0
H505 H 0.79431 0.47992 0.54025 0.0
H506 H 0.76682 0.53893 0.48523 0.0
C507 C 0.74002 0.59245 0.55894 0.0
C508 C 0.75726 0.53283 0.56998 0.0
C509 C 0.72314 0.60745 0.56578 0.0
C510 C 0.78342 0.45769 0.50856 0.0
C511 C 0.78419 0.47824 0.52065 0.0
C512 C 0.76446 0.53699 0.50896 0.0
C513 C 0.73783 0.5698 0.56762 0.0
C514 C 0.7518 0.55284 0.55396 0.0
C515 C 0.77103 0.49601 0.50854 0.0
C516 C 0.76786 0.51637 0.52457 0.0
H517 H 0.68783 0.57166 0.60398 0.0
H518 H 0.71709 0.54572 0.59276 0.0
H519 H 0.7524 0.57005 0.51027 0.0
H520 H 0.7466 0.4705 0.45217 0.0
H521 H 0.74778 0.50624 0.47303 0.0
C522 C 0.86282 0.22406 0.9866 0.0
C523 C 0.86937 0.2081 0.00882 0.0
C524 C 0.87729 0.22983 0.96298 0.0
C525 C 0.89974 0.22156 0.90527 0.0
H526 H 0.96498 0.21877 0.90681 0.0
C527 C 0.95343 0.19744 0.80665 0.0
C528 C 0.97461 0.20741 0.80205 0.0
C529 C 0.94018 0.20221 0.83085 0.0
C530 C 0.94677 0.21995 0.90594 0.0
H531 H 0.89649 0.18638 0.02473 0.0
H532 H 0.92143 0.19594 0.98343 0.0
H533 H 0.94429 0.22033 0.953 0.0
H534 H 0.99793 0.2311 0.81846 0.0
H535 H 0.97463 0.23971 0.86031 0.0
H536 H 0.90225 0.22098 0.85824 0.0
C537 C 0.90556 0.20468 0.98445 0.0
C538 C 0.93489 0.2206 0.93248 0.0
C539 C 0.89131 0.19933 0.00838 0.0
C540 C 0.98163 0.22323 0.8212 0.0
C541 C 0.96842 0.22795 0.84544 0.0
C542 C 0.91162 0.22094 0.87876 0.0
C543 C 0.8983 0.21924 0.96076 0.0
C544 C 0.9112 0.22113 0.93253 0.0
C545 C 0.94785 0.21703 0.85102 0.0
C546 C 0.93525 0.2198 0.87881 0.0
H547 H 0.84584 0.23065 0.98621 0.0
H548 H 0.87139 0.24151 0.94546 0.0
H549 H 0.8815 0.22151 0.90439 0.0
H550 H 0.94744 0.18535 0.79211 0.0
H551 H 0.92445 0.19344 0.83454 0.0
C552 C 0.29835 0.38923 0.45068 0.0
C553 C 0.316 0.39343 0.47001 0.0
C554 C 0.29084 0.40581 0.42996 0.0
C555 C 0.30012 0.46412 0.40061 0.0
H556 H 0.31246 0.43699 0.32748 0.0
C557 C 0.32013 0.51584 0.29221 0.0
C558 C 0.3412 0.51028 0.28062 0.0
C559 C 0.30943 0.5016 0.31333 0.0
C560 C 0.30867 0.44479 0.34761 0.0
H561 H 0.33805 0.41846 0.48529 0.0
H562 H 0.32485 0.44748 0.44962 0.0
H563 H 0.30428 0.41384 0.37226 0.0
H564 H 0.36686 0.48491 0.28055 0.0
H565 H 0.34805 0.45985 0.31727 0.0
H566 H 0.30592 0.49506 0.37607 0.0
C567 C 0.31651 0.43162 0.45039 0.0
C568 C 0.30371 0.43157 0.37324 0.0
C569 C 0.32402 0.41502 0.47103 0.0
C570 C 0.3507 0.48963 0.28922 0.0
C571 C 0.33985 0.47526 0.31007 0.0
C572 C 0.30485 0.47737 0.37483 0.0
C573 C 0.30111 0.42669 0.42822 0.0
C574 C 0.30024 0.44103 0.40029 0.0
C575 C 0.31945 0.48141 0.32296 0.0
C576 C 0.31005 0.46775 0.3484 0.0
H577 H 0.2922 0.37257 0.44929 0.0
H578 H 0.27869 0.40166 0.41342 0.0
H579 H 0.29752 0.47186 0.4211 0.0
H580 H 0.31249 0.53175 0.28621 0.0
H581 H 0.29368 0.50666 0.32283 0.0
C582 C 0.09193 0.79267 0.97165 0.0
C583 C 0.10202 0.79885 0.99775 0.0
C584 C 0.0733 0.77863 0.97291 0.0
C585 C 0.02572 0.77079 0.02252 0.0
H586 H 0.00246 0.73583 0.96123 0.0
C587 C 0.93082 0.75543 0.01379 0.0
C588 C 0.92176 0.75947 0.98525 0.0
C589 C 0.95404 0.75269 0.01789 0.0
C590 C 0.00871 0.74556 0.97855 0.0
H591 H 0.10227 0.79374 0.04542 0.0
H592 H 0.06996 0.76871 0.04779 0.0
H593 H 0.043 0.74254 0.96441 0.0
H594 H 0.92989 0.76289 0.93854 0.0
H595 H 0.9704 0.75848 0.94566 0.0
H596 H 0.99158 0.77492 0.03574 0.0
C597 C 0.07623 0.77483 0.02631 0.0
C598 C 0.03195 0.74931 0.98045 0.0
C599 C 0.09493 0.78887 0.02499 0.0
C600 C 0.93633 0.7596 0.96081 0.0
C601 C 0.95958 0.757 0.96491 0.0
C602 C 0.00258 0.76708 0.0206 0.0
C603 C 0.06431 0.77075 1.00037 0.0
C604 C 0.04067 0.76253 0.00195 0.0
C605 C 0.9688 0.75411 0.99356 0.0
C606 C 0.99368 0.75496 0.99809 0.0
H607 H 0.09694 0.80052 0.95044 0.0
H608 H 0.06458 0.77596 0.95248 0.0
H609 H 0.03167 0.78144 0.03898 0.0
H610 H 0.91997 0.75489 0.03302 0.0
H611 H 0.9605 0.75005 0.04023 0.0
C612 C 0.85433 0.07361 0.02041 0.0
C613 C 0.83935 0.0889 0.03137 0.0
C614 C 0.84711 0.05237 0.01551 0.0
C615 C 0.80255 0.01149 0.03469 0.0
H616 H 0.82464 0.98529 0.96485 0.0
C617 C 0.79705 0.91825 0.01924 0.0
C618 C 0.79431 0.91131 0.99055 0.0
C619 C 0.79937 0.94061 0.02379 0.0
C620 C 0.81801 0.99243 0.98423 0.0
H621 H 0.80512 0.09421 0.04576 0.0
H622 H 0.79232 0.057 0.03698 0.0
H623 H 0.83515 0.02287 0.97361 0.0
H624 H 0.79077 0.92265 0.94427 0.0
H625 H 0.79417 0.9617 0.9523 0.0
H626 H 0.78521 0.98107 0.04513 0.0
C627 C 0.80975 0.0613 0.03259 0.0
C628 C 0.82433 0.0139 0.98949 0.0
C629 C 0.81703 0.08258 0.03757 0.0
C630 C 0.79273 0.92739 0.96669 0.0
C631 C 0.79499 0.94978 0.97124 0.0
C632 C 0.79617 0.99 0.0294 0.0
C633 C 0.82467 0.04602 0.02121 0.0
C634 C 0.81694 0.02358 0.01499 0.0
C635 C 0.79891 0.95662 0.99977 0.0
C636 C 0.80406 0.9801 0.00428 0.0
H637 H 0.87168 0.07808 0.01563 0.0
H638 H 0.85916 0.0409 0.00732 0.0
H639 H 0.79665 0.01841 0.05462 0.0
H640 H 0.798 0.90633 0.03818 0.0
H641 H 0.8025 0.94523 0.04604 0.0
C642 C 0.43936 0.33076 0.52545 0.0
C643 C 0.43001 0.35164 0.51767 0.0
C644 C 0.46253 0.32716 0.52242 0.0
C645 C 0.51751 0.35456 0.51505 0.0
H646 H 0.53382 0.30832 0.4644 0.0
C647 C 0.6045 0.3537 0.4625 0.0
C648 C 0.61621 0.3336 0.46291 0.0
C649 C 0.58164 0.35419 0.46938 0.0
C650 C 0.52959 0.32108 0.47891 0.0
H651 H 0.43734 0.38522 0.50171 0.0
H652 H 0.47806 0.37936 0.49819 0.0
H653 H 0.49453 0.31239 0.47979 0.0
H654 H 0.61292 0.2981 0.46898 0.0
H655 H 0.57262 0.2989 0.48144 0.0
H656 H 0.55232 0.36336 0.51436 0.0
C657 C 0.46752 0.36572 0.50635 0.0
C658 C 0.50712 0.32339 0.48775 0.0
C659 C 0.4443 0.36917 0.50862 0.0
C660 C 0.60425 0.31382 0.46863 0.0
C661 C 0.58123 0.31431 0.47575 0.0
C662 C 0.5399 0.35216 0.50647 0.0
C663 C 0.47675 0.34451 0.51217 0.0
C664 C 0.50082 0.34043 0.50547 0.0
C665 C 0.56987 0.33458 0.4771 0.0
C666 C 0.54618 0.33573 0.48774 0.0
H667 H 0.42854 0.31684 0.53158 0.0
H668 H 0.46922 0.31067 0.52711 0.0
H669 H 0.51317 0.36765 0.52899 0.0
H670 H 0.61321 0.36917 0.45751 0.0
H671 H 0.57328 0.37005 0.46921 0.0
C672 C 0.15771 0.92633 0.94841 0.0
C673 C 0.14084 0.92335 0.97006 0.0
C674 C 0.1581 0.94552 0.92921 0.0
C675 C 0.13527 0.00241 0.91753 0.0
H676 H 0.13474 0.99143 0.83434 0.0
C677 C 0.09595 0.06406 0.83039 0.0
C678 C 0.10631 0.06777 0.80259 0.0
C679 C 0.10352 0.04729 0.85072 0.0
C680 C 0.13524 0.99489 0.85742 0.0
H681 H 0.11206 0.9385 0.98979 0.0
H682 H 0.11307 0.97211 0.95701 0.0
H683 H 0.14358 0.96138 0.87141 0.0
H684 H 0.13275 0.0565 0.77437 0.0
H685 H 0.14616 0.02718 0.81016 0.0
H686 H 0.12654 0.03575 0.90375 0.0
C687 C 0.12596 0.95972 0.95466 0.0
C688 C 0.14036 0.97766 0.87867 0.0
C689 C 0.12536 0.94047 0.97346 0.0
C690 C 0.12447 0.05417 0.79564 0.0
C691 C 0.13204 0.03727 0.81606 0.0
C692 C 0.13027 0.01961 0.89633 0.0
C693 C 0.14183 0.96217 0.93167 0.0
C694 C 0.13988 0.98111 0.90901 0.0
C695 C 0.12174 0.03374 0.84396 0.0
C696 C 0.12959 0.01595 0.86606 0.0
H697 H 0.16965 0.91325 0.94505 0.0
H698 H 0.17063 0.94701 0.91185 0.0
H699 H 0.13506 0.00567 0.94069 0.0
H700 H 0.08214 0.07437 0.83672 0.0
H701 H 0.0949 0.04485 0.87174 0.0
C702 C 0.59097 0.67006 0.50072 0.0
C703 C 0.58833 0.65187 0.52145 0.0
C704 C 0.57592 0.67332 0.47683 0.0
C705 C 0.54407 0.63745 0.43251 0.0
H706 H 0.51421 0.689 0.395 0.0
C707 C 0.477 0.62785 0.34553 0.0
C708 C 0.47719 0.64184 0.31946 0.0
C709 C 0.49055 0.63223 0.36945 0.0
C710 C 0.52274 0.67457 0.40508 0.0
H711 H 0.56666 0.6246 0.5358 0.0
H712 H 0.54018 0.63059 0.49485 0.0
H713 H 0.53676 0.69233 0.44018 0.0
H714 H 0.49116 0.67197 0.29851 0.0
H715 H 0.51528 0.67961 0.34076 0.0
H716 H 0.5305 0.61961 0.39788 0.0
C717 C 0.55411 0.64195 0.49639 0.0
C718 C 0.53551 0.67646 0.43092 0.0
C719 C 0.56917 0.63857 0.5199 0.0
C720 C 0.49075 0.66084 0.31829 0.0
C721 C 0.50448 0.66524 0.34244 0.0
C722 C 0.53156 0.63559 0.40686 0.0
C723 C 0.55808 0.65848 0.47369 0.0
C724 C 0.54573 0.65771 0.4453 0.0
C725 C 0.50477 0.65071 0.36808 0.0
C726 C 0.52018 0.65392 0.39329 0.0
H727 H 0.6057 0.6805 0.50143 0.0
H728 H 0.5793 0.68624 0.45968 0.0
H729 H 0.55237 0.62286 0.44255 0.0
H730 H 0.46625 0.61344 0.34752 0.0
H731 H 0.48989 0.62103 0.38916 0.0
C732 C 0.32055 0.41377 0.54663 0.0
C733 C 0.34154 0.40678 0.55825 0.0
C734 C 0.31233 0.43483 0.55109 0.0
C735 C 0.31996 0.48106 0.5995 0.0
H736 H 0.28791 0.51468 0.53666 0.0
C737 C 0.28744 0.56876 0.61569 0.0
C738 C 0.29112 0.5845 0.59186 0.0
C739 C 0.28983 0.54622 0.61197 0.0
C740 C 0.29691 0.50559 0.55443 0.0
H741 H 0.37046 0.41638 0.58352 0.0
H742 H 0.35645 0.45329 0.59071 0.0
H743 H 0.30102 0.47764 0.52896 0.0
H744 H 0.29849 0.58866 0.54492 0.0
H745 H 0.30365 0.54975 0.53877 0.0
H746 H 0.31698 0.5094 0.62439 0.0
C747 C 0.34607 0.44242 0.5786 0.0
C748 C 0.3042 0.48419 0.55013 0.0
C749 C 0.35423 0.42134 0.57423 0.0
C750 C 0.296 0.57706 0.56393 0.0
C751 C 0.29864 0.55462 0.5603 0.0
C752 C 0.31287 0.50254 0.60369 0.0
C753 C 0.32491 0.44938 0.56732 0.0
C754 C 0.31611 0.47175 0.57245 0.0
C755 C 0.29611 0.53889 0.5844 0.0
C756 C 0.30155 0.51524 0.58105 0.0
H757 H 0.31012 0.40273 0.53484 0.0
H758 H 0.29584 0.43947 0.54243 0.0
H759 H 0.32867 0.47182 0.61742 0.0
H760 H 0.28372 0.57386 0.63754 0.0
H761 H 0.28729 0.53458 0.63091 0.0
C762 C 0.09182 0.83317 0.111 0.0
C763 C 0.09322 0.84792 0.0857 0.0
C764 C 0.07238 0.83196 0.12813 0.0
C765 C 0.02698 0.86735 0.14923 0.0
H766 H 0.00624 0.81402 0.19315 0.0
C767 C 0.96195 0.87169 0.24158 0.0
C768 C 0.96687 0.85933 0.2682 0.0
C769 C 0.97355 0.86789 0.21577 0.0
C770 C 0.0119 0.82905 0.18111 0.0
H771 H 0.07488 0.872 0.05737 0.0
H772 H 0.04063 0.87021 0.08791 0.0
H773 H 0.03257 0.81142 0.15211 0.0
H774 H 0.987 0.83262 0.28859 0.0
H775 H 0.00791 0.82623 0.24338 0.0
H776 H 0.00715 0.88507 0.17877 0.0
C777 C 0.05477 0.85964 0.09441 0.0
C778 C 0.02686 0.82756 0.15754 0.0
C779 C 0.07428 0.86065 0.07693 0.0
C780 C 0.98298 0.84239 0.2683 0.0
C781 C 0.99481 0.83869 0.24241 0.0
C782 C 0.01207 0.86884 0.17276 0.0
C783 C 0.05385 0.84559 0.12055 0.0
C784 C 0.03498 0.84675 0.14181 0.0
C785 C 0.99052 0.85174 0.216 0.0
C786 C 0.0047 0.84974 0.18936 0.0
H787 H 0.10603 0.82283 0.11802 0.0
H788 H 0.07237 0.82113 0.14821 0.0
H789 H 0.03321 0.88245 0.13796 0.0
H790 H 0.94921 0.88452 0.2408 0.0
H791 H 0.96946 0.87787 0.19568 0.0
C792 C 0.61752 0.56637 0.6294 0.0
C793 C 0.63614 0.57913 0.63652 0.0
C794 C 0.61489 0.54506 0.64308 0.0
C795 C 0.62843 0.51766 0.71428 0.0
H796 H 0.60946 0.46316 0.68274 0.0
C797 C 0.61873 0.43845 0.79017 0.0
C798 C 0.59968 0.42546 0.78563 0.0
C799 C 0.62467 0.45559 0.76939 0.0
C800 C 0.61457 0.47833 0.69188 0.0
H801 H 0.66762 0.57936 0.66068 0.0
H802 H 0.66327 0.54225 0.68405 0.0
H803 H 0.61709 0.49566 0.6489 0.0
H804 H 0.57254 0.41965 0.75504 0.0
H805 H 0.58245 0.44992 0.71938 0.0
H806 H 0.62532 0.50096 0.75712 0.0
C807 C 0.65049 0.54864 0.66858 0.0
C808 C 0.61897 0.49685 0.67249 0.0
C809 C 0.65301 0.56979 0.65517 0.0
C810 C 0.58706 0.42964 0.75951 0.0
C811 C 0.59294 0.44679 0.73881 0.0
C812 C 0.62387 0.49933 0.73357 0.0
C813 C 0.63091 0.53651 0.66384 0.0
C814 C 0.62611 0.51661 0.68359 0.0
C815 C 0.61167 0.46015 0.74364 0.0
C816 C 0.61698 0.4794 0.72267 0.0
H817 H 0.60429 0.57342 0.61514 0.0
H818 H 0.59964 0.53598 0.6391 0.0
H819 H 0.63343 0.53286 0.72347 0.0
H820 H 0.6288 0.43568 0.81005 0.0
H821 H 0.63942 0.46535 0.7736 0.0
C822 C 0.9349 0.16729 0.09297 0.0
C823 C 0.92532 0.14657 0.08967 0.0
C824 C 0.95819 0.16962 0.09497 0.0
C825 C 0.01267 0.14238 0.08204 0.0
H826 H 0.03396 0.18054 0.14103 0.0
C827 C 0.10669 0.16378 0.09263 0.0
C828 C 0.11566 0.16379 0.12132 0.0
C829 C 0.08344 0.16254 0.08822 0.0
C830 C 0.02832 0.16971 0.12461 0.0
H831 H 0.93214 0.11203 0.08546 0.0
H832 H 0.97327 0.11595 0.08898 0.0
H833 H 0.99365 0.17579 0.13386 0.0
H834 H 0.10723 0.16292 0.1679 0.0
H835 H 0.06662 0.16063 0.16027 0.0
H836 H 0.04738 0.13582 0.07338 0.0
C837 C 0.96278 0.1305 0.08959 0.0
C838 C 0.00519 0.16719 0.12022 0.0
C839 C 0.93933 0.1282 0.0875 0.0
C840 C 0.10082 0.16317 0.1455 0.0
C841 C 0.07754 0.16185 0.1411 0.0
C842 C 0.03583 0.14487 0.08646 0.0
C843 C 0.97242 0.15119 0.09403 0.0
C844 C 0.99708 0.15357 0.09879 0.0
C845 C 0.06859 0.16119 0.11242 0.0
C846 C 0.04394 0.15862 0.10773 0.0
H847 H 0.92426 0.18162 0.09492 0.0
H848 H 0.96502 0.18584 0.09777 0.0
H849 H 0.007 0.13188 0.06525 0.0
H850 H 0.11768 0.16461 0.07353 0.0
H851 H 0.0771 0.16258 0.06581 0.0
C852 C 0.20624 0.7909 0.01192 0.0
C853 C 0.18452 0.78989 0.02414 0.0
C854 C 0.22189 0.77416 0.01956 0.0
C855 C 0.23296 0.74112 0.08687 0.0
H856 H 0.28238 0.71516 0.04565 0.0
C857 C 0.2953 0.68148 0.14741 0.0
C858 C 0.3181 0.68225 0.13913 0.0
C859 C 0.27923 0.69393 0.13111 0.0
C860 C 0.26882 0.72255 0.05747 0.0
H861 H 0.16106 0.76974 0.05056 0.0
H862 H 0.18808 0.74019 0.06319 0.0
H863 H 0.25271 0.73546 0.01729 0.0
H864 H 0.34207 0.69719 0.10774 0.0
H865 H 0.31391 0.71951 0.07944 0.0
H866 H 0.24913 0.72915 0.12695 0.0
C867 C 0.19323 0.75396 0.04819 0.0
C868 C 0.25177 0.73396 0.04121 0.0
C869 C 0.17768 0.77068 0.04065 0.0
C870 C 0.32461 0.69634 0.11468 0.0
C871 C 0.30846 0.70888 0.09828 0.0
C872 C 0.25 0.72999 0.10304 0.0
C873 C 0.21588 0.75636 0.03952 0.0
C874 C 0.23355 0.74313 0.05581 0.0
C875 C 0.28554 0.70764 0.10617 0.0
C876 C 0.26805 0.72038 0.0886 0.0
H877 H 0.21192 0.80579 0.99954 0.0
H878 H 0.23922 0.7764 0.01251 0.0
H879 H 0.21952 0.74864 0.0988 0.0
H880 H 0.2898 0.67098 0.16638 0.0
H881 H 0.26174 0.69238 0.13771 0.0
C882 C 0.70168 0.70035 0.62546 0.0
C883 C 0.7048 0.67756 0.62464 0.0
C884 C 0.7147 0.71224 0.64441 0.0
C885 C 0.74342 0.69824 0.71574 0.0
H886 H 0.74421 0.76177 0.71782 0.0
C887 C 0.74711 0.73791 0.82673 0.0
C888 C 0.75896 0.75773 0.82813 0.0
C889 C 0.74285 0.72943 0.79943 0.0
C890 C 0.74447 0.74398 0.71766 0.0
H891 H 0.72632 0.65001 0.63846 0.0
H892 H 0.75056 0.67107 0.66939 0.0
H893 H 0.73824 0.74562 0.67111 0.0
H894 H 0.77563 0.78428 0.80232 0.0
H895 H 0.76905 0.76921 0.75487 0.0
H896 H 0.75056 0.69653 0.76195 0.0
C897 C 0.73712 0.67963 0.6571 0.0
C898 C 0.74076 0.73467 0.69076 0.0
C899 C 0.72366 0.66763 0.6387 0.0
C900 C 0.76615 0.76911 0.80177 0.0
C901 C 0.76232 0.76044 0.77454 0.0
C902 C 0.74761 0.70753 0.74244 0.0
C903 C 0.73144 0.70154 0.66232 0.0
C904 C 0.73959 0.71163 0.68949 0.0
C905 C 0.75084 0.74033 0.77296 0.0
C906 C 0.74762 0.73053 0.74399 0.0
H907 H 0.68703 0.70829 0.615 0.0
H908 H 0.70972 0.72906 0.64738 0.0
H909 H 0.74226 0.68046 0.71616 0.0
H910 H 0.74127 0.7289 0.84678 0.0
H911 H 0.73338 0.71425 0.7992 0.0
C912 C 0.85135 0.23013 0.1244 0.0
C913 C 0.83501 0.21521 0.11593 0.0
C914 C 0.84565 0.24644 0.14321 0.0
C915 C 0.79992 0.27379 0.18193 0.0
H916 H 0.83756 0.26137 0.25135 0.0
C917 C 0.78978 0.31723 0.29095 0.0
C918 C 0.78713 0.30266 0.31626 0.0
C919 C 0.79663 0.3094 0.26418 0.0
C920 C 0.82702 0.26509 0.23208 0.0
H921 H 0.79968 0.20661 0.11813 0.0
H922 H 0.7895 0.23551 0.15049 0.0
H923 H 0.84711 0.24535 0.20516 0.0
H924 H 0.79015 0.26863 0.33369 0.0
H925 H 0.80268 0.25498 0.28687 0.0
H926 H 0.77964 0.29331 0.20926 0.0
C927 C 0.80666 0.23475 0.14251 0.0
C928 C 0.83259 0.25614 0.20558 0.0
C929 C 0.81243 0.21832 0.12381 0.0
C930 C 0.79201 0.28018 0.31448 0.0
C931 C 0.79925 0.27242 0.28781 0.0
C932 C 0.79458 0.28311 0.20838 0.0
C933 C 0.82351 0.24801 0.15382 0.0
C934 C 0.81893 0.26012 0.18036 0.0
C935 C 0.80132 0.28693 0.26235 0.0
C936 C 0.80787 0.27849 0.2338 0.0
H937 H 0.86894 0.22769 0.11907 0.0
H938 H 0.85889 0.2566 0.15142 0.0
H939 H 0.78905 0.27697 0.16287 0.0
H940 H 0.78592 0.3346 0.29166 0.0
H941 H 0.79822 0.3209 0.24488 0.0
C942 C 0.27156 0.34617 0.57607 0.0
C943 C 0.28656 0.34112 0.55368 0.0
C944 C 0.25006 0.33677 0.57757 0.0
C945 C 0.22536 0.28457 0.565 0.0
H946 H 0.1694 0.3113 0.5883 0.0
C947 C 0.1507 0.23078 0.6086 0.0
C948 C 0.13929 0.23805 0.63324 0.0
C949 C 0.16573 0.24471 0.59245 0.0
C950 C 0.18493 0.30353 0.582 0.0
H951 H 0.29082 0.32317 0.51459 0.0
H952 H 0.2534 0.30608 0.51775 0.0
H953 H 0.20062 0.33473 0.57018 0.0
H954 H 0.13464 0.26575 0.66008 0.0
H955 H 0.16108 0.28981 0.63249 0.0
H956 H 0.21051 0.25349 0.57854 0.0
C957 C 0.25804 0.31768 0.53372 0.0
C958 C 0.20272 0.31699 0.57139 0.0
C959 C 0.27933 0.32759 0.53176 0.0
C960 C 0.14294 0.25971 0.641 0.0
C961 C 0.15807 0.27357 0.62502 0.0
C962 C 0.20772 0.27113 0.57598 0.0
C963 C 0.24351 0.3216 0.55725 0.0
C964 C 0.22329 0.30765 0.56342 0.0
C965 C 0.16987 0.26621 0.60068 0.0
C966 C 0.18745 0.28043 0.58537 0.0
H967 H 0.27695 0.35637 0.59336 0.0
H968 H 0.23929 0.33998 0.59605 0.0
H969 H 0.24113 0.27689 0.55943 0.0
H970 H 0.148 0.2143 0.60176 0.0
H971 H 0.17417 0.23854 0.57357 0.0
C972 C 0.68772 0.69264 0.50197 0.0
C973 C 0.69249 0.67861 0.52722 0.0
C974 C 0.70281 0.70935 0.4926 0.0
C975 C 0.76191 0.72459 0.49399 0.0
H976 H 0.74108 0.7851 0.48234 0.0
C977 C 0.82435 0.79603 0.47055 0.0
C978 C 0.81777 0.8133 0.45007 0.0
C979 C 0.80877 0.7801 0.48093 0.0
C980 C 0.74715 0.76827 0.48508 0.0
H981 H 0.71692 0.67052 0.56195 0.0
H982 H 0.74355 0.69934 0.54509 0.0
H983 H 0.71435 0.75585 0.49712 0.0
H984 H 0.78981 0.82744 0.42429 0.0
H985 H 0.76276 0.7994 0.44174 0.0
H986 H 0.7945 0.73663 0.48118 0.0
C987 C 0.72805 0.6976 0.53282 0.0
C988 C 0.73182 0.75156 0.49362 0.0
C989 C 0.7128 0.68119 0.5425 0.0
C990 C 0.79528 0.81445 0.44037 0.0
C991 C 0.77976 0.79839 0.45047 0.0
C992 C 0.77716 0.7412 0.48504 0.0
C993 C 0.72309 0.71195 0.50797 0.0
C994 C 0.73912 0.72961 0.49824 0.0
C995 C 0.78632 0.78091 0.47074 0.0
C996 C 0.77002 0.76328 0.48057 0.0
H997 H 0.67206 0.69108 0.48999 0.0
H998 H 0.6987 0.72018 0.47327 0.0
H999 H 0.76787 0.70772 0.49718 0.0
H1000 H 0.84153 0.79492 0.47865 0.0
H1001 H 0.81434 0.76716 0.49701 0.0
C1002 C 0.77071 0.1482 0.03982 0.0
C1003 C 0.78932 0.16204 0.0339 0.0
C1004 C 0.74876 0.15703 0.03854 0.0
C1005 C 0.71752 0.21062 0.03637 0.0
H1006 H 0.67675 0.1834 0.9832 0.0
C1007 C 0.64097 0.2586 0.98608 0.0
C1008 C 0.63704 0.25617 0.95597 0.0
C1009 C 0.65556 0.24417 0.00233 0.0
C1010 C 0.68793 0.19127 0.99808 0.0
H1011 H 0.79991 0.1959 0.02441 0.0
H1012 H 0.76224 0.21115 0.02241 0.0
H1013 H 0.71015 0.16337 0.00156 0.0
H1014 H 0.64521 0.23693 0.91913 0.0
H1015 H 0.67138 0.21243 0.94687 0.0
H1016 H 0.69653 0.23917 0.03111 0.0
C1017 C 0.76418 0.19358 0.02771 0.0
C1018 C 0.7069 0.17959 0.00902 0.0
C1019 C 0.78582 0.18479 0.02836 0.0
C1020 C 0.64781 0.23901 0.94242 0.0
C1021 C 0.66265 0.22483 0.95847 0.0
C1022 C 0.69873 0.22237 0.02522 0.0
C1023 C 0.74531 0.17985 0.0322 0.0
C1024 C 0.72246 0.18955 0.02717 0.0
C1025 C 0.66684 0.22723 0.98865 0.0
C1026 C 0.68421 0.21322 0.00487 0.0
H1027 H 0.77311 0.13063 0.04453 0.0
H1028 H 0.73454 0.14604 0.04218 0.0
H1029 H 0.72897 0.21859 0.05084 0.0
H1030 H 0.63263 0.27156 0.9971 0.0
H1031 H 0.65806 0.2464 0.02557 0.0
C1032 C 0.36148 0.26909 0.45824 0.0
C1033 C 0.3457 0.28171 0.47258 0.0
C1034 C 0.35426 0.25291 0.44025 0.0
C1035 C 0.30739 0.22225 0.41078 0.0
H1036 H 0.33004 0.24661 0.33502 0.0
C1037 C 0.2672 0.20295 0.29959 0.0
C1038 C 0.28141 0.20146 0.27504 0.0
C1039 C 0.27571 0.20952 0.32625 0.0
C1040 C 0.32389 0.23919 0.35591 0.0
H1041 H 0.31033 0.28609 0.48226 0.0
H1042 H 0.29754 0.25785 0.45012 0.0
H1043 H 0.34405 0.26056 0.3802 0.0
H1044 H 0.31571 0.20579 0.2592 0.0
H1045 H 0.33074 0.21644 0.3059 0.0
H1046 H 0.28724 0.20075 0.38631 0.0
C1047 C 0.31546 0.26021 0.45319 0.0
C1048 C 0.3319 0.24724 0.38182 0.0
C1049 C 0.32274 0.27631 0.47154 0.0
C1050 C 0.30434 0.2066 0.27776 0.0
C1051 C 0.3129 0.21294 0.30448 0.0
C1052 C 0.29958 0.21387 0.38471 0.0
C1053 C 0.33115 0.24944 0.43604 0.0
C1054 C 0.32366 0.23897 0.40943 0.0
C1055 C 0.29867 0.21459 0.32902 0.0
C1056 C 0.30762 0.22243 0.35696 0.0
H1057 H 0.37926 0.27305 0.45888 0.0
H1058 H 0.36663 0.24462 0.42742 0.0
H1059 H 0.30075 0.21575 0.43188 0.0
H1060 H 0.24951 0.19874 0.29838 0.0
H1061 H 0.2642 0.21092 0.34452 0.0
C1062 C 0.17576 0.80576 0.93925 0.0
C1063 C 0.16937 0.82788 0.93291 0.0
C1064 C 0.18773 0.79453 0.91849 0.0
C1065 C 0.22341 0.80311 0.85235 0.0
H1066 H 0.20035 0.7465 0.83213 0.0
C1067 C 0.24685 0.7664 0.74375 0.0
C1068 C 0.25116 0.74365 0.74421 0.0
C1069 C 0.23821 0.7756 0.76864 0.0
C1070 C 0.20724 0.76212 0.83783 0.0
H1071 H 0.17095 0.85578 0.90033 0.0
H1072 H 0.19192 0.83621 0.8641 0.0
H1073 H 0.18368 0.76462 0.87318 0.0
H1074 H 0.2496 0.71268 0.77111 0.0
H1075 H 0.23435 0.72879 0.81466 0.0
H1076 H 0.24682 0.80077 0.81692 0.0
C1077 C 0.18771 0.82755 0.88511 0.0
C1078 C 0.19769 0.77248 0.86132 0.0
C1079 C 0.17554 0.83869 0.90572 0.0
C1080 C 0.24621 0.73023 0.76996 0.0
C1081 C 0.23754 0.73946 0.79492 0.0
C1082 C 0.23302 0.79272 0.82899 0.0
C1083 C 0.19373 0.80531 0.89117 0.0
C1084 C 0.20539 0.79328 0.86839 0.0
C1085 C 0.23367 0.76229 0.79461 0.0
C1086 C 0.22472 0.77233 0.82105 0.0
H1087 H 0.17111 0.79697 0.95999 0.0
H1088 H 0.19227 0.77743 0.92376 0.0
H1089 H 0.22992 0.81897 0.85768 0.0
H1090 H 0.2501 0.77712 0.72407 0.0
H1091 H 0.23491 0.79317 0.76744 0.0
loop_
_geom_bond_atom_site_label_1
_geom_bond_atom_site_label_2
_geom_bond_distance
_geom_bond_site_symmetry_2
_ccdc_geom_bond_type
Zn0 O6 1.920 . S
Zn0 O12 1.898 . S
Zn0 O15 1.905 . S
Zn1 O9 1.905 . S
Zn1 O10 1.898 . S
Zn1 O18 1.920 . S
Zn2 O5 2.080 . S
Zn2 O8 2.114 1_554 S
Zn2 O11 2.105 1_554 S
Zn2 O13 2.120 . S
Zn2 O14 2.114 . S
Zn2 O17 2.080 1_554 S
C3 O8 1.166 . S
C3 O9 1.182 . S
C4 O10 1.167 . S
C4 O11 1.321 . S
O5 Zn2 2.080 . S
O5 C19 1.305 . S
O6 Zn0 1.920 . S
O6 C19 1.234 . S
C7 O12 1.167 . S
C7 O13 1.299 . S
O8 Zn2 2.114 1_556 S
O8 C3 1.166 . S
O9 Zn1 1.905 . S
O9 C3 1.182 . S
O10 Zn1 1.898 . S
O10 C4 1.167 . S
O11 Zn2 2.105 1_556 S
O11 C4 1.321 . S
O12 Zn0 1.898 . S
O12 C7 1.167 . S
O13 Zn2 2.120 . S
O13 C7 1.299 . S
O14 Zn2 2.114 . S
O14 C16 1.166 . S
O15 Zn0 1.905 . S
O15 C16 1.182 . S
C16 O14 1.166 . S
C16 O15 1.182 . S
O17 Zn2 2.080 1_556 S
O17 C20 1.305 . S
O18 Zn1 1.920 . S
O18 C20 1.234 . S
C19 O5 1.305 . S
C19 O6 1.234 . S
C20 O17 1.305 . S
C20 O18 1.234 . S
Zn21 O27 1.920 . S
Zn21 O33 1.898 . S
Zn21 O36 1.905 . S
Zn22 O30 1.905 . S
Zn22 O31 1.898 . S
Zn22 O39 1.920 . S
Zn23 O26 2.080 . S
Zn23 O29 2.114 . S
Zn23 O32 2.120 . S
Zn23 O34 2.120 . S
Zn23 O35 2.114 . S
Zn23 O38 2.080 . S
C24 O29 1.166 . S
C24 O30 1.182 . S
C25 O31 1.167 . S
C25 O32 1.299 . S
O26 Zn23 2.080 . S
O26 C40 1.305 . S
O27 Zn21 1.920 . S
O27 C40 1.234 . S
C28 O33 1.167 . S
C28 O34 1.299 . S
O29 Zn23 2.114 . S
O29 C24 1.166 . S
O30 Zn22 1.905 . S
O30 C24 1.182 . S
O31 Zn22 1.898 . S
O31 C25 1.167 . S
O32 Zn23 2.120 . S
O32 C25 1.299 . S
O33 Zn21 1.898 . S
O33 C28 1.167 . S
O34 Zn23 2.120 . S
O34 C28 1.299 . S
O35 Zn23 2.114 . S
O35 C37 1.166 . S
O36 Zn21 1.905 . S
O36 C37 1.182 . S
C37 O35 1.166 . S
C37 O36 1.182 . S
O38 Zn23 2.080 . S
O38 C41 1.305 . S
O39 Zn22 1.920 . S
O39 C41 1.234 . S
C40 O26 1.305 . S
C40 O27 1.234 . S
C41 O38 1.305 . S
C41 O39 1.234 . S
Zn42 O48 1.920 1_556 S
Zn42 O54 1.898 . S
Zn42 O57 1.905 1_556 S
Zn43 O51 1.905 . S
Zn43 O52 1.898 . S
Zn43 O60 1.920 . S
Zn44 O47 2.080 . S
Zn44 O50 2.114 . S
Zn44 O53 2.120 . S
Zn44 O55 2.120 . S
Zn44 O56 2.114 . S
Zn44 O59 2.080 . S
C45 O50 1.166 . S
C45 O51 1.182 . S
C46 O52 1.167 . S
C46 O53 1.299 . S
O47 Zn44 2.080 . S
O47 C61 1.305 . S
O48 Zn42 1.920 1_554 S
O48 C61 1.234 . S
C49 O54 1.167 1_554 S
C49 O55 1.299 . S
O50 Zn44 2.114 . S
O50 C45 1.166 . S
O51 Zn43 1.905 . S
O51 C45 1.182 . S
O52 Zn43 1.898 . S
O52 C46 1.167 . S
O53 Zn44 2.120 . S
O53 C46 1.299 . S
O54 Zn42 1.898 . S
O54 C49 1.167 1_556 S
O55 Zn44 2.120 . S
O55 C49 1.299 . S
O56 Zn44 2.114 . S
O56 C58 1.166 . S
O57 Zn42 1.905 1_554 S
O57 C58 1.182 . S
C58 O56 1.166 . S
C58 O57 1.182 . S
O59 Zn44 2.080 . S
O59 C62 1.305 . S
O60 Zn43 1.920 . S
O60 C62 1.234 . S
C61 O47 1.305 . S
C61 O48 1.234 . S
C62 O59 1.305 . S
C62 O60 1.234 . S
Zn63 O69 1.920 . S
Zn63 O75 1.898 . S
Zn63 O78 1.905 . S
Zn64 O72 1.905 . S
Zn64 O73 1.898 . S
Zn64 O81 1.920 . S
Zn65 O68 2.080 . S
Zn65 O71 2.114 . S
Zn65 O74 2.120 . S
Zn65 O76 2.120 . S
Zn65 O77 2.114 . S
Zn65 O80 2.080 . S
C66 O71 1.166 . S
C66 O72 1.182 . S
C67 O73 1.167 . S
C67 O74 1.299 . S
O68 Zn65 2.080 . S
O68 C82 1.305 . S
O69 Zn63 1.920 . S
O69 C82 1.234 . S
C70 O75 1.167 . S
C70 O76 1.299 . S
O71 Zn65 2.114 . S
O71 C66 1.166 . S
O72 Zn64 1.905 . S
O72 C66 1.182 . S
O73 Zn64 1.898 . S
O73 C67 1.167 . S
O74 Zn65 2.120 . S
O74 C67 1.299 . S
O75 Zn63 1.898 . S
O75 C70 1.167 . S
O76 Zn65 2.120 . S
O76 C70 1.299 . S
O77 Zn65 2.114 . S
O77 C79 1.166 . S
O78 Zn63 1.905 . S
O78 C79 1.182 . S
C79 O77 1.166 . S
C79 O78 1.182 . S
O80 Zn65 2.080 . S
O80 C83 1.305 . S
O81 Zn64 1.920 . S
O81 C83 1.234 . S
C82 O68 1.305 . S
C82 O69 1.234 . S
C83 O80 1.305 . S
C83 O81 1.234 . S
C84 C85 1.384 . S
C84 H97 0.947 . S
C84 C119 1.382 . S
C85 C84 1.384 . S
C85 C86 1.378 . S
C86 C85 1.378 . S
C86 C87 1.378 . S
C86 H98 0.952 . S
C87 C86 1.378 . S
C87 H99 0.950 . S
C87 C118 1.383 . S
H88 C107 0.947 . S
H89 C108 0.946 . S
H90 C110 0.953 . S
H91 C111 0.945 . S
H92 C113 0.952 . S
H93 C114 0.949 . S
H94 C116 0.950 . S
H95 C117 0.948 . S
H96 C119 0.951 . S
H97 C84 0.947 . S
H98 C86 0.952 . S
H99 C87 0.950 . S
N100 C103 1.382 . S
N100 C105 1.363 . S
N101 C103 1.371 . S
N101 C104 1.372 . S
N102 C104 1.361 . S
N102 C105 1.377 . S
C103 N100 1.382 . S
C103 N101 1.371 . S
C103 C106 1.480 . S
C104 N101 1.372 . S
C104 N102 1.361 . S
C104 C112 1.457 . S
C105 N100 1.363 . S
C105 N102 1.377 . S
C105 C118 1.479 . S
C106 C103 1.480 . S
C106 C107 1.383 . S
C106 C111 1.385 . S
C107 H88 0.947 . S
C107 C106 1.383 . S
C107 C108 1.388 . S
C108 H89 0.946 . S
C108 C107 1.388 . S
C108 C109 1.384 . S
C109 C108 1.384 . S
C109 C110 1.377 . S
C110 H90 0.953 . S
C110 C109 1.377 . S
C110 C111 1.369 . S
C111 H91 0.945 . S
C111 C106 1.385 . S
C111 C110 1.369 . S
C112 C104 1.457 . S
C112 C113 1.372 . S
C112 C117 1.364 . S
C113 H92 0.952 . S
C113 C112 1.372 . S
C113 C114 1.389 . S
C114 H93 0.949 . S
C114 C113 1.389 . S
C114 C115 1.387 . S
C115 C114 1.387 . S
C115 C116 1.372 . S
C116 H94 0.950 . S
C116 C115 1.372 . S
C116 C117 1.379 . S
C117 H95 0.948 . S
C117 C112 1.364 . S
C117 C116 1.379 . S
C118 C87 1.383 . S
C118 C105 1.479 . S
C118 C119 1.398 . S
C119 C84 1.382 . S
C119 H96 0.951 . S
C119 C118 1.398 . S
C120 C121 1.384 . S
C120 H133 0.947 . S
C120 C155 1.382 . S
C121 C120 1.384 . S
C121 C122 1.378 . S
C122 C121 1.378 . S
C122 C123 1.378 . S
C122 H134 0.952 . S
C123 C122 1.378 . S
C123 H135 0.950 . S
C123 C154 1.383 . S
H124 C143 0.947 . S
H125 C144 0.946 . S
H126 C146 0.953 . S
H127 C147 0.945 . S
H128 C149 0.952 . S
H129 C150 0.949 . S
H130 C152 0.950 . S
H131 C153 0.948 . S
H132 C155 0.951 . S
H133 C120 0.947 . S
H134 C122 0.952 . S
H135 C123 0.950 . S
N136 C139 1.382 . S
N136 C141 1.363 . S
N137 C139 1.371 . S
N137 C140 1.372 . S
N138 C140 1.361 . S
N138 C141 1.377 . S
C139 N136 1.382 . S
C139 N137 1.371 . S
C139 C142 1.480 . S
C140 N137 1.372 . S
C140 N138 1.361 . S
C140 C148 1.457 . S
C141 N136 1.363 . S
C141 N138 1.377 . S
C141 C154 1.479 . S
C142 C139 1.480 . S
C142 C143 1.383 . S
C142 C147 1.385 . S
C143 H124 0.947 . S
C143 C142 1.383 . S
C143 C144 1.388 . S
C144 H125 0.946 . S
C144 C143 1.388 . S
C144 C145 1.384 . S
C145 C144 1.384 . S
C145 C146 1.377 . S
C146 H126 0.953 . S
C146 C145 1.377 . S
C146 C147 1.369 . S
C147 H127 0.945 . S
C147 C142 1.385 . S
C147 C146 1.369 . S
C148 C140 1.457 . S
C148 C149 1.372 . S
C148 C153 1.364 . S
C149 H128 0.952 . S
C149 C148 1.372 . S
C149 C150 1.389 . S
C150 H129 0.949 . S
C150 C149 1.389 . S
C150 C151 1.387 . S
C151 C150 1.387 . S
C151 C152 1.372 . S
C152 H130 0.950 . S
C152 C151 1.372 . S
C152 C153 1.379 . S
C153 H131 0.948 . S
C153 C148 1.364 . S
C153 C152 1.379 . S
C154 C123 1.383 . S
C154 C141 1.479 . S
C154 C155 1.398 . S
C155 C120 1.382 . S
C155 H132 0.951 . S
C155 C154 1.398 . S
C156 C157 1.384 . S
C156 H169 0.947 . S
C156 C191 1.382 . S
C157 C156 1.384 . S
C157 C158 1.378 . S
C158 C157 1.378 . S
C158 C159 1.378 . S
C158 H170 0.952 . S
C159 C158 1.378 . S
C159 H171 0.950 . S
C159 C190 1.383 . S
H160 C179 0.947 . S
H161 C180 0.946 . S
H162 C182 0.953 . S
H163 C183 0.945 . S
H164 C185 0.952 . S
H165 C186 0.949 . S
H166 C188 0.950 . S
H167 C189 0.948 . S
H168 C191 0.951 . S
H169 C156 0.947 . S
H170 C158 0.952 . S
H171 C159 0.950 . S
N172 C175 1.382 . S
N172 C177 1.363 . S
N173 C175 1.371 . S
N173 C176 1.372 . S
N174 C176 1.361 . S
N174 C177 1.377 . S
C175 N172 1.382 . S
C175 N173 1.371 . S
C175 C178 1.480 . S
C176 N173 1.372 . S
C176 N174 1.361 . S
C176 C184 1.457 . S
C177 N172 1.363 . S
C177 N174 1.377 . S
C177 C190 1.479 . S
C178 C175 1.480 . S
C178 C179 1.383 . S
C178 C183 1.385 . S
C179 H160 0.947 . S
C179 C178 1.383 . S
C179 C180 1.388 . S
C180 H161 0.946 . S
C180 C179 1.388 . S
C180 C181 1.384 . S
C181 C180 1.384 . S
C181 C182 1.377 . S
C182 H162 0.953 . S
C182 C181 1.377 . S
C182 C183 1.369 . S
C183 H163 0.945 . S
C183 C178 1.385 . S
C183 C182 1.369 . S
C184 C176 1.457 . S
C184 C185 1.372 . S
C184 C189 1.364 . S
C185 H164 0.952 . S
C185 C184 1.372 . S
C185 C186 1.389 . S
C186 H165 0.949 . S
C186 C185 1.389 . S
C186 C187 1.387 . S
C187 C186 1.387 . S
C187 C188 1.372 . S
C188 H166 0.950 . S
C188 C187 1.372 . S
C188 C189 1.379 . S
C189 H167 0.948 . S
C189 C184 1.364 . S
C189 C188 1.379 . S
C190 C159 1.383 . S
C190 C177 1.479 . S
C190 C191 1.398 . S
C191 C156 1.382 . S
C191 H168 0.951 . S
C191 C190 1.398 . S
C192 C193 1.384 . S
C192 H205 0.947 . S
C192 C227 1.382 . S
C193 C192 1.384 . S
C193 C194 1.378 . S
C194 C193 1.378 . S
C194 C195 1.378 . S
C194 H206 0.952 . S
C195 C194 1.378 . S
C195 H207 0.950 . S
C195 C226 1.383 . S
H196 C215 0.947 . S
H197 C216 0.946 . S
H198 C218 0.953 . S
H199 C219 0.945 . S
H200 C221 0.952 . S
H201 C222 0.949 . S
H202 C224 0.950 . S
H203 C225 0.948 . S
H204 C227 0.951 . S
H205 C192 0.947 . S
H206 C194 0.952 . S
H207 C195 0.950 . S
N208 C211 1.382 . S
N208 C213 1.363 . S
N209 C211 1.371 . S
N209 C212 1.372 . S
N210 C212 1.361 . S
N210 C213 1.377 . S
C211 N208 1.382 . S
C211 N209 1.371 . S
C211 C214 1.480 . S
C212 N209 1.372 . S
C212 N210 1.361 . S
C212 C220 1.457 . S
C213 N208 1.363 . S
C213 N210 1.377 . S
C213 C226 1.479 . S
C214 C211 1.480 . S
C214 C215 1.383 . S
C214 C219 1.385 . S
C215 H196 0.947 . S
C215 C214 1.383 . S
C215 C216 1.388 . S
C216 H197 0.946 . S
C216 C215 1.388 . S
C216 C217 1.384 . S
C217 C216 1.384 . S
C217 C218 1.377 . S
C218 H198 0.953 . S
C218 C217 1.377 . S
C218 C219 1.369 . S
C219 H199 0.945 . S
C219 C214 1.385 . S
C219 C218 1.369 . S
C220 C212 1.457 . S
C220 C221 1.372 . S
C220 C225 1.364 . S
C221 H200 0.952 . S
C221 C220 1.372 . S
C221 C222 1.389 . S
C222 H201 0.949 . S
C222 C221 1.389 . S
C222 C223 1.387 . S
C223 C222 1.387 . S
C223 C224 1.372 . S
C224 H202 0.950 . S
C224 C223 1.372 . S
C224 C225 1.379 . S
C225 H203 0.948 . S
C225 C220 1.364 . S
C225 C224 1.379 . S
C226 C195 1.383 . S
C226 C213 1.479 . S
C226 C227 1.398 . S
C227 C192 1.382 . S
C227 H204 0.951 . S
C227 C226 1.398 . S
C228 C229 1.384 . S
C228 H241 0.947 . S
C228 C263 1.382 . S
C229 C228 1.384 . S
C229 C230 1.378 . S
C230 C229 1.378 . S
C230 C231 1.378 . S
C230 H242 0.952 . S
C231 C230 1.378 . S
C231 H243 0.950 . S
C231 C262 1.383 . S
H232 C251 0.947 . S
H233 C252 0.946 . S
H234 C254 0.953 . S
H235 C255 0.945 . S
H236 C257 0.952 . S
H237 C258 0.949 . S
H238 C260 0.950 . S
H239 C261 0.948 . S
H240 C263 0.951 . S
H241 C228 0.947 . S
H242 C230 0.952 . S
H243 C231 0.950 . S
N244 C247 1.382 . S
N244 C249 1.363 . S
N245 C247 1.371 . S
N245 C248 1.372 . S
N246 C248 1.361 . S
N246 C249 1.377 . S
C247 N244 1.382 . S
C247 N245 1.371 . S
C247 C250 1.480 . S
C248 N245 1.372 . S
C248 N246 1.361 . S
C248 C256 1.457 . S
C249 N244 1.363 . S
C249 N246 1.377 . S
C249 C262 1.479 . S
C250 C247 1.480 . S
C250 C251 1.383 . S
C250 C255 1.385 . S
C251 H232 0.947 . S
C251 C250 1.383 . S
C251 C252 1.388 . S
C252 H233 0.946 . S
C252 C251 1.388 . S
C252 C253 1.384 . S
C253 C252 1.384 . S
C253 C254 1.377 . S
C254 H234 0.953 . S
C254 C253 1.377 . S
C254 C255 1.369 . S
C255 H235 0.945 . S
C255 C250 1.385 . S
C255 C254 1.369 . S
C256 C248 1.457 . S
C256 C257 1.372 . S
C256 C261 1.364 . S
C257 H236 0.952 . S
C257 C256 1.372 . S
C257 C258 1.389 . S
C258 H237 0.949 . S
C258 C257 1.389 . S
C258 C259 1.387 . S
C259 C258 1.387 . S
C259 C260 1.372 . S
C260 H238 0.950 . S
C260 C259 1.372 . S
C260 C261 1.379 . S
C261 H239 0.948 . S
C261 C256 1.364 . S
C261 C260 1.379 . S
C262 C231 1.383 . S
C262 C249 1.479 . S
C262 C263 1.398 . S
C263 C228 1.382 . S
C263 H240 0.951 . S
C263 C262 1.398 . S
C264 C265 1.384 . S
C264 H277 0.947 . S
C264 C299 1.382 . S
C265 C264 1.384 . S
C265 C266 1.378 . S
C266 C265 1.378 . S
C266 C267 1.378 . S
C266 H278 0.952 . S
C267 C266 1.378 . S
C267 H279 0.950 . S
C267 C298 1.383 . S
H268 C287 0.947 . S
H269 C288 0.960 . S
H270 C290 0.953 . S
H271 C291 0.945 . S
H272 C293 0.952 . S
H273 C294 0.949 . S
H274 C296 0.950 . S
H275 C297 0.948 . S
H276 C299 0.951 . S
H277 C264 0.947 . S
H278 C266 0.952 . S
H279 C267 0.950 . S
N280 C283 1.382 . S
N280 C285 1.363 . S
N281 C283 1.371 . S
N281 C284 1.372 . S
N282 C284 1.361 . S
N282 C285 1.377 . S
C283 N280 1.382 . S
C283 N281 1.371 . S
C283 C286 1.480 . S
C284 N281 1.372 . S
C284 N282 1.361 . S
C284 C292 1.457 . S
C285 N280 1.363 . S
C285 N282 1.377 . S
C285 C298 1.479 . S
C286 C283 1.480 . S
C286 C287 1.383 . S
C286 C291 1.385 . S
C287 H268 0.947 . S
C287 C286 1.383 . S
C287 C288 1.359 1_455 S
C288 H269 0.960 . S
C288 C287 1.359 1_655 S
C288 C289 1.401 . S
C289 C288 1.401 . S
C289 C290 1.377 . S
C290 H270 0.953 . S
C290 C289 1.377 . S
C290 C291 1.369 1_655 S
C291 H271 0.945 . S
C291 C286 1.385 . S
C291 C290 1.369 1_455 S
C292 C284 1.457 . S
C292 C293 1.372 . S
C292 C297 1.364 . S
C293 H272 0.952 . S
C293 C292 1.372 . S
C293 C294 1.389 . S
C294 H273 0.949 . S
C294 C293 1.389 . S
C294 C295 1.387 . S
C295 C294 1.387 . S
C295 C296 1.372 . S
C296 H274 0.950 . S
C296 C295 1.372 . S
C296 C297 1.379 . S
C297 H275 0.948 . S
C297 C292 1.364 . S
C297 C296 1.379 . S
C298 C267 1.383 . S
C298 C285 1.479 . S
C298 C299 1.398 . S
C299 C264 1.382 . S
C299 H276 0.951 . S
C299 C298 1.398 . S
C300 C301 1.384 . S
C300 H313 0.947 . S
C300 C335 1.382 . S
C301 C300 1.384 . S
C301 C302 1.378 . S
C302 C301 1.378 . S
C302 C303 1.378 . S
C302 H314 0.952 . S
C303 C302 1.378 . S
C303 H315 0.950 . S
C303 C334 1.383 . S
H304 C323 0.947 . S
H305 C324 0.946 . S
H306 C326 0.953 . S
H307 C327 0.945 . S
H308 C329 0.952 . S
H309 C330 0.949 . S
H310 C332 0.950 . S
H311 C333 0.948 . S
H312 C335 0.951 . S
H313 C300 0.947 . S
H314 C302 0.952 . S
H315 C303 0.950 . S
N316 C319 1.382 . S
N316 C321 1.363 . S
N317 C319 1.371 . S
N317 C320 1.372 . S
N318 C320 1.361 . S
N318 C321 1.377 . S
C319 N316 1.382 . S
C319 N317 1.371 . S
C319 C322 1.480 . S
C320 N317 1.372 . S
C320 N318 1.361 . S
C320 C328 1.457 . S
C321 N316 1.363 . S
C321 N318 1.377 . S
C321 C334 1.479 . S
C322 C319 1.480 . S
C322 C323 1.383 . S
C322 C327 1.385 . S
C323 H304 0.947 . S
C323 C322 1.383 . S
C323 C324 1.388 . S
C324 H305 0.946 . S
C324 C323 1.388 . S
C324 C325 1.384 . S
C325 C324 1.384 . S
C325 C326 1.377 . S
C326 H306 0.953 . S
C326 C325 1.377 . S
C326 C327 1.369 . S
C327 H307 0.945 . S
C327 C322 1.385 . S
C327 C326 1.369 . S
C328 C320 1.457 . S
C328 C329 1.372 . S
C328 C333 1.364 . S
C329 H308 0.952 . S
C329 C328 1.372 . S
C329 C330 1.389 . S
C330 H309 0.949 . S
C330 C329 1.389 . S
C330 C331 1.387 . S
C331 C330 1.387 . S
C331 C332 1.372 . S
C332 H310 0.950 . S
C332 C331 1.372 . S
C332 C333 1.379 . S
C333 H311 0.948 . S
C333 C328 1.364 . S
C333 C332 1.379 . S
C334 C303 1.383 . S
C334 C321 1.479 . S
C334 C335 1.398 . S
C335 C300 1.382 . S
C335 H312 0.951 . S
C335 C334 1.398 . S
C336 C337 1.384 . S
C336 H349 0.947 . S
C336 C371 1.382 . S
C337 C336 1.384 . S
C337 C338 1.378 . S
C338 C337 1.378 . S
C338 C339 1.378 . S
C338 H350 0.952 . S
C339 C338 1.378 . S
C339 H351 0.950 . S
C339 C370 1.383 . S
H340 C359 0.947 . S
H341 C360 0.946 . S
H342 C362 0.953 . S
H343 C363 0.945 . S
H344 C365 0.952 . S
H345 C366 0.949 . S
H346 C368 0.950 . S
H347 C369 0.948 . S
H348 C371 0.951 . S
H349 C336 0.947 . S
H350 C338 0.952 . S
H351 C339 0.950 . S
N352 C355 1.382 . S
N352 C357 1.363 . S
N353 C355 1.371 . S
N353 C356 1.372 . S
N354 C356 1.361 . S
N354 C357 1.377 . S
C355 N352 1.382 . S
C355 N353 1.371 . S
C355 C358 1.480 . S
C356 N353 1.372 . S
C356 N354 1.361 . S
C356 C364 1.457 . S
C357 N352 1.363 . S
C357 N354 1.377 . S
C357 C370 1.479 . S
C358 C355 1.480 . S
C358 C359 1.383 . S
C358 C363 1.385 . S
C359 H340 0.947 . S
C359 C358 1.383 . S
C359 C360 1.388 . S
C360 H341 0.946 . S
C360 C359 1.388 . S
C360 C361 1.384 . S
C361 C360 1.384 . S
C361 C362 1.377 . S
C362 H342 0.953 . S
C362 C361 1.377 . S
C362 C363 1.369 . S
C363 H343 0.945 . S
C363 C358 1.385 . S
C363 C362 1.369 . S
C364 C356 1.457 . S
C364 C365 1.372 . S
C364 C369 1.364 . S
C365 H344 0.952 . S
C365 C364 1.372 . S
C365 C366 1.389 . S
C366 H345 0.949 . S
C366 C365 1.389 . S
C366 C367 1.387 . S
C367 C366 1.387 . S
C367 C368 1.372 . S
C368 H346 0.950 . S
C368 C367 1.372 . S
C368 C369 1.379 . S
C369 H347 0.948 . S
C369 C364 1.364 . S
C369 C368 1.379 . S
C370 C339 1.383 . S
C370 C357 1.479 . S
C370 C371 1.398 . S
C371 C336 1.382 . S
C371 H348 0.951 . S
C371 C370 1.398 . S
C372 C373 1.349 . S
C372 C374 1.327 . S
C372 H397 0.950 . S
C373 C372 1.349 . S
C373 C389 1.349 . S
C374 C372 1.327 . S
C374 C393 1.429 . S
C374 H398 0.950 . S
C375 C392 1.574 . S
C375 C394 1.368 . S
C375 H399 0.949 . S
H376 C380 0.949 . S
C377 C378 1.349 . S
C377 C379 1.327 . S
C377 H400 0.950 . S
C378 C377 1.349 . S
C378 C390 1.349 . S
C379 C377 1.327 . S
C379 C395 1.429 . S
C379 H401 0.950 . S
C380 H376 0.949 . S
C380 C388 1.574 . S
C380 C396 1.368 . S
H381 C389 0.950 . S
H382 C387 0.950 . S
H383 C388 0.949 . S
H384 C390 0.950 . S
H385 C391 0.950 1_565 S
H386 C392 0.949 1_545 S
C387 H382 0.950 . S
C387 C389 1.327 . S
C387 C393 1.429 . S
C388 C380 1.574 . S
C388 H383 0.949 . S
C388 C394 1.368 . S
C389 C373 1.349 . S
C389 H381 0.950 . S
C389 C387 1.327 . S
C390 C378 1.349 . S
C390 H384 0.950 . S
C390 C391 1.327 . S
C391 H385 0.950 1_545 S
C391 C390 1.327 . S
C391 C395 1.429 . S
C392 C375 1.574 . S
C392 H386 0.949 1_565 S
C392 C396 1.368 . S
C393 C374 1.429 . S
C393 C387 1.429 . S
C393 C394 1.523 . S
C394 C375 1.368 . S
C394 C388 1.368 . S
C394 C393 1.523 . S
C395 C379 1.429 . S
C395 C391 1.429 . S
C395 C396 1.523 1_545 S
C396 C380 1.368 . S
C396 C392 1.368 . S
C396 C395 1.523 1_565 S
H397 C372 0.950 . S
H398 C374 0.950 . S
H399 C375 0.949 . S
H400 C377 0.950 . S
H401 C379 0.950 . S
C402 C403 1.349 . S
C402 C404 1.327 . S
C402 H427 0.950 . S
C403 C402 1.349 . S
C403 C419 1.349 . S
C404 C402 1.327 . S
C404 C423 1.429 . S
C404 H428 0.950 . S
C405 C422 1.574 . S
C405 C424 1.368 . S
C405 H429 0.949 . S
H406 C410 0.949 . S
C407 C408 1.349 . S
C407 C409 1.327 . S
C407 H430 0.950 . S
C408 C407 1.349 . S
C408 C420 1.349 . S
C409 C407 1.327 . S
C409 C425 1.429 . S
C409 H431 0.950 . S
C410 H406 0.949 . S
C410 C418 1.574 . S
C410 C426 1.368 . S
H411 C419 0.950 . S
H412 C417 0.950 . S
H413 C418 0.949 . S
H414 C420 0.950 . S
H415 C421 0.950 . S
H416 C422 0.949 . S
C417 H412 0.950 . S
C417 C419 1.327 . S
C417 C423 1.429 . S
C418 C410 1.574 . S
C418 H413 0.949 . S
C418 C424 1.368 . S
C419 C403 1.349 . S
C419 H411 0.950 . S
C419 C417 1.327 . S
C420 C408 1.349 . S
C420 H414 0.950 . S
C420 C421 1.327 . S
C421 H415 0.950 . S
C421 C420 1.327 . S
C421 C425 1.429 . S
C422 C405 1.574 . S
C422 H416 0.949 . S
C422 C426 1.368 . S
C423 C404 1.429 . S
C423 C417 1.429 . S
C423 C424 1.523 . S
C424 C405 1.368 . S
C424 C418 1.368 . S
C424 C423 1.523 . S
C425 C409 1.429 . S
C425 C421 1.429 . S
C425 C426 1.523 . S
C426 C410 1.368 . S
C426 C422 1.368 . S
C426 C425 1.523 . S
H427 C402 0.950 . S
H428 C404 0.950 . S
H429 C405 0.949 . S
H430 C407 0.950 . S
H431 C409 0.950 . S
C432 C433 1.349 . S
C432 C434 1.327 . S
C432 H457 0.950 . S
C433 C432 1.349 . S
C433 C449 1.349 . S
C434 C432 1.327 . S
C434 C453 1.429 . S
C434 H458 0.950 . S
C435 C452 1.574 . S
C435 C454 1.368 . S
C435 H459 0.949 . S
H436 C440 0.949 . S
C437 C438 1.349 . S
C437 C439 1.327 1_565 S
C437 H460 0.950 . S
C438 C437 1.349 . S
C438 C450 1.349 . S
C439 C437 1.327 1_545 S
C439 C455 1.429 . S
C439 H461 0.950 . S
C440 H436 0.949 . S
C440 C448 1.574 . S
C440 C456 1.368 . S
H441 C449 0.950 . S
H442 C447 0.950 . S
H443 C448 0.949 . S
H444 C450 0.950 . S
H445 C451 0.950 . S
H446 C452 0.949 . S
C447 H442 0.950 . S
C447 C449 1.327 . S
C447 C453 1.429 . S
C448 C440 1.574 . S
C448 H443 0.949 . S
C448 C454 1.368 . S
C449 C433 1.349 . S
C449 H441 0.950 . S
C449 C447 1.327 . S
C450 C438 1.349 . S
C450 H444 0.950 . S
C450 C451 1.327 1_565 S
C451 H445 0.950 . S
C451 C450 1.327 1_545 S
C451 C455 1.429 . S
C452 C435 1.574 . S
C452 H446 0.949 . S
C452 C456 1.368 . S
C453 C434 1.429 . S
C453 C447 1.429 . S
C453 C454 1.523 . S
C454 C435 1.368 . S
C454 C448 1.368 . S
C454 C453 1.523 . S
C455 C439 1.429 . S
C455 C451 1.429 . S
C455 C456 1.523 . S
C456 C440 1.368 . S
C456 C452 1.368 . S
C456 C455 1.523 . S
H457 C432 0.950 . S
H458 C434 0.950 . S
H459 C435 0.949 . S
H460 C437 0.950 . S
H461 C439 0.950 . S
C462 C463 1.349 . S
C462 C464 1.327 . S
C462 H487 0.950 . S
C463 C462 1.349 . S
C463 C479 1.349 . S
C464 C462 1.327 . S
C464 C483 1.429 . S
C464 H488 0.950 . S
C465 C482 1.574 . S
C465 C484 1.368 . S
C465 H489 0.949 . S
H466 C470 0.949 . S
C467 C468 1.349 . S
C467 C469 1.327 . S
C467 H490 0.950 . S
C468 C467 1.349 . S
C468 C480 1.349 . S
C469 C467 1.327 . S
C469 C485 1.429 . S
C469 H491 0.950 . S
C470 H466 0.949 . S
C470 C478 1.574 . S
C470 C486 1.368 . S
H471 C479 0.950 . S
H472 C477 0.950 . S
H473 C478 0.949 . S
H474 C480 0.950 . S
H475 C481 0.950 . S
H476 C482 0.949 . S
C477 H472 0.950 . S
C477 C479 1.327 . S
C477 C483 1.429 . S
C478 C470 1.574 . S
C478 H473 0.949 . S
C478 C484 1.368 . S
C479 C463 1.349 . S
C479 H471 0.950 . S
C479 C477 1.327 . S
C480 C468 1.349 . S
C480 H474 0.950 . S
C480 C481 1.327 . S
C481 H475 0.950 . S
C481 C480 1.327 . S
C481 C485 1.429 . S
C482 C465 1.574 . S
C482 H476 0.949 . S
C482 C486 1.368 . S
C483 C464 1.429 . S
C483 C477 1.429 . S
C483 C484 1.523 . S
C484 C465 1.368 . S
C484 C478 1.368 . S
C484 C483 1.523 . S
C485 C469 1.429 . S
C485 C481 1.429 . S
C485 C486 1.523 . S
C486 C470 1.368 . S
C486 C482 1.368 . S
C486 C485 1.523 . S
H487 C462 0.950 . S
H488 C464 0.950 . S
H489 C465 0.949 . S
H490 C467 0.950 . S
H491 C469 0.950 . S
C492 C493 1.349 . S
C492 C494 1.327 . S
C492 H517 0.950 . S
C493 C492 1.349 . S
C493 C509 1.349 . S
C494 C492 1.327 . S
C494 C513 1.429 . S
C494 H518 0.950 . S
C495 C512 1.574 . S
C495 C514 1.368 . S
C495 H519 0.949 . S
H496 C500 0.949 . S
C497 C498 1.349 . S
C497 C499 1.327 . S
C497 H520 0.950 . S
C498 C497 1.349 . S
C498 C510 1.349 . S
C499 C497 1.327 . S
C499 C515 1.429 . S
C499 H521 0.950 . S
C500 H496 0.949 . S
C500 C508 1.574 . S
C500 C516 1.368 . S
H501 C509 0.950 . S
H502 C507 0.950 . S
H503 C508 0.949 . S
H504 C510 0.950 . S
H505 C511 0.950 . S
H506 C512 0.949 . S
C507 H502 0.950 . S
C507 C509 1.327 . S
C507 C513 1.429 . S
C508 C500 1.574 . S
C508 H503 0.949 . S
C508 C514 1.368 . S
C509 C493 1.349 . S
C509 H501 0.950 . S
C509 C507 1.327 . S
C510 C498 1.349 . S
C510 H504 0.950 . S
C510 C511 1.327 . S
C511 H505 0.950 . S
C511 C510 1.327 . S
C511 C515 1.429 . S
C512 C495 1.574 . S
C512 H506 0.949 . S
C512 C516 1.368 . S
C513 C494 1.429 . S
C513 C507 1.429 . S
C513 C514 1.523 . S
C514 C495 1.368 . S
C514 C508 1.368 . S
C514 C513 1.523 . S
C515 C499 1.429 . S
C515 C511 1.429 . S
C515 C516 1.523 . S
C516 C500 1.368 . S
C516 C512 1.368 . S
C516 C515 1.523 . S
H517 C492 0.950 . S
H518 C494 0.950 . S
H519 C495 0.949 . S
H520 C497 0.950 . S
H521 C499 0.950 . S
C522 C523 1.349 . S
C522 C524 1.327 1_554 S
C522 H547 0.950 . S
C523 C522 1.349 . S
C523 C539 1.349 1_554 S
C524 C522 1.327 1_556 S
C524 C543 1.429 . S
C524 H548 0.950 . S
C525 C542 1.574 . S
C525 C544 1.368 . S
C525 H549 0.949 . S
H526 C530 0.949 . S
C527 C528 1.349 . S
C527 C529 1.327 . S
C527 H550 0.950 . S
C528 C527 1.349 . S
C528 C540 1.349 . S
C529 C527 1.327 . S
C529 C545 1.429 . S
C529 H551 0.950 . S
C530 H526 0.949 . S
C530 C538 1.574 . S
C530 C546 1.368 . S
H531 C539 0.950 . S
H532 C537 0.950 . S
H533 C538 0.949 . S
H534 C540 0.950 . S
H535 C541 0.950 . S
H536 C542 0.949 . S
C537 H532 0.950 . S
C537 C539 1.327 . S
C537 C543 1.429 . S
C538 C530 1.574 . S
C538 H533 0.949 . S
C538 C544 1.368 . S
C539 C523 1.349 1_556 S
C539 H531 0.950 . S
C539 C537 1.327 . S
C540 C528 1.349 . S
C540 H534 0.950 . S
C540 C541 1.327 . S
C541 H535 0.950 . S
C541 C540 1.327 . S
C541 C545 1.429 . S
C542 C525 1.574 . S
C542 H536 0.949 . S
C542 C546 1.368 . S
C543 C524 1.429 . S
C543 C537 1.429 . S
C543 C544 1.523 . S
C544 C525 1.368 . S
C544 C538 1.368 . S
C544 C543 1.523 . S
C545 C529 1.429 . S
C545 C541 1.429 . S
C545 C546 1.523 . S
C546 C530 1.368 . S
C546 C542 1.368 . S
C546 C545 1.523 . S
H547 C522 0.950 . S
H548 C524 0.950 . S
H549 C525 0.949 . S
H550 C527 0.950 . S
H551 C529 0.950 . S
C552 C553 1.349 . S
C552 C554 1.327 . S
C552 H577 0.950 . S
C553 C552 1.349 . S
C553 C569 1.349 . S
C554 C552 1.327 . S
C554 C573 1.429 . S
C554 H578 0.950 . S
C555 C572 1.574 . S
C555 C574 1.368 . S
C555 H579 0.949 . S
H556 C560 0.949 . S
C557 C558 1.349 . S
C557 C559 1.327 . S
C557 H580 0.950 . S
C558 C557 1.349 . S
C558 C570 1.349 . S
C559 C557 1.327 . S
C559 C575 1.429 . S
C559 H581 0.950 . S
C560 H556 0.949 . S
C560 C568 1.574 . S
C560 C576 1.368 . S
H561 C569 0.950 . S
H562 C567 0.950 . S
H563 C568 0.949 . S
H564 C570 0.950 . S
H565 C571 0.950 . S
H566 C572 0.949 . S
C567 H562 0.950 . S
C567 C569 1.327 . S
C567 C573 1.429 . S
C568 C560 1.574 . S
C568 H563 0.949 . S
C568 C574 1.368 . S
C569 C553 1.349 . S
C569 H561 0.950 . S
C569 C567 1.327 . S
C570 C558 1.349 . S
C570 H564 0.950 . S
C570 C571 1.327 . S
C571 H565 0.950 . S
C571 C570 1.327 . S
C571 C575 1.429 . S
C572 C555 1.574 . S
C572 H566 0.949 . S
C572 C576 1.368 . S
C573 C554 1.429 . S
C573 C567 1.429 . S
C573 C574 1.523 . S
C574 C555 1.368 . S
C574 C568 1.368 . S
C574 C573 1.523 . S
C575 C559 1.429 . S
C575 C571 1.429 . S
C575 C576 1.523 . S
C576 C560 1.368 . S
C576 C572 1.368 . S
C576 C575 1.523 . S
H577 C552 0.950 . S
H578 C554 0.950 . S
H579 C555 0.949 . S
H580 C557 0.950 . S
H581 C559 0.950 . S
C582 C583 1.349 . S
C582 C584 1.327 . S
C582 H607 0.950 . S
C583 C582 1.349 . S
C583 C599 1.349 1_556 S
C584 C582 1.327 . S
C584 C603 1.429 . S
C584 H608 0.950 . S
C585 C602 1.574 1_455 S
C585 C604 1.368 1_554 S
C585 H609 0.949 . S
H586 C590 0.949 1_655 S
C587 C588 1.349 . S
C587 C589 1.327 . S
C587 H610 0.950 1_556 S
C588 C587 1.349 . S
C588 C600 1.349 . S
C589 C587 1.327 . S
C589 C605 1.429 . S
C589 H611 0.950 1_556 S
C590 H586 0.949 1_455 S
C590 C598 1.574 . S
C590 C606 1.368 1_455 S
H591 C599 0.950 . S
H592 C597 0.950 . S
H593 C598 0.949 . S
H594 C600 0.950 . S
H595 C601 0.950 . S
H596 C602 0.949 . S
C597 H592 0.950 . S
C597 C599 1.327 . S
C597 C603 1.429 1_554 S
C598 C590 1.574 . S
C598 H593 0.949 . S
C598 C604 1.368 . S
C599 C583 1.349 1_554 S
C599 H591 0.950 . S
C599 C597 1.327 . S
C600 C588 1.349 . S
C600 H594 0.950 . S
C600 C601 1.327 . S
C601 H595 0.950 . S
C601 C600 1.327 . S
C601 C605 1.429 . S
C602 C585 1.574 1_655 S
C602 H596 0.949 . S
C602 C606 1.368 1_554 S
C603 C584 1.429 . S
C603 C597 1.429 1_556 S
C603 C604 1.523 . S
C604 C585 1.368 1_556 S
C604 C598 1.368 . S
C604 C603 1.523 . S
C605 C589 1.429 . S
C605 C601 1.429 . S
C605 C606 1.523 . S
C606 C590 1.368 1_655 S
C606 C602 1.368 1_556 S
C606 C605 1.523 . S
H607 C582 0.950 . S
H608 C584 0.950 . S
H609 C585 0.949 . S
H610 C587 0.950 1_554 S
H611 C589 0.950 1_554 S
C612 C613 1.349 . S
C612 C614 1.327 . S
C612 H637 0.950 1_554 S
C613 C612 1.349 . S
C613 C629 1.349 . S
C614 C612 1.327 . S
C614 C633 1.429 . S
C614 H638 0.950 1_554 S
C615 C632 1.574 1_545 S
C615 C634 1.368 . S
C615 H639 0.949 . S
H616 C620 0.949 . S
C617 C618 1.349 1_554 S
C617 C619 1.327 . S
C617 H640 0.950 . S
C618 C617 1.349 1_556 S
C618 C630 1.349 . S
C619 C617 1.327 . S
C619 C635 1.429 1_554 S
C619 H641 0.950 . S
C620 H616 0.949 . S
C620 C628 1.574 1_565 S
C620 C636 1.368 1_556 S
H621 C629 0.950 . S
H622 C627 0.950 . S
H623 C628 0.949 . S
H624 C630 0.950 . S
H625 C631 0.950 . S
H626 C632 0.949 . S
C627 H622 0.950 . S
C627 C629 1.327 . S
C627 C633 1.429 . S
C628 C620 1.574 1_545 S
C628 H623 0.949 . S
C628 C634 1.368 1_556 S
C629 C613 1.349 . S
C629 H621 0.950 . S
C629 C627 1.327 . S
C630 C618 1.349 . S
C630 H624 0.950 . S
C630 C631 1.327 . S
C631 H625 0.950 . S
C631 C630 1.327 . S
C631 C635 1.429 . S
C632 C615 1.574 1_565 S
C632 H626 0.949 . S
C632 C636 1.368 . S
C633 C614 1.429 . S
C633 C627 1.429 . S
C633 C634 1.523 . S
C634 C615 1.368 . S
C634 C628 1.368 1_554 S
C634 C633 1.523 . S
C635 C619 1.429 1_556 S
C635 C631 1.429 . S
C635 C636 1.523 1_556 S
C636 C620 1.368 1_554 S
C636 C632 1.368 . S
C636 C635 1.523 1_554 S
H637 C612 0.950 1_556 S
H638 C614 0.950 1_556 S
H639 C615 0.949 . S
H640 C617 0.950 . S
H641 C619 0.950 . S
C642 C643 1.349 . S
C642 C644 1.327 . S
C642 H667 0.950 . S
C643 C642 1.349 . S
C643 C659 1.349 . S
C644 C642 1.327 . S
C644 C663 1.429 . S
C644 H668 0.950 . S
C645 C662 1.574 . S
C645 C664 1.368 . S
C645 H669 0.949 . S
H646 C650 0.949 . S
C647 C648 1.349 . S
C647 C649 1.327 . S
C647 H670 0.950 . S
C648 C647 1.349 . S
C648 C660 1.349 . S
C649 C647 1.327 . S
C649 C665 1.429 . S
C649 H671 0.950 . S
C650 H646 0.949 . S
C650 C658 1.574 . S
C650 C666 1.368 . S
H651 C659 0.950 . S
H652 C657 0.950 . S
H653 C658 0.949 . S
H654 C660 0.950 . S
H655 C661 0.950 . S
H656 C662 0.949 . S
C657 H652 0.950 . S
C657 C659 1.327 . S
C657 C663 1.429 . S
C658 C650 1.574 . S
C658 H653 0.949 . S
C658 C664 1.368 . S
C659 C643 1.349 . S
C659 H651 0.950 . S
C659 C657 1.327 . S
C660 C648 1.349 . S
C660 H654 0.950 . S
C660 C661 1.327 . S
C661 H655 0.950 . S
C661 C660 1.327 . S
C661 C665 1.429 . S
C662 C645 1.574 . S
C662 H656 0.949 . S
C662 C666 1.368 . S
C663 C644 1.429 . S
C663 C657 1.429 . S
C663 C664 1.523 . S
C664 C645 1.368 . S
C664 C658 1.368 . S
C664 C663 1.523 . S
C665 C649 1.429 . S
C665 C661 1.429 . S
C665 C666 1.523 . S
C666 C650 1.368 . S
C666 C662 1.368 . S
C666 C665 1.523 . S
H667 C642 0.950 . S
H668 C644 0.950 . S
H669 C645 0.949 . S
H670 C647 0.950 . S
H671 C649 0.950 . S
C672 C673 1.349 . S
C672 C674 1.327 . S
C672 H697 0.950 . S
C673 C672 1.349 . S
C673 C689 1.349 . S
C674 C672 1.327 . S
C674 C693 1.429 . S
C674 H698 0.950 . S
C675 C692 1.574 1_565 S
C675 C694 1.368 . S
C675 H699 0.949 . S
H676 C680 0.949 . S
C677 C678 1.349 . S
C677 C679 1.327 . S
C677 H700 0.950 . S
C678 C677 1.349 . S
C678 C690 1.349 . S
C679 C677 1.327 . S
C679 C695 1.429 . S
C679 H701 0.950 . S
C680 H676 0.949 . S
C680 C688 1.574 . S
C680 C696 1.368 1_565 S
H681 C689 0.950 . S
H682 C687 0.950 . S
H683 C688 0.949 . S
H684 C690 0.950 . S
H685 C691 0.950 . S
H686 C692 0.949 . S
C687 H682 0.950 . S
C687 C689 1.327 . S
C687 C693 1.429 . S
C688 C680 1.574 . S
C688 H683 0.949 . S
C688 C694 1.368 . S
C689 C673 1.349 . S
C689 H681 0.950 . S
C689 C687 1.327 . S
C690 C678 1.349 . S
C690 H684 0.950 . S
C690 C691 1.327 . S
C691 H685 0.950 . S
C691 C690 1.327 . S
C691 C695 1.429 . S
C692 C675 1.574 1_545 S
C692 H686 0.949 . S
C692 C696 1.368 . S
C693 C674 1.429 . S
C693 C687 1.429 . S
C693 C694 1.523 . S
C694 C675 1.368 . S
C694 C688 1.368 . S
C694 C693 1.523 . S
C695 C679 1.429 . S
C695 C691 1.429 . S
C695 C696 1.523 . S
C696 C680 1.368 1_545 S
C696 C692 1.368 . S
C696 C695 1.523 . S
H697 C672 0.950 . S
H698 C674 0.950 . S
H699 C675 0.949 . S
H700 C677 0.950 . S
H701 C679 0.950 . S
C702 C703 1.349 . S
C702 C704 1.327 . S
C702 H727 0.950 . S
C703 C702 1.349 . S
C703 C719 1.349 . S
C704 C702 1.327 . S
C704 C723 1.429 . S
C704 H728 0.950 . S
C705 C722 1.574 . S
C705 C724 1.368 . S
C705 H729 0.949 . S
H706 C710 0.949 . S
C707 C708 1.349 . S
C707 C709 1.327 . S
C707 H730 0.950 . S
C708 C707 1.349 . S
C708 C720 1.349 . S
C709 C707 1.327 . S
C709 C725 1.429 . S
C709 H731 0.950 . S
C710 H706 0.949 . S
C710 C718 1.574 . S
C710 C726 1.368 . S
H711 C719 0.950 . S
H712 C717 0.950 . S
H713 C718 0.949 . S
H714 C720 0.950 . S
H715 C721 0.950 . S
H716 C722 0.949 . S
C717 H712 0.950 . S
C717 C719 1.327 . S
C717 C723 1.429 . S
C718 C710 1.574 . S
C718 H713 0.949 . S
C718 C724 1.368 . S
C719 C703 1.349 . S
C719 H711 0.950 . S
C719 C717 1.327 . S
C720 C708 1.349 . S
C720 H714 0.950 . S
C720 C721 1.327 . S
C721 H715 0.950 . S
C721 C720 1.327 . S
C721 C725 1.429 . S
C722 C705 1.574 . S
C722 H716 0.949 . S
C722 C726 1.368 . S
C723 C704 1.429 . S
C723 C717 1.429 . S
C723 C724 1.523 . S
C724 C705 1.368 . S
C724 C718 1.368 . S
C724 C723 1.523 . S
C725 C709 1.429 . S
C725 C721 1.429 . S
C725 C726 1.523 . S
C726 C710 1.368 . S
C726 C722 1.368 . S
C726 C725 1.523 . S
H727 C702 0.950 . S
H728 C704 0.950 . S
H729 C705 0.949 . S
H730 C707 0.950 . S
H731 C709 0.950 . S
C732 C733 1.349 . S
C732 C734 1.327 . S
C732 H757 0.950 . S
C733 C732 1.349 . S
C733 C749 1.349 . S
C734 C732 1.327 . S
C734 C753 1.429 . S
C734 H758 0.950 . S
C735 C752 1.574 . S
C735 C754 1.368 . S
C735 H759 0.949 . S
H736 C740 0.949 . S
C737 C738 1.349 . S
C737 C739 1.327 . S
C737 H760 0.950 . S
C738 C737 1.349 . S
C738 C750 1.349 . S
C739 C737 1.327 . S
C739 C755 1.429 . S
C739 H761 0.950 . S
C740 H736 0.949 . S
C740 C748 1.574 . S
C740 C756 1.368 . S
H741 C749 0.950 . S
H742 C747 0.950 . S
H743 C748 0.949 . S
H744 C750 0.950 . S
H745 C751 0.950 . S
H746 C752 0.949 . S
C747 H742 0.950 . S
C747 C749 1.327 . S
C747 C753 1.429 . S
C748 C740 1.574 . S
C748 H743 0.949 . S
C748 C754 1.368 . S
C749 C733 1.349 . S
C749 H741 0.950 . S
C749 C747 1.327 . S
C750 C738 1.349 . S
C750 H744 0.950 . S
C750 C751 1.327 . S
C751 H745 0.950 . S
C751 C750 1.327 . S
C751 C755 1.429 . S
C752 C735 1.574 . S
C752 H746 0.949 . S
C752 C756 1.368 . S
C753 C734 1.429 . S
C753 C747 1.429 . S
C753 C754 1.523 . S
C754 C735 1.368 . S
C754 C748 1.368 . S
C754 C753 1.523 . S
C755 C739 1.429 . S
C755 C751 1.429 . S
C755 C756 1.523 . S
C756 C740 1.368 . S
C756 C752 1.368 . S
C756 C755 1.523 . S
H757 C732 0.950 . S
H758 C734 0.950 . S
H759 C735 0.949 . S
H760 C737 0.950 . S
H761 C739 0.950 . S
C762 C763 1.349 . S
C762 C764 1.327 . S
C762 H787 0.950 . S
C763 C762 1.349 . S
C763 C779 1.349 . S
C764 C762 1.327 . S
C764 C783 1.429 . S
C764 H788 0.950 . S
C765 C782 1.574 . S
C765 C784 1.368 . S
C765 H789 0.949 . S
H766 C770 0.949 . S
C767 C768 1.349 . S
C767 C769 1.327 . S
C767 H790 0.950 . S
C768 C767 1.349 . S
C768 C780 1.349 . S
C769 C767 1.327 . S
C769 C785 1.429 1_655 S
C769 H791 0.950 . S
C770 H766 0.949 . S
C770 C778 1.574 . S
C770 C786 1.368 . S
H771 C779 0.950 . S
H772 C777 0.950 . S
H773 C778 0.949 . S
H774 C780 0.950 . S
H775 C781 0.950 . S
H776 C782 0.949 . S
C777 H772 0.950 . S
C777 C779 1.327 . S
C777 C783 1.429 . S
C778 C770 1.574 . S
C778 H773 0.949 . S
C778 C784 1.368 . S
C779 C763 1.349 . S
C779 H771 0.950 . S
C779 C777 1.327 . S
C780 C768 1.349 . S
C780 H774 0.950 . S
C780 C781 1.327 1_655 S
C781 H775 0.950 . S
C781 C780 1.327 1_455 S
C781 C785 1.429 . S
C782 C765 1.574 . S
C782 H776 0.949 . S
C782 C786 1.368 . S
C783 C764 1.429 . S
C783 C777 1.429 . S
C783 C784 1.523 . S
C784 C765 1.368 . S
C784 C778 1.368 . S
C784 C783 1.523 . S
C785 C769 1.429 1_455 S
C785 C781 1.429 . S
C785 C786 1.523 . S
C786 C770 1.368 . S
C786 C782 1.368 . S
C786 C785 1.523 . S
H787 C762 0.950 . S
H788 C764 0.950 . S
H789 C765 0.949 . S
H790 C767 0.950 . S
H791 C769 0.950 . S
C792 C793 1.349 . S
C792 C794 1.327 . S
C792 H817 0.950 . S
C793 C792 1.349 . S
C793 C809 1.349 . S
C794 C792 1.327 . S
C794 C813 1.429 . S
C794 H818 0.950 . S
C795 C812 1.574 . S
C795 C814 1.368 . S
C795 H819 0.949 . S
H796 C800 0.949 . S
C797 C798 1.349 . S
C797 C799 1.327 . S
C797 H820 0.950 . S
C798 C797 1.349 . S
C798 C810 1.349 . S
C799 C797 1.327 . S
C799 C815 1.429 . S
C799 H821 0.950 . S
C800 H796 0.949 . S
C800 C808 1.574 . S
C800 C816 1.368 . S
H801 C809 0.950 . S
H802 C807 0.950 . S
H803 C808 0.949 . S
H804 C810 0.950 . S
H805 C811 0.950 . S
H806 C812 0.949 . S
C807 H802 0.950 . S
C807 C809 1.327 . S
C807 C813 1.429 . S
C808 C800 1.574 . S
C808 H803 0.949 . S
C808 C814 1.368 . S
C809 C793 1.349 . S
C809 H801 0.950 . S
C809 C807 1.327 . S
C810 C798 1.349 . S
C810 H804 0.950 . S
C810 C811 1.327 . S
C811 H805 0.950 . S
C811 C810 1.327 . S
C811 C815 1.429 . S
C812 C795 1.574 . S
C812 H806 0.949 . S
C812 C816 1.368 . S
C813 C794 1.429 . S
C813 C807 1.429 . S
C813 C814 1.523 . S
C814 C795 1.368 . S
C814 C808 1.368 . S
C814 C813 1.523 . S
C815 C799 1.429 . S
C815 C811 1.429 . S
C815 C816 1.523 . S
C816 C800 1.368 . S
C816 C812 1.368 . S
C816 C815 1.523 . S
H817 C792 0.950 . S
H818 C794 0.950 . S
H819 C795 0.949 . S
H820 C797 0.950 . S
H821 C799 0.950 . S
C822 C823 1.349 . S
C822 C824 1.327 . S
C822 H847 0.950 . S
C823 C822 1.349 . S
C823 C839 1.349 . S
C824 C822 1.327 . S
C824 C843 1.429 . S
C824 H848 0.950 . S
C825 C842 1.574 . S
C825 C844 1.368 1_455 S
C825 H849 0.949 . S
H826 C830 0.949 . S
C827 C828 1.349 . S
C827 C829 1.327 . S
C827 H850 0.950 . S
C828 C827 1.349 . S
C828 C840 1.349 . S
C829 C827 1.327 . S
C829 C845 1.429 . S
C829 H851 0.950 . S
C830 H826 0.949 . S
C830 C838 1.574 . S
C830 C846 1.368 . S
H831 C839 0.950 . S
H832 C837 0.950 . S
H833 C838 0.949 1_655 S
H834 C840 0.950 . S
H835 C841 0.950 . S
H836 C842 0.949 . S
C837 H832 0.950 . S
C837 C839 1.327 . S
C837 C843 1.429 . S
C838 C830 1.574 . S
C838 H833 0.949 1_455 S
C838 C844 1.368 1_455 S
C839 C823 1.349 . S
C839 H831 0.950 . S
C839 C837 1.327 . S
C840 C828 1.349 . S
C840 H834 0.950 . S
C840 C841 1.327 . S
C841 H835 0.950 . S
C841 C840 1.327 . S
C841 C845 1.429 . S
C842 C825 1.574 . S
C842 H836 0.949 . S
C842 C846 1.368 . S
C843 C824 1.429 . S
C843 C837 1.429 . S
C843 C844 1.523 . S
C844 C825 1.368 1_655 S
C844 C838 1.368 1_655 S
C844 C843 1.523 . S
C845 C829 1.429 . S
C845 C841 1.429 . S
C845 C846 1.523 . S
C846 C830 1.368 . S
C846 C842 1.368 . S
C846 C845 1.523 . S
H847 C822 0.950 . S
H848 C824 0.950 . S
H849 C825 0.949 . S
H850 C827 0.950 . S
H851 C829 0.950 . S
C852 C853 1.349 . S
C852 C854 1.327 . S
C852 H877 0.950 . S
C853 C852 1.349 . S
C853 C869 1.349 . S
C854 C852 1.327 . S
C854 C873 1.429 . S
C854 H878 0.950 . S
C855 C872 1.574 . S
C855 C874 1.368 . S
C855 H879 0.949 . S
H856 C860 0.949 . S
C857 C858 1.349 . S
C857 C859 1.327 . S
C857 H880 0.950 . S
C858 C857 1.349 . S
C858 C870 1.349 . S
C859 C857 1.327 . S
C859 C875 1.429 . S
C859 H881 0.950 . S
C860 H856 0.949 . S
C860 C868 1.574 . S
C860 C876 1.368 . S
H861 C869 0.950 . S
H862 C867 0.950 . S
H863 C868 0.949 . S
H864 C870 0.950 . S
H865 C871 0.950 . S
H866 C872 0.949 . S
C867 H862 0.950 . S
C867 C869 1.327 . S
C867 C873 1.429 . S
C868 C860 1.574 . S
C868 H863 0.949 . S
C868 C874 1.368 . S
C869 C853 1.349 . S
C869 H861 0.950 . S
C869 C867 1.327 . S
C870 C858 1.349 . S
C870 H864 0.950 . S
C870 C871 1.327 . S
C871 H865 0.950 . S
C871 C870 1.327 . S
C871 C875 1.429 . S
C872 C855 1.574 . S
C872 H866 0.949 . S
C872 C876 1.368 . S
C873 C854 1.429 . S
C873 C867 1.429 . S
C873 C874 1.523 . S
C874 C855 1.368 . S
C874 C868 1.368 . S
C874 C873 1.523 . S
C875 C859 1.429 . S
C875 C871 1.429 . S
C875 C876 1.523 . S
C876 C860 1.368 . S
C876 C872 1.368 . S
C876 C875 1.523 . S
H877 C852 0.950 . S
H878 C854 0.950 . S
H879 C855 0.949 . S
H880 C857 0.950 . S
H881 C859 0.950 . S
C882 C883 1.349 . S
C882 C884 1.327 . S
C882 H907 0.950 . S
C883 C882 1.349 . S
C883 C899 1.349 . S
C884 C882 1.327 . S
C884 C903 1.429 . S
C884 H908 0.950 . S
C885 C902 1.574 . S
C885 C904 1.368 . S
C885 H909 0.949 . S
H886 C890 0.949 . S
C887 C888 1.349 . S
C887 C889 1.327 . S
C887 H910 0.950 . S
C888 C887 1.349 . S
C888 C900 1.349 . S
C889 C887 1.327 . S
C889 C905 1.429 . S
C889 H911 0.950 . S
C890 H886 0.949 . S
C890 C898 1.574 . S
C890 C906 1.368 . S
H891 C899 0.950 . S
H892 C897 0.950 . S
H893 C898 0.949 . S
H894 C900 0.950 . S
H895 C901 0.950 . S
H896 C902 0.949 . S
C897 H892 0.950 . S
C897 C899 1.327 . S
C897 C903 1.429 . S
C898 C890 1.574 . S
C898 H893 0.949 . S
C898 C904 1.368 . S
C899 C883 1.349 . S
C899 H891 0.950 . S
C899 C897 1.327 . S
C900 C888 1.349 . S
C900 H894 0.950 . S
C900 C901 1.327 . S
C901 H895 0.950 . S
C901 C900 1.327 . S
C901 C905 1.429 . S
C902 C885 1.574 . S
C902 H896 0.949 . S
C902 C906 1.368 . S
C903 C884 1.429 . S
C903 C897 1.429 . S
C903 C904 1.523 . S
C904 C885 1.368 . S
C904 C898 1.368 . S
C904 C903 1.523 . S
C905 C889 1.429 . S
C905 C901 1.429 . S
C905 C906 1.523 . S
C906 C890 1.368 . S
C906 C902 1.368 . S
C906 C905 1.523 . S
H907 C882 0.950 . S
H908 C884 0.950 . S
H909 C885 0.949 . S
H910 C887 0.950 . S
H911 C889 0.950 . S
C912 C913 1.349 . S
C912 C914 1.327 . S
C912 H937 0.950 . S
C913 C912 1.349 . S
C913 C929 1.349 . S
C914 C912 1.327 . S
C914 C933 1.429 . S
C914 H938 0.950 . S
C915 C932 1.574 . S
C915 C934 1.368 . S
C915 H939 0.949 . S
H916 C920 0.949 . S
C917 C918 1.349 . S
C917 C919 1.327 . S
C917 H940 0.950 . S
C918 C917 1.349 . S
C918 C930 1.349 . S
C919 C917 1.327 . S
C919 C935 1.429 . S
C919 H941 0.950 . S
C920 H916 0.949 . S
C920 C928 1.574 . S
C920 C936 1.368 . S
H921 C929 0.950 . S
H922 C927 0.950 . S
H923 C928 0.949 . S
H924 C930 0.950 . S
H925 C931 0.950 . S
H926 C932 0.949 . S
C927 H922 0.950 . S
C927 C929 1.327 . S
C927 C933 1.429 . S
C928 C920 1.574 . S
C928 H923 0.949 . S
C928 C934 1.368 . S
C929 C913 1.349 . S
C929 H921 0.950 . S
C929 C927 1.327 . S
C930 C918 1.349 . S
C930 H924 0.950 . S
C930 C931 1.327 . S
C931 H925 0.950 . S
C931 C930 1.327 . S
C931 C935 1.429 . S
C932 C915 1.574 . S
C932 H926 0.949 . S
C932 C936 1.368 . S
C933 C914 1.429 . S
C933 C927 1.429 . S
C933 C934 1.523 . S
C934 C915 1.368 . S
C934 C928 1.368 . S
C934 C933 1.523 . S
C935 C919 1.429 . S
C935 C931 1.429 . S
C935 C936 1.523 . S
C936 C920 1.368 . S
C936 C932 1.368 . S
C936 C935 1.523 . S
H937 C912 0.950 . S
H938 C914 0.950 . S
H939 C915 0.949 . S
H940 C917 0.950 . S
H941 C919 0.950 . S
C942 C943 1.349 . S
C942 C944 1.327 . S
C942 H967 0.950 . S
C943 C942 1.349 . S
C943 C959 1.349 . S
C944 C942 1.327 . S
C944 C963 1.429 . S
C944 H968 0.950 . S
C945 C962 1.574 . S
C945 C964 1.368 . S
C945 H969 0.949 . S
H946 C950 0.949 . S
C947 C948 1.349 . S
C947 C949 1.327 . S
C947 H970 0.950 . S
C948 C947 1.349 . S
C948 C960 1.349 . S
C949 C947 1.327 . S
C949 C965 1.429 . S
C949 H971 0.950 . S
C950 H946 0.949 . S
C950 C958 1.574 . S
C950 C966 1.368 . S
H951 C959 0.950 . S
H952 C957 0.950 . S
H953 C958 0.949 . S
H954 C960 0.950 . S
H955 C961 0.950 . S
H956 C962 0.949 . S
C957 H952 0.950 . S
C957 C959 1.327 . S
C957 C963 1.429 . S
C958 C950 1.574 . S
C958 H953 0.949 . S
C958 C964 1.368 . S
C959 C943 1.349 . S
C959 H951 0.950 . S
C959 C957 1.327 . S
C960 C948 1.349 . S
C960 H954 0.950 . S
C960 C961 1.327 . S
C961 H955 0.950 . S
C961 C960 1.327 . S
C961 C965 1.429 . S
C962 C945 1.574 . S
C962 H956 0.949 . S
C962 C966 1.368 . S
C963 C944 1.429 . S
C963 C957 1.429 . S
C963 C964 1.523 . S
C964 C945 1.368 . S
C964 C958 1.368 . S
C964 C963 1.523 . S
C965 C949 1.429 . S
C965 C961 1.429 . S
C965 C966 1.523 . S
C966 C950 1.368 . S
C966 C962 1.368 . S
C966 C965 1.523 . S
H967 C942 0.950 . S
H968 C944 0.950 . S
H969 C945 0.949 . S
H970 C947 0.950 . S
H971 C949 0.950 . S
C972 C973 1.349 . S
C972 C974 1.327 . S
C972 H997 0.950 . S
C973 C972 1.349 . S
C973 C989 1.349 . S
C974 C972 1.327 . S
C974 C993 1.429 . S
C974 H998 0.950 . S
C975 C992 1.574 . S
C975 C994 1.368 . S
C975 H999 0.949 . S
H976 C980 0.949 . S
C977 C978 1.349 . S
C977 C979 1.327 . S
C977 H1000 0.950 . S
C978 C977 1.349 . S
C978 C990 1.349 . S
C979 C977 1.327 . S
C979 C995 1.429 . S
C979 H1001 0.950 . S
C980 H976 0.949 . S
C980 C988 1.574 . S
C980 C996 1.368 . S
H981 C989 0.950 . S
H982 C987 0.950 . S
H983 C988 0.949 . S
H984 C990 0.950 . S
H985 C991 0.950 . S
H986 C992 0.949 . S
C987 H982 0.950 . S
C987 C989 1.327 . S
C987 C993 1.429 . S
C988 C980 1.574 . S
C988 H983 0.949 . S
C988 C994 1.368 . S
C989 C973 1.349 . S
C989 H981 0.950 . S
C989 C987 1.327 . S
C990 C978 1.349 . S
C990 H984 0.950 . S
C990 C991 1.327 . S
C991 H985 0.950 . S
C991 C990 1.327 . S
C991 C995 1.429 . S
C992 C975 1.574 . S
C992 H986 0.949 . S
C992 C996 1.368 . S
C993 C974 1.429 . S
C993 C987 1.429 . S
C993 C994 1.523 . S
C994 C975 1.368 . S
C994 C988 1.368 . S
C994 C993 1.523 . S
C995 C979 1.429 . S
C995 C991 1.429 . S
C995 C996 1.523 . S
C996 C980 1.368 . S
C996 C992 1.368 . S
C996 C995 1.523 . S
H997 C972 0.950 . S
H998 C974 0.950 . S
H999 C975 0.949 . S
H1000 C977 0.950 . S
H1001 C979 0.950 . S
C1002 C1003 1.349 . S
C1002 C1004 1.327 . S
C1002 H1027 0.950 . S
C1003 C1002 1.349 . S
C1003 C1019 1.349 . S
C1004 C1002 1.327 . S
C1004 C1023 1.429 . S
C1004 H1028 0.950 1_554 S
C1005 C1022 1.574 1_554 S
C1005 C1024 1.384 . S
C1005 H1029 0.949 . S
H1006 C1010 0.949 . S
C1007 C1008 1.349 . S
C1007 C1009 1.327 . S
C1007 H1030 0.950 . S
C1008 C1007 1.349 . S
C1008 C1020 1.349 . S
C1009 C1007 1.327 . S
C1009 C1025 1.429 . S
C1009 H1031 0.950 . S
C1010 H1006 0.949 . S
C1010 C1018 1.574 . S
C1010 C1026 1.368 . S
H1011 C1019 0.950 . S
H1012 C1017 0.950 . S
H1013 C1018 0.949 . S
H1014 C1020 0.950 . S
H1015 C1021 0.950 . S
H1016 C1022 0.949 1_554 S
C1017 H1012 0.950 . S
C1017 C1019 1.327 . S
C1017 C1023 1.429 . S
C1018 C1010 1.574 . S
C1018 H1013 0.949 . S
C1018 C1024 1.343 1_556 S
C1019 C1003 1.349 . S
C1019 H1011 0.950 . S
C1019 C1017 1.327 . S
C1020 C1008 1.349 . S
C1020 H1014 0.950 . S
C1020 C1021 1.327 . S
C1021 H1015 0.950 . S
C1021 C1020 1.327 . S
C1021 C1025 1.429 . S
C1022 C1005 1.574 1_556 S
C1022 H1016 0.949 1_556 S
C1022 C1026 1.368 . S
C1023 C1004 1.429 . S
C1023 C1017 1.429 . S
C1023 C1024 1.537 . S
C1024 C1005 1.384 . S
C1024 C1018 1.343 1_554 S
C1024 C1023 1.537 . S
C1025 C1009 1.429 . S
C1025 C1021 1.429 . S
C1025 C1026 1.523 . S
C1026 C1010 1.368 . S
C1026 C1022 1.368 . S
C1026 C1025 1.523 . S
H1027 C1002 0.950 . S
H1028 C1004 0.950 1_556 S
H1029 C1005 0.949 . S
H1030 C1007 0.950 . S
H1031 C1009 0.950 . S
C1032 C1033 1.349 . S
C1032 C1034 1.327 . S
C1032 H1057 0.950 . S
C1033 C1032 1.349 . S
C1033 C1049 1.349 . S
C1034 C1032 1.327 . S
C1034 C1053 1.429 . S
C1034 H1058 0.950 . S
C1035 C1052 1.574 . S
C1035 C1054 1.368 . S
C1035 H1059 0.949 . S
H1036 C1040 0.949 . S
C1037 C1038 1.349 . S
C1037 C1039 1.327 . S
C1037 H1060 0.950 . S
C1038 C1037 1.349 . S
C1038 C1050 1.349 . S
C1039 C1037 1.327 . S
C1039 C1055 1.429 . S
C1039 H1061 0.950 . S
C1040 H1036 0.949 . S
C1040 C1048 1.574 . S
C1040 C1056 1.368 . S
H1041 C1049 0.950 . S
H1042 C1047 0.950 . S
H1043 C1048 0.949 . S
H1044 C1050 0.950 . S
H1045 C1051 0.950 . S
H1046 C1052 0.949 . S
C1047 H1042 0.950 . S
C1047 C1049 1.327 . S
C1047 C1053 1.429 . S
C1048 C1040 1.574 . S
C1048 H1043 0.949 . S
C1048 C1054 1.368 . S
C1049 C1033 1.349 . S
C1049 H1041 0.950 . S
C1049 C1047 1.327 . S
C1050 C1038 1.349 . S
C1050 H1044 0.950 . S
C1050 C1051 1.327 . S
C1051 H1045 0.950 . S
C1051 C1050 1.327 . S
C1051 C1055 1.429 . S
C1052 C1035 1.574 . S
C1052 H1046 0.949 . S
C1052 C1056 1.368 . S
C1053 C1034 1.429 . S
C1053 C1047 1.429 . S
C1053 C1054 1.523 . S
C1054 C1035 1.368 . S
C1054 C1048 1.368 . S
C1054 C1053 1.523 . S
C1055 C1039 1.429 . S
C1055 C1051 1.429 . S
C1055 C1056 1.523 . S
C1056 C1040 1.368 . S
C1056 C1052 1.368 . S
C1056 C1055 1.523 . S
H1057 C1032 0.950 . S
H1058 C1034 0.950 . S
H1059 C1035 0.949 . S
H1060 C1037 0.950 . S
H1061 C1039 0.950 . S
C1062 C1063 1.349 . S
C1062 C1064 1.327 . S
C1062 H1087 0.950 . S
C1063 C1062 1.349 . S
C1063 C1079 1.349 . S
C1064 C1062 1.327 . S
C1064 C1083 1.429 . S
C1064 H1088 0.950 . S
C1065 C1082 1.574 . S
C1065 C1084 1.368 . S
C1065 H1089 0.949 . S
H1066 C1070 0.949 . S
C1067 C1068 1.349 . S
C1067 C1069 1.327 . S
C1067 H1090 0.950 . S
C1068 C1067 1.349 . S
C1068 C1080 1.349 . S
C1069 C1067 1.327 . S
C1069 C1085 1.429 . S
C1069 H1091 0.950 . S
C1070 H1066 0.949 . S
C1070 C1078 1.574 . S
C1070 C1086 1.368 . S
H1071 C1079 0.950 . S
H1072 C1077 0.950 . S
H1073 C1078 0.949 . S
H1074 C1080 0.950 . S
H1075 C1081 0.950 . S
H1076 C1082 0.949 . S
C1077 H1072 0.950 . S
C1077 C1079 1.327 . S
C1077 C1083 1.429 . S
C1078 C1070 1.574 . S
C1078 H1073 0.949 . S
C1078 C1084 1.368 . S
C1079 C1063 1.349 . S
C1079 H1071 0.950 . S
C1079 C1077 1.327 . S
C1080 C1068 1.349 . S
C1080 H1074 0.950 . S
C1080 C1081 1.327 . S
C1081 H1075 0.950 . S
C1081 C1080 1.327 . S
C1081 C1085 1.429 . S
C1082 C1065 1.574 . S
C1082 H1076 0.949 . S
C1082 C1086 1.368 . S
C1083 C1064 1.429 . S
C1083 C1077 1.429 . S
C1083 C1084 1.523 . S
C1084 C1065 1.368 . S
C1084 C1078 1.368 . S
C1084 C1083 1.523 . S
C1085 C1069 1.429 . S
C1085 C1081 1.429 . S
C1085 C1086 1.523 . S
C1086 C1070 1.368 . S
C1086 C1082 1.368 . S
C1086 C1085 1.523 . S
H1087 C1062 0.950 . S
H1088 C1064 0.950 . S
H1089 C1065 0.949 . S
H1090 C1067 0.950 . S
H1091 C1069 0.950 . S
C373 C7 0.842 . S
C378 C115 0.844 . S
C403 C25 0.740 . S
C408 C151 0.739 . S
C433 C46 0.645 . S
C438 C187 0.556 . S
C468 C217 0.737 . S
C463 C70 0.738 . S
C498 C259 0.856 . S
C493 C28 0.855 . S
C523 C49 0.751 . S
C528 C289 0.751 . S
C553 C67 0.646 . S
C558 C325 0.599 . S
C583 C4 0.738 . S
C588 C367 0.736 . S
C613 C58 1.928 . S
C618 C337 1.965 . S
C648 C229 1.928 . S
C643 C66 1.834 . S
C678 C295 1.905 . S
C673 C3 1.793 . S
C703 C37 1.557 . S
C708 C331 1.617 . S
C738 C121 1.982 . S
C733 C79 1.945 . S
C763 C16 1.538 . S
C768 C181 1.604 . S
C798 C223 1.919 . S
C793 C24 1.808 . S
C828 C85 1.923 . S
C823 C45 1.827 . S
C858 C301 1.009 . S
C853 C19 0.964 . S
C888 C361 1.269 . S
C883 C41 1.105 . S
C913 C62 1.234 . S
C918 C253 1.453 . S
C948 C265 1.243 . S
C943 C82 1.157 . S
C978 C157 1.012 . S
C973 C40 0.956 . S
C1003 C61 1.160 . S
C1008 C193 1.246 . S
C1038 C109 1.439 . S
C1033 C83 1.222 . S
C1068 C145 1.284 . S
C1063 C20 1.116 . S
