# Generated by pormake.
# Topology llj, (12,3)-cn, num edge types: 1
# Building blocks:
#     Node 0, Type 0, BuildingBlock: QEWDON_clean_sbu_0, # of connection points: 12
#     Node 1, Type 0, BuildingBlock: QEWDON_clean_sbu_0, # of connection points: 12
#     Node 2, Type 1, BuildingBlock: PAMTOO_clean_linker_0, # of connection points: 3
#     Node 3, Type 1, BuildingBlock: PAMTOO_clean_linker_0, # of connection points: 3
#     Node 4, Type 1, BuildingBlock: PAMTOO_clean_linker_0, # of connection points: 3
#     Node 5, Type 1, BuildingBlock: PAMTOO_clean_linker_0, # of connection points: 3
#     Node 6, Type 1, BuildingBlock: PAMTOO_clean_linker_0, # of connection points: 3
#     Node 7, Type 1, BuildingBlock: PAMTOO_clean_linker_0, # of connection points: 3
#     Node 8, Type 1, BuildingBlock: PAMTOO_clean_linker_0, # of connection points: 3
#     Node 9, Type 1, BuildingBlock: PAMTOO_clean_linker_0, # of connection points: 3
#     Edge 10, Type (0, 1), BuildingBlock: AJUNOK_clean_linker_0, # of connection points: 2
#     Edge 11, Type (0, 1), BuildingBlock: AJUNOK_clean_linker_0, # of connection points: 2
#     Edge 12, Type (0, 1), BuildingBlock: AJUNOK_clean_linker_0, # of connection points: 2
#     Edge 13, Type (0, 1), BuildingBlock: AJUNOK_clean_linker_0, # of connection points: 2
#     Edge 14, Type (0, 1), BuildingBlock: AJUNOK_clean_linker_0, # of connection points: 2
#     Edge 15, Type (0, 1), BuildingBlock: AJUNOK_clean_linker_0, # of connection points: 2
#     Edge 16, Type (0, 1), BuildingBlock: AJUNOK_clean_linker_0, # of connection points: 2
#     Edge 17, Type (0, 1), BuildingBlock: AJUNOK_clean_linker_0, # of connection points: 2
#     Edge 18, Type (0, 1), BuildingBlock: AJUNOK_clean_linker_0, # of connection points: 2
#     Edge 19, Type (0, 1), BuildingBlock: AJUNOK_clean_linker_0, # of connection points: 2
#     Edge 20, Type (0, 1), BuildingBlock: AJUNOK_clean_linker_0, # of connection points: 2
#     Edge 21, Type (0, 1), BuildingBlock: AJUNOK_clean_linker_0, # of connection points: 2
#     Edge 22, Type (0, 1), BuildingBlock: AJUNOK_clean_linker_0, # of connection points: 2
#     Edge 23, Type (0, 1), BuildingBlock: AJUNOK_clean_linker_0, # of connection points: 2
#     Edge 24, Type (0, 1), BuildingBlock: AJUNOK_clean_linker_0, # of connection points: 2
#     Edge 25, Type (0, 1), BuildingBlock: AJUNOK_clean_linker_0, # of connection points: 2
#     Edge 26, Type (0, 1), BuildingBlock: AJUNOK_clean_linker_0, # of connection points: 2
#     Edge 27, Type (0, 1), BuildingBlock: AJUNOK_clean_linker_0, # of connection points: 2
#     Edge 28, Type (0, 1), BuildingBlock: AJUNOK_clean_linker_0, # of connection points: 2
#     Edge 29, Type (0, 1), BuildingBlock: AJUNOK_clean_linker_0, # of connection points: 2
#     Edge 30, Type (0, 1), BuildingBlock: AJUNOK_clean_linker_0, # of connection points: 2
#     Edge 31, Type (0, 1), BuildingBlock: AJUNOK_clean_linker_0, # of connection points: 2
#     Edge 32, Type (0, 1), BuildingBlock: AJUNOK_clean_linker_0, # of connection points: 2
#     Edge 33, Type (0, 1), BuildingBlock: AJUNOK_clean_linker_0, # of connection points: 2
# Relax obj value: 0.010
# Max RMSD: 0.095
# Mean RMSD: 0.080
data_MOF--net-llj--node1-QEWDON_clean_sbu_0--node2-PAMTOO_clean_linker_0--edge1-AJUNOK_clean_linker_0
_symmetry_space_group_name_H-M    P1
_symmetry_Int_Tables_number       1
_symmetry_cell_setting            triclinic
loop_
_symmetry_equiv_pos_as_xyz
'x, y, z'
_cell_length_a     30.560433
_cell_length_b     30.581665
_cell_length_c     18.56515
_cell_angle_alpha  91.525243
_cell_angle_beta   90.142939
_cell_angle_gamma 89.556188
loop_
_atom_site_label
_atom_site_type_symbol
_atom_site_fract_x
_atom_site_fract_y
_atom_site_fract_z
_atom_type_partial_charge
Zn0 Zn 0.93502 0.08306 0.93243 0.0
Zn1 Zn 0.93785 0.08674 0.10042 0.0
O2 O 0.97541 0.07316 0.01636 0.0
H3 H -0.00218 0.05075 0.01554 0.0
C4 C 0.87644 0.00499 0.82407 0.0
O5 O 0.87454 0.02656 0.8861 0.0
Zn6 Zn 0.05125 0.90986 0.10439 0.0
Zn7 Zn 0.05564 0.89717 0.93385 0.0
O8 O 0.01585 0.91728 0.01481 0.0
H9 H 0.9941 0.93998 0.00882 0.0
Zn10 Zn 0.89295 0.9352 0.92304 0.0
O11 O 0.90899 0.97471 0.0076 0.0
Zn12 Zn 0.89818 0.93985 0.09555 0.0
H13 H 0.93062 -0.00268 0.00325 0.0
Zn14 Zn 0.13356 0.04048 0.93911 0.0
O15 O 0.08371 0.02503 0.00557 0.0
H16 H 0.06147 0.00325 -0.00339 0.0
Zn17 Zn 0.09455 0.06105 0.09593 0.0
C18 C 0.1388 0.96763 0.82814 0.0
O19 O 0.12707 0.94315 0.88173 0.0
O20 O 0.88088 0.12046 0.9573 0.0
O21 O 0.88742 0.12778 0.07607 0.0
O22 O 0.10926 0.8623 0.96721 0.0
O23 O 0.10271 0.86813 0.08642 0.0
O24 O 0.85386 0.88423 0.9518 0.0
O25 O 0.8575 0.88919 0.07155 0.0
C26 C 0.01652 0.10693 0.18283 0.0
O27 O 0.16093 0.101 0.96116 0.0
O28 O 0.13562 0.11235 0.07246 0.0
O29 O 0.02774 0.88266 0.83439 0.0
C30 C 0.86767 0.13653 0.01738 0.0
O31 O 0.9656 0.09681 0.83783 0.0
C32 C 0.97124 0.89738 0.18038 0.0
O33 O 0.88375 0.96405 0.82402 0.0
C34 C 0.12261 0.85338 0.03026 0.0
O35 O 0.14326 0.00851 0.8396 0.0
C36 C 0.88583 0.01825 0.1751 0.0
O37 O 0.97527 0.11236 0.17884 0.0
O38 O 0.03551 0.08533 0.13176 0.0
C39 C 0.8431 0.87078 0.01365 0.0
O40 O 0.01186 0.88838 0.18385 0.0
O41 O 0.95725 0.91832 0.12681 0.0
C42 C 0.10453 0.98148 0.17319 0.0
O43 O 0.87243 0.97906 0.17389 0.0
O44 O 0.91282 0.0293 0.12729 0.0
C45 C 0.15811 0.12452 0.01867 0.0
O46 O 0.11953 0.02004 0.17082 0.0
O47 O 0.07597 0.96951 0.12709 0.0
C48 C 0.98659 0.87735 0.83149 0.0
O49 O 0.96387 0.88119 0.89132 0.0
C50 C 0.00677 0.10185 0.83899 0.0
O51 O 0.02808 0.09696 0.89977 0.0
Zn52 Zn 0.45699 0.58342 0.45077 0.0
Zn53 Zn 0.44063 0.58481 0.62015 0.0
O54 O 0.48148 0.56239 0.54405 0.0
H55 H 0.49892 0.53605 0.54752 0.0
C56 C 0.38258 0.50996 0.33954 0.0
O57 O 0.39515 0.53153 0.39787 0.0
Zn58 Zn 0.55354 0.41037 0.62318 0.0
Zn59 Zn 0.55413 0.40353 0.44981 0.0
O60 O 0.52037 0.42832 0.53515 0.0
H61 H 0.50045 0.45292 0.53265 0.0
Zn62 Zn 0.39071 0.43824 0.43728 0.0
O63 O 0.40496 0.47794 0.5227 0.0
Zn64 Zn 0.39581 0.44072 0.60712 0.0
H65 H 0.42547 0.50166 0.52079 0.0
Zn66 Zn 0.59922 0.55889 0.44964 0.0
O67 O 0.58691 0.52162 0.53477 0.0
H68 H 0.57261 0.49364 0.53219 0.0
Zn69 Zn 0.59614 0.55969 0.62168 0.0
C70 C 0.62546 0.48572 0.35584 0.0
O71 O 0.61928 0.46433 0.41529 0.0
O72 O 0.406 0.62775 0.46088 0.0
O73 O 0.39743 0.63007 0.57975 0.0
O74 O 0.59817 0.35589 0.47766 0.0
O75 O 0.59522 0.35869 0.59746 0.0
O76 O 0.34791 0.39005 0.46377 0.0
O77 O 0.35332 0.3923 0.58316 0.0
C78 C 0.51804 0.59926 0.70753 0.0
O79 O 0.63216 0.61482 0.47717 0.0
O80 O 0.63503 0.61201 0.59671 0.0
O81 O 0.52222 0.39532 0.35161 0.0
C82 C 0.38647 0.64258 0.51704 0.0
O83 O 0.49824 0.58408 0.36311 0.0
C84 C 0.46854 0.40158 0.6917 0.0
O85 O 0.37843 0.46876 0.34158 0.0
C86 C 0.60995 0.3416 0.53858 0.0
O87 O 0.61902 0.52678 0.35632 0.0
C88 C 0.37978 0.51683 0.69545 0.0
O89 O 0.47709 0.60674 0.70489 0.0
O90 O 0.53611 0.5815 0.65229 0.0
C91 C 0.33673 0.37636 0.52519 0.0
O92 O 0.50903 0.39332 0.69884 0.0
O93 O 0.45514 0.41876 0.63429 0.0
C94 C 0.61329 0.48191 0.70468 0.0
O95 O 0.36995 0.47673 0.68794 0.0
O96 O 0.40653 0.53216 0.65031 0.0
C97 C 0.64496 0.63041 0.53786 0.0
O98 O 0.62272 0.52217 0.69877 0.0
O99 O 0.58699 0.46491 0.65843 0.0
C100 C 0.48187 0.38576 0.34954 0.0
O101 O 0.4605 0.38252 0.41046 0.0
C102 C 0.52949 0.61112 0.36597 0.0
O103 O 0.53408 0.6362 0.42401 0.0
H104 H 0.42808 0.38794 0.01331 0.0
H105 H 0.34539 0.30185 0.1307 0.0
H106 H 0.32408 0.31781 0.90495 0.0
H107 H 0.24274 0.31324 0.00287 0.0
C108 C 0.25611 0.28787 0.0389 0.0
O109 O 0.29857 0.27749 0.01976 0.0
H110 H 0.25537 0.30161 0.09501 0.0
C111 C 0.40055 0.36599 0.01467 0.0
C112 C 0.37766 0.3556 0.95057 0.0
C113 C 0.38917 0.34715 0.08027 0.0
C114 C 0.35413 0.31771 0.0813 0.0
C115 C 0.33063 0.30762 0.01842 0.0
C116 C 0.34217 0.32661 0.95341 0.0
H117 H 0.65113 0.44769 0.02496 0.0
H118 H 0.72122 0.34748 0.13793 0.0
H119 H 0.7147 0.34224 0.90723 0.0
H120 H 0.69888 0.25778 0.98468 0.0
C121 C 0.72345 0.26284 0.0284 0.0
O122 O 0.74324 0.30289 0.02206 0.0
H123 H 0.70586 0.26168 0.08075 0.0
C124 C 0.67117 0.41825 0.02463 0.0
C125 C 0.68226 0.39783 0.9587 0.0
C126 C 0.6842 0.39998 0.08989 0.0
C127 C 0.70967 0.36154 0.08835 0.0
C128 C 0.72003 0.34056 0.0227 0.0
C129 C 0.70637 0.35862 0.9579 0.0
H130 H 0.57603 0.60097 0.04252 0.0
H131 H 0.66459 0.67658 0.91626 0.0
H132 H 0.68398 0.66846 0.14344 0.0
H133 H 0.68383 0.75386 0.08994 0.0
C134 C 0.6994 0.74836 0.03623 0.0
O135 O 0.71 0.70469 0.02646 0.0
H136 H 0.67521 0.75837 -0.00526 0.0
C137 C 0.60475 0.62122 0.03854 0.0
C138 C 0.62712 0.63423 0.10181 0.0
C139 C 0.61782 0.63612 0.97078 0.0
C140 C 0.65495 0.66278 0.96694 0.0
C141 C 0.67837 0.67429 0.02923 0.0
C142 C 0.66548 0.65878 0.09588 0.0
H143 H 0.35332 0.55449 0.01451 0.0
H144 H 0.28976 0.65312 0.1473 0.0
H145 H 0.2815 0.65937 0.91692 0.0
H146 H 0.29823 0.74406 0.0022 0.0
C147 C 0.27505 0.73804 0.04699 0.0
O148 O 0.25796 0.69663 0.03975 0.0
H149 H 0.29353 0.74137 0.09853 0.0
C150 C 0.33342 0.58396 0.01945 0.0
C151 C 0.31874 0.60471 0.95744 0.0
C152 C 0.32344 0.60134 0.08784 0.0
C153 C 0.29828 0.63971 0.09449 0.0
C154 C 0.28346 0.66063 0.03288 0.0
C155 C 0.2937 0.64328 0.96433 0.0
H156 H 0.93295 0.87362 0.49548 0.0
H157 H 0.84833 0.79146 0.61749 0.0
H158 H 0.82897 0.80239 0.38987 0.0
H159 H 0.74632 0.80571 0.48404 0.0
C160 C 0.75828 0.7834 0.52634 0.0
O161 O 0.79953 0.76804 0.50857 0.0
H162 H 0.75935 0.80257 0.5781 0.0
C163 C 0.90567 0.85131 0.49811 0.0
C164 C 0.88283 0.83985 0.43463 0.0
C165 C 0.89393 0.83383 0.5645 0.0
C166 C 0.858 0.80554 0.56705 0.0
C167 C 0.83424 0.79493 0.50461 0.0
C168 C 0.847 0.8115 0.43825 0.0
H169 H 0.13635 0.93049 0.4876 0.0
H170 H 0.22006 0.83707 0.59042 0.0
H171 H 0.21014 0.83636 0.35995 0.0
H172 H 0.22224 0.74782 0.41288 0.0
C173 C 0.23495 0.75623 0.46767 0.0
O174 O 0.24714 0.79955 0.47048 0.0
H175 H 0.20807 0.75049 0.50655 0.0
C176 C 0.15856 0.90274 0.48382 0.0
C177 C 0.16994 0.8849 0.41573 0.0
C178 C 0.17651 0.88596 0.54719 0.0
C179 C 0.20557 0.85027 0.54221 0.0
C180 C 0.21756 0.83255 0.47474 0.0
C181 C 0.20015 0.85006 0.41173 0.0
H182 H 0.04962 0.12801 0.51033 0.0
H183 H 0.14545 0.20918 0.41082 0.0
H184 H 0.14052 0.20275 0.64061 0.0
H185 H 0.15841 0.28704 0.59426 0.0
C186 C 0.17446 0.27984 0.54148 0.0
O187 O 0.18109 0.23555 0.53225 0.0
H188 H 0.15238 0.29212 0.49853 0.0
C189 C 0.07657 0.1508 0.51497 0.0
C190 C 0.09276 0.16302 0.58315 0.0
C191 C 0.0953 0.1672 0.45254 0.0
C192 C 0.13088 0.19574 0.45848 0.0
C193 C 0.14728 0.2078 0.52638 0.0
C194 C 0.1282 0.19179 0.58847 0.0
H195 H 0.87549 0.06391 0.48804 0.0
H196 H 0.79213 0.16256 0.39804 0.0
H197 H 0.79383 0.1454 0.62626 0.0
H198 H 0.70898 0.15963 0.56571 0.0
C199 C 0.71689 0.18246 0.52204 0.0
O200 O 0.76114 0.19091 0.52236 0.0
H201 H 0.7075 0.16615 0.47 0.0
C202 C 0.85183 0.0902 0.49558 0.0
C203 C 0.83655 0.10142 0.56509 0.0
C204 C 0.83541 0.11155 0.43501 0.0
C205 C 0.80521 0.14597 0.44436 0.0
C206 C 0.79101 0.15847 0.51353 0.0
C207 C 0.80652 0.13627 0.57348 0.0
C208 C 0.19965 0.18174 0.08908 0.0
C209 C 0.18148 0.16687 0.02324 0.0
C210 C 0.22326 0.22092 0.09399 0.0
C211 C 0.2288 0.24707 0.03352 0.0
H212 H 0.19656 0.16246 0.13678 0.0
H213 H 0.23755 0.2307 0.14534 0.0
S214 S 0.18591 0.22426 0.84964 0.0
N215 N 0.16929 0.18261 0.89705 0.0
N216 N 0.21395 0.25585 0.90626 0.0
C217 C 0.2105 0.2329 0.96767 0.0
C218 C 0.18665 0.19299 0.96258 0.0
C219 C 0.81447 0.18498 0.08494 0.0
C220 C 0.82934 0.16675 0.01882 0.0
C221 C 0.77968 0.21509 0.08768 0.0
C222 C 0.75809 0.22772 0.02458 0.0
H223 H 0.83017 0.1765 0.13511 0.0
H224 H 0.76993 0.22904 0.13949 0.0
S225 S 0.7834 0.19007 0.83784 0.0
N226 N 0.81891 0.16375 0.88833 0.0
N227 N 0.75374 0.22047 0.89432 0.0
C228 C 0.77219 0.20976 0.95826 0.0
C229 C 0.80761 0.17911 0.95519 0.0
C230 C 0.79245 0.82561 0.08616 0.0
C231 C 0.81039 0.83539 0.01866 0.0
C232 C 0.75769 0.79637 0.09176 0.0
C233 C 0.73958 0.7759 0.03013 0.0
H234 H 0.80425 0.84171 0.13504 0.0
H235 H 0.74403 0.79079 0.14448 0.0
S236 S 0.77772 0.78532 0.84205 0.0
N237 N 0.8098 0.81847 0.88943 0.0
N238 N 0.74423 0.7637 0.90075 0.0
C239 C 0.75862 0.78322 0.96295 0.0
C240 C 0.79405 0.81296 0.95699 0.0
C241 C 0.18709 0.81428 0.97565 0.0
C242 C 0.16229 0.8255 0.03748 0.0
C243 C 0.22401 0.78713 0.97964 0.0
C244 C 0.23791 0.77046 0.04562 0.0
H245 H 0.17782 0.82619 0.9233 0.0
H246 H 0.24153 0.77861 0.9305 0.0
S247 S 0.18461 0.78853 0.22311 0.0
N248 N 0.15449 0.8171 0.16702 0.0
N249 N 0.22396 0.76577 0.17382 0.0
C250 C 0.2137 0.78122 0.10788 0.0
C251 C 0.17602 0.80897 0.10405 0.0
C252 C 0.67957 0.69202 0.4733 0.0
C253 C 0.67262 0.67026 0.53836 0.0
C254 C 0.70666 0.7286 0.47036 0.0
C255 C 0.7277 0.74526 0.53235 0.0
H256 H 0.66428 0.68058 0.42366 0.0
H257 H 0.71142 0.74386 0.41898 0.0
S258 S 0.72151 0.70076 0.71592 0.0
N259 N 0.68966 0.66843 0.66652 0.0
N260 N 0.74084 0.73724 0.66043 0.0
C261 C 0.72135 0.72407 0.59775 0.0
C262 C 0.6936 0.68673 0.60096 0.0
C263 C 0.34318 0.69476 0.44261 0.0
C264 C 0.34888 0.67321 0.50819 0.0
C265 C 0.30664 0.72157 0.43048 0.0
C266 C 0.27419 0.7278 0.48328 0.0
H267 H 0.36706 0.69081 0.39995 0.0
H268 H 0.30347 0.73728 0.37908 0.0
S269 S 0.27338 0.68002 0.66479 0.0
N270 N 0.31855 0.66053 0.62692 0.0
N271 N 0.25051 0.71175 0.6045 0.0
C272 C 0.27977 0.70746 0.5497 0.0
C273 C 0.3169 0.67994 0.56202 0.0
C274 C 0.27316 0.33845 0.46771 0.0
C275 C 0.29911 0.34637 0.5295 0.0
C276 C 0.23329 0.31665 0.47205 0.0
C277 C 0.21781 0.30215 0.53826 0.0
H278 H 0.28276 0.35058 0.41583 0.0
H279 H 0.21392 0.31196 0.42352 0.0
S280 S 0.27587 0.30798 0.7137 0.0
N281 N 0.30844 0.33322 0.65767 0.0
N282 N 0.23325 0.29201 0.66512 0.0
C283 C 0.24449 0.30708 0.59952 0.0
C284 C 0.28517 0.32933 0.59534 0.0
C285 C 0.66415 0.29167 0.47698 0.0
C286 C 0.63991 0.30304 0.53933 0.0
C287 C 0.68946 0.25332 0.47269 0.0
C288 C 0.69157 0.22473 0.53051 0.0
H289 H 0.6632 0.31227 0.4305 0.0
H290 H 0.70692 0.24549 0.42322 0.0
S291 S 0.63706 0.24015 0.70764 0.0
N292 N 0.62138 0.28294 0.66138 0.0
N293 N 0.66975 0.21131 0.65364 0.0
C294 C 0.66912 0.23634 0.59424 0.0
C295 C 0.64311 0.27537 0.59857 0.0
C296 C 0.01338 0.14312 0.30456 0.0
C297 C 0.0392 0.12429 0.24866 0.0
C298 C 0.03189 0.15771 0.36958 0.0
C299 C 0.07707 0.15432 0.38161 0.0
H300 H 0.97821 0.14615 0.29897 0.0
H301 H 0.01058 0.17144 0.41106 0.0
S302 S 0.1599 0.10936 0.25456 0.0
N303 N 0.11305 0.10528 0.21062 0.0
N304 N 0.14757 0.13152 0.33387 0.0
C305 C 0.10356 0.13665 0.32661 0.0
C306 C 0.08469 0.1219 0.25999 0.0
C307 C 0.90326 0.06915 0.27749 0.0
C308 C 0.87171 0.0489 0.23299 0.0
C309 C 0.89115 0.0915 0.34136 0.0
C310 C 0.84703 0.0947 0.36213 0.0
H311 H 0.9377 0.06444 0.26625 0.0
H312 H 0.91656 0.10462 0.37635 0.0
S313 S 0.7519 0.0493 0.26197 0.0
N314 N 0.79463 0.03479 0.21226 0.0
N315 N 0.77161 0.07746 0.33179 0.0
C316 C 0.81504 0.07638 0.31627 0.0
C317 C 0.82747 0.05316 0.25185 0.0
C318 C 0.93245 0.84002 0.24759 0.0
C319 C 0.94198 0.88442 0.23881 0.0
C320 C 0.91058 0.82603 0.30922 0.0
C321 C 0.89841 0.85597 0.36459 0.0
H322 H 0.94331 0.81581 0.20774 0.0
H323 H 0.90534 0.79133 0.31539 0.0
S324 S 0.9152 0.97576 0.36653 0.0
N325 N 0.9367 0.95829 0.28928 0.0
N326 N 0.89568 0.93206 0.40512 0.0
C327 C 0.90639 0.90061 0.35501 0.0
C328 C 0.92819 0.91485 0.29205 0.0
C329 C 0.16403 0.94008 0.23454 0.0
C330 C 0.11967 0.95203 0.22976 0.0
C331 C 0.17979 0.91634 0.2931 0.0
C332 C 0.15175 0.90444 0.34934 0.0
H333 H 0.18684 0.95002 0.19361 0.0
H334 H 0.21447 0.90898 0.29593 0.0
S335 S 0.0328 0.92799 0.36132 0.0
N336 N 0.04809 0.9507 0.28575 0.0
N337 N 0.07712 0.90472 0.3943 0.0
C338 C 0.10705 0.91516 0.34366 0.0
C339 C 0.09115 0.93937 0.2843 0.0
C340 C 0.1433 0.90212 0.74368 0.0
C341 C 0.14783 0.9476 0.75564 0.0
C342 C 0.15267 0.8823 0.67629 0.0
C343 C 0.16654 0.90723 0.61814 0.0
H344 H 0.13261 0.88151 0.7867 0.0
H345 H 0.14866 0.84727 0.66945 0.0
S346 S 0.18467 0.02702 0.62058 0.0
N347 N 0.16778 0.01665 0.70266 0.0
N348 N 0.18544 0.97935 0.57692 0.0
C349 C 0.17119 0.95257 0.62912 0.0
C350 C 0.16181 0.97274 0.69756 0.0
C351 C 0.00525 0.13126 0.71524 0.0
C352 C 0.02969 0.1159 0.77382 0.0
C353 C 0.02593 0.14644 0.65387 0.0
C354 C 0.0718 0.14642 0.64846 0.0
H355 H 0.96981 0.13233 0.71709 0.0
H356 H 0.0058 0.15891 0.61076 0.0
S357 S 0.1507 0.10702 0.78423 0.0
N358 N 0.1023 0.1004 0.82148 0.0
N359 N 0.14103 0.1277 0.70464 0.0
C360 C 0.09663 0.13036 0.7058 0.0
C361 C 0.07562 0.11534 0.76878 0.0
C362 C 0.86849 0.07432 0.75688 0.0
C363 C 0.86902 0.02828 0.75596 0.0
C364 C 0.8594 0.09754 0.69455 0.0
C365 C 0.84994 0.07575 0.6287 0.0
H366 H 0.87481 0.09279 0.80633 0.0
H367 H 0.85938 0.13295 0.69825 0.0
S368 S 0.84719 0.95522 0.5971 0.0
N369 N 0.86034 0.96158 0.683 0.0
N370 N 0.84154 0.00513 0.56647 0.0
C371 C 0.85098 0.02962 0.62664 0.0
C372 C 0.86087 0.00594 0.69006 0.0
C373 C 0.91824 0.86571 0.7596 0.0
C374 C 0.96426 0.86675 0.76223 0.0
C375 C 0.89597 0.85538 0.69552 0.0
C376 C 0.91872 0.84526 0.63137 0.0
H377 H 0.89904 0.87302 0.80743 0.0
H378 H 0.86052 0.85569 0.69621 0.0
S379 S 0.03954 0.84153 0.60956 0.0
N380 N 0.03199 0.85628 0.69482 0.0
N381 N 0.99009 0.83536 0.57498 0.0
C382 C 0.9648 0.84584 0.63317 0.0
C383 C 0.98755 0.85687 0.69838 0.0
C384 C 0.58878 0.60919 0.77516 0.0
C385 C 0.54281 0.60932 0.77492 0.0
C386 C 0.61261 0.61703 0.83869 0.0
C387 C 0.59146 0.62654 0.90462 0.0
H388 H 0.60675 0.60342 0.72596 0.0
H389 H 0.648 0.61561 0.83594 0.0
S390 S 0.47118 0.63454 0.93253 0.0
N391 N 0.47682 0.62054 0.84665 0.0
N392 N 0.52141 0.63884 0.96452 0.0
C393 C 0.54536 0.62817 0.90487 0.0
C394 C 0.52113 0.61894 0.84048 0.0
C395 C 0.33748 0.51962 0.80984 0.0
C396 C 0.36138 0.5423 0.75791 0.0
C397 C 0.32234 0.54053 0.87277 0.0
C398 C 0.32997 0.58516 0.8863 0.0
H399 H 0.33153 0.48486 0.80339 0.0
H400 H 0.30537 0.52133 0.91204 0.0
S401 S 0.38631 0.66106 0.76615 0.0
N402 N 0.38821 0.61324 0.72276 0.0
N403 N 0.36029 0.65234 0.84209 0.0
C404 C 0.35174 0.60893 0.83401 0.0
C405 C 0.36734 0.58755 0.76963 0.0
C406 C 0.41996 0.35213 0.75814 0.0
C407 C 0.43877 0.39347 0.75166 0.0
C408 C 0.39795 0.34106 0.82121 0.0
C409 C 0.39405 0.37104 0.88002 0.0
H410 H 0.42406 0.32751 0.71557 0.0
H411 H 0.38615 0.30792 0.82529 0.0
S412 S 0.43472 0.48534 0.88545 0.0
N413 N 0.45062 0.46532 0.80617 0.0
N414 N 0.40743 0.4457 0.92359 0.0
C415 C 0.41065 0.41355 0.87186 0.0
C416 C 0.43356 0.42445 0.80797 0.0
C417 C 0.6621 0.47953 0.81278 0.0
C418 C 0.6324 0.45766 0.76608 0.0
C419 C 0.67886 0.45967 0.87416 0.0
C420 C 0.6669 0.41701 0.8911 0.0
H421 H 0.67209 0.51273 0.80281 0.0
H422 H 0.70097 0.47797 0.90908 0.0
S423 S 0.58954 0.34578 0.79092 0.0
N424 N 0.59211 0.39052 0.74334 0.0
N425 N 0.62312 0.35377 0.85952 0.0
C426 C 0.63787 0.39447 0.84546 0.0
C427 C 0.62079 0.41463 0.78275 0.0
C428 C 0.65807 0.48703 0.23291 0.0
C429 C 0.6407 0.46277 0.28934 0.0
C430 C 0.67269 0.4664 0.1692 0.0
C431 C 0.67013 0.42075 0.15912 0.0
H432 H 0.66077 0.52228 0.23803 0.0
H433 H 0.68623 0.4864 0.12755 0.0
S434 S 0.62504 0.34248 0.28846 0.0
N435 N 0.62106 0.39061 0.33038 0.0
N436 N 0.64705 0.35204 0.20941 0.0
C437 C 0.65245 0.39609 0.21474 0.0
C438 C 0.63807 0.41705 0.28008 0.0
C439 C 0.56219 0.58203 0.25088 0.0
C440 C 0.55825 0.61616 0.30285 0.0
C441 C 0.58651 0.58723 0.18783 0.0
C442 C 0.60704 0.62711 0.17354 0.0
H443 H 0.54607 0.55108 0.25866 0.0
H444 H 0.58846 0.56006 0.1493 0.0
S445 S 0.60579 0.72703 0.29233 0.0
N446 N 0.5776 0.69083 0.33691 0.0
N447 N 0.62107 0.70167 0.21689 0.0
C448 C 0.60383 0.66132 0.22584 0.0
C449 C 0.57993 0.65561 0.29076 0.0
C450 C 0.34376 0.51238 0.22142 0.0
C451 C 0.36962 0.53356 0.27439 0.0
C452 C 0.32883 0.53464 0.16121 0.0
C453 C 0.3392 0.57879 0.15202 0.0
H454 H 0.33431 0.47856 0.22694 0.0
H455 H 0.30862 0.51738 0.12193 0.0
S456 S 0.41027 0.64757 0.26937 0.0
N457 N 0.40794 0.60026 0.30995 0.0
N458 N 0.37952 0.64197 0.19654 0.0
C459 C 0.36593 0.60005 0.20309 0.0
C460 C 0.38129 0.57742 0.26434 0.0
C461 C 0.41343 0.37464 0.27735 0.0
C462 C 0.45937 0.377 0.27972 0.0
C463 C 0.39118 0.36559 0.21266 0.0
C464 C 0.41394 0.35764 0.14773 0.0
H465 H 0.3943 0.37994 0.32584 0.0
H466 H 0.35575 0.36493 0.21359 0.0
S467 S 0.53478 0.3571 0.12542 0.0
N468 N 0.52705 0.36992 0.21138 0.0
N469 N 0.48541 0.35056 0.09069 0.0
C470 C 0.46 0.35929 0.14942 0.0
C471 C 0.48264 0.36944 0.21513 0.0
loop_
_geom_bond_atom_site_label_1
_geom_bond_atom_site_label_2
_geom_bond_distance
_geom_bond_site_symmetry_2
_ccdc_geom_bond_type
Zn0 O2 1.933 1_556 S
Zn0 O20 1.985 . S
Zn0 O31 1.955 . S
Zn1 O2 1.911 . S
Zn1 O21 1.970 . S
Zn1 O37 1.945 . S
Zn1 O44 1.981 . S
O2 Zn0 1.933 1_554 S
O2 Zn1 1.911 . S
O2 H3 0.841 1_655 S
H3 O2 0.841 1_455 S
C4 O5 1.246 . S
C4 O33 1.276 1_545 S
O5 C4 1.246 . S
Zn6 O8 1.911 . S
Zn6 O23 1.970 . S
Zn6 O40 1.945 . S
Zn6 O47 1.981 . S
Zn7 O8 1.933 1_556 S
Zn7 O22 1.985 . S
Zn7 O29 1.955 . S
O8 Zn6 1.911 . S
O8 Zn7 1.933 1_554 S
O8 H9 0.841 1_455 S
H9 O8 0.841 1_655 S
Zn10 O11 1.933 1_556 S
Zn10 O24 1.985 . S
Zn10 O33 1.955 . S
O11 Zn10 1.933 1_554 S
O11 Zn12 1.911 . S
O11 H13 0.841 1_565 S
Zn12 O11 1.911 . S
Zn12 O25 1.970 . S
Zn12 O41 1.981 . S
Zn12 O43 1.945 . S
H13 O11 0.841 1_545 S
Zn14 O15 1.933 1_556 S
Zn14 O27 1.985 . S
Zn14 O35 1.955 . S
O15 Zn14 1.933 1_554 S
O15 H16 0.841 1_545 S
O15 Zn17 1.911 . S
H16 O15 0.841 1_565 S
Zn17 O15 1.911 . S
Zn17 O28 1.970 . S
Zn17 O38 1.981 . S
Zn17 O46 1.945 . S
C18 O19 1.246 . S
C18 O35 1.276 1_565 S
O19 C18 1.246 . S
O20 Zn0 1.985 . S
O20 C30 1.245 1_556 S
O21 Zn1 1.970 . S
O21 C30 1.263 . S
O22 Zn7 1.985 . S
O22 C34 1.245 1_556 S
O23 Zn6 1.970 . S
O23 C34 1.263 . S
O24 Zn10 1.985 . S
O24 C39 1.245 1_556 S
O25 Zn12 1.970 . S
O25 C39 1.263 . S
C26 O37 1.262 1_455 S
C26 O38 1.245 . S
O27 Zn14 1.985 . S
O27 C45 1.245 1_556 S
O28 Zn17 1.970 . S
O28 C45 1.263 . S
O29 Zn7 1.955 . S
O29 C48 1.276 1_455 S
C30 O20 1.245 1_554 S
C30 O21 1.263 . S
O31 Zn0 1.955 . S
O31 C50 1.276 1_655 S
C32 O40 1.262 1_655 S
C32 O41 1.245 . S
O33 C4 1.276 1_565 S
O33 Zn10 1.955 . S
C34 O22 1.245 1_554 S
C34 O23 1.263 . S
O35 Zn14 1.955 . S
O35 C18 1.276 1_545 S
C36 O43 1.262 1_545 S
C36 O44 1.245 . S
O37 Zn1 1.945 . S
O37 C26 1.262 1_655 S
O38 Zn17 1.981 . S
O38 C26 1.245 . S
C39 O24 1.245 1_554 S
C39 O25 1.263 . S
O40 Zn6 1.945 . S
O40 C32 1.262 1_455 S
O41 Zn12 1.981 . S
O41 C32 1.245 . S
C42 O46 1.262 1_565 S
C42 O47 1.245 . S
O43 Zn12 1.945 . S
O43 C36 1.262 1_565 S
O44 Zn1 1.981 . S
O44 C36 1.245 . S
C45 O27 1.245 1_554 S
C45 O28 1.263 . S
O46 Zn17 1.945 . S
O46 C42 1.262 1_545 S
O47 Zn6 1.981 . S
O47 C42 1.245 . S
C48 O29 1.276 1_655 S
C48 O49 1.246 . S
O49 C48 1.246 . S
C50 O31 1.276 1_455 S
C50 O51 1.246 . S
O51 C50 1.246 . S
Zn52 O54 1.933 . S
Zn52 O72 1.985 . S
Zn52 O83 1.955 . S
Zn53 O54 1.911 . S
Zn53 O73 1.970 . S
Zn53 O89 1.945 . S
Zn53 O96 1.981 . S
O54 Zn52 1.933 . S
O54 Zn53 1.911 . S
O54 H55 0.841 . S
H55 O54 0.841 . S
C56 O57 1.246 . S
C56 O85 1.276 . S
O57 C56 1.246 . S
Zn58 O60 1.911 . S
Zn58 O75 1.970 . S
Zn58 O92 1.945 . S
Zn58 O99 1.981 . S
Zn59 O60 1.933 . S
Zn59 O74 1.985 . S
Zn59 O81 1.955 . S
O60 Zn58 1.911 . S
O60 Zn59 1.933 . S
O60 H61 0.841 . S
H61 O60 0.841 . S
Zn62 O63 1.933 . S
Zn62 O76 1.985 . S
Zn62 O85 1.955 . S
O63 Zn62 1.933 . S
O63 Zn64 1.911 . S
O63 H65 0.841 . S
Zn64 O63 1.911 . S
Zn64 O77 1.970 . S
Zn64 O93 1.981 . S
Zn64 O95 1.945 . S
H65 O63 0.841 . S
Zn66 O67 1.933 . S
Zn66 O79 1.985 . S
Zn66 O87 1.955 . S
O67 Zn66 1.933 . S
O67 H68 0.841 . S
O67 Zn69 1.911 . S
H68 O67 0.841 . S
Zn69 O67 1.911 . S
Zn69 O80 1.970 . S
Zn69 O90 1.981 . S
Zn69 O98 1.945 . S
C70 O71 1.246 . S
C70 O87 1.276 . S
O71 C70 1.246 . S
O72 Zn52 1.985 . S
O72 C82 1.245 . S
O73 Zn53 1.970 . S
O73 C82 1.263 . S
O74 Zn59 1.985 . S
O74 C86 1.245 . S
O75 Zn58 1.970 . S
O75 C86 1.263 . S
O76 Zn62 1.985 . S
O76 C91 1.245 . S
O77 Zn64 1.970 . S
O77 C91 1.263 . S
C78 O89 1.262 . S
C78 O90 1.245 . S
O79 Zn66 1.985 . S
O79 C97 1.245 . S
O80 Zn69 1.970 . S
O80 C97 1.263 . S
O81 Zn59 1.955 . S
O81 C100 1.276 . S
C82 O72 1.245 . S
C82 O73 1.263 . S
O83 Zn52 1.955 . S
O83 C102 1.276 . S
C84 O92 1.262 . S
C84 O93 1.245 . S
O85 C56 1.276 . S
O85 Zn62 1.955 . S
C86 O74 1.245 . S
C86 O75 1.263 . S
O87 Zn66 1.955 . S
O87 C70 1.276 . S
C88 O95 1.262 . S
C88 O96 1.245 . S
O89 Zn53 1.945 . S
O89 C78 1.262 . S
O90 Zn69 1.981 . S
O90 C78 1.245 . S
C91 O76 1.245 . S
C91 O77 1.263 . S
O92 Zn58 1.945 . S
O92 C84 1.262 . S
O93 Zn64 1.981 . S
O93 C84 1.245 . S
C94 O98 1.262 . S
C94 O99 1.245 . S
O95 Zn64 1.945 . S
O95 C88 1.262 . S
O96 Zn53 1.981 . S
O96 C88 1.245 . S
C97 O79 1.245 . S
C97 O80 1.263 . S
O98 Zn69 1.945 . S
O98 C94 1.262 . S
O99 Zn58 1.981 . S
O99 C94 1.245 . S
C100 O81 1.276 . S
C100 O101 1.246 . S
O101 C100 1.246 . S
C102 O83 1.276 . S
C102 O103 1.246 . S
O103 C102 1.246 . S
H104 C111 0.929 . S
H105 C114 0.930 . S
H106 C116 0.929 . S
H107 C108 0.969 . S
C108 H107 0.969 . S
C108 O109 1.550 1_554 S
C108 H110 0.973 . S
O109 C108 1.550 1_556 S
O109 C115 1.412 1_556 S
H110 C108 0.973 . S
C111 H104 0.929 . S
C111 C112 1.400 1_554 S
C111 C113 1.364 . S
C112 C111 1.400 1_556 S
C112 C116 1.377 . S
C113 C111 1.364 . S
C113 C114 1.374 . S
C114 H105 0.930 . S
C114 C113 1.374 . S
C114 C115 1.383 . S
C115 O109 1.412 1_554 S
C115 C114 1.383 . S
C115 C116 1.394 1_554 S
C116 H106 0.929 . S
C116 C112 1.377 . S
C116 C115 1.394 1_556 S
H117 C124 0.929 . S
H118 C127 0.930 . S
H119 C129 0.929 . S
H120 C121 0.969 . S
C121 H120 0.969 . S
C121 O122 1.550 1_554 S
C121 H123 0.973 . S
O122 C121 1.550 1_556 S
O122 C128 1.412 1_556 S
H123 C121 0.973 . S
C124 H117 0.929 . S
C124 C125 1.400 1_554 S
C124 C126 1.364 . S
C125 C124 1.400 1_556 S
C125 C129 1.377 . S
C126 C124 1.364 . S
C126 C127 1.374 . S
C127 H118 0.930 . S
C127 C126 1.374 . S
C127 C128 1.383 . S
C128 O122 1.412 1_554 S
C128 C127 1.383 . S
C128 C129 1.394 1_554 S
C129 H119 0.929 . S
C129 C125 1.377 . S
C129 C128 1.394 1_556 S
H130 C137 0.929 . S
H131 C140 0.930 . S
H132 C142 0.929 . S
H133 C134 0.969 . S
C134 H133 0.969 . S
C134 O135 1.550 1_556 S
C134 H136 0.973 . S
O135 C134 1.550 1_554 S
O135 C141 1.412 . S
H136 C134 0.973 . S
C137 H130 0.929 . S
C137 C138 1.400 . S
C137 C139 1.364 1_554 S
C138 C137 1.400 . S
C138 C142 1.377 . S
C139 C137 1.364 1_556 S
C139 C140 1.374 . S
C140 H131 0.930 . S
C140 C139 1.374 . S
C140 C141 1.383 1_556 S
C141 O135 1.412 . S
C141 C140 1.383 1_554 S
C141 C142 1.394 . S
C142 H132 0.929 . S
C142 C138 1.377 . S
C142 C141 1.394 . S
H143 C150 0.929 . S
H144 C153 0.930 . S
H145 C155 0.929 . S
H146 C147 0.969 . S
C147 H146 0.969 . S
C147 O148 1.550 1_554 S
C147 H149 0.973 . S
O148 C147 1.550 1_556 S
O148 C154 1.412 1_556 S
H149 C147 0.973 . S
C150 H143 0.929 . S
C150 C151 1.400 1_554 S
C150 C152 1.364 . S
C151 C150 1.400 1_556 S
C151 C155 1.377 . S
C152 C150 1.364 . S
C152 C153 1.374 . S
C153 H144 0.930 . S
C153 C152 1.374 . S
C153 C154 1.383 . S
C154 O148 1.412 1_554 S
C154 C153 1.383 . S
C154 C155 1.394 1_554 S
C155 H145 0.929 . S
C155 C151 1.377 . S
C155 C154 1.394 1_556 S
H156 C163 0.929 . S
H157 C166 0.930 . S
H158 C168 0.929 . S
H159 C160 0.969 . S
C160 H159 0.969 . S
C160 O161 1.550 . S
C160 H162 0.973 . S
O161 C160 1.550 . S
O161 C167 1.412 . S
H162 C160 0.973 . S
C163 H156 0.929 . S
C163 C164 1.400 . S
C163 C165 1.364 . S
C164 C163 1.400 . S
C164 C168 1.377 . S
C165 C163 1.364 . S
C165 C166 1.374 . S
C166 H157 0.930 . S
C166 C165 1.374 . S
C166 C167 1.383 . S
C167 O161 1.412 . S
C167 C166 1.383 . S
C167 C168 1.394 . S
C168 H158 0.929 . S
C168 C164 1.377 . S
C168 C167 1.394 . S
H169 C176 0.929 . S
H170 C179 0.930 . S
H171 C181 0.929 . S
H172 C173 0.969 . S
C173 H172 0.969 . S
C173 O174 1.550 . S
C173 H175 0.973 . S
O174 C173 1.550 . S
O174 C180 1.412 . S
H175 C173 0.973 . S
C176 H169 0.929 . S
C176 C177 1.400 . S
C176 C178 1.364 . S
C177 C176 1.400 . S
C177 C181 1.377 . S
C178 C176 1.364 . S
C178 C179 1.374 . S
C179 H170 0.930 . S
C179 C178 1.374 . S
C179 C180 1.383 . S
C180 O174 1.412 . S
C180 C179 1.383 . S
C180 C181 1.394 . S
C181 H171 0.929 . S
C181 C177 1.377 . S
C181 C180 1.394 . S
H182 C189 0.929 . S
H183 C192 0.930 . S
H184 C194 0.929 . S
H185 C186 0.969 . S
C186 H185 0.969 . S
C186 O187 1.550 . S
C186 H188 0.973 . S
O187 C186 1.550 . S
O187 C193 1.412 . S
H188 C186 0.973 . S
C189 H182 0.929 . S
C189 C190 1.400 . S
C189 C191 1.364 . S
C190 C189 1.400 . S
C190 C194 1.377 . S
C191 C189 1.364 . S
C191 C192 1.374 . S
C192 H183 0.930 . S
C192 C191 1.374 . S
C192 C193 1.383 . S
C193 O187 1.412 . S
C193 C192 1.383 . S
C193 C194 1.394 . S
C194 H184 0.929 . S
C194 C190 1.377 . S
C194 C193 1.394 . S
H195 C202 0.929 . S
H196 C205 0.930 . S
H197 C207 0.929 . S
H198 C199 0.969 . S
C199 H198 0.969 . S
C199 O200 1.550 . S
C199 H201 0.973 . S
O200 C199 1.550 . S
O200 C206 1.412 . S
H201 C199 0.973 . S
C202 H195 0.929 . S
C202 C203 1.400 . S
C202 C204 1.364 . S
C203 C202 1.400 . S
C203 C207 1.377 . S
C204 C202 1.364 . S
C204 C205 1.374 . S
C205 H196 0.930 . S
C205 C204 1.374 . S
C205 C206 1.383 . S
C206 O200 1.412 . S
C206 C205 1.383 . S
C206 C207 1.394 . S
C207 H197 0.929 . S
C207 C203 1.377 . S
C207 C206 1.394 . S
C208 C209 1.369 . S
C208 C210 1.419 . S
C208 H212 0.930 . S
C209 C208 1.369 . S
C209 C218 1.429 . S
C210 C208 1.419 . S
C210 C211 1.363 . S
C210 H213 0.929 . S
C211 C210 1.363 . S
C211 C217 1.428 . S
H212 C208 0.930 . S
H213 C210 0.929 . S
S214 N215 1.613 . S
S214 N216 1.610 . S
N215 S214 1.613 . S
N215 C218 1.350 . S
N216 S214 1.610 . S
N216 C217 1.351 . S
C217 C211 1.428 . S
C217 N216 1.351 . S
C217 C218 1.434 . S
C218 C209 1.429 . S
C218 N215 1.350 . S
C218 C217 1.434 . S
C219 C220 1.369 . S
C219 C221 1.419 . S
C219 H223 0.930 . S
C220 C219 1.369 . S
C220 C229 1.429 . S
C221 C219 1.419 . S
C221 C222 1.363 . S
C221 H224 0.929 . S
C222 C221 1.363 . S
C222 C228 1.428 . S
H223 C219 0.930 . S
H224 C221 0.929 . S
S225 N226 1.613 . S
S225 N227 1.610 . S
N226 S225 1.613 . S
N226 C229 1.350 . S
N227 S225 1.610 . S
N227 C228 1.351 . S
C228 C222 1.428 . S
C228 N227 1.351 . S
C228 C229 1.434 . S
C229 C220 1.429 . S
C229 N226 1.350 . S
C229 C228 1.434 . S
C230 C231 1.369 . S
C230 C232 1.419 . S
C230 H234 0.930 . S
C231 C230 1.369 . S
C231 C240 1.429 1_554 S
C232 C230 1.419 . S
C232 C233 1.363 . S
C232 H235 0.929 . S
C233 C232 1.363 . S
C233 C239 1.428 1_554 S
H234 C230 0.930 . S
H235 C232 0.929 . S
S236 N237 1.613 . S
S236 N238 1.610 . S
N237 S236 1.613 . S
N237 C240 1.350 . S
N238 S236 1.610 . S
N238 C239 1.351 . S
C239 C233 1.428 1_556 S
C239 N238 1.351 . S
C239 C240 1.434 . S
C240 C231 1.429 1_556 S
C240 N237 1.350 . S
C240 C239 1.434 . S
C241 C242 1.369 . S
C241 C243 1.419 . S
C241 H245 0.930 1_554 S
C242 C241 1.369 . S
C242 C251 1.429 . S
C243 C241 1.419 . S
C243 C244 1.363 . S
C243 H246 0.929 1_554 S
C244 C243 1.363 . S
C244 C250 1.428 . S
H245 C241 0.930 1_556 S
H246 C243 0.929 1_556 S
S247 N248 1.613 . S
S247 N249 1.610 . S
N248 S247 1.613 . S
N248 C251 1.350 . S
N249 S247 1.610 . S
N249 C250 1.351 . S
C250 C244 1.428 . S
C250 N249 1.351 . S
C250 C251 1.434 . S
C251 C242 1.429 . S
C251 N248 1.350 . S
C251 C250 1.434 . S
C252 C253 1.369 . S
C252 C254 1.419 . S
C252 H256 0.930 . S
C253 C252 1.369 . S
C253 C262 1.429 . S
C254 C252 1.419 . S
C254 C255 1.363 . S
C254 H257 0.929 . S
C255 C254 1.363 . S
C255 C261 1.428 . S
H256 C252 0.930 . S
H257 C254 0.929 . S
S258 N259 1.613 . S
S258 N260 1.610 . S
N259 S258 1.613 . S
N259 C262 1.350 . S
N260 S258 1.610 . S
N260 C261 1.351 . S
C261 C255 1.428 . S
C261 N260 1.351 . S
C261 C262 1.434 . S
C262 C253 1.429 . S
C262 N259 1.350 . S
C262 C261 1.434 . S
C263 C264 1.369 . S
C263 C265 1.419 . S
C263 H267 0.930 . S
C264 C263 1.369 . S
C264 C273 1.429 . S
C265 C263 1.419 . S
C265 C266 1.363 . S
C265 H268 0.929 . S
C266 C265 1.363 . S
C266 C272 1.428 . S
H267 C263 0.930 . S
H268 C265 0.929 . S
S269 N270 1.613 . S
S269 N271 1.610 . S
N270 S269 1.613 . S
N270 C273 1.350 . S
N271 S269 1.610 . S
N271 C272 1.351 . S
C272 C266 1.428 . S
C272 N271 1.351 . S
C272 C273 1.434 . S
C273 C264 1.429 . S
C273 N270 1.350 . S
C273 C272 1.434 . S
C274 C275 1.369 . S
C274 C276 1.419 . S
C274 H278 0.930 . S
C275 C274 1.369 . S
C275 C284 1.429 . S
C276 C274 1.419 . S
C276 C277 1.363 . S
C276 H279 0.929 . S
C277 C276 1.363 . S
C277 C283 1.428 . S
H278 C274 0.930 . S
H279 C276 0.929 . S
S280 N281 1.613 . S
S280 N282 1.610 . S
N281 S280 1.613 . S
N281 C284 1.350 . S
N282 S280 1.610 . S
N282 C283 1.351 . S
C283 C277 1.428 . S
C283 N282 1.351 . S
C283 C284 1.434 . S
C284 C275 1.429 . S
C284 N281 1.350 . S
C284 C283 1.434 . S
C285 C286 1.369 . S
C285 C287 1.419 . S
C285 H289 0.930 . S
C286 C285 1.369 . S
C286 C295 1.429 . S
C287 C285 1.419 . S
C287 C288 1.363 . S
C287 H290 0.929 . S
C288 C287 1.363 . S
C288 C294 1.428 . S
H289 C285 0.930 . S
H290 C287 0.929 . S
S291 N292 1.613 . S
S291 N293 1.610 . S
N292 S291 1.613 . S
N292 C295 1.350 . S
N293 S291 1.610 . S
N293 C294 1.351 . S
C294 C288 1.428 . S
C294 N293 1.351 . S
C294 C295 1.434 . S
C295 C286 1.429 . S
C295 N292 1.350 . S
C295 C294 1.434 . S
C296 C297 1.369 . S
C296 C298 1.419 . S
C296 H300 0.930 1_455 S
C297 C296 1.369 . S
C297 C306 1.429 . S
C298 C296 1.419 . S
C298 C299 1.363 . S
C298 H301 0.929 . S
C299 C298 1.363 . S
C299 C305 1.428 . S
H300 C296 0.930 1_655 S
H301 C298 0.929 . S
S302 N303 1.613 . S
S302 N304 1.610 . S
N303 S302 1.613 . S
N303 C306 1.350 . S
N304 S302 1.610 . S
N304 C305 1.351 . S
C305 C299 1.428 . S
C305 N304 1.351 . S
C305 C306 1.434 . S
C306 C297 1.429 . S
C306 N303 1.350 . S
C306 C305 1.434 . S
C307 C308 1.369 . S
C307 C309 1.419 . S
C307 H311 0.930 . S
C308 C307 1.369 . S
C308 C317 1.429 . S
C309 C307 1.419 . S
C309 C310 1.363 . S
C309 H312 0.929 . S
C310 C309 1.363 . S
C310 C316 1.428 . S
H311 C307 0.930 . S
H312 C309 0.929 . S
S313 N314 1.613 . S
S313 N315 1.610 . S
N314 S313 1.613 . S
N314 C317 1.350 . S
N315 S313 1.610 . S
N315 C316 1.351 . S
C316 C310 1.428 . S
C316 N315 1.351 . S
C316 C317 1.434 . S
C317 C308 1.429 . S
C317 N314 1.350 . S
C317 C316 1.434 . S
C318 C319 1.369 . S
C318 C320 1.419 . S
C318 H322 0.930 1_655 S
C319 C318 1.369 . S
C319 C328 1.429 . S
C320 C318 1.419 . S
C320 C321 1.363 . S
C320 H323 0.929 . S
C321 C320 1.363 . S
C321 C327 1.428 . S
H322 C318 0.930 1_455 S
H323 C320 0.929 . S
S324 N325 1.613 . S
S324 N326 1.610 . S
N325 S324 1.613 . S
N325 C328 1.350 . S
N326 S324 1.610 . S
N326 C327 1.351 . S
C327 C321 1.428 . S
C327 N326 1.351 . S
C327 C328 1.434 . S
C328 C319 1.429 . S
C328 N325 1.350 . S
C328 C327 1.434 . S
C329 C330 1.369 . S
C329 C331 1.419 . S
C329 H333 0.930 . S
C330 C329 1.369 . S
C330 C339 1.429 . S
C331 C329 1.419 . S
C331 C332 1.363 . S
C331 H334 0.929 . S
C332 C331 1.363 . S
C332 C338 1.428 . S
H333 C329 0.930 . S
H334 C331 0.929 . S
S335 N336 1.613 . S
S335 N337 1.610 . S
N336 S335 1.613 . S
N336 C339 1.350 . S
N337 S335 1.610 . S
N337 C338 1.351 . S
C338 C332 1.428 . S
C338 N337 1.351 . S
C338 C339 1.434 . S
C339 C330 1.429 . S
C339 N336 1.350 . S
C339 C338 1.434 . S
C340 C341 1.369 . S
C340 C342 1.419 . S
C340 H344 0.930 . S
C341 C340 1.369 . S
C341 C350 1.429 . S
C342 C340 1.419 . S
C342 C343 1.363 . S
C342 H345 0.929 . S
C343 C342 1.363 . S
C343 C349 1.428 . S
H344 C340 0.930 . S
H345 C342 0.929 . S
S346 N347 1.613 . S
S346 N348 1.610 . S
N347 S346 1.613 . S
N347 C350 1.350 1_545 S
N348 S346 1.610 . S
N348 C349 1.351 1_545 S
C349 C343 1.428 . S
C349 N348 1.351 1_565 S
C349 C350 1.434 . S
C350 C341 1.429 . S
C350 N347 1.350 1_565 S
C350 C349 1.434 . S
C351 C352 1.369 . S
C351 C353 1.419 . S
C351 H355 0.930 . S
C352 C351 1.369 . S
C352 C361 1.429 . S
C353 C351 1.419 . S
C353 C354 1.363 . S
C353 H356 0.929 . S
C354 C353 1.363 . S
C354 C360 1.428 . S
H355 C351 0.930 . S
H356 C353 0.929 . S
S357 N358 1.613 . S
S357 N359 1.610 . S
N358 S357 1.613 . S
N358 C361 1.350 . S
N359 S357 1.610 . S
N359 C360 1.351 . S
C360 C354 1.428 . S
C360 N359 1.351 . S
C360 C361 1.434 . S
C361 C352 1.429 . S
C361 N358 1.350 . S
C361 C360 1.434 . S
C362 C363 1.369 . S
C362 C364 1.419 . S
C362 H366 0.930 . S
C363 C362 1.369 . S
C363 C372 1.429 . S
C364 C362 1.419 . S
C364 C365 1.363 . S
C364 H367 0.929 . S
C365 C364 1.363 . S
C365 C371 1.428 . S
H366 C362 0.930 . S
H367 C364 0.929 . S
S368 N369 1.613 . S
S368 N370 1.610 1_565 S
N369 S368 1.613 . S
N369 C372 1.350 1_565 S
N370 S368 1.610 1_545 S
N370 C371 1.351 . S
C371 C365 1.428 . S
C371 N370 1.351 . S
C371 C372 1.434 . S
C372 C363 1.429 . S
C372 N369 1.350 1_545 S
C372 C371 1.434 . S
C373 C374 1.369 . S
C373 C375 1.419 . S
C373 H377 0.930 . S
C374 C373 1.369 . S
C374 C383 1.429 . S
C375 C373 1.419 . S
C375 C376 1.363 . S
C375 H378 0.929 . S
C376 C375 1.363 . S
C376 C382 1.428 . S
H377 C373 0.930 . S
H378 C375 0.929 . S
S379 N380 1.613 . S
S379 N381 1.610 . S
N380 S379 1.613 . S
N380 C383 1.350 1_455 S
N381 S379 1.610 . S
N381 C382 1.351 1_455 S
C382 C376 1.428 . S
C382 N381 1.351 1_655 S
C382 C383 1.434 . S
C383 C374 1.429 . S
C383 N380 1.350 1_655 S
C383 C382 1.434 . S
C384 C385 1.369 . S
C384 C386 1.419 . S
C384 H388 0.930 . S
C385 C384 1.369 . S
C385 C394 1.429 . S
C386 C384 1.419 . S
C386 C387 1.363 . S
C386 H389 0.929 . S
C387 C386 1.363 . S
C387 C393 1.428 . S
H388 C384 0.930 . S
H389 C386 0.929 . S
S390 N391 1.613 . S
S390 N392 1.610 . S
N391 S390 1.613 . S
N391 C394 1.350 . S
N392 S390 1.610 . S
N392 C393 1.351 . S
C393 C387 1.428 . S
C393 N392 1.351 . S
C393 C394 1.434 . S
C394 C385 1.429 . S
C394 N391 1.350 . S
C394 C393 1.434 . S
C395 C396 1.369 . S
C395 C397 1.419 . S
C395 H399 0.930 . S
C396 C395 1.369 . S
C396 C405 1.429 . S
C397 C395 1.419 . S
C397 C398 1.363 . S
C397 H400 0.929 . S
C398 C397 1.363 . S
C398 C404 1.428 . S
H399 C395 0.930 . S
H400 C397 0.929 . S
S401 N402 1.613 . S
S401 N403 1.610 . S
N402 S401 1.613 . S
N402 C405 1.350 . S
N403 S401 1.610 . S
N403 C404 1.351 . S
C404 C398 1.428 . S
C404 N403 1.351 . S
C404 C405 1.434 . S
C405 C396 1.429 . S
C405 N402 1.350 . S
C405 C404 1.434 . S
C406 C407 1.369 . S
C406 C408 1.419 . S
C406 H410 0.930 . S
C407 C406 1.369 . S
C407 C416 1.429 . S
C408 C406 1.419 . S
C408 C409 1.363 . S
C408 H411 0.929 . S
C409 C408 1.363 . S
C409 C415 1.428 . S
H410 C406 0.930 . S
H411 C408 0.929 . S
S412 N413 1.613 . S
S412 N414 1.610 . S
N413 S412 1.613 . S
N413 C416 1.350 . S
N414 S412 1.610 . S
N414 C415 1.351 . S
C415 C409 1.428 . S
C415 N414 1.351 . S
C415 C416 1.434 . S
C416 C407 1.429 . S
C416 N413 1.350 . S
C416 C415 1.434 . S
C417 C418 1.369 . S
C417 C419 1.419 . S
C417 H421 0.930 . S
C418 C417 1.369 . S
C418 C427 1.429 . S
C419 C417 1.419 . S
C419 C420 1.363 . S
C419 H422 0.929 . S
C420 C419 1.363 . S
C420 C426 1.428 . S
H421 C417 0.930 . S
H422 C419 0.929 . S
S423 N424 1.613 . S
S423 N425 1.610 . S
N424 S423 1.613 . S
N424 C427 1.350 . S
N425 S423 1.610 . S
N425 C426 1.351 . S
C426 C420 1.428 . S
C426 N425 1.351 . S
C426 C427 1.434 . S
C427 C418 1.429 . S
C427 N424 1.350 . S
C427 C426 1.434 . S
C428 C429 1.369 . S
C428 C430 1.419 . S
C428 H432 0.930 . S
C429 C428 1.369 . S
C429 C438 1.429 . S
C430 C428 1.419 . S
C430 C431 1.363 . S
C430 H433 0.929 . S
C431 C430 1.363 . S
C431 C437 1.428 . S
H432 C428 0.930 . S
H433 C430 0.929 . S
S434 N435 1.613 . S
S434 N436 1.610 . S
N435 S434 1.613 . S
N435 C438 1.350 . S
N436 S434 1.610 . S
N436 C437 1.351 . S
C437 C431 1.428 . S
C437 N436 1.351 . S
C437 C438 1.434 . S
C438 C429 1.429 . S
C438 N435 1.350 . S
C438 C437 1.434 . S
C439 C440 1.369 . S
C439 C441 1.419 . S
C439 H443 0.930 . S
C440 C439 1.369 . S
C440 C449 1.429 . S
C441 C439 1.419 . S
C441 C442 1.363 . S
C441 H444 0.929 . S
C442 C441 1.363 . S
C442 C448 1.428 . S
H443 C439 0.930 . S
H444 C441 0.929 . S
S445 N446 1.613 . S
S445 N447 1.610 . S
N446 S445 1.613 . S
N446 C449 1.350 . S
N447 S445 1.610 . S
N447 C448 1.351 . S
C448 C442 1.428 . S
C448 N447 1.351 . S
C448 C449 1.434 . S
C449 C440 1.429 . S
C449 N446 1.350 . S
C449 C448 1.434 . S
C450 C451 1.369 . S
C450 C452 1.419 . S
C450 H454 0.930 . S
C451 C450 1.369 . S
C451 C460 1.429 . S
C452 C450 1.419 . S
C452 C453 1.363 . S
C452 H455 0.929 . S
C453 C452 1.363 . S
C453 C459 1.428 . S
H454 C450 0.930 . S
H455 C452 0.929 . S
S456 N457 1.613 . S
S456 N458 1.610 . S
N457 S456 1.613 . S
N457 C460 1.350 . S
N458 S456 1.610 . S
N458 C459 1.351 . S
C459 C453 1.428 . S
C459 N458 1.351 . S
C459 C460 1.434 . S
C460 C451 1.429 . S
C460 N457 1.350 . S
C460 C459 1.434 . S
C461 C462 1.369 . S
C461 C463 1.419 . S
C461 H465 0.930 . S
C462 C461 1.369 . S
C462 C471 1.429 . S
C463 C461 1.419 . S
C463 C464 1.363 . S
C463 H466 0.929 . S
C464 C463 1.363 . S
C464 C470 1.428 . S
H465 C461 0.930 . S
H466 C463 0.929 . S
S467 N468 1.613 . S
S467 N469 1.610 . S
N468 S467 1.613 . S
N468 C471 1.350 . S
N469 S467 1.610 . S
N469 C470 1.351 . S
C470 C464 1.428 . S
C470 N469 1.351 . S
C470 C471 1.434 . S
C471 C462 1.429 . S
C471 N468 1.350 . S
C471 C470 1.434 . S
C209 C45 1.554 . S
C211 C108 1.474 . S
C220 C30 1.553 . S
C222 C121 1.476 . S
C231 C39 1.549 . S
C233 C134 1.549 1_554 S
C244 C147 1.494 . S
C242 C34 1.553 . S
C253 C97 1.548 . S
C255 C160 1.483 . S
C266 C173 1.482 . S
C264 C82 1.555 . S
C277 C186 1.549 . S
C275 C91 1.549 . S
C288 C199 1.552 . S
C286 C86 1.550 . S
C299 C191 1.525 . S
C297 C26 1.493 . S
C310 C204 1.548 . S
C308 C36 1.504 . S
C321 C164 1.515 . S
C319 C32 1.476 . S
C332 C177 1.496 . S
C330 C42 1.460 . S
C341 C18 1.576 . S
C343 C178 1.638 . S
C354 C190 1.617 . S
C352 C50 1.539 . S
C363 C4 1.521 . S
C365 C203 1.595 . S
C374 C48 1.562 . S
C376 C165 1.612 . S
C387 C139 1.549 . S
C385 C78 1.503 . S
C396 C88 1.424 . S
C398 C151 1.465 . S
C409 C112 1.545 . S
C407 C84 1.502 . S
C420 C125 1.507 . S
C418 C94 1.469 . S
C431 C126 1.628 . S
C429 C70 1.567 . S
C442 C138 1.598 . S
C440 C102 1.517 . S
C451 C56 1.617 . S
C453 C152 1.664 . S
C462 C100 1.536 . S
C464 C113 1.583 . S
