# Generated by pormake.
# Topology apo, (3,6)-cn, num edge types: 1
# Building blocks:
#     Node 0, Type 0, BuildingBlock: VETTIZ_charged_linker_0, # of connection points: 3
#     Node 1, Type 0, BuildingBlock: VETTIZ_charged_linker_0, # of connection points: 3
#     Node 2, Type 0, BuildingBlock: VETTIZ_charged_linker_0, # of connection points: 3
#     Node 3, Type 0, BuildingBlock: VETTIZ_charged_linker_0, # of connection points: 3
#     Node 4, Type 0, BuildingBlock: VETTIZ_charged_linker_0, # of connection points: 3
#     Node 5, Type 0, BuildingBlock: VETTIZ_charged_linker_0, # of connection points: 3
#     Node 6, Type 0, BuildingBlock: VETTIZ_charged_linker_0, # of connection points: 3
#     Node 7, Type 0, BuildingBlock: VETTIZ_charged_linker_0, # of connection points: 3
#     Node 8, Type 1, BuildingBlock: KUMJIN_clean_sbu_1, # of connection points: 6
#     Node 9, Type 1, BuildingBlock: KUMJIN_clean_sbu_1, # of connection points: 6
#     Node 10, Type 1, BuildingBlock: KUMJIN_clean_sbu_1, # of connection points: 6
#     Node 11, Type 1, BuildingBlock: KUMJIN_clean_sbu_1, # of connection points: 6
#     Edge 12, Type (0, 1), BuildingBlock: ZUJKAS_clean_linker_0, # of connection points: 2
#     Edge 13, Type (0, 1), BuildingBlock: ZUJKAS_clean_linker_0, # of connection points: 2
#     Edge 14, Type (0, 1), BuildingBlock: ZUJKAS_clean_linker_0, # of connection points: 2
#     Edge 15, Type (0, 1), BuildingBlock: ZUJKAS_clean_linker_0, # of connection points: 2
#     Edge 16, Type (0, 1), BuildingBlock: ZUJKAS_clean_linker_0, # of connection points: 2
#     Edge 17, Type (0, 1), BuildingBlock: ZUJKAS_clean_linker_0, # of connection points: 2
#     Edge 18, Type (0, 1), BuildingBlock: ZUJKAS_clean_linker_0, # of connection points: 2
#     Edge 19, Type (0, 1), BuildingBlock: ZUJKAS_clean_linker_0, # of connection points: 2
#     Edge 20, Type (0, 1), BuildingBlock: ZUJKAS_clean_linker_0, # of connection points: 2
#     Edge 21, Type (0, 1), BuildingBlock: ZUJKAS_clean_linker_0, # of connection points: 2
#     Edge 22, Type (0, 1), BuildingBlock: ZUJKAS_clean_linker_0, # of connection points: 2
#     Edge 23, Type (0, 1), BuildingBlock: ZUJKAS_clean_linker_0, # of connection points: 2
#     Edge 24, Type (0, 1), BuildingBlock: ZUJKAS_clean_linker_0, # of connection points: 2
#     Edge 25, Type (0, 1), BuildingBlock: ZUJKAS_clean_linker_0, # of connection points: 2
#     Edge 26, Type (0, 1), BuildingBlock: ZUJKAS_clean_linker_0, # of connection points: 2
#     Edge 27, Type (0, 1), BuildingBlock: ZUJKAS_clean_linker_0, # of connection points: 2
#     Edge 28, Type (0, 1), BuildingBlock: ZUJKAS_clean_linker_0, # of connection points: 2
#     Edge 29, Type (0, 1), BuildingBlock: ZUJKAS_clean_linker_0, # of connection points: 2
#     Edge 30, Type (0, 1), BuildingBlock: ZUJKAS_clean_linker_0, # of connection points: 2
#     Edge 31, Type (0, 1), BuildingBlock: ZUJKAS_clean_linker_0, # of connection points: 2
#     Edge 32, Type (0, 1), BuildingBlock: ZUJKAS_clean_linker_0, # of connection points: 2
#     Edge 33, Type (0, 1), BuildingBlock: ZUJKAS_clean_linker_0, # of connection points: 2
#     Edge 34, Type (0, 1), BuildingBlock: ZUJKAS_clean_linker_0, # of connection points: 2
#     Edge 35, Type (0, 1), BuildingBlock: ZUJKAS_clean_linker_0, # of connection points: 2
# Relax obj value: 0.011
# Max RMSD: 0.085
# Mean RMSD: 0.069
data_MOF--net-apo--node1-KUMJIN_clean_sbu_1--node2-VETTIZ_charged_linker_0--edge1-ZUJKAS_clean_linker_0
_symmetry_space_group_name_H-M    P1
_symmetry_Int_Tables_number       1
_symmetry_cell_setting            triclinic
loop_
_symmetry_equiv_pos_as_xyz
'x, y, z'
_cell_length_a     35.787927
_cell_length_b     65.193065
_cell_length_c     77.534042
_cell_angle_alpha  90.012708
_cell_angle_beta   90.075474
_cell_angle_gamma 90.277015
loop_
_atom_site_label
_atom_site_type_symbol
_atom_site_fract_x
_atom_site_fract_y
_atom_site_fract_z
_atom_type_partial_charge
C0 C 0.2911 0.36702 0.4764 0.0
C1 C 0.31278 0.38085 0.48608 0.0
C2 C 0.32596 0.39899 0.47833 0.0
C3 C 0.29649 0.38931 0.45137 0.0
C4 C 0.28363 0.37146 0.45903 0.0
C5 C 0.26325 0.35783 0.44644 0.0
H6 H 0.19718 0.34246 0.36559 0.0
C7 C 0.28486 0.38907 0.43308 0.0
C8 C 0.26548 0.37061 0.43008 0.0
H9 H 0.19487 0.30013 0.40866 0.0
H10 H 0.22502 0.32535 0.4266 0.0
H11 H 0.18058 0.38482 0.38723 0.0
H12 H 0.27909 0.35349 0.37012 0.0
H13 H 0.29086 0.3796 0.36977 0.0
H14 H 0.25368 0.37022 0.35606 0.0
H15 H 0.19407 0.38247 0.36501 0.0
H16 H 0.21117 0.40318 0.37828 0.0
C17 C 0.22251 0.35525 0.45275 0.0
C18 C 0.2851 0.33743 0.44478 0.0
C19 C 0.31925 0.44869 0.39357 0.0
C20 C 0.31375 0.4522 0.3758 0.0
C21 C 0.2935 0.4375 0.36615 0.0
C22 C 0.27909 0.4198 0.37394 0.0
C23 C 0.28527 0.41641 0.39158 0.0
C24 C 0.30503 0.43071 0.40111 0.0
C25 C 0.30997 0.42406 0.41958 0.0
C26 C 0.29001 0.40341 0.41947 0.0
C27 C 0.27545 0.39913 0.40305 0.0
C28 C 0.28987 0.4398 0.43124 0.0
C29 C 0.35241 0.42189 0.4232 0.0
C30 C 0.20333 0.33838 0.37882 0.0
C31 C 0.19323 0.31906 0.38555 0.0
C32 C 0.20146 0.3149 0.40304 0.0
C33 C 0.21947 0.32953 0.41347 0.0
C34 C 0.23007 0.3485 0.40635 0.0
C35 C 0.2221 0.35259 0.38927 0.0
C36 C 0.23752 0.37294 0.38351 0.0
C37 C 0.25572 0.38053 0.40001 0.0
C38 C 0.25095 0.36628 0.41341 0.0
C39 C 0.20431 0.38666 0.37809 0.0
C40 C 0.26662 0.36904 0.36905 0.0
H41 H 0.32853 0.41746 0.4559 0.0
H42 H 0.28112 0.35284 0.48208 0.0
H43 H 0.31547 0.33979 0.44719 0.0
H44 H 0.2837 0.33087 0.43164 0.0
H45 H 0.27491 0.32586 0.4542 0.0
H46 H 0.21108 0.37023 0.45707 0.0
H47 H 0.221 0.34446 0.46382 0.0
H48 H 0.20335 0.34979 0.44256 0.0
H49 H 0.33438 0.45961 0.40148 0.0
H50 H 0.28943 0.43937 0.35241 0.0
H51 H 0.26412 0.40928 0.36581 0.0
H52 H 0.26271 0.4444 0.42545 0.0
H53 H 0.30706 0.4539 0.4329 0.0
H54 H 0.28278 0.43363 0.44408 0.0
H55 H 0.36773 0.41721 0.41136 0.0
H56 H 0.35874 0.40975 0.43268 0.0
H57 H 0.36472 0.43662 0.4277 0.0
H58 H 0.3427 0.40978 0.48568 0.0
C59 C 0.31771 0.40338 0.46106 0.0
C60 C 0.30126 0.16292 0.87955 0.0
C61 C 0.31562 0.18087 0.88714 0.0
C62 C 0.3121 0.18357 0.90511 0.0
C63 C 0.27857 0.15124 0.90738 0.0
C64 C 0.28307 0.14839 0.88984 0.0
C65 C 0.26593 0.12865 0.88364 0.0
H66 H 0.17379 0.04048 0.90104 0.0
C67 C 0.25713 0.13352 0.91414 0.0
C68 C 0.24988 0.12021 0.90028 0.0
H69 H 0.21142 0.06356 0.85156 0.0
H70 H 0.23615 0.0936 0.86522 0.0
H71 H 0.2455 0.05662 0.92488 0.0
H72 H 0.13774 0.08083 0.9117 0.0
H73 H 0.14828 0.09105 0.93206 0.0
H74 H 0.14349 0.06361 0.9295 0.0
H75 H 0.20169 0.04553 0.93141 0.0
H76 H 0.22351 0.06563 0.9438 0.0
C77 C 0.29776 0.115 0.87656 0.0
C78 C 0.23494 0.13384 0.87033 0.0
C79 C 0.21652 0.1318 0.97697 0.0
C80 C 0.19348 0.11824 0.98623 0.0
C81 C 0.1799 0.10037 0.97816 0.0
C82 C 0.1889 0.09605 0.96098 0.0
C83 C 0.2112 0.10995 0.95168 0.0
C84 C 0.22463 0.12748 0.95967 0.0
C85 C 0.24631 0.14095 0.94745 0.0
C86 C 0.24332 0.12871 0.93083 0.0
C87 C 0.22301 0.11048 0.93346 0.0
C88 C 0.28714 0.1424 0.95398 0.0
C89 C 0.22604 0.16184 0.94614 0.0
C90 C 0.18723 0.05198 0.89307 0.0
C91 C 0.19116 0.04918 0.87513 0.0
C92 C 0.20894 0.06475 0.86544 0.0
C93 C 0.22304 0.08242 0.87339 0.0
C94 C 0.21897 0.08491 0.89125 0.0
C95 C 0.20091 0.06998 0.90077 0.0
C96 C 0.19682 0.07604 0.91942 0.0
C97 C 0.21652 0.09676 0.91953 0.0
C98 C 0.22966 0.10173 0.90302 0.0
C99 C 0.21774 0.06012 0.93059 0.0
C100 C 0.15451 0.07789 0.92353 0.0
H101 H 0.29144 0.17191 0.92883 0.0
H102 H 0.30406 0.16022 0.86582 0.0
H103 H 0.22248 0.14913 0.87294 0.0
H104 H 0.211 0.12307 0.87088 0.0
H105 H 0.2462 0.13413 0.85699 0.0
H106 H 0.32318 0.11637 0.88477 0.0
H107 H 0.30559 0.11963 0.86326 0.0
H108 H 0.29076 0.0985 0.87661 0.0
H109 H 0.22698 0.14573 0.98292 0.0
H110 H 0.16225 0.08973 0.9852 0.0
H111 H 0.17781 0.08217 0.95556 0.0
H112 H 0.29618 0.1276 0.95976 0.0
H113 H 0.29017 0.15445 0.96402 0.0
H114 H 0.30736 0.1454 0.94352 0.0
H115 H 0.1952 0.15962 0.94613 0.0
H116 H 0.23213 0.17015 0.93407 0.0
H117 H 0.23327 0.17188 0.95725 0.0
H118 H 0.32284 0.19732 0.91126 0.0
C119 C 0.29365 0.16886 0.91527 0.0
C120 C 0.79734 0.13383 0.53092 0.0
C121 C 0.82022 0.12003 0.52189 0.0
C122 C 0.83455 0.10276 0.53043 0.0
C123 C 0.80324 0.11294 0.55672 0.0
C124 C 0.78956 0.1301 0.5484 0.0
C125 C 0.76756 0.14366 0.56042 0.0
H126 H 0.70487 0.1616 0.64172 0.0
C127 C 0.79041 0.11349 0.57479 0.0
C128 C 0.76964 0.13153 0.57715 0.0
H129 H 0.69077 0.20027 0.59689 0.0
H130 H 0.72317 0.17536 0.57933 0.0
H131 H 0.68262 0.12074 0.62324 0.0
H132 H 0.78893 0.14857 0.63434 0.0
H133 H 0.79261 0.12235 0.63931 0.0
H134 H 0.75888 0.13777 0.65053 0.0
H135 H 0.70414 0.11846 0.64404 0.0
H136 H 0.71311 0.10024 0.62699 0.0
C137 C 0.72705 0.14511 0.55357 0.0
C138 C 0.78805 0.16456 0.56181 0.0
C139 C 0.82409 0.05509 0.61537 0.0
C140 C 0.81541 0.05114 0.63274 0.0
C141 C 0.79305 0.06519 0.64184 0.0
C142 C 0.77986 0.08299 0.63387 0.0
C143 C 0.78902 0.08685 0.61656 0.0
C144 C 0.81043 0.07292 0.60754 0.0
C145 C 0.81665 0.07943 0.58915 0.0
C146 C 0.79549 0.09959 0.58868 0.0
C147 C 0.7797 0.10388 0.60479 0.0
C148 C 0.79855 0.06304 0.57727 0.0
C149 C 0.85923 0.08258 0.58642 0.0
C150 C 0.70824 0.16469 0.62809 0.0
C151 C 0.69519 0.18303 0.62077 0.0
C152 C 0.70096 0.18643 0.60297 0.0
C153 C 0.71969 0.1719 0.59277 0.0
C154 C 0.73297 0.15377 0.60041 0.0
C155 C 0.72672 0.1504 0.61777 0.0
C156 C 0.74214 0.13029 0.62383 0.0
C157 C 0.75946 0.12227 0.60736 0.0
C158 C 0.75422 0.13603 0.59363 0.0
C159 C 0.70904 0.11667 0.62998 0.0
C160 C 0.77207 0.13479 0.63782 0.0
H161 H 0.83767 0.08557 0.55348 0.0
H162 H 0.7864 0.14735 0.5246 0.0
H163 H 0.81888 0.16241 0.56184 0.0
H164 H 0.78201 0.17275 0.57393 0.0
H165 H 0.78097 0.17464 0.55074 0.0
H166 H 0.71716 0.12991 0.54885 0.0
H167 H 0.72522 0.15612 0.54267 0.0
H168 H 0.7069 0.14965 0.56362 0.0
H169 H 0.84094 0.04448 0.608 0.0
H170 H 0.78637 0.06262 0.6553 0.0
H171 H 0.76334 0.09314 0.64157 0.0
H172 H 0.77182 0.05733 0.58285 0.0
H173 H 0.81727 0.04963 0.57563 0.0
H174 H 0.79095 0.06903 0.56443 0.0
H175 H 0.87312 0.08778 0.59851 0.0
H176 H 0.86569 0.09476 0.57695 0.0
H177 H 0.87287 0.06811 0.58234 0.0
H178 H 0.8522 0.09202 0.5236 0.0
C179 C 0.82602 0.09906 0.54775 0.0
C180 C 0.79454 0.33582 0.12864 0.0
C181 C 0.80824 0.31776 0.12117 0.0
C182 C 0.80496 0.31508 0.10317 0.0
C183 C 0.77235 0.3476 0.10072 0.0
C184 C 0.77698 0.35043 0.11827 0.0
C185 C 0.76091 0.3703 0.12447 0.0
H186 H 0.66277 0.4564 0.10881 0.0
C187 C 0.75123 0.36543 0.09396 0.0
C188 C 0.7448 0.37877 0.10788 0.0
H189 H 0.71322 0.43665 0.15671 0.0
H190 H 0.73769 0.40672 0.14269 0.0
H191 H 0.73381 0.44404 0.0844 0.0
H192 H 0.63118 0.41373 0.09807 0.0
H193 H 0.64024 0.40666 0.07668 0.0
H194 H 0.63278 0.43334 0.08188 0.0
H195 H 0.6888 0.45222 0.07691 0.0
H196 H 0.71528 0.43309 0.0655 0.0
C197 C 0.79339 0.38382 0.13145 0.0
C198 C 0.72998 0.36531 0.13784 0.0
C199 C 0.70915 0.36834 0.03101 0.0
C200 C 0.68683 0.38238 0.02177 0.0
C201 C 0.67288 0.39971 0.03052 0.0
C202 C 0.68116 0.40316 0.04791 0.0
C203 C 0.70337 0.38907 0.05691 0.0
C204 C 0.71689 0.37194 0.04854 0.0
C205 C 0.73901 0.35835 0.06052 0.0
C206 C 0.7365 0.37023 0.07737 0.0
C207 C 0.71571 0.38828 0.07507 0.0
C208 C 0.77964 0.35723 0.05383 0.0
C209 C 0.71895 0.33731 0.06159 0.0
C210 C 0.67899 0.44557 0.11627 0.0
C211 C 0.68614 0.44897 0.1339 0.0
C212 C 0.70774 0.43459 0.14307 0.0
C213 C 0.72177 0.41711 0.13492 0.0
C214 C 0.71415 0.41382 0.11736 0.0
C215 C 0.69336 0.42799 0.10829 0.0
C216 C 0.68842 0.42197 0.08968 0.0
C217 C 0.70972 0.40185 0.08913 0.0
C218 C 0.72448 0.39715 0.10539 0.0
C219 C 0.70725 0.43868 0.0784 0.0
C220 C 0.64604 0.41887 0.08623 0.0
H221 H 0.78497 0.3269 0.07932 0.0
H222 H 0.79739 0.33856 0.14236 0.0
H223 H 0.71379 0.35147 0.13388 0.0
H224 H 0.70896 0.37755 0.13908 0.0
H225 H 0.7422 0.36221 0.15074 0.0
H226 H 0.82023 0.38017 0.12493 0.0
H227 H 0.79757 0.38144 0.14551 0.0
H228 H 0.78919 0.40035 0.12892 0.0
H229 H 0.72053 0.3549 0.02476 0.0
H230 H 0.65487 0.41054 0.02402 0.0
H231 H 0.66955 0.41662 0.05371 0.0
H232 H 0.78909 0.37247 0.04902 0.0
H233 H 0.78199 0.34612 0.04302 0.0
H234 H 0.79982 0.35305 0.06399 0.0
H235 H 0.68813 0.33935 0.06217 0.0
H236 H 0.72616 0.3286 0.0733 0.0
H237 H 0.72529 0.32776 0.05011 0.0
H238 H 0.81547 0.30129 0.09711 0.0
C239 C 0.78703 0.32988 0.0929 0.0
C240 C 0.70529 0.56088 0.6318 0.0
C241 C 0.6844 0.54426 0.62531 0.0
C242 C 0.67577 0.54375 0.60755 0.0
C243 C 0.70692 0.57656 0.60337 0.0
C244 C 0.71625 0.57673 0.62067 0.0
C245 C 0.73806 0.59559 0.62564 0.0
H246 H 0.80626 0.68943 0.60546 0.0
C247 C 0.72123 0.59583 0.59559 0.0
C248 C 0.73967 0.60696 0.60857 0.0
H249 H 0.8131 0.6567 0.65392 0.0
H250 H 0.78234 0.62765 0.64128 0.0
H251 H 0.82849 0.64867 0.58156 0.0
H252 H 0.72253 0.67542 0.59542 0.0
H253 H 0.72174 0.66923 0.57334 0.0
H254 H 0.75477 0.688 0.58113 0.0
H255 H 0.81353 0.67296 0.57317 0.0
H256 H 0.79964 0.64911 0.56319 0.0
C257 C 0.77741 0.58879 0.63175 0.0
C258 C 0.71508 0.60741 0.63932 0.0
C259 C 0.69254 0.61178 0.53284 0.0
C260 C 0.70037 0.62862 0.52206 0.0
C261 C 0.72114 0.64523 0.52889 0.0
C262 C 0.73359 0.64511 0.54608 0.0
C263 C 0.7252 0.62822 0.55669 0.0
C264 C 0.70518 0.61189 0.54996 0.0
C265 C 0.69868 0.59523 0.56303 0.0
C266 C 0.71804 0.60423 0.57875 0.0
C267 C 0.73354 0.62362 0.57503 0.0
C268 C 0.71825 0.5755 0.55662 0.0
C269 C 0.65596 0.59296 0.56575 0.0
C270 C 0.80134 0.67594 0.61329 0.0
C271 C 0.81148 0.67567 0.6309 0.0
C272 C 0.80467 0.65768 0.64052 0.0
C273 C 0.78695 0.64067 0.63311 0.0
C274 C 0.77573 0.64142 0.61578 0.0
C275 C 0.78355 0.65864 0.60602 0.0
C276 C 0.77006 0.65621 0.58766 0.0
C277 C 0.75233 0.6349 0.58822 0.0
C278 C 0.75565 0.62645 0.60481 0.0
C279 C 0.80452 0.65689 0.57563 0.0
C280 C 0.74089 0.67312 0.58402 0.0
H281 H 0.679 0.55861 0.58325 0.0
H282 H 0.71297 0.56159 0.64531 0.0
H283 H 0.68473 0.60681 0.63619 0.0
H284 H 0.72194 0.6239 0.63992 0.0
H285 H 0.71883 0.60063 0.65235 0.0
H286 H 0.78606 0.57428 0.62538 0.0
H287 H 0.778 0.58614 0.6459 0.0
H288 H 0.79954 0.59995 0.62828 0.0
H289 H 0.67631 0.59885 0.52817 0.0
H290 H 0.72817 0.65828 0.52086 0.0
H291 H 0.74921 0.6582 0.55046 0.0
H292 H 0.74475 0.5793 0.54981 0.0
H293 H 0.70016 0.56687 0.54748 0.0
H294 H 0.72666 0.56523 0.56725 0.0
H295 H 0.64201 0.60817 0.56514 0.0
H296 H 0.64853 0.58678 0.57854 0.0
H297 H 0.64324 0.58307 0.55563 0.0
H298 H 0.65956 0.53119 0.60222 0.0
C299 C 0.68689 0.55978 0.59657 0.0
C300 C 0.70084 0.83671 0.12913 0.0
C301 C 0.68837 0.8182 0.12175 0.0
C302 C 0.69439 0.81491 0.10396 0.0
C303 C 0.72525 0.84808 0.10145 0.0
C304 C 0.71906 0.85129 0.11884 0.0
C305 C 0.73474 0.87141 0.12499 0.0
H306 H 0.83133 0.95864 0.1089 0.0
C307 C 0.74579 0.86619 0.09466 0.0
C308 C 0.75126 0.87988 0.10846 0.0
H309 H 0.78582 0.93745 0.15741 0.0
H310 H 0.76032 0.90755 0.14342 0.0
H311 H 0.86265 0.91735 0.09726 0.0
H312 H 0.75741 0.94547 0.08535 0.0
H313 H 0.77454 0.93474 0.06614 0.0
H314 H 0.80119 0.9545 0.07694 0.0
H315 H 0.85867 0.9372 0.08136 0.0
H316 H 0.85258 0.91047 0.07591 0.0
C317 C 0.76527 0.86691 0.13869 0.0
C318 C 0.70187 0.88469 0.13155 0.0
C319 C 0.78787 0.8692 0.0318 0.0
C320 C 0.80843 0.88389 0.02234 0.0
C321 C 0.81963 0.90216 0.03067 0.0
C322 C 0.81081 0.90574 0.04796 0.0
C323 C 0.79082 0.89086 0.05727 0.0
C324 C 0.77941 0.873 0.04919 0.0
C325 C 0.75862 0.85893 0.06134 0.0
C326 C 0.75995 0.87122 0.07801 0.0
C327 C 0.7789 0.88992 0.07547 0.0
C328 C 0.78064 0.83862 0.06276 0.0
C329 C 0.71819 0.85633 0.05457 0.0
C330 C 0.81541 0.94769 0.11644 0.0
C331 C 0.81081 0.95037 0.13432 0.0
C332 C 0.79029 0.93559 0.14368 0.0
C333 C 0.77533 0.91826 0.13551 0.0
C334 C 0.78093 0.91551 0.11774 0.0
C335 C 0.80041 0.93016 0.10847 0.0
C336 C 0.80437 0.92434 0.08978 0.0
C337 C 0.78433 0.90371 0.08944 0.0
C338 C 0.77055 0.8987 0.10582 0.0
C339 C 0.84665 0.92233 0.08569 0.0
C340 C 0.78361 0.9406 0.07885 0.0
H341 H 0.71627 0.82635 0.08035 0.0
H342 H 0.69729 0.83965 0.14278 0.0
H343 H 0.67658 0.88233 0.1234 0.0
H344 H 0.70767 0.90132 0.13082 0.0
H345 H 0.69433 0.88062 0.14501 0.0
H346 H 0.7795 0.85211 0.13601 0.0
H347 H 0.75308 0.8659 0.15183 0.0
H348 H 0.78806 0.8784 0.13872 0.0
H349 H 0.77848 0.85508 0.02581 0.0
H350 H 0.83604 0.9136 0.02391 0.0
H351 H 0.82043 0.9199 0.05347 0.0
H352 H 0.81126 0.84166 0.06297 0.0
H353 H 0.77462 0.82842 0.05161 0.0
H354 H 0.77488 0.83018 0.0748 0.0
H355 H 0.70736 0.87114 0.04954 0.0
H356 H 0.69833 0.85169 0.06474 0.0
H357 H 0.71694 0.84496 0.04391 0.0
H358 H 0.68475 0.80089 0.09788 0.0
C359 C 0.71259 0.82976 0.09378 0.0
C360 C 0.19723 0.93845 0.37621 0.0
C361 C 0.17638 0.95501 0.38256 0.0
C362 C 0.16743 0.95563 0.40027 0.0
C363 C 0.19915 0.92329 0.4048 0.0
C364 C 0.20822 0.92285 0.38749 0.0
C365 C 0.22956 0.90392 0.38266 0.0
H366 H 0.30408 0.81257 0.40499 0.0
C367 C 0.21415 0.90448 0.41284 0.0
C368 C 0.23217 0.89315 0.39996 0.0
H369 H 0.29888 0.84095 0.35469 0.0
H370 H 0.26935 0.87066 0.36683 0.0
H371 H 0.32583 0.85493 0.42659 0.0
H372 H 0.22091 0.82465 0.41591 0.0
H373 H 0.2207 0.83248 0.43758 0.0
H374 H 0.25488 0.81415 0.43046 0.0
H375 H 0.31291 0.8311 0.4366 0.0
H376 H 0.29877 0.85544 0.4455 0.0
C377 C 0.26851 0.91067 0.37595 0.0
C378 C 0.20568 0.89153 0.36952 0.0
C379 C 0.18923 0.89014 0.47613 0.0
C380 C 0.19902 0.87395 0.48721 0.0
C381 C 0.2216 0.858 0.48074 0.0
C382 C 0.23345 0.85794 0.46351 0.0
C383 C 0.2227 0.87401 0.45254 0.0
C384 C 0.20141 0.88989 0.45898 0.0
C385 C 0.19317 0.90588 0.44556 0.0
C386 C 0.2125 0.8968 0.42995 0.0
C387 C 0.2296 0.87805 0.43406 0.0
C388 C 0.21156 0.92634 0.45134 0.0
C389 C 0.15023 0.9069 0.44312 0.0
C390 C 0.29685 0.82536 0.39673 0.0
C391 C 0.30356 0.8245 0.37887 0.0
C392 C 0.29359 0.84127 0.36844 0.0
C393 C 0.27644 0.85851 0.37553 0.0
C394 C 0.26872 0.85899 0.39327 0.0
C395 C 0.27906 0.84269 0.40362 0.0
C396 C 0.26724 0.84582 0.4221 0.0
C397 C 0.24799 0.86656 0.421 0.0
C398 C 0.24917 0.87414 0.40407 0.0
C399 C 0.30285 0.84675 0.43343 0.0
C400 C 0.23966 0.82837 0.42695 0.0
H401 H 0.17103 0.94126 0.42472 0.0
H402 H 0.20415 0.93737 0.36264 0.0
H403 H 0.17528 0.8938 0.37181 0.0
H404 H 0.20961 0.87478 0.37062 0.0
H405 H 0.21169 0.89638 0.35607 0.0
H406 H 0.27896 0.92432 0.38315 0.0
H407 H 0.26733 0.91484 0.36207 0.0
H408 H 0.29021 0.89889 0.37787 0.0
H409 H 0.17177 0.90259 0.48057 0.0
H410 H 0.23035 0.84555 0.48903 0.0
H411 H 0.25038 0.84534 0.45938 0.0
H412 H 0.23793 0.92352 0.45856 0.0
H413 H 0.19269 0.93516 0.45991 0.0
H414 H 0.22001 0.93612 0.44036 0.0
H415 H 0.13757 0.8913 0.44384 0.0
H416 H 0.14186 0.91286 0.43038 0.0
H417 H 0.13712 0.91642 0.45331 0.0
H418 H 0.15178 0.96836 0.40552 0.0
C419 C 0.17879 0.93991 0.41141 0.0
C420 C 0.2047 0.66307 0.87712 0.0
C421 C 0.19192 0.68156 0.8843 0.0
C422 C 0.19766 0.68503 0.9021 0.0
C423 C 0.22864 0.6521 0.90495 0.0
C424 C 0.22253 0.64865 0.88759 0.0
C425 C 0.23719 0.6283 0.88171 0.0
H426 H 0.33859 0.54362 0.89773 0.0
C427 C 0.24864 0.63403 0.91197 0.0
C428 C 0.25338 0.62003 0.89836 0.0
H429 H 0.28234 0.56081 0.85044 0.0
H430 H 0.25692 0.59046 0.86437 0.0
H431 H 0.36418 0.5895 0.91016 0.0
H432 H 0.26939 0.55098 0.92096 0.0
H433 H 0.27508 0.56634 0.93938 0.0
H434 H 0.31175 0.54886 0.93316 0.0
H435 H 0.36623 0.56555 0.92158 0.0
H436 H 0.3565 0.58913 0.93263 0.0
C437 C 0.26785 0.63238 0.86801 0.0
C438 C 0.20376 0.61512 0.87523 0.0
C439 C 0.29259 0.63239 0.97458 0.0
C440 C 0.31089 0.61729 0.98436 0.0
C441 C 0.3201 0.59848 0.97662 0.0
C442 C 0.31202 0.59485 0.95923 0.0
C443 C 0.29417 0.61012 0.94949 0.0
C444 C 0.28402 0.62836 0.95723 0.0
C445 C 0.26322 0.64221 0.94499 0.0
C446 C 0.2633 0.6294 0.92859 0.0
C447 C 0.28198 0.61075 0.93132 0.0
C448 C 0.28595 0.6623 0.94292 0.0
C449 C 0.2232 0.64531 0.95205 0.0
C450 C 0.32056 0.55364 0.89037 0.0
C451 C 0.31341 0.54998 0.87275 0.0
C452 C 0.28952 0.5635 0.86382 0.0
C453 C 0.27443 0.5807 0.87198 0.0
C454 C 0.28297 0.58453 0.88936 0.0
C455 C 0.30486 0.57084 0.89839 0.0
C456 C 0.30908 0.57684 0.91704 0.0
C457 C 0.28721 0.59679 0.91748 0.0
C458 C 0.27247 0.6013 0.90118 0.0
C459 C 0.35117 0.58038 0.92071 0.0
C460 C 0.29067 0.55991 0.92831 0.0
H461 H 0.21953 0.67402 0.92585 0.0
H462 H 0.20151 0.65988 0.86349 0.0
H463 H 0.17721 0.61965 0.88162 0.0
H464 H 0.20688 0.59866 0.87838 0.0
H465 H 0.19969 0.61684 0.86111 0.0
H466 H 0.28563 0.64568 0.87185 0.0
H467 H 0.25526 0.63595 0.85527 0.0
H468 H 0.28742 0.61951 0.86644 0.0
H469 H 0.28483 0.64688 0.98038 0.0
H470 H 0.33425 0.58672 0.98399 0.0
H471 H 0.32024 0.58034 0.95402 0.0
H472 H 0.31627 0.65891 0.94166 0.0
H473 H 0.2823 0.67243 0.95431 0.0
H474 H 0.27851 0.67095 0.9312 0.0
H475 H 0.2126 0.63103 0.95825 0.0
H476 H 0.20269 0.64877 0.94182 0.0
H477 H 0.22259 0.65771 0.96187 0.0
H478 H 0.18771 0.69896 0.90812 0.0
C479 C 0.21595 0.67044 0.91244 0.0
Eu480 Eu 0.05016 0.14022 0.23753 0.0
C481 C 0.88093 0.12325 0.25495 0.0
N482 N 0.89884 0.14164 0.25604 0.0
C483 C 0.84675 0.1584 0.24279 0.0
C484 C 0.84522 0.12171 0.24733 0.0
C485 C 0.88227 0.15914 0.25028 0.0
C486 C 0.8282 0.13959 0.24122 0.0
C487 C 0.88107 0.0865 0.25996 0.0
C488 C 0.89877 0.10584 0.26116 0.0
C489 C 0.84566 0.08489 0.25223 0.0
C490 C 0.82778 0.10243 0.24595 0.0
Eu491 Eu 0.95909 0.14144 0.26836 0.0
N492 N 0.93345 0.10779 0.26826 0.0
C493 C 0.89934 0.06936 0.26672 0.0
C494 C 0.95013 0.09136 0.27588 0.0
C495 C 0.93377 0.07187 0.27494 0.0
H496 H 0.89624 0.17374 0.25172 0.0
H497 H 0.9475 0.05884 0.28078 0.0
H498 H 0.11145 0.10715 0.25451 0.0
H499 H 0.06479 0.22233 0.22442 0.0
H500 H 0.97544 0.09316 0.28314 0.0
H501 H 0.8867 0.05425 0.26604 0.0
H502 H 0.03381 0.18865 0.22372 0.0
H503 H 0.83369 0.17233 0.23823 0.0
H504 H 0.83176 0.07014 0.25114 0.0
H505 H 0.80042 0.10094 0.24007 0.0
H506 H 0.17434 0.10787 0.26766 0.0
H507 H 0.80073 0.13905 0.23534 0.0
H508 H 0.1269 0.2261 0.2381 0.0
N509 N 0.10986 0.13927 0.25025 0.0
C510 C 0.1286 0.15745 0.25103 0.0
C511 C 0.16169 0.12194 0.26316 0.0
C512 C 0.16478 0.15854 0.2582 0.0
C513 C 0.12591 0.12159 0.25592 0.0
C514 C 0.18118 0.1405 0.26437 0.0
N515 N 0.07615 0.17363 0.23813 0.0
C516 C 0.05998 0.19014 0.23039 0.0
C517 C 0.13046 0.19405 0.24519 0.0
C518 C 0.11138 0.17507 0.24474 0.0
C519 C 0.11309 0.21127 0.23808 0.0
C520 C 0.07794 0.20924 0.23043 0.0
H521 H 0.20896 0.14071 0.26994 0.0
H522 H 0.21127 0.17865 0.26443 0.0
H523 H 0.18136 0.20967 0.25296 0.0
O524 O 0.05469 0.14609 0.20986 0.0
O525 O 0.05596 0.15494 0.26408 0.0
O526 O 0.99799 0.16877 0.26824 0.0
O527 O 0.09094 0.12386 0.22183 0.0
O528 O 0.99761 0.15589 0.22755 0.0
O529 O 0.96722 0.16934 0.25127 0.0
O530 O 0.95667 0.1376 0.29683 0.0
O531 O 0.95343 0.12695 0.24174 0.0
O532 O 0.01104 0.11281 0.23645 0.0
O533 O 0.91986 0.15909 0.28348 0.0
O534 O 0.0117 0.12524 0.27788 0.0
O535 O 0.0411 0.11193 0.25381 0.0
C536 C 0.03357 0.16779 0.27188 0.0
C537 C 0.07473 0.11858 0.19261 0.0
C538 C 0.08128 0.11207 0.16186 0.0
C539 C 0.06335 0.09305 0.16397 0.0
C540 C 0.05683 0.09952 0.19457 0.0
C541 C 0.05126 0.08681 0.18028 0.0
C542 C 0.087 0.1248 0.17622 0.0
C543 C 0.97414 0.16897 0.23459 0.0
C544 C 0.08033 0.13229 0.20743 0.0
C545 C 0.18347 0.17751 0.25895 0.0
C546 C 0.1664 0.19519 0.25244 0.0
C547 C 0.97466 0.11319 0.2343 0.0
C548 C 0.91344 0.1583 0.31447 0.0
C549 C 0.90076 0.15457 0.34527 0.0
C550 C 0.88215 0.17345 0.3451 0.0
C551 C 0.89446 0.17714 0.31468 0.0
C552 C 0.91658 0.14694 0.32992 0.0
C553 C 0.87902 0.18464 0.32989 0.0
C554 C 0.03426 0.11192 0.27048 0.0
C555 C 0.93042 0.15132 0.29812 0.0
H556 H 0.05883 0.08304 0.153 0.0
H557 H 0.04723 0.09449 0.20712 0.0
H558 H 0.03748 0.07211 0.18185 0.0
H559 H 0.10071 0.13955 0.17461 0.0
H560 H 0.86982 0.1795 0.35679 0.0
H561 H 0.89184 0.18627 0.30307 0.0
H562 H 0.93104 0.13237 0.33002 0.0
H563 H 0.8646 0.19919 0.32989 0.0
Eu564 Eu 0.45745 0.36004 0.73858 0.0
C565 C 0.62493 0.37808 0.75463 0.0
N566 N 0.60748 0.35952 0.75526 0.0
C567 C 0.65854 0.34391 0.74033 0.0
C568 C 0.65982 0.3803 0.7464 0.0
C569 C 0.6238 0.34247 0.74846 0.0
C570 C 0.67658 0.36291 0.73923 0.0
C571 C 0.62434 0.41455 0.76098 0.0
C572 C 0.60723 0.39504 0.76182 0.0
C573 C 0.65902 0.41682 0.75272 0.0
C574 C 0.67672 0.39975 0.74547 0.0
Eu575 Eu 0.54912 0.35856 0.76925 0.0
N576 N 0.57319 0.39249 0.76945 0.0
C577 C 0.6062 0.43122 0.76859 0.0
C578 C 0.55662 0.40845 0.77778 0.0
C579 C 0.57244 0.42809 0.77721 0.0
H580 H 0.61028 0.32769 0.74955 0.0
H581 H 0.55883 0.44076 0.78363 0.0
H582 H 0.39761 0.39475 0.75448 0.0
H583 H 0.44075 0.27736 0.72905 0.0
H584 H 0.53182 0.40613 0.78531 0.0
H585 H 0.61842 0.44645 0.76821 0.0
H586 H 0.47429 0.31027 0.72869 0.0
H587 H 0.67142 0.33035 0.73495 0.0
H588 H 0.67247 0.43171 0.75191 0.0
H589 H 0.70347 0.40176 0.73915 0.0
H590 H 0.33282 0.39572 0.76538 0.0
H591 H 0.70345 0.36398 0.73286 0.0
H592 H 0.37515 0.27582 0.73895 0.0
N593 N 0.39667 0.36266 0.7498 0.0
C594 C 0.3762 0.34504 0.74979 0.0
C595 C 0.34475 0.38136 0.76113 0.0
C596 C 0.33888 0.34496 0.75561 0.0
C597 C 0.38158 0.38072 0.75519 0.0
C598 C 0.32329 0.3634 0.76134 0.0
N599 N 0.42949 0.32719 0.7395 0.0
C600 C 0.44636 0.30982 0.73367 0.0
C601 C 0.37234 0.30835 0.74443 0.0
C602 C 0.39288 0.32688 0.74432 0.0
C603 C 0.38999 0.29035 0.73905 0.0
C604 C 0.4271 0.29112 0.73357 0.0
H605 H 0.29471 0.36396 0.76591 0.0
H606 H 0.28965 0.3262 0.76001 0.0
H607 H 0.31887 0.29421 0.75019 0.0
O608 O 0.45501 0.35386 0.7109 0.0
O609 O 0.45085 0.34369 0.76446 0.0
O610 O 0.50975 0.33148 0.76981 0.0
O611 O 0.41791 0.37625 0.72206 0.0
O612 O 0.50992 0.34441 0.72851 0.0
O613 O 0.53925 0.33068 0.75242 0.0
O614 O 0.55688 0.36174 0.79765 0.0
O615 O 0.5531 0.37311 0.74254 0.0
O616 O 0.49569 0.38786 0.73837 0.0
O617 O 0.59071 0.34052 0.78256 0.0
O618 O 0.49653 0.37381 0.77973 0.0
O619 O 0.46684 0.38754 0.75586 0.0
C620 C 0.47394 0.332 0.77322 0.0
C621 C 0.43459 0.38062 0.69283 0.0
C622 C 0.42639 0.38644 0.66201 0.0
C623 C 0.44627 0.40498 0.66355 0.0
C624 C 0.45436 0.39919 0.69418 0.0
C625 C 0.45996 0.41136 0.67958 0.0
C626 C 0.42034 0.37436 0.67675 0.0
C627 C 0.53343 0.33146 0.73568 0.0
C628 C 0.42911 0.3674 0.70795 0.0
C629 C 0.31839 0.32653 0.75562 0.0
C630 C 0.33503 0.30831 0.75003 0.0
C631 C 0.53191 0.3874 0.73582 0.0
C632 C 0.60496 0.34149 0.81303 0.0
C633 C 0.61677 0.34065 0.84417 0.0
C634 C 0.6465 0.32707 0.84125 0.0
C635 C 0.63492 0.32789 0.81065 0.0
C636 C 0.59614 0.34809 0.82993 0.0
C637 C 0.65549 0.32082 0.82464 0.0
C638 C 0.47297 0.38683 0.7726 0.0
C639 C 0.58363 0.34822 0.79764 0.0
H640 H 0.45108 0.41455 0.65234 0.0
H641 H 0.46549 0.40423 0.70647 0.0
H642 H 0.47516 0.4257 0.68066 0.0
H643 H 0.40525 0.35995 0.67563 0.0
H644 H 0.66325 0.32145 0.85189 0.0
H645 H 0.64263 0.32265 0.79789 0.0
H646 H 0.57319 0.35858 0.83201 0.0
H647 H 0.67856 0.31042 0.82259 0.0
Eu648 Eu 0.05276 0.85932 0.73535 0.0
C649 C 0.88015 0.84819 0.76228 0.0
N650 N 0.90119 0.8656 0.76181 0.0
C651 C 0.84745 0.885 0.7532 0.0
C652 C 0.84204 0.84844 0.75759 0.0
C653 C 0.88497 0.88404 0.75816 0.0
C654 C 0.82602 0.86708 0.75266 0.0
C655 C 0.87438 0.81234 0.77037 0.0
C656 C 0.89598 0.83038 0.76872 0.0
C657 C 0.83694 0.81229 0.76494 0.0
C658 C 0.82079 0.83031 0.75859 0.0
Eu659 Eu 0.96443 0.86228 0.7705 0.0
N660 N 0.93219 0.8309 0.77396 0.0
C661 C 0.89088 0.795 0.77777 0.0
C662 C 0.9478 0.81442 0.78205 0.0
C663 C 0.92763 0.79612 0.78381 0.0
H664 H 0.90083 0.89814 0.75917 0.0
H665 H 0.94035 0.78296 0.78991 0.0
H666 H 0.10738 0.82422 0.75508 0.0
H667 H 0.09252 0.93455 0.70976 0.0
H668 H 0.97588 0.81541 0.78703 0.0
H669 H 0.87524 0.78083 0.77923 0.0
H670 H 0.0534 0.90357 0.71254 0.0
H671 H 0.83498 0.89961 0.75002 0.0
H672 H 0.81999 0.79853 0.76599 0.0
H673 H 0.79158 0.83019 0.75491 0.0
H674 H 0.1682 0.82287 0.76982 0.0
H675 H 0.79683 0.86791 0.749 0.0
H676 H 0.15331 0.93662 0.72489 0.0
N677 N 0.11209 0.85579 0.74851 0.0
C678 C 0.13542 0.87226 0.74737 0.0
C679 C 0.1591 0.83698 0.7638 0.0
C680 C 0.17101 0.87202 0.75522 0.0
C681 C 0.12416 0.83793 0.75576 0.0
C682 C 0.1824 0.85421 0.76378 0.0
N683 N 0.08956 0.88904 0.73049 0.0
C684 C 0.07885 0.90468 0.71992 0.0
C685 C 0.14778 0.90649 0.73639 0.0
C686 C 0.1239 0.8893 0.73804 0.0
C687 C 0.13584 0.92312 0.72644 0.0
C688 C 0.10145 0.92207 0.71797 0.0
H689 H 0.20952 0.8534 0.76997 0.0
H690 H 0.22157 0.8895 0.76014 0.0
H691 H 0.20121 0.91969 0.74368 0.0
O692 O 0.07046 0.8614 0.70832 0.0
O693 O 0.06301 0.87625 0.76056 0.0
O694 O 0.00431 0.88865 0.76585 0.0
O695 O 0.07201 0.83189 0.72176 0.0
O696 O 0.0089 0.8832 0.72826 0.0
O697 O 0.95908 0.88463 0.74807 0.0
O698 O 0.96838 0.85811 0.79861 0.0
O699 O 0.96579 0.8353 0.7518 0.0
O700 O 0.99271 0.85135 0.72882 0.0
O701 O 0.93847 0.88385 0.78822 0.0
O702 O 0.02065 0.84893 0.77756 0.0
O703 O 0.04135 0.8323 0.75326 0.0
C704 C 0.04027 0.8885 0.76892 0.0
C705 C 0.09285 0.83211 0.69179 0.0
C706 C 0.10604 0.83266 0.66086 0.0
C707 C 0.11942 0.81248 0.66207 0.0
C708 C 0.10637 0.81196 0.69263 0.0
C709 C 0.11971 0.80227 0.67786 0.0
C710 C 0.09314 0.84255 0.67585 0.0
C711 C 0.97678 0.89062 0.73395 0.0
C712 C 0.07833 0.84198 0.70753 0.0
C713 C 0.1943 0.88935 0.75405 0.0
C714 C 0.18273 0.90653 0.74465 0.0
C715 C 0.9742 0.8358 0.7353 0.0
C716 C 0.91575 0.87001 0.81424 0.0
C717 C 0.89241 0.86776 0.84372 0.0
C718 C 0.8561 0.86482 0.83732 0.0
C719 C 0.87913 0.86703 0.80812 0.0
C720 C 0.92231 0.87042 0.83216 0.0
C721 C 0.84955 0.86449 0.8196 0.0
C722 C 0.03683 0.83325 0.7701 0.0
C723 C 0.9467 0.87355 0.80204 0.0
H724 H 0.1301 0.80465 0.65079 0.0
H725 H 0.10675 0.80366 0.70474 0.0
H726 H 0.13027 0.78677 0.67865 0.0
H727 H 0.08272 0.8581 0.675 0.0
H728 H 0.83277 0.8629 0.84608 0.0
H729 H 0.87319 0.86695 0.79447 0.0
H730 H 0.95038 0.87284 0.83706 0.0
H731 H 0.82142 0.86237 0.81476 0.0
Eu732 Eu 0.45458 0.63853 0.23592 0.0
C733 C 0.62618 0.6479 0.25817 0.0
N734 N 0.60298 0.6315 0.26024 0.0
C735 C 0.65206 0.60863 0.25199 0.0
C736 C 0.66317 0.64522 0.25233 0.0
C737 C 0.61563 0.61202 0.25776 0.0
C738 C 0.67585 0.6253 0.24911 0.0
C739 C 0.63648 0.68474 0.25966 0.0
C740 C 0.61313 0.66746 0.26206 0.0
C741 C 0.67309 0.68209 0.2536 0.0
C742 C 0.68645 0.6624 0.25002 0.0
Eu743 Eu 0.54243 0.63893 0.27031 0.0
N744 N 0.57746 0.66965 0.26784 0.0
C745 C 0.62229 0.70421 0.26335 0.0
C746 C 0.56368 0.68861 0.27165 0.0
C747 C 0.58577 0.70613 0.26939 0.0
H748 H 0.59812 0.599 0.26075 0.0
H749 H 0.57457 0.72114 0.27228 0.0
H750 H 0.38702 0.67268 0.24427 0.0
H751 H 0.43562 0.55791 0.21904 0.0
H752 H 0.53558 0.69044 0.27624 0.0
H753 H 0.6393 0.71784 0.26159 0.0
H754 H 0.46812 0.59149 0.21994 0.0
H755 H 0.6619 0.59314 0.24997 0.0
H756 H 0.69137 0.6952 0.2517 0.0
H757 H 0.71488 0.66061 0.2455 0.0
H758 H 0.32279 0.67302 0.25607 0.0
H759 H 0.70411 0.62262 0.24468 0.0
H760 H 0.37328 0.55407 0.23249 0.0
N761 N 0.39216 0.64038 0.24573 0.0
C762 C 0.37348 0.62224 0.24709 0.0
C763 C 0.33699 0.65861 0.254 0.0
C764 C 0.3361 0.62158 0.25283 0.0
C765 C 0.37372 0.65844 0.24789 0.0
C766 C 0.31834 0.64006 0.25687 0.0
N767 N 0.42583 0.60587 0.23476 0.0
C768 C 0.44135 0.58974 0.22615 0.0
C769 C 0.37072 0.58578 0.24076 0.0
C770 C 0.39052 0.60452 0.24113 0.0
C771 C 0.38764 0.56872 0.2331 0.0
C772 C 0.42285 0.57081 0.2255 0.0
H773 H 0.28963 0.64022 0.26129 0.0
H774 H 0.28844 0.60189 0.25801 0.0
H775 H 0.31877 0.57054 0.24742 0.0
O776 O 0.4679 0.63669 0.20835 0.0
O777 O 0.46078 0.61204 0.25461 0.0
O778 O 0.4832 0.63019 0.27718 0.0
O779 O 0.41457 0.64845 0.2164 0.0
O780 O 0.51107 0.62519 0.229 0.0
O781 O 0.53507 0.61052 0.25364 0.0
O782 O 0.56134 0.64741 0.29625 0.0
O783 O 0.54886 0.65418 0.24398 0.0
O784 O 0.49031 0.6672 0.23831 0.0
O785 O 0.55802 0.61538 0.28898 0.0
O786 O 0.49595 0.66058 0.27739 0.0
O787 O 0.44968 0.66454 0.25613 0.0
C788 C 0.4669 0.61378 0.27115 0.0
C789 C 0.43534 0.65793 0.18866 0.0
C790 C 0.42524 0.66303 0.1578 0.0
C791 C 0.43044 0.68425 0.16023 0.0
C792 C 0.4406 0.67909 0.19083 0.0
C793 C 0.43808 0.69217 0.17662 0.0
C794 C 0.42767 0.64996 0.17218 0.0
C795 C 0.52943 0.61046 0.23685 0.0
C796 C 0.43581 0.6439 0.20342 0.0
C797 C 0.31704 0.60271 0.25348 0.0
C798 C 0.33429 0.58485 0.24742 0.0
C799 C 0.5268 0.66757 0.23639 0.0
C800 C 0.59867 0.62406 0.31222 0.0
C801 C 0.62478 0.62005 0.34119 0.0
C802 C 0.6582 0.613 0.33382 0.0
C803 C 0.63247 0.61726 0.30516 0.0
C804 C 0.59511 0.62573 0.33026 0.0
C805 C 0.66204 0.61178 0.31593 0.0
C806 C 0.46563 0.66937 0.27115 0.0
C807 C 0.5662 0.6285 0.30115 0.0
H808 H 0.42801 0.69478 0.14948 0.0
H809 H 0.44623 0.68545 0.20348 0.0
H810 H 0.44176 0.70854 0.17833 0.0
H811 H 0.42367 0.63356 0.17058 0.0
H812 H 0.68156 0.60867 0.34192 0.0
H813 H 0.63594 0.61599 0.29138 0.0
H814 H 0.56899 0.63092 0.3358 0.0
H815 H 0.68799 0.60644 0.3104 0.0
H816 H 0.2158 0.974 0.35685 0.0
H817 H 0.19361 0.00046 0.3369 0.0
H818 H 0.08566 0.99936 0.3615 0.0
H819 H 0.1074 0.97273 0.38135 0.0
H820 H 0.08777 0.9969 0.32287 0.0
H821 H 0.16864 0.06176 0.3514 0.0
H822 H 0.19337 0.03825 0.34735 0.0
H823 H 0.15743 0.03882 0.36343 0.0
C824 C 0.1873 0.97934 0.35796 0.0
C825 C 0.16337 0.97135 0.37071 0.0
C826 C 0.17478 0.99451 0.34664 0.0
C827 C 0.13814 0.00188 0.34786 0.0
C828 C 0.1141 0.99387 0.36045 0.0
H829 H 0.03635 0.1101 0.30566 0.0
H830 H 0.06196 0.08284 0.32364 0.0
C831 C 0.12664 0.97879 0.37184 0.0
C832 C 0.1247 0.0179 0.33593 0.0
H833 H 0.13306 0.06882 0.32655 0.0
C834 C 0.09765 0.01263 0.32359 0.0
C835 C 0.13756 0.03837 0.3371 0.0
C836 C 0.16569 0.04482 0.35058 0.0
C837 C 0.08294 0.0274 0.31232 0.0
C838 C 0.09608 0.04788 0.31335 0.0
C839 C 0.12321 0.05309 0.32572 0.0
C840 C 0.08097 0.06436 0.30222 0.0
C841 C 0.05275 0.02101 0.29978 0.0
C842 C 0.08354 0.06314 0.28419 0.0
C843 C 0.0685 0.0786 0.27384 0.0
C844 C 0.05123 0.09576 0.28135 0.0
C845 C 0.0494 0.0971 0.29943 0.0
C846 C 0.06411 0.08155 0.30975 0.0
H847 H 0.03918 0.00637 0.30368 0.0
H848 H 0.03094 0.033 0.29866 0.0
H849 H 0.06534 0.01871 0.28686 0.0
H850 H 0.09714 0.05023 0.27811 0.0
H851 H 0.07017 0.07701 0.25996 0.0
H852 H 0.32896 0.51128 0.88509 0.0
H853 H 0.35904 0.48306 0.86976 0.0
H854 H 0.36574 0.52032 0.82391 0.0
H855 H 0.33845 0.54898 0.83937 0.0
H856 H 0.33683 0.46192 0.8423 0.0
H857 H 0.4705 0.50028 0.82635 0.0
H858 H 0.43775 0.51106 0.84146 0.0
H859 H 0.43143 0.51469 0.8186 0.0
C860 C 0.33754 0.51364 0.87186 0.0
C861 C 0.33125 0.53252 0.86353 0.0
C862 C 0.35445 0.49741 0.86306 0.0
C863 C 0.36534 0.49968 0.84577 0.0
C864 C 0.35857 0.51835 0.83737 0.0
H865 H 0.44324 0.4236 0.76284 0.0
H866 H 0.41663 0.45006 0.78146 0.0
C867 C 0.34221 0.53464 0.84619 0.0
C868 C 0.38247 0.48235 0.83624 0.0
H869 H 0.45596 0.46981 0.81027 0.0
C870 C 0.36311 0.46357 0.83548 0.0
C871 C 0.41689 0.48446 0.8274 0.0
C872 C 0.44051 0.50365 0.82864 0.0
C873 C 0.37652 0.44713 0.82559 0.0
C874 C 0.41016 0.44955 0.81628 0.0
C875 C 0.42994 0.46813 0.81731 0.0
C876 C 0.42507 0.43312 0.80512 0.0
C877 C 0.35415 0.42748 0.82475 0.0
C878 C 0.4387 0.41489 0.81231 0.0
C879 C 0.45388 0.39972 0.80171 0.0
C880 C 0.45561 0.40254 0.78374 0.0
C881 C 0.44183 0.42083 0.7766 0.0
C882 C 0.42681 0.43601 0.78721 0.0
H883 H 0.32561 0.42934 0.83013 0.0
H884 H 0.35181 0.42201 0.81122 0.0
H885 H 0.36868 0.41545 0.8323 0.0
H886 H 0.43806 0.41253 0.82613 0.0
H887 H 0.46438 0.38583 0.8076 0.0
H888 H 0.6843 0.50263 0.62003 0.0
H889 H 0.66009 0.47587 0.63935 0.0
H890 H 0.62944 0.52201 0.67646 0.0
H891 H 0.65329 0.54885 0.65725 0.0
H892 H 0.68177 0.47112 0.67896 0.0
H893 H 0.53197 0.48511 0.66356 0.0
H894 H 0.56899 0.4917 0.64869 0.0
H895 H 0.56182 0.5069 0.66765 0.0
C896 C 0.6723 0.50707 0.63228 0.0
C897 C 0.6707 0.52786 0.6371 0.0
C898 C 0.6587 0.49178 0.64333 0.0
C899 C 0.64291 0.49702 0.65927 0.0
C900 C 0.64149 0.5177 0.66418 0.0
H901 H 0.5139 0.42785 0.73436 0.0
H902 H 0.54334 0.45453 0.7167 0.0
C903 C 0.65532 0.53298 0.65323 0.0
C904 C 0.62736 0.48093 0.6707 0.0
H905 H 0.54507 0.46015 0.68452 0.0
C906 C 0.65191 0.46863 0.68022 0.0
C907 C 0.58844 0.478 0.67242 0.0
C908 C 0.56106 0.49101 0.66252 0.0
C909 C 0.6385 0.4536 0.69169 0.0
C910 C 0.5994 0.45023 0.69313 0.0
C911 C 0.57497 0.46262 0.68349 0.0
C912 C 0.58299 0.4341 0.70451 0.0
C913 C 0.66648 0.44206 0.70253 0.0
C914 C 0.5953 0.41366 0.70365 0.0
C915 C 0.57924 0.39858 0.71414 0.0
C916 C 0.54949 0.40345 0.72516 0.0
C917 C 0.53664 0.42372 0.72584 0.0
C918 C 0.55347 0.43894 0.71575 0.0
H919 H 0.6926 0.45109 0.70435 0.0
H920 H 0.65501 0.4382 0.71543 0.0
H921 H 0.6741 0.42762 0.69585 0.0
H922 H 0.61694 0.40925 0.69467 0.0
H923 H 0.5894 0.38298 0.7133 0.0
H924 H 0.81247 0.99077 0.1243 0.0
H925 H 0.83995 0.01991 0.14005 0.0
H926 H 0.87537 0.97908 0.18053 0.0
H927 H 0.84863 0.94993 0.16486 0.0
H928 H 0.82647 0.02101 0.1874 0.0
H929 H 0.96288 0.02535 0.15291 0.0
H930 H 0.92047 0.01949 0.14121 0.0
H931 H 0.93914 0.00112 0.15603 0.0
C932 C 0.82643 0.988 0.13648 0.0
C933 C 0.82814 0.96808 0.14341 0.0
C934 C 0.84193 0.00463 0.14546 0.0
C935 C 0.8595 0.00155 0.16142 0.0
C936 C 0.8617 0.98171 0.16826 0.0
H937 H 0.00129 0.0751 0.22676 0.0
H938 H 0.97162 0.04867 0.20897 0.0
C939 C 0.84625 0.96512 0.15933 0.0
C940 C 0.87512 0.01899 0.17127 0.0
H941 H 0.95365 0.04831 0.17588 0.0
C942 C 0.85414 0.02716 0.18487 0.0
C943 C 0.91135 0.02663 0.16798 0.0
C944 C 0.93506 0.01779 0.15377 0.0
C945 C 0.86873 0.04272 0.19549 0.0
C946 C 0.90502 0.05055 0.19214 0.0
C947 C 0.92581 0.0424 0.1784 0.0
C948 C 0.92254 0.06668 0.20306 0.0
C949 C 0.84565 0.05 0.21057 0.0
C950 C 0.90501 0.08568 0.20558 0.0
C951 C 0.92177 0.10072 0.21589 0.0
C952 C 0.95675 0.09721 0.22357 0.0
C953 C 0.97448 0.07831 0.22088 0.0
C954 C 0.95751 0.06319 0.21074 0.0
H955 H 0.82387 0.0386 0.21419 0.0
H956 H 0.86345 0.05309 0.22203 0.0
H957 H 0.83124 0.06442 0.20698 0.0
H958 H 0.87855 0.08899 0.19943 0.0
H959 H 0.90763 0.11523 0.2176 0.0
H960 H 0.88656 0.0362 0.63166 0.0
H961 H 0.91208 0.0074 0.64822 0.0
H962 H 0.8037 0.99619 0.67058 0.0
H963 H 0.77783 0.02483 0.65401 0.0
H964 H 0.89122 0.00529 0.69118 0.0
H965 H 0.8606 0.93953 0.64729 0.0
H966 H 0.87185 0.96463 0.63878 0.0
H967 H 0.82798 0.96045 0.64932 0.0
C968 C 0.86805 0.02737 0.63988 0.0
C969 C 0.83025 0.03278 0.64162 0.0
C970 C 0.88268 0.01103 0.64935 0.0
C971 C 0.85965 0.99979 0.66053 0.0
C972 C 0.82176 0.00476 0.66196 0.0
H973 H 0.90466 0.89198 0.7231 0.0
H974 H 0.87479 0.91903 0.70603 0.0
C975 C 0.80714 0.02114 0.65258 0.0
C976 C 0.87565 0.98362 0.6715 0.0
H977 H 0.89113 0.93213 0.67349 0.0
C978 C 0.8913 0.98928 0.68737 0.0
C979 C 0.87507 0.96284 0.66647 0.0
C980 C 0.85803 0.9563 0.64954 0.0
C981 C 0.90668 0.97456 0.69845 0.0
C982 C 0.90712 0.95374 0.69324 0.0
C983 C 0.89091 0.9481 0.67741 0.0
C984 C 0.92485 0.93764 0.70389 0.0
C985 C 0.92164 0.98142 0.71573 0.0
C986 C 0.96283 0.93912 0.70828 0.0
C987 C 0.97962 0.92391 0.71824 0.0
C988 C 0.95894 0.90677 0.72367 0.0
C989 C 0.92101 0.9052 0.71922 0.0
C990 C 0.90408 0.92052 0.70936 0.0
H991 H 0.90903 0.99616 0.71985 0.0
H992 H 0.9162 0.96973 0.72585 0.0
H993 H 0.95228 0.9838 0.71475 0.0
H994 H 0.97953 0.95202 0.70397 0.0
H995 H 0.00853 0.92578 0.72198 0.0
H996 H 0.61589 0.46509 0.13099 0.0
H997 H 0.58949 0.49382 0.14721 0.0
H998 H 0.69433 0.50196 0.17389 0.0
H999 H 0.72123 0.47371 0.1574 0.0
H1000 H 0.58175 0.49632 0.18276 0.0
H1001 H 0.66966 0.56014 0.15815 0.0
H1002 H 0.66657 0.53559 0.14746 0.0
H1003 H 0.69616 0.53879 0.16604 0.0
C1004 C 0.63353 0.47326 0.14007 0.0
C1005 C 0.67065 0.46713 0.14292 0.0
C1006 C 0.61833 0.48956 0.1494 0.0
C1007 C 0.64007 0.50013 0.16162 0.0
C1008 C 0.67725 0.49423 0.16433 0.0
H1009 H 0.5586 0.57359 0.24732 0.0
H1010 H 0.58605 0.54692 0.22914 0.0
C1011 C 0.69244 0.47794 0.15503 0.0
C1012 C 0.62339 0.51667 0.17218 0.0
H1013 H 0.63332 0.56709 0.18319 0.0
C1014 C 0.59286 0.51183 0.1828 0.0
C1015 C 0.6377 0.53692 0.17205 0.0
C1016 C 0.66909 0.54328 0.16019 0.0
C1017 C 0.57664 0.52665 0.19354 0.0
C1018 C 0.59191 0.5467 0.19393 0.0
C1019 C 0.62199 0.55163 0.18306 0.0
C1020 C 0.57638 0.563 0.20513 0.0
C1021 C 0.54291 0.52076 0.20414 0.0
C1022 C 0.56297 0.58115 0.19772 0.0
C1023 C 0.54805 0.59656 0.20808 0.0
C1024 C 0.54627 0.59417 0.2261 0.0
C1025 C 0.55997 0.57603 0.23352 0.0
C1026 C 0.57521 0.56065 0.22313 0.0
H1027 H 0.52876 0.50687 0.19892 0.0
H1028 H 0.55192 0.5173 0.21752 0.0
H1029 H 0.52237 0.53346 0.20463 0.0
H1030 H 0.56371 0.58331 0.18387 0.0
H1031 H 0.53781 0.61034 0.20191 0.0
H1032 H 0.28366 0.47453 0.3492 0.0
H1033 H 0.31268 0.50237 0.33306 0.0
H1034 H 0.40778 0.50102 0.36725 0.0
H1035 H 0.38034 0.47203 0.38268 0.0
H1036 H 0.33315 0.53995 0.34116 0.0
H1037 H 0.45953 0.49659 0.32183 0.0
H1038 H 0.42001 0.48439 0.33204 0.0
H1039 H 0.45365 0.49842 0.34474 0.0
C1040 C 0.31105 0.47985 0.35316 0.0
C1041 C 0.32988 0.47063 0.36709 0.0
C1042 C 0.32745 0.49598 0.34401 0.0
C1043 C 0.36286 0.5035 0.34865 0.0
C1044 C 0.38095 0.49509 0.36308 0.0
H1045 H 0.4664 0.61451 0.30646 0.0
H1046 H 0.44227 0.58801 0.32599 0.0
C1047 C 0.36484 0.47869 0.37209 0.0
C1048 C 0.38061 0.52002 0.33825 0.0
H1049 H 0.45776 0.53173 0.31412 0.0
C1050 C 0.36046 0.53815 0.33533 0.0
C1051 C 0.41612 0.5176 0.33043 0.0
C1052 C 0.43845 0.49813 0.33226 0.0
C1053 C 0.3748 0.55385 0.32482 0.0
C1054 C 0.41033 0.55147 0.31724 0.0
C1055 C 0.43064 0.53348 0.32016 0.0
C1056 C 0.42603 0.56719 0.30557 0.0
C1057 C 0.35154 0.57266 0.32141 0.0
C1058 C 0.42536 0.56401 0.28771 0.0
C1059 C 0.43913 0.57904 0.27655 0.0
C1060 C 0.45367 0.59757 0.28305 0.0
C1061 C 0.45506 0.6005 0.30102 0.0
C1062 C 0.44128 0.58542 0.31219 0.0
H1063 H 0.32338 0.57158 0.32736 0.0
H1064 H 0.36605 0.58641 0.32664 0.0
H1065 H 0.34826 0.57493 0.30729 0.0
H1066 H 0.41383 0.54996 0.2824 0.0
H1067 H 0.43841 0.57609 0.26284 0.0
H1068 H 0.21965 0.02932 0.84682 0.0
H1069 H 0.192 0.00106 0.83078 0.0
H1070 H 0.10349 0.9965 0.8683 0.0
H1071 H 0.12878 0.02617 0.88354 0.0
H1072 H 0.17956 0.96283 0.83788 0.0
H1073 H 0.04211 0.99934 0.8259 0.0
H1074 H 0.08088 0.01326 0.83515 0.0
H1075 H 0.05279 0.9965 0.84835 0.0
C1076 C 0.1938 0.02271 0.85152 0.0
C1077 C 0.17611 0.03051 0.86633 0.0
C1078 C 0.17827 0.00629 0.84241 0.0
C1079 C 0.14507 0.99695 0.84804 0.0
C1080 C 0.1284 0.00389 0.86334 0.0
H1081 H 0.01261 0.89912 0.80025 0.0
H1082 H 0.03846 0.92426 0.82062 0.0
C1083 C 0.14342 0.02067 0.87226 0.0
C1084 C 0.12826 0.98001 0.83778 0.0
H1085 H 0.04897 0.96512 0.81651 0.0
C1086 C 0.15098 0.96335 0.83323 0.0
C1087 C 0.0909 0.98063 0.83171 0.0
C1088 C 0.06536 0.99847 0.83538 0.0
C1089 C 0.13758 0.94742 0.82271 0.0
C1090 C 0.10046 0.94821 0.81648 0.0
C1091 C 0.07741 0.96456 0.82135 0.0
C1092 C 0.08533 0.93261 0.8044 0.0
C1093 C 0.16334 0.92986 0.81847 0.0
C1094 C 0.10276 0.92917 0.78846 0.0
C1095 C 0.08835 0.91462 0.77702 0.0
C1096 C 0.05581 0.90361 0.7811 0.0
C1097 C 0.03779 0.90741 0.79683 0.0
C1098 C 0.05255 0.92172 0.80845 0.0
H1099 H 0.18602 0.92837 0.82819 0.0
H1100 H 0.14783 0.9151 0.81773 0.0
H1101 H 0.17665 0.93276 0.80578 0.0
H1102 H 0.12726 0.93792 0.78476 0.0
H1103 H 0.10202 0.91246 0.7648 0.0
H1104 H 0.12357 0.12482 0.99827 0.0
H1105 H 0.10443 0.13011 0.02825 0.0
H1106 H 0.21959 0.12559 0.04447 0.0
H1107 H 0.23878 0.12147 0.01432 0.0
H1108 H 0.10926 0.10437 0.05303 0.0
H1109 H 0.18957 0.17298 0.0731 0.0
H1110 H 0.18586 0.16525 0.05082 0.0
H1111 H 0.21972 0.15345 0.06485 0.0
C1112 C 0.14473 0.12537 0.00827 0.0
C1113 C 0.18256 0.12283 0.00414 0.0
C1114 C 0.13386 0.12838 0.02537 0.0
C1115 C 0.16057 0.12857 0.03868 0.0
C1116 C 0.19852 0.12619 0.03446 0.0
H1117 H 0.1511 0.10928 0.14843 0.0
H1118 H 0.16986 0.11591 0.11842 0.0
C1119 C 0.20948 0.12364 0.01728 0.0
C1120 C 0.14823 0.12924 0.05698 0.0
H1121 H 0.16425 0.15218 0.09599 0.0
C1122 C 0.12095 0.11505 0.06233 0.0
C1123 C 0.16345 0.14315 0.06919 0.0
C1124 C 0.19097 0.1597 0.06415 0.0
C1125 C 0.10926 0.11396 0.07954 0.0
C1126 C 0.12524 0.12744 0.09181 0.0
C1127 C 0.15218 0.14182 0.08652 0.0
C1128 C 0.11514 0.12612 0.1103 0.0
C1129 C 0.08063 0.09797 0.08457 0.0
C1130 C 0.0785 0.13022 0.11571 0.0
C1131 C 0.06779 0.1263 0.13273 0.0
C1132 C 0.09371 0.11848 0.14457 0.0
C1133 C 0.1308 0.11536 0.13942 0.0
C1134 C 0.14147 0.11917 0.12237 0.0
H1135 H 0.07654 0.08625 0.07432 0.0
H1136 H 0.08901 0.09009 0.09666 0.0
H1137 H 0.05339 0.10554 0.08688 0.0
H1138 H 0.05793 0.13584 0.10663 0.0
H1139 H 0.03907 0.12884 0.13654 0.0
H1140 H 0.26634 0.37875 0.51384 0.0
H1141 H 0.28452 0.37518 0.5443 0.0
H1142 H 0.3997 0.3683 0.529 0.0
H1143 H 0.3817 0.37286 0.49873 0.0
H1144 H 0.3199 0.3462 0.56368 0.0
H1145 H 0.40705 0.41669 0.56069 0.0
H1146 H 0.37589 0.40935 0.54346 0.0
H1147 H 0.4211 0.39756 0.54546 0.0
C1148 C 0.29545 0.37633 0.51709 0.0
C1149 C 0.32279 0.37632 0.50413 0.0
C1150 C 0.30582 0.37427 0.53442 0.0
C1151 C 0.34361 0.37199 0.53897 0.0
C1152 C 0.37055 0.37069 0.52585 0.0
H1153 H 0.46856 0.3766 0.63431 0.0
H1154 H 0.44719 0.36961 0.60487 0.0
C1155 C 0.3603 0.37315 0.5086 0.0
C1156 C 0.35513 0.372 0.55738 0.0
H1157 H 0.41097 0.39715 0.58624 0.0
C1158 C 0.33978 0.35734 0.56865 0.0
C1159 C 0.38088 0.38665 0.56389 0.0
C1160 C 0.3969 0.40357 0.55279 0.0
C1161 C 0.35018 0.35664 0.58616 0.0
C1162 C 0.37623 0.37117 0.59258 0.0
C1163 C 0.3913 0.38587 0.5813 0.0
C1164 C 0.38831 0.37191 0.61093 0.0
C1165 C 0.33374 0.34011 0.59749 0.0
C1166 C 0.36233 0.37502 0.62426 0.0
C1167 C 0.37459 0.3787 0.64117 0.0
C1168 C 0.41298 0.37972 0.64487 0.0
C1169 C 0.43884 0.37594 0.63169 0.0
C1170 C 0.42662 0.37195 0.61491 0.0
H1171 H 0.32349 0.32686 0.58976 0.0
H1172 H 0.35452 0.33452 0.60701 0.0
H1173 H 0.30959 0.34646 0.60464 0.0
H1174 H 0.3327 0.37558 0.62148 0.0
H1175 H 0.35422 0.38175 0.65115 0.0
H1176 H 0.67215 0.34596 0.005 0.0
H1177 H 0.65452 0.34103 0.97478 0.0
H1178 H 0.65955 0.40641 0.96661 0.0
H1179 H 0.67954 0.41139 0.99634 0.0
H1180 H 0.59371 0.35468 0.95737 0.0
H1181 H 0.72154 0.38681 0.92709 0.0
H1182 H 0.71898 0.38106 0.94981 0.0
H1183 H 0.6991 0.40437 0.94149 0.0
C1184 C 0.67035 0.35927 0.9967 0.0
C1185 C 0.67738 0.37908 1.00321 0.0
C1186 C 0.65983 0.35644 0.97945 0.0
C1187 C 0.65613 0.37333 0.96833 0.0
C1188 C 0.66295 0.39309 0.97479 0.0
H1189 H 0.61052 0.37958 0.85734 0.0
H1190 H 0.61279 0.38926 0.88799 0.0
C1191 C 0.67387 0.39592 0.99194 0.0
C1192 C 0.64443 0.37031 0.95007 0.0
H1193 H 0.67104 0.37915 0.90843 0.0
C1194 C 0.61063 0.36003 0.94667 0.0
C1195 C 0.66633 0.37744 0.93608 0.0
C1196 C 0.70366 0.38786 0.93876 0.0
C1197 C 0.5982 0.35662 0.92969 0.0
C1198 C 0.62041 0.36344 0.9157 0.0
C1199 C 0.6538 0.37409 0.91912 0.0
C1200 C 0.61171 0.35802 0.89747 0.0
C1201 C 0.56127 0.34584 0.92695 0.0
C1202 C 0.60917 0.33733 0.89261 0.0
C1203 C 0.60755 0.33185 0.87522 0.0
C1204 C 0.60893 0.3469 0.86224 0.0
C1205 C 0.60909 0.36768 0.86706 0.0
C1206 C 0.61068 0.37319 0.88456 0.0
H1207 H 0.54222 0.34826 0.93807 0.0
H1208 H 0.54718 0.35122 0.91503 0.0
H1209 H 0.56615 0.3291 0.92579 0.0
H1210 H 0.61073 0.3253 0.90221 0.0
H1211 H 0.60739 0.31571 0.87188 0.0
H1212 H 0.88825 0.12921 0.50852 0.0
H1213 H 0.90497 0.13278 0.47798 0.0
H1214 H 0.7906 0.11981 0.46371 0.0
H1215 H 0.77367 0.11744 0.49429 0.0
H1216 H 0.90416 0.1066 0.45266 0.0
H1217 H 0.80751 0.16937 0.43537 0.0
H1218 H 0.81539 0.16179 0.45742 0.0
H1219 H 0.78294 0.14772 0.44405 0.0
C1220 C 0.86669 0.12753 0.49879 0.0
C1221 C 0.82963 0.12342 0.5036 0.0
C1222 C 0.87623 0.12943 0.48138 0.0
C1223 C 0.84896 0.12694 0.46847 0.0
C1224 C 0.81194 0.12249 0.47337 0.0
H1225 H 0.851 0.12642 0.35685 0.0
H1226 H 0.84162 0.11639 0.38706 0.0
C1227 C 0.80226 0.12104 0.4908 0.0
C1228 C 0.8595 0.12848 0.44994 0.0
H1229 H 0.83639 0.15186 0.41199 0.0
C1230 C 0.88945 0.1166 0.44381 0.0
C1231 C 0.84054 0.14162 0.43834 0.0
C1232 C 0.8101 0.156 0.44417 0.0
C1233 C 0.90046 0.1173 0.42641 0.0
C1234 C 0.8808 0.13 0.41483 0.0
C1235 C 0.85102 0.14189 0.42091 0.0
C1236 C 0.89118 0.13193 0.39641 0.0
C1237 C 0.93273 0.10436 0.42041 0.0
C1238 C 0.92285 0.14337 0.39163 0.0
C1239 C 0.92821 0.14907 0.3744 0.0
C1240 C 0.90212 0.14327 0.36174 0.0
C1241 C 0.87189 0.13064 0.36635 0.0
C1242 C 0.86639 0.12506 0.38359 0.0
H1243 H 0.94176 0.09321 0.4304 0.0
H1244 H 0.92499 0.09587 0.4085 0.0
H1245 H 0.95678 0.11449 0.41725 0.0
H1246 H 0.94195 0.1491 0.40138 0.0
H1247 H 0.95118 0.15924 0.37116 0.0
H1248 H 0.81042 0.91179 0.99592 0.0
H1249 H 0.83242 0.90657 0.96646 0.0
H1250 H 0.8519 0.84271 0.97743 0.0
H1251 H 0.83098 0.84786 0.00721 0.0
H1252 H 0.90716 0.88909 0.95643 0.0
H1253 H 0.78344 0.84507 0.9328 0.0
H1254 H 0.78117 0.8616 0.95147 0.0
H1255 H 0.8042 0.83729 0.95292 0.0
C1256 C 0.81964 0.89663 0.99217 0.0
C1257 C 0.81913 0.88027 0.00403 0.0
C1258 C 0.83208 0.89369 0.9753 0.0
C1259 C 0.84379 0.87428 0.96982 0.0
C1260 C 0.84275 0.85779 0.98143 0.0
H1261 H 0.89502 0.8351 0.86517 0.0
H1262 H 0.89019 0.83561 0.89672 0.0
C1263 C 0.83054 0.86074 0.9984 0.0
C1264 C 0.85707 0.87147 0.9519 0.0
H1265 H 0.83158 0.85145 0.91298 0.0
C1266 C 0.89084 0.88075 0.94691 0.0
C1267 C 0.83576 0.86051 0.93961 0.0
C1268 C 0.79899 0.85059 0.94432 0.0
C1269 C 0.90378 0.87946 0.92984 0.0
C1270 C 0.88185 0.86905 0.91738 0.0
C1271 C 0.84846 0.8594 0.92252 0.0
C1272 C 0.89168 0.86872 0.89876 0.0
C1273 C 0.94091 0.88912 0.92537 0.0
C1274 C 0.8952 0.88714 0.88944 0.0
C1275 C 0.89849 0.88681 0.87146 0.0
C1276 C 0.89796 0.86808 0.86255 0.0
C1277 C 0.89604 0.84968 0.87187 0.0
C1278 C 0.89306 0.84999 0.88984 0.0
H1279 H 0.95933 0.89027 0.93688 0.0
H1280 H 0.95561 0.88023 0.91524 0.0
H1281 H 0.9362 0.90489 0.92048 0.0
H1282 H 0.89325 0.90179 0.89595 0.0
H1283 H 0.89914 0.90117 0.86443 0.0
H1284 H 0.69772 0.59659 0.49908 0.0
H1285 H 0.6762 0.59707 0.46916 0.0
H1286 H 0.65104 0.66144 0.47367 0.0
H1287 H 0.67218 0.6611 0.50369 0.0
H1288 H 0.60688 0.60763 0.45471 0.0
H1289 H 0.71991 0.6596 0.43171 0.0
H1290 H 0.72154 0.64717 0.45249 0.0
H1291 H 0.69267 0.66934 0.44932 0.0
C1292 C 0.68732 0.61084 0.4938 0.0
C1293 C 0.68698 0.62885 0.50382 0.0
C1294 C 0.67511 0.61109 0.47664 0.0
C1295 C 0.6625 0.62935 0.46908 0.0
C1296 C 0.6614 0.64727 0.47911 0.0
H1297 H 0.60397 0.6531 0.36071 0.0
H1298 H 0.60686 0.65627 0.39231 0.0
C1299 C 0.67361 0.64704 0.49628 0.0
C1300 C 0.65112 0.6296 0.45063 0.0
H1301 H 0.67466 0.64945 0.4113 0.0
C1302 C 0.62159 0.61684 0.44523 0.0
C1303 C 0.67022 0.64169 0.43826 0.0
C1304 C 0.70305 0.65511 0.44314 0.0
C1305 C 0.61095 0.61569 0.42778 0.0
C1306 C 0.63067 0.62739 0.41539 0.0
C1307 C 0.65947 0.64057 0.42084 0.0
C1308 C 0.6242 0.62492 0.39656 0.0
C1309 C 0.57876 0.60193 0.42272 0.0
C1310 C 0.63264 0.60623 0.38852 0.0
C1311 C 0.6314 0.60448 0.37056 0.0
C1312 C 0.62148 0.62135 0.36027 0.0
C1313 C 0.61146 0.63983 0.36835 0.0
C1314 C 0.61321 0.64166 0.38636 0.0
H1315 H 0.56027 0.59856 0.43388 0.0
H1316 H 0.56184 0.60901 0.4123 0.0
H1317 H 0.58986 0.58717 0.41785 0.0
H1318 H 0.64169 0.59321 0.3961 0.0
H1319 H 0.63908 0.59004 0.36466 0.0
H1320 H 0.35757 0.64677 0.99672 0.0
H1321 H 0.37867 0.65146 0.02656 0.0
H1322 H 0.30739 0.60141 0.04268 0.0
H1323 H 0.28801 0.59604 0.01266 0.0
H1324 H 0.34277 0.66174 0.05413 0.0
H1325 H 0.40092 0.5843 0.06583 0.0
H1326 H 0.38698 0.59277 0.04464 0.0
H1327 H 0.35259 0.58363 0.05978 0.0
C1328 C 0.34653 0.63681 0.00669 0.0
C1329 C 0.32131 0.62105 1.00252 0.0
C1330 C 0.35863 0.63941 0.0237 0.0
C1331 C 0.34533 0.62648 0.03688 0.0
C1332 C 0.31914 0.61111 0.03273 0.0
H1333 H 0.37268 0.63404 0.14877 0.0
H1334 H 0.35454 0.6234 0.11954 0.0
C1335 C 0.30769 0.60822 0.01564 0.0
C1336 C 0.35775 0.62979 0.05501 0.0
H1337 H 0.3961 0.6063 0.09028 0.0
C1338 C 0.35462 0.6496 0.06195 0.0
C1339 C 0.37306 0.61394 0.06533 0.0
C1340 C 0.37894 0.59253 0.05847 0.0
C1341 C 0.36621 0.65403 0.07882 0.0
C1342 C 0.38163 0.63826 0.08909 0.0
C1343 C 0.38429 0.61835 0.08234 0.0
C1344 C 0.39559 0.6425 0.10676 0.0
C1345 C 0.36153 0.67557 0.08559 0.0
C1346 C 0.42552 0.65616 0.10923 0.0
C1347 C 0.43582 0.66231 0.12583 0.0
C1348 C 0.4166 0.65478 0.14033 0.0
C1349 C 0.38802 0.64013 0.13787 0.0
C1350 C 0.3776 0.63405 0.12119 0.0
H1351 H 0.34127 0.68448 0.07777 0.0
H1352 H 0.35193 0.67541 0.09921 0.0
H1353 H 0.38886 0.68366 0.0851 0.0
H1354 H 0.44027 0.66252 0.09826 0.0
H1355 H 0.45851 0.67322 0.12731 0.0
H1356 H 0.17554 0.84061 0.5058 0.0
H1357 H 0.1552 0.83961 0.53583 0.0
H1358 H 0.16978 0.9051 0.5397 0.0
H1359 H 0.19141 0.90627 0.50975 0.0
H1360 H 0.20245 0.85699 0.565 0.0
H1361 H 0.05976 0.89013 0.55869 0.0
H1362 H 0.08263 0.87754 0.54084 0.0
H1363 H 0.09825 0.90238 0.54771 0.0
C1364 C 0.17479 0.85482 0.51302 0.0
C1365 C 0.18544 0.8735 0.50535 0.0
C1366 C 0.16279 0.85422 0.53014 0.0
C1367 C 0.16075 0.8723 0.53988 0.0
C1368 C 0.17075 0.89104 0.53228 0.0
H1369 H 0.13502 0.87045 0.6527 0.0
H1370 H 0.14555 0.88425 0.62354 0.0
C1371 C 0.18302 0.89165 0.51516 0.0
C1372 C 0.15027 0.87114 0.55828 0.0
H1373 H 0.07808 0.87875 0.58634 0.0
C1374 C 0.1755 0.86201 0.56974 0.0
C1375 C 0.11504 0.8777 0.56432 0.0
C1376 C 0.0871 0.88745 0.55233 0.0
C1377 C 0.16608 0.85877 0.58707 0.0
C1378 C 0.13049 0.86479 0.59304 0.0
C1379 C 0.10547 0.87436 0.5817 0.0
C1380 C 0.11793 0.85903 0.61054 0.0
C1381 C 0.1936 0.8482 0.5988 0.0
C1382 C 0.09797 0.84069 0.61277 0.0
C1383 C 0.09226 0.83275 0.62927 0.0
C1384 C 0.10625 0.84307 0.64384 0.0
C1385 C 0.1239 0.86222 0.64168 0.0
C1386 C 0.12993 0.87009 0.62508 0.0
H1387 H 0.21988 0.8441 0.59204 0.0
H1388 H 0.20058 0.85838 0.60983 0.0
H1389 H 0.18085 0.83399 0.60413 0.0
H1390 H 0.08864 0.83194 0.60167 0.0
H1391 H 0.07822 0.81808 0.63061 0.0
H1392 H 0.20382 0.31275 0.35078 0.0
H1393 H 0.17379 0.28759 0.33225 0.0
H1394 H 0.11561 0.26233 0.37611 0.0
H1395 H 0.14245 0.28883 0.39451 0.0
H1396 H 0.17876 0.24855 0.33115 0.0
H1397 H 0.03021 0.26634 0.34418 0.0
H1398 H 0.06774 0.28256 0.35171 0.0
H1399 H 0.05499 0.25973 0.36346 0.0
C1400 C 0.18377 0.30233 0.35651 0.0
C1401 C 0.17533 0.30321 0.37425 0.0
C1402 C 0.16696 0.28768 0.34586 0.0
C1403 C 0.14178 0.27323 0.35265 0.0
C1404 C 0.13399 0.27366 0.37039 0.0
H1405 H 0.0518 0.16194 0.30537 0.0
H1406 H 0.07803 0.18749 0.32552 0.0
C1407 C 0.15008 0.28866 0.38102 0.0
C1408 C 0.12496 0.25735 0.34118 0.0
H1409 H 0.04216 0.23561 0.32849 0.0
C1410 C 0.14886 0.24584 0.33056 0.0
C1411 C 0.08585 0.2538 0.34027 0.0
C1412 C 0.05822 0.26641 0.35038 0.0
C1413 C 0.13482 0.23092 0.31919 0.0
C1414 C 0.09602 0.22719 0.3186 0.0
C1415 C 0.07201 0.23849 0.32918 0.0
C1416 C 0.07987 0.21191 0.30665 0.0
C1417 C 0.16135 0.21928 0.30773 0.0
C1418 C 0.07201 0.21739 0.28954 0.0
C1419 C 0.05657 0.20299 0.27821 0.0
C1420 C 0.04961 0.18289 0.28377 0.0
C1421 C 0.05746 0.17738 0.30086 0.0
C1422 C 0.07228 0.19188 0.3123 0.0
H1423 H 0.19107 0.22293 0.31059 0.0
H1424 H 0.15683 0.20251 0.30927 0.0
H1425 H 0.15558 0.22313 0.29403 0.0
H1426 H 0.07768 0.23281 0.285 0.0
H1427 H 0.0501 0.20754 0.26513 0.0
H1428 H 0.38039 0.20231 0.89326 0.0
H1429 H 0.40917 0.22869 0.87488 0.0
H1430 H 0.31963 0.22177 0.83807 0.0
H1431 H 0.29058 0.19558 0.85633 0.0
H1432 H 0.42685 0.22269 0.83568 0.0
H1433 H 0.32832 0.28553 0.85213 0.0
H1434 H 0.3365 0.26408 0.8664 0.0
H1435 H 0.30875 0.26068 0.84733 0.0
C1436 C 0.36674 0.20653 0.8813 0.0
C1437 C 0.33325 0.19689 0.87622 0.0
C1438 C 0.38328 0.22148 0.87081 0.0
C1439 C 0.36632 0.22717 0.85523 0.0
C1440 C 0.33296 0.21761 0.85012 0.0
H1441 H 0.40076 0.32072 0.77846 0.0
H1442 H 0.37692 0.29448 0.79783 0.0
C1443 C 0.31657 0.20258 0.86051 0.0
C1444 C 0.38348 0.24302 0.84414 0.0
H1445 H 0.37218 0.29216 0.8302 0.0
C1446 C 0.41517 0.23795 0.83448 0.0
C1447 C 0.36773 0.26273 0.84256 0.0
C1448 C 0.33355 0.26876 0.8527 0.0
C1449 C 0.43107 0.25197 0.82282 0.0
C1450 C 0.4156 0.2719 0.82134 0.0
C1451 C 0.38413 0.27696 0.83128 0.0
C1452 C 0.43074 0.28759 0.80924 0.0
C1453 C 0.46319 0.24487 0.81176 0.0
C1454 C 0.46888 0.29279 0.80922 0.0
C1455 C 0.48285 0.30714 0.79746 0.0
C1456 C 0.45876 0.31715 0.78589 0.0
C1457 C 0.42033 0.3128 0.78664 0.0
C1458 C 0.40656 0.29794 0.79795 0.0
H1459 H 0.46344 0.22789 0.81046 0.0
H1460 H 0.46195 0.25167 0.79865 0.0
H1461 H 0.48993 0.24951 0.81792 0.0
H1462 H 0.48793 0.28581 0.81832 0.0
H1463 H 0.51251 0.31055 0.79759 0.0
H1464 H 0.70186 0.22503 0.61941 0.0
H1465 H 0.67397 0.25026 0.6389 0.0
H1466 H 0.61964 0.20164 0.6671 0.0
H1467 H 0.64618 0.17633 0.6474 0.0
H1468 H 0.58865 0.25316 0.64843 0.0
H1469 H 0.68729 0.23762 0.70245 0.0
H1470 H 0.69909 0.23222 0.68025 0.0
H1471 H 0.66647 0.21608 0.69143 0.0
C1472 C 0.68347 0.21968 0.62956 0.0
C1473 C 0.67651 0.19859 0.63187 0.0
C1474 C 0.66782 0.23412 0.64075 0.0
C1475 C 0.6452 0.22773 0.65451 0.0
C1476 C 0.63746 0.20681 0.65666 0.0
H1477 H 0.54885 0.29131 0.74246 0.0
H1478 H 0.57552 0.26605 0.72257 0.0
C1479 C 0.65282 0.19238 0.64542 0.0
C1480 C 0.62972 0.24292 0.6667 0.0
H1481 H 0.63972 0.26169 0.70754 0.0
C1482 C 0.59977 0.25513 0.66135 0.0
C1483 C 0.64406 0.24513 0.68358 0.0
C1484 C 0.67613 0.23218 0.68987 0.0
C1485 C 0.58338 0.26942 0.67254 0.0
C1486 C 0.59839 0.27213 0.68934 0.0
C1487 C 0.62833 0.25976 0.69467 0.0
C1488 C 0.58335 0.2876 0.70159 0.0
C1489 C 0.54939 0.28094 0.66636 0.0
C1490 C 0.57975 0.30823 0.69664 0.0
C1491 C 0.56367 0.32248 0.70781 0.0
C1492 C 0.55214 0.31655 0.72437 0.0
C1493 C 0.55754 0.29622 0.72972 0.0
C1494 C 0.57273 0.28181 0.71837 0.0
H1495 H 0.53448 0.27241 0.65601 0.0
H1496 H 0.52947 0.2838 0.67705 0.0
H1497 H 0.55831 0.29592 0.66091 0.0
H1498 H 0.58912 0.31332 0.68408 0.0
H1499 H 0.56044 0.3382 0.70353 0.0
H1500 H 0.78029 0.30258 0.15124 0.0
H1501 H 0.80865 0.27732 0.17054 0.0
H1502 H 0.90218 0.27155 0.13595 0.0
H1503 H 0.87386 0.29689 0.11645 0.0
H1504 H 0.8383 0.23337 0.15789 0.0
H1505 H 0.93839 0.28741 0.18942 0.0
H1506 H 0.89454 0.29598 0.18043 0.0
H1507 H 0.93188 0.28875 0.16636 0.0
C1508 C 0.80694 0.29596 0.14774 0.0
C1509 C 0.82496 0.30175 0.13236 0.0
C1510 C 0.82299 0.28151 0.15875 0.0
C1511 C 0.85751 0.27273 0.15468 0.0
C1512 C 0.87552 0.27827 0.13929 0.0
H1513 H 0.97142 0.16874 0.19942 0.0
H1514 H 0.94268 0.19395 0.1804 0.0
C1515 C 0.85926 0.29261 0.12814 0.0
C1516 C 0.87449 0.25769 0.16659 0.0
H1517 H 0.94027 0.25282 0.19824 0.0
C1518 C 0.86067 0.23754 0.16669 0.0
C1519 C 0.90317 0.26338 0.1782 0.0
C1520 C 0.91799 0.28506 0.17878 0.0
C1521 C 0.8752 0.22277 0.17801 0.0
C1522 C 0.90455 0.2283 0.18938 0.0
C1523 C 0.91792 0.24859 0.18946 0.0
C1524 C 0.92216 0.21313 0.20106 0.0
C1525 C 0.85862 0.20144 0.1779 0.0
C1526 C 0.92099 0.2158 0.21902 0.0
C1527 C 0.9377 0.20145 0.22999 0.0
C1528 C 0.95596 0.18421 0.22316 0.0
C1529 C 0.95741 0.18176 0.20515 0.0
C1530 C 0.94079 0.1961 0.19423 0.0
H1531 H 0.83041 0.20116 0.1719 0.0
H1532 H 0.87694 0.19116 0.17031 0.0
H1533 H 0.8565 0.1952 0.19119 0.0
H1534 H 0.90698 0.22895 0.22455 0.0
H1535 H 0.93653 0.20396 0.24379 0.0
H1536 H 0.79621 0.69029 0.66313 0.0
H1537 H 0.82725 0.71809 0.67865 0.0
H1538 H 0.89564 0.73075 0.63416 0.0
H1539 H 0.8651 0.70245 0.61851 0.0
H1540 H 0.90787 0.72041 0.68477 0.0
H1541 H 0.85179 0.78782 0.64923 0.0
H1542 H 0.82903 0.76303 0.6487 0.0
H1543 H 0.87119 0.76721 0.6367 0.0
C1544 C 0.81796 0.69888 0.6566 0.0
C1545 C 0.82845 0.69391 0.6396 0.0
C1546 C 0.83553 0.71487 0.66549 0.0
C1547 C 0.8637 0.72651 0.65758 0.0
C1548 C 0.87368 0.72207 0.64045 0.0
H1549 H 0.98741 0.83122 0.70068 0.0
H1550 H 0.96346 0.80444 0.68144 0.0
C1551 C 0.85614 0.70593 0.63152 0.0
C1552 C 0.8834 0.74264 0.6677 0.0
H1553 H 0.89298 0.79453 0.67227 0.0
C1554 C 0.9048 0.73663 0.68199 0.0
C1555 C 0.87959 0.76375 0.66397 0.0
C1556 C 0.85652 0.771 0.64889 0.0
C1557 C 0.92223 0.75114 0.69277 0.0
C1558 C 0.91726 0.77233 0.68947 0.0
C1559 C 0.89664 0.77833 0.67488 0.0
C1560 C 0.93231 0.78846 0.70126 0.0
C1561 C 0.94615 0.74355 0.70747 0.0
C1562 C 0.92261 0.78857 0.71881 0.0
C1563 C 0.93657 0.80373 0.72988 0.0
C1564 C 0.95994 0.81944 0.72361 0.0
C1565 C 0.96936 0.81942 0.70598 0.0
C1566 C 0.95565 0.80411 0.69493 0.0
H1567 H 0.95692 0.72789 0.70489 0.0
H1568 H 0.97026 0.75395 0.70986 0.0
H1569 H 0.92902 0.74279 0.71937 0.0
H1570 H 0.90393 0.77699 0.72397 0.0
H1571 H 0.92884 0.80315 0.74333 0.0
H1572 H 0.69903 0.77654 0.12141 0.0
H1573 H 0.67076 0.7508 0.14048 0.0
H1574 H 0.60867 0.79823 0.16628 0.0
H1575 H 0.63624 0.82399 0.14713 0.0
H1576 H 0.67471 0.75115 0.17838 0.0
H1577 H 0.52903 0.75377 0.15354 0.0
H1578 H 0.56838 0.76315 0.14122 0.0
H1579 H 0.55017 0.77807 0.15874 0.0
C1580 C 0.67892 0.78146 0.13097 0.0
C1581 C 0.66988 0.80234 0.13271 0.0
C1582 C 0.663 0.76675 0.14193 0.0
C1583 C 0.63739 0.77258 0.1547 0.0
C1584 C 0.62803 0.79336 0.15638 0.0
H1585 H 0.5024 0.70642 0.22984 0.0
H1586 H 0.53096 0.73201 0.21079 0.0
C1587 C 0.64406 0.80808 0.14551 0.0
C1588 C 0.62137 0.75706 0.16666 0.0
H1589 H 0.53963 0.73382 0.17843 0.0
C1590 C 0.6452 0.74727 0.1784 0.0
C1591 C 0.58283 0.75224 0.16676 0.0
C1592 C 0.55602 0.76221 0.15433 0.0
C1593 C 0.63145 0.73308 0.19053 0.0
C1594 C 0.59287 0.72789 0.19045 0.0
C1595 C 0.56914 0.7377 0.17858 0.0
C1596 C 0.57636 0.71244 0.20252 0.0
C1597 C 0.65837 0.72444 0.20363 0.0
C1598 C 0.59203 0.69281 0.20427 0.0
C1599 C 0.57636 0.67843 0.21556 0.0
C1600 C 0.54377 0.68305 0.22483 0.0
C1601 C 0.52747 0.70244 0.2228 0.0
C1602 C 0.5438 0.71705 0.21189 0.0
H1603 H 0.68245 0.73497 0.20578 0.0
H1604 H 0.64456 0.7216 0.21622 0.0
H1605 H 0.66973 0.70974 0.19874 0.0
H1606 H 0.61615 0.68844 0.19674 0.0
H1607 H 0.58924 0.66348 0.21672 0.0
H1608 H 0.27301 0.80233 0.35294 0.0
H1609 H 0.3018 0.77457 0.33655 0.0
H1610 H 0.39937 0.77798 0.36921 0.0
H1611 H 0.36999 0.80559 0.38597 0.0
H1612 H 0.367 0.77931 0.31839 0.0
H1613 H 0.38106 0.71627 0.36622 0.0
H1614 H 0.35119 0.7381 0.36985 0.0
H1615 H 0.40088 0.7405 0.37254 0.0
C1616 C 0.30034 0.79689 0.35679 0.0
C1617 C 0.3194 0.80604 0.37065 0.0
C1618 C 0.31675 0.78106 0.34744 0.0
C1619 C 0.35264 0.77413 0.35169 0.0
C1620 C 0.37136 0.78282 0.3659 0.0
H1621 H 0.49444 0.68481 0.30121 0.0
H1622 H 0.46836 0.71065 0.32007 0.0
C1623 C 0.35468 0.79858 0.37543 0.0
C1624 C 0.37118 0.75907 0.34025 0.0
H1625 H 0.40738 0.71078 0.33867 0.0
C1626 C 0.3758 0.76429 0.32281 0.0
C1627 C 0.38309 0.73964 0.34611 0.0
C1628 C 0.37862 0.73315 0.36467 0.0
C1629 C 0.39185 0.75063 0.31102 0.0
C1630 C 0.40268 0.73091 0.31672 0.0
C1631 C 0.39874 0.72582 0.33426 0.0
C1632 C 0.41859 0.71542 0.30478 0.0
C1633 C 0.39772 0.7577 0.29268 0.0
C1634 C 0.39939 0.70939 0.28978 0.0
C1635 C 0.41484 0.69491 0.27856 0.0
C1636 C 0.44921 0.68561 0.28234 0.0
C1637 C 0.46797 0.69155 0.2976 0.0
C1638 C 0.45298 0.70632 0.30857 0.0
H1639 H 0.39916 0.7747 0.29184 0.0
H1640 H 0.42378 0.75129 0.28716 0.0
H1641 H 0.37378 0.75253 0.28466 0.0
H1642 H 0.37228 0.71577 0.28678 0.0
H1643 H 0.39953 0.69103 0.26709 0.0
H1644 H 0.19717 0.72366 0.88603 0.0
H1645 H 0.16878 0.74884 0.86677 0.0
H1646 H 0.11881 0.69994 0.83705 0.0
H1647 H 0.14468 0.6748 0.85688 0.0
H1648 H 0.17991 0.75492 0.83336 0.0
H1649 H 0.03031 0.73596 0.84295 0.0
H1650 H 0.06648 0.7259 0.85674 0.0
H1651 H 0.05685 0.71417 0.83615 0.0
C1652 C 0.17937 0.71824 0.87567 0.0
C1653 C 0.17331 0.69711 0.87309 0.0
C1654 C 0.16345 0.73268 0.86454 0.0
C1655 C 0.14119 0.72635 0.85056 0.0
C1656 C 0.1351 0.7053 0.84795 0.0
H1657 H 0.05528 0.79378 0.76139 0.0
H1658 H 0.08175 0.76732 0.78036 0.0
C1659 C 0.15053 0.69088 0.85919 0.0
C1660 C 0.12566 0.74169 0.83832 0.0
H1661 H 0.04476 0.75795 0.81929 0.0
C1662 C 0.15033 0.75561 0.83037 0.0
C1663 C 0.087 0.74264 0.83438 0.0
C1664 C 0.0586 0.729 0.84314 0.0
C1665 C 0.13745 0.77029 0.81854 0.0
C1666 C 0.09903 0.77099 0.81449 0.0
C1667 C 0.07431 0.75713 0.82233 0.0
C1668 C 0.08373 0.78685 0.8029 0.0
C1669 C 0.16478 0.78508 0.81042 0.0
C1670 C 0.07607 0.80643 0.80939 0.0
C1671 C 0.06088 0.82144 0.79868 0.0
C1672 C 0.05327 0.81719 0.78123 0.0
C1673 C 0.06109 0.79753 0.77474 0.0
C1674 C 0.07609 0.78243 0.78553 0.0
H1675 H 0.19421 0.7814 0.81373 0.0
H1676 H 0.16154 0.78492 0.79618 0.0
H1677 H 0.15867 0.80088 0.81492 0.0
H1678 H 0.08173 0.81004 0.82278 0.0
H1679 H 0.05529 0.83645 0.80408 0.0
loop_
_geom_bond_atom_site_label_1
_geom_bond_atom_site_label_2
_geom_bond_distance
_geom_bond_site_symmetry_2
_ccdc_geom_bond_type
C0 C1 1.391 . S
C0 C4 1.391 . S
C0 H42 0.948 . S
C1 C0 1.391 . S
C1 C2 1.391 . S
C2 C1 1.391 . S
C2 H58 0.947 . S
C2 C59 1.392 . S
C3 C4 1.391 . S
C3 C7 1.397 . S
C3 C59 1.419 . S
C4 C0 1.391 . S
C4 C3 1.391 . S
C4 C5 1.399 . S
C5 C4 1.399 . S
C5 C8 1.396 . S
C5 C17 1.453 . S
C5 C18 1.684 . S
H6 C30 0.948 . S
C7 C3 1.397 . S
C7 C8 1.394 . S
C7 C26 1.723 . S
C8 C5 1.396 . S
C8 C7 1.394 . S
C8 C38 1.723 . S
H9 C32 0.947 . S
H10 C33 0.948 . S
H11 C39 0.982 . S
H12 C40 0.979 . S
H13 C40 0.980 . S
H14 C40 0.983 . S
H15 C39 0.979 . S
H16 C39 0.977 . S
C17 C5 1.453 . S
C17 H46 0.982 . S
C17 H47 0.979 . S
C17 H48 0.977 . S
C18 C5 1.684 . S
C18 H43 0.979 . S
C18 H44 0.980 . S
C18 H45 0.983 . S
C19 C20 1.391 . S
C19 C24 1.391 . S
C19 H49 0.948 . S
C20 C19 1.391 . S
C20 C21 1.391 . S
C21 C20 1.391 . S
C21 C22 1.392 . S
C21 H50 0.947 . S
C22 C21 1.392 . S
C22 C23 1.419 . S
C22 H51 0.948 . S
C23 C22 1.419 . S
C23 C24 1.391 . S
C23 C27 1.397 . S
C24 C19 1.391 . S
C24 C23 1.391 . S
C24 C25 1.399 . S
C25 C24 1.399 . S
C25 C26 1.396 . S
C25 C28 1.453 . S
C25 C29 1.684 . S
C26 C7 1.723 . S
C26 C25 1.396 . S
C26 C27 1.394 . S
C27 C23 1.397 . S
C27 C26 1.394 . S
C27 C37 1.723 . S
C28 C25 1.453 . S
C28 H52 0.982 . S
C28 H53 0.979 . S
C28 H54 0.977 . S
C29 C25 1.684 . S
C29 H55 0.979 . S
C29 H56 0.980 . S
C29 H57 0.983 . S
C30 H6 0.948 . S
C30 C31 1.391 . S
C30 C35 1.391 . S
C31 C30 1.391 . S
C31 C32 1.391 . S
C32 H9 0.947 . S
C32 C31 1.391 . S
C32 C33 1.392 . S
C33 H10 0.948 . S
C33 C32 1.392 . S
C33 C34 1.419 . S
C34 C33 1.419 . S
C34 C35 1.391 . S
C34 C38 1.397 . S
C35 C30 1.391 . S
C35 C34 1.391 . S
C35 C36 1.399 . S
C36 C35 1.399 . S
C36 C37 1.396 . S
C36 C39 1.453 . S
C36 C40 1.684 . S
C37 C27 1.723 . S
C37 C36 1.396 . S
C37 C38 1.394 . S
C38 C8 1.723 . S
C38 C34 1.397 . S
C38 C37 1.394 . S
C39 H11 0.982 . S
C39 H15 0.979 . S
C39 H16 0.977 . S
C39 C36 1.453 . S
C40 H12 0.979 . S
C40 H13 0.980 . S
C40 H14 0.983 . S
C40 C36 1.684 . S
H41 C59 0.948 . S
H42 C0 0.948 . S
H43 C18 0.979 . S
H44 C18 0.980 . S
H45 C18 0.983 . S
H46 C17 0.982 . S
H47 C17 0.979 . S
H48 C17 0.977 . S
H49 C19 0.948 . S
H50 C21 0.947 . S
H51 C22 0.948 . S
H52 C28 0.982 . S
H53 C28 0.979 . S
H54 C28 0.977 . S
H55 C29 0.979 . S
H56 C29 0.980 . S
H57 C29 0.983 . S
H58 C2 0.947 . S
C59 C2 1.392 . S
C59 C3 1.419 . S
C59 H41 0.948 . S
C60 C61 1.391 . S
C60 C64 1.391 . S
C60 H102 0.948 . S
C61 C60 1.391 . S
C61 C62 1.391 . S
C62 C61 1.391 . S
C62 H118 0.947 . S
C62 C119 1.392 . S
C63 C64 1.391 . S
C63 C67 1.397 . S
C63 C119 1.419 . S
C64 C60 1.391 . S
C64 C63 1.391 . S
C64 C65 1.399 . S
C65 C64 1.399 . S
C65 C68 1.396 . S
C65 C77 1.453 . S
C65 C78 1.684 . S
H66 C90 0.948 . S
C67 C63 1.397 . S
C67 C68 1.394 . S
C67 C86 1.723 . S
C68 C65 1.396 . S
C68 C67 1.394 . S
C68 C98 1.723 . S
H69 C92 0.947 . S
H70 C93 0.948 . S
H71 C99 0.982 . S
H72 C100 0.979 . S
H73 C100 0.980 . S
H74 C100 0.983 . S
H75 C99 0.979 . S
H76 C99 0.977 . S
C77 C65 1.453 . S
C77 H106 0.982 . S
C77 H107 0.979 . S
C77 H108 0.977 . S
C78 C65 1.684 . S
C78 H103 0.979 . S
C78 H104 0.980 . S
C78 H105 0.983 . S
C79 C80 1.391 . S
C79 C84 1.391 . S
C79 H109 0.948 . S
C80 C79 1.391 . S
C80 C81 1.391 . S
C81 C80 1.391 . S
C81 C82 1.392 . S
C81 H110 0.947 . S
C82 C81 1.392 . S
C82 C83 1.419 . S
C82 H111 0.948 . S
C83 C82 1.419 . S
C83 C84 1.391 . S
C83 C87 1.397 . S
C84 C79 1.391 . S
C84 C83 1.391 . S
C84 C85 1.399 . S
C85 C84 1.399 . S
C85 C86 1.396 . S
C85 C88 1.453 . S
C85 C89 1.684 . S
C86 C67 1.723 . S
C86 C85 1.396 . S
C86 C87 1.394 . S
C87 C83 1.397 . S
C87 C86 1.394 . S
C87 C97 1.723 . S
C88 C85 1.453 . S
C88 H112 0.982 . S
C88 H113 0.979 . S
C88 H114 0.977 . S
C89 C85 1.684 . S
C89 H115 0.979 . S
C89 H116 0.980 . S
C89 H117 0.983 . S
C90 H66 0.948 . S
C90 C91 1.391 . S
C90 C95 1.391 . S
C91 C90 1.391 . S
C91 C92 1.391 . S
C92 H69 0.947 . S
C92 C91 1.391 . S
C92 C93 1.392 . S
C93 H70 0.948 . S
C93 C92 1.392 . S
C93 C94 1.419 . S
C94 C93 1.419 . S
C94 C95 1.391 . S
C94 C98 1.397 . S
C95 C90 1.391 . S
C95 C94 1.391 . S
C95 C96 1.399 . S
C96 C95 1.399 . S
C96 C97 1.396 . S
C96 C99 1.453 . S
C96 C100 1.684 . S
C97 C87 1.723 . S
C97 C96 1.396 . S
C97 C98 1.394 . S
C98 C68 1.723 . S
C98 C94 1.397 . S
C98 C97 1.394 . S
C99 H71 0.982 . S
C99 H75 0.979 . S
C99 H76 0.977 . S
C99 C96 1.453 . S
C100 H72 0.979 . S
C100 H73 0.980 . S
C100 H74 0.983 . S
C100 C96 1.684 . S
H101 C119 0.948 . S
H102 C60 0.948 . S
H103 C78 0.979 . S
H104 C78 0.980 . S
H105 C78 0.983 . S
H106 C77 0.982 . S
H107 C77 0.979 . S
H108 C77 0.977 . S
H109 C79 0.948 . S
H110 C81 0.947 . S
H111 C82 0.948 . S
H112 C88 0.982 . S
H113 C88 0.979 . S
H114 C88 0.977 . S
H115 C89 0.979 . S
H116 C89 0.980 . S
H117 C89 0.983 . S
H118 C62 0.947 . S
C119 C62 1.392 . S
C119 C63 1.419 . S
C119 H101 0.948 . S
C120 C121 1.391 . S
C120 C124 1.391 . S
C120 H162 0.948 . S
C121 C120 1.391 . S
C121 C122 1.391 . S
C122 C121 1.391 . S
C122 H178 0.947 . S
C122 C179 1.392 . S
C123 C124 1.391 . S
C123 C127 1.397 . S
C123 C179 1.419 . S
C124 C120 1.391 . S
C124 C123 1.391 . S
C124 C125 1.399 . S
C125 C124 1.399 . S
C125 C128 1.396 . S
C125 C137 1.453 . S
C125 C138 1.684 . S
H126 C150 0.948 . S
C127 C123 1.397 . S
C127 C128 1.394 . S
C127 C146 1.723 . S
C128 C125 1.396 . S
C128 C127 1.394 . S
C128 C158 1.723 . S
H129 C152 0.947 . S
H130 C153 0.948 . S
H131 C159 0.982 . S
H132 C160 0.979 . S
H133 C160 0.980 . S
H134 C160 0.983 . S
H135 C159 0.979 . S
H136 C159 0.977 . S
C137 C125 1.453 . S
C137 H166 0.982 . S
C137 H167 0.979 . S
C137 H168 0.977 . S
C138 C125 1.684 . S
C138 H163 0.979 . S
C138 H164 0.980 . S
C138 H165 0.983 . S
C139 C140 1.391 . S
C139 C144 1.391 . S
C139 H169 0.948 . S
C140 C139 1.391 . S
C140 C141 1.391 . S
C141 C140 1.391 . S
C141 C142 1.392 . S
C141 H170 0.947 . S
C142 C141 1.392 . S
C142 C143 1.419 . S
C142 H171 0.948 . S
C143 C142 1.419 . S
C143 C144 1.391 . S
C143 C147 1.397 . S
C144 C139 1.391 . S
C144 C143 1.391 . S
C144 C145 1.399 . S
C145 C144 1.399 . S
C145 C146 1.396 . S
C145 C148 1.453 . S
C145 C149 1.684 . S
C146 C127 1.723 . S
C146 C145 1.396 . S
C146 C147 1.394 . S
C147 C143 1.397 . S
C147 C146 1.394 . S
C147 C157 1.723 . S
C148 C145 1.453 . S
C148 H172 0.982 . S
C148 H173 0.979 . S
C148 H174 0.977 . S
C149 C145 1.684 . S
C149 H175 0.979 . S
C149 H176 0.980 . S
C149 H177 0.983 . S
C150 H126 0.948 . S
C150 C151 1.391 . S
C150 C155 1.391 . S
C151 C150 1.391 . S
C151 C152 1.391 . S
C152 H129 0.947 . S
C152 C151 1.391 . S
C152 C153 1.392 . S
C153 H130 0.948 . S
C153 C152 1.392 . S
C153 C154 1.419 . S
C154 C153 1.419 . S
C154 C155 1.391 . S
C154 C158 1.397 . S
C155 C150 1.391 . S
C155 C154 1.391 . S
C155 C156 1.399 . S
C156 C155 1.399 . S
C156 C157 1.396 . S
C156 C159 1.453 . S
C156 C160 1.684 . S
C157 C147 1.723 . S
C157 C156 1.396 . S
C157 C158 1.394 . S
C158 C128 1.723 . S
C158 C154 1.397 . S
C158 C157 1.394 . S
C159 H131 0.982 . S
C159 H135 0.979 . S
C159 H136 0.977 . S
C159 C156 1.453 . S
C160 H132 0.979 . S
C160 H133 0.980 . S
C160 H134 0.983 . S
C160 C156 1.684 . S
H161 C179 0.948 . S
H162 C120 0.948 . S
H163 C138 0.979 . S
H164 C138 0.980 . S
H165 C138 0.983 . S
H166 C137 0.982 . S
H167 C137 0.979 . S
H168 C137 0.977 . S
H169 C139 0.948 . S
H170 C141 0.947 . S
H171 C142 0.948 . S
H172 C148 0.982 . S
H173 C148 0.979 . S
H174 C148 0.977 . S
H175 C149 0.979 . S
H176 C149 0.980 . S
H177 C149 0.983 . S
H178 C122 0.947 . S
C179 C122 1.392 . S
C179 C123 1.419 . S
C179 H161 0.948 . S
C180 C181 1.391 . S
C180 C184 1.391 . S
C180 H222 0.948 . S
C181 C180 1.391 . S
C181 C182 1.391 . S
C182 C181 1.391 . S
C182 H238 0.947 . S
C182 C239 1.392 . S
C183 C184 1.391 . S
C183 C187 1.397 . S
C183 C239 1.419 . S
C184 C180 1.391 . S
C184 C183 1.391 . S
C184 C185 1.399 . S
C185 C184 1.399 . S
C185 C188 1.396 . S
C185 C197 1.453 . S
C185 C198 1.684 . S
H186 C210 0.948 . S
C187 C183 1.397 . S
C187 C188 1.394 . S
C187 C206 1.723 . S
C188 C185 1.396 . S
C188 C187 1.394 . S
C188 C218 1.723 . S
H189 C212 0.947 . S
H190 C213 0.948 . S
H191 C219 0.982 . S
H192 C220 0.979 . S
H193 C220 0.980 . S
H194 C220 0.983 . S
H195 C219 0.979 . S
H196 C219 0.977 . S
C197 C185 1.453 . S
C197 H226 0.982 . S
C197 H227 0.979 . S
C197 H228 0.977 . S
C198 C185 1.684 . S
C198 H223 0.979 . S
C198 H224 0.980 . S
C198 H225 0.983 . S
C199 C200 1.391 . S
C199 C204 1.391 . S
C199 H229 0.948 . S
C200 C199 1.391 . S
C200 C201 1.391 . S
C201 C200 1.391 . S
C201 C202 1.392 . S
C201 H230 0.947 . S
C202 C201 1.392 . S
C202 C203 1.419 . S
C202 H231 0.948 . S
C203 C202 1.419 . S
C203 C204 1.391 . S
C203 C207 1.397 . S
C204 C199 1.391 . S
C204 C203 1.391 . S
C204 C205 1.399 . S
C205 C204 1.399 . S
C205 C206 1.396 . S
C205 C208 1.453 . S
C205 C209 1.684 . S
C206 C187 1.723 . S
C206 C205 1.396 . S
C206 C207 1.394 . S
C207 C203 1.397 . S
C207 C206 1.394 . S
C207 C217 1.723 . S
C208 C205 1.453 . S
C208 H232 0.982 . S
C208 H233 0.979 . S
C208 H234 0.977 . S
C209 C205 1.684 . S
C209 H235 0.979 . S
C209 H236 0.980 . S
C209 H237 0.983 . S
C210 H186 0.948 . S
C210 C211 1.391 . S
C210 C215 1.391 . S
C211 C210 1.391 . S
C211 C212 1.391 . S
C212 H189 0.947 . S
C212 C211 1.391 . S
C212 C213 1.392 . S
C213 H190 0.948 . S
C213 C212 1.392 . S
C213 C214 1.419 . S
C214 C213 1.419 . S
C214 C215 1.391 . S
C214 C218 1.397 . S
C215 C210 1.391 . S
C215 C214 1.391 . S
C215 C216 1.399 . S
C216 C215 1.399 . S
C216 C217 1.396 . S
C216 C219 1.453 . S
C216 C220 1.684 . S
C217 C207 1.723 . S
C217 C216 1.396 . S
C217 C218 1.394 . S
C218 C188 1.723 . S
C218 C214 1.397 . S
C218 C217 1.394 . S
C219 H191 0.982 . S
C219 H195 0.979 . S
C219 H196 0.977 . S
C219 C216 1.453 . S
C220 H192 0.979 . S
C220 H193 0.980 . S
C220 H194 0.983 . S
C220 C216 1.684 . S
H221 C239 0.948 . S
H222 C180 0.948 . S
H223 C198 0.979 . S
H224 C198 0.980 . S
H225 C198 0.983 . S
H226 C197 0.982 . S
H227 C197 0.979 . S
H228 C197 0.977 . S
H229 C199 0.948 . S
H230 C201 0.947 . S
H231 C202 0.948 . S
H232 C208 0.982 . S
H233 C208 0.979 . S
H234 C208 0.977 . S
H235 C209 0.979 . S
H236 C209 0.980 . S
H237 C209 0.983 . S
H238 C182 0.947 . S
C239 C182 1.392 . S
C239 C183 1.419 . S
C239 H221 0.948 . S
C240 C241 1.391 . S
C240 C244 1.391 . S
C240 H282 0.948 . S
C241 C240 1.391 . S
C241 C242 1.391 . S
C242 C241 1.391 . S
C242 H298 0.947 . S
C242 C299 1.392 . S
C243 C244 1.391 . S
C243 C247 1.397 . S
C243 C299 1.419 . S
C244 C240 1.391 . S
C244 C243 1.391 . S
C244 C245 1.399 . S
C245 C244 1.399 . S
C245 C248 1.396 . S
C245 C257 1.453 . S
C245 C258 1.684 . S
H246 C270 0.948 . S
C247 C243 1.397 . S
C247 C248 1.394 . S
C247 C266 1.723 . S
C248 C245 1.396 . S
C248 C247 1.394 . S
C248 C278 1.723 . S
H249 C272 0.947 . S
H250 C273 0.948 . S
H251 C279 0.982 . S
H252 C280 0.979 . S
H253 C280 0.980 . S
H254 C280 0.983 . S
H255 C279 0.979 . S
H256 C279 0.977 . S
C257 C245 1.453 . S
C257 H286 0.982 . S
C257 H287 0.979 . S
C257 H288 0.977 . S
C258 C245 1.684 . S
C258 H283 0.979 . S
C258 H284 0.980 . S
C258 H285 0.983 . S
C259 C260 1.391 . S
C259 C264 1.391 . S
C259 H289 0.948 . S
C260 C259 1.391 . S
C260 C261 1.391 . S
C261 C260 1.391 . S
C261 C262 1.392 . S
C261 H290 0.947 . S
C262 C261 1.392 . S
C262 C263 1.419 . S
C262 H291 0.948 . S
C263 C262 1.419 . S
C263 C264 1.391 . S
C263 C267 1.397 . S
C264 C259 1.391 . S
C264 C263 1.391 . S
C264 C265 1.399 . S
C265 C264 1.399 . S
C265 C266 1.396 . S
C265 C268 1.453 . S
C265 C269 1.684 . S
C266 C247 1.723 . S
C266 C265 1.396 . S
C266 C267 1.394 . S
C267 C263 1.397 . S
C267 C266 1.394 . S
C267 C277 1.723 . S
C268 C265 1.453 . S
C268 H292 0.982 . S
C268 H293 0.979 . S
C268 H294 0.977 . S
C269 C265 1.684 . S
C269 H295 0.979 . S
C269 H296 0.980 . S
C269 H297 0.983 . S
C270 H246 0.948 . S
C270 C271 1.391 . S
C270 C275 1.391 . S
C271 C270 1.391 . S
C271 C272 1.391 . S
C272 H249 0.947 . S
C272 C271 1.391 . S
C272 C273 1.392 . S
C273 H250 0.948 . S
C273 C272 1.392 . S
C273 C274 1.419 . S
C274 C273 1.419 . S
C274 C275 1.391 . S
C274 C278 1.397 . S
C275 C270 1.391 . S
C275 C274 1.391 . S
C275 C276 1.399 . S
C276 C275 1.399 . S
C276 C277 1.396 . S
C276 C279 1.453 . S
C276 C280 1.684 . S
C277 C267 1.723 . S
C277 C276 1.396 . S
C277 C278 1.394 . S
C278 C248 1.723 . S
C278 C274 1.397 . S
C278 C277 1.394 . S
C279 H251 0.982 . S
C279 H255 0.979 . S
C279 H256 0.977 . S
C279 C276 1.453 . S
C280 H252 0.979 . S
C280 H253 0.980 . S
C280 H254 0.983 . S
C280 C276 1.684 . S
H281 C299 0.948 . S
H282 C240 0.948 . S
H283 C258 0.979 . S
H284 C258 0.980 . S
H285 C258 0.983 . S
H286 C257 0.982 . S
H287 C257 0.979 . S
H288 C257 0.977 . S
H289 C259 0.948 . S
H290 C261 0.947 . S
H291 C262 0.948 . S
H292 C268 0.982 . S
H293 C268 0.979 . S
H294 C268 0.977 . S
H295 C269 0.979 . S
H296 C269 0.980 . S
H297 C269 0.983 . S
H298 C242 0.947 . S
C299 C242 1.392 . S
C299 C243 1.419 . S
C299 H281 0.948 . S
C300 C301 1.391 . S
C300 C304 1.391 . S
C300 H342 0.948 . S
C301 C300 1.391 . S
C301 C302 1.391 . S
C302 C301 1.391 . S
C302 H358 0.947 . S
C302 C359 1.392 . S
C303 C304 1.391 . S
C303 C307 1.397 . S
C303 C359 1.419 . S
C304 C300 1.391 . S
C304 C303 1.391 . S
C304 C305 1.399 . S
C305 C304 1.399 . S
C305 C308 1.396 . S
C305 C317 1.453 . S
C305 C318 1.684 . S
H306 C330 0.948 . S
C307 C303 1.397 . S
C307 C308 1.394 . S
C307 C326 1.723 . S
C308 C305 1.396 . S
C308 C307 1.394 . S
C308 C338 1.723 . S
H309 C332 0.947 . S
H310 C333 0.948 . S
H311 C339 0.982 . S
H312 C340 0.979 . S
H313 C340 0.980 . S
H314 C340 0.983 . S
H315 C339 0.979 . S
H316 C339 0.977 . S
C317 C305 1.453 . S
C317 H346 0.982 . S
C317 H347 0.979 . S
C317 H348 0.977 . S
C318 C305 1.684 . S
C318 H343 0.979 . S
C318 H344 0.980 . S
C318 H345 0.983 . S
C319 C320 1.391 . S
C319 C324 1.391 . S
C319 H349 0.948 . S
C320 C319 1.391 . S
C320 C321 1.391 . S
C321 C320 1.391 . S
C321 C322 1.392 . S
C321 H350 0.947 . S
C322 C321 1.392 . S
C322 C323 1.419 . S
C322 H351 0.948 . S
C323 C322 1.419 . S
C323 C324 1.391 . S
C323 C327 1.397 . S
C324 C319 1.391 . S
C324 C323 1.391 . S
C324 C325 1.399 . S
C325 C324 1.399 . S
C325 C326 1.396 . S
C325 C328 1.453 . S
C325 C329 1.684 . S
C326 C307 1.723 . S
C326 C325 1.396 . S
C326 C327 1.394 . S
C327 C323 1.397 . S
C327 C326 1.394 . S
C327 C337 1.723 . S
C328 C325 1.453 . S
C328 H352 0.982 . S
C328 H353 0.979 . S
C328 H354 0.977 . S
C329 C325 1.684 . S
C329 H355 0.979 . S
C329 H356 0.980 . S
C329 H357 0.983 . S
C330 H306 0.948 . S
C330 C331 1.391 . S
C330 C335 1.391 . S
C331 C330 1.391 . S
C331 C332 1.391 . S
C332 H309 0.947 . S
C332 C331 1.391 . S
C332 C333 1.392 . S
C333 H310 0.948 . S
C333 C332 1.392 . S
C333 C334 1.419 . S
C334 C333 1.419 . S
C334 C335 1.391 . S
C334 C338 1.397 . S
C335 C330 1.391 . S
C335 C334 1.391 . S
C335 C336 1.399 . S
C336 C335 1.399 . S
C336 C337 1.396 . S
C336 C339 1.453 . S
C336 C340 1.684 . S
C337 C327 1.723 . S
C337 C336 1.396 . S
C337 C338 1.394 . S
C338 C308 1.723 . S
C338 C334 1.397 . S
C338 C337 1.394 . S
C339 H311 0.982 . S
C339 H315 0.979 . S
C339 H316 0.977 . S
C339 C336 1.453 . S
C340 H312 0.979 . S
C340 H313 0.980 . S
C340 H314 0.983 . S
C340 C336 1.684 . S
H341 C359 0.948 . S
H342 C300 0.948 . S
H343 C318 0.979 . S
H344 C318 0.980 . S
H345 C318 0.983 . S
H346 C317 0.982 . S
H347 C317 0.979 . S
H348 C317 0.977 . S
H349 C319 0.948 . S
H350 C321 0.947 . S
H351 C322 0.948 . S
H352 C328 0.982 . S
H353 C328 0.979 . S
H354 C328 0.977 . S
H355 C329 0.979 . S
H356 C329 0.980 . S
H357 C329 0.983 . S
H358 C302 0.947 . S
C359 C302 1.392 . S
C359 C303 1.419 . S
C359 H341 0.948 . S
C360 C361 1.391 . S
C360 C364 1.391 . S
C360 H402 0.948 . S
C361 C360 1.391 . S
C361 C362 1.391 . S
C362 C361 1.391 . S
C362 H418 0.947 . S
C362 C419 1.392 . S
C363 C364 1.391 . S
C363 C367 1.397 . S
C363 C419 1.419 . S
C364 C360 1.391 . S
C364 C363 1.391 . S
C364 C365 1.399 . S
C365 C364 1.399 . S
C365 C368 1.396 . S
C365 C377 1.453 . S
C365 C378 1.684 . S
H366 C390 0.948 . S
C367 C363 1.397 . S
C367 C368 1.394 . S
C367 C386 1.723 . S
C368 C365 1.396 . S
C368 C367 1.394 . S
C368 C398 1.723 . S
H369 C392 0.947 . S
H370 C393 0.948 . S
H371 C399 0.982 . S
H372 C400 0.979 . S
H373 C400 0.980 . S
H374 C400 0.983 . S
H375 C399 0.979 . S
H376 C399 0.977 . S
C377 C365 1.453 . S
C377 H406 0.982 . S
C377 H407 0.979 . S
C377 H408 0.977 . S
C378 C365 1.684 . S
C378 H403 0.979 . S
C378 H404 0.980 . S
C378 H405 0.983 . S
C379 C380 1.391 . S
C379 C384 1.391 . S
C379 H409 0.948 . S
C380 C379 1.391 . S
C380 C381 1.391 . S
C381 C380 1.391 . S
C381 C382 1.392 . S
C381 H410 0.947 . S
C382 C381 1.392 . S
C382 C383 1.419 . S
C382 H411 0.948 . S
C383 C382 1.419 . S
C383 C384 1.391 . S
C383 C387 1.397 . S
C384 C379 1.391 . S
C384 C383 1.391 . S
C384 C385 1.399 . S
C385 C384 1.399 . S
C385 C386 1.396 . S
C385 C388 1.453 . S
C385 C389 1.684 . S
C386 C367 1.723 . S
C386 C385 1.396 . S
C386 C387 1.394 . S
C387 C383 1.397 . S
C387 C386 1.394 . S
C387 C397 1.723 . S
C388 C385 1.453 . S
C388 H412 0.982 . S
C388 H413 0.979 . S
C388 H414 0.977 . S
C389 C385 1.684 . S
C389 H415 0.979 . S
C389 H416 0.980 . S
C389 H417 0.983 . S
C390 H366 0.948 . S
C390 C391 1.391 . S
C390 C395 1.391 . S
C391 C390 1.391 . S
C391 C392 1.391 . S
C392 H369 0.947 . S
C392 C391 1.391 . S
C392 C393 1.392 . S
C393 H370 0.948 . S
C393 C392 1.392 . S
C393 C394 1.419 . S
C394 C393 1.419 . S
C394 C395 1.391 . S
C394 C398 1.397 . S
C395 C390 1.391 . S
C395 C394 1.391 . S
C395 C396 1.399 . S
C396 C395 1.399 . S
C396 C397 1.396 . S
C396 C399 1.453 . S
C396 C400 1.684 . S
C397 C387 1.723 . S
C397 C396 1.396 . S
C397 C398 1.394 . S
C398 C368 1.723 . S
C398 C394 1.397 . S
C398 C397 1.394 . S
C399 H371 0.982 . S
C399 H375 0.979 . S
C399 H376 0.977 . S
C399 C396 1.453 . S
C400 H372 0.979 . S
C400 H373 0.980 . S
C400 H374 0.983 . S
C400 C396 1.684 . S
H401 C419 0.948 . S
H402 C360 0.948 . S
H403 C378 0.979 . S
H404 C378 0.980 . S
H405 C378 0.983 . S
H406 C377 0.982 . S
H407 C377 0.979 . S
H408 C377 0.977 . S
H409 C379 0.948 . S
H410 C381 0.947 . S
H411 C382 0.948 . S
H412 C388 0.982 . S
H413 C388 0.979 . S
H414 C388 0.977 . S
H415 C389 0.979 . S
H416 C389 0.980 . S
H417 C389 0.983 . S
H418 C362 0.947 . S
C419 C362 1.392 . S
C419 C363 1.419 . S
C419 H401 0.948 . S
C420 C421 1.391 . S
C420 C424 1.391 . S
C420 H462 0.948 . S
C421 C420 1.391 . S
C421 C422 1.391 . S
C422 C421 1.391 . S
C422 H478 0.947 . S
C422 C479 1.392 . S
C423 C424 1.391 . S
C423 C427 1.397 . S
C423 C479 1.419 . S
C424 C420 1.391 . S
C424 C423 1.391 . S
C424 C425 1.399 . S
C425 C424 1.399 . S
C425 C428 1.396 . S
C425 C437 1.453 . S
C425 C438 1.684 . S
H426 C450 0.948 . S
C427 C423 1.397 . S
C427 C428 1.394 . S
C427 C446 1.723 . S
C428 C425 1.396 . S
C428 C427 1.394 . S
C428 C458 1.723 . S
H429 C452 0.947 . S
H430 C453 0.948 . S
H431 C459 0.982 . S
H432 C460 0.979 . S
H433 C460 0.980 . S
H434 C460 0.983 . S
H435 C459 0.979 . S
H436 C459 0.977 . S
C437 C425 1.453 . S
C437 H466 0.982 . S
C437 H467 0.979 . S
C437 H468 0.977 . S
C438 C425 1.684 . S
C438 H463 0.979 . S
C438 H464 0.980 . S
C438 H465 0.983 . S
C439 C440 1.391 . S
C439 C444 1.391 . S
C439 H469 0.948 . S
C440 C439 1.391 . S
C440 C441 1.391 . S
C441 C440 1.391 . S
C441 C442 1.392 . S
C441 H470 0.947 . S
C442 C441 1.392 . S
C442 C443 1.419 . S
C442 H471 0.948 . S
C443 C442 1.419 . S
C443 C444 1.391 . S
C443 C447 1.397 . S
C444 C439 1.391 . S
C444 C443 1.391 . S
C444 C445 1.399 . S
C445 C444 1.399 . S
C445 C446 1.396 . S
C445 C448 1.453 . S
C445 C449 1.684 . S
C446 C427 1.723 . S
C446 C445 1.396 . S
C446 C447 1.394 . S
C447 C443 1.397 . S
C447 C446 1.394 . S
C447 C457 1.723 . S
C448 C445 1.453 . S
C448 H472 0.982 . S
C448 H473 0.979 . S
C448 H474 0.977 . S
C449 C445 1.684 . S
C449 H475 0.979 . S
C449 H476 0.980 . S
C449 H477 0.983 . S
C450 H426 0.948 . S
C450 C451 1.391 . S
C450 C455 1.391 . S
C451 C450 1.391 . S
C451 C452 1.391 . S
C452 H429 0.947 . S
C452 C451 1.391 . S
C452 C453 1.392 . S
C453 H430 0.948 . S
C453 C452 1.392 . S
C453 C454 1.419 . S
C454 C453 1.419 . S
C454 C455 1.391 . S
C454 C458 1.397 . S
C455 C450 1.391 . S
C455 C454 1.391 . S
C455 C456 1.399 . S
C456 C455 1.399 . S
C456 C457 1.396 . S
C456 C459 1.453 . S
C456 C460 1.684 . S
C457 C447 1.723 . S
C457 C456 1.396 . S
C457 C458 1.394 . S
C458 C428 1.723 . S
C458 C454 1.397 . S
C458 C457 1.394 . S
C459 H431 0.982 . S
C459 H435 0.979 . S
C459 H436 0.977 . S
C459 C456 1.453 . S
C460 H432 0.979 . S
C460 H433 0.980 . S
C460 H434 0.983 . S
C460 C456 1.684 . S
H461 C479 0.948 . S
H462 C420 0.948 . S
H463 C438 0.979 . S
H464 C438 0.980 . S
H465 C438 0.983 . S
H466 C437 0.982 . S
H467 C437 0.979 . S
H468 C437 0.977 . S
H469 C439 0.948 . S
H470 C441 0.947 . S
H471 C442 0.948 . S
H472 C448 0.982 . S
H473 C448 0.979 . S
H474 C448 0.977 . S
H475 C449 0.979 . S
H476 C449 0.980 . S
H477 C449 0.983 . S
H478 C422 0.947 . S
C479 C422 1.392 . S
C479 C423 1.419 . S
C479 H461 0.948 . S
Eu480 N509 2.600 . S
Eu480 N515 2.562 . S
Eu480 O524 2.462 . S
Eu480 O525 2.373 . S
Eu480 O527 2.432 . S
Eu480 O528 2.291 . S
Eu480 O532 2.335 . S
Eu480 O535 2.372 . S
Eu480 C544 2.787 . S
C481 N482 1.365 . S
C481 C484 1.405 . S
C481 C488 1.448 . S
N482 C481 1.365 . S
N482 C485 1.319 . S
N482 Eu491 2.600 . S
C483 C485 1.397 . S
C483 C486 1.367 . S
C483 H503 0.931 . S
C484 C481 1.405 . S
C484 C486 1.403 . S
C484 C490 1.439 . S
C485 N482 1.319 . S
C485 C483 1.397 . S
C485 H496 0.930 . S
C486 C483 1.367 . S
C486 C484 1.403 . S
C486 H507 0.929 . S
C487 C488 1.430 . S
C487 C489 1.387 . S
C487 C493 1.404 . S
C488 C481 1.448 . S
C488 C487 1.430 . S
C488 N492 1.351 . S
C489 C487 1.387 . S
C489 C490 1.374 . S
C489 H504 0.931 . S
C490 C484 1.439 . S
C490 C489 1.374 . S
C490 H505 0.931 . S
Eu491 N482 2.600 . S
Eu491 N492 2.562 . S
Eu491 O526 2.316 1_655 S
Eu491 O529 2.372 . S
Eu491 O530 2.462 . S
Eu491 O531 2.373 . S
Eu491 O533 2.432 . S
Eu491 O534 2.291 1_655 S
Eu491 C555 2.787 . S
N492 C488 1.351 . S
N492 Eu491 2.562 . S
N492 C494 1.325 . S
C493 C487 1.404 . S
C493 C495 1.366 . S
C493 H501 0.930 . S
C494 N492 1.325 . S
C494 C495 1.416 . S
C494 H500 0.929 . S
C495 C493 1.366 . S
C495 C494 1.416 . S
C495 H497 0.930 . S
H496 C485 0.930 . S
H497 C495 0.930 . S
H498 C513 0.930 . S
H499 C520 0.930 . S
H500 C494 0.929 . S
H501 C493 0.930 . S
H502 C516 0.929 . S
H503 C483 0.931 . S
H504 C489 0.931 . S
H505 C490 0.931 . S
H506 C511 0.931 . S
H507 C486 0.929 . S
H508 C519 0.930 . S
N509 Eu480 2.600 . S
N509 C510 1.365 . S
N509 C513 1.319 . S
C510 N509 1.365 . S
C510 C512 1.405 . S
C510 C518 1.448 . S
C511 H506 0.931 . S
C511 C513 1.397 . S
C511 C514 1.367 . S
C512 C510 1.405 . S
C512 C514 1.403 . S
C512 C545 1.439 . S
C513 H498 0.930 . S
C513 N509 1.319 . S
C513 C511 1.397 . S
C514 C511 1.367 . S
C514 C512 1.403 . S
C514 H521 0.929 . S
N515 Eu480 2.562 . S
N515 C516 1.325 . S
N515 C518 1.351 . S
C516 H502 0.929 . S
C516 N515 1.325 . S
C516 C520 1.416 . S
C517 C518 1.430 . S
C517 C519 1.404 . S
C517 C546 1.387 . S
C518 C510 1.448 . S
C518 N515 1.351 . S
C518 C517 1.430 . S
C519 H508 0.930 . S
C519 C517 1.404 . S
C519 C520 1.366 . S
C520 H499 0.930 . S
C520 C516 1.416 . S
C520 C519 1.366 . S
H521 C514 0.929 . S
H522 C545 0.931 . S
H523 C546 0.931 . S
O524 Eu480 2.462 . S
O524 C544 1.252 . S
O525 Eu480 2.373 . S
O525 C536 1.249 . S
O526 Eu491 2.316 1_455 S
O526 C536 1.289 . S
O527 Eu480 2.432 . S
O527 C544 1.268 . S
O528 Eu480 2.291 . S
O528 C543 1.255 1_455 S
O529 Eu491 2.372 . S
O529 C543 1.257 . S
O530 Eu491 2.462 . S
O530 C555 1.252 . S
O531 Eu491 2.373 . S
O531 C547 1.249 . S
O532 Eu480 2.335 . S
O532 C547 1.264 1_455 S
O533 Eu491 2.432 . S
O533 C555 1.268 . S
O534 Eu491 2.291 1_455 S
O534 C554 1.255 . S
O535 Eu480 2.372 . S
O535 C554 1.257 . S
C536 O525 1.249 . S
C536 O526 1.289 . S
C537 C540 1.382 . S
C537 C542 1.390 . S
C537 C544 1.506 . S
C538 C539 1.398 . S
C538 C542 1.392 . S
C539 C538 1.398 . S
C539 C541 1.372 . S
C539 H556 0.931 . S
C540 C537 1.382 . S
C540 C541 1.390 . S
C540 H557 0.931 . S
C541 C539 1.372 . S
C541 C540 1.390 . S
C541 H558 0.929 . S
C542 C537 1.390 . S
C542 C538 1.392 . S
C542 H559 0.930 . S
C543 O528 1.255 1_655 S
C543 O529 1.257 . S
C544 Eu480 2.787 . S
C544 O524 1.252 . S
C544 O527 1.268 . S
C544 C537 1.506 . S
C545 C512 1.439 . S
C545 H522 0.931 . S
C545 C546 1.374 . S
C546 C517 1.387 . S
C546 H523 0.931 . S
C546 C545 1.374 . S
C547 O531 1.249 . S
C547 O532 1.264 1_655 S
C548 C551 1.382 . S
C548 C552 1.390 . S
C548 C555 1.506 . S
C549 C550 1.398 . S
C549 C552 1.392 . S
C550 C549 1.398 . S
C550 C553 1.372 . S
C550 H560 0.931 . S
C551 C548 1.382 . S
C551 C553 1.390 . S
C551 H561 0.931 . S
C552 C548 1.390 . S
C552 C549 1.392 . S
C552 H562 0.930 . S
C553 C550 1.372 . S
C553 C551 1.390 . S
C553 H563 0.929 . S
C554 O534 1.255 . S
C554 O535 1.257 . S
C555 Eu491 2.787 . S
C555 O530 1.252 . S
C555 O533 1.268 . S
C555 C548 1.506 . S
H556 C539 0.931 . S
H557 C540 0.931 . S
H558 C541 0.929 . S
H559 C542 0.930 . S
H560 C550 0.931 . S
H561 C551 0.931 . S
H562 C552 0.930 . S
H563 C553 0.929 . S
Eu564 N593 2.600 . S
Eu564 N599 2.562 . S
Eu564 O608 2.462 . S
Eu564 O609 2.373 . S
Eu564 O611 2.432 . S
Eu564 O612 2.291 . S
Eu564 O616 2.335 . S
Eu564 O619 2.372 . S
Eu564 C628 2.787 . S
C565 N566 1.365 . S
C565 C568 1.405 . S
C565 C572 1.448 . S
N566 C565 1.365 . S
N566 C569 1.319 . S
N566 Eu575 2.600 . S
C567 C569 1.397 . S
C567 C570 1.367 . S
C567 H587 0.931 . S
C568 C565 1.405 . S
C568 C570 1.403 . S
C568 C574 1.439 . S
C569 N566 1.319 . S
C569 C567 1.397 . S
C569 H580 0.930 . S
C570 C567 1.367 . S
C570 C568 1.403 . S
C570 H591 0.929 . S
C571 C572 1.430 . S
C571 C573 1.387 . S
C571 C577 1.404 . S
C572 C565 1.448 . S
C572 C571 1.430 . S
C572 N576 1.351 . S
C573 C571 1.387 . S
C573 C574 1.374 . S
C573 H588 0.931 . S
C574 C568 1.439 . S
C574 C573 1.374 . S
C574 H589 0.931 . S
Eu575 N566 2.600 . S
Eu575 N576 2.562 . S
Eu575 O610 2.335 . S
Eu575 O613 2.372 . S
Eu575 O614 2.462 . S
Eu575 O615 2.373 . S
Eu575 O617 2.432 . S
Eu575 O618 2.291 . S
Eu575 C639 2.787 . S
N576 C572 1.351 . S
N576 Eu575 2.562 . S
N576 C578 1.325 . S
C577 C571 1.404 . S
C577 C579 1.366 . S
C577 H585 0.930 . S
C578 N576 1.325 . S
C578 C579 1.416 . S
C578 H584 0.929 . S
C579 C577 1.366 . S
C579 C578 1.416 . S
C579 H581 0.930 . S
H580 C569 0.930 . S
H581 C579 0.930 . S
H582 C597 0.930 . S
H583 C604 0.930 . S
H584 C578 0.929 . S
H585 C577 0.930 . S
H586 C600 0.929 . S
H587 C567 0.931 . S
H588 C573 0.931 . S
H589 C574 0.931 . S
H590 C595 0.931 . S
H591 C570 0.929 . S
H592 C603 0.930 . S
N593 Eu564 2.600 . S
N593 C594 1.365 . S
N593 C597 1.319 . S
C594 N593 1.365 . S
C594 C596 1.405 . S
C594 C602 1.448 . S
C595 H590 0.931 . S
C595 C597 1.397 . S
C595 C598 1.367 . S
C596 C594 1.405 . S
C596 C598 1.403 . S
C596 C629 1.439 . S
C597 H582 0.930 . S
C597 N593 1.319 . S
C597 C595 1.397 . S
C598 C595 1.367 . S
C598 C596 1.403 . S
C598 H605 0.929 . S
N599 Eu564 2.562 . S
N599 C600 1.325 . S
N599 C602 1.351 . S
C600 H586 0.929 . S
C600 N599 1.325 . S
C600 C604 1.416 . S
C601 C602 1.430 . S
C601 C603 1.404 . S
C601 C630 1.387 . S
C602 C594 1.448 . S
C602 N599 1.351 . S
C602 C601 1.430 . S
C603 H592 0.930 . S
C603 C601 1.404 . S
C603 C604 1.366 . S
C604 H583 0.930 . S
C604 C600 1.416 . S
C604 C603 1.366 . S
H605 C598 0.929 . S
H606 C629 0.931 . S
H607 C630 0.931 . S
O608 Eu564 2.462 . S
O608 C628 1.252 . S
O609 Eu564 2.373 . S
O609 C620 1.249 . S
O610 Eu575 2.335 . S
O610 C620 1.264 . S
O611 Eu564 2.432 . S
O611 C628 1.268 . S
O612 Eu564 2.291 . S
O612 C627 1.255 . S
O613 Eu575 2.372 . S
O613 C627 1.257 . S
O614 Eu575 2.462 . S
O614 C639 1.252 . S
O615 Eu575 2.373 . S
O615 C631 1.249 . S
O616 Eu564 2.335 . S
O616 C631 1.264 . S
O617 Eu575 2.432 . S
O617 C639 1.268 . S
O618 Eu575 2.291 . S
O618 C638 1.255 . S
O619 Eu564 2.372 . S
O619 C638 1.257 . S
C620 O609 1.249 . S
C620 O610 1.264 . S
C621 C624 1.382 . S
C621 C626 1.390 . S
C621 C628 1.506 . S
C622 C623 1.398 . S
C622 C626 1.392 . S
C623 C622 1.398 . S
C623 C625 1.372 . S
C623 H640 0.931 . S
C624 C621 1.382 . S
C624 C625 1.390 . S
C624 H641 0.931 . S
C625 C623 1.372 . S
C625 C624 1.390 . S
C625 H642 0.929 . S
C626 C621 1.390 . S
C626 C622 1.392 . S
C626 H643 0.930 . S
C627 O612 1.255 . S
C627 O613 1.257 . S
C628 Eu564 2.787 . S
C628 O608 1.252 . S
C628 O611 1.268 . S
C628 C621 1.506 . S
C629 C596 1.439 . S
C629 H606 0.931 . S
C629 C630 1.374 . S
C630 C601 1.387 . S
C630 H607 0.931 . S
C630 C629 1.374 . S
C631 O615 1.249 . S
C631 O616 1.264 . S
C632 C635 1.382 . S
C632 C636 1.390 . S
C632 C639 1.506 . S
C633 C634 1.398 . S
C633 C636 1.392 . S
C634 C633 1.398 . S
C634 C637 1.372 . S
C634 H644 0.931 . S
C635 C632 1.382 . S
C635 C637 1.390 . S
C635 H645 0.931 . S
C636 C632 1.390 . S
C636 C633 1.392 . S
C636 H646 0.930 . S
C637 C634 1.372 . S
C637 C635 1.390 . S
C637 H647 0.929 . S
C638 O618 1.255 . S
C638 O619 1.257 . S
C639 Eu575 2.787 . S
C639 O614 1.252 . S
C639 O617 1.268 . S
C639 C632 1.506 . S
H640 C623 0.931 . S
H641 C624 0.931 . S
H642 C625 0.929 . S
H643 C626 0.930 . S
H644 C634 0.931 . S
H645 C635 0.931 . S
H646 C636 0.930 . S
H647 C637 0.929 . S
Eu648 N677 2.600 . S
Eu648 N683 2.562 . S
Eu648 O692 2.462 . S
Eu648 O693 2.373 . S
Eu648 O695 2.432 . S
Eu648 O696 2.291 . S
Eu648 O700 2.335 . S
Eu648 O703 2.372 . S
Eu648 C712 2.787 . S
C649 N650 1.365 . S
C649 C652 1.405 . S
C649 C656 1.448 . S
N650 C649 1.365 . S
N650 C653 1.319 . S
N650 Eu659 2.600 . S
C651 C653 1.397 . S
C651 C654 1.367 . S
C651 H671 0.931 . S
C652 C649 1.405 . S
C652 C654 1.403 . S
C652 C658 1.439 . S
C653 N650 1.319 . S
C653 C651 1.397 . S
C653 H664 0.930 . S
C654 C651 1.367 . S
C654 C652 1.403 . S
C654 H675 0.929 . S
C655 C656 1.430 . S
C655 C657 1.387 . S
C655 C661 1.404 . S
C656 C649 1.448 . S
C656 C655 1.430 . S
C656 N660 1.351 . S
C657 C655 1.387 . S
C657 C658 1.374 . S
C657 H672 0.931 . S
C658 C652 1.439 . S
C658 C657 1.374 . S
C658 H673 0.931 . S
Eu659 N650 2.600 . S
Eu659 N660 2.562 . S
Eu659 O694 2.335 1_655 S
Eu659 O697 2.372 . S
Eu659 O698 2.462 . S
Eu659 O699 2.373 . S
Eu659 O701 2.432 . S
Eu659 O702 2.291 1_655 S
Eu659 C723 2.787 . S
N660 C656 1.351 . S
N660 Eu659 2.562 . S
N660 C662 1.325 . S
C661 C655 1.404 . S
C661 C663 1.366 . S
C661 H669 0.930 . S
C662 N660 1.325 . S
C662 C663 1.416 . S
C662 H668 0.929 . S
C663 C661 1.366 . S
C663 C662 1.416 . S
C663 H665 0.930 . S
H664 C653 0.930 . S
H665 C663 0.930 . S
H666 C681 0.930 . S
H667 C688 0.930 . S
H668 C662 0.929 . S
H669 C661 0.930 . S
H670 C684 0.929 . S
H671 C651 0.931 . S
H672 C657 0.931 . S
H673 C658 0.931 . S
H674 C679 0.931 . S
H675 C654 0.929 . S
H676 C687 0.930 . S
N677 Eu648 2.600 . S
N677 C678 1.365 . S
N677 C681 1.319 . S
C678 N677 1.365 . S
C678 C680 1.405 . S
C678 C686 1.448 . S
C679 H674 0.931 . S
C679 C681 1.397 . S
C679 C682 1.367 . S
C680 C678 1.405 . S
C680 C682 1.403 . S
C680 C713 1.439 . S
C681 H666 0.930 . S
C681 N677 1.319 . S
C681 C679 1.397 . S
C682 C679 1.367 . S
C682 C680 1.403 . S
C682 H689 0.929 . S
N683 Eu648 2.562 . S
N683 C684 1.325 . S
N683 C686 1.351 . S
C684 H670 0.929 . S
C684 N683 1.325 . S
C684 C688 1.416 . S
C685 C686 1.430 . S
C685 C687 1.404 . S
C685 C714 1.387 . S
C686 C678 1.448 . S
C686 N683 1.351 . S
C686 C685 1.430 . S
C687 H676 0.930 . S
C687 C685 1.404 . S
C687 C688 1.366 . S
C688 H667 0.930 . S
C688 C684 1.416 . S
C688 C687 1.366 . S
H689 C682 0.929 . S
H690 C713 0.931 . S
H691 C714 0.931 . S
O692 Eu648 2.462 . S
O692 C712 1.252 . S
O693 Eu648 2.373 . S
O693 C704 1.249 . S
O694 Eu659 2.335 1_455 S
O694 C704 1.264 . S
O695 Eu648 2.432 . S
O695 C712 1.268 . S
O696 Eu648 2.291 . S
O696 C711 1.255 1_455 S
O697 Eu659 2.372 . S
O697 C711 1.257 . S
O698 Eu659 2.462 . S
O698 C723 1.252 . S
O699 Eu659 2.373 . S
O699 C715 1.249 . S
O700 Eu648 2.335 . S
O700 C715 1.264 1_455 S
O701 Eu659 2.432 . S
O701 C723 1.268 . S
O702 Eu659 2.291 1_455 S
O702 C722 1.255 . S
O703 Eu648 2.372 . S
O703 C722 1.257 . S
C704 O693 1.249 . S
C704 O694 1.264 . S
C705 C708 1.382 . S
C705 C710 1.390 . S
C705 C712 1.506 . S
C706 C707 1.398 . S
C706 C710 1.392 . S
C707 C706 1.398 . S
C707 C709 1.372 . S
C707 H724 0.931 . S
C708 C705 1.382 . S
C708 C709 1.390 . S
C708 H725 0.931 . S
C709 C707 1.372 . S
C709 C708 1.390 . S
C709 H726 0.929 . S
C710 C705 1.390 . S
C710 C706 1.392 . S
C710 H727 0.930 . S
C711 O696 1.255 1_655 S
C711 O697 1.257 . S
C712 Eu648 2.787 . S
C712 O692 1.252 . S
C712 O695 1.268 . S
C712 C705 1.506 . S
C713 C680 1.439 . S
C713 H690 0.931 . S
C713 C714 1.374 . S
C714 C685 1.387 . S
C714 H691 0.931 . S
C714 C713 1.374 . S
C715 O699 1.249 . S
C715 O700 1.264 1_655 S
C716 C719 1.382 . S
C716 C720 1.390 . S
C716 C723 1.506 . S
C717 C718 1.398 . S
C717 C720 1.392 . S
C718 C717 1.398 . S
C718 C721 1.372 . S
C718 H728 0.931 . S
C719 C716 1.382 . S
C719 C721 1.390 . S
C719 H729 0.931 . S
C720 C716 1.390 . S
C720 C717 1.392 . S
C720 H730 0.930 . S
C721 C718 1.372 . S
C721 C719 1.390 . S
C721 H731 0.929 . S
C722 O702 1.255 . S
C722 O703 1.257 . S
C723 Eu659 2.787 . S
C723 O698 1.252 . S
C723 O701 1.268 . S
C723 C716 1.506 . S
H724 C707 0.931 . S
H725 C708 0.931 . S
H726 C709 0.929 . S
H727 C710 0.930 . S
H728 C718 0.931 . S
H729 C719 0.931 . S
H730 C720 0.930 . S
H731 C721 0.929 . S
Eu732 N761 2.600 . S
Eu732 N767 2.562 . S
Eu732 O776 2.462 . S
Eu732 O777 2.373 . S
Eu732 O779 2.432 . S
Eu732 O780 2.291 . S
Eu732 O784 2.335 . S
Eu732 O787 2.372 . S
Eu732 C796 2.787 . S
C733 N734 1.365 . S
C733 C736 1.405 . S
C733 C740 1.448 . S
N734 C733 1.365 . S
N734 C737 1.319 . S
N734 Eu743 2.600 . S
C735 C737 1.397 . S
C735 C738 1.367 . S
C735 H755 0.931 . S
C736 C733 1.405 . S
C736 C738 1.403 . S
C736 C742 1.439 . S
C737 N734 1.319 . S
C737 C735 1.397 . S
C737 H748 0.930 . S
C738 C735 1.367 . S
C738 C736 1.403 . S
C738 H759 0.929 . S
C739 C740 1.430 . S
C739 C741 1.387 . S
C739 C745 1.404 . S
C740 C733 1.448 . S
C740 C739 1.430 . S
C740 N744 1.351 . S
C741 C739 1.387 . S
C741 C742 1.374 . S
C741 H756 0.931 . S
C742 C736 1.439 . S
C742 C741 1.374 . S
C742 H757 0.931 . S
Eu743 N734 2.600 . S
Eu743 N744 2.562 . S
Eu743 O778 2.335 . S
Eu743 O781 2.372 . S
Eu743 O782 2.462 . S
Eu743 O783 2.373 . S
Eu743 O785 2.432 . S
Eu743 O786 2.291 . S
Eu743 C807 2.787 . S
N744 C740 1.351 . S
N744 Eu743 2.562 . S
N744 C746 1.325 . S
C745 C739 1.404 . S
C745 C747 1.366 . S
C745 H753 0.930 . S
C746 N744 1.325 . S
C746 C747 1.416 . S
C746 H752 0.929 . S
C747 C745 1.366 . S
C747 C746 1.416 . S
C747 H749 0.930 . S
H748 C737 0.930 . S
H749 C747 0.930 . S
H750 C765 0.930 . S
H751 C772 0.930 . S
H752 C746 0.929 . S
H753 C745 0.930 . S
H754 C768 0.929 . S
H755 C735 0.931 . S
H756 C741 0.931 . S
H757 C742 0.931 . S
H758 C763 0.931 . S
H759 C738 0.929 . S
H760 C771 0.930 . S
N761 Eu732 2.600 . S
N761 C762 1.365 . S
N761 C765 1.319 . S
C762 N761 1.365 . S
C762 C764 1.405 . S
C762 C770 1.448 . S
C763 H758 0.931 . S
C763 C765 1.397 . S
C763 C766 1.367 . S
C764 C762 1.405 . S
C764 C766 1.403 . S
C764 C797 1.439 . S
C765 H750 0.930 . S
C765 N761 1.319 . S
C765 C763 1.397 . S
C766 C763 1.367 . S
C766 C764 1.403 . S
C766 H773 0.929 . S
N767 Eu732 2.562 . S
N767 C768 1.325 . S
N767 C770 1.351 . S
C768 H754 0.929 . S
C768 N767 1.325 . S
C768 C772 1.416 . S
C769 C770 1.430 . S
C769 C771 1.404 . S
C769 C798 1.387 . S
C770 C762 1.448 . S
C770 N767 1.351 . S
C770 C769 1.430 . S
C771 H760 0.930 . S
C771 C769 1.404 . S
C771 C772 1.366 . S
C772 H751 0.930 . S
C772 C768 1.416 . S
C772 C771 1.366 . S
H773 C766 0.929 . S
H774 C797 0.931 . S
H775 C798 0.931 . S
O776 Eu732 2.462 . S
O776 C796 1.252 . S
O777 Eu732 2.373 . S
O777 C788 1.249 . S
O778 Eu743 2.335 . S
O778 C788 1.264 . S
O779 Eu732 2.432 . S
O779 C796 1.268 . S
O780 Eu732 2.291 . S
O780 C795 1.255 . S
O781 Eu743 2.372 . S
O781 C795 1.257 . S
O782 Eu743 2.462 . S
O782 C807 1.252 . S
O783 Eu743 2.373 . S
O783 C799 1.249 . S
O784 Eu732 2.335 . S
O784 C799 1.264 . S
O785 Eu743 2.432 . S
O785 C807 1.268 . S
O786 Eu743 2.291 . S
O786 C806 1.255 . S
O787 Eu732 2.372 . S
O787 C806 1.257 . S
C788 O777 1.249 . S
C788 O778 1.264 . S
C789 C792 1.382 . S
C789 C794 1.390 . S
C789 C796 1.506 . S
C790 C791 1.398 . S
C790 C794 1.392 . S
C791 C790 1.398 . S
C791 C793 1.372 . S
C791 H808 0.931 . S
C792 C789 1.382 . S
C792 C793 1.390 . S
C792 H809 0.931 . S
C793 C791 1.372 . S
C793 C792 1.390 . S
C793 H810 0.929 . S
C794 C789 1.390 . S
C794 C790 1.392 . S
C794 H811 0.930 . S
C795 O780 1.255 . S
C795 O781 1.257 . S
C796 Eu732 2.787 . S
C796 O776 1.252 . S
C796 O779 1.268 . S
C796 C789 1.506 . S
C797 C764 1.439 . S
C797 H774 0.931 . S
C797 C798 1.374 . S
C798 C769 1.387 . S
C798 H775 0.931 . S
C798 C797 1.374 . S
C799 O783 1.249 . S
C799 O784 1.264 . S
C800 C803 1.382 . S
C800 C804 1.390 . S
C800 C807 1.506 . S
C801 C802 1.398 . S
C801 C804 1.392 . S
C802 C801 1.398 . S
C802 C805 1.372 . S
C802 H812 0.931 . S
C803 C800 1.382 . S
C803 C805 1.390 . S
C803 H813 0.931 . S
C804 C800 1.390 . S
C804 C801 1.392 . S
C804 H814 0.930 . S
C805 C802 1.372 . S
C805 C803 1.390 . S
C805 H815 0.929 . S
C806 O786 1.255 . S
C806 O787 1.257 . S
C807 Eu743 2.787 . S
C807 O782 1.252 . S
C807 O785 1.268 . S
C807 C800 1.506 . S
H808 C791 0.931 . S
H809 C792 0.931 . S
H810 C793 0.929 . S
H811 C794 0.930 . S
H812 C802 0.931 . S
H813 C803 0.931 . S
H814 C804 0.930 . S
H815 C805 0.929 . S
H816 C824 0.929 . S
H817 C826 0.930 . S
H818 C828 0.930 1_545 S
H819 C831 0.929 . S
H820 C834 0.930 1_565 S
H821 C836 0.960 . S
H822 C836 0.960 . S
H823 C836 0.960 . S
C824 H816 0.929 . S
C824 C825 1.377 . S
C824 C826 1.384 . S
C825 C824 1.377 . S
C825 C831 1.390 . S
C826 H817 0.930 . S
C826 C824 1.384 . S
C826 C827 1.373 1_565 S
C827 C826 1.373 1_545 S
C827 C828 1.400 1_545 S
C827 C832 1.489 . S
C828 H818 0.930 1_565 S
C828 C827 1.400 1_565 S
C828 C831 1.386 . S
H829 C845 0.930 . S
H830 C846 0.931 . S
C831 H819 0.929 . S
C831 C825 1.390 . S
C831 C828 1.386 . S
C832 C827 1.489 . S
C832 C834 1.395 . S
C832 C835 1.403 . S
H833 C839 0.930 . S
C834 H820 0.930 1_545 S
C834 C832 1.395 . S
C834 C837 1.403 . S
C835 C832 1.403 . S
C835 C836 1.524 . S
C835 C839 1.400 . S
C836 H821 0.960 . S
C836 H822 0.960 . S
C836 H823 0.960 . S
C836 C835 1.524 . S
C837 C834 1.403 . S
C837 C838 1.392 . S
C837 C841 1.495 . S
C838 C837 1.392 . S
C838 C839 1.385 . S
C838 C840 1.478 . S
C839 H833 0.930 . S
C839 C835 1.400 . S
C839 C838 1.385 . S
C840 C838 1.478 . S
C840 C842 1.381 . S
C840 C846 1.383 . S
C841 C837 1.495 . S
C841 H847 0.959 . S
C841 H848 0.961 . S
C841 H849 0.960 . S
C842 C840 1.381 . S
C842 C843 1.394 . S
C842 H850 0.930 . S
C843 C842 1.394 . S
C843 C844 1.383 . S
C843 H851 0.929 . S
C844 C843 1.383 . S
C844 C845 1.377 . S
C845 H829 0.930 . S
C845 C844 1.377 . S
C845 C846 1.379 . S
C846 H830 0.931 . S
C846 C840 1.383 . S
C846 C845 1.379 . S
H847 C841 0.959 . S
H848 C841 0.961 . S
H849 C841 0.960 . S
H850 C842 0.930 . S
H851 C843 0.929 . S
H852 C860 0.929 . S
H853 C862 0.930 . S
H854 C864 0.930 . S
H855 C867 0.929 . S
H856 C870 0.930 . S
H857 C872 0.960 . S
H858 C872 0.960 . S
H859 C872 0.960 . S
C860 H852 0.929 . S
C860 C861 1.377 . S
C860 C862 1.384 . S
C861 C860 1.377 . S
C861 C867 1.390 . S
C862 H853 0.930 . S
C862 C860 1.384 . S
C862 C863 1.372 . S
C863 C862 1.372 . S
C863 C864 1.400 . S
C863 C868 1.490 . S
C864 H854 0.930 . S
C864 C863 1.400 . S
C864 C867 1.386 . S
H865 C881 0.930 . S
H866 C882 0.931 . S
C867 H855 0.929 . S
C867 C861 1.390 . S
C867 C864 1.386 . S
C868 C863 1.490 . S
C868 C870 1.395 . S
C868 C871 1.403 . S
H869 C875 0.930 . S
C870 H856 0.930 . S
C870 C868 1.395 . S
C870 C873 1.403 . S
C871 C868 1.403 . S
C871 C872 1.524 . S
C871 C875 1.400 . S
C872 H857 0.960 . S
C872 H858 0.960 . S
C872 H859 0.960 . S
C872 C871 1.524 . S
C873 C870 1.403 . S
C873 C874 1.392 . S
C873 C877 1.495 . S
C874 C873 1.392 . S
C874 C875 1.385 . S
C874 C876 1.478 . S
C875 H869 0.930 . S
C875 C871 1.400 . S
C875 C874 1.385 . S
C876 C874 1.478 . S
C876 C878 1.381 . S
C876 C882 1.383 . S
C877 C873 1.495 . S
C877 H883 0.959 . S
C877 H884 0.961 . S
C877 H885 0.960 . S
C878 C876 1.381 . S
C878 C879 1.394 . S
C878 H886 0.930 . S
C879 C878 1.394 . S
C879 C880 1.383 . S
C879 H887 0.929 . S
C880 C879 1.383 . S
C880 C881 1.377 . S
C881 H865 0.930 . S
C881 C880 1.377 . S
C881 C882 1.379 . S
C882 H866 0.931 . S
C882 C876 1.383 . S
C882 C881 1.379 . S
H883 C877 0.959 . S
H884 C877 0.961 . S
H885 C877 0.960 . S
H886 C878 0.930 . S
H887 C879 0.929 . S
H888 C896 0.929 . S
H889 C898 0.930 . S
H890 C900 0.930 . S
H891 C903 0.929 . S
H892 C906 0.930 . S
H893 C908 0.960 . S
H894 C908 0.960 . S
H895 C908 0.960 . S
C896 H888 0.929 . S
C896 C897 1.377 . S
C896 C898 1.384 . S
C897 C896 1.377 . S
C897 C903 1.390 . S
C898 H889 0.930 . S
C898 C896 1.384 . S
C898 C899 1.372 . S
C899 C898 1.372 . S
C899 C900 1.400 . S
C899 C904 1.490 . S
C900 H890 0.930 . S
C900 C899 1.400 . S
C900 C903 1.386 . S
H901 C917 0.930 . S
H902 C918 0.931 . S
C903 H891 0.929 . S
C903 C897 1.390 . S
C903 C900 1.386 . S
C904 C899 1.490 . S
C904 C906 1.395 . S
C904 C907 1.403 . S
H905 C911 0.930 . S
C906 H892 0.930 . S
C906 C904 1.395 . S
C906 C909 1.403 . S
C907 C904 1.403 . S
C907 C908 1.524 . S
C907 C911 1.400 . S
C908 H893 0.960 . S
C908 H894 0.960 . S
C908 H895 0.960 . S
C908 C907 1.524 . S
C909 C906 1.403 . S
C909 C910 1.392 . S
C909 C913 1.495 . S
C910 C909 1.392 . S
C910 C911 1.385 . S
C910 C912 1.478 . S
C911 H905 0.930 . S
C911 C907 1.400 . S
C911 C910 1.385 . S
C912 C910 1.478 . S
C912 C914 1.381 . S
C912 C918 1.383 . S
C913 C909 1.495 . S
C913 H919 0.959 . S
C913 H920 0.961 . S
C913 H921 0.960 . S
C914 C912 1.381 . S
C914 C915 1.394 . S
C914 H922 0.930 . S
C915 C914 1.394 . S
C915 C916 1.383 . S
C915 H923 0.929 . S
C916 C915 1.383 . S
C916 C917 1.377 . S
C917 H901 0.930 . S
C917 C916 1.377 . S
C917 C918 1.379 . S
C918 H902 0.931 . S
C918 C912 1.383 . S
C918 C917 1.379 . S
H919 C913 0.959 . S
H920 C913 0.961 . S
H921 C913 0.960 . S
H922 C914 0.930 . S
H923 C915 0.929 . S
H924 C932 0.929 . S
H925 C934 0.930 . S
H926 C936 0.930 . S
H927 C939 0.929 . S
H928 C942 0.930 . S
H929 C944 0.960 . S
H930 C944 0.960 . S
H931 C944 0.948 1_565 S
C932 H924 0.929 . S
C932 C933 1.377 . S
C932 C934 1.384 1_565 S
C933 C932 1.377 . S
C933 C939 1.390 . S
C934 H925 0.930 . S
C934 C932 1.384 1_545 S
C934 C935 1.372 . S
C935 C934 1.372 . S
C935 C936 1.400 1_545 S
C935 C940 1.490 . S
C936 H926 0.930 . S
C936 C935 1.400 1_565 S
C936 C939 1.386 . S
H937 C953 0.930 . S
H938 C954 0.931 . S
C939 H927 0.929 . S
C939 C933 1.390 . S
C939 C936 1.386 . S
C940 C935 1.490 . S
C940 C942 1.395 . S
C940 C943 1.403 . S
H941 C947 0.930 . S
C942 H928 0.930 . S
C942 C940 1.395 . S
C942 C945 1.403 . S
C943 C940 1.403 . S
C943 C944 1.524 . S
C943 C947 1.400 . S
C944 H929 0.960 . S
C944 H930 0.960 . S
C944 H931 0.948 1_545 S
C944 C943 1.524 . S
C945 C942 1.403 . S
C945 C946 1.392 . S
C945 C949 1.495 . S
C946 C945 1.392 . S
C946 C947 1.385 . S
C946 C948 1.478 . S
C947 H941 0.930 . S
C947 C943 1.400 . S
C947 C946 1.385 . S
C948 C946 1.478 . S
C948 C950 1.381 . S
C948 C954 1.383 . S
C949 C945 1.495 . S
C949 H955 0.959 . S
C949 H956 0.961 . S
C949 H957 0.960 . S
C950 C948 1.381 . S
C950 C951 1.394 . S
C950 H958 0.930 . S
C951 C950 1.394 . S
C951 C952 1.383 . S
C951 H959 0.929 . S
C952 C951 1.383 . S
C952 C953 1.377 . S
C953 H937 0.930 . S
C953 C952 1.377 . S
C953 C954 1.379 . S
C954 H938 0.931 . S
C954 C948 1.383 . S
C954 C953 1.379 . S
H955 C949 0.959 . S
H956 C949 0.961 . S
H957 C949 0.960 . S
H958 C950 0.930 . S
H959 C951 0.929 . S
H960 C968 0.929 . S
H961 C970 0.930 . S
H962 C972 0.900 1_565 S
H963 C975 0.929 . S
H964 C978 0.930 1_545 S
H965 C980 0.960 . S
H966 C980 0.960 . S
H967 C980 0.960 . S
C968 H960 0.929 . S
C968 C969 1.377 . S
C968 C970 1.384 . S
C969 C968 1.377 . S
C969 C975 1.390 . S
C970 H961 0.930 . S
C970 C968 1.384 . S
C970 C971 1.368 . S
C971 C970 1.368 . S
C971 C972 1.399 . S
C971 C976 1.494 1_545 S
C972 H962 0.900 1_545 S
C972 C971 1.399 . S
C972 C975 1.417 . S
H973 C989 0.930 . S
H974 C990 0.931 . S
C975 H963 0.929 . S
C975 C969 1.390 . S
C975 C972 1.417 . S
C976 C971 1.494 1_565 S
C976 C978 1.395 . S
C976 C979 1.403 . S
H977 C983 0.930 . S
C978 H964 0.930 1_565 S
C978 C976 1.395 . S
C978 C981 1.403 . S
C979 C976 1.403 . S
C979 C980 1.524 . S
C979 C983 1.400 . S
C980 H965 0.960 . S
C980 H966 0.960 . S
C980 H967 0.960 . S
C980 C979 1.524 . S
C981 C978 1.403 . S
C981 C982 1.392 . S
C981 C985 1.495 . S
C982 C981 1.392 . S
C982 C983 1.385 . S
C982 C984 1.478 . S
C983 H977 0.930 . S
C983 C979 1.400 . S
C983 C982 1.385 . S
C984 C982 1.478 . S
C984 C986 1.381 . S
C984 C990 1.383 . S
C985 C981 1.495 . S
C985 H991 0.959 . S
C985 H992 0.961 . S
C985 H993 0.960 . S
C986 C984 1.381 . S
C986 C987 1.394 . S
C986 H994 0.930 . S
C987 C986 1.394 . S
C987 C988 1.383 . S
C987 H995 0.929 1_655 S
C988 C987 1.383 . S
C988 C989 1.377 . S
C989 H973 0.930 . S
C989 C988 1.377 . S
C989 C990 1.379 . S
C990 H974 0.931 . S
C990 C984 1.383 . S
C990 C989 1.379 . S
H991 C985 0.959 . S
H992 C985 0.961 . S
H993 C985 0.960 . S
H994 C986 0.930 . S
H995 C987 0.929 1_455 S
H996 C1004 0.929 . S
H997 C1006 0.930 . S
H998 C1008 0.930 . S
H999 C1011 0.929 . S
H1000 C1014 0.930 . S
H1001 C1016 0.960 . S
H1002 C1016 0.960 . S
H1003 C1016 0.960 . S
C1004 H996 0.929 . S
C1004 C1005 1.377 . S
C1004 C1006 1.384 . S
C1005 C1004 1.377 . S
C1005 C1011 1.390 . S
C1006 H997 0.930 . S
C1006 C1004 1.384 . S
C1006 C1007 1.372 . S
C1007 C1006 1.372 . S
C1007 C1008 1.400 . S
C1007 C1012 1.490 . S
C1008 H998 0.930 . S
C1008 C1007 1.400 . S
C1008 C1011 1.386 . S
H1009 C1025 0.930 . S
H1010 C1026 0.931 . S
C1011 H999 0.929 . S
C1011 C1005 1.390 . S
C1011 C1008 1.386 . S
C1012 C1007 1.490 . S
C1012 C1014 1.395 . S
C1012 C1015 1.403 . S
H1013 C1019 0.930 . S
C1014 H1000 0.930 . S
C1014 C1012 1.395 . S
C1014 C1017 1.403 . S
C1015 C1012 1.403 . S
C1015 C1016 1.524 . S
C1015 C1019 1.400 . S
C1016 H1001 0.960 . S
C1016 H1002 0.960 . S
C1016 H1003 0.960 . S
C1016 C1015 1.524 . S
C1017 C1014 1.403 . S
C1017 C1018 1.392 . S
C1017 C1021 1.495 . S
C1018 C1017 1.392 . S
C1018 C1019 1.385 . S
C1018 C1020 1.478 . S
C1019 H1013 0.930 . S
C1019 C1015 1.400 . S
C1019 C1018 1.385 . S
C1020 C1018 1.478 . S
C1020 C1022 1.381 . S
C1020 C1026 1.383 . S
C1021 C1017 1.495 . S
C1021 H1027 0.959 . S
C1021 H1028 0.961 . S
C1021 H1029 0.960 . S
C1022 C1020 1.381 . S
C1022 C1023 1.394 . S
C1022 H1030 0.930 . S
C1023 C1022 1.394 . S
C1023 C1024 1.383 . S
C1023 H1031 0.929 . S
C1024 C1023 1.383 . S
C1024 C1025 1.377 . S
C1025 H1009 0.930 . S
C1025 C1024 1.377 . S
C1025 C1026 1.379 . S
C1026 H1010 0.931 . S
C1026 C1020 1.383 . S
C1026 C1025 1.379 . S
H1027 C1021 0.959 . S
H1028 C1021 0.961 . S
H1029 C1021 0.960 . S
H1030 C1022 0.930 . S
H1031 C1023 0.929 . S
H1032 C1040 0.929 . S
H1033 C1042 0.930 . S
H1034 C1044 0.930 . S
H1035 C1047 0.929 . S
H1036 C1050 0.930 . S
H1037 C1052 0.960 . S
H1038 C1052 0.960 . S
H1039 C1052 0.960 . S
C1040 H1032 0.929 . S
C1040 C1041 1.377 . S
C1040 C1042 1.384 . S
C1041 C1040 1.377 . S
C1041 C1047 1.390 . S
C1042 H1033 0.930 . S
C1042 C1040 1.384 . S
C1042 C1043 1.372 . S
C1043 C1042 1.372 . S
C1043 C1044 1.400 . S
C1043 C1048 1.490 . S
C1044 H1034 0.930 . S
C1044 C1043 1.400 . S
C1044 C1047 1.386 . S
H1045 C1061 0.930 . S
H1046 C1062 0.931 . S
C1047 H1035 0.929 . S
C1047 C1041 1.390 . S
C1047 C1044 1.386 . S
C1048 C1043 1.490 . S
C1048 C1050 1.395 . S
C1048 C1051 1.403 . S
H1049 C1055 0.930 . S
C1050 H1036 0.930 . S
C1050 C1048 1.395 . S
C1050 C1053 1.403 . S
C1051 C1048 1.403 . S
C1051 C1052 1.524 . S
C1051 C1055 1.400 . S
C1052 H1037 0.960 . S
C1052 H1038 0.960 . S
C1052 H1039 0.960 . S
C1052 C1051 1.524 . S
C1053 C1050 1.403 . S
C1053 C1054 1.392 . S
C1053 C1057 1.495 . S
C1054 C1053 1.392 . S
C1054 C1055 1.385 . S
C1054 C1056 1.478 . S
C1055 H1049 0.930 . S
C1055 C1051 1.400 . S
C1055 C1054 1.385 . S
C1056 C1054 1.478 . S
C1056 C1058 1.381 . S
C1056 C1062 1.383 . S
C1057 C1053 1.495 . S
C1057 H1063 0.959 . S
C1057 H1064 0.961 . S
C1057 H1065 0.960 . S
C1058 C1056 1.381 . S
C1058 C1059 1.394 . S
C1058 H1066 0.930 . S
C1059 C1058 1.394 . S
C1059 C1060 1.383 . S
C1059 H1067 0.929 . S
C1060 C1059 1.383 . S
C1060 C1061 1.377 . S
C1061 H1045 0.930 . S
C1061 C1060 1.377 . S
C1061 C1062 1.379 . S
C1062 H1046 0.931 . S
C1062 C1056 1.383 . S
C1062 C1061 1.379 . S
H1063 C1057 0.959 . S
H1064 C1057 0.961 . S
H1065 C1057 0.960 . S
H1066 C1058 0.930 . S
H1067 C1059 0.929 . S
H1068 C1076 0.929 . S
H1069 C1078 0.930 . S
H1070 C1080 0.957 . S
H1071 C1083 0.929 . S
H1072 C1086 0.930 . S
H1073 C1088 0.960 . S
H1074 C1088 0.960 1_545 S
H1075 C1088 0.960 . S
C1076 H1068 0.929 . S
C1076 C1077 1.377 . S
C1076 C1078 1.384 . S
C1077 C1076 1.377 . S
C1077 C1083 1.390 . S
C1078 H1069 0.930 . S
C1078 C1076 1.384 . S
C1078 C1079 1.335 1_545 S
C1079 C1078 1.335 1_565 S
C1079 C1080 1.400 . S
C1079 C1084 1.528 . S
C1080 H1070 0.957 . S
C1080 C1079 1.400 . S
C1080 C1083 1.359 1_565 S
H1081 C1097 0.930 . S
H1082 C1098 0.931 . S
C1083 H1071 0.929 . S
C1083 C1077 1.390 . S
C1083 C1080 1.359 1_545 S
C1084 C1079 1.528 . S
C1084 C1086 1.395 . S
C1084 C1087 1.403 . S
H1085 C1091 0.930 . S
C1086 H1072 0.930 . S
C1086 C1084 1.395 . S
C1086 C1089 1.403 . S
C1087 C1084 1.403 . S
C1087 C1088 1.524 . S
C1087 C1091 1.400 . S
C1088 H1073 0.960 . S
C1088 H1074 0.960 1_565 S
C1088 H1075 0.960 . S
C1088 C1087 1.524 . S
C1089 C1086 1.403 . S
C1089 C1090 1.392 . S
C1089 C1093 1.495 . S
C1090 C1089 1.392 . S
C1090 C1091 1.385 . S
C1090 C1092 1.478 . S
C1091 H1085 0.930 . S
C1091 C1087 1.400 . S
C1091 C1090 1.385 . S
C1092 C1090 1.478 . S
C1092 C1094 1.381 . S
C1092 C1098 1.383 . S
C1093 C1089 1.495 . S
C1093 H1099 0.959 . S
C1093 H1100 0.961 . S
C1093 H1101 0.960 . S
C1094 C1092 1.381 . S
C1094 C1095 1.394 . S
C1094 H1102 0.930 . S
C1095 C1094 1.394 . S
C1095 C1096 1.383 . S
C1095 H1103 0.929 . S
C1096 C1095 1.383 . S
C1096 C1097 1.377 . S
C1097 H1081 0.930 . S
C1097 C1096 1.377 . S
C1097 C1098 1.379 . S
C1098 H1082 0.931 . S
C1098 C1092 1.383 . S
C1098 C1097 1.379 . S
H1099 C1093 0.959 . S
H1100 C1093 0.961 . S
H1101 C1093 0.960 . S
H1102 C1094 0.930 . S
H1103 C1095 0.929 . S
H1104 C1112 0.929 1_556 S
H1105 C1114 0.930 . S
H1106 C1116 0.930 . S
H1107 C1119 0.929 . S
H1108 C1122 0.930 . S
H1109 C1124 0.960 . S
H1110 C1124 0.960 . S
H1111 C1124 0.960 . S
C1112 H1104 0.929 1_554 S
C1112 C1113 1.377 . S
C1112 C1114 1.384 . S
C1113 C1112 1.377 . S
C1113 C1119 1.390 . S
C1114 H1105 0.930 . S
C1114 C1112 1.384 . S
C1114 C1115 1.372 . S
C1115 C1114 1.372 . S
C1115 C1116 1.400 . S
C1115 C1120 1.490 . S
C1116 H1106 0.930 . S
C1116 C1115 1.400 . S
C1116 C1119 1.386 . S
H1117 C1133 0.930 . S
H1118 C1134 0.931 . S
C1119 H1107 0.929 . S
C1119 C1113 1.390 . S
C1119 C1116 1.386 . S
C1120 C1115 1.490 . S
C1120 C1122 1.395 . S
C1120 C1123 1.403 . S
H1121 C1127 0.930 . S
C1122 H1108 0.930 . S
C1122 C1120 1.395 . S
C1122 C1125 1.403 . S
C1123 C1120 1.403 . S
C1123 C1124 1.524 . S
C1123 C1127 1.400 . S
C1124 H1109 0.960 . S
C1124 H1110 0.960 . S
C1124 H1111 0.960 . S
C1124 C1123 1.524 . S
C1125 C1122 1.403 . S
C1125 C1126 1.392 . S
C1125 C1129 1.495 . S
C1126 C1125 1.392 . S
C1126 C1127 1.385 . S
C1126 C1128 1.478 . S
C1127 H1121 0.930 . S
C1127 C1123 1.400 . S
C1127 C1126 1.385 . S
C1128 C1126 1.478 . S
C1128 C1130 1.381 . S
C1128 C1134 1.383 . S
C1129 C1125 1.495 . S
C1129 H1135 0.959 . S
C1129 H1136 0.961 . S
C1129 H1137 0.960 . S
C1130 C1128 1.381 . S
C1130 C1131 1.394 . S
C1130 H1138 0.930 . S
C1131 C1130 1.394 . S
C1131 C1132 1.383 . S
C1131 H1139 0.929 . S
C1132 C1131 1.383 . S
C1132 C1133 1.377 . S
C1133 H1117 0.930 . S
C1133 C1132 1.377 . S
C1133 C1134 1.379 . S
C1134 H1118 0.931 . S
C1134 C1128 1.383 . S
C1134 C1133 1.379 . S
H1135 C1129 0.959 . S
H1136 C1129 0.961 . S
H1137 C1129 0.960 . S
H1138 C1130 0.930 . S
H1139 C1131 0.929 . S
H1140 C1148 0.929 . S
H1141 C1150 0.930 . S
H1142 C1152 0.930 . S
H1143 C1155 0.929 . S
H1144 C1158 0.930 . S
H1145 C1160 0.960 . S
H1146 C1160 0.960 . S
H1147 C1160 0.960 . S
C1148 H1140 0.929 . S
C1148 C1149 1.377 . S
C1148 C1150 1.384 . S
C1149 C1148 1.377 . S
C1149 C1155 1.390 . S
C1150 H1141 0.930 . S
C1150 C1148 1.384 . S
C1150 C1151 1.372 . S
C1151 C1150 1.372 . S
C1151 C1152 1.400 . S
C1151 C1156 1.490 . S
C1152 H1142 0.930 . S
C1152 C1151 1.400 . S
C1152 C1155 1.386 . S
H1153 C1169 0.930 . S
H1154 C1170 0.931 . S
C1155 H1143 0.929 . S
C1155 C1149 1.390 . S
C1155 C1152 1.386 . S
C1156 C1151 1.490 . S
C1156 C1158 1.395 . S
C1156 C1159 1.403 . S
H1157 C1163 0.930 . S
C1158 H1144 0.930 . S
C1158 C1156 1.395 . S
C1158 C1161 1.403 . S
C1159 C1156 1.403 . S
C1159 C1160 1.524 . S
C1159 C1163 1.400 . S
C1160 H1145 0.960 . S
C1160 H1146 0.960 . S
C1160 H1147 0.960 . S
C1160 C1159 1.524 . S
C1161 C1158 1.403 . S
C1161 C1162 1.392 . S
C1161 C1165 1.495 . S
C1162 C1161 1.392 . S
C1162 C1163 1.385 . S
C1162 C1164 1.478 . S
C1163 H1157 0.930 . S
C1163 C1159 1.400 . S
C1163 C1162 1.385 . S
C1164 C1162 1.478 . S
C1164 C1166 1.381 . S
C1164 C1170 1.383 . S
C1165 C1161 1.495 . S
C1165 H1171 0.959 . S
C1165 H1172 0.961 . S
C1165 H1173 0.960 . S
C1166 C1164 1.381 . S
C1166 C1167 1.394 . S
C1166 H1174 0.930 . S
C1167 C1166 1.394 . S
C1167 C1168 1.383 . S
C1167 H1175 0.929 . S
C1168 C1167 1.383 . S
C1168 C1169 1.377 . S
C1169 H1153 0.930 . S
C1169 C1168 1.377 . S
C1169 C1170 1.379 . S
C1170 H1154 0.931 . S
C1170 C1164 1.383 . S
C1170 C1169 1.379 . S
H1171 C1165 0.959 . S
H1172 C1165 0.961 . S
H1173 C1165 0.960 . S
H1174 C1166 0.930 . S
H1175 C1167 0.929 . S
H1176 C1184 0.929 . S
H1177 C1186 0.930 . S
H1178 C1188 0.930 . S
H1179 C1191 0.929 . S
H1180 C1194 0.930 . S
H1181 C1196 0.960 . S
H1182 C1196 0.960 . S
H1183 C1196 0.960 . S
C1184 H1176 0.929 . S
C1184 C1185 1.350 1_556 S
C1184 C1186 1.384 . S
C1185 C1184 1.350 1_554 S
C1185 C1191 1.366 1_554 S
C1186 H1177 0.930 . S
C1186 C1184 1.384 . S
C1186 C1187 1.372 . S
C1187 C1186 1.372 . S
C1187 C1188 1.400 . S
C1187 C1192 1.490 . S
C1188 H1178 0.930 . S
C1188 C1187 1.400 . S
C1188 C1191 1.386 . S
H1189 C1205 0.930 . S
H1190 C1206 0.931 . S
C1191 H1179 0.929 . S
C1191 C1185 1.366 1_556 S
C1191 C1188 1.386 . S
C1192 C1187 1.490 . S
C1192 C1194 1.395 . S
C1192 C1195 1.403 . S
H1193 C1199 0.930 . S
C1194 H1180 0.930 . S
C1194 C1192 1.395 . S
C1194 C1197 1.403 . S
C1195 C1192 1.403 . S
C1195 C1196 1.524 . S
C1195 C1199 1.400 . S
C1196 H1181 0.960 . S
C1196 H1182 0.960 . S
C1196 H1183 0.960 . S
C1196 C1195 1.524 . S
C1197 C1194 1.403 . S
C1197 C1198 1.392 . S
C1197 C1201 1.495 . S
C1198 C1197 1.392 . S
C1198 C1199 1.385 . S
C1198 C1200 1.478 . S
C1199 H1193 0.930 . S
C1199 C1195 1.400 . S
C1199 C1198 1.385 . S
C1200 C1198 1.478 . S
C1200 C1202 1.381 . S
C1200 C1206 1.383 . S
C1201 C1197 1.495 . S
C1201 H1207 0.959 . S
C1201 H1208 0.961 . S
C1201 H1209 0.960 . S
C1202 C1200 1.381 . S
C1202 C1203 1.394 . S
C1202 H1210 0.930 . S
C1203 C1202 1.394 . S
C1203 C1204 1.383 . S
C1203 H1211 0.929 . S
C1204 C1203 1.383 . S
C1204 C1205 1.377 . S
C1205 H1189 0.930 . S
C1205 C1204 1.377 . S
C1205 C1206 1.379 . S
C1206 H1190 0.931 . S
C1206 C1200 1.383 . S
C1206 C1205 1.379 . S
H1207 C1201 0.959 . S
H1208 C1201 0.961 . S
H1209 C1201 0.960 . S
H1210 C1202 0.930 . S
H1211 C1203 0.929 . S
H1212 C1220 0.929 . S
H1213 C1222 0.930 . S
H1214 C1224 0.930 . S
H1215 C1227 0.929 . S
H1216 C1230 0.930 . S
H1217 C1232 0.960 . S
H1218 C1232 0.960 . S
H1219 C1232 0.960 . S
C1220 H1212 0.929 . S
C1220 C1221 1.377 . S
C1220 C1222 1.384 . S
C1221 C1220 1.377 . S
C1221 C1227 1.390 . S
C1222 H1213 0.930 . S
C1222 C1220 1.384 . S
C1222 C1223 1.372 . S
C1223 C1222 1.372 . S
C1223 C1224 1.400 . S
C1223 C1228 1.490 . S
C1224 H1214 0.930 . S
C1224 C1223 1.400 . S
C1224 C1227 1.386 . S
H1225 C1241 0.930 . S
H1226 C1242 0.931 . S
C1227 H1215 0.929 . S
C1227 C1221 1.390 . S
C1227 C1224 1.386 . S
C1228 C1223 1.490 . S
C1228 C1230 1.395 . S
C1228 C1231 1.403 . S
H1229 C1235 0.930 . S
C1230 H1216 0.930 . S
C1230 C1228 1.395 . S
C1230 C1233 1.403 . S
C1231 C1228 1.403 . S
C1231 C1232 1.524 . S
C1231 C1235 1.400 . S
C1232 H1217 0.960 . S
C1232 H1218 0.960 . S
C1232 H1219 0.960 . S
C1232 C1231 1.524 . S
C1233 C1230 1.403 . S
C1233 C1234 1.392 . S
C1233 C1237 1.495 . S
C1234 C1233 1.392 . S
C1234 C1235 1.385 . S
C1234 C1236 1.478 . S
C1235 H1229 0.930 . S
C1235 C1231 1.400 . S
C1235 C1234 1.385 . S
C1236 C1234 1.478 . S
C1236 C1238 1.381 . S
C1236 C1242 1.383 . S
C1237 C1233 1.495 . S
C1237 H1243 0.959 . S
C1237 H1244 0.961 . S
C1237 H1245 0.960 . S
C1238 C1236 1.381 . S
C1238 C1239 1.394 . S
C1238 H1246 0.930 . S
C1239 C1238 1.394 . S
C1239 C1240 1.383 . S
C1239 H1247 0.929 . S
C1240 C1239 1.383 . S
C1240 C1241 1.377 . S
C1241 H1225 0.930 . S
C1241 C1240 1.377 . S
C1241 C1242 1.379 . S
C1242 H1226 0.931 . S
C1242 C1236 1.383 . S
C1242 C1241 1.379 . S
H1243 C1237 0.959 . S
H1244 C1237 0.961 . S
H1245 C1237 0.960 . S
H1246 C1238 0.930 . S
H1247 C1239 0.929 . S
H1248 C1256 0.929 . S
H1249 C1258 0.930 . S
H1250 C1260 0.930 . S
H1251 C1263 0.929 . S
H1252 C1266 0.930 . S
H1253 C1268 0.960 . S
H1254 C1268 0.960 . S
H1255 C1268 0.960 . S
C1256 H1248 0.929 . S
C1256 C1257 1.377 . S
C1256 C1258 1.384 . S
C1257 C1256 1.377 . S
C1257 C1263 1.390 . S
C1258 H1249 0.930 . S
C1258 C1256 1.384 . S
C1258 C1259 1.372 . S
C1259 C1258 1.372 . S
C1259 C1260 1.400 . S
C1259 C1264 1.490 . S
C1260 H1250 0.930 . S
C1260 C1259 1.400 . S
C1260 C1263 1.386 . S
H1261 C1277 0.930 . S
H1262 C1278 0.931 . S
C1263 H1251 0.929 . S
C1263 C1257 1.390 . S
C1263 C1260 1.386 . S
C1264 C1259 1.490 . S
C1264 C1266 1.395 . S
C1264 C1267 1.403 . S
H1265 C1271 0.930 . S
C1266 H1252 0.930 . S
C1266 C1264 1.395 . S
C1266 C1269 1.403 . S
C1267 C1264 1.403 . S
C1267 C1268 1.524 . S
C1267 C1271 1.400 . S
C1268 H1253 0.960 . S
C1268 H1254 0.960 . S
C1268 H1255 0.960 . S
C1268 C1267 1.524 . S
C1269 C1266 1.403 . S
C1269 C1270 1.392 . S
C1269 C1273 1.495 . S
C1270 C1269 1.392 . S
C1270 C1271 1.385 . S
C1270 C1272 1.478 . S
C1271 H1265 0.930 . S
C1271 C1267 1.400 . S
C1271 C1270 1.385 . S
C1272 C1270 1.478 . S
C1272 C1274 1.381 . S
C1272 C1278 1.383 . S
C1273 C1269 1.495 . S
C1273 H1279 0.959 . S
C1273 H1280 0.961 . S
C1273 H1281 0.960 . S
C1274 C1272 1.381 . S
C1274 C1275 1.394 . S
C1274 H1282 0.930 . S
C1275 C1274 1.394 . S
C1275 C1276 1.383 . S
C1275 H1283 0.929 . S
C1276 C1275 1.383 . S
C1276 C1277 1.377 . S
C1277 H1261 0.930 . S
C1277 C1276 1.377 . S
C1277 C1278 1.379 . S
C1278 H1262 0.931 . S
C1278 C1272 1.383 . S
C1278 C1277 1.379 . S
H1279 C1273 0.959 . S
H1280 C1273 0.961 . S
H1281 C1273 0.960 . S
H1282 C1274 0.930 . S
H1283 C1275 0.929 . S
H1284 C1292 0.929 . S
H1285 C1294 0.930 . S
H1286 C1296 0.930 . S
H1287 C1299 0.929 . S
H1288 C1302 0.930 . S
H1289 C1304 0.960 . S
H1290 C1304 0.960 . S
H1291 C1304 0.960 . S
C1292 H1284 0.929 . S
C1292 C1293 1.377 . S
C1292 C1294 1.384 . S
C1293 C1292 1.377 . S
C1293 C1299 1.390 . S
C1294 H1285 0.930 . S
C1294 C1292 1.384 . S
C1294 C1295 1.372 . S
C1295 C1294 1.372 . S
C1295 C1296 1.400 . S
C1295 C1300 1.490 . S
C1296 H1286 0.930 . S
C1296 C1295 1.400 . S
C1296 C1299 1.386 . S
H1297 C1313 0.930 . S
H1298 C1314 0.931 . S
C1299 H1287 0.929 . S
C1299 C1293 1.390 . S
C1299 C1296 1.386 . S
C1300 C1295 1.490 . S
C1300 C1302 1.395 . S
C1300 C1303 1.403 . S
H1301 C1307 0.930 . S
C1302 H1288 0.930 . S
C1302 C1300 1.395 . S
C1302 C1305 1.403 . S
C1303 C1300 1.403 . S
C1303 C1304 1.524 . S
C1303 C1307 1.400 . S
C1304 H1289 0.960 . S
C1304 H1290 0.960 . S
C1304 H1291 0.960 . S
C1304 C1303 1.524 . S
C1305 C1302 1.403 . S
C1305 C1306 1.392 . S
C1305 C1309 1.495 . S
C1306 C1305 1.392 . S
C1306 C1307 1.385 . S
C1306 C1308 1.478 . S
C1307 H1301 0.930 . S
C1307 C1303 1.400 . S
C1307 C1306 1.385 . S
C1308 C1306 1.478 . S
C1308 C1310 1.381 . S
C1308 C1314 1.383 . S
C1309 C1305 1.495 . S
C1309 H1315 0.959 . S
C1309 H1316 0.961 . S
C1309 H1317 0.960 . S
C1310 C1308 1.381 . S
C1310 C1311 1.394 . S
C1310 H1318 0.930 . S
C1311 C1310 1.394 . S
C1311 C1312 1.383 . S
C1311 H1319 0.929 . S
C1312 C1311 1.383 . S
C1312 C1313 1.377 . S
C1313 H1297 0.930 . S
C1313 C1312 1.377 . S
C1313 C1314 1.379 . S
C1314 H1298 0.931 . S
C1314 C1308 1.383 . S
C1314 C1313 1.379 . S
H1315 C1309 0.959 . S
H1316 C1309 0.961 . S
H1317 C1309 0.960 . S
H1318 C1310 0.930 . S
H1319 C1311 0.929 . S
H1320 C1328 0.929 1_556 S
H1321 C1330 0.930 . S
H1322 C1332 0.930 . S
H1323 C1335 0.929 . S
H1324 C1338 0.930 . S
H1325 C1340 0.960 . S
H1326 C1340 0.960 . S
H1327 C1340 0.960 . S
C1328 H1320 0.929 1_554 S
C1328 C1329 1.377 1_554 S
C1328 C1330 1.384 . S
C1329 C1328 1.377 1_556 S
C1329 C1335 1.390 1_556 S
C1330 H1321 0.930 . S
C1330 C1328 1.384 . S
C1330 C1331 1.372 . S
C1331 C1330 1.372 . S
C1331 C1332 1.400 . S
C1331 C1336 1.490 . S
C1332 H1322 0.930 . S
C1332 C1331 1.400 . S
C1332 C1335 1.386 . S
H1333 C1349 0.930 . S
H1334 C1350 0.931 . S
C1335 H1323 0.929 . S
C1335 C1329 1.390 1_554 S
C1335 C1332 1.386 . S
C1336 C1331 1.490 . S
C1336 C1338 1.395 . S
C1336 C1339 1.403 . S
H1337 C1343 0.930 . S
C1338 H1324 0.930 . S
C1338 C1336 1.395 . S
C1338 C1341 1.403 . S
C1339 C1336 1.403 . S
C1339 C1340 1.524 . S
C1339 C1343 1.400 . S
C1340 H1325 0.960 . S
C1340 H1326 0.960 . S
C1340 H1327 0.960 . S
C1340 C1339 1.524 . S
C1341 C1338 1.403 . S
C1341 C1342 1.392 . S
C1341 C1345 1.495 . S
C1342 C1341 1.392 . S
C1342 C1343 1.385 . S
C1342 C1344 1.478 . S
C1343 H1337 0.930 . S
C1343 C1339 1.400 . S
C1343 C1342 1.385 . S
C1344 C1342 1.478 . S
C1344 C1346 1.381 . S
C1344 C1350 1.383 . S
C1345 C1341 1.495 . S
C1345 H1351 0.959 . S
C1345 H1352 0.961 . S
C1345 H1353 0.960 . S
C1346 C1344 1.381 . S
C1346 C1347 1.394 . S
C1346 H1354 0.930 . S
C1347 C1346 1.394 . S
C1347 C1348 1.383 . S
C1347 H1355 0.929 . S
C1348 C1347 1.383 . S
C1348 C1349 1.377 . S
C1349 H1333 0.930 . S
C1349 C1348 1.377 . S
C1349 C1350 1.379 . S
C1350 H1334 0.931 . S
C1350 C1344 1.383 . S
C1350 C1349 1.379 . S
H1351 C1345 0.959 . S
H1352 C1345 0.961 . S
H1353 C1345 0.960 . S
H1354 C1346 0.930 . S
H1355 C1347 0.929 . S
H1356 C1364 0.929 . S
H1357 C1366 0.930 . S
H1358 C1368 0.930 . S
H1359 C1371 0.929 . S
H1360 C1374 0.930 . S
H1361 C1376 0.960 . S
H1362 C1376 0.960 . S
H1363 C1376 0.960 . S
C1364 H1356 0.929 . S
C1364 C1365 1.377 . S
C1364 C1366 1.384 . S
C1365 C1364 1.377 . S
C1365 C1371 1.390 . S
C1366 H1357 0.930 . S
C1366 C1364 1.384 . S
C1366 C1367 1.372 . S
C1367 C1366 1.372 . S
C1367 C1368 1.400 . S
C1367 C1372 1.490 . S
C1368 H1358 0.930 . S
C1368 C1367 1.400 . S
C1368 C1371 1.386 . S
H1369 C1385 0.930 . S
H1370 C1386 0.931 . S
C1371 H1359 0.929 . S
C1371 C1365 1.390 . S
C1371 C1368 1.386 . S
C1372 C1367 1.490 . S
C1372 C1374 1.395 . S
C1372 C1375 1.403 . S
H1373 C1379 0.930 . S
C1374 H1360 0.930 . S
C1374 C1372 1.395 . S
C1374 C1377 1.403 . S
C1375 C1372 1.403 . S
C1375 C1376 1.524 . S
C1375 C1379 1.400 . S
C1376 H1361 0.960 . S
C1376 H1362 0.960 . S
C1376 H1363 0.960 . S
C1376 C1375 1.524 . S
C1377 C1374 1.403 . S
C1377 C1378 1.392 . S
C1377 C1381 1.495 . S
C1378 C1377 1.392 . S
C1378 C1379 1.385 . S
C1378 C1380 1.478 . S
C1379 H1373 0.930 . S
C1379 C1375 1.400 . S
C1379 C1378 1.385 . S
C1380 C1378 1.478 . S
C1380 C1382 1.381 . S
C1380 C1386 1.383 . S
C1381 C1377 1.495 . S
C1381 H1387 0.959 . S
C1381 H1388 0.961 . S
C1381 H1389 0.960 . S
C1382 C1380 1.381 . S
C1382 C1383 1.394 . S
C1382 H1390 0.930 . S
C1383 C1382 1.394 . S
C1383 C1384 1.383 . S
C1383 H1391 0.929 . S
C1384 C1383 1.383 . S
C1384 C1385 1.377 . S
C1385 H1369 0.930 . S
C1385 C1384 1.377 . S
C1385 C1386 1.379 . S
C1386 H1370 0.931 . S
C1386 C1380 1.383 . S
C1386 C1385 1.379 . S
H1387 C1381 0.959 . S
H1388 C1381 0.961 . S
H1389 C1381 0.960 . S
H1390 C1382 0.930 . S
H1391 C1383 0.929 . S
H1392 C1400 0.929 . S
H1393 C1402 0.930 . S
H1394 C1404 0.930 . S
H1395 C1407 0.929 . S
H1396 C1410 0.930 . S
H1397 C1412 0.960 . S
H1398 C1412 0.960 . S
H1399 C1412 0.960 . S
C1400 H1392 0.929 . S
C1400 C1401 1.377 . S
C1400 C1402 1.384 . S
C1401 C1400 1.377 . S
C1401 C1407 1.390 . S
C1402 H1393 0.930 . S
C1402 C1400 1.384 . S
C1402 C1403 1.372 . S
C1403 C1402 1.372 . S
C1403 C1404 1.400 . S
C1403 C1408 1.490 . S
C1404 H1394 0.930 . S
C1404 C1403 1.400 . S
C1404 C1407 1.386 . S
H1405 C1421 0.930 . S
H1406 C1422 0.931 . S
C1407 H1395 0.929 . S
C1407 C1401 1.390 . S
C1407 C1404 1.386 . S
C1408 C1403 1.490 . S
C1408 C1410 1.395 . S
C1408 C1411 1.403 . S
H1409 C1415 0.930 . S
C1410 H1396 0.930 . S
C1410 C1408 1.395 . S
C1410 C1413 1.403 . S
C1411 C1408 1.403 . S
C1411 C1412 1.524 . S
C1411 C1415 1.400 . S
C1412 H1397 0.960 . S
C1412 H1398 0.960 . S
C1412 H1399 0.960 . S
C1412 C1411 1.524 . S
C1413 C1410 1.403 . S
C1413 C1414 1.392 . S
C1413 C1417 1.495 . S
C1414 C1413 1.392 . S
C1414 C1415 1.385 . S
C1414 C1416 1.478 . S
C1415 H1409 0.930 . S
C1415 C1411 1.400 . S
C1415 C1414 1.385 . S
C1416 C1414 1.478 . S
C1416 C1418 1.381 . S
C1416 C1422 1.383 . S
C1417 C1413 1.495 . S
C1417 H1423 0.959 . S
C1417 H1424 0.961 . S
C1417 H1425 0.960 . S
C1418 C1416 1.381 . S
C1418 C1419 1.394 . S
C1418 H1426 0.930 . S
C1419 C1418 1.394 . S
C1419 C1420 1.383 . S
C1419 H1427 0.929 . S
C1420 C1419 1.383 . S
C1420 C1421 1.377 . S
C1421 H1405 0.930 . S
C1421 C1420 1.377 . S
C1421 C1422 1.379 . S
C1422 H1406 0.931 . S
C1422 C1416 1.383 . S
C1422 C1421 1.379 . S
H1423 C1417 0.959 . S
H1424 C1417 0.961 . S
H1425 C1417 0.960 . S
H1426 C1418 0.930 . S
H1427 C1419 0.929 . S
H1428 C1436 0.929 . S
H1429 C1438 0.930 . S
H1430 C1440 0.930 . S
H1431 C1443 0.929 . S
H1432 C1446 0.930 . S
H1433 C1448 0.960 . S
H1434 C1448 0.960 . S
H1435 C1448 0.960 . S
C1436 H1428 0.929 . S
C1436 C1437 1.377 . S
C1436 C1438 1.384 . S
C1437 C1436 1.377 . S
C1437 C1443 1.390 . S
C1438 H1429 0.930 . S
C1438 C1436 1.384 . S
C1438 C1439 1.372 . S
C1439 C1438 1.372 . S
C1439 C1440 1.400 . S
C1439 C1444 1.490 . S
C1440 H1430 0.930 . S
C1440 C1439 1.400 . S
C1440 C1443 1.386 . S
H1441 C1457 0.930 . S
H1442 C1458 0.931 . S
C1443 H1431 0.929 . S
C1443 C1437 1.390 . S
C1443 C1440 1.386 . S
C1444 C1439 1.490 . S
C1444 C1446 1.395 . S
C1444 C1447 1.403 . S
H1445 C1451 0.930 . S
C1446 H1432 0.930 . S
C1446 C1444 1.395 . S
C1446 C1449 1.403 . S
C1447 C1444 1.403 . S
C1447 C1448 1.524 . S
C1447 C1451 1.400 . S
C1448 H1433 0.960 . S
C1448 H1434 0.960 . S
C1448 H1435 0.960 . S
C1448 C1447 1.524 . S
C1449 C1446 1.403 . S
C1449 C1450 1.392 . S
C1449 C1453 1.495 . S
C1450 C1449 1.392 . S
C1450 C1451 1.385 . S
C1450 C1452 1.478 . S
C1451 H1445 0.930 . S
C1451 C1447 1.400 . S
C1451 C1450 1.385 . S
C1452 C1450 1.478 . S
C1452 C1454 1.381 . S
C1452 C1458 1.383 . S
C1453 C1449 1.495 . S
C1453 H1459 0.959 . S
C1453 H1460 0.961 . S
C1453 H1461 0.960 . S
C1454 C1452 1.381 . S
C1454 C1455 1.394 . S
C1454 H1462 0.930 . S
C1455 C1454 1.394 . S
C1455 C1456 1.383 . S
C1455 H1463 0.929 . S
C1456 C1455 1.383 . S
C1456 C1457 1.377 . S
C1457 H1441 0.930 . S
C1457 C1456 1.377 . S
C1457 C1458 1.379 . S
C1458 H1442 0.931 . S
C1458 C1452 1.383 . S
C1458 C1457 1.379 . S
H1459 C1453 0.959 . S
H1460 C1453 0.961 . S
H1461 C1453 0.960 . S
H1462 C1454 0.930 . S
H1463 C1455 0.929 . S
H1464 C1472 0.929 . S
H1465 C1474 0.930 . S
H1466 C1476 0.930 . S
H1467 C1479 0.929 . S
H1468 C1482 0.930 . S
H1469 C1484 0.960 . S
H1470 C1484 0.960 . S
H1471 C1484 0.960 . S
C1472 H1464 0.929 . S
C1472 C1473 1.377 . S
C1472 C1474 1.384 . S
C1473 C1472 1.377 . S
C1473 C1479 1.390 . S
C1474 H1465 0.930 . S
C1474 C1472 1.384 . S
C1474 C1475 1.372 . S
C1475 C1474 1.372 . S
C1475 C1476 1.400 . S
C1475 C1480 1.490 . S
C1476 H1466 0.930 . S
C1476 C1475 1.400 . S
C1476 C1479 1.386 . S
H1477 C1493 0.930 . S
H1478 C1494 0.931 . S
C1479 H1467 0.929 . S
C1479 C1473 1.390 . S
C1479 C1476 1.386 . S
C1480 C1475 1.490 . S
C1480 C1482 1.395 . S
C1480 C1483 1.403 . S
H1481 C1487 0.930 . S
C1482 H1468 0.930 . S
C1482 C1480 1.395 . S
C1482 C1485 1.403 . S
C1483 C1480 1.403 . S
C1483 C1484 1.524 . S
C1483 C1487 1.400 . S
C1484 H1469 0.960 . S
C1484 H1470 0.960 . S
C1484 H1471 0.960 . S
C1484 C1483 1.524 . S
C1485 C1482 1.403 . S
C1485 C1486 1.392 . S
C1485 C1489 1.495 . S
C1486 C1485 1.392 . S
C1486 C1487 1.385 . S
C1486 C1488 1.478 . S
C1487 H1481 0.930 . S
C1487 C1483 1.400 . S
C1487 C1486 1.385 . S
C1488 C1486 1.478 . S
C1488 C1490 1.381 . S
C1488 C1494 1.383 . S
C1489 C1485 1.495 . S
C1489 H1495 0.959 . S
C1489 H1496 0.961 . S
C1489 H1497 0.960 . S
C1490 C1488 1.381 . S
C1490 C1491 1.394 . S
C1490 H1498 0.930 . S
C1491 C1490 1.394 . S
C1491 C1492 1.383 . S
C1491 H1499 0.929 . S
C1492 C1491 1.383 . S
C1492 C1493 1.377 . S
C1493 H1477 0.930 . S
C1493 C1492 1.377 . S
C1493 C1494 1.379 . S
C1494 H1478 0.931 . S
C1494 C1488 1.383 . S
C1494 C1493 1.379 . S
H1495 C1489 0.959 . S
H1496 C1489 0.961 . S
H1497 C1489 0.960 . S
H1498 C1490 0.930 . S
H1499 C1491 0.929 . S
H1500 C1508 0.929 . S
H1501 C1510 0.930 . S
H1502 C1512 0.930 . S
H1503 C1515 0.929 . S
H1504 C1518 0.930 . S
H1505 C1520 0.960 . S
H1506 C1520 0.960 . S
H1507 C1520 0.960 . S
C1508 H1500 0.929 . S
C1508 C1509 1.377 . S
C1508 C1510 1.384 . S
C1509 C1508 1.377 . S
C1509 C1515 1.390 . S
C1510 H1501 0.930 . S
C1510 C1508 1.384 . S
C1510 C1511 1.372 . S
C1511 C1510 1.372 . S
C1511 C1512 1.400 . S
C1511 C1516 1.490 . S
C1512 H1502 0.930 . S
C1512 C1511 1.400 . S
C1512 C1515 1.386 . S
H1513 C1529 0.948 . S
H1514 C1530 0.931 . S
C1515 H1503 0.929 . S
C1515 C1509 1.390 . S
C1515 C1512 1.386 . S
C1516 C1511 1.490 . S
C1516 C1518 1.395 . S
C1516 C1519 1.403 . S
H1517 C1523 0.930 . S
C1518 H1504 0.930 . S
C1518 C1516 1.395 . S
C1518 C1521 1.403 . S
C1519 C1516 1.403 . S
C1519 C1520 1.524 . S
C1519 C1523 1.400 . S
C1520 H1505 0.960 . S
C1520 H1506 0.960 . S
C1520 H1507 0.960 . S
C1520 C1519 1.524 . S
C1521 C1518 1.403 . S
C1521 C1522 1.392 . S
C1521 C1525 1.495 . S
C1522 C1521 1.392 . S
C1522 C1523 1.385 . S
C1522 C1524 1.478 . S
C1523 H1517 0.930 . S
C1523 C1519 1.400 . S
C1523 C1522 1.385 . S
C1524 C1522 1.478 . S
C1524 C1526 1.381 . S
C1524 C1530 1.383 . S
C1525 C1521 1.495 . S
C1525 H1531 0.959 . S
C1525 H1532 0.961 . S
C1525 H1533 0.960 . S
C1526 C1524 1.381 . S
C1526 C1527 1.394 . S
C1526 H1534 0.930 . S
C1527 C1526 1.394 . S
C1527 C1528 1.383 . S
C1527 H1535 0.929 . S
C1528 C1527 1.383 . S
C1528 C1529 1.377 . S
C1529 H1513 0.948 . S
C1529 C1528 1.377 . S
C1529 C1530 1.379 . S
C1530 H1514 0.931 . S
C1530 C1524 1.383 . S
C1530 C1529 1.379 . S
H1531 C1525 0.959 . S
H1532 C1525 0.961 . S
H1533 C1525 0.960 . S
H1534 C1526 0.930 . S
H1535 C1527 0.929 . S
H1536 C1544 0.929 . S
H1537 C1546 0.930 . S
H1538 C1548 0.930 . S
H1539 C1551 0.929 . S
H1540 C1554 0.930 . S
H1541 C1556 0.960 . S
H1542 C1556 0.960 . S
H1543 C1556 0.960 . S
C1544 H1536 0.929 . S
C1544 C1545 1.377 . S
C1544 C1546 1.384 . S
C1545 C1544 1.377 . S
C1545 C1551 1.390 . S
C1546 H1537 0.930 . S
C1546 C1544 1.384 . S
C1546 C1547 1.372 . S
C1547 C1546 1.372 . S
C1547 C1548 1.400 . S
C1547 C1552 1.490 . S
C1548 H1538 0.930 . S
C1548 C1547 1.400 . S
C1548 C1551 1.386 . S
H1549 C1565 0.930 . S
H1550 C1566 0.931 . S
C1551 H1539 0.929 . S
C1551 C1545 1.390 . S
C1551 C1548 1.386 . S
C1552 C1547 1.490 . S
C1552 C1554 1.395 . S
C1552 C1555 1.403 . S
H1553 C1559 0.930 . S
C1554 H1540 0.930 . S
C1554 C1552 1.395 . S
C1554 C1557 1.403 . S
C1555 C1552 1.403 . S
C1555 C1556 1.524 . S
C1555 C1559 1.400 . S
C1556 H1541 0.960 . S
C1556 H1542 0.960 . S
C1556 H1543 0.960 . S
C1556 C1555 1.524 . S
C1557 C1554 1.403 . S
C1557 C1558 1.392 . S
C1557 C1561 1.495 . S
C1558 C1557 1.392 . S
C1558 C1559 1.385 . S
C1558 C1560 1.478 . S
C1559 H1553 0.930 . S
C1559 C1555 1.400 . S
C1559 C1558 1.385 . S
C1560 C1558 1.478 . S
C1560 C1562 1.381 . S
C1560 C1566 1.383 . S
C1561 C1557 1.495 . S
C1561 H1567 0.959 . S
C1561 H1568 0.961 . S
C1561 H1569 0.960 . S
C1562 C1560 1.381 . S
C1562 C1563 1.394 . S
C1562 H1570 0.930 . S
C1563 C1562 1.394 . S
C1563 C1564 1.383 . S
C1563 H1571 0.929 . S
C1564 C1563 1.383 . S
C1564 C1565 1.377 . S
C1565 H1549 0.930 . S
C1565 C1564 1.377 . S
C1565 C1566 1.379 . S
C1566 H1550 0.931 . S
C1566 C1560 1.383 . S
C1566 C1565 1.379 . S
H1567 C1561 0.959 . S
H1568 C1561 0.961 . S
H1569 C1561 0.960 . S
H1570 C1562 0.930 . S
H1571 C1563 0.929 . S
H1572 C1580 0.929 . S
H1573 C1582 0.930 . S
H1574 C1584 0.930 . S
H1575 C1587 0.929 . S
H1576 C1590 0.930 . S
H1577 C1592 0.960 . S
H1578 C1592 0.960 . S
H1579 C1592 0.960 . S
C1580 H1572 0.929 . S
C1580 C1581 1.377 . S
C1580 C1582 1.384 . S
C1581 C1580 1.377 . S
C1581 C1587 1.390 . S
C1582 H1573 0.930 . S
C1582 C1580 1.384 . S
C1582 C1583 1.372 . S
C1583 C1582 1.372 . S
C1583 C1584 1.400 . S
C1583 C1588 1.490 . S
C1584 H1574 0.930 . S
C1584 C1583 1.400 . S
C1584 C1587 1.386 . S
H1585 C1601 0.930 . S
H1586 C1602 0.931 . S
C1587 H1575 0.929 . S
C1587 C1581 1.390 . S
C1587 C1584 1.386 . S
C1588 C1583 1.490 . S
C1588 C1590 1.395 . S
C1588 C1591 1.403 . S
H1589 C1595 0.930 . S
C1590 H1576 0.930 . S
C1590 C1588 1.395 . S
C1590 C1593 1.403 . S
C1591 C1588 1.403 . S
C1591 C1592 1.524 . S
C1591 C1595 1.400 . S
C1592 H1577 0.960 . S
C1592 H1578 0.960 . S
C1592 H1579 0.960 . S
C1592 C1591 1.524 . S
C1593 C1590 1.403 . S
C1593 C1594 1.392 . S
C1593 C1597 1.495 . S
C1594 C1593 1.392 . S
C1594 C1595 1.385 . S
C1594 C1596 1.478 . S
C1595 H1589 0.930 . S
C1595 C1591 1.400 . S
C1595 C1594 1.385 . S
C1596 C1594 1.478 . S
C1596 C1598 1.381 . S
C1596 C1602 1.383 . S
C1597 C1593 1.495 . S
C1597 H1603 0.959 . S
C1597 H1604 0.961 . S
C1597 H1605 0.960 . S
C1598 C1596 1.381 . S
C1598 C1599 1.394 . S
C1598 H1606 0.930 . S
C1599 C1598 1.394 . S
C1599 C1600 1.383 . S
C1599 H1607 0.929 . S
C1600 C1599 1.383 . S
C1600 C1601 1.377 . S
C1601 H1585 0.930 . S
C1601 C1600 1.377 . S
C1601 C1602 1.379 . S
C1602 H1586 0.931 . S
C1602 C1596 1.383 . S
C1602 C1601 1.379 . S
H1603 C1597 0.959 . S
H1604 C1597 0.961 . S
H1605 C1597 0.960 . S
H1606 C1598 0.930 . S
H1607 C1599 0.929 . S
H1608 C1616 0.929 . S
H1609 C1618 0.930 . S
H1610 C1620 0.930 . S
H1611 C1623 0.929 . S
H1612 C1626 0.930 . S
H1613 C1628 0.960 . S
H1614 C1628 0.960 . S
H1615 C1628 0.960 . S
C1616 H1608 0.929 . S
C1616 C1617 1.377 . S
C1616 C1618 1.384 . S
C1617 C1616 1.377 . S
C1617 C1623 1.390 . S
C1618 H1609 0.930 . S
C1618 C1616 1.384 . S
C1618 C1619 1.372 . S
C1619 C1618 1.372 . S
C1619 C1620 1.400 . S
C1619 C1624 1.490 . S
C1620 H1610 0.930 . S
C1620 C1619 1.400 . S
C1620 C1623 1.386 . S
H1621 C1637 0.930 . S
H1622 C1638 0.931 . S
C1623 H1611 0.929 . S
C1623 C1617 1.390 . S
C1623 C1620 1.386 . S
C1624 C1619 1.490 . S
C1624 C1626 1.395 . S
C1624 C1627 1.403 . S
H1625 C1631 0.930 . S
C1626 H1612 0.930 . S
C1626 C1624 1.395 . S
C1626 C1629 1.403 . S
C1627 C1624 1.403 . S
C1627 C1628 1.524 . S
C1627 C1631 1.400 . S
C1628 H1613 0.960 . S
C1628 H1614 0.960 . S
C1628 H1615 0.960 . S
C1628 C1627 1.524 . S
C1629 C1626 1.403 . S
C1629 C1630 1.392 . S
C1629 C1633 1.495 . S
C1630 C1629 1.392 . S
C1630 C1631 1.385 . S
C1630 C1632 1.478 . S
C1631 H1625 0.930 . S
C1631 C1627 1.400 . S
C1631 C1630 1.385 . S
C1632 C1630 1.478 . S
C1632 C1634 1.381 . S
C1632 C1638 1.383 . S
C1633 C1629 1.495 . S
C1633 H1639 0.959 . S
C1633 H1640 0.961 . S
C1633 H1641 0.960 . S
C1634 C1632 1.381 . S
C1634 C1635 1.394 . S
C1634 H1642 0.930 . S
C1635 C1634 1.394 . S
C1635 C1636 1.383 . S
C1635 H1643 0.929 . S
C1636 C1635 1.383 . S
C1636 C1637 1.377 . S
C1637 H1621 0.930 . S
C1637 C1636 1.377 . S
C1637 C1638 1.379 . S
C1638 H1622 0.931 . S
C1638 C1632 1.383 . S
C1638 C1637 1.379 . S
H1639 C1633 0.959 . S
H1640 C1633 0.961 . S
H1641 C1633 0.960 . S
H1642 C1634 0.930 . S
H1643 C1635 0.929 . S
H1644 C1652 0.929 . S
H1645 C1654 0.930 . S
H1646 C1656 0.930 . S
H1647 C1659 0.929 . S
H1648 C1662 0.930 . S
H1649 C1664 0.960 . S
H1650 C1664 0.960 . S
H1651 C1664 0.960 . S
C1652 H1644 0.929 . S
C1652 C1653 1.377 . S
C1652 C1654 1.384 . S
C1653 C1652 1.377 . S
C1653 C1659 1.390 . S
C1654 H1645 0.930 . S
C1654 C1652 1.384 . S
C1654 C1655 1.372 . S
C1655 C1654 1.372 . S
C1655 C1656 1.400 . S
C1655 C1660 1.490 . S
C1656 H1646 0.930 . S
C1656 C1655 1.400 . S
C1656 C1659 1.386 . S
H1657 C1673 0.930 . S
H1658 C1674 0.931 . S
C1659 H1647 0.929 . S
C1659 C1653 1.390 . S
C1659 C1656 1.386 . S
C1660 C1655 1.490 . S
C1660 C1662 1.395 . S
C1660 C1663 1.403 . S
H1661 C1667 0.930 . S
C1662 H1648 0.930 . S
C1662 C1660 1.395 . S
C1662 C1665 1.403 . S
C1663 C1660 1.403 . S
C1663 C1664 1.524 . S
C1663 C1667 1.400 . S
C1664 H1649 0.960 . S
C1664 H1650 0.960 . S
C1664 H1651 0.960 . S
C1664 C1663 1.524 . S
C1665 C1662 1.403 . S
C1665 C1666 1.392 . S
C1665 C1669 1.495 . S
C1666 C1665 1.392 . S
C1666 C1667 1.385 . S
C1666 C1668 1.478 . S
C1667 H1661 0.930 . S
C1667 C1663 1.400 . S
C1667 C1666 1.385 . S
C1668 C1666 1.478 . S
C1668 C1670 1.381 . S
C1668 C1674 1.383 . S
C1669 C1665 1.495 . S
C1669 H1675 0.959 . S
C1669 H1676 0.961 . S
C1669 H1677 0.960 . S
C1670 C1668 1.381 . S
C1670 C1671 1.394 . S
C1670 H1678 0.930 . S
C1671 C1670 1.394 . S
C1671 C1672 1.383 . S
C1671 H1679 0.929 . S
C1672 C1671 1.383 . S
C1672 C1673 1.377 . S
C1673 H1657 0.930 . S
C1673 C1672 1.377 . S
C1673 C1674 1.379 . S
C1674 H1658 0.931 . S
C1674 C1668 1.383 . S
C1674 C1673 1.379 . S
H1675 C1669 0.959 . S
H1676 C1669 0.961 . S
H1677 C1669 0.960 . S
H1678 C1670 0.930 . S
H1679 C1671 0.929 . S
C825 C361 1.441 . S
C844 C554 1.431 . S
C880 C638 1.452 . S
C861 C451 1.448 . S
C916 C631 1.446 . S
C897 C241 1.424 . S
C933 C331 1.438 . S
C952 C547 1.449 . S
C988 C711 1.429 . S
C969 C140 1.431 . S
C1024 C795 1.433 . S
C1005 C211 1.432 . S
C1041 C20 1.411 . S
C1060 C788 1.444 . S
C1077 C91 1.411 . S
C1096 C704 1.446 . S
C1132 C538 1.345 . S
C1113 C80 1.478 1_554 S
C1168 C622 1.344 . S
C1149 C1 1.477 . S
C1204 C633 1.410 . S
C1185 C200 1.560 . S
C1240 C549 1.444 . S
C1221 C121 1.501 . S
C1276 C717 1.362 . S
C1257 C320 1.497 1_556 S
C1293 C260 1.494 . S
C1312 C801 1.350 . S
C1348 C790 1.375 . S
C1329 C440 1.517 . S
C1365 C380 1.510 . S
C1384 C706 1.365 . S
C1420 C536 1.587 . S
C1401 C31 1.572 . S
C1456 C620 1.592 . S
C1437 C61 1.567 . S
C1473 C151 1.558 . S
C1492 C627 1.577 . S
C1528 C543 1.575 . S
C1509 C181 1.561 . S
C1564 C715 1.594 . S
C1545 C271 1.529 . S
C1581 C301 1.589 . S
C1600 C799 1.586 . S
C1617 C391 1.525 . S
C1636 C806 1.551 . S
C1653 C421 1.578 . S
C1672 C722 1.564 . S
