# Generated by pormake.
# Topology nom, (4,4)-cn, num edge types: 1
# Building blocks:
#     Node 0, Type 0, BuildingBlock: NAWXER_clean_linker_0, # of connection points: 4
#     Node 1, Type 0, BuildingBlock: NAWXER_clean_linker_0, # of connection points: 4
#     Node 2, Type 0, BuildingBlock: NAWXER_clean_linker_0, # of connection points: 4
#     Node 3, Type 0, BuildingBlock: NAWXER_clean_linker_0, # of connection points: 4
#     Node 4, Type 0, BuildingBlock: NAWXER_clean_linker_0, # of connection points: 4
#     Node 5, Type 0, BuildingBlock: NAWXER_clean_linker_0, # of connection points: 4
#     Node 6, Type 1, BuildingBlock: QUQFOY_clean_sbu_3, # of connection points: 4
#     Node 7, Type 1, BuildingBlock: QUQFOY_clean_sbu_3, # of connection points: 4
#     Node 8, Type 1, BuildingBlock: QUQFOY_clean_sbu_3, # of connection points: 4
#     Node 9, Type 1, BuildingBlock: QUQFOY_clean_sbu_3, # of connection points: 4
#     Node 10, Type 1, BuildingBlock: QUQFOY_clean_sbu_3, # of connection points: 4
#     Node 11, Type 1, BuildingBlock: QUQFOY_clean_sbu_3, # of connection points: 4
#     Edge 12, Type (0, 1), BuildingBlock: ZUJKAS_clean_linker_0, # of connection points: 2
#     Edge 13, Type (0, 1), BuildingBlock: ZUJKAS_clean_linker_0, # of connection points: 2
#     Edge 14, Type (0, 1), BuildingBlock: ZUJKAS_clean_linker_0, # of connection points: 2
#     Edge 15, Type (0, 1), BuildingBlock: ZUJKAS_clean_linker_0, # of connection points: 2
#     Edge 16, Type (0, 1), BuildingBlock: ZUJKAS_clean_linker_0, # of connection points: 2
#     Edge 17, Type (0, 1), BuildingBlock: ZUJKAS_clean_linker_0, # of connection points: 2
#     Edge 18, Type (0, 1), BuildingBlock: ZUJKAS_clean_linker_0, # of connection points: 2
#     Edge 19, Type (0, 1), BuildingBlock: ZUJKAS_clean_linker_0, # of connection points: 2
#     Edge 20, Type (0, 1), BuildingBlock: ZUJKAS_clean_linker_0, # of connection points: 2
#     Edge 21, Type (0, 1), BuildingBlock: ZUJKAS_clean_linker_0, # of connection points: 2
#     Edge 22, Type (0, 1), BuildingBlock: ZUJKAS_clean_linker_0, # of connection points: 2
#     Edge 23, Type (0, 1), BuildingBlock: ZUJKAS_clean_linker_0, # of connection points: 2
#     Edge 24, Type (0, 1), BuildingBlock: ZUJKAS_clean_linker_0, # of connection points: 2
#     Edge 25, Type (0, 1), BuildingBlock: ZUJKAS_clean_linker_0, # of connection points: 2
#     Edge 26, Type (0, 1), BuildingBlock: ZUJKAS_clean_linker_0, # of connection points: 2
#     Edge 27, Type (0, 1), BuildingBlock: ZUJKAS_clean_linker_0, # of connection points: 2
#     Edge 28, Type (0, 1), BuildingBlock: ZUJKAS_clean_linker_0, # of connection points: 2
#     Edge 29, Type (0, 1), BuildingBlock: ZUJKAS_clean_linker_0, # of connection points: 2
#     Edge 30, Type (0, 1), BuildingBlock: ZUJKAS_clean_linker_0, # of connection points: 2
#     Edge 31, Type (0, 1), BuildingBlock: ZUJKAS_clean_linker_0, # of connection points: 2
#     Edge 32, Type (0, 1), BuildingBlock: ZUJKAS_clean_linker_0, # of connection points: 2
#     Edge 33, Type (0, 1), BuildingBlock: ZUJKAS_clean_linker_0, # of connection points: 2
#     Edge 34, Type (0, 1), BuildingBlock: ZUJKAS_clean_linker_0, # of connection points: 2
#     Edge 35, Type (0, 1), BuildingBlock: ZUJKAS_clean_linker_0, # of connection points: 2
# Relax obj value: 0.007
# Max RMSD: 0.109
# Mean RMSD: 0.075
data_MOF--net-nom--node1-QUQFOY_clean_sbu_3--node2-NAWXER_clean_linker_0--edge1-ZUJKAS_clean_linker_0
_symmetry_space_group_name_H-M    P1
_symmetry_Int_Tables_number       1
_symmetry_cell_setting            triclinic
loop_
_symmetry_equiv_pos_as_xyz
'x, y, z'
_cell_length_a     65.406754
_cell_length_b     66.954155
_cell_length_c     72.568044
_cell_angle_alpha  89.917727
_cell_angle_beta   90.09544
_cell_angle_gamma 120.04
loop_
_atom_site_label
_atom_site_type_symbol
_atom_site_fract_x
_atom_site_fract_y
_atom_site_fract_z
_atom_type_partial_charge
C0 C 0.91812 0.47325 0.32482 0.0
C1 C 0.90938 0.45833 0.34004 0.0
C2 C 0.9413 0.48181 0.3189 0.0
C3 C 0.95609 0.47522 0.32781 0.0
C4 C 0.92419 0.4518 0.34903 0.0
C5 C 0.94738 0.46022 0.34297 0.0
C6 C 0.98121 0.48571 0.32248 0.0
C7 C 0.93901 0.4449 0.27376 0.0
C8 C 0.94068 0.45862 0.25852 0.0
C9 C 0.95476 0.4544 0.28851 0.0
C10 C 0.9724 0.47778 0.28827 0.0
C11 C 0.95873 0.48186 0.25814 0.0
C12 C 0.97452 0.4913 0.27283 0.0
C13 C 0.9888 0.48834 0.30397 0.0
C14 C 0.09538 0.53899 0.31078 0.0
C15 C 0.10084 0.55644 0.29765 0.0
C16 C 0.07192 0.52401 0.31588 0.0
C17 C 0.05361 0.52645 0.3081 0.0
C18 C 0.08235 0.55834 0.28956 0.0
C19 C 0.05899 0.54342 0.29466 0.0
C20 C 0.02875 0.51164 0.31377 0.0
C21 C 0.06837 0.55349 0.3634 0.0
C22 C 0.06725 0.54007 0.37869 0.0
C23 C 0.0534 0.54331 0.34831 0.0
C24 C 0.03745 0.51943 0.34806 0.0
C25 C 0.05087 0.51629 0.37858 0.0
C26 C 0.03607 0.50609 0.36343 0.0
C27 C 0.02125 0.50835 0.33234 0.0
H28 H 0.90731 0.47904 0.31791 0.0
H29 H 0.94784 0.49416 0.3077 0.0
H30 H 0.9179 0.44031 0.3608 0.0
H31 H 0.95858 0.45519 0.35023 0.0
H32 H 0.92527 0.42695 0.27443 0.0
H33 H 0.95311 0.44351 0.30012 0.0
H34 H 0.96071 0.49274 0.24643 0.0
H35 H 0.98814 0.50931 0.27228 0.0
H36 H 0.10921 0.53686 0.31704 0.0
H37 H 0.0681 0.51065 0.32596 0.0
H38 H 0.08594 0.57177 0.2796 0.0
H39 H 0.04512 0.54556 0.28845 0.0
H40 H 0.08053 0.57193 0.36325 0.0
H41 H 0.05418 0.55413 0.33692 0.0
H42 H 0.04972 0.50549 0.39012 0.0
H43 H 0.02368 0.4877 0.36363 0.0
N44 N -0.00223 0.49551 0.33596 0.0
N45 N 0.01223 0.50147 0.30033 0.0
C46 C 0.45231 0.92323 0.49575 0.0
C47 C 0.46054 0.91537 0.51039 0.0
C48 C 0.46619 0.94543 0.48871 0.0
C49 C 0.48874 0.96019 0.496 0.0
C50 C 0.48308 0.9302 0.51776 0.0
C51 C 0.497 0.95247 0.51067 0.0
C52 C 0.50267 0.98428 0.48946 0.0
C53 C 0.49866 0.94015 0.44155 0.0
C54 C 0.48731 0.94228 0.42583 0.0
C55 C 0.50469 0.9557 0.45616 0.0
C56 C 0.49907 0.97339 0.45546 0.0
C57 C 0.48198 0.96016 0.42508 0.0
C58 C 0.48786 0.97558 0.43971 0.0
C59 C 0.5057 0.99037 0.47059 0.0
C60 C 0.56022 0.09477 0.47245 0.0
C61 C 0.54646 0.09908 0.45991 0.0
C62 C 0.55273 0.07231 0.47849 0.0
C63 C 0.53127 0.05382 0.47215 0.0
C64 C 0.52539 0.08042 0.45318 0.0
C65 C 0.51795 0.05802 0.45918 0.0
C66 C 0.52241 0.03 0.47876 0.0
C67 C 0.52238 0.07081 0.52812 0.0
C68 C 0.5379 0.0721 0.54211 0.0
C69 C 0.51674 0.05531 0.51354 0.0
C70 C 0.52664 0.04094 0.51263 0.0
C71 C 0.54759 0.05753 0.54123 0.0
C72 C 0.54187 0.04198 0.52669 0.0
C73 C 0.52032 0.02401 0.49761 0.0
H74 H 0.43481 0.91246 0.49007 0.0
H75 H 0.459 0.95126 0.47788 0.0
H76 H 0.48995 0.92461 0.52899 0.0
H77 H 0.51421 0.9637 0.51667 0.0
H78 H 0.50329 0.92674 0.44238 0.0
H79 H 0.51402 0.95405 0.46788 0.0
H80 H 0.473 0.96208 0.41324 0.0
H81 H 0.48345 0.98914 0.43879 0.0
H82 H 0.57652 0.10882 0.47791 0.0
H83 H 0.56359 0.0694 0.48817 0.0
H84 H 0.51463 0.08315 0.44326 0.0
H85 H 0.50147 0.04397 0.45395 0.0
H86 H 0.5147 0.08186 0.5284 0.0
H87 H 0.5045 0.0544 0.50305 0.0
H88 H 0.55929 0.05787 0.55196 0.0
H89 H 0.54941 0.0308 0.52636 0.0
N90 N 0.51047 0.00138 0.50223 0.0
N91 N 0.51514 0.01296 0.46601 0.0
C92 C 0.54888 0.47913 0.61775 0.0
C93 C 0.53357 0.46792 0.60287 0.0
C94 C 0.54222 0.48883 0.63189 0.0
C95 C 0.51993 0.48714 0.63161 0.0
C96 C 0.5114 0.46656 0.60251 0.0
C97 C 0.50469 0.47611 0.61672 0.0
C98 C 0.51271 0.49768 0.64628 0.0
C99 C 0.51982 0.44177 0.67368 0.0
C100 C 0.5377 0.4493 0.68709 0.0
C101 C 0.51283 0.45681 0.66662 0.0
C102 C 0.52385 0.47984 0.67257 0.0
C103 C 0.54839 0.47225 0.69332 0.0
C104 C 0.54141 0.48734 0.68619 0.0
C105 C 0.5162 0.49569 0.66526 0.0
C106 C 0.46269 0.53487 0.70267 0.0
C107 C 0.47903 0.54845 0.71633 0.0
C108 C 0.4695 0.5257 0.68822 0.0
C109 C 0.49288 0.53029 0.68698 0.0
C110 C 0.50239 0.55289 0.71508 0.0
C111 C 0.5092 0.54381 0.70059 0.0
C112 C 0.50014 0.51986 0.67231 0.0
C113 C 0.47735 0.56584 0.64473 0.0
C114 C 0.45829 0.55383 0.63253 0.0
C115 C 0.48999 0.55554 0.65135 0.0
C116 C 0.48347 0.53292 0.64612 0.0
C117 C 0.45236 0.53149 0.6269 0.0
C118 C 0.46488 0.52121 0.63358 0.0
C119 C 0.49576 0.52108 0.65338 0.0
H120 H 0.56603 0.4804 0.61851 0.0
H121 H 0.55461 0.49784 0.64293 0.0
H122 H 0.49937 0.45848 0.59109 0.0
H123 H 0.48753 0.47484 0.61607 0.0
H124 H 0.51136 0.42428 0.66845 0.0
H125 H 0.49871 0.45038 0.65655 0.0
H126 H 0.56197 0.47848 0.70383 0.0
H127 H 0.54985 0.50493 0.6912 0.0
H128 H 0.44459 0.53121 0.70317 0.0
H129 H 0.4564 0.51477 0.67817 0.0
H130 H 0.5153 0.56289 0.72556 0.0
H131 H 0.52724 0.54725 0.70004 0.0
H132 H 0.48251 0.58319 0.6491 0.0
H133 H 0.50473 0.56519 0.6606 0.0
H134 H 0.4376 0.52167 0.61771 0.0
H135 H 0.45962 0.50379 0.62927 0.0
N136 N 0.50232 0.51001 0.64113 0.0
N137 N 0.51016 0.50718 0.67751 0.0
C138 C 0.92421 0.44356 0.80704 0.0
C139 C 0.91189 0.45132 0.796 0.0
C140 C 0.94733 0.45868 0.81258 0.0
C141 C 0.95869 0.48193 0.80722 0.0
C142 C 0.92347 0.47459 0.79039 0.0
C143 C 0.94678 0.48973 0.79585 0.0
C144 C 0.98326 0.49769 0.8131 0.0
C145 C 0.93779 0.48322 0.86275 0.0
C146 C 0.94184 0.47146 0.87709 0.0
C147 C 0.95358 0.49248 0.84807 0.0
C148 C 0.97352 0.48978 0.84719 0.0
C149 C 0.96206 0.46917 0.87636 0.0
C150 C 0.97776 0.4783 0.86158 0.0
C151 C 0.99043 0.49957 0.83169 0.0
C152 C 0.09622 0.56293 0.82826 0.0
C153 C 0.10327 0.5491 0.83783 0.0
C154 C 0.07253 0.55405 0.82333 0.0
C155 C 0.05563 0.53128 0.82797 0.0
C156 C 0.08618 0.52654 0.84282 0.0
C157 C 0.06257 0.51778 0.83805 0.0
C158 C 0.03068 0.52101 0.82236 0.0
C159 C 0.07334 0.53267 0.77092 0.0
C160 C 0.07174 0.54784 0.75838 0.0
C161 C 0.05766 0.52359 0.78569 0.0
C162 C 0.04033 0.52983 0.78839 0.0
C163 C 0.05408 0.55371 0.76091 0.0
C164 C 0.03846 0.5447 0.77576 0.0
C165 C 0.02349 0.52015 0.80387 0.0
H166 H 0.91614 0.42565 0.81119 0.0
H167 H 0.95646 0.45215 0.82092 0.0
H168 H 0.91447 0.48117 0.78197 0.0
H169 H 0.95536 0.50758 0.79145 0.0
H170 H 0.92233 0.48518 0.8628 0.0
H171 H 0.95024 0.50188 0.83746 0.0
H172 H 0.96596 0.46061 0.88734 0.0
H173 H 0.99317 0.47625 0.86134 0.0
H174 H 0.10908 0.58039 0.82428 0.0
H175 H 0.06745 0.56487 0.81579 0.0
H176 H 0.09108 0.51566 0.85048 0.0
H177 H 0.04976 0.50023 0.84188 0.0
H178 H 0.0864 0.52741 0.7691 0.0
H179 H 0.05892 0.5115 0.7949 0.0
H180 H 0.05247 0.56543 0.75151 0.0
H181 H 0.02504 0.54951 0.77748 0.0
N182 N 1e-05 0.5084 0.79991 0.0
N183 N 0.01388 0.51081 0.83557 0.0
C184 C 0.482 0.92666 0.97258 0.0
C185 C 0.4637 0.91655 0.95954 0.0
C186 C 0.48933 0.94868 0.9794 0.0
C187 C 0.47824 0.96093 0.97356 0.0
C188 C 0.45306 0.92909 0.95328 0.0
C189 C 0.46034 0.95115 0.96021 0.0
C190 C 0.48632 0.98443 0.98062 0.0
C191 C 0.45465 0.93662 0.02871 0.0
C192 C 0.4704 0.94023 0.04325 0.0
C193 C 0.46106 0.95279 0.01452 0.0
C194 C 0.48352 0.9727 0.01438 0.0
C195 C 0.4927 0.9604 0.04323 0.0
C196 C 0.49915 0.97646 0.02897 0.0
C197 C 0.49059 0.99013 -0.00048 0.0
C198 C 0.53001 0.09357 -1e-05 0.0
C199 C 0.54999 0.09983 0.01107 0.0
C200 C 0.51609 0.0708 0.99391 0.0
C201 C 0.52205 0.05403 -0.00126 0.0
C202 C 0.55532 0.08278 0.01641 0.0
C203 C 0.54145 0.06011 0.01036 0.0
C204 C 0.50846 0.03006 0.99192 0.0
C205 C 0.54087 0.07469 0.94165 0.0
C206 C 0.52419 0.07291 0.92852 0.0
C207 C 0.53407 0.05909 0.95629 0.0
C208 C 0.5104 0.04164 0.95826 0.0
C209 C 0.50052 0.05536 0.93051 0.0
C210 C 0.49373 0.03982 0.9452 0.0
C211 C 0.50314 0.02429 0.97312 0.0
H212 H 0.49095 0.91767 0.97732 0.0
H213 H 0.50384 0.95621 0.98912 0.0
H214 H 0.4389 0.92171 0.94324 0.0
H215 H 0.45183 0.96047 0.95529 0.0
H216 H 0.43739 0.92124 0.02824 0.0
H217 H 0.44838 0.94976 0.00373 0.0
H218 H 0.50508 0.96398 0.05438 0.0
H219 H 0.51646 0.99182 0.0293 0.0
H220 H 0.52548 0.10636 0.99566 0.0
H221 H 0.50085 0.06637 0.98532 0.0
H222 H 0.57032 0.08697 0.02523 0.0
H223 H 0.54621 0.04739 0.01444 0.0
H224 H 0.55932 0.08771 0.94029 0.0
H225 H 0.54741 0.06039 0.96586 0.0
H226 H 0.48723 0.05363 0.9207 0.0
H227 H 0.47542 0.02633 0.94636 0.0
N228 N 0.49234 0.00168 0.96819 0.0
N229 N 0.50183 0.01274 0.00437 0.0
C230 C 0.48414 0.56555 0.17483 0.0
C231 C 0.46421 0.55663 0.1863 0.0
C232 C 0.4916 0.55106 0.16747 0.0
C233 C 0.47923 0.52734 0.17137 0.0
C234 C 0.45175 0.53286 0.19017 0.0
C235 C 0.4594 0.51835 0.18292 0.0
C236 C 0.48818 0.51244 0.16442 0.0
C237 C 0.45954 0.53114 0.11548 0.0
C238 C 0.47611 0.54383 0.10168 0.0
C239 C 0.46537 0.52093 0.12981 0.0
C240 C 0.48804 0.52355 0.13084 0.0
C241 C 0.49867 0.54615 0.10261 0.0
C242 C 0.50454 0.53608 0.11701 0.0
C243 C 0.49441 0.51252 0.14577 0.0
C244 C 0.53953 0.45248 0.14651 0.0
C245 C 0.5606 0.4676 0.13728 0.0
C246 C 0.52383 0.45988 0.15177 0.0
C247 C 0.52899 0.48248 0.14784 0.0
C248 C 0.56535 0.48997 0.13296 0.0
C249 C 0.54962 0.49728 0.13809 0.0
C250 C 0.51339 0.49125 0.1539 0.0
C251 C 0.54439 0.48014 0.20585 0.0
C252 C 0.52737 0.46314 0.21746 0.0
C253 C 0.53749 0.48864 0.19096 0.0
C254 C 0.51345 0.4802 0.18735 0.0
C255 C 0.5033 0.45459 0.21372 0.0
C256 C 0.49642 0.46321 0.19887 0.0
C257 C 0.5061 0.49015 0.17235 0.0
H258 H 0.49396 0.58377 0.17151 0.0
H259 H 0.5073 0.55847 0.15895 0.0
H260 H 0.43643 0.52561 0.19909 0.0
H261 H 0.44984 0.50014 0.18629 0.0
H262 H 0.44204 0.52911 0.11527 0.0
H263 H 0.45203 0.51077 0.13995 0.0
H264 H 0.51172 0.55541 0.09203 0.0
H265 H 0.52206 0.53814 0.11736 0.0
H266 H 0.53545 0.43513 0.14999 0.0
H267 H 0.50777 0.44804 0.159 0.0
H268 H 0.58124 0.50185 0.12557 0.0
H269 H 0.55385 0.51473 0.13479 0.0
H270 H 0.56306 0.48698 0.20836 0.0
H271 H 0.55095 0.50212 0.18247 0.0
H272 H 0.48982 0.44171 0.22258 0.0
H273 H 0.47779 0.45672 0.19643 0.0
N274 N 0.49388 0.50091 0.17694 0.0
N275 N 0.50711 0.50222 0.1413 0.0
C276 C 0.6851 0.41936 0.40472 0.0
O277 O 0.68392 0.43662 0.41056 0.0
Cd278 Cd 0.6475 0.43387 0.42014 0.0
O279 O 0.66675 0.39939 0.40438 0.0
Cd280 Cd 0.62451 0.37982 0.41299 0.0
C281 C 0.61355 0.41041 0.38124 0.0
O282 O 0.62963 0.40185 0.44099 0.0
O283 O 0.5936 0.37889 0.43255 0.0
O284 O 0.63052 0.34932 0.42499 0.0
C285 C 0.60777 0.39288 0.44441 0.0
O286 O 0.62456 0.42761 0.39198 0.0
C287 C 0.61342 0.33301 0.41639 0.0
O288 O 0.6117 0.39101 0.3851 0.0
O289 O 0.60142 0.33847 0.40589 0.0
C290 C 0.27789 0.5996 0.57177 0.0
O291 O 0.25936 0.58217 0.56562 0.0
Cd292 Cd 0.22532 0.58422 0.55593 0.0
O293 O 0.27929 0.61925 0.57245 0.0
Cd294 Cd 0.2561 0.63796 0.56445 0.0
C295 C 0.21417 0.60514 0.59565 0.0
O296 O 0.23928 0.61701 0.53589 0.0
O297 O 0.22493 0.6379 0.54564 0.0
O298 O 0.29335 0.66961 0.55362 0.0
C299 C 0.22556 0.62498 0.53317 0.0
O300 O 0.20774 0.58856 0.58428 0.0
C301 C 0.29211 0.68527 0.56251 0.0
O302 O 0.23213 0.6248 0.59236 0.0
O303 O 0.2739 0.67896 0.57245 0.0
C304 C 0.6829 0.26979 0.73982 0.0
O305 O 0.68142 0.25083 0.73514 0.0
Cd306 Cd 0.6452 0.21796 0.72508 0.0
O307 O 0.66473 0.27211 0.73947 0.0
Cd308 Cd 0.62221 0.24943 0.73178 0.0
C309 C 0.61154 0.20821 0.76378 0.0
O310 O 0.62755 0.23247 0.70386 0.0
O311 O 0.59143 0.21985 0.71209 0.0
O312 O 0.62689 0.28545 0.71998 0.0
C313 C 0.60575 0.21993 0.70029 0.0
O314 O 0.62193 0.20126 0.7529 0.0
C315 C 0.60992 0.28467 0.72902 0.0
O316 O 0.61028 0.22614 0.75998 0.0
O317 O 0.59855 0.26739 0.73957 0.0
C318 C 0.32999 0.59926 0.90355 0.0
O319 O 0.3308 0.58199 0.90993 0.0
Cd320 Cd 0.3669 0.58456 0.92048 0.0
O321 O 0.34849 0.61911 0.90316 0.0
Cd322 Cd 0.39053 0.63855 0.91222 0.0
C323 C 0.40089 0.60656 0.88154 0.0
O324 O 0.3848 0.61718 0.94072 0.0
O325 O 0.42103 0.63962 0.93256 0.0
O326 O 0.38467 0.66972 0.92258 0.0
C327 C 0.40657 0.62593 0.94443 0.0
O328 O 0.39013 0.58975 0.89268 0.0
C329 C 0.40195 0.68556 0.91378 0.0
O330 O 0.40259 0.62601 0.88483 0.0
O331 O 0.41412 0.67954 0.90408 0.0
C332 C 0.73968 0.4197 0.07565 0.0
O333 O 0.75897 0.43667 0.07004 0.0
Cd334 Cd 0.79129 0.43244 0.05914 0.0
O335 O 0.73641 0.3993 0.07507 0.0
Cd336 Cd 0.75666 0.37849 0.06488 0.0
C337 C 0.79984 0.40588 0.0966 0.0
O338 O 0.77491 0.40144 0.03736 0.0
O339 O 0.78583 0.37694 0.0448 0.0
O340 O 0.7185 0.34981 0.05277 0.0
C341 C 0.78682 0.39181 0.03345 0.0
O342 O 0.80753 0.42355 0.08623 0.0
C343 C 0.7182 0.33263 0.06047 0.0
O344 O 0.78079 0.38738 0.09269 0.0
O345 O 0.73583 0.33679 0.07051 0.0
C346 C 0.32782 0.74125 0.2426 0.0
O347 O 0.32845 0.7595 0.23691 0.0
Cd348 Cd 0.36421 0.79259 0.22648 0.0
O349 O 0.34635 0.73952 0.24231 0.0
Cd350 Cd 0.38822 0.76164 0.23274 0.0
C351 C 0.39927 0.80273 0.2647 0.0
O352 O 0.38137 0.778 0.20499 0.0
O353 O 0.41787 0.79059 0.21208 0.0
O354 O 0.38179 0.72444 0.22231 0.0
C355 C 0.40299 0.79052 0.20083 0.0
O356 O 0.38789 0.80912 0.2543 0.0
C357 C 0.40002 0.72612 0.23001 0.0
O358 O 0.40126 0.78532 0.26051 0.0
O359 O 0.41291 0.74446 0.23907 0.0
H360 H 0.13917 0.57757 0.32064 0.0
H361 H 0.17944 0.60732 0.31261 0.0
H362 H 0.15871 0.60343 0.25569 0.0
H363 H 0.11874 0.57306 0.26343 0.0
H364 H 0.202 0.60652 0.25967 0.0
H365 H 0.1969 0.67364 0.30109 0.0
H366 H 0.19157 0.64848 0.31386 0.0
H367 H 0.17129 0.64604 0.29606 0.0
C368 C 0.14329 0.58276 0.30636 0.0
C369 C 0.1257 0.57312 0.29269 0.0
C370 C 0.16622 0.59996 0.30184 0.0
C371 C 0.17188 0.6079 0.28363 0.0
C372 C 0.15463 0.59767 0.26986 0.0
H373 H 0.28385 0.7367 0.24172 0.0
H374 H 0.24667 0.70381 0.25212 0.0
C375 C 0.13176 0.58045 0.27433 0.0
C376 C 0.19557 0.62726 0.27885 0.0
H377 H 0.23328 0.68459 0.28652 0.0
C378 C 0.20892 0.62359 0.26558 0.0
C379 C 0.20433 0.64955 0.28641 0.0
C380 C 0.19023 0.65482 0.30002 0.0
C381 C 0.2308 0.64165 0.25958 0.0
C382 C 0.23973 0.66386 0.26736 0.0
C383 C 0.22643 0.6675 0.2807 0.0
C384 C 0.26242 0.68378 0.26134 0.0
C385 C 0.24376 0.63696 0.24454 0.0
C386 C 0.28362 0.68353 0.26332 0.0
C387 C 0.30489 0.70223 0.25727 0.0
C388 C 0.30535 0.72165 0.24933 0.0
C389 C 0.28412 0.72202 0.24774 0.0
C390 C 0.26286 0.70325 0.25369 0.0
H391 H 0.23189 0.62087 0.23689 0.0
H392 H 0.25184 0.6515 0.23459 0.0
H393 H 0.2581 0.63492 0.25078 0.0
H394 H 0.28374 0.66889 0.26957 0.0
H395 H 0.32095 0.70146 0.25886 0.0
H396 H 0.51859 0.11851 0.45687 0.0
H397 H 0.5303 0.15789 0.44749 0.0
H398 H 0.60228 0.17325 0.44111 0.0
H399 H 0.59061 0.13365 0.45012 0.0
H400 H 0.56456 0.19882 0.46527 0.0
H401 H 0.58707 0.19513 0.39198 0.0
H402 H 0.56935 0.16955 0.40559 0.0
H403 H 0.60084 0.18555 0.40851 0.0
C404 C 0.53686 0.13017 0.45322 0.0
C405 C 0.55367 0.12296 0.45413 0.0
C406 C 0.54352 0.15266 0.44796 0.0
C407 C 0.56706 0.16832 0.44339 0.0
C408 C 0.58394 0.16126 0.44431 0.0
H409 H 0.63516 0.31694 0.43914 0.0
H410 H 0.62396 0.27679 0.44501 0.0
C411 C 0.57731 0.13875 0.44964 0.0
C412 C 0.57404 0.19233 0.43846 0.0
H413 H 0.59622 0.23183 0.40358 0.0
C414 C 0.57145 0.20605 0.45178 0.0
C415 C 0.58278 0.20154 0.42079 0.0
C416 C 0.58503 0.18718 0.4058 0.0
C417 C 0.57771 0.22894 0.44798 0.0
C418 C 0.587 0.23835 0.43047 0.0
C419 C 0.58924 0.22454 0.41703 0.0
C420 C 0.59454 0.26259 0.42599 0.0
C421 C 0.57414 0.24286 0.46266 0.0
C422 C 0.58202 0.26781 0.41299 0.0
C423 C 0.58835 0.29077 0.40959 0.0
C424 C 0.60741 0.30879 0.41907 0.0
C425 C 0.62032 0.30345 0.43168 0.0
C426 C 0.61394 0.28054 0.4351 0.0
H427 H 0.5622 0.23172 0.47378 0.0
H428 H 0.59145 0.25507 0.46895 0.0
H429 H 0.56668 0.25309 0.45661 0.0
H430 H 0.56704 0.25412 0.40579 0.0
H431 H 0.57813 0.29435 0.39975 0.0
H432 H 0.44155 0.55282 0.59781 0.0
H433 H 0.41378 0.56519 0.58825 0.0
H434 H 0.41475 0.59024 0.64316 0.0
H435 H 0.44204 0.57726 0.65299 0.0
H436 H 0.36986 0.56117 0.63015 0.0
H437 H 0.42174 0.62864 0.57836 0.0
H438 H 0.42149 0.6021 0.57422 0.0
H439 H 0.43525 0.61841 0.59474 0.0
C440 C 0.436 0.56113 0.60782 0.0
C441 C 0.44389 0.56397 0.62618 0.0
C442 C 0.42035 0.56843 0.60228 0.0
C443 C 0.41243 0.57887 0.61495 0.0
C444 C 0.4208 0.58236 0.63315 0.0
H445 H 0.32024 0.6333 0.58544 0.0
H446 H 0.35312 0.62908 0.5967 0.0
C447 C 0.43649 0.57507 0.63871 0.0
C448 C 0.39382 0.58417 0.60958 0.0
H449 H 0.37982 0.6132 0.57794 0.0
C450 C 0.37212 0.57275 0.61887 0.0
C451 C 0.39688 0.59941 0.59496 0.0
C452 C 0.42018 0.61303 0.5851 0.0
C453 C 0.35311 0.57558 0.61355 0.0
C454 C 0.35581 0.58992 0.59834 0.0
C455 C 0.37775 0.60198 0.58945 0.0
C456 C 0.33594 0.59242 0.59136 0.0
C457 C 0.33032 0.56321 0.62425 0.0
C458 C 0.31556 0.57323 0.58439 0.0
C459 C 0.2967 0.57554 0.57797 0.0
C460 C 0.29797 0.59714 0.5783 0.0
C461 C 0.31862 0.61639 0.58504 0.0
C462 C 0.33746 0.61405 0.59146 0.0
H463 H 0.33309 0.55808 0.63819 0.0
H464 H 0.32214 0.5742 0.62576 0.0
H465 H 0.31771 0.54731 0.61674 0.0
H466 H 0.31426 0.55647 0.58388 0.0
H467 H 0.28115 0.56039 0.57277 0.0
H468 H 0.87672 0.41688 0.81638 0.0
H469 H 0.83753 0.38765 0.80602 0.0
H470 H 0.85121 0.42013 0.75258 0.0
H471 H 0.89107 0.4487 0.76248 0.0
H472 H 0.80008 0.3897 0.79377 0.0
H473 H 0.83244 0.35488 0.73883 0.0
H474 H 0.85183 0.37515 0.75584 0.0
H475 H 0.84237 0.38504 0.7363 0.0
C476 C 0.87154 0.41769 0.80234 0.0
C477 C 0.88724 0.43493 0.79017 0.0
C478 C 0.84902 0.40108 0.7965 0.0
C479 C 0.84163 0.40141 0.77841 0.0
C480 C 0.85678 0.41921 0.76647 0.0
H481 H 0.69493 0.31501 0.74339 0.0
H482 H 0.73317 0.3475 0.75242 0.0
C483 C 0.87946 0.43572 0.77224 0.0
C484 C 0.81819 0.38283 0.77211 0.0
H485 H 0.79113 0.33965 0.74046 0.0
C486 C 0.7981 0.37875 0.7821 0.0
C487 C 0.81571 0.36835 0.75707 0.0
C488 C 0.83674 0.37088 0.74649 0.0
C489 C 0.77558 0.36054 0.77751 0.0
C490 C 0.77302 0.34645 0.76216 0.0
C491 C 0.79311 0.35059 0.75213 0.0
C492 C 0.7498 0.32685 0.75656 0.0
C493 C 0.75491 0.35615 0.78952 0.0
C494 C 0.74665 0.30456 0.75531 0.0
C495 C 0.72494 0.28602 0.74983 0.0
C496 C 0.70592 0.28941 0.74559 0.0
C497 C 0.70915 0.31178 0.74677 0.0
C498 C 0.73097 0.33036 0.75204 0.0
H499 H 0.76077 0.36397 0.8034 0.0
H500 H 0.74525 0.36401 0.78301 0.0
H501 H 0.74246 0.33738 0.79121 0.0
H502 H 0.76099 0.30148 0.75867 0.0
H503 H 0.72303 0.26901 0.74906 0.0
H504 H 0.45425 0.9012 0.92385 0.0
H505 H 0.44351 0.86271 0.91241 0.0
H506 H 0.44519 0.84058 0.96796 0.0
H507 H 0.45588 0.87887 0.97947 0.0
H508 H 0.47079 0.83018 0.94284 0.0
H509 H 0.38011 0.80211 0.91731 0.0
H510 H 0.40314 0.82929 0.90864 0.0
H511 H 0.39573 0.82632 0.93269 0.0
C512 C 0.45199 0.88801 0.93363 0.0
C513 C 0.45596 0.89304 0.95255 0.0
C514 C 0.44587 0.86606 0.92707 0.0
C515 C 0.44342 0.8488 0.93937 0.0
C516 C 0.44706 0.85371 0.95826 0.0
H517 H 0.3796 0.70277 0.93446 0.0
H518 H 0.39045 0.7431 0.93832 0.0
C519 C 0.45324 0.87559 0.9648 0.0
C520 C 0.43784 0.82575 0.93269 0.0
H521 H 0.39444 0.77637 0.91293 0.0
C522 C 0.45418 0.81844 0.93617 0.0
C523 C 0.4161 0.81053 0.92409 0.0
C524 C 0.39763 0.81729 0.92055 0.0
C525 C 0.44915 0.79607 0.93169 0.0
C526 C 0.42735 0.78077 0.92318 0.0
C527 C 0.4112 0.78824 0.91933 0.0
C528 C 0.42018 0.75637 0.91965 0.0
C529 C 0.46678 0.78869 0.93682 0.0
C530 C 0.43308 0.75046 0.90761 0.0
C531 C 0.42701 0.72738 0.90546 0.0
C532 C 0.40784 0.70988 0.91522 0.0
C533 C 0.39453 0.71585 0.9268 0.0
C534 C 0.40064 0.73887 0.92898 0.0
H535 H 0.48033 0.80089 0.94663 0.0
H536 H 0.45776 0.77122 0.94311 0.0
H537 H 0.47599 0.78803 0.92421 0.0
H538 H 0.44799 0.76371 0.90005 0.0
H539 H 0.43748 0.72329 0.89632 0.0
H540 H 0.60823 0.49162 0.14237 0.0
H541 H 0.63718 0.48089 0.13246 0.0
H542 H 0.58106 0.41656 0.11113 0.0
H543 H 0.55189 0.42728 0.1209 0.0
H544 H 0.63865 0.43829 0.14177 0.0
H545 H 0.62855 0.45057 0.06703 0.0
H546 H 0.61938 0.46327 0.08481 0.0
H547 H 0.60201 0.43299 0.08 0.0
C548 C 0.60206 0.4752 0.13554 0.0
C549 C 0.57785 0.46035 0.13224 0.0
C550 C 0.61858 0.46906 0.13 0.0
C551 C 0.6112 0.44807 0.12095 0.0
C552 C 0.58703 0.43292 0.11799 0.0
H553 H 0.69831 0.38822 0.09208 0.0
H554 H 0.66674 0.39442 0.10344 0.0
C555 C 0.57043 0.43899 0.12366 0.0
C556 C 0.62901 0.44243 0.11425 0.0
H557 H 0.65567 0.43858 0.07511 0.0
C558 C 0.64231 0.43817 0.12721 0.0
C559 C 0.6338 0.4426 0.09525 0.0
C560 C 0.62035 0.44774 0.08089 0.0
C561 C 0.66039 0.43406 0.12161 0.0
C562 C 0.66515 0.4342 0.10261 0.0
C563 C 0.65183 0.43843 0.08966 0.0
C564 C 0.6843 0.4305 0.09592 0.0
C565 C 0.67466 0.43011 0.13601 0.0
C566 C 0.70445 0.44874 0.0878 0.0
C567 C 0.72258 0.44532 0.08134 0.0
C568 C 0.7207 0.42351 0.08273 0.0
C569 C 0.70035 0.40524 0.0908 0.0
C570 C 0.68232 0.40873 0.09736 0.0
H571 H 0.67136 0.43433 0.1501 0.0
H572 H 0.6699 0.4117 0.13579 0.0
H573 H 0.69382 0.44069 0.13296 0.0
H574 H 0.70618 0.46565 0.08654 0.0
H575 H 0.73795 0.45973 0.07514 0.0
H576 H 0.4327 0.87525 0.49177 0.0
H577 H 0.40497 0.8375 0.50473 0.0
H578 H 0.42596 0.86471 0.55965 0.0
H579 H 0.45357 0.90275 0.54681 0.0
H580 H 0.42213 0.82022 0.55317 0.0
H581 H 0.34261 0.82348 0.53103 0.0
H582 H 0.36362 0.82947 0.51293 0.0
H583 H 0.37162 0.84884 0.53218 0.0
C584 C 0.43136 0.87326 0.50661 0.0
C585 C 0.44516 0.89205 0.51827 0.0
C586 C 0.41554 0.85169 0.51398 0.0
C587 C 0.41319 0.8485 0.53311 0.0
C588 C 0.42749 0.86693 0.54483 0.0
H589 H 0.29323 0.72306 0.57807 0.0
H590 H 0.32359 0.76365 0.57398 0.0
C591 C 0.44333 0.88858 0.53747 0.0
C592 C 0.39554 0.82589 0.54076 0.0
H593 H 0.33653 0.78679 0.54059 0.0
C594 C 0.40339 0.81297 0.55063 0.0
C595 C 0.3711 0.81672 0.5377 0.0
C596 C 0.36165 0.8304 0.52804 0.0
C597 C 0.38743 0.79054 0.55674 0.0
C598 C 0.36313 0.78083 0.55264 0.0
C599 C 0.3552 0.79422 0.54358 0.0
C600 C 0.34581 0.75635 0.55647 0.0
C601 C 0.39674 0.77737 0.56735 0.0
C602 C 0.34825 0.73888 0.54793 0.0
C603 C 0.33097 0.71578 0.55019 0.0
C604 C 0.31084 0.70971 0.56096 0.0
C605 C 0.30856 0.72721 0.56971 0.0
C606 C 0.32587 0.75037 0.56741 0.0
H607 H 0.41384 0.78921 0.57415 0.0
H608 H 0.38393 0.76615 0.578 0.0
H609 H 0.39974 0.76626 0.55769 0.0
H610 H 0.36322 0.74315 0.53909 0.0
H611 H 0.33323 0.70272 0.54323 0.0
H612 H 0.58273 0.45851 0.69439 0.0
H613 H 0.59522 0.43119 0.70413 0.0
H614 H 0.52256 0.3765 0.70535 0.0
H615 H 0.50982 0.4037 0.69606 0.0
H616 H 0.57899 0.39836 0.73677 0.0
H617 H 0.55908 0.35703 0.66754 0.0
H618 H 0.56337 0.38554 0.6713 0.0
H619 H 0.53622 0.36058 0.67809 0.0
C620 C 0.56937 0.44077 0.69706 0.0
C621 C 0.54529 0.43323 0.69428 0.0
C622 C 0.57655 0.4252 0.70255 0.0
C623 C 0.55979 0.40187 0.70525 0.0
C624 C 0.53573 0.39443 0.70311 0.0
H625 H 0.5755 0.28855 0.74737 0.0
H626 H 0.56393 0.31782 0.7427 0.0
C627 C 0.52853 0.40996 0.6977 0.0
C628 C 0.5675 0.38506 0.7094 0.0
H629 H 0.5712 0.34031 0.69061 0.0
C630 C 0.57731 0.38563 0.72673 0.0
C631 C 0.56542 0.36869 0.69616 0.0
C632 C 0.55561 0.36789 0.67716 0.0
C633 C 0.5849 0.36997 0.73124 0.0
C634 C 0.58249 0.35339 0.71807 0.0
C635 C 0.57288 0.353 0.70069 0.0
C636 C 0.59028 0.33652 0.7218 0.0
C637 C 0.59577 0.37144 0.74989 0.0
C638 C 0.60879 0.33733 0.71151 0.0
C639 C 0.61541 0.32069 0.71411 0.0
C640 C 0.60348 0.3028 0.72696 0.0
C641 C 0.58505 0.30214 0.73739 0.0
C642 C 0.5785 0.31889 0.73482 0.0
H643 H 0.60047 0.38784 0.75707 0.0
H644 H 0.58297 0.35691 0.7586 0.0
H645 H 0.61188 0.36999 0.74855 0.0
H646 H 0.618 0.35077 0.70133 0.0
H647 H 0.62967 0.32167 0.70585 0.0
H648 H 0.13425 0.59043 0.85374 0.0
H649 H 0.17497 0.60351 0.86364 0.0
H650 H 0.16917 0.54054 0.84291 0.0
H651 H 0.12868 0.52747 0.83292 0.0
H652 H 0.18758 0.57772 0.88917 0.0
H653 H 0.23271 0.59324 0.82154 0.0
H654 H 0.20489 0.5925 0.82437 0.0
H655 H 0.20568 0.56608 0.82347 0.0
C656 C 0.14184 0.57959 0.85105 0.0
C657 C 0.12835 0.55793 0.84263 0.0
C658 C 0.165 0.58702 0.85676 0.0
C659 C 0.17505 0.57305 0.85383 0.0
C660 C 0.16179 0.55167 0.84506 0.0
H661 H 0.28598 0.56095 0.90569 0.0
H662 H 0.24882 0.55648 0.89396 0.0
C663 C 0.13864 0.54417 0.83951 0.0
C664 C 0.19882 0.57995 0.861 0.0
H665 H 0.25355 0.59099 0.84777 0.0
C666 C 0.20211 0.58089 0.88015 0.0
C667 C 0.21769 0.58418 0.84914 0.0
C668 C 0.21523 0.58417 0.82847 0.0
C669 C 0.22362 0.58512 0.88779 0.0
C670 C 0.24215 0.58834 0.87593 0.0
C671 C 0.23917 0.58829 0.85678 0.0
C672 C 0.26457 0.59121 0.88317 0.0
C673 C 0.22636 0.58595 0.90846 0.0
C674 C 0.28568 0.61211 0.88071 0.0
C675 C 0.30693 0.61476 0.88742 0.0
C676 C 0.30744 0.59642 0.89652 0.0
C677 C 0.28621 0.57541 0.89878 0.0
C678 C 0.26496 0.57285 0.89217 0.0
H679 H 0.21262 0.5883 0.91546 0.0
H680 H 0.2247 0.56948 0.91334 0.0
H681 H 0.24405 0.60018 0.91262 0.0
H682 H 0.28568 0.6264 0.8737 0.0
H683 H 0.32296 0.63114 0.88538 0.0
H684 H 0.59808 0.12386 0.01079 0.0
H685 H 0.62428 0.16362 0.02058 0.0
H686 H 0.56393 0.17087 0.03328 0.0
H687 H 0.53745 0.13076 0.02387 0.0
H688 H 0.6262 0.20377 0.00598 0.0
H689 H 0.60496 0.19247 0.08083 0.0
H690 H 0.59773 0.16845 0.06567 0.0
H691 H 0.5802 0.1822 0.06536 0.0
C692 C 0.59035 0.13381 0.01587 0.0
C693 C 0.5657 0.12413 0.01671 0.0
C694 C 0.60534 0.15655 0.02135 0.0
C695 C 0.59601 0.17003 0.02785 0.0
C696 C 0.57143 0.16058 0.02855 0.0
H697 H 0.6787 0.3193 0.03963 0.0
H698 H 0.64773 0.27996 0.03239 0.0
C699 C 0.55637 0.13779 0.02301 0.0
C700 C 0.61222 0.19415 0.03343 0.0
H701 H 0.63162 0.23031 0.07055 0.0
C702 C 0.62733 0.20964 0.02007 0.0
C703 C 0.61376 0.20157 0.05187 0.0
C704 C 0.59846 0.18533 0.06685 0.0
C705 C 0.64405 0.23242 0.02466 0.0
C706 C 0.64544 0.23993 0.04306 0.0
C707 C 0.63033 0.22447 0.05644 0.0
C708 C 0.66304 0.26365 0.04867 0.0
C709 C 0.66051 0.2481 0.00989 0.0
C710 C 0.68144 0.26741 0.06071 0.0
C711 C 0.69915 0.28988 0.06492 0.0
C712 C 0.69865 0.3089 0.0572 0.0
C713 C 0.67969 0.30501 0.04569 0.0
C714 C 0.66201 0.28257 0.04149 0.0
H715 H 0.66056 0.23831 -0.00244 0.0
H716 H 0.65474 0.2604 0.00551 0.0
H717 H 0.67885 0.25826 0.01523 0.0
H718 H 0.68244 0.25297 0.06642 0.0
H719 H 0.71348 0.29232 0.07389 0.0
H720 H 0.49183 0.5979 0.20322 0.0
H721 H 0.4802 0.62533 0.2141 0.0
H722 H 0.40828 0.57855 0.19755 0.0
H723 H 0.41979 0.55085 0.18693 0.0
H724 H 0.46271 0.64626 0.19297 0.0
H725 H 0.39872 0.59712 0.24837 0.0
H726 H 0.41839 0.58826 0.23876 0.0
H727 H 0.39168 0.58197 0.22682 0.0
C728 C 0.47349 0.5934 0.20207 0.0
C729 C 0.4567 0.57231 0.1942 0.0
C730 C 0.46686 0.60902 0.20834 0.0
C731 C 0.44333 0.60389 0.20683 0.0
C732 C 0.42642 0.58264 0.19927 0.0
H733 H 0.37371 0.68391 0.21394 0.0
H734 H 0.38455 0.65417 0.20955 0.0
C735 C 0.43301 0.56688 0.19314 0.0
C736 C 0.437 0.62156 0.21179 0.0
H737 H 0.39961 0.63146 0.23796 0.0
C738 C 0.44908 0.6431 0.20295 0.0
C739 C 0.41917 0.61737 0.22478 0.0
C740 C 0.40639 0.59501 0.23537 0.0
C741 C 0.44349 0.66038 0.20647 0.0
C742 C 0.42546 0.65605 0.21923 0.0
C743 C 0.41343 0.63463 0.22817 0.0
C744 C 0.41847 0.67347 0.22302 0.0
C745 C 0.45648 0.68297 0.19618 0.0
C746 C 0.43387 0.69395 0.23232 0.0
C747 C 0.42773 0.71097 0.23489 0.0
C748 C 0.40612 0.70775 0.22814 0.0
C749 C 0.39053 0.68695 0.2192 0.0
C750 C 0.39664 0.66992 0.21673 0.0
H751 H 0.46703 0.6821 0.18455 0.0
H752 H 0.44387 0.68805 0.19072 0.0
H753 H 0.46868 0.69668 0.20578 0.0
H754 H 0.45073 0.69686 0.23738 0.0
H755 H 0.44006 0.72677 0.24188 0.0
H756 H 0.86862 0.44225 0.32019 0.0
H757 H 0.8298 0.43361 0.33153 0.0
H758 H 0.85722 0.4493 0.38696 0.0
H759 H 0.89603 0.45778 0.37574 0.0
H760 H 0.81269 0.41059 0.38506 0.0
H761 H 0.81594 0.48416 0.34711 0.0
H762 H 0.8194 0.46431 0.33267 0.0
H763 H 0.84144 0.48072 0.34975 0.0
C764 C 0.86632 0.44377 0.3348 0.0
C765 C 0.88536 0.45085 0.34707 0.0
C766 C 0.84419 0.43889 0.34124 0.0
C767 C 0.84081 0.4413 0.36002 0.0
C768 C 0.85952 0.44745 0.37241 0.0
H769 H 0.72867 0.45824 0.40671 0.0
H770 H 0.76642 0.46291 0.39652 0.0
C771 C 0.88163 0.45219 0.36599 0.0
C772 C 0.81798 0.43805 0.36669 0.0
H773 H 0.77988 0.45859 0.36198 0.0
C774 C 0.80549 0.42107 0.38005 0.0
C775 C 0.80889 0.45206 0.36034 0.0
C776 C 0.82219 0.47149 0.34681 0.0
C777 C 0.78393 0.4175 0.38706 0.0
C778 C 0.77445 0.43098 0.38024 0.0
C779 C 0.7871 0.44814 0.36705 0.0
C780 C 0.75158 0.42782 0.38673 0.0
C781 C 0.77176 0.39966 0.40196 0.0
C782 C 0.7307 0.40662 0.38442 0.0
C783 C 0.70912 0.40385 0.39032 0.0
C784 C 0.70798 0.42234 0.39844 0.0
C785 C 0.72891 0.44365 0.40052 0.0
C786 C 0.7505 0.44635 0.39471 0.0
H787 H 0.78422 0.39554 0.40914 0.0
H788 H 0.76352 0.40562 0.41233 0.0
H789 H 0.75764 0.3835 0.39567 0.0
H790 H 0.73106 0.39227 0.37788 0.0
H791 H 0.69331 0.38725 0.38837 0.0
H792 H 0.05567 0.53324 0.41519 0.0
H793 H 0.08213 0.54983 0.44165 0.0
H794 H 0.14108 0.58721 0.40485 0.0
H795 H 0.11464 0.57088 0.37833 0.0
H796 H 0.11915 0.54464 0.4508 0.0
H797 H 0.14966 0.6374 0.4404 0.0
H798 H 0.12463 0.61488 0.42825 0.0
H799 H 0.15419 0.62411 0.42057 0.0
C800 C 0.07427 0.54506 0.41276 0.0
C801 C 0.08311 0.55079 0.39471 0.0
C802 C 0.08933 0.55458 0.42787 0.0
C803 C 0.11351 0.57001 0.42522 0.0
C804 C 0.12239 0.57582 0.40722 0.0
H805 H 0.22438 0.59881 0.50396 0.0
H806 H 0.19716 0.58601 0.4778 0.0
C807 C 0.10729 0.56641 0.39209 0.0
C808 C 0.12961 0.57893 0.4413 0.0
H809 H 0.17113 0.62838 0.46232 0.0
C810 C 0.13041 0.56295 0.45338 0.0
C811 C 0.14406 0.60283 0.44478 0.0
C812 C 0.14296 0.62081 0.43293 0.0
C813 C 0.14561 0.57019 0.46865 0.0
C814 C 0.16082 0.59406 0.47165 0.0
C815 C 0.15966 0.61008 0.45982 0.0
C816 C 0.17798 0.60271 0.48706 0.0
C817 C 0.14497 0.55218 0.48155 0.0
C818 C 0.17676 0.61704 0.50057 0.0
C819 C 0.19246 0.62459 0.51545 0.0
C820 C 0.20965 0.61794 0.51703 0.0
C821 C 0.21119 0.60405 0.50322 0.0
C822 C 0.19557 0.59661 0.48832 0.0
H823 H 0.12811 0.53554 0.48034 0.0
H824 H 0.15958 0.54896 0.47802 0.0
H825 H 0.14725 0.55805 0.49609 0.0
H826 H 0.16339 0.62205 0.49978 0.0
H827 H 0.19089 0.63535 0.52584 0.0
H828 H 0.58123 0.10008 0.55744 0.0
H829 H 0.59063 0.12586 0.58393 0.0
H830 H 0.51736 0.10692 0.58834 0.0
H831 H 0.50773 0.08078 0.56203 0.0
H832 H 0.58098 0.16391 0.58818 0.0
H833 H 0.53612 0.09432 0.64045 0.0
H834 H 0.54423 0.08906 0.61795 0.0
H835 H 0.51907 0.09281 0.62048 0.0
C836 C 0.5671 0.1013 0.56412 0.0
C837 C 0.54372 0.08832 0.55774 0.0
C838 C 0.57252 0.11612 0.57916 0.0
C839 C 0.55464 0.11805 0.58815 0.0
C840 C 0.53134 0.10542 0.58167 0.0
H841 H 0.56028 0.19269 0.68835 0.0
H842 H 0.54698 0.16887 0.66048 0.0
C843 C 0.52592 0.09067 0.56657 0.0
C844 C 0.56046 0.13328 0.60438 0.0
H845 H 0.55348 0.13266 0.651 0.0
C846 C 0.57494 0.15714 0.60192 0.0
C847 C 0.5524 0.12431 0.62221 0.0
C848 C 0.53722 0.09872 0.62558 0.0
C849 C 0.58166 0.17235 0.61691 0.0
C850 C 0.57412 0.16334 0.63485 0.0
C851 C 0.55925 0.1395 0.63723 0.0
C852 C 0.58217 0.17825 0.6514 0.0
C853 C 0.59658 0.19793 0.61338 0.0
C854 C 0.60632 0.19116 0.65562 0.0
C855 C 0.61396 0.2048 0.67145 0.0
C856 C 0.59755 0.20559 0.68348 0.0
C857 C 0.57334 0.19247 0.67933 0.0
C858 C 0.56572 0.17887 0.66343 0.0
H859 H 0.59477 0.20233 0.59892 0.0
H860 H 0.59169 0.20793 0.62279 0.0
H861 H 0.61543 0.20339 0.61574 0.0
H862 H 0.61928 0.19048 0.64677 0.0
H863 H 0.63272 0.21458 0.67434 0.0
H864 H 0.50336 0.59081 0.733 0.0
H865 H 0.49188 0.60405 0.76047 0.0
H866 H 0.42635 0.53933 0.763 0.0
H867 H 0.43781 0.52575 0.73583 0.0
H868 H 0.42274 0.58074 0.76775 0.0
H869 H 0.48973 0.57754 0.81319 0.0
H870 H 0.5004 0.59343 0.79201 0.0
H871 H 0.48104 0.56276 0.79132 0.0
C872 C 0.48655 0.57935 0.73945 0.0
C873 C 0.47155 0.55717 0.73227 0.0
C874 C 0.48002 0.58697 0.75509 0.0
C875 C 0.4584 0.57255 0.7638 0.0
C876 C 0.44311 0.55069 0.75642 0.0
H877 H 0.40365 0.56868 0.87143 0.0
H878 H 0.41869 0.56238 0.84255 0.0
C879 C 0.44965 0.54302 0.74084 0.0
C880 C 0.45183 0.57992 0.7809 0.0
H881 H 0.46545 0.59027 0.82659 0.0
C882 C 0.43215 0.58301 0.7806 0.0
C883 C 0.46408 0.58262 0.79761 0.0
C884 C 0.4849 0.57878 0.79872 0.0
C885 C 0.42425 0.5886 0.7967 0.0
C886 C 0.43648 0.59127 0.81342 0.0
C887 C 0.45627 0.58836 0.81368 0.0
C888 C 0.42813 0.5957 0.83102 0.0
C889 C 0.40247 0.59091 0.79587 0.0
C890 C 0.42882 0.61669 0.83415 0.0
C891 C 0.42028 0.62041 0.85068 0.0
C892 C 0.4109 0.60315 0.86433 0.0
C893 C 0.41065 0.5823 0.8612 0.0
C894 C 0.41927 0.57867 0.84473 0.0
H895 H 0.39281 0.58447 0.78263 0.0
H896 H 0.3903 0.58127 0.80737 0.0
H897 H 0.40769 0.60936 0.79732 0.0
H898 H 0.43588 0.63014 0.82378 0.0
H899 H 0.42079 0.63668 0.85266 0.0
H900 H 0.92687 0.4304 0.89511 0.0
H901 H 0.89981 0.41507 0.92134 0.0
H902 H 0.89173 0.47513 0.92072 0.0
H903 H 0.91923 0.49095 0.89488 0.0
H904 H 0.90531 0.43931 0.957 0.0
H905 H 0.82283 0.4174 0.91893 0.0
H906 H 0.84902 0.42093 0.90759 0.0
H907 H 0.84758 0.44579 0.91493 0.0
C908 C 0.91951 0.44046 0.90064 0.0
C909 C 0.92519 0.46189 0.89285 0.0
C910 C 0.90395 0.43159 0.91553 0.0
C911 C 0.89364 0.44388 0.92274 0.0
C912 C 0.89926 0.46525 0.91509 0.0
H913 H 0.79684 0.42703 0.00955 0.0
H914 H 0.823 0.4388 0.98279 0.0
C915 C 0.91491 0.4742 0.90029 0.0
C916 C 0.87743 0.4347 0.93862 0.0
H917 H 0.82032 0.41486 0.95148 0.0
C918 C 0.88668 0.43377 0.95584 0.0
C919 C 0.85324 0.42764 0.93694 0.0
C920 C 0.84243 0.42777 0.91859 0.0
C921 C 0.87242 0.42657 0.97164 0.0
C922 C 0.84818 0.41959 0.97 0.0
C923 C 0.83891 0.42023 0.95269 0.0
C924 C 0.83224 0.41215 0.98615 0.0
C925 C 0.88363 0.42727 0.99 0.0
C926 C 0.82852 0.39307 -0.00325 0.0
C927 C 0.81372 0.38642 0.01213 0.0
C928 C 0.80216 0.39856 0.01702 0.0
C929 C 0.80553 0.41736 0.00615 0.0
C930 C 0.82045 0.42409 0.99086 0.0
H931 H 0.90313 0.43863 0.98961 0.0
H932 H 0.87643 0.43347 0.00104 0.0
H933 H 0.87977 0.40963 0.99366 0.0
H934 H 0.837 0.38329 0.99309 0.0
H935 H 0.81129 0.37173 0.02015 0.0
H936 H 0.49786 0.92598 0.0611 0.0
H937 H 0.48682 0.89938 0.0872 0.0
H938 H 0.41636 0.88924 0.08599 0.0
H939 H 0.42732 0.91628 0.06024 0.0
H940 H 0.46738 0.90473 0.12238 0.0
H941 H 0.40813 0.82273 0.08575 0.0
H942 H 0.4301 0.84829 0.07394 0.0
H943 H 0.40303 0.84635 0.08143 0.0
C944 C 0.48004 0.9182 0.06643 0.0
C945 C 0.46348 0.9233 0.05857 0.0
C946 C 0.47375 0.90291 0.08125 0.0
C947 C 0.45075 0.89224 0.08834 0.0
C948 C 0.4341 0.89706 0.08048 0.0
H949 H 0.37521 0.79819 0.17712 0.0
H950 H 0.38765 0.82308 0.14991 0.0
C951 C 0.4404 0.91246 0.06573 0.0
C952 C 0.44439 0.8768 0.10449 0.0
H953 H 0.40913 0.82106 0.11831 0.0
C954 C 0.45477 0.8864 0.12153 0.0
C955 C 0.42786 0.85299 0.10324 0.0
C956 C 0.4167 0.84184 0.0851 0.0
C957 C 0.44859 0.87285 0.13754 0.0
C958 C 0.43203 0.84897 0.13632 0.0
C959 C 0.42182 0.83936 0.1192 0.0
C960 C 0.42468 0.83372 0.15271 0.0
C961 C 0.45926 0.88441 0.15569 0.0
C962 C 0.44132 0.8312 0.16316 0.0
C963 C 0.43429 0.81714 0.17882 0.0
C964 C 0.41043 0.80511 0.18413 0.0
C965 C 0.39373 0.80727 0.1734 0.0
C966 C 0.4008 0.82146 0.15784 0.0
H967 H 0.46634 0.90333 0.15504 0.0
H968 H 0.44606 0.87714 0.16697 0.0
H969 H 0.47411 0.88153 0.15917 0.0
H970 H 0.45975 0.84006 0.1592 0.0
H971 H 0.44754 0.81565 0.18671 0.0
H972 H 0.50996 0.41878 0.2296 0.0
H973 H 0.52181 0.40602 0.25736 0.0
H974 H 0.57309 0.47666 0.27001 0.0
H975 H 0.56135 0.48955 0.24247 0.0
H976 H 0.57298 0.41876 0.26734 0.0
H977 H 0.52794 0.4472 0.31695 0.0
H978 H 0.51902 0.44078 0.29311 0.0
H979 H 0.54499 0.4674 0.29911 0.0
C980 C 0.52371 0.43155 0.23835 0.0
C981 C 0.53475 0.45515 0.23389 0.0
C982 C 0.5305 0.42424 0.2541 0.0
C983 C 0.54817 0.44045 0.2657 0.0
C984 C 0.55932 0.46395 0.26123 0.0
H985 H 0.61836 0.45029 0.36699 0.0
H986 H 0.60124 0.45519 0.33869 0.0
C987 C 0.55271 0.47125 0.24544 0.0
C988 C 0.55512 0.43303 0.28259 0.0
H989 H 0.55459 0.43651 0.32943 0.0
C990 C 0.56878 0.42234 0.28096 0.0
C991 C 0.54956 0.43782 0.30022 0.0
C992 C 0.53443 0.44878 0.30258 0.0
C993 C 0.57795 0.41719 0.29662 0.0
C994 C 0.57282 0.42247 0.3143 0.0
C995 C 0.55853 0.43252 0.31587 0.0
C996 C 0.58321 0.41903 0.33132 0.0
C997 C 0.59388 0.40713 0.29405 0.0
C998 C 0.57863 0.397 0.33665 0.0
C999 C 0.58855 0.39413 0.35283 0.0
C1000 C 0.603 0.41322 0.36405 0.0
C1001 C 0.60731 0.4352 0.35872 0.0
C1002 C 0.59753 0.43805 0.34253 0.0
H1003 H 0.60039 0.40912 0.27966 0.0
H1004 H 0.60933 0.41547 0.30347 0.0
H1005 H 0.58389 0.38843 0.29731 0.0
H1006 H 0.56723 0.38202 0.3284 0.0
H1007 H 0.58474 0.37695 0.35661 0.0
H1008 H 0.46691 0.89528 0.4272 0.0
H1009 H 0.45462 0.8684 0.40115 0.0
H1010 H 0.48061 0.92565 0.36326 0.0
H1011 H 0.49332 0.95257 0.38914 0.0
H1012 H 0.42193 0.86397 0.37401 0.0
H1013 H 0.50835 0.8869 0.34298 0.0
H1014 H 0.50549 0.89463 0.36629 0.0
H1015 H 0.50481 0.91142 0.34718 0.0
C1016 C 0.47037 0.90213 0.41331 0.0
C1017 C 0.48103 0.92601 0.41019 0.0
C1018 C 0.46327 0.88677 0.39847 0.0
C1019 C 0.467 0.89508 0.38031 0.0
C1020 C 0.47797 0.91892 0.37717 0.0
H1021 H 0.39525 0.83818 0.27932 0.0
H1022 H 0.41178 0.85856 0.30823 0.0
C1023 C 0.48496 0.93425 0.39197 0.0
C1024 C 0.45785 0.8789 0.36458 0.0
H1025 H 0.47422 0.86571 0.32379 0.0
C1026 C 0.43337 0.8641 0.36314 0.0
C1027 C 0.47286 0.87895 0.35055 0.0
C1028 C 0.49937 0.89366 0.35187 0.0
C1029 C 0.42339 0.85012 0.34759 0.0
C1030 C 0.43829 0.8512 0.33307 0.0
C1031 C 0.46285 0.86514 0.33489 0.0
C1032 C 0.42857 0.83883 0.31552 0.0
C1033 C 0.39695 0.83453 0.34669 0.0
C1034 C 0.43304 0.82136 0.30987 0.0
C1035 C 0.42362 0.80964 0.29331 0.0
C1036 C 0.40978 0.8154 0.28205 0.0
C1037 C 0.40575 0.83324 0.28766 0.0
C1038 C 0.41507 0.84483 0.30423 0.0
H1039 H 0.38881 0.83115 0.3606 0.0
H1040 H 0.38921 0.84293 0.33825 0.0
H1041 H 0.39227 0.81778 0.34015 0.0
H1042 H 0.44359 0.81664 0.31838 0.0
H1043 H 0.42715 0.79606 0.28937 0.0
H1044 H 0.50648 0.42753 0.58407 0.0
H1045 H 0.51819 0.41264 0.55779 0.0
H1046 H 0.58877 0.47106 0.56081 0.0
H1047 H 0.57715 0.48646 0.58673 0.0
H1048 H 0.53888 0.43857 0.52332 0.0
H1049 H 0.59648 0.4123 0.55989 0.0
H1050 H 0.57421 0.41597 0.57158 0.0
H1051 H 0.60165 0.44075 0.56499 0.0
C1052 C 0.52447 0.43728 0.5791 0.0
C1053 C 0.54087 0.45821 0.58751 0.0
C1054 C 0.53114 0.42867 0.56418 0.0
C1055 C 0.55436 0.44066 0.55756 0.0
C1056 C 0.57085 0.46139 0.56598 0.0
H1057 H 0.634 0.42644 0.46945 0.0
H1058 H 0.61992 0.43718 0.4968 0.0
C1059 C 0.56418 0.47011 0.58082 0.0
C1060 C 0.56115 0.43211 0.54128 0.0
H1061 H 0.59704 0.41173 0.52725 0.0
C1062 C 0.55145 0.43252 0.52414 0.0
C1063 C 0.57761 0.42438 0.5425 0.0
C1064 C 0.58802 0.4231 0.56073 0.0
C1065 C 0.55833 0.42598 0.50799 0.0
C1066 C 0.5749 0.4183 0.50917 0.0
C1067 C 0.58434 0.41762 0.5264 0.0
C1068 C 0.58318 0.4115 0.49263 0.0
C1069 C 0.54842 0.42813 0.48977 0.0
C1070 C 0.56721 0.39332 0.48136 0.0
C1071 C 0.57517 0.38727 0.46563 0.0
C1072 C 0.5993 0.39912 0.46107 0.0
C1073 C 0.6153 0.41702 0.47259 0.0
C1074 C 0.6073 0.42315 0.48823 0.0
H1075 H 0.54107 0.43989 0.49072 0.0
H1076 H 0.56216 0.43465 0.47887 0.0
H1077 H 0.53391 0.4109 0.48552 0.0
H1078 H 0.5486 0.38374 0.48476 0.0
H1079 H 0.56246 0.37326 0.45711 0.0
H1080 H 0.11939 0.56448 0.75817 0.0
H1081 H 0.14599 0.57789 0.73159 0.0
H1082 H 0.08766 0.56504 0.69613 0.0
H1083 H 0.061 0.55166 0.7226 0.0
H1084 H 0.14334 0.55294 0.70108 0.0
H1085 H 0.13771 0.62989 0.68091 0.0
H1086 H 0.1276 0.61589 0.70299 0.0
H1087 H 0.10931 0.60428 0.68285 0.0
C1088 C 0.11226 0.56459 0.74471 0.0
C1089 C 0.08811 0.55705 0.74247 0.0
C1090 C 0.12748 0.57235 0.72957 0.0
C1091 C 0.11886 0.57279 0.71195 0.0
C1092 C 0.0948 0.56541 0.70969 0.0
H1093 H 0.17431 0.56588 0.60655 0.0
H1094 H 0.15252 0.5592 0.63529 0.0
C1095 C 0.07958 0.55772 0.72482 0.0
C1096 C 0.13469 0.57952 0.69575 0.0
H1097 H 0.15435 0.61574 0.65865 0.0
C1098 C 0.14593 0.56682 0.69189 0.0
C1099 C 0.13829 0.59782 0.68393 0.0
C1100 C 0.12779 0.61292 0.68796 0.0
C1101 C 0.16006 0.57142 0.67619 0.0
C1102 C 0.16263 0.5889 0.66385 0.0
C1103 C 0.15209 0.60215 0.66803 0.0
C1104 C 0.17573 0.59327 0.64632 0.0
C1105 C 0.17213 0.55754 0.67297 0.0
C1106 C 0.1956 0.61489 0.64277 0.0
C1107 C 0.20806 0.61885 0.62626 0.0
C1108 C 0.20076 0.60127 0.61298 0.0
C1109 C 0.18056 0.57976 0.6165 0.0
C1110 C 0.16813 0.57585 0.63297 0.0
H1111 H 0.17395 0.54975 0.68596 0.0
H1112 H 0.16141 0.54329 0.66323 0.0
H1113 H 0.18994 0.56839 0.66688 0.0
H1114 H 0.20163 0.6286 0.65287 0.0
H1115 H 0.22349 0.63563 0.62397 0.0
H1116 H 0.51067 0.06181 0.89262 0.0
H1117 H 0.52462 0.0873 0.86579 0.0
H1118 H 0.56862 0.14501 0.90097 0.0
H1119 H 0.5547 0.11959 0.92794 0.0
H1120 H 0.52312 0.12745 0.85719 0.0
H1121 H 0.61526 0.14455 0.86344 0.0
H1122 H 0.59101 0.12176 0.87603 0.0
H1123 H 0.60386 0.15116 0.8836 0.0
C1124 C 0.52308 0.07998 0.89469 0.0
C1125 C 0.53169 0.08867 0.9124 0.0
C1126 C 0.53109 0.0945 0.87934 0.0
C1127 C 0.54788 0.11795 0.88138 0.0
C1128 C 0.55599 0.12685 0.89907 0.0
H1129 H 0.5904 0.21906 0.79163 0.0
H1130 H 0.57454 0.19821 0.82062 0.0
C1131 C 0.54805 0.11232 0.91445 0.0
C1132 C 0.55732 0.13281 0.86486 0.0
H1133 H 0.60761 0.16401 0.8397 0.0
C1134 C 0.54161 0.13556 0.85338 0.0
C1135 C 0.5814 0.14312 0.85987 0.0
C1136 C 0.59888 0.1399 0.87126 0.0
C1137 C 0.54932 0.14825 0.83692 0.0
C1138 C 0.57343 0.15868 0.83201 0.0
C1139 C 0.58916 0.1561 0.84359 0.0
C1140 C 0.58256 0.17127 0.81442 0.0
C1141 C 0.5315 0.14976 0.82465 0.0
C1142 C 0.59264 0.16322 0.80148 0.0
C1143 C 0.60185 0.17513 0.78501 0.0
C1144 C 0.60123 0.19541 0.78113 0.0
C1145 C 0.59106 0.20344 0.79413 0.0
C1146 C 0.58188 0.1915 0.81066 0.0
H1147 H 0.51308 0.13669 0.82837 0.0
H1148 H 0.53339 0.1671 0.82607 0.0
H1149 H 0.53452 0.14733 0.80997 0.0
H1150 H 0.59337 0.14766 0.80414 0.0
H1151 H 0.60953 0.16843 0.77534 0.0
H1152 H 0.43407 0.52531 0.083 0.0
H1153 H 0.42389 0.54216 0.05715 0.0
H1154 H 0.49349 0.60217 0.05886 0.0
H1155 H 0.50371 0.58584 0.08512 0.0
H1156 H 0.42908 0.59049 0.05625 0.0
H1157 H 0.48137 0.57382 0.00424 0.0
H1158 H 0.47117 0.55746 0.02538 0.0
H1159 H 0.49527 0.58659 0.02588 0.0
C1160 C 0.44714 0.54224 0.07809 0.0
C1161 C 0.46974 0.55421 0.08615 0.0
C1162 C 0.44132 0.55176 0.06325 0.0
C1163 C 0.45802 0.57327 0.0561 0.0
C1164 C 0.48049 0.58541 0.06414 0.0
H1165 H 0.45176 0.64437 0.95734 0.0
H1166 H 0.46488 0.63336 0.98522 0.0
C1167 C 0.4863 0.57599 0.07906 0.0
C1168 C 0.4519 0.58289 0.0401 0.0
H1169 H 0.46078 0.59213 0.99384 0.0
C1170 C 0.43602 0.59095 0.0426 0.0
C1171 C 0.46121 0.58358 0.02242 0.0
C1172 C 0.47813 0.57483 0.01914 0.0
C1173 C 0.4291 0.59968 0.02775 0.0
C1174 C 0.43784 0.59973 0.00991 0.0
C1175 C 0.45407 0.59204 0.00752 0.0
C1176 C 0.42979 0.60696 0.99341 0.0
C1177 C 0.41276 0.60904 0.0314 0.0
C1178 C 0.40576 0.59562 0.98869 0.0
C1179 C 0.39821 0.60197 0.97287 0.0
C1180 C 0.41461 0.61957 0.96133 0.0
C1181 C 0.43871 0.63077 0.96598 0.0
C1182 C 0.44623 0.62451 0.98189 0.0
H1183 H 0.41377 0.61448 0.04599 0.0
H1184 H 0.41696 0.624 0.02235 0.0
H1185 H 0.39429 0.59533 0.02864 0.0
H1186 H 0.39284 0.58161 -0.0029 0.0
H1187 H 0.37954 0.59287 0.96957 0.0
H1188 H 0.91821 0.47825 0.24097 0.0
H1189 H 0.89143 0.46314 0.21461 0.0
H1190 H 0.89749 0.4019 0.21487 0.0
H1191 H 0.92473 0.41713 0.24113 0.0
H1192 H 0.90458 0.42333 0.18002 0.0
H1193 H 0.8223 0.41015 0.21287 0.0
H1194 H 0.84724 0.43833 0.21691 0.0
H1195 H 0.84725 0.41333 0.226 0.0
C1196 C 0.91384 0.46156 0.23542 0.0
C1197 C 0.92361 0.44889 0.24307 0.0
C1198 C 0.89833 0.45284 0.22051 0.0
C1199 C 0.89223 0.43127 0.213 0.0
C1200 C 0.90184 0.41849 0.22062 0.0
H1201 H 0.78687 0.37367 0.12417 0.0
H1202 H 0.80878 0.3766 0.15244 0.0
C1203 C 0.91729 0.42716 0.23563 0.0
C1204 C 0.87698 0.42289 0.19647 0.0
H1205 H 0.82341 0.41161 0.17982 0.0
C1206 C 0.8867 0.42041 0.18001 0.0
C1207 C 0.85358 0.41882 0.19658 0.0
C1208 C 0.84186 0.42006 0.21408 0.0
C1209 C 0.87405 0.41517 0.1634 0.0
C1210 C 0.85123 0.41259 0.1633 0.0
C1211 C 0.84102 0.41382 0.17993 0.0
C1212 C 0.83837 0.41023 0.14593 0.0
C1213 C 0.88534 0.41282 0.14605 0.0
C1214 C 0.84772 0.42827 0.13305 0.0
C1215 C 0.83527 0.42673 0.11699 0.0
C1216 C 0.81317 0.40711 0.11349 0.0
C1217 C 0.80388 0.38898 0.12641 0.0
C1218 C 0.81633 0.39061 0.14256 0.0
H1219 H 0.89946 0.4087 0.14919 0.0
H1220 H 0.87202 0.39915 0.13696 0.0
H1221 H 0.89347 0.42939 0.13839 0.0
H1222 H 0.8645 0.44375 0.13558 0.0
H1223 H 0.84295 0.44103 0.10737 0.0
loop_
_geom_bond_atom_site_label_1
_geom_bond_atom_site_label_2
_geom_bond_distance
_geom_bond_site_symmetry_2
_ccdc_geom_bond_type
C0 C1 1.384 . S
C0 C2 1.384 . S
C0 H28 0.931 . S
C1 C0 1.384 . S
C1 C4 1.382 . S
C2 C0 1.384 . S
C2 C3 1.381 . S
C2 H29 0.930 . S
C3 C2 1.381 . S
C3 C5 1.381 . S
C3 C6 1.487 . S
C4 C1 1.382 . S
C4 C5 1.387 . S
C4 H30 0.930 . S
C5 C3 1.381 . S
C5 C4 1.387 . S
C5 H31 0.931 . S
C6 C3 1.487 . S
C6 C13 1.399 . S
C6 N44 1.343 1_655 S
C7 C8 1.384 . S
C7 C9 1.384 . S
C7 H32 0.931 . S
C8 C7 1.384 . S
C8 C11 1.382 . S
C9 C7 1.384 . S
C9 C10 1.381 . S
C9 H33 0.930 . S
C10 C9 1.381 . S
C10 C12 1.381 . S
C10 C13 1.487 . S
C11 C8 1.382 . S
C11 C12 1.387 . S
C11 H34 0.930 . S
C12 C10 1.381 . S
C12 C11 1.387 . S
C12 H35 0.931 . S
C13 C6 1.399 . S
C13 C10 1.487 . S
C13 N45 1.343 1_655 S
C14 C15 1.384 . S
C14 C16 1.384 . S
C14 H36 0.931 . S
C15 C14 1.384 . S
C15 C18 1.382 . S
C16 C14 1.384 . S
C16 C17 1.381 . S
C16 H37 0.930 . S
C17 C16 1.381 . S
C17 C19 1.381 . S
C17 C20 1.487 . S
C18 C15 1.382 . S
C18 C19 1.387 . S
C18 H38 0.930 . S
C19 C17 1.381 . S
C19 C18 1.387 . S
C19 H39 0.931 . S
C20 C17 1.487 . S
C20 C27 1.399 . S
C20 N45 1.343 . S
C21 C22 1.384 . S
C21 C23 1.384 . S
C21 H40 0.931 . S
C22 C21 1.384 . S
C22 C25 1.382 . S
C23 C21 1.384 . S
C23 C24 1.381 . S
C23 H41 0.930 . S
C24 C23 1.381 . S
C24 C26 1.381 . S
C24 C27 1.487 . S
C25 C22 1.382 . S
C25 C26 1.387 . S
C25 H42 0.930 . S
C26 C24 1.381 . S
C26 C25 1.387 . S
C26 H43 0.931 . S
C27 C20 1.399 . S
C27 C24 1.487 . S
C27 N44 1.343 . S
H28 C0 0.931 . S
H29 C2 0.930 . S
H30 C4 0.930 . S
H31 C5 0.931 . S
H32 C7 0.931 . S
H33 C9 0.930 . S
H34 C11 0.930 . S
H35 C12 0.931 . S
H36 C14 0.931 . S
H37 C16 0.930 . S
H38 C18 0.930 . S
H39 C19 0.931 . S
H40 C21 0.931 . S
H41 C23 0.930 . S
H42 C25 0.930 . S
H43 C26 0.931 . S
N44 C6 1.343 1_455 S
N44 C27 1.343 . S
N45 C13 1.343 1_455 S
N45 C20 1.343 . S
C46 C47 1.384 . S
C46 C48 1.384 . S
C46 H74 0.931 . S
C47 C46 1.384 . S
C47 C50 1.382 . S
C48 C46 1.384 . S
C48 C49 1.381 . S
C48 H75 0.930 . S
C49 C48 1.381 . S
C49 C51 1.381 . S
C49 C52 1.487 . S
C50 C47 1.382 . S
C50 C51 1.387 . S
C50 H76 0.930 . S
C51 C49 1.381 . S
C51 C50 1.387 . S
C51 H77 0.931 . S
C52 C49 1.487 . S
C52 C59 1.399 . S
C52 N90 1.343 1_565 S
C53 C54 1.384 . S
C53 C55 1.384 . S
C53 H78 0.931 . S
C54 C53 1.384 . S
C54 C57 1.382 . S
C55 C53 1.384 . S
C55 C56 1.381 . S
C55 H79 0.930 . S
C56 C55 1.381 . S
C56 C58 1.381 . S
C56 C59 1.487 . S
C57 C54 1.382 . S
C57 C58 1.387 . S
C57 H80 0.930 . S
C58 C56 1.381 . S
C58 C57 1.387 . S
C58 H81 0.931 . S
C59 C52 1.399 . S
C59 C56 1.487 . S
C59 N91 1.343 1_565 S
C60 C61 1.384 . S
C60 C62 1.384 . S
C60 H82 0.931 . S
C61 C60 1.384 . S
C61 C64 1.382 . S
C62 C60 1.384 . S
C62 C63 1.381 . S
C62 H83 0.930 . S
C63 C62 1.381 . S
C63 C65 1.381 . S
C63 C66 1.487 . S
C64 C61 1.382 . S
C64 C65 1.387 . S
C64 H84 0.930 . S
C65 C63 1.381 . S
C65 C64 1.387 . S
C65 H85 0.931 . S
C66 C63 1.487 . S
C66 C73 1.399 . S
C66 N91 1.343 . S
C67 C68 1.384 . S
C67 C69 1.384 . S
C67 H86 0.931 . S
C68 C67 1.384 . S
C68 C71 1.382 . S
C69 C67 1.384 . S
C69 C70 1.381 . S
C69 H87 0.930 . S
C70 C69 1.381 . S
C70 C72 1.381 . S
C70 C73 1.487 . S
C71 C68 1.382 . S
C71 C72 1.387 . S
C71 H88 0.930 . S
C72 C70 1.381 . S
C72 C71 1.387 . S
C72 H89 0.931 . S
C73 C66 1.399 . S
C73 C70 1.487 . S
C73 N90 1.343 . S
H74 C46 0.931 . S
H75 C48 0.930 . S
H76 C50 0.930 . S
H77 C51 0.931 . S
H78 C53 0.931 . S
H79 C55 0.930 . S
H80 C57 0.930 . S
H81 C58 0.931 . S
H82 C60 0.931 . S
H83 C62 0.930 . S
H84 C64 0.930 . S
H85 C65 0.931 . S
H86 C67 0.931 . S
H87 C69 0.930 . S
H88 C71 0.930 . S
H89 C72 0.931 . S
N90 C52 1.343 1_545 S
N90 C73 1.343 . S
N91 C59 1.343 1_545 S
N91 C66 1.343 . S
C92 C93 1.384 . S
C92 C94 1.384 . S
C92 H120 0.931 . S
C93 C92 1.384 . S
C93 C96 1.382 . S
C94 C92 1.384 . S
C94 C95 1.381 . S
C94 H121 0.930 . S
C95 C94 1.381 . S
C95 C97 1.381 . S
C95 C98 1.487 . S
C96 C93 1.382 . S
C96 C97 1.387 . S
C96 H122 0.930 . S
C97 C95 1.381 . S
C97 C96 1.387 . S
C97 H123 0.931 . S
C98 C95 1.487 . S
C98 C105 1.399 . S
C98 N136 1.343 . S
C99 C100 1.384 . S
C99 C101 1.384 . S
C99 H124 0.931 . S
C100 C99 1.384 . S
C100 C103 1.382 . S
C101 C99 1.384 . S
C101 C102 1.381 . S
C101 H125 0.930 . S
C102 C101 1.381 . S
C102 C104 1.381 . S
C102 C105 1.487 . S
C103 C100 1.382 . S
C103 C104 1.387 . S
C103 H126 0.930 . S
C104 C102 1.381 . S
C104 C103 1.387 . S
C104 H127 0.931 . S
C105 C98 1.399 . S
C105 C102 1.487 . S
C105 N137 1.343 . S
C106 C107 1.384 . S
C106 C108 1.384 . S
C106 H128 0.931 . S
C107 C106 1.384 . S
C107 C110 1.382 . S
C108 C106 1.384 . S
C108 C109 1.381 . S
C108 H129 0.930 . S
C109 C108 1.381 . S
C109 C111 1.381 . S
C109 C112 1.487 . S
C110 C107 1.382 . S
C110 C111 1.387 . S
C110 H130 0.930 . S
C111 C109 1.381 . S
C111 C110 1.387 . S
C111 H131 0.931 . S
C112 C109 1.487 . S
C112 C119 1.399 . S
C112 N137 1.343 . S
C113 C114 1.384 . S
C113 C115 1.384 . S
C113 H132 0.931 . S
C114 C113 1.384 . S
C114 C117 1.382 . S
C115 C113 1.384 . S
C115 C116 1.381 . S
C115 H133 0.930 . S
C116 C115 1.381 . S
C116 C118 1.381 . S
C116 C119 1.487 . S
C117 C114 1.382 . S
C117 C118 1.387 . S
C117 H134 0.930 . S
C118 C116 1.381 . S
C118 C117 1.387 . S
C118 H135 0.931 . S
C119 C112 1.399 . S
C119 C116 1.487 . S
C119 N136 1.343 . S
H120 C92 0.931 . S
H121 C94 0.930 . S
H122 C96 0.930 . S
H123 C97 0.931 . S
H124 C99 0.931 . S
H125 C101 0.930 . S
H126 C103 0.930 . S
H127 C104 0.931 . S
H128 C106 0.931 . S
H129 C108 0.930 . S
H130 C110 0.930 . S
H131 C111 0.931 . S
H132 C113 0.931 . S
H133 C115 0.930 . S
H134 C117 0.930 . S
H135 C118 0.931 . S
N136 C98 1.343 . S
N136 C119 1.343 . S
N137 C105 1.343 . S
N137 C112 1.343 . S
C138 C139 1.384 . S
C138 C140 1.384 . S
C138 H166 0.931 . S
C139 C138 1.384 . S
C139 C142 1.382 . S
C140 C138 1.384 . S
C140 C141 1.381 . S
C140 H167 0.930 . S
C141 C140 1.381 . S
C141 C143 1.381 . S
C141 C144 1.487 . S
C142 C139 1.382 . S
C142 C143 1.387 . S
C142 H168 0.930 . S
C143 C141 1.381 . S
C143 C142 1.387 . S
C143 H169 0.931 . S
C144 C141 1.487 . S
C144 C151 1.399 . S
C144 N182 1.343 1_655 S
C145 C146 1.384 . S
C145 C147 1.384 . S
C145 H170 0.931 . S
C146 C145 1.384 . S
C146 C149 1.382 . S
C147 C145 1.384 . S
C147 C148 1.381 . S
C147 H171 0.930 . S
C148 C147 1.381 . S
C148 C150 1.381 . S
C148 C151 1.487 . S
C149 C146 1.382 . S
C149 C150 1.387 . S
C149 H172 0.930 . S
C150 C148 1.381 . S
C150 C149 1.387 . S
C150 H173 0.931 . S
C151 C144 1.399 . S
C151 C148 1.487 . S
C151 N183 1.343 1_655 S
C152 C153 1.384 . S
C152 C154 1.384 . S
C152 H174 0.931 . S
C153 C152 1.384 . S
C153 C156 1.382 . S
C154 C152 1.384 . S
C154 C155 1.381 . S
C154 H175 0.930 . S
C155 C154 1.381 . S
C155 C157 1.381 . S
C155 C158 1.487 . S
C156 C153 1.382 . S
C156 C157 1.387 . S
C156 H176 0.930 . S
C157 C155 1.381 . S
C157 C156 1.387 . S
C157 H177 0.931 . S
C158 C155 1.487 . S
C158 C165 1.399 . S
C158 N183 1.343 . S
C159 C160 1.384 . S
C159 C161 1.384 . S
C159 H178 0.931 . S
C160 C159 1.384 . S
C160 C163 1.382 . S
C161 C159 1.384 . S
C161 C162 1.381 . S
C161 H179 0.930 . S
C162 C161 1.381 . S
C162 C164 1.381 . S
C162 C165 1.487 . S
C163 C160 1.382 . S
C163 C164 1.387 . S
C163 H180 0.930 . S
C164 C162 1.381 . S
C164 C163 1.387 . S
C164 H181 0.931 . S
C165 C158 1.399 . S
C165 C162 1.487 . S
C165 N182 1.343 . S
H166 C138 0.931 . S
H167 C140 0.930 . S
H168 C142 0.930 . S
H169 C143 0.931 . S
H170 C145 0.931 . S
H171 C147 0.930 . S
H172 C149 0.930 . S
H173 C150 0.931 . S
H174 C152 0.931 . S
H175 C154 0.930 . S
H176 C156 0.930 . S
H177 C157 0.931 . S
H178 C159 0.931 . S
H179 C161 0.930 . S
H180 C163 0.930 . S
H181 C164 0.931 . S
N182 C144 1.343 1_455 S
N182 C165 1.343 . S
N183 C151 1.343 1_455 S
N183 C158 1.343 . S
C184 C185 1.384 . S
C184 C186 1.384 . S
C184 H212 0.931 . S
C185 C184 1.384 . S
C185 C188 1.382 . S
C186 C184 1.384 . S
C186 C187 1.381 . S
C186 H213 0.930 . S
C187 C186 1.381 . S
C187 C189 1.381 . S
C187 C190 1.487 . S
C188 C185 1.382 . S
C188 C189 1.387 . S
C188 H214 0.930 . S
C189 C187 1.381 . S
C189 C188 1.387 . S
C189 H215 0.931 . S
C190 C187 1.487 . S
C190 C197 1.399 1_556 S
C190 N228 1.313 1_565 S
C191 C192 1.384 . S
C191 C193 1.384 . S
C191 H216 0.931 . S
C192 C191 1.384 . S
C192 C195 1.382 . S
C193 C191 1.384 . S
C193 C194 1.381 . S
C193 H217 0.930 . S
C194 C193 1.381 . S
C194 C196 1.381 . S
C194 C197 1.487 . S
C195 C192 1.382 . S
C195 C196 1.387 . S
C195 H218 0.930 . S
C196 C194 1.381 . S
C196 C195 1.387 . S
C196 H219 0.931 . S
C197 C190 1.399 1_554 S
C197 C194 1.487 . S
C197 N229 1.343 1_565 S
C198 C199 1.384 . S
C198 C200 1.384 1_554 S
C198 H220 0.931 1_554 S
C199 C198 1.384 . S
C199 C202 1.382 . S
C200 C198 1.384 1_556 S
C200 C201 1.381 1_556 S
C200 H221 0.930 . S
C201 C200 1.381 1_554 S
C201 C203 1.381 . S
C201 C204 1.487 1_554 S
C202 C199 1.382 . S
C202 C203 1.387 . S
C202 H222 0.930 . S
C203 C201 1.381 . S
C203 C202 1.387 . S
C203 H223 0.931 . S
C204 C201 1.487 1_556 S
C204 C211 1.399 . S
C204 N229 1.343 1_556 S
C205 C206 1.384 . S
C205 C207 1.384 . S
C205 H224 0.931 . S
C206 C205 1.384 . S
C206 C209 1.382 . S
C207 C205 1.384 . S
C207 C208 1.381 . S
C207 H225 0.930 . S
C208 C207 1.381 . S
C208 C210 1.381 . S
C208 C211 1.487 . S
C209 C206 1.382 . S
C209 C210 1.387 . S
C209 H226 0.930 . S
C210 C208 1.381 . S
C210 C209 1.387 . S
C210 H227 0.931 . S
C211 C204 1.399 . S
C211 C208 1.487 . S
C211 N228 1.384 . S
H212 C184 0.931 . S
H213 C186 0.930 . S
H214 C188 0.930 . S
H215 C189 0.931 . S
H216 C191 0.931 . S
H217 C193 0.930 . S
H218 C195 0.930 . S
H219 C196 0.931 . S
H220 C198 0.931 1_556 S
H221 C200 0.930 . S
H222 C202 0.930 . S
H223 C203 0.931 . S
H224 C205 0.931 . S
H225 C207 0.930 . S
H226 C209 0.930 . S
H227 C210 0.931 . S
N228 C190 1.313 1_545 S
N228 C211 1.384 . S
N229 C197 1.343 1_545 S
N229 C204 1.343 1_554 S
C230 C231 1.384 . S
C230 C232 1.384 . S
C230 H258 0.931 . S
C231 C230 1.384 . S
C231 C234 1.382 . S
C232 C230 1.384 . S
C232 C233 1.381 . S
C232 H259 0.930 . S
C233 C232 1.381 . S
C233 C235 1.381 . S
C233 C236 1.487 . S
C234 C231 1.382 . S
C234 C235 1.387 . S
C234 H260 0.930 . S
C235 C233 1.381 . S
C235 C234 1.387 . S
C235 H261 0.931 . S
C236 C233 1.487 . S
C236 C243 1.399 . S
C236 N274 1.343 . S
C237 C238 1.384 . S
C237 C239 1.384 . S
C237 H262 0.931 . S
C238 C237 1.384 . S
C238 C241 1.382 . S
C239 C237 1.384 . S
C239 C240 1.381 . S
C239 H263 0.930 . S
C240 C239 1.381 . S
C240 C242 1.381 . S
C240 C243 1.487 . S
C241 C238 1.382 . S
C241 C242 1.387 . S
C241 H264 0.930 . S
C242 C240 1.381 . S
C242 C241 1.387 . S
C242 H265 0.931 . S
C243 C236 1.399 . S
C243 C240 1.487 . S
C243 N275 1.343 . S
C244 C245 1.384 . S
C244 C246 1.384 . S
C244 H266 0.931 . S
C245 C244 1.384 . S
C245 C248 1.382 . S
C246 C244 1.384 . S
C246 C247 1.381 . S
C246 H267 0.930 . S
C247 C246 1.381 . S
C247 C249 1.381 . S
C247 C250 1.487 . S
C248 C245 1.382 . S
C248 C249 1.387 . S
C248 H268 0.930 . S
C249 C247 1.381 . S
C249 C248 1.387 . S
C249 H269 0.931 . S
C250 C247 1.487 . S
C250 C257 1.399 . S
C250 N275 1.343 . S
C251 C252 1.384 . S
C251 C253 1.384 . S
C251 H270 0.931 . S
C252 C251 1.384 . S
C252 C255 1.382 . S
C253 C251 1.384 . S
C253 C254 1.381 . S
C253 H271 0.930 . S
C254 C253 1.381 . S
C254 C256 1.381 . S
C254 C257 1.487 . S
C255 C252 1.382 . S
C255 C256 1.387 . S
C255 H272 0.930 . S
C256 C254 1.381 . S
C256 C255 1.387 . S
C256 H273 0.931 . S
C257 C250 1.399 . S
C257 C254 1.487 . S
C257 N274 1.343 . S
H258 C230 0.931 . S
H259 C232 0.930 . S
H260 C234 0.930 . S
H261 C235 0.931 . S
H262 C237 0.931 . S
H263 C239 0.930 . S
H264 C241 0.930 . S
H265 C242 0.931 . S
H266 C244 0.931 . S
H267 C246 0.930 . S
H268 C248 0.930 . S
H269 C249 0.931 . S
H270 C251 0.931 . S
H271 C253 0.930 . S
H272 C255 0.930 . S
H273 C256 0.931 . S
N274 C236 1.343 . S
N274 C257 1.343 . S
N275 C243 1.343 . S
N275 C250 1.343 . S
C276 O277 1.306 . S
C276 O279 1.160 . S
O277 C276 1.306 . S
O277 Cd278 2.228 . S
Cd278 O277 2.228 . S
Cd278 O282 2.273 . S
Cd278 O286 2.277 . S
O279 C276 1.160 . S
O279 Cd280 2.203 . S
Cd280 O279 2.203 . S
Cd280 O282 2.411 . S
Cd280 O283 2.333 . S
Cd280 O284 2.352 . S
Cd280 O288 2.277 . S
Cd280 O289 2.356 . S
C281 O286 1.209 . S
C281 O288 1.226 . S
O282 Cd278 2.273 . S
O282 Cd280 2.411 . S
O282 C285 1.320 . S
O283 Cd280 2.333 . S
O283 C285 1.214 . S
O284 Cd280 2.352 . S
O284 C287 1.258 . S
C285 O282 1.320 . S
C285 O283 1.214 . S
O286 Cd278 2.277 . S
O286 C281 1.209 . S
C287 O284 1.258 . S
C287 O289 1.282 . S
O288 Cd280 2.277 . S
O288 C281 1.226 . S
O289 Cd280 2.356 . S
O289 C287 1.282 . S
C290 O291 1.306 . S
C290 O293 1.160 . S
O291 C290 1.306 . S
O291 Cd292 2.228 . S
Cd292 O291 2.228 . S
Cd292 O296 2.273 . S
Cd292 O300 2.277 . S
O293 C290 1.160 . S
O293 Cd294 2.203 . S
Cd294 O293 2.203 . S
Cd294 O296 2.411 . S
Cd294 O297 2.333 . S
Cd294 O298 2.352 . S
Cd294 O302 2.277 . S
Cd294 O303 2.356 . S
C295 O300 1.209 . S
C295 O302 1.226 . S
O296 Cd292 2.273 . S
O296 Cd294 2.411 . S
O296 C299 1.320 . S
O297 Cd294 2.333 . S
O297 C299 1.214 . S
O298 Cd294 2.352 . S
O298 C301 1.258 . S
C299 O296 1.320 . S
C299 O297 1.214 . S
O300 Cd292 2.277 . S
O300 C295 1.209 . S
C301 O298 1.258 . S
C301 O303 1.282 . S
O302 Cd294 2.277 . S
O302 C295 1.226 . S
O303 Cd294 2.356 . S
O303 C301 1.282 . S
C304 O305 1.306 . S
C304 O307 1.160 . S
O305 C304 1.306 . S
O305 Cd306 2.228 . S
Cd306 O305 2.228 . S
Cd306 O310 2.273 . S
Cd306 O314 2.277 . S
O307 C304 1.160 . S
O307 Cd308 2.203 . S
Cd308 O307 2.203 . S
Cd308 O310 2.411 . S
Cd308 O311 2.333 . S
Cd308 O312 2.352 . S
Cd308 O316 2.277 . S
Cd308 O317 2.356 . S
C309 O314 1.209 . S
C309 O316 1.226 . S
O310 Cd306 2.273 . S
O310 Cd308 2.411 . S
O310 C313 1.320 . S
O311 Cd308 2.333 . S
O311 C313 1.214 . S
O312 Cd308 2.352 . S
O312 C315 1.258 . S
C313 O310 1.320 . S
C313 O311 1.214 . S
O314 Cd306 2.277 . S
O314 C309 1.209 . S
C315 O312 1.258 . S
C315 O317 1.282 . S
O316 Cd308 2.277 . S
O316 C309 1.226 . S
O317 Cd308 2.356 . S
O317 C315 1.282 . S
C318 O319 1.306 . S
C318 O321 1.160 . S
O319 C318 1.306 . S
O319 Cd320 2.228 . S
Cd320 O319 2.228 . S
Cd320 O324 2.273 . S
Cd320 O328 2.277 . S
O321 C318 1.160 . S
O321 Cd322 2.203 . S
Cd322 O321 2.203 . S
Cd322 O324 2.411 . S
Cd322 O325 2.333 . S
Cd322 O326 2.352 . S
Cd322 O330 2.277 . S
Cd322 O331 2.356 . S
C323 O328 1.209 . S
C323 O330 1.226 . S
O324 Cd320 2.273 . S
O324 Cd322 2.411 . S
O324 C327 1.320 . S
O325 Cd322 2.333 . S
O325 C327 1.214 . S
O326 Cd322 2.352 . S
O326 C329 1.258 . S
C327 O324 1.320 . S
C327 O325 1.214 . S
O328 Cd320 2.277 . S
O328 C323 1.209 . S
C329 O326 1.258 . S
C329 O331 1.282 . S
O330 Cd322 2.277 . S
O330 C323 1.226 . S
O331 Cd322 2.356 . S
O331 C329 1.282 . S
C332 O333 1.306 . S
C332 O335 1.160 . S
O333 C332 1.306 . S
O333 Cd334 2.228 . S
Cd334 O333 2.228 . S
Cd334 O338 2.273 . S
Cd334 O342 2.277 . S
O335 C332 1.160 . S
O335 Cd336 2.203 . S
Cd336 O335 2.203 . S
Cd336 O338 2.411 . S
Cd336 O339 2.333 . S
Cd336 O340 2.352 . S
Cd336 O344 2.277 . S
Cd336 O345 2.356 . S
C337 O342 1.209 . S
C337 O344 1.226 . S
O338 Cd334 2.273 . S
O338 Cd336 2.411 . S
O338 C341 1.320 . S
O339 Cd336 2.333 . S
O339 C341 1.214 . S
O340 Cd336 2.352 . S
O340 C343 1.258 . S
C341 O338 1.320 . S
C341 O339 1.214 . S
O342 Cd334 2.277 . S
O342 C337 1.209 . S
C343 O340 1.258 . S
C343 O345 1.282 . S
O344 Cd336 2.277 . S
O344 C337 1.226 . S
O345 Cd336 2.356 . S
O345 C343 1.282 . S
C346 O347 1.306 . S
C346 O349 1.160 . S
O347 C346 1.306 . S
O347 Cd348 2.228 . S
Cd348 O347 2.228 . S
Cd348 O352 2.273 . S
Cd348 O356 2.277 . S
O349 C346 1.160 . S
O349 Cd350 2.203 . S
Cd350 O349 2.203 . S
Cd350 O352 2.411 . S
Cd350 O353 2.333 . S
Cd350 O354 2.352 . S
Cd350 O358 2.277 . S
Cd350 O359 2.356 . S
C351 O356 1.209 . S
C351 O358 1.226 . S
O352 Cd348 2.273 . S
O352 Cd350 2.411 . S
O352 C355 1.320 . S
O353 Cd350 2.333 . S
O353 C355 1.214 . S
O354 Cd350 2.352 . S
O354 C357 1.258 . S
C355 O352 1.320 . S
C355 O353 1.214 . S
O356 Cd348 2.277 . S
O356 C351 1.209 . S
C357 O354 1.258 . S
C357 O359 1.282 . S
O358 Cd350 2.277 . S
O358 C351 1.226 . S
O359 Cd350 2.356 . S
O359 C357 1.282 . S
H360 C368 0.929 . S
H361 C370 0.930 . S
H362 C372 0.930 . S
H363 C375 0.929 . S
H364 C378 0.930 . S
H365 C380 0.960 . S
H366 C380 0.960 . S
H367 C380 0.960 . S
C368 H360 0.929 . S
C368 C369 1.377 . S
C368 C370 1.384 . S
C369 C368 1.377 . S
C369 C375 1.390 . S
C370 H361 0.930 . S
C370 C368 1.384 . S
C370 C371 1.372 . S
C371 C370 1.372 . S
C371 C372 1.400 . S
C371 C376 1.490 . S
C372 H362 0.930 . S
C372 C371 1.400 . S
C372 C375 1.386 . S
H373 C389 0.930 . S
H374 C390 0.931 . S
C375 H363 0.929 . S
C375 C369 1.390 . S
C375 C372 1.386 . S
C376 C371 1.490 . S
C376 C378 1.395 . S
C376 C379 1.403 . S
H377 C383 0.930 . S
C378 H364 0.930 . S
C378 C376 1.395 . S
C378 C381 1.403 . S
C379 C376 1.403 . S
C379 C380 1.524 . S
C379 C383 1.400 . S
C380 H365 0.960 . S
C380 H366 0.960 . S
C380 H367 0.960 . S
C380 C379 1.524 . S
C381 C378 1.403 . S
C381 C382 1.392 . S
C381 C385 1.495 . S
C382 C381 1.392 . S
C382 C383 1.385 . S
C382 C384 1.478 . S
C383 H377 0.930 . S
C383 C379 1.400 . S
C383 C382 1.385 . S
C384 C382 1.478 . S
C384 C386 1.381 . S
C384 C390 1.383 . S
C385 C381 1.495 . S
C385 H391 0.959 . S
C385 H392 0.961 . S
C385 H393 0.960 . S
C386 C384 1.381 . S
C386 C387 1.394 . S
C386 H394 0.930 . S
C387 C386 1.394 . S
C387 C388 1.383 . S
C387 H395 0.929 . S
C388 C387 1.383 . S
C388 C389 1.377 . S
C389 H373 0.930 . S
C389 C388 1.377 . S
C389 C390 1.379 . S
C390 H374 0.931 . S
C390 C384 1.383 . S
C390 C389 1.379 . S
H391 C385 0.959 . S
H392 C385 0.961 . S
H393 C385 0.960 . S
H394 C386 0.930 . S
H395 C387 0.929 . S
H396 C404 0.929 . S
H397 C406 0.930 . S
H398 C408 0.930 . S
H399 C411 0.929 . S
H400 C414 0.930 . S
H401 C416 0.960 . S
H402 C416 0.960 . S
H403 C416 0.960 . S
C404 H396 0.929 . S
C404 C405 1.377 . S
C404 C406 1.384 . S
C405 C404 1.377 . S
C405 C411 1.390 . S
C406 H397 0.930 . S
C406 C404 1.384 . S
C406 C407 1.372 . S
C407 C406 1.372 . S
C407 C408 1.400 . S
C407 C412 1.490 . S
C408 H398 0.930 . S
C408 C407 1.400 . S
C408 C411 1.386 . S
H409 C425 0.930 . S
H410 C426 0.931 . S
C411 H399 0.929 . S
C411 C405 1.390 . S
C411 C408 1.386 . S
C412 C407 1.490 . S
C412 C414 1.395 . S
C412 C415 1.403 . S
H413 C419 0.930 . S
C414 H400 0.930 . S
C414 C412 1.395 . S
C414 C417 1.403 . S
C415 C412 1.403 . S
C415 C416 1.524 . S
C415 C419 1.400 . S
C416 H401 0.960 . S
C416 H402 0.960 . S
C416 H403 0.960 . S
C416 C415 1.524 . S
C417 C414 1.403 . S
C417 C418 1.392 . S
C417 C421 1.495 . S
C418 C417 1.392 . S
C418 C419 1.385 . S
C418 C420 1.478 . S
C419 H413 0.930 . S
C419 C415 1.400 . S
C419 C418 1.385 . S
C420 C418 1.478 . S
C420 C422 1.381 . S
C420 C426 1.383 . S
C421 C417 1.495 . S
C421 H427 0.959 . S
C421 H428 0.961 . S
C421 H429 0.960 . S
C422 C420 1.381 . S
C422 C423 1.394 . S
C422 H430 0.930 . S
C423 C422 1.394 . S
C423 C424 1.383 . S
C423 H431 0.929 . S
C424 C423 1.383 . S
C424 C425 1.377 . S
C425 H409 0.930 . S
C425 C424 1.377 . S
C425 C426 1.379 . S
C426 H410 0.931 . S
C426 C420 1.383 . S
C426 C425 1.379 . S
H427 C421 0.959 . S
H428 C421 0.961 . S
H429 C421 0.960 . S
H430 C422 0.930 . S
H431 C423 0.929 . S
H432 C440 0.929 . S
H433 C442 0.930 . S
H434 C444 0.930 . S
H435 C447 0.929 . S
H436 C450 0.930 . S
H437 C452 0.960 . S
H438 C452 0.960 . S
H439 C452 0.960 . S
C440 H432 0.929 . S
C440 C441 1.377 . S
C440 C442 1.384 . S
C441 C440 1.377 . S
C441 C447 1.390 . S
C442 H433 0.930 . S
C442 C440 1.384 . S
C442 C443 1.372 . S
C443 C442 1.372 . S
C443 C444 1.400 . S
C443 C448 1.490 . S
C444 H434 0.930 . S
C444 C443 1.400 . S
C444 C447 1.386 . S
H445 C461 0.930 . S
H446 C462 0.931 . S
C447 H435 0.929 . S
C447 C441 1.390 . S
C447 C444 1.386 . S
C448 C443 1.490 . S
C448 C450 1.395 . S
C448 C451 1.403 . S
H449 C455 0.930 . S
C450 H436 0.930 . S
C450 C448 1.395 . S
C450 C453 1.403 . S
C451 C448 1.403 . S
C451 C452 1.524 . S
C451 C455 1.400 . S
C452 H437 0.960 . S
C452 H438 0.960 . S
C452 H439 0.960 . S
C452 C451 1.524 . S
C453 C450 1.403 . S
C453 C454 1.392 . S
C453 C457 1.495 . S
C454 C453 1.392 . S
C454 C455 1.385 . S
C454 C456 1.478 . S
C455 H449 0.930 . S
C455 C451 1.400 . S
C455 C454 1.385 . S
C456 C454 1.478 . S
C456 C458 1.381 . S
C456 C462 1.383 . S
C457 C453 1.495 . S
C457 H463 0.959 . S
C457 H464 0.961 . S
C457 H465 0.960 . S
C458 C456 1.381 . S
C458 C459 1.394 . S
C458 H466 0.930 . S
C459 C458 1.394 . S
C459 C460 1.383 . S
C459 H467 0.929 . S
C460 C459 1.383 . S
C460 C461 1.377 . S
C461 H445 0.930 . S
C461 C460 1.377 . S
C461 C462 1.379 . S
C462 H446 0.931 . S
C462 C456 1.383 . S
C462 C461 1.379 . S
H463 C457 0.959 . S
H464 C457 0.961 . S
H465 C457 0.960 . S
H466 C458 0.930 . S
H467 C459 0.929 . S
H468 C476 0.929 . S
H469 C478 0.930 . S
H470 C480 0.930 . S
H471 C483 0.929 . S
H472 C486 0.930 . S
H473 C488 0.960 . S
H474 C488 0.960 . S
H475 C488 0.960 . S
C476 H468 0.929 . S
C476 C477 1.377 . S
C476 C478 1.384 . S
C477 C476 1.377 . S
C477 C483 1.390 . S
C478 H469 0.930 . S
C478 C476 1.384 . S
C478 C479 1.372 . S
C479 C478 1.372 . S
C479 C480 1.400 . S
C479 C484 1.490 . S
C480 H470 0.930 . S
C480 C479 1.400 . S
C480 C483 1.386 . S
H481 C497 0.930 . S
H482 C498 0.931 . S
C483 H471 0.929 . S
C483 C477 1.390 . S
C483 C480 1.386 . S
C484 C479 1.490 . S
C484 C486 1.395 . S
C484 C487 1.403 . S
H485 C491 0.930 . S
C486 H472 0.930 . S
C486 C484 1.395 . S
C486 C489 1.403 . S
C487 C484 1.403 . S
C487 C488 1.524 . S
C487 C491 1.400 . S
C488 H473 0.960 . S
C488 H474 0.960 . S
C488 H475 0.960 . S
C488 C487 1.524 . S
C489 C486 1.403 . S
C489 C490 1.392 . S
C489 C493 1.495 . S
C490 C489 1.392 . S
C490 C491 1.385 . S
C490 C492 1.478 . S
C491 H485 0.930 . S
C491 C487 1.400 . S
C491 C490 1.385 . S
C492 C490 1.478 . S
C492 C494 1.381 . S
C492 C498 1.383 . S
C493 C489 1.495 . S
C493 H499 0.959 . S
C493 H500 0.961 . S
C493 H501 0.960 . S
C494 C492 1.381 . S
C494 C495 1.394 . S
C494 H502 0.930 . S
C495 C494 1.394 . S
C495 C496 1.383 . S
C495 H503 0.929 . S
C496 C495 1.383 . S
C496 C497 1.377 . S
C497 H481 0.930 . S
C497 C496 1.377 . S
C497 C498 1.379 . S
C498 H482 0.931 . S
C498 C492 1.383 . S
C498 C497 1.379 . S
H499 C493 0.959 . S
H500 C493 0.961 . S
H501 C493 0.960 . S
H502 C494 0.930 . S
H503 C495 0.929 . S
H504 C512 0.929 . S
H505 C514 0.930 . S
H506 C516 0.930 . S
H507 C519 0.929 . S
H508 C522 0.930 . S
H509 C524 0.960 . S
H510 C524 0.960 . S
H511 C524 0.960 . S
C512 H504 0.929 . S
C512 C513 1.377 . S
C512 C514 1.384 . S
C513 C512 1.377 . S
C513 C519 1.390 . S
C514 H505 0.930 . S
C514 C512 1.384 . S
C514 C515 1.372 . S
C515 C514 1.372 . S
C515 C516 1.400 . S
C515 C520 1.490 . S
C516 H506 0.930 . S
C516 C515 1.400 . S
C516 C519 1.386 . S
H517 C533 0.930 . S
H518 C534 0.931 . S
C519 H507 0.929 . S
C519 C513 1.390 . S
C519 C516 1.386 . S
C520 C515 1.490 . S
C520 C522 1.395 . S
C520 C523 1.403 . S
H521 C527 0.930 . S
C522 H508 0.930 . S
C522 C520 1.395 . S
C522 C525 1.403 . S
C523 C520 1.403 . S
C523 C524 1.524 . S
C523 C527 1.400 . S
C524 H509 0.960 . S
C524 H510 0.960 . S
C524 H511 0.960 . S
C524 C523 1.524 . S
C525 C522 1.403 . S
C525 C526 1.392 . S
C525 C529 1.495 . S
C526 C525 1.392 . S
C526 C527 1.385 . S
C526 C528 1.478 . S
C527 H521 0.930 . S
C527 C523 1.400 . S
C527 C526 1.385 . S
C528 C526 1.478 . S
C528 C530 1.381 . S
C528 C534 1.383 . S
C529 C525 1.495 . S
C529 H535 0.959 . S
C529 H536 0.961 . S
C529 H537 0.960 . S
C530 C528 1.381 . S
C530 C531 1.394 . S
C530 H538 0.930 . S
C531 C530 1.394 . S
C531 C532 1.383 . S
C531 H539 0.929 . S
C532 C531 1.383 . S
C532 C533 1.377 . S
C533 H517 0.930 . S
C533 C532 1.377 . S
C533 C534 1.379 . S
C534 H518 0.931 . S
C534 C528 1.383 . S
C534 C533 1.379 . S
H535 C529 0.959 . S
H536 C529 0.961 . S
H537 C529 0.960 . S
H538 C530 0.930 . S
H539 C531 0.929 . S
H540 C548 0.929 . S
H541 C550 0.930 . S
H542 C552 0.930 . S
H543 C555 0.929 . S
H544 C558 0.930 . S
H545 C560 0.960 . S
H546 C560 0.960 . S
H547 C560 0.960 . S
C548 H540 0.929 . S
C548 C549 1.377 . S
C548 C550 1.384 . S
C549 C548 1.377 . S
C549 C555 1.390 . S
C550 H541 0.930 . S
C550 C548 1.384 . S
C550 C551 1.372 . S
C551 C550 1.372 . S
C551 C552 1.400 . S
C551 C556 1.490 . S
C552 H542 0.930 . S
C552 C551 1.400 . S
C552 C555 1.386 . S
H553 C569 0.930 . S
H554 C570 0.931 . S
C555 H543 0.929 . S
C555 C549 1.390 . S
C555 C552 1.386 . S
C556 C551 1.490 . S
C556 C558 1.395 . S
C556 C559 1.403 . S
H557 C563 0.930 . S
C558 H544 0.930 . S
C558 C556 1.395 . S
C558 C561 1.403 . S
C559 C556 1.403 . S
C559 C560 1.524 . S
C559 C563 1.400 . S
C560 H545 0.960 . S
C560 H546 0.960 . S
C560 H547 0.960 . S
C560 C559 1.524 . S
C561 C558 1.403 . S
C561 C562 1.392 . S
C561 C565 1.495 . S
C562 C561 1.392 . S
C562 C563 1.385 . S
C562 C564 1.478 . S
C563 H557 0.930 . S
C563 C559 1.400 . S
C563 C562 1.385 . S
C564 C562 1.478 . S
C564 C566 1.381 . S
C564 C570 1.383 . S
C565 C561 1.495 . S
C565 H571 0.959 . S
C565 H572 0.961 . S
C565 H573 0.960 . S
C566 C564 1.381 . S
C566 C567 1.394 . S
C566 H574 0.930 . S
C567 C566 1.394 . S
C567 C568 1.383 . S
C567 H575 0.929 . S
C568 C567 1.383 . S
C568 C569 1.377 . S
C569 H553 0.930 . S
C569 C568 1.377 . S
C569 C570 1.379 . S
C570 H554 0.931 . S
C570 C564 1.383 . S
C570 C569 1.379 . S
H571 C565 0.959 . S
H572 C565 0.961 . S
H573 C565 0.960 . S
H574 C566 0.930 . S
H575 C567 0.929 . S
H576 C584 0.929 . S
H577 C586 0.930 . S
H578 C588 0.930 . S
H579 C591 0.929 . S
H580 C594 0.930 . S
H581 C596 0.960 . S
H582 C596 0.960 . S
H583 C596 0.960 . S
C584 H576 0.929 . S
C584 C585 1.377 . S
C584 C586 1.384 . S
C585 C584 1.377 . S
C585 C591 1.390 . S
C586 H577 0.930 . S
C586 C584 1.384 . S
C586 C587 1.372 . S
C587 C586 1.372 . S
C587 C588 1.400 . S
C587 C592 1.490 . S
C588 H578 0.930 . S
C588 C587 1.400 . S
C588 C591 1.386 . S
H589 C605 0.930 . S
H590 C606 0.931 . S
C591 H579 0.929 . S
C591 C585 1.390 . S
C591 C588 1.386 . S
C592 C587 1.490 . S
C592 C594 1.395 . S
C592 C595 1.403 . S
H593 C599 0.930 . S
C594 H580 0.930 . S
C594 C592 1.395 . S
C594 C597 1.403 . S
C595 C592 1.403 . S
C595 C596 1.524 . S
C595 C599 1.400 . S
C596 H581 0.960 . S
C596 H582 0.960 . S
C596 H583 0.960 . S
C596 C595 1.524 . S
C597 C594 1.403 . S
C597 C598 1.392 . S
C597 C601 1.495 . S
C598 C597 1.392 . S
C598 C599 1.385 . S
C598 C600 1.478 . S
C599 H593 0.930 . S
C599 C595 1.400 . S
C599 C598 1.385 . S
C600 C598 1.478 . S
C600 C602 1.381 . S
C600 C606 1.383 . S
C601 C597 1.495 . S
C601 H607 0.959 . S
C601 H608 0.961 . S
C601 H609 0.960 . S
C602 C600 1.381 . S
C602 C603 1.394 . S
C602 H610 0.930 . S
C603 C602 1.394 . S
C603 C604 1.383 . S
C603 H611 0.929 . S
C604 C603 1.383 . S
C604 C605 1.377 . S
C605 H589 0.930 . S
C605 C604 1.377 . S
C605 C606 1.379 . S
C606 H590 0.931 . S
C606 C600 1.383 . S
C606 C605 1.379 . S
H607 C601 0.959 . S
H608 C601 0.961 . S
H609 C601 0.960 . S
H610 C602 0.930 . S
H611 C603 0.929 . S
H612 C620 0.929 . S
H613 C622 0.930 . S
H614 C624 0.930 . S
H615 C627 0.929 . S
H616 C630 0.930 . S
H617 C632 0.960 . S
H618 C632 0.960 . S
H619 C632 0.960 . S
C620 H612 0.929 . S
C620 C621 1.377 . S
C620 C622 1.384 . S
C621 C620 1.377 . S
C621 C627 1.390 . S
C622 H613 0.930 . S
C622 C620 1.384 . S
C622 C623 1.372 . S
C623 C622 1.372 . S
C623 C624 1.400 . S
C623 C628 1.490 . S
C624 H614 0.930 . S
C624 C623 1.400 . S
C624 C627 1.386 . S
H625 C641 0.930 . S
H626 C642 0.931 . S
C627 H615 0.929 . S
C627 C621 1.390 . S
C627 C624 1.386 . S
C628 C623 1.490 . S
C628 C630 1.395 . S
C628 C631 1.403 . S
H629 C635 0.930 . S
C630 H616 0.930 . S
C630 C628 1.395 . S
C630 C633 1.403 . S
C631 C628 1.403 . S
C631 C632 1.524 . S
C631 C635 1.400 . S
C632 H617 0.960 . S
C632 H618 0.960 . S
C632 H619 0.960 . S
C632 C631 1.524 . S
C633 C630 1.403 . S
C633 C634 1.392 . S
C633 C637 1.495 . S
C634 C633 1.392 . S
C634 C635 1.385 . S
C634 C636 1.478 . S
C635 H629 0.930 . S
C635 C631 1.400 . S
C635 C634 1.385 . S
C636 C634 1.478 . S
C636 C638 1.381 . S
C636 C642 1.383 . S
C637 C633 1.495 . S
C637 H643 0.959 . S
C637 H644 0.961 . S
C637 H645 0.960 . S
C638 C636 1.381 . S
C638 C639 1.394 . S
C638 H646 0.930 . S
C639 C638 1.394 . S
C639 C640 1.383 . S
C639 H647 0.929 . S
C640 C639 1.383 . S
C640 C641 1.377 . S
C641 H625 0.930 . S
C641 C640 1.377 . S
C641 C642 1.379 . S
C642 H626 0.931 . S
C642 C636 1.383 . S
C642 C641 1.379 . S
H643 C637 0.959 . S
H644 C637 0.961 . S
H645 C637 0.960 . S
H646 C638 0.930 . S
H647 C639 0.929 . S
H648 C656 0.929 . S
H649 C658 0.930 . S
H650 C660 0.930 . S
H651 C663 0.929 . S
H652 C666 0.930 . S
H653 C668 0.960 . S
H654 C668 0.960 . S
H655 C668 0.960 . S
C656 H648 0.929 . S
C656 C657 1.377 . S
C656 C658 1.384 . S
C657 C656 1.377 . S
C657 C663 1.390 . S
C658 H649 0.930 . S
C658 C656 1.384 . S
C658 C659 1.372 . S
C659 C658 1.372 . S
C659 C660 1.400 . S
C659 C664 1.490 . S
C660 H650 0.930 . S
C660 C659 1.400 . S
C660 C663 1.386 . S
H661 C677 0.930 . S
H662 C678 0.931 . S
C663 H651 0.929 . S
C663 C657 1.390 . S
C663 C660 1.386 . S
C664 C659 1.490 . S
C664 C666 1.395 . S
C664 C667 1.403 . S
H665 C671 0.930 . S
C666 H652 0.930 . S
C666 C664 1.395 . S
C666 C669 1.403 . S
C667 C664 1.403 . S
C667 C668 1.524 . S
C667 C671 1.400 . S
C668 H653 0.960 . S
C668 H654 0.960 . S
C668 H655 0.960 . S
C668 C667 1.524 . S
C669 C666 1.403 . S
C669 C670 1.392 . S
C669 C673 1.495 . S
C670 C669 1.392 . S
C670 C671 1.385 . S
C670 C672 1.478 . S
C671 H665 0.930 . S
C671 C667 1.400 . S
C671 C670 1.385 . S
C672 C670 1.478 . S
C672 C674 1.381 . S
C672 C678 1.383 . S
C673 C669 1.495 . S
C673 H679 0.959 . S
C673 H680 0.961 . S
C673 H681 0.960 . S
C674 C672 1.381 . S
C674 C675 1.394 . S
C674 H682 0.930 . S
C675 C674 1.394 . S
C675 C676 1.383 . S
C675 H683 0.929 . S
C676 C675 1.383 . S
C676 C677 1.377 . S
C677 H661 0.930 . S
C677 C676 1.377 . S
C677 C678 1.379 . S
C678 H662 0.931 . S
C678 C672 1.383 . S
C678 C677 1.379 . S
H679 C673 0.959 . S
H680 C673 0.961 . S
H681 C673 0.960 . S
H682 C674 0.930 . S
H683 C675 0.929 . S
H684 C692 0.929 . S
H685 C694 0.930 . S
H686 C696 0.930 . S
H687 C699 0.929 . S
H688 C702 0.930 . S
H689 C704 0.960 . S
H690 C704 0.960 . S
H691 C704 0.960 . S
C692 H684 0.929 . S
C692 C693 1.377 . S
C692 C694 1.384 . S
C693 C692 1.377 . S
C693 C699 1.390 . S
C694 H685 0.930 . S
C694 C692 1.384 . S
C694 C695 1.372 . S
C695 C694 1.372 . S
C695 C696 1.400 . S
C695 C700 1.490 . S
C696 H686 0.930 . S
C696 C695 1.400 . S
C696 C699 1.386 . S
H697 C713 0.930 . S
H698 C714 0.931 . S
C699 H687 0.929 . S
C699 C693 1.390 . S
C699 C696 1.386 . S
C700 C695 1.490 . S
C700 C702 1.395 . S
C700 C703 1.403 . S
H701 C707 0.930 . S
C702 H688 0.930 . S
C702 C700 1.395 . S
C702 C705 1.403 . S
C703 C700 1.403 . S
C703 C704 1.524 . S
C703 C707 1.400 . S
C704 H689 0.960 . S
C704 H690 0.960 . S
C704 H691 0.960 . S
C704 C703 1.524 . S
C705 C702 1.403 . S
C705 C706 1.392 . S
C705 C709 1.495 . S
C706 C705 1.392 . S
C706 C707 1.385 . S
C706 C708 1.478 . S
C707 H701 0.930 . S
C707 C703 1.400 . S
C707 C706 1.385 . S
C708 C706 1.478 . S
C708 C710 1.381 . S
C708 C714 1.383 . S
C709 C705 1.495 . S
C709 H715 0.959 1_554 S
C709 H716 0.961 . S
C709 H717 0.960 . S
C710 C708 1.381 . S
C710 C711 1.394 . S
C710 H718 0.930 . S
C711 C710 1.394 . S
C711 C712 1.383 . S
C711 H719 0.929 . S
C712 C711 1.383 . S
C712 C713 1.377 . S
C713 H697 0.930 . S
C713 C712 1.377 . S
C713 C714 1.379 . S
C714 H698 0.931 . S
C714 C708 1.383 . S
C714 C713 1.379 . S
H715 C709 0.959 1_556 S
H716 C709 0.961 . S
H717 C709 0.960 . S
H718 C710 0.930 . S
H719 C711 0.929 . S
H720 C728 0.929 . S
H721 C730 0.930 . S
H722 C732 0.930 . S
H723 C735 0.929 . S
H724 C738 0.930 . S
H725 C740 0.960 . S
H726 C740 0.960 . S
H727 C740 0.960 . S
C728 H720 0.929 . S
C728 C729 1.377 . S
C728 C730 1.384 . S
C729 C728 1.377 . S
C729 C735 1.390 . S
C730 H721 0.930 . S
C730 C728 1.384 . S
C730 C731 1.372 . S
C731 C730 1.372 . S
C731 C732 1.400 . S
C731 C736 1.490 . S
C732 H722 0.930 . S
C732 C731 1.400 . S
C732 C735 1.386 . S
H733 C749 0.930 . S
H734 C750 0.931 . S
C735 H723 0.929 . S
C735 C729 1.390 . S
C735 C732 1.386 . S
C736 C731 1.490 . S
C736 C738 1.395 . S
C736 C739 1.403 . S
H737 C743 0.930 . S
C738 H724 0.930 . S
C738 C736 1.395 . S
C738 C741 1.403 . S
C739 C736 1.403 . S
C739 C740 1.524 . S
C739 C743 1.400 . S
C740 H725 0.960 . S
C740 H726 0.960 . S
C740 H727 0.960 . S
C740 C739 1.524 . S
C741 C738 1.403 . S
C741 C742 1.392 . S
C741 C745 1.495 . S
C742 C741 1.392 . S
C742 C743 1.385 . S
C742 C744 1.478 . S
C743 H737 0.930 . S
C743 C739 1.400 . S
C743 C742 1.385 . S
C744 C742 1.478 . S
C744 C746 1.381 . S
C744 C750 1.383 . S
C745 C741 1.495 . S
C745 H751 0.959 . S
C745 H752 0.961 . S
C745 H753 0.960 . S
C746 C744 1.381 . S
C746 C747 1.394 . S
C746 H754 0.930 . S
C747 C746 1.394 . S
C747 C748 1.383 . S
C747 H755 0.929 . S
C748 C747 1.383 . S
C748 C749 1.377 . S
C749 H733 0.930 . S
C749 C748 1.377 . S
C749 C750 1.379 . S
C750 H734 0.931 . S
C750 C744 1.383 . S
C750 C749 1.379 . S
H751 C745 0.959 . S
H752 C745 0.961 . S
H753 C745 0.960 . S
H754 C746 0.930 . S
H755 C747 0.929 . S
H756 C764 0.929 . S
H757 C766 0.930 . S
H758 C768 0.930 . S
H759 C771 0.929 . S
H760 C774 0.930 . S
H761 C776 0.960 . S
H762 C776 0.960 . S
H763 C776 0.960 . S
C764 H756 0.929 . S
C764 C765 1.377 . S
C764 C766 1.384 . S
C765 C764 1.377 . S
C765 C771 1.390 . S
C766 H757 0.930 . S
C766 C764 1.384 . S
C766 C767 1.372 . S
C767 C766 1.372 . S
C767 C768 1.400 . S
C767 C772 1.490 . S
C768 H758 0.930 . S
C768 C767 1.400 . S
C768 C771 1.386 . S
H769 C785 0.930 . S
H770 C786 0.931 . S
C771 H759 0.929 . S
C771 C765 1.390 . S
C771 C768 1.386 . S
C772 C767 1.490 . S
C772 C774 1.395 . S
C772 C775 1.403 . S
H773 C779 0.930 . S
C774 H760 0.930 . S
C774 C772 1.395 . S
C774 C777 1.403 . S
C775 C772 1.403 . S
C775 C776 1.524 . S
C775 C779 1.400 . S
C776 H761 0.960 . S
C776 H762 0.960 . S
C776 H763 0.960 . S
C776 C775 1.524 . S
C777 C774 1.403 . S
C777 C778 1.392 . S
C777 C781 1.495 . S
C778 C777 1.392 . S
C778 C779 1.385 . S
C778 C780 1.478 . S
C779 H773 0.930 . S
C779 C775 1.400 . S
C779 C778 1.385 . S
C780 C778 1.478 . S
C780 C782 1.381 . S
C780 C786 1.383 . S
C781 C777 1.495 . S
C781 H787 0.959 . S
C781 H788 0.961 . S
C781 H789 0.960 . S
C782 C780 1.381 . S
C782 C783 1.394 . S
C782 H790 0.930 . S
C783 C782 1.394 . S
C783 C784 1.383 . S
C783 H791 0.929 . S
C784 C783 1.383 . S
C784 C785 1.377 . S
C785 H769 0.930 . S
C785 C784 1.377 . S
C785 C786 1.379 . S
C786 H770 0.931 . S
C786 C780 1.383 . S
C786 C785 1.379 . S
H787 C781 0.959 . S
H788 C781 0.961 . S
H789 C781 0.960 . S
H790 C782 0.930 . S
H791 C783 0.929 . S
H792 C800 0.929 . S
H793 C802 0.930 . S
H794 C804 0.930 . S
H795 C807 0.929 . S
H796 C810 0.930 . S
H797 C812 0.960 . S
H798 C812 0.960 . S
H799 C812 0.960 . S
C800 H792 0.929 . S
C800 C801 1.377 . S
C800 C802 1.384 . S
C801 C800 1.377 . S
C801 C807 1.390 . S
C802 H793 0.930 . S
C802 C800 1.384 . S
C802 C803 1.372 . S
C803 C802 1.372 . S
C803 C804 1.400 . S
C803 C808 1.490 . S
C804 H794 0.930 . S
C804 C803 1.400 . S
C804 C807 1.386 . S
H805 C821 0.930 . S
H806 C822 0.931 . S
C807 H795 0.929 . S
C807 C801 1.390 . S
C807 C804 1.386 . S
C808 C803 1.490 . S
C808 C810 1.395 . S
C808 C811 1.403 . S
H809 C815 0.930 . S
C810 H796 0.930 . S
C810 C808 1.395 . S
C810 C813 1.403 . S
C811 C808 1.403 . S
C811 C812 1.524 . S
C811 C815 1.400 . S
C812 H797 0.960 . S
C812 H798 0.960 . S
C812 H799 0.960 . S
C812 C811 1.524 . S
C813 C810 1.403 . S
C813 C814 1.392 . S
C813 C817 1.495 . S
C814 C813 1.392 . S
C814 C815 1.385 . S
C814 C816 1.478 . S
C815 H809 0.930 . S
C815 C811 1.400 . S
C815 C814 1.385 . S
C816 C814 1.478 . S
C816 C818 1.381 . S
C816 C822 1.383 . S
C817 C813 1.495 . S
C817 H823 0.959 . S
C817 H824 0.961 . S
C817 H825 0.960 . S
C818 C816 1.381 . S
C818 C819 1.394 . S
C818 H826 0.930 . S
C819 C818 1.394 . S
C819 C820 1.383 . S
C819 H827 0.929 . S
C820 C819 1.383 . S
C820 C821 1.377 . S
C821 H805 0.930 . S
C821 C820 1.377 . S
C821 C822 1.379 . S
C822 H806 0.931 . S
C822 C816 1.383 . S
C822 C821 1.379 . S
H823 C817 0.959 . S
H824 C817 0.961 . S
H825 C817 0.960 . S
H826 C818 0.930 . S
H827 C819 0.929 . S
H828 C836 0.929 . S
H829 C838 0.930 . S
H830 C840 0.930 . S
H831 C843 0.929 . S
H832 C846 0.930 . S
H833 C848 0.960 . S
H834 C848 0.960 . S
H835 C848 0.960 . S
C836 H828 0.929 . S
C836 C837 1.377 . S
C836 C838 1.384 . S
C837 C836 1.377 . S
C837 C843 1.390 . S
C838 H829 0.930 . S
C838 C836 1.384 . S
C838 C839 1.372 . S
C839 C838 1.372 . S
C839 C840 1.400 . S
C839 C844 1.490 . S
C840 H830 0.930 . S
C840 C839 1.400 . S
C840 C843 1.386 . S
H841 C857 0.930 . S
H842 C858 0.931 . S
C843 H831 0.929 . S
C843 C837 1.390 . S
C843 C840 1.386 . S
C844 C839 1.490 . S
C844 C846 1.395 . S
C844 C847 1.403 . S
H845 C851 0.930 . S
C846 H832 0.930 . S
C846 C844 1.395 . S
C846 C849 1.403 . S
C847 C844 1.403 . S
C847 C848 1.524 . S
C847 C851 1.400 . S
C848 H833 0.960 . S
C848 H834 0.960 . S
C848 H835 0.960 . S
C848 C847 1.524 . S
C849 C846 1.403 . S
C849 C850 1.392 . S
C849 C853 1.495 . S
C850 C849 1.392 . S
C850 C851 1.385 . S
C850 C852 1.478 . S
C851 H845 0.930 . S
C851 C847 1.400 . S
C851 C850 1.385 . S
C852 C850 1.478 . S
C852 C854 1.381 . S
C852 C858 1.383 . S
C853 C849 1.495 . S
C853 H859 0.959 . S
C853 H860 0.961 . S
C853 H861 0.960 . S
C854 C852 1.381 . S
C854 C855 1.394 . S
C854 H862 0.930 . S
C855 C854 1.394 . S
C855 C856 1.383 . S
C855 H863 0.929 . S
C856 C855 1.383 . S
C856 C857 1.377 . S
C857 H841 0.930 . S
C857 C856 1.377 . S
C857 C858 1.379 . S
C858 H842 0.931 . S
C858 C852 1.383 . S
C858 C857 1.379 . S
H859 C853 0.959 . S
H860 C853 0.961 . S
H861 C853 0.960 . S
H862 C854 0.930 . S
H863 C855 0.929 . S
H864 C872 0.929 . S
H865 C874 0.930 . S
H866 C876 0.930 . S
H867 C879 0.929 . S
H868 C882 0.930 . S
H869 C884 0.960 . S
H870 C884 0.960 . S
H871 C884 0.960 . S
C872 H864 0.929 . S
C872 C873 1.377 . S
C872 C874 1.384 . S
C873 C872 1.377 . S
C873 C879 1.390 . S
C874 H865 0.930 . S
C874 C872 1.384 . S
C874 C875 1.372 . S
C875 C874 1.372 . S
C875 C876 1.400 . S
C875 C880 1.490 . S
C876 H866 0.930 . S
C876 C875 1.400 . S
C876 C879 1.386 . S
H877 C893 0.930 . S
H878 C894 0.931 . S
C879 H867 0.929 . S
C879 C873 1.390 . S
C879 C876 1.386 . S
C880 C875 1.490 . S
C880 C882 1.395 . S
C880 C883 1.403 . S
H881 C887 0.930 . S
C882 H868 0.930 . S
C882 C880 1.395 . S
C882 C885 1.403 . S
C883 C880 1.403 . S
C883 C884 1.524 . S
C883 C887 1.400 . S
C884 H869 0.960 . S
C884 H870 0.960 . S
C884 H871 0.960 . S
C884 C883 1.524 . S
C885 C882 1.403 . S
C885 C886 1.392 . S
C885 C889 1.495 . S
C886 C885 1.392 . S
C886 C887 1.385 . S
C886 C888 1.478 . S
C887 H881 0.930 . S
C887 C883 1.400 . S
C887 C886 1.385 . S
C888 C886 1.478 . S
C888 C890 1.381 . S
C888 C894 1.383 . S
C889 C885 1.495 . S
C889 H895 0.959 . S
C889 H896 0.961 . S
C889 H897 0.960 . S
C890 C888 1.381 . S
C890 C891 1.394 . S
C890 H898 0.930 . S
C891 C890 1.394 . S
C891 C892 1.383 . S
C891 H899 0.929 . S
C892 C891 1.383 . S
C892 C893 1.377 . S
C893 H877 0.930 . S
C893 C892 1.377 . S
C893 C894 1.379 . S
C894 H878 0.931 . S
C894 C888 1.383 . S
C894 C893 1.379 . S
H895 C889 0.959 . S
H896 C889 0.961 . S
H897 C889 0.960 . S
H898 C890 0.930 . S
H899 C891 0.929 . S
H900 C908 0.929 . S
H901 C910 0.930 . S
H902 C912 0.930 . S
H903 C915 0.929 . S
H904 C918 0.930 . S
H905 C920 0.960 . S
H906 C920 0.960 . S
H907 C920 0.960 . S
C908 H900 0.929 . S
C908 C909 1.377 . S
C908 C910 1.384 . S
C909 C908 1.377 . S
C909 C915 1.390 . S
C910 H901 0.930 . S
C910 C908 1.384 . S
C910 C911 1.372 . S
C911 C910 1.372 . S
C911 C912 1.400 . S
C911 C916 1.490 . S
C912 H902 0.930 . S
C912 C911 1.400 . S
C912 C915 1.386 . S
H913 C929 0.930 . S
H914 C930 0.931 . S
C915 H903 0.929 . S
C915 C909 1.390 . S
C915 C912 1.386 . S
C916 C911 1.490 . S
C916 C918 1.395 . S
C916 C919 1.403 . S
H917 C923 0.930 . S
C918 H904 0.930 . S
C918 C916 1.395 . S
C918 C921 1.403 . S
C919 C916 1.403 . S
C919 C920 1.524 . S
C919 C923 1.400 . S
C920 H905 0.960 . S
C920 H906 0.960 . S
C920 H907 0.960 . S
C920 C919 1.524 . S
C921 C918 1.403 . S
C921 C922 1.392 . S
C921 C925 1.495 . S
C922 C921 1.392 . S
C922 C923 1.385 . S
C922 C924 1.478 1_556 S
C923 H917 0.930 . S
C923 C919 1.400 . S
C923 C922 1.385 . S
C924 C922 1.478 1_554 S
C924 C926 1.381 . S
C924 C930 1.383 . S
C925 C921 1.495 . S
C925 H931 0.959 . S
C925 H932 0.961 1_556 S
C925 H933 0.962 . S
C926 C924 1.381 . S
C926 C927 1.394 . S
C926 H934 0.930 1_554 S
C927 C926 1.394 . S
C927 C928 1.383 . S
C927 H935 0.929 . S
C928 C927 1.383 . S
C928 C929 1.377 . S
C929 H913 0.930 . S
C929 C928 1.377 . S
C929 C930 1.379 . S
C930 H914 0.931 . S
C930 C924 1.383 . S
C930 C929 1.379 . S
H931 C925 0.959 . S
H932 C925 0.961 1_554 S
H933 C925 0.962 . S
H934 C926 0.930 1_556 S
H935 C927 0.929 . S
H936 C944 0.929 . S
H937 C946 0.930 . S
H938 C948 0.930 . S
H939 C951 0.929 . S
H940 C954 0.930 . S
H941 C956 0.960 . S
H942 C956 0.960 . S
H943 C956 0.960 . S
C944 H936 0.929 . S
C944 C945 1.377 . S
C944 C946 1.384 . S
C945 C944 1.377 . S
C945 C951 1.390 . S
C946 H937 0.930 . S
C946 C944 1.384 . S
C946 C947 1.372 . S
C947 C946 1.372 . S
C947 C948 1.400 . S
C947 C952 1.490 . S
C948 H938 0.930 . S
C948 C947 1.400 . S
C948 C951 1.386 . S
H949 C965 0.930 . S
H950 C966 0.931 . S
C951 H939 0.929 . S
C951 C945 1.390 . S
C951 C948 1.386 . S
C952 C947 1.490 . S
C952 C954 1.395 . S
C952 C955 1.403 . S
H953 C959 0.930 . S
C954 H940 0.930 . S
C954 C952 1.395 . S
C954 C957 1.403 . S
C955 C952 1.403 . S
C955 C956 1.524 . S
C955 C959 1.400 . S
C956 H941 0.960 . S
C956 H942 0.960 . S
C956 H943 0.960 . S
C956 C955 1.524 . S
C957 C954 1.403 . S
C957 C958 1.392 . S
C957 C961 1.495 . S
C958 C957 1.392 . S
C958 C959 1.385 . S
C958 C960 1.478 . S
C959 H953 0.930 . S
C959 C955 1.400 . S
C959 C958 1.385 . S
C960 C958 1.478 . S
C960 C962 1.381 . S
C960 C966 1.383 . S
C961 C957 1.495 . S
C961 H967 0.959 . S
C961 H968 0.961 . S
C961 H969 0.960 . S
C962 C960 1.381 . S
C962 C963 1.394 . S
C962 H970 0.930 . S
C963 C962 1.394 . S
C963 C964 1.383 . S
C963 H971 0.929 . S
C964 C963 1.383 . S
C964 C965 1.377 . S
C965 H949 0.930 . S
C965 C964 1.377 . S
C965 C966 1.379 . S
C966 H950 0.931 . S
C966 C960 1.383 . S
C966 C965 1.379 . S
H967 C961 0.959 . S
H968 C961 0.961 . S
H969 C961 0.960 . S
H970 C962 0.930 . S
H971 C963 0.929 . S
H972 C980 0.929 . S
H973 C982 0.930 . S
H974 C984 0.930 . S
H975 C987 0.929 . S
H976 C990 0.930 . S
H977 C992 0.960 . S
H978 C992 0.960 . S
H979 C992 0.960 . S
C980 H972 0.929 . S
C980 C981 1.377 . S
C980 C982 1.384 . S
C981 C980 1.377 . S
C981 C987 1.390 . S
C982 H973 0.930 . S
C982 C980 1.384 . S
C982 C983 1.372 . S
C983 C982 1.372 . S
C983 C984 1.400 . S
C983 C988 1.490 . S
C984 H974 0.930 . S
C984 C983 1.400 . S
C984 C987 1.386 . S
H985 C1001 0.930 . S
H986 C1002 0.931 . S
C987 H975 0.929 . S
C987 C981 1.390 . S
C987 C984 1.386 . S
C988 C983 1.490 . S
C988 C990 1.395 . S
C988 C991 1.403 . S
H989 C995 0.930 . S
C990 H976 0.930 . S
C990 C988 1.395 . S
C990 C993 1.403 . S
C991 C988 1.403 . S
C991 C992 1.524 . S
C991 C995 1.400 . S
C992 H977 0.960 . S
C992 H978 0.960 . S
C992 H979 0.960 . S
C992 C991 1.524 . S
C993 C990 1.403 . S
C993 C994 1.392 . S
C993 C997 1.495 . S
C994 C993 1.392 . S
C994 C995 1.385 . S
C994 C996 1.478 . S
C995 H989 0.930 . S
C995 C991 1.400 . S
C995 C994 1.385 . S
C996 C994 1.478 . S
C996 C998 1.381 . S
C996 C1002 1.383 . S
C997 C993 1.495 . S
C997 H1003 0.959 . S
C997 H1004 0.961 . S
C997 H1005 0.960 . S
C998 C996 1.381 . S
C998 C999 1.394 . S
C998 H1006 0.930 . S
C999 C998 1.394 . S
C999 C1000 1.383 . S
C999 H1007 0.929 . S
C1000 C999 1.383 . S
C1000 C1001 1.377 . S
C1001 H985 0.930 . S
C1001 C1000 1.377 . S
C1001 C1002 1.379 . S
C1002 H986 0.931 . S
C1002 C996 1.383 . S
C1002 C1001 1.379 . S
H1003 C997 0.959 . S
H1004 C997 0.961 . S
H1005 C997 0.960 . S
H1006 C998 0.930 . S
H1007 C999 0.929 . S
H1008 C1016 0.929 . S
H1009 C1018 0.930 . S
H1010 C1020 0.930 . S
H1011 C1023 0.929 . S
H1012 C1026 0.930 . S
H1013 C1028 0.960 . S
H1014 C1028 0.960 . S
H1015 C1028 0.960 . S
C1016 H1008 0.929 . S
C1016 C1017 1.377 . S
C1016 C1018 1.384 . S
C1017 C1016 1.377 . S
C1017 C1023 1.390 . S
C1018 H1009 0.930 . S
C1018 C1016 1.384 . S
C1018 C1019 1.372 . S
C1019 C1018 1.372 . S
C1019 C1020 1.400 . S
C1019 C1024 1.490 . S
C1020 H1010 0.930 . S
C1020 C1019 1.400 . S
C1020 C1023 1.386 . S
H1021 C1037 0.930 . S
H1022 C1038 0.931 . S
C1023 H1011 0.929 . S
C1023 C1017 1.390 . S
C1023 C1020 1.386 . S
C1024 C1019 1.490 . S
C1024 C1026 1.395 . S
C1024 C1027 1.403 . S
H1025 C1031 0.930 . S
C1026 H1012 0.930 . S
C1026 C1024 1.395 . S
C1026 C1029 1.403 . S
C1027 C1024 1.403 . S
C1027 C1028 1.524 . S
C1027 C1031 1.400 . S
C1028 H1013 0.960 . S
C1028 H1014 0.960 . S
C1028 H1015 0.960 . S
C1028 C1027 1.524 . S
C1029 C1026 1.403 . S
C1029 C1030 1.392 . S
C1029 C1033 1.495 . S
C1030 C1029 1.392 . S
C1030 C1031 1.385 . S
C1030 C1032 1.478 . S
C1031 H1025 0.930 . S
C1031 C1027 1.400 . S
C1031 C1030 1.385 . S
C1032 C1030 1.478 . S
C1032 C1034 1.381 . S
C1032 C1038 1.383 . S
C1033 C1029 1.495 . S
C1033 H1039 0.959 . S
C1033 H1040 0.961 . S
C1033 H1041 0.960 . S
C1034 C1032 1.381 . S
C1034 C1035 1.394 . S
C1034 H1042 0.930 . S
C1035 C1034 1.394 . S
C1035 C1036 1.383 . S
C1035 H1043 0.929 . S
C1036 C1035 1.383 . S
C1036 C1037 1.377 . S
C1037 H1021 0.930 . S
C1037 C1036 1.377 . S
C1037 C1038 1.379 . S
C1038 H1022 0.931 . S
C1038 C1032 1.383 . S
C1038 C1037 1.379 . S
H1039 C1033 0.959 . S
H1040 C1033 0.961 . S
H1041 C1033 0.960 . S
H1042 C1034 0.930 . S
H1043 C1035 0.929 . S
H1044 C1052 0.929 . S
H1045 C1054 0.930 . S
H1046 C1056 0.930 . S
H1047 C1059 0.929 . S
H1048 C1062 0.930 . S
H1049 C1064 0.960 . S
H1050 C1064 0.960 . S
H1051 C1064 0.960 . S
C1052 H1044 0.929 . S
C1052 C1053 1.377 . S
C1052 C1054 1.384 . S
C1053 C1052 1.377 . S
C1053 C1059 1.390 . S
C1054 H1045 0.930 . S
C1054 C1052 1.384 . S
C1054 C1055 1.372 . S
C1055 C1054 1.372 . S
C1055 C1056 1.400 . S
C1055 C1060 1.490 . S
C1056 H1046 0.930 . S
C1056 C1055 1.400 . S
C1056 C1059 1.386 . S
H1057 C1073 0.930 . S
H1058 C1074 0.931 . S
C1059 H1047 0.929 . S
C1059 C1053 1.390 . S
C1059 C1056 1.386 . S
C1060 C1055 1.490 . S
C1060 C1062 1.395 . S
C1060 C1063 1.403 . S
H1061 C1067 0.930 . S
C1062 H1048 0.930 . S
C1062 C1060 1.395 . S
C1062 C1065 1.403 . S
C1063 C1060 1.403 . S
C1063 C1064 1.524 . S
C1063 C1067 1.400 . S
C1064 H1049 0.960 . S
C1064 H1050 0.960 . S
C1064 H1051 0.960 . S
C1064 C1063 1.524 . S
C1065 C1062 1.403 . S
C1065 C1066 1.392 . S
C1065 C1069 1.495 . S
C1066 C1065 1.392 . S
C1066 C1067 1.385 . S
C1066 C1068 1.478 . S
C1067 H1061 0.930 . S
C1067 C1063 1.400 . S
C1067 C1066 1.385 . S
C1068 C1066 1.478 . S
C1068 C1070 1.381 . S
C1068 C1074 1.383 . S
C1069 C1065 1.495 . S
C1069 H1075 0.959 . S
C1069 H1076 0.961 . S
C1069 H1077 0.960 . S
C1070 C1068 1.381 . S
C1070 C1071 1.394 . S
C1070 H1078 0.930 . S
C1071 C1070 1.394 . S
C1071 C1072 1.383 . S
C1071 H1079 0.929 . S
C1072 C1071 1.383 . S
C1072 C1073 1.377 . S
C1073 H1057 0.930 . S
C1073 C1072 1.377 . S
C1073 C1074 1.379 . S
C1074 H1058 0.931 . S
C1074 C1068 1.383 . S
C1074 C1073 1.379 . S
H1075 C1069 0.959 . S
H1076 C1069 0.961 . S
H1077 C1069 0.960 . S
H1078 C1070 0.930 . S
H1079 C1071 0.929 . S
H1080 C1088 0.929 . S
H1081 C1090 0.930 . S
H1082 C1092 0.930 . S
H1083 C1095 0.929 . S
H1084 C1098 0.930 . S
H1085 C1100 0.960 . S
H1086 C1100 0.960 . S
H1087 C1100 0.960 . S
C1088 H1080 0.929 . S
C1088 C1089 1.377 . S
C1088 C1090 1.384 . S
C1089 C1088 1.377 . S
C1089 C1095 1.390 . S
C1090 H1081 0.930 . S
C1090 C1088 1.384 . S
C1090 C1091 1.372 . S
C1091 C1090 1.372 . S
C1091 C1092 1.400 . S
C1091 C1096 1.490 . S
C1092 H1082 0.930 . S
C1092 C1091 1.400 . S
C1092 C1095 1.386 . S
H1093 C1109 0.930 . S
H1094 C1110 0.931 . S
C1095 H1083 0.929 . S
C1095 C1089 1.390 . S
C1095 C1092 1.386 . S
C1096 C1091 1.490 . S
C1096 C1098 1.395 . S
C1096 C1099 1.403 . S
H1097 C1103 0.930 . S
C1098 H1084 0.930 . S
C1098 C1096 1.395 . S
C1098 C1101 1.403 . S
C1099 C1096 1.403 . S
C1099 C1100 1.524 . S
C1099 C1103 1.400 . S
C1100 H1085 0.960 . S
C1100 H1086 0.960 . S
C1100 H1087 0.960 . S
C1100 C1099 1.524 . S
C1101 C1098 1.403 . S
C1101 C1102 1.392 . S
C1101 C1105 1.495 . S
C1102 C1101 1.392 . S
C1102 C1103 1.385 . S
C1102 C1104 1.478 . S
C1103 H1097 0.930 . S
C1103 C1099 1.400 . S
C1103 C1102 1.385 . S
C1104 C1102 1.478 . S
C1104 C1106 1.381 . S
C1104 C1110 1.383 . S
C1105 C1101 1.495 . S
C1105 H1111 0.959 . S
C1105 H1112 0.961 . S
C1105 H1113 0.960 . S
C1106 C1104 1.381 . S
C1106 C1107 1.394 . S
C1106 H1114 0.930 . S
C1107 C1106 1.394 . S
C1107 C1108 1.383 . S
C1107 H1115 0.929 . S
C1108 C1107 1.383 . S
C1108 C1109 1.377 . S
C1109 H1093 0.930 . S
C1109 C1108 1.377 . S
C1109 C1110 1.379 . S
C1110 H1094 0.931 . S
C1110 C1104 1.383 . S
C1110 C1109 1.379 . S
H1111 C1105 0.959 . S
H1112 C1105 0.961 . S
H1113 C1105 0.960 . S
H1114 C1106 0.930 . S
H1115 C1107 0.929 . S
H1116 C1124 0.929 . S
H1117 C1126 0.930 . S
H1118 C1128 0.930 . S
H1119 C1131 0.929 . S
H1120 C1134 0.930 . S
H1121 C1136 0.960 . S
H1122 C1136 0.960 . S
H1123 C1136 0.960 . S
C1124 H1116 0.929 . S
C1124 C1125 1.377 . S
C1124 C1126 1.384 . S
C1125 C1124 1.377 . S
C1125 C1131 1.390 . S
C1126 H1117 0.930 . S
C1126 C1124 1.384 . S
C1126 C1127 1.372 . S
C1127 C1126 1.372 . S
C1127 C1128 1.400 . S
C1127 C1132 1.490 . S
C1128 H1118 0.930 . S
C1128 C1127 1.400 . S
C1128 C1131 1.386 . S
H1129 C1145 0.930 . S
H1130 C1146 0.931 . S
C1131 H1119 0.929 . S
C1131 C1125 1.390 . S
C1131 C1128 1.386 . S
C1132 C1127 1.490 . S
C1132 C1134 1.395 . S
C1132 C1135 1.403 . S
H1133 C1139 0.930 . S
C1134 H1120 0.930 . S
C1134 C1132 1.395 . S
C1134 C1137 1.403 . S
C1135 C1132 1.403 . S
C1135 C1136 1.524 . S
C1135 C1139 1.400 . S
C1136 H1121 0.960 . S
C1136 H1122 0.960 . S
C1136 H1123 0.960 . S
C1136 C1135 1.524 . S
C1137 C1134 1.403 . S
C1137 C1138 1.392 . S
C1137 C1141 1.495 . S
C1138 C1137 1.392 . S
C1138 C1139 1.385 . S
C1138 C1140 1.478 . S
C1139 H1133 0.930 . S
C1139 C1135 1.400 . S
C1139 C1138 1.385 . S
C1140 C1138 1.478 . S
C1140 C1142 1.381 . S
C1140 C1146 1.383 . S
C1141 C1137 1.495 . S
C1141 H1147 0.959 . S
C1141 H1148 0.961 . S
C1141 H1149 0.960 . S
C1142 C1140 1.381 . S
C1142 C1143 1.394 . S
C1142 H1150 0.930 . S
C1143 C1142 1.394 . S
C1143 C1144 1.383 . S
C1143 H1151 0.929 . S
C1144 C1143 1.383 . S
C1144 C1145 1.377 . S
C1145 H1129 0.930 . S
C1145 C1144 1.377 . S
C1145 C1146 1.379 . S
C1146 H1130 0.931 . S
C1146 C1140 1.383 . S
C1146 C1145 1.379 . S
H1147 C1141 0.959 . S
H1148 C1141 0.961 . S
H1149 C1141 0.960 . S
H1150 C1142 0.930 . S
H1151 C1143 0.929 . S
H1152 C1160 0.929 . S
H1153 C1162 0.930 . S
H1154 C1164 0.930 . S
H1155 C1167 0.929 . S
H1156 C1170 0.930 . S
H1157 C1172 0.960 . S
H1158 C1172 0.960 . S
H1159 C1172 0.960 . S
C1160 H1152 0.929 . S
C1160 C1161 1.377 . S
C1160 C1162 1.384 . S
C1161 C1160 1.377 . S
C1161 C1167 1.390 . S
C1162 H1153 0.930 . S
C1162 C1160 1.384 . S
C1162 C1163 1.372 . S
C1163 C1162 1.372 . S
C1163 C1164 1.400 . S
C1163 C1168 1.490 . S
C1164 H1154 0.930 . S
C1164 C1163 1.400 . S
C1164 C1167 1.386 . S
H1165 C1181 0.930 . S
H1166 C1182 0.931 . S
C1167 H1155 0.929 . S
C1167 C1161 1.390 . S
C1167 C1164 1.386 . S
C1168 C1163 1.490 . S
C1168 C1170 1.395 . S
C1168 C1171 1.403 . S
H1169 C1175 0.968 . S
C1170 H1156 0.930 . S
C1170 C1168 1.395 . S
C1170 C1173 1.403 . S
C1171 C1168 1.403 . S
C1171 C1172 1.524 . S
C1171 C1175 1.363 1_554 S
C1172 H1157 0.960 . S
C1172 H1158 0.960 . S
C1172 H1159 0.960 . S
C1172 C1171 1.524 . S
C1173 C1170 1.403 . S
C1173 C1174 1.392 1_554 S
C1173 C1177 1.495 . S
C1174 C1173 1.392 1_556 S
C1174 C1175 1.388 . S
C1174 C1176 1.478 . S
C1175 H1169 0.968 . S
C1175 C1171 1.363 1_556 S
C1175 C1174 1.388 . S
C1176 C1174 1.478 . S
C1176 C1178 1.381 . S
C1176 C1182 1.383 . S
C1177 C1173 1.495 . S
C1177 H1183 0.959 . S
C1177 H1184 0.961 . S
C1177 H1185 0.960 . S
C1178 C1176 1.381 . S
C1178 C1179 1.394 . S
C1178 H1186 0.930 . S
C1179 C1178 1.394 . S
C1179 C1180 1.383 . S
C1179 H1187 0.929 . S
C1180 C1179 1.383 . S
C1180 C1181 1.377 . S
C1181 H1165 0.930 . S
C1181 C1180 1.377 . S
C1181 C1182 1.379 . S
C1182 H1166 0.931 . S
C1182 C1176 1.383 . S
C1182 C1181 1.379 . S
H1183 C1177 0.959 . S
H1184 C1177 0.961 . S
H1185 C1177 0.960 . S
H1186 C1178 0.930 . S
H1187 C1179 0.929 . S
H1188 C1196 0.929 . S
H1189 C1198 0.930 . S
H1190 C1200 0.930 . S
H1191 C1203 0.929 . S
H1192 C1206 0.930 . S
H1193 C1208 0.960 . S
H1194 C1208 0.960 . S
H1195 C1208 0.960 . S
C1196 H1188 0.929 . S
C1196 C1197 1.377 . S
C1196 C1198 1.384 . S
C1197 C1196 1.377 . S
C1197 C1203 1.390 . S
C1198 H1189 0.930 . S
C1198 C1196 1.384 . S
C1198 C1199 1.372 . S
C1199 C1198 1.372 . S
C1199 C1200 1.400 . S
C1199 C1204 1.490 . S
C1200 H1190 0.930 . S
C1200 C1199 1.400 . S
C1200 C1203 1.386 . S
H1201 C1217 0.930 . S
H1202 C1218 0.931 . S
C1203 H1191 0.929 . S
C1203 C1197 1.390 . S
C1203 C1200 1.386 . S
C1204 C1199 1.490 . S
C1204 C1206 1.395 . S
C1204 C1207 1.403 . S
H1205 C1211 0.930 . S
C1206 H1192 0.930 . S
C1206 C1204 1.395 . S
C1206 C1209 1.403 . S
C1207 C1204 1.403 . S
C1207 C1208 1.524 . S
C1207 C1211 1.400 . S
C1208 H1193 0.960 . S
C1208 H1194 0.960 . S
C1208 H1195 0.960 . S
C1208 C1207 1.524 . S
C1209 C1206 1.403 . S
C1209 C1210 1.392 . S
C1209 C1213 1.495 . S
C1210 C1209 1.392 . S
C1210 C1211 1.385 . S
C1210 C1212 1.478 . S
C1211 H1205 0.930 . S
C1211 C1207 1.400 . S
C1211 C1210 1.385 . S
C1212 C1210 1.478 . S
C1212 C1214 1.381 . S
C1212 C1218 1.383 . S
C1213 C1209 1.495 . S
C1213 H1219 0.959 . S
C1213 H1220 0.961 . S
C1213 H1221 0.960 . S
C1214 C1212 1.381 . S
C1214 C1215 1.394 . S
C1214 H1222 0.930 . S
C1215 C1214 1.394 . S
C1215 C1216 1.383 . S
C1215 H1223 0.929 . S
C1216 C1215 1.383 . S
C1216 C1217 1.377 . S
C1217 H1201 0.930 . S
C1217 C1216 1.377 . S
C1217 C1218 1.379 . S
C1218 H1202 0.931 . S
C1218 C1212 1.383 . S
C1218 C1217 1.379 . S
H1219 C1213 0.959 . S
H1220 C1213 0.961 . S
H1221 C1213 0.960 . S
H1222 C1214 0.930 . S
H1223 C1215 0.929 . S
C388 C346 1.604 . S
C369 C15 1.584 . S
C405 C61 1.585 . S
C424 C287 1.609 . S
C441 C114 1.565 . S
C460 C290 1.577 . S
C477 C139 1.593 . S
C496 C304 1.603 . S
C532 C329 1.606 . S
C513 C185 1.599 . S
C549 C245 1.562 . S
C568 C332 1.582 . S
C585 C47 1.553 . S
C604 C301 1.567 . S
C621 C100 1.576 . S
C640 C315 1.577 . S
C657 C153 1.545 . S
C676 C318 1.553 . S
C712 C343 1.568 . S
C693 C199 1.544 . S
C748 C357 1.583 . S
C729 C231 1.576 . S
C784 C276 1.561 . S
C765 C1 1.550 . S
C801 C22 1.458 . S
C820 C299 1.460 . S
C837 C68 1.479 . S
C856 C313 1.470 . S
C892 C323 1.476 . S
C873 C107 1.479 . S
C909 C146 1.458 . S
C928 C341 1.447 . S
C964 C355 1.475 . S
C945 C192 1.479 . S
C1000 C281 1.477 . S
C981 C252 1.479 . S
C1036 C351 1.511 . S
C1017 C54 1.513 . S
C1053 C93 1.487 . S
C1072 C285 1.484 . S
C1108 C295 1.486 . S
C1089 C160 1.487 . S
C1125 C206 1.514 . S
C1144 C309 1.513 . S
C1161 C238 1.489 . S
C1180 C327 1.484 . S
C1197 C8 1.490 . S
C1216 C337 1.490 . S
