# Generated by pormake.
# Topology tsx, (6,3)-cn, num edge types: 1
# Building blocks:
#     Node 0, Type 0, BuildingBlock: JUFBIX_clean_sbu_0, # of connection points: 6
#     Node 1, Type 0, BuildingBlock: JUFBIX_clean_sbu_0, # of connection points: 6
#     Node 2, Type 1, BuildingBlock: BELTOD_clean_linker_0, # of connection points: 3
#     Node 3, Type 1, BuildingBlock: BELTOD_clean_linker_0, # of connection points: 3
#     Node 4, Type 1, BuildingBlock: BELTOD_clean_linker_0, # of connection points: 3
#     Node 5, Type 1, BuildingBlock: BELTOD_clean_linker_0, # of connection points: 3
#     Edge 6, Type (0, 1), BuildingBlock: EZIPEK_clean_linker_0, # of connection points: 2
#     Edge 7, Type (0, 1), BuildingBlock: EZIPEK_clean_linker_0, # of connection points: 2
#     Edge 8, Type (0, 1), BuildingBlock: EZIPEK_clean_linker_0, # of connection points: 2
#     Edge 9, Type (0, 1), BuildingBlock: EZIPEK_clean_linker_0, # of connection points: 2
#     Edge 10, Type (0, 1), BuildingBlock: EZIPEK_clean_linker_0, # of connection points: 2
#     Edge 11, Type (0, 1), BuildingBlock: EZIPEK_clean_linker_0, # of connection points: 2
#     Edge 12, Type (0, 1), BuildingBlock: EZIPEK_clean_linker_0, # of connection points: 2
#     Edge 13, Type (0, 1), BuildingBlock: EZIPEK_clean_linker_0, # of connection points: 2
#     Edge 14, Type (0, 1), BuildingBlock: EZIPEK_clean_linker_0, # of connection points: 2
#     Edge 15, Type (0, 1), BuildingBlock: EZIPEK_clean_linker_0, # of connection points: 2
#     Edge 16, Type (0, 1), BuildingBlock: EZIPEK_clean_linker_0, # of connection points: 2
#     Edge 17, Type (0, 1), BuildingBlock: EZIPEK_clean_linker_0, # of connection points: 2
# Relax obj value: 0.145
# Max RMSD: 0.163
# Mean RMSD: 0.130
data_MOF--net-tsx--node1-JUFBIX_clean_sbu_0--node2-BELTOD_clean_linker_0--edge1-EZIPEK_clean_linker_0
_symmetry_space_group_name_H-M    P1
_symmetry_Int_Tables_number       1
_symmetry_cell_setting            triclinic
loop_
_symmetry_equiv_pos_as_xyz
'x, y, z'
_cell_length_a     17.499152
_cell_length_b     20.53741
_cell_length_c     30.808257
_cell_angle_alpha  92.976838
_cell_angle_beta   89.206863
_cell_angle_gamma 100.26924
loop_
_atom_site_label
_atom_site_type_symbol
_atom_site_fract_x
_atom_site_fract_y
_atom_site_fract_z
_atom_type_partial_charge
Co0 Co 0.07181 1.00031 0.00569 0.0
C1 C 0.01439 0.02959 0.92668 0.0
Co2 Co 0.97495 0.05695 0.01145 0.0
C3 C 0.15275 0.88762 0.00547 0.0
C4 C 0.22303 0.97425 0.98088 0.0
N5 N 0.15269 0.95225 -0.00142 0.0
N6 N 0.22017 0.86906 -0.0072 0.0
C7 C 0.26449 0.92332 0.97734 0.0
H8 H 0.10363 0.85403 0.01802 0.0
H9 H 0.24205 0.02346 0.96949 0.0
C10 C 0.03295 0.02722 0.09028 0.0
N11 N 0.89509 0.10512 0.01835 0.0
C12 C 0.83524 0.10764 0.99157 0.0
C13 C 0.8898 0.15134 0.05054 0.0
N14 N 0.79404 0.15428 0.00568 0.0
C15 C 0.82777 0.18158 0.04279 0.0
C16 C 0.92614 0.92133 0.00977 0.0
O17 O 0.07765 0.99751 0.06682 0.0
O18 O 0.9851 0.05719 0.07255 0.0
O19 O 0.90246 0.97641 0.01319 0.0
O20 O 0.99797 0.92047 0.00405 0.0
O21 O 0.96628 0.05564 0.94998 0.0
H22 H 0.93065 0.16459 0.07691 0.0
H23 H 0.82466 0.07883 0.96114 0.0
O24 O 0.0655 0.00335 0.94465 0.0
O25 O 0.14392 0.08171 0.00818 0.0
O26 O 0.04786 0.13755 0.0105 0.0
C27 C 0.12025 0.13679 0.0103 0.0
H28 H 0.32151 0.92505 0.96287 0.0
H29 H 0.8111 0.22289 0.06159 0.0
Co30 Co 0.57251 0.50089 0.50608 0.0
C31 C 0.51476 0.53002 0.42709 0.0
Co32 Co 0.47553 0.55739 0.51189 0.0
C33 C 0.6538 0.38844 0.506 0.0
C34 C 0.72352 0.47491 0.48085 0.0
N35 N 0.65346 0.45296 0.49889 0.0
N36 N 0.72112 0.36989 0.49312 0.0
C37 C 0.76509 0.42404 0.4773 0.0
H38 H 0.60492 0.35491 0.51883 0.0
H39 H 0.74222 0.524 0.46921 0.0
C40 C 0.53384 0.52779 0.59069 0.0
N41 N 0.3956 0.60548 0.51886 0.0
C42 C 0.33586 0.60822 0.49205 0.0
C43 C 0.39022 0.65154 0.55115 0.0
N44 N 0.29467 0.65482 0.50622 0.0
C45 C 0.32826 0.68188 0.54343 0.0
C46 C 0.42696 0.42177 0.51024 0.0
O47 O 0.57854 0.49812 0.56721 0.0
O48 O 0.48589 0.55768 0.57298 0.0
O49 O 0.40317 0.47679 0.51368 0.0
O50 O 0.49882 0.42099 0.50451 0.0
O51 O 0.46665 0.55602 0.45043 0.0
H52 H 0.43099 0.66465 0.57758 0.0
H53 H 0.3254 0.57962 0.46153 0.0
O54 O 0.566 0.50389 0.44503 0.0
O55 O 0.6445 0.58234 0.5085 0.0
O56 O 0.5483 0.63804 0.51085 0.0
C57 C 0.62072 0.63737 0.5106 0.0
H58 H 0.82191 0.42573 0.46258 0.0
H59 H 0.31159 0.72312 0.56229 0.0
P60 P 0.04804 0.02398 0.42633 0.0
H61 H 0.05598 0.14545 0.47996 0.0
H62 H 0.95962 0.21339 0.5 0.0
H63 H 0.77817 0.05796 0.45067 0.0
H64 H 0.8766 0.98941 0.42965 0.0
H65 H 0.13675 0.97916 0.49271 0.0
H66 H 0.17255 0.8724 0.50466 0.0
H67 H 0.01139 0.78083 0.40541 0.0
H68 H 0.97385 0.88908 0.39453 0.0
H69 H 0.95875 0.08973 0.36671 0.0
H70 H 0.12612 0.95825 0.35788 0.0
O71 O 0.13406 0.07103 0.43783 0.0
H72 H 0.95584 0.0901 0.28723 0.0
H73 H 0.12265 0.95867 0.2784 0.0
C74 C 0.97384 0.06273 0.45276 0.0
C75 C 0.99569 0.12492 0.47426 0.0
C76 C 0.94046 0.16389 0.48577 0.0
C77 C 0.86199 0.14133 0.47602 0.0
C78 C 0.8387 0.07645 0.45809 0.0
C79 C 0.89465 0.03737 0.44625 0.0
C80 C 0.0529 0.94222 0.44307 0.0
C81 C 0.10658 0.93598 0.47497 0.0
C82 C 0.12732 0.875 0.48146 0.0
C83 C 0.09504 0.81902 0.45566 0.0
C84 C 0.0367 0.82365 0.42571 0.0
C85 C 0.01543 0.88527 0.41956 0.0
C86 C 0.04068 0.02205 0.36819 0.0
C87 C 0.99374 0.06004 0.34788 0.0
C88 C 0.99242 0.06073 0.30259 0.0
C89 C 0.03869 0.02409 0.27732 0.0
C90 C 0.08629 0.98683 0.29759 0.0
C91 C 0.08776 0.9863 0.34279 0.0
P92 P 0.09685 0.98044 0.59615 0.0
H93 H 0.04666 0.83871 0.58511 0.0
H94 H 0.92645 0.76987 0.55911 0.0
H95 H 0.84184 0.94372 0.52243 0.0
H96 H 0.96322 0.01376 0.54891 0.0
H97 H 0.24423 0.01752 0.55082 0.0
H98 H 0.31263 0.12265 0.52517 0.0
H99 H 0.117 0.21511 0.56173 0.0
H100 H 0.04722 0.1088 0.58717 0.0
H101 H 0.9484 0.96063 0.64517 0.0
H102 H 0.1895 0.04444 0.66871 0.0
O103 O 0.16466 0.93301 0.59899 0.0
H104 H 0.91973 0.97712 0.72255 0.0
H105 H 0.16039 0.06061 0.7463 0.0
C106 C 0.01462 0.93139 0.56836 0.0
C107 C 1.00354 0.86234 0.57044 0.0
C108 C 0.935 0.82288 0.55552 0.0
C109 C 0.87605 0.85163 0.53833 0.0
C110 C 0.88737 0.9207 0.5351 0.0
C111 C 0.95652 0.96051 0.55012 0.0
C112 C 0.1403 0.05516 0.57067 0.0
C113 C 0.21493 0.05976 0.55254 0.0
C114 C 0.25393 0.11962 0.5376 0.0
C115 C 0.21952 0.17622 0.54125 0.0
C116 C 0.14388 0.17152 0.55813 0.0
C117 C 0.10427 0.11106 0.57265 0.0
C118 C 0.07144 1.00091 0.65125 0.0
C119 C 0.99501 0.9834 0.66667 0.0
C120 C 0.97841 0.99287 0.7108 0.0
C121 C 0.0381 0.01971 0.7399 0.0
C122 C 0.11374 0.03985 0.72418 0.0
C123 C 0.13026 0.03054 0.68007 0.0
P124 P 0.54741 0.52335 0.92675 0.0
H125 H 0.55452 0.64418 0.98092 0.0
H126 H 0.45793 0.71203 0.00068 0.0
H127 H 0.27724 0.55724 0.94979 0.0
H128 H 0.37592 0.48877 0.92911 0.0
H129 H 0.63477 0.47762 -0.00661 0.0
H130 H 0.67047 0.37071 0.00493 0.0
H131 H 0.51098 0.28037 0.90455 0.0
H132 H 0.47363 0.3888 0.89403 0.0
H133 H 0.45902 0.58979 0.86705 0.0
H134 H 0.62654 0.45844 0.85836 0.0
O135 O 0.63326 0.57025 0.93885 0.0
H136 H 0.45677 0.59062 0.78758 0.0
H137 H 0.62374 0.45932 0.77888 0.0
C138 C 0.47279 0.5618 0.95299 0.0
C139 C 0.49433 0.62376 0.97484 0.0
C140 C 0.43896 0.66267 0.98618 0.0
C141 C 0.36067 0.64029 0.97591 0.0
C142 C 0.33763 0.57558 0.95763 0.0
C143 C 0.39371 0.53656 0.94598 0.0
C144 C 0.55188 0.44134 0.94314 0.0
C145 C 0.60497 0.43467 0.97526 0.0
C146 C 0.62564 0.3736 0.98154 0.0
C147 C 0.59383 0.31795 0.95532 0.0
C148 C 0.53595 0.32295 0.92516 0.0
C149 C 0.5148 0.38467 0.91921 0.0
C150 C 0.54095 0.52212 0.86859 0.0
C151 C 0.49423 0.56026 0.84825 0.0
C152 C 0.49329 0.56121 0.80297 0.0
C153 C 0.53975 0.5247 0.77773 0.0
C154 C 0.58726 0.48739 0.79803 0.0
C155 C 0.58834 0.4866 0.84323 0.0
P156 P 0.59584 0.48055 0.09645 0.0
H157 H 0.54627 0.33874 0.08518 0.0
H158 H 0.42635 0.26961 0.05903 0.0
H159 H 0.34071 0.44323 0.02283 0.0
H160 H 0.46183 0.51356 0.04946 0.0
H161 H 0.74256 0.51733 0.05043 0.0
H162 H 0.81084 0.62239 0.02459 0.0
H163 H 0.61613 0.71533 0.06229 0.0
H164 H 0.54641 0.60907 0.08786 0.0
H165 H 0.44774 0.45936 0.14578 0.0
H166 H 0.68823 0.54597 0.16871 0.0
O167 O 0.66381 0.43329 0.09934 0.0
H168 H 0.41936 0.4759 0.2232 0.0
H169 H 0.65942 0.56215 0.24634 0.0
C170 C 0.51369 0.43133 0.06868 0.0
C171 C 0.50297 0.36226 0.07059 0.0
C172 C 0.43461 0.32264 0.05558 0.0
C173 C 0.37544 0.35123 0.03849 0.0
C174 C 0.3864 0.42033 0.03543 0.0
C175 C 0.45539 0.4603 0.05054 0.0
C176 C 0.63908 0.55522 0.07085 0.0
C177 C 0.71341 0.55967 0.05235 0.0
C178 C 0.75234 0.61948 0.0373 0.0
C179 C 0.71817 0.67619 0.04123 0.0
C180 C 0.6428 0.67166 0.05848 0.0
C181 C 0.60325 0.61123 0.07309 0.0
C182 C 0.57045 0.50109 0.15155 0.0
C183 C 0.49425 0.48277 0.16715 0.0
C184 C 0.47782 0.49226 0.21131 0.0
C185 C 0.53745 0.51988 0.24025 0.0
C186 C 0.61281 0.54078 0.22434 0.0
C187 C 0.62916 0.53148 0.18021 0.0
C188 C 0.18319 0.23638 0.05561 0.0
C189 C 0.17708 0.19944 0.0151 0.0
C190 C 0.28657 0.27734 0.9863 0.0
C191 C 0.29972 0.3078 0.02847 0.0
N192 N 0.26214 0.31833 0.10362 0.0
N193 N 0.22151 0.18345 0.94154 0.0
C194 C 0.24762 0.28858 0.06307 0.0
C195 C 0.2281 0.21986 0.98018 0.0
N196 N 0.12803 0.22109 0.08714 0.0
N197 N 0.32968 0.30416 0.95222 0.0
H198 H 0.17695 0.14315 0.93521 0.0
H199 H 0.26196 0.19095 0.91641 0.0
H200 H 0.37107 0.34726 0.95612 0.0
H201 H 0.31987 0.28792 0.91989 0.0
H202 H 0.1242 0.25045 0.11537 0.0
H203 H 0.08253 0.18089 0.08419 0.0
H204 H 0.2333 0.30107 0.13166 0.0
H205 H 0.3061 0.3592 0.1097 0.0
C206 C 0.26028 0.77421 0.02718 0.0
C207 C 0.23831 0.80323 0.9897 0.0
C208 C 0.28357 0.71769 0.94292 0.0
C209 C 0.30634 0.68851 0.98044 0.0
N210 N 0.29978 0.67878 0.05795 0.0
N211 N 0.20801 0.79357 0.91377 0.0
C212 C 0.28878 0.71339 0.02257 0.0
C213 C 0.2428 0.77155 0.94816 0.0
N214 N 0.25773 0.80679 0.06679 0.0
N215 N 0.30556 0.69735 0.90241 0.0
H216 H 0.1776 0.83294 0.91716 0.0
H217 H 0.20271 0.76907 0.88322 0.0
H218 H 0.33608 0.65855 0.89676 0.0
H219 H 0.29862 0.72215 0.8745 0.0
H220 H 0.28071 0.79229 0.09496 0.0
H221 H 0.23647 0.85108 0.07089 0.0
H222 H 0.28242 0.69116 0.0893 0.0
H223 H 0.3202 0.63396 0.0552 0.0
C224 C 0.81075 0.83506 0.98754 0.0
C225 C 0.87175 0.859 0.01732 0.0
C226 C 0.82229 0.76954 0.06544 0.0
C227 C 0.76684 0.7415 0.03359 0.0
N228 N 0.71393 0.7418 0.96189 0.0
N229 N 0.94308 0.84307 0.08166 0.0
C230 C 0.76224 0.77284 -0.00602 0.0
C231 C 0.87987 0.82442 0.05533 0.0
N232 N 0.79949 0.87147 0.95302 0.0
N233 N 0.81859 0.74478 0.10597 0.0
H234 H 0.98525 0.88472 0.07724 0.0
H235 H 0.95674 0.81447 0.10641 0.0
H236 H 0.77727 0.7044 0.11478 0.0
H237 H 0.85158 0.76803 0.13212 0.0
H238 H 0.75097 0.86037 0.93301 0.0
H239 H 0.83628 0.91543 0.94588 0.0
H240 H 0.7137 0.75836 0.93054 0.0
H241 H 0.67807 0.69626 0.96571 0.0
C242 C 0.75872 0.22551 0.95004 0.0
C243 C 0.73583 0.18003 0.98281 0.0
C244 C 0.60621 0.20964 0.98599 0.0
C245 C 0.63155 0.25887 0.95595 0.0
N246 N 0.7203 0.30032 0.8994 0.0
N247 N 0.63602 0.11728 0.02524 0.0
C248 C 0.70388 0.26167 0.9343 0.0
C249 C 0.65831 0.16796 -0.00174 0.0
N250 N 0.83442 0.23784 0.93658 0.0
N251 N 0.53365 0.20502 0.00375 0.0
H252 H 0.67427 0.08675 0.03425 0.0
H253 H 0.57951 0.1027 0.0364 0.0
H254 H 0.49364 0.2325 -0.00717 0.0
H255 H 0.51318 0.17495 0.02907 0.0
H256 H 0.8572 0.27601 0.91663 0.0
H257 H 0.87622 0.21229 0.9475 0.0
H258 H 0.76926 0.30057 0.87979 0.0
H259 H 0.68091 0.3277 0.8876 0.0
C260 C 0.72829 0.72042 0.48025 0.0
C261 C 0.67746 0.70007 0.51526 0.0
C262 C 0.74816 0.78933 0.56307 0.0
C263 C 0.80017 0.80839 0.52839 0.0
N264 N 0.82983 0.80457 0.45211 0.0
N265 N 0.6287 0.72188 0.58734 0.0
C266 C 0.78683 0.77786 0.48626 0.0
C267 C 0.68372 0.73712 0.55573 0.0
N268 N 0.72145 0.68395 0.44163 0.0
N269 N 0.7628 0.81927 0.60356 0.0
H270 H 0.58318 0.68169 0.58447 0.0
H271 H 0.62498 0.75129 0.61556 0.0
H272 H 0.80677 0.86017 0.60952 0.0
H273 H 0.73404 0.80216 0.63165 0.0
H274 H 0.76176 0.69138 0.41642 0.0
H275 H 0.67681 0.64368 0.43538 0.0
H276 H 0.8199 0.78826 0.41981 0.0
H277 H 0.87127 0.84765 0.45594 0.0
C278 C 0.76238 0.2756 0.52754 0.0
C279 C 0.73939 0.30411 0.49011 0.0
C280 C 0.78379 0.21817 0.4433 0.0
C281 C 0.80761 0.18949 0.48077 0.0
N282 N 0.80301 0.1807 0.55838 0.0
N283 N 0.70728 0.29354 0.41441 0.0
C284 C 0.791 0.21483 0.52294 0.0
C285 C 0.74297 0.27199 0.44865 0.0
N286 N 0.76067 0.30861 0.56705 0.0
N287 N 0.80487 0.19741 0.40271 0.0
H288 H 0.67686 0.3329 0.41788 0.0
H289 H 0.7013 0.26871 0.38398 0.0
H290 H 0.83542 0.15865 0.39697 0.0
H291 H 0.79715 0.22184 0.37475 0.0
H292 H 0.78441 0.29451 0.59512 0.0
H293 H 0.73929 0.35285 0.57114 0.0
H294 H 0.7864 0.19341 0.58981 0.0
H295 H 0.82351 0.13591 0.55564 0.0
C296 C 0.38068 0.3248 0.55573 0.0
C297 C 0.37268 0.35937 0.51769 0.0
C298 C 0.26372 0.27291 0.49407 0.0
C299 C 0.26809 0.24159 0.53371 0.0
N300 N 0.31924 0.24503 0.60624 0.0
N301 N 0.3008 0.37166 0.45323 0.0
C302 C 0.32319 0.26978 0.56571 0.0
C303 C 0.31199 0.33527 0.48776 0.0
N304 N 0.44368 0.34358 0.58219 0.0
N305 N 0.2159 0.2417 0.46182 0.0
H306 H 0.33742 0.41577 0.44621 0.0
H307 H 0.25246 0.36041 0.43309 0.0
H308 H 0.18035 0.19598 0.46551 0.0
H309 H 0.21588 0.25829 0.43046 0.0
H310 H 0.45725 0.31504 0.60699 0.0
H311 H 0.48582 0.38528 0.57781 0.0
H312 H 0.35197 0.26836 0.63246 0.0
H313 H 0.27796 0.20457 0.61496 0.0
C314 C 0.15907 0.66881 0.49867 0.0
C315 C 0.23667 0.68082 0.48335 0.0
C316 C 0.20514 0.76268 0.43487 0.0
C317 C 0.13272 0.75993 0.45642 0.0
N318 N 0.03449 0.70602 0.50401 0.0
N319 N 0.33561 0.73874 0.43736 0.0
C320 C 0.10713 0.71062 0.48637 0.0
C321 C 0.25982 0.72641 0.45067 0.0
N322 N 0.13654 0.61804 0.52556 0.0
N323 N 0.22178 0.80137 0.4 0.0
H324 H 0.37731 0.71314 0.44833 0.0
H325 H 0.35854 0.77698 0.41749 0.0
H326 H 0.18247 0.82877 0.38815 0.0
H327 H 0.27082 0.8016 0.38047 0.0
H328 H 0.07996 0.60351 0.53663 0.0
H329 H 0.17466 0.58742 0.53459 0.0
H330 H 0.01383 0.6759 0.52927 0.0
H331 H 0.99457 0.73356 0.49304 0.0
C332 C 0.9695 0.99236 0.16067 0.0
C333 C 0.03498 0.02596 0.13806 0.0
C334 C 0.10014 0.06305 0.20718 0.0
C335 C 0.03755 0.02482 0.22937 0.0
N336 N 0.9191 0.9442 0.22769 0.0
N337 N 0.16599 0.08795 0.13868 0.0
C338 C 0.97389 0.98706 0.20625 0.0
C339 C 0.10156 0.05944 0.16099 0.0
N340 N 0.90271 0.96608 0.13877 0.0
N341 N 0.15657 0.10474 0.23033 0.0
H342 H 0.16792 0.09005 0.10494 0.0
H343 H 0.21932 0.10619 0.15329 0.0
H344 H 0.1575 0.10855 0.26422 0.0
H345 H 0.19906 0.13942 0.21623 0.0
H346 H 0.85038 0.94827 0.15418 0.0
H347 H 0.8976 0.96582 0.10513 0.0
H348 H 0.87639 0.90955 0.21197 0.0
H349 H 0.92008 0.93917 0.26119 0.0
C350 C 1.00206 0.96511 0.85556 0.0
C351 C 0.01035 0.02744 0.87873 0.0
C352 C 0.02033 0.08337 0.80995 0.0
C353 C 0.02319 0.02191 0.78737 0.0
N354 N 0.0263 0.90491 0.7887 0.0
N355 N 0.03517 0.14701 0.87873 0.0
C356 C 0.01615 0.9628 0.81013 0.0
C357 C 0.02073 0.08701 0.85618 0.0
N358 N 0.97863 0.90809 0.87685 0.0
N359 N 0.01631 0.13797 0.78712 0.0
H360 H 0.0362 0.15204 0.91257 0.0
H361 H 0.05215 0.19182 0.86397 0.0
H362 H 0.01646 0.1369 0.75321 0.0
H363 H 0.00607 0.18259 0.80157 0.0
H364 H 0.96376 0.86161 0.86097 0.0
H365 H 0.9665 0.90784 0.91008 0.0
H366 H 0.03101 0.86221 0.80452 0.0
H367 H 0.03644 0.90076 0.75532 0.0
C368 C 0.60253 0.56007 0.66138 0.0
C369 C 0.53594 0.52656 0.63847 0.0
C370 C 0.47497 0.4876 0.70668 0.0
C371 C 0.53863 0.52539 0.72978 0.0
N372 N 0.65764 0.60532 0.73071 0.0
N373 N 0.40367 0.46666 0.63924 0.0
C374 C 0.60118 0.56365 0.70757 0.0
C375 C 0.4705 0.49293 0.66111 0.0
N376 N 0.6669 0.58865 0.63904 0.0
N377 N 0.42025 0.44468 0.72812 0.0
H378 H 0.39849 0.46641 0.60561 0.0
H379 H 0.35137 0.44885 0.65468 0.0
H380 H 0.42129 0.43961 0.76161 0.0
H381 H 0.37756 0.41001 0.7124 0.0
H382 H 0.72024 0.60693 0.65363 0.0
H383 H 0.66875 0.59079 0.6053 0.0
H384 H 0.70011 0.64002 0.71661 0.0
H385 H 0.65863 0.60909 0.7646 0.0
C386 C 0.50267 0.46541 0.35601 0.0
C387 C 0.51055 0.52775 0.37914 0.0
C388 C 0.51957 0.58349 0.31031 0.0
C389 C 0.52288 0.52209 0.28776 0.0
N390 N 0.52731 0.40533 0.28918 0.0
N391 N 0.53445 0.64731 0.37902 0.0
C392 C 0.51659 0.46309 0.31056 0.0
C393 C 0.52029 0.58724 0.35654 0.0
N394 N 0.47978 0.40835 0.37735 0.0
N395 N 0.51481 0.63792 0.28746 0.0
H396 H 0.53579 0.65243 0.41285 0.0
H397 H 0.55094 0.69211 0.36419 0.0
H398 H 0.51467 0.63677 0.25356 0.0
H399 H 0.50421 0.68243 0.30192 0.0
H400 H 0.46522 0.36182 0.3615 0.0
H401 H 0.46773 0.40808 0.41059 0.0
H402 H 0.53255 0.36279 0.30504 0.0
H403 H 0.53743 0.40119 0.2558 0.0
loop_
_geom_bond_atom_site_label_1
_geom_bond_atom_site_label_2
_geom_bond_distance
_geom_bond_site_symmetry_2
_ccdc_geom_bond_type
Co0 N5 2.057 . S
Co0 O17 2.021 . S
Co0 O20 2.062 1_455 S
Co0 O24 2.117 1_554 S
Co0 O25 2.020 1_565 S
C1 O21 1.259 1_455 S
C1 O24 1.258 1_545 S
Co2 N11 2.057 . S
Co2 O18 2.117 . S
Co2 O19 2.020 1_545 S
Co2 O21 2.021 1_554 S
Co2 O26 2.062 1_655 S
C3 N5 1.316 . S
C3 N6 1.347 . S
C3 H8 0.931 . S
C4 N5 1.375 1_556 S
C4 C7 1.350 . S
C4 H9 0.930 . S
N5 Co0 2.057 . S
N5 C3 1.316 . S
N5 C4 1.375 1_554 S
N6 C3 1.347 . S
N6 C7 1.373 1_554 S
C7 C4 1.350 . S
C7 N6 1.373 1_556 S
C7 H28 0.931 . S
H8 C3 0.931 . S
H9 C4 0.930 . S
C10 O17 1.259 1_545 S
C10 O18 1.258 1_455 S
N11 Co2 2.057 . S
N11 C12 1.316 . S
N11 C13 1.375 . S
C12 N11 1.316 . S
C12 N14 1.347 . S
C12 H23 0.931 1_554 S
C13 N11 1.375 . S
C13 C15 1.350 . S
C13 H22 0.930 . S
N14 C12 1.347 . S
N14 C15 1.373 . S
C15 C13 1.350 . S
C15 N14 1.373 . S
C15 H29 0.931 . S
C16 O19 1.256 . S
C16 O20 1.255 . S
O17 Co0 2.021 . S
O17 C10 1.259 1_565 S
O18 Co2 2.117 . S
O18 C10 1.258 1_655 S
O19 Co2 2.020 1_565 S
O19 C16 1.256 . S
O20 Co0 2.062 1_655 S
O20 C16 1.255 . S
O21 C1 1.259 1_655 S
O21 Co2 2.021 1_556 S
H22 C13 0.930 . S
H23 C12 0.931 1_556 S
O24 Co0 2.117 1_556 S
O24 C1 1.258 1_565 S
O25 Co0 2.020 1_545 S
O25 C27 1.256 . S
O26 Co2 2.062 1_455 S
O26 C27 1.255 . S
C27 O25 1.256 . S
C27 O26 1.255 . S
H28 C7 0.931 . S
H29 C15 0.931 . S
Co30 N35 2.057 . S
Co30 O47 2.021 . S
Co30 O50 2.062 . S
Co30 O54 2.117 . S
Co30 O55 2.020 . S
C31 O51 1.259 . S
C31 O54 1.258 . S
Co32 N41 2.057 . S
Co32 O48 2.117 . S
Co32 O49 2.020 . S
Co32 O51 2.021 . S
Co32 O56 2.062 . S
C33 N35 1.316 . S
C33 N36 1.347 . S
C33 H38 0.931 . S
C34 N35 1.375 . S
C34 C37 1.350 . S
C34 H39 0.930 . S
N35 Co30 2.057 . S
N35 C33 1.316 . S
N35 C34 1.375 . S
N36 C33 1.347 . S
N36 C37 1.373 . S
C37 C34 1.350 . S
C37 N36 1.373 . S
C37 H58 0.931 . S
H38 C33 0.931 . S
H39 C34 0.930 . S
C40 O47 1.259 . S
C40 O48 1.258 . S
N41 Co32 2.057 . S
N41 C42 1.316 . S
N41 C43 1.375 . S
C42 N41 1.316 . S
C42 N44 1.347 . S
C42 H53 0.931 . S
C43 N41 1.375 . S
C43 C45 1.350 . S
C43 H52 0.930 . S
N44 C42 1.347 . S
N44 C45 1.373 . S
C45 C43 1.350 . S
C45 N44 1.373 . S
C45 H59 0.931 . S
C46 O49 1.256 . S
C46 O50 1.255 . S
O47 Co30 2.021 . S
O47 C40 1.259 . S
O48 Co32 2.117 . S
O48 C40 1.258 . S
O49 Co32 2.020 . S
O49 C46 1.256 . S
O50 Co30 2.062 . S
O50 C46 1.255 . S
O51 C31 1.259 . S
O51 Co32 2.021 . S
H52 C43 0.930 . S
H53 C42 0.931 . S
O54 Co30 2.117 . S
O54 C31 1.258 . S
O55 Co30 2.020 . S
O55 C57 1.256 . S
O56 Co32 2.062 . S
O56 C57 1.255 . S
C57 O55 1.256 . S
C57 O56 1.255 . S
H58 C37 0.931 . S
H59 C45 0.931 . S
P60 O71 1.490 . S
P60 C74 1.812 . S
P60 C80 1.803 1_545 S
P60 C86 1.819 . S
H61 C75 0.941 . S
H62 C76 0.939 . S
H63 C78 0.940 . S
H64 C79 0.940 . S
H65 C81 0.939 1_545 S
H66 C82 0.942 . S
H67 C84 0.940 . S
H68 C85 0.928 1_655 S
H69 C87 0.941 . S
H70 C91 0.939 . S
O71 P60 1.490 . S
H72 C88 0.939 . S
H73 C90 0.940 . S
C74 P60 1.812 . S
C74 C75 1.389 . S
C74 C79 1.391 1_455 S
C75 H61 0.941 . S
C75 C74 1.389 . S
C75 C76 1.397 1_455 S
C76 H62 0.939 . S
C76 C75 1.397 1_655 S
C76 C77 1.378 . S
C77 C76 1.378 . S
C77 C78 1.378 . S
C78 H63 0.940 . S
C78 C77 1.378 . S
C78 C79 1.396 . S
C79 H64 0.940 . S
C79 C74 1.391 1_655 S
C79 C78 1.396 . S
C80 P60 1.803 1_565 S
C80 C81 1.378 . S
C80 C85 1.400 . S
C81 H65 0.939 1_565 S
C81 C80 1.378 . S
C81 C82 1.361 . S
C82 H66 0.942 . S
C82 C81 1.361 . S
C82 C83 1.369 . S
C83 C82 1.369 . S
C83 C84 1.404 . S
C84 H67 0.940 . S
C84 C83 1.404 . S
C84 C85 1.389 . S
C85 H68 0.928 1_455 S
C85 C80 1.400 . S
C85 C84 1.389 . S
C86 P60 1.819 . S
C86 C87 1.391 . S
C86 C91 1.391 1_545 S
C87 H69 0.941 . S
C87 C86 1.391 . S
C87 C88 1.396 . S
C88 H72 0.939 . S
C88 C87 1.396 . S
C88 C89 1.397 . S
C89 C88 1.397 . S
C89 C90 1.385 1_545 S
C90 H73 0.940 . S
C90 C89 1.385 1_565 S
C90 C91 1.388 . S
C91 H70 0.939 . S
C91 C86 1.391 1_565 S
C91 C90 1.388 . S
P92 O103 1.490 . S
P92 C106 1.812 1_455 S
P92 C112 1.803 1_565 S
P92 C118 1.819 . S
H93 C107 0.941 1_455 S
H94 C108 0.939 . S
H95 C110 0.940 . S
H96 C111 0.940 . S
H97 C113 0.939 . S
H98 C114 0.942 . S
H99 C116 0.940 . S
H100 C117 0.939 . S
H101 C119 0.941 . S
H102 C123 0.939 . S
O103 P92 1.490 . S
H104 C120 0.939 . S
H105 C122 0.940 . S
C106 P92 1.812 1_655 S
C106 C107 1.389 . S
C106 C111 1.391 . S
C107 H93 0.941 1_655 S
C107 C106 1.389 . S
C107 C108 1.397 . S
C108 H94 0.939 . S
C108 C107 1.397 . S
C108 C109 1.378 . S
C109 C108 1.378 . S
C109 C110 1.378 . S
C110 H95 0.940 . S
C110 C109 1.378 . S
C110 C111 1.396 . S
C111 H96 0.940 . S
C111 C106 1.391 . S
C111 C110 1.396 . S
C112 P92 1.803 1_545 S
C112 C113 1.378 . S
C112 C117 1.400 . S
C113 H97 0.939 . S
C113 C112 1.378 . S
C113 C114 1.361 . S
C114 H98 0.942 . S
C114 C113 1.361 . S
C114 C115 1.369 . S
C115 C114 1.369 . S
C115 C116 1.404 . S
C116 H99 0.940 . S
C116 C115 1.404 . S
C116 C117 1.389 . S
C117 H100 0.939 . S
C117 C112 1.400 . S
C117 C116 1.389 . S
C118 P92 1.819 . S
C118 C119 1.391 . S
C118 C123 1.391 1_565 S
C119 H101 0.941 . S
C119 C118 1.391 . S
C119 C120 1.396 . S
C120 H104 0.939 . S
C120 C119 1.396 . S
C120 C121 1.397 1_565 S
C121 C120 1.397 1_545 S
C121 C122 1.385 . S
C122 H105 0.940 . S
C122 C121 1.385 . S
C122 C123 1.388 . S
C123 H102 0.939 . S
C123 C118 1.391 1_545 S
C123 C122 1.388 . S
P124 O135 1.490 . S
P124 C138 1.812 . S
P124 C144 1.803 . S
P124 C150 1.819 . S
H125 C139 0.941 . S
H126 C140 0.939 . S
H127 C142 0.940 . S
H128 C143 0.940 . S
H129 C145 0.939 . S
H130 C146 0.942 . S
H131 C148 0.940 1_554 S
H132 C149 0.939 . S
H133 C151 0.941 . S
H134 C155 0.939 . S
O135 P124 1.490 . S
H136 C152 0.939 . S
H137 C154 0.940 . S
C138 P124 1.812 . S
C138 C139 1.389 . S
C138 C143 1.391 . S
C139 H125 0.941 . S
C139 C138 1.389 . S
C139 C140 1.397 1_556 S
C140 H126 0.939 . S
C140 C139 1.397 1_554 S
C140 C141 1.378 1_554 S
C141 C140 1.378 1_556 S
C141 C142 1.378 . S
C142 H127 0.940 . S
C142 C141 1.378 . S
C142 C143 1.396 . S
C143 H128 0.940 . S
C143 C138 1.391 . S
C143 C142 1.396 . S
C144 P124 1.803 . S
C144 C145 1.378 . S
C144 C149 1.400 . S
C145 H129 0.939 . S
C145 C144 1.378 . S
C145 C146 1.361 . S
C146 H130 0.942 . S
C146 C145 1.361 . S
C146 C147 1.369 . S
C147 C146 1.369 . S
C147 C148 1.404 . S
C148 H131 0.940 1_556 S
C148 C147 1.404 . S
C148 C149 1.389 . S
C149 H132 0.939 . S
C149 C144 1.400 . S
C149 C148 1.389 . S
C150 P124 1.819 . S
C150 C151 1.391 . S
C150 C155 1.391 . S
C151 H133 0.941 . S
C151 C150 1.391 . S
C151 C152 1.396 . S
C152 H136 0.939 . S
C152 C151 1.396 . S
C152 C153 1.397 . S
C153 C152 1.397 . S
C153 C154 1.385 . S
C154 H137 0.940 . S
C154 C153 1.385 . S
C154 C155 1.388 . S
C155 H134 0.939 . S
C155 C150 1.391 . S
C155 C154 1.388 . S
P156 O167 1.490 . S
P156 C170 1.812 . S
P156 C176 1.803 . S
P156 C182 1.819 . S
H157 C171 0.941 . S
H158 C172 0.939 1_556 S
H159 C174 0.940 . S
H160 C175 0.940 . S
H161 C177 0.939 . S
H162 C178 0.942 . S
H163 C180 0.940 . S
H164 C181 0.939 . S
H165 C183 0.941 . S
H166 C187 0.939 . S
O167 P156 1.490 . S
H168 C184 0.939 . S
H169 C186 0.940 . S
C170 P156 1.812 . S
C170 C171 1.389 . S
C170 C175 1.391 . S
C171 H157 0.941 . S
C171 C170 1.389 . S
C171 C172 1.397 . S
C172 H158 0.939 1_554 S
C172 C171 1.397 . S
C172 C173 1.378 . S
C173 C172 1.378 . S
C173 C174 1.378 . S
C174 H159 0.940 . S
C174 C173 1.378 . S
C174 C175 1.396 . S
C175 H160 0.940 . S
C175 C170 1.391 . S
C175 C174 1.396 . S
C176 P156 1.803 . S
C176 C177 1.378 . S
C176 C181 1.400 . S
C177 H161 0.939 . S
C177 C176 1.378 . S
C177 C178 1.361 . S
C178 H162 0.942 . S
C178 C177 1.361 . S
C178 C179 1.369 . S
C179 C178 1.369 . S
C179 C180 1.404 . S
C180 H163 0.940 . S
C180 C179 1.404 . S
C180 C181 1.389 . S
C181 H164 0.939 . S
C181 C176 1.400 . S
C181 C180 1.389 . S
C182 P156 1.819 . S
C182 C183 1.391 . S
C182 C187 1.391 . S
C183 H165 0.941 . S
C183 C182 1.391 . S
C183 C184 1.396 . S
C184 H168 0.939 . S
C184 C183 1.396 . S
C184 C185 1.397 . S
C185 C184 1.397 . S
C185 C186 1.385 . S
C186 H169 0.940 . S
C186 C185 1.385 . S
C186 C187 1.388 . S
C187 H166 0.939 . S
C187 C182 1.391 . S
C187 C186 1.388 . S
C188 C189 1.363 . S
C188 C194 1.379 . S
C188 N196 1.356 . S
C189 C188 1.363 . S
C189 C195 1.363 1_554 S
C190 C191 1.363 1_556 S
C190 C195 1.379 . S
C190 N197 1.356 . S
C191 C190 1.363 1_554 S
C191 C194 1.363 . S
N192 C194 1.356 . S
N192 H204 0.984 . S
N192 H205 0.985 . S
N193 C195 1.356 . S
N193 H198 0.984 . S
N193 H199 0.985 . S
C194 C188 1.379 . S
C194 C191 1.363 . S
C194 N192 1.356 . S
C195 C189 1.363 1_556 S
C195 C190 1.379 . S
C195 N193 1.356 . S
N196 C188 1.356 . S
N196 H202 0.984 . S
N196 H203 0.984 . S
N197 C190 1.356 . S
N197 H200 0.984 . S
N197 H201 0.985 . S
H198 N193 0.984 . S
H199 N193 0.985 . S
H200 N197 0.984 . S
H201 N197 0.985 . S
H202 N196 0.984 . S
H203 N196 0.984 . S
H204 N192 0.984 . S
H205 N192 0.985 . S
C206 C207 1.363 . S
C206 C212 1.379 . S
C206 N214 1.356 . S
C207 C206 1.363 . S
C207 C213 1.363 1_554 S
C208 C209 1.363 1_556 S
C208 C213 1.379 . S
C208 N215 1.356 . S
C209 C208 1.363 1_554 S
C209 C212 1.363 . S
N210 C212 1.356 . S
N210 H222 0.984 . S
N210 H223 0.985 . S
N211 C213 1.356 . S
N211 H216 0.984 . S
N211 H217 0.985 . S
C212 C206 1.379 . S
C212 C209 1.363 . S
C212 N210 1.356 . S
C213 C207 1.363 1_556 S
C213 C208 1.379 . S
C213 N211 1.356 . S
N214 C206 1.356 . S
N214 H220 0.984 . S
N214 H221 0.984 . S
N215 C208 1.356 . S
N215 H218 0.984 . S
N215 H219 0.985 . S
H216 N211 0.984 . S
H217 N211 0.985 . S
H218 N215 0.984 . S
H219 N215 0.985 . S
H220 N214 0.984 . S
H221 N214 0.984 . S
H222 N210 0.984 . S
H223 N210 0.985 . S
C224 C225 1.363 1_556 S
C224 C230 1.379 . S
C224 N232 1.356 . S
C225 C224 1.363 1_554 S
C225 C231 1.363 . S
C226 C227 1.363 . S
C226 C231 1.379 . S
C226 N233 1.356 . S
C227 C226 1.363 . S
C227 C230 1.363 1_554 S
N228 C230 1.356 . S
N228 H240 0.984 . S
N228 H241 0.985 . S
N229 C231 1.356 . S
N229 H234 0.984 . S
N229 H235 0.985 . S
C230 C224 1.379 . S
C230 C227 1.363 1_556 S
C230 N228 1.356 . S
C231 C225 1.363 . S
C231 C226 1.379 . S
C231 N229 1.356 . S
N232 C224 1.356 . S
N232 H238 0.984 . S
N232 H239 0.984 . S
N233 C226 1.356 . S
N233 H236 0.984 . S
N233 H237 0.985 . S
H234 N229 0.984 . S
H235 N229 0.985 . S
H236 N233 0.984 . S
H237 N233 0.985 . S
H238 N232 0.984 . S
H239 N232 0.984 . S
H240 N228 0.984 . S
H241 N228 0.985 . S
C242 C243 1.363 1_556 S
C242 C248 1.379 . S
C242 N250 1.356 . S
C243 C242 1.363 1_554 S
C243 C249 1.363 . S
C244 C245 1.363 . S
C244 C249 1.379 . S
C244 N251 1.356 . S
C245 C244 1.363 . S
C245 C248 1.363 1_554 S
N246 C248 1.356 . S
N246 H258 0.984 . S
N246 H259 0.985 . S
N247 C249 1.356 . S
N247 H252 0.984 . S
N247 H253 0.985 . S
C248 C242 1.379 . S
C248 C245 1.363 1_556 S
C248 N246 1.356 . S
C249 C243 1.363 . S
C249 C244 1.379 . S
C249 N247 1.356 . S
N250 C242 1.356 . S
N250 H256 0.984 . S
N250 H257 0.984 . S
N251 C244 1.356 . S
N251 H254 0.984 . S
N251 H255 0.985 . S
H252 N247 0.984 . S
H253 N247 0.985 . S
H254 N251 0.984 . S
H255 N251 0.985 . S
H256 N250 0.984 . S
H257 N250 0.984 . S
H258 N246 0.984 . S
H259 N246 0.985 . S
C260 C261 1.363 . S
C260 C266 1.379 . S
C260 N268 1.356 . S
C261 C260 1.363 . S
C261 C267 1.363 . S
C262 C263 1.363 . S
C262 C267 1.379 . S
C262 N269 1.356 . S
C263 C262 1.363 . S
C263 C266 1.363 . S
N264 C266 1.356 . S
N264 H276 0.984 . S
N264 H277 0.985 . S
N265 C267 1.356 . S
N265 H270 0.984 . S
N265 H271 0.985 . S
C266 C260 1.379 . S
C266 C263 1.363 . S
C266 N264 1.356 . S
C267 C261 1.363 . S
C267 C262 1.379 . S
C267 N265 1.356 . S
N268 C260 1.356 . S
N268 H274 0.984 . S
N268 H275 0.984 . S
N269 C262 1.356 . S
N269 H272 0.984 . S
N269 H273 0.985 . S
H270 N265 0.984 . S
H271 N265 0.985 . S
H272 N269 0.984 . S
H273 N269 0.985 . S
H274 N268 0.984 . S
H275 N268 0.984 . S
H276 N264 0.984 . S
H277 N264 0.985 . S
C278 C279 1.363 . S
C278 C284 1.379 . S
C278 N286 1.356 . S
C279 C278 1.363 . S
C279 C285 1.363 . S
C280 C281 1.363 . S
C280 C285 1.379 . S
C280 N287 1.356 . S
C281 C280 1.363 . S
C281 C284 1.363 . S
N282 C284 1.356 . S
N282 H294 0.984 . S
N282 H295 0.985 . S
N283 C285 1.356 . S
N283 H288 0.984 . S
N283 H289 0.985 . S
C284 C278 1.379 . S
C284 C281 1.363 . S
C284 N282 1.356 . S
C285 C279 1.363 . S
C285 C280 1.379 . S
C285 N283 1.356 . S
N286 C278 1.356 . S
N286 H292 0.984 . S
N286 H293 0.984 . S
N287 C280 1.356 . S
N287 H290 0.984 . S
N287 H291 0.985 . S
H288 N283 0.984 . S
H289 N283 0.985 . S
H290 N287 0.984 . S
H291 N287 0.985 . S
H292 N286 0.984 . S
H293 N286 0.984 . S
H294 N282 0.984 . S
H295 N282 0.985 . S
C296 C297 1.363 . S
C296 C302 1.379 . S
C296 N304 1.356 . S
C297 C296 1.363 . S
C297 C303 1.363 . S
C298 C299 1.363 . S
C298 C303 1.379 . S
C298 N305 1.356 . S
C299 C298 1.363 . S
C299 C302 1.363 . S
N300 C302 1.356 . S
N300 H312 0.984 . S
N300 H313 0.985 . S
N301 C303 1.356 . S
N301 H306 0.984 . S
N301 H307 0.985 . S
C302 C296 1.379 . S
C302 C299 1.363 . S
C302 N300 1.356 . S
C303 C297 1.363 . S
C303 C298 1.379 . S
C303 N301 1.356 . S
N304 C296 1.356 . S
N304 H310 0.984 . S
N304 H311 0.984 . S
N305 C298 1.356 . S
N305 H308 0.984 . S
N305 H309 0.985 . S
H306 N301 0.984 . S
H307 N301 0.985 . S
H308 N305 0.984 . S
H309 N305 0.985 . S
H310 N304 0.984 . S
H311 N304 0.984 . S
H312 N300 0.984 . S
H313 N300 0.985 . S
C314 C315 1.363 . S
C314 C320 1.379 . S
C314 N322 1.356 . S
C315 C314 1.363 . S
C315 C321 1.363 . S
C316 C317 1.363 . S
C316 C321 1.379 . S
C316 N323 1.356 . S
C317 C316 1.363 . S
C317 C320 1.363 . S
N318 C320 1.356 . S
N318 H330 0.984 . S
N318 H331 0.985 . S
N319 C321 1.356 . S
N319 H324 0.984 . S
N319 H325 0.985 . S
C320 C314 1.379 . S
C320 C317 1.363 . S
C320 N318 1.356 . S
C321 C315 1.363 . S
C321 C316 1.379 . S
C321 N319 1.356 . S
N322 C314 1.356 . S
N322 H328 0.984 . S
N322 H329 0.984 . S
N323 C316 1.356 . S
N323 H326 0.984 . S
N323 H327 0.985 . S
H324 N319 0.984 . S
H325 N319 0.985 . S
H326 N323 0.984 . S
H327 N323 0.985 . S
H328 N322 0.984 . S
H329 N322 0.984 . S
H330 N318 0.984 . S
H331 N318 0.985 . S
C332 C333 1.363 1_665 S
C332 C338 1.379 . S
C332 N340 1.356 . S
C333 C332 1.363 1_445 S
C333 C339 1.363 . S
C334 C335 1.363 . S
C334 C339 1.379 . S
C334 N341 1.356 . S
C335 C334 1.363 . S
C335 C338 1.363 1_445 S
N336 C338 1.356 . S
N336 H348 0.984 . S
N336 H349 0.985 . S
N337 C339 1.356 . S
N337 H342 0.984 . S
N337 H343 0.985 . S
C338 C332 1.379 . S
C338 C335 1.363 1_665 S
C338 N336 1.356 . S
C339 C333 1.363 . S
C339 C334 1.379 . S
C339 N337 1.356 . S
N340 C332 1.356 . S
N340 H346 0.984 . S
N340 H347 0.984 . S
N341 C334 1.356 . S
N341 H344 0.984 . S
N341 H345 0.985 . S
H342 N337 0.984 . S
H343 N337 0.985 . S
H344 N341 0.984 . S
H345 N341 0.985 . S
H346 N340 0.984 . S
H347 N340 0.984 . S
H348 N336 0.984 . S
H349 N336 0.985 . S
C350 C351 1.363 1_565 S
C350 C356 1.379 . S
C350 N358 1.356 . S
C351 C350 1.363 1_545 S
C351 C357 1.363 1_455 S
C352 C353 1.363 1_655 S
C352 C357 1.379 . S
C352 N359 1.356 . S
C353 C352 1.363 1_455 S
C353 C356 1.363 1_545 S
N354 C356 1.356 . S
N354 H366 0.984 . S
N354 H367 0.985 . S
N355 C357 1.356 . S
N355 H360 0.984 . S
N355 H361 0.985 . S
C356 C350 1.379 . S
C356 C353 1.363 1_565 S
C356 N354 1.356 . S
C357 C351 1.363 1_655 S
C357 C352 1.379 . S
C357 N355 1.356 . S
N358 C350 1.356 . S
N358 H364 0.984 . S
N358 H365 0.984 . S
N359 C352 1.356 . S
N359 H362 0.984 . S
N359 H363 0.985 . S
H360 N355 0.984 . S
H361 N355 0.985 . S
H362 N359 0.984 . S
H363 N359 0.985 . S
H364 N358 0.984 . S
H365 N358 0.984 . S
H366 N354 0.984 . S
H367 N354 0.985 . S
C368 C369 1.363 . S
C368 C374 1.379 . S
C368 N376 1.356 . S
C369 C368 1.363 . S
C369 C375 1.363 . S
C370 C371 1.363 . S
C370 C375 1.379 . S
C370 N377 1.356 . S
C371 C370 1.363 . S
C371 C374 1.363 . S
N372 C374 1.356 . S
N372 H384 0.984 . S
N372 H385 0.985 . S
N373 C375 1.356 . S
N373 H378 0.984 . S
N373 H379 0.985 . S
C374 C368 1.379 . S
C374 C371 1.363 . S
C374 N372 1.356 . S
C375 C369 1.363 . S
C375 C370 1.379 . S
C375 N373 1.356 . S
N376 C368 1.356 . S
N376 H382 0.984 . S
N376 H383 0.984 . S
N377 C370 1.356 . S
N377 H380 0.984 . S
N377 H381 0.985 . S
H378 N373 0.984 . S
H379 N373 0.985 . S
H380 N377 0.984 . S
H381 N377 0.985 . S
H382 N376 0.984 . S
H383 N376 0.984 . S
H384 N372 0.984 . S
H385 N372 0.985 . S
C386 C387 1.363 . S
C386 C392 1.379 . S
C386 N394 1.356 . S
C387 C386 1.363 . S
C387 C393 1.363 . S
C388 C389 1.363 . S
C388 C393 1.379 . S
C388 N395 1.356 . S
C389 C388 1.363 . S
C389 C392 1.363 . S
N390 C392 1.356 . S
N390 H402 0.984 . S
N390 H403 0.985 . S
N391 C393 1.356 . S
N391 H396 0.984 . S
N391 H397 0.985 . S
C392 C386 1.379 . S
C392 C389 1.363 . S
C392 N390 1.356 . S
C393 C387 1.363 . S
C393 C388 1.379 . S
C393 N391 1.356 . S
N394 C386 1.356 . S
N394 H400 0.984 . S
N394 H401 0.984 . S
N395 C388 1.356 . S
N395 H398 0.984 . S
N395 H399 0.985 . S
H396 N391 0.984 . S
H397 N391 0.985 . S
H398 N395 0.984 . S
H399 N395 0.985 . S
H400 N394 0.984 . S
H401 N394 0.984 . S
H402 N390 0.984 . S
H403 N390 0.985 . S
C191 C173 1.469 . S
C189 C27 1.523 . S
C207 N6 1.428 . S
C209 C141 1.427 1_554 S
C225 C16 1.513 . S
C227 C179 1.456 . S
C243 N14 1.443 . S
C245 C147 1.419 1_554 S
C261 C57 1.524 . S
C263 C109 1.469 . S
C279 N36 1.428 . S
C281 C77 1.427 . S
C299 C115 1.456 . S
C297 C46 1.513 . S
C317 C83 1.419 . S
C315 N44 1.443 . S
C333 C10 1.401 . S
C335 C89 1.370 . S
C351 C1 1.537 . S
C353 C121 1.506 . S
C371 C153 1.370 . S
C369 C40 1.401 . S
C387 C31 1.537 . S
C389 C185 1.506 . S
