# Generated by pormake.
# Topology anh, (6,3)-cn, num edge types: 1
# Building blocks:
#     Node 0, Type 0, BuildingBlock: GEDQOX_clean_sbu_0, # of connection points: 6
#     Node 1, Type 0, BuildingBlock: GEDQOX_clean_sbu_0, # of connection points: 6
#     Node 2, Type 0, BuildingBlock: GEDQOX_clean_sbu_0, # of connection points: 6
#     Node 3, Type 1, BuildingBlock: VETTIZ_charged_linker_0, # of connection points: 3
#     Node 4, Type 1, BuildingBlock: VETTIZ_charged_linker_0, # of connection points: 3
#     Node 5, Type 1, BuildingBlock: VETTIZ_charged_linker_0, # of connection points: 3
#     Node 6, Type 1, BuildingBlock: VETTIZ_charged_linker_0, # of connection points: 3
#     Node 7, Type 1, BuildingBlock: VETTIZ_charged_linker_0, # of connection points: 3
#     Node 8, Type 1, BuildingBlock: VETTIZ_charged_linker_0, # of connection points: 3
#     Edge 9, Type (0, 1), BuildingBlock: EZIPEK_clean_linker_0, # of connection points: 2
#     Edge 10, Type (0, 1), BuildingBlock: EZIPEK_clean_linker_0, # of connection points: 2
#     Edge 11, Type (0, 1), BuildingBlock: EZIPEK_clean_linker_0, # of connection points: 2
#     Edge 12, Type (0, 1), BuildingBlock: EZIPEK_clean_linker_0, # of connection points: 2
#     Edge 13, Type (0, 1), BuildingBlock: EZIPEK_clean_linker_0, # of connection points: 2
#     Edge 14, Type (0, 1), BuildingBlock: EZIPEK_clean_linker_0, # of connection points: 2
#     Edge 15, Type (0, 1), BuildingBlock: EZIPEK_clean_linker_0, # of connection points: 2
#     Edge 16, Type (0, 1), BuildingBlock: EZIPEK_clean_linker_0, # of connection points: 2
#     Edge 17, Type (0, 1), BuildingBlock: EZIPEK_clean_linker_0, # of connection points: 2
#     Edge 18, Type (0, 1), BuildingBlock: EZIPEK_clean_linker_0, # of connection points: 2
#     Edge 19, Type (0, 1), BuildingBlock: EZIPEK_clean_linker_0, # of connection points: 2
#     Edge 20, Type (0, 1), BuildingBlock: EZIPEK_clean_linker_0, # of connection points: 2
#     Edge 21, Type (0, 1), BuildingBlock: EZIPEK_clean_linker_0, # of connection points: 2
#     Edge 22, Type (0, 1), BuildingBlock: EZIPEK_clean_linker_0, # of connection points: 2
#     Edge 23, Type (0, 1), BuildingBlock: EZIPEK_clean_linker_0, # of connection points: 2
#     Edge 24, Type (0, 1), BuildingBlock: EZIPEK_clean_linker_0, # of connection points: 2
#     Edge 25, Type (0, 1), BuildingBlock: EZIPEK_clean_linker_0, # of connection points: 2
#     Edge 26, Type (0, 1), BuildingBlock: EZIPEK_clean_linker_0, # of connection points: 2
# Relax obj value: 0.213
# Max RMSD: 0.228
# Mean RMSD: 0.168
data_MOF--net-anh--node1-GEDQOX_clean_sbu_0--node2-VETTIZ_charged_linker_0--edge1-EZIPEK_clean_linker_0
_symmetry_space_group_name_H-M    P1
_symmetry_Int_Tables_number       1
_symmetry_cell_setting            triclinic
loop_
_symmetry_equiv_pos_as_xyz
'x, y, z'
_cell_length_a     28.842137
_cell_length_b     27.19744
_cell_length_c     52.921056
_cell_angle_alpha  92.504114
_cell_angle_beta   90.440237
_cell_angle_gamma 102.31292
loop_
_atom_site_label
_atom_site_type_symbol
_atom_site_fract_x
_atom_site_fract_y
_atom_site_fract_z
_atom_type_partial_charge
Nd0 Nd 0.09408 0.59477 0.15032 0.0
Nd1 Nd 1.07343 0.48147 0.14655 0.0
C2 C 0.13026 0.68933 0.14022 0.0
C3 C 0.1782 0.7227 0.14212 0.0
C4 C 0.21202 0.72087 0.1232 0.0
C5 C 0.25796 0.75057 0.12585 0.0
C6 C 0.27079 0.7826 0.14741 0.0
C7 C 0.23687 0.7856 0.16594 0.0
C8 C 0.19097 0.75607 0.16329 0.0
C9 C 0.08315 0.55282 0.19616 0.0
C10 C 0.18896 0.53631 0.14877 0.0
C11 C 1.04138 0.38565 0.15599 0.0
C12 C 0.99576 0.35224 0.16212 0.0
C13 C 0.96789 0.36484 0.18211 0.0
C14 C 0.92643 0.33122 0.18868 0.0
C15 C 0.91195 0.28469 0.17528 0.0
C16 C 0.93883 0.2728 0.15478 0.0
C17 C 0.98055 0.30623 0.14835 0.0
C18 C 0.08578 0.52595 0.10134 0.0
C19 C 0.97877 0.54018 0.14793 0.0
O20 O 0.12398 0.65214 0.12308 0.0
O21 O 0.10932 0.67621 0.16153 0.0
O22 O 1.06909 0.59379 0.19115 0.0
O23 O 0.10469 0.53736 0.17774 0.0
O24 O 0.1726 0.57887 0.15008 0.0
O25 O 0.15729 0.49247 0.14763 0.0
O26 O 1.06034 0.42012 0.1733 0.0
O27 O 1.0457 0.40192 0.13304 0.0
O28 O 0.10089 0.48528 0.10578 0.0
O29 O 1.06275 0.53899 0.11964 0.0
O30 O 0.9948 0.49752 0.14929 0.0
O31 O 1.01069 0.58358 0.14689 0.0
H32 H 0.20328 0.69601 0.10651 0.0
H33 H 0.28369 0.74804 0.11131 0.0
H34 H 0.24617 0.81042 0.18262 0.0
H35 H 0.16566 0.75884 0.17802 0.0
H36 H 0.9785 0.40024 0.19296 0.0
H37 H 0.90604 0.34107 0.2045 0.0
H38 H 0.9281 0.23709 0.14421 0.0
H39 H 1.00139 0.29579 0.13285 0.0
Nd40 Nd 0.52244 0.95916 0.50965 0.0
Nd41 Nd 0.62643 0.98164 0.49762 0.0
C42 C 0.43719 0.92521 0.52794 0.0
C43 C 0.40018 0.87994 0.52222 0.0
C44 C 0.36923 0.85926 0.54116 0.0
C45 C 0.3341 0.81591 0.5357 0.0
C46 C 0.32947 0.79335 0.51119 0.0
C47 C 0.36088 0.81363 0.49239 0.0
C48 C 0.39626 0.85646 0.49791 0.0
C49 C 0.5402 0.96335 0.4589 0.0
C50 C 0.57845 0.8644 0.50307 0.0
C51 C 0.70945 1.01563 0.47707 0.0
C52 C 0.74263 0.065 0.47664 0.0
C53 C 0.72799 0.1075 0.4683 0.0
C54 C 0.75911 0.15449 0.46935 0.0
C55 C 0.80558 0.16126 0.47974 0.0
C56 C 0.82091 0.11689 0.48574 0.0
C57 C 0.78965 0.06988 0.48477 0.0
C58 C 0.60872 0.97396 0.54824 0.0
C59 C 0.57272 0.07782 0.5079 0.0
O60 O 0.47601 0.91768 0.53846 0.0
O61 O 0.44548 0.95749 0.51008 0.0
O62 O 0.50425 0.97725 0.4692 0.0
O63 O 0.5624 0.94369 0.47481 0.0
O64 O 0.54204 0.88099 0.51263 0.0
O65 O 0.61332 0.89533 0.49211 0.0
O66 O 0.66893 1.01088 0.46483 0.0
O67 O 0.70499 0.99449 0.49892 0.0
O68 O 0.64345 0.9587 0.53715 0.0
O69 O 0.58684 0.99607 0.5331 0.0
O70 O 0.61056 0.06229 0.49947 0.0
O71 O 0.53511 0.04502 0.51518 0.0
H72 H 0.37221 0.87665 0.56008 0.0
H73 H 0.31019 0.80034 0.55041 0.0
H74 H 0.35792 0.79626 0.47346 0.0
H75 H 0.42042 0.87137 0.48316 0.0
H76 H 0.69253 0.10453 0.46071 0.0
H77 H 0.74622 0.18482 0.4612 0.0
H78 H 0.8572 0.11685 0.49057 0.0
H79 H 0.80241 0.0371 0.49024 0.0
Nd80 Nd 0.53357 0.49111 0.82785 0.0
Nd81 Nd 0.63905 0.51201 0.8429 0.0
C82 C 0.44966 0.46817 0.80505 0.0
C83 C 0.41537 0.49924 0.79891 0.0
C84 C 0.42863 0.54226 0.78454 0.0
C85 C 0.40109 0.57883 0.7849 0.0
C86 C 0.36084 0.57316 0.80011 0.0
C87 C 0.34486 0.5278 0.81208 0.0
C88 C 0.3718 0.49091 0.81134 0.0
C89 C 0.55209 0.50216 0.8787 0.0
C90 C 0.58721 0.6091 0.8343 0.0
C91 C 0.72035 0.54761 0.86685 0.0
C92 C 0.75452 0.59567 0.86566 0.0
C93 C 0.79071 0.60946 0.88398 0.0
C94 C 0.82463 0.65411 0.88205 0.0
C95 C 0.82251 0.68537 0.86183 0.0
C96 C 0.7853 0.67251 0.84397 0.0
C97 C 0.75145 0.62776 0.8459 0.0
C98 C 0.62229 0.50378 0.79168 0.0
C99 C 0.58712 0.39452 0.83338 0.0
O100 O 0.48955 0.47603 0.79266 0.0
O101 O 0.45589 0.46323 0.82926 0.0
O102 O 0.519 0.51997 0.8678 0.0
O103 O 0.57279 0.47817 0.86309 0.0
O104 O 0.54824 0.57748 0.82583 0.0
O105 O 0.62403 0.59276 0.84314 0.0
O106 O 0.71648 0.51823 0.84633 0.0
O107 O 0.67933 0.55032 0.87659 0.0
O108 O 0.65955 0.49317 0.80225 0.0
O109 O 0.59975 0.52404 0.80789 0.0
O110 O 0.6247 0.42569 0.84374 0.0
O111 O 0.55029 0.41139 0.82489 0.0
H112 H 0.46193 0.5496 0.77461 0.0
H113 H 0.41362 0.61355 0.7754 0.0
H114 H 0.31358 0.52266 0.82371 0.0
H115 H 0.36065 0.45787 0.82233 0.0
H116 H 0.79336 0.58518 0.89939 0.0
H117 H 0.85351 0.6635 0.89583 0.0
H118 H 0.78355 0.69603 0.82814 0.0
H119 H 0.72364 0.61741 0.83161 0.0
C120 C 0.71306 0.1154 0.20021 0.0
C121 C 0.75055 0.14589 0.21447 0.0
C122 C 0.751 0.14366 0.24097 0.0
C123 C 0.67753 0.08065 0.23885 0.0
C124 C 0.67685 0.08321 0.21279 0.0
C125 C 0.63394 0.0483 0.20077 0.0
H126 H 0.42806 0.87683 0.21578 0.0
C127 C 0.63528 0.04316 0.24608 0.0
C128 C 0.60942 0.02402 0.22385 0.0
H129 H 0.48671 0.93545 0.14576 0.0
H130 H 0.55534 0.98604 0.1686 0.0
H131 H 0.52426 0.85868 0.23865 0.0
H132 H 0.45115 0.98008 0.24784 0.0
H133 H 0.47289 0.97089 0.27793 0.0
H134 H 0.43126 0.92032 0.26167 0.0
H135 H 0.47358 0.85474 0.25847 0.0
H136 H 0.53311 0.87991 0.27044 0.0
C137 C 0.65115 1.0095 0.18293 0.0
C138 C 0.60387 0.08069 0.18745 0.0
C139 C 0.60615 1.00661 0.33894 0.0
C140 C 0.56936 0.97431 0.3511 0.0
C141 C 0.53281 0.94296 0.3366 0.0
C142 C 0.53221 0.94432 0.31022 0.0
C143 C 0.56854 0.97755 0.29819 0.0
C144 C 0.60496 1.00765 0.31247 0.0
C145 C 0.64033 0.04057 0.29627 0.0
C146 C 0.61893 0.02538 0.26999 0.0
C147 C 0.57689 0.98866 0.27134 0.0
C148 C 0.68891 0.02575 0.29964 0.0
C149 C 0.64046 0.09633 0.3038 0.0
C150 C 0.45584 0.90056 0.20545 0.0
C151 C 0.45228 0.90278 0.17915 0.0
C152 C 0.489 0.93367 0.16612 0.0
C153 C 0.52855 0.96291 0.17942 0.0
C154 C 0.53127 0.96095 0.20595 0.0
C155 C 0.49534 0.9297 0.21838 0.0
C156 C 0.50372 0.93169 0.24643 0.0
C157 C 0.55039 0.96976 0.24901 0.0
C158 C 0.56652 0.98706 0.22533 0.0
C159 C 0.50864 0.8786 0.25413 0.0
C160 C 0.46265 0.95139 0.25935 0.0
H161 H 0.71725 0.11113 0.27346 0.0
H162 H 0.71216 0.11656 0.17978 0.0
H163 H 0.60361 0.11588 0.19894 0.0
H164 H 0.5662 0.06168 0.18503 0.0
H165 H 0.61851 0.09166 0.16867 0.0
H166 H 0.68216 0.99758 0.19144 0.0
H167 H 0.66223 0.02579 0.16448 0.0
H168 H 0.62412 0.97439 0.1795 0.0
H169 H 0.63456 0.03106 0.34984 0.0
H170 H 0.50427 0.91793 0.34581 0.0
H171 H 0.50309 0.91986 0.30028 0.0
H172 H 0.68415 0.98441 0.30163 0.0
H173 H 0.70805 0.04487 0.31686 0.0
H174 H 0.71203 0.03398 0.28315 0.0
H175 H 0.60434 0.10089 0.30919 0.0
H176 H 0.65028 0.12177 0.28811 0.0
H177 H 0.66469 0.11004 0.32022 0.0
H178 H 0.77975 0.16691 0.25216 0.0
C179 C 0.71476 0.11121 0.25323 0.0
C180 C 0.57291 0.61266 0.51965 0.0
C181 C 0.57482 0.66091 0.53142 0.0
C182 C 0.57599 0.66606 0.55794 0.0
C183 C 0.57394 0.57702 0.56105 0.0
C184 C 0.5724 0.57099 0.53495 0.0
C185 C 0.56996 0.51626 0.5265 0.0
H186 H 0.58213 0.2797 0.56362 0.0
C187 C 0.57282 0.52762 0.57185 0.0
C188 C 0.57038 0.49111 0.55182 0.0
H189 H 0.56193 0.31944 0.48699 0.0
H190 H 0.56246 0.4062 0.50183 0.0
H191 H 0.65141 0.38311 0.58749 0.0
H192 H 0.5015 0.32243 0.58129 0.0
H193 H 0.50776 0.3641 0.60794 0.0
H194 H 0.53518 0.3101 0.60791 0.0
H195 H 0.6202 0.32674 0.60151 0.0
H196 H 0.62591 0.38702 0.61755 0.0
C197 C 0.61427 0.51332 0.51089 0.0
C198 C 0.52302 0.49639 0.51164 0.0
C199 C 0.58786 0.51777 0.66749 0.0
C200 C 0.58311 0.47673 0.68329 0.0
C201 C 0.57053 0.42742 0.67246 0.0
C202 C 0.56618 0.41897 0.64624 0.0
C203 C 0.57305 0.46021 0.63057 0.0
C204 C 0.58135 0.50849 0.64128 0.0
C205 C 0.58127 0.54706 0.62173 0.0
C206 C 0.57421 0.51392 0.59742 0.0
C207 C 0.57107 0.4635 0.60281 0.0
C208 C 0.63042 0.58378 0.62286 0.0
C209 C 0.53863 0.57244 0.62696 0.0
C210 C 0.57861 0.30715 0.54988 0.0
C211 C 0.57298 0.29278 0.52414 0.0
C212 C 0.56711 0.32964 0.50698 0.0
C213 C 0.56715 0.37982 0.51563 0.0
C214 C 0.57165 0.3929 0.54178 0.0
C215 C 0.57618 0.35592 0.55824 0.0
C216 C 0.57359 0.37237 0.58536 0.0
C217 C 0.57065 0.42681 0.58296 0.0
C218 C 0.56994 0.43976 0.55744 0.0
C219 C 0.62 0.36699 0.59888 0.0
C220 C 0.52743 0.34063 0.59636 0.0
H221 H 0.57697 0.63183 0.59278 0.0
H222 H 0.5721 0.60775 0.49923 0.0
H223 H 0.4929 0.5073 0.52185 0.0
H224 H 0.51422 0.45493 0.50938 0.0
H225 H 0.52458 0.51227 0.4926 0.0
H226 H 0.64699 0.53323 0.52133 0.0
H227 H 0.61297 0.53131 0.49252 0.0
H228 H 0.61801 0.47423 0.50699 0.0
H229 H 0.5963 0.5561 0.67539 0.0
H230 H 0.56575 0.39532 0.68434 0.0
H231 H 0.55856 0.38057 0.63925 0.0
H232 H 0.65927 0.56272 0.62478 0.0
H233 H 0.63321 0.61101 0.63936 0.0
H234 H 0.63844 0.60502 0.60557 0.0
H235 H 0.51118 0.54895 0.63857 0.0
H236 H 0.51944 0.5775 0.60937 0.0
H237 H 0.55016 0.60953 0.6373 0.0
H238 H 0.57767 0.70266 0.56732 0.0
C239 C 0.57556 0.62472 0.57272 0.0
C240 C 0.23754 0.73407 0.85391 0.0
C241 C 0.26541 0.69792 0.85602 0.0
C242 C 0.2704 0.67749 0.87959 0.0
C243 C 0.21554 0.72403 0.89789 0.0
C244 C 0.21204 0.74584 0.87504 0.0
C245 C 0.17826 0.78116 0.87618 0.0
H246 H 0.9653 0.772 0.91337 0.0
C247 C 0.18273 0.74105 0.91567 0.0
C248 C 0.16059 0.77488 0.90332 0.0
H249 H 1.03634 0.85726 0.85272 0.0
H250 H 0.1133 0.85741 0.87283 0.0
H251 H 1.02979 0.69124 0.92457 0.0
H252 H 1.01257 0.82549 0.95628 0.0
H253 H 1.07098 0.831 0.96943 0.0
H254 H 1.022 0.78122 0.97799 0.0
H255 H 0.98303 0.71396 0.94068 0.0
H256 H 1.02907 0.69673 0.95852 0.0
C257 C 0.13843 0.76344 0.85576 0.0
C258 C 0.20713 0.83502 0.87256 0.0
C259 C 0.14112 0.64727 -0.00372 0.0
C260 C 0.11236 0.65551 0.01669 0.0
C261 C 0.09075 0.69745 0.01702 0.0
C262 C 0.09537 0.72882 -0.00359 0.0
C263 C 0.12044 0.71697 0.9753 0.0
C264 C 0.14569 0.67949 0.97615 0.0
C265 C 0.17839 0.68026 0.95412 0.0
C266 C 0.16703 0.72372 0.93968 0.0
C267 C 0.13084 0.74244 0.95159 0.0
C268 C 0.16315 0.62895 0.93922 0.0
C269 C 0.23039 0.69183 0.96433 0.0
C270 C 0.99752 0.79076 0.90445 0.0
C271 C 0.99561 0.81064 0.88049 0.0
C272 C 1.03752 0.8386 0.87031 0.0
C273 C 0.08162 0.83762 0.88145 0.0
C274 C 0.0828 0.80898 0.90274 0.0
C275 C 1.04171 0.79128 0.91555 0.0
C276 C 1.05108 0.76927 0.94019 0.0
C277 C 0.10424 0.77086 0.93798 0.0
C278 C 0.12137 0.79063 0.91485 0.0
C279 C 1.02166 0.7147 0.941 0.0
C280 C 1.0389 0.80353 0.96219 0.0
H281 H 0.25141 0.67398 0.91796 0.0
H282 H 0.2346 0.75131 0.83607 0.0
H283 H 0.24061 0.84255 0.88402 0.0
H284 H 0.1877 0.86409 0.87885 0.0
H285 H 0.21659 0.84023 0.85238 0.0
H286 H 0.15003 0.74181 0.83961 0.0
H287 H 0.12744 0.79547 0.84703 0.0
H288 H 0.10685 0.73848 0.86372 0.0
H289 H 0.16 0.61684 -0.00377 0.0
H290 H 1.07046 0.70575 0.03319 0.0
H291 H 0.08127 0.76225 -0.00233 0.0
H292 H 0.12403 0.61955 0.93595 0.0
H293 H 0.1728 0.59825 0.94994 0.0
H294 H 0.17886 0.62817 0.92036 0.0
H295 H 0.23355 0.70955 0.9838 0.0
H296 H 0.2542 0.71944 0.95287 0.0
H297 H 0.24453 0.65698 0.965 0.0
H298 H 0.29268 0.6504 0.88162 0.0
C299 C 0.24627 0.69101 0.90061 0.0
C300 C 0.96752 0.36763 0.45697 0.0
C301 C 0.93607 0.32791 0.44408 0.0
C302 C 0.93617 0.32375 0.4175 0.0
C303 C 0.99916 0.39866 0.41692 0.0
C304 C 0.99891 0.40223 0.44307 0.0
C305 C 1.03571 0.44578 0.4539 0.0
H306 H 0.21468 0.64546 0.43527 0.0
C307 C 1.03628 0.44057 0.40835 0.0
C308 C 1.05801 0.46802 0.42997 0.0
H309 H 0.15661 0.59147 0.50628 0.0
H310 H 0.10045 0.52406 0.48409 0.0
H311 H 0.212 0.53468 0.40705 0.0
H312 H 0.11862 0.63838 0.40858 0.0
H313 H 0.11146 0.60902 0.37823 0.0
H314 H 0.1688 0.64619 0.38822 0.0
H315 H 0.22526 0.59473 0.39285 0.0
H316 H 0.19257 0.53919 0.37579 0.0
C317 C 1.07122 0.42451 0.47014 0.0
C318 C 1.00987 0.48233 0.46857 0.0
C319 C 1.05931 0.4684 0.31436 0.0
C320 C 0.08847 0.50686 0.30131 0.0
C321 C 0.1218 0.54414 0.31489 0.0
C322 C 0.1254 0.54403 0.34124 0.0
C323 C 0.09503 0.50645 0.35421 0.0
C324 C 1.06281 0.46929 0.34083 0.0
C325 C 1.03235 0.43364 0.35804 0.0
C326 C 1.05126 0.456 0.38387 0.0
C327 C 0.08813 0.4984 0.38143 0.0
C328 C 1.04229 0.38041 0.35279 0.0
C329 C 0.97998 0.43704 0.35365 0.0
C330 C 0.19005 0.6186 0.44589 0.0
C331 C 0.18992 0.62279 0.47237 0.0
C332 C 0.15712 0.58819 0.48581 0.0
C333 C 0.12469 0.54935 0.47288 0.0
C334 C 0.12497 0.54556 0.44626 0.0
C335 C 0.15721 0.57999 0.43325 0.0
C336 C 0.15114 0.57156 0.40507 0.0
C337 C 0.11055 0.52567 0.40326 0.0
C338 C 0.09548 0.5106 0.4274 0.0
C339 C 0.19762 0.5597 0.3944 0.0
C340 C 0.13709 0.61863 0.39426 0.0
H341 H 0.96617 0.35401 0.38357 0.0
H342 H 0.96795 0.37125 0.47744 0.0
H343 H 0.97553 0.48339 0.4591 0.0
H344 H 1.02996 0.52178 0.46926 0.0
H345 H 1.00205 0.47042 0.48817 0.0
H346 H 1.07675 0.38806 0.46167 0.0
H347 H 1.05794 0.41766 0.48959 0.0
H348 H 0.10701 0.44915 0.47127 0.0
H349 H 1.03341 0.43941 0.30421 0.0
H350 H 0.14458 0.57391 0.30503 0.0
H351 H 0.15121 0.57371 0.35048 0.0
H352 H 0.08018 0.38266 0.34802 0.0
H353 H 1.02026 0.36038 0.33665 0.0
H354 H 1.03639 0.3569 0.36945 0.0
H355 H 0.97729 0.47667 0.35087 0.0
H356 H 0.95724 0.42526 0.36991 0.0
H357 H 0.96456 0.41409 0.33653 0.0
H358 H 0.91193 0.29316 0.40741 0.0
C359 C 0.96761 0.35901 0.40381 0.0
C360 C 0.59326 0.86146 0.81939 0.0
C361 C 0.59222 0.81368 0.80722 0.0
C362 C 0.5896 0.80922 0.78067 0.0
C363 C 0.59147 0.89829 0.77836 0.0
C364 C 0.59217 0.90331 0.80448 0.0
C365 C 0.59015 0.95683 0.81333 0.0
H366 H 0.60964 0.20159 0.77897 0.0
C367 C 0.59252 0.94803 0.76798 0.0
C368 C 0.59181 0.98325 0.78825 0.0
H369 H 0.57486 0.14717 0.85326 0.0
H370 H 0.57969 0.06204 0.83814 0.0
H371 H 0.68226 0.13029 0.75992 0.0
H372 H 0.53233 0.12325 0.75548 0.0
H373 H 0.5444 0.09014 0.72808 0.0
H374 H 0.57181 0.15621 0.7329 0.0
H375 H 0.65509 0.17164 0.74209 0.0
H376 H 0.6632 0.11233 0.72851 0.0
C377 C 0.63373 0.97905 0.83041 0.0
C378 C 0.54256 0.95504 0.82677 0.0
C379 C 0.60487 0.96447 0.67271 0.0
C380 C 0.60518 1.00498 0.65707 0.0
C381 C 0.604 0.05267 0.66814 0.0
C382 C 0.60313 0.0601 0.69446 0.0
C383 C 0.60219 0.01911 0.70994 0.0
C384 C 0.60254 0.97222 0.69897 0.0
C385 C 0.59872 0.93258 0.71821 0.0
C386 C 0.59624 0.96352 0.74264 0.0
C387 C 0.59899 1.01409 0.73765 0.0
C388 C 0.64467 0.91163 0.71697 0.0
C389 C 0.55209 0.89272 0.71264 0.0
C390 C 0.60378 0.17164 0.7922 0.0
C391 C 0.59274 0.18152 0.81739 0.0
C392 C 0.5841 0.14084 0.83378 0.0
C393 C 0.58634 0.09142 0.82491 0.0
C394 C 0.59541 0.08215 0.79916 0.0
C395 C 0.603 0.1223 0.78339 0.0
C396 C 0.60447 0.10627 0.75611 0.0
C397 C 0.59902 0.05004 0.75783 0.0
C398 C 0.59461 0.03524 0.78309 0.0
C399 C 0.65362 0.1315 0.74589 0.0
C400 C 0.56139 0.1198 0.74224 0.0
H401 H 0.58798 0.84437 0.74619 0.0
H402 H 0.59473 0.86588 0.83983 0.0
H403 H 0.51301 0.92963 0.81596 0.0
H404 H 0.53285 0.99211 0.8282 0.0
H405 H 0.54371 0.94069 0.84605 0.0
H406 H 0.66691 0.97523 0.82069 0.0
H407 H 0.63199 0.95902 0.84835 0.0
H408 H 0.63666 0.01949 0.83522 0.0
H409 H 0.60534 0.92732 0.66458 0.0
H410 H 0.60407 0.08425 0.65634 0.0
H411 H 0.60317 0.09754 0.70166 0.0
H412 H 0.67618 0.94244 0.71415 0.0
H413 H 0.64282 0.88344 0.70096 0.0
H414 H 0.65264 0.89454 0.73457 0.0
H415 H 0.52548 0.90882 0.70229 0.0
H416 H 0.53388 0.87885 0.7301 0.0
H417 H 0.55874 0.86018 0.70087 0.0
H418 H 0.58844 0.77306 0.77092 0.0
C419 C 0.5894 0.85089 0.76629 0.0
C420 C 0.72532 0.53667 0.14705 0.0
C421 C 0.76754 0.5312 0.13302 0.0
C422 C 0.76054 0.51961 0.10701 0.0
C423 C 0.67594 0.52187 0.10827 0.0
C424 C 0.67925 0.53136 0.13411 0.0
C425 C 0.62854 0.53467 0.14383 0.0
H426 H 0.38785 0.52461 0.10236 0.0
C427 C 0.62625 0.52015 0.09901 0.0
C428 C 0.59608 0.52678 0.11951 0.0
H429 H 0.42968 0.54391 0.18085 0.0
H430 H 0.51296 0.54017 0.16927 0.0
H431 H 0.4727 0.59985 0.08344 0.0
H432 H 0.44025 0.43982 0.08923 0.0
H433 H 0.46922 0.44903 0.06035 0.0
H434 H 0.41485 0.47076 0.06512 0.0
H435 H 0.43374 0.5586 0.0614 0.0
H436 H 0.49666 0.57767 0.05609 0.0
C437 C 0.63006 0.58674 0.15665 0.0
C438 C 0.61126 0.4927 0.16218 0.0
C439 C 0.60079 0.5052 0.00329 0.0
C440 C 0.56085 0.50342 0.98772 0.0
C441 C 0.51678 0.50352 -0.00127 0.0
C442 C 0.51259 0.50643 0.02503 0.0
C443 C 0.55297 0.50922 0.04069 0.0
C444 C 0.59584 0.50779 0.02966 0.0
C445 C 0.63445 0.50962 0.04903 0.0
C446 C 0.60832 0.51464 0.07369 0.0
C447 C 0.56069 0.51423 0.06863 0.0
C448 C 0.67366 0.55723 0.04453 0.0
C449 C 0.65054 0.45855 0.0464 0.0
C450 C 0.41414 0.52792 0.11743 0.0
C451 C 0.40037 0.53439 0.14248 0.0
C452 C 0.43778 0.5386 0.16111 0.0
C453 C 0.48628 0.53652 0.15447 0.0
C454 C 0.49882 0.53003 0.12879 0.0
C455 C 0.4616 0.52586 0.11127 0.0
C456 C 0.47715 0.5194 0.08495 0.0
C457 C 0.52932 0.51957 0.08857 0.0
C458 C 0.54494 0.52595 0.11435 0.0
C459 C 0.46951 0.56583 0.07052 0.0
C460 C 0.44889 0.46738 0.07411 0.0
H461 H 0.7164 0.5073 0.07504 0.0
H462 H 0.72823 0.54528 0.16722 0.0
H463 H 0.6107 0.4552 0.1528 0.0
H464 H 0.57483 0.49333 0.16858 0.0
H465 H 0.63517 0.49735 0.17909 0.0
H466 H 0.6431 0.61686 0.14329 0.0
H467 H 0.6542 0.593 0.17349 0.0
H468 H 0.59412 0.59013 0.16282 0.0
H469 H 0.63505 0.50488 -0.0049 0.0
H470 H 0.48568 0.50211 0.98687 0.0
H471 H 0.47791 0.50683 0.03195 0.0
H472 H 0.65813 0.58812 0.0373 0.0
H473 H 0.69954 0.54891 0.03039 0.0
H474 H 0.693 0.57393 0.062 0.0
H475 H 0.62211 0.42792 0.03788 0.0
H476 H 0.65837 0.44441 0.06493 0.0
H477 H 0.68206 0.46138 0.03419 0.0
H478 H 0.7903 0.51464 0.09551 0.0
C479 C 0.71646 0.51516 0.09494 0.0
C480 C 0.27785 0.57599 0.13651 0.0
C481 C 0.24427 0.53803 0.14897 0.0
C482 C 0.31396 0.49851 0.15866 0.0
C483 C 0.34742 0.5379 0.14756 0.0
N484 N 0.3601 0.6204 0.13106 0.0
N485 N 0.23708 0.47125 0.17827 0.0
C486 C 0.32875 0.57835 0.13812 0.0
C487 C 0.26441 0.50158 0.16174 0.0
N488 N 0.26159 0.60895 0.1218 0.0
N489 N 0.32899 0.45675 0.1657 0.0
H490 H 0.20253 0.47402 0.18257 0.0
H491 H 0.25048 0.4477 0.19005 0.0
H492 H 0.36426 0.45345 0.16435 0.0
H493 H 0.30587 0.42402 0.17096 0.0
H494 H 0.28314 0.63291 0.10979 0.0
H495 H 0.22595 0.60941 0.11943 0.0
H496 H 0.35013 0.65367 0.12665 0.0
H497 H 0.39679 0.62383 0.13217 0.0
C498 C 0.82348 0.25652 0.47397 0.0
C499 C 0.83904 0.21283 0.48082 0.0
C500 C 0.92047 0.25383 0.47182 0.0
C501 C 0.90308 0.29061 0.45856 0.0
N502 N 0.83848 0.33144 0.44962 0.0
N503 N 0.90368 0.19747 0.50605 0.0
C504 C 0.85473 0.29374 0.46065 0.0
C505 C 0.88827 0.21876 0.48565 0.0
N506 N 0.78173 0.26521 0.48311 0.0
N507 N 0.96717 0.25124 0.47074 0.0
H508 H 0.87978 0.17908 0.51909 0.0
H509 H 0.93924 0.20432 0.51177 0.0
H510 H 0.99218 0.27618 0.46076 0.0
H511 H 0.97998 0.22185 0.47833 0.0
H512 H 0.77024 0.29854 0.48073 0.0
H513 H 0.76172 0.24107 0.49572 0.0
H514 H 0.80254 0.33202 0.44823 0.0
H515 H 0.86078 0.36072 0.44071 0.0
C516 C 0.55722 0.68988 0.84144 0.0
C517 C 0.59189 0.6646 0.83136 0.0
C518 C 0.63509 0.74501 0.81553 0.0
C519 C 0.59587 0.76727 0.82086 0.0
N520 N 0.51867 0.76089 0.83899 0.0
N521 N 0.66131 0.66799 0.80549 0.0
C522 C 0.5569 0.73996 0.83421 0.0
C523 C 0.63063 0.6923 0.81786 0.0
N524 N 0.5253 0.66647 0.85833 0.0
N525 N 0.67661 0.77448 0.80789 0.0
H526 H 0.6582 0.62914 0.80523 0.0
H527 H 0.68704 0.68574 0.79325 0.0
H528 H 0.68079 0.81329 0.80622 0.0
H529 H 0.70794 0.76151 0.80595 0.0
H530 H 0.50293 0.68487 0.86864 0.0
H531 H 0.52454 0.63002 0.86395 0.0
H532 H 0.48743 0.74146 0.84667 0.0
H533 H 0.51728 0.79729 0.83416 0.0
C534 C 0.88855 0.5043 0.15969 0.0
C535 C 0.92371 0.53933 0.14644 0.0
C536 C 0.85588 0.57747 0.13248 0.0
C537 C 0.82046 0.53856 0.14259 0.0
N538 N 0.80557 0.46007 0.16324 0.0
N539 N 0.93413 0.60124 0.11434 0.0
C540 C 0.83773 0.5008 0.15554 0.0
C541 C 0.90541 0.57401 0.13147 0.0
N542 N 0.90317 0.47512 0.17714 0.0
N543 N 0.84203 0.61843 0.12344 0.0
H544 H 0.96845 0.59682 0.11073 0.0
H545 H 0.92184 0.62316 0.10122 0.0
H546 H 0.80681 0.62234 0.12393 0.0
H547 H 0.866 0.65052 0.11812 0.0
H548 H 0.88003 0.45286 0.18917 0.0
H549 H 0.93869 0.47686 0.1815 0.0
H550 H 0.81514 0.42795 0.16975 0.0
H551 H 0.76903 0.45721 0.16145 0.0
C552 C 0.24552 0.75495 0.49821 0.0
C553 C 0.29155 0.74844 0.5048 0.0
C554 C 0.2674 0.65758 0.49489 0.0
C555 C 0.22317 0.66503 0.48576 0.0
N556 N 0.16922 0.71944 0.47791 0.0
N557 N 0.3478 0.69526 0.50935 0.0
C558 C 0.21177 0.71331 0.48744 0.0
C559 C 0.30279 0.70007 0.50335 0.0
N560 N 0.23424 0.801 0.50228 0.0
N561 N 0.27531 0.6098 0.49551 0.0
H562 H 0.37383 0.72511 0.51687 0.0
H563 H 0.36034 0.6625 0.5059 0.0
H564 H 0.25066 0.57803 0.48873 0.0
H565 H 0.30475 0.60091 0.50419 0.0
H566 H 0.20007 0.80731 0.50048 0.0
H567 H 0.25863 0.83288 0.50914 0.0
H568 H 0.16074 0.75428 0.47557 0.0
H569 H 0.14265 0.68937 0.47109 0.0
C570 C 0.56298 0.30917 0.80971 0.0
C571 C 0.58587 0.33876 0.83095 0.0
C572 C 0.61332 0.26394 0.84465 0.0
C573 C 0.58624 0.23376 0.82486 0.0
N574 N 0.52169 0.22616 0.79464 0.0
N575 N 0.61939 0.33741 0.873 0.0
C576 C 0.55643 0.25593 0.8095 0.0
C577 C 0.6071 0.31417 0.84979 0.0
N578 N 0.55032 0.33129 0.78878 0.0
N579 N 0.64638 0.24594 0.85794 0.0
H580 H 0.61178 0.37209 0.87843 0.0
H581 H 0.63146 0.31927 0.88786 0.0
H582 H 0.65307 0.21014 0.85439 0.0
H583 H 0.6701 0.26847 0.87084 0.0
H584 H 0.53711 0.3106 0.77225 0.0
H585 H 0.55876 0.36996 0.78648 0.0
H586 H 0.49681 0.24065 0.78455 0.0
H587 H 0.5145 0.1869 0.79481 0.0
C588 C 0.53838 0.77166 0.50011 0.0
C589 C 0.57998 0.80978 0.50543 0.0
C590 C 0.62134 0.74374 0.51777 0.0
C591 C 0.57774 0.70793 0.51715 0.0
N592 N 0.49352 0.688 0.50882 0.0
N593 N 0.65997 0.83157 0.5231 0.0
C594 C 0.53595 0.72179 0.50834 0.0
C595 C 0.62152 0.79564 0.51484 0.0
N596 N 0.50157 0.78275 0.48667 0.0
N597 N 0.66267 0.72806 0.52165 0.0
H598 H 0.66144 0.87006 0.52285 0.0
H599 H 0.68877 0.82322 0.53272 0.0
H600 H 0.66339 0.6903 0.52396 0.0
H601 H 0.6961 0.75138 0.51993 0.0
H602 H 0.47202 0.75571 0.48038 0.0
H603 H 0.50277 0.81811 0.47952 0.0
H604 H 0.46095 0.69762 0.5057 0.0
H605 H 0.4908 0.65081 0.51381 0.0
C606 C 0.86442 0.7749 0.87102 0.0
C607 C 0.86293 0.72792 0.85807 0.0
C608 C 0.94671 0.754 0.84763 0.0
C609 C 0.95058 0.79496 0.86565 0.0
N610 N 0.91386 0.85106 0.89069 0.0
N611 N 0.90008 0.67341 0.83179 0.0
C612 C 0.90922 0.80819 0.87561 0.0
C613 C 0.90305 0.71831 0.84507 0.0
N614 N 0.8232 0.7865 0.8794 0.0
N615 N 0.98495 0.74845 0.83357 0.0
H616 H 0.86814 0.64735 0.82861 0.0
H617 H 0.9293 0.66072 0.82482 0.0
H618 H 1.01759 0.77361 0.83492 0.0
H619 H 0.98326 0.72186 0.81866 0.0
H620 H 0.82097 0.82103 0.88798 0.0
H621 H 0.79025 0.76219 0.87613 0.0
H622 H 0.88632 0.86132 0.90078 0.0
H623 H 0.94646 0.87643 0.89321 0.0
C624 C 0.32863 0.86583 0.149 0.0
C625 C 0.31995 0.81286 0.1511 0.0
C626 C 0.40299 0.81945 0.16392 0.0
C627 C 0.40929 0.87264 0.16584 0.0
N628 N 0.37748 0.94718 0.16194 0.0
N629 N 0.34748 0.73872 0.16231 0.0
C630 C 0.37215 0.89616 0.15852 0.0
C631 C 0.35694 0.78935 0.15871 0.0
N632 N 0.29534 0.88699 0.13768 0.0
N633 N 0.44123 0.7979 0.16704 0.0
H634 H 0.31428 0.71526 0.15865 0.0
H635 H 0.37154 0.72041 0.1706 0.0
H636 H 0.47539 0.81916 0.17084 0.0
H637 H 0.44001 0.75967 0.16354 0.0
H638 H 0.30134 0.92477 0.13334 0.0
H639 H 0.26313 0.86569 0.1305 0.0
H640 H 0.34974 0.96579 0.15988 0.0
H641 H 0.409 0.97083 0.16852 0.0
C642 C 0.54623 0.15143 0.53028 0.0
C643 C 0.57298 0.13351 0.51076 0.0
C644 C 0.60203 0.22203 0.49954 0.0
C645 C 0.56973 0.23802 0.51656 0.0
N646 N 0.49998 0.2129 0.5418 0.0
N647 N 0.61703 0.15378 0.47226 0.0
C648 C 0.53798 0.20093 0.52967 0.0
C649 C 0.59826 0.16933 0.49401 0.0
N650 N 0.53172 0.12324 0.55064 0.0
N651 N 0.63759 0.25654 0.4894 0.0
H652 H 0.61266 0.11615 0.46631 0.0
H653 H 0.63214 0.17861 0.45865 0.0
H654 H 0.64237 0.29518 0.49334 0.0
H655 H 0.66491 0.24625 0.47902 0.0
H656 H 0.51491 0.13685 0.56598 0.0
H657 H 0.54268 0.08999 0.55409 0.0
H658 H 0.47415 0.18593 0.55015 0.0
H659 H 0.49164 0.24831 0.54093 0.0
C660 C 0.36444 0.65442 0.82504 0.0
C661 C 0.33975 0.61673 0.80746 0.0
C662 C 0.26562 0.64384 0.8162 0.0
C663 C 0.29049 0.68039 0.83423 0.0
N664 N 0.36457 0.73262 0.84872 0.0
N665 N 0.27088 0.58495 0.78097 0.0
C666 C 0.34044 0.69016 0.83585 0.0
C667 C 0.29164 0.61505 0.80106 0.0
N668 N 0.40896 0.65319 0.83359 0.0
N669 N 0.2172 0.63414 0.81484 0.0
H670 H 0.28962 0.56353 0.7698 0.0
H671 H 0.23695 0.58487 0.77407 0.0
H672 H 0.19708 0.65504 0.82533 0.0
H673 H 0.19688 0.60382 0.80428 0.0
H674 H 0.42421 0.67437 0.84955 0.0
H675 H 0.42867 0.62779 0.82665 0.0
H676 H 0.40147 0.74363 0.84892 0.0
H677 H 0.34719 0.75917 0.85693 0.0
C678 C 0.82364 0.25712 0.18065 0.0
C679 C 0.86982 0.24747 0.18358 0.0
C680 C 0.83579 0.16666 0.20189 0.0
C681 C 0.79057 0.17931 0.20198 0.0
N682 N 0.74181 0.23909 0.19416 0.0
N683 N 0.92092 0.19688 0.20066 0.0
C684 C 0.78447 0.22514 0.19196 0.0
C685 C 0.87621 0.20311 0.19508 0.0
N686 N 0.81713 0.29618 0.1666 0.0
N687 N 0.83994 0.11938 0.20789 0.0
H688 H 0.95159 0.223 0.1964 0.0
H689 H 0.92758 0.16808 0.21155 0.0
H690 H 0.81099 0.09156 0.21282 0.0
H691 H 0.87111 0.10624 0.20564 0.0
H692 H 0.78382 0.30214 0.16163 0.0
H693 H 0.84499 0.32021 0.15799 0.0
H694 H 0.7367 0.27457 0.18987 0.0
H695 H 0.7122 0.21652 0.20212 0.0
C696 C 0.1391 0.57636 0.07027 0.0
C697 C 0.09266 0.55327 0.07759 0.0
C698 C 1.05953 0.59109 0.04231 0.0
C699 C 0.10541 0.62042 0.03775 0.0
N700 N 0.18777 0.64752 0.05058 0.0
N701 N 1.00778 0.53939 0.07119 0.0
C702 C 0.145 0.61468 0.05251 0.0
C703 C 1.05255 0.56106 0.06385 0.0
N704 N 0.17771 0.56178 0.08004 0.0
N705 N 1.02316 0.59004 0.02542 0.0
H706 H 1.00105 0.51324 0.08526 0.0
H707 H 0.97732 0.54909 0.06409 0.0
H708 H 1.02714 0.61034 0.00902 0.0
H709 H 0.99023 0.56546 0.02635 0.0
H710 H 0.21177 0.57345 0.07303 0.0
H711 H 0.17542 0.53457 0.09346 0.0
H712 H 0.21643 0.6482 0.06281 0.0
H713 H 0.19321 0.67745 0.03851 0.0
C714 C 0.5492 1.01255 0.41951 0.0
C715 C 0.55135 0.96735 0.43159 0.0
C716 C 0.57601 0.93209 0.3917 0.0
C717 C 0.5673 0.97419 0.37909 0.0
N718 N 0.5392 0.05169 0.3802 0.0
N719 N 0.55815 0.88012 0.42772 0.0
C720 C 0.55232 1.01381 0.39278 0.0
C721 C 0.56289 0.92609 0.41739 0.0
N722 N 0.54579 0.05497 0.43357 0.0
N723 N 0.59707 0.89794 0.37911 0.0
H724 H 0.54571 0.87275 0.44586 0.0
H725 H 0.56151 0.84767 0.41732 0.0
H726 H 0.60699 0.90124 0.36023 0.0
H727 H 0.60876 0.8693 0.38802 0.0
H728 H 0.5494 0.09024 0.42597 0.0
H729 H 0.54421 0.05633 0.45323 0.0
H730 H 0.52251 0.07817 0.38893 0.0
H731 H 0.54138 0.05443 0.36064 0.0
C732 C 0.62818 0.45992 0.74925 0.0
C733 C 0.61097 0.49707 0.76398 0.0
C734 C 0.56852 0.51478 0.72621 0.0
C735 C 0.59289 0.48463 0.71102 0.0
N736 N 0.65703 0.44005 0.70828 0.0
N737 N 0.57477 0.57012 0.76333 0.0
C738 C 0.62621 0.46077 0.72257 0.0
C739 C 0.58378 0.52746 0.75168 0.0
N740 N 0.6441 0.42205 0.76035 0.0
N741 N 0.53021 0.5304 0.71671 0.0
H742 H 0.58987 0.58497 0.78061 0.0
H743 H 0.55785 0.5947 0.75412 0.0
H744 H 0.51667 0.52022 0.69845 0.0
H745 H 0.50894 0.5487 0.72796 0.0
H746 H 0.65349 0.39241 0.74984 0.0
H747 H 0.6416 0.416 0.77962 0.0
H748 H 0.68432 0.42584 0.71629 0.0
H749 H 0.65888 0.44246 0.68868 0.0
C750 C 0.57317 0.9505 0.5902 0.0
C751 C 0.60779 0.98213 0.576 0.0
C752 C 0.64444 0.02453 0.61522 0.0
C753 C 0.60605 0.99741 0.62908 0.0
N754 N 0.52811 0.94253 0.62865 0.0
N755 N 0.67218 0.05494 0.57449 0.0
C756 C 0.56866 0.96265 0.61625 0.0
C757 C 0.64217 0.02098 0.58835 0.0
N758 N 0.54599 0.90761 0.57913 0.0
N759 N 0.68402 0.05175 0.62763 0.0
H760 H 0.67183 0.05338 0.55476 0.0
H761 H 0.69452 0.08711 0.58256 0.0
H762 H 0.68791 0.05374 0.64727 0.0
H763 H 0.71486 0.06812 0.61839 0.0
H764 H 0.52319 0.88079 0.58925 0.0
H765 H 0.55022 0.89629 0.5604 0.0
H766 H 0.49814 0.92071 0.61944 0.0
H767 H 0.52254 0.95185 0.64754 0.0
C768 C 0.55108 0.45605 0.91896 0.0
C769 C 0.55851 0.5023 0.90651 0.0
C770 C 0.57039 0.54948 0.94746 0.0
C771 C 0.56468 0.50334 0.95979 0.0
N772 N 0.55885 0.41361 0.95768 0.0
N773 N 0.58421 0.59277 0.90826 0.0
C774 C 0.55821 0.4569 0.94561 0.0
C775 C 0.57073 0.54899 0.92059 0.0
N776 N 0.53425 0.41149 0.90562 0.0
N777 N 0.57432 0.59368 0.96148 0.0
H778 H 0.58502 0.59384 0.88862 0.0
H779 H 0.59844 0.62749 0.91735 0.0
H780 H 0.5767 0.59589 0.98119 0.0
H781 H 0.57247 0.62776 0.95373 0.0
H782 H 0.52329 0.37715 0.91405 0.0
H783 H 0.52708 0.40903 0.88623 0.0
H784 H 0.5596 0.37943 0.94822 0.0
H785 H 0.56269 0.41272 0.97727 0.0
C786 C 0.12466 0.524 0.23331 0.0
C787 C 0.08292 0.53431 0.22214 0.0
C788 C 1.04312 0.52373 0.26294 0.0
C789 C 0.0837 0.51012 0.27352 0.0
N790 N 0.15751 0.48382 0.26705 0.0
N791 N 0.9988 0.53135 0.22487 0.0
C792 C 0.12253 0.50557 0.25804 0.0
C793 C 1.04096 0.53008 0.23651 0.0
N794 N 0.16727 0.5356 0.22144 0.0
N795 N 1.00778 0.5334 0.27821 0.0
H796 H 0.99564 0.53568 0.20551 0.0
H797 H 0.96631 0.52312 0.23395 0.0
H798 H 1.00802 0.52995 0.29774 0.0
H799 H 0.98016 0.54906 0.27176 0.0
H800 H 0.19927 0.53311 0.23002 0.0
H801 H 0.17195 0.55326 0.20433 0.0
H802 H 0.18438 0.47521 0.25573 0.0
H803 H 0.15675 0.46967 0.2851 0.0
loop_
_geom_bond_atom_site_label_1
_geom_bond_atom_site_label_2
_geom_bond_distance
_geom_bond_site_symmetry_2
_ccdc_geom_bond_type
Nd0 C2 2.836 . S
Nd0 O20 2.500 . S
Nd0 O21 2.492 . S
Nd0 O22 2.487 . S
Nd0 O23 2.682 . S
Nd0 O24 2.410 . S
Nd0 O29 2.414 . S
Nd0 O31 2.424 1_455 S
Nd1 C11 2.836 . S
Nd1 O23 2.414 1_655 S
Nd1 O25 2.424 1_655 S
Nd1 O26 2.500 . S
Nd1 O27 2.492 . S
Nd1 O28 2.487 . S
Nd1 O29 2.682 1_655 S
Nd1 O30 2.410 . S
C2 Nd0 2.836 . S
C2 C3 1.498 . S
C2 O20 1.258 . S
C2 O21 1.239 . S
C3 C2 1.498 . S
C3 C4 1.366 . S
C3 C8 1.407 . S
C4 C3 1.366 . S
C4 C5 1.392 . S
C4 H32 0.930 . S
C5 C4 1.392 . S
C5 C6 1.398 . S
C5 H33 0.929 . S
C6 C5 1.398 . S
C6 C7 1.352 . S
C7 C6 1.352 . S
C7 C8 1.384 . S
C7 H34 0.930 . S
C8 C3 1.407 . S
C8 C7 1.384 . S
C8 H35 0.929 . S
C9 O22 1.241 . S
C9 O23 1.273 . S
C10 O24 1.251 . S
C10 O25 1.268 . S
C11 Nd1 2.836 . S
C11 C12 1.498 . S
C11 O26 1.258 . S
C11 O27 1.239 . S
C12 C11 1.498 . S
C12 C13 1.366 . S
C12 C17 1.407 . S
C13 C12 1.366 . S
C13 C14 1.392 . S
C13 H36 0.930 . S
C14 C13 1.392 . S
C14 C15 1.398 . S
C14 H37 0.929 . S
C15 C14 1.398 . S
C15 C16 1.352 . S
C16 C15 1.352 . S
C16 C17 1.384 . S
C16 H38 0.930 . S
C17 C12 1.407 . S
C17 C16 1.384 . S
C17 H39 0.929 . S
C18 O28 1.241 1_455 S
C18 O29 1.273 . S
C19 O30 1.251 . S
C19 O31 1.268 . S
O20 Nd0 2.500 . S
O20 C2 1.258 . S
O21 Nd0 2.492 . S
O21 C2 1.239 . S
O22 Nd0 2.487 . S
O22 C9 1.241 . S
O23 Nd0 2.682 . S
O23 Nd1 2.414 1_455 S
O23 C9 1.273 . S
O24 Nd0 2.410 . S
O24 C10 1.251 . S
O25 Nd1 2.424 1_455 S
O25 C10 1.268 . S
O26 Nd1 2.500 . S
O26 C11 1.258 . S
O27 Nd1 2.492 . S
O27 C11 1.239 . S
O28 Nd1 2.487 . S
O28 C18 1.241 1_655 S
O29 Nd0 2.414 . S
O29 Nd1 2.682 1_455 S
O29 C18 1.273 . S
O30 Nd1 2.410 . S
O30 C19 1.251 . S
O31 Nd0 2.424 1_655 S
O31 C19 1.268 . S
H32 C4 0.930 . S
H33 C5 0.929 . S
H34 C7 0.930 . S
H35 C8 0.929 . S
H36 C13 0.930 . S
H37 C14 0.929 . S
H38 C16 0.930 . S
H39 C17 0.929 . S
Nd40 C42 2.841 . S
Nd40 O60 2.504 . S
Nd40 O61 2.495 . S
Nd40 O62 2.487 . S
Nd40 O63 2.681 1_565 S
Nd40 O64 2.415 . S
Nd40 O69 2.415 1_565 S
Nd40 O71 2.418 1_565 S
Nd41 C51 2.836 . S
Nd41 O63 2.414 . S
Nd41 O65 2.424 1_545 S
Nd41 O66 2.500 . S
Nd41 O67 2.492 . S
Nd41 O68 2.487 . S
Nd41 O69 2.682 . S
Nd41 O70 2.410 . S
C42 Nd40 2.841 . S
C42 C43 1.498 . S
C42 O60 1.258 . S
C42 O61 1.239 . S
C43 C42 1.498 . S
C43 C44 1.366 . S
C43 C48 1.407 . S
C44 C43 1.366 . S
C44 C45 1.392 . S
C44 H72 0.930 . S
C45 C44 1.392 . S
C45 C46 1.398 . S
C45 H73 0.929 . S
C46 C45 1.398 . S
C46 C47 1.352 . S
C47 C46 1.352 . S
C47 C48 1.384 . S
C47 H74 0.930 . S
C48 C43 1.407 . S
C48 C47 1.384 . S
C48 H75 0.929 . S
C49 O62 1.241 1_545 S
C49 O63 1.273 . S
C50 O64 1.251 . S
C50 O65 1.268 . S
C51 Nd41 2.836 . S
C51 C52 1.498 . S
C51 O66 1.258 . S
C51 O67 1.239 . S
C52 C51 1.498 . S
C52 C53 1.366 . S
C52 C57 1.407 . S
C53 C52 1.366 . S
C53 C54 1.392 . S
C53 H76 0.930 . S
C54 C53 1.392 . S
C54 C55 1.398 . S
C54 H77 0.929 . S
C55 C54 1.398 . S
C55 C56 1.352 . S
C56 C55 1.352 . S
C56 C57 1.384 . S
C56 H78 0.930 . S
C57 C52 1.407 . S
C57 C56 1.384 . S
C57 H79 0.929 . S
C58 O68 1.241 . S
C58 O69 1.273 . S
C59 O70 1.251 . S
C59 O71 1.268 . S
O60 Nd40 2.504 . S
O60 C42 1.258 . S
O61 Nd40 2.495 . S
O61 C42 1.239 . S
O62 Nd40 2.487 . S
O62 C49 1.241 1_565 S
O63 Nd40 2.681 1_545 S
O63 Nd41 2.414 . S
O63 C49 1.273 . S
O64 Nd40 2.415 . S
O64 C50 1.251 . S
O65 Nd41 2.424 1_565 S
O65 C50 1.268 . S
O66 Nd41 2.500 . S
O66 C51 1.258 . S
O67 Nd41 2.492 . S
O67 C51 1.239 . S
O68 Nd41 2.487 . S
O68 C58 1.241 . S
O69 Nd40 2.415 1_545 S
O69 Nd41 2.682 . S
O69 C58 1.273 . S
O70 Nd41 2.410 . S
O70 C59 1.251 . S
O71 Nd40 2.418 1_545 S
O71 C59 1.268 . S
H72 C44 0.930 . S
H73 C45 0.929 . S
H74 C47 0.930 . S
H75 C48 0.929 . S
H76 C53 0.930 . S
H77 C54 0.929 . S
H78 C56 0.930 . S
H79 C57 0.929 . S
Nd80 C82 2.836 . S
Nd80 O100 2.500 . S
Nd80 O101 2.492 . S
Nd80 O102 2.487 . S
Nd80 O103 2.682 . S
Nd80 O104 2.410 . S
Nd80 O109 2.414 . S
Nd80 O111 2.424 . S
Nd81 C91 2.836 . S
Nd81 O103 2.414 . S
Nd81 O105 2.424 . S
Nd81 O106 2.500 . S
Nd81 O107 2.492 . S
Nd81 O108 2.487 . S
Nd81 O109 2.682 . S
Nd81 O110 2.410 . S
C82 Nd80 2.836 . S
C82 C83 1.498 . S
C82 O100 1.258 . S
C82 O101 1.239 . S
C83 C82 1.498 . S
C83 C84 1.366 . S
C83 C88 1.407 . S
C84 C83 1.366 . S
C84 C85 1.392 . S
C84 H112 0.930 . S
C85 C84 1.392 . S
C85 C86 1.398 . S
C85 H113 0.929 . S
C86 C85 1.398 . S
C86 C87 1.352 . S
C87 C86 1.352 . S
C87 C88 1.384 . S
C87 H114 0.930 . S
C88 C83 1.407 . S
C88 C87 1.384 . S
C88 H115 0.929 . S
C89 O102 1.241 . S
C89 O103 1.273 . S
C90 O104 1.251 . S
C90 O105 1.268 . S
C91 Nd81 2.836 . S
C91 C92 1.498 . S
C91 O106 1.258 . S
C91 O107 1.239 . S
C92 C91 1.498 . S
C92 C93 1.366 . S
C92 C97 1.407 . S
C93 C92 1.366 . S
C93 C94 1.392 . S
C93 H116 0.930 . S
C94 C93 1.392 . S
C94 C95 1.398 . S
C94 H117 0.929 . S
C95 C94 1.398 . S
C95 C96 1.352 . S
C96 C95 1.352 . S
C96 C97 1.384 . S
C96 H118 0.930 . S
C97 C92 1.407 . S
C97 C96 1.384 . S
C97 H119 0.929 . S
C98 O108 1.241 . S
C98 O109 1.273 . S
C99 O110 1.251 . S
C99 O111 1.268 . S
O100 Nd80 2.500 . S
O100 C82 1.258 . S
O101 Nd80 2.492 . S
O101 C82 1.239 . S
O102 Nd80 2.487 . S
O102 C89 1.241 . S
O103 Nd80 2.682 . S
O103 Nd81 2.414 . S
O103 C89 1.273 . S
O104 Nd80 2.410 . S
O104 C90 1.251 . S
O105 Nd81 2.424 . S
O105 C90 1.268 . S
O106 Nd81 2.500 . S
O106 C91 1.258 . S
O107 Nd81 2.492 . S
O107 C91 1.239 . S
O108 Nd81 2.487 . S
O108 C98 1.241 . S
O109 Nd80 2.414 . S
O109 Nd81 2.682 . S
O109 C98 1.273 . S
O110 Nd81 2.410 . S
O110 C99 1.251 . S
O111 Nd80 2.424 . S
O111 C99 1.268 . S
H112 C84 0.930 . S
H113 C85 0.929 . S
H114 C87 0.930 . S
H115 C88 0.929 . S
H116 C93 0.930 . S
H117 C94 0.929 . S
H118 C96 0.930 . S
H119 C97 0.929 . S
C120 C121 1.391 . S
C120 C124 1.391 . S
C120 H162 0.948 . S
C121 C120 1.391 . S
C121 C122 1.391 . S
C122 C121 1.391 . S
C122 H178 0.947 . S
C122 C179 1.392 . S
C123 C124 1.391 . S
C123 C127 1.397 . S
C123 C179 1.419 . S
C124 C120 1.391 . S
C124 C123 1.391 . S
C124 C125 1.399 . S
C125 C124 1.399 . S
C125 C128 1.396 . S
C125 C137 1.453 . S
C125 C138 1.684 . S
H126 C150 0.948 . S
C127 C123 1.397 . S
C127 C128 1.394 . S
C127 C146 1.723 . S
C128 C125 1.396 . S
C128 C127 1.394 . S
C128 C158 1.723 1_545 S
H129 C152 0.947 . S
H130 C153 0.948 . S
H131 C159 0.982 . S
H132 C160 0.979 . S
H133 C160 0.980 . S
H134 C160 0.983 . S
H135 C159 0.979 . S
H136 C159 0.977 . S
C137 C125 1.453 . S
C137 H166 0.982 . S
C137 H167 0.979 . S
C137 H168 0.977 1_545 S
C138 C125 1.684 . S
C138 H163 0.979 . S
C138 H164 0.980 . S
C138 H165 0.983 . S
C139 C140 1.391 . S
C139 C144 1.391 . S
C139 H169 0.948 . S
C140 C139 1.391 . S
C140 C141 1.391 . S
C141 C140 1.391 . S
C141 C142 1.392 1_545 S
C141 H170 0.947 1_545 S
C142 C141 1.392 1_565 S
C142 C143 1.419 1_565 S
C142 H171 0.948 . S
C143 C142 1.419 1_545 S
C143 C144 1.391 . S
C143 C147 1.397 . S
C144 C139 1.391 . S
C144 C143 1.391 . S
C144 C145 1.399 . S
C145 C144 1.399 . S
C145 C146 1.396 . S
C145 C148 1.453 . S
C145 C149 1.684 . S
C146 C127 1.723 . S
C146 C145 1.396 . S
C146 C147 1.394 . S
C147 C143 1.397 . S
C147 C146 1.394 . S
C147 C157 1.723 1_545 S
C148 C145 1.453 . S
C148 H172 0.982 . S
C148 H173 0.979 . S
C148 H174 0.977 . S
C149 C145 1.684 . S
C149 H175 0.979 . S
C149 H176 0.980 . S
C149 H177 0.983 . S
C150 H126 0.948 . S
C150 C151 1.391 . S
C150 C155 1.391 . S
C151 C150 1.391 . S
C151 C152 1.391 . S
C152 H129 0.947 . S
C152 C151 1.391 . S
C152 C153 1.392 . S
C153 H130 0.948 . S
C153 C152 1.392 . S
C153 C154 1.419 . S
C154 C153 1.419 . S
C154 C155 1.391 . S
C154 C158 1.397 . S
C155 C150 1.391 . S
C155 C154 1.391 . S
C155 C156 1.399 . S
C156 C155 1.399 . S
C156 C157 1.396 . S
C156 C159 1.453 . S
C156 C160 1.684 . S
C157 C147 1.723 1_565 S
C157 C156 1.396 . S
C157 C158 1.394 . S
C158 C128 1.723 1_565 S
C158 C154 1.397 . S
C158 C157 1.394 . S
C159 H131 0.982 . S
C159 H135 0.979 . S
C159 H136 0.977 . S
C159 C156 1.453 . S
C160 H132 0.979 . S
C160 H133 0.980 . S
C160 H134 0.983 . S
C160 C156 1.684 . S
H161 C179 0.948 . S
H162 C120 0.948 . S
H163 C138 0.979 . S
H164 C138 0.980 . S
H165 C138 0.983 . S
H166 C137 0.982 . S
H167 C137 0.979 . S
H168 C137 0.977 1_565 S
H169 C139 0.948 . S
H170 C141 0.947 1_565 S
H171 C142 0.948 . S
H172 C148 0.982 . S
H173 C148 0.979 . S
H174 C148 0.977 . S
H175 C149 0.979 . S
H176 C149 0.980 . S
H177 C149 0.983 . S
H178 C122 0.947 . S
C179 C122 1.392 . S
C179 C123 1.419 . S
C179 H161 0.948 . S
C180 C181 1.391 . S
C180 C184 1.391 . S
C180 H222 0.948 . S
C181 C180 1.391 . S
C181 C182 1.391 . S
C182 C181 1.391 . S
C182 H238 0.947 . S
C182 C239 1.392 . S
C183 C184 1.391 . S
C183 C187 1.397 . S
C183 C239 1.419 . S
C184 C180 1.391 . S
C184 C183 1.391 . S
C184 C185 1.399 . S
C185 C184 1.399 . S
C185 C188 1.396 . S
C185 C197 1.453 . S
C185 C198 1.684 . S
H186 C210 0.948 . S
C187 C183 1.397 . S
C187 C188 1.394 . S
C187 C206 1.723 . S
C188 C185 1.396 . S
C188 C187 1.394 . S
C188 C218 1.723 . S
H189 C212 0.947 . S
H190 C213 0.948 . S
H191 C219 0.982 . S
H192 C220 0.979 . S
H193 C220 0.980 . S
H194 C220 0.983 . S
H195 C219 0.979 . S
H196 C219 0.977 . S
C197 C185 1.453 . S
C197 H226 0.982 . S
C197 H227 0.979 . S
C197 H228 0.977 . S
C198 C185 1.684 . S
C198 H223 0.979 . S
C198 H224 0.980 . S
C198 H225 0.983 . S
C199 C200 1.391 . S
C199 C204 1.391 . S
C199 H229 0.948 . S
C200 C199 1.391 . S
C200 C201 1.391 . S
C201 C200 1.391 . S
C201 C202 1.392 . S
C201 H230 0.947 . S
C202 C201 1.392 . S
C202 C203 1.419 . S
C202 H231 0.948 . S
C203 C202 1.419 . S
C203 C204 1.391 . S
C203 C207 1.397 . S
C204 C199 1.391 . S
C204 C203 1.391 . S
C204 C205 1.399 . S
C205 C204 1.399 . S
C205 C206 1.396 . S
C205 C208 1.453 . S
C205 C209 1.684 . S
C206 C187 1.723 . S
C206 C205 1.396 . S
C206 C207 1.394 . S
C207 C203 1.397 . S
C207 C206 1.394 . S
C207 C217 1.723 . S
C208 C205 1.453 . S
C208 H232 0.982 . S
C208 H233 0.979 . S
C208 H234 0.977 . S
C209 C205 1.684 . S
C209 H235 0.979 . S
C209 H236 0.980 . S
C209 H237 0.983 . S
C210 H186 0.948 . S
C210 C211 1.391 . S
C210 C215 1.391 . S
C211 C210 1.391 . S
C211 C212 1.391 . S
C212 H189 0.947 . S
C212 C211 1.391 . S
C212 C213 1.392 . S
C213 H190 0.948 . S
C213 C212 1.392 . S
C213 C214 1.419 . S
C214 C213 1.419 . S
C214 C215 1.391 . S
C214 C218 1.397 . S
C215 C210 1.391 . S
C215 C214 1.391 . S
C215 C216 1.399 . S
C216 C215 1.399 . S
C216 C217 1.396 . S
C216 C219 1.453 . S
C216 C220 1.684 . S
C217 C207 1.723 . S
C217 C216 1.396 . S
C217 C218 1.394 . S
C218 C188 1.723 . S
C218 C214 1.397 . S
C218 C217 1.394 . S
C219 H191 0.982 . S
C219 H195 0.979 . S
C219 H196 0.977 . S
C219 C216 1.453 . S
C220 H192 0.979 . S
C220 H193 0.980 . S
C220 H194 0.983 . S
C220 C216 1.684 . S
H221 C239 0.948 . S
H222 C180 0.948 . S
H223 C198 0.979 . S
H224 C198 0.980 . S
H225 C198 0.983 . S
H226 C197 0.982 . S
H227 C197 0.979 . S
H228 C197 0.977 . S
H229 C199 0.948 . S
H230 C201 0.947 . S
H231 C202 0.948 . S
H232 C208 0.982 . S
H233 C208 0.979 . S
H234 C208 0.977 . S
H235 C209 0.979 . S
H236 C209 0.980 . S
H237 C209 0.983 . S
H238 C182 0.947 . S
C239 C182 1.392 . S
C239 C183 1.419 . S
C239 H221 0.948 . S
C240 C241 1.391 . S
C240 C244 1.391 . S
C240 H282 0.948 . S
C241 C240 1.391 . S
C241 C242 1.391 . S
C242 C241 1.391 . S
C242 H298 0.947 . S
C242 C299 1.392 . S
C243 C244 1.391 . S
C243 C247 1.397 . S
C243 C299 1.419 . S
C244 C240 1.391 . S
C244 C243 1.391 . S
C244 C245 1.399 . S
C245 C244 1.399 . S
C245 C248 1.396 . S
C245 C257 1.453 . S
C245 C258 1.684 . S
H246 C270 0.948 . S
C247 C243 1.397 . S
C247 C248 1.394 . S
C247 C266 1.723 . S
C248 C245 1.396 . S
C248 C247 1.394 . S
C248 C278 1.723 1_455 S
H249 C272 0.947 . S
H250 C273 0.948 . S
H251 C279 0.982 . S
H252 C280 0.979 . S
H253 C280 0.980 . S
H254 C280 0.983 . S
H255 C279 0.979 . S
H256 C279 0.977 . S
C257 C245 1.453 . S
C257 H286 0.982 . S
C257 H287 0.979 . S
C257 H288 0.977 . S
C258 C245 1.684 . S
C258 H283 0.979 . S
C258 H284 0.980 . S
C258 H285 0.983 . S
C259 C260 1.391 . S
C259 C264 1.391 1_554 S
C259 H289 0.948 . S
C260 C259 1.391 . S
C260 C261 1.391 1_455 S
C261 C260 1.391 1_655 S
C261 C262 1.392 1_554 S
C261 H290 0.947 . S
C262 C261 1.392 1_556 S
C262 C263 1.419 1_655 S
C262 H291 0.948 . S
C263 C262 1.419 1_455 S
C263 C264 1.391 . S
C263 C267 1.397 . S
C264 C259 1.391 1_556 S
C264 C263 1.391 . S
C264 C265 1.399 . S
C265 C264 1.399 . S
C265 C266 1.396 . S
C265 C268 1.453 . S
C265 C269 1.684 . S
C266 C247 1.723 . S
C266 C265 1.396 . S
C266 C267 1.394 . S
C267 C263 1.397 . S
C267 C266 1.394 . S
C267 C277 1.723 1_455 S
C268 C265 1.453 . S
C268 H292 0.982 . S
C268 H293 0.979 . S
C268 H294 0.977 . S
C269 C265 1.684 . S
C269 H295 0.979 . S
C269 H296 0.980 . S
C269 H297 0.983 . S
C270 H246 0.948 . S
C270 C271 1.391 . S
C270 C275 1.391 . S
C271 C270 1.391 . S
C271 C272 1.391 . S
C272 H249 0.947 . S
C272 C271 1.391 . S
C272 C273 1.392 . S
C273 H250 0.948 . S
C273 C272 1.392 . S
C273 C274 1.419 . S
C274 C273 1.419 . S
C274 C275 1.391 . S
C274 C278 1.397 . S
C275 C270 1.391 . S
C275 C274 1.391 . S
C275 C276 1.399 . S
C276 C275 1.399 . S
C276 C277 1.396 . S
C276 C279 1.453 . S
C276 C280 1.684 . S
C277 C267 1.723 1_655 S
C277 C276 1.396 . S
C277 C278 1.394 . S
C278 C248 1.723 1_655 S
C278 C274 1.397 . S
C278 C277 1.394 . S
C279 H251 0.982 . S
C279 H255 0.979 . S
C279 H256 0.977 . S
C279 C276 1.453 . S
C280 H252 0.979 . S
C280 H253 0.980 . S
C280 H254 0.983 . S
C280 C276 1.684 . S
H281 C299 0.948 . S
H282 C240 0.948 . S
H283 C258 0.979 . S
H284 C258 0.980 . S
H285 C258 0.983 . S
H286 C257 0.982 . S
H287 C257 0.979 . S
H288 C257 0.977 . S
H289 C259 0.948 . S
H290 C261 0.947 . S
H291 C262 0.948 . S
H292 C268 0.982 . S
H293 C268 0.979 . S
H294 C268 0.977 . S
H295 C269 0.979 . S
H296 C269 0.980 . S
H297 C269 0.983 . S
H298 C242 0.947 . S
C299 C242 1.392 . S
C299 C243 1.419 . S
C299 H281 0.948 . S
C300 C301 1.391 . S
C300 C304 1.391 . S
C300 H342 0.948 . S
C301 C300 1.391 . S
C301 C302 1.391 . S
C302 C301 1.391 . S
C302 H358 0.947 . S
C302 C359 1.392 . S
C303 C304 1.391 . S
C303 C307 1.397 . S
C303 C359 1.419 . S
C304 C300 1.391 . S
C304 C303 1.391 . S
C304 C305 1.399 . S
C305 C304 1.399 . S
C305 C308 1.396 . S
C305 C317 1.453 . S
C305 C318 1.684 . S
H306 C330 0.948 . S
C307 C303 1.397 . S
C307 C308 1.394 . S
C307 C326 1.723 . S
C308 C305 1.396 . S
C308 C307 1.394 . S
C308 C338 1.723 1_655 S
H309 C332 0.947 . S
H310 C333 0.948 . S
H311 C339 0.982 . S
H312 C340 0.979 . S
H313 C340 0.980 . S
H314 C340 0.983 . S
H315 C339 0.979 . S
H316 C339 0.977 . S
C317 C305 1.453 . S
C317 H346 0.982 1_655 S
C317 H347 0.979 . S
C317 H348 0.977 1_655 S
C318 C305 1.684 . S
C318 H343 0.979 . S
C318 H344 0.980 . S
C318 H345 0.983 . S
C319 C320 1.391 1_655 S
C319 C324 1.391 . S
C319 H349 0.948 . S
C320 C319 1.391 1_455 S
C320 C321 1.391 . S
C321 C320 1.391 . S
C321 C322 1.392 . S
C321 H350 0.947 . S
C322 C321 1.392 . S
C322 C323 1.419 . S
C322 H351 0.948 . S
C323 C322 1.419 . S
C323 C324 1.391 1_455 S
C323 C327 1.397 . S
C324 C319 1.391 . S
C324 C323 1.391 1_655 S
C324 C325 1.399 . S
C325 C324 1.399 . S
C325 C326 1.396 . S
C325 C328 1.453 . S
C325 C329 1.684 . S
C326 C307 1.723 . S
C326 C325 1.396 . S
C326 C327 1.394 1_655 S
C327 C323 1.397 . S
C327 C326 1.394 1_455 S
C327 C337 1.723 . S
C328 C325 1.453 . S
C328 H352 0.982 . S
C328 H353 0.979 . S
C328 H354 0.977 . S
C329 C325 1.684 . S
C329 H355 0.979 . S
C329 H356 0.980 . S
C329 H357 0.983 . S
C330 H306 0.948 . S
C330 C331 1.391 . S
C330 C335 1.391 . S
C331 C330 1.391 . S
C331 C332 1.391 . S
C332 H309 0.947 . S
C332 C331 1.391 . S
C332 C333 1.392 . S
C333 H310 0.948 . S
C333 C332 1.392 . S
C333 C334 1.419 . S
C334 C333 1.419 . S
C334 C335 1.391 . S
C334 C338 1.397 . S
C335 C330 1.391 . S
C335 C334 1.391 . S
C335 C336 1.399 . S
C336 C335 1.399 . S
C336 C337 1.396 . S
C336 C339 1.453 . S
C336 C340 1.684 . S
C337 C327 1.723 . S
C337 C336 1.396 . S
C337 C338 1.394 . S
C338 C308 1.723 1_455 S
C338 C334 1.397 . S
C338 C337 1.394 . S
C339 H311 0.982 . S
C339 H315 0.979 . S
C339 H316 0.977 . S
C339 C336 1.453 . S
C340 H312 0.979 . S
C340 H313 0.980 . S
C340 H314 0.983 . S
C340 C336 1.684 . S
H341 C359 0.948 . S
H342 C300 0.948 . S
H343 C318 0.979 . S
H344 C318 0.980 . S
H345 C318 0.983 . S
H346 C317 0.982 1_455 S
H347 C317 0.979 . S
H348 C317 0.977 1_455 S
H349 C319 0.948 . S
H350 C321 0.947 . S
H351 C322 0.948 . S
H352 C328 0.982 . S
H353 C328 0.979 . S
H354 C328 0.977 . S
H355 C329 0.979 . S
H356 C329 0.980 . S
H357 C329 0.983 . S
H358 C302 0.947 . S
C359 C302 1.392 . S
C359 C303 1.419 . S
C359 H341 0.948 . S
C360 C361 1.391 . S
C360 C364 1.391 . S
C360 H402 0.948 . S
C361 C360 1.391 . S
C361 C362 1.391 . S
C362 C361 1.391 . S
C362 H418 0.947 . S
C362 C419 1.392 . S
C363 C364 1.391 . S
C363 C367 1.397 . S
C363 C419 1.419 . S
C364 C360 1.391 . S
C364 C363 1.391 . S
C364 C365 1.399 . S
C365 C364 1.399 . S
C365 C368 1.396 . S
C365 C377 1.453 . S
C365 C378 1.684 . S
H366 C390 0.948 . S
C367 C363 1.397 . S
C367 C368 1.394 . S
C367 C386 1.723 . S
C368 C365 1.396 . S
C368 C367 1.394 . S
C368 C398 1.723 1_565 S
H369 C392 0.947 . S
H370 C393 0.948 . S
H371 C399 0.982 . S
H372 C400 0.979 . S
H373 C400 0.980 . S
H374 C400 0.983 . S
H375 C399 0.979 . S
H376 C399 0.977 . S
C377 C365 1.453 . S
C377 H406 0.982 . S
C377 H407 0.979 . S
C377 H408 0.977 1_565 S
C378 C365 1.684 . S
C378 H403 0.979 . S
C378 H404 0.980 1_565 S
C378 H405 0.983 . S
C379 C380 1.391 1_565 S
C379 C384 1.391 . S
C379 H409 0.948 . S
C380 C379 1.391 1_545 S
C380 C381 1.391 . S
C381 C380 1.391 . S
C381 C382 1.392 . S
C381 H410 0.947 . S
C382 C381 1.392 . S
C382 C383 1.419 . S
C382 H411 0.948 . S
C383 C382 1.419 . S
C383 C384 1.391 1_545 S
C383 C387 1.397 . S
C384 C379 1.391 . S
C384 C383 1.391 1_565 S
C384 C385 1.399 . S
C385 C384 1.399 . S
C385 C386 1.396 . S
C385 C388 1.453 . S
C385 C389 1.684 . S
C386 C367 1.723 . S
C386 C385 1.396 . S
C386 C387 1.394 1_565 S
C387 C383 1.397 . S
C387 C386 1.394 1_545 S
C387 C397 1.723 . S
C388 C385 1.453 . S
C388 H412 0.982 . S
C388 H413 0.979 . S
C388 H414 0.977 . S
C389 C385 1.684 . S
C389 H415 0.979 . S
C389 H416 0.980 . S
C389 H417 0.983 . S
C390 H366 0.948 . S
C390 C391 1.391 . S
C390 C395 1.391 . S
C391 C390 1.391 . S
C391 C392 1.391 . S
C392 H369 0.947 . S
C392 C391 1.391 . S
C392 C393 1.392 . S
C393 H370 0.948 . S
C393 C392 1.392 . S
C393 C394 1.419 . S
C394 C393 1.419 . S
C394 C395 1.391 . S
C394 C398 1.397 . S
C395 C390 1.391 . S
C395 C394 1.391 . S
C395 C396 1.399 . S
C396 C395 1.399 . S
C396 C397 1.396 . S
C396 C399 1.453 . S
C396 C400 1.684 . S
C397 C387 1.723 . S
C397 C396 1.396 . S
C397 C398 1.394 . S
C398 C368 1.723 1_545 S
C398 C394 1.397 . S
C398 C397 1.394 . S
C399 H371 0.982 . S
C399 H375 0.979 . S
C399 H376 0.977 . S
C399 C396 1.453 . S
C400 H372 0.979 . S
C400 H373 0.980 . S
C400 H374 0.983 . S
C400 C396 1.684 . S
H401 C419 0.948 . S
H402 C360 0.948 . S
H403 C378 0.979 . S
H404 C378 0.980 1_545 S
H405 C378 0.983 . S
H406 C377 0.982 . S
H407 C377 0.979 . S
H408 C377 0.977 1_545 S
H409 C379 0.948 . S
H410 C381 0.947 . S
H411 C382 0.948 . S
H412 C388 0.982 . S
H413 C388 0.979 . S
H414 C388 0.977 . S
H415 C389 0.979 . S
H416 C389 0.980 . S
H417 C389 0.983 . S
H418 C362 0.947 . S
C419 C362 1.392 . S
C419 C363 1.419 . S
C419 H401 0.948 . S
C420 C421 1.391 . S
C420 C424 1.391 . S
C420 H462 0.948 . S
C421 C420 1.391 . S
C421 C422 1.391 . S
C422 C421 1.391 . S
C422 H478 0.947 . S
C422 C479 1.392 . S
C423 C424 1.391 . S
C423 C427 1.397 . S
C423 C479 1.419 . S
C424 C420 1.391 . S
C424 C423 1.391 . S
C424 C425 1.399 . S
C425 C424 1.399 . S
C425 C428 1.396 . S
C425 C437 1.453 . S
C425 C438 1.684 . S
H426 C450 0.948 . S
C427 C423 1.397 . S
C427 C428 1.394 . S
C427 C446 1.723 . S
C428 C425 1.396 . S
C428 C427 1.394 . S
C428 C458 1.723 . S
H429 C452 0.947 . S
H430 C453 0.948 . S
H431 C459 0.982 . S
H432 C460 0.979 . S
H433 C460 0.980 . S
H434 C460 0.983 . S
H435 C459 0.979 . S
H436 C459 0.977 . S
C437 C425 1.453 . S
C437 H466 0.982 . S
C437 H467 0.979 . S
C437 H468 0.977 . S
C438 C425 1.684 . S
C438 H463 0.979 . S
C438 H464 0.980 . S
C438 H465 0.983 . S
C439 C440 1.391 1_554 S
C439 C444 1.391 . S
C439 H469 0.948 . S
C440 C439 1.391 1_556 S
C440 C441 1.391 1_556 S
C441 C440 1.391 1_554 S
C441 C442 1.392 . S
C441 H470 0.947 1_554 S
C442 C441 1.392 . S
C442 C443 1.419 . S
C442 H471 0.948 . S
C443 C442 1.419 . S
C443 C444 1.391 . S
C443 C447 1.397 . S
C444 C439 1.391 . S
C444 C443 1.391 . S
C444 C445 1.399 . S
C445 C444 1.399 . S
C445 C446 1.396 . S
C445 C448 1.453 . S
C445 C449 1.684 . S
C446 C427 1.723 . S
C446 C445 1.396 . S
C446 C447 1.394 . S
C447 C443 1.397 . S
C447 C446 1.394 . S
C447 C457 1.723 . S
C448 C445 1.453 . S
C448 H472 0.982 . S
C448 H473 0.979 . S
C448 H474 0.977 . S
C449 C445 1.684 . S
C449 H475 0.979 . S
C449 H476 0.980 . S
C449 H477 0.983 . S
C450 H426 0.948 . S
C450 C451 1.391 . S
C450 C455 1.391 . S
C451 C450 1.391 . S
C451 C452 1.391 . S
C452 H429 0.947 . S
C452 C451 1.391 . S
C452 C453 1.392 . S
C453 H430 0.948 . S
C453 C452 1.392 . S
C453 C454 1.419 . S
C454 C453 1.419 . S
C454 C455 1.391 . S
C454 C458 1.397 . S
C455 C450 1.391 . S
C455 C454 1.391 . S
C455 C456 1.399 . S
C456 C455 1.399 . S
C456 C457 1.396 . S
C456 C459 1.453 . S
C456 C460 1.684 . S
C457 C447 1.723 . S
C457 C456 1.396 . S
C457 C458 1.394 . S
C458 C428 1.723 . S
C458 C454 1.397 . S
C458 C457 1.394 . S
C459 H431 0.982 . S
C459 H435 0.979 . S
C459 H436 0.977 . S
C459 C456 1.453 . S
C460 H432 0.979 . S
C460 H433 0.980 . S
C460 H434 0.983 . S
C460 C456 1.684 . S
H461 C479 0.948 . S
H462 C420 0.948 . S
H463 C438 0.979 . S
H464 C438 0.980 . S
H465 C438 0.983 . S
H466 C437 0.982 . S
H467 C437 0.979 . S
H468 C437 0.977 . S
H469 C439 0.948 . S
H470 C441 0.947 1_556 S
H471 C442 0.948 . S
H472 C448 0.982 . S
H473 C448 0.979 . S
H474 C448 0.977 . S
H475 C449 0.979 . S
H476 C449 0.980 . S
H477 C449 0.983 . S
H478 C422 0.947 . S
C479 C422 1.392 . S
C479 C423 1.419 . S
C479 H461 0.948 . S
C480 C481 1.363 . S
C480 C486 1.379 . S
C480 N488 1.356 . S
C481 C480 1.363 . S
C481 C487 1.363 . S
C482 C483 1.363 . S
C482 C487 1.379 . S
C482 N489 1.356 . S
C483 C482 1.363 . S
C483 C486 1.363 . S
N484 C486 1.356 . S
N484 H496 0.984 . S
N484 H497 0.985 . S
N485 C487 1.356 . S
N485 H490 0.984 . S
N485 H491 0.985 . S
C486 C480 1.379 . S
C486 C483 1.363 . S
C486 N484 1.356 . S
C487 C481 1.363 . S
C487 C482 1.379 . S
C487 N485 1.356 . S
N488 C480 1.356 . S
N488 H494 0.984 . S
N488 H495 0.984 . S
N489 C482 1.356 . S
N489 H492 0.984 . S
N489 H493 0.985 . S
H490 N485 0.984 . S
H491 N485 0.985 . S
H492 N489 0.984 . S
H493 N489 0.985 . S
H494 N488 0.984 . S
H495 N488 0.984 . S
H496 N484 0.984 . S
H497 N484 0.985 . S
C498 C499 1.363 . S
C498 C504 1.379 . S
C498 N506 1.356 . S
C499 C498 1.363 . S
C499 C505 1.363 . S
C500 C501 1.363 . S
C500 C505 1.379 . S
C500 N507 1.356 . S
C501 C500 1.363 . S
C501 C504 1.363 . S
N502 C504 1.356 . S
N502 H514 0.984 . S
N502 H515 0.985 . S
N503 C505 1.356 . S
N503 H508 0.984 . S
N503 H509 0.985 . S
C504 C498 1.379 . S
C504 C501 1.363 . S
C504 N502 1.356 . S
C505 C499 1.363 . S
C505 C500 1.379 . S
C505 N503 1.356 . S
N506 C498 1.356 . S
N506 H512 0.984 . S
N506 H513 0.984 . S
N507 C500 1.356 . S
N507 H510 0.984 . S
N507 H511 0.985 . S
H508 N503 0.984 . S
H509 N503 0.985 . S
H510 N507 0.984 . S
H511 N507 0.985 . S
H512 N506 0.984 . S
H513 N506 0.984 . S
H514 N502 0.984 . S
H515 N502 0.985 . S
C516 C517 1.363 . S
C516 C522 1.379 . S
C516 N524 1.356 . S
C517 C516 1.363 . S
C517 C523 1.363 . S
C518 C519 1.363 . S
C518 C523 1.379 . S
C518 N525 1.356 . S
C519 C518 1.363 . S
C519 C522 1.363 . S
N520 C522 1.356 . S
N520 H532 0.984 . S
N520 H533 0.985 . S
N521 C523 1.356 . S
N521 H526 0.984 . S
N521 H527 0.985 . S
C522 C516 1.379 . S
C522 C519 1.363 . S
C522 N520 1.356 . S
C523 C517 1.363 . S
C523 C518 1.379 . S
C523 N521 1.356 . S
N524 C516 1.356 . S
N524 H530 0.984 . S
N524 H531 0.984 . S
N525 C518 1.356 . S
N525 H528 0.984 . S
N525 H529 0.985 . S
H526 N521 0.984 . S
H527 N521 0.985 . S
H528 N525 0.984 . S
H529 N525 0.985 . S
H530 N524 0.984 . S
H531 N524 0.984 . S
H532 N520 0.984 . S
H533 N520 0.985 . S
C534 C535 1.363 . S
C534 C540 1.379 . S
C534 N542 1.356 . S
C535 C534 1.363 . S
C535 C541 1.363 . S
C536 C537 1.363 . S
C536 C541 1.379 . S
C536 N543 1.356 . S
C537 C536 1.363 . S
C537 C540 1.363 . S
N538 C540 1.356 . S
N538 H550 0.984 . S
N538 H551 0.985 . S
N539 C541 1.356 . S
N539 H544 0.984 . S
N539 H545 0.985 . S
C540 C534 1.379 . S
C540 C537 1.363 . S
C540 N538 1.356 . S
C541 C535 1.363 . S
C541 C536 1.379 . S
C541 N539 1.356 . S
N542 C534 1.356 . S
N542 H548 0.984 . S
N542 H549 0.984 . S
N543 C536 1.356 . S
N543 H546 0.984 . S
N543 H547 0.985 . S
H544 N539 0.984 . S
H545 N539 0.985 . S
H546 N543 0.984 . S
H547 N543 0.985 . S
H548 N542 0.984 . S
H549 N542 0.984 . S
H550 N538 0.984 . S
H551 N538 0.985 . S
C552 C553 1.363 . S
C552 C558 1.379 . S
C552 N560 1.356 . S
C553 C552 1.363 . S
C553 C559 1.363 . S
C554 C555 1.363 . S
C554 C559 1.379 . S
C554 N561 1.356 . S
C555 C554 1.363 . S
C555 C558 1.363 . S
N556 C558 1.356 . S
N556 H568 0.984 . S
N556 H569 0.985 . S
N557 C559 1.356 . S
N557 H562 0.984 . S
N557 H563 0.985 . S
C558 C552 1.379 . S
C558 C555 1.363 . S
C558 N556 1.356 . S
C559 C553 1.363 . S
C559 C554 1.379 . S
C559 N557 1.356 . S
N560 C552 1.356 . S
N560 H566 0.984 . S
N560 H567 0.984 . S
N561 C554 1.356 . S
N561 H564 0.984 . S
N561 H565 0.985 . S
H562 N557 0.984 . S
H563 N557 0.985 . S
H564 N561 0.984 . S
H565 N561 0.985 . S
H566 N560 0.984 . S
H567 N560 0.984 . S
H568 N556 0.984 . S
H569 N556 0.985 . S
C570 C571 1.363 . S
C570 C576 1.379 . S
C570 N578 1.356 . S
C571 C570 1.363 . S
C571 C577 1.363 . S
C572 C573 1.363 . S
C572 C577 1.379 . S
C572 N579 1.356 . S
C573 C572 1.363 . S
C573 C576 1.363 . S
N574 C576 1.356 . S
N574 H586 0.984 . S
N574 H587 0.985 . S
N575 C577 1.356 . S
N575 H580 0.984 . S
N575 H581 0.985 . S
C576 C570 1.379 . S
C576 C573 1.363 . S
C576 N574 1.356 . S
C577 C571 1.363 . S
C577 C572 1.379 . S
C577 N575 1.356 . S
N578 C570 1.356 . S
N578 H584 0.984 . S
N578 H585 0.984 . S
N579 C572 1.356 . S
N579 H582 0.984 . S
N579 H583 0.985 . S
H580 N575 0.984 . S
H581 N575 0.985 . S
H582 N579 0.984 . S
H583 N579 0.985 . S
H584 N578 0.984 . S
H585 N578 0.984 . S
H586 N574 0.984 . S
H587 N574 0.985 . S
C588 C589 1.363 . S
C588 C594 1.379 . S
C588 N596 1.356 . S
C589 C588 1.363 . S
C589 C595 1.363 . S
C590 C591 1.363 . S
C590 C595 1.379 . S
C590 N597 1.356 . S
C591 C590 1.363 . S
C591 C594 1.363 . S
N592 C594 1.356 . S
N592 H604 0.984 . S
N592 H605 0.985 . S
N593 C595 1.356 . S
N593 H598 0.984 . S
N593 H599 0.985 . S
C594 C588 1.379 . S
C594 C591 1.363 . S
C594 N592 1.356 . S
C595 C589 1.363 . S
C595 C590 1.379 . S
C595 N593 1.356 . S
N596 C588 1.356 . S
N596 H602 0.984 . S
N596 H603 0.984 . S
N597 C590 1.356 . S
N597 H600 0.984 . S
N597 H601 0.985 . S
H598 N593 0.984 . S
H599 N593 0.985 . S
H600 N597 0.984 . S
H601 N597 0.985 . S
H602 N596 0.984 . S
H603 N596 0.984 . S
H604 N592 0.984 . S
H605 N592 0.985 . S
C606 C607 1.363 . S
C606 C612 1.379 . S
C606 N614 1.356 . S
C607 C606 1.363 . S
C607 C613 1.363 . S
C608 C609 1.363 . S
C608 C613 1.379 . S
C608 N615 1.356 . S
C609 C608 1.363 . S
C609 C612 1.363 . S
N610 C612 1.356 . S
N610 H622 0.984 . S
N610 H623 0.985 . S
N611 C613 1.356 . S
N611 H616 0.984 . S
N611 H617 0.985 . S
C612 C606 1.379 . S
C612 C609 1.363 . S
C612 N610 1.356 . S
C613 C607 1.363 . S
C613 C608 1.379 . S
C613 N611 1.356 . S
N614 C606 1.356 . S
N614 H620 0.984 . S
N614 H621 0.984 . S
N615 C608 1.356 . S
N615 H618 0.984 . S
N615 H619 0.985 . S
H616 N611 0.984 . S
H617 N611 0.985 . S
H618 N615 0.984 . S
H619 N615 0.985 . S
H620 N614 0.984 . S
H621 N614 0.984 . S
H622 N610 0.984 . S
H623 N610 0.985 . S
C624 C625 1.363 . S
C624 C630 1.379 . S
C624 N632 1.356 . S
C625 C624 1.363 . S
C625 C631 1.363 . S
C626 C627 1.363 . S
C626 C631 1.379 . S
C626 N633 1.356 . S
C627 C626 1.363 . S
C627 C630 1.363 . S
N628 C630 1.356 . S
N628 H640 0.984 . S
N628 H641 0.985 . S
N629 C631 1.356 . S
N629 H634 0.984 . S
N629 H635 0.985 . S
C630 C624 1.379 . S
C630 C627 1.363 . S
C630 N628 1.356 . S
C631 C625 1.363 . S
C631 C626 1.379 . S
C631 N629 1.356 . S
N632 C624 1.356 . S
N632 H638 0.984 . S
N632 H639 0.984 . S
N633 C626 1.356 . S
N633 H636 0.984 . S
N633 H637 0.985 . S
H634 N629 0.984 . S
H635 N629 0.985 . S
H636 N633 0.984 . S
H637 N633 0.985 . S
H638 N632 0.984 . S
H639 N632 0.984 . S
H640 N628 0.984 . S
H641 N628 0.985 . S
C642 C643 1.363 . S
C642 C648 1.379 . S
C642 N650 1.356 . S
C643 C642 1.363 . S
C643 C649 1.363 . S
C644 C645 1.363 . S
C644 C649 1.379 . S
C644 N651 1.356 . S
C645 C644 1.363 . S
C645 C648 1.363 . S
N646 C648 1.356 . S
N646 H658 0.984 . S
N646 H659 0.985 . S
N647 C649 1.356 . S
N647 H652 0.984 . S
N647 H653 0.985 . S
C648 C642 1.379 . S
C648 C645 1.363 . S
C648 N646 1.356 . S
C649 C643 1.363 . S
C649 C644 1.379 . S
C649 N647 1.356 . S
N650 C642 1.356 . S
N650 H656 0.984 . S
N650 H657 0.984 . S
N651 C644 1.356 . S
N651 H654 0.984 . S
N651 H655 0.985 . S
H652 N647 0.984 . S
H653 N647 0.985 . S
H654 N651 0.984 . S
H655 N651 0.985 . S
H656 N650 0.984 . S
H657 N650 0.984 . S
H658 N646 0.984 . S
H659 N646 0.985 . S
C660 C661 1.363 . S
C660 C666 1.379 . S
C660 N668 1.356 . S
C661 C660 1.363 . S
C661 C667 1.363 . S
C662 C663 1.363 . S
C662 C667 1.379 . S
C662 N669 1.356 . S
C663 C662 1.363 . S
C663 C666 1.363 . S
N664 C666 1.356 . S
N664 H676 0.984 . S
N664 H677 0.985 . S
N665 C667 1.356 . S
N665 H670 0.984 . S
N665 H671 0.985 . S
C666 C660 1.379 . S
C666 C663 1.363 . S
C666 N664 1.356 . S
C667 C661 1.363 . S
C667 C662 1.379 . S
C667 N665 1.356 . S
N668 C660 1.356 . S
N668 H674 0.984 . S
N668 H675 0.984 . S
N669 C662 1.356 . S
N669 H672 0.984 . S
N669 H673 0.985 . S
H670 N665 0.984 . S
H671 N665 0.985 . S
H672 N669 0.984 . S
H673 N669 0.985 . S
H674 N668 0.984 . S
H675 N668 0.984 . S
H676 N664 0.984 . S
H677 N664 0.985 . S
C678 C679 1.363 . S
C678 C684 1.379 . S
C678 N686 1.356 . S
C679 C678 1.363 . S
C679 C685 1.363 . S
C680 C681 1.363 . S
C680 C685 1.379 . S
C680 N687 1.356 . S
C681 C680 1.363 . S
C681 C684 1.363 . S
N682 C684 1.356 . S
N682 H694 0.984 . S
N682 H695 0.985 . S
N683 C685 1.356 . S
N683 H688 0.984 . S
N683 H689 0.985 . S
C684 C678 1.379 . S
C684 C681 1.363 . S
C684 N682 1.356 . S
C685 C679 1.363 . S
C685 C680 1.379 . S
C685 N683 1.356 . S
N686 C678 1.356 . S
N686 H692 0.984 . S
N686 H693 0.984 . S
N687 C680 1.356 . S
N687 H690 0.984 . S
N687 H691 0.985 . S
H688 N683 0.984 . S
H689 N683 0.985 . S
H690 N687 0.984 . S
H691 N687 0.985 . S
H692 N686 0.984 . S
H693 N686 0.984 . S
H694 N682 0.984 . S
H695 N682 0.985 . S
C696 C697 1.363 . S
C696 C702 1.379 . S
C696 N704 1.356 . S
C697 C696 1.363 . S
C697 C703 1.363 . S
C698 C699 1.363 . S
C698 C703 1.379 . S
C698 N705 1.356 1_455 S
C699 C698 1.363 . S
C699 C702 1.363 . S
N700 C702 1.356 . S
N700 H712 0.984 . S
N700 H713 0.985 . S
N701 C703 1.356 1_655 S
N701 H706 0.984 . S
N701 H707 0.985 . S
C702 C696 1.379 . S
C702 C699 1.363 . S
C702 N700 1.356 . S
C703 C697 1.363 . S
C703 C698 1.379 . S
C703 N701 1.356 1_455 S
N704 C696 1.356 . S
N704 H710 0.984 . S
N704 H711 0.984 . S
N705 C698 1.356 1_655 S
N705 H708 0.984 . S
N705 H709 0.985 . S
H706 N701 0.984 . S
H707 N701 0.985 . S
H708 N705 0.984 . S
H709 N705 0.985 . S
H710 N704 0.984 . S
H711 N704 0.984 . S
H712 N700 0.984 . S
H713 N700 0.985 . S
C714 C715 1.363 . S
C714 C720 1.379 . S
C714 N722 1.356 . S
C715 C714 1.363 . S
C715 C721 1.363 1_545 S
C716 C717 1.363 1_565 S
C716 C721 1.379 . S
C716 N723 1.356 . S
C717 C716 1.363 1_545 S
C717 C720 1.363 . S
N718 C720 1.356 . S
N718 H730 0.984 . S
N718 H731 0.985 . S
N719 C721 1.356 . S
N719 H724 0.984 . S
N719 H725 0.985 . S
C720 C714 1.379 . S
C720 C717 1.363 . S
C720 N718 1.356 . S
C721 C715 1.363 1_565 S
C721 C716 1.379 . S
C721 N719 1.356 . S
N722 C714 1.356 . S
N722 H728 0.984 . S
N722 H729 0.984 . S
N723 C716 1.356 . S
N723 H726 0.984 . S
N723 H727 0.985 . S
H724 N719 0.984 . S
H725 N719 0.985 . S
H726 N723 0.984 . S
H727 N723 0.985 . S
H728 N722 0.984 . S
H729 N722 0.984 . S
H730 N718 0.984 . S
H731 N718 0.985 . S
C732 C733 1.363 . S
C732 C738 1.379 . S
C732 N740 1.356 . S
C733 C732 1.363 . S
C733 C739 1.363 . S
C734 C735 1.363 . S
C734 C739 1.379 . S
C734 N741 1.356 . S
C735 C734 1.363 . S
C735 C738 1.363 . S
N736 C738 1.356 . S
N736 H748 0.984 . S
N736 H749 0.985 . S
N737 C739 1.356 . S
N737 H742 0.984 . S
N737 H743 0.985 . S
C738 C732 1.379 . S
C738 C735 1.363 . S
C738 N736 1.356 . S
C739 C733 1.363 . S
C739 C734 1.379 . S
C739 N737 1.356 . S
N740 C732 1.356 . S
N740 H746 0.984 . S
N740 H747 0.984 . S
N741 C734 1.356 . S
N741 H744 0.984 . S
N741 H745 0.985 . S
H742 N737 0.984 . S
H743 N737 0.985 . S
H744 N741 0.984 . S
H745 N741 0.985 . S
H746 N740 0.984 . S
H747 N740 0.984 . S
H748 N736 0.984 . S
H749 N736 0.985 . S
C750 C751 1.363 1_565 S
C750 C756 1.379 . S
C750 N758 1.356 . S
C751 C750 1.363 1_545 S
C751 C757 1.363 . S
C752 C753 1.376 . S
C752 C757 1.379 . S
C752 N759 1.356 . S
C753 C752 1.376 . S
C753 C756 1.354 1_545 S
N754 C756 1.356 . S
N754 H766 0.984 . S
N754 H767 0.985 . S
N755 C757 1.356 . S
N755 H760 0.984 . S
N755 H761 0.985 . S
C756 C750 1.379 . S
C756 C753 1.354 1_565 S
C756 N754 1.356 . S
C757 C751 1.363 . S
C757 C752 1.379 . S
C757 N755 1.356 . S
N758 C750 1.356 . S
N758 H764 0.984 . S
N758 H765 0.984 . S
N759 C752 1.356 . S
N759 H762 0.984 . S
N759 H763 0.985 . S
H760 N755 0.984 . S
H761 N755 0.985 . S
H762 N759 0.984 . S
H763 N759 0.985 . S
H764 N758 0.984 . S
H765 N758 0.984 . S
H766 N754 0.984 . S
H767 N754 0.985 . S
C768 C769 1.363 . S
C768 C774 1.379 . S
C768 N776 1.356 . S
C769 C768 1.363 . S
C769 C775 1.363 . S
C770 C771 1.363 . S
C770 C775 1.379 . S
C770 N777 1.356 . S
C771 C770 1.363 . S
C771 C774 1.363 . S
N772 C774 1.356 . S
N772 H784 0.984 . S
N772 H785 0.985 . S
N773 C775 1.356 . S
N773 H778 0.984 . S
N773 H779 0.985 . S
C774 C768 1.379 . S
C774 C771 1.363 . S
C774 N772 1.356 . S
C775 C769 1.363 . S
C775 C770 1.379 . S
C775 N773 1.356 . S
N776 C768 1.356 . S
N776 H782 0.984 . S
N776 H783 0.984 . S
N777 C770 1.356 . S
N777 H780 0.984 . S
N777 H781 0.985 . S
H778 N773 0.984 . S
H779 N773 0.985 . S
H780 N777 0.984 . S
H781 N777 0.985 . S
H782 N776 0.984 . S
H783 N776 0.984 . S
H784 N772 0.984 . S
H785 N772 0.985 . S
C786 C787 1.363 . S
C786 C792 1.379 . S
C786 N794 1.356 . S
C787 C786 1.363 . S
C787 C793 1.363 1_455 S
C788 C789 1.363 1_655 S
C788 C793 1.379 . S
C788 N795 1.356 . S
C789 C788 1.363 1_455 S
C789 C792 1.363 . S
N790 C792 1.356 . S
N790 H802 0.984 . S
N790 H803 0.985 . S
N791 C793 1.356 . S
N791 H796 0.984 . S
N791 H797 0.985 . S
C792 C786 1.379 . S
C792 C789 1.363 . S
C792 N790 1.356 . S
C793 C787 1.363 1_655 S
C793 C788 1.379 . S
C793 N791 1.356 . S
N794 C786 1.356 . S
N794 H800 0.984 . S
N794 H801 0.984 . S
N795 C788 1.356 . S
N795 H798 0.984 . S
N795 H799 0.985 . S
H796 N791 0.984 . S
H797 N791 0.985 . S
H798 N795 0.984 . S
H799 N795 0.985 . S
H800 N794 0.984 . S
H801 N794 0.984 . S
H802 N790 0.984 . S
H803 N790 0.985 . S
C481 C10 3.186 . S
C483 C451 3.182 . S
C499 C55 1.296 . S
C501 C301 1.295 . S
C517 C90 2.007 . S
C519 C361 1.844 . S
C535 C19 3.108 . S
C537 C421 2.930 . S
C555 C331 1.394 . S
C553 C46 1.355 . S
C573 C391 2.209 . S
C571 C99 2.204 . S
C589 C50 2.012 . S
C591 C181 1.837 . S
C607 C95 0.924 . S
C609 C271 1.016 . S
C625 C6 1.375 . S
C627 C151 1.402 . S
C645 C211 2.146 . S
C643 C59 2.171 . S
C663 C241 0.598 . S
C661 C86 0.668 . S
C679 C15 1.417 . S
C681 C121 1.461 . S
C699 C260 1.103 . S
C697 C18 1.103 . S
C715 C49 1.457 . S
C717 C140 1.470 . S
C733 C98 1.326 . S
C735 C200 1.329 . S
C753 C380 1.341 . S
C751 C58 1.331 . S
C771 C440 1.772 . S
C769 C89 1.722 . S
C787 C9 1.451 . S
C789 C320 1.476 . S
