# Generated by pormake.
# Topology ctn, (3,4)-cn, num edge types: 1
# Building blocks:
#     Node 0, Type 0, BuildingBlock: BETDAH_clean_linker_0, # of connection points: 3
#     Node 1, Type 0, BuildingBlock: BETDAH_clean_linker_0, # of connection points: 3
#     Node 2, Type 0, BuildingBlock: BETDAH_clean_linker_0, # of connection points: 3
#     Node 3, Type 0, BuildingBlock: BETDAH_clean_linker_0, # of connection points: 3
#     Node 4, Type 0, BuildingBlock: BETDAH_clean_linker_0, # of connection points: 3
#     Node 5, Type 0, BuildingBlock: BETDAH_clean_linker_0, # of connection points: 3
#     Node 6, Type 0, BuildingBlock: BETDAH_clean_linker_0, # of connection points: 3
#     Node 7, Type 0, BuildingBlock: BETDAH_clean_linker_0, # of connection points: 3
#     Node 8, Type 0, BuildingBlock: BETDAH_clean_linker_0, # of connection points: 3
#     Node 9, Type 0, BuildingBlock: BETDAH_clean_linker_0, # of connection points: 3
#     Node 10, Type 0, BuildingBlock: BETDAH_clean_linker_0, # of connection points: 3
#     Node 11, Type 0, BuildingBlock: BETDAH_clean_linker_0, # of connection points: 3
#     Node 12, Type 0, BuildingBlock: BETDAH_clean_linker_0, # of connection points: 3
#     Node 13, Type 0, BuildingBlock: BETDAH_clean_linker_0, # of connection points: 3
#     Node 14, Type 0, BuildingBlock: BETDAH_clean_linker_0, # of connection points: 3
#     Node 15, Type 0, BuildingBlock: BETDAH_clean_linker_0, # of connection points: 3
#     Node 16, Type 1, BuildingBlock: UXUYUI_clean_sbu_0, # of connection points: 4
#     Node 17, Type 1, BuildingBlock: UXUYUI_clean_sbu_0, # of connection points: 4
#     Node 18, Type 1, BuildingBlock: UXUYUI_clean_sbu_0, # of connection points: 4
#     Node 19, Type 1, BuildingBlock: UXUYUI_clean_sbu_0, # of connection points: 4
#     Node 20, Type 1, BuildingBlock: UXUYUI_clean_sbu_0, # of connection points: 4
#     Node 21, Type 1, BuildingBlock: UXUYUI_clean_sbu_0, # of connection points: 4
#     Node 22, Type 1, BuildingBlock: UXUYUI_clean_sbu_0, # of connection points: 4
#     Node 23, Type 1, BuildingBlock: UXUYUI_clean_sbu_0, # of connection points: 4
#     Node 24, Type 1, BuildingBlock: UXUYUI_clean_sbu_0, # of connection points: 4
#     Node 25, Type 1, BuildingBlock: UXUYUI_clean_sbu_0, # of connection points: 4
#     Node 26, Type 1, BuildingBlock: UXUYUI_clean_sbu_0, # of connection points: 4
#     Node 27, Type 1, BuildingBlock: UXUYUI_clean_sbu_0, # of connection points: 4
#     Edge 28, Type (0, 1), BuildingBlock: OJICUG_clean_linker_0, # of connection points: 2
#     Edge 29, Type (0, 1), BuildingBlock: OJICUG_clean_linker_0, # of connection points: 2
#     Edge 30, Type (0, 1), BuildingBlock: OJICUG_clean_linker_0, # of connection points: 2
#     Edge 31, Type (0, 1), BuildingBlock: OJICUG_clean_linker_0, # of connection points: 2
#     Edge 32, Type (0, 1), BuildingBlock: OJICUG_clean_linker_0, # of connection points: 2
#     Edge 33, Type (0, 1), BuildingBlock: OJICUG_clean_linker_0, # of connection points: 2
#     Edge 34, Type (0, 1), BuildingBlock: OJICUG_clean_linker_0, # of connection points: 2
#     Edge 35, Type (0, 1), BuildingBlock: OJICUG_clean_linker_0, # of connection points: 2
#     Edge 36, Type (0, 1), BuildingBlock: OJICUG_clean_linker_0, # of connection points: 2
#     Edge 37, Type (0, 1), BuildingBlock: OJICUG_clean_linker_0, # of connection points: 2
#     Edge 38, Type (0, 1), BuildingBlock: OJICUG_clean_linker_0, # of connection points: 2
#     Edge 39, Type (0, 1), BuildingBlock: OJICUG_clean_linker_0, # of connection points: 2
#     Edge 40, Type (0, 1), BuildingBlock: OJICUG_clean_linker_0, # of connection points: 2
#     Edge 41, Type (0, 1), BuildingBlock: OJICUG_clean_linker_0, # of connection points: 2
#     Edge 42, Type (0, 1), BuildingBlock: OJICUG_clean_linker_0, # of connection points: 2
#     Edge 43, Type (0, 1), BuildingBlock: OJICUG_clean_linker_0, # of connection points: 2
#     Edge 44, Type (0, 1), BuildingBlock: OJICUG_clean_linker_0, # of connection points: 2
#     Edge 45, Type (0, 1), BuildingBlock: OJICUG_clean_linker_0, # of connection points: 2
#     Edge 46, Type (0, 1), BuildingBlock: OJICUG_clean_linker_0, # of connection points: 2
#     Edge 47, Type (0, 1), BuildingBlock: OJICUG_clean_linker_0, # of connection points: 2
#     Edge 48, Type (0, 1), BuildingBlock: OJICUG_clean_linker_0, # of connection points: 2
#     Edge 49, Type (0, 1), BuildingBlock: OJICUG_clean_linker_0, # of connection points: 2
#     Edge 50, Type (0, 1), BuildingBlock: OJICUG_clean_linker_0, # of connection points: 2
#     Edge 51, Type (0, 1), BuildingBlock: OJICUG_clean_linker_0, # of connection points: 2
#     Edge 52, Type (0, 1), BuildingBlock: OJICUG_clean_linker_0, # of connection points: 2
#     Edge 53, Type (0, 1), BuildingBlock: OJICUG_clean_linker_0, # of connection points: 2
#     Edge 54, Type (0, 1), BuildingBlock: OJICUG_clean_linker_0, # of connection points: 2
#     Edge 55, Type (0, 1), BuildingBlock: OJICUG_clean_linker_0, # of connection points: 2
#     Edge 56, Type (0, 1), BuildingBlock: OJICUG_clean_linker_0, # of connection points: 2
#     Edge 57, Type (0, 1), BuildingBlock: OJICUG_clean_linker_0, # of connection points: 2
#     Edge 58, Type (0, 1), BuildingBlock: OJICUG_clean_linker_0, # of connection points: 2
#     Edge 59, Type (0, 1), BuildingBlock: OJICUG_clean_linker_0, # of connection points: 2
#     Edge 60, Type (0, 1), BuildingBlock: OJICUG_clean_linker_0, # of connection points: 2
#     Edge 61, Type (0, 1), BuildingBlock: OJICUG_clean_linker_0, # of connection points: 2
#     Edge 62, Type (0, 1), BuildingBlock: OJICUG_clean_linker_0, # of connection points: 2
#     Edge 63, Type (0, 1), BuildingBlock: OJICUG_clean_linker_0, # of connection points: 2
#     Edge 64, Type (0, 1), BuildingBlock: OJICUG_clean_linker_0, # of connection points: 2
#     Edge 65, Type (0, 1), BuildingBlock: OJICUG_clean_linker_0, # of connection points: 2
#     Edge 66, Type (0, 1), BuildingBlock: OJICUG_clean_linker_0, # of connection points: 2
#     Edge 67, Type (0, 1), BuildingBlock: OJICUG_clean_linker_0, # of connection points: 2
#     Edge 68, Type (0, 1), BuildingBlock: OJICUG_clean_linker_0, # of connection points: 2
#     Edge 69, Type (0, 1), BuildingBlock: OJICUG_clean_linker_0, # of connection points: 2
#     Edge 70, Type (0, 1), BuildingBlock: OJICUG_clean_linker_0, # of connection points: 2
#     Edge 71, Type (0, 1), BuildingBlock: OJICUG_clean_linker_0, # of connection points: 2
#     Edge 72, Type (0, 1), BuildingBlock: OJICUG_clean_linker_0, # of connection points: 2
#     Edge 73, Type (0, 1), BuildingBlock: OJICUG_clean_linker_0, # of connection points: 2
#     Edge 74, Type (0, 1), BuildingBlock: OJICUG_clean_linker_0, # of connection points: 2
#     Edge 75, Type (0, 1), BuildingBlock: OJICUG_clean_linker_0, # of connection points: 2
# Relax obj value: 0.052
# Max RMSD: 0.164
# Mean RMSD: 0.105
data_MOF--net-ctn--node1-UXUYUI_clean_sbu_0--node2-BETDAH_clean_linker_0--edge1-OJICUG_clean_linker_0
_symmetry_space_group_name_H-M    P1
_symmetry_Int_Tables_number       1
_symmetry_cell_setting            triclinic
loop_
_symmetry_equiv_pos_as_xyz
'x, y, z'
_cell_length_a     52.071603
_cell_length_b     51.915166
_cell_length_c     52.634165
_cell_angle_alpha  98.570496
_cell_angle_beta   90.219257
_cell_angle_gamma 94.606154
loop_
_atom_site_label
_atom_site_type_symbol
_atom_site_fract_x
_atom_site_fract_y
_atom_site_fract_z
_atom_type_partial_charge
H0 H 0.07472 0.01158 0.10298 0.0
H1 H 0.07558 0.03416 0.02717 0.0
H2 H 0.01416 0.05417 0.07852 0.0
C3 C 0.06652 0.0215 0.08854 0.0
C4 C 0.04369 0.03377 0.09395 0.0
C5 C 0.0784 0.02146 0.06449 0.0
C6 C 0.06699 0.03411 0.04587 0.0
C7 C 0.0438 0.04582 0.05103 0.0
C8 C 0.03233 0.04553 0.07493 0.0
N9 N 0.03016 0.05562 0.03173 0.0
C10 C 0.04082 0.07392 0.01724 0.0
H11 H 0.3272 0.69595 0.27109 0.0
H12 H 0.36881 0.75215 0.23113 0.0
H13 H 0.29332 0.71987 0.20438 0.0
C14 C 0.32807 0.70814 0.25603 0.0
C15 C 0.30741 0.70616 0.23833 0.0
C16 C 0.3504 0.72454 0.25362 0.0
C17 C 0.35179 0.73925 0.23329 0.0
C18 C 0.33127 0.73805 0.21581 0.0
C19 C 0.309 0.72139 0.21825 0.0
N20 N 0.33458 0.75291 0.19536 0.0
C21 C 0.315 0.76233 0.18223 0.0
H22 H 0.03522 0.44224 0.06751 0.0
H23 H 0.01315 0.52123 0.0727 0.0
H24 H 0.99757 0.46712 1.00358 0.0
C25 C 0.02599 0.45716 0.05933 0.0
C26 C 0.01566 0.45129 0.03423 0.0
C27 C 0.02533 0.48235 0.07352 0.0
C28 C 0.0136 0.50161 0.06234 0.0
C29 C 1.00344 0.49594 0.03722 0.0
C30 C 1.00463 0.47095 0.0233 0.0
N31 N 0.9952 0.516 0.02444 0.0
C32 C 0.97289 0.52832 0.03071 0.0
H33 H 0.79472 0.81838 0.19953 0.0
H34 H 0.74989 0.75573 0.22813 0.0
H35 H 0.77689 0.82403 0.28002 0.0
C36 C 0.78523 0.81045 0.21529 0.0
C37 C 0.78732 0.8247 0.24027 0.0
C38 C 0.77161 0.78562 0.21056 0.0
C39 C 0.75968 0.7752 0.23115 0.0
C40 C 0.7618 0.7891 0.25609 0.0
C41 C 0.77548 0.81367 0.26055 0.0
N42 N 0.75309 0.77717 0.27728 0.0
C43 C 0.72728 0.7747 0.28367 0.0
H44 H 0.07876 0.0184 0.45569 0.0
H45 H 0.08598 0.98312 0.52445 0.0
H46 H 0.01385 0.97484 0.48296 0.0
C47 C 0.07065 1.00659 0.46948 0.0
C48 C 0.04485 0.99657 0.46646 0.0
C49 C 0.08589 1.00184 0.49021 0.0
C50 C 0.07472 0.98676 0.5082 0.0
C51 C 0.04862 0.97708 0.50549 0.0
C52 C 0.03399 0.98209 0.48471 0.0
N53 N 0.03568 0.96381 0.52404 0.0
C54 C 0.04653 0.94765 0.5392 0.0
H55 H 0.28784 0.72016 0.847 0.0
H56 H 0.21438 0.73749 0.8187 0.0
H57 H 0.25299 0.67372 0.77914 0.0
C58 C 0.27226 0.71596 0.8329 0.0
C59 C 0.27338 0.69517 0.81258 0.0
C60 C 0.25094 0.73118 0.83536 0.0
C61 C 0.23076 0.72577 0.81697 0.0
C62 C 0.23186 0.70521 0.79644 0.0
C63 C 0.25291 0.69 0.79463 0.0
N64 N 0.21216 0.69869 0.77733 0.0
C65 C 0.19142 0.71316 0.77402 0.0
H66 H 0.93732 0.56953 0.52655 0.0
H67 H 1.00536 0.57666 0.48067 0.0
H68 H 0.95277 0.50792 0.46592 0.0
C69 C 0.94938 0.56166 0.51103 0.0
C70 C 0.94205 0.53707 0.4968 0.0
C71 C 0.97217 0.57616 0.50541 0.0
C72 C 0.98784 0.56568 0.48522 0.0
C73 C 0.98048 0.54107 0.47083 0.0
C74 C 0.95786 0.52706 0.47686 0.0
N75 N 0.99492 0.52915 0.45014 0.0
C76 C 0.01722 0.53943 0.43966 0.0
H77 H 0.84545 0.751 0.8204 0.0
H78 H 0.8095 0.8052 0.77948 0.0
H79 H 0.76878 0.77198 0.8389 0.0
C80 C 0.82925 0.76203 0.8172 0.0
C81 C 0.80705 0.75942 0.83208 0.0
C82 C 0.83045 0.77833 0.7979 0.0
C83 C 0.8093 0.79298 0.79446 0.0
C84 C 0.7871 0.79051 0.8093 0.0
C85 C 0.78607 0.7736 0.82765 0.0
N86 N 0.76463 0.8032 0.80521 0.0
C87 C 0.76423 0.82788 0.79804 0.0
H88 H 0.34432 0.25402 0.31852 0.0
H89 H 0.31547 0.3194 0.2884 0.0
H90 H 0.27775 0.28914 0.35127 0.0
C91 C 0.33044 0.26849 0.31867 0.0
C92 C 0.31045 0.26891 0.33658 0.0
C93 C 0.33255 0.28657 0.30101 0.0
C94 C 0.31437 0.3055 0.30186 0.0
C95 C 0.29465 0.30635 0.32011 0.0
C96 C 0.29291 0.2881 0.33717 0.0
N97 N 0.27625 0.3253 0.32252 0.0
C98 C 0.27246 0.34332 0.30605 0.0
H99 H 0.53411 0.94061 0.56842 0.0
H100 H 0.52068 0.02226 0.58092 0.0
H101 H 0.49219 0.97381 0.51212 0.0
C102 C 0.52512 0.95697 0.56263 0.0
C103 C 0.5121 0.9538 0.5387 0.0
C104 C 0.52838 0.98155 0.5782 0.0
C105 C 0.51814 1.00301 0.56956 0.0
C106 C 0.505 1.00018 0.54599 0.0
C107 C 0.50178 0.9756 0.53068 0.0
N108 N 0.499 0.0229 0.53612 0.0
C109 C 0.47401 0.0295 0.53287 0.0
H110 H 0.29764 0.31634 0.69666 0.0
H111 H 0.25256 0.25332 0.72436 0.0
H112 H 0.2787 0.32143 0.77688 0.0
C113 C 0.28798 0.30827 0.71224 0.0
C114 C 0.2897 0.32238 0.73731 0.0
C115 C 0.27441 0.28342 0.70722 0.0
C116 C 0.26229 0.2728 0.72761 0.0
C117 C 0.26406 0.28655 0.7526 0.0
C118 C 0.2776 0.31117 0.75737 0.0
N119 N 0.25502 0.27439 0.77353 0.0
C120 C 0.22925 0.27289 0.78016 0.0
H121 H 0.82749 0.19454 0.77126 0.0
H122 H 0.87124 0.24349 0.72528 0.0
H123 H 0.79597 0.20972 0.69952 0.0
C124 C 0.82895 0.20433 0.75445 0.0
C125 C 0.80876 0.20036 0.73607 0.0
C126 C 0.85143 0.2201 0.75093 0.0
C127 C 0.85363 0.232 0.72872 0.0
C128 C 0.8336 0.22869 0.71044 0.0
C129 C 0.81109 0.21292 0.71411 0.0
N130 N 0.83797 0.23896 0.68722 0.0
C131 C 0.82116 0.25404 0.67655 0.0
H132 H 0.57391 0.51169 0.60325 0.0
H133 H 0.57471 0.53228 0.5267 0.0
H134 H 0.51371 0.55427 0.57794 0.0
C135 C 0.56573 0.52136 0.5886 0.0
C136 C 0.54299 0.53386 0.59378 0.0
C137 C 0.57749 0.52064 0.56447 0.0
C138 C 0.56621 0.53291 0.54552 0.0
C139 C 0.54325 0.54511 0.55053 0.0
C140 C 0.53179 0.54543 0.57451 0.0
N141 N 0.52971 0.55455 0.53093 0.0
C142 C 0.54026 0.57318 0.51674 0.0
H143 H 0.57991 0.51865 0.95589 0.0
H144 H 0.58632 0.48331 0.02473 0.0
H145 H 0.51478 0.47465 0.98225 0.0
C146 C 0.57167 0.50677 0.96955 0.0
C147 C 0.54595 0.49655 0.96615 0.0
C148 C 0.58665 0.50211 0.99052 0.0
C149 C 0.57528 0.48691 0.00832 0.0
C150 C 0.54925 0.47709 1.00525 0.0
C151 C 0.53489 0.48202 0.98427 0.0
N152 N 0.5361 0.46378 0.02365 0.0
C153 C 0.54679 0.44753 0.03882 0.0
H154 H 0.79091 0.22264 0.3481 0.0
H155 H 0.72024 0.24468 0.31767 0.0
H156 H 0.75771 0.18044 0.2775 0.0
C157 C 0.77595 0.21974 0.33336 0.0
C158 C 0.77718 0.19966 0.3124 0.0
C159 C 0.7554 0.23604 0.33555 0.0
C160 C 0.73597 0.23213 0.31631 0.0
C161 C 0.73716 0.21219 0.2952 0.0
C162 C 0.75754 0.19613 0.29356 0.0
N163 N 0.71841 0.20731 0.27506 0.0
C164 C 0.69677 0.2209 0.273 0.0
H165 H 0.44093 0.06342 0.03321 0.0
H166 H 0.49572 0.0847 0.97728 0.0
H167 H 0.44344 0.01628 0.95881 0.0
C168 C 0.44912 0.05949 0.01427 0.0
C169 C 0.43994 0.03711 0.99726 0.0
C170 C 0.46895 0.07698 0.00717 0.0
C171 C 0.48062 0.07128 0.98307 0.0
C172 C 0.47134 0.04915 0.96576 0.0
C173 C 0.4509 0.03264 0.97281 0.0
N174 N 0.48048 0.04374 0.94031 0.0
C175 C 0.5054 0.04967 0.93236 0.0
Li176 Li 0.28141 0.9064 0.02598 0.0
Li177 Li 0.25909 0.87384 0.04851 0.0
Li178 Li 0.25464 0.87068 1.0008 0.0
Li179 Li 0.23506 0.90607 0.03082 0.0
C180 C 0.3076 0.85806 0.01324 0.0
N181 N 0.35274 0.83745 0.99579 0.0
C182 C 0.32331 0.84738 0.02988 0.0
C183 C 0.31484 0.85817 0.98772 0.0
C184 C 0.34606 0.83709 0.0207 0.0
C185 C 0.33773 0.84768 0.97926 0.0
C186 C 0.27819 0.91997 0.07914 0.0
C187 C 0.28875 0.94629 0.12014 0.0
N188 N 0.31101 0.93441 0.12111 0.0
C189 C 0.30117 0.90803 0.08056 0.0
C190 C 0.2719 0.93925 0.09907 0.0
C191 C 0.31751 0.9156 0.10193 0.0
C192 C 0.30863 0.9558 0.02628 0.0
N193 N 0.31207 0.93002 0.02565 0.0
C194 C 0.35766 0.93886 0.02237 0.0
C195 C 0.33612 0.92151 0.02452 0.0
C196 C 0.35456 0.96532 0.02107 0.0
C197 C 0.32955 0.97374 0.02354 0.0
H198 H 0.28945 0.96235 0.02813 0.0
H199 H 0.33879 0.90128 0.02519 0.0
C200 C 0.26895 0.82809 0.06768 0.0
N201 N 0.26148 0.85254 0.075 0.0
C202 C 0.27364 0.8121 0.08602 0.0
C203 C 0.26137 0.84615 0.11909 0.0
C204 C 0.25709 0.86157 0.10008 0.0
C205 C 0.27034 0.82121 0.11225 0.0
H206 H 0.2721 0.82134 0.04757 0.0
H207 H 0.2508 0.88096 0.10542 0.0
C208 C 0.26338 0.92838 0.98602 0.0
N209 N 0.28154 0.96899 0.9607 0.0
C210 C 0.25086 0.95143 0.9885 0.0
C211 C 0.28497 0.92588 0.97039 0.0
C212 C 0.26037 0.97176 0.9756 0.0
C213 C 0.29392 0.94667 0.95785 0.0
C214 C 0.20657 0.86065 0.04185 0.0
C215 C 0.18942 0.83896 0.03334 0.0
C216 C 0.20298 0.87568 0.06572 0.0
C217 C 0.16886 0.83267 0.04888 0.0
C218 C 0.18219 0.86874 0.08069 0.0
N219 N 0.1657 0.84756 0.07203 0.0
C220 C 0.24314 0.82127 0.97099 0.0
C221 C 0.25627 0.85487 0.94673 0.0
C222 C 0.24154 0.80272 0.94874 0.0
N223 N 0.25063 0.84671 0.9696 0.0
C224 C 0.25537 0.83692 0.92409 0.0
C225 C 0.24809 0.81044 0.92497 0.0
H226 H 0.23884 0.81534 0.98947 0.0
H227 H 0.26202 0.87522 0.94612 0.0
C228 C 0.21101 0.95151 0.04995 0.0
N229 N 0.20677 0.92736 0.03589 0.0
C230 C 0.19098 0.96793 0.05417 0.0
C231 C 0.16251 0.93426 0.02942 0.0
C232 C 0.18316 0.91855 0.02554 0.0
C233 C 0.16623 0.95938 0.04393 0.0
H234 H 0.23008 0.95809 0.05772 0.0
H235 H 0.18034 0.89924 0.01441 0.0
O236 O 0.28526 0.86825 0.02196 0.0
O237 O 0.26175 0.91282 0.05851 0.0
O238 O 0.25443 0.90838 0.99874 0.0
O239 O 0.22684 0.86697 0.02688 0.0
H240 H 0.31813 0.84722 0.04974 0.0
H241 H 0.303 0.86631 0.97458 0.0
H242 H 0.35843 0.82884 0.03339 0.0
H243 H 0.34356 0.84769 0.95956 0.0
H244 H 0.28411 0.96117 0.13572 0.0
H245 H 0.30633 0.89306 0.06539 0.0
H246 H 0.25414 0.94862 0.09831 0.0
H247 H 0.33534 0.9065 0.10326 0.0
H248 H 0.37653 0.93145 0.02158 0.0
H249 H 0.3259 0.9938 0.02258 0.0
H250 H 0.28083 0.79324 0.07971 0.0
H251 H 0.2581 0.85388 0.13897 0.0
H252 H 0.234 0.95366 1.00028 0.0
H253 H 0.29502 0.90831 0.96832 0.0
H254 H 0.25092 0.98974 0.97744 0.0
H255 H 0.31075 0.94508 0.94591 0.0
H256 H 0.19199 0.82712 0.01492 0.0
H257 H 0.21608 0.89251 0.07264 0.0
H258 H 0.15541 0.81593 0.04254 0.0
H259 H 0.17918 0.88019 0.09919 0.0
H260 H 0.23601 0.78244 0.95022 0.0
H261 H 0.26035 0.84364 0.90608 0.0
H262 H 0.19494 0.98723 0.06512 0.0
H263 H 0.14375 0.92661 0.02147 0.0
Li264 Li 0.14544 0.52924 0.28871 0.0
Li265 Li 0.17509 0.49897 0.26528 0.0
Li266 Li 0.17739 0.54705 0.26102 0.0
Li267 Li 0.14219 0.51745 0.23998 0.0
C268 C 0.18999 0.53448 0.31738 0.0
N269 N 0.20177 0.54284 0.36934 0.0
C270 C 0.19882 0.51438 0.32917 0.0
C271 C 0.18742 0.55892 0.33195 0.0
C272 C 0.20462 0.51898 0.35548 0.0
C273 C 0.19338 0.56273 0.35821 0.0
C274 C 0.12398 0.47057 0.26599 0.0
C275 C 0.10821 0.42903 0.24196 0.0
N276 N 0.09799 0.42171 0.26379 0.0
C277 C 0.11309 0.46273 0.28813 0.0
C278 C 0.12134 0.45367 0.24267 0.0
C279 C 0.10012 0.43791 0.28665 0.0
C280 C 0.10633 0.55146 0.32051 0.0
N281 N 0.12581 0.53542 0.31954 0.0
C282 C 0.11597 0.52588 0.36168 0.0
C283 C 0.13081 0.52271 0.33957 0.0
C284 C 0.09514 0.54169 0.36305 0.0
C285 C 0.09065 0.55484 0.34212 0.0
H286 H 0.10248 0.56108 0.3042 0.0
H287 H 0.14595 0.50955 0.33818 0.0
C288 C 0.21878 0.46866 0.25887 0.0
N289 N 0.19433 0.46926 0.26789 0.0
C290 C 0.23331 0.44761 0.26161 0.0
C291 C 0.19713 0.42811 0.28256 0.0
C292 C 0.18349 0.44959 0.27972 0.0
C293 C 0.22242 0.42691 0.27353 0.0
H294 H 0.22709 0.48467 0.24977 0.0
H295 H 0.16446 0.45078 0.28753 0.0
C296 C 0.13864 0.57747 0.25993 0.0
N297 N 0.1377 0.62967 0.25519 0.0
C298 C 0.13229 0.58474 0.23632 0.0
C299 C 0.14414 0.5967 0.28121 0.0
C300 C 0.13201 0.61125 0.23429 0.0
C301 C 0.14368 0.623 0.2784 0.0
C302 C 0.18604 0.50313 0.21053 0.0
C303 C 0.19765 0.51672 0.19202 0.0
C304 C 0.18116 0.476 0.20517 0.0
C305 C 0.2037 0.50295 0.16821 0.0
C306 C 0.18752 0.46293 0.18116 0.0
N307 N 0.19853 0.47657 0.16331 0.0
C308 C 0.217 0.58771 0.27515 0.0
C309 C 0.19766 0.58744 0.2343 0.0
C310 C 0.23306 0.6099 0.27217 0.0
N311 N 0.19966 0.57706 0.2564 0.0
C312 C 0.21322 0.60975 0.23057 0.0
C313 C 0.23126 0.62135 0.24967 0.0
H314 H 0.2185 0.57887 0.29237 0.0
H315 H 0.18385 0.57845 0.21959 0.0
C316 C 0.09498 0.50002 0.2127 0.0
N317 N 0.1193 0.51115 0.21075 0.0
C318 C 0.07811 0.49585 0.19145 0.0
C319 C 0.11143 0.51522 0.16678 0.0
C320 C 0.1276 0.51901 0.18846 0.0
C321 C 0.08627 0.50347 0.16803 0.0
H322 H 0.0886 0.49452 0.23082 0.0
H323 H 0.1467 0.52854 0.18757 0.0
O324 O 0.18409 0.53027 0.29167 0.0
O325 O 0.13677 0.49482 0.26718 0.0
O326 O 0.13947 0.55165 0.26219 0.0
O327 O 0.18001 0.51635 0.23393 0.0
H328 H 0.20108 0.4954 0.31818 0.0
H329 H 0.18079 0.57473 0.32311 0.0
H330 H 0.21136 0.50356 0.36488 0.0
H331 H 0.19134 0.5815 0.36975 0.0
H332 H 0.10605 0.41576 0.22404 0.0
H333 H 0.11477 0.47559 0.30631 0.0
H334 H 0.12904 0.4596 0.22521 0.0
H335 H 0.09174 0.43154 0.30366 0.0
H336 H 0.12057 0.5156 0.37734 0.0
H337 H 0.07461 0.56684 0.34191 0.0
H338 H 0.25277 0.44748 0.25445 0.0
H339 H 0.1882 0.41292 0.29243 0.0
H340 H 0.12787 0.5701 0.21969 0.0
H341 H 0.14877 0.59137 0.29968 0.0
H342 H 0.12732 0.61717 0.21609 0.0
H343 H 0.14805 0.6381 0.29468 0.0
H344 H 0.20182 0.53769 0.19594 0.0
H345 H 0.17281 0.46509 0.21947 0.0
H346 H 0.21253 0.51324 0.15364 0.0
H347 H 0.18379 0.44193 0.17675 0.0
H348 H 0.24705 0.6177 0.28718 0.0
H349 H 0.21094 0.61792 0.21301 0.0
H350 H 0.05877 0.48712 0.19348 0.0
H351 H 0.11872 0.52121 0.14914 0.0
Li352 Li 0.75977 0.6219 0.00794 0.0
Li353 Li 0.78047 0.66054 0.03565 0.0
Li354 Li 0.78653 0.65342 0.98739 0.0
Li355 Li 0.80836 0.62705 0.01475 0.0
C356 C 0.72865 0.66064 1.00489 0.0
N357 N 0.67594 0.66194 0.99995 0.0
C358 C 0.7145 0.67219 0.02542 0.0
C359 C 0.71604 0.65005 0.98175 0.0
C360 C 0.68785 0.67258 0.02256 0.0
C361 C 0.68937 0.6508 0.97966 0.0
C362 C 0.78137 0.61806 0.06468 0.0
C363 C 0.80501 0.61739 0.10407 0.0
N364 N 0.78322 0.60766 0.11465 0.0
C365 C 0.75931 0.60767 0.07583 0.0
C366 C 0.80449 0.62264 0.07881 0.0
C367 C 0.76059 0.60271 0.10116 0.0
C368 C 0.72882 0.57531 0.98791 0.0
N369 N 0.72977 0.59754 1.0053 0.0
C370 C 0.68767 0.5856 0.02003 0.0
C371 C 0.70989 0.60273 0.02143 0.0
C372 C 0.68591 0.56252 1.00212 0.0
C373 C 0.70704 0.55743 0.98603 0.0
H374 H 0.74503 0.57141 0.97554 0.0
H375 H 0.71125 0.62028 0.03543 0.0
C376 C 0.7891 0.70947 0.0681 0.0
N377 N 0.77622 0.68537 0.06578 0.0
C378 C 0.78751 0.72721 0.09068 0.0
C379 C 0.7585 0.6955 0.1076 0.0
C380 C 0.7606 0.67843 0.08469 0.0
C381 C 0.77236 0.72017 0.11102 0.0
H382 H 0.80091 0.71479 0.05254 0.0
H383 H 0.74986 0.65955 0.08208 0.0
C384 C 0.79249 0.60867 0.957 0.0
N385 N 0.80253 0.5981 0.90516 0.0
C386 C 0.81754 0.60469 0.94877 0.0
C387 C 0.77249 0.60694 0.9389 0.0
C388 C 0.82224 0.59944 0.92246 0.0
C389 C 0.77797 0.60169 0.91277 0.0
C390 C 0.83591 0.67718 0.02454 0.0
C391 C 0.85342 0.68757 0.00792 0.0
C392 C 0.84241 0.679 0.05057 0.0
C393 C 0.87736 0.69908 0.01753 0.0
C394 C 0.86652 0.69069 0.05945 0.0
N395 N 0.88337 0.70036 0.04288 0.0
C396 C 0.77131 0.68416 0.95029 0.0
C397 C 0.81328 0.67002 0.94446 0.0
C398 C 0.77399 0.69745 0.92909 0.0
N399 N 0.79078 0.67074 0.95754 0.0
C400 C 0.81684 0.68313 0.92319 0.0
C401 C 0.79703 0.69713 0.91522 0.0
H402 H 0.75377 0.68486 0.96117 0.0
H403 H 0.82857 0.65937 0.95063 0.0
C404 C 0.83579 0.58712 0.03072 0.0
N405 N 0.83837 0.60903 0.01934 0.0
C406 C 0.85729 0.57365 0.03477 0.0
C407 C 0.88365 0.6052 0.0148 0.0
C408 C 0.86165 0.61801 0.01112 0.0
C409 C 0.88169 0.58272 0.02686 0.0
H410 H 0.81699 0.58013 0.03675 0.0
H411 H 0.86315 0.63492 1.00136 0.0
O412 O 0.75471 0.65984 0.00743 0.0
O413 O 0.7804 0.62306 0.03987 0.0
O414 O 0.78759 0.61424 0.98265 0.0
O415 O 0.81242 0.66572 0.01539 0.0
H416 H 0.72397 0.68065 0.0434 0.0
H417 H 0.72672 0.64122 0.96563 0.0
H418 H 0.67664 0.68133 0.03833 0.0
H419 H 0.67934 0.64252 0.96191 0.0
H420 H 0.82278 0.62092 0.11521 0.0
H421 H 0.74133 0.60365 0.06515 0.0
H422 H 0.82197 0.6298 0.0703 0.0
H423 H 0.7436 0.59489 0.11007 0.0
H424 H 0.67187 0.59074 0.03259 0.0
H425 H 0.70688 0.53975 0.97221 0.0
H426 H 0.7981 0.74622 0.09218 0.0
H427 H 0.74664 0.68911 0.1227 0.0
H428 H 0.83322 0.60587 0.96253 0.0
H429 H 0.75295 0.60966 0.94496 0.0
H430 H 0.84156 0.59649 0.9158 0.0
H431 H 0.7627 0.60044 0.89854 0.0
H432 H 0.84865 0.68667 0.9878 0.0
H433 H 0.82886 0.67186 0.06386 0.0
H434 H 0.89114 0.70703 1.00483 0.0
H435 H 0.87177 0.69217 0.07955 0.0
H436 H 0.75835 0.70833 0.92397 0.0
H437 H 0.83484 0.68215 0.91299 0.0
H438 H 0.85485 0.55646 0.04419 0.0
H439 H 0.90191 0.61254 0.00778 0.0
Li440 Li 0.90403 0.05154 0.28923 0.0
Li441 Li 0.93428 0.02505 0.30769 0.0
Li442 Li 0.93531 0.0292 0.26032 0.0
Li443 Li 0.90116 1.00236 0.2782 0.0
C444 C 0.95037 0.08289 0.29529 0.0
N445 N 0.96613 0.13565 0.30426 0.0
C446 C 0.95858 0.09484 0.31986 0.0
C447 C 0.95072 0.09771 0.27518 0.0
C448 C 0.96633 0.12154 0.32405 0.0
C449 C 0.95859 0.12437 0.28012 0.0
C450 C 0.89257 0.02481 0.33774 0.0
C451 C 0.89171 1.00328 0.37537 0.0
N452 N 0.88599 0.0259 0.39 0.0
C453 C 0.88642 0.04776 0.35314 0.0
C454 C 0.89498 1.00231 0.34892 0.0
C455 C 0.88325 0.04795 0.37951 0.0
C456 C 0.86196 0.07962 0.28043 0.0
N457 N 0.88384 0.08123 0.29497 0.0
C458 C 0.87455 0.12333 0.31665 0.0
C459 C 0.89028 0.1025 0.31296 0.0
C460 C 0.85219 0.12234 0.30145 0.0
C461 C 0.84598 0.10013 0.28314 0.0
H462 H 0.85683 0.06227 0.26674 0.0
H463 H 0.90731 0.10312 0.32485 0.0
C464 C 0.97113 1.00232 0.33465 0.0
N465 N 0.95502 0.02187 0.33707 0.0
C466 C 0.98588 0.99812 0.35561 0.0
C467 C 0.96802 0.03489 0.38108 0.0
C468 C 0.95336 0.03819 0.35967 0.0
C469 C 0.98435 0.01447 0.37923 0.0
H470 H 0.97252 0.98989 0.31642 0.0
H471 H 0.94048 0.05362 0.3612 0.0
C472 C 0.89257 0.0359 0.23166 0.0
N473 N 0.88312 0.04988 0.18402 0.0
C474 C 0.88263 0.01712 0.21146 0.0
C475 C 0.8972 0.06188 0.22771 0.0
C476 C 0.87813 0.02454 0.18749 0.0
C477 C 0.89243 0.06855 0.20348 0.0
C478 C 0.93945 0.97129 0.27169 0.0
C479 C 0.94735 0.95994 0.24752 0.0
C480 C 0.93213 0.95529 0.28999 0.0
C481 C 0.94719 0.93276 0.24187 0.0
C482 C 0.93218 0.9282 0.28361 0.0
N483 N 0.93962 0.91758 0.25986 0.0
C484 C 0.97804 0.04776 0.23234 0.0
C485 C 0.94963 0.01463 0.20887 0.0
C486 C 0.99352 0.04881 0.2108 0.0
N487 N 0.95642 0.03102 0.23091 0.0
C488 C 0.96477 0.01469 0.18706 0.0
C489 C 0.98697 0.03201 0.18786 0.0
H490 H 0.98339 0.06016 0.25023 0.0
H491 H 0.93263 1.00117 0.20835 0.0
C492 C 0.8623 0.96412 0.28879 0.0
N493 N 0.87857 0.9713 0.27049 0.0
C494 C 0.84678 0.94065 0.28408 0.0
C495 C 0.86434 0.93283 0.24143 0.0
C496 C 0.87978 0.95629 0.24709 0.0
C497 C 0.84777 0.92466 0.26017 0.0
H498 H 0.86153 0.9765 0.30713 0.0
H499 H 0.89314 0.96226 0.23301 0.0
O500 O 0.94265 0.05673 0.29089 0.0
O501 O 0.89593 0.02436 0.31188 0.0
O502 O 0.89736 0.02893 0.25523 0.0
O503 O 0.93894 0.99787 0.27741 0.0
H504 H 0.95886 0.08369 0.33558 0.0
H505 H 0.94531 0.08873 0.25588 0.0
H506 H 0.97253 0.13105 0.34302 0.0
H507 H 0.95885 0.13606 0.26473 0.0
H508 H 0.89371 0.98604 0.38426 0.0
H509 H 0.88416 0.06527 0.34488 0.0
H510 H 0.89938 0.98428 0.33737 0.0
H511 H 0.87863 0.06563 0.39164 0.0
H512 H 0.87989 0.14008 0.33108 0.0
H513 H 0.82864 0.09843 0.27137 0.0
H514 H 0.99853 0.98239 0.35332 0.0
H515 H 0.96622 0.04783 0.39902 0.0
H516 H 0.8785 0.99701 0.21419 0.0
H517 H 0.90407 0.07682 0.24327 0.0
H518 H 0.87063 0.01015 0.17166 0.0
H519 H 0.89601 0.08859 0.2002 0.0
H520 H 0.95358 0.97192 0.23326 0.0
H521 H 0.92636 0.96369 0.30888 0.0
H522 H 0.95312 0.92374 0.22318 0.0
H523 H 0.92633 0.91562 0.29755 0.0
H524 H 0.01065 0.06227 0.21218 0.0
H525 H 0.95903 1.00153 0.16966 0.0
H526 H 0.83406 0.93508 0.29893 0.0
H527 H 0.86584 0.92088 0.22287 0.0
Li528 Li 0.28163 0.15837 0.53186 0.0
Li529 Li 0.25945 0.12074 0.50395 0.0
Li530 Li 0.30811 0.12442 0.50927 0.0
Li531 Li 0.28639 0.15234 0.48336 0.0
C532 C 0.28225 0.11558 0.55991 0.0
N533 N 0.28495 0.10534 0.60988 0.0
C534 C 0.2603 0.10561 0.57156 0.0
C535 C 0.30567 0.11985 0.57354 0.0
C536 C 0.26202 0.10071 0.59688 0.0
C537 C 0.30662 0.11468 0.59881 0.0
C538 C 0.22936 0.16082 0.50206 0.0
C539 C 0.19018 0.15383 0.47653 0.0
N540 N 0.17694 0.16424 0.49728 0.0
C541 C 0.21542 0.17169 0.52307 0.0
C542 C 0.21671 0.15203 0.47854 0.0
C543 C 0.18891 0.17316 0.52029 0.0
C544 C 0.29209 0.2067 0.56491 0.0
N545 N 0.27856 0.18293 0.56246 0.0
C546 C 0.26107 0.19334 0.60435 0.0
C547 C 0.26281 0.17626 0.58138 0.0
C548 C 0.27543 0.21776 0.60782 0.0
C549 C 0.29087 0.22446 0.58754 0.0
H550 H 0.30399 0.21183 0.54933 0.0
H551 H 0.25156 0.15766 0.57869 0.0
C552 C 0.22783 0.07457 0.48452 0.0
N553 N 0.22909 0.09695 0.50171 0.0
C554 C 0.20604 0.05676 0.48318 0.0
C555 C 0.18727 0.08533 0.51729 0.0
C556 C 0.20951 0.10239 0.51816 0.0
C557 C 0.18521 0.06207 0.49961 0.0
H558 H 0.24385 0.07044 0.47196 0.0
H559 H 0.21119 0.11997 0.5321 0.0
C560 C 0.33725 0.17366 0.51872 0.0
N561 N 0.38612 0.19495 0.53443 0.0
C562 C 0.35421 0.18317 0.50111 0.0
C563 C 0.34502 0.1754 0.5444 0.0
C564 C 0.37887 0.19373 0.5094 0.0
C565 C 0.36983 0.18612 0.55195 0.0
C566 C 0.28986 0.10707 0.45176 0.0
C567 C 0.31423 0.10174 0.44232 0.0
C568 C 0.2691 0.10604 0.43465 0.0
C569 C 0.31751 0.09594 0.41581 0.0
C570 C 0.27317 0.10019 0.40828 0.0
N571 N 0.29709 0.09533 0.39948 0.0
C572 C 0.33567 0.08387 0.52416 0.0
C573 C 0.36053 0.1137 0.50236 0.0
C574 C 0.35729 0.07027 0.52744 0.0
N575 N 0.33777 0.10544 0.51221 0.0
C576 C 0.3826 0.10077 0.50525 0.0
C577 C 0.38126 0.07891 0.51821 0.0
H578 H 0.31725 0.07741 0.53144 0.0
H579 H 0.36157 0.13029 0.49215 0.0
C580 C 0.2726 0.18732 0.44985 0.0
N581 N 0.29052 0.1708 0.45427 0.0
C582 C 0.27557 0.20206 0.42971 0.0
C583 C 0.31543 0.18258 0.41893 0.0
C584 C 0.3117 0.16825 0.43932 0.0
C585 C 0.29727 0.19991 0.41391 0.0
H586 H 0.25619 0.18947 0.46227 0.0
H587 H 0.32596 0.15537 0.44344 0.0
O588 O 0.28085 0.12057 0.53514 0.0
O589 O 0.25528 0.15899 0.5045 0.0
O590 O 0.31303 0.1632 0.51088 0.0
O591 O 0.28634 0.11307 0.47763 0.0
H592 H 0.24208 0.10187 0.56126 0.0
H593 H 0.32302 0.12675 0.56463 0.0
H594 H 0.24513 0.0932 0.60618 0.0
H595 H 0.32462 0.11798 0.60957 0.0
H596 H 0.18012 0.14696 0.45847 0.0
H597 H 0.22494 0.17877 0.54136 0.0
H598 H 0.22727 0.1439 0.46203 0.0
H599 H 0.17785 0.18138 0.53642 0.0
H600 H 0.249 0.18719 0.61941 0.0
H601 H 0.30185 0.24326 0.58907 0.0
H602 H 0.20567 0.03893 0.46953 0.0
H603 H 0.17172 0.09061 0.53012 0.0
H604 H 0.34846 0.18228 0.48123 0.0
H605 H 0.33195 0.1689 0.55844 0.0
H606 H 0.39224 0.20099 0.49593 0.0
H607 H 0.37608 0.18754 0.57177 0.0
H608 H 0.33047 0.10229 0.4553 0.0
H609 H 0.25005 0.10968 0.44166 0.0
H610 H 0.3363 0.09196 0.40823 0.0
H611 H 0.25729 0.09946 0.3948 0.0
H612 H 0.35537 0.05357 0.53759 0.0
H613 H 0.40053 0.10775 0.49728 0.0
H614 H 0.26129 0.2155 0.42701 0.0
H615 H 0.33236 0.18007 0.40722 0.0
Li616 Li 0.43442 0.52419 0.80766 0.0
Li617 Li 0.40363 0.55033 0.78949 0.0
Li618 Li 0.40145 0.50122 0.77809 0.0
Li619 Li 0.43516 0.52871 0.76038 0.0
C620 C 0.39283 0.52338 0.83782 0.0
N621 N 0.38659 0.52459 0.89013 0.0
C622 C 0.38679 0.54636 0.85321 0.0
C623 C 0.39533 0.5009 0.84902 0.0
C624 C 0.38379 0.54661 0.87961 0.0
C625 C 0.39223 0.50194 0.8755 0.0
C626 C 0.44973 0.58232 0.79553 0.0
C627 C 0.45751 0.6239 0.78047 0.0
N628 N 0.46514 0.63515 0.80459 0.0
C629 C 0.45803 0.59424 0.82008 0.0
C630 C 0.4498 0.59721 0.77549 0.0
C631 C 0.46561 0.62099 0.82431 0.0
C632 C 0.47182 0.50183 0.83431 0.0
N633 N 0.45543 0.52113 0.83692 0.0
C634 C 0.46871 0.53422 0.88085 0.0
C635 C 0.45377 0.53736 0.85957 0.0
C636 C 0.48532 0.51403 0.87881 0.0
C637 C 0.48685 0.49778 0.85514 0.0
H638 H 0.47322 0.48948 0.81604 0.0
H639 H 0.44069 0.55262 0.86125 0.0
C640 C 0.36066 0.57724 0.7813 0.0
N641 N 0.3829 0.57961 0.79537 0.0
C642 C 0.34426 0.59739 0.78393 0.0
C643 C 0.37322 0.62182 0.81643 0.0
C644 C 0.38933 0.6013 0.81285 0.0
C645 C 0.35046 0.62006 0.80167 0.0
H646 H 0.3556 0.55957 0.76801 0.0
H647 H 0.40668 0.60254 0.82438 0.0
C648 C 0.44013 0.47077 0.77146 0.0
N649 N 0.4408 0.41711 0.75958 0.0
C650 C 0.44814 0.45954 0.74729 0.0
C651 C 0.43295 0.45469 0.78973 0.0
C652 C 0.44824 0.43238 0.74161 0.0
C653 C 0.43326 0.42762 0.78333 0.0
C654 C 0.39208 0.53526 0.73204 0.0
C655 C 0.38235 0.51668 0.71158 0.0
C656 C 0.39618 0.56144 0.7286 0.0
C657 C 0.37753 0.5245 0.68786 0.0
C658 C 0.39109 0.56851 0.70461 0.0
N659 N 0.382 0.55004 0.68488 0.0
C660 C 0.36318 0.46207 0.78817 0.0
C661 C 0.38067 0.4553 0.74642 0.0
C662 C 0.34797 0.43842 0.78305 0.0
N663 N 0.3793 0.46987 0.77002 0.0
C664 C 0.36556 0.43168 0.74037 0.0
C665 C 0.34913 0.42287 0.75891 0.0
H666 H 0.36229 0.4741 0.8067 0.0
H667 H 0.39391 0.46176 0.73247 0.0
C668 C 0.47744 0.548 0.73221 0.0
N669 N 0.45604 0.53097 0.73093 0.0
C670 C 0.49272 0.54924 0.71056 0.0
C671 C 0.46422 0.51474 0.68703 0.0
C672 C 0.44928 0.5145 0.70894 0.0
C673 C 0.4862 0.53233 0.68768 0.0
H674 H 0.48279 0.56045 0.75007 0.0
H675 H 0.43246 0.50082 0.70855 0.0
O676 O 0.39603 0.52285 0.81193 0.0
O677 O 0.44221 0.55612 0.79109 0.0
O678 O 0.43934 0.49732 0.7772 0.0
O679 O 0.39718 0.5279 0.75537 0.0
H680 H 0.38453 0.56386 0.84493 0.0
H681 H 0.39967 0.48285 0.83747 0.0
H682 H 0.37925 0.56432 0.89174 0.0
H683 H 0.39428 0.48472 0.88441 0.0
H684 H 0.45754 0.63564 0.76513 0.0
H685 H 0.45853 0.58304 0.83575 0.0
H686 H 0.44431 0.58825 0.75619 0.0
H687 H 0.47188 0.63047 0.84328 0.0
H688 H 0.46689 0.54708 0.89883 0.0
H689 H 0.49971 0.48222 0.85271 0.0
H690 H 0.32663 0.59507 0.77253 0.0
H691 H 0.37858 0.63894 0.83041 0.0
H692 H 0.45424 0.4716 0.73305 0.0
H693 H 0.42707 0.46302 0.80862 0.0
H694 H 0.45424 0.42345 0.72292 0.0
H695 H 0.42751 0.41498 0.79724 0.0
H696 H 0.37864 0.49641 0.71392 0.0
H697 H 0.40287 0.57622 0.74437 0.0
H698 H 0.3702 0.51027 0.67183 0.0
H699 H 0.39426 0.58871 0.70171 0.0
H700 H 0.33536 0.43238 0.79778 0.0
H701 H 0.36722 0.4201 0.72164 0.0
H702 H 0.5097 0.56289 0.71182 0.0
H703 H 0.45852 0.50148 0.66968 0.0
Li704 Li 0.78208 0.41006 0.52748 0.0
Li705 Li 0.76283 0.37662 0.55247 0.0
Li706 Li 0.7566 0.37258 0.50442 0.0
Li707 Li 0.73408 0.40486 0.53332 0.0
C708 C 0.81512 0.37325 0.5245 0.0
N709 N 0.86831 0.37557 0.52422 0.0
C710 C 0.82883 0.36953 0.54637 0.0
C711 C 0.82845 0.37793 0.50242 0.0
C712 C 0.85572 0.37081 0.54585 0.0
C713 C 0.85535 0.37912 0.50269 0.0
C714 C 0.76046 0.42608 0.58478 0.0
C715 C 0.73585 0.43463 0.62341 0.0
N716 N 0.75701 0.44796 0.6357 0.0
C717 C 0.7819 0.44006 0.59771 0.0
C718 C 0.73718 0.4235 0.59765 0.0
C719 C 0.7798 0.45089 0.62348 0.0
C720 C 0.8086 0.45109 0.5067 0.0
N721 N 0.81042 0.43543 0.52503 0.0
C722 C 0.85253 0.45541 0.53739 0.0
C723 C 0.8316 0.43763 0.54066 0.0
C724 C 0.85152 0.47129 0.51802 0.0
C725 C 0.82895 0.46921 0.50286 0.0
H726 H 0.79136 0.44943 0.4949 0.0
H727 H 0.83245 0.42527 0.55539 0.0
C728 C 0.76403 0.3301 0.57306 0.0
N729 N 0.76822 0.35646 0.57951 0.0
C730 C 0.76979 0.31348 0.59053 0.0
C731 C 0.78331 0.35146 0.62136 0.0
C732 C 0.77744 0.36732 0.60323 0.0
C733 C 0.78 0.32408 0.61498 0.0
H734 H 0.75693 0.32195 0.55397 0.0
H735 H 0.78101 0.38823 0.60794 0.0
C736 C 0.74828 0.40954 0.47656 0.0
N737 N 0.73684 0.40717 0.42494 0.0
C738 C 0.72318 0.41237 0.46855 0.0
C739 C 0.76761 0.40574 0.45836 0.0
C740 C 0.71777 0.41108 0.44235 0.0
C741 C 0.76142 0.40451 0.43233 0.0
C742 C 0.70762 0.3563 0.53903 0.0
C743 C 0.68915 0.34383 0.52102 0.0
C744 C 0.70238 0.3583 0.56523 0.0
C745 C 0.66546 0.33406 0.52954 0.0
C746 C 0.67847 0.34827 0.57299 0.0
N747 N 0.66065 0.33648 0.55513 0.0
C748 C 0.77469 0.33367 0.46739 0.0
C749 C 0.73306 0.34505 0.45752 0.0
C750 C 0.7747 0.31597 0.44467 0.0
N751 N 0.75422 0.34799 0.47326 0.0
C752 C 0.7323 0.32762 0.43446 0.0
C753 C 0.75342 0.31288 0.42766 0.0
H754 H 0.79107 0.33592 0.48041 0.0
H755 H 0.71687 0.35642 0.46272 0.0
C756 C 0.70942 0.45013 0.54941 0.0
N757 N 0.70462 0.42477 0.53844 0.0
C758 C 0.68939 0.46656 0.55338 0.0
C759 C 0.65978 0.43068 0.53417 0.0
C760 C 0.68042 0.41489 0.53064 0.0
C761 C 0.66412 0.45691 0.54575 0.0
H762 H 0.72893 0.45767 0.55493 0.0
H763 H 0.67711 0.39491 0.52137 0.0
O764 O 0.7888 0.37227 0.52469 0.0
O765 O 0.76223 0.41536 0.55955 0.0
O766 O 0.75388 0.41044 0.5021 0.0
O767 O 0.73092 0.3659 0.53098 0.0
H768 H 0.81884 0.36585 0.5636 0.0
H769 H 0.81813 0.38081 0.48533 0.0
H770 H 0.86658 0.36807 0.56267 0.0
H771 H 0.86591 0.38289 0.4858 0.0
H772 H 0.71796 0.43275 0.63362 0.0
H773 H 0.80001 0.4424 0.58799 0.0
H774 H 0.72025 0.41323 0.58782 0.0
H775 H 0.79628 0.46164 0.63377 0.0
H776 H 0.86955 0.45618 0.54944 0.0
H777 H 0.82701 0.48143 0.4881 0.0
H778 H 0.76726 0.29256 0.5845 0.0
H779 H 0.79081 0.36059 0.64003 0.0
H780 H 0.70801 0.41538 0.48239 0.0
H781 H 0.78714 0.40357 0.46426 0.0
H782 H 0.69841 0.41313 0.43586 0.0
H783 H 0.77615 0.40141 0.41802 0.0
H784 H 0.69301 0.3419 0.50067 0.0
H785 H 0.71667 0.36732 0.57945 0.0
H786 H 0.65091 0.32453 0.51581 0.0
H787 H 0.67413 0.34976 0.59321 0.0
H788 H 0.79116 0.30461 0.44065 0.0
H789 H 0.71552 0.32604 0.42194 0.0
H790 H 0.69375 0.48673 0.56198 0.0
H791 H 0.64061 0.42235 0.5281 0.0
Li792 Li 0.67687 0.99605 0.77299 0.0
Li793 Li 0.64589 0.02596 0.7937 0.0
Li794 Li 0.64505 0.01204 0.74509 0.0
Li795 Li 0.67901 0.04366 0.76649 0.0
C796 C 0.63031 0.96548 0.77584 0.0
N797 N 0.61379 0.91473 0.78144 0.0
C798 C 0.62479 0.95905 0.8002 0.0
C799 C 0.62691 0.9462 0.75427 0.0
C800 C 0.61663 0.93325 0.80265 0.0
C801 C 0.61868 0.92063 0.75751 0.0
C802 C 0.6894 0.03703 0.8241 0.0
C803 C 0.69028 0.07104 0.86079 0.0
N804 N 0.69922 0.05436 0.87572 0.0
C805 C 0.69885 0.0203 0.83975 0.0
C806 C 0.68531 0.06268 0.83464 0.0
C807 C 0.70361 0.0294 0.86581 0.0
C808 C 0.71535 0.95971 0.76058 0.0
N809 N 0.69638 0.96688 0.77727 0.0
C810 C 0.70417 0.93225 0.80094 0.0
C811 C 0.69088 0.9538 0.79737 0.0
C812 C 0.72343 0.92399 0.78367 0.0
C813 C 0.729 0.93809 0.76329 0.0
H814 H 0.72 0.97078 0.74516 0.0
H815 H 0.67624 0.96019 0.8108 0.0
C816 C 0.60328 0.04701 0.81963 0.0
N817 N 0.62422 0.03375 0.82293 0.0
C818 C 0.58597 0.05226 0.8396 0.0
C819 C 0.61213 0.03033 0.86624 0.0
C820 C 0.62888 0.0254 0.84569 0.0
C821 C 0.59011 0.04372 0.86331 0.0
H822 H 0.59968 0.05302 0.80122 0.0
H823 H 0.6453 0.0144 0.84779 0.0
C824 C 0.68917 1.00034 0.71698 0.0
N825 N 0.70078 0.97711 0.66813 0.0
C826 C 0.70321 0.01474 0.70053 0.0
C827 C 0.68129 0.97405 0.70868 0.0
C828 C 0.70882 1.00267 0.67587 0.0
C829 C 0.68729 0.96268 0.6839 0.0
C830 C 0.63792 0.07214 0.76238 0.0
C831 C 0.63281 0.0782 0.73796 0.0
C832 C 0.63946 0.09197 0.78355 0.0
C833 C 0.62991 0.10412 0.73505 0.0
C834 C 0.63643 0.11765 0.77987 0.0
N835 N 0.6318 0.12316 0.75588 0.0
C836 C 0.59992 0.99143 0.71566 0.0
C837 C 0.63244 0.01263 0.69301 0.0
C838 C 0.58382 0.98689 0.69382 0.0
N839 N 0.62372 1.00412 0.71485 0.0
C840 C 0.61718 0.00829 0.67073 0.0
C841 C 0.59233 0.99553 0.67094 0.0
H842 H 0.59326 0.98526 0.73341 0.0
H843 H 0.65109 0.02332 0.69299 0.0
C844 C 0.71856 0.08497 0.77927 0.0
N845 N 0.70082 0.07376 0.76111 0.0
C846 C 0.7345 0.10693 0.77526 0.0
C847 C 0.71381 0.10531 0.73383 0.0
C848 C 0.69832 0.08335 0.73863 0.0
C849 C 0.73225 0.11744 0.75227 0.0
H850 H 0.7206 0.07669 0.79674 0.0
H851 H 0.68438 0.07382 0.7243 0.0
O852 O 0.63828 0.99067 0.77309 0.0
O853 O 0.6844 0.02838 0.79858 0.0
O854 O 0.68309 0.01198 0.74103 0.0
O855 O 0.64104 0.04688 0.76556 0.0
H856 H 0.62706 0.97376 0.81707 0.0
H857 H 0.63031 0.95094 0.7352 0.0
H858 H 0.61253 0.92797 0.82143 0.0
H859 H 0.61606 0.9055 0.74098 0.0
H860 H 0.68707 0.09081 0.8692 0.0
H861 H 0.70247 1.00052 0.83188 0.0
H862 H 0.67844 0.07601 0.82274 0.0
H863 H 0.71081 0.01661 0.87817 0.0
H864 H 0.69908 0.9219 0.81684 0.0
H865 H 0.74395 0.93264 0.74974 0.0
H866 H 0.56902 0.06211 0.83613 0.0
H867 H 0.61627 0.02346 0.88414 0.0
H868 H 0.70964 0.03505 0.70669 0.0
H869 H 0.67084 0.96254 0.72132 0.0
H870 H 0.71956 0.01362 0.6629 0.0
H871 H 0.68126 0.94236 0.67723 0.0
H872 H 0.63132 0.0631 0.72138 0.0
H873 H 0.64277 0.08757 0.80266 0.0
H874 H 0.62616 0.1091 0.71622 0.0
H875 H 0.63768 0.1332 0.79609 0.0
H876 H 0.56471 0.97733 0.69507 0.0
H877 H 0.62482 0.015 0.65355 0.0
H878 H 0.74882 0.11521 0.78979 0.0
H879 H 0.71127 0.11273 0.7159 0.0
Li880 Li 0.05839 0.25328 0.87954 0.0
Li881 Li 0.0315 0.27356 0.91385 0.0
Li882 Li 0.03734 0.22545 0.90901 0.0
Li883 Li 0.00978 0.24376 0.87895 0.0
C884 C 0.08896 0.2543 0.92308 0.0
N885 N 0.14041 0.25109 0.93421 0.0
C886 C 0.10346 0.27575 0.93682 0.0
C887 C 0.10056 0.23113 0.9153 0.0
C888 C 0.12946 0.27378 0.94217 0.0
C889 C 0.1266 0.22991 0.92104 0.0
C890 C 0.02773 0.30304 0.87724 0.0
C891 C 1.0007 0.33902 0.88238 0.0
N892 N 0.02167 0.35573 0.87971 0.0
C893 C 0.04896 0.32053 0.87429 0.0
C894 C 1.00336 0.31229 0.88107 0.0
C895 C 0.04551 0.34711 0.87569 0.0
C896 C 0.08945 0.24337 0.83572 0.0
N897 N 0.08796 0.25838 0.85906 0.0
C898 C 0.12932 0.28023 0.85367 0.0
C899 C 0.10713 0.27686 0.86802 0.0
C900 C 0.13175 0.26454 0.82976 0.0
C901 C 0.11131 0.24604 0.82072 0.0
H902 H 0.07369 0.22918 0.82879 0.0
H903 H 0.10527 0.28892 0.8864 0.0
C904 C 0.00754 0.30763 0.95237 0.0
N905 N 0.0288 0.30479 0.93763 0.0
C906 C 1.00496 0.3309 0.96897 0.0
C907 C 0.04653 0.34762 0.95545 0.0
C908 C 0.04823 0.32409 0.93902 0.0
C909 C 0.02458 0.35131 0.97058 0.0
H910 H 0.99255 0.29188 0.95125 0.0
H911 H 0.06491 0.32135 0.92705 0.0
C912 C 0.03973 0.19396 0.86028 0.0
N913 N 0.04462 0.14262 0.83901 0.0
C914 C 0.01788 0.17737 0.85197 0.0
C915 C 0.06411 0.18453 0.85733 0.0
C916 C 0.02073 0.15146 0.8414 0.0
C917 C 0.06618 0.15849 0.84665 0.0
C918 C 0.97999 0.2372 0.92038 0.0
C919 C 0.97226 0.21284 0.92734 0.0
C920 C 0.9615 0.25462 0.91726 0.0
C921 C 0.9461 0.20617 0.93075 0.0
C922 C 0.93552 0.24722 0.92082 0.0
N923 N 0.92843 0.22334 0.92742 0.0
C924 C 0.05545 0.2019 0.94997 0.0
C925 C 0.03073 0.17241 0.91886 0.0
C926 C 0.0588 0.182 0.96456 0.0
N927 N 0.04172 0.19681 0.9275 0.0
C928 C 0.0335 0.15194 0.93288 0.0
C929 C 0.04762 0.15659 0.95616 0.0
H930 H 0.06362 0.22154 0.95674 0.0
H931 H 0.01912 0.16891 0.9015 0.0
C932 C 0.97959 0.25316 0.83769 0.0
N933 N 0.98008 0.23793 0.85654 0.0
C934 C 0.95864 0.25056 0.82062 0.0
C935 C 0.93901 0.21642 0.84246 0.0
C936 C 0.96048 0.21954 0.85897 0.0
C937 C 0.93783 0.23209 0.82293 0.0
H938 H 0.9956 0.26732 0.83582 0.0
H939 H 0.96144 0.20722 0.8737 0.0
O940 O 0.06355 0.256 0.91736 0.0
O941 O 0.0308 0.27702 0.87648 0.0
O942 O 0.03725 0.21944 0.87058 0.0
O943 O 1.00554 0.24403 0.91694 0.0
H944 H 0.09476 0.29377 0.94322 0.0
H945 H 0.0895 0.21421 0.90516 0.0
H946 H 0.14094 0.29027 0.95267 0.0
H947 H 0.13582 0.21209 0.91507 0.0
H948 H 0.98198 0.34646 0.8855 0.0
H949 H 0.06793 0.31369 0.8712 0.0
H950 H 0.98669 0.29899 0.88307 0.0
H951 H 0.06181 0.3609 0.87363 0.0
H952 H 0.14464 0.29457 0.86153 0.0
H953 H 0.11218 0.23382 0.80223 0.0
H954 H 0.98788 0.33281 0.98055 0.0
H955 H 0.06198 0.36295 0.95589 0.0
H956 H 0.99889 0.18434 0.8539 0.0
H957 H 0.08131 0.1972 0.86294 0.0
H958 H 1.00396 0.13837 0.83509 0.0
H959 H 0.08493 0.15094 0.84434 0.0
H960 H 0.98628 0.19921 0.93009 0.0
H961 H 0.96709 0.27358 0.91198 0.0
H962 H 0.93986 0.18734 0.93606 0.0
H963 H 0.92101 0.26045 0.91831 0.0
H964 H 0.06993 0.18653 0.98232 0.0
H965 H 0.02393 0.13288 0.92594 0.0
H966 H 0.95897 0.26267 0.80555 0.0
H967 H 0.92341 0.20206 0.84519 0.0
Li968 Li 0.5564 0.75523 0.3835 0.0
Li969 Li 0.52911 0.77637 0.4172 0.0
Li970 Li 0.53533 0.72785 0.41269 0.0
Li971 Li 0.50789 0.7455 0.38211 0.0
C972 C 0.58706 0.762 0.42624 0.0
N973 N 0.6397 0.76903 0.43497 0.0
C974 C 0.59842 0.7862 0.43792 0.0
C975 C 0.60242 0.74128 0.41939 0.0
C976 C 0.62508 0.78939 0.44207 0.0
C977 C 0.629 0.74524 0.42385 0.0
C978 C 0.5242 0.80384 0.37725 0.0
C979 C 0.49487 0.83758 0.37768 0.0
N980 N 0.51478 0.85459 0.37266 0.0
C981 C 0.54431 0.82156 0.37175 0.0
C982 C 0.49923 0.81181 0.37994 0.0
C983 C 0.53918 0.84717 0.36963 0.0
C984 C 0.5894 0.74209 0.34189 0.0
N985 N 0.58618 0.75997 0.36305 0.0
C986 C 0.62584 0.78386 0.35526 0.0
C987 C 0.60367 0.78079 0.36972 0.0
C988 C 0.63 0.76539 0.33359 0.0
C989 C 0.61128 0.74439 0.32685 0.0
H990 H 0.57497 0.72599 0.33667 0.0
H991 H 0.60051 0.79498 0.38639 0.0
C992 C 0.50645 0.80889 0.45813 0.0
N993 N 0.52529 0.80802 0.44027 0.0
C994 C 0.5028 0.83225 0.47422 0.0
C995 C 0.53839 0.85324 0.45368 0.0
C996 C 0.54134 0.82951 0.43803 0.0
C997 C 0.51878 0.85493 0.472 0.0
H998 H 0.49417 0.79148 0.45986 0.0
H999 H 0.5565 0.82823 0.42404 0.0
C1000 C 0.53722 0.69513 0.36652 0.0
N1001 N 0.54057 0.64228 0.35089 0.0
C1002 C 0.51531 0.67906 0.35734 0.0
C1003 C 0.56092 0.68437 0.36734 0.0
C1004 C 0.51737 0.65238 0.34964 0.0
C1005 C 0.56219 0.6576 0.35948 0.0
C1006 C 0.47761 0.74153 0.42444 0.0
C1007 C 0.46831 0.7176 0.43141 0.0
C1008 C 0.46054 0.76057 0.42231 0.0
C1009 C 0.44199 0.71292 0.43565 0.0
C1010 C 0.43435 0.75515 0.42667 0.0
N1011 N 0.42569 0.73162 0.43317 0.0
C1012 C 0.55679 0.70218 0.45084 0.0
C1013 C 0.52536 0.67586 0.42389 0.0
C1014 C 0.56026 0.68161 0.46458 0.0
N1015 N 0.53962 0.69897 0.43086 0.0
C1016 C 0.52823 0.65478 0.43704 0.0
C1017 C 0.54583 0.65748 0.45777 0.0
H1018 H 0.56767 0.72082 0.45631 0.0
H1019 H 0.51132 0.67389 0.40844 0.0
C1020 C 0.47911 0.75308 0.33934 0.0
N1021 N 0.47847 0.73936 0.35942 0.0
C1022 C 0.45845 0.7503 0.32193 0.0
C1023 C 0.43687 0.71885 0.34581 0.0
C1024 C 0.45804 0.72219 0.36274 0.0
C1025 C 0.43689 0.73306 0.32508 0.0
H1026 H 0.49572 0.7663 0.33685 0.0
H1027 H 0.45822 0.71086 0.37833 0.0
O1028 O 0.56103 0.75859 0.42168 0.0
O1029 O 0.52893 0.77876 0.37972 0.0
O1030 O 0.53552 0.7213 0.37423 0.0
O1031 O 0.50333 0.74636 0.42006 0.0
H1032 H 0.58681 0.80236 0.44364 0.0
H1033 H 0.59389 0.72233 0.41078 0.0
H1034 H 0.63414 0.80806 0.45095 0.0
H1035 H 0.64113 0.72939 0.41851 0.0
H1036 H 0.47565 0.84402 0.37984 0.0
H1037 H 0.5637 0.81569 0.36934 0.0
H1038 H 0.48336 0.79822 0.38358 0.0
H1039 H 0.5546 0.86115 0.36559 0.0
H1040 H 0.63983 0.80022 0.36136 0.0
H1041 H 0.61346 0.72993 0.31008 0.0
H1042 H 0.48738 0.83261 0.48798 0.0
H1043 H 0.55156 0.87001 0.45164 0.0
H1044 H 0.49687 0.68705 0.35636 0.0
H1045 H 0.57817 0.69655 0.37385 0.0
H1046 H 0.50052 0.6397 0.34267 0.0
H1047 H 0.58039 0.64901 0.36013 0.0
H1048 H 0.48123 0.70277 0.43352 0.0
H1049 H 0.46742 0.77937 0.41744 0.0
H1050 H 0.43453 0.69443 0.44092 0.0
H1051 H 0.42093 0.76968 0.42496 0.0
H1052 H 0.57409 0.68459 0.48038 0.0
H1053 H 0.51621 0.6368 0.43147 0.0
H1054 H 0.45923 0.7618 0.30634 0.0
H1055 H 0.42085 0.70501 0.34869 0.0
Li1056 Li 0.02123 0.79603 0.64713 0.0
Li1057 Li 0.98997 0.775 0.67475 0.0
Li1058 Li 0.03685 0.76741 0.67505 0.0
Li1059 Li 0.0094 0.74686 0.63834 0.0
C1060 C 0.02334 0.82676 0.69339 0.0
N1061 N 0.02937 0.88019 0.70874 0.0
C1062 C 1.00225 0.84035 0.70232 0.0
C1063 C 0.04754 0.84031 0.69249 0.0
C1064 C 1.00569 0.86736 0.70996 0.0
C1065 C 0.05018 0.86734 0.70025 0.0
C1066 C 0.96302 0.78016 0.62877 0.0
C1067 C 0.92058 0.76325 0.61268 0.0
N1068 N 0.91439 0.78803 0.61169 0.0
C1069 C 0.95631 0.80544 0.6273 0.0
C1070 C 0.94509 0.75886 0.62113 0.0
C1071 C 0.93161 0.80903 0.61873 0.0
C1072 C 0.04752 0.82282 0.61077 0.0
N1073 N 0.03023 0.82592 0.63009 0.0
C1074 C 0.02533 0.86972 0.62277 0.0
C1075 C 0.01923 0.84888 0.63631 0.0
C1076 C 0.04287 0.86698 0.60247 0.0
C1077 C 0.0542 0.84315 0.59674 0.0
H1078 H 0.05588 0.80436 0.60595 0.0
H1079 H 1.00528 0.85094 0.65143 0.0
C1080 C 0.96061 0.76554 0.71752 0.0
N1081 N 0.96023 0.77818 0.69668 0.0
C1082 C 0.93987 0.76583 0.73431 0.0
C1083 C 0.91893 0.7931 0.70864 0.0
C1084 C 0.94003 0.79208 0.69218 0.0
C1085 C 0.91853 0.77961 0.72992 0.0
H1086 H 0.97706 0.75503 0.72105 0.0
H1087 H 0.94023 0.8025 0.67593 0.0
C1088 C 0.06923 0.76274 0.63696 0.0
N1089 N 0.12092 0.75419 0.63683 0.0
C1090 C 0.07703 0.73778 0.62862 0.0
C1091 C 0.08773 0.78341 0.64493 0.0
C1092 C 0.10325 0.73384 0.62877 0.0
C1093 C 0.11377 0.77868 0.64481 0.0
C1094 C 0.99208 0.71868 0.67678 0.0
C1095 C 1.00317 0.6982 0.68608 0.0
C1096 C 0.96604 0.71578 0.66961 0.0
C1097 C 0.98807 0.67501 0.68766 0.0
C1098 C 0.95156 0.69233 0.67151 0.0
N1099 N 0.9628 0.67257 0.68038 0.0
C1100 C 0.07696 0.77955 0.71368 0.0
C1101 C 0.07196 0.73578 0.69255 0.0
C1102 C 0.0973 0.77366 0.72873 0.0
N1103 N 0.06482 0.76064 0.69601 0.0
C1104 C 0.09198 0.72901 0.70726 0.0
C1105 C 0.1049 0.74803 0.72572 0.0
H1106 H 0.0708 0.79913 0.71618 0.0
H1107 H 0.06216 0.72123 0.67818 0.0
C1108 C 0.99196 0.71881 0.58987 0.0
N1109 N 1.00401 0.71676 0.61236 0.0
C1110 C 0.98768 0.69697 0.57084 0.0
C1111 C 0.00918 0.67152 0.59803 0.0
C1112 C 0.01283 0.69379 0.61661 0.0
C1113 C 0.99625 0.67286 0.57483 0.0
H1114 H 0.98562 0.73742 0.58671 0.0
H1115 H 0.02279 0.69275 0.63444 0.0
O1116 O 0.02032 0.80031 0.68582 0.0
O1117 O 0.98724 0.7763 0.63691 0.0
O1118 O 0.04361 0.76687 0.63756 0.0
O1119 O 0.00667 0.74143 0.67482 0.0
H1120 H 0.98342 0.83018 0.70326 0.0
H1121 H 0.06408 0.83013 0.68571 0.0
H1122 H 0.98952 0.87814 0.71682 0.0
H1123 H 0.06877 0.87809 0.6995 0.0
H1124 H 0.90652 0.74693 0.6068 0.0
H1125 H 0.9699 0.82213 0.63297 0.0
H1126 H 0.95005 0.73909 0.62148 0.0
H1127 H 0.92612 0.82851 0.6177 0.0
H1128 H 0.01568 0.88747 0.62762 0.0
H1129 H 0.06796 0.84014 0.58142 0.0
H1130 H 0.94064 0.75553 0.7507 0.0
H1131 H 0.9029 0.80394 0.70448 0.0
H1132 H 0.06298 0.72158 0.62231 0.0
H1133 H 0.08203 0.80287 0.65125 0.0
H1134 H 0.10955 0.71458 0.62252 0.0
H1135 H 0.12828 0.79447 0.65108 0.0
H1136 H 0.02322 0.70013 0.69198 0.0
H1137 H 0.95702 0.73158 0.66293 0.0
H1138 H 0.99645 0.65897 0.6947 0.0
H1139 H 0.93138 0.68986 0.66599 0.0
H1140 H 0.10671 0.78887 0.74281 0.0
H1141 H 0.09754 0.70913 0.70395 0.0
H1142 H 0.97791 0.69897 0.55312 0.0
H1143 H 0.01594 0.65332 0.60201 0.0
Li1144 Li 0.52146 0.29665 0.14777 0.0
Li1145 Li 0.49033 0.27597 0.17583 0.0
Li1146 Li 0.53762 0.26836 0.17613 0.0
Li1147 Li 0.50964 0.24751 0.13996 0.0
C1148 C 0.52483 0.32771 0.19438 0.0
N1149 N 0.53279 0.38095 0.21042 0.0
C1150 C 0.50429 0.34206 0.20347 0.0
C1151 C 0.54948 0.3404 0.19376 0.0
C1152 C 0.50869 0.36897 0.21143 0.0
C1153 C 0.5531 0.36733 0.20184 0.0
C1154 C 0.46284 0.28149 0.13156 0.0
C1155 C 0.41863 0.26617 0.12058 0.0
N1156 N 0.41337 0.291 0.11844 0.0
C1157 C 0.45704 0.3068 0.12894 0.0
C1158 C 0.44353 0.26095 0.12706 0.0
C1159 C 0.43191 0.31123 0.12241 0.0
C1160 C 0.54673 0.32254 0.11022 0.0
N1161 N 0.53043 0.32626 0.13034 0.0
C1162 C 0.52648 0.37033 0.12335 0.0
C1163 C 0.52039 0.34966 0.13712 0.0
C1164 C 0.54304 0.36697 0.10227 0.0
C1165 C 0.5534 0.34269 0.09596 0.0
H1166 H 0.5543 0.30373 0.10494 0.0
H1167 H 0.50709 0.35218 0.1528 0.0
C1168 C 0.45847 0.26462 0.2166 0.0
N1169 N 0.46038 0.27957 0.19744 0.0
C1170 C 0.43737 0.26553 0.23295 0.0
C1171 C 0.42087 0.29809 0.21042 0.0
C1172 C 0.44219 0.29631 0.19427 0.0
C1173 C 0.41814 0.28238 0.22996 0.0
H1174 H 0.47341 0.25193 0.21926 0.0
H1175 H 0.4443 0.30858 0.17946 0.0
C1176 C 0.56967 0.26446 0.13672 0.0
N1177 N 0.62189 0.25849 0.13382 0.0
C1178 C 0.57838 0.24013 0.12736 0.0
C1179 C 0.58751 0.28584 0.14422 0.0
C1180 C 0.60486 0.23748 0.12614 0.0
C1181 C 0.61383 0.28241 0.14272 0.0
C1182 C 0.49524 0.21837 0.17748 0.0
C1183 C 0.50917 0.19854 0.18451 0.0
C1184 C 0.46904 0.21318 0.17132 0.0
C1185 C 0.49674 0.1737 0.18475 0.0
C1186 C 0.45728 0.18812 0.17181 0.0
N1187 N 0.47127 0.16904 0.17841 0.0
C1188 C 0.57619 0.28097 0.21612 0.0
C1189 C 0.57567 0.23862 0.19192 0.0
C1190 C 0.59701 0.27596 0.23105 0.0
N1191 N 0.56606 0.26238 0.19695 0.0
C1192 C 0.59623 0.23269 0.20646 0.0
C1193 C 0.60715 0.25145 0.22638 0.0
H1194 H 0.56804 0.29963 0.21994 0.0
H1195 H 0.5674 0.22427 0.17646 0.0
C1196 C 0.48816 0.21785 0.09389 0.0
N1197 N 0.50378 0.217 0.11446 0.0
C1198 C 0.48306 0.1957 0.07541 0.0
C1199 C 0.51113 0.17248 0.09892 0.0
C1200 C 0.51543 0.19499 0.11713 0.0
C1201 C 0.49452 0.17257 0.07786 0.0
H1202 H 0.4796 0.23572 0.09184 0.0
H1203 H 0.52804 0.19487 0.13346 0.0
O1204 O 0.52083 0.30136 0.18644 0.0
O1205 O 0.4874 0.27682 0.13789 0.0
O1206 O 0.54381 0.26734 0.13855 0.0
O1207 O 0.50717 0.24273 0.17672 0.0
H1208 H 0.48514 0.33258 0.2043 0.0
H1209 H 0.56566 0.32961 0.18709 0.0
H1210 H 0.49294 0.38032 0.21839 0.0
H1211 H 0.57205 0.37741 0.20132 0.0
H1212 H 0.40351 0.25045 0.11714 0.0
H1213 H 0.4717 0.3229 0.13212 0.0
H1214 H 0.44772 0.24113 0.12827 0.0
H1215 H 0.42715 0.33077 0.12052 0.0
H1216 H 0.51754 0.38845 0.12866 0.0
H1217 H 0.56639 0.33917 0.08004 0.0
H1218 H 0.43632 0.25344 0.24806 0.0
H1219 H 0.40653 0.31138 0.20744 0.0
H1220 H 0.56488 0.22343 0.12124 0.0
H1221 H 0.58111 0.30488 0.1511 0.0
H1222 H 0.61187 0.21871 0.1191 0.0
H1223 H 0.62784 0.29878 0.1486 0.0
H1224 H 0.52937 0.2022 0.18968 0.0
H1225 H 0.45784 0.22842 0.16646 0.0
H1226 H 0.50734 0.15814 0.19 0.0
H1227 H 0.43701 0.18386 0.167 0.0
H1228 H 0.60483 0.29089 0.24631 0.0
H1229 H 0.60374 0.21371 0.20192 0.0
H1230 H 0.47038 0.19668 0.05928 0.0
H1231 H 0.52023 0.15501 0.1016 0.0
C1232 C 0.27062 0.77092 0.86387 0.0
C1233 C 0.24962 0.75228 0.85756 0.0
H1234 H 0.28642 0.80409 0.89003 0.0
C1235 C 0.22777 0.75332 0.87315 0.0
H1236 H 0.28765 0.77059 0.85212 0.0
C1237 C 0.22718 0.77226 0.895 0.0
C1238 C 0.24825 0.79082 0.90139 0.0
H1239 H 0.2114 0.73906 0.86879 0.0
H1240 H 0.21026 0.77244 0.90691 0.0
C1241 C 0.26985 0.79014 0.88545 0.0
C1242 C 0.04541 0.56492 0.41278 0.0
C1243 C 0.0394 0.54217 0.42363 0.0
H1244 H 0.06839 0.58301 0.38556 0.0
C1245 C 0.05277 0.52009 0.41591 0.0
H1246 H 0.035 0.58208 0.41833 0.0
C1247 C 0.07131 0.52026 0.39686 0.0
C1248 C 0.07709 0.54269 0.38516 0.0
H1249 H 0.04801 0.50217 0.42375 0.0
H1250 H 0.08017 0.5023 0.39052 0.0
C1251 C 0.06426 0.56525 0.39379 0.0
C1252 C 0.78237 0.72664 0.85538 0.0
C1253 C 0.80538 0.74192 0.85221 0.0
H1254 H 0.76183 0.70039 0.87733 0.0
C1255 C 0.82619 0.74121 0.86916 0.0
H1256 H 0.76613 0.72624 0.84237 0.0
C1257 C 0.82371 0.72626 0.88926 0.0
C1258 C 0.80037 0.7117 0.8929 0.0
H1259 H 0.8441 0.75289 0.86743 0.0
H1260 H 0.83983 0.72681 0.90245 0.0
C1261 C 0.77989 0.7118 0.87546 0.0
C1262 C 0.01462 0.98048 0.42936 0.0
C1263 C 0.02915 1.00132 0.44431 0.0
H1264 H 0.98914 0.96834 0.39698 0.0
C1265 C 0.02869 0.02661 0.43789 0.0
H1266 H 0.01476 0.96078 0.43381 0.0
C1267 C 0.01389 0.03096 0.41694 0.0
C1268 C 0.99961 0.01005 0.40179 0.0
H1269 H 0.03959 0.04304 0.44922 0.0
H1270 H 0.01394 0.05062 0.41232 0.0
C1271 C 1.00013 0.98478 0.40821 0.0
C1272 C 0.25158 0.2537 0.67054 0.0
C1273 C 0.27425 0.26782 0.68111 0.0
H1274 H 0.23395 0.22745 0.63893 0.0
C1275 C 0.29706 0.26612 0.66699 0.0
H1276 H 0.23363 0.25487 0.68083 0.0
C1277 C 0.29733 0.25024 0.64309 0.0
C1278 C 0.27476 0.23575 0.63265 0.0
H1279 H 0.31495 0.27643 0.67478 0.0
H1280 H 0.31546 0.24875 0.63318 0.0
C1281 C 0.2518 0.23793 0.64656 0.0
C1282 C 0.52227 0.55702 0.63258 0.0
C1283 C 0.53002 0.53371 0.61875 0.0
H1284 H 0.50258 0.57486 0.66551 0.0
C1285 C 0.52417 0.5101 0.62828 0.0
H1286 H 0.52663 0.57548 0.62562 0.0
C1287 C 0.51016 0.5097 0.65083 0.0
C1288 C 0.50212 0.53296 0.66449 0.0
H1289 H 0.52978 0.49185 0.61787 0.0
H1290 H 0.50549 0.49118 0.65757 0.0
C1291 C 0.50865 0.55668 0.65538 0.0
C1292 C 0.78565 0.26514 0.64964 0.0
C1293 C 0.80881 0.27235 0.66344 0.0
H1294 H 0.7579 0.27613 0.62388 0.0
C1295 C 0.82162 0.29694 0.66252 0.0
H1296 H 0.77559 0.24611 0.65004 0.0
C1297 C 0.81184 0.31396 0.64741 0.0
C1298 C 0.78895 0.30674 0.63288 0.0
H1299 H 0.83973 0.30269 0.67283 0.0
H1300 H 0.82287 0.33235 0.64633 0.0
C1301 C 0.77573 0.28225 0.63453 0.0
C1302 C 0.54317 0.96597 0.61866 0.0
C1303 C 0.54411 0.98525 0.60243 0.0
H1304 H 0.55778 0.9538 0.65268 0.0
C1305 C 0.56072 0.008 0.60922 0.0
H1306 H 0.53043 0.9483 0.6142 0.0
C1307 C 0.57593 0.0114 0.63153 0.0
C1308 C 0.57534 0.992 0.64758 0.0
H1309 H 0.56238 0.02312 0.59706 0.0
H1310 H 0.58814 0.0294 0.6362 0.0
C1311 C 0.55863 0.96927 0.64093 0.0
C1312 C 0.88552 0.24804 0.77843 0.0
C1313 C 0.8731 0.22324 0.76984 0.0
H1314 H 0.91505 0.27043 0.80241 0.0
C1315 C 0.8818 0.20138 0.77908 0.0
H1316 H 0.87902 0.26526 0.77184 0.0
C1317 C 0.90269 0.20424 0.79632 0.0
C1318 C 0.91525 0.22906 0.80491 0.0
H1319 H 0.87281 0.18197 0.77252 0.0
H1320 H 0.90931 0.18687 0.80246 0.0
C1321 C 0.90624 0.25095 0.79587 0.0
C1322 C 0.51661 0.92769 0.49494 0.0
C1323 C 0.51159 0.92836 0.52125 0.0
H1324 H 0.52246 0.90415 0.45879 0.0
C1325 C 0.50776 0.90456 0.531 0.0
H1326 H 0.51997 0.94561 0.4868 0.0
C1327 C 0.50961 0.88074 0.51497 0.0
C1328 C 0.51534 0.88013 0.4888 0.0
H1329 H 0.50364 0.90435 0.55112 0.0
H1330 H 0.50726 0.86285 0.52328 0.0
C1331 C 0.51843 0.9039 0.47893 0.0
C1332 C 0.19039 0.24646 0.79039 0.0
C1333 C 0.20351 0.27102 0.79003 0.0
H1334 H 0.15739 0.22511 0.80342 0.0
C1335 C 0.1925 0.29357 0.8014 0.0
H1336 H 0.19882 0.22884 0.78188 0.0
C1337 C 0.1688 0.29155 0.81369 0.0
C1338 C 0.15582 0.2669 0.81484 0.0
H1339 H 0.2025 0.31269 0.80136 0.0
H1340 H 0.1608 0.30927 0.82255 0.0
C1341 C 0.16669 0.2444 0.80265 0.0
C1342 C 0.54561 0.58894 0.47508 0.0
C1343 C 0.54612 0.5941 0.50196 0.0
H1344 H 0.54566 0.60502 0.43989 0.0
C1345 C 0.54862 0.62002 0.51433 0.0
H1346 H 0.54343 0.56899 0.46525 0.0
C1347 C 0.54962 0.64066 0.49994 0.0
C1348 C 0.54795 0.63567 0.47292 0.0
H1349 H 0.54865 0.62431 0.53512 0.0
H1350 H 0.55038 0.66047 0.51005 0.0
C1351 C 0.5466 0.60955 0.46065 0.0
C1352 C 0.86266 0.80222 0.77189 0.0
C1353 C 0.85318 0.77896 0.78062 0.0
H1354 H 0.89071 0.82076 0.74927 0.0
C1355 C 0.86535 0.75599 0.77228 0.0
H1356 H 0.85403 0.82036 0.77808 0.0
C1357 C 0.88647 0.7563 0.75596 0.0
C1358 C 0.89596 0.77952 0.74729 0.0
H1359 H 0.85829 0.73754 0.77797 0.0
H1360 H 0.89512 0.73816 0.74975 0.0
C1361 C 0.88373 0.80247 0.75537 0.0
C1362 C 0.05112 0.90191 0.54408 0.0
C1363 C 0.05101 0.92813 0.55522 0.0
H1364 H 0.04845 0.86197 0.5502 0.0
C1365 C 0.05056 0.93448 0.58202 0.0
H1366 H 0.05096 0.89661 0.52336 0.0
C1367 C 0.04913 0.9147 0.59751 0.0
C1368 C 0.04791 0.88819 0.5864 0.0
H1369 H 0.05011 0.95465 0.59094 0.0
H1370 H 0.04823 0.92015 0.61814 0.0
C1371 C 0.04966 0.8821 0.5595 0.0
C1372 C 0.17091 0.74836 0.75682 0.0
C1373 C 0.16883 0.72424 0.76589 0.0
H1374 H 0.15206 0.77497 0.73695 0.0
C1375 C 0.14526 0.70905 0.76366 0.0
H1376 H 0.18914 0.76016 0.75812 0.0
C1377 C 0.12419 0.71732 0.75149 0.0
C1378 C 0.12637 0.74094 0.74131 0.0
H1379 H 0.14342 0.69025 0.77038 0.0
H1380 H 0.10634 0.70489 0.74947 0.0
C1381 C 0.14975 0.75676 0.74473 0.0
C1382 C 1.00412 0.60808 0.53211 0.0
C1383 C 0.97933 0.60203 0.52112 0.0
H1384 H 0.02894 0.6352 0.55778 0.0
C1385 C 0.96071 0.62013 0.52675 0.0
H1386 H 0.01881 0.59444 0.52823 0.0
C1387 C 0.96646 0.64339 0.54358 0.0
C1388 C 0.99093 0.64904 0.55539 0.0
H1389 H 0.94149 0.61609 0.51841 0.0
H1390 H 0.95143 0.65655 0.54803 0.0
C1391 C 0.00981 0.63127 0.54921 0.0
C1392 C 0.80277 0.86824 0.22753 0.0
C1393 C 0.80266 0.85052 0.24536 0.0
H1394 H 0.81713 0.90555 0.21824 0.0
C1395 C 0.81756 0.85758 0.26808 0.0
H1396 H 0.79126 0.86371 0.21002 0.0
C1397 C 0.83193 0.88174 0.27295 0.0
C1398 C 0.8321 0.89927 0.25507 0.0
H1399 H 0.81851 0.84429 0.282 0.0
H1400 H 0.84335 0.8865 0.29052 0.0
C1401 C 0.81748 0.89227 0.23226 0.0
C1402 C 0.8083 0.17273 0.2859 0.0
C1403 C 0.79841 0.18182 0.31016 0.0
H1404 H 0.83299 0.14688 0.26422 0.0
C1405 C 0.80795 0.17254 0.33187 0.0
H1406 H 0.80196 0.1799 0.26883 0.0
C1407 C 0.82617 0.1539 0.32921 0.0
C1408 C 0.83498 0.14398 0.30478 0.0
H1409 H 0.80064 0.17888 0.35081 0.0
H1410 H 0.83256 0.14647 0.34612 0.0
C1411 C 0.82618 0.15389 0.28323 0.0
C1412 C 0.39835 0.02778 0.02014 0.0
C1413 C 0.41862 0.01869 1.00455 0.0
H1414 H 0.36292 0.0183 0.03831 0.0
C1415 C 0.41806 0.99176 0.99539 0.0
H1416 H 0.39784 0.04837 0.02739 0.0
C1417 C 0.3975 0.97459 1.00089 0.0
C1418 C 0.37705 0.98367 0.01622 0.0
H1419 H 0.43351 0.98381 0.98378 0.0
H1420 H 0.39749 0.95424 0.99254 0.0
C1421 C 0.37797 0.0105 0.02606 0.0
C1422 C 0.27508 0.38846 0.29594 0.0
C1423 C 0.26266 0.3632 0.29305 0.0
H1424 H 0.27208 0.42863 0.29174 0.0
C1425 C 0.23822 0.35844 0.28128 0.0
H1426 H 0.2938 0.39256 0.30538 0.0
C1427 C 0.2257 0.37896 0.27371 0.0
C1428 C 0.23742 0.40464 0.27778 0.0
H1429 H 0.22821 0.3391 0.27917 0.0
H1430 H 0.20643 0.3749 0.2655 0.0
C1431 C 0.26262 0.40904 0.28818 0.0
C1432 C 0.12824 0.01598 0.47164 0.0
C1433 C 0.11287 0.01408 0.49333 0.0
H1434 H 0.16244 0.03288 0.4564 0.0
C1435 C 0.1226 0.02616 0.51751 0.0
H1436 H 0.12161 1.00651 0.45275 0.0
C1437 C 0.14647 0.0409 0.51971 0.0
C1438 C 0.16114 0.04408 0.49777 0.0
H1439 H 0.1113 0.0252 0.53462 0.0
H1440 H 0.15316 0.05021 0.53861 0.0
C1441 C 0.15191 0.03089 0.47379 0.0
C1442 C 0.77516 0.18096 0.76332 0.0
C1443 C 0.78653 0.1813 0.73918 0.0
H1444 H 0.74882 0.16093 0.78626 0.0
C1445 C 0.77838 0.16162 0.71881 0.0
H1446 H 0.78081 0.19605 0.77931 0.0
C1447 C 0.7602 0.14131 0.72284 0.0
C1448 C 0.7497 0.1403 0.74731 0.0
H1449 H 0.78701 0.16116 0.70007 0.0
H1450 H 0.75527 0.12581 0.70702 0.0
C1451 C 0.75694 0.16074 0.76733 0.0
C1452 C 0.42709 0.02611 0.52315 0.0
C1453 C 0.45027 0.0413 0.5298 0.0
H1454 H 0.38686 0.02615 0.51407 0.0
C1455 C 0.4507 0.06858 0.53305 0.0
H1456 H 0.4265 1.00497 0.52051 0.0
C1457 C 0.42826 0.08069 0.52944 0.0
C1458 C 0.40491 0.06571 0.52249 0.0
H1459 H 0.46847 0.08059 0.53827 0.0
H1460 H 0.42919 0.10185 0.53228 0.0
C1461 C 0.4045 0.03824 0.51958 0.0
C1462 C 0.60226 0.48869 0.53559 0.0
C1463 C 0.60056 0.50569 0.55886 0.0
H1464 H 0.62362 0.46008 0.51315 0.0
C1465 C 0.62035 0.5071 0.5774 0.0
H1466 H 0.58723 0.48694 0.52101 0.0
C1467 C 0.64104 0.49152 0.57301 0.0
C1468 C 0.64247 0.47408 0.54999 0.0
H1469 H 0.61973 0.52013 0.59545 0.0
H1470 H 0.65563 0.49271 0.58796 0.0
C1471 C 0.62294 0.47303 0.53123 0.0
C1472 C 0.77665 0.27273 0.36699 0.0
C1473 C 0.75433 0.25686 0.35816 0.0
H1474 H 0.79373 0.30317 0.39528 0.0
C1475 C 0.73131 0.26036 0.37166 0.0
H1476 H 0.79457 0.27083 0.35676 0.0
C1477 C 0.73085 0.27879 0.39395 0.0
C1478 C 0.75337 0.29423 0.40318 0.0
H1479 H 0.71385 0.24827 0.36545 0.0
H1480 H 0.71301 0.28036 0.40437 0.0
C1481 C 0.77616 0.29122 0.38915 0.0
C1482 C 0.54384 0.02878 0.9159 0.0
C1483 C 0.52948 0.05068 0.91891 0.0
H1484 H 0.57405 0.00923 0.89586 0.0
C1485 C 0.53639 0.07138 0.90536 0.0
H1486 H 0.53846 0.01239 0.92589 0.0
C1487 C 0.55689 0.06972 0.88817 0.0
C1488 C 0.57064 0.04718 0.88406 0.0
H1489 H 0.5253 0.08833 0.90723 0.0
H1490 H 0.56151 0.0858 0.87758 0.0
C1491 C 0.56425 0.02703 0.89868 0.0
C1492 C 0.28318 0.23791 0.35965 0.0
C1493 C 0.30765 0.24964 0.35496 0.0
H1494 H 0.26079 0.21274 0.38129 0.0
C1495 C 0.32899 0.24375 0.36883 0.0
H1496 H 0.2664 0.24166 0.34896 0.0
C1497 C 0.32576 0.22724 0.38759 0.0
C1498 C 0.30111 0.21614 0.39283 0.0
H1499 H 0.34806 0.25262 0.36583 0.0
H1500 H 0.34248 0.22391 0.39856 0.0
C1501 C 0.27996 0.22137 0.37827 0.0
C1502 C 0.51616 0.48023 0.92874 0.0
C1503 C 0.53046 0.50118 0.9438 0.0
H1504 H 0.49077 0.46792 0.89633 0.0
C1505 C 0.52979 0.52645 0.93741 0.0
H1506 H 0.51646 0.46054 0.93318 0.0
C1507 C 0.51493 0.53071 0.91645 0.0
C1508 C 0.50081 0.50971 0.90127 0.0
H1509 H 0.5405 0.54296 0.94882 0.0
H1510 H 0.51476 0.55037 0.9119 0.0
C1511 C 0.50163 0.48443 0.90759 0.0
C1512 C 0.79406 0.76835 0.17021 0.0
C1513 C 0.77134 0.76985 0.18452 0.0
H1514 H 0.8123 0.75131 0.13618 0.0
C1515 C 0.7487 0.75553 0.17412 0.0
H1516 H 0.81194 0.77877 0.17787 0.0
C1517 C 0.74886 0.73984 0.15007 0.0
C1518 C 0.7717 0.73799 0.13593 0.0
H1519 H 0.73084 0.75651 0.18455 0.0
H1520 H 0.73104 0.7292 0.14256 0.0
C1521 C 0.79425 0.7526 0.14626 0.0
C1522 C 0.02481 0.00979 0.12831 0.0
C1523 C 0.03087 0.03348 0.11899 0.0
H1524 H 1.00588 0.99077 0.15743 0.0
C1525 C 0.0234 0.05679 0.13303 0.0
H1526 H 0.03022 0.99155 0.11772 0.0
C1527 C 0.00978 0.0564 0.15583 0.0
C1528 C 1.00297 0.03262 0.16472 0.0
H1529 H 0.02793 0.07531 0.12624 0.0
H1530 H 1.00389 0.07459 0.1661 0.0
C1531 C 0.01077 0.00934 0.15086 0.0
C1532 C 0.28598 0.76365 0.14522 0.0
C1533 C 0.29965 0.77649 0.16705 0.0
H1534 H 0.26517 0.7677 0.11103 0.0
C1535 C 0.30161 0.80383 0.17208 0.0
H1536 H 0.28449 0.7425 0.14095 0.0
C1537 C 0.29103 0.81831 0.15488 0.0
C1538 C 0.27826 0.80568 0.13224 0.0
H1539 H 0.31245 0.81407 0.18869 0.0
H1540 H 0.29415 0.83941 0.1587 0.0
C1541 C 0.27522 0.77812 0.12801 0.0
C1542 C 0.05419 0.51252 0.10527 0.0
C1543 C 0.03881 0.48886 0.09899 0.0
H1544 H 0.0808 0.53585 0.13202 0.0
C1545 C 0.03797 0.47074 0.11643 0.0
H1546 H 0.05554 0.52683 0.09223 0.0
C1547 C 0.05284 0.47572 0.13909 0.0
C1548 C 0.06892 0.49898 0.14492 0.0
H1549 H 0.0261 0.45245 0.11236 0.0
H1550 H 0.05236 0.46094 0.15162 0.0
C1551 C 0.06901 0.51752 0.12795 0.0
C1552 C 0.36837 0.72662 0.29842 0.0
C1553 C 0.37249 0.72597 0.27194 0.0
H1554 H 0.38542 0.72962 0.33597 0.0
C1555 C 0.39794 0.72693 0.26307 0.0
H1556 H 0.34903 0.72619 0.30592 0.0
C1557 C 0.41876 0.72896 0.28027 0.0
C1558 C 0.41466 0.72999 0.30677 0.0
H1559 H 0.40181 0.72592 0.24276 0.0
H1560 H 0.4381 0.72951 0.27276 0.0
C1561 C 0.38922 0.72858 0.31564 0.0
C1562 C 0.99651 0.41246 1.00397 0.0
C1563 C 0.01762 0.42514 0.01881 0.0
H1564 H 0.98216 0.37925 0.97712 0.0
C1565 C 0.04088 0.41306 0.01813 0.0
H1566 H 0.97831 0.42123 1.00422 0.0
C1567 C 0.04308 0.38903 1.00264 0.0
C1568 C 0.02203 0.37646 0.98763 0.0
H1569 H 0.05757 0.42247 0.02914 0.0
H1570 H 0.06128 0.38026 1.00244 0.0
C1571 C 0.99865 0.38834 0.98863 0.0
C1572 C 0.68855 0.79438 0.30157 0.0
C1573 C 0.7016 0.77211 0.29356 0.0
H1574 H 0.65532 0.80972 0.32017 0.0
C1575 C 0.69062 0.74753 0.29744 0.0
H1576 H 0.6969 0.81355 0.29881 0.0
C1577 C 0.66701 0.74526 0.30984 0.0
C1578 C 0.65408 0.76761 0.31864 0.0
H1579 H 0.70064 0.73016 0.29159 0.0
H1580 H 0.6594 0.72611 0.31336 0.0
C1581 C 0.66494 0.79217 0.31398 0.0
C1582 C 0.04566 0.12069 0.01404 0.0
C1583 C 0.04679 0.09475 1.0024 0.0
H1584 H 0.04478 0.16059 0.00856 0.0
C1585 C 0.05014 0.0892 0.97582 0.0
H1586 H 0.04268 0.12525 0.03453 0.0
C1587 C 0.05145 0.1094 0.96085 0.0
C1588 C 0.04923 0.13544 0.97225 0.0
H1589 H 0.0508 0.06919 0.96652 0.0
H1590 H 0.05363 0.10454 0.94028 0.0
C1591 C 0.04691 0.14089 0.99913 0.0
C1592 C 0.3622 0.26149 0.27054 0.0
C1593 C 0.35382 0.28561 0.28192 0.0
H1594 H 0.38879 0.24159 0.24526 0.0
C1595 C 0.36633 0.30871 0.2753 0.0
H1596 H 0.35273 0.24325 0.27461 0.0
C1597 C 0.38687 0.30769 0.25812 0.0
C1598 C 0.39557 0.28358 0.2473 0.0
H1599 H 0.36072 0.32766 0.28387 0.0
H1600 H 0.3964 0.32584 0.25385 0.0
C1601 C 0.38286 0.2605 0.2536 0.0
C1602 C 0.55017 0.40159 0.04359 0.0
C1603 C 0.55115 0.42789 0.05473 0.0
H1604 H 0.54662 0.3617 0.04979 0.0
C1605 C 0.55174 0.43433 0.08155 0.0
H1606 H 0.54919 0.39625 0.02288 0.0
C1607 C 0.5503 0.41459 0.09709 0.0
C1608 C 0.54802 0.38805 0.08603 0.0
H1609 H 0.55214 0.45457 0.09048 0.0
H1610 H 0.55025 0.42012 0.11775 0.0
C1611 C 0.54868 0.38184 0.05906 0.0
C1612 C 0.65079 0.21365 0.26213 0.0
C1613 C 0.67316 0.2307 0.26563 0.0
H1614 H 0.61214 0.20703 0.2472 0.0
C1615 C 0.67321 0.25555 0.25826 0.0
H1616 H 0.65053 0.19427 0.2675 0.0
C1617 C 0.65127 0.2629 0.24656 0.0
C1618 C 0.62919 0.24529 0.24178 0.0
H1619 H 0.69051 0.26881 0.26052 0.0
H1620 H 0.65205 0.28178 0.24006 0.0
C1621 C 0.62897 0.22086 0.25031 0.0
C1622 C 0.50184 0.11003 0.03137 0.0
C1623 C 0.47604 0.10187 0.02451 0.0
H1624 H 0.52796 0.13875 0.05392 0.0
C1625 C 0.45658 0.11744 0.03476 0.0
H1626 H 0.51718 0.09836 0.02378 0.0
C1627 C 0.4627 0.14052 0.0517 0.0
C1628 C 0.4884 0.14847 0.05906 0.0
H1629 H 0.43654 0.11174 0.02963 0.0
H1630 H 0.44721 0.15189 0.05948 0.0
C1631 C 0.50795 0.133 0.04871 0.0
C1632 C 0.30505 0.36621 0.72514 0.0
C1633 C 0.30488 0.34828 0.74277 0.0
H1634 H 0.31915 0.40384 0.71645 0.0
C1635 C 0.31947 0.35525 0.7657 0.0
H1636 H 0.29379 0.36174 0.70748 0.0
C1637 C 0.33357 0.37953 0.77099 0.0
C1638 C 0.33377 0.39731 0.75334 0.0
H1639 H 0.32037 0.3418 0.77948 0.0
H1640 H 0.34475 0.38421 0.78871 0.0
C1641 C 0.31948 0.39038 0.7303 0.0
C1642 C 0.30448 0.66849 0.78585 0.0
C1643 C 0.29526 0.67816 0.81024 0.0
H1644 H 0.32914 0.64266 0.76411 0.0
C1645 C 0.30602 0.67009 0.83204 0.0
H1646 H 0.29716 0.67475 0.76868 0.0
C1647 C 0.32471 0.65194 0.82938 0.0
C1648 C 0.33283 0.64134 0.80488 0.0
H1649 H 0.29926 0.67693 0.85109 0.0
H1650 H 0.332 0.64536 0.84641 0.0
C1651 C 0.32288 0.65018 0.7832 0.0
C1652 C 0.91129 0.51927 0.52804 0.0
C1653 C 0.91807 0.52154 0.50258 0.0
H1654 H 0.8849 0.50184 0.55296 0.0
C1655 C 0.9023 0.50791 0.48243 0.0
H1656 H 0.92312 0.52937 0.544 0.0
C1657 C 0.88069 0.49191 0.48752 0.0
C1658 C 0.8741 0.48919 0.51292 0.0
H1659 H 0.90677 0.50947 0.46261 0.0
H1660 H 0.86946 0.48118 0.47142 0.0
C1661 C 0.88956 0.50324 0.53315 0.0
C1662 C 0.75164 0.8581 0.76893 0.0
C1663 C 0.75821 0.85354 0.79362 0.0
H1664 H 0.73546 0.88414 0.74636 0.0
C1665 C 0.75522 0.87289 0.81473 0.0
H1666 H 0.75347 0.84317 0.75245 0.0
C1667 C 0.7448 0.89618 0.81137 0.0
C1668 C 0.73714 0.90052 0.7868 0.0
H1669 H 0.75995 0.86957 0.83399 0.0
H1670 H 0.74219 0.91056 0.82811 0.0
C1671 C 0.74132 0.8815 0.7655 0.0
C1672 C 0.62926 0.51676 0.97273 0.0
C1673 C 0.61354 0.51454 0.99412 0.0
H1674 H 0.66379 0.5339 0.95827 0.0
C1675 C 0.6229 0.52633 0.01854 0.0
H1676 H 0.62294 0.50753 0.95368 0.0
C1677 C 0.64677 0.54105 0.02128 0.0
C1678 C 0.66182 0.54453 0.99966 0.0
H1679 H 0.61133 0.52513 0.03544 0.0
H1680 H 0.65317 0.55011 0.04036 0.0
C1681 C 0.65295 0.53167 0.97543 0.0
C1682 C 0.27715 0.66821 0.21896 0.0
C1683 C 0.28524 0.68675 0.24028 0.0
H1684 H 0.25426 0.63273 0.20524 0.0
C1685 C 0.27394 0.68483 0.26419 0.0
H1686 H 0.28576 0.66905 0.20037 0.0
C1687 C 0.25576 0.66419 0.267 0.0
C1688 C 0.2486 0.64477 0.24601 0.0
H1689 H 0.27964 0.69902 0.28089 0.0
H1690 H 0.24762 0.66324 0.28577 0.0
C1691 C 0.25909 0.64738 0.2218 0.0
C1692 C 0.9257 0.52772 0.02692 0.0
C1693 C 0.9496 0.54169 0.03305 0.0
H1694 H 0.88541 0.52974 0.01999 0.0
C1695 C 0.95104 0.569 0.0386 0.0
H1696 H 0.92434 0.5066 0.02226 0.0
C1697 C 0.92885 0.58231 0.03732 0.0
C1698 C 0.90486 0.56849 0.03037 0.0
H1699 H 0.96942 0.58009 0.04318 0.0
H1700 H 0.93055 0.60345 0.04143 0.0
C1701 C 0.90347 0.54099 0.02567 0.0
C1702 C 0.121 1.00717 0.0775 0.0
C1703 C 0.10179 1.00698 0.05859 0.0
H1704 H 0.15594 0.99214 0.08797 0.0
C1705 C 0.10447 0.99173 0.03446 0.0
H1706 H 0.11977 0.01892 0.0962 0.0
C1707 C 0.12551 0.97663 0.02957 0.0
C1708 C 0.14439 0.97632 0.04871 0.0
H1709 H 0.08995 0.99085 0.01951 0.0
H1710 H 0.12691 0.96514 0.01077 0.0
C1711 C 0.14196 0.99201 0.07266 0.0
loop_
_geom_bond_atom_site_label_1
_geom_bond_atom_site_label_2
_geom_bond_distance
_geom_bond_site_symmetry_2
_ccdc_geom_bond_type
H0 C3 0.929 . S
H1 C6 0.929 . S
H2 C8 0.930 . S
C3 H0 0.929 . S
C3 C4 1.398 . S
C3 C5 1.396 . S
C4 C3 1.398 . S
C4 C8 1.407 . S
C5 C3 1.396 . S
C5 C6 1.394 . S
C6 H1 0.929 . S
C6 C5 1.394 . S
C6 C7 1.382 . S
C7 C6 1.382 . S
C7 C8 1.392 . S
C7 N9 1.420 . S
C8 H2 0.930 . S
C8 C4 1.407 . S
C8 C7 1.392 . S
N9 C7 1.420 . S
N9 C10 1.244 . S
C10 N9 1.244 . S
H11 C14 0.929 . S
H12 C17 0.929 . S
H13 C19 0.930 . S
C14 H11 0.929 . S
C14 C15 1.398 . S
C14 C16 1.396 . S
C15 C14 1.398 . S
C15 C19 1.407 . S
C16 C14 1.396 . S
C16 C17 1.394 . S
C17 H12 0.929 . S
C17 C16 1.394 . S
C17 C18 1.382 . S
C18 C17 1.382 . S
C18 C19 1.392 . S
C18 N20 1.420 . S
C19 H13 0.930 . S
C19 C15 1.407 . S
C19 C18 1.392 . S
N20 C18 1.420 . S
N20 C21 1.244 . S
C21 N20 1.244 . S
H22 C25 0.929 . S
H23 C28 0.929 . S
H24 C30 0.930 1_556 S
C25 H22 0.929 . S
C25 C26 1.398 . S
C25 C27 1.396 . S
C26 C25 1.398 . S
C26 C30 1.407 1_455 S
C27 C25 1.396 . S
C27 C28 1.394 1_455 S
C28 H23 0.929 . S
C28 C27 1.394 1_655 S
C28 C29 1.382 . S
C29 C28 1.382 . S
C29 C30 1.392 . S
C29 N31 1.420 . S
C30 H24 0.930 1_554 S
C30 C26 1.407 1_655 S
C30 C29 1.392 . S
N31 C29 1.420 . S
N31 C32 1.244 . S
C32 N31 1.244 . S
H33 C36 0.929 . S
H34 C39 0.929 . S
H35 C41 0.930 . S
C36 H33 0.929 . S
C36 C37 1.398 . S
C36 C38 1.396 . S
C37 C36 1.398 . S
C37 C41 1.407 . S
C38 C36 1.396 . S
C38 C39 1.394 . S
C39 H34 0.929 . S
C39 C38 1.394 . S
C39 C40 1.382 . S
C40 C39 1.382 . S
C40 C41 1.392 . S
C40 N42 1.420 . S
C41 H35 0.930 . S
C41 C37 1.407 . S
C41 C40 1.392 . S
N42 C40 1.420 . S
N42 C43 1.244 . S
C43 N42 1.244 . S
H44 C47 0.929 1_545 S
H45 C50 0.929 . S
H46 C52 0.930 . S
C47 H44 0.929 1_565 S
C47 C48 1.398 . S
C47 C49 1.396 . S
C48 C47 1.398 . S
C48 C52 1.407 . S
C49 C47 1.396 . S
C49 C50 1.394 . S
C50 H45 0.929 . S
C50 C49 1.394 . S
C50 C51 1.382 . S
C51 C50 1.382 . S
C51 C52 1.392 . S
C51 N53 1.420 . S
C52 H46 0.930 . S
C52 C48 1.407 . S
C52 C51 1.392 . S
N53 C51 1.420 . S
N53 C54 1.244 . S
C54 N53 1.244 . S
H55 C58 0.929 . S
H56 C61 0.929 . S
H57 C63 0.930 . S
C58 H55 0.929 . S
C58 C59 1.398 . S
C58 C60 1.396 . S
C59 C58 1.398 . S
C59 C63 1.407 . S
C60 C58 1.396 . S
C60 C61 1.394 . S
C61 H56 0.929 . S
C61 C60 1.394 . S
C61 C62 1.382 . S
C62 C61 1.382 . S
C62 C63 1.392 . S
C62 N64 1.420 . S
C63 H57 0.930 . S
C63 C59 1.407 . S
C63 C62 1.392 . S
N64 C62 1.420 . S
N64 C65 1.244 . S
C65 N64 1.244 . S
H66 C69 0.929 . S
H67 C72 0.929 . S
H68 C74 0.930 . S
C69 H66 0.929 . S
C69 C70 1.398 . S
C69 C71 1.396 . S
C70 C69 1.398 . S
C70 C74 1.407 . S
C71 C69 1.396 . S
C71 C72 1.394 1_655 S
C72 H67 0.929 . S
C72 C71 1.394 1_455 S
C72 C73 1.382 1_455 S
C73 C72 1.382 1_655 S
C73 C74 1.392 . S
C73 N75 1.420 1_655 S
C74 H68 0.930 . S
C74 C70 1.407 . S
C74 C73 1.392 . S
N75 C73 1.420 1_455 S
N75 C76 1.244 . S
C76 N75 1.244 . S
H77 C80 0.929 . S
H78 C83 0.929 . S
H79 C85 0.930 . S
C80 H77 0.929 . S
C80 C81 1.398 . S
C80 C82 1.396 . S
C81 C80 1.398 . S
C81 C85 1.407 . S
C82 C80 1.396 . S
C82 C83 1.394 . S
C83 H78 0.929 . S
C83 C82 1.394 . S
C83 C84 1.382 . S
C84 C83 1.382 . S
C84 C85 1.392 . S
C84 N86 1.420 . S
C85 H79 0.930 . S
C85 C81 1.407 . S
C85 C84 1.392 . S
N86 C84 1.420 . S
N86 C87 1.244 . S
C87 N86 1.244 . S
H88 C91 0.929 . S
H89 C94 0.929 . S
H90 C96 0.930 . S
C91 H88 0.929 . S
C91 C92 1.398 . S
C91 C93 1.396 . S
C92 C91 1.398 . S
C92 C96 1.407 . S
C93 C91 1.396 . S
C93 C94 1.394 . S
C94 H89 0.929 . S
C94 C93 1.394 . S
C94 C95 1.382 . S
C95 C94 1.382 . S
C95 C96 1.392 . S
C95 N97 1.420 . S
C96 H90 0.930 . S
C96 C92 1.407 . S
C96 C95 1.392 . S
N97 C95 1.420 . S
N97 C98 1.244 . S
C98 N97 1.244 . S
H99 C102 0.929 . S
H100 C105 0.960 . S
H101 C107 0.930 . S
C102 H99 0.929 . S
C102 C103 1.398 . S
C102 C104 1.396 . S
C103 C102 1.398 . S
C103 C107 1.407 . S
C104 C102 1.396 . S
C104 C105 1.367 1_565 S
C105 H100 0.960 . S
C105 C104 1.367 1_545 S
C105 C106 1.379 1_545 S
C106 C105 1.379 1_565 S
C106 C107 1.392 . S
C106 N108 1.420 1_565 S
C107 H101 0.930 . S
C107 C103 1.407 . S
C107 C106 1.392 . S
N108 C106 1.420 1_545 S
N108 C109 1.244 . S
C109 N108 1.244 . S
H110 C113 0.929 . S
H111 C116 0.929 . S
H112 C118 0.930 . S
C113 H110 0.929 . S
C113 C114 1.398 . S
C113 C115 1.396 . S
C114 C113 1.398 . S
C114 C118 1.407 . S
C115 C113 1.396 . S
C115 C116 1.394 . S
C116 H111 0.929 . S
C116 C115 1.394 . S
C116 C117 1.382 . S
C117 C116 1.382 . S
C117 C118 1.392 . S
C117 N119 1.420 . S
C118 H112 0.930 . S
C118 C114 1.407 . S
C118 C117 1.392 . S
N119 C117 1.420 . S
N119 C120 1.244 . S
C120 N119 1.244 . S
H121 C124 0.929 . S
H122 C127 0.929 . S
H123 C129 0.930 . S
C124 H121 0.929 . S
C124 C125 1.398 . S
C124 C126 1.396 . S
C125 C124 1.398 . S
C125 C129 1.407 . S
C126 C124 1.396 . S
C126 C127 1.394 . S
C127 H122 0.929 . S
C127 C126 1.394 . S
C127 C128 1.382 . S
C128 C127 1.382 . S
C128 C129 1.392 . S
C128 N130 1.420 . S
C129 H123 0.930 . S
C129 C125 1.407 . S
C129 C128 1.392 . S
N130 C128 1.420 . S
N130 C131 1.244 . S
C131 N130 1.244 . S
H132 C135 0.929 . S
H133 C138 0.929 . S
H134 C140 0.930 . S
C135 H132 0.929 . S
C135 C136 1.398 . S
C135 C137 1.396 . S
C136 C135 1.398 . S
C136 C140 1.407 . S
C137 C135 1.396 . S
C137 C138 1.394 . S
C138 H133 0.929 . S
C138 C137 1.394 . S
C138 C139 1.382 . S
C139 C138 1.382 . S
C139 C140 1.392 . S
C139 N141 1.420 . S
C140 H134 0.930 . S
C140 C136 1.407 . S
C140 C139 1.392 . S
N141 C139 1.420 . S
N141 C142 1.244 . S
C142 N141 1.244 . S
H143 C146 0.929 . S
H144 C149 0.929 . S
H145 C151 0.930 . S
C146 H143 0.929 . S
C146 C147 1.398 . S
C146 C148 1.396 . S
C147 C146 1.398 . S
C147 C151 1.407 . S
C148 C146 1.396 . S
C148 C149 1.394 1_556 S
C149 H144 0.929 . S
C149 C148 1.394 1_554 S
C149 C150 1.382 . S
C150 C149 1.382 . S
C150 C151 1.392 1_554 S
C150 N152 1.420 . S
C151 H145 0.930 . S
C151 C147 1.407 . S
C151 C150 1.392 1_556 S
N152 C150 1.420 . S
N152 C153 1.244 . S
C153 N152 1.244 . S
H154 C157 0.929 . S
H155 C160 0.929 . S
H156 C162 0.930 . S
C157 H154 0.929 . S
C157 C158 1.398 . S
C157 C159 1.396 . S
C158 C157 1.398 . S
C158 C162 1.407 . S
C159 C157 1.396 . S
C159 C160 1.394 . S
C160 H155 0.929 . S
C160 C159 1.394 . S
C160 C161 1.382 . S
C161 C160 1.382 . S
C161 C162 1.392 . S
C161 N163 1.420 . S
C162 H156 0.930 . S
C162 C158 1.407 . S
C162 C161 1.392 . S
N163 C161 1.420 . S
N163 C164 1.244 . S
C164 N163 1.244 . S
H165 C168 0.929 . S
H166 C171 0.929 . S
H167 C173 0.930 1_565 S
C168 H165 0.929 . S
C168 C169 1.398 1_554 S
C168 C170 1.396 1_554 S
C169 C168 1.398 1_556 S
C169 C173 1.407 . S
C170 C168 1.396 1_556 S
C170 C171 1.394 . S
C171 H166 0.929 . S
C171 C170 1.394 . S
C171 C172 1.382 . S
C172 C171 1.382 . S
C172 C173 1.392 . S
C172 N174 1.420 . S
C173 H167 0.930 1_545 S
C173 C169 1.407 . S
C173 C172 1.392 . S
N174 C172 1.420 . S
N174 C175 1.244 . S
C175 N174 1.244 . S
Li176 N193 1.990 . S
Li176 O236 1.956 . S
Li176 O237 1.970 . S
Li176 O238 1.961 . S
Li177 N201 1.990 . S
Li177 O236 1.970 . S
Li177 O237 1.956 . S
Li177 O239 1.961 . S
Li178 N223 1.990 1_554 S
Li178 O236 1.961 . S
Li178 O238 1.956 . S
Li178 O239 1.970 . S
Li179 N229 1.990 . S
Li179 O237 1.961 . S
Li179 O238 1.970 . S
Li179 O239 1.956 . S
C180 C182 1.348 . S
C180 C183 1.356 . S
C180 O236 1.325 . S
N181 C184 1.314 . S
N181 C185 1.255 1_554 S
C182 C180 1.348 . S
C182 C184 1.353 . S
C182 H240 0.929 . S
C183 C180 1.356 . S
C183 C185 1.357 1_554 S
C183 H241 0.930 1_554 S
C184 N181 1.314 . S
C184 C182 1.353 . S
C184 H242 0.930 . S
C185 N181 1.255 1_556 S
C185 C183 1.357 1_556 S
C185 H243 0.960 . S
C186 C189 1.348 . S
C186 C190 1.356 . S
C186 O237 1.325 . S
C187 N188 1.279 . S
C187 C190 1.358 . S
C187 H244 0.930 . S
N188 C187 1.279 . S
N188 C191 1.314 . S
C189 C186 1.348 . S
C189 C191 1.353 . S
C189 H245 0.929 . S
C190 C186 1.356 . S
C190 C187 1.358 . S
C190 H246 0.930 . S
C191 N188 1.314 . S
C191 C189 1.353 . S
C191 H247 0.930 . S
C192 N193 1.314 . S
C192 C197 1.353 . S
C192 H198 0.930 . S
N193 Li176 1.990 . S
N193 C192 1.314 . S
N193 C195 1.279 . S
C194 C195 1.358 . S
C194 C196 1.356 . S
C194 H248 0.930 . S
C195 N193 1.279 . S
C195 C194 1.358 . S
C195 H199 0.930 . S
C196 C194 1.356 . S
C196 C197 1.348 . S
C197 C192 1.353 . S
C197 C196 1.348 . S
C197 H249 0.929 . S
H198 C192 0.930 . S
H199 C195 0.930 . S
C200 N201 1.314 . S
C200 C202 1.353 . S
C200 H206 0.930 . S
N201 Li177 1.990 . S
N201 C200 1.314 . S
N201 C204 1.279 . S
C202 C200 1.353 . S
C202 C205 1.348 . S
C202 H250 0.929 . S
C203 C204 1.358 . S
C203 C205 1.356 . S
C203 H251 0.930 . S
C204 N201 1.279 . S
C204 C203 1.358 . S
C204 H207 0.930 . S
C205 C202 1.348 . S
C205 C203 1.356 . S
H206 C200 0.930 . S
H207 C204 0.930 . S
C208 C210 1.348 . S
C208 C211 1.356 . S
C208 O238 1.325 1_556 S
N209 C212 1.314 . S
N209 C213 1.279 . S
C210 C208 1.348 . S
C210 C212 1.353 . S
C210 H252 0.929 . S
C211 C208 1.356 . S
C211 C213 1.358 . S
C211 H253 0.930 . S
C212 N209 1.314 . S
C212 C210 1.353 . S
C212 H254 0.930 . S
C213 N209 1.279 . S
C213 C211 1.358 . S
C213 H255 0.930 . S
C214 C215 1.348 . S
C214 C216 1.356 . S
C214 O239 1.325 . S
C215 C214 1.348 . S
C215 C217 1.353 . S
C215 H256 0.929 . S
C216 C214 1.356 . S
C216 C218 1.358 . S
C216 H257 0.930 . S
C217 C215 1.353 . S
C217 N219 1.314 . S
C217 H258 0.930 . S
C218 C216 1.358 . S
C218 N219 1.279 . S
C218 H259 0.930 . S
N219 C217 1.314 . S
N219 C218 1.279 . S
C220 C222 1.353 . S
C220 N223 1.314 . S
C220 H226 0.930 . S
C221 N223 1.279 . S
C221 C224 1.358 . S
C221 H227 0.930 . S
C222 C220 1.353 . S
C222 C225 1.348 . S
C222 H260 0.929 . S
N223 Li178 1.990 1_556 S
N223 C220 1.314 . S
N223 C221 1.279 . S
C224 C221 1.358 . S
C224 C225 1.356 . S
C224 H261 0.930 . S
C225 C222 1.348 . S
C225 C224 1.356 . S
H226 C220 0.930 . S
H227 C221 0.930 . S
C228 N229 1.314 . S
C228 C230 1.353 . S
C228 H234 0.930 . S
N229 Li179 1.990 . S
N229 C228 1.314 . S
N229 C232 1.279 . S
C230 C228 1.353 . S
C230 C233 1.348 . S
C230 H262 0.929 . S
C231 C232 1.358 . S
C231 C233 1.356 . S
C231 H263 0.930 . S
C232 N229 1.279 . S
C232 C231 1.358 . S
C232 H235 0.930 . S
C233 C230 1.348 . S
C233 C231 1.356 . S
H234 C228 0.930 . S
H235 C232 0.930 . S
O236 Li176 1.956 . S
O236 Li177 1.970 . S
O236 Li178 1.961 . S
O236 C180 1.325 . S
O237 Li176 1.970 . S
O237 Li177 1.956 . S
O237 Li179 1.961 . S
O237 C186 1.325 . S
O238 Li176 1.961 . S
O238 Li178 1.956 . S
O238 Li179 1.970 . S
O238 C208 1.325 1_554 S
O239 Li177 1.961 . S
O239 Li178 1.970 . S
O239 Li179 1.956 . S
O239 C214 1.325 . S
H240 C182 0.929 . S
H241 C183 0.930 1_556 S
H242 C184 0.930 . S
H243 C185 0.960 . S
H244 C187 0.930 . S
H245 C189 0.929 . S
H246 C190 0.930 . S
H247 C191 0.930 . S
H248 C194 0.930 . S
H249 C197 0.929 . S
H250 C202 0.929 . S
H251 C203 0.930 . S
H252 C210 0.929 . S
H253 C211 0.930 . S
H254 C212 0.930 . S
H255 C213 0.930 . S
H256 C215 0.929 . S
H257 C216 0.930 . S
H258 C217 0.930 . S
H259 C218 0.930 . S
H260 C222 0.929 . S
H261 C224 0.930 . S
H262 C230 0.929 . S
H263 C231 0.930 . S
Li264 N281 1.990 . S
Li264 O324 1.956 . S
Li264 O325 1.970 . S
Li264 O326 1.961 . S
Li265 N289 1.990 . S
Li265 O324 1.970 . S
Li265 O325 1.956 . S
Li265 O327 1.961 . S
Li266 N311 1.990 . S
Li266 O324 1.961 . S
Li266 O326 1.956 . S
Li266 O327 1.970 . S
Li267 N317 1.990 . S
Li267 O325 1.961 . S
Li267 O326 1.970 . S
Li267 O327 1.956 . S
C268 C270 1.348 . S
C268 C271 1.356 . S
C268 O324 1.325 . S
N269 C272 1.314 . S
N269 C273 1.279 . S
C270 C268 1.348 . S
C270 C272 1.353 . S
C270 H328 0.929 . S
C271 C268 1.356 . S
C271 C273 1.358 . S
C271 H329 0.930 . S
C272 N269 1.314 . S
C272 C270 1.353 . S
C272 H330 0.930 . S
C273 N269 1.279 . S
C273 C271 1.358 . S
C273 H331 0.930 . S
C274 C277 1.348 . S
C274 C278 1.356 . S
C274 O325 1.325 . S
C275 N276 1.279 . S
C275 C278 1.358 . S
C275 H332 0.930 . S
N276 C275 1.279 . S
N276 C279 1.314 . S
C277 C274 1.348 . S
C277 C279 1.353 . S
C277 H333 0.929 . S
C278 C274 1.356 . S
C278 C275 1.358 . S
C278 H334 0.930 . S
C279 N276 1.314 . S
C279 C277 1.353 . S
C279 H335 0.930 . S
C280 N281 1.314 . S
C280 C285 1.353 . S
C280 H286 0.930 . S
N281 Li264 1.990 . S
N281 C280 1.314 . S
N281 C283 1.279 . S
C282 C283 1.358 . S
C282 C284 1.356 . S
C282 H336 0.930 . S
C283 N281 1.279 . S
C283 C282 1.358 . S
C283 H287 0.930 . S
C284 C282 1.356 . S
C284 C285 1.348 . S
C285 C280 1.353 . S
C285 C284 1.348 . S
C285 H337 0.929 . S
H286 C280 0.930 . S
H287 C283 0.930 . S
C288 N289 1.314 . S
C288 C290 1.353 . S
C288 H294 0.930 . S
N289 Li265 1.990 . S
N289 C288 1.314 . S
N289 C292 1.279 . S
C290 C288 1.353 . S
C290 C293 1.348 . S
C290 H338 0.929 . S
C291 C292 1.358 . S
C291 C293 1.356 . S
C291 H339 0.930 . S
C292 N289 1.279 . S
C292 C291 1.358 . S
C292 H295 0.930 . S
C293 C290 1.348 . S
C293 C291 1.356 . S
H294 C288 0.930 . S
H295 C292 0.930 . S
C296 C298 1.348 . S
C296 C299 1.356 . S
C296 O326 1.325 . S
N297 C300 1.314 . S
N297 C301 1.279 . S
C298 C296 1.348 . S
C298 C300 1.353 . S
C298 H340 0.929 . S
C299 C296 1.356 . S
C299 C301 1.358 . S
C299 H341 0.930 . S
C300 N297 1.314 . S
C300 C298 1.353 . S
C300 H342 0.930 . S
C301 N297 1.279 . S
C301 C299 1.358 . S
C301 H343 0.930 . S
C302 C303 1.348 . S
C302 C304 1.356 . S
C302 O327 1.325 . S
C303 C302 1.348 . S
C303 C305 1.353 . S
C303 H344 0.929 . S
C304 C302 1.356 . S
C304 C306 1.358 . S
C304 H345 0.930 . S
C305 C303 1.353 . S
C305 N307 1.314 . S
C305 H346 0.930 . S
C306 C304 1.358 . S
C306 N307 1.279 . S
C306 H347 0.930 . S
N307 C305 1.314 . S
N307 C306 1.279 . S
C308 C310 1.353 . S
C308 N311 1.314 . S
C308 H314 0.930 . S
C309 N311 1.279 . S
C309 C312 1.358 . S
C309 H315 0.930 . S
C310 C308 1.353 . S
C310 C313 1.348 . S
C310 H348 0.929 . S
N311 Li266 1.990 . S
N311 C308 1.314 . S
N311 C309 1.279 . S
C312 C309 1.358 . S
C312 C313 1.356 . S
C312 H349 0.930 . S
C313 C310 1.348 . S
C313 C312 1.356 . S
H314 C308 0.930 . S
H315 C309 0.930 . S
C316 N317 1.314 . S
C316 C318 1.353 . S
C316 H322 0.930 . S
N317 Li267 1.990 . S
N317 C316 1.314 . S
N317 C320 1.279 . S
C318 C316 1.353 . S
C318 C321 1.348 . S
C318 H350 0.929 . S
C319 C320 1.358 . S
C319 C321 1.356 . S
C319 H351 0.930 . S
C320 N317 1.279 . S
C320 C319 1.358 . S
C320 H323 0.930 . S
C321 C318 1.348 . S
C321 C319 1.356 . S
H322 C316 0.930 . S
H323 C320 0.930 . S
O324 Li264 1.956 . S
O324 Li265 1.970 . S
O324 Li266 1.961 . S
O324 C268 1.325 . S
O325 Li264 1.970 . S
O325 Li265 1.956 . S
O325 Li267 1.961 . S
O325 C274 1.325 . S
O326 Li264 1.961 . S
O326 Li266 1.956 . S
O326 Li267 1.970 . S
O326 C296 1.325 . S
O327 Li265 1.961 . S
O327 Li266 1.970 . S
O327 Li267 1.956 . S
O327 C302 1.325 . S
H328 C270 0.929 . S
H329 C271 0.930 . S
H330 C272 0.930 . S
H331 C273 0.930 . S
H332 C275 0.930 . S
H333 C277 0.929 . S
H334 C278 0.930 . S
H335 C279 0.930 . S
H336 C282 0.930 . S
H337 C285 0.929 . S
H338 C290 0.929 . S
H339 C291 0.930 . S
H340 C298 0.929 . S
H341 C299 0.930 . S
H342 C300 0.930 . S
H343 C301 0.930 . S
H344 C303 0.929 . S
H345 C304 0.930 . S
H346 C305 0.930 . S
H347 C306 0.930 . S
H348 C310 0.929 . S
H349 C312 0.930 . S
H350 C318 0.929 . S
H351 C319 0.930 . S
Li352 N369 1.990 . S
Li352 O412 1.960 1_556 S
Li352 O413 1.970 1_556 S
Li352 O414 1.961 . S
Li353 N377 1.990 . S
Li353 O412 2.000 . S
Li353 O413 1.956 . S
Li353 O415 1.961 . S
Li354 N399 1.990 . S
Li354 O412 1.936 1_556 S
Li354 O414 1.956 . S
Li354 O415 1.970 1_556 S
Li355 N405 1.990 . S
Li355 O413 1.961 . S
Li355 O414 1.970 1_554 S
Li355 O415 1.956 . S
C356 C358 1.318 1_556 S
C356 C359 1.391 . S
C356 O412 1.316 1_556 S
N357 C360 1.314 1_556 S
N357 C361 1.279 . S
C358 C356 1.318 1_554 S
C358 C360 1.353 . S
C358 H416 0.929 . S
C359 C356 1.391 . S
C359 C361 1.358 . S
C359 H417 0.930 . S
C360 N357 1.314 1_554 S
C360 C358 1.353 . S
C360 H418 0.930 . S
C361 N357 1.279 . S
C361 C359 1.358 . S
C361 H419 0.930 . S
C362 C365 1.348 . S
C362 C366 1.356 . S
C362 O413 1.325 . S
C363 N364 1.279 . S
C363 C366 1.358 . S
C363 H420 0.930 . S
N364 C363 1.279 . S
N364 C367 1.314 . S
C365 C362 1.348 . S
C365 C367 1.353 . S
C365 H421 0.929 . S
C366 C362 1.356 . S
C366 C363 1.358 . S
C366 H422 0.930 . S
C367 N364 1.314 . S
C367 C365 1.353 . S
C367 H423 0.930 . S
C368 N369 1.314 . S
C368 C373 1.353 . S
C368 H374 0.930 . S
N369 Li352 1.990 . S
N369 C368 1.314 . S
N369 C371 1.279 . S
C370 C371 1.358 . S
C370 C372 1.356 . S
C370 H424 0.930 . S
C371 N369 1.279 . S
C371 C370 1.358 . S
C371 H375 0.930 1_556 S
C372 C370 1.356 . S
C372 C373 1.348 . S
C373 C368 1.353 . S
C373 C372 1.348 . S
C373 H425 0.929 . S
H374 C368 0.930 . S
H375 C371 0.930 1_554 S
C376 N377 1.314 . S
C376 C378 1.353 . S
C376 H382 0.930 . S
N377 Li353 1.990 . S
N377 C376 1.314 . S
N377 C380 1.279 . S
C378 C376 1.353 . S
C378 C381 1.348 . S
C378 H426 0.929 . S
C379 C380 1.358 . S
C379 C381 1.356 . S
C379 H427 0.930 . S
C380 N377 1.279 . S
C380 C379 1.358 . S
C380 H383 0.930 . S
C381 C378 1.348 . S
C381 C379 1.356 . S
H382 C376 0.930 . S
H383 C380 0.930 . S
C384 C386 1.348 . S
C384 C387 1.356 . S
C384 O414 1.325 . S
N385 C388 1.314 . S
N385 C389 1.279 . S
C386 C384 1.348 . S
C386 C388 1.353 . S
C386 H428 0.929 . S
C387 C384 1.356 . S
C387 C389 1.358 . S
C387 H429 0.930 . S
C388 N385 1.314 . S
C388 C386 1.353 . S
C388 H430 0.930 . S
C389 N385 1.279 . S
C389 C387 1.358 . S
C389 H431 0.930 . S
C390 C391 1.348 1_554 S
C390 C392 1.356 . S
C390 O415 1.325 . S
C391 C390 1.348 1_556 S
C391 C393 1.353 . S
C391 H432 0.929 . S
C392 C390 1.356 . S
C392 C394 1.358 . S
C392 H433 0.930 . S
C393 C391 1.353 . S
C393 N395 1.314 1_556 S
C393 H434 0.930 . S
C394 C392 1.358 . S
C394 N395 1.279 . S
C394 H435 0.930 . S
N395 C393 1.314 1_554 S
N395 C394 1.279 . S
C396 C398 1.353 . S
C396 N399 1.314 . S
C396 H402 0.930 . S
C397 N399 1.279 . S
C397 C400 1.358 . S
C397 H403 0.930 . S
C398 C396 1.353 . S
C398 C401 1.348 . S
C398 H436 0.929 . S
N399 Li354 1.990 . S
N399 C396 1.314 . S
N399 C397 1.279 . S
C400 C397 1.358 . S
C400 C401 1.356 . S
C400 H437 0.930 . S
C401 C398 1.348 . S
C401 C400 1.356 . S
H402 C396 0.930 . S
H403 C397 0.930 . S
C404 N405 1.314 . S
C404 C406 1.353 . S
C404 H410 0.930 . S
N405 Li355 1.990 . S
N405 C404 1.314 . S
N405 C408 1.279 . S
C406 C404 1.353 . S
C406 C409 1.348 . S
C406 H438 0.929 . S
C407 C408 1.358 . S
C407 C409 1.356 . S
C407 H439 0.930 . S
C408 N405 1.279 . S
C408 C407 1.358 . S
C408 H411 0.930 . S
C409 C406 1.348 . S
C409 C407 1.356 . S
H410 C404 0.930 . S
H411 C408 0.930 . S
O412 Li352 1.960 1_554 S
O412 Li353 2.000 . S
O412 Li354 1.936 1_554 S
O412 C356 1.316 1_554 S
O413 Li352 1.970 1_554 S
O413 Li353 1.956 . S
O413 Li355 1.961 . S
O413 C362 1.325 . S
O414 Li352 1.961 . S
O414 Li354 1.956 . S
O414 Li355 1.970 1_556 S
O414 C384 1.325 . S
O415 Li353 1.961 . S
O415 Li354 1.970 1_554 S
O415 Li355 1.956 . S
O415 C390 1.325 . S
H416 C358 0.929 . S
H417 C359 0.930 . S
H418 C360 0.930 . S
H419 C361 0.930 . S
H420 C363 0.930 . S
H421 C365 0.929 . S
H422 C366 0.930 . S
H423 C367 0.930 . S
H424 C370 0.930 . S
H425 C373 0.929 . S
H426 C378 0.929 . S
H427 C379 0.930 . S
H428 C386 0.929 . S
H429 C387 0.930 . S
H430 C388 0.930 . S
H431 C389 0.930 . S
H432 C391 0.929 . S
H433 C392 0.930 . S
H434 C393 0.930 . S
H435 C394 0.930 . S
H436 C398 0.929 . S
H437 C400 0.930 . S
H438 C406 0.929 . S
H439 C407 0.930 . S
Li440 N457 1.990 . S
Li440 O500 1.956 . S
Li440 O501 1.970 . S
Li440 O502 1.961 . S
Li441 N465 1.990 . S
Li441 O500 1.970 . S
Li441 O501 1.956 . S
Li441 O503 1.961 1_545 S
Li442 N487 1.990 . S
Li442 O500 1.961 . S
Li442 O502 1.956 . S
Li442 O503 1.970 1_545 S
Li443 N493 1.990 . S
Li443 O501 1.961 1_565 S
Li443 O502 1.970 1_565 S
Li443 O503 1.956 . S
C444 C446 1.348 . S
C444 C447 1.356 . S
C444 O500 1.325 . S
N445 C448 1.314 . S
N445 C449 1.279 . S
C446 C444 1.348 . S
C446 C448 1.353 . S
C446 H504 0.929 . S
C447 C444 1.356 . S
C447 C449 1.358 . S
C447 H505 0.930 . S
C448 N445 1.314 . S
C448 C446 1.353 . S
C448 H506 0.930 . S
C449 N445 1.279 . S
C449 C447 1.358 . S
C449 H507 0.930 . S
C450 C453 1.348 . S
C450 C454 1.356 1_545 S
C450 O501 1.325 . S
C451 N452 1.279 1_565 S
C451 C454 1.358 . S
C451 H508 0.930 . S
N452 C451 1.279 1_545 S
N452 C455 1.314 . S
C453 C450 1.348 . S
C453 C455 1.353 . S
C453 H509 0.929 . S
C454 C450 1.356 1_565 S
C454 C451 1.358 . S
C454 H510 0.930 . S
C455 N452 1.314 . S
C455 C453 1.353 . S
C455 H511 0.930 . S
C456 N457 1.314 . S
C456 C461 1.353 . S
C456 H462 0.930 . S
N457 Li440 1.990 . S
N457 C456 1.314 . S
N457 C459 1.279 . S
C458 C459 1.358 . S
C458 C460 1.356 . S
C458 H512 0.930 . S
C459 N457 1.279 . S
C459 C458 1.358 . S
C459 H463 0.930 . S
C460 C458 1.356 . S
C460 C461 1.348 . S
C461 C456 1.353 . S
C461 C460 1.348 . S
C461 H513 0.929 . S
H462 C456 0.930 . S
H463 C459 0.930 . S
C464 N465 1.314 . S
C464 C466 1.362 . S
C464 H470 0.930 . S
N465 Li441 1.990 . S
N465 C464 1.314 . S
N465 C468 1.279 . S
C466 C464 1.362 . S
C466 C469 1.353 . S
C466 H514 0.915 1_655 S
C467 C468 1.358 . S
C467 C469 1.356 . S
C467 H515 0.930 . S
C468 N465 1.279 . S
C468 C467 1.358 . S
C468 H471 0.930 . S
C469 C466 1.353 . S
C469 C467 1.356 . S
H470 C464 0.930 . S
H471 C468 0.930 . S
C472 C474 1.375 . S
C472 C475 1.356 . S
C472 O502 1.325 . S
N473 C476 1.314 . S
N473 C477 1.279 . S
C474 C472 1.375 . S
C474 C476 1.365 . S
C474 H516 0.891 1_545 S
C475 C472 1.356 . S
C475 C477 1.358 . S
C475 H517 0.930 . S
C476 N473 1.314 . S
C476 C474 1.365 . S
C476 H518 0.930 1_545 S
C477 N473 1.279 . S
C477 C475 1.358 . S
C477 H519 0.930 . S
C478 C479 1.348 . S
C478 C480 1.356 . S
C478 O503 1.325 . S
C479 C478 1.348 . S
C479 C481 1.353 . S
C479 H520 0.929 . S
C480 C478 1.356 . S
C480 C482 1.358 . S
C480 H521 0.930 . S
C481 C479 1.353 . S
C481 N483 1.314 . S
C481 H522 0.930 . S
C482 C480 1.358 . S
C482 N483 1.279 . S
C482 H523 0.930 . S
N483 C481 1.314 . S
N483 C482 1.279 . S
C484 C486 1.342 1_655 S
C484 N487 1.314 . S
C484 H490 0.930 . S
C485 N487 1.279 . S
C485 C488 1.358 . S
C485 H491 0.930 . S
C486 C484 1.342 1_455 S
C486 C489 1.342 1_455 S
C486 H524 0.946 . S
N487 Li442 1.990 . S
N487 C484 1.314 . S
N487 C485 1.279 . S
C488 C485 1.358 . S
C488 C489 1.356 . S
C488 H525 0.930 . S
C489 C486 1.342 1_655 S
C489 C488 1.356 . S
H490 C484 0.930 . S
H491 C485 0.930 . S
C492 N493 1.314 . S
C492 C494 1.353 . S
C492 H498 0.930 . S
N493 Li443 1.990 . S
N493 C492 1.314 . S
N493 C496 1.279 . S
C494 C492 1.353 . S
C494 C497 1.348 . S
C494 H526 0.929 . S
C495 C496 1.358 . S
C495 C497 1.356 . S
C495 H527 0.930 . S
C496 N493 1.279 . S
C496 C495 1.358 . S
C496 H499 0.930 . S
C497 C494 1.348 . S
C497 C495 1.356 . S
H498 C492 0.930 . S
H499 C496 0.930 . S
O500 Li440 1.956 . S
O500 Li441 1.970 . S
O500 Li442 1.961 . S
O500 C444 1.325 . S
O501 Li440 1.970 . S
O501 Li441 1.956 . S
O501 Li443 1.961 1_545 S
O501 C450 1.325 . S
O502 Li440 1.961 . S
O502 Li442 1.956 . S
O502 Li443 1.970 1_545 S
O502 C472 1.325 . S
O503 Li441 1.961 1_565 S
O503 Li442 1.970 1_565 S
O503 Li443 1.956 . S
O503 C478 1.325 . S
H504 C446 0.929 . S
H505 C447 0.930 . S
H506 C448 0.930 . S
H507 C449 0.930 . S
H508 C451 0.930 . S
H509 C453 0.929 . S
H510 C454 0.930 . S
H511 C455 0.930 . S
H512 C458 0.930 . S
H513 C461 0.929 . S
H514 C466 0.915 1_455 S
H515 C467 0.930 . S
H516 C474 0.891 1_565 S
H517 C475 0.930 . S
H518 C476 0.930 1_565 S
H519 C477 0.930 . S
H520 C479 0.929 . S
H521 C480 0.930 . S
H522 C481 0.930 . S
H523 C482 0.930 . S
H524 C486 0.946 . S
H525 C488 0.930 . S
H526 C494 0.929 . S
H527 C495 0.930 . S
Li528 N545 1.990 . S
Li528 O588 1.956 . S
Li528 O589 1.970 . S
Li528 O590 1.961 . S
Li529 N553 1.990 . S
Li529 O588 1.970 . S
Li529 O589 1.956 . S
Li529 O591 1.961 . S
Li530 N575 1.990 . S
Li530 O588 1.961 . S
Li530 O590 1.956 . S
Li530 O591 1.970 . S
Li531 N581 1.990 . S
Li531 O589 1.961 . S
Li531 O590 1.970 . S
Li531 O591 1.956 . S
C532 C534 1.348 . S
C532 C535 1.356 . S
C532 O588 1.325 . S
N533 C536 1.314 . S
N533 C537 1.279 . S
C534 C532 1.348 . S
C534 C536 1.353 . S
C534 H592 0.929 . S
C535 C532 1.356 . S
C535 C537 1.358 . S
C535 H593 0.930 . S
C536 N533 1.314 . S
C536 C534 1.353 . S
C536 H594 0.930 . S
C537 N533 1.279 . S
C537 C535 1.358 . S
C537 H595 0.930 . S
C538 C541 1.348 . S
C538 C542 1.356 . S
C538 O589 1.325 . S
C539 N540 1.279 . S
C539 C542 1.358 . S
C539 H596 0.930 . S
N540 C539 1.279 . S
N540 C543 1.314 . S
C541 C538 1.348 . S
C541 C543 1.353 . S
C541 H597 0.929 . S
C542 C538 1.356 . S
C542 C539 1.358 . S
C542 H598 0.930 . S
C543 N540 1.314 . S
C543 C541 1.353 . S
C543 H599 0.930 . S
C544 N545 1.314 . S
C544 C549 1.353 . S
C544 H550 0.930 . S
N545 Li528 1.990 . S
N545 C544 1.314 . S
N545 C547 1.279 . S
C546 C547 1.358 . S
C546 C548 1.356 . S
C546 H600 0.930 . S
C547 N545 1.279 . S
C547 C546 1.358 . S
C547 H551 0.930 . S
C548 C546 1.356 . S
C548 C549 1.348 . S
C549 C544 1.353 . S
C549 C548 1.348 . S
C549 H601 0.929 . S
H550 C544 0.930 . S
H551 C547 0.930 . S
C552 N553 1.314 . S
C552 C554 1.353 . S
C552 H558 0.930 . S
N553 Li529 1.990 . S
N553 C552 1.314 . S
N553 C556 1.279 . S
C554 C552 1.353 . S
C554 C557 1.348 . S
C554 H602 0.929 . S
C555 C556 1.358 . S
C555 C557 1.356 . S
C555 H603 0.930 . S
C556 N553 1.279 . S
C556 C555 1.358 . S
C556 H559 0.930 . S
C557 C554 1.348 . S
C557 C555 1.356 . S
H558 C552 0.930 . S
H559 C556 0.930 . S
C560 C562 1.348 . S
C560 C563 1.356 . S
C560 O590 1.325 . S
N561 C564 1.314 . S
N561 C565 1.279 . S
C562 C560 1.348 . S
C562 C564 1.353 . S
C562 H604 0.929 . S
C563 C560 1.356 . S
C563 C565 1.358 . S
C563 H605 0.930 . S
C564 N561 1.314 . S
C564 C562 1.353 . S
C564 H606 0.930 . S
C565 N561 1.279 . S
C565 C563 1.358 . S
C565 H607 0.930 . S
C566 C567 1.348 . S
C566 C568 1.356 . S
C566 O591 1.325 . S
C567 C566 1.348 . S
C567 C569 1.353 . S
C567 H608 0.929 . S
C568 C566 1.356 . S
C568 C570 1.358 . S
C568 H609 0.930 . S
C569 C567 1.353 . S
C569 N571 1.314 . S
C569 H610 0.930 . S
C570 C568 1.358 . S
C570 N571 1.279 . S
C570 H611 0.930 . S
N571 C569 1.314 . S
N571 C570 1.279 . S
C572 C574 1.353 . S
C572 N575 1.314 . S
C572 H578 0.930 . S
C573 N575 1.279 . S
C573 C576 1.358 . S
C573 H579 0.930 . S
C574 C572 1.353 . S
C574 C577 1.348 . S
C574 H612 0.929 . S
N575 Li530 1.990 . S
N575 C572 1.314 . S
N575 C573 1.279 . S
C576 C573 1.358 . S
C576 C577 1.356 . S
C576 H613 0.930 . S
C577 C574 1.348 . S
C577 C576 1.356 . S
H578 C572 0.930 . S
H579 C573 0.930 . S
C580 N581 1.314 . S
C580 C582 1.353 . S
C580 H586 0.930 . S
N581 Li531 1.990 . S
N581 C580 1.314 . S
N581 C584 1.279 . S
C582 C580 1.353 . S
C582 C585 1.348 . S
C582 H614 0.929 . S
C583 C584 1.358 . S
C583 C585 1.356 . S
C583 H615 0.930 . S
C584 N581 1.279 . S
C584 C583 1.358 . S
C584 H587 0.930 . S
C585 C582 1.348 . S
C585 C583 1.356 . S
H586 C580 0.930 . S
H587 C584 0.930 . S
O588 Li528 1.956 . S
O588 Li529 1.970 . S
O588 Li530 1.961 . S
O588 C532 1.325 . S
O589 Li528 1.970 . S
O589 Li529 1.956 . S
O589 Li531 1.961 . S
O589 C538 1.325 . S
O590 Li528 1.961 . S
O590 Li530 1.956 . S
O590 Li531 1.970 . S
O590 C560 1.325 . S
O591 Li529 1.961 . S
O591 Li530 1.970 . S
O591 Li531 1.956 . S
O591 C566 1.325 . S
H592 C534 0.929 . S
H593 C535 0.930 . S
H594 C536 0.930 . S
H595 C537 0.930 . S
H596 C539 0.930 . S
H597 C541 0.929 . S
H598 C542 0.930 . S
H599 C543 0.930 . S
H600 C546 0.930 . S
H601 C549 0.929 . S
H602 C554 0.929 . S
H603 C555 0.930 . S
H604 C562 0.929 . S
H605 C563 0.930 . S
H606 C564 0.930 . S
H607 C565 0.930 . S
H608 C567 0.929 . S
H609 C568 0.930 . S
H610 C569 0.930 . S
H611 C570 0.930 . S
H612 C574 0.929 . S
H613 C576 0.930 . S
H614 C582 0.929 . S
H615 C583 0.930 . S
Li616 N633 1.990 . S
Li616 O676 1.956 . S
Li616 O677 1.970 . S
Li616 O678 1.961 . S
Li617 N641 1.990 . S
Li617 O676 1.970 . S
Li617 O677 1.956 . S
Li617 O679 1.961 . S
Li618 N663 1.990 . S
Li618 O676 1.961 . S
Li618 O678 1.956 . S
Li618 O679 1.970 . S
Li619 N669 1.990 . S
Li619 O677 1.961 . S
Li619 O678 1.970 . S
Li619 O679 1.956 . S
C620 C622 1.348 . S
C620 C623 1.356 . S
C620 O676 1.325 . S
N621 C624 1.314 . S
N621 C625 1.279 . S
C622 C620 1.348 . S
C622 C624 1.353 . S
C622 H680 0.929 . S
C623 C620 1.356 . S
C623 C625 1.358 . S
C623 H681 0.930 . S
C624 N621 1.314 . S
C624 C622 1.353 . S
C624 H682 0.930 . S
C625 N621 1.279 . S
C625 C623 1.358 . S
C625 H683 0.930 . S
C626 C629 1.348 . S
C626 C630 1.356 . S
C626 O677 1.325 . S
C627 N628 1.279 . S
C627 C630 1.358 . S
C627 H684 0.930 . S
N628 C627 1.279 . S
N628 C631 1.314 . S
C629 C626 1.348 . S
C629 C631 1.353 . S
C629 H685 0.929 . S
C630 C626 1.356 . S
C630 C627 1.358 . S
C630 H686 0.930 . S
C631 N628 1.314 . S
C631 C629 1.353 . S
C631 H687 0.930 . S
C632 N633 1.314 . S
C632 C637 1.353 . S
C632 H638 0.930 . S
N633 Li616 1.990 . S
N633 C632 1.314 . S
N633 C635 1.279 . S
C634 C635 1.358 . S
C634 C636 1.356 . S
C634 H688 0.930 . S
C635 N633 1.279 . S
C635 C634 1.358 . S
C635 H639 0.930 . S
C636 C634 1.356 . S
C636 C637 1.348 . S
C637 C632 1.353 . S
C637 C636 1.348 . S
C637 H689 0.929 . S
H638 C632 0.930 . S
H639 C635 0.930 . S
C640 N641 1.314 . S
C640 C642 1.353 . S
C640 H646 0.930 . S
N641 Li617 1.990 . S
N641 C640 1.314 . S
N641 C644 1.279 . S
C642 C640 1.353 . S
C642 C645 1.348 . S
C642 H690 0.929 . S
C643 C644 1.358 . S
C643 C645 1.356 . S
C643 H691 0.930 . S
C644 N641 1.279 . S
C644 C643 1.358 . S
C644 H647 0.930 . S
C645 C642 1.348 . S
C645 C643 1.356 . S
H646 C640 0.930 . S
H647 C644 0.930 . S
C648 C650 1.348 . S
C648 C651 1.356 . S
C648 O678 1.325 . S
N649 C652 1.314 . S
N649 C653 1.279 . S
C650 C648 1.348 . S
C650 C652 1.353 . S
C650 H692 0.929 . S
C651 C648 1.356 . S
C651 C653 1.358 . S
C651 H693 0.930 . S
C652 N649 1.314 . S
C652 C650 1.353 . S
C652 H694 0.930 . S
C653 N649 1.279 . S
C653 C651 1.358 . S
C653 H695 0.930 . S
C654 C655 1.348 . S
C654 C656 1.356 . S
C654 O679 1.325 . S
C655 C654 1.348 . S
C655 C657 1.353 . S
C655 H696 0.929 . S
C656 C654 1.356 . S
C656 C658 1.358 . S
C656 H697 0.930 . S
C657 C655 1.353 . S
C657 N659 1.314 . S
C657 H698 0.930 . S
C658 C656 1.358 . S
C658 N659 1.279 . S
C658 H699 0.930 . S
N659 C657 1.314 . S
N659 C658 1.279 . S
C660 C662 1.353 . S
C660 N663 1.314 . S
C660 H666 0.930 . S
C661 N663 1.279 . S
C661 C664 1.358 . S
C661 H667 0.930 . S
C662 C660 1.353 . S
C662 C665 1.348 . S
C662 H700 0.929 . S
N663 Li618 1.990 . S
N663 C660 1.314 . S
N663 C661 1.279 . S
C664 C661 1.358 . S
C664 C665 1.356 . S
C664 H701 0.930 . S
C665 C662 1.348 . S
C665 C664 1.356 . S
H666 C660 0.930 . S
H667 C661 0.930 . S
C668 N669 1.314 . S
C668 C670 1.353 . S
C668 H674 0.930 . S
N669 Li619 1.990 . S
N669 C668 1.314 . S
N669 C672 1.279 . S
C670 C668 1.353 . S
C670 C673 1.348 . S
C670 H702 0.929 . S
C671 C672 1.358 . S
C671 C673 1.356 . S
C671 H703 0.930 . S
C672 N669 1.279 . S
C672 C671 1.358 . S
C672 H675 0.930 . S
C673 C670 1.348 . S
C673 C671 1.356 . S
H674 C668 0.930 . S
H675 C672 0.930 . S
O676 Li616 1.956 . S
O676 Li617 1.970 . S
O676 Li618 1.961 . S
O676 C620 1.325 . S
O677 Li616 1.970 . S
O677 Li617 1.956 . S
O677 Li619 1.961 . S
O677 C626 1.325 . S
O678 Li616 1.961 . S
O678 Li618 1.956 . S
O678 Li619 1.970 . S
O678 C648 1.325 . S
O679 Li617 1.961 . S
O679 Li618 1.970 . S
O679 Li619 1.956 . S
O679 C654 1.325 . S
H680 C622 0.929 . S
H681 C623 0.930 . S
H682 C624 0.930 . S
H683 C625 0.930 . S
H684 C627 0.930 . S
H685 C629 0.929 . S
H686 C630 0.930 . S
H687 C631 0.930 . S
H688 C634 0.930 . S
H689 C637 0.929 . S
H690 C642 0.929 . S
H691 C643 0.930 . S
H692 C650 0.929 . S
H693 C651 0.930 . S
H694 C652 0.930 . S
H695 C653 0.930 . S
H696 C655 0.929 . S
H697 C656 0.930 . S
H698 C657 0.930 . S
H699 C658 0.930 . S
H700 C662 0.929 . S
H701 C664 0.930 . S
H702 C670 0.929 . S
H703 C671 0.930 . S
Li704 N721 1.990 . S
Li704 O764 1.956 . S
Li704 O765 1.970 . S
Li704 O766 1.961 . S
Li705 N729 1.990 . S
Li705 O764 1.970 . S
Li705 O765 1.956 . S
Li705 O767 1.961 . S
Li706 N751 1.990 . S
Li706 O764 1.961 . S
Li706 O766 1.956 . S
Li706 O767 1.970 . S
Li707 N757 1.990 . S
Li707 O765 1.961 . S
Li707 O766 1.970 . S
Li707 O767 1.956 . S
C708 C710 1.348 . S
C708 C711 1.356 . S
C708 O764 1.325 . S
N709 C712 1.314 . S
N709 C713 1.279 . S
C710 C708 1.348 . S
C710 C712 1.353 . S
C710 H768 0.929 . S
C711 C708 1.356 . S
C711 C713 1.358 . S
C711 H769 0.930 . S
C712 N709 1.314 . S
C712 C710 1.353 . S
C712 H770 0.930 . S
C713 N709 1.279 . S
C713 C711 1.358 . S
C713 H771 0.930 . S
C714 C717 1.348 . S
C714 C718 1.356 . S
C714 O765 1.325 . S
C715 N716 1.279 . S
C715 C718 1.358 . S
C715 H772 0.930 . S
N716 C715 1.279 . S
N716 C719 1.314 . S
C717 C714 1.348 . S
C717 C719 1.353 . S
C717 H773 0.929 . S
C718 C714 1.356 . S
C718 C715 1.358 . S
C718 H774 0.930 . S
C719 N716 1.314 . S
C719 C717 1.353 . S
C719 H775 0.930 . S
C720 N721 1.314 . S
C720 C725 1.353 . S
C720 H726 0.930 . S
N721 Li704 1.990 . S
N721 C720 1.314 . S
N721 C723 1.279 . S
C722 C723 1.358 . S
C722 C724 1.356 . S
C722 H776 0.930 . S
C723 N721 1.279 . S
C723 C722 1.358 . S
C723 H727 0.930 . S
C724 C722 1.356 . S
C724 C725 1.348 . S
C725 C720 1.353 . S
C725 C724 1.348 . S
C725 H777 0.929 . S
H726 C720 0.930 . S
H727 C723 0.930 . S
C728 N729 1.314 . S
C728 C730 1.353 . S
C728 H734 0.930 . S
N729 Li705 1.990 . S
N729 C728 1.314 . S
N729 C732 1.279 . S
C730 C728 1.353 . S
C730 C733 1.348 . S
C730 H778 0.929 . S
C731 C732 1.358 . S
C731 C733 1.356 . S
C731 H779 0.930 . S
C732 N729 1.279 . S
C732 C731 1.358 . S
C732 H735 0.930 . S
C733 C730 1.348 . S
C733 C731 1.356 . S
H734 C728 0.930 . S
H735 C732 0.930 . S
C736 C738 1.348 . S
C736 C739 1.356 . S
C736 O766 1.325 . S
N737 C740 1.314 . S
N737 C741 1.279 . S
C738 C736 1.348 . S
C738 C740 1.353 . S
C738 H780 0.929 . S
C739 C736 1.356 . S
C739 C741 1.358 . S
C739 H781 0.930 . S
C740 N737 1.314 . S
C740 C738 1.353 . S
C740 H782 0.930 . S
C741 N737 1.279 . S
C741 C739 1.358 . S
C741 H783 0.930 . S
C742 C743 1.348 . S
C742 C744 1.356 . S
C742 O767 1.325 . S
C743 C742 1.348 . S
C743 C745 1.353 . S
C743 H784 0.929 . S
C744 C742 1.356 . S
C744 C746 1.358 . S
C744 H785 0.930 . S
C745 C743 1.353 . S
C745 N747 1.314 . S
C745 H786 0.930 . S
C746 C744 1.358 . S
C746 N747 1.279 . S
C746 H787 0.930 . S
N747 C745 1.314 . S
N747 C746 1.279 . S
C748 C750 1.353 . S
C748 N751 1.314 . S
C748 H754 0.930 . S
C749 N751 1.279 . S
C749 C752 1.358 . S
C749 H755 0.930 . S
C750 C748 1.353 . S
C750 C753 1.348 . S
C750 H788 0.929 . S
N751 Li706 1.990 . S
N751 C748 1.314 . S
N751 C749 1.279 . S
C752 C749 1.358 . S
C752 C753 1.356 . S
C752 H789 0.930 . S
C753 C750 1.348 . S
C753 C752 1.356 . S
H754 C748 0.930 . S
H755 C749 0.930 . S
C756 N757 1.314 . S
C756 C758 1.353 . S
C756 H762 0.930 . S
N757 Li707 1.990 . S
N757 C756 1.314 . S
N757 C760 1.279 . S
C758 C756 1.353 . S
C758 C761 1.348 . S
C758 H790 0.929 . S
C759 C760 1.358 . S
C759 C761 1.356 . S
C759 H791 0.930 . S
C760 N757 1.279 . S
C760 C759 1.358 . S
C760 H763 0.930 . S
C761 C758 1.348 . S
C761 C759 1.356 . S
H762 C756 0.930 . S
H763 C760 0.930 . S
O764 Li704 1.956 . S
O764 Li705 1.970 . S
O764 Li706 1.961 . S
O764 C708 1.325 . S
O765 Li704 1.970 . S
O765 Li705 1.956 . S
O765 Li707 1.961 . S
O765 C714 1.325 . S
O766 Li704 1.961 . S
O766 Li706 1.956 . S
O766 Li707 1.970 . S
O766 C736 1.325 . S
O767 Li705 1.961 . S
O767 Li706 1.970 . S
O767 Li707 1.956 . S
O767 C742 1.325 . S
H768 C710 0.929 . S
H769 C711 0.930 . S
H770 C712 0.930 . S
H771 C713 0.930 . S
H772 C715 0.930 . S
H773 C717 0.929 . S
H774 C718 0.930 . S
H775 C719 0.930 . S
H776 C722 0.930 . S
H777 C725 0.929 . S
H778 C730 0.929 . S
H779 C731 0.930 . S
H780 C738 0.929 . S
H781 C739 0.930 . S
H782 C740 0.930 . S
H783 C741 0.930 . S
H784 C743 0.929 . S
H785 C744 0.930 . S
H786 C745 0.930 . S
H787 C746 0.930 . S
H788 C750 0.929 . S
H789 C752 0.930 . S
H790 C758 0.929 . S
H791 C759 0.930 . S
Li792 N809 1.990 . S
Li792 O852 1.956 . S
Li792 O853 1.970 1_565 S
Li792 O854 1.961 . S
Li793 N817 1.990 . S
Li793 O852 1.970 1_545 S
Li793 O853 1.956 . S
Li793 O855 1.961 . S
Li794 N839 1.990 . S
Li794 O852 1.961 . S
Li794 O854 1.956 . S
Li794 O855 1.970 1_565 S
Li795 N845 1.990 . S
Li795 O853 1.961 . S
Li795 O854 1.970 1_545 S
Li795 O855 1.956 . S
C796 C798 1.348 . S
C796 C799 1.356 . S
C796 O852 1.325 . S
N797 C800 1.314 . S
N797 C801 1.279 . S
C798 C796 1.348 . S
C798 C800 1.353 . S
C798 H856 0.929 . S
C799 C796 1.356 . S
C799 C801 1.358 . S
C799 H857 0.930 . S
C800 N797 1.314 . S
C800 C798 1.353 . S
C800 H858 0.930 . S
C801 N797 1.279 . S
C801 C799 1.358 . S
C801 H859 0.930 . S
C802 C805 1.348 1_545 S
C802 C806 1.356 . S
C802 O853 1.325 . S
C803 N804 1.279 . S
C803 C806 1.358 . S
C803 H860 0.930 . S
N804 C803 1.279 . S
N804 C807 1.314 1_545 S
C805 C802 1.348 1_565 S
C805 C807 1.353 . S
C805 H861 0.929 . S
C806 C802 1.356 . S
C806 C803 1.358 . S
C806 H862 0.930 . S
C807 N804 1.314 1_565 S
C807 C805 1.353 . S
C807 H863 0.930 . S
C808 N809 1.314 . S
C808 C813 1.353 . S
C808 H814 0.930 . S
N809 Li792 1.990 . S
N809 C808 1.314 . S
N809 C811 1.279 . S
C810 C811 1.358 . S
C810 C812 1.356 . S
C810 H864 0.930 . S
C811 N809 1.279 . S
C811 C810 1.358 . S
C811 H815 0.930 . S
C812 C810 1.356 . S
C812 C813 1.348 . S
C813 C808 1.353 . S
C813 C812 1.348 . S
C813 H865 0.929 . S
H814 C808 0.930 . S
H815 C811 0.930 . S
C816 N817 1.314 . S
C816 C818 1.353 . S
C816 H822 0.930 . S
N817 Li793 1.990 . S
N817 C816 1.314 . S
N817 C820 1.279 . S
C818 C816 1.353 . S
C818 C821 1.348 . S
C818 H866 0.929 . S
C819 C820 1.358 . S
C819 C821 1.356 . S
C819 H867 0.930 . S
C820 N817 1.279 . S
C820 C819 1.358 . S
C820 H823 0.930 . S
C821 C818 1.348 . S
C821 C819 1.356 . S
H822 C816 0.930 . S
H823 C820 0.930 . S
C824 C826 1.348 1_565 S
C824 C827 1.356 . S
C824 O854 1.325 . S
N825 C828 1.314 1_565 S
N825 C829 1.279 . S
C826 C824 1.348 1_545 S
C826 C828 1.353 . S
C826 H868 0.929 . S
C827 C824 1.356 . S
C827 C829 1.358 . S
C827 H869 0.930 . S
C828 N825 1.314 1_545 S
C828 C826 1.353 . S
C828 H870 0.930 . S
C829 N825 1.279 . S
C829 C827 1.358 . S
C829 H871 0.930 . S
C830 C831 1.348 . S
C830 C832 1.356 . S
C830 O855 1.325 . S
C831 C830 1.348 . S
C831 C833 1.353 . S
C831 H872 0.929 . S
C832 C830 1.356 . S
C832 C834 1.358 . S
C832 H873 0.930 . S
C833 C831 1.353 . S
C833 N835 1.314 . S
C833 H874 0.930 . S
C834 C832 1.358 . S
C834 N835 1.279 . S
C834 H875 0.930 . S
N835 C833 1.314 . S
N835 C834 1.279 . S
C836 C838 1.353 . S
C836 N839 1.314 . S
C836 H842 0.930 . S
C837 N839 1.279 . S
C837 C840 1.358 . S
C837 H843 0.930 . S
C838 C836 1.353 . S
C838 C841 1.348 . S
C838 H876 0.929 . S
N839 Li794 1.990 . S
N839 C836 1.314 . S
N839 C837 1.279 . S
C840 C837 1.358 . S
C840 C841 1.356 . S
C840 H877 0.930 . S
C841 C838 1.348 . S
C841 C840 1.356 . S
H842 C836 0.930 . S
H843 C837 0.930 . S
C844 N845 1.314 . S
C844 C846 1.353 . S
C844 H850 0.930 . S
N845 Li795 1.990 . S
N845 C844 1.314 . S
N845 C848 1.279 . S
C846 C844 1.353 . S
C846 C849 1.348 . S
C846 H878 0.929 . S
C847 C848 1.358 . S
C847 C849 1.356 . S
C847 H879 0.930 . S
C848 N845 1.279 . S
C848 C847 1.358 . S
C848 H851 0.930 . S
C849 C846 1.348 . S
C849 C847 1.356 . S
H850 C844 0.930 . S
H851 C848 0.930 . S
O852 Li792 1.956 . S
O852 Li793 1.970 1_565 S
O852 Li794 1.961 . S
O852 C796 1.325 . S
O853 Li792 1.970 1_545 S
O853 Li793 1.956 . S
O853 Li795 1.961 . S
O853 C802 1.325 . S
O854 Li792 1.961 . S
O854 Li794 1.956 . S
O854 Li795 1.970 1_565 S
O854 C824 1.325 . S
O855 Li793 1.961 . S
O855 Li794 1.970 1_545 S
O855 Li795 1.956 . S
O855 C830 1.325 . S
H856 C798 0.929 . S
H857 C799 0.930 . S
H858 C800 0.930 . S
H859 C801 0.930 . S
H860 C803 0.930 . S
H861 C805 0.929 . S
H862 C806 0.930 . S
H863 C807 0.930 . S
H864 C810 0.930 . S
H865 C813 0.929 . S
H866 C818 0.929 . S
H867 C819 0.930 . S
H868 C826 0.929 . S
H869 C827 0.930 . S
H870 C828 0.930 . S
H871 C829 0.930 . S
H872 C831 0.929 . S
H873 C832 0.930 . S
H874 C833 0.930 . S
H875 C834 0.930 . S
H876 C838 0.929 . S
H877 C840 0.930 . S
H878 C846 0.929 . S
H879 C847 0.930 . S
Li880 N897 1.990 . S
Li880 O940 1.956 . S
Li880 O941 1.970 . S
Li880 O942 1.961 . S
Li881 N905 1.990 . S
Li881 O940 1.970 . S
Li881 O941 1.956 . S
Li881 O943 1.961 1_455 S
Li882 N927 1.990 . S
Li882 O940 1.961 . S
Li882 O942 1.956 . S
Li882 O943 1.970 1_455 S
Li883 N933 1.990 . S
Li883 O941 1.961 1_655 S
Li883 O942 1.970 1_655 S
Li883 O943 1.956 . S
C884 C886 1.348 . S
C884 C887 1.356 . S
C884 O940 1.325 . S
N885 C888 1.314 . S
N885 C889 1.279 . S
C886 C884 1.348 . S
C886 C888 1.353 . S
C886 H944 0.929 . S
C887 C884 1.356 . S
C887 C889 1.358 . S
C887 H945 0.930 . S
C888 N885 1.314 . S
C888 C886 1.353 . S
C888 H946 0.930 . S
C889 N885 1.279 . S
C889 C887 1.358 . S
C889 H947 0.930 . S
C890 C893 1.348 . S
C890 C894 1.356 1_455 S
C890 O941 1.325 . S
C891 N892 1.279 1_655 S
C891 C894 1.358 . S
C891 H948 0.930 . S
N892 C891 1.279 1_455 S
N892 C895 1.314 . S
C893 C890 1.348 . S
C893 C895 1.353 . S
C893 H949 0.929 . S
C894 C890 1.356 1_655 S
C894 C891 1.358 . S
C894 H950 0.930 . S
C895 N892 1.314 . S
C895 C893 1.353 . S
C895 H951 0.930 . S
C896 N897 1.314 . S
C896 C901 1.353 . S
C896 H902 0.930 . S
N897 Li880 1.990 . S
N897 C896 1.314 . S
N897 C899 1.279 . S
C898 C899 1.358 . S
C898 C900 1.356 . S
C898 H952 0.930 . S
C899 N897 1.279 . S
C899 C898 1.358 . S
C899 H903 0.930 . S
C900 C898 1.356 . S
C900 C901 1.348 . S
C901 C896 1.353 . S
C901 C900 1.348 . S
C901 H953 0.929 . S
H902 C896 0.930 . S
H903 C899 0.930 . S
C904 N905 1.314 . S
C904 C906 1.353 . S
C904 H910 0.932 . S
N905 Li881 1.990 . S
N905 C904 1.314 . S
N905 C908 1.279 . S
C906 C904 1.353 . S
C906 C909 1.348 . S
C906 H954 0.929 1_455 S
C907 C908 1.358 . S
C907 C909 1.356 . S
C907 H955 0.930 . S
C908 N905 1.279 . S
C908 C907 1.358 . S
C908 H911 0.930 . S
C909 C906 1.348 . S
C909 C907 1.356 . S
H910 C904 0.932 . S
H911 C908 0.930 . S
C912 C914 1.348 . S
C912 C915 1.356 . S
C912 O942 1.325 . S
N913 C916 1.314 . S
N913 C917 1.279 . S
C914 C912 1.348 . S
C914 C916 1.353 . S
C914 H956 0.929 1_455 S
C915 C912 1.356 . S
C915 C917 1.358 . S
C915 H957 0.930 . S
C916 N913 1.314 . S
C916 C914 1.353 . S
C916 H958 0.930 1_455 S
C917 N913 1.279 . S
C917 C915 1.358 . S
C917 H959 0.930 . S
C918 C919 1.348 . S
C918 C920 1.356 . S
C918 O943 1.325 . S
C919 C918 1.348 . S
C919 C921 1.353 . S
C919 H960 0.929 . S
C920 C918 1.356 . S
C920 C922 1.358 . S
C920 H961 0.930 . S
C921 C919 1.353 . S
C921 N923 1.314 . S
C921 H962 0.930 . S
C922 C920 1.358 . S
C922 N923 1.279 . S
C922 H963 0.930 . S
N923 C921 1.314 . S
N923 C922 1.279 . S
C924 C926 1.353 . S
C924 N927 1.314 . S
C924 H930 0.930 . S
C925 N927 1.279 . S
C925 C928 1.358 . S
C925 H931 0.930 . S
C926 C924 1.353 . S
C926 C929 1.348 . S
C926 H964 0.929 . S
N927 Li882 1.990 . S
N927 C924 1.314 . S
N927 C925 1.279 . S
C928 C925 1.358 . S
C928 C929 1.356 . S
C928 H965 0.930 . S
C929 C926 1.348 . S
C929 C928 1.356 . S
H930 C924 0.930 . S
H931 C925 0.930 . S
C932 N933 1.314 . S
C932 C934 1.353 . S
C932 H938 0.930 . S
N933 Li883 1.990 . S
N933 C932 1.314 . S
N933 C936 1.279 . S
C934 C932 1.353 . S
C934 C937 1.348 . S
C934 H966 0.929 . S
C935 C936 1.358 . S
C935 C937 1.356 . S
C935 H967 0.930 . S
C936 N933 1.279 . S
C936 C935 1.358 . S
C936 H939 0.930 . S
C937 C934 1.348 . S
C937 C935 1.356 . S
H938 C932 0.930 . S
H939 C936 0.930 . S
O940 Li880 1.956 . S
O940 Li881 1.970 . S
O940 Li882 1.961 . S
O940 C884 1.325 . S
O941 Li880 1.970 . S
O941 Li881 1.956 . S
O941 Li883 1.961 1_455 S
O941 C890 1.325 . S
O942 Li880 1.961 . S
O942 Li882 1.956 . S
O942 Li883 1.970 1_455 S
O942 C912 1.325 . S
O943 Li881 1.961 1_655 S
O943 Li882 1.970 1_655 S
O943 Li883 1.956 . S
O943 C918 1.325 . S
H944 C886 0.929 . S
H945 C887 0.930 . S
H946 C888 0.930 . S
H947 C889 0.930 . S
H948 C891 0.930 . S
H949 C893 0.929 . S
H950 C894 0.930 . S
H951 C895 0.930 . S
H952 C898 0.930 . S
H953 C901 0.929 . S
H954 C906 0.929 1_655 S
H955 C907 0.930 . S
H956 C914 0.929 1_655 S
H957 C915 0.930 . S
H958 C916 0.930 1_655 S
H959 C917 0.930 . S
H960 C919 0.929 . S
H961 C920 0.930 . S
H962 C921 0.930 . S
H963 C922 0.930 . S
H964 C926 0.929 . S
H965 C928 0.930 . S
H966 C934 0.929 . S
H967 C935 0.930 . S
Li968 N985 1.990 . S
Li968 O1028 1.956 . S
Li968 O1029 1.970 . S
Li968 O1030 1.961 . S
Li969 N993 1.990 . S
Li969 O1028 1.970 . S
Li969 O1029 1.956 . S
Li969 O1031 1.961 . S
Li970 N1015 1.990 . S
Li970 O1028 1.961 . S
Li970 O1030 1.956 . S
Li970 O1031 1.970 . S
Li971 N1021 1.990 . S
Li971 O1029 1.961 . S
Li971 O1030 1.970 . S
Li971 O1031 1.956 . S
C972 C974 1.348 . S
C972 C975 1.356 . S
C972 O1028 1.325 . S
N973 C976 1.314 . S
N973 C977 1.279 . S
C974 C972 1.348 . S
C974 C976 1.353 . S
C974 H1032 0.929 . S
C975 C972 1.356 . S
C975 C977 1.358 . S
C975 H1033 0.930 . S
C976 N973 1.314 . S
C976 C974 1.353 . S
C976 H1034 0.930 . S
C977 N973 1.279 . S
C977 C975 1.358 . S
C977 H1035 0.930 . S
C978 C981 1.348 . S
C978 C982 1.356 . S
C978 O1029 1.325 . S
C979 N980 1.279 . S
C979 C982 1.358 . S
C979 H1036 0.930 . S
N980 C979 1.279 . S
N980 C983 1.314 . S
C981 C978 1.348 . S
C981 C983 1.353 . S
C981 H1037 0.929 . S
C982 C978 1.356 . S
C982 C979 1.358 . S
C982 H1038 0.930 . S
C983 N980 1.314 . S
C983 C981 1.353 . S
C983 H1039 0.930 . S
C984 N985 1.314 . S
C984 C989 1.353 . S
C984 H990 0.930 . S
N985 Li968 1.990 . S
N985 C984 1.314 . S
N985 C987 1.279 . S
C986 C987 1.358 . S
C986 C988 1.356 . S
C986 H1040 0.930 . S
C987 N985 1.279 . S
C987 C986 1.358 . S
C987 H991 0.930 . S
C988 C986 1.356 . S
C988 C989 1.348 . S
C989 C984 1.353 . S
C989 C988 1.348 . S
C989 H1041 0.929 . S
H990 C984 0.930 . S
H991 C987 0.930 . S
C992 N993 1.314 . S
C992 C994 1.353 . S
C992 H998 0.930 . S
N993 Li969 1.990 . S
N993 C992 1.314 . S
N993 C996 1.279 . S
C994 C992 1.353 . S
C994 C997 1.348 . S
C994 H1042 0.929 . S
C995 C996 1.358 . S
C995 C997 1.356 . S
C995 H1043 0.930 . S
C996 N993 1.279 . S
C996 C995 1.358 . S
C996 H999 0.930 . S
C997 C994 1.348 . S
C997 C995 1.356 . S
H998 C992 0.930 . S
H999 C996 0.930 . S
C1000 C1002 1.348 . S
C1000 C1003 1.356 . S
C1000 O1030 1.325 . S
N1001 C1004 1.314 . S
N1001 C1005 1.279 . S
C1002 C1000 1.348 . S
C1002 C1004 1.353 . S
C1002 H1044 0.929 . S
C1003 C1000 1.356 . S
C1003 C1005 1.358 . S
C1003 H1045 0.930 . S
C1004 N1001 1.314 . S
C1004 C1002 1.353 . S
C1004 H1046 0.930 . S
C1005 N1001 1.279 . S
C1005 C1003 1.358 . S
C1005 H1047 0.930 . S
C1006 C1007 1.348 . S
C1006 C1008 1.356 . S
C1006 O1031 1.325 . S
C1007 C1006 1.348 . S
C1007 C1009 1.353 . S
C1007 H1048 0.929 . S
C1008 C1006 1.356 . S
C1008 C1010 1.358 . S
C1008 H1049 0.930 . S
C1009 C1007 1.353 . S
C1009 N1011 1.314 . S
C1009 H1050 0.930 . S
C1010 C1008 1.358 . S
C1010 N1011 1.279 . S
C1010 H1051 0.930 . S
N1011 C1009 1.314 . S
N1011 C1010 1.279 . S
C1012 C1014 1.353 . S
C1012 N1015 1.314 . S
C1012 H1018 0.930 . S
C1013 N1015 1.279 . S
C1013 C1016 1.358 . S
C1013 H1019 0.930 . S
C1014 C1012 1.353 . S
C1014 C1017 1.348 . S
C1014 H1052 0.929 . S
N1015 Li970 1.990 . S
N1015 C1012 1.314 . S
N1015 C1013 1.279 . S
C1016 C1013 1.358 . S
C1016 C1017 1.356 . S
C1016 H1053 0.930 . S
C1017 C1014 1.348 . S
C1017 C1016 1.356 . S
H1018 C1012 0.930 . S
H1019 C1013 0.930 . S
C1020 N1021 1.314 . S
C1020 C1022 1.353 . S
C1020 H1026 0.930 . S
N1021 Li971 1.990 . S
N1021 C1020 1.314 . S
N1021 C1024 1.279 . S
C1022 C1020 1.353 . S
C1022 C1025 1.348 . S
C1022 H1054 0.929 . S
C1023 C1024 1.358 . S
C1023 C1025 1.356 . S
C1023 H1055 0.930 . S
C1024 N1021 1.279 . S
C1024 C1023 1.358 . S
C1024 H1027 0.930 . S
C1025 C1022 1.348 . S
C1025 C1023 1.356 . S
H1026 C1020 0.930 . S
H1027 C1024 0.930 . S
O1028 Li968 1.956 . S
O1028 Li969 1.970 . S
O1028 Li970 1.961 . S
O1028 C972 1.325 . S
O1029 Li968 1.970 . S
O1029 Li969 1.956 . S
O1029 Li971 1.961 . S
O1029 C978 1.325 . S
O1030 Li968 1.961 . S
O1030 Li970 1.956 . S
O1030 Li971 1.970 . S
O1030 C1000 1.325 . S
O1031 Li969 1.961 . S
O1031 Li970 1.970 . S
O1031 Li971 1.956 . S
O1031 C1006 1.325 . S
H1032 C974 0.929 . S
H1033 C975 0.930 . S
H1034 C976 0.930 . S
H1035 C977 0.930 . S
H1036 C979 0.930 . S
H1037 C981 0.929 . S
H1038 C982 0.930 . S
H1039 C983 0.930 . S
H1040 C986 0.930 . S
H1041 C989 0.929 . S
H1042 C994 0.929 . S
H1043 C995 0.930 . S
H1044 C1002 0.929 . S
H1045 C1003 0.930 . S
H1046 C1004 0.930 . S
H1047 C1005 0.930 . S
H1048 C1007 0.929 . S
H1049 C1008 0.930 . S
H1050 C1009 0.930 . S
H1051 C1010 0.930 . S
H1052 C1014 0.929 . S
H1053 C1016 0.930 . S
H1054 C1022 0.929 . S
H1055 C1023 0.930 . S
Li1056 N1073 1.990 . S
Li1056 O1116 1.956 . S
Li1056 O1117 1.970 1_455 S
Li1056 O1118 1.961 . S
Li1057 N1081 1.990 . S
Li1057 O1116 1.970 1_655 S
Li1057 O1117 1.956 . S
Li1057 O1119 1.982 . S
Li1058 N1103 1.990 . S
Li1058 O1116 1.961 . S
Li1058 O1118 1.956 . S
Li1058 O1119 1.945 1_455 S
Li1059 N1109 1.987 1_455 S
Li1059 O1117 1.934 1_455 S
Li1059 O1118 2.005 . S
Li1059 O1119 1.953 1_455 S
C1060 C1062 1.348 1_455 S
C1060 C1063 1.356 . S
C1060 O1116 1.325 . S
N1061 C1064 1.314 1_455 S
N1061 C1065 1.279 . S
C1062 C1060 1.348 1_655 S
C1062 C1064 1.353 . S
C1062 H1120 0.929 . S
C1063 C1060 1.356 . S
C1063 C1065 1.358 . S
C1063 H1121 0.930 . S
C1064 N1061 1.314 1_655 S
C1064 C1062 1.353 . S
C1064 H1122 0.930 . S
C1065 N1061 1.279 . S
C1065 C1063 1.358 . S
C1065 H1123 0.930 . S
C1066 C1069 1.348 . S
C1066 C1070 1.356 . S
C1066 O1117 1.325 . S
C1067 N1068 1.279 . S
C1067 C1070 1.358 . S
C1067 H1124 0.930 . S
N1068 C1067 1.279 . S
N1068 C1071 1.314 . S
C1069 C1066 1.348 . S
C1069 C1071 1.353 . S
C1069 H1125 0.929 . S
C1070 C1066 1.356 . S
C1070 C1067 1.358 . S
C1070 H1126 0.930 . S
C1071 N1068 1.314 . S
C1071 C1069 1.353 . S
C1071 H1127 0.930 . S
C1072 N1073 1.314 . S
C1072 C1077 1.353 . S
C1072 H1078 0.930 . S
N1073 Li1056 1.990 . S
N1073 C1072 1.314 . S
N1073 C1075 1.279 . S
C1074 C1075 1.358 . S
C1074 C1076 1.356 . S
C1074 H1128 0.930 . S
C1075 N1073 1.279 . S
C1075 C1074 1.358 . S
C1075 H1079 0.930 . S
C1076 C1074 1.356 . S
C1076 C1077 1.348 . S
C1077 C1072 1.353 . S
C1077 C1076 1.348 . S
C1077 H1129 0.929 . S
H1078 C1072 0.930 . S
H1079 C1075 0.930 . S
C1080 N1081 1.314 . S
C1080 C1082 1.353 . S
C1080 H1086 0.930 . S
N1081 Li1057 1.990 . S
N1081 C1080 1.314 . S
N1081 C1084 1.279 . S
C1082 C1080 1.353 . S
C1082 C1085 1.348 . S
C1082 H1130 0.929 . S
C1083 C1084 1.358 . S
C1083 C1085 1.356 . S
C1083 H1131 0.930 . S
C1084 N1081 1.279 . S
C1084 C1083 1.358 . S
C1084 H1087 0.930 . S
C1085 C1082 1.348 . S
C1085 C1083 1.356 . S
H1086 C1080 0.930 . S
H1087 C1084 0.930 . S
C1088 C1090 1.348 . S
C1088 C1091 1.356 . S
C1088 O1118 1.325 . S
N1089 C1092 1.314 . S
N1089 C1093 1.279 . S
C1090 C1088 1.348 . S
C1090 C1092 1.353 . S
C1090 H1132 0.929 . S
C1091 C1088 1.356 . S
C1091 C1093 1.358 . S
C1091 H1133 0.930 . S
C1092 N1089 1.314 . S
C1092 C1090 1.353 . S
C1092 H1134 0.930 . S
C1093 N1089 1.279 . S
C1093 C1091 1.358 . S
C1093 H1135 0.930 . S
C1094 C1095 1.348 1_655 S
C1094 C1096 1.356 . S
C1094 O1119 1.330 . S
C1095 C1094 1.348 1_455 S
C1095 C1097 1.353 . S
C1095 H1136 0.929 . S
C1096 C1094 1.356 . S
C1096 C1098 1.358 . S
C1096 H1137 0.930 . S
C1097 C1095 1.353 . S
C1097 N1099 1.314 1_455 S
C1097 H1138 0.930 . S
C1098 C1096 1.358 . S
C1098 N1099 1.279 . S
C1098 H1139 0.930 . S
N1099 C1097 1.314 1_655 S
N1099 C1098 1.279 . S
C1100 C1102 1.353 . S
C1100 N1103 1.314 . S
C1100 H1106 0.930 . S
C1101 N1103 1.279 . S
C1101 C1104 1.358 . S
C1101 H1107 0.930 . S
C1102 C1100 1.353 . S
C1102 C1105 1.348 . S
C1102 H1140 0.929 . S
N1103 Li1058 1.990 . S
N1103 C1100 1.314 . S
N1103 C1101 1.279 . S
C1104 C1101 1.358 . S
C1104 C1105 1.356 . S
C1104 H1141 0.930 . S
C1105 C1102 1.348 . S
C1105 C1104 1.356 . S
H1106 C1100 0.930 . S
H1107 C1101 0.930 . S
C1108 N1109 1.314 . S
C1108 C1110 1.353 . S
C1108 H1114 0.930 . S
N1109 Li1059 1.987 1_655 S
N1109 C1108 1.314 . S
N1109 C1112 1.279 . S
C1110 C1108 1.353 . S
C1110 C1113 1.348 . S
C1110 H1142 0.929 . S
C1111 C1112 1.358 . S
C1111 C1113 1.356 . S
C1111 H1143 0.930 . S
C1112 N1109 1.279 . S
C1112 C1111 1.358 . S
C1112 H1115 0.930 . S
C1113 C1110 1.348 . S
C1113 C1111 1.356 . S
H1114 C1108 0.930 . S
H1115 C1112 0.930 . S
O1116 Li1056 1.956 . S
O1116 Li1057 1.970 1_455 S
O1116 Li1058 1.961 . S
O1116 C1060 1.325 . S
O1117 Li1056 1.970 1_655 S
O1117 Li1057 1.956 . S
O1117 Li1059 1.934 1_655 S
O1117 C1066 1.325 . S
O1118 Li1056 1.961 . S
O1118 Li1058 1.956 . S
O1118 Li1059 2.005 . S
O1118 C1088 1.325 . S
O1119 Li1057 1.982 . S
O1119 Li1058 1.945 1_655 S
O1119 Li1059 1.953 1_655 S
O1119 C1094 1.330 . S
H1120 C1062 0.929 . S
H1121 C1063 0.930 . S
H1122 C1064 0.930 . S
H1123 C1065 0.930 . S
H1124 C1067 0.930 . S
H1125 C1069 0.929 . S
H1126 C1070 0.930 . S
H1127 C1071 0.930 . S
H1128 C1074 0.930 . S
H1129 C1077 0.929 . S
H1130 C1082 0.929 . S
H1131 C1083 0.930 . S
H1132 C1090 0.929 . S
H1133 C1091 0.930 . S
H1134 C1092 0.930 . S
H1135 C1093 0.930 . S
H1136 C1095 0.929 . S
H1137 C1096 0.930 . S
H1138 C1097 0.930 . S
H1139 C1098 0.930 . S
H1140 C1102 0.929 . S
H1141 C1104 0.930 . S
H1142 C1110 0.929 . S
H1143 C1111 0.930 . S
Li1144 N1161 1.990 . S
Li1144 O1204 1.956 . S
Li1144 O1205 1.970 . S
Li1144 O1206 1.961 . S
Li1145 N1169 1.990 . S
Li1145 O1204 1.970 . S
Li1145 O1205 1.956 . S
Li1145 O1207 1.961 . S
Li1146 N1191 1.990 . S
Li1146 O1204 1.961 . S
Li1146 O1206 1.956 . S
Li1146 O1207 1.970 . S
Li1147 N1197 1.990 . S
Li1147 O1205 1.961 . S
Li1147 O1206 1.970 . S
Li1147 O1207 1.956 . S
C1148 C1150 1.348 . S
C1148 C1151 1.356 . S
C1148 O1204 1.325 . S
N1149 C1152 1.314 . S
N1149 C1153 1.279 . S
C1150 C1148 1.348 . S
C1150 C1152 1.353 . S
C1150 H1208 0.929 . S
C1151 C1148 1.356 . S
C1151 C1153 1.358 . S
C1151 H1209 0.930 . S
C1152 N1149 1.314 . S
C1152 C1150 1.353 . S
C1152 H1210 0.930 . S
C1153 N1149 1.279 . S
C1153 C1151 1.358 . S
C1153 H1211 0.930 . S
C1154 C1157 1.348 . S
C1154 C1158 1.356 . S
C1154 O1205 1.325 . S
C1155 N1156 1.279 . S
C1155 C1158 1.358 . S
C1155 H1212 0.930 . S
N1156 C1155 1.279 . S
N1156 C1159 1.314 . S
C1157 C1154 1.348 . S
C1157 C1159 1.353 . S
C1157 H1213 0.929 . S
C1158 C1154 1.356 . S
C1158 C1155 1.358 . S
C1158 H1214 0.930 . S
C1159 N1156 1.314 . S
C1159 C1157 1.353 . S
C1159 H1215 0.930 . S
C1160 N1161 1.314 . S
C1160 C1165 1.353 . S
C1160 H1166 0.930 . S
N1161 Li1144 1.990 . S
N1161 C1160 1.314 . S
N1161 C1163 1.279 . S
C1162 C1163 1.358 . S
C1162 C1164 1.356 . S
C1162 H1216 0.930 . S
C1163 N1161 1.279 . S
C1163 C1162 1.358 . S
C1163 H1167 0.930 . S
C1164 C1162 1.356 . S
C1164 C1165 1.348 . S
C1165 C1160 1.353 . S
C1165 C1164 1.348 . S
C1165 H1217 0.929 . S
H1166 C1160 0.930 . S
H1167 C1163 0.930 . S
C1168 N1169 1.314 . S
C1168 C1170 1.353 . S
C1168 H1174 0.930 . S
N1169 Li1145 1.990 . S
N1169 C1168 1.314 . S
N1169 C1172 1.279 . S
C1170 C1168 1.353 . S
C1170 C1173 1.348 . S
C1170 H1218 0.929 . S
C1171 C1172 1.358 . S
C1171 C1173 1.356 . S
C1171 H1219 0.930 . S
C1172 N1169 1.279 . S
C1172 C1171 1.358 . S
C1172 H1175 0.930 . S
C1173 C1170 1.348 . S
C1173 C1171 1.356 . S
H1174 C1168 0.930 . S
H1175 C1172 0.930 . S
C1176 C1178 1.348 . S
C1176 C1179 1.356 . S
C1176 O1206 1.325 . S
N1177 C1180 1.314 . S
N1177 C1181 1.279 . S
C1178 C1176 1.348 . S
C1178 C1180 1.353 . S
C1178 H1220 0.929 . S
C1179 C1176 1.356 . S
C1179 C1181 1.358 . S
C1179 H1221 0.930 . S
C1180 N1177 1.314 . S
C1180 C1178 1.353 . S
C1180 H1222 0.930 . S
C1181 N1177 1.279 . S
C1181 C1179 1.358 . S
C1181 H1223 0.930 . S
C1182 C1183 1.348 . S
C1182 C1184 1.356 . S
C1182 O1207 1.325 . S
C1183 C1182 1.348 . S
C1183 C1185 1.353 . S
C1183 H1224 0.929 . S
C1184 C1182 1.356 . S
C1184 C1186 1.358 . S
C1184 H1225 0.930 . S
C1185 C1183 1.353 . S
C1185 N1187 1.314 . S
C1185 H1226 0.930 . S
C1186 C1184 1.358 . S
C1186 N1187 1.279 . S
C1186 H1227 0.930 . S
N1187 C1185 1.314 . S
N1187 C1186 1.279 . S
C1188 C1190 1.353 . S
C1188 N1191 1.314 . S
C1188 H1194 0.930 . S
C1189 N1191 1.279 . S
C1189 C1192 1.358 . S
C1189 H1195 0.930 . S
C1190 C1188 1.353 . S
C1190 C1193 1.348 . S
C1190 H1228 0.929 . S
N1191 Li1146 1.990 . S
N1191 C1188 1.314 . S
N1191 C1189 1.279 . S
C1192 C1189 1.358 . S
C1192 C1193 1.356 . S
C1192 H1229 0.930 . S
C1193 C1190 1.348 . S
C1193 C1192 1.356 . S
H1194 C1188 0.930 . S
H1195 C1189 0.930 . S
C1196 N1197 1.314 . S
C1196 C1198 1.353 . S
C1196 H1202 0.930 . S
N1197 Li1147 1.990 . S
N1197 C1196 1.314 . S
N1197 C1200 1.279 . S
C1198 C1196 1.353 . S
C1198 C1201 1.348 . S
C1198 H1230 0.929 . S
C1199 C1200 1.358 . S
C1199 C1201 1.356 . S
C1199 H1231 0.930 . S
C1200 N1197 1.279 . S
C1200 C1199 1.358 . S
C1200 H1203 0.930 . S
C1201 C1198 1.348 . S
C1201 C1199 1.356 . S
H1202 C1196 0.930 . S
H1203 C1200 0.930 . S
O1204 Li1144 1.956 . S
O1204 Li1145 1.970 . S
O1204 Li1146 1.961 . S
O1204 C1148 1.325 . S
O1205 Li1144 1.970 . S
O1205 Li1145 1.956 . S
O1205 Li1147 1.961 . S
O1205 C1154 1.325 . S
O1206 Li1144 1.961 . S
O1206 Li1146 1.956 . S
O1206 Li1147 1.970 . S
O1206 C1176 1.325 . S
O1207 Li1145 1.961 . S
O1207 Li1146 1.970 . S
O1207 Li1147 1.956 . S
O1207 C1182 1.325 . S
H1208 C1150 0.929 . S
H1209 C1151 0.930 . S
H1210 C1152 0.930 . S
H1211 C1153 0.930 . S
H1212 C1155 0.930 . S
H1213 C1157 0.929 . S
H1214 C1158 0.930 . S
H1215 C1159 0.930 . S
H1216 C1162 0.930 . S
H1217 C1165 0.929 . S
H1218 C1170 0.929 . S
H1219 C1171 0.930 . S
H1220 C1178 0.929 . S
H1221 C1179 0.930 . S
H1222 C1180 0.930 . S
H1223 C1181 0.930 . S
H1224 C1183 0.929 . S
H1225 C1184 0.930 . S
H1226 C1185 0.930 . S
H1227 C1186 0.930 . S
H1228 C1190 0.929 . S
H1229 C1192 0.930 . S
H1230 C1198 0.929 . S
H1231 C1199 0.930 . S
C1232 C1233 1.387 . S
C1232 H1236 0.950 . S
C1232 C1241 1.390 . S
C1233 C1232 1.387 . S
C1233 C1235 1.387 . S
H1234 C1241 0.950 . S
C1235 C1233 1.387 . S
C1235 C1237 1.390 . S
C1235 H1239 0.950 . S
H1236 C1232 0.950 . S
C1237 C1235 1.390 . S
C1237 C1238 1.387 . S
C1237 H1240 0.950 . S
C1238 C1237 1.387 . S
C1238 C1241 1.387 . S
H1239 C1235 0.950 . S
H1240 C1237 0.950 . S
C1241 C1232 1.390 . S
C1241 H1234 0.950 . S
C1241 C1238 1.387 . S
C1242 C1243 1.387 . S
C1242 H1246 0.950 . S
C1242 C1251 1.390 . S
C1243 C1242 1.387 . S
C1243 C1245 1.387 . S
H1244 C1251 0.950 . S
C1245 C1243 1.387 . S
C1245 C1247 1.390 . S
C1245 H1249 0.950 . S
H1246 C1242 0.950 . S
C1247 C1245 1.390 . S
C1247 C1248 1.387 . S
C1247 H1250 0.950 . S
C1248 C1247 1.387 . S
C1248 C1251 1.387 . S
H1249 C1245 0.950 . S
H1250 C1247 0.950 . S
C1251 C1242 1.390 . S
C1251 H1244 0.950 . S
C1251 C1248 1.387 . S
C1252 C1253 1.387 . S
C1252 H1256 0.950 . S
C1252 C1261 1.390 . S
C1253 C1252 1.387 . S
C1253 C1255 1.387 . S
H1254 C1261 0.950 . S
C1255 C1253 1.387 . S
C1255 C1257 1.390 . S
C1255 H1259 0.950 . S
H1256 C1252 0.950 . S
C1257 C1255 1.390 . S
C1257 C1258 1.387 . S
C1257 H1260 0.950 . S
C1258 C1257 1.387 . S
C1258 C1261 1.387 . S
H1259 C1255 0.950 . S
H1260 C1257 0.950 . S
C1261 C1252 1.390 . S
C1261 H1254 0.950 . S
C1261 C1258 1.387 . S
C1262 C1263 1.387 . S
C1262 H1266 0.950 . S
C1262 C1271 1.390 . S
C1263 C1262 1.387 . S
C1263 C1265 1.387 1_565 S
H1264 C1271 0.950 . S
C1265 C1263 1.387 1_545 S
C1265 C1267 1.390 . S
C1265 H1269 0.950 . S
H1266 C1262 0.950 . S
C1267 C1265 1.390 . S
C1267 C1268 1.387 . S
C1267 H1270 0.950 . S
C1268 C1267 1.387 . S
C1268 C1271 1.387 1_545 S
H1269 C1265 0.950 . S
H1270 C1267 0.950 . S
C1271 C1262 1.390 . S
C1271 H1264 0.950 . S
C1271 C1268 1.387 1_565 S
C1272 C1273 1.387 . S
C1272 H1276 0.950 . S
C1272 C1281 1.390 . S
C1273 C1272 1.387 . S
C1273 C1275 1.387 . S
H1274 C1281 0.950 . S
C1275 C1273 1.387 . S
C1275 C1277 1.390 . S
C1275 H1279 0.950 . S
H1276 C1272 0.950 . S
C1277 C1275 1.390 . S
C1277 C1278 1.387 . S
C1277 H1280 0.950 . S
C1278 C1277 1.387 . S
C1278 C1281 1.387 . S
H1279 C1275 0.950 . S
H1280 C1277 0.950 . S
C1281 C1272 1.390 . S
C1281 H1274 0.950 . S
C1281 C1278 1.387 . S
C1282 C1283 1.387 . S
C1282 H1286 0.950 . S
C1282 C1291 1.390 . S
C1283 C1282 1.387 . S
C1283 C1285 1.387 . S
H1284 C1291 0.950 . S
C1285 C1283 1.387 . S
C1285 C1287 1.390 . S
C1285 H1289 0.950 . S
H1286 C1282 0.950 . S
C1287 C1285 1.390 . S
C1287 C1288 1.387 . S
C1287 H1290 0.950 . S
C1288 C1287 1.387 . S
C1288 C1291 1.387 . S
H1289 C1285 0.950 . S
H1290 C1287 0.950 . S
C1291 C1282 1.390 . S
C1291 H1284 0.950 . S
C1291 C1288 1.387 . S
C1292 C1293 1.387 . S
C1292 H1296 0.950 . S
C1292 C1301 1.390 . S
C1293 C1292 1.387 . S
C1293 C1295 1.387 . S
H1294 C1301 0.950 . S
C1295 C1293 1.387 . S
C1295 C1297 1.390 . S
C1295 H1299 0.950 . S
H1296 C1292 0.950 . S
C1297 C1295 1.390 . S
C1297 C1298 1.387 . S
C1297 H1300 0.950 . S
C1298 C1297 1.387 . S
C1298 C1301 1.387 . S
H1299 C1295 0.950 . S
H1300 C1297 0.950 . S
C1301 C1292 1.390 . S
C1301 H1294 0.950 . S
C1301 C1298 1.387 . S
C1302 C1303 1.387 . S
C1302 H1306 0.950 . S
C1302 C1311 1.390 . S
C1303 C1302 1.387 . S
C1303 C1305 1.387 1_565 S
H1304 C1311 0.950 . S
C1305 C1303 1.387 1_545 S
C1305 C1307 1.390 . S
C1305 H1309 0.950 . S
H1306 C1302 0.950 . S
C1307 C1305 1.390 . S
C1307 C1308 1.387 1_545 S
C1307 H1310 0.950 . S
C1308 C1307 1.387 1_565 S
C1308 C1311 1.387 . S
H1309 C1305 0.950 . S
H1310 C1307 0.950 . S
C1311 C1302 1.390 . S
C1311 H1304 0.950 . S
C1311 C1308 1.387 . S
C1312 C1313 1.387 . S
C1312 H1316 0.950 . S
C1312 C1321 1.390 . S
C1313 C1312 1.387 . S
C1313 C1315 1.387 . S
H1314 C1321 0.950 . S
C1315 C1313 1.387 . S
C1315 C1317 1.390 . S
C1315 H1319 0.950 . S
H1316 C1312 0.950 . S
C1317 C1315 1.390 . S
C1317 C1318 1.387 . S
C1317 H1320 0.950 . S
C1318 C1317 1.387 . S
C1318 C1321 1.387 . S
H1319 C1315 0.950 . S
H1320 C1317 0.950 . S
C1321 C1312 1.390 . S
C1321 H1314 0.950 . S
C1321 C1318 1.387 . S
C1322 C1323 1.387 . S
C1322 H1326 0.950 . S
C1322 C1331 1.390 . S
C1323 C1322 1.387 . S
C1323 C1325 1.387 . S
H1324 C1331 0.950 . S
C1325 C1323 1.387 . S
C1325 C1327 1.390 . S
C1325 H1329 0.950 . S
H1326 C1322 0.950 . S
C1327 C1325 1.390 . S
C1327 C1328 1.387 . S
C1327 H1330 0.950 . S
C1328 C1327 1.387 . S
C1328 C1331 1.387 . S
H1329 C1325 0.950 . S
H1330 C1327 0.950 . S
C1331 C1322 1.390 . S
C1331 H1324 0.950 . S
C1331 C1328 1.387 . S
C1332 C1333 1.387 . S
C1332 H1336 0.950 . S
C1332 C1341 1.390 . S
C1333 C1332 1.387 . S
C1333 C1335 1.387 . S
H1334 C1341 0.950 . S
C1335 C1333 1.387 . S
C1335 C1337 1.390 . S
C1335 H1339 0.950 . S
H1336 C1332 0.950 . S
C1337 C1335 1.390 . S
C1337 C1338 1.387 . S
C1337 H1340 0.950 . S
C1338 C1337 1.387 . S
C1338 C1341 1.387 . S
H1339 C1335 0.950 . S
H1340 C1337 0.950 . S
C1341 C1332 1.390 . S
C1341 H1334 0.950 . S
C1341 C1338 1.387 . S
C1342 C1343 1.387 . S
C1342 H1346 0.950 . S
C1342 C1351 1.390 . S
C1343 C1342 1.387 . S
C1343 C1345 1.387 . S
H1344 C1351 0.950 . S
C1345 C1343 1.387 . S
C1345 C1347 1.390 . S
C1345 H1349 0.950 . S
H1346 C1342 0.950 . S
C1347 C1345 1.390 . S
C1347 C1348 1.387 . S
C1347 H1350 0.950 . S
C1348 C1347 1.387 . S
C1348 C1351 1.387 . S
H1349 C1345 0.950 . S
H1350 C1347 0.950 . S
C1351 C1342 1.390 . S
C1351 H1344 0.950 . S
C1351 C1348 1.387 . S
C1352 C1353 1.387 . S
C1352 H1356 0.950 . S
C1352 C1361 1.390 . S
C1353 C1352 1.387 . S
C1353 C1355 1.387 . S
H1354 C1361 0.950 . S
C1355 C1353 1.387 . S
C1355 C1357 1.390 . S
C1355 H1359 0.950 . S
H1356 C1352 0.950 . S
C1357 C1355 1.390 . S
C1357 C1358 1.387 . S
C1357 H1360 0.950 . S
C1358 C1357 1.387 . S
C1358 C1361 1.387 . S
H1359 C1355 0.950 . S
H1360 C1357 0.950 . S
C1361 C1352 1.390 . S
C1361 H1354 0.950 . S
C1361 C1358 1.387 . S
C1362 C1363 1.387 . S
C1362 H1366 0.950 . S
C1362 C1371 1.390 . S
C1363 C1362 1.387 . S
C1363 C1365 1.387 . S
H1364 C1371 0.953 1_655 S
C1365 C1363 1.387 . S
C1365 C1367 1.390 . S
C1365 H1369 0.950 . S
H1366 C1362 0.950 . S
C1367 C1365 1.390 . S
C1367 C1368 1.387 . S
C1367 H1370 0.950 . S
C1368 C1367 1.387 . S
C1368 C1371 1.387 . S
H1369 C1365 0.950 . S
H1370 C1367 0.950 . S
C1371 C1362 1.390 . S
C1371 H1364 0.953 1_455 S
C1371 C1368 1.387 . S
C1372 C1373 1.387 . S
C1372 H1376 0.950 . S
C1372 C1381 1.390 . S
C1373 C1372 1.387 . S
C1373 C1375 1.387 . S
H1374 C1381 0.950 . S
C1375 C1373 1.387 . S
C1375 C1377 1.390 . S
C1375 H1379 0.950 . S
H1376 C1372 0.950 . S
C1377 C1375 1.390 . S
C1377 C1378 1.387 . S
C1377 H1380 0.950 . S
C1378 C1377 1.387 . S
C1378 C1381 1.387 . S
H1379 C1375 0.950 . S
H1380 C1377 0.950 . S
C1381 C1372 1.390 . S
C1381 H1374 0.950 . S
C1381 C1378 1.387 . S
C1382 C1383 1.387 1_455 S
C1382 H1386 0.950 . S
C1382 C1391 1.390 . S
C1383 C1382 1.387 1_655 S
C1383 C1385 1.387 . S
H1384 C1391 0.950 . S
C1385 C1383 1.387 . S
C1385 C1387 1.390 . S
C1385 H1389 0.950 . S
H1386 C1382 0.950 . S
C1387 C1385 1.390 . S
C1387 C1388 1.387 . S
C1387 H1390 0.950 . S
C1388 C1387 1.387 . S
C1388 C1391 1.387 1_655 S
H1389 C1385 0.950 . S
H1390 C1387 0.950 . S
C1391 C1382 1.390 . S
C1391 H1384 0.950 . S
C1391 C1388 1.387 1_455 S
C1392 C1393 1.387 . S
C1392 H1396 0.950 . S
C1392 C1401 1.390 . S
C1393 C1392 1.387 . S
C1393 C1395 1.387 . S
H1394 C1401 0.950 . S
C1395 C1393 1.387 . S
C1395 C1397 1.390 . S
C1395 H1399 0.950 . S
H1396 C1392 0.950 . S
C1397 C1395 1.390 . S
C1397 C1398 1.387 . S
C1397 H1400 0.950 . S
C1398 C1397 1.387 . S
C1398 C1401 1.387 . S
H1399 C1395 0.950 . S
H1400 C1397 0.950 . S
C1401 C1392 1.390 . S
C1401 H1394 0.950 . S
C1401 C1398 1.387 . S
C1402 C1403 1.387 . S
C1402 H1406 0.950 . S
C1402 C1411 1.390 . S
C1403 C1402 1.387 . S
C1403 C1405 1.387 . S
H1404 C1411 0.950 . S
C1405 C1403 1.387 . S
C1405 C1407 1.390 . S
C1405 H1409 0.950 . S
H1406 C1402 0.950 . S
C1407 C1405 1.390 . S
C1407 C1408 1.387 . S
C1407 H1410 0.950 . S
C1408 C1407 1.387 . S
C1408 C1411 1.387 . S
H1409 C1405 0.950 . S
H1410 C1407 0.950 . S
C1411 C1402 1.390 . S
C1411 H1404 0.950 . S
C1411 C1408 1.387 . S
C1412 C1413 1.387 1_554 S
C1412 H1416 0.950 . S
C1412 C1421 1.390 . S
C1413 C1412 1.387 1_556 S
C1413 C1415 1.387 1_545 S
H1414 C1421 0.950 . S
C1415 C1413 1.387 1_565 S
C1415 C1417 1.390 . S
C1415 H1419 0.950 . S
H1416 C1412 0.950 . S
C1417 C1415 1.390 . S
C1417 C1418 1.387 1_556 S
C1417 H1420 0.950 . S
C1418 C1417 1.387 1_554 S
C1418 C1421 1.387 1_565 S
H1419 C1415 0.950 . S
H1420 C1417 0.950 . S
C1421 C1412 1.390 . S
C1421 H1414 0.950 . S
C1421 C1418 1.387 1_545 S
C1422 C1423 1.387 . S
C1422 H1426 0.950 . S
C1422 C1431 1.390 . S
C1423 C1422 1.387 . S
C1423 C1425 1.387 . S
H1424 C1431 0.950 . S
C1425 C1423 1.387 . S
C1425 C1427 1.390 . S
C1425 H1429 0.950 . S
H1426 C1422 0.950 . S
C1427 C1425 1.390 . S
C1427 C1428 1.387 . S
C1427 H1430 0.950 . S
C1428 C1427 1.387 . S
C1428 C1431 1.387 . S
H1429 C1425 0.950 . S
H1430 C1427 0.950 . S
C1431 C1422 1.390 . S
C1431 H1424 0.950 . S
C1431 C1428 1.387 . S
C1432 C1433 1.387 . S
C1432 H1436 0.950 1_545 S
C1432 C1441 1.390 . S
C1433 C1432 1.387 . S
C1433 C1435 1.387 . S
H1434 C1441 0.950 . S
C1435 C1433 1.387 . S
C1435 C1437 1.390 . S
C1435 H1439 0.950 . S
H1436 C1432 0.950 1_565 S
C1437 C1435 1.390 . S
C1437 C1438 1.387 . S
C1437 H1440 0.950 . S
C1438 C1437 1.387 . S
C1438 C1441 1.387 . S
H1439 C1435 0.950 . S
H1440 C1437 0.950 . S
C1441 C1432 1.390 . S
C1441 H1434 0.950 . S
C1441 C1438 1.387 . S
C1442 C1443 1.387 . S
C1442 H1446 0.950 . S
C1442 C1451 1.390 . S
C1443 C1442 1.387 . S
C1443 C1445 1.387 . S
H1444 C1451 0.950 . S
C1445 C1443 1.387 . S
C1445 C1447 1.390 . S
C1445 H1449 0.950 . S
H1446 C1442 0.950 . S
C1447 C1445 1.390 . S
C1447 C1448 1.387 . S
C1447 H1450 0.950 . S
C1448 C1447 1.387 . S
C1448 C1451 1.387 . S
H1449 C1445 0.950 . S
H1450 C1447 0.950 . S
C1451 C1442 1.390 . S
C1451 H1444 0.950 . S
C1451 C1448 1.387 . S
C1452 C1453 1.387 . S
C1452 H1456 0.950 . S
C1452 C1461 1.390 . S
C1453 C1452 1.387 . S
C1453 C1455 1.387 . S
H1454 C1461 0.950 . S
C1455 C1453 1.387 . S
C1455 C1457 1.390 . S
C1455 H1459 0.950 . S
H1456 C1452 0.950 . S
C1457 C1455 1.390 . S
C1457 C1458 1.387 . S
C1457 H1460 0.950 . S
C1458 C1457 1.387 . S
C1458 C1461 1.387 . S
H1459 C1455 0.950 . S
H1460 C1457 0.950 . S
C1461 C1452 1.390 . S
C1461 H1454 0.950 . S
C1461 C1458 1.387 . S
C1462 C1463 1.387 . S
C1462 H1466 0.950 . S
C1462 C1471 1.390 . S
C1463 C1462 1.387 . S
C1463 C1465 1.387 . S
H1464 C1471 0.950 . S
C1465 C1463 1.387 . S
C1465 C1467 1.390 . S
C1465 H1469 0.950 . S
H1466 C1462 0.950 . S
C1467 C1465 1.390 . S
C1467 C1468 1.387 . S
C1467 H1470 0.950 . S
C1468 C1467 1.387 . S
C1468 C1471 1.387 . S
H1469 C1465 0.950 . S
H1470 C1467 0.950 . S
C1471 C1462 1.390 . S
C1471 H1464 0.950 . S
C1471 C1468 1.387 . S
C1472 C1473 1.387 . S
C1472 H1476 0.950 . S
C1472 C1481 1.390 . S
C1473 C1472 1.387 . S
C1473 C1475 1.387 . S
H1474 C1481 0.950 . S
C1475 C1473 1.387 . S
C1475 C1477 1.390 . S
C1475 H1479 0.950 . S
H1476 C1472 0.950 . S
C1477 C1475 1.390 . S
C1477 C1478 1.387 . S
C1477 H1480 0.950 . S
C1478 C1477 1.387 . S
C1478 C1481 1.387 . S
H1479 C1475 0.950 . S
H1480 C1477 0.950 . S
C1481 C1472 1.390 . S
C1481 H1474 0.950 . S
C1481 C1478 1.387 . S
C1482 C1483 1.399 . S
C1482 H1486 0.938 1_545 S
C1482 C1491 1.391 1_545 S
C1483 C1482 1.399 . S
C1483 C1485 1.387 . S
H1484 C1491 0.950 . S
C1485 C1483 1.387 . S
C1485 C1487 1.390 . S
C1485 H1489 0.950 . S
H1486 C1482 0.938 1_565 S
C1487 C1485 1.390 . S
C1487 C1488 1.387 . S
C1487 H1490 0.950 . S
C1488 C1487 1.387 . S
C1488 C1491 1.387 1_545 S
H1489 C1485 0.950 . S
H1490 C1487 0.950 . S
C1491 C1482 1.391 1_565 S
C1491 H1484 0.950 . S
C1491 C1488 1.387 1_565 S
C1492 C1493 1.387 . S
C1492 H1496 0.950 . S
C1492 C1501 1.390 . S
C1493 C1492 1.387 . S
C1493 C1495 1.387 . S
H1494 C1501 0.950 . S
C1495 C1493 1.387 . S
C1495 C1497 1.390 . S
C1495 H1499 0.950 . S
H1496 C1492 0.950 . S
C1497 C1495 1.390 . S
C1497 C1498 1.387 . S
C1497 H1500 0.950 . S
C1498 C1497 1.387 . S
C1498 C1501 1.387 . S
H1499 C1495 0.950 . S
H1500 C1497 0.950 . S
C1501 C1492 1.390 . S
C1501 H1494 0.950 . S
C1501 C1498 1.387 . S
C1502 C1503 1.387 . S
C1502 H1506 0.950 . S
C1502 C1511 1.390 . S
C1503 C1502 1.387 . S
C1503 C1505 1.387 . S
H1504 C1511 0.950 . S
C1505 C1503 1.387 . S
C1505 C1507 1.390 . S
C1505 H1509 0.950 . S
H1506 C1502 0.950 . S
C1507 C1505 1.390 . S
C1507 C1508 1.387 . S
C1507 H1510 0.950 . S
C1508 C1507 1.387 . S
C1508 C1511 1.387 . S
H1509 C1505 0.950 . S
H1510 C1507 0.950 . S
C1511 C1502 1.390 . S
C1511 H1504 0.950 . S
C1511 C1508 1.387 . S
C1512 C1513 1.387 . S
C1512 H1516 0.950 . S
C1512 C1521 1.390 . S
C1513 C1512 1.387 . S
C1513 C1515 1.387 . S
H1514 C1521 0.950 . S
C1515 C1513 1.387 . S
C1515 C1517 1.390 . S
C1515 H1519 0.950 . S
H1516 C1512 0.950 . S
C1517 C1515 1.390 . S
C1517 C1518 1.387 . S
C1517 H1520 0.950 . S
C1518 C1517 1.387 . S
C1518 C1521 1.387 . S
H1519 C1515 0.950 . S
H1520 C1517 0.950 . S
C1521 C1512 1.390 . S
C1521 H1514 0.950 . S
C1521 C1518 1.387 . S
C1522 C1523 1.387 . S
C1522 H1526 0.950 1_545 S
C1522 C1531 1.390 . S
C1523 C1522 1.387 . S
C1523 C1525 1.387 . S
H1524 C1531 0.950 1_565 S
C1525 C1523 1.387 . S
C1525 C1527 1.390 . S
C1525 H1529 0.950 . S
H1526 C1522 0.950 1_565 S
C1527 C1525 1.390 . S
C1527 C1528 1.387 . S
C1527 H1530 0.950 . S
C1528 C1527 1.387 . S
C1528 C1531 1.387 . S
H1529 C1525 0.950 . S
H1530 C1527 0.950 . S
C1531 C1522 1.390 . S
C1531 H1524 0.950 1_545 S
C1531 C1528 1.387 . S
C1532 C1533 1.387 . S
C1532 H1536 0.950 . S
C1532 C1541 1.390 . S
C1533 C1532 1.387 . S
C1533 C1535 1.387 . S
H1534 C1541 0.950 . S
C1535 C1533 1.387 . S
C1535 C1537 1.390 . S
C1535 H1539 0.950 . S
H1536 C1532 0.950 . S
C1537 C1535 1.390 . S
C1537 C1538 1.387 . S
C1537 H1540 0.950 . S
C1538 C1537 1.387 . S
C1538 C1541 1.387 . S
H1539 C1535 0.950 . S
H1540 C1537 0.950 . S
C1541 C1532 1.390 . S
C1541 H1534 0.950 . S
C1541 C1538 1.387 . S
C1542 C1543 1.387 . S
C1542 H1546 0.950 . S
C1542 C1551 1.390 . S
C1543 C1542 1.387 . S
C1543 C1545 1.387 . S
H1544 C1551 0.950 . S
C1545 C1543 1.387 . S
C1545 C1547 1.390 . S
C1545 H1549 0.950 . S
H1546 C1542 0.950 . S
C1547 C1545 1.390 . S
C1547 C1548 1.387 . S
C1547 H1550 0.950 . S
C1548 C1547 1.387 . S
C1548 C1551 1.387 . S
H1549 C1545 0.950 . S
H1550 C1547 0.950 . S
C1551 C1542 1.390 . S
C1551 H1544 0.950 . S
C1551 C1548 1.387 . S
C1552 C1553 1.387 . S
C1552 H1556 0.950 . S
C1552 C1561 1.390 . S
C1553 C1552 1.387 . S
C1553 C1555 1.387 . S
H1554 C1561 0.950 . S
C1555 C1553 1.387 . S
C1555 C1557 1.390 . S
C1555 H1559 0.950 . S
H1556 C1552 0.950 . S
C1557 C1555 1.390 . S
C1557 C1558 1.387 . S
C1557 H1560 0.950 . S
C1558 C1557 1.387 . S
C1558 C1561 1.387 . S
H1559 C1555 0.950 . S
H1560 C1557 0.950 . S
C1561 C1552 1.390 . S
C1561 H1554 0.950 . S
C1561 C1558 1.387 . S
C1562 C1563 1.387 1_656 S
C1562 H1566 0.950 . S
C1562 C1571 1.390 . S
C1563 C1562 1.387 1_454 S
C1563 C1565 1.387 . S
H1564 C1571 0.950 . S
C1565 C1563 1.387 . S
C1565 C1567 1.390 1_554 S
C1565 H1569 0.950 . S
H1566 C1562 0.950 . S
C1567 C1565 1.390 1_556 S
C1567 C1568 1.387 . S
C1567 H1570 0.950 . S
C1568 C1567 1.387 . S
C1568 C1571 1.387 1_455 S
H1569 C1565 0.950 . S
H1570 C1567 0.950 . S
C1571 C1562 1.390 . S
C1571 H1564 0.950 . S
C1571 C1568 1.387 1_655 S
C1572 C1573 1.387 . S
C1572 H1576 0.950 . S
C1572 C1581 1.390 . S
C1573 C1572 1.387 . S
C1573 C1575 1.387 . S
H1574 C1581 0.950 . S
C1575 C1573 1.387 . S
C1575 C1577 1.390 . S
C1575 H1579 0.950 . S
H1576 C1572 0.950 . S
C1577 C1575 1.390 . S
C1577 C1578 1.387 . S
C1577 H1580 0.950 . S
C1578 C1577 1.387 . S
C1578 C1581 1.387 . S
H1579 C1575 0.950 . S
H1580 C1577 0.950 . S
C1581 C1572 1.390 . S
C1581 H1574 0.950 . S
C1581 C1578 1.387 . S
C1582 C1583 1.387 . S
C1582 H1586 0.950 . S
C1582 C1591 1.390 1_554 S
C1583 C1582 1.387 . S
C1583 C1585 1.387 1_554 S
H1584 C1591 0.950 1_554 S
C1585 C1583 1.387 1_556 S
C1585 C1587 1.390 . S
C1585 H1589 0.950 . S
H1586 C1582 0.950 . S
C1587 C1585 1.390 . S
C1587 C1588 1.387 . S
C1587 H1590 0.950 . S
C1588 C1587 1.387 . S
C1588 C1591 1.387 . S
H1589 C1585 0.950 . S
H1590 C1587 0.950 . S
C1591 C1582 1.390 1_556 S
C1591 H1584 0.950 1_556 S
C1591 C1588 1.387 . S
C1592 C1593 1.387 . S
C1592 H1596 0.950 . S
C1592 C1601 1.390 . S
C1593 C1592 1.387 . S
C1593 C1595 1.387 . S
H1594 C1601 0.950 . S
C1595 C1593 1.387 . S
C1595 C1597 1.390 . S
C1595 H1599 0.950 . S
H1596 C1592 0.950 . S
C1597 C1595 1.390 . S
C1597 C1598 1.387 . S
C1597 H1600 0.950 . S
C1598 C1597 1.387 . S
C1598 C1601 1.387 . S
H1599 C1595 0.950 . S
H1600 C1597 0.950 . S
C1601 C1592 1.390 . S
C1601 H1594 0.950 . S
C1601 C1598 1.387 . S
C1602 C1603 1.387 . S
C1602 H1606 0.950 . S
C1602 C1611 1.390 . S
C1603 C1602 1.387 . S
C1603 C1605 1.387 . S
H1604 C1611 0.950 . S
C1605 C1603 1.387 . S
C1605 C1607 1.390 . S
C1605 H1609 0.950 . S
H1606 C1602 0.950 . S
C1607 C1605 1.390 . S
C1607 C1608 1.387 . S
C1607 H1610 0.950 . S
C1608 C1607 1.387 . S
C1608 C1611 1.387 . S
H1609 C1605 0.950 . S
H1610 C1607 0.950 . S
C1611 C1602 1.390 . S
C1611 H1604 0.950 . S
C1611 C1608 1.387 . S
C1612 C1613 1.387 . S
C1612 H1616 0.950 . S
C1612 C1621 1.390 . S
C1613 C1612 1.387 . S
C1613 C1615 1.387 . S
H1614 C1621 0.950 . S
C1615 C1613 1.387 . S
C1615 C1617 1.390 . S
C1615 H1619 0.950 . S
H1616 C1612 0.950 . S
C1617 C1615 1.390 . S
C1617 C1618 1.387 . S
C1617 H1620 0.950 . S
C1618 C1617 1.387 . S
C1618 C1621 1.387 . S
H1619 C1615 0.950 . S
H1620 C1617 0.950 . S
C1621 C1612 1.390 . S
C1621 H1614 0.950 . S
C1621 C1618 1.387 . S
C1622 C1623 1.387 . S
C1622 H1626 0.950 . S
C1622 C1631 1.390 . S
C1623 C1622 1.387 . S
C1623 C1625 1.387 . S
H1624 C1631 0.950 . S
C1625 C1623 1.387 . S
C1625 C1627 1.390 . S
C1625 H1629 0.950 . S
H1626 C1622 0.950 . S
C1627 C1625 1.390 . S
C1627 C1628 1.387 . S
C1627 H1630 0.950 . S
C1628 C1627 1.387 . S
C1628 C1631 1.387 . S
H1629 C1625 0.950 . S
H1630 C1627 0.950 . S
C1631 C1622 1.390 . S
C1631 H1624 0.950 . S
C1631 C1628 1.387 . S
C1632 C1633 1.387 . S
C1632 H1636 0.950 . S
C1632 C1641 1.390 . S
C1633 C1632 1.387 . S
C1633 C1635 1.387 . S
H1634 C1641 0.950 . S
C1635 C1633 1.387 . S
C1635 C1637 1.390 . S
C1635 H1639 0.950 . S
H1636 C1632 0.950 . S
C1637 C1635 1.390 . S
C1637 C1638 1.387 . S
C1637 H1640 0.950 . S
C1638 C1637 1.387 . S
C1638 C1641 1.387 . S
H1639 C1635 0.950 . S
H1640 C1637 0.950 . S
C1641 C1632 1.390 . S
C1641 H1634 0.950 . S
C1641 C1638 1.387 . S
C1642 C1643 1.387 . S
C1642 H1646 0.950 . S
C1642 C1651 1.390 . S
C1643 C1642 1.387 . S
C1643 C1645 1.387 . S
H1644 C1651 0.950 . S
C1645 C1643 1.387 . S
C1645 C1647 1.390 . S
C1645 H1649 0.950 . S
H1646 C1642 0.950 . S
C1647 C1645 1.390 . S
C1647 C1648 1.387 . S
C1647 H1650 0.950 . S
C1648 C1647 1.387 . S
C1648 C1651 1.387 . S
H1649 C1645 0.950 . S
H1650 C1647 0.950 . S
C1651 C1642 1.390 . S
C1651 H1644 0.950 . S
C1651 C1648 1.387 . S
C1652 C1653 1.387 . S
C1652 H1656 0.950 . S
C1652 C1661 1.390 . S
C1653 C1652 1.387 . S
C1653 C1655 1.387 . S
H1654 C1661 0.950 . S
C1655 C1653 1.387 . S
C1655 C1657 1.390 . S
C1655 H1659 0.950 . S
H1656 C1652 0.950 . S
C1657 C1655 1.390 . S
C1657 C1658 1.387 . S
C1657 H1660 0.950 . S
C1658 C1657 1.387 . S
C1658 C1661 1.387 . S
H1659 C1655 0.950 . S
H1660 C1657 0.950 . S
C1661 C1652 1.390 . S
C1661 H1654 0.950 . S
C1661 C1658 1.387 . S
C1662 C1663 1.387 . S
C1662 H1666 0.950 . S
C1662 C1671 1.390 . S
C1663 C1662 1.387 . S
C1663 C1665 1.387 . S
H1664 C1671 0.950 . S
C1665 C1663 1.387 . S
C1665 C1667 1.390 . S
C1665 H1669 0.950 . S
H1666 C1662 0.950 . S
C1667 C1665 1.390 . S
C1667 C1668 1.387 . S
C1667 H1670 0.950 . S
C1668 C1667 1.387 . S
C1668 C1671 1.387 . S
H1669 C1665 0.950 . S
H1670 C1667 0.950 . S
C1671 C1662 1.390 . S
C1671 H1664 0.950 . S
C1671 C1668 1.387 . S
C1672 C1673 1.387 . S
C1672 H1676 0.950 . S
C1672 C1681 1.390 . S
C1673 C1672 1.387 . S
C1673 C1675 1.387 1_556 S
H1674 C1681 0.950 . S
C1675 C1673 1.387 1_554 S
C1675 C1677 1.390 . S
C1675 H1679 0.950 . S
H1676 C1672 0.950 . S
C1677 C1675 1.390 . S
C1677 C1678 1.387 1_554 S
C1677 H1680 0.950 . S
C1678 C1677 1.387 1_556 S
C1678 C1681 1.387 . S
H1679 C1675 0.950 . S
H1680 C1677 0.950 . S
C1681 C1672 1.390 . S
C1681 H1674 0.950 . S
C1681 C1678 1.387 . S
C1682 C1683 1.387 . S
C1682 H1686 0.950 . S
C1682 C1691 1.390 . S
C1683 C1682 1.387 . S
C1683 C1685 1.387 . S
H1684 C1691 0.950 . S
C1685 C1683 1.387 . S
C1685 C1687 1.390 . S
C1685 H1689 0.950 . S
H1686 C1682 0.950 . S
C1687 C1685 1.390 . S
C1687 C1688 1.387 . S
C1687 H1690 0.950 . S
C1688 C1687 1.387 . S
C1688 C1691 1.387 . S
H1689 C1685 0.950 . S
H1690 C1687 0.950 . S
C1691 C1682 1.390 . S
C1691 H1684 0.950 . S
C1691 C1688 1.387 . S
C1692 C1693 1.349 1_556 S
C1692 H1696 0.976 . S
C1692 C1701 1.404 . S
C1693 C1692 1.349 1_554 S
C1693 C1695 1.387 . S
H1694 C1701 0.950 . S
C1695 C1693 1.387 . S
C1695 C1697 1.390 . S
C1695 H1699 0.950 . S
H1696 C1692 0.976 . S
C1697 C1695 1.390 . S
C1697 C1698 1.387 . S
C1697 H1700 0.950 . S
C1698 C1697 1.387 . S
C1698 C1701 1.387 1_554 S
H1699 C1695 0.950 . S
H1700 C1697 0.950 . S
C1701 C1692 1.404 . S
C1701 H1694 0.950 . S
C1701 C1698 1.387 1_556 S
C1702 C1703 1.387 . S
C1702 H1706 0.950 . S
C1702 C1711 1.364 1_545 S
C1703 C1702 1.387 . S
C1703 C1705 1.387 1_545 S
H1704 C1711 0.952 1_545 S
C1705 C1703 1.387 1_565 S
C1705 C1707 1.390 . S
C1705 H1709 0.950 . S
H1706 C1702 0.950 . S
C1707 C1705 1.390 . S
C1707 C1708 1.387 . S
C1707 H1710 0.950 . S
C1708 C1707 1.387 . S
C1708 C1711 1.414 . S
H1709 C1705 0.950 . S
H1710 C1707 0.950 . S
C1711 C1702 1.364 1_565 S
C1711 H1704 0.952 1_565 S
C1711 C1708 1.414 . S
C1238 C225 1.587 . S
C1233 C60 1.597 . S
C1248 C284 1.345 . S
C1243 C76 1.338 . S
C1253 C81 1.701 . S
C1258 C401 1.699 . S
C1268 C469 1.614 1_455 S
C1263 C48 1.627 . S
C1278 C548 1.540 . S
C1273 C115 1.541 . S
C1288 C673 1.593 . S
C1283 C136 1.600 . S
C1293 C131 1.384 . S
C1298 C733 1.382 . S
C1308 C841 1.586 . S
C1303 C104 1.567 . S
C1313 C126 1.575 . S
C1318 C937 1.579 . S
C1328 C997 1.456 . S
C1323 C103 1.461 . S
C1333 C120 1.433 . S
C1338 C900 1.437 . S
C1348 C1017 1.439 . S
C1343 C142 1.446 . S
C1353 C82 1.494 . S
C1358 C1085 1.500 . S
C1363 C54 1.794 . S
C1368 C1076 1.799 . S
C1373 C65 1.420 . S
C1378 C1105 1.431 . S
C1383 C71 1.304 . S
C1388 C1113 1.319 . S
C1393 C37 1.591 . S
C1398 C497 1.589 . S
C1403 C158 1.961 . S
C1408 C460 1.953 . S
C1418 C196 1.414 . S
C1413 C169 1.421 . S
C1428 C293 1.309 . S
C1423 C98 1.295 . S
C1433 C49 1.729 1_545 S
C1438 C557 1.752 . S
C1448 C849 1.449 . S
C1443 C125 1.446 . S
C1458 C577 1.424 . S
C1453 C109 1.435 . S
C1468 C761 1.792 . S
C1463 C137 1.783 . S
C1478 C753 1.587 . S
C1473 C159 1.597 . S
C1483 C175 1.338 . S
C1488 C821 1.345 . S
C1493 C92 1.700 . S
C1498 C585 1.698 . S
C1508 C636 1.614 . S
C1503 C147 1.627 . S
C1513 C38 1.539 . S
C1518 C381 1.539 . S
C1528 C489 1.594 1_455 S
C1523 C4 1.601 . S
C1538 C205 1.382 . S
C1533 C21 1.384 . S
C1548 C321 1.586 . S
C1543 C27 1.566 . S
C1553 C16 1.575 . S
C1558 C1025 1.579 . S
C1563 C26 1.461 . S
C1568 C909 1.456 . S
C1573 C43 1.434 . S
C1578 C988 1.437 . S
C1583 C10 1.446 . S
C1588 C929 1.438 . S
C1598 C1173 1.499 . S
C1593 C93 1.493 . S
C1608 C1164 1.799 . S
C1603 C153 1.794 . S
C1618 C1193 1.432 . S
C1613 C164 1.422 . S
C1623 C170 1.304 1_554 S
C1628 C1201 1.319 . S
C1633 C114 1.591 . S
C1638 C665 1.589 . S
C1648 C645 1.953 . S
C1643 C59 1.961 . S
C1658 C724 1.414 . S
C1653 C70 1.421 . S
C1668 C812 1.307 . S
C1663 C87 1.293 . S
C1673 C148 1.729 . S
C1678 C372 1.752 . S
C1688 C313 1.450 . S
C1683 C15 1.447 . S
C1693 C32 1.435 . S
C1698 C409 1.424 . S
C1708 C233 1.792 . S
C1703 C5 1.783 . S
