# Generated by pormake.
# Topology ptr, (4,4)-cn, num edge types: 1
# Building blocks:
#     Node 0, Type 0, BuildingBlock: CEKHIL_clean_sbu_0, # of connection points: 4
#     Node 1, Type 0, BuildingBlock: CEKHIL_clean_sbu_0, # of connection points: 4
#     Node 2, Type 0, BuildingBlock: CEKHIL_clean_sbu_0, # of connection points: 4
#     Node 3, Type 0, BuildingBlock: CEKHIL_clean_sbu_0, # of connection points: 4
#     Node 4, Type 0, BuildingBlock: CEKHIL_clean_sbu_0, # of connection points: 4
#     Node 5, Type 0, BuildingBlock: CEKHIL_clean_sbu_0, # of connection points: 4
#     Node 6, Type 0, BuildingBlock: CEKHIL_clean_sbu_0, # of connection points: 4
#     Node 7, Type 0, BuildingBlock: CEKHIL_clean_sbu_0, # of connection points: 4
#     Node 8, Type 0, BuildingBlock: CEKHIL_clean_sbu_0, # of connection points: 4
#     Node 9, Type 0, BuildingBlock: CEKHIL_clean_sbu_0, # of connection points: 4
#     Node 10, Type 0, BuildingBlock: CEKHIL_clean_sbu_0, # of connection points: 4
#     Node 11, Type 0, BuildingBlock: CEKHIL_clean_sbu_0, # of connection points: 4
#     Node 12, Type 0, BuildingBlock: CEKHIL_clean_sbu_0, # of connection points: 4
#     Node 13, Type 0, BuildingBlock: CEKHIL_clean_sbu_0, # of connection points: 4
#     Node 14, Type 0, BuildingBlock: CEKHIL_clean_sbu_0, # of connection points: 4
#     Node 15, Type 0, BuildingBlock: CEKHIL_clean_sbu_0, # of connection points: 4
#     Node 16, Type 0, BuildingBlock: CEKHIL_clean_sbu_0, # of connection points: 4
#     Node 17, Type 0, BuildingBlock: CEKHIL_clean_sbu_0, # of connection points: 4
#     Node 18, Type 1, BuildingBlock: MUDLON_clean_linker_0, # of connection points: 4
#     Node 19, Type 1, BuildingBlock: MUDLON_clean_linker_0, # of connection points: 4
#     Node 20, Type 1, BuildingBlock: MUDLON_clean_linker_0, # of connection points: 4
#     Node 21, Type 1, BuildingBlock: MUDLON_clean_linker_0, # of connection points: 4
#     Node 22, Type 1, BuildingBlock: MUDLON_clean_linker_0, # of connection points: 4
#     Node 23, Type 1, BuildingBlock: MUDLON_clean_linker_0, # of connection points: 4
#     Node 24, Type 1, BuildingBlock: MUDLON_clean_linker_0, # of connection points: 4
#     Node 25, Type 1, BuildingBlock: MUDLON_clean_linker_0, # of connection points: 4
#     Node 26, Type 1, BuildingBlock: MUDLON_clean_linker_0, # of connection points: 4
#     Node 27, Type 1, BuildingBlock: MUDLON_clean_linker_0, # of connection points: 4
#     Node 28, Type 1, BuildingBlock: MUDLON_clean_linker_0, # of connection points: 4
#     Node 29, Type 1, BuildingBlock: MUDLON_clean_linker_0, # of connection points: 4
#     Node 30, Type 1, BuildingBlock: MUDLON_clean_linker_0, # of connection points: 4
#     Node 31, Type 1, BuildingBlock: MUDLON_clean_linker_0, # of connection points: 4
#     Node 32, Type 1, BuildingBlock: MUDLON_clean_linker_0, # of connection points: 4
#     Node 33, Type 1, BuildingBlock: MUDLON_clean_linker_0, # of connection points: 4
#     Node 34, Type 1, BuildingBlock: MUDLON_clean_linker_0, # of connection points: 4
#     Node 35, Type 1, BuildingBlock: MUDLON_clean_linker_0, # of connection points: 4
#     Edge 36, Type (0, 1), BuildingBlock: XUDNAN_clean_linker_2, # of connection points: 2
#     Edge 37, Type (0, 1), BuildingBlock: XUDNAN_clean_linker_2, # of connection points: 2
#     Edge 38, Type (0, 1), BuildingBlock: XUDNAN_clean_linker_2, # of connection points: 2
#     Edge 39, Type (0, 1), BuildingBlock: XUDNAN_clean_linker_2, # of connection points: 2
#     Edge 40, Type (0, 1), BuildingBlock: XUDNAN_clean_linker_2, # of connection points: 2
#     Edge 41, Type (0, 1), BuildingBlock: XUDNAN_clean_linker_2, # of connection points: 2
#     Edge 42, Type (0, 1), BuildingBlock: XUDNAN_clean_linker_2, # of connection points: 2
#     Edge 43, Type (0, 1), BuildingBlock: XUDNAN_clean_linker_2, # of connection points: 2
#     Edge 44, Type (0, 1), BuildingBlock: XUDNAN_clean_linker_2, # of connection points: 2
#     Edge 45, Type (0, 1), BuildingBlock: XUDNAN_clean_linker_2, # of connection points: 2
#     Edge 46, Type (0, 1), BuildingBlock: XUDNAN_clean_linker_2, # of connection points: 2
#     Edge 47, Type (0, 1), BuildingBlock: XUDNAN_clean_linker_2, # of connection points: 2
#     Edge 48, Type (0, 1), BuildingBlock: XUDNAN_clean_linker_2, # of connection points: 2
#     Edge 49, Type (0, 1), BuildingBlock: XUDNAN_clean_linker_2, # of connection points: 2
#     Edge 50, Type (0, 1), BuildingBlock: XUDNAN_clean_linker_2, # of connection points: 2
#     Edge 51, Type (0, 1), BuildingBlock: XUDNAN_clean_linker_2, # of connection points: 2
#     Edge 52, Type (0, 1), BuildingBlock: XUDNAN_clean_linker_2, # of connection points: 2
#     Edge 53, Type (0, 1), BuildingBlock: XUDNAN_clean_linker_2, # of connection points: 2
#     Edge 54, Type (0, 1), BuildingBlock: XUDNAN_clean_linker_2, # of connection points: 2
#     Edge 55, Type (0, 1), BuildingBlock: XUDNAN_clean_linker_2, # of connection points: 2
#     Edge 56, Type (0, 1), BuildingBlock: XUDNAN_clean_linker_2, # of connection points: 2
#     Edge 57, Type (0, 1), BuildingBlock: XUDNAN_clean_linker_2, # of connection points: 2
#     Edge 58, Type (0, 1), BuildingBlock: XUDNAN_clean_linker_2, # of connection points: 2
#     Edge 59, Type (0, 1), BuildingBlock: XUDNAN_clean_linker_2, # of connection points: 2
#     Edge 60, Type (0, 1), BuildingBlock: XUDNAN_clean_linker_2, # of connection points: 2
#     Edge 61, Type (0, 1), BuildingBlock: XUDNAN_clean_linker_2, # of connection points: 2
#     Edge 62, Type (0, 1), BuildingBlock: XUDNAN_clean_linker_2, # of connection points: 2
#     Edge 63, Type (0, 1), BuildingBlock: XUDNAN_clean_linker_2, # of connection points: 2
#     Edge 64, Type (0, 1), BuildingBlock: XUDNAN_clean_linker_2, # of connection points: 2
#     Edge 65, Type (0, 1), BuildingBlock: XUDNAN_clean_linker_2, # of connection points: 2
#     Edge 66, Type (0, 1), BuildingBlock: XUDNAN_clean_linker_2, # of connection points: 2
#     Edge 67, Type (0, 1), BuildingBlock: XUDNAN_clean_linker_2, # of connection points: 2
#     Edge 68, Type (0, 1), BuildingBlock: XUDNAN_clean_linker_2, # of connection points: 2
#     Edge 69, Type (0, 1), BuildingBlock: XUDNAN_clean_linker_2, # of connection points: 2
#     Edge 70, Type (0, 1), BuildingBlock: XUDNAN_clean_linker_2, # of connection points: 2
#     Edge 71, Type (0, 1), BuildingBlock: XUDNAN_clean_linker_2, # of connection points: 2
#     Edge 72, Type (0, 1), BuildingBlock: XUDNAN_clean_linker_2, # of connection points: 2
#     Edge 73, Type (0, 1), BuildingBlock: XUDNAN_clean_linker_2, # of connection points: 2
#     Edge 74, Type (0, 1), BuildingBlock: XUDNAN_clean_linker_2, # of connection points: 2
#     Edge 75, Type (0, 1), BuildingBlock: XUDNAN_clean_linker_2, # of connection points: 2
#     Edge 76, Type (0, 1), BuildingBlock: XUDNAN_clean_linker_2, # of connection points: 2
#     Edge 77, Type (0, 1), BuildingBlock: XUDNAN_clean_linker_2, # of connection points: 2
#     Edge 78, Type (0, 1), BuildingBlock: XUDNAN_clean_linker_2, # of connection points: 2
#     Edge 79, Type (0, 1), BuildingBlock: XUDNAN_clean_linker_2, # of connection points: 2
#     Edge 80, Type (0, 1), BuildingBlock: XUDNAN_clean_linker_2, # of connection points: 2
#     Edge 81, Type (0, 1), BuildingBlock: XUDNAN_clean_linker_2, # of connection points: 2
#     Edge 82, Type (0, 1), BuildingBlock: XUDNAN_clean_linker_2, # of connection points: 2
#     Edge 83, Type (0, 1), BuildingBlock: XUDNAN_clean_linker_2, # of connection points: 2
#     Edge 84, Type (0, 1), BuildingBlock: XUDNAN_clean_linker_2, # of connection points: 2
#     Edge 85, Type (0, 1), BuildingBlock: XUDNAN_clean_linker_2, # of connection points: 2
#     Edge 86, Type (0, 1), BuildingBlock: XUDNAN_clean_linker_2, # of connection points: 2
#     Edge 87, Type (0, 1), BuildingBlock: XUDNAN_clean_linker_2, # of connection points: 2
#     Edge 88, Type (0, 1), BuildingBlock: XUDNAN_clean_linker_2, # of connection points: 2
#     Edge 89, Type (0, 1), BuildingBlock: XUDNAN_clean_linker_2, # of connection points: 2
#     Edge 90, Type (0, 1), BuildingBlock: XUDNAN_clean_linker_2, # of connection points: 2
#     Edge 91, Type (0, 1), BuildingBlock: XUDNAN_clean_linker_2, # of connection points: 2
#     Edge 92, Type (0, 1), BuildingBlock: XUDNAN_clean_linker_2, # of connection points: 2
#     Edge 93, Type (0, 1), BuildingBlock: XUDNAN_clean_linker_2, # of connection points: 2
#     Edge 94, Type (0, 1), BuildingBlock: XUDNAN_clean_linker_2, # of connection points: 2
#     Edge 95, Type (0, 1), BuildingBlock: XUDNAN_clean_linker_2, # of connection points: 2
#     Edge 96, Type (0, 1), BuildingBlock: XUDNAN_clean_linker_2, # of connection points: 2
#     Edge 97, Type (0, 1), BuildingBlock: XUDNAN_clean_linker_2, # of connection points: 2
#     Edge 98, Type (0, 1), BuildingBlock: XUDNAN_clean_linker_2, # of connection points: 2
#     Edge 99, Type (0, 1), BuildingBlock: XUDNAN_clean_linker_2, # of connection points: 2
#     Edge 100, Type (0, 1), BuildingBlock: XUDNAN_clean_linker_2, # of connection points: 2
#     Edge 101, Type (0, 1), BuildingBlock: XUDNAN_clean_linker_2, # of connection points: 2
#     Edge 102, Type (0, 1), BuildingBlock: XUDNAN_clean_linker_2, # of connection points: 2
#     Edge 103, Type (0, 1), BuildingBlock: XUDNAN_clean_linker_2, # of connection points: 2
#     Edge 104, Type (0, 1), BuildingBlock: XUDNAN_clean_linker_2, # of connection points: 2
#     Edge 105, Type (0, 1), BuildingBlock: XUDNAN_clean_linker_2, # of connection points: 2
#     Edge 106, Type (0, 1), BuildingBlock: XUDNAN_clean_linker_2, # of connection points: 2
#     Edge 107, Type (0, 1), BuildingBlock: XUDNAN_clean_linker_2, # of connection points: 2
# Relax obj value: 0.033
# Max RMSD: 0.098
# Mean RMSD: 0.064
data_MOF--net-ptr--node1-CEKHIL_clean_sbu_0--node2-MUDLON_clean_linker_0--edge1-XUDNAN_clean_linker_2
_symmetry_space_group_name_H-M    P1
_symmetry_Int_Tables_number       1
_symmetry_cell_setting            triclinic
loop_
_symmetry_equiv_pos_as_xyz
'x, y, z'
_cell_length_a     105.34681
_cell_length_b     104.29682
_cell_length_c     64.221264
_cell_angle_alpha  90.905967
_cell_angle_beta   89.566593
_cell_angle_gamma 120.86951
loop_
_atom_site_label
_atom_site_type_symbol
_atom_site_fract_x
_atom_site_fract_y
_atom_site_fract_z
_atom_type_partial_charge
Co0 Co 0.00399 0.35667 0.01218 0.0
O1 O 0.00869 0.34437 0.02855 0.0
O2 O 0.0252 0.36672 0.01675 0.0
C3 C 0.98847 0.33816 0.99032 0.0
O4 O 0.00345 0.37212 0.9937 0.0
Co5 Co 0.97204 0.3506 0.01001 0.0
O6 O 0.97987 0.36546 0.98737 0.0
C7 C 0.99011 0.3653 0.04733 0.0
C8 C 0.02245 0.35482 0.02679 0.0
C9 C 0.99371 0.37389 0.98425 0.0
O10 O 1.00153 0.36642 0.03813 0.0
O11 O 0.9771 0.35818 0.03947 0.0
O12 O 0.00266 0.34515 0.98719 0.0
O13 O 0.98419 0.34167 0.00723 0.0
Co14 Co 0.65209 0.65113 0.01189 0.0
O15 O 0.66816 0.66084 0.99223 0.0
O16 O 0.65928 0.63803 0.00432 0.0
C17 C 0.66045 0.67088 0.03404 0.0
O18 O 0.63655 0.63738 0.03262 0.0
Co19 Co 0.63039 0.6619 0.02289 0.0
O20 O 0.62348 0.64713 0.04567 0.0
C21 C 0.62748 0.6462 0.98273 0.0
C22 C 0.66898 0.64883 0.99288 0.0
C23 C 0.6269 0.63706 0.04529 0.0
O24 O 0.6371 0.64287 0.98856 0.0
O25 O 0.62435 0.6547 0.99338 0.0
O26 O 0.66573 0.66204 0.03473 0.0
O27 O 0.65103 0.66808 0.01935 0.0
Co28 Co 0.35499 0.00256 0.00998 0.0
O29 O 0.34538 0.00848 0.99008 0.0
O30 O 0.36742 0.02356 0.00401 0.0
C31 C 0.33478 0.98951 0.03029 0.0
O32 O 0.36827 0.00118 0.03162 0.0
Co33 Co 0.34526 0.96964 0.01825 0.0
O34 O 0.35802 0.97777 0.04335 0.0
C35 C 0.3633 0.98464 0.98091 0.0
C36 C 0.35684 0.02186 0.99185 0.0
C37 C 0.36789 0.99158 0.04435 0.0
O38 O 0.36468 0.99715 0.98694 0.0
O39 O 0.35525 0.97236 0.99051 0.0
O40 O 0.34299 0.00394 0.03227 0.0
O41 O 0.33844 0.98358 0.01538 0.0
Co42 Co 0.00562 0.65186 0.00562 0.0
O43 O 0.9999 0.66047 0.98392 0.0
O44 O 0.9843 0.64168 0.00386 0.0
C45 C 0.02304 0.67372 0.02028 0.0
O46 O 0.00705 0.64011 0.02966 0.0
Co47 Co 0.03741 0.65724 0.00876 0.0
O48 O 0.03041 0.64563 0.03478 0.0
C49 C 0.01732 0.638 0.97519 0.0
C50 C 0.98634 0.65073 0.98881 0.0
C51 C 0.01677 0.63873 0.03979 0.0
O52 O 0.00625 0.63762 0.98447 0.0
O53 O 0.0307 0.64633 0.98135 0.0
O54 O 0.00916 0.66811 0.02501 0.0
O55 O 0.02571 0.6666 0.00601 0.0
Co56 Co 0.35159 0.35395 0.01333 0.0
O57 O 0.33552 0.34484 0.03313 0.0
O58 O 0.33993 0.36335 0.0122 0.0
C59 C 0.34865 0.33238 0.0001 0.0
O60 O 0.36625 0.36602 0.99052 0.0
Co61 Co 0.37891 0.35012 0.01408 0.0
O62 O 0.3837 0.35991 0.98657 0.0
C63 C 0.37674 0.37081 0.04418 0.0
C64 C 0.33169 0.3541 0.02652 0.0
C65 C 0.37745 0.36698 0.98086 0.0
O66 O 0.36495 0.36879 0.03521 0.0
O67 O 0.3832 0.36367 0.03891 0.0
O68 O 0.34042 0.33745 0.99355 0.0
O69 O 0.35754 0.33986 0.01518 0.0
Co70 Co 0.64916 0.00456 0.01813 0.0
O71 O 0.65803 0.99536 0.03335 0.0
O72 O 0.63724 0.983 0.01524 0.0
C73 C 0.67044 0.02241 0.00343 0.0
O74 O 0.63703 0.01008 0.99958 0.0
Co75 Co 0.6583 0.03772 0.02654 0.0
O76 O 0.64577 0.03478 0.00198 0.0
C77 C 0.63962 0.01449 0.05679 0.0
C78 C 0.64709 0.98262 0.0269 0.0
C79 C 0.63707 0.02192 0.994 0.0
O80 O 0.63751 0.00409 0.04367 0.0
O81 O 0.64867 0.02838 0.05357 0.0
O82 O 0.66329 0.00905 0.99521 0.0
O83 O 0.66514 0.02407 0.02069 0.0
Co84 Co 0.67114 0.68861 0.34995 0.0
O85 O 0.67356 0.67615 0.36927 0.0
O86 O 0.69164 0.6982 0.359 0.0
C87 C 0.6579 0.67011 0.32657 0.0
O88 O 0.67284 0.70428 0.32958 0.0
Co89 Co 0.63991 0.68277 0.33972 0.0
O90 O 0.65027 0.69704 0.31686 0.0
C91 C 0.65397 0.6971 0.37975 0.0
C92 C 0.68749 0.68627 0.36993 0.0
C93 C 0.66426 0.70576 0.31689 0.0
O94 O 0.6662 0.69836 0.3735 0.0
O95 O 0.64189 0.69005 0.36938 0.0
O96 O 0.67224 0.67701 0.32671 0.0
O97 O 0.65199 0.67378 0.34145 0.0
Co98 Co 0.31745 0.97973 0.34941 0.0
O99 O 0.33247 0.98753 0.32802 0.0
O100 O 0.32934 0.97063 0.35117 0.0
C101 C 0.32049 0.00179 0.36036 0.0
O102 O 0.30418 0.96943 0.37417 0.0
Co103 Co 0.28958 0.98242 0.34816 0.0
O104 O 0.28501 0.97315 0.37611 0.0
C105 C 0.29192 0.96133 0.31972 0.0
C106 C 0.33672 0.9788 0.33544 0.0
C107 C 0.29262 0.96792 0.38339 0.0
O108 O 0.30332 0.96335 0.32983 0.0
O109 O 0.2857 0.96894 0.32332 0.0
O110 O 0.32929 0.99739 0.36684 0.0
O111 O 0.31105 0.99343 0.34623 0.0
Co112 Co 0.02324 0.3343 0.34496 0.0
O113 O 0.01403 0.3375 0.32156 0.0
O114 O 0.03401 0.35529 0.33755 0.0
C115 C 1.002 0.32026 0.36265 0.0
O116 O 0.03555 0.33527 0.37006 0.0
Co117 Co 0.01606 0.30244 0.35534 0.0
O118 O 0.02838 0.312 0.38036 0.0
C119 C 0.03475 0.31775 0.31915 0.0
C120 C 0.02412 0.35153 0.32302 0.0
C121 C 0.03628 0.32614 0.38262 0.0
O122 O 0.03575 0.33001 0.32544 0.0
O123 O 0.0263 0.30518 0.32782 0.0
O124 O 0.00879 0.33473 0.36354 0.0
O125 O 0.00756 0.3147 0.34994 0.0
Co126 Co 0.66736 0.97988 0.34371 0.0
O127 O 0.66298 0.99125 0.32475 0.0
O128 O 0.64631 0.97225 0.34339 0.0
C129 C 0.68687 0.99992 0.35894 0.0
O130 O 0.66741 0.96604 0.36567 0.0
Co131 Co 0.69704 0.98045 0.34313 0.0
O132 O 0.6899 0.96891 0.36924 0.0
C133 C 0.67465 0.96355 0.31064 0.0
C134 C 0.64926 0.98272 0.33016 0.0
C135 C 0.67646 0.96317 0.37486 0.0
O136 O 0.6651 0.96544 0.32069 0.0
O137 O 0.68825 0.9698 0.31601 0.0
O138 O 0.67346 0.9957 0.36483 0.0
O139 O 0.68797 0.99259 0.34336 0.0
Co140 Co 0.02254 0.68487 0.35046 0.0
O141 O 0.00925 0.67181 0.3713 0.0
O142 O 0.01067 0.69277 0.36175 0.0
C143 C 0.01736 0.66647 0.3269 0.0
O144 O 0.03447 0.70079 0.32878 0.0
Co145 Co 0.04893 0.68167 0.33566 0.0
O146 O 0.05155 0.69647 0.31457 0.0
C147 C 0.05069 0.69647 0.37607 0.0
C148 C 0.00424 0.68082 0.37307 0.0
C149 C 0.04486 0.70375 0.31554 0.0
O150 O 0.0385 0.69607 0.37217 0.0
O151 O 0.05586 0.6902 0.36431 0.0
O152 O 0.00894 0.67215 0.32857 0.0
O153 O 0.02787 0.67121 0.34044 0.0
Co154 Co 0.31357 0.33539 0.35249 0.0
O155 O 0.32325 0.32887 0.37155 0.0
O156 O 0.30402 0.31394 0.35168 0.0
C157 C 0.33452 0.35401 0.33821 0.0
O158 O 0.30092 0.33719 0.33023 0.0
Co159 Co 0.31751 0.36697 0.35266 0.0
O160 O 0.30581 0.36065 0.32651 0.0
C161 C 0.30093 0.34575 0.38634 0.0
C162 C 0.31378 0.31536 0.36519 0.0
C163 C 0.29912 0.34696 0.32085 0.0
O164 O 0.30008 0.33479 0.37558 0.0
O165 O 0.30863 0.35939 0.38074 0.0
O166 O 0.32918 0.34029 0.33181 0.0
O167 O 0.32763 0.35584 0.35355 0.0
Co168 Co 0.34668 0.02554 0.67554 0.0
O169 O 0.35594 0.01783 0.69292 0.0
O170 O 0.36799 0.03886 0.67538 0.0
C171 C 0.33135 0.00373 0.65887 0.0
O172 O 0.34079 0.0367 0.65558 0.0
Co173 Co 0.31323 0.0137 0.68117 0.0
O174 O 0.31607 0.02642 0.65695 0.0
C175 C 0.33434 0.0359 0.71108 0.0
C176 C 0.36849 0.02943 0.6879 0.0
C177 C 0.32871 0.03584 0.64958 0.0
O178 O 0.34502 0.037 0.69989 0.0
O179 O 0.32074 0.02633 0.70724 0.0
O180 O 0.34499 0.0121 0.65295 0.0
O181 O 0.32782 0.00803 0.67582 0.0
Co182 Co 0.9841 0.31735 0.68579 0.0
O183 O 0.00275 0.32978 0.67221 0.0
O184 O 0.99528 0.30728 0.6847 0.0
C185 C 0.98518 0.33551 0.7066 0.0
O186 O 0.96613 0.30168 0.7018 0.0
Co187 Co 0.95839 0.32353 0.68152 0.0
O188 O 0.94818 0.30736 0.702 0.0
C189 C 0.96358 0.30703 0.64799 0.0
C190 C 0.0055 0.31922 0.67557 0.0
C191 C 0.95333 0.29922 0.70746 0.0
O192 O 0.97429 0.30767 0.65838 0.0
O193 O 0.95647 0.31335 0.65403 0.0
O194 O 0.992 0.3286 0.7117 0.0
O195 O 0.97911 0.33228 0.68838 0.0
Co196 Co 0.69207 0.66846 0.67899 0.0
O197 O 0.6846 0.67722 0.66008 0.0
O198 O 0.70216 0.68986 0.68348 0.0
C199 C 0.66992 0.64937 0.68917 0.0
O200 O 0.70222 0.66335 0.70171 0.0
Co201 Co 0.68671 0.63665 0.67059 0.0
O202 O 0.69399 0.63875 0.69952 0.0
C203 C 0.70935 0.66188 0.6463 0.0
C204 C 0.69382 0.68999 0.66876 0.0
C205 C 0.7012 0.65137 0.70886 0.0
O206 O 0.70744 0.67095 0.65784 0.0
O207 O 0.70148 0.64766 0.64796 0.0
O208 O 0.6752 0.6626 0.69741 0.0
O209 O 0.67739 0.64845 0.67374 0.0
Co210 Co 0.33816 0.31883 0.67522 0.0
O211 O 0.33531 0.32979 0.65382 0.0
O212 O 0.31748 0.31305 0.67382 0.0
C213 C 0.35861 0.33873 0.68911 0.0
O214 O 0.33695 0.30569 0.69926 0.0
Co215 Co 0.36671 0.31697 0.67644 0.0
O216 O 0.35848 0.30631 0.70296 0.0
C217 C 0.34402 0.30027 0.64437 0.0
C218 C 0.32141 0.32261 0.65883 0.0
C219 C 0.34531 0.30202 0.70882 0.0
O220 O 0.33477 0.30269 0.65429 0.0
O221 O 0.35767 0.30638 0.64941 0.0
O222 O 0.34555 0.33609 0.69438 0.0
O223 O 0.35881 0.33005 0.6748 0.0
Co224 Co 0.68319 0.01897 0.67778 0.0
O225 O 0.66786 0.0094 0.6987 0.0
O226 O 0.67078 0.0275 0.67804 0.0
C227 C 0.68119 0.99803 0.66374 0.0
O228 O 0.69661 0.0313 0.65397 0.0
Co229 Co 0.71184 0.01741 0.67637 0.0
O230 O 0.71606 0.02823 0.64976 0.0
C231 C 0.7091 0.03711 0.7073 0.0
C232 C 0.66334 0.01829 0.69282 0.0
C233 C 0.70834 0.03378 0.64416 0.0
O234 O 0.69682 0.03432 0.69902 0.0
O235 O 0.71616 0.03071 0.70141 0.0
O236 O 0.6719 0.00213 0.65854 0.0
O237 O 0.69043 0.00584 0.67834 0.0
Co238 Co 0.97926 0.67559 0.68706 0.0
O239 O 0.98924 0.67078 0.70761 0.0
O240 O 0.96695 0.6548 0.69526 0.0
C241 C 0.99898 0.68736 0.66556 0.0
O242 O 0.9657 0.67665 0.66527 0.0
Co243 Co 0.99091 0.70917 0.67738 0.0
O244 O 0.97543 0.70064 0.65567 0.0
C245 C 0.97414 0.69581 0.71609 0.0
C246 C 0.97782 0.65736 0.70752 0.0
C247 C 0.96557 0.68682 0.65422 0.0
O248 O 0.97064 0.68258 0.70982 0.0
O249 O 0.98318 0.70767 0.70629 0.0
O250 O 0.99066 0.67289 0.66481 0.0
O251 O 0.99581 0.69388 0.68008 0.0
H252 H 0.23566 0.35491 0.16466 0.0
N253 N 0.21124 0.33082 0.14716 0.0
H254 H 0.24862 0.35469 0.19577 0.0
H255 H 0.20191 0.30902 0.1746 0.0
H256 H 0.21441 0.30885 0.20645 0.0
H257 H 0.21576 0.31122 0.12666 0.0
H258 H 0.23464 0.31637 0.10027 0.0
H259 H 0.22933 0.35788 0.12856 0.0
H260 H 0.2483 0.36314 0.10271 0.0
H261 H 0.2152 0.35852 0.15572 0.0
H262 H 0.18291 0.31339 0.13762 0.0
H263 H 0.19648 0.36552 0.15388 0.0
H264 H 0.16371 0.31987 0.1374 0.0
H265 H 0.12117 0.37127 0.1714 0.0
H266 H 0.10399 0.36145 0.20061 0.0
H267 H 0.10651 0.32132 0.19865 0.0
H268 H 0.12282 0.33083 0.16861 0.0
H269 H 0.10793 0.33128 0.13529 0.0
H270 H 0.09033 0.3287 0.109 0.0
H271 H 0.1179 0.37562 0.09485 0.0
H272 H 0.13512 0.37821 0.12233 0.0
H273 H 0.15691 0.37001 0.17083 0.0
H274 H 0.17635 0.36391 0.17039 0.0
H275 H 0.1535 0.33175 0.12071 0.0
N276 N 0.132 0.3574 0.14897 0.0
H277 H 0.1337 0.33709 0.12237 0.0
C278 C 0.21787 0.33186 0.16715 0.0
C279 C 0.23085 0.34486 0.17378 0.0
C280 C 0.23823 0.34474 0.19173 0.0
C281 C 0.2327 0.33167 0.20354 0.0
C282 C 0.21921 0.31899 0.19749 0.0
C283 C 0.21194 0.31909 0.17944 0.0
C284 C 0.221 0.33406 0.12958 0.0
C285 C 0.22264 0.32252 0.12113 0.0
C286 C 0.23353 0.32552 0.10623 0.0
C287 C 0.24308 0.3402 0.09948 0.0
C288 C 0.24105 0.35168 0.10737 0.0
C289 C 0.23015 0.34867 0.12228 0.0
C290 C 0.2005 0.33544 0.14635 0.0
C291 C 0.20407 0.3501 0.15124 0.0
C292 C 0.19321 0.35403 0.15051 0.0
C293 C 0.17843 0.34331 0.14545 0.0
C294 C 0.17495 0.32859 0.14084 0.0
C295 C 0.18588 0.32479 0.14114 0.0
C296 C 0.12342 0.35194 0.16788 0.0
C297 C 0.11812 0.36044 0.17748 0.0
C298 C 0.10834 0.35479 0.19428 0.0
C299 C 0.10376 0.34052 0.20209 0.0
C300 C 0.10952 0.33222 0.19287 0.0
C301 C 0.11907 0.33776 0.17582 0.0
C302 C 0.12284 0.35502 0.13093 0.0
C303 C 0.11029 0.34099 0.12642 0.0
C304 C 0.10025 0.33953 0.11115 0.0
C305 C 0.10257 0.35198 0.09973 0.0
C306 C 0.11555 0.36583 0.10355 0.0
C307 C 0.12552 0.36732 0.11906 0.0
C308 C 0.14379 0.35417 0.14669 0.0
C309 C 0.15615 0.36168 0.1598 0.0
C310 C 0.16734 0.35823 0.15938 0.0
C311 C 0.16664 0.3473 0.14548 0.0
C312 C 0.15438 0.34 0.13197 0.0
C313 C 0.14302 0.34323 0.13272 0.0
H314 H 0.71123 0.80108 0.17091 0.0
N315 N 0.68881 0.79851 0.14903 0.0
H316 H 0.71001 0.78927 0.20394 0.0
H317 H 0.66457 0.78481 0.17421 0.0
H318 H 0.6632 0.77325 0.20773 0.0
H319 H 0.6626 0.77334 0.13906 0.0
H320 H 0.65976 0.75213 0.11836 0.0
H321 H 0.70918 0.79802 0.12514 0.0
H322 H 0.70649 0.77676 0.10456 0.0
H323 H 0.70818 0.82751 0.14868 0.0
H324 H 0.6619 0.79537 0.13999 0.0
H325 H 0.70367 0.8478 0.14215 0.0
H326 H 0.65726 0.81555 0.13246 0.0
H327 H 0.69353 0.89737 0.16567 0.0
H328 H 0.68891 0.90634 0.1986 0.0
H329 H 0.64416 0.89105 0.17859 0.0
H330 H 0.64868 0.88124 0.14645 0.0
H331 H 0.65153 0.87146 0.10696 0.0
H332 H 0.64382 0.88366 0.08194 0.0
H333 H 0.68229 0.92631 0.09857 0.0
H334 H 0.69026 0.91379 0.1219 0.0
H335 H 0.69596 0.88185 0.11536 0.0
H336 H 0.69814 0.85966 0.11618 0.0
H337 H 0.65606 0.83577 0.14792 0.0
N338 N 0.67529 0.8856 0.13333 0.0
H339 H 0.65364 0.85782 0.14582 0.0
C340 C 0.68805 0.79387 0.1702 0.0
C341 C 0.7008 0.79531 0.17917 0.0
C342 C 0.70005 0.78855 0.19809 0.0
C343 C 0.68648 0.7802 0.20854 0.0
C344 C 0.67379 0.77938 0.19996 0.0
C345 C 0.67456 0.78611 0.18091 0.0
C346 C 0.68613 0.78735 0.13342 0.0
C347 C 0.67212 0.77442 0.13094 0.0
C348 C 0.67052 0.76225 0.11919 0.0
C349 C 0.68294 0.76275 0.11005 0.0
C350 C 0.69676 0.77602 0.11162 0.0
C351 C 0.6983 0.7882 0.12315 0.0
C352 C 0.68547 0.80997 0.14467 0.0
C353 C 0.69705 0.82486 0.14509 0.0
C354 C 0.69443 0.83643 0.14113 0.0
C355 C 0.6801 0.83338 0.13643 0.0
C356 C 0.66842 0.81836 0.13609 0.0
C357 C 0.67108 0.80676 0.14026 0.0
C358 C 0.67157 0.8889 0.15356 0.0
C359 C 0.68265 0.89571 0.16868 0.0
C360 C 0.68001 0.90098 0.18735 0.0
C361 C 0.66625 0.89978 0.19112 0.0
C362 C 0.65487 0.89216 0.17635 0.0
C363 C 0.65746 0.88663 0.15784 0.0
C364 C 0.6716 0.89174 0.11605 0.0
C365 C 0.6585 0.88335 0.10454 0.0
C366 C 0.654 0.89044 0.0905 0.0
C367 C 0.66231 0.90611 0.0881 0.0
C368 C 0.67566 0.91426 0.0993 0.0
C369 C 0.68028 0.90714 0.11284 0.0
C370 C 0.6748 0.87158 0.13075 0.0
C371 C 0.68705 0.87168 0.12199 0.0
C372 C 0.68835 0.85903 0.12277 0.0
C373 C 0.67748 0.84597 0.13267 0.0
C374 C 0.66467 0.84557 0.14019 0.0
C375 C 0.66329 0.85822 0.1391 0.0
H376 H 0.11067 0.77452 0.16433 0.0
N377 N 0.11096 0.79871 0.14749 0.0
H378 H 0.09827 0.76176 0.19591 0.0
H379 H 0.09823 0.80745 0.17585 0.0
H380 H 0.08615 0.79496 0.20838 0.0
H381 H 0.08588 0.79042 0.12741 0.0
H382 H 0.07356 0.77046 0.1012 0.0
H383 H 0.12227 0.78264 0.12942 0.0
H384 H 0.10994 0.76249 0.10386 0.0
H385 H 0.13439 0.7976 0.16443 0.0
H386 H 0.12306 0.82445 0.12745 0.0
H387 H 0.16039 0.81653 0.16192 0.0
H388 H 0.14933 0.84331 0.124 0.0
H389 H 0.24152 0.87434 0.16003 0.0
H390 H 0.25398 0.8853 0.19308 0.0
H391 H 0.22188 0.89836 0.20684 0.0
H392 H 0.21007 0.88809 0.17338 0.0
H393 H 0.21892 0.90161 0.13915 0.0
H394 H 0.23605 0.92294 0.11845 0.0
H395 H 0.25564 0.89795 0.09479 0.0
H396 H 0.23771 0.87633 0.11453 0.0
H397 H 0.20704 0.84636 0.13959 0.0
H398 H 0.18073 0.82735 0.13908 0.0
H399 H 0.16997 0.86213 0.14272 0.0
N400 N 0.21928 0.87567 0.14334 0.0
H401 H 0.19617 0.88094 0.14219 0.0
C402 C 0.10536 0.792 0.16756 0.0
C403 C 0.1055 0.77921 0.17383 0.0
C404 C 0.09845 0.77193 0.19214 0.0
C405 C 0.09117 0.77729 0.20481 0.0
C406 C 0.09146 0.79039 0.19888 0.0
C407 C 0.09848 0.79763 0.18043 0.0
C408 C 0.105 0.78813 0.13031 0.0
C409 C 0.09128 0.78453 0.12198 0.0
C410 C 0.08419 0.773 0.10721 0.0
C411 C 0.0907 0.76478 0.1005 0.0
C412 C 0.10467 0.76869 0.10844 0.0
C413 C 0.11176 0.78025 0.12314 0.0
C414 C 0.12661 0.80965 0.14634 0.0
C415 C 0.13743 0.80754 0.15573 0.0
C416 C 0.15244 0.81839 0.15405 0.0
C417 C 0.15707 0.83152 0.14271 0.0
C418 C 0.14623 0.8335 0.13314 0.0
C419 C 0.1312 0.82269 0.13499 0.0
C420 C 0.22482 0.88026 0.16424 0.0
C421 C 0.23707 0.87937 0.17039 0.0
C422 C 0.24413 0.8856 0.18934 0.0
C423 C 0.239 0.89281 0.20268 0.0
C424 C 0.22632 0.89316 0.19682 0.0
C425 C 0.21939 0.88708 0.17772 0.0
C426 C 0.22681 0.88718 0.12809 0.0
C427 C 0.22639 0.90044 0.12876 0.0
C428 C 0.2365 0.91282 0.11721 0.0
C429 C 0.24749 0.91237 0.10512 0.0
C430 C 0.2473 0.89878 0.10363 0.0
C431 C 0.23703 0.88635 0.11492 0.0
C432 C 0.20367 0.86506 0.14101 0.0
C433 C 0.19896 0.84984 0.13994 0.0
C434 C 0.1839 0.83899 0.13991 0.0
C435 C 0.17312 0.84313 0.14116 0.0
C436 C 0.17788 0.85847 0.14157 0.0
C437 C 0.19298 0.86932 0.1414 0.0
H438 H 0.34333 0.22944 0.85973 0.0
N439 N 0.31797 0.20767 0.87812 0.0
H440 H 0.34469 0.24372 0.82935 0.0
H441 H 0.29629 0.20107 0.85128 0.0
H442 H 0.29758 0.21489 0.82009 0.0
H443 H 0.30065 0.21536 0.89793 0.0
H444 H 0.30801 0.23569 0.92334 0.0
H445 H 0.34527 0.22412 0.89604 0.0
H446 H 0.35296 0.24488 0.92087 0.0
H447 H 0.33908 0.20363 0.85829 0.0
H448 H 0.30381 0.18471 0.90339 0.0
H449 H 0.34172 0.18184 0.86075 0.0
H450 H 0.30701 0.16331 0.90704 0.0
H451 H 0.35257 0.1223 0.86708 0.0
H452 H 0.35809 0.11266 0.83566 0.0
H453 H 0.31286 0.09393 0.81511 0.0
H454 H 0.30731 0.10288 0.84733 0.0
H455 H 0.31045 0.08725 0.88994 0.0
H456 H 0.31872 0.07444 0.91231 0.0
H457 H 0.35645 0.11702 0.93093 0.0
H458 H 0.34854 0.12957 0.90718 0.0
H459 H 0.3492 0.1441 0.87752 0.0
H460 H 0.34886 0.16739 0.8796 0.0
H461 H 0.30145 0.1418 0.88859 0.0
N462 N 0.32512 0.11573 0.8798 0.0
H463 H 0.30217 0.11883 0.8876 0.0
C464 C 0.31963 0.2142 0.85789 0.0
C465 C 0.33333 0.22602 0.85101 0.0
C466 C 0.33409 0.23417 0.83349 0.0
C467 C 0.3212 0.23062 0.82235 0.0
C468 C 0.30768 0.21817 0.82854 0.0
C469 C 0.30692 0.21011 0.84617 0.0
C470 C 0.32238 0.21828 0.89513 0.0
C471 C 0.31201 0.2216 0.90325 0.0
C472 C 0.3163 0.23333 0.91754 0.0
C473 C 0.33114 0.24209 0.92392 0.0
C474 C 0.34143 0.23833 0.9164 0.0
C475 C 0.33708 0.2265 0.90215 0.0
C476 C 0.32095 0.19569 0.88037 0.0
C477 C 0.33199 0.1949 0.86892 0.0
C478 C 0.33361 0.18242 0.87054 0.0
C479 C 0.32444 0.17059 0.8839 0.0
C480 C 0.314 0.17189 0.89612 0.0
C481 C 0.31222 0.1842 0.89421 0.0
C482 C 0.32943 0.11307 0.85962 0.0
C483 C 0.34392 0.11631 0.85565 0.0
C484 C 0.34706 0.11082 0.83756 0.0
C485 C 0.33585 0.10222 0.82294 0.0
C486 C 0.32167 0.10009 0.82627 0.0
C487 C 0.3185 0.10537 0.84451 0.0
C488 C 0.32875 0.10934 0.89687 0.0
C489 C 0.32033 0.09382 0.89925 0.0
C490 C 0.32511 0.08651 0.91218 0.0
C491 C 0.3384 0.09459 0.92351 0.0
C492 C 0.34637 0.11032 0.92213 0.0
C493 C 0.34171 0.1176 0.90876 0.0
C494 C 0.32569 0.12974 0.88275 0.0
C495 C 0.33882 0.14359 0.88045 0.0
C496 C 0.33856 0.1569 0.88136 0.0
C497 C 0.32512 0.15661 0.88429 0.0
C498 C 0.31208 0.14264 0.88681 0.0
C499 C 0.31241 0.12943 0.88615 0.0
H500 H 0.77502 0.12406 0.8656 0.0
N501 N 0.79308 0.11459 0.88064 0.0
H502 H 0.76016 0.11513 0.83408 0.0
H503 H 0.79369 0.09661 0.85155 0.0
H504 H 0.77812 0.08675 0.82061 0.0
H505 H 0.78395 0.08818 0.89725 0.0
H506 H 0.76433 0.07531 0.92302 0.0
H507 H 0.77975 0.12704 0.90276 0.0
H508 H 0.75975 0.11414 0.92803 0.0
H509 H 0.79855 0.1429 0.8727 0.0
H510 H 0.81816 0.11832 0.8954 0.0
H511 H 0.82244 0.16594 0.8745 0.0
H512 H 0.84203 0.14151 0.89854 0.0
H513 H 0.87516 0.21427 0.85203 0.0
H514 H 0.88269 0.22551 0.81791 0.0
H515 H 0.92288 0.22403 0.82239 0.0
H516 H 0.91553 0.21354 0.85725 0.0
H517 H 0.91069 0.21405 0.90959 0.0
H518 H 0.92528 0.23768 0.92907 0.0
H519 H 0.90105 0.25533 0.89922 0.0
H520 H 0.88616 0.23169 0.88053 0.0
H521 H 0.86606 0.20739 0.89126 0.0
H522 H 0.84182 0.1848 0.89474 0.0
H523 H 0.8608 0.1581 0.87644 0.0
N524 N 0.89182 0.2087 0.87874 0.0
H525 H 0.88504 0.1807 0.874 0.0
C526 C 0.78574 0.11121 0.86074 0.0
C527 C 0.7762 0.11636 0.8555 0.0
C528 C 0.76745 0.11099 0.83758 0.0
C529 C 0.76778 0.10009 0.82476 0.0
C530 C 0.7777 0.09533 0.82978 0.0
C531 C 0.78661 0.1009 0.84752 0.0
C532 C 0.78328 0.10849 0.89815 0.0
C533 C 0.77891 0.09398 0.90432 0.0
C534 C 0.76757 0.0866 0.9188 0.0
C535 C 0.7603 0.0936 0.92737 0.0
C536 C 0.76516 0.10844 0.92183 0.0
C537 C 0.77657 0.11584 0.90735 0.0
C538 C 0.80662 0.12873 0.88345 0.0
C539 C 0.80793 0.14242 0.87828 0.0
C540 C 0.82167 0.15571 0.87957 0.0
C541 C 0.83432 0.15565 0.88641 0.0
C542 C 0.8327 0.14201 0.89264 0.0
C543 C 0.81903 0.12873 0.89105 0.0
C544 C 0.89489 0.21319 0.85728 0.0
C545 C 0.88552 0.21623 0.84562 0.0
C546 C 0.88983 0.22258 0.82594 0.0
C547 C 0.90348 0.22581 0.81733 0.0
C548 C 0.91245 0.22202 0.82865 0.0
C549 C 0.90821 0.21586 0.84847 0.0
C550 C 0.89746 0.22107 0.89341 0.0
C551 C 0.90815 0.22281 0.90788 0.0
C552 C 0.91648 0.23628 0.91892 0.0
C553 C 0.91433 0.24829 0.9154 0.0
C554 C 0.90292 0.24622 0.90208 0.0
C555 C 0.89441 0.23267 0.89137 0.0
C556 C 0.87748 0.19572 0.88258 0.0
C557 C 0.86508 0.19668 0.88838 0.0
C558 C 0.85113 0.1837 0.89015 0.0
C559 C 0.84925 0.16952 0.88592 0.0
C560 C 0.86176 0.1687 0.88032 0.0
C561 C 0.87566 0.18162 0.87878 0.0
H562 H 0.78601 0.69807 0.86191 0.0
N563 N 0.79486 0.6814 0.88036 0.0
H564 H 0.77011 0.69138 0.8312 0.0
H565 H 0.78872 0.65851 0.85267 0.0
H566 H 0.77328 0.652 0.82183 0.0
H567 H 0.77343 0.65216 0.88616 0.0
H568 H 0.75236 0.64318 0.90952 0.0
H569 H 0.79133 0.69683 0.91078 0.0
H570 H 0.77038 0.68787 0.93479 0.0
H571 H 0.82195 0.70487 0.88249 0.0
H572 H 0.79783 0.65682 0.88507 0.0
H573 H 0.84511 0.70532 0.88722 0.0
H574 H 0.82099 0.65702 0.8884 0.0
H575 H 0.91917 0.7075 0.88893 0.0
H576 H 0.93435 0.71184 0.8579 0.0
H577 H 0.89809 0.67282 0.82828 0.0
H578 H 0.88307 0.66844 0.85968 0.0
H579 H 0.88215 0.65549 0.89143 0.0
H580 H 0.89362 0.64307 0.9084 0.0
H581 H 0.919 0.68213 0.94752 0.0
H582 H 0.90754 0.69443 0.93037 0.0
H583 H 0.88515 0.70257 0.87359 0.0
H584 H 0.86146 0.7007 0.86944 0.0
H585 H 0.84137 0.66249 0.90985 0.0
N586 N 0.89176 0.68528 0.89558 0.0
H587 H 0.86502 0.66379 0.91291 0.0
C588 C 0.78858 0.67885 0.85974 0.0
C589 C 0.78359 0.68822 0.85285 0.0
C590 C 0.7745 0.68437 0.83529 0.0
C591 C 0.77021 0.67102 0.82424 0.0
C592 C 0.77611 0.6622 0.83026 0.0
C593 C 0.78513 0.66602 0.84787 0.0
C594 C 0.784 0.67523 0.89673 0.0
C595 C 0.77309 0.65997 0.89707 0.0
C596 C 0.76099 0.65484 0.91049 0.0
C597 C 0.75956 0.66484 0.92389 0.0
C598 C 0.77098 0.67992 0.92439 0.0
C599 C 0.78304 0.68504 0.9109 0.0
C600 C 0.80819 0.68089 0.88303 0.0
C601 C 0.8217 0.6944 0.88379 0.0
C602 C 0.83495 0.69459 0.88633 0.0
C603 C 0.83506 0.68117 0.88783 0.0
C604 C 0.82141 0.66758 0.88741 0.0
C605 C 0.8081 0.66744 0.88522 0.0
C606 C 0.90004 0.68779 0.87654 0.0
C607 C 0.91451 0.69996 0.87568 0.0
C608 C 0.92312 0.70241 0.85792 0.0
C609 C 0.91739 0.69272 0.84056 0.0
C610 C 0.90286 0.68041 0.84146 0.0
C611 C 0.89424 0.67795 0.85931 0.0
C612 C 0.89412 0.67598 0.90954 0.0
C613 C 0.88977 0.66115 0.90416 0.0
C614 C 0.89642 0.65412 0.91379 0.0
C615 C 0.90742 0.66173 0.92904 0.0
C616 C 0.91053 0.67592 0.93591 0.0
C617 C 0.90395 0.68296 0.92618 0.0
C618 C 0.87708 0.68312 0.89303 0.0
C619 C 0.87562 0.69355 0.88125 0.0
C620 C 0.86201 0.69262 0.87917 0.0
C621 C 0.84939 0.68151 0.88944 0.0
C622 C 0.85076 0.67107 0.90142 0.0
C623 C 0.86443 0.67185 0.90322 0.0
H624 H 0.77714 0.66249 0.4901 0.0
N625 N 0.80296 0.68654 0.47612 0.0
H626 H 0.76419 0.66146 0.522 0.0
H627 H 0.81333 0.706 0.50783 0.0
H628 H 0.8007 0.7048 0.54056 0.0
H629 H 0.79911 0.70812 0.46231 0.0
H630 H 0.77882 0.70526 0.4407 0.0
H631 H 0.7845 0.6616 0.45272 0.0
H632 H 0.76432 0.65865 0.43069 0.0
H633 H 0.7975 0.65838 0.48477 0.0
H634 H 0.83008 0.70115 0.46038 0.0
H635 H 0.81533 0.65016 0.48317 0.0
H636 H 0.84789 0.69278 0.45768 0.0
H637 H 0.89735 0.64693 0.49173 0.0
H638 H 0.90878 0.65183 0.52567 0.0
H639 H 0.87704 0.66274 0.54979 0.0
H640 H 0.86587 0.65844 0.51569 0.0
H641 H 0.90098 0.67869 0.47275 0.0
H642 H 0.92189 0.68258 0.4513 0.0
H643 H 0.89602 0.6373 0.4278 0.0
H644 H 0.8751 0.6335 0.4493 0.0
H645 H 0.84748 0.63518 0.46681 0.0
H646 H 0.82934 0.64298 0.46269 0.0
H647 H 0.86284 0.6882 0.4797 0.0
N648 N 0.87551 0.65175 0.47896 0.0
H649 H 0.88086 0.68034 0.48306 0.0
C650 C 0.79622 0.68446 0.49642 0.0
C651 C 0.78249 0.67171 0.50108 0.0
C652 C 0.77509 0.67109 0.51952 0.0
C653 C 0.78129 0.68313 0.53386 0.0
C654 C 0.79543 0.69547 0.52969 0.0
C655 C 0.80276 0.69612 0.51113 0.0
C656 C 0.79333 0.68513 0.45923 0.0
C657 C 0.79182 0.69742 0.45488 0.0
C658 C 0.78019 0.69574 0.44251 0.0
C659 C 0.76977 0.68167 0.43418 0.0
C660 C 0.77198 0.66959 0.4372 0.0
C661 C 0.78363 0.67129 0.44963 0.0
C662 C 0.81253 0.68054 0.47297 0.0
C663 C 0.80843 0.66596 0.47877 0.0
C664 C 0.81867 0.66121 0.47766 0.0
C665 C 0.8332 0.67083 0.47049 0.0
C666 C 0.83697 0.68515 0.46375 0.0
C667 C 0.82676 0.68992 0.46507 0.0
C668 C 0.88148 0.65366 0.50005 0.0
C669 C 0.89294 0.65073 0.50405 0.0
C670 C 0.89936 0.65323 0.52376 0.0
C671 C 0.89416 0.65814 0.54042 0.0
C672 C 0.88177 0.65959 0.5371 0.0
C673 C 0.87541 0.65723 0.5173 0.0
C674 C 0.88641 0.65572 0.46265 0.0
C675 C 0.89953 0.66982 0.46227 0.0
C676 C 0.91155 0.67201 0.45007 0.0
C677 C 0.91067 0.66017 0.43815 0.0
C678 C 0.89709 0.64657 0.43708 0.0
C679 C 0.88509 0.6444 0.4492 0.0
C680 C 0.86549 0.6571 0.47523 0.0
C681 C 0.8509 0.6468 0.46935 0.0
C682 C 0.84052 0.65129 0.46719 0.0
C683 C 0.84452 0.66623 0.47101 0.0
C684 C 0.85934 0.67665 0.47628 0.0
C685 C 0.86973 0.67217 0.47823 0.0
H686 H 0.37174 0.13221 0.50928 0.0
N687 N 0.35238 0.12785 0.47948 0.0
H688 H 0.3668 0.11878 0.54227 0.0
H689 H 0.3252 0.10704 0.49477 0.0
H690 H 0.32024 0.09368 0.52722 0.0
H691 H 0.32592 0.11282 0.45884 0.0
H692 H 0.31848 0.09227 0.43384 0.0
H693 H 0.36964 0.11924 0.46168 0.0
H694 H 0.36265 0.09928 0.4358 0.0
H695 H 0.36944 0.15182 0.45702 0.0
H696 H 0.32991 0.1319 0.49455 0.0
H697 H 0.36702 0.17358 0.45167 0.0
H698 H 0.32798 0.15387 0.49054 0.0
H699 H 0.3658 0.23746 0.49924 0.0
H700 H 0.36134 0.24706 0.53168 0.0
H701 H 0.31432 0.22185 0.51914 0.0
H702 H 0.31892 0.21154 0.48765 0.0
H703 H 0.31913 0.20847 0.45134 0.0
H704 H 0.31207 0.22172 0.42769 0.0
H705 H 0.35734 0.25852 0.4266 0.0
H706 H 0.36411 0.24536 0.45122 0.0
H707 H 0.36961 0.21754 0.46818 0.0
H708 H 0.37058 0.19471 0.46904 0.0
H709 H 0.32275 0.16863 0.46977 0.0
N710 N 0.34601 0.2202 0.47076 0.0
H711 H 0.32206 0.19167 0.47038 0.0
C712 C 0.34889 0.12085 0.49963 0.0
C713 C 0.36046 0.12397 0.51334 0.0
C714 C 0.35764 0.1162 0.53203 0.0
C715 C 0.34312 0.10521 0.53739 0.0
C716 C 0.33152 0.10225 0.52374 0.0
C717 C 0.33436 0.10991 0.50507 0.0
C718 C 0.34832 0.11742 0.46228 0.0
C719 C 0.33399 0.10997 0.45377 0.0
C720 C 0.3298 0.09827 0.43933 0.0
C721 C 0.3399 0.09393 0.43297 0.0
C722 C 0.35445 0.10202 0.44071 0.0
C723 C 0.35855 0.11356 0.4553 0.0
C724 C 0.35011 0.14025 0.47644 0.0
C725 C 0.3603 0.15218 0.46423 0.0
C726 C 0.35895 0.16469 0.46135 0.0
C727 C 0.34741 0.16571 0.47091 0.0
C728 C 0.33693 0.15353 0.48271 0.0
C729 C 0.33816 0.14089 0.48527 0.0
C730 C 0.34277 0.22402 0.49091 0.0
C731 C 0.35454 0.23381 0.5038 0.0
C732 C 0.35194 0.23943 0.52217 0.0
C733 C 0.33747 0.23556 0.52785 0.0
C734 C 0.3256 0.22509 0.51538 0.0
C735 C 0.32822 0.21926 0.49718 0.0
C736 C 0.34219 0.22598 0.4532 0.0
C737 C 0.32761 0.21924 0.44578 0.0
C738 C 0.32359 0.22688 0.4321 0.0
C739 C 0.33408 0.24134 0.42541 0.0
C740 C 0.34887 0.24757 0.43179 0.0
C741 C 0.35283 0.23998 0.4456 0.0
C742 C 0.34583 0.20634 0.46885 0.0
C743 C 0.35936 0.20685 0.46825 0.0
C744 C 0.35985 0.19373 0.46862 0.0
C745 C 0.34673 0.17966 0.46936 0.0
C746 C 0.3331 0.17919 0.46947 0.0
C747 C 0.33266 0.1924 0.46945 0.0
H748 H 0.78464 0.10544 0.49488 0.0
N749 N 0.78186 0.1271 0.47553 0.0
H750 H 0.77095 0.09159 0.52533 0.0
H751 H 0.76671 0.13426 0.50162 0.0
H752 H 0.7535 0.12095 0.533 0.0
H753 H 0.75751 0.11958 0.45424 0.0
H754 H 0.74466 0.09881 0.42943 0.0
H755 H 0.79284 0.1104 0.45898 0.0
H756 H 0.77985 0.08923 0.4349 0.0
H757 H 0.80753 0.12847 0.48741 0.0
H758 H 0.78988 0.15355 0.46016 0.0
H759 H 0.83253 0.15043 0.48564 0.0
H760 H 0.81468 0.17558 0.4586 0.0
H761 H 0.89838 0.21544 0.49251 0.0
H762 H 0.91495 0.22698 0.52244 0.0
H763 H 0.89451 0.25317 0.53551 0.0
H764 H 0.87767 0.24097 0.50645 0.0
H765 H 0.88306 0.24839 0.46474 0.0
H766 H 0.90146 0.26474 0.43977 0.0
H767 H 0.91285 0.23096 0.42716 0.0
H768 H 0.8948 0.21499 0.45342 0.0
H769 H 0.869 0.19909 0.50568 0.0
H770 H 0.84657 0.17492 0.50278 0.0
H771 H 0.83839 0.18615 0.44191 0.0
N772 N 0.87839 0.22256 0.47836 0.0
H773 H 0.86067 0.21063 0.44495 0.0
C774 C 0.77653 0.12081 0.49579 0.0
C775 C 0.77807 0.10907 0.50324 0.0
C776 C 0.77024 0.10117 0.52083 0.0
C777 C 0.76087 0.10496 0.53152 0.0
C778 C 0.76027 0.11744 0.52487 0.0
C779 C 0.76796 0.1252 0.50712 0.0
C780 C 0.77605 0.11651 0.45848 0.0
C781 C 0.76258 0.11319 0.44964 0.0
C782 C 0.75518 0.1012 0.4357 0.0
C783 C 0.76108 0.09215 0.43044 0.0
C784 C 0.77501 0.09598 0.43851 0.0
C785 C 0.78245 0.10808 0.45236 0.0
C786 C 0.79683 0.13944 0.47395 0.0
C787 C 0.80903 0.13867 0.48095 0.0
C788 C 0.82332 0.15126 0.47999 0.0
C789 C 0.82566 0.16479 0.47192 0.0
C790 C 0.81339 0.16532 0.46456 0.0
C791 C 0.79918 0.15279 0.46557 0.0
C792 C 0.88669 0.22726 0.49752 0.0
C793 C 0.8973 0.22339 0.50224 0.0
C794 C 0.90687 0.23015 0.5192 0.0
C795 C 0.90616 0.24109 0.53149 0.0
C796 C 0.89524 0.24459 0.52686 0.0
C797 C 0.88559 0.23767 0.51018 0.0
C798 C 0.88751 0.23052 0.46081 0.0
C799 C 0.88935 0.24443 0.45626 0.0
C800 C 0.89987 0.25374 0.44183 0.0
C801 C 0.90872 0.24923 0.43121 0.0
C802 C 0.90644 0.23493 0.4352 0.0
C803 C 0.896 0.22569 0.45001 0.0
C804 C 0.86702 0.20696 0.47529 0.0
C805 C 0.86279 0.1964 0.49133 0.0
C806 C 0.84981 0.1824 0.48972 0.0
C807 C 0.84059 0.1786 0.47219 0.0
C808 C 0.84513 0.18878 0.45577 0.0
C809 C 0.85805 0.20277 0.45739 0.0
H810 H 0.02456 0.56996 0.18878 0.0
N811 N 1.00055 0.54554 0.20562 0.0
H812 H 0.02425 0.58361 0.15858 0.0
H813 H 0.97926 0.53582 0.17712 0.0
H814 H 0.97901 0.54901 0.14607 0.0
H815 H 0.978 0.54698 0.22138 0.0
H816 H 0.97928 0.56734 0.24244 0.0
H817 H 0.02523 0.56702 0.22619 0.0
H818 H 0.02669 0.58771 0.24697 0.0
H819 H 0.02182 0.54382 0.18191 0.0
H820 H 0.99491 0.52709 0.2372 0.0
H821 H 0.02997 0.52618 0.1862 0.0
H822 H 0.00376 0.50986 0.24221 0.0
H823 H 0.04662 0.46106 0.18925 0.0
H824 H 0.03773 0.44248 0.16101 0.0
H825 H 0.99565 0.4403 0.16251 0.0
H826 H 0.00435 0.45828 0.19112 0.0
H827 H 0.00413 0.44583 0.22559 0.0
H828 H 1.00094 0.42563 0.24727 0.0
H829 H 0.04815 0.44831 0.25701 0.0
H830 H 0.05121 0.46916 0.23606 0.0
H831 H 0.04887 0.49767 0.20315 0.0
H832 H 0.04377 0.51807 0.20433 0.0
H833 H 0.99985 0.48751 0.22751 0.0
N834 N 0.0307 0.46916 0.21214 0.0
H835 H 0.00528 0.46766 0.2273 0.0
C836 C 1.00184 0.55189 0.18532 0.0
C837 C 0.01465 0.5652 0.17938 0.0
C838 C 0.01447 0.57296 0.16196 0.0
C839 C 1.00152 0.56755 0.15 0.0
C840 C 0.98907 0.5537 0.15518 0.0
C841 C 0.98923 0.54601 0.17272 0.0
C842 C 1.00147 0.55555 0.2221 0.0
C843 C 0.9886 0.55559 0.2275 0.0
C844 C 0.98938 0.56732 0.2393 0.0
C845 C 0.00312 0.57929 0.24594 0.0
C846 C 0.01595 0.57865 0.24202 0.0
C847 C 0.01514 0.56685 0.23015 0.0
C848 C 0.00762 0.53695 0.20932 0.0
C849 C 0.01788 0.53669 0.19533 0.0
C850 C 0.02268 0.52653 0.19787 0.0
C851 C 0.01747 0.51642 0.21448 0.0
C852 C 0.00779 0.5172 0.22897 0.0
C853 C 0.00286 0.52722 0.22628 0.0
C854 C 0.02626 0.46115 0.19243 0.0
C855 C 0.03562 0.45685 0.18307 0.0
C856 C 0.03049 0.44621 0.16693 0.0
C857 C 0.01587 0.43967 0.15971 0.0
C858 C 0.00686 0.44481 0.16804 0.0
C859 C 0.01193 0.45534 0.18431 0.0
C860 C 0.02798 0.4593 0.22936 0.0
C861 C 0.01377 0.44702 0.2333 0.0
C862 C 0.01197 0.43521 0.2454 0.0
C863 C 0.02432 0.43517 0.25346 0.0
C864 C 0.03839 0.44799 0.25108 0.0
C865 C 0.04016 0.45994 0.23915 0.0
C866 C 0.02756 0.48105 0.21503 0.0
C867 C 0.03824 0.49549 0.20882 0.0
C868 C 0.03523 0.5071 0.20932 0.0
C869 C 0.02132 0.5045 0.21586 0.0
C870 C 0.01077 0.49009 0.22268 0.0
C871 C 0.01386 0.47855 0.2224 0.0
H872 H 0.57327 0.53991 0.18854 0.0
N873 N 0.55486 0.544 0.21235 0.0
H874 H 0.58405 0.55187 0.15539 0.0
H875 H 0.54632 0.55996 0.18954 0.0
H876 H 0.55639 0.57139 0.15591 0.0
H877 H 0.55185 0.56673 0.22738 0.0
H878 H 0.57065 0.58828 0.24762 0.0
H879 H 0.57734 0.5453 0.23265 0.0
H880 H 0.59602 0.56654 0.25317 0.0
H881 H 0.5505 0.51798 0.22528 0.0
H882 H 0.52765 0.54082 0.20937 0.0
H883 H 0.52687 0.4948 0.22999 0.0
H884 H 0.5039 0.51753 0.21262 0.0
H885 H 0.45161 0.42322 0.19822 0.0
H886 H 0.43709 0.41396 0.16623 0.0
H887 H 0.4343 0.45385 0.16402 0.0
H888 H 0.4488 0.46295 0.19627 0.0
H889 H 0.43815 0.45578 0.23075 0.0
H890 H 0.41829 0.44318 0.256 0.0
H891 H 0.4348 0.41427 0.27179 0.0
H892 H 0.45487 0.42712 0.24645 0.0
H893 H 0.48476 0.45278 0.20928 0.0
H894 H 0.50814 0.47651 0.20919 0.0
H895 H 0.48592 0.49867 0.23385 0.0
N896 N 0.45831 0.44776 0.21963 0.0
H897 H 0.46249 0.475 0.23277 0.0
C898 C 0.55893 0.54892 0.19131 0.0
C899 C 0.56935 0.54652 0.18119 0.0
C900 C 0.57545 0.55335 0.16223 0.0
C901 C 0.57115 0.56268 0.15294 0.0
C902 C 0.56015 0.56449 0.16274 0.0
C903 C 0.55418 0.55776 0.18183 0.0
C904 C 0.56333 0.55453 0.22852 0.0
C905 C 0.56125 0.56647 0.23354 0.0
C906 C 0.57199 0.57875 0.24507 0.0
C907 C 0.58494 0.5792 0.25162 0.0
C908 C 0.5863 0.56663 0.248 0.0
C909 C 0.57559 0.55443 0.23652 0.0
C910 C 0.54079 0.53098 0.21672 0.0
C911 C 0.54032 0.51793 0.22282 0.0
C912 C 0.52678 0.50468 0.22527 0.0
C913 C 0.51338 0.50413 0.22129 0.0
C914 C 0.51392 0.51747 0.21593 0.0
C915 C 0.52752 0.5308 0.21383 0.0
C916 C 0.45127 0.4437 0.19954 0.0
C917 C 0.44806 0.43004 0.1906 0.0
C918 C 0.4398 0.42482 0.17232 0.0
C919 C 0.43455 0.43319 0.16256 0.0
C920 C 0.43807 0.44709 0.17128 0.0
C921 C 0.44642 0.45234 0.18962 0.0
C922 C 0.44821 0.44255 0.23696 0.0
C923 C 0.43787 0.44711 0.2401 0.0
C924 C 0.42642 0.43981 0.25449 0.0
C925 C 0.42495 0.42769 0.26579 0.0
C926 C 0.43559 0.42349 0.26316 0.0
C927 C 0.44713 0.43092 0.24892 0.0
C928 C 0.4719 0.46199 0.2212 0.0
C929 C 0.48499 0.46277 0.21478 0.0
C930 C 0.49838 0.47637 0.21492 0.0
C931 C 0.49904 0.4896 0.22173 0.0
C932 C 0.48586 0.48878 0.22832 0.0
C933 C 0.4724 0.47514 0.2279 0.0
H934 H 0.54167 0.95616 0.19519 0.0
N935 N 0.53442 0.97395 0.21552 0.0
H936 H 0.55979 0.96328 0.16691 0.0
H937 H 0.54493 0.99904 0.19128 0.0
H938 H 0.56289 0.00606 0.16344 0.0
H939 H 0.55975 1.0008 0.22384 0.0
H940 H 0.57849 0.00529 0.24906 0.0
H941 H 0.53203 0.95603 0.24637 0.0
H942 H 0.55058 0.96074 0.27291 0.0
H943 H 0.50574 0.95569 0.20863 0.0
H944 H 0.5375 1.00106 0.22672 0.0
H945 H 0.48606 0.96155 0.20981 0.0
H946 H 0.51825 0.00727 0.22674 0.0
H947 H 0.43486 0.97891 0.19153 0.0
H948 H 0.42333 0.97996 0.1595 0.0
H949 H 0.45207 0.02805 0.15941 0.0
H950 H 0.46429 0.02661 0.19069 0.0
H951 H 0.45169 0.02104 0.23582 0.0
H952 H 0.43194 0.01441 0.26127 0.0
H953 H 0.41795 0.96777 0.25309 0.0
H954 H 0.438 0.97461 0.22797 0.0
H955 H 0.45812 0.98087 0.18951 0.0
H956 H 0.47673 0.97399 0.19151 0.0
H957 H 0.49743 0.00499 0.24305 0.0
N958 N 0.45683 0.00265 0.21332 0.0
H959 H 0.47909 0.01254 0.24009 0.0
C960 C 0.54193 0.977 0.19564 0.0
C961 C 0.54586 0.96686 0.18779 0.0
C962 C 0.5562 0.97092 0.17169 0.0
C963 C 0.56285 0.98528 0.16328 0.0
C964 C 0.55802 0.99497 0.16986 0.0
C965 C 0.54763 0.99088 0.18581 0.0
C966 C 0.5444 0.97794 0.23301 0.0
C967 C 0.55745 0.99202 0.23462 0.0
C968 C 0.56824 0.99463 0.24931 0.0
C969 C 0.56621 0.98336 0.26309 0.0
C970 C 0.55273 0.9696 0.26231 0.0
C971 C 0.542 0.96693 0.24734 0.0
C972 C 0.52312 0.97785 0.21744 0.0
C973 C 0.50846 0.96692 0.21282 0.0
C974 C 0.49726 0.97036 0.21331 0.0
C975 C 0.50049 0.98496 0.21819 0.0
C976 C 0.5152 0.99585 0.22321 0.0
C977 C 0.52634 0.99232 0.22303 0.0
C978 C 0.45073 0.0027 0.19327 0.0
C979 C 0.43896 0.98963 0.18431 0.0
C980 C 0.43217 0.99031 0.1661 0.0
C981 C 0.43661 0.00412 0.15676 0.0
C982 C 0.44847 0.01715 0.16576 0.0
C983 C 0.45548 0.0164 0.18372 0.0
C984 C 0.44628 0.99836 0.23005 0.0
C985 C 0.44449 0.00942 0.23983 0.0
C986 C 0.43313 0.00559 0.25418 0.0
C987 C 0.42325 0.99054 0.25901 0.0
C988 C 0.42541 0.97947 0.24979 0.0
C989 C 0.43683 0.98334 0.23539 0.0
C990 C 0.4672 0.99748 0.21457 0.0
C991 C 0.46657 0.9863 0.20127 0.0
C992 C 0.47728 0.9822 0.20256 0.0
C993 C 0.48872 0.98892 0.21741 0.0
C994 C 0.48903 0.99976 0.23109 0.0
C995 C 0.47847 0.00402 0.22956 0.0
H996 H 0.43996 0.99293 0.81925 0.0
N997 N 0.46645 0.01943 0.81936 0.0
H998 H 0.42134 0.98385 0.84654 0.0
H999 H 0.46869 0.03162 0.85693 0.0
H1000 H 0.45017 0.02233 0.88486 0.0
H1001 H 0.4678 0.04486 0.81058 0.0
H1002 H 0.45553 0.04955 0.78199 0.0
H1003 H 0.45223 1.00046 0.78648 0.0
H1004 H 0.43958 0.00492 0.75798 0.0
H1005 H 0.46236 0.99128 0.82445 0.0
H1006 H 0.49446 0.03651 0.80773 0.0
H1007 H 0.48138 0.98475 0.82327 0.0
H1008 H 0.51346 0.02982 0.80492 0.0
H1009 H 0.56731 0.98731 0.82977 0.0
H1010 H 0.58089 0.99311 0.86222 0.0
H1011 H 0.55075 0.00456 0.89076 0.0
H1012 H 0.53701 0.99872 0.8585 0.0
H1013 H 0.56734 0.01939 0.8118 0.0
H1014 H 0.58621 0.02616 0.78509 0.0
H1015 H 0.56435 0.98023 0.76379 0.0
H1016 H 0.54513 0.97357 0.79038 0.0
H1017 H 0.51652 0.97356 0.80804 0.0
H1018 H 0.49727 0.97989 0.8046 0.0
H1019 H 0.52847 0.0251 0.82507 0.0
N1020 N 0.54444 0.99122 0.82027 0.0
H1021 H 0.54762 0.01882 0.82731 0.0
C1022 C 0.4558 0.01302 0.83604 0.0
C1023 C 0.44236 0.99942 0.8335 0.0
C1024 C 0.43171 0.99417 0.84925 0.0
C1025 C 0.43422 0.00235 0.86794 0.0
C1026 C 0.44778 0.01584 0.87057 0.0
C1027 C 0.45843 0.02109 0.85476 0.0
C1028 C 0.46084 0.02234 0.80074 0.0
C1029 C 0.46193 0.03623 0.79887 0.0
C1030 C 0.45493 0.03888 0.78253 0.0
C1031 C 0.44652 0.02757 0.76781 0.0
C1032 C 0.44587 0.01379 0.76923 0.0
C1033 C 0.45309 0.01123 0.78546 0.0
C1034 C 0.47701 0.01458 0.81661 0.0
C1035 C 0.47345 0.99982 0.82025 0.0
C1036 C 0.48442 0.99603 0.81932 0.0
C1037 C 0.49916 0.00677 0.81424 0.0
C1038 C 0.50243 0.0213 0.80951 0.0
C1039 C 0.49152 0.02514 0.81087 0.0
C1040 C 0.55176 0.99385 0.8405 0.0
C1041 C 0.56364 0.99133 0.84276 0.0
C1042 C 0.57134 0.99442 0.86154 0.0
C1043 C 0.56717 0.99973 0.8789 0.0
C1044 C 0.55457 1.00102 0.87739 0.0
C1045 C 0.54679 0.99784 0.85862 0.0
C1046 C 0.55459 0.99596 0.80285 0.0
C1047 C 0.56622 0.01086 0.80093 0.0
C1048 C 0.57713 0.0147 0.78575 0.0
C1049 C 0.57677 0.00371 0.77239 0.0
C1050 C 0.56494 0.98891 0.77397 0.0
C1051 C 0.55391 0.98511 0.78897 0.0
C1052 C 0.53348 0.99559 0.81808 0.0
C1053 C 0.51917 0.98486 0.8116 0.0
C1054 C 0.50814 0.98851 0.80982 0.0
C1055 C 0.51114 0.00303 0.8147 0.0
C1056 C 0.52566 0.01387 0.82075 0.0
C1057 C 0.53673 0.01028 0.82211 0.0
H1058 H 0.95393 0.54415 0.83305 0.0
N1059 N 0.96803 0.53456 0.80872 0.0
H1060 H 0.96423 0.56175 0.86241 0.0
H1061 H 0.99414 0.54281 0.8291 0.0
H1062 H 0.00405 0.55954 0.85888 0.0
H1063 H 0.99476 0.55789 0.79574 0.0
H1064 H 0.99833 0.57897 0.77573 0.0
H1065 H 0.94767 0.53591 0.78614 0.0
H1066 H 0.95112 0.55762 0.76701 0.0
H1067 H 0.95027 0.50621 0.81889 0.0
H1068 H 0.99232 0.53555 0.78997 0.0
H1069 H 0.95561 0.48601 0.81782 0.0
H1070 H 0.99814 0.51599 0.79007 0.0
H1071 H 0.9769 0.43595 0.83771 0.0
H1072 H 0.98001 0.42537 0.86923 0.0
H1073 H 0.02565 0.4613 0.87302 0.0
H1074 H 0.02258 0.47125 0.84039 0.0
H1075 H 0.01854 0.45391 0.79658 0.0
H1076 H 0.01341 0.43117 0.77748 0.0
H1077 H 0.96661 0.41426 0.78228 0.0
H1078 H 0.97178 0.43718 0.80114 0.0
H1079 H 0.97851 0.46138 0.84003 0.0
H1080 H 0.97002 0.47873 0.83527 0.0
H1081 H 0.99478 0.49354 0.77782 0.0
N1082 N 0.99897 0.45888 0.8155 0.0
H1083 H 0.00409 0.47676 0.78348 0.0
C1084 C 0.97313 0.54208 0.8287 0.0
C1085 C 0.96474 0.54722 0.83896 0.0
C1086 C 0.97065 0.55727 0.85577 0.0
C1087 C 0.98509 0.56229 0.8628 0.0
C1088 C 0.99305 0.55624 0.85353 0.0
C1089 C 0.98724 0.54641 0.83654 0.0
C1090 C 0.97087 0.54501 0.79222 0.0
C1091 C 0.98519 0.55721 0.78854 0.0
C1092 C 0.9872 0.56952 0.77745 0.0
C1093 C 0.97498 0.57019 0.7702 0.0
C1094 C 0.96079 0.5575 0.77231 0.0
C1095 C 0.95879 0.54504 0.78319 0.0
C1096 C 0.97081 0.5225 0.80468 0.0
C1097 C 0.96058 0.50827 0.8121 0.0
C1098 C 0.96378 0.49678 0.81174 0.0
C1099 C 0.97745 0.49932 0.80418 0.0
C1100 C 0.98742 0.51343 0.79582 0.0
C1101 C 0.9841 0.52481 0.79588 0.0
C1102 C 0.9996 0.45436 0.83648 0.0
C1103 C 0.98754 0.44166 0.84538 0.0
C1104 C 0.98933 0.43567 0.86366 0.0
C1105 C 0.00316 0.44233 0.87372 0.0
C1106 C 0.01493 0.45562 0.8655 0.0
C1107 C 0.01316 0.46149 0.84702 0.0
C1108 C 0.99559 0.44721 0.80033 0.0
C1109 C 0.00721 0.44555 0.79283 0.0
C1110 C 0.00428 0.4326 0.78202 0.0
C1111 C 0.98965 0.42111 0.77849 0.0
C1112 C 0.97798 0.4231 0.78473 0.0
C1113 C 0.98092 0.43614 0.79548 0.0
C1114 C 0.99219 0.46777 0.81217 0.0
C1115 C 0.98215 0.46824 0.82633 0.0
C1116 C 0.97712 0.47818 0.82346 0.0
C1117 C 0.98174 0.48774 0.80619 0.0
C1118 C 0.99121 0.4867 0.79158 0.0
C1119 C 0.99644 0.47696 0.79466 0.0
H1120 H 0.47172 0.44074 0.84894 0.0
N1121 N 0.46592 0.45139 0.81536 0.0
H1122 H 0.45597 0.42988 0.87955 0.0
H1123 H 0.44071 0.45191 0.82433 0.0
H1124 H 0.42464 0.44055 0.85415 0.0
H1125 H 0.44757 0.45486 0.78906 0.0
H1126 H 0.43179 0.43692 0.76198 0.0
H1127 H 0.46693 0.42801 0.80108 0.0
H1128 H 0.45158 0.4103 0.77372 0.0
H1129 H 0.49443 0.46228 0.80836 0.0
H1130 H 0.46207 0.47547 0.8163 0.0
H1131 H 0.51399 0.48846 0.80538 0.0
H1132 H 0.48156 0.50172 0.81429 0.0
H1133 H 0.56958 0.56207 0.82865 0.0
H1134 H 0.58229 0.57742 0.85931 0.0
H1135 H 0.54659 0.58597 0.86865 0.0
H1136 H 0.53432 0.57111 0.83741 0.0
H1137 H 0.56036 0.588 0.79926 0.0
H1138 H 0.58115 0.59986 0.77586 0.0
H1139 H 0.57428 0.55643 0.75837 0.0
H1140 H 0.55467 0.54495 0.78389 0.0
H1141 H 0.54697 0.53637 0.82603 0.0
H1142 H 0.52742 0.51014 0.82634 0.0
H1143 H 0.49892 0.52091 0.79226 0.0
N1144 N 0.54506 0.55958 0.81026 0.0
H1145 H 0.51843 0.5473 0.79293 0.0
C1146 C 0.45742 0.44706 0.83433 0.0
C1147 C 0.4616 0.44099 0.85029 0.0
C1148 C 0.45248 0.43464 0.86761 0.0
C1149 C 0.43889 0.43412 0.86921 0.0
C1150 C 0.43505 0.44084 0.85359 0.0
C1151 C 0.44425 0.44731 0.83637 0.0
C1152 C 0.45834 0.44264 0.79716 0.0
C1153 C 0.44857 0.44522 0.78569 0.0
C1154 C 0.43954 0.43497 0.77028 0.0
C1155 C 0.44042 0.4222 0.76584 0.0
C1156 C 0.45074 0.42009 0.77668 0.0
C1157 C 0.45953 0.43018 0.79226 0.0
C1158 C 0.47687 0.46692 0.81272 0.0
C1159 C 0.49159 0.47088 0.80948 0.0
C1160 C 0.50275 0.48586 0.80797 0.0
C1161 C 0.49944 0.4973 0.80983 0.0
C1162 C 0.48455 0.49326 0.81259 0.0
C1163 C 0.47336 0.47821 0.81392 0.0
C1164 C 0.55108 0.56566 0.83062 0.0
C1165 C 0.56436 0.56699 0.83759 0.0
C1166 C 0.5716 0.57577 0.85517 0.0
C1167 C 0.56563 0.58322 0.86621 0.0
C1168 C 0.55172 0.58075 0.86017 0.0
C1169 C 0.54458 0.57213 0.8425 0.0
C1170 C 0.5559 0.56561 0.79366 0.0
C1171 C 0.56334 0.58104 0.79031 0.0
C1172 C 0.57523 0.58782 0.77656 0.0
C1173 C 0.57971 0.57926 0.76485 0.0
C1174 C 0.57166 0.56361 0.76739 0.0
C1175 C 0.56013 0.5569 0.78189 0.0
C1176 C 0.53407 0.54384 0.80964 0.0
C1177 C 0.53651 0.53311 0.81871 0.0
C1178 C 0.52532 0.51804 0.81867 0.0
C1179 C 0.5115 0.51333 0.80937 0.0
C1180 C 0.50927 0.5241 0.79991 0.0
C1181 C 0.52044 0.53918 0.8001 0.0
H1182 H 0.6795 0.89699 0.53015 0.0
N1183 N 0.65542 0.87234 0.54625 0.0
H1184 H 0.67998 0.9101 0.49879 0.0
H1185 H 0.63455 0.86254 0.51698 0.0
H1186 H 0.63506 0.87527 0.48496 0.0
H1187 H 0.6389 0.88356 0.55824 0.0
H1188 H 0.64607 0.90525 0.58034 0.0
H1189 H 0.6803 0.88626 0.571 0.0
H1190 H 0.68695 0.90689 0.59516 0.0
H1191 H 0.67726 0.87107 0.52352 0.0
H1192 H 0.64624 0.85057 0.57394 0.0
H1193 H 0.68428 0.85252 0.52611 0.0
H1194 H 0.6542 0.83252 0.57789 0.0
H1195 H 0.70156 0.78739 0.528 0.0
H1196 H 0.69338 0.76887 0.49981 0.0
H1197 H 0.64969 0.76302 0.50341 0.0
H1198 H 0.65768 0.78066 0.5323 0.0
H1199 H 0.6621 0.7708 0.569 0.0
H1200 H 0.66394 0.75601 0.59675 0.0
H1201 H 0.71092 0.78755 0.6012 0.0
H1202 H 0.70887 0.80234 0.5737 0.0
H1203 H 0.70269 0.82372 0.54172 0.0
H1204 H 0.69675 0.84344 0.5431 0.0
H1205 H 0.65261 0.81136 0.56428 0.0
N1206 N 0.68529 0.7951 0.55064 0.0
H1207 H 0.65925 0.7922 0.56464 0.0
C1208 C 0.65689 0.87881 0.52597 0.0
C1209 C 0.66984 0.89208 0.5202 0.0
C1210 C 0.67011 0.89952 0.50216 0.0
C1211 C 0.65749 0.89384 0.48942 0.0
C1212 C 0.64487 0.88012 0.49463 0.0
C1213 C 0.64459 0.87273 0.51276 0.0
C1214 C 0.65895 0.88318 0.5629 0.0
C1215 C 0.64932 0.88852 0.56652 0.0
C1216 C 0.65348 0.90097 0.57938 0.0
C1217 C 0.66726 0.90819 0.58966 0.0
C1218 C 0.67648 0.90212 0.5871 0.0
C1219 C 0.67254 0.89 0.57355 0.0
C1220 C 0.66092 0.8622 0.5484 0.0
C1221 C 0.67203 0.86273 0.53542 0.0
C1222 C 0.67625 0.85208 0.53712 0.0
C1223 C 0.66986 0.84082 0.55222 0.0
C1224 C 0.65917 0.84069 0.5657 0.0
C1225 C 0.65469 0.85114 0.56364 0.0
C1226 C 0.68039 0.78562 0.53225 0.0
C1227 C 0.69026 0.78221 0.52248 0.0
C1228 C 0.68555 0.77164 0.50629 0.0
C1229 C 0.67081 0.76432 0.49926 0.0
C1230 C 0.66104 0.76814 0.50862 0.0
C1231 C 0.6657 0.77851 0.52509 0.0
C1232 C 0.6854 0.78772 0.56935 0.0
C1233 C 0.6727 0.77474 0.57637 0.0
C1234 C 0.67381 0.76621 0.59208 0.0
C1235 C 0.68761 0.77051 0.60108 0.0
C1236 C 0.7001 0.78397 0.5948 0.0
C1237 C 0.69898 0.79245 0.57909 0.0
C1238 C 0.68138 0.80646 0.55263 0.0
C1239 C 0.69179 0.82106 0.54686 0.0
C1240 C 0.68827 0.83228 0.54745 0.0
C1241 C 0.67404 0.82909 0.55339 0.0
C1242 C 0.66372 0.81444 0.55977 0.0
C1243 C 0.66743 0.80332 0.5597 0.0
H1244 H 0.24076 0.87448 0.53305 0.0
N1245 N 0.22141 0.87747 0.55603 0.0
H1246 H 0.25421 0.88905 0.50266 0.0
H1247 H 0.21521 0.89605 0.53492 0.0
H1248 H 0.22916 0.91139 0.50517 0.0
H1249 H 0.22081 0.90183 0.57102 0.0
H1250 H 0.23991 0.92144 0.59308 0.0
H1251 H 0.23984 0.87438 0.58041 0.0
H1252 H 0.25891 0.89387 0.60277 0.0
H1253 H 0.21055 0.84991 0.5417 0.0
H1254 H 0.19778 0.87883 0.57158 0.0
H1255 H 0.18484 0.82984 0.54026 0.0
H1256 H 0.17197 0.85847 0.57163 0.0
H1257 H 0.12003 0.77119 0.5389 0.0
H1258 H 0.11215 0.75476 0.50869 0.0
H1259 H 0.09705 0.78163 0.47952 0.0
H1260 H 0.10471 0.798 0.51048 0.0
H1261 H 0.08919 0.79033 0.5554 0.0
H1262 H 0.07058 0.77092 0.57785 0.0
H1263 H 0.1025 0.75913 0.59664 0.0
H1264 H 0.12102 0.77858 0.57467 0.0
H1265 H 0.13992 0.79195 0.55308 0.0
H1266 H 0.16506 0.81208 0.55861 0.0
H1267 H 0.15118 0.84423 0.55089 0.0
N1268 N 0.11559 0.79463 0.54588 0.0
H1269 H 0.1256 0.82371 0.54713 0.0
C1270 C 0.22721 0.88436 0.53629 0.0
C1271 C 0.23798 0.88227 0.52667 0.0
C1272 C 0.24575 0.89075 0.50949 0.0
C1273 C 0.24305 0.90169 0.50178 0.0
C1274 C 0.23156 0.9031 0.51069 0.0
C1275 C 0.22363 0.89442 0.52778 0.0
C1276 C 0.22895 0.88662 0.57399 0.0
C1277 C 0.22868 0.89972 0.57857 0.0
C1278 C 0.23965 0.91097 0.5912 0.0
C1279 C 0.25106 0.9093 0.59931 0.0
C1280 C 0.25037 0.89555 0.59646 0.0
C1281 C 0.2394 0.88434 0.5839 0.0
C1282 C 0.20612 0.86579 0.55689 0.0
C1283 C 0.20215 0.8518 0.54833 0.0
C1284 C 0.1874 0.84027 0.54773 0.0
C1285 C 0.17617 0.84234 0.55607 0.0
C1286 C 0.18022 0.85643 0.56484 0.0
C1287 C 0.19504 0.8681 0.56505 0.0
C1288 C 0.11307 0.78599 0.52697 0.0
C1289 C 0.11534 0.77384 0.52595 0.0
C1290 C 0.11079 0.76436 0.50853 0.0
C1291 C 0.10392 0.76682 0.49163 0.0
C1292 C 0.10211 0.77928 0.49237 0.0
C1293 C 0.10663 0.78875 0.5099 0.0
C1294 C 0.1065 0.78595 0.56309 0.0
C1295 C 0.09231 0.78391 0.56494 0.0
C1296 C 0.08169 0.77278 0.57768 0.0
C1297 C 0.08506 0.76337 0.58868 0.0
C1298 C 0.09956 0.76608 0.58803 0.0
C1299 C 0.11022 0.77734 0.57548 0.0
C1300 C 0.13067 0.80625 0.55004 0.0
C1301 C 0.14208 0.80323 0.55315 0.0
C1302 C 0.15666 0.81491 0.55594 0.0
C1303 C 0.16036 0.82993 0.55501 0.0
C1304 C 0.14887 0.83288 0.55207 0.0
C1305 C 0.13421 0.82116 0.54976 0.0
H1306 H 0.20636 0.29592 0.52945 0.0
N1307 N 0.20273 0.3154 0.55206 0.0
H1308 H 0.22337 0.30163 0.50005 0.0
H1309 H 0.21516 0.34113 0.52903 0.0
H1310 H 0.23189 0.34676 0.4999 0.0
H1311 H 0.22616 0.34294 0.56371 0.0
H1312 H 0.24655 0.34753 0.58565 0.0
H1313 H 0.20434 0.29583 0.57628 0.0
H1314 H 0.22563 0.30021 0.59701 0.0
H1315 H 0.17378 0.29635 0.55002 0.0
H1316 H 0.20572 0.34298 0.56073 0.0
H1317 H 0.1538 0.30175 0.55286 0.0
H1318 H 0.18627 0.34857 0.56216 0.0
H1319 H 0.09948 0.32014 0.53863 0.0
H1320 H 0.08668 0.32102 0.50788 0.0
H1321 H 0.12225 0.3662 0.49668 0.0
H1322 H 0.1346 0.36542 0.52839 0.0
H1323 H 0.1219 0.36369 0.57729 0.0
H1324 H 0.10423 0.35946 0.60507 0.0
H1325 H 0.08796 0.31209 0.60159 0.0
H1326 H 0.10581 0.31652 0.5737 0.0
H1327 H 0.12334 0.31936 0.53507 0.0
H1328 H 0.14207 0.3123 0.53556 0.0
H1329 H 0.16708 0.34737 0.58099 0.0
N1330 N 0.12467 0.34341 0.55576 0.0
H1331 H 0.14879 0.355 0.57914 0.0
C1332 C 0.20946 0.31802 0.53168 0.0
C1333 C 0.2115 0.30688 0.52257 0.0
C1334 C 0.22123 0.31016 0.50581 0.0
C1335 C 0.22913 0.32471 0.49796 0.0
C1336 C 0.22611 0.3355 0.50589 0.0
C1337 C 0.2164 0.33223 0.52258 0.0
C1338 C 0.21331 0.31897 0.56864 0.0
C1339 C 0.22534 0.33358 0.57183 0.0
C1340 C 0.23736 0.33617 0.58404 0.0
C1341 C 0.238 0.32421 0.59274 0.0
C1342 C 0.22556 0.30973 0.5907 0.0
C1343 C 0.21333 0.30719 0.57884 0.0
C1344 C 0.19135 0.31913 0.55505 0.0
C1345 C 0.17651 0.30774 0.55296 0.0
C1346 C 0.1651 0.3109 0.55438 0.0
C1347 C 0.1683 0.32565 0.55767 0.0
C1348 C 0.18321 0.33702 0.56002 0.0
C1349 C 0.19455 0.33381 0.55896 0.0
C1350 C 0.11798 0.34281 0.53595 0.0
C1351 C 0.10458 0.33021 0.52955 0.0
C1352 C 0.09731 0.33071 0.51175 0.0
C1353 C 0.10334 0.34374 0.49974 0.0
C1354 C 0.1171 0.35609 0.50572 0.0
C1355 C 0.12428 0.35562 0.52368 0.0
C1356 C 0.11515 0.34048 0.57349 0.0
C1357 C 0.11467 0.35244 0.58278 0.0
C1358 C 0.1046 0.34998 0.59867 0.0
C1359 C 0.0947 0.33542 0.60556 0.0
C1360 C 0.09537 0.32341 0.5965 0.0
C1361 C 0.10559 0.32592 0.58066 0.0
C1362 C 0.13482 0.338 0.55677 0.0
C1363 C 0.13288 0.32561 0.54503 0.0
C1364 C 0.14359 0.32145 0.54553 0.0
C1365 C 0.15631 0.32935 0.55812 0.0
C1366 C 0.15775 0.34126 0.57059 0.0
C1367 C 0.14722 0.34558 0.56974 0.0
H1368 H 0.01497 0.39071 0.06159 0.0
H1369 H 0.96939 0.35866 0.07755 0.0
H1370 H 0.97146 0.37376 0.10869 0.0
H1371 H 0.02933 0.40054 0.11537 0.0
H1372 H 0.04144 0.41998 0.10939 0.0
H1373 H 0.0369 0.40587 0.08954 0.0
H1374 H 0.0276 0.41916 0.06567 0.0
H1375 H 0.03196 0.43322 0.08551 0.0
H1376 H 0.01348 0.42269 0.07506 0.0
H1377 H 0.97784 0.39286 0.13674 0.0
H1378 H 0.98826 0.41463 0.16053 0.0
H1379 H 0.02942 0.43511 0.12567 0.0
C1380 C 0.00555 0.38669 0.07193 0.0
C1381 C 0.99205 0.37344 0.06724 0.0
C1382 C 0.97985 0.36875 0.08086 0.0
C1383 C 0.98092 0.37724 0.0986 0.0
C1384 C 0.99424 0.39044 0.10247 0.0
C1385 C 0.00637 0.39514 0.08961 0.0
C1386 C 0.01908 0.41025 0.09667 0.0
C1387 C 0.03248 0.40909 0.10313 0.0
C1388 C 0.02327 0.42202 0.07972 0.0
C1389 C 0.01211 0.41335 0.11533 0.0
C1390 C 0.99782 0.40172 0.11844 0.0
C1391 C 0.98902 0.40205 0.13447 0.0
C1392 C 0.99501 0.41457 0.14776 0.0
C1393 C 0.00963 0.42672 0.1449 0.0
C1394 C 0.01826 0.42601 0.12841 0.0
H1395 H 0.61132 0.6348 0.08103 0.0
H1396 H 0.62458 0.60985 0.04082 0.0
H1397 H 0.61091 0.58782 0.06311 0.0
H1398 H 0.615 0.61967 0.129 0.0
H1399 H 0.59934 0.61929 0.14116 0.0
H1400 H 0.60978 0.63295 0.12162 0.0
H1401 H 0.58579 0.62386 0.10028 0.0
H1402 H 0.57529 0.61008 0.11968 0.0
H1403 H 0.5747 0.60441 0.09288 0.0
H1404 H 0.59548 0.56835 0.08937 0.0
H1405 H 0.58094 0.5534 0.11935 0.0
H1406 H 0.57896 0.59148 0.14352 0.0
C1407 C 0.61131 0.62469 0.07688 0.0
C1408 C 0.61898 0.62405 0.05913 0.0
C1409 C 0.61883 0.61065 0.05437 0.0
C1410 C 0.61103 0.59804 0.06687 0.0
C1411 C 0.60354 0.59903 0.08418 0.0
C1412 C 0.60373 0.61204 0.08934 0.0
C1413 C 0.59523 0.6103 0.10925 0.0
C1414 C 0.60545 0.6212 0.12626 0.0
C1415 C 0.58196 0.61228 0.10528 0.0
C1416 C 0.59022 0.59427 0.11444 0.0
C1417 C 0.59501 0.58793 0.09969 0.0
C1418 C 0.59174 0.57323 0.10112 0.0
C1419 C 0.58354 0.56484 0.11828 0.0
C1420 C 0.57881 0.57122 0.13393 0.0
C1421 C 0.58215 0.58613 0.13175 0.0
H1422 H 0.3672 0.97851 0.08145 0.0
H1423 H 0.39586 0.0159 0.04205 0.0
H1424 H 0.41655 0.02335 0.06655 0.0
H1425 H 0.38242 0.99845 0.13069 0.0
H1426 H 0.38042 0.98221 0.14336 0.0
H1427 H 0.36788 0.98004 0.12284 0.0
H1428 H 0.37454 0.96253 0.10276 0.0
H1429 H 0.3872 0.96476 0.12311 0.0
H1430 H 0.39361 0.96905 0.09662 0.0
H1431 H 0.43457 0.02554 0.09404 0.0
H1432 H 0.448 0.02378 0.12404 0.0
H1433 H 0.40695 0.98628 0.14703 0.0
C1434 C 0.37781 0.98831 0.07803 0.0
C1435 C 0.37994 0.99659 0.0598 0.0
C1436 C 0.39396 0.00942 0.05597 0.0
C1437 C 0.40579 0.01371 0.06974 0.0
C1438 C 0.40337 0.00518 0.08744 0.0
C1439 C 0.38967 0.9929 0.09179 0.0
C1440 C 0.38994 0.98579 0.11204 0.0
C1441 C 0.37955 0.98668 0.12819 0.0
C1442 C 0.3861 0.96957 0.1084 0.0
C1443 C 0.406 0.99581 0.11817 0.0
C1444 C 0.41359 0.00687 0.10373 0.0
C1445 C 0.42869 0.01708 0.10565 0.0
C1446 C 0.43621 0.01603 0.12288 0.0
C1447 C 0.42861 0.00496 0.13818 0.0
C1448 C 0.41326 0.99477 0.13563 0.0
H1449 H 0.38428 0.00849 0.95795 0.0
H1450 H 0.36227 0.96019 0.96278 0.0
H1451 H 0.37782 0.95959 0.93452 0.0
H1452 H 0.38842 0.00969 0.90134 0.0
H1453 H 0.40636 0.02652 0.90201 0.0
H1454 H 0.39307 0.02317 0.92218 0.0
H1455 H 0.41214 0.02636 0.95008 0.0
H1456 H 0.42545 0.02958 0.93 0.0
H1457 H 0.42039 0.01491 0.9485 0.0
H1458 H 0.39642 0.96412 0.90696 0.0
H1459 H 0.41622 0.97349 0.88063 0.0
H1460 H 0.42598 0.01875 0.89274 0.0
C1461 C 0.3826 0.99775 0.95293 0.0
C1462 C 0.37199 0.98439 0.96271 0.0
C1463 C 0.37027 0.97061 0.95566 0.0
C1464 C 0.37908 0.97014 0.93958 0.0
C1465 C 0.38957 0.9835 0.93056 0.0
C1466 C 0.39132 0.99705 0.93683 0.0
C1467 C 0.40358 0.00978 0.92464 0.0
C1468 C 0.39749 0.01776 0.91178 0.0
C1469 C 0.41613 0.02081 0.93918 0.0
C1470 C 0.40852 0.00126 0.91073 0.0
C1471 C 0.40027 0.98611 0.91442 0.0
C1472 C 0.40287 0.97595 0.90376 0.0
C1473 C 0.41411 0.98138 0.88875 0.0
C1474 C 0.42264 0.99685 0.88444 0.0
C1475 C 0.41978 0.00688 0.89574 0.0
H1476 H 0.97751 0.38507 0.96755 0.0
H1477 H 0.02114 0.39031 0.96627 0.0
H1478 H 0.02893 0.40973 0.93952 0.0
H1479 H 0.97433 0.38872 0.91383 0.0
H1480 H 0.965 0.39908 0.91661 0.0
H1481 H 0.96319 0.38631 0.93654 0.0
H1482 H 0.97254 0.40761 0.9642 0.0
H1483 H 0.97435 0.42046 0.94434 0.0
H1484 H 0.99002 0.4246 0.96036 0.0
H1485 H 0.0312 0.42705 0.91077 0.0
H1486 H 0.02806 0.44122 0.88305 0.0
H1487 H 0.98339 0.4258 0.90479 0.0
C1488 C 0.98875 0.39036 0.96179 0.0
C1489 C 0.99871 0.38611 0.96902 0.0
C1490 C 0.01332 0.39339 0.96107 0.0
C1491 C 0.01785 0.40444 0.94586 0.0
C1492 C 0.00769 0.40823 0.93895 0.0
C1493 C 0.99349 0.4015 0.94681 0.0
C1494 C 0.98459 0.4073 0.93643 0.0
C1495 C 0.97098 0.3946 0.92519 0.0
C1496 C 0.98011 0.41548 0.95228 0.0
C1497 C 0.99587 0.41807 0.92111 0.0
C1498 C 0.00915 0.4185 0.92285 0.0
C1499 C 0.02094 0.42701 0.90953 0.0
C1500 C 0.01907 0.43515 0.89389 0.0
C1501 C 0.0055 0.43482 0.89167 0.0
C1502 C 0.99388 0.4263 0.90582 0.0
H1503 H 0.62122 0.61984 0.96319 0.0
H1504 H 0.61439 0.65737 0.95856 0.0
H1505 H 0.59847 0.64555 0.9279 0.0
H1506 H 0.62132 0.61266 0.90698 0.0
H1507 H 0.61136 0.59266 0.90981 0.0
H1508 H 0.62321 0.60457 0.93049 0.0
H1509 H 0.60126 0.59214 0.9563 0.0
H1510 H 0.58932 0.58028 0.93569 0.0
H1511 H 0.58442 0.59191 0.95057 0.0
H1512 H 0.5826 0.62952 0.89893 0.0
H1513 H 0.56779 0.61023 0.87267 0.0
H1514 H 0.58376 0.58226 0.89645 0.0
C1515 C 0.61659 0.62568 0.95547 0.0
C1516 C 0.6191 0.63957 0.96322 0.0
C1517 C 0.61261 0.64673 0.95293 0.0
C1518 C 0.60357 0.64012 0.93547 0.0
C1519 C 0.60104 0.6263 0.92851 0.0
C1520 C 0.60736 0.61914 0.93808 0.0
C1521 C 0.60221 0.60401 0.92793 0.0
C1522 C 0.61531 0.60345 0.91822 0.0
C1523 C 0.5938 0.59134 0.94356 0.0
C1524 C 0.59194 0.60378 0.9113 0.0
C1525 C 0.59152 0.6168 0.91191 0.0
C1526 C 0.58279 0.61925 0.89831 0.0
C1527 C 0.57428 0.60811 0.88357 0.0
C1528 C 0.57441 0.59459 0.88259 0.0
C1529 C 0.58343 0.59247 0.8967 0.0
H1530 H 0.99137 0.61273 0.96251 0.0
H1531 H 0.03757 0.64154 0.9458 0.0
H1532 H 0.03411 0.62539 0.91548 0.0
H1533 H 0.98939 0.57828 0.94886 0.0
H1534 H 0.97086 0.56942 0.93859 0.0
H1535 H 0.97661 0.58355 0.95872 0.0
H1536 H 0.96926 0.59878 0.93544 0.0
H1537 H 0.96342 0.58466 0.91527 0.0
H1538 H 0.97692 0.60383 0.90962 0.0
H1539 H 0.02605 0.60646 0.88731 0.0
H1540 H 0.01376 0.58542 0.86253 0.0
H1541 H 0.97289 0.56779 0.89775 0.0
C1542 C 1.00071 0.6157 0.95236 0.0
C1543 C 0.01475 0.62842 0.95658 0.0
C1544 C 0.02673 0.63183 0.94301 0.0
C1545 C 0.02488 0.62275 0.92569 0.0
C1546 C 0.011 0.61022 0.92213 0.0
C1547 C 0.9991 0.60663 0.93501 0.0
C1548 C 0.98548 0.59225 0.92778 0.0
C1549 C 0.98029 0.58016 0.94449 0.0
C1550 C 0.97304 0.59505 0.92167 0.0
C1551 C 0.99166 0.58837 0.90887 0.0
C1552 C 0.00638 0.59896 0.90593 0.0
C1553 C 0.01454 0.598 0.88951 0.0
C1554 C 0.00747 0.58589 0.87563 0.0
C1555 C 0.99239 0.57475 0.8783 0.0
C1556 C 0.98441 0.57609 0.8952 0.0
H1557 H 0.39738 0.36869 0.95154 0.0
H1558 H 0.3728 0.38976 0.97134 0.0
H1559 H 0.38564 0.40912 0.94478 0.0
H1560 H 0.43145 0.40159 0.94227 0.0
H1561 H 0.43599 0.39451 0.91939 0.0
H1562 H 0.42436 0.38184 0.93924 0.0
H1563 H 0.40389 0.36657 0.91188 0.0
H1564 H 0.41553 0.3791 0.89188 0.0
H1565 H 0.39719 0.37594 0.89593 0.0
H1566 H 0.4025 0.42723 0.91774 0.0
H1567 H 0.42067 0.44158 0.89034 0.0
H1568 H 0.43325 0.40792 0.88711 0.0
C1569 C 0.39458 0.37728 0.95017 0.0
C1570 C 0.38409 0.3777 0.96358 0.0
C1571 C 0.38073 0.38913 0.9612 0.0
C1572 C 0.38801 0.40023 0.94621 0.0
C1573 C 0.39849 0.39964 0.93354 0.0
C1574 C 0.40161 0.38834 0.93515 0.0
C1575 C 0.41336 0.39029 0.91966 0.0
C1576 C 0.4271 0.39217 0.93081 0.0
C1577 C 0.40711 0.3772 0.9039 0.0
C1578 C 0.41659 0.40463 0.90942 0.0
C1579 C 0.40792 0.40986 0.91764 0.0
C1580 C 0.40922 0.42314 0.91099 0.0
C1581 C 0.41955 0.43119 0.89536 0.0
C1582 C 0.42841 0.42591 0.88645 0.0
C1583 C 0.42684 0.41243 0.89372 0.0
H1584 H 0.62108 0.99894 0.9657 0.0
H1585 H 0.62858 0.04213 0.98649 0.0
H1586 H 0.61069 0.04043 0.96056 0.0
H1587 H 0.61843 0.00461 0.91139 0.0
H1588 H 0.60419 0.98554 0.90603 0.0
H1589 H 0.6171 0.98972 0.92693 0.0
H1590 H 0.59531 0.97614 0.9528 0.0
H1591 H 0.58233 0.97196 0.93197 0.0
H1592 H 0.58178 0.98177 0.95499 0.0
H1593 H 0.59226 0.03438 0.93241 0.0
H1594 H 0.57551 0.02497 0.9021 0.0
H1595 H 0.58004 0.9859 0.89872 0.0
C1596 C 0.61889 0.00799 0.96488 0.0
C1597 C 0.62625 0.02066 0.97822 0.0
C1598 C 0.62316 0.03233 0.97645 0.0
C1599 C 0.61295 0.03145 0.96182 0.0
C1600 C 0.60592 0.01886 0.94892 0.0
C1601 C 0.6088 0.00737 0.95016 0.0
C1602 C 0.60013 0.99539 0.9338 0.0
C1603 C 0.61059 0.99372 0.91864 0.0
C1604 C 0.58924 0.98043 0.944 0.0
C1605 C 0.59203 0.00201 0.92314 0.0
C1606 C 0.59543 0.01548 0.93229 0.0
C1607 C 0.58945 0.02381 0.92515 0.0
C1608 C 0.57986 0.01832 0.90801 0.0
C1609 C 0.5764 0.00468 0.89807 0.0
C1610 C 0.58252 0.9964 0.90591 0.0
H1611 H 0.61217 0.98969 0.06479 0.0
H1612 H 0.6471 0.03102 0.09251 0.0
H1613 H 0.63159 0.02704 0.12329 0.0
H1614 H 0.58279 0.99407 0.08077 0.0
H1615 H 0.57003 0.97471 0.08646 0.0
H1616 H 0.58434 0.97962 0.06734 0.0
H1617 H 0.59383 0.96481 0.08735 0.0
H1618 H 0.57943 0.95969 0.10643 0.0
H1619 H 0.5985 0.9689 0.11455 0.0
H1620 H 0.61193 0.02046 0.14902 0.0
H1621 H 0.58924 0.01044 0.1701 0.0
H1622 H 0.56659 0.97296 0.12697 0.0
C1623 C 0.61666 0.99768 0.07759 0.0
C1624 C 0.63086 0.01068 0.07622 0.0
C1625 C 0.63625 0.02102 0.09313 0.0
C1626 C 0.62754 0.01885 0.11073 0.0
C1627 C 0.61345 0.00624 0.11132 0.0
C1628 C 0.60805 0.9957 0.09539 0.0
C1629 C 0.59215 0.98358 0.09967 0.0
C1630 C 0.58172 0.98297 0.08254 0.0
C1631 C 0.59091 0.96834 0.10215 0.0
C1632 C 0.58945 0.9892 0.1202 0.0
C1633 C 0.60195 0.00228 0.12657 0.0
C1634 C 0.6021 0.01013 0.14438 0.0
C1635 C 0.58915 0.00443 0.15613 0.0
C1636 C 0.5762 0.991 0.15008 0.0
C1637 C 0.57639 0.98321 0.13197 0.0
H1638 H 0.03252 0.62818 0.05974 0.0
H1639 H 0.98966 0.62476 0.05901 0.0
H1640 H 0.98098 0.60591 0.08666 0.0
H1641 H 0.0188 0.5893 0.06699 0.0
H1642 H 0.03374 0.59234 0.08382 0.0
H1643 H 0.03677 0.60591 0.06442 0.0
H1644 H 0.04598 0.62662 0.09295 0.0
H1645 H 0.04307 0.61314 0.11243 0.0
H1646 H 0.03436 0.62411 0.11513 0.0
H1647 H 0.97699 0.58739 0.11438 0.0
H1648 H 0.97805 0.57094 0.14053 0.0
H1649 H 0.0232 0.58567 0.12202 0.0
C1650 C 0.02135 0.62359 0.06549 0.0
C1651 C 0.0118 0.62803 0.05721 0.0
C1652 C 0.9972 0.62158 0.06508 0.0
C1653 C 0.99216 0.61084 0.08078 0.0
C1654 C 1.00181 0.60661 0.08839 0.0
C1655 C 0.0161 0.6128 0.08103 0.0
C1656 C 0.02419 0.60615 0.0916 0.0
C1657 C 0.02863 0.59794 0.07576 0.0
C1658 C 0.0377 0.61823 0.10375 0.0
C1659 C 0.01223 0.59531 0.10616 0.0
C1660 C 0.99942 0.59574 0.10405 0.0
C1661 C 0.98693 0.58688 0.11606 0.0
C1662 C 0.98761 0.57745 0.13075 0.0
C1663 C 1.00067 0.57686 0.1333 0.0
C1664 C 0.01308 0.58588 0.12063 0.0
H1665 H 0.4039 0.38147 0.06186 0.0
H1666 H 0.36499 0.38566 0.06516 0.0
H1667 H 0.37642 0.40389 0.09428 0.0
H1668 H 0.40993 0.38235 0.11549 0.0
H1669 H 0.42982 0.39294 0.11355 0.0
H1670 H 0.41894 0.38115 0.09218 0.0
H1671 H 0.43141 0.40378 0.06744 0.0
H1672 H 0.44233 0.41567 0.08878 0.0
H1673 H 0.43094 0.42043 0.07384 0.0
H1674 H 0.39174 0.4205 0.12475 0.0
H1675 H 0.40915 0.43342 0.15392 0.0
H1676 H 0.43796 0.4185 0.12934 0.0
C1677 C 0.39775 0.38624 0.06856 0.0
C1678 C 0.3835 0.38207 0.06123 0.0
C1679 C 0.37592 0.38868 0.07047 0.0
C1680 C 0.38234 0.39907 0.08699 0.0
C1681 C 0.39638 0.40282 0.09389 0.0
C1682 C 0.40399 0.39662 0.08486 0.0
C1683 C 0.41865 0.40197 0.09549 0.0
C1684 C 0.41936 0.38882 0.10473 0.0
C1685 C 0.4316 0.411 0.08049 0.0
C1686 C 0.41799 0.41187 0.11234 0.0
C1687 C 0.40516 0.41237 0.11111 0.0
C1688 C 0.4019 0.42032 0.12569 0.0
C1689 C 0.41189 0.42769 0.14214 0.0
C1690 C 0.42492 0.42697 0.1439 0.0
C1691 C 0.42806 0.41919 0.12851 0.0
H1692 H 0.67691 0.72258 0.39721 0.0
H1693 H 0.63074 0.68886 0.40629 0.0
H1694 H 0.63017 0.70209 0.43823 0.0
H1695 H 0.68771 0.72952 0.45165 0.0
H1696 H 0.69965 0.74937 0.4484 0.0
H1697 H 0.69667 0.73675 0.42701 0.0
H1698 H 0.68805 0.75102 0.40391 0.0
H1699 H 0.69096 0.76365 0.42524 0.0
H1700 H 0.67313 0.75348 0.41272 0.0
H1701 H 0.63466 0.71892 0.46915 0.0
H1702 H 0.64347 0.73865 0.49614 0.0
H1703 H 0.68616 0.76259 0.46522 0.0
C1704 C 0.66675 0.71787 0.4061 0.0
C1705 C 0.6539 0.70462 0.39942 0.0
C1706 C 0.64071 0.69899 0.41118 0.0
C1707 C 0.64029 0.7064 0.42935 0.0
C1708 C 0.6531 0.71953 0.43539 0.0
C1709 C 0.66606 0.72528 0.42406 0.0
C1710 C 0.67803 0.73999 0.43335 0.0
C1711 C 0.6913 0.73883 0.44053 0.0
C1712 C 0.68282 0.75279 0.41788 0.0
C1713 C 0.6698 0.74156 0.45171 0.0
C1714 C 0.65548 0.72959 0.45269 0.0
C1715 C 0.64581 0.72843 0.46844 0.0
C1716 C 0.6509 0.73982 0.48361 0.0
C1717 C 0.6655 0.75237 0.48283 0.0
C1718 C 0.675 0.75316 0.46653 0.0
H1719 H 0.26474 0.95291 0.40058 0.0
H1720 H 0.30987 0.96343 0.41017 0.0
H1721 H 0.3021 0.94819 0.44183 0.0
H1722 H 0.2551 0.9526 0.45532 0.0
H1723 H 0.23655 0.93697 0.452 0.0
H1724 H 0.24576 0.94945 0.4307 0.0
H1725 H 0.24126 0.92701 0.40734 0.0
H1726 H 0.23209 0.91448 0.42857 0.0
H1727 H 0.24762 0.91488 0.41592 0.0
H1728 H 0.2896 0.93165 0.47188 0.0
H1729 H 0.27301 0.91431 0.49844 0.0
H1730 H 0.23555 0.91324 0.46871 0.0
C1731 C 0.27301 0.95216 0.40952 0.0
C1732 C 0.28793 0.95942 0.40298 0.0
C1733 C 0.29838 0.95796 0.41487 0.0
C1734 C 0.29408 0.94936 0.43291 0.0
C1735 C 0.27928 0.94219 0.43877 0.0
C1736 C 0.26887 0.94345 0.42747 0.0
C1737 C 0.25356 0.93402 0.43676 0.0
C1738 C 0.24738 0.94385 0.44413 0.0
C1739 C 0.24301 0.92188 0.42122 0.0
C1740 C 0.25702 0.92727 0.45502 0.0
C1741 C 0.27194 0.93222 0.4559 0.0
C1742 C 0.27787 0.92761 0.47129 0.0
C1743 C 0.2683 0.91762 0.48621 0.0
C1744 C 0.2529 0.9122 0.48557 0.0
C1745 C 0.24725 0.91719 0.46974 0.0
H1746 H 0.04605 0.31097 0.4054 0.0
H1747 H 0.05134 0.35482 0.39883 0.0
H1748 H 0.06963 0.36444 0.42757 0.0
H1749 H 0.04868 0.3114 0.46071 0.0
H1750 H 0.0589 0.30187 0.46081 0.0
H1751 H 0.04632 0.29862 0.43981 0.0
H1752 H 0.06751 0.30608 0.41313 0.0
H1753 H 0.08016 0.30938 0.43405 0.0
H1754 H 0.08432 0.32397 0.41578 0.0
H1755 H 0.08684 0.36886 0.45804 0.0
H1756 H 0.10159 0.3679 0.48697 0.0
H1757 H 0.08586 0.32139 0.47162 0.0
C1758 C 0.05097 0.32259 0.41 0.0
C1759 C 0.04716 0.33212 0.39993 0.0
C1760 C 0.05406 0.3473 0.40633 0.0
C1761 C 0.06446 0.35286 0.42263 0.0
C1762 C 0.06795 0.34312 0.43218 0.0
C1763 C 0.06144 0.32833 0.42599 0.0
C1764 C 0.06713 0.32015 0.43855 0.0
C1765 C 0.05451 0.30725 0.45069 0.0
C1766 C 0.07526 0.31458 0.42454 0.0
C1767 C 0.07773 0.33259 0.45303 0.0
C1768 C 0.07807 0.34576 0.44916 0.0
C1769 C 0.08676 0.35864 0.46103 0.0
C1770 C 0.09521 0.358 0.47736 0.0
C1771 C 0.095 0.34458 0.48164 0.0
C1772 C 0.08621 0.3318 0.46904 0.0
H1773 H 0.05913 0.34222 0.30251 0.0
H1774 H 0.03085 0.29414 0.29497 0.0
H1775 H 0.04567 0.2947 0.26471 0.0
H1776 H 0.06476 0.35103 0.24838 0.0
H1777 H 0.08387 0.36553 0.25142 0.0
H1778 H 0.07107 0.36139 0.27258 0.0
H1779 H 0.08801 0.35702 0.29684 0.0
H1780 H 0.10087 0.36117 0.27576 0.0
H1781 H 0.0933 0.3437 0.28921 0.0
H1782 H 0.06284 0.30058 0.23442 0.0
H1783 H 0.08173 0.31119 0.20693 0.0
H1784 H 0.09997 0.35522 0.23561 0.0
C1785 C 0.05603 0.3318 0.29449 0.0
C1786 C 0.04379 0.31814 0.30111 0.0
C1787 C 0.0402 0.30475 0.29026 0.0
C1788 C 0.04853 0.30494 0.27302 0.0
C1789 C 0.06052 0.31859 0.26693 0.0
C1790 C 0.06434 0.33176 0.2774 0.0
C1791 C 0.07784 0.34489 0.26776 0.0
C1792 C 0.07416 0.35639 0.25955 0.0
C1793 C 0.09077 0.35211 0.28332 0.0
C1794 C 0.08089 0.33705 0.25009 0.0
C1795 C 0.07074 0.3219 0.24985 0.0
C1796 C 0.07099 0.3124 0.2346 0.0
C1797 C 0.08189 0.31855 0.21913 0.0
C1798 C 0.09255 0.33407 0.21908 0.0
C1799 C 0.09199 0.34335 0.23495 0.0
H1800 H 0.65154 0.70876 0.28166 0.0
H1801 H 0.69136 0.73166 0.31934 0.0
H1802 H 0.70114 0.75355 0.29636 0.0
H1803 H 0.66978 0.7224 0.2321 0.0
H1804 H 0.65478 0.72384 0.22145 0.0
H1805 H 0.6511 0.7101 0.24088 0.0
H1806 H 0.63823 0.72077 0.26384 0.0
H1807 H 0.64203 0.73466 0.24458 0.0
H1808 H 0.64819 0.74031 0.27105 0.0
H1809 H 0.70604 0.77336 0.2699 0.0
H1810 H 0.70669 0.78862 0.24045 0.0
H1811 H 0.6641 0.7521 0.21936 0.0
C1812 C 0.66234 0.71836 0.28509 0.0
C1813 C 0.67066 0.71851 0.30239 0.0
C1814 C 0.68481 0.73125 0.30616 0.0
C1815 C 0.69041 0.74377 0.29326 0.0
C1816 C 0.68181 0.74331 0.27653 0.0
C1817 C 0.66816 0.73084 0.27228 0.0
C1818 C 0.66123 0.73301 0.2531 0.0
C1819 C 0.6591 0.72167 0.23586 0.0
C1820 C 0.64655 0.73214 0.25847 0.0
C1821 C 0.67304 0.74872 0.24731 0.0
C1822 C 0.68478 0.7545 0.26106 0.0
C1823 C 0.69695 0.76888 0.25893 0.0
C1824 C 0.69724 0.77744 0.24208 0.0
C1825 C 0.68548 0.77159 0.22744 0.0
C1826 C 0.67318 0.75706 0.23035 0.0
H1827 H 0.27415 0.95894 0.28722 0.0
H1828 H 0.295 0.93684 0.31558 0.0
H1829 H 0.28327 0.9165 0.28924 0.0
H1830 H 0.23979 0.92625 0.27388 0.0
H1831 H 0.23807 0.93337 0.24933 0.0
H1832 H 0.248 0.94609 0.2705 0.0
H1833 H 0.27115 0.96029 0.24703 0.0
H1834 H 0.26125 0.94769 0.22574 0.0
H1835 H 0.27864 0.95012 0.23417 0.0
H1836 H 0.26846 0.89813 0.26036 0.0
H1837 H 0.25338 0.88419 0.22973 0.0
H1838 H 0.24365 0.91934 0.21931 0.0
C1839 C 0.27624 0.94981 0.28794 0.0
C1840 C 0.28541 0.94942 0.30354 0.0
C1841 C 0.28803 0.93738 0.30375 0.0
C1842 C 0.28136 0.92575 0.28892 0.0
C1843 C 0.27227 0.92643 0.27386 0.0
C1844 C 0.26986 0.93825 0.27313 0.0
C1845 C 0.26001 0.93659 0.25501 0.0
C1846 C 0.24562 0.9355 0.26265 0.0
C1847 C 0.26826 0.94943 0.23957 0.0
C1848 C 0.2571 0.9219 0.24577 0.0
C1849 C 0.26419 0.91616 0.25691 0.0
C1850 C 0.26297 0.90259 0.25141 0.0
C1851 C 0.25443 0.8948 0.2339 0.0
C1852 C 0.24731 0.90064 0.22197 0.0
C1853 C 0.24869 0.91437 0.22818 0.0
H1854 H 0.69156 0.96341 0.27837 0.0
H1855 H 0.64671 0.93997 0.30235 0.0
H1856 H 0.63934 0.92106 0.27403 0.0
H1857 H 0.68129 0.95669 0.22328 0.0
H1858 H 0.69688 0.95477 0.2165 0.0
H1859 H 0.6982 0.96664 0.23808 0.0
H1860 H 0.70573 0.95196 0.26225 0.0
H1861 H 0.70423 0.93992 0.24084 0.0
H1862 H 0.69379 0.93201 0.26433 0.0
H1863 H 0.6376 0.90357 0.24459 0.0
H1864 H 0.64104 0.89032 0.21486 0.0
H1865 H 0.68669 0.92646 0.20939 0.0
C1866 C 0.68014 0.95438 0.27758 0.0
C1867 C 0.66972 0.95311 0.2926 0.0
C1868 C 0.65486 0.94119 0.29093 0.0
C1869 C 0.6506 0.93037 0.27497 0.0
C1870 C 0.66127 0.9318 0.26068 0.0
C1871 C 0.67568 0.94366 0.26166 0.0
C1872 C 0.68508 0.9427 0.24451 0.0
C1873 C 0.69069 0.95599 0.22972 0.0
C1874 C 0.69796 0.94157 0.25353 0.0
C1875 C 0.67381 0.92824 0.23397 0.0
C1876 C 0.66015 0.92207 0.24349 0.0
C1877 C 0.6482 0.90843 0.23682 0.0
C1878 C 0.65026 0.90101 0.21986 0.0
C1879 C 0.66414 0.90729 0.20965 0.0
C1880 C 0.67599 0.92113 0.21693 0.0
H1881 H 0.0712 0.71878 0.29506 0.0
H1882 H 0.02948 0.71717 0.30312 0.0
H1883 H 0.03747 0.73737 0.27737 0.0
H1884 H 0.09406 0.75928 0.28899 0.0
H1885 H 0.1059 0.75767 0.27006 0.0
H1886 H 0.09714 0.74382 0.28997 0.0
H1887 H 0.08559 0.72297 0.26159 0.0
H1888 H 0.09428 0.73673 0.24162 0.0
H1889 H 0.07454 0.72415 0.24127 0.0
H1890 H 0.04949 0.75636 0.24829 0.0
H1891 H 0.0644 0.77251 0.21934 0.0
H1892 H 0.09867 0.76236 0.23236 0.0
C1893 C 0.06374 0.7227 0.29154 0.0
C1894 C 0.04966 0.71632 0.30101 0.0
C1895 C 0.04032 0.72191 0.29608 0.0
C1896 C 0.04477 0.73337 0.28149 0.0
C1897 C 0.05868 0.73927 0.27226 0.0
C1898 C 0.06806 0.73419 0.2773 0.0
C1899 C 0.08228 0.74202 0.26494 0.0
C1900 C 0.09563 0.75125 0.27935 0.0
C1901 C 0.08428 0.7308 0.25156 0.0
C1902 C 0.07929 0.752 0.25162 0.0
C1903 C 0.06568 0.75036 0.2561 0.0
C1904 C 0.06026 0.75789 0.2449 0.0
C1905 C 0.06887 0.76713 0.22854 0.0
C1906 C 0.08277 0.76878 0.2235 0.0
C1907 C 0.08807 0.76129 0.23559 0.0
H1908 H 0.28907 0.36294 0.29988 0.0
H1909 H 0.28537 0.31951 0.30148 0.0
H1910 H 0.26774 0.31087 0.27225 0.0
H1911 H 0.25072 0.34919 0.28821 0.0
H1912 H 0.25464 0.36438 0.2712 0.0
H1913 H 0.26708 0.36728 0.29226 0.0
H1914 H 0.28882 0.3766 0.26614 0.0
H1915 H 0.27646 0.37374 0.24501 0.0
H1916 H 0.28732 0.36489 0.24421 0.0
H1917 H 0.25089 0.307 0.24253 0.0
H1918 H 0.23589 0.30812 0.21422 0.0
H1919 H 0.24965 0.35371 0.2326 0.0
C1920 C 0.28459 0.35162 0.29408 0.0
C1921 C 0.28866 0.34193 0.30305 0.0
C1922 C 0.28245 0.32717 0.29497 0.0
C1923 C 0.27241 0.32214 0.27834 0.0
C1924 C 0.26861 0.33195 0.26996 0.0
C1925 C 0.27448 0.34637 0.27753 0.0
C1926 C 0.26849 0.35462 0.2657 0.0
C1927 C 0.25971 0.35913 0.28021 0.0
C1928 C 0.28102 0.36827 0.25461 0.0
C1929 C 0.25842 0.3426 0.25023 0.0
C1930 C 0.25866 0.32962 0.25297 0.0
C1931 C 0.25049 0.31705 0.24034 0.0
C1932 C 0.24188 0.31777 0.22439 0.0
C1933 C 0.2414 0.33095 0.22121 0.0
C1934 C 0.24979 0.34349 0.23446 0.0
H1935 H 0.27313 0.32228 0.39662 0.0
H1936 H 0.31049 0.36341 0.42067 0.0
H1937 H 0.2965 0.36144 0.45247 0.0
H1938 H 0.24586 0.32969 0.41386 0.0
H1939 H 0.23237 0.31083 0.42098 0.0
H1940 H 0.24575 0.31414 0.40099 0.0
H1941 H 0.25439 0.29866 0.42117 0.0
H1942 H 0.2409 0.29515 0.44114 0.0
H1943 H 0.26014 0.30342 0.44794 0.0
H1944 H 0.27828 0.3568 0.47967 0.0
H1945 H 0.25668 0.34887 0.50241 0.0
H1946 H 0.23039 0.31065 0.4617 0.0
C1947 C 0.27844 0.3306 0.40887 0.0
C1948 C 0.2929 0.34297 0.40626 0.0
C1949 C 0.29941 0.35387 0.42237 0.0
C1950 C 0.29158 0.35283 0.44051 0.0
C1951 C 0.2772 0.34083 0.44237 0.0
C1952 C 0.27067 0.32981 0.42717 0.0
C1953 C 0.25468 0.31867 0.43274 0.0
C1954 C 0.24404 0.31832 0.41615 0.0
C1955 C 0.2524 0.30305 0.43594 0.0
C1956 C 0.25326 0.32539 0.45315 0.0
C1957 C 0.26645 0.33814 0.45835 0.0
C1958 C 0.26789 0.34677 0.4759 0.0
C1959 C 0.25552 0.34226 0.4886 0.0
C1960 C 0.24184 0.32923 0.48372 0.0
C1961 C 0.24074 0.32062 0.46582 0.0
H1962 H 0.69126 0.95208 0.39629 0.0
H1963 H 0.64889 0.94964 0.39266 0.0
H1964 H 0.6393 0.93118 0.42078 0.0
H1965 H 0.67665 0.91305 0.4058 0.0
H1966 H 0.69117 0.91631 0.42365 0.0
H1967 H 0.6948 0.92941 0.40322 0.0
H1968 H 0.70381 0.95087 0.43056 0.0
H1969 H 0.70026 0.93786 0.45106 0.0
H1970 H 0.69183 0.94915 0.4519 0.0
H1971 H 0.63434 0.91318 0.44951 0.0
H1972 H 0.63453 0.89733 0.4774 0.0
H1973 H 0.67987 0.91088 0.46169 0.0
C1974 C 0.67997 0.94772 0.40141 0.0
C1975 C 0.67085 0.95236 0.39219 0.0
C1976 C 0.65613 0.94629 0.3994 0.0
C1977 C 0.65055 0.93577 0.41537 0.0
C1978 C 0.65981 0.93138 0.42398 0.0
C1979 C 0.67421 0.93717 0.41729 0.0
C1980 C 0.68185 0.93061 0.42923 0.0
C1981 C 0.68638 0.92182 0.4146 0.0
C1982 C 0.69523 0.94285 0.44141 0.0
C1983 C 0.66952 0.92029 0.44375 0.0
C1984 C 0.65689 0.92088 0.44042 0.0
C1985 C 0.64413 0.91253 0.45216 0.0
C1986 C 0.64432 0.90345 0.46787 0.0
C1987 C 0.65718 0.90272 0.47171 0.0
C1988 C 0.66988 0.91122 0.45929 0.0
H1989 H 0.04632 0.71486 0.40305 0.0
H1990 H 0.07605 0.69837 0.39001 0.0
H1991 H 0.09271 0.71462 0.41773 0.0
H1992 H 0.07419 0.75263 0.41329 0.0
H1993 H 0.06444 0.75549 0.43433 0.0
H1994 H 0.05426 0.74208 0.41394 0.0
H1995 H 0.04085 0.72131 0.44129 0.0
H1996 H 0.05086 0.7347 0.46178 0.0
H1997 H 0.05161 0.71785 0.45959 0.0
H1998 H 0.10694 0.73351 0.44522 0.0
H1999 H 0.11704 0.75269 0.47306 0.0
H2000 H 0.07794 0.75654 0.46968 0.0
C2001 C 0.05624 0.71452 0.40619 0.0
C2002 C 0.05983 0.70531 0.3942 0.0
C2003 C 0.07299 0.7053 0.39882 0.0
C2004 C 0.08258 0.71453 0.41456 0.0
C2005 C 0.07889 0.72369 0.42571 0.0
C2006 C 0.06598 0.72367 0.42196 0.0
C2007 C 0.06478 0.73472 0.43626 0.0
C2008 C 0.0644 0.74695 0.4237 0.0
C2009 C 0.05122 0.72666 0.45058 0.0
C2010 C 0.07909 0.741 0.44844 0.0
C2011 C 0.08706 0.73449 0.44201 0.0
C2012 C 0.10074 0.73858 0.4506 0.0
C2013 C 0.10635 0.74945 0.46647 0.0
C2014 C 0.09826 0.75607 0.47375 0.0
C2015 C 0.08449 0.75183 0.4644 0.0
H2016 H 0.31586 0.03565 0.7418 0.0
H2017 H 0.36088 0.06155 0.71865 0.0
H2018 H 0.36621 0.08134 0.74464 0.0
H2019 H 0.31029 0.06588 0.75113 0.0
H2020 H 0.29986 0.05849 0.77477 0.0
H2021 H 0.29966 0.04597 0.75497 0.0
H2022 H 0.30862 0.03401 0.78182 0.0
H2023 H 0.30865 0.04635 0.80177 0.0
H2024 H 0.32519 0.04577 0.79664 0.0
H2025 H 0.36613 0.09916 0.77156 0.0
H2026 H 0.36125 0.11262 0.79945 0.0
H2027 H 0.31677 0.0744 0.80618 0.0
C2028 C 0.32689 0.0454 0.74231 0.0
C2029 C 0.33792 0.04702 0.7281 0.0
C2030 C 0.35223 0.05998 0.72938 0.0
C2031 C 0.35537 0.07134 0.74404 0.0
C2032 C 0.34415 0.06952 0.75749 0.0
C2033 C 0.33027 0.05678 0.75697 0.0
C2034 C 0.32017 0.05759 0.77315 0.0
C2035 C 0.3067 0.05695 0.76289 0.0
C2036 C 0.31538 0.0452 0.7893 0.0
C2037 C 0.33048 0.07286 0.78263 0.0
C2038 C 0.34424 0.0796 0.77334 0.0
C2039 C 0.35545 0.09391 0.77915 0.0
C2040 C 0.35258 0.10144 0.79508 0.0
C2041 C 0.33863 0.09462 0.80516 0.0
C2042 C 0.32748 0.08012 0.79868 0.0
H2043 H 0.96128 0.28953 0.74161 0.0
H2044 H 0.92394 0.27978 0.70246 0.0
H2045 H 0.9075 0.25829 0.72454 0.0
H2046 H 0.94977 0.25091 0.7551 0.0
H2047 H 0.95592 0.25576 0.78171 0.0
H2048 H 0.96511 0.26926 0.76147 0.0
H2049 H 0.9603 0.28811 0.78156 0.0
H2050 H 0.95117 0.27471 0.80187 0.0
H2051 H 0.94167 0.28262 0.78899 0.0
H2052 H 0.89505 0.23845 0.75132 0.0
H2053 H 0.88685 0.22302 0.78279 0.0
H2054 H 0.93191 0.24721 0.80638 0.0
C2055 C 0.94969 0.28266 0.73754 0.0
C2056 C 0.94384 0.28611 0.72027 0.0
C2057 C 0.92858 0.27721 0.71564 0.0
C2058 C 0.9192 0.26497 0.728 0.0
C2059 C 0.92524 0.26192 0.74509 0.0
C2060 C 0.9401 0.2706 0.75003 0.0
C2061 C 0.94347 0.26579 0.77038 0.0
C2062 C 0.9542 0.26009 0.76695 0.0
C2063 C 0.9495 0.27857 0.78666 0.0
C2064 C 0.92817 0.25318 0.77617 0.0
C2065 C 0.91789 0.25096 0.76119 0.0
C2066 C 0.90299 0.24011 0.76322 0.0
C2067 C 0.89843 0.23148 0.78126 0.0
C2068 C 0.90867 0.23391 0.79726 0.0
C2069 C 0.92378 0.24482 0.79441 0.0
H2070 H 0.72528 0.67593 0.72713 0.0
H2071 H 0.69519 0.62822 0.73413 0.0
H2072 H 0.70937 0.62837 0.76447 0.0
H2073 H 0.75801 0.67584 0.73954 0.0
H2074 H 0.76666 0.69334 0.75378 0.0
H2075 H 0.75363 0.68994 0.73335 0.0
H2076 H 0.73786 0.69537 0.7591 0.0
H2077 H 0.75091 0.69891 0.77958 0.0
H2078 H 0.73163 0.68513 0.78304 0.0
H2079 H 0.72713 0.63313 0.79276 0.0
H2080 H 0.74717 0.6425 0.81859 0.0
H2081 H 0.76646 0.68712 0.79346 0.0
C2082 C 0.72155 0.66558 0.73527 0.0
C2083 C 0.70911 0.65206 0.72822 0.0
C2084 C 0.70471 0.63871 0.73915 0.0
C2085 C 0.71268 0.63867 0.75644 0.0
C2086 C 0.72506 0.65206 0.76269 0.0
C2087 C 0.72947 0.66531 0.75259 0.0
C2088 C 0.74353 0.67801 0.76223 0.0
C2089 C 0.75621 0.68467 0.74627 0.0
C2090 C 0.74081 0.69006 0.77154 0.0
C2091 C 0.74634 0.66976 0.77915 0.0
C2092 C 0.7355 0.65481 0.77909 0.0
C2093 C 0.7357 0.64482 0.79298 0.0
C2094 C 0.74725 0.65023 0.80746 0.0
C2095 C 0.75852 0.66552 0.80796 0.0
C2096 C 0.758 0.67539 0.79355 0.0
H2097 H 0.7196 0.6469 0.62251 0.0
H2098 H 0.72632 0.6911 0.63429 0.0
H2099 H 0.74617 0.7015 0.60795 0.0
H2100 H 0.7582 0.65884 0.61486 0.0
H2101 H 0.75439 0.6452 0.59454 0.0
H2102 H 0.7409 0.64128 0.61465 0.0
H2103 H 0.72124 0.63622 0.58661 0.0
H2104 H 0.73465 0.64011 0.56643 0.0
H2105 H 0.72511 0.65033 0.56764 0.0
H2106 H 0.76463 0.70691 0.57934 0.0
H2107 H 0.78022 0.70697 0.55054 0.0
H2108 H 0.76219 0.6594 0.55848 0.0
C2109 C 0.72523 0.65878 0.61962 0.0
C2110 C 0.72134 0.66816 0.63052 0.0
C2111 C 0.72908 0.68366 0.62622 0.0
C2112 C 0.74039 0.68968 0.61128 0.0
C2113 C 0.74392 0.6801 0.60085 0.0
C2114 C 0.7366 0.66499 0.60486 0.0
C2115 C 0.7424 0.65709 0.5913 0.0
C2116 C 0.74939 0.6502 0.60464 0.0
C2117 C 0.73012 0.64524 0.57716 0.0
C2118 C 0.75399 0.67009 0.57883 0.0
C2119 C 0.75473 0.68327 0.58462 0.0
C2120 C 0.76428 0.69669 0.57484 0.0
C2121 C 0.7732 0.69662 0.55858 0.0
C2122 C 0.77259 0.68322 0.55223 0.0
C2123 C 0.76292 0.66984 0.56276 0.0
H2124 H 0.34984 0.05171 0.61943 0.0
H2125 H 0.30889 0.04496 0.64619 0.0
H2126 H 0.3093 0.06324 0.62211 0.0
H2127 H 0.36682 0.09163 0.60943 0.0
H2128 H 0.37466 0.09069 0.58482 0.0
H2129 H 0.37186 0.0777 0.60503 0.0
H2130 H 0.35623 0.05552 0.57974 0.0
H2131 H 0.35906 0.06845 0.55944 0.0
H2132 H 0.34055 0.05435 0.56674 0.0
H2133 H 0.31352 0.08161 0.59511 0.0
H2134 H 0.32056 0.09803 0.56473 0.0
H2135 H 0.35828 0.09261 0.55388 0.0
C2136 C 0.34105 0.05419 0.62028 0.0
C2137 C 0.32933 0.04688 0.63472 0.0
C2138 C 0.31793 0.0503 0.63519 0.0
C2139 C 0.3181 0.06076 0.62167 0.0
C2140 C 0.3297 0.0677 0.60759 0.0
C2141 C 0.34092 0.06452 0.60661 0.0
C2142 C 0.35159 0.07302 0.58907 0.0
C2143 C 0.36716 0.08391 0.5976 0.0
C2144 C 0.35187 0.06219 0.57278 0.0
C2145 C 0.34451 0.08134 0.58036 0.0
C2146 C 0.33199 0.07819 0.59148 0.0
C2147 C 0.3233 0.08418 0.58625 0.0
C2148 C 0.32735 0.09344 0.56891 0.0
C2149 C 0.33991 0.09655 0.55686 0.0
C2150 C 0.34872 0.09058 0.56292 0.0
H2151 H 0.93538 0.29195 0.6336 0.0
H2152 H 0.97924 0.29978 0.6205 0.0
H2153 H 0.96928 0.28278 0.58969 0.0
H2154 H 0.91595 0.25278 0.62015 0.0
H2155 H 0.90031 0.25302 0.60948 0.0
H2156 H 0.91107 0.26596 0.63003 0.0
H2157 H 0.91557 0.28816 0.60711 0.0
H2158 H 0.90477 0.27531 0.58654 0.0
H2159 H 0.92346 0.2901 0.58151 0.0
H2160 H 0.95426 0.26575 0.55912 0.0
H2161 H 0.93578 0.24993 0.53252 0.0
H2162 H 0.90163 0.25167 0.56861 0.0
C2163 C 0.94296 0.29023 0.62415 0.0
C2164 C 0.95813 0.29736 0.62918 0.0
C2165 C 0.96759 0.2945 0.61677 0.0
C2166 C 0.96203 0.28486 0.59931 0.0
C2167 C 0.94695 0.27798 0.59484 0.0
C2168 C 0.93756 0.28046 0.60708 0.0
C2169 C 0.92178 0.27154 0.59943 0.0
C2170 C 0.91168 0.26015 0.61574 0.0
C2171 C 0.91607 0.2819 0.59328 0.0
C2172 C 0.92373 0.26387 0.5806 0.0
C2173 C 0.9383 0.2677 0.57811 0.0
C2174 C 0.94279 0.26251 0.56111 0.0
C2175 C 0.93215 0.2534 0.54615 0.0
C2176 C 0.91715 0.24946 0.54835 0.0
C2177 C 0.91297 0.25457 0.56615 0.0
H2178 H 0.35895 0.30212 0.60886 0.0
H2179 H 0.31756 0.27389 0.64084 0.0
H2180 H 0.31062 0.25422 0.61366 0.0
H2181 H 0.3436 0.29071 0.55557 0.0
H2182 H 0.36031 0.29199 0.5459 0.0
H2183 H 0.3612 0.30401 0.56701 0.0
H2184 H 0.37499 0.29454 0.5895 0.0
H2185 H 0.37394 0.28233 0.56862 0.0
H2186 H 0.36662 0.27479 0.59391 0.0
H2187 H 0.30989 0.23662 0.58502 0.0
H2188 H 0.31405 0.22369 0.55558 0.0
H2189 H 0.3551 0.2646 0.5413 0.0
C2190 C 0.34831 0.29189 0.60993 0.0
C2191 C 0.33878 0.28944 0.62688 0.0
C2192 C 0.32493 0.27598 0.62782 0.0
C2193 C 0.32096 0.26475 0.61254 0.0
C2194 C 0.33084 0.26737 0.59627 0.0
C2195 C 0.34408 0.28077 0.59466 0.0
C2196 C 0.35286 0.28083 0.57591 0.0
C2197 C 0.35459 0.29258 0.56016 0.0
C2198 C 0.36799 0.28326 0.58239 0.0
C2199 C 0.34278 0.26516 0.56762 0.0
C2200 C 0.33013 0.25753 0.5795 0.0
C2201 C 0.31962 0.2426 0.57536 0.0
C2202 C 0.32207 0.23535 0.55854 0.0
C2203 C 0.33491 0.24307 0.54598 0.0
C2204 C 0.34528 0.25822 0.55066 0.0
H2205 H 0.7356 0.04725 0.62522 0.0
H2206 H 0.69284 0.04401 0.62301 0.0
H2207 H 0.70178 0.06217 0.59445 0.0
H2208 H 0.75732 0.0866 0.61621 0.0
H2209 H 0.7709 0.08537 0.60046 0.0
H2210 H 0.76105 0.07179 0.62036 0.0
H2211 H 0.75231 0.05039 0.59295 0.0
H2212 H 0.7622 0.0639 0.57299 0.0
H2213 H 0.74271 0.05065 0.56998 0.0
H2214 H 0.71529 0.08052 0.56599 0.0
H2215 H 0.73228 0.09759 0.53946 0.0
H2216 H 0.76669 0.08989 0.56147 0.0
C2217 C 0.72805 0.05024 0.61864 0.0
C2218 C 0.71347 0.04413 0.62633 0.0
C2219 C 0.70404 0.04852 0.6174 0.0
C2220 C 0.70902 0.05884 0.60117 0.0
C2221 C 0.72349 0.06475 0.59413 0.0
C2222 C 0.73287 0.06062 0.60257 0.0
C2223 C 0.74797 0.06881 0.59238 0.0
C2224 C 0.76002 0.07873 0.60831 0.0
C2225 C 0.7515 0.05778 0.58143 0.0
C2226 C 0.74558 0.07812 0.5768 0.0
C2227 C 0.73139 0.0756 0.57807 0.0
C2228 C 0.72648 0.08269 0.56498 0.0
C2229 C 0.7363 0.09251 0.55007 0.0
C2230 C 0.75094 0.09527 0.5484 0.0
C2231 C 0.75559 0.088 0.56215 0.0
H2232 H 0.95021 0.66221 0.62789 0.0
H2233 H 0.95256 0.70305 0.64928 0.0
H2234 H 0.93273 0.69855 0.62495 0.0
H2235 H 0.9457 0.66694 0.57488 0.0
H2236 H 0.93298 0.64749 0.56894 0.0
H2237 H 0.94604 0.65266 0.5899 0.0
H2238 H 0.92461 0.63699 0.61547 0.0
H2239 H 0.91146 0.63174 0.59454 0.0
H2240 H 0.90956 0.64046 0.61785 0.0
H2241 H 0.91454 0.69123 0.59684 0.0
H2242 H 0.89926 0.68182 0.56528 0.0
H2243 H 0.90805 0.64545 0.56102 0.0
C2244 C 0.94628 0.66997 0.62769 0.0
C2245 C 0.95286 0.68295 0.6405 0.0
C2246 C 0.94769 0.69307 0.63953 0.0
C2247 C 0.93638 0.69058 0.62586 0.0
C2248 C 0.93031 0.67791 0.61312 0.0
C2249 C 0.93503 0.66775 0.6138 0.0
C2250 C 0.92738 0.65574 0.59705 0.0
C2251 C 0.9387 0.65572 0.58179 0.0
C2252 C 0.91767 0.64032 0.60682 0.0
C2253 C 0.918 0.66103 0.58663 0.0
C2254 C 0.91973 0.67371 0.59642 0.0
C2255 C 0.91286 0.68116 0.5892 0.0
C2256 C 0.9041 0.67564 0.57128 0.0
C2257 C 0.90226 0.66278 0.56065 0.0
C2258 C 0.9092 0.6553 0.56869 0.0
H2259 H 0.95368 0.67422 0.74279 0.0
H2260 H 0.9785 0.72211 0.73219 0.0
H2261 H 0.96636 0.72607 0.76212 0.0
H2262 H 0.91973 0.67196 0.75853 0.0
H2263 H 0.91549 0.65843 0.77856 0.0
H2264 H 0.92616 0.65898 0.75618 0.0
H2265 H 0.94716 0.66206 0.78032 0.0
H2266 H 0.93651 0.66141 0.80278 0.0
H2267 H 0.955 0.67706 0.79933 0.0
H2268 H 0.9515 0.72529 0.79219 0.0
H2269 H 0.93524 0.71972 0.82262 0.0
H2270 H 0.92018 0.67254 0.81539 0.0
C2271 C 0.9566 0.68553 0.74683 0.0
C2272 C 0.96707 0.69781 0.73497 0.0
C2273 C 0.97055 0.71245 0.74086 0.0
C2274 C 0.96369 0.71487 0.75788 0.0
C2275 C 0.95337 0.70258 0.76905 0.0
C2276 C 0.94986 0.6882 0.76396 0.0
C2277 C 0.93841 0.67707 0.77891 0.0
C2278 C 0.9241 0.66595 0.76735 0.0
C2279 C 0.94465 0.66892 0.79106 0.0
C2280 C 0.93607 0.6875 0.79304 0.0
C2281 C 0.94481 0.70215 0.78693 0.0
C2282 C 0.94466 0.71388 0.7973 0.0
C2283 C 0.93545 0.71061 0.81463 0.0
C2284 C 0.92655 0.69573 0.82154 0.0
C2285 C 0.92679 0.68402 0.81042 0.0
H2286 H 0.3576 0.28779 0.72856 0.0
H2287 H 0.31905 0.29266 0.72939 0.0
H2288 H 0.30849 0.27463 0.75811 0.0
H2289 H 0.33814 0.2485 0.73792 0.0
H2290 H 0.35247 0.24933 0.75407 0.0
H2291 H 0.35716 0.2629 0.73397 0.0
H2292 H 0.37017 0.28436 0.76124 0.0
H2293 H 0.36558 0.27086 0.78141 0.0
H2294 H 0.36007 0.28456 0.78391 0.0
H2295 H 0.3022 0.25606 0.78686 0.0
H2296 H 0.30079 0.23873 0.81367 0.0
H2297 H 0.34301 0.24525 0.79285 0.0
C2298 C 0.34698 0.28519 0.73484 0.0
C2299 C 0.33919 0.29173 0.72671 0.0
C2300 C 0.32525 0.28784 0.73533 0.0
C2301 C 0.31915 0.27759 0.75164 0.0
C2302 C 0.32708 0.27127 0.7591 0.0
C2303 C 0.34069 0.27493 0.75098 0.0
C2304 C 0.34689 0.26643 0.76156 0.0
C2305 C 0.34877 0.25618 0.74595 0.0
C2306 C 0.36154 0.2772 0.77269 0.0
C2307 C 0.33467 0.25745 0.77701 0.0
C2308 C 0.32335 0.26039 0.77534 0.0
C2309 C 0.31096 0.25359 0.7882 0.0
C2310 C 0.31021 0.24363 0.80328 0.0
C2311 C 0.32173 0.24048 0.80537 0.0
C2312 C 0.33405 0.24746 0.79185 0.0
H2313 H 0.73792 0.05254 0.71986 0.0
H2314 H 0.69489 0.04672 0.7337 0.0
H2315 H 0.70568 0.06397 0.76398 0.0
H2316 H 0.74891 0.05281 0.77095 0.0
H2317 H 0.76804 0.06688 0.76698 0.0
H2318 H 0.75718 0.05513 0.74556 0.0
H2319 H 0.76351 0.07854 0.72413 0.0
H2320 H 0.77446 0.09039 0.74549 0.0
H2321 H 0.75971 0.09229 0.73494 0.0
H2322 H 0.72077 0.07972 0.7948 0.0
H2323 H 0.73888 0.09334 0.82272 0.0
H2324 H 0.77237 0.0901 0.78706 0.0
C2325 C 0.73076 0.05498 0.72912 0.0
C2326 C 0.71554 0.04823 0.7245 0.0
C2327 C 0.70659 0.05181 0.73693 0.0
C2328 C 0.71262 0.06158 0.75414 0.0
C2329 C 0.72765 0.06785 0.75844 0.0
C2330 C 0.73662 0.06481 0.74611 0.0
C2331 C 0.75229 0.07256 0.75435 0.0
C2332 C 0.75686 0.06116 0.75978 0.0
C2333 C 0.76313 0.08413 0.7388 0.0
C2334 C 0.75066 0.08005 0.77368 0.0
C2335 C 0.7364 0.07727 0.77574 0.0
C2336 C 0.73204 0.08222 0.79311 0.0
C2337 C 0.74249 0.09007 0.80886 0.0
C2338 C 0.75718 0.09297 0.80713 0.0
C2339 C 0.76127 0.08805 0.78904 0.0
H2340 H 0.04797 0.37479 0.04776 0.0
H2341 H 0.02317 0.32939 0.02359 0.0
H2342 H 0.04225 0.32455 0.03685 0.0
H2343 H 0.08532 0.38119 0.03962 0.0
H2344 H 0.09228 0.39114 0.06399 0.0
H2345 H 0.07758 0.3917 0.05066 0.0
H2346 H 0.0612 0.38199 0.08367 0.0
H2347 H 0.07587 0.38149 0.0971 0.0
H2348 H 0.05782 0.36488 0.09526 0.0
H2349 H 0.06368 0.32446 0.05286 0.0
H2350 H 0.08459 0.32803 0.07417 0.0
H2351 H 0.09429 0.37265 0.09142 0.0
C2352 C 0.04675 0.36394 0.04502 0.0
C2353 C 0.03426 0.35249 0.03445 0.0
C2354 C 0.03273 0.33829 0.0316 0.0
C2355 C 0.04353 0.33547 0.03897 0.0
C2356 C 0.05569 0.34691 0.04947 0.0
C2357 C 0.05728 0.3608 0.05281 0.0
C2358 C 0.07068 0.37061 0.06632 0.0
C2359 C 0.08214 0.38448 0.05443 0.0
C2360 C 0.06611 0.37499 0.0868 0.0
C2361 C 0.07629 0.36003 0.07011 0.0
C2362 C 0.06762 0.34653 0.05991 0.0
C2363 C 0.07049 0.33494 0.06108 0.0
C2364 C 0.08236 0.33706 0.0734 0.0
C2365 C 0.09108 0.35056 0.08481 0.0
C2366 C 0.08805 0.36225 0.08278 0.0
H2367 H 0.64922 0.68937 0.03775 0.0
H2368 H 0.68288 0.68164 0.06261 0.0
H2369 H 0.69216 0.70424 0.08491 0.0
H2370 H 0.67131 0.72892 0.03563 0.0
H2371 H 0.65667 0.73213 0.04336 0.0
H2372 H 0.65233 0.71508 0.02988 0.0
H2373 H 0.63483 0.69959 0.0599 0.0
H2374 H 0.63903 0.71659 0.07342 0.0
H2375 H 0.64179 0.70295 0.0862 0.0
H2376 H 0.6986 0.72837 0.10299 0.0
H2377 H 0.70071 0.75145 0.11753 0.0
H2378 H 0.66245 0.74317 0.0816 0.0
C2379 C 0.65847 0.69236 0.04801 0.0
C2380 C 0.66536 0.68377 0.04845 0.0
C2381 C 0.67742 0.68804 0.06208 0.0
C2382 C 0.68279 0.70087 0.07475 0.0
C2383 C 0.67588 0.70922 0.07372 0.0
C2384 C 0.66389 0.70506 0.06086 0.0
C2385 C 0.65851 0.71601 0.06263 0.0
C2386 C 0.65978 0.72348 0.04162 0.0
C2387 C 0.6426 0.70832 0.07104 0.0
C2388 C 0.66944 0.72707 0.07835 0.0
C2389 C 0.67941 0.72298 0.08445 0.0
C2390 C 0.69081 0.73164 0.09841 0.0
C2391 C 0.69198 0.74478 0.10645 0.0
C2392 C 0.68178 0.74911 0.10063 0.0
C2393 C 0.67035 0.74008 0.08641 0.0
H2394 H 0.31419 0.95971 0.02625 0.0
H2395 H 0.32646 0.99871 0.0653 0.0
H2396 H 0.30492 0.98344 0.08797 0.0
H2397 H 0.27468 0.94409 0.02933 0.0
H2398 H 0.27052 0.92504 0.02982 0.0
H2399 H 0.28687 0.93904 0.01669 0.0
H2400 H 0.30306 0.93249 0.03913 0.0
H2401 H 0.28677 0.91845 0.05228 0.0
H2402 H 0.30189 0.93301 0.06713 0.0
H2403 H 0.28249 0.96367 0.10698 0.0
H2404 H 0.26102 0.94106 0.121 0.0
H2405 H 0.26252 0.91523 0.06828 0.0
C2406 C 0.31237 0.96505 0.03959 0.0
C2407 C 0.32202 0.9804 0.04406 0.0
C2408 C 0.31921 0.98697 0.06159 0.0
C2409 C 0.30699 0.97839 0.07454 0.0
C2410 C 0.29765 0.9633 0.06963 0.0
C2411 C 0.30018 0.95669 0.05255 0.0
C2412 C 0.28849 0.94026 0.05073 0.0
C2413 C 0.27962 0.93692 0.03044 0.0
C2414 C 0.29547 0.93048 0.05243 0.0
C2415 C 0.27907 0.9386 0.0696 0.0
C2416 C 0.28454 0.95201 0.08028 0.0
C2417 C 0.278 0.95314 0.09859 0.0
C2418 C 0.26566 0.9402 0.10632 0.0
C2419 C 0.25984 0.92625 0.09571 0.0
C2420 C 0.26664 0.9256 0.07693 0.0
H2421 H 0.33343 0.02431 0.97965 0.0
H2422 H 0.38137 0.04848 0.98145 0.0
H2423 H 0.38204 0.07019 0.96509 0.0
H2424 H 0.32909 0.03786 0.931 0.0
H2425 H 0.3135 0.03926 0.93958 0.0
H2426 H 0.31695 0.02565 0.95092 0.0
H2427 H 0.3174 0.0365 0.98769 0.0
H2428 H 0.31402 0.05018 0.97645 0.0
H2429 H 0.32991 0.0561 0.99293 0.0
H2430 H 0.37724 0.08875 0.94698 0.0
H2431 H 0.3676 0.10297 0.92985 0.0
H2432 H 0.32273 0.0675 0.94366 0.0
C2433 C 0.34407 0.03413 0.97645 0.0
C2434 C 0.35737 0.0347 0.98156 0.0
C2435 C 0.37107 0.04783 0.97754 0.0
C2436 C 0.37154 0.06019 0.96828 0.0
C2437 C 0.35821 0.05931 0.96353 0.0
C2438 C 0.34473 0.04665 0.96767 0.0
C2439 C 0.332 0.04866 0.96163 0.0
C2440 C 0.32232 0.03718 0.94478 0.0
C2441 C 0.32279 0.04781 0.98082 0.0
C2442 C 0.34039 0.06432 0.95307 0.0
C2443 C 0.35548 0.07026 0.95421 0.0
C2444 C 0.36543 0.0843 0.94632 0.0
C2445 C 0.3598 0.09238 0.93677 0.0
C2446 C 0.34432 0.08653 0.93537 0.0
C2447 C 0.3346 0.07237 0.94408 0.0
H2448 H 0.96446 0.31115 -0.00022 0.0
H2449 H 0.98912 0.33934 0.94803 0.0
H2450 H 0.97162 0.3199 0.92327 0.0
H2451 H 0.95847 0.2774 0.97561 0.0
H2452 H 0.94035 0.2658 0.98668 0.0
H2453 H 0.95385 0.28247 0.00028 0.0
H2454 H 0.9355 0.29204 0.00128 0.0
H2455 H 0.92193 0.27539 0.98764 0.0
H2456 H 0.92757 0.29352 0.97731 0.0
H2457 H 0.95144 0.29754 0.90436 0.0
H2458 H 0.9317 0.27259 0.89217 0.0
H2459 H 0.92164 0.25785 0.95607 0.0
C2460 C 0.966 0.31326 0.98322 0.0
C2461 C 0.97792 0.32675 0.97566 0.0
C2462 C 0.97995 0.32906 0.95398 0.0
C2463 C 0.97006 0.31813 0.93987 0.0
C2464 C 0.95842 0.30487 0.94778 0.0
C2465 C 0.95649 0.30228 0.96893 0.0
C2466 C 0.94388 0.28658 0.97328 0.0
C2467 C 0.94948 0.27753 0.98463 0.0
C2468 C 0.93149 0.28691 0.98561 0.0
C2469 C 0.939 0.28075 0.95127 0.0
C2470 C 0.94737 0.29159 0.93683 0.0
C2471 C 0.94484 0.28896 0.91551 0.0
C2472 C 0.9336 0.27481 0.90874 0.0
C2473 C 0.92521 0.26342 0.92322 0.0
C2474 C 0.92793 0.26643 0.94475 0.0
H2475 H 0.6916 0.67021 0.96934 0.0
H2476 H 0.67395 0.62555 0.99344 0.0
H2477 H 0.6953 0.62481 0.97876 0.0
H2478 H 0.70613 0.66413 0.92104 0.0
H2479 H 0.72224 0.68267 0.92133 0.0
H2480 H 0.70529 0.67939 0.93318 0.0
H2481 H 0.71927 0.69084 0.96787 0.0
H2482 H 0.73622 0.69399 0.9562 0.0
H2483 H 0.72944 0.68323 0.97964 0.0
H2484 H 0.71914 0.62936 0.96262 0.0
H2485 H 0.74298 0.63834 0.94455 0.0
H2486 H 0.74466 0.67977 0.93044 0.0
C2487 C 0.69213 0.6602 0.97134 0.0
C2488 C 0.68109 0.64792 0.98251 0.0
C2489 C 0.68225 0.63508 0.98488 0.0
C2490 C 0.69436 0.63456 0.97665 0.0
C2491 C 0.70519 0.64697 0.96604 0.0
C2492 C 0.70412 0.65949 0.9632 0.0
C2493 C 0.71731 0.67136 0.95132 0.0
C2494 C 0.71245 0.67457 0.93048 0.0
C2495 C 0.72607 0.6857 0.96455 0.0
C2496 C 0.72599 0.66358 0.94802 0.0
C2497 C 0.71884 0.64954 0.95666 0.0
C2498 C 0.72479 0.6403 0.95567 0.0
C2499 C 0.73832 0.64548 0.94532 0.0
C2500 C 0.74574 0.65977 0.93606 0.0
C2501 C 0.73945 0.6689 0.93761 0.0
H2502 H 0.96431 0.65503 0.00337 0.0
H2503 H 0.9808 0.64441 0.94775 0.0
H2504 H 0.9604 0.6432 0.9272 0.0
H2505 H 0.92455 0.63292 0.99116 0.0
H2506 H 0.92098 0.64701 0.00118 0.0
H2507 H 0.93572 0.64522 0.01205 0.0
H2508 H 0.95438 0.67308 0.00443 0.0
H2509 H 0.93971 0.67496 0.99363 0.0
H2510 H 0.95594 0.67983 0.9783 0.0
H2511 H 0.939 0.64413 0.91257 0.0
H2512 H 0.91981 0.64994 0.90369 0.0
H2513 H 0.91789 0.66158 0.96835 0.0
C2514 C 0.9634 0.65219 0.98694 0.0
C2515 C 0.97387 0.64957 0.97705 0.0
C2516 C 0.97273 0.64633 0.95547 0.0
C2517 C 0.96117 0.64555 0.94377 0.0
C2518 C 0.95101 0.64828 0.95387 0.0
C2519 C 0.95211 0.65174 0.97491 0.0
C2520 C 0.94065 0.65571 0.98145 0.0
C2521 C 0.92983 0.64455 0.99741 0.0
C2522 C 0.94812 0.67185 0.98995 0.0
C2523 C 0.93306 0.65409 0.96078 0.0
C2524 C 0.93903 0.64951 0.94519 0.0
C2525 C 0.93416 0.64761 0.92467 0.0
C2526 C 0.92315 0.65083 0.91981 0.0
C2527 C 0.91722 0.65608 0.93534 0.0
C2528 C 0.92214 0.65751 0.95616 0.0
H2529 H 0.33189 0.3149 0.96702 0.0
H2530 H 0.36466 0.31995 0.0122 0.0
H2531 H 0.36391 0.29758 0.99756 0.0
H2532 H 0.31023 0.27497 0.96756 0.0
H2533 H 0.30637 0.27296 0.94002 0.0
H2534 H 0.30965 0.28958 0.95375 0.0
H2535 H 0.33073 0.30591 0.928 0.0
H2536 H 0.32746 0.28934 0.91414 0.0
H2537 H 0.34565 0.3024 0.92411 0.0
H2538 H 0.35921 0.2743 0.97861 0.0
H2539 H 0.35114 0.25198 0.95617 0.0
H2540 H 0.32195 0.26244 0.92276 0.0
C2541 C 0.33894 0.31132 0.97377 0.0
C2542 C 0.34832 0.31916 0.99076 0.0
C2543 C 0.35738 0.31413 0.99917 0.0
C2544 C 0.35704 0.30142 0.99097 0.0
C2545 C 0.34761 0.29389 0.97432 0.0
C2546 C 0.33877 0.29866 0.96573 0.0
C2547 C 0.32961 0.28849 0.94791 0.0
C2548 C 0.31298 0.28106 0.9526 0.0
C2549 C 0.33361 0.29705 0.92732 0.0
C2550 C 0.3346 0.27721 0.94796 0.0
C2551 C 0.34499 0.28052 0.96329 0.0
C2552 C 0.35113 0.27163 0.96646 0.0
C2553 C 0.34653 0.25901 0.95357 0.0
C2554 C 0.3359 0.2554 0.9377 0.0
C2555 C 0.32993 0.26471 0.93493 0.0
H2556 H 0.68528 0.02256 0.96766 0.0
H2557 H 0.68585 0.05095 0.01828 0.0
H2558 H 0.70861 0.07216 0.0042 0.0
H2559 H 0.7244 0.0378 0.96562 0.0
H2560 H 0.72523 0.03676 0.93765 0.0
H2561 H 0.7086 0.02374 0.95121 0.0
H2562 H 0.69344 0.0316 0.92879 0.0
H2563 H 0.71001 0.04458 0.91507 0.0
H2564 H 0.69894 0.05105 0.92772 0.0
H2565 H 0.73167 0.09017 0.98548 0.0
H2566 H 0.75339 0.10397 0.96265 0.0
H2567 H 0.73785 0.06426 0.92371 0.0
C2568 C 0.69015 0.03327 0.97567 0.0
C2569 C 0.68376 0.03509 0.99406 0.0
C2570 C 0.69051 0.04927 0.00415 0.0
C2571 C 0.70347 0.06141 0.99629 0.0
C2572 C 0.70958 0.05924 0.97828 0.0
C2573 C 0.70315 0.04557 0.96801 0.0
C2574 C 0.71214 0.0463 0.94904 0.0
C2575 C 0.71793 0.03551 0.95101 0.0
C2576 C 0.70309 0.0432 0.92897 0.0
C2577 C 0.72463 0.06245 0.95042 0.0
C2578 C 0.72292 0.06971 0.96739 0.0
C2579 C 0.73311 0.08465 0.97205 0.0
C2580 C 0.74538 0.09242 0.95894 0.0
C2581 C 0.74737 0.08524 0.94137 0.0
C2582 C 0.73679 0.07004 0.93715 0.0
H2583 H 0.66982 0.97809 0.03491 0.0
H2584 H 0.62198 0.95534 0.03245 0.0
H2585 H 0.62041 0.93227 0.04532 0.0
H2586 H 0.67233 0.94545 0.01767 0.0
H2587 H 0.68801 0.95057 0.03423 0.0
H2588 H 0.68517 0.96484 0.02378 0.0
H2589 H 0.68578 0.97494 0.06113 0.0
H2590 H 0.68855 0.96068 0.07169 0.0
H2591 H 0.67323 0.96246 0.0805 0.0
H2592 H 0.62439 0.9128 0.06268 0.0
H2593 H 0.6333 0.89817 0.08047 0.0
H2594 H 0.67862 0.93279 0.06715 0.0
C2595 C 0.65902 0.96819 0.03686 0.0
C2596 C 0.646 0.96846 0.03283 0.0
C2597 C 0.63207 0.9553 0.0354 0.0
C2598 C 0.63109 0.94218 0.04272 0.0
C2599 C 0.64417 0.94234 0.04683 0.0
C2600 C 0.65787 0.95494 0.0436 0.0
C2601 C 0.67025 0.95232 0.04937 0.0
C2602 C 0.67948 0.95335 0.03011 0.0
C2603 C 0.68002 0.96325 0.0667 0.0
C2604 C 0.66142 0.93646 0.05714 0.0
C2605 C 0.6464 0.93087 0.0556 0.0
C2606 C 0.63613 0.91693 0.06348 0.0
C2607 C 0.64135 0.90861 0.07346 0.0
C2608 C 0.65675 0.91415 0.07533 0.0
C2609 C 0.6668 0.92814 0.06643 0.0
H2610 H 0.02133 0.69041 0.05282 0.0
H2611 H 0.05221 0.68799 0.01012 0.0
H2612 H 0.07265 0.71111 0.02556 0.0
H2613 H 0.03812 0.73041 0.05271 0.0
H2614 H 0.03502 0.73194 0.08004 0.0
H2615 H 0.02264 0.71512 0.06571 0.0
H2616 H 0.02735 0.69944 0.09205 0.0
H2617 H 0.03967 0.7162 0.10653 0.0
H2618 H 0.04605 0.70409 0.09719 0.0
H2619 H 0.08971 0.73466 0.04497 0.0
H2620 H 0.10253 0.75667 0.06829 0.0
H2621 H 0.06093 0.74358 0.09939 0.0
C2622 C 0.03239 0.69475 0.04676 0.0
C2623 C 0.03516 0.68741 0.03023 0.0
C2624 C 0.04981 0.69341 0.02278 0.0
C2625 C 0.06151 0.70657 0.03141 0.0
C2626 C 0.05842 0.71359 0.04758 0.0
C2627 C 0.04427 0.70788 0.05531 0.0
C2628 C 0.04408 0.71759 0.073 0.0
C2629 C 0.03439 0.72415 0.06753 0.0
C2630 C 0.03899 0.7088 0.0934 0.0
C2631 C 0.06032 0.72963 0.07391 0.0
C2632 C 0.06836 0.72712 0.05905 0.0
C2633 C 0.08355 0.73671 0.05677 0.0
C2634 C 0.09075 0.74915 0.07017 0.0
C2635 C 0.0828 0.75188 0.08577 0.0
C2636 C 0.06734 0.74196 0.0875 0.0
H2637 H 0.31314 0.33698 0.05792 0.0
H2638 H 0.32025 0.37093 0.01338 0.0
H2639 H 0.29794 0.37054 0.02642 0.0
H2640 H 0.27332 0.3159 0.05483 0.0
H2641 H 0.27081 0.31183 0.08224 0.0
H2642 H 0.28723 0.31461 0.06923 0.0
H2643 H 0.30356 0.33548 0.09592 0.0
H2644 H 0.28719 0.3327 0.10907 0.0
H2645 H 0.30072 0.35098 0.09987 0.0
H2646 H 0.27488 0.36652 0.04443 0.0
H2647 H 0.25318 0.35968 0.06678 0.0
H2648 H 0.26146 0.32874 0.09998 0.0
C2649 C 0.31 0.34432 0.05088 0.0
C2650 C 0.31843 0.35397 0.0346 0.0
C2651 C 0.31397 0.36344 0.02588 0.0
C2652 C 0.30129 0.36328 0.03315 0.0
C2653 C 0.2932 0.3536 0.04917 0.0
C2654 C 0.2974 0.34433 0.05799 0.0
C2655 C 0.28693 0.33519 0.07529 0.0
C2656 C 0.27911 0.31839 0.07008 0.0
C2657 C 0.29509 0.33881 0.09628 0.0
C2658 C 0.27621 0.34079 0.07484 0.0
C2659 C 0.27999 0.35136 0.05962 0.0
C2660 C 0.27183 0.35827 0.05642 0.0
C2661 C 0.25956 0.35436 0.06926 0.0
C2662 C 0.25558 0.34367 0.08514 0.0
C2663 C 0.26403 0.33677 0.08778 0.0
H2664 H 0.71806 0.70374 0.37163 0.0
H2665 H 0.68065 0.66255 0.39442 0.0
H2666 H 0.69765 0.65668 0.41207 0.0
H2667 H 0.74197 0.68912 0.36199 0.0
H2668 H 0.75857 0.70578 0.37058 0.0
H2669 H 0.74355 0.70709 0.35978 0.0
H2670 H 0.74264 0.72092 0.39312 0.0
H2671 H 0.75775 0.71977 0.40394 0.0
H2672 H 0.74064 0.71248 0.41815 0.0
H2673 H 0.71839 0.65483 0.42678 0.0
H2674 H 0.74176 0.65799 0.43975 0.0
H2675 H 0.76617 0.70022 0.40755 0.0
C2676 C 0.71346 0.69356 0.38048 0.0
C2677 C 0.698 0.68362 0.38162 0.0
C2678 C 0.69243 0.67036 0.39328 0.0
C2679 C 0.70201 0.66688 0.40335 0.0
C2680 C 0.71716 0.67676 0.40167 0.0
C2681 C 0.72291 0.68989 0.3907 0.0
C2682 C 0.73969 0.69854 0.39157 0.0
C2683 C 0.74633 0.70023 0.36968 0.0
C2684 C 0.74552 0.71383 0.40234 0.0
C2685 C 0.74241 0.68824 0.40478 0.0
C2686 C 0.72923 0.6757 0.41029 0.0
C2687 C 0.7288 0.66458 0.42251 0.0
C2688 C 0.74218 0.66641 0.42963 0.0
C2689 C 0.75588 0.67929 0.42456 0.0
C2690 C 0.75592 0.69027 0.41177 0.0
H2691 H 0.33735 0.01973 0.39278 0.0
H2692 H 0.30512 0.01463 0.34665 0.0
H2693 H 0.30663 0.03775 0.35991 0.0
H2694 H 0.32399 0.03345 0.43428 0.0
H2695 H 0.34222 0.04626 0.44435 0.0
H2696 H 0.33857 0.02935 0.43111 0.0
H2697 H 0.36001 0.04493 0.40544 0.0
H2698 H 0.36366 0.06189 0.41852 0.0
H2699 H 0.36001 0.05958 0.39093 0.0
H2700 H 0.31219 0.06187 0.37778 0.0
H2701 H 0.32059 0.08448 0.39972 0.0
H2702 H 0.34831 0.073 0.43503 0.0
C2703 C 0.3306 0.02347 0.38547 0.0
C2704 C 0.32115 0.01542 0.36864 0.0
C2705 C 0.31244 0.02063 0.35957 0.0
C2706 C 0.31324 0.03376 0.36696 0.0
C2707 C 0.32274 0.04149 0.38351 0.0
C2708 C 0.33119 0.03648 0.39274 0.0
C2709 C 0.34038 0.04674 0.41045 0.0
C2710 C 0.33603 0.03846 0.43128 0.0
C2711 C 0.357 0.0537 0.40606 0.0
C2712 C 0.33585 0.05834 0.40968 0.0
C2713 C 0.32571 0.05517 0.39401 0.0
C2714 C 0.32005 0.06441 0.3902 0.0
C2715 C 0.32484 0.0772 0.40283 0.0
C2716 C 0.33514 0.0806 0.41916 0.0
C2717 C 0.34064 0.07095 0.4225 0.0
H2718 H 0.99083 0.29391 0.38373 0.0
H2719 H 0.97973 0.3259 0.36109 0.0
H2720 H 0.95408 0.30999 0.37358 0.0
H2721 H 0.95578 0.2601 0.37355 0.0
H2722 H 0.95573 0.25126 0.39747 0.0
H2723 H 0.97302 0.26455 0.38553 0.0
H2724 H 0.98133 0.28034 0.41966 0.0
H2725 H 0.96416 0.26699 0.43176 0.0
H2726 H 0.96963 0.28643 0.43121 0.0
H2727 H 0.92958 0.29024 0.38688 0.0
H2728 H 0.90861 0.27022 0.40586 0.0
H2729 H 0.93626 0.25252 0.42426 0.0
C2730 C 0.98293 0.29747 0.38143 0.0
C2731 C 0.9871 0.31101 0.37137 0.0
C2732 C 0.97666 0.31555 0.36884 0.0
C2733 C 0.96207 0.30654 0.37571 0.0
C2734 C 0.95822 0.29319 0.38546 0.0
C2735 C 0.96839 0.28882 0.38881 0.0
C2736 C 0.9616 0.27457 0.40129 0.0
C2737 C 0.96153 0.26187 0.3887 0.0
C2738 C 0.96966 0.27725 0.42222 0.0
C2739 C 0.94604 0.27163 0.40434 0.0
C2740 C 0.94428 0.28235 0.39467 0.0
C2741 C 0.93087 0.28193 0.39487 0.0
C2742 C 0.91904 0.27053 0.40587 0.0
C2743 C 0.92075 0.25988 0.41709 0.0
C2744 C 0.93442 0.26034 0.41585 0.0
H2745 H 0.03903 0.38236 0.32718 0.0
H2746 H 0.00786 0.3454 0.2878 0.0
H2747 H 0.005 0.36288 0.26591 0.0
H2748 H 0.0202 0.40258 0.32611 0.0
H2749 H 0.03667 0.42082 0.3252 0.0
H2750 H 0.03719 0.40565 0.33736 0.0
H2751 H 0.05868 0.40975 0.3131 0.0
H2752 H 0.0583 0.42502 0.30098 0.0
H2753 H 0.05646 0.40967 0.28528 0.0
H2754 H 0.0045 0.38368 0.24913 0.0
H2755 H 0.00704 0.40715 0.23728 0.0
H2756 H 0.03822 0.43129 0.28734 0.0
C2757 C 0.03179 0.37801 0.31376 0.0
C2758 C 0.02368 0.3625 0.30917 0.0
C2759 C 0.01417 0.35721 0.29164 0.0
C2760 C 0.01246 0.36706 0.27908 0.0
C2761 C 0.02034 0.3822 0.28421 0.0
C2762 C 0.02989 0.38773 0.30101 0.0
C2763 C 0.03665 0.40453 0.30325 0.0
C2764 C 0.03242 0.40863 0.32423 0.0
C2765 C 0.05352 0.41273 0.30048 0.0
C2766 C 0.02929 0.40747 0.28519 0.0
C2767 C 0.01995 0.39437 0.27448 0.0
C2768 C 0.01175 0.39402 0.25739 0.0
C2769 C 0.01316 0.40743 0.25093 0.0
C2770 C 0.02265 0.42108 0.26155 0.0
C2771 C 0.03087 0.42106 0.2789 0.0
H2772 H 0.62763 0.65195 0.32507 0.0
H2773 H 0.66807 0.66042 0.29451 0.0
H2774 H 0.65359 0.63861 0.27136 0.0
H2775 H 0.61005 0.61267 0.32508 0.0
H2776 H 0.59175 0.60919 0.31989 0.0
H2777 H 0.60505 0.62614 0.33313 0.0
H2778 H 0.60169 0.64185 0.30526 0.0
H2779 H 0.58827 0.62493 0.29201 0.0
H2780 H 0.60418 0.63898 0.27814 0.0
H2781 H 0.63521 0.61514 0.2533 0.0
H2782 H 0.61375 0.59185 0.24001 0.0
H2783 H 0.5849 0.59831 0.28191 0.0
C2784 C 0.6334 0.64934 0.31329 0.0
C2785 C 0.64898 0.65788 0.31157 0.0
C2786 C 0.65615 0.65405 0.29609 0.0
C2787 C 0.64802 0.64168 0.28287 0.0
C2788 C 0.63272 0.63331 0.28525 0.0
C2789 C 0.62544 0.63701 0.29992 0.0
C2790 C 0.60893 0.62581 0.29959 0.0
C2791 C 0.60364 0.61799 0.32068 0.0
C2792 C 0.60026 0.63334 0.29337 0.0
C2793 C 0.60815 0.6151 0.28272 0.0
C2794 C 0.62202 0.61969 0.27466 0.0
C2795 C 0.62428 0.61145 0.2594 0.0
C2796 C 0.61203 0.59817 0.2521 0.0
C2797 C 0.59768 0.5932 0.26005 0.0
C2798 C 0.59573 0.60187 0.27548 0.0
H2799 H 0.35489 0.99547 0.30354 0.0
H2800 H 0.34721 0.96081 0.34712 0.0
H2801 H 0.36846 0.95989 0.33235 0.0
H2802 H 0.36546 0.98084 0.25994 0.0
H2803 H 0.37939 0.99901 0.25093 0.0
H2804 H 0.36352 0.99682 0.26489 0.0
H2805 H 0.38081 0.01702 0.29172 0.0
H2806 H 0.39674 0.01925 0.27787 0.0
H2807 H 0.39452 0.01482 0.30516 0.0
H2808 H 0.39067 0.96282 0.31269 0.0
H2809 H 0.41221 0.96958 0.28992 0.0
H2810 H 0.40512 0.00219 0.25929 0.0
C2811 C 0.35766 0.98766 0.30996 0.0
C2812 C 0.34939 0.9782 0.32647 0.0
C2813 C 0.35339 0.96817 0.33446 0.0
C2814 C 0.36544 0.96756 0.32618 0.0
C2815 C 0.37338 0.97707 0.30992 0.0
C2816 C 0.36965 0.98693 0.30191 0.0
C2817 C 0.38002 0.99601 0.28451 0.0
C2818 C 0.37159 0.99298 0.26385 0.0
C2819 C 0.38852 0.01277 0.29016 0.0
C2820 C 0.39017 0.98974 0.28401 0.0
C2821 C 0.38616 0.9788 0.29874 0.0
C2822 C 0.3939 0.97136 0.30109 0.0
C2823 C 0.40607 0.97522 0.28803 0.0
C2824 C 0.4104 0.98646 0.27289 0.0
C2825 C 0.40226 0.99373 0.27093 0.0
H2826 H 0.62187 0.96213 0.31498 0.0
H2827 H 0.65094 0.00943 0.32762 0.0
H2828 H 0.63172 0.01436 0.31498 0.0
H2829 H 0.60861 0.96745 0.26671 0.0
H2830 H 0.59017 0.95161 0.26963 0.0
H2831 H 0.60555 0.95165 0.28173 0.0
H2832 H 0.59243 0.94684 0.31752 0.0
H2833 H 0.57707 0.94693 0.30552 0.0
H2834 H 0.58669 0.95944 0.32705 0.0
H2835 H 0.60937 0.01409 0.30132 0.0
H2836 H 0.58701 0.00942 0.28275 0.0
H2837 H 0.57366 0.96267 0.27497 0.0
C2838 C 0.62404 0.97347 0.31528 0.0
C2839 C 0.63772 0.98541 0.32248 0.0
C2840 C 0.64045 1.00017 0.32219 0.0
C2841 C 0.62959 0.00305 0.31519 0.0
C2842 C 0.61619 0.99106 0.30814 0.0
C2843 C 0.61347 0.9766 0.30773 0.0
C2844 C 0.59875 0.96599 0.29744 0.0
C2845 C 0.60091 0.95876 0.27771 0.0
C2846 C 0.58811 0.9541 0.31281 0.0
C2847 C 0.59363 0.97674 0.29215 0.0
C2848 C 0.60372 0.99108 0.29885 0.0
C2849 C 0.60145 0.00294 0.29578 0.0
C2850 C 0.58873 1.00017 0.28504 0.0
C2851 C 0.57856 0.98571 0.277 0.0
C2852 C 0.58101 0.97382 0.28104 0.0
H2853 H 0.0282 0.64754 0.32659 0.0
H2854 H 1.00001 0.65883 0.29226 0.0
H2855 H 0.99411 0.6383 0.26718 0.0
H2856 H 0.04242 0.6366 0.28208 0.0
H2857 H 0.04194 0.62131 0.29549 0.0
H2858 H 0.04474 0.6375 0.30995 0.0
H2859 H 0.02228 0.62056 0.33333 0.0
H2860 H 0.01937 0.60433 0.3189 0.0
H2861 H 0.00458 0.60816 0.32144 0.0
H2862 H 0.99046 0.6161 0.24683 0.0
H2863 H 0.98925 0.59353 0.23215 0.0
H2864 H 0.01933 0.59604 0.28005 0.0
C2865 C 0.02096 0.64582 0.31361 0.0
C2866 C 0.01461 0.65481 0.31125 0.0
C2867 C 0.005 0.65207 0.29431 0.0
C2868 C 1.0016 0.64046 0.27999 0.0
C2869 C 0.00785 0.63165 0.28292 0.0
C2870 C 0.01733 0.63416 0.29929 0.0
C2871 C 0.02195 0.62258 0.29944 0.0
C2872 C 0.03876 0.62994 0.29656 0.0
C2873 C 0.01673 0.61336 0.31947 0.0
C2874 C 0.01362 0.61318 0.28056 0.0
C2875 C 0.00557 0.61865 0.27129 0.0
C2876 C 0.99671 0.61172 0.25393 0.0
C2877 C 0.996 0.59883 0.24582 0.0
C2878 C 0.00408 0.59294 0.25507 0.0
C2879 C 0.01309 0.60032 0.2726 0.0
H2880 H 0.35376 0.35397 0.30878 0.0
H2881 H 0.34492 0.38337 0.34671 0.0
H2882 H 0.36716 0.40523 0.33269 0.0
H2883 H 0.39326 0.37511 0.31473 0.0
H2884 H 0.39707 0.37185 0.2884 0.0
H2885 H 0.38016 0.35832 0.3009 0.0
H2886 H 0.36492 0.35997 0.27069 0.0
H2887 H 0.38179 0.37343 0.25802 0.0
H2888 H 0.36772 0.37793 0.26371 0.0
H2889 H 0.39032 0.42397 0.31495 0.0
H2890 H 0.41296 0.43846 0.29396 0.0
H2891 H 0.40721 0.39719 0.26775 0.0
C2892 C 0.35647 0.36502 0.31399 0.0
C2893 C 0.34757 0.36695 0.3288 0.0
C2894 C 0.35154 0.38159 0.33536 0.0
C2895 C 0.36418 0.39411 0.32752 0.0
C2896 C 0.3728 0.39184 0.31314 0.0
C2897 C 0.36914 0.3777 0.30638 0.0
C2898 C 0.38046 0.37847 0.29092 0.0
C2899 C 0.38819 0.37046 0.29924 0.0
C2900 C 0.37329 0.37207 0.26957 0.0
C2901 C 0.391 0.39522 0.29013 0.0
C2902 C 0.38634 0.40271 0.30305 0.0
C2903 C 0.3941 0.41825 0.30476 0.0
C2904 C 0.40691 0.42638 0.29277 0.0
C2905 C 0.41187 0.41895 0.27932 0.0
C2906 C 0.40382 0.40316 0.27815 0.0
H2907 H 0.33242 0.31453 0.39425 0.0
H2908 H 0.29669 0.28647 0.35157 0.0
H2909 H 0.29837 0.26466 0.36162 0.0
H2910 H 0.35381 0.29703 0.38542 0.0
H2911 H 0.35943 0.29853 0.41222 0.0
H2912 H 0.35545 0.31202 0.40177 0.0
H2913 H 0.33617 0.30616 0.43097 0.0
H2914 H 0.3402 0.29276 0.4416 0.0
H2915 H 0.32147 0.28714 0.43474 0.0
H2916 H 0.30431 0.24595 0.3757 0.0
H2917 H 0.31314 0.23145 0.39427 0.0
H2918 H 0.34433 0.27148 0.42876 0.0
C2919 C 0.32492 0.30379 0.38708 0.0
C2920 C 0.31443 0.30222 0.3721 0.0
C2921 C 0.3048 0.28796 0.3631 0.0
C2922 C 0.3057 0.2755 0.36866 0.0
C2923 C 0.31624 0.27744 0.38331 0.0
C2924 C 0.32561 0.2912 0.39253 0.0
C2925 C 0.33582 0.2902 0.40804 0.0
C2926 C 0.35209 0.30003 0.40146 0.0
C2927 C 0.33325 0.2943 0.43015 0.0
C2928 C 0.33072 0.27374 0.40611 0.0
C2929 C 0.31949 0.2666 0.39167 0.0
C2930 C 0.31304 0.2514 0.38715 0.0
C2931 C 0.3181 0.24324 0.39787 0.0
C2932 C 0.32943 0.25025 0.41306 0.0
C2933 C 0.33583 0.26576 0.41704 0.0
H2934 H 0.68789 0.0184 0.39072 0.0
H2935 H 0.7157 0.01079 0.34827 0.0
H2936 H 0.73776 0.03336 0.36215 0.0
H2937 H 0.70732 0.0579 0.38686 0.0
H2938 H 0.70522 0.06127 0.41393 0.0
H2939 H 0.69162 0.04412 0.4014 0.0
H2940 H 0.69545 0.02884 0.42947 0.0
H2941 H 0.70897 0.04594 0.44221 0.0
H2942 H 0.71379 0.03231 0.43434 0.0
H2943 H 0.75671 0.05743 0.37947 0.0
H2944 H 0.77123 0.08073 0.40003 0.0
H2945 H 0.73114 0.07222 0.43179 0.0
C2946 C 0.69863 0.02139 0.3845 0.0
C2947 C 0.70008 0.01284 0.36842 0.0
C2948 C 0.71433 0.01717 0.36062 0.0
C2949 C 0.72693 0.02998 0.36838 0.0
C2950 C 0.72512 0.03831 0.38401 0.0
C2951 C 0.71135 0.03414 0.39211 0.0
C2952 C 0.71244 0.04517 0.40865 0.0
C2953 C 0.70363 0.05255 0.40232 0.0
C2954 C 0.70737 0.03761 0.42993 0.0
C2955 C 0.72893 0.05626 0.4084 0.0
C2956 C 0.73605 0.05211 0.39409 0.0
C2957 C 0.75127 0.06074 0.39086 0.0
C2958 C 0.75943 0.07393 0.40266 0.0
C2959 C 0.75237 0.07837 0.41754 0.0
C2960 C 0.73689 0.06932 0.42035 0.0
H2961 H 0.98839 0.69532 0.37737 0.0
H2962 H 0.98986 0.65657 0.39772 0.0
H2963 H 0.9664 0.64751 0.41634 0.0
H2964 H 0.97217 0.70009 0.42597 0.0
H2965 H 0.96077 0.70561 0.4126 0.0
H2966 H 0.97818 0.70962 0.40148 0.0
H2967 H 0.96471 0.69578 0.3675 0.0
H2968 H 0.94725 0.69158 0.37858 0.0
H2969 H 0.94964 0.67668 0.3687 0.0
H2970 H 0.94222 0.64148 0.43059 0.0
H2971 H 0.91928 0.63994 0.44275 0.0
H2972 H 0.93297 0.68273 0.41471 0.0
C2973 C 0.98388 0.68507 0.38603 0.0
C2974 C 0.991 0.67666 0.38604 0.0
C2975 C 0.98466 0.66323 0.39743 0.0
C2976 C 0.97129 0.65795 0.40806 0.0
C2977 C 0.96438 0.66625 0.40737 0.0
C2978 C 0.97048 0.67963 0.39694 0.0
C2979 C 0.96052 0.68618 0.39868 0.0
C2980 C 0.96838 0.70127 0.41038 0.0
C2981 C 0.95522 0.68764 0.37707 0.0
C2982 C 0.94783 0.67426 0.41142 0.0
C2983 C 0.95033 0.66287 0.41611 0.0
C2984 C 0.94014 0.65037 0.42713 0.0
C2985 C 0.92707 0.64953 0.4338 0.0
C2986 C 0.92427 0.66114 0.42954 0.0
C2987 C 0.93484 0.6737 0.41822 0.0
H2988 H 0.37202 0.01024 0.71217 0.0
H2989 H 0.39663 0.05361 0.6831 0.0
H2990 H 0.41976 0.05731 0.69863 0.0
H2991 H 0.39157 0.02059 0.7598 0.0
H2992 H 0.39088 0.00309 0.76284 0.0
H2993 H 0.37657 0.00367 0.74852 0.0
H2994 H 0.38163 0.99145 0.71657 0.0
H2995 H 0.39601 0.99087 0.73079 0.0
H2996 H 0.40007 1.00001 0.70598 0.0
H2997 H 0.43996 0.05674 0.71929 0.0
H2998 H 0.45545 0.05192 0.74296 0.0
H2999 H 0.41743 0.00872 0.75775 0.0
C3000 C 0.38228 0.02049 0.7089 0.0
C3001 C 0.38253 0.03165 0.69641 0.0
C3002 C 0.39619 0.0449 0.69259 0.0
C3003 C 0.40937 0.04708 0.70133 0.0
C3004 C 0.4087 0.03586 0.7137 0.0
C3005 C 0.39549 0.0228 0.71739 0.0
C3006 C 0.39759 0.01264 0.73172 0.0
C3007 C 0.38863 0.00984 0.75191 0.0
C3008 C 0.39359 0.99787 0.72059 0.0
C3009 C 0.41404 0.02209 0.73579 0.0
C3010 C 0.42028 0.03543 0.72524 0.0
C3011 C 0.4352 0.04627 0.72744 0.0
C3012 C 0.4439 0.04345 0.74095 0.0
C3013 C 0.43767 0.0299 0.75203 0.0
C3014 C 0.42258 0.01904 0.74914 0.0
H3015 H 0.98275 0.35954 0.69638 0.0
H3016 H 0.98593 0.33573 0.74894 0.0
H3017 H 0.98531 0.3541 0.77308 0.0
H3018 H 0.00719 0.39572 0.71739 0.0
H3019 H 0.99743 0.40415 0.70683 0.0
H3020 H 0.99658 0.38833 0.69377 0.0
H3021 H 0.96796 0.37405 0.69561 0.0
H3022 H 0.96873 0.38985 0.70872 0.0
H3023 H 0.95901 0.37168 0.72047 0.0
H3024 H 0.98534 0.3754 0.79136 0.0
H3025 H 0.9877 0.39933 0.80266 0.0
H3026 H 0.98578 0.41019 0.73838 0.0
C3027 C 0.98307 0.3581 0.71299 0.0
C3028 C 0.98423 0.34618 0.72089 0.0
C3029 C 0.98501 0.3448 0.74265 0.0
C3030 C 0.98459 0.35512 0.75645 0.0
C3031 C 0.98359 0.36685 0.7482 0.0
C3032 C 0.98298 0.3685 0.72698 0.0
C3033 C 0.98317 0.38279 0.72215 0.0
C3034 C 0.99691 0.39337 0.70928 0.0
C3035 C 0.96886 0.37938 0.71109 0.0
C3036 C 0.98402 0.38894 0.74397 0.0
C3037 C 0.98408 0.37946 0.75875 0.0
C3038 C 0.98521 0.38286 0.77996 0.0
C3039 C 0.98652 0.39641 0.78624 0.0
C3040 C 0.98676 0.40637 0.77136 0.0
C3041 C 0.9854 0.40258 0.74999 0.0
H3042 H 0.64546 0.64838 0.70519 0.0
H3043 H 0.66448 0.62083 0.69206 0.0
H3044 H 0.643 0.59938 0.70886 0.0
H3045 H 0.62984 0.63397 0.75403 0.0
H3046 H 0.6131 0.63427 0.74978 0.0
H3047 H 0.62984 0.64731 0.73651 0.0
H3048 H 0.61646 0.63814 0.70092 0.0
H3049 H 0.59963 0.62514 0.71411 0.0
H3050 H 0.60715 0.61853 0.69424 0.0
H3051 H 0.62081 0.58203 0.73095 0.0
H3052 H 0.59848 0.56918 0.75247 0.0
H3053 H 0.59188 0.60684 0.74553 0.0
C3054 C 0.64502 0.63778 0.70576 0.0
C3055 C 0.65666 0.63625 0.69763 0.0
C3056 C 0.65568 0.62222 0.69831 0.0
C3057 C 0.64354 0.60999 0.70783 0.0
C3058 C 0.6323 0.61192 0.71595 0.0
C3059 C 0.63277 0.62537 0.71452 0.0
C3060 C 0.61911 0.62442 0.72396 0.0
C3061 C 0.62323 0.63566 0.74215 0.0
C3062 C 0.61005 0.62669 0.70731 0.0
C3063 C 0.6111 0.60849 0.73156 0.0
C3064 C 0.61894 0.60151 0.72699 0.0
C3065 C 0.61435 0.58723 0.73409 0.0
C3066 C 0.60146 0.57993 0.74622 0.0
C3067 C 0.593 0.58674 0.75085 0.0
C3068 C 0.59793 0.60116 0.74288 0.0
H3069 H 0.67865 0.6934 0.63698 0.0
H3070 H 0.71065 0.71809 0.68584 0.0
H3071 H 0.71161 0.74125 0.67508 0.0
H3072 H 0.69497 0.7218 0.59865 0.0
H3073 H 0.67751 0.71778 0.58795 0.0
H3074 H 0.67905 0.70319 0.60006 0.0
H3075 H 0.65753 0.69808 0.625 0.0
H3076 H 0.65601 0.71275 0.61305 0.0
H3077 H 0.6588 0.71315 0.64077 0.0
H3078 H 0.70933 0.76183 0.65842 0.0
H3079 H 0.70475 0.7783 0.63643 0.0
H3080 H 0.67456 0.74002 0.59826 0.0
C3081 C 0.68583 0.70366 0.64549 0.0
C3082 C 0.69456 0.70393 0.66229 0.0
C3083 C 0.70387 0.71761 0.67292 0.0
C3084 C 0.70445 0.73081 0.66696 0.0
C3085 C 0.69566 0.73013 0.65035 0.0
C3086 C 0.68657 0.71691 0.63973 0.0
C3087 C 0.67856 0.71923 0.62204 0.0
C3088 C 0.68278 0.71527 0.60093 0.0
C3089 C 0.66173 0.71027 0.62543 0.0
C3090 C 0.68464 0.73585 0.62425 0.0
C3091 C 0.69441 0.74194 0.64074 0.0
C3092 C 0.70168 0.75717 0.64549 0.0
C3093 C 0.69904 0.76644 0.63287 0.0
C3094 C 0.68926 0.76048 0.61564 0.0
C3095 C 0.68187 0.74493 0.61153 0.0
H3096 H 0.301 0.9862 0.66285 0.0
H3097 H 0.33865 0.98926 0.6301 0.0
H3098 H 0.32222 0.96516 0.61255 0.0
H3099 H 0.28103 0.94639 0.67049 0.0
H3100 H 0.26308 0.94394 0.66571 0.0
H3101 H 0.27773 0.96142 0.67617 0.0
H3102 H 0.27456 0.97558 0.64578 0.0
H3103 H 0.25982 0.95816 0.6353 0.0
H3104 H 0.27554 0.97013 0.6193 0.0
H3105 H 0.30223 0.94069 0.59931 0.0
H3106 H 0.27924 0.91799 0.58837 0.0
H3107 H 0.25386 0.93066 0.62816 0.0
C3108 C 0.30574 0.98177 0.65198 0.0
C3109 C 0.32112 0.98956 0.64791 0.0
C3110 C 0.32692 0.9835 0.63344 0.0
C3111 C 0.31768 0.96978 0.62345 0.0
C3112 C 0.30263 0.96231 0.6279 0.0
C3113 C 0.29661 0.96812 0.64158 0.0
C3114 C 0.27993 0.95793 0.64292 0.0
C3115 C 0.27517 0.95208 0.66515 0.0
C3116 C 0.272 0.96593 0.63537 0.0
C3117 C 0.27759 0.94548 0.62794 0.0
C3118 C 0.29089 0.94823 0.61967 0.0
C3119 C 0.29174 0.93839 0.60566 0.0
C3120 C 0.27862 0.92545 0.59969 0.0
C3121 C 0.26477 0.92246 0.60758 0.0
C3122 C 0.26428 0.93265 0.62193 0.0
H3123 H 0.01243 0.30393 0.64703 0.0
H3124 H 0.03139 0.34021 0.69234 0.0
H3125 H 0.05653 0.34618 0.68223 0.0
H3126 H 0.04107 0.29307 0.65058 0.0
H3127 H 0.04083 0.28984 0.62289 0.0
H3128 H 0.02431 0.28679 0.63593 0.0
H3129 H 0.02255 0.30492 0.61062 0.0
H3130 H 0.03904 0.30802 0.59754 0.0
H3131 H 0.03812 0.32365 0.60805 0.0
H3132 H 0.07935 0.3497 0.66536 0.0
H3133 H 0.0986 0.3516 0.64134 0.0
H3134 H 0.06512 0.31392 0.60537 0.0
C3135 C 0.02192 0.31282 0.65517 0.0
C3136 C 0.02014 0.32146 0.67074 0.0
C3137 C 0.03268 0.33339 0.68058 0.0
C3138 C 0.04694 0.33681 0.67499 0.0
C3139 C 0.04844 0.32828 0.65934 0.0
C3140 C 0.0363 0.31657 0.64946 0.0
C3141 C 0.04107 0.31034 0.63153 0.0
C3142 C 0.03655 0.29404 0.63548 0.0
C3143 C 0.03483 0.31183 0.61071 0.0
C3144 C 0.05773 0.32059 0.63261 0.0
C3145 C 0.06173 0.33068 0.649 0.0
C3146 C 0.07638 0.34179 0.65257 0.0
C3147 C 0.08722 0.34283 0.63878 0.0
C3148 C 0.08337 0.33292 0.62148 0.0
C3149 C 0.06844 0.32148 0.61866 0.0
H3150 H 0.29107 0.30869 0.66415 0.0
H3151 H 0.32765 0.34256 0.628 0.0
H3152 H 0.31037 0.34707 0.60846 0.0
H3153 H 0.26497 0.29359 0.62216 0.0
H3154 H 0.24932 0.29042 0.6377 0.0
H3155 H 0.26455 0.29005 0.64963 0.0
H3156 H 0.26761 0.31033 0.67632 0.0
H3157 H 0.25237 0.31075 0.66447 0.0
H3158 H 0.27009 0.32772 0.66712 0.0
H3159 H 0.28949 0.34736 0.5918 0.0
H3160 H 0.26598 0.34357 0.57879 0.0
H3161 H 0.24232 0.31008 0.62603 0.0
C3162 C 0.29543 0.31711 0.65221 0.0
C3163 C 0.31074 0.32529 0.64764 0.0
C3164 C 0.31599 0.33615 0.63182 0.0
C3165 C 0.30626 0.33882 0.62062 0.0
C3166 C 0.29127 0.33057 0.6254 0.0
C3167 C 0.28582 0.31995 0.6408 0.0
C3168 C 0.2691 0.31249 0.64238 0.0
C3169 C 0.26154 0.29564 0.63768 0.0
C3170 C 0.26453 0.31551 0.66385 0.0
C3171 C 0.26607 0.3205 0.62533 0.0
C3172 C 0.27907 0.3309 0.61584 0.0
C3173 C 0.27924 0.33942 0.59929 0.0
C3174 C 0.26576 0.33726 0.59215 0.0
C3175 C 0.25218 0.32673 0.60159 0.0
C3176 C 0.25243 0.31825 0.61847 0.0
H3177 H 0.6582 0.9713 0.64938 0.0
H3178 H 0.70603 0.99748 0.65371 0.0
H3179 H 0.70771 0.97737 0.63555 0.0
H3180 H 0.65559 0.93598 0.66001 0.0
H3181 H 0.64015 0.92534 0.6427 0.0
H3182 H 0.6427 0.9421 0.65514 0.0
H3183 H 0.64257 0.95285 0.61909 0.0
H3184 H 0.64001 0.93612 0.60655 0.0
H3185 H 0.65537 0.95408 0.59931 0.0
H3186 H 0.7042 0.9551 0.61513 0.0
H3187 H 0.69593 0.93145 0.59647 0.0
H3188 H 0.65019 0.91794 0.61004 0.0
C3189 C 0.669 0.97279 0.64633 0.0
C3190 C 0.68201 0.98598 0.65268 0.0
C3191 C 0.69595 0.98747 0.64889 0.0
C3192 C 0.69701 0.97612 0.63857 0.0
C3193 C 0.684 0.9632 0.63259 0.0
C3194 C 0.67024 0.96135 0.63659 0.0
C3195 C 0.658 0.94604 0.62941 0.0
C3196 C 0.64855 0.93682 0.64792 0.0
C3197 C 0.64842 0.94736 0.61259 0.0
C3198 C 0.66704 0.93971 0.62042 0.0
C3199 C 0.68199 0.94986 0.62222 0.0
C3200 C 0.69251 0.94691 0.61402 0.0
C3201 C 0.68763 0.93325 0.60361 0.0
C3202 C 0.67231 0.92242 0.60181 0.0
C3203 C 0.66196 0.9258 0.6107 0.0
H3204 H 0.01344 0.71733 0.65915 0.0
H3205 H 0.01292 0.67696 0.64013 0.0
H3206 H 0.03527 0.69211 0.61862 0.0
H3207 H 0.02499 0.73571 0.60931 0.0
H3208 H 0.03616 0.75398 0.62103 0.0
H3209 H 0.02009 0.73982 0.63445 0.0
H3210 H 0.03635 0.74316 0.66654 0.0
H3211 H 0.0525 0.75721 0.65314 0.0
H3212 H 0.05222 0.74107 0.66339 0.0
H3213 H 0.0585 0.71204 0.6008 0.0
H3214 H 0.07931 0.73475 0.58532 0.0
H3215 H 0.06384 0.76177 0.61535 0.0
C3216 C 0.01794 0.71163 0.65035 0.0
C3217 C 0.0115 0.69598 0.65131 0.0
C3218 C 0.01768 0.68894 0.63951 0.0
C3219 C 0.03039 0.69746 0.62736 0.0
C3220 C 0.03661 0.71293 0.62706 0.0
C3221 C 0.03045 0.7199 0.63802 0.0
C3222 C 0.03909 0.73663 0.63497 0.0
C3223 C 0.02951 0.74184 0.6243 0.0
C3224 C 0.04541 0.745 0.65575 0.0
C3225 C 0.05121 0.73806 0.6207 0.0
C3226 C 0.04967 0.72429 0.61644 0.0
C3227 C 0.05976 0.72286 0.60396 0.0
C3228 C 0.0716 0.73582 0.59538 0.0
C3229 C 0.07317 0.74999 0.5992 0.0
C3230 C 0.06285 0.75107 0.6121 0.0
H3231 H 0.96144 0.62654 0.70235 0.0
H3232 H 0.99452 0.66202 0.74176 0.0
H3233 H 0.99679 0.6435 0.76207 0.0
H3234 H 0.94396 0.59837 0.74342 0.0
H3235 H 0.94119 0.58313 0.72663 0.0
H3236 H 0.94125 0.59901 0.71585 0.0
H3237 H 0.96194 0.60281 0.69016 0.0
H3238 H 0.96202 0.58702 0.70097 0.0
H3239 H 0.97887 0.60496 0.70018 0.0
H3240 H 0.99651 0.62183 0.77721 0.0
H3241 H 0.99327 0.59773 0.78728 0.0
H3242 H 0.96085 0.57553 0.73794 0.0
C3243 C 0.96894 0.63033 0.71549 0.0
C3244 C 0.97776 0.64573 0.72054 0.0
C3245 C 0.98766 0.6503 0.7376 0.0
C3246 C 0.98903 0.63986 0.74926 0.0
C3247 C 0.98046 0.62484 0.74367 0.0
C3248 C 0.97055 0.61999 0.72728 0.0
C3249 C 0.96318 0.60316 0.72424 0.0
C3250 C 0.9464 0.59547 0.72775 0.0
C3251 C 0.96672 0.59926 0.7026 0.0
C3252 C 0.97059 0.59942 0.74137 0.0
C3253 C 0.98048 0.61215 0.75234 0.0
C3254 C 0.98883 0.61177 0.76872 0.0
C3255 C 0.98701 0.598 0.77416 0.0
C3256 C 0.97698 0.58469 0.76322 0.0
C3257 C 0.96861 0.58547 0.74662 0.0
H3258 H 0.36211 0.35939 0.71948 0.0
H3259 H 0.38658 0.34585 0.67919 0.0
H3260 H 0.41001 0.3665 0.69314 0.0
H3261 H 0.38751 0.39934 0.7157 0.0
H3262 H 0.38553 0.40319 0.7426 0.0
H3263 H 0.37046 0.38745 0.72929 0.0
H3264 H 0.36979 0.36974 0.75767 0.0
H3265 H 0.38476 0.38543 0.77114 0.0
H3266 H 0.38643 0.36963 0.76364 0.0
H3267 H 0.43077 0.38809 0.71162 0.0
H3268 H 0.44773 0.40906 0.73471 0.0
H3269 H 0.41023 0.40904 0.76315 0.0
C3270 C 0.37241 0.3608 0.71362 0.0
C3271 C 0.3725 0.351 0.69823 0.0
C3272 C 0.38621 0.35319 0.69097 0.0
C3273 C 0.3996 0.36493 0.69875 0.0
C3274 C 0.39916 0.37443 0.71378 0.0
C3275 C 0.38595 0.37251 0.72125 0.0
C3276 C 0.38869 0.38419 0.73783 0.0
C3277 C 0.38269 0.39413 0.73093 0.0
C3278 C 0.38203 0.3768 0.75881 0.0
C3279 C 0.40547 0.39286 0.73855 0.0
C3280 C 0.41125 0.38705 0.72448 0.0
C3281 C 0.42641 0.3928 0.72266 0.0
C3282 C 0.43594 0.40467 0.73584 0.0
C3283 C 0.43029 0.41069 0.75062 0.0
C3284 C 0.41486 0.40482 0.75174 0.0
H3285 H 0.64324 0.99816 0.72077 0.0
H3286 H 0.65426 0.03814 0.68655 0.0
H3287 H 0.63294 0.0383 0.70233 0.0
H3288 H 0.60341 0.98082 0.71626 0.0
H3289 H 0.59979 0.97315 0.74205 0.0
H3290 H 0.61591 0.97604 0.728 0.0
H3291 H 0.63266 0.99224 0.75858 0.0
H3292 H 0.6166 0.98935 0.77275 0.0
H3293 H 0.63156 0.00806 0.76782 0.0
H3294 H 0.61098 0.03471 0.72262 0.0
H3295 H 0.58949 0.02726 0.74574 0.0
H3296 H 0.59215 0.98925 0.76615 0.0
C3297 C 0.64115 0.00693 0.71659 0.0
C3298 C 0.65044 0.01815 0.70243 0.0
C3299 C 0.6473 0.02941 0.69733 0.0
C3300 C 0.6352 0.0296 0.70621 0.0
C3301 C 0.62625 0.0184 0.72007 0.0
C3302 C 0.62902 0.00723 0.72521 0.0
C3303 C 0.61765 0.99654 0.7406 0.0
C3304 C 0.60866 0.9807 0.73116 0.0
C3305 C 0.62506 0.99655 0.76115 0.0
C3306 C 0.60819 0.00354 0.74344 0.0
C3307 C 0.61336 0.01615 0.73147 0.0
C3308 C 0.60676 0.0248 0.73197 0.0
C3309 C 0.5946 0.02052 0.74517 0.0
C3310 C 0.5891 0.00764 0.7576 0.0
C3311 C 0.59595 0.999 0.75654 0.0
loop_
_geom_bond_atom_site_label_1
_geom_bond_atom_site_label_2
_geom_bond_distance
_geom_bond_site_symmetry_2
_ccdc_geom_bond_type
Co0 O1 2.216 . S
Co0 O2 2.091 . S
Co0 O4 2.004 1_554 S
Co0 O10 2.021 . S
Co0 O12 2.137 1_454 S
Co0 O13 2.244 1_455 S
O1 Co0 2.216 . S
O1 C8 1.247 . S
O2 Co0 2.091 . S
O2 C8 1.261 . S
C3 O12 1.248 . S
C3 O13 1.270 1_556 S
O4 Co0 2.004 1_556 S
O4 C9 1.210 1_455 S
Co5 O6 2.061 1_554 S
Co5 O11 2.052 . S
Co5 O13 2.135 . S
O6 Co5 2.061 1_556 S
O6 C9 1.283 . S
C7 O10 1.238 1_655 S
C7 O11 1.241 . S
C8 O1 1.247 . S
C8 O2 1.261 . S
C9 O4 1.210 1_655 S
C9 O6 1.283 . S
O10 Co0 2.021 . S
O10 C7 1.238 1_455 S
O11 Co5 2.052 . S
O11 C7 1.241 . S
O12 Co0 2.137 1_656 S
O12 C3 1.248 . S
O13 Co0 2.244 1_655 S
O13 C3 1.270 1_554 S
O13 Co5 2.135 . S
Co14 O15 2.216 1_554 S
Co14 O16 2.091 . S
Co14 O18 2.004 . S
Co14 O24 2.021 1_554 S
Co14 O26 2.137 . S
Co14 O27 2.244 . S
O15 Co14 2.216 1_556 S
O15 C22 1.262 . S
O16 Co14 2.091 . S
O16 C22 1.229 1_554 S
C17 O26 1.247 . S
C17 O27 1.272 . S
O18 Co14 2.004 . S
O18 C23 1.259 . S
Co19 O20 2.061 . S
Co19 O25 2.052 1_554 S
Co19 O27 2.135 . S
O20 Co19 2.061 . S
O20 C23 1.235 . S
C21 O24 1.238 . S
C21 O25 1.241 . S
C22 O15 1.262 . S
C22 O16 1.229 1_556 S
C23 O18 1.259 . S
C23 O20 1.235 . S
O24 Co14 2.021 1_556 S
O24 C21 1.238 . S
O25 Co19 2.052 1_556 S
O25 C21 1.241 . S
O26 Co14 2.137 . S
O26 C17 1.247 . S
O27 Co14 2.244 . S
O27 C17 1.272 . S
O27 Co19 2.135 . S
Co28 O29 2.216 1_554 S
Co28 O30 2.091 . S
Co28 O32 2.004 . S
Co28 O38 2.021 1_554 S
Co28 O40 2.137 1_545 S
Co28 O41 2.244 1_545 S
O29 Co28 2.216 1_556 S
O29 C36 1.232 1_556 S
O30 Co28 2.091 . S
O30 C36 1.296 . S
C31 O40 1.247 . S
C31 O41 1.272 . S
O32 Co28 2.004 . S
O32 C37 1.259 . S
Co33 O34 2.061 . S
Co33 O39 2.052 1_554 S
Co33 O41 2.135 . S
O34 Co33 2.061 . S
O34 C37 1.235 1_565 S
C35 O38 1.191 1_565 S
C35 O39 1.288 . S
C36 O29 1.232 1_554 S
C36 O30 1.296 . S
C37 O32 1.259 . S
C37 O34 1.235 1_545 S
O38 Co28 2.021 1_556 S
O38 C35 1.191 1_545 S
O39 Co33 2.052 1_556 S
O39 C35 1.288 . S
O40 Co28 2.137 1_565 S
O40 C31 1.247 . S
O41 Co28 2.244 1_565 S
O41 C31 1.272 . S
O41 Co33 2.135 . S
Co42 O43 2.216 1_554 S
Co42 O44 2.091 . S
Co42 O46 2.004 . S
Co42 O52 2.021 1_554 S
Co42 O54 2.137 1_655 S
Co42 O55 2.244 1_655 S
O43 Co42 2.216 1_556 S
O43 C50 1.247 . S
O44 Co42 2.091 . S
O44 C50 1.261 1_554 S
C45 O54 1.247 . S
C45 O55 1.272 . S
O46 Co42 2.004 . S
O46 C51 1.259 1_655 S
Co47 O48 2.061 . S
Co47 O53 2.052 1_554 S
Co47 O55 2.135 . S
O48 Co47 2.061 . S
O48 C51 1.235 . S
C49 O52 1.238 1_455 S
C49 O53 1.241 . S
C50 O43 1.247 . S
C50 O44 1.261 1_556 S
C51 O46 1.259 1_455 S
C51 O48 1.235 . S
O52 Co42 2.021 1_556 S
O52 C49 1.238 1_655 S
O53 Co47 2.052 1_556 S
O53 C49 1.241 . S
O54 Co42 2.137 1_455 S
O54 C45 1.247 . S
O55 Co42 2.244 1_455 S
O55 C45 1.272 . S
O55 Co47 2.135 . S
Co56 O57 2.216 . S
Co56 O58 2.091 . S
Co56 O60 2.004 1_554 S
Co56 O66 2.021 . S
Co56 O68 2.137 1_554 S
Co56 O69 2.244 . S
O57 Co56 2.216 . S
O57 C64 1.247 . S
O58 Co56 2.091 . S
O58 C64 1.261 . S
C59 O68 1.247 . S
C59 O69 1.272 1_556 S
O60 Co56 2.004 1_556 S
O60 C65 1.259 . S
Co61 O62 2.061 1_554 S
Co61 O67 2.052 . S
Co61 O69 2.135 . S
O62 Co61 2.061 1_556 S
O62 C65 1.235 . S
C63 O66 1.238 . S
C63 O67 1.241 . S
C64 O57 1.247 . S
C64 O58 1.261 . S
C65 O60 1.259 . S
C65 O62 1.235 . S
O66 Co56 2.021 . S
O66 C63 1.238 . S
O67 Co61 2.052 . S
O67 C63 1.241 . S
O68 Co56 2.137 1_556 S
O68 C59 1.247 . S
O69 Co56 2.244 . S
O69 C59 1.272 1_554 S
O69 Co61 2.135 . S
Co70 O71 2.216 . S
Co70 O72 2.091 . S
Co70 O74 2.004 1_554 S
Co70 O80 2.021 . S
Co70 O82 2.137 1_564 S
Co70 O83 2.244 1_565 S
O71 Co70 2.216 . S
O71 C78 1.247 . S
O72 Co70 2.091 . S
O72 C78 1.261 . S
C73 O82 1.263 . S
C73 O83 1.240 1_556 S
O74 Co70 2.004 1_556 S
O74 C79 1.259 1_565 S
Co75 O76 2.061 1_554 S
Co75 O81 2.052 . S
Co75 O83 2.135 . S
O76 Co75 2.061 1_556 S
O76 C79 1.235 . S
C77 O80 1.238 1_545 S
C77 O81 1.241 . S
C78 O71 1.247 . S
C78 O72 1.261 . S
C79 O74 1.259 1_545 S
C79 O76 1.235 . S
O80 Co70 2.021 . S
O80 C77 1.238 1_565 S
O81 Co75 2.052 . S
O81 C77 1.241 . S
O82 Co70 2.137 1_546 S
O82 C73 1.263 . S
O83 Co70 2.244 1_545 S
O83 C73 1.240 1_554 S
O83 Co75 2.135 . S
Co84 O85 2.216 . S
Co84 O86 2.091 . S
Co84 O88 2.004 . S
Co84 O94 2.021 . S
Co84 O96 2.137 . S
Co84 O97 2.244 . S
O85 Co84 2.216 . S
O85 C92 1.247 . S
O86 Co84 2.091 . S
O86 C92 1.261 . S
C87 O96 1.247 . S
C87 O97 1.272 . S
O88 Co84 2.004 . S
O88 C93 1.259 . S
Co89 O90 2.061 . S
Co89 O95 2.052 . S
Co89 O97 2.135 . S
O90 Co89 2.061 . S
O90 C93 1.235 . S
C91 O94 1.238 . S
C91 O95 1.241 . S
C92 O85 1.247 . S
C92 O86 1.261 . S
C93 O88 1.259 . S
C93 O90 1.235 . S
O94 Co84 2.021 . S
O94 C91 1.238 . S
O95 Co89 2.052 . S
O95 C91 1.241 . S
O96 Co84 2.137 . S
O96 C87 1.247 . S
O97 Co84 2.244 . S
O97 C87 1.272 . S
O97 Co89 2.135 . S
Co98 O99 2.216 . S
Co98 O100 2.091 . S
Co98 O102 2.004 . S
Co98 O108 2.021 . S
Co98 O110 2.137 . S
Co98 O111 2.244 . S
O99 Co98 2.216 . S
O99 C106 1.247 . S
O100 Co98 2.091 . S
O100 C106 1.261 . S
C101 O110 1.263 . S
C101 O111 1.277 . S
O102 Co98 2.004 . S
O102 C107 1.259 . S
Co103 O104 2.061 . S
Co103 O109 2.052 . S
Co103 O111 2.135 . S
O104 Co103 2.061 . S
O104 C107 1.235 . S
C105 O108 1.238 . S
C105 O109 1.241 . S
C106 O99 1.247 . S
C106 O100 1.261 . S
C107 O102 1.259 . S
C107 O104 1.235 . S
O108 Co98 2.021 . S
O108 C105 1.238 . S
O109 Co103 2.052 . S
O109 C105 1.241 . S
O110 Co98 2.137 . S
O110 C101 1.263 . S
O111 Co98 2.244 . S
O111 C101 1.277 . S
O111 Co103 2.135 . S
Co112 O113 2.216 . S
Co112 O114 2.091 . S
Co112 O116 2.004 . S
Co112 O122 2.021 . S
Co112 O124 2.137 . S
Co112 O125 2.244 . S
O113 Co112 2.216 . S
O113 C120 1.247 . S
O114 Co112 2.091 . S
O114 C120 1.261 . S
C115 O124 1.247 . S
C115 O125 1.272 . S
O116 Co112 2.004 . S
O116 C121 1.259 . S
Co117 O118 2.061 . S
Co117 O123 2.052 . S
Co117 O125 2.135 . S
O118 Co117 2.061 . S
O118 C121 1.235 . S
C119 O122 1.238 . S
C119 O123 1.241 . S
C120 O113 1.247 . S
C120 O114 1.261 . S
C121 O116 1.259 . S
C121 O118 1.235 . S
O122 Co112 2.021 . S
O122 C119 1.238 . S
O123 Co117 2.052 . S
O123 C119 1.241 . S
O124 Co112 2.137 . S
O124 C115 1.247 . S
O125 Co112 2.244 . S
O125 C115 1.272 . S
O125 Co117 2.135 . S
Co126 O127 2.216 . S
Co126 O128 2.091 . S
Co126 O130 2.004 . S
Co126 O136 2.021 . S
Co126 O138 2.137 . S
Co126 O139 2.244 . S
O127 Co126 2.216 . S
O127 C134 1.247 . S
O128 Co126 2.091 . S
O128 C134 1.261 . S
C129 O138 1.249 . S
C129 O139 1.265 . S
O130 Co126 2.004 . S
O130 C135 1.259 . S
Co131 O132 2.061 . S
Co131 O137 2.052 . S
Co131 O139 2.135 . S
O132 Co131 2.061 . S
O132 C135 1.235 . S
C133 O136 1.238 . S
C133 O137 1.241 . S
C134 O127 1.247 . S
C134 O128 1.261 . S
C135 O130 1.259 . S
C135 O132 1.235 . S
O136 Co126 2.021 . S
O136 C133 1.238 . S
O137 Co131 2.052 . S
O137 C133 1.241 . S
O138 Co126 2.137 . S
O138 C129 1.249 . S
O139 Co126 2.244 . S
O139 C129 1.265 . S
O139 Co131 2.135 . S
Co140 O141 2.216 . S
Co140 O142 2.108 . S
Co140 O144 2.004 . S
Co140 O150 2.021 . S
Co140 O152 2.137 . S
Co140 O153 2.244 . S
O141 Co140 2.216 . S
O141 C148 1.247 1_455 S
O142 Co140 2.108 . S
O142 C148 1.262 1_455 S
C143 O152 1.247 . S
C143 O153 1.272 . S
O144 Co140 2.004 . S
O144 C149 1.259 . S
Co145 O146 2.061 . S
Co145 O151 2.052 . S
Co145 O153 2.135 . S
O146 Co145 2.061 . S
O146 C149 1.235 . S
C147 O150 1.238 . S
C147 O151 1.241 . S
C148 O141 1.247 1_655 S
C148 O142 1.262 1_655 S
C149 O144 1.259 . S
C149 O146 1.235 . S
O150 Co140 2.021 . S
O150 C147 1.238 . S
O151 Co145 2.052 . S
O151 C147 1.241 . S
O152 Co140 2.137 . S
O152 C143 1.247 . S
O153 Co140 2.244 . S
O153 C143 1.272 . S
O153 Co145 2.135 . S
Co154 O155 2.216 . S
Co154 O156 2.091 . S
Co154 O158 2.004 . S
Co154 O164 2.021 . S
Co154 O166 2.137 . S
Co154 O167 2.244 . S
O155 Co154 2.216 . S
O155 C162 1.247 . S
O156 Co154 2.091 . S
O156 C162 1.261 . S
C157 O166 1.247 . S
C157 O167 1.272 . S
O158 Co154 2.004 . S
O158 C163 1.259 . S
Co159 O160 2.061 . S
Co159 O165 2.052 . S
Co159 O167 2.135 . S
O160 Co159 2.061 . S
O160 C163 1.235 . S
C161 O164 1.238 . S
C161 O165 1.241 . S
C162 O155 1.247 . S
C162 O156 1.261 . S
C163 O158 1.259 . S
C163 O160 1.235 . S
O164 Co154 2.021 . S
O164 C161 1.238 . S
O165 Co159 2.052 . S
O165 C161 1.241 . S
O166 Co154 2.137 . S
O166 C157 1.247 . S
O167 Co154 2.244 . S
O167 C157 1.272 . S
O167 Co159 2.135 . S
Co168 O169 2.216 . S
Co168 O170 2.091 . S
Co168 O172 2.004 . S
Co168 O178 2.021 . S
Co168 O180 2.137 . S
Co168 O181 2.244 . S
O169 Co168 2.216 . S
O169 C176 1.247 . S
O170 Co168 2.091 . S
O170 C176 1.261 . S
C171 O180 1.247 . S
C171 O181 1.272 . S
O172 Co168 2.004 . S
O172 C177 1.259 . S
Co173 O174 2.061 . S
Co173 O179 2.052 . S
Co173 O181 2.135 . S
O174 Co173 2.061 . S
O174 C177 1.235 . S
C175 O178 1.238 . S
C175 O179 1.241 . S
C176 O169 1.247 . S
C176 O170 1.261 . S
C177 O172 1.259 . S
C177 O174 1.235 . S
O178 Co168 2.021 . S
O178 C175 1.238 . S
O179 Co173 2.052 . S
O179 C175 1.241 . S
O180 Co168 2.137 . S
O180 C171 1.247 . S
O181 Co168 2.244 . S
O181 C171 1.272 . S
O181 Co173 2.135 . S
Co182 O183 2.216 . S
Co182 O184 2.094 . S
Co182 O186 2.004 . S
Co182 O192 2.021 . S
Co182 O194 2.137 . S
Co182 O195 2.244 . S
O183 Co182 2.216 . S
O183 C190 1.247 1_655 S
O184 Co182 2.094 . S
O184 C190 1.261 1_655 S
C185 O194 1.247 . S
C185 O195 1.272 . S
O186 Co182 2.004 . S
O186 C191 1.259 . S
Co187 O188 2.061 . S
Co187 O193 2.052 . S
Co187 O195 2.135 . S
O188 Co187 2.061 . S
O188 C191 1.235 . S
C189 O192 1.238 . S
C189 O193 1.241 . S
C190 O183 1.247 1_455 S
C190 O184 1.261 1_455 S
C191 O186 1.259 . S
C191 O188 1.235 . S
O192 Co182 2.021 . S
O192 C189 1.238 . S
O193 Co187 2.052 . S
O193 C189 1.241 . S
O194 Co182 2.137 . S
O194 C185 1.247 . S
O195 Co182 2.244 . S
O195 C185 1.272 . S
O195 Co187 2.135 . S
Co196 O197 2.216 . S
Co196 O198 2.091 . S
Co196 O200 2.004 . S
Co196 O206 2.021 . S
Co196 O208 2.137 . S
Co196 O209 2.244 . S
O197 Co196 2.216 . S
O197 C204 1.247 . S
O198 Co196 2.091 . S
O198 C204 1.261 . S
C199 O208 1.247 . S
C199 O209 1.272 . S
O200 Co196 2.004 . S
O200 C205 1.259 . S
Co201 O202 2.061 . S
Co201 O207 2.052 . S
Co201 O209 2.135 . S
O202 Co201 2.061 . S
O202 C205 1.235 . S
C203 O206 1.238 . S
C203 O207 1.241 . S
C204 O197 1.247 . S
C204 O198 1.261 . S
C205 O200 1.259 . S
C205 O202 1.235 . S
O206 Co196 2.021 . S
O206 C203 1.238 . S
O207 Co201 2.052 . S
O207 C203 1.241 . S
O208 Co196 2.137 . S
O208 C199 1.247 . S
O209 Co196 2.244 . S
O209 C199 1.272 . S
O209 Co201 2.135 . S
Co210 O211 2.216 . S
Co210 O212 2.091 . S
Co210 O214 2.004 . S
Co210 O220 2.021 . S
Co210 O222 2.137 . S
Co210 O223 2.244 . S
O211 Co210 2.216 . S
O211 C218 1.247 . S
O212 Co210 2.091 . S
O212 C218 1.261 . S
C213 O222 1.247 . S
C213 O223 1.272 . S
O214 Co210 2.004 . S
O214 C219 1.259 . S
Co215 O216 2.061 . S
Co215 O221 2.052 . S
Co215 O223 2.135 . S
O216 Co215 2.061 . S
O216 C219 1.235 . S
C217 O220 1.238 . S
C217 O221 1.241 . S
C218 O211 1.247 . S
C218 O212 1.261 . S
C219 O214 1.259 . S
C219 O216 1.235 . S
O220 Co210 2.021 . S
O220 C217 1.238 . S
O221 Co215 2.052 . S
O221 C217 1.241 . S
O222 Co210 2.137 . S
O222 C213 1.247 . S
O223 Co210 2.244 . S
O223 C213 1.272 . S
O223 Co215 2.135 . S
Co224 O225 2.216 . S
Co224 O226 2.091 . S
Co224 O228 2.004 . S
Co224 O234 2.021 . S
Co224 O236 2.137 . S
Co224 O237 2.244 . S
O225 Co224 2.216 . S
O225 C232 1.247 . S
O226 Co224 2.091 . S
O226 C232 1.261 . S
C227 O236 1.247 . S
C227 O237 1.272 . S
O228 Co224 2.004 . S
O228 C233 1.259 . S
Co229 O230 2.061 . S
Co229 O235 2.052 . S
Co229 O237 2.135 . S
O230 Co229 2.061 . S
O230 C233 1.235 . S
C231 O234 1.238 . S
C231 O235 1.241 . S
C232 O225 1.247 . S
C232 O226 1.261 . S
C233 O228 1.259 . S
C233 O230 1.235 . S
O234 Co224 2.021 . S
O234 C231 1.238 . S
O235 Co229 2.052 . S
O235 C231 1.241 . S
O236 Co224 2.137 . S
O236 C227 1.247 . S
O237 Co224 2.244 . S
O237 C227 1.272 . S
O237 Co229 2.135 . S
Co238 O239 2.216 . S
Co238 O240 2.091 . S
Co238 O242 2.004 . S
Co238 O248 2.021 . S
Co238 O250 2.137 . S
Co238 O251 2.244 . S
O239 Co238 2.216 . S
O239 C246 1.247 . S
O240 Co238 2.091 . S
O240 C246 1.261 . S
C241 O250 1.247 . S
C241 O251 1.272 . S
O242 Co238 2.004 . S
O242 C247 1.259 . S
Co243 O244 2.061 . S
Co243 O249 2.052 . S
Co243 O251 2.135 . S
O244 Co243 2.061 . S
O244 C247 1.235 . S
C245 O248 1.238 . S
C245 O249 1.241 . S
C246 O239 1.247 . S
C246 O240 1.261 . S
C247 O242 1.259 . S
C247 O244 1.235 . S
O248 Co238 2.021 . S
O248 C245 1.238 . S
O249 Co243 2.052 . S
O249 C245 1.241 . S
O250 Co238 2.137 . S
O250 C241 1.247 . S
O251 Co238 2.244 . S
O251 C241 1.272 . S
O251 Co243 2.135 . S
H252 C279 0.929 . S
N253 C278 1.433 . S
N253 C284 1.435 . S
N253 C290 1.423 . S
H254 C280 0.930 . S
H255 C283 0.931 . S
H256 C282 0.929 . S
H257 C285 0.930 . S
H258 C286 0.932 . S
H259 C289 0.929 . S
H260 C288 0.931 . S
H261 C291 0.929 . S
H262 C295 0.932 . S
H263 C292 0.931 . S
H264 C294 0.929 . S
H265 C297 0.929 . S
H266 C298 0.930 . S
H267 C300 0.929 . S
H268 C301 0.931 . S
H269 C303 0.930 . S
H270 C304 0.932 . S
H271 C306 0.931 . S
H272 C307 0.929 . S
H273 C309 0.929 . S
H274 C310 0.931 . S
H275 C312 0.929 . S
N276 C296 1.433 . S
N276 C302 1.435 . S
N276 C308 1.423 . S
H277 C313 0.932 . S
C278 N253 1.433 . S
C278 C279 1.363 . S
C278 C283 1.370 . S
C279 H252 0.929 . S
C279 C278 1.363 . S
C279 C280 1.385 . S
C280 H254 0.930 . S
C280 C279 1.385 . S
C280 C281 1.357 . S
C281 C280 1.357 . S
C281 C282 1.406 . S
C282 H256 0.929 . S
C282 C281 1.406 . S
C282 C283 1.391 . S
C283 H255 0.931 . S
C283 C278 1.370 . S
C283 C282 1.391 . S
C284 N253 1.435 . S
C284 C285 1.358 . S
C284 C289 1.371 . S
C285 H257 0.930 . S
C285 C284 1.358 . S
C285 C286 1.405 . S
C286 H258 0.932 . S
C286 C285 1.405 . S
C286 C287 1.383 . S
C287 C286 1.383 . S
C287 C288 1.393 . S
C288 H260 0.931 . S
C288 C287 1.393 . S
C288 C289 1.382 . S
C289 H259 0.929 . S
C289 C284 1.371 . S
C289 C288 1.382 . S
C290 N253 1.423 . S
C290 C291 1.362 . S
C290 C295 1.388 . S
C291 H261 0.929 . S
C291 C290 1.362 . S
C291 C292 1.376 . S
C292 H263 0.931 . S
C292 C291 1.376 . S
C292 C293 1.396 . S
C293 C292 1.396 . S
C293 C294 1.348 . S
C293 C311 1.472 . S
C294 H264 0.929 . S
C294 C293 1.348 . S
C294 C295 1.443 . S
C295 H262 0.932 . S
C295 C290 1.388 . S
C295 C294 1.443 . S
C296 N276 1.433 . S
C296 C297 1.363 . S
C296 C301 1.370 . S
C297 H265 0.929 . S
C297 C296 1.363 . S
C297 C298 1.385 . S
C298 H266 0.930 . S
C298 C297 1.385 . S
C298 C299 1.357 . S
C299 C298 1.357 . S
C299 C300 1.406 . S
C300 H267 0.929 . S
C300 C299 1.406 . S
C300 C301 1.391 . S
C301 H268 0.931 . S
C301 C296 1.370 . S
C301 C300 1.391 . S
C302 N276 1.435 . S
C302 C303 1.358 . S
C302 C307 1.371 . S
C303 H269 0.930 . S
C303 C302 1.358 . S
C303 C304 1.405 . S
C304 H270 0.932 . S
C304 C303 1.405 . S
C304 C305 1.383 . S
C305 C304 1.383 . S
C305 C306 1.393 . S
C306 H271 0.931 . S
C306 C305 1.393 . S
C306 C307 1.382 . S
C307 H272 0.929 . S
C307 C302 1.371 . S
C307 C306 1.382 . S
C308 N276 1.423 . S
C308 C309 1.362 . S
C308 C313 1.388 . S
C309 H273 0.929 . S
C309 C308 1.362 . S
C309 C310 1.376 . S
C310 H274 0.931 . S
C310 C309 1.376 . S
C310 C311 1.396 . S
C311 C293 1.472 . S
C311 C310 1.396 . S
C311 C312 1.348 . S
C312 H275 0.929 . S
C312 C311 1.348 . S
C312 C313 1.443 . S
C313 H277 0.932 . S
C313 C308 1.388 . S
C313 C312 1.443 . S
H314 C341 0.929 . S
N315 C340 1.433 . S
N315 C346 1.435 . S
N315 C352 1.423 . S
H316 C342 0.930 . S
H317 C345 0.931 . S
H318 C344 0.929 . S
H319 C347 0.930 . S
H320 C348 0.932 . S
H321 C351 0.929 . S
H322 C350 0.931 . S
H323 C353 0.929 . S
H324 C357 0.932 . S
H325 C354 0.931 . S
H326 C356 0.929 . S
H327 C359 0.929 . S
H328 C360 0.930 . S
H329 C362 0.929 . S
H330 C363 0.931 . S
H331 C365 0.930 . S
H332 C366 0.932 . S
H333 C368 0.931 . S
H334 C369 0.929 . S
H335 C371 0.929 . S
H336 C372 0.931 . S
H337 C374 0.929 . S
N338 C358 1.433 . S
N338 C364 1.435 . S
N338 C370 1.423 . S
H339 C375 0.932 . S
C340 N315 1.433 . S
C340 C341 1.363 . S
C340 C345 1.370 . S
C341 H314 0.929 . S
C341 C340 1.363 . S
C341 C342 1.385 . S
C342 H316 0.930 . S
C342 C341 1.385 . S
C342 C343 1.357 . S
C343 C342 1.357 . S
C343 C344 1.406 . S
C344 H318 0.929 . S
C344 C343 1.406 . S
C344 C345 1.391 . S
C345 H317 0.931 . S
C345 C340 1.370 . S
C345 C344 1.391 . S
C346 N315 1.435 . S
C346 C347 1.358 . S
C346 C351 1.371 . S
C347 H319 0.930 . S
C347 C346 1.358 . S
C347 C348 1.405 . S
C348 H320 0.932 . S
C348 C347 1.405 . S
C348 C349 1.383 . S
C349 C348 1.383 . S
C349 C350 1.393 . S
C350 H322 0.931 . S
C350 C349 1.393 . S
C350 C351 1.382 . S
C351 H321 0.929 . S
C351 C346 1.371 . S
C351 C350 1.382 . S
C352 N315 1.423 . S
C352 C353 1.362 . S
C352 C357 1.388 . S
C353 H323 0.929 . S
C353 C352 1.362 . S
C353 C354 1.376 . S
C354 H325 0.931 . S
C354 C353 1.376 . S
C354 C355 1.396 . S
C355 C354 1.396 . S
C355 C356 1.348 . S
C355 C373 1.472 . S
C356 H326 0.929 . S
C356 C355 1.348 . S
C356 C357 1.443 . S
C357 H324 0.932 . S
C357 C352 1.388 . S
C357 C356 1.443 . S
C358 N338 1.433 . S
C358 C359 1.363 . S
C358 C363 1.370 . S
C359 H327 0.929 . S
C359 C358 1.363 . S
C359 C360 1.385 . S
C360 H328 0.930 . S
C360 C359 1.385 . S
C360 C361 1.357 . S
C361 C360 1.357 . S
C361 C362 1.406 . S
C362 H329 0.929 . S
C362 C361 1.406 . S
C362 C363 1.391 . S
C363 H330 0.931 . S
C363 C358 1.370 . S
C363 C362 1.391 . S
C364 N338 1.435 . S
C364 C365 1.358 . S
C364 C369 1.371 . S
C365 H331 0.930 . S
C365 C364 1.358 . S
C365 C366 1.405 . S
C366 H332 0.932 . S
C366 C365 1.405 . S
C366 C367 1.383 . S
C367 C366 1.383 . S
C367 C368 1.393 . S
C368 H333 0.931 . S
C368 C367 1.393 . S
C368 C369 1.382 . S
C369 H334 0.929 . S
C369 C364 1.371 . S
C369 C368 1.382 . S
C370 N338 1.423 . S
C370 C371 1.362 . S
C370 C375 1.388 . S
C371 H335 0.929 . S
C371 C370 1.362 . S
C371 C372 1.376 . S
C372 H336 0.931 . S
C372 C371 1.376 . S
C372 C373 1.396 . S
C373 C355 1.472 . S
C373 C372 1.396 . S
C373 C374 1.348 . S
C374 H337 0.929 . S
C374 C373 1.348 . S
C374 C375 1.443 . S
C375 H339 0.932 . S
C375 C370 1.388 . S
C375 C374 1.443 . S
H376 C403 0.929 . S
N377 C402 1.433 . S
N377 C408 1.435 . S
N377 C414 1.423 . S
H378 C404 0.930 . S
H379 C407 0.931 . S
H380 C406 0.929 . S
H381 C409 0.930 . S
H382 C410 0.932 . S
H383 C413 0.929 . S
H384 C412 0.931 . S
H385 C415 0.929 . S
H386 C419 0.932 . S
H387 C416 0.931 . S
H388 C418 0.929 . S
H389 C421 0.929 . S
H390 C422 0.930 . S
H391 C424 0.929 . S
H392 C425 0.931 . S
H393 C427 0.930 . S
H394 C428 0.932 . S
H395 C430 0.931 . S
H396 C431 0.929 . S
H397 C433 0.929 . S
H398 C434 0.931 . S
H399 C436 0.929 . S
N400 C420 1.433 . S
N400 C426 1.435 . S
N400 C432 1.423 . S
H401 C437 0.932 . S
C402 N377 1.433 . S
C402 C403 1.363 . S
C402 C407 1.370 . S
C403 H376 0.929 . S
C403 C402 1.363 . S
C403 C404 1.385 . S
C404 H378 0.930 . S
C404 C403 1.385 . S
C404 C405 1.357 . S
C405 C404 1.357 . S
C405 C406 1.406 . S
C406 H380 0.929 . S
C406 C405 1.406 . S
C406 C407 1.391 . S
C407 H379 0.931 . S
C407 C402 1.370 . S
C407 C406 1.391 . S
C408 N377 1.435 . S
C408 C409 1.358 . S
C408 C413 1.371 . S
C409 H381 0.930 . S
C409 C408 1.358 . S
C409 C410 1.405 . S
C410 H382 0.932 . S
C410 C409 1.405 . S
C410 C411 1.383 . S
C411 C410 1.383 . S
C411 C412 1.393 . S
C412 H384 0.931 . S
C412 C411 1.393 . S
C412 C413 1.382 . S
C413 H383 0.929 . S
C413 C408 1.371 . S
C413 C412 1.382 . S
C414 N377 1.423 . S
C414 C415 1.362 . S
C414 C419 1.388 . S
C415 H385 0.929 . S
C415 C414 1.362 . S
C415 C416 1.376 . S
C416 H387 0.931 . S
C416 C415 1.376 . S
C416 C417 1.396 . S
C417 C416 1.396 . S
C417 C418 1.348 . S
C417 C435 1.472 . S
C418 H388 0.929 . S
C418 C417 1.348 . S
C418 C419 1.443 . S
C419 H386 0.932 . S
C419 C414 1.388 . S
C419 C418 1.443 . S
C420 N400 1.433 . S
C420 C421 1.363 . S
C420 C425 1.370 . S
C421 H389 0.929 . S
C421 C420 1.363 . S
C421 C422 1.385 . S
C422 H390 0.930 . S
C422 C421 1.385 . S
C422 C423 1.357 . S
C423 C422 1.357 . S
C423 C424 1.406 . S
C424 H391 0.929 . S
C424 C423 1.406 . S
C424 C425 1.391 . S
C425 H392 0.931 . S
C425 C420 1.370 . S
C425 C424 1.391 . S
C426 N400 1.435 . S
C426 C427 1.358 . S
C426 C431 1.371 . S
C427 H393 0.930 . S
C427 C426 1.358 . S
C427 C428 1.405 . S
C428 H394 0.932 . S
C428 C427 1.405 . S
C428 C429 1.383 . S
C429 C428 1.383 . S
C429 C430 1.393 . S
C430 H395 0.931 . S
C430 C429 1.393 . S
C430 C431 1.382 . S
C431 H396 0.929 . S
C431 C426 1.371 . S
C431 C430 1.382 . S
C432 N400 1.423 . S
C432 C433 1.362 . S
C432 C437 1.388 . S
C433 H397 0.929 . S
C433 C432 1.362 . S
C433 C434 1.376 . S
C434 H398 0.931 . S
C434 C433 1.376 . S
C434 C435 1.396 . S
C435 C417 1.472 . S
C435 C434 1.396 . S
C435 C436 1.348 . S
C436 H399 0.929 . S
C436 C435 1.348 . S
C436 C437 1.443 . S
C437 H401 0.932 . S
C437 C432 1.388 . S
C437 C436 1.443 . S
H438 C465 0.929 . S
N439 C464 1.433 . S
N439 C470 1.435 . S
N439 C476 1.423 . S
H440 C466 0.930 . S
H441 C469 0.931 . S
H442 C468 0.929 . S
H443 C471 0.930 . S
H444 C472 0.932 . S
H445 C475 0.929 . S
H446 C474 0.931 . S
H447 C477 0.929 . S
H448 C481 0.932 . S
H449 C478 0.931 . S
H450 C480 0.929 . S
H451 C483 0.929 . S
H452 C484 0.930 . S
H453 C486 0.929 . S
H454 C487 0.931 . S
H455 C489 0.930 . S
H456 C490 0.932 . S
H457 C492 0.931 . S
H458 C493 0.929 . S
H459 C495 0.929 . S
H460 C496 0.931 . S
H461 C498 0.929 . S
N462 C482 1.433 . S
N462 C488 1.435 . S
N462 C494 1.423 . S
H463 C499 0.932 . S
C464 N439 1.433 . S
C464 C465 1.363 . S
C464 C469 1.370 . S
C465 H438 0.929 . S
C465 C464 1.363 . S
C465 C466 1.385 . S
C466 H440 0.930 . S
C466 C465 1.385 . S
C466 C467 1.357 . S
C467 C466 1.357 . S
C467 C468 1.406 . S
C468 H442 0.929 . S
C468 C467 1.406 . S
C468 C469 1.391 . S
C469 H441 0.931 . S
C469 C464 1.370 . S
C469 C468 1.391 . S
C470 N439 1.435 . S
C470 C471 1.358 . S
C470 C475 1.371 . S
C471 H443 0.930 . S
C471 C470 1.358 . S
C471 C472 1.405 . S
C472 H444 0.932 . S
C472 C471 1.405 . S
C472 C473 1.383 . S
C473 C472 1.383 . S
C473 C474 1.393 . S
C474 H446 0.931 . S
C474 C473 1.393 . S
C474 C475 1.382 . S
C475 H445 0.929 . S
C475 C470 1.371 . S
C475 C474 1.382 . S
C476 N439 1.423 . S
C476 C477 1.362 . S
C476 C481 1.388 . S
C477 H447 0.929 . S
C477 C476 1.362 . S
C477 C478 1.376 . S
C478 H449 0.931 . S
C478 C477 1.376 . S
C478 C479 1.396 . S
C479 C478 1.396 . S
C479 C480 1.348 . S
C479 C497 1.472 . S
C480 H450 0.929 . S
C480 C479 1.348 . S
C480 C481 1.443 . S
C481 H448 0.932 . S
C481 C476 1.388 . S
C481 C480 1.443 . S
C482 N462 1.433 . S
C482 C483 1.363 . S
C482 C487 1.370 . S
C483 H451 0.929 . S
C483 C482 1.363 . S
C483 C484 1.385 . S
C484 H452 0.930 . S
C484 C483 1.385 . S
C484 C485 1.357 . S
C485 C484 1.357 . S
C485 C486 1.406 . S
C486 H453 0.929 . S
C486 C485 1.406 . S
C486 C487 1.391 . S
C487 H454 0.931 . S
C487 C482 1.370 . S
C487 C486 1.391 . S
C488 N462 1.435 . S
C488 C489 1.358 . S
C488 C493 1.371 . S
C489 H455 0.930 . S
C489 C488 1.358 . S
C489 C490 1.405 . S
C490 H456 0.932 . S
C490 C489 1.405 . S
C490 C491 1.383 . S
C491 C490 1.383 . S
C491 C492 1.393 . S
C492 H457 0.931 . S
C492 C491 1.393 . S
C492 C493 1.382 . S
C493 H458 0.929 . S
C493 C488 1.371 . S
C493 C492 1.382 . S
C494 N462 1.423 . S
C494 C495 1.362 . S
C494 C499 1.388 . S
C495 H459 0.929 . S
C495 C494 1.362 . S
C495 C496 1.376 . S
C496 H460 0.931 . S
C496 C495 1.376 . S
C496 C497 1.396 . S
C497 C479 1.472 . S
C497 C496 1.396 . S
C497 C498 1.348 . S
C498 H461 0.929 . S
C498 C497 1.348 . S
C498 C499 1.443 . S
C499 H463 0.932 . S
C499 C494 1.388 . S
C499 C498 1.443 . S
H500 C527 0.929 . S
N501 C526 1.433 . S
N501 C532 1.435 . S
N501 C538 1.423 . S
H502 C528 0.930 . S
H503 C531 0.931 . S
H504 C530 0.929 . S
H505 C533 0.930 . S
H506 C534 0.932 . S
H507 C537 0.929 . S
H508 C536 0.931 . S
H509 C539 0.929 . S
H510 C543 0.932 . S
H511 C540 0.931 . S
H512 C542 0.929 . S
H513 C545 0.929 . S
H514 C546 0.930 . S
H515 C548 0.929 . S
H516 C549 0.931 . S
H517 C551 0.930 . S
H518 C552 0.932 . S
H519 C554 0.931 . S
H520 C555 0.929 . S
H521 C557 0.929 . S
H522 C558 0.931 . S
H523 C560 0.929 . S
N524 C544 1.433 . S
N524 C550 1.435 . S
N524 C556 1.423 . S
H525 C561 0.932 . S
C526 N501 1.433 . S
C526 C527 1.363 . S
C526 C531 1.370 . S
C527 H500 0.929 . S
C527 C526 1.363 . S
C527 C528 1.385 . S
C528 H502 0.930 . S
C528 C527 1.385 . S
C528 C529 1.357 . S
C529 C528 1.357 . S
C529 C530 1.406 . S
C530 H504 0.929 . S
C530 C529 1.406 . S
C530 C531 1.391 . S
C531 H503 0.931 . S
C531 C526 1.370 . S
C531 C530 1.391 . S
C532 N501 1.435 . S
C532 C533 1.358 . S
C532 C537 1.371 . S
C533 H505 0.930 . S
C533 C532 1.358 . S
C533 C534 1.405 . S
C534 H506 0.932 . S
C534 C533 1.405 . S
C534 C535 1.383 . S
C535 C534 1.383 . S
C535 C536 1.393 . S
C536 H508 0.931 . S
C536 C535 1.393 . S
C536 C537 1.382 . S
C537 H507 0.929 . S
C537 C532 1.371 . S
C537 C536 1.382 . S
C538 N501 1.423 . S
C538 C539 1.362 . S
C538 C543 1.388 . S
C539 H509 0.929 . S
C539 C538 1.362 . S
C539 C540 1.376 . S
C540 H511 0.931 . S
C540 C539 1.376 . S
C540 C541 1.396 . S
C541 C540 1.396 . S
C541 C542 1.348 . S
C541 C559 1.472 . S
C542 H512 0.929 . S
C542 C541 1.348 . S
C542 C543 1.443 . S
C543 H510 0.932 . S
C543 C538 1.388 . S
C543 C542 1.443 . S
C544 N524 1.433 . S
C544 C545 1.363 . S
C544 C549 1.370 . S
C545 H513 0.929 . S
C545 C544 1.363 . S
C545 C546 1.385 . S
C546 H514 0.930 . S
C546 C545 1.385 . S
C546 C547 1.357 . S
C547 C546 1.357 . S
C547 C548 1.406 . S
C548 H515 0.929 . S
C548 C547 1.406 . S
C548 C549 1.391 . S
C549 H516 0.931 . S
C549 C544 1.370 . S
C549 C548 1.391 . S
C550 N524 1.435 . S
C550 C551 1.358 . S
C550 C555 1.371 . S
C551 H517 0.930 . S
C551 C550 1.358 . S
C551 C552 1.405 . S
C552 H518 0.932 . S
C552 C551 1.405 . S
C552 C553 1.383 . S
C553 C552 1.383 . S
C553 C554 1.393 . S
C554 H519 0.931 . S
C554 C553 1.393 . S
C554 C555 1.382 . S
C555 H520 0.929 . S
C555 C550 1.371 . S
C555 C554 1.382 . S
C556 N524 1.423 . S
C556 C557 1.362 . S
C556 C561 1.388 . S
C557 H521 0.929 . S
C557 C556 1.362 . S
C557 C558 1.376 . S
C558 H522 0.931 . S
C558 C557 1.376 . S
C558 C559 1.396 . S
C559 C541 1.472 . S
C559 C558 1.396 . S
C559 C560 1.348 . S
C560 H523 0.929 . S
C560 C559 1.348 . S
C560 C561 1.443 . S
C561 H525 0.932 . S
C561 C556 1.388 . S
C561 C560 1.443 . S
H562 C589 0.929 . S
N563 C588 1.433 . S
N563 C594 1.435 . S
N563 C600 1.423 . S
H564 C590 0.930 . S
H565 C593 0.931 . S
H566 C592 0.929 . S
H567 C595 0.930 . S
H568 C596 0.932 . S
H569 C599 0.929 . S
H570 C598 0.931 . S
H571 C601 0.929 . S
H572 C605 0.932 . S
H573 C602 0.931 . S
H574 C604 0.929 . S
H575 C607 0.929 . S
H576 C608 0.930 . S
H577 C610 0.929 . S
H578 C611 0.931 . S
H579 C613 0.930 . S
H580 C614 0.932 . S
H581 C616 0.931 . S
H582 C617 0.929 . S
H583 C619 0.929 . S
H584 C620 0.931 . S
H585 C622 0.929 . S
N586 C606 1.433 . S
N586 C612 1.435 . S
N586 C618 1.423 . S
H587 C623 0.932 . S
C588 N563 1.433 . S
C588 C589 1.363 . S
C588 C593 1.370 . S
C589 H562 0.929 . S
C589 C588 1.363 . S
C589 C590 1.385 . S
C590 H564 0.930 . S
C590 C589 1.385 . S
C590 C591 1.357 . S
C591 C590 1.357 . S
C591 C592 1.406 . S
C592 H566 0.929 . S
C592 C591 1.406 . S
C592 C593 1.391 . S
C593 H565 0.931 . S
C593 C588 1.370 . S
C593 C592 1.391 . S
C594 N563 1.435 . S
C594 C595 1.358 . S
C594 C599 1.371 . S
C595 H567 0.930 . S
C595 C594 1.358 . S
C595 C596 1.405 . S
C596 H568 0.932 . S
C596 C595 1.405 . S
C596 C597 1.383 . S
C597 C596 1.383 . S
C597 C598 1.393 . S
C598 H570 0.931 . S
C598 C597 1.393 . S
C598 C599 1.382 . S
C599 H569 0.929 . S
C599 C594 1.371 . S
C599 C598 1.382 . S
C600 N563 1.423 . S
C600 C601 1.362 . S
C600 C605 1.388 . S
C601 H571 0.929 . S
C601 C600 1.362 . S
C601 C602 1.376 . S
C602 H573 0.931 . S
C602 C601 1.376 . S
C602 C603 1.396 . S
C603 C602 1.396 . S
C603 C604 1.348 . S
C603 C621 1.472 . S
C604 H574 0.929 . S
C604 C603 1.348 . S
C604 C605 1.443 . S
C605 H572 0.932 . S
C605 C600 1.388 . S
C605 C604 1.443 . S
C606 N586 1.433 . S
C606 C607 1.363 . S
C606 C611 1.370 . S
C607 H575 0.929 . S
C607 C606 1.363 . S
C607 C608 1.385 . S
C608 H576 0.930 . S
C608 C607 1.385 . S
C608 C609 1.357 . S
C609 C608 1.357 . S
C609 C610 1.406 . S
C610 H577 0.929 . S
C610 C609 1.406 . S
C610 C611 1.391 . S
C611 H578 0.931 . S
C611 C606 1.370 . S
C611 C610 1.391 . S
C612 N586 1.435 . S
C612 C613 1.358 . S
C612 C617 1.371 . S
C613 H579 0.930 . S
C613 C612 1.358 . S
C613 C614 1.405 . S
C614 H580 0.932 . S
C614 C613 1.405 . S
C614 C615 1.383 . S
C615 C614 1.383 . S
C615 C616 1.393 . S
C616 H581 0.931 . S
C616 C615 1.393 . S
C616 C617 1.382 . S
C617 H582 0.929 . S
C617 C612 1.371 . S
C617 C616 1.382 . S
C618 N586 1.423 . S
C618 C619 1.362 . S
C618 C623 1.388 . S
C619 H583 0.929 . S
C619 C618 1.362 . S
C619 C620 1.376 . S
C620 H584 0.931 . S
C620 C619 1.376 . S
C620 C621 1.396 . S
C621 C603 1.472 . S
C621 C620 1.396 . S
C621 C622 1.348 . S
C622 H585 0.929 . S
C622 C621 1.348 . S
C622 C623 1.443 . S
C623 H587 0.932 . S
C623 C618 1.388 . S
C623 C622 1.443 . S
H624 C651 0.929 . S
N625 C650 1.433 . S
N625 C656 1.435 . S
N625 C662 1.423 . S
H626 C652 0.930 . S
H627 C655 0.931 . S
H628 C654 0.929 . S
H629 C657 0.930 . S
H630 C658 0.932 . S
H631 C661 0.929 . S
H632 C660 0.931 . S
H633 C663 0.929 . S
H634 C667 0.932 . S
H635 C664 0.931 . S
H636 C666 0.929 . S
H637 C669 0.929 . S
H638 C670 0.930 . S
H639 C672 0.929 . S
H640 C673 0.931 . S
H641 C675 0.930 . S
H642 C676 0.932 . S
H643 C678 0.931 . S
H644 C679 0.929 . S
H645 C681 0.929 . S
H646 C682 0.931 . S
H647 C684 0.929 . S
N648 C668 1.433 . S
N648 C674 1.435 . S
N648 C680 1.423 . S
H649 C685 0.932 . S
C650 N625 1.433 . S
C650 C651 1.363 . S
C650 C655 1.370 . S
C651 H624 0.929 . S
C651 C650 1.363 . S
C651 C652 1.385 . S
C652 H626 0.930 . S
C652 C651 1.385 . S
C652 C653 1.357 . S
C653 C652 1.357 . S
C653 C654 1.406 . S
C654 H628 0.929 . S
C654 C653 1.406 . S
C654 C655 1.391 . S
C655 H627 0.931 . S
C655 C650 1.370 . S
C655 C654 1.391 . S
C656 N625 1.435 . S
C656 C657 1.358 . S
C656 C661 1.371 . S
C657 H629 0.930 . S
C657 C656 1.358 . S
C657 C658 1.405 . S
C658 H630 0.932 . S
C658 C657 1.405 . S
C658 C659 1.383 . S
C659 C658 1.383 . S
C659 C660 1.393 . S
C660 H632 0.931 . S
C660 C659 1.393 . S
C660 C661 1.382 . S
C661 H631 0.929 . S
C661 C656 1.371 . S
C661 C660 1.382 . S
C662 N625 1.423 . S
C662 C663 1.362 . S
C662 C667 1.388 . S
C663 H633 0.929 . S
C663 C662 1.362 . S
C663 C664 1.376 . S
C664 H635 0.931 . S
C664 C663 1.376 . S
C664 C665 1.396 . S
C665 C664 1.396 . S
C665 C666 1.348 . S
C665 C683 1.472 . S
C666 H636 0.929 . S
C666 C665 1.348 . S
C666 C667 1.443 . S
C667 H634 0.932 . S
C667 C662 1.388 . S
C667 C666 1.443 . S
C668 N648 1.433 . S
C668 C669 1.363 . S
C668 C673 1.370 . S
C669 H637 0.929 . S
C669 C668 1.363 . S
C669 C670 1.385 . S
C670 H638 0.930 . S
C670 C669 1.385 . S
C670 C671 1.357 . S
C671 C670 1.357 . S
C671 C672 1.406 . S
C672 H639 0.929 . S
C672 C671 1.406 . S
C672 C673 1.391 . S
C673 H640 0.931 . S
C673 C668 1.370 . S
C673 C672 1.391 . S
C674 N648 1.435 . S
C674 C675 1.358 . S
C674 C679 1.371 . S
C675 H641 0.930 . S
C675 C674 1.358 . S
C675 C676 1.405 . S
C676 H642 0.932 . S
C676 C675 1.405 . S
C676 C677 1.383 . S
C677 C676 1.383 . S
C677 C678 1.393 . S
C678 H643 0.931 . S
C678 C677 1.393 . S
C678 C679 1.382 . S
C679 H644 0.929 . S
C679 C674 1.371 . S
C679 C678 1.382 . S
C680 N648 1.423 . S
C680 C681 1.362 . S
C680 C685 1.388 . S
C681 H645 0.929 . S
C681 C680 1.362 . S
C681 C682 1.376 . S
C682 H646 0.931 . S
C682 C681 1.376 . S
C682 C683 1.396 . S
C683 C665 1.472 . S
C683 C682 1.396 . S
C683 C684 1.348 . S
C684 H647 0.929 . S
C684 C683 1.348 . S
C684 C685 1.443 . S
C685 H649 0.932 . S
C685 C680 1.388 . S
C685 C684 1.443 . S
H686 C713 0.929 . S
N687 C712 1.433 . S
N687 C718 1.435 . S
N687 C724 1.423 . S
H688 C714 0.930 . S
H689 C717 0.931 . S
H690 C716 0.929 . S
H691 C719 0.930 . S
H692 C720 0.932 . S
H693 C723 0.929 . S
H694 C722 0.931 . S
H695 C725 0.929 . S
H696 C729 0.932 . S
H697 C726 0.931 . S
H698 C728 0.929 . S
H699 C731 0.929 . S
H700 C732 0.930 . S
H701 C734 0.929 . S
H702 C735 0.931 . S
H703 C737 0.930 . S
H704 C738 0.932 . S
H705 C740 0.931 . S
H706 C741 0.929 . S
H707 C743 0.929 . S
H708 C744 0.931 . S
H709 C746 0.929 . S
N710 C730 1.433 . S
N710 C736 1.435 . S
N710 C742 1.423 . S
H711 C747 0.932 . S
C712 N687 1.433 . S
C712 C713 1.363 . S
C712 C717 1.370 . S
C713 H686 0.929 . S
C713 C712 1.363 . S
C713 C714 1.385 . S
C714 H688 0.930 . S
C714 C713 1.385 . S
C714 C715 1.357 . S
C715 C714 1.357 . S
C715 C716 1.406 . S
C716 H690 0.929 . S
C716 C715 1.406 . S
C716 C717 1.391 . S
C717 H689 0.931 . S
C717 C712 1.370 . S
C717 C716 1.391 . S
C718 N687 1.435 . S
C718 C719 1.358 . S
C718 C723 1.371 . S
C719 H691 0.930 . S
C719 C718 1.358 . S
C719 C720 1.405 . S
C720 H692 0.932 . S
C720 C719 1.405 . S
C720 C721 1.383 . S
C721 C720 1.383 . S
C721 C722 1.393 . S
C722 H694 0.931 . S
C722 C721 1.393 . S
C722 C723 1.382 . S
C723 H693 0.929 . S
C723 C718 1.371 . S
C723 C722 1.382 . S
C724 N687 1.423 . S
C724 C725 1.362 . S
C724 C729 1.388 . S
C725 H695 0.929 . S
C725 C724 1.362 . S
C725 C726 1.376 . S
C726 H697 0.931 . S
C726 C725 1.376 . S
C726 C727 1.396 . S
C727 C726 1.396 . S
C727 C728 1.348 . S
C727 C745 1.472 . S
C728 H698 0.929 . S
C728 C727 1.348 . S
C728 C729 1.443 . S
C729 H696 0.932 . S
C729 C724 1.388 . S
C729 C728 1.443 . S
C730 N710 1.433 . S
C730 C731 1.363 . S
C730 C735 1.370 . S
C731 H699 0.929 . S
C731 C730 1.363 . S
C731 C732 1.385 . S
C732 H700 0.930 . S
C732 C731 1.385 . S
C732 C733 1.357 . S
C733 C732 1.357 . S
C733 C734 1.406 . S
C734 H701 0.929 . S
C734 C733 1.406 . S
C734 C735 1.391 . S
C735 H702 0.931 . S
C735 C730 1.370 . S
C735 C734 1.391 . S
C736 N710 1.435 . S
C736 C737 1.358 . S
C736 C741 1.371 . S
C737 H703 0.930 . S
C737 C736 1.358 . S
C737 C738 1.405 . S
C738 H704 0.932 . S
C738 C737 1.405 . S
C738 C739 1.383 . S
C739 C738 1.383 . S
C739 C740 1.393 . S
C740 H705 0.931 . S
C740 C739 1.393 . S
C740 C741 1.382 . S
C741 H706 0.929 . S
C741 C736 1.371 . S
C741 C740 1.382 . S
C742 N710 1.423 . S
C742 C743 1.362 . S
C742 C747 1.388 . S
C743 H707 0.929 . S
C743 C742 1.362 . S
C743 C744 1.376 . S
C744 H708 0.931 . S
C744 C743 1.376 . S
C744 C745 1.396 . S
C745 C727 1.472 . S
C745 C744 1.396 . S
C745 C746 1.348 . S
C746 H709 0.929 . S
C746 C745 1.348 . S
C746 C747 1.443 . S
C747 H711 0.932 . S
C747 C742 1.388 . S
C747 C746 1.443 . S
H748 C775 0.929 . S
N749 C774 1.433 . S
N749 C780 1.435 . S
N749 C786 1.423 . S
H750 C776 0.930 . S
H751 C779 0.931 . S
H752 C778 0.929 . S
H753 C781 0.930 . S
H754 C782 0.932 . S
H755 C785 0.929 . S
H756 C784 0.931 . S
H757 C787 0.929 . S
H758 C791 0.932 . S
H759 C788 0.931 . S
H760 C790 0.929 . S
H761 C793 0.929 . S
H762 C794 0.930 . S
H763 C796 0.929 . S
H764 C797 0.931 . S
H765 C799 0.930 . S
H766 C800 0.932 . S
H767 C802 0.931 . S
H768 C803 0.929 . S
H769 C805 0.929 . S
H770 C806 0.931 . S
H771 C808 0.929 . S
N772 C792 1.433 . S
N772 C798 1.435 . S
N772 C804 1.423 . S
H773 C809 0.932 . S
C774 N749 1.433 . S
C774 C775 1.363 . S
C774 C779 1.370 . S
C775 H748 0.929 . S
C775 C774 1.363 . S
C775 C776 1.385 . S
C776 H750 0.930 . S
C776 C775 1.385 . S
C776 C777 1.357 . S
C777 C776 1.357 . S
C777 C778 1.406 . S
C778 H752 0.929 . S
C778 C777 1.406 . S
C778 C779 1.391 . S
C779 H751 0.931 . S
C779 C774 1.370 . S
C779 C778 1.391 . S
C780 N749 1.435 . S
C780 C781 1.358 . S
C780 C785 1.371 . S
C781 H753 0.930 . S
C781 C780 1.358 . S
C781 C782 1.405 . S
C782 H754 0.932 . S
C782 C781 1.405 . S
C782 C783 1.383 . S
C783 C782 1.383 . S
C783 C784 1.393 . S
C784 H756 0.931 . S
C784 C783 1.393 . S
C784 C785 1.382 . S
C785 H755 0.929 . S
C785 C780 1.371 . S
C785 C784 1.382 . S
C786 N749 1.423 . S
C786 C787 1.362 . S
C786 C791 1.388 . S
C787 H757 0.929 . S
C787 C786 1.362 . S
C787 C788 1.376 . S
C788 H759 0.931 . S
C788 C787 1.376 . S
C788 C789 1.396 . S
C789 C788 1.396 . S
C789 C790 1.348 . S
C789 C807 1.472 . S
C790 H760 0.929 . S
C790 C789 1.348 . S
C790 C791 1.443 . S
C791 H758 0.932 . S
C791 C786 1.388 . S
C791 C790 1.443 . S
C792 N772 1.433 . S
C792 C793 1.363 . S
C792 C797 1.370 . S
C793 H761 0.929 . S
C793 C792 1.363 . S
C793 C794 1.385 . S
C794 H762 0.930 . S
C794 C793 1.385 . S
C794 C795 1.357 . S
C795 C794 1.357 . S
C795 C796 1.406 . S
C796 H763 0.929 . S
C796 C795 1.406 . S
C796 C797 1.391 . S
C797 H764 0.931 . S
C797 C792 1.370 . S
C797 C796 1.391 . S
C798 N772 1.435 . S
C798 C799 1.358 . S
C798 C803 1.371 . S
C799 H765 0.930 . S
C799 C798 1.358 . S
C799 C800 1.405 . S
C800 H766 0.932 . S
C800 C799 1.405 . S
C800 C801 1.383 . S
C801 C800 1.383 . S
C801 C802 1.393 . S
C802 H767 0.931 . S
C802 C801 1.393 . S
C802 C803 1.382 . S
C803 H768 0.929 . S
C803 C798 1.371 . S
C803 C802 1.382 . S
C804 N772 1.423 . S
C804 C805 1.362 . S
C804 C809 1.388 . S
C805 H769 0.929 . S
C805 C804 1.362 . S
C805 C806 1.376 . S
C806 H770 0.931 . S
C806 C805 1.376 . S
C806 C807 1.396 . S
C807 C789 1.472 . S
C807 C806 1.396 . S
C807 C808 1.348 . S
C808 H771 0.929 . S
C808 C807 1.348 . S
C808 C809 1.443 . S
C809 H773 0.932 . S
C809 C804 1.388 . S
C809 C808 1.443 . S
H810 C837 0.929 . S
N811 C836 1.433 . S
N811 C842 1.435 . S
N811 C848 1.423 . S
H812 C838 0.930 . S
H813 C841 0.931 . S
H814 C840 0.929 . S
H815 C843 0.930 . S
H816 C844 0.932 . S
H817 C847 0.929 . S
H818 C846 0.931 . S
H819 C849 0.929 . S
H820 C853 0.932 1_655 S
H821 C850 0.931 . S
H822 C852 0.937 . S
H823 C855 0.929 . S
H824 C856 0.930 . S
H825 C858 0.929 . S
H826 C859 0.931 . S
H827 C861 0.930 . S
H828 C862 0.932 . S
H829 C864 0.931 . S
H830 C865 0.929 . S
H831 C867 0.929 . S
H832 C868 0.931 . S
H833 C870 0.979 . S
N834 C854 1.433 . S
N834 C860 1.435 . S
N834 C866 1.423 . S
H835 C871 0.932 1_655 S
C836 N811 1.433 . S
C836 C837 1.363 . S
C836 C841 1.370 1_455 S
C837 H810 0.929 . S
C837 C836 1.363 . S
C837 C838 1.385 . S
C838 H812 0.930 . S
C838 C837 1.385 . S
C838 C839 1.357 1_455 S
C839 C838 1.357 1_655 S
C839 C840 1.406 . S
C840 H814 0.929 . S
C840 C839 1.406 . S
C840 C841 1.391 . S
C841 H813 0.931 . S
C841 C836 1.370 1_655 S
C841 C840 1.391 . S
C842 N811 1.435 . S
C842 C843 1.358 1_455 S
C842 C847 1.371 . S
C843 H815 0.930 . S
C843 C842 1.358 1_655 S
C843 C844 1.405 . S
C844 H816 0.932 . S
C844 C843 1.405 . S
C844 C845 1.383 1_655 S
C845 C844 1.383 1_455 S
C845 C846 1.393 . S
C846 H818 0.931 . S
C846 C845 1.393 . S
C846 C847 1.382 . S
C847 H817 0.929 . S
C847 C842 1.371 . S
C847 C846 1.382 . S
C848 N811 1.423 . S
C848 C849 1.362 . S
C848 C853 1.388 . S
C849 H819 0.929 . S
C849 C848 1.362 . S
C849 C850 1.376 . S
C850 H821 0.931 . S
C850 C849 1.376 . S
C850 C851 1.396 . S
C851 C850 1.396 . S
C851 C852 1.348 . S
C851 C869 1.472 . S
C852 H822 0.937 . S
C852 C851 1.348 . S
C852 C853 1.443 . S
C853 H820 0.932 1_455 S
C853 C848 1.388 . S
C853 C852 1.443 . S
C854 N834 1.433 . S
C854 C855 1.363 . S
C854 C859 1.370 1_455 S
C855 H823 0.929 . S
C855 C854 1.363 . S
C855 C856 1.385 . S
C856 H824 0.930 . S
C856 C855 1.385 . S
C856 C857 1.357 1_455 S
C857 C856 1.357 1_655 S
C857 C858 1.406 . S
C858 H825 0.929 . S
C858 C857 1.406 . S
C858 C859 1.391 . S
C859 H826 0.931 . S
C859 C854 1.370 1_655 S
C859 C858 1.391 . S
C860 N834 1.435 . S
C860 C861 1.358 1_455 S
C860 C865 1.371 . S
C861 H827 0.930 . S
C861 C860 1.358 1_655 S
C861 C862 1.405 . S
C862 H828 0.932 . S
C862 C861 1.405 . S
C862 C863 1.383 1_655 S
C863 C862 1.383 1_455 S
C863 C864 1.393 . S
C864 H829 0.931 . S
C864 C863 1.393 . S
C864 C865 1.382 . S
C865 H830 0.929 . S
C865 C860 1.371 . S
C865 C864 1.382 . S
C866 N834 1.423 . S
C866 C867 1.362 . S
C866 C871 1.388 . S
C867 H831 0.929 . S
C867 C866 1.362 . S
C867 C868 1.376 . S
C868 H832 0.931 . S
C868 C867 1.376 . S
C868 C869 1.396 . S
C869 C851 1.472 . S
C869 C868 1.396 . S
C869 C870 1.348 . S
C870 H833 0.979 . S
C870 C869 1.348 . S
C870 C871 1.443 . S
C871 H835 0.932 1_455 S
C871 C866 1.388 . S
C871 C870 1.443 . S
H872 C899 0.929 . S
N873 C898 1.433 . S
N873 C904 1.435 . S
N873 C910 1.423 . S
H874 C900 0.930 . S
H875 C903 0.931 . S
H876 C902 0.929 . S
H877 C905 0.930 . S
H878 C906 0.932 . S
H879 C909 0.929 . S
H880 C908 0.931 . S
H881 C911 0.929 . S
H882 C915 0.932 . S
H883 C912 0.931 . S
H884 C914 0.929 . S
H885 C917 0.929 . S
H886 C918 0.930 . S
H887 C920 0.929 . S
H888 C921 0.931 . S
H889 C923 0.930 . S
H890 C924 0.932 . S
H891 C926 0.931 . S
H892 C927 0.929 . S
H893 C929 0.929 . S
H894 C930 0.931 . S
H895 C932 0.929 . S
N896 C916 1.433 . S
N896 C922 1.435 . S
N896 C928 1.423 . S
H897 C933 0.932 . S
C898 N873 1.433 . S
C898 C899 1.363 . S
C898 C903 1.370 . S
C899 H872 0.929 . S
C899 C898 1.363 . S
C899 C900 1.385 . S
C900 H874 0.930 . S
C900 C899 1.385 . S
C900 C901 1.357 . S
C901 C900 1.357 . S
C901 C902 1.406 . S
C902 H876 0.929 . S
C902 C901 1.406 . S
C902 C903 1.391 . S
C903 H875 0.931 . S
C903 C898 1.370 . S
C903 C902 1.391 . S
C904 N873 1.435 . S
C904 C905 1.358 . S
C904 C909 1.371 . S
C905 H877 0.930 . S
C905 C904 1.358 . S
C905 C906 1.405 . S
C906 H878 0.932 . S
C906 C905 1.405 . S
C906 C907 1.383 . S
C907 C906 1.383 . S
C907 C908 1.393 . S
C908 H880 0.931 . S
C908 C907 1.393 . S
C908 C909 1.382 . S
C909 H879 0.929 . S
C909 C904 1.371 . S
C909 C908 1.382 . S
C910 N873 1.423 . S
C910 C911 1.362 . S
C910 C915 1.388 . S
C911 H881 0.929 . S
C911 C910 1.362 . S
C911 C912 1.376 . S
C912 H883 0.931 . S
C912 C911 1.376 . S
C912 C913 1.396 . S
C913 C912 1.396 . S
C913 C914 1.348 . S
C913 C931 1.472 . S
C914 H884 0.929 . S
C914 C913 1.348 . S
C914 C915 1.443 . S
C915 H882 0.932 . S
C915 C910 1.388 . S
C915 C914 1.443 . S
C916 N896 1.433 . S
C916 C917 1.363 . S
C916 C921 1.370 . S
C917 H885 0.929 . S
C917 C916 1.363 . S
C917 C918 1.385 . S
C918 H886 0.930 . S
C918 C917 1.385 . S
C918 C919 1.357 . S
C919 C918 1.357 . S
C919 C920 1.406 . S
C920 H887 0.929 . S
C920 C919 1.406 . S
C920 C921 1.391 . S
C921 H888 0.931 . S
C921 C916 1.370 . S
C921 C920 1.391 . S
C922 N896 1.435 . S
C922 C923 1.358 . S
C922 C927 1.371 . S
C923 H889 0.930 . S
C923 C922 1.358 . S
C923 C924 1.405 . S
C924 H890 0.932 . S
C924 C923 1.405 . S
C924 C925 1.383 . S
C925 C924 1.383 . S
C925 C926 1.393 . S
C926 H891 0.931 . S
C926 C925 1.393 . S
C926 C927 1.382 . S
C927 H892 0.929 . S
C927 C922 1.371 . S
C927 C926 1.382 . S
C928 N896 1.423 . S
C928 C929 1.362 . S
C928 C933 1.388 . S
C929 H893 0.929 . S
C929 C928 1.362 . S
C929 C930 1.376 . S
C930 H894 0.931 . S
C930 C929 1.376 . S
C930 C931 1.396 . S
C931 C913 1.472 . S
C931 C930 1.396 . S
C931 C932 1.348 . S
C932 H895 0.929 . S
C932 C931 1.348 . S
C932 C933 1.443 . S
C933 H897 0.932 . S
C933 C928 1.388 . S
C933 C932 1.443 . S
H934 C961 0.929 . S
N935 C960 1.433 . S
N935 C966 1.435 . S
N935 C972 1.423 . S
H936 C962 0.930 . S
H937 C965 0.931 . S
H938 C964 0.929 . S
H939 C967 0.930 . S
H940 C968 0.932 . S
H941 C971 0.929 . S
H942 C970 0.931 . S
H943 C973 0.929 . S
H944 C977 0.932 1_545 S
H945 C974 0.931 . S
H946 C976 0.983 . S
H947 C979 0.929 . S
H948 C980 0.930 . S
H949 C982 0.929 . S
H950 C983 0.931 . S
H951 C985 0.930 . S
H952 C986 0.932 . S
H953 C988 0.931 . S
H954 C989 0.929 . S
H955 C991 0.929 . S
H956 C992 0.931 . S
H957 C994 0.937 . S
N958 C978 1.433 . S
N958 C984 1.435 . S
N958 C990 1.423 . S
H959 C995 0.932 1_545 S
C960 N935 1.433 . S
C960 C961 1.363 . S
C960 C965 1.370 1_565 S
C961 H934 0.929 . S
C961 C960 1.363 . S
C961 C962 1.385 . S
C962 H936 0.930 . S
C962 C961 1.385 . S
C962 C963 1.357 1_565 S
C963 C962 1.357 1_545 S
C963 C964 1.406 . S
C964 H938 0.929 . S
C964 C963 1.406 . S
C964 C965 1.391 . S
C965 H937 0.931 . S
C965 C960 1.370 1_545 S
C965 C964 1.391 . S
C966 N935 1.435 . S
C966 C967 1.358 1_565 S
C966 C971 1.371 . S
C967 H939 0.930 . S
C967 C966 1.358 1_545 S
C967 C968 1.405 . S
C968 H940 0.932 . S
C968 C967 1.405 . S
C968 C969 1.383 1_545 S
C969 C968 1.383 1_565 S
C969 C970 1.393 . S
C970 H942 0.931 . S
C970 C969 1.393 . S
C970 C971 1.382 . S
C971 H941 0.929 . S
C971 C966 1.371 . S
C971 C970 1.382 . S
C972 N935 1.423 . S
C972 C973 1.362 . S
C972 C977 1.388 . S
C973 H943 0.929 . S
C973 C972 1.362 . S
C973 C974 1.376 . S
C974 H945 0.931 . S
C974 C973 1.376 . S
C974 C975 1.396 . S
C975 C974 1.396 . S
C975 C976 1.348 . S
C975 C993 1.472 . S
C976 H946 0.983 . S
C976 C975 1.348 . S
C976 C977 1.443 . S
C977 H944 0.932 1_565 S
C977 C972 1.388 . S
C977 C976 1.443 . S
C978 N958 1.433 . S
C978 C979 1.363 . S
C978 C983 1.370 1_565 S
C979 H947 0.929 . S
C979 C978 1.363 . S
C979 C980 1.385 . S
C980 H948 0.930 . S
C980 C979 1.385 . S
C980 C981 1.357 1_565 S
C981 C980 1.357 1_545 S
C981 C982 1.406 . S
C982 H949 0.929 . S
C982 C981 1.406 . S
C982 C983 1.391 . S
C983 H950 0.931 . S
C983 C978 1.370 1_545 S
C983 C982 1.391 . S
C984 N958 1.435 . S
C984 C985 1.358 1_565 S
C984 C989 1.371 . S
C985 H951 0.930 . S
C985 C984 1.358 1_545 S
C985 C986 1.405 . S
C986 H952 0.932 . S
C986 C985 1.405 . S
C986 C987 1.383 1_545 S
C987 C986 1.383 1_565 S
C987 C988 1.393 . S
C988 H953 0.931 . S
C988 C987 1.393 . S
C988 C989 1.382 . S
C989 H954 0.929 . S
C989 C984 1.371 . S
C989 C988 1.382 . S
C990 N958 1.423 . S
C990 C991 1.362 . S
C990 C995 1.388 . S
C991 H955 0.929 . S
C991 C990 1.362 . S
C991 C992 1.376 . S
C992 H956 0.931 . S
C992 C991 1.376 . S
C992 C993 1.396 . S
C993 C975 1.472 . S
C993 C992 1.396 . S
C993 C994 1.348 . S
C994 H957 0.937 . S
C994 C993 1.348 . S
C994 C995 1.443 . S
C995 H959 0.932 1_565 S
C995 C990 1.388 . S
C995 C994 1.443 . S
H996 C1023 0.929 . S
N997 C1022 1.433 . S
N997 C1028 1.435 . S
N997 C1034 1.423 . S
H998 C1024 0.930 . S
H999 C1027 0.931 . S
H1000 C1026 0.929 . S
H1001 C1029 0.930 . S
H1002 C1030 0.932 . S
H1003 C1033 0.929 . S
H1004 C1032 0.931 . S
H1005 C1035 0.929 . S
H1006 C1039 0.932 . S
H1007 C1036 0.931 . S
H1008 C1038 0.918 1_545 S
H1009 C1041 0.929 . S
H1010 C1042 0.930 . S
H1011 C1044 0.929 . S
H1012 C1045 0.989 . S
H1013 C1047 0.930 . S
H1014 C1048 0.932 . S
H1015 C1050 0.931 . S
H1016 C1051 0.929 . S
H1017 C1053 0.929 . S
H1018 C1054 0.931 . S
H1019 C1056 0.876 1_545 S
N1020 C1040 1.433 . S
N1020 C1046 1.435 . S
N1020 C1052 1.423 . S
H1021 C1057 0.957 . S
C1022 N997 1.433 . S
C1022 C1023 1.363 . S
C1022 C1027 1.370 1_565 S
C1023 H996 0.929 . S
C1023 C1022 1.363 . S
C1023 C1024 1.385 . S
C1024 H998 0.930 . S
C1024 C1023 1.385 . S
C1024 C1025 1.357 . S
C1025 C1024 1.357 . S
C1025 C1026 1.406 1_565 S
C1026 H1000 0.929 . S
C1026 C1025 1.406 1_545 S
C1026 C1027 1.391 . S
C1027 H999 0.931 . S
C1027 C1022 1.370 1_545 S
C1027 C1026 1.391 . S
C1028 N997 1.435 . S
C1028 C1029 1.358 1_565 S
C1028 C1033 1.371 . S
C1029 H1001 0.930 . S
C1029 C1028 1.358 1_545 S
C1029 C1030 1.405 . S
C1030 H1002 0.932 . S
C1030 C1029 1.405 . S
C1030 C1031 1.383 . S
C1031 C1030 1.383 . S
C1031 C1032 1.393 1_545 S
C1032 H1004 0.931 . S
C1032 C1031 1.393 1_565 S
C1032 C1033 1.382 . S
C1033 H1003 0.929 . S
C1033 C1028 1.371 . S
C1033 C1032 1.382 . S
C1034 N997 1.423 . S
C1034 C1035 1.362 . S
C1034 C1039 1.388 1_565 S
C1035 H1005 0.929 . S
C1035 C1034 1.362 . S
C1035 C1036 1.376 . S
C1036 H1007 0.931 . S
C1036 C1035 1.376 . S
C1036 C1037 1.396 . S
C1037 C1036 1.396 . S
C1037 C1038 1.398 . S
C1037 C1055 1.472 . S
C1038 H1008 0.918 1_565 S
C1038 C1037 1.398 . S
C1038 C1039 1.407 1_565 S
C1039 H1006 0.932 . S
C1039 C1034 1.388 1_545 S
C1039 C1038 1.407 1_545 S
C1040 N1020 1.433 . S
C1040 C1041 1.363 . S
C1040 C1045 1.326 1_565 S
C1041 H1009 0.929 . S
C1041 C1040 1.363 . S
C1041 C1042 1.385 . S
C1042 H1010 0.930 . S
C1042 C1041 1.385 . S
C1042 C1043 1.357 . S
C1043 C1042 1.357 . S
C1043 C1044 1.406 1_565 S
C1044 H1011 0.929 . S
C1044 C1043 1.406 1_545 S
C1044 C1045 1.381 . S
C1045 H1012 0.989 . S
C1045 C1040 1.326 1_545 S
C1045 C1044 1.381 . S
C1046 N1020 1.435 . S
C1046 C1047 1.358 1_565 S
C1046 C1051 1.371 . S
C1047 H1013 0.930 . S
C1047 C1046 1.358 1_545 S
C1047 C1048 1.405 . S
C1048 H1014 0.932 . S
C1048 C1047 1.405 . S
C1048 C1049 1.383 . S
C1049 C1048 1.383 . S
C1049 C1050 1.393 1_545 S
C1050 H1015 0.931 . S
C1050 C1049 1.393 1_565 S
C1050 C1051 1.382 . S
C1051 H1016 0.929 . S
C1051 C1046 1.371 . S
C1051 C1050 1.382 . S
C1052 N1020 1.423 . S
C1052 C1053 1.362 . S
C1052 C1057 1.337 1_565 S
C1053 H1017 0.929 . S
C1053 C1052 1.362 . S
C1053 C1054 1.376 . S
C1054 H1018 0.931 . S
C1054 C1053 1.376 . S
C1054 C1055 1.396 . S
C1055 C1037 1.472 . S
C1055 C1054 1.396 . S
C1055 C1056 1.370 . S
C1056 H1019 0.876 1_565 S
C1056 C1055 1.370 . S
C1056 C1057 1.510 1_565 S
C1057 H1021 0.957 . S
C1057 C1052 1.337 1_545 S
C1057 C1056 1.510 1_545 S
H1058 C1085 0.929 . S
N1059 C1084 1.433 . S
N1059 C1090 1.435 . S
N1059 C1096 1.423 . S
H1060 C1086 0.930 . S
H1061 C1089 0.931 . S
H1062 C1088 0.929 . S
H1063 C1091 0.930 . S
H1064 C1092 0.932 . S
H1065 C1095 0.929 . S
H1066 C1094 0.931 . S
H1067 C1097 0.929 . S
H1068 C1101 0.932 1_455 S
H1069 C1098 0.931 . S
H1070 C1100 0.984 . S
H1071 C1103 0.929 . S
H1072 C1104 0.930 . S
H1073 C1106 0.929 . S
H1074 C1107 0.931 . S
H1075 C1109 0.930 . S
H1076 C1110 0.932 . S
H1077 C1112 0.931 . S
H1078 C1113 0.929 . S
H1079 C1115 0.929 . S
H1080 C1116 0.931 . S
H1081 C1118 0.938 . S
N1082 C1102 1.433 . S
N1082 C1108 1.435 . S
N1082 C1114 1.423 . S
H1083 C1119 0.932 1_455 S
C1084 N1059 1.433 . S
C1084 C1085 1.363 . S
C1084 C1089 1.370 1_655 S
C1085 H1058 0.929 . S
C1085 C1084 1.363 . S
C1085 C1086 1.385 . S
C1086 H1060 0.930 . S
C1086 C1085 1.385 . S
C1086 C1087 1.357 1_655 S
C1087 C1086 1.357 1_455 S
C1087 C1088 1.406 . S
C1088 H1062 0.929 . S
C1088 C1087 1.406 . S
C1088 C1089 1.391 . S
C1089 H1061 0.931 . S
C1089 C1084 1.370 1_455 S
C1089 C1088 1.391 . S
C1090 N1059 1.435 . S
C1090 C1091 1.358 1_655 S
C1090 C1095 1.371 . S
C1091 H1063 0.930 . S
C1091 C1090 1.358 1_455 S
C1091 C1092 1.405 . S
C1092 H1064 0.932 . S
C1092 C1091 1.405 . S
C1092 C1093 1.383 1_455 S
C1093 C1092 1.383 1_655 S
C1093 C1094 1.393 . S
C1094 H1066 0.931 . S
C1094 C1093 1.393 . S
C1094 C1095 1.382 . S
C1095 H1065 0.929 . S
C1095 C1090 1.371 . S
C1095 C1094 1.382 . S
C1096 N1059 1.423 . S
C1096 C1097 1.362 . S
C1096 C1101 1.388 . S
C1097 H1067 0.929 . S
C1097 C1096 1.362 . S
C1097 C1098 1.376 . S
C1098 H1069 0.931 . S
C1098 C1097 1.376 . S
C1098 C1099 1.396 . S
C1099 C1098 1.396 . S
C1099 C1100 1.348 . S
C1099 C1117 1.472 . S
C1100 H1070 0.984 . S
C1100 C1099 1.348 . S
C1100 C1101 1.443 . S
C1101 H1068 0.932 1_655 S
C1101 C1096 1.388 . S
C1101 C1100 1.443 . S
C1102 N1082 1.433 . S
C1102 C1103 1.363 . S
C1102 C1107 1.370 1_655 S
C1103 H1071 0.929 . S
C1103 C1102 1.363 . S
C1103 C1104 1.385 . S
C1104 H1072 0.930 . S
C1104 C1103 1.385 . S
C1104 C1105 1.357 1_655 S
C1105 C1104 1.357 1_455 S
C1105 C1106 1.406 . S
C1106 H1073 0.929 . S
C1106 C1105 1.406 . S
C1106 C1107 1.391 . S
C1107 H1074 0.931 . S
C1107 C1102 1.370 1_455 S
C1107 C1106 1.391 . S
C1108 N1082 1.435 . S
C1108 C1109 1.358 1_655 S
C1108 C1113 1.371 . S
C1109 H1075 0.930 . S
C1109 C1108 1.358 1_455 S
C1109 C1110 1.405 . S
C1110 H1076 0.932 . S
C1110 C1109 1.405 . S
C1110 C1111 1.383 1_455 S
C1111 C1110 1.383 1_655 S
C1111 C1112 1.393 . S
C1112 H1077 0.931 . S
C1112 C1111 1.393 . S
C1112 C1113 1.382 . S
C1113 H1078 0.929 . S
C1113 C1108 1.371 . S
C1113 C1112 1.382 . S
C1114 N1082 1.423 . S
C1114 C1115 1.362 . S
C1114 C1119 1.388 . S
C1115 H1079 0.929 . S
C1115 C1114 1.362 . S
C1115 C1116 1.376 . S
C1116 H1080 0.931 . S
C1116 C1115 1.376 . S
C1116 C1117 1.396 . S
C1117 C1099 1.472 . S
C1117 C1116 1.396 . S
C1117 C1118 1.348 . S
C1118 H1081 0.938 . S
C1118 C1117 1.348 . S
C1118 C1119 1.443 . S
C1119 H1083 0.932 1_655 S
C1119 C1114 1.388 . S
C1119 C1118 1.443 . S
H1120 C1147 0.929 . S
N1121 C1146 1.433 . S
N1121 C1152 1.435 . S
N1121 C1158 1.423 . S
H1122 C1148 0.930 . S
H1123 C1151 0.931 . S
H1124 C1150 0.929 . S
H1125 C1153 0.930 . S
H1126 C1154 0.932 . S
H1127 C1157 0.929 . S
H1128 C1156 0.931 . S
H1129 C1159 0.929 . S
H1130 C1163 0.932 . S
H1131 C1160 0.931 . S
H1132 C1162 0.929 . S
H1133 C1165 0.929 . S
H1134 C1166 0.930 . S
H1135 C1168 0.929 . S
H1136 C1169 0.931 . S
H1137 C1171 0.930 . S
H1138 C1172 0.932 . S
H1139 C1174 0.931 . S
H1140 C1175 0.929 . S
H1141 C1177 0.929 . S
H1142 C1178 0.931 . S
H1143 C1180 0.929 . S
N1144 C1164 1.433 . S
N1144 C1170 1.435 . S
N1144 C1176 1.423 . S
H1145 C1181 0.932 . S
C1146 N1121 1.433 . S
C1146 C1147 1.363 . S
C1146 C1151 1.370 . S
C1147 H1120 0.929 . S
C1147 C1146 1.363 . S
C1147 C1148 1.385 . S
C1148 H1122 0.930 . S
C1148 C1147 1.385 . S
C1148 C1149 1.357 . S
C1149 C1148 1.357 . S
C1149 C1150 1.406 . S
C1150 H1124 0.929 . S
C1150 C1149 1.406 . S
C1150 C1151 1.391 . S
C1151 H1123 0.931 . S
C1151 C1146 1.370 . S
C1151 C1150 1.391 . S
C1152 N1121 1.435 . S
C1152 C1153 1.358 . S
C1152 C1157 1.371 . S
C1153 H1125 0.930 . S
C1153 C1152 1.358 . S
C1153 C1154 1.405 . S
C1154 H1126 0.932 . S
C1154 C1153 1.405 . S
C1154 C1155 1.383 . S
C1155 C1154 1.383 . S
C1155 C1156 1.393 . S
C1156 H1128 0.931 . S
C1156 C1155 1.393 . S
C1156 C1157 1.382 . S
C1157 H1127 0.929 . S
C1157 C1152 1.371 . S
C1157 C1156 1.382 . S
C1158 N1121 1.423 . S
C1158 C1159 1.362 . S
C1158 C1163 1.388 . S
C1159 H1129 0.929 . S
C1159 C1158 1.362 . S
C1159 C1160 1.376 . S
C1160 H1131 0.931 . S
C1160 C1159 1.376 . S
C1160 C1161 1.396 . S
C1161 C1160 1.396 . S
C1161 C1162 1.348 . S
C1161 C1179 1.472 . S
C1162 H1132 0.929 . S
C1162 C1161 1.348 . S
C1162 C1163 1.443 . S
C1163 H1130 0.932 . S
C1163 C1158 1.388 . S
C1163 C1162 1.443 . S
C1164 N1144 1.433 . S
C1164 C1165 1.363 . S
C1164 C1169 1.370 . S
C1165 H1133 0.929 . S
C1165 C1164 1.363 . S
C1165 C1166 1.385 . S
C1166 H1134 0.930 . S
C1166 C1165 1.385 . S
C1166 C1167 1.357 . S
C1167 C1166 1.357 . S
C1167 C1168 1.406 . S
C1168 H1135 0.929 . S
C1168 C1167 1.406 . S
C1168 C1169 1.391 . S
C1169 H1136 0.931 . S
C1169 C1164 1.370 . S
C1169 C1168 1.391 . S
C1170 N1144 1.435 . S
C1170 C1171 1.358 . S
C1170 C1175 1.371 . S
C1171 H1137 0.930 . S
C1171 C1170 1.358 . S
C1171 C1172 1.405 . S
C1172 H1138 0.932 . S
C1172 C1171 1.405 . S
C1172 C1173 1.383 . S
C1173 C1172 1.383 . S
C1173 C1174 1.393 . S
C1174 H1139 0.931 . S
C1174 C1173 1.393 . S
C1174 C1175 1.382 . S
C1175 H1140 0.929 . S
C1175 C1170 1.371 . S
C1175 C1174 1.382 . S
C1176 N1144 1.423 . S
C1176 C1177 1.362 . S
C1176 C1181 1.388 . S
C1177 H1141 0.929 . S
C1177 C1176 1.362 . S
C1177 C1178 1.376 . S
C1178 H1142 0.931 . S
C1178 C1177 1.376 . S
C1178 C1179 1.396 . S
C1179 C1161 1.472 . S
C1179 C1178 1.396 . S
C1179 C1180 1.348 . S
C1180 H1143 0.929 . S
C1180 C1179 1.348 . S
C1180 C1181 1.443 . S
C1181 H1145 0.932 . S
C1181 C1176 1.388 . S
C1181 C1180 1.443 . S
H1182 C1209 0.929 . S
N1183 C1208 1.433 . S
N1183 C1214 1.435 . S
N1183 C1220 1.423 . S
H1184 C1210 0.930 . S
H1185 C1213 0.931 . S
H1186 C1212 0.929 . S
H1187 C1215 0.930 . S
H1188 C1216 0.932 . S
H1189 C1219 0.929 . S
H1190 C1218 0.931 . S
H1191 C1221 0.929 . S
H1192 C1225 0.932 . S
H1193 C1222 0.931 . S
H1194 C1224 0.929 . S
H1195 C1227 0.929 . S
H1196 C1228 0.930 . S
H1197 C1230 0.929 . S
H1198 C1231 0.931 . S
H1199 C1233 0.930 . S
H1200 C1234 0.932 . S
H1201 C1236 0.931 . S
H1202 C1237 0.929 . S
H1203 C1239 0.929 . S
H1204 C1240 0.931 . S
H1205 C1242 0.929 . S
N1206 C1226 1.433 . S
N1206 C1232 1.435 . S
N1206 C1238 1.423 . S
H1207 C1243 0.932 . S
C1208 N1183 1.433 . S
C1208 C1209 1.363 . S
C1208 C1213 1.370 . S
C1209 H1182 0.929 . S
C1209 C1208 1.363 . S
C1209 C1210 1.385 . S
C1210 H1184 0.930 . S
C1210 C1209 1.385 . S
C1210 C1211 1.357 . S
C1211 C1210 1.357 . S
C1211 C1212 1.406 . S
C1212 H1186 0.929 . S
C1212 C1211 1.406 . S
C1212 C1213 1.391 . S
C1213 H1185 0.931 . S
C1213 C1208 1.370 . S
C1213 C1212 1.391 . S
C1214 N1183 1.435 . S
C1214 C1215 1.358 . S
C1214 C1219 1.371 . S
C1215 H1187 0.930 . S
C1215 C1214 1.358 . S
C1215 C1216 1.405 . S
C1216 H1188 0.932 . S
C1216 C1215 1.405 . S
C1216 C1217 1.383 . S
C1217 C1216 1.383 . S
C1217 C1218 1.393 . S
C1218 H1190 0.931 . S
C1218 C1217 1.393 . S
C1218 C1219 1.382 . S
C1219 H1189 0.929 . S
C1219 C1214 1.371 . S
C1219 C1218 1.382 . S
C1220 N1183 1.423 . S
C1220 C1221 1.362 . S
C1220 C1225 1.388 . S
C1221 H1191 0.929 . S
C1221 C1220 1.362 . S
C1221 C1222 1.376 . S
C1222 H1193 0.931 . S
C1222 C1221 1.376 . S
C1222 C1223 1.396 . S
C1223 C1222 1.396 . S
C1223 C1224 1.348 . S
C1223 C1241 1.472 . S
C1224 H1194 0.929 . S
C1224 C1223 1.348 . S
C1224 C1225 1.443 . S
C1225 H1192 0.932 . S
C1225 C1220 1.388 . S
C1225 C1224 1.443 . S
C1226 N1206 1.433 . S
C1226 C1227 1.363 . S
C1226 C1231 1.370 . S
C1227 H1195 0.929 . S
C1227 C1226 1.363 . S
C1227 C1228 1.385 . S
C1228 H1196 0.930 . S
C1228 C1227 1.385 . S
C1228 C1229 1.357 . S
C1229 C1228 1.357 . S
C1229 C1230 1.406 . S
C1230 H1197 0.929 . S
C1230 C1229 1.406 . S
C1230 C1231 1.391 . S
C1231 H1198 0.931 . S
C1231 C1226 1.370 . S
C1231 C1230 1.391 . S
C1232 N1206 1.435 . S
C1232 C1233 1.358 . S
C1232 C1237 1.371 . S
C1233 H1199 0.930 . S
C1233 C1232 1.358 . S
C1233 C1234 1.405 . S
C1234 H1200 0.932 . S
C1234 C1233 1.405 . S
C1234 C1235 1.383 . S
C1235 C1234 1.383 . S
C1235 C1236 1.393 . S
C1236 H1201 0.931 . S
C1236 C1235 1.393 . S
C1236 C1237 1.382 . S
C1237 H1202 0.929 . S
C1237 C1232 1.371 . S
C1237 C1236 1.382 . S
C1238 N1206 1.423 . S
C1238 C1239 1.362 . S
C1238 C1243 1.388 . S
C1239 H1203 0.929 . S
C1239 C1238 1.362 . S
C1239 C1240 1.376 . S
C1240 H1204 0.931 . S
C1240 C1239 1.376 . S
C1240 C1241 1.396 . S
C1241 C1223 1.472 . S
C1241 C1240 1.396 . S
C1241 C1242 1.348 . S
C1242 H1205 0.929 . S
C1242 C1241 1.348 . S
C1242 C1243 1.443 . S
C1243 H1207 0.932 . S
C1243 C1238 1.388 . S
C1243 C1242 1.443 . S
H1244 C1271 0.929 . S
N1245 C1270 1.433 . S
N1245 C1276 1.435 . S
N1245 C1282 1.423 . S
H1246 C1272 0.930 . S
H1247 C1275 0.931 . S
H1248 C1274 0.929 . S
H1249 C1277 0.930 . S
H1250 C1278 0.932 . S
H1251 C1281 0.929 . S
H1252 C1280 0.931 . S
H1253 C1283 0.929 . S
H1254 C1287 0.932 . S
H1255 C1284 0.931 . S
H1256 C1286 0.929 . S
H1257 C1289 0.929 . S
H1258 C1290 0.930 . S
H1259 C1292 0.929 . S
H1260 C1293 0.931 . S
H1261 C1295 0.930 . S
H1262 C1296 0.932 . S
H1263 C1298 0.931 . S
H1264 C1299 0.929 . S
H1265 C1301 0.929 . S
H1266 C1302 0.931 . S
H1267 C1304 0.929 . S
N1268 C1288 1.433 . S
N1268 C1294 1.435 . S
N1268 C1300 1.423 . S
H1269 C1305 0.932 . S
C1270 N1245 1.433 . S
C1270 C1271 1.363 . S
C1270 C1275 1.370 . S
C1271 H1244 0.929 . S
C1271 C1270 1.363 . S
C1271 C1272 1.385 . S
C1272 H1246 0.930 . S
C1272 C1271 1.385 . S
C1272 C1273 1.357 . S
C1273 C1272 1.357 . S
C1273 C1274 1.406 . S
C1274 H1248 0.929 . S
C1274 C1273 1.406 . S
C1274 C1275 1.391 . S
C1275 H1247 0.931 . S
C1275 C1270 1.370 . S
C1275 C1274 1.391 . S
C1276 N1245 1.435 . S
C1276 C1277 1.358 . S
C1276 C1281 1.371 . S
C1277 H1249 0.930 . S
C1277 C1276 1.358 . S
C1277 C1278 1.405 . S
C1278 H1250 0.932 . S
C1278 C1277 1.405 . S
C1278 C1279 1.383 . S
C1279 C1278 1.383 . S
C1279 C1280 1.393 . S
C1280 H1252 0.931 . S
C1280 C1279 1.393 . S
C1280 C1281 1.382 . S
C1281 H1251 0.929 . S
C1281 C1276 1.371 . S
C1281 C1280 1.382 . S
C1282 N1245 1.423 . S
C1282 C1283 1.362 . S
C1282 C1287 1.388 . S
C1283 H1253 0.929 . S
C1283 C1282 1.362 . S
C1283 C1284 1.376 . S
C1284 H1255 0.931 . S
C1284 C1283 1.376 . S
C1284 C1285 1.396 . S
C1285 C1284 1.396 . S
C1285 C1286 1.348 . S
C1285 C1303 1.472 . S
C1286 H1256 0.929 . S
C1286 C1285 1.348 . S
C1286 C1287 1.443 . S
C1287 H1254 0.932 . S
C1287 C1282 1.388 . S
C1287 C1286 1.443 . S
C1288 N1268 1.433 . S
C1288 C1289 1.363 . S
C1288 C1293 1.370 . S
C1289 H1257 0.929 . S
C1289 C1288 1.363 . S
C1289 C1290 1.385 . S
C1290 H1258 0.930 . S
C1290 C1289 1.385 . S
C1290 C1291 1.357 . S
C1291 C1290 1.357 . S
C1291 C1292 1.406 . S
C1292 H1259 0.929 . S
C1292 C1291 1.406 . S
C1292 C1293 1.391 . S
C1293 H1260 0.931 . S
C1293 C1288 1.370 . S
C1293 C1292 1.391 . S
C1294 N1268 1.435 . S
C1294 C1295 1.358 . S
C1294 C1299 1.371 . S
C1295 H1261 0.930 . S
C1295 C1294 1.358 . S
C1295 C1296 1.405 . S
C1296 H1262 0.932 . S
C1296 C1295 1.405 . S
C1296 C1297 1.383 . S
C1297 C1296 1.383 . S
C1297 C1298 1.393 . S
C1298 H1263 0.931 . S
C1298 C1297 1.393 . S
C1298 C1299 1.382 . S
C1299 H1264 0.929 . S
C1299 C1294 1.371 . S
C1299 C1298 1.382 . S
C1300 N1268 1.423 . S
C1300 C1301 1.362 . S
C1300 C1305 1.388 . S
C1301 H1265 0.929 . S
C1301 C1300 1.362 . S
C1301 C1302 1.376 . S
C1302 H1266 0.931 . S
C1302 C1301 1.376 . S
C1302 C1303 1.396 . S
C1303 C1285 1.472 . S
C1303 C1302 1.396 . S
C1303 C1304 1.348 . S
C1304 H1267 0.929 . S
C1304 C1303 1.348 . S
C1304 C1305 1.443 . S
C1305 H1269 0.932 . S
C1305 C1300 1.388 . S
C1305 C1304 1.443 . S
H1306 C1333 0.929 . S
N1307 C1332 1.433 . S
N1307 C1338 1.435 . S
N1307 C1344 1.423 . S
H1308 C1334 0.930 . S
H1309 C1337 0.931 . S
H1310 C1336 0.929 . S
H1311 C1339 0.930 . S
H1312 C1340 0.932 . S
H1313 C1343 0.929 . S
H1314 C1342 0.931 . S
H1315 C1345 0.929 . S
H1316 C1349 0.932 . S
H1317 C1346 0.931 . S
H1318 C1348 0.929 . S
H1319 C1351 0.929 . S
H1320 C1352 0.930 . S
H1321 C1354 0.929 . S
H1322 C1355 0.931 . S
H1323 C1357 0.930 . S
H1324 C1358 0.932 . S
H1325 C1360 0.931 . S
H1326 C1361 0.929 . S
H1327 C1363 0.929 . S
H1328 C1364 0.931 . S
H1329 C1366 0.929 . S
N1330 C1350 1.433 . S
N1330 C1356 1.435 . S
N1330 C1362 1.423 . S
H1331 C1367 0.932 . S
C1332 N1307 1.433 . S
C1332 C1333 1.363 . S
C1332 C1337 1.370 . S
C1333 H1306 0.929 . S
C1333 C1332 1.363 . S
C1333 C1334 1.385 . S
C1334 H1308 0.930 . S
C1334 C1333 1.385 . S
C1334 C1335 1.357 . S
C1335 C1334 1.357 . S
C1335 C1336 1.406 . S
C1336 H1310 0.929 . S
C1336 C1335 1.406 . S
C1336 C1337 1.391 . S
C1337 H1309 0.931 . S
C1337 C1332 1.370 . S
C1337 C1336 1.391 . S
C1338 N1307 1.435 . S
C1338 C1339 1.358 . S
C1338 C1343 1.371 . S
C1339 H1311 0.930 . S
C1339 C1338 1.358 . S
C1339 C1340 1.405 . S
C1340 H1312 0.932 . S
C1340 C1339 1.405 . S
C1340 C1341 1.383 . S
C1341 C1340 1.383 . S
C1341 C1342 1.393 . S
C1342 H1314 0.931 . S
C1342 C1341 1.393 . S
C1342 C1343 1.382 . S
C1343 H1313 0.929 . S
C1343 C1338 1.371 . S
C1343 C1342 1.382 . S
C1344 N1307 1.423 . S
C1344 C1345 1.362 . S
C1344 C1349 1.388 . S
C1345 H1315 0.929 . S
C1345 C1344 1.362 . S
C1345 C1346 1.376 . S
C1346 H1317 0.931 . S
C1346 C1345 1.376 . S
C1346 C1347 1.396 . S
C1347 C1346 1.396 . S
C1347 C1348 1.348 . S
C1347 C1365 1.472 . S
C1348 H1318 0.929 . S
C1348 C1347 1.348 . S
C1348 C1349 1.443 . S
C1349 H1316 0.932 . S
C1349 C1344 1.388 . S
C1349 C1348 1.443 . S
C1350 N1330 1.433 . S
C1350 C1351 1.363 . S
C1350 C1355 1.370 . S
C1351 H1319 0.929 . S
C1351 C1350 1.363 . S
C1351 C1352 1.385 . S
C1352 H1320 0.930 . S
C1352 C1351 1.385 . S
C1352 C1353 1.357 . S
C1353 C1352 1.357 . S
C1353 C1354 1.406 . S
C1354 H1321 0.929 . S
C1354 C1353 1.406 . S
C1354 C1355 1.391 . S
C1355 H1322 0.931 . S
C1355 C1350 1.370 . S
C1355 C1354 1.391 . S
C1356 N1330 1.435 . S
C1356 C1357 1.358 . S
C1356 C1361 1.371 . S
C1357 H1323 0.930 . S
C1357 C1356 1.358 . S
C1357 C1358 1.405 . S
C1358 H1324 0.932 . S
C1358 C1357 1.405 . S
C1358 C1359 1.383 . S
C1359 C1358 1.383 . S
C1359 C1360 1.393 . S
C1360 H1325 0.931 . S
C1360 C1359 1.393 . S
C1360 C1361 1.382 . S
C1361 H1326 0.929 . S
C1361 C1356 1.371 . S
C1361 C1360 1.382 . S
C1362 N1330 1.423 . S
C1362 C1363 1.362 . S
C1362 C1367 1.388 . S
C1363 H1327 0.929 . S
C1363 C1362 1.362 . S
C1363 C1364 1.376 . S
C1364 H1328 0.931 . S
C1364 C1363 1.376 . S
C1364 C1365 1.396 . S
C1365 C1347 1.472 . S
C1365 C1364 1.396 . S
C1365 C1366 1.348 . S
C1366 H1329 0.929 . S
C1366 C1365 1.348 . S
C1366 C1367 1.443 . S
C1367 H1331 0.932 . S
C1367 C1362 1.388 . S
C1367 C1366 1.443 . S
H1368 C1380 0.930 . S
H1369 C1382 0.930 . S
H1370 C1383 0.930 . S
H1371 C1387 0.959 . S
H1372 C1387 0.959 . S
H1373 C1387 0.961 . S
H1374 C1388 0.960 . S
H1375 C1388 0.961 . S
H1376 C1388 0.959 . S
H1377 C1391 0.929 . S
H1378 C1392 0.931 . S
H1379 C1394 0.930 . S
C1380 H1368 0.930 . S
C1380 C1381 1.399 1_455 S
C1380 C1385 1.399 . S
C1381 C1380 1.399 1_655 S
C1381 C1382 1.376 . S
C1382 H1369 0.930 . S
C1382 C1381 1.376 . S
C1382 C1383 1.388 . S
C1383 H1370 0.930 . S
C1383 C1382 1.388 . S
C1383 C1384 1.390 . S
C1384 C1383 1.390 . S
C1384 C1385 1.394 1_655 S
C1384 C1390 1.465 . S
C1385 C1380 1.399 . S
C1385 C1384 1.394 1_455 S
C1385 C1386 1.516 . S
C1386 C1385 1.516 . S
C1386 C1387 1.502 . S
C1386 C1388 1.561 . S
C1386 C1389 1.526 . S
C1387 H1371 0.959 . S
C1387 H1372 0.959 . S
C1387 H1373 0.961 . S
C1387 C1386 1.502 . S
C1388 H1374 0.960 . S
C1388 H1375 0.961 . S
C1388 H1376 0.959 . S
C1388 C1386 1.561 . S
C1389 C1386 1.526 . S
C1389 C1390 1.396 1_455 S
C1389 C1394 1.390 . S
C1390 C1384 1.465 . S
C1390 C1389 1.396 1_655 S
C1390 C1391 1.399 . S
C1391 H1377 0.929 . S
C1391 C1390 1.399 . S
C1391 C1392 1.385 . S
C1392 H1378 0.931 . S
C1392 C1391 1.385 . S
C1392 C1393 1.389 . S
C1393 C1392 1.389 . S
C1393 C1394 1.387 1_655 S
C1394 H1379 0.930 . S
C1394 C1389 1.390 . S
C1394 C1393 1.387 1_455 S
H1395 C1407 0.930 . S
H1396 C1409 0.930 . S
H1397 C1410 0.930 . S
H1398 C1414 0.959 . S
H1399 C1414 0.959 . S
H1400 C1414 0.961 . S
H1401 C1415 0.960 . S
H1402 C1415 0.961 . S
H1403 C1415 0.959 . S
H1404 C1418 0.929 . S
H1405 C1419 0.931 . S
H1406 C1421 0.930 . S
C1407 H1395 0.930 . S
C1407 C1408 1.399 . S
C1407 C1412 1.399 . S
C1408 C1407 1.399 . S
C1408 C1409 1.376 . S
C1409 H1396 0.930 . S
C1409 C1408 1.376 . S
C1409 C1410 1.388 . S
C1410 H1397 0.930 . S
C1410 C1409 1.388 . S
C1410 C1411 1.390 . S
C1411 C1410 1.390 . S
C1411 C1412 1.394 . S
C1411 C1417 1.465 . S
C1412 C1407 1.399 . S
C1412 C1411 1.394 . S
C1412 C1413 1.516 . S
C1413 C1412 1.516 . S
C1413 C1414 1.502 . S
C1413 C1415 1.561 . S
C1413 C1416 1.526 . S
C1414 H1398 0.959 . S
C1414 H1399 0.959 . S
C1414 H1400 0.961 . S
C1414 C1413 1.502 . S
C1415 H1401 0.960 . S
C1415 H1402 0.961 . S
C1415 H1403 0.959 . S
C1415 C1413 1.561 . S
C1416 C1413 1.526 . S
C1416 C1417 1.396 . S
C1416 C1421 1.390 . S
C1417 C1411 1.465 . S
C1417 C1416 1.396 . S
C1417 C1418 1.399 . S
C1418 H1404 0.929 . S
C1418 C1417 1.399 . S
C1418 C1419 1.385 . S
C1419 H1405 0.931 . S
C1419 C1418 1.385 . S
C1419 C1420 1.389 . S
C1420 C1419 1.389 . S
C1420 C1421 1.387 . S
C1421 H1406 0.930 . S
C1421 C1416 1.390 . S
C1421 C1420 1.387 . S
H1422 C1434 0.931 1_565 S
H1423 C1436 0.930 . S
H1424 C1437 0.930 . S
H1425 C1441 0.959 . S
H1426 C1441 0.945 1_565 S
H1427 C1441 0.943 . S
H1428 C1442 0.960 . S
H1429 C1442 0.961 . S
H1430 C1442 0.959 . S
H1431 C1445 0.929 . S
H1432 C1446 0.931 . S
H1433 C1448 0.923 1_565 S
C1434 H1422 0.931 1_545 S
C1434 C1435 1.401 . S
C1434 C1439 1.432 . S
C1435 C1434 1.401 . S
C1435 C1436 1.376 . S
C1436 H1423 0.930 . S
C1436 C1435 1.376 . S
C1436 C1437 1.388 . S
C1437 H1424 0.930 . S
C1437 C1436 1.388 . S
C1437 C1438 1.390 . S
C1438 C1437 1.390 . S
C1438 C1439 1.385 . S
C1438 C1444 1.465 . S
C1439 C1434 1.432 . S
C1439 C1438 1.385 . S
C1439 C1440 1.490 1_545 S
C1440 C1439 1.490 1_565 S
C1440 C1441 1.502 1_565 S
C1440 C1442 1.561 . S
C1440 C1443 1.526 1_565 S
C1441 H1425 0.959 . S
C1441 H1426 0.945 1_545 S
C1441 H1427 0.943 . S
C1441 C1440 1.502 1_545 S
C1442 H1428 0.960 . S
C1442 H1429 0.961 . S
C1442 H1430 0.959 . S
C1442 C1440 1.561 . S
C1443 C1440 1.526 1_545 S
C1443 C1444 1.396 . S
C1443 C1448 1.419 . S
C1444 C1438 1.465 . S
C1444 C1443 1.396 . S
C1444 C1445 1.399 . S
C1445 H1431 0.929 . S
C1445 C1444 1.399 . S
C1445 C1446 1.385 . S
C1446 H1432 0.931 . S
C1446 C1445 1.385 . S
C1446 C1447 1.389 . S
C1447 C1446 1.389 . S
C1447 C1448 1.372 . S
C1448 H1433 0.923 1_545 S
C1448 C1443 1.419 . S
C1448 C1447 1.372 . S
H1449 C1461 0.930 . S
H1450 C1463 0.930 . S
H1451 C1464 0.930 . S
H1452 C1468 0.959 . S
H1453 C1468 0.959 . S
H1454 C1468 0.961 . S
H1455 C1469 0.960 . S
H1456 C1469 0.961 . S
H1457 C1469 0.959 . S
H1458 C1472 0.929 . S
H1459 C1473 0.931 . S
H1460 C1475 0.930 . S
C1461 H1449 0.930 . S
C1461 C1462 1.398 1_545 S
C1461 C1466 1.399 . S
C1462 C1461 1.398 1_565 S
C1462 C1463 1.378 . S
C1463 H1450 0.930 . S
C1463 C1462 1.378 . S
C1463 C1464 1.388 . S
C1464 H1451 0.930 . S
C1464 C1463 1.388 . S
C1464 C1465 1.390 . S
C1465 C1464 1.390 . S
C1465 C1466 1.394 1_565 S
C1465 C1471 1.465 . S
C1466 C1461 1.399 . S
C1466 C1465 1.394 1_545 S
C1466 C1467 1.516 . S
C1467 C1466 1.516 . S
C1467 C1468 1.502 . S
C1467 C1469 1.561 . S
C1467 C1470 1.526 . S
C1468 H1452 0.959 . S
C1468 H1453 0.959 . S
C1468 H1454 0.961 . S
C1468 C1467 1.502 . S
C1469 H1455 0.960 . S
C1469 H1456 0.961 . S
C1469 H1457 0.959 . S
C1469 C1467 1.561 . S
C1470 C1467 1.526 . S
C1470 C1471 1.396 1_545 S
C1470 C1475 1.390 . S
C1471 C1465 1.465 . S
C1471 C1470 1.396 1_565 S
C1471 C1472 1.399 . S
C1472 H1458 0.929 . S
C1472 C1471 1.399 . S
C1472 C1473 1.385 . S
C1473 H1459 0.931 . S
C1473 C1472 1.385 . S
C1473 C1474 1.389 . S
C1474 C1473 1.389 . S
C1474 C1475 1.387 1_565 S
C1475 H1460 0.930 . S
C1475 C1470 1.390 . S
C1475 C1474 1.387 1_545 S
H1476 C1488 0.930 . S
H1477 C1490 0.930 . S
H1478 C1491 0.930 . S
H1479 C1495 0.959 . S
H1480 C1495 0.959 . S
H1481 C1495 0.961 . S
H1482 C1496 0.960 . S
H1483 C1496 0.961 . S
H1484 C1496 0.959 . S
H1485 C1499 0.929 . S
H1486 C1500 0.931 . S
H1487 C1502 0.930 . S
C1488 H1476 0.930 . S
C1488 C1489 1.399 1_655 S
C1488 C1493 1.399 . S
C1489 C1488 1.399 1_455 S
C1489 C1490 1.376 . S
C1490 H1477 0.930 . S
C1490 C1489 1.376 . S
C1490 C1491 1.388 . S
C1491 H1478 0.930 . S
C1491 C1490 1.388 . S
C1491 C1492 1.390 . S
C1492 C1491 1.390 . S
C1492 C1493 1.394 1_455 S
C1492 C1498 1.465 . S
C1493 C1488 1.399 . S
C1493 C1492 1.394 1_655 S
C1493 C1494 1.516 . S
C1494 C1493 1.516 . S
C1494 C1495 1.502 . S
C1494 C1496 1.561 . S
C1494 C1497 1.526 . S
C1495 H1479 0.959 . S
C1495 H1480 0.959 . S
C1495 H1481 0.961 . S
C1495 C1494 1.502 . S
C1496 H1482 0.960 . S
C1496 H1483 0.961 . S
C1496 H1484 0.959 . S
C1496 C1494 1.561 . S
C1497 C1494 1.526 . S
C1497 C1498 1.396 1_655 S
C1497 C1502 1.390 . S
C1498 C1492 1.465 . S
C1498 C1497 1.396 1_455 S
C1498 C1499 1.399 . S
C1499 H1485 0.929 . S
C1499 C1498 1.399 . S
C1499 C1500 1.385 . S
C1500 H1486 0.931 . S
C1500 C1499 1.385 . S
C1500 C1501 1.389 . S
C1501 C1500 1.389 . S
C1501 C1502 1.387 1_455 S
C1502 H1487 0.930 . S
C1502 C1497 1.390 . S
C1502 C1501 1.387 1_655 S
H1503 C1515 0.930 . S
H1504 C1517 0.930 . S
H1505 C1518 0.930 . S
H1506 C1522 0.959 . S
H1507 C1522 0.959 . S
H1508 C1522 0.961 . S
H1509 C1523 0.960 . S
H1510 C1523 0.961 . S
H1511 C1523 0.959 . S
H1512 C1526 0.929 . S
H1513 C1527 0.931 . S
H1514 C1529 0.930 . S
C1515 H1503 0.930 . S
C1515 C1516 1.399 . S
C1515 C1520 1.399 . S
C1516 C1515 1.399 . S
C1516 C1517 1.376 . S
C1517 H1504 0.930 . S
C1517 C1516 1.376 . S
C1517 C1518 1.388 . S
C1518 H1505 0.930 . S
C1518 C1517 1.388 . S
C1518 C1519 1.390 . S
C1519 C1518 1.390 . S
C1519 C1520 1.394 . S
C1519 C1525 1.465 . S
C1520 C1515 1.399 . S
C1520 C1519 1.394 . S
C1520 C1521 1.516 . S
C1521 C1520 1.516 . S
C1521 C1522 1.502 . S
C1521 C1523 1.561 . S
C1521 C1524 1.526 . S
C1522 H1506 0.959 . S
C1522 H1507 0.959 . S
C1522 H1508 0.961 . S
C1522 C1521 1.502 . S
C1523 H1509 0.960 . S
C1523 H1510 0.961 . S
C1523 H1511 0.959 . S
C1523 C1521 1.561 . S
C1524 C1521 1.526 . S
C1524 C1525 1.396 . S
C1524 C1529 1.390 . S
C1525 C1519 1.465 . S
C1525 C1524 1.396 . S
C1525 C1526 1.399 . S
C1526 H1512 0.929 . S
C1526 C1525 1.399 . S
C1526 C1527 1.385 . S
C1527 H1513 0.931 . S
C1527 C1526 1.385 . S
C1527 C1528 1.389 . S
C1528 C1527 1.389 . S
C1528 C1529 1.387 . S
C1529 H1514 0.930 . S
C1529 C1524 1.390 . S
C1529 C1528 1.387 . S
H1530 C1542 0.930 . S
H1531 C1544 0.930 . S
H1532 C1545 0.930 . S
H1533 C1549 0.959 . S
H1534 C1549 0.959 . S
H1535 C1549 0.961 . S
H1536 C1550 0.960 . S
H1537 C1550 0.961 . S
H1538 C1550 0.959 . S
H1539 C1553 0.929 . S
H1540 C1554 0.931 . S
H1541 C1556 0.930 . S
C1542 H1530 0.930 . S
C1542 C1543 1.399 1_655 S
C1542 C1547 1.399 . S
C1543 C1542 1.399 1_455 S
C1543 C1544 1.376 . S
C1544 H1531 0.930 . S
C1544 C1543 1.376 . S
C1544 C1545 1.388 . S
C1545 H1532 0.930 . S
C1545 C1544 1.388 . S
C1545 C1546 1.390 . S
C1546 C1545 1.390 . S
C1546 C1547 1.394 1_455 S
C1546 C1552 1.465 . S
C1547 C1542 1.399 . S
C1547 C1546 1.394 1_655 S
C1547 C1548 1.516 . S
C1548 C1547 1.516 . S
C1548 C1549 1.502 . S
C1548 C1550 1.561 . S
C1548 C1551 1.526 . S
C1549 H1533 0.959 . S
C1549 H1534 0.959 . S
C1549 H1535 0.961 . S
C1549 C1548 1.502 . S
C1550 H1536 0.960 . S
C1550 H1537 0.961 . S
C1550 H1538 0.959 . S
C1550 C1548 1.561 . S
C1551 C1548 1.526 . S
C1551 C1552 1.396 1_655 S
C1551 C1556 1.390 . S
C1552 C1546 1.465 . S
C1552 C1551 1.396 1_455 S
C1552 C1553 1.399 . S
C1553 H1539 0.929 . S
C1553 C1552 1.399 . S
C1553 C1554 1.385 . S
C1554 H1540 0.931 . S
C1554 C1553 1.385 . S
C1554 C1555 1.389 . S
C1555 C1554 1.389 . S
C1555 C1556 1.387 1_455 S
C1556 H1541 0.930 . S
C1556 C1551 1.390 . S
C1556 C1555 1.387 1_655 S
H1557 C1569 0.930 . S
H1558 C1571 0.930 . S
H1559 C1572 0.930 . S
H1560 C1576 0.959 . S
H1561 C1576 0.959 . S
H1562 C1576 0.961 . S
H1563 C1577 0.960 . S
H1564 C1577 0.961 . S
H1565 C1577 0.959 . S
H1566 C1580 0.929 . S
H1567 C1581 0.931 . S
H1568 C1583 0.930 . S
C1569 H1557 0.930 . S
C1569 C1570 1.399 . S
C1569 C1574 1.399 . S
C1570 C1569 1.399 . S
C1570 C1571 1.376 . S
C1571 H1558 0.930 . S
C1571 C1570 1.376 . S
C1571 C1572 1.388 . S
C1572 H1559 0.930 . S
C1572 C1571 1.388 . S
C1572 C1573 1.390 . S
C1573 C1572 1.390 . S
C1573 C1574 1.394 . S
C1573 C1579 1.465 . S
C1574 C1569 1.399 . S
C1574 C1573 1.394 . S
C1574 C1575 1.516 . S
C1575 C1574 1.516 . S
C1575 C1576 1.502 . S
C1575 C1577 1.561 . S
C1575 C1578 1.526 . S
C1576 H1560 0.959 . S
C1576 H1561 0.959 . S
C1576 H1562 0.961 . S
C1576 C1575 1.502 . S
C1577 H1563 0.960 . S
C1577 H1564 0.961 . S
C1577 H1565 0.959 . S
C1577 C1575 1.561 . S
C1578 C1575 1.526 . S
C1578 C1579 1.396 . S
C1578 C1583 1.390 . S
C1579 C1573 1.465 . S
C1579 C1578 1.396 . S
C1579 C1580 1.399 . S
C1580 H1566 0.929 . S
C1580 C1579 1.399 . S
C1580 C1581 1.385 . S
C1581 H1567 0.931 . S
C1581 C1580 1.385 . S
C1581 C1582 1.389 . S
C1582 C1581 1.389 . S
C1582 C1583 1.387 . S
C1583 H1568 0.930 . S
C1583 C1578 1.390 . S
C1583 C1582 1.387 . S
H1584 C1596 0.930 . S
H1585 C1598 0.930 . S
H1586 C1599 0.930 . S
H1587 C1603 0.959 . S
H1588 C1603 0.959 . S
H1589 C1603 0.961 . S
H1590 C1604 0.960 . S
H1591 C1604 0.961 . S
H1592 C1604 0.959 . S
H1593 C1607 0.929 . S
H1594 C1608 0.931 . S
H1595 C1610 0.930 . S
C1596 H1584 0.930 . S
C1596 C1597 1.432 . S
C1596 C1601 1.399 . S
C1597 C1596 1.432 . S
C1597 C1598 1.309 1_565 S
C1598 H1585 0.930 . S
C1598 C1597 1.309 1_545 S
C1598 C1599 1.388 . S
C1599 H1586 0.930 . S
C1599 C1598 1.388 . S
C1599 C1600 1.390 . S
C1600 C1599 1.390 . S
C1600 C1601 1.394 1_545 S
C1600 C1606 1.444 . S
C1601 C1596 1.399 . S
C1601 C1600 1.394 1_565 S
C1601 C1602 1.516 . S
C1602 C1601 1.516 . S
C1602 C1603 1.502 . S
C1602 C1604 1.561 . S
C1602 C1605 1.526 . S
C1603 H1587 0.959 . S
C1603 H1588 0.959 . S
C1603 H1589 0.961 . S
C1603 C1602 1.502 . S
C1604 H1590 0.960 . S
C1604 H1591 0.961 . S
C1604 H1592 0.959 . S
C1604 C1602 1.561 . S
C1605 C1602 1.526 . S
C1605 C1606 1.355 1_565 S
C1605 C1610 1.390 . S
C1606 C1600 1.444 . S
C1606 C1605 1.355 1_545 S
C1606 C1607 1.453 . S
C1607 H1593 0.929 . S
C1607 C1606 1.453 . S
C1607 C1608 1.385 . S
C1608 H1594 0.931 . S
C1608 C1607 1.385 . S
C1608 C1609 1.389 1_545 S
C1609 C1608 1.389 1_565 S
C1609 C1610 1.387 . S
C1610 H1595 0.930 . S
C1610 C1605 1.390 . S
C1610 C1609 1.387 . S
H1611 C1623 0.930 . S
H1612 C1625 0.930 . S
H1613 C1626 0.930 . S
H1614 C1630 0.959 . S
H1615 C1630 0.959 . S
H1616 C1630 0.961 . S
H1617 C1631 0.960 . S
H1618 C1631 0.961 . S
H1619 C1631 0.959 . S
H1620 C1634 0.929 . S
H1621 C1635 0.931 . S
H1622 C1637 0.930 . S
C1623 H1611 0.930 . S
C1623 C1624 1.399 1_565 S
C1623 C1628 1.399 . S
C1624 C1623 1.399 1_545 S
C1624 C1625 1.376 . S
C1625 H1612 0.930 . S
C1625 C1624 1.376 . S
C1625 C1626 1.388 . S
C1626 H1613 0.930 . S
C1626 C1625 1.388 . S
C1626 C1627 1.390 . S
C1627 C1626 1.390 . S
C1627 C1628 1.394 1_545 S
C1627 C1633 1.465 . S
C1628 C1623 1.399 . S
C1628 C1627 1.394 1_565 S
C1628 C1629 1.516 . S
C1629 C1628 1.516 . S
C1629 C1630 1.502 . S
C1629 C1631 1.561 . S
C1629 C1632 1.526 . S
C1630 H1614 0.959 . S
C1630 H1615 0.959 . S
C1630 H1616 0.961 . S
C1630 C1629 1.502 . S
C1631 H1617 0.960 . S
C1631 H1618 0.961 . S
C1631 H1619 0.959 . S
C1631 C1629 1.561 . S
C1632 C1629 1.526 . S
C1632 C1633 1.396 1_565 S
C1632 C1637 1.390 . S
C1633 C1627 1.465 . S
C1633 C1632 1.396 1_545 S
C1633 C1634 1.399 . S
C1634 H1620 0.929 . S
C1634 C1633 1.399 . S
C1634 C1635 1.385 . S
C1635 H1621 0.931 . S
C1635 C1634 1.385 . S
C1635 C1636 1.389 . S
C1636 C1635 1.389 . S
C1636 C1637 1.387 1_545 S
C1637 H1622 0.930 . S
C1637 C1632 1.390 . S
C1637 C1636 1.387 1_565 S
H1638 C1650 0.930 . S
H1639 C1652 0.930 . S
H1640 C1653 0.930 . S
H1641 C1657 0.959 . S
H1642 C1657 0.959 . S
H1643 C1657 0.961 . S
H1644 C1658 0.960 . S
H1645 C1658 0.961 . S
H1646 C1658 0.959 . S
H1647 C1661 0.929 . S
H1648 C1662 0.931 . S
H1649 C1664 0.930 . S
C1650 H1638 0.930 . S
C1650 C1651 1.399 1_455 S
C1650 C1655 1.399 . S
C1651 C1650 1.399 1_655 S
C1651 C1652 1.376 . S
C1652 H1639 0.930 . S
C1652 C1651 1.376 . S
C1652 C1653 1.388 . S
C1653 H1640 0.930 . S
C1653 C1652 1.388 . S
C1653 C1654 1.390 . S
C1654 C1653 1.390 . S
C1654 C1655 1.394 1_655 S
C1654 C1660 1.465 . S
C1655 C1650 1.399 . S
C1655 C1654 1.394 1_455 S
C1655 C1656 1.516 . S
C1656 C1655 1.516 . S
C1656 C1657 1.502 . S
C1656 C1658 1.561 . S
C1656 C1659 1.526 . S
C1657 H1641 0.959 . S
C1657 H1642 0.959 . S
C1657 H1643 0.961 . S
C1657 C1656 1.502 . S
C1658 H1644 0.960 . S
C1658 H1645 0.961 . S
C1658 H1646 0.959 . S
C1658 C1656 1.561 . S
C1659 C1656 1.526 . S
C1659 C1660 1.396 1_455 S
C1659 C1664 1.390 . S
C1660 C1654 1.465 . S
C1660 C1659 1.396 1_655 S
C1660 C1661 1.399 . S
C1661 H1647 0.929 . S
C1661 C1660 1.399 . S
C1661 C1662 1.385 . S
C1662 H1648 0.931 . S
C1662 C1661 1.385 . S
C1662 C1663 1.389 . S
C1663 C1662 1.389 . S
C1663 C1664 1.387 1_655 S
C1664 H1649 0.930 . S
C1664 C1659 1.390 . S
C1664 C1663 1.387 1_455 S
H1665 C1677 0.930 . S
H1666 C1679 0.930 . S
H1667 C1680 0.930 . S
H1668 C1684 0.959 . S
H1669 C1684 0.959 . S
H1670 C1684 0.961 . S
H1671 C1685 0.960 . S
H1672 C1685 0.961 . S
H1673 C1685 0.959 . S
H1674 C1688 0.929 . S
H1675 C1689 0.931 . S
H1676 C1691 0.930 . S
C1677 H1665 0.930 . S
C1677 C1678 1.399 . S
C1677 C1682 1.399 . S
C1678 C1677 1.399 . S
C1678 C1679 1.376 . S
C1679 H1666 0.930 . S
C1679 C1678 1.376 . S
C1679 C1680 1.388 . S
C1680 H1667 0.930 . S
C1680 C1679 1.388 . S
C1680 C1681 1.390 . S
C1681 C1680 1.390 . S
C1681 C1682 1.394 . S
C1681 C1687 1.465 . S
C1682 C1677 1.399 . S
C1682 C1681 1.394 . S
C1682 C1683 1.516 . S
C1683 C1682 1.516 . S
C1683 C1684 1.502 . S
C1683 C1685 1.561 . S
C1683 C1686 1.526 . S
C1684 H1668 0.959 . S
C1684 H1669 0.959 . S
C1684 H1670 0.961 . S
C1684 C1683 1.502 . S
C1685 H1671 0.960 . S
C1685 H1672 0.961 . S
C1685 H1673 0.959 . S
C1685 C1683 1.561 . S
C1686 C1683 1.526 . S
C1686 C1687 1.396 . S
C1686 C1691 1.390 . S
C1687 C1681 1.465 . S
C1687 C1686 1.396 . S
C1687 C1688 1.399 . S
C1688 H1674 0.929 . S
C1688 C1687 1.399 . S
C1688 C1689 1.385 . S
C1689 H1675 0.931 . S
C1689 C1688 1.385 . S
C1689 C1690 1.389 . S
C1690 C1689 1.389 . S
C1690 C1691 1.387 . S
C1691 H1676 0.930 . S
C1691 C1686 1.390 . S
C1691 C1690 1.387 . S
H1692 C1704 0.930 . S
H1693 C1706 0.930 . S
H1694 C1707 0.930 . S
H1695 C1711 0.959 . S
H1696 C1711 0.959 . S
H1697 C1711 0.961 . S
H1698 C1712 0.960 . S
H1699 C1712 0.961 . S
H1700 C1712 0.959 . S
H1701 C1715 0.929 . S
H1702 C1716 0.931 . S
H1703 C1718 0.930 . S
C1704 H1692 0.930 . S
C1704 C1705 1.399 . S
C1704 C1709 1.399 . S
C1705 C1704 1.399 . S
C1705 C1706 1.376 . S
C1706 H1693 0.930 . S
C1706 C1705 1.376 . S
C1706 C1707 1.388 . S
C1707 H1694 0.930 . S
C1707 C1706 1.388 . S
C1707 C1708 1.390 . S
C1708 C1707 1.390 . S
C1708 C1709 1.394 . S
C1708 C1714 1.465 . S
C1709 C1704 1.399 . S
C1709 C1708 1.394 . S
C1709 C1710 1.516 . S
C1710 C1709 1.516 . S
C1710 C1711 1.502 . S
C1710 C1712 1.561 . S
C1710 C1713 1.526 . S
C1711 H1695 0.959 . S
C1711 H1696 0.959 . S
C1711 H1697 0.961 . S
C1711 C1710 1.502 . S
C1712 H1698 0.960 . S
C1712 H1699 0.961 . S
C1712 H1700 0.959 . S
C1712 C1710 1.561 . S
C1713 C1710 1.526 . S
C1713 C1714 1.396 . S
C1713 C1718 1.390 . S
C1714 C1708 1.465 . S
C1714 C1713 1.396 . S
C1714 C1715 1.399 . S
C1715 H1701 0.929 . S
C1715 C1714 1.399 . S
C1715 C1716 1.385 . S
C1716 H1702 0.931 . S
C1716 C1715 1.385 . S
C1716 C1717 1.389 . S
C1717 C1716 1.389 . S
C1717 C1718 1.387 . S
C1718 H1703 0.930 . S
C1718 C1713 1.390 . S
C1718 C1717 1.387 . S
H1719 C1731 0.930 . S
H1720 C1733 0.930 . S
H1721 C1734 0.930 . S
H1722 C1738 0.959 . S
H1723 C1738 0.959 . S
H1724 C1738 0.961 . S
H1725 C1739 0.960 . S
H1726 C1739 0.961 . S
H1727 C1739 0.959 . S
H1728 C1742 0.929 . S
H1729 C1743 0.931 . S
H1730 C1745 0.930 . S
C1731 H1719 0.930 . S
C1731 C1732 1.399 . S
C1731 C1736 1.399 . S
C1732 C1731 1.399 . S
C1732 C1733 1.376 . S
C1733 H1720 0.930 . S
C1733 C1732 1.376 . S
C1733 C1734 1.388 . S
C1734 H1721 0.930 . S
C1734 C1733 1.388 . S
C1734 C1735 1.390 . S
C1735 C1734 1.390 . S
C1735 C1736 1.394 . S
C1735 C1741 1.465 . S
C1736 C1731 1.399 . S
C1736 C1735 1.394 . S
C1736 C1737 1.516 . S
C1737 C1736 1.516 . S
C1737 C1738 1.502 . S
C1737 C1739 1.561 . S
C1737 C1740 1.526 . S
C1738 H1722 0.959 . S
C1738 H1723 0.959 . S
C1738 H1724 0.961 . S
C1738 C1737 1.502 . S
C1739 H1725 0.960 . S
C1739 H1726 0.961 . S
C1739 H1727 0.959 . S
C1739 C1737 1.561 . S
C1740 C1737 1.526 . S
C1740 C1741 1.396 . S
C1740 C1745 1.390 . S
C1741 C1735 1.465 . S
C1741 C1740 1.396 . S
C1741 C1742 1.399 . S
C1742 H1728 0.929 . S
C1742 C1741 1.399 . S
C1742 C1743 1.385 . S
C1743 H1729 0.931 . S
C1743 C1742 1.385 . S
C1743 C1744 1.389 . S
C1744 C1743 1.389 . S
C1744 C1745 1.387 . S
C1745 H1730 0.930 . S
C1745 C1740 1.390 . S
C1745 C1744 1.387 . S
H1746 C1758 0.930 . S
H1747 C1760 0.930 . S
H1748 C1761 0.930 . S
H1749 C1765 0.959 . S
H1750 C1765 0.959 . S
H1751 C1765 0.961 . S
H1752 C1766 0.960 . S
H1753 C1766 0.961 . S
H1754 C1766 0.959 . S
H1755 C1769 0.929 . S
H1756 C1770 0.931 . S
H1757 C1772 0.930 . S
C1758 H1746 0.930 . S
C1758 C1759 1.399 . S
C1758 C1763 1.399 . S
C1759 C1758 1.399 . S
C1759 C1760 1.376 . S
C1760 H1747 0.930 . S
C1760 C1759 1.376 . S
C1760 C1761 1.388 . S
C1761 H1748 0.930 . S
C1761 C1760 1.388 . S
C1761 C1762 1.390 . S
C1762 C1761 1.390 . S
C1762 C1763 1.394 . S
C1762 C1768 1.465 . S
C1763 C1758 1.399 . S
C1763 C1762 1.394 . S
C1763 C1764 1.516 . S
C1764 C1763 1.516 . S
C1764 C1765 1.502 . S
C1764 C1766 1.561 . S
C1764 C1767 1.526 . S
C1765 H1749 0.959 . S
C1765 H1750 0.959 . S
C1765 H1751 0.961 . S
C1765 C1764 1.502 . S
C1766 H1752 0.960 . S
C1766 H1753 0.961 . S
C1766 H1754 0.959 . S
C1766 C1764 1.561 . S
C1767 C1764 1.526 . S
C1767 C1768 1.396 . S
C1767 C1772 1.390 . S
C1768 C1762 1.465 . S
C1768 C1767 1.396 . S
C1768 C1769 1.399 . S
C1769 H1755 0.929 . S
C1769 C1768 1.399 . S
C1769 C1770 1.385 . S
C1770 H1756 0.931 . S
C1770 C1769 1.385 . S
C1770 C1771 1.389 . S
C1771 C1770 1.389 . S
C1771 C1772 1.387 . S
C1772 H1757 0.930 . S
C1772 C1767 1.390 . S
C1772 C1771 1.387 . S
H1773 C1785 0.930 . S
H1774 C1787 0.930 . S
H1775 C1788 0.930 . S
H1776 C1792 0.959 . S
H1777 C1792 0.959 . S
H1778 C1792 0.961 . S
H1779 C1793 0.960 . S
H1780 C1793 0.961 . S
H1781 C1793 0.959 . S
H1782 C1796 0.929 . S
H1783 C1797 0.931 . S
H1784 C1799 0.930 . S
C1785 H1773 0.930 . S
C1785 C1786 1.399 . S
C1785 C1790 1.399 . S
C1786 C1785 1.399 . S
C1786 C1787 1.376 . S
C1787 H1774 0.930 . S
C1787 C1786 1.376 . S
C1787 C1788 1.388 . S
C1788 H1775 0.930 . S
C1788 C1787 1.388 . S
C1788 C1789 1.390 . S
C1789 C1788 1.390 . S
C1789 C1790 1.394 . S
C1789 C1795 1.465 . S
C1790 C1785 1.399 . S
C1790 C1789 1.394 . S
C1790 C1791 1.516 . S
C1791 C1790 1.516 . S
C1791 C1792 1.502 . S
C1791 C1793 1.561 . S
C1791 C1794 1.526 . S
C1792 H1776 0.959 . S
C1792 H1777 0.959 . S
C1792 H1778 0.961 . S
C1792 C1791 1.502 . S
C1793 H1779 0.960 . S
C1793 H1780 0.961 . S
C1793 H1781 0.959 . S
C1793 C1791 1.561 . S
C1794 C1791 1.526 . S
C1794 C1795 1.396 . S
C1794 C1799 1.390 . S
C1795 C1789 1.465 . S
C1795 C1794 1.396 . S
C1795 C1796 1.399 . S
C1796 H1782 0.929 . S
C1796 C1795 1.399 . S
C1796 C1797 1.385 . S
C1797 H1783 0.931 . S
C1797 C1796 1.385 . S
C1797 C1798 1.389 . S
C1798 C1797 1.389 . S
C1798 C1799 1.387 . S
C1799 H1784 0.930 . S
C1799 C1794 1.390 . S
C1799 C1798 1.387 . S
H1800 C1812 0.930 . S
H1801 C1814 0.930 . S
H1802 C1815 0.930 . S
H1803 C1819 0.959 . S
H1804 C1819 0.959 . S
H1805 C1819 0.961 . S
H1806 C1820 0.960 . S
H1807 C1820 0.961 . S
H1808 C1820 0.959 . S
H1809 C1823 0.929 . S
H1810 C1824 0.931 . S
H1811 C1826 0.930 . S
C1812 H1800 0.930 . S
C1812 C1813 1.399 . S
C1812 C1817 1.399 . S
C1813 C1812 1.399 . S
C1813 C1814 1.376 . S
C1814 H1801 0.930 . S
C1814 C1813 1.376 . S
C1814 C1815 1.388 . S
C1815 H1802 0.930 . S
C1815 C1814 1.388 . S
C1815 C1816 1.390 . S
C1816 C1815 1.390 . S
C1816 C1817 1.394 . S
C1816 C1822 1.465 . S
C1817 C1812 1.399 . S
C1817 C1816 1.394 . S
C1817 C1818 1.516 . S
C1818 C1817 1.516 . S
C1818 C1819 1.502 . S
C1818 C1820 1.561 . S
C1818 C1821 1.526 . S
C1819 H1803 0.959 . S
C1819 H1804 0.959 . S
C1819 H1805 0.961 . S
C1819 C1818 1.502 . S
C1820 H1806 0.960 . S
C1820 H1807 0.961 . S
C1820 H1808 0.959 . S
C1820 C1818 1.561 . S
C1821 C1818 1.526 . S
C1821 C1822 1.396 . S
C1821 C1826 1.390 . S
C1822 C1816 1.465 . S
C1822 C1821 1.396 . S
C1822 C1823 1.399 . S
C1823 H1809 0.929 . S
C1823 C1822 1.399 . S
C1823 C1824 1.385 . S
C1824 H1810 0.931 . S
C1824 C1823 1.385 . S
C1824 C1825 1.389 . S
C1825 C1824 1.389 . S
C1825 C1826 1.387 . S
C1826 H1811 0.930 . S
C1826 C1821 1.390 . S
C1826 C1825 1.387 . S
H1827 C1839 0.930 . S
H1828 C1841 0.930 . S
H1829 C1842 0.930 . S
H1830 C1846 0.959 . S
H1831 C1846 0.959 . S
H1832 C1846 0.961 . S
H1833 C1847 0.960 . S
H1834 C1847 0.961 . S
H1835 C1847 0.959 . S
H1836 C1850 0.929 . S
H1837 C1851 0.931 . S
H1838 C1853 0.930 . S
C1839 H1827 0.930 . S
C1839 C1840 1.399 . S
C1839 C1844 1.399 . S
C1840 C1839 1.399 . S
C1840 C1841 1.376 . S
C1841 H1828 0.930 . S
C1841 C1840 1.376 . S
C1841 C1842 1.388 . S
C1842 H1829 0.930 . S
C1842 C1841 1.388 . S
C1842 C1843 1.390 . S
C1843 C1842 1.390 . S
C1843 C1844 1.394 . S
C1843 C1849 1.465 . S
C1844 C1839 1.399 . S
C1844 C1843 1.394 . S
C1844 C1845 1.516 . S
C1845 C1844 1.516 . S
C1845 C1846 1.502 . S
C1845 C1847 1.561 . S
C1845 C1848 1.526 . S
C1846 H1830 0.959 . S
C1846 H1831 0.959 . S
C1846 H1832 0.961 . S
C1846 C1845 1.502 . S
C1847 H1833 0.960 . S
C1847 H1834 0.961 . S
C1847 H1835 0.959 . S
C1847 C1845 1.561 . S
C1848 C1845 1.526 . S
C1848 C1849 1.396 . S
C1848 C1853 1.390 . S
C1849 C1843 1.465 . S
C1849 C1848 1.396 . S
C1849 C1850 1.399 . S
C1850 H1836 0.929 . S
C1850 C1849 1.399 . S
C1850 C1851 1.385 . S
C1851 H1837 0.931 . S
C1851 C1850 1.385 . S
C1851 C1852 1.389 . S
C1852 C1851 1.389 . S
C1852 C1853 1.387 . S
C1853 H1838 0.930 . S
C1853 C1848 1.390 . S
C1853 C1852 1.387 . S
H1854 C1866 0.930 . S
H1855 C1868 0.930 . S
H1856 C1869 0.930 . S
H1857 C1873 0.959 . S
H1858 C1873 0.959 . S
H1859 C1873 0.961 . S
H1860 C1874 0.960 . S
H1861 C1874 0.961 . S
H1862 C1874 0.959 . S
H1863 C1877 0.929 . S
H1864 C1878 0.931 . S
H1865 C1880 0.930 . S
C1866 H1854 0.930 . S
C1866 C1867 1.399 . S
C1866 C1871 1.399 . S
C1867 C1866 1.399 . S
C1867 C1868 1.376 . S
C1868 H1855 0.930 . S
C1868 C1867 1.376 . S
C1868 C1869 1.388 . S
C1869 H1856 0.930 . S
C1869 C1868 1.388 . S
C1869 C1870 1.390 . S
C1870 C1869 1.390 . S
C1870 C1871 1.394 . S
C1870 C1876 1.465 . S
C1871 C1866 1.399 . S
C1871 C1870 1.394 . S
C1871 C1872 1.516 . S
C1872 C1871 1.516 . S
C1872 C1873 1.502 . S
C1872 C1874 1.561 . S
C1872 C1875 1.526 . S
C1873 H1857 0.959 . S
C1873 H1858 0.959 . S
C1873 H1859 0.961 . S
C1873 C1872 1.502 . S
C1874 H1860 0.960 . S
C1874 H1861 0.961 . S
C1874 H1862 0.959 . S
C1874 C1872 1.561 . S
C1875 C1872 1.526 . S
C1875 C1876 1.396 . S
C1875 C1880 1.390 . S
C1876 C1870 1.465 . S
C1876 C1875 1.396 . S
C1876 C1877 1.399 . S
C1877 H1863 0.929 . S
C1877 C1876 1.399 . S
C1877 C1878 1.385 . S
C1878 H1864 0.931 . S
C1878 C1877 1.385 . S
C1878 C1879 1.389 . S
C1879 C1878 1.389 . S
C1879 C1880 1.387 . S
C1880 H1865 0.930 . S
C1880 C1875 1.390 . S
C1880 C1879 1.387 . S
H1881 C1893 0.930 . S
H1882 C1895 0.930 . S
H1883 C1896 0.930 . S
H1884 C1900 0.959 . S
H1885 C1900 0.959 . S
H1886 C1900 0.961 . S
H1887 C1901 0.960 . S
H1888 C1901 0.961 . S
H1889 C1901 0.959 . S
H1890 C1904 0.929 . S
H1891 C1905 0.931 . S
H1892 C1907 0.930 . S
C1893 H1881 0.930 . S
C1893 C1894 1.399 . S
C1893 C1898 1.399 . S
C1894 C1893 1.399 . S
C1894 C1895 1.376 . S
C1895 H1882 0.930 . S
C1895 C1894 1.376 . S
C1895 C1896 1.388 . S
C1896 H1883 0.930 . S
C1896 C1895 1.388 . S
C1896 C1897 1.390 . S
C1897 C1896 1.390 . S
C1897 C1898 1.394 . S
C1897 C1903 1.465 . S
C1898 C1893 1.399 . S
C1898 C1897 1.394 . S
C1898 C1899 1.516 . S
C1899 C1898 1.516 . S
C1899 C1900 1.502 . S
C1899 C1901 1.561 . S
C1899 C1902 1.526 . S
C1900 H1884 0.959 . S
C1900 H1885 0.959 . S
C1900 H1886 0.961 . S
C1900 C1899 1.502 . S
C1901 H1887 0.960 . S
C1901 H1888 0.961 . S
C1901 H1889 0.959 . S
C1901 C1899 1.561 . S
C1902 C1899 1.526 . S
C1902 C1903 1.396 . S
C1902 C1907 1.390 . S
C1903 C1897 1.465 . S
C1903 C1902 1.396 . S
C1903 C1904 1.399 . S
C1904 H1890 0.929 . S
C1904 C1903 1.399 . S
C1904 C1905 1.385 . S
C1905 H1891 0.931 . S
C1905 C1904 1.385 . S
C1905 C1906 1.389 . S
C1906 C1905 1.389 . S
C1906 C1907 1.387 . S
C1907 H1892 0.930 . S
C1907 C1902 1.390 . S
C1907 C1906 1.387 . S
H1908 C1920 0.930 . S
H1909 C1922 0.930 . S
H1910 C1923 0.930 . S
H1911 C1927 0.959 . S
H1912 C1927 0.959 . S
H1913 C1927 0.961 . S
H1914 C1928 0.960 . S
H1915 C1928 0.961 . S
H1916 C1928 0.959 . S
H1917 C1931 0.929 . S
H1918 C1932 0.931 . S
H1919 C1934 0.930 . S
C1920 H1908 0.930 . S
C1920 C1921 1.399 . S
C1920 C1925 1.399 . S
C1921 C1920 1.399 . S
C1921 C1922 1.376 . S
C1922 H1909 0.930 . S
C1922 C1921 1.376 . S
C1922 C1923 1.388 . S
C1923 H1910 0.930 . S
C1923 C1922 1.388 . S
C1923 C1924 1.390 . S
C1924 C1923 1.390 . S
C1924 C1925 1.394 . S
C1924 C1930 1.465 . S
C1925 C1920 1.399 . S
C1925 C1924 1.394 . S
C1925 C1926 1.516 . S
C1926 C1925 1.516 . S
C1926 C1927 1.502 . S
C1926 C1928 1.561 . S
C1926 C1929 1.526 . S
C1927 H1911 0.959 . S
C1927 H1912 0.959 . S
C1927 H1913 0.961 . S
C1927 C1926 1.502 . S
C1928 H1914 0.960 . S
C1928 H1915 0.961 . S
C1928 H1916 0.959 . S
C1928 C1926 1.561 . S
C1929 C1926 1.526 . S
C1929 C1930 1.396 . S
C1929 C1934 1.390 . S
C1930 C1924 1.465 . S
C1930 C1929 1.396 . S
C1930 C1931 1.399 . S
C1931 H1917 0.929 . S
C1931 C1930 1.399 . S
C1931 C1932 1.385 . S
C1932 H1918 0.931 . S
C1932 C1931 1.385 . S
C1932 C1933 1.389 . S
C1933 C1932 1.389 . S
C1933 C1934 1.387 . S
C1934 H1919 0.930 . S
C1934 C1929 1.390 . S
C1934 C1933 1.387 . S
H1935 C1947 0.930 . S
H1936 C1949 0.930 . S
H1937 C1950 0.930 . S
H1938 C1954 0.959 . S
H1939 C1954 0.959 . S
H1940 C1954 0.961 . S
H1941 C1955 0.960 . S
H1942 C1955 0.961 . S
H1943 C1955 0.959 . S
H1944 C1958 0.929 . S
H1945 C1959 0.931 . S
H1946 C1961 0.930 . S
C1947 H1935 0.930 . S
C1947 C1948 1.399 . S
C1947 C1952 1.399 . S
C1948 C1947 1.399 . S
C1948 C1949 1.376 . S
C1949 H1936 0.930 . S
C1949 C1948 1.376 . S
C1949 C1950 1.388 . S
C1950 H1937 0.930 . S
C1950 C1949 1.388 . S
C1950 C1951 1.390 . S
C1951 C1950 1.390 . S
C1951 C1952 1.394 . S
C1951 C1957 1.465 . S
C1952 C1947 1.399 . S
C1952 C1951 1.394 . S
C1952 C1953 1.516 . S
C1953 C1952 1.516 . S
C1953 C1954 1.502 . S
C1953 C1955 1.561 . S
C1953 C1956 1.526 . S
C1954 H1938 0.959 . S
C1954 H1939 0.959 . S
C1954 H1940 0.961 . S
C1954 C1953 1.502 . S
C1955 H1941 0.960 . S
C1955 H1942 0.961 . S
C1955 H1943 0.959 . S
C1955 C1953 1.561 . S
C1956 C1953 1.526 . S
C1956 C1957 1.396 . S
C1956 C1961 1.390 . S
C1957 C1951 1.465 . S
C1957 C1956 1.396 . S
C1957 C1958 1.399 . S
C1958 H1944 0.929 . S
C1958 C1957 1.399 . S
C1958 C1959 1.385 . S
C1959 H1945 0.931 . S
C1959 C1958 1.385 . S
C1959 C1960 1.389 . S
C1960 C1959 1.389 . S
C1960 C1961 1.387 . S
C1961 H1946 0.930 . S
C1961 C1956 1.390 . S
C1961 C1960 1.387 . S
H1962 C1974 0.930 . S
H1963 C1976 0.930 . S
H1964 C1977 0.930 . S
H1965 C1981 0.959 . S
H1966 C1981 0.959 . S
H1967 C1981 0.961 . S
H1968 C1982 0.960 . S
H1969 C1982 0.961 . S
H1970 C1982 0.959 . S
H1971 C1985 0.929 . S
H1972 C1986 0.931 . S
H1973 C1988 0.930 . S
C1974 H1962 0.930 . S
C1974 C1975 1.399 . S
C1974 C1979 1.399 . S
C1975 C1974 1.399 . S
C1975 C1976 1.376 . S
C1976 H1963 0.930 . S
C1976 C1975 1.376 . S
C1976 C1977 1.388 . S
C1977 H1964 0.930 . S
C1977 C1976 1.388 . S
C1977 C1978 1.390 . S
C1978 C1977 1.390 . S
C1978 C1979 1.394 . S
C1978 C1984 1.465 . S
C1979 C1974 1.399 . S
C1979 C1978 1.394 . S
C1979 C1980 1.516 . S
C1980 C1979 1.516 . S
C1980 C1981 1.502 . S
C1980 C1982 1.561 . S
C1980 C1983 1.526 . S
C1981 H1965 0.959 . S
C1981 H1966 0.959 . S
C1981 H1967 0.961 . S
C1981 C1980 1.502 . S
C1982 H1968 0.960 . S
C1982 H1969 0.961 . S
C1982 H1970 0.959 . S
C1982 C1980 1.561 . S
C1983 C1980 1.526 . S
C1983 C1984 1.396 . S
C1983 C1988 1.390 . S
C1984 C1978 1.465 . S
C1984 C1983 1.396 . S
C1984 C1985 1.399 . S
C1985 H1971 0.929 . S
C1985 C1984 1.399 . S
C1985 C1986 1.385 . S
C1986 H1972 0.931 . S
C1986 C1985 1.385 . S
C1986 C1987 1.389 . S
C1987 C1986 1.389 . S
C1987 C1988 1.387 . S
C1988 H1973 0.930 . S
C1988 C1983 1.390 . S
C1988 C1987 1.387 . S
H1989 C2001 0.930 . S
H1990 C2003 0.930 . S
H1991 C2004 0.930 . S
H1992 C2008 0.959 . S
H1993 C2008 0.959 . S
H1994 C2008 0.961 . S
H1995 C2009 0.960 . S
H1996 C2009 0.961 . S
H1997 C2009 0.959 . S
H1998 C2012 0.929 . S
H1999 C2013 0.931 . S
H2000 C2015 0.930 . S
C2001 H1989 0.930 . S
C2001 C2002 1.399 . S
C2001 C2006 1.399 . S
C2002 C2001 1.399 . S
C2002 C2003 1.376 . S
C2003 H1990 0.930 . S
C2003 C2002 1.376 . S
C2003 C2004 1.388 . S
C2004 H1991 0.930 . S
C2004 C2003 1.388 . S
C2004 C2005 1.390 . S
C2005 C2004 1.390 . S
C2005 C2006 1.394 . S
C2005 C2011 1.465 . S
C2006 C2001 1.399 . S
C2006 C2005 1.394 . S
C2006 C2007 1.516 . S
C2007 C2006 1.516 . S
C2007 C2008 1.502 . S
C2007 C2009 1.561 . S
C2007 C2010 1.526 . S
C2008 H1992 0.959 . S
C2008 H1993 0.959 . S
C2008 H1994 0.961 . S
C2008 C2007 1.502 . S
C2009 H1995 0.960 . S
C2009 H1996 0.961 . S
C2009 H1997 0.959 . S
C2009 C2007 1.561 . S
C2010 C2007 1.526 . S
C2010 C2011 1.396 . S
C2010 C2015 1.390 . S
C2011 C2005 1.465 . S
C2011 C2010 1.396 . S
C2011 C2012 1.399 . S
C2012 H1998 0.929 . S
C2012 C2011 1.399 . S
C2012 C2013 1.385 . S
C2013 H1999 0.931 . S
C2013 C2012 1.385 . S
C2013 C2014 1.389 . S
C2014 C2013 1.389 . S
C2014 C2015 1.387 . S
C2015 H2000 0.930 . S
C2015 C2010 1.390 . S
C2015 C2014 1.387 . S
H2016 C2028 0.930 . S
H2017 C2030 0.930 . S
H2018 C2031 0.930 . S
H2019 C2035 0.959 . S
H2020 C2035 0.959 . S
H2021 C2035 0.961 . S
H2022 C2036 0.960 . S
H2023 C2036 0.961 . S
H2024 C2036 0.959 . S
H2025 C2039 0.929 . S
H2026 C2040 0.931 . S
H2027 C2042 0.930 . S
C2028 H2016 0.930 . S
C2028 C2029 1.399 . S
C2028 C2033 1.399 . S
C2029 C2028 1.399 . S
C2029 C2030 1.376 . S
C2030 H2017 0.930 . S
C2030 C2029 1.376 . S
C2030 C2031 1.388 . S
C2031 H2018 0.930 . S
C2031 C2030 1.388 . S
C2031 C2032 1.390 . S
C2032 C2031 1.390 . S
C2032 C2033 1.394 . S
C2032 C2038 1.465 . S
C2033 C2028 1.399 . S
C2033 C2032 1.394 . S
C2033 C2034 1.516 . S
C2034 C2033 1.516 . S
C2034 C2035 1.502 . S
C2034 C2036 1.561 . S
C2034 C2037 1.526 . S
C2035 H2019 0.959 . S
C2035 H2020 0.959 . S
C2035 H2021 0.961 . S
C2035 C2034 1.502 . S
C2036 H2022 0.960 . S
C2036 H2023 0.961 . S
C2036 H2024 0.959 . S
C2036 C2034 1.561 . S
C2037 C2034 1.526 . S
C2037 C2038 1.396 . S
C2037 C2042 1.390 . S
C2038 C2032 1.465 . S
C2038 C2037 1.396 . S
C2038 C2039 1.399 . S
C2039 H2025 0.929 . S
C2039 C2038 1.399 . S
C2039 C2040 1.385 . S
C2040 H2026 0.931 . S
C2040 C2039 1.385 . S
C2040 C2041 1.389 . S
C2041 C2040 1.389 . S
C2041 C2042 1.387 . S
C2042 H2027 0.930 . S
C2042 C2037 1.390 . S
C2042 C2041 1.387 . S
H2043 C2055 0.930 . S
H2044 C2057 0.930 . S
H2045 C2058 0.930 . S
H2046 C2062 0.959 . S
H2047 C2062 0.959 . S
H2048 C2062 0.961 . S
H2049 C2063 0.960 . S
H2050 C2063 0.961 . S
H2051 C2063 0.959 . S
H2052 C2066 0.929 . S
H2053 C2067 0.931 . S
H2054 C2069 0.930 . S
C2055 H2043 0.930 . S
C2055 C2056 1.399 . S
C2055 C2060 1.399 . S
C2056 C2055 1.399 . S
C2056 C2057 1.376 . S
C2057 H2044 0.930 . S
C2057 C2056 1.376 . S
C2057 C2058 1.388 . S
C2058 H2045 0.930 . S
C2058 C2057 1.388 . S
C2058 C2059 1.390 . S
C2059 C2058 1.390 . S
C2059 C2060 1.394 . S
C2059 C2065 1.465 . S
C2060 C2055 1.399 . S
C2060 C2059 1.394 . S
C2060 C2061 1.516 . S
C2061 C2060 1.516 . S
C2061 C2062 1.502 . S
C2061 C2063 1.561 . S
C2061 C2064 1.526 . S
C2062 H2046 0.959 . S
C2062 H2047 0.959 . S
C2062 H2048 0.961 . S
C2062 C2061 1.502 . S
C2063 H2049 0.960 . S
C2063 H2050 0.961 . S
C2063 H2051 0.959 . S
C2063 C2061 1.561 . S
C2064 C2061 1.526 . S
C2064 C2065 1.396 . S
C2064 C2069 1.390 . S
C2065 C2059 1.465 . S
C2065 C2064 1.396 . S
C2065 C2066 1.399 . S
C2066 H2052 0.929 . S
C2066 C2065 1.399 . S
C2066 C2067 1.385 . S
C2067 H2053 0.931 . S
C2067 C2066 1.385 . S
C2067 C2068 1.389 . S
C2068 C2067 1.389 . S
C2068 C2069 1.387 . S
C2069 H2054 0.930 . S
C2069 C2064 1.390 . S
C2069 C2068 1.387 . S
H2070 C2082 0.930 . S
H2071 C2084 0.930 . S
H2072 C2085 0.930 . S
H2073 C2089 0.959 . S
H2074 C2089 0.959 . S
H2075 C2089 0.961 . S
H2076 C2090 0.960 . S
H2077 C2090 0.961 . S
H2078 C2090 0.959 . S
H2079 C2093 0.929 . S
H2080 C2094 0.931 . S
H2081 C2096 0.930 . S
C2082 H2070 0.930 . S
C2082 C2083 1.399 . S
C2082 C2087 1.399 . S
C2083 C2082 1.399 . S
C2083 C2084 1.376 . S
C2084 H2071 0.930 . S
C2084 C2083 1.376 . S
C2084 C2085 1.388 . S
C2085 H2072 0.930 . S
C2085 C2084 1.388 . S
C2085 C2086 1.390 . S
C2086 C2085 1.390 . S
C2086 C2087 1.394 . S
C2086 C2092 1.465 . S
C2087 C2082 1.399 . S
C2087 C2086 1.394 . S
C2087 C2088 1.516 . S
C2088 C2087 1.516 . S
C2088 C2089 1.502 . S
C2088 C2090 1.561 . S
C2088 C2091 1.526 . S
C2089 H2073 0.959 . S
C2089 H2074 0.959 . S
C2089 H2075 0.961 . S
C2089 C2088 1.502 . S
C2090 H2076 0.960 . S
C2090 H2077 0.961 . S
C2090 H2078 0.959 . S
C2090 C2088 1.561 . S
C2091 C2088 1.526 . S
C2091 C2092 1.396 . S
C2091 C2096 1.390 . S
C2092 C2086 1.465 . S
C2092 C2091 1.396 . S
C2092 C2093 1.399 . S
C2093 H2079 0.929 . S
C2093 C2092 1.399 . S
C2093 C2094 1.385 . S
C2094 H2080 0.931 . S
C2094 C2093 1.385 . S
C2094 C2095 1.389 . S
C2095 C2094 1.389 . S
C2095 C2096 1.387 . S
C2096 H2081 0.930 . S
C2096 C2091 1.390 . S
C2096 C2095 1.387 . S
H2097 C2109 0.930 . S
H2098 C2111 0.930 . S
H2099 C2112 0.930 . S
H2100 C2116 0.959 . S
H2101 C2116 0.959 . S
H2102 C2116 0.961 . S
H2103 C2117 0.960 . S
H2104 C2117 0.961 . S
H2105 C2117 0.959 . S
H2106 C2120 0.929 . S
H2107 C2121 0.931 . S
H2108 C2123 0.930 . S
C2109 H2097 0.930 . S
C2109 C2110 1.399 . S
C2109 C2114 1.399 . S
C2110 C2109 1.399 . S
C2110 C2111 1.376 . S
C2111 H2098 0.930 . S
C2111 C2110 1.376 . S
C2111 C2112 1.388 . S
C2112 H2099 0.930 . S
C2112 C2111 1.388 . S
C2112 C2113 1.390 . S
C2113 C2112 1.390 . S
C2113 C2114 1.394 . S
C2113 C2119 1.465 . S
C2114 C2109 1.399 . S
C2114 C2113 1.394 . S
C2114 C2115 1.516 . S
C2115 C2114 1.516 . S
C2115 C2116 1.502 . S
C2115 C2117 1.561 . S
C2115 C2118 1.526 . S
C2116 H2100 0.959 . S
C2116 H2101 0.959 . S
C2116 H2102 0.961 . S
C2116 C2115 1.502 . S
C2117 H2103 0.960 . S
C2117 H2104 0.961 . S
C2117 H2105 0.959 . S
C2117 C2115 1.561 . S
C2118 C2115 1.526 . S
C2118 C2119 1.396 . S
C2118 C2123 1.390 . S
C2119 C2113 1.465 . S
C2119 C2118 1.396 . S
C2119 C2120 1.399 . S
C2120 H2106 0.929 . S
C2120 C2119 1.399 . S
C2120 C2121 1.385 . S
C2121 H2107 0.931 . S
C2121 C2120 1.385 . S
C2121 C2122 1.389 . S
C2122 C2121 1.389 . S
C2122 C2123 1.387 . S
C2123 H2108 0.930 . S
C2123 C2118 1.390 . S
C2123 C2122 1.387 . S
H2124 C2136 0.930 . S
H2125 C2138 0.930 . S
H2126 C2139 0.930 . S
H2127 C2143 0.959 . S
H2128 C2143 0.959 . S
H2129 C2143 0.961 . S
H2130 C2144 0.960 . S
H2131 C2144 0.961 . S
H2132 C2144 0.959 . S
H2133 C2147 0.929 . S
H2134 C2148 0.931 . S
H2135 C2150 0.930 . S
C2136 H2124 0.930 . S
C2136 C2137 1.399 . S
C2136 C2141 1.399 . S
C2137 C2136 1.399 . S
C2137 C2138 1.376 . S
C2138 H2125 0.930 . S
C2138 C2137 1.376 . S
C2138 C2139 1.388 . S
C2139 H2126 0.930 . S
C2139 C2138 1.388 . S
C2139 C2140 1.390 . S
C2140 C2139 1.390 . S
C2140 C2141 1.394 . S
C2140 C2146 1.465 . S
C2141 C2136 1.399 . S
C2141 C2140 1.394 . S
C2141 C2142 1.516 . S
C2142 C2141 1.516 . S
C2142 C2143 1.502 . S
C2142 C2144 1.561 . S
C2142 C2145 1.526 . S
C2143 H2127 0.959 . S
C2143 H2128 0.959 . S
C2143 H2129 0.961 . S
C2143 C2142 1.502 . S
C2144 H2130 0.960 . S
C2144 H2131 0.961 . S
C2144 H2132 0.959 . S
C2144 C2142 1.561 . S
C2145 C2142 1.526 . S
C2145 C2146 1.396 . S
C2145 C2150 1.390 . S
C2146 C2140 1.465 . S
C2146 C2145 1.396 . S
C2146 C2147 1.399 . S
C2147 H2133 0.929 . S
C2147 C2146 1.399 . S
C2147 C2148 1.385 . S
C2148 H2134 0.931 . S
C2148 C2147 1.385 . S
C2148 C2149 1.389 . S
C2149 C2148 1.389 . S
C2149 C2150 1.387 . S
C2150 H2135 0.930 . S
C2150 C2145 1.390 . S
C2150 C2149 1.387 . S
H2151 C2163 0.930 . S
H2152 C2165 0.930 . S
H2153 C2166 0.930 . S
H2154 C2170 0.959 . S
H2155 C2170 0.959 . S
H2156 C2170 0.961 . S
H2157 C2171 0.960 . S
H2158 C2171 0.961 . S
H2159 C2171 0.959 . S
H2160 C2174 0.929 . S
H2161 C2175 0.931 . S
H2162 C2177 0.930 . S
C2163 H2151 0.930 . S
C2163 C2164 1.399 . S
C2163 C2168 1.399 . S
C2164 C2163 1.399 . S
C2164 C2165 1.376 . S
C2165 H2152 0.930 . S
C2165 C2164 1.376 . S
C2165 C2166 1.388 . S
C2166 H2153 0.930 . S
C2166 C2165 1.388 . S
C2166 C2167 1.390 . S
C2167 C2166 1.390 . S
C2167 C2168 1.394 . S
C2167 C2173 1.465 . S
C2168 C2163 1.399 . S
C2168 C2167 1.394 . S
C2168 C2169 1.516 . S
C2169 C2168 1.516 . S
C2169 C2170 1.502 . S
C2169 C2171 1.561 . S
C2169 C2172 1.526 . S
C2170 H2154 0.959 . S
C2170 H2155 0.959 . S
C2170 H2156 0.961 . S
C2170 C2169 1.502 . S
C2171 H2157 0.960 . S
C2171 H2158 0.961 . S
C2171 H2159 0.959 . S
C2171 C2169 1.561 . S
C2172 C2169 1.526 . S
C2172 C2173 1.396 . S
C2172 C2177 1.390 . S
C2173 C2167 1.465 . S
C2173 C2172 1.396 . S
C2173 C2174 1.399 . S
C2174 H2160 0.929 . S
C2174 C2173 1.399 . S
C2174 C2175 1.385 . S
C2175 H2161 0.931 . S
C2175 C2174 1.385 . S
C2175 C2176 1.389 . S
C2176 C2175 1.389 . S
C2176 C2177 1.387 . S
C2177 H2162 0.930 . S
C2177 C2172 1.390 . S
C2177 C2176 1.387 . S
H2178 C2190 0.930 . S
H2179 C2192 0.930 . S
H2180 C2193 0.930 . S
H2181 C2197 0.959 . S
H2182 C2197 0.959 . S
H2183 C2197 0.961 . S
H2184 C2198 0.960 . S
H2185 C2198 0.961 . S
H2186 C2198 0.959 . S
H2187 C2201 0.929 . S
H2188 C2202 0.931 . S
H2189 C2204 0.930 . S
C2190 H2178 0.930 . S
C2190 C2191 1.399 . S
C2190 C2195 1.399 . S
C2191 C2190 1.399 . S
C2191 C2192 1.376 . S
C2192 H2179 0.930 . S
C2192 C2191 1.376 . S
C2192 C2193 1.388 . S
C2193 H2180 0.930 . S
C2193 C2192 1.388 . S
C2193 C2194 1.390 . S
C2194 C2193 1.390 . S
C2194 C2195 1.394 . S
C2194 C2200 1.465 . S
C2195 C2190 1.399 . S
C2195 C2194 1.394 . S
C2195 C2196 1.516 . S
C2196 C2195 1.516 . S
C2196 C2197 1.502 . S
C2196 C2198 1.561 . S
C2196 C2199 1.526 . S
C2197 H2181 0.959 . S
C2197 H2182 0.959 . S
C2197 H2183 0.961 . S
C2197 C2196 1.502 . S
C2198 H2184 0.960 . S
C2198 H2185 0.961 . S
C2198 H2186 0.959 . S
C2198 C2196 1.561 . S
C2199 C2196 1.526 . S
C2199 C2200 1.396 . S
C2199 C2204 1.390 . S
C2200 C2194 1.465 . S
C2200 C2199 1.396 . S
C2200 C2201 1.399 . S
C2201 H2187 0.929 . S
C2201 C2200 1.399 . S
C2201 C2202 1.385 . S
C2202 H2188 0.931 . S
C2202 C2201 1.385 . S
C2202 C2203 1.389 . S
C2203 C2202 1.389 . S
C2203 C2204 1.387 . S
C2204 H2189 0.930 . S
C2204 C2199 1.390 . S
C2204 C2203 1.387 . S
H2205 C2217 0.930 . S
H2206 C2219 0.930 . S
H2207 C2220 0.930 . S
H2208 C2224 0.959 . S
H2209 C2224 0.959 . S
H2210 C2224 0.961 . S
H2211 C2225 0.960 . S
H2212 C2225 0.961 . S
H2213 C2225 0.959 . S
H2214 C2228 0.929 . S
H2215 C2229 0.931 . S
H2216 C2231 0.930 . S
C2217 H2205 0.930 . S
C2217 C2218 1.399 . S
C2217 C2222 1.399 . S
C2218 C2217 1.399 . S
C2218 C2219 1.376 . S
C2219 H2206 0.930 . S
C2219 C2218 1.376 . S
C2219 C2220 1.388 . S
C2220 H2207 0.930 . S
C2220 C2219 1.388 . S
C2220 C2221 1.390 . S
C2221 C2220 1.390 . S
C2221 C2222 1.394 . S
C2221 C2227 1.465 . S
C2222 C2217 1.399 . S
C2222 C2221 1.394 . S
C2222 C2223 1.516 . S
C2223 C2222 1.516 . S
C2223 C2224 1.502 . S
C2223 C2225 1.561 . S
C2223 C2226 1.526 . S
C2224 H2208 0.959 . S
C2224 H2209 0.959 . S
C2224 H2210 0.961 . S
C2224 C2223 1.502 . S
C2225 H2211 0.960 . S
C2225 H2212 0.961 . S
C2225 H2213 0.959 . S
C2225 C2223 1.561 . S
C2226 C2223 1.526 . S
C2226 C2227 1.396 . S
C2226 C2231 1.390 . S
C2227 C2221 1.465 . S
C2227 C2226 1.396 . S
C2227 C2228 1.399 . S
C2228 H2214 0.929 . S
C2228 C2227 1.399 . S
C2228 C2229 1.385 . S
C2229 H2215 0.931 . S
C2229 C2228 1.385 . S
C2229 C2230 1.389 . S
C2230 C2229 1.389 . S
C2230 C2231 1.387 . S
C2231 H2216 0.930 . S
C2231 C2226 1.390 . S
C2231 C2230 1.387 . S
H2232 C2244 0.930 . S
H2233 C2246 0.930 . S
H2234 C2247 0.930 . S
H2235 C2251 0.959 . S
H2236 C2251 0.959 . S
H2237 C2251 0.961 . S
H2238 C2252 0.960 . S
H2239 C2252 0.961 . S
H2240 C2252 0.959 . S
H2241 C2255 0.929 . S
H2242 C2256 0.931 . S
H2243 C2258 0.930 . S
C2244 H2232 0.930 . S
C2244 C2245 1.399 . S
C2244 C2249 1.399 . S
C2245 C2244 1.399 . S
C2245 C2246 1.376 . S
C2246 H2233 0.930 . S
C2246 C2245 1.376 . S
C2246 C2247 1.388 . S
C2247 H2234 0.930 . S
C2247 C2246 1.388 . S
C2247 C2248 1.390 . S
C2248 C2247 1.390 . S
C2248 C2249 1.394 . S
C2248 C2254 1.465 . S
C2249 C2244 1.399 . S
C2249 C2248 1.394 . S
C2249 C2250 1.516 . S
C2250 C2249 1.516 . S
C2250 C2251 1.502 . S
C2250 C2252 1.561 . S
C2250 C2253 1.526 . S
C2251 H2235 0.959 . S
C2251 H2236 0.959 . S
C2251 H2237 0.961 . S
C2251 C2250 1.502 . S
C2252 H2238 0.960 . S
C2252 H2239 0.961 . S
C2252 H2240 0.959 . S
C2252 C2250 1.561 . S
C2253 C2250 1.526 . S
C2253 C2254 1.396 . S
C2253 C2258 1.390 . S
C2254 C2248 1.465 . S
C2254 C2253 1.396 . S
C2254 C2255 1.399 . S
C2255 H2241 0.929 . S
C2255 C2254 1.399 . S
C2255 C2256 1.385 . S
C2256 H2242 0.931 . S
C2256 C2255 1.385 . S
C2256 C2257 1.389 . S
C2257 C2256 1.389 . S
C2257 C2258 1.387 . S
C2258 H2243 0.930 . S
C2258 C2253 1.390 . S
C2258 C2257 1.387 . S
H2259 C2271 0.930 . S
H2260 C2273 0.930 . S
H2261 C2274 0.930 . S
H2262 C2278 0.959 . S
H2263 C2278 0.959 . S
H2264 C2278 0.961 . S
H2265 C2279 0.960 . S
H2266 C2279 0.961 . S
H2267 C2279 0.959 . S
H2268 C2282 0.929 . S
H2269 C2283 0.931 . S
H2270 C2285 0.930 . S
C2271 H2259 0.930 . S
C2271 C2272 1.399 . S
C2271 C2276 1.399 . S
C2272 C2271 1.399 . S
C2272 C2273 1.376 . S
C2273 H2260 0.930 . S
C2273 C2272 1.376 . S
C2273 C2274 1.388 . S
C2274 H2261 0.930 . S
C2274 C2273 1.388 . S
C2274 C2275 1.390 . S
C2275 C2274 1.390 . S
C2275 C2276 1.394 . S
C2275 C2281 1.465 . S
C2276 C2271 1.399 . S
C2276 C2275 1.394 . S
C2276 C2277 1.516 . S
C2277 C2276 1.516 . S
C2277 C2278 1.502 . S
C2277 C2279 1.561 . S
C2277 C2280 1.526 . S
C2278 H2262 0.959 . S
C2278 H2263 0.959 . S
C2278 H2264 0.961 . S
C2278 C2277 1.502 . S
C2279 H2265 0.960 . S
C2279 H2266 0.961 . S
C2279 H2267 0.959 . S
C2279 C2277 1.561 . S
C2280 C2277 1.526 . S
C2280 C2281 1.396 . S
C2280 C2285 1.390 . S
C2281 C2275 1.465 . S
C2281 C2280 1.396 . S
C2281 C2282 1.399 . S
C2282 H2268 0.929 . S
C2282 C2281 1.399 . S
C2282 C2283 1.385 . S
C2283 H2269 0.931 . S
C2283 C2282 1.385 . S
C2283 C2284 1.389 . S
C2284 C2283 1.389 . S
C2284 C2285 1.387 . S
C2285 H2270 0.930 . S
C2285 C2280 1.390 . S
C2285 C2284 1.387 . S
H2286 C2298 0.930 . S
H2287 C2300 0.930 . S
H2288 C2301 0.930 . S
H2289 C2305 0.959 . S
H2290 C2305 0.959 . S
H2291 C2305 0.961 . S
H2292 C2306 0.960 . S
H2293 C2306 0.961 . S
H2294 C2306 0.959 . S
H2295 C2309 0.929 . S
H2296 C2310 0.931 . S
H2297 C2312 0.930 . S
C2298 H2286 0.930 . S
C2298 C2299 1.399 . S
C2298 C2303 1.399 . S
C2299 C2298 1.399 . S
C2299 C2300 1.376 . S
C2300 H2287 0.930 . S
C2300 C2299 1.376 . S
C2300 C2301 1.388 . S
C2301 H2288 0.930 . S
C2301 C2300 1.388 . S
C2301 C2302 1.390 . S
C2302 C2301 1.390 . S
C2302 C2303 1.394 . S
C2302 C2308 1.465 . S
C2303 C2298 1.399 . S
C2303 C2302 1.394 . S
C2303 C2304 1.516 . S
C2304 C2303 1.516 . S
C2304 C2305 1.502 . S
C2304 C2306 1.561 . S
C2304 C2307 1.526 . S
C2305 H2289 0.959 . S
C2305 H2290 0.959 . S
C2305 H2291 0.961 . S
C2305 C2304 1.502 . S
C2306 H2292 0.960 . S
C2306 H2293 0.961 . S
C2306 H2294 0.959 . S
C2306 C2304 1.561 . S
C2307 C2304 1.526 . S
C2307 C2308 1.396 . S
C2307 C2312 1.390 . S
C2308 C2302 1.465 . S
C2308 C2307 1.396 . S
C2308 C2309 1.399 . S
C2309 H2295 0.929 . S
C2309 C2308 1.399 . S
C2309 C2310 1.385 . S
C2310 H2296 0.931 . S
C2310 C2309 1.385 . S
C2310 C2311 1.389 . S
C2311 C2310 1.389 . S
C2311 C2312 1.387 . S
C2312 H2297 0.930 . S
C2312 C2307 1.390 . S
C2312 C2311 1.387 . S
H2313 C2325 0.930 . S
H2314 C2327 0.930 . S
H2315 C2328 0.930 . S
H2316 C2332 0.959 . S
H2317 C2332 0.959 . S
H2318 C2332 0.961 . S
H2319 C2333 0.960 . S
H2320 C2333 0.961 . S
H2321 C2333 0.959 . S
H2322 C2336 0.929 . S
H2323 C2337 0.931 . S
H2324 C2339 0.930 . S
C2325 H2313 0.930 . S
C2325 C2326 1.399 . S
C2325 C2330 1.399 . S
C2326 C2325 1.399 . S
C2326 C2327 1.376 . S
C2327 H2314 0.930 . S
C2327 C2326 1.376 . S
C2327 C2328 1.388 . S
C2328 H2315 0.930 . S
C2328 C2327 1.388 . S
C2328 C2329 1.390 . S
C2329 C2328 1.390 . S
C2329 C2330 1.394 . S
C2329 C2335 1.465 . S
C2330 C2325 1.399 . S
C2330 C2329 1.394 . S
C2330 C2331 1.516 . S
C2331 C2330 1.516 . S
C2331 C2332 1.502 . S
C2331 C2333 1.561 . S
C2331 C2334 1.526 . S
C2332 H2316 0.959 . S
C2332 H2317 0.959 . S
C2332 H2318 0.961 . S
C2332 C2331 1.502 . S
C2333 H2319 0.960 . S
C2333 H2320 0.961 . S
C2333 H2321 0.959 . S
C2333 C2331 1.561 . S
C2334 C2331 1.526 . S
C2334 C2335 1.396 . S
C2334 C2339 1.390 . S
C2335 C2329 1.465 . S
C2335 C2334 1.396 . S
C2335 C2336 1.399 . S
C2336 H2322 0.929 . S
C2336 C2335 1.399 . S
C2336 C2337 1.385 . S
C2337 H2323 0.931 . S
C2337 C2336 1.385 . S
C2337 C2338 1.389 . S
C2338 C2337 1.389 . S
C2338 C2339 1.387 . S
C2339 H2324 0.930 . S
C2339 C2334 1.390 . S
C2339 C2338 1.387 . S
H2340 C2352 0.930 . S
H2341 C2354 0.930 . S
H2342 C2355 0.930 . S
H2343 C2359 0.959 . S
H2344 C2359 0.959 . S
H2345 C2359 0.961 . S
H2346 C2360 0.960 . S
H2347 C2360 0.961 . S
H2348 C2360 0.959 . S
H2349 C2363 0.929 . S
H2350 C2364 0.931 . S
H2351 C2366 0.930 . S
C2352 H2340 0.930 . S
C2352 C2353 1.399 . S
C2352 C2357 1.399 . S
C2353 C2352 1.399 . S
C2353 C2354 1.376 . S
C2354 H2341 0.930 . S
C2354 C2353 1.376 . S
C2354 C2355 1.388 . S
C2355 H2342 0.930 . S
C2355 C2354 1.388 . S
C2355 C2356 1.390 . S
C2356 C2355 1.390 . S
C2356 C2357 1.394 . S
C2356 C2362 1.465 . S
C2357 C2352 1.399 . S
C2357 C2356 1.394 . S
C2357 C2358 1.516 . S
C2358 C2357 1.516 . S
C2358 C2359 1.502 . S
C2358 C2360 1.561 . S
C2358 C2361 1.526 . S
C2359 H2343 0.959 . S
C2359 H2344 0.959 . S
C2359 H2345 0.961 . S
C2359 C2358 1.502 . S
C2360 H2346 0.960 . S
C2360 H2347 0.961 . S
C2360 H2348 0.959 . S
C2360 C2358 1.561 . S
C2361 C2358 1.526 . S
C2361 C2362 1.396 . S
C2361 C2366 1.390 . S
C2362 C2356 1.465 . S
C2362 C2361 1.396 . S
C2362 C2363 1.399 . S
C2363 H2349 0.929 . S
C2363 C2362 1.399 . S
C2363 C2364 1.385 . S
C2364 H2350 0.931 . S
C2364 C2363 1.385 . S
C2364 C2365 1.389 . S
C2365 C2364 1.389 . S
C2365 C2366 1.387 . S
C2366 H2351 0.930 . S
C2366 C2361 1.390 . S
C2366 C2365 1.387 . S
H2367 C2379 0.930 . S
H2368 C2381 0.930 . S
H2369 C2382 0.930 . S
H2370 C2386 0.959 . S
H2371 C2386 0.959 . S
H2372 C2386 0.961 . S
H2373 C2387 0.960 . S
H2374 C2387 0.961 . S
H2375 C2387 0.959 . S
H2376 C2390 0.929 . S
H2377 C2391 0.931 . S
H2378 C2393 0.930 . S
C2379 H2367 0.930 . S
C2379 C2380 1.399 . S
C2379 C2384 1.399 . S
C2380 C2379 1.399 . S
C2380 C2381 1.376 . S
C2381 H2368 0.930 . S
C2381 C2380 1.376 . S
C2381 C2382 1.388 . S
C2382 H2369 0.930 . S
C2382 C2381 1.388 . S
C2382 C2383 1.390 . S
C2383 C2382 1.390 . S
C2383 C2384 1.394 . S
C2383 C2389 1.465 . S
C2384 C2379 1.399 . S
C2384 C2383 1.394 . S
C2384 C2385 1.516 . S
C2385 C2384 1.516 . S
C2385 C2386 1.502 . S
C2385 C2387 1.561 . S
C2385 C2388 1.526 . S
C2386 H2370 0.959 . S
C2386 H2371 0.959 . S
C2386 H2372 0.961 . S
C2386 C2385 1.502 . S
C2387 H2373 0.960 . S
C2387 H2374 0.961 . S
C2387 H2375 0.959 . S
C2387 C2385 1.561 . S
C2388 C2385 1.526 . S
C2388 C2389 1.396 . S
C2388 C2393 1.390 . S
C2389 C2383 1.465 . S
C2389 C2388 1.396 . S
C2389 C2390 1.399 . S
C2390 H2376 0.929 . S
C2390 C2389 1.399 . S
C2390 C2391 1.385 . S
C2391 H2377 0.931 . S
C2391 C2390 1.385 . S
C2391 C2392 1.389 . S
C2392 C2391 1.389 . S
C2392 C2393 1.387 . S
C2393 H2378 0.930 . S
C2393 C2388 1.390 . S
C2393 C2392 1.387 . S
H2394 C2406 0.930 . S
H2395 C2408 0.930 . S
H2396 C2409 0.930 . S
H2397 C2413 0.959 . S
H2398 C2413 0.959 . S
H2399 C2413 0.961 . S
H2400 C2414 0.960 . S
H2401 C2414 0.961 . S
H2402 C2414 0.959 . S
H2403 C2417 0.929 . S
H2404 C2418 0.931 . S
H2405 C2420 0.930 . S
C2406 H2394 0.930 . S
C2406 C2407 1.399 . S
C2406 C2411 1.399 . S
C2407 C2406 1.399 . S
C2407 C2408 1.376 . S
C2408 H2395 0.930 . S
C2408 C2407 1.376 . S
C2408 C2409 1.388 . S
C2409 H2396 0.930 . S
C2409 C2408 1.388 . S
C2409 C2410 1.390 . S
C2410 C2409 1.390 . S
C2410 C2411 1.394 . S
C2410 C2416 1.465 . S
C2411 C2406 1.399 . S
C2411 C2410 1.394 . S
C2411 C2412 1.516 . S
C2412 C2411 1.516 . S
C2412 C2413 1.502 . S
C2412 C2414 1.561 . S
C2412 C2415 1.526 . S
C2413 H2397 0.959 . S
C2413 H2398 0.959 . S
C2413 H2399 0.961 . S
C2413 C2412 1.502 . S
C2414 H2400 0.960 . S
C2414 H2401 0.961 . S
C2414 H2402 0.959 . S
C2414 C2412 1.561 . S
C2415 C2412 1.526 . S
C2415 C2416 1.396 . S
C2415 C2420 1.390 . S
C2416 C2410 1.465 . S
C2416 C2415 1.396 . S
C2416 C2417 1.399 . S
C2417 H2403 0.929 . S
C2417 C2416 1.399 . S
C2417 C2418 1.385 . S
C2418 H2404 0.931 . S
C2418 C2417 1.385 . S
C2418 C2419 1.389 . S
C2419 C2418 1.389 . S
C2419 C2420 1.387 . S
C2420 H2405 0.930 . S
C2420 C2415 1.390 . S
C2420 C2419 1.387 . S
H2421 C2433 0.891 1_554 S
H2422 C2435 0.930 . S
H2423 C2436 0.930 . S
H2424 C2440 0.959 1_556 S
H2425 C2440 0.959 . S
H2426 C2440 0.961 . S
H2427 C2441 0.960 . S
H2428 C2441 0.961 . S
H2429 C2441 0.959 . S
H2430 C2444 0.929 . S
H2431 C2445 0.931 . S
H2432 C2447 0.930 . S
C2433 H2421 0.891 1_556 S
C2433 C2434 1.418 . S
C2433 C2438 1.421 . S
C2434 C2433 1.418 . S
C2434 C2435 1.376 . S
C2435 H2422 0.930 . S
C2435 C2434 1.376 . S
C2435 C2436 1.388 . S
C2436 H2423 0.930 . S
C2436 C2435 1.388 . S
C2436 C2437 1.390 . S
C2437 C2436 1.390 . S
C2437 C2438 1.394 . S
C2437 C2443 1.465 . S
C2438 C2433 1.421 . S
C2438 C2437 1.394 . S
C2438 C2439 1.516 . S
C2439 C2438 1.516 . S
C2439 C2440 1.502 1_556 S
C2439 C2441 1.561 1_556 S
C2439 C2442 1.526 . S
C2440 H2424 0.959 1_554 S
C2440 H2425 0.959 . S
C2440 H2426 0.961 . S
C2440 C2439 1.502 1_554 S
C2441 H2427 0.960 . S
C2441 H2428 0.961 . S
C2441 H2429 0.959 . S
C2441 C2439 1.561 1_554 S
C2442 C2439 1.526 . S
C2442 C2443 1.396 . S
C2442 C2447 1.390 . S
C2443 C2437 1.465 . S
C2443 C2442 1.396 . S
C2443 C2444 1.399 . S
C2444 H2430 0.929 . S
C2444 C2443 1.399 . S
C2444 C2445 1.385 . S
C2445 H2431 0.931 . S
C2445 C2444 1.385 . S
C2445 C2446 1.389 . S
C2446 C2445 1.389 . S
C2446 C2447 1.387 . S
C2447 H2432 0.930 . S
C2447 C2442 1.390 . S
C2447 C2446 1.387 . S
H2448 C2460 0.940 . S
H2449 C2462 0.930 . S
H2450 C2463 0.930 . S
H2451 C2467 0.959 1_556 S
H2452 C2467 0.959 . S
H2453 C2467 0.961 . S
H2454 C2468 0.960 . S
H2455 C2468 0.961 . S
H2456 C2468 0.959 . S
H2457 C2471 0.929 . S
H2458 C2472 0.931 . S
H2459 C2474 0.930 . S
C2460 H2448 0.940 . S
C2460 C2461 1.394 1_554 S
C2460 C2465 1.393 1_554 S
C2461 C2460 1.394 1_556 S
C2461 C2462 1.376 . S
C2462 H2449 0.930 . S
C2462 C2461 1.376 . S
C2462 C2463 1.388 . S
C2463 H2450 0.930 . S
C2463 C2462 1.388 . S
C2463 C2464 1.390 . S
C2464 C2463 1.390 . S
C2464 C2465 1.394 . S
C2464 C2470 1.465 . S
C2465 C2460 1.393 1_556 S
C2465 C2464 1.394 . S
C2465 C2466 1.516 . S
C2466 C2465 1.516 . S
C2466 C2467 1.502 1_556 S
C2466 C2468 1.561 1_556 S
C2466 C2469 1.526 . S
C2467 H2451 0.959 1_554 S
C2467 H2452 0.959 . S
C2467 H2453 0.961 . S
C2467 C2466 1.502 1_554 S
C2468 H2454 0.960 . S
C2468 H2455 0.961 . S
C2468 H2456 0.959 . S
C2468 C2466 1.561 1_554 S
C2469 C2466 1.526 . S
C2469 C2470 1.396 . S
C2469 C2474 1.390 . S
C2470 C2464 1.465 . S
C2470 C2469 1.396 . S
C2470 C2471 1.399 . S
C2471 H2457 0.929 . S
C2471 C2470 1.399 . S
C2471 C2472 1.385 . S
C2472 H2458 0.931 . S
C2472 C2471 1.385 . S
C2472 C2473 1.389 . S
C2473 C2472 1.389 . S
C2473 C2474 1.387 . S
C2474 H2459 0.930 . S
C2474 C2469 1.390 . S
C2474 C2473 1.387 . S
H2475 C2487 0.930 . S
H2476 C2489 0.930 . S
H2477 C2490 0.930 1_554 S
H2478 C2494 0.959 . S
H2479 C2494 0.959 . S
H2480 C2494 0.961 . S
H2481 C2495 0.960 . S
H2482 C2495 0.961 . S
H2483 C2495 0.959 . S
H2484 C2498 0.929 . S
H2485 C2499 0.931 . S
H2486 C2501 0.930 . S
C2487 H2475 0.930 . S
C2487 C2488 1.399 . S
C2487 C2492 1.399 . S
C2488 C2487 1.399 . S
C2488 C2489 1.376 1_556 S
C2489 H2476 0.930 . S
C2489 C2488 1.376 1_554 S
C2489 C2490 1.388 1_554 S
C2490 H2477 0.930 1_556 S
C2490 C2489 1.388 1_556 S
C2490 C2491 1.390 . S
C2491 C2490 1.390 . S
C2491 C2492 1.394 . S
C2491 C2497 1.465 . S
C2492 C2487 1.399 . S
C2492 C2491 1.394 . S
C2492 C2493 1.516 . S
C2493 C2492 1.516 . S
C2493 C2494 1.502 . S
C2493 C2495 1.561 . S
C2493 C2496 1.526 . S
C2494 H2478 0.959 . S
C2494 H2479 0.959 . S
C2494 H2480 0.961 . S
C2494 C2493 1.502 . S
C2495 H2481 0.960 . S
C2495 H2482 0.961 . S
C2495 H2483 0.959 . S
C2495 C2493 1.561 . S
C2496 C2493 1.526 . S
C2496 C2497 1.396 . S
C2496 C2501 1.390 . S
C2497 C2491 1.465 . S
C2497 C2496 1.396 . S
C2497 C2498 1.399 . S
C2498 H2484 0.929 . S
C2498 C2497 1.399 . S
C2498 C2499 1.385 . S
C2499 H2485 0.931 . S
C2499 C2498 1.385 . S
C2499 C2500 1.389 . S
C2500 C2499 1.389 . S
C2500 C2501 1.387 . S
C2501 H2486 0.930 . S
C2501 C2496 1.390 . S
C2501 C2500 1.387 . S
H2502 C2514 0.930 1_554 S
H2503 C2516 0.930 . S
H2504 C2517 0.930 . S
H2505 C2521 0.959 . S
H2506 C2521 0.959 . S
H2507 C2521 0.961 . S
H2508 C2522 0.960 1_554 S
H2509 C2522 0.961 1_554 S
H2510 C2522 0.959 . S
H2511 C2525 0.929 . S
H2512 C2526 0.931 . S
H2513 C2528 0.930 . S
C2514 H2502 0.930 1_556 S
C2514 C2515 1.399 . S
C2514 C2519 1.399 . S
C2515 C2514 1.399 . S
C2515 C2516 1.376 . S
C2516 H2503 0.930 . S
C2516 C2515 1.376 . S
C2516 C2517 1.388 . S
C2517 H2504 0.930 . S
C2517 C2516 1.388 . S
C2517 C2518 1.390 . S
C2518 C2517 1.390 . S
C2518 C2519 1.394 . S
C2518 C2524 1.465 . S
C2519 C2514 1.399 . S
C2519 C2518 1.394 . S
C2519 C2520 1.516 . S
C2520 C2519 1.516 . S
C2520 C2521 1.502 1_556 S
C2520 C2522 1.561 . S
C2520 C2523 1.526 . S
C2521 H2505 0.959 . S
C2521 H2506 0.959 . S
C2521 H2507 0.961 . S
C2521 C2520 1.502 1_554 S
C2522 H2508 0.960 1_556 S
C2522 H2509 0.961 1_556 S
C2522 H2510 0.959 . S
C2522 C2520 1.561 . S
C2523 C2520 1.526 . S
C2523 C2524 1.396 . S
C2523 C2528 1.390 . S
C2524 C2518 1.465 . S
C2524 C2523 1.396 . S
C2524 C2525 1.399 . S
C2525 H2511 0.929 . S
C2525 C2524 1.399 . S
C2525 C2526 1.385 . S
C2526 H2512 0.931 . S
C2526 C2525 1.385 . S
C2526 C2527 1.389 . S
C2527 C2526 1.389 . S
C2527 C2528 1.387 . S
C2528 H2513 0.930 . S
C2528 C2523 1.390 . S
C2528 C2527 1.387 . S
H2529 C2541 0.930 . S
H2530 C2543 0.930 . S
H2531 C2544 0.930 . S
H2532 C2548 0.959 . S
H2533 C2548 0.959 . S
H2534 C2548 0.961 . S
H2535 C2549 0.960 . S
H2536 C2549 0.961 . S
H2537 C2549 0.959 . S
H2538 C2552 0.929 1_554 S
H2539 C2553 0.931 . S
H2540 C2555 0.930 . S
C2541 H2529 0.930 . S
C2541 C2542 1.399 . S
C2541 C2546 1.399 . S
C2542 C2541 1.399 . S
C2542 C2543 1.376 1_556 S
C2543 H2530 0.930 . S
C2543 C2542 1.376 1_554 S
C2543 C2544 1.388 . S
C2544 H2531 0.930 . S
C2544 C2543 1.388 . S
C2544 C2545 1.390 1_554 S
C2545 C2544 1.390 1_556 S
C2545 C2546 1.394 . S
C2545 C2551 1.465 . S
C2546 C2541 1.399 . S
C2546 C2545 1.394 . S
C2546 C2547 1.516 . S
C2547 C2546 1.516 . S
C2547 C2548 1.502 . S
C2547 C2549 1.561 . S
C2547 C2550 1.526 . S
C2548 H2532 0.959 . S
C2548 H2533 0.959 . S
C2548 H2534 0.961 . S
C2548 C2547 1.502 . S
C2549 H2535 0.960 . S
C2549 H2536 0.961 . S
C2549 H2537 0.959 . S
C2549 C2547 1.561 . S
C2550 C2547 1.526 . S
C2550 C2551 1.396 . S
C2550 C2555 1.390 . S
C2551 C2545 1.465 . S
C2551 C2550 1.396 . S
C2551 C2552 1.399 . S
C2552 H2538 0.929 1_556 S
C2552 C2551 1.399 . S
C2552 C2553 1.385 . S
C2553 H2539 0.931 . S
C2553 C2552 1.385 . S
C2553 C2554 1.389 . S
C2554 C2553 1.389 . S
C2554 C2555 1.387 . S
C2555 H2540 0.930 . S
C2555 C2550 1.390 . S
C2555 C2554 1.387 . S
H2556 C2568 0.930 . S
H2557 C2570 0.930 . S
H2558 C2571 0.930 . S
H2559 C2575 0.959 . S
H2560 C2575 0.959 . S
H2561 C2575 0.961 . S
H2562 C2576 0.960 . S
H2563 C2576 0.961 . S
H2564 C2576 0.959 . S
H2565 C2579 0.929 1_554 S
H2566 C2580 0.931 . S
H2567 C2582 0.930 . S
C2568 H2556 0.930 . S
C2568 C2569 1.399 . S
C2568 C2573 1.399 . S
C2569 C2568 1.399 . S
C2569 C2570 1.376 1_556 S
C2570 H2557 0.930 . S
C2570 C2569 1.376 1_554 S
C2570 C2571 1.388 . S
C2571 H2558 0.930 . S
C2571 C2570 1.388 . S
C2571 C2572 1.390 1_554 S
C2572 C2571 1.390 1_556 S
C2572 C2573 1.394 . S
C2572 C2578 1.465 . S
C2573 C2568 1.399 . S
C2573 C2572 1.394 . S
C2573 C2574 1.516 . S
C2574 C2573 1.516 . S
C2574 C2575 1.502 . S
C2574 C2576 1.561 . S
C2574 C2577 1.526 . S
C2575 H2559 0.959 . S
C2575 H2560 0.959 . S
C2575 H2561 0.961 . S
C2575 C2574 1.502 . S
C2576 H2562 0.960 . S
C2576 H2563 0.961 . S
C2576 H2564 0.959 . S
C2576 C2574 1.561 . S
C2577 C2574 1.526 . S
C2577 C2578 1.396 . S
C2577 C2582 1.390 . S
C2578 C2572 1.465 . S
C2578 C2577 1.396 . S
C2578 C2579 1.399 . S
C2579 H2565 0.929 1_556 S
C2579 C2578 1.399 . S
C2579 C2580 1.385 . S
C2580 H2566 0.931 . S
C2580 C2579 1.385 . S
C2580 C2581 1.389 . S
C2581 C2580 1.389 . S
C2581 C2582 1.387 . S
C2582 H2567 0.930 . S
C2582 C2577 1.390 . S
C2582 C2581 1.387 . S
H2583 C2595 0.930 . S
H2584 C2597 0.930 . S
H2585 C2598 0.930 . S
H2586 C2602 0.959 . S
H2587 C2602 0.959 . S
H2588 C2602 0.961 . S
H2589 C2603 0.960 . S
H2590 C2603 0.961 . S
H2591 C2603 0.959 . S
H2592 C2606 0.929 . S
H2593 C2607 0.931 . S
H2594 C2609 0.930 . S
C2595 H2583 0.930 . S
C2595 C2596 1.399 . S
C2595 C2600 1.399 . S
C2596 C2595 1.399 . S
C2596 C2597 1.376 . S
C2597 H2584 0.930 . S
C2597 C2596 1.376 . S
C2597 C2598 1.388 . S
C2598 H2585 0.930 . S
C2598 C2597 1.388 . S
C2598 C2599 1.390 . S
C2599 C2598 1.390 . S
C2599 C2600 1.394 . S
C2599 C2605 1.465 . S
C2600 C2595 1.399 . S
C2600 C2599 1.394 . S
C2600 C2601 1.516 . S
C2601 C2600 1.516 . S
C2601 C2602 1.502 . S
C2601 C2603 1.561 . S
C2601 C2604 1.526 . S
C2602 H2586 0.959 . S
C2602 H2587 0.959 . S
C2602 H2588 0.961 . S
C2602 C2601 1.502 . S
C2603 H2589 0.960 . S
C2603 H2590 0.961 . S
C2603 H2591 0.959 . S
C2603 C2601 1.561 . S
C2604 C2601 1.526 . S
C2604 C2605 1.396 . S
C2604 C2609 1.390 . S
C2605 C2599 1.465 . S
C2605 C2604 1.396 . S
C2605 C2606 1.399 . S
C2606 H2592 0.929 . S
C2606 C2605 1.399 . S
C2606 C2607 1.385 . S
C2607 H2593 0.931 . S
C2607 C2606 1.385 . S
C2607 C2608 1.389 . S
C2608 C2607 1.389 . S
C2608 C2609 1.387 . S
C2609 H2594 0.930 . S
C2609 C2604 1.390 . S
C2609 C2608 1.387 . S
H2610 C2622 0.930 . S
H2611 C2624 0.930 . S
H2612 C2625 0.930 . S
H2613 C2629 0.959 . S
H2614 C2629 0.959 . S
H2615 C2629 0.961 . S
H2616 C2630 0.960 . S
H2617 C2630 0.961 . S
H2618 C2630 0.959 . S
H2619 C2633 0.929 . S
H2620 C2634 0.931 . S
H2621 C2636 0.930 . S
C2622 H2610 0.930 . S
C2622 C2623 1.399 . S
C2622 C2627 1.399 . S
C2623 C2622 1.399 . S
C2623 C2624 1.376 . S
C2624 H2611 0.930 . S
C2624 C2623 1.376 . S
C2624 C2625 1.388 . S
C2625 H2612 0.930 . S
C2625 C2624 1.388 . S
C2625 C2626 1.390 . S
C2626 C2625 1.390 . S
C2626 C2627 1.394 . S
C2626 C2632 1.465 . S
C2627 C2622 1.399 . S
C2627 C2626 1.394 . S
C2627 C2628 1.516 . S
C2628 C2627 1.516 . S
C2628 C2629 1.502 . S
C2628 C2630 1.561 . S
C2628 C2631 1.526 . S
C2629 H2613 0.959 . S
C2629 H2614 0.959 . S
C2629 H2615 0.961 . S
C2629 C2628 1.502 . S
C2630 H2616 0.960 . S
C2630 H2617 0.961 . S
C2630 H2618 0.959 . S
C2630 C2628 1.561 . S
C2631 C2628 1.526 . S
C2631 C2632 1.396 . S
C2631 C2636 1.390 . S
C2632 C2626 1.465 . S
C2632 C2631 1.396 . S
C2632 C2633 1.399 . S
C2633 H2619 0.929 . S
C2633 C2632 1.399 . S
C2633 C2634 1.385 . S
C2634 H2620 0.931 . S
C2634 C2633 1.385 . S
C2634 C2635 1.389 . S
C2635 C2634 1.389 . S
C2635 C2636 1.387 . S
C2636 H2621 0.930 . S
C2636 C2631 1.390 . S
C2636 C2635 1.387 . S
H2637 C2649 0.930 . S
H2638 C2651 0.930 . S
H2639 C2652 0.930 . S
H2640 C2656 0.959 . S
H2641 C2656 0.959 . S
H2642 C2656 0.961 . S
H2643 C2657 0.960 . S
H2644 C2657 0.961 . S
H2645 C2657 0.959 . S
H2646 C2660 0.929 . S
H2647 C2661 0.931 . S
H2648 C2663 0.930 . S
C2649 H2637 0.930 . S
C2649 C2650 1.399 . S
C2649 C2654 1.399 . S
C2650 C2649 1.399 . S
C2650 C2651 1.376 . S
C2651 H2638 0.930 . S
C2651 C2650 1.376 . S
C2651 C2652 1.388 . S
C2652 H2639 0.930 . S
C2652 C2651 1.388 . S
C2652 C2653 1.390 . S
C2653 C2652 1.390 . S
C2653 C2654 1.394 . S
C2653 C2659 1.465 . S
C2654 C2649 1.399 . S
C2654 C2653 1.394 . S
C2654 C2655 1.516 . S
C2655 C2654 1.516 . S
C2655 C2656 1.502 . S
C2655 C2657 1.561 . S
C2655 C2658 1.526 . S
C2656 H2640 0.959 . S
C2656 H2641 0.959 . S
C2656 H2642 0.961 . S
C2656 C2655 1.502 . S
C2657 H2643 0.960 . S
C2657 H2644 0.961 . S
C2657 H2645 0.959 . S
C2657 C2655 1.561 . S
C2658 C2655 1.526 . S
C2658 C2659 1.396 . S
C2658 C2663 1.390 . S
C2659 C2653 1.465 . S
C2659 C2658 1.396 . S
C2659 C2660 1.399 . S
C2660 H2646 0.929 . S
C2660 C2659 1.399 . S
C2660 C2661 1.385 . S
C2661 H2647 0.931 . S
C2661 C2660 1.385 . S
C2661 C2662 1.389 . S
C2662 C2661 1.389 . S
C2662 C2663 1.387 . S
C2663 H2648 0.930 . S
C2663 C2658 1.390 . S
C2663 C2662 1.387 . S
H2664 C2676 0.930 . S
H2665 C2678 0.930 . S
H2666 C2679 0.930 . S
H2667 C2683 0.959 . S
H2668 C2683 0.959 . S
H2669 C2683 0.961 . S
H2670 C2684 0.960 . S
H2671 C2684 0.961 . S
H2672 C2684 0.959 . S
H2673 C2687 0.929 . S
H2674 C2688 0.931 . S
H2675 C2690 0.930 . S
C2676 H2664 0.930 . S
C2676 C2677 1.399 . S
C2676 C2681 1.399 . S
C2677 C2676 1.399 . S
C2677 C2678 1.376 . S
C2678 H2665 0.930 . S
C2678 C2677 1.376 . S
C2678 C2679 1.388 . S
C2679 H2666 0.930 . S
C2679 C2678 1.388 . S
C2679 C2680 1.390 . S
C2680 C2679 1.390 . S
C2680 C2681 1.394 . S
C2680 C2686 1.465 . S
C2681 C2676 1.399 . S
C2681 C2680 1.394 . S
C2681 C2682 1.516 . S
C2682 C2681 1.516 . S
C2682 C2683 1.502 . S
C2682 C2684 1.561 . S
C2682 C2685 1.526 . S
C2683 H2667 0.959 . S
C2683 H2668 0.959 . S
C2683 H2669 0.961 . S
C2683 C2682 1.502 . S
C2684 H2670 0.960 . S
C2684 H2671 0.961 . S
C2684 H2672 0.959 . S
C2684 C2682 1.561 . S
C2685 C2682 1.526 . S
C2685 C2686 1.396 . S
C2685 C2690 1.390 . S
C2686 C2680 1.465 . S
C2686 C2685 1.396 . S
C2686 C2687 1.399 . S
C2687 H2673 0.929 . S
C2687 C2686 1.399 . S
C2687 C2688 1.385 . S
C2688 H2674 0.931 . S
C2688 C2687 1.385 . S
C2688 C2689 1.389 . S
C2689 C2688 1.389 . S
C2689 C2690 1.387 . S
C2690 H2675 0.930 . S
C2690 C2685 1.390 . S
C2690 C2689 1.387 . S
H2691 C2703 0.930 . S
H2692 C2705 0.930 . S
H2693 C2706 0.930 . S
H2694 C2710 0.959 . S
H2695 C2710 0.959 . S
H2696 C2710 0.961 . S
H2697 C2711 0.960 . S
H2698 C2711 0.961 . S
H2699 C2711 0.959 . S
H2700 C2714 0.929 . S
H2701 C2715 0.931 . S
H2702 C2717 0.930 . S
C2703 H2691 0.930 . S
C2703 C2704 1.399 . S
C2703 C2708 1.399 . S
C2704 C2703 1.399 . S
C2704 C2705 1.376 . S
C2705 H2692 0.930 . S
C2705 C2704 1.376 . S
C2705 C2706 1.388 . S
C2706 H2693 0.930 . S
C2706 C2705 1.388 . S
C2706 C2707 1.390 . S
C2707 C2706 1.390 . S
C2707 C2708 1.394 . S
C2707 C2713 1.465 . S
C2708 C2703 1.399 . S
C2708 C2707 1.394 . S
C2708 C2709 1.516 . S
C2709 C2708 1.516 . S
C2709 C2710 1.502 . S
C2709 C2711 1.561 . S
C2709 C2712 1.526 . S
C2710 H2694 0.959 . S
C2710 H2695 0.959 . S
C2710 H2696 0.961 . S
C2710 C2709 1.502 . S
C2711 H2697 0.960 . S
C2711 H2698 0.961 . S
C2711 H2699 0.959 . S
C2711 C2709 1.561 . S
C2712 C2709 1.526 . S
C2712 C2713 1.396 . S
C2712 C2717 1.390 . S
C2713 C2707 1.465 . S
C2713 C2712 1.396 . S
C2713 C2714 1.399 . S
C2714 H2700 0.929 . S
C2714 C2713 1.399 . S
C2714 C2715 1.385 . S
C2715 H2701 0.931 . S
C2715 C2714 1.385 . S
C2715 C2716 1.389 . S
C2716 C2715 1.389 . S
C2716 C2717 1.387 . S
C2717 H2702 0.930 . S
C2717 C2712 1.390 . S
C2717 C2716 1.387 . S
H2718 C2730 0.930 . S
H2719 C2732 0.930 . S
H2720 C2733 0.930 . S
H2721 C2737 0.959 . S
H2722 C2737 0.959 . S
H2723 C2737 0.961 . S
H2724 C2738 0.960 . S
H2725 C2738 0.961 . S
H2726 C2738 0.959 . S
H2727 C2741 0.929 . S
H2728 C2742 0.931 . S
H2729 C2744 0.930 . S
C2730 H2718 0.930 . S
C2730 C2731 1.399 . S
C2730 C2735 1.399 . S
C2731 C2730 1.399 . S
C2731 C2732 1.376 . S
C2732 H2719 0.930 . S
C2732 C2731 1.376 . S
C2732 C2733 1.388 . S
C2733 H2720 0.930 . S
C2733 C2732 1.388 . S
C2733 C2734 1.390 . S
C2734 C2733 1.390 . S
C2734 C2735 1.394 . S
C2734 C2740 1.465 . S
C2735 C2730 1.399 . S
C2735 C2734 1.394 . S
C2735 C2736 1.516 . S
C2736 C2735 1.516 . S
C2736 C2737 1.502 . S
C2736 C2738 1.561 . S
C2736 C2739 1.526 . S
C2737 H2721 0.959 . S
C2737 H2722 0.959 . S
C2737 H2723 0.961 . S
C2737 C2736 1.502 . S
C2738 H2724 0.960 . S
C2738 H2725 0.961 . S
C2738 H2726 0.959 . S
C2738 C2736 1.561 . S
C2739 C2736 1.526 . S
C2739 C2740 1.396 . S
C2739 C2744 1.390 . S
C2740 C2734 1.465 . S
C2740 C2739 1.396 . S
C2740 C2741 1.399 . S
C2741 H2727 0.929 . S
C2741 C2740 1.399 . S
C2741 C2742 1.385 . S
C2742 H2728 0.931 . S
C2742 C2741 1.385 . S
C2742 C2743 1.389 . S
C2743 C2742 1.389 . S
C2743 C2744 1.387 . S
C2744 H2729 0.930 . S
C2744 C2739 1.390 . S
C2744 C2743 1.387 . S
H2745 C2757 0.930 . S
H2746 C2759 0.930 . S
H2747 C2760 0.930 . S
H2748 C2764 0.959 . S
H2749 C2764 0.959 . S
H2750 C2764 0.961 . S
H2751 C2765 0.960 . S
H2752 C2765 0.961 . S
H2753 C2765 0.959 . S
H2754 C2768 0.929 . S
H2755 C2769 0.931 . S
H2756 C2771 0.930 . S
C2757 H2745 0.930 . S
C2757 C2758 1.399 . S
C2757 C2762 1.399 . S
C2758 C2757 1.399 . S
C2758 C2759 1.376 . S
C2759 H2746 0.930 . S
C2759 C2758 1.376 . S
C2759 C2760 1.388 . S
C2760 H2747 0.930 . S
C2760 C2759 1.388 . S
C2760 C2761 1.390 . S
C2761 C2760 1.390 . S
C2761 C2762 1.394 . S
C2761 C2767 1.465 . S
C2762 C2757 1.399 . S
C2762 C2761 1.394 . S
C2762 C2763 1.516 . S
C2763 C2762 1.516 . S
C2763 C2764 1.502 1_455 S
C2763 C2765 1.561 . S
C2763 C2766 1.526 . S
C2764 H2748 0.959 . S
C2764 H2749 0.959 . S
C2764 H2750 0.961 . S
C2764 C2763 1.502 1_655 S
C2765 H2751 0.960 . S
C2765 H2752 0.961 . S
C2765 H2753 0.959 . S
C2765 C2763 1.561 . S
C2766 C2763 1.526 . S
C2766 C2767 1.396 . S
C2766 C2771 1.390 . S
C2767 C2761 1.465 . S
C2767 C2766 1.396 . S
C2767 C2768 1.399 . S
C2768 H2754 0.929 . S
C2768 C2767 1.399 . S
C2768 C2769 1.385 . S
C2769 H2755 0.931 . S
C2769 C2768 1.385 . S
C2769 C2770 1.389 . S
C2770 C2769 1.389 . S
C2770 C2771 1.387 . S
C2771 H2756 0.930 . S
C2771 C2766 1.390 . S
C2771 C2770 1.387 . S
H2772 C2784 0.930 . S
H2773 C2786 0.930 . S
H2774 C2787 0.930 . S
H2775 C2791 0.959 . S
H2776 C2791 0.959 . S
H2777 C2791 0.961 . S
H2778 C2792 0.960 . S
H2779 C2792 0.961 . S
H2780 C2792 0.959 . S
H2781 C2795 0.929 . S
H2782 C2796 0.931 . S
H2783 C2798 0.930 . S
C2784 H2772 0.930 . S
C2784 C2785 1.399 . S
C2784 C2789 1.399 . S
C2785 C2784 1.399 . S
C2785 C2786 1.376 . S
C2786 H2773 0.930 . S
C2786 C2785 1.376 . S
C2786 C2787 1.388 . S
C2787 H2774 0.930 . S
C2787 C2786 1.388 . S
C2787 C2788 1.390 . S
C2788 C2787 1.390 . S
C2788 C2789 1.394 . S
C2788 C2794 1.465 . S
C2789 C2784 1.399 . S
C2789 C2788 1.394 . S
C2789 C2790 1.516 . S
C2790 C2789 1.516 . S
C2790 C2791 1.502 . S
C2790 C2792 1.561 . S
C2790 C2793 1.526 . S
C2791 H2775 0.959 . S
C2791 H2776 0.959 . S
C2791 H2777 0.961 . S
C2791 C2790 1.502 . S
C2792 H2778 0.960 . S
C2792 H2779 0.961 . S
C2792 H2780 0.959 . S
C2792 C2790 1.561 . S
C2793 C2790 1.526 . S
C2793 C2794 1.396 . S
C2793 C2798 1.390 . S
C2794 C2788 1.465 . S
C2794 C2793 1.396 . S
C2794 C2795 1.399 . S
C2795 H2781 0.929 . S
C2795 C2794 1.399 . S
C2795 C2796 1.385 . S
C2796 H2782 0.931 . S
C2796 C2795 1.385 . S
C2796 C2797 1.389 . S
C2797 C2796 1.389 . S
C2797 C2798 1.387 . S
C2798 H2783 0.930 . S
C2798 C2793 1.390 . S
C2798 C2797 1.387 . S
H2799 C2811 0.930 1_545 S
H2800 C2813 0.930 . S
H2801 C2814 0.930 . S
H2802 C2818 0.953 . S
H2803 C2818 0.959 . S
H2804 C2818 0.961 . S
H2805 C2819 0.960 . S
H2806 C2819 0.961 . S
H2807 C2819 0.959 . S
H2808 C2822 0.929 . S
H2809 C2823 0.931 . S
H2810 C2825 0.930 . S
C2811 H2799 0.930 1_565 S
C2811 C2812 1.399 . S
C2811 C2816 1.399 . S
C2812 C2811 1.399 . S
C2812 C2813 1.376 . S
C2813 H2800 0.930 . S
C2813 C2812 1.376 . S
C2813 C2814 1.388 . S
C2814 H2801 0.930 . S
C2814 C2813 1.388 . S
C2814 C2815 1.390 . S
C2815 C2814 1.390 . S
C2815 C2816 1.394 . S
C2815 C2821 1.465 . S
C2816 C2811 1.399 . S
C2816 C2815 1.394 . S
C2816 C2817 1.516 1_565 S
C2817 C2816 1.516 1_545 S
C2817 C2818 1.502 . S
C2817 C2819 1.561 . S
C2817 C2820 1.526 1_545 S
C2818 H2802 0.953 . S
C2818 H2803 0.959 . S
C2818 H2804 0.961 . S
C2818 C2817 1.502 . S
C2819 H2805 0.960 . S
C2819 H2806 0.961 . S
C2819 H2807 0.959 . S
C2819 C2817 1.561 . S
C2820 C2817 1.526 1_565 S
C2820 C2821 1.396 . S
C2820 C2825 1.390 1_565 S
C2821 C2815 1.465 . S
C2821 C2820 1.396 . S
C2821 C2822 1.399 . S
C2822 H2808 0.929 . S
C2822 C2821 1.399 . S
C2822 C2823 1.385 . S
C2823 H2809 0.931 . S
C2823 C2822 1.385 . S
C2823 C2824 1.389 . S
C2824 C2823 1.389 . S
C2824 C2825 1.387 1_565 S
C2825 H2810 0.930 . S
C2825 C2820 1.390 1_545 S
C2825 C2824 1.387 1_545 S
H2826 C2838 0.930 . S
H2827 C2840 0.930 . S
H2828 C2841 0.874 1_545 S
H2829 C2845 0.959 . S
H2830 C2845 0.959 . S
H2831 C2845 0.961 . S
H2832 C2846 0.960 . S
H2833 C2846 0.961 . S
H2834 C2846 0.959 . S
H2835 C2849 0.941 . S
H2836 C2850 0.931 . S
H2837 C2852 0.930 . S
C2838 H2826 0.930 . S
C2838 C2839 1.399 . S
C2838 C2843 1.399 . S
C2839 C2838 1.399 . S
C2839 C2840 1.376 . S
C2840 H2827 0.930 . S
C2840 C2839 1.376 . S
C2840 C2841 1.388 . S
C2841 H2828 0.874 1_565 S
C2841 C2840 1.388 . S
C2841 C2842 1.390 . S
C2842 C2841 1.390 . S
C2842 C2843 1.394 . S
C2842 C2848 1.465 . S
C2843 C2838 1.399 . S
C2843 C2842 1.394 . S
C2843 C2844 1.516 . S
C2844 C2843 1.516 . S
C2844 C2845 1.502 . S
C2844 C2846 1.561 . S
C2844 C2847 1.526 . S
C2845 H2829 0.959 . S
C2845 H2830 0.959 . S
C2845 H2831 0.961 . S
C2845 C2844 1.502 . S
C2846 H2832 0.960 . S
C2846 H2833 0.961 . S
C2846 H2834 0.959 . S
C2846 C2844 1.561 . S
C2847 C2844 1.526 . S
C2847 C2848 1.396 . S
C2847 C2852 1.390 . S
C2848 C2842 1.465 . S
C2848 C2847 1.396 . S
C2848 C2849 1.373 1_565 S
C2849 H2835 0.941 . S
C2849 C2848 1.373 1_545 S
C2849 C2850 1.400 . S
C2850 H2836 0.931 . S
C2850 C2849 1.400 . S
C2850 C2851 1.389 1_545 S
C2851 C2850 1.389 1_565 S
C2851 C2852 1.387 . S
C2852 H2837 0.930 . S
C2852 C2847 1.390 . S
C2852 C2851 1.387 . S
H2853 C2865 0.930 . S
H2854 C2867 0.930 . S
H2855 C2868 0.930 . S
H2856 C2872 0.959 . S
H2857 C2872 0.959 . S
H2858 C2872 0.961 . S
H2859 C2873 0.960 . S
H2860 C2873 0.961 . S
H2861 C2873 0.959 . S
H2862 C2876 0.929 . S
H2863 C2877 0.931 . S
H2864 C2879 0.930 . S
C2865 H2853 0.930 . S
C2865 C2866 1.399 . S
C2865 C2870 1.399 . S
C2866 C2865 1.399 . S
C2866 C2867 1.376 . S
C2867 H2854 0.930 . S
C2867 C2866 1.376 . S
C2867 C2868 1.388 . S
C2868 H2855 0.930 . S
C2868 C2867 1.388 . S
C2868 C2869 1.390 . S
C2869 C2868 1.390 . S
C2869 C2870 1.394 . S
C2869 C2875 1.465 . S
C2870 C2865 1.399 . S
C2870 C2869 1.394 . S
C2870 C2871 1.516 . S
C2871 C2870 1.516 . S
C2871 C2872 1.502 . S
C2871 C2873 1.561 1_455 S
C2871 C2874 1.526 . S
C2872 H2856 0.959 . S
C2872 H2857 0.959 . S
C2872 H2858 0.961 . S
C2872 C2871 1.502 . S
C2873 H2859 0.960 . S
C2873 H2860 0.961 . S
C2873 H2861 0.959 . S
C2873 C2871 1.561 1_655 S
C2874 C2871 1.526 . S
C2874 C2875 1.396 . S
C2874 C2879 1.390 . S
C2875 C2869 1.465 . S
C2875 C2874 1.396 . S
C2875 C2876 1.399 . S
C2876 H2862 0.929 . S
C2876 C2875 1.399 . S
C2876 C2877 1.385 . S
C2877 H2863 0.931 . S
C2877 C2876 1.385 . S
C2877 C2878 1.389 . S
C2878 C2877 1.389 . S
C2878 C2879 1.387 . S
C2879 H2864 0.930 . S
C2879 C2874 1.390 . S
C2879 C2878 1.387 . S
H2880 C2892 0.930 . S
H2881 C2894 0.930 . S
H2882 C2895 0.930 . S
H2883 C2899 0.959 . S
H2884 C2899 0.959 . S
H2885 C2899 0.961 . S
H2886 C2900 0.960 . S
H2887 C2900 0.961 . S
H2888 C2900 0.959 . S
H2889 C2903 0.929 . S
H2890 C2904 0.931 . S
H2891 C2906 0.930 . S
C2892 H2880 0.930 . S
C2892 C2893 1.399 . S
C2892 C2897 1.399 . S
C2893 C2892 1.399 . S
C2893 C2894 1.376 . S
C2894 H2881 0.930 . S
C2894 C2893 1.376 . S
C2894 C2895 1.388 . S
C2895 H2882 0.930 . S
C2895 C2894 1.388 . S
C2895 C2896 1.390 . S
C2896 C2895 1.390 . S
C2896 C2897 1.394 . S
C2896 C2902 1.465 . S
C2897 C2892 1.399 . S
C2897 C2896 1.394 . S
C2897 C2898 1.516 . S
C2898 C2897 1.516 . S
C2898 C2899 1.502 . S
C2898 C2900 1.561 . S
C2898 C2901 1.526 . S
C2899 H2883 0.959 . S
C2899 H2884 0.959 . S
C2899 H2885 0.961 . S
C2899 C2898 1.502 . S
C2900 H2886 0.960 . S
C2900 H2887 0.961 . S
C2900 H2888 0.959 . S
C2900 C2898 1.561 . S
C2901 C2898 1.526 . S
C2901 C2902 1.396 . S
C2901 C2906 1.390 . S
C2902 C2896 1.465 . S
C2902 C2901 1.396 . S
C2902 C2903 1.399 . S
C2903 H2889 0.929 . S
C2903 C2902 1.399 . S
C2903 C2904 1.385 . S
C2904 H2890 0.931 . S
C2904 C2903 1.385 . S
C2904 C2905 1.389 . S
C2905 C2904 1.389 . S
C2905 C2906 1.387 . S
C2906 H2891 0.930 . S
C2906 C2901 1.390 . S
C2906 C2905 1.387 . S
H2907 C2919 0.930 . S
H2908 C2921 0.930 . S
H2909 C2922 0.930 . S
H2910 C2926 0.959 . S
H2911 C2926 0.959 . S
H2912 C2926 0.961 . S
H2913 C2927 0.960 . S
H2914 C2927 0.961 . S
H2915 C2927 0.959 . S
H2916 C2930 0.929 . S
H2917 C2931 0.931 . S
H2918 C2933 0.930 . S
C2919 H2907 0.930 . S
C2919 C2920 1.399 . S
C2919 C2924 1.399 . S
C2920 C2919 1.399 . S
C2920 C2921 1.376 . S
C2921 H2908 0.930 . S
C2921 C2920 1.376 . S
C2921 C2922 1.388 . S
C2922 H2909 0.930 . S
C2922 C2921 1.388 . S
C2922 C2923 1.390 . S
C2923 C2922 1.390 . S
C2923 C2924 1.394 . S
C2923 C2929 1.465 . S
C2924 C2919 1.399 . S
C2924 C2923 1.394 . S
C2924 C2925 1.516 . S
C2925 C2924 1.516 . S
C2925 C2926 1.502 . S
C2925 C2927 1.561 . S
C2925 C2928 1.526 . S
C2926 H2910 0.959 . S
C2926 H2911 0.959 . S
C2926 H2912 0.961 . S
C2926 C2925 1.502 . S
C2927 H2913 0.960 . S
C2927 H2914 0.961 . S
C2927 H2915 0.959 . S
C2927 C2925 1.561 . S
C2928 C2925 1.526 . S
C2928 C2929 1.396 . S
C2928 C2933 1.390 . S
C2929 C2923 1.465 . S
C2929 C2928 1.396 . S
C2929 C2930 1.399 . S
C2930 H2916 0.929 . S
C2930 C2929 1.399 . S
C2930 C2931 1.385 . S
C2931 H2917 0.931 . S
C2931 C2930 1.385 . S
C2931 C2932 1.389 . S
C2932 C2931 1.389 . S
C2932 C2933 1.387 . S
C2933 H2918 0.930 . S
C2933 C2928 1.390 . S
C2933 C2932 1.387 . S
H2934 C2946 0.930 . S
H2935 C2948 0.930 . S
H2936 C2949 0.930 . S
H2937 C2953 0.959 . S
H2938 C2953 0.959 . S
H2939 C2953 0.961 . S
H2940 C2954 0.960 . S
H2941 C2954 0.961 . S
H2942 C2954 0.959 . S
H2943 C2957 0.929 . S
H2944 C2958 0.931 . S
H2945 C2960 0.930 . S
C2946 H2934 0.930 . S
C2946 C2947 1.399 . S
C2946 C2951 1.399 . S
C2947 C2946 1.399 . S
C2947 C2948 1.376 . S
C2948 H2935 0.930 . S
C2948 C2947 1.376 . S
C2948 C2949 1.388 . S
C2949 H2936 0.930 . S
C2949 C2948 1.388 . S
C2949 C2950 1.390 . S
C2950 C2949 1.390 . S
C2950 C2951 1.394 . S
C2950 C2956 1.465 . S
C2951 C2946 1.399 . S
C2951 C2950 1.394 . S
C2951 C2952 1.516 . S
C2952 C2951 1.516 . S
C2952 C2953 1.502 . S
C2952 C2954 1.561 . S
C2952 C2955 1.526 . S
C2953 H2937 0.959 . S
C2953 H2938 0.959 . S
C2953 H2939 0.961 . S
C2953 C2952 1.502 . S
C2954 H2940 0.960 . S
C2954 H2941 0.961 . S
C2954 H2942 0.959 . S
C2954 C2952 1.561 . S
C2955 C2952 1.526 . S
C2955 C2956 1.396 . S
C2955 C2960 1.390 . S
C2956 C2950 1.465 . S
C2956 C2955 1.396 . S
C2956 C2957 1.399 . S
C2957 H2943 0.929 . S
C2957 C2956 1.399 . S
C2957 C2958 1.385 . S
C2958 H2944 0.931 . S
C2958 C2957 1.385 . S
C2958 C2959 1.389 . S
C2959 C2958 1.389 . S
C2959 C2960 1.387 . S
C2960 H2945 0.930 . S
C2960 C2955 1.390 . S
C2960 C2959 1.387 . S
H2961 C2973 0.930 . S
H2962 C2975 0.930 . S
H2963 C2976 0.930 . S
H2964 C2980 0.959 . S
H2965 C2980 0.959 . S
H2966 C2980 0.961 . S
H2967 C2981 0.960 . S
H2968 C2981 0.961 . S
H2969 C2981 0.959 . S
H2970 C2984 0.929 . S
H2971 C2985 0.931 . S
H2972 C2987 0.930 . S
C2973 H2961 0.930 . S
C2973 C2974 1.399 . S
C2973 C2978 1.399 . S
C2974 C2973 1.399 . S
C2974 C2975 1.376 . S
C2975 H2962 0.930 . S
C2975 C2974 1.376 . S
C2975 C2976 1.388 . S
C2976 H2963 0.930 . S
C2976 C2975 1.388 . S
C2976 C2977 1.390 . S
C2977 C2976 1.390 . S
C2977 C2978 1.394 . S
C2977 C2983 1.465 . S
C2978 C2973 1.399 . S
C2978 C2977 1.394 . S
C2978 C2979 1.516 . S
C2979 C2978 1.516 . S
C2979 C2980 1.502 . S
C2979 C2981 1.561 . S
C2979 C2982 1.526 . S
C2980 H2964 0.959 . S
C2980 H2965 0.959 . S
C2980 H2966 0.961 . S
C2980 C2979 1.502 . S
C2981 H2967 0.960 . S
C2981 H2968 0.961 . S
C2981 H2969 0.959 . S
C2981 C2979 1.561 . S
C2982 C2979 1.526 . S
C2982 C2983 1.396 . S
C2982 C2987 1.390 . S
C2983 C2977 1.465 . S
C2983 C2982 1.396 . S
C2983 C2984 1.399 . S
C2984 H2970 0.929 . S
C2984 C2983 1.399 . S
C2984 C2985 1.385 . S
C2985 H2971 0.931 . S
C2985 C2984 1.385 . S
C2985 C2986 1.389 . S
C2986 C2985 1.389 . S
C2986 C2987 1.387 . S
C2987 H2972 0.930 . S
C2987 C2982 1.390 . S
C2987 C2986 1.387 . S
H2988 C3000 0.930 1_565 S
H2989 C3002 0.930 . S
H2990 C3003 0.930 . S
H2991 C3007 0.959 . S
H2992 C3007 0.959 . S
H2993 C3007 0.961 . S
H2994 C3008 0.960 . S
H2995 C3008 0.961 . S
H2996 C3008 0.959 . S
H2997 C3011 0.929 . S
H2998 C3012 0.931 . S
H2999 C3014 0.930 . S
C3000 H2988 0.930 1_545 S
C3000 C3001 1.399 . S
C3000 C3005 1.399 . S
C3001 C3000 1.399 . S
C3001 C3002 1.376 . S
C3002 H2989 0.930 . S
C3002 C3001 1.376 . S
C3002 C3003 1.388 . S
C3003 H2990 0.930 . S
C3003 C3002 1.388 . S
C3003 C3004 1.390 . S
C3004 C3003 1.390 . S
C3004 C3005 1.394 . S
C3004 C3010 1.465 . S
C3005 C3000 1.399 . S
C3005 C3004 1.394 . S
C3005 C3006 1.516 1_545 S
C3006 C3005 1.516 1_565 S
C3006 C3007 1.502 . S
C3006 C3008 1.561 . S
C3006 C3009 1.526 1_565 S
C3007 H2991 0.959 . S
C3007 H2992 0.959 . S
C3007 H2993 0.961 . S
C3007 C3006 1.502 . S
C3008 H2994 0.960 . S
C3008 H2995 0.961 . S
C3008 H2996 0.959 . S
C3008 C3006 1.561 . S
C3009 C3006 1.526 1_545 S
C3009 C3010 1.396 . S
C3009 C3014 1.390 1_545 S
C3010 C3004 1.465 . S
C3010 C3009 1.396 . S
C3010 C3011 1.399 . S
C3011 H2997 0.929 . S
C3011 C3010 1.399 . S
C3011 C3012 1.385 . S
C3012 H2998 0.931 . S
C3012 C3011 1.385 . S
C3012 C3013 1.389 . S
C3013 C3012 1.389 . S
C3013 C3014 1.387 1_545 S
C3014 H2999 0.930 . S
C3014 C3009 1.390 1_565 S
C3014 C3013 1.387 1_565 S
H3015 C3027 0.930 . S
H3016 C3029 0.930 . S
H3017 C3030 0.930 . S
H3018 C3034 0.959 . S
H3019 C3034 0.959 . S
H3020 C3034 0.961 . S
H3021 C3035 0.960 . S
H3022 C3035 0.961 . S
H3023 C3035 0.959 . S
H3024 C3038 0.929 . S
H3025 C3039 0.931 . S
H3026 C3041 0.932 . S
C3027 H3015 0.930 . S
C3027 C3028 1.399 . S
C3027 C3032 1.399 . S
C3028 C3027 1.399 . S
C3028 C3029 1.376 . S
C3029 H3016 0.930 . S
C3029 C3028 1.376 . S
C3029 C3030 1.388 . S
C3030 H3017 0.930 . S
C3030 C3029 1.388 . S
C3030 C3031 1.390 . S
C3031 C3030 1.390 . S
C3031 C3032 1.394 . S
C3031 C3037 1.465 . S
C3032 C3027 1.399 . S
C3032 C3031 1.394 . S
C3032 C3033 1.516 . S
C3033 C3032 1.516 . S
C3033 C3034 1.502 1_655 S
C3033 C3035 1.561 . S
C3033 C3036 1.526 . S
C3034 H3018 0.959 . S
C3034 H3019 0.959 . S
C3034 H3020 0.961 . S
C3034 C3033 1.502 1_455 S
C3035 H3021 0.960 . S
C3035 H3022 0.961 . S
C3035 H3023 0.959 . S
C3035 C3033 1.561 . S
C3036 C3033 1.526 . S
C3036 C3037 1.396 . S
C3036 C3041 1.390 . S
C3037 C3031 1.465 . S
C3037 C3036 1.396 . S
C3037 C3038 1.399 . S
C3038 H3024 0.929 . S
C3038 C3037 1.399 . S
C3038 C3039 1.385 . S
C3039 H3025 0.931 . S
C3039 C3038 1.385 . S
C3039 C3040 1.389 . S
C3040 C3039 1.389 . S
C3040 C3041 1.387 . S
C3041 H3026 0.932 . S
C3041 C3036 1.390 . S
C3041 C3040 1.387 . S
H3042 C3054 0.930 . S
H3043 C3056 0.930 . S
H3044 C3057 0.930 . S
H3045 C3061 0.959 . S
H3046 C3061 0.959 . S
H3047 C3061 0.961 . S
H3048 C3062 0.960 . S
H3049 C3062 0.961 . S
H3050 C3062 0.959 . S
H3051 C3065 0.929 . S
H3052 C3066 0.931 . S
H3053 C3068 0.930 . S
C3054 H3042 0.930 . S
C3054 C3055 1.399 . S
C3054 C3059 1.399 . S
C3055 C3054 1.399 . S
C3055 C3056 1.376 . S
C3056 H3043 0.930 . S
C3056 C3055 1.376 . S
C3056 C3057 1.388 . S
C3057 H3044 0.930 . S
C3057 C3056 1.388 . S
C3057 C3058 1.390 . S
C3058 C3057 1.390 . S
C3058 C3059 1.394 . S
C3058 C3064 1.465 . S
C3059 C3054 1.399 . S
C3059 C3058 1.394 . S
C3059 C3060 1.516 . S
C3060 C3059 1.516 . S
C3060 C3061 1.502 . S
C3060 C3062 1.561 . S
C3060 C3063 1.526 . S
C3061 H3045 0.959 . S
C3061 H3046 0.959 . S
C3061 H3047 0.961 . S
C3061 C3060 1.502 . S
C3062 H3048 0.960 . S
C3062 H3049 0.961 . S
C3062 H3050 0.959 . S
C3062 C3060 1.561 . S
C3063 C3060 1.526 . S
C3063 C3064 1.396 . S
C3063 C3068 1.390 . S
C3064 C3058 1.465 . S
C3064 C3063 1.396 . S
C3064 C3065 1.399 . S
C3065 H3051 0.929 . S
C3065 C3064 1.399 . S
C3065 C3066 1.385 . S
C3066 H3052 0.931 . S
C3066 C3065 1.385 . S
C3066 C3067 1.389 . S
C3067 C3066 1.389 . S
C3067 C3068 1.387 . S
C3068 H3053 0.930 . S
C3068 C3063 1.390 . S
C3068 C3067 1.387 . S
H3069 C3081 0.930 . S
H3070 C3083 0.930 . S
H3071 C3084 0.930 . S
H3072 C3088 0.959 . S
H3073 C3088 0.959 . S
H3074 C3088 0.961 . S
H3075 C3089 0.960 . S
H3076 C3089 0.961 . S
H3077 C3089 0.959 . S
H3078 C3092 0.929 . S
H3079 C3093 0.931 . S
H3080 C3095 0.930 . S
C3081 H3069 0.930 . S
C3081 C3082 1.399 . S
C3081 C3086 1.399 . S
C3082 C3081 1.399 . S
C3082 C3083 1.376 . S
C3083 H3070 0.930 . S
C3083 C3082 1.376 . S
C3083 C3084 1.388 . S
C3084 H3071 0.930 . S
C3084 C3083 1.388 . S
C3084 C3085 1.390 . S
C3085 C3084 1.390 . S
C3085 C3086 1.394 . S
C3085 C3091 1.465 . S
C3086 C3081 1.399 . S
C3086 C3085 1.394 . S
C3086 C3087 1.516 . S
C3087 C3086 1.516 . S
C3087 C3088 1.502 . S
C3087 C3089 1.561 . S
C3087 C3090 1.526 . S
C3088 H3072 0.959 . S
C3088 H3073 0.959 . S
C3088 H3074 0.961 . S
C3088 C3087 1.502 . S
C3089 H3075 0.960 . S
C3089 H3076 0.961 . S
C3089 H3077 0.959 . S
C3089 C3087 1.561 . S
C3090 C3087 1.526 . S
C3090 C3091 1.396 . S
C3090 C3095 1.390 . S
C3091 C3085 1.465 . S
C3091 C3090 1.396 . S
C3091 C3092 1.399 . S
C3092 H3078 0.929 . S
C3092 C3091 1.399 . S
C3092 C3093 1.385 . S
C3093 H3079 0.931 . S
C3093 C3092 1.385 . S
C3093 C3094 1.389 . S
C3094 C3093 1.389 . S
C3094 C3095 1.387 . S
C3095 H3080 0.930 . S
C3095 C3090 1.390 . S
C3095 C3094 1.387 . S
H3096 C3108 0.930 . S
H3097 C3110 0.930 . S
H3098 C3111 0.930 . S
H3099 C3115 0.959 . S
H3100 C3115 0.959 . S
H3101 C3115 0.961 . S
H3102 C3116 0.960 . S
H3103 C3116 0.961 . S
H3104 C3116 0.959 . S
H3105 C3119 0.929 . S
H3106 C3120 0.931 . S
H3107 C3122 0.930 . S
C3108 H3096 0.930 . S
C3108 C3109 1.399 . S
C3108 C3113 1.399 . S
C3109 C3108 1.399 . S
C3109 C3110 1.376 . S
C3110 H3097 0.930 . S
C3110 C3109 1.376 . S
C3110 C3111 1.388 . S
C3111 H3098 0.930 . S
C3111 C3110 1.388 . S
C3111 C3112 1.390 . S
C3112 C3111 1.390 . S
C3112 C3113 1.394 . S
C3112 C3118 1.465 . S
C3113 C3108 1.399 . S
C3113 C3112 1.394 . S
C3113 C3114 1.516 . S
C3114 C3113 1.516 . S
C3114 C3115 1.502 . S
C3114 C3116 1.561 . S
C3114 C3117 1.526 . S
C3115 H3099 0.959 . S
C3115 H3100 0.959 . S
C3115 H3101 0.961 . S
C3115 C3114 1.502 . S
C3116 H3102 0.960 . S
C3116 H3103 0.961 . S
C3116 H3104 0.959 . S
C3116 C3114 1.561 . S
C3117 C3114 1.526 . S
C3117 C3118 1.396 . S
C3117 C3122 1.390 . S
C3118 C3112 1.465 . S
C3118 C3117 1.396 . S
C3118 C3119 1.399 . S
C3119 H3105 0.929 . S
C3119 C3118 1.399 . S
C3119 C3120 1.385 . S
C3120 H3106 0.931 . S
C3120 C3119 1.385 . S
C3120 C3121 1.389 . S
C3121 C3120 1.389 . S
C3121 C3122 1.387 . S
C3122 H3107 0.930 . S
C3122 C3117 1.390 . S
C3122 C3121 1.387 . S
H3123 C3135 0.930 . S
H3124 C3137 0.930 . S
H3125 C3138 0.930 . S
H3126 C3142 0.959 . S
H3127 C3142 0.959 . S
H3128 C3142 0.961 . S
H3129 C3143 0.960 . S
H3130 C3143 0.961 . S
H3131 C3143 0.959 . S
H3132 C3146 0.929 . S
H3133 C3147 0.931 . S
H3134 C3149 0.930 . S
C3135 H3123 0.930 . S
C3135 C3136 1.399 . S
C3135 C3140 1.399 . S
C3136 C3135 1.399 . S
C3136 C3137 1.376 . S
C3137 H3124 0.930 . S
C3137 C3136 1.376 . S
C3137 C3138 1.388 . S
C3138 H3125 0.930 . S
C3138 C3137 1.388 . S
C3138 C3139 1.390 . S
C3139 C3138 1.390 . S
C3139 C3140 1.394 . S
C3139 C3145 1.465 . S
C3140 C3135 1.399 . S
C3140 C3139 1.394 . S
C3140 C3141 1.516 . S
C3141 C3140 1.516 . S
C3141 C3142 1.502 . S
C3141 C3143 1.561 . S
C3141 C3144 1.526 . S
C3142 H3126 0.959 . S
C3142 H3127 0.959 . S
C3142 H3128 0.961 . S
C3142 C3141 1.502 . S
C3143 H3129 0.960 . S
C3143 H3130 0.961 . S
C3143 H3131 0.959 . S
C3143 C3141 1.561 . S
C3144 C3141 1.526 . S
C3144 C3145 1.396 . S
C3144 C3149 1.390 . S
C3145 C3139 1.465 . S
C3145 C3144 1.396 . S
C3145 C3146 1.399 . S
C3146 H3132 0.929 . S
C3146 C3145 1.399 . S
C3146 C3147 1.385 . S
C3147 H3133 0.931 . S
C3147 C3146 1.385 . S
C3147 C3148 1.389 . S
C3148 C3147 1.389 . S
C3148 C3149 1.387 . S
C3149 H3134 0.930 . S
C3149 C3144 1.390 . S
C3149 C3148 1.387 . S
H3150 C3162 0.930 . S
H3151 C3164 0.930 . S
H3152 C3165 0.930 . S
H3153 C3169 0.959 . S
H3154 C3169 0.959 . S
H3155 C3169 0.961 . S
H3156 C3170 0.960 . S
H3157 C3170 0.961 . S
H3158 C3170 0.959 . S
H3159 C3173 0.929 . S
H3160 C3174 0.931 . S
H3161 C3176 0.930 . S
C3162 H3150 0.930 . S
C3162 C3163 1.399 . S
C3162 C3167 1.399 . S
C3163 C3162 1.399 . S
C3163 C3164 1.376 . S
C3164 H3151 0.930 . S
C3164 C3163 1.376 . S
C3164 C3165 1.388 . S
C3165 H3152 0.930 . S
C3165 C3164 1.388 . S
C3165 C3166 1.390 . S
C3166 C3165 1.390 . S
C3166 C3167 1.394 . S
C3166 C3172 1.465 . S
C3167 C3162 1.399 . S
C3167 C3166 1.394 . S
C3167 C3168 1.516 . S
C3168 C3167 1.516 . S
C3168 C3169 1.502 . S
C3168 C3170 1.561 . S
C3168 C3171 1.526 . S
C3169 H3153 0.959 . S
C3169 H3154 0.959 . S
C3169 H3155 0.961 . S
C3169 C3168 1.502 . S
C3170 H3156 0.960 . S
C3170 H3157 0.961 . S
C3170 H3158 0.959 . S
C3170 C3168 1.561 . S
C3171 C3168 1.526 . S
C3171 C3172 1.396 . S
C3171 C3176 1.390 . S
C3172 C3166 1.465 . S
C3172 C3171 1.396 . S
C3172 C3173 1.399 . S
C3173 H3159 0.929 . S
C3173 C3172 1.399 . S
C3173 C3174 1.385 . S
C3174 H3160 0.931 . S
C3174 C3173 1.385 . S
C3174 C3175 1.389 . S
C3175 C3174 1.389 . S
C3175 C3176 1.387 . S
C3176 H3161 0.930 . S
C3176 C3171 1.390 . S
C3176 C3175 1.387 . S
H3177 C3189 0.930 . S
H3178 C3191 0.930 . S
H3179 C3192 0.930 . S
H3180 C3196 0.959 . S
H3181 C3196 0.959 . S
H3182 C3196 0.961 . S
H3183 C3197 0.960 . S
H3184 C3197 0.961 . S
H3185 C3197 0.959 . S
H3186 C3200 0.929 . S
H3187 C3201 0.931 . S
H3188 C3203 0.930 . S
C3189 H3177 0.930 . S
C3189 C3190 1.399 . S
C3189 C3194 1.399 . S
C3190 C3189 1.399 . S
C3190 C3191 1.376 . S
C3191 H3178 0.930 . S
C3191 C3190 1.376 . S
C3191 C3192 1.388 . S
C3192 H3179 0.930 . S
C3192 C3191 1.388 . S
C3192 C3193 1.390 . S
C3193 C3192 1.390 . S
C3193 C3194 1.394 . S
C3193 C3199 1.465 . S
C3194 C3189 1.399 . S
C3194 C3193 1.394 . S
C3194 C3195 1.516 . S
C3195 C3194 1.516 . S
C3195 C3196 1.502 . S
C3195 C3197 1.561 . S
C3195 C3198 1.526 . S
C3196 H3180 0.959 . S
C3196 H3181 0.959 . S
C3196 H3182 0.961 . S
C3196 C3195 1.502 . S
C3197 H3183 0.960 . S
C3197 H3184 0.961 . S
C3197 H3185 0.959 . S
C3197 C3195 1.561 . S
C3198 C3195 1.526 . S
C3198 C3199 1.396 . S
C3198 C3203 1.390 . S
C3199 C3193 1.465 . S
C3199 C3198 1.396 . S
C3199 C3200 1.399 . S
C3200 H3186 0.929 . S
C3200 C3199 1.399 . S
C3200 C3201 1.385 . S
C3201 H3187 0.931 . S
C3201 C3200 1.385 . S
C3201 C3202 1.389 . S
C3202 C3201 1.389 . S
C3202 C3203 1.387 . S
C3203 H3188 0.930 . S
C3203 C3198 1.390 . S
C3203 C3202 1.387 . S
H3204 C3216 0.930 . S
H3205 C3218 0.930 . S
H3206 C3219 0.930 . S
H3207 C3223 0.959 . S
H3208 C3223 0.959 . S
H3209 C3223 0.961 . S
H3210 C3224 0.960 . S
H3211 C3224 0.961 . S
H3212 C3224 0.959 . S
H3213 C3227 0.929 . S
H3214 C3228 0.931 . S
H3215 C3230 0.930 . S
C3216 H3204 0.930 . S
C3216 C3217 1.399 . S
C3216 C3221 1.399 . S
C3217 C3216 1.399 . S
C3217 C3218 1.376 . S
C3218 H3205 0.930 . S
C3218 C3217 1.376 . S
C3218 C3219 1.388 . S
C3219 H3206 0.930 . S
C3219 C3218 1.388 . S
C3219 C3220 1.390 . S
C3220 C3219 1.390 . S
C3220 C3221 1.394 . S
C3220 C3226 1.465 . S
C3221 C3216 1.399 . S
C3221 C3220 1.394 . S
C3221 C3222 1.516 . S
C3222 C3221 1.516 . S
C3222 C3223 1.502 . S
C3222 C3224 1.561 . S
C3222 C3225 1.526 . S
C3223 H3207 0.959 . S
C3223 H3208 0.959 . S
C3223 H3209 0.961 . S
C3223 C3222 1.502 . S
C3224 H3210 0.960 . S
C3224 H3211 0.961 . S
C3224 H3212 0.959 . S
C3224 C3222 1.561 . S
C3225 C3222 1.526 . S
C3225 C3226 1.396 . S
C3225 C3230 1.390 . S
C3226 C3220 1.465 . S
C3226 C3225 1.396 . S
C3226 C3227 1.399 . S
C3227 H3213 0.929 . S
C3227 C3226 1.399 . S
C3227 C3228 1.385 . S
C3228 H3214 0.931 . S
C3228 C3227 1.385 . S
C3228 C3229 1.389 . S
C3229 C3228 1.389 . S
C3229 C3230 1.387 . S
C3230 H3215 0.930 . S
C3230 C3225 1.390 . S
C3230 C3229 1.387 . S
H3231 C3243 0.930 . S
H3232 C3245 0.931 1_455 S
H3233 C3246 0.944 . S
H3234 C3250 0.959 . S
H3235 C3250 0.959 . S
H3236 C3250 0.961 . S
H3237 C3251 0.960 . S
H3238 C3251 0.961 . S
H3239 C3251 0.959 . S
H3240 C3254 0.929 . S
H3241 C3255 0.931 . S
H3242 C3257 0.930 . S
C3243 H3231 0.930 . S
C3243 C3244 1.399 . S
C3243 C3248 1.399 . S
C3244 C3243 1.399 . S
C3244 C3245 1.376 . S
C3245 H3232 0.931 1_655 S
C3245 C3244 1.376 . S
C3245 C3246 1.374 1_655 S
C3246 H3233 0.944 . S
C3246 C3245 1.374 1_455 S
C3246 C3247 1.390 1_455 S
C3247 C3246 1.390 1_655 S
C3247 C3248 1.394 . S
C3247 C3253 1.465 . S
C3248 C3243 1.399 . S
C3248 C3247 1.394 . S
C3248 C3249 1.516 . S
C3249 C3248 1.516 . S
C3249 C3250 1.502 . S
C3249 C3251 1.561 . S
C3249 C3252 1.526 . S
C3250 H3234 0.959 . S
C3250 H3235 0.959 . S
C3250 H3236 0.961 . S
C3250 C3249 1.502 . S
C3251 H3237 0.960 . S
C3251 H3238 0.961 . S
C3251 H3239 0.959 . S
C3251 C3249 1.561 . S
C3252 C3249 1.526 . S
C3252 C3253 1.396 . S
C3252 C3257 1.390 . S
C3253 C3247 1.465 . S
C3253 C3252 1.396 . S
C3253 C3254 1.399 1_655 S
C3254 H3240 0.929 . S
C3254 C3253 1.399 1_455 S
C3254 C3255 1.385 . S
C3255 H3241 0.931 . S
C3255 C3254 1.385 . S
C3255 C3256 1.389 1_455 S
C3256 C3255 1.389 1_655 S
C3256 C3257 1.387 . S
C3257 H3242 0.930 . S
C3257 C3252 1.390 . S
C3257 C3256 1.387 . S
H3258 C3270 0.930 . S
H3259 C3272 0.930 . S
H3260 C3273 0.930 . S
H3261 C3277 0.959 . S
H3262 C3277 0.959 . S
H3263 C3277 0.961 . S
H3264 C3278 0.960 . S
H3265 C3278 0.961 . S
H3266 C3278 0.959 . S
H3267 C3281 0.929 . S
H3268 C3282 0.931 . S
H3269 C3284 0.930 . S
C3270 H3258 0.930 . S
C3270 C3271 1.399 . S
C3270 C3275 1.399 . S
C3271 C3270 1.399 . S
C3271 C3272 1.376 . S
C3272 H3259 0.930 . S
C3272 C3271 1.376 . S
C3272 C3273 1.388 . S
C3273 H3260 0.930 . S
C3273 C3272 1.388 . S
C3273 C3274 1.390 . S
C3274 C3273 1.390 . S
C3274 C3275 1.394 . S
C3274 C3280 1.465 . S
C3275 C3270 1.399 . S
C3275 C3274 1.394 . S
C3275 C3276 1.516 . S
C3276 C3275 1.516 . S
C3276 C3277 1.502 . S
C3276 C3278 1.561 . S
C3276 C3279 1.526 . S
C3277 H3261 0.959 . S
C3277 H3262 0.959 . S
C3277 H3263 0.961 . S
C3277 C3276 1.502 . S
C3278 H3264 0.960 . S
C3278 H3265 0.961 . S
C3278 H3266 0.959 . S
C3278 C3276 1.561 . S
C3279 C3276 1.526 . S
C3279 C3280 1.396 . S
C3279 C3284 1.390 . S
C3280 C3274 1.465 . S
C3280 C3279 1.396 . S
C3280 C3281 1.399 . S
C3281 H3267 0.929 . S
C3281 C3280 1.399 . S
C3281 C3282 1.385 . S
C3282 H3268 0.931 . S
C3282 C3281 1.385 . S
C3282 C3283 1.389 . S
C3283 C3282 1.389 . S
C3283 C3284 1.387 . S
C3284 H3269 0.930 . S
C3284 C3279 1.390 . S
C3284 C3283 1.387 . S
H3285 C3297 0.901 1_565 S
H3286 C3299 0.930 . S
H3287 C3300 0.930 . S
H3288 C3304 1.012 . S
H3289 C3304 0.959 . S
H3290 C3304 0.961 . S
H3291 C3305 0.960 . S
H3292 C3305 0.961 . S
H3293 C3305 0.959 . S
H3294 C3308 0.929 . S
H3295 C3309 0.931 . S
H3296 C3311 0.930 . S
C3297 H3285 0.901 1_545 S
C3297 C3298 1.399 . S
C3297 C3302 1.399 . S
C3298 C3297 1.399 . S
C3298 C3299 1.376 . S
C3299 H3286 0.930 . S
C3299 C3298 1.376 . S
C3299 C3300 1.388 . S
C3300 H3287 0.930 . S
C3300 C3299 1.388 . S
C3300 C3301 1.390 . S
C3301 C3300 1.390 . S
C3301 C3302 1.394 . S
C3301 C3307 1.465 . S
C3302 C3297 1.399 . S
C3302 C3301 1.394 . S
C3302 C3303 1.516 1_545 S
C3303 C3302 1.516 1_565 S
C3303 C3304 1.502 . S
C3303 C3305 1.561 . S
C3303 C3306 1.526 1_565 S
C3304 H3288 1.012 . S
C3304 H3289 0.959 . S
C3304 H3290 0.961 . S
C3304 C3303 1.502 . S
C3305 H3291 0.960 . S
C3305 H3292 0.961 . S
C3305 H3293 0.959 . S
C3305 C3303 1.561 . S
C3306 C3303 1.526 1_545 S
C3306 C3307 1.396 . S
C3306 C3311 1.390 1_545 S
C3307 C3301 1.465 . S
C3307 C3306 1.396 . S
C3307 C3308 1.399 . S
C3308 H3294 0.929 . S
C3308 C3307 1.399 . S
C3308 C3309 1.385 . S
C3309 H3295 0.931 . S
C3309 C3308 1.385 . S
C3309 C3310 1.389 . S
C3310 C3309 1.389 . S
C3310 C3311 1.387 1_545 S
C3311 H3296 0.930 . S
C3311 C3306 1.390 1_565 S
C3311 C3310 1.387 1_565 S
C1381 C7 1.514 . S
C1393 C857 1.555 . S
C1408 C23 1.611 . S
C1420 C901 1.615 . S
C1447 C981 1.561 . S
C1435 C37 1.558 . S
C1462 C35 1.546 . S
C1474 C1025 1.565 . S
C1489 C9 1.596 1_455 S
C1501 C1105 1.569 . S
C1516 C21 1.566 . S
C1528 C1167 1.594 . S
C1543 C49 1.528 . S
C1555 C1087 1.532 . S
C1582 C1149 1.586 . S
C1570 C65 1.615 . S
C1609 C1043 1.587 . S
C1597 C79 1.597 1_565 S
C1624 C77 1.539 . S
C1636 C963 1.521 . S
C1663 C839 1.560 . S
C1651 C51 1.608 1_655 S
C1678 C63 1.615 . S
C1690 C919 1.569 . S
C1705 C91 1.627 . S
C1717 C1229 1.606 . S
C1732 C107 1.674 . S
C1744 C1273 1.603 . S
C1771 C1353 1.645 . S
C1759 C121 1.684 . S
C1786 C119 1.610 . S
C1798 C299 1.644 . S
C1813 C93 1.672 . S
C1825 C343 1.674 . S
C1840 C105 1.631 . S
C1852 C423 1.613 . S
C1867 C133 1.577 . S
C1879 C361 1.629 . S
C1894 C149 1.647 . S
C1906 C405 1.549 . S
C1933 C281 1.619 . S
C1921 C163 1.696 . S
C1960 C1335 1.650 . S
C1948 C161 1.675 . S
C1987 C1211 1.574 . S
C1975 C135 1.679 . S
C2014 C1291 1.635 . S
C2002 C147 1.649 . S
C2029 C175 1.626 . S
C2041 C485 1.554 . S
C2056 C191 1.634 . S
C2068 C547 1.562 . S
C2083 C205 1.678 . S
C2095 C591 1.616 . S
C2110 C203 1.705 . S
C2122 C653 1.658 . S
C2149 C715 1.667 . S
C2137 C177 1.671 . S
C2176 C795 1.591 . S
C2164 C189 1.657 . S
C2203 C733 1.677 . S
C2191 C217 1.626 . S
C2230 C777 1.624 . S
C2218 C233 1.681 . S
C2245 C247 1.669 . S
C2257 C671 1.645 . S
C2284 C609 1.635 . S
C2272 C245 1.626 . S
C2299 C219 1.682 . S
C2311 C467 1.574 . S
C2338 C529 1.581 . S
C2326 C231 1.649 . S
C2365 C305 1.523 . S
C2353 C8 1.569 . S
C2380 C17 1.537 . S
C2392 C349 1.433 . S
C2419 C429 1.458 . S
C2407 C31 1.575 . S
C2446 C491 1.469 . S
C2434 C36 1.575 1_556 S
C2473 C553 1.437 . S
C2461 C3 1.564 . S
C2500 C597 1.512 . S
C2488 C22 1.550 . S
C2515 C50 1.584 . S
C2527 C615 1.492 . S
C2542 C59 1.534 . S
C2554 C473 1.492 . S
C2569 C73 1.574 . S
C2581 C535 1.521 . S
C2596 C78 1.608 . S
C2608 C367 1.519 . S
C2635 C411 1.510 . S
C2623 C45 1.561 . S
C2650 C64 1.537 . S
C2662 C287 1.510 . S
C2689 C659 1.536 . S
C2677 C92 1.565 . S
C2704 C101 1.592 1_545 S
C2716 C721 1.528 . S
C2731 C115 1.607 1_655 S
C2743 C801 1.575 . S
C2770 C863 1.391 . S
C2758 C120 1.496 . S
C2785 C87 1.545 . S
C2797 C907 1.506 . S
C2812 C106 1.439 . S
C2824 C987 1.412 . S
C2839 C134 1.456 . S
C2851 C969 1.444 . S
C2866 C143 1.474 . S
C2878 C845 1.372 . S
C2905 C925 1.540 . S
C2893 C157 1.573 . S
C2920 C162 1.579 . S
C2932 C739 1.560 . S
C2947 C129 1.625 1_545 S
C2959 C783 1.556 . S
C2986 C677 1.559 . S
C2974 C148 1.595 . S
C3013 C1031 1.450 . S
C3001 C176 1.464 . S
C3028 C185 1.474 . S
C3040 C1111 1.370 . S
C3055 C199 1.572 . S
C3067 C1173 1.460 . S
C3094 C1235 1.535 . S
C3082 C204 1.561 . S
C3121 C1279 1.508 . S
C3109 C171 1.613 1_565 S
C3136 C190 1.601 . S
C3148 C1359 1.555 . S
C3163 C218 1.585 . S
C3175 C1341 1.459 . S
C3190 C227 1.607 1_565 S
C3202 C1217 1.499 . S
C3229 C1297 1.555 . S
C3217 C241 1.597 1_455 S
C3256 C1093 1.414 . S
C3244 C246 1.484 . S
C3283 C1155 1.518 . S
C3271 C213 1.566 . S
C3298 C232 1.469 . S
C3310 C1049 1.392 . S
