# Generated by pormake.
# Topology anh, (6,3)-cn, num edge types: 1
# Building blocks:
#     Node 0, Type 0, BuildingBlock: NUHQIS_clean_sbu_0, # of connection points: 6
#     Node 1, Type 0, BuildingBlock: NUHQIS_clean_sbu_0, # of connection points: 6
#     Node 2, Type 0, BuildingBlock: NUHQIS_clean_sbu_0, # of connection points: 6
#     Node 3, Type 1, BuildingBlock: MIDCAF_clean_linker_0, # of connection points: 3
#     Node 4, Type 1, BuildingBlock: MIDCAF_clean_linker_0, # of connection points: 3
#     Node 5, Type 1, BuildingBlock: MIDCAF_clean_linker_0, # of connection points: 3
#     Node 6, Type 1, BuildingBlock: MIDCAF_clean_linker_0, # of connection points: 3
#     Node 7, Type 1, BuildingBlock: MIDCAF_clean_linker_0, # of connection points: 3
#     Node 8, Type 1, BuildingBlock: MIDCAF_clean_linker_0, # of connection points: 3
#     Edge 9, Type (0, 1), BuildingBlock: TEMPAE_clean_linker_10, # of connection points: 2
#     Edge 10, Type (0, 1), BuildingBlock: TEMPAE_clean_linker_10, # of connection points: 2
#     Edge 11, Type (0, 1), BuildingBlock: TEMPAE_clean_linker_10, # of connection points: 2
#     Edge 12, Type (0, 1), BuildingBlock: TEMPAE_clean_linker_10, # of connection points: 2
#     Edge 13, Type (0, 1), BuildingBlock: TEMPAE_clean_linker_10, # of connection points: 2
#     Edge 14, Type (0, 1), BuildingBlock: TEMPAE_clean_linker_10, # of connection points: 2
#     Edge 15, Type (0, 1), BuildingBlock: TEMPAE_clean_linker_10, # of connection points: 2
#     Edge 16, Type (0, 1), BuildingBlock: TEMPAE_clean_linker_10, # of connection points: 2
#     Edge 17, Type (0, 1), BuildingBlock: TEMPAE_clean_linker_10, # of connection points: 2
#     Edge 18, Type (0, 1), BuildingBlock: TEMPAE_clean_linker_10, # of connection points: 2
#     Edge 19, Type (0, 1), BuildingBlock: TEMPAE_clean_linker_10, # of connection points: 2
#     Edge 20, Type (0, 1), BuildingBlock: TEMPAE_clean_linker_10, # of connection points: 2
#     Edge 21, Type (0, 1), BuildingBlock: TEMPAE_clean_linker_10, # of connection points: 2
#     Edge 22, Type (0, 1), BuildingBlock: TEMPAE_clean_linker_10, # of connection points: 2
#     Edge 23, Type (0, 1), BuildingBlock: TEMPAE_clean_linker_10, # of connection points: 2
#     Edge 24, Type (0, 1), BuildingBlock: TEMPAE_clean_linker_10, # of connection points: 2
#     Edge 25, Type (0, 1), BuildingBlock: TEMPAE_clean_linker_10, # of connection points: 2
#     Edge 26, Type (0, 1), BuildingBlock: TEMPAE_clean_linker_10, # of connection points: 2
# Relax obj value: 0.238
# Max RMSD: 0.189
# Mean RMSD: 0.155
data_MOF--net-anh--node1-NUHQIS_clean_sbu_0--node2-MIDCAF_clean_linker_0--edge1-TEMPAE_clean_linker_10
_symmetry_space_group_name_H-M    P1
_symmetry_Int_Tables_number       1
_symmetry_cell_setting            triclinic
loop_
_symmetry_equiv_pos_as_xyz
'x, y, z'
_cell_length_a     39.174472
_cell_length_b     39.050641
_cell_length_c     68.626395
_cell_angle_alpha  90.47917
_cell_angle_beta   93.147833
_cell_angle_gamma 119.96459
loop_
_atom_site_label
_atom_site_type_symbol
_atom_site_fract_x
_atom_site_fract_y
_atom_site_fract_z
_atom_type_partial_charge
Tb0 Tb 0.09284 0.54182 0.1473 0.0
Eu1 Eu 0.04766 0.58887 0.145 0.0
C2 C 0.0708 0.56629 0.18545 0.0
C3 C 0.99472 0.48949 0.14976 0.0
C4 C 0.16811 0.51122 0.15884 0.0
C5 C 0.2034 0.49137 0.18212 0.0
C6 C 0.16866 0.49052 0.17539 0.0
C7 C 0.20347 0.53486 0.14993 0.0
C8 C 0.23802 0.53547 0.15654 0.0
C9 C 0.23806 0.51249 0.17223 0.0
C10 C 0.13019 0.50483 0.14986 0.0
O11 O 0.07317 0.53574 0.116 0.0
O12 O 0.06608 0.58983 0.11414 0.0
O13 O 0.1135 0.64049 0.15158 0.0
O14 O 0.14536 0.60539 0.14825 0.0
C15 C 0.06993 0.56207 0.10542 0.0
O16 O 1.00626 0.60292 0.12979 0.0
O17 O 1.03523 0.63253 0.15774 0.0
O18 O 0.04194 0.56643 0.17515 0.0
O19 O 0.09972 0.56647 0.17673 0.0
O20 O 1.03001 0.4917 0.15177 0.0
O21 O 0.99463 0.52277 0.14538 0.0
C22 C 0.14757 0.64052 0.15119 0.0
O23 O 0.10355 0.50052 0.1617 0.0
O24 O 0.13164 0.52659 0.13525 0.0
C25 C 0.96757 0.6121 0.15159 0.0
C26 C 0.88775 0.57136 0.16051 0.0
C27 C 0.89915 0.59182 0.14306 0.0
C28 C 0.93865 0.61218 0.13875 0.0
C29 C 0.95686 0.59396 0.16959 0.0
C30 C 0.91732 0.57408 0.17409 0.0
C31 C 1.00665 0.62452 0.14453 0.0
H32 H 0.20255 0.47375 0.19439 0.0
H33 H 0.1418 0.47217 0.18258 0.0
H34 H 0.20413 0.55126 0.13717 0.0
H35 H 0.26387 0.55162 0.14832 0.0
H36 H 0.87744 0.58993 0.132 0.0
H37 H 0.94625 0.6256 0.12471 0.0
H38 H 0.97866 0.59325 0.17974 0.0
H39 H 0.9098 0.55935 0.18779 0.0
Tb40 Tb 0.61507 0.08301 0.48211 0.0
Eu41 Eu 0.52343 0.03804 0.47525 0.0
C42 C 0.56306 0.05395 0.51752 0.0
C43 C 0.56993 0.9848 0.48254 0.0
C44 C 0.71277 0.16407 0.49693 0.0
C45 C 0.77473 0.22589 0.49873 0.0
C46 C 0.7536 0.18487 0.49541 0.0
C47 C 0.69386 0.18396 0.50357 0.0
C48 C 0.71458 0.22499 0.50624 0.0
C49 C 0.75492 0.24674 0.50281 0.0
C50 C 0.6889 0.12368 0.48861 0.0
O51 O 0.60364 0.06451 0.45066 0.0
O52 O 0.54552 0.06345 0.44601 0.0
O53 O 0.53687 0.10267 0.48344 0.0
O54 O 0.60343 0.13508 0.4809 0.0
C55 C 0.57653 0.06527 0.43873 0.0
O56 O 0.4698 0.99731 0.45778 0.0
O57 O 0.46605 1.02537 0.48441 0.0
O58 O 0.53577 0.02644 0.50577 0.0
O59 O 0.59278 0.08459 0.51035 0.0
O60 O 0.60273 1.01989 0.4863 0.0
O61 O 0.53712 0.98526 0.47638 0.0
C62 C 0.57074 0.137 0.48353 0.0
O63 O 0.66569 0.09736 0.50038 0.0
O64 O 0.67047 0.12125 0.4718 0.0
C65 C 0.41815 0.95924 0.47751 0.0
C66 C 0.36349 0.88274 0.48829 0.0
C67 C 0.40419 0.89734 0.4918 0.0
C68 C 0.43132 0.93539 0.48649 0.0
C69 C 0.3777 0.94559 0.47476 0.0
C70 C 0.35049 0.90761 0.48019 0.0
C71 C 0.44677 0.99791 0.4707 0.0
H72 H 0.80613 0.24144 0.49683 0.0
H73 H 0.76873 0.16981 0.49057 0.0
H74 H 0.66245 0.16812 0.50534 0.0
H75 H 0.69809 0.23956 0.50947 0.0
H76 H 0.41514 0.87881 0.49782 0.0
H77 H 0.46259 0.9458 0.48891 0.0
H78 H 0.36718 0.96395 0.46806 0.0
H79 H 0.31926 0.89733 0.47761 0.0
Tb80 Tb 0.58828 0.60185 0.81534 0.0
Eu81 Eu 0.54131 0.50958 0.81048 0.0
C82 C 0.56721 0.55043 0.85186 0.0
C83 C 0.64146 0.55637 0.81707 0.0
C84 C 0.60473 0.69862 0.82878 0.0
C85 C 0.5999 0.75798 0.82806 0.0
C86 C 0.6216 0.73894 0.82542 0.0
C87 C 0.56767 0.67851 0.83661 0.0
C88 C 0.54546 0.69703 0.8386 0.0
C89 C 0.5604 0.73644 0.83327 0.0
C90 C 0.62146 0.67573 0.8208 0.0
O91 O 0.5918 0.59062 0.78395 0.0
O92 O 0.53827 0.52887 0.77977 0.0
O93 O 0.49064 0.52349 0.81705 0.0
O94 O 0.5246 0.5903 0.81417 0.0
C95 C 0.5655 0.56109 0.77226 0.0
O96 O 0.52613 0.45405 0.79536 0.0
O97 O 0.49682 0.45356 0.82143 0.0
O98 O 0.56786 0.52342 0.84098 0.0
O99 O 0.5664 0.58027 0.84385 0.0
O100 O 0.63951 0.58942 0.81974 0.0
O101 O 0.60755 0.52302 0.81204 0.0
C102 C 0.4902 0.55745 0.81688 0.0
O103 O 0.62644 0.65275 0.83286 0.0
O104 O 0.60406 0.65723 0.80416 0.0
C105 C 0.51267 0.40348 0.8176 0.0
C106 C 0.5283 0.34609 0.83352 0.0
C107 C 0.55715 0.37781 0.82355 0.0
C108 C 0.54952 0.40635 0.81579 0.0
C109 C 0.48446 0.37299 0.82827 0.0
C110 C 0.49226 0.34463 0.83626 0.0
C111 C 0.50378 0.43272 0.80899 0.0
H112 H 0.61323 0.7889 0.82472 0.0
H113 H 0.65042 0.75504 0.81961 0.0
H114 H 0.55454 0.64751 0.83972 0.0
H115 H 0.51547 0.67924 0.84279 0.0
H116 H 0.58499 0.37963 0.82087 0.0
H117 H 0.57218 0.4301 0.80798 0.0
H118 H 0.45617 0.37079 0.83018 0.0
H119 H 0.46964 0.32091 0.8441 0.0
C120 C 0.45416 0.92496 0.19262 0.0
C121 C 0.42954 0.91777 0.17523 0.0
C122 C 0.4466 0.95066 0.16249 0.0
C123 C 0.48409 0.98747 0.16714 0.0
H124 H 0.64781 0.12088 0.1565 0.0
H125 H 0.70845 0.18174 0.14828 0.0
H126 H 0.71622 0.23265 0.2053 0.0
H127 H 0.65753 0.17351 0.21323 0.0
H128 H 0.61655 0.13331 0.25036 0.0
H129 H 0.61687 0.13356 0.2859 0.0
H130 H 0.55108 1.00564 0.28316 0.0
H131 H 0.54859 1.00598 0.24777 0.0
H132 H 0.50649 0.96269 0.21101 0.0
H133 H 0.44522 0.90223 0.20322 0.0
H134 H 0.43048 0.94859 0.14881 0.0
H135 H 0.49361 1.0109 0.15688 0.0
N136 N 0.57615 0.06706 0.18345 0.0
N137 N 0.60837 0.09974 0.21396 0.0
N138 N 0.5505 0.03779 0.21332 0.0
C139 C 0.60823 0.10037 0.19398 0.0
C140 C 0.58044 0.06922 0.22375 0.0
C141 C 0.54633 0.03493 0.1934 0.0
C142 C 0.64501 0.13958 0.1859 0.0
C143 C 0.66191 0.14496 0.16738 0.0
C144 C 0.69801 0.18105 0.16261 0.0
C145 C 0.72057 0.21504 0.17587 0.0
C146 C 0.70284 0.20932 0.19408 0.0
C147 C 0.6674 0.17381 0.19877 0.0
C148 C 0.58236 0.06967 0.24589 0.0
C149 C 0.60207 0.10522 0.25736 0.0
C150 C 0.60246 0.10523 0.27801 0.0
C151 C 0.5839 0.06958 0.28815 0.0
C152 C 0.56491 0.03404 0.27649 0.0
C153 C 0.56376 0.03413 0.25589 0.0
C154 C 0.50797 0.99445 0.18493 0.0
C155 C 0.49103 0.96107 0.19716 0.0
C156 C 0.58718 0.43664 0.52802 0.0
C157 C 0.57459 0.41642 0.50935 0.0
C158 C 0.56289 0.43715 0.49563 0.0
C159 C 0.56305 0.47396 0.50044 0.0
H160 H 0.59499 0.63939 0.49112 0.0
H161 H 0.59517 0.70112 0.48276 0.0
H162 H 0.54081 0.69739 0.53606 0.0
H163 H 0.54088 0.63762 0.54416 0.0
H164 H 0.56886 0.61779 0.58245 0.0
H165 H 0.56929 0.61909 0.618 0.0
H166 H 0.5738 0.51093 0.61869 0.0
H167 H 0.57427 0.51013 0.58316 0.0
H168 H 0.59742 0.4847 0.54755 0.0
H169 H 0.59758 0.42478 0.53955 0.0
H170 H 0.55271 0.42461 0.48093 0.0
H171 H 0.55277 0.48659 0.4892 0.0
N172 N 0.57162 0.56215 0.51712 0.0
N173 N 0.57022 0.59225 0.54708 0.0
N174 N 0.57293 0.53364 0.54741 0.0
C175 C 0.57023 0.59357 0.52716 0.0
C176 C 0.57159 0.56323 0.55737 0.0
C177 C 0.57296 0.53124 0.5275 0.0
C178 C 0.56781 0.63081 0.51867 0.0
C179 C 0.58253 0.65112 0.50109 0.0
C180 C 0.5828 0.68781 0.49626 0.0
C181 C 0.56855 0.70751 0.50856 0.0
C182 C 0.55326 0.68635 0.52576 0.0
C183 C 0.55303 0.65032 0.5305 0.0
C184 C 0.57157 0.56386 0.57952 0.0
C185 C 0.56999 0.59419 0.59009 0.0
C186 C 0.56997 0.59479 0.61069 0.0
C187 C 0.57155 0.56511 0.62169 0.0
C188 C 0.57315 0.53479 0.6111 0.0
C189 C 0.57314 0.53417 0.59049 0.0
C190 C 0.57508 0.49337 0.51942 0.0
C191 C 0.58732 0.47278 0.53273 0.0
C192 C 0.92732 0.53808 0.85842 0.0
C193 C 0.92012 0.55517 0.84153 0.0
C194 C 0.95315 0.57099 0.82931 0.0
C195 C 0.99 0.57058 0.83397 0.0
H196 H 0.12569 0.54477 0.82205 0.0
H197 H 0.18661 0.54491 0.81386 0.0
H198 H 0.23192 0.57714 0.87371 0.0
H199 H 0.1729 0.57681 0.88159 0.0
H200 H 0.12855 0.56019 0.9173 0.0
H201 H 0.12866 0.55936 0.95293 0.0
H202 H 1.01619 0.55491 0.94983 0.0
H203 H 1.01568 0.55486 0.91436 0.0
H204 H 0.96512 0.52407 0.87643 0.0
H205 H 0.90458 0.52434 0.8686 0.0
H206 H 0.95114 0.58481 0.81604 0.0
H207 H 1.01348 0.58447 0.82415 0.0
N208 N 0.06937 0.55792 0.85007 0.0
N209 N 0.10156 0.55899 0.88068 0.0
N210 N 0.04047 0.55655 0.8798 0.0
C211 C 0.10239 0.55908 0.86073 0.0
C212 C 0.07149 0.55776 0.89037 0.0
C213 C 0.03748 0.55661 0.85988 0.0
C214 C 0.14151 0.56072 0.85288 0.0
C215 C 0.14848 0.55218 0.83361 0.0
C216 C 0.18464 0.55218 0.82883 0.0
C217 C 0.21714 0.56065 0.84283 0.0
C218 C 0.20982 0.56961 0.86183 0.0
C219 C 0.1743 0.56957 0.86651 0.0
C220 C 0.0721 0.55754 0.91254 0.0
C221 C 0.10374 0.55898 0.92414 0.0
C222 C 0.1039 0.55875 0.94478 0.0
C223 C 0.07239 0.55699 0.95472 0.0
C224 C 0.04083 0.5556 0.94306 0.0
C225 C 0.04068 0.55587 0.92248 0.0
C226 C 0.99696 0.55402 0.85126 0.0
C227 C 0.9635 0.53763 0.86298 0.0
C228 C 0.168 0.6149 0.4465 0.0
C229 C 0.16272 0.6132 0.46668 0.0
C230 C 0.12453 0.58972 0.47297 0.0
C231 C 0.09202 0.57167 0.4594 0.0
H232 H 0.9845 0.58097 0.45029 0.0
H233 H 0.92623 0.55271 0.46917 0.0
H234 H 0.86455 0.45797 0.42525 0.0
H235 H 0.92229 0.4873 0.40608 0.0
H236 H 0.97637 0.51966 0.36293 0.0
H237 H 0.98487 0.52032 0.3279 0.0
H238 H 0.11141 0.58062 0.33958 0.0
H239 H 0.10324 0.58019 0.37449 0.0
H240 H 0.14054 0.60047 0.41755 0.0
H241 H 0.1969 0.63308 0.44107 0.0
H242 H 0.11955 0.58725 0.48839 0.0
H243 H 0.06277 0.55552 0.46475 0.0
N244 N 1.02762 0.55605 0.43169 0.0
N245 N 0.99915 0.54273 0.39957 0.0
N246 N 0.066 0.56154 0.40572 0.0
C247 C 0.9959 0.54578 0.41905 0.0
C248 C 1.03444 0.55105 0.3928 0.0
C249 C 0.06263 0.56362 0.4252 0.0
C250 C 0.95801 0.53564 0.42701 0.0
C251 C 0.95789 0.5549 0.44437 0.0
C252 C 0.92456 0.53874 0.45517 0.0
C253 C 0.89112 0.50253 0.44902 0.0
C254 C 0.88972 0.48597 0.43045 0.0
C255 C 0.92292 0.50259 0.41946 0.0
C256 C 0.03909 0.54997 0.37156 0.0
C257 C 1.006 0.53297 0.35806 0.0
C258 C 1.01082 0.53312 0.33801 0.0
C259 C 0.0488 0.55063 0.33107 0.0
C260 C 0.08182 0.56726 0.34454 0.0
C261 C 0.07704 0.56678 0.36455 0.0
C262 C 0.09712 0.57641 0.43927 0.0
C263 C 0.13555 0.59653 0.43294 0.0
C264 C 0.56378 0.1224 0.77669 0.0
C265 C 0.54466 0.12046 0.79374 0.0
C266 C 0.51117 0.08458 0.79787 0.0
C267 C 0.49603 0.05202 0.78478 0.0
H268 H 0.40617 0.9324 0.77552 0.0
H269 H 0.38678 0.87434 0.79496 0.0
H270 H 0.43038 0.8265 0.75221 0.0
H271 H 0.44896 0.88409 0.73262 0.0
H272 H 0.47474 0.94025 0.69134 0.0
H273 H 0.49206 0.95263 0.6574 0.0
H274 H 0.54782 0.0784 0.66986 0.0
H275 H 0.53057 0.0664 0.70357 0.0
H276 H 0.56314 0.09275 0.7502 0.0
H277 H 0.59003 0.14941 0.77325 0.0
H278 H 0.49529 0.08218 0.81069 0.0
H279 H 0.46945 1.02523 0.78813 0.0
N280 N 0.46985 0.98449 0.75827 0.0
N281 N 0.46464 0.95843 0.7266 0.0
N282 N 0.5059 0.02644 0.73395 0.0
C283 C 0.45405 0.95302 0.74538 0.0
C284 C 0.49018 0.99539 0.72073 0.0
C285 C 0.49598 1.02116 0.75274 0.0
C286 C 0.43013 0.91317 0.75288 0.0
C287 C 0.41012 0.90868 0.7699 0.0
C288 C 0.39894 0.87544 0.78102 0.0
C289 C 0.40803 0.84643 0.7754 0.0
C290 C 0.42293 0.84834 0.75697 0.0
C291 C 0.4338 0.88149 0.74574 0.0
C292 C 0.50112 1.00228 0.70021 0.0
C293 C 0.49072 0.97054 0.68686 0.0
C294 C 0.50085 0.9776 0.66747 0.0
C295 C 0.52119 1.01648 0.66103 0.0
C296 C 0.5318 0.04814 0.67438 0.0
C297 C 0.52203 0.04116 0.69375 0.0
C298 C 0.51377 0.05476 0.76718 0.0
C299 C 0.54831 0.08998 0.76346 0.0
C300 C 0.63106 0.40991 0.0923 0.0
C301 C 0.62364 0.39504 0.11118 0.0
C302 C 0.58457 0.37577 0.11676 0.0
C303 C 0.55445 0.37501 0.10455 0.0
H304 H 0.45481 0.38163 0.1125 0.0
H305 H 0.41668 0.39698 0.1342 0.0
H306 H 0.40877 0.47379 0.09143 0.0
H307 H 0.44565 0.45755 0.06952 0.0
H308 H 0.46192 0.42247 0.02059 0.0
H309 H 0.47439 0.45091 -0.01142 0.0
H310 H 0.60007 0.50134 0.00189 0.0
H311 H 0.58699 0.47023 0.03328 0.0
H312 H 0.60837 0.42284 0.06616 0.0
H313 H 0.66076 0.42541 0.08747 0.0
H314 H 0.57763 0.36318 0.13099 0.0
H315 H 0.52511 0.36209 0.10978 0.0
N316 N 0.50445 0.40071 0.0856 0.0
N317 N 0.4865 0.42638 0.05877 0.0
N318 N 0.53979 0.41501 0.0575 0.0
C319 C 0.48076 0.41333 0.07724 0.0
C320 C 0.51577 0.427 0.04878 0.0
C321 C 0.53384 0.40121 0.07585 0.0
C322 C 0.45331 0.41838 0.08926 0.0
C323 C 0.44446 0.40137 0.10761 0.0
C324 C 0.42295 0.41045 0.12014 0.0
C325 C 0.41001 0.43686 0.11463 0.0
C326 C 0.41788 0.45294 0.09605 0.0
C327 C 0.43907 0.44361 0.08346 0.0
C328 C 0.52345 0.44389 0.0293 0.0
C329 C 0.49215 0.43946 0.01655 0.0
C330 C 0.49945 0.45623 -0.00173 0.0
C331 C 0.53836 0.47883 -0.00748 0.0
C332 C 0.56968 0.48356 0.00551 0.0
C333 C 0.56225 0.46585 0.02358 0.0
C334 C 0.56279 0.39318 0.08646 0.0
C335 C 0.60092 0.40871 0.08002 0.0
C336 C 0.31006 0.53462 0.17223 0.0
C337 C 0.27146 0.50489 0.1754 0.0
C338 C 0.33857 0.52484 0.16747 0.0
C339 C 0.32816 0.48456 0.16627 0.0
C340 C 0.29171 0.4554 0.17289 0.0
C341 C 0.26351 0.46584 0.17723 0.0
C342 C 0.37763 0.55701 0.16107 0.0
C343 C 0.28026 0.41231 0.17269 0.0
C344 C 0.35694 0.45223 0.121 0.0
C345 C 0.38877 0.44812 0.12821 0.0
C346 C 0.33746 0.46447 0.13331 0.0
C347 C 0.34961 0.47211 0.15347 0.0
C348 C 0.38119 0.46726 0.161 0.0
C349 C 0.4007 0.45565 0.14821 0.0
C350 C 0.30378 0.4692 0.12464 0.0
C351 C 0.39489 0.47494 0.18239 0.0
H352 H 0.31686 0.5651 0.17157 0.0
H353 H 0.234 0.44255 0.17992 0.0
H354 H 0.40198 0.55184 0.16615 0.0
H355 H 0.37647 0.5569 0.14487 0.0
H356 H 0.38446 0.58671 0.16664 0.0
H357 H 0.2557 0.39514 0.18221 0.0
H358 H 0.2704 0.3995 0.15756 0.0
H359 H 0.30581 0.40883 0.17755 0.0
H360 H 0.34708 0.44571 0.10566 0.0
H361 H 0.4257 0.4531 0.15384 0.0
H362 H 0.30978 0.49972 0.12773 0.0
H363 H 0.27606 0.44859 0.1314 0.0
H364 H 0.29894 0.46323 0.10857 0.0
H365 H 0.41293 0.5073 0.18555 0.0
H366 H 0.4133 0.46151 0.18656 0.0
H367 H 0.36947 0.46322 0.19172 0.0
C368 C 0.76318 0.3139 0.51079 0.0
C369 C 0.77433 0.29023 0.5004 0.0
C370 C 0.77713 0.35356 0.50625 0.0
C371 C 0.80334 0.37002 0.49122 0.0
C372 C 0.816 0.34683 0.48129 0.0
C373 C 0.80099 0.30729 0.48582 0.0
C374 C 0.76227 0.37694 0.51694 0.0
C375 C 0.84455 0.36333 0.46533 0.0
C376 C 0.82317 0.45109 0.45738 0.0
C377 C 0.86279 0.47757 0.46336 0.0
C378 C 0.80037 0.41792 0.46828 0.0
C379 C 0.81799 0.41121 0.48528 0.0
C380 C 0.85548 0.44116 0.493 0.0
C381 C 0.87755 0.47408 0.48191 0.0
C382 C 0.75952 0.38747 0.46017 0.0
C383 C 0.87481 0.43568 0.51142 0.0
H384 H 0.74288 0.30131 0.52222 0.0
H385 H 0.80905 0.28938 0.47721 0.0
H386 H 0.78534 0.40853 0.5192 0.0
H387 H 0.737 0.37557 0.50809 0.0
H388 H 0.75177 0.36456 0.53135 0.0
H389 H 0.85282 0.34185 0.45976 0.0
H390 H 0.83111 0.37153 0.45291 0.0
H391 H 0.87195 0.39047 0.47084 0.0
H392 H 0.81113 0.45433 0.44336 0.0
H393 H 0.90801 0.49447 0.48686 0.0
H394 H 0.73938 0.37419 0.4721 0.0
H395 H 0.76104 0.36333 0.45233 0.0
H396 H 0.74688 0.40047 0.44974 0.0
H397 H 0.85305 0.42113 0.52257 0.0
H398 H 0.8993 0.46436 0.51772 0.0
H399 H 0.88717 0.41637 0.50797 0.0
C400 C 0.53834 0.77732 0.81448 0.0
C401 C 0.53319 0.75255 0.83009 0.0
C402 C 0.51062 0.78875 0.8093 0.0
C403 C 0.47593 0.77409 0.81954 0.0
C404 C 0.47057 0.74975 0.83555 0.0
C405 C 0.49959 0.73976 0.84084 0.0
C406 C 0.518 0.81555 0.79233 0.0
C407 C 0.43361 0.73304 0.84657 0.0
C408 C 0.43291 0.83866 0.80817 0.0
C409 C 0.41203 0.82102 0.79022 0.0
C410 C 0.45 0.82089 0.81958 0.0
C411 C 0.44571 0.78452 0.81291 0.0
C412 C 0.41965 0.7638 0.79644 0.0
C413 C 0.40334 0.78254 0.78512 0.0
C414 C 0.47741 0.84402 0.83706 0.0
C415 C 0.41308 0.72416 0.78934 0.0
H416 H 0.56326 0.78661 0.80559 0.0
H417 H 0.49536 0.72111 0.85312 0.0
H418 H 0.49541 0.79941 0.78015 0.0
H419 H 0.51555 0.84159 0.79676 0.0
H420 H 0.54764 0.82635 0.78677 0.0
H421 H 0.4355 0.7175 0.85971 0.0
H422 H 0.42773 0.75682 0.85112 0.0
H423 H 0.40792 0.71172 0.83685 0.0
H424 H 0.43985 0.86843 0.81228 0.0
H425 H 0.38654 0.76846 0.77147 0.0
H426 H 0.50823 0.86 0.83259 0.0
H427 H 0.476 0.82423 0.84886 0.0
H428 H 0.47039 0.8662 0.84297 0.0
H429 H 0.43854 0.72865 0.78113 0.0
H430 H 0.38584 0.70818 0.77948 0.0
H431 H 0.41094 0.70541 0.80179 0.0
C432 C 0.83286 0.50617 0.17085 0.0
C433 C 0.84518 0.54342 0.16297 0.0
C434 C 0.79315 0.47601 0.16859 0.0
C435 C 0.76582 0.48284 0.15751 0.0
C436 C 0.77717 0.52146 0.15147 0.0
C437 C 0.81653 0.55152 0.15476 0.0
C438 C 0.78074 0.43624 0.17705 0.0
C439 C 0.74875 0.5303 0.13987 0.0
C440 C 0.6926 0.40945 0.11955 0.0
C441 C 0.65737 0.40563 0.12568 0.0
C442 C 0.72822 0.43178 0.1308 0.0
C443 C 0.72819 0.44919 0.149 0.0
C444 C 0.69194 0.43998 0.15664 0.0
C445 C 0.65689 0.41884 0.14473 0.0
C446 C 0.76622 0.44038 0.12213 0.0
C447 C 0.69016 0.45554 0.17652 0.0
H448 H 0.85442 0.49951 0.17758 0.0
H449 H 0.82538 0.58074 0.14957 0.0
H450 H 0.756 0.42832 0.18653 0.0
H451 H 0.76964 0.41295 0.16522 0.0
H452 H 0.80532 0.43597 0.18579 0.0
H453 H 0.76215 0.56212 0.13664 0.0
H454 H 0.73893 0.51275 0.12582 0.0
H455 H 0.72214 0.5217 0.148 0.0
H456 H 0.69291 0.39782 0.10521 0.0
H457 H 0.62984 0.41572 0.14986 0.0
H458 H 0.7847 0.43423 0.13269 0.0
H459 H 0.78335 0.47219 0.11884 0.0
H460 H 0.76092 0.42255 0.10844 0.0
H461 H 0.71613 0.46183 0.18645 0.0
H462 H 0.66286 0.43399 0.18336 0.0
H463 H 0.68919 0.4833 0.17497 0.0
C464 C 0.33891 0.82125 0.50757 0.0
C465 C 0.33498 0.84055 0.49116 0.0
C466 C 0.31342 0.78052 0.50944 0.0
C467 C 0.28381 0.75879 0.4944 0.0
C468 C 0.27943 0.77838 0.47797 0.0
C469 C 0.30505 0.81891 0.47658 0.0
C470 C 0.31909 0.76085 0.52717 0.0
C471 C 0.2481 0.75643 0.46156 0.0
C472 C 0.23466 0.65312 0.47729 0.0
C473 C 0.19543 0.64203 0.48039 0.0
C474 C 0.26578 0.68983 0.48453 0.0
C475 C 0.25713 0.71549 0.49512 0.0
C476 C 0.21867 0.70129 0.50128 0.0
C477 C 0.18804 0.66466 0.49371 0.0
C478 C 0.30685 0.70335 0.47839 0.0
C479 C 0.20864 0.72715 0.51334 0.0
H480 H 0.36202 0.83796 0.51892 0.0
H481 H 0.30241 0.83346 0.46367 0.0
H482 H 0.29047 0.737 0.53189 0.0
H483 H 0.33709 0.74729 0.52352 0.0
H484 H 0.33488 0.78253 0.5396 0.0
H485 H 0.24858 0.77628 0.44994 0.0
H486 H 0.25248 0.7331 0.45482 0.0
H487 H 0.21837 0.74171 0.46735 0.0
H488 H 0.24069 0.63497 0.46761 0.0
H489 H 0.15794 0.65623 0.49651 0.0
H490 H 0.32931 0.72087 0.49039 0.0
H491 H 0.31263 0.72263 0.46576 0.0
H492 H 0.31043 0.67794 0.47396 0.0
H493 H 0.23284 0.74527 0.52454 0.0
H494 H 0.18086 0.70928 0.5207 0.0
H495 H 0.20459 0.74765 0.50365 0.0
C496 C 0.5027 0.27352 0.83357 0.0
C497 C 0.53377 0.31204 0.83819 0.0
C498 C 0.50973 0.24187 0.83222 0.0
C499 C 0.54882 0.24908 0.83539 0.0
C500 C 0.57919 0.28665 0.8427 0.0
C501 C 0.5713 0.31787 0.84401 0.0
C502 C 0.47617 0.20188 0.8249 0.0
C503 C 0.62088 0.29502 0.84704 0.0
C504 C 0.55259 0.15566 0.82598 0.0
C505 C 0.55576 0.15683 0.80567 0.0
C506 C 0.55413 0.18741 0.83654 0.0
C507 C 0.55871 0.22073 0.82646 0.0
C508 C 0.56597 0.22366 0.80638 0.0
C509 C 0.56429 0.19164 0.79624 0.0
C510 C 0.54756 0.18365 0.85805 0.0
C511 C 0.57156 0.25898 0.79507 0.0
H512 H 0.47353 0.26853 0.82913 0.0
H513 H 0.59518 0.34736 0.84827 0.0
H514 H 0.47955 0.19682 0.80936 0.0
H515 H 0.47662 0.17796 0.8333 0.0
H516 H 0.44694 0.19965 0.82596 0.0
H517 H 0.63779 0.32102 0.85735 0.0
H518 H 0.62121 0.26906 0.85328 0.0
H519 H 0.63619 0.30159 0.83327 0.0
H520 H 0.54695 0.12918 0.83346 0.0
H521 H 0.56656 0.19285 0.78057 0.0
H522 H 0.51555 0.17049 0.86002 0.0
H523 H 0.56333 0.21288 0.86601 0.0
H524 H 0.55741 0.16394 0.86472 0.0
H525 H 0.54338 0.25937 0.7938 0.0
H526 H 0.58082 0.25838 0.78012 0.0
H527 H 0.59411 0.2869 0.80283 0.0
C528 C 0.53538 0.90571 0.48298 0.0
C529 C 0.56986 0.94394 0.48571 0.0
C530 C 0.53489 0.86852 0.48614 0.0
C531 C 0.5697 0.86676 0.49237 0.0
C532 C 0.60457 0.90522 0.49512 0.0
C533 C 0.60423 0.94197 0.49191 0.0
C534 C 0.49622 0.83041 0.48278 0.0
C535 C 0.64311 0.90777 0.50168 0.0
C536 C 0.56267 0.77117 0.51853 0.0
C537 C 0.56925 0.74865 0.50412 0.0
C538 C 0.56268 0.80795 0.515 0.0
C539 C 0.56953 0.82579 0.49633 0.0
C540 C 0.57637 0.80361 0.48169 0.0
C541 C 0.57624 0.76675 0.48561 0.0
C542 C 0.55529 0.82812 0.53172 0.0
C543 C 0.58391 0.81898 0.46141 0.0
H544 H 0.50794 0.90461 0.47836 0.0
H545 H 0.63166 0.96975 0.49437 0.0
H546 H 0.49892 0.8114 0.47158 0.0
H547 H 0.48876 0.81394 0.49645 0.0
H548 H 0.47158 0.83539 0.47793 0.0
H549 H 0.66801 0.93876 0.50296 0.0
H550 H 0.6405 0.89418 0.51605 0.0
H551 H 0.65011 0.89076 0.49117 0.0
H552 H 0.55776 0.76043 0.53314 0.0
H553 H 0.5814 0.75185 0.47374 0.0
H554 H 0.5293 0.83148 0.52777 0.0
H555 H 0.58104 0.85828 0.53462 0.0
H556 H 0.54998 0.81153 0.54534 0.0
H557 H 0.55839 0.82139 0.45531 0.0
H558 H 0.58884 0.79963 0.45138 0.0
H559 H 0.61018 0.84913 0.46199 0.0
C560 C 0.68625 0.5221 0.81772 0.0
C561 C 0.68269 0.55655 0.82011 0.0
C562 C 0.72331 0.52174 0.82064 0.0
C563 C 0.7605 0.55663 0.82634 0.0
C564 C 0.75711 0.59148 0.82878 0.0
C565 C 0.71966 0.59104 0.82574 0.0
C566 C 0.72247 0.4831 0.81757 0.0
C567 C 0.7937 0.6301 0.83481 0.0
C568 C 0.85205 0.54913 0.85198 0.0
C569 C 0.87934 0.55608 0.83735 0.0
C570 C 0.815 0.54927 0.8487 0.0
C571 C 0.80175 0.55653 0.83006 0.0
C572 C 0.82895 0.56373 0.81518 0.0
C573 C 0.86606 0.56357 0.81887 0.0
C574 C 0.78963 0.54161 0.86566 0.0
C575 C 0.81867 0.57161 0.79489 0.0
H576 H 0.6595 0.49459 0.81349 0.0
H577 H 0.71954 0.61848 0.82792 0.0
H578 H 0.74293 0.48607 0.8063 0.0
H579 H 0.73294 0.4754 0.8313 0.0
H580 H 0.69243 0.45844 0.81296 0.0
H581 H 0.78764 0.65492 0.83605 0.0
H582 H 0.80663 0.62734 0.84909 0.0
H583 H 0.81621 0.63741 0.82401 0.0
H584 H 0.85966 0.54386 0.86658 0.0
H585 H 0.88465 0.56903 0.80685 0.0
H586 H 0.75999 0.51543 0.86212 0.0
H587 H 0.78534 0.56723 0.86835 0.0
H588 H 0.8027 0.53636 0.87929 0.0
H589 H 0.79003 0.54619 0.78914 0.0
H590 H 0.84157 0.57661 0.78466 0.0
H591 H 0.815 0.598 0.79533 0.0
C592 C 0.19242 0.71876 0.15811 0.0
C593 C 0.18921 0.68122 0.15423 0.0
C594 C 0.22974 0.75598 0.16108 0.0
C595 C 0.26761 0.75857 0.16028 0.0
C596 C 0.26463 0.72083 0.1563 0.0
C597 C 0.22685 0.68393 0.15346 0.0
C598 C 0.22846 0.79322 0.16525 0.0
C599 C 0.30204 0.71922 0.15499 0.0
C600 C 0.36695 0.86316 0.15229 0.0
C601 C 0.38764 0.8771 0.17108 0.0
C602 C 0.3295 0.82607 0.14866 0.0
C603 C 0.30926 0.79965 0.16391 0.0
C604 C 0.32968 0.81359 0.18285 0.0
C605 C 0.36709 0.85058 0.18607 0.0
C606 C 0.31143 0.81494 0.12804 0.0
C607 C 0.31164 0.78908 0.2002 0.0
H608 H 0.16516 0.71927 0.15896 0.0
H609 H 0.22703 0.65671 0.15058 0.0
H610 H 0.24436 0.80684 0.17958 0.0
H611 H 0.24383 0.815 0.15401 0.0
H612 H 0.19777 0.78766 0.16546 0.0
H613 H 0.29613 0.68886 0.15144 0.0
H614 H 0.31994 0.7392 0.14364 0.0
H615 H 0.32004 0.72991 0.16909 0.0
H616 H 0.3803 0.88119 0.14001 0.0
H617 H 0.37996 0.8588 0.20089 0.0
H618 H 0.28165 0.81186 0.12725 0.0
H619 H 0.30761 0.7858 0.12354 0.0
H620 H 0.32972 0.83715 0.11752 0.0
H621 H 0.28187 0.78522 0.20172 0.0
H622 H 0.32992 0.80268 0.21404 0.0
H623 H 0.30779 0.75917 0.19791 0.0
C624 C 0.60716 0.21625 0.48776 0.0
C625 C 0.57187 0.17849 0.48673 0.0
C626 C 0.60828 0.25388 0.49095 0.0
C627 C 0.5733 0.25654 0.49329 0.0
C628 C 0.53765 0.21855 0.49221 0.0
C629 C 0.53739 0.1814 0.48909 0.0
C630 C 0.6478 0.29141 0.4919 0.0
C631 C 0.49885 0.21693 0.49444 0.0
C632 C 0.57756 0.3516 0.51989 0.0
C633 C 0.57401 0.3752 0.50489 0.0
C634 C 0.57757 0.3147 0.51642 0.0
C635 C 0.57387 0.29785 0.4972 0.0
C636 C 0.57016 0.32116 0.48193 0.0
C637 C 0.57019 0.35811 0.4858 0.0
C638 C 0.5815 0.29331 0.53381 0.0
C639 C 0.56617 0.30694 0.46103 0.0
H640 H 0.63467 0.21663 0.48612 0.0
H641 H 0.50934 0.15402 0.48853 0.0
H642 H 0.6476 0.31181 0.4808 0.0
H643 H 0.65353 0.30671 0.50642 0.0
H644 H 0.67242 0.2858 0.48944 0.0
H645 H 0.47341 0.18624 0.49302 0.0
H646 H 0.4993 0.22999 0.50894 0.0
H647 H 0.49438 0.23489 0.48323 0.0
H648 H 0.57993 0.36153 0.5349 0.0
H649 H 0.56748 0.37388 0.47347 0.0
H650 H 0.60758 0.28951 0.53274 0.0
H651 H 0.55514 0.26331 0.53388 0.0
H652 H 0.58469 0.30926 0.54787 0.0
H653 H 0.59217 0.30413 0.45786 0.0
H654 H 0.56368 0.3272 0.45053 0.0
H655 H 0.53966 0.27712 0.45866 0.0
C656 C 0.44757 0.59375 0.82046 0.0
C657 C 0.45011 0.55848 0.81996 0.0
C658 C 0.41145 0.59482 0.82361 0.0
C659 C 0.37418 0.55982 0.82654 0.0
C660 C 0.37655 0.52417 0.82597 0.0
C661 C 0.41306 0.52395 0.82284 0.0
C662 C 0.41362 0.63442 0.82406 0.0
C663 C 0.33981 0.4853 0.82879 0.0
C664 C 0.2864 0.56402 0.85324 0.0
C665 C 0.25747 0.56039 0.83832 0.0
C666 C 0.32289 0.56411 0.84971 0.0
C667 C 0.33386 0.56036 0.8305 0.0
C668 C 0.30512 0.55667 0.81531 0.0
C669 C 0.2687 0.55668 0.81923 0.0
C670 C 0.35025 0.56834 0.86703 0.0
C671 C 0.31295 0.55275 0.79442 0.0
H672 H 0.47438 0.62133 0.81841 0.0
H673 H 0.41237 0.49588 0.82272 0.0
H674 H 0.38906 0.63321 0.81464 0.0
H675 H 0.41033 0.64206 0.83919 0.0
H676 H 0.44209 0.65836 0.81919 0.0
H677 H 0.34492 0.45984 0.82768 0.0
H678 H 0.329 0.48578 0.84335 0.0
H679 H 0.3161 0.48077 0.81768 0.0
H680 H 0.28079 0.56659 0.86825 0.0
H681 H 0.2489 0.55392 0.80692 0.0
H682 H 0.37969 0.59483 0.86563 0.0
H683 H 0.35446 0.54228 0.86737 0.0
H684 H 0.33896 0.57116 0.8811 0.0
H685 H 0.34124 0.57889 0.79089 0.0
H686 H 0.28901 0.55015 0.78397 0.0
H687 H 0.31614 0.52629 0.79238 0.0
C688 C 0.91595 0.44475 0.1509 0.0
C689 C 0.95431 0.44879 0.15291 0.0
C690 C 0.87922 0.40827 0.15404 0.0
C691 C 0.87796 0.37212 0.15953 0.0
C692 C 0.91656 0.37598 0.16155 0.0
C693 C 0.95288 0.41285 0.15833 0.0
C694 C 0.84106 0.40861 0.15113 0.0
C695 C 0.91973 0.3405 0.16728 0.0
C696 C 0.78509 0.28589 0.18591 0.0
C697 C 0.76114 0.25528 0.17137 0.0
C698 C 0.82142 0.32236 0.18235 0.0
C699 C 0.83745 0.33156 0.16351 0.0
C700 C 0.81375 0.30113 0.14871 0.0
C701 C 0.77735 0.26476 0.15265 0.0
C702 C 0.84293 0.35178 0.19918 0.0
C703 C 0.82687 0.30712 0.1282 0.0
H704 H 0.91433 0.47065 0.14678 0.0
H705 H 0.98076 0.41335 0.16022 0.0
H706 H 0.82565 0.39294 0.13704 0.0
H707 H 0.82127 0.39273 0.16286 0.0
H708 H 0.84601 0.43919 0.15085 0.0
H709 H 0.95071 0.34669 0.16808 0.0
H710 H 0.90753 0.33082 0.18172 0.0
H711 H 0.90184 0.31552 0.15657 0.0
H712 H 0.77583 0.28169 0.20065 0.0
H713 H 0.76136 0.24361 0.14063 0.0
H714 H 0.84497 0.38045 0.19577 0.0
H715 H 0.87356 0.35726 0.20139 0.0
H716 H 0.82811 0.34158 0.21302 0.0
H717 H 0.82801 0.33424 0.12263 0.0
H718 H 0.80686 0.28167 0.1181 0.0
H719 H 0.85717 0.31162 0.12815 0.0
C720 C 0.06608 0.5882 0.07194 0.0
C721 C 0.0702 0.56043 0.08331 0.0
C722 C 0.06656 0.58746 0.05129 0.0
C723 C 0.07132 0.55824 0.0413 0.0
C724 C 0.07547 0.53008 0.05267 0.0
C725 C 0.07487 0.53149 0.07334 0.0
C726 C 0.06193 0.61817 0.0401 0.0
C727 C 0.08062 0.49831 0.04296 0.0
C728 C 1.03695 0.53522 0.98642 0.0
C729 C 0.07232 0.5567 0.97697 0.0
C730 C 1.03626 0.53521 0.00708 0.0
C731 C 0.07178 0.55717 0.01907 0.0
C732 C 0.10762 0.57865 0.00969 0.0
C733 C 0.10748 0.57816 -0.01101 0.0
C734 C 0.99723 0.51162 0.01611 0.0
C735 C 0.14634 0.60266 0.02158 0.0
H736 H 0.06245 0.61082 0.0792 0.0
H737 H 0.07816 0.50979 0.08172 0.0
H738 H 0.08803 0.6354 0.03152 0.0
H739 H 1.03568 0.60347 0.02958 0.0
H740 H 0.05857 0.639 0.04985 0.0
H741 H 0.08349 0.47856 0.05367 0.0
H742 H 0.05499 0.48008 0.03248 0.0
H743 H 0.10733 0.51204 0.0345 0.0
H744 H 1.00949 0.51783 0.97765 0.0
H745 H 0.1351 0.59541 0.98222 0.0
H746 H 0.99141 0.53155 0.02519 0.0
H747 H 0.9983 0.48967 0.0259 0.0
H748 H 0.9722 0.49574 0.00495 0.0
H749 H 0.14543 0.62595 0.03052 0.0
H750 H 0.17183 0.617 0.01229 0.0
H751 H 0.15125 0.58345 0.03182 0.0
C752 C 0.60291 0.05458 0.40736 0.0
C753 C 0.57987 0.06718 0.41682 0.0
C754 C 0.6044 0.05467 0.3867 0.0
C755 C 0.58327 0.06874 0.37494 0.0
C756 C 0.56074 0.08235 0.38451 0.0
C757 C 0.5589 0.0809 0.40509 0.0
C758 C 0.62804 0.03887 0.3774 0.0
C759 C 0.53847 0.09862 0.37299 0.0
C760 C 0.61381 0.10093 0.32251 0.0
C761 C 0.58409 0.06932 0.31052 0.0
C762 C 0.61383 0.10123 0.34321 0.0
C763 C 0.58406 0.06868 0.35273 0.0
C764 C 0.5544 0.03642 0.34087 0.0
C765 C 0.55441 0.03738 0.3202 0.0
C766 C 0.64572 0.1368 0.35495 0.0
C767 C 0.52228 1.00063 0.35004 0.0
H768 H 0.61907 0.04363 0.41608 0.0
H769 H 0.54116 0.091 0.41205 0.0
H770 H 0.60844 1.01374 0.36706 0.0
H771 H 0.65107 0.06206 0.36885 0.0
H772 H 0.64255 0.02864 0.38837 0.0
H773 H 0.52401 0.10998 0.38254 0.0
H774 H 0.55888 0.12299 0.36397 0.0
H775 H 0.51546 0.07522 0.36284 0.0
H776 H 0.63761 0.1257 0.3158 0.0
H777 H 0.53045 1.01291 0.31169 0.0
H778 H 0.66313 0.12786 0.36474 0.0
H779 H 0.63216 0.14936 0.36436 0.0
H780 H 0.66618 0.16031 0.34554 0.0
H781 H 0.53552 0.98875 0.36078 0.0
H782 H 0.50294 0.97672 0.33904 0.0
H783 H 0.5037 1.00916 0.3581 0.0
C784 C 0.53922 0.53102 0.73788 0.0
C785 C 0.56693 0.56316 0.7502 0.0
C786 C 0.54014 0.53175 0.71726 0.0
C787 C 0.5695 0.56547 0.70824 0.0
C788 C 0.5975 0.59811 0.72056 0.0
C789 C 0.59592 0.59659 0.7412 0.0
C790 C 0.50955 0.49612 0.70506 0.0
C791 C 0.62939 0.63479 0.71189 0.0
C792 C 0.59277 0.5521 0.65554 0.0
C793 C 0.57148 0.56574 0.64395 0.0
C794 C 0.59271 0.55222 0.67623 0.0
C795 C 0.57084 0.56634 0.68605 0.0
C796 C 0.54947 0.58034 0.6745 0.0
C797 C 0.55002 0.57987 0.65383 0.0
C798 C 0.6161 0.53703 0.68763 0.0
C799 C 0.5255 0.59553 0.684 0.0
H800 H 0.51658 0.50487 0.74437 0.0
H801 H 0.6176 0.6217 0.75032 0.0
H802 H 0.49264 0.50484 0.69478 0.0
H803 H 0.52428 0.48411 0.69615 0.0
H804 H 0.48848 0.47225 0.71412 0.0
H805 H 0.64885 0.65779 0.72324 0.0
H806 H 0.6478 0.62709 0.70316 0.0
H807 H 0.61585 0.64746 0.70182 0.0
H808 H 0.6101 0.54165 0.64846 0.0
H809 H 0.53285 0.59001 0.64538 0.0
H810 H 0.59609 0.51154 0.69619 0.0
H811 H 0.63794 0.56038 0.6982 0.0
H812 H 0.63203 0.52751 0.67803 0.0
H813 H 0.50209 0.57161 0.6921 0.0
H814 H 0.51137 0.60647 0.67321 0.0
H815 H 0.54461 0.61995 0.69478 0.0
C816 C 0.5244 1.02016 0.54592 0.0
C817 C 0.55932 0.05033 0.53883 0.0
C818 C 0.51992 1.01575 0.566 0.0
C819 C 0.55123 0.04195 0.57937 0.0
C820 C 0.58667 0.07239 0.57236 0.0
C821 C 0.59025 0.07635 0.55212 0.0
C822 C 0.4815 0.98314 0.5729 0.0
C823 C 0.62076 0.10067 0.58623 0.0
C824 C 0.52239 0.0506 0.63023 0.0
C825 C 0.53052 1.02414 0.64033 0.0
C826 C 0.52995 0.05746 0.61049 0.0
C827 C 0.5463 0.03757 0.60068 0.0
C828 C 0.55543 1.0115 0.61091 0.0
C829 C 0.54718 1.0049 0.63062 0.0
C830 C 0.51932 0.08505 0.6 0.0
C831 C 0.57321 0.99005 0.60095 0.0
H832 H 0.50027 0.99996 0.53577 0.0
H833 H 0.61736 0.09962 0.54672 0.0
H834 H 0.48714 0.96307 0.58213 0.0
H835 H 0.46783 0.99597 0.58204 0.0
H836 H 0.46001 0.96532 0.56058 0.0
H837 H 0.64655 0.12228 0.57843 0.0
H838 H 0.61132 0.1172 0.59567 0.0
H839 H 0.63018 0.08394 0.59597 0.0
H840 H 0.50915 0.06522 0.63766 0.0
H841 H 0.55391 0.98479 0.63848 0.0
H842 H 0.49581 0.06826 0.58828 0.0
H843 H 0.54527 0.10819 0.59292 0.0
H844 H 0.50868 0.09972 0.60999 0.0
H845 H 0.55198 0.96943 0.58926 0.0
H846 H 0.58097 0.97286 0.61129 0.0
H847 H 0.6002 1.01148 0.59391 0.0
C848 C 0.54232 0.50605 0.87952 0.0
C849 C 0.56352 0.54459 0.87296 0.0
C850 C 0.53885 0.49905 0.89946 0.0
C851 C 0.5581 0.53133 0.91323 0.0
C852 C 0.5795 0.57044 0.9067 0.0
C853 C 0.58143 0.57667 0.88653 0.0
C854 C 0.51479 0.45699 0.90578 0.0
C855 C 0.60131 0.60544 0.92097 0.0
C856 C 0.52126 0.50919 0.96409 0.0
C857 C 0.546 0.49641 0.97289 0.0
C858 C 0.52571 0.52207 0.94489 0.0
C859 C 0.55645 0.52348 0.93441 0.0
C860 C 0.58307 0.51312 0.94357 0.0
C861 C 0.57716 0.49911 0.96254 0.0
C862 C 0.49623 0.53215 0.93549 0.0
C863 C 0.61679 0.51506 0.933 0.0
H864 H 0.52804 0.48125 0.86898 0.0
H865 H 0.59796 0.60645 0.88139 0.0
H866 H 0.53423 0.44835 0.91408 0.0
H867 H 0.49224 0.45459 0.91564 0.0
H868 H 0.4996 0.43557 0.89319 0.0
H869 H 0.61548 0.634 0.91354 0.0
H870 H 0.58085 0.60596 0.93136 0.0
H871 H 0.62449 0.60273 0.9297 0.0
H872 H 0.4978 0.50844 0.97206 0.0
H873 H 0.59628 0.48897 0.96893 0.0
H874 H 0.47836 0.51 0.92353 0.0
H875 H 0.51165 0.56146 0.92887 0.0
H876 H 0.4759 0.53248 0.94606 0.0
H877 H 0.605 0.49124 0.9214 0.0
H878 H 0.63799 0.5115 0.943 0.0
H879 H 0.63297 0.5437 0.92581 0.0
C880 C 0.09568 0.55668 0.21818 0.0
C881 C 0.06998 0.56511 0.20694 0.0
C882 C 0.09373 0.55386 0.23852 0.0
C883 C 0.06571 0.56003 0.24779 0.0
C884 C 0.04009 0.56907 0.23654 0.0
C885 C 0.04242 0.57133 0.21626 0.0
C886 C 0.12128 0.54384 0.25006 0.0
C887 C 1.01009 0.57624 0.24592 0.0
C888 C 1.03186 0.51888 0.29744 0.0
C889 C 0.0541 0.55252 0.30982 0.0
C890 C 1.03615 0.52063 0.27724 0.0
C891 C 0.06295 0.55701 0.26928 0.0
C892 C 0.08574 0.59097 0.28175 0.0
C893 C 0.08116 0.58826 0.3019 0.0
C894 C 1.01165 0.4837 0.26441 0.0
C895 C 0.11423 0.63039 0.27376 0.0
H896 H 0.11688 0.55163 0.21105 0.0
H897 H 1.02255 0.57801 0.20768 0.0
H898 H 0.13941 0.5676 0.26131 0.0
H899 H 0.10392 0.51616 0.25785 0.0
H900 H 0.14138 0.53992 0.24065 0.0
H901 H 0.99285 0.58368 0.23511 0.0
H902 H 0.98923 0.54951 0.25349 0.0
H903 H 1.02514 0.60083 0.2571 0.0
H904 H 1.01124 0.49113 0.30359 0.0
H905 H 0.0981 0.61441 0.31144 0.0
H906 H 1.03107 0.4777 0.25554 0.0
H907 H 0.99145 0.48804 0.25409 0.0
H908 H 0.99371 0.45734 0.273 0.0
H909 H 0.13574 0.62748 0.26505 0.0
H910 H 0.13076 0.65361 0.28549 0.0
H911 H 0.09786 0.64032 0.26382 0.0
loop_
_geom_bond_atom_site_label_1
_geom_bond_atom_site_label_2
_geom_bond_distance
_geom_bond_site_symmetry_2
_ccdc_geom_bond_type
Tb0 C10 2.825 . S
Tb0 O11 2.347 . S
Tb0 O14 2.366 . S
Tb0 O19 2.418 . S
Tb0 O20 2.384 1_455 S
Tb0 O23 2.479 . S
Tb0 O24 2.471 . S
Eu1 O12 2.419 . S
Eu1 O13 2.384 1_655 S
Eu1 O16 2.479 . S
Eu1 O17 2.471 . S
Eu1 O18 2.347 1_655 S
Eu1 O21 2.366 . S
Eu1 C31 2.825 . S
C2 O18 1.259 . S
C2 O19 1.265 . S
C3 O20 1.255 . S
C3 O21 1.265 . S
C4 C6 1.380 . S
C4 C7 1.374 . S
C4 C10 1.507 . S
C5 C6 1.384 . S
C5 C9 1.387 . S
C5 H32 0.930 . S
C6 C4 1.380 . S
C6 C5 1.384 . S
C6 H33 0.931 . S
C7 C4 1.374 . S
C7 C8 1.390 . S
C7 H34 0.930 . S
C8 C7 1.390 . S
C8 C9 1.391 . S
C8 H35 0.930 . S
C9 C5 1.387 . S
C9 C8 1.391 . S
C10 Tb0 2.825 . S
C10 C4 1.507 . S
C10 O23 1.238 . S
C10 O24 1.247 . S
O11 Tb0 2.347 . S
O11 C15 1.259 . S
O12 Eu1 2.419 . S
O12 C15 1.258 1_655 S
O13 Eu1 2.384 1_455 S
O13 C22 1.255 . S
O14 Tb0 2.366 . S
O14 C22 1.265 . S
C15 O11 1.259 . S
C15 O12 1.258 1_455 S
O16 Eu1 2.479 . S
O16 C31 1.238 . S
O17 Eu1 2.471 . S
O17 C31 1.247 . S
O18 Eu1 2.347 1_455 S
O18 C2 1.259 . S
O19 Tb0 2.418 . S
O19 C2 1.265 . S
O20 Tb0 2.384 1_655 S
O20 C3 1.255 . S
O21 Eu1 2.366 . S
O21 C3 1.265 . S
C22 O13 1.255 . S
C22 O14 1.265 . S
O23 Tb0 2.479 . S
O23 C10 1.238 . S
O24 Tb0 2.471 . S
O24 C10 1.247 . S
C25 C28 1.380 . S
C25 C29 1.374 . S
C25 C31 1.507 . S
C26 C27 1.387 . S
C26 C30 1.391 . S
C27 C26 1.387 . S
C27 C28 1.384 . S
C27 H36 0.930 . S
C28 C25 1.380 . S
C28 C27 1.384 . S
C28 H37 0.931 . S
C29 C25 1.374 . S
C29 C30 1.390 . S
C29 H38 0.930 . S
C30 C26 1.391 . S
C30 C29 1.390 . S
C30 H39 0.930 . S
C31 Eu1 2.825 . S
C31 O16 1.238 . S
C31 O17 1.247 . S
C31 C25 1.507 . S
H32 C5 0.930 . S
H33 C6 0.931 . S
H34 C7 0.930 . S
H35 C8 0.930 . S
H36 C27 0.930 . S
H37 C28 0.931 . S
H38 C29 0.930 . S
H39 C30 0.930 . S
Tb40 C50 2.825 . S
Tb40 O51 2.347 . S
Tb40 O54 2.366 . S
Tb40 O59 2.418 . S
Tb40 O60 2.384 1_545 S
Tb40 O63 2.479 . S
Tb40 O64 2.471 . S
Eu41 O52 2.418 . S
Eu41 O53 2.384 . S
Eu41 O56 2.479 1_545 S
Eu41 O57 2.471 1_545 S
Eu41 O58 2.347 . S
Eu41 O61 2.366 1_545 S
Eu41 C71 2.825 1_545 S
C42 O58 1.259 . S
C42 O59 1.265 . S
C43 O60 1.255 . S
C43 O61 1.265 . S
C44 C46 1.380 . S
C44 C47 1.374 . S
C44 C50 1.507 . S
C45 C46 1.384 . S
C45 C49 1.387 . S
C45 H72 0.930 . S
C46 C44 1.380 . S
C46 C45 1.384 . S
C46 H73 0.931 . S
C47 C44 1.374 . S
C47 C48 1.390 . S
C47 H74 0.930 . S
C48 C47 1.390 . S
C48 C49 1.391 . S
C48 H75 0.930 . S
C49 C45 1.387 . S
C49 C48 1.391 . S
C50 Tb40 2.825 . S
C50 C44 1.507 . S
C50 O63 1.238 . S
C50 O64 1.247 . S
O51 Tb40 2.347 . S
O51 C55 1.259 . S
O52 Eu41 2.418 . S
O52 C55 1.265 . S
O53 Eu41 2.384 . S
O53 C62 1.255 . S
O54 Tb40 2.366 . S
O54 C62 1.265 . S
C55 O51 1.259 . S
C55 O52 1.265 . S
O56 Eu41 2.479 1_565 S
O56 C71 1.238 . S
O57 Eu41 2.471 1_565 S
O57 C71 1.247 . S
O58 Eu41 2.347 . S
O58 C42 1.259 . S
O59 Tb40 2.418 . S
O59 C42 1.265 . S
O60 Tb40 2.384 1_565 S
O60 C43 1.255 . S
O61 Eu41 2.366 1_565 S
O61 C43 1.265 . S
C62 O53 1.255 . S
C62 O54 1.265 . S
O63 Tb40 2.479 . S
O63 C50 1.238 . S
O64 Tb40 2.471 . S
O64 C50 1.247 . S
C65 C68 1.380 . S
C65 C69 1.374 . S
C65 C71 1.507 . S
C66 C67 1.387 . S
C66 C70 1.391 . S
C67 C66 1.387 . S
C67 C68 1.384 . S
C67 H76 0.930 . S
C68 C65 1.380 . S
C68 C67 1.384 . S
C68 H77 0.931 . S
C69 C65 1.374 . S
C69 C70 1.390 . S
C69 H78 0.930 . S
C70 C66 1.391 . S
C70 C69 1.390 . S
C70 H79 0.930 . S
C71 Eu41 2.825 1_565 S
C71 O56 1.238 . S
C71 O57 1.247 . S
C71 C65 1.507 . S
H72 C45 0.930 . S
H73 C46 0.931 . S
H74 C47 0.930 . S
H75 C48 0.930 . S
H76 C67 0.930 . S
H77 C68 0.931 . S
H78 C69 0.930 . S
H79 C70 0.930 . S
Tb80 C90 2.825 . S
Tb80 O91 2.347 . S
Tb80 O94 2.366 . S
Tb80 O99 2.418 . S
Tb80 O100 2.384 . S
Tb80 O103 2.479 . S
Tb80 O104 2.471 . S
Eu81 O92 2.418 . S
Eu81 O93 2.384 . S
Eu81 O96 2.479 . S
Eu81 O97 2.471 . S
Eu81 O98 2.347 . S
Eu81 O101 2.366 . S
Eu81 C111 2.825 . S
C82 O98 1.259 . S
C82 O99 1.265 . S
C83 O100 1.255 . S
C83 O101 1.265 . S
C84 C86 1.380 . S
C84 C87 1.374 . S
C84 C90 1.507 . S
C85 C86 1.384 . S
C85 C89 1.387 . S
C85 H112 0.930 . S
C86 C84 1.380 . S
C86 C85 1.384 . S
C86 H113 0.931 . S
C87 C84 1.374 . S
C87 C88 1.390 . S
C87 H114 0.930 . S
C88 C87 1.390 . S
C88 C89 1.391 . S
C88 H115 0.930 . S
C89 C85 1.387 . S
C89 C88 1.391 . S
C90 Tb80 2.825 . S
C90 C84 1.507 . S
C90 O103 1.238 . S
C90 O104 1.247 . S
O91 Tb80 2.347 . S
O91 C95 1.259 . S
O92 Eu81 2.418 . S
O92 C95 1.265 . S
O93 Eu81 2.384 . S
O93 C102 1.255 . S
O94 Tb80 2.366 . S
O94 C102 1.265 . S
C95 O91 1.259 . S
C95 O92 1.265 . S
O96 Eu81 2.479 . S
O96 C111 1.238 . S
O97 Eu81 2.471 . S
O97 C111 1.247 . S
O98 Eu81 2.347 . S
O98 C82 1.259 . S
O99 Tb80 2.418 . S
O99 C82 1.265 . S
O100 Tb80 2.384 . S
O100 C83 1.255 . S
O101 Eu81 2.366 . S
O101 C83 1.265 . S
C102 O93 1.255 . S
C102 O94 1.265 . S
O103 Tb80 2.479 . S
O103 C90 1.238 . S
O104 Tb80 2.471 . S
O104 C90 1.247 . S
C105 C108 1.380 . S
C105 C109 1.374 . S
C105 C111 1.507 . S
C106 C107 1.387 . S
C106 C110 1.391 . S
C107 C106 1.387 . S
C107 C108 1.384 . S
C107 H116 0.930 . S
C108 C105 1.380 . S
C108 C107 1.384 . S
C108 H117 0.931 . S
C109 C105 1.374 . S
C109 C110 1.390 . S
C109 H118 0.930 . S
C110 C106 1.391 . S
C110 C109 1.390 . S
C110 H119 0.930 . S
C111 Eu81 2.825 . S
C111 O96 1.238 . S
C111 O97 1.247 . S
C111 C105 1.507 . S
H112 C85 0.930 . S
H113 C86 0.931 . S
H114 C87 0.930 . S
H115 C88 0.930 . S
H116 C107 0.930 . S
H117 C108 0.931 . S
H118 C109 0.930 . S
H119 C110 0.930 . S
C120 C121 1.384 . S
C120 H133 0.947 . S
C120 C155 1.382 . S
C121 C120 1.384 . S
C121 C122 1.378 . S
C122 C121 1.378 . S
C122 C123 1.378 . S
C122 H134 0.952 . S
C123 C122 1.378 . S
C123 H135 0.950 . S
C123 C154 1.383 . S
H124 C143 0.947 . S
H125 C144 0.946 . S
H126 C146 0.953 . S
H127 C147 0.945 . S
H128 C149 0.952 . S
H129 C150 0.949 . S
H130 C152 0.950 . S
H131 C153 0.948 . S
H132 C155 0.951 . S
H133 C120 0.947 . S
H134 C122 0.952 . S
H135 C123 0.950 . S
N136 C139 1.382 . S
N136 C141 1.363 1_545 S
N137 C139 1.371 . S
N137 C140 1.372 . S
N138 C140 1.361 1_565 S
N138 C141 1.377 . S
C139 N136 1.382 . S
C139 N137 1.371 . S
C139 C142 1.480 . S
C140 N137 1.372 . S
C140 N138 1.361 1_545 S
C140 C148 1.457 . S
C141 N136 1.363 1_565 S
C141 N138 1.377 . S
C141 C154 1.479 . S
C142 C139 1.480 . S
C142 C143 1.383 . S
C142 C147 1.385 . S
C143 H124 0.947 . S
C143 C142 1.383 . S
C143 C144 1.388 . S
C144 H125 0.946 . S
C144 C143 1.388 . S
C144 C145 1.384 . S
C145 C144 1.384 . S
C145 C146 1.377 . S
C146 H126 0.953 . S
C146 C145 1.377 . S
C146 C147 1.369 . S
C147 H127 0.945 . S
C147 C142 1.385 . S
C147 C146 1.369 . S
C148 C140 1.457 . S
C148 C149 1.372 . S
C148 C153 1.364 1_545 S
C149 H128 0.952 . S
C149 C148 1.372 . S
C149 C150 1.389 . S
C150 H129 0.949 . S
C150 C149 1.389 . S
C150 C151 1.387 . S
C151 C150 1.387 . S
C151 C152 1.372 1_545 S
C152 H130 0.950 . S
C152 C151 1.372 1_565 S
C152 C153 1.379 . S
C153 H131 0.948 . S
C153 C148 1.364 1_565 S
C153 C152 1.379 . S
C154 C123 1.383 . S
C154 C141 1.479 . S
C154 C155 1.398 . S
C155 C120 1.382 . S
C155 H132 0.951 . S
C155 C154 1.398 . S
C156 C157 1.384 . S
C156 H169 0.947 . S
C156 C191 1.382 . S
C157 C156 1.384 . S
C157 C158 1.378 . S
C158 C157 1.378 . S
C158 C159 1.378 . S
C158 H170 0.952 . S
C159 C158 1.378 . S
C159 H171 0.950 . S
C159 C190 1.383 . S
H160 C179 0.947 . S
H161 C180 0.946 . S
H162 C182 0.953 . S
H163 C183 0.945 . S
H164 C185 0.952 . S
H165 C186 0.949 . S
H166 C188 0.950 . S
H167 C189 0.948 . S
H168 C191 0.951 . S
H169 C156 0.947 . S
H170 C158 0.952 . S
H171 C159 0.950 . S
N172 C175 1.382 . S
N172 C177 1.363 . S
N173 C175 1.371 . S
N173 C176 1.372 . S
N174 C176 1.361 . S
N174 C177 1.377 . S
C175 N172 1.382 . S
C175 N173 1.371 . S
C175 C178 1.480 . S
C176 N173 1.372 . S
C176 N174 1.361 . S
C176 C184 1.457 . S
C177 N172 1.363 . S
C177 N174 1.377 . S
C177 C190 1.479 . S
C178 C175 1.480 . S
C178 C179 1.383 . S
C178 C183 1.385 . S
C179 H160 0.947 . S
C179 C178 1.383 . S
C179 C180 1.388 . S
C180 H161 0.946 . S
C180 C179 1.388 . S
C180 C181 1.384 . S
C181 C180 1.384 . S
C181 C182 1.377 . S
C182 H162 0.953 . S
C182 C181 1.377 . S
C182 C183 1.369 . S
C183 H163 0.945 . S
C183 C178 1.385 . S
C183 C182 1.369 . S
C184 C176 1.457 . S
C184 C185 1.372 . S
C184 C189 1.364 . S
C185 H164 0.952 . S
C185 C184 1.372 . S
C185 C186 1.389 . S
C186 H165 0.949 . S
C186 C185 1.389 . S
C186 C187 1.387 . S
C187 C186 1.387 . S
C187 C188 1.372 . S
C188 H166 0.950 . S
C188 C187 1.372 . S
C188 C189 1.379 . S
C189 H167 0.948 . S
C189 C184 1.364 . S
C189 C188 1.379 . S
C190 C159 1.383 . S
C190 C177 1.479 . S
C190 C191 1.398 . S
C191 C156 1.382 . S
C191 H168 0.951 . S
C191 C190 1.398 . S
C192 C193 1.384 . S
C192 H205 0.947 . S
C192 C227 1.382 . S
C193 C192 1.384 . S
C193 C194 1.378 . S
C194 C193 1.378 . S
C194 C195 1.378 . S
C194 H206 0.952 . S
C195 C194 1.378 . S
C195 H207 0.950 . S
C195 C226 1.383 . S
H196 C215 0.947 . S
H197 C216 0.946 . S
H198 C218 0.953 . S
H199 C219 0.945 . S
H200 C221 0.952 . S
H201 C222 0.949 . S
H202 C224 0.950 . S
H203 C225 0.948 . S
H204 C227 0.951 . S
H205 C192 0.947 . S
H206 C194 0.952 . S
H207 C195 0.950 . S
N208 C211 1.382 . S
N208 C213 1.363 1_455 S
N209 C211 1.371 . S
N209 C212 1.372 . S
N210 C212 1.361 1_655 S
N210 C213 1.377 . S
C211 N208 1.382 . S
C211 N209 1.371 . S
C211 C214 1.480 . S
C212 N209 1.372 . S
C212 N210 1.361 1_455 S
C212 C220 1.457 . S
C213 N208 1.363 1_655 S
C213 N210 1.377 . S
C213 C226 1.479 . S
C214 C211 1.480 . S
C214 C215 1.383 . S
C214 C219 1.385 . S
C215 H196 0.947 . S
C215 C214 1.383 . S
C215 C216 1.388 . S
C216 H197 0.946 . S
C216 C215 1.388 . S
C216 C217 1.384 . S
C217 C216 1.384 . S
C217 C218 1.377 . S
C218 H198 0.953 . S
C218 C217 1.377 . S
C218 C219 1.369 . S
C219 H199 0.945 . S
C219 C214 1.385 . S
C219 C218 1.369 . S
C220 C212 1.457 . S
C220 C221 1.372 . S
C220 C225 1.364 1_455 S
C221 H200 0.952 . S
C221 C220 1.372 . S
C221 C222 1.389 . S
C222 H201 0.949 . S
C222 C221 1.389 . S
C222 C223 1.387 . S
C223 C222 1.387 . S
C223 C224 1.372 1_455 S
C224 H202 0.950 . S
C224 C223 1.372 1_655 S
C224 C225 1.379 . S
C225 H203 0.948 . S
C225 C220 1.364 1_655 S
C225 C224 1.379 . S
C226 C195 1.383 . S
C226 C213 1.479 . S
C226 C227 1.398 . S
C227 C192 1.382 . S
C227 H204 0.951 . S
C227 C226 1.398 . S
C228 C229 1.384 . S
C228 H241 0.947 . S
C228 C263 1.382 . S
C229 C228 1.384 . S
C229 C230 1.378 . S
C230 C229 1.378 . S
C230 C231 1.378 . S
C230 H242 0.952 . S
C231 C230 1.378 . S
C231 H243 0.950 . S
C231 C262 1.383 . S
H232 C251 0.947 . S
H233 C252 0.946 . S
H234 C254 0.953 . S
H235 C255 0.945 . S
H236 C257 0.952 . S
H237 C258 0.949 . S
H238 C260 0.950 . S
H239 C261 0.948 . S
H240 C263 0.951 . S
H241 C228 0.947 . S
H242 C230 0.952 . S
H243 C231 0.950 . S
N244 C247 1.382 1_455 S
N244 C249 1.363 . S
N245 C247 1.371 . S
N245 C248 1.372 1_655 S
N246 C248 1.361 . S
N246 C249 1.377 . S
C247 N244 1.382 1_655 S
C247 N245 1.371 . S
C247 C250 1.480 . S
C248 N245 1.372 1_455 S
C248 N246 1.361 . S
C248 C256 1.457 . S
C249 N244 1.363 . S
C249 N246 1.377 . S
C249 C262 1.479 . S
C250 C247 1.480 . S
C250 C251 1.383 . S
C250 C255 1.385 . S
C251 H232 0.947 . S
C251 C250 1.383 . S
C251 C252 1.388 . S
C252 H233 0.946 . S
C252 C251 1.388 . S
C252 C253 1.384 . S
C253 C252 1.384 . S
C253 C254 1.377 . S
C254 H234 0.953 . S
C254 C253 1.377 . S
C254 C255 1.369 . S
C255 H235 0.945 . S
C255 C250 1.385 . S
C255 C254 1.369 . S
C256 C248 1.457 . S
C256 C257 1.372 1_455 S
C256 C261 1.364 . S
C257 H236 0.952 . S
C257 C256 1.372 1_655 S
C257 C258 1.389 . S
C258 H237 0.949 . S
C258 C257 1.389 . S
C258 C259 1.387 1_655 S
C259 C258 1.387 1_455 S
C259 C260 1.372 . S
C260 H238 0.950 . S
C260 C259 1.372 . S
C260 C261 1.379 . S
C261 H239 0.948 . S
C261 C256 1.364 . S
C261 C260 1.379 . S
C262 C231 1.383 . S
C262 C249 1.479 . S
C262 C263 1.398 . S
C263 C228 1.382 . S
C263 H240 0.951 . S
C263 C262 1.398 . S
C264 C265 1.384 . S
C264 H277 0.947 . S
C264 C299 1.382 . S
C265 C264 1.384 . S
C265 C266 1.378 . S
C266 C265 1.378 . S
C266 C267 1.378 . S
C266 H278 0.952 . S
C267 C266 1.378 . S
C267 H279 0.950 . S
C267 C298 1.383 . S
H268 C287 0.947 . S
H269 C288 0.946 . S
H270 C290 0.953 . S
H271 C291 0.945 . S
H272 C293 0.952 . S
H273 C294 0.949 . S
H274 C296 0.950 . S
H275 C297 0.948 . S
H276 C299 0.951 . S
H277 C264 0.947 . S
H278 C266 0.952 . S
H279 C267 0.950 . S
N280 C283 1.382 1_545 S
N280 C285 1.363 . S
N281 C283 1.371 . S
N281 C284 1.372 1_565 S
N282 C284 1.361 . S
N282 C285 1.377 . S
C283 N280 1.382 1_565 S
C283 N281 1.371 . S
C283 C286 1.480 . S
C284 N281 1.372 1_545 S
C284 N282 1.361 . S
C284 C292 1.457 . S
C285 N280 1.363 . S
C285 N282 1.377 . S
C285 C298 1.479 . S
C286 C283 1.480 . S
C286 C287 1.383 . S
C286 C291 1.385 . S
C287 H268 0.947 . S
C287 C286 1.383 . S
C287 C288 1.388 . S
C288 H269 0.946 . S
C288 C287 1.388 . S
C288 C289 1.384 . S
C289 C288 1.384 . S
C289 C290 1.377 . S
C290 H270 0.953 . S
C290 C289 1.377 . S
C290 C291 1.369 . S
C291 H271 0.945 . S
C291 C286 1.385 . S
C291 C290 1.369 . S
C292 C284 1.457 . S
C292 C293 1.372 1_545 S
C292 C297 1.364 . S
C293 H272 0.952 . S
C293 C292 1.372 1_565 S
C293 C294 1.389 . S
C294 H273 0.949 . S
C294 C293 1.389 . S
C294 C295 1.387 1_565 S
C295 C294 1.387 1_545 S
C295 C296 1.372 . S
C296 H274 0.950 . S
C296 C295 1.372 . S
C296 C297 1.379 . S
C297 H275 0.948 . S
C297 C292 1.364 . S
C297 C296 1.379 . S
C298 C267 1.383 . S
C298 C285 1.479 . S
C298 C299 1.398 . S
C299 C264 1.382 . S
C299 H276 0.951 . S
C299 C298 1.398 . S
C300 C301 1.384 . S
C300 H313 0.947 . S
C300 C335 1.382 . S
C301 C300 1.384 . S
C301 C302 1.378 . S
C302 C301 1.378 . S
C302 C303 1.378 . S
C302 H314 0.952 . S
C303 C302 1.378 . S
C303 H315 0.950 . S
C303 C334 1.383 . S
H304 C323 0.947 . S
H305 C324 0.946 . S
H306 C326 0.953 . S
H307 C327 0.945 . S
H308 C329 0.952 . S
H309 C330 0.949 . S
H310 C332 0.950 . S
H311 C333 0.948 . S
H312 C335 0.951 . S
H313 C300 0.947 . S
H314 C302 0.952 . S
H315 C303 0.950 . S
N316 C319 1.382 . S
N316 C321 1.363 . S
N317 C319 1.371 . S
N317 C320 1.372 . S
N318 C320 1.361 . S
N318 C321 1.377 . S
C319 N316 1.382 . S
C319 N317 1.371 . S
C319 C322 1.480 . S
C320 N317 1.372 . S
C320 N318 1.361 . S
C320 C328 1.457 . S
C321 N316 1.363 . S
C321 N318 1.377 . S
C321 C334 1.479 . S
C322 C319 1.480 . S
C322 C323 1.383 . S
C322 C327 1.385 . S
C323 H304 0.947 . S
C323 C322 1.383 . S
C323 C324 1.388 . S
C324 H305 0.946 . S
C324 C323 1.388 . S
C324 C325 1.384 . S
C325 C324 1.384 . S
C325 C326 1.377 . S
C326 H306 0.953 . S
C326 C325 1.377 . S
C326 C327 1.369 . S
C327 H307 0.945 . S
C327 C322 1.385 . S
C327 C326 1.369 . S
C328 C320 1.457 . S
C328 C329 1.372 . S
C328 C333 1.364 . S
C329 H308 0.952 . S
C329 C328 1.372 . S
C329 C330 1.389 . S
C330 H309 0.949 . S
C330 C329 1.389 . S
C330 C331 1.387 . S
C331 C330 1.387 . S
C331 C332 1.372 . S
C332 H310 0.950 . S
C332 C331 1.372 . S
C332 C333 1.379 . S
C333 H311 0.948 . S
C333 C328 1.364 . S
C333 C332 1.379 . S
C334 C303 1.383 . S
C334 C321 1.479 . S
C334 C335 1.398 . S
C335 C300 1.382 . S
C335 H312 0.951 . S
C335 C334 1.398 . S
C336 C337 1.391 . S
C336 C338 1.394 . S
C336 H352 0.931 . S
C337 C336 1.391 . S
C337 C341 1.376 . S
C338 C336 1.394 . S
C338 C339 1.369 . S
C338 C342 1.531 . S
C339 C338 1.369 . S
C339 C340 1.410 . S
C339 C347 1.503 . S
C340 C339 1.410 . S
C340 C341 1.392 . S
C340 C343 1.511 . S
C341 C337 1.376 . S
C341 C340 1.392 . S
C341 H353 0.929 . S
C342 C338 1.531 . S
C342 H354 0.960 . S
C342 H355 0.962 . S
C342 H356 0.960 . S
C343 C340 1.511 . S
C343 H357 0.961 . S
C343 H358 0.961 . S
C343 H359 0.961 . S
C344 C345 1.370 . S
C344 C346 1.363 . S
C344 H360 0.931 . S
C345 C344 1.370 . S
C345 C349 1.408 . S
C346 C344 1.363 . S
C346 C347 1.370 . S
C346 C350 1.524 . S
C347 C339 1.503 . S
C347 C346 1.370 . S
C347 C348 1.403 . S
C348 C347 1.403 . S
C348 C349 1.404 . S
C348 C351 1.539 . S
C349 C345 1.408 . S
C349 C348 1.404 . S
C349 H361 0.930 . S
C350 C346 1.524 . S
C350 H362 0.956 . S
C350 H363 0.961 . S
C350 H364 0.961 . S
C351 C348 1.539 . S
C351 H365 0.958 . S
C351 H366 0.961 . S
C351 H367 0.960 . S
H352 C336 0.931 . S
H353 C341 0.929 . S
H354 C342 0.960 . S
H355 C342 0.962 . S
H356 C342 0.960 . S
H357 C343 0.961 . S
H358 C343 0.961 . S
H359 C343 0.961 . S
H360 C344 0.931 . S
H361 C349 0.930 . S
H362 C350 0.956 . S
H363 C350 0.961 . S
H364 C350 0.961 . S
H365 C351 0.958 . S
H366 C351 0.961 . S
H367 C351 0.960 . S
C368 C369 1.391 . S
C368 C370 1.394 . S
C368 H384 0.931 . S
C369 C368 1.391 . S
C369 C373 1.376 . S
C370 C368 1.394 . S
C370 C371 1.369 . S
C370 C374 1.531 . S
C371 C370 1.369 . S
C371 C372 1.410 . S
C371 C379 1.503 . S
C372 C371 1.410 . S
C372 C373 1.392 . S
C372 C375 1.511 . S
C373 C369 1.376 . S
C373 C372 1.392 . S
C373 H385 0.929 . S
C374 C370 1.531 . S
C374 H386 0.960 . S
C374 H387 0.962 . S
C374 H388 0.960 . S
C375 C372 1.511 . S
C375 H389 0.961 . S
C375 H390 0.961 . S
C375 H391 0.961 . S
C376 C377 1.370 . S
C376 C378 1.363 . S
C376 H392 0.931 . S
C377 C376 1.370 . S
C377 C381 1.408 . S
C378 C376 1.363 . S
C378 C379 1.370 . S
C378 C382 1.524 . S
C379 C371 1.503 . S
C379 C378 1.370 . S
C379 C380 1.403 . S
C380 C379 1.403 . S
C380 C381 1.404 . S
C380 C383 1.539 . S
C381 C377 1.408 . S
C381 C380 1.404 . S
C381 H393 0.930 . S
C382 C378 1.524 . S
C382 H394 0.956 . S
C382 H395 0.961 . S
C382 H396 0.961 . S
C383 C380 1.539 . S
C383 H397 0.958 . S
C383 H398 0.961 . S
C383 H399 0.960 . S
H384 C368 0.931 . S
H385 C373 0.929 . S
H386 C374 0.960 . S
H387 C374 0.962 . S
H388 C374 0.960 . S
H389 C375 0.961 . S
H390 C375 0.961 . S
H391 C375 0.961 . S
H392 C376 0.931 . S
H393 C381 0.930 . S
H394 C382 0.956 . S
H395 C382 0.961 . S
H396 C382 0.961 . S
H397 C383 0.958 . S
H398 C383 0.961 . S
H399 C383 0.960 . S
C400 C401 1.391 . S
C400 C402 1.394 . S
C400 H416 0.931 . S
C401 C400 1.391 . S
C401 C405 1.376 . S
C402 C400 1.394 . S
C402 C403 1.369 . S
C402 C406 1.531 . S
C403 C402 1.369 . S
C403 C404 1.410 . S
C403 C411 1.503 . S
C404 C403 1.410 . S
C404 C405 1.392 . S
C404 C407 1.511 . S
C405 C401 1.376 . S
C405 C404 1.392 . S
C405 H417 0.929 . S
C406 C402 1.531 . S
C406 H418 0.960 . S
C406 H419 0.962 . S
C406 H420 0.960 . S
C407 C404 1.511 . S
C407 H421 0.961 . S
C407 H422 0.961 . S
C407 H423 0.961 . S
C408 C409 1.370 . S
C408 C410 1.363 . S
C408 H424 0.931 . S
C409 C408 1.370 . S
C409 C413 1.408 . S
C410 C408 1.363 . S
C410 C411 1.370 . S
C410 C414 1.524 . S
C411 C403 1.503 . S
C411 C410 1.370 . S
C411 C412 1.403 . S
C412 C411 1.403 . S
C412 C413 1.404 . S
C412 C415 1.539 . S
C413 C409 1.408 . S
C413 C412 1.404 . S
C413 H425 0.930 . S
C414 C410 1.524 . S
C414 H426 0.956 . S
C414 H427 0.961 . S
C414 H428 0.961 . S
C415 C412 1.539 . S
C415 H429 0.958 . S
C415 H430 0.961 . S
C415 H431 0.960 . S
H416 C400 0.931 . S
H417 C405 0.929 . S
H418 C406 0.960 . S
H419 C406 0.962 . S
H420 C406 0.960 . S
H421 C407 0.961 . S
H422 C407 0.961 . S
H423 C407 0.961 . S
H424 C408 0.931 . S
H425 C413 0.930 . S
H426 C414 0.956 . S
H427 C414 0.961 . S
H428 C414 0.961 . S
H429 C415 0.958 . S
H430 C415 0.961 . S
H431 C415 0.960 . S
C432 C433 1.391 . S
C432 C434 1.394 . S
C432 H448 0.931 . S
C433 C432 1.391 . S
C433 C437 1.376 . S
C434 C432 1.394 . S
C434 C435 1.369 . S
C434 C438 1.531 . S
C435 C434 1.369 . S
C435 C436 1.410 . S
C435 C443 1.503 . S
C436 C435 1.410 . S
C436 C437 1.392 . S
C436 C439 1.511 . S
C437 C433 1.376 . S
C437 C436 1.392 . S
C437 H449 0.929 . S
C438 C434 1.531 . S
C438 H450 0.960 . S
C438 H451 0.962 . S
C438 H452 0.960 . S
C439 C436 1.511 . S
C439 H453 0.961 . S
C439 H454 0.961 . S
C439 H455 0.961 . S
C440 C441 1.370 . S
C440 C442 1.363 . S
C440 H456 0.931 . S
C441 C440 1.370 . S
C441 C445 1.408 . S
C442 C440 1.363 . S
C442 C443 1.370 . S
C442 C446 1.524 . S
C443 C435 1.503 . S
C443 C442 1.370 . S
C443 C444 1.403 . S
C444 C443 1.403 . S
C444 C445 1.404 . S
C444 C447 1.539 . S
C445 C441 1.408 . S
C445 C444 1.404 . S
C445 H457 0.930 . S
C446 C442 1.524 . S
C446 H458 0.956 . S
C446 H459 0.961 . S
C446 H460 0.961 . S
C447 C444 1.539 . S
C447 H461 0.958 . S
C447 H462 0.961 . S
C447 H463 0.960 . S
H448 C432 0.931 . S
H449 C437 0.929 . S
H450 C438 0.960 . S
H451 C438 0.962 . S
H452 C438 0.960 . S
H453 C439 0.961 . S
H454 C439 0.961 . S
H455 C439 0.961 . S
H456 C440 0.931 . S
H457 C445 0.930 . S
H458 C446 0.956 . S
H459 C446 0.961 . S
H460 C446 0.961 . S
H461 C447 0.958 . S
H462 C447 0.961 . S
H463 C447 0.960 . S
C464 C465 1.391 . S
C464 C466 1.394 . S
C464 H480 0.931 . S
C465 C464 1.391 . S
C465 C469 1.376 . S
C466 C464 1.394 . S
C466 C467 1.369 . S
C466 C470 1.531 . S
C467 C466 1.369 . S
C467 C468 1.410 . S
C467 C475 1.503 . S
C468 C467 1.410 . S
C468 C469 1.392 . S
C468 C471 1.511 . S
C469 C465 1.376 . S
C469 C468 1.392 . S
C469 H481 0.929 . S
C470 C466 1.531 . S
C470 H482 0.960 . S
C470 H483 0.962 . S
C470 H484 0.960 . S
C471 C468 1.511 . S
C471 H485 0.961 . S
C471 H486 0.961 . S
C471 H487 0.961 . S
C472 C473 1.370 . S
C472 C474 1.363 . S
C472 H488 0.931 . S
C473 C472 1.370 . S
C473 C477 1.408 . S
C474 C472 1.363 . S
C474 C475 1.370 . S
C474 C478 1.524 . S
C475 C467 1.503 . S
C475 C474 1.370 . S
C475 C476 1.403 . S
C476 C475 1.403 . S
C476 C477 1.404 . S
C476 C479 1.539 . S
C477 C473 1.408 . S
C477 C476 1.404 . S
C477 H489 0.930 . S
C478 C474 1.524 . S
C478 H490 0.956 . S
C478 H491 0.961 . S
C478 H492 0.961 . S
C479 C476 1.539 . S
C479 H493 0.958 . S
C479 H494 0.961 . S
C479 H495 0.960 . S
H480 C464 0.931 . S
H481 C469 0.929 . S
H482 C470 0.960 . S
H483 C470 0.962 . S
H484 C470 0.960 . S
H485 C471 0.961 . S
H486 C471 0.961 . S
H487 C471 0.961 . S
H488 C472 0.931 . S
H489 C477 0.930 . S
H490 C478 0.956 . S
H491 C478 0.961 . S
H492 C478 0.961 . S
H493 C479 0.958 . S
H494 C479 0.961 . S
H495 C479 0.960 . S
C496 C497 1.391 . S
C496 C498 1.394 . S
C496 H512 0.931 . S
C497 C496 1.391 . S
C497 C501 1.376 . S
C498 C496 1.394 . S
C498 C499 1.369 . S
C498 C502 1.531 . S
C499 C498 1.369 . S
C499 C500 1.410 . S
C499 C507 1.503 . S
C500 C499 1.410 . S
C500 C501 1.392 . S
C500 C503 1.511 . S
C501 C497 1.376 . S
C501 C500 1.392 . S
C501 H513 0.929 . S
C502 C498 1.531 . S
C502 H514 0.960 . S
C502 H515 0.962 . S
C502 H516 0.960 . S
C503 C500 1.511 . S
C503 H517 0.961 . S
C503 H518 0.961 . S
C503 H519 0.961 . S
C504 C505 1.370 . S
C504 C506 1.363 . S
C504 H520 0.931 . S
C505 C504 1.370 . S
C505 C509 1.408 . S
C506 C504 1.363 . S
C506 C507 1.370 . S
C506 C510 1.524 . S
C507 C499 1.503 . S
C507 C506 1.370 . S
C507 C508 1.403 . S
C508 C507 1.403 . S
C508 C509 1.404 . S
C508 C511 1.539 . S
C509 C505 1.408 . S
C509 C508 1.404 . S
C509 H521 0.930 . S
C510 C506 1.524 . S
C510 H522 0.956 . S
C510 H523 0.961 . S
C510 H524 0.961 . S
C511 C508 1.539 . S
C511 H525 0.958 . S
C511 H526 0.961 . S
C511 H527 0.960 . S
H512 C496 0.931 . S
H513 C501 0.929 . S
H514 C502 0.960 . S
H515 C502 0.962 . S
H516 C502 0.960 . S
H517 C503 0.961 . S
H518 C503 0.961 . S
H519 C503 0.961 . S
H520 C504 0.931 . S
H521 C509 0.930 . S
H522 C510 0.956 . S
H523 C510 0.961 . S
H524 C510 0.961 . S
H525 C511 0.958 . S
H526 C511 0.961 . S
H527 C511 0.960 . S
C528 C529 1.391 . S
C528 C530 1.394 . S
C528 H544 0.931 . S
C529 C528 1.391 . S
C529 C533 1.376 . S
C530 C528 1.394 . S
C530 C531 1.369 . S
C530 C534 1.531 . S
C531 C530 1.369 . S
C531 C532 1.410 . S
C531 C539 1.503 . S
C532 C531 1.410 . S
C532 C533 1.392 . S
C532 C535 1.511 . S
C533 C529 1.376 . S
C533 C532 1.392 . S
C533 H545 0.929 . S
C534 C530 1.531 . S
C534 H546 0.960 . S
C534 H547 0.962 . S
C534 H548 0.960 . S
C535 C532 1.511 . S
C535 H549 0.961 . S
C535 H550 0.961 . S
C535 H551 0.961 . S
C536 C537 1.370 . S
C536 C538 1.363 . S
C536 H552 0.931 . S
C537 C536 1.370 . S
C537 C541 1.408 . S
C538 C536 1.363 . S
C538 C539 1.370 . S
C538 C542 1.524 . S
C539 C531 1.503 . S
C539 C538 1.370 . S
C539 C540 1.403 . S
C540 C539 1.403 . S
C540 C541 1.404 . S
C540 C543 1.539 . S
C541 C537 1.408 . S
C541 C540 1.404 . S
C541 H553 0.930 . S
C542 C538 1.524 . S
C542 H554 0.956 . S
C542 H555 0.961 . S
C542 H556 0.961 . S
C543 C540 1.539 . S
C543 H557 0.958 . S
C543 H558 0.961 . S
C543 H559 0.960 . S
H544 C528 0.931 . S
H545 C533 0.929 . S
H546 C534 0.960 . S
H547 C534 0.962 . S
H548 C534 0.960 . S
H549 C535 0.961 . S
H550 C535 0.961 . S
H551 C535 0.961 . S
H552 C536 0.931 . S
H553 C541 0.930 . S
H554 C542 0.956 . S
H555 C542 0.961 . S
H556 C542 0.961 . S
H557 C543 0.958 . S
H558 C543 0.961 . S
H559 C543 0.960 . S
C560 C561 1.391 . S
C560 C562 1.394 . S
C560 H576 0.931 . S
C561 C560 1.391 . S
C561 C565 1.376 . S
C562 C560 1.394 . S
C562 C563 1.369 . S
C562 C566 1.531 . S
C563 C562 1.369 . S
C563 C564 1.410 . S
C563 C571 1.503 . S
C564 C563 1.410 . S
C564 C565 1.392 . S
C564 C567 1.511 . S
C565 C561 1.376 . S
C565 C564 1.392 . S
C565 H577 0.929 . S
C566 C562 1.531 . S
C566 H578 0.960 . S
C566 H579 0.962 . S
C566 H580 0.960 . S
C567 C564 1.511 . S
C567 H581 0.961 . S
C567 H582 0.961 . S
C567 H583 0.961 . S
C568 C569 1.370 . S
C568 C570 1.363 . S
C568 H584 0.931 . S
C569 C568 1.370 . S
C569 C573 1.408 . S
C570 C568 1.363 . S
C570 C571 1.370 . S
C570 C574 1.524 . S
C571 C563 1.503 . S
C571 C570 1.370 . S
C571 C572 1.403 . S
C572 C571 1.403 . S
C572 C573 1.404 . S
C572 C575 1.539 . S
C573 C569 1.408 . S
C573 C572 1.404 . S
C573 H585 0.930 . S
C574 C570 1.524 . S
C574 H586 0.956 . S
C574 H587 0.961 . S
C574 H588 0.961 . S
C575 C572 1.539 . S
C575 H589 0.958 . S
C575 H590 0.961 . S
C575 H591 0.960 . S
H576 C560 0.931 . S
H577 C565 0.929 . S
H578 C566 0.960 . S
H579 C566 0.962 . S
H580 C566 0.960 . S
H581 C567 0.961 . S
H582 C567 0.961 . S
H583 C567 0.961 . S
H584 C568 0.931 . S
H585 C573 0.930 . S
H586 C574 0.956 . S
H587 C574 0.961 . S
H588 C574 0.961 . S
H589 C575 0.958 . S
H590 C575 0.961 . S
H591 C575 0.960 . S
C592 C593 1.391 . S
C592 C594 1.394 . S
C592 H608 0.931 . S
C593 C592 1.391 . S
C593 C597 1.376 . S
C594 C592 1.394 . S
C594 C595 1.369 . S
C594 C598 1.531 . S
C595 C594 1.369 . S
C595 C596 1.410 . S
C595 C603 1.503 . S
C596 C595 1.410 . S
C596 C597 1.392 . S
C596 C599 1.511 . S
C597 C593 1.376 . S
C597 C596 1.392 . S
C597 H609 0.929 . S
C598 C594 1.531 . S
C598 H610 0.960 . S
C598 H611 0.962 . S
C598 H612 0.960 . S
C599 C596 1.511 . S
C599 H613 0.961 . S
C599 H614 0.961 . S
C599 H615 0.961 . S
C600 C601 1.370 . S
C600 C602 1.363 . S
C600 H616 0.931 . S
C601 C600 1.370 . S
C601 C605 1.408 . S
C602 C600 1.363 . S
C602 C603 1.370 . S
C602 C606 1.524 . S
C603 C595 1.503 . S
C603 C602 1.370 . S
C603 C604 1.403 . S
C604 C603 1.403 . S
C604 C605 1.404 . S
C604 C607 1.539 . S
C605 C601 1.408 . S
C605 C604 1.404 . S
C605 H617 0.930 . S
C606 C602 1.524 . S
C606 H618 0.956 . S
C606 H619 0.961 . S
C606 H620 0.961 . S
C607 C604 1.539 . S
C607 H621 0.958 . S
C607 H622 0.961 . S
C607 H623 0.960 . S
H608 C592 0.931 . S
H609 C597 0.929 . S
H610 C598 0.960 . S
H611 C598 0.962 . S
H612 C598 0.960 . S
H613 C599 0.961 . S
H614 C599 0.961 . S
H615 C599 0.961 . S
H616 C600 0.931 . S
H617 C605 0.930 . S
H618 C606 0.956 . S
H619 C606 0.961 . S
H620 C606 0.961 . S
H621 C607 0.958 . S
H622 C607 0.961 . S
H623 C607 0.960 . S
C624 C625 1.391 . S
C624 C626 1.394 . S
C624 H640 0.931 . S
C625 C624 1.391 . S
C625 C629 1.376 . S
C626 C624 1.394 . S
C626 C627 1.369 . S
C626 C630 1.531 . S
C627 C626 1.369 . S
C627 C628 1.410 . S
C627 C635 1.503 . S
C628 C627 1.410 . S
C628 C629 1.392 . S
C628 C631 1.511 . S
C629 C625 1.376 . S
C629 C628 1.392 . S
C629 H641 0.929 . S
C630 C626 1.531 . S
C630 H642 0.960 . S
C630 H643 0.962 . S
C630 H644 0.960 . S
C631 C628 1.511 . S
C631 H645 0.961 . S
C631 H646 0.961 . S
C631 H647 0.961 . S
C632 C633 1.370 . S
C632 C634 1.363 . S
C632 H648 0.931 . S
C633 C632 1.370 . S
C633 C637 1.408 . S
C634 C632 1.363 . S
C634 C635 1.370 . S
C634 C638 1.524 . S
C635 C627 1.503 . S
C635 C634 1.370 . S
C635 C636 1.403 . S
C636 C635 1.403 . S
C636 C637 1.404 . S
C636 C639 1.539 . S
C637 C633 1.408 . S
C637 C636 1.404 . S
C637 H649 0.930 . S
C638 C634 1.524 . S
C638 H650 0.956 . S
C638 H651 0.961 . S
C638 H652 0.961 . S
C639 C636 1.539 . S
C639 H653 0.958 . S
C639 H654 0.961 . S
C639 H655 0.960 . S
H640 C624 0.931 . S
H641 C629 0.929 . S
H642 C630 0.960 . S
H643 C630 0.962 . S
H644 C630 0.960 . S
H645 C631 0.961 . S
H646 C631 0.961 . S
H647 C631 0.961 . S
H648 C632 0.931 . S
H649 C637 0.930 . S
H650 C638 0.956 . S
H651 C638 0.961 . S
H652 C638 0.961 . S
H653 C639 0.958 . S
H654 C639 0.961 . S
H655 C639 0.960 . S
C656 C657 1.391 . S
C656 C658 1.394 . S
C656 H672 0.931 . S
C657 C656 1.391 . S
C657 C661 1.376 . S
C658 C656 1.394 . S
C658 C659 1.369 . S
C658 C662 1.531 . S
C659 C658 1.369 . S
C659 C660 1.410 . S
C659 C667 1.503 . S
C660 C659 1.410 . S
C660 C661 1.392 . S
C660 C663 1.511 . S
C661 C657 1.376 . S
C661 C660 1.392 . S
C661 H673 0.929 . S
C662 C658 1.531 . S
C662 H674 0.960 . S
C662 H675 0.962 . S
C662 H676 0.960 . S
C663 C660 1.511 . S
C663 H677 0.961 . S
C663 H678 0.961 . S
C663 H679 0.961 . S
C664 C665 1.370 . S
C664 C666 1.363 . S
C664 H680 0.931 . S
C665 C664 1.370 . S
C665 C669 1.408 . S
C666 C664 1.363 . S
C666 C667 1.370 . S
C666 C670 1.524 . S
C667 C659 1.503 . S
C667 C666 1.370 . S
C667 C668 1.403 . S
C668 C667 1.403 . S
C668 C669 1.404 . S
C668 C671 1.539 . S
C669 C665 1.408 . S
C669 C668 1.404 . S
C669 H681 0.930 . S
C670 C666 1.524 . S
C670 H682 0.956 . S
C670 H683 0.961 . S
C670 H684 0.961 . S
C671 C668 1.539 . S
C671 H685 0.958 . S
C671 H686 0.961 . S
C671 H687 0.960 . S
H672 C656 0.931 . S
H673 C661 0.929 . S
H674 C662 0.960 . S
H675 C662 0.962 . S
H676 C662 0.960 . S
H677 C663 0.961 . S
H678 C663 0.961 . S
H679 C663 0.961 . S
H680 C664 0.931 . S
H681 C669 0.930 . S
H682 C670 0.956 . S
H683 C670 0.961 . S
H684 C670 0.961 . S
H685 C671 0.958 . S
H686 C671 0.961 . S
H687 C671 0.960 . S
C688 C689 1.391 . S
C688 C690 1.394 . S
C688 H704 0.931 . S
C689 C688 1.391 . S
C689 C693 1.376 . S
C690 C688 1.394 . S
C690 C691 1.369 . S
C690 C694 1.531 . S
C691 C690 1.369 . S
C691 C692 1.410 . S
C691 C699 1.503 . S
C692 C691 1.410 . S
C692 C693 1.392 . S
C692 C695 1.511 . S
C693 C689 1.376 . S
C693 C692 1.392 . S
C693 H705 0.929 . S
C694 C690 1.531 . S
C694 H706 0.960 . S
C694 H707 0.962 . S
C694 H708 0.960 . S
C695 C692 1.511 . S
C695 H709 0.961 . S
C695 H710 0.961 . S
C695 H711 0.961 . S
C696 C697 1.370 . S
C696 C698 1.363 . S
C696 H712 0.931 . S
C697 C696 1.370 . S
C697 C701 1.408 . S
C698 C696 1.363 . S
C698 C699 1.370 . S
C698 C702 1.524 . S
C699 C691 1.503 . S
C699 C698 1.370 . S
C699 C700 1.403 . S
C700 C699 1.403 . S
C700 C701 1.404 . S
C700 C703 1.539 . S
C701 C697 1.408 . S
C701 C700 1.404 . S
C701 H713 0.930 . S
C702 C698 1.524 . S
C702 H714 0.956 . S
C702 H715 0.961 . S
C702 H716 0.961 . S
C703 C700 1.539 . S
C703 H717 0.958 . S
C703 H718 0.961 . S
C703 H719 0.960 . S
H704 C688 0.931 . S
H705 C693 0.929 . S
H706 C694 0.960 . S
H707 C694 0.962 . S
H708 C694 0.960 . S
H709 C695 0.961 . S
H710 C695 0.961 . S
H711 C695 0.961 . S
H712 C696 0.931 . S
H713 C701 0.930 . S
H714 C702 0.956 . S
H715 C702 0.961 . S
H716 C702 0.961 . S
H717 C703 0.958 . S
H718 C703 0.961 . S
H719 C703 0.960 . S
C720 C721 1.391 . S
C720 C722 1.394 . S
C720 H736 0.931 . S
C721 C720 1.391 . S
C721 C725 1.376 . S
C722 C720 1.394 . S
C722 C723 1.369 . S
C722 C726 1.548 . S
C723 C722 1.369 . S
C723 C724 1.410 . S
C723 C731 1.503 . S
C724 C723 1.410 . S
C724 C725 1.392 . S
C724 C727 1.511 . S
C725 C721 1.376 . S
C725 C724 1.392 . S
C725 H737 0.929 . S
C726 C722 1.548 . S
C726 H738 0.970 . S
C726 H739 0.944 1_455 S
C726 H740 0.952 . S
C727 C724 1.511 . S
C727 H741 0.961 . S
C727 H742 0.961 . S
C727 H743 0.961 . S
C728 C729 1.383 1_655 S
C728 C730 1.363 . S
C728 H744 0.931 . S
C729 C728 1.383 1_455 S
C729 C733 1.418 . S
C730 C728 1.363 . S
C730 C731 1.370 1_655 S
C730 C734 1.524 . S
C731 C723 1.503 . S
C731 C730 1.370 1_455 S
C731 C732 1.403 . S
C732 C731 1.403 . S
C732 C733 1.404 . S
C732 C735 1.539 . S
C733 C729 1.418 . S
C733 C732 1.404 . S
C733 H745 0.930 . S
C734 C730 1.524 . S
C734 H746 0.956 . S
C734 H747 0.961 . S
C734 H748 0.961 . S
C735 C732 1.539 . S
C735 H749 0.958 . S
C735 H750 0.961 . S
C735 H751 0.960 . S
H736 C720 0.931 . S
H737 C725 0.929 . S
H738 C726 0.970 . S
H739 C726 0.944 1_655 S
H740 C726 0.952 . S
H741 C727 0.961 . S
H742 C727 0.961 . S
H743 C727 0.961 . S
H744 C728 0.931 . S
H745 C733 0.930 . S
H746 C734 0.956 . S
H747 C734 0.961 . S
H748 C734 0.961 . S
H749 C735 0.958 . S
H750 C735 0.961 . S
H751 C735 0.960 . S
C752 C753 1.391 . S
C752 C754 1.394 . S
C752 H768 0.931 1_545 S
C753 C752 1.391 . S
C753 C757 1.376 . S
C754 C752 1.394 . S
C754 C755 1.369 . S
C754 C758 1.531 1_545 S
C755 C754 1.369 . S
C755 C756 1.410 . S
C755 C763 1.503 . S
C756 C755 1.410 . S
C756 C757 1.392 . S
C756 C759 1.511 . S
C757 C753 1.376 . S
C757 C756 1.392 . S
C757 H769 0.929 . S
C758 C754 1.531 1_565 S
C758 H770 0.960 . S
C758 H771 0.964 . S
C758 H772 0.960 . S
C759 C756 1.511 . S
C759 H773 0.961 . S
C759 H774 0.961 . S
C759 H775 0.961 . S
C760 C761 1.370 . S
C760 C762 1.363 . S
C760 H776 0.931 . S
C761 C760 1.370 . S
C761 C765 1.406 1_545 S
C762 C760 1.363 . S
C762 C763 1.370 . S
C762 C766 1.524 . S
C763 C755 1.503 . S
C763 C762 1.370 . S
C763 C764 1.390 1_545 S
C764 C763 1.390 1_565 S
C764 C765 1.404 . S
C764 C767 1.550 . S
C765 C761 1.406 1_565 S
C765 C764 1.404 . S
C765 H777 0.933 . S
C766 C762 1.524 . S
C766 H778 0.956 . S
C766 H779 0.961 . S
C766 H780 0.961 . S
C767 C764 1.550 . S
C767 H781 0.958 . S
C767 H782 0.961 . S
C767 H783 0.960 . S
H768 C752 0.931 1_565 S
H769 C757 0.929 . S
H770 C758 0.960 . S
H771 C758 0.964 . S
H772 C758 0.960 . S
H773 C759 0.961 . S
H774 C759 0.961 . S
H775 C759 0.961 . S
H776 C760 0.931 . S
H777 C765 0.933 . S
H778 C766 0.956 . S
H779 C766 0.961 . S
H780 C766 0.961 . S
H781 C767 0.958 . S
H782 C767 0.961 . S
H783 C767 0.960 . S
C784 C785 1.391 . S
C784 C786 1.394 . S
C784 H800 0.931 . S
C785 C784 1.391 . S
C785 C789 1.376 . S
C786 C784 1.394 . S
C786 C787 1.369 . S
C786 C790 1.531 . S
C787 C786 1.369 . S
C787 C788 1.410 . S
C787 C795 1.503 . S
C788 C787 1.410 . S
C788 C789 1.392 . S
C788 C791 1.511 . S
C789 C785 1.376 . S
C789 C788 1.392 . S
C789 H801 0.929 . S
C790 C786 1.531 . S
C790 H802 0.960 . S
C790 H803 0.962 . S
C790 H804 0.960 . S
C791 C788 1.511 . S
C791 H805 0.961 . S
C791 H806 0.961 . S
C791 H807 0.961 . S
C792 C793 1.370 . S
C792 C794 1.363 . S
C792 H808 0.931 . S
C793 C792 1.370 . S
C793 C797 1.408 . S
C794 C792 1.363 . S
C794 C795 1.370 . S
C794 C798 1.524 . S
C795 C787 1.503 . S
C795 C794 1.370 . S
C795 C796 1.403 . S
C796 C795 1.403 . S
C796 C797 1.404 . S
C796 C799 1.539 . S
C797 C793 1.408 . S
C797 C796 1.404 . S
C797 H809 0.930 . S
C798 C794 1.524 . S
C798 H810 0.956 . S
C798 H811 0.961 . S
C798 H812 0.961 . S
C799 C796 1.539 . S
C799 H813 0.958 . S
C799 H814 0.961 . S
C799 H815 0.960 . S
H800 C784 0.931 . S
H801 C789 0.929 . S
H802 C790 0.960 . S
H803 C790 0.962 . S
H804 C790 0.960 . S
H805 C791 0.961 . S
H806 C791 0.961 . S
H807 C791 0.961 . S
H808 C792 0.931 . S
H809 C797 0.930 . S
H810 C798 0.956 . S
H811 C798 0.961 . S
H812 C798 0.961 . S
H813 C799 0.958 . S
H814 C799 0.961 . S
H815 C799 0.960 . S
C816 C817 1.391 1_565 S
C816 C818 1.394 . S
C816 H832 0.931 . S
C817 C816 1.391 1_545 S
C817 C821 1.376 . S
C818 C816 1.394 . S
C818 C819 1.369 1_565 S
C818 C822 1.531 . S
C819 C818 1.369 1_545 S
C819 C820 1.410 . S
C819 C827 1.503 . S
C820 C819 1.410 . S
C820 C821 1.392 . S
C820 C823 1.511 . S
C821 C817 1.376 . S
C821 C820 1.392 . S
C821 H833 0.929 . S
C822 C818 1.531 . S
C822 H834 0.960 . S
C822 H835 0.962 . S
C822 H836 0.960 . S
C823 C820 1.511 . S
C823 H837 0.961 . S
C823 H838 0.961 . S
C823 H839 0.961 . S
C824 C825 1.370 . S
C824 C826 1.363 . S
C824 H840 0.931 . S
C825 C824 1.370 . S
C825 C829 1.408 1_545 S
C826 C824 1.363 . S
C826 C827 1.370 . S
C826 C830 1.524 . S
C827 C819 1.503 . S
C827 C826 1.370 . S
C827 C828 1.403 1_545 S
C828 C827 1.403 1_565 S
C828 C829 1.404 . S
C828 C831 1.539 . S
C829 C825 1.408 1_565 S
C829 C828 1.404 . S
C829 H841 0.930 . S
C830 C826 1.524 . S
C830 H842 0.956 . S
C830 H843 0.961 . S
C830 H844 0.961 . S
C831 C828 1.539 . S
C831 H845 0.958 . S
C831 H846 0.961 . S
C831 H847 0.960 . S
H832 C816 0.931 . S
H833 C821 0.929 . S
H834 C822 0.960 . S
H835 C822 0.962 . S
H836 C822 0.960 . S
H837 C823 0.961 . S
H838 C823 0.961 . S
H839 C823 0.961 . S
H840 C824 0.931 . S
H841 C829 0.930 . S
H842 C830 0.956 . S
H843 C830 0.961 . S
H844 C830 0.961 . S
H845 C831 0.958 . S
H846 C831 0.961 . S
H847 C831 0.960 . S
C848 C849 1.391 . S
C848 C850 1.394 . S
C848 H864 0.931 . S
C849 C848 1.391 . S
C849 C853 1.376 . S
C850 C848 1.394 . S
C850 C851 1.369 . S
C850 C854 1.531 . S
C851 C850 1.369 . S
C851 C852 1.410 . S
C851 C859 1.503 . S
C852 C851 1.410 . S
C852 C853 1.392 . S
C852 C855 1.511 . S
C853 C849 1.376 . S
C853 C852 1.392 . S
C853 H865 0.929 . S
C854 C850 1.531 . S
C854 H866 0.960 . S
C854 H867 0.962 . S
C854 H868 0.960 . S
C855 C852 1.511 . S
C855 H869 0.961 . S
C855 H870 0.961 . S
C855 H871 0.961 . S
C856 C857 1.370 . S
C856 C858 1.363 . S
C856 H872 0.931 . S
C857 C856 1.370 . S
C857 C861 1.408 . S
C858 C856 1.363 . S
C858 C859 1.370 . S
C858 C862 1.524 . S
C859 C851 1.503 . S
C859 C858 1.370 . S
C859 C860 1.403 . S
C860 C859 1.403 . S
C860 C861 1.404 . S
C860 C863 1.539 . S
C861 C857 1.408 . S
C861 C860 1.404 . S
C861 H873 0.930 . S
C862 C858 1.524 . S
C862 H874 0.956 . S
C862 H875 0.961 . S
C862 H876 0.961 . S
C863 C860 1.539 . S
C863 H877 0.958 . S
C863 H878 0.961 . S
C863 H879 0.960 . S
H864 C848 0.931 . S
H865 C853 0.929 . S
H866 C854 0.960 . S
H867 C854 0.962 . S
H868 C854 0.960 . S
H869 C855 0.961 . S
H870 C855 0.961 . S
H871 C855 0.961 . S
H872 C856 0.931 . S
H873 C861 0.930 . S
H874 C862 0.956 . S
H875 C862 0.961 . S
H876 C862 0.961 . S
H877 C863 0.958 . S
H878 C863 0.961 . S
H879 C863 0.960 . S
C880 C881 1.391 . S
C880 C882 1.394 . S
C880 H896 0.931 . S
C881 C880 1.391 . S
C881 C885 1.376 1_455 S
C882 C880 1.394 . S
C882 C883 1.369 . S
C882 C886 1.531 . S
C883 C882 1.369 . S
C883 C884 1.410 1_455 S
C883 C891 1.503 . S
C884 C883 1.410 1_655 S
C884 C885 1.392 . S
C884 C887 1.511 . S
C885 C881 1.376 1_655 S
C885 C884 1.392 . S
C885 H897 0.929 . S
C886 C882 1.531 . S
C886 H898 0.960 . S
C886 H899 0.962 . S
C886 H900 0.960 . S
C887 C884 1.511 . S
C887 H901 0.961 . S
C887 H902 0.961 . S
C887 H903 0.961 . S
C888 C889 1.370 1_655 S
C888 C890 1.363 . S
C888 H904 0.931 . S
C889 C888 1.370 1_455 S
C889 C893 1.408 . S
C890 C888 1.363 . S
C890 C891 1.370 1_655 S
C890 C894 1.524 . S
C891 C883 1.503 . S
C891 C890 1.370 1_455 S
C891 C892 1.403 . S
C892 C891 1.403 . S
C892 C893 1.404 . S
C892 C895 1.539 . S
C893 C889 1.408 . S
C893 C892 1.404 . S
C893 H905 0.930 . S
C894 C890 1.524 . S
C894 H906 0.931 1_655 S
C894 H907 0.961 . S
C894 H908 0.961 . S
C895 C892 1.539 . S
C895 H909 0.958 . S
C895 H910 0.961 . S
C895 H911 0.960 . S
H896 C880 0.931 . S
H897 C885 0.929 . S
H898 C886 0.960 . S
H899 C886 0.962 . S
H900 C886 0.960 . S
H901 C887 0.961 . S
H902 C887 0.961 . S
H903 C887 0.961 . S
H904 C888 0.931 . S
H905 C893 0.930 . S
H906 C894 0.931 1_455 S
H907 C894 0.961 . S
H908 C894 0.961 . S
H909 C895 0.958 . S
H910 C895 0.961 . S
H911 C895 0.960 . S
C337 C9 0.583 . S
C345 C325 0.474 . S
C369 C49 0.375 . S
C377 C253 0.350 . S
C401 C89 0.266 . S
C409 C289 0.342 . S
C433 C26 0.525 . S
C441 C301 0.325 . S
C473 C229 0.458 . S
C465 C66 0.502 . S
C505 C265 0.473 . S
C497 C106 0.438 . S
C529 C43 2.950 . S
C537 C181 2.887 . S
C561 C83 3.091 . S
C569 C193 3.050 . S
C593 C22 3.151 . S
C601 C121 3.096 . S
C633 C157 3.100 . S
C625 C62 3.146 . S
C665 C217 2.935 . S
C657 C102 3.003 . S
C689 C3 2.945 . S
C697 C145 2.884 . S
C729 C223 1.765 1_554 S
C721 C15 1.727 . S
C753 C55 1.718 . S
C761 C151 1.784 . S
C785 C95 1.730 . S
C793 C187 1.784 . S
C825 C295 1.069 . S
C817 C42 1.048 . S
C857 C331 1.083 1_556 S
C849 C82 1.079 . S
C881 C2 1.078 . S
C889 C259 1.070 . S
