# Generated by pormake.
# Topology tbo, (3,4)-cn, num edge types: 1
# Building blocks:
#     Node 0, Type 0, BuildingBlock: VETTIZ_charged_linker_0, # of connection points: 3
#     Node 1, Type 0, BuildingBlock: VETTIZ_charged_linker_0, # of connection points: 3
#     Node 2, Type 0, BuildingBlock: VETTIZ_charged_linker_0, # of connection points: 3
#     Node 3, Type 0, BuildingBlock: VETTIZ_charged_linker_0, # of connection points: 3
#     Node 4, Type 0, BuildingBlock: VETTIZ_charged_linker_0, # of connection points: 3
#     Node 5, Type 0, BuildingBlock: VETTIZ_charged_linker_0, # of connection points: 3
#     Node 6, Type 0, BuildingBlock: VETTIZ_charged_linker_0, # of connection points: 3
#     Node 7, Type 0, BuildingBlock: VETTIZ_charged_linker_0, # of connection points: 3
#     Node 8, Type 0, BuildingBlock: VETTIZ_charged_linker_0, # of connection points: 3
#     Node 9, Type 0, BuildingBlock: VETTIZ_charged_linker_0, # of connection points: 3
#     Node 10, Type 0, BuildingBlock: VETTIZ_charged_linker_0, # of connection points: 3
#     Node 11, Type 0, BuildingBlock: VETTIZ_charged_linker_0, # of connection points: 3
#     Node 12, Type 0, BuildingBlock: VETTIZ_charged_linker_0, # of connection points: 3
#     Node 13, Type 0, BuildingBlock: VETTIZ_charged_linker_0, # of connection points: 3
#     Node 14, Type 0, BuildingBlock: VETTIZ_charged_linker_0, # of connection points: 3
#     Node 15, Type 0, BuildingBlock: VETTIZ_charged_linker_0, # of connection points: 3
#     Node 16, Type 0, BuildingBlock: VETTIZ_charged_linker_0, # of connection points: 3
#     Node 17, Type 0, BuildingBlock: VETTIZ_charged_linker_0, # of connection points: 3
#     Node 18, Type 0, BuildingBlock: VETTIZ_charged_linker_0, # of connection points: 3
#     Node 19, Type 0, BuildingBlock: VETTIZ_charged_linker_0, # of connection points: 3
#     Node 20, Type 0, BuildingBlock: VETTIZ_charged_linker_0, # of connection points: 3
#     Node 21, Type 0, BuildingBlock: VETTIZ_charged_linker_0, # of connection points: 3
#     Node 22, Type 0, BuildingBlock: VETTIZ_charged_linker_0, # of connection points: 3
#     Node 23, Type 0, BuildingBlock: VETTIZ_charged_linker_0, # of connection points: 3
#     Node 24, Type 0, BuildingBlock: VETTIZ_charged_linker_0, # of connection points: 3
#     Node 25, Type 0, BuildingBlock: VETTIZ_charged_linker_0, # of connection points: 3
#     Node 26, Type 0, BuildingBlock: VETTIZ_charged_linker_0, # of connection points: 3
#     Node 27, Type 0, BuildingBlock: VETTIZ_charged_linker_0, # of connection points: 3
#     Node 28, Type 0, BuildingBlock: VETTIZ_charged_linker_0, # of connection points: 3
#     Node 29, Type 0, BuildingBlock: VETTIZ_charged_linker_0, # of connection points: 3
#     Node 30, Type 0, BuildingBlock: VETTIZ_charged_linker_0, # of connection points: 3
#     Node 31, Type 0, BuildingBlock: VETTIZ_charged_linker_0, # of connection points: 3
#     Node 32, Type 1, BuildingBlock: ESEHIV_clean_sbu_0, # of connection points: 4
#     Node 33, Type 1, BuildingBlock: ESEHIV_clean_sbu_0, # of connection points: 4
#     Node 34, Type 1, BuildingBlock: ESEHIV_clean_sbu_0, # of connection points: 4
#     Node 35, Type 1, BuildingBlock: ESEHIV_clean_sbu_0, # of connection points: 4
#     Node 36, Type 1, BuildingBlock: ESEHIV_clean_sbu_0, # of connection points: 4
#     Node 37, Type 1, BuildingBlock: ESEHIV_clean_sbu_0, # of connection points: 4
#     Node 38, Type 1, BuildingBlock: ESEHIV_clean_sbu_0, # of connection points: 4
#     Node 39, Type 1, BuildingBlock: ESEHIV_clean_sbu_0, # of connection points: 4
#     Node 40, Type 1, BuildingBlock: ESEHIV_clean_sbu_0, # of connection points: 4
#     Node 41, Type 1, BuildingBlock: ESEHIV_clean_sbu_0, # of connection points: 4
#     Node 42, Type 1, BuildingBlock: ESEHIV_clean_sbu_0, # of connection points: 4
#     Node 43, Type 1, BuildingBlock: ESEHIV_clean_sbu_0, # of connection points: 4
#     Node 44, Type 1, BuildingBlock: ESEHIV_clean_sbu_0, # of connection points: 4
#     Node 45, Type 1, BuildingBlock: ESEHIV_clean_sbu_0, # of connection points: 4
#     Node 46, Type 1, BuildingBlock: ESEHIV_clean_sbu_0, # of connection points: 4
#     Node 47, Type 1, BuildingBlock: ESEHIV_clean_sbu_0, # of connection points: 4
#     Node 48, Type 1, BuildingBlock: ESEHIV_clean_sbu_0, # of connection points: 4
#     Node 49, Type 1, BuildingBlock: ESEHIV_clean_sbu_0, # of connection points: 4
#     Node 50, Type 1, BuildingBlock: ESEHIV_clean_sbu_0, # of connection points: 4
#     Node 51, Type 1, BuildingBlock: ESEHIV_clean_sbu_0, # of connection points: 4
#     Node 52, Type 1, BuildingBlock: ESEHIV_clean_sbu_0, # of connection points: 4
#     Node 53, Type 1, BuildingBlock: ESEHIV_clean_sbu_0, # of connection points: 4
#     Node 54, Type 1, BuildingBlock: ESEHIV_clean_sbu_0, # of connection points: 4
#     Node 55, Type 1, BuildingBlock: ESEHIV_clean_sbu_0, # of connection points: 4
#     Edge 56, Type (0, 1), None
#     Edge 57, Type (0, 1), None
#     Edge 58, Type (0, 1), None
#     Edge 59, Type (0, 1), None
#     Edge 60, Type (0, 1), None
#     Edge 61, Type (0, 1), None
#     Edge 62, Type (0, 1), None
#     Edge 63, Type (0, 1), None
#     Edge 64, Type (0, 1), None
#     Edge 65, Type (0, 1), None
#     Edge 66, Type (0, 1), None
#     Edge 67, Type (0, 1), None
#     Edge 68, Type (0, 1), None
#     Edge 69, Type (0, 1), None
#     Edge 70, Type (0, 1), None
#     Edge 71, Type (0, 1), None
#     Edge 72, Type (0, 1), None
#     Edge 73, Type (0, 1), None
#     Edge 74, Type (0, 1), None
#     Edge 75, Type (0, 1), None
#     Edge 76, Type (0, 1), None
#     Edge 77, Type (0, 1), None
#     Edge 78, Type (0, 1), None
#     Edge 79, Type (0, 1), None
#     Edge 80, Type (0, 1), None
#     Edge 81, Type (0, 1), None
#     Edge 82, Type (0, 1), None
#     Edge 83, Type (0, 1), None
#     Edge 84, Type (0, 1), None
#     Edge 85, Type (0, 1), None
#     Edge 86, Type (0, 1), None
#     Edge 87, Type (0, 1), None
#     Edge 88, Type (0, 1), None
#     Edge 89, Type (0, 1), None
#     Edge 90, Type (0, 1), None
#     Edge 91, Type (0, 1), None
#     Edge 92, Type (0, 1), None
#     Edge 93, Type (0, 1), None
#     Edge 94, Type (0, 1), None
#     Edge 95, Type (0, 1), None
#     Edge 96, Type (0, 1), None
#     Edge 97, Type (0, 1), None
#     Edge 98, Type (0, 1), None
#     Edge 99, Type (0, 1), None
#     Edge 100, Type (0, 1), None
#     Edge 101, Type (0, 1), None
#     Edge 102, Type (0, 1), None
#     Edge 103, Type (0, 1), None
#     Edge 104, Type (0, 1), None
#     Edge 105, Type (0, 1), None
#     Edge 106, Type (0, 1), None
#     Edge 107, Type (0, 1), None
#     Edge 108, Type (0, 1), None
#     Edge 109, Type (0, 1), None
#     Edge 110, Type (0, 1), None
#     Edge 111, Type (0, 1), None
#     Edge 112, Type (0, 1), None
#     Edge 113, Type (0, 1), None
#     Edge 114, Type (0, 1), None
#     Edge 115, Type (0, 1), None
#     Edge 116, Type (0, 1), None
#     Edge 117, Type (0, 1), None
#     Edge 118, Type (0, 1), None
#     Edge 119, Type (0, 1), None
#     Edge 120, Type (0, 1), None
#     Edge 121, Type (0, 1), None
#     Edge 122, Type (0, 1), None
#     Edge 123, Type (0, 1), None
#     Edge 124, Type (0, 1), None
#     Edge 125, Type (0, 1), None
#     Edge 126, Type (0, 1), None
#     Edge 127, Type (0, 1), None
#     Edge 128, Type (0, 1), None
#     Edge 129, Type (0, 1), None
#     Edge 130, Type (0, 1), None
#     Edge 131, Type (0, 1), None
#     Edge 132, Type (0, 1), None
#     Edge 133, Type (0, 1), None
#     Edge 134, Type (0, 1), None
#     Edge 135, Type (0, 1), None
#     Edge 136, Type (0, 1), None
#     Edge 137, Type (0, 1), None
#     Edge 138, Type (0, 1), None
#     Edge 139, Type (0, 1), None
#     Edge 140, Type (0, 1), None
#     Edge 141, Type (0, 1), None
#     Edge 142, Type (0, 1), None
#     Edge 143, Type (0, 1), None
#     Edge 144, Type (0, 1), None
#     Edge 145, Type (0, 1), None
#     Edge 146, Type (0, 1), None
#     Edge 147, Type (0, 1), None
#     Edge 148, Type (0, 1), None
#     Edge 149, Type (0, 1), None
#     Edge 150, Type (0, 1), None
#     Edge 151, Type (0, 1), None
# Relax obj value: 0.005
# Max RMSD: 0.133
# Mean RMSD: 0.053
data_MOF--net-tbo--node1-ESEHIV_clean_sbu_0--node2-VETTIZ_charged_linker_0--edge1-none
_symmetry_space_group_name_H-M    P1
_symmetry_Int_Tables_number       1
_symmetry_cell_setting            triclinic
loop_
_symmetry_equiv_pos_as_xyz
'x, y, z'
_cell_length_a     49.315998
_cell_length_b     49.492516
_cell_length_c     49.543634
_cell_angle_alpha  90.034361
_cell_angle_beta   93.030321
_cell_angle_gamma 90.864465
loop_
_atom_site_label
_atom_site_type_symbol
_atom_site_fract_x
_atom_site_fract_y
_atom_site_fract_z
_atom_type_partial_charge
C0 C 0.20041 0.23567 0.12069 0.0
C1 C 0.22228 0.22912 0.10478 0.0
C2 C 0.23761 0.20601 0.11159 0.0
C3 C 0.20855 0.19565 0.14831 0.0
C4 C 0.19404 0.21882 0.14242 0.0
C5 C 0.17191 0.22294 0.16192 0.0
H6 H 0.10136 0.17294 0.26583 0.0
C7 C 0.19548 0.18123 0.17043 0.0
C8 C 0.17365 0.19696 0.1783 0.0
H9 H 0.09792 0.25368 0.23264 0.0
H10 H 0.12951 0.24126 0.19924 0.0
H11 H 0.09929 0.14138 0.2162 0.0
H12 H 0.16953 0.16742 0.26441 0.0
H13 H 0.16866 0.13191 0.25902 0.0
H14 H 0.14139 0.14718 0.27493 0.0
H15 H 0.1156 0.11898 0.23999 0.0
H16 H 0.12547 0.12075 0.2054 0.0
C17 C 0.14436 0.22514 0.14579 0.0
C18 C 0.17955 0.24814 0.17947 0.0
C19 C 0.23369 0.09393 0.21215 0.0
C20 C 0.22187 0.0753 0.22986 0.0
C21 C 0.19375 0.07645 0.23344 0.0
C22 C 0.17843 0.09784 0.22316 0.0
C23 C 0.19128 0.11846 0.20926 0.0
C24 C 0.21751 0.11519 0.20143 0.0
C25 C 0.22494 0.1371 0.18164 0.0
C26 C 0.2002 0.15544 0.18235 0.0
C27 C 0.18132 0.14474 0.19972 0.0
C28 C 0.22752 0.12396 0.15345 0.0
C29 C 0.25109 0.15187 0.19248 0.0
C30 C 0.10758 0.18823 0.25177 0.0
C31 C 0.09717 0.2145 0.25255 0.0
C32 C 0.1054 0.23326 0.23289 0.0
C33 C 0.12407 0.22613 0.21359 0.0
C34 C 0.13502 0.20005 0.21396 0.0
C35 C 0.12657 0.18162 0.23283 0.0
C36 C 0.1407 0.15506 0.2311 0.0
C37 C 0.16006 0.16094 0.20879 0.0
C38 C 0.1565 0.18719 0.19856 0.0
C39 C 0.11927 0.13282 0.22287 0.0
C40 C 0.15593 0.14996 0.25875 0.0
H41 H 0.24315 0.17192 0.1373 0.0
H42 H 0.18868 0.25362 0.11639 0.0
H43 H 0.20195 0.25131 0.1816 0.0
H44 H 0.17319 0.24608 0.20043 0.0
H45 H 0.17068 0.26674 0.17038 0.0
H46 H 0.14188 0.20852 0.1307 0.0
H47 H 0.14298 0.24464 0.13475 0.0
H48 H 0.12691 0.22346 0.15878 0.0
H49 H 0.25504 0.09298 0.20821 0.0
H50 H 0.18392 0.06176 0.24605 0.0
H51 H 0.15745 0.09829 0.22761 0.0
H52 H 0.21845 0.10324 0.15234 0.0
H53 H 0.2491 0.12226 0.14838 0.0
H54 H 0.21645 0.13539 0.13721 0.0
H55 H 0.24916 0.1582 0.21382 0.0
H56 H 0.25539 0.17035 0.18085 0.0
H57 H 0.2689 0.13846 0.19175 0.0
H58 H 0.25452 0.2005 0.09975 0.0
C59 C 0.23083 0.18925 0.13315 0.0
C60 C 0.84118 0.13175 0.2466 0.0
C61 C 0.82341 0.11335 0.23296 0.0
C62 C 0.81331 0.1199 0.20656 0.0
C63 C 0.8405 0.16147 0.20748 0.0
C64 C 0.84956 0.15525 0.23359 0.0
C65 C 0.86971 0.17556 0.24535 0.0
H66 H 0.96557 0.26939 0.22544 0.0
C67 C 0.85495 0.18661 0.19946 0.0
C68 C 0.8722 0.1947 0.22168 0.0
H69 H 0.94493 0.23015 0.29978 0.0
H70 H 0.90423 0.21183 0.27821 0.0
H71 H 0.90504 0.28991 0.21355 0.0
H72 H 0.94725 0.22275 0.18252 0.0
H73 H 0.92973 0.23947 0.15546 0.0
H74 H 0.95464 0.25781 0.1763 0.0
H75 H 0.92206 0.29268 0.18264 0.0
H76 H 0.88689 0.282 0.183 0.0
C77 C 0.85717 0.18943 0.26981 0.0
C78 C 0.89652 0.1605 0.25243 0.0
C79 C 0.83839 0.22965 0.10567 0.0
C80 C 0.85101 0.25198 0.0934 0.0
C81 C 0.87295 0.26521 0.10777 0.0
C82 C 0.88193 0.25706 0.13354 0.0
C83 C 0.86919 0.23522 0.14565 0.0
C84 C 0.84795 0.22158 0.1319 0.0
C85 C 0.83789 0.19816 0.14851 0.0
C86 C 0.8553 0.20152 0.17481 0.0
C87 C 0.87384 0.22322 0.17265 0.0
C88 C 0.80743 0.20198 0.15293 0.0
C89 C 0.84415 0.17167 0.13363 0.0
C90 C 0.95199 0.25715 0.23701 0.0
C91 C 0.95903 0.25031 0.26408 0.0
C92 C 0.94045 0.23499 0.27869 0.0
C93 C 0.91681 0.22416 0.26612 0.0
C94 C 0.9115 0.2284 0.23846 0.0
C95 C 0.92774 0.2461 0.22469 0.0
C96 C 0.91628 0.25041 0.19614 0.0
C97 C 0.89212 0.23052 0.19479 0.0
C98 C 0.8902 0.21717 0.21947 0.0
C99 C 0.90719 0.28025 0.1935 0.0
C100 C 0.93807 0.24235 0.1764 0.0
H101 H 0.8135 0.14771 0.17368 0.0
H102 H 0.84871 0.12791 0.26712 0.0
H103 H 0.90169 0.14714 0.23544 0.0
H104 H 0.91426 0.17397 0.25615 0.0
H105 H 0.89459 0.14767 0.27064 0.0
H106 H 0.83469 0.18683 0.26936 0.0
H107 H 0.86539 0.18098 0.28928 0.0
H108 H 0.86061 0.21163 0.26986 0.0
H109 H 0.82171 0.21883 0.09524 0.0
H110 H 0.88338 0.28234 0.09924 0.0
H111 H 0.89864 0.26814 0.14302 0.0
H112 H 0.80363 0.22312 0.15921 0.0
H113 H 0.79494 0.19781 0.13403 0.0
H114 H 0.80002 0.18892 0.16909 0.0
H115 H 0.864 0.17328 0.12404 0.0
H116 H 0.84612 0.15419 0.14735 0.0
H117 H 0.82829 0.16707 0.11745 0.0
H118 H 0.79945 0.1062 0.19555 0.0
C119 C 0.82171 0.14388 0.19379 0.0
C120 C 0.91466 0.83824 0.23156 0.0
C121 C 0.93027 0.81735 0.22121 0.0
C122 C 0.92286 0.80739 0.19501 0.0
C123 C 0.88532 0.83857 0.19042 0.0
C124 C 0.89258 0.84854 0.21588 0.0
C125 C 0.87449 0.87114 0.22377 0.0
H126 H 0.7761 0.96144 0.19053 0.0
C127 C 0.86164 0.85399 0.17934 0.0
C128 C 0.85534 0.87326 0.19876 0.0
H129 H 0.8236 0.95164 0.2659 0.0
H130 H 0.84434 0.91265 0.24886 0.0
H131 H 0.7622 0.89639 0.1855 0.0
H132 H 0.82318 0.94601 0.14981 0.0
H133 H 0.80837 0.92438 0.1247 0.0
H134 H 0.78754 0.94853 0.14084 0.0
H135 H 0.7542 0.918 0.15723 0.0
H136 H 0.76594 0.88398 0.15277 0.0
C137 C 0.85936 0.86208 0.24901 0.0
C138 C 0.8925 0.89689 0.22805 0.0
C139 C 0.8162 0.82911 0.08758 0.0
C140 C 0.79381 0.83975 0.07253 0.0
C141 C 0.78138 0.8631 0.08225 0.0
C142 C 0.79038 0.87514 0.10676 0.0
C143 C 0.81211 0.86381 0.12201 0.0
C144 C 0.82494 0.84143 0.11221 0.0
C145 C 0.84796 0.83248 0.13119 0.0
C146 C 0.84602 0.85245 0.15436 0.0
C147 C 0.82494 0.87084 0.14882 0.0
C148 C 0.84191 0.80314 0.14014 0.0
C149 C 0.87483 0.83607 0.11664 0.0
C150 C 0.79084 0.95073 0.20328 0.0
C151 C 0.79865 0.9604 0.22939 0.0
C152 C 0.8176 0.94541 0.24545 0.0
C153 C 0.82982 0.92253 0.23555 0.0
C154 C 0.82322 0.91397 0.20913 0.0
C155 C 0.80343 0.9273 0.19364 0.0
C156 C 0.7982 0.91354 0.16657 0.0
C157 C 0.81893 0.89082 0.16827 0.0
C158 C 0.83371 0.89154 0.19323 0.0
C159 C 0.76859 0.90249 0.16515 0.0
C160 C 0.80442 0.9341 0.14413 0.0
H161 H 0.89612 0.80919 0.16006 0.0
H162 H 0.91929 0.84649 0.25151 0.0
H163 H 0.90762 0.89845 0.2122 0.0
H164 H 0.881 0.9158 0.22645 0.0
H165 H 0.90388 0.89646 0.248 0.0
H166 H 0.85734 0.83968 0.25007 0.0
H167 H 0.87032 0.869 0.26798 0.0
H168 H 0.83821 0.8693 0.24862 0.0
H169 H 0.82629 0.81128 0.08071 0.0
H170 H 0.76425 0.87195 0.07109 0.0
H171 H 0.77985 0.89267 0.11303 0.0
H172 H 0.82018 0.80066 0.14476 0.0
H173 H 0.84613 0.78852 0.12392 0.0
H174 H 0.85359 0.79731 0.15877 0.0
H175 H 0.87364 0.85319 0.10209 0.0
H176 H 0.89229 0.84128 0.13068 0.0
H177 H 0.87953 0.81761 0.10511 0.0
H178 H 0.93435 0.79168 0.18596 0.0
C179 C 0.90058 0.81776 0.17972 0.0
C180 C 0.20687 0.93081 0.23234 0.0
C181 C 0.19464 0.94146 0.25507 0.0
C182 C 0.17113 0.92827 0.26396 0.0
C183 C 0.17295 0.89481 0.22805 0.0
C184 C 0.1959 0.90767 0.21946 0.0
C185 C 0.20719 0.89386 0.19559 0.0
H186 H 0.20043 0.79705 0.09939 0.0
C187 C 0.16709 0.8712 0.20996 0.0
C188 C 0.18709 0.87052 0.19104 0.0
H189 H 0.26043 0.86075 0.11509 0.0
H190 H 0.23716 0.87539 0.1528 0.0
H191 H 0.19572 0.78154 0.16755 0.0
H192 H 0.14452 0.83277 0.11575 0.0
H193 H 0.12611 0.80781 0.13328 0.0
H194 H 0.1487 0.79759 0.10803 0.0
H195 H 0.17727 0.76809 0.13812 0.0
H196 H 0.16062 0.77383 0.16899 0.0
C197 C 0.2361 0.88389 0.20427 0.0
C198 C 0.20601 0.91409 0.17163 0.0
C199 C 0.08562 0.81252 0.22714 0.0
C200 C 0.07407 0.7885 0.2163 0.0
C201 C 0.08591 0.77707 0.19362 0.0
C202 C 0.10917 0.78934 0.1826 0.0
C203 C 0.12072 0.81316 0.19447 0.0
C204 C 0.10854 0.82415 0.21637 0.0
C205 C 0.12298 0.84879 0.22761 0.0
C206 C 0.14613 0.85125 0.20908 0.0
C207 C 0.14509 0.83055 0.18931 0.0
C208 C 0.13311 0.84276 0.25719 0.0
C209 C 0.10339 0.87295 0.22445 0.0
C210 C 0.20845 0.81411 0.11109 0.0
C211 C 0.23217 0.82819 0.10338 0.0
C212 C 0.24194 0.85002 0.11953 0.0
C213 C 0.22841 0.85846 0.1419 0.0
C214 C 0.20464 0.84498 0.14895 0.0
C215 C 0.195 0.8229 0.13409 0.0
C216 C 0.16967 0.81092 0.14605 0.0
C217 C 0.16566 0.83 0.16986 0.0
C218 C 0.18644 0.84988 0.17106 0.0
C219 C 0.17596 0.78195 0.15564 0.0
C220 C 0.14587 0.81218 0.12466 0.0
H221 H 0.14233 0.89618 0.25843 0.0
H222 H 0.22466 0.94015 0.22434 0.0
H223 H 0.18769 0.92691 0.1721 0.0
H224 H 0.20419 0.90412 0.15166 0.0
H225 H 0.22408 0.9278 0.17245 0.0
H226 H 0.23835 0.88031 0.22645 0.0
H227 H 0.25195 0.89892 0.19913 0.0
H228 H 0.24072 0.86414 0.19521 0.0
H229 H 0.07732 0.82225 0.24441 0.0
H230 H 0.07754 0.75855 0.18474 0.0
H231 H 0.11747 0.77977 0.16549 0.0
H232 H 0.13795 0.821 0.2599 0.0
H233 H 0.11748 0.8478 0.27164 0.0
H234 H 0.15225 0.85355 0.26325 0.0
H235 H 0.09071 0.87136 0.20524 0.0
H236 H 0.11407 0.89265 0.22323 0.0
H237 H 0.08944 0.87359 0.24131 0.0
H238 H 0.16118 0.93559 0.2814 0.0
C239 C 0.16022 0.90516 0.25059 0.0
C240 C 0.24622 0.81601 0.94044 0.0
C241 C 0.2346 0.795 0.95535 0.0
C242 C 0.20977 0.7834 0.94541 0.0
C243 C 0.20797 0.81571 0.90781 0.0
C244 C 0.23258 0.82628 0.9175 0.0
C245 C 0.24145 0.85078 0.90227 0.0
H246 H 0.21547 0.94897 0.81071 0.0
C247 C 0.19877 0.83279 0.88432 0.0
C248 C 0.21814 0.85349 0.88142 0.0
H249 H 0.28507 0.93931 0.86673 0.0
H250 H 0.26732 0.89726 0.88138 0.0
H251 H 0.16752 0.92437 0.84933 0.0
H252 H 0.2155 0.88234 0.79217 0.0
H253 H 0.1811 0.87225 0.78834 0.0
H254 H 0.19063 0.90673 0.78125 0.0
H255 H 0.1659 0.93248 0.8139 0.0
H256 H 0.14691 0.90435 0.8265 0.0
C257 C 0.24343 0.87506 0.92227 0.0
C258 C 0.26832 0.84401 0.88897 0.0
C259 C 0.1128 0.80682 0.82986 0.0
C260 C 0.09905 0.817 0.80652 0.0
C261 C 0.10898 0.84107 0.79504 0.0
C262 C 0.13247 0.85434 0.80649 0.0
C263 C 0.14626 0.84336 0.82955 0.0
C264 C 0.1361 0.81997 0.84079 0.0
C265 C 0.15295 0.81058 0.865 0.0
C266 C 0.17557 0.83153 0.86613 0.0
C267 C 0.17165 0.85111 0.84555 0.0
C268 C 0.13553 0.81208 0.89007 0.0
C269 C 0.1635 0.78199 0.85904 0.0
C270 C 0.2268 0.93774 0.82613 0.0
C271 C 0.25146 0.94837 0.83818 0.0
C272 C 0.26568 0.93258 0.85776 0.0
C273 C 0.25536 0.90778 0.8662 0.0
C274 C 0.23036 0.89803 0.8551 0.0
C275 C 0.21668 0.91243 0.8349 0.0
C276 C 0.19106 0.89739 0.82471 0.0
C277 C 0.19105 0.87272 0.84338 0.0
C278 C 0.21425 0.87351 0.86107 0.0
C279 C 0.16641 0.91556 0.82864 0.0
C280 C 0.19448 0.8893 0.79498 0.0
H281 H 0.17731 0.78436 0.91513 0.0
H282 H 0.2654 0.82544 0.94709 0.0
H283 H 0.26847 0.82244 0.88259 0.0
H284 H 0.27122 0.85556 0.87022 0.0
H285 H 0.28616 0.84749 0.90325 0.0
H286 H 0.22945 0.87231 0.93901 0.0
H287 H 0.26431 0.87754 0.93157 0.0
H288 H 0.23711 0.89434 0.91282 0.0
H289 H 0.10584 0.78852 0.83947 0.0
H290 H 0.09878 0.84945 0.77713 0.0
H291 H 0.1391 0.87256 0.79694 0.0
H292 H 0.12115 0.82919 0.88836 0.0
H293 H 0.12336 0.79323 0.89237 0.0
H294 H 0.14783 0.81603 0.90899 0.0
H295 H 0.1703 0.7808 0.83801 0.0
H296 H 0.1813 0.77645 0.87216 0.0
H297 H 0.14731 0.76641 0.86123 0.0
H298 H 0.20032 0.76722 0.95643 0.0
C299 C 0.1964 0.79362 0.92159 0.0
C300 C 0.13987 0.24269 0.83161 0.0
C301 C 0.13216 0.267 0.84413 0.0
C302 C 0.14794 0.27631 0.86693 0.0
C303 C 0.17676 0.23713 0.86564 0.0
C304 C 0.16227 0.22815 0.84267 0.0
C305 C 0.17374 0.20209 0.83223 0.0
H306 H 0.26145 0.09831 0.85622 0.0
C307 C 0.19772 0.21705 0.87322 0.0
C308 C 0.19614 0.19618 0.85381 0.0
H309 H 0.21063 0.10911 0.78332 0.0
H310 H 0.19273 0.15043 0.8026 0.0
H311 H 0.28307 0.15815 0.85896 0.0
H312 H 0.2194 0.11624 0.89889 0.0
H313 H 0.23568 0.13792 0.92291 0.0
H314 H 0.25464 0.11128 0.90812 0.0
H315 H 0.28969 0.1328 0.88426 0.0
H316 H 0.28552 0.16769 0.89319 0.0
C317 C 0.18542 0.20787 0.80447 0.0
C318 C 0.15122 0.18008 0.83124 0.0
C319 C 0.25399 0.23044 0.96148 0.0
C320 C 0.2716 0.21367 0.97682 0.0
C321 C 0.27811 0.18828 0.96637 0.0
C322 C 0.26718 0.17974 0.94086 0.0
C323 C 0.24906 0.19655 0.92589 0.0
C324 C 0.24276 0.22141 0.93642 0.0
C325 C 0.22142 0.23565 0.91917 0.0
C326 C 0.21621 0.21551 0.89619 0.0
C327 C 0.23262 0.19283 0.89999 0.0
C328 C 0.23413 0.26243 0.90917 0.0
C329 C 0.19611 0.23924 0.93618 0.0
C330 C 0.2464 0.10922 0.84402 0.0
C331 C 0.23763 0.10012 0.81797 0.0
C332 C 0.21781 0.11541 0.8034 0.0
C333 C 0.20769 0.13953 0.81457 0.0
C334 C 0.21773 0.14863 0.84039 0.0
C335 C 0.23688 0.13327 0.85441 0.0
C336 C 0.247 0.14585 0.88071 0.0
C337 C 0.23119 0.17174 0.88042 0.0
C338 C 0.2135 0.17336 0.85709 0.0
C339 C 0.27796 0.15134 0.8795 0.0
C340 C 0.23904 0.1269 0.904 0.0
H341 H 0.1808 0.26998 0.89509 0.0
H342 H 0.1286 0.23488 0.81392 0.0
H343 H 0.141 0.17938 0.85072 0.0
H344 H 0.15917 0.1597 0.82796 0.0
H345 H 0.13559 0.18428 0.81487 0.0
H346 H 0.19642 0.22767 0.8047 0.0
H347 H 0.16895 0.20859 0.78831 0.0
H348 H 0.20045 0.19283 0.79895 0.0
H349 H 0.24794 0.24969 0.96951 0.0
H350 H 0.29119 0.17486 0.97818 0.0
H351 H 0.27279 0.16011 0.93403 0.0
H352 H 0.25557 0.25945 0.90398 0.0
H353 H 0.23416 0.27832 0.92502 0.0
H354 H 0.22381 0.27012 0.89045 0.0
H355 H 0.19513 0.22366 0.95231 0.0
H356 H 0.17675 0.23652 0.92413 0.0
H357 H 0.19638 0.25933 0.94621 0.0
H358 H 0.14343 0.29513 0.87667 0.0
C359 C 0.16998 0.26164 0.87764 0.0
C360 C 0.85309 0.11864 0.83663 0.0
C361 C 0.85337 0.10472 0.81196 0.0
C362 C 0.87094 0.11424 0.79228 0.0
C363 C 0.88763 0.15043 0.82236 0.0
C364 C 0.87017 0.14114 0.84135 0.0
C365 C 0.87157 0.15794 0.86655 0.0
H366 H 0.91417 0.27032 0.93323 0.0
C367 C 0.90266 0.17436 0.83408 0.0
C368 C 0.89316 0.17866 0.85999 0.0
H369 H 0.85771 0.20824 0.95754 0.0
H370 H 0.86661 0.18207 0.91862 0.0
H371 H 0.89919 0.26952 0.8677 0.0
H372 H 0.95896 0.22924 0.91869 0.0
H373 H 0.97239 0.23026 0.88653 0.0
H374 H 0.96615 0.26145 0.904 0.0
H375 H 0.92629 0.28585 0.88756 0.0
H376 H 0.93173 0.27309 0.85447 0.0
C377 C 0.84333 0.17087 0.86918 0.0
C378 C 0.88102 0.13967 0.89061 0.0
C379 C 0.97264 0.22665 0.78077 0.0
C380 C 0.99055 0.24821 0.78804 0.0
C381 C 0.99064 0.25881 0.81443 0.0
C382 C 0.9727 0.24883 0.83312 0.0
C383 C 0.95451 0.22775 0.82557 0.0
C384 C 0.95521 0.21633 0.80011 0.0
C385 C 0.93583 0.19244 0.79686 0.0
C386 C 0.92308 0.19199 0.82424 0.0
C387 C 0.93375 0.21324 0.84068 0.0
C388 C 0.91473 0.19858 0.77358 0.0
C389 C 0.95266 0.16688 0.79227 0.0
C390 C 0.90382 0.25105 0.93024 0.0
C391 C 0.88432 0.24201 0.94821 0.0
C392 C 0.87192 0.21641 0.94368 0.0
C393 C 0.87727 0.20102 0.921 0.0
C394 C 0.89539 0.21103 0.90241 0.0
C395 C 0.9091 0.23516 0.90757 0.0
C396 C 0.92893 0.24149 0.88614 0.0
C397 C 0.92329 0.21807 0.86647 0.0
C398 C 0.90346 0.20056 0.87613 0.0
C399 C 0.92133 0.26899 0.87323 0.0
C400 C 0.95814 0.24077 0.89939 0.0
H401 H 0.90097 0.14317 0.78165 0.0
H402 H 0.83957 0.11238 0.85203 0.0
H403 H 0.8946 0.12347 0.88396 0.0
H404 H 0.89333 0.15078 0.90642 0.0
H405 H 0.86347 0.1297 0.89988 0.0
H406 H 0.83372 0.17567 0.84895 0.0
H407 H 0.82931 0.15695 0.87944 0.0
H408 H 0.84429 0.1904 0.87995 0.0
H409 H 0.97232 0.21802 0.76066 0.0
H410 H 1.00416 0.27549 0.82037 0.0
H411 H 0.97344 0.25814 0.85268 0.0
H412 H 0.90769 0.21977 0.77496 0.0
H413 H 0.92363 0.19603 0.75362 0.0
H414 H 0.89626 0.18579 0.77416 0.0
H415 H 0.97177 0.16734 0.80526 0.0
H416 H 0.94203 0.14808 0.79779 0.0
H417 H 0.95828 0.16545 0.7709 0.0
H418 H 0.8718 0.10388 0.77311 0.0
C419 C 0.88806 0.13696 0.79735 0.0
C420 C 0.80831 0.82842 0.90861 0.0
C421 C 0.78614 0.84279 0.91792 0.0
C422 C 0.77815 0.86651 0.90392 0.0
C423 C 0.81477 0.86174 0.87328 0.0
C424 C 0.82228 0.83825 0.88659 0.0
C425 C 0.84691 0.82582 0.87522 0.0
H426 H 0.95004 0.83513 0.79094 0.0
C427 C 0.83428 0.8669 0.8519 0.0
C428 C 0.85318 0.84582 0.85308 0.0
H429 H 0.93466 0.77119 0.84802 0.0
H430 H 0.89377 0.79328 0.86011 0.0
H431 H 0.93503 0.88337 0.82732 0.0
H432 H 0.88887 0.83766 0.76665 0.0
H433 H 0.8789 0.87136 0.76257 0.0
H434 H 0.91383 0.8626 0.75833 0.0
H435 H 0.93977 0.88725 0.79187 0.0
H436 H 0.9151 0.90666 0.80883 0.0
C437 C 0.86974 0.82527 0.89792 0.0
C438 C 0.83862 0.79767 0.86356 0.0
C439 C 0.82909 0.95275 0.79464 0.0
C440 C 0.8461 0.9637 0.77533 0.0
C441 C 0.86803 0.94862 0.76701 0.0
C442 C 0.87339 0.92309 0.77823 0.0
C443 C 0.85686 0.91273 0.79831 0.0
C444 C 0.83484 0.92731 0.8059 0.0
C445 C 0.82012 0.9135 0.82819 0.0
C446 C 0.83705 0.88828 0.83283 0.0
C447 C 0.85855 0.8881 0.81528 0.0
C448 C 0.82157 0.93236 0.8532 0.0
C449 C 0.79089 0.90654 0.81726 0.0
C450 C 0.93798 0.82547 0.80585 0.0
C451 C 0.94611 0.80121 0.81852 0.0
C452 C 0.92941 0.78998 0.83809 0.0
C453 C 0.90548 0.80282 0.84504 0.0
C454 C 0.898 0.82724 0.83236 0.0
C455 C 0.91404 0.83788 0.81286 0.0
C456 C 0.90298 0.86365 0.80103 0.0
C457 C 0.87772 0.86698 0.81681 0.0
C458 C 0.87494 0.84578 0.83534 0.0
C459 C 0.92424 0.88653 0.8073 0.0
C460 C 0.89589 0.85885 0.77051 0.0
H461 H 0.7852 0.89419 0.87215 0.0
H462 H 0.8149 0.80989 0.91824 0.0
H463 H 0.8176 0.79786 0.85422 0.0
H464 H 0.85144 0.79129 0.84715 0.0
H465 H 0.83923 0.78203 0.87964 0.0
H466 H 0.86957 0.84393 0.91045 0.0
H467 H 0.86709 0.80772 0.91155 0.0
H468 H 0.89029 0.82479 0.89019 0.0
H469 H 0.81235 0.96432 0.80167 0.0
H470 H 0.8815 0.95695 0.75246 0.0
H471 H 0.89071 0.91276 0.77139 0.0
H472 H 0.84158 0.94307 0.85525 0.0
H473 H 0.80556 0.9479 0.8515 0.0
H474 H 0.81986 0.92137 0.87241 0.0
H475 H 0.79095 0.89869 0.79621 0.0
H476 H 0.78115 0.89048 0.82896 0.0
H477 H 0.77794 0.92473 0.81698 0.0
H478 H 0.76133 0.8782 0.91043 0.0
C479 C 0.79221 0.87594 0.8817 0.0
C480 C 0.24125 0.61428 0.71092 0.0
C481 C 0.26481 0.60524 0.69888 0.0
C482 C 0.27139 0.61636 0.6738 0.0
C483 C 0.23244 0.6456 0.67387 0.0
C484 C 0.22549 0.63445 0.69812 0.0
C485 C 0.20012 0.6468 0.70821 0.0
H486 H 0.10408 0.74322 0.69653 0.0
C487 C 0.21287 0.66709 0.66661 0.0
C488 C 0.19388 0.66801 0.68657 0.0
H489 H 0.11092 0.67821 0.75456 0.0
H490 H 0.15031 0.66173 0.73328 0.0
H491 H 0.11776 0.70567 0.64301 0.0
H492 H 0.16978 0.75686 0.69521 0.0
H493 H 0.17678 0.76236 0.66114 0.0
H494 H 0.14385 0.77068 0.67265 0.0
H495 H 0.11295 0.74151 0.64548 0.0
H496 H 0.13752 0.72791 0.62387 0.0
C497 C 0.17769 0.6245 0.70856 0.0
C498 C 0.20743 0.65981 0.73613 0.0
C499 C 0.22941 0.72385 0.5847 0.0
C500 C 0.22021 0.74898 0.57523 0.0
C501 C 0.19782 0.76058 0.58721 0.0
C502 C 0.18597 0.74771 0.60938 0.0
C503 C 0.19694 0.7233 0.61969 0.0
C504 C 0.2183 0.71195 0.60705 0.0
C505 C 0.23002 0.68804 0.62172 0.0
C506 C 0.21175 0.68601 0.64512 0.0
C507 C 0.19208 0.70635 0.64392 0.0
C508 C 0.2266 0.66314 0.60279 0.0
C509 C 0.25992 0.69509 0.63112 0.0
C510 C 0.11425 0.72557 0.70472 0.0
C511 C 0.1045 0.71205 0.72737 0.0
C512 C 0.11794 0.68882 0.73709 0.0
C513 C 0.14088 0.67937 0.72476 0.0
C514 C 0.1505 0.69315 0.70231 0.0
C515 C 0.13705 0.71563 0.69235 0.0
C516 C 0.14975 0.72696 0.66761 0.0
C517 C 0.1727 0.70729 0.66421 0.0
C518 C 0.17332 0.68787 0.68502 0.0
C519 C 0.12844 0.72564 0.64362 0.0
C520 C 0.16052 0.75583 0.67425 0.0
H521 H 0.26163 0.64374 0.64224 0.0
H522 H 0.2351 0.6059 0.72983 0.0
H523 H 0.22686 0.67149 0.73565 0.0
H524 H 0.19222 0.67433 0.74239 0.0
H525 H 0.20996 0.64411 0.75204 0.0
H526 H 0.18132 0.60802 0.69396 0.0
H527 H 0.17679 0.61518 0.72888 0.0
H528 H 0.15738 0.63218 0.70216 0.0
H529 H 0.24653 0.71419 0.57604 0.0
H530 H 0.19042 0.78003 0.58037 0.0
H531 H 0.16941 0.75767 0.61826 0.0
H532 H 0.20659 0.6634 0.5913 0.0
H533 H 0.24264 0.66295 0.58787 0.0
H534 H 0.22682 0.64376 0.61384 0.0
H535 H 0.26349 0.71731 0.63274 0.0
H536 H 0.26551 0.68751 0.65163 0.0
H537 H 0.27442 0.68719 0.61675 0.0
H538 H 0.28934 0.61017 0.66397 0.0
C539 C 0.25532 0.63622 0.66123 0.0
C540 C 0.86423 0.6395 0.72711 0.0
C541 C 0.84147 0.62271 0.72101 0.0
C542 C 0.82492 0.62843 0.69757 0.0
C543 C 0.85461 0.66605 0.68638 0.0
C544 C 0.87037 0.66085 0.7097 0.0
C545 C 0.894 0.68026 0.71347 0.0
H546 H 0.97491 0.77752 0.66304 0.0
C547 C 0.86757 0.68881 0.67197 0.0
C548 C 0.8908 0.69701 0.68787 0.0
H549 H 0.9804 0.74175 0.74255 0.0
H550 H 0.9396 0.71533 0.73209 0.0
H551 H 0.90862 0.78684 0.66481 0.0
H552 H 0.95824 0.72706 0.62977 0.0
H553 H 0.92955 0.72968 0.6075 0.0
H554 H 0.95167 0.75877 0.61341 0.0
H555 H 0.92912 0.79323 0.63657 0.0
H556 H 0.89484 0.78042 0.63202 0.0
C557 C 0.89004 0.69739 0.73919 0.0
C558 C 0.92049 0.66379 0.71448 0.0
C559 C 0.8263 0.72699 0.5825 0.0
C560 C 0.83617 0.7468 0.56476 0.0
C561 C 0.86298 0.75674 0.56951 0.0
C562 C 0.8789 0.74906 0.59219 0.0
C563 C 0.86827 0.73103 0.61074 0.0
C564 C 0.84294 0.71923 0.60534 0.0
C565 C 0.83677 0.69838 0.62668 0.0
C566 C 0.86149 0.70157 0.64652 0.0
C567 C 0.87962 0.7211 0.63699 0.0
C568 C 0.81022 0.70611 0.63975 0.0
C569 C 0.83559 0.67026 0.61298 0.0
C570 C 0.96709 0.76411 0.67815 0.0
C571 C 0.98071 0.76162 0.70362 0.0
C572 C 0.97001 0.74407 0.72288 0.0
C573 C 0.9464 0.72867 0.71671 0.0
C574 C 0.9331 0.73094 0.69103 0.0
C575 C 0.94307 0.74895 0.67252 0.0
C576 C 0.92509 0.75007 0.64704 0.0
C577 C 0.90305 0.72935 0.65311 0.0
C578 C 0.90817 0.71787 0.67869 0.0
C579 C 0.91384 0.77911 0.64466 0.0
C580 C 0.94188 0.74116 0.62304 0.0
H581 H 0.818 0.65322 0.66284 0.0
H582 H 0.87704 0.63619 0.74518 0.0
H583 H 0.91965 0.64824 0.69822 0.0
H584 H 0.93875 0.67623 0.71123 0.0
H585 H 0.9235 0.65321 0.73416 0.0
H586 H 0.86829 0.69823 0.74403 0.0
H587 H 0.9014 0.68888 0.75711 0.0
H588 H 0.89625 0.71879 0.73667 0.0
H589 H 0.80603 0.7185 0.57922 0.0
H590 H 0.87163 0.77134 0.556 0.0
H591 H 0.89879 0.75801 0.59464 0.0
H592 H 0.81047 0.72802 0.6448 0.0
H593 H 0.7923 0.70195 0.62575 0.0
H594 H 0.80732 0.69531 0.65888 0.0
H595 H 0.85077 0.66897 0.59721 0.0
H596 H 0.84076 0.65373 0.62717 0.0
H597 H 0.81522 0.66613 0.60304 0.0
H598 H 0.80728 0.61592 0.69221 0.0
C599 C 0.83134 0.64995 0.68031 0.0
C600 C 0.94788 0.37987 0.75058 0.0
C601 C 0.96567 0.3589 0.74404 0.0
C602 C 0.96019 0.34444 0.71981 0.0
C603 C 0.91979 0.37065 0.70964 0.0
C604 C 0.92518 0.38554 0.73293 0.0
C605 C 0.90417 0.40729 0.73594 0.0
H606 H 0.79106 0.47128 0.6823 0.0
C607 C 0.89436 0.38047 0.69609 0.0
C608 C 0.8849 0.40213 0.71118 0.0
H609 H 0.83947 0.49303 0.75431 0.0
H610 H 0.8674 0.45361 0.74923 0.0
H611 H 0.78834 0.40734 0.69627 0.0
H612 H 0.84014 0.45388 0.64599 0.0
H613 H 0.82836 0.42485 0.62805 0.0
H614 H 0.80431 0.44903 0.63876 0.0
H615 H 0.77722 0.41755 0.66282 0.0
H616 H 0.79543 0.38654 0.66891 0.0
C617 C 0.88997 0.40237 0.7626 0.0
C618 C 0.91875 0.43508 0.73454 0.0
C619 C 0.85691 0.33137 0.61174 0.0
C620 C 0.83275 0.33359 0.5957 0.0
C621 C 0.81432 0.35402 0.60173 0.0
C622 C 0.81988 0.37189 0.62341 0.0
C623 C 0.84403 0.36924 0.6395 0.0
C624 C 0.86193 0.34909 0.6336 0.0
C625 C 0.88583 0.34826 0.65361 0.0
C626 C 0.87941 0.37121 0.67252 0.0
C627 C 0.8551 0.38372 0.66402 0.0
C628 C 0.88533 0.32038 0.66797 0.0
C629 C 0.91182 0.35433 0.63819 0.0
C630 C 0.80739 0.46722 0.69715 0.0
C631 C 0.81297 0.4851 0.71883 0.0
C632 C 0.83465 0.47934 0.73759 0.0
C633 C 0.85105 0.45663 0.73444 0.0
C634 C 0.84593 0.4394 0.71212 0.0
C635 C 0.82398 0.44452 0.69428 0.0
C636 C 0.82122 0.42377 0.67203 0.0
C637 C 0.84574 0.4062 0.67865 0.0
C638 C 0.86036 0.41536 0.70222 0.0
C639 C 0.79412 0.408 0.67486 0.0
C640 C 0.82344 0.43849 0.64465 0.0
H641 H 0.93465 0.33799 0.6849 0.0
H642 H 0.95158 0.39155 0.76891 0.0
H643 H 0.93376 0.43507 0.71855 0.0
H644 H 0.90481 0.45165 0.72914 0.0
H645 H 0.92986 0.44002 0.75406 0.0
H646 H 0.88529 0.38049 0.76514 0.0
H647 H 0.90318 0.40904 0.78029 0.0
H648 H 0.87033 0.41266 0.76315 0.0
H649 H 0.87124 0.31567 0.60781 0.0
H650 H 0.79569 0.35633 0.58945 0.0
H651 H 0.80512 0.38706 0.62683 0.0
H652 H 0.86414 0.31283 0.66981 0.0
H653 H 0.89623 0.30499 0.65654 0.0
H654 H 0.89394 0.32112 0.689 0.0
H655 H 0.90752 0.36842 0.62104 0.0
H656 H 0.92792 0.36471 0.65085 0.0
H657 H 0.92009 0.33557 0.62972 0.0
H658 H 0.97296 0.32796 0.71431 0.0
C659 C 0.93756 0.35015 0.70274 0.0
C660 C 0.27421 0.45393 0.75228 0.0
C661 C 0.26166 0.4753 0.76515 0.0
C662 C 0.2344 0.47196 0.77188 0.0
C663 C 0.23197 0.42824 0.74851 0.0
C664 C 0.25893 0.43165 0.74294 0.0
C665 C 0.26791 0.4123 0.72203 0.0
H666 H 0.23562 0.32328 0.62278 0.0
C667 C 0.22139 0.40437 0.73254 0.0
C668 C 0.24223 0.39566 0.71652 0.0
H669 H 0.31122 0.36666 0.64062 0.0
H670 H 0.29445 0.38316 0.68183 0.0
H671 H 0.23166 0.30467 0.68843 0.0
H672 H 0.19189 0.36801 0.64181 0.0
H673 H 0.1683 0.34782 0.65911 0.0
H674 H 0.18779 0.33269 0.63373 0.0
H675 H 0.20359 0.29746 0.66486 0.0
H676 H 0.19848 0.3082 0.69907 0.0
C677 C 0.29099 0.39504 0.73516 0.0
C678 C 0.27599 0.42891 0.69686 0.0
C679 C 0.12821 0.3645 0.74842 0.0
C680 C 0.11396 0.3411 0.73906 0.0
C681 C 0.12504 0.32576 0.71842 0.0
C682 C 0.15007 0.33335 0.70779 0.0
C683 C 0.16436 0.35633 0.7181 0.0
C684 C 0.15327 0.37146 0.73812 0.0
C685 C 0.17136 0.39483 0.7474 0.0
C686 C 0.19601 0.39023 0.73109 0.0
C687 C 0.19162 0.36811 0.71326 0.0
C688 C 0.17813 0.39211 0.77811 0.0
C689 C 0.15698 0.42146 0.73934 0.0
C690 C 0.24837 0.33648 0.6356 0.0
C691 C 0.27447 0.34461 0.62776 0.0
C692 C 0.29074 0.36106 0.64545 0.0
C693 C 0.28092 0.37069 0.66947 0.0
C694 C 0.25421 0.3644 0.67596 0.0
C695 C 0.23864 0.34668 0.65987 0.0
C696 C 0.21142 0.34099 0.67181 0.0
C697 C 0.21228 0.36077 0.69558 0.0
C698 C 0.23754 0.37422 0.69774 0.0
C699 C 0.21099 0.31126 0.68144 0.0
C700 C 0.18849 0.34761 0.65052 0.0
H701 H 0.19861 0.44694 0.76884 0.0
H702 H 0.29508 0.4559 0.74654 0.0
H703 H 0.26794 0.44979 0.69691 0.0
H704 H 0.26734 0.42029 0.67761 0.0
H705 H 0.29839 0.43075 0.6959 0.0
H706 H 0.28643 0.38932 0.75618 0.0
H707 H 0.3106 0.40643 0.7361 0.0
H708 H 0.29358 0.3757 0.72448 0.0
H709 H 0.12044 0.3769 0.7642 0.0
H710 H 0.11458 0.3077 0.71078 0.0
H711 H 0.1575 0.32095 0.6921 0.0
H712 H 0.18478 0.37123 0.78308 0.0
H713 H 0.16007 0.3964 0.7898 0.0
H714 H 0.19476 0.40578 0.78546 0.0
H715 H 0.14381 0.41882 0.72055 0.0
H716 H 0.17147 0.43781 0.73457 0.0
H717 H 0.14394 0.4284 0.75551 0.0
H718 H 0.22415 0.48824 0.78157 0.0
C719 C 0.21954 0.44824 0.76393 0.0
C720 C 0.24601 0.32484 0.4734 0.0
C721 C 0.23492 0.30416 0.48903 0.0
C722 C 0.21113 0.29063 0.47917 0.0
C723 C 0.20877 0.32019 0.43963 0.0
C724 C 0.23277 0.33246 0.449 0.0
C725 C 0.24158 0.355 0.43097 0.0
H726 H 0.21752 0.43695 0.32353 0.0
C727 C 0.19939 0.33455 0.41447 0.0
C728 C 0.21861 0.35483 0.40934 0.0
H729 H 0.28673 0.4363 0.38101 0.0
H730 H 0.26778 0.39835 0.40353 0.0
H731 H 0.17057 0.4234 0.36765 0.0
H732 H 0.21373 0.36938 0.31675 0.0
H733 H 0.17874 0.36125 0.31516 0.0
H734 H 0.19003 0.39351 0.30277 0.0
H735 H 0.16665 0.42461 0.33139 0.0
H736 H 0.14787 0.40051 0.35048 0.0
C737 C 0.24261 0.38156 0.4477 0.0
C738 C 0.26899 0.34706 0.41939 0.0
C739 C 0.1099 0.3067 0.36706 0.0
C740 C 0.09519 0.31489 0.34341 0.0
C741 C 0.1055 0.33679 0.32863 0.0
C742 C 0.13026 0.34981 0.33716 0.0
C743 C 0.14491 0.3408 0.36067 0.0
C744 C 0.13439 0.31956 0.37511 0.0
C745 C 0.15233 0.31185 0.39923 0.0
C746 C 0.17565 0.33176 0.39709 0.0
C747 C 0.17138 0.34897 0.37457 0.0
C748 C 0.1365 0.31665 0.42496 0.0
C749 C 0.16148 0.28231 0.39548 0.0
C750 C 0.22861 0.42851 0.34088 0.0
C751 C 0.25364 0.44019 0.35064 0.0
C752 C 0.26725 0.42839 0.37332 0.0
C753 C 0.25625 0.40605 0.38636 0.0
C754 C 0.23114 0.39501 0.37687 0.0
C755 C 0.21775 0.40596 0.35433 0.0
C756 C 0.19137 0.39089 0.34719 0.0
C757 C 0.19114 0.36948 0.36937 0.0
C758 C 0.21459 0.3722 0.38666 0.0
C759 C 0.16772 0.41081 0.34908 0.0
C760 C 0.19331 0.37813 0.3189 0.0
H761 H 0.1795 0.28798 0.44828 0.0
H762 H 0.26439 0.33551 0.48047 0.0
H763 H 0.27031 0.32478 0.4169 0.0
H764 H 0.27162 0.35524 0.39891 0.0
H765 H 0.28646 0.35367 0.43301 0.0
H766 H 0.22632 0.38164 0.46242 0.0
H767 H 0.26237 0.38402 0.45935 0.0
H768 H 0.23892 0.39977 0.43527 0.0
H769 H 0.10283 0.29001 0.3791 0.0
H770 H 0.09474 0.34349 0.31028 0.0
H771 H 0.13724 0.3662 0.32502 0.0
H772 H 0.12418 0.33526 0.42289 0.0
H773 H 0.12241 0.29947 0.42861 0.0
H774 H 0.14988 0.31998 0.44325 0.0
H775 H 0.16431 0.27784 0.37381 0.0
H776 H 0.18137 0.27818 0.40585 0.0
H777 H 0.14615 0.2677 0.40267 0.0
H778 H 0.20221 0.27473 0.491 0.0
C779 C 0.19794 0.29857 0.45452 0.0
C780 C 0.23539 0.5864 0.32579 0.0
C781 C 0.22813 0.57312 0.3013 0.0
C782 C 0.20458 0.58188 0.28646 0.0
C783 C 0.19778 0.61734 0.32028 0.0
C784 C 0.2207 0.60822 0.33446 0.0
C785 C 0.22889 0.62504 0.35871 0.0
H786 H 0.20807 0.73009 0.44061 0.0
C787 C 0.18817 0.64145 0.33535 0.0
C788 C 0.20684 0.64577 0.35766 0.0
H789 H 0.27544 0.67487 0.44441 0.0
H790 H 0.25557 0.65069 0.40602 0.0
H791 H 0.1627 0.68751 0.4296 0.0
H792 H 0.20711 0.73821 0.37706 0.0
H793 H 0.17343 0.73799 0.36378 0.0
H794 H 0.18103 0.7504 0.39762 0.0
H795 H 0.15368 0.72198 0.42343 0.0
H796 H 0.13939 0.6947 0.40273 0.0
C797 C 0.2277 0.6069 0.38414 0.0
C798 C 0.25724 0.63797 0.35433 0.0
C799 C 0.10033 0.69226 0.30785 0.0
C800 C 0.08727 0.71399 0.32026 0.0
C801 C 0.09974 0.72572 0.3437 0.0
C802 C 0.12428 0.71619 0.35489 0.0
C803 C 0.13692 0.69443 0.34275 0.0
C804 C 0.12512 0.68261 0.31963 0.0
C805 C 0.14199 0.65925 0.31026 0.0
C806 C 0.16539 0.65902 0.33181 0.0
C807 C 0.16212 0.68004 0.35054 0.0
C808 C 0.12465 0.63309 0.31067 0.0
C809 C 0.152 0.66606 0.28206 0.0
C810 C 0.21891 0.71303 0.43319 0.0
C811 C 0.24368 0.70474 0.4459 0.0
C812 C 0.25635 0.68186 0.43544 0.0
C813 C 0.24482 0.66787 0.41285 0.0
C814 C 0.22033 0.6768 0.4002 0.0
C815 C 0.20786 0.69901 0.4105 0.0
C816 C 0.18212 0.70587 0.3945 0.0
C817 C 0.18137 0.6843 0.37256 0.0
C818 C 0.20364 0.66732 0.37606 0.0
C819 C 0.15814 0.70259 0.4134 0.0
C820 C 0.1858 0.73465 0.38269 0.0
H821 H 0.17176 0.60998 0.28376 0.0
H822 H 0.25314 0.58062 0.33814 0.0
H823 H 0.26065 0.64067 0.33246 0.0
H824 H 0.25958 0.65857 0.36288 0.0
H825 H 0.27382 0.62517 0.36301 0.0
H826 H 0.20996 0.59273 0.3823 0.0
H827 H 0.24629 0.5946 0.38695 0.0
H828 H 0.22497 0.61845 0.40285 0.0
H829 H 0.0912 0.68274 0.28983 0.0
H830 H 0.09057 0.74268 0.35335 0.0
H831 H 0.13242 0.72628 0.3727 0.0
H832 H 0.11497 0.63099 0.33035 0.0
H833 H 0.10829 0.63332 0.29437 0.0
H834 H 0.13682 0.61484 0.30819 0.0
H835 H 0.16048 0.687 0.28175 0.0
H836 H 0.16838 0.65268 0.27622 0.0
H837 H 0.13503 0.6646 0.26643 0.0
H838 H 0.1984 0.57224 0.26746 0.0
C839 C 0.18929 0.60389 0.29591 0.0
C840 C 0.79991 0.60229 0.34312 0.0
C841 C 0.80347 0.58151 0.32451 0.0
C842 C 0.82277 0.58493 0.30477 0.0
C843 C 0.83566 0.62896 0.32313 0.0
C844 C 0.81606 0.62584 0.34191 0.0
C845 C 0.81504 0.64985 0.3603 0.0
H846 H 0.86326 0.77139 0.40436 0.0
C847 C 0.84959 0.65543 0.32805 0.0
C848 C 0.83732 0.66785 0.34961 0.0
H849 H 0.7981 0.72194 0.43376 0.0
H850 H 0.80438 0.68915 0.39958 0.0
H851 H 0.84649 0.76085 0.33877 0.0
H852 H 0.90475 0.71932 0.39182 0.0
H853 H 0.91933 0.72947 0.36152 0.0
H854 H 0.90809 0.7547 0.38426 0.0
H855 H 0.87725 0.77727 0.35169 0.0
H856 H 0.87681 0.75568 0.32232 0.0
C857 C 0.78659 0.66263 0.35583 0.0
C858 C 0.82211 0.64012 0.3896 0.0
C859 C 0.93253 0.68039 0.27568 0.0
C860 C 0.94955 0.70337 0.27535 0.0
C861 C 0.94327 0.72592 0.2912 0.0
C862 C 0.92106 0.7252 0.30796 0.0
C863 C 0.90471 0.70171 0.30886 0.0
C864 C 0.91007 0.68017 0.29213 0.0
C865 C 0.88965 0.6575 0.2944 0.0
C866 C 0.87191 0.66837 0.316 0.0
C867 C 0.88097 0.69422 0.32488 0.0
C868 C 0.8737 0.65426 0.26672 0.0
C869 C 0.905 0.6319 0.30404 0.0
C870 C 0.8505 0.7534 0.40324 0.0
C871 C 0.8305 0.74904 0.42233 0.0
C872 C 0.81412 0.72552 0.42002 0.0
C873 C 0.81767 0.70647 0.39985 0.0
C874 C 0.83797 0.71054 0.38144 0.0
C875 C 0.85402 0.73368 0.38303 0.0
C876 C 0.87458 0.73389 0.36126 0.0
C877 C 0.86823 0.70697 0.34681 0.0
C878 C 0.84664 0.69365 0.35896 0.0
C879 C 0.86875 0.75827 0.3425 0.0
C880 C 0.90331 0.7345 0.37528 0.0
H881 H 0.85349 0.60965 0.28869 0.0
H882 H 0.78521 0.60011 0.3585 0.0
H883 H 0.83648 0.62299 0.38981 0.0
H884 H 0.83272 0.65572 0.40234 0.0
H885 H 0.80365 0.6331 0.3996 0.0
H886 H 0.77846 0.65981 0.33461 0.0
H887 H 0.77174 0.65329 0.36924 0.0
H888 H 0.78696 0.68478 0.35883 0.0
H889 H 0.93688 0.66279 0.26374 0.0
H890 H 0.95623 0.74379 0.29138 0.0
H891 H 0.91769 0.7428 0.31991 0.0
H892 H 0.87297 0.67366 0.25538 0.0
H893 H 0.88324 0.63912 0.25382 0.0
H894 H 0.85214 0.64855 0.26885 0.0
H895 H 0.92032 0.63701 0.32062 0.0
H896 H 0.89163 0.61632 0.31241 0.0
H897 H 0.91585 0.62277 0.28728 0.0
H898 H 0.82573 0.5691 0.29023 0.0
C899 C 0.83887 0.60849 0.30395 0.0
C900 C 0.80668 0.32024 0.46335 0.0
C901 C 0.78435 0.33529 0.47127 0.0
C902 C 0.77587 0.35755 0.45561 0.0
C903 C 0.81259 0.3506 0.42548 0.0
C904 C 0.82058 0.32826 0.44048 0.0
C905 C 0.84589 0.31578 0.43012 0.0
H906 H 0.94862 0.3259 0.3431 0.0
C907 C 0.83239 0.35502 0.40434 0.0
C908 C 0.85215 0.33468 0.40688 0.0
H909 H 0.93785 0.26243 0.4017 0.0
H910 H 0.89652 0.28357 0.41522 0.0
H911 H 0.93338 0.37399 0.37893 0.0
H912 H 0.88863 0.32474 0.3204 0.0
H913 H 0.8759 0.35736 0.31568 0.0
H914 H 0.91135 0.3513 0.31094 0.0
H915 H 0.93661 0.37773 0.34323 0.0
H916 H 0.91171 0.39613 0.36096 0.0
C917 C 0.86847 0.31672 0.45295 0.0
C918 C 0.83858 0.2869 0.42008 0.0
C919 C 0.82281 0.4367 0.34165 0.0
C920 C 0.83905 0.44693 0.32127 0.0
C921 C 0.8624 0.43272 0.31492 0.0
C922 C 0.86969 0.40903 0.32865 0.0
C923 C 0.85357 0.39924 0.34919 0.0
C924 C 0.8305 0.41292 0.35534 0.0
C925 C 0.8163 0.39966 0.37822 0.0
C926 C 0.83456 0.37566 0.38451 0.0
C927 C 0.8563 0.37567 0.36744 0.0
C928 C 0.81649 0.41999 0.40207 0.0
C929 C 0.7876 0.3905 0.36737 0.0
C930 C 0.93757 0.31604 0.35865 0.0
C931 C 0.94696 0.29217 0.37105 0.0
C932 C 0.93151 0.28088 0.39171 0.0
C933 C 0.90735 0.29315 0.39951 0.0
C934 C 0.89836 0.317 0.38657 0.0
C935 C 0.91355 0.32773 0.36639 0.0
C936 C 0.90131 0.35255 0.35394 0.0
C937 C 0.87623 0.35537 0.36994 0.0
C938 C 0.87433 0.33472 0.38933 0.0
C939 C 0.92171 0.37643 0.35925 0.0
C940 C 0.89402 0.34646 0.32363 0.0
H941 H 0.78242 0.38254 0.4218 0.0
H942 H 0.81385 0.30327 0.47538 0.0
H943 H 0.81891 0.28671 0.40799 0.0
H944 H 0.85364 0.27881 0.40665 0.0
H945 H 0.83654 0.27286 0.43738 0.0
H946 H 0.86925 0.33688 0.46294 0.0
H947 H 0.86468 0.30125 0.46861 0.0
H948 H 0.88886 0.31361 0.44553 0.0
H949 H 0.8049 0.44727 0.34727 0.0
H950 H 0.87502 0.43984 0.29909 0.0
H951 H 0.88778 0.3994 0.32277 0.0
H952 H 0.83502 0.43313 0.40258 0.0
H953 H 0.7986 0.43337 0.40033 0.0
H954 H 0.81717 0.41002 0.42203 0.0
H955 H 0.78824 0.3824 0.34645 0.0
H956 H 0.77901 0.37387 0.37923 0.0
H957 H 0.77332 0.40766 0.36678 0.0
H958 H 0.75903 0.36958 0.46162 0.0
C959 C 0.78969 0.36514 0.43266 0.0
C960 C 0.72828 0.23444 0.59964 0.0
C961 C 0.74937 0.22548 0.58376 0.0
C962 C 0.76171 0.20057 0.59046 0.0
C963 C 0.733 0.19427 0.62808 0.0
C964 C 0.72043 0.21847 0.62171 0.0
C965 C 0.69904 0.22479 0.6415 0.0
H966 H 0.62917 0.18326 0.74981 0.0
C967 C 0.72017 0.18202 0.65153 0.0
C968 C 0.69967 0.19956 0.65924 0.0
H969 H 0.62562 0.26175 0.71194 0.0
H970 H 0.65653 0.24685 0.67847 0.0
H971 H 0.62731 0.14813 0.70009 0.0
H972 H 0.69344 0.18042 0.75005 0.0
H973 H 0.69976 0.14605 0.74512 0.0
H974 H 0.66926 0.1555 0.76037 0.0
H975 H 0.64048 0.12995 0.72901 0.0
H976 H 0.65345 0.12501 0.69591 0.0
C977 C 0.67142 0.22783 0.62573 0.0
C978 C 0.70842 0.25035 0.65761 0.0
C979 C 0.75789 0.09683 0.69865 0.0
C980 C 0.74743 0.08108 0.71967 0.0
C981 C 0.72047 0.08503 0.72662 0.0
C982 C 0.70515 0.10592 0.71534 0.0
C983 C 0.71686 0.12362 0.69714 0.0
C984 C 0.74187 0.11798 0.68737 0.0
C985 C 0.74849 0.13746 0.66491 0.0
C986 C 0.72483 0.1572 0.6656 0.0
C987 C 0.70707 0.14917 0.68526 0.0
C988 C 0.74819 0.12146 0.63793 0.0
C989 C 0.77597 0.15168 0.67241 0.0
C990 C 0.63512 0.19748 0.73457 0.0
C991 C 0.6252 0.22384 0.73403 0.0
C992 C 0.63296 0.24127 0.71305 0.0
C993 C 0.65116 0.23268 0.69377 0.0
C994 C 0.66193 0.20649 0.69562 0.0
C995 C 0.65354 0.18948 0.71577 0.0
C996 C 0.66776 0.16303 0.71635 0.0
C997 C 0.68664 0.16682 0.69344 0.0
C998 C 0.68311 0.19215 0.68095 0.0
C999 C 0.64627 0.14026 0.71021 0.0
C1000 C 0.68333 0.16083 0.74435 0.0
H1001 H 0.76416 0.16659 0.61643 0.0
H1002 H 0.71859 0.25357 0.59538 0.0
H1003 H 0.73081 0.25048 0.66182 0.0
H1004 H 0.69977 0.25138 0.67766 0.0
H1005 H 0.70319 0.26899 0.64612 0.0
H1006 H 0.66781 0.21076 0.61131 0.0
H1007 H 0.67089 0.24693 0.61395 0.0
H1008 H 0.65418 0.22757 0.63902 0.0
H1009 H 0.77823 0.09367 0.6922 0.0
H1010 H 0.71148 0.0726 0.74188 0.0
H1011 H 0.68521 0.10831 0.72241 0.0
H1012 H 0.73822 0.10125 0.63955 0.0
H1013 H 0.76909 0.11807 0.63145 0.0
H1014 H 0.73638 0.13185 0.62145 0.0
H1015 H 0.77604 0.16009 0.69324 0.0
H1016 H 0.78022 0.16873 0.65883 0.0
H1017 H 0.79294 0.13723 0.67166 0.0
H1018 H 0.77794 0.19296 0.57882 0.0
C1019 C 0.75369 0.18507 0.61234 0.0
C1020 C 0.36133 0.13556 0.75871 0.0
C1021 C 0.33924 0.11898 0.74952 0.0
C1022 C 0.32554 0.12561 0.72461 0.0
C1023 C 0.35625 0.16374 0.71848 0.0
C1024 C 0.36949 0.15753 0.74294 0.0
C1025 C 0.39312 0.17641 0.74956 0.0
H1026 H 0.48338 0.27018 0.70865 0.0
C1027 C 0.37071 0.18701 0.70648 0.0
C1028 C 0.39249 0.19437 0.72463 0.0
H1029 H 0.48067 0.23037 0.78611 0.0
H1030 H 0.43766 0.20974 0.77288 0.0
H1031 H 0.41661 0.28527 0.70738 0.0
H1032 H 0.46341 0.22292 0.67251 0.0
H1033 H 0.43763 0.23096 0.6482 0.0
H1034 H 0.46229 0.25657 0.65907 0.0
H1035 H 0.4378 0.29127 0.67959 0.0
H1036 H 0.40296 0.28002 0.67436 0.0
C1037 C 0.3872 0.19246 0.77546 0.0
C1038 C 0.41919 0.15931 0.7521 0.0
C1039 C 0.33741 0.2282 0.6158 0.0
C1040 C 0.34868 0.24852 0.59961 0.0
C1041 C 0.3747 0.25913 0.60739 0.0
C1042 C 0.38855 0.25113 0.63124 0.0
C1043 C 0.37666 0.23199 0.64785 0.0
C1044 C 0.35197 0.22007 0.63976 0.0
C1045 C 0.344 0.19839 0.65948 0.0
C1046 C 0.36691 0.20094 0.68139 0.0
C1047 C 0.38585 0.22092 0.67438 0.0
C1048 C 0.31623 0.20557 0.67041 0.0
C1049 C 0.34418 0.17075 0.64478 0.0
C1050 C 0.47313 0.25754 0.72288 0.0
C1051 C 0.4856 0.25165 0.74835 0.0
C1052 C 0.47161 0.235 0.76627 0.0
C1053 C 0.44668 0.22281 0.7585 0.0
C1054 C 0.43535 0.22709 0.73237 0.0
C1055 C 0.44782 0.24512 0.71543 0.0
C1056 C 0.43156 0.24809 0.68898 0.0
C1057 C 0.40813 0.2281 0.69259 0.0
C1058 C 0.41084 0.2155 0.71789 0.0
C1059 C 0.42177 0.27768 0.68716 0.0
C1060 C 0.44954 0.23943 0.66582 0.0
H1061 H 0.32254 0.15171 0.69053 0.0
H1062 H 0.37218 0.13162 0.7778 0.0
H1063 H 0.41937 0.14436 0.73532 0.0
H1064 H 0.43803 0.17136 0.7508 0.0
H1065 H 0.42032 0.14795 0.77145 0.0
H1066 H 0.36501 0.19366 0.77829 0.0
H1067 H 0.39666 0.18285 0.79382 0.0
H1068 H 0.39419 0.21379 0.77453 0.0
H1069 H 0.31774 0.21924 0.61026 0.0
H1070 H 0.38437 0.27439 0.59535 0.0
H1071 H 0.40798 0.26047 0.63593 0.0
H1072 H 0.31601 0.22725 0.67635 0.0
H1073 H 0.29957 0.20205 0.65477 0.0
H1074 H 0.31158 0.19397 0.68865 0.0
H1075 H 0.35926 0.17074 0.62885 0.0
H1076 H 0.35041 0.15405 0.65842 0.0
H1077 H 0.32398 0.16583 0.63487 0.0
H1078 H 0.30862 0.11341 0.71662 0.0
C1079 C 0.33382 0.14784 0.70921 0.0
C1080 C 0.45298 0.88169 0.7338 0.0
C1081 C 0.46664 0.85783 0.7274 0.0
C1082 C 0.45557 0.84125 0.70639 0.0
C1083 C 0.4176 0.87133 0.69906 0.0
C1084 C 0.42832 0.88788 0.71951 0.0
C1085 C 0.41028 0.91178 0.72392 0.0
H1086 H 0.28584 0.96766 0.7082 0.0
C1087 C 0.3916 0.88279 0.68854 0.0
C1088 C 0.38689 0.90641 0.70293 0.0
H1089 H 0.35745 0.99629 0.7547 0.0
H1090 H 0.3843 0.9628 0.73481 0.0
H1091 H 0.29547 0.90143 0.70743 0.0
H1092 H 0.3262 0.96088 0.65189 0.0
H1093 H 0.31369 0.93183 0.6346 0.0
H1094 H 0.29061 0.95264 0.65214 0.0
H1095 H 0.27321 0.92246 0.68692 0.0
H1096 H 0.28786 0.89295 0.67292 0.0
C1097 C 0.40084 0.91007 0.75317 0.0
C1098 C 0.42636 0.93807 0.71781 0.0
C1099 C 0.34159 0.83397 0.61148 0.0
C1100 C 0.31788 0.83856 0.59538 0.0
C1101 C 0.3011 0.86012 0.60263 0.0
C1102 C 0.30849 0.87704 0.62497 0.0
C1103 C 0.33305 0.8726 0.64006 0.0
C1104 C 0.34887 0.85114 0.63304 0.0
C1105 C 0.37451 0.84907 0.65025 0.0
C1106 C 0.37237 0.87344 0.6683 0.0
C1107 C 0.34789 0.88722 0.66285 0.0
C1108 C 0.37319 0.82217 0.66636 0.0
C1109 C 0.39878 0.85176 0.6316 0.0
C1110 C 0.30732 0.96676 0.71382 0.0
C1111 C 0.31909 0.98401 0.73419 0.0
C1112 C 0.34742 0.98272 0.74004 0.0
C1113 C 0.36317 0.96307 0.72864 0.0
C1114 C 0.35091 0.94434 0.71067 0.0
C1115 C 0.32396 0.94725 0.70192 0.0
C1116 C 0.31648 0.92747 0.6792 0.0
C1117 C 0.34234 0.91074 0.67832 0.0
C1118 C 0.36221 0.92065 0.69745 0.0
C1119 C 0.29184 0.91011 0.68688 0.0
C1120 C 0.31125 0.9439 0.65299 0.0
H1121 H 0.42437 0.83422 0.6765 0.0
H1122 H 0.46099 0.89484 0.74987 0.0
H1123 H 0.44402 0.93408 0.70539 0.0
H1124 H 0.41388 0.95259 0.70572 0.0
H1125 H 0.43433 0.94813 0.73672 0.0
H1126 H 0.39254 0.88954 0.75726 0.0
H1127 H 0.41811 0.9141 0.76801 0.0
H1128 H 0.38464 0.92434 0.75727 0.0
H1129 H 0.35473 0.81733 0.60745 0.0
H1130 H 0.28253 0.86423 0.59085 0.0
H1131 H 0.29496 0.89298 0.62961 0.0
H1132 H 0.35185 0.81596 0.66975 0.0
H1133 H 0.38258 0.80542 0.65541 0.0
H1134 H 0.38292 0.82382 0.68695 0.0
H1135 H 0.3939 0.86557 0.61436 0.0
H1136 H 0.41717 0.86084 0.64185 0.0
H1137 H 0.404 0.83187 0.62303 0.0
H1138 H 0.46587 0.82314 0.70063 0.0
C1139 C 0.43136 0.84784 0.69225 0.0
C1140 C 0.7404 0.9303 0.72872 0.0
C1141 C 0.72886 0.94245 0.75098 0.0
C1142 C 0.7048 0.93087 0.76051 0.0
C1143 C 0.70359 0.89717 0.72452 0.0
C1144 C 0.72739 0.90826 0.71574 0.0
C1145 C 0.73627 0.89512 0.69048 0.0
H1146 H 0.71411 0.80865 0.58627 0.0
C1147 C 0.6948 0.87523 0.70527 0.0
C1148 C 0.7138 0.87426 0.68522 0.0
H1149 H 0.77993 0.86625 0.6015 0.0
H1150 H 0.76175 0.8787 0.64341 0.0
H1151 H 0.71212 0.78702 0.6518 0.0
H1152 H 0.66581 0.8478 0.60743 0.0
H1153 H 0.64424 0.8267 0.6257 0.0
H1154 H 0.66276 0.81254 0.59887 0.0
H1155 H 0.68943 0.77847 0.62338 0.0
H1156 H 0.67703 0.7831 0.65657 0.0
C1157 C 0.76404 0.88169 0.69723 0.0
C1158 C 0.73655 0.917 0.66795 0.0
C1159 C 0.60776 0.82234 0.7196 0.0
C1160 C 0.5928 0.80266 0.70453 0.0
C1161 C 0.60325 0.79282 0.68056 0.0
C1162 C 0.62831 0.8027 0.67168 0.0
C1163 C 0.6428 0.82295 0.68672 0.0
C1164 C 0.63239 0.83225 0.71038 0.0
C1165 C 0.64935 0.85471 0.72326 0.0
C1166 C 0.67203 0.8572 0.70388 0.0
C1167 C 0.66832 0.83858 0.68231 0.0
C1168 C 0.65994 0.84523 0.75161 0.0
C1169 C 0.6319 0.88052 0.72352 0.0
C1170 C 0.72453 0.82383 0.59884 0.0
C1171 C 0.74842 0.83678 0.59028 0.0
C1172 C 0.76132 0.85643 0.6072 0.0
C1173 C 0.75072 0.86356 0.63173 0.0
C1174 C 0.72657 0.85125 0.6397 0.0
C1175 C 0.71388 0.83152 0.62362 0.0
C1176 C 0.68816 0.82108 0.63587 0.0
C1177 C 0.6876 0.83804 0.66167 0.0
C1178 C 0.71025 0.85566 0.66347 0.0
C1179 C 0.69162 0.79074 0.64218 0.0
C1180 C 0.66383 0.82712 0.61597 0.0
H1181 H 0.67381 0.90059 0.75551 0.0
H1182 H 0.75912 0.93789 0.721 0.0
H1183 H 0.72189 0.93333 0.67154 0.0
H1184 H 0.73001 0.90902 0.64776 0.0
H1185 H 0.75696 0.92663 0.66695 0.0
H1186 H 0.76507 0.87353 0.71819 0.0
H1187 H 0.78107 0.89645 0.69571 0.0
H1188 H 0.76762 0.86404 0.68428 0.0
H1189 H 0.59985 0.83067 0.73779 0.0
H1190 H 0.59179 0.77795 0.66844 0.0
H1191 H 0.63519 0.79464 0.65317 0.0
H1192 H 0.66702 0.82401 0.7508 0.0
H1193 H 0.64365 0.84599 0.76625 0.0
H1194 H 0.67757 0.85721 0.75972 0.0
H1195 H 0.61691 0.88088 0.70593 0.0
H1196 H 0.64404 0.89929 0.72159 0.0
H1197 H 0.62039 0.88163 0.74216 0.0
H1198 H 0.69534 0.93962 0.77761 0.0
C1199 C 0.6922 0.90827 0.74749 0.0
C1200 C 0.73199 0.81834 0.44093 0.0
C1201 C 0.72071 0.7952 0.45274 0.0
C1202 C 0.69891 0.78156 0.439 0.0
C1203 C 0.6985 0.81555 0.40327 0.0
C1204 C 0.72073 0.82806 0.4163 0.0
C1205 C 0.72974 0.85309 0.40173 0.0
H1206 H 0.70741 0.94558 0.30255 0.0
C1207 C 0.69033 0.83229 0.37933 0.0
C1208 C 0.70865 0.85418 0.37824 0.0
H1209 H 0.77416 0.9422 0.36277 0.0
H1210 H 0.75601 0.90096 0.3802 0.0
H1211 H 0.65989 0.92546 0.34238 0.0
H1212 H 0.70763 0.88007 0.28776 0.0
H1213 H 0.67312 0.87031 0.28354 0.0
H1214 H 0.68319 0.90445 0.27578 0.0
H1215 H 0.65642 0.92983 0.30636 0.0
H1216 H 0.63869 0.90304 0.32296 0.0
C1217 C 0.72767 0.8775 0.4211 0.0
C1218 C 0.75867 0.84827 0.39205 0.0
C1219 C 0.60394 0.80776 0.32495 0.0
C1220 C 0.58853 0.81969 0.3035 0.0
C1221 C 0.59899 0.84316 0.29144 0.0
C1222 C 0.62395 0.85488 0.30147 0.0
C1223 C 0.6385 0.84292 0.32369 0.0
C1224 C 0.62832 0.81953 0.33469 0.0
C1225 C 0.64541 0.80936 0.35841 0.0
C1226 C 0.66788 0.83045 0.36018 0.0
C1227 C 0.66395 0.8502 0.33989 0.0
C1228 C 0.62801 0.80972 0.3836 0.0
C1229 C 0.6562 0.78116 0.35116 0.0
C1230 C 0.71825 0.93592 0.31936 0.0
C1231 C 0.74226 0.94769 0.33136 0.0
C1232 C 0.75544 0.93421 0.35336 0.0
C1233 C 0.74495 0.90999 0.36341 0.0
C1234 C 0.72086 0.89878 0.35151 0.0
C1235 C 0.70802 0.91154 0.32968 0.0
C1236 C 0.68279 0.89623 0.31945 0.0
C1237 C 0.68278 0.87225 0.33869 0.0
C1238 C 0.70507 0.87404 0.3576 0.0
C1239 C 0.65802 0.91451 0.32273 0.0
C1240 C 0.68663 0.88734 0.29 0.0
H1241 H 0.67072 0.78069 0.40502 0.0
H1242 H 0.74879 0.8292 0.45117 0.0
H1243 H 0.76182 0.82652 0.38768 0.0
H1244 H 0.76239 0.85869 0.37283 0.0
H1245 H 0.77448 0.85464 0.40765 0.0
H1246 H 0.70903 0.87575 0.43273 0.0
H1247 H 0.74541 0.87855 0.43587 0.0
H1248 H 0.72595 0.89703 0.4105 0.0
H1249 H 0.59703 0.78946 0.33462 0.0
H1250 H 0.58769 0.85271 0.27482 0.0
H1251 H 0.63082 0.87297 0.29182 0.0
H1252 H 0.61392 0.82708 0.38282 0.0
H1253 H 0.61553 0.79094 0.38486 0.0
H1254 H 0.6402 0.81245 0.40276 0.0
H1255 H 0.66072 0.78013 0.32941 0.0
H1256 H 0.67557 0.7764 0.36222 0.0
H1257 H 0.64102 0.765 0.355 0.0
H1258 H 0.68986 0.76381 0.44788 0.0
C1259 C 0.68777 0.79158 0.41427 0.0
C1260 C 0.72601 0.10169 0.31746 0.0
C1261 C 0.71942 0.0904 0.29187 0.0
C1262 C 0.69961 0.10335 0.27501 0.0
C1263 C 0.69575 0.13923 0.30889 0.0
C1264 C 0.71486 0.12599 0.32506 0.0
C1265 C 0.72411 0.14163 0.34977 0.0
H1266 H 0.72385 0.25305 0.42714 0.0
C1267 C 0.68981 0.1651 0.32308 0.0
C1268 C 0.7068 0.16645 0.34669 0.0
H1269 H 0.77359 0.18199 0.4359 0.0
H1270 H 0.75025 0.16192 0.39752 0.0
H1271 H 0.66605 0.21716 0.41113 0.0
H1272 H 0.72258 0.25725 0.3597 0.0
H1273 H 0.6886 0.26606 0.35087 0.0
H1274 H 0.70349 0.27558 0.38345 0.0
H1275 H 0.66981 0.25332 0.41064 0.0
H1276 H 0.64852 0.23566 0.38552 0.0
C1277 C 0.71691 0.1247 0.37485 0.0
C1278 C 0.75488 0.14844 0.34777 0.0
C1279 C 0.61501 0.22621 0.28627 0.0
C1280 C 0.6033 0.25039 0.29492 0.0
C1281 C 0.61474 0.26295 0.31853 0.0
C1282 C 0.63705 0.25126 0.33326 0.0
C1283 C 0.64801 0.22674 0.32436 0.0
C1284 C 0.63685 0.2148 0.30106 0.0
C1285 C 0.65052 0.18889 0.29406 0.0
C1286 C 0.67126 0.18642 0.31747 0.0
C1287 C 0.67014 0.20882 0.33521 0.0
C1288 C 0.62924 0.16561 0.29369 0.0
C1289 C 0.66419 0.19284 0.26691 0.0
C1290 C 0.72964 0.23317 0.42063 0.0
C1291 C 0.75116 0.21932 0.43446 0.0
C1292 C 0.75781 0.19346 0.42538 0.0
C1293 C 0.74402 0.18172 0.40294 0.0
C1294 C 0.72327 0.19589 0.38886 0.0
C1295 C 0.71601 0.22106 0.39778 0.0
C1296 C 0.69272 0.23236 0.38017 0.0
C1297 C 0.68833 0.2103 0.35866 0.0
C1298 C 0.70635 0.18909 0.36421 0.0
C1299 C 0.66789 0.235 0.39767 0.0
C1300 C 0.70215 0.25936 0.3679 0.0
H1301 H 0.67287 0.13689 0.26978 0.0
H1302 H 0.74108 0.09263 0.33122 0.0
H1303 H 0.76099 0.14838 0.32646 0.0
H1304 H 0.76043 0.16903 0.35506 0.0
H1305 H 0.76774 0.13355 0.35904 0.0
H1306 H 0.69742 0.11338 0.37101 0.0
H1307 H 0.73288 0.10971 0.38006 0.0
H1308 H 0.71365 0.13723 0.39284 0.0
H1309 H 0.60724 0.21588 0.26814 0.0
H1310 H 0.60635 0.28157 0.32567 0.0
H1311 H 0.64493 0.26168 0.35106 0.0
H1312 H 0.61669 0.16685 0.31164 0.0
H1313 H 0.61538 0.16661 0.2753 0.0
H1314 H 0.6385 0.14548 0.29448 0.0
H1315 H 0.67283 0.21365 0.26537 0.0
H1316 H 0.68153 0.17929 0.26474 0.0
H1317 H 0.64933 0.1897 0.24951 0.0
H1318 H 0.69417 0.0953 0.2551 0.0
C1319 C 0.68756 0.12765 0.2835 0.0
C1320 C 0.31148 0.12 0.35276 0.0
C1321 C 0.31523 0.10213 0.33114 0.0
C1322 C 0.33735 0.10697 0.31469 0.0
C1323 C 0.35054 0.14703 0.34061 0.0
C1324 C 0.32935 0.14208 0.35714 0.0
C1325 C 0.32839 0.16273 0.37936 0.0
H1326 H 0.37728 0.27751 0.43998 0.0
C1327 C 0.36504 0.17185 0.35036 0.0
C1328 C 0.35232 0.18106 0.37319 0.0
H1329 H 0.3114 0.22511 0.46287 0.0
H1330 H 0.31906 0.19548 0.42597 0.0
H1331 H 0.36325 0.27354 0.37343 0.0
H1332 H 0.41833 0.22819 0.42624 0.0
H1333 H 0.43449 0.23652 0.39647 0.0
H1334 H 0.42451 0.26314 0.41857 0.0
H1335 H 0.39257 0.28885 0.39066 0.0
H1336 H 0.39512 0.27132 0.35909 0.0
C1337 C 0.301 0.1776 0.37577 0.0
C1338 C 0.33296 0.148 0.40684 0.0
C1339 C 0.44358 0.20833 0.29824 0.0
C1340 C 0.46125 0.23085 0.30151 0.0
C1341 C 0.45798 0.24815 0.32389 0.0
C1342 C 0.43757 0.2433 0.34217 0.0
C1343 C 0.42008 0.22081 0.33838 0.0
C1344 C 0.42345 0.20372 0.31675 0.0
C1345 C 0.40344 0.18053 0.31591 0.0
C1346 C 0.38739 0.18653 0.34046 0.0
C1347 C 0.39703 0.21024 0.35365 0.0
C1348 C 0.38568 0.18256 0.28924 0.0
C1349 C 0.4195 0.15391 0.31925 0.0
C1350 C 0.36454 0.25966 0.43688 0.0
C1351 C 0.34381 0.25363 0.45467 0.0
C1352 C 0.32781 0.23007 0.45001 0.0
C1353 C 0.33216 0.21289 0.4283 0.0
C1354 C 0.35281 0.21905 0.41077 0.0
C1355 C 0.3688 0.24197 0.4152 0.0
C1356 C 0.39023 0.24456 0.39455 0.0
C1357 C 0.38417 0.21959 0.37702 0.0
C1358 C 0.36205 0.20492 0.38669 0.0
C1359 C 0.3853 0.27101 0.37857 0.0
C1360 C 0.41848 0.24324 0.40957 0.0
H1361 H 0.3711 0.13171 0.30585 0.0
H1362 H 0.29487 0.11719 0.36592 0.0
H1363 H 0.34547 0.12965 0.40478 0.0
H1364 H 0.34449 0.16047 0.42214 0.0
H1365 H 0.31338 0.14144 0.41501 0.0
H1366 H 0.29558 0.18116 0.35398 0.0
H1367 H 0.28427 0.16549 0.38414 0.0
H1368 H 0.30151 0.19786 0.3851 0.0
H1369 H 0.44507 0.19451 0.28151 0.0
H1370 H 0.47123 0.26548 0.32759 0.0
H1371 H 0.4362 0.25726 0.35861 0.0
H1372 H 0.381 0.204 0.28443 0.0
H1373 H 0.3963 0.1741 0.27199 0.0
H1374 H 0.36569 0.1724 0.29025 0.0
H1375 H 0.43875 0.15713 0.33166 0.0
H1376 H 0.4084 0.13814 0.33021 0.0
H1377 H 0.42488 0.14578 0.29936 0.0
H1378 H 0.34142 0.0935 0.29827 0.0
C1379 C 0.35486 0.12923 0.31924 0.0
C1380 C 0.30666 0.8079 0.42949 0.0
C1381 C 0.28591 0.81959 0.44385 0.0
C1382 C 0.27328 0.84291 0.43327 0.0
C1383 C 0.3043 0.84371 0.39628 0.0
C1384 C 0.31568 0.82028 0.4063 0.0
C1385 C 0.33949 0.8114 0.39098 0.0
H1386 H 0.4347 0.83811 0.30159 0.0
C1387 C 0.32039 0.85235 0.37308 0.0
C1388 C 0.34102 0.83361 0.37006 0.0
H1389 H 0.42595 0.76862 0.35359 0.0
H1390 H 0.38399 0.78521 0.36802 0.0
H1391 H 0.41189 0.88465 0.34249 0.0
H1392 H 0.36698 0.8372 0.28104 0.0
H1393 H 0.35812 0.87157 0.27894 0.0
H1394 H 0.39222 0.86184 0.2724 0.0
H1395 H 0.41896 0.88704 0.30732 0.0
H1396 H 0.39142 0.90521 0.32073 0.0
C1397 C 0.36486 0.81144 0.41096 0.0
C1398 C 0.33219 0.78359 0.3778 0.0
C1399 C 0.29621 0.9391 0.32526 0.0
C1400 C 0.30736 0.95461 0.30474 0.0
C1401 C 0.33001 0.94456 0.29192 0.0
C1402 C 0.34179 0.9198 0.30038 0.0
C1403 C 0.33063 0.90505 0.32169 0.0
C1404 C 0.30794 0.91488 0.33337 0.0
C1405 C 0.29852 0.89763 0.35597 0.0
C1406 C 0.31886 0.87523 0.35592 0.0
C1407 C 0.33796 0.87946 0.33599 0.0
C1408 C 0.30109 0.91445 0.38248 0.0
C1409 C 0.26937 0.88718 0.34823 0.0
C1410 C 0.42362 0.82652 0.31602 0.0
C1411 C 0.4344 0.80235 0.32714 0.0
C1412 C 0.41894 0.7877 0.34545 0.0
C1413 C 0.39427 0.79731 0.35372 0.0
C1414 C 0.38452 0.82202 0.34378 0.0
C1415 C 0.39854 0.83594 0.32461 0.0
C1416 C 0.38365 0.86123 0.31555 0.0
C1417 C 0.35932 0.86058 0.33344 0.0
C1418 C 0.36034 0.83759 0.35007 0.0
C1419 C 0.40241 0.88597 0.32167 0.0
C1420 C 0.37483 0.85805 0.28533 0.0
H1421 H 0.27237 0.87308 0.40259 0.0
H1422 H 0.31668 0.78974 0.43669 0.0
H1423 H 0.30991 0.78128 0.37338 0.0
H1424 H 0.34112 0.78104 0.35794 0.0
H1425 H 0.33862 0.76668 0.39128 0.0
H1426 H 0.36405 0.82827 0.42581 0.0
H1427 H 0.36615 0.79227 0.42256 0.0
H1428 H 0.38414 0.81488 0.40111 0.0
H1429 H 0.27859 0.94584 0.33542 0.0
H1430 H 0.33898 0.95609 0.27601 0.0
H1431 H 0.35934 0.91328 0.29037 0.0
H1432 H 0.31795 0.92962 0.38197 0.0
H1433 H 0.28214 0.92558 0.38572 0.0
H1434 H 0.30625 0.90206 0.40051 0.0
H1435 H 0.26739 0.88147 0.32648 0.0
H1436 H 0.26383 0.86875 0.35934 0.0
H1437 H 0.25415 0.90296 0.3517 0.0
H1438 H 0.2572 0.85227 0.44385 0.0
C1439 C 0.28233 0.85501 0.40945 0.0
C1440 C 0.74036 0.62164 0.22601 0.0
C1441 C 0.76179 0.60992 0.21266 0.0
C1442 C 0.76871 0.62093 0.18756 0.0
C1443 C 0.73229 0.65341 0.18925 0.0
C1444 C 0.72584 0.64284 0.21391 0.0
C1445 C 0.70139 0.65578 0.22492 0.0
H1446 H 0.59706 0.74191 0.21048 0.0
C1447 C 0.7122 0.67457 0.18194 0.0
C1448 C 0.69393 0.67575 0.20267 0.0
H1449 H 0.61782 0.68845 0.27734 0.0
H1450 H 0.65666 0.67346 0.25489 0.0
H1451 H 0.61098 0.70071 0.16254 0.0
H1452 H 0.6608 0.76278 0.20269 0.0
H1453 H 0.6637 0.76519 0.16748 0.0
H1454 H 0.63126 0.77049 0.18149 0.0
H1455 H 0.60437 0.73602 0.1577 0.0
H1456 H 0.62868 0.71873 0.13823 0.0
C1457 C 0.67914 0.63354 0.2276 0.0
C1458 C 0.7105 0.67023 0.25176 0.0
C1459 C 0.72025 0.72817 0.09513 0.0
C1460 C 0.70411 0.74789 0.08203 0.0
C1461 C 0.68009 0.75585 0.09386 0.0
C1462 C 0.67257 0.74476 0.11859 0.0
C1463 C 0.68908 0.72521 0.13157 0.0
C1464 C 0.71229 0.71699 0.11956 0.0
C1465 C 0.72662 0.69493 0.13526 0.0
C1466 C 0.70883 0.69192 0.15919 0.0
C1467 C 0.68684 0.70979 0.15711 0.0
C1468 C 0.72596 0.66911 0.11747 0.0
C1469 C 0.75554 0.70524 0.14403 0.0
C1470 C 0.61003 0.72711 0.22042 0.0
C1471 C 0.60391 0.71624 0.24585 0.0
C1472 C 0.62147 0.69686 0.2577 0.0
C1473 C 0.64429 0.68826 0.24463 0.0
C1474 C 0.64993 0.69904 0.21926 0.0
C1475 C 0.63312 0.7183 0.20759 0.0
C1476 C 0.64286 0.7277 0.18066 0.0
C1477 C 0.66811 0.71067 0.17811 0.0
C1478 C 0.67191 0.69389 0.20081 0.0
C1479 C 0.6206 0.72067 0.15848 0.0
C1480 C 0.64994 0.75819 0.18293 0.0
H1481 H 0.76031 0.64992 0.15671 0.0
H1482 H 0.73452 0.61444 0.24547 0.0
H1483 H 0.73165 0.67828 0.25106 0.0
H1484 H 0.6982 0.68811 0.25586 0.0
H1485 H 0.70996 0.65615 0.26918 0.0
H1486 H 0.68028 0.61796 0.21151 0.0
H1487 H 0.68147 0.62308 0.24739 0.0
H1488 H 0.65831 0.64133 0.22496 0.0
H1489 H 0.73847 0.72118 0.08624 0.0
H1490 H 0.66735 0.77103 0.08418 0.0
H1491 H 0.65418 0.7518 0.12665 0.0
H1492 H 0.70769 0.66848 0.10329 0.0
H1493 H 0.74411 0.66819 0.10516 0.0
H1494 H 0.72446 0.65035 0.12943 0.0
H1495 H 0.75493 0.72638 0.1516 0.0
H1496 H 0.76507 0.69344 0.16076 0.0
H1497 H 0.76902 0.70499 0.12676 0.0
H1498 H 0.78497 0.6125 0.1766 0.0
C1499 C 0.75417 0.64261 0.17588 0.0
C1500 C 0.35957 0.6053 0.23114 0.0
C1501 C 0.33385 0.59264 0.22882 0.0
C1502 C 0.31524 0.60159 0.20805 0.0
C1503 C 0.34776 0.63565 0.1938 0.0
C1504 C 0.36584 0.62669 0.21399 0.0
C1505 C 0.39163 0.64312 0.21604 0.0
H1506 H 0.45361 0.76169 0.19697 0.0
C1507 C 0.36068 0.65912 0.18031 0.0
C1508 C 0.38637 0.6635 0.19358 0.0
H1509 H 0.4811 0.69354 0.24522 0.0
H1510 H 0.44645 0.66532 0.22421 0.0
H1511 H 0.38733 0.75334 0.19327 0.0
H1512 H 0.45039 0.7262 0.14486 0.0
H1513 H 0.42072 0.71783 0.12494 0.0
H1514 H 0.42876 0.75273 0.13317 0.0
H1515 H 0.4102 0.7732 0.17389 0.0
H1516 H 0.3797 0.75907 0.1582 0.0
C1517 C 0.39349 0.65646 0.24444 0.0
C1518 C 0.41568 0.62439 0.21036 0.0
C1519 C 0.31291 0.71041 0.10106 0.0
C1520 C 0.32183 0.73273 0.08587 0.0
C1521 C 0.34835 0.74315 0.09152 0.0
C1522 C 0.36495 0.73328 0.11266 0.0
C1523 C 0.35551 0.71233 0.12855 0.0
C1524 C 0.33043 0.70032 0.12228 0.0
C1525 C 0.32546 0.67679 0.14108 0.0
C1526 C 0.35189 0.67673 0.15881 0.0
C1527 C 0.36885 0.69843 0.15169 0.0
C1528 C 0.30068 0.68336 0.15759 0.0
C1529 C 0.3218 0.65082 0.12394 0.0
C1530 C 0.45208 0.74068 0.20283 0.0
C1531 C 0.46912 0.73034 0.224 0.0
C1532 C 0.46747 0.70247 0.22994 0.0
C1533 C 0.44719 0.68598 0.21788 0.0
C1534 C 0.42808 0.69725 0.19957 0.0
C1535 C 0.43186 0.72338 0.19052 0.0
C1536 C 0.4122 0.72938 0.16693 0.0
C1537 C 0.39378 0.70404 0.1666 0.0
C1538 C 0.40298 0.68582 0.18642 0.0
C1539 C 0.39646 0.75518 0.17329 0.0
C1540 C 0.42873 0.73176 0.14115 0.0
H1541 H 0.30706 0.62877 0.17532 0.0
H1542 H 0.37476 0.59906 0.24625 0.0
H1543 H 0.40878 0.60568 0.19941 0.0
H1544 H 0.4303 0.63411 0.197 0.0
H1545 H 0.42665 0.61807 0.22942 0.0
H1546 H 0.37383 0.66581 0.24886 0.0
H1547 H 0.39825 0.64123 0.26039 0.0
H1548 H 0.40879 0.67277 0.24675 0.0
H1549 H 0.29279 0.70175 0.0972 0.0
H1550 H 0.35628 0.75979 0.07992 0.0
H1551 H 0.38436 0.74279 0.11617 0.0
H1552 H 0.3015 0.70485 0.16425 0.0
H1553 H 0.28142 0.68007 0.14529 0.0
H1554 H 0.29994 0.67137 0.17629 0.0
H1555 H 0.33775 0.64976 0.10894 0.0
H1556 H 0.32371 0.63227 0.13616 0.0
H1557 H 0.3017 0.65041 0.11268 0.0
H1558 H 0.29519 0.59255 0.20548 0.0
C1559 C 0.3221 0.62286 0.19052 0.0
C1560 C 0.45721 0.34397 0.22801 0.0
C1561 C 0.47278 0.32534 0.21388 0.0
C1562 C 0.46375 0.31825 0.18719 0.0
C1563 C 0.42301 0.34415 0.19031 0.0
C1564 C 0.43245 0.35338 0.21553 0.0
C1565 C 0.41301 0.37368 0.2264 0.0
H1566 H 0.29409 0.44358 0.20925 0.0
C1567 C 0.3961 0.35578 0.18338 0.0
C1568 C 0.39017 0.37378 0.20412 0.0
H1569 H 0.35617 0.45019 0.27418 0.0
H1570 H 0.38181 0.41558 0.25422 0.0
H1571 H 0.29382 0.37938 0.20834 0.0
H1572 H 0.33513 0.4379 0.16072 0.0
H1573 H 0.3223 0.4124 0.13862 0.0
H1574 H 0.29913 0.43179 0.15755 0.0
H1575 H 0.27694 0.3963 0.18037 0.0
H1576 H 0.29485 0.36516 0.17603 0.0
C1577 C 0.40293 0.3628 0.2534 0.0
C1578 C 0.42804 0.40132 0.22886 0.0
C1579 C 0.33887 0.31914 0.10175 0.0
C1580 C 0.31271 0.32547 0.09097 0.0
C1581 C 0.29858 0.34653 0.10308 0.0
C1582 C 0.30978 0.36062 0.12556 0.0
C1583 C 0.3356 0.35385 0.13642 0.0
C1584 C 0.3499 0.33367 0.12441 0.0
C1585 C 0.37747 0.33003 0.1385 0.0
C1586 C 0.37668 0.35047 0.16158 0.0
C1587 C 0.35204 0.36434 0.16014 0.0
C1588 C 0.37897 0.30063 0.14902 0.0
C1589 C 0.39946 0.33753 0.11835 0.0
C1590 C 0.3132 0.43763 0.2191 0.0
C1591 C 0.32293 0.45016 0.24329 0.0
C1592 C 0.34795 0.44135 0.25544 0.0
C1593 C 0.36312 0.42114 0.24379 0.0
C1594 C 0.35352 0.40919 0.21949 0.0
C1595 C 0.32881 0.41723 0.20766 0.0
C1596 C 0.32163 0.40153 0.18219 0.0
C1597 C 0.34638 0.38364 0.18032 0.0
C1598 C 0.36516 0.38819 0.20229 0.0
C1599 C 0.29538 0.3848 0.18667 0.0
C1600 C 0.31918 0.42181 0.15841 0.0
H1601 H 0.43353 0.32035 0.15557 0.0
H1602 H 0.46359 0.3503 0.2483 0.0
H1603 H 0.44202 0.40414 0.21215 0.0
H1604 H 0.41419 0.4186 0.2271 0.0
H1605 H 0.44038 0.40289 0.24823 0.0
H1606 H 0.39786 0.34087 0.25168 0.0
H1607 H 0.4188 0.36543 0.26999 0.0
H1608 H 0.38418 0.37255 0.25936 0.0
H1609 H 0.35044 0.30334 0.09282 0.0
H1610 H 0.27848 0.3521 0.09535 0.0
H1611 H 0.29774 0.37621 0.13369 0.0
H1612 H 0.36046 0.2953 0.15988 0.0
H1613 H 0.38037 0.28617 0.132 0.0
H1614 H 0.39632 0.29724 0.16349 0.0
H1615 H 0.39109 0.34985 0.10116 0.0
H1616 H 0.416 0.35026 0.12788 0.0
H1617 H 0.40835 0.31919 0.10963 0.0
H1618 H 0.47536 0.3047 0.17525 0.0
C1619 C 0.43921 0.32732 0.17556 0.0
C1620 C 0.74805 0.45951 0.20548 0.0
C1621 C 0.7395 0.46811 0.23052 0.0
C1622 C 0.71669 0.45518 0.24118 0.0
C1623 C 0.7135 0.42404 0.20273 0.0
C1624 C 0.73536 0.43754 0.19241 0.0
C1625 C 0.74521 0.42472 0.16758 0.0
H1626 H 0.74584 0.32141 0.08071 0.0
C1627 C 0.70682 0.4006 0.18446 0.0
C1628 C 0.72572 0.40105 0.1642 0.0
H1629 H 0.79957 0.39145 0.08794 0.0
H1630 H 0.77282 0.40969 0.1218 0.0
H1631 H 0.7391 0.31209 0.1451 0.0
H1632 H 0.68989 0.35623 0.08608 0.0
H1633 H 0.66809 0.33972 0.10787 0.0
H1634 H 0.68941 0.31997 0.08712 0.0
H1635 H 0.72021 0.29593 0.11742 0.0
H1636 H 0.70454 0.30367 0.14841 0.0
C1637 C 0.775 0.41566 0.17392 0.0
C1638 C 0.74142 0.44522 0.14401 0.0
C1639 C 0.62675 0.33694 0.20021 0.0
C1640 C 0.61618 0.31351 0.18677 0.0
C1641 C 0.62967 0.30417 0.16414 0.0
C1642 C 0.65279 0.31766 0.15515 0.0
C1643 C 0.66295 0.34084 0.16884 0.0
C1644 C 0.64996 0.35015 0.19101 0.0
C1645 C 0.66395 0.37492 0.20335 0.0
C1646 C 0.68675 0.37954 0.18431 0.0
C1647 C 0.68627 0.35925 0.16422 0.0
C1648 C 0.67497 0.3677 0.23221 0.0
C1649 C 0.64371 0.39846 0.20241 0.0
C1650 C 0.75202 0.34056 0.08977 0.0
C1651 C 0.77539 0.35472 0.08157 0.0
C1652 C 0.78189 0.37998 0.09349 0.0
C1653 C 0.76631 0.39054 0.11355 0.0
C1654 C 0.74397 0.3757 0.12239 0.0
C1655 C 0.73664 0.35145 0.11021 0.0
C1656 C 0.71159 0.33919 0.12209 0.0
C1657 C 0.70618 0.35953 0.1443 0.0
C1658 C 0.72539 0.38063 0.14421 0.0
C1659 C 0.719 0.31114 0.1338 0.0
C1660 C 0.68845 0.33847 0.09972 0.0
H1661 H 0.68653 0.42376 0.23645 0.0
H1662 H 0.76536 0.46893 0.19644 0.0
H1663 H 0.72303 0.45762 0.14626 0.0
H1664 H 0.73801 0.43534 0.12406 0.0
H1665 H 0.75912 0.45932 0.14338 0.0
H1666 H 0.77927 0.4123 0.19594 0.0
H1667 H 0.78983 0.4311 0.16736 0.0
H1668 H 0.77953 0.39601 0.16468 0.0
H1669 H 0.61729 0.34511 0.21754 0.0
H1670 H 0.62262 0.28624 0.15332 0.0
H1671 H 0.66202 0.30938 0.13792 0.0
H1672 H 0.68309 0.34685 0.23282 0.0
H1673 H 0.65867 0.36871 0.24681 0.0
H1674 H 0.69211 0.38086 0.23939 0.0
H1675 H 0.63285 0.39954 0.18218 0.0
H1676 H 0.65377 0.41832 0.20576 0.0
H1677 H 0.62828 0.39566 0.21775 0.0
H1678 H 0.7096 0.46147 0.26049 0.0
C1679 C 0.70353 0.43318 0.22731 0.0
C1680 C 0.78044 0.33075 0.93895 0.0
C1681 C 0.77285 0.30768 0.95352 0.0
C1682 C 0.74729 0.29552 0.94694 0.0
C1683 C 0.73813 0.32963 0.91181 0.0
C1684 C 0.76307 0.34128 0.91871 0.0
C1685 C 0.7689 0.36618 0.90273 0.0
H1686 H 0.73249 0.45905 0.80909 0.0
C1687 C 0.72545 0.34638 0.88955 0.0
C1688 C 0.74346 0.36775 0.88445 0.0
H1689 H 0.8061 0.45427 0.86053 0.0
H1690 H 0.79021 0.4135 0.87967 0.0
H1691 H 0.68876 0.43693 0.8546 0.0
H1692 H 0.73089 0.39192 0.79487 0.0
H1693 H 0.69626 0.38241 0.79462 0.0
H1694 H 0.70556 0.41629 0.78512 0.0
H1695 H 0.68347 0.44325 0.81898 0.0
H1696 H 0.66636 0.41567 0.83481 0.0
C1697 C 0.77166 0.39042 0.92273 0.0
C1698 C 0.79442 0.36087 0.88652 0.0
C1699 C 0.63418 0.31824 0.84627 0.0
C1700 C 0.61758 0.32737 0.82422 0.0
C1701 C 0.62584 0.3509 0.81058 0.0
C1702 C 0.6503 0.36474 0.81877 0.0
C1703 C 0.66683 0.35478 0.84062 0.0
C1704 C 0.65844 0.33178 0.85384 0.0
C1705 C 0.67845 0.32288 0.87585 0.0
C1706 C 0.70051 0.34418 0.87391 0.0
C1707 C 0.69377 0.36322 0.8534 0.0
C1708 C 0.66466 0.32429 0.90316 0.0
C1709 C 0.68853 0.29441 0.86863 0.0
C1710 C 0.74517 0.44917 0.82446 0.0
C1711 C 0.7706 0.46069 0.83355 0.0
C1712 C 0.78628 0.44676 0.85349 0.0
C1713 C 0.77701 0.42267 0.86459 0.0
C1714 C 0.75163 0.41173 0.85585 0.0
C1715 C 0.73612 0.42464 0.8359 0.0
C1716 C 0.70995 0.40892 0.82893 0.0
C1717 C 0.71217 0.3852 0.84871 0.0
C1718 C 0.73679 0.38721 0.86423 0.0
C1719 C 0.6857 0.42709 0.83446 0.0
C1720 C 0.71043 0.39942 0.79926 0.0
H1721 H 0.71067 0.29629 0.92187 0.0
H1722 H 0.79969 0.34108 0.9433 0.0
H1723 H 0.79558 0.3392 0.88076 0.0
H1724 H 0.79423 0.37183 0.86707 0.0
H1725 H 0.81337 0.36618 0.89858 0.0
H1726 H 0.75921 0.3871 0.94056 0.0
H1727 H 0.79304 0.39354 0.9304 0.0
H1728 H 0.76399 0.4095 0.91384 0.0
H1729 H 0.62888 0.30021 0.85731 0.0
H1730 H 0.61359 0.35843 0.7935 0.0
H1731 H 0.65558 0.3825 0.80767 0.0
H1732 H 0.6515 0.34231 0.9039 0.0
H1733 H 0.65172 0.3061 0.9062 0.0
H1734 H 0.67938 0.32654 0.92061 0.0
H1735 H 0.69125 0.2927 0.84655 0.0
H1736 H 0.70856 0.28981 0.87836 0.0
H1737 H 0.67374 0.27848 0.87421 0.0
H1738 H 0.74079 0.27782 0.95784 0.0
C1739 C 0.72989 0.30635 0.92607 0.0
C1740 C 0.64343 0.74579 0.81183 0.0
C1741 C 0.63552 0.77063 0.82328 0.0
C1742 C 0.65163 0.78127 0.84526 0.0
C1743 C 0.6806 0.74224 0.84577 0.0
C1744 C 0.66608 0.732 0.82341 0.0
C1745 C 0.67783 0.70549 0.81434 0.0
H1746 H 0.76832 0.60452 0.84298 0.0
C1747 C 0.70126 0.72247 0.85473 0.0
C1748 C 0.69991 0.70058 0.83656 0.0
H1749 H 0.71829 0.6127 0.7693 0.0
H1750 H 0.69791 0.65305 0.78775 0.0
H1751 H 0.78695 0.66638 0.84807 0.0
H1752 H 0.7231 0.62057 0.88395 0.0
H1753 H 0.73548 0.64422 0.90818 0.0
H1754 H 0.75779 0.61855 0.89654 0.0
H1755 H 0.79302 0.6389 0.87121 0.0
H1756 H 0.78804 0.67255 0.88322 0.0
C1757 C 0.68997 0.71015 0.78658 0.0
C1758 C 0.65542 0.68339 0.81391 0.0
C1759 C 0.75399 0.74026 0.94366 0.0
C1760 C 0.76952 0.72387 0.96139 0.0
C1761 C 0.7753 0.69733 0.95348 0.0
C1762 C 0.76583 0.68741 0.92794 0.0
C1763 C 0.74977 0.704 0.91053 0.0
C1764 C 0.7439 0.72982 0.91885 0.0
C1765 C 0.7237 0.74346 0.89995 0.0
C1766 C 0.71886 0.72191 0.87832 0.0
C1767 C 0.73458 0.6991 0.88416 0.0
C1768 C 0.73766 0.76906 0.88868 0.0
C1769 C 0.69783 0.74902 0.91569 0.0
C1770 C 0.75293 0.61482 0.83062 0.0
C1771 C 0.74519 0.60541 0.80445 0.0
C1772 C 0.72469 0.6194 0.78949 0.0
C1773 C 0.7132 0.64302 0.80011 0.0
C1774 C 0.72244 0.65284 0.82585 0.0
C1775 C 0.74184 0.63839 0.84064 0.0
C1776 C 0.75029 0.65155 0.86718 0.0
C1777 C 0.7339 0.67714 0.86557 0.0
C1778 C 0.71706 0.67784 0.84159 0.0
C1779 C 0.78122 0.65763 0.86769 0.0
C1780 C 0.74146 0.63281 0.8903 0.0
H1781 H 0.685 0.77685 0.87305 0.0
H1782 H 0.6323 0.7371 0.7945 0.0
H1783 H 0.64484 0.68352 0.83319 0.0
H1784 H 0.66355 0.66291 0.81171 0.0
H1785 H 0.64006 0.6868 0.79709 0.0
H1786 H 0.70059 0.73012 0.78603 0.0
H1787 H 0.67379 0.70981 0.77009 0.0
H1788 H 0.70544 0.69518 0.7821 0.0
H1789 H 0.74827 0.76034 0.94974 0.0
H1790 H 0.78682 0.68423 0.96716 0.0
H1791 H 0.77086 0.66706 0.92292 0.0
H1792 H 0.75914 0.76499 0.88439 0.0
H1793 H 0.73777 0.78598 0.90346 0.0
H1794 H 0.72812 0.77587 0.86923 0.0
H1795 H 0.69669 0.73609 0.93397 0.0
H1796 H 0.67882 0.74416 0.9037 0.0
H1797 H 0.69734 0.77037 0.92257 0.0
H1798 H 0.64694 0.80023 0.85458 0.0
C1799 C 0.67397 0.76742 0.85631 0.0
C1800 C 0.34526 0.62335 0.82847 0.0
C1801 C 0.35483 0.61019 0.80565 0.0
C1802 C 0.37798 0.62112 0.79367 0.0
C1803 C 0.38112 0.65778 0.82593 0.0
C1804 C 0.35879 0.64711 0.83825 0.0
C1805 C 0.35177 0.66401 0.86221 0.0
H1806 H 0.37552 0.77559 0.9406 0.0
C1807 C 0.39038 0.68273 0.84036 0.0
C1808 C 0.37329 0.68651 0.86183 0.0
H1809 H 0.3153 0.71197 0.94935 0.0
H1810 H 0.33127 0.68911 0.91089 0.0
H1811 H 0.36963 0.77904 0.87496 0.0
H1812 H 0.42402 0.73552 0.9295 0.0
H1813 H 0.44309 0.74725 0.90284 0.0
H1814 H 0.42747 0.77128 0.92439 0.0
H1815 H 0.39561 0.79549 0.89607 0.0
H1816 H 0.40259 0.78226 0.8633 0.0
C1817 C 0.32278 0.67495 0.85659 0.0
C1818 C 0.35513 0.64633 0.88793 0.0
C1819 C 0.4702 0.73825 0.80622 0.0
C1820 C 0.48304 0.76249 0.81532 0.0
C1821 C 0.47344 0.77509 0.83855 0.0
C1822 C 0.45164 0.76422 0.85222 0.0
C1823 C 0.43888 0.74025 0.84286 0.0
C1824 C 0.44825 0.72755 0.82031 0.0
C1825 C 0.43211 0.70207 0.81359 0.0
C1826 C 0.41165 0.70174 0.83568 0.0
C1827 C 0.41566 0.72427 0.85274 0.0
C1828 C 0.41806 0.70561 0.78512 0.0
C1829 C 0.45169 0.67787 0.81613 0.0
C1830 C 0.36572 0.75673 0.93445 0.0
C1831 C 0.34367 0.7461 0.9484 0.0
C1832 C 0.33186 0.7213 0.93917 0.0
C1833 C 0.34131 0.70776 0.91669 0.0
C1834 C 0.36307 0.71877 0.90297 0.0
C1835 C 0.37506 0.74276 0.91202 0.0
C1836 C 0.39843 0.75105 0.89521 0.0
C1837 C 0.39837 0.72818 0.8746 0.0
C1838 C 0.37743 0.70936 0.87917 0.0
C1839 C 0.3915 0.77848 0.88172 0.0
C1840 C 0.42471 0.75156 0.9138 0.0
H1841 H 0.40833 0.65164 0.79326 0.0
H1842 H 0.32767 0.61557 0.83829 0.0
H1843 H 0.37185 0.63169 0.88618 0.0
H1844 H 0.36095 0.65823 0.90625 0.0
H1845 H 0.33627 0.63455 0.89134 0.0
H1846 H 0.31981 0.68148 0.83516 0.0
H1847 H 0.30719 0.65915 0.86032 0.0
H1848 H 0.31865 0.69299 0.8687 0.0
H1849 H 0.47691 0.72794 0.78853 0.0
H1850 H 0.48271 0.79371 0.84629 0.0
H1851 H 0.44549 0.77504 0.86958 0.0
H1852 H 0.41086 0.72667 0.78225 0.0
H1853 H 0.43229 0.7014 0.76904 0.0
H1854 H 0.39969 0.6928 0.78175 0.0
H1855 H 0.46806 0.68165 0.83207 0.0
H1856 H 0.44155 0.65903 0.8225 0.0
H1857 H 0.46157 0.6742 0.79686 0.0
H1858 H 0.38616 0.61161 0.77623 0.0
C1859 C 0.39102 0.6446 0.80358 0.0
C1860 C 0.33075 0.31975 0.93702 0.0
C1861 C 0.30691 0.33289 0.9442 0.0
C1862 C 0.29931 0.3566 0.93006 0.0
C1863 C 0.33885 0.35388 0.90293 0.0
C1864 C 0.34633 0.33055 0.91651 0.0
C1865 C 0.37238 0.31931 0.90674 0.0
H1866 H 0.47565 0.33057 0.82163 0.0
C1867 C 0.35955 0.36004 0.88306 0.0
C1868 C 0.37933 0.33979 0.88519 0.0
H1869 H 0.46476 0.26835 0.88155 0.0
H1870 H 0.42338 0.28958 0.89436 0.0
H1871 H 0.4623 0.37897 0.85879 0.0
H1872 H 0.41459 0.33272 0.79978 0.0
H1873 H 0.40534 0.36657 0.79506 0.0
H1874 H 0.44002 0.35698 0.79093 0.0
H1875 H 0.46462 0.38432 0.82318 0.0
H1876 H 0.44043 0.40208 0.84248 0.0
C1877 C 0.39382 0.31945 0.9307 0.0
C1878 C 0.36615 0.29099 0.89454 0.0
C1879 C 0.35123 0.44431 0.82381 0.0
C1880 C 0.36769 0.45564 0.80403 0.0
C1881 C 0.39131 0.44168 0.79769 0.0
C1882 C 0.39844 0.41745 0.81061 0.0
C1883 C 0.38195 0.4067 0.83036 0.0
C1884 C 0.35875 0.42003 0.83663 0.0
C1885 C 0.34385 0.40557 0.85836 0.0
C1886 C 0.36213 0.38151 0.86416 0.0
C1887 C 0.38434 0.38234 0.8476 0.0
C1888 C 0.34303 0.4247 0.88306 0.0
C1889 C 0.31555 0.39667 0.84617 0.0
C1890 C 0.46488 0.32147 0.83781 0.0
C1891 C 0.47399 0.29763 0.85058 0.0
C1892 C 0.45837 0.28657 0.87114 0.0
C1893 C 0.43432 0.299 0.87864 0.0
C1894 C 0.42566 0.32286 0.86553 0.0
C1895 C 0.44107 0.3336 0.84555 0.0
C1896 C 0.42935 0.35901 0.83366 0.0
C1897 C 0.40421 0.3619 0.84965 0.0
C1898 C 0.4019 0.3407 0.86832 0.0
C1899 C 0.45016 0.3824 0.83955 0.0
C1900 C 0.42204 0.35384 0.80323 0.0
H1901 H 0.3081 0.38521 0.89977 0.0
H1902 H 0.33722 0.30133 0.94697 0.0
H1903 H 0.34652 0.2909 0.88238 0.0
H1904 H 0.38143 0.28451 0.88051 0.0
H1905 H 0.36459 0.27557 0.91069 0.0
H1906 H 0.39227 0.33809 0.94306 0.0
H1907 H 0.39084 0.30181 0.94415 0.0
H1908 H 0.41485 0.31954 0.92416 0.0
H1909 H 0.33287 0.45395 0.82948 0.0
H1910 H 0.40462 0.44935 0.78277 0.0
H1911 H 0.41668 0.40808 0.80472 0.0
H1912 H 0.36211 0.43695 0.88556 0.0
H1913 H 0.32587 0.43892 0.88063 0.0
H1914 H 0.34162 0.41378 0.90237 0.0
H1915 H 0.31687 0.38993 0.82485 0.0
H1916 H 0.30686 0.37918 0.8567 0.0
H1917 H 0.30102 0.4136 0.84625 0.0
H1918 H 0.28138 0.36743 0.93508 0.0
C1919 C 0.31503 0.36706 0.90956 0.0
Cu1920 Cu 0.28327 0.27347 0.0298 0.0
N1921 N 0.27871 0.29935 1.00231 0.0
N1922 N 0.29079 0.32256 0.96575 0.0
C1923 C 0.29866 0.30511 0.98552 0.0
C1924 C 0.26466 0.32805 0.97047 0.0
C1925 C 0.25726 0.31368 0.99295 0.0
O1926 O 0.29449 0.24242 1.00883 0.0
C1927 C 0.29919 0.31065 0.06764 0.0
O1928 O 0.27534 0.31887 0.0581 0.0
H1929 H 0.31862 0.29638 0.98786 0.0
H1930 H 0.23756 0.3135 1.00146 0.0
N1931 N 0.25226 0.26412 0.0487 0.0
N1932 N 0.2287 0.24538 0.08164 0.0
C1933 C 0.25345 0.24974 0.07187 0.0
C1934 C 0.22571 0.26914 0.04363 0.0
C1935 C 0.21116 0.25772 0.06399 0.0
C1936 C 0.27937 0.22148 1.00498 0.0
O1937 O 0.2622 0.21485 0.02326 0.0
H1938 H 0.27225 0.2424 0.08126 0.0
H1939 H 0.21736 0.27983 0.02619 0.0
O1940 O 0.30885 0.28946 0.05723 0.0
H1941 H 0.2515 0.34102 0.95827 0.0
H1942 H 0.18931 0.25771 0.06522 0.0
Cu1943 Cu 0.81798 0.2799 0.0203 0.0
N1944 N 0.81352 0.31342 0.03666 0.0
N1945 N 0.79295 0.34343 0.0621 0.0
C1946 C 0.79433 0.31734 0.05453 0.0
C1947 C 0.81224 0.35639 0.04832 0.0
C1948 C 0.82488 0.33783 0.03264 0.0
O1949 O 0.82166 0.25522 0.05166 0.0
C1950 C 0.79236 0.29823 0.97542 0.0
O1951 O 0.81553 0.31153 0.97855 0.0
H1952 H 0.78166 0.30114 0.06175 0.0
H1953 H 0.84068 0.34201 0.01885 0.0
N1954 N 0.84982 0.27625 1.00118 0.0
N1955 N 0.87604 0.25882 0.97014 0.0
C1956 C 0.85235 0.25682 0.98256 0.0
C1957 C 0.87275 0.29133 1.00061 0.0
C1958 C 0.88899 0.2806 0.98147 0.0
C1959 C 0.84262 0.26293 0.06619 0.0
O1960 O 0.85702 0.28321 0.05718 0.0
H1961 H 0.83639 0.24216 0.97757 0.0
H1962 H 0.87721 0.30909 0.01286 0.0
O1963 O 0.78768 0.27944 0.99245 0.0
H1964 H 0.81671 0.37785 0.049 0.0
H1965 H 0.90864 0.2884 0.97625 0.0
Cu1966 Cu 0.77014 0.78766 1.00889 0.0
N1967 N 0.76409 0.8122 0.98032 0.0
N1968 N 0.77241 0.83374 0.9416 0.0
C1969 C 0.78181 0.81635 0.96087 0.0
C1970 C 0.74764 0.84083 0.94946 0.0
C1971 C 0.74257 0.82751 0.97326 0.0
O1972 O 0.78685 0.75752 0.99107 0.0
C1973 C 0.78198 0.82618 0.04773 0.0
O1974 O 0.75869 0.83455 0.03693 0.0
H1975 H 0.80135 0.8067 0.96105 0.0
H1976 H 0.72439 0.8288 0.98444 0.0
N1977 N 0.7383 0.7761 0.02494 0.0
N1978 N 0.71215 0.75971 0.05696 0.0
C1979 C 0.73771 0.76536 0.04992 0.0
C1980 C 0.71215 0.77717 0.01573 0.0
C1981 C 0.69596 0.76722 0.03554 0.0
C1982 C 0.7761 0.734 0.989 0.0
O1983 O 0.7607 0.72535 1.00809 0.0
H1984 H 0.75574 0.76211 0.06286 0.0
H1985 H 0.70531 0.78459 0.99606 0.0
O1986 O 0.79249 0.80529 0.0377 0.0
H1987 H 0.73387 0.85433 0.93865 0.0
H1988 H 0.67403 0.76527 0.03414 0.0
Cu1989 Cu 0.27443 0.76774 0.02492 0.0
N1990 N 0.26543 0.79742 0.04687 0.0
N1991 N 0.24656 0.82109 0.0796 0.0
C1992 C 0.24784 0.79689 0.067 0.0
C1993 C 0.26385 0.83737 0.06655 0.0
C1994 C 0.27557 0.82278 0.04678 0.0
O1995 O 0.28481 0.73876 0.05089 0.0
C1996 C 0.24833 0.78856 0.98201 0.0
O1997 O 0.26578 0.8067 0.9919 0.0
H1998 H 0.23694 0.77885 0.07284 0.0
H1999 H 0.29066 0.83016 0.03344 0.0
N2000 N 0.30588 0.77122 1.00466 0.0
N2001 N 0.33326 0.76008 0.9715 0.0
C2002 C 0.30987 0.7546 0.9837 0.0
C2003 C 0.32755 0.78812 1.00593 0.0
C2004 C 0.34443 0.7813 0.98557 0.0
C2005 C 0.30444 0.74836 0.06617 0.0
O2006 O 0.31144 0.77378 0.0628 0.0
H2007 H 0.29535 0.73896 0.97744 0.0
H2008 H 0.33095 0.80419 0.02056 0.0
O2009 O 0.24596 0.76638 0.99514 0.0
H2010 H 0.26805 0.85847 0.07097 0.0
H2011 H 0.36355 0.79118 0.98172 0.0
Cu2012 Cu 0.02835 0.27486 0.30648 0.0
N2013 N 0.05015 0.2456 0.29756 0.0
N2014 N 0.07915 0.22208 0.2735 0.0
C2015 C 0.0637 0.24437 0.27462 0.0
C2016 C 0.07498 0.20882 0.29686 0.0
C2017 C 0.05716 0.22332 0.31158 0.0
O2018 O 0.05481 0.30454 0.3139 0.0
C2019 C 0.98655 0.25436 0.27701 0.0
O2020 O 0.99577 0.23483 0.29276 0.0
H2021 H 0.06226 0.25981 0.25919 0.0
H2022 H 0.05028 0.21819 0.3313 0.0
N2023 N 1.00729 0.27094 0.33721 0.0
N2024 N 0.97164 0.27975 0.36235 0.0
C2025 C 0.98477 0.28563 0.3397 0.0
C2026 C 1.00857 0.25481 0.35911 0.0
C2027 C 0.98667 0.26023 0.37465 0.0
C2028 C 0.07053 0.29875 0.33439 0.0
O2029 O 0.06555 0.27619 0.3473 0.0
H2030 H 0.97801 0.30004 0.32451 0.0
H2031 H 0.02417 0.24014 0.36359 0.0
O2032 O 0.99981 0.27679 0.27729 0.0
H2033 H 0.08463 0.19031 0.30342 0.0
H2034 H 0.98239 0.25061 0.39358 0.0
Cu2035 Cu 0.76313 0.02745 0.26143 0.0
N2036 N 0.79297 0.05154 0.25865 0.0
N2037 N 0.81635 0.08814 0.24582 0.0
C2038 C 0.79339 0.07307 0.2419 0.0
C2039 C 0.83099 0.07538 0.26567 0.0
C2040 C 0.81654 0.05302 0.2736 0.0
O2041 O 0.73186 0.05218 0.26287 0.0
C2042 C 0.78986 0.98654 0.24079 0.0
O2043 O 0.80529 0.99679 0.26072 0.0
H2044 H 0.77666 0.07814 0.22789 0.0
H2045 H 0.82273 0.03909 0.28946 0.0
N2046 N 0.76319 1.00731 0.2939 0.0
N2047 N 0.75333 0.9729 0.32145 0.0
C2048 C 0.7488 0.98415 0.29678 0.0
C2049 C 0.77737 1.01089 0.31763 0.0
C2050 C 0.77126 0.98985 0.33462 0.0
C2051 C 0.73655 0.06751 0.28353 0.0
O2052 O 0.75904 0.06352 0.29821 0.0
H2053 H 0.73586 0.97538 0.28066 0.0
H2054 H 0.79127 0.02751 0.32236 0.0
O2055 O 0.76758 0.99854 0.23434 0.0
H2056 H 0.85076 0.08178 0.27406 0.0
H2057 H 0.77945 0.98741 0.35514 0.0
Cu2058 Cu 1.00881 0.74793 0.24897 0.0
N2059 N 0.98717 0.77873 0.25039 0.0
N2060 N 0.95327 0.80633 0.23694 0.0
C2061 C 0.96684 0.78348 0.23183 0.0
C2062 C 0.96576 0.81627 0.25992 0.0
C2063 C 0.98656 0.7992 0.26819 0.0
O2064 O 0.9803 0.72011 0.24364 0.0
C2065 C 0.05087 0.77625 0.23061 0.0
O2066 O 0.04517 0.78689 0.25391 0.0
H2067 H 0.96194 0.76989 0.21513 0.0
H2068 H 1.00017 0.80154 0.28591 0.0
N2069 N 0.02865 0.74019 0.28137 0.0
N2070 N 0.06154 0.72436 0.30976 0.0
C2071 C 0.05267 0.72732 0.28368 0.0
C2072 C 0.02197 0.74531 0.30679 0.0
C2073 C 0.0422 0.73566 0.3243 0.0
C2074 C 0.97581 0.70277 0.26203 0.0
O2075 O 0.99657 0.69303 0.27634 0.0
H2076 H 0.06368 0.72082 0.26656 0.0
H2077 H 1.00367 0.75529 0.31219 0.0
O2078 O 0.03625 0.75608 0.22212 0.0
H2079 H 0.96049 0.83464 0.27011 0.0
H2080 H 0.04264 0.73693 0.34613 0.0
Cu2081 Cu 0.26623 0.02071 0.27574 0.0
N2082 N 0.27512 0.04497 0.30419 0.0
N2083 N 0.2968 0.07947 0.32571 0.0
C2084 C 0.29424 0.0645 0.30286 0.0
C2085 C 0.2783 0.06881 0.34204 0.0
C2086 C 0.26491 0.04762 0.32869 0.0
O2087 O 0.25715 0.04313 0.2438 0.0
C2088 C 0.29506 0.98136 0.29902 0.0
O2089 O 0.28038 0.99161 0.31773 0.0
H2090 H 0.30564 0.06779 0.28507 0.0
H2091 H 0.24902 0.03496 0.33639 0.0
N2092 N 0.23488 0.9995 0.2798 0.0
N2093 N 0.20611 0.96523 0.26881 0.0
C2094 C 0.23045 0.97704 0.26488 0.0
C2095 C 0.21265 1.00217 0.29411 0.0
C2096 C 0.19485 0.98102 0.28738 0.0
C2097 C 0.23774 0.05858 0.24955 0.0
O2098 O 0.22935 0.05789 0.27426 0.0
H2099 H 0.24508 0.96983 0.2512 0.0
H2100 H 0.20922 0.0186 0.30785 0.0
O2101 O 0.29456 0.99307 0.276 0.0
H2102 H 0.27474 0.07556 0.3623 0.0
H2103 H 0.17491 0.97808 0.2951 0.0
Cu2104 Cu 0.03294 0.78215 0.76225 0.0
N2105 N 0.05046 0.74977 0.75599 0.0
N2106 N 0.08114 0.72177 0.7405 0.0
C2107 C 0.07363 0.74769 0.74299 0.0
C2108 C 0.06204 0.70696 0.7526 0.0
C2109 C 0.04301 0.72432 0.76202 0.0
O2110 O 0.06122 0.80882 0.77361 0.0
C2111 C 1.00717 0.7751 0.70993 0.0
O2112 O 0.02878 0.76247 0.70258 0.0
H2113 H 0.08468 0.76491 0.73543 0.0
H2114 H 0.02487 0.71878 0.77219 0.0
N2115 N 1.0084 0.77898 0.78962 0.0
N2116 N 0.97104 0.78833 0.81156 0.0
C2117 C 0.98594 0.79398 0.79009 0.0
C2118 C 1.00782 0.76291 0.81147 0.0
C2119 C 0.98482 0.76867 0.82509 0.0
C2120 C 0.07523 0.80138 0.79464 0.0
O2121 O 0.0688 0.7782 0.80572 0.0
H2122 H 0.98067 0.80859 0.77456 0.0
H2123 H 0.023 0.74813 0.81716 0.0
O2124 O 1.00915 0.79032 0.73071 0.0
H2125 H 0.06153 0.68514 0.75399 0.0
H2126 H 0.97904 0.7593 0.84368 0.0
Cu2127 Cu 0.2754 0.03716 0.77923 0.0
N2128 N 0.30608 0.06052 0.77941 0.0
N2129 N 0.33096 0.09563 0.76505 0.0
C2130 C 0.30724 0.08159 0.76223 0.0
C2131 C 0.34532 0.08271 0.78505 0.0
C2132 C 0.32997 0.06112 0.79385 0.0
O2133 O 0.24628 0.06412 0.78441 0.0
C2134 C 0.30366 1.00065 0.75319 0.0
O2135 O 0.31491 1.00354 0.77765 0.0
H2136 H 0.29066 0.08648 0.74801 0.0
H2137 H 0.336 0.04678 0.80939 0.0
N2138 N 0.27334 1.01231 0.80834 0.0
N2139 N 0.2623 0.97483 0.8313 0.0
C2140 C 0.25818 0.9892 0.80821 0.0
C2141 C 0.28745 1.0125 0.83231 0.0
C2142 C 0.28055 0.98976 0.84649 0.0
C2143 C 0.2519 0.07617 0.80708 0.0
O2144 O 0.27323 0.06785 0.82146 0.0
H2145 H 0.24517 0.98265 0.79111 0.0
H2146 H 0.30213 0.02785 0.83896 0.0
O2147 O 0.28188 0.01386 0.74737 0.0
H2148 H 0.3657 0.08804 0.79254 0.0
H2149 H 0.28865 0.98467 0.86653 0.0
Cu2150 Cu 0.05145 0.30058 0.77602 0.0
N2151 N 0.02454 0.32737 0.77745 0.0
N2152 N 0.98825 0.35108 0.76218 0.0
C2153 C 1.01056 0.33734 0.7556 0.0
C2154 C 0.98862 0.35025 0.78942 0.0
C2155 C 1.01079 0.33547 0.79873 0.0
O2156 O 0.03271 0.26544 0.77515 0.0
C2157 C 0.0889 0.33254 0.7526 0.0
O2158 O 0.08065 0.34748 0.77243 0.0
H2159 H 1.0156 0.33273 0.73512 0.0
H2160 H 1.0151 0.32915 0.81936 0.0
N2161 N 0.07437 0.29786 0.80725 0.0
N2162 N 0.10867 0.28219 0.83422 0.0
C2163 C 0.09511 0.28035 0.80982 0.0
C2164 C 0.07469 0.31136 0.83078 0.0
C2165 C 0.09567 0.30172 0.84743 0.0
C2166 C 1.00764 0.26176 0.76829 0.0
O2167 O 0.99567 0.27857 0.7512 0.0
H2168 H 0.10026 0.26678 0.79382 0.0
H2169 H 0.06083 0.32714 0.83554 0.0
O2170 O 0.07687 0.30978 0.74809 0.0
H2171 H 0.97269 0.35761 0.80158 0.0
H2172 H 0.10064 0.30856 0.86785 0.0
Cu2173 Cu 0.79746 0.0254 0.75863 0.0
N2174 N 0.81169 0.04783 0.78661 0.0
N2175 N 0.83616 0.08106 0.80729 0.0
C2176 C 0.82681 0.07044 0.78337 0.0
C2177 C 0.82645 0.06439 0.82624 0.0
C2178 C 0.81149 0.04393 0.81346 0.0
O2179 O 0.78353 0.04875 0.72922 0.0
C2180 C 0.84291 0.99211 0.76718 0.0
O2181 O 0.85184 1.01042 0.78473 0.0
H2182 H 0.83107 0.0787 0.7638 0.0
H2183 H 0.80221 0.02679 0.82306 0.0
N2184 N 0.76841 1.00323 0.76824 0.0
N2185 N 0.74116 0.9667 0.76298 0.0
C2186 C 0.75934 0.98325 0.75161 0.0
C2187 C 0.75524 0.99962 0.79112 0.0
C2188 C 0.7383 0.97711 0.78788 0.0
C2189 C 0.76402 0.06273 0.73726 0.0
O2190 O 0.75753 0.05998 0.76252 0.0
H2191 H 0.76666 0.98078 0.73159 0.0
H2192 H 0.75822 1.01185 0.80913 0.0
O2193 O 0.82366 0.99799 0.75013 0.0
H2194 H 0.83065 0.06622 0.84783 0.0
H2195 H 0.72569 0.9686 0.80304 0.0
Cu2196 Cu 0.25983 0.78701 0.51479 0.0
N2197 N 0.28898 0.79944 0.53795 0.0
N2198 N 0.31158 0.82161 0.5719 0.0
C2199 C 0.28745 0.81784 0.55799 0.0
C2200 C 0.32883 0.805 0.5598 0.0
C2201 C 0.31487 0.79128 0.53921 0.0
O2202 O 0.22932 0.78022 0.53813 0.0
C2203 C 0.28036 0.80784 0.4706 0.0
O2204 O 0.29893 0.79205 0.48168 0.0
H2205 H 0.2688 0.82761 0.56268 0.0
H2206 H 0.32306 0.77617 0.52629 0.0
N2207 N 0.26474 0.75297 0.49884 0.0
N2208 N 0.25593 0.71962 0.46878 0.0
C2209 C 0.24943 0.74462 0.47704 0.0
C2210 C 0.28177 0.73258 0.50477 0.0
C2211 C 0.27638 0.71199 0.48629 0.0
C2212 C 0.23759 0.76318 0.55605 0.0
O2213 O 0.26319 0.7562 0.5565 0.0
H2214 H 0.23403 0.75712 0.46729 0.0
H2215 H 0.29691 0.73255 0.52137 0.0
O2216 O 0.25851 0.81107 0.48306 0.0
H2217 H 0.35019 0.80273 0.56527 0.0
H2218 H 0.28663 0.69283 0.48607 0.0
Cu2219 Cu 0.78071 0.77762 0.50738 0.0
N2220 N 0.80615 0.78296 0.4807 0.0
N2221 N 0.82605 0.76806 0.4438 0.0
C2222 C 0.81643 0.76161 0.46809 0.0
C2223 C 0.82228 0.7949 0.44128 0.0
C2224 C 0.80975 0.804 0.46394 0.0
O2225 O 0.74774 0.76975 0.48452 0.0
C2226 C 0.81926 0.75997 0.54279 0.0
O2227 O 0.82774 0.78348 0.5339 0.0
H2228 H 0.81401 0.7411 0.47527 0.0
H2229 H 0.80109 0.82374 0.46635 0.0
N2230 N 0.77452 0.8075 0.52953 0.0
N2231 N 0.75972 0.83056 0.56467 0.0
C2232 C 0.76062 0.8063 0.55233 0.0
C2233 C 0.78271 0.83339 0.52735 0.0
C2234 C 0.77365 0.84764 0.54899 0.0
C2235 C 0.72998 0.78809 0.48065 0.0
O2236 O 0.72824 0.8071 0.49887 0.0
H2237 H 0.7519 0.78782 0.56 0.0
H2238 H 0.79465 0.84131 0.5114 0.0
O2239 O 0.79648 0.75076 0.53288 0.0
H2240 H 0.82536 0.80643 0.42311 0.0
H2241 H 0.77717 0.86895 0.55294 0.0
Cu2242 Cu 0.77109 0.27922 0.52297 0.0
N2243 N 0.7762 0.25387 0.49592 0.0
N2244 N 0.76618 0.23084 0.45769 0.0
C2245 C 0.75725 0.24839 0.47593 0.0
C2246 C 0.79189 0.22521 0.46659 0.0
C2247 C 0.79804 0.2395 0.49011 0.0
O2248 O 0.75791 0.30942 0.50085 0.0
C2249 C 0.76051 0.24173 0.56132 0.0
O2250 O 0.78432 0.23519 0.55276 0.0
H2251 H 0.73721 0.25707 0.47495 0.0
H2252 H 0.8171 0.23953 0.50193 0.0
N2253 N 0.80272 0.291 0.54227 0.0
N2254 N 0.82668 0.31508 0.57365 0.0
C2255 C 0.80192 0.30574 0.56505 0.0
C2256 C 0.82905 0.29067 0.53634 0.0
C2257 C 0.84395 0.30539 0.55588 0.0
C2258 C 0.77295 0.33031 0.49787 0.0
O2259 O 0.78699 0.34009 0.51896 0.0
H2260 H 0.78325 0.31047 0.57447 0.0
H2261 H 0.83673 0.28159 0.51849 0.0
O2262 O 0.74858 0.26198 0.55019 0.0
H2263 H 0.80549 0.21192 0.45667 0.0
H2264 H 0.86554 0.30979 0.5562 0.0
Cu2265 Cu 0.29535 0.28258 0.5427 0.0
N2266 N 0.29423 0.31274 0.56561 0.0
N2267 N 0.28459 0.33696 0.602 0.0
C2268 C 0.27988 0.31376 0.58809 0.0
C2269 C 0.30254 0.35106 0.5876 0.0
C2270 C 0.30851 0.33608 0.56528 0.0
O2271 O 0.30961 0.25454 0.56758 0.0
C2272 C 0.24718 0.29979 0.51652 0.0
O2273 O 0.25281 0.32159 0.53092 0.0
H2274 H 0.26704 0.29734 0.59459 0.0
H2275 H 0.32284 0.34152 0.55039 0.0
N2276 N 0.31935 0.28573 0.51448 0.0
N2277 N 0.33833 0.27131 0.47696 0.0
C2278 C 0.32651 0.2642 0.49998 0.0
C2279 C 0.32692 0.30743 0.50013 0.0
C2280 C 0.33893 0.29858 0.47713 0.0
C2281 C 0.33388 0.26097 0.57581 0.0
O2282 O 0.34522 0.28207 0.56462 0.0
H2283 H 0.32144 0.24364 0.50544 0.0
H2284 H 0.32205 0.32809 0.50471 0.0
O2285 O 0.2603 0.27824 0.52216 0.0
H2286 H 0.31107 0.37074 0.59296 0.0
H2287 H 0.34544 0.31118 0.46076 0.0
Cu2288 Cu 0.78337 0.54309 0.76465 0.0
N2289 N 0.81299 0.56597 0.75764 0.0
N2290 N 0.83551 0.59988 0.73816 0.0
C2291 C 0.81119 0.58756 0.74101 0.0
C2292 C 0.85329 0.58549 0.75387 0.0
C2293 C 0.83938 0.56456 0.76577 0.0
O2294 O 0.75399 0.56845 0.77269 0.0
C2295 C 0.79961 0.51172 0.72012 0.0
O2296 O 0.81431 0.53278 0.71359 0.0
H2297 H 0.79231 0.59385 0.73099 0.0
H2298 H 0.848 0.54905 0.77883 0.0
N2299 N 0.78811 0.52112 0.79533 0.0
N2300 N 0.78086 0.48601 0.8229 0.0
C2301 C 0.77334 0.49839 0.79943 0.0
C2302 C 0.80565 0.52332 0.81692 0.0
C2303 C 0.80116 0.50188 0.83396 0.0
C2304 C 0.76143 0.58317 0.79317 0.0
O2305 O 0.78559 0.579 0.80469 0.0
H2306 H 0.75771 0.49086 0.78508 0.0
H2307 H 0.82062 0.53935 0.82011 0.0
O2308 O 0.78056 0.51496 0.73635 0.0
H2309 H 0.87498 0.58924 0.75596 0.0
H2310 H 0.81207 0.49851 0.85314 0.0
Cu2311 Cu 0.30946 0.54305 0.77775 0.0
N2312 N 0.33823 0.51851 0.77847 0.0
N2313 N 0.36068 0.48089 0.79061 0.0
C2314 C 0.33921 0.49676 0.79483 0.0
C2315 C 0.3738 0.49355 0.77076 0.0
C2316 C 0.35995 0.51661 0.76334 0.0
O2317 O 0.27835 0.51862 0.78424 0.0
C2318 C 0.34148 0.58569 0.79296 0.0
O2319 O 0.35106 0.57666 0.7705 0.0
H2320 H 0.32398 0.49264 0.80922 0.0
H2321 H 0.36531 0.53072 0.74779 0.0
N2322 N 0.30232 0.55912 0.74372 0.0
N2323 N 0.28216 0.58528 0.71195 0.0
C2324 C 0.28352 0.57813 0.73832 0.0
C2325 C 0.31334 0.5541 0.71999 0.0
C2326 C 0.30095 0.57008 0.70041 0.0
C2327 C 0.2761 0.50179 0.76457 0.0
O2328 O 0.29123 0.50593 0.74393 0.0
H2329 H 0.27127 0.5866 0.7536 0.0
H2330 H 0.32876 0.53932 0.71689 0.0
O2331 O 0.32097 0.5732 0.80211 0.0
H2332 H 0.39197 0.48671 0.76177 0.0
H2333 H 0.3052 0.57001 0.67922 0.0
Cu2334 Cu 0.27647 0.51212 0.27316 0.0
N2335 N 0.27658 0.49464 0.30714 0.0
N2336 N 0.26535 0.46379 0.33805 0.0
C2337 C 0.26156 0.47229 0.31221 0.0
C2338 C 0.28339 0.48169 0.34967 0.0
C2339 C 0.29027 0.50056 0.33066 0.0
O2340 O 0.28552 0.48228 0.24851 0.0
C2341 C 0.2475 0.5522 0.29238 0.0
O2342 O 0.27102 0.55132 0.30599 0.0
H2343 H 0.24848 0.46222 0.29699 0.0
H2344 H 0.30411 0.51749 0.33398 0.0
N2345 N 0.30454 0.5377 0.26784 0.0
N2346 N 0.32679 0.57153 0.24776 0.0
C2347 C 0.30488 0.55467 0.24649 0.0
C2348 C 0.32703 0.54391 0.28322 0.0
C2349 C 0.34068 0.56468 0.27101 0.0
C2350 C 0.30861 0.4726 0.25664 0.0
O2351 O 0.32088 0.48345 0.27826 0.0
H2352 H 0.2892 0.5545 0.23039 0.0
H2353 H 0.3331 0.53422 0.30205 0.0
O2354 O 0.24334 0.53497 0.27313 0.0
H2355 H 0.29096 0.48144 0.37056 0.0
H2356 H 0.35923 0.57416 0.27916 0.0
Cu2357 Cu 0.77825 0.52652 0.27865 0.0
N2358 N 0.80843 0.5056 0.28864 0.0
N2359 N 0.83228 0.47168 0.30727 0.0
C2360 C 0.80738 0.48211 0.30234 0.0
C2361 C 0.84964 0.48933 0.2962 0.0
C2362 C 0.8349 0.51023 0.2848 0.0
O2363 O 0.74923 0.50157 0.26591 0.0
C2364 C 0.78877 0.55552 0.32645 0.0
O2365 O 0.80287 0.53537 0.33672 0.0
H2366 H 0.78865 0.47284 0.3084 0.0
H2367 H 0.84305 0.52766 0.27474 0.0
N2368 N 0.78435 0.55067 0.2505 0.0
N2369 N 0.77561 0.58665 0.22417 0.0
C2370 C 0.76713 0.57077 0.24434 0.0
C2371 C 0.8046 0.55358 0.2335 0.0
C2372 C 0.79926 0.57578 0.21724 0.0
C2373 C 0.75652 0.48893 0.24519 0.0
O2374 O 0.7808 0.49435 0.23666 0.0
H2375 H 0.74853 0.57333 0.25458 0.0
H2376 H 0.82197 0.54059 0.23289 0.0
O2377 O 0.77026 0.55032 0.30822 0.0
H2378 H 0.87151 0.48755 0.29673 0.0
H2379 H 0.81202 0.58336 0.20174 0.0
Cu2380 Cu 0.55411 0.28291 0.78667 0.0
N2381 N 0.53434 0.27657 0.8175 0.0
N2382 N 0.49827 0.28453 0.84207 0.0
C2383 C 0.51709 0.29516 0.82604 0.0
C2384 C 0.50451 0.25808 0.84419 0.0
C2385 C 0.52658 0.25319 0.82885 0.0
O2386 O 0.52405 0.28184 0.7588 0.0
C2387 C 0.59303 0.31069 0.81577 0.0
O2388 O 0.58806 0.28888 0.82988 0.0
H2389 H 0.51721 0.3157 0.81866 0.0
H2390 H 0.53451 0.23358 0.82419 0.0
N2391 N 0.57859 0.25585 0.77853 0.0
N2392 N 0.6084 0.23277 0.75533 0.0
C2393 C 0.5907 0.25334 0.75485 0.0
C2394 C 0.5891 0.23643 0.79466 0.0
C2395 C 0.60743 0.22218 0.78046 0.0
C2396 C 0.51458 0.25773 0.75556 0.0
O2397 O 0.52866 0.23773 0.76619 0.0
H2398 H 0.58649 0.26638 0.73766 0.0
H2399 H 0.58423 0.23323 0.81545 0.0
O2400 O 0.57808 0.3147 0.79425 0.0
H2401 H 0.4926 0.24285 0.85407 0.0
H2402 H 0.6196 0.2057 0.78839 0.0
Cu2403 Cu 0.54328 0.79088 0.76493 0.0
N2404 N 0.57195 0.79444 0.79089 0.0
N2405 N 0.61133 0.7848 0.81341 0.0
C2406 C 0.59221 0.77653 0.79448 0.0
C2407 C 0.60243 0.80902 0.82187 0.0
C2408 C 0.57829 0.81485 0.80801 0.0
O2409 O 0.56288 0.78011 0.73316 0.0
C2410 C 0.5058 0.77577 0.8012 0.0
O2411 O 0.51548 0.79901 0.81058 0.0
H2412 H 0.59276 0.75785 0.78323 0.0
H2413 H 0.56632 0.83275 0.81021 0.0
N2414 N 0.52512 0.82346 0.75774 0.0
N2415 N 0.4914 0.84993 0.74197 0.0
C2416 C 0.49976 0.82438 0.74638 0.0
C2417 C 0.53318 0.84946 0.76083 0.0
C2418 C 0.51229 0.86588 0.75123 0.0
C2419 C 0.56513 0.79556 0.71274 0.0
O2420 O 0.54625 0.81345 0.70739 0.0
H2421 H 0.48785 0.80645 0.74093 0.0
H2422 H 0.55307 0.85607 0.76862 0.0
O2423 O 0.51581 0.76633 0.77986 0.0
H2424 H 0.61244 0.82201 0.83695 0.0
H2425 H 0.5129 0.88772 0.75001 0.0
Cu2426 Cu 0.52173 0.77913 0.26989 0.0
N2427 N 0.49789 0.78231 0.29854 0.0
N2428 N 0.4609 0.79262 0.32079 0.0
C2429 C 0.47438 0.79614 0.29792 0.0
C2430 C 0.47675 0.77617 0.33637 0.0
C2431 C 0.49922 0.7697 0.32262 0.0
O2432 O 0.49827 0.76938 0.23769 0.0
C2433 C 0.56164 0.80693 0.29586 0.0
O2434 O 0.55227 0.78934 0.31292 0.0
H2435 H 0.46683 0.80764 0.2806 0.0
H2436 H 0.51524 0.75639 0.32967 0.0
N2437 N 0.5454 0.74966 0.27203 0.0
N2438 N 0.58033 0.7248 0.25971 0.0
C2439 C 0.5662 0.7477 0.25559 0.0
C2440 C 0.54626 0.72715 0.28724 0.0
C2441 C 0.56777 0.7118 0.27968 0.0
C2442 C 0.48591 0.74729 0.24335 0.0
O2443 O 0.4892 0.73792 0.26806 0.0
H2444 H 0.5709 0.7631 0.241 0.0
H2445 H 0.53206 0.72192 0.30233 0.0
O2446 O 0.54876 0.80916 0.27282 0.0
H2447 H 0.47241 0.76905 0.35635 0.0
H2448 H 0.5733 0.69232 0.28799 0.0
Cu2449 Cu 0.53808 0.28699 0.25345 0.0
N2450 N 0.51459 0.25774 0.26025 0.0
N2451 N 0.48202 0.23622 0.28236 0.0
C2452 C 0.49727 0.25898 0.28034 0.0
C2453 C 0.49024 0.21999 0.26243 0.0
C2454 C 0.51025 0.23332 0.24881 0.0
O2455 O 0.51159 0.31667 0.24677 0.0
C2456 C 0.57922 0.26077 0.27859 0.0
O2457 O 0.56982 0.24566 0.25831 0.0
H2458 H 0.49586 0.27667 0.29295 0.0
H2459 H 0.52087 0.22569 0.23192 0.0
N2460 N 0.55845 0.28646 0.22221 0.0
N2461 N 0.59233 0.29928 0.19607 0.0
C2462 C 0.57967 0.30352 0.21926 0.0
C2463 C 0.55746 0.2706 0.20012 0.0
C2464 C 0.5782 0.27851 0.18397 0.0
C2465 C 0.49637 0.30987 0.22593 0.0
O2466 O 0.50151 0.28684 0.21422 0.0
H2467 H 0.58591 0.31839 0.23441 0.0
H2468 H 0.54293 0.25433 0.19613 0.0
O2469 O 0.56724 0.28326 0.28246 0.0
H2470 H 0.48261 0.1998 0.25794 0.0
H2471 H 0.58239 0.26943 0.16481 0.0
loop_
_geom_bond_atom_site_label_1
_geom_bond_atom_site_label_2
_geom_bond_distance
_geom_bond_site_symmetry_2
_ccdc_geom_bond_type
C0 C1 1.391 . S
C0 C4 1.391 . S
C0 H42 0.948 . S
C1 C0 1.391 . S
C1 C2 1.391 . S
C2 C1 1.391 . S
C2 H58 0.947 . S
C2 C59 1.392 . S
C3 C4 1.391 . S
C3 C7 1.397 . S
C3 C59 1.419 . S
C4 C0 1.391 . S
C4 C3 1.391 . S
C4 C5 1.399 . S
C5 C4 1.399 . S
C5 C8 1.396 . S
C5 C17 1.453 . S
C5 C18 1.684 . S
H6 C30 0.948 . S
C7 C3 1.397 . S
C7 C8 1.394 . S
C7 C26 1.723 . S
C8 C5 1.396 . S
C8 C7 1.394 . S
C8 C38 1.723 . S
H9 C32 0.947 . S
H10 C33 0.948 . S
H11 C39 0.982 . S
H12 C40 0.979 . S
H13 C40 0.980 . S
H14 C40 0.983 . S
H15 C39 0.979 . S
H16 C39 0.977 . S
C17 C5 1.453 . S
C17 H46 0.982 . S
C17 H47 0.979 . S
C17 H48 0.977 . S
C18 C5 1.684 . S
C18 H43 0.979 . S
C18 H44 0.980 . S
C18 H45 0.983 . S
C19 C20 1.391 . S
C19 C24 1.391 . S
C19 H49 0.948 . S
C20 C19 1.391 . S
C20 C21 1.391 . S
C21 C20 1.391 . S
C21 C22 1.392 . S
C21 H50 0.947 . S
C22 C21 1.392 . S
C22 C23 1.419 . S
C22 H51 0.948 . S
C23 C22 1.419 . S
C23 C24 1.391 . S
C23 C27 1.397 . S
C24 C19 1.391 . S
C24 C23 1.391 . S
C24 C25 1.399 . S
C25 C24 1.399 . S
C25 C26 1.396 . S
C25 C28 1.453 . S
C25 C29 1.684 . S
C26 C7 1.723 . S
C26 C25 1.396 . S
C26 C27 1.394 . S
C27 C23 1.397 . S
C27 C26 1.394 . S
C27 C37 1.723 . S
C28 C25 1.453 . S
C28 H52 0.982 . S
C28 H53 0.979 . S
C28 H54 0.977 . S
C29 C25 1.684 . S
C29 H55 0.979 . S
C29 H56 0.980 . S
C29 H57 0.983 . S
C30 H6 0.948 . S
C30 C31 1.391 . S
C30 C35 1.391 . S
C31 C30 1.391 . S
C31 C32 1.391 . S
C32 H9 0.947 . S
C32 C31 1.391 . S
C32 C33 1.392 . S
C33 H10 0.948 . S
C33 C32 1.392 . S
C33 C34 1.419 . S
C34 C33 1.419 . S
C34 C35 1.391 . S
C34 C38 1.397 . S
C35 C30 1.391 . S
C35 C34 1.391 . S
C35 C36 1.399 . S
C36 C35 1.399 . S
C36 C37 1.396 . S
C36 C39 1.453 . S
C36 C40 1.684 . S
C37 C27 1.723 . S
C37 C36 1.396 . S
C37 C38 1.394 . S
C38 C8 1.723 . S
C38 C34 1.397 . S
C38 C37 1.394 . S
C39 H11 0.982 . S
C39 H15 0.979 . S
C39 H16 0.977 . S
C39 C36 1.453 . S
C40 H12 0.979 . S
C40 H13 0.980 . S
C40 H14 0.983 . S
C40 C36 1.684 . S
H41 C59 0.948 . S
H42 C0 0.948 . S
H43 C18 0.979 . S
H44 C18 0.980 . S
H45 C18 0.983 . S
H46 C17 0.982 . S
H47 C17 0.979 . S
H48 C17 0.977 . S
H49 C19 0.948 . S
H50 C21 0.947 . S
H51 C22 0.948 . S
H52 C28 0.982 . S
H53 C28 0.979 . S
H54 C28 0.977 . S
H55 C29 0.979 . S
H56 C29 0.980 . S
H57 C29 0.983 . S
H58 C2 0.947 . S
C59 C2 1.392 . S
C59 C3 1.419 . S
C59 H41 0.948 . S
C60 C61 1.391 . S
C60 C64 1.391 . S
C60 H102 0.948 . S
C61 C60 1.391 . S
C61 C62 1.391 . S
C62 C61 1.391 . S
C62 H118 0.947 . S
C62 C119 1.392 . S
C63 C64 1.391 . S
C63 C67 1.397 . S
C63 C119 1.419 . S
C64 C60 1.391 . S
C64 C63 1.391 . S
C64 C65 1.399 . S
C65 C64 1.399 . S
C65 C68 1.396 . S
C65 C77 1.453 . S
C65 C78 1.684 . S
H66 C90 0.948 . S
C67 C63 1.397 . S
C67 C68 1.394 . S
C67 C86 1.723 . S
C68 C65 1.396 . S
C68 C67 1.394 . S
C68 C98 1.723 . S
H69 C92 0.947 . S
H70 C93 0.948 . S
H71 C99 0.982 . S
H72 C100 0.979 . S
H73 C100 0.980 . S
H74 C100 0.983 . S
H75 C99 0.979 . S
H76 C99 0.977 . S
C77 C65 1.453 . S
C77 H106 0.982 . S
C77 H107 0.979 . S
C77 H108 0.977 . S
C78 C65 1.684 . S
C78 H103 0.979 . S
C78 H104 0.980 . S
C78 H105 0.983 . S
C79 C80 1.391 . S
C79 C84 1.391 . S
C79 H109 0.948 . S
C80 C79 1.391 . S
C80 C81 1.391 . S
C81 C80 1.391 . S
C81 C82 1.392 . S
C81 H110 0.947 . S
C82 C81 1.392 . S
C82 C83 1.419 . S
C82 H111 0.948 . S
C83 C82 1.419 . S
C83 C84 1.391 . S
C83 C87 1.397 . S
C84 C79 1.391 . S
C84 C83 1.391 . S
C84 C85 1.399 . S
C85 C84 1.399 . S
C85 C86 1.396 . S
C85 C88 1.453 . S
C85 C89 1.684 . S
C86 C67 1.723 . S
C86 C85 1.396 . S
C86 C87 1.394 . S
C87 C83 1.397 . S
C87 C86 1.394 . S
C87 C97 1.723 . S
C88 C85 1.453 . S
C88 H112 0.982 . S
C88 H113 0.979 . S
C88 H114 0.977 . S
C89 C85 1.684 . S
C89 H115 0.979 . S
C89 H116 0.980 . S
C89 H117 0.983 . S
C90 H66 0.948 . S
C90 C91 1.391 . S
C90 C95 1.391 . S
C91 C90 1.391 . S
C91 C92 1.391 . S
C92 H69 0.947 . S
C92 C91 1.391 . S
C92 C93 1.392 . S
C93 H70 0.948 . S
C93 C92 1.392 . S
C93 C94 1.419 . S
C94 C93 1.419 . S
C94 C95 1.391 . S
C94 C98 1.397 . S
C95 C90 1.391 . S
C95 C94 1.391 . S
C95 C96 1.399 . S
C96 C95 1.399 . S
C96 C97 1.396 . S
C96 C99 1.453 . S
C96 C100 1.684 . S
C97 C87 1.723 . S
C97 C96 1.396 . S
C97 C98 1.394 . S
C98 C68 1.723 . S
C98 C94 1.397 . S
C98 C97 1.394 . S
C99 H71 0.982 . S
C99 H75 0.979 . S
C99 H76 0.977 . S
C99 C96 1.453 . S
C100 H72 0.979 . S
C100 H73 0.980 . S
C100 H74 0.983 . S
C100 C96 1.684 . S
H101 C119 0.948 . S
H102 C60 0.948 . S
H103 C78 0.979 . S
H104 C78 0.980 . S
H105 C78 0.983 . S
H106 C77 0.982 . S
H107 C77 0.979 . S
H108 C77 0.977 . S
H109 C79 0.948 . S
H110 C81 0.947 . S
H111 C82 0.948 . S
H112 C88 0.982 . S
H113 C88 0.979 . S
H114 C88 0.977 . S
H115 C89 0.979 . S
H116 C89 0.980 . S
H117 C89 0.983 . S
H118 C62 0.947 . S
C119 C62 1.392 . S
C119 C63 1.419 . S
C119 H101 0.948 . S
C120 C121 1.391 . S
C120 C124 1.391 . S
C120 H162 0.948 . S
C121 C120 1.391 . S
C121 C122 1.391 . S
C122 C121 1.391 . S
C122 H178 0.947 . S
C122 C179 1.392 . S
C123 C124 1.391 . S
C123 C127 1.397 . S
C123 C179 1.419 . S
C124 C120 1.391 . S
C124 C123 1.391 . S
C124 C125 1.399 . S
C125 C124 1.399 . S
C125 C128 1.396 . S
C125 C137 1.453 . S
C125 C138 1.684 . S
H126 C150 0.948 . S
C127 C123 1.397 . S
C127 C128 1.394 . S
C127 C146 1.723 . S
C128 C125 1.396 . S
C128 C127 1.394 . S
C128 C158 1.723 . S
H129 C152 0.947 . S
H130 C153 0.948 . S
H131 C159 0.982 . S
H132 C160 0.979 . S
H133 C160 0.980 . S
H134 C160 0.983 . S
H135 C159 0.979 . S
H136 C159 0.977 . S
C137 C125 1.453 . S
C137 H166 0.982 . S
C137 H167 0.979 . S
C137 H168 0.977 . S
C138 C125 1.684 . S
C138 H163 0.979 . S
C138 H164 0.980 . S
C138 H165 0.983 . S
C139 C140 1.391 . S
C139 C144 1.391 . S
C139 H169 0.948 . S
C140 C139 1.391 . S
C140 C141 1.391 . S
C141 C140 1.391 . S
C141 C142 1.392 . S
C141 H170 0.947 . S
C142 C141 1.392 . S
C142 C143 1.419 . S
C142 H171 0.948 . S
C143 C142 1.419 . S
C143 C144 1.391 . S
C143 C147 1.397 . S
C144 C139 1.391 . S
C144 C143 1.391 . S
C144 C145 1.399 . S
C145 C144 1.399 . S
C145 C146 1.396 . S
C145 C148 1.453 . S
C145 C149 1.684 . S
C146 C127 1.723 . S
C146 C145 1.396 . S
C146 C147 1.394 . S
C147 C143 1.397 . S
C147 C146 1.394 . S
C147 C157 1.723 . S
C148 C145 1.453 . S
C148 H172 0.982 . S
C148 H173 0.979 . S
C148 H174 0.977 . S
C149 C145 1.684 . S
C149 H175 0.979 . S
C149 H176 0.980 . S
C149 H177 0.983 . S
C150 H126 0.948 . S
C150 C151 1.391 . S
C150 C155 1.391 . S
C151 C150 1.391 . S
C151 C152 1.391 . S
C152 H129 0.947 . S
C152 C151 1.391 . S
C152 C153 1.392 . S
C153 H130 0.948 . S
C153 C152 1.392 . S
C153 C154 1.419 . S
C154 C153 1.419 . S
C154 C155 1.391 . S
C154 C158 1.397 . S
C155 C150 1.391 . S
C155 C154 1.391 . S
C155 C156 1.399 . S
C156 C155 1.399 . S
C156 C157 1.396 . S
C156 C159 1.453 . S
C156 C160 1.684 . S
C157 C147 1.723 . S
C157 C156 1.396 . S
C157 C158 1.394 . S
C158 C128 1.723 . S
C158 C154 1.397 . S
C158 C157 1.394 . S
C159 H131 0.982 . S
C159 H135 0.979 . S
C159 H136 0.977 . S
C159 C156 1.453 . S
C160 H132 0.979 . S
C160 H133 0.980 . S
C160 H134 0.983 . S
C160 C156 1.684 . S
H161 C179 0.948 . S
H162 C120 0.948 . S
H163 C138 0.979 . S
H164 C138 0.980 . S
H165 C138 0.983 . S
H166 C137 0.982 . S
H167 C137 0.979 . S
H168 C137 0.977 . S
H169 C139 0.948 . S
H170 C141 0.947 . S
H171 C142 0.948 . S
H172 C148 0.982 . S
H173 C148 0.979 . S
H174 C148 0.977 . S
H175 C149 0.979 . S
H176 C149 0.980 . S
H177 C149 0.983 . S
H178 C122 0.947 . S
C179 C122 1.392 . S
C179 C123 1.419 . S
C179 H161 0.948 . S
C180 C181 1.391 . S
C180 C184 1.391 . S
C180 H222 0.948 . S
C181 C180 1.391 . S
C181 C182 1.391 . S
C182 C181 1.391 . S
C182 H238 0.947 . S
C182 C239 1.392 . S
C183 C184 1.391 . S
C183 C187 1.397 . S
C183 C239 1.419 . S
C184 C180 1.391 . S
C184 C183 1.391 . S
C184 C185 1.399 . S
C185 C184 1.399 . S
C185 C188 1.396 . S
C185 C197 1.453 . S
C185 C198 1.684 . S
H186 C210 0.948 . S
C187 C183 1.397 . S
C187 C188 1.394 . S
C187 C206 1.723 . S
C188 C185 1.396 . S
C188 C187 1.394 . S
C188 C218 1.723 . S
H189 C212 0.947 . S
H190 C213 0.948 . S
H191 C219 0.982 . S
H192 C220 0.979 . S
H193 C220 0.980 . S
H194 C220 0.983 . S
H195 C219 0.979 . S
H196 C219 0.977 . S
C197 C185 1.453 . S
C197 H226 0.982 . S
C197 H227 0.979 . S
C197 H228 0.977 . S
C198 C185 1.684 . S
C198 H223 0.979 . S
C198 H224 0.980 . S
C198 H225 0.983 . S
C199 C200 1.391 . S
C199 C204 1.391 . S
C199 H229 0.948 . S
C200 C199 1.391 . S
C200 C201 1.391 . S
C201 C200 1.391 . S
C201 C202 1.392 . S
C201 H230 0.947 . S
C202 C201 1.392 . S
C202 C203 1.419 . S
C202 H231 0.948 . S
C203 C202 1.419 . S
C203 C204 1.391 . S
C203 C207 1.397 . S
C204 C199 1.391 . S
C204 C203 1.391 . S
C204 C205 1.399 . S
C205 C204 1.399 . S
C205 C206 1.396 . S
C205 C208 1.453 . S
C205 C209 1.684 . S
C206 C187 1.723 . S
C206 C205 1.396 . S
C206 C207 1.394 . S
C207 C203 1.397 . S
C207 C206 1.394 . S
C207 C217 1.723 . S
C208 C205 1.453 . S
C208 H232 0.982 . S
C208 H233 0.979 . S
C208 H234 0.977 . S
C209 C205 1.684 . S
C209 H235 0.979 . S
C209 H236 0.980 . S
C209 H237 0.983 . S
C210 H186 0.948 . S
C210 C211 1.391 . S
C210 C215 1.391 . S
C211 C210 1.391 . S
C211 C212 1.391 . S
C212 H189 0.947 . S
C212 C211 1.391 . S
C212 C213 1.392 . S
C213 H190 0.948 . S
C213 C212 1.392 . S
C213 C214 1.419 . S
C214 C213 1.419 . S
C214 C215 1.391 . S
C214 C218 1.397 . S
C215 C210 1.391 . S
C215 C214 1.391 . S
C215 C216 1.399 . S
C216 C215 1.399 . S
C216 C217 1.396 . S
C216 C219 1.453 . S
C216 C220 1.684 . S
C217 C207 1.723 . S
C217 C216 1.396 . S
C217 C218 1.394 . S
C218 C188 1.723 . S
C218 C214 1.397 . S
C218 C217 1.394 . S
C219 H191 0.982 . S
C219 H195 0.979 . S
C219 H196 0.977 . S
C219 C216 1.453 . S
C220 H192 0.979 . S
C220 H193 0.980 . S
C220 H194 0.983 . S
C220 C216 1.684 . S
H221 C239 0.948 . S
H222 C180 0.948 . S
H223 C198 0.979 . S
H224 C198 0.980 . S
H225 C198 0.983 . S
H226 C197 0.982 . S
H227 C197 0.979 . S
H228 C197 0.977 . S
H229 C199 0.948 . S
H230 C201 0.947 . S
H231 C202 0.948 . S
H232 C208 0.982 . S
H233 C208 0.979 . S
H234 C208 0.977 . S
H235 C209 0.979 . S
H236 C209 0.980 . S
H237 C209 0.983 . S
H238 C182 0.947 . S
C239 C182 1.392 . S
C239 C183 1.419 . S
C239 H221 0.948 . S
C240 C241 1.391 . S
C240 C244 1.391 . S
C240 H282 0.948 . S
C241 C240 1.391 . S
C241 C242 1.391 . S
C242 C241 1.391 . S
C242 H298 0.947 . S
C242 C299 1.392 . S
C243 C244 1.391 . S
C243 C247 1.397 . S
C243 C299 1.419 . S
C244 C240 1.391 . S
C244 C243 1.391 . S
C244 C245 1.399 . S
C245 C244 1.399 . S
C245 C248 1.396 . S
C245 C257 1.453 . S
C245 C258 1.684 . S
H246 C270 0.948 . S
C247 C243 1.397 . S
C247 C248 1.394 . S
C247 C266 1.723 . S
C248 C245 1.396 . S
C248 C247 1.394 . S
C248 C278 1.723 . S
H249 C272 0.947 . S
H250 C273 0.948 . S
H251 C279 0.982 . S
H252 C280 0.979 . S
H253 C280 0.980 . S
H254 C280 0.983 . S
H255 C279 0.979 . S
H256 C279 0.977 . S
C257 C245 1.453 . S
C257 H286 0.982 . S
C257 H287 0.979 . S
C257 H288 0.977 . S
C258 C245 1.684 . S
C258 H283 0.979 . S
C258 H284 0.980 . S
C258 H285 0.983 . S
C259 C260 1.391 . S
C259 C264 1.391 . S
C259 H289 0.948 . S
C260 C259 1.391 . S
C260 C261 1.391 . S
C261 C260 1.391 . S
C261 C262 1.392 . S
C261 H290 0.947 . S
C262 C261 1.392 . S
C262 C263 1.419 . S
C262 H291 0.948 . S
C263 C262 1.419 . S
C263 C264 1.391 . S
C263 C267 1.397 . S
C264 C259 1.391 . S
C264 C263 1.391 . S
C264 C265 1.399 . S
C265 C264 1.399 . S
C265 C266 1.396 . S
C265 C268 1.453 . S
C265 C269 1.684 . S
C266 C247 1.723 . S
C266 C265 1.396 . S
C266 C267 1.394 . S
C267 C263 1.397 . S
C267 C266 1.394 . S
C267 C277 1.723 . S
C268 C265 1.453 . S
C268 H292 0.982 . S
C268 H293 0.979 . S
C268 H294 0.977 . S
C269 C265 1.684 . S
C269 H295 0.979 . S
C269 H296 0.980 . S
C269 H297 0.983 . S
C270 H246 0.948 . S
C270 C271 1.391 . S
C270 C275 1.391 . S
C271 C270 1.391 . S
C271 C272 1.391 . S
C272 H249 0.947 . S
C272 C271 1.391 . S
C272 C273 1.392 . S
C273 H250 0.948 . S
C273 C272 1.392 . S
C273 C274 1.419 . S
C274 C273 1.419 . S
C274 C275 1.391 . S
C274 C278 1.397 . S
C275 C270 1.391 . S
C275 C274 1.391 . S
C275 C276 1.399 . S
C276 C275 1.399 . S
C276 C277 1.396 . S
C276 C279 1.453 . S
C276 C280 1.684 . S
C277 C267 1.723 . S
C277 C276 1.396 . S
C277 C278 1.394 . S
C278 C248 1.723 . S
C278 C274 1.397 . S
C278 C277 1.394 . S
C279 H251 0.982 . S
C279 H255 0.979 . S
C279 H256 0.977 . S
C279 C276 1.453 . S
C280 H252 0.979 . S
C280 H253 0.980 . S
C280 H254 0.983 . S
C280 C276 1.684 . S
H281 C299 0.948 . S
H282 C240 0.948 . S
H283 C258 0.979 . S
H284 C258 0.980 . S
H285 C258 0.983 . S
H286 C257 0.982 . S
H287 C257 0.979 . S
H288 C257 0.977 . S
H289 C259 0.948 . S
H290 C261 0.947 . S
H291 C262 0.948 . S
H292 C268 0.982 . S
H293 C268 0.979 . S
H294 C268 0.977 . S
H295 C269 0.979 . S
H296 C269 0.980 . S
H297 C269 0.983 . S
H298 C242 0.947 . S
C299 C242 1.392 . S
C299 C243 1.419 . S
C299 H281 0.948 . S
C300 C301 1.391 . S
C300 C304 1.391 . S
C300 H342 0.948 . S
C301 C300 1.391 . S
C301 C302 1.391 . S
C302 C301 1.391 . S
C302 H358 0.947 . S
C302 C359 1.392 . S
C303 C304 1.391 . S
C303 C307 1.397 . S
C303 C359 1.419 . S
C304 C300 1.391 . S
C304 C303 1.391 . S
C304 C305 1.399 . S
C305 C304 1.399 . S
C305 C308 1.396 . S
C305 C317 1.453 . S
C305 C318 1.684 . S
H306 C330 0.948 . S
C307 C303 1.397 . S
C307 C308 1.394 . S
C307 C326 1.723 . S
C308 C305 1.396 . S
C308 C307 1.394 . S
C308 C338 1.723 . S
H309 C332 0.947 . S
H310 C333 0.948 . S
H311 C339 0.982 . S
H312 C340 0.979 . S
H313 C340 0.980 . S
H314 C340 0.983 . S
H315 C339 0.979 . S
H316 C339 0.977 . S
C317 C305 1.453 . S
C317 H346 0.982 . S
C317 H347 0.979 . S
C317 H348 0.977 . S
C318 C305 1.684 . S
C318 H343 0.979 . S
C318 H344 0.980 . S
C318 H345 0.983 . S
C319 C320 1.391 . S
C319 C324 1.391 . S
C319 H349 0.948 . S
C320 C319 1.391 . S
C320 C321 1.391 . S
C321 C320 1.391 . S
C321 C322 1.392 . S
C321 H350 0.947 . S
C322 C321 1.392 . S
C322 C323 1.419 . S
C322 H351 0.948 . S
C323 C322 1.419 . S
C323 C324 1.391 . S
C323 C327 1.397 . S
C324 C319 1.391 . S
C324 C323 1.391 . S
C324 C325 1.399 . S
C325 C324 1.399 . S
C325 C326 1.396 . S
C325 C328 1.453 . S
C325 C329 1.684 . S
C326 C307 1.723 . S
C326 C325 1.396 . S
C326 C327 1.394 . S
C327 C323 1.397 . S
C327 C326 1.394 . S
C327 C337 1.723 . S
C328 C325 1.453 . S
C328 H352 0.982 . S
C328 H353 0.979 . S
C328 H354 0.977 . S
C329 C325 1.684 . S
C329 H355 0.979 . S
C329 H356 0.980 . S
C329 H357 0.983 . S
C330 H306 0.948 . S
C330 C331 1.391 . S
C330 C335 1.391 . S
C331 C330 1.391 . S
C331 C332 1.391 . S
C332 H309 0.947 . S
C332 C331 1.391 . S
C332 C333 1.392 . S
C333 H310 0.948 . S
C333 C332 1.392 . S
C333 C334 1.419 . S
C334 C333 1.419 . S
C334 C335 1.391 . S
C334 C338 1.397 . S
C335 C330 1.391 . S
C335 C334 1.391 . S
C335 C336 1.399 . S
C336 C335 1.399 . S
C336 C337 1.396 . S
C336 C339 1.453 . S
C336 C340 1.684 . S
C337 C327 1.723 . S
C337 C336 1.396 . S
C337 C338 1.394 . S
C338 C308 1.723 . S
C338 C334 1.397 . S
C338 C337 1.394 . S
C339 H311 0.982 . S
C339 H315 0.979 . S
C339 H316 0.977 . S
C339 C336 1.453 . S
C340 H312 0.979 . S
C340 H313 0.980 . S
C340 H314 0.983 . S
C340 C336 1.684 . S
H341 C359 0.948 . S
H342 C300 0.948 . S
H343 C318 0.979 . S
H344 C318 0.980 . S
H345 C318 0.983 . S
H346 C317 0.982 . S
H347 C317 0.979 . S
H348 C317 0.977 . S
H349 C319 0.948 . S
H350 C321 0.947 . S
H351 C322 0.948 . S
H352 C328 0.982 . S
H353 C328 0.979 . S
H354 C328 0.977 . S
H355 C329 0.979 . S
H356 C329 0.980 . S
H357 C329 0.983 . S
H358 C302 0.947 . S
C359 C302 1.392 . S
C359 C303 1.419 . S
C359 H341 0.948 . S
C360 C361 1.391 . S
C360 C364 1.391 . S
C360 H402 0.948 . S
C361 C360 1.391 . S
C361 C362 1.391 . S
C362 C361 1.391 . S
C362 H418 0.947 . S
C362 C419 1.392 . S
C363 C364 1.391 . S
C363 C367 1.397 . S
C363 C419 1.419 . S
C364 C360 1.391 . S
C364 C363 1.391 . S
C364 C365 1.399 . S
C365 C364 1.399 . S
C365 C368 1.396 . S
C365 C377 1.453 . S
C365 C378 1.684 . S
H366 C390 0.948 . S
C367 C363 1.397 . S
C367 C368 1.394 . S
C367 C386 1.723 . S
C368 C365 1.396 . S
C368 C367 1.394 . S
C368 C398 1.723 . S
H369 C392 0.947 . S
H370 C393 0.948 . S
H371 C399 0.982 . S
H372 C400 0.979 . S
H373 C400 0.980 . S
H374 C400 0.983 . S
H375 C399 0.979 . S
H376 C399 0.977 . S
C377 C365 1.453 . S
C377 H406 0.982 . S
C377 H407 0.979 . S
C377 H408 0.977 . S
C378 C365 1.684 . S
C378 H403 0.979 . S
C378 H404 0.980 . S
C378 H405 0.983 . S
C379 C380 1.391 . S
C379 C384 1.391 . S
C379 H409 0.948 . S
C380 C379 1.391 . S
C380 C381 1.391 . S
C381 C380 1.391 . S
C381 C382 1.392 . S
C381 H410 0.947 . S
C382 C381 1.392 . S
C382 C383 1.419 . S
C382 H411 0.948 . S
C383 C382 1.419 . S
C383 C384 1.391 . S
C383 C387 1.397 . S
C384 C379 1.391 . S
C384 C383 1.391 . S
C384 C385 1.399 . S
C385 C384 1.399 . S
C385 C386 1.396 . S
C385 C388 1.453 . S
C385 C389 1.684 . S
C386 C367 1.723 . S
C386 C385 1.396 . S
C386 C387 1.394 . S
C387 C383 1.397 . S
C387 C386 1.394 . S
C387 C397 1.723 . S
C388 C385 1.453 . S
C388 H412 0.982 . S
C388 H413 0.979 . S
C388 H414 0.977 . S
C389 C385 1.684 . S
C389 H415 0.979 . S
C389 H416 0.980 . S
C389 H417 0.983 . S
C390 H366 0.948 . S
C390 C391 1.391 . S
C390 C395 1.391 . S
C391 C390 1.391 . S
C391 C392 1.391 . S
C392 H369 0.947 . S
C392 C391 1.391 . S
C392 C393 1.392 . S
C393 H370 0.948 . S
C393 C392 1.392 . S
C393 C394 1.419 . S
C394 C393 1.419 . S
C394 C395 1.391 . S
C394 C398 1.397 . S
C395 C390 1.391 . S
C395 C394 1.391 . S
C395 C396 1.399 . S
C396 C395 1.399 . S
C396 C397 1.396 . S
C396 C399 1.453 . S
C396 C400 1.684 . S
C397 C387 1.723 . S
C397 C396 1.396 . S
C397 C398 1.394 . S
C398 C368 1.723 . S
C398 C394 1.397 . S
C398 C397 1.394 . S
C399 H371 0.982 . S
C399 H375 0.979 . S
C399 H376 0.977 . S
C399 C396 1.453 . S
C400 H372 0.979 . S
C400 H373 0.980 . S
C400 H374 0.983 . S
C400 C396 1.684 . S
H401 C419 0.948 . S
H402 C360 0.948 . S
H403 C378 0.979 . S
H404 C378 0.980 . S
H405 C378 0.983 . S
H406 C377 0.982 . S
H407 C377 0.979 . S
H408 C377 0.977 . S
H409 C379 0.948 . S
H410 C381 0.947 . S
H411 C382 0.948 . S
H412 C388 0.982 . S
H413 C388 0.979 . S
H414 C388 0.977 . S
H415 C389 0.979 . S
H416 C389 0.980 . S
H417 C389 0.983 . S
H418 C362 0.947 . S
C419 C362 1.392 . S
C419 C363 1.419 . S
C419 H401 0.948 . S
C420 C421 1.391 . S
C420 C424 1.391 . S
C420 H462 0.948 . S
C421 C420 1.391 . S
C421 C422 1.391 . S
C422 C421 1.391 . S
C422 H478 0.947 . S
C422 C479 1.392 . S
C423 C424 1.391 . S
C423 C427 1.397 . S
C423 C479 1.419 . S
C424 C420 1.391 . S
C424 C423 1.391 . S
C424 C425 1.399 . S
C425 C424 1.399 . S
C425 C428 1.396 . S
C425 C437 1.453 . S
C425 C438 1.684 . S
H426 C450 0.948 . S
C427 C423 1.397 . S
C427 C428 1.394 . S
C427 C446 1.723 . S
C428 C425 1.396 . S
C428 C427 1.394 . S
C428 C458 1.723 . S
H429 C452 0.947 . S
H430 C453 0.948 . S
H431 C459 0.982 . S
H432 C460 0.979 . S
H433 C460 0.980 . S
H434 C460 0.983 . S
H435 C459 0.979 . S
H436 C459 0.977 . S
C437 C425 1.453 . S
C437 H466 0.982 . S
C437 H467 0.979 . S
C437 H468 0.977 . S
C438 C425 1.684 . S
C438 H463 0.979 . S
C438 H464 0.980 . S
C438 H465 0.983 . S
C439 C440 1.391 . S
C439 C444 1.391 . S
C439 H469 0.948 . S
C440 C439 1.391 . S
C440 C441 1.391 . S
C441 C440 1.391 . S
C441 C442 1.392 . S
C441 H470 0.947 . S
C442 C441 1.392 . S
C442 C443 1.419 . S
C442 H471 0.948 . S
C443 C442 1.419 . S
C443 C444 1.391 . S
C443 C447 1.397 . S
C444 C439 1.391 . S
C444 C443 1.391 . S
C444 C445 1.399 . S
C445 C444 1.399 . S
C445 C446 1.396 . S
C445 C448 1.453 . S
C445 C449 1.684 . S
C446 C427 1.723 . S
C446 C445 1.396 . S
C446 C447 1.394 . S
C447 C443 1.397 . S
C447 C446 1.394 . S
C447 C457 1.723 . S
C448 C445 1.453 . S
C448 H472 0.982 . S
C448 H473 0.979 . S
C448 H474 0.977 . S
C449 C445 1.684 . S
C449 H475 0.979 . S
C449 H476 0.980 . S
C449 H477 0.983 . S
C450 H426 0.948 . S
C450 C451 1.391 . S
C450 C455 1.391 . S
C451 C450 1.391 . S
C451 C452 1.391 . S
C452 H429 0.947 . S
C452 C451 1.391 . S
C452 C453 1.392 . S
C453 H430 0.948 . S
C453 C452 1.392 . S
C453 C454 1.419 . S
C454 C453 1.419 . S
C454 C455 1.391 . S
C454 C458 1.397 . S
C455 C450 1.391 . S
C455 C454 1.391 . S
C455 C456 1.399 . S
C456 C455 1.399 . S
C456 C457 1.396 . S
C456 C459 1.453 . S
C456 C460 1.684 . S
C457 C447 1.723 . S
C457 C456 1.396 . S
C457 C458 1.394 . S
C458 C428 1.723 . S
C458 C454 1.397 . S
C458 C457 1.394 . S
C459 H431 0.982 . S
C459 H435 0.979 . S
C459 H436 0.977 . S
C459 C456 1.453 . S
C460 H432 0.979 . S
C460 H433 0.980 . S
C460 H434 0.983 . S
C460 C456 1.684 . S
H461 C479 0.948 . S
H462 C420 0.948 . S
H463 C438 0.979 . S
H464 C438 0.980 . S
H465 C438 0.983 . S
H466 C437 0.982 . S
H467 C437 0.979 . S
H468 C437 0.977 . S
H469 C439 0.948 . S
H470 C441 0.947 . S
H471 C442 0.948 . S
H472 C448 0.982 . S
H473 C448 0.979 . S
H474 C448 0.977 . S
H475 C449 0.979 . S
H476 C449 0.980 . S
H477 C449 0.983 . S
H478 C422 0.947 . S
C479 C422 1.392 . S
C479 C423 1.419 . S
C479 H461 0.948 . S
C480 C481 1.391 . S
C480 C484 1.391 . S
C480 H522 0.948 . S
C481 C480 1.391 . S
C481 C482 1.391 . S
C482 C481 1.391 . S
C482 H538 0.947 . S
C482 C539 1.392 . S
C483 C484 1.391 . S
C483 C487 1.397 . S
C483 C539 1.419 . S
C484 C480 1.391 . S
C484 C483 1.391 . S
C484 C485 1.399 . S
C485 C484 1.399 . S
C485 C488 1.396 . S
C485 C497 1.453 . S
C485 C498 1.684 . S
H486 C510 0.948 . S
C487 C483 1.397 . S
C487 C488 1.394 . S
C487 C506 1.723 . S
C488 C485 1.396 . S
C488 C487 1.394 . S
C488 C518 1.723 . S
H489 C512 0.947 . S
H490 C513 0.948 . S
H491 C519 0.982 . S
H492 C520 0.979 . S
H493 C520 0.980 . S
H494 C520 0.983 . S
H495 C519 0.979 . S
H496 C519 0.977 . S
C497 C485 1.453 . S
C497 H526 0.982 . S
C497 H527 0.979 . S
C497 H528 0.977 . S
C498 C485 1.684 . S
C498 H523 0.979 . S
C498 H524 0.980 . S
C498 H525 0.983 . S
C499 C500 1.391 . S
C499 C504 1.391 . S
C499 H529 0.948 . S
C500 C499 1.391 . S
C500 C501 1.391 . S
C501 C500 1.391 . S
C501 C502 1.392 . S
C501 H530 0.947 . S
C502 C501 1.392 . S
C502 C503 1.419 . S
C502 H531 0.948 . S
C503 C502 1.419 . S
C503 C504 1.391 . S
C503 C507 1.397 . S
C504 C499 1.391 . S
C504 C503 1.391 . S
C504 C505 1.399 . S
C505 C504 1.399 . S
C505 C506 1.396 . S
C505 C508 1.453 . S
C505 C509 1.684 . S
C506 C487 1.723 . S
C506 C505 1.396 . S
C506 C507 1.394 . S
C507 C503 1.397 . S
C507 C506 1.394 . S
C507 C517 1.723 . S
C508 C505 1.453 . S
C508 H532 0.982 . S
C508 H533 0.979 . S
C508 H534 0.977 . S
C509 C505 1.684 . S
C509 H535 0.979 . S
C509 H536 0.980 . S
C509 H537 0.983 . S
C510 H486 0.948 . S
C510 C511 1.391 . S
C510 C515 1.391 . S
C511 C510 1.391 . S
C511 C512 1.391 . S
C512 H489 0.947 . S
C512 C511 1.391 . S
C512 C513 1.392 . S
C513 H490 0.948 . S
C513 C512 1.392 . S
C513 C514 1.419 . S
C514 C513 1.419 . S
C514 C515 1.391 . S
C514 C518 1.397 . S
C515 C510 1.391 . S
C515 C514 1.391 . S
C515 C516 1.399 . S
C516 C515 1.399 . S
C516 C517 1.396 . S
C516 C519 1.453 . S
C516 C520 1.684 . S
C517 C507 1.723 . S
C517 C516 1.396 . S
C517 C518 1.394 . S
C518 C488 1.723 . S
C518 C514 1.397 . S
C518 C517 1.394 . S
C519 H491 0.982 . S
C519 H495 0.979 . S
C519 H496 0.977 . S
C519 C516 1.453 . S
C520 H492 0.979 . S
C520 H493 0.980 . S
C520 H494 0.983 . S
C520 C516 1.684 . S
H521 C539 0.948 . S
H522 C480 0.948 . S
H523 C498 0.979 . S
H524 C498 0.980 . S
H525 C498 0.983 . S
H526 C497 0.982 . S
H527 C497 0.979 . S
H528 C497 0.977 . S
H529 C499 0.948 . S
H530 C501 0.947 . S
H531 C502 0.948 . S
H532 C508 0.982 . S
H533 C508 0.979 . S
H534 C508 0.977 . S
H535 C509 0.979 . S
H536 C509 0.980 . S
H537 C509 0.983 . S
H538 C482 0.947 . S
C539 C482 1.392 . S
C539 C483 1.419 . S
C539 H521 0.948 . S
C540 C541 1.391 . S
C540 C544 1.391 . S
C540 H582 0.948 . S
C541 C540 1.391 . S
C541 C542 1.391 . S
C542 C541 1.391 . S
C542 H598 0.947 . S
C542 C599 1.392 . S
C543 C544 1.391 . S
C543 C547 1.397 . S
C543 C599 1.419 . S
C544 C540 1.391 . S
C544 C543 1.391 . S
C544 C545 1.399 . S
C545 C544 1.399 . S
C545 C548 1.396 . S
C545 C557 1.453 . S
C545 C558 1.684 . S
H546 C570 0.948 . S
C547 C543 1.397 . S
C547 C548 1.394 . S
C547 C566 1.723 . S
C548 C545 1.396 . S
C548 C547 1.394 . S
C548 C578 1.723 . S
H549 C572 0.947 . S
H550 C573 0.948 . S
H551 C579 0.982 . S
H552 C580 0.979 . S
H553 C580 0.980 . S
H554 C580 0.983 . S
H555 C579 0.979 . S
H556 C579 0.977 . S
C557 C545 1.453 . S
C557 H586 0.982 . S
C557 H587 0.979 . S
C557 H588 0.977 . S
C558 C545 1.684 . S
C558 H583 0.979 . S
C558 H584 0.980 . S
C558 H585 0.983 . S
C559 C560 1.391 . S
C559 C564 1.391 . S
C559 H589 0.948 . S
C560 C559 1.391 . S
C560 C561 1.391 . S
C561 C560 1.391 . S
C561 C562 1.392 . S
C561 H590 0.947 . S
C562 C561 1.392 . S
C562 C563 1.419 . S
C562 H591 0.948 . S
C563 C562 1.419 . S
C563 C564 1.391 . S
C563 C567 1.397 . S
C564 C559 1.391 . S
C564 C563 1.391 . S
C564 C565 1.399 . S
C565 C564 1.399 . S
C565 C566 1.396 . S
C565 C568 1.453 . S
C565 C569 1.684 . S
C566 C547 1.723 . S
C566 C565 1.396 . S
C566 C567 1.394 . S
C567 C563 1.397 . S
C567 C566 1.394 . S
C567 C577 1.723 . S
C568 C565 1.453 . S
C568 H592 0.982 . S
C568 H593 0.979 . S
C568 H594 0.977 . S
C569 C565 1.684 . S
C569 H595 0.979 . S
C569 H596 0.980 . S
C569 H597 0.983 . S
C570 H546 0.948 . S
C570 C571 1.391 . S
C570 C575 1.391 . S
C571 C570 1.391 . S
C571 C572 1.391 . S
C572 H549 0.947 . S
C572 C571 1.391 . S
C572 C573 1.392 . S
C573 H550 0.948 . S
C573 C572 1.392 . S
C573 C574 1.419 . S
C574 C573 1.419 . S
C574 C575 1.391 . S
C574 C578 1.397 . S
C575 C570 1.391 . S
C575 C574 1.391 . S
C575 C576 1.399 . S
C576 C575 1.399 . S
C576 C577 1.396 . S
C576 C579 1.453 . S
C576 C580 1.684 . S
C577 C567 1.723 . S
C577 C576 1.396 . S
C577 C578 1.394 . S
C578 C548 1.723 . S
C578 C574 1.397 . S
C578 C577 1.394 . S
C579 H551 0.982 . S
C579 H555 0.979 . S
C579 H556 0.977 . S
C579 C576 1.453 . S
C580 H552 0.979 . S
C580 H553 0.980 . S
C580 H554 0.983 . S
C580 C576 1.684 . S
H581 C599 0.948 . S
H582 C540 0.948 . S
H583 C558 0.979 . S
H584 C558 0.980 . S
H585 C558 0.983 . S
H586 C557 0.982 . S
H587 C557 0.979 . S
H588 C557 0.977 . S
H589 C559 0.948 . S
H590 C561 0.947 . S
H591 C562 0.948 . S
H592 C568 0.982 . S
H593 C568 0.979 . S
H594 C568 0.977 . S
H595 C569 0.979 . S
H596 C569 0.980 . S
H597 C569 0.983 . S
H598 C542 0.947 . S
C599 C542 1.392 . S
C599 C543 1.419 . S
C599 H581 0.948 . S
C600 C601 1.391 . S
C600 C604 1.391 . S
C600 H642 0.948 . S
C601 C600 1.391 . S
C601 C602 1.391 . S
C602 C601 1.391 . S
C602 H658 0.947 . S
C602 C659 1.392 . S
C603 C604 1.391 . S
C603 C607 1.397 . S
C603 C659 1.419 . S
C604 C600 1.391 . S
C604 C603 1.391 . S
C604 C605 1.399 . S
C605 C604 1.399 . S
C605 C608 1.396 . S
C605 C617 1.453 . S
C605 C618 1.684 . S
H606 C630 0.948 . S
C607 C603 1.397 . S
C607 C608 1.394 . S
C607 C626 1.723 . S
C608 C605 1.396 . S
C608 C607 1.394 . S
C608 C638 1.723 . S
H609 C632 0.947 . S
H610 C633 0.948 . S
H611 C639 0.982 . S
H612 C640 0.979 . S
H613 C640 0.980 . S
H614 C640 0.983 . S
H615 C639 0.979 . S
H616 C639 0.977 . S
C617 C605 1.453 . S
C617 H646 0.982 . S
C617 H647 0.979 . S
C617 H648 0.977 . S
C618 C605 1.684 . S
C618 H643 0.979 . S
C618 H644 0.980 . S
C618 H645 0.983 . S
C619 C620 1.391 . S
C619 C624 1.391 . S
C619 H649 0.948 . S
C620 C619 1.391 . S
C620 C621 1.391 . S
C621 C620 1.391 . S
C621 C622 1.392 . S
C621 H650 0.947 . S
C622 C621 1.392 . S
C622 C623 1.419 . S
C622 H651 0.948 . S
C623 C622 1.419 . S
C623 C624 1.391 . S
C623 C627 1.397 . S
C624 C619 1.391 . S
C624 C623 1.391 . S
C624 C625 1.399 . S
C625 C624 1.399 . S
C625 C626 1.396 . S
C625 C628 1.453 . S
C625 C629 1.684 . S
C626 C607 1.723 . S
C626 C625 1.396 . S
C626 C627 1.394 . S
C627 C623 1.397 . S
C627 C626 1.394 . S
C627 C637 1.723 . S
C628 C625 1.453 . S
C628 H652 0.982 . S
C628 H653 0.979 . S
C628 H654 0.977 . S
C629 C625 1.684 . S
C629 H655 0.979 . S
C629 H656 0.980 . S
C629 H657 0.983 . S
C630 H606 0.948 . S
C630 C631 1.391 . S
C630 C635 1.391 . S
C631 C630 1.391 . S
C631 C632 1.391 . S
C632 H609 0.947 . S
C632 C631 1.391 . S
C632 C633 1.392 . S
C633 H610 0.948 . S
C633 C632 1.392 . S
C633 C634 1.419 . S
C634 C633 1.419 . S
C634 C635 1.391 . S
C634 C638 1.397 . S
C635 C630 1.391 . S
C635 C634 1.391 . S
C635 C636 1.399 . S
C636 C635 1.399 . S
C636 C637 1.396 . S
C636 C639 1.453 . S
C636 C640 1.684 . S
C637 C627 1.723 . S
C637 C636 1.396 . S
C637 C638 1.394 . S
C638 C608 1.723 . S
C638 C634 1.397 . S
C638 C637 1.394 . S
C639 H611 0.982 . S
C639 H615 0.979 . S
C639 H616 0.977 . S
C639 C636 1.453 . S
C640 H612 0.979 . S
C640 H613 0.980 . S
C640 H614 0.983 . S
C640 C636 1.684 . S
H641 C659 0.948 . S
H642 C600 0.948 . S
H643 C618 0.979 . S
H644 C618 0.980 . S
H645 C618 0.983 . S
H646 C617 0.982 . S
H647 C617 0.979 . S
H648 C617 0.977 . S
H649 C619 0.948 . S
H650 C621 0.947 . S
H651 C622 0.948 . S
H652 C628 0.982 . S
H653 C628 0.979 . S
H654 C628 0.977 . S
H655 C629 0.979 . S
H656 C629 0.980 . S
H657 C629 0.983 . S
H658 C602 0.947 . S
C659 C602 1.392 . S
C659 C603 1.419 . S
C659 H641 0.948 . S
C660 C661 1.391 . S
C660 C664 1.391 . S
C660 H702 0.948 . S
C661 C660 1.391 . S
C661 C662 1.391 . S
C662 C661 1.391 . S
C662 H718 0.947 . S
C662 C719 1.392 . S
C663 C664 1.391 . S
C663 C667 1.397 . S
C663 C719 1.419 . S
C664 C660 1.391 . S
C664 C663 1.391 . S
C664 C665 1.399 . S
C665 C664 1.399 . S
C665 C668 1.396 . S
C665 C677 1.453 . S
C665 C678 1.684 . S
H666 C690 0.948 . S
C667 C663 1.397 . S
C667 C668 1.394 . S
C667 C686 1.723 . S
C668 C665 1.396 . S
C668 C667 1.394 . S
C668 C698 1.723 . S
H669 C692 0.947 . S
H670 C693 0.948 . S
H671 C699 0.982 . S
H672 C700 0.979 . S
H673 C700 0.980 . S
H674 C700 0.983 . S
H675 C699 0.979 . S
H676 C699 0.977 . S
C677 C665 1.453 . S
C677 H706 0.982 . S
C677 H707 0.979 . S
C677 H708 0.977 . S
C678 C665 1.684 . S
C678 H703 0.979 . S
C678 H704 0.980 . S
C678 H705 0.983 . S
C679 C680 1.391 . S
C679 C684 1.391 . S
C679 H709 0.948 . S
C680 C679 1.391 . S
C680 C681 1.391 . S
C681 C680 1.391 . S
C681 C682 1.392 . S
C681 H710 0.947 . S
C682 C681 1.392 . S
C682 C683 1.419 . S
C682 H711 0.948 . S
C683 C682 1.419 . S
C683 C684 1.391 . S
C683 C687 1.397 . S
C684 C679 1.391 . S
C684 C683 1.391 . S
C684 C685 1.399 . S
C685 C684 1.399 . S
C685 C686 1.396 . S
C685 C688 1.453 . S
C685 C689 1.684 . S
C686 C667 1.723 . S
C686 C685 1.396 . S
C686 C687 1.394 . S
C687 C683 1.397 . S
C687 C686 1.394 . S
C687 C697 1.723 . S
C688 C685 1.453 . S
C688 H712 0.982 . S
C688 H713 0.979 . S
C688 H714 0.977 . S
C689 C685 1.684 . S
C689 H715 0.979 . S
C689 H716 0.980 . S
C689 H717 0.983 . S
C690 H666 0.948 . S
C690 C691 1.391 . S
C690 C695 1.391 . S
C691 C690 1.391 . S
C691 C692 1.391 . S
C692 H669 0.947 . S
C692 C691 1.391 . S
C692 C693 1.392 . S
C693 H670 0.948 . S
C693 C692 1.392 . S
C693 C694 1.419 . S
C694 C693 1.419 . S
C694 C695 1.391 . S
C694 C698 1.397 . S
C695 C690 1.391 . S
C695 C694 1.391 . S
C695 C696 1.399 . S
C696 C695 1.399 . S
C696 C697 1.396 . S
C696 C699 1.453 . S
C696 C700 1.684 . S
C697 C687 1.723 . S
C697 C696 1.396 . S
C697 C698 1.394 . S
C698 C668 1.723 . S
C698 C694 1.397 . S
C698 C697 1.394 . S
C699 H671 0.982 . S
C699 H675 0.979 . S
C699 H676 0.977 . S
C699 C696 1.453 . S
C700 H672 0.979 . S
C700 H673 0.980 . S
C700 H674 0.983 . S
C700 C696 1.684 . S
H701 C719 0.948 . S
H702 C660 0.948 . S
H703 C678 0.979 . S
H704 C678 0.980 . S
H705 C678 0.983 . S
H706 C677 0.982 . S
H707 C677 0.979 . S
H708 C677 0.977 . S
H709 C679 0.948 . S
H710 C681 0.947 . S
H711 C682 0.948 . S
H712 C688 0.982 . S
H713 C688 0.979 . S
H714 C688 0.977 . S
H715 C689 0.979 . S
H716 C689 0.980 . S
H717 C689 0.983 . S
H718 C662 0.947 . S
C719 C662 1.392 . S
C719 C663 1.419 . S
C719 H701 0.948 . S
C720 C721 1.391 . S
C720 C724 1.391 . S
C720 H762 0.948 . S
C721 C720 1.391 . S
C721 C722 1.391 . S
C722 C721 1.391 . S
C722 H778 0.947 . S
C722 C779 1.392 . S
C723 C724 1.391 . S
C723 C727 1.397 . S
C723 C779 1.419 . S
C724 C720 1.391 . S
C724 C723 1.391 . S
C724 C725 1.399 . S
C725 C724 1.399 . S
C725 C728 1.396 . S
C725 C737 1.453 . S
C725 C738 1.684 . S
H726 C750 0.948 . S
C727 C723 1.397 . S
C727 C728 1.394 . S
C727 C746 1.723 . S
C728 C725 1.396 . S
C728 C727 1.394 . S
C728 C758 1.723 . S
H729 C752 0.947 . S
H730 C753 0.948 . S
H731 C759 0.982 . S
H732 C760 0.979 . S
H733 C760 0.980 . S
H734 C760 0.983 . S
H735 C759 0.979 . S
H736 C759 0.977 . S
C737 C725 1.453 . S
C737 H766 0.982 . S
C737 H767 0.979 . S
C737 H768 0.977 . S
C738 C725 1.684 . S
C738 H763 0.979 . S
C738 H764 0.980 . S
C738 H765 0.983 . S
C739 C740 1.391 . S
C739 C744 1.391 . S
C739 H769 0.948 . S
C740 C739 1.391 . S
C740 C741 1.391 . S
C741 C740 1.391 . S
C741 C742 1.392 . S
C741 H770 0.947 . S
C742 C741 1.392 . S
C742 C743 1.419 . S
C742 H771 0.948 . S
C743 C742 1.419 . S
C743 C744 1.391 . S
C743 C747 1.397 . S
C744 C739 1.391 . S
C744 C743 1.391 . S
C744 C745 1.399 . S
C745 C744 1.399 . S
C745 C746 1.396 . S
C745 C748 1.453 . S
C745 C749 1.684 . S
C746 C727 1.723 . S
C746 C745 1.396 . S
C746 C747 1.394 . S
C747 C743 1.397 . S
C747 C746 1.394 . S
C747 C757 1.723 . S
C748 C745 1.453 . S
C748 H772 0.982 . S
C748 H773 0.979 . S
C748 H774 0.977 . S
C749 C745 1.684 . S
C749 H775 0.979 . S
C749 H776 0.980 . S
C749 H777 0.983 . S
C750 H726 0.948 . S
C750 C751 1.391 . S
C750 C755 1.391 . S
C751 C750 1.391 . S
C751 C752 1.391 . S
C752 H729 0.947 . S
C752 C751 1.391 . S
C752 C753 1.392 . S
C753 H730 0.948 . S
C753 C752 1.392 . S
C753 C754 1.419 . S
C754 C753 1.419 . S
C754 C755 1.391 . S
C754 C758 1.397 . S
C755 C750 1.391 . S
C755 C754 1.391 . S
C755 C756 1.399 . S
C756 C755 1.399 . S
C756 C757 1.396 . S
C756 C759 1.453 . S
C756 C760 1.684 . S
C757 C747 1.723 . S
C757 C756 1.396 . S
C757 C758 1.394 . S
C758 C728 1.723 . S
C758 C754 1.397 . S
C758 C757 1.394 . S
C759 H731 0.982 . S
C759 H735 0.979 . S
C759 H736 0.977 . S
C759 C756 1.453 . S
C760 H732 0.979 . S
C760 H733 0.980 . S
C760 H734 0.983 . S
C760 C756 1.684 . S
H761 C779 0.948 . S
H762 C720 0.948 . S
H763 C738 0.979 . S
H764 C738 0.980 . S
H765 C738 0.983 . S
H766 C737 0.982 . S
H767 C737 0.979 . S
H768 C737 0.977 . S
H769 C739 0.948 . S
H770 C741 0.947 . S
H771 C742 0.948 . S
H772 C748 0.982 . S
H773 C748 0.979 . S
H774 C748 0.977 . S
H775 C749 0.979 . S
H776 C749 0.980 . S
H777 C749 0.983 . S
H778 C722 0.947 . S
C779 C722 1.392 . S
C779 C723 1.419 . S
C779 H761 0.948 . S
C780 C781 1.391 . S
C780 C784 1.391 . S
C780 H822 0.948 . S
C781 C780 1.391 . S
C781 C782 1.391 . S
C782 C781 1.391 . S
C782 H838 0.947 . S
C782 C839 1.392 . S
C783 C784 1.391 . S
C783 C787 1.397 . S
C783 C839 1.419 . S
C784 C780 1.391 . S
C784 C783 1.391 . S
C784 C785 1.399 . S
C785 C784 1.399 . S
C785 C788 1.396 . S
C785 C797 1.453 . S
C785 C798 1.684 . S
H786 C810 0.948 . S
C787 C783 1.397 . S
C787 C788 1.394 . S
C787 C806 1.723 . S
C788 C785 1.396 . S
C788 C787 1.394 . S
C788 C818 1.723 . S
H789 C812 0.947 . S
H790 C813 0.948 . S
H791 C819 0.982 . S
H792 C820 0.979 . S
H793 C820 0.980 . S
H794 C820 0.983 . S
H795 C819 0.979 . S
H796 C819 0.977 . S
C797 C785 1.453 . S
C797 H826 0.982 . S
C797 H827 0.979 . S
C797 H828 0.977 . S
C798 C785 1.684 . S
C798 H823 0.979 . S
C798 H824 0.980 . S
C798 H825 0.983 . S
C799 C800 1.391 . S
C799 C804 1.391 . S
C799 H829 0.948 . S
C800 C799 1.391 . S
C800 C801 1.391 . S
C801 C800 1.391 . S
C801 C802 1.392 . S
C801 H830 0.947 . S
C802 C801 1.392 . S
C802 C803 1.419 . S
C802 H831 0.948 . S
C803 C802 1.419 . S
C803 C804 1.391 . S
C803 C807 1.397 . S
C804 C799 1.391 . S
C804 C803 1.391 . S
C804 C805 1.399 . S
C805 C804 1.399 . S
C805 C806 1.396 . S
C805 C808 1.453 . S
C805 C809 1.684 . S
C806 C787 1.723 . S
C806 C805 1.396 . S
C806 C807 1.394 . S
C807 C803 1.397 . S
C807 C806 1.394 . S
C807 C817 1.723 . S
C808 C805 1.453 . S
C808 H832 0.982 . S
C808 H833 0.979 . S
C808 H834 0.977 . S
C809 C805 1.684 . S
C809 H835 0.979 . S
C809 H836 0.980 . S
C809 H837 0.983 . S
C810 H786 0.948 . S
C810 C811 1.391 . S
C810 C815 1.391 . S
C811 C810 1.391 . S
C811 C812 1.391 . S
C812 H789 0.947 . S
C812 C811 1.391 . S
C812 C813 1.392 . S
C813 H790 0.948 . S
C813 C812 1.392 . S
C813 C814 1.419 . S
C814 C813 1.419 . S
C814 C815 1.391 . S
C814 C818 1.397 . S
C815 C810 1.391 . S
C815 C814 1.391 . S
C815 C816 1.399 . S
C816 C815 1.399 . S
C816 C817 1.396 . S
C816 C819 1.453 . S
C816 C820 1.684 . S
C817 C807 1.723 . S
C817 C816 1.396 . S
C817 C818 1.394 . S
C818 C788 1.723 . S
C818 C814 1.397 . S
C818 C817 1.394 . S
C819 H791 0.982 . S
C819 H795 0.979 . S
C819 H796 0.977 . S
C819 C816 1.453 . S
C820 H792 0.979 . S
C820 H793 0.980 . S
C820 H794 0.983 . S
C820 C816 1.684 . S
H821 C839 0.948 . S
H822 C780 0.948 . S
H823 C798 0.979 . S
H824 C798 0.980 . S
H825 C798 0.983 . S
H826 C797 0.982 . S
H827 C797 0.979 . S
H828 C797 0.977 . S
H829 C799 0.948 . S
H830 C801 0.947 . S
H831 C802 0.948 . S
H832 C808 0.982 . S
H833 C808 0.979 . S
H834 C808 0.977 . S
H835 C809 0.979 . S
H836 C809 0.980 . S
H837 C809 0.983 . S
H838 C782 0.947 . S
C839 C782 1.392 . S
C839 C783 1.419 . S
C839 H821 0.948 . S
C840 C841 1.391 . S
C840 C844 1.391 . S
C840 H882 0.948 . S
C841 C840 1.391 . S
C841 C842 1.391 . S
C842 C841 1.391 . S
C842 H898 0.947 . S
C842 C899 1.392 . S
C843 C844 1.391 . S
C843 C847 1.397 . S
C843 C899 1.419 . S
C844 C840 1.391 . S
C844 C843 1.391 . S
C844 C845 1.399 . S
C845 C844 1.399 . S
C845 C848 1.396 . S
C845 C857 1.453 . S
C845 C858 1.684 . S
H846 C870 0.948 . S
C847 C843 1.397 . S
C847 C848 1.394 . S
C847 C866 1.723 . S
C848 C845 1.396 . S
C848 C847 1.394 . S
C848 C878 1.723 . S
H849 C872 0.947 . S
H850 C873 0.948 . S
H851 C879 0.982 . S
H852 C880 0.979 . S
H853 C880 0.980 . S
H854 C880 0.983 . S
H855 C879 0.979 . S
H856 C879 0.977 . S
C857 C845 1.453 . S
C857 H886 0.982 . S
C857 H887 0.979 . S
C857 H888 0.977 . S
C858 C845 1.684 . S
C858 H883 0.979 . S
C858 H884 0.980 . S
C858 H885 0.983 . S
C859 C860 1.391 . S
C859 C864 1.391 . S
C859 H889 0.948 . S
C860 C859 1.391 . S
C860 C861 1.391 . S
C861 C860 1.391 . S
C861 C862 1.392 . S
C861 H890 0.947 . S
C862 C861 1.392 . S
C862 C863 1.419 . S
C862 H891 0.948 . S
C863 C862 1.419 . S
C863 C864 1.391 . S
C863 C867 1.397 . S
C864 C859 1.391 . S
C864 C863 1.391 . S
C864 C865 1.399 . S
C865 C864 1.399 . S
C865 C866 1.396 . S
C865 C868 1.453 . S
C865 C869 1.684 . S
C866 C847 1.723 . S
C866 C865 1.396 . S
C866 C867 1.394 . S
C867 C863 1.397 . S
C867 C866 1.394 . S
C867 C877 1.723 . S
C868 C865 1.453 . S
C868 H892 0.982 . S
C868 H893 0.979 . S
C868 H894 0.977 . S
C869 C865 1.684 . S
C869 H895 0.979 . S
C869 H896 0.980 . S
C869 H897 0.983 . S
C870 H846 0.948 . S
C870 C871 1.391 . S
C870 C875 1.391 . S
C871 C870 1.391 . S
C871 C872 1.391 . S
C872 H849 0.947 . S
C872 C871 1.391 . S
C872 C873 1.392 . S
C873 H850 0.948 . S
C873 C872 1.392 . S
C873 C874 1.419 . S
C874 C873 1.419 . S
C874 C875 1.391 . S
C874 C878 1.397 . S
C875 C870 1.391 . S
C875 C874 1.391 . S
C875 C876 1.399 . S
C876 C875 1.399 . S
C876 C877 1.396 . S
C876 C879 1.453 . S
C876 C880 1.684 . S
C877 C867 1.723 . S
C877 C876 1.396 . S
C877 C878 1.394 . S
C878 C848 1.723 . S
C878 C874 1.397 . S
C878 C877 1.394 . S
C879 H851 0.982 . S
C879 H855 0.979 . S
C879 H856 0.977 . S
C879 C876 1.453 . S
C880 H852 0.979 . S
C880 H853 0.980 . S
C880 H854 0.983 . S
C880 C876 1.684 . S
H881 C899 0.948 . S
H882 C840 0.948 . S
H883 C858 0.979 . S
H884 C858 0.980 . S
H885 C858 0.983 . S
H886 C857 0.982 . S
H887 C857 0.979 . S
H888 C857 0.977 . S
H889 C859 0.948 . S
H890 C861 0.947 . S
H891 C862 0.948 . S
H892 C868 0.982 . S
H893 C868 0.979 . S
H894 C868 0.977 . S
H895 C869 0.979 . S
H896 C869 0.980 . S
H897 C869 0.983 . S
H898 C842 0.947 . S
C899 C842 1.392 . S
C899 C843 1.419 . S
C899 H881 0.948 . S
C900 C901 1.391 . S
C900 C904 1.391 . S
C900 H942 0.948 . S
C901 C900 1.391 . S
C901 C902 1.391 . S
C902 C901 1.391 . S
C902 H958 0.947 . S
C902 C959 1.392 . S
C903 C904 1.391 . S
C903 C907 1.397 . S
C903 C959 1.419 . S
C904 C900 1.391 . S
C904 C903 1.391 . S
C904 C905 1.399 . S
C905 C904 1.399 . S
C905 C908 1.396 . S
C905 C917 1.453 . S
C905 C918 1.684 . S
H906 C930 0.948 . S
C907 C903 1.397 . S
C907 C908 1.394 . S
C907 C926 1.723 . S
C908 C905 1.396 . S
C908 C907 1.394 . S
C908 C938 1.723 . S
H909 C932 0.947 . S
H910 C933 0.948 . S
H911 C939 0.982 . S
H912 C940 0.979 . S
H913 C940 0.980 . S
H914 C940 0.983 . S
H915 C939 0.979 . S
H916 C939 0.977 . S
C917 C905 1.453 . S
C917 H946 0.982 . S
C917 H947 0.979 . S
C917 H948 0.977 . S
C918 C905 1.684 . S
C918 H943 0.979 . S
C918 H944 0.980 . S
C918 H945 0.983 . S
C919 C920 1.391 . S
C919 C924 1.391 . S
C919 H949 0.948 . S
C920 C919 1.391 . S
C920 C921 1.391 . S
C921 C920 1.391 . S
C921 C922 1.392 . S
C921 H950 0.947 . S
C922 C921 1.392 . S
C922 C923 1.419 . S
C922 H951 0.948 . S
C923 C922 1.419 . S
C923 C924 1.391 . S
C923 C927 1.397 . S
C924 C919 1.391 . S
C924 C923 1.391 . S
C924 C925 1.399 . S
C925 C924 1.399 . S
C925 C926 1.396 . S
C925 C928 1.453 . S
C925 C929 1.684 . S
C926 C907 1.723 . S
C926 C925 1.396 . S
C926 C927 1.394 . S
C927 C923 1.397 . S
C927 C926 1.394 . S
C927 C937 1.723 . S
C928 C925 1.453 . S
C928 H952 0.982 . S
C928 H953 0.979 . S
C928 H954 0.977 . S
C929 C925 1.684 . S
C929 H955 0.979 . S
C929 H956 0.980 . S
C929 H957 0.983 . S
C930 H906 0.948 . S
C930 C931 1.391 . S
C930 C935 1.391 . S
C931 C930 1.391 . S
C931 C932 1.391 . S
C932 H909 0.947 . S
C932 C931 1.391 . S
C932 C933 1.392 . S
C933 H910 0.948 . S
C933 C932 1.392 . S
C933 C934 1.419 . S
C934 C933 1.419 . S
C934 C935 1.391 . S
C934 C938 1.397 . S
C935 C930 1.391 . S
C935 C934 1.391 . S
C935 C936 1.399 . S
C936 C935 1.399 . S
C936 C937 1.396 . S
C936 C939 1.453 . S
C936 C940 1.684 . S
C937 C927 1.723 . S
C937 C936 1.396 . S
C937 C938 1.394 . S
C938 C908 1.723 . S
C938 C934 1.397 . S
C938 C937 1.394 . S
C939 H911 0.982 . S
C939 H915 0.979 . S
C939 H916 0.977 . S
C939 C936 1.453 . S
C940 H912 0.979 . S
C940 H913 0.980 . S
C940 H914 0.983 . S
C940 C936 1.684 . S
H941 C959 0.948 . S
H942 C900 0.948 . S
H943 C918 0.979 . S
H944 C918 0.980 . S
H945 C918 0.983 . S
H946 C917 0.982 . S
H947 C917 0.979 . S
H948 C917 0.977 . S
H949 C919 0.948 . S
H950 C921 0.947 . S
H951 C922 0.948 . S
H952 C928 0.982 . S
H953 C928 0.979 . S
H954 C928 0.977 . S
H955 C929 0.979 . S
H956 C929 0.980 . S
H957 C929 0.983 . S
H958 C902 0.947 . S
C959 C902 1.392 . S
C959 C903 1.419 . S
C959 H941 0.948 . S
C960 C961 1.391 . S
C960 C964 1.391 . S
C960 H1002 0.948 . S
C961 C960 1.391 . S
C961 C962 1.391 . S
C962 C961 1.391 . S
C962 H1018 0.947 . S
C962 C1019 1.392 . S
C963 C964 1.391 . S
C963 C967 1.397 . S
C963 C1019 1.419 . S
C964 C960 1.391 . S
C964 C963 1.391 . S
C964 C965 1.399 . S
C965 C964 1.399 . S
C965 C968 1.396 . S
C965 C977 1.453 . S
C965 C978 1.684 . S
H966 C990 0.948 . S
C967 C963 1.397 . S
C967 C968 1.394 . S
C967 C986 1.723 . S
C968 C965 1.396 . S
C968 C967 1.394 . S
C968 C998 1.723 . S
H969 C992 0.947 . S
H970 C993 0.948 . S
H971 C999 0.982 . S
H972 C1000 0.979 . S
H973 C1000 0.980 . S
H974 C1000 0.983 . S
H975 C999 0.979 . S
H976 C999 0.977 . S
C977 C965 1.453 . S
C977 H1006 0.982 . S
C977 H1007 0.979 . S
C977 H1008 0.977 . S
C978 C965 1.684 . S
C978 H1003 0.979 . S
C978 H1004 0.980 . S
C978 H1005 0.983 . S
C979 C980 1.391 . S
C979 C984 1.391 . S
C979 H1009 0.948 . S
C980 C979 1.391 . S
C980 C981 1.391 . S
C981 C980 1.391 . S
C981 C982 1.392 . S
C981 H1010 0.947 . S
C982 C981 1.392 . S
C982 C983 1.419 . S
C982 H1011 0.948 . S
C983 C982 1.419 . S
C983 C984 1.391 . S
C983 C987 1.397 . S
C984 C979 1.391 . S
C984 C983 1.391 . S
C984 C985 1.399 . S
C985 C984 1.399 . S
C985 C986 1.396 . S
C985 C988 1.453 . S
C985 C989 1.684 . S
C986 C967 1.723 . S
C986 C985 1.396 . S
C986 C987 1.394 . S
C987 C983 1.397 . S
C987 C986 1.394 . S
C987 C997 1.723 . S
C988 C985 1.453 . S
C988 H1012 0.982 . S
C988 H1013 0.979 . S
C988 H1014 0.977 . S
C989 C985 1.684 . S
C989 H1015 0.979 . S
C989 H1016 0.980 . S
C989 H1017 0.983 . S
C990 H966 0.948 . S
C990 C991 1.391 . S
C990 C995 1.391 . S
C991 C990 1.391 . S
C991 C992 1.391 . S
C992 H969 0.947 . S
C992 C991 1.391 . S
C992 C993 1.392 . S
C993 H970 0.948 . S
C993 C992 1.392 . S
C993 C994 1.419 . S
C994 C993 1.419 . S
C994 C995 1.391 . S
C994 C998 1.397 . S
C995 C990 1.391 . S
C995 C994 1.391 . S
C995 C996 1.399 . S
C996 C995 1.399 . S
C996 C997 1.396 . S
C996 C999 1.453 . S
C996 C1000 1.684 . S
C997 C987 1.723 . S
C997 C996 1.396 . S
C997 C998 1.394 . S
C998 C968 1.723 . S
C998 C994 1.397 . S
C998 C997 1.394 . S
C999 H971 0.982 . S
C999 H975 0.979 . S
C999 H976 0.977 . S
C999 C996 1.453 . S
C1000 H972 0.979 . S
C1000 H973 0.980 . S
C1000 H974 0.983 . S
C1000 C996 1.684 . S
H1001 C1019 0.948 . S
H1002 C960 0.948 . S
H1003 C978 0.979 . S
H1004 C978 0.980 . S
H1005 C978 0.983 . S
H1006 C977 0.982 . S
H1007 C977 0.979 . S
H1008 C977 0.977 . S
H1009 C979 0.948 . S
H1010 C981 0.947 . S
H1011 C982 0.948 . S
H1012 C988 0.982 . S
H1013 C988 0.979 . S
H1014 C988 0.977 . S
H1015 C989 0.979 . S
H1016 C989 0.980 . S
H1017 C989 0.983 . S
H1018 C962 0.947 . S
C1019 C962 1.392 . S
C1019 C963 1.419 . S
C1019 H1001 0.948 . S
C1020 C1021 1.391 . S
C1020 C1024 1.391 . S
C1020 H1062 0.948 . S
C1021 C1020 1.391 . S
C1021 C1022 1.391 . S
C1022 C1021 1.391 . S
C1022 H1078 0.947 . S
C1022 C1079 1.392 . S
C1023 C1024 1.391 . S
C1023 C1027 1.397 . S
C1023 C1079 1.419 . S
C1024 C1020 1.391 . S
C1024 C1023 1.391 . S
C1024 C1025 1.399 . S
C1025 C1024 1.399 . S
C1025 C1028 1.396 . S
C1025 C1037 1.453 . S
C1025 C1038 1.684 . S
H1026 C1050 0.948 . S
C1027 C1023 1.397 . S
C1027 C1028 1.394 . S
C1027 C1046 1.723 . S
C1028 C1025 1.396 . S
C1028 C1027 1.394 . S
C1028 C1058 1.723 . S
H1029 C1052 0.947 . S
H1030 C1053 0.948 . S
H1031 C1059 0.982 . S
H1032 C1060 0.979 . S
H1033 C1060 0.980 . S
H1034 C1060 0.983 . S
H1035 C1059 0.979 . S
H1036 C1059 0.977 . S
C1037 C1025 1.453 . S
C1037 H1066 0.982 . S
C1037 H1067 0.979 . S
C1037 H1068 0.977 . S
C1038 C1025 1.684 . S
C1038 H1063 0.979 . S
C1038 H1064 0.980 . S
C1038 H1065 0.983 . S
C1039 C1040 1.391 . S
C1039 C1044 1.391 . S
C1039 H1069 0.948 . S
C1040 C1039 1.391 . S
C1040 C1041 1.391 . S
C1041 C1040 1.391 . S
C1041 C1042 1.392 . S
C1041 H1070 0.947 . S
C1042 C1041 1.392 . S
C1042 C1043 1.419 . S
C1042 H1071 0.948 . S
C1043 C1042 1.419 . S
C1043 C1044 1.391 . S
C1043 C1047 1.397 . S
C1044 C1039 1.391 . S
C1044 C1043 1.391 . S
C1044 C1045 1.399 . S
C1045 C1044 1.399 . S
C1045 C1046 1.396 . S
C1045 C1048 1.453 . S
C1045 C1049 1.684 . S
C1046 C1027 1.723 . S
C1046 C1045 1.396 . S
C1046 C1047 1.394 . S
C1047 C1043 1.397 . S
C1047 C1046 1.394 . S
C1047 C1057 1.723 . S
C1048 C1045 1.453 . S
C1048 H1072 0.982 . S
C1048 H1073 0.979 . S
C1048 H1074 0.977 . S
C1049 C1045 1.684 . S
C1049 H1075 0.979 . S
C1049 H1076 0.980 . S
C1049 H1077 0.983 . S
C1050 H1026 0.948 . S
C1050 C1051 1.391 . S
C1050 C1055 1.391 . S
C1051 C1050 1.391 . S
C1051 C1052 1.391 . S
C1052 H1029 0.947 . S
C1052 C1051 1.391 . S
C1052 C1053 1.392 . S
C1053 H1030 0.948 . S
C1053 C1052 1.392 . S
C1053 C1054 1.419 . S
C1054 C1053 1.419 . S
C1054 C1055 1.391 . S
C1054 C1058 1.397 . S
C1055 C1050 1.391 . S
C1055 C1054 1.391 . S
C1055 C1056 1.399 . S
C1056 C1055 1.399 . S
C1056 C1057 1.396 . S
C1056 C1059 1.453 . S
C1056 C1060 1.684 . S
C1057 C1047 1.723 . S
C1057 C1056 1.396 . S
C1057 C1058 1.394 . S
C1058 C1028 1.723 . S
C1058 C1054 1.397 . S
C1058 C1057 1.394 . S
C1059 H1031 0.982 . S
C1059 H1035 0.979 . S
C1059 H1036 0.977 . S
C1059 C1056 1.453 . S
C1060 H1032 0.979 . S
C1060 H1033 0.980 . S
C1060 H1034 0.983 . S
C1060 C1056 1.684 . S
H1061 C1079 0.948 . S
H1062 C1020 0.948 . S
H1063 C1038 0.979 . S
H1064 C1038 0.980 . S
H1065 C1038 0.983 . S
H1066 C1037 0.982 . S
H1067 C1037 0.979 . S
H1068 C1037 0.977 . S
H1069 C1039 0.948 . S
H1070 C1041 0.947 . S
H1071 C1042 0.948 . S
H1072 C1048 0.982 . S
H1073 C1048 0.979 . S
H1074 C1048 0.977 . S
H1075 C1049 0.979 . S
H1076 C1049 0.980 . S
H1077 C1049 0.983 . S
H1078 C1022 0.947 . S
C1079 C1022 1.392 . S
C1079 C1023 1.419 . S
C1079 H1061 0.948 . S
C1080 C1081 1.391 . S
C1080 C1084 1.391 . S
C1080 H1122 0.948 . S
C1081 C1080 1.391 . S
C1081 C1082 1.391 . S
C1082 C1081 1.391 . S
C1082 H1138 0.947 . S
C1082 C1139 1.392 . S
C1083 C1084 1.391 . S
C1083 C1087 1.397 . S
C1083 C1139 1.419 . S
C1084 C1080 1.391 . S
C1084 C1083 1.391 . S
C1084 C1085 1.399 . S
C1085 C1084 1.399 . S
C1085 C1088 1.396 . S
C1085 C1097 1.453 . S
C1085 C1098 1.684 . S
H1086 C1110 0.948 . S
C1087 C1083 1.397 . S
C1087 C1088 1.394 . S
C1087 C1106 1.723 . S
C1088 C1085 1.396 . S
C1088 C1087 1.394 . S
C1088 C1118 1.723 . S
H1089 C1112 0.947 . S
H1090 C1113 0.948 . S
H1091 C1119 0.982 . S
H1092 C1120 0.979 . S
H1093 C1120 0.980 . S
H1094 C1120 0.983 . S
H1095 C1119 0.979 . S
H1096 C1119 0.977 . S
C1097 C1085 1.453 . S
C1097 H1126 0.982 . S
C1097 H1127 0.979 . S
C1097 H1128 0.977 . S
C1098 C1085 1.684 . S
C1098 H1123 0.979 . S
C1098 H1124 0.980 . S
C1098 H1125 0.983 . S
C1099 C1100 1.391 . S
C1099 C1104 1.391 . S
C1099 H1129 0.948 . S
C1100 C1099 1.391 . S
C1100 C1101 1.391 . S
C1101 C1100 1.391 . S
C1101 C1102 1.392 . S
C1101 H1130 0.947 . S
C1102 C1101 1.392 . S
C1102 C1103 1.419 . S
C1102 H1131 0.948 . S
C1103 C1102 1.419 . S
C1103 C1104 1.391 . S
C1103 C1107 1.397 . S
C1104 C1099 1.391 . S
C1104 C1103 1.391 . S
C1104 C1105 1.399 . S
C1105 C1104 1.399 . S
C1105 C1106 1.396 . S
C1105 C1108 1.453 . S
C1105 C1109 1.684 . S
C1106 C1087 1.723 . S
C1106 C1105 1.396 . S
C1106 C1107 1.394 . S
C1107 C1103 1.397 . S
C1107 C1106 1.394 . S
C1107 C1117 1.723 . S
C1108 C1105 1.453 . S
C1108 H1132 0.982 . S
C1108 H1133 0.979 . S
C1108 H1134 0.977 . S
C1109 C1105 1.684 . S
C1109 H1135 0.979 . S
C1109 H1136 0.980 . S
C1109 H1137 0.983 . S
C1110 H1086 0.948 . S
C1110 C1111 1.391 . S
C1110 C1115 1.391 . S
C1111 C1110 1.391 . S
C1111 C1112 1.391 . S
C1112 H1089 0.947 . S
C1112 C1111 1.391 . S
C1112 C1113 1.392 . S
C1113 H1090 0.948 . S
C1113 C1112 1.392 . S
C1113 C1114 1.419 . S
C1114 C1113 1.419 . S
C1114 C1115 1.391 . S
C1114 C1118 1.397 . S
C1115 C1110 1.391 . S
C1115 C1114 1.391 . S
C1115 C1116 1.399 . S
C1116 C1115 1.399 . S
C1116 C1117 1.396 . S
C1116 C1119 1.453 . S
C1116 C1120 1.684 . S
C1117 C1107 1.723 . S
C1117 C1116 1.396 . S
C1117 C1118 1.394 . S
C1118 C1088 1.723 . S
C1118 C1114 1.397 . S
C1118 C1117 1.394 . S
C1119 H1091 0.982 . S
C1119 H1095 0.979 . S
C1119 H1096 0.977 . S
C1119 C1116 1.453 . S
C1120 H1092 0.979 . S
C1120 H1093 0.980 . S
C1120 H1094 0.983 . S
C1120 C1116 1.684 . S
H1121 C1139 0.948 . S
H1122 C1080 0.948 . S
H1123 C1098 0.979 . S
H1124 C1098 0.980 . S
H1125 C1098 0.983 . S
H1126 C1097 0.982 . S
H1127 C1097 0.979 . S
H1128 C1097 0.977 . S
H1129 C1099 0.948 . S
H1130 C1101 0.947 . S
H1131 C1102 0.948 . S
H1132 C1108 0.982 . S
H1133 C1108 0.979 . S
H1134 C1108 0.977 . S
H1135 C1109 0.979 . S
H1136 C1109 0.980 . S
H1137 C1109 0.983 . S
H1138 C1082 0.947 . S
C1139 C1082 1.392 . S
C1139 C1083 1.419 . S
C1139 H1121 0.948 . S
C1140 C1141 1.391 . S
C1140 C1144 1.391 . S
C1140 H1182 0.948 . S
C1141 C1140 1.391 . S
C1141 C1142 1.391 . S
C1142 C1141 1.391 . S
C1142 H1198 0.947 . S
C1142 C1199 1.392 . S
C1143 C1144 1.391 . S
C1143 C1147 1.397 . S
C1143 C1199 1.419 . S
C1144 C1140 1.391 . S
C1144 C1143 1.391 . S
C1144 C1145 1.399 . S
C1145 C1144 1.399 . S
C1145 C1148 1.396 . S
C1145 C1157 1.453 . S
C1145 C1158 1.684 . S
H1146 C1170 0.948 . S
C1147 C1143 1.397 . S
C1147 C1148 1.394 . S
C1147 C1166 1.723 . S
C1148 C1145 1.396 . S
C1148 C1147 1.394 . S
C1148 C1178 1.723 . S
H1149 C1172 0.947 . S
H1150 C1173 0.948 . S
H1151 C1179 0.982 . S
H1152 C1180 0.979 . S
H1153 C1180 0.980 . S
H1154 C1180 0.983 . S
H1155 C1179 0.979 . S
H1156 C1179 0.977 . S
C1157 C1145 1.453 . S
C1157 H1186 0.982 . S
C1157 H1187 0.979 . S
C1157 H1188 0.977 . S
C1158 C1145 1.684 . S
C1158 H1183 0.979 . S
C1158 H1184 0.980 . S
C1158 H1185 0.983 . S
C1159 C1160 1.391 . S
C1159 C1164 1.391 . S
C1159 H1189 0.948 . S
C1160 C1159 1.391 . S
C1160 C1161 1.391 . S
C1161 C1160 1.391 . S
C1161 C1162 1.392 . S
C1161 H1190 0.947 . S
C1162 C1161 1.392 . S
C1162 C1163 1.419 . S
C1162 H1191 0.948 . S
C1163 C1162 1.419 . S
C1163 C1164 1.391 . S
C1163 C1167 1.397 . S
C1164 C1159 1.391 . S
C1164 C1163 1.391 . S
C1164 C1165 1.399 . S
C1165 C1164 1.399 . S
C1165 C1166 1.396 . S
C1165 C1168 1.453 . S
C1165 C1169 1.684 . S
C1166 C1147 1.723 . S
C1166 C1165 1.396 . S
C1166 C1167 1.394 . S
C1167 C1163 1.397 . S
C1167 C1166 1.394 . S
C1167 C1177 1.723 . S
C1168 C1165 1.453 . S
C1168 H1192 0.982 . S
C1168 H1193 0.979 . S
C1168 H1194 0.977 . S
C1169 C1165 1.684 . S
C1169 H1195 0.979 . S
C1169 H1196 0.980 . S
C1169 H1197 0.983 . S
C1170 H1146 0.948 . S
C1170 C1171 1.391 . S
C1170 C1175 1.391 . S
C1171 C1170 1.391 . S
C1171 C1172 1.391 . S
C1172 H1149 0.947 . S
C1172 C1171 1.391 . S
C1172 C1173 1.392 . S
C1173 H1150 0.948 . S
C1173 C1172 1.392 . S
C1173 C1174 1.419 . S
C1174 C1173 1.419 . S
C1174 C1175 1.391 . S
C1174 C1178 1.397 . S
C1175 C1170 1.391 . S
C1175 C1174 1.391 . S
C1175 C1176 1.399 . S
C1176 C1175 1.399 . S
C1176 C1177 1.396 . S
C1176 C1179 1.453 . S
C1176 C1180 1.684 . S
C1177 C1167 1.723 . S
C1177 C1176 1.396 . S
C1177 C1178 1.394 . S
C1178 C1148 1.723 . S
C1178 C1174 1.397 . S
C1178 C1177 1.394 . S
C1179 H1151 0.982 . S
C1179 H1155 0.979 . S
C1179 H1156 0.977 . S
C1179 C1176 1.453 . S
C1180 H1152 0.979 . S
C1180 H1153 0.980 . S
C1180 H1154 0.983 . S
C1180 C1176 1.684 . S
H1181 C1199 0.948 . S
H1182 C1140 0.948 . S
H1183 C1158 0.979 . S
H1184 C1158 0.980 . S
H1185 C1158 0.983 . S
H1186 C1157 0.982 . S
H1187 C1157 0.979 . S
H1188 C1157 0.977 . S
H1189 C1159 0.948 . S
H1190 C1161 0.947 . S
H1191 C1162 0.948 . S
H1192 C1168 0.982 . S
H1193 C1168 0.979 . S
H1194 C1168 0.977 . S
H1195 C1169 0.979 . S
H1196 C1169 0.980 . S
H1197 C1169 0.983 . S
H1198 C1142 0.947 . S
C1199 C1142 1.392 . S
C1199 C1143 1.419 . S
C1199 H1181 0.948 . S
C1200 C1201 1.391 . S
C1200 C1204 1.391 . S
C1200 H1242 0.948 . S
C1201 C1200 1.391 . S
C1201 C1202 1.391 . S
C1202 C1201 1.391 . S
C1202 H1258 0.947 . S
C1202 C1259 1.392 . S
C1203 C1204 1.391 . S
C1203 C1207 1.397 . S
C1203 C1259 1.419 . S
C1204 C1200 1.391 . S
C1204 C1203 1.391 . S
C1204 C1205 1.399 . S
C1205 C1204 1.399 . S
C1205 C1208 1.396 . S
C1205 C1217 1.453 . S
C1205 C1218 1.684 . S
H1206 C1230 0.948 . S
C1207 C1203 1.397 . S
C1207 C1208 1.394 . S
C1207 C1226 1.723 . S
C1208 C1205 1.396 . S
C1208 C1207 1.394 . S
C1208 C1238 1.723 . S
H1209 C1232 0.947 . S
H1210 C1233 0.948 . S
H1211 C1239 0.982 . S
H1212 C1240 0.979 . S
H1213 C1240 0.980 . S
H1214 C1240 0.983 . S
H1215 C1239 0.979 . S
H1216 C1239 0.977 . S
C1217 C1205 1.453 . S
C1217 H1246 0.982 . S
C1217 H1247 0.979 . S
C1217 H1248 0.977 . S
C1218 C1205 1.684 . S
C1218 H1243 0.979 . S
C1218 H1244 0.980 . S
C1218 H1245 0.983 . S
C1219 C1220 1.391 . S
C1219 C1224 1.391 . S
C1219 H1249 0.948 . S
C1220 C1219 1.391 . S
C1220 C1221 1.391 . S
C1221 C1220 1.391 . S
C1221 C1222 1.392 . S
C1221 H1250 0.947 . S
C1222 C1221 1.392 . S
C1222 C1223 1.419 . S
C1222 H1251 0.948 . S
C1223 C1222 1.419 . S
C1223 C1224 1.391 . S
C1223 C1227 1.397 . S
C1224 C1219 1.391 . S
C1224 C1223 1.391 . S
C1224 C1225 1.399 . S
C1225 C1224 1.399 . S
C1225 C1226 1.396 . S
C1225 C1228 1.453 . S
C1225 C1229 1.684 . S
C1226 C1207 1.723 . S
C1226 C1225 1.396 . S
C1226 C1227 1.394 . S
C1227 C1223 1.397 . S
C1227 C1226 1.394 . S
C1227 C1237 1.723 . S
C1228 C1225 1.453 . S
C1228 H1252 0.982 . S
C1228 H1253 0.979 . S
C1228 H1254 0.977 . S
C1229 C1225 1.684 . S
C1229 H1255 0.979 . S
C1229 H1256 0.980 . S
C1229 H1257 0.983 . S
C1230 H1206 0.948 . S
C1230 C1231 1.391 . S
C1230 C1235 1.391 . S
C1231 C1230 1.391 . S
C1231 C1232 1.391 . S
C1232 H1209 0.947 . S
C1232 C1231 1.391 . S
C1232 C1233 1.392 . S
C1233 H1210 0.948 . S
C1233 C1232 1.392 . S
C1233 C1234 1.419 . S
C1234 C1233 1.419 . S
C1234 C1235 1.391 . S
C1234 C1238 1.397 . S
C1235 C1230 1.391 . S
C1235 C1234 1.391 . S
C1235 C1236 1.399 . S
C1236 C1235 1.399 . S
C1236 C1237 1.396 . S
C1236 C1239 1.453 . S
C1236 C1240 1.684 . S
C1237 C1227 1.723 . S
C1237 C1236 1.396 . S
C1237 C1238 1.394 . S
C1238 C1208 1.723 . S
C1238 C1234 1.397 . S
C1238 C1237 1.394 . S
C1239 H1211 0.982 . S
C1239 H1215 0.979 . S
C1239 H1216 0.977 . S
C1239 C1236 1.453 . S
C1240 H1212 0.979 . S
C1240 H1213 0.980 . S
C1240 H1214 0.983 . S
C1240 C1236 1.684 . S
H1241 C1259 0.948 . S
H1242 C1200 0.948 . S
H1243 C1218 0.979 . S
H1244 C1218 0.980 . S
H1245 C1218 0.983 . S
H1246 C1217 0.982 . S
H1247 C1217 0.979 . S
H1248 C1217 0.977 . S
H1249 C1219 0.948 . S
H1250 C1221 0.947 . S
H1251 C1222 0.948 . S
H1252 C1228 0.982 . S
H1253 C1228 0.979 . S
H1254 C1228 0.977 . S
H1255 C1229 0.979 . S
H1256 C1229 0.980 . S
H1257 C1229 0.983 . S
H1258 C1202 0.947 . S
C1259 C1202 1.392 . S
C1259 C1203 1.419 . S
C1259 H1241 0.948 . S
C1260 C1261 1.391 . S
C1260 C1264 1.391 . S
C1260 H1302 0.948 . S
C1261 C1260 1.391 . S
C1261 C1262 1.391 . S
C1262 C1261 1.391 . S
C1262 H1318 0.947 . S
C1262 C1319 1.392 . S
C1263 C1264 1.391 . S
C1263 C1267 1.397 . S
C1263 C1319 1.419 . S
C1264 C1260 1.391 . S
C1264 C1263 1.391 . S
C1264 C1265 1.399 . S
C1265 C1264 1.399 . S
C1265 C1268 1.396 . S
C1265 C1277 1.453 . S
C1265 C1278 1.684 . S
H1266 C1290 0.948 . S
C1267 C1263 1.397 . S
C1267 C1268 1.394 . S
C1267 C1286 1.723 . S
C1268 C1265 1.396 . S
C1268 C1267 1.394 . S
C1268 C1298 1.723 . S
H1269 C1292 0.947 . S
H1270 C1293 0.948 . S
H1271 C1299 0.982 . S
H1272 C1300 0.979 . S
H1273 C1300 0.980 . S
H1274 C1300 0.983 . S
H1275 C1299 0.979 . S
H1276 C1299 0.977 . S
C1277 C1265 1.453 . S
C1277 H1306 0.982 . S
C1277 H1307 0.979 . S
C1277 H1308 0.977 . S
C1278 C1265 1.684 . S
C1278 H1303 0.979 . S
C1278 H1304 0.980 . S
C1278 H1305 0.983 . S
C1279 C1280 1.391 . S
C1279 C1284 1.391 . S
C1279 H1309 0.948 . S
C1280 C1279 1.391 . S
C1280 C1281 1.391 . S
C1281 C1280 1.391 . S
C1281 C1282 1.392 . S
C1281 H1310 0.947 . S
C1282 C1281 1.392 . S
C1282 C1283 1.419 . S
C1282 H1311 0.948 . S
C1283 C1282 1.419 . S
C1283 C1284 1.391 . S
C1283 C1287 1.397 . S
C1284 C1279 1.391 . S
C1284 C1283 1.391 . S
C1284 C1285 1.399 . S
C1285 C1284 1.399 . S
C1285 C1286 1.396 . S
C1285 C1288 1.453 . S
C1285 C1289 1.684 . S
C1286 C1267 1.723 . S
C1286 C1285 1.396 . S
C1286 C1287 1.394 . S
C1287 C1283 1.397 . S
C1287 C1286 1.394 . S
C1287 C1297 1.723 . S
C1288 C1285 1.453 . S
C1288 H1312 0.982 . S
C1288 H1313 0.979 . S
C1288 H1314 0.977 . S
C1289 C1285 1.684 . S
C1289 H1315 0.979 . S
C1289 H1316 0.980 . S
C1289 H1317 0.983 . S
C1290 H1266 0.948 . S
C1290 C1291 1.391 . S
C1290 C1295 1.391 . S
C1291 C1290 1.391 . S
C1291 C1292 1.391 . S
C1292 H1269 0.947 . S
C1292 C1291 1.391 . S
C1292 C1293 1.392 . S
C1293 H1270 0.948 . S
C1293 C1292 1.392 . S
C1293 C1294 1.419 . S
C1294 C1293 1.419 . S
C1294 C1295 1.391 . S
C1294 C1298 1.397 . S
C1295 C1290 1.391 . S
C1295 C1294 1.391 . S
C1295 C1296 1.399 . S
C1296 C1295 1.399 . S
C1296 C1297 1.396 . S
C1296 C1299 1.453 . S
C1296 C1300 1.684 . S
C1297 C1287 1.723 . S
C1297 C1296 1.396 . S
C1297 C1298 1.394 . S
C1298 C1268 1.723 . S
C1298 C1294 1.397 . S
C1298 C1297 1.394 . S
C1299 H1271 0.982 . S
C1299 H1275 0.979 . S
C1299 H1276 0.977 . S
C1299 C1296 1.453 . S
C1300 H1272 0.979 . S
C1300 H1273 0.980 . S
C1300 H1274 0.983 . S
C1300 C1296 1.684 . S
H1301 C1319 0.948 . S
H1302 C1260 0.948 . S
H1303 C1278 0.979 . S
H1304 C1278 0.980 . S
H1305 C1278 0.983 . S
H1306 C1277 0.982 . S
H1307 C1277 0.979 . S
H1308 C1277 0.977 . S
H1309 C1279 0.948 . S
H1310 C1281 0.947 . S
H1311 C1282 0.948 . S
H1312 C1288 0.982 . S
H1313 C1288 0.979 . S
H1314 C1288 0.977 . S
H1315 C1289 0.979 . S
H1316 C1289 0.980 . S
H1317 C1289 0.983 . S
H1318 C1262 0.947 . S
C1319 C1262 1.392 . S
C1319 C1263 1.419 . S
C1319 H1301 0.948 . S
C1320 C1321 1.391 . S
C1320 C1324 1.391 . S
C1320 H1362 0.948 . S
C1321 C1320 1.391 . S
C1321 C1322 1.391 . S
C1322 C1321 1.391 . S
C1322 H1378 0.947 . S
C1322 C1379 1.392 . S
C1323 C1324 1.391 . S
C1323 C1327 1.397 . S
C1323 C1379 1.419 . S
C1324 C1320 1.391 . S
C1324 C1323 1.391 . S
C1324 C1325 1.399 . S
C1325 C1324 1.399 . S
C1325 C1328 1.396 . S
C1325 C1337 1.453 . S
C1325 C1338 1.684 . S
H1326 C1350 0.948 . S
C1327 C1323 1.397 . S
C1327 C1328 1.394 . S
C1327 C1346 1.723 . S
C1328 C1325 1.396 . S
C1328 C1327 1.394 . S
C1328 C1358 1.723 . S
H1329 C1352 0.947 . S
H1330 C1353 0.948 . S
H1331 C1359 0.982 . S
H1332 C1360 0.979 . S
H1333 C1360 0.980 . S
H1334 C1360 0.983 . S
H1335 C1359 0.979 . S
H1336 C1359 0.977 . S
C1337 C1325 1.453 . S
C1337 H1366 0.982 . S
C1337 H1367 0.979 . S
C1337 H1368 0.977 . S
C1338 C1325 1.684 . S
C1338 H1363 0.979 . S
C1338 H1364 0.980 . S
C1338 H1365 0.983 . S
C1339 C1340 1.391 . S
C1339 C1344 1.391 . S
C1339 H1369 0.948 . S
C1340 C1339 1.391 . S
C1340 C1341 1.391 . S
C1341 C1340 1.391 . S
C1341 C1342 1.392 . S
C1341 H1370 0.947 . S
C1342 C1341 1.392 . S
C1342 C1343 1.419 . S
C1342 H1371 0.948 . S
C1343 C1342 1.419 . S
C1343 C1344 1.391 . S
C1343 C1347 1.397 . S
C1344 C1339 1.391 . S
C1344 C1343 1.391 . S
C1344 C1345 1.399 . S
C1345 C1344 1.399 . S
C1345 C1346 1.396 . S
C1345 C1348 1.453 . S
C1345 C1349 1.684 . S
C1346 C1327 1.723 . S
C1346 C1345 1.396 . S
C1346 C1347 1.394 . S
C1347 C1343 1.397 . S
C1347 C1346 1.394 . S
C1347 C1357 1.723 . S
C1348 C1345 1.453 . S
C1348 H1372 0.982 . S
C1348 H1373 0.979 . S
C1348 H1374 0.977 . S
C1349 C1345 1.684 . S
C1349 H1375 0.979 . S
C1349 H1376 0.980 . S
C1349 H1377 0.983 . S
C1350 H1326 0.948 . S
C1350 C1351 1.391 . S
C1350 C1355 1.391 . S
C1351 C1350 1.391 . S
C1351 C1352 1.391 . S
C1352 H1329 0.947 . S
C1352 C1351 1.391 . S
C1352 C1353 1.392 . S
C1353 H1330 0.948 . S
C1353 C1352 1.392 . S
C1353 C1354 1.419 . S
C1354 C1353 1.419 . S
C1354 C1355 1.391 . S
C1354 C1358 1.397 . S
C1355 C1350 1.391 . S
C1355 C1354 1.391 . S
C1355 C1356 1.399 . S
C1356 C1355 1.399 . S
C1356 C1357 1.396 . S
C1356 C1359 1.453 . S
C1356 C1360 1.684 . S
C1357 C1347 1.723 . S
C1357 C1356 1.396 . S
C1357 C1358 1.394 . S
C1358 C1328 1.723 . S
C1358 C1354 1.397 . S
C1358 C1357 1.394 . S
C1359 H1331 0.982 . S
C1359 H1335 0.979 . S
C1359 H1336 0.977 . S
C1359 C1356 1.453 . S
C1360 H1332 0.979 . S
C1360 H1333 0.980 . S
C1360 H1334 0.983 . S
C1360 C1356 1.684 . S
H1361 C1379 0.948 . S
H1362 C1320 0.948 . S
H1363 C1338 0.979 . S
H1364 C1338 0.980 . S
H1365 C1338 0.983 . S
H1366 C1337 0.982 . S
H1367 C1337 0.979 . S
H1368 C1337 0.977 . S
H1369 C1339 0.948 . S
H1370 C1341 0.947 . S
H1371 C1342 0.948 . S
H1372 C1348 0.982 . S
H1373 C1348 0.979 . S
H1374 C1348 0.977 . S
H1375 C1349 0.979 . S
H1376 C1349 0.980 . S
H1377 C1349 0.983 . S
H1378 C1322 0.947 . S
C1379 C1322 1.392 . S
C1379 C1323 1.419 . S
C1379 H1361 0.948 . S
C1380 C1381 1.391 . S
C1380 C1384 1.391 . S
C1380 H1422 0.948 . S
C1381 C1380 1.391 . S
C1381 C1382 1.391 . S
C1382 C1381 1.391 . S
C1382 H1438 0.947 . S
C1382 C1439 1.392 . S
C1383 C1384 1.391 . S
C1383 C1387 1.397 . S
C1383 C1439 1.419 . S
C1384 C1380 1.391 . S
C1384 C1383 1.391 . S
C1384 C1385 1.399 . S
C1385 C1384 1.399 . S
C1385 C1388 1.396 . S
C1385 C1397 1.453 . S
C1385 C1398 1.684 . S
H1386 C1410 0.948 . S
C1387 C1383 1.397 . S
C1387 C1388 1.394 . S
C1387 C1406 1.723 . S
C1388 C1385 1.396 . S
C1388 C1387 1.394 . S
C1388 C1418 1.723 . S
H1389 C1412 0.947 . S
H1390 C1413 0.948 . S
H1391 C1419 0.982 . S
H1392 C1420 0.979 . S
H1393 C1420 0.980 . S
H1394 C1420 0.983 . S
H1395 C1419 0.979 . S
H1396 C1419 0.977 . S
C1397 C1385 1.453 . S
C1397 H1426 0.982 . S
C1397 H1427 0.979 . S
C1397 H1428 0.977 . S
C1398 C1385 1.684 . S
C1398 H1423 0.979 . S
C1398 H1424 0.980 . S
C1398 H1425 0.983 . S
C1399 C1400 1.391 . S
C1399 C1404 1.391 . S
C1399 H1429 0.948 . S
C1400 C1399 1.391 . S
C1400 C1401 1.391 . S
C1401 C1400 1.391 . S
C1401 C1402 1.392 . S
C1401 H1430 0.947 . S
C1402 C1401 1.392 . S
C1402 C1403 1.419 . S
C1402 H1431 0.948 . S
C1403 C1402 1.419 . S
C1403 C1404 1.391 . S
C1403 C1407 1.397 . S
C1404 C1399 1.391 . S
C1404 C1403 1.391 . S
C1404 C1405 1.399 . S
C1405 C1404 1.399 . S
C1405 C1406 1.396 . S
C1405 C1408 1.453 . S
C1405 C1409 1.684 . S
C1406 C1387 1.723 . S
C1406 C1405 1.396 . S
C1406 C1407 1.394 . S
C1407 C1403 1.397 . S
C1407 C1406 1.394 . S
C1407 C1417 1.723 . S
C1408 C1405 1.453 . S
C1408 H1432 0.982 . S
C1408 H1433 0.979 . S
C1408 H1434 0.977 . S
C1409 C1405 1.684 . S
C1409 H1435 0.979 . S
C1409 H1436 0.980 . S
C1409 H1437 0.983 . S
C1410 H1386 0.948 . S
C1410 C1411 1.391 . S
C1410 C1415 1.391 . S
C1411 C1410 1.391 . S
C1411 C1412 1.391 . S
C1412 H1389 0.947 . S
C1412 C1411 1.391 . S
C1412 C1413 1.392 . S
C1413 H1390 0.948 . S
C1413 C1412 1.392 . S
C1413 C1414 1.419 . S
C1414 C1413 1.419 . S
C1414 C1415 1.391 . S
C1414 C1418 1.397 . S
C1415 C1410 1.391 . S
C1415 C1414 1.391 . S
C1415 C1416 1.399 . S
C1416 C1415 1.399 . S
C1416 C1417 1.396 . S
C1416 C1419 1.453 . S
C1416 C1420 1.684 . S
C1417 C1407 1.723 . S
C1417 C1416 1.396 . S
C1417 C1418 1.394 . S
C1418 C1388 1.723 . S
C1418 C1414 1.397 . S
C1418 C1417 1.394 . S
C1419 H1391 0.982 . S
C1419 H1395 0.979 . S
C1419 H1396 0.977 . S
C1419 C1416 1.453 . S
C1420 H1392 0.979 . S
C1420 H1393 0.980 . S
C1420 H1394 0.983 . S
C1420 C1416 1.684 . S
H1421 C1439 0.948 . S
H1422 C1380 0.948 . S
H1423 C1398 0.979 . S
H1424 C1398 0.980 . S
H1425 C1398 0.983 . S
H1426 C1397 0.982 . S
H1427 C1397 0.979 . S
H1428 C1397 0.977 . S
H1429 C1399 0.948 . S
H1430 C1401 0.947 . S
H1431 C1402 0.948 . S
H1432 C1408 0.982 . S
H1433 C1408 0.979 . S
H1434 C1408 0.977 . S
H1435 C1409 0.979 . S
H1436 C1409 0.980 . S
H1437 C1409 0.983 . S
H1438 C1382 0.947 . S
C1439 C1382 1.392 . S
C1439 C1383 1.419 . S
C1439 H1421 0.948 . S
C1440 C1441 1.391 . S
C1440 C1444 1.391 . S
C1440 H1482 0.948 . S
C1441 C1440 1.391 . S
C1441 C1442 1.391 . S
C1442 C1441 1.391 . S
C1442 H1498 0.947 . S
C1442 C1499 1.392 . S
C1443 C1444 1.391 . S
C1443 C1447 1.397 . S
C1443 C1499 1.419 . S
C1444 C1440 1.391 . S
C1444 C1443 1.391 . S
C1444 C1445 1.399 . S
C1445 C1444 1.399 . S
C1445 C1448 1.396 . S
C1445 C1457 1.453 . S
C1445 C1458 1.684 . S
H1446 C1470 0.948 . S
C1447 C1443 1.397 . S
C1447 C1448 1.394 . S
C1447 C1466 1.723 . S
C1448 C1445 1.396 . S
C1448 C1447 1.394 . S
C1448 C1478 1.723 . S
H1449 C1472 0.947 . S
H1450 C1473 0.948 . S
H1451 C1479 0.982 . S
H1452 C1480 0.979 . S
H1453 C1480 0.980 . S
H1454 C1480 0.983 . S
H1455 C1479 0.979 . S
H1456 C1479 0.977 . S
C1457 C1445 1.453 . S
C1457 H1486 0.982 . S
C1457 H1487 0.979 . S
C1457 H1488 0.977 . S
C1458 C1445 1.684 . S
C1458 H1483 0.979 . S
C1458 H1484 0.980 . S
C1458 H1485 0.983 . S
C1459 C1460 1.391 . S
C1459 C1464 1.391 . S
C1459 H1489 0.948 . S
C1460 C1459 1.391 . S
C1460 C1461 1.391 . S
C1461 C1460 1.391 . S
C1461 C1462 1.392 . S
C1461 H1490 0.947 . S
C1462 C1461 1.392 . S
C1462 C1463 1.419 . S
C1462 H1491 0.948 . S
C1463 C1462 1.419 . S
C1463 C1464 1.391 . S
C1463 C1467 1.397 . S
C1464 C1459 1.391 . S
C1464 C1463 1.391 . S
C1464 C1465 1.399 . S
C1465 C1464 1.399 . S
C1465 C1466 1.396 . S
C1465 C1468 1.453 . S
C1465 C1469 1.684 . S
C1466 C1447 1.723 . S
C1466 C1465 1.396 . S
C1466 C1467 1.394 . S
C1467 C1463 1.397 . S
C1467 C1466 1.394 . S
C1467 C1477 1.723 . S
C1468 C1465 1.453 . S
C1468 H1492 0.982 . S
C1468 H1493 0.979 . S
C1468 H1494 0.977 . S
C1469 C1465 1.684 . S
C1469 H1495 0.979 . S
C1469 H1496 0.980 . S
C1469 H1497 0.983 . S
C1470 H1446 0.948 . S
C1470 C1471 1.391 . S
C1470 C1475 1.391 . S
C1471 C1470 1.391 . S
C1471 C1472 1.391 . S
C1472 H1449 0.947 . S
C1472 C1471 1.391 . S
C1472 C1473 1.392 . S
C1473 H1450 0.948 . S
C1473 C1472 1.392 . S
C1473 C1474 1.419 . S
C1474 C1473 1.419 . S
C1474 C1475 1.391 . S
C1474 C1478 1.397 . S
C1475 C1470 1.391 . S
C1475 C1474 1.391 . S
C1475 C1476 1.399 . S
C1476 C1475 1.399 . S
C1476 C1477 1.396 . S
C1476 C1479 1.453 . S
C1476 C1480 1.684 . S
C1477 C1467 1.723 . S
C1477 C1476 1.396 . S
C1477 C1478 1.394 . S
C1478 C1448 1.723 . S
C1478 C1474 1.397 . S
C1478 C1477 1.394 . S
C1479 H1451 0.982 . S
C1479 H1455 0.979 . S
C1479 H1456 0.977 . S
C1479 C1476 1.453 . S
C1480 H1452 0.979 . S
C1480 H1453 0.980 . S
C1480 H1454 0.983 . S
C1480 C1476 1.684 . S
H1481 C1499 0.948 . S
H1482 C1440 0.948 . S
H1483 C1458 0.979 . S
H1484 C1458 0.980 . S
H1485 C1458 0.983 . S
H1486 C1457 0.982 . S
H1487 C1457 0.979 . S
H1488 C1457 0.977 . S
H1489 C1459 0.948 . S
H1490 C1461 0.947 . S
H1491 C1462 0.948 . S
H1492 C1468 0.982 . S
H1493 C1468 0.979 . S
H1494 C1468 0.977 . S
H1495 C1469 0.979 . S
H1496 C1469 0.980 . S
H1497 C1469 0.983 . S
H1498 C1442 0.947 . S
C1499 C1442 1.392 . S
C1499 C1443 1.419 . S
C1499 H1481 0.948 . S
C1500 C1501 1.391 . S
C1500 C1504 1.391 . S
C1500 H1542 0.948 . S
C1501 C1500 1.391 . S
C1501 C1502 1.391 . S
C1502 C1501 1.391 . S
C1502 H1558 0.947 . S
C1502 C1559 1.392 . S
C1503 C1504 1.391 . S
C1503 C1507 1.397 . S
C1503 C1559 1.419 . S
C1504 C1500 1.391 . S
C1504 C1503 1.391 . S
C1504 C1505 1.399 . S
C1505 C1504 1.399 . S
C1505 C1508 1.396 . S
C1505 C1517 1.453 . S
C1505 C1518 1.684 . S
H1506 C1530 0.948 . S
C1507 C1503 1.397 . S
C1507 C1508 1.394 . S
C1507 C1526 1.723 . S
C1508 C1505 1.396 . S
C1508 C1507 1.394 . S
C1508 C1538 1.723 . S
H1509 C1532 0.947 . S
H1510 C1533 0.948 . S
H1511 C1539 0.982 . S
H1512 C1540 0.979 . S
H1513 C1540 0.980 . S
H1514 C1540 0.983 . S
H1515 C1539 0.979 . S
H1516 C1539 0.977 . S
C1517 C1505 1.453 . S
C1517 H1546 0.982 . S
C1517 H1547 0.979 . S
C1517 H1548 0.977 . S
C1518 C1505 1.684 . S
C1518 H1543 0.979 . S
C1518 H1544 0.980 . S
C1518 H1545 0.983 . S
C1519 C1520 1.391 . S
C1519 C1524 1.391 . S
C1519 H1549 0.948 . S
C1520 C1519 1.391 . S
C1520 C1521 1.391 . S
C1521 C1520 1.391 . S
C1521 C1522 1.392 . S
C1521 H1550 0.947 . S
C1522 C1521 1.392 . S
C1522 C1523 1.419 . S
C1522 H1551 0.948 . S
C1523 C1522 1.419 . S
C1523 C1524 1.391 . S
C1523 C1527 1.397 . S
C1524 C1519 1.391 . S
C1524 C1523 1.391 . S
C1524 C1525 1.399 . S
C1525 C1524 1.399 . S
C1525 C1526 1.396 . S
C1525 C1528 1.453 . S
C1525 C1529 1.684 . S
C1526 C1507 1.723 . S
C1526 C1525 1.396 . S
C1526 C1527 1.394 . S
C1527 C1523 1.397 . S
C1527 C1526 1.394 . S
C1527 C1537 1.723 . S
C1528 C1525 1.453 . S
C1528 H1552 0.982 . S
C1528 H1553 0.979 . S
C1528 H1554 0.977 . S
C1529 C1525 1.684 . S
C1529 H1555 0.979 . S
C1529 H1556 0.980 . S
C1529 H1557 0.983 . S
C1530 H1506 0.948 . S
C1530 C1531 1.391 . S
C1530 C1535 1.391 . S
C1531 C1530 1.391 . S
C1531 C1532 1.391 . S
C1532 H1509 0.947 . S
C1532 C1531 1.391 . S
C1532 C1533 1.392 . S
C1533 H1510 0.948 . S
C1533 C1532 1.392 . S
C1533 C1534 1.419 . S
C1534 C1533 1.419 . S
C1534 C1535 1.391 . S
C1534 C1538 1.397 . S
C1535 C1530 1.391 . S
C1535 C1534 1.391 . S
C1535 C1536 1.399 . S
C1536 C1535 1.399 . S
C1536 C1537 1.396 . S
C1536 C1539 1.453 . S
C1536 C1540 1.684 . S
C1537 C1527 1.723 . S
C1537 C1536 1.396 . S
C1537 C1538 1.394 . S
C1538 C1508 1.723 . S
C1538 C1534 1.397 . S
C1538 C1537 1.394 . S
C1539 H1511 0.982 . S
C1539 H1515 0.979 . S
C1539 H1516 0.977 . S
C1539 C1536 1.453 . S
C1540 H1512 0.979 . S
C1540 H1513 0.980 . S
C1540 H1514 0.983 . S
C1540 C1536 1.684 . S
H1541 C1559 0.948 . S
H1542 C1500 0.948 . S
H1543 C1518 0.979 . S
H1544 C1518 0.980 . S
H1545 C1518 0.983 . S
H1546 C1517 0.982 . S
H1547 C1517 0.979 . S
H1548 C1517 0.977 . S
H1549 C1519 0.948 . S
H1550 C1521 0.947 . S
H1551 C1522 0.948 . S
H1552 C1528 0.982 . S
H1553 C1528 0.979 . S
H1554 C1528 0.977 . S
H1555 C1529 0.979 . S
H1556 C1529 0.980 . S
H1557 C1529 0.983 . S
H1558 C1502 0.947 . S
C1559 C1502 1.392 . S
C1559 C1503 1.419 . S
C1559 H1541 0.948 . S
C1560 C1561 1.391 . S
C1560 C1564 1.391 . S
C1560 H1602 0.948 . S
C1561 C1560 1.391 . S
C1561 C1562 1.391 . S
C1562 C1561 1.391 . S
C1562 H1618 0.947 . S
C1562 C1619 1.392 . S
C1563 C1564 1.391 . S
C1563 C1567 1.397 . S
C1563 C1619 1.419 . S
C1564 C1560 1.391 . S
C1564 C1563 1.391 . S
C1564 C1565 1.399 . S
C1565 C1564 1.399 . S
C1565 C1568 1.396 . S
C1565 C1577 1.453 . S
C1565 C1578 1.684 . S
H1566 C1590 0.948 . S
C1567 C1563 1.397 . S
C1567 C1568 1.394 . S
C1567 C1586 1.723 . S
C1568 C1565 1.396 . S
C1568 C1567 1.394 . S
C1568 C1598 1.723 . S
H1569 C1592 0.947 . S
H1570 C1593 0.948 . S
H1571 C1599 0.982 . S
H1572 C1600 0.979 . S
H1573 C1600 0.980 . S
H1574 C1600 0.983 . S
H1575 C1599 0.979 . S
H1576 C1599 0.977 . S
C1577 C1565 1.453 . S
C1577 H1606 0.982 . S
C1577 H1607 0.979 . S
C1577 H1608 0.977 . S
C1578 C1565 1.684 . S
C1578 H1603 0.979 . S
C1578 H1604 0.980 . S
C1578 H1605 0.983 . S
C1579 C1580 1.391 . S
C1579 C1584 1.391 . S
C1579 H1609 0.948 . S
C1580 C1579 1.391 . S
C1580 C1581 1.391 . S
C1581 C1580 1.391 . S
C1581 C1582 1.392 . S
C1581 H1610 0.947 . S
C1582 C1581 1.392 . S
C1582 C1583 1.419 . S
C1582 H1611 0.948 . S
C1583 C1582 1.419 . S
C1583 C1584 1.391 . S
C1583 C1587 1.397 . S
C1584 C1579 1.391 . S
C1584 C1583 1.391 . S
C1584 C1585 1.399 . S
C1585 C1584 1.399 . S
C1585 C1586 1.396 . S
C1585 C1588 1.453 . S
C1585 C1589 1.684 . S
C1586 C1567 1.723 . S
C1586 C1585 1.396 . S
C1586 C1587 1.394 . S
C1587 C1583 1.397 . S
C1587 C1586 1.394 . S
C1587 C1597 1.723 . S
C1588 C1585 1.453 . S
C1588 H1612 0.982 . S
C1588 H1613 0.979 . S
C1588 H1614 0.977 . S
C1589 C1585 1.684 . S
C1589 H1615 0.979 . S
C1589 H1616 0.980 . S
C1589 H1617 0.983 . S
C1590 H1566 0.948 . S
C1590 C1591 1.391 . S
C1590 C1595 1.391 . S
C1591 C1590 1.391 . S
C1591 C1592 1.391 . S
C1592 H1569 0.947 . S
C1592 C1591 1.391 . S
C1592 C1593 1.392 . S
C1593 H1570 0.948 . S
C1593 C1592 1.392 . S
C1593 C1594 1.419 . S
C1594 C1593 1.419 . S
C1594 C1595 1.391 . S
C1594 C1598 1.397 . S
C1595 C1590 1.391 . S
C1595 C1594 1.391 . S
C1595 C1596 1.399 . S
C1596 C1595 1.399 . S
C1596 C1597 1.396 . S
C1596 C1599 1.453 . S
C1596 C1600 1.684 . S
C1597 C1587 1.723 . S
C1597 C1596 1.396 . S
C1597 C1598 1.394 . S
C1598 C1568 1.723 . S
C1598 C1594 1.397 . S
C1598 C1597 1.394 . S
C1599 H1571 0.982 . S
C1599 H1575 0.979 . S
C1599 H1576 0.977 . S
C1599 C1596 1.453 . S
C1600 H1572 0.979 . S
C1600 H1573 0.980 . S
C1600 H1574 0.983 . S
C1600 C1596 1.684 . S
H1601 C1619 0.948 . S
H1602 C1560 0.948 . S
H1603 C1578 0.979 . S
H1604 C1578 0.980 . S
H1605 C1578 0.983 . S
H1606 C1577 0.982 . S
H1607 C1577 0.979 . S
H1608 C1577 0.977 . S
H1609 C1579 0.948 . S
H1610 C1581 0.947 . S
H1611 C1582 0.948 . S
H1612 C1588 0.982 . S
H1613 C1588 0.979 . S
H1614 C1588 0.977 . S
H1615 C1589 0.979 . S
H1616 C1589 0.980 . S
H1617 C1589 0.983 . S
H1618 C1562 0.947 . S
C1619 C1562 1.392 . S
C1619 C1563 1.419 . S
C1619 H1601 0.948 . S
C1620 C1621 1.391 . S
C1620 C1624 1.391 . S
C1620 H1662 0.948 . S
C1621 C1620 1.391 . S
C1621 C1622 1.391 . S
C1622 C1621 1.391 . S
C1622 H1678 0.947 . S
C1622 C1679 1.392 . S
C1623 C1624 1.391 . S
C1623 C1627 1.397 . S
C1623 C1679 1.419 . S
C1624 C1620 1.391 . S
C1624 C1623 1.391 . S
C1624 C1625 1.399 . S
C1625 C1624 1.399 . S
C1625 C1628 1.396 . S
C1625 C1637 1.453 . S
C1625 C1638 1.684 . S
H1626 C1650 0.948 . S
C1627 C1623 1.397 . S
C1627 C1628 1.394 . S
C1627 C1646 1.723 . S
C1628 C1625 1.396 . S
C1628 C1627 1.394 . S
C1628 C1658 1.723 . S
H1629 C1652 0.947 . S
H1630 C1653 0.948 . S
H1631 C1659 0.982 . S
H1632 C1660 0.979 . S
H1633 C1660 0.980 . S
H1634 C1660 0.983 . S
H1635 C1659 0.979 . S
H1636 C1659 0.977 . S
C1637 C1625 1.453 . S
C1637 H1666 0.982 . S
C1637 H1667 0.979 . S
C1637 H1668 0.977 . S
C1638 C1625 1.684 . S
C1638 H1663 0.979 . S
C1638 H1664 0.980 . S
C1638 H1665 0.983 . S
C1639 C1640 1.391 . S
C1639 C1644 1.391 . S
C1639 H1669 0.948 . S
C1640 C1639 1.391 . S
C1640 C1641 1.391 . S
C1641 C1640 1.391 . S
C1641 C1642 1.392 . S
C1641 H1670 0.947 . S
C1642 C1641 1.392 . S
C1642 C1643 1.419 . S
C1642 H1671 0.948 . S
C1643 C1642 1.419 . S
C1643 C1644 1.391 . S
C1643 C1647 1.397 . S
C1644 C1639 1.391 . S
C1644 C1643 1.391 . S
C1644 C1645 1.399 . S
C1645 C1644 1.399 . S
C1645 C1646 1.396 . S
C1645 C1648 1.453 . S
C1645 C1649 1.684 . S
C1646 C1627 1.723 . S
C1646 C1645 1.396 . S
C1646 C1647 1.394 . S
C1647 C1643 1.397 . S
C1647 C1646 1.394 . S
C1647 C1657 1.723 . S
C1648 C1645 1.453 . S
C1648 H1672 0.982 . S
C1648 H1673 0.979 . S
C1648 H1674 0.977 . S
C1649 C1645 1.684 . S
C1649 H1675 0.979 . S
C1649 H1676 0.980 . S
C1649 H1677 0.983 . S
C1650 H1626 0.948 . S
C1650 C1651 1.391 . S
C1650 C1655 1.391 . S
C1651 C1650 1.391 . S
C1651 C1652 1.391 . S
C1652 H1629 0.947 . S
C1652 C1651 1.391 . S
C1652 C1653 1.392 . S
C1653 H1630 0.948 . S
C1653 C1652 1.392 . S
C1653 C1654 1.419 . S
C1654 C1653 1.419 . S
C1654 C1655 1.391 . S
C1654 C1658 1.397 . S
C1655 C1650 1.391 . S
C1655 C1654 1.391 . S
C1655 C1656 1.399 . S
C1656 C1655 1.399 . S
C1656 C1657 1.396 . S
C1656 C1659 1.453 . S
C1656 C1660 1.684 . S
C1657 C1647 1.723 . S
C1657 C1656 1.396 . S
C1657 C1658 1.394 . S
C1658 C1628 1.723 . S
C1658 C1654 1.397 . S
C1658 C1657 1.394 . S
C1659 H1631 0.982 . S
C1659 H1635 0.979 . S
C1659 H1636 0.977 . S
C1659 C1656 1.453 . S
C1660 H1632 0.979 . S
C1660 H1633 0.980 . S
C1660 H1634 0.983 . S
C1660 C1656 1.684 . S
H1661 C1679 0.948 . S
H1662 C1620 0.948 . S
H1663 C1638 0.979 . S
H1664 C1638 0.980 . S
H1665 C1638 0.983 . S
H1666 C1637 0.982 . S
H1667 C1637 0.979 . S
H1668 C1637 0.977 . S
H1669 C1639 0.948 . S
H1670 C1641 0.947 . S
H1671 C1642 0.948 . S
H1672 C1648 0.982 . S
H1673 C1648 0.979 . S
H1674 C1648 0.977 . S
H1675 C1649 0.979 . S
H1676 C1649 0.980 . S
H1677 C1649 0.983 . S
H1678 C1622 0.947 . S
C1679 C1622 1.392 . S
C1679 C1623 1.419 . S
C1679 H1661 0.948 . S
C1680 C1681 1.391 . S
C1680 C1684 1.391 . S
C1680 H1722 0.948 . S
C1681 C1680 1.391 . S
C1681 C1682 1.391 . S
C1682 C1681 1.391 . S
C1682 H1738 0.947 . S
C1682 C1739 1.392 . S
C1683 C1684 1.391 . S
C1683 C1687 1.397 . S
C1683 C1739 1.419 . S
C1684 C1680 1.391 . S
C1684 C1683 1.391 . S
C1684 C1685 1.399 . S
C1685 C1684 1.399 . S
C1685 C1688 1.396 . S
C1685 C1697 1.453 . S
C1685 C1698 1.684 . S
H1686 C1710 0.948 . S
C1687 C1683 1.397 . S
C1687 C1688 1.394 . S
C1687 C1706 1.723 . S
C1688 C1685 1.396 . S
C1688 C1687 1.394 . S
C1688 C1718 1.723 . S
H1689 C1712 0.947 . S
H1690 C1713 0.948 . S
H1691 C1719 0.982 . S
H1692 C1720 0.979 . S
H1693 C1720 0.980 . S
H1694 C1720 0.983 . S
H1695 C1719 0.979 . S
H1696 C1719 0.977 . S
C1697 C1685 1.453 . S
C1697 H1726 0.982 . S
C1697 H1727 0.979 . S
C1697 H1728 0.977 . S
C1698 C1685 1.684 . S
C1698 H1723 0.979 . S
C1698 H1724 0.980 . S
C1698 H1725 0.983 . S
C1699 C1700 1.391 . S
C1699 C1704 1.391 . S
C1699 H1729 0.948 . S
C1700 C1699 1.391 . S
C1700 C1701 1.391 . S
C1701 C1700 1.391 . S
C1701 C1702 1.392 . S
C1701 H1730 0.947 . S
C1702 C1701 1.392 . S
C1702 C1703 1.419 . S
C1702 H1731 0.948 . S
C1703 C1702 1.419 . S
C1703 C1704 1.391 . S
C1703 C1707 1.397 . S
C1704 C1699 1.391 . S
C1704 C1703 1.391 . S
C1704 C1705 1.399 . S
C1705 C1704 1.399 . S
C1705 C1706 1.396 . S
C1705 C1708 1.453 . S
C1705 C1709 1.684 . S
C1706 C1687 1.723 . S
C1706 C1705 1.396 . S
C1706 C1707 1.394 . S
C1707 C1703 1.397 . S
C1707 C1706 1.394 . S
C1707 C1717 1.723 . S
C1708 C1705 1.453 . S
C1708 H1732 0.982 . S
C1708 H1733 0.979 . S
C1708 H1734 0.977 . S
C1709 C1705 1.684 . S
C1709 H1735 0.979 . S
C1709 H1736 0.980 . S
C1709 H1737 0.983 . S
C1710 H1686 0.948 . S
C1710 C1711 1.391 . S
C1710 C1715 1.391 . S
C1711 C1710 1.391 . S
C1711 C1712 1.391 . S
C1712 H1689 0.947 . S
C1712 C1711 1.391 . S
C1712 C1713 1.392 . S
C1713 H1690 0.948 . S
C1713 C1712 1.392 . S
C1713 C1714 1.419 . S
C1714 C1713 1.419 . S
C1714 C1715 1.391 . S
C1714 C1718 1.397 . S
C1715 C1710 1.391 . S
C1715 C1714 1.391 . S
C1715 C1716 1.399 . S
C1716 C1715 1.399 . S
C1716 C1717 1.396 . S
C1716 C1719 1.453 . S
C1716 C1720 1.684 . S
C1717 C1707 1.723 . S
C1717 C1716 1.396 . S
C1717 C1718 1.394 . S
C1718 C1688 1.723 . S
C1718 C1714 1.397 . S
C1718 C1717 1.394 . S
C1719 H1691 0.982 . S
C1719 H1695 0.979 . S
C1719 H1696 0.977 . S
C1719 C1716 1.453 . S
C1720 H1692 0.979 . S
C1720 H1693 0.980 . S
C1720 H1694 0.983 . S
C1720 C1716 1.684 . S
H1721 C1739 0.948 . S
H1722 C1680 0.948 . S
H1723 C1698 0.979 . S
H1724 C1698 0.980 . S
H1725 C1698 0.983 . S
H1726 C1697 0.982 . S
H1727 C1697 0.979 . S
H1728 C1697 0.977 . S
H1729 C1699 0.948 . S
H1730 C1701 0.947 . S
H1731 C1702 0.948 . S
H1732 C1708 0.982 . S
H1733 C1708 0.979 . S
H1734 C1708 0.977 . S
H1735 C1709 0.979 . S
H1736 C1709 0.980 . S
H1737 C1709 0.983 . S
H1738 C1682 0.947 . S
C1739 C1682 1.392 . S
C1739 C1683 1.419 . S
C1739 H1721 0.948 . S
C1740 C1741 1.391 . S
C1740 C1744 1.391 . S
C1740 H1782 0.948 . S
C1741 C1740 1.391 . S
C1741 C1742 1.391 . S
C1742 C1741 1.391 . S
C1742 H1798 0.947 . S
C1742 C1799 1.392 . S
C1743 C1744 1.391 . S
C1743 C1747 1.397 . S
C1743 C1799 1.419 . S
C1744 C1740 1.391 . S
C1744 C1743 1.391 . S
C1744 C1745 1.399 . S
C1745 C1744 1.399 . S
C1745 C1748 1.396 . S
C1745 C1757 1.453 . S
C1745 C1758 1.684 . S
H1746 C1770 0.948 . S
C1747 C1743 1.397 . S
C1747 C1748 1.394 . S
C1747 C1766 1.723 . S
C1748 C1745 1.396 . S
C1748 C1747 1.394 . S
C1748 C1778 1.723 . S
H1749 C1772 0.947 . S
H1750 C1773 0.948 . S
H1751 C1779 0.982 . S
H1752 C1780 0.979 . S
H1753 C1780 0.980 . S
H1754 C1780 0.983 . S
H1755 C1779 0.979 . S
H1756 C1779 0.977 . S
C1757 C1745 1.453 . S
C1757 H1786 0.982 . S
C1757 H1787 0.979 . S
C1757 H1788 0.977 . S
C1758 C1745 1.684 . S
C1758 H1783 0.979 . S
C1758 H1784 0.980 . S
C1758 H1785 0.983 . S
C1759 C1760 1.391 . S
C1759 C1764 1.391 . S
C1759 H1789 0.948 . S
C1760 C1759 1.391 . S
C1760 C1761 1.391 . S
C1761 C1760 1.391 . S
C1761 C1762 1.392 . S
C1761 H1790 0.947 . S
C1762 C1761 1.392 . S
C1762 C1763 1.419 . S
C1762 H1791 0.948 . S
C1763 C1762 1.419 . S
C1763 C1764 1.391 . S
C1763 C1767 1.397 . S
C1764 C1759 1.391 . S
C1764 C1763 1.391 . S
C1764 C1765 1.399 . S
C1765 C1764 1.399 . S
C1765 C1766 1.396 . S
C1765 C1768 1.453 . S
C1765 C1769 1.684 . S
C1766 C1747 1.723 . S
C1766 C1765 1.396 . S
C1766 C1767 1.394 . S
C1767 C1763 1.397 . S
C1767 C1766 1.394 . S
C1767 C1777 1.723 . S
C1768 C1765 1.453 . S
C1768 H1792 0.982 . S
C1768 H1793 0.979 . S
C1768 H1794 0.977 . S
C1769 C1765 1.684 . S
C1769 H1795 0.979 . S
C1769 H1796 0.980 . S
C1769 H1797 0.983 . S
C1770 H1746 0.948 . S
C1770 C1771 1.391 . S
C1770 C1775 1.391 . S
C1771 C1770 1.391 . S
C1771 C1772 1.391 . S
C1772 H1749 0.947 . S
C1772 C1771 1.391 . S
C1772 C1773 1.392 . S
C1773 H1750 0.948 . S
C1773 C1772 1.392 . S
C1773 C1774 1.419 . S
C1774 C1773 1.419 . S
C1774 C1775 1.391 . S
C1774 C1778 1.397 . S
C1775 C1770 1.391 . S
C1775 C1774 1.391 . S
C1775 C1776 1.399 . S
C1776 C1775 1.399 . S
C1776 C1777 1.396 . S
C1776 C1779 1.453 . S
C1776 C1780 1.684 . S
C1777 C1767 1.723 . S
C1777 C1776 1.396 . S
C1777 C1778 1.394 . S
C1778 C1748 1.723 . S
C1778 C1774 1.397 . S
C1778 C1777 1.394 . S
C1779 H1751 0.982 . S
C1779 H1755 0.979 . S
C1779 H1756 0.977 . S
C1779 C1776 1.453 . S
C1780 H1752 0.979 . S
C1780 H1753 0.980 . S
C1780 H1754 0.983 . S
C1780 C1776 1.684 . S
H1781 C1799 0.948 . S
H1782 C1740 0.948 . S
H1783 C1758 0.979 . S
H1784 C1758 0.980 . S
H1785 C1758 0.983 . S
H1786 C1757 0.982 . S
H1787 C1757 0.979 . S
H1788 C1757 0.977 . S
H1789 C1759 0.948 . S
H1790 C1761 0.947 . S
H1791 C1762 0.948 . S
H1792 C1768 0.982 . S
H1793 C1768 0.979 . S
H1794 C1768 0.977 . S
H1795 C1769 0.979 . S
H1796 C1769 0.980 . S
H1797 C1769 0.983 . S
H1798 C1742 0.947 . S
C1799 C1742 1.392 . S
C1799 C1743 1.419 . S
C1799 H1781 0.948 . S
C1800 C1801 1.391 . S
C1800 C1804 1.391 . S
C1800 H1842 0.948 . S
C1801 C1800 1.391 . S
C1801 C1802 1.391 . S
C1802 C1801 1.391 . S
C1802 H1858 0.947 . S
C1802 C1859 1.392 . S
C1803 C1804 1.391 . S
C1803 C1807 1.397 . S
C1803 C1859 1.419 . S
C1804 C1800 1.391 . S
C1804 C1803 1.391 . S
C1804 C1805 1.399 . S
C1805 C1804 1.399 . S
C1805 C1808 1.396 . S
C1805 C1817 1.453 . S
C1805 C1818 1.684 . S
H1806 C1830 0.948 . S
C1807 C1803 1.397 . S
C1807 C1808 1.394 . S
C1807 C1826 1.723 . S
C1808 C1805 1.396 . S
C1808 C1807 1.394 . S
C1808 C1838 1.723 . S
H1809 C1832 0.947 . S
H1810 C1833 0.948 . S
H1811 C1839 0.982 . S
H1812 C1840 0.979 . S
H1813 C1840 0.980 . S
H1814 C1840 0.983 . S
H1815 C1839 0.979 . S
H1816 C1839 0.977 . S
C1817 C1805 1.453 . S
C1817 H1846 0.982 . S
C1817 H1847 0.979 . S
C1817 H1848 0.977 . S
C1818 C1805 1.684 . S
C1818 H1843 0.979 . S
C1818 H1844 0.980 . S
C1818 H1845 0.983 . S
C1819 C1820 1.391 . S
C1819 C1824 1.391 . S
C1819 H1849 0.948 . S
C1820 C1819 1.391 . S
C1820 C1821 1.391 . S
C1821 C1820 1.391 . S
C1821 C1822 1.392 . S
C1821 H1850 0.947 . S
C1822 C1821 1.392 . S
C1822 C1823 1.419 . S
C1822 H1851 0.948 . S
C1823 C1822 1.419 . S
C1823 C1824 1.391 . S
C1823 C1827 1.397 . S
C1824 C1819 1.391 . S
C1824 C1823 1.391 . S
C1824 C1825 1.399 . S
C1825 C1824 1.399 . S
C1825 C1826 1.396 . S
C1825 C1828 1.453 . S
C1825 C1829 1.684 . S
C1826 C1807 1.723 . S
C1826 C1825 1.396 . S
C1826 C1827 1.394 . S
C1827 C1823 1.397 . S
C1827 C1826 1.394 . S
C1827 C1837 1.723 . S
C1828 C1825 1.453 . S
C1828 H1852 0.982 . S
C1828 H1853 0.979 . S
C1828 H1854 0.977 . S
C1829 C1825 1.684 . S
C1829 H1855 0.979 . S
C1829 H1856 0.980 . S
C1829 H1857 0.983 . S
C1830 H1806 0.948 . S
C1830 C1831 1.391 . S
C1830 C1835 1.391 . S
C1831 C1830 1.391 . S
C1831 C1832 1.391 . S
C1832 H1809 0.947 . S
C1832 C1831 1.391 . S
C1832 C1833 1.392 . S
C1833 H1810 0.948 . S
C1833 C1832 1.392 . S
C1833 C1834 1.419 . S
C1834 C1833 1.419 . S
C1834 C1835 1.391 . S
C1834 C1838 1.397 . S
C1835 C1830 1.391 . S
C1835 C1834 1.391 . S
C1835 C1836 1.399 . S
C1836 C1835 1.399 . S
C1836 C1837 1.396 . S
C1836 C1839 1.453 . S
C1836 C1840 1.684 . S
C1837 C1827 1.723 . S
C1837 C1836 1.396 . S
C1837 C1838 1.394 . S
C1838 C1808 1.723 . S
C1838 C1834 1.397 . S
C1838 C1837 1.394 . S
C1839 H1811 0.982 . S
C1839 H1815 0.979 . S
C1839 H1816 0.977 . S
C1839 C1836 1.453 . S
C1840 H1812 0.979 . S
C1840 H1813 0.980 . S
C1840 H1814 0.983 . S
C1840 C1836 1.684 . S
H1841 C1859 0.948 . S
H1842 C1800 0.948 . S
H1843 C1818 0.979 . S
H1844 C1818 0.980 . S
H1845 C1818 0.983 . S
H1846 C1817 0.982 . S
H1847 C1817 0.979 . S
H1848 C1817 0.977 . S
H1849 C1819 0.948 . S
H1850 C1821 0.947 . S
H1851 C1822 0.948 . S
H1852 C1828 0.982 . S
H1853 C1828 0.979 . S
H1854 C1828 0.977 . S
H1855 C1829 0.979 . S
H1856 C1829 0.980 . S
H1857 C1829 0.983 . S
H1858 C1802 0.947 . S
C1859 C1802 1.392 . S
C1859 C1803 1.419 . S
C1859 H1841 0.948 . S
C1860 C1861 1.391 . S
C1860 C1864 1.391 . S
C1860 H1902 0.948 . S
C1861 C1860 1.391 . S
C1861 C1862 1.391 . S
C1862 C1861 1.391 . S
C1862 H1918 0.947 . S
C1862 C1919 1.392 . S
C1863 C1864 1.391 . S
C1863 C1867 1.397 . S
C1863 C1919 1.419 . S
C1864 C1860 1.391 . S
C1864 C1863 1.391 . S
C1864 C1865 1.399 . S
C1865 C1864 1.399 . S
C1865 C1868 1.396 . S
C1865 C1877 1.453 . S
C1865 C1878 1.684 . S
H1866 C1890 0.948 . S
C1867 C1863 1.397 . S
C1867 C1868 1.394 . S
C1867 C1886 1.723 . S
C1868 C1865 1.396 . S
C1868 C1867 1.394 . S
C1868 C1898 1.723 . S
H1869 C1892 0.947 . S
H1870 C1893 0.948 . S
H1871 C1899 0.982 . S
H1872 C1900 0.979 . S
H1873 C1900 0.980 . S
H1874 C1900 0.983 . S
H1875 C1899 0.979 . S
H1876 C1899 0.977 . S
C1877 C1865 1.453 . S
C1877 H1906 0.982 . S
C1877 H1907 0.979 . S
C1877 H1908 0.977 . S
C1878 C1865 1.684 . S
C1878 H1903 0.979 . S
C1878 H1904 0.980 . S
C1878 H1905 0.983 . S
C1879 C1880 1.391 . S
C1879 C1884 1.391 . S
C1879 H1909 0.948 . S
C1880 C1879 1.391 . S
C1880 C1881 1.391 . S
C1881 C1880 1.391 . S
C1881 C1882 1.392 . S
C1881 H1910 0.947 . S
C1882 C1881 1.392 . S
C1882 C1883 1.419 . S
C1882 H1911 0.948 . S
C1883 C1882 1.419 . S
C1883 C1884 1.391 . S
C1883 C1887 1.397 . S
C1884 C1879 1.391 . S
C1884 C1883 1.391 . S
C1884 C1885 1.399 . S
C1885 C1884 1.399 . S
C1885 C1886 1.396 . S
C1885 C1888 1.453 . S
C1885 C1889 1.684 . S
C1886 C1867 1.723 . S
C1886 C1885 1.396 . S
C1886 C1887 1.394 . S
C1887 C1883 1.397 . S
C1887 C1886 1.394 . S
C1887 C1897 1.723 . S
C1888 C1885 1.453 . S
C1888 H1912 0.982 . S
C1888 H1913 0.979 . S
C1888 H1914 0.977 . S
C1889 C1885 1.684 . S
C1889 H1915 0.979 . S
C1889 H1916 0.980 . S
C1889 H1917 0.983 . S
C1890 H1866 0.948 . S
C1890 C1891 1.391 . S
C1890 C1895 1.391 . S
C1891 C1890 1.391 . S
C1891 C1892 1.391 . S
C1892 H1869 0.947 . S
C1892 C1891 1.391 . S
C1892 C1893 1.392 . S
C1893 H1870 0.948 . S
C1893 C1892 1.392 . S
C1893 C1894 1.419 . S
C1894 C1893 1.419 . S
C1894 C1895 1.391 . S
C1894 C1898 1.397 . S
C1895 C1890 1.391 . S
C1895 C1894 1.391 . S
C1895 C1896 1.399 . S
C1896 C1895 1.399 . S
C1896 C1897 1.396 . S
C1896 C1899 1.453 . S
C1896 C1900 1.684 . S
C1897 C1887 1.723 . S
C1897 C1896 1.396 . S
C1897 C1898 1.394 . S
C1898 C1868 1.723 . S
C1898 C1894 1.397 . S
C1898 C1897 1.394 . S
C1899 H1871 0.982 . S
C1899 H1875 0.979 . S
C1899 H1876 0.977 . S
C1899 C1896 1.453 . S
C1900 H1872 0.979 . S
C1900 H1873 0.980 . S
C1900 H1874 0.983 . S
C1900 C1896 1.684 . S
H1901 C1919 0.948 . S
H1902 C1860 0.948 . S
H1903 C1878 0.979 . S
H1904 C1878 0.980 . S
H1905 C1878 0.983 . S
H1906 C1877 0.982 . S
H1907 C1877 0.979 . S
H1908 C1877 0.977 . S
H1909 C1879 0.948 . S
H1910 C1881 0.947 . S
H1911 C1882 0.948 . S
H1912 C1888 0.982 . S
H1913 C1888 0.979 . S
H1914 C1888 0.977 . S
H1915 C1889 0.979 . S
H1916 C1889 0.980 . S
H1917 C1889 0.983 . S
H1918 C1862 0.947 . S
C1919 C1862 1.392 . S
C1919 C1863 1.419 . S
C1919 H1901 0.948 . S
Cu1920 N1921 1.999 . S
Cu1920 O1926 1.974 1_554 S
Cu1920 N1931 1.985 . S
Cu1920 O1940 1.959 . S
N1921 Cu1920 1.999 . S
N1921 C1923 1.263 1_554 S
N1921 C1925 1.389 . S
N1922 C1923 1.358 . S
N1922 C1924 1.400 . S
C1923 N1921 1.263 1_556 S
C1923 N1922 1.358 . S
C1923 H1929 0.930 . S
C1924 N1922 1.400 . S
C1924 C1925 1.351 1_556 S
C1924 H1941 0.930 . S
C1925 N1921 1.389 . S
C1925 C1924 1.351 1_554 S
C1925 H1930 0.930 . S
O1926 Cu1920 1.974 1_556 S
O1926 C1936 1.282 . S
C1927 O1928 1.261 . S
C1927 O1940 1.251 . S
O1928 C1927 1.261 . S
H1929 C1923 0.930 . S
H1930 C1925 0.930 . S
N1931 Cu1920 1.985 . S
N1931 C1933 1.335 . S
N1931 C1934 1.390 . S
N1932 C1933 1.345 . S
N1932 C1935 1.336 . S
C1933 N1931 1.335 . S
C1933 N1932 1.345 . S
C1933 H1938 0.930 . S
C1934 N1931 1.390 . S
C1934 C1935 1.346 . S
C1934 H1939 0.930 . S
C1935 N1932 1.336 . S
C1935 C1934 1.346 . S
C1935 H1942 0.929 . S
C1936 O1926 1.282 . S
C1936 O1937 1.216 . S
O1937 C1936 1.216 . S
H1938 C1933 0.930 . S
H1939 C1934 0.930 . S
O1940 Cu1920 1.959 . S
O1940 C1927 1.251 . S
H1941 C1924 0.930 . S
H1942 C1935 0.929 . S
Cu1943 N1944 1.999 . S
Cu1943 O1949 1.974 . S
Cu1943 N1954 1.985 1_554 S
Cu1943 O1963 1.959 1_554 S
N1944 Cu1943 1.999 . S
N1944 C1946 1.263 . S
N1944 C1948 1.389 . S
N1945 C1946 1.358 . S
N1945 C1947 1.400 . S
C1946 N1944 1.263 . S
C1946 N1945 1.358 . S
C1946 H1952 0.930 . S
C1947 N1945 1.400 . S
C1947 C1948 1.351 . S
C1947 H1964 0.930 . S
C1948 N1944 1.389 . S
C1948 C1947 1.351 . S
C1948 H1953 0.930 . S
O1949 Cu1943 1.974 . S
O1949 C1959 1.282 . S
C1950 O1951 1.261 . S
C1950 O1963 1.251 . S
O1951 C1950 1.261 . S
H1952 C1946 0.930 . S
H1953 C1948 0.930 . S
N1954 Cu1943 1.985 1_556 S
N1954 C1956 1.335 . S
N1954 C1957 1.390 . S
N1955 C1956 1.345 . S
N1955 C1958 1.336 . S
C1956 N1954 1.335 . S
C1956 N1955 1.345 . S
C1956 H1961 0.930 . S
C1957 N1954 1.390 . S
C1957 C1958 1.346 . S
C1957 H1962 0.930 1_556 S
C1958 N1955 1.336 . S
C1958 C1957 1.346 . S
C1958 H1965 0.929 . S
C1959 O1949 1.282 . S
C1959 O1960 1.216 . S
O1960 C1959 1.216 . S
H1961 C1956 0.930 . S
H1962 C1957 0.930 1_554 S
O1963 Cu1943 1.959 1_556 S
O1963 C1950 1.251 . S
H1964 C1947 0.930 . S
H1965 C1958 0.929 . S
Cu1966 N1967 1.999 1_554 S
Cu1966 O1972 1.974 1_554 S
Cu1966 N1977 1.985 . S
Cu1966 O1986 1.959 . S
N1967 Cu1966 1.999 1_556 S
N1967 C1969 1.263 . S
N1967 C1971 1.389 . S
N1968 C1969 1.358 . S
N1968 C1970 1.400 . S
C1969 N1967 1.263 . S
C1969 N1968 1.358 . S
C1969 H1975 0.930 . S
C1970 N1968 1.400 . S
C1970 C1971 1.351 . S
C1970 H1987 0.930 . S
C1971 N1967 1.389 . S
C1971 C1970 1.351 . S
C1971 H1976 0.930 1_556 S
O1972 Cu1966 1.974 1_556 S
O1972 C1982 1.282 . S
C1973 O1974 1.261 . S
C1973 O1986 1.251 . S
O1974 C1973 1.261 . S
H1975 C1969 0.930 . S
H1976 C1971 0.930 1_554 S
N1977 Cu1966 1.985 . S
N1977 C1979 1.335 . S
N1977 C1980 1.390 . S
N1978 C1979 1.345 . S
N1978 C1981 1.336 . S
C1979 N1977 1.335 . S
C1979 N1978 1.345 . S
C1979 H1984 0.930 . S
C1980 N1977 1.390 . S
C1980 C1981 1.346 . S
C1980 H1985 0.899 1_554 S
C1981 N1978 1.336 . S
C1981 C1980 1.346 . S
C1981 H1988 0.929 . S
C1982 O1972 1.282 . S
C1982 O1983 1.216 . S
O1983 C1982 1.216 . S
H1984 C1979 0.930 . S
H1985 C1980 0.899 1_556 S
O1986 Cu1966 1.959 . S
O1986 C1973 1.251 . S
H1987 C1970 0.930 . S
H1988 C1981 0.929 . S
Cu1989 N1990 2.020 . S
Cu1989 O1995 1.998 . S
Cu1989 N2000 1.966 1_554 S
Cu1989 O2009 1.935 1_554 S
N1990 Cu1989 2.020 . S
N1990 C1992 1.263 . S
N1990 C1994 1.389 . S
N1991 C1992 1.358 . S
N1991 C1993 1.400 . S
C1992 N1990 1.263 . S
C1992 N1991 1.358 . S
C1992 H1998 0.930 . S
C1993 N1991 1.400 . S
C1993 C1994 1.351 . S
C1993 H2010 0.930 . S
C1994 N1990 1.389 . S
C1994 C1993 1.351 . S
C1994 H1999 0.930 . S
O1995 Cu1989 1.998 . S
O1995 C2005 1.282 . S
C1996 O1997 1.261 . S
C1996 O2009 1.251 . S
O1997 C1996 1.261 . S
H1998 C1992 0.930 . S
H1999 C1994 0.930 . S
N2000 Cu1989 1.966 1_556 S
N2000 C2002 1.335 . S
N2000 C2003 1.390 . S
N2001 C2002 1.345 . S
N2001 C2004 1.336 . S
C2002 N2000 1.335 . S
C2002 N2001 1.345 . S
C2002 H2007 0.930 . S
C2003 N2000 1.390 . S
C2003 C2004 1.346 . S
C2003 H2008 0.930 1_556 S
C2004 N2001 1.336 . S
C2004 C2003 1.346 . S
C2004 H2011 0.929 . S
C2005 O1995 1.282 . S
C2005 O2006 1.216 . S
O2006 C2005 1.216 . S
H2007 C2002 0.930 . S
H2008 C2003 0.930 1_554 S
O2009 Cu1989 1.935 1_556 S
O2009 C1996 1.251 . S
H2010 C1993 0.930 . S
H2011 C2004 0.929 . S
Cu2012 N2013 1.999 . S
Cu2012 O2018 1.974 . S
Cu2012 N2023 1.985 1_455 S
Cu2012 O2032 1.959 1_455 S
N2013 Cu2012 1.999 . S
N2013 C2015 1.263 . S
N2013 C2017 1.389 . S
N2014 C2015 1.358 . S
N2014 C2016 1.400 . S
C2015 N2013 1.263 . S
C2015 N2014 1.358 . S
C2015 H2021 0.930 . S
C2016 N2014 1.400 . S
C2016 C2017 1.351 . S
C2016 H2033 0.930 . S
C2017 N2013 1.389 . S
C2017 C2016 1.351 . S
C2017 H2022 0.930 . S
O2018 Cu2012 1.974 . S
O2018 C2028 1.282 . S
C2019 O2020 1.261 . S
C2019 O2032 1.251 . S
O2020 C2019 1.261 . S
H2021 C2015 0.930 . S
H2022 C2017 0.930 . S
N2023 Cu2012 1.985 1_655 S
N2023 C2025 1.335 . S
N2023 C2026 1.390 1_655 S
N2024 C2025 1.345 . S
N2024 C2027 1.336 . S
C2025 N2023 1.335 . S
C2025 N2024 1.345 . S
C2025 H2030 0.930 . S
C2026 N2023 1.390 1_455 S
C2026 C2027 1.346 1_455 S
C2026 H2031 0.930 . S
C2027 N2024 1.336 . S
C2027 C2026 1.346 1_655 S
C2027 H2034 0.929 . S
C2028 O2018 1.282 . S
C2028 O2029 1.216 . S
O2029 C2028 1.216 . S
H2030 C2025 0.930 . S
H2031 C2026 0.930 . S
O2032 Cu2012 1.959 1_655 S
O2032 C2019 1.251 . S
H2033 C2016 0.930 . S
H2034 C2027 0.929 . S
Cu2035 N2036 1.999 . S
Cu2035 O2041 1.974 . S
Cu2035 N2046 1.985 1_545 S
Cu2035 O2055 1.959 1_545 S
N2036 Cu2035 1.999 . S
N2036 C2038 1.263 . S
N2036 C2040 1.389 . S
N2037 C2038 1.358 . S
N2037 C2039 1.400 . S
C2038 N2036 1.263 . S
C2038 N2037 1.358 . S
C2038 H2044 0.930 . S
C2039 N2037 1.400 . S
C2039 C2040 1.351 . S
C2039 H2056 0.930 . S
C2040 N2036 1.389 . S
C2040 C2039 1.351 . S
C2040 H2045 0.930 . S
O2041 Cu2035 1.974 . S
O2041 C2051 1.282 . S
C2042 O2043 1.261 . S
C2042 O2055 1.251 . S
O2043 C2042 1.261 . S
H2044 C2038 0.930 . S
H2045 C2040 0.930 . S
N2046 Cu2035 1.985 1_565 S
N2046 C2048 1.335 . S
N2046 C2049 1.390 . S
N2047 C2048 1.345 . S
N2047 C2050 1.336 . S
C2048 N2046 1.335 . S
C2048 N2047 1.345 . S
C2048 H2053 0.930 . S
C2049 N2046 1.390 . S
C2049 C2050 1.346 . S
C2049 H2054 0.930 1_565 S
C2050 N2047 1.336 . S
C2050 C2049 1.346 . S
C2050 H2057 0.929 . S
C2051 O2041 1.282 . S
C2051 O2052 1.216 . S
O2052 C2051 1.216 . S
H2053 C2048 0.930 . S
H2054 C2049 0.930 1_545 S
O2055 Cu2035 1.959 1_565 S
O2055 C2042 1.251 . S
H2056 C2039 0.930 . S
H2057 C2050 0.929 . S
Cu2058 N2059 2.013 . S
Cu2058 O2064 1.991 . S
Cu2058 N2069 1.971 1_655 S
Cu2058 O2078 1.942 1_655 S
N2059 Cu2058 2.013 . S
N2059 C2061 1.263 . S
N2059 C2063 1.389 . S
N2060 C2061 1.358 . S
N2060 C2062 1.400 . S
C2061 N2059 1.263 . S
C2061 N2060 1.358 . S
C2061 H2067 0.930 . S
C2062 N2060 1.400 . S
C2062 C2063 1.351 . S
C2062 H2079 0.930 . S
C2063 N2059 1.389 . S
C2063 C2062 1.351 . S
C2063 H2068 0.930 . S
O2064 Cu2058 1.991 . S
O2064 C2074 1.282 . S
C2065 O2066 1.261 . S
C2065 O2078 1.251 . S
O2066 C2065 1.261 . S
H2067 C2061 0.930 . S
H2068 C2063 0.930 . S
N2069 Cu2058 1.971 1_455 S
N2069 C2071 1.335 . S
N2069 C2072 1.390 . S
N2070 C2071 1.345 . S
N2070 C2073 1.336 . S
C2071 N2069 1.335 . S
C2071 N2070 1.345 . S
C2071 H2076 0.930 . S
C2072 N2069 1.390 . S
C2072 C2073 1.346 . S
C2072 H2077 0.930 . S
C2073 N2070 1.336 . S
C2073 C2072 1.346 . S
C2073 H2080 0.929 . S
C2074 O2064 1.282 . S
C2074 O2075 1.216 . S
O2075 C2074 1.216 . S
H2076 C2071 0.930 . S
H2077 C2072 0.930 . S
O2078 Cu2058 1.942 1_455 S
O2078 C2065 1.251 . S
H2079 C2062 0.930 . S
H2080 C2073 0.929 . S
Cu2081 N2082 1.979 1_565 S
Cu2081 O2087 1.947 1_565 S
Cu2081 N2092 2.005 . S
Cu2081 O2101 1.986 . S
N2082 Cu2081 1.979 1_545 S
N2082 C2084 1.263 . S
N2082 C2086 1.389 . S
N2083 C2084 1.358 . S
N2083 C2085 1.400 . S
C2084 N2082 1.263 . S
C2084 N2083 1.358 . S
C2084 H2090 0.930 . S
C2085 N2083 1.400 . S
C2085 C2086 1.351 . S
C2085 H2102 0.930 . S
C2086 N2082 1.389 . S
C2086 C2085 1.351 . S
C2086 H2091 0.930 . S
O2087 Cu2081 1.947 1_545 S
O2087 C2097 1.282 . S
C2088 O2089 1.261 . S
C2088 O2101 1.251 . S
O2089 C2088 1.261 . S
H2090 C2084 0.930 . S
H2091 C2086 0.930 . S
N2092 Cu2081 2.005 . S
N2092 C2094 1.335 . S
N2092 C2095 1.390 . S
N2093 C2094 1.345 . S
N2093 C2096 1.336 . S
C2094 N2092 1.335 . S
C2094 N2093 1.345 . S
C2094 H2099 0.930 . S
C2095 N2092 1.390 . S
C2095 C2096 1.346 . S
C2095 H2100 0.930 . S
C2096 N2093 1.336 . S
C2096 C2095 1.346 . S
C2096 H2103 0.929 . S
C2097 O2087 1.282 . S
C2097 O2098 1.216 . S
O2098 C2097 1.216 . S
H2099 C2094 0.930 . S
H2100 C2095 0.930 . S
O2101 Cu2081 1.986 . S
O2101 C2088 1.251 . S
H2102 C2085 0.930 . S
H2103 C2096 0.929 . S
Cu2104 N2105 1.999 . S
Cu2104 O2110 1.974 . S
Cu2104 N2115 1.985 1_455 S
Cu2104 O2124 1.959 1_455 S
N2105 Cu2104 1.999 . S
N2105 C2107 1.263 . S
N2105 C2109 1.389 . S
N2106 C2107 1.358 . S
N2106 C2108 1.400 . S
C2107 N2105 1.263 . S
C2107 N2106 1.358 . S
C2107 H2113 0.930 . S
C2108 N2106 1.400 . S
C2108 C2109 1.351 . S
C2108 H2125 0.930 . S
C2109 N2105 1.389 . S
C2109 C2108 1.351 . S
C2109 H2114 0.930 . S
O2110 Cu2104 1.974 . S
O2110 C2120 1.282 . S
C2111 O2112 1.261 . S
C2111 O2124 1.251 . S
O2112 C2111 1.261 . S
H2113 C2107 0.930 . S
H2114 C2109 0.930 . S
N2115 Cu2104 1.985 1_655 S
N2115 C2117 1.335 . S
N2115 C2118 1.386 1_655 S
N2116 C2117 1.345 . S
N2116 C2119 1.336 . S
C2117 N2115 1.335 . S
C2117 N2116 1.345 . S
C2117 H2122 0.930 . S
C2118 N2115 1.386 1_455 S
C2118 C2119 1.326 1_455 S
C2118 H2123 0.951 . S
C2119 N2116 1.336 . S
C2119 C2118 1.326 1_655 S
C2119 H2126 0.929 . S
C2120 O2110 1.282 . S
C2120 O2121 1.216 . S
O2121 C2120 1.216 . S
H2122 C2117 0.930 . S
H2123 C2118 0.951 . S
O2124 Cu2104 1.959 1_655 S
O2124 C2111 1.251 . S
H2125 C2108 0.930 . S
H2126 C2119 0.929 . S
Cu2127 N2128 1.999 . S
Cu2127 O2133 1.974 . S
Cu2127 N2138 1.985 1_545 S
Cu2127 O2147 1.959 1_545 S
N2128 Cu2127 1.999 . S
N2128 C2130 1.263 . S
N2128 C2132 1.389 . S
N2129 C2130 1.358 . S
N2129 C2131 1.400 . S
C2130 N2128 1.263 . S
C2130 N2129 1.358 . S
C2130 H2136 0.930 . S
C2131 N2129 1.400 . S
C2131 C2132 1.351 . S
C2131 H2148 0.930 . S
C2132 N2128 1.389 . S
C2132 C2131 1.351 . S
C2132 H2137 0.930 . S
O2133 Cu2127 1.974 . S
O2133 C2143 1.282 . S
C2134 O2135 1.261 . S
C2134 O2147 1.251 . S
O2135 C2134 1.261 . S
H2136 C2130 0.930 . S
H2137 C2132 0.930 . S
N2138 Cu2127 1.985 1_565 S
N2138 C2140 1.335 . S
N2138 C2141 1.390 1_565 S
N2139 C2140 1.345 . S
N2139 C2142 1.336 . S
C2140 N2138 1.335 . S
C2140 N2139 1.345 . S
C2140 H2145 0.930 . S
C2141 N2138 1.390 1_545 S
C2141 C2142 1.346 1_545 S
C2141 H2146 0.930 . S
C2142 N2139 1.336 . S
C2142 C2141 1.346 1_565 S
C2142 H2149 0.929 . S
C2143 O2133 1.282 . S
C2143 O2144 1.216 . S
O2144 C2143 1.216 . S
H2145 C2140 0.930 . S
H2146 C2141 0.930 . S
O2147 Cu2127 1.959 1_565 S
O2147 C2134 1.251 . S
H2148 C2131 0.930 . S
H2149 C2142 0.929 . S
Cu2150 N2151 1.999 . S
Cu2150 O2156 1.974 . S
Cu2150 N2161 1.985 . S
Cu2150 O2170 1.959 . S
N2151 Cu2150 1.999 . S
N2151 C2153 1.263 1_455 S
N2151 C2155 1.389 . S
N2152 C2153 1.358 . S
N2152 C2154 1.400 . S
C2153 N2151 1.263 1_655 S
C2153 N2152 1.358 . S
C2153 H2159 0.930 . S
C2154 N2152 1.400 . S
C2154 C2155 1.351 1_655 S
C2154 H2171 0.930 . S
C2155 N2151 1.389 . S
C2155 C2154 1.351 1_455 S
C2155 H2160 0.930 . S
O2156 Cu2150 1.974 . S
O2156 C2166 1.282 1_455 S
C2157 O2158 1.261 . S
C2157 O2170 1.251 . S
O2158 C2157 1.261 . S
H2159 C2153 0.930 . S
H2160 C2155 0.930 . S
N2161 Cu2150 1.985 . S
N2161 C2163 1.335 . S
N2161 C2164 1.390 . S
N2162 C2163 1.345 . S
N2162 C2165 1.336 . S
C2163 N2161 1.335 . S
C2163 N2162 1.345 . S
C2163 H2168 0.930 . S
C2164 N2161 1.390 . S
C2164 C2165 1.346 . S
C2164 H2169 0.930 . S
C2165 N2162 1.336 . S
C2165 C2164 1.346 . S
C2165 H2172 0.929 . S
C2166 O2156 1.282 1_655 S
C2166 O2167 1.216 1_655 S
O2167 C2166 1.216 1_455 S
H2168 C2163 0.930 . S
H2169 C2164 0.930 . S
O2170 Cu2150 1.959 . S
O2170 C2157 1.251 . S
H2171 C2154 0.930 . S
H2172 C2165 0.929 . S
Cu2173 N2174 1.999 . S
Cu2173 O2179 1.974 . S
Cu2173 N2184 1.985 . S
Cu2173 O2193 1.959 1_545 S
N2174 Cu2173 1.999 . S
N2174 C2176 1.263 . S
N2174 C2178 1.389 . S
N2175 C2176 1.358 . S
N2175 C2177 1.400 . S
C2176 N2174 1.263 . S
C2176 N2175 1.358 . S
C2176 H2182 0.930 . S
C2177 N2175 1.400 . S
C2177 C2178 1.351 . S
C2177 H2194 0.930 . S
C2178 N2174 1.389 . S
C2178 C2177 1.351 . S
C2178 H2183 0.930 . S
O2179 Cu2173 1.974 . S
O2179 C2189 1.282 . S
C2180 O2181 1.261 1_565 S
C2180 O2193 1.251 . S
O2181 C2180 1.261 1_545 S
H2182 C2176 0.930 . S
H2183 C2178 0.930 . S
N2184 Cu2173 1.985 . S
N2184 C2186 1.335 1_545 S
N2184 C2187 1.390 . S
N2185 C2186 1.345 . S
N2185 C2188 1.336 . S
C2186 N2184 1.335 1_565 S
C2186 N2185 1.345 . S
C2186 H2191 0.930 . S
C2187 N2184 1.390 . S
C2187 C2188 1.346 1_545 S
C2187 H2192 0.930 . S
C2188 N2185 1.336 . S
C2188 C2187 1.346 1_565 S
C2188 H2195 0.929 . S
C2189 O2179 1.282 . S
C2189 O2190 1.216 . S
O2190 C2189 1.216 . S
H2191 C2186 0.930 . S
H2192 C2187 0.930 . S
O2193 Cu2173 1.959 1_565 S
O2193 C2180 1.251 . S
H2194 C2177 0.930 . S
H2195 C2188 0.929 . S
Cu2196 N2197 1.999 . S
Cu2196 O2202 1.974 . S
Cu2196 N2207 1.985 . S
Cu2196 O2216 1.959 . S
N2197 Cu2196 1.999 . S
N2197 C2199 1.263 . S
N2197 C2201 1.389 . S
N2198 C2199 1.358 . S
N2198 C2200 1.400 . S
C2199 N2197 1.263 . S
C2199 N2198 1.358 . S
C2199 H2205 0.930 . S
C2200 N2198 1.400 . S
C2200 C2201 1.351 . S
C2200 H2217 0.930 . S
C2201 N2197 1.389 . S
C2201 C2200 1.351 . S
C2201 H2206 0.930 . S
O2202 Cu2196 1.974 . S
O2202 C2212 1.282 . S
C2203 O2204 1.261 . S
C2203 O2216 1.251 . S
O2204 C2203 1.261 . S
H2205 C2199 0.930 . S
H2206 C2201 0.930 . S
N2207 Cu2196 1.985 . S
N2207 C2209 1.335 . S
N2207 C2210 1.390 . S
N2208 C2209 1.345 . S
N2208 C2211 1.336 . S
C2209 N2207 1.335 . S
C2209 N2208 1.345 . S
C2209 H2214 0.930 . S
C2210 N2207 1.390 . S
C2210 C2211 1.346 . S
C2210 H2215 0.930 . S
C2211 N2208 1.336 . S
C2211 C2210 1.346 . S
C2211 H2218 0.929 . S
C2212 O2202 1.282 . S
C2212 O2213 1.216 . S
O2213 C2212 1.216 . S
H2214 C2209 0.930 . S
H2215 C2210 0.930 . S
O2216 Cu2196 1.959 . S
O2216 C2203 1.251 . S
H2217 C2200 0.930 . S
H2218 C2211 0.929 . S
Cu2219 N2220 1.999 . S
Cu2219 O2225 1.974 . S
Cu2219 N2230 1.985 . S
Cu2219 O2239 1.959 . S
N2220 Cu2219 1.999 . S
N2220 C2222 1.263 . S
N2220 C2224 1.389 . S
N2221 C2222 1.358 . S
N2221 C2223 1.400 . S
C2222 N2220 1.263 . S
C2222 N2221 1.358 . S
C2222 H2228 0.930 . S
C2223 N2221 1.400 . S
C2223 C2224 1.351 . S
C2223 H2240 0.930 . S
C2224 N2220 1.389 . S
C2224 C2223 1.351 . S
C2224 H2229 0.930 . S
O2225 Cu2219 1.974 . S
O2225 C2235 1.282 . S
C2226 O2227 1.261 . S
C2226 O2239 1.251 . S
O2227 C2226 1.261 . S
H2228 C2222 0.930 . S
H2229 C2224 0.930 . S
N2230 Cu2219 1.985 . S
N2230 C2232 1.335 . S
N2230 C2233 1.390 . S
N2231 C2232 1.345 . S
N2231 C2234 1.336 . S
C2232 N2230 1.335 . S
C2232 N2231 1.345 . S
C2232 H2237 0.930 . S
C2233 N2230 1.390 . S
C2233 C2234 1.346 . S
C2233 H2238 0.930 . S
C2234 N2231 1.336 . S
C2234 C2233 1.346 . S
C2234 H2241 0.929 . S
C2235 O2225 1.282 . S
C2235 O2236 1.216 . S
O2236 C2235 1.216 . S
H2237 C2232 0.930 . S
H2238 C2233 0.930 . S
O2239 Cu2219 1.959 . S
O2239 C2226 1.251 . S
H2240 C2223 0.930 . S
H2241 C2234 0.929 . S
Cu2242 N2243 1.999 . S
Cu2242 O2248 1.974 . S
Cu2242 N2253 1.985 . S
Cu2242 O2262 1.959 . S
N2243 Cu2242 1.999 . S
N2243 C2245 1.263 . S
N2243 C2247 1.389 . S
N2244 C2245 1.358 . S
N2244 C2246 1.400 . S
C2245 N2243 1.263 . S
C2245 N2244 1.358 . S
C2245 H2251 0.930 . S
C2246 N2244 1.400 . S
C2246 C2247 1.351 . S
C2246 H2263 0.930 . S
C2247 N2243 1.389 . S
C2247 C2246 1.351 . S
C2247 H2252 0.930 . S
O2248 Cu2242 1.974 . S
O2248 C2258 1.282 . S
C2249 O2250 1.261 . S
C2249 O2262 1.251 . S
O2250 C2249 1.261 . S
H2251 C2245 0.930 . S
H2252 C2247 0.930 . S
N2253 Cu2242 1.985 . S
N2253 C2255 1.335 . S
N2253 C2256 1.390 . S
N2254 C2255 1.345 . S
N2254 C2257 1.336 . S
C2255 N2253 1.335 . S
C2255 N2254 1.345 . S
C2255 H2260 0.930 . S
C2256 N2253 1.390 . S
C2256 C2257 1.346 . S
C2256 H2261 0.930 . S
C2257 N2254 1.336 . S
C2257 C2256 1.346 . S
C2257 H2264 0.929 . S
C2258 O2248 1.282 . S
C2258 O2259 1.216 . S
O2259 C2258 1.216 . S
H2260 C2255 0.930 . S
H2261 C2256 0.930 . S
O2262 Cu2242 1.959 . S
O2262 C2249 1.251 . S
H2263 C2246 0.930 . S
H2264 C2257 0.929 . S
Cu2265 N2266 1.999 . S
Cu2265 O2271 1.974 . S
Cu2265 N2276 1.985 . S
Cu2265 O2285 1.959 . S
N2266 Cu2265 1.999 . S
N2266 C2268 1.263 . S
N2266 C2270 1.389 . S
N2267 C2268 1.358 . S
N2267 C2269 1.400 . S
C2268 N2266 1.263 . S
C2268 N2267 1.358 . S
C2268 H2274 0.930 . S
C2269 N2267 1.400 . S
C2269 C2270 1.351 . S
C2269 H2286 0.930 . S
C2270 N2266 1.389 . S
C2270 C2269 1.351 . S
C2270 H2275 0.930 . S
O2271 Cu2265 1.974 . S
O2271 C2281 1.282 . S
C2272 O2273 1.261 . S
C2272 O2285 1.251 . S
O2273 C2272 1.261 . S
H2274 C2268 0.930 . S
H2275 C2270 0.930 . S
N2276 Cu2265 1.985 . S
N2276 C2278 1.335 . S
N2276 C2279 1.390 . S
N2277 C2278 1.345 . S
N2277 C2280 1.336 . S
C2278 N2276 1.335 . S
C2278 N2277 1.345 . S
C2278 H2283 0.930 . S
C2279 N2276 1.390 . S
C2279 C2280 1.346 . S
C2279 H2284 0.930 . S
C2280 N2277 1.336 . S
C2280 C2279 1.346 . S
C2280 H2287 0.929 . S
C2281 O2271 1.282 . S
C2281 O2282 1.216 . S
O2282 C2281 1.216 . S
H2283 C2278 0.930 . S
H2284 C2279 0.930 . S
O2285 Cu2265 1.959 . S
O2285 C2272 1.251 . S
H2286 C2269 0.930 . S
H2287 C2280 0.929 . S
Cu2288 N2289 1.999 . S
Cu2288 O2294 1.974 . S
Cu2288 N2299 1.985 . S
Cu2288 O2308 1.959 . S
N2289 Cu2288 1.999 . S
N2289 C2291 1.263 . S
N2289 C2293 1.389 . S
N2290 C2291 1.358 . S
N2290 C2292 1.400 . S
C2291 N2289 1.263 . S
C2291 N2290 1.358 . S
C2291 H2297 0.930 . S
C2292 N2290 1.400 . S
C2292 C2293 1.351 . S
C2292 H2309 0.930 . S
C2293 N2289 1.389 . S
C2293 C2292 1.351 . S
C2293 H2298 0.930 . S
O2294 Cu2288 1.974 . S
O2294 C2304 1.282 . S
C2295 O2296 1.261 . S
C2295 O2308 1.251 . S
O2296 C2295 1.261 . S
H2297 C2291 0.930 . S
H2298 C2293 0.930 . S
N2299 Cu2288 1.985 . S
N2299 C2301 1.335 . S
N2299 C2302 1.390 . S
N2300 C2301 1.345 . S
N2300 C2303 1.336 . S
C2301 N2299 1.335 . S
C2301 N2300 1.345 . S
C2301 H2306 0.930 . S
C2302 N2299 1.390 . S
C2302 C2303 1.346 . S
C2302 H2307 0.930 . S
C2303 N2300 1.336 . S
C2303 C2302 1.346 . S
C2303 H2310 0.929 . S
C2304 O2294 1.282 . S
C2304 O2305 1.216 . S
O2305 C2304 1.216 . S
H2306 C2301 0.930 . S
H2307 C2302 0.930 . S
O2308 Cu2288 1.959 . S
O2308 C2295 1.251 . S
H2309 C2292 0.930 . S
H2310 C2303 0.929 . S
Cu2311 N2312 1.999 . S
Cu2311 O2317 1.974 . S
Cu2311 N2322 1.985 . S
Cu2311 O2331 1.959 . S
N2312 Cu2311 1.999 . S
N2312 C2314 1.263 . S
N2312 C2316 1.389 . S
N2313 C2314 1.358 . S
N2313 C2315 1.400 . S
C2314 N2312 1.263 . S
C2314 N2313 1.358 . S
C2314 H2320 0.930 . S
C2315 N2313 1.400 . S
C2315 C2316 1.351 . S
C2315 H2332 0.930 . S
C2316 N2312 1.389 . S
C2316 C2315 1.351 . S
C2316 H2321 0.930 . S
O2317 Cu2311 1.974 . S
O2317 C2327 1.282 . S
C2318 O2319 1.261 . S
C2318 O2331 1.251 . S
O2319 C2318 1.261 . S
H2320 C2314 0.930 . S
H2321 C2316 0.930 . S
N2322 Cu2311 1.985 . S
N2322 C2324 1.335 . S
N2322 C2325 1.390 . S
N2323 C2324 1.345 . S
N2323 C2326 1.336 . S
C2324 N2322 1.335 . S
C2324 N2323 1.345 . S
C2324 H2329 0.930 . S
C2325 N2322 1.390 . S
C2325 C2326 1.346 . S
C2325 H2330 0.930 . S
C2326 N2323 1.336 . S
C2326 C2325 1.346 . S
C2326 H2333 0.929 . S
C2327 O2317 1.282 . S
C2327 O2328 1.216 . S
O2328 C2327 1.216 . S
H2329 C2324 0.930 . S
H2330 C2325 0.930 . S
O2331 Cu2311 1.959 . S
O2331 C2318 1.251 . S
H2332 C2315 0.930 . S
H2333 C2326 0.929 . S
Cu2334 N2335 1.999 . S
Cu2334 O2340 1.974 . S
Cu2334 N2345 1.985 . S
Cu2334 O2354 1.959 . S
N2335 Cu2334 1.999 . S
N2335 C2337 1.263 . S
N2335 C2339 1.389 . S
N2336 C2337 1.358 . S
N2336 C2338 1.400 . S
C2337 N2335 1.263 . S
C2337 N2336 1.358 . S
C2337 H2343 0.930 . S
C2338 N2336 1.400 . S
C2338 C2339 1.351 . S
C2338 H2355 0.930 . S
C2339 N2335 1.389 . S
C2339 C2338 1.351 . S
C2339 H2344 0.930 . S
O2340 Cu2334 1.974 . S
O2340 C2350 1.282 . S
C2341 O2342 1.261 . S
C2341 O2354 1.251 . S
O2342 C2341 1.261 . S
H2343 C2337 0.930 . S
H2344 C2339 0.930 . S
N2345 Cu2334 1.985 . S
N2345 C2347 1.335 . S
N2345 C2348 1.390 . S
N2346 C2347 1.345 . S
N2346 C2349 1.336 . S
C2347 N2345 1.335 . S
C2347 N2346 1.345 . S
C2347 H2352 0.930 . S
C2348 N2345 1.390 . S
C2348 C2349 1.346 . S
C2348 H2353 0.930 . S
C2349 N2346 1.336 . S
C2349 C2348 1.346 . S
C2349 H2356 0.929 . S
C2350 O2340 1.282 . S
C2350 O2351 1.216 . S
O2351 C2350 1.216 . S
H2352 C2347 0.930 . S
H2353 C2348 0.930 . S
O2354 Cu2334 1.959 . S
O2354 C2341 1.251 . S
H2355 C2338 0.930 . S
H2356 C2349 0.929 . S
Cu2357 N2358 1.999 . S
Cu2357 O2363 1.974 . S
Cu2357 N2368 1.985 . S
Cu2357 O2377 1.959 . S
N2358 Cu2357 1.999 . S
N2358 C2360 1.263 . S
N2358 C2362 1.389 . S
N2359 C2360 1.358 . S
N2359 C2361 1.400 . S
C2360 N2358 1.263 . S
C2360 N2359 1.358 . S
C2360 H2366 0.930 . S
C2361 N2359 1.400 . S
C2361 C2362 1.351 . S
C2361 H2378 0.930 . S
C2362 N2358 1.389 . S
C2362 C2361 1.351 . S
C2362 H2367 0.930 . S
O2363 Cu2357 1.974 . S
O2363 C2373 1.282 . S
C2364 O2365 1.261 . S
C2364 O2377 1.251 . S
O2365 C2364 1.261 . S
H2366 C2360 0.930 . S
H2367 C2362 0.930 . S
N2368 Cu2357 1.985 . S
N2368 C2370 1.335 . S
N2368 C2371 1.390 . S
N2369 C2370 1.345 . S
N2369 C2372 1.336 . S
C2370 N2368 1.335 . S
C2370 N2369 1.345 . S
C2370 H2375 0.930 . S
C2371 N2368 1.390 . S
C2371 C2372 1.346 . S
C2371 H2376 0.930 . S
C2372 N2369 1.336 . S
C2372 C2371 1.346 . S
C2372 H2379 0.929 . S
C2373 O2363 1.282 . S
C2373 O2374 1.216 . S
O2374 C2373 1.216 . S
H2375 C2370 0.930 . S
H2376 C2371 0.930 . S
O2377 Cu2357 1.959 . S
O2377 C2364 1.251 . S
H2378 C2361 0.930 . S
H2379 C2372 0.929 . S
Cu2380 N2381 1.999 . S
Cu2380 O2386 1.974 . S
Cu2380 N2391 1.985 . S
Cu2380 O2400 1.959 . S
N2381 Cu2380 1.999 . S
N2381 C2383 1.263 . S
N2381 C2385 1.389 . S
N2382 C2383 1.358 . S
N2382 C2384 1.400 . S
C2383 N2381 1.263 . S
C2383 N2382 1.358 . S
C2383 H2389 0.930 . S
C2384 N2382 1.400 . S
C2384 C2385 1.351 . S
C2384 H2401 0.930 . S
C2385 N2381 1.389 . S
C2385 C2384 1.351 . S
C2385 H2390 0.930 . S
O2386 Cu2380 1.974 . S
O2386 C2396 1.282 . S
C2387 O2388 1.261 . S
C2387 O2400 1.251 . S
O2388 C2387 1.261 . S
H2389 C2383 0.930 . S
H2390 C2385 0.930 . S
N2391 Cu2380 1.985 . S
N2391 C2393 1.335 . S
N2391 C2394 1.390 . S
N2392 C2393 1.345 . S
N2392 C2395 1.336 . S
C2393 N2391 1.335 . S
C2393 N2392 1.345 . S
C2393 H2398 0.930 . S
C2394 N2391 1.390 . S
C2394 C2395 1.346 . S
C2394 H2399 0.930 . S
C2395 N2392 1.336 . S
C2395 C2394 1.346 . S
C2395 H2402 0.929 . S
C2396 O2386 1.282 . S
C2396 O2397 1.216 . S
O2397 C2396 1.216 . S
H2398 C2393 0.930 . S
H2399 C2394 0.930 . S
O2400 Cu2380 1.959 . S
O2400 C2387 1.251 . S
H2401 C2384 0.930 . S
H2402 C2395 0.929 . S
Cu2403 N2404 1.999 . S
Cu2403 O2409 1.974 . S
Cu2403 N2414 1.985 . S
Cu2403 O2423 1.959 . S
N2404 Cu2403 1.999 . S
N2404 C2406 1.263 . S
N2404 C2408 1.389 . S
N2405 C2406 1.358 . S
N2405 C2407 1.400 . S
C2406 N2404 1.263 . S
C2406 N2405 1.358 . S
C2406 H2412 0.930 . S
C2407 N2405 1.400 . S
C2407 C2408 1.351 . S
C2407 H2424 0.930 . S
C2408 N2404 1.389 . S
C2408 C2407 1.351 . S
C2408 H2413 0.930 . S
O2409 Cu2403 1.974 . S
O2409 C2419 1.282 . S
C2410 O2411 1.261 . S
C2410 O2423 1.251 . S
O2411 C2410 1.261 . S
H2412 C2406 0.930 . S
H2413 C2408 0.930 . S
N2414 Cu2403 1.985 . S
N2414 C2416 1.335 . S
N2414 C2417 1.390 . S
N2415 C2416 1.345 . S
N2415 C2418 1.336 . S
C2416 N2414 1.335 . S
C2416 N2415 1.345 . S
C2416 H2421 0.930 . S
C2417 N2414 1.390 . S
C2417 C2418 1.346 . S
C2417 H2422 0.930 . S
C2418 N2415 1.336 . S
C2418 C2417 1.346 . S
C2418 H2425 0.929 . S
C2419 O2409 1.282 . S
C2419 O2420 1.216 . S
O2420 C2419 1.216 . S
H2421 C2416 0.930 . S
H2422 C2417 0.930 . S
O2423 Cu2403 1.959 . S
O2423 C2410 1.251 . S
H2424 C2407 0.930 . S
H2425 C2418 0.929 . S
Cu2426 N2427 1.999 . S
Cu2426 O2432 1.974 . S
Cu2426 N2437 1.985 . S
Cu2426 O2446 1.959 . S
N2427 Cu2426 1.999 . S
N2427 C2429 1.263 . S
N2427 C2431 1.389 . S
N2428 C2429 1.358 . S
N2428 C2430 1.400 . S
C2429 N2427 1.263 . S
C2429 N2428 1.358 . S
C2429 H2435 0.930 . S
C2430 N2428 1.400 . S
C2430 C2431 1.351 . S
C2430 H2447 0.930 . S
C2431 N2427 1.389 . S
C2431 C2430 1.351 . S
C2431 H2436 0.930 . S
O2432 Cu2426 1.974 . S
O2432 C2442 1.282 . S
C2433 O2434 1.261 . S
C2433 O2446 1.251 . S
O2434 C2433 1.261 . S
H2435 C2429 0.930 . S
H2436 C2431 0.930 . S
N2437 Cu2426 1.985 . S
N2437 C2439 1.335 . S
N2437 C2440 1.390 . S
N2438 C2439 1.345 . S
N2438 C2441 1.336 . S
C2439 N2437 1.335 . S
C2439 N2438 1.345 . S
C2439 H2444 0.930 . S
C2440 N2437 1.390 . S
C2440 C2441 1.346 . S
C2440 H2445 0.930 . S
C2441 N2438 1.336 . S
C2441 C2440 1.346 . S
C2441 H2448 0.929 . S
C2442 O2432 1.282 . S
C2442 O2443 1.216 . S
O2443 C2442 1.216 . S
H2444 C2439 0.930 . S
H2445 C2440 0.930 . S
O2446 Cu2426 1.959 . S
O2446 C2433 1.251 . S
H2447 C2430 0.930 . S
H2448 C2441 0.929 . S
Cu2449 N2450 1.999 . S
Cu2449 O2455 1.974 . S
Cu2449 N2460 1.985 . S
Cu2449 O2469 1.959 . S
N2450 Cu2449 1.999 . S
N2450 C2452 1.263 . S
N2450 C2454 1.389 . S
N2451 C2452 1.358 . S
N2451 C2453 1.400 . S
C2452 N2450 1.263 . S
C2452 N2451 1.358 . S
C2452 H2458 0.930 . S
C2453 N2451 1.400 . S
C2453 C2454 1.351 . S
C2453 H2470 0.930 . S
C2454 N2450 1.389 . S
C2454 C2453 1.351 . S
C2454 H2459 0.930 . S
O2455 Cu2449 1.974 . S
O2455 C2465 1.282 . S
C2456 O2457 1.261 . S
C2456 O2469 1.251 . S
O2457 C2456 1.261 . S
H2458 C2452 0.930 . S
H2459 C2454 0.930 . S
N2460 Cu2449 1.985 . S
N2460 C2462 1.335 . S
N2460 C2463 1.390 . S
N2461 C2462 1.345 . S
N2461 C2464 1.336 . S
C2462 N2460 1.335 . S
C2462 N2461 1.345 . S
C2462 H2467 0.930 . S
C2463 N2460 1.390 . S
C2463 C2464 1.346 . S
C2463 H2468 0.930 . S
C2464 N2461 1.336 . S
C2464 C2463 1.346 . S
C2464 H2471 0.929 . S
C2465 O2455 1.282 . S
C2465 O2466 1.216 . S
O2466 C2465 1.216 . S
H2467 C2462 0.930 . S
H2468 C2463 0.930 . S
O2469 Cu2449 1.959 . S
O2469 C2456 1.251 . S
H2470 C2453 0.930 . S
H2471 C2464 0.929 . S
N1932 C1 1.385 . S
C1959 C80 1.727 . S
C140 C1973 1.567 . S
N1991 C211 1.486 . S
C241 C1996 1.769 . S
C320 C1936 1.831 . S
C391 N1955 1.279 . S
N1968 C421 1.553 . S
N2014 C31 1.275 . S
C61 N2037 1.577 . S
C121 N2060 1.850 . S
N2093 C181 1.406 . S
C260 C2120 1.561 . S
C2143 C331 1.731 . S
C380 C2166 1.593 . S
C2180 C440 1.368 . S
C20 C2097 1.454 . S
C271 N2139 1.476 . S
N2162 C301 1.358 . S
C361 N2175 1.432 . S
N2116 C451 1.384 . S
C2042 C151 1.816 . S
C200 C2065 1.684 . S
C2019 C91 1.761 . S
C2212 C500 1.523 . S
C560 C2226 1.732 . S
C620 N2254 1.464 . S
N2267 C691 1.448 . S
C721 C2272 1.843 . S
C811 N2208 1.738 . S
C871 N2221 1.569 . S
C901 C2258 1.471 . S
N2106 C511 1.492 . S
C541 N2290 1.415 . S
N2152 C601 1.415 . S
C661 C2327 1.902 . S
C740 C2028 1.746 . S
C2341 C781 1.770 . S
C860 C2074 1.585 . S
N2359 C920 1.383 . S
C481 N2323 1.426 . S
N2336 C751 1.695 . S
C800 N2070 1.400 . S
C2364 C841 1.372 . S
C931 N2024 1.375 . S
C631 C2295 1.639 . S
C680 C2157 1.725 . S
C571 C2111 1.687 . S
C961 C2249 1.493 . S
C2281 C1040 1.600 . S
C1100 N2198 1.408 . S
C1171 N2231 1.345 . S
C1201 C2235 1.829 . S
C1291 N2244 1.795 . S
N2277 C1351 1.262 . S
C1381 C2203 1.495 . S
N2392 C991 1.344 . S
C1021 N2129 1.363 . S
N2415 C1081 1.349 . S
C1141 N2185 1.742 . S
C1220 C2433 1.614 . S
C1261 C2051 1.949 . S
N2451 C1340 1.309 . S
C1400 C2088 1.540 . S
C2189 C980 1.479 . S
N2047 C1231 1.649 . S
C1280 C2456 1.602 . S
C1321 N2083 1.240 . S
N2428 C1411 1.677 . S
C2134 C1111 1.700 . S
C2419 C1160 1.850 . S
C2396 C1051 1.679 . S
C1460 N1978 1.304 . S
C1520 C2005 1.624 . S
C1927 C1580 1.598 . S
N1945 C1651 1.430 . S
C1950 C1681 1.951 . S
C1982 C1760 2.182 . S
N2001 C1831 1.504 . S
C1861 N1922 1.744 . S
C1471 N2438 1.243 . S
N2346 C1501 1.433 . S
C2465 C1561 1.763 . S
C2373 C1621 1.489 . S
C1700 C2387 1.647 . S
C2304 C1771 1.720 . S
C2410 C1820 1.772 . S
C1880 N2313 1.438 . S
N2369 C1441 1.258 . S
N2300 C1711 1.492 . S
N2405 C1741 1.380 . S
C1801 C2318 1.575 . S
C1891 N2382 1.510 . S
C1591 C2350 1.806 . S
C1640 N2461 1.336 . S
C2442 C1531 1.641 . S
