# Generated by pormake.
# Topology pto, (3,4)-cn, num edge types: 1
# Building blocks:
#     Node 0, Type 0, BuildingBlock: OLANEW_clean_sbu_2, # of connection points: 3
#     Node 1, Type 0, BuildingBlock: OLANEW_clean_sbu_2, # of connection points: 3
#     Node 2, Type 0, BuildingBlock: OLANEW_clean_sbu_2, # of connection points: 3
#     Node 3, Type 0, BuildingBlock: OLANEW_clean_sbu_2, # of connection points: 3
#     Node 4, Type 0, BuildingBlock: OLANEW_clean_sbu_2, # of connection points: 3
#     Node 5, Type 0, BuildingBlock: OLANEW_clean_sbu_2, # of connection points: 3
#     Node 6, Type 0, BuildingBlock: OLANEW_clean_sbu_2, # of connection points: 3
#     Node 7, Type 0, BuildingBlock: OLANEW_clean_sbu_2, # of connection points: 3
#     Node 8, Type 1, BuildingBlock: NAWXER_clean_linker_0, # of connection points: 4
#     Node 9, Type 1, BuildingBlock: NAWXER_clean_linker_0, # of connection points: 4
#     Node 10, Type 1, BuildingBlock: NAWXER_clean_linker_0, # of connection points: 4
#     Node 11, Type 1, BuildingBlock: NAWXER_clean_linker_0, # of connection points: 4
#     Node 12, Type 1, BuildingBlock: NAWXER_clean_linker_0, # of connection points: 4
#     Node 13, Type 1, BuildingBlock: NAWXER_clean_linker_0, # of connection points: 4
#     Edge 14, Type (0, 1), BuildingBlock: XIVTED_clean_linker_0, # of connection points: 2
#     Edge 15, Type (0, 1), BuildingBlock: XIVTED_clean_linker_0, # of connection points: 2
#     Edge 16, Type (0, 1), BuildingBlock: XIVTED_clean_linker_0, # of connection points: 2
#     Edge 17, Type (0, 1), BuildingBlock: XIVTED_clean_linker_0, # of connection points: 2
#     Edge 18, Type (0, 1), BuildingBlock: XIVTED_clean_linker_0, # of connection points: 2
#     Edge 19, Type (0, 1), BuildingBlock: XIVTED_clean_linker_0, # of connection points: 2
#     Edge 20, Type (0, 1), BuildingBlock: XIVTED_clean_linker_0, # of connection points: 2
#     Edge 21, Type (0, 1), BuildingBlock: XIVTED_clean_linker_0, # of connection points: 2
#     Edge 22, Type (0, 1), BuildingBlock: XIVTED_clean_linker_0, # of connection points: 2
#     Edge 23, Type (0, 1), BuildingBlock: XIVTED_clean_linker_0, # of connection points: 2
#     Edge 24, Type (0, 1), BuildingBlock: XIVTED_clean_linker_0, # of connection points: 2
#     Edge 25, Type (0, 1), BuildingBlock: XIVTED_clean_linker_0, # of connection points: 2
#     Edge 26, Type (0, 1), BuildingBlock: XIVTED_clean_linker_0, # of connection points: 2
#     Edge 27, Type (0, 1), BuildingBlock: XIVTED_clean_linker_0, # of connection points: 2
#     Edge 28, Type (0, 1), BuildingBlock: XIVTED_clean_linker_0, # of connection points: 2
#     Edge 29, Type (0, 1), BuildingBlock: XIVTED_clean_linker_0, # of connection points: 2
#     Edge 30, Type (0, 1), BuildingBlock: XIVTED_clean_linker_0, # of connection points: 2
#     Edge 31, Type (0, 1), BuildingBlock: XIVTED_clean_linker_0, # of connection points: 2
#     Edge 32, Type (0, 1), BuildingBlock: XIVTED_clean_linker_0, # of connection points: 2
#     Edge 33, Type (0, 1), BuildingBlock: XIVTED_clean_linker_0, # of connection points: 2
#     Edge 34, Type (0, 1), BuildingBlock: XIVTED_clean_linker_0, # of connection points: 2
#     Edge 35, Type (0, 1), BuildingBlock: XIVTED_clean_linker_0, # of connection points: 2
#     Edge 36, Type (0, 1), BuildingBlock: XIVTED_clean_linker_0, # of connection points: 2
#     Edge 37, Type (0, 1), BuildingBlock: XIVTED_clean_linker_0, # of connection points: 2
# Relax obj value: 0.009
# Max RMSD: 0.126
# Mean RMSD: 0.054
data_MOF--net-pto--node1-OLANEW_clean_sbu_2--node2-NAWXER_clean_linker_0--edge1-XIVTED_clean_linker_0
_symmetry_space_group_name_H-M    P1
_symmetry_Int_Tables_number       1
_symmetry_cell_setting            triclinic
loop_
_symmetry_equiv_pos_as_xyz
'x, y, z'
_cell_length_a     42.980657
_cell_length_b     60.835662
_cell_length_c     52.528093
_cell_angle_alpha  92.673439
_cell_angle_beta   89.768071
_cell_angle_gamma 104.64885
loop_
_atom_site_label
_atom_site_type_symbol
_atom_site_fract_x
_atom_site_fract_y
_atom_site_fract_z
_atom_type_partial_charge
O0 O 0.27206 0.30938 0.25318 0.0
Cd1 Cd 0.24159 0.31384 0.29166 0.0
O2 O 0.31633 0.3334 0.2677 0.0
Cd3 Cd 0.28987 0.34608 0.29824 0.0
O4 O 0.25531 0.36461 0.31232 0.0
C5 C 0.23627 0.36817 0.29544 0.0
O6 O 0.23846 0.36019 0.272 0.0
C7 C 0.30181 0.31891 0.25068 0.0
C8 C 0.24902 0.28259 0.32695 0.0
O9 O 0.22531 0.27792 0.31118 0.0
O10 O 0.26899 0.30215 0.32626 0.0
O11 O 0.32862 0.85173 0.73642 0.0
Cd12 Cd 0.29005 0.84558 0.70091 0.0
O13 O 0.3521 0.82631 0.71962 0.0
Cd14 Cd 0.31443 0.81324 0.691 0.0
O15 O 0.27221 0.78788 0.67595 0.0
C16 C 0.27628 0.76882 0.66778 0.0
O17 O 0.30556 0.76594 0.66733 0.0
C18 C 0.3509 0.84139 0.73696 0.0
C19 C 0.29468 0.88348 0.67167 0.0
O20 O 0.27433 0.87908 0.68982 0.0
O21 O 0.31319 0.87018 0.66757 0.0
O22 O 0.80362 0.79007 0.31494 0.0
Cd23 Cd 0.80357 0.76138 0.28058 0.0
O24 O 0.75147 0.78617 0.3114 0.0
Cd25 Cd 0.74445 0.7652 0.27602 0.0
O26 O 0.72478 0.76426 0.23757 0.0
C27 C 0.72895 0.78367 0.22818 0.0
O28 O 0.74557 0.80164 0.24141 0.0
C29 C 0.77811 0.79516 0.32264 0.0
C30 C 0.83741 0.72956 0.29289 0.0
O31 O 0.85162 0.74826 0.28291 0.0
O32 O 0.80722 0.72596 0.29727 0.0
O33 O 0.74711 0.29456 0.67706 0.0
Cd34 Cd 0.70804 0.25881 0.68574 0.0
O35 O 0.78111 0.28911 0.70583 0.0
Cd36 Cd 0.74356 0.26349 0.7237 0.0
O37 O 0.70337 0.2586 0.75027 0.0
C38 C 0.69363 0.27641 0.75507 0.0
O39 O 0.70743 0.29499 0.74341 0.0
C40 C 0.77461 0.30056 0.68784 0.0
C41 C 0.72013 0.22237 0.65642 0.0
O42 O 0.6997 0.23291 0.64903 0.0
O43 O 0.73478 0.22901 0.67768 0.0
O44 O 0.76833 0.78181 0.65012 0.0
Cd45 Cd 0.75832 0.75001 0.67857 0.0
O46 O 0.80509 0.80458 0.67479 0.0
Cd47 Cd 0.7928 0.78249 0.70677 0.0
O48 O 0.76425 0.7762 0.74135 0.0
C49 C 0.73512 0.77709 0.73944 0.0
O50 O 0.72399 0.78012 0.71695 0.0
C51 C 0.78917 0.80065 0.65401 0.0
C52 C 0.80199 0.72305 0.67245 0.0
O53 O 0.77679 0.71947 0.65834 0.0
O54 O 0.80673 0.73951 0.6893 0.0
O55 O 0.78875 0.28397 0.30513 0.0
Cd56 Cd 0.74955 0.24765 0.29557 0.0
O57 O 0.79794 0.28871 0.26426 0.0
Cd58 Cd 0.75757 0.26138 0.25019 0.0
O59 O 0.71584 0.25581 0.22491 0.0
C60 C 0.70598 0.2736 0.22229 0.0
O61 O 0.7204 0.29231 0.2354 0.0
C62 C 0.80439 0.29535 0.28739 0.0
C63 C 0.75513 0.21371 0.32795 0.0
O64 O 0.77304 0.21804 0.30831 0.0
O65 O 0.7347 0.22552 0.3324 0.0
O66 O 0.26136 0.3296 0.75347 0.0
Cd67 Cd 0.23481 0.32777 0.71189 0.0
O68 O 0.30687 0.3526 0.74185 0.0
Cd69 Cd 0.29177 0.34729 0.70201 0.0
O70 O 0.2837 0.3212 0.67108 0.0
C71 C 0.27918 0.30112 0.67872 0.0
O72 O 0.27887 0.29822 0.70337 0.0
C73 C 0.28961 0.34148 0.75902 0.0
C74 C 0.20134 0.36108 0.70619 0.0
O75 O 0.18745 0.34174 0.71491 0.0
O76 O 0.2312 0.3648 0.70052 0.0
O77 O 0.33056 0.85741 0.23373 0.0
Cd78 Cd 0.28626 0.8557 0.26367 0.0
O79 O 0.32805 0.82122 0.23806 0.0
Cd80 Cd 0.28989 0.81484 0.26637 0.0
O81 O 0.25224 0.79263 0.28801 0.0
C82 C 0.26095 0.77879 0.30207 0.0
O83 O 0.29175 0.7798 0.30403 0.0
C84 C 0.34047 0.83987 0.22771 0.0
C85 C 0.29664 0.89109 0.30083 0.0
O86 O 0.30334 0.87224 0.30526 0.0
O87 O 0.2856 0.89329 0.27872 0.0
C88 C 0.97471 0.45989 0.30602 0.0
C89 C 0.94895 0.45143 0.32243 0.0
C90 C -0.00659 0.4822 0.30938 0.0
C91 C 0.98728 0.49644 0.32956 0.0
C92 C 0.94249 0.46587 0.34238 0.0
C93 C 0.9614 0.48821 0.34582 0.0
C94 C 0.00714 0.5201 0.33312 0.0
C95 C 0.07215 0.47367 0.34538 0.0
C96 C 0.09561 0.47534 0.32632 0.0
C97 C 0.05446 0.49006 0.34815 0.0
C98 C 0.06004 0.50837 0.33194 0.0
C99 C 0.10161 0.49399 0.3106 0.0
C100 C 0.08417 0.5104 0.31351 0.0
C101 C 0.0411 0.5256 0.33375 0.0
C102 C 0.07708 0.62817 0.35196 0.0
C103 C 0.10525 0.63273 0.33737 0.0
C104 C 0.05657 0.60623 0.35146 0.0
C105 C 0.06343 0.5887 0.33574 0.0
C106 C 0.11231 0.61513 0.32202 0.0
C107 C 0.09162 0.59339 0.3212 0.0
C108 C 0.04265 0.56513 0.33502 0.0
C109 C 0.98091 0.60858 0.3078 0.0
C110 C 0.95552 0.61003 0.32425 0.0
C111 C -0.002 0.59216 0.31087 0.0
C112 C -0.00967 0.57695 0.3306 0.0
C113 C 0.94736 0.59437 0.34362 0.0
C114 C 0.9645 0.57791 0.34665 0.0
C115 C 0.00865 0.55966 0.33394 0.0
H116 H 0.98059 0.44925 0.29059 0.0
H117 H 0.01263 0.48834 0.29609 0.0
H118 H 0.9225 0.46005 0.35508 0.0
H119 H 0.95595 0.49904 0.36127 0.0
H120 H 0.06705 0.45947 0.35777 0.0
H121 H 0.03633 0.48837 0.36282 0.0
H122 H 0.1199 0.49594 0.29604 0.0
H123 H 0.08908 0.52448 0.30093 0.0
H124 H 0.07133 0.64143 0.36415 0.0
H125 H 0.03565 0.60296 0.3636 0.0
H126 H 0.13373 0.61825 0.31041 0.0
H127 H 0.09763 0.58021 0.30902 0.0
H128 H 0.98735 0.61995 0.29229 0.0
H129 H 0.01719 0.5913 0.29772 0.0
H130 H 0.92807 0.59507 0.35671 0.0
H131 H 0.95795 0.56617 0.36182 0.0
N132 N -0.00782 0.53735 0.33335 0.0
N133 N 0.05741 0.54785 0.33466 0.0
C134 C 0.95035 0.4576 0.6484 0.0
C135 C 0.92338 0.45376 0.66432 0.0
C136 C 0.97097 0.47934 0.64731 0.0
C137 C 0.96562 0.49754 0.66274 0.0
C138 C 0.91739 0.47208 0.6791 0.0
C139 C 0.93834 0.49375 0.67834 0.0
C140 C 0.9874 0.52073 0.66183 0.0
C141 C 0.049 0.47751 0.69042 0.0
C142 C 0.07407 0.47507 0.67411 0.0
C143 C 0.03173 0.49358 0.68596 0.0
C144 C 0.03886 0.50739 0.66493 0.0
C145 C 0.08145 0.48914 0.65326 0.0
C146 C 0.06413 0.50522 0.64881 0.0
C147 C 0.02127 0.52494 0.66055 0.0
C148 C 0.07042 0.626 0.66889 0.0
C149 C 0.09364 0.62904 0.64951 0.0
C150 C 0.04743 0.60524 0.67058 0.0
C151 C 0.0471 0.5872 0.65282 0.0
C152 C 0.09263 0.61108 0.63142 0.0
C153 C 0.06977 0.59034 0.6332 0.0
C154 C 0.02532 0.5644 0.65578 0.0
C155 C 0.96086 0.61049 0.63925 0.0
C156 C 0.94065 0.61283 0.65978 0.0
C157 C 0.9778 0.59362 0.63883 0.0
C158 C 0.97466 0.57874 0.65888 0.0
C159 C 0.93754 0.59785 0.67975 0.0
C160 C 0.95415 0.58085 0.67918 0.0
C161 C -0.00829 0.56043 0.65865 0.0
H162 H 0.95516 0.44385 0.63645 0.0
H163 H -0.00906 0.48189 0.63421 0.0
H164 H 0.89678 0.46956 0.69157 0.0
H165 H 0.93339 0.50753 0.69016 0.0
H166 H 0.04313 0.46733 0.70697 0.0
H167 H 0.01305 0.49543 0.69919 0.0
H168 H 0.10041 0.48758 0.64019 0.0
H169 H 0.07029 0.51584 0.63262 0.0
H170 H 0.07079 0.63933 0.68338 0.0
H171 H 0.0307 0.60304 0.68629 0.0
H172 H 0.10981 0.61292 0.61603 0.0
H173 H 0.07002 0.57661 0.61936 0.0
H174 H 0.96374 0.62182 0.62362 0.0
H175 H -0.00693 0.59204 0.62275 0.0
H176 H 0.9218 0.59903 0.69564 0.0
H177 H 0.95117 0.56943 0.69473 0.0
N178 N 0.97404 0.53873 0.66135 0.0
N179 N 0.0388 0.54652 0.65705 0.0
C180 C 0.25742 0.15361 0.46099 0.0
C181 C 0.2803 0.16292 0.44266 0.0
C182 C 0.26186 0.13624 0.47594 0.0
C183 C 0.28935 0.12789 0.47296 0.0
C184 C 0.3078 0.15453 0.4397 0.0
C185 C 0.31212 0.13702 0.45456 0.0
C186 C 0.29348 0.10883 0.48799 0.0
C187 C 0.30386 0.16868 0.54312 0.0
C188 C 0.27994 0.16601 0.56188 0.0
C189 C 0.30718 0.15006 0.52774 0.0
C190 C 0.28641 0.12843 0.53061 0.0
C191 C 0.25936 0.14429 0.56484 0.0
C192 C 0.26269 0.12568 0.54944 0.0
C193 C 0.29001 0.10851 0.5147 0.0
C194 C 0.31908 0.01946 0.54009 0.0
C195 C 0.29629 0.01334 0.55955 0.0
C196 C 0.31914 0.03796 0.52517 0.0
C197 C 0.29589 0.0504 0.52892 0.0
C198 C 0.2737 0.0263 0.56368 0.0
C199 C 0.27348 0.04452 0.54854 0.0
C200 C 0.29545 0.07032 0.51372 0.0
C201 C 0.2836 0.01196 0.45446 0.0
C202 C 0.30671 0.01563 0.43504 0.0
C203 C 0.28159 0.02967 0.47186 0.0
C204 C 0.30311 0.05123 0.47047 0.0
C205 C 0.32837 0.03714 0.43387 0.0
C206 C 0.32653 0.05475 0.45135 0.0
C207 C 0.29958 0.07084 0.48696 0.0
H208 H 0.23607 0.15979 0.4638 0.0
H209 H 0.24356 0.1291 0.4896 0.0
H210 H 0.32563 0.16115 0.4255 0.0
H211 H 0.3333 0.13064 0.45174 0.0
H212 H 0.32055 0.18506 0.54071 0.0
H213 H 0.32632 0.15251 0.51387 0.0
H214 H 0.2405 0.14168 0.57895 0.0
H215 H 0.24652 0.10913 0.55209 0.0
H216 H 0.33679 0.0099 0.53621 0.0
H217 H 0.33753 0.04259 0.51086 0.0
H218 H 0.25634 0.02263 0.57888 0.0
H219 H 0.25563 0.05404 0.55219 0.0
H220 H 0.26628 -0.00434 0.45559 0.0
H221 H 0.26262 0.02669 0.48588 0.0
H222 H 0.3466 0.04042 0.41925 0.0
H223 H 0.3432 0.07127 0.44975 0.0
N224 N 0.29847 0.09011 0.47525 0.0
N225 N 0.29084 0.08923 0.52645 0.0
C226 C 0.51446 0.84823 0.89627 0.0
C227 C 0.48106 0.83935 0.89361 0.0
C228 C 0.53056 0.84438 0.91804 0.0
C229 C 0.51371 0.83105 0.9373 0.0
C230 C 0.46409 0.82661 0.91322 0.0
C231 C 0.48026 0.82252 0.93483 0.0
C232 C 0.53034 0.82676 0.96058 0.0
C233 C 0.57526 0.79446 0.89608 0.0
C234 C 0.60847 0.80373 0.89316 0.0
C235 C 0.55939 0.80027 0.91767 0.0
C236 C 0.57633 0.81572 0.93659 0.0
C237 C 0.62537 0.81907 0.91224 0.0
C238 C 0.60948 0.8249 0.93377 0.0
C239 C 0.5603 0.82108 0.96022 0.0
C240 C 0.57916 0.79866 0.06832 0.0
C241 C 0.61186 0.80987 0.07185 0.0
C242 C 0.56227 0.80253 0.04698 0.0
C243 C 0.57766 0.81787 0.02891 0.0
C244 C 0.62725 0.82497 0.05352 0.0
C245 C 0.61035 0.82882 0.03223 0.0
C246 C 0.5606 0.82157 0.00569 0.0
C247 C 0.51074 0.84693 0.07218 0.0
C248 C 0.47922 0.83356 0.07524 0.0
C249 C 0.52748 0.84484 0.04965 0.0
C250 C 0.51289 0.82942 0.02983 0.0
C251 C 0.46452 0.81849 0.05514 0.0
C252 C 0.48111 0.81659 0.03258 0.0
C253 C 0.53028 0.82659 0.00605 0.0
H254 H 0.52806 0.85845 0.88167 0.0
H255 H 0.55615 0.85199 0.91986 0.0
H256 H 0.43837 0.81942 0.91163 0.0
H257 H 0.46662 0.81242 0.94951 0.0
H258 H 0.56165 0.7823 0.88196 0.0
H259 H 0.534 0.79235 0.91978 0.0
H260 H 0.65088 0.82672 0.91045 0.0
H261 H 0.62311 0.83668 0.94824 0.0
H262 H 0.56655 0.78701 0.08212 0.0
H263 H 0.53731 0.79333 0.04448 0.0
H264 H 0.65253 0.83356 0.05541 0.0
H265 H 0.62285 0.84043 0.01832 0.0
H266 H 0.52264 0.85866 0.08737 0.0
H267 H 0.55181 0.85521 0.04773 0.0
H268 H 0.44009 0.80823 0.05684 0.0
H269 H 0.46931 0.80476 0.01742 0.0
N270 N 0.51634 0.82899 0.98351 0.0
N271 N 0.57439 0.81903 0.9828 0.0
C272 C 0.75074 0.07964 0.45774 0.0
C273 C 0.77261 0.08634 0.43781 0.0
C274 C 0.7525 0.06151 0.47257 0.0
C275 C 0.7768 0.05007 0.46841 0.0
C276 C 0.79626 0.07433 0.43318 0.0
C277 C 0.79832 0.05644 0.44832 0.0
C278 C 0.77913 0.03076 0.48395 0.0
C279 C 0.79036 0.09138 0.53911 0.0
C280 C 0.76343 0.08937 0.55496 0.0
C281 C 0.79491 0.07247 0.52483 0.0
C282 C 0.77271 0.05122 0.52629 0.0
C283 C 0.74155 0.068 0.55666 0.0
C284 C 0.74635 0.04905 0.54266 0.0
C285 C 0.77663 0.03116 0.51086 0.0
C286 C 0.81508 0.94613 0.53589 0.0
C287 C 0.79063 0.93592 0.5526 0.0
C288 C 0.81267 0.965 0.52261 0.0
C289 C 0.78585 0.97405 0.5259 0.0
C290 C 0.76416 0.94534 0.55629 0.0
C291 C 0.76196 0.9644 0.54323 0.0
C292 C 0.78234 0.99321 0.51079 0.0
C293 C 0.76282 0.93118 0.45876 0.0
C294 C 0.78568 0.93157 0.43945 0.0
C295 C 0.76219 0.95097 0.47305 0.0
C296 C 0.78474 0.97157 0.46867 0.0
C297 C 0.80798 0.95229 0.43485 0.0
C298 C 0.80737 0.97214 0.44924 0.0
C299 C 0.78403 0.99255 0.48393 0.0
H300 H 0.73231 0.08848 0.46208 0.0
H301 H 0.73466 0.05639 0.48719 0.0
H302 H 0.81302 0.07851 0.41764 0.0
H303 H 0.81689 0.04761 0.44436 0.0
H304 H 0.80756 0.10767 0.53741 0.0
H305 H 0.81565 0.07443 0.51255 0.0
H306 H 0.72082 0.06591 0.56896 0.0
H307 H 0.72908 0.03276 0.54419 0.0
H308 H 0.8357 0.93919 0.53265 0.0
H309 H 0.83159 0.9724 0.50955 0.0
H310 H 0.74518 0.93796 0.56931 0.0
H311 H 0.74118 0.97123 0.54612 0.0
H312 H 0.74543 0.91552 0.46295 0.0
H313 H 0.7439 0.95018 0.48746 0.0
H314 H 0.82556 0.95326 0.41984 0.0
H315 H 0.82473 0.9879 0.44532 0.0
N316 N 0.78277 0.01143 0.47155 0.0
N317 N 0.77828 0.01235 0.52324 0.0
C318 C 0.4427 0.32263 0.91353 0.0
C319 C 0.40937 0.3128 0.91157 0.0
C320 C 0.46081 0.31721 0.93322 0.0
C321 C 0.44627 0.30128 0.95102 0.0
C322 C 0.39478 0.29721 0.92974 0.0
C323 C 0.41302 0.29152 0.94918 0.0
C324 C 0.46473 0.29621 0.97286 0.0
C325 C 0.51548 0.27492 0.90384 0.0
C326 C 0.54696 0.28844 0.90094 0.0
C327 C 0.49858 0.27674 0.92635 0.0
C328 C 0.51298 0.29202 0.94635 0.0
C329 C 0.5612 0.30375 0.92098 0.0
C330 C 0.54448 0.30536 0.94354 0.0
C331 C 0.49631 0.29329 0.97085 0.0
C332 C 0.52418 0.26799 0.07637 0.0
C333 C 0.55514 0.28236 0.08042 0.0
C334 C 0.50566 0.2706 0.05543 0.0
C335 C 0.5178 0.28762 0.0382 0.0
C336 C 0.56736 0.29914 0.0629 0.0
C337 C 0.54894 0.30162 0.04189 0.0
C338 C 0.4986 0.29065 0.01595 0.0
C339 C 0.44939 0.31206 0.08496 0.0
C340 C 0.41912 0.29729 0.08945 0.0
C341 C 0.46504 0.31062 0.06181 0.0
C342 C 0.45078 0.2944 0.04266 0.0
C343 C 0.40492 0.28108 0.0701 0.0
C344 C 0.42048 0.27981 0.04686 0.0
C345 C 0.4669 0.2931 0.01794 0.0
H346 H 0.45494 0.33455 0.89985 0.0
H347 H 0.48609 0.32585 0.93472 0.0
H348 H 0.36912 0.28964 0.92929 0.0
H349 H 0.40104 0.27956 0.96294 0.0
H350 H 0.50393 0.26301 0.88868 0.0
H351 H 0.47451 0.26596 0.92831 0.0
H352 H 0.58558 0.31414 0.91944 0.0
H353 H 0.55615 0.31707 0.95883 0.0
H354 H 0.51414 0.25494 0.08958 0.0
H355 H 0.48193 0.25927 0.05265 0.0
H356 H 0.59132 0.31023 0.06529 0.0
H357 H 0.55889 0.31469 0.02868 0.0
H358 H 0.46078 0.32509 0.09911 0.0
H359 H 0.48811 0.32241 0.05873 0.0
H360 H 0.38188 0.26921 0.07295 0.0
H361 H 0.40903 0.26723 0.03226 0.0
N362 N 0.45118 0.29575 -0.00365 0.0
N363 N 0.51209 0.29088 -0.00749 0.0
H364 H 0.22476 0.38762 0.34177 0.0
H365 H 0.10777 0.45503 0.28132 0.0
H366 H 0.1953 0.38055 0.2627 0.0
H367 H 0.12442 0.45541 0.36229 0.0
H368 H 0.13998 0.42757 0.27453 0.0
H369 H 0.18826 0.41221 0.3502 0.0
C370 C 0.21053 0.39113 0.32622 0.0
C371 C 0.21324 0.38209 0.30145 0.0
C372 C 0.13653 0.43353 0.29382 0.0
C373 C 0.1716 0.41024 0.31094 0.0
C374 C 0.11826 0.44931 0.29769 0.0
C375 C 0.11364 0.45764 0.32239 0.0
C376 C 0.15059 0.42609 0.31479 0.0
C377 C 0.12733 0.44935 0.34294 0.0
C378 C 0.18969 0.40515 0.33105 0.0
C379 C 0.19415 0.38717 0.28207 0.0
N380 N 0.14543 0.43415 0.33867 0.0
N381 N 0.17434 0.40098 0.2872 0.0
H382 H 0.21192 0.76726 0.67129 0.0
H383 H 0.15717 0.63319 0.6387 0.0
H384 H 0.27705 0.72605 0.64996 0.0
H385 H 0.0905 0.6733 0.65969 0.0
H386 H 0.2007 0.66773 0.6398 0.0
H387 H 0.16663 0.73384 0.66426 0.0
C388 C 0.2167 0.75125 0.66491 0.0
C389 C 0.24838 0.74943 0.66138 0.0
C390 C 0.17654 0.66905 0.64403 0.0
C391 C 0.19667 0.71111 0.65344 0.0
C392 C 0.15155 0.6493 0.64323 0.0
C393 C 0.12 0.65027 0.64907 0.0
C394 C 0.17014 0.69005 0.65086 0.0
C395 C 0.11447 0.67167 0.65535 0.0
C396 C 0.19082 0.73217 0.66096 0.0
C397 C 0.25309 0.72825 0.65307 0.0
N398 N 0.13931 0.6907 0.65616 0.0
N399 N 0.22756 0.70994 0.64954 0.0
H400 H 0.9019 0.73304 0.28781 0.0
H401 H 0.89056 0.60612 0.32897 0.0
H402 H 0.81363 0.68711 0.3112 0.0
H403 H 0.97975 0.65451 0.31225 0.0
H404 H 0.86187 0.63542 0.32268 0.0
H405 H 0.93068 0.70432 0.29649 0.0
C406 C 0.88855 0.71693 0.29483 0.0
C407 C 0.85526 0.71249 0.29874 0.0
C408 C 0.88773 0.63964 0.32044 0.0
C409 C 0.88813 0.67942 0.30867 0.0
C410 C 0.90418 0.62293 0.32417 0.0
C411 C 0.93767 0.62778 0.32105 0.0
C412 C 0.90484 0.66138 0.3135 0.0
C413 C 0.95389 0.64983 0.31444 0.0
C414 C 0.90503 0.70052 0.2998 0.0
C415 C 0.83929 0.69129 0.3079 0.0
N416 N 0.93734 0.66575 0.31084 0.0
N417 N 0.85584 0.67553 0.31247 0.0
H418 H 0.83895 0.31418 0.6993 0.0
H419 H 0.85775 0.44154 0.66082 0.0
H420 H 0.76338 0.33549 0.66133 0.0
H421 H 0.93951 0.41365 0.67059 0.0
H422 H 0.82206 0.40336 0.6639 0.0
H423 H 0.87589 0.35101 0.69145 0.0
C424 C 0.83019 0.32653 0.68913 0.0
C425 C 0.798 0.32178 0.68102 0.0
C426 C 0.84782 0.40558 0.66521 0.0
C427 C 0.83998 0.36402 0.67234 0.0
C428 C 0.86813 0.42735 0.66363 0.0
C429 C 0.90156 0.4307 0.66552 0.0
C430 C 0.861 0.3871 0.66914 0.0
C431 C 0.91385 0.41173 0.6689 0.0
C432 C 0.85129 0.34752 0.68463 0.0
C433 C 0.788 0.3384 0.66787 0.0
N434 N 0.89355 0.39076 0.67085 0.0
N435 N 0.80881 0.35889 0.66421 0.0
H436 H 0.30043 0.28516 0.35864 0.0
H437 H 0.22474 0.16486 0.41863 0.0
H438 H 0.20792 0.24148 0.33643 0.0
H439 H 0.32394 0.20191 0.42933 0.0
H440 H 0.21661 0.19444 0.39138 0.0
H441 H 0.30796 0.25646 0.38749 0.0
C442 C 0.28164 0.26957 0.3599 0.0
C443 C 0.25352 0.2657 0.34505 0.0
C444 C 0.24017 0.19612 0.39969 0.0
C445 C 0.26198 0.2328 0.37806 0.0
C446 C 0.24477 0.17931 0.41538 0.0
C447 C 0.27507 0.18093 0.42628 0.0
C448 C 0.26599 0.21481 0.39496 0.0
C449 C 0.30027 0.19988 0.4211 0.0
C450 C 0.28601 0.25317 0.37631 0.0
C451 C 0.23002 0.24517 0.34745 0.0
N452 N 0.29515 0.21611 0.40586 0.0
N453 N 0.23477 0.22952 0.36364 0.0
H454 H 0.4072 0.82846 0.74017 0.0
H455 H 0.42432 0.85185 0.89035 0.0
H456 H 0.3463 0.86265 0.78354 0.0
H457 H 0.49881 0.83504 0.8439 0.0
H458 H 0.39505 0.85565 0.85158 0.0
H459 H 0.44117 0.83083 0.77786 0.0
C460 C 0.40115 0.83668 0.75756 0.0
C461 C 0.37374 0.84526 0.75872 0.0
C462 C 0.41793 0.85133 0.84986 0.0
C463 C 0.41234 0.84774 0.8021 0.0
C464 C 0.43453 0.84901 0.87197 0.0
C465 C 0.46395 0.84301 0.87032 0.0
C466 C 0.43061 0.84731 0.82591 0.0
C467 C 0.47629 0.83981 0.84603 0.0
C468 C 0.42058 0.83804 0.77908 0.0
C469 C 0.36718 0.85581 0.78176 0.0
N470 N 0.45942 0.84178 0.82479 0.0
N471 N 0.38611 0.8565 0.80263 0.0
H472 H 0.72768 0.80734 0.34603 0.0
H473 H 0.83744 0.91615 0.42254 0.0
H474 H 0.83147 0.82387 0.34569 0.0
H475 H 0.73366 0.89895 0.42067 0.0
H476 H 0.83625 0.88155 0.39636 0.0
H477 H 0.7299 0.83941 0.37606 0.0
C478 C 0.75099 0.8176 0.35244 0.0
C479 C 0.77944 0.81296 0.34315 0.0
C480 C 0.81376 0.88532 0.40179 0.0
C481 C 0.78216 0.85002 0.37749 0.0
C482 C 0.81441 0.90515 0.41659 0.0
C483 C 0.7856 0.91051 0.42384 0.0
C484 C 0.78407 0.87077 0.39412 0.0
C485 C 0.75648 0.89542 0.41587 0.0
C486 C 0.75224 0.83599 0.36958 0.0
C487 C 0.80892 0.82682 0.3523 0.0
N488 N 0.75649 0.87633 0.40142 0.0
N489 N 0.80952 0.84485 0.36882 0.0
H490 H 0.65863 0.24117 0.78254 0.0
H491 H 0.58275 0.3227 0.87331 0.0
H492 H 0.67225 0.31297 0.77223 0.0
H493 H 0.55332 0.24955 0.87518 0.0
H494 H 0.61602 0.31922 0.8363 0.0
H495 H 0.62013 0.24348 0.8165 0.0
C496 C 0.65341 0.25737 0.7873 0.0
C497 C 0.66884 0.27693 0.7746 0.0
C498 C 0.60215 0.30389 0.84466 0.0
C499 C 0.62501 0.27971 0.81348 0.0
C500 C 0.58327 0.30589 0.86586 0.0
C501 C 0.56539 0.28639 0.87739 0.0
C502 C 0.60351 0.28222 0.83501 0.0
C503 C 0.56661 0.26502 0.86676 0.0
C504 C 0.63141 0.25867 0.80666 0.0
C505 C 0.66107 0.29746 0.78153 0.0
N506 N 0.58559 0.26349 0.84629 0.0
N507 N 0.63991 0.29833 0.80058 0.0
H508 H 0.34259 0.90322 0.63913 0.0
H509 H 0.24416 0.98326 0.57969 0.0
H510 H 0.24991 0.90803 0.66719 0.0
H511 H 0.34785 -0.00167 0.57631 0.0
H512 H 0.24435 0.9523 0.60745 0.0
H513 H 0.34352 0.93487 0.61162 0.0
C514 C 0.32247 0.91094 0.63952 0.0
C515 C 0.29614 0.903 0.6555 0.0
C516 C 0.26704 0.96243 0.60064 0.0
C517 C 0.2969 0.93892 0.62389 0.0
C518 C 0.26703 0.98024 0.58486 0.0
C519 C 0.29608 0.99374 0.57569 0.0
C520 C 0.29623 0.95771 0.60708 0.0
C521 C 0.3248 0.98834 0.58256 0.0
C522 C 0.32307 0.92901 0.62389 0.0
C523 C 0.27075 0.91366 0.65527 0.0
N524 N 0.32414 0.97072 0.59777 0.0
N525 N 0.27165 0.93095 0.63958 0.0
H526 H 0.68818 0.75094 0.19762 0.0
H527 H 0.65599 0.84115 0.10109 0.0
H528 H 0.73406 0.82286 0.20342 0.0
H529 H 0.60902 0.76946 0.09428 0.0
H530 H 0.68597 0.83431 0.13792 0.0
H531 H 0.66029 0.75686 0.15893 0.0
C532 C 0.69256 0.76794 0.19068 0.0
C533 C 0.71342 0.78645 0.20385 0.0
C534 C 0.66914 0.82003 0.12838 0.0
C535 C 0.68148 0.79335 0.15971 0.0
C536 C 0.65211 0.82392 0.10724 0.0
C537 C 0.62995 0.80585 0.0945 0.0
C538 C 0.66407 0.79789 0.13697 0.0
C539 C 0.62556 0.78395 0.10368 0.0
C540 C 0.67656 0.77131 0.16864 0.0
C541 C 0.71814 0.80809 0.19398 0.0
N542 N 0.64247 0.78058 0.12433 0.0
N543 N 0.70224 0.81093 0.1726 0.0
H544 H 0.68511 0.19867 0.616 0.0
H545 H 0.80656 0.12123 0.58437 0.0
H546 H 0.76983 0.20219 0.66143 0.0
H547 H 0.7078 0.10327 0.55862 0.0
H548 H 0.79649 0.15406 0.60881 0.0
H549 H 0.69598 0.16658 0.59083 0.0
C550 C 0.70604 0.19273 0.62064 0.0
C551 C 0.72655 0.20308 0.64089 0.0
C552 C 0.77704 0.14291 0.59782 0.0
C553 C 0.73923 0.1665 0.61205 0.0
C554 C 0.78282 0.12428 0.58378 0.0
C555 C 0.75793 0.1095 0.56955 0.0
C556 C 0.7463 0.14697 0.59729 0.0
C557 C 0.72755 0.11413 0.56957 0.0
C558 C 0.71216 0.17438 0.60632 0.0
C559 C 0.7533 0.19465 0.64607 0.0
N560 N 0.72261 0.13251 0.58313 0.0
N561 N 0.75895 0.17691 0.63167 0.0
H562 H 0.2762 0.29526 0.20685 0.0
H563 H 0.44521 0.30719 0.13771 0.0
H564 H 0.36673 0.33107 0.24175 0.0
H565 H 0.3543 0.29154 0.09735 0.0
H566 H 0.41702 0.31142 0.1774 0.0
H567 H 0.30478 0.28872 0.16806 0.0
C568 C 0.30211 0.30163 0.20643 0.0
C569 C 0.31907 0.31383 0.22757 0.0
C570 C 0.4033 0.30702 0.15983 0.0
C571 C 0.35192 0.30633 0.1832 0.0
C572 C 0.41938 0.30472 0.1371 0.0
C573 C 0.40221 0.29909 0.11398 0.0
C574 C 0.36974 0.30346 0.15957 0.0
C575 C 0.36861 0.29558 0.11464 0.0
C576 C 0.31838 0.29796 0.18424 0.0
C577 C 0.35265 0.32169 0.22588 0.0
N578 N 0.35352 0.29781 0.13703 0.0
N579 N 0.36798 0.31779 0.20408 0.0
H580 H 0.85179 0.72168 0.70419 0.0
H581 H 0.90566 0.62403 0.62117 0.0
H582 H 0.80353 0.69072 0.63466 0.0
H583 H 0.9339 0.64179 0.69968 0.0
H584 H 0.87349 0.65208 0.62326 0.0
H585 H 0.88737 0.69606 0.70031 0.0
C586 C 0.84877 0.70958 0.68803 0.0
C587 C 0.82454 0.70828 0.66977 0.0
C588 C 0.8868 0.64987 0.64 0.0
C589 C 0.86529 0.67897 0.66519 0.0
C590 C 0.90531 0.63399 0.63877 0.0
C591 C 0.92235 0.63053 0.66032 0.0
C592 C 0.88562 0.66257 0.66286 0.0
C593 C 0.92082 0.64374 0.68271 0.0
C594 C 0.86904 0.69492 0.68588 0.0
C595 C 0.82177 0.69224 0.64925 0.0
N596 N 0.90281 0.65918 0.68339 0.0
N597 N 0.8419 0.67823 0.6475 0.0
H598 H 0.84173 0.32318 0.25373 0.0
H599 H 0.92278 0.42053 0.35831 0.0
H600 H 0.82209 0.31732 0.33417 0.0
H601 H 0.92851 0.42841 0.27702 0.0
H602 H 0.88931 0.38173 0.35058 0.0
H603 H 0.87804 0.36042 0.26276 0.0
C604 C 0.84518 0.32964 0.27336 0.0
C605 C 0.82861 0.3171 0.29321 0.0
C606 C 0.89799 0.39198 0.33447 0.0
C607 C 0.87023 0.36004 0.30368 0.0
C608 C 0.91694 0.41417 0.33886 0.0
C609 C 0.9286 0.42781 0.31828 0.0
C610 C 0.89072 0.38333 0.30934 0.0
C611 C 0.9206 0.41849 0.29349 0.0
C612 C 0.8659 0.35101 0.27849 0.0
C613 C 0.83427 0.32641 0.31826 0.0
N614 N 0.90222 0.39689 0.28975 0.0
N615 N 0.85452 0.34739 0.32278 0.0
H616 H 0.22407 0.40397 0.68888 0.0
H617 H 0.05142 0.43165 0.6902 0.0
H618 H 0.1373 0.35763 0.7143 0.0
H619 H 0.13909 0.4797 0.66935 0.0
H620 H 0.08244 0.40423 0.69882 0.0
H621 H 0.19334 0.43183 0.68128 0.0
C622 C 0.19857 0.39967 0.69294 0.0
C623 C 0.18325 0.3784 0.70223 0.0
C624 C 0.09491 0.42078 0.69237 0.0
C625 C 0.14786 0.41022 0.69347 0.0
C626 C 0.07722 0.4365 0.68755 0.0
C627 C 0.09263 0.45807 0.67905 0.0
C628 C 0.12832 0.42659 0.68865 0.0
C629 C 0.12608 0.4632 0.67555 0.0
C630 C 0.18103 0.41559 0.68858 0.0
C631 C 0.15014 0.37379 0.70713 0.0
N632 N 0.14278 0.44759 0.68037 0.0
N633 N 0.13356 0.38954 0.70264 0.0
H634 H 0.19506 0.77037 0.30041 0.0
H635 H 0.1702 0.64389 0.34433 0.0
H636 H 0.27184 0.74384 0.32857 0.0
H637 H 0.09092 0.67361 0.33139 0.0
H638 H 0.20751 0.68121 0.3407 0.0
H639 H 0.15611 0.7362 0.31385 0.0
C640 C 0.20372 0.75751 0.30969 0.0
C641 C 0.23682 0.75985 0.31308 0.0
C642 C 0.18195 0.67969 0.33891 0.0
C643 C 0.19241 0.72066 0.32828 0.0
C644 C 0.16069 0.65837 0.34089 0.0
C645 C 0.12753 0.6557 0.33791 0.0
C646 C 0.17003 0.69846 0.33355 0.0
C647 C 0.11636 0.67502 0.33381 0.0
C648 C 0.18146 0.73801 0.31737 0.0
C649 C 0.24661 0.7427 0.32535 0.0
N650 N 0.13763 0.69558 0.3314 0.0
N651 N 0.22455 0.72374 0.33222 0.0
H652 H 0.75029 0.80191 0.61322 0.0
H653 H 0.8421 0.92832 0.57812 0.0
H654 H 0.83532 0.84107 0.65326 0.0
H655 H 0.74352 0.89663 0.55701 0.0
H656 H 0.84429 0.89416 0.60033 0.0
H657 H 0.75225 0.83411 0.58659 0.0
C658 C 0.76964 0.81715 0.6162 0.0
C659 C 0.79255 0.81884 0.63565 0.0
C660 C 0.82222 0.89469 0.59078 0.0
C661 C 0.7948 0.85577 0.60527 0.0
C662 C 0.821 0.91411 0.57806 0.0
C663 C 0.79252 0.91532 0.56588 0.0
C664 C 0.7949 0.87626 0.59103 0.0
C665 C 0.7658 0.89649 0.56647 0.0
C666 C 0.7706 0.83557 0.60109 0.0
C667 C 0.81702 0.83906 0.63862 0.0
N668 N 0.76766 0.87772 0.5788 0.0
N669 N 0.81744 0.85678 0.62365 0.0
H670 H 0.6825 0.30971 0.21106 0.0
H671 H 0.56467 0.24325 0.09937 0.0
H672 H 0.67182 0.23862 0.19051 0.0
H673 H 0.59016 0.31616 0.11246 0.0
H674 H 0.59886 0.24017 0.13561 0.0
H675 H 0.6436 0.31121 0.17806 0.0
C676 C 0.67184 0.29434 0.19971 0.0
C677 C 0.68063 0.27403 0.20347 0.0
C678 C 0.59688 0.25682 0.13056 0.0
C679 C 0.63597 0.27569 0.16546 0.0
C680 C 0.57727 0.25858 0.10999 0.0
C681 C 0.57475 0.28001 0.10282 0.0
C682 C 0.61385 0.27662 0.14416 0.0
C683 C 0.59178 0.29933 0.1171 0.0
C684 C 0.64964 0.29525 0.18078 0.0
C685 C 0.66585 0.25466 0.18819 0.0
N686 N 0.61059 0.29718 0.13706 0.0
N687 N 0.64431 0.25599 0.16977 0.0
H688 H 0.28386 0.30078 0.62646 0.0
H689 H 0.26832 0.16671 0.61319 0.0
H690 H 0.26784 0.25639 0.68959 0.0
H691 H 0.28536 0.21018 0.54925 0.0
H692 H 0.26522 0.19929 0.64097 0.0
H693 H 0.2818 0.26775 0.59737 0.0
C694 C 0.27973 0.2841 0.63419 0.0
C695 C 0.27619 0.28137 0.66052 0.0
C696 C 0.26953 0.20173 0.62085 0.0
C697 C 0.27389 0.24357 0.62741 0.0
C698 C 0.2711 0.18307 0.60492 0.0
C699 C 0.27712 0.18567 0.57881 0.0
C700 C 0.27406 0.22325 0.61068 0.0
C701 C 0.2811 0.20742 0.56931 0.0
C702 C 0.2786 0.26526 0.61759 0.0
C703 C 0.27086 0.25936 0.66946 0.0
N704 N 0.27956 0.22538 0.58525 0.0
N705 N 0.26999 0.24136 0.65297 0.0
H706 H 0.37297 0.87634 0.20069 0.0
H707 H 0.44515 0.79848 0.10246 0.0
H708 H 0.3633 0.80457 0.20845 0.0
H709 H 0.4734 0.87176 0.10288 0.0
H710 H 0.41427 0.80073 0.14113 0.0
H711 H 0.40957 0.87557 0.16491 0.0
C712 C 0.37871 0.86048 0.19504 0.0
C713 C 0.36484 0.84046 0.20753 0.0
C714 C 0.42733 0.81636 0.1329 0.0
C715 C 0.40641 0.83944 0.16653 0.0
C716 C 0.4448 0.81506 0.11073 0.0
C717 C 0.46166 0.83496 0.09938 0.0
C718 C 0.42636 0.83773 0.14375 0.0
C719 C 0.4608 0.85602 0.11111 0.0
C720 C 0.39961 0.86006 0.17463 0.0
C721 C 0.37324 0.82042 0.19939 0.0
N722 N 0.44319 0.85687 0.13257 0.0
N723 N 0.39322 0.8204 0.17933 0.0
H724 H 0.71188 0.19308 0.36331 0.0
H725 H 0.8221 0.11786 0.41629 0.0
H726 H 0.80421 0.1927 0.33093 0.0
H727 H 0.71854 0.09903 0.42267 0.0
H728 H 0.81807 0.14884 0.38962 0.0
H729 H 0.71619 0.16224 0.39037 0.0
C730 C 0.73311 0.18658 0.36197 0.0
C731 C 0.7577 0.19542 0.3448 0.0
C732 C 0.79628 0.13788 0.39689 0.0
C733 C 0.76285 0.16034 0.37582 0.0
C734 C 0.79848 0.12006 0.41202 0.0
C735 C 0.77061 0.10559 0.42181 0.0
C736 C 0.76605 0.14157 0.39177 0.0
C737 C 0.74079 0.10985 0.41603 0.0
C738 C 0.73547 0.16893 0.37733 0.0
C739 C 0.78463 0.18631 0.34381 0.0
N740 N 0.73933 0.12748 0.40149 0.0
N741 N 0.78657 0.16933 0.3592 0.0
H742 H 0.26584 0.31147 0.79581 0.0
H743 H 0.41696 0.35415 0.88964 0.0
H744 H 0.34586 0.36807 0.77986 0.0
H745 H 0.3571 0.2853 0.88587 0.0
H746 H 0.38586 0.36307 0.85449 0.0
H747 H 0.29318 0.30587 0.83476 0.0
C748 C 0.28892 0.32296 0.80068 0.0
C749 C 0.3037 0.34016 0.78441 0.0
C750 C 0.37954 0.34606 0.8615 0.0
C751 C 0.3351 0.33376 0.82895 0.0
C752 C 0.39743 0.34085 0.88145 0.0
C753 C 0.38994 0.31882 0.89076 0.0
C754 C 0.35365 0.32926 0.85096 0.0
C755 C 0.36365 0.30257 0.8797 0.0
C756 C 0.30459 0.31964 0.82283 0.0
C757 C 0.33369 0.35449 0.79174 0.0
N758 N 0.34651 0.30812 0.86042 0.0
N759 N 0.34847 0.35092 0.81344 0.0
H760 H 0.30914 0.88933 0.35174 0.0
H761 H 0.312 0.0197 0.38356 0.0
H762 H 0.293 0.93487 0.29551 0.0
H763 H 0.30227 0.97037 0.4414 0.0
H764 H 0.31169 0.98971 0.35093 0.0
H765 H 0.31317 0.91976 0.38473 0.0
C766 C 0.30663 0.90576 0.3463 0.0
C767 C 0.30063 0.90955 0.32083 0.0
C768 C 0.30967 0.98543 0.37075 0.0
C769 C 0.30528 0.94439 0.35844 0.0
C770 C 0.31007 0.00257 0.3894 0.0
C771 C 0.30721 -0.00248 0.41524 0.0
C772 C 0.30663 0.96305 0.37793 0.0
C773 C 0.30428 0.97495 0.42168 0.0
C774 C 0.30881 0.92307 0.36515 0.0
C775 C 0.29751 0.93115 0.3149 0.0
N776 N 0.30415 0.95853 0.40314 0.0
N777 N 0.29991 0.94775 0.33355 0.0
H778 H 0.75198 0.77506 0.78947 0.0
H779 H 0.588 0.79824 0.84332 0.0
H780 H 0.6727 0.78 0.74175 0.0
H781 H 0.66782 0.79464 0.89115 0.0
H782 H 0.61715 0.78877 0.80608 0.0
H783 H 0.71997 0.77927 0.82712 0.0
C784 C 0.72775 0.77682 0.78689 0.0
C785 C 0.7151 0.77734 0.7624 0.0
C786 C 0.62826 0.78997 0.82473 0.0
C787 C 0.6784 0.78232 0.80543 0.0
C788 C 0.61155 0.79528 0.84603 0.0
C789 C 0.62554 0.79737 0.87041 0.0
C790 C 0.65923 0.78672 0.82778 0.0
C791 C 0.65631 0.7936 0.87269 0.0
C792 C 0.70951 0.77929 0.80841 0.0
C793 C 0.68353 0.77963 0.76024 0.0
N794 N 0.67214 0.78852 0.85166 0.0
N795 N 0.66636 0.78217 0.78146 0.0
loop_
_geom_bond_atom_site_label_1
_geom_bond_atom_site_label_2
_geom_bond_distance
_geom_bond_site_symmetry_2
_ccdc_geom_bond_type
O0 Cd1 2.300 . S
O0 C7 1.275 . S
Cd1 O0 2.300 . S
Cd1 O9 2.381 . S
Cd1 O10 2.378 . S
O2 Cd3 2.385 . S
O2 C7 1.255 . S
Cd3 O2 2.385 . S
Cd3 O4 2.317 . S
O4 Cd3 2.317 . S
O4 C5 1.232 . S
C5 O4 1.232 . S
C5 O6 1.218 . S
O6 C5 1.218 . S
C7 O0 1.275 . S
C7 O2 1.255 . S
C8 O9 1.258 . S
C8 O10 1.256 . S
O9 Cd1 2.381 . S
O9 C8 1.258 . S
O10 Cd1 2.378 . S
O10 C8 1.256 . S
O11 Cd12 2.300 . S
O11 C18 1.275 . S
Cd12 O11 2.300 . S
Cd12 O20 2.381 . S
Cd12 O21 2.378 . S
O13 Cd14 2.385 . S
O13 C18 1.255 . S
Cd14 O13 2.385 . S
Cd14 O15 2.317 . S
O15 Cd14 2.317 . S
O15 C16 1.232 . S
C16 O15 1.232 . S
C16 O17 1.218 . S
O17 C16 1.218 . S
C18 O11 1.275 . S
C18 O13 1.255 . S
C19 O20 1.258 . S
C19 O21 1.256 . S
O20 Cd12 2.381 . S
O20 C19 1.258 . S
O21 Cd12 2.378 . S
O21 C19 1.256 . S
O22 Cd23 2.300 . S
O22 C29 1.275 . S
Cd23 O22 2.300 . S
Cd23 O31 2.381 . S
Cd23 O32 2.378 . S
O24 Cd25 2.385 . S
O24 C29 1.255 . S
Cd25 O24 2.385 . S
Cd25 O26 2.317 . S
O26 Cd25 2.317 . S
O26 C27 1.232 . S
C27 O26 1.232 . S
C27 O28 1.218 . S
O28 C27 1.218 . S
C29 O22 1.275 . S
C29 O24 1.255 . S
C30 O31 1.258 . S
C30 O32 1.256 . S
O31 Cd23 2.381 . S
O31 C30 1.258 . S
O32 Cd23 2.378 . S
O32 C30 1.256 . S
O33 Cd34 2.300 . S
O33 C40 1.275 . S
Cd34 O33 2.300 . S
Cd34 O42 2.381 . S
Cd34 O43 2.378 . S
O35 Cd36 2.385 . S
O35 C40 1.255 . S
Cd36 O35 2.385 . S
Cd36 O37 2.317 . S
O37 Cd36 2.317 . S
O37 C38 1.232 . S
C38 O37 1.232 . S
C38 O39 1.218 . S
O39 C38 1.218 . S
C40 O33 1.275 . S
C40 O35 1.255 . S
C41 O42 1.258 . S
C41 O43 1.256 . S
O42 Cd34 2.381 . S
O42 C41 1.258 . S
O43 Cd34 2.378 . S
O43 C41 1.256 . S
O44 Cd45 2.300 . S
O44 C51 1.275 . S
Cd45 O44 2.300 . S
Cd45 O53 2.381 . S
Cd45 O54 2.378 . S
O46 Cd47 2.385 . S
O46 C51 1.255 . S
Cd47 O46 2.385 . S
Cd47 O48 2.317 . S
O48 Cd47 2.317 . S
O48 C49 1.232 . S
C49 O48 1.232 . S
C49 O50 1.218 . S
O50 C49 1.218 . S
C51 O44 1.275 . S
C51 O46 1.255 . S
C52 O53 1.258 . S
C52 O54 1.256 . S
O53 Cd45 2.381 . S
O53 C52 1.258 . S
O54 Cd45 2.378 . S
O54 C52 1.256 . S
O55 Cd56 2.300 . S
O55 C62 1.275 . S
Cd56 O55 2.300 . S
Cd56 O64 2.381 . S
Cd56 O65 2.378 . S
O57 Cd58 2.385 . S
O57 C62 1.255 . S
Cd58 O57 2.385 . S
Cd58 O59 2.317 . S
O59 Cd58 2.317 . S
O59 C60 1.232 . S
C60 O59 1.232 . S
C60 O61 1.218 . S
O61 C60 1.218 . S
C62 O55 1.275 . S
C62 O57 1.255 . S
C63 O64 1.258 . S
C63 O65 1.256 . S
O64 Cd56 2.381 . S
O64 C63 1.258 . S
O65 Cd56 2.378 . S
O65 C63 1.256 . S
O66 Cd67 2.300 . S
O66 C73 1.275 . S
Cd67 O66 2.300 . S
Cd67 O75 2.381 . S
Cd67 O76 2.378 . S
O68 Cd69 2.385 . S
O68 C73 1.255 . S
Cd69 O68 2.385 . S
Cd69 O70 2.317 . S
O70 Cd69 2.317 . S
O70 C71 1.232 . S
C71 O70 1.232 . S
C71 O72 1.218 . S
O72 C71 1.218 . S
C73 O66 1.275 . S
C73 O68 1.255 . S
C74 O75 1.258 . S
C74 O76 1.256 . S
O75 Cd67 2.381 . S
O75 C74 1.258 . S
O76 Cd67 2.378 . S
O76 C74 1.256 . S
O77 Cd78 2.300 . S
O77 C84 1.275 . S
Cd78 O77 2.300 . S
Cd78 O86 2.381 . S
Cd78 O87 2.378 . S
O79 Cd80 2.385 . S
O79 C84 1.255 . S
Cd80 O79 2.385 . S
Cd80 O81 2.317 . S
O81 Cd80 2.317 . S
O81 C82 1.232 . S
C82 O81 1.232 . S
C82 O83 1.218 . S
O83 C82 1.218 . S
C84 O77 1.275 . S
C84 O79 1.255 . S
C85 O86 1.258 . S
C85 O87 1.256 . S
O86 Cd78 2.381 . S
O86 C85 1.258 . S
O87 Cd78 2.378 . S
O87 C85 1.256 . S
C88 C89 1.384 . S
C88 C90 1.384 1_655 S
C88 H116 0.931 . S
C89 C88 1.384 . S
C89 C92 1.382 . S
C90 C88 1.384 1_455 S
C90 C91 1.381 . S
C90 H117 0.930 . S
C91 C90 1.381 . S
C91 C93 1.381 1_455 S
C91 C94 1.487 . S
C92 C89 1.382 . S
C92 C93 1.387 . S
C92 H118 0.930 . S
C93 C91 1.381 1_655 S
C93 C92 1.387 . S
C93 H119 0.931 . S
C94 C91 1.487 . S
C94 C101 1.399 . S
C94 N132 1.343 . S
C95 C96 1.384 . S
C95 C97 1.384 . S
C95 H120 0.931 . S
C96 C95 1.384 . S
C96 C99 1.382 . S
C97 C95 1.384 . S
C97 C98 1.381 . S
C97 H121 0.930 . S
C98 C97 1.381 . S
C98 C100 1.381 . S
C98 C101 1.487 . S
C99 C96 1.382 . S
C99 C100 1.387 . S
C99 H122 0.930 . S
C100 C98 1.381 . S
C100 C99 1.387 . S
C100 H123 0.931 . S
C101 C94 1.399 . S
C101 C98 1.487 . S
C101 N133 1.343 . S
C102 C103 1.384 . S
C102 C104 1.384 . S
C102 H124 0.931 . S
C103 C102 1.384 . S
C103 C106 1.382 . S
C104 C102 1.384 . S
C104 C105 1.381 . S
C104 H125 0.930 . S
C105 C104 1.381 . S
C105 C107 1.381 . S
C105 C108 1.487 . S
C106 C103 1.382 . S
C106 C107 1.387 . S
C106 H126 0.930 . S
C107 C105 1.381 . S
C107 C106 1.387 . S
C107 H127 0.931 . S
C108 C105 1.487 . S
C108 C115 1.399 . S
C108 N133 1.343 . S
C109 C110 1.384 . S
C109 C111 1.384 1_655 S
C109 H128 0.931 . S
C110 C109 1.384 . S
C110 C113 1.382 . S
C111 C109 1.384 1_455 S
C111 C112 1.381 . S
C111 H129 0.930 . S
C112 C111 1.381 . S
C112 C114 1.381 1_455 S
C112 C115 1.487 . S
C113 C110 1.382 . S
C113 C114 1.387 . S
C113 H130 0.930 . S
C114 C112 1.381 1_655 S
C114 C113 1.387 . S
C114 H131 0.931 . S
C115 C108 1.399 . S
C115 C112 1.487 . S
C115 N132 1.343 . S
H116 C88 0.931 . S
H117 C90 0.930 . S
H118 C92 0.930 . S
H119 C93 0.931 . S
H120 C95 0.931 . S
H121 C97 0.930 . S
H122 C99 0.930 . S
H123 C100 0.931 . S
H124 C102 0.931 . S
H125 C104 0.930 . S
H126 C106 0.930 . S
H127 C107 0.931 . S
H128 C109 0.931 . S
H129 C111 0.930 . S
H130 C113 0.930 . S
H131 C114 0.931 . S
N132 C94 1.343 . S
N132 C115 1.343 . S
N133 C101 1.343 . S
N133 C108 1.343 . S
C134 C135 1.384 . S
C134 C136 1.384 . S
C134 H162 0.931 . S
C135 C134 1.384 . S
C135 C138 1.382 . S
C136 C134 1.384 . S
C136 C137 1.381 . S
C136 H163 0.930 . S
C137 C136 1.381 . S
C137 C139 1.381 . S
C137 C140 1.487 . S
C138 C135 1.382 . S
C138 C139 1.387 . S
C138 H164 0.930 . S
C139 C137 1.381 . S
C139 C138 1.387 . S
C139 H165 0.931 . S
C140 C137 1.487 . S
C140 C147 1.399 1_655 S
C140 N178 1.343 . S
C141 C142 1.384 . S
C141 C143 1.384 . S
C141 H166 0.931 . S
C142 C141 1.384 . S
C142 C145 1.382 . S
C143 C141 1.384 . S
C143 C144 1.381 . S
C143 H167 0.930 . S
C144 C143 1.381 . S
C144 C146 1.381 . S
C144 C147 1.487 . S
C145 C142 1.382 . S
C145 C146 1.387 . S
C145 H168 0.930 . S
C146 C144 1.381 . S
C146 C145 1.387 . S
C146 H169 0.931 . S
C147 C140 1.399 1_455 S
C147 C144 1.487 . S
C147 N179 1.343 . S
C148 C149 1.384 . S
C148 C150 1.384 . S
C148 H170 0.931 . S
C149 C148 1.384 . S
C149 C152 1.382 . S
C150 C148 1.384 . S
C150 C151 1.381 . S
C150 H171 0.930 . S
C151 C150 1.381 . S
C151 C153 1.381 . S
C151 C154 1.487 . S
C152 C149 1.382 . S
C152 C153 1.387 . S
C152 H172 0.930 . S
C153 C151 1.381 . S
C153 C152 1.387 . S
C153 H173 0.931 . S
C154 C151 1.487 . S
C154 C161 1.399 1_455 S
C154 N179 1.343 . S
C155 C156 1.384 . S
C155 C157 1.384 . S
C155 H174 0.931 . S
C156 C155 1.384 . S
C156 C159 1.382 . S
C157 C155 1.384 . S
C157 C158 1.381 . S
C157 H175 0.930 . S
C158 C157 1.381 . S
C158 C160 1.381 . S
C158 C161 1.487 . S
C159 C156 1.382 . S
C159 C160 1.387 . S
C159 H176 0.930 . S
C160 C158 1.381 . S
C160 C159 1.387 . S
C160 H177 0.931 . S
C161 C154 1.399 1_655 S
C161 C158 1.487 . S
C161 N178 1.343 . S
H162 C134 0.931 . S
H163 C136 0.930 . S
H164 C138 0.930 . S
H165 C139 0.931 . S
H166 C141 0.931 . S
H167 C143 0.930 . S
H168 C145 0.930 . S
H169 C146 0.931 . S
H170 C148 0.931 . S
H171 C150 0.930 . S
H172 C152 0.930 . S
H173 C153 0.931 . S
H174 C155 0.931 . S
H175 C157 0.930 . S
H176 C159 0.930 . S
H177 C160 0.931 . S
N178 C140 1.343 . S
N178 C161 1.343 . S
N179 C147 1.343 . S
N179 C154 1.343 . S
C180 C181 1.384 . S
C180 C182 1.384 . S
C180 H208 0.931 . S
C181 C180 1.384 . S
C181 C184 1.382 . S
C182 C180 1.384 . S
C182 C183 1.381 . S
C182 H209 0.930 . S
C183 C182 1.381 . S
C183 C185 1.381 . S
C183 C186 1.487 . S
C184 C181 1.382 . S
C184 C185 1.387 . S
C184 H210 0.930 . S
C185 C183 1.381 . S
C185 C184 1.387 . S
C185 H211 0.931 . S
C186 C183 1.487 . S
C186 C193 1.399 . S
C186 N224 1.343 . S
C187 C188 1.384 . S
C187 C189 1.384 . S
C187 H212 0.931 . S
C188 C187 1.384 . S
C188 C191 1.382 . S
C189 C187 1.384 . S
C189 C190 1.381 . S
C189 H213 0.930 . S
C190 C189 1.381 . S
C190 C192 1.381 . S
C190 C193 1.487 . S
C191 C188 1.382 . S
C191 C192 1.387 . S
C191 H214 0.930 . S
C192 C190 1.381 . S
C192 C191 1.387 . S
C192 H215 0.931 . S
C193 C186 1.399 . S
C193 C190 1.487 . S
C193 N225 1.343 . S
C194 C195 1.384 . S
C194 C196 1.384 . S
C194 H216 0.931 . S
C195 C194 1.384 . S
C195 C198 1.382 . S
C196 C194 1.384 . S
C196 C197 1.381 . S
C196 H217 0.930 . S
C197 C196 1.381 . S
C197 C199 1.381 . S
C197 C200 1.487 . S
C198 C195 1.382 . S
C198 C199 1.387 . S
C198 H218 0.930 . S
C199 C197 1.381 . S
C199 C198 1.387 . S
C199 H219 0.931 . S
C200 C197 1.487 . S
C200 C207 1.399 . S
C200 N225 1.343 . S
C201 C202 1.384 . S
C201 C203 1.384 . S
C201 H220 0.931 . S
C202 C201 1.384 . S
C202 C205 1.382 . S
C203 C201 1.384 . S
C203 C204 1.381 . S
C203 H221 0.930 . S
C204 C203 1.381 . S
C204 C206 1.381 . S
C204 C207 1.487 . S
C205 C202 1.382 . S
C205 C206 1.387 . S
C205 H222 0.930 . S
C206 C204 1.381 . S
C206 C205 1.387 . S
C206 H223 0.931 . S
C207 C200 1.399 . S
C207 C204 1.487 . S
C207 N224 1.343 . S
H208 C180 0.931 . S
H209 C182 0.930 . S
H210 C184 0.930 . S
H211 C185 0.931 . S
H212 C187 0.931 . S
H213 C189 0.930 . S
H214 C191 0.930 . S
H215 C192 0.931 . S
H216 C194 0.931 . S
H217 C196 0.930 . S
H218 C198 0.930 . S
H219 C199 0.931 . S
H220 C201 0.931 . S
H221 C203 0.930 . S
H222 C205 0.930 . S
H223 C206 0.931 . S
N224 C186 1.343 . S
N224 C207 1.343 . S
N225 C193 1.343 . S
N225 C200 1.343 . S
C226 C227 1.384 . S
C226 C228 1.384 . S
C226 H254 0.931 . S
C227 C226 1.384 . S
C227 C230 1.382 . S
C228 C226 1.384 . S
C228 C229 1.381 . S
C228 H255 0.930 . S
C229 C228 1.381 . S
C229 C231 1.381 . S
C229 C232 1.487 . S
C230 C227 1.382 . S
C230 C231 1.387 . S
C230 H256 0.930 . S
C231 C229 1.381 . S
C231 C230 1.387 . S
C231 H257 0.931 . S
C232 C229 1.487 . S
C232 C239 1.399 . S
C232 N270 1.343 1_556 S
C233 C234 1.384 . S
C233 C235 1.384 . S
C233 H258 0.931 . S
C234 C233 1.384 . S
C234 C237 1.382 . S
C235 C233 1.384 . S
C235 C236 1.381 . S
C235 H259 0.930 . S
C236 C235 1.381 . S
C236 C238 1.381 . S
C236 C239 1.487 . S
C237 C234 1.382 . S
C237 C238 1.387 . S
C237 H260 0.930 . S
C238 C236 1.381 . S
C238 C237 1.387 . S
C238 H261 0.931 . S
C239 C232 1.399 . S
C239 C236 1.487 . S
C239 N271 1.343 1_556 S
C240 C241 1.384 . S
C240 C242 1.384 . S
C240 H262 0.931 . S
C241 C240 1.384 . S
C241 C244 1.382 . S
C242 C240 1.384 . S
C242 C243 1.381 . S
C242 H263 0.930 . S
C243 C242 1.381 . S
C243 C245 1.381 . S
C243 C246 1.487 . S
C244 C241 1.382 . S
C244 C245 1.387 . S
C244 H264 0.930 . S
C245 C243 1.381 . S
C245 C244 1.387 . S
C245 H265 0.931 . S
C246 C243 1.487 . S
C246 C253 1.399 . S
C246 N271 1.343 . S
C247 C248 1.384 . S
C247 C249 1.384 . S
C247 H266 0.931 . S
C248 C247 1.384 . S
C248 C251 1.382 . S
C249 C247 1.384 . S
C249 C250 1.381 . S
C249 H267 0.930 . S
C250 C249 1.381 . S
C250 C252 1.381 . S
C250 C253 1.487 . S
C251 C248 1.382 . S
C251 C252 1.387 . S
C251 H268 0.930 . S
C252 C250 1.381 . S
C252 C251 1.387 . S
C252 H269 0.931 . S
C253 C246 1.399 . S
C253 C250 1.487 . S
C253 N270 1.343 . S
H254 C226 0.931 . S
H255 C228 0.930 . S
H256 C230 0.930 . S
H257 C231 0.931 . S
H258 C233 0.931 . S
H259 C235 0.930 . S
H260 C237 0.930 . S
H261 C238 0.931 . S
H262 C240 0.931 . S
H263 C242 0.930 . S
H264 C244 0.930 . S
H265 C245 0.931 . S
H266 C247 0.931 . S
H267 C249 0.930 . S
H268 C251 0.930 . S
H269 C252 0.931 . S
N270 C232 1.343 1_554 S
N270 C253 1.343 . S
N271 C239 1.343 1_554 S
N271 C246 1.343 . S
C272 C273 1.384 . S
C272 C274 1.384 . S
C272 H300 0.931 . S
C273 C272 1.384 . S
C273 C276 1.382 . S
C274 C272 1.384 . S
C274 C275 1.381 . S
C274 H301 0.930 . S
C275 C274 1.381 . S
C275 C277 1.381 . S
C275 C278 1.487 . S
C276 C273 1.382 . S
C276 C277 1.387 . S
C276 H302 0.930 . S
C277 C275 1.381 . S
C277 C276 1.387 . S
C277 H303 0.931 . S
C278 C275 1.487 . S
C278 C285 1.399 . S
C278 N316 1.343 . S
C279 C280 1.384 . S
C279 C281 1.384 . S
C279 H304 0.931 . S
C280 C279 1.384 . S
C280 C283 1.382 . S
C281 C279 1.384 . S
C281 C282 1.381 . S
C281 H305 0.930 . S
C282 C281 1.381 . S
C282 C284 1.381 . S
C282 C285 1.487 . S
C283 C280 1.382 . S
C283 C284 1.387 . S
C283 H306 0.930 . S
C284 C282 1.381 . S
C284 C283 1.387 . S
C284 H307 0.931 . S
C285 C278 1.399 . S
C285 C282 1.487 . S
C285 N317 1.343 . S
C286 C287 1.384 . S
C286 C288 1.384 . S
C286 H308 0.931 . S
C287 C286 1.384 . S
C287 C290 1.382 . S
C288 C286 1.384 . S
C288 C289 1.381 . S
C288 H309 0.930 . S
C289 C288 1.381 . S
C289 C291 1.381 . S
C289 C292 1.487 . S
C290 C287 1.382 . S
C290 C291 1.387 . S
C290 H310 0.930 . S
C291 C289 1.381 . S
C291 C290 1.387 . S
C291 H311 0.931 . S
C292 C289 1.487 . S
C292 C299 1.399 . S
C292 N317 1.343 1_565 S
C293 C294 1.384 . S
C293 C295 1.384 . S
C293 H312 0.931 . S
C294 C293 1.384 . S
C294 C297 1.382 . S
C295 C293 1.384 . S
C295 C296 1.381 . S
C295 H313 0.930 . S
C296 C295 1.381 . S
C296 C298 1.381 . S
C296 C299 1.487 . S
C297 C294 1.382 . S
C297 C298 1.387 . S
C297 H314 0.930 . S
C298 C296 1.381 . S
C298 C297 1.387 . S
C298 H315 0.931 . S
C299 C292 1.399 . S
C299 C296 1.487 . S
C299 N316 1.343 1_565 S
H300 C272 0.931 . S
H301 C274 0.930 . S
H302 C276 0.930 . S
H303 C277 0.931 . S
H304 C279 0.931 . S
H305 C281 0.930 . S
H306 C283 0.930 . S
H307 C284 0.931 . S
H308 C286 0.931 . S
H309 C288 0.930 . S
H310 C290 0.930 . S
H311 C291 0.931 . S
H312 C293 0.931 . S
H313 C295 0.930 . S
H314 C297 0.930 . S
H315 C298 0.931 . S
N316 C278 1.343 . S
N316 C299 1.343 1_545 S
N317 C285 1.343 . S
N317 C292 1.343 1_545 S
C318 C319 1.384 . S
C318 C320 1.384 . S
C318 H346 0.931 . S
C319 C318 1.384 . S
C319 C322 1.382 . S
C320 C318 1.384 . S
C320 C321 1.381 . S
C320 H347 0.930 . S
C321 C320 1.381 . S
C321 C323 1.381 . S
C321 C324 1.487 . S
C322 C319 1.382 . S
C322 C323 1.387 . S
C322 H348 0.930 . S
C323 C321 1.381 . S
C323 C322 1.387 . S
C323 H349 0.931 . S
C324 C321 1.487 . S
C324 C331 1.399 . S
C324 N362 1.343 1_556 S
C325 C326 1.384 . S
C325 C327 1.384 . S
C325 H350 0.931 . S
C326 C325 1.384 . S
C326 C329 1.382 . S
C327 C325 1.384 . S
C327 C328 1.381 . S
C327 H351 0.930 . S
C328 C327 1.381 . S
C328 C330 1.381 . S
C328 C331 1.487 . S
C329 C326 1.382 . S
C329 C330 1.387 . S
C329 H352 0.930 . S
C330 C328 1.381 . S
C330 C329 1.387 . S
C330 H353 0.931 . S
C331 C324 1.399 . S
C331 C328 1.487 . S
C331 N363 1.343 1_556 S
C332 C333 1.384 . S
C332 C334 1.384 . S
C332 H354 0.931 . S
C333 C332 1.384 . S
C333 C336 1.382 . S
C334 C332 1.384 . S
C334 C335 1.381 . S
C334 H355 0.930 . S
C335 C334 1.381 . S
C335 C337 1.381 . S
C335 C338 1.487 . S
C336 C333 1.382 . S
C336 C337 1.387 . S
C336 H356 0.930 . S
C337 C335 1.381 . S
C337 C336 1.387 . S
C337 H357 0.931 . S
C338 C335 1.487 . S
C338 C345 1.399 . S
C338 N363 1.343 . S
C339 C340 1.384 . S
C339 C341 1.384 . S
C339 H358 0.931 . S
C340 C339 1.384 . S
C340 C343 1.382 . S
C341 C339 1.384 . S
C341 C342 1.381 . S
C341 H359 0.930 . S
C342 C341 1.381 . S
C342 C344 1.381 . S
C342 C345 1.487 . S
C343 C340 1.382 . S
C343 C344 1.387 . S
C343 H360 0.930 . S
C344 C342 1.381 . S
C344 C343 1.387 . S
C344 H361 0.931 . S
C345 C338 1.399 . S
C345 C342 1.487 . S
C345 N362 1.343 . S
H346 C318 0.931 . S
H347 C320 0.930 . S
H348 C322 0.930 . S
H349 C323 0.931 . S
H350 C325 0.931 . S
H351 C327 0.930 . S
H352 C329 0.930 . S
H353 C330 0.931 . S
H354 C332 0.931 . S
H355 C334 0.930 . S
H356 C336 0.930 . S
H357 C337 0.931 . S
H358 C339 0.931 . S
H359 C341 0.930 . S
H360 C343 0.930 . S
H361 C344 0.931 . S
N362 C324 1.343 1_554 S
N362 C345 1.343 . S
N363 C331 1.343 1_554 S
N363 C338 1.343 . S
H364 C370 0.930 . S
H365 C374 0.930 . S
H366 C379 0.929 . S
H367 C377 0.929 . S
H368 C372 0.929 . S
H369 C378 0.929 . S
C370 H364 0.930 . S
C370 C371 1.367 . S
C370 C378 1.378 . S
C371 C370 1.367 . S
C371 C379 1.433 . S
C372 H368 0.929 . S
C372 C374 1.378 . S
C372 C376 1.350 . S
C373 C376 1.463 . S
C373 C378 1.350 . S
C373 N381 1.427 . S
C374 H365 0.930 . S
C374 C372 1.378 . S
C374 C375 1.367 . S
C375 C374 1.367 . S
C375 C377 1.433 . S
C376 C372 1.350 . S
C376 C373 1.463 . S
C376 N380 1.427 . S
C377 H367 0.929 . S
C377 C375 1.433 . S
C377 N380 1.384 . S
C378 H369 0.929 . S
C378 C370 1.378 . S
C378 C373 1.350 . S
C379 H366 0.929 . S
C379 C371 1.433 . S
C379 N381 1.384 . S
N380 C376 1.427 . S
N380 C377 1.384 . S
N381 C373 1.427 . S
N381 C379 1.384 . S
H382 C388 0.930 . S
H383 C392 0.930 . S
H384 C397 0.929 . S
H385 C395 0.929 . S
H386 C390 0.929 . S
H387 C396 0.929 . S
C388 H382 0.930 . S
C388 C389 1.367 . S
C388 C396 1.378 . S
C389 C388 1.367 . S
C389 C397 1.433 . S
C390 H386 0.929 . S
C390 C392 1.378 . S
C390 C394 1.350 . S
C391 C394 1.463 . S
C391 C396 1.350 . S
C391 N399 1.427 . S
C392 H383 0.930 . S
C392 C390 1.378 . S
C392 C393 1.367 . S
C393 C392 1.367 . S
C393 C395 1.433 . S
C394 C390 1.350 . S
C394 C391 1.463 . S
C394 N398 1.427 . S
C395 H385 0.929 . S
C395 C393 1.433 . S
C395 N398 1.384 . S
C396 H387 0.929 . S
C396 C388 1.378 . S
C396 C391 1.350 . S
C397 H384 0.929 . S
C397 C389 1.433 . S
C397 N399 1.384 . S
N398 C394 1.427 . S
N398 C395 1.384 . S
N399 C391 1.427 . S
N399 C397 1.384 . S
H400 C406 0.930 . S
H401 C410 0.930 . S
H402 C415 0.929 . S
H403 C413 0.929 . S
H404 C408 0.929 . S
H405 C414 0.929 . S
C406 H400 0.930 . S
C406 C407 1.367 . S
C406 C414 1.378 . S
C407 C406 1.367 . S
C407 C415 1.433 . S
C408 H404 0.929 . S
C408 C410 1.378 . S
C408 C412 1.350 . S
C409 C412 1.463 . S
C409 C414 1.350 . S
C409 N417 1.427 . S
C410 H401 0.930 . S
C410 C408 1.378 . S
C410 C411 1.367 . S
C411 C410 1.367 . S
C411 C413 1.433 . S
C412 C408 1.350 . S
C412 C409 1.463 . S
C412 N416 1.427 . S
C413 H403 0.929 . S
C413 C411 1.433 . S
C413 N416 1.384 . S
C414 H405 0.929 . S
C414 C406 1.378 . S
C414 C409 1.350 . S
C415 H402 0.929 . S
C415 C407 1.433 . S
C415 N417 1.384 . S
N416 C412 1.427 . S
N416 C413 1.384 . S
N417 C409 1.427 . S
N417 C415 1.384 . S
H418 C424 0.930 . S
H419 C428 0.930 . S
H420 C433 0.929 . S
H421 C431 0.929 . S
H422 C426 0.929 . S
H423 C432 0.929 . S
C424 H418 0.930 . S
C424 C425 1.367 . S
C424 C432 1.378 . S
C425 C424 1.367 . S
C425 C433 1.433 . S
C426 H422 0.929 . S
C426 C428 1.378 . S
C426 C430 1.350 . S
C427 C430 1.463 . S
C427 C432 1.350 . S
C427 N435 1.427 . S
C428 H419 0.930 . S
C428 C426 1.378 . S
C428 C429 1.367 . S
C429 C428 1.367 . S
C429 C431 1.433 . S
C430 C426 1.350 . S
C430 C427 1.463 . S
C430 N434 1.427 . S
C431 H421 0.929 . S
C431 C429 1.433 . S
C431 N434 1.384 . S
C432 H423 0.929 . S
C432 C424 1.378 . S
C432 C427 1.350 . S
C433 H420 0.929 . S
C433 C425 1.433 . S
C433 N435 1.384 . S
N434 C430 1.427 . S
N434 C431 1.384 . S
N435 C427 1.427 . S
N435 C433 1.384 . S
H436 C442 0.930 . S
H437 C446 0.930 . S
H438 C451 0.929 . S
H439 C449 0.929 . S
H440 C444 0.929 . S
H441 C450 0.929 . S
C442 H436 0.930 . S
C442 C443 1.367 . S
C442 C450 1.378 . S
C443 C442 1.367 . S
C443 C451 1.433 . S
C444 H440 0.929 . S
C444 C446 1.378 . S
C444 C448 1.350 . S
C445 C448 1.463 . S
C445 C450 1.350 . S
C445 N453 1.427 . S
C446 H437 0.930 . S
C446 C444 1.378 . S
C446 C447 1.367 . S
C447 C446 1.367 . S
C447 C449 1.433 . S
C448 C444 1.350 . S
C448 C445 1.463 . S
C448 N452 1.427 . S
C449 H439 0.929 . S
C449 C447 1.433 . S
C449 N452 1.384 . S
C450 H441 0.929 . S
C450 C442 1.378 . S
C450 C445 1.350 . S
C451 H438 0.929 . S
C451 C443 1.433 . S
C451 N453 1.384 . S
N452 C448 1.427 . S
N452 C449 1.384 . S
N453 C445 1.427 . S
N453 C451 1.384 . S
H454 C460 0.930 . S
H455 C464 0.930 . S
H456 C469 0.929 . S
H457 C467 0.929 . S
H458 C462 0.929 . S
H459 C468 0.929 . S
C460 H454 0.930 . S
C460 C461 1.367 . S
C460 C468 1.378 . S
C461 C460 1.367 . S
C461 C469 1.433 . S
C462 H458 0.929 . S
C462 C464 1.378 . S
C462 C466 1.350 . S
C463 C466 1.463 . S
C463 C468 1.350 . S
C463 N471 1.427 . S
C464 H455 0.930 . S
C464 C462 1.378 . S
C464 C465 1.367 . S
C465 C464 1.367 . S
C465 C467 1.433 . S
C466 C462 1.350 . S
C466 C463 1.463 . S
C466 N470 1.427 . S
C467 H457 0.929 . S
C467 C465 1.433 . S
C467 N470 1.384 . S
C468 H459 0.929 . S
C468 C460 1.378 . S
C468 C463 1.350 . S
C469 H456 0.929 . S
C469 C461 1.433 . S
C469 N471 1.384 . S
N470 C466 1.427 . S
N470 C467 1.384 . S
N471 C463 1.427 . S
N471 C469 1.384 . S
H472 C478 0.930 . S
H473 C482 0.930 . S
H474 C487 0.929 . S
H475 C485 0.929 . S
H476 C480 0.929 . S
H477 C486 0.929 . S
C478 H472 0.930 . S
C478 C479 1.367 . S
C478 C486 1.378 . S
C479 C478 1.367 . S
C479 C487 1.433 . S
C480 H476 0.929 . S
C480 C482 1.378 . S
C480 C484 1.350 . S
C481 C484 1.463 . S
C481 C486 1.350 . S
C481 N489 1.427 . S
C482 H473 0.930 . S
C482 C480 1.378 . S
C482 C483 1.367 . S
C483 C482 1.367 . S
C483 C485 1.433 . S
C484 C480 1.350 . S
C484 C481 1.463 . S
C484 N488 1.427 . S
C485 H475 0.929 . S
C485 C483 1.433 . S
C485 N488 1.384 . S
C486 H477 0.929 . S
C486 C478 1.378 . S
C486 C481 1.350 . S
C487 H474 0.929 . S
C487 C479 1.433 . S
C487 N489 1.384 . S
N488 C484 1.427 . S
N488 C485 1.384 . S
N489 C481 1.427 . S
N489 C487 1.384 . S
H490 C496 0.930 . S
H491 C500 0.930 . S
H492 C505 0.929 . S
H493 C503 0.929 . S
H494 C498 0.929 . S
H495 C504 0.929 . S
C496 H490 0.930 . S
C496 C497 1.367 . S
C496 C504 1.378 . S
C497 C496 1.367 . S
C497 C505 1.433 . S
C498 H494 0.929 . S
C498 C500 1.378 . S
C498 C502 1.350 . S
C499 C502 1.463 . S
C499 C504 1.350 . S
C499 N507 1.427 . S
C500 H491 0.930 . S
C500 C498 1.378 . S
C500 C501 1.367 . S
C501 C500 1.367 . S
C501 C503 1.433 . S
C502 C498 1.350 . S
C502 C499 1.463 . S
C502 N506 1.427 . S
C503 H493 0.929 . S
C503 C501 1.433 . S
C503 N506 1.384 . S
C504 H495 0.929 . S
C504 C496 1.378 . S
C504 C499 1.350 . S
C505 H492 0.929 . S
C505 C497 1.433 . S
C505 N507 1.384 . S
N506 C502 1.427 . S
N506 C503 1.384 . S
N507 C499 1.427 . S
N507 C505 1.384 . S
H508 C514 0.930 . S
H509 C518 0.930 . S
H510 C523 0.929 . S
H511 C521 0.929 . S
H512 C516 0.929 . S
H513 C522 0.929 . S
C514 H508 0.930 . S
C514 C515 1.367 . S
C514 C522 1.378 . S
C515 C514 1.367 . S
C515 C523 1.433 . S
C516 H512 0.929 . S
C516 C518 1.378 1_565 S
C516 C520 1.350 . S
C517 C520 1.463 . S
C517 C522 1.350 . S
C517 N525 1.427 . S
C518 H509 0.930 . S
C518 C516 1.378 1_545 S
C518 C519 1.367 . S
C519 C518 1.367 . S
C519 C521 1.433 . S
C520 C516 1.350 . S
C520 C517 1.463 . S
C520 N524 1.427 . S
C521 H511 0.929 . S
C521 C519 1.433 . S
C521 N524 1.384 1_545 S
C522 H513 0.929 . S
C522 C514 1.378 . S
C522 C517 1.350 . S
C523 H510 0.929 . S
C523 C515 1.433 . S
C523 N525 1.384 . S
N524 C520 1.427 . S
N524 C521 1.384 1_565 S
N525 C517 1.427 . S
N525 C523 1.384 . S
H526 C532 0.930 . S
H527 C536 0.930 . S
H528 C541 0.929 . S
H529 C539 0.929 . S
H530 C534 0.929 . S
H531 C540 0.929 . S
C532 H526 0.930 . S
C532 C533 1.367 . S
C532 C540 1.378 . S
C533 C532 1.367 . S
C533 C541 1.433 . S
C534 H530 0.929 . S
C534 C536 1.378 . S
C534 C538 1.350 . S
C535 C538 1.463 . S
C535 C540 1.350 . S
C535 N543 1.427 . S
C536 H527 0.930 . S
C536 C534 1.378 . S
C536 C537 1.367 . S
C537 C536 1.367 . S
C537 C539 1.433 . S
C538 C534 1.350 . S
C538 C535 1.463 . S
C538 N542 1.427 . S
C539 H529 0.929 . S
C539 C537 1.433 . S
C539 N542 1.384 . S
C540 H531 0.929 . S
C540 C532 1.378 . S
C540 C535 1.350 . S
C541 H528 0.929 . S
C541 C533 1.433 . S
C541 N543 1.384 . S
N542 C538 1.427 . S
N542 C539 1.384 . S
N543 C535 1.427 . S
N543 C541 1.384 . S
H544 C550 0.930 . S
H545 C554 0.930 . S
H546 C559 0.929 . S
H547 C557 0.929 . S
H548 C552 0.929 . S
H549 C558 0.929 . S
C550 H544 0.930 . S
C550 C551 1.367 . S
C550 C558 1.378 . S
C551 C550 1.367 . S
C551 C559 1.433 . S
C552 H548 0.929 . S
C552 C554 1.378 . S
C552 C556 1.350 . S
C553 C556 1.463 . S
C553 C558 1.350 . S
C553 N561 1.427 . S
C554 H545 0.930 . S
C554 C552 1.378 . S
C554 C555 1.367 . S
C555 C554 1.367 . S
C555 C557 1.433 . S
C556 C552 1.350 . S
C556 C553 1.463 . S
C556 N560 1.427 . S
C557 H547 0.929 . S
C557 C555 1.433 . S
C557 N560 1.384 . S
C558 H549 0.929 . S
C558 C550 1.378 . S
C558 C553 1.350 . S
C559 H546 0.929 . S
C559 C551 1.433 . S
C559 N561 1.384 . S
N560 C556 1.427 . S
N560 C557 1.384 . S
N561 C553 1.427 . S
N561 C559 1.384 . S
H562 C568 0.930 . S
H563 C572 0.930 . S
H564 C577 0.929 . S
H565 C575 0.929 . S
H566 C570 0.929 . S
H567 C576 0.929 . S
C568 H562 0.930 . S
C568 C569 1.367 . S
C568 C576 1.378 . S
C569 C568 1.367 . S
C569 C577 1.433 . S
C570 H566 0.929 . S
C570 C572 1.378 . S
C570 C574 1.350 . S
C571 C574 1.463 . S
C571 C576 1.350 . S
C571 N579 1.427 . S
C572 H563 0.930 . S
C572 C570 1.378 . S
C572 C573 1.367 . S
C573 C572 1.367 . S
C573 C575 1.433 . S
C574 C570 1.350 . S
C574 C571 1.463 . S
C574 N578 1.427 . S
C575 H565 0.929 . S
C575 C573 1.433 . S
C575 N578 1.384 . S
C576 H567 0.929 . S
C576 C568 1.378 . S
C576 C571 1.350 . S
C577 H564 0.929 . S
C577 C569 1.433 . S
C577 N579 1.384 . S
N578 C574 1.427 . S
N578 C575 1.384 . S
N579 C571 1.427 . S
N579 C577 1.384 . S
H580 C586 0.930 . S
H581 C590 0.930 . S
H582 C595 0.929 . S
H583 C593 0.929 . S
H584 C588 0.929 . S
H585 C594 0.929 . S
C586 H580 0.930 . S
C586 C587 1.367 . S
C586 C594 1.378 . S
C587 C586 1.367 . S
C587 C595 1.433 . S
C588 H584 0.929 . S
C588 C590 1.378 . S
C588 C592 1.350 . S
C589 C592 1.463 . S
C589 C594 1.350 . S
C589 N597 1.427 . S
C590 H581 0.930 . S
C590 C588 1.378 . S
C590 C591 1.367 . S
C591 C590 1.367 . S
C591 C593 1.433 . S
C592 C588 1.350 . S
C592 C589 1.463 . S
C592 N596 1.427 . S
C593 H583 0.929 . S
C593 C591 1.433 . S
C593 N596 1.384 . S
C594 H585 0.929 . S
C594 C586 1.378 . S
C594 C589 1.350 . S
C595 H582 0.929 . S
C595 C587 1.433 . S
C595 N597 1.384 . S
N596 C592 1.427 . S
N596 C593 1.384 . S
N597 C589 1.427 . S
N597 C595 1.384 . S
H598 C604 0.930 . S
H599 C608 0.930 . S
H600 C613 0.929 . S
H601 C611 0.929 . S
H602 C606 0.929 . S
H603 C612 0.929 . S
C604 H598 0.930 . S
C604 C605 1.367 . S
C604 C612 1.378 . S
C605 C604 1.367 . S
C605 C613 1.433 . S
C606 H602 0.929 . S
C606 C608 1.378 . S
C606 C610 1.350 . S
C607 C610 1.463 . S
C607 C612 1.350 . S
C607 N615 1.427 . S
C608 H599 0.930 . S
C608 C606 1.378 . S
C608 C609 1.367 . S
C609 C608 1.367 . S
C609 C611 1.433 . S
C610 C606 1.350 . S
C610 C607 1.463 . S
C610 N614 1.427 . S
C611 H601 0.929 . S
C611 C609 1.433 . S
C611 N614 1.384 . S
C612 H603 0.929 . S
C612 C604 1.378 . S
C612 C607 1.350 . S
C613 H600 0.929 . S
C613 C605 1.433 . S
C613 N615 1.384 . S
N614 C610 1.427 . S
N614 C611 1.384 . S
N615 C607 1.427 . S
N615 C613 1.384 . S
H616 C622 0.930 . S
H617 C626 0.930 . S
H618 C631 0.929 . S
H619 C629 0.929 . S
H620 C624 0.929 . S
H621 C630 0.929 . S
C622 H616 0.930 . S
C622 C623 1.367 . S
C622 C630 1.378 . S
C623 C622 1.367 . S
C623 C631 1.433 . S
C624 H620 0.929 . S
C624 C626 1.378 . S
C624 C628 1.350 . S
C625 C628 1.463 . S
C625 C630 1.350 . S
C625 N633 1.427 . S
C626 H617 0.930 . S
C626 C624 1.378 . S
C626 C627 1.367 . S
C627 C626 1.367 . S
C627 C629 1.433 . S
C628 C624 1.350 . S
C628 C625 1.463 . S
C628 N632 1.427 . S
C629 H619 0.929 . S
C629 C627 1.433 . S
C629 N632 1.384 . S
C630 H621 0.929 . S
C630 C622 1.378 . S
C630 C625 1.350 . S
C631 H618 0.929 . S
C631 C623 1.433 . S
C631 N633 1.384 . S
N632 C628 1.427 . S
N632 C629 1.384 . S
N633 C625 1.427 . S
N633 C631 1.384 . S
H634 C640 0.930 . S
H635 C644 0.930 . S
H636 C649 0.929 . S
H637 C647 0.929 . S
H638 C642 0.929 . S
H639 C648 0.929 . S
C640 H634 0.930 . S
C640 C641 1.367 . S
C640 C648 1.378 . S
C641 C640 1.367 . S
C641 C649 1.433 . S
C642 H638 0.929 . S
C642 C644 1.378 . S
C642 C646 1.350 . S
C643 C646 1.463 . S
C643 C648 1.350 . S
C643 N651 1.427 . S
C644 H635 0.930 . S
C644 C642 1.378 . S
C644 C645 1.367 . S
C645 C644 1.367 . S
C645 C647 1.433 . S
C646 C642 1.350 . S
C646 C643 1.463 . S
C646 N650 1.427 . S
C647 H637 0.929 . S
C647 C645 1.433 . S
C647 N650 1.384 . S
C648 H639 0.929 . S
C648 C640 1.378 . S
C648 C643 1.350 . S
C649 H636 0.929 . S
C649 C641 1.433 . S
C649 N651 1.384 . S
N650 C646 1.427 . S
N650 C647 1.384 . S
N651 C643 1.427 . S
N651 C649 1.384 . S
H652 C658 0.930 . S
H653 C662 0.930 . S
H654 C667 0.929 . S
H655 C665 0.929 . S
H656 C660 0.929 . S
H657 C666 0.929 . S
C658 H652 0.930 . S
C658 C659 1.367 . S
C658 C666 1.378 . S
C659 C658 1.367 . S
C659 C667 1.433 . S
C660 H656 0.929 . S
C660 C662 1.378 . S
C660 C664 1.350 . S
C661 C664 1.463 . S
C661 C666 1.350 . S
C661 N669 1.427 . S
C662 H653 0.930 . S
C662 C660 1.378 . S
C662 C663 1.367 . S
C663 C662 1.367 . S
C663 C665 1.433 . S
C664 C660 1.350 . S
C664 C661 1.463 . S
C664 N668 1.427 . S
C665 H655 0.929 . S
C665 C663 1.433 . S
C665 N668 1.384 . S
C666 H657 0.929 . S
C666 C658 1.378 . S
C666 C661 1.350 . S
C667 H654 0.929 . S
C667 C659 1.433 . S
C667 N669 1.384 . S
N668 C664 1.427 . S
N668 C665 1.384 . S
N669 C661 1.427 . S
N669 C667 1.384 . S
H670 C676 0.930 . S
H671 C680 0.930 . S
H672 C685 0.929 . S
H673 C683 0.929 . S
H674 C678 0.929 . S
H675 C684 0.929 . S
C676 H670 0.930 . S
C676 C677 1.367 . S
C676 C684 1.378 . S
C677 C676 1.367 . S
C677 C685 1.433 . S
C678 H674 0.929 . S
C678 C680 1.378 . S
C678 C682 1.350 . S
C679 C682 1.463 . S
C679 C684 1.350 . S
C679 N687 1.427 . S
C680 H671 0.930 . S
C680 C678 1.378 . S
C680 C681 1.367 . S
C681 C680 1.367 . S
C681 C683 1.433 . S
C682 C678 1.350 . S
C682 C679 1.463 . S
C682 N686 1.427 . S
C683 H673 0.929 . S
C683 C681 1.433 . S
C683 N686 1.384 . S
C684 H675 0.929 . S
C684 C676 1.378 . S
C684 C679 1.350 . S
C685 H672 0.929 . S
C685 C677 1.433 . S
C685 N687 1.384 . S
N686 C682 1.427 . S
N686 C683 1.384 . S
N687 C679 1.427 . S
N687 C685 1.384 . S
H688 C694 0.930 . S
H689 C698 0.930 . S
H690 C703 0.929 . S
H691 C701 0.929 . S
H692 C696 0.929 . S
H693 C702 0.929 . S
C694 H688 0.930 . S
C694 C695 1.367 . S
C694 C702 1.378 . S
C695 C694 1.367 . S
C695 C703 1.433 . S
C696 H692 0.929 . S
C696 C698 1.378 . S
C696 C700 1.350 . S
C697 C700 1.463 . S
C697 C702 1.350 . S
C697 N705 1.427 . S
C698 H689 0.930 . S
C698 C696 1.378 . S
C698 C699 1.367 . S
C699 C698 1.367 . S
C699 C701 1.433 . S
C700 C696 1.350 . S
C700 C697 1.463 . S
C700 N704 1.427 . S
C701 H691 0.929 . S
C701 C699 1.433 . S
C701 N704 1.384 . S
C702 H693 0.929 . S
C702 C694 1.378 . S
C702 C697 1.350 . S
C703 H690 0.929 . S
C703 C695 1.433 . S
C703 N705 1.384 . S
N704 C700 1.427 . S
N704 C701 1.384 . S
N705 C697 1.427 . S
N705 C703 1.384 . S
H706 C712 0.930 . S
H707 C716 0.930 . S
H708 C721 0.929 . S
H709 C719 0.929 . S
H710 C714 0.929 . S
H711 C720 0.929 . S
C712 H706 0.930 . S
C712 C713 1.367 . S
C712 C720 1.378 . S
C713 C712 1.367 . S
C713 C721 1.433 . S
C714 H710 0.929 . S
C714 C716 1.378 . S
C714 C718 1.350 . S
C715 C718 1.463 . S
C715 C720 1.350 . S
C715 N723 1.427 . S
C716 H707 0.930 . S
C716 C714 1.378 . S
C716 C717 1.367 . S
C717 C716 1.367 . S
C717 C719 1.433 . S
C718 C714 1.350 . S
C718 C715 1.463 . S
C718 N722 1.427 . S
C719 H709 0.929 . S
C719 C717 1.433 . S
C719 N722 1.384 . S
C720 H711 0.929 . S
C720 C712 1.378 . S
C720 C715 1.350 . S
C721 H708 0.929 . S
C721 C713 1.433 . S
C721 N723 1.384 . S
N722 C718 1.427 . S
N722 C719 1.384 . S
N723 C715 1.427 . S
N723 C721 1.384 . S
H724 C730 0.930 . S
H725 C734 0.930 . S
H726 C739 0.929 . S
H727 C737 0.929 . S
H728 C732 0.929 . S
H729 C738 0.929 . S
C730 H724 0.930 . S
C730 C731 1.367 . S
C730 C738 1.378 . S
C731 C730 1.367 . S
C731 C739 1.433 . S
C732 H728 0.929 . S
C732 C734 1.378 . S
C732 C736 1.350 . S
C733 C736 1.463 . S
C733 C738 1.350 . S
C733 N741 1.427 . S
C734 H725 0.930 . S
C734 C732 1.378 . S
C734 C735 1.367 . S
C735 C734 1.367 . S
C735 C737 1.433 . S
C736 C732 1.350 . S
C736 C733 1.463 . S
C736 N740 1.427 . S
C737 H727 0.929 . S
C737 C735 1.433 . S
C737 N740 1.384 . S
C738 H729 0.929 . S
C738 C730 1.378 . S
C738 C733 1.350 . S
C739 H726 0.929 . S
C739 C731 1.433 . S
C739 N741 1.384 . S
N740 C736 1.427 . S
N740 C737 1.384 . S
N741 C733 1.427 . S
N741 C739 1.384 . S
H742 C748 0.930 . S
H743 C752 0.930 . S
H744 C757 0.929 . S
H745 C755 0.929 . S
H746 C750 0.929 . S
H747 C756 0.929 . S
C748 H742 0.930 . S
C748 C749 1.367 . S
C748 C756 1.378 . S
C749 C748 1.367 . S
C749 C757 1.433 . S
C750 H746 0.929 . S
C750 C752 1.378 . S
C750 C754 1.350 . S
C751 C754 1.463 . S
C751 C756 1.350 . S
C751 N759 1.427 . S
C752 H743 0.930 . S
C752 C750 1.378 . S
C752 C753 1.367 . S
C753 C752 1.367 . S
C753 C755 1.433 . S
C754 C750 1.350 . S
C754 C751 1.463 . S
C754 N758 1.427 . S
C755 H745 0.929 . S
C755 C753 1.433 . S
C755 N758 1.384 . S
C756 H747 0.929 . S
C756 C748 1.378 . S
C756 C751 1.350 . S
C757 H744 0.929 . S
C757 C749 1.433 . S
C757 N759 1.384 . S
N758 C754 1.427 . S
N758 C755 1.384 . S
N759 C751 1.427 . S
N759 C757 1.384 . S
H760 C766 0.930 . S
H761 C770 0.930 . S
H762 C775 0.929 . S
H763 C773 0.929 . S
H764 C768 0.929 . S
H765 C774 0.929 . S
C766 H760 0.930 . S
C766 C767 1.367 . S
C766 C774 1.378 . S
C767 C766 1.367 . S
C767 C775 1.433 . S
C768 H764 0.929 . S
C768 C770 1.378 1_565 S
C768 C772 1.350 . S
C769 C772 1.463 . S
C769 C774 1.350 . S
C769 N777 1.427 . S
C770 H761 0.930 . S
C770 C768 1.378 1_545 S
C770 C771 1.367 . S
C771 C770 1.367 . S
C771 C773 1.433 1_545 S
C772 C768 1.350 . S
C772 C769 1.463 . S
C772 N776 1.427 . S
C773 H763 0.929 . S
C773 C771 1.433 1_565 S
C773 N776 1.384 . S
C774 H765 0.929 . S
C774 C766 1.378 . S
C774 C769 1.350 . S
C775 H762 0.929 . S
C775 C767 1.433 . S
C775 N777 1.384 . S
N776 C772 1.427 . S
N776 C773 1.384 . S
N777 C769 1.427 . S
N777 C775 1.384 . S
H778 C784 0.930 . S
H779 C788 0.930 . S
H780 C793 0.929 . S
H781 C791 0.929 . S
H782 C786 0.929 . S
H783 C792 0.929 . S
C784 H778 0.930 . S
C784 C785 1.367 . S
C784 C792 1.378 . S
C785 C784 1.367 . S
C785 C793 1.433 . S
C786 H782 0.929 . S
C786 C788 1.378 . S
C786 C790 1.350 . S
C787 C790 1.463 . S
C787 C792 1.350 . S
C787 N795 1.427 . S
C788 H779 0.930 . S
C788 C786 1.378 . S
C788 C789 1.367 . S
C789 C788 1.367 . S
C789 C791 1.433 . S
C790 C786 1.350 . S
C790 C787 1.463 . S
C790 N794 1.427 . S
C791 H781 0.929 . S
C791 C789 1.433 . S
C791 N794 1.384 . S
C792 H783 0.929 . S
C792 C784 1.378 . S
C792 C787 1.350 . S
C793 H780 0.929 . S
C793 C785 1.433 . S
C793 N795 1.384 . S
N794 C790 1.427 . S
N794 C791 1.384 . S
N795 C787 1.427 . S
N795 C793 1.384 . S
C375 C96 1.538 . S
C371 C5 1.376 . S
C393 C149 1.518 . S
C389 C16 1.282 . S
C411 C110 1.714 . S
C407 C30 1.716 . S
C429 C135 1.619 . S
C425 C40 1.561 . S
C447 C181 1.476 . S
C443 C8 1.470 . S
C465 C227 1.485 . S
C461 C18 1.417 . S
C479 C29 1.746 . S
C483 C294 1.768 . S
C501 C326 1.558 . S
C497 C38 1.320 . S
C519 C195 1.437 . S
C515 C19 1.430 . S
C533 C27 1.491 . S
C537 C241 1.652 . S
C555 C280 1.579 . S
C551 C41 1.564 . S
C573 C340 1.537 . S
C569 C7 1.506 . S
C587 C52 1.558 . S
C591 C156 1.595 . S
C609 C89 1.598 . S
C605 C62 1.569 . S
C623 C74 1.378 . S
C627 C142 1.388 . S
C641 C82 1.219 . S
C645 C103 1.413 . S
C663 C287 1.826 . S
C659 C51 1.733 . S
C681 C333 1.618 . S
C677 C60 1.351 . S
C699 C188 1.508 . S
C695 C71 1.258 . S
C713 C84 1.459 . S
C717 C248 1.510 . S
C735 C273 1.699 . S
C731 C63 1.692 . S
C753 C319 1.483 . S
C749 C73 1.444 . S
C771 C202 1.563 . S
C767 C85 1.573 . S
C785 C49 1.371 . S
C789 C234 1.674 . S
