# Generated by pormake.
# Topology ssb, (4,4)-cn, num edge types: 1
# Building blocks:
#     Node 0, Type 0, BuildingBlock: MUDLON_clean_linker_0, # of connection points: 4
#     Node 1, Type 0, BuildingBlock: MUDLON_clean_linker_0, # of connection points: 4
#     Node 2, Type 0, BuildingBlock: MUDLON_clean_linker_0, # of connection points: 4
#     Node 3, Type 0, BuildingBlock: MUDLON_clean_linker_0, # of connection points: 4
#     Node 4, Type 0, BuildingBlock: MUDLON_clean_linker_0, # of connection points: 4
#     Node 5, Type 0, BuildingBlock: MUDLON_clean_linker_0, # of connection points: 4
#     Node 6, Type 0, BuildingBlock: MUDLON_clean_linker_0, # of connection points: 4
#     Node 7, Type 0, BuildingBlock: MUDLON_clean_linker_0, # of connection points: 4
#     Node 8, Type 1, BuildingBlock: NAWXER_clean_sbu_0, # of connection points: 4
#     Node 9, Type 1, BuildingBlock: NAWXER_clean_sbu_0, # of connection points: 4
#     Node 10, Type 1, BuildingBlock: NAWXER_clean_sbu_0, # of connection points: 4
#     Node 11, Type 1, BuildingBlock: NAWXER_clean_sbu_0, # of connection points: 4
#     Node 12, Type 1, BuildingBlock: NAWXER_clean_sbu_0, # of connection points: 4
#     Node 13, Type 1, BuildingBlock: NAWXER_clean_sbu_0, # of connection points: 4
#     Node 14, Type 1, BuildingBlock: NAWXER_clean_sbu_0, # of connection points: 4
#     Node 15, Type 1, BuildingBlock: NAWXER_clean_sbu_0, # of connection points: 4
#     Edge 16, Type (0, 1), BuildingBlock: ZUJKAS_clean_linker_0, # of connection points: 2
#     Edge 17, Type (0, 1), BuildingBlock: ZUJKAS_clean_linker_0, # of connection points: 2
#     Edge 18, Type (0, 1), BuildingBlock: ZUJKAS_clean_linker_0, # of connection points: 2
#     Edge 19, Type (0, 1), BuildingBlock: ZUJKAS_clean_linker_0, # of connection points: 2
#     Edge 20, Type (0, 1), BuildingBlock: ZUJKAS_clean_linker_0, # of connection points: 2
#     Edge 21, Type (0, 1), BuildingBlock: ZUJKAS_clean_linker_0, # of connection points: 2
#     Edge 22, Type (0, 1), BuildingBlock: ZUJKAS_clean_linker_0, # of connection points: 2
#     Edge 23, Type (0, 1), BuildingBlock: ZUJKAS_clean_linker_0, # of connection points: 2
#     Edge 24, Type (0, 1), BuildingBlock: ZUJKAS_clean_linker_0, # of connection points: 2
#     Edge 25, Type (0, 1), BuildingBlock: ZUJKAS_clean_linker_0, # of connection points: 2
#     Edge 26, Type (0, 1), BuildingBlock: ZUJKAS_clean_linker_0, # of connection points: 2
#     Edge 27, Type (0, 1), BuildingBlock: ZUJKAS_clean_linker_0, # of connection points: 2
#     Edge 28, Type (0, 1), BuildingBlock: ZUJKAS_clean_linker_0, # of connection points: 2
#     Edge 29, Type (0, 1), BuildingBlock: ZUJKAS_clean_linker_0, # of connection points: 2
#     Edge 30, Type (0, 1), BuildingBlock: ZUJKAS_clean_linker_0, # of connection points: 2
#     Edge 31, Type (0, 1), BuildingBlock: ZUJKAS_clean_linker_0, # of connection points: 2
#     Edge 32, Type (0, 1), BuildingBlock: ZUJKAS_clean_linker_0, # of connection points: 2
#     Edge 33, Type (0, 1), BuildingBlock: ZUJKAS_clean_linker_0, # of connection points: 2
#     Edge 34, Type (0, 1), BuildingBlock: ZUJKAS_clean_linker_0, # of connection points: 2
#     Edge 35, Type (0, 1), BuildingBlock: ZUJKAS_clean_linker_0, # of connection points: 2
#     Edge 36, Type (0, 1), BuildingBlock: ZUJKAS_clean_linker_0, # of connection points: 2
#     Edge 37, Type (0, 1), BuildingBlock: ZUJKAS_clean_linker_0, # of connection points: 2
#     Edge 38, Type (0, 1), BuildingBlock: ZUJKAS_clean_linker_0, # of connection points: 2
#     Edge 39, Type (0, 1), BuildingBlock: ZUJKAS_clean_linker_0, # of connection points: 2
#     Edge 40, Type (0, 1), BuildingBlock: ZUJKAS_clean_linker_0, # of connection points: 2
#     Edge 41, Type (0, 1), BuildingBlock: ZUJKAS_clean_linker_0, # of connection points: 2
#     Edge 42, Type (0, 1), BuildingBlock: ZUJKAS_clean_linker_0, # of connection points: 2
#     Edge 43, Type (0, 1), BuildingBlock: ZUJKAS_clean_linker_0, # of connection points: 2
#     Edge 44, Type (0, 1), BuildingBlock: ZUJKAS_clean_linker_0, # of connection points: 2
#     Edge 45, Type (0, 1), BuildingBlock: ZUJKAS_clean_linker_0, # of connection points: 2
#     Edge 46, Type (0, 1), BuildingBlock: ZUJKAS_clean_linker_0, # of connection points: 2
#     Edge 47, Type (0, 1), BuildingBlock: ZUJKAS_clean_linker_0, # of connection points: 2
# Relax obj value: 0.003
# Max RMSD: 0.049
# Mean RMSD: 0.025
data_MOF--net-ssb--node1-NAWXER_clean_sbu_0--node2-MUDLON_clean_linker_0--edge1-ZUJKAS_clean_linker_0
_symmetry_space_group_name_H-M    P1
_symmetry_Int_Tables_number       1
_symmetry_cell_setting            triclinic
loop_
_symmetry_equiv_pos_as_xyz
'x, y, z'
_cell_length_a     74.086983
_cell_length_b     74.087619
_cell_length_c     64.698055
_cell_angle_alpha  89.979687
_cell_angle_beta   89.997899
_cell_angle_gamma 89.979313
loop_
_atom_site_label
_atom_site_type_symbol
_atom_site_fract_x
_atom_site_fract_y
_atom_site_fract_z
_atom_type_partial_charge
H0 H 0.28903 0.30773 0.18425 0.0
N1 N 0.29909 0.30852 0.22513 0.0
H2 H 0.27282 0.33103 0.16584 0.0
H3 H 0.28164 0.3365 0.24151 0.0
H4 H 0.26371 0.35929 0.22349 0.0
H5 H 0.32888 0.32835 0.22316 0.0
H6 H 0.35508 0.32375 0.20083 0.0
H7 H 0.30562 0.27867 0.20097 0.0
H8 H 0.332 0.27359 0.17926 0.0
H9 H 0.27222 0.28591 0.21173 0.0
H10 H 0.30666 0.29828 0.26347 0.0
H11 H 0.25731 0.26242 0.23195 0.0
H12 H 0.29234 0.2743 0.28365 0.0
H13 H 0.20308 0.20678 0.29318 0.0
H14 H 0.17461 0.21283 0.31136 0.0
H15 H 0.20455 0.23499 0.36267 0.0
H16 H 0.23271 0.22876 0.3447 0.0
H17 H 0.26199 0.21741 0.33709 0.0
H18 H 0.27591 0.19392 0.35824 0.0
H19 H 0.24905 0.15315 0.32165 0.0
H20 H 0.23459 0.17684 0.3012 0.0
H21 H 0.24543 0.21055 0.26738 0.0
H22 H 0.26142 0.23324 0.24685 0.0
H23 H 0.26467 0.26764 0.30069 0.0
N24 N 0.23642 0.21216 0.30698 0.0
H25 H 0.24939 0.24472 0.32108 0.0
C26 C 0.2871 0.32067 0.21428 0.0
C27 C 0.28365 0.31895 0.19298 0.0
C28 C 0.27401 0.33228 0.18244 0.0
C29 C 0.26704 0.34739 0.193 0.0
C30 C 0.26933 0.34826 0.21461 0.0
C31 C 0.27941 0.33515 0.22504 0.0
C32 C 0.31533 0.30389 0.21393 0.0
C33 C 0.32966 0.31623 0.21385 0.0
C34 C 0.34465 0.31353 0.2011 0.0
C35 C 0.34566 0.29832 0.18813 0.0
C36 C 0.33156 0.28559 0.18879 0.0
C37 C 0.31652 0.28837 0.20146 0.0
C38 C 0.29044 0.29402 0.23625 0.0
C39 C 0.27663 0.28351 0.22743 0.0
C40 C 0.26822 0.26994 0.23899 0.0
C41 C 0.27354 0.26648 0.25952 0.0
C42 C 0.28763 0.27679 0.26806 0.0
C43 C 0.29593 0.29041 0.25654 0.0
C44 C 0.22003 0.21747 0.31735 0.0
C45 C 0.20343 0.21316 0.30823 0.0
C46 C 0.18723 0.21651 0.31867 0.0
C47 C 0.18737 0.22441 0.33842 0.0
C48 C 0.204 0.22913 0.34735 0.0
C49 C 0.22018 0.22559 0.33701 0.0
C50 C 0.24704 0.19882 0.31769 0.0
C51 C 0.2592 0.20344 0.33351 0.0
C52 C 0.26728 0.18994 0.34552 0.0
C53 C 0.26342 0.17162 0.34185 0.0
C54 C 0.25202 0.16712 0.32524 0.0
C55 C 0.24388 0.18059 0.31339 0.0
C56 C 0.24607 0.22588 0.29568 0.0
C57 C 0.24968 0.22298 0.2747 0.0
C58 C 0.2587 0.23603 0.26298 0.0
C59 C 0.26428 0.25236 0.27206 0.0
C60 C 0.26079 0.25516 0.29321 0.0
C61 C 0.25186 0.24204 0.30493 0.0
H62 H 0.72469 0.33531 0.22046 0.0
N63 N 0.72439 0.30103 0.20862 0.0
H64 H 0.73829 0.36109 0.2025 0.0
H65 H 0.74439 0.2997 0.17285 0.0
H66 H 0.75785 0.32523 0.15486 0.0
H67 H 0.72767 0.27385 0.18008 0.0
H68 H 0.70319 0.26081 0.15945 0.0
H69 H 0.68939 0.30784 0.21171 0.0
H70 H 0.66476 0.29449 0.19155 0.0
H71 H 0.71723 0.29506 0.24816 0.0
H72 H 0.75524 0.2819 0.20006 0.0
H73 H 0.73433 0.27656 0.27261 0.0
H74 H 0.77282 0.26408 0.22443 0.0
H75 H 0.79678 0.24609 0.34351 0.0
H76 H 0.82247 0.25957 0.36121 0.0
H77 H 0.85765 0.24158 0.31209 0.0
H78 H 0.83174 0.22787 0.29453 0.0
H79 H 0.80488 0.19186 0.3049 0.0
H80 H 0.79151 0.16737 0.32526 0.0
H81 H 0.75707 0.20591 0.35615 0.0
H82 H 0.77023 0.23025 0.33537 0.0
H83 H 0.77937 0.25811 0.31585 0.0
H84 H 0.76173 0.27601 0.29155 0.0
H85 H 0.7726 0.23682 0.24361 0.0
N86 N 0.79771 0.22682 0.30724 0.0
H87 H 0.79093 0.21942 0.26795 0.0
C88 C 0.73348 0.31559 0.19812 0.0
C89 C 0.73206 0.33305 0.20623 0.0
C90 C 0.73975 0.34773 0.19591 0.0
C91 C 0.74912 0.3452 0.17723 0.0
C92 C 0.75091 0.3276 0.16934 0.0
C93 C 0.74312 0.31295 0.17963 0.0
C94 C 0.71032 0.29205 0.19723 0.0
C95 C 0.71402 0.2785 0.18262 0.0
C96 C 0.70003 0.271 0.17089 0.0
C97 C 0.6821 0.27666 0.17391 0.0
C98 C 0.67842 0.28976 0.18903 0.0
C99 C 0.69243 0.29744 0.20047 0.0
C100 C 0.73498 0.29002 0.22239 0.0
C101 C 0.72936 0.28827 0.24295 0.0
C102 C 0.73923 0.27779 0.25691 0.0
C103 C 0.75505 0.26887 0.25058 0.0
C104 C 0.7606 0.27055 0.22983 0.0
C105 C 0.75061 0.28092 0.21585 0.0
C106 C 0.81236 0.23587 0.31763 0.0
C107 C 0.80993 0.24513 0.3364 0.0
C108 C 0.82467 0.25295 0.3465 0.0
C109 C 0.84212 0.25161 0.33809 0.0
C110 C 0.84442 0.24266 0.3191 0.0
C111 C 0.82966 0.2349 0.309 0.0
C112 C 0.78873 0.21282 0.31875 0.0
C113 C 0.79431 0.19495 0.31591 0.0
C114 C 0.78661 0.18102 0.32747 0.0
C115 C 0.77327 0.18476 0.3423 0.0
C116 C 0.76744 0.20268 0.34493 0.0
C117 C 0.77498 0.2166 0.33311 0.0
C118 C 0.78667 0.23749 0.2936 0.0
C119 C 0.77806 0.2534 0.30013 0.0
C120 C 0.7678 0.26356 0.28619 0.0
C121 C 0.76576 0.25793 0.26553 0.0
C122 C 0.77415 0.2418 0.25924 0.0
C123 C 0.78451 0.23175 0.27314 0.0
H124 H 0.80848 0.78201 0.34636 0.0
N125 N 0.8115 0.79324 0.306 0.0
H126 H 0.83112 0.76585 0.36583 0.0
H127 H 0.83992 0.77581 0.29078 0.0
H128 H 0.86196 0.75777 0.30972 0.0
H129 H 0.82944 0.82424 0.30421 0.0
H130 H 0.82393 0.85165 0.32455 0.0
H131 H 0.78279 0.79922 0.3318 0.0
H132 H 0.77735 0.82638 0.35231 0.0
H133 H 0.78347 0.77057 0.31516 0.0
H134 H 0.81046 0.79845 0.26565 0.0
H135 H 0.76144 0.75838 0.29056 0.0
H136 H 0.78939 0.7856 0.24077 0.0
H137 H 0.71483 0.70955 0.21472 0.0
H138 H 0.71722 0.67861 0.20178 0.0
H139 H 0.75794 0.6959 0.15822 0.0
H140 H 0.75552 0.72674 0.17145 0.0
H141 H 0.72382 0.75338 0.16214 0.0
H142 H 0.69394 0.75977 0.1481 0.0
H143 H 0.66997 0.74519 0.20672 0.0
H144 H 0.70021 0.73869 0.22054 0.0
H145 H 0.73946 0.72381 0.23629 0.0
H146 H 0.75774 0.73735 0.26346 0.0
H147 H 0.75992 0.78717 0.22867 0.0
N148 N 0.73161 0.73912 0.19851 0.0
H149 H 0.74272 0.77305 0.20096 0.0
C150 C 0.82283 0.78075 0.31715 0.0
C151 C 0.8201 0.77687 0.33819 0.0
C152 C 0.83308 0.76725 0.34935 0.0
C153 C 0.8488 0.76069 0.3396 0.0
C154 C 0.85051 0.76315 0.31807 0.0
C155 C 0.83779 0.77327 0.30709 0.0
C156 C 0.80663 0.8097 0.31651 0.0
C157 C 0.81788 0.82478 0.31443 0.0
C158 C 0.8147 0.84039 0.32601 0.0
C159 C 0.80028 0.84106 0.3401 0.0
C160 C 0.78866 0.82614 0.3417 0.0
C161 C 0.7917 0.81064 0.32989 0.0
C162 C 0.79839 0.78564 0.29214 0.0
C163 C 0.78457 0.77411 0.29898 0.0
C164 C 0.77212 0.767 0.28484 0.0
C165 C 0.77344 0.77111 0.26361 0.0
C166 C 0.78752 0.7825 0.25698 0.0
C167 C 0.79973 0.78974 0.27112 0.0
C168 C 0.73502 0.72041 0.19394 0.0
C169 C 0.72452 0.70658 0.20269 0.0
C170 C 0.72583 0.68894 0.19519 0.0
C171 C 0.73766 0.68483 0.17885 0.0
C172 C 0.74884 0.69854 0.17096 0.0
C173 C 0.74748 0.71616 0.17845 0.0
C174 C 0.71415 0.74556 0.19224 0.0
C175 C 0.71212 0.752 0.17205 0.0
C176 C 0.69503 0.75567 0.16412 0.0
C177 C 0.67952 0.75295 0.17627 0.0
C178 C 0.68163 0.74723 0.1969 0.0
C179 C 0.69885 0.74361 0.20486 0.0
C180 C 0.73999 0.74734 0.21629 0.0
C181 C 0.7438 0.73764 0.23448 0.0
C182 C 0.75418 0.7455 0.25018 0.0
C183 C 0.76067 0.76329 0.24817 0.0
C184 C 0.75571 0.77327 0.23055 0.0
C185 C 0.74568 0.76531 0.21475 0.0
H186 H 0.28399 0.76763 0.14591 0.0
N187 N 0.28222 0.75181 0.18259 0.0
H188 H 0.31049 0.78087 0.12928 0.0
H189 H 0.31536 0.7572 0.20073 0.0
H190 H 0.34168 0.77087 0.18457 0.0
H191 H 0.30686 0.72551 0.19236 0.0
H192 H 0.30671 0.69438 0.17996 0.0
H193 H 0.2566 0.73557 0.16091 0.0
H194 H 0.25649 0.70455 0.14801 0.0
H195 H 0.25472 0.77388 0.18945 0.0
H196 H 0.29443 0.74147 0.22088 0.0
H197 H 0.24255 0.78372 0.2227 0.0
H198 H 0.28326 0.75204 0.25409 0.0
H199 H 0.22094 0.82585 0.31113 0.0
H200 H 0.22608 0.8543 0.32885 0.0
H201 H 0.26749 0.82909 0.36599 0.0
H202 H 0.26258 0.80062 0.34762 0.0
H203 H 0.22854 0.77491 0.35461 0.0
H204 H 0.19862 0.77002 0.36953 0.0
H205 H 0.17429 0.79519 0.3161 0.0
H206 H 0.2044 0.79973 0.30112 0.0
H207 H 0.23677 0.8126 0.2842 0.0
H208 H 0.2481 0.80225 0.25108 0.0
H209 H 0.2597 0.74999 0.27779 0.0
N210 N 0.23651 0.79328 0.32072 0.0
H211 H 0.2493 0.76094 0.31133 0.0
C212 C 0.29757 0.76146 0.17452 0.0
C213 C 0.2965 0.76858 0.1545 0.0
C214 C 0.31165 0.77622 0.14509 0.0
C215 C 0.32827 0.77692 0.15557 0.0
C216 C 0.32917 0.77034 0.17595 0.0
C217 C 0.31401 0.76262 0.18531 0.0
C218 C 0.28164 0.73287 0.17757 0.0
C219 C 0.29564 0.72097 0.18304 0.0
C220 C 0.29563 0.70318 0.17576 0.0
C221 C 0.28163 0.69695 0.1629 0.0
C222 C 0.26736 0.70877 0.15809 0.0
C223 C 0.2674 0.72651 0.16538 0.0
C224 C 0.27554 0.75712 0.20261 0.0
C225 C 0.26091 0.76904 0.20358 0.0
C226 C 0.25409 0.77476 0.22263 0.0
C227 C 0.26196 0.76883 0.24124 0.0
C228 C 0.27664 0.75675 0.24018 0.0
C229 C 0.28325 0.75083 0.2211 0.0
C230 C 0.24151 0.81101 0.32796 0.0
C231 C 0.23151 0.82648 0.32261 0.0
C232 C 0.23431 0.84276 0.33297 0.0
C233 C 0.24702 0.84393 0.34905 0.0
C234 C 0.2577 0.82873 0.35358 0.0
C235 C 0.25493 0.81244 0.34311 0.0
C236 C 0.21868 0.78776 0.32693 0.0
C237 C 0.2167 0.7789 0.3459 0.0
C238 C 0.19961 0.77614 0.35436 0.0
C239 C 0.18411 0.78234 0.34404 0.0
C240 C 0.18602 0.79044 0.32449 0.0
C241 C 0.20319 0.793 0.3159 0.0
C242 C 0.24245 0.7876 0.3005 0.0
C243 C 0.24185 0.79898 0.28311 0.0
C244 C 0.24821 0.79292 0.26395 0.0
C245 C 0.25496 0.77525 0.26161 0.0
C246 C 0.25505 0.7638 0.27898 0.0
C247 C 0.24896 0.76997 0.29816 0.0
H248 H 0.2187 0.82978 0.71283 0.0
N249 N 0.22952 0.7957 0.71298 0.0
H250 H 0.23213 0.85525 0.69446 0.0
H251 H 0.26168 0.7953 0.69137 0.0
H252 H 0.2756 0.8207 0.67385 0.0
H253 H 0.23251 0.78252 0.67356 0.0
H254 H 0.20796 0.77101 0.65211 0.0
H255 H 0.19535 0.79087 0.72388 0.0
H256 H 0.17071 0.77886 0.70276 0.0
H257 H 0.23098 0.7956 0.75393 0.0
H258 H 0.25036 0.76719 0.70027 0.0
H259 H 0.2464 0.77401 0.77635 0.0
H260 H 0.26706 0.74651 0.72225 0.0
H261 H 0.29674 0.71724 0.84307 0.0
H262 H 0.32322 0.72497 0.86306 0.0
H263 H 0.35594 0.72147 0.80776 0.0
H264 H 0.32934 0.71206 0.78821 0.0
H265 H 0.3026 0.67186 0.80569 0.0
H266 H 0.2869 0.64991 0.82728 0.0
H267 H 0.24831 0.69094 0.84488 0.0
H268 H 0.26465 0.71296 0.82391 0.0
H269 H 0.28869 0.74243 0.81164 0.0
H270 H 0.27348 0.76419 0.78956 0.0
H271 H 0.26434 0.72232 0.7441 0.0
N272 N 0.29595 0.7069 0.80228 0.0
H273 H 0.28094 0.70105 0.76567 0.0
C274 C 0.2391 0.81062 0.70371 0.0
C275 C 0.23125 0.8278 0.70454 0.0
C276 C 0.23903 0.84237 0.69411 0.0
C277 C 0.25501 0.84009 0.68262 0.0
C278 C 0.26317 0.82293 0.68227 0.0
C279 C 0.25526 0.80833 0.69255 0.0
C280 C 0.21566 0.78773 0.70031 0.0
C281 C 0.21909 0.78168 0.68008 0.0
C282 C 0.20503 0.77498 0.66787 0.0
C283 C 0.18731 0.7741 0.67565 0.0
C284 C 0.18411 0.77964 0.69613 0.0
C285 C 0.19815 0.7864 0.70827 0.0
C286 C 0.23973 0.78324 0.7255 0.0
C287 C 0.2389 0.78489 0.74702 0.0
C288 C 0.24786 0.77258 0.75979 0.0
C289 C 0.25815 0.75843 0.75124 0.0
C290 C 0.25907 0.75696 0.72954 0.0
C291 C 0.24975 0.76903 0.71683 0.0
C292 C 0.31112 0.71354 0.81413 0.0
C293 C 0.3096 0.71795 0.83522 0.0
C294 C 0.32486 0.72269 0.84665 0.0
C295 C 0.34197 0.72375 0.8372 0.0
C296 C 0.3432 0.7203 0.81582 0.0
C297 C 0.32797 0.71511 0.80451 0.0
C298 C 0.28483 0.69396 0.81307 0.0
C299 C 0.29058 0.67599 0.81396 0.0
C300 C 0.28149 0.66345 0.82624 0.0
C301 C 0.26627 0.66861 0.83787 0.0
C302 C 0.26009 0.68653 0.83635 0.0
C303 C 0.26931 0.69912 0.82417 0.0
C304 C 0.28633 0.7201 0.79008 0.0
C305 C 0.28365 0.73797 0.79681 0.0
C306 C 0.27468 0.75041 0.78419 0.0
C307 C 0.2677 0.74518 0.76482 0.0
C308 C 0.26992 0.72711 0.75854 0.0
C309 C 0.27926 0.71483 0.77095 0.0
H310 H 0.29699 0.27816 0.84505 0.0
N311 N 0.30277 0.29473 0.80774 0.0
H312 H 0.31937 0.26216 0.86568 0.0
H313 H 0.33601 0.28546 0.79637 0.0
H314 H 0.35875 0.26972 0.81716 0.0
H315 H 0.32055 0.3258 0.80769 0.0
H316 H 0.31496 0.35226 0.82939 0.0
H317 H 0.27388 0.2995 0.83354 0.0
H318 H 0.26843 0.32567 0.85581 0.0
H319 H 0.28467 0.2625 0.81451 0.0
H320 H 0.28858 0.3082 0.77339 0.0
H321 H 0.26237 0.24889 0.79217 0.0
H322 H 0.26514 0.29519 0.75153 0.0
H323 H 0.19065 0.20618 0.71627 0.0
H324 H 0.19681 0.17861 0.69671 0.0
H325 H 0.24717 0.20157 0.67558 0.0
H326 H 0.24059 0.22913 0.69441 0.0
H327 H 0.21684 0.24984 0.67799 0.0
H328 H 0.19545 0.26518 0.65538 0.0
H329 H 0.15561 0.2643 0.70418 0.0
H330 H 0.17707 0.24845 0.72656 0.0
H331 H 0.21147 0.23449 0.75749 0.0
H332 H 0.23295 0.24935 0.78052 0.0
H333 H 0.25948 0.27297 0.7274 0.0
N334 N 0.2097 0.23647 0.71664 0.0
H335 H 0.23714 0.25919 0.70488 0.0
C336 C 0.31486 0.28307 0.81909 0.0
C337 C 0.31033 0.27615 0.83867 0.0
C338 C 0.32319 0.26706 0.85053 0.0
C339 C 0.34091 0.2648 0.84317 0.0
C340 C 0.34518 0.27104 0.82322 0.0
C341 C 0.33226 0.28009 0.81133 0.0
C342 C 0.29771 0.31074 0.81903 0.0
C343 C 0.30899 0.32587 0.81793 0.0
C344 C 0.30587 0.34086 0.83049 0.0
C345 C 0.29138 0.341 0.84455 0.0
C346 C 0.27964 0.32606 0.84507 0.0
C347 C 0.28277 0.31106 0.83242 0.0
C348 C 0.28865 0.28644 0.79555 0.0
C349 C 0.28069 0.2698 0.80082 0.0
C350 C 0.26763 0.26202 0.78799 0.0
C351 C 0.26186 0.27082 0.76985 0.0
C352 C 0.26947 0.28771 0.76502 0.0
C353 C 0.28278 0.2953 0.77762 0.0
C354 C 0.2151 0.21973 0.70702 0.0
C355 C 0.20313 0.2051 0.70764 0.0
C356 C 0.20672 0.18935 0.69649 0.0
C357 C 0.22247 0.18786 0.68446 0.0
C358 C 0.23477 0.20234 0.68439 0.0
C359 C 0.23109 0.21814 0.69543 0.0
C360 C 0.19845 0.24786 0.70398 0.0
C361 C 0.20364 0.25321 0.68398 0.0
C362 C 0.19138 0.26209 0.67106 0.0
C363 C 0.17373 0.26583 0.67789 0.0
C364 C 0.16898 0.26134 0.69831 0.0
C365 C 0.18123 0.25242 0.71117 0.0
C366 C 0.22279 0.24548 0.72951 0.0
C367 C 0.22191 0.24296 0.75092 0.0
C368 C 0.23434 0.25136 0.76403 0.0
C369 C 0.24818 0.26231 0.75593 0.0
C370 C 0.24893 0.26489 0.73435 0.0
C371 C 0.23626 0.25676 0.72132 0.0
H372 H 0.80501 0.23987 0.68525 0.0
N373 N 0.81012 0.2207 0.72104 0.0
H374 H 0.8286 0.25025 0.66193 0.0
H375 H 0.84528 0.22197 0.72874 0.0
H376 H 0.86913 0.23204 0.70521 0.0
H377 H 0.82099 0.18674 0.72407 0.0
H378 H 0.81103 0.16106 0.70313 0.0
H379 H 0.78109 0.22057 0.69499 0.0
H380 H 0.77133 0.19505 0.67353 0.0
H381 H 0.79046 0.25173 0.71412 0.0
H382 H 0.80425 0.21188 0.75998 0.0
H383 H 0.77276 0.26824 0.73971 0.0
H384 H 0.7858 0.22764 0.78541 0.0
H385 H 0.73784 0.31709 0.80635 0.0
H386 H 0.74337 0.34742 0.82036 0.0
H387 H 0.75532 0.32386 0.87996 0.0
H388 H 0.74986 0.29383 0.86575 0.0
H389 H 0.72391 0.26222 0.85499 0.0
H390 H 0.6925 0.26024 0.86628 0.0
H391 H 0.67749 0.29948 0.8199 0.0
H392 H 0.709 0.30151 0.80898 0.0
H393 H 0.72914 0.28439 0.78722 0.0
H394 H 0.74618 0.2686 0.76032 0.0
H395 H 0.78636 0.25361 0.80572 0.0
N396 N 0.73768 0.28575 0.82847 0.0
H397 H 0.76868 0.26853 0.8325 0.0
C398 C 0.82339 0.23016 0.70888 0.0
C399 C 0.8189 0.23855 0.69007 0.0
C400 C 0.83246 0.24432 0.67659 0.0
C401 C 0.85076 0.24177 0.68158 0.0
C402 C 0.85518 0.23435 0.70094 0.0
C403 C 0.8416 0.22859 0.71442 0.0
C404 C 0.80193 0.2055 0.71091 0.0
C405 C 0.80984 0.18848 0.71342 0.0
C406 C 0.80413 0.17388 0.70148 0.0
C407 C 0.79051 0.17613 0.68661 0.0
C408 C 0.78199 0.19303 0.68475 0.0
C409 C 0.78754 0.20758 0.69697 0.0
C410 C 0.79904 0.23071 0.73531 0.0
C411 C 0.78968 0.24648 0.72967 0.0
C412 C 0.77936 0.25584 0.74433 0.0
C413 C 0.77798 0.24946 0.76479 0.0
C414 C 0.78691 0.23332 0.77004 0.0
C415 C 0.79738 0.22417 0.7555 0.0
C416 C 0.74343 0.30332 0.83514 0.0
C417 C 0.74194 0.31854 0.82232 0.0
C418 C 0.74501 0.33582 0.83037 0.0
C419 C 0.74974 0.33806 0.85129 0.0
C420 C 0.75198 0.32264 0.86373 0.0
C421 C 0.74882 0.30548 0.8557 0.0
C422 C 0.7188 0.28194 0.83121 0.0
C423 C 0.71372 0.26993 0.84686 0.0
C424 C 0.69575 0.26885 0.85327 0.0
C425 C 0.68249 0.27986 0.84412 0.0
C426 C 0.68742 0.29103 0.82746 0.0
C427 C 0.70543 0.29207 0.82105 0.0
C428 C 0.74753 0.27729 0.81196 0.0
C429 C 0.74153 0.27757 0.79136 0.0
C430 C 0.75141 0.26866 0.77594 0.0
C431 C 0.76759 0.25957 0.78081 0.0
C432 C 0.77375 0.25995 0.80139 0.0
C433 C 0.76376 0.2686 0.81674 0.0
H434 H 0.76071 0.78821 0.6517 0.0
N435 N 0.77754 0.78615 0.68777 0.0
H436 H 0.74819 0.81514 0.63522 0.0
H437 H 0.77386 0.81939 0.70582 0.0
H438 H 0.76093 0.84626 0.68982 0.0
H439 H 0.80492 0.80923 0.69775 0.0
H440 H 0.83544 0.80867 0.68338 0.0
H441 H 0.79237 0.75975 0.66599 0.0
H442 H 0.82311 0.75845 0.65237 0.0
H443 H 0.75719 0.757 0.69078 0.0
H444 H 0.78483 0.79684 0.72738 0.0
H445 H 0.7461 0.74248 0.7221 0.0
H446 H 0.77271 0.7833 0.75898 0.0
H447 H 0.69291 0.7201 0.81291 0.0
H448 H 0.66842 0.73426 0.83256 0.0
H449 H 0.70709 0.76921 0.86245 0.0
H450 H 0.73149 0.75519 0.84221 0.0
H451 H 0.75206 0.73062 0.84653 0.0
H452 H 0.76555 0.70583 0.86621 0.0
H453 H 0.73918 0.66744 0.82598 0.0
H454 H 0.72538 0.6924 0.80682 0.0
H455 H 0.7127 0.73102 0.7782 0.0
H456 H 0.72489 0.74619 0.74786 0.0
H457 H 0.77349 0.75881 0.78206 0.0
N458 N 0.7279 0.72744 0.81503 0.0
H459 H 0.76043 0.74458 0.81278 0.0
C460 C 0.76817 0.80173 0.67992 0.0
C461 C 0.76048 0.8008 0.66019 0.0
C462 C 0.75326 0.8162 0.65087 0.0
C463 C 0.75358 0.83292 0.66117 0.0
C464 C 0.76067 0.83367 0.68134 0.0
C465 C 0.76795 0.81823 0.69061 0.0
C466 C 0.79634 0.78464 0.68259 0.0
C467 C 0.80887 0.79805 0.68802 0.0
C468 C 0.82638 0.79763 0.67987 0.0
C469 C 0.83168 0.78368 0.66638 0.0
C470 C 0.81938 0.76967 0.66222 0.0
C471 C 0.80188 0.77024 0.67015 0.0
C472 C 0.77145 0.77814 0.70675 0.0
C473 C 0.76062 0.76273 0.70567 0.0
C474 C 0.75417 0.75458 0.72364 0.0
C475 C 0.75815 0.76187 0.74322 0.0
C476 C 0.76937 0.77722 0.74426 0.0
C477 C 0.77611 0.78519 0.72617 0.0
C478 C 0.7139 0.7365 0.82631 0.0
C479 C 0.69602 0.73092 0.82358 0.0
C480 C 0.6821 0.73906 0.83472 0.0
C481 C 0.68588 0.75284 0.849 0.0
C482 C 0.70385 0.75855 0.85162 0.0
C483 C 0.71776 0.75055 0.84017 0.0
C484 C 0.73764 0.71326 0.82531 0.0
C485 C 0.74935 0.71687 0.84186 0.0
C486 C 0.75713 0.70267 0.85302 0.0
C487 C 0.75332 0.68462 0.8478 0.0
C488 C 0.74215 0.68115 0.83066 0.0
C489 C 0.73437 0.69535 0.81959 0.0
C490 C 0.73573 0.73648 0.79756 0.0
C491 C 0.72595 0.73714 0.77909 0.0
C492 C 0.73307 0.74569 0.76171 0.0
C493 C 0.75038 0.75353 0.76226 0.0
C494 C 0.76009 0.75307 0.78101 0.0
C495 C 0.75274 0.74476 0.79857 0.0
C496 C 0.99036 0.25574 0.52786 0.0
C497 C 0.03643 0.25137 0.47412 0.0
O498 O 0.99551 0.27123 0.52126 0.0
Zn499 Zn 0.01397 0.2819 0.49873 0.0
O500 O 0.99715 0.24153 0.52007 0.0
Zn501 Zn 0.01318 0.25325 0.50071 0.0
O502 O 0.03239 0.26624 0.52057 0.0
O503 O 0.03048 0.29568 0.51584 0.0
O504 O 0.02841 0.23854 0.48339 0.0
O505 O 0.03226 0.26777 0.47843 0.0
O506 O 0.99794 0.29443 0.47974 0.0
O507 O 0.99494 0.26483 0.47882 0.0
C508 C 0.0377 0.28228 0.52493 0.0
C509 C 0.99035 0.2805 0.47227 0.0
C510 C 0.77489 0.03348 0.5371 0.0
C511 C 0.77816 0.98969 0.481 0.0
O512 O 0.78892 0.02638 0.52924 0.0
Zn513 Zn 0.77679 0.01166 0.50904 0.0
O514 O 0.75926 0.02921 0.5301 0.0
Zn515 Zn 0.74817 0.01201 0.50644 0.0
O516 O 0.73363 0.99521 0.52237 0.0
O517 O 0.76289 0.99219 0.52763 0.0
O518 O 0.76189 0.99442 0.48512 0.0
O519 O 0.79113 0.99649 0.49123 0.0
O520 O 0.76611 0.03159 0.48842 0.0
O521 O 0.73643 0.02915 0.48811 0.0
C522 C 0.74664 0.98721 0.53135 0.0
C523 C 0.7507 0.03696 0.48182 0.0
C524 C 0.99 0.77744 0.53949 0.0
C525 C 0.03447 0.77662 0.48374 0.0
O526 O 0.99697 0.7909 0.53028 0.0
Zn527 Zn 0.01235 0.77742 0.51179 0.0
O528 O 0.99498 0.76141 0.53459 0.0
Zn529 Zn 0.01346 0.74872 0.51336 0.0
O530 O 0.03069 0.73702 0.53154 0.0
O531 O 0.03243 0.76673 0.5322 0.0
O532 O 0.03064 0.76082 0.49057 0.0
O533 O 0.02672 0.79032 0.49157 0.0
O534 O 0.9931 0.76344 0.49293 0.0
O535 O 0.9976 0.7341 0.49633 0.0
C536 C 0.03811 0.75129 0.53838 0.0
C537 C 0.9889 0.74714 0.48832 0.0
C538 C 0.25126 0.03805 0.54643 0.0
C539 C 0.25521 0.9909 0.49393 0.0
O540 O 0.26762 0.0335 0.54248 0.0
Zn541 Zn 0.28159 0.01472 0.52273 0.0
O542 O 0.23841 0.03019 0.53706 0.0
Zn543 Zn 0.25295 0.01432 0.5203 0.0
O544 O 0.26404 0.99605 0.54251 0.0
O545 O 0.29368 0.99874 0.54215 0.0
O546 O 0.24105 0.99817 0.50128 0.0
O547 O 0.27075 0.99589 0.50059 0.0
O548 O 0.29578 0.03069 0.5053 0.0
O549 O 0.26645 0.03257 0.49976 0.0
C550 C 0.27956 0.99129 0.54936 0.0
C551 C 0.28259 0.03757 0.49547 0.0
C552 C 0.48326 0.78397 0.029 0.0
C553 C 0.53489 0.77804 0.98247 0.0
O554 O 0.49185 0.7966 0.02004 0.0
Zn555 Zn 0.50919 0.7814 0.00576 0.0
O556 O 0.48824 0.76757 0.0263 0.0
Zn557 Zn 0.50842 0.75296 0.00962 0.0
O558 O 0.52213 0.74142 0.03123 0.0
O559 O 0.52542 0.77101 0.03071 0.0
O560 O 0.52921 0.76282 0.98936 0.0
O561 O 0.52703 0.79251 0.98802 0.0
O562 O 0.49262 0.76705 0.98383 0.0
O563 O 0.49381 0.73808 0.99184 0.0
C564 C 0.52918 0.75562 0.03872 0.0
C565 C 0.48786 0.75067 0.98038 0.0
C566 C 0.27358 0.5343 0.04284 0.0
C567 C 0.27263 0.48582 0.99158 0.0
O568 O 0.287 0.52641 0.03459 0.0
Zn569 Zn 0.27347 0.50979 0.01734 0.0
O570 O 0.25755 0.52937 0.03795 0.0
Zn571 Zn 0.24472 0.51012 0.01807 0.0
O572 O 0.23179 0.49497 0.03758 0.0
O573 O 0.26138 0.49161 0.039 0.0
O574 O 0.25674 0.49077 0.99716 0.0
O575 O 0.28636 0.49343 0.99952 0.0
O576 O 0.26083 0.52738 0.99544 0.0
O577 O 0.23129 0.52572 0.99944 0.0
C578 C 0.24556 0.48723 0.04526 0.0
C579 C 0.2449 0.5323 0.99013 0.0
C580 C 0.53099 0.27959 0.97995 0.0
C581 C 0.48616 0.28098 0.03536 0.0
O582 O 0.52355 0.29342 0.9879 0.0
Zn583 Zn 0.50876 0.28069 0.00772 0.0
O584 O 0.52687 0.26382 0.98669 0.0
Zn585 Zn 0.50945 0.25198 0.00964 0.0
O586 O 0.49333 0.23748 0.99282 0.0
O587 O 0.49009 0.2668 0.98804 0.0
O588 O 0.49111 0.2649 0.03064 0.0
O589 O 0.49313 0.29431 0.02593 0.0
O590 O 0.5286 0.26991 0.02834 0.0
O591 O 0.52647 0.24021 0.02811 0.0
C592 C 0.48552 0.25054 0.9837 0.0
C593 C 0.53406 0.25447 0.03476 0.0
C594 C 0.74819 0.53648 0.03944 0.0
C595 C 0.75104 0.49171 0.98426 0.0
O596 O 0.76441 0.53222 0.0345 0.0
Zn597 Zn 0.77799 0.51481 0.013 0.0
O598 O 0.73504 0.52923 0.02992 0.0
Zn599 Zn 0.74921 0.51416 0.01176 0.0
O600 O 0.76126 0.49556 0.03293 0.0
O601 O 0.79087 0.49832 0.03123 0.0
O602 O 0.737 0.49836 0.99262 0.0
O603 O 0.76669 0.49676 0.99046 0.0
O604 O 0.79127 0.53191 0.996 0.0
O605 O 0.76176 0.53337 0.99168 0.0
C606 C 0.77703 0.49076 0.03898 0.0
C607 C 0.77765 0.5389 0.98706 0.0
H608 H 0.15979 0.20034 0.34353 0.0
H609 H 0.13252 0.20402 0.36461 0.0
H610 H 0.1494 0.25779 0.38112 0.0
H611 H 0.17668 0.25424 0.36006 0.0
H612 H 0.13358 0.21413 0.40994 0.0
H613 H 0.09506 0.2616 0.35998 0.0
H614 H 0.11241 0.24685 0.34994 0.0
H615 H 0.11854 0.2667 0.36417 0.0
C616 C 0.15755 0.21304 0.35141 0.0
C617 C 0.17034 0.22703 0.35013 0.0
C618 C 0.14204 0.21508 0.36351 0.0
C619 C 0.13894 0.23121 0.37426 0.0
C620 C 0.15151 0.2453 0.37277 0.0
H621 H 0.05962 0.27552 0.45662 0.0
H622 H 0.08396 0.26948 0.43219 0.0
C623 C 0.16711 0.24322 0.36085 0.0
C624 C 0.12299 0.23307 0.38785 0.0
H625 H 0.08347 0.25618 0.39348 0.0
C626 C 0.12251 0.22319 0.40633 0.0
C627 C 0.10872 0.24498 0.38305 0.0
C628 C 0.10852 0.25559 0.36315 0.0
C629 C 0.10834 0.22534 0.42054 0.0
C630 C 0.09403 0.23734 0.4158 0.0
C631 C 0.09441 0.24698 0.39709 0.0
C632 C 0.07896 0.24075 0.43043 0.0
C633 C 0.10923 0.2153 0.44082 0.0
C634 C 0.06786 0.22663 0.4374 0.0
C635 C 0.054 0.23001 0.45159 0.0
C636 C 0.05081 0.24763 0.4588 0.0
C637 C 0.06169 0.26178 0.45139 0.0
C638 C 0.07562 0.25836 0.4374 0.0
H639 H 0.12315 0.21059 0.44429 0.0
H640 H 0.10453 0.22391 0.45379 0.0
H641 H 0.10038 0.20325 0.44 0.0
H642 H 0.06989 0.21299 0.43185 0.0
H643 H 0.04575 0.21884 0.45684 0.0
H644 H 0.7696 0.18481 0.38426 0.0
H645 H 0.76162 0.1593 0.40653 0.0
H646 H 0.75278 0.12615 0.35268 0.0
H647 H 0.76123 0.1515 0.33036 0.0
H648 H 0.73233 0.13739 0.41134 0.0
H649 H 0.79106 0.09789 0.38303 0.0
H650 H 0.78798 0.12142 0.37686 0.0
H651 H 0.77556 0.10439 0.36306 0.0
C652 C 0.76571 0.17215 0.37718 0.0
C653 C 0.76624 0.17005 0.3556 0.0
C654 C 0.76117 0.15758 0.38991 0.0
C655 C 0.75698 0.1407 0.38129 0.0
C656 C 0.75644 0.1389 0.35969 0.0
H657 H 0.72189 0.04866 0.45846 0.0
H658 H 0.72165 0.07356 0.43338 0.0
C659 C 0.7612 0.15339 0.34696 0.0
C660 C 0.75427 0.12482 0.39494 0.0
H661 H 0.77175 0.08343 0.4067 0.0
C662 C 0.74088 0.12554 0.4103 0.0
C663 C 0.76561 0.10946 0.39371 0.0
C664 C 0.78097 0.10824 0.37842 0.0
C665 C 0.73868 0.11143 0.42463 0.0
C666 C 0.74992 0.09603 0.42325 0.0
C667 C 0.76306 0.09519 0.40764 0.0
C668 C 0.74945 0.08125 0.43875 0.0
C669 C 0.72484 0.11345 0.44158 0.0
C670 C 0.76519 0.07711 0.44982 0.0
C671 C 0.76544 0.06281 0.46381 0.0
C672 C 0.74991 0.05231 0.46717 0.0
C673 C 0.73404 0.05656 0.45628 0.0
C674 C 0.73385 0.07084 0.44205 0.0
H675 H 0.7203 0.12767 0.4433 0.0
H676 H 0.71286 0.1051 0.43782 0.0
H677 H 0.73033 0.10875 0.45661 0.0
H678 H 0.77738 0.08495 0.44756 0.0
H679 H 0.77788 0.06001 0.47201 0.0
H680 H 0.88528 0.76244 0.33158 0.0
H681 H 0.90999 0.75343 0.35377 0.0
H682 H 0.87205 0.73464 0.39953 0.0
H683 H 0.84718 0.74165 0.37642 0.0
H684 H 0.91763 0.76834 0.38711 0.0
H685 H 0.90837 0.69645 0.40625 0.0
H686 H 0.8959 0.70721 0.3857 0.0
H687 H 0.88817 0.7087 0.4121 0.0
C688 C 0.88202 0.75564 0.3459 0.0
C689 C 0.86398 0.75297 0.35208 0.0
C690 C 0.89631 0.75068 0.35878 0.0
C691 C 0.89302 0.74329 0.3784 0.0
C692 C 0.87509 0.73994 0.38434 0.0
H693 H 0.95934 0.76797 0.48265 0.0
H694 H 0.93629 0.76509 0.45596 0.0
C695 C 0.86077 0.7444 0.3712 0.0
C696 C 0.9081 0.74139 0.39349 0.0
H697 H 0.92592 0.71398 0.43081 0.0
C698 C 0.91956 0.75628 0.39635 0.0
C699 C 0.91095 0.72563 0.40548 0.0
C700 C 0.9003 0.70855 0.40203 0.0
C701 C 0.93328 0.75613 0.41123 0.0
C702 C 0.93512 0.74098 0.4244 0.0
C703 C 0.92424 0.72575 0.42103 0.0
C704 C 0.94789 0.74115 0.44209 0.0
C705 C 0.94571 0.77225 0.41254 0.0
C706 C 0.96138 0.72792 0.4441 0.0
C707 C 0.97437 0.72928 0.4598 0.0
C708 C 0.9741 0.74401 0.47349 0.0
C709 C 0.96005 0.75667 0.47205 0.0
C710 C 0.94694 0.75509 0.45673 0.0
H711 H 0.94665 0.77934 0.39744 0.0
H712 H 0.94026 0.78199 0.42397 0.0
H713 H 0.95952 0.76825 0.41739 0.0
H714 H 0.96225 0.71693 0.43311 0.0
H715 H 0.98506 0.71933 0.46062 0.0
H716 H 0.27719 0.86055 0.36485 0.0
H717 H 0.27825 0.88629 0.38864 0.0
H718 H 0.22023 0.89035 0.38647 0.0
H719 H 0.21898 0.8644 0.36329 0.0
H720 H 0.26472 0.9222 0.38375 0.0
H721 H 0.23142 0.88605 0.4486 0.0
H722 H 0.24069 0.87445 0.42647 0.0
H723 H 0.21918 0.88555 0.42464 0.0
C724 C 0.26466 0.8669 0.36949 0.0
C725 C 0.248 0.86038 0.36218 0.0
C726 C 0.2653 0.88164 0.38298 0.0
C727 C 0.2493 0.89002 0.38953 0.0
C728 C 0.23271 0.88388 0.38185 0.0
H729 H 0.22476 0.97651 0.47624 0.0
H730 H 0.22318 0.9527 0.45001 0.0
C731 C 0.23205 0.86918 0.36838 0.0
C732 C 0.24988 0.90509 0.40457 0.0
H733 H 0.23633 0.9174 0.45301 0.0
C734 C 0.25858 0.92116 0.39892 0.0
C735 C 0.24179 0.90367 0.42432 0.0
C736 C 0.23287 0.88646 0.43151 0.0
C737 C 0.25919 0.936 0.41242 0.0
C738 C 0.25115 0.93455 0.4322 0.0
C739 C 0.24241 0.91849 0.4378 0.0
C740 C 0.25212 0.94935 0.44758 0.0
C741 C 0.26815 0.95318 0.40525 0.0
C742 C 0.26889 0.9552 0.45504 0.0
C743 C 0.26984 0.96876 0.46998 0.0
C744 C 0.25402 0.97668 0.47788 0.0
C745 C 0.2372 0.97073 0.47044 0.0
C746 C 0.23627 0.95713 0.45547 0.0
H747 H 0.26908 0.95381 0.38813 0.0
H748 H 0.26068 0.96523 0.41083 0.0
H749 H 0.28206 0.95375 0.41156 0.0
H750 H 0.28127 0.94909 0.44951 0.0
H751 H 0.28302 0.97293 0.47543 0.0
H752 H 0.18679 0.74651 0.64724 0.0
H753 H 0.16205 0.73811 0.62399 0.0
H754 H 0.12873 0.7798 0.65054 0.0
H755 H 0.15335 0.78849 0.67352 0.0
H756 H 0.11108 0.7453 0.64486 0.0
H757 H 0.14622 0.77016 0.57427 0.0
H758 H 0.15835 0.75435 0.59016 0.0
H759 H 0.1533 0.77643 0.59998 0.0
C760 C 0.17422 0.75394 0.64807 0.0
C761 C 0.1721 0.76822 0.66222 0.0
C762 C 0.1601 0.74908 0.63483 0.0
C763 C 0.14363 0.75843 0.63547 0.0
C764 C 0.14132 0.77237 0.64987 0.0
H765 H 0.05785 0.77947 0.55307 0.0
H766 H 0.08357 0.77859 0.57647 0.0
C767 C 0.1554 0.77726 0.66306 0.0
C768 C 0.12894 0.75426 0.62071 0.0
H769 H 0.11694 0.75858 0.57 0.0
C770 C 0.11239 0.74796 0.62844 0.0
C771 C 0.13071 0.75791 0.59935 0.0
C772 C 0.14803 0.7652 0.59035 0.0
C773 C 0.09741 0.74559 0.6154 0.0
C774 C 0.0991 0.74957 0.59413 0.0
C775 C 0.11577 0.75543 0.58632 0.0
C776 C 0.08332 0.74958 0.5801 0.0
C777 C 0.07965 0.73966 0.62456 0.0
C778 C 0.07465 0.73349 0.57436 0.0
C779 C 0.05985 0.73392 0.56086 0.0
C780 C 0.05352 0.75046 0.55296 0.0
C781 C 0.06229 0.76649 0.55887 0.0
C782 C 0.07705 0.76604 0.57222 0.0
H783 H 0.08002 0.73929 0.64172 0.0
H784 H 0.06866 0.74889 0.6196 0.0
H785 H 0.0763 0.72594 0.61886 0.0
H786 H 0.07943 0.72064 0.58016 0.0
H787 H 0.05343 0.72134 0.55657 0.0
H788 H 0.21526 0.15231 0.69351 0.0
H789 H 0.21918 0.12608 0.67102 0.0
H790 H 0.24119 0.16036 0.6234 0.0
H791 H 0.2365 0.18673 0.64531 0.0
H792 H 0.21642 0.13712 0.60814 0.0
H793 H 0.26563 0.10006 0.65695 0.0
H794 H 0.24496 0.10552 0.67 0.0
H795 H 0.25972 0.12334 0.66159 0.0
C796 C 0.22086 0.1543 0.67822 0.0
C797 C 0.22565 0.17167 0.6713 0.0
C798 C 0.2233 0.13924 0.66547 0.0
C799 C 0.23075 0.1412 0.64564 0.0
C800 C 0.23553 0.1585 0.6387 0.0
H801 H 0.27577 0.05988 0.56556 0.0
H802 H 0.26988 0.08449 0.58969 0.0
C803 C 0.23301 0.17355 0.65136 0.0
C804 C 0.23313 0.12539 0.63182 0.0
H805 H 0.25427 0.08458 0.62764 0.0
C806 C 0.22469 0.12562 0.61239 0.0
C807 C 0.24408 0.11049 0.63732 0.0
C808 C 0.25427 0.10985 0.65751 0.0
C809 C 0.22693 0.1114 0.59828 0.0
C810 C 0.23756 0.09632 0.60395 0.0
C811 C 0.24597 0.09607 0.6234 0.0
C812 C 0.24087 0.08108 0.58955 0.0
C813 C 0.21834 0.11295 0.57719 0.0
C814 C 0.22653 0.0708 0.58162 0.0
C815 C 0.22984 0.05677 0.56764 0.0
C816 C 0.24759 0.05262 0.56155 0.0
C817 C 0.26193 0.0627 0.56989 0.0
C818 C 0.2586 0.07678 0.58373 0.0
H819 H 0.21469 0.12713 0.57345 0.0
H820 H 0.22751 0.1078 0.56497 0.0
H821 H 0.20578 0.1048 0.57688 0.0
H822 H 0.21277 0.07361 0.58626 0.0
H823 H 0.21851 0.04917 0.56165 0.0
H824 H 0.88406 0.25723 0.68753 0.0
H825 H 0.90816 0.26113 0.66194 0.0
H826 H 0.87408 0.23768 0.61507 0.0
H827 H 0.85003 0.23375 0.64043 0.0
H828 H 0.92546 0.23485 0.63918 0.0
H829 H 0.89153 0.28361 0.5871 0.0
H830 H 0.88335 0.27874 0.61278 0.0
H831 H 0.87838 0.26368 0.59173 0.0
C832 C 0.88168 0.25301 0.67174 0.0
C833 C 0.86506 0.24534 0.66598 0.0
C834 C 0.89544 0.25527 0.65714 0.0
C835 C 0.89281 0.24995 0.63653 0.0
C836 C 0.87624 0.24231 0.63075 0.0
H837 H 0.97411 0.22548 0.54382 0.0
H838 H 0.95089 0.22416 0.57072 0.0
C839 C 0.86249 0.2401 0.64528 0.0
C840 C 0.90762 0.25162 0.62122 0.0
H841 H 0.91804 0.26934 0.57399 0.0
C842 C 0.92391 0.2425 0.62499 0.0
C843 C 0.90562 0.26175 0.60282 0.0
C844 C 0.88885 0.27265 0.59842 0.0
C845 C 0.93812 0.24291 0.61062 0.0
C846 C 0.93583 0.25241 0.59184 0.0
C847 C 0.91969 0.26187 0.58829 0.0
C848 C 0.9501 0.25304 0.57576 0.0
C849 C 0.95553 0.23336 0.61584 0.0
C850 C 0.95706 0.26972 0.56933 0.0
C851 C 0.97017 0.27053 0.55385 0.0
C852 C 0.97658 0.25466 0.54442 0.0
C853 C 0.96956 0.23794 0.55086 0.0
C854 C 0.95636 0.23715 0.56632 0.0
H855 H 0.95688 0.23105 0.63274 0.0
H856 H 0.95574 0.22 0.60808 0.0
H857 H 0.96738 0.2412 0.6104 0.0
H858 H 0.95237 0.28214 0.57634 0.0
H859 H 0.97527 0.28364 0.54929 0.0
H860 H 0.72474 0.8376 0.63496 0.0
H861 H 0.71786 0.86416 0.61379 0.0
H862 H 0.76248 0.89262 0.64142 0.0
H863 H 0.7697 0.86614 0.66229 0.0
H864 H 0.72908 0.91365 0.63584 0.0
H865 H 0.75262 0.87778 0.56509 0.0
H866 H 0.73568 0.86673 0.58047 0.0
H867 H 0.75794 0.86988 0.59077 0.0
C868 C 0.73305 0.84954 0.63659 0.0
C869 C 0.74787 0.84966 0.65023 0.0
C870 C 0.72905 0.86471 0.62455 0.0
C871 C 0.73978 0.88025 0.62593 0.0
C872 C 0.75401 0.88075 0.64019 0.0
H873 H 0.77201 0.96616 0.54987 0.0
H874 H 0.76736 0.94047 0.57272 0.0
C875 C 0.75806 0.8656 0.65218 0.0
C876 C 0.73716 0.89555 0.61152 0.0
H877 H 0.74421 0.90814 0.56139 0.0
C878 C 0.73209 0.91243 0.61949 0.0
C879 C 0.74127 0.89388 0.59025 0.0
C880 C 0.7473 0.87616 0.58104 0.0
C881 C 0.73144 0.92781 0.60678 0.0
C882 C 0.736 0.92619 0.58567 0.0
C883 C 0.74057 0.90923 0.57759 0.0
C884 C 0.73825 0.94219 0.57225 0.0
C885 C 0.72673 0.94586 0.61609 0.0
C886 C 0.72333 0.95167 0.56443 0.0
C887 C 0.72592 0.96644 0.55118 0.0
C888 C 0.74347 0.97192 0.54568 0.0
C889 C 0.75831 0.96238 0.55377 0.0
C890 C 0.7557 0.94766 0.56684 0.0
H891 H 0.72446 0.94501 0.63304 0.0
H892 H 0.73775 0.95567 0.61306 0.0
H893 H 0.7143 0.95117 0.6087 0.0
H894 H 0.70974 0.94753 0.56838 0.0
H895 H 0.71422 0.97349 0.54521 0.0
H896 H 0.83887 0.77434 0.62636 0.0
H897 H 0.8676 0.77542 0.60822 0.0
H898 H 0.89329 0.79687 0.66274 0.0
H899 H 0.86463 0.79492 0.6815 0.0
H900 H 0.88842 0.80421 0.59927 0.0
H901 H 0.92676 0.75561 0.64784 0.0
H902 H 0.90259 0.75811 0.64968 0.0
H903 H 0.91725 0.77439 0.6616 0.0
C904 C 0.85066 0.77891 0.63473 0.0
C905 C 0.84942 0.78429 0.65554 0.0
C906 C 0.86707 0.77973 0.62421 0.0
C907 C 0.88266 0.78602 0.63416 0.0
C908 C 0.88152 0.79164 0.65486 0.0
H909 H 0.978 0.80914 0.55677 0.0
H910 H 0.95325 0.81298 0.58153 0.0
C911 C 0.86507 0.7907 0.66549 0.0
C912 C 0.89991 0.78687 0.62252 0.0
H913 H 0.94256 0.76947 0.62048 0.0
C914 C 0.90031 0.79672 0.60397 0.0
C915 C 0.91536 0.77698 0.62862 0.0
C916 C 0.91551 0.76554 0.64792 0.0
C917 C 0.91552 0.79653 0.59103 0.0
C918 C 0.93097 0.78661 0.5971 0.0
C919 C 0.93075 0.77717 0.61594 0.0
C920 C 0.94684 0.78451 0.5833 0.0
C921 C 0.91455 0.80625 0.57054 0.0
C922 C 0.95191 0.76721 0.57669 0.0
C923 C 0.96616 0.76496 0.56282 0.0
C924 C 0.97564 0.77999 0.55517 0.0
C925 C 0.97086 0.79731 0.56221 0.0
C926 C 0.95666 0.79953 0.57628 0.0
H927 H 0.90043 0.80958 0.56618 0.0
H928 H 0.92221 0.81908 0.5716 0.0
H929 H 0.9206 0.79796 0.55803 0.0
H930 H 0.94456 0.75542 0.58192 0.0
H931 H 0.96947 0.75142 0.55776 0.0
H932 H 0.27057 0.8386 0.64417 0.0
H933 H 0.28059 0.86368 0.62265 0.0
H934 H 0.26515 0.90124 0.6704 0.0
H935 H 0.25612 0.87617 0.69256 0.0
H936 H 0.25971 0.88888 0.60748 0.0
H937 H 0.31276 0.92232 0.65368 0.0
H938 H 0.30446 0.90003 0.65977 0.0
H939 H 0.29231 0.91976 0.6682 0.0
C940 C 0.26982 0.85213 0.65042 0.0
C941 C 0.2625 0.8553 0.67018 0.0
C942 C 0.27544 0.8665 0.63799 0.0
C943 C 0.27385 0.88437 0.64496 0.0
C944 C 0.26693 0.88758 0.66482 0.0
H945 H 0.25201 0.97743 0.57209 0.0
H946 H 0.25266 0.95148 0.59517 0.0
C947 C 0.26146 0.8732 0.67736 0.0
C948 C 0.2776 0.89964 0.63068 0.0
H949 H 0.29906 0.94035 0.62678 0.0
C950 C 0.26853 0.89998 0.61162 0.0
C951 C 0.28929 0.91406 0.63587 0.0
C952 C 0.3004 0.91395 0.65541 0.0
C953 C 0.27022 0.91464 0.59806 0.0
C954 C 0.2809 0.92961 0.60391 0.0
C955 C 0.29066 0.92897 0.62248 0.0
C956 C 0.2812 0.94634 0.59134 0.0
C957 C 0.26039 0.914 0.57763 0.0
C958 C 0.29725 0.95261 0.58226 0.0
C959 C 0.29697 0.96765 0.56909 0.0
C960 C 0.28063 0.97661 0.56486 0.0
C961 C 0.26479 0.97072 0.57477 0.0
C962 C 0.2651 0.95583 0.58793 0.0
H963 H 0.25751 0.89989 0.57285 0.0
H964 H 0.24729 0.92115 0.57916 0.0
H965 H 0.26833 0.92068 0.56525 0.0
H966 H 0.30984 0.94553 0.58485 0.0
H967 H 0.3094 0.97189 0.56174 0.0
H968 H 0.13855 0.25533 0.67426 0.0
H969 H 0.11664 0.26457 0.64821 0.0
H970 H 0.15562 0.30113 0.62182 0.0
H971 H 0.17771 0.29205 0.64808 0.0
H972 H 0.10207 0.29868 0.63665 0.0
H973 H 0.14245 0.2668 0.57385 0.0
H974 H 0.14691 0.26256 0.60084 0.0
H975 H 0.15374 0.28351 0.5893 0.0
C976 C 0.1424 0.26563 0.66323 0.0
C977 C 0.15994 0.2729 0.66324 0.0
C978 C 0.12986 0.27085 0.64828 0.0
C979 C 0.13458 0.28337 0.63296 0.0
C980 C 0.15181 0.29123 0.63334 0.0
H981 H 0.05173 0.31404 0.54025 0.0
H982 H 0.07598 0.31736 0.56593 0.0
C983 C 0.16441 0.286 0.64832 0.0
C984 C 0.1217 0.28717 0.61597 0.0
H985 H 0.11421 0.27868 0.56482 0.0
C986 C 0.10479 0.2946 0.62085 0.0
C987 C 0.12529 0.28167 0.59543 0.0
C988 C 0.14301 0.27307 0.58944 0.0
C989 C 0.09113 0.29611 0.60587 0.0
C990 C 0.09458 0.29014 0.5855 0.0
C991 C 0.1117 0.28335 0.58044 0.0
C992 C 0.08002 0.28864 0.56991 0.0
C993 C 0.07283 0.30314 0.61214 0.0
C994 C 0.07446 0.27145 0.56355 0.0
C995 C 0.06073 0.26951 0.54901 0.0
C996 C 0.05227 0.28475 0.54037 0.0
C997 C 0.05794 0.30204 0.54665 0.0
C998 C 0.07173 0.30396 0.56134 0.0
H999 H 0.07173 0.30519 0.6291 0.0
H1000 H 0.07031 0.31626 0.60437 0.0
H1001 H 0.0621 0.29363 0.60716 0.0
H1002 H 0.08069 0.25947 0.56999 0.0
H1003 H 0.05678 0.25599 0.54454 0.0
H1004 H 0.78384 0.14066 0.69551 0.0
H1005 H 0.78001 0.1158 0.67092 0.0
H1006 H 0.78509 0.15328 0.62019 0.0
H1007 H 0.78835 0.17818 0.64469 0.0
H1008 H 0.75937 0.12954 0.61251 0.0
H1009 H 0.8204 0.09298 0.63903 0.0
H1010 H 0.80421 0.09633 0.65928 0.0
H1011 H 0.81507 0.11552 0.64758 0.0
C1012 C 0.784 0.14356 0.6791 0.0
C1013 C 0.78643 0.16131 0.67198 0.0
C1014 C 0.78197 0.12935 0.66507 0.0
C1015 C 0.78273 0.1326 0.6437 0.0
C1016 C 0.78455 0.15042 0.6366 0.0
H1017 H 0.80467 0.053 0.54839 0.0
H1018 H 0.8063 0.07702 0.57431 0.0
C1019 C 0.78633 0.16465 0.6506 0.0
C1020 C 0.78176 0.1175 0.62865 0.0
H1021 H 0.80164 0.07765 0.61498 0.0
C1022 C 0.76864 0.11821 0.61303 0.0
C1023 C 0.79409 0.10288 0.62909 0.0
C1024 C 0.80935 0.10193 0.6445 0.0
C1025 C 0.76739 0.10467 0.59793 0.0
C1026 C 0.77922 0.08967 0.59888 0.0
C1027 C 0.79244 0.08903 0.6144 0.0
C1028 C 0.77833 0.07469 0.58369 0.0
C1029 C 0.75375 0.10691 0.58078 0.0
C1030 C 0.76221 0.06509 0.58068 0.0
C1031 C 0.76119 0.05156 0.5657 0.0
C1032 C 0.77639 0.04708 0.55374 0.0
C1033 C 0.79273 0.05616 0.55736 0.0
C1034 C 0.79367 0.06989 0.57215 0.0
H1035 H 0.74985 0.12128 0.5787 0.0
H1036 H 0.75907 0.10174 0.56586 0.0
H1037 H 0.74136 0.09924 0.58472 0.0
H1038 H 0.75037 0.06813 0.58985 0.0
H1039 H 0.74846 0.04463 0.56348 0.0
H1040 H 0.8451 0.28381 0.35884 0.0
H1041 H 0.87089 0.29471 0.37904 0.0
H1042 H 0.90042 0.24632 0.36385 0.0
H1043 H 0.87486 0.23542 0.34367 0.0
H1044 H 0.88602 0.27944 0.41284 0.0
H1045 H 0.93761 0.28455 0.35147 0.0
H1046 H 0.91385 0.28228 0.3458 0.0
H1047 H 0.9273 0.26267 0.35169 0.0
C1048 C 0.85714 0.27556 0.35973 0.0
C1049 C 0.85797 0.2588 0.34953 0.0
C1050 C 0.87189 0.28184 0.37119 0.0
C1051 C 0.88774 0.27152 0.37261 0.0
C1052 C 0.88857 0.2548 0.36245 0.0
H1053 H 0.97709 0.25351 0.44825 0.0
H1054 H 0.95239 0.25496 0.42343 0.0
C1055 C 0.8739 0.24855 0.35094 0.0
C1056 C 0.90297 0.27745 0.38587 0.0
H1057 H 0.94887 0.28179 0.38649 0.0
C1058 C 0.89971 0.28038 0.407 0.0
C1059 C 0.92083 0.27881 0.37823 0.0
C1060 C 0.92508 0.2771 0.35551 0.0
C1061 C 0.91397 0.28341 0.42087 0.0
C1062 C 0.93188 0.28357 0.41338 0.0
C1063 C 0.93509 0.28159 0.39215 0.0
C1064 C 0.94746 0.28347 0.42766 0.0
C1065 C 0.90998 0.2854 0.44362 0.0
C1066 C 0.95301 0.29916 0.43803 0.0
C1067 C 0.96729 0.29842 0.45225 0.0
C1068 C 0.97605 0.28195 0.45636 0.0
C1069 C 0.97058 0.2664 0.44558 0.0
C1070 C 0.9565 0.26719 0.43132 0.0
H1071 H 0.89533 0.28431 0.44706 0.0
H1072 H 0.9173 0.27486 0.45249 0.0
H1073 H 0.91486 0.29873 0.4491 0.0
H1074 H 0.94618 0.31186 0.43531 0.0
H1075 H 0.97118 0.31062 0.46033 0.0
H1076 H 0.80011 0.87682 0.32951 0.0
H1077 H 0.79688 0.90282 0.35263 0.0
H1078 H 0.7928 0.86686 0.40491 0.0
H1079 H 0.79541 0.84089 0.38178 0.0
H1080 H 0.7684 0.89225 0.40764 0.0
H1081 H 0.83406 0.92444 0.38995 0.0
H1082 H 0.82033 0.92155 0.36737 0.0
H1083 H 0.82841 0.90204 0.38118 0.0
C1084 C 0.79856 0.87452 0.34595 0.0
C1085 C 0.798 0.85687 0.35388 0.0
C1086 C 0.79686 0.88937 0.35916 0.0
C1087 C 0.79499 0.88683 0.38059 0.0
C1088 C 0.79428 0.86918 0.38846 0.0
H1089 H 0.80842 0.96897 0.4756 0.0
H1090 H 0.81257 0.94416 0.45103 0.0
C1091 C 0.79571 0.85435 0.37524 0.0
C1092 C 0.7932 0.90248 0.39482 0.0
H1093 H 0.81331 0.94185 0.40984 0.0
C1094 C 0.77827 0.90305 0.40816 0.0
C1095 C 0.80623 0.91644 0.39578 0.0
C1096 C 0.82325 0.91603 0.38296 0.0
C1097 C 0.7759 0.91723 0.42227 0.0
C1098 C 0.78848 0.93161 0.42256 0.0
C1099 C 0.80354 0.93095 0.40941 0.0
C1100 C 0.78636 0.9473 0.43665 0.0
C1101 C 0.76017 0.91634 0.43709 0.0
C1102 C 0.77049 0.95764 0.43635 0.0
C1103 C 0.768 0.97162 0.45054 0.0
C1104 C 0.7815 0.97582 0.46502 0.0
C1105 C 0.79777 0.96604 0.46464 0.0
C1106 C 0.80015 0.95186 0.45062 0.0
H1107 H 0.75535 0.90227 0.43921 0.0
H1108 H 0.76383 0.92191 0.45246 0.0
H1109 H 0.74879 0.92436 0.43076 0.0
H1110 H 0.75991 0.95477 0.42529 0.0
H1111 H 0.75541 0.97907 0.45024 0.0
H1112 H 0.1591 0.80932 0.3472 0.0
H1113 H 0.13204 0.80972 0.36897 0.0
H1114 H 0.14204 0.75449 0.38666 0.0
H1115 H 0.16918 0.75405 0.36511 0.0
H1116 H 0.10055 0.78898 0.37106 0.0
H1117 H 0.14191 0.78106 0.44191 0.0
H1118 H 0.15167 0.78635 0.41708 0.0
H1119 H 0.14562 0.76347 0.42333 0.0
C1120 C 0.15533 0.79715 0.35542 0.0
C1121 C 0.16635 0.7817 0.35462 0.0
C1122 C 0.13992 0.79744 0.36792 0.0
C1123 C 0.13529 0.78228 0.37979 0.0
C1124 C 0.14565 0.76649 0.37803 0.0
H1125 H 0.05487 0.75001 0.4665 0.0
H1126 H 0.07847 0.75298 0.44047 0.0
C1127 C 0.1611 0.76623 0.36567 0.0
C1128 C 0.12014 0.78318 0.39474 0.0
H1129 H 0.11013 0.77779 0.44589 0.0
C1130 C 0.10263 0.7867 0.38744 0.0
C1131 C 0.12295 0.78043 0.41616 0.0
C1132 C 0.14157 0.7778 0.42515 0.0
C1133 C 0.08775 0.78678 0.40094 0.0
C1134 C 0.09054 0.78335 0.42218 0.0
C1135 C 0.10807 0.78031 0.42954 0.0
C1136 C 0.0754 0.78183 0.43697 0.0
C1137 C 0.06908 0.78995 0.39242 0.0
C1138 C 0.06586 0.79714 0.4436 0.0
C1139 C 0.05235 0.79554 0.45866 0.0
C1140 C 0.0482 0.77858 0.46724 0.0
C1141 C 0.05767 0.76329 0.46024 0.0
C1142 C 0.07118 0.76492 0.44535 0.0
H1143 H 0.06896 0.79048 0.37526 0.0
H1144 H 0.05981 0.77908 0.39762 0.0
H1145 H 0.06376 0.80293 0.39844 0.0
H1146 H 0.06911 0.81034 0.43743 0.0
H1147 H 0.04532 0.80757 0.46372 0.0
H1148 H 0.29682 0.16884 0.36044 0.0
H1149 H 0.30695 0.14565 0.38497 0.0
H1150 H 0.25532 0.11917 0.38009 0.0
H1151 H 0.24503 0.14223 0.35604 0.0
H1152 H 0.29126 0.13652 0.42334 0.0
H1153 H 0.29107 0.07784 0.37059 0.0
H1154 H 0.291 0.10085 0.36133 0.0
H1155 H 0.2703 0.09025 0.36942 0.0
C1156 C 0.28764 0.15805 0.36458 0.0
C1157 C 0.27016 0.1573 0.35606 0.0
C1158 C 0.29349 0.14478 0.3785 0.0
C1159 C 0.28202 0.13049 0.38399 0.0
C1160 C 0.26459 0.12978 0.37561 0.0
H1161 H 0.25739 0.05101 0.4691 0.0
H1162 H 0.26139 0.07347 0.44204 0.0
C1163 C 0.25873 0.143 0.3618 0.0
C1164 C 0.28761 0.11672 0.39935 0.0
H1165 H 0.28831 0.07115 0.40706 0.0
C1166 C 0.29111 0.12223 0.41973 0.0
C1167 C 0.28751 0.0981 0.39455 0.0
C1168 C 0.28496 0.0914 0.37273 0.0
C1169 C 0.29309 0.10953 0.43572 0.0
C1170 C 0.29164 0.09095 0.4311 0.0
C1171 C 0.28933 0.08544 0.41054 0.0
C1172 C 0.28991 0.07722 0.44759 0.0
C1173 C 0.29549 0.116 0.45764 0.0
C1174 C 0.30472 0.07181 0.45963 0.0
C1175 C 0.30251 0.05882 0.47521 0.0
C1176 C 0.28544 0.05116 0.47897 0.0
C1177 C 0.27073 0.05664 0.46674 0.0
C1178 C 0.27297 0.06947 0.45119 0.0
H1179 H 0.29548 0.13097 0.45877 0.0
H1180 H 0.2845 0.11059 0.46754 0.0
H1181 H 0.30847 0.11086 0.46387 0.0
H1182 H 0.31794 0.07761 0.45695 0.0
H1183 H 0.31411 0.05487 0.48435 0.0
H1184 H 0.65319 0.76515 0.83566 0.0
H1185 H 0.62752 0.7747 0.85684 0.0
H1186 H 0.65921 0.76644 0.912 0.0
H1187 H 0.68504 0.75742 0.89082 0.0
H1188 H 0.60993 0.75446 0.88286 0.0
H1189 H 0.63563 0.81337 0.92609 0.0
H1190 H 0.64732 0.80418 0.904 0.0
H1191 H 0.65017 0.79422 0.9292 0.0
C1192 C 0.65474 0.7657 0.8523 0.0
C1193 C 0.67108 0.76057 0.86163 0.0
C1194 C 0.64009 0.77117 0.86438 0.0
C1195 C 0.64146 0.77152 0.88603 0.0
C1196 C 0.65794 0.7668 0.89534 0.0
H1197 H 0.55713 0.75012 0.97248 0.0
H1198 H 0.58241 0.75016 0.94844 0.0
C1199 C 0.67268 0.76156 0.88323 0.0
C1200 C 0.62516 0.77493 0.89887 0.0
H1201 H 0.60952 0.7985 0.94058 0.0
C1202 C 0.60979 0.76429 0.89528 0.0
C1203 C 0.6248 0.78793 0.91491 0.0
C1204 C 0.64031 0.8007 0.91863 0.0
C1205 C 0.5944 0.76576 0.90776 0.0
C1206 C 0.59453 0.77782 0.92471 0.0
C1207 C 0.60955 0.78905 0.92778 0.0
C1208 C 0.57954 0.77826 0.93991 0.0
C1209 C 0.57815 0.7543 0.90267 0.0
C1210 C 0.56993 0.79426 0.94375 0.0
C1211 C 0.5555 0.79435 0.95776 0.0
C1212 C 0.55048 0.77843 0.96814 0.0
C1213 C 0.56045 0.76258 0.96457 0.0
C1214 C 0.57488 0.76254 0.95073 0.0
H1215 H 0.57795 0.7505 0.88605 0.0
H1216 H 0.57871 0.74165 0.91184 0.0
H1217 H 0.56538 0.76142 0.90641 0.0
H1218 H 0.57341 0.80659 0.93568 0.0
H1219 H 0.54814 0.8068 0.96024 0.0
H1220 H 0.25275 0.67557 0.87658 0.0
H1221 H 0.24282 0.65373 0.90241 0.0
H1222 H 0.25195 0.61037 0.85923 0.0
H1223 H 0.26085 0.63218 0.83283 0.0
H1224 H 0.2222 0.60417 0.8837 0.0
H1225 H 0.28131 0.62433 0.93131 0.0
H1226 H 0.2658 0.64231 0.92584 0.0
H1227 H 0.27828 0.632 0.90511 0.0
C1228 C 0.25217 0.66145 0.87231 0.0
C1229 C 0.25791 0.65564 0.85265 0.0
C1230 C 0.24669 0.64895 0.88723 0.0
C1231 C 0.24711 0.6304 0.88293 0.0
C1232 C 0.25169 0.62462 0.86296 0.0
H1233 H 0.27022 0.54239 0.96215 0.0
H1234 H 0.26825 0.56615 0.9363 0.0
C1235 C 0.25698 0.63711 0.84795 0.0
C1236 C 0.24434 0.6169 0.89957 0.0
H1237 H 0.26256 0.60168 0.94478 0.0
C1238 C 0.23091 0.60367 0.89715 0.0
C1239 C 0.25589 0.61617 0.91699 0.0
C1240 C 0.27124 0.62934 0.91995 0.0
C1241 C 0.22897 0.58952 0.9115 0.0
C1242 C 0.24056 0.58882 0.92884 0.0
C1243 C 0.25363 0.60232 0.93151 0.0
C1244 C 0.24067 0.57342 0.94349 0.0
C1245 C 0.21507 0.57506 0.90753 0.0
C1246 C 0.22568 0.56939 0.95598 0.0
C1247 C 0.22672 0.55559 0.97079 0.0
C1248 C 0.24285 0.54585 0.97348 0.0
C1249 C 0.25764 0.54972 0.96062 0.0
C1250 C 0.25654 0.56331 0.9458 0.0
H1251 H 0.20975 0.57563 0.89149 0.0
H1252 H 0.22088 0.56145 0.91028 0.0
H1253 H 0.20358 0.5769 0.91833 0.0
H1254 H 0.21339 0.57722 0.95469 0.0
H1255 H 0.21513 0.55297 0.98055 0.0
H1256 H 0.36846 0.24147 0.83318 0.0
H1257 H 0.39338 0.23161 0.85544 0.0
H1258 H 0.37082 0.26193 0.90612 0.0
H1259 H 0.34607 0.27182 0.88413 0.0
H1260 H 0.41811 0.25312 0.87338 0.0
H1261 H 0.38283 0.21486 0.93441 0.0
H1262 H 0.37223 0.22046 0.91009 0.0
H1263 H 0.37276 0.23665 0.93086 0.0
C1264 C 0.36873 0.24587 0.84913 0.0
C1265 C 0.3552 0.25735 0.8569 0.0
C1266 C 0.38292 0.24015 0.86185 0.0
C1267 C 0.38378 0.24573 0.88257 0.0
C1268 C 0.37016 0.25696 0.8904 0.0
H1269 H 0.46793 0.27587 0.96088 0.0
H1270 H 0.44457 0.27131 0.93504 0.0
C1271 C 0.356 0.26265 0.87775 0.0
C1272 C 0.39976 0.24149 0.89553 0.0
H1273 H 0.41182 0.22775 0.944 0.0
C1274 C 0.41679 0.24721 0.88864 0.0
C1275 C 0.39815 0.23348 0.91532 0.0
C1276 C 0.38052 0.22583 0.923 0.0
C1277 C 0.43196 0.24636 0.90158 0.0
C1278 C 0.42997 0.23993 0.92204 0.0
C1279 C 0.41327 0.23294 0.92841 0.0
C1280 C 0.44446 0.2422 0.93761 0.0
C1281 C 0.44988 0.25289 0.89342 0.0
C1282 C 0.45185 0.22733 0.9481 0.0
C1283 C 0.46528 0.22989 0.9631 0.0
C1284 C 0.47134 0.24739 0.96794 0.0
C1285 C 0.46369 0.2622 0.95751 0.0
C1286 C 0.45039 0.25962 0.94259 0.0
H1287 H 0.45059 0.25162 0.87633 0.0
H1288 H 0.45156 0.26737 0.89735 0.0
H1289 H 0.46127 0.24524 0.90035 0.0
H1290 H 0.44729 0.21378 0.94461 0.0
H1291 H 0.47085 0.21822 0.9709 0.0
H1292 H 0.72743 0.36705 0.84522 0.0
H1293 H 0.72711 0.39547 0.86455 0.0
H1294 H 0.77412 0.3784 0.89863 0.0
H1295 H 0.77474 0.35012 0.87918 0.0
H1296 H 0.74288 0.38868 0.92301 0.0
H1297 H 0.76188 0.44022 0.86429 0.0
H1298 H 0.74476 0.4242 0.85705 0.0
H1299 H 0.76743 0.4166 0.86143 0.0
C1300 C 0.738 0.36956 0.85641 0.0
C1301 C 0.75107 0.35628 0.86074 0.0
C1302 C 0.73776 0.38578 0.86748 0.0
C1303 C 0.75061 0.389 0.88296 0.0
C1304 C 0.76408 0.37612 0.88674 0.0
H1305 H 0.7782 0.47832 0.96034 0.0
H1306 H 0.77646 0.45419 0.93473 0.0
C1307 C 0.76437 0.35995 0.87567 0.0
C1308 C 0.74918 0.40503 0.89648 0.0
H1309 H 0.7537 0.45088 0.89745 0.0
C1310 C 0.74516 0.4023 0.91743 0.0
C1311 C 0.7522 0.42272 0.88908 0.0
C1312 C 0.75693 0.42623 0.86677 0.0
C1313 C 0.74424 0.41681 0.9313 0.0
C1314 C 0.74728 0.43451 0.92393 0.0
C1315 C 0.7512 0.43728 0.90294 0.0
C1316 C 0.74773 0.45009 0.93819 0.0
C1317 C 0.74055 0.41308 0.95384 0.0
C1318 C 0.73205 0.45596 0.94833 0.0
C1319 C 0.73296 0.4698 0.96301 0.0
C1320 C 0.74961 0.47791 0.96781 0.0
C1321 C 0.76518 0.47229 0.95714 0.0
C1322 C 0.76422 0.45856 0.94242 0.0
H1323 H 0.7414 0.39846 0.95755 0.0
H1324 H 0.75028 0.42049 0.96376 0.0
H1325 H 0.72678 0.41786 0.95779 0.0
H1326 H 0.71917 0.44964 0.94512 0.0
H1327 H 0.72073 0.47386 0.97091 0.0
H1328 H 0.68156 0.27415 0.13188 0.0
H1329 H 0.65591 0.2662 0.10985 0.0
H1330 H 0.62379 0.25515 0.16403 0.0
H1331 H 0.64927 0.26366 0.18612 0.0
H1332 H 0.63492 0.23674 0.10424 0.0
H1333 H 0.59376 0.29301 0.13576 0.0
H1334 H 0.61742 0.29053 0.14153 0.0
H1335 H 0.60094 0.27705 0.15492 0.0
C1336 C 0.66909 0.2698 0.13907 0.0
C1337 C 0.66731 0.26971 0.16069 0.0
C1338 C 0.65444 0.26528 0.12648 0.0
C1339 C 0.63779 0.26046 0.13528 0.0
C1340 C 0.63634 0.25932 0.15689 0.0
H1341 H 0.54643 0.22523 0.05698 0.0
H1342 H 0.57122 0.22483 0.08219 0.0
C1343 C 0.6509 0.2641 0.16948 0.0
C1344 C 0.6218 0.25764 0.12181 0.0
H1345 H 0.57972 0.27409 0.11138 0.0
C1346 C 0.6228 0.24483 0.10584 0.0
C1347 C 0.60607 0.26837 0.12378 0.0
C1348 C 0.60448 0.28313 0.13978 0.0
C1349 C 0.60864 0.24268 0.09157 0.0
C1350 C 0.5929 0.25334 0.09365 0.0
C1351 C 0.59175 0.26584 0.1099 0.0
C1352 C 0.57807 0.25303 0.07821 0.0
C1353 C 0.61099 0.22958 0.07392 0.0
C1354 C 0.57347 0.26904 0.0679 0.0
C1355 C 0.55925 0.26936 0.05382 0.0
C1356 C 0.54926 0.25365 0.04961 0.0
C1357 C 0.55392 0.23753 0.05981 0.0
C1358 C 0.56815 0.23726 0.07412 0.0
H1359 H 0.62532 0.22552 0.07189 0.0
H1360 H 0.60299 0.21723 0.0771 0.0
H1361 H 0.60606 0.23552 0.05921 0.0
H1362 H 0.58093 0.28137 0.07078 0.0
H1363 H 0.55611 0.282 0.0462 0.0
H1364 H 0.76627 0.66459 0.16526 0.0
H1365 H 0.76513 0.63692 0.1446 0.0
H1366 H 0.70706 0.63664 0.14905 0.0
H1367 H 0.70803 0.66452 0.16923 0.0
H1368 H 0.74894 0.60192 0.15259 0.0
H1369 H 0.71774 0.63806 0.0861 0.0
H1370 H 0.72836 0.64982 0.10728 0.0
H1371 H 0.70633 0.64012 0.11051 0.0
C1372 C 0.75327 0.65859 0.16191 0.0
C1373 C 0.73724 0.66683 0.16875 0.0
C1374 C 0.75264 0.64275 0.15022 0.0
C1375 C 0.736 0.63493 0.14508 0.0
C1376 C 0.72003 0.64262 0.15266 0.0
H1377 H 0.71585 0.54936 0.05416 0.0
H1378 H 0.71128 0.57182 0.08153 0.0
C1379 C 0.72063 0.65845 0.16437 0.0
C1380 C 0.7354 0.61929 0.13088 0.0
H1381 H 0.72352 0.60709 0.08186 0.0
C1382 C 0.74328 0.60298 0.13717 0.0
C1383 C 0.72791 0.62074 0.11083 0.0
C1384 C 0.71971 0.63814 0.10312 0.0
C1385 C 0.7441 0.58809 0.12379 0.0
C1386 C 0.73718 0.58974 0.10349 0.0
C1387 C 0.72879 0.60588 0.09744 0.0
C1388 C 0.73974 0.57544 0.08776 0.0
C1389 C 0.75239 0.57075 0.13151 0.0
C1390 C 0.75724 0.57023 0.08206 0.0
C1391 C 0.75989 0.55749 0.0665 0.0
C1392 C 0.74509 0.54977 0.05615 0.0
C1393 C 0.72753 0.55502 0.06185 0.0
C1394 C 0.72489 0.56782 0.07749 0.0
H1395 H 0.75164 0.56976 0.14862 0.0
H1396 H 0.74561 0.5588 0.12467 0.0
H1397 H 0.76686 0.57039 0.12707 0.0
H1398 H 0.7689 0.57628 0.0894 0.0
H1399 H 0.7736 0.55384 0.06246 0.0
H1400 H 0.36225 0.76256 0.15762 0.0
H1401 H 0.38867 0.77095 0.13736 0.0
H1402 H 0.35828 0.81341 0.10792 0.0
H1403 H 0.33172 0.80532 0.12848 0.0
H1404 H 0.37511 0.79015 0.0803 0.0
H1405 H 0.42381 0.8136 0.13934 0.0
H1406 H 0.41379 0.79228 0.14582 0.0
H1407 H 0.39984 0.81213 0.14424 0.0
C1408 C 0.36126 0.77403 0.1473 0.0
C1409 C 0.34482 0.78327 0.14472 0.0
C1410 C 0.37643 0.77881 0.13571 0.0
C1411 C 0.37552 0.79297 0.12134 0.0
C1412 C 0.35929 0.80252 0.11903 0.0
H1413 H 0.47096 0.81679 0.04328 0.0
H1414 H 0.44432 0.82227 0.06513 0.0
C1415 C 0.3441 0.79779 0.13069 0.0
C1416 C 0.39095 0.79639 0.1073 0.0
H1417 H 0.43648 0.80365 0.10685 0.0
C1418 C 0.38845 0.79349 0.08606 0.0
C1419 C 0.40832 0.80089 0.11479 0.0
C1420 C 0.4116 0.80509 0.13728 0.0
C1421 C 0.40308 0.79381 0.07231 0.0
C1422 C 0.42062 0.79703 0.08003 0.0
C1423 C 0.42299 0.80108 0.10103 0.0
C1424 C 0.43673 0.79413 0.06698 0.0
C1425 C 0.39982 0.79 0.04971 0.0
C1426 C 0.4413 0.77653 0.0611 0.0
C1427 C 0.45644 0.77335 0.04887 0.0
C1428 C 0.46735 0.78775 0.04217 0.0
C1429 C 0.46279 0.80544 0.04814 0.0
C1430 C 0.44763 0.80859 0.06061 0.0
H1431 H 0.38545 0.79209 0.04541 0.0
H1432 H 0.40842 0.79875 0.03986 0.0
H1433 H 0.40338 0.77574 0.04639 0.0
H1434 H 0.43312 0.7652 0.06605 0.0
H1435 H 0.45951 0.75956 0.04457 0.0
H1436 H 0.26786 0.38363 0.20252 0.0
H1437 H 0.25773 0.40878 0.18153 0.0
H1438 H 0.23952 0.3717 0.13456 0.0
H1439 H 0.24769 0.34637 0.15645 0.0
H1440 H 0.27152 0.41834 0.1483 0.0
H1441 H 0.19989 0.40653 0.13019 0.0
H1442 H 0.21148 0.39386 0.14997 0.0
H1443 H 0.21269 0.38696 0.12324 0.0
C1444 C 0.26099 0.38065 0.18817 0.0
C1445 C 0.2588 0.36275 0.18128 0.0
C1446 C 0.25537 0.39518 0.17599 0.0
C1447 C 0.24774 0.39227 0.1564 0.0
C1448 C 0.24494 0.37444 0.14976 0.0
H1449 H 0.26859 0.45961 0.05252 0.0
H1450 H 0.26731 0.43731 0.08015 0.0
C1451 C 0.25008 0.35988 0.16219 0.0
C1452 C 0.24496 0.40772 0.142 0.0
H1453 H 0.21648 0.42487 0.10533 0.0
C1454 C 0.25929 0.4199 0.13924 0.0
C1455 C 0.22895 0.41013 0.1303 0.0
C1456 C 0.21234 0.39877 0.13378 0.0
C1457 C 0.25842 0.4338 0.12461 0.0
C1458 C 0.24314 0.43512 0.11157 0.0
C1459 C 0.22839 0.42359 0.11497 0.0
C1460 C 0.24275 0.44779 0.09377 0.0
C1461 C 0.27398 0.44692 0.12333 0.0
C1462 C 0.22873 0.46041 0.09139 0.0
C1463 C 0.2292 0.47297 0.07517 0.0
C1464 C 0.24378 0.47314 0.06128 0.0
C1465 C 0.25737 0.46003 0.06325 0.0
C1466 C 0.25671 0.44734 0.07912 0.0
H1467 H 0.28092 0.44822 0.13849 0.0
H1468 H 0.28404 0.44184 0.11203 0.0
H1469 H 0.26943 0.46052 0.11836 0.0
H1470 H 0.21771 0.46087 0.10238 0.0
H1471 H 0.21852 0.4829 0.07393 0.0
H1472 H 0.34426 0.28596 0.14826 0.0
H1473 H 0.36898 0.28335 0.12351 0.0
H1474 H 0.406 0.30459 0.16881 0.0
H1475 H 0.38152 0.30639 0.19405 0.0
H1476 H 0.39009 0.30969 0.10749 0.0
H1477 H 0.43246 0.25995 0.14943 0.0
H1478 H 0.40944 0.26471 0.15671 0.0
H1479 H 0.42731 0.27977 0.16424 0.0
C1480 C 0.35772 0.2897 0.15316 0.0
C1481 C 0.36088 0.29624 0.17326 0.0
C1482 C 0.37181 0.28838 0.13889 0.0
C1483 C 0.38939 0.29357 0.14436 0.0
C1484 C 0.39262 0.30018 0.16435 0.0
H1485 H 0.47467 0.31285 0.05268 0.0
H1486 H 0.45164 0.31682 0.07951 0.0
C1487 C 0.37854 0.3014 0.1787 0.0
C1488 C 0.40417 0.29245 0.1289 0.0
H1489 H 0.44529 0.2733 0.11954 0.0
C1490 C 0.40217 0.30173 0.11011 0.0
C1491 C 0.41983 0.28193 0.13227 0.0
C1492 C 0.42237 0.27088 0.15166 0.0
C1493 C 0.41536 0.30074 0.09456 0.0
C1494 C 0.4312 0.29051 0.0981 0.0
C1495 C 0.43322 0.28128 0.11693 0.0
C1496 C 0.4454 0.28836 0.08208 0.0
C1497 C 0.41194 0.31018 0.07426 0.0
C1498 C 0.44989 0.27103 0.07502 0.0
C1499 C 0.46316 0.26871 0.05993 0.0
C1500 C 0.47224 0.28368 0.05152 0.0
C1501 C 0.46783 0.30105 0.05872 0.0
C1502 C 0.4546 0.30335 0.07397 0.0
H1503 H 0.39742 0.31346 0.07214 0.0
H1504 H 0.41962 0.32303 0.07391 0.0
H1505 H 0.41645 0.30176 0.06104 0.0
H1506 H 0.443 0.25927 0.08108 0.0
H1507 H 0.46618 0.25514 0.05477 0.0
H1508 H 0.78181 0.34844 0.15759 0.0
H1509 H 0.79262 0.37391 0.13678 0.0
H1510 H 0.74305 0.40253 0.14901 0.0
H1511 H 0.73229 0.37731 0.16988 0.0
H1512 H 0.77819 0.38751 0.10192 0.0
H1513 H 0.77961 0.44124 0.16103 0.0
H1514 H 0.77775 0.41765 0.1677 0.0
H1515 H 0.75802 0.43035 0.16033 0.0
C1516 C 0.77329 0.36023 0.15594 0.0
C1517 C 0.75624 0.36092 0.1655 0.0
C1518 C 0.77951 0.37479 0.14412 0.0
C1519 C 0.76882 0.3903 0.14168 0.0
C1520 C 0.7518 0.39098 0.15121 0.0
H1521 H 0.75011 0.47714 0.06283 0.0
H1522 H 0.75185 0.453 0.08829 0.0
C1523 C 0.74563 0.37651 0.1631 0.0
C1524 C 0.77471 0.40528 0.12798 0.0
H1525 H 0.77752 0.45124 0.12543 0.0
C1526 C 0.77848 0.40141 0.10716 0.0
C1527 C 0.77523 0.42341 0.13484 0.0
C1528 C 0.77263 0.42839 0.15726 0.0
C1529 C 0.78149 0.41529 0.09277 0.0
C1530 C 0.78077 0.43344 0.09942 0.0
C1531 C 0.778 0.43728 0.1204 0.0
C1532 C 0.78048 0.44853 0.08446 0.0
C1533 C 0.78436 0.4106 0.07032 0.0
C1534 C 0.79612 0.45413 0.07401 0.0
C1535 C 0.79522 0.4681 0.05938 0.0
C1536 C 0.77862 0.4765 0.05494 0.0
C1537 C 0.7631 0.47091 0.06572 0.0
C1538 C 0.76405 0.45715 0.08036 0.0
H1539 H 0.7837 0.39582 0.0675 0.0
H1540 H 0.77399 0.41738 0.06065 0.0
H1541 H 0.79777 0.41558 0.06525 0.0
H1542 H 0.80895 0.44765 0.07708 0.0
H1543 H 0.8074 0.4721 0.05135 0.0
H1544 H 0.66779 0.77895 0.14933 0.0
H1545 H 0.63979 0.77898 0.12933 0.0
H1546 H 0.6221 0.73112 0.16132 0.0
H1547 H 0.65028 0.73069 0.1811 0.0
H1548 H 0.62993 0.74684 0.10401 0.0
H1549 H 0.57752 0.76748 0.16105 0.0
H1550 H 0.60104 0.77339 0.16406 0.0
H1551 H 0.59375 0.75071 0.1689 0.0
C1552 C 0.65788 0.76851 0.15227 0.0
C1553 C 0.66135 0.75473 0.16671 0.0
C1554 C 0.64187 0.7686 0.14089 0.0
C1555 C 0.62892 0.75508 0.14391 0.0
C1556 C 0.63188 0.74179 0.15897 0.0
H1557 H 0.54487 0.72536 0.05532 0.0
H1558 H 0.56824 0.72413 0.08213 0.0
C1559 C 0.64796 0.74162 0.17031 0.0
C1560 C 0.61317 0.75399 0.12992 0.0
H1561 H 0.5675 0.75987 0.12747 0.0
C1562 C 0.61626 0.7496 0.10913 0.0
C1563 C 0.59542 0.75763 0.13673 0.0
C1564 C 0.5916 0.76268 0.15887 0.0
C1565 C 0.60203 0.74887 0.09487 0.0
C1566 C 0.58427 0.75256 0.10163 0.0
C1567 C 0.58114 0.7569 0.12244 0.0
C1568 C 0.56903 0.75301 0.08689 0.0
C1569 C 0.6061 0.7446 0.07254 0.0
C1570 C 0.56154 0.76962 0.08108 0.0
C1571 C 0.54831 0.77039 0.06574 0.0
C1572 C 0.54221 0.75453 0.05603 0.0
C1573 C 0.54929 0.73782 0.06246 0.0
C1574 C 0.56264 0.73708 0.07774 0.0
H1575 H 0.62083 0.74461 0.06928 0.0
H1576 H 0.60067 0.73105 0.06872 0.0
H1577 H 0.59944 0.75454 0.0622 0.0
H1578 H 0.56633 0.78204 0.088 0.0
H1579 H 0.54308 0.78347 0.06125 0.0
H1580 H 0.25373 0.67315 0.15721 0.0
H1581 H 0.25441 0.64436 0.13873 0.0
H1582 H 0.31163 0.65039 0.12877 0.0
H1583 H 0.31105 0.67931 0.14696 0.0
H1584 H 0.26568 0.64067 0.09703 0.0
H1585 H 0.3067 0.59786 0.14975 0.0
H1586 H 0.29595 0.61848 0.15818 0.0
H1587 H 0.3163 0.61939 0.14316 0.0
C1588 C 0.26648 0.66833 0.15117 0.0
C1589 C 0.28233 0.67859 0.15354 0.0
C1590 C 0.26686 0.65183 0.14072 0.0
C1591 C 0.28309 0.64516 0.13255 0.0
C1592 C 0.29902 0.65511 0.1353 0.0
H1593 H 0.30506 0.55184 0.05315 0.0
H1594 H 0.30825 0.57869 0.07511 0.0
C1595 C 0.29866 0.67165 0.14574 0.0
C1596 C 0.28302 0.62852 0.11982 0.0
H1597 H 0.29893 0.58527 0.11729 0.0
C1598 C 0.27291 0.62854 0.10148 0.0
C1599 C 0.29266 0.61281 0.12555 0.0
C1600 C 0.30343 0.61198 0.14531 0.0
C1601 C 0.27214 0.61327 0.08871 0.0
C1602 C 0.2814 0.59739 0.09467 0.0
C1603 C 0.2918 0.59744 0.11281 0.0
C1604 C 0.27983 0.58048 0.08254 0.0
C1605 C 0.26155 0.61435 0.06882 0.0
C1606 C 0.26291 0.57233 0.07994 0.0
C1607 C 0.26103 0.55712 0.06742 0.0
C1608 C 0.27609 0.54959 0.05733 0.0
C1609 C 0.29319 0.55734 0.06063 0.0
C1610 C 0.29504 0.57266 0.07316 0.0
H1611 H 0.25965 0.62855 0.06371 0.0
H1612 H 0.26837 0.60675 0.05626 0.0
H1613 H 0.24798 0.60837 0.07125 0.0
H1614 H 0.25106 0.57791 0.0874 0.0
H1615 H 0.24769 0.55141 0.06543 0.0
H1616 H 0.34489 0.74516 0.87195 0.0
H1617 H 0.37103 0.74922 0.89406 0.0
H1618 H 0.40318 0.71704 0.85246 0.0
H1619 H 0.37664 0.71122 0.83139 0.0
H1620 H 0.41088 0.7076 0.88885 0.0
H1621 H 0.41229 0.78199 0.88888 0.0
H1622 H 0.39097 0.77422 0.89837 0.0
H1623 H 0.39753 0.76945 0.87206 0.0
C1624 C 0.35741 0.73871 0.86752 0.0
C1625 C 0.35844 0.72777 0.84975 0.0
C1626 C 0.37254 0.74141 0.88004 0.0
C1627 C 0.38928 0.73383 0.87475 0.0
C1628 C 0.39047 0.72317 0.85685 0.0
H1629 H 0.48466 0.76821 0.94366 0.0
H1630 H 0.46232 0.76294 0.91649 0.0
C1631 C 0.37524 0.72006 0.8446 0.0
C1632 C 0.40527 0.73616 0.88845 0.0
H1633 H 0.42878 0.76743 0.91624 0.0
C1634 C 0.41494 0.72074 0.8946 0.0
C1635 C 0.41091 0.75329 0.89569 0.0
C1636 C 0.40249 0.77066 0.88819 0.0
C1637 C 0.42971 0.7219 0.90813 0.0
C1638 C 0.43444 0.73887 0.91664 0.0
C1639 C 0.42507 0.75435 0.91005 0.0
C1640 C 0.44891 0.74099 0.93245 0.0
C1641 C 0.44024 0.70493 0.91274 0.0
C1642 C 0.449 0.73036 0.95047 0.0
C1643 C 0.46214 0.73299 0.9657 0.0
C1644 C 0.47501 0.74677 0.96355 0.0
C1645 C 0.47486 0.7575 0.94567 0.0
C1646 C 0.46207 0.75451 0.93017 0.0
H1647 H 0.43935 0.69518 0.89973 0.0
H1648 H 0.45471 0.70787 0.91569 0.0
H1649 H 0.43444 0.69826 0.92659 0.0
H1650 H 0.43866 0.7203 0.95305 0.0
H1651 H 0.46179 0.72474 0.97952 0.0
H1652 H 0.3177 0.35921 0.8656 0.0
H1653 H 0.31406 0.38408 0.89002 0.0
H1654 H 0.25638 0.38226 0.88149 0.0
H1655 H 0.25989 0.35744 0.85679 0.0
H1656 H 0.29796 0.41825 0.88379 0.0
H1657 H 0.26267 0.37879 0.94465 0.0
H1658 H 0.27468 0.36822 0.9236 0.0
H1659 H 0.25263 0.37763 0.91941 0.0
C1660 C 0.30423 0.3642 0.86872 0.0
C1661 C 0.28907 0.35632 0.85919 0.0
C1662 C 0.30219 0.37835 0.88278 0.0
C1663 C 0.28495 0.38485 0.88775 0.0
C1664 C 0.26978 0.3772 0.87815 0.0
H1665 H 0.24597 0.46775 0.97104 0.0
H1666 H 0.24927 0.44377 0.94544 0.0
C1667 C 0.27181 0.36302 0.86405 0.0
C1668 C 0.28296 0.39976 0.90286 0.0
H1669 H 0.26525 0.41027 0.95007 0.0
C1670 C 0.29084 0.41653 0.89831 0.0
C1671 C 0.27368 0.39743 0.92178 0.0
C1672 C 0.26554 0.37952 0.92782 0.0
C1673 C 0.28945 0.43114 0.91205 0.0
C1674 C 0.28023 0.42879 0.93101 0.0
C1675 C 0.27232 0.41203 0.93553 0.0
C1676 C 0.27846 0.44359 0.94632 0.0
C1677 C 0.29753 0.44906 0.90594 0.0
C1678 C 0.29379 0.45135 0.95548 0.0
C1679 C 0.29196 0.46513 0.97012 0.0
C1680 C 0.27475 0.4713 0.97599 0.0
C1681 C 0.25944 0.46337 0.96688 0.0
C1682 C 0.26128 0.44964 0.95224 0.0
H1683 H 0.29987 0.44992 0.889 0.0
H1684 H 0.28865 0.4604 0.91066 0.0
H1685 H 0.31074 0.45073 0.91379 0.0
H1686 H 0.30717 0.44662 0.95146 0.0
H1687 H 0.30403 0.47086 0.97692 0.0
H1688 H 0.66225 0.31016 0.85095 0.0
H1689 H 0.63392 0.3125 0.87013 0.0
H1690 H 0.63329 0.25477 0.87847 0.0
H1691 H 0.66139 0.25221 0.85875 0.0
H1692 H 0.5988 0.27052 0.86883 0.0
H1693 H 0.63372 0.30563 0.93351 0.0
H1694 H 0.6362 0.31573 0.90841 0.0
H1695 H 0.64585 0.29391 0.91338 0.0
C1696 C 0.65588 0.29789 0.85642 0.0
C1697 C 0.66415 0.28098 0.85341 0.0
C1698 C 0.6398 0.2993 0.86759 0.0
C1699 C 0.63172 0.28385 0.87603 0.0
C1700 C 0.63941 0.26687 0.87219 0.0
H1701 H 0.54843 0.25249 0.95963 0.0
H1702 H 0.57146 0.25509 0.93295 0.0
C1703 C 0.6555 0.26544 0.86103 0.0
C1704 C 0.61578 0.2854 0.88975 0.0
H1705 H 0.60256 0.30058 0.93723 0.0
C1706 C 0.59956 0.27718 0.88374 0.0
C1707 C 0.61683 0.29417 0.90914 0.0
C1708 C 0.6341 0.30276 0.91666 0.0
C1709 C 0.58437 0.27733 0.89672 0.0
C1710 C 0.58559 0.28561 0.91639 0.0
C1711 C 0.60165 0.29428 0.92213 0.0
C1712 C 0.57088 0.28427 0.93185 0.0
C1713 C 0.56716 0.26862 0.88926 0.0
C1714 C 0.56315 0.29985 0.94049 0.0
C1715 C 0.55 0.29843 0.95596 0.0
C1716 C 0.54449 0.28138 0.96316 0.0
C1717 C 0.55227 0.26584 0.95441 0.0
C1718 C 0.56536 0.26728 0.939 0.0
H1719 H 0.56658 0.26816 0.87211 0.0
H1720 H 0.56657 0.25453 0.89504 0.0
H1721 H 0.5551 0.27595 0.89506 0.0
H1722 H 0.56736 0.31311 0.93532 0.0
H1723 H 0.54431 0.31066 0.9624 0.0
H1724 H 0.73489 0.65449 0.85977 0.0
H1725 H 0.74533 0.62995 0.88186 0.0
H1726 H 0.79717 0.65585 0.88796 0.0
H1727 H 0.78684 0.68055 0.8656 0.0
H1728 H 0.77499 0.60644 0.87647 0.0
H1729 H 0.78118 0.64749 0.94828 0.0
H1730 H 0.76903 0.65544 0.92587 0.0
H1731 H 0.79325 0.65535 0.9259 0.0
C1732 C 0.7486 0.6549 0.86555 0.0
C1733 C 0.76004 0.66949 0.86084 0.0
C1734 C 0.75452 0.6409 0.87828 0.0
C1735 C 0.77196 0.64116 0.88671 0.0
C1736 C 0.78355 0.65554 0.88189 0.0
H1737 H 0.8077 0.55944 0.97818 0.0
H1738 H 0.80993 0.58407 0.95273 0.0
C1739 C 0.77762 0.66963 0.86912 0.0
C1740 C 0.77767 0.62628 0.90059 0.0
H1741 H 0.78617 0.61628 0.95123 0.0
C1742 C 0.7777 0.60862 0.89276 0.0
C1743 C 0.78132 0.62917 0.92181 0.0
C1744 C 0.78112 0.64784 0.93111 0.0
C1745 C 0.7805 0.59371 0.90573 0.0
C1746 C 0.78314 0.59653 0.92712 0.0
C1747 C 0.78416 0.61421 0.9348 0.0
C1748 C 0.78241 0.58136 0.942 0.0
C1749 C 0.78005 0.57499 0.89658 0.0
C1750 C 0.7662 0.57188 0.94446 0.0
C1751 C 0.76484 0.55804 0.95895 0.0
C1752 C 0.7797 0.5533 0.97135 0.0
C1753 C 0.79605 0.56272 0.96879 0.0
C1754 C 0.79734 0.57678 0.95432 0.0
H1755 H 0.78315 0.57521 0.87977 0.0
H1756 H 0.78983 0.56595 0.90447 0.0
H1757 H 0.76634 0.56924 0.89858 0.0
H1758 H 0.75445 0.5754 0.93533 0.0
H1759 H 0.75205 0.55108 0.96047 0.0
loop_
_geom_bond_atom_site_label_1
_geom_bond_atom_site_label_2
_geom_bond_distance
_geom_bond_site_symmetry_2
_ccdc_geom_bond_type
H0 C27 0.929 . S
N1 C26 1.433 . S
N1 C32 1.435 . S
N1 C38 1.423 . S
H2 C28 0.930 . S
H3 C31 0.931 . S
H4 C30 0.929 . S
H5 C33 0.930 . S
H6 C34 0.932 . S
H7 C37 0.929 . S
H8 C36 0.931 . S
H9 C39 0.929 . S
H10 C43 0.932 . S
H11 C40 0.931 . S
H12 C42 0.929 . S
H13 C45 0.929 . S
H14 C46 0.930 . S
H15 C48 0.929 . S
H16 C49 0.931 . S
H17 C51 0.930 . S
H18 C52 0.932 . S
H19 C54 0.931 . S
H20 C55 0.929 . S
H21 C57 0.929 . S
H22 C58 0.931 . S
H23 C60 0.929 . S
N24 C44 1.433 . S
N24 C50 1.435 . S
N24 C56 1.423 . S
H25 C61 0.932 . S
C26 N1 1.433 . S
C26 C27 1.363 . S
C26 C31 1.370 . S
C27 H0 0.929 . S
C27 C26 1.363 . S
C27 C28 1.385 . S
C28 H2 0.930 . S
C28 C27 1.385 . S
C28 C29 1.357 . S
C29 C28 1.357 . S
C29 C30 1.406 . S
C30 H4 0.929 . S
C30 C29 1.406 . S
C30 C31 1.391 . S
C31 H3 0.931 . S
C31 C26 1.370 . S
C31 C30 1.391 . S
C32 N1 1.435 . S
C32 C33 1.358 . S
C32 C37 1.371 . S
C33 H5 0.930 . S
C33 C32 1.358 . S
C33 C34 1.405 . S
C34 H6 0.932 . S
C34 C33 1.405 . S
C34 C35 1.383 . S
C35 C34 1.383 . S
C35 C36 1.393 . S
C36 H8 0.931 . S
C36 C35 1.393 . S
C36 C37 1.382 . S
C37 H7 0.929 . S
C37 C32 1.371 . S
C37 C36 1.382 . S
C38 N1 1.423 . S
C38 C39 1.362 . S
C38 C43 1.388 . S
C39 H9 0.929 . S
C39 C38 1.362 . S
C39 C40 1.376 . S
C40 H11 0.931 . S
C40 C39 1.376 . S
C40 C41 1.396 . S
C41 C40 1.396 . S
C41 C42 1.348 . S
C41 C59 1.472 . S
C42 H12 0.929 . S
C42 C41 1.348 . S
C42 C43 1.443 . S
C43 H10 0.932 . S
C43 C38 1.388 . S
C43 C42 1.443 . S
C44 N24 1.433 . S
C44 C45 1.363 . S
C44 C49 1.370 . S
C45 H13 0.929 . S
C45 C44 1.363 . S
C45 C46 1.385 . S
C46 H14 0.930 . S
C46 C45 1.385 . S
C46 C47 1.357 . S
C47 C46 1.357 . S
C47 C48 1.406 . S
C48 H15 0.929 . S
C48 C47 1.406 . S
C48 C49 1.391 . S
C49 H16 0.931 . S
C49 C44 1.370 . S
C49 C48 1.391 . S
C50 N24 1.435 . S
C50 C51 1.358 . S
C50 C55 1.371 . S
C51 H17 0.930 . S
C51 C50 1.358 . S
C51 C52 1.405 . S
C52 H18 0.932 . S
C52 C51 1.405 . S
C52 C53 1.383 . S
C53 C52 1.383 . S
C53 C54 1.393 . S
C54 H19 0.931 . S
C54 C53 1.393 . S
C54 C55 1.382 . S
C55 H20 0.929 . S
C55 C50 1.371 . S
C55 C54 1.382 . S
C56 N24 1.423 . S
C56 C57 1.362 . S
C56 C61 1.388 . S
C57 H21 0.929 . S
C57 C56 1.362 . S
C57 C58 1.376 . S
C58 H22 0.931 . S
C58 C57 1.376 . S
C58 C59 1.396 . S
C59 C41 1.472 . S
C59 C58 1.396 . S
C59 C60 1.348 . S
C60 H23 0.929 . S
C60 C59 1.348 . S
C60 C61 1.443 . S
C61 H25 0.932 . S
C61 C56 1.388 . S
C61 C60 1.443 . S
H62 C89 0.929 . S
N63 C88 1.433 . S
N63 C94 1.435 . S
N63 C100 1.423 . S
H64 C90 0.930 . S
H65 C93 0.931 . S
H66 C92 0.929 . S
H67 C95 0.930 . S
H68 C96 0.932 . S
H69 C99 0.929 . S
H70 C98 0.931 . S
H71 C101 0.929 . S
H72 C105 0.932 . S
H73 C102 0.931 . S
H74 C104 0.929 . S
H75 C107 0.929 . S
H76 C108 0.930 . S
H77 C110 0.929 . S
H78 C111 0.931 . S
H79 C113 0.930 . S
H80 C114 0.932 . S
H81 C116 0.931 . S
H82 C117 0.929 . S
H83 C119 0.929 . S
H84 C120 0.931 . S
H85 C122 0.929 . S
N86 C106 1.433 . S
N86 C112 1.435 . S
N86 C118 1.423 . S
H87 C123 0.932 . S
C88 N63 1.433 . S
C88 C89 1.363 . S
C88 C93 1.370 . S
C89 H62 0.929 . S
C89 C88 1.363 . S
C89 C90 1.385 . S
C90 H64 0.930 . S
C90 C89 1.385 . S
C90 C91 1.357 . S
C91 C90 1.357 . S
C91 C92 1.406 . S
C92 H66 0.929 . S
C92 C91 1.406 . S
C92 C93 1.391 . S
C93 H65 0.931 . S
C93 C88 1.370 . S
C93 C92 1.391 . S
C94 N63 1.435 . S
C94 C95 1.358 . S
C94 C99 1.371 . S
C95 H67 0.930 . S
C95 C94 1.358 . S
C95 C96 1.405 . S
C96 H68 0.932 . S
C96 C95 1.405 . S
C96 C97 1.383 . S
C97 C96 1.383 . S
C97 C98 1.393 . S
C98 H70 0.931 . S
C98 C97 1.393 . S
C98 C99 1.382 . S
C99 H69 0.929 . S
C99 C94 1.371 . S
C99 C98 1.382 . S
C100 N63 1.423 . S
C100 C101 1.362 . S
C100 C105 1.388 . S
C101 H71 0.929 . S
C101 C100 1.362 . S
C101 C102 1.376 . S
C102 H73 0.931 . S
C102 C101 1.376 . S
C102 C103 1.396 . S
C103 C102 1.396 . S
C103 C104 1.348 . S
C103 C121 1.472 . S
C104 H74 0.929 . S
C104 C103 1.348 . S
C104 C105 1.443 . S
C105 H72 0.932 . S
C105 C100 1.388 . S
C105 C104 1.443 . S
C106 N86 1.433 . S
C106 C107 1.363 . S
C106 C111 1.370 . S
C107 H75 0.929 . S
C107 C106 1.363 . S
C107 C108 1.385 . S
C108 H76 0.930 . S
C108 C107 1.385 . S
C108 C109 1.357 . S
C109 C108 1.357 . S
C109 C110 1.406 . S
C110 H77 0.929 . S
C110 C109 1.406 . S
C110 C111 1.391 . S
C111 H78 0.931 . S
C111 C106 1.370 . S
C111 C110 1.391 . S
C112 N86 1.435 . S
C112 C113 1.358 . S
C112 C117 1.371 . S
C113 H79 0.930 . S
C113 C112 1.358 . S
C113 C114 1.405 . S
C114 H80 0.932 . S
C114 C113 1.405 . S
C114 C115 1.383 . S
C115 C114 1.383 . S
C115 C116 1.393 . S
C116 H81 0.931 . S
C116 C115 1.393 . S
C116 C117 1.382 . S
C117 H82 0.929 . S
C117 C112 1.371 . S
C117 C116 1.382 . S
C118 N86 1.423 . S
C118 C119 1.362 . S
C118 C123 1.388 . S
C119 H83 0.929 . S
C119 C118 1.362 . S
C119 C120 1.376 . S
C120 H84 0.931 . S
C120 C119 1.376 . S
C120 C121 1.396 . S
C121 C103 1.472 . S
C121 C120 1.396 . S
C121 C122 1.348 . S
C122 H85 0.929 . S
C122 C121 1.348 . S
C122 C123 1.443 . S
C123 H87 0.932 . S
C123 C118 1.388 . S
C123 C122 1.443 . S
H124 C151 0.929 . S
N125 C150 1.433 . S
N125 C156 1.435 . S
N125 C162 1.423 . S
H126 C152 0.930 . S
H127 C155 0.931 . S
H128 C154 0.929 . S
H129 C157 0.930 . S
H130 C158 0.932 . S
H131 C161 0.929 . S
H132 C160 0.931 . S
H133 C163 0.929 . S
H134 C167 0.932 . S
H135 C164 0.931 . S
H136 C166 0.929 . S
H137 C169 0.929 . S
H138 C170 0.930 . S
H139 C172 0.929 . S
H140 C173 0.931 . S
H141 C175 0.930 . S
H142 C176 0.932 . S
H143 C178 0.931 . S
H144 C179 0.929 . S
H145 C181 0.929 . S
H146 C182 0.931 . S
H147 C184 0.929 . S
N148 C168 1.433 . S
N148 C174 1.435 . S
N148 C180 1.423 . S
H149 C185 0.932 . S
C150 N125 1.433 . S
C150 C151 1.363 . S
C150 C155 1.370 . S
C151 H124 0.929 . S
C151 C150 1.363 . S
C151 C152 1.385 . S
C152 H126 0.930 . S
C152 C151 1.385 . S
C152 C153 1.357 . S
C153 C152 1.357 . S
C153 C154 1.406 . S
C154 H128 0.929 . S
C154 C153 1.406 . S
C154 C155 1.391 . S
C155 H127 0.931 . S
C155 C150 1.370 . S
C155 C154 1.391 . S
C156 N125 1.435 . S
C156 C157 1.358 . S
C156 C161 1.371 . S
C157 H129 0.930 . S
C157 C156 1.358 . S
C157 C158 1.405 . S
C158 H130 0.932 . S
C158 C157 1.405 . S
C158 C159 1.383 . S
C159 C158 1.383 . S
C159 C160 1.393 . S
C160 H132 0.931 . S
C160 C159 1.393 . S
C160 C161 1.382 . S
C161 H131 0.929 . S
C161 C156 1.371 . S
C161 C160 1.382 . S
C162 N125 1.423 . S
C162 C163 1.362 . S
C162 C167 1.388 . S
C163 H133 0.929 . S
C163 C162 1.362 . S
C163 C164 1.376 . S
C164 H135 0.931 . S
C164 C163 1.376 . S
C164 C165 1.396 . S
C165 C164 1.396 . S
C165 C166 1.348 . S
C165 C183 1.472 . S
C166 H136 0.929 . S
C166 C165 1.348 . S
C166 C167 1.443 . S
C167 H134 0.932 . S
C167 C162 1.388 . S
C167 C166 1.443 . S
C168 N148 1.433 . S
C168 C169 1.363 . S
C168 C173 1.370 . S
C169 H137 0.929 . S
C169 C168 1.363 . S
C169 C170 1.385 . S
C170 H138 0.930 . S
C170 C169 1.385 . S
C170 C171 1.357 . S
C171 C170 1.357 . S
C171 C172 1.406 . S
C172 H139 0.929 . S
C172 C171 1.406 . S
C172 C173 1.391 . S
C173 H140 0.931 . S
C173 C168 1.370 . S
C173 C172 1.391 . S
C174 N148 1.435 . S
C174 C175 1.358 . S
C174 C179 1.371 . S
C175 H141 0.930 . S
C175 C174 1.358 . S
C175 C176 1.405 . S
C176 H142 0.932 . S
C176 C175 1.405 . S
C176 C177 1.383 . S
C177 C176 1.383 . S
C177 C178 1.393 . S
C178 H143 0.931 . S
C178 C177 1.393 . S
C178 C179 1.382 . S
C179 H144 0.929 . S
C179 C174 1.371 . S
C179 C178 1.382 . S
C180 N148 1.423 . S
C180 C181 1.362 . S
C180 C185 1.388 . S
C181 H145 0.929 . S
C181 C180 1.362 . S
C181 C182 1.376 . S
C182 H146 0.931 . S
C182 C181 1.376 . S
C182 C183 1.396 . S
C183 C165 1.472 . S
C183 C182 1.396 . S
C183 C184 1.348 . S
C184 H147 0.929 . S
C184 C183 1.348 . S
C184 C185 1.443 . S
C185 H149 0.932 . S
C185 C180 1.388 . S
C185 C184 1.443 . S
H186 C213 0.929 . S
N187 C212 1.433 . S
N187 C218 1.435 . S
N187 C224 1.423 . S
H188 C214 0.930 . S
H189 C217 0.931 . S
H190 C216 0.929 . S
H191 C219 0.930 . S
H192 C220 0.932 . S
H193 C223 0.929 . S
H194 C222 0.931 . S
H195 C225 0.929 . S
H196 C229 0.932 . S
H197 C226 0.931 . S
H198 C228 0.929 . S
H199 C231 0.929 . S
H200 C232 0.930 . S
H201 C234 0.929 . S
H202 C235 0.931 . S
H203 C237 0.930 . S
H204 C238 0.932 . S
H205 C240 0.931 . S
H206 C241 0.929 . S
H207 C243 0.929 . S
H208 C244 0.931 . S
H209 C246 0.929 . S
N210 C230 1.433 . S
N210 C236 1.435 . S
N210 C242 1.423 . S
H211 C247 0.932 . S
C212 N187 1.433 . S
C212 C213 1.363 . S
C212 C217 1.370 . S
C213 H186 0.929 . S
C213 C212 1.363 . S
C213 C214 1.385 . S
C214 H188 0.930 . S
C214 C213 1.385 . S
C214 C215 1.357 . S
C215 C214 1.357 . S
C215 C216 1.406 . S
C216 H190 0.929 . S
C216 C215 1.406 . S
C216 C217 1.391 . S
C217 H189 0.931 . S
C217 C212 1.370 . S
C217 C216 1.391 . S
C218 N187 1.435 . S
C218 C219 1.358 . S
C218 C223 1.371 . S
C219 H191 0.930 . S
C219 C218 1.358 . S
C219 C220 1.405 . S
C220 H192 0.932 . S
C220 C219 1.405 . S
C220 C221 1.383 . S
C221 C220 1.383 . S
C221 C222 1.393 . S
C222 H194 0.931 . S
C222 C221 1.393 . S
C222 C223 1.382 . S
C223 H193 0.929 . S
C223 C218 1.371 . S
C223 C222 1.382 . S
C224 N187 1.423 . S
C224 C225 1.362 . S
C224 C229 1.388 . S
C225 H195 0.929 . S
C225 C224 1.362 . S
C225 C226 1.376 . S
C226 H197 0.931 . S
C226 C225 1.376 . S
C226 C227 1.396 . S
C227 C226 1.396 . S
C227 C228 1.348 . S
C227 C245 1.472 . S
C228 H198 0.929 . S
C228 C227 1.348 . S
C228 C229 1.443 . S
C229 H196 0.932 . S
C229 C224 1.388 . S
C229 C228 1.443 . S
C230 N210 1.433 . S
C230 C231 1.363 . S
C230 C235 1.370 . S
C231 H199 0.929 . S
C231 C230 1.363 . S
C231 C232 1.385 . S
C232 H200 0.930 . S
C232 C231 1.385 . S
C232 C233 1.357 . S
C233 C232 1.357 . S
C233 C234 1.406 . S
C234 H201 0.929 . S
C234 C233 1.406 . S
C234 C235 1.391 . S
C235 H202 0.931 . S
C235 C230 1.370 . S
C235 C234 1.391 . S
C236 N210 1.435 . S
C236 C237 1.358 . S
C236 C241 1.371 . S
C237 H203 0.930 . S
C237 C236 1.358 . S
C237 C238 1.405 . S
C238 H204 0.932 . S
C238 C237 1.405 . S
C238 C239 1.383 . S
C239 C238 1.383 . S
C239 C240 1.393 . S
C240 H205 0.931 . S
C240 C239 1.393 . S
C240 C241 1.382 . S
C241 H206 0.929 . S
C241 C236 1.371 . S
C241 C240 1.382 . S
C242 N210 1.423 . S
C242 C243 1.362 . S
C242 C247 1.388 . S
C243 H207 0.929 . S
C243 C242 1.362 . S
C243 C244 1.376 . S
C244 H208 0.931 . S
C244 C243 1.376 . S
C244 C245 1.396 . S
C245 C227 1.472 . S
C245 C244 1.396 . S
C245 C246 1.348 . S
C246 H209 0.929 . S
C246 C245 1.348 . S
C246 C247 1.443 . S
C247 H211 0.932 . S
C247 C242 1.388 . S
C247 C246 1.443 . S
H248 C275 0.929 . S
N249 C274 1.433 . S
N249 C280 1.435 . S
N249 C286 1.423 . S
H250 C276 0.930 . S
H251 C279 0.931 . S
H252 C278 0.929 . S
H253 C281 0.930 . S
H254 C282 0.932 . S
H255 C285 0.929 . S
H256 C284 0.931 . S
H257 C287 0.929 . S
H258 C291 0.932 . S
H259 C288 0.931 . S
H260 C290 0.929 . S
H261 C293 0.929 . S
H262 C294 0.930 . S
H263 C296 0.929 . S
H264 C297 0.931 . S
H265 C299 0.930 . S
H266 C300 0.932 . S
H267 C302 0.931 . S
H268 C303 0.929 . S
H269 C305 0.929 . S
H270 C306 0.931 . S
H271 C308 0.929 . S
N272 C292 1.433 . S
N272 C298 1.435 . S
N272 C304 1.423 . S
H273 C309 0.932 . S
C274 N249 1.433 . S
C274 C275 1.363 . S
C274 C279 1.370 . S
C275 H248 0.929 . S
C275 C274 1.363 . S
C275 C276 1.385 . S
C276 H250 0.930 . S
C276 C275 1.385 . S
C276 C277 1.357 . S
C277 C276 1.357 . S
C277 C278 1.406 . S
C278 H252 0.929 . S
C278 C277 1.406 . S
C278 C279 1.391 . S
C279 H251 0.931 . S
C279 C274 1.370 . S
C279 C278 1.391 . S
C280 N249 1.435 . S
C280 C281 1.358 . S
C280 C285 1.371 . S
C281 H253 0.930 . S
C281 C280 1.358 . S
C281 C282 1.405 . S
C282 H254 0.932 . S
C282 C281 1.405 . S
C282 C283 1.383 . S
C283 C282 1.383 . S
C283 C284 1.393 . S
C284 H256 0.931 . S
C284 C283 1.393 . S
C284 C285 1.382 . S
C285 H255 0.929 . S
C285 C280 1.371 . S
C285 C284 1.382 . S
C286 N249 1.423 . S
C286 C287 1.362 . S
C286 C291 1.388 . S
C287 H257 0.929 . S
C287 C286 1.362 . S
C287 C288 1.376 . S
C288 H259 0.931 . S
C288 C287 1.376 . S
C288 C289 1.396 . S
C289 C288 1.396 . S
C289 C290 1.348 . S
C289 C307 1.472 . S
C290 H260 0.929 . S
C290 C289 1.348 . S
C290 C291 1.443 . S
C291 H258 0.932 . S
C291 C286 1.388 . S
C291 C290 1.443 . S
C292 N272 1.433 . S
C292 C293 1.363 . S
C292 C297 1.370 . S
C293 H261 0.929 . S
C293 C292 1.363 . S
C293 C294 1.385 . S
C294 H262 0.930 . S
C294 C293 1.385 . S
C294 C295 1.357 . S
C295 C294 1.357 . S
C295 C296 1.406 . S
C296 H263 0.929 . S
C296 C295 1.406 . S
C296 C297 1.391 . S
C297 H264 0.931 . S
C297 C292 1.370 . S
C297 C296 1.391 . S
C298 N272 1.435 . S
C298 C299 1.358 . S
C298 C303 1.371 . S
C299 H265 0.930 . S
C299 C298 1.358 . S
C299 C300 1.405 . S
C300 H266 0.932 . S
C300 C299 1.405 . S
C300 C301 1.383 . S
C301 C300 1.383 . S
C301 C302 1.393 . S
C302 H267 0.931 . S
C302 C301 1.393 . S
C302 C303 1.382 . S
C303 H268 0.929 . S
C303 C298 1.371 . S
C303 C302 1.382 . S
C304 N272 1.423 . S
C304 C305 1.362 . S
C304 C309 1.388 . S
C305 H269 0.929 . S
C305 C304 1.362 . S
C305 C306 1.376 . S
C306 H270 0.931 . S
C306 C305 1.376 . S
C306 C307 1.396 . S
C307 C289 1.472 . S
C307 C306 1.396 . S
C307 C308 1.348 . S
C308 H271 0.929 . S
C308 C307 1.348 . S
C308 C309 1.443 . S
C309 H273 0.932 . S
C309 C304 1.388 . S
C309 C308 1.443 . S
H310 C337 0.929 . S
N311 C336 1.433 . S
N311 C342 1.435 . S
N311 C348 1.423 . S
H312 C338 0.930 . S
H313 C341 0.931 . S
H314 C340 0.929 . S
H315 C343 0.930 . S
H316 C344 0.932 . S
H317 C347 0.929 . S
H318 C346 0.931 . S
H319 C349 0.929 . S
H320 C353 0.932 . S
H321 C350 0.931 . S
H322 C352 0.929 . S
H323 C355 0.929 . S
H324 C356 0.930 . S
H325 C358 0.929 . S
H326 C359 0.931 . S
H327 C361 0.930 . S
H328 C362 0.932 . S
H329 C364 0.931 . S
H330 C365 0.929 . S
H331 C367 0.929 . S
H332 C368 0.931 . S
H333 C370 0.929 . S
N334 C354 1.433 . S
N334 C360 1.435 . S
N334 C366 1.423 . S
H335 C371 0.932 . S
C336 N311 1.433 . S
C336 C337 1.363 . S
C336 C341 1.370 . S
C337 H310 0.929 . S
C337 C336 1.363 . S
C337 C338 1.385 . S
C338 H312 0.930 . S
C338 C337 1.385 . S
C338 C339 1.357 . S
C339 C338 1.357 . S
C339 C340 1.406 . S
C340 H314 0.929 . S
C340 C339 1.406 . S
C340 C341 1.391 . S
C341 H313 0.931 . S
C341 C336 1.370 . S
C341 C340 1.391 . S
C342 N311 1.435 . S
C342 C343 1.358 . S
C342 C347 1.371 . S
C343 H315 0.930 . S
C343 C342 1.358 . S
C343 C344 1.405 . S
C344 H316 0.932 . S
C344 C343 1.405 . S
C344 C345 1.383 . S
C345 C344 1.383 . S
C345 C346 1.393 . S
C346 H318 0.931 . S
C346 C345 1.393 . S
C346 C347 1.382 . S
C347 H317 0.929 . S
C347 C342 1.371 . S
C347 C346 1.382 . S
C348 N311 1.423 . S
C348 C349 1.362 . S
C348 C353 1.388 . S
C349 H319 0.929 . S
C349 C348 1.362 . S
C349 C350 1.376 . S
C350 H321 0.931 . S
C350 C349 1.376 . S
C350 C351 1.396 . S
C351 C350 1.396 . S
C351 C352 1.348 . S
C351 C369 1.472 . S
C352 H322 0.929 . S
C352 C351 1.348 . S
C352 C353 1.443 . S
C353 H320 0.932 . S
C353 C348 1.388 . S
C353 C352 1.443 . S
C354 N334 1.433 . S
C354 C355 1.363 . S
C354 C359 1.370 . S
C355 H323 0.929 . S
C355 C354 1.363 . S
C355 C356 1.385 . S
C356 H324 0.930 . S
C356 C355 1.385 . S
C356 C357 1.357 . S
C357 C356 1.357 . S
C357 C358 1.406 . S
C358 H325 0.929 . S
C358 C357 1.406 . S
C358 C359 1.391 . S
C359 H326 0.931 . S
C359 C354 1.370 . S
C359 C358 1.391 . S
C360 N334 1.435 . S
C360 C361 1.358 . S
C360 C365 1.371 . S
C361 H327 0.930 . S
C361 C360 1.358 . S
C361 C362 1.405 . S
C362 H328 0.932 . S
C362 C361 1.405 . S
C362 C363 1.383 . S
C363 C362 1.383 . S
C363 C364 1.393 . S
C364 H329 0.931 . S
C364 C363 1.393 . S
C364 C365 1.382 . S
C365 H330 0.929 . S
C365 C360 1.371 . S
C365 C364 1.382 . S
C366 N334 1.423 . S
C366 C367 1.362 . S
C366 C371 1.388 . S
C367 H331 0.929 . S
C367 C366 1.362 . S
C367 C368 1.376 . S
C368 H332 0.931 . S
C368 C367 1.376 . S
C368 C369 1.396 . S
C369 C351 1.472 . S
C369 C368 1.396 . S
C369 C370 1.348 . S
C370 H333 0.929 . S
C370 C369 1.348 . S
C370 C371 1.443 . S
C371 H335 0.932 . S
C371 C366 1.388 . S
C371 C370 1.443 . S
H372 C399 0.929 . S
N373 C398 1.433 . S
N373 C404 1.435 . S
N373 C410 1.423 . S
H374 C400 0.930 . S
H375 C403 0.931 . S
H376 C402 0.929 . S
H377 C405 0.930 . S
H378 C406 0.932 . S
H379 C409 0.929 . S
H380 C408 0.931 . S
H381 C411 0.929 . S
H382 C415 0.932 . S
H383 C412 0.931 . S
H384 C414 0.929 . S
H385 C417 0.929 . S
H386 C418 0.930 . S
H387 C420 0.929 . S
H388 C421 0.931 . S
H389 C423 0.930 . S
H390 C424 0.932 . S
H391 C426 0.931 . S
H392 C427 0.929 . S
H393 C429 0.929 . S
H394 C430 0.931 . S
H395 C432 0.929 . S
N396 C416 1.433 . S
N396 C422 1.435 . S
N396 C428 1.423 . S
H397 C433 0.932 . S
C398 N373 1.433 . S
C398 C399 1.363 . S
C398 C403 1.370 . S
C399 H372 0.929 . S
C399 C398 1.363 . S
C399 C400 1.385 . S
C400 H374 0.930 . S
C400 C399 1.385 . S
C400 C401 1.357 . S
C401 C400 1.357 . S
C401 C402 1.406 . S
C402 H376 0.929 . S
C402 C401 1.406 . S
C402 C403 1.391 . S
C403 H375 0.931 . S
C403 C398 1.370 . S
C403 C402 1.391 . S
C404 N373 1.435 . S
C404 C405 1.358 . S
C404 C409 1.371 . S
C405 H377 0.930 . S
C405 C404 1.358 . S
C405 C406 1.405 . S
C406 H378 0.932 . S
C406 C405 1.405 . S
C406 C407 1.383 . S
C407 C406 1.383 . S
C407 C408 1.393 . S
C408 H380 0.931 . S
C408 C407 1.393 . S
C408 C409 1.382 . S
C409 H379 0.929 . S
C409 C404 1.371 . S
C409 C408 1.382 . S
C410 N373 1.423 . S
C410 C411 1.362 . S
C410 C415 1.388 . S
C411 H381 0.929 . S
C411 C410 1.362 . S
C411 C412 1.376 . S
C412 H383 0.931 . S
C412 C411 1.376 . S
C412 C413 1.396 . S
C413 C412 1.396 . S
C413 C414 1.348 . S
C413 C431 1.472 . S
C414 H384 0.929 . S
C414 C413 1.348 . S
C414 C415 1.443 . S
C415 H382 0.932 . S
C415 C410 1.388 . S
C415 C414 1.443 . S
C416 N396 1.433 . S
C416 C417 1.363 . S
C416 C421 1.370 . S
C417 H385 0.929 . S
C417 C416 1.363 . S
C417 C418 1.385 . S
C418 H386 0.930 . S
C418 C417 1.385 . S
C418 C419 1.357 . S
C419 C418 1.357 . S
C419 C420 1.406 . S
C420 H387 0.929 . S
C420 C419 1.406 . S
C420 C421 1.391 . S
C421 H388 0.931 . S
C421 C416 1.370 . S
C421 C420 1.391 . S
C422 N396 1.435 . S
C422 C423 1.358 . S
C422 C427 1.371 . S
C423 H389 0.930 . S
C423 C422 1.358 . S
C423 C424 1.405 . S
C424 H390 0.932 . S
C424 C423 1.405 . S
C424 C425 1.383 . S
C425 C424 1.383 . S
C425 C426 1.393 . S
C426 H391 0.931 . S
C426 C425 1.393 . S
C426 C427 1.382 . S
C427 H392 0.929 . S
C427 C422 1.371 . S
C427 C426 1.382 . S
C428 N396 1.423 . S
C428 C429 1.362 . S
C428 C433 1.388 . S
C429 H393 0.929 . S
C429 C428 1.362 . S
C429 C430 1.376 . S
C430 H394 0.931 . S
C430 C429 1.376 . S
C430 C431 1.396 . S
C431 C413 1.472 . S
C431 C430 1.396 . S
C431 C432 1.348 . S
C432 H395 0.929 . S
C432 C431 1.348 . S
C432 C433 1.443 . S
C433 H397 0.932 . S
C433 C428 1.388 . S
C433 C432 1.443 . S
H434 C461 0.929 . S
N435 C460 1.433 . S
N435 C466 1.435 . S
N435 C472 1.423 . S
H436 C462 0.930 . S
H437 C465 0.931 . S
H438 C464 0.929 . S
H439 C467 0.930 . S
H440 C468 0.932 . S
H441 C471 0.929 . S
H442 C470 0.931 . S
H443 C473 0.929 . S
H444 C477 0.932 . S
H445 C474 0.931 . S
H446 C476 0.929 . S
H447 C479 0.929 . S
H448 C480 0.930 . S
H449 C482 0.929 . S
H450 C483 0.931 . S
H451 C485 0.930 . S
H452 C486 0.932 . S
H453 C488 0.931 . S
H454 C489 0.929 . S
H455 C491 0.929 . S
H456 C492 0.931 . S
H457 C494 0.929 . S
N458 C478 1.433 . S
N458 C484 1.435 . S
N458 C490 1.423 . S
H459 C495 0.932 . S
C460 N435 1.433 . S
C460 C461 1.363 . S
C460 C465 1.370 . S
C461 H434 0.929 . S
C461 C460 1.363 . S
C461 C462 1.385 . S
C462 H436 0.930 . S
C462 C461 1.385 . S
C462 C463 1.357 . S
C463 C462 1.357 . S
C463 C464 1.406 . S
C464 H438 0.929 . S
C464 C463 1.406 . S
C464 C465 1.391 . S
C465 H437 0.931 . S
C465 C460 1.370 . S
C465 C464 1.391 . S
C466 N435 1.435 . S
C466 C467 1.358 . S
C466 C471 1.371 . S
C467 H439 0.930 . S
C467 C466 1.358 . S
C467 C468 1.405 . S
C468 H440 0.932 . S
C468 C467 1.405 . S
C468 C469 1.383 . S
C469 C468 1.383 . S
C469 C470 1.393 . S
C470 H442 0.931 . S
C470 C469 1.393 . S
C470 C471 1.382 . S
C471 H441 0.929 . S
C471 C466 1.371 . S
C471 C470 1.382 . S
C472 N435 1.423 . S
C472 C473 1.362 . S
C472 C477 1.388 . S
C473 H443 0.929 . S
C473 C472 1.362 . S
C473 C474 1.376 . S
C474 H445 0.931 . S
C474 C473 1.376 . S
C474 C475 1.396 . S
C475 C474 1.396 . S
C475 C476 1.348 . S
C475 C493 1.472 . S
C476 H446 0.929 . S
C476 C475 1.348 . S
C476 C477 1.443 . S
C477 H444 0.932 . S
C477 C472 1.388 . S
C477 C476 1.443 . S
C478 N458 1.433 . S
C478 C479 1.363 . S
C478 C483 1.370 . S
C479 H447 0.929 . S
C479 C478 1.363 . S
C479 C480 1.385 . S
C480 H448 0.930 . S
C480 C479 1.385 . S
C480 C481 1.357 . S
C481 C480 1.357 . S
C481 C482 1.406 . S
C482 H449 0.929 . S
C482 C481 1.406 . S
C482 C483 1.391 . S
C483 H450 0.931 . S
C483 C478 1.370 . S
C483 C482 1.391 . S
C484 N458 1.435 . S
C484 C485 1.358 . S
C484 C489 1.371 . S
C485 H451 0.930 . S
C485 C484 1.358 . S
C485 C486 1.405 . S
C486 H452 0.932 . S
C486 C485 1.405 . S
C486 C487 1.383 . S
C487 C486 1.383 . S
C487 C488 1.393 . S
C488 H453 0.931 . S
C488 C487 1.393 . S
C488 C489 1.382 . S
C489 H454 0.929 . S
C489 C484 1.371 . S
C489 C488 1.382 . S
C490 N458 1.423 . S
C490 C491 1.362 . S
C490 C495 1.388 . S
C491 H455 0.929 . S
C491 C490 1.362 . S
C491 C492 1.376 . S
C492 H456 0.931 . S
C492 C491 1.376 . S
C492 C493 1.396 . S
C493 C475 1.472 . S
C493 C492 1.396 . S
C493 C494 1.348 . S
C494 H457 0.929 . S
C494 C493 1.348 . S
C494 C495 1.443 . S
C495 H459 0.932 . S
C495 C490 1.388 . S
C495 C494 1.443 . S
C496 O498 1.247 . S
C496 O500 1.258 . S
C497 O504 1.247 . S
C497 O505 1.258 . S
O498 C496 1.247 . S
O498 Zn499 2.028 1_655 S
Zn499 O498 2.028 1_455 S
Zn499 O503 2.035 . S
Zn499 O505 2.035 . S
Zn499 O506 2.028 1_455 S
O500 C496 1.258 . S
O500 Zn501 2.035 1_655 S
Zn501 O500 2.035 1_455 S
Zn501 O502 2.028 . S
Zn501 O504 2.028 . S
Zn501 O507 2.035 1_455 S
O502 Zn501 2.028 . S
O502 C508 1.247 . S
O503 Zn499 2.035 . S
O503 C508 1.258 . S
O504 C497 1.247 . S
O504 Zn501 2.028 . S
O505 C497 1.258 . S
O505 Zn499 2.035 . S
O506 Zn499 2.028 1_655 S
O506 C509 1.247 . S
O507 Zn501 2.035 1_655 S
O507 C509 1.258 . S
C508 O502 1.247 . S
C508 O503 1.258 . S
C509 O506 1.247 . S
C509 O507 1.258 . S
C510 O512 1.247 . S
C510 O514 1.258 . S
C511 O518 1.247 . S
C511 O519 1.258 . S
O512 C510 1.247 . S
O512 Zn513 2.028 . S
Zn513 O512 2.028 . S
Zn513 O517 2.035 1_545 S
Zn513 O519 2.035 1_545 S
Zn513 O520 2.028 . S
O514 C510 1.258 . S
O514 Zn515 2.035 . S
Zn515 O514 2.035 . S
Zn515 O516 2.028 1_545 S
Zn515 O518 2.028 1_545 S
Zn515 O521 2.035 . S
O516 Zn515 2.028 1_565 S
O516 C522 1.247 . S
O517 Zn513 2.035 1_565 S
O517 C522 1.258 . S
O518 C511 1.247 . S
O518 Zn515 2.028 1_565 S
O519 C511 1.258 . S
O519 Zn513 2.035 1_565 S
O520 Zn513 2.028 . S
O520 C523 1.247 . S
O521 Zn515 2.035 . S
O521 C523 1.258 . S
C522 O516 1.247 . S
C522 O517 1.258 . S
C523 O520 1.247 . S
C523 O521 1.258 . S
C524 O526 1.247 . S
C524 O528 1.258 . S
C525 O532 1.247 . S
C525 O533 1.258 . S
O526 C524 1.247 . S
O526 Zn527 2.028 1_655 S
Zn527 O526 2.028 1_455 S
Zn527 O531 2.035 . S
Zn527 O533 2.035 . S
Zn527 O534 2.028 1_455 S
O528 C524 1.258 . S
O528 Zn529 2.035 1_655 S
Zn529 O528 2.035 1_455 S
Zn529 O530 2.028 . S
Zn529 O532 2.028 . S
Zn529 O535 2.035 1_455 S
O530 Zn529 2.028 . S
O530 C536 1.247 . S
O531 Zn527 2.035 . S
O531 C536 1.258 . S
O532 C525 1.247 . S
O532 Zn529 2.028 . S
O533 C525 1.258 . S
O533 Zn527 2.035 . S
O534 Zn527 2.028 1_655 S
O534 C537 1.247 . S
O535 Zn529 2.035 1_655 S
O535 C537 1.258 . S
C536 O530 1.247 . S
C536 O531 1.258 . S
C537 O534 1.247 . S
C537 O535 1.258 . S
C538 O540 1.247 . S
C538 O542 1.258 . S
C539 O546 1.247 . S
C539 O547 1.258 . S
O540 C538 1.247 . S
O540 Zn541 2.028 . S
Zn541 O540 2.028 . S
Zn541 O545 2.035 1_545 S
Zn541 O547 2.035 1_545 S
Zn541 O548 2.028 . S
O542 C538 1.258 . S
O542 Zn543 2.035 . S
Zn543 O542 2.035 . S
Zn543 O544 2.028 1_545 S
Zn543 O546 2.028 1_545 S
Zn543 O549 2.035 . S
O544 Zn543 2.028 1_565 S
O544 C550 1.247 . S
O545 Zn541 2.035 1_565 S
O545 C550 1.258 . S
O546 C539 1.247 . S
O546 Zn543 2.028 1_565 S
O547 C539 1.258 . S
O547 Zn541 2.035 1_565 S
O548 Zn541 2.028 . S
O548 C551 1.247 . S
O549 Zn543 2.035 . S
O549 C551 1.258 . S
C550 O544 1.247 . S
C550 O545 1.258 . S
C551 O548 1.247 . S
C551 O549 1.258 . S
C552 O554 1.247 . S
C552 O556 1.258 . S
C553 O560 1.247 . S
C553 O561 1.258 . S
O554 C552 1.247 . S
O554 Zn555 2.028 . S
Zn555 O554 2.028 . S
Zn555 O559 2.035 . S
Zn555 O561 2.035 1_554 S
Zn555 O562 2.028 1_554 S
O556 C552 1.258 . S
O556 Zn557 2.035 . S
Zn557 O556 2.035 . S
Zn557 O558 2.028 . S
Zn557 O560 2.028 1_554 S
Zn557 O563 2.035 1_554 S
O558 Zn557 2.028 . S
O558 C564 1.247 . S
O559 Zn555 2.035 . S
O559 C564 1.258 . S
O560 C553 1.247 . S
O560 Zn557 2.028 1_556 S
O561 C553 1.258 . S
O561 Zn555 2.035 1_556 S
O562 Zn555 2.028 1_556 S
O562 C565 1.247 . S
O563 Zn557 2.035 1_556 S
O563 C565 1.258 . S
C564 O558 1.247 . S
C564 O559 1.258 . S
C565 O562 1.247 . S
C565 O563 1.258 . S
C566 O568 1.247 . S
C566 O570 1.258 . S
C567 O574 1.247 . S
C567 O575 1.258 . S
O568 C566 1.247 . S
O568 Zn569 2.028 . S
Zn569 O568 2.028 . S
Zn569 O573 2.035 . S
Zn569 O575 2.035 1_554 S
Zn569 O576 2.028 1_554 S
O570 C566 1.258 . S
O570 Zn571 2.035 . S
Zn571 O570 2.035 . S
Zn571 O572 2.028 . S
Zn571 O574 2.028 1_554 S
Zn571 O577 2.035 1_554 S
O572 Zn571 2.028 . S
O572 C578 1.247 . S
O573 Zn569 2.035 . S
O573 C578 1.258 . S
O574 C567 1.247 . S
O574 Zn571 2.028 1_556 S
O575 C567 1.258 . S
O575 Zn569 2.035 1_556 S
O576 Zn569 2.028 1_556 S
O576 C579 1.247 . S
O577 Zn571 2.035 1_556 S
O577 C579 1.258 . S
C578 O572 1.247 . S
C578 O573 1.258 . S
C579 O576 1.247 . S
C579 O577 1.258 . S
C580 O582 1.247 . S
C580 O584 1.258 . S
C581 O588 1.247 . S
C581 O589 1.258 . S
O582 C580 1.247 . S
O582 Zn583 2.028 1_556 S
Zn583 O582 2.028 1_554 S
Zn583 O587 2.035 1_554 S
Zn583 O589 2.035 . S
Zn583 O590 2.028 . S
O584 C580 1.258 . S
O584 Zn585 2.035 1_556 S
Zn585 O584 2.035 1_554 S
Zn585 O586 2.028 1_554 S
Zn585 O588 2.028 . S
Zn585 O591 2.035 . S
O586 Zn585 2.028 1_556 S
O586 C592 1.247 . S
O587 Zn583 2.035 1_556 S
O587 C592 1.258 . S
O588 C581 1.247 . S
O588 Zn585 2.028 . S
O589 C581 1.258 . S
O589 Zn583 2.035 . S
O590 Zn583 2.028 . S
O590 C593 1.247 . S
O591 Zn585 2.035 . S
O591 C593 1.258 . S
C592 O586 1.247 . S
C592 O587 1.258 . S
C593 O590 1.247 . S
C593 O591 1.258 . S
C594 O596 1.247 . S
C594 O598 1.258 . S
C595 O602 1.247 . S
C595 O603 1.258 . S
O596 C594 1.247 . S
O596 Zn597 2.028 . S
Zn597 O596 2.028 . S
Zn597 O601 2.035 . S
Zn597 O603 2.035 1_554 S
Zn597 O604 2.028 1_554 S
O598 C594 1.258 . S
O598 Zn599 2.035 . S
Zn599 O598 2.035 . S
Zn599 O600 2.028 . S
Zn599 O602 2.028 1_554 S
Zn599 O605 2.035 1_554 S
O600 Zn599 2.028 . S
O600 C606 1.247 . S
O601 Zn597 2.035 . S
O601 C606 1.258 . S
O602 C595 1.247 . S
O602 Zn599 2.028 1_556 S
O603 C595 1.258 . S
O603 Zn597 2.035 1_556 S
O604 Zn597 2.028 1_556 S
O604 C607 1.247 . S
O605 Zn599 2.035 1_556 S
O605 C607 1.258 . S
C606 O600 1.247 . S
C606 O601 1.258 . S
C607 O604 1.247 . S
C607 O605 1.258 . S
H608 C616 0.929 . S
H609 C618 0.930 . S
H610 C620 0.930 . S
H611 C623 0.929 . S
H612 C626 0.930 . S
H613 C628 0.960 . S
H614 C628 0.960 . S
H615 C628 0.960 . S
C616 H608 0.929 . S
C616 C617 1.377 . S
C616 C618 1.384 . S
C617 C616 1.377 . S
C617 C623 1.390 . S
C618 H609 0.930 . S
C618 C616 1.384 . S
C618 C619 1.372 . S
C619 C618 1.372 . S
C619 C620 1.400 . S
C619 C624 1.490 . S
C620 H610 0.930 . S
C620 C619 1.400 . S
C620 C623 1.386 . S
H621 C637 0.930 . S
H622 C638 0.931 . S
C623 H611 0.929 . S
C623 C617 1.390 . S
C623 C620 1.386 . S
C624 C619 1.490 . S
C624 C626 1.395 . S
C624 C627 1.403 . S
H625 C631 0.930 . S
C626 H612 0.930 . S
C626 C624 1.395 . S
C626 C629 1.403 . S
C627 C624 1.403 . S
C627 C628 1.524 . S
C627 C631 1.400 . S
C628 H613 0.960 . S
C628 H614 0.960 . S
C628 H615 0.960 . S
C628 C627 1.524 . S
C629 C626 1.403 . S
C629 C630 1.392 . S
C629 C633 1.495 . S
C630 C629 1.392 . S
C630 C631 1.385 . S
C630 C632 1.478 . S
C631 H625 0.930 . S
C631 C627 1.400 . S
C631 C630 1.385 . S
C632 C630 1.478 . S
C632 C634 1.381 . S
C632 C638 1.383 . S
C633 C629 1.495 . S
C633 H639 0.959 . S
C633 H640 0.961 . S
C633 H641 0.960 . S
C634 C632 1.381 . S
C634 C635 1.394 . S
C634 H642 0.930 . S
C635 C634 1.394 . S
C635 C636 1.383 . S
C635 H643 0.929 . S
C636 C635 1.383 . S
C636 C637 1.377 . S
C637 H621 0.930 . S
C637 C636 1.377 . S
C637 C638 1.379 . S
C638 H622 0.931 . S
C638 C632 1.383 . S
C638 C637 1.379 . S
H639 C633 0.959 . S
H640 C633 0.961 . S
H641 C633 0.960 . S
H642 C634 0.930 . S
H643 C635 0.929 . S
H644 C652 0.929 . S
H645 C654 0.930 . S
H646 C656 0.930 . S
H647 C659 0.929 . S
H648 C662 0.930 . S
H649 C664 0.960 . S
H650 C664 0.960 . S
H651 C664 0.960 . S
C652 H644 0.929 . S
C652 C653 1.377 . S
C652 C654 1.384 . S
C653 C652 1.377 . S
C653 C659 1.390 . S
C654 H645 0.930 . S
C654 C652 1.384 . S
C654 C655 1.372 . S
C655 C654 1.372 . S
C655 C656 1.400 . S
C655 C660 1.490 . S
C656 H646 0.930 . S
C656 C655 1.400 . S
C656 C659 1.386 . S
H657 C673 0.930 . S
H658 C674 0.931 . S
C659 H647 0.929 . S
C659 C653 1.390 . S
C659 C656 1.386 . S
C660 C655 1.490 . S
C660 C662 1.395 . S
C660 C663 1.403 . S
H661 C667 0.930 . S
C662 H648 0.930 . S
C662 C660 1.395 . S
C662 C665 1.403 . S
C663 C660 1.403 . S
C663 C664 1.524 . S
C663 C667 1.400 . S
C664 H649 0.960 . S
C664 H650 0.960 . S
C664 H651 0.960 . S
C664 C663 1.524 . S
C665 C662 1.403 . S
C665 C666 1.392 . S
C665 C669 1.495 . S
C666 C665 1.392 . S
C666 C667 1.385 . S
C666 C668 1.478 . S
C667 H661 0.930 . S
C667 C663 1.400 . S
C667 C666 1.385 . S
C668 C666 1.478 . S
C668 C670 1.381 . S
C668 C674 1.383 . S
C669 C665 1.495 . S
C669 H675 0.959 . S
C669 H676 0.961 . S
C669 H677 0.960 . S
C670 C668 1.381 . S
C670 C671 1.394 . S
C670 H678 0.930 . S
C671 C670 1.394 . S
C671 C672 1.383 . S
C671 H679 0.929 . S
C672 C671 1.383 . S
C672 C673 1.377 . S
C673 H657 0.930 . S
C673 C672 1.377 . S
C673 C674 1.379 . S
C674 H658 0.931 . S
C674 C668 1.383 . S
C674 C673 1.379 . S
H675 C669 0.959 . S
H676 C669 0.961 . S
H677 C669 0.960 . S
H678 C670 0.930 . S
H679 C671 0.929 . S
H680 C688 0.929 . S
H681 C690 0.930 . S
H682 C692 0.930 . S
H683 C695 0.929 . S
H684 C698 0.930 . S
H685 C700 0.960 . S
H686 C700 0.960 . S
H687 C700 0.960 . S
C688 H680 0.929 . S
C688 C689 1.377 . S
C688 C690 1.384 . S
C689 C688 1.377 . S
C689 C695 1.390 . S
C690 H681 0.930 . S
C690 C688 1.384 . S
C690 C691 1.372 . S
C691 C690 1.372 . S
C691 C692 1.400 . S
C691 C696 1.490 . S
C692 H682 0.930 . S
C692 C691 1.400 . S
C692 C695 1.386 . S
H693 C709 0.930 . S
H694 C710 0.931 . S
C695 H683 0.929 . S
C695 C689 1.390 . S
C695 C692 1.386 . S
C696 C691 1.490 . S
C696 C698 1.395 . S
C696 C699 1.403 . S
H697 C703 0.930 . S
C698 H684 0.930 . S
C698 C696 1.395 . S
C698 C701 1.403 . S
C699 C696 1.403 . S
C699 C700 1.524 . S
C699 C703 1.400 . S
C700 H685 0.960 . S
C700 H686 0.960 . S
C700 H687 0.960 . S
C700 C699 1.524 . S
C701 C698 1.403 . S
C701 C702 1.392 . S
C701 C705 1.495 . S
C702 C701 1.392 . S
C702 C703 1.385 . S
C702 C704 1.478 . S
C703 H697 0.930 . S
C703 C699 1.400 . S
C703 C702 1.385 . S
C704 C702 1.478 . S
C704 C706 1.381 . S
C704 C710 1.383 . S
C705 C701 1.495 . S
C705 H711 0.959 . S
C705 H712 0.961 . S
C705 H713 0.960 . S
C706 C704 1.381 . S
C706 C707 1.394 . S
C706 H714 0.930 . S
C707 C706 1.394 . S
C707 C708 1.383 . S
C707 H715 0.929 . S
C708 C707 1.383 . S
C708 C709 1.377 . S
C709 H693 0.930 . S
C709 C708 1.377 . S
C709 C710 1.379 . S
C710 H694 0.931 . S
C710 C704 1.383 . S
C710 C709 1.379 . S
H711 C705 0.959 . S
H712 C705 0.961 . S
H713 C705 0.960 . S
H714 C706 0.930 . S
H715 C707 0.929 . S
H716 C724 0.929 . S
H717 C726 0.930 . S
H718 C728 0.930 . S
H719 C731 0.929 . S
H720 C734 0.930 . S
H721 C736 0.960 . S
H722 C736 0.960 . S
H723 C736 0.960 . S
C724 H716 0.929 . S
C724 C725 1.377 . S
C724 C726 1.384 . S
C725 C724 1.377 . S
C725 C731 1.390 . S
C726 H717 0.930 . S
C726 C724 1.384 . S
C726 C727 1.372 . S
C727 C726 1.372 . S
C727 C728 1.400 . S
C727 C732 1.490 . S
C728 H718 0.930 . S
C728 C727 1.400 . S
C728 C731 1.386 . S
H729 C745 0.930 . S
H730 C746 0.931 . S
C731 H719 0.929 . S
C731 C725 1.390 . S
C731 C728 1.386 . S
C732 C727 1.490 . S
C732 C734 1.395 . S
C732 C735 1.403 . S
H733 C739 0.930 . S
C734 H720 0.930 . S
C734 C732 1.395 . S
C734 C737 1.403 . S
C735 C732 1.403 . S
C735 C736 1.524 . S
C735 C739 1.400 . S
C736 H721 0.960 . S
C736 H722 0.960 . S
C736 H723 0.960 . S
C736 C735 1.524 . S
C737 C734 1.403 . S
C737 C738 1.392 . S
C737 C741 1.495 . S
C738 C737 1.392 . S
C738 C739 1.385 . S
C738 C740 1.478 . S
C739 H733 0.930 . S
C739 C735 1.400 . S
C739 C738 1.385 . S
C740 C738 1.478 . S
C740 C742 1.381 . S
C740 C746 1.383 . S
C741 C737 1.495 . S
C741 H747 0.959 . S
C741 H748 0.961 . S
C741 H749 0.960 . S
C742 C740 1.381 . S
C742 C743 1.394 . S
C742 H750 0.930 . S
C743 C742 1.394 . S
C743 C744 1.383 . S
C743 H751 0.929 . S
C744 C743 1.383 . S
C744 C745 1.377 . S
C745 H729 0.930 . S
C745 C744 1.377 . S
C745 C746 1.379 . S
C746 H730 0.931 . S
C746 C740 1.383 . S
C746 C745 1.379 . S
H747 C741 0.959 . S
H748 C741 0.961 . S
H749 C741 0.960 . S
H750 C742 0.930 . S
H751 C743 0.929 . S
H752 C760 0.929 . S
H753 C762 0.930 . S
H754 C764 0.930 . S
H755 C767 0.929 . S
H756 C770 0.930 . S
H757 C772 0.960 . S
H758 C772 0.960 . S
H759 C772 0.960 . S
C760 H752 0.929 . S
C760 C761 1.377 . S
C760 C762 1.384 . S
C761 C760 1.377 . S
C761 C767 1.390 . S
C762 H753 0.930 . S
C762 C760 1.384 . S
C762 C763 1.372 . S
C763 C762 1.372 . S
C763 C764 1.400 . S
C763 C768 1.490 . S
C764 H754 0.930 . S
C764 C763 1.400 . S
C764 C767 1.386 . S
H765 C781 0.930 . S
H766 C782 0.931 . S
C767 H755 0.929 . S
C767 C761 1.390 . S
C767 C764 1.386 . S
C768 C763 1.490 . S
C768 C770 1.395 . S
C768 C771 1.403 . S
H769 C775 0.930 . S
C770 H756 0.930 . S
C770 C768 1.395 . S
C770 C773 1.403 . S
C771 C768 1.403 . S
C771 C772 1.524 . S
C771 C775 1.400 . S
C772 H757 0.960 . S
C772 H758 0.960 . S
C772 H759 0.960 . S
C772 C771 1.524 . S
C773 C770 1.403 . S
C773 C774 1.392 . S
C773 C777 1.495 . S
C774 C773 1.392 . S
C774 C775 1.385 . S
C774 C776 1.478 . S
C775 H769 0.930 . S
C775 C771 1.400 . S
C775 C774 1.385 . S
C776 C774 1.478 . S
C776 C778 1.381 . S
C776 C782 1.383 . S
C777 C773 1.495 . S
C777 H783 0.959 . S
C777 H784 0.961 . S
C777 H785 0.960 . S
C778 C776 1.381 . S
C778 C779 1.394 . S
C778 H786 0.930 . S
C779 C778 1.394 . S
C779 C780 1.383 . S
C779 H787 0.929 . S
C780 C779 1.383 . S
C780 C781 1.377 . S
C781 H765 0.930 . S
C781 C780 1.377 . S
C781 C782 1.379 . S
C782 H766 0.931 . S
C782 C776 1.383 . S
C782 C781 1.379 . S
H783 C777 0.959 . S
H784 C777 0.961 . S
H785 C777 0.960 . S
H786 C778 0.930 . S
H787 C779 0.929 . S
H788 C796 0.929 . S
H789 C798 0.930 . S
H790 C800 0.930 . S
H791 C803 0.929 . S
H792 C806 0.930 . S
H793 C808 0.960 . S
H794 C808 0.960 . S
H795 C808 0.960 . S
C796 H788 0.929 . S
C796 C797 1.377 . S
C796 C798 1.384 . S
C797 C796 1.377 . S
C797 C803 1.390 . S
C798 H789 0.930 . S
C798 C796 1.384 . S
C798 C799 1.372 . S
C799 C798 1.372 . S
C799 C800 1.400 . S
C799 C804 1.490 . S
C800 H790 0.930 . S
C800 C799 1.400 . S
C800 C803 1.386 . S
H801 C817 0.930 . S
H802 C818 0.931 . S
C803 H791 0.929 . S
C803 C797 1.390 . S
C803 C800 1.386 . S
C804 C799 1.490 . S
C804 C806 1.395 . S
C804 C807 1.403 . S
H805 C811 0.930 . S
C806 H792 0.930 . S
C806 C804 1.395 . S
C806 C809 1.403 . S
C807 C804 1.403 . S
C807 C808 1.524 . S
C807 C811 1.400 . S
C808 H793 0.960 . S
C808 H794 0.960 . S
C808 H795 0.960 . S
C808 C807 1.524 . S
C809 C806 1.403 . S
C809 C810 1.392 . S
C809 C813 1.495 . S
C810 C809 1.392 . S
C810 C811 1.385 . S
C810 C812 1.478 . S
C811 H805 0.930 . S
C811 C807 1.400 . S
C811 C810 1.385 . S
C812 C810 1.478 . S
C812 C814 1.381 . S
C812 C818 1.383 . S
C813 C809 1.495 . S
C813 H819 0.959 . S
C813 H820 0.961 . S
C813 H821 0.960 . S
C814 C812 1.381 . S
C814 C815 1.394 . S
C814 H822 0.930 . S
C815 C814 1.394 . S
C815 C816 1.383 . S
C815 H823 0.929 . S
C816 C815 1.383 . S
C816 C817 1.377 . S
C817 H801 0.930 . S
C817 C816 1.377 . S
C817 C818 1.379 . S
C818 H802 0.931 . S
C818 C812 1.383 . S
C818 C817 1.379 . S
H819 C813 0.959 . S
H820 C813 0.961 . S
H821 C813 0.960 . S
H822 C814 0.930 . S
H823 C815 0.929 . S
H824 C832 0.929 . S
H825 C834 0.930 . S
H826 C836 0.930 . S
H827 C839 0.929 . S
H828 C842 0.930 . S
H829 C844 0.960 . S
H830 C844 0.960 . S
H831 C844 0.960 . S
C832 H824 0.929 . S
C832 C833 1.377 . S
C832 C834 1.384 . S
C833 C832 1.377 . S
C833 C839 1.390 . S
C834 H825 0.930 . S
C834 C832 1.384 . S
C834 C835 1.372 . S
C835 C834 1.372 . S
C835 C836 1.400 . S
C835 C840 1.490 . S
C836 H826 0.930 . S
C836 C835 1.400 . S
C836 C839 1.386 . S
H837 C853 0.930 . S
H838 C854 0.931 . S
C839 H827 0.929 . S
C839 C833 1.390 . S
C839 C836 1.386 . S
C840 C835 1.490 . S
C840 C842 1.395 . S
C840 C843 1.403 . S
H841 C847 0.930 . S
C842 H828 0.930 . S
C842 C840 1.395 . S
C842 C845 1.403 . S
C843 C840 1.403 . S
C843 C844 1.524 . S
C843 C847 1.400 . S
C844 H829 0.960 . S
C844 H830 0.960 . S
C844 H831 0.960 . S
C844 C843 1.524 . S
C845 C842 1.403 . S
C845 C846 1.392 . S
C845 C849 1.495 . S
C846 C845 1.392 . S
C846 C847 1.385 . S
C846 C848 1.478 . S
C847 H841 0.930 . S
C847 C843 1.400 . S
C847 C846 1.385 . S
C848 C846 1.478 . S
C848 C850 1.381 . S
C848 C854 1.383 . S
C849 C845 1.495 . S
C849 H855 0.959 . S
C849 H856 0.961 . S
C849 H857 0.960 . S
C850 C848 1.381 . S
C850 C851 1.394 . S
C850 H858 0.930 . S
C851 C850 1.394 . S
C851 C852 1.383 . S
C851 H859 0.929 . S
C852 C851 1.383 . S
C852 C853 1.377 . S
C853 H837 0.930 . S
C853 C852 1.377 . S
C853 C854 1.379 . S
C854 H838 0.931 . S
C854 C848 1.383 . S
C854 C853 1.379 . S
H855 C849 0.959 . S
H856 C849 0.961 . S
H857 C849 0.960 . S
H858 C850 0.930 . S
H859 C851 0.929 . S
H860 C868 0.929 . S
H861 C870 0.930 . S
H862 C872 0.930 . S
H863 C875 0.929 . S
H864 C878 0.930 . S
H865 C880 0.960 . S
H866 C880 0.960 . S
H867 C880 0.960 . S
C868 H860 0.929 . S
C868 C869 1.377 . S
C868 C870 1.384 . S
C869 C868 1.377 . S
C869 C875 1.390 . S
C870 H861 0.930 . S
C870 C868 1.384 . S
C870 C871 1.372 . S
C871 C870 1.372 . S
C871 C872 1.400 . S
C871 C876 1.490 . S
C872 H862 0.930 . S
C872 C871 1.400 . S
C872 C875 1.386 . S
H873 C889 0.930 . S
H874 C890 0.931 . S
C875 H863 0.929 . S
C875 C869 1.390 . S
C875 C872 1.386 . S
C876 C871 1.490 . S
C876 C878 1.395 . S
C876 C879 1.403 . S
H877 C883 0.930 . S
C878 H864 0.930 . S
C878 C876 1.395 . S
C878 C881 1.403 . S
C879 C876 1.403 . S
C879 C880 1.524 . S
C879 C883 1.400 . S
C880 H865 0.960 . S
C880 H866 0.960 . S
C880 H867 0.960 . S
C880 C879 1.524 . S
C881 C878 1.403 . S
C881 C882 1.392 . S
C881 C885 1.495 . S
C882 C881 1.392 . S
C882 C883 1.385 . S
C882 C884 1.478 . S
C883 H877 0.930 . S
C883 C879 1.400 . S
C883 C882 1.385 . S
C884 C882 1.478 . S
C884 C886 1.381 . S
C884 C890 1.383 . S
C885 C881 1.495 . S
C885 H891 0.959 . S
C885 H892 0.961 . S
C885 H893 0.960 . S
C886 C884 1.381 . S
C886 C887 1.394 . S
C886 H894 0.930 . S
C887 C886 1.394 . S
C887 C888 1.383 . S
C887 H895 0.929 . S
C888 C887 1.383 . S
C888 C889 1.377 . S
C889 H873 0.930 . S
C889 C888 1.377 . S
C889 C890 1.379 . S
C890 H874 0.931 . S
C890 C884 1.383 . S
C890 C889 1.379 . S
H891 C885 0.959 . S
H892 C885 0.961 . S
H893 C885 0.960 . S
H894 C886 0.930 . S
H895 C887 0.929 . S
H896 C904 0.929 . S
H897 C906 0.930 . S
H898 C908 0.930 . S
H899 C911 0.929 . S
H900 C914 0.930 . S
H901 C916 0.960 . S
H902 C916 0.960 . S
H903 C916 0.960 . S
C904 H896 0.929 . S
C904 C905 1.377 . S
C904 C906 1.384 . S
C905 C904 1.377 . S
C905 C911 1.390 . S
C906 H897 0.930 . S
C906 C904 1.384 . S
C906 C907 1.372 . S
C907 C906 1.372 . S
C907 C908 1.400 . S
C907 C912 1.490 . S
C908 H898 0.930 . S
C908 C907 1.400 . S
C908 C911 1.386 . S
H909 C925 0.930 . S
H910 C926 0.931 . S
C911 H899 0.929 . S
C911 C905 1.390 . S
C911 C908 1.386 . S
C912 C907 1.490 . S
C912 C914 1.395 . S
C912 C915 1.403 . S
H913 C919 0.930 . S
C914 H900 0.930 . S
C914 C912 1.395 . S
C914 C917 1.403 . S
C915 C912 1.403 . S
C915 C916 1.524 . S
C915 C919 1.400 . S
C916 H901 0.960 . S
C916 H902 0.960 . S
C916 H903 0.960 . S
C916 C915 1.524 . S
C917 C914 1.403 . S
C917 C918 1.392 . S
C917 C921 1.495 . S
C918 C917 1.392 . S
C918 C919 1.385 . S
C918 C920 1.478 . S
C919 H913 0.930 . S
C919 C915 1.400 . S
C919 C918 1.385 . S
C920 C918 1.478 . S
C920 C922 1.381 . S
C920 C926 1.383 . S
C921 C917 1.495 . S
C921 H927 0.959 . S
C921 H928 0.961 . S
C921 H929 0.960 . S
C922 C920 1.381 . S
C922 C923 1.394 . S
C922 H930 0.930 . S
C923 C922 1.394 . S
C923 C924 1.383 . S
C923 H931 0.929 . S
C924 C923 1.383 . S
C924 C925 1.377 . S
C925 H909 0.930 . S
C925 C924 1.377 . S
C925 C926 1.379 . S
C926 H910 0.931 . S
C926 C920 1.383 . S
C926 C925 1.379 . S
H927 C921 0.959 . S
H928 C921 0.961 . S
H929 C921 0.960 . S
H930 C922 0.930 . S
H931 C923 0.929 . S
H932 C940 0.929 . S
H933 C942 0.930 . S
H934 C944 0.930 . S
H935 C947 0.929 . S
H936 C950 0.930 . S
H937 C952 0.960 . S
H938 C952 0.960 . S
H939 C952 0.960 . S
C940 H932 0.929 . S
C940 C941 1.377 . S
C940 C942 1.384 . S
C941 C940 1.377 . S
C941 C947 1.390 . S
C942 H933 0.930 . S
C942 C940 1.384 . S
C942 C943 1.372 . S
C943 C942 1.372 . S
C943 C944 1.400 . S
C943 C948 1.490 . S
C944 H934 0.930 . S
C944 C943 1.400 . S
C944 C947 1.386 . S
H945 C961 0.930 . S
H946 C962 0.931 . S
C947 H935 0.929 . S
C947 C941 1.390 . S
C947 C944 1.386 . S
C948 C943 1.490 . S
C948 C950 1.395 . S
C948 C951 1.403 . S
H949 C955 0.930 . S
C950 H936 0.930 . S
C950 C948 1.395 . S
C950 C953 1.403 . S
C951 C948 1.403 . S
C951 C952 1.524 . S
C951 C955 1.400 . S
C952 H937 0.960 . S
C952 H938 0.960 . S
C952 H939 0.960 . S
C952 C951 1.524 . S
C953 C950 1.403 . S
C953 C954 1.392 . S
C953 C957 1.495 . S
C954 C953 1.392 . S
C954 C955 1.385 . S
C954 C956 1.478 . S
C955 H949 0.930 . S
C955 C951 1.400 . S
C955 C954 1.385 . S
C956 C954 1.478 . S
C956 C958 1.381 . S
C956 C962 1.383 . S
C957 C953 1.495 . S
C957 H963 0.959 . S
C957 H964 0.961 . S
C957 H965 0.960 . S
C958 C956 1.381 . S
C958 C959 1.394 . S
C958 H966 0.930 . S
C959 C958 1.394 . S
C959 C960 1.383 . S
C959 H967 0.929 . S
C960 C959 1.383 . S
C960 C961 1.377 . S
C961 H945 0.930 . S
C961 C960 1.377 . S
C961 C962 1.379 . S
C962 H946 0.931 . S
C962 C956 1.383 . S
C962 C961 1.379 . S
H963 C957 0.959 . S
H964 C957 0.961 . S
H965 C957 0.960 . S
H966 C958 0.930 . S
H967 C959 0.929 . S
H968 C976 0.929 . S
H969 C978 0.930 . S
H970 C980 0.930 . S
H971 C983 0.929 . S
H972 C986 0.930 . S
H973 C988 0.960 . S
H974 C988 0.960 . S
H975 C988 0.960 . S
C976 H968 0.929 . S
C976 C977 1.377 . S
C976 C978 1.384 . S
C977 C976 1.377 . S
C977 C983 1.390 . S
C978 H969 0.930 . S
C978 C976 1.384 . S
C978 C979 1.372 . S
C979 C978 1.372 . S
C979 C980 1.400 . S
C979 C984 1.490 . S
C980 H970 0.930 . S
C980 C979 1.400 . S
C980 C983 1.386 . S
H981 C997 0.930 . S
H982 C998 0.931 . S
C983 H971 0.929 . S
C983 C977 1.390 . S
C983 C980 1.386 . S
C984 C979 1.490 . S
C984 C986 1.395 . S
C984 C987 1.403 . S
H985 C991 0.930 . S
C986 H972 0.930 . S
C986 C984 1.395 . S
C986 C989 1.403 . S
C987 C984 1.403 . S
C987 C988 1.524 . S
C987 C991 1.400 . S
C988 H973 0.960 . S
C988 H974 0.960 . S
C988 H975 0.960 . S
C988 C987 1.524 . S
C989 C986 1.403 . S
C989 C990 1.392 . S
C989 C993 1.495 . S
C990 C989 1.392 . S
C990 C991 1.385 . S
C990 C992 1.478 . S
C991 H985 0.930 . S
C991 C987 1.400 . S
C991 C990 1.385 . S
C992 C990 1.478 . S
C992 C994 1.381 . S
C992 C998 1.383 . S
C993 C989 1.495 . S
C993 H999 0.959 . S
C993 H1000 0.961 . S
C993 H1001 0.960 . S
C994 C992 1.381 . S
C994 C995 1.394 . S
C994 H1002 0.930 . S
C995 C994 1.394 . S
C995 C996 1.383 . S
C995 H1003 0.929 . S
C996 C995 1.383 . S
C996 C997 1.377 . S
C997 H981 0.930 . S
C997 C996 1.377 . S
C997 C998 1.379 . S
C998 H982 0.931 . S
C998 C992 1.383 . S
C998 C997 1.379 . S
H999 C993 0.959 . S
H1000 C993 0.961 . S
H1001 C993 0.960 . S
H1002 C994 0.930 . S
H1003 C995 0.929 . S
H1004 C1012 0.929 . S
H1005 C1014 0.930 . S
H1006 C1016 0.930 . S
H1007 C1019 0.929 . S
H1008 C1022 0.930 . S
H1009 C1024 0.960 . S
H1010 C1024 0.960 . S
H1011 C1024 0.960 . S
C1012 H1004 0.929 . S
C1012 C1013 1.377 . S
C1012 C1014 1.384 . S
C1013 C1012 1.377 . S
C1013 C1019 1.390 . S
C1014 H1005 0.930 . S
C1014 C1012 1.384 . S
C1014 C1015 1.372 . S
C1015 C1014 1.372 . S
C1015 C1016 1.400 . S
C1015 C1020 1.490 . S
C1016 H1006 0.930 . S
C1016 C1015 1.400 . S
C1016 C1019 1.386 . S
H1017 C1033 0.930 . S
H1018 C1034 0.931 . S
C1019 H1007 0.929 . S
C1019 C1013 1.390 . S
C1019 C1016 1.386 . S
C1020 C1015 1.490 . S
C1020 C1022 1.395 . S
C1020 C1023 1.403 . S
H1021 C1027 0.930 . S
C1022 H1008 0.930 . S
C1022 C1020 1.395 . S
C1022 C1025 1.403 . S
C1023 C1020 1.403 . S
C1023 C1024 1.524 . S
C1023 C1027 1.400 . S
C1024 H1009 0.960 . S
C1024 H1010 0.960 . S
C1024 H1011 0.960 . S
C1024 C1023 1.524 . S
C1025 C1022 1.403 . S
C1025 C1026 1.392 . S
C1025 C1029 1.495 . S
C1026 C1025 1.392 . S
C1026 C1027 1.385 . S
C1026 C1028 1.478 . S
C1027 H1021 0.930 . S
C1027 C1023 1.400 . S
C1027 C1026 1.385 . S
C1028 C1026 1.478 . S
C1028 C1030 1.381 . S
C1028 C1034 1.383 . S
C1029 C1025 1.495 . S
C1029 H1035 0.959 . S
C1029 H1036 0.961 . S
C1029 H1037 0.960 . S
C1030 C1028 1.381 . S
C1030 C1031 1.394 . S
C1030 H1038 0.930 . S
C1031 C1030 1.394 . S
C1031 C1032 1.383 . S
C1031 H1039 0.929 . S
C1032 C1031 1.383 . S
C1032 C1033 1.377 . S
C1033 H1017 0.930 . S
C1033 C1032 1.377 . S
C1033 C1034 1.379 . S
C1034 H1018 0.931 . S
C1034 C1028 1.383 . S
C1034 C1033 1.379 . S
H1035 C1029 0.959 . S
H1036 C1029 0.961 . S
H1037 C1029 0.960 . S
H1038 C1030 0.930 . S
H1039 C1031 0.929 . S
H1040 C1048 0.929 . S
H1041 C1050 0.930 . S
H1042 C1052 0.930 . S
H1043 C1055 0.929 . S
H1044 C1058 0.930 . S
H1045 C1060 0.960 . S
H1046 C1060 0.960 . S
H1047 C1060 0.960 . S
C1048 H1040 0.929 . S
C1048 C1049 1.377 . S
C1048 C1050 1.384 . S
C1049 C1048 1.377 . S
C1049 C1055 1.390 . S
C1050 H1041 0.930 . S
C1050 C1048 1.384 . S
C1050 C1051 1.372 . S
C1051 C1050 1.372 . S
C1051 C1052 1.400 . S
C1051 C1056 1.490 . S
C1052 H1042 0.930 . S
C1052 C1051 1.400 . S
C1052 C1055 1.386 . S
H1053 C1069 0.930 . S
H1054 C1070 0.931 . S
C1055 H1043 0.929 . S
C1055 C1049 1.390 . S
C1055 C1052 1.386 . S
C1056 C1051 1.490 . S
C1056 C1058 1.395 . S
C1056 C1059 1.403 . S
H1057 C1063 0.930 . S
C1058 H1044 0.930 . S
C1058 C1056 1.395 . S
C1058 C1061 1.403 . S
C1059 C1056 1.403 . S
C1059 C1060 1.524 . S
C1059 C1063 1.400 . S
C1060 H1045 0.960 . S
C1060 H1046 0.960 . S
C1060 H1047 0.960 . S
C1060 C1059 1.524 . S
C1061 C1058 1.403 . S
C1061 C1062 1.392 . S
C1061 C1065 1.495 . S
C1062 C1061 1.392 . S
C1062 C1063 1.385 . S
C1062 C1064 1.478 . S
C1063 H1057 0.930 . S
C1063 C1059 1.400 . S
C1063 C1062 1.385 . S
C1064 C1062 1.478 . S
C1064 C1066 1.381 . S
C1064 C1070 1.383 . S
C1065 C1061 1.495 . S
C1065 H1071 0.959 . S
C1065 H1072 0.961 . S
C1065 H1073 0.960 . S
C1066 C1064 1.381 . S
C1066 C1067 1.394 . S
C1066 H1074 0.930 . S
C1067 C1066 1.394 . S
C1067 C1068 1.383 . S
C1067 H1075 0.929 . S
C1068 C1067 1.383 . S
C1068 C1069 1.377 . S
C1069 H1053 0.930 . S
C1069 C1068 1.377 . S
C1069 C1070 1.379 . S
C1070 H1054 0.931 . S
C1070 C1064 1.383 . S
C1070 C1069 1.379 . S
H1071 C1065 0.959 . S
H1072 C1065 0.961 . S
H1073 C1065 0.960 . S
H1074 C1066 0.930 . S
H1075 C1067 0.929 . S
H1076 C1084 0.929 . S
H1077 C1086 0.930 . S
H1078 C1088 0.930 . S
H1079 C1091 0.929 . S
H1080 C1094 0.930 . S
H1081 C1096 0.960 . S
H1082 C1096 0.960 . S
H1083 C1096 0.960 . S
C1084 H1076 0.929 . S
C1084 C1085 1.377 . S
C1084 C1086 1.384 . S
C1085 C1084 1.377 . S
C1085 C1091 1.390 . S
C1086 H1077 0.930 . S
C1086 C1084 1.384 . S
C1086 C1087 1.372 . S
C1087 C1086 1.372 . S
C1087 C1088 1.400 . S
C1087 C1092 1.490 . S
C1088 H1078 0.930 . S
C1088 C1087 1.400 . S
C1088 C1091 1.386 . S
H1089 C1105 0.930 . S
H1090 C1106 0.931 . S
C1091 H1079 0.929 . S
C1091 C1085 1.390 . S
C1091 C1088 1.386 . S
C1092 C1087 1.490 . S
C1092 C1094 1.395 . S
C1092 C1095 1.403 . S
H1093 C1099 0.930 . S
C1094 H1080 0.930 . S
C1094 C1092 1.395 . S
C1094 C1097 1.403 . S
C1095 C1092 1.403 . S
C1095 C1096 1.524 . S
C1095 C1099 1.400 . S
C1096 H1081 0.960 . S
C1096 H1082 0.960 . S
C1096 H1083 0.960 . S
C1096 C1095 1.524 . S
C1097 C1094 1.403 . S
C1097 C1098 1.392 . S
C1097 C1101 1.495 . S
C1098 C1097 1.392 . S
C1098 C1099 1.385 . S
C1098 C1100 1.478 . S
C1099 H1093 0.930 . S
C1099 C1095 1.400 . S
C1099 C1098 1.385 . S
C1100 C1098 1.478 . S
C1100 C1102 1.381 . S
C1100 C1106 1.383 . S
C1101 C1097 1.495 . S
C1101 H1107 0.959 . S
C1101 H1108 0.961 . S
C1101 H1109 0.960 . S
C1102 C1100 1.381 . S
C1102 C1103 1.394 . S
C1102 H1110 0.930 . S
C1103 C1102 1.394 . S
C1103 C1104 1.383 . S
C1103 H1111 0.929 . S
C1104 C1103 1.383 . S
C1104 C1105 1.377 . S
C1105 H1089 0.930 . S
C1105 C1104 1.377 . S
C1105 C1106 1.379 . S
C1106 H1090 0.931 . S
C1106 C1100 1.383 . S
C1106 C1105 1.379 . S
H1107 C1101 0.959 . S
H1108 C1101 0.961 . S
H1109 C1101 0.960 . S
H1110 C1102 0.930 . S
H1111 C1103 0.929 . S
H1112 C1120 0.929 . S
H1113 C1122 0.930 . S
H1114 C1124 0.930 . S
H1115 C1127 0.929 . S
H1116 C1130 0.930 . S
H1117 C1132 0.960 . S
H1118 C1132 0.960 . S
H1119 C1132 0.960 . S
C1120 H1112 0.929 . S
C1120 C1121 1.377 . S
C1120 C1122 1.384 . S
C1121 C1120 1.377 . S
C1121 C1127 1.390 . S
C1122 H1113 0.930 . S
C1122 C1120 1.384 . S
C1122 C1123 1.372 . S
C1123 C1122 1.372 . S
C1123 C1124 1.400 . S
C1123 C1128 1.490 . S
C1124 H1114 0.930 . S
C1124 C1123 1.400 . S
C1124 C1127 1.386 . S
H1125 C1141 0.930 . S
H1126 C1142 0.931 . S
C1127 H1115 0.929 . S
C1127 C1121 1.390 . S
C1127 C1124 1.386 . S
C1128 C1123 1.490 . S
C1128 C1130 1.395 . S
C1128 C1131 1.403 . S
H1129 C1135 0.930 . S
C1130 H1116 0.930 . S
C1130 C1128 1.395 . S
C1130 C1133 1.403 . S
C1131 C1128 1.403 . S
C1131 C1132 1.524 . S
C1131 C1135 1.400 . S
C1132 H1117 0.960 . S
C1132 H1118 0.960 . S
C1132 H1119 0.960 . S
C1132 C1131 1.524 . S
C1133 C1130 1.403 . S
C1133 C1134 1.392 . S
C1133 C1137 1.495 . S
C1134 C1133 1.392 . S
C1134 C1135 1.385 . S
C1134 C1136 1.478 . S
C1135 H1129 0.930 . S
C1135 C1131 1.400 . S
C1135 C1134 1.385 . S
C1136 C1134 1.478 . S
C1136 C1138 1.381 . S
C1136 C1142 1.383 . S
C1137 C1133 1.495 . S
C1137 H1143 0.959 . S
C1137 H1144 0.961 . S
C1137 H1145 0.960 . S
C1138 C1136 1.381 . S
C1138 C1139 1.394 . S
C1138 H1146 0.930 . S
C1139 C1138 1.394 . S
C1139 C1140 1.383 . S
C1139 H1147 0.929 . S
C1140 C1139 1.383 . S
C1140 C1141 1.377 . S
C1141 H1125 0.930 . S
C1141 C1140 1.377 . S
C1141 C1142 1.379 . S
C1142 H1126 0.931 . S
C1142 C1136 1.383 . S
C1142 C1141 1.379 . S
H1143 C1137 0.959 . S
H1144 C1137 0.961 . S
H1145 C1137 0.960 . S
H1146 C1138 0.930 . S
H1147 C1139 0.929 . S
H1148 C1156 0.929 . S
H1149 C1158 0.930 . S
H1150 C1160 0.930 . S
H1151 C1163 0.929 . S
H1152 C1166 0.930 . S
H1153 C1168 0.960 . S
H1154 C1168 0.960 . S
H1155 C1168 0.960 . S
C1156 H1148 0.929 . S
C1156 C1157 1.377 . S
C1156 C1158 1.384 . S
C1157 C1156 1.377 . S
C1157 C1163 1.390 . S
C1158 H1149 0.930 . S
C1158 C1156 1.384 . S
C1158 C1159 1.372 . S
C1159 C1158 1.372 . S
C1159 C1160 1.400 . S
C1159 C1164 1.490 . S
C1160 H1150 0.930 . S
C1160 C1159 1.400 . S
C1160 C1163 1.386 . S
H1161 C1177 0.930 . S
H1162 C1178 0.931 . S
C1163 H1151 0.929 . S
C1163 C1157 1.390 . S
C1163 C1160 1.386 . S
C1164 C1159 1.490 . S
C1164 C1166 1.395 . S
C1164 C1167 1.403 . S
H1165 C1171 0.930 . S
C1166 H1152 0.930 . S
C1166 C1164 1.395 . S
C1166 C1169 1.403 . S
C1167 C1164 1.403 . S
C1167 C1168 1.524 . S
C1167 C1171 1.400 . S
C1168 H1153 0.960 . S
C1168 H1154 0.960 . S
C1168 H1155 0.960 . S
C1168 C1167 1.524 . S
C1169 C1166 1.403 . S
C1169 C1170 1.392 . S
C1169 C1173 1.495 . S
C1170 C1169 1.392 . S
C1170 C1171 1.385 . S
C1170 C1172 1.478 . S
C1171 H1165 0.930 . S
C1171 C1167 1.400 . S
C1171 C1170 1.385 . S
C1172 C1170 1.478 . S
C1172 C1174 1.381 . S
C1172 C1178 1.383 . S
C1173 C1169 1.495 . S
C1173 H1179 0.959 . S
C1173 H1180 0.961 . S
C1173 H1181 0.960 . S
C1174 C1172 1.381 . S
C1174 C1175 1.394 . S
C1174 H1182 0.930 . S
C1175 C1174 1.394 . S
C1175 C1176 1.383 . S
C1175 H1183 0.929 . S
C1176 C1175 1.383 . S
C1176 C1177 1.377 . S
C1177 H1161 0.930 . S
C1177 C1176 1.377 . S
C1177 C1178 1.379 . S
C1178 H1162 0.931 . S
C1178 C1172 1.383 . S
C1178 C1177 1.379 . S
H1179 C1173 0.959 . S
H1180 C1173 0.961 . S
H1181 C1173 0.960 . S
H1182 C1174 0.930 . S
H1183 C1175 0.929 . S
H1184 C1192 0.929 . S
H1185 C1194 0.930 . S
H1186 C1196 0.930 . S
H1187 C1199 0.929 . S
H1188 C1202 0.930 . S
H1189 C1204 0.960 . S
H1190 C1204 0.960 . S
H1191 C1204 0.960 . S
C1192 H1184 0.929 . S
C1192 C1193 1.377 . S
C1192 C1194 1.384 . S
C1193 C1192 1.377 . S
C1193 C1199 1.390 . S
C1194 H1185 0.930 . S
C1194 C1192 1.384 . S
C1194 C1195 1.372 . S
C1195 C1194 1.372 . S
C1195 C1196 1.400 . S
C1195 C1200 1.490 . S
C1196 H1186 0.930 . S
C1196 C1195 1.400 . S
C1196 C1199 1.386 . S
H1197 C1213 0.930 . S
H1198 C1214 0.931 . S
C1199 H1187 0.929 . S
C1199 C1193 1.390 . S
C1199 C1196 1.386 . S
C1200 C1195 1.490 . S
C1200 C1202 1.395 . S
C1200 C1203 1.403 . S
H1201 C1207 0.930 . S
C1202 H1188 0.930 . S
C1202 C1200 1.395 . S
C1202 C1205 1.403 . S
C1203 C1200 1.403 . S
C1203 C1204 1.524 . S
C1203 C1207 1.400 . S
C1204 H1189 0.960 . S
C1204 H1190 0.960 . S
C1204 H1191 0.960 . S
C1204 C1203 1.524 . S
C1205 C1202 1.403 . S
C1205 C1206 1.392 . S
C1205 C1209 1.495 . S
C1206 C1205 1.392 . S
C1206 C1207 1.385 . S
C1206 C1208 1.478 . S
C1207 H1201 0.930 . S
C1207 C1203 1.400 . S
C1207 C1206 1.385 . S
C1208 C1206 1.478 . S
C1208 C1210 1.381 . S
C1208 C1214 1.383 . S
C1209 C1205 1.495 . S
C1209 H1215 0.959 . S
C1209 H1216 0.961 . S
C1209 H1217 0.960 . S
C1210 C1208 1.381 . S
C1210 C1211 1.394 . S
C1210 H1218 0.930 . S
C1211 C1210 1.394 . S
C1211 C1212 1.383 . S
C1211 H1219 0.929 . S
C1212 C1211 1.383 . S
C1212 C1213 1.377 . S
C1213 H1197 0.930 . S
C1213 C1212 1.377 . S
C1213 C1214 1.379 . S
C1214 H1198 0.931 . S
C1214 C1208 1.383 . S
C1214 C1213 1.379 . S
H1215 C1209 0.959 . S
H1216 C1209 0.961 . S
H1217 C1209 0.960 . S
H1218 C1210 0.930 . S
H1219 C1211 0.929 . S
H1220 C1228 0.929 . S
H1221 C1230 0.930 . S
H1222 C1232 0.930 . S
H1223 C1235 0.929 . S
H1224 C1238 0.930 . S
H1225 C1240 0.960 . S
H1226 C1240 0.960 . S
H1227 C1240 0.960 . S
C1228 H1220 0.929 . S
C1228 C1229 1.377 . S
C1228 C1230 1.384 . S
C1229 C1228 1.377 . S
C1229 C1235 1.390 . S
C1230 H1221 0.930 . S
C1230 C1228 1.384 . S
C1230 C1231 1.372 . S
C1231 C1230 1.372 . S
C1231 C1232 1.400 . S
C1231 C1236 1.490 . S
C1232 H1222 0.930 . S
C1232 C1231 1.400 . S
C1232 C1235 1.386 . S
H1233 C1249 0.930 . S
H1234 C1250 0.931 . S
C1235 H1223 0.929 . S
C1235 C1229 1.390 . S
C1235 C1232 1.386 . S
C1236 C1231 1.490 . S
C1236 C1238 1.395 . S
C1236 C1239 1.403 . S
H1237 C1243 0.930 . S
C1238 H1224 0.930 . S
C1238 C1236 1.395 . S
C1238 C1241 1.403 . S
C1239 C1236 1.403 . S
C1239 C1240 1.524 . S
C1239 C1243 1.400 . S
C1240 H1225 0.960 . S
C1240 H1226 0.960 . S
C1240 H1227 0.960 . S
C1240 C1239 1.524 . S
C1241 C1238 1.403 . S
C1241 C1242 1.392 . S
C1241 C1245 1.495 . S
C1242 C1241 1.392 . S
C1242 C1243 1.385 . S
C1242 C1244 1.478 . S
C1243 H1237 0.930 . S
C1243 C1239 1.400 . S
C1243 C1242 1.385 . S
C1244 C1242 1.478 . S
C1244 C1246 1.381 . S
C1244 C1250 1.383 . S
C1245 C1241 1.495 . S
C1245 H1251 0.959 . S
C1245 H1252 0.961 . S
C1245 H1253 0.960 . S
C1246 C1244 1.381 . S
C1246 C1247 1.394 . S
C1246 H1254 0.930 . S
C1247 C1246 1.394 . S
C1247 C1248 1.383 . S
C1247 H1255 0.929 . S
C1248 C1247 1.383 . S
C1248 C1249 1.377 . S
C1249 H1233 0.930 . S
C1249 C1248 1.377 . S
C1249 C1250 1.379 . S
C1250 H1234 0.931 . S
C1250 C1244 1.383 . S
C1250 C1249 1.379 . S
H1251 C1245 0.959 . S
H1252 C1245 0.961 . S
H1253 C1245 0.960 . S
H1254 C1246 0.930 . S
H1255 C1247 0.929 . S
H1256 C1264 0.929 . S
H1257 C1266 0.930 . S
H1258 C1268 0.930 . S
H1259 C1271 0.929 . S
H1260 C1274 0.930 . S
H1261 C1276 0.960 . S
H1262 C1276 0.960 . S
H1263 C1276 0.960 . S
C1264 H1256 0.929 . S
C1264 C1265 1.377 . S
C1264 C1266 1.384 . S
C1265 C1264 1.377 . S
C1265 C1271 1.390 . S
C1266 H1257 0.930 . S
C1266 C1264 1.384 . S
C1266 C1267 1.372 . S
C1267 C1266 1.372 . S
C1267 C1268 1.400 . S
C1267 C1272 1.490 . S
C1268 H1258 0.930 . S
C1268 C1267 1.400 . S
C1268 C1271 1.386 . S
H1269 C1285 0.930 . S
H1270 C1286 0.931 . S
C1271 H1259 0.929 . S
C1271 C1265 1.390 . S
C1271 C1268 1.386 . S
C1272 C1267 1.490 . S
C1272 C1274 1.395 . S
C1272 C1275 1.403 . S
H1273 C1279 0.930 . S
C1274 H1260 0.930 . S
C1274 C1272 1.395 . S
C1274 C1277 1.403 . S
C1275 C1272 1.403 . S
C1275 C1276 1.524 . S
C1275 C1279 1.400 . S
C1276 H1261 0.960 . S
C1276 H1262 0.960 . S
C1276 H1263 0.960 . S
C1276 C1275 1.524 . S
C1277 C1274 1.403 . S
C1277 C1278 1.392 . S
C1277 C1281 1.495 . S
C1278 C1277 1.392 . S
C1278 C1279 1.385 . S
C1278 C1280 1.478 . S
C1279 H1273 0.930 . S
C1279 C1275 1.400 . S
C1279 C1278 1.385 . S
C1280 C1278 1.478 . S
C1280 C1282 1.381 . S
C1280 C1286 1.383 . S
C1281 C1277 1.495 . S
C1281 H1287 0.959 . S
C1281 H1288 0.961 . S
C1281 H1289 0.960 . S
C1282 C1280 1.381 . S
C1282 C1283 1.394 . S
C1282 H1290 0.930 . S
C1283 C1282 1.394 . S
C1283 C1284 1.383 . S
C1283 H1291 0.929 . S
C1284 C1283 1.383 . S
C1284 C1285 1.377 . S
C1285 H1269 0.930 . S
C1285 C1284 1.377 . S
C1285 C1286 1.379 . S
C1286 H1270 0.931 . S
C1286 C1280 1.383 . S
C1286 C1285 1.379 . S
H1287 C1281 0.959 . S
H1288 C1281 0.961 . S
H1289 C1281 0.960 . S
H1290 C1282 0.930 . S
H1291 C1283 0.929 . S
H1292 C1300 0.929 . S
H1293 C1302 0.930 . S
H1294 C1304 0.930 . S
H1295 C1307 0.929 . S
H1296 C1310 0.930 . S
H1297 C1312 0.960 . S
H1298 C1312 0.960 . S
H1299 C1312 0.960 . S
C1300 H1292 0.929 . S
C1300 C1301 1.377 . S
C1300 C1302 1.384 . S
C1301 C1300 1.377 . S
C1301 C1307 1.390 . S
C1302 H1293 0.930 . S
C1302 C1300 1.384 . S
C1302 C1303 1.372 . S
C1303 C1302 1.372 . S
C1303 C1304 1.400 . S
C1303 C1308 1.490 . S
C1304 H1294 0.930 . S
C1304 C1303 1.400 . S
C1304 C1307 1.386 . S
H1305 C1321 0.930 . S
H1306 C1322 0.931 . S
C1307 H1295 0.929 . S
C1307 C1301 1.390 . S
C1307 C1304 1.386 . S
C1308 C1303 1.490 . S
C1308 C1310 1.395 . S
C1308 C1311 1.403 . S
H1309 C1315 0.930 . S
C1310 H1296 0.930 . S
C1310 C1308 1.395 . S
C1310 C1313 1.403 . S
C1311 C1308 1.403 . S
C1311 C1312 1.524 . S
C1311 C1315 1.400 . S
C1312 H1297 0.960 . S
C1312 H1298 0.960 . S
C1312 H1299 0.960 . S
C1312 C1311 1.524 . S
C1313 C1310 1.403 . S
C1313 C1314 1.392 . S
C1313 C1317 1.495 . S
C1314 C1313 1.392 . S
C1314 C1315 1.385 . S
C1314 C1316 1.478 . S
C1315 H1309 0.930 . S
C1315 C1311 1.400 . S
C1315 C1314 1.385 . S
C1316 C1314 1.478 . S
C1316 C1318 1.381 . S
C1316 C1322 1.383 . S
C1317 C1313 1.495 . S
C1317 H1323 0.959 . S
C1317 H1324 0.961 . S
C1317 H1325 0.960 . S
C1318 C1316 1.381 . S
C1318 C1319 1.394 . S
C1318 H1326 0.930 . S
C1319 C1318 1.394 . S
C1319 C1320 1.383 . S
C1319 H1327 0.929 . S
C1320 C1319 1.383 . S
C1320 C1321 1.377 . S
C1321 H1305 0.930 . S
C1321 C1320 1.377 . S
C1321 C1322 1.379 . S
C1322 H1306 0.931 . S
C1322 C1316 1.383 . S
C1322 C1321 1.379 . S
H1323 C1317 0.959 . S
H1324 C1317 0.961 . S
H1325 C1317 0.960 . S
H1326 C1318 0.930 . S
H1327 C1319 0.929 . S
H1328 C1336 0.929 . S
H1329 C1338 0.930 . S
H1330 C1340 0.930 . S
H1331 C1343 0.929 . S
H1332 C1346 0.930 . S
H1333 C1348 0.960 . S
H1334 C1348 0.960 . S
H1335 C1348 0.960 . S
C1336 H1328 0.929 . S
C1336 C1337 1.377 . S
C1336 C1338 1.384 . S
C1337 C1336 1.377 . S
C1337 C1343 1.390 . S
C1338 H1329 0.930 . S
C1338 C1336 1.384 . S
C1338 C1339 1.372 . S
C1339 C1338 1.372 . S
C1339 C1340 1.400 . S
C1339 C1344 1.490 . S
C1340 H1330 0.930 . S
C1340 C1339 1.400 . S
C1340 C1343 1.386 . S
H1341 C1357 0.930 . S
H1342 C1358 0.931 . S
C1343 H1331 0.929 . S
C1343 C1337 1.390 . S
C1343 C1340 1.386 . S
C1344 C1339 1.490 . S
C1344 C1346 1.395 . S
C1344 C1347 1.403 . S
H1345 C1351 0.930 . S
C1346 H1332 0.930 . S
C1346 C1344 1.395 . S
C1346 C1349 1.403 . S
C1347 C1344 1.403 . S
C1347 C1348 1.524 . S
C1347 C1351 1.400 . S
C1348 H1333 0.960 . S
C1348 H1334 0.960 . S
C1348 H1335 0.960 . S
C1348 C1347 1.524 . S
C1349 C1346 1.403 . S
C1349 C1350 1.392 . S
C1349 C1353 1.495 . S
C1350 C1349 1.392 . S
C1350 C1351 1.385 . S
C1350 C1352 1.478 . S
C1351 H1345 0.930 . S
C1351 C1347 1.400 . S
C1351 C1350 1.385 . S
C1352 C1350 1.478 . S
C1352 C1354 1.381 . S
C1352 C1358 1.383 . S
C1353 C1349 1.495 . S
C1353 H1359 0.959 . S
C1353 H1360 0.961 . S
C1353 H1361 0.960 . S
C1354 C1352 1.381 . S
C1354 C1355 1.394 . S
C1354 H1362 0.930 . S
C1355 C1354 1.394 . S
C1355 C1356 1.383 . S
C1355 H1363 0.929 . S
C1356 C1355 1.383 . S
C1356 C1357 1.377 . S
C1357 H1341 0.930 . S
C1357 C1356 1.377 . S
C1357 C1358 1.379 . S
C1358 H1342 0.931 . S
C1358 C1352 1.383 . S
C1358 C1357 1.379 . S
H1359 C1353 0.959 . S
H1360 C1353 0.961 . S
H1361 C1353 0.960 . S
H1362 C1354 0.930 . S
H1363 C1355 0.929 . S
H1364 C1372 0.929 . S
H1365 C1374 0.930 . S
H1366 C1376 0.930 . S
H1367 C1379 0.929 . S
H1368 C1382 0.930 . S
H1369 C1384 0.960 . S
H1370 C1384 0.960 . S
H1371 C1384 0.960 . S
C1372 H1364 0.929 . S
C1372 C1373 1.377 . S
C1372 C1374 1.384 . S
C1373 C1372 1.377 . S
C1373 C1379 1.390 . S
C1374 H1365 0.930 . S
C1374 C1372 1.384 . S
C1374 C1375 1.372 . S
C1375 C1374 1.372 . S
C1375 C1376 1.400 . S
C1375 C1380 1.490 . S
C1376 H1366 0.930 . S
C1376 C1375 1.400 . S
C1376 C1379 1.386 . S
H1377 C1393 0.930 . S
H1378 C1394 0.931 . S
C1379 H1367 0.929 . S
C1379 C1373 1.390 . S
C1379 C1376 1.386 . S
C1380 C1375 1.490 . S
C1380 C1382 1.395 . S
C1380 C1383 1.403 . S
H1381 C1387 0.930 . S
C1382 H1368 0.930 . S
C1382 C1380 1.395 . S
C1382 C1385 1.403 . S
C1383 C1380 1.403 . S
C1383 C1384 1.524 . S
C1383 C1387 1.400 . S
C1384 H1369 0.960 . S
C1384 H1370 0.960 . S
C1384 H1371 0.960 . S
C1384 C1383 1.524 . S
C1385 C1382 1.403 . S
C1385 C1386 1.392 . S
C1385 C1389 1.495 . S
C1386 C1385 1.392 . S
C1386 C1387 1.385 . S
C1386 C1388 1.478 . S
C1387 H1381 0.930 . S
C1387 C1383 1.400 . S
C1387 C1386 1.385 . S
C1388 C1386 1.478 . S
C1388 C1390 1.381 . S
C1388 C1394 1.383 . S
C1389 C1385 1.495 . S
C1389 H1395 0.959 . S
C1389 H1396 0.961 . S
C1389 H1397 0.960 . S
C1390 C1388 1.381 . S
C1390 C1391 1.394 . S
C1390 H1398 0.930 . S
C1391 C1390 1.394 . S
C1391 C1392 1.383 . S
C1391 H1399 0.929 . S
C1392 C1391 1.383 . S
C1392 C1393 1.377 . S
C1393 H1377 0.930 . S
C1393 C1392 1.377 . S
C1393 C1394 1.379 . S
C1394 H1378 0.931 . S
C1394 C1388 1.383 . S
C1394 C1393 1.379 . S
H1395 C1389 0.959 . S
H1396 C1389 0.961 . S
H1397 C1389 0.960 . S
H1398 C1390 0.930 . S
H1399 C1391 0.929 . S
H1400 C1408 0.929 . S
H1401 C1410 0.930 . S
H1402 C1412 0.930 . S
H1403 C1415 0.929 . S
H1404 C1418 0.930 . S
H1405 C1420 0.960 . S
H1406 C1420 0.960 . S
H1407 C1420 0.960 . S
C1408 H1400 0.929 . S
C1408 C1409 1.377 . S
C1408 C1410 1.384 . S
C1409 C1408 1.377 . S
C1409 C1415 1.390 . S
C1410 H1401 0.930 . S
C1410 C1408 1.384 . S
C1410 C1411 1.372 . S
C1411 C1410 1.372 . S
C1411 C1412 1.400 . S
C1411 C1416 1.490 . S
C1412 H1402 0.930 . S
C1412 C1411 1.400 . S
C1412 C1415 1.386 . S
H1413 C1429 0.930 . S
H1414 C1430 0.931 . S
C1415 H1403 0.929 . S
C1415 C1409 1.390 . S
C1415 C1412 1.386 . S
C1416 C1411 1.490 . S
C1416 C1418 1.395 . S
C1416 C1419 1.403 . S
H1417 C1423 0.930 . S
C1418 H1404 0.930 . S
C1418 C1416 1.395 . S
C1418 C1421 1.403 . S
C1419 C1416 1.403 . S
C1419 C1420 1.524 . S
C1419 C1423 1.400 . S
C1420 H1405 0.960 . S
C1420 H1406 0.960 . S
C1420 H1407 0.960 . S
C1420 C1419 1.524 . S
C1421 C1418 1.403 . S
C1421 C1422 1.392 . S
C1421 C1425 1.495 . S
C1422 C1421 1.392 . S
C1422 C1423 1.385 . S
C1422 C1424 1.478 . S
C1423 H1417 0.930 . S
C1423 C1419 1.400 . S
C1423 C1422 1.385 . S
C1424 C1422 1.478 . S
C1424 C1426 1.381 . S
C1424 C1430 1.383 . S
C1425 C1421 1.495 . S
C1425 H1431 0.959 . S
C1425 H1432 0.961 . S
C1425 H1433 0.960 . S
C1426 C1424 1.381 . S
C1426 C1427 1.394 . S
C1426 H1434 0.930 . S
C1427 C1426 1.394 . S
C1427 C1428 1.383 . S
C1427 H1435 0.929 . S
C1428 C1427 1.383 . S
C1428 C1429 1.377 . S
C1429 H1413 0.930 . S
C1429 C1428 1.377 . S
C1429 C1430 1.379 . S
C1430 H1414 0.931 . S
C1430 C1424 1.383 . S
C1430 C1429 1.379 . S
H1431 C1425 0.959 . S
H1432 C1425 0.961 . S
H1433 C1425 0.960 . S
H1434 C1426 0.930 . S
H1435 C1427 0.929 . S
H1436 C1444 0.929 . S
H1437 C1446 0.930 . S
H1438 C1448 0.930 . S
H1439 C1451 0.929 . S
H1440 C1454 0.930 . S
H1441 C1456 0.960 . S
H1442 C1456 0.960 . S
H1443 C1456 0.960 . S
C1444 H1436 0.929 . S
C1444 C1445 1.377 . S
C1444 C1446 1.384 . S
C1445 C1444 1.377 . S
C1445 C1451 1.390 . S
C1446 H1437 0.930 . S
C1446 C1444 1.384 . S
C1446 C1447 1.372 . S
C1447 C1446 1.372 . S
C1447 C1448 1.400 . S
C1447 C1452 1.490 . S
C1448 H1438 0.930 . S
C1448 C1447 1.400 . S
C1448 C1451 1.386 . S
H1449 C1465 0.930 . S
H1450 C1466 0.931 . S
C1451 H1439 0.929 . S
C1451 C1445 1.390 . S
C1451 C1448 1.386 . S
C1452 C1447 1.490 . S
C1452 C1454 1.395 . S
C1452 C1455 1.403 . S
H1453 C1459 0.930 . S
C1454 H1440 0.930 . S
C1454 C1452 1.395 . S
C1454 C1457 1.403 . S
C1455 C1452 1.403 . S
C1455 C1456 1.524 . S
C1455 C1459 1.400 . S
C1456 H1441 0.960 . S
C1456 H1442 0.960 . S
C1456 H1443 0.960 . S
C1456 C1455 1.524 . S
C1457 C1454 1.403 . S
C1457 C1458 1.392 . S
C1457 C1461 1.495 . S
C1458 C1457 1.392 . S
C1458 C1459 1.385 . S
C1458 C1460 1.478 . S
C1459 H1453 0.930 . S
C1459 C1455 1.400 . S
C1459 C1458 1.385 . S
C1460 C1458 1.478 . S
C1460 C1462 1.381 . S
C1460 C1466 1.383 . S
C1461 C1457 1.495 . S
C1461 H1467 0.959 . S
C1461 H1468 0.961 . S
C1461 H1469 0.960 . S
C1462 C1460 1.381 . S
C1462 C1463 1.394 . S
C1462 H1470 0.930 . S
C1463 C1462 1.394 . S
C1463 C1464 1.383 . S
C1463 H1471 0.929 . S
C1464 C1463 1.383 . S
C1464 C1465 1.377 . S
C1465 H1449 0.930 . S
C1465 C1464 1.377 . S
C1465 C1466 1.379 . S
C1466 H1450 0.931 . S
C1466 C1460 1.383 . S
C1466 C1465 1.379 . S
H1467 C1461 0.959 . S
H1468 C1461 0.961 . S
H1469 C1461 0.960 . S
H1470 C1462 0.930 . S
H1471 C1463 0.929 . S
H1472 C1480 0.929 . S
H1473 C1482 0.930 . S
H1474 C1484 0.930 . S
H1475 C1487 0.929 . S
H1476 C1490 0.930 . S
H1477 C1492 0.960 . S
H1478 C1492 0.960 . S
H1479 C1492 0.960 . S
C1480 H1472 0.929 . S
C1480 C1481 1.377 . S
C1480 C1482 1.384 . S
C1481 C1480 1.377 . S
C1481 C1487 1.390 . S
C1482 H1473 0.930 . S
C1482 C1480 1.384 . S
C1482 C1483 1.372 . S
C1483 C1482 1.372 . S
C1483 C1484 1.400 . S
C1483 C1488 1.490 . S
C1484 H1474 0.930 . S
C1484 C1483 1.400 . S
C1484 C1487 1.386 . S
H1485 C1501 0.930 . S
H1486 C1502 0.931 . S
C1487 H1475 0.929 . S
C1487 C1481 1.390 . S
C1487 C1484 1.386 . S
C1488 C1483 1.490 . S
C1488 C1490 1.395 . S
C1488 C1491 1.403 . S
H1489 C1495 0.930 . S
C1490 H1476 0.930 . S
C1490 C1488 1.395 . S
C1490 C1493 1.403 . S
C1491 C1488 1.403 . S
C1491 C1492 1.524 . S
C1491 C1495 1.400 . S
C1492 H1477 0.960 . S
C1492 H1478 0.960 . S
C1492 H1479 0.960 . S
C1492 C1491 1.524 . S
C1493 C1490 1.403 . S
C1493 C1494 1.392 . S
C1493 C1497 1.495 . S
C1494 C1493 1.392 . S
C1494 C1495 1.385 . S
C1494 C1496 1.478 . S
C1495 H1489 0.930 . S
C1495 C1491 1.400 . S
C1495 C1494 1.385 . S
C1496 C1494 1.478 . S
C1496 C1498 1.381 . S
C1496 C1502 1.383 . S
C1497 C1493 1.495 . S
C1497 H1503 0.959 . S
C1497 H1504 0.961 . S
C1497 H1505 0.960 . S
C1498 C1496 1.381 . S
C1498 C1499 1.394 . S
C1498 H1506 0.930 . S
C1499 C1498 1.394 . S
C1499 C1500 1.383 . S
C1499 H1507 0.929 . S
C1500 C1499 1.383 . S
C1500 C1501 1.377 . S
C1501 H1485 0.930 . S
C1501 C1500 1.377 . S
C1501 C1502 1.379 . S
C1502 H1486 0.931 . S
C1502 C1496 1.383 . S
C1502 C1501 1.379 . S
H1503 C1497 0.959 . S
H1504 C1497 0.961 . S
H1505 C1497 0.960 . S
H1506 C1498 0.930 . S
H1507 C1499 0.929 . S
H1508 C1516 0.929 . S
H1509 C1518 0.930 . S
H1510 C1520 0.930 . S
H1511 C1523 0.929 . S
H1512 C1526 0.930 . S
H1513 C1528 0.960 . S
H1514 C1528 0.960 . S
H1515 C1528 0.960 . S
C1516 H1508 0.929 . S
C1516 C1517 1.377 . S
C1516 C1518 1.384 . S
C1517 C1516 1.377 . S
C1517 C1523 1.390 . S
C1518 H1509 0.930 . S
C1518 C1516 1.384 . S
C1518 C1519 1.372 . S
C1519 C1518 1.372 . S
C1519 C1520 1.400 . S
C1519 C1524 1.490 . S
C1520 H1510 0.930 . S
C1520 C1519 1.400 . S
C1520 C1523 1.386 . S
H1521 C1537 0.930 . S
H1522 C1538 0.931 . S
C1523 H1511 0.929 . S
C1523 C1517 1.390 . S
C1523 C1520 1.386 . S
C1524 C1519 1.490 . S
C1524 C1526 1.395 . S
C1524 C1527 1.403 . S
H1525 C1531 0.930 . S
C1526 H1512 0.930 . S
C1526 C1524 1.395 . S
C1526 C1529 1.403 . S
C1527 C1524 1.403 . S
C1527 C1528 1.524 . S
C1527 C1531 1.400 . S
C1528 H1513 0.960 . S
C1528 H1514 0.960 . S
C1528 H1515 0.960 . S
C1528 C1527 1.524 . S
C1529 C1526 1.403 . S
C1529 C1530 1.392 . S
C1529 C1533 1.495 . S
C1530 C1529 1.392 . S
C1530 C1531 1.385 . S
C1530 C1532 1.478 . S
C1531 H1525 0.930 . S
C1531 C1527 1.400 . S
C1531 C1530 1.385 . S
C1532 C1530 1.478 . S
C1532 C1534 1.381 . S
C1532 C1538 1.383 . S
C1533 C1529 1.495 . S
C1533 H1539 0.959 . S
C1533 H1540 0.961 . S
C1533 H1541 0.960 . S
C1534 C1532 1.381 . S
C1534 C1535 1.394 . S
C1534 H1542 0.930 . S
C1535 C1534 1.394 . S
C1535 C1536 1.383 . S
C1535 H1543 0.929 . S
C1536 C1535 1.383 . S
C1536 C1537 1.377 . S
C1537 H1521 0.930 . S
C1537 C1536 1.377 . S
C1537 C1538 1.379 . S
C1538 H1522 0.931 . S
C1538 C1532 1.383 . S
C1538 C1537 1.379 . S
H1539 C1533 0.959 . S
H1540 C1533 0.961 . S
H1541 C1533 0.960 . S
H1542 C1534 0.930 . S
H1543 C1535 0.929 . S
H1544 C1552 0.929 . S
H1545 C1554 0.930 . S
H1546 C1556 0.930 . S
H1547 C1559 0.929 . S
H1548 C1562 0.930 . S
H1549 C1564 0.960 . S
H1550 C1564 0.960 . S
H1551 C1564 0.960 . S
C1552 H1544 0.929 . S
C1552 C1553 1.377 . S
C1552 C1554 1.384 . S
C1553 C1552 1.377 . S
C1553 C1559 1.390 . S
C1554 H1545 0.930 . S
C1554 C1552 1.384 . S
C1554 C1555 1.372 . S
C1555 C1554 1.372 . S
C1555 C1556 1.400 . S
C1555 C1560 1.490 . S
C1556 H1546 0.930 . S
C1556 C1555 1.400 . S
C1556 C1559 1.386 . S
H1557 C1573 0.930 . S
H1558 C1574 0.931 . S
C1559 H1547 0.929 . S
C1559 C1553 1.390 . S
C1559 C1556 1.386 . S
C1560 C1555 1.490 . S
C1560 C1562 1.395 . S
C1560 C1563 1.403 . S
H1561 C1567 0.930 . S
C1562 H1548 0.930 . S
C1562 C1560 1.395 . S
C1562 C1565 1.403 . S
C1563 C1560 1.403 . S
C1563 C1564 1.524 . S
C1563 C1567 1.400 . S
C1564 H1549 0.960 . S
C1564 H1550 0.960 . S
C1564 H1551 0.960 . S
C1564 C1563 1.524 . S
C1565 C1562 1.403 . S
C1565 C1566 1.392 . S
C1565 C1569 1.495 . S
C1566 C1565 1.392 . S
C1566 C1567 1.385 . S
C1566 C1568 1.478 . S
C1567 H1561 0.930 . S
C1567 C1563 1.400 . S
C1567 C1566 1.385 . S
C1568 C1566 1.478 . S
C1568 C1570 1.381 . S
C1568 C1574 1.383 . S
C1569 C1565 1.495 . S
C1569 H1575 0.959 . S
C1569 H1576 0.961 . S
C1569 H1577 0.960 . S
C1570 C1568 1.381 . S
C1570 C1571 1.394 . S
C1570 H1578 0.930 . S
C1571 C1570 1.394 . S
C1571 C1572 1.383 . S
C1571 H1579 0.929 . S
C1572 C1571 1.383 . S
C1572 C1573 1.377 . S
C1573 H1557 0.930 . S
C1573 C1572 1.377 . S
C1573 C1574 1.379 . S
C1574 H1558 0.931 . S
C1574 C1568 1.383 . S
C1574 C1573 1.379 . S
H1575 C1569 0.959 . S
H1576 C1569 0.961 . S
H1577 C1569 0.960 . S
H1578 C1570 0.930 . S
H1579 C1571 0.929 . S
H1580 C1588 0.929 . S
H1581 C1590 0.930 . S
H1582 C1592 0.930 . S
H1583 C1595 0.929 . S
H1584 C1598 0.930 . S
H1585 C1600 0.960 . S
H1586 C1600 0.960 . S
H1587 C1600 0.960 . S
C1588 H1580 0.929 . S
C1588 C1589 1.377 . S
C1588 C1590 1.384 . S
C1589 C1588 1.377 . S
C1589 C1595 1.390 . S
C1590 H1581 0.930 . S
C1590 C1588 1.384 . S
C1590 C1591 1.372 . S
C1591 C1590 1.372 . S
C1591 C1592 1.400 . S
C1591 C1596 1.490 . S
C1592 H1582 0.930 . S
C1592 C1591 1.400 . S
C1592 C1595 1.386 . S
H1593 C1609 0.930 . S
H1594 C1610 0.931 . S
C1595 H1583 0.929 . S
C1595 C1589 1.390 . S
C1595 C1592 1.386 . S
C1596 C1591 1.490 . S
C1596 C1598 1.395 . S
C1596 C1599 1.403 . S
H1597 C1603 0.930 . S
C1598 H1584 0.930 . S
C1598 C1596 1.395 . S
C1598 C1601 1.403 . S
C1599 C1596 1.403 . S
C1599 C1600 1.524 . S
C1599 C1603 1.400 . S
C1600 H1585 0.960 . S
C1600 H1586 0.960 . S
C1600 H1587 0.960 . S
C1600 C1599 1.524 . S
C1601 C1598 1.403 . S
C1601 C1602 1.392 . S
C1601 C1605 1.495 . S
C1602 C1601 1.392 . S
C1602 C1603 1.385 . S
C1602 C1604 1.478 . S
C1603 H1597 0.930 . S
C1603 C1599 1.400 . S
C1603 C1602 1.385 . S
C1604 C1602 1.478 . S
C1604 C1606 1.381 . S
C1604 C1610 1.383 . S
C1605 C1601 1.495 . S
C1605 H1611 0.959 . S
C1605 H1612 0.961 . S
C1605 H1613 0.960 . S
C1606 C1604 1.381 . S
C1606 C1607 1.394 . S
C1606 H1614 0.930 . S
C1607 C1606 1.394 . S
C1607 C1608 1.383 . S
C1607 H1615 0.929 . S
C1608 C1607 1.383 . S
C1608 C1609 1.377 . S
C1609 H1593 0.930 . S
C1609 C1608 1.377 . S
C1609 C1610 1.379 . S
C1610 H1594 0.931 . S
C1610 C1604 1.383 . S
C1610 C1609 1.379 . S
H1611 C1605 0.959 . S
H1612 C1605 0.961 . S
H1613 C1605 0.960 . S
H1614 C1606 0.930 . S
H1615 C1607 0.929 . S
H1616 C1624 0.929 . S
H1617 C1626 0.930 . S
H1618 C1628 0.930 . S
H1619 C1631 0.929 . S
H1620 C1634 0.930 . S
H1621 C1636 0.960 . S
H1622 C1636 0.960 . S
H1623 C1636 0.960 . S
C1624 H1616 0.929 . S
C1624 C1625 1.377 . S
C1624 C1626 1.384 . S
C1625 C1624 1.377 . S
C1625 C1631 1.390 . S
C1626 H1617 0.930 . S
C1626 C1624 1.384 . S
C1626 C1627 1.372 . S
C1627 C1626 1.372 . S
C1627 C1628 1.400 . S
C1627 C1632 1.490 . S
C1628 H1618 0.930 . S
C1628 C1627 1.400 . S
C1628 C1631 1.386 . S
H1629 C1645 0.930 . S
H1630 C1646 0.931 . S
C1631 H1619 0.929 . S
C1631 C1625 1.390 . S
C1631 C1628 1.386 . S
C1632 C1627 1.490 . S
C1632 C1634 1.395 . S
C1632 C1635 1.403 . S
H1633 C1639 0.930 . S
C1634 H1620 0.930 . S
C1634 C1632 1.395 . S
C1634 C1637 1.403 . S
C1635 C1632 1.403 . S
C1635 C1636 1.524 . S
C1635 C1639 1.400 . S
C1636 H1621 0.960 . S
C1636 H1622 0.960 . S
C1636 H1623 0.960 . S
C1636 C1635 1.524 . S
C1637 C1634 1.403 . S
C1637 C1638 1.392 . S
C1637 C1641 1.495 . S
C1638 C1637 1.392 . S
C1638 C1639 1.385 . S
C1638 C1640 1.478 . S
C1639 H1633 0.930 . S
C1639 C1635 1.400 . S
C1639 C1638 1.385 . S
C1640 C1638 1.478 . S
C1640 C1642 1.381 . S
C1640 C1646 1.383 . S
C1641 C1637 1.495 . S
C1641 H1647 0.959 . S
C1641 H1648 0.961 . S
C1641 H1649 0.960 . S
C1642 C1640 1.381 . S
C1642 C1643 1.394 . S
C1642 H1650 0.930 . S
C1643 C1642 1.394 . S
C1643 C1644 1.383 . S
C1643 H1651 0.929 . S
C1644 C1643 1.383 . S
C1644 C1645 1.377 . S
C1645 H1629 0.930 . S
C1645 C1644 1.377 . S
C1645 C1646 1.379 . S
C1646 H1630 0.931 . S
C1646 C1640 1.383 . S
C1646 C1645 1.379 . S
H1647 C1641 0.959 . S
H1648 C1641 0.961 . S
H1649 C1641 0.960 . S
H1650 C1642 0.930 . S
H1651 C1643 0.929 . S
H1652 C1660 0.929 . S
H1653 C1662 0.930 . S
H1654 C1664 0.930 . S
H1655 C1667 0.929 . S
H1656 C1670 0.930 . S
H1657 C1672 0.960 . S
H1658 C1672 0.960 . S
H1659 C1672 0.960 . S
C1660 H1652 0.929 . S
C1660 C1661 1.377 . S
C1660 C1662 1.384 . S
C1661 C1660 1.377 . S
C1661 C1667 1.390 . S
C1662 H1653 0.930 . S
C1662 C1660 1.384 . S
C1662 C1663 1.372 . S
C1663 C1662 1.372 . S
C1663 C1664 1.400 . S
C1663 C1668 1.490 . S
C1664 H1654 0.930 . S
C1664 C1663 1.400 . S
C1664 C1667 1.386 . S
H1665 C1681 0.930 . S
H1666 C1682 0.931 . S
C1667 H1655 0.929 . S
C1667 C1661 1.390 . S
C1667 C1664 1.386 . S
C1668 C1663 1.490 . S
C1668 C1670 1.395 . S
C1668 C1671 1.403 . S
H1669 C1675 0.930 . S
C1670 H1656 0.930 . S
C1670 C1668 1.395 . S
C1670 C1673 1.403 . S
C1671 C1668 1.403 . S
C1671 C1672 1.524 . S
C1671 C1675 1.400 . S
C1672 H1657 0.960 . S
C1672 H1658 0.960 . S
C1672 H1659 0.960 . S
C1672 C1671 1.524 . S
C1673 C1670 1.403 . S
C1673 C1674 1.392 . S
C1673 C1677 1.495 . S
C1674 C1673 1.392 . S
C1674 C1675 1.385 . S
C1674 C1676 1.478 . S
C1675 H1669 0.930 . S
C1675 C1671 1.400 . S
C1675 C1674 1.385 . S
C1676 C1674 1.478 . S
C1676 C1678 1.381 . S
C1676 C1682 1.383 . S
C1677 C1673 1.495 . S
C1677 H1683 0.959 . S
C1677 H1684 0.961 . S
C1677 H1685 0.960 . S
C1678 C1676 1.381 . S
C1678 C1679 1.394 . S
C1678 H1686 0.930 . S
C1679 C1678 1.394 . S
C1679 C1680 1.383 . S
C1679 H1687 0.929 . S
C1680 C1679 1.383 . S
C1680 C1681 1.377 . S
C1681 H1665 0.930 . S
C1681 C1680 1.377 . S
C1681 C1682 1.379 . S
C1682 H1666 0.931 . S
C1682 C1676 1.383 . S
C1682 C1681 1.379 . S
H1683 C1677 0.959 . S
H1684 C1677 0.961 . S
H1685 C1677 0.960 . S
H1686 C1678 0.930 . S
H1687 C1679 0.929 . S
H1688 C1696 0.929 . S
H1689 C1698 0.930 . S
H1690 C1700 0.930 . S
H1691 C1703 0.929 . S
H1692 C1706 0.930 . S
H1693 C1708 0.960 . S
H1694 C1708 0.960 . S
H1695 C1708 0.960 . S
C1696 H1688 0.929 . S
C1696 C1697 1.377 . S
C1696 C1698 1.384 . S
C1697 C1696 1.377 . S
C1697 C1703 1.390 . S
C1698 H1689 0.930 . S
C1698 C1696 1.384 . S
C1698 C1699 1.372 . S
C1699 C1698 1.372 . S
C1699 C1700 1.400 . S
C1699 C1704 1.490 . S
C1700 H1690 0.930 . S
C1700 C1699 1.400 . S
C1700 C1703 1.386 . S
H1701 C1717 0.930 . S
H1702 C1718 0.931 . S
C1703 H1691 0.929 . S
C1703 C1697 1.390 . S
C1703 C1700 1.386 . S
C1704 C1699 1.490 . S
C1704 C1706 1.395 . S
C1704 C1707 1.403 . S
H1705 C1711 0.930 . S
C1706 H1692 0.930 . S
C1706 C1704 1.395 . S
C1706 C1709 1.403 . S
C1707 C1704 1.403 . S
C1707 C1708 1.524 . S
C1707 C1711 1.400 . S
C1708 H1693 0.960 . S
C1708 H1694 0.960 . S
C1708 H1695 0.960 . S
C1708 C1707 1.524 . S
C1709 C1706 1.403 . S
C1709 C1710 1.392 . S
C1709 C1713 1.495 . S
C1710 C1709 1.392 . S
C1710 C1711 1.385 . S
C1710 C1712 1.478 . S
C1711 H1705 0.930 . S
C1711 C1707 1.400 . S
C1711 C1710 1.385 . S
C1712 C1710 1.478 . S
C1712 C1714 1.381 . S
C1712 C1718 1.383 . S
C1713 C1709 1.495 . S
C1713 H1719 0.959 . S
C1713 H1720 0.961 . S
C1713 H1721 0.960 . S
C1714 C1712 1.381 . S
C1714 C1715 1.394 . S
C1714 H1722 0.930 . S
C1715 C1714 1.394 . S
C1715 C1716 1.383 . S
C1715 H1723 0.929 . S
C1716 C1715 1.383 . S
C1716 C1717 1.377 . S
C1717 H1701 0.930 . S
C1717 C1716 1.377 . S
C1717 C1718 1.379 . S
C1718 H1702 0.931 . S
C1718 C1712 1.383 . S
C1718 C1717 1.379 . S
H1719 C1713 0.959 . S
H1720 C1713 0.961 . S
H1721 C1713 0.960 . S
H1722 C1714 0.930 . S
H1723 C1715 0.929 . S
H1724 C1732 0.929 . S
H1725 C1734 0.930 . S
H1726 C1736 0.930 . S
H1727 C1739 0.929 . S
H1728 C1742 0.930 . S
H1729 C1744 0.960 . S
H1730 C1744 0.960 . S
H1731 C1744 0.960 . S
C1732 H1724 0.929 . S
C1732 C1733 1.377 . S
C1732 C1734 1.384 . S
C1733 C1732 1.377 . S
C1733 C1739 1.390 . S
C1734 H1725 0.930 . S
C1734 C1732 1.384 . S
C1734 C1735 1.372 . S
C1735 C1734 1.372 . S
C1735 C1736 1.400 . S
C1735 C1740 1.490 . S
C1736 H1726 0.930 . S
C1736 C1735 1.400 . S
C1736 C1739 1.386 . S
H1737 C1753 0.930 . S
H1738 C1754 0.931 . S
C1739 H1727 0.929 . S
C1739 C1733 1.390 . S
C1739 C1736 1.386 . S
C1740 C1735 1.490 . S
C1740 C1742 1.395 . S
C1740 C1743 1.403 . S
H1741 C1747 0.930 . S
C1742 H1728 0.930 . S
C1742 C1740 1.395 . S
C1742 C1745 1.403 . S
C1743 C1740 1.403 . S
C1743 C1744 1.524 . S
C1743 C1747 1.400 . S
C1744 H1729 0.960 . S
C1744 H1730 0.960 . S
C1744 H1731 0.960 . S
C1744 C1743 1.524 . S
C1745 C1742 1.403 . S
C1745 C1746 1.392 . S
C1745 C1749 1.495 . S
C1746 C1745 1.392 . S
C1746 C1747 1.385 . S
C1746 C1748 1.478 . S
C1747 H1741 0.930 . S
C1747 C1743 1.400 . S
C1747 C1746 1.385 . S
C1748 C1746 1.478 . S
C1748 C1750 1.381 . S
C1748 C1754 1.383 . S
C1749 C1745 1.495 . S
C1749 H1755 0.959 . S
C1749 H1756 0.961 . S
C1749 H1757 0.960 . S
C1750 C1748 1.381 . S
C1750 C1751 1.394 . S
C1750 H1758 0.930 . S
C1751 C1750 1.394 . S
C1751 C1752 1.383 . S
C1751 H1759 0.929 . S
C1752 C1751 1.383 . S
C1752 C1753 1.377 . S
C1753 H1737 0.930 . S
C1753 C1752 1.377 . S
C1753 C1754 1.379 . S
C1754 H1738 0.931 . S
C1754 C1748 1.383 . S
C1754 C1753 1.379 . S
H1755 C1749 0.959 . S
H1756 C1749 0.961 . S
H1757 C1749 0.960 . S
H1758 C1750 0.930 . S
H1759 C1751 0.929 . S
C636 C497 1.628 . S
C617 C47 1.516 . S
C672 C523 1.485 . S
C653 C115 1.450 . S
C708 C537 1.544 . S
C689 C153 1.422 . S
C744 C539 1.670 . S
C725 C233 1.563 . S
C761 C283 1.454 . S
C780 C536 1.481 . S
C816 C538 1.625 . S
C797 C357 1.526 . S
C852 C496 1.671 . S
C833 C401 1.556 . S
C888 C522 1.531 . S
C869 C463 1.407 . S
C924 C524 1.383 . S
C905 C469 1.348 . S
C960 C550 1.532 . S
C941 C277 1.439 . S
C996 C508 1.504 . S
C977 C363 1.490 . S
C1032 C510 1.350 . S
C1013 C407 1.332 . S
C1068 C509 1.532 . S
C1049 C109 1.434 . S
C1104 C511 1.373 . S
C1085 C159 1.348 . S
C1140 C525 1.353 . S
C1121 C239 1.322 . S
C1176 C551 1.514 . S
C1157 C53 1.497 . S
C1212 C553 1.622 . S
C1193 C481 1.527 . S
C1229 C301 1.452 . S
C1248 C579 1.482 . S
C1265 C339 1.420 . S
C1284 C592 1.541 . S
C1301 C419 1.556 . S
C1320 C595 1.683 . S
C1337 C97 1.448 . S
C1356 C593 1.490 . S
C1373 C171 1.523 . S
C1392 C594 1.620 . S
C1409 C215 1.559 . S
C1428 C552 1.679 . S
C1464 C578 1.543 . S
C1445 C29 1.421 . S
C1500 C581 1.383 . S
C1481 C35 1.348 . S
C1517 C91 1.435 . S
C1536 C606 1.530 . S
C1553 C177 1.497 . S
C1572 C564 1.512 . S
C1589 C221 1.335 . S
C1608 C566 1.354 . S
C1644 C565 1.529 . S
C1625 C295 1.428 . S
C1680 C567 1.377 . S
C1661 C345 1.343 . S
C1697 C425 1.321 . S
C1716 C580 1.352 . S
C1752 C607 1.506 . S
C1733 C487 1.491 . S
