# Generated by pormake.
# Topology pto, (3,4)-cn, num edge types: 1
# Building blocks:
#     Node 0, Type 0, BuildingBlock: WUSLED_clean_sbu_0, # of connection points: 3
#     Node 1, Type 0, BuildingBlock: WUSLED_clean_sbu_0, # of connection points: 3
#     Node 2, Type 0, BuildingBlock: WUSLED_clean_sbu_0, # of connection points: 3
#     Node 3, Type 0, BuildingBlock: WUSLED_clean_sbu_0, # of connection points: 3
#     Node 4, Type 0, BuildingBlock: WUSLED_clean_sbu_0, # of connection points: 3
#     Node 5, Type 0, BuildingBlock: WUSLED_clean_sbu_0, # of connection points: 3
#     Node 6, Type 0, BuildingBlock: WUSLED_clean_sbu_0, # of connection points: 3
#     Node 7, Type 0, BuildingBlock: WUSLED_clean_sbu_0, # of connection points: 3
#     Node 8, Type 1, BuildingBlock: AZAVOO_clean_linker_0, # of connection points: 4
#     Node 9, Type 1, BuildingBlock: AZAVOO_clean_linker_0, # of connection points: 4
#     Node 10, Type 1, BuildingBlock: AZAVOO_clean_linker_0, # of connection points: 4
#     Node 11, Type 1, BuildingBlock: AZAVOO_clean_linker_0, # of connection points: 4
#     Node 12, Type 1, BuildingBlock: AZAVOO_clean_linker_0, # of connection points: 4
#     Node 13, Type 1, BuildingBlock: AZAVOO_clean_linker_0, # of connection points: 4
#     Edge 14, Type (0, 1), BuildingBlock: KIFKEQ_clean_linker_1, # of connection points: 2
#     Edge 15, Type (0, 1), BuildingBlock: KIFKEQ_clean_linker_1, # of connection points: 2
#     Edge 16, Type (0, 1), BuildingBlock: KIFKEQ_clean_linker_1, # of connection points: 2
#     Edge 17, Type (0, 1), BuildingBlock: KIFKEQ_clean_linker_1, # of connection points: 2
#     Edge 18, Type (0, 1), BuildingBlock: KIFKEQ_clean_linker_1, # of connection points: 2
#     Edge 19, Type (0, 1), BuildingBlock: KIFKEQ_clean_linker_1, # of connection points: 2
#     Edge 20, Type (0, 1), BuildingBlock: KIFKEQ_clean_linker_1, # of connection points: 2
#     Edge 21, Type (0, 1), BuildingBlock: KIFKEQ_clean_linker_1, # of connection points: 2
#     Edge 22, Type (0, 1), BuildingBlock: KIFKEQ_clean_linker_1, # of connection points: 2
#     Edge 23, Type (0, 1), BuildingBlock: KIFKEQ_clean_linker_1, # of connection points: 2
#     Edge 24, Type (0, 1), BuildingBlock: KIFKEQ_clean_linker_1, # of connection points: 2
#     Edge 25, Type (0, 1), BuildingBlock: KIFKEQ_clean_linker_1, # of connection points: 2
#     Edge 26, Type (0, 1), BuildingBlock: KIFKEQ_clean_linker_1, # of connection points: 2
#     Edge 27, Type (0, 1), BuildingBlock: KIFKEQ_clean_linker_1, # of connection points: 2
#     Edge 28, Type (0, 1), BuildingBlock: KIFKEQ_clean_linker_1, # of connection points: 2
#     Edge 29, Type (0, 1), BuildingBlock: KIFKEQ_clean_linker_1, # of connection points: 2
#     Edge 30, Type (0, 1), BuildingBlock: KIFKEQ_clean_linker_1, # of connection points: 2
#     Edge 31, Type (0, 1), BuildingBlock: KIFKEQ_clean_linker_1, # of connection points: 2
#     Edge 32, Type (0, 1), BuildingBlock: KIFKEQ_clean_linker_1, # of connection points: 2
#     Edge 33, Type (0, 1), BuildingBlock: KIFKEQ_clean_linker_1, # of connection points: 2
#     Edge 34, Type (0, 1), BuildingBlock: KIFKEQ_clean_linker_1, # of connection points: 2
#     Edge 35, Type (0, 1), BuildingBlock: KIFKEQ_clean_linker_1, # of connection points: 2
#     Edge 36, Type (0, 1), BuildingBlock: KIFKEQ_clean_linker_1, # of connection points: 2
#     Edge 37, Type (0, 1), BuildingBlock: KIFKEQ_clean_linker_1, # of connection points: 2
# Relax obj value: 0.054
# Max RMSD: 0.243
# Mean RMSD: 0.095
data_MOF--net-pto--node1-WUSLED_clean_sbu_0--node2-AZAVOO_clean_linker_0--edge1-KIFKEQ_clean_linker_1
_symmetry_space_group_name_H-M    P1
_symmetry_Int_Tables_number       1
_symmetry_cell_setting            triclinic
loop_
_symmetry_equiv_pos_as_xyz
'x, y, z'
_cell_length_a     61.632083
_cell_length_b     61.502705
_cell_length_c     61.193748
_cell_angle_alpha  89.178997
_cell_angle_beta   90.360581
_cell_angle_gamma 91.511363
loop_
_atom_site_label
_atom_site_type_symbol
_atom_site_fract_x
_atom_site_fract_y
_atom_site_fract_z
_atom_type_partial_charge
C0 C 0.24858 0.25403 0.29624 0.0
C1 C 0.26168 0.23637 0.2916 0.0
C2 C 0.25208 0.21916 0.3265 0.0
C3 C 0.26337 0.21907 0.30656 0.0
C4 C 0.2391 0.23704 0.33106 0.0
C5 C 0.23737 0.25428 0.31605 0.0
U6 U 0.26865 0.28546 0.24608 0.0
O7 O 0.25087 0.30086 0.21901 0.0
O8 O 0.27223 0.32076 0.24 0.0
C9 C 0.25766 0.32058 0.22423 0.0
C10 C 0.24674 0.27236 0.28069 0.0
C11 C 0.2408 0.337 0.22574 0.0
C12 C 0.20484 0.34794 0.23656 0.0
C13 C 0.22074 0.33214 0.23567 0.0
C14 C 0.22903 0.37373 0.21802 0.0
C15 C 0.2088 0.36892 0.22772 0.0
C16 C 0.24484 0.3579 0.21702 0.0
C17 C 0.31837 0.26447 0.21628 0.0
C18 C 0.32995 0.27575 0.17984 0.0
C19 C 0.35392 0.25497 0.20316 0.0
C20 C 0.33827 0.25443 0.21959 0.0
C21 C 0.34992 0.26555 0.18306 0.0
C22 C 0.31432 0.27529 0.19637 0.0
C23 C 0.30208 0.26319 0.23374 0.0
O24 O 0.26267 0.28695 0.28145 0.0
O25 O 0.24113 0.2671 0.26064 0.0
O26 O 0.28203 0.25863 0.22754 0.0
O27 O 0.30349 0.27862 0.24835 0.0
H28 H 0.27053 0.23595 0.27637 0.0
H29 H 0.27331 0.20549 0.30237 0.0
H30 H 0.23047 0.23786 0.34638 0.0
H31 H 0.22732 0.26787 0.31996 0.0
H32 H 0.18952 0.34381 0.24437 0.0
H33 H 0.21736 0.31614 0.24267 0.0
H34 H 0.2325 0.38965 0.21087 0.0
H35 H 0.26023 0.36194 0.2093 0.0
H36 H 0.32648 0.2842 0.16462 0.0
H37 H 0.36899 0.2467 0.20606 0.0
H38 H 0.34165 0.24598 0.23485 0.0
H39 H 0.29907 0.28328 0.19359 0.0
C40 C 0.24555 0.82012 0.72724 0.0
C41 C 0.25306 0.84095 0.73333 0.0
C42 C 0.25207 0.85321 0.69521 0.0
C43 C 0.25621 0.85739 0.71744 0.0
C44 C 0.24465 0.83228 0.68928 0.0
C45 C 0.2414 0.81596 0.70513 0.0
U46 U 0.25817 0.78874 0.78075 0.0
O47 O 0.23586 0.77236 0.80396 0.0
O48 O 0.25937 0.75328 0.78607 0.0
C49 C 0.24265 0.75288 0.7993 0.0
C50 C 0.24179 0.80243 0.74342 0.0
C51 C 0.22582 0.73592 0.79505 0.0
C52 C 0.18929 0.72454 0.78397 0.0
C53 C 0.20516 0.741 0.78691 0.0
C54 C 0.21468 0.69773 0.79678 0.0
C55 C 0.19387 0.70271 0.78894 0.0
C56 C 0.23044 0.71417 0.79984 0.0
C57 C 0.30406 0.80632 0.81941 0.0
C58 C 0.32421 0.78266 0.84396 0.0
C59 C 0.32401 0.82142 0.85036 0.0
C60 C 0.31066 0.82423 0.83199 0.0
C61 C 0.33117 0.80063 0.85638 0.0
C62 C 0.31069 0.78545 0.82573 0.0
C63 C 0.2907 0.80974 0.79958 0.0
O64 O 0.25704 0.78794 0.7448 0.0
O65 O 0.23421 0.80793 0.76256 0.0
O66 O 0.2703 0.81442 0.80288 0.0
O67 O 0.29318 0.79571 0.78383 0.0
H68 H 0.2565 0.8445 0.75031 0.0
H69 H 0.26213 0.87327 0.72253 0.0
H70 H 0.24101 0.82858 0.67237 0.0
H71 H 0.23555 0.80002 0.7001 0.0
H72 H 0.1735 0.72888 0.77769 0.0
H73 H 0.20122 0.75767 0.78297 0.0
H74 H 0.21866 0.68114 0.80103 0.0
H75 H 0.24624 0.70991 0.8062 0.0
H76 H 0.32922 0.76641 0.84835 0.0
H77 H 0.32922 0.8356 0.8595 0.0
H78 H 0.3057 0.84046 0.82744 0.0
H79 H 0.30562 0.77131 0.81646 0.0
C80 C 0.71906 0.78361 0.24277 0.0
C81 C 0.72158 0.77085 0.22419 0.0
C82 C 0.68577 0.78099 0.21091 0.0
C83 C 0.70508 0.76955 0.20839 0.0
C84 C 0.68336 0.79367 0.22968 0.0
C85 C 0.69987 0.79495 0.24543 0.0
U86 U 0.77379 0.76738 0.26718 0.0
O87 O 0.79979 0.78765 0.28172 0.0
O88 O 0.78318 0.76245 0.30167 0.0
C89 C 0.79727 0.77885 0.30127 0.0
C90 C 0.73626 0.78538 0.25947 0.0
C91 C 0.796 0.79418 0.31942 0.0
C92 C 0.78358 0.82782 0.33483 0.0
C93 C 0.7835 0.81288 0.31778 0.0
C94 C 0.80814 0.80518 0.35552 0.0
C95 C 0.79611 0.82427 0.35381 0.0
C96 C 0.8081 0.79032 0.33846 0.0
C97 C 0.80882 0.72545 0.24114 0.0
C98 C 0.84475 0.71864 0.2559 0.0
C99 C 0.8304 0.69677 0.22624 0.0
C100 C 0.8113 0.70858 0.22631 0.0
C101 C 0.84739 0.70167 0.24102 0.0
C102 C 0.82562 0.73039 0.25597 0.0
C103 C 0.78873 0.73783 0.24112 0.0
O104 O 0.73849 0.76818 0.27221 0.0
O105 O 0.75489 0.79385 0.25272 0.0
O106 O 0.79135 0.75885 0.23748 0.0
O107 O 0.77541 0.73318 0.25732 0.0
H108 H 0.73634 0.76199 0.22188 0.0
H109 H 0.7076 0.75985 0.19404 0.0
H110 H 0.66862 0.80243 0.23233 0.0
H111 H 0.69763 0.80482 0.25973 0.0
H112 H 0.77429 0.84243 0.33287 0.0
H113 H 0.77399 0.8161 0.30319 0.0
H114 H 0.81765 0.80172 0.37004 0.0
H115 H 0.81775 0.7759 0.34004 0.0
H116 H 0.85756 0.72305 0.26732 0.0
H117 H 0.83173 0.68361 0.2148 0.0
H118 H 0.79843 0.70449 0.21482 0.0
H119 H 0.82397 0.7434 0.26755 0.0
C120 C 0.82111 0.14514 0.78208 0.0
C121 C 0.83354 0.15357 0.76463 0.0
C122 C 0.82683 0.12029 0.74434 0.0
C123 C 0.8363 0.14127 0.74588 0.0
C124 C 0.81517 0.11157 0.76226 0.0
C125 C 0.81227 0.12396 0.78096 0.0
U126 U 0.83257 0.19552 0.8158 0.0
O127 O 0.81039 0.2195 0.82852 0.0
O128 O 0.83036 0.20059 0.85133 0.0
C129 C 0.81454 0.21438 0.84902 0.0
C130 C 0.81629 0.15877 0.80086 0.0
C131 C 0.79528 0.21018 0.86262 0.0
C132 C 0.75881 0.1949 0.86723 0.0
C133 C 0.77807 0.19671 0.85529 0.0
C134 C 0.77423 0.21911 0.89446 0.0
C135 C 0.75649 0.2065 0.88671 0.0
C136 C 0.79342 0.22098 0.88247 0.0
C137 C 0.87808 0.23515 0.79911 0.0
C138 C 0.88048 0.27201 0.81283 0.0
C139 C 0.90913 0.25858 0.7901 0.0
C140 C 0.89804 0.23852 0.78863 0.0
C141 C 0.90035 0.27564 0.802 0.0
C142 C 0.86947 0.2519 0.81145 0.0
C143 C 0.86598 0.21446 0.79635 0.0
O144 O 0.83124 0.15965 0.81627 0.0
O145 O 0.80851 0.17789 0.79575 0.0
O146 O 0.84588 0.21633 0.78945 0.0
O147 O 0.86797 0.20013 0.81234 0.0
H148 H 0.84061 0.16986 0.76529 0.0
H149 H 0.84558 0.14829 0.73242 0.0
H150 H 0.80755 0.09553 0.76147 0.0
H151 H 0.80264 0.11723 0.79431 0.0
H152 H 0.74544 0.18518 0.8607 0.0
H153 H 0.77926 0.18821 0.83998 0.0
H154 H 0.77315 0.2279 0.9096 0.0
H155 H 0.8066 0.23135 0.88841 0.0
H156 H 0.87345 0.28473 0.82234 0.0
H157 H 0.92427 0.26093 0.78139 0.0
H158 H 0.90487 0.22576 0.779 0.0
H159 H 0.85409 0.24951 0.81974 0.0
C160 C 0.82254 0.71178 0.78203 0.0
C161 C 0.83705 0.7129 0.76444 0.0
C162 C 0.85764 0.68323 0.78043 0.0
C163 C 0.85444 0.69874 0.76364 0.0
C164 C 0.84296 0.68223 0.79799 0.0
C165 C 0.82559 0.69637 0.79875 0.0
U166 U 0.79207 0.76075 0.76042 0.0
O167 O 0.75703 0.76628 0.75765 0.0
O168 O 0.7775 0.7876 0.77809 0.0
C169 C 0.75769 0.78217 0.77181 0.0
C170 C 0.80446 0.72682 0.78334 0.0
C171 C 0.74141 0.78079 0.78929 0.0
C172 C 0.72359 0.76141 0.81939 0.0
C173 C 0.73911 0.76221 0.80274 0.0
C174 C 0.71268 0.79779 0.80933 0.0
C175 C 0.71024 0.77925 0.82294 0.0
C176 C 0.7281 0.79852 0.79268 0.0
C177 C 0.8137 0.7914 0.70991 0.0
C178 C 0.79583 0.8227 0.69404 0.0
C179 C 0.83018 0.81138 0.67953 0.0
C180 C 0.83057 0.79433 0.69486 0.0
C181 C 0.81285 0.82583 0.67897 0.0
C182 C 0.79628 0.80564 0.70943 0.0
C183 C 0.81474 0.77366 0.7262 0.0
O184 O 0.81003 0.74694 0.78827 0.0
O185 O 0.7901 0.72556 0.7674 0.0
O186 O 0.79897 0.75888 0.72527 0.0
O187 O 0.81939 0.77971 0.74623 0.0
H188 H 0.83493 0.72475 0.75138 0.0
H189 H 0.86525 0.6998 0.74976 0.0
H190 H 0.84509 0.67076 0.81137 0.0
H191 H 0.8146 0.69538 0.81251 0.0
H192 H 0.72228 0.74699 0.82971 0.0
H193 H 0.74936 0.74839 0.80042 0.0
H194 H 0.70248 0.81167 0.8114 0.0
H195 H 0.72964 0.81298 0.78242 0.0
H196 H 0.78237 0.83367 0.6942 0.0
H197 H 0.84337 0.81313 0.66798 0.0
H198 H 0.84412 0.78345 0.695 0.0
H199 H 0.78315 0.80364 0.72103 0.0
C200 C 0.67955 0.27566 0.26801 0.0
C201 C 0.68108 0.29016 0.25016 0.0
C202 C 0.64872 0.27339 0.23387 0.0
C203 C 0.66579 0.28903 0.23322 0.0
C204 C 0.64679 0.25949 0.25227 0.0
C205 C 0.66214 0.26059 0.26918 0.0
U206 U 0.73263 0.29834 0.29091 0.0
O207 O 0.74435 0.30156 0.32482 0.0
O208 O 0.76186 0.28153 0.30174 0.0
C209 C 0.75997 0.28771 0.32208 0.0
C210 C 0.69687 0.27513 0.28457 0.0
C211 C 0.76132 0.27007 0.33839 0.0
C212 C 0.74662 0.2369 0.3552 0.0
C213 C 0.74433 0.25464 0.34088 0.0
C214 C 0.78276 0.25011 0.3649 0.0
C215 C 0.76599 0.23428 0.36719 0.0
C216 C 0.78042 0.26784 0.35062 0.0
C217 C 0.76096 0.3465 0.26304 0.0
C218 C 0.79594 0.35987 0.27641 0.0
C219 C 0.78109 0.3744 0.24263 0.0
C220 C 0.76274 0.36074 0.24504 0.0
C221 C 0.79797 0.37403 0.25823 0.0
C222 C 0.77761 0.34618 0.27877 0.0
C223 C 0.74223 0.33136 0.26481 0.0
O224 O 0.71589 0.26973 0.27706 0.0
O225 O 0.698 0.29178 0.29781 0.0
O226 O 0.73044 0.33314 0.28251 0.0
O227 O 0.74634 0.31112 0.26011 0.0
H228 H 0.69443 0.30194 0.24905 0.0
H229 H 0.66756 0.30013 0.2194 0.0
H230 H 0.63395 0.24714 0.25316 0.0
H231 H 0.66079 0.24924 0.28283 0.0
H232 H 0.73329 0.22517 0.35678 0.0
H233 H 0.72948 0.25611 0.33146 0.0
H234 H 0.79799 0.24847 0.37361 0.0
H235 H 0.79376 0.27954 0.34873 0.0
H236 H 0.80875 0.35899 0.28856 0.0
H237 H 0.78205 0.3853 0.22859 0.0
H238 H 0.75003 0.36113 0.23274 0.0
H239 H 0.77655 0.33513 0.29269 0.0
C240 C 0.26557 0.23988 0.70936 0.0
C241 C 0.2812 0.22411 0.7134 0.0
C242 C 0.26745 0.20285 0.68269 0.0
C243 C 0.28215 0.20577 0.70018 0.0
C244 C 0.25186 0.21881 0.67874 0.0
C245 C 0.25095 0.23713 0.69195 0.0
U246 U 0.28387 0.27123 0.75953 0.0
O247 O 0.28976 0.30635 0.76436 0.0
O248 O 0.26522 0.28857 0.78394 0.0
C249 C 0.27421 0.30757 0.77886 0.0
C250 C 0.26416 0.259 0.72341 0.0
C251 C 0.25916 0.32556 0.77583 0.0
C252 C 0.22614 0.34053 0.76058 0.0
C253 C 0.24101 0.32371 0.76196 0.0
C254 C 0.24776 0.3614 0.78644 0.0
C255 C 0.22922 0.3595 0.773 0.0
C256 C 0.26255 0.34458 0.78784 0.0
C257 C 0.32716 0.24671 0.7967 0.0
C258 C 0.34243 0.26557 0.82811 0.0
C259 C 0.35058 0.22777 0.82223 0.0
C260 C 0.33777 0.22785 0.80331 0.0
C261 C 0.35302 0.2466 0.8349 0.0
C262 C 0.32953 0.2656 0.80919 0.0
C263 C 0.31334 0.2462 0.77706 0.0
O264 O 0.25621 0.25503 0.74299 0.0
O265 O 0.28143 0.27201 0.72363 0.0
O266 O 0.31779 0.26113 0.76205 0.0
O267 O 0.29245 0.24355 0.78073 0.0
H268 H 0.29264 0.22598 0.72681 0.0
H269 H 0.29453 0.19399 0.70355 0.0
H270 H 0.24008 0.21696 0.66565 0.0
H271 H 0.23871 0.2491 0.68867 0.0
H272 H 0.21219 0.33865 0.74986 0.0
H273 H 0.23817 0.30914 0.7525 0.0
H274 H 0.25052 0.3756 0.79645 0.0
H275 H 0.27645 0.34625 0.79869 0.0
H276 H 0.34382 0.28027 0.83761 0.0
H277 H 0.35876 0.213 0.82682 0.0
H278 H 0.3361 0.21313 0.79385 0.0
H279 H 0.3213 0.28028 0.80437 0.0
C280 C 0.23023 0.73025 0.28162 0.0
C281 C 0.23054 0.72089 0.26085 0.0
C282 C 0.20025 0.69647 0.27088 0.0
C283 C 0.21564 0.70418 0.25549 0.0
C284 C 0.20018 0.70588 0.29171 0.0
C285 C 0.21502 0.7226 0.297 0.0
U286 U 0.28098 0.76594 0.27086 0.0
O287 O 0.28611 0.80121 0.27468 0.0
O288 O 0.3056 0.77854 0.29401 0.0
C289 C 0.30033 0.79888 0.29058 0.0
C290 C 0.24546 0.74808 0.2875 0.0
C291 C 0.29641 0.81161 0.31031 0.0
C292 C 0.27378 0.82094 0.34105 0.0
C293 C 0.27746 0.80827 0.32265 0.0
C294 C 0.30807 0.84021 0.33508 0.0
C295 C 0.28902 0.83714 0.34747 0.0
C296 C 0.31169 0.82757 0.3167 0.0
C297 C 0.31468 0.75492 0.21935 0.0
C298 C 0.34692 0.77567 0.20799 0.0
C299 C 0.33321 0.74589 0.18591 0.0
C300 C 0.31644 0.74199 0.20083 0.0
C301 C 0.34861 0.76285 0.18919 0.0
C302 C 0.33004 0.77176 0.22293 0.0
C303 C 0.2965 0.75058 0.23442 0.0
O304 O 0.26506 0.74222 0.29325 0.0
O305 O 0.24549 0.76519 0.27438 0.0
O306 O 0.28168 0.76554 0.23493 0.0
O307 O 0.30164 0.74297 0.2539 0.0
H308 H 0.24226 0.72654 0.24878 0.0
H309 H 0.2163 0.69714 0.2394 0.0
H310 H 0.1884 0.70057 0.30385 0.0
H311 H 0.21452 0.72967 0.31311 0.0
H312 H 0.25907 0.81796 0.35032 0.0
H313 H 0.2655 0.79595 0.31797 0.0
H314 H 0.32 0.85272 0.33931 0.0
H315 H 0.32638 0.83041 0.30733 0.0
H316 H 0.3584 0.78895 0.21093 0.0
H317 H 0.33422 0.73545 0.17186 0.0
H318 H 0.30477 0.72887 0.19785 0.0
H319 H 0.32889 0.78193 0.23717 0.0
H320 H 0.02498 0.37884 0.24765 0.0
H321 H 0.87917 0.57785 0.2164 0.0
H322 H 0.05246 0.49507 0.26844 0.0
H323 H 0.0854 0.4738 0.26688 0.0
H324 H 0.09245 0.49109 0.19856 0.0
H325 H 0.05934 0.51234 0.20031 0.0
H326 H 1.00815 0.46971 0.26711 0.0
H327 H 0.01354 0.43047 0.26534 0.0
H328 H 0.03118 0.43764 0.19727 0.0
H329 H 0.0255 0.4768 0.19923 0.0
H330 H 0.96888 0.4986 0.27172 0.0
H331 H 0.93622 0.47542 0.2751 0.0
H332 H 0.93967 0.46078 0.20633 0.0
H333 H 0.97269 0.48379 0.20327 0.0
H334 H 0.9675 0.54571 0.27025 0.0
H335 H 0.93198 0.56259 0.27045 0.0
H336 H 0.92533 0.55114 0.20113 0.0
H337 H 0.96099 0.53448 0.20116 0.0
H338 H 1.00695 0.57162 0.26993 0.0
H339 H 0.98612 0.60486 0.27237 0.0
H340 H 0.97525 0.60381 0.20257 0.0
H341 H 0.99618 0.57078 0.20034 0.0
H342 H 0.05618 0.54179 0.26934 0.0
H343 H 0.08674 0.56762 0.27311 0.0
H344 H 0.07393 0.59286 0.20814 0.0
H345 H 0.04323 0.56694 0.2046 0.0
O346 O 0.02288 0.39436 0.24798 0.0
O347 O 0.03195 0.39897 0.21307 0.0
O348 O 0.89748 0.57669 0.25241 0.0
O349 O 0.89304 0.57081 0.21687 0.0
C350 C 0.03153 0.51438 0.23455 0.0
C351 C 0.01332 0.49983 0.23441 0.0
C352 C 0.99217 0.50792 0.23532 0.0
C353 C 0.98913 0.53051 0.23524 0.0
C354 C 1.00724 0.54515 0.23479 0.0
C355 C 0.02853 0.53714 0.23495 0.0
C356 C 0.05361 0.50531 0.23452 0.0
C357 C 0.06146 0.49473 0.2533 0.0
C358 C 0.08026 0.48258 0.25236 0.0
C359 C 0.09144 0.48066 0.23255 0.0
C360 C 0.08405 0.49211 0.21399 0.0
C361 C 0.06531 0.50442 0.215 0.0
C362 C 0.01642 0.47603 0.2333 0.0
C363 C 0.01308 0.46273 0.25183 0.0
C364 C 0.01622 0.44035 0.25077 0.0
C365 C 0.0228 0.43091 0.23116 0.0
C366 C 0.02612 0.44437 0.21262 0.0
C367 C 0.02291 0.46673 0.2137 0.0
C368 C 0.97308 0.49285 0.23727 0.0
C369 C 0.96262 0.49027 0.25743 0.0
C370 C 0.94389 0.47715 0.25928 0.0
C371 C 0.93521 0.46638 0.24094 0.0
C372 C 0.94603 0.46869 0.2208 0.0
C373 C 0.96482 0.48185 0.21899 0.0
C374 C 0.9668 0.539 0.23567 0.0
C375 C 0.95827 0.54676 0.25517 0.0
C376 C 0.93801 0.55642 0.25522 0.0
C377 C 0.92587 0.55833 0.23577 0.0
C378 C 0.93428 0.55 0.21637 0.0
C379 C 0.95458 0.54039 0.21634 0.0
C380 C 1.00304 0.56879 0.23497 0.0
C381 C 1.00103 0.57922 0.25505 0.0
C382 C 0.98882 0.598 0.25644 0.0
C383 C 0.97866 0.60668 0.23772 0.0
C384 C 0.9829 0.59759 0.21728 0.0
C385 C 0.995 0.57877 0.21593 0.0
C386 C 0.04751 0.55243 0.23668 0.0
C387 C 0.06011 0.55276 0.25584 0.0
C388 C 0.07761 0.5675 0.25793 0.0
C389 C 0.08285 0.58232 0.24091 0.0
C390 C 0.07021 0.58185 0.22165 0.0
C391 C 0.05272 0.56702 0.21956 0.0
C392 C 0.02617 0.40714 0.2301 0.0
C393 C 0.90462 0.56914 0.23562 0.0
H394 H 0.08892 0.37408 0.81829 0.0
H395 H 0.88615 0.50789 0.76398 0.0
H396 H 0.07768 0.48998 0.82125 0.0
H397 H 0.11233 0.47162 0.81978 0.0
H398 H 0.11338 0.48093 0.74968 0.0
H399 H 0.07884 0.49953 0.75139 0.0
H400 H 0.04129 0.45483 0.82392 0.0
H401 H 0.0594 0.42003 0.82796 0.0
H402 H 0.07509 0.42217 0.75916 0.0
H403 H 0.05667 0.45681 0.75532 0.0
H404 H 0.99193 0.46741 0.82185 0.0
H405 H 0.97132 0.43293 0.82539 0.0
H406 H 0.98686 0.41796 0.75855 0.0
H407 H 1.00775 0.45223 0.7554 0.0
H408 H 0.98061 0.5178 0.81737 0.0
H409 H 0.94125 0.5221 0.81638 0.0
H410 H 0.93912 0.49622 0.75102 0.0
H411 H 0.97853 0.49228 0.75215 0.0
H412 H 0.01582 0.55188 0.81565 0.0
H413 H 0.9921 0.58328 0.81472 0.0
H414 H 0.97652 0.57035 0.74711 0.0
H415 H 1.00041 0.53922 0.74818 0.0
H416 H 0.06794 0.53563 0.8178 0.0
H417 H 0.09214 0.56783 0.81727 0.0
H418 H 0.07382 0.58078 0.75013 0.0
H419 H 0.04995 0.54824 0.75073 0.0
O420 O 0.08137 0.38757 0.81622 0.0
O421 O 0.08929 0.38962 0.78083 0.0
O422 O 0.90371 0.51961 0.79842 0.0
O423 O 0.90172 0.50631 0.76484 0.0
C424 C 0.05189 0.49899 0.78635 0.0
C425 C 0.03816 0.48018 0.78736 0.0
C426 C 0.01545 0.48211 0.78692 0.0
C427 C 1.00634 0.50285 0.78522 0.0
C428 C 0.01999 0.52174 0.78392 0.0
C429 C 0.04284 0.51985 0.78473 0.0
C430 C 0.07572 0.49602 0.78642 0.0
C431 C 0.08591 0.48897 0.80572 0.0
C432 C 0.10553 0.47817 0.80479 0.0
C433 C 0.11532 0.47434 0.78455 0.0
C434 C 0.10628 0.48362 0.76552 0.0
C435 C 0.0866 0.49441 0.76647 0.0
C436 C 0.04775 0.45831 0.78936 0.0
C437 C 0.04845 0.44761 0.80971 0.0
C438 C 0.05889 0.4278 0.81198 0.0
C439 C 0.0688 0.41837 0.7939 0.0
C440 C 0.06768 0.429 0.77342 0.0
C441 C 0.05716 0.44876 0.77117 0.0
C442 C 1.00132 0.46224 0.78839 0.0
C443 C 0.99064 0.45674 0.80794 0.0
C444 C 0.97885 0.43708 0.80989 0.0
C445 C 0.97756 0.42259 0.79229 0.0
C446 C 0.98785 0.42853 0.77254 0.0
C447 C 0.99964 0.44816 0.77063 0.0
C448 C 0.98238 0.50479 0.78481 0.0
C449 C 0.9716 0.51311 0.80285 0.0
C450 C 0.94913 0.51551 0.80225 0.0
C451 C 0.93703 0.50952 0.7836 0.0
C452 C 0.94793 0.501 0.76563 0.0
C453 C 0.97042 0.49867 0.76624 0.0
C454 C 0.00985 0.54332 0.78198 0.0
C455 C 1.0078 0.55627 0.80048 0.0
C456 C 0.99406 0.57402 0.79997 0.0
C457 C 0.98224 0.57916 0.7809 0.0
C458 C 0.9855 0.56696 0.76199 0.0
C459 C 0.99915 0.54918 0.76255 0.0
C460 C 0.05724 0.53958 0.7843 0.0
C461 C 0.0692 0.54542 0.80298 0.0
C462 C 0.08287 0.56391 0.80268 0.0
C463 C 0.08489 0.57692 0.78366 0.0
C464 C 0.07281 0.57101 0.76497 0.0
C465 C 0.05907 0.55252 0.76531 0.0
C466 C 0.08042 0.39765 0.79649 0.0
C467 C 0.91317 0.51214 0.78282 0.0
H468 H 0.24145 0.98921 0.36652 0.0
H469 H 0.29071 0.16818 0.5399 0.0
H470 H 0.23154 0.98364 0.48364 0.0
H471 H 0.23281 0.95007 0.46279 0.0
H472 H 0.30139 0.94614 0.47689 0.0
H473 H 0.29985 0.97964 0.49793 0.0
H474 H 0.23136 0.02456 0.45402 0.0
H475 H 0.22934 0.01172 0.41636 0.0
H476 H 0.29681 0.99432 0.42018 0.0
H477 H 0.29865 1.00748 0.45772 0.0
H478 H 0.23125 0.06942 0.47578 0.0
H479 H 0.22905 0.09813 0.44786 0.0
H480 H 0.29636 0.08894 0.43167 0.0
H481 H 0.29815 0.05983 0.45936 0.0
H482 H 0.23398 0.07578 0.52379 0.0
H483 H 0.23542 0.11359 0.53578 0.0
H484 H 0.30341 0.11821 0.51876 0.0
H485 H 0.30176 0.08028 0.50708 0.0
H486 H 0.23445 0.03977 0.55415 0.0
H487 H 0.23412 0.06364 0.58587 0.0
H488 H 0.30336 0.0745 0.57986 0.0
H489 H 0.30351 0.05061 0.54827 0.0
H490 H 0.23331 0.98664 0.5323 0.0
H491 H 0.23172 0.95989 0.56232 0.0
H492 H 0.29805 0.97682 0.57969 0.0
H493 H 0.29958 1.00325 0.54934 0.0
O494 O 0.24271 0.99457 0.38128 0.0
O495 O 0.27738 0.98574 0.38417 0.0
O496 O 0.25466 0.15001 0.54359 0.0
O497 O 0.28958 0.15333 0.5349 0.0
C498 C 0.26616 1.00735 0.49862 0.0
C499 C 0.26592 0.02346 0.4818 0.0
C500 C 0.26616 0.04569 0.48707 0.0
C501 C 0.26727 0.05191 0.50911 0.0
C502 C 0.26799 0.03594 0.52599 0.0
C503 C 0.26714 0.01357 0.52082 0.0
C504 C 0.2656 0.98409 0.4923 0.0
C505 C 0.24665 0.97507 0.48292 0.0
C506 C 0.24748 0.95605 0.47075 0.0
C507 C 0.26729 0.94565 0.4678 0.0
C508 C 0.28586 0.95369 0.47888 0.0
C509 C 0.28501 0.97277 0.49103 0.0
C510 C 0.26514 0.01693 0.45854 0.0
C511 C 0.24573 0.01819 0.44659 0.0
C512 C 0.2446 0.01074 0.42513 0.0
C513 C 0.26289 1.00191 0.41528 0.0
C514 C 0.28242 1.00099 0.42727 0.0
C515 C 0.28353 1.00851 0.44869 0.0
C516 C 0.26485 0.06259 0.46957 0.0
C517 C 0.24547 0.07358 0.46612 0.0
C518 C 0.24431 0.09008 0.45026 0.0
C519 C 0.26257 0.09598 0.43757 0.0
C520 C 0.28192 0.08468 0.44094 0.0
C521 C 0.28303 0.06812 0.4568 0.0
C522 C 0.26778 0.07534 0.51467 0.0
C523 C 0.24912 0.08505 0.52258 0.0
C524 C 0.25001 0.10662 0.52943 0.0
C525 C 0.26957 0.11891 0.52832 0.0
C526 C 0.28811 0.10921 0.5199 0.0
C527 C 0.28721 0.0876 0.51312 0.0
C528 C 0.269 0.04342 0.54895 0.0
C529 C 0.24967 0.04652 0.56031 0.0
C530 C 0.24947 0.06042 0.5782 0.0
C531 C 0.26866 0.07124 0.58512 0.0
C532 C 0.28834 0.06636 0.57501 0.0
C533 C 0.28848 0.05259 0.55703 0.0
C534 C 0.26657 0.99686 0.5386 0.0
C535 C 0.24754 0.98444 0.5425 0.0
C536 C 0.24661 0.96931 0.55978 0.0
C537 C 0.26473 0.96626 0.57349 0.0
C538 C 0.28387 0.97861 0.56935 0.0
C539 C 0.28475 0.99379 0.55209 0.0
C540 C 0.26152 0.99359 0.39266 0.0
C541 C 0.27072 0.14167 0.53606 0.0
H542 H 0.49753 0.80709 0.86857 0.0
H543 H 0.66928 0.75119 0.03986 0.0
H544 H 0.4916 0.8195 0.9857 0.0
H545 H 0.45703 0.82194 0.96646 0.0
H546 H 0.44063 0.75575 0.98621 0.0
H547 H 0.4759 0.75325 1.00466 0.0
H548 H 0.53237 0.81587 0.95725 0.0
H549 H 0.52064 0.81819 0.91903 0.0
H550 H 0.4909 0.75389 0.92486 0.0
H551 H 0.50301 0.75168 0.96297 0.0
H552 H 0.57702 0.81231 0.98069 0.0
H553 H 0.60471 0.81156 0.95219 0.0
H554 H 0.58236 0.7469 0.93466 0.0
H555 H 0.55494 0.7477 0.96348 0.0
H556 H 0.58027 0.81028 0.03139 0.0
H557 H 0.61834 0.80721 0.04233 0.0
H558 H 0.61753 0.74089 0.01968 0.0
H559 H 0.57937 0.74413 1.00906 0.0
H560 H 0.54206 0.81113 0.06052 0.0
H561 H 0.56352 0.80994 0.09432 0.0
H562 H 0.57287 0.74124 0.08543 0.0
H563 H 0.55176 0.74275 0.05151 0.0
H564 H 0.48977 0.81402 0.03749 0.0
H565 H 0.4623 0.81316 0.0663 0.0
H566 H 0.47694 0.74612 0.08081 0.0
H567 H 0.50439 0.74722 0.0521 0.0
O568 O 0.50218 0.80576 0.88367 0.0
O569 O 0.48704 0.77272 0.88757 0.0
O570 O 0.65381 0.787 0.04711 0.0
O571 O 0.65431 0.75289 0.03558 0.0
C572 C 0.50941 0.7832 1.00289 0.0
C573 C 0.52523 0.78246 0.9862 0.0
C574 C 0.54737 0.78052 0.99164 0.0
C575 C 0.55374 0.77907 0.01376 0.0
C576 C 0.53795 0.77902 0.0305 0.0
C577 C 0.51571 0.7811 0.02512 0.0
C578 C 0.48633 0.78617 0.99648 0.0
C579 C 0.48029 0.80572 0.98635 0.0
C580 C 0.46043 0.80707 0.97537 0.0
C581 C 0.44604 0.78894 0.97449 0.0
C582 C 0.45148 0.76989 0.98614 0.0
C583 C 0.47149 0.76851 0.997 0.0
C584 C 0.51854 0.78362 0.96284 0.0
C585 C 0.52346 0.80226 0.95018 0.0
C586 C 0.51667 0.80355 0.92838 0.0
C587 C 0.5048 0.78623 0.91889 0.0
C588 C 0.5 0.76753 0.93166 0.0
C589 C 0.50687 0.76623 0.95342 0.0
C590 C 0.564 0.78007 0.97414 0.0
C591 C 0.57815 0.79799 0.9707 0.0
C592 C 0.59385 0.79757 0.95433 0.0
C593 C 0.59573 0.77917 0.94112 0.0
C594 C 0.5815 0.76122 0.94468 0.0
C595 C 0.56574 0.76169 0.96102 0.0
C596 C 0.5771 0.77741 0.0195 0.0
C597 C 0.58836 0.79511 0.02882 0.0
C598 C 0.61009 0.79331 0.03503 0.0
C599 C 0.62097 0.77377 0.03192 0.0
C600 C 0.60965 0.75615 0.02233 0.0
C601 C 0.58789 0.75797 0.01618 0.0
C602 C 0.54538 0.77704 0.05357 0.0
C603 C 0.54812 0.7957 0.0663 0.0
C604 C 0.56048 0.79498 0.08557 0.0
C605 C 0.57026 0.77556 0.09238 0.0
C606 C 0.56598 0.75655 0.08041 0.0
C607 C 0.55367 0.75729 0.06119 0.0
C608 C 0.49912 0.78069 0.04269 0.0
C609 C 0.487 0.79916 0.04689 0.0
C610 C 0.47127 0.7986 0.06332 0.0
C611 C 0.46741 0.77957 0.07592 0.0
C612 C 0.47969 0.76114 0.07168 0.0
C613 C 0.49534 0.7617 0.05521 0.0
C614 C 0.49744 0.78774 0.89579 0.0
C615 C 0.644 0.77171 0.03867 0.0
H616 H 0.77424 0.01696 0.3694 0.0
H617 H 0.83925 0.15718 0.56056 0.0
H618 H 0.77247 0.98353 0.48395 0.0
H619 H 0.77049 0.95043 0.46229 0.0
H620 H 0.83871 0.9406 0.47452 0.0
H621 H 0.84059 0.97407 0.49582 0.0
H622 H 0.77037 0.02957 0.46386 0.0
H623 H 0.76568 0.02619 0.4243 0.0
H624 H 0.83201 1.00564 0.41912 0.0
H625 H 0.83653 0.00934 0.45866 0.0
H626 H 0.77191 0.06711 0.49779 0.0
H627 H 0.76459 0.09972 0.47589 0.0
H628 H 0.82694 0.09472 0.44468 0.0
H629 H 0.83424 0.06218 0.46697 0.0
H630 H 0.78296 0.06411 0.54669 0.0
H631 H 0.78639 0.10006 0.56319 0.0
H632 H 0.84822 0.11063 0.53118 0.0
H633 H 0.8447 0.07453 0.51504 0.0
H634 H 0.78422 0.01915 0.56558 0.0
H635 H 0.78756 0.03005 0.60386 0.0
H636 H 0.85424 0.05043 0.5927 0.0
H637 H 0.85076 0.03943 0.55447 0.0
H638 H 0.7787 0.97673 0.53402 0.0
H639 H 0.779 0.9458 0.55961 0.0
H640 H 0.84722 0.95851 0.57228 0.0
H641 H 0.84663 0.98961 0.54686 0.0
O642 O 0.77644 0.01822 0.385 0.0
O643 O 0.81059 1.00756 0.38327 0.0
O644 O 0.8057 0.13658 0.57048 0.0
O645 O 0.83748 0.14288 0.55425 0.0
C646 C 0.8085 1.00299 0.50147 0.0
C647 C 0.80668 0.02184 0.48808 0.0
C648 C 0.80777 0.04265 0.49749 0.0
C649 C 0.81175 0.04472 0.52009 0.0
C650 C 0.8139 0.02594 0.53346 0.0
C651 C 0.81191 1.00503 0.52423 0.0
C652 C 0.80668 0.98121 0.49136 0.0
C653 C 0.78689 0.97401 0.48223 0.0
C654 C 0.78578 0.95506 0.46994 0.0
C655 C 0.80448 0.94295 0.46655 0.0
C656 C 0.82409 0.94973 0.47658 0.0
C657 C 0.82517 0.9687 0.48891 0.0
C658 C 0.8038 0.01976 0.46408 0.0
C659 C 0.78388 0.02444 0.45412 0.0
C660 C 0.78124 0.02244 0.43154 0.0
C661 C 0.79847 0.01565 0.41854 0.0
C662 C 0.81841 0.01091 0.42864 0.0
C663 C 0.82103 0.01298 0.45121 0.0
C664 C 0.80359 0.06233 0.48394 0.0
C665 C 0.78398 0.07309 0.48623 0.0
C666 C 0.77978 0.09161 0.47362 0.0
C667 C 0.79517 0.09976 0.45852 0.0
C668 C 0.81486 0.08894 0.45632 0.0
C669 C 0.81901 0.07032 0.4689 0.0
C670 C 0.81364 0.0667 0.52979 0.0
C671 C 0.79726 0.07419 0.54335 0.0
C672 C 0.79925 0.09474 0.55271 0.0
C673 C 0.81761 0.10822 0.54853 0.0
C674 C 0.83389 0.10068 0.53476 0.0
C675 C 0.83191 0.08009 0.52548 0.0
C676 C 0.81724 0.02854 0.55731 0.0
C677 C 0.7997 0.02542 0.57158 0.0
C678 C 0.80159 0.03181 0.59334 0.0
C679 C 0.82111 0.04125 0.60117 0.0
C680 C 0.83906 0.04306 0.58715 0.0
C681 C 0.8371 0.03683 0.56535 0.0
C682 C 0.81264 0.98539 0.53858 0.0
C683 C 0.79375 0.97266 0.54217 0.0
C684 C 0.79398 0.95497 0.55676 0.0
C685 C 0.81313 0.94969 0.56807 0.0
C686 C 0.83213 0.96231 0.56411 0.0
C687 C 0.83187 0.97999 0.5495 0.0
C688 C 0.79562 0.01354 0.39455 0.0
C689 C 0.81981 0.13006 0.55845 0.0
H690 H 0.52961 0.23175 0.86561 0.0
H691 H 0.66219 0.19683 0.0728 0.0
H692 H 0.50374 0.26793 0.97717 0.0
H693 H 0.4722 0.27138 0.95311 0.0
H694 H 0.44731 0.20892 0.97634 0.0
H695 H 0.47927 0.20549 1.00014 0.0
H696 H 0.54747 0.25572 0.95626 0.0
H697 H 0.54325 0.25138 0.91675 0.0
H698 H 0.50877 0.19009 0.9279 0.0
H699 H 0.51336 0.19453 0.96735 0.0
H700 H 0.58542 0.25559 0.98876 0.0
H701 H 0.61852 0.25025 0.96792 0.0
H702 H 0.59879 0.18326 0.95727 0.0
H703 H 0.56566 0.18877 0.97843 0.0
H704 H 0.58142 0.25976 0.03951 0.0
H705 H 0.61651 0.2559 0.0579 0.0
H706 H 0.6141 0.18697 0.04471 0.0
H707 H 0.57888 0.19103 0.02664 0.0
H708 H 0.53573 0.26948 0.05718 0.0
H709 H 0.54915 0.2756 0.0944 0.0
H710 H 0.56036 0.20684 0.10197 0.0
H711 H 0.54692 0.2009 0.06475 0.0
H712 H 0.49345 0.27122 0.02722 0.0
H713 H 0.46392 0.27811 0.05271 0.0
H714 H 0.46822 0.21238 0.07804 0.0
H715 H 0.4978 0.2058 0.05274 0.0
O716 O 0.53117 0.23311 0.88127 0.0
O717 O 0.51337 0.20182 0.88791 0.0
O718 O 0.64872 0.23432 0.07209 0.0
O719 O 0.64837 0.19884 0.06552 0.0
C720 C 0.51486 0.23277 1.00142 0.0
C721 C 0.53316 0.22812 0.98859 0.0
C722 C 0.55369 0.22591 0.99856 0.0
C723 C 0.55592 0.2279 0.02139 0.0
C724 C 0.53757 0.23201 0.03432 0.0
C725 C 0.51698 0.23437 0.02437 0.0
C726 C 0.49376 0.23647 0.99036 0.0
C727 C 0.49121 0.25524 0.97743 0.0
C728 C 0.47315 0.25719 0.96373 0.0
C729 C 0.4573 0.24035 0.96269 0.0
C730 C 0.45938 0.22204 0.97657 0.0
C731 C 0.47747 0.22014 0.99033 0.0
C732 C 0.53076 0.22542 0.96462 0.0
C733 C 0.53913 0.24132 0.95011 0.0
C734 C 0.53663 0.23882 0.92756 0.0
C735 C 0.52567 0.22038 0.91916 0.0
C736 C 0.5173 0.20449 0.93381 0.0
C737 C 0.51987 0.20698 0.95634 0.0
C738 C 0.5732 0.22259 0.98505 0.0
C739 C 0.58821 0.23981 0.98182 0.0
C740 C 0.60703 0.23674 0.96983 0.0
C741 C 0.61122 0.21635 0.96089 0.0
C742 C 0.59606 0.19911 0.96409 0.0
C743 C 0.57712 0.20224 0.97601 0.0
C744 C 0.57761 0.22567 0.03181 0.0
C745 C 0.58851 0.24385 0.04063 0.0
C746 C 0.60855 0.2416 0.0511 0.0
C747 C 0.6181 0.2211 0.0528 0.0
C748 C 0.60721 0.20297 0.0437 0.0
C749 C 0.58713 0.20525 0.03331 0.0
C750 C 0.54052 0.23479 0.05824 0.0
C751 C 0.5404 0.25567 0.06715 0.0
C752 C 0.5481 0.25912 0.0884 0.0
C753 C 0.55611 0.24174 0.10096 0.0
C754 C 0.55462 0.22059 0.09253 0.0
C755 C 0.54681 0.21714 0.07137 0.0
C756 C 0.49776 0.23803 0.03818 0.0
C757 C 0.48777 0.25826 0.03809 0.0
C758 C 0.47091 0.26214 0.05264 0.0
C759 C 0.46385 0.24585 0.06755 0.0
C760 C 0.47353 0.2254 0.06706 0.0
C761 C 0.49031 0.22154 0.05253 0.0
C762 C 0.52299 0.2178 0.8952 0.0
C763 C 0.63931 0.21859 0.06406 0.0
H764 H 0.16538 0.36386 0.21896 0.0
H765 H 0.21396 0.41194 0.23798 0.0
H766 H 0.13764 0.39145 0.21982 0.0
H767 H 0.18628 0.43964 0.2384 0.0
H768 H 0.12538 0.47569 0.26116 0.0
H769 H 0.15392 0.44888 0.25991 0.0
H770 H 0.12738 0.42461 0.19922 0.0
H771 H 0.09863 0.45111 0.20069 0.0
C772 C 0.17012 0.3803 0.2234 0.0
C773 C 0.19187 0.3857 0.22842 0.0
C774 C 0.15427 0.39616 0.22366 0.0
C775 C 0.15978 0.41776 0.2291 0.0
C776 C 0.1815 0.42313 0.23427 0.0
C777 C 0.19738 0.4073 0.23385 0.0
C778 C 0.1257 0.46465 0.24753 0.0
C779 C 0.10979 0.46555 0.23101 0.0
C780 C 0.14211 0.4494 0.24674 0.0
C781 C 0.14286 0.43457 0.2295 0.0
C782 C 0.12711 0.43566 0.21283 0.0
C783 C 0.11081 0.45102 0.21354 0.0
H784 H 0.19857 0.66221 0.77192 0.0
H785 H 0.15099 0.70342 0.80041 0.0
H786 H 0.17155 0.6326 0.76992 0.0
H787 H 0.12375 0.67396 0.79787 0.0
H788 H 0.09078 0.60755 0.81536 0.0
H789 H 0.11642 0.63845 0.81551 0.0
H790 H 0.13798 0.62159 0.75105 0.0
H791 H 0.11277 0.5903 0.75117 0.0
C792 C 0.18231 0.66497 0.77768 0.0
C793 C 0.17697 0.68515 0.78642 0.0
C794 C 0.16675 0.64807 0.77632 0.0
C795 C 0.14548 0.65089 0.78377 0.0
C796 C 0.14004 0.67118 0.7922 0.0
C797 C 0.15559 0.68814 0.79344 0.0
C798 C 0.10105 0.61039 0.80126 0.0
C799 C 0.09979 0.59638 0.7833 0.0
C800 C 0.11558 0.62825 0.80124 0.0
C801 C 0.12928 0.6325 0.7833 0.0
C802 C 0.12781 0.61866 0.76522 0.0
C803 C 0.11321 0.60085 0.7652 0.0
H804 H 0.86969 0.68705 0.20572 0.0
H805 H 0.87119 0.68772 0.2763 0.0
H806 H 0.90225 0.66543 0.20575 0.0
H807 H 0.90431 0.66697 0.2763 0.0
H808 H 0.9461 0.60674 0.26758 0.0
H809 H 0.91531 0.63061 0.26872 0.0
H810 H 0.94082 0.66696 0.21321 0.0
H811 H 0.9716 0.64275 0.21192 0.0
C812 C 0.87698 0.68263 0.22125 0.0
C813 C 0.86772 0.68907 0.24101 0.0
C814 C 0.89585 0.67048 0.22126 0.0
C815 C 0.90597 0.66447 0.24102 0.0
C816 C 0.89684 0.67111 0.26077 0.0
C817 C 0.87796 0.68324 0.26077 0.0
C818 C 0.94542 0.62012 0.25592 0.0
C819 C 0.96141 0.62296 0.23977 0.0
C820 C 0.9277 0.63381 0.25654 0.0
C821 C 0.92553 0.65073 0.24105 0.0
C822 C 0.94181 0.65389 0.22519 0.0
C823 C 0.95951 0.64012 0.22452 0.0
H824 H 0.94372 0.28469 0.80763 0.0
H825 H 0.88231 0.31558 0.79727 0.0
H826 H 0.9623 0.32019 0.80656 0.0
H827 H 0.90087 0.35106 0.79591 0.0
H828 H 0.93909 0.41306 0.81316 0.0
H829 H 0.92072 0.37763 0.81733 0.0
H830 H 0.9714 0.34825 0.78026 0.0
H831 H 0.99023 0.38338 0.77699 0.0
C832 C 0.9342 0.29907 0.80505 0.0
C833 C 0.91156 0.29732 0.80247 0.0
C834 C 0.94484 0.31942 0.80439 0.0
C835 C 0.93311 0.3385 0.80101 0.0
C836 C 0.9104 0.33676 0.79883 0.0
C837 C 0.89975 0.3164 0.79959 0.0
C838 C 0.94642 0.39899 0.80611 0.0
C839 C 0.96611 0.4011 0.79468 0.0
C840 C 0.93577 0.37871 0.8083 0.0
C841 C 0.94456 0.36006 0.79913 0.0
C842 C 0.96429 0.36219 0.78778 0.0
C843 C 0.97494 0.38242 0.78562 0.0
H844 H 0.21983 0.20044 0.35167 0.0
H845 H 0.28818 0.19605 0.33754 0.0
H846 H 0.22269 0.1708 0.37828 0.0
H847 H 0.29092 0.16617 0.36401 0.0
H848 H 0.28073 0.09833 0.39667 0.0
H849 H 0.27851 0.12789 0.36975 0.0
H850 H 0.23953 0.16399 0.41423 0.0
H851 H 0.24195 0.13466 0.44123 0.0
C852 C 0.23551 0.19328 0.35433 0.0
C853 C 0.25379 0.20074 0.34248 0.0
C854 C 0.23713 0.17625 0.36958 0.0
C855 C 0.25705 0.16616 0.37332 0.0
C856 C 0.27529 0.17343 0.36133 0.0
C857 C 0.27369 0.19054 0.34613 0.0
C858 C 0.27187 0.11266 0.40081 0.0
C859 C 0.26144 0.11403 0.42112 0.0
C860 C 0.27058 0.1296 0.38536 0.0
C861 C 0.25875 0.14825 0.3898 0.0
C862 C 0.24845 0.14968 0.41014 0.0
C863 C 0.24981 0.13282 0.42561 0.0
H864 H 0.36772 0.77655 0.8578 0.0
H865 H 0.32926 0.81845 0.89713 0.0
H866 H 0.39368 0.77295 0.88765 0.0
H867 H 0.35491 0.8144 0.9274 0.0
H868 H 0.41881 0.82291 0.96621 0.0
H869 H 0.39036 0.82502 0.93859 0.0
H870 H 0.39989 0.75775 0.92255 0.0
H871 H 0.4293 0.7561 0.94906 0.0
C872 C 0.36463 0.78471 0.873 0.0
C873 C 0.34643 0.79779 0.87509 0.0
C874 C 0.37949 0.78259 0.8902 0.0
C875 C 0.37645 0.79331 0.91009 0.0
C876 C 0.35803 0.80616 0.91226 0.0
C877 C 0.34326 0.80845 0.89494 0.0
C878 C 0.41489 0.80857 0.95676 0.0
C879 C 0.42657 0.78939 0.95983 0.0
C880 C 0.39833 0.80969 0.94105 0.0
C881 C 0.39285 0.79161 0.92809 0.0
C882 C 0.40389 0.77216 0.93186 0.0
C883 C 0.42058 0.77109 0.94741 0.0
H884 H 0.83173 0.83762 0.37749 0.0
H885 H 0.76303 0.84821 0.37008 0.0
H886 H 0.83381 0.86475 0.40603 0.0
H887 H 0.76532 0.87611 0.398 0.0
H888 H 0.77303 0.91075 0.46321 0.0
H889 H 0.77097 0.88128 0.4369 0.0
H890 H 0.83204 0.90366 0.40923 0.0
H891 H 0.83413 0.93296 0.43553 0.0
C892 C 0.81702 0.84564 0.38203 0.0
C893 C 0.7972 0.84068 0.37148 0.0
C894 C 0.81828 0.86141 0.39823 0.0
C895 C 0.79975 0.87269 0.40428 0.0
C896 C 0.77987 0.86759 0.39391 0.0
C897 C 0.7786 0.85178 0.3777 0.0
C898 C 0.78601 0.90934 0.45151 0.0
C899 C 0.80377 0.92417 0.45151 0.0
C900 C 0.78481 0.89249 0.43639 0.0
C901 C 0.80132 0.8901 0.42091 0.0
C902 C 0.81921 0.90477 0.42114 0.0
C903 C 0.82043 0.92158 0.43625 0.0
H904 H 0.73713 0.24121 0.90492 0.0
H905 H 0.72752 0.17236 0.89394 0.0
H906 H 0.70195 0.24224 0.92243 0.0
H907 H 0.69169 0.17362 0.91076 0.0
H908 H 0.63898 0.18236 0.96416 0.0
H909 H 0.67397 0.1789 0.94609 0.0
H910 H 0.66416 0.23978 0.91177 0.0
H911 H 0.62942 0.24327 0.92993 0.0
C912 C 0.72758 0.22623 0.90638 0.0
C913 C 0.73523 0.20668 0.89808 0.0
C914 C 0.70723 0.2269 0.91614 0.0
C915 C 0.69389 0.20807 0.91779 0.0
C916 C 0.70161 0.1884 0.90981 0.0
C917 C 0.72205 0.18772 0.90001 0.0
C918 C 0.64421 0.19483 0.95253 0.0
C919 C 0.63157 0.2132 0.94863 0.0
C920 C 0.66424 0.19286 0.94218 0.0
C921 C 0.67199 0.2092 0.9277 0.0
C922 C 0.65893 0.22715 0.92323 0.0
C923 C 0.63899 0.22915 0.9336 0.0
H924 H 0.24081 0.89603 0.69686 0.0
H925 H 0.27051 0.84958 0.6549 0.0
H926 H 0.2448 0.92395 0.66823 0.0
H927 H 0.27396 0.87726 0.62613 0.0
H928 H 0.29557 0.93748 0.58672 0.0
H929 H 0.2936 0.91116 0.61693 0.0
H930 H 0.2292 0.93224 0.63215 0.0
H931 H 0.23142 0.95897 0.60234 0.0
C932 C 0.24832 0.89181 0.68159 0.0
C933 C 0.25527 0.87054 0.67816 0.0
C934 C 0.2504 0.90775 0.6651 0.0
C935 C 0.25963 0.90284 0.64484 0.0
C936 C 0.26695 0.88168 0.64158 0.0
C937 C 0.26476 0.86573 0.65801 0.0
C938 C 0.28108 0.93666 0.59665 0.0
C939 C 0.26363 0.95031 0.59205 0.0
C940 C 0.27987 0.92142 0.61385 0.0
C941 C 0.26122 0.91953 0.62696 0.0
C942 C 0.24388 0.93338 0.62253 0.0
C943 C 0.24505 0.94854 0.60526 0.0
H944 H 0.67114 0.74532 0.1882 0.0
H945 H 0.66063 0.81402 0.19538 0.0
H946 H 0.64266 0.74352 0.16039 0.0
H947 H 0.6321 0.81218 0.16764 0.0
H948 H 0.56816 0.7963 0.1318 0.0
H949 H 0.59551 0.79729 0.16091 0.0
H950 H 0.63623 0.75608 0.12308 0.0
H951 H 0.60905 0.75515 0.09409 0.0
C952 C 0.66287 0.76008 0.18375 0.0
C953 C 0.66823 0.77982 0.19404 0.0
C954 C 0.6465 0.75904 0.16782 0.0
C955 C 0.63507 0.7777 0.16177 0.0
C956 C 0.64033 0.79742 0.17215 0.0
C957 C 0.65671 0.79847 0.18806 0.0
C958 C 0.58296 0.78747 0.12973 0.0
C959 C 0.5863 0.7755 0.11069 0.0
C960 C 0.59865 0.78806 0.14638 0.0
C961 C 0.61806 0.77671 0.14437 0.0
C962 C 0.62132 0.76467 0.12537 0.0
C963 C 0.60567 0.7641 0.10875 0.0
H964 H 0.81973 0.13598 0.70319 0.0
H965 H 0.8357 0.07726 0.73865 0.0
H966 H 0.81905 0.11596 0.66908 0.0
H967 H 0.83484 0.05711 0.70434 0.0
H968 H 0.85285 0.03738 0.63251 0.0
H969 H 0.85529 0.05607 0.66765 0.0
H970 H 0.79418 0.08637 0.65399 0.0
H971 H 0.79181 0.06791 0.61903 0.0
C972 C 0.82335 0.11884 0.70365 0.0
C973 C 0.82778 0.10818 0.72358 0.0
C974 C 0.82275 0.10734 0.68416 0.0
C975 C 0.82674 0.08497 0.68411 0.0
C976 C 0.83176 0.07437 0.70393 0.0
C977 C 0.83212 0.08585 0.72353 0.0
C978 C 0.83993 0.04796 0.63714 0.0
C979 C 0.8221 0.05113 0.62312 0.0
C980 C 0.84127 0.05854 0.65723 0.0
C981 C 0.82498 0.07275 0.66344 0.0
C982 C 0.80706 0.07567 0.64952 0.0
C983 C 0.8056 0.06492 0.62962 0.0
H984 H 0.39379 0.27221 0.18698 0.0
H985 H 0.34343 0.25852 0.13936 0.0
H986 H 0.42122 0.2692 0.15875 0.0
H987 H 0.37091 0.25537 0.11108 0.0
H988 H 0.42606 0.26804 0.06206 0.0
H989 H 0.39861 0.27511 0.08959 0.0
H990 H 0.43613 0.24016 0.13782 0.0
H991 H 0.46377 0.23383 0.11064 0.0
C992 C 0.38858 0.26853 0.17047 0.0
C993 C 0.36644 0.26541 0.16545 0.0
C994 C 0.4043 0.26678 0.15429 0.0
C995 C 0.39829 0.26182 0.13268 0.0
C996 C 0.3761 0.25941 0.1275 0.0
C997 C 0.36034 0.2612 0.14371 0.0
C998 C 0.42851 0.26207 0.0786 0.0
C999 C 0.44705 0.25028 0.08412 0.0
C1000 C 0.4127 0.26595 0.09432 0.0
C1001 C 0.41517 0.25822 0.11593 0.0
C1002 C 0.43381 0.24659 0.12142 0.0
C1003 C 0.44954 0.2427 0.10575 0.0
H1004 H 0.85796 0.64002 0.79194 0.0
H1005 H 0.89952 0.69245 0.76751 0.0
H1006 H 0.88859 0.61579 0.79216 0.0
H1007 H 0.93015 0.66808 0.76754 0.0
H1008 H 0.97339 0.61023 0.74967 0.0
H1009 H 0.94343 0.63554 0.74909 0.0
H1010 H 0.92268 0.61103 0.81229 0.0
H1011 H 0.95219 0.58543 0.8126 0.0
C1012 C 0.87365 0.64644 0.78675 0.0
C1013 C 0.87625 0.66826 0.77983 0.0
C1014 C 0.89123 0.63253 0.78687 0.0
C1015 C 0.91186 0.64003 0.78001 0.0
C1016 C 0.91443 0.66173 0.77274 0.0
C1017 C 0.89684 0.67569 0.77269 0.0
C1018 C 0.96244 0.61031 0.76344 0.0
C1019 C 0.96521 0.59586 0.7812 0.0
C1020 C 0.94537 0.6249 0.76318 0.0
C1021 C 0.93059 0.62523 0.7806 0.0
C1022 C 0.93361 0.61102 0.79849 0.0
C1023 C 0.95071 0.59654 0.79881 0.0
H1024 H 0.82007 0.39742 0.28933 0.0
H1025 H 0.82077 0.38223 0.22064 0.0
H1026 H 0.85319 0.41958 0.28481 0.0
H1027 H 0.85353 0.40495 0.21598 0.0
H1028 H 0.92548 0.42688 0.22252 0.0
H1029 H 0.89211 0.4049 0.22632 0.0
H1030 H 0.86542 0.45385 0.26753 0.0
H1031 H 0.89865 0.47585 0.26363 0.0
C1032 C 0.8273 0.39882 0.27327 0.0
C1033 C 0.81779 0.38804 0.25535 0.0
C1034 C 0.84615 0.41169 0.27063 0.0
C1035 C 0.85599 0.41404 0.25002 0.0
C1036 C 0.84646 0.4033 0.2321 0.0
C1037 C 0.82756 0.39049 0.23472 0.0
C1038 C 0.9124 0.43304 0.2322 0.0
C1039 C 0.91479 0.45308 0.24286 0.0
C1040 C 0.89329 0.42045 0.23439 0.0
C1041 C 0.87615 0.42759 0.2473 0.0
C1042 C 0.87847 0.4477 0.25778 0.0
C1043 C 0.89753 0.46031 0.25556 0.0
H1044 H 0.18497 0.35443 0.77308 0.0
H1045 H 0.23616 0.40379 0.7727 0.0
H1046 H 0.158 0.38259 0.77494 0.0
H1047 H 0.20915 0.43196 0.77536 0.0
H1048 H 0.15224 0.47727 0.75952 0.0
H1049 H 0.17976 0.44968 0.75529 0.0
H1050 H 0.14573 0.408 0.80183 0.0
H1051 H 0.11806 0.43514 0.80552 0.0
C1052 C 0.19048 0.3713 0.77319 0.0
C1053 C 0.21276 0.37681 0.77279 0.0
C1054 C 0.17501 0.38744 0.77455 0.0
C1055 C 0.18141 0.40954 0.77552 0.0
C1056 C 0.20365 0.41512 0.77454 0.0
C1057 C 0.21914 0.39895 0.77323 0.0
C1058 C 0.15071 0.46222 0.76885 0.0
C1059 C 0.13307 0.45851 0.783 0.0
C1060 C 0.16652 0.44647 0.76653 0.0
C1061 C 0.16492 0.42658 0.77816 0.0
C1062 C 0.14735 0.423 0.79242 0.0
C1063 C 0.13165 0.43873 0.7948 0.0
H1064 H 0.18673 0.66185 0.29641 0.0
H1065 H 0.1773 0.69127 0.23266 0.0
H1066 H 0.15907 0.63414 0.28807 0.0
H1067 H 0.1501 0.66305 0.22401 0.0
H1068 H 0.08413 0.62537 0.22859 0.0
H1069 H 0.11329 0.65223 0.23466 0.0
H1070 H 0.15204 0.60273 0.26532 0.0
H1071 H 0.12289 0.57587 0.25925 0.0
C1072 C 0.17879 0.66238 0.28058 0.0
C1073 C 0.18417 0.67888 0.26526 0.0
C1074 C 0.16309 0.64632 0.27569 0.0
C1075 C 0.15232 0.64634 0.25536 0.0
C1076 C 0.1579 0.66267 0.23991 0.0
C1077 C 0.17367 0.67872 0.24478 0.0
C1078 C 0.09899 0.62014 0.23635 0.0
C1079 C 0.1011 0.59847 0.24353 0.0
C1080 C 0.11572 0.63555 0.23983 0.0
C1081 C 0.13499 0.62968 0.25058 0.0
C1082 C 0.13727 0.60791 0.25735 0.0
C1083 C 0.12055 0.5925 0.25386 0.0
H1084 H 0.77851 0.84053 0.65473 0.0
H1085 H 0.84687 0.85267 0.66672 0.0
H1086 H 0.77843 0.87059 0.62822 0.0
H1087 H 0.84695 0.88221 0.63975 0.0
H1088 H 0.8333 0.94845 0.60805 0.0
H1089 H 0.83305 0.91874 0.63483 0.0
H1090 H 0.79253 0.8799 0.59181 0.0
H1091 H 0.79286 0.9096 0.56493 0.0
C1092 C 0.7935 0.84964 0.65176 0.0
C1093 C 0.8127 0.84417 0.66284 0.0
C1094 C 0.79351 0.86671 0.63639 0.0
C1095 C 0.81269 0.87879 0.63183 0.0
C1096 C 0.83185 0.87339 0.64301 0.0
C1097 C 0.83185 0.85629 0.6583 0.0
C1098 C 0.82454 0.93349 0.60418 0.0
C1099 C 0.81315 0.93142 0.58429 0.0
C1100 C 0.82437 0.91646 0.61956 0.0
C1101 C 0.81277 0.89693 0.61547 0.0
C1102 C 0.80136 0.89485 0.59561 0.0
C1103 C 0.80156 0.91187 0.5802 0.0
H1104 H 0.60449 0.2665 0.23364 0.0
H1105 H 0.65983 0.27329 0.19086 0.0
H1106 H 0.58104 0.25895 0.20202 0.0
H1107 H 0.63643 0.2662 0.15942 0.0
H1108 H 0.59482 0.22527 0.11343 0.0
H1109 H 0.61615 0.2336 0.14599 0.0
H1110 H 0.5667 0.27684 0.16737 0.0
H1111 H 0.545 0.26813 0.13476 0.0
C1112 C 0.6116 0.26651 0.21749 0.0
C1113 C 0.63401 0.27046 0.21475 0.0
C1114 C 0.59817 0.26235 0.19941 0.0
C1115 C 0.60694 0.26181 0.17828 0.0
C1116 C 0.62925 0.26623 0.17553 0.0
C1117 C 0.64261 0.27054 0.19353 0.0
C1118 C 0.58829 0.23626 0.12525 0.0
C1119 C 0.56815 0.24593 0.12162 0.0
C1120 C 0.60065 0.24125 0.14376 0.0
C1121 C 0.59317 0.256 0.15914 0.0
C1122 C 0.57281 0.26534 0.15582 0.0
C1123 C 0.56047 0.26046 0.13714 0.0
H1124 H 0.27479 0.16064 0.69539 0.0
H1125 H 0.26185 0.20048 0.63829 0.0
H1126 H 0.27511 0.12842 0.67257 0.0
H1127 H 0.26198 0.16827 0.61558 0.0
H1128 H 0.23985 0.10405 0.58563 0.0
H1129 H 0.2397 0.13535 0.60958 0.0
H1130 H 0.29624 0.11158 0.64342 0.0
H1131 H 0.29607 0.07989 0.61966 0.0
C1132 C 0.27222 0.16259 0.67795 0.0
C1133 C 0.26819 0.1832 0.66872 0.0
C1134 C 0.27237 0.14409 0.66488 0.0
C1135 C 0.26842 0.14573 0.64227 0.0
C1136 C 0.26466 0.16636 0.63301 0.0
C1137 C 0.26457 0.18485 0.64605 0.0
C1138 C 0.252 0.10527 0.59845 0.0
C1139 C 0.26784 0.08936 0.6009 0.0
C1140 C 0.25211 0.12338 0.61198 0.0
C1141 C 0.26802 0.12605 0.62836 0.0
C1142 C 0.28366 0.10994 0.63108 0.0
C1143 C 0.28364 0.09186 0.61741 0.0
H1144 H 0.34542 0.76224 0.14458 0.0
H1145 H 0.39166 0.77297 0.19691 0.0
H1146 H 0.37431 0.76717 0.1179 0.0
H1147 H 0.42054 0.77868 0.17008 0.0
H1148 H 0.46947 0.76056 0.11669 0.0
H1149 H 0.44101 0.75767 0.14419 0.0
H1150 H 0.39864 0.79452 0.10207 0.0
H1151 H 0.42681 0.79672 0.07427 0.0
C1152 C 0.36177 0.7657 0.15041 0.0
C1153 C 0.36621 0.76705 0.17293 0.0
C1154 C 0.37831 0.76879 0.13507 0.0
C1155 C 0.39979 0.77333 0.1418 0.0
C1156 C 0.40422 0.77499 0.16432 0.0
C1157 C 0.38762 0.77194 0.1797 0.0
C1158 C 0.45404 0.76795 0.11324 0.0
C1159 C 0.45042 0.77877 0.09319 0.0
C1160 C 0.4378 0.76652 0.12913 0.0
C1161 C 0.41749 0.77582 0.12536 0.0
C1162 C 0.41399 0.78694 0.10544 0.0
C1163 C 0.43025 0.78841 0.08958 0.0
H1164 H 0.75355 0.19212 0.35883 0.0
H1165 H 0.7857 0.23203 0.40744 0.0
H1166 H 0.7602 0.15979 0.3811 0.0
H1167 H 0.79255 0.1996 0.4296 0.0
H1168 H 0.82257 0.13442 0.44957 0.0
H1169 H 0.81493 0.16696 0.4278 0.0
H1170 H 0.74962 0.14246 0.41609 0.0
H1171 H 0.75743 0.1097 0.43738 0.0
C1172 C 0.76177 0.19405 0.3744 0.0
C1173 C 0.76911 0.2147 0.38132 0.0
C1174 C 0.76564 0.1755 0.38714 0.0
C1175 C 0.77699 0.17713 0.40707 0.0
C1176 C 0.78407 0.19778 0.41415 0.0
C1177 C 0.78014 0.21635 0.40144 0.0
C1178 C 0.80665 0.13592 0.44219 0.0
C1179 C 0.79061 0.11949 0.44518 0.0
C1180 C 0.80219 0.15465 0.42993 0.0
C1181 C 0.78165 0.15731 0.42028 0.0
C1182 C 0.76566 0.14083 0.42318 0.0
C1183 C 0.77007 0.12216 0.43553 0.0
H1184 H 0.35455 0.2148 0.86652 0.0
H1185 H 0.38224 0.27782 0.84891 0.0
H1186 H 0.37796 0.21352 0.89873 0.0
H1187 H 0.4058 0.2765 0.88107 0.0
H1188 H 0.43291 0.27523 0.95045 0.0
H1189 H 0.40635 0.27718 0.92074 0.0
H1190 H 0.416 0.20942 0.90696 0.0
H1191 H 0.44239 0.20748 0.93661 0.0
C1192 C 0.36572 0.22835 0.86948 0.0
C1193 C 0.36663 0.24635 0.85506 0.0
C1194 C 0.37914 0.22762 0.88795 0.0
C1195 C 0.39385 0.24486 0.89246 0.0
C1196 C 0.39446 0.26307 0.87827 0.0
C1197 C 0.38098 0.26382 0.85981 0.0
C1198 C 0.42928 0.26074 0.94111 0.0
C1199 C 0.43974 0.24119 0.94594 0.0
C1200 C 0.41411 0.26187 0.92405 0.0
C1201 C 0.40906 0.24348 0.91141 0.0
C1202 C 0.41921 0.22382 0.91656 0.0
C1203 C 0.43434 0.22269 0.93361 0.0
H1204 H 0.25069 0.85503 0.35964 0.0
H1205 H 0.31809 0.85117 0.37872 0.0
H1206 H 0.24438 0.87931 0.38995 0.0
H1207 H 0.31197 0.87614 0.4085 0.0
H1208 H 0.28999 0.90782 0.47132 0.0
H1209 H 0.29437 0.88017 0.44347 0.0
H1210 H 0.2534 0.91643 0.39938 0.0
H1211 H 0.24901 0.94386 0.42711 0.0
C1212 C 0.26414 0.85921 0.37039 0.0
C1213 C 0.28493 0.85118 0.36663 0.0
C1214 C 0.26057 0.87335 0.38765 0.0
C1215 C 0.27769 0.87984 0.40164 0.0
C1216 C 0.29836 0.87139 0.3982 0.0
C1217 C 0.30193 0.85726 0.38093 0.0
C1218 C 0.28187 0.90981 0.4557 0.0
C1219 C 0.269 0.92797 0.45154 0.0
C1220 C 0.28442 0.894 0.43971 0.0
C1221 C 0.27421 0.89601 0.41915 0.0
C1222 C 0.26116 0.91407 0.41514 0.0
C1223 C 0.25861 0.92983 0.43109 0.0
H1224 H 0.70094 0.81163 0.8513 0.0
H1225 H 0.68251 0.7456 0.83491 0.0
H1226 H 0.67353 0.81125 0.8798 0.0
H1227 H 0.65487 0.74525 0.86333 0.0
H1228 H 0.62209 0.74571 0.93063 0.0
H1229 H 0.64992 0.74533 0.90245 0.0
H1230 H 0.63483 0.81131 0.88389 0.0
H1231 H 0.6072 0.81171 0.91217 0.0
C1232 C 0.69091 0.79707 0.85367 0.0
C1233 C 0.69386 0.77868 0.84074 0.0
C1234 C 0.67515 0.79686 0.87 0.0
C1235 C 0.66186 0.77827 0.87382 0.0
C1236 C 0.66498 0.75976 0.86105 0.0
C1237 C 0.68082 0.75996 0.84473 0.0
C1238 C 0.62462 0.76007 0.92041 0.0
C1239 C 0.61247 0.77877 0.92371 0.0
C1240 C 0.64057 0.75985 0.90423 0.0
C1241 C 0.64472 0.77832 0.89091 0.0
C1242 C 0.6324 0.79694 0.89411 0.0
C1243 C 0.61652 0.79717 0.91031 0.0
loop_
_geom_bond_atom_site_label_1
_geom_bond_atom_site_label_2
_geom_bond_distance
_geom_bond_site_symmetry_2
_ccdc_geom_bond_type
C0 C1 1.264 . S
C0 C5 1.479 . S
C0 C10 1.465 . S
C1 C0 1.264 . S
C1 C3 1.339 . S
C1 H28 0.931 . S
C2 C3 1.395 . S
C2 C4 1.320 . S
C3 C1 1.339 . S
C3 C2 1.395 . S
C3 H29 0.929 . S
C4 C2 1.320 . S
C4 C5 1.405 . S
C4 H30 0.930 . S
C5 C0 1.479 . S
C5 C4 1.405 . S
C5 H31 0.931 . S
U6 O7 2.454 . S
U6 O8 2.458 . S
U6 C9 2.984 . S
U6 C10 2.847 . S
U6 C23 2.882 . S
U6 O24 2.441 . S
U6 O25 2.420 . S
U6 O26 2.455 . S
U6 O27 2.449 . S
O7 U6 2.454 . S
O7 C9 1.353 . S
O8 U6 2.458 . S
O8 C9 1.286 . S
C9 U6 2.984 . S
C9 O7 1.353 . S
C9 O8 1.286 . S
C9 C11 1.363 . S
C10 C0 1.465 . S
C10 U6 2.847 . S
C10 O24 1.249 . S
C10 O25 1.202 . S
C11 C9 1.363 . S
C11 C13 1.408 . S
C11 C16 1.342 . S
C12 C13 1.310 . S
C12 C15 1.461 . S
C12 H32 0.932 . S
C13 C11 1.408 . S
C13 C12 1.310 . S
C13 H33 0.930 . S
C14 C15 1.474 . S
C14 C16 1.285 . S
C14 H34 0.929 . S
C15 C12 1.461 . S
C15 C14 1.474 . S
C16 C11 1.342 . S
C16 C14 1.285 . S
C16 H35 0.930 . S
C17 C20 1.424 . S
C17 C22 1.245 . S
C17 C23 1.428 . S
C18 C21 1.260 . S
C18 C22 1.477 . S
C18 H36 0.932 . S
C19 C20 1.384 . S
C19 C21 1.479 . S
C19 H37 0.929 . S
C20 C17 1.424 . S
C20 C19 1.384 . S
C20 H38 0.928 . S
C21 C18 1.260 . S
C21 C19 1.479 . S
C22 C17 1.245 . S
C22 C18 1.477 . S
C22 H39 0.932 . S
C23 U6 2.882 . S
C23 C17 1.428 . S
C23 O26 1.301 . S
C23 O27 1.282 . S
O24 U6 2.441 . S
O24 C10 1.249 . S
O25 U6 2.420 . S
O25 C10 1.202 . S
O26 U6 2.455 . S
O26 C23 1.301 . S
O27 U6 2.449 . S
O27 C23 1.282 . S
H28 C1 0.931 . S
H29 C3 0.929 . S
H30 C4 0.930 . S
H31 C5 0.931 . S
H32 C12 0.932 . S
H33 C13 0.930 . S
H34 C14 0.929 . S
H35 C16 0.930 . S
H36 C18 0.932 . S
H37 C19 0.929 . S
H38 C20 0.928 . S
H39 C22 0.932 . S
C40 C41 1.264 . S
C40 C45 1.479 . S
C40 C50 1.465 . S
C41 C40 1.264 . S
C41 C43 1.339 . S
C41 H68 0.931 . S
C42 C43 1.395 . S
C42 C44 1.320 . S
C43 C41 1.339 . S
C43 C42 1.395 . S
C43 H69 0.929 . S
C44 C42 1.320 . S
C44 C45 1.405 . S
C44 H70 0.930 . S
C45 C40 1.479 . S
C45 C44 1.405 . S
C45 H71 0.931 . S
U46 O47 2.454 . S
U46 O48 2.458 . S
U46 C49 2.984 . S
U46 C50 2.847 . S
U46 C63 2.882 . S
U46 O64 2.441 . S
U46 O65 2.420 . S
U46 O66 2.455 . S
U46 O67 2.449 . S
O47 U46 2.454 . S
O47 C49 1.353 . S
O48 U46 2.458 . S
O48 C49 1.286 . S
C49 U46 2.984 . S
C49 O47 1.353 . S
C49 O48 1.286 . S
C49 C51 1.363 . S
C50 C40 1.465 . S
C50 U46 2.847 . S
C50 O64 1.249 . S
C50 O65 1.202 . S
C51 C49 1.363 . S
C51 C53 1.408 . S
C51 C56 1.342 . S
C52 C53 1.310 . S
C52 C55 1.461 . S
C52 H72 0.932 . S
C53 C51 1.408 . S
C53 C52 1.310 . S
C53 H73 0.930 . S
C54 C55 1.474 . S
C54 C56 1.285 . S
C54 H74 0.929 . S
C55 C52 1.461 . S
C55 C54 1.474 . S
C56 C51 1.342 . S
C56 C54 1.285 . S
C56 H75 0.930 . S
C57 C60 1.424 . S
C57 C62 1.245 . S
C57 C63 1.428 . S
C58 C61 1.260 . S
C58 C62 1.477 . S
C58 H76 0.932 . S
C59 C60 1.384 . S
C59 C61 1.479 . S
C59 H77 0.929 . S
C60 C57 1.424 . S
C60 C59 1.384 . S
C60 H78 0.928 . S
C61 C58 1.260 . S
C61 C59 1.479 . S
C62 C57 1.245 . S
C62 C58 1.477 . S
C62 H79 0.932 . S
C63 U46 2.882 . S
C63 C57 1.428 . S
C63 O66 1.301 . S
C63 O67 1.282 . S
O64 U46 2.441 . S
O64 C50 1.249 . S
O65 U46 2.420 . S
O65 C50 1.202 . S
O66 U46 2.455 . S
O66 C63 1.301 . S
O67 U46 2.449 . S
O67 C63 1.282 . S
H68 C41 0.931 . S
H69 C43 0.929 . S
H70 C44 0.930 . S
H71 C45 0.931 . S
H72 C52 0.932 . S
H73 C53 0.930 . S
H74 C54 0.929 . S
H75 C56 0.930 . S
H76 C58 0.932 . S
H77 C59 0.929 . S
H78 C60 0.928 . S
H79 C62 0.932 . S
C80 C81 1.264 . S
C80 C85 1.479 . S
C80 C90 1.465 . S
C81 C80 1.264 . S
C81 C83 1.339 . S
C81 H108 0.931 . S
C82 C83 1.395 . S
C82 C84 1.320 . S
C83 C81 1.339 . S
C83 C82 1.395 . S
C83 H109 0.929 . S
C84 C82 1.320 . S
C84 C85 1.405 . S
C84 H110 0.930 . S
C85 C80 1.479 . S
C85 C84 1.405 . S
C85 H111 0.931 . S
U86 O87 2.454 . S
U86 O88 2.458 . S
U86 C89 2.984 . S
U86 C90 2.847 . S
U86 C103 2.882 . S
U86 O104 2.441 . S
U86 O105 2.420 . S
U86 O106 2.455 . S
U86 O107 2.449 . S
O87 U86 2.454 . S
O87 C89 1.353 . S
O88 U86 2.458 . S
O88 C89 1.286 . S
C89 U86 2.984 . S
C89 O87 1.353 . S
C89 O88 1.286 . S
C89 C91 1.363 . S
C90 C80 1.465 . S
C90 U86 2.847 . S
C90 O104 1.249 . S
C90 O105 1.202 . S
C91 C89 1.363 . S
C91 C93 1.408 . S
C91 C96 1.342 . S
C92 C93 1.310 . S
C92 C95 1.461 . S
C92 H112 0.932 . S
C93 C91 1.408 . S
C93 C92 1.310 . S
C93 H113 0.930 . S
C94 C95 1.474 . S
C94 C96 1.285 . S
C94 H114 0.929 . S
C95 C92 1.461 . S
C95 C94 1.474 . S
C96 C91 1.342 . S
C96 C94 1.285 . S
C96 H115 0.930 . S
C97 C100 1.424 . S
C97 C102 1.245 . S
C97 C103 1.428 . S
C98 C101 1.260 . S
C98 C102 1.477 . S
C98 H116 0.932 . S
C99 C100 1.384 . S
C99 C101 1.479 . S
C99 H117 0.929 . S
C100 C97 1.424 . S
C100 C99 1.384 . S
C100 H118 0.928 . S
C101 C98 1.260 . S
C101 C99 1.479 . S
C102 C97 1.245 . S
C102 C98 1.477 . S
C102 H119 0.932 . S
C103 U86 2.882 . S
C103 C97 1.428 . S
C103 O106 1.301 . S
C103 O107 1.282 . S
O104 U86 2.441 . S
O104 C90 1.249 . S
O105 U86 2.420 . S
O105 C90 1.202 . S
O106 U86 2.455 . S
O106 C103 1.301 . S
O107 U86 2.449 . S
O107 C103 1.282 . S
H108 C81 0.931 . S
H109 C83 0.929 . S
H110 C84 0.930 . S
H111 C85 0.931 . S
H112 C92 0.932 . S
H113 C93 0.930 . S
H114 C94 0.929 . S
H115 C96 0.930 . S
H116 C98 0.932 . S
H117 C99 0.929 . S
H118 C100 0.928 . S
H119 C102 0.932 . S
C120 C121 1.264 . S
C120 C125 1.479 . S
C120 C130 1.465 . S
C121 C120 1.264 . S
C121 C123 1.339 . S
C121 H148 0.931 . S
C122 C123 1.395 . S
C122 C124 1.320 . S
C123 C121 1.339 . S
C123 C122 1.395 . S
C123 H149 0.929 . S
C124 C122 1.320 . S
C124 C125 1.405 . S
C124 H150 0.930 . S
C125 C120 1.479 . S
C125 C124 1.405 . S
C125 H151 0.931 . S
U126 O127 2.454 . S
U126 O128 2.458 . S
U126 C129 2.984 . S
U126 C130 2.847 . S
U126 C143 2.882 . S
U126 O144 2.441 . S
U126 O145 2.420 . S
U126 O146 2.455 . S
U126 O147 2.449 . S
O127 U126 2.454 . S
O127 C129 1.353 . S
O128 U126 2.458 . S
O128 C129 1.286 . S
C129 U126 2.984 . S
C129 O127 1.353 . S
C129 O128 1.286 . S
C129 C131 1.363 . S
C130 C120 1.465 . S
C130 U126 2.847 . S
C130 O144 1.249 . S
C130 O145 1.202 . S
C131 C129 1.363 . S
C131 C133 1.408 . S
C131 C136 1.342 . S
C132 C133 1.310 . S
C132 C135 1.461 . S
C132 H152 0.932 . S
C133 C131 1.408 . S
C133 C132 1.310 . S
C133 H153 0.930 . S
C134 C135 1.474 . S
C134 C136 1.285 . S
C134 H154 0.929 . S
C135 C132 1.461 . S
C135 C134 1.474 . S
C136 C131 1.342 . S
C136 C134 1.285 . S
C136 H155 0.930 . S
C137 C140 1.424 . S
C137 C142 1.245 . S
C137 C143 1.428 . S
C138 C141 1.260 . S
C138 C142 1.477 . S
C138 H156 0.932 . S
C139 C140 1.384 . S
C139 C141 1.479 . S
C139 H157 0.929 . S
C140 C137 1.424 . S
C140 C139 1.384 . S
C140 H158 0.928 . S
C141 C138 1.260 . S
C141 C139 1.479 . S
C142 C137 1.245 . S
C142 C138 1.477 . S
C142 H159 0.932 . S
C143 U126 2.882 . S
C143 C137 1.428 . S
C143 O146 1.301 . S
C143 O147 1.282 . S
O144 U126 2.441 . S
O144 C130 1.249 . S
O145 U126 2.420 . S
O145 C130 1.202 . S
O146 U126 2.455 . S
O146 C143 1.301 . S
O147 U126 2.449 . S
O147 C143 1.282 . S
H148 C121 0.931 . S
H149 C123 0.929 . S
H150 C124 0.930 . S
H151 C125 0.931 . S
H152 C132 0.932 . S
H153 C133 0.930 . S
H154 C134 0.929 . S
H155 C136 0.930 . S
H156 C138 0.932 . S
H157 C139 0.929 . S
H158 C140 0.928 . S
H159 C142 0.932 . S
C160 C161 1.264 . S
C160 C165 1.479 . S
C160 C170 1.465 . S
C161 C160 1.264 . S
C161 C163 1.339 . S
C161 H188 0.931 . S
C162 C163 1.395 . S
C162 C164 1.320 . S
C163 C161 1.339 . S
C163 C162 1.395 . S
C163 H189 0.929 . S
C164 C162 1.320 . S
C164 C165 1.405 . S
C164 H190 0.930 . S
C165 C160 1.479 . S
C165 C164 1.405 . S
C165 H191 0.931 . S
U166 O167 2.454 . S
U166 O168 2.458 . S
U166 C169 2.984 . S
U166 C170 2.847 . S
U166 C183 2.882 . S
U166 O184 2.441 . S
U166 O185 2.420 . S
U166 O186 2.455 . S
U166 O187 2.449 . S
O167 U166 2.454 . S
O167 C169 1.353 . S
O168 U166 2.458 . S
O168 C169 1.286 . S
C169 U166 2.984 . S
C169 O167 1.353 . S
C169 O168 1.286 . S
C169 C171 1.363 . S
C170 C160 1.465 . S
C170 U166 2.847 . S
C170 O184 1.249 . S
C170 O185 1.202 . S
C171 C169 1.363 . S
C171 C173 1.408 . S
C171 C176 1.342 . S
C172 C173 1.310 . S
C172 C175 1.461 . S
C172 H192 0.932 . S
C173 C171 1.408 . S
C173 C172 1.310 . S
C173 H193 0.930 . S
C174 C175 1.474 . S
C174 C176 1.285 . S
C174 H194 0.929 . S
C175 C172 1.461 . S
C175 C174 1.474 . S
C176 C171 1.342 . S
C176 C174 1.285 . S
C176 H195 0.930 . S
C177 C180 1.424 . S
C177 C182 1.245 . S
C177 C183 1.428 . S
C178 C181 1.260 . S
C178 C182 1.477 . S
C178 H196 0.932 . S
C179 C180 1.384 . S
C179 C181 1.479 . S
C179 H197 0.929 . S
C180 C177 1.424 . S
C180 C179 1.384 . S
C180 H198 0.928 . S
C181 C178 1.260 . S
C181 C179 1.479 . S
C182 C177 1.245 . S
C182 C178 1.477 . S
C182 H199 0.932 . S
C183 U166 2.882 . S
C183 C177 1.428 . S
C183 O186 1.301 . S
C183 O187 1.282 . S
O184 U166 2.441 . S
O184 C170 1.249 . S
O185 U166 2.420 . S
O185 C170 1.202 . S
O186 U166 2.455 . S
O186 C183 1.301 . S
O187 U166 2.449 . S
O187 C183 1.282 . S
H188 C161 0.931 . S
H189 C163 0.929 . S
H190 C164 0.930 . S
H191 C165 0.931 . S
H192 C172 0.932 . S
H193 C173 0.930 . S
H194 C174 0.929 . S
H195 C176 0.930 . S
H196 C178 0.932 . S
H197 C179 0.929 . S
H198 C180 0.928 . S
H199 C182 0.932 . S
C200 C201 1.264 . S
C200 C205 1.479 . S
C200 C210 1.465 . S
C201 C200 1.264 . S
C201 C203 1.339 . S
C201 H228 0.931 . S
C202 C203 1.395 . S
C202 C204 1.320 . S
C203 C201 1.339 . S
C203 C202 1.395 . S
C203 H229 0.929 . S
C204 C202 1.320 . S
C204 C205 1.405 . S
C204 H230 0.930 . S
C205 C200 1.479 . S
C205 C204 1.405 . S
C205 H231 0.931 . S
U206 O207 2.454 . S
U206 O208 2.458 . S
U206 C209 2.984 . S
U206 C210 2.847 . S
U206 C223 2.882 . S
U206 O224 2.441 . S
U206 O225 2.420 . S
U206 O226 2.455 . S
U206 O227 2.449 . S
O207 U206 2.454 . S
O207 C209 1.353 . S
O208 U206 2.458 . S
O208 C209 1.286 . S
C209 U206 2.984 . S
C209 O207 1.353 . S
C209 O208 1.286 . S
C209 C211 1.363 . S
C210 C200 1.465 . S
C210 U206 2.847 . S
C210 O224 1.249 . S
C210 O225 1.202 . S
C211 C209 1.363 . S
C211 C213 1.408 . S
C211 C216 1.342 . S
C212 C213 1.310 . S
C212 C215 1.461 . S
C212 H232 0.932 . S
C213 C211 1.408 . S
C213 C212 1.310 . S
C213 H233 0.930 . S
C214 C215 1.474 . S
C214 C216 1.285 . S
C214 H234 0.929 . S
C215 C212 1.461 . S
C215 C214 1.474 . S
C216 C211 1.342 . S
C216 C214 1.285 . S
C216 H235 0.930 . S
C217 C220 1.424 . S
C217 C222 1.245 . S
C217 C223 1.428 . S
C218 C221 1.260 . S
C218 C222 1.477 . S
C218 H236 0.932 . S
C219 C220 1.384 . S
C219 C221 1.479 . S
C219 H237 0.929 . S
C220 C217 1.424 . S
C220 C219 1.384 . S
C220 H238 0.928 . S
C221 C218 1.260 . S
C221 C219 1.479 . S
C222 C217 1.245 . S
C222 C218 1.477 . S
C222 H239 0.932 . S
C223 U206 2.882 . S
C223 C217 1.428 . S
C223 O226 1.301 . S
C223 O227 1.282 . S
O224 U206 2.441 . S
O224 C210 1.249 . S
O225 U206 2.420 . S
O225 C210 1.202 . S
O226 U206 2.455 . S
O226 C223 1.301 . S
O227 U206 2.449 . S
O227 C223 1.282 . S
H228 C201 0.931 . S
H229 C203 0.929 . S
H230 C204 0.930 . S
H231 C205 0.931 . S
H232 C212 0.932 . S
H233 C213 0.930 . S
H234 C214 0.929 . S
H235 C216 0.930 . S
H236 C218 0.932 . S
H237 C219 0.929 . S
H238 C220 0.928 . S
H239 C222 0.932 . S
C240 C241 1.264 . S
C240 C245 1.479 . S
C240 C250 1.465 . S
C241 C240 1.264 . S
C241 C243 1.339 . S
C241 H268 0.931 . S
C242 C243 1.395 . S
C242 C244 1.320 . S
C243 C241 1.339 . S
C243 C242 1.395 . S
C243 H269 0.929 . S
C244 C242 1.320 . S
C244 C245 1.405 . S
C244 H270 0.930 . S
C245 C240 1.479 . S
C245 C244 1.405 . S
C245 H271 0.931 . S
U246 O247 2.454 . S
U246 O248 2.458 . S
U246 C249 2.984 . S
U246 C250 2.847 . S
U246 C263 2.882 . S
U246 O264 2.441 . S
U246 O265 2.420 . S
U246 O266 2.455 . S
U246 O267 2.449 . S
O247 U246 2.454 . S
O247 C249 1.353 . S
O248 U246 2.458 . S
O248 C249 1.286 . S
C249 U246 2.984 . S
C249 O247 1.353 . S
C249 O248 1.286 . S
C249 C251 1.363 . S
C250 C240 1.465 . S
C250 U246 2.847 . S
C250 O264 1.249 . S
C250 O265 1.202 . S
C251 C249 1.363 . S
C251 C253 1.408 . S
C251 C256 1.342 . S
C252 C253 1.310 . S
C252 C255 1.461 . S
C252 H272 0.932 . S
C253 C251 1.408 . S
C253 C252 1.310 . S
C253 H273 0.930 . S
C254 C255 1.474 . S
C254 C256 1.285 . S
C254 H274 0.929 . S
C255 C252 1.461 . S
C255 C254 1.474 . S
C256 C251 1.342 . S
C256 C254 1.285 . S
C256 H275 0.930 . S
C257 C260 1.424 . S
C257 C262 1.245 . S
C257 C263 1.428 . S
C258 C261 1.260 . S
C258 C262 1.477 . S
C258 H276 0.932 . S
C259 C260 1.384 . S
C259 C261 1.479 . S
C259 H277 0.929 . S
C260 C257 1.424 . S
C260 C259 1.384 . S
C260 H278 0.928 . S
C261 C258 1.260 . S
C261 C259 1.479 . S
C262 C257 1.245 . S
C262 C258 1.477 . S
C262 H279 0.932 . S
C263 U246 2.882 . S
C263 C257 1.428 . S
C263 O266 1.301 . S
C263 O267 1.282 . S
O264 U246 2.441 . S
O264 C250 1.249 . S
O265 U246 2.420 . S
O265 C250 1.202 . S
O266 U246 2.455 . S
O266 C263 1.301 . S
O267 U246 2.449 . S
O267 C263 1.282 . S
H268 C241 0.931 . S
H269 C243 0.929 . S
H270 C244 0.930 . S
H271 C245 0.931 . S
H272 C252 0.932 . S
H273 C253 0.930 . S
H274 C254 0.929 . S
H275 C256 0.930 . S
H276 C258 0.932 . S
H277 C259 0.929 . S
H278 C260 0.928 . S
H279 C262 0.932 . S
C280 C281 1.264 . S
C280 C285 1.479 . S
C280 C290 1.465 . S
C281 C280 1.264 . S
C281 C283 1.339 . S
C281 H308 0.931 . S
C282 C283 1.395 . S
C282 C284 1.320 . S
C283 C281 1.339 . S
C283 C282 1.395 . S
C283 H309 0.929 . S
C284 C282 1.320 . S
C284 C285 1.405 . S
C284 H310 0.930 . S
C285 C280 1.479 . S
C285 C284 1.405 . S
C285 H311 0.931 . S
U286 O287 2.454 . S
U286 O288 2.458 . S
U286 C289 2.984 . S
U286 C290 2.847 . S
U286 C303 2.882 . S
U286 O304 2.441 . S
U286 O305 2.420 . S
U286 O306 2.455 . S
U286 O307 2.449 . S
O287 U286 2.454 . S
O287 C289 1.353 . S
O288 U286 2.458 . S
O288 C289 1.286 . S
C289 U286 2.984 . S
C289 O287 1.353 . S
C289 O288 1.286 . S
C289 C291 1.363 . S
C290 C280 1.465 . S
C290 U286 2.847 . S
C290 O304 1.249 . S
C290 O305 1.202 . S
C291 C289 1.363 . S
C291 C293 1.408 . S
C291 C296 1.342 . S
C292 C293 1.310 . S
C292 C295 1.461 . S
C292 H312 0.932 . S
C293 C291 1.408 . S
C293 C292 1.310 . S
C293 H313 0.930 . S
C294 C295 1.474 . S
C294 C296 1.285 . S
C294 H314 0.929 . S
C295 C292 1.461 . S
C295 C294 1.474 . S
C296 C291 1.342 . S
C296 C294 1.285 . S
C296 H315 0.930 . S
C297 C300 1.424 . S
C297 C302 1.245 . S
C297 C303 1.428 . S
C298 C301 1.260 . S
C298 C302 1.477 . S
C298 H316 0.932 . S
C299 C300 1.384 . S
C299 C301 1.479 . S
C299 H317 0.929 . S
C300 C297 1.424 . S
C300 C299 1.384 . S
C300 H318 0.928 . S
C301 C298 1.260 . S
C301 C299 1.479 . S
C302 C297 1.245 . S
C302 C298 1.477 . S
C302 H319 0.932 . S
C303 U286 2.882 . S
C303 C297 1.428 . S
C303 O306 1.301 . S
C303 O307 1.282 . S
O304 U286 2.441 . S
O304 C290 1.249 . S
O305 U286 2.420 . S
O305 C290 1.202 . S
O306 U286 2.455 . S
O306 C303 1.301 . S
O307 U286 2.449 . S
O307 C303 1.282 . S
H308 C281 0.931 . S
H309 C283 0.929 . S
H310 C284 0.930 . S
H311 C285 0.931 . S
H312 C292 0.932 . S
H313 C293 0.930 . S
H314 C294 0.929 . S
H315 C296 0.930 . S
H316 C298 0.932 . S
H317 C299 0.929 . S
H318 C300 0.928 . S
H319 C302 0.932 . S
H320 O346 0.856 1_455 S
H321 O349 0.854 . S
H322 C357 0.930 . S
H323 C358 0.930 . S
H324 C360 0.930 . S
H325 C361 0.930 . S
H326 C363 0.931 . S
H327 C364 0.930 . S
H328 C366 0.930 . S
H329 C367 0.929 1_455 S
H330 C369 0.930 . S
H331 C370 0.931 . S
H332 C372 0.930 . S
H333 C373 0.929 . S
H334 C375 0.931 . S
H335 C376 0.930 . S
H336 C378 0.930 . S
H337 C379 0.932 . S
H338 C381 0.930 . S
H339 C382 0.929 . S
H340 C384 0.931 . S
H341 C385 0.930 . S
H342 C387 0.929 . S
H343 C388 0.931 . S
H344 C390 0.930 . S
H345 C391 0.929 . S
O346 H320 0.856 1_655 S
O346 C392 1.300 1_655 S
O347 C392 1.209 . S
O348 C393 1.199 . S
O349 H321 0.854 . S
O349 C393 1.297 . S
C350 C351 1.404 1_455 S
C350 C355 1.397 1_455 S
C350 C356 1.492 . S
C351 C350 1.404 1_655 S
C351 C352 1.396 . S
C351 C362 1.492 . S
C352 C351 1.396 . S
C352 C353 1.397 . S
C352 C368 1.509 . S
C353 C352 1.397 . S
C353 C354 1.412 . S
C353 C374 1.485 . S
C354 C353 1.412 . S
C354 C355 1.388 . S
C354 C380 1.490 . S
C355 C350 1.397 1_655 S
C355 C354 1.388 . S
C355 C386 1.519 1_655 S
C356 C350 1.492 . S
C356 C357 1.363 . S
C356 C361 1.390 . S
C357 H322 0.930 . S
C357 C356 1.363 . S
C357 C358 1.372 . S
C358 H323 0.930 . S
C358 C357 1.372 . S
C358 C359 1.383 . S
C359 C358 1.383 . S
C359 C360 1.395 . S
C360 H324 0.930 . S
C360 C359 1.395 . S
C360 C361 1.362 . S
C361 H325 0.930 . S
C361 C356 1.390 . S
C361 C360 1.362 . S
C362 C351 1.492 . S
C362 C363 1.377 . S
C362 C367 1.397 . S
C363 H326 0.931 . S
C363 C362 1.377 . S
C363 C364 1.376 . S
C364 H327 0.930 . S
C364 C363 1.376 . S
C364 C365 1.377 1_655 S
C365 C364 1.377 1_455 S
C365 C366 1.377 . S
C365 C392 1.485 . S
C366 H328 0.930 . S
C366 C365 1.377 . S
C366 C367 1.377 1_455 S
C367 H329 0.929 1_655 S
C367 C362 1.397 . S
C367 C366 1.377 1_655 S
C368 C352 1.509 . S
C368 C369 1.391 . S
C368 C373 1.386 . S
C369 H330 0.930 . S
C369 C368 1.391 . S
C369 C370 1.375 . S
C370 H331 0.931 . S
C370 C369 1.375 . S
C370 C371 1.375 . S
C371 C370 1.375 . S
C371 C372 1.361 . S
C372 H332 0.930 . S
C372 C371 1.361 . S
C372 C373 1.399 . S
C373 H333 0.929 . S
C373 C368 1.386 . S
C373 C372 1.399 . S
C374 C353 1.485 . S
C374 C375 1.394 . S
C374 C379 1.360 . S
C375 H334 0.931 . S
C375 C374 1.394 . S
C375 C376 1.372 . S
C376 H335 0.930 . S
C376 C375 1.372 . S
C376 C377 1.397 . S
C377 C376 1.397 . S
C377 C378 1.390 . S
C377 C393 1.476 . S
C378 H336 0.930 . S
C378 C377 1.390 . S
C378 C379 1.366 . S
C379 H337 0.932 . S
C379 C374 1.360 . S
C379 C378 1.366 . S
C380 C354 1.490 . S
C380 C381 1.380 . S
C380 C385 1.386 . S
C381 H338 0.930 . S
C381 C380 1.380 . S
C381 C382 1.381 . S
C382 H339 0.929 . S
C382 C381 1.381 . S
C382 C383 1.371 . S
C383 C382 1.371 . S
C383 C384 1.380 . S
C384 H340 0.931 . S
C384 C383 1.380 . S
C384 C385 1.387 . S
C385 H341 0.930 . S
C385 C380 1.386 . S
C385 C384 1.387 . S
C386 C355 1.519 1_455 S
C386 C387 1.377 . S
C386 C391 1.361 . S
C387 H342 0.929 . S
C387 C386 1.377 . S
C387 C388 1.386 . S
C388 H343 0.931 . S
C388 C387 1.386 . S
C388 C389 1.363 . S
C389 C388 1.363 . S
C389 C390 1.385 . S
C390 H344 0.930 . S
C390 C389 1.385 . S
C390 C391 1.396 . S
C391 H345 0.929 . S
C391 C386 1.361 . S
C391 C390 1.396 . S
C392 O346 1.300 1_455 S
C392 O347 1.209 . S
C392 C365 1.485 . S
C393 O348 1.199 . S
C393 O349 1.297 . S
C393 C377 1.476 . S
H394 O420 0.856 . S
H395 O423 0.854 . S
H396 C431 0.930 . S
H397 C432 0.930 . S
H398 C434 0.930 . S
H399 C435 0.930 . S
H400 C437 0.931 . S
H401 C438 0.930 . S
H402 C440 0.930 . S
H403 C441 0.929 . S
H404 C443 0.930 . S
H405 C444 0.931 . S
H406 C446 0.930 . S
H407 C447 0.929 . S
H408 C449 0.931 . S
H409 C450 0.930 . S
H410 C452 0.930 . S
H411 C453 0.932 . S
H412 C455 0.930 1_455 S
H413 C456 0.929 . S
H414 C458 0.931 . S
H415 C459 0.930 . S
H416 C461 0.929 . S
H417 C462 0.931 . S
H418 C464 0.930 . S
H419 C465 0.929 . S
O420 H394 0.856 . S
O420 C466 1.300 . S
O421 C466 1.209 . S
O422 C467 1.199 . S
O423 H395 0.854 . S
O423 C467 1.297 . S
C424 C425 1.404 . S
C424 C429 1.397 . S
C424 C430 1.492 . S
C425 C424 1.404 . S
C425 C426 1.396 1_455 S
C425 C436 1.492 . S
C426 C425 1.396 1_655 S
C426 C427 1.397 . S
C426 C442 1.509 . S
C427 C426 1.397 . S
C427 C428 1.412 1_655 S
C427 C448 1.485 . S
C428 C427 1.412 1_455 S
C428 C429 1.388 . S
C428 C454 1.490 1_455 S
C429 C424 1.397 . S
C429 C428 1.388 . S
C429 C460 1.519 . S
C430 C424 1.492 . S
C430 C431 1.363 . S
C430 C435 1.390 . S
C431 H396 0.930 . S
C431 C430 1.363 . S
C431 C432 1.372 . S
C432 H397 0.930 . S
C432 C431 1.372 . S
C432 C433 1.383 . S
C433 C432 1.383 . S
C433 C434 1.395 . S
C434 H398 0.930 . S
C434 C433 1.395 . S
C434 C435 1.362 . S
C435 H399 0.930 . S
C435 C430 1.390 . S
C435 C434 1.362 . S
C436 C425 1.492 . S
C436 C437 1.377 . S
C436 C441 1.397 . S
C437 H400 0.931 . S
C437 C436 1.377 . S
C437 C438 1.376 . S
C438 H401 0.930 . S
C438 C437 1.376 . S
C438 C439 1.376 . S
C439 C438 1.376 . S
C439 C440 1.378 . S
C439 C466 1.486 . S
C440 H402 0.930 . S
C440 C439 1.378 . S
C440 C441 1.376 . S
C441 H403 0.929 . S
C441 C436 1.397 . S
C441 C440 1.376 . S
C442 C426 1.509 . S
C442 C443 1.391 . S
C442 C447 1.386 . S
C443 H404 0.930 . S
C443 C442 1.391 . S
C443 C444 1.375 . S
C444 H405 0.931 . S
C444 C443 1.375 . S
C444 C445 1.375 . S
C445 C444 1.375 . S
C445 C446 1.361 . S
C446 H406 0.930 . S
C446 C445 1.361 . S
C446 C447 1.399 . S
C447 H407 0.929 . S
C447 C442 1.386 . S
C447 C446 1.399 . S
C448 C427 1.485 . S
C448 C449 1.394 . S
C448 C453 1.360 . S
C449 H408 0.931 . S
C449 C448 1.394 . S
C449 C450 1.372 . S
C450 H409 0.930 . S
C450 C449 1.372 . S
C450 C451 1.397 . S
C451 C450 1.397 . S
C451 C452 1.390 . S
C451 C467 1.476 . S
C452 H410 0.930 . S
C452 C451 1.390 . S
C452 C453 1.366 . S
C453 H411 0.932 . S
C453 C448 1.360 . S
C453 C452 1.366 . S
C454 C428 1.490 1_655 S
C454 C455 1.380 . S
C454 C459 1.386 . S
C455 H412 0.930 1_655 S
C455 C454 1.380 . S
C455 C456 1.381 . S
C456 H413 0.929 . S
C456 C455 1.381 . S
C456 C457 1.371 . S
C457 C456 1.371 . S
C457 C458 1.380 . S
C458 H414 0.931 . S
C458 C457 1.380 . S
C458 C459 1.387 . S
C459 H415 0.930 . S
C459 C454 1.386 . S
C459 C458 1.387 . S
C460 C429 1.519 . S
C460 C461 1.377 . S
C460 C465 1.361 . S
C461 H416 0.929 . S
C461 C460 1.377 . S
C461 C462 1.386 . S
C462 H417 0.931 . S
C462 C461 1.386 . S
C462 C463 1.363 . S
C463 C462 1.363 . S
C463 C464 1.385 . S
C464 H418 0.930 . S
C464 C463 1.385 . S
C464 C465 1.396 . S
C465 H419 0.929 . S
C465 C460 1.361 . S
C465 C464 1.396 . S
C466 O420 1.300 . S
C466 O421 1.209 . S
C466 C439 1.486 . S
C467 O422 1.199 . S
C467 O423 1.297 . S
C467 C451 1.476 . S
H468 O494 0.856 . S
H469 O497 0.854 . S
H470 C505 0.930 . S
H471 C506 0.930 . S
H472 C508 0.930 . S
H473 C509 0.930 . S
H474 C511 0.931 . S
H475 C512 0.930 . S
H476 C514 0.930 1_565 S
H477 C515 0.929 . S
H478 C517 0.930 . S
H479 C518 0.931 . S
H480 C520 0.930 . S
H481 C521 0.929 . S
H482 C523 0.931 . S
H483 C524 0.930 . S
H484 C526 0.930 . S
H485 C527 0.932 . S
H486 C529 0.930 . S
H487 C530 0.929 . S
H488 C532 0.931 . S
H489 C533 0.930 . S
H490 C535 0.929 . S
H491 C536 0.931 . S
H492 C538 0.930 . S
H493 C539 0.929 . S
O494 H468 0.856 . S
O494 C540 1.300 . S
O495 C540 1.209 1_565 S
O496 C541 1.199 . S
O497 H469 0.854 . S
O497 C541 1.297 . S
C498 C499 1.404 . S
C498 C503 1.397 . S
C498 C504 1.492 1_545 S
C499 C498 1.404 . S
C499 C500 1.396 . S
C499 C510 1.492 . S
C500 C499 1.396 . S
C500 C501 1.397 . S
C500 C516 1.509 . S
C501 C500 1.397 . S
C501 C502 1.412 . S
C501 C522 1.485 . S
C502 C501 1.412 . S
C502 C503 1.388 . S
C502 C528 1.490 . S
C503 C498 1.397 . S
C503 C502 1.388 . S
C503 C534 1.519 . S
C504 C498 1.492 1_565 S
C504 C505 1.363 . S
C504 C509 1.390 . S
C505 H470 0.930 . S
C505 C504 1.363 . S
C505 C506 1.372 . S
C506 H471 0.930 . S
C506 C505 1.372 . S
C506 C507 1.383 . S
C507 C506 1.383 . S
C507 C508 1.395 . S
C508 H472 0.930 . S
C508 C507 1.395 . S
C508 C509 1.362 . S
C509 H473 0.930 . S
C509 C504 1.390 . S
C509 C508 1.362 . S
C510 C499 1.492 . S
C510 C511 1.377 . S
C510 C515 1.397 . S
C511 H474 0.931 . S
C511 C510 1.377 . S
C511 C512 1.376 . S
C512 H475 0.930 . S
C512 C511 1.376 . S
C512 C513 1.376 . S
C513 C512 1.376 . S
C513 C514 1.378 . S
C513 C540 1.486 . S
C514 H476 0.930 1_545 S
C514 C513 1.378 . S
C514 C515 1.376 . S
C515 H477 0.929 . S
C515 C510 1.397 . S
C515 C514 1.376 . S
C516 C500 1.509 . S
C516 C517 1.391 . S
C516 C521 1.386 . S
C517 H478 0.930 . S
C517 C516 1.391 . S
C517 C518 1.375 . S
C518 H479 0.931 . S
C518 C517 1.375 . S
C518 C519 1.375 . S
C519 C518 1.375 . S
C519 C520 1.361 . S
C520 H480 0.930 . S
C520 C519 1.361 . S
C520 C521 1.399 . S
C521 H481 0.929 . S
C521 C516 1.386 . S
C521 C520 1.399 . S
C522 C501 1.485 . S
C522 C523 1.394 . S
C522 C527 1.360 . S
C523 H482 0.931 . S
C523 C522 1.394 . S
C523 C524 1.372 . S
C524 H483 0.930 . S
C524 C523 1.372 . S
C524 C525 1.397 . S
C525 C524 1.397 . S
C525 C526 1.390 . S
C525 C541 1.476 . S
C526 H484 0.930 . S
C526 C525 1.390 . S
C526 C527 1.366 . S
C527 H485 0.932 . S
C527 C522 1.360 . S
C527 C526 1.366 . S
C528 C502 1.490 . S
C528 C529 1.380 . S
C528 C533 1.386 . S
C529 H486 0.930 . S
C529 C528 1.380 . S
C529 C530 1.381 . S
C530 H487 0.929 . S
C530 C529 1.381 . S
C530 C531 1.371 . S
C531 C530 1.371 . S
C531 C532 1.380 . S
C532 H488 0.931 . S
C532 C531 1.380 . S
C532 C533 1.387 . S
C533 H489 0.930 . S
C533 C528 1.386 . S
C533 C532 1.387 . S
C534 C503 1.519 . S
C534 C535 1.377 1_545 S
C534 C539 1.361 . S
C535 H490 0.929 . S
C535 C534 1.377 1_565 S
C535 C536 1.386 . S
C536 H491 0.931 . S
C536 C535 1.386 . S
C536 C537 1.363 . S
C537 C536 1.363 . S
C537 C538 1.385 . S
C538 H492 0.930 . S
C538 C537 1.385 . S
C538 C539 1.396 1_565 S
C539 H493 0.929 . S
C539 C534 1.361 . S
C539 C538 1.396 1_545 S
C540 O494 1.300 . S
C540 O495 1.209 1_545 S
C540 C513 1.486 . S
C541 O496 1.199 . S
C541 O497 1.297 . S
C541 C525 1.476 . S
H542 O568 0.856 . S
H543 O571 0.854 . S
H544 C579 0.930 . S
H545 C580 0.930 . S
H546 C582 0.930 . S
H547 C583 0.930 . S
H548 C585 0.931 . S
H549 C586 0.930 . S
H550 C588 0.930 . S
H551 C589 0.929 . S
H552 C591 0.930 . S
H553 C592 0.931 . S
H554 C594 0.930 . S
H555 C595 0.929 . S
H556 C597 0.931 . S
H557 C598 0.930 . S
H558 C600 0.930 . S
H559 C601 0.911 1_556 S
H560 C603 0.930 . S
H561 C604 0.929 . S
H562 C606 0.931 . S
H563 C607 0.930 . S
H564 C609 0.929 . S
H565 C610 0.931 . S
H566 C612 0.930 . S
H567 C613 0.929 . S
O568 H542 0.856 . S
O568 C614 1.300 . S
O569 C614 1.209 . S
O570 C615 1.199 . S
O571 H543 0.854 . S
O571 C615 1.297 . S
C572 C573 1.404 . S
C572 C577 1.397 1_556 S
C572 C578 1.492 . S
C573 C572 1.404 . S
C573 C574 1.396 . S
C573 C584 1.492 . S
C574 C573 1.396 . S
C574 C575 1.403 . S
C574 C590 1.509 . S
C575 C574 1.403 . S
C575 C576 1.408 1_556 S
C575 C596 1.484 1_556 S
C576 C575 1.408 1_554 S
C576 C577 1.388 . S
C576 C602 1.490 . S
C577 C572 1.397 1_554 S
C577 C576 1.388 . S
C577 C608 1.519 . S
C578 C572 1.492 . S
C578 C579 1.363 . S
C578 C583 1.390 . S
C579 H544 0.930 . S
C579 C578 1.363 . S
C579 C580 1.372 . S
C580 H545 0.930 . S
C580 C579 1.372 . S
C580 C581 1.383 . S
C581 C580 1.383 . S
C581 C582 1.395 . S
C582 H546 0.930 . S
C582 C581 1.395 . S
C582 C583 1.362 . S
C583 H547 0.930 . S
C583 C578 1.390 . S
C583 C582 1.362 . S
C584 C573 1.492 . S
C584 C585 1.377 . S
C584 C589 1.397 . S
C585 H548 0.931 . S
C585 C584 1.377 . S
C585 C586 1.376 . S
C586 H549 0.930 . S
C586 C585 1.376 . S
C586 C587 1.376 . S
C587 C586 1.376 . S
C587 C588 1.378 . S
C587 C614 1.486 . S
C588 H550 0.930 . S
C588 C587 1.378 . S
C588 C589 1.376 . S
C589 H551 0.929 . S
C589 C584 1.397 . S
C589 C588 1.376 . S
C590 C574 1.509 . S
C590 C591 1.391 . S
C590 C595 1.386 . S
C591 H552 0.930 . S
C591 C590 1.391 . S
C591 C592 1.375 . S
C592 H553 0.931 . S
C592 C591 1.375 . S
C592 C593 1.375 . S
C593 C592 1.375 . S
C593 C594 1.361 . S
C594 H554 0.930 . S
C594 C593 1.361 . S
C594 C595 1.399 . S
C595 H555 0.929 . S
C595 C590 1.386 . S
C595 C594 1.399 . S
C596 C575 1.484 1_554 S
C596 C597 1.394 . S
C596 C601 1.371 . S
C597 H556 0.931 . S
C597 C596 1.394 . S
C597 C598 1.372 . S
C598 H557 0.930 . S
C598 C597 1.372 . S
C598 C599 1.397 . S
C599 C598 1.397 . S
C599 C600 1.390 . S
C599 C615 1.476 . S
C600 H558 0.930 . S
C600 C599 1.390 . S
C600 C601 1.377 . S
C601 H559 0.911 1_554 S
C601 C596 1.371 . S
C601 C600 1.377 . S
C602 C576 1.490 . S
C602 C603 1.380 . S
C602 C607 1.386 . S
C603 H560 0.930 . S
C603 C602 1.380 . S
C603 C604 1.381 . S
C604 H561 0.929 . S
C604 C603 1.381 . S
C604 C605 1.371 . S
C605 C604 1.371 . S
C605 C606 1.380 . S
C606 H562 0.931 . S
C606 C605 1.380 . S
C606 C607 1.387 . S
C607 H563 0.930 . S
C607 C602 1.386 . S
C607 C606 1.387 . S
C608 C577 1.519 . S
C608 C609 1.377 . S
C608 C613 1.361 . S
C609 H564 0.929 . S
C609 C608 1.377 . S
C609 C610 1.386 . S
C610 H565 0.931 . S
C610 C609 1.386 . S
C610 C611 1.363 . S
C611 C610 1.363 . S
C611 C612 1.385 . S
C612 H566 0.930 . S
C612 C611 1.385 . S
C612 C613 1.396 . S
C613 H567 0.929 . S
C613 C608 1.361 . S
C613 C612 1.396 . S
C614 O568 1.300 . S
C614 O569 1.209 . S
C614 C587 1.486 . S
C615 O570 1.199 . S
C615 O571 1.297 . S
C615 C599 1.476 . S
H616 O642 0.856 . S
H617 O645 0.854 . S
H618 C653 0.930 . S
H619 C654 0.930 . S
H620 C656 0.930 . S
H621 C657 0.930 . S
H622 C659 0.931 . S
H623 C660 0.930 . S
H624 C662 0.930 1_565 S
H625 C663 0.929 . S
H626 C665 0.930 . S
H627 C666 0.931 . S
H628 C668 0.930 . S
H629 C669 0.929 . S
H630 C671 0.931 . S
H631 C672 0.930 . S
H632 C674 0.930 . S
H633 C675 0.932 . S
H634 C677 0.930 . S
H635 C678 0.929 . S
H636 C680 0.931 . S
H637 C681 0.930 . S
H638 C683 0.929 . S
H639 C684 0.931 . S
H640 C686 0.930 . S
H641 C687 0.929 . S
O642 H616 0.856 . S
O642 C688 1.300 . S
O643 C688 1.209 1_565 S
O644 C689 1.199 . S
O645 H617 0.854 . S
O645 C689 1.297 . S
C646 C647 1.404 . S
C646 C651 1.397 . S
C646 C652 1.492 1_545 S
C647 C646 1.404 . S
C647 C648 1.396 . S
C647 C658 1.492 . S
C648 C647 1.396 . S
C648 C649 1.397 . S
C648 C664 1.509 . S
C649 C648 1.397 . S
C649 C650 1.412 . S
C649 C670 1.485 . S
C650 C649 1.412 . S
C650 C651 1.388 . S
C650 C676 1.490 . S
C651 C646 1.397 . S
C651 C650 1.388 . S
C651 C682 1.519 1_545 S
C652 C646 1.492 1_565 S
C652 C653 1.363 . S
C652 C657 1.390 . S
C653 H618 0.930 . S
C653 C652 1.363 . S
C653 C654 1.372 . S
C654 H619 0.930 . S
C654 C653 1.372 . S
C654 C655 1.383 . S
C655 C654 1.383 . S
C655 C656 1.395 . S
C656 H620 0.930 . S
C656 C655 1.395 . S
C656 C657 1.362 . S
C657 H621 0.930 . S
C657 C652 1.390 . S
C657 C656 1.362 . S
C658 C647 1.492 . S
C658 C659 1.377 . S
C658 C663 1.397 . S
C659 H622 0.931 . S
C659 C658 1.377 . S
C659 C660 1.376 . S
C660 H623 0.930 . S
C660 C659 1.376 . S
C660 C661 1.376 . S
C661 C660 1.376 . S
C661 C662 1.378 . S
C661 C688 1.486 . S
C662 H624 0.930 1_545 S
C662 C661 1.378 . S
C662 C663 1.376 . S
C663 H625 0.929 . S
C663 C658 1.397 . S
C663 C662 1.376 . S
C664 C648 1.509 . S
C664 C665 1.391 . S
C664 C669 1.386 . S
C665 H626 0.930 . S
C665 C664 1.391 . S
C665 C666 1.375 . S
C666 H627 0.931 . S
C666 C665 1.375 . S
C666 C667 1.375 . S
C667 C666 1.375 . S
C667 C668 1.361 . S
C668 H628 0.930 . S
C668 C667 1.361 . S
C668 C669 1.399 . S
C669 H629 0.929 . S
C669 C664 1.386 . S
C669 C668 1.399 . S
C670 C649 1.485 . S
C670 C671 1.394 . S
C670 C675 1.360 . S
C671 H630 0.931 . S
C671 C670 1.394 . S
C671 C672 1.372 . S
C672 H631 0.930 . S
C672 C671 1.372 . S
C672 C673 1.397 . S
C673 C672 1.397 . S
C673 C674 1.390 . S
C673 C689 1.476 . S
C674 H632 0.930 . S
C674 C673 1.390 . S
C674 C675 1.366 . S
C675 H633 0.932 . S
C675 C670 1.360 . S
C675 C674 1.366 . S
C676 C650 1.490 . S
C676 C677 1.380 . S
C676 C681 1.386 . S
C677 H634 0.930 . S
C677 C676 1.380 . S
C677 C678 1.381 . S
C678 H635 0.929 . S
C678 C677 1.381 . S
C678 C679 1.371 . S
C679 C678 1.371 . S
C679 C680 1.380 . S
C680 H636 0.931 . S
C680 C679 1.380 . S
C680 C681 1.387 . S
C681 H637 0.930 . S
C681 C676 1.386 . S
C681 C680 1.387 . S
C682 C651 1.519 1_565 S
C682 C683 1.377 . S
C682 C687 1.361 . S
C683 H638 0.929 . S
C683 C682 1.377 . S
C683 C684 1.386 . S
C684 H639 0.931 . S
C684 C683 1.386 . S
C684 C685 1.363 . S
C685 C684 1.363 . S
C685 C686 1.385 . S
C686 H640 0.930 . S
C686 C685 1.385 . S
C686 C687 1.396 . S
C687 H641 0.929 . S
C687 C682 1.361 . S
C687 C686 1.396 . S
C688 O642 1.300 . S
C688 O643 1.209 1_545 S
C688 C661 1.486 . S
C689 O644 1.199 . S
C689 O645 1.297 . S
C689 C673 1.476 . S
H690 O716 0.856 . S
H691 O719 0.854 . S
H692 C727 0.930 . S
H693 C728 0.930 . S
H694 C730 0.930 . S
H695 C731 0.930 . S
H696 C733 0.931 . S
H697 C734 0.930 . S
H698 C736 0.930 . S
H699 C737 0.929 . S
H700 C739 0.930 . S
H701 C740 0.931 . S
H702 C742 0.930 . S
H703 C743 0.929 . S
H704 C745 0.931 . S
H705 C746 0.930 . S
H706 C748 0.930 . S
H707 C749 0.932 . S
H708 C751 0.930 . S
H709 C752 0.929 . S
H710 C754 0.931 . S
H711 C755 0.930 . S
H712 C757 0.929 . S
H713 C758 0.931 . S
H714 C760 0.930 . S
H715 C761 0.929 . S
O716 H690 0.856 . S
O716 C762 1.300 . S
O717 C762 1.209 . S
O718 C763 1.199 . S
O719 H691 0.854 . S
O719 C763 1.297 . S
C720 C721 1.404 . S
C720 C725 1.397 1_556 S
C720 C726 1.492 . S
C721 C720 1.404 . S
C721 C722 1.396 . S
C721 C732 1.492 . S
C722 C721 1.396 . S
C722 C723 1.397 1_556 S
C722 C738 1.509 . S
C723 C722 1.397 1_554 S
C723 C724 1.412 . S
C723 C744 1.485 . S
C724 C723 1.412 . S
C724 C725 1.388 . S
C724 C750 1.490 . S
C725 C720 1.397 1_554 S
C725 C724 1.388 . S
C725 C756 1.519 . S
C726 C720 1.492 . S
C726 C727 1.363 . S
C726 C731 1.390 . S
C727 H692 0.930 . S
C727 C726 1.363 . S
C727 C728 1.372 . S
C728 H693 0.930 . S
C728 C727 1.372 . S
C728 C729 1.383 . S
C729 C728 1.383 . S
C729 C730 1.395 . S
C730 H694 0.930 . S
C730 C729 1.395 . S
C730 C731 1.362 . S
C731 H695 0.930 . S
C731 C726 1.390 . S
C731 C730 1.362 . S
C732 C721 1.492 . S
C732 C733 1.377 . S
C732 C737 1.397 . S
C733 H696 0.931 . S
C733 C732 1.377 . S
C733 C734 1.376 . S
C734 H697 0.930 . S
C734 C733 1.376 . S
C734 C735 1.376 . S
C735 C734 1.376 . S
C735 C736 1.378 . S
C735 C762 1.486 . S
C736 H698 0.930 . S
C736 C735 1.378 . S
C736 C737 1.376 . S
C737 H699 0.929 . S
C737 C732 1.397 . S
C737 C736 1.376 . S
C738 C722 1.509 . S
C738 C739 1.391 . S
C738 C743 1.386 . S
C739 H700 0.930 . S
C739 C738 1.391 . S
C739 C740 1.375 . S
C740 H701 0.931 . S
C740 C739 1.375 . S
C740 C741 1.375 . S
C741 C740 1.375 . S
C741 C742 1.361 . S
C742 H702 0.930 . S
C742 C741 1.361 . S
C742 C743 1.399 . S
C743 H703 0.929 . S
C743 C738 1.386 . S
C743 C742 1.399 . S
C744 C723 1.485 . S
C744 C745 1.394 . S
C744 C749 1.360 . S
C745 H704 0.931 . S
C745 C744 1.394 . S
C745 C746 1.372 . S
C746 H705 0.930 . S
C746 C745 1.372 . S
C746 C747 1.397 . S
C747 C746 1.397 . S
C747 C748 1.390 . S
C747 C763 1.476 . S
C748 H706 0.930 . S
C748 C747 1.390 . S
C748 C749 1.366 . S
C749 H707 0.932 . S
C749 C744 1.360 . S
C749 C748 1.366 . S
C750 C724 1.490 . S
C750 C751 1.380 . S
C750 C755 1.386 . S
C751 H708 0.930 . S
C751 C750 1.380 . S
C751 C752 1.381 . S
C752 H709 0.929 . S
C752 C751 1.381 . S
C752 C753 1.371 . S
C753 C752 1.371 . S
C753 C754 1.380 . S
C754 H710 0.931 . S
C754 C753 1.380 . S
C754 C755 1.387 . S
C755 H711 0.930 . S
C755 C750 1.386 . S
C755 C754 1.387 . S
C756 C725 1.519 . S
C756 C757 1.377 . S
C756 C761 1.361 . S
C757 H712 0.929 . S
C757 C756 1.377 . S
C757 C758 1.386 . S
C758 H713 0.931 . S
C758 C757 1.386 . S
C758 C759 1.363 . S
C759 C758 1.363 . S
C759 C760 1.385 . S
C760 H714 0.930 . S
C760 C759 1.385 . S
C760 C761 1.396 . S
C761 H715 0.929 . S
C761 C756 1.361 . S
C761 C760 1.396 . S
C762 O716 1.300 . S
C762 O717 1.209 . S
C762 C735 1.486 . S
C763 O718 1.199 . S
C763 O719 1.297 . S
C763 C747 1.476 . S
H764 C772 0.950 . S
H765 C777 0.950 . S
H766 C774 0.950 . S
H767 C776 0.950 . S
H768 C778 0.950 . S
H769 C780 0.950 . S
H770 C782 0.950 . S
H771 C783 0.950 . S
C772 H764 0.950 . S
C772 C773 1.386 . S
C772 C774 1.391 . S
C773 C772 1.386 . S
C773 C777 1.393 . S
C774 H766 0.950 . S
C774 C772 1.391 . S
C774 C775 1.400 . S
C775 C774 1.400 . S
C775 C776 1.398 . S
C775 C781 1.491 . S
C776 H767 0.950 . S
C776 C775 1.398 . S
C776 C777 1.391 . S
C777 H765 0.950 . S
C777 C773 1.393 . S
C777 C776 1.391 . S
C778 H768 0.950 . S
C778 C779 1.386 . S
C778 C780 1.391 . S
C779 C778 1.386 . S
C779 C783 1.393 . S
C780 H769 0.950 . S
C780 C778 1.391 . S
C780 C781 1.400 . S
C781 C775 1.491 . S
C781 C780 1.400 . S
C781 C782 1.398 . S
C782 H770 0.950 . S
C782 C781 1.398 . S
C782 C783 1.391 . S
C783 H771 0.950 . S
C783 C779 1.393 . S
C783 C782 1.391 . S
H784 C792 0.950 . S
H785 C797 0.950 . S
H786 C794 0.950 . S
H787 C796 0.950 . S
H788 C798 0.950 . S
H789 C800 0.950 . S
H790 C802 0.950 . S
H791 C803 0.950 . S
C792 H784 0.950 . S
C792 C793 1.386 . S
C792 C794 1.391 . S
C793 C792 1.386 . S
C793 C797 1.393 . S
C794 H786 0.950 . S
C794 C792 1.391 . S
C794 C795 1.400 . S
C795 C794 1.400 . S
C795 C796 1.398 . S
C795 C801 1.491 . S
C796 H787 0.950 . S
C796 C795 1.398 . S
C796 C797 1.391 . S
C797 H785 0.950 . S
C797 C793 1.393 . S
C797 C796 1.391 . S
C798 H788 0.950 . S
C798 C799 1.386 . S
C798 C800 1.391 . S
C799 C798 1.386 . S
C799 C803 1.393 . S
C800 H789 0.950 . S
C800 C798 1.391 . S
C800 C801 1.400 . S
C801 C795 1.491 . S
C801 C800 1.400 . S
C801 C802 1.398 . S
C802 H790 0.950 . S
C802 C801 1.398 . S
C802 C803 1.391 . S
C803 H791 0.950 . S
C803 C799 1.393 . S
C803 C802 1.391 . S
H804 C812 0.950 . S
H805 C817 0.950 . S
H806 C814 0.950 . S
H807 C816 0.950 . S
H808 C818 0.950 . S
H809 C820 0.950 . S
H810 C822 0.950 . S
H811 C823 0.950 . S
C812 H804 0.950 . S
C812 C813 1.386 . S
C812 C814 1.391 . S
C813 C812 1.386 . S
C813 C817 1.393 . S
C814 H806 0.950 . S
C814 C812 1.391 . S
C814 C815 1.400 . S
C815 C814 1.400 . S
C815 C816 1.398 . S
C815 C821 1.491 . S
C816 H807 0.950 . S
C816 C815 1.398 . S
C816 C817 1.391 . S
C817 H805 0.950 . S
C817 C813 1.393 . S
C817 C816 1.391 . S
C818 H808 0.950 . S
C818 C819 1.386 . S
C818 C820 1.391 . S
C819 C818 1.386 . S
C819 C823 1.393 . S
C820 H809 0.950 . S
C820 C818 1.391 . S
C820 C821 1.400 . S
C821 C815 1.491 . S
C821 C820 1.400 . S
C821 C822 1.398 . S
C822 H810 0.950 . S
C822 C821 1.398 . S
C822 C823 1.391 . S
C823 H811 0.950 . S
C823 C819 1.393 . S
C823 C822 1.391 . S
H824 C832 0.950 . S
H825 C837 0.950 . S
H826 C834 0.950 . S
H827 C836 0.950 . S
H828 C838 0.950 . S
H829 C840 0.950 . S
H830 C842 0.950 . S
H831 C843 0.950 . S
C832 H824 0.950 . S
C832 C833 1.386 . S
C832 C834 1.391 . S
C833 C832 1.386 . S
C833 C837 1.393 . S
C834 H826 0.950 . S
C834 C832 1.391 . S
C834 C835 1.400 . S
C835 C834 1.400 . S
C835 C836 1.398 . S
C835 C841 1.491 . S
C836 H827 0.950 . S
C836 C835 1.398 . S
C836 C837 1.391 . S
C837 H825 0.950 . S
C837 C833 1.393 . S
C837 C836 1.391 . S
C838 H828 0.950 . S
C838 C839 1.386 . S
C838 C840 1.391 . S
C839 C838 1.386 . S
C839 C843 1.393 . S
C840 H829 0.950 . S
C840 C838 1.391 . S
C840 C841 1.400 . S
C841 C835 1.491 . S
C841 C840 1.400 . S
C841 C842 1.398 . S
C842 H830 0.950 . S
C842 C841 1.398 . S
C842 C843 1.391 . S
C843 H831 0.950 . S
C843 C839 1.393 . S
C843 C842 1.391 . S
H844 C852 0.950 . S
H845 C857 0.950 . S
H846 C854 0.950 . S
H847 C856 0.950 . S
H848 C858 0.950 . S
H849 C860 0.950 . S
H850 C862 0.950 . S
H851 C863 0.950 . S
C852 H844 0.950 . S
C852 C853 1.386 . S
C852 C854 1.391 . S
C853 C852 1.386 . S
C853 C857 1.393 . S
C854 H846 0.950 . S
C854 C852 1.391 . S
C854 C855 1.400 . S
C855 C854 1.400 . S
C855 C856 1.398 . S
C855 C861 1.491 . S
C856 H847 0.950 . S
C856 C855 1.398 . S
C856 C857 1.391 . S
C857 H845 0.950 . S
C857 C853 1.393 . S
C857 C856 1.391 . S
C858 H848 0.950 . S
C858 C859 1.386 . S
C858 C860 1.391 . S
C859 C858 1.386 . S
C859 C863 1.393 . S
C860 H849 0.950 . S
C860 C858 1.391 . S
C860 C861 1.400 . S
C861 C855 1.491 . S
C861 C860 1.400 . S
C861 C862 1.398 . S
C862 H850 0.950 . S
C862 C861 1.398 . S
C862 C863 1.391 . S
C863 H851 0.950 . S
C863 C859 1.393 . S
C863 C862 1.391 . S
H864 C872 0.950 . S
H865 C877 0.950 . S
H866 C874 0.950 . S
H867 C876 0.950 . S
H868 C878 0.950 . S
H869 C880 0.950 . S
H870 C882 0.950 . S
H871 C883 0.950 . S
C872 H864 0.950 . S
C872 C873 1.386 . S
C872 C874 1.391 . S
C873 C872 1.386 . S
C873 C877 1.393 . S
C874 H866 0.950 . S
C874 C872 1.391 . S
C874 C875 1.400 . S
C875 C874 1.400 . S
C875 C876 1.398 . S
C875 C881 1.491 . S
C876 H867 0.950 . S
C876 C875 1.398 . S
C876 C877 1.391 . S
C877 H865 0.950 . S
C877 C873 1.393 . S
C877 C876 1.391 . S
C878 H868 0.950 . S
C878 C879 1.386 . S
C878 C880 1.391 . S
C879 C878 1.386 . S
C879 C883 1.393 . S
C880 H869 0.950 . S
C880 C878 1.391 . S
C880 C881 1.400 . S
C881 C875 1.491 . S
C881 C880 1.400 . S
C881 C882 1.398 . S
C882 H870 0.950 . S
C882 C881 1.398 . S
C882 C883 1.391 . S
C883 H871 0.950 . S
C883 C879 1.393 . S
C883 C882 1.391 . S
H884 C892 0.950 . S
H885 C897 0.950 . S
H886 C894 0.950 . S
H887 C896 0.950 . S
H888 C898 0.950 . S
H889 C900 0.950 . S
H890 C902 0.950 . S
H891 C903 0.950 . S
C892 H884 0.950 . S
C892 C893 1.386 . S
C892 C894 1.391 . S
C893 C892 1.386 . S
C893 C897 1.393 . S
C894 H886 0.950 . S
C894 C892 1.391 . S
C894 C895 1.400 . S
C895 C894 1.400 . S
C895 C896 1.398 . S
C895 C901 1.491 . S
C896 H887 0.950 . S
C896 C895 1.398 . S
C896 C897 1.391 . S
C897 H885 0.950 . S
C897 C893 1.393 . S
C897 C896 1.391 . S
C898 H888 0.950 . S
C898 C899 1.386 . S
C898 C900 1.391 . S
C899 C898 1.386 . S
C899 C903 1.393 . S
C900 H889 0.950 . S
C900 C898 1.391 . S
C900 C901 1.400 . S
C901 C895 1.491 . S
C901 C900 1.400 . S
C901 C902 1.398 . S
C902 H890 0.950 . S
C902 C901 1.398 . S
C902 C903 1.391 . S
C903 H891 0.950 . S
C903 C899 1.393 . S
C903 C902 1.391 . S
H904 C912 0.950 . S
H905 C917 0.950 . S
H906 C914 0.950 . S
H907 C916 0.950 . S
H908 C918 0.950 . S
H909 C920 0.950 . S
H910 C922 0.950 . S
H911 C923 0.950 . S
C912 H904 0.950 . S
C912 C913 1.386 . S
C912 C914 1.391 . S
C913 C912 1.386 . S
C913 C917 1.393 . S
C914 H906 0.950 . S
C914 C912 1.391 . S
C914 C915 1.400 . S
C915 C914 1.400 . S
C915 C916 1.398 . S
C915 C921 1.491 . S
C916 H907 0.950 . S
C916 C915 1.398 . S
C916 C917 1.391 . S
C917 H905 0.950 . S
C917 C913 1.393 . S
C917 C916 1.391 . S
C918 H908 0.950 . S
C918 C919 1.386 . S
C918 C920 1.391 . S
C919 C918 1.386 . S
C919 C923 1.393 . S
C920 H909 0.950 . S
C920 C918 1.391 . S
C920 C921 1.400 . S
C921 C915 1.491 . S
C921 C920 1.400 . S
C921 C922 1.398 . S
C922 H910 0.950 . S
C922 C921 1.398 . S
C922 C923 1.391 . S
C923 H911 0.950 . S
C923 C919 1.393 . S
C923 C922 1.391 . S
H924 C932 0.950 . S
H925 C937 0.950 . S
H926 C934 0.950 . S
H927 C936 0.950 . S
H928 C938 0.950 . S
H929 C940 0.950 . S
H930 C942 0.950 . S
H931 C943 0.950 . S
C932 H924 0.950 . S
C932 C933 1.386 . S
C932 C934 1.391 . S
C933 C932 1.386 . S
C933 C937 1.393 . S
C934 H926 0.950 . S
C934 C932 1.391 . S
C934 C935 1.400 . S
C935 C934 1.400 . S
C935 C936 1.398 . S
C935 C941 1.491 . S
C936 H927 0.950 . S
C936 C935 1.398 . S
C936 C937 1.391 . S
C937 H925 0.950 . S
C937 C933 1.393 . S
C937 C936 1.391 . S
C938 H928 0.950 . S
C938 C939 1.386 . S
C938 C940 1.391 . S
C939 C938 1.386 . S
C939 C943 1.393 . S
C940 H929 0.950 . S
C940 C938 1.391 . S
C940 C941 1.400 . S
C941 C935 1.491 . S
C941 C940 1.400 . S
C941 C942 1.398 . S
C942 H930 0.950 . S
C942 C941 1.398 . S
C942 C943 1.391 . S
C943 H931 0.950 . S
C943 C939 1.393 . S
C943 C942 1.391 . S
H944 C952 0.950 . S
H945 C957 0.950 . S
H946 C954 0.950 . S
H947 C956 0.950 . S
H948 C958 0.950 . S
H949 C960 0.950 . S
H950 C962 0.950 . S
H951 C963 0.950 . S
C952 H944 0.950 . S
C952 C953 1.386 . S
C952 C954 1.391 . S
C953 C952 1.386 . S
C953 C957 1.393 . S
C954 H946 0.950 . S
C954 C952 1.391 . S
C954 C955 1.400 . S
C955 C954 1.400 . S
C955 C956 1.398 . S
C955 C961 1.491 . S
C956 H947 0.950 . S
C956 C955 1.398 . S
C956 C957 1.391 . S
C957 H945 0.950 . S
C957 C953 1.393 . S
C957 C956 1.391 . S
C958 H948 0.950 . S
C958 C959 1.386 . S
C958 C960 1.391 . S
C959 C958 1.386 . S
C959 C963 1.393 . S
C960 H949 0.950 . S
C960 C958 1.391 . S
C960 C961 1.400 . S
C961 C955 1.491 . S
C961 C960 1.400 . S
C961 C962 1.398 . S
C962 H950 0.950 . S
C962 C961 1.398 . S
C962 C963 1.391 . S
C963 H951 0.950 . S
C963 C959 1.393 . S
C963 C962 1.391 . S
H964 C972 0.950 . S
H965 C977 0.950 . S
H966 C974 0.950 . S
H967 C976 0.950 . S
H968 C978 0.950 . S
H969 C980 0.950 . S
H970 C982 0.950 . S
H971 C983 0.950 . S
C972 H964 0.950 . S
C972 C973 1.386 . S
C972 C974 1.391 . S
C973 C972 1.386 . S
C973 C977 1.393 . S
C974 H966 0.950 . S
C974 C972 1.391 . S
C974 C975 1.400 . S
C975 C974 1.400 . S
C975 C976 1.398 . S
C975 C981 1.491 . S
C976 H967 0.950 . S
C976 C975 1.398 . S
C976 C977 1.391 . S
C977 H965 0.950 . S
C977 C973 1.393 . S
C977 C976 1.391 . S
C978 H968 0.950 . S
C978 C979 1.386 . S
C978 C980 1.391 . S
C979 C978 1.386 . S
C979 C983 1.393 . S
C980 H969 0.950 . S
C980 C978 1.391 . S
C980 C981 1.400 . S
C981 C975 1.491 . S
C981 C980 1.400 . S
C981 C982 1.398 . S
C982 H970 0.950 . S
C982 C981 1.398 . S
C982 C983 1.391 . S
C983 H971 0.950 . S
C983 C979 1.393 . S
C983 C982 1.391 . S
H984 C992 0.950 . S
H985 C997 0.950 . S
H986 C994 0.950 . S
H987 C996 0.950 . S
H988 C998 0.950 . S
H989 C1000 0.950 . S
H990 C1002 0.950 . S
H991 C1003 0.950 . S
C992 H984 0.950 . S
C992 C993 1.386 . S
C992 C994 1.391 . S
C993 C992 1.386 . S
C993 C997 1.393 . S
C994 H986 0.950 . S
C994 C992 1.391 . S
C994 C995 1.400 . S
C995 C994 1.400 . S
C995 C996 1.398 . S
C995 C1001 1.491 . S
C996 H987 0.950 . S
C996 C995 1.398 . S
C996 C997 1.391 . S
C997 H985 0.950 . S
C997 C993 1.393 . S
C997 C996 1.391 . S
C998 H988 0.950 . S
C998 C999 1.386 . S
C998 C1000 1.391 . S
C999 C998 1.386 . S
C999 C1003 1.393 . S
C1000 H989 0.950 . S
C1000 C998 1.391 . S
C1000 C1001 1.400 . S
C1001 C995 1.491 . S
C1001 C1000 1.400 . S
C1001 C1002 1.398 . S
C1002 H990 0.950 . S
C1002 C1001 1.398 . S
C1002 C1003 1.391 . S
C1003 H991 0.950 . S
C1003 C999 1.393 . S
C1003 C1002 1.391 . S
H1004 C1012 0.950 . S
H1005 C1017 0.950 . S
H1006 C1014 0.950 . S
H1007 C1016 0.950 . S
H1008 C1018 0.950 . S
H1009 C1020 0.950 . S
H1010 C1022 0.950 . S
H1011 C1023 0.950 . S
C1012 H1004 0.950 . S
C1012 C1013 1.386 . S
C1012 C1014 1.391 . S
C1013 C1012 1.386 . S
C1013 C1017 1.393 . S
C1014 H1006 0.950 . S
C1014 C1012 1.391 . S
C1014 C1015 1.400 . S
C1015 C1014 1.400 . S
C1015 C1016 1.398 . S
C1015 C1021 1.491 . S
C1016 H1007 0.950 . S
C1016 C1015 1.398 . S
C1016 C1017 1.391 . S
C1017 H1005 0.950 . S
C1017 C1013 1.393 . S
C1017 C1016 1.391 . S
C1018 H1008 0.950 . S
C1018 C1019 1.386 . S
C1018 C1020 1.391 . S
C1019 C1018 1.386 . S
C1019 C1023 1.393 . S
C1020 H1009 0.950 . S
C1020 C1018 1.391 . S
C1020 C1021 1.400 . S
C1021 C1015 1.491 . S
C1021 C1020 1.400 . S
C1021 C1022 1.398 . S
C1022 H1010 0.950 . S
C1022 C1021 1.398 . S
C1022 C1023 1.391 . S
C1023 H1011 0.950 . S
C1023 C1019 1.393 . S
C1023 C1022 1.391 . S
H1024 C1032 0.950 . S
H1025 C1037 0.950 . S
H1026 C1034 0.950 . S
H1027 C1036 0.950 . S
H1028 C1038 0.950 . S
H1029 C1040 0.950 . S
H1030 C1042 0.950 . S
H1031 C1043 0.950 . S
C1032 H1024 0.950 . S
C1032 C1033 1.386 . S
C1032 C1034 1.391 . S
C1033 C1032 1.386 . S
C1033 C1037 1.393 . S
C1034 H1026 0.950 . S
C1034 C1032 1.391 . S
C1034 C1035 1.400 . S
C1035 C1034 1.400 . S
C1035 C1036 1.398 . S
C1035 C1041 1.491 . S
C1036 H1027 0.950 . S
C1036 C1035 1.398 . S
C1036 C1037 1.391 . S
C1037 H1025 0.950 . S
C1037 C1033 1.393 . S
C1037 C1036 1.391 . S
C1038 H1028 0.950 . S
C1038 C1039 1.386 . S
C1038 C1040 1.391 . S
C1039 C1038 1.386 . S
C1039 C1043 1.393 . S
C1040 H1029 0.950 . S
C1040 C1038 1.391 . S
C1040 C1041 1.400 . S
C1041 C1035 1.491 . S
C1041 C1040 1.400 . S
C1041 C1042 1.398 . S
C1042 H1030 0.950 . S
C1042 C1041 1.398 . S
C1042 C1043 1.391 . S
C1043 H1031 0.950 . S
C1043 C1039 1.393 . S
C1043 C1042 1.391 . S
H1044 C1052 0.950 . S
H1045 C1057 0.950 . S
H1046 C1054 0.950 . S
H1047 C1056 0.950 . S
H1048 C1058 0.950 . S
H1049 C1060 0.950 . S
H1050 C1062 0.950 . S
H1051 C1063 0.950 . S
C1052 H1044 0.950 . S
C1052 C1053 1.386 . S
C1052 C1054 1.391 . S
C1053 C1052 1.386 . S
C1053 C1057 1.393 . S
C1054 H1046 0.950 . S
C1054 C1052 1.391 . S
C1054 C1055 1.400 . S
C1055 C1054 1.400 . S
C1055 C1056 1.398 . S
C1055 C1061 1.491 . S
C1056 H1047 0.950 . S
C1056 C1055 1.398 . S
C1056 C1057 1.391 . S
C1057 H1045 0.950 . S
C1057 C1053 1.393 . S
C1057 C1056 1.391 . S
C1058 H1048 0.950 . S
C1058 C1059 1.386 . S
C1058 C1060 1.391 . S
C1059 C1058 1.386 . S
C1059 C1063 1.393 . S
C1060 H1049 0.950 . S
C1060 C1058 1.391 . S
C1060 C1061 1.400 . S
C1061 C1055 1.491 . S
C1061 C1060 1.400 . S
C1061 C1062 1.398 . S
C1062 H1050 0.950 . S
C1062 C1061 1.398 . S
C1062 C1063 1.391 . S
C1063 H1051 0.950 . S
C1063 C1059 1.393 . S
C1063 C1062 1.391 . S
H1064 C1072 0.950 . S
H1065 C1077 0.950 . S
H1066 C1074 0.950 . S
H1067 C1076 0.950 . S
H1068 C1078 0.950 . S
H1069 C1080 0.950 . S
H1070 C1082 0.950 . S
H1071 C1083 0.950 . S
C1072 H1064 0.950 . S
C1072 C1073 1.386 . S
C1072 C1074 1.391 . S
C1073 C1072 1.386 . S
C1073 C1077 1.393 . S
C1074 H1066 0.950 . S
C1074 C1072 1.391 . S
C1074 C1075 1.400 . S
C1075 C1074 1.400 . S
C1075 C1076 1.398 . S
C1075 C1081 1.491 . S
C1076 H1067 0.950 . S
C1076 C1075 1.398 . S
C1076 C1077 1.391 . S
C1077 H1065 0.950 . S
C1077 C1073 1.393 . S
C1077 C1076 1.391 . S
C1078 H1068 0.950 . S
C1078 C1079 1.386 . S
C1078 C1080 1.391 . S
C1079 C1078 1.386 . S
C1079 C1083 1.393 . S
C1080 H1069 0.950 . S
C1080 C1078 1.391 . S
C1080 C1081 1.400 . S
C1081 C1075 1.491 . S
C1081 C1080 1.400 . S
C1081 C1082 1.398 . S
C1082 H1070 0.950 . S
C1082 C1081 1.398 . S
C1082 C1083 1.391 . S
C1083 H1071 0.950 . S
C1083 C1079 1.393 . S
C1083 C1082 1.391 . S
H1084 C1092 0.950 . S
H1085 C1097 0.950 . S
H1086 C1094 0.950 . S
H1087 C1096 0.950 . S
H1088 C1098 0.950 . S
H1089 C1100 0.950 . S
H1090 C1102 0.950 . S
H1091 C1103 0.950 . S
C1092 H1084 0.950 . S
C1092 C1093 1.386 . S
C1092 C1094 1.391 . S
C1093 C1092 1.386 . S
C1093 C1097 1.393 . S
C1094 H1086 0.950 . S
C1094 C1092 1.391 . S
C1094 C1095 1.400 . S
C1095 C1094 1.400 . S
C1095 C1096 1.398 . S
C1095 C1101 1.491 . S
C1096 H1087 0.950 . S
C1096 C1095 1.398 . S
C1096 C1097 1.391 . S
C1097 H1085 0.950 . S
C1097 C1093 1.393 . S
C1097 C1096 1.391 . S
C1098 H1088 0.950 . S
C1098 C1099 1.386 . S
C1098 C1100 1.391 . S
C1099 C1098 1.386 . S
C1099 C1103 1.393 . S
C1100 H1089 0.950 . S
C1100 C1098 1.391 . S
C1100 C1101 1.400 . S
C1101 C1095 1.491 . S
C1101 C1100 1.400 . S
C1101 C1102 1.398 . S
C1102 H1090 0.950 . S
C1102 C1101 1.398 . S
C1102 C1103 1.391 . S
C1103 H1091 0.950 . S
C1103 C1099 1.393 . S
C1103 C1102 1.391 . S
H1104 C1112 0.950 . S
H1105 C1117 0.950 . S
H1106 C1114 0.950 . S
H1107 C1116 0.950 . S
H1108 C1118 0.950 . S
H1109 C1120 0.950 . S
H1110 C1122 0.950 . S
H1111 C1123 0.950 . S
C1112 H1104 0.950 . S
C1112 C1113 1.386 . S
C1112 C1114 1.391 . S
C1113 C1112 1.386 . S
C1113 C1117 1.393 . S
C1114 H1106 0.950 . S
C1114 C1112 1.391 . S
C1114 C1115 1.400 . S
C1115 C1114 1.400 . S
C1115 C1116 1.398 . S
C1115 C1121 1.491 . S
C1116 H1107 0.950 . S
C1116 C1115 1.398 . S
C1116 C1117 1.391 . S
C1117 H1105 0.950 . S
C1117 C1113 1.393 . S
C1117 C1116 1.391 . S
C1118 H1108 0.950 . S
C1118 C1119 1.386 . S
C1118 C1120 1.391 . S
C1119 C1118 1.386 . S
C1119 C1123 1.393 . S
C1120 H1109 0.950 . S
C1120 C1118 1.391 . S
C1120 C1121 1.400 . S
C1121 C1115 1.491 . S
C1121 C1120 1.400 . S
C1121 C1122 1.398 . S
C1122 H1110 0.950 . S
C1122 C1121 1.398 . S
C1122 C1123 1.391 . S
C1123 H1111 0.950 . S
C1123 C1119 1.393 . S
C1123 C1122 1.391 . S
H1124 C1132 0.950 . S
H1125 C1137 0.950 . S
H1126 C1134 0.950 . S
H1127 C1136 0.950 . S
H1128 C1138 0.950 . S
H1129 C1140 0.950 . S
H1130 C1142 0.950 . S
H1131 C1143 0.950 . S
C1132 H1124 0.950 . S
C1132 C1133 1.386 . S
C1132 C1134 1.391 . S
C1133 C1132 1.386 . S
C1133 C1137 1.393 . S
C1134 H1126 0.950 . S
C1134 C1132 1.391 . S
C1134 C1135 1.400 . S
C1135 C1134 1.400 . S
C1135 C1136 1.398 . S
C1135 C1141 1.491 . S
C1136 H1127 0.950 . S
C1136 C1135 1.398 . S
C1136 C1137 1.391 . S
C1137 H1125 0.950 . S
C1137 C1133 1.393 . S
C1137 C1136 1.391 . S
C1138 H1128 0.950 . S
C1138 C1139 1.386 . S
C1138 C1140 1.391 . S
C1139 C1138 1.386 . S
C1139 C1143 1.393 . S
C1140 H1129 0.950 . S
C1140 C1138 1.391 . S
C1140 C1141 1.400 . S
C1141 C1135 1.491 . S
C1141 C1140 1.400 . S
C1141 C1142 1.398 . S
C1142 H1130 0.950 . S
C1142 C1141 1.398 . S
C1142 C1143 1.391 . S
C1143 H1131 0.950 . S
C1143 C1139 1.393 . S
C1143 C1142 1.391 . S
H1144 C1152 0.950 . S
H1145 C1157 0.950 . S
H1146 C1154 0.950 . S
H1147 C1156 0.950 . S
H1148 C1158 0.950 . S
H1149 C1160 0.950 . S
H1150 C1162 0.950 . S
H1151 C1163 0.950 . S
C1152 H1144 0.950 . S
C1152 C1153 1.386 . S
C1152 C1154 1.391 . S
C1153 C1152 1.386 . S
C1153 C1157 1.393 . S
C1154 H1146 0.950 . S
C1154 C1152 1.391 . S
C1154 C1155 1.400 . S
C1155 C1154 1.400 . S
C1155 C1156 1.398 . S
C1155 C1161 1.491 . S
C1156 H1147 0.950 . S
C1156 C1155 1.398 . S
C1156 C1157 1.391 . S
C1157 H1145 0.950 . S
C1157 C1153 1.393 . S
C1157 C1156 1.391 . S
C1158 H1148 0.950 . S
C1158 C1159 1.386 . S
C1158 C1160 1.391 . S
C1159 C1158 1.386 . S
C1159 C1163 1.393 . S
C1160 H1149 0.950 . S
C1160 C1158 1.391 . S
C1160 C1161 1.400 . S
C1161 C1155 1.491 . S
C1161 C1160 1.400 . S
C1161 C1162 1.398 . S
C1162 H1150 0.950 . S
C1162 C1161 1.398 . S
C1162 C1163 1.391 . S
C1163 H1151 0.950 . S
C1163 C1159 1.393 . S
C1163 C1162 1.391 . S
H1164 C1172 0.950 . S
H1165 C1177 0.950 . S
H1166 C1174 0.950 . S
H1167 C1176 0.950 . S
H1168 C1178 0.950 . S
H1169 C1180 0.950 . S
H1170 C1182 0.950 . S
H1171 C1183 0.950 . S
C1172 H1164 0.950 . S
C1172 C1173 1.386 . S
C1172 C1174 1.391 . S
C1173 C1172 1.386 . S
C1173 C1177 1.393 . S
C1174 H1166 0.950 . S
C1174 C1172 1.391 . S
C1174 C1175 1.400 . S
C1175 C1174 1.400 . S
C1175 C1176 1.398 . S
C1175 C1181 1.491 . S
C1176 H1167 0.950 . S
C1176 C1175 1.398 . S
C1176 C1177 1.391 . S
C1177 H1165 0.950 . S
C1177 C1173 1.393 . S
C1177 C1176 1.391 . S
C1178 H1168 0.950 . S
C1178 C1179 1.386 . S
C1178 C1180 1.391 . S
C1179 C1178 1.386 . S
C1179 C1183 1.393 . S
C1180 H1169 0.950 . S
C1180 C1178 1.391 . S
C1180 C1181 1.400 . S
C1181 C1175 1.491 . S
C1181 C1180 1.400 . S
C1181 C1182 1.398 . S
C1182 H1170 0.950 . S
C1182 C1181 1.398 . S
C1182 C1183 1.391 . S
C1183 H1171 0.950 . S
C1183 C1179 1.393 . S
C1183 C1182 1.391 . S
H1184 C1192 0.950 . S
H1185 C1197 0.950 . S
H1186 C1194 0.950 . S
H1187 C1196 0.950 . S
H1188 C1198 0.950 . S
H1189 C1200 0.950 . S
H1190 C1202 0.950 . S
H1191 C1203 0.950 . S
C1192 H1184 0.950 . S
C1192 C1193 1.386 . S
C1192 C1194 1.391 . S
C1193 C1192 1.386 . S
C1193 C1197 1.393 . S
C1194 H1186 0.950 . S
C1194 C1192 1.391 . S
C1194 C1195 1.400 . S
C1195 C1194 1.400 . S
C1195 C1196 1.398 . S
C1195 C1201 1.491 . S
C1196 H1187 0.950 . S
C1196 C1195 1.398 . S
C1196 C1197 1.391 . S
C1197 H1185 0.950 . S
C1197 C1193 1.393 . S
C1197 C1196 1.391 . S
C1198 H1188 0.950 . S
C1198 C1199 1.386 . S
C1198 C1200 1.391 . S
C1199 C1198 1.386 . S
C1199 C1203 1.393 . S
C1200 H1189 0.950 . S
C1200 C1198 1.391 . S
C1200 C1201 1.400 . S
C1201 C1195 1.491 . S
C1201 C1200 1.400 . S
C1201 C1202 1.398 . S
C1202 H1190 0.950 . S
C1202 C1201 1.398 . S
C1202 C1203 1.391 . S
C1203 H1191 0.950 . S
C1203 C1199 1.393 . S
C1203 C1202 1.391 . S
H1204 C1212 0.950 . S
H1205 C1217 0.950 . S
H1206 C1214 0.950 . S
H1207 C1216 0.950 . S
H1208 C1218 0.950 . S
H1209 C1220 0.950 . S
H1210 C1222 0.950 . S
H1211 C1223 0.950 . S
C1212 H1204 0.950 . S
C1212 C1213 1.386 . S
C1212 C1214 1.391 . S
C1213 C1212 1.386 . S
C1213 C1217 1.393 . S
C1214 H1206 0.950 . S
C1214 C1212 1.391 . S
C1214 C1215 1.400 . S
C1215 C1214 1.400 . S
C1215 C1216 1.398 . S
C1215 C1221 1.491 . S
C1216 H1207 0.950 . S
C1216 C1215 1.398 . S
C1216 C1217 1.391 . S
C1217 H1205 0.950 . S
C1217 C1213 1.393 . S
C1217 C1216 1.391 . S
C1218 H1208 0.950 . S
C1218 C1219 1.386 . S
C1218 C1220 1.391 . S
C1219 C1218 1.386 . S
C1219 C1223 1.393 . S
C1220 H1209 0.950 . S
C1220 C1218 1.391 . S
C1220 C1221 1.400 . S
C1221 C1215 1.491 . S
C1221 C1220 1.400 . S
C1221 C1222 1.398 . S
C1222 H1210 0.950 . S
C1222 C1221 1.398 . S
C1222 C1223 1.391 . S
C1223 H1211 0.950 . S
C1223 C1219 1.393 . S
C1223 C1222 1.391 . S
H1224 C1232 0.950 . S
H1225 C1237 0.950 . S
H1226 C1234 0.950 . S
H1227 C1236 0.950 . S
H1228 C1238 0.950 . S
H1229 C1240 0.950 . S
H1230 C1242 0.950 . S
H1231 C1243 0.950 . S
C1232 H1224 0.950 . S
C1232 C1233 1.386 . S
C1232 C1234 1.391 . S
C1233 C1232 1.386 . S
C1233 C1237 1.393 . S
C1234 H1226 0.950 . S
C1234 C1232 1.391 . S
C1234 C1235 1.400 . S
C1235 C1234 1.400 . S
C1235 C1236 1.398 . S
C1235 C1241 1.491 . S
C1236 H1227 0.950 . S
C1236 C1235 1.398 . S
C1236 C1237 1.391 . S
C1237 H1225 0.950 . S
C1237 C1233 1.393 . S
C1237 C1236 1.391 . S
C1238 H1228 0.950 . S
C1238 C1239 1.386 . S
C1238 C1240 1.391 . S
C1239 C1238 1.386 . S
C1239 C1243 1.393 . S
C1240 H1229 0.950 . S
C1240 C1238 1.391 . S
C1240 C1241 1.400 . S
C1241 C1235 1.491 . S
C1241 C1240 1.400 . S
C1241 C1242 1.398 . S
C1242 H1230 0.950 . S
C1242 C1241 1.398 . S
C1242 C1243 1.391 . S
C1243 H1231 0.950 . S
C1243 C1239 1.393 . S
C1243 C1242 1.391 . S
C779 C359 1.499 . S
C773 C15 1.529 . S
C799 C463 2.031 . S
C793 C55 2.047 . S
C819 C383 1.389 . S
C813 C101 1.433 . S
C839 C445 1.487 . S
C833 C141 1.408 . S
C859 C519 1.370 . S
C853 C2 1.354 . S
C879 C581 1.743 . S
C873 C61 1.797 . S
C893 C95 1.025 . S
C899 C655 1.025 . S
C919 C741 1.121 . S
C913 C135 1.110 . S
C939 C537 2.425 . S
C933 C42 2.445 . S
C953 C82 1.781 . S
C959 C605 1.735 . S
C979 C679 1.196 . S
C973 C122 1.163 . S
C999 C759 1.695 . S
C993 C21 1.665 . S
C1013 C162 1.630 . S
C1019 C457 1.564 . S
C1039 C371 1.860 . S
C1033 C221 1.940 . S
C1053 C255 1.358 . S
C1059 C433 1.262 . S
C1073 C282 2.383 . S
C1079 C389 2.399 . S
C1099 C685 1.777 . S
C1093 C181 1.828 . S
C1119 C753 1.381 . S
C1113 C202 1.380 . S
C1139 C531 1.894 . S
C1133 C242 2.017 . S
C1153 C301 2.451 . S
C1159 C611 2.522 . S
C1179 C667 1.609 . S
C1173 C215 1.620 . S
C1199 C729 1.208 . S
C1193 C261 1.244 . S
C1219 C507 1.931 . S
C1213 C295 2.015 . S
C1233 C175 1.426 . S
C1239 C593 1.425 . S
