# Generated by pormake.
# Topology anh, (6,3)-cn, num edge types: 1
# Building blocks:
#     Node 0, Type 0, BuildingBlock: PAMTOO_clean_sbu_0, # of connection points: 6
#     Node 1, Type 0, BuildingBlock: PAMTOO_clean_sbu_0, # of connection points: 6
#     Node 2, Type 0, BuildingBlock: PAMTOO_clean_sbu_0, # of connection points: 6
#     Node 3, Type 1, BuildingBlock: QEWDON_clean_linker_0, # of connection points: 3
#     Node 4, Type 1, BuildingBlock: QEWDON_clean_linker_0, # of connection points: 3
#     Node 5, Type 1, BuildingBlock: QEWDON_clean_linker_0, # of connection points: 3
#     Node 6, Type 1, BuildingBlock: QEWDON_clean_linker_0, # of connection points: 3
#     Node 7, Type 1, BuildingBlock: QEWDON_clean_linker_0, # of connection points: 3
#     Node 8, Type 1, BuildingBlock: QEWDON_clean_linker_0, # of connection points: 3
#     Edge 9, Type (0, 1), BuildingBlock: MIFKUJ_clean_linker_0, # of connection points: 2
#     Edge 10, Type (0, 1), BuildingBlock: MIFKUJ_clean_linker_0, # of connection points: 2
#     Edge 11, Type (0, 1), BuildingBlock: MIFKUJ_clean_linker_0, # of connection points: 2
#     Edge 12, Type (0, 1), BuildingBlock: MIFKUJ_clean_linker_0, # of connection points: 2
#     Edge 13, Type (0, 1), BuildingBlock: MIFKUJ_clean_linker_0, # of connection points: 2
#     Edge 14, Type (0, 1), BuildingBlock: MIFKUJ_clean_linker_0, # of connection points: 2
#     Edge 15, Type (0, 1), BuildingBlock: MIFKUJ_clean_linker_0, # of connection points: 2
#     Edge 16, Type (0, 1), BuildingBlock: MIFKUJ_clean_linker_0, # of connection points: 2
#     Edge 17, Type (0, 1), BuildingBlock: MIFKUJ_clean_linker_0, # of connection points: 2
#     Edge 18, Type (0, 1), BuildingBlock: MIFKUJ_clean_linker_0, # of connection points: 2
#     Edge 19, Type (0, 1), BuildingBlock: MIFKUJ_clean_linker_0, # of connection points: 2
#     Edge 20, Type (0, 1), BuildingBlock: MIFKUJ_clean_linker_0, # of connection points: 2
#     Edge 21, Type (0, 1), BuildingBlock: MIFKUJ_clean_linker_0, # of connection points: 2
#     Edge 22, Type (0, 1), BuildingBlock: MIFKUJ_clean_linker_0, # of connection points: 2
#     Edge 23, Type (0, 1), BuildingBlock: MIFKUJ_clean_linker_0, # of connection points: 2
#     Edge 24, Type (0, 1), BuildingBlock: MIFKUJ_clean_linker_0, # of connection points: 2
#     Edge 25, Type (0, 1), BuildingBlock: MIFKUJ_clean_linker_0, # of connection points: 2
#     Edge 26, Type (0, 1), BuildingBlock: MIFKUJ_clean_linker_0, # of connection points: 2
# Relax obj value: 0.100
# Max RMSD: 0.142
# Mean RMSD: 0.117
data_MOF--net-anh--node1-PAMTOO_clean_sbu_0--node2-QEWDON_clean_linker_0--edge1-MIFKUJ_clean_linker_0
_symmetry_space_group_name_H-M    P1
_symmetry_Int_Tables_number       1
_symmetry_cell_setting            triclinic
loop_
_symmetry_equiv_pos_as_xyz
'x, y, z'
_cell_length_a     40.886981
_cell_length_b     39.796481
_cell_length_c     62.771588
_cell_angle_alpha  94.38197
_cell_angle_beta   99.168732
_cell_angle_gamma 105.95338
loop_
_atom_site_label
_atom_site_type_symbol
_atom_site_fract_x
_atom_site_fract_y
_atom_site_fract_z
_atom_type_partial_charge
Dy0 Dy 0.11205 0.63791 0.16205 0.0
Dy1 Dy 0.0861 0.55172 0.15107 0.0
C2 C 0.1038 0.60143 0.11368 0.0
O3 O 1.05405 0.62418 0.15047 0.0
O4 O 1.04004 0.56767 0.15889 0.0
O5 O 0.11481 0.69059 0.15438 0.0
O6 O 0.13899 0.68251 0.18616 0.0
O7 O 0.10699 0.56468 0.1867 0.0
O8 O 0.09255 0.6157 0.19074 0.0
O9 O 0.14215 0.56475 0.14782 0.0
O10 O 0.16129 0.62121 0.16595 0.0
O11 O 0.08377 0.49966 0.15983 0.0
O12 O 1.05338 0.50569 0.12967 0.0
C13 C 1.03095 0.59593 0.15424 0.0
O14 O 0.12021 0.62868 0.12825 0.0
O15 O 0.08496 0.57178 0.11877 0.0
C16 C 0.16623 0.73364 0.17209 0.0
C17 C 0.22807 0.78789 0.17368 0.0
C18 C 0.22542 0.75288 0.16602 0.0
C19 C 0.19473 0.72594 0.16526 0.0
C20 C 0.16844 0.76852 0.1792 0.0
C21 C 0.19904 0.79543 0.17997 0.0
C22 C 0.1348 0.70542 0.17297 0.0
C23 C 0.09961 0.58867 0.19891 0.0
C24 C 0.16758 0.5931 0.15682 0.0
C25 C 1.02737 0.46062 0.14865 0.0
C26 C 0.96326 0.41797 0.15542 0.0
C27 C 0.9781 0.45195 0.16693 0.0
C28 C 1.00984 0.47312 0.16353 0.0
C29 C 1.01301 0.42661 0.13741 0.0
C30 C 0.98123 0.40542 0.14077 0.0
C31 C 1.05889 0.48408 0.14343 0.0
H32 H 0.24736 0.74613 0.16124 0.0
H33 H 0.19344 0.69904 0.15979 0.0
H34 H 0.14664 0.77488 0.18449 0.0
H35 H 0.20004 0.82217 0.1856 0.0
H36 H 0.96472 0.46256 0.1781 0.0
H37 H 1.02035 0.49954 0.17216 0.0
H38 H 1.02606 0.41668 0.12574 0.0
H39 H 0.97064 0.37923 0.13185 0.0
Dy40 Dy 0.56546 0.04287 0.50011 0.0
Dy41 Dy 0.65091 0.06782 0.51039 0.0
C42 C 0.60768 0.04693 0.54795 0.0
O43 O 0.58039 0.10048 0.51215 0.0
O44 O 0.63625 0.11732 0.50593 0.0
O45 O 0.5165 0.03867 0.51011 0.0
O46 O 0.51781 0.01663 0.47769 0.0
O47 O 0.63338 0.05768 0.47431 0.0
O48 O 0.58158 0.06972 0.47198 0.0
O49 O 0.63566 0.01028 0.5135 0.0
O50 O 0.58245 0.99562 0.49115 0.0
O51 O 0.69903 0.06683 0.50041 0.0
O52 O 0.69968 0.09664 0.53086 0.0
C53 C 0.60844 0.125 0.51012 0.0
O54 O 0.58085 0.0289 0.53319 0.0
O55 O 0.6347 0.06884 0.54267 0.0
C56 C 0.47475 0.98516 0.49519 0.0
C57 C 0.42861 0.91995 0.4994 0.0
C58 C 0.46462 0.92576 0.50495 0.0
C59 C 0.4875 0.95814 0.50291 0.0
C60 C 0.43898 0.97972 0.48985 0.0
C61 C 0.41606 0.94739 0.49195 0.0
C62 C 0.49873 0.01868 0.49226 0.0
C63 C 0.60813 0.06735 0.46335 0.0
C64 C 0.60837 0.98653 0.50188 0.0
C65 C 0.7413 0.12223 0.51004 0.0
C66 C 0.78481 0.1818 0.49646 0.0
C67 C 0.7868 0.14777 0.49029 0.0
C68 C 0.76529 0.11828 0.49707 0.0
C69 C 0.73928 0.1562 0.51619 0.0
C70 C 0.76088 0.1856 0.50958 0.0
C71 C 0.71762 0.09086 0.5163 0.0
H72 H 0.47511 0.90531 0.51087 0.0
H73 H 0.51515 0.96202 0.50716 0.0
H74 H 0.42878 1.00031 0.48381 0.0
H75 H 0.38852 0.94359 0.48721 0.0
H76 H 0.80465 0.14384 0.48 0.0
H77 H 0.76713 0.09234 0.49198 0.0
H78 H 0.72093 0.1602 0.52609 0.0
H79 H 0.75904 0.2114 0.51501 0.0
Dy80 Dy 0.62977 0.53081 0.83638 0.0
Dy81 Dy 0.54431 0.50557 0.82498 0.0
C82 C 0.58904 0.51945 0.78668 0.0
O83 O 0.61458 0.58038 0.84136 0.0
O84 O 0.56082 0.56179 0.81911 0.0
O85 O 0.68029 0.56082 0.83146 0.0
O86 O 0.67581 0.52532 0.856 0.0
O87 O 0.55779 0.52688 0.8601 0.0
O88 O 0.61251 0.52112 0.86797 0.0
O89 O 0.56103 0.4594 0.83546 0.0
O90 O 0.61232 0.47377 0.82351 0.0
O91 O 0.4954 0.50965 0.83171 0.0
O92 O 0.49653 0.47082 0.80595 0.0
C93 C 0.58758 0.58704 0.83003 0.0
O94 O 0.61791 0.53337 0.80083 0.0
O95 O 0.55949 0.50436 0.79243 0.0
C96 C 0.72002 0.52715 0.83552 0.0
C97 C 0.76555 0.49549 0.81818 0.0
C98 C 0.76469 0.52941 0.81385 0.0
C99 C 0.74224 0.54514 0.82252 0.0
C100 C 0.72041 0.4929 0.83946 0.0
C101 C 0.743 0.4773 0.83093 0.0
C102 C 0.69623 0.54395 0.84452 0.0
C103 C 0.58476 0.52587 0.87415 0.0
C104 C 0.58719 0.45045 0.82958 0.0
C105 C 0.45388 0.50032 0.80012 0.0
C106 C 0.41056 0.53425 0.77661 0.0
C107 C 0.39764 0.5097 0.7905 0.0
C108 C 0.41915 0.49291 0.80214 0.0
C109 C 0.46666 0.52362 0.78564 0.0
C110 C 0.44513 0.5404 0.77392 0.0
C111 C 0.47756 0.48714 0.81493 0.0
H112 H 0.78221 0.54426 0.80437 0.0
H113 H 0.74245 0.57152 0.81922 0.0
H114 H 0.70347 0.47811 0.84928 0.0
H115 H 0.74308 0.45109 0.83446 0.0
H116 H 0.3714 0.50486 0.79335 0.0
H117 H 0.40907 0.47534 0.81346 0.0
H118 H 0.49361 0.52984 0.78404 0.0
H119 H 0.45582 0.55896 0.76329 0.0
H120 H 0.61666 0.16184 0.2328 0.0
C121 C 0.5972 0.13674 0.22719 0.0
C122 C 0.58961 0.11216 0.24188 0.0
C123 C 0.57884 0.12943 0.20558 0.0
H124 H 0.5571 0.06189 0.24672 0.0
C125 C 0.56334 0.08036 0.23509 0.0
C126 C 0.54393 0.07301 0.21387 0.0
C127 C 0.55238 0.09731 0.19906 0.0
C128 C 0.58577 0.15607 0.19018 0.0
H129 H 0.53754 0.09171 0.18262 0.0
C130 C 0.6199 0.1758 0.18945 0.0
C131 C 0.62625 0.20075 0.1747 0.0
C132 C 0.55806 0.16206 0.17614 0.0
H133 H 0.53149 0.14799 0.1766 0.0
C134 C 0.56423 0.18678 0.16156 0.0
H135 H 0.64154 0.17115 0.19995 0.0
C136 C 0.59803 0.20596 0.16077 0.0
H137 H 0.60207 0.22531 0.14948 0.0
H138 H 0.54268 0.19124 0.1509 0.0
H139 H 0.57682 0.56986 0.5504 0.0
C140 C 0.58395 0.54685 0.5449 0.0
C141 C 0.59628 0.52748 0.56043 0.0
C142 C 0.57976 0.53599 0.52247 0.0
H143 H 0.61242 0.48111 0.56558 0.0
C144 C 0.60424 0.49682 0.55358 0.0
C145 C 0.59907 0.48468 0.53142 0.0
C146 C 0.58728 0.50452 0.51594 0.0
C147 C 0.5658 0.55637 0.50601 0.0
H148 H 0.58403 0.49523 0.49885 0.0
C149 C 0.57347 0.59352 0.50981 0.0
C150 C 0.55915 0.61231 0.49449 0.0
C151 C 0.54374 0.5385 0.4865 0.0
H152 H 0.53631 0.51006 0.48316 0.0
C153 C 0.53023 0.55698 0.47111 0.0
H154 H 0.59026 0.60782 0.52474 0.0
C155 C 0.53785 0.59348 0.47499 0.0
H156 H 0.52711 0.60699 0.46259 0.0
H157 H 0.51349 0.54285 0.45612 0.0
H158 H 0.14894 0.65564 0.88481 0.0
C159 C 0.13121 0.63108 0.87626 0.0
C160 C 0.11859 0.60293 0.88784 0.0
C161 C 0.12125 0.62766 0.85359 0.0
H162 H 0.08586 0.54958 0.88515 0.0
C163 C 0.09602 0.57119 0.8763 0.0
C164 C 0.08473 0.56776 0.85365 0.0
C165 C 0.0981 0.59613 0.8424 0.0
C166 C 0.1345 0.65726 0.84148 0.0
H167 H 0.08923 0.59466 0.82504 0.0
C168 C 0.15409 0.65307 0.82561 0.0
C169 C 0.16761 0.68111 0.81413 0.0
C170 C 0.12793 0.68965 0.84575 0.0
H171 H 0.11278 0.69331 0.85794 0.0
C172 C 0.14061 0.71741 0.83411 0.0
H173 H 0.15994 0.62829 0.82294 0.0
C174 C 0.16044 0.71329 0.81843 0.0
H175 H 0.17027 0.73528 0.80976 0.0
H176 H 0.13529 0.7423 0.83736 0.0
H177 H 1.05324 0.55196 0.42983 0.0
C178 C 0.07871 0.56778 0.4383 0.0
C179 C 0.1052 0.5789 0.42645 0.0
C180 C 0.08468 0.57784 0.46088 0.0
H181 H 0.15789 0.60982 0.42794 0.0
C182 C 0.1379 0.60008 0.43728 0.0
C183 C 0.14418 0.61108 0.45972 0.0
C184 C 0.11749 0.59969 0.47145 0.0
C185 C 1.05623 0.56668 0.47322 0.0
H186 H 0.12232 0.60784 0.48881 0.0
C187 C 1.03442 0.53177 0.46955 0.0
C188 C 1.00713 0.52124 0.48101 0.0
C189 C 1.05045 0.59104 0.48853 0.0
H190 H 0.06653 0.61818 0.4915 0.0
C191 C 1.0234 0.58078 0.49989 0.0
H192 H 1.03871 0.51279 0.4578 0.0
C193 C 1.00185 0.54616 0.49619 0.0
H194 H 0.9814 0.53876 0.50549 0.0
H195 H 1.01914 0.59974 0.51164 0.0
H196 H 0.56959 0.995 0.77715 0.0
C197 C 0.57582 0.02149 0.78545 0.0
C198 C 0.5859 0.05026 0.77382 0.0
C199 C 0.57136 0.02682 0.80716 0.0
H200 H 0.59986 0.10689 0.77519 0.0
C201 C 0.59246 0.0846 0.78414 0.0
C202 C 0.58828 0.09047 0.80565 0.0
C203 C 0.57799 0.06171 0.81714 0.0
C204 C 0.55706 0.99621 0.8188 0.0
H205 H 0.57485 0.06671 0.83379 0.0
C206 C 0.56534 0.9641 0.81568 0.0
C207 C 0.55025 0.93507 0.82612 0.0
C208 C 0.53369 0.99867 0.83267 0.0
H209 H 0.52576 0.02228 0.83502 0.0
C210 C 0.51945 0.97039 0.84339 0.0
H211 H 0.5831 0.9615 0.805 0.0
C212 C 0.52761 0.93889 0.84019 0.0
H213 H 0.51618 0.91743 0.84882 0.0
H214 H 0.50167 0.97279 0.85408 0.0
H215 H 0.57318 0.58548 0.11247 0.0
C216 C 0.59944 0.58675 0.11952 0.0
C217 C 0.62113 0.57966 0.10556 0.0
C218 C 0.61156 0.59596 0.14216 0.0
H219 H 0.67298 0.57906 0.10328 0.0
C220 C 0.65588 0.58304 0.11415 0.0
C221 C 0.66937 0.59196 0.13641 0.0
C222 C 0.64685 0.5974 0.15048 0.0
C223 C 0.58812 0.60607 0.15661 0.0
H224 H 0.65733 0.6034 0.16771 0.0
C225 C 0.55092 0.59565 0.15074 0.0
C226 C 0.53033 0.6068 0.16455 0.0
C227 C 0.60334 0.62824 0.17637 0.0
H228 H 0.6311 0.63854 0.18139 0.0
C229 C 0.58317 0.63872 0.18997 0.0
H230 H 0.53771 0.57853 0.13587 0.0
C231 C 0.54722 0.6281 0.18422 0.0
H232 H 0.53247 0.63722 0.19509 0.0
H233 H 0.59562 0.65572 0.20505 0.0
H234 H 0.19225 0.53948 0.14171 0.0
H235 H 0.25214 0.54056 0.14085 0.0
H236 H 0.28738 0.6492 0.1696 0.0
H237 H 0.22759 0.64802 0.17096 0.0
H238 H 0.3304 0.61954 0.18757 0.0
H239 H 0.30677 0.52132 0.10917 0.0
H240 H 0.26617 0.50285 0.07398 0.0
H241 H 0.24336 0.60194 0.07852 0.0
H242 H 0.28418 0.6212 0.11357 0.0
H243 H 0.48402 0.57286 0.1884 0.0
H244 H 0.42254 0.5687 0.18471 0.0
H245 H 0.42671 0.61884 0.12631 0.0
H246 H 0.48841 0.62202 0.12971 0.0
H247 H 0.36498 0.5737 0.12161 0.0
H248 H 0.43135 0.66519 0.17763 0.0
H249 H 0.474 0.69276 0.21108 0.0
H250 H 0.4139 0.62214 0.24832 0.0
H251 H 0.37112 0.5938 0.21502 0.0
C252 C 0.21265 0.56368 0.14789 0.0
C253 C 0.2046 0.59364 0.15644 0.0
C254 C 0.24716 0.56435 0.14724 0.0
C255 C 0.27492 0.59512 0.15488 0.0
C256 C 0.2669 0.62499 0.16357 0.0
C257 C 0.23241 0.6243 0.16431 0.0
C258 C 0.31213 0.59603 0.15422 0.0
C259 C 0.3377 0.60934 0.1731 0.0
C260 C 0.32267 0.58379 0.13529 0.0
C261 C 0.29827 0.57252 0.11413 0.0
C262 C 0.29318 0.53921 0.10263 0.0
C263 C 0.27012 0.5286 0.0827 0.0
C264 C 0.25211 0.55116 0.07405 0.0
C265 C 0.25722 0.58444 0.08528 0.0
C266 C 0.28029 0.59519 0.10519 0.0
C267 C 0.47167 0.58223 0.17445 0.0
C268 C 0.49133 0.59758 0.15929 0.0
C269 C 0.43641 0.58025 0.17248 0.0
C270 C 0.41958 0.59431 0.15554 0.0
C271 C 0.43868 0.60791 0.13965 0.0
C272 C 0.47407 0.60954 0.14151 0.0
C273 C 0.38288 0.59617 0.15516 0.0
C274 C 0.35751 0.5836 0.1361 0.0
C275 C 0.37266 0.61012 0.17372 0.0
C276 C 0.39821 0.62716 0.1938 0.0
C277 C 0.42735 0.65539 0.19293 0.0
C278 C 0.45153 0.67116 0.21186 0.0
C279 C 0.4467 0.65915 0.2318 0.0
C280 C 0.41763 0.63138 0.23285 0.0
C281 C 0.39339 0.61546 0.21396 0.0
H282 H 0.46545 0.6714 0.24644 0.0
H283 H 0.23427 0.5429 0.05863 0.0
H284 H 0.76875 0.24081 0.48416 0.0
H285 H 0.80802 0.29508 0.47692 0.0
H286 H 0.89208 0.24837 0.48492 0.0
H287 H 0.85334 0.19464 0.49361 0.0
H288 H 0.91241 0.31068 0.50667 0.0
H289 H 0.8539 0.26478 0.43406 0.0
H290 H 0.80297 0.23829 0.40493 0.0
H291 H 0.76832 0.32996 0.4142 0.0
H292 H 0.8188 0.35682 0.44363 0.0
H293 H 1.02664 0.46085 0.47708 0.0
H294 H 0.98996 0.40003 0.47405 0.0
H295 H 0.90034 0.43704 0.4747 0.0
H296 H 0.9367 0.49787 0.47717 0.0
H297 H 0.88608 0.37682 0.44548 0.0
H298 H 0.94111 0.41837 0.52076 0.0
H299 H 0.99112 0.4437 0.55071 0.0
H300 H 1.03223 0.3582 0.53575 0.0
H301 H 0.98265 0.33262 0.50551 0.0
C302 C 0.79562 0.24206 0.48448 0.0
C303 C 0.80793 0.21342 0.4897 0.0
C304 C 0.81798 0.27299 0.47999 0.0
C305 C 0.85299 0.27575 0.4801 0.0
C306 C 0.86515 0.24684 0.48467 0.0
C307 C 0.84287 0.216 0.48944 0.0
C308 C 0.87727 0.30959 0.47693 0.0
C309 C 0.907 0.3247 0.49299 0.0
C310 C 0.86994 0.32831 0.45933 0.0
C311 C 0.84008 0.31274 0.44117 0.0
C312 C 0.83537 0.27925 0.42995 0.0
C313 C 0.80656 0.26416 0.41339 0.0
C314 C 0.78238 0.28239 0.40776 0.0
C315 C 0.78707 0.31586 0.4186 0.0
C316 C 0.81581 0.33106 0.4352 0.0
C317 C 0.99903 0.45601 0.47617 0.0
C318 C 0.98461 0.4842 0.47756 0.0
C319 C 0.97814 0.42126 0.47456 0.0
C320 C 0.94249 0.41406 0.47439 0.0
C321 C 0.9278 0.44202 0.47484 0.0
C322 C 0.94866 0.47677 0.47649 0.0
C323 C 0.92088 0.37774 0.47527 0.0
C324 C 0.89167 0.36233 0.45887 0.0
C325 C 0.92872 0.35856 0.49248 0.0
C326 C 0.9584 0.37381 0.51074 0.0
C327 C 0.96095 0.40512 0.52376 0.0
C328 C 0.98919 0.4195 0.5408 0.0
C329 C 1.01489 0.40263 0.54509 0.0
C330 C 1.01234 0.37128 0.53238 0.0
C331 C 0.98417 0.35682 0.5153 0.0
H332 H 1.03674 0.41379 0.55829 0.0
H333 H 0.76003 0.27061 0.39498 0.0
H334 H 0.531 0.61095 0.82361 0.0
H335 H 0.52925 0.67124 0.82102 0.0
H336 H 0.64087 0.70683 0.83068 0.0
H337 H 0.64275 0.64646 0.83453 0.0
H338 H 0.62031 0.75264 0.85183 0.0
H339 H 0.58484 0.69472 0.77842 0.0
H340 H 0.55 0.64715 0.74943 0.0
H341 H 0.45715 0.67032 0.7606 0.0
H342 H 0.49128 0.71758 0.7899 0.0
H343 H 0.6127 0.92198 0.82464 0.0
H344 H 0.62395 0.86442 0.82204 0.0
H345 H 0.51503 0.81272 0.81742 0.0
H346 H 0.50358 0.8697 0.81924 0.0
H347 H 0.5406 0.77693 0.79066 0.0
H348 H 0.57458 0.82906 0.86621 0.0
H349 H 0.60804 0.87491 0.8965 0.0
H350 H 0.70301 0.86186 0.88146 0.0
H351 H 0.67008 0.81621 0.85089 0.0
C352 C 0.5552 0.63163 0.82523 0.0
C353 C 0.58702 0.62395 0.82914 0.0
C354 C 0.55418 0.66613 0.82356 0.0
C355 C 0.58488 0.69364 0.82498 0.0
C356 C 0.61678 0.68612 0.82934 0.0
C357 C 0.61786 0.65162 0.83154 0.0
C358 C 0.58351 0.73017 0.82217 0.0
C359 C 0.6034 0.758 0.8382 0.0
C360 C 0.5611 0.73735 0.80455 0.0
C361 C 0.54064 0.70964 0.78643 0.0
C362 C 0.55698 0.68962 0.77473 0.0
C363 C 0.53735 0.66267 0.75826 0.0
C364 C 0.50139 0.65566 0.75322 0.0
C365 C 0.48499 0.67572 0.76455 0.0
C366 C 0.50447 0.70264 0.78106 0.0
C367 C 0.59113 0.89829 0.82269 0.0
C368 C 0.55731 0.90047 0.82245 0.0
C369 C 0.59761 0.86541 0.8214 0.0
C370 C 0.57041 0.83416 0.81991 0.0
C371 C 0.5365 0.83635 0.81867 0.0
C372 C 0.53003 0.86903 0.81991 0.0
C373 C 0.57689 0.79913 0.82053 0.0
C374 C 0.55797 0.7716 0.80407 0.0
C375 C 0.60014 0.79222 0.83773 0.0
C376 C 0.6199 0.81956 0.85613 0.0
C377 C 0.60261 0.83617 0.86927 0.0
C378 C 0.62147 0.86208 0.8865 0.0
C379 C 0.65763 0.87137 0.89086 0.0
C380 C 0.675 0.85469 0.87803 0.0
C381 C 0.65626 0.82879 0.86076 0.0
H382 H 0.67219 0.89143 0.90421 0.0
H383 H 0.48623 0.63472 0.74052 0.0
H384 H 0.98186 0.55188 0.17272 0.0
H385 H 0.9224 0.55216 0.17335 0.0
H386 H 0.93574 0.63939 0.13556 0.0
H387 H 0.99609 0.64042 0.13601 0.0
H388 H 0.8999 0.65085 0.16282 0.0
H389 H 0.88716 0.54461 0.11537 0.0
H390 H 0.8966 0.4871 0.10595 0.0
H391 H 0.84861 0.44633 0.15837 0.0
H392 H 0.8392 0.50376 0.16826 0.0
H393 H 0.72338 0.63565 0.12239 0.0
H394 H 0.78409 0.63646 0.12847 0.0
H395 H 0.76317 0.55805 0.17216 0.0
H396 H 0.7017 0.55698 0.1658 0.0
H397 H 0.80231 0.5408 0.14482 0.0
H398 H 0.8117 0.64533 0.19076 0.0
H399 H 0.80277 0.70285 0.20074 0.0
H400 H 0.85727 0.74654 0.15148 0.0
H401 H 0.86612 0.68914 0.14099 0.0
C402 C 0.97222 0.57115 0.16447 0.0
C403 C 0.99408 0.59603 0.15419 0.0
C404 C 0.93779 0.5711 0.16468 0.0
C405 C 0.92351 0.59521 0.15402 0.0
C406 C 0.94552 0.62028 0.14389 0.0
C407 C 0.98023 0.62082 0.14409 0.0
C408 C 0.88613 0.59478 0.15366 0.0
C409 C 0.87867 0.62672 0.15854 0.0
C410 C 0.85783 0.56334 0.1489 0.0
C411 C 0.86277 0.52859 0.14267 0.0
C412 C 0.87873 0.52342 0.12494 0.0
C413 C 0.88408 0.49085 0.11952 0.0
C414 C 0.8733 0.46313 0.13159 0.0
C415 C 0.85698 0.46786 0.14905 0.0
C416 C 0.8516 0.5004 0.15455 0.0
C417 C 0.73177 0.61908 0.13368 0.0
C418 C 0.70751 0.59657 0.14379 0.0
C419 C 0.76671 0.61953 0.13716 0.0
C420 C 0.77888 0.59751 0.15094 0.0
C421 C 0.75483 0.57542 0.16146 0.0
C422 C 0.71966 0.57511 0.15805 0.0
C423 C 0.81623 0.59695 0.15353 0.0
C424 C 0.82363 0.56486 0.14911 0.0
C425 C 0.84451 0.62821 0.15868 0.0
C426 C 0.83932 0.66283 0.16497 0.0
C427 C 0.82156 0.66713 0.18194 0.0
C428 C 0.81655 0.69973 0.18771 0.0
C429 C 0.82937 0.72831 0.17672 0.0
C430 C 0.84732 0.72437 0.15997 0.0
C431 C 0.85238 0.69182 0.15412 0.0
H432 H 0.82547 0.75353 0.18121 0.0
H433 H 0.8775 0.43796 0.12738 0.0
H434 H 0.43457 0.85467 0.48725 0.0
H435 H 0.39191 0.79754 0.48616 0.0
H436 H 0.3242 0.84913 0.5122 0.0
H437 H 0.36725 0.9063 0.51404 0.0
H438 H 0.32265 0.78733 0.52909 0.0
H439 H 0.31367 0.82765 0.45823 0.0
H440 H 0.33593 0.84867 0.42588 0.0
H441 H 0.36395 0.75357 0.41373 0.0
H442 H 0.34226 0.7322 0.44621 0.0
H443 H 0.15442 0.67117 0.48714 0.0
H444 H 0.2084 0.71852 0.49939 0.0
H445 H 0.26347 0.65735 0.46781 0.0
H446 H 0.20936 0.61001 0.45531 0.0
H447 H 0.27619 0.72026 0.45548 0.0
H448 H 0.27786 0.67646 0.52407 0.0
H449 H 0.25471 0.65566 0.55619 0.0
H450 H 0.23966 0.75636 0.57269 0.0
H451 H 0.26226 0.77764 0.54049 0.0
C452 C 0.41092 0.85383 0.49317 0.0
C453 C 0.40413 0.88507 0.50052 0.0
C454 C 0.38648 0.82117 0.49241 0.0
C455 C 0.35468 0.81915 0.4988 0.0
C456 C 0.34853 0.85011 0.50712 0.0
C457 C 0.37298 0.88277 0.50794 0.0
C458 C 0.32676 0.78526 0.49528 0.0
C459 C 0.31231 0.77267 0.51301 0.0
C460 C 0.31385 0.76579 0.47436 0.0
C461 C 0.32672 0.77852 0.45477 0.0
C462 C 0.32482 0.81135 0.44875 0.0
C463 C 0.3373 0.82331 0.43038 0.0
C464 C 0.35144 0.80252 0.41779 0.0
C465 C 0.35305 0.76967 0.42352 0.0
C466 C 0.34066 0.75762 0.4419 0.0
C467 C 0.1782 0.66741 0.48333 0.0
C468 C 0.17767 0.63696 0.47019 0.0
C469 C 0.20908 0.69451 0.49036 0.0
C470 C 0.24008 0.69148 0.4846 0.0
C471 C 0.23987 0.66032 0.4724 0.0
C472 C 0.20897 0.63332 0.46526 0.0
C473 C 0.27172 0.72217 0.48929 0.0
C474 C 0.28681 0.73439 0.47169 0.0
C475 C 0.28508 0.74121 0.51032 0.0
C476 C 0.27153 0.72856 0.52975 0.0
C477 C 0.26937 0.6941 0.53445 0.0
C478 C 0.25638 0.68223 0.55269 0.0
C479 C 0.24566 0.70465 0.56645 0.0
C480 C 0.24796 0.73902 0.56201 0.0
C481 C 0.2609 0.75101 0.54378 0.0
H482 H 0.23561 0.69542 0.58056 0.0
H483 H 0.36108 0.81181 0.40357 0.0
H484 H 0.53422 0.39081 0.82976 0.0
H485 H 0.53739 0.33035 0.82992 0.0
H486 H 0.6476 0.3671 0.8318 0.0
H487 H 0.64422 0.42721 0.83059 0.0
H488 H 0.62363 0.31199 0.80492 0.0
H489 H 0.60899 0.3393 0.87752 0.0
H490 H 0.58177 0.35933 0.90647 0.0
H491 H 0.48801 0.27579 0.88211 0.0
H492 H 0.51447 0.25556 0.85283 0.0
H493 H 0.64707 0.14545 0.81821 0.0
H494 H 0.65089 0.20743 0.82829 0.0
H495 H 0.53969 0.17899 0.82207 0.0
H496 H 0.53628 0.11689 0.81327 0.0
H497 H 0.56832 0.23107 0.85376 0.0
H498 H 0.58581 0.20726 0.77942 0.0
H499 H 0.6173 0.18655 0.75327 0.0
H500 H 0.71113 0.26587 0.78394 0.0
H501 H 0.68034 0.2865 0.81058 0.0
C502 C 0.55912 0.38597 0.83026 0.0
C503 C 0.58893 0.4138 0.83012 0.0
C504 C 0.56099 0.35139 0.83052 0.0
C505 C 0.59286 0.344 0.83125 0.0
C506 C 0.62267 0.37191 0.83124 0.0
C507 C 0.62071 0.40635 0.83055 0.0
C508 C 0.59501 0.30713 0.83112 0.0
C509 C 0.61196 0.29457 0.81588 0.0
C510 C 0.57959 0.28401 0.84522 0.0
C511 C 0.56364 0.29609 0.86286 0.0
C512 C 0.58249 0.32535 0.87824 0.0
C513 C 0.5672 0.33672 0.89472 0.0
C514 C 0.53317 0.31888 0.89609 0.0
C515 C 0.51437 0.2896 0.88101 0.0
C516 C 0.5295 0.27815 0.86448 0.0
C517 C 0.62366 0.15251 0.81959 0.0
C518 C 0.59141 0.12667 0.81505 0.0
C519 C 0.62575 0.18789 0.82514 0.0
C520 C 0.59546 0.19813 0.82537 0.0
C521 C 0.56342 0.1719 0.82193 0.0
C522 C 0.56143 0.13645 0.8169 0.0
C523 C 0.5966 0.23605 0.82746 0.0
C524 C 0.58018 0.24873 0.84298 0.0
C525 C 0.61295 0.25952 0.81385 0.0
C526 C 0.63086 0.24819 0.7971 0.0
C527 C 0.61316 0.22025 0.78058 0.0
C528 C 0.63091 0.20848 0.7657 0.0
C529 C 0.66624 0.22484 0.76698 0.0
C530 C 0.6838 0.25318 0.78301 0.0
C531 C 0.66622 0.2649 0.798 0.0
H532 H 0.68009 0.2156 0.7556 0.0
H533 H 0.52136 0.32766 0.90885 0.0
H534 H 0.55275 0.92993 0.48382 0.0
H535 H 0.54716 0.86754 0.48535 0.0
H536 H 0.65178 0.8941 0.52136 0.0
H537 H 0.65775 0.95676 0.51982 0.0
H538 H 0.638 0.83852 0.48951 0.0
H539 H 0.58439 0.872 0.5468 0.0
H540 H 0.5442 0.8979 0.56284 0.0
H541 H 0.45747 0.82138 0.52186 0.0
H542 H 0.49711 0.79577 0.50499 0.0
H543 H 0.6199 0.6631 0.51373 0.0
H544 H 0.63072 0.72712 0.51837 0.0
H545 H 0.52472 0.71396 0.48835 0.0
H546 H 0.51329 0.65024 0.48475 0.0
H547 H 0.54277 0.76436 0.52045 0.0
H548 H 0.59459 0.73577 0.46025 0.0
H549 H 0.6334 0.71064 0.44215 0.0
H550 H 0.72162 0.77761 0.48726 0.0
H551 H 0.68325 0.80283 0.50581 0.0
C552 C 0.57473 0.92261 0.49196 0.0
C553 C 0.60574 0.94849 0.50172 0.0
C554 C 0.57138 0.88685 0.49292 0.0
C555 C 0.59889 0.8761 0.50371 0.0
C556 C 0.63016 0.90177 0.51301 0.0
C557 C 0.63351 0.93761 0.51213 0.0
C558 C 0.59488 0.83808 0.5053 0.0
C559 C 0.61753 0.82241 0.49661 0.0
C560 C 0.56775 0.81689 0.5142 0.0
C561 C 0.5438 0.83212 0.52448 0.0
C562 C 0.55676 0.86089 0.54104 0.0
C563 C 0.53406 0.87553 0.55029 0.0
C564 C 0.49831 0.86131 0.54337 0.0
C565 C 0.48517 0.83244 0.52716 0.0
C566 C 0.50775 0.81788 0.51772 0.0
C567 C 0.59874 0.6738 0.50844 0.0
C568 C 0.56581 0.65135 0.49858 0.0
C569 C 0.60507 0.7105 0.51088 0.0
C570 C 0.57873 0.72558 0.50333 0.0
C571 C 0.54559 0.70316 0.49421 0.0
C572 C 0.53919 0.66659 0.49192 0.0
C573 C 0.58554 0.76457 0.5043 0.0
C574 C 0.56343 0.78049 0.51352 0.0
C575 C 0.61295 0.78596 0.49571 0.0
C576 C 0.63603 0.77088 0.48456 0.0
C577 C 0.62224 0.74494 0.46641 0.0
C578 C 0.64416 0.73072 0.45605 0.0
C579 C 0.67994 0.74244 0.46359 0.0
C580 C 0.69389 0.7685 0.48147 0.0
C581 C 0.67208 0.78278 0.4919 0.0
H582 H 0.69687 0.7314 0.45555 0.0
H583 H 0.48078 0.87267 0.55055 0.0
H584 H 0.78394 0.49288 0.77806 0.0
H585 H 0.83428 0.47702 0.76878 0.0
H586 H 0.85829 0.45112 0.83391 0.0
H587 H 0.80784 0.46561 0.8428 0.0
H588 H 0.89514 0.51157 0.78436 0.0
H589 H 0.90831 0.40281 0.84175 0.0
H590 H 0.87161 0.34592 0.84873 0.0
H591 H 0.80585 0.33472 0.78647 0.0
H592 H 0.84246 0.39128 0.77889 0.0
H593 H 1.02927 0.53021 0.86984 0.0
H594 H 0.97631 0.48934 0.84968 0.0
H595 H 1.01861 0.49543 0.79096 0.0
H596 H 0.07337 0.53527 0.81143 0.0
H597 H 0.94835 0.4256 0.8179 0.0
H598 H 0.95915 0.51776 0.75688 0.0
H599 H 0.99639 0.57487 0.75017 0.0
H600 H 1.01041 0.61526 0.81749 0.0
H601 H 0.97288 0.55855 0.82445 0.0
C602 C 0.79956 0.48286 0.79013 0.0
C603 C 0.79216 0.48064 0.81118 0.0
C604 C 0.82818 0.47363 0.7848 0.0
C605 C 0.85007 0.46244 0.80051 0.0
C606 C 0.84143 0.45849 0.82117 0.0
C607 C 0.81263 0.46716 0.82636 0.0
C608 C 0.8851 0.46164 0.79723 0.0
C609 C 0.90632 0.49178 0.79074 0.0
C610 C 0.90009 0.43585 0.8053 0.0
C611 C 0.87829 0.40142 0.80971 0.0
C612 C 0.88629 0.3881 0.8294 0.0
C613 C 0.86539 0.35592 0.83351 0.0
C614 C 0.83642 0.33672 0.81805 0.0
C615 C 0.82828 0.34964 0.79844 0.0
C616 C 0.84908 0.3818 0.79424 0.0
C617 C 1.02845 0.52168 0.85293 0.0
C618 C 1.05572 0.5368 0.84228 0.0
C619 C 0.99786 0.49806 0.84137 0.0
C620 C 0.99344 0.48959 0.81882 0.0
C621 C 1.02158 0.50171 0.80839 0.0
C622 C 1.05262 0.52498 0.82008 0.0
C623 C 0.95757 0.47627 0.80643 0.0
C624 C 0.9364 0.44379 0.81009 0.0
C625 C 0.94236 0.49943 0.79536 0.0
C626 C 0.96346 0.53404 0.79115 0.0
C627 C 0.97002 0.53897 0.77017 0.0
C628 C 0.99118 0.57121 0.76634 0.0
C629 C 1.00579 0.59866 0.7834 0.0
C630 C 0.99907 0.594 0.80429 0.0
C631 C 0.9778 0.56188 0.80817 0.0
H632 H 1.02231 0.62353 0.78042 0.0
H633 H 0.82027 0.31184 0.82127 0.0
H634 H 0.27325 0.79938 0.14512 0.0
H635 H 0.32783 0.84649 0.14911 0.0
H636 H 0.31242 0.88744 0.21119 0.0
H637 H 0.25812 0.84059 0.20734 0.0
H638 H 0.33173 0.93924 0.18729 0.0
H639 H 0.37003 0.8396 0.20715 0.0
H640 H 0.37461 0.77918 0.20148 0.0
H641 H 0.42092 0.80367 0.14565 0.0
H642 H 0.41619 0.86415 0.15083 0.0
H643 H 0.49488 0.04874 0.23819 0.0
H644 H 0.44268 0.99891 0.22835 0.0
H645 H 0.46941 0.97698 0.16607 0.0
H646 H 0.52254 0.02669 0.17608 0.0
H647 H 0.44452 0.91597 0.18557 0.0
H648 H 0.40998 0.01741 0.16775 0.0
H649 H 0.40623 0.07799 0.17435 0.0
H650 H 0.35302 0.04991 0.22703 0.0
H651 H 0.35692 0.98927 0.22095 0.0
C652 C 0.28165 0.81829 0.15968 0.0
C653 C 0.26126 0.81631 0.17587 0.0
C654 C 0.31283 0.8452 0.16194 0.0
C655 C 0.32433 0.8704 0.18051 0.0
C656 C 0.30399 0.86843 0.19666 0.0
C657 C 0.27287 0.84168 0.19439 0.0
C658 C 0.35731 0.89918 0.18323 0.0
C659 C 0.3564 0.93409 0.18708 0.0
C660 C 0.38942 0.89256 0.18232 0.0
C661 C 0.39238 0.85627 0.17923 0.0
C662 C 0.38093 0.83202 0.19356 0.0
C663 C 0.3836 0.79778 0.19046 0.0
C664 C 0.39795 0.78756 0.17318 0.0
C665 C 0.40975 0.8116 0.15901 0.0
C666 C 0.4071 0.84587 0.16202 0.0
C667 C 0.49005 0.03303 0.22253 0.0
C668 C 0.51295 0.04164 0.20793 0.0
C669 C 0.45999 0.00473 0.21685 0.0
C670 C 0.45197 0.9845 0.19638 0.0
C671 C 0.4751 0.99237 0.18192 0.0
C672 C 0.50527 0.02087 0.18759 0.0
C673 C 0.41889 0.95582 0.19012 0.0
C674 C 0.41977 0.92105 0.18554 0.0
C675 C 0.38669 0.96247 0.19042 0.0
C676 C 0.38396 0.99884 0.19398 0.0
C677 C 0.39769 0.02421 0.18083 0.0
C678 C 0.39551 0.05855 0.18447 0.0
C679 C 0.37945 0.06781 0.20112 0.0
C680 C 0.36547 0.04271 0.21414 0.0
C681 C 0.36762 0.00833 0.21059 0.0
H682 H 0.3778 0.09442 0.20391 0.0
H683 H 0.4 0.76104 0.1708 0.0
H684 H 0.66424 0.18406 0.51772 0.0
H685 H 0.66392 0.24568 0.51954 0.0
H686 H 0.5523 0.21234 0.50697 0.0
H687 H 0.55231 0.1506 0.50553 0.0
H688 H 0.58554 0.2661 0.48088 0.0
H689 H 0.58747 0.24165 0.55543 0.0
H690 H 0.61089 0.2213 0.58909 0.0
H691 H 0.70869 0.29943 0.59318 0.0
H692 H 0.68597 0.31992 0.55934 0.0
H693 H 0.55033 0.42792 0.50735 0.0
H694 H 0.5535 0.36749 0.50178 0.0
H695 H 0.66005 0.40184 0.53537 0.0
H696 H 0.65608 0.46194 0.54196 0.0
H697 H 0.63104 0.34687 0.54994 0.0
H698 H 0.63208 0.37362 0.47726 0.0
H699 H 0.61253 0.39422 0.44276 0.0
H700 H 0.51528 0.3134 0.43344 0.0
H701 H 0.53407 0.2926 0.46804 0.0
C702 C 0.63959 0.18979 0.51539 0.0
C703 C 0.60828 0.16238 0.51159 0.0
C704 C 0.63948 0.22503 0.51643 0.0
C705 C 0.60809 0.23355 0.51339 0.0
C706 C 0.57679 0.2063 0.50933 0.0
C707 C 0.57687 0.17105 0.50866 0.0
C708 C 0.60795 0.27096 0.51477 0.0
C709 C 0.59511 0.28378 0.49599 0.0
C710 C 0.62154 0.2942 0.53432 0.0
C711 C 0.63513 0.28206 0.55474 0.0
C712 C 0.61406 0.25428 0.5634 0.0
C713 C 0.62719 0.24277 0.58253 0.0
C714 C 0.66129 0.25899 0.59323 0.0
C715 C 0.6823 0.28685 0.58486 0.0
C716 C 0.6693 0.29844 0.56571 0.0
C717 C 0.57461 0.4226 0.51311 0.0
C718 C 0.60305 0.44958 0.52492 0.0
C719 C 0.57649 0.38802 0.50989 0.0
C720 C 0.60719 0.37984 0.51789 0.0
C721 C 0.63601 0.40721 0.52905 0.0
C722 C 0.63387 0.44162 0.53269 0.0
C723 C 0.60858 0.34257 0.51594 0.0
C724 C 0.62162 0.32956 0.53468 0.0
C725 C 0.59578 0.31937 0.4962 0.0
C726 C 0.58438 0.33176 0.47536 0.0
C727 C 0.60643 0.3604 0.46794 0.0
C728 C 0.5955 0.37209 0.44835 0.0
C729 C 0.56265 0.35519 0.43595 0.0
C730 C 0.5407 0.3265 0.44308 0.0
C731 C 0.55149 0.31472 0.46267 0.0
H732 H 0.55424 0.36427 0.42079 0.0
H733 H 0.67141 0.25004 0.60804 0.0
H734 H 0.43113 0.60486 0.77311 0.0
H735 H 0.39369 0.64264 0.76605 0.0
H736 H 0.30391 0.55136 0.7532 0.0
H737 H 0.34123 0.51322 0.75908 0.0
H738 H 0.29214 0.60425 0.73046 0.0
H739 H 0.3387 0.59082 0.80553 0.0
H740 H 0.38735 0.59547 0.83555 0.0
H741 H 0.42745 0.70595 0.8313 0.0
H742 H 0.37916 0.7018 0.80109 0.0
H743 H 0.16134 0.62405 0.78485 0.0
H744 H 0.20613 0.61273 0.76657 0.0
H745 H 0.27195 0.71818 0.79028 0.0
H746 H 0.22785 0.72901 0.80965 0.0
H747 H 0.3041 0.67377 0.80179 0.0
H748 H 0.24397 0.6882 0.73414 0.0
H749 H 0.19433 0.6819 0.70458 0.0
H750 H 0.17833 0.5702 0.69439 0.0
H751 H 0.22753 0.57568 0.7241 0.0
C752 C 0.40355 0.59263 0.76785 0.0
C753 C 0.38906 0.55604 0.76719 0.0
C754 C 0.38217 0.61435 0.76392 0.0
C755 C 0.34602 0.59987 0.75968 0.0
C756 C 0.33174 0.56313 0.75664 0.0
C757 C 0.35309 0.54138 0.7603 0.0
C758 C 0.32312 0.62233 0.76247 0.0
C759 C 0.2947 0.61971 0.74595 0.0
C760 C 0.3271 0.64327 0.78251 0.0
C761 C 0.3556 0.64594 0.80097 0.0
C762 C 0.35796 0.61606 0.81099 0.0
C763 C 0.38546 0.6186 0.82802 0.0
C764 C 0.41052 0.65097 0.8353 0.0
C765 C 0.40805 0.68089 0.82563 0.0
C766 C 0.38062 0.67847 0.80856 0.0
C767 C 0.18515 0.64503 0.78592 0.0
C768 C 0.19128 0.67718 0.79907 0.0
C769 C 0.21059 0.63873 0.77513 0.0
C770 C 0.24248 0.66465 0.77694 0.0
C771 C 0.24755 0.69779 0.78862 0.0
C772 C 0.2222 0.70401 0.7996 0.0
C773 C 0.27209 0.65491 0.77 0.0
C774 C 0.30186 0.65966 0.78589 0.0
C775 C 0.26913 0.63594 0.7494 0.0
C776 C 0.23947 0.63238 0.73144 0.0
C777 C 0.22975 0.66224 0.7257 0.0
C778 C 0.20169 0.65882 0.70889 0.0
C779 C 0.18318 0.62567 0.69762 0.0
C780 C 0.19272 0.59587 0.70312 0.0
C781 C 0.22075 0.59914 0.71992 0.0
H782 H 0.16146 0.62308 0.68462 0.0
H783 H 0.43182 0.65288 0.84846 0.0
H784 H 0.93903 0.40823 0.19344 0.0
H785 H 0.88211 0.37209 0.19797 0.0
H786 H 0.85286 0.342 0.12856 0.0
H787 H 0.90942 0.37852 0.12388 0.0
H788 H 0.80169 0.35985 0.146 0.0
H789 H 0.87631 0.28599 0.16097 0.0
H790 H 0.92754 0.2716 0.17975 0.0
H791 H 0.89559 0.28511 0.24098 0.0
H792 H 0.84439 0.30006 0.22258 0.0
H793 H 0.65433 0.21468 0.13853 0.0
H794 H 0.712 0.25203 0.13675 0.0
H795 H 0.73691 0.2717 0.20684 0.0
H796 H 0.67916 0.23395 0.20872 0.0
H797 H 0.79053 0.26141 0.19095 0.0
H798 H 0.71512 0.33312 0.17645 0.0
H799 H 0.66404 0.34838 0.15824 0.0
H800 H 0.69753 0.34061 0.09708 0.0
H801 H 0.74857 0.32479 0.11486 0.0
C802 C 0.92039 0.39407 0.17914 0.0
C803 C 0.92881 0.39603 0.15831 0.0
C804 C 0.88798 0.37326 0.18177 0.0
C805 C 0.8634 0.35407 0.16362 0.0
C806 C 0.87152 0.35646 0.14279 0.0
C807 C 0.90395 0.37707 0.14016 0.0
C808 C 0.8292 0.33137 0.16627 0.0
C809 C 0.79921 0.33806 0.15562 0.0
C810 C 0.82604 0.30365 0.17937 0.0
C811 C 0.85672 0.29451 0.19043 0.0
C812 C 0.88036 0.28617 0.17846 0.0
C813 C 0.90936 0.27786 0.18903 0.0
C814 C 0.91487 0.27754 0.21155 0.0
C815 C 0.89132 0.28542 0.22354 0.0
C816 C 0.86229 0.29379 0.21305 0.0
C817 C 0.67207 0.22702 0.15357 0.0
C818 C 0.6621 0.22165 0.17377 0.0
C819 C 0.70501 0.2484 0.15253 0.0
C820 C 0.72857 0.26527 0.17165 0.0
C821 C 0.71911 0.25908 0.19188 0.0
C822 C 0.68616 0.23745 0.19293 0.0
C823 C 0.7629 0.28955 0.17043 0.0
C824 C 0.79294 0.28325 0.18139 0.0
C825 C 0.76613 0.3178 0.15771 0.0
C826 C 0.73551 0.32745 0.14696 0.0
C827 C 0.71146 0.3344 0.15908 0.0
C828 C 0.68253 0.34319 0.14885 0.0
C829 C 0.6775 0.34538 0.12651 0.0
C830 C 0.70144 0.33887 0.11438 0.0
C831 C 0.73039 0.33001 0.12453 0.0
H832 H 0.65509 0.3522 0.11861 0.0
H833 H 0.93734 0.27109 0.2197 0.0
H834 H 0.12201 0.66093 0.094 0.0
H835 H 0.12949 0.6647 0.0562 0.0
H836 H 0.10296 0.55145 0.04419 0.0
H837 H 0.09475 0.54734 0.08181 0.0
H838 H 0.16589 0.59197 0.02934 0.0
H839 H 1.04433 0.58279 0.02597 0.0
H840 H 0.99585 0.60096 0.03699 0.0
H841 H 1.03674 0.70386 0.01876 0.0
H842 H 0.08579 0.68644 0.00792 0.0
H843 H 0.13057 0.55457 0.91473 0.0
H844 H 0.13369 0.55869 0.95394 0.0
H845 H 0.1289 0.66582 0.95535 0.0
H846 H 0.12323 0.66102 0.9159 0.0
H847 H 0.08543 0.63297 0.97698 0.0
H848 H 0.20401 0.64294 0.97736 0.0
H849 H 0.25462 0.62784 0.96737 0.0
H850 H 0.22379 0.52869 0.99226 0.0
H851 H 0.17265 0.54291 0.00209 0.0
C852 C 0.1177 0.63683 0.08329 0.0
C853 C 0.10762 0.60382 0.0908 0.0
C854 C 0.12199 0.63905 0.06175 0.0
C855 C 0.11679 0.60835 0.04753 0.0
C856 C 0.10714 0.5754 0.05501 0.0
C857 C 0.10223 0.57311 0.07643 0.0
C858 C 0.1209 0.61053 0.02468 0.0
C859 C 0.14821 0.6006 0.01774 0.0
C860 C 0.09847 0.62301 0.00995 0.0
C861 C 0.06894 0.63345 0.01639 0.0
C862 C 1.04317 0.6094 0.02451 0.0
C863 C 1.01555 0.61954 0.03068 0.0
C864 C 1.01327 0.65358 0.02865 0.0
C865 C 1.03857 0.67753 0.02037 0.0
C866 C 0.06628 0.66753 0.0142 0.0
C867 C 0.13022 0.57906 0.92335 0.0
C868 C 0.12629 0.60733 0.91205 0.0
C869 C 0.13253 0.58156 0.94588 0.0
C870 C 0.1318 0.61268 0.95771 0.0
C871 C 0.1295 0.64151 0.9466 0.0
C872 C 0.12667 0.63886 0.92402 0.0
C873 C 0.13046 0.61407 0.98127 0.0
C874 C 0.10354 0.62466 0.98845 0.0
C875 C 0.15363 0.60266 -0.00372 0.0
C876 C 0.18428 0.59388 0.99028 0.0
C877 C 0.20782 0.61776 0.98053 0.0
C878 C 0.23665 0.60938 0.97492 0.0
C879 C 0.24236 0.57728 0.97912 0.0
C880 C 0.2193 0.55352 0.98898 0.0
C881 C 0.1904 0.56174 -0.00541 0.0
H882 H 0.26471 0.57086 0.97478 0.0
H883 H 0.99186 0.66138 0.03342 0.0
H884 H 0.65681 0.06154 0.43911 0.0
H885 H 0.66079 0.07822 0.40277 0.0
H886 H 0.56938 0.11284 0.40138 0.0
H887 H 0.56475 0.09549 0.43752 0.0
H888 H 0.56441 0.07554 0.36481 0.0
H889 H 0.65123 0.17159 0.40811 0.0
H890 H 0.70283 0.20247 0.4359 0.0
H891 H 0.7663 0.15882 0.40047 0.0
H892 H 0.71497 0.12715 0.37262 0.0
H893 H 0.58018 0.16041 0.27116 0.0
H894 H 0.59277 0.16264 0.31088 0.0
H895 H 0.64631 0.08404 0.30457 0.0
H896 H 0.63276 0.08096 0.26478 0.0
H897 H 0.67213 0.14905 0.34522 0.0
H898 H 0.57798 0.04501 0.30562 0.0
H899 H 0.52573 0.02077 0.27706 0.0
H900 H 0.47541 0.08834 0.30676 0.0
H901 H 0.5277 0.11348 0.33525 0.0
C902 C 0.63754 0.07269 0.43109 0.0
C903 C 0.61037 0.07701 0.4412 0.0
C904 C 0.64002 0.08252 0.41036 0.0
C905 C 0.61566 0.09725 0.39943 0.0
C906 C 0.58852 0.10158 0.4095 0.0
C907 C 0.58589 0.09158 0.43016 0.0
C908 C 0.61743 0.10646 0.37706 0.0
C909 C 0.58793 0.09198 0.36072 0.0
C910 C 0.64812 0.12786 0.37155 0.0
C911 C 0.67911 0.14664 0.38836 0.0
C912 C 0.67611 0.16825 0.40634 0.0
C913 C 0.70533 0.18596 0.42209 0.0
C914 C 0.7378 0.1825 0.42 0.0
C915 C 0.74111 0.1614 0.4021 0.0
C916 C 0.71196 0.14357 0.38632 0.0
C917 C 0.59584 0.14472 0.27834 0.0
C918 C 0.60571 0.12064 0.26511 0.0
C919 C 0.60301 0.14601 0.30096 0.0
C920 C 0.62053 0.12358 0.31054 0.0
C921 C 0.63314 0.10182 0.29741 0.0
C922 C 0.62536 0.10001 0.27477 0.0
C923 C 0.61944 0.11768 0.33339 0.0
C924 C 0.64885 0.13273 0.34963 0.0
C925 C 0.58861 0.09734 0.33902 0.0
C926 C 0.55679 0.08133 0.3224 0.0
C927 C 0.55584 0.05484 0.30596 0.0
C928 C 0.52623 0.04093 0.2898 0.0
C929 C 0.49729 0.05306 0.29007 0.0
C930 C 0.49786 0.07901 0.30655 0.0
C931 C 0.52747 0.09309 0.32271 0.0
H932 H 0.4744 0.04229 0.27754 0.0
H933 H 0.76039 0.19626 0.43221 0.0
H934 H 0.64568 0.53907 0.76738 0.0
H935 H 0.64651 0.54565 0.72912 0.0
H936 H 0.53477 0.51373 0.71498 0.0
H937 H 0.53366 0.50631 0.75316 0.0
H938 H 0.55816 0.48248 0.685 0.0
H939 H 0.58267 0.60072 0.71818 0.0
H940 H 0.61282 0.65329 0.74481 0.0
H941 H 0.70822 0.65835 0.72305 0.0
H942 H 0.67879 0.60546 0.69651 0.0
H943 H 0.54398 0.53663 0.57988 0.0
H944 H 0.54314 0.54159 0.61897 0.0
H945 H 0.65043 0.54348 0.63279 0.0
H946 H 0.65118 0.53781 0.59365 0.0
H947 H 0.62751 0.59267 0.6625 0.0
H948 H 0.60139 0.47058 0.63117 0.0
H949 H 0.56932 0.41924 0.60403 0.0
H950 H 0.47367 0.42373 0.62238 0.0
H951 H 0.50517 0.47557 0.64938 0.0
C952 C 0.62125 0.53338 0.75615 0.0
C953 C 0.58959 0.52217 0.76335 0.0
C954 C 0.62178 0.53737 0.73428 0.0
C955 C 0.5907 0.53076 0.71923 0.0
C956 C 0.55907 0.51908 0.72631 0.0
C957 C 0.5585 0.5148 0.74815 0.0
C958 C 0.59123 0.53535 0.69603 0.0
C959 C 0.5729 0.5068 0.68012 0.0
C960 C 0.61081 0.56694 0.68962 0.0
C961 C 0.62857 0.59891 0.70547 0.0
C962 C 0.61013 0.61287 0.71917 0.0
C963 C 0.62708 0.64275 0.73424 0.0
C964 C 0.66241 0.65909 0.73565 0.0
C965 C 0.68086 0.64564 0.72195 0.0
C966 C 0.66405 0.61573 0.70688 0.0
C967 C 0.56759 0.53903 0.59131 0.0
C968 C 0.59765 0.53682 0.58387 0.0
C969 C 0.56706 0.54175 0.61356 0.0
C970 C 0.5967 0.54278 0.62866 0.0
C971 C 0.62738 0.54287 0.62134 0.0
C972 C 0.62775 0.53951 0.59906 0.0
C973 C 0.59461 0.53983 0.65175 0.0
C974 C 0.61264 0.56857 0.66753 0.0
C975 C 0.57447 0.50861 0.65809 0.0
C976 C 0.55557 0.47719 0.64209 0.0
C977 C 0.57349 0.46083 0.62927 0.0
C978 C 0.55543 0.4316 0.61394 0.0
C979 C 0.51947 0.41829 0.61144 0.0
C980 C 0.50152 0.43412 0.62431 0.0
C981 C 0.51946 0.46341 0.63963 0.0
H982 H 0.50552 0.39566 0.59957 0.0
H983 H 0.67549 0.68222 0.74732 0.0
H984 H 0.66024 0.07561 0.58277 0.0
H985 H 0.6591 0.07043 0.62113 0.0
H986 H 0.55343 1.00398 0.60419 0.0
H987 H 0.55454 0.0084 0.56569 0.0
H988 H 0.62067 0.09284 0.64486 0.0
H989 H 0.53654 0.94898 0.64308 0.0
H990 H 0.52453 0.89101 0.6215 0.0
H991 H 0.62448 0.92321 0.60351 0.0
H992 H 0.63732 0.98116 0.62524 0.0
H993 H 0.55444 0.07761 0.74092 0.0
H994 H 0.55938 0.07228 0.70264 0.0
H995 H 0.62612 0.00605 0.71556 0.0
H996 H 0.62028 0.01052 0.75397 0.0
H997 H 0.58389 0.98223 0.67766 0.0
H998 H 0.65847 0.0963 0.71144 0.0
H999 H 0.67474 0.1559 0.73171 0.0
H1000 H 0.60079 0.18415 0.68536 0.0
H1001 H 0.58371 0.12461 0.66501 0.0
C1002 C 0.63683 0.05965 0.58714 0.0
C1003 C 0.60743 0.04258 0.57114 0.0
C1004 C 0.63622 0.05669 0.60911 0.0
C1005 C 0.60627 0.03663 0.61555 0.0
C1006 C 0.57703 0.01912 0.5996 0.0
C1007 C 0.57766 0.0219 0.57759 0.0
C1008 C 0.60493 0.03621 0.63903 0.0
C1009 C 0.61273 0.06863 0.65204 0.0
C1010 C 0.5949 0.00461 0.64842 0.0
C1011 C 0.58776 0.96954 0.63568 0.0
C1012 C 0.55604 0.94362 0.63463 0.0
C1013 C 0.54908 0.91077 0.62235 0.0
C1014 C 0.57371 0.90345 0.61113 0.0
C1015 C 0.6054 0.92894 0.61219 0.0
C1016 C 0.61252 0.96181 0.62446 0.0
C1017 C 0.5701 0.06184 0.73556 0.0
C1018 C 0.58738 0.04484 0.75041 0.0
C1019 C 0.57299 0.05888 0.71371 0.0
C1020 C 0.59382 0.03948 0.70629 0.0
C1021 C 0.61008 0.02135 0.72093 0.0
C1022 C 0.60678 0.02391 0.74283 0.0
C1023 C 0.59918 0.03897 0.68341 0.0
C1024 C 0.59202 0.00641 0.6705 0.0
C1025 C 0.6102 0.0705 0.67406 0.0
C1026 C 0.61968 0.10592 0.68678 0.0
C1027 C 0.64544 0.11511 0.7057 0.0
C1028 C 0.65485 0.14891 0.71717 0.0
C1029 C 0.63885 0.1738 0.70977 0.0
C1030 C 0.61319 0.16486 0.69103 0.0
C1031 C 0.60364 0.13111 0.67954 0.0
H1032 H 0.64636 0.20008 0.71847 0.0
H1033 H 0.56826 0.87802 0.60161 0.0
H1034 H 0.62569 0.5075 0.90732 0.0
H1035 H 0.62392 0.51444 0.94616 0.0
H1036 H 0.54056 0.56122 0.93306 0.0
H1037 H 0.54176 0.55395 0.8941 0.0
H1038 H 0.59785 0.59895 0.96816 0.0
H1039 H 0.51906 0.48263 0.94395 0.0
H1040 H 0.50234 0.42203 0.9251 0.0
H1041 H 0.58544 0.40026 0.96738 0.0
H1042 H 0.60299 0.46091 0.98628 0.0
H1043 H 0.57792 0.60661 0.07807 0.0
H1044 H 0.56266 0.59434 0.03838 0.0
H1045 H 0.62238 0.52013 0.03935 0.0
H1046 H 0.63547 0.53025 0.07888 0.0
H1047 H 0.57001 0.49611 0.00907 0.0
H1048 H 0.65458 0.60956 0.03004 0.0
H1049 H 0.67824 0.67056 0.04839 0.0
H1050 H 0.59319 0.69841 0.01232 0.0
H1051 H 0.56878 0.6374 0.99395 0.0
C1052 C 0.60696 0.51925 0.91268 0.0
C1053 C 0.58381 0.53011 0.89764 0.0
C1054 C 0.60592 0.52308 0.93485 0.0
C1055 C 0.58198 0.53815 0.94239 0.0
C1056 C 0.55914 0.54945 0.92749 0.0
C1057 C 0.5598 0.54515 0.90527 0.0
C1058 C 0.58118 0.5424 0.96591 0.0
C1059 C 0.59114 0.57654 0.97711 0.0
C1060 C 0.57337 0.51307 0.97754 0.0
C1061 C 0.56248 0.47641 0.96643 0.0
C1062 C 0.53391 0.465 0.94913 0.0
C1063 C 0.52427 0.43063 0.93845 0.0
C1064 C 0.54286 0.40734 0.94502 0.0
C1065 C 0.57108 0.41834 0.96231 0.0
C1066 C 0.58085 0.45269 0.97303 0.0
C1067 C 0.58707 0.58702 0.06986 0.0
C1068 C 0.60843 0.56985 0.08168 0.0
C1069 C 0.5787 0.58037 0.04712 0.0
C1070 C 0.59213 0.55699 0.03576 0.0
C1071 C 0.61189 0.5385 0.04763 0.0
C1072 C 0.61972 0.54465 0.07029 0.0
C1073 C 0.58726 0.55283 0.0116 0.0
C1074 C 0.57627 0.51866 0.0002 0.0
C1075 C 0.59502 0.58217 -0.00017 0.0
C1076 C 0.60964 0.61885 0.01083 0.0
C1077 C 0.6408 0.62864 0.02615 0.0
C1078 C 0.65436 0.66322 0.03653 0.0
C1079 C 0.63717 0.68832 0.03158 0.0
C1080 C 0.60643 0.67892 0.01618 0.0
C1081 C 0.59272 0.64435 0.00577 0.0
H1082 H 0.64771 0.71508 0.03963 0.0
H1083 H 0.53536 0.38076 0.93674 0.0
H1084 H 0.065 0.61875 0.22464 0.0
H1085 H 0.06147 0.61202 0.26258 0.0
H1086 H 0.12684 0.54325 0.26324 0.0
H1087 H 0.12915 0.54868 0.22487 0.0
H1088 H 0.07848 0.51854 0.28478 0.0
H1089 H 0.15788 0.63238 0.28591 0.0
H1090 H 0.17835 0.69225 0.27583 0.0
H1091 H 0.09628 0.72059 0.30065 0.0
H1092 H 0.07502 0.66071 0.31062 0.0
H1093 H 0.14126 0.55006 0.40107 0.0
H1094 H 0.13469 0.54578 0.36131 0.0
H1095 H 1.04833 0.58882 0.35827 0.0
H1096 H 1.05441 0.59254 0.39797 0.0
H1097 H 0.10567 0.62541 0.33824 0.0
H1098 H 1.02938 0.50957 0.33886 0.0
H1099 H 1.01323 0.45003 0.34997 0.0
H1100 H 0.09585 0.42632 0.32323 0.0
H1101 H 0.11285 0.48596 0.31224 0.0
C1102 C 0.07868 0.60223 0.23288 0.0
C1103 C 0.09766 0.58452 0.22188 0.0
C1104 C 0.07672 0.59848 0.2546 0.0
C1105 C 0.09449 0.57771 0.26595 0.0
C1106 C 0.11299 0.5595 0.25486 0.0
C1107 C 0.11441 0.56272 0.23297 0.0
C1108 C 0.09405 0.57536 0.28941 0.0
C1109 C 0.08483 0.54195 0.29648 0.0
C1110 C 0.10188 0.60586 0.30471 0.0
C1111 C 0.11466 0.64195 0.29881 0.0
C1112 C 0.14405 0.6513 0.28907 0.0
C1113 C 0.15581 0.68525 0.2834 0.0
C1114 C 0.13857 0.71018 0.28754 0.0
C1115 C 0.10958 0.70124 0.29742 0.0
C1116 C 0.09768 0.66731 0.3031 0.0
C1117 C 0.12046 0.55789 0.39182 0.0
C1118 C 0.09826 0.57152 0.40246 0.0
C1119 C 0.11671 0.5554 0.36919 0.0
C1120 C 0.09103 0.56698 0.35696 0.0
C1121 C 0.0682 0.57965 0.36749 0.0
C1122 C 0.07156 0.58157 0.39009 0.0
C1123 C 0.09001 0.56874 0.33344 0.0
C1124 C 0.09915 0.60209 0.32643 0.0
C1125 C 0.0828 0.53826 0.31835 0.0
C1126 C 0.07261 0.50238 0.32492 0.0
C1127 C 1.04433 0.4918 0.33553 0.0
C1128 C 1.03497 0.458 0.34177 0.0
C1129 C 1.05356 0.43444 0.33736 0.0
C1130 C 0.0815 0.44461 0.32666 0.0
C1131 C 0.09099 0.4784 0.3204 0.0
H1132 H 1.04626 0.40828 0.34219 0.0
H1133 H 0.14772 0.73645 0.28314 0.0
loop_
_geom_bond_atom_site_label_1
_geom_bond_atom_site_label_2
_geom_bond_distance
_geom_bond_site_symmetry_2
_ccdc_geom_bond_type
Dy0 O3 2.307 1_455 S
Dy0 O5 2.395 . S
Dy0 O6 2.379 . S
Dy0 O8 2.339 . S
Dy0 O10 2.298 . S
Dy0 O14 2.275 . S
Dy0 C22 2.738 . S
Dy1 O4 2.298 1_455 S
Dy1 O7 2.275 . S
Dy1 O9 2.307 . S
Dy1 O11 2.395 1_455 S
Dy1 O12 2.379 1_455 S
Dy1 O15 2.339 . S
Dy1 C31 2.738 1_455 S
C2 O14 1.254 . S
C2 O15 1.257 . S
O3 Dy0 2.307 1_655 S
O3 C13 1.266 . S
O4 Dy1 2.298 1_655 S
O4 C13 1.236 . S
O5 Dy0 2.395 . S
O5 C22 1.255 . S
O6 Dy0 2.379 . S
O6 C22 1.249 . S
O7 Dy1 2.275 . S
O7 C23 1.254 . S
O8 Dy0 2.339 . S
O8 C23 1.257 . S
O9 Dy1 2.307 . S
O9 C24 1.266 . S
O10 Dy0 2.298 . S
O10 C24 1.236 . S
O11 Dy1 2.395 1_655 S
O11 C31 1.255 . S
O12 Dy1 2.379 1_655 S
O12 C31 1.249 . S
C13 O3 1.266 . S
C13 O4 1.236 . S
O14 Dy0 2.275 . S
O14 C2 1.254 . S
O15 Dy1 2.339 . S
O15 C2 1.257 . S
C16 C19 1.344 . S
C16 C20 1.328 . S
C16 C22 1.516 . S
C17 C18 1.304 . S
C17 C21 1.323 . S
C18 C17 1.304 . S
C18 C19 1.371 . S
C18 H32 0.930 . S
C19 C16 1.344 . S
C19 C18 1.371 . S
C19 H33 0.931 . S
C20 C16 1.328 . S
C20 C21 1.433 . S
C20 H34 0.931 . S
C21 C17 1.323 . S
C21 C20 1.433 . S
C21 H35 0.933 . S
C22 Dy0 2.738 . S
C22 O5 1.255 . S
C22 O6 1.249 . S
C22 C16 1.516 . S
C23 O7 1.254 . S
C23 O8 1.257 . S
C24 O9 1.266 . S
C24 O10 1.236 . S
C25 C28 1.344 . S
C25 C29 1.328 . S
C25 C31 1.516 . S
C26 C27 1.304 . S
C26 C30 1.323 . S
C27 C26 1.304 . S
C27 C28 1.371 . S
C27 H36 0.930 . S
C28 C25 1.344 . S
C28 C27 1.371 . S
C28 H37 0.931 . S
C29 C25 1.328 . S
C29 C30 1.433 . S
C29 H38 0.931 . S
C30 C26 1.323 . S
C30 C29 1.433 . S
C30 H39 0.933 . S
C31 Dy1 2.738 1_655 S
C31 O11 1.255 . S
C31 O12 1.249 . S
C31 C25 1.516 . S
H32 C18 0.930 . S
H33 C19 0.931 . S
H34 C20 0.931 . S
H35 C21 0.933 . S
H36 C27 0.930 . S
H37 C28 0.931 . S
H38 C29 0.931 . S
H39 C30 0.933 . S
Dy40 O43 2.307 . S
Dy40 O45 2.395 1_545 S
Dy40 O46 2.379 1_545 S
Dy40 O48 2.339 . S
Dy40 O50 2.296 . S
Dy40 O54 2.275 . S
Dy40 C62 2.738 1_545 S
Dy41 O44 2.298 . S
Dy41 O47 2.275 . S
Dy41 O49 2.307 . S
Dy41 O51 2.395 . S
Dy41 O52 2.379 . S
Dy41 O55 2.339 . S
Dy41 C71 2.738 . S
C42 O54 1.254 . S
C42 O55 1.257 . S
O43 Dy40 2.307 . S
O43 C53 1.266 . S
O44 Dy41 2.298 . S
O44 C53 1.236 . S
O45 Dy40 2.395 1_565 S
O45 C62 1.255 . S
O46 Dy40 2.379 1_565 S
O46 C62 1.249 . S
O47 Dy41 2.275 . S
O47 C63 1.254 . S
O48 Dy40 2.339 . S
O48 C63 1.257 . S
O49 Dy41 2.307 . S
O49 C64 1.266 1_545 S
O50 Dy40 2.296 . S
O50 C64 1.237 1_545 S
O51 Dy41 2.395 . S
O51 C71 1.255 . S
O52 Dy41 2.379 . S
O52 C71 1.249 . S
C53 O43 1.266 . S
C53 O44 1.236 . S
O54 Dy40 2.275 . S
O54 C42 1.254 . S
O55 Dy41 2.339 . S
O55 C42 1.257 . S
C56 C59 1.344 . S
C56 C60 1.328 . S
C56 C62 1.516 . S
C57 C58 1.304 . S
C57 C61 1.323 . S
C58 C57 1.304 . S
C58 C59 1.371 . S
C58 H72 0.930 . S
C59 C56 1.344 . S
C59 C58 1.371 . S
C59 H73 0.931 . S
C60 C56 1.328 . S
C60 C61 1.433 . S
C60 H74 0.931 . S
C61 C57 1.323 . S
C61 C60 1.433 . S
C61 H75 0.933 . S
C62 Dy40 2.738 1_565 S
C62 O45 1.255 . S
C62 O46 1.249 . S
C62 C56 1.516 . S
C63 O47 1.254 . S
C63 O48 1.257 . S
C64 O49 1.266 1_565 S
C64 O50 1.237 1_565 S
C65 C68 1.344 . S
C65 C69 1.328 . S
C65 C71 1.516 . S
C66 C67 1.304 . S
C66 C70 1.323 . S
C67 C66 1.304 . S
C67 C68 1.371 . S
C67 H76 0.930 . S
C68 C65 1.344 . S
C68 C67 1.371 . S
C68 H77 0.931 . S
C69 C65 1.328 . S
C69 C70 1.433 . S
C69 H78 0.931 . S
C70 C66 1.323 . S
C70 C69 1.433 . S
C70 H79 0.933 . S
C71 Dy41 2.738 . S
C71 O51 1.255 . S
C71 O52 1.249 . S
C71 C65 1.516 . S
H72 C58 0.930 . S
H73 C59 0.931 . S
H74 C60 0.931 . S
H75 C61 0.933 . S
H76 C67 0.930 . S
H77 C68 0.931 . S
H78 C69 0.931 . S
H79 C70 0.933 . S
Dy80 O83 2.307 . S
Dy80 O85 2.395 . S
Dy80 O86 2.379 . S
Dy80 O88 2.339 . S
Dy80 O90 2.298 . S
Dy80 O94 2.275 . S
Dy80 C102 2.738 . S
Dy81 O84 2.298 . S
Dy81 O87 2.275 . S
Dy81 O89 2.307 . S
Dy81 O91 2.395 . S
Dy81 O92 2.379 . S
Dy81 O95 2.339 . S
Dy81 C111 2.738 . S
C82 O94 1.254 . S
C82 O95 1.257 . S
O83 Dy80 2.307 . S
O83 C93 1.266 . S
O84 Dy81 2.298 . S
O84 C93 1.236 . S
O85 Dy80 2.395 . S
O85 C102 1.255 . S
O86 Dy80 2.379 . S
O86 C102 1.249 . S
O87 Dy81 2.275 . S
O87 C103 1.254 . S
O88 Dy80 2.339 . S
O88 C103 1.257 . S
O89 Dy81 2.307 . S
O89 C104 1.266 . S
O90 Dy80 2.298 . S
O90 C104 1.236 . S
O91 Dy81 2.395 . S
O91 C111 1.255 . S
O92 Dy81 2.379 . S
O92 C111 1.249 . S
C93 O83 1.266 . S
C93 O84 1.236 . S
O94 Dy80 2.275 . S
O94 C82 1.254 . S
O95 Dy81 2.339 . S
O95 C82 1.257 . S
C96 C99 1.344 . S
C96 C100 1.328 . S
C96 C102 1.516 . S
C97 C98 1.304 . S
C97 C101 1.323 . S
C98 C97 1.304 . S
C98 C99 1.371 . S
C98 H112 0.930 . S
C99 C96 1.344 . S
C99 C98 1.371 . S
C99 H113 0.931 . S
C100 C96 1.328 . S
C100 C101 1.433 . S
C100 H114 0.931 . S
C101 C97 1.323 . S
C101 C100 1.433 . S
C101 H115 0.933 . S
C102 Dy80 2.738 . S
C102 O85 1.255 . S
C102 O86 1.249 . S
C102 C96 1.516 . S
C103 O87 1.254 . S
C103 O88 1.257 . S
C104 O89 1.266 . S
C104 O90 1.236 . S
C105 C108 1.344 . S
C105 C109 1.328 . S
C105 C111 1.516 . S
C106 C107 1.304 . S
C106 C110 1.323 . S
C107 C106 1.304 . S
C107 C108 1.371 . S
C107 H116 0.930 . S
C108 C105 1.344 . S
C108 C107 1.371 . S
C108 H117 0.931 . S
C109 C105 1.328 . S
C109 C110 1.433 . S
C109 H118 0.931 . S
C110 C106 1.323 . S
C110 C109 1.433 . S
C110 H119 0.933 . S
C111 Dy81 2.738 . S
C111 O91 1.255 . S
C111 O92 1.249 . S
C111 C105 1.516 . S
H112 C98 0.930 . S
H113 C99 0.931 . S
H114 C100 0.931 . S
H115 C101 0.933 . S
H116 C107 0.930 . S
H117 C108 0.931 . S
H118 C109 0.931 . S
H119 C110 0.933 . S
H120 C121 0.949 . S
C121 H120 0.949 . S
C121 C122 1.395 . S
C121 C123 1.391 . S
C122 C121 1.395 . S
C122 C125 1.390 . S
C123 C121 1.391 . S
C123 C127 1.387 . S
C123 C128 1.491 . S
H124 C125 0.950 . S
C125 C122 1.390 . S
C125 H124 0.950 . S
C125 C126 1.378 . S
C126 C125 1.378 . S
C126 C127 1.409 . S
C127 C123 1.387 . S
C127 C126 1.409 . S
C127 H129 0.951 . S
C128 C123 1.491 . S
C128 C130 1.382 . S
C128 C132 1.404 . S
H129 C127 0.951 . S
C130 C128 1.382 . S
C130 C131 1.390 . S
C130 H135 0.949 . S
C131 C130 1.390 . S
C131 C136 1.399 . S
C132 C128 1.404 . S
C132 H133 0.950 . S
C132 C134 1.375 . S
H133 C132 0.950 . S
C134 C132 1.375 . S
C134 C136 1.382 . S
C134 H138 0.950 . S
H135 C130 0.949 . S
C136 C131 1.399 . S
C136 C134 1.382 . S
C136 H137 0.952 . S
H137 C136 0.952 . S
H138 C134 0.950 . S
H139 C140 0.949 . S
C140 H139 0.949 . S
C140 C141 1.395 . S
C140 C142 1.391 . S
C141 C140 1.395 . S
C141 C144 1.390 . S
C142 C140 1.391 . S
C142 C146 1.387 . S
C142 C147 1.491 . S
H143 C144 0.950 . S
C144 C141 1.390 . S
C144 H143 0.950 . S
C144 C145 1.378 . S
C145 C144 1.378 . S
C145 C146 1.409 . S
C146 C142 1.387 . S
C146 C145 1.409 . S
C146 H148 0.951 . S
C147 C142 1.491 . S
C147 C149 1.382 . S
C147 C151 1.404 . S
H148 C146 0.951 . S
C149 C147 1.382 . S
C149 C150 1.390 . S
C149 H154 0.949 . S
C150 C149 1.390 . S
C150 C155 1.399 . S
C151 C147 1.404 . S
C151 H152 0.950 . S
C151 C153 1.375 . S
H152 C151 0.950 . S
C153 C151 1.375 . S
C153 C155 1.382 . S
C153 H157 0.950 . S
H154 C149 0.949 . S
C155 C150 1.399 . S
C155 C153 1.382 . S
C155 H156 0.952 . S
H156 C155 0.952 . S
H157 C153 0.950 . S
H158 C159 0.949 . S
C159 H158 0.949 . S
C159 C160 1.395 . S
C159 C161 1.391 . S
C160 C159 1.395 . S
C160 C163 1.390 . S
C161 C159 1.391 . S
C161 C165 1.387 . S
C161 C166 1.491 . S
H162 C163 0.950 1_655 S
C163 C160 1.390 . S
C163 H162 0.950 1_455 S
C163 C164 1.378 . S
C164 C163 1.378 . S
C164 C165 1.409 . S
C165 C161 1.387 . S
C165 C164 1.409 . S
C165 H167 0.951 . S
C166 C161 1.491 . S
C166 C168 1.382 . S
C166 C170 1.404 . S
H167 C165 0.951 . S
C168 C166 1.382 . S
C168 C169 1.390 . S
C168 H173 0.949 . S
C169 C168 1.390 . S
C169 C174 1.399 . S
C170 C166 1.404 . S
C170 H171 0.950 . S
C170 C172 1.375 . S
H171 C170 0.950 . S
C172 C170 1.375 . S
C172 C174 1.382 . S
C172 H176 0.950 . S
H173 C168 0.949 . S
C174 C169 1.399 . S
C174 C172 1.382 . S
C174 H175 0.952 . S
H175 C174 0.952 . S
H176 C172 0.950 . S
H177 C178 0.949 1_655 S
C178 H177 0.949 1_455 S
C178 C179 1.395 . S
C178 C180 1.391 . S
C179 C178 1.395 . S
C179 C182 1.390 . S
C180 C178 1.391 . S
C180 C184 1.387 . S
C180 C185 1.491 1_455 S
H181 C182 0.950 . S
C182 C179 1.390 . S
C182 H181 0.950 . S
C182 C183 1.378 . S
C183 C182 1.378 . S
C183 C184 1.409 . S
C184 C180 1.387 . S
C184 C183 1.409 . S
C184 H186 0.951 . S
C185 C180 1.491 1_655 S
C185 C187 1.382 . S
C185 C189 1.404 . S
H186 C184 0.951 . S
C187 C185 1.382 . S
C187 C188 1.390 . S
C187 H192 0.949 . S
C188 C187 1.390 . S
C188 C193 1.399 . S
C189 C185 1.404 . S
C189 H190 0.950 1_655 S
C189 C191 1.375 . S
H190 C189 0.950 1_455 S
C191 C189 1.375 . S
C191 C193 1.382 . S
C191 H195 0.950 . S
H192 C187 0.949 . S
C193 C188 1.399 . S
C193 C191 1.382 . S
C193 H194 0.952 . S
H194 C193 0.952 . S
H195 C191 0.950 . S
H196 C197 0.949 1_565 S
C197 H196 0.949 1_545 S
C197 C198 1.395 . S
C197 C199 1.391 . S
C198 C197 1.395 . S
C198 C201 1.390 . S
C199 C197 1.391 . S
C199 C203 1.387 . S
C199 C204 1.491 1_545 S
H200 C201 0.950 . S
C201 C198 1.390 . S
C201 H200 0.950 . S
C201 C202 1.378 . S
C202 C201 1.378 . S
C202 C203 1.409 . S
C203 C199 1.387 . S
C203 C202 1.409 . S
C203 H205 0.951 . S
C204 C199 1.491 1_565 S
C204 C206 1.382 . S
C204 C208 1.404 . S
H205 C203 0.951 . S
C206 C204 1.382 . S
C206 C207 1.390 . S
C206 H211 0.949 . S
C207 C206 1.390 . S
C207 C212 1.399 . S
C208 C204 1.404 . S
C208 H209 0.950 . S
C208 C210 1.375 . S
H209 C208 0.950 . S
C210 C208 1.375 . S
C210 C212 1.382 . S
C210 H214 0.950 . S
H211 C206 0.949 . S
C212 C207 1.399 . S
C212 C210 1.382 . S
C212 H213 0.952 . S
H213 C212 0.952 . S
H214 C210 0.950 . S
H215 C216 0.949 . S
C216 H215 0.949 . S
C216 C217 1.395 . S
C216 C218 1.391 . S
C217 C216 1.395 . S
C217 C220 1.390 . S
C218 C216 1.391 . S
C218 C222 1.387 . S
C218 C223 1.491 . S
H219 C220 0.950 . S
C220 C217 1.390 . S
C220 H219 0.950 . S
C220 C221 1.378 . S
C221 C220 1.378 . S
C221 C222 1.409 . S
C222 C218 1.387 . S
C222 C221 1.409 . S
C222 H224 0.951 . S
C223 C218 1.491 . S
C223 C225 1.382 . S
C223 C227 1.404 . S
H224 C222 0.951 . S
C225 C223 1.382 . S
C225 C226 1.390 . S
C225 H230 0.949 . S
C226 C225 1.390 . S
C226 C231 1.399 . S
C227 C223 1.404 . S
C227 H228 0.950 . S
C227 C229 1.375 . S
H228 C227 0.950 . S
C229 C227 1.375 . S
C229 C231 1.382 . S
C229 H233 0.950 . S
H230 C225 0.949 . S
C231 C226 1.399 . S
C231 C229 1.382 . S
C231 H232 0.952 . S
H232 C231 0.952 . S
H233 C229 0.950 . S
H234 C252 0.951 . S
H235 C254 0.951 . S
H236 C256 0.950 . S
H237 C257 0.950 . S
H238 C259 0.950 . S
H239 C262 0.950 . S
H240 C263 0.950 . S
H241 C265 0.950 . S
H242 C266 0.950 . S
H243 C267 0.951 . S
H244 C269 0.951 . S
H245 C271 0.950 . S
H246 C272 0.950 . S
H247 C274 0.950 . S
H248 C277 0.950 . S
H249 C278 0.950 . S
H250 C280 0.950 . S
H251 C281 0.950 . S
C252 H234 0.951 . S
C252 C253 1.366 . S
C252 C254 1.388 . S
C253 C252 1.366 . S
C253 C257 1.385 . S
C254 H235 0.951 . S
C254 C252 1.388 . S
C254 C255 1.366 . S
C255 C254 1.366 . S
C255 C256 1.414 . S
C255 C258 1.499 . S
C256 H236 0.950 . S
C256 C255 1.414 . S
C256 C257 1.374 . S
C257 H237 0.950 . S
C257 C253 1.385 . S
C257 C256 1.374 . S
C258 C255 1.499 . S
C258 C259 1.373 . S
C258 C260 1.389 . S
C259 H238 0.950 . S
C259 C258 1.373 . S
C259 C275 1.377 . S
C260 C258 1.389 . S
C260 C261 1.524 . S
C260 C274 1.377 . S
C261 C260 1.524 . S
C261 C262 1.397 . S
C261 C266 1.363 . S
C262 H239 0.950 . S
C262 C261 1.397 . S
C262 C263 1.334 . S
C263 H240 0.950 . S
C263 C262 1.334 . S
C263 C264 1.287 . S
C264 C263 1.287 . S
C264 C265 1.524 . S
C264 H283 0.913 . S
C265 H241 0.950 . S
C265 C264 1.524 . S
C265 C266 1.415 . S
C266 H242 0.950 . S
C266 C261 1.363 . S
C266 C265 1.415 . S
C267 H243 0.951 . S
C267 C268 1.366 . S
C267 C269 1.388 . S
C268 C267 1.366 . S
C268 C272 1.385 . S
C269 H244 0.951 . S
C269 C267 1.388 . S
C269 C270 1.366 . S
C270 C269 1.366 . S
C270 C271 1.414 . S
C270 C273 1.499 . S
C271 H245 0.950 . S
C271 C270 1.414 . S
C271 C272 1.374 . S
C272 H246 0.950 . S
C272 C268 1.385 . S
C272 C271 1.374 . S
C273 C270 1.499 . S
C273 C274 1.373 . S
C273 C275 1.389 . S
C274 H247 0.950 . S
C274 C260 1.377 . S
C274 C273 1.373 . S
C275 C259 1.377 . S
C275 C273 1.389 . S
C275 C276 1.524 . S
C276 C275 1.524 . S
C276 C277 1.397 . S
C276 C281 1.363 . S
C277 H248 0.950 . S
C277 C276 1.397 . S
C277 C278 1.334 . S
C278 H249 0.950 . S
C278 C277 1.334 . S
C278 C279 1.287 . S
C279 C278 1.287 . S
C279 C280 1.524 . S
C279 H282 0.999 . S
C280 H250 0.950 . S
C280 C279 1.524 . S
C280 C281 1.415 . S
C281 H251 0.950 . S
C281 C276 1.363 . S
C281 C280 1.415 . S
H282 C279 0.999 . S
H283 C264 0.913 . S
H284 C302 0.951 . S
H285 C304 0.951 . S
H286 C306 0.950 . S
H287 C307 0.950 . S
H288 C309 0.950 . S
H289 C312 0.950 . S
H290 C313 0.950 . S
H291 C315 0.950 . S
H292 C316 0.950 . S
H293 C317 0.951 . S
H294 C319 0.951 . S
H295 C321 0.950 . S
H296 C322 0.950 . S
H297 C324 0.950 . S
H298 C327 0.950 . S
H299 C328 0.950 . S
H300 C330 0.950 . S
H301 C331 0.950 . S
C302 H284 0.951 . S
C302 C303 1.366 . S
C302 C304 1.388 . S
C303 C302 1.366 . S
C303 C307 1.385 . S
C304 H285 0.951 . S
C304 C302 1.388 . S
C304 C305 1.366 . S
C305 C304 1.366 . S
C305 C306 1.414 . S
C305 C308 1.499 . S
C306 H286 0.950 . S
C306 C305 1.414 . S
C306 C307 1.374 . S
C307 H287 0.950 . S
C307 C303 1.385 . S
C307 C306 1.374 . S
C308 C305 1.499 . S
C308 C309 1.373 . S
C308 C310 1.389 . S
C309 H288 0.950 . S
C309 C308 1.373 . S
C309 C325 1.377 . S
C310 C308 1.389 . S
C310 C311 1.524 . S
C310 C324 1.377 . S
C311 C310 1.524 . S
C311 C312 1.397 . S
C311 C316 1.363 . S
C312 H289 0.950 . S
C312 C311 1.397 . S
C312 C313 1.334 . S
C313 H290 0.950 . S
C313 C312 1.334 . S
C313 C314 1.287 . S
C314 C313 1.287 . S
C314 C315 1.524 . S
C314 H333 0.913 . S
C315 H291 0.950 . S
C315 C314 1.524 . S
C315 C316 1.415 . S
C316 H292 0.950 . S
C316 C311 1.363 . S
C316 C315 1.415 . S
C317 H293 0.951 . S
C317 C318 1.366 . S
C317 C319 1.388 . S
C318 C317 1.366 . S
C318 C322 1.385 . S
C319 H294 0.951 . S
C319 C317 1.388 . S
C319 C320 1.366 . S
C320 C319 1.366 . S
C320 C321 1.414 . S
C320 C323 1.499 . S
C321 H295 0.950 . S
C321 C320 1.414 . S
C321 C322 1.374 . S
C322 H296 0.950 . S
C322 C318 1.385 . S
C322 C321 1.374 . S
C323 C320 1.499 . S
C323 C324 1.373 . S
C323 C325 1.389 . S
C324 H297 0.950 . S
C324 C310 1.377 . S
C324 C323 1.373 . S
C325 C309 1.377 . S
C325 C323 1.389 . S
C325 C326 1.524 . S
C326 C325 1.524 . S
C326 C327 1.397 . S
C326 C331 1.363 . S
C327 H298 0.950 . S
C327 C326 1.397 . S
C327 C328 1.334 . S
C328 H299 0.950 . S
C328 C327 1.334 . S
C328 C329 1.287 . S
C329 C328 1.287 . S
C329 C330 1.524 . S
C329 H332 0.999 . S
C330 H300 0.950 . S
C330 C329 1.524 . S
C330 C331 1.415 . S
C331 H301 0.950 . S
C331 C326 1.363 . S
C331 C330 1.415 . S
H332 C329 0.999 . S
H333 C314 0.913 . S
H334 C352 0.951 . S
H335 C354 0.951 . S
H336 C356 0.950 . S
H337 C357 0.950 . S
H338 C359 0.950 . S
H339 C362 0.950 . S
H340 C363 0.950 . S
H341 C365 0.950 . S
H342 C366 0.950 . S
H343 C367 0.951 . S
H344 C369 0.951 . S
H345 C371 0.950 . S
H346 C372 0.950 . S
H347 C374 0.950 . S
H348 C377 0.950 . S
H349 C378 0.950 . S
H350 C380 0.950 . S
H351 C381 0.950 . S
C352 H334 0.951 . S
C352 C353 1.366 . S
C352 C354 1.388 . S
C353 C352 1.366 . S
C353 C357 1.385 . S
C354 H335 0.951 . S
C354 C352 1.388 . S
C354 C355 1.366 . S
C355 C354 1.366 . S
C355 C356 1.414 . S
C355 C358 1.499 . S
C356 H336 0.950 . S
C356 C355 1.414 . S
C356 C357 1.374 . S
C357 H337 0.950 . S
C357 C353 1.385 . S
C357 C356 1.374 . S
C358 C355 1.499 . S
C358 C359 1.373 . S
C358 C360 1.389 . S
C359 H338 0.950 . S
C359 C358 1.373 . S
C359 C375 1.377 . S
C360 C358 1.389 . S
C360 C361 1.524 . S
C360 C374 1.377 . S
C361 C360 1.524 . S
C361 C362 1.397 . S
C361 C366 1.363 . S
C362 H339 0.950 . S
C362 C361 1.397 . S
C362 C363 1.334 . S
C363 H340 0.950 . S
C363 C362 1.334 . S
C363 C364 1.287 . S
C364 C363 1.287 . S
C364 C365 1.524 . S
C364 H383 0.913 . S
C365 H341 0.950 . S
C365 C364 1.524 . S
C365 C366 1.415 . S
C366 H342 0.950 . S
C366 C361 1.363 . S
C366 C365 1.415 . S
C367 H343 0.951 . S
C367 C368 1.366 . S
C367 C369 1.388 . S
C368 C367 1.366 . S
C368 C372 1.385 . S
C369 H344 0.951 . S
C369 C367 1.388 . S
C369 C370 1.366 . S
C370 C369 1.366 . S
C370 C371 1.414 . S
C370 C373 1.499 . S
C371 H345 0.950 . S
C371 C370 1.414 . S
C371 C372 1.374 . S
C372 H346 0.950 . S
C372 C368 1.385 . S
C372 C371 1.374 . S
C373 C370 1.499 . S
C373 C374 1.373 . S
C373 C375 1.389 . S
C374 H347 0.950 . S
C374 C360 1.377 . S
C374 C373 1.373 . S
C375 C359 1.377 . S
C375 C373 1.389 . S
C375 C376 1.524 . S
C376 C375 1.524 . S
C376 C377 1.397 . S
C376 C381 1.363 . S
C377 H348 0.950 . S
C377 C376 1.397 . S
C377 C378 1.334 . S
C378 H349 0.950 . S
C378 C377 1.334 . S
C378 C379 1.287 . S
C379 C378 1.287 . S
C379 C380 1.524 . S
C379 H382 0.999 . S
C380 H350 0.950 . S
C380 C379 1.524 . S
C380 C381 1.415 . S
C381 H351 0.950 . S
C381 C376 1.363 . S
C381 C380 1.415 . S
H382 C379 0.999 . S
H383 C364 0.913 . S
H384 C402 0.951 . S
H385 C404 0.951 . S
H386 C406 0.950 . S
H387 C407 0.950 . S
H388 C409 0.950 . S
H389 C412 0.950 . S
H390 C413 0.950 . S
H391 C415 0.950 . S
H392 C416 0.950 . S
H393 C417 0.951 . S
H394 C419 0.951 . S
H395 C421 0.950 . S
H396 C422 0.950 . S
H397 C424 0.950 . S
H398 C427 0.950 . S
H399 C428 0.950 . S
H400 C430 0.950 . S
H401 C431 0.950 . S
C402 H384 0.951 . S
C402 C403 1.366 . S
C402 C404 1.388 . S
C403 C402 1.366 . S
C403 C407 1.385 . S
C404 H385 0.951 . S
C404 C402 1.388 . S
C404 C405 1.366 . S
C405 C404 1.366 . S
C405 C406 1.414 . S
C405 C408 1.499 . S
C406 H386 0.950 . S
C406 C405 1.414 . S
C406 C407 1.374 . S
C407 H387 0.950 . S
C407 C403 1.385 . S
C407 C406 1.374 . S
C408 C405 1.499 . S
C408 C409 1.373 . S
C408 C410 1.389 . S
C409 H388 0.950 . S
C409 C408 1.373 . S
C409 C425 1.377 . S
C410 C408 1.389 . S
C410 C411 1.524 . S
C410 C424 1.377 . S
C411 C410 1.524 . S
C411 C412 1.397 . S
C411 C416 1.363 . S
C412 H389 0.950 . S
C412 C411 1.397 . S
C412 C413 1.334 . S
C413 H390 0.950 . S
C413 C412 1.334 . S
C413 C414 1.287 . S
C414 C413 1.287 . S
C414 C415 1.524 . S
C414 H433 0.913 . S
C415 H391 0.950 . S
C415 C414 1.524 . S
C415 C416 1.415 . S
C416 H392 0.950 . S
C416 C411 1.363 . S
C416 C415 1.415 . S
C417 H393 0.951 . S
C417 C418 1.366 . S
C417 C419 1.388 . S
C418 C417 1.366 . S
C418 C422 1.385 . S
C419 H394 0.951 . S
C419 C417 1.388 . S
C419 C420 1.366 . S
C420 C419 1.366 . S
C420 C421 1.414 . S
C420 C423 1.499 . S
C421 H395 0.950 . S
C421 C420 1.414 . S
C421 C422 1.374 . S
C422 H396 0.950 . S
C422 C418 1.385 . S
C422 C421 1.374 . S
C423 C420 1.499 . S
C423 C424 1.373 . S
C423 C425 1.389 . S
C424 H397 0.950 . S
C424 C410 1.377 . S
C424 C423 1.373 . S
C425 C409 1.377 . S
C425 C423 1.389 . S
C425 C426 1.524 . S
C426 C425 1.524 . S
C426 C427 1.397 . S
C426 C431 1.363 . S
C427 H398 0.950 . S
C427 C426 1.397 . S
C427 C428 1.334 . S
C428 H399 0.950 . S
C428 C427 1.334 . S
C428 C429 1.287 . S
C429 C428 1.287 . S
C429 C430 1.524 . S
C429 H432 0.999 . S
C430 H400 0.950 . S
C430 C429 1.524 . S
C430 C431 1.415 . S
C431 H401 0.950 . S
C431 C426 1.363 . S
C431 C430 1.415 . S
H432 C429 0.999 . S
H433 C414 0.913 . S
H434 C452 0.951 . S
H435 C454 0.951 . S
H436 C456 0.950 . S
H437 C457 0.950 . S
H438 C459 0.950 . S
H439 C462 0.950 . S
H440 C463 0.950 . S
H441 C465 0.950 . S
H442 C466 0.950 . S
H443 C467 0.951 . S
H444 C469 0.951 . S
H445 C471 0.950 . S
H446 C472 0.950 . S
H447 C474 0.950 . S
H448 C477 0.950 . S
H449 C478 0.950 . S
H450 C480 0.950 . S
H451 C481 0.950 . S
C452 H434 0.951 . S
C452 C453 1.366 . S
C452 C454 1.388 . S
C453 C452 1.366 . S
C453 C457 1.385 . S
C454 H435 0.951 . S
C454 C452 1.388 . S
C454 C455 1.366 . S
C455 C454 1.366 . S
C455 C456 1.414 . S
C455 C458 1.499 . S
C456 H436 0.950 . S
C456 C455 1.414 . S
C456 C457 1.374 . S
C457 H437 0.950 . S
C457 C453 1.385 . S
C457 C456 1.374 . S
C458 C455 1.499 . S
C458 C459 1.373 . S
C458 C460 1.389 . S
C459 H438 0.950 . S
C459 C458 1.373 . S
C459 C475 1.377 . S
C460 C458 1.389 . S
C460 C461 1.524 . S
C460 C474 1.377 . S
C461 C460 1.524 . S
C461 C462 1.397 . S
C461 C466 1.363 . S
C462 H439 0.950 . S
C462 C461 1.397 . S
C462 C463 1.334 . S
C463 H440 0.950 . S
C463 C462 1.334 . S
C463 C464 1.287 . S
C464 C463 1.287 . S
C464 C465 1.524 . S
C464 H483 0.913 . S
C465 H441 0.950 . S
C465 C464 1.524 . S
C465 C466 1.415 . S
C466 H442 0.950 . S
C466 C461 1.363 . S
C466 C465 1.415 . S
C467 H443 0.951 . S
C467 C468 1.366 . S
C467 C469 1.388 . S
C468 C467 1.366 . S
C468 C472 1.385 . S
C469 H444 0.951 . S
C469 C467 1.388 . S
C469 C470 1.366 . S
C470 C469 1.366 . S
C470 C471 1.414 . S
C470 C473 1.499 . S
C471 H445 0.950 . S
C471 C470 1.414 . S
C471 C472 1.374 . S
C472 H446 0.950 . S
C472 C468 1.385 . S
C472 C471 1.374 . S
C473 C470 1.499 . S
C473 C474 1.373 . S
C473 C475 1.389 . S
C474 H447 0.950 . S
C474 C460 1.377 . S
C474 C473 1.373 . S
C475 C459 1.377 . S
C475 C473 1.389 . S
C475 C476 1.524 . S
C476 C475 1.524 . S
C476 C477 1.397 . S
C476 C481 1.363 . S
C477 H448 0.950 . S
C477 C476 1.397 . S
C477 C478 1.334 . S
C478 H449 0.950 . S
C478 C477 1.334 . S
C478 C479 1.287 . S
C479 C478 1.287 . S
C479 C480 1.524 . S
C479 H482 0.999 . S
C480 H450 0.950 . S
C480 C479 1.524 . S
C480 C481 1.415 . S
C481 H451 0.950 . S
C481 C476 1.363 . S
C481 C480 1.415 . S
H482 C479 0.999 . S
H483 C464 0.913 . S
H484 C502 0.951 . S
H485 C504 0.951 . S
H486 C506 0.950 . S
H487 C507 0.950 . S
H488 C509 0.950 . S
H489 C512 0.950 . S
H490 C513 0.950 . S
H491 C515 0.950 . S
H492 C516 0.950 . S
H493 C517 0.951 . S
H494 C519 0.951 . S
H495 C521 0.950 . S
H496 C522 0.950 . S
H497 C524 0.950 . S
H498 C527 0.950 . S
H499 C528 0.950 . S
H500 C530 0.950 . S
H501 C531 0.950 . S
C502 H484 0.951 . S
C502 C503 1.366 . S
C502 C504 1.388 . S
C503 C502 1.366 . S
C503 C507 1.385 . S
C504 H485 0.951 . S
C504 C502 1.388 . S
C504 C505 1.366 . S
C505 C504 1.366 . S
C505 C506 1.414 . S
C505 C508 1.499 . S
C506 H486 0.950 . S
C506 C505 1.414 . S
C506 C507 1.374 . S
C507 H487 0.950 . S
C507 C503 1.385 . S
C507 C506 1.374 . S
C508 C505 1.499 . S
C508 C509 1.373 . S
C508 C510 1.389 . S
C509 H488 0.950 . S
C509 C508 1.373 . S
C509 C525 1.377 . S
C510 C508 1.389 . S
C510 C511 1.524 . S
C510 C524 1.377 . S
C511 C510 1.524 . S
C511 C512 1.397 . S
C511 C516 1.363 . S
C512 H489 0.950 . S
C512 C511 1.397 . S
C512 C513 1.334 . S
C513 H490 0.950 . S
C513 C512 1.334 . S
C513 C514 1.287 . S
C514 C513 1.287 . S
C514 C515 1.524 . S
C514 H533 0.913 . S
C515 H491 0.950 . S
C515 C514 1.524 . S
C515 C516 1.415 . S
C516 H492 0.950 . S
C516 C511 1.363 . S
C516 C515 1.415 . S
C517 H493 0.951 . S
C517 C518 1.366 . S
C517 C519 1.388 . S
C518 C517 1.366 . S
C518 C522 1.385 . S
C519 H494 0.951 . S
C519 C517 1.388 . S
C519 C520 1.366 . S
C520 C519 1.366 . S
C520 C521 1.414 . S
C520 C523 1.499 . S
C521 H495 0.950 . S
C521 C520 1.414 . S
C521 C522 1.374 . S
C522 H496 0.950 . S
C522 C518 1.385 . S
C522 C521 1.374 . S
C523 C520 1.499 . S
C523 C524 1.373 . S
C523 C525 1.389 . S
C524 H497 0.950 . S
C524 C510 1.377 . S
C524 C523 1.373 . S
C525 C509 1.377 . S
C525 C523 1.389 . S
C525 C526 1.524 . S
C526 C525 1.524 . S
C526 C527 1.397 . S
C526 C531 1.363 . S
C527 H498 0.950 . S
C527 C526 1.397 . S
C527 C528 1.334 . S
C528 H499 0.950 . S
C528 C527 1.334 . S
C528 C529 1.287 . S
C529 C528 1.287 . S
C529 C530 1.524 . S
C529 H532 0.999 . S
C530 H500 0.950 . S
C530 C529 1.524 . S
C530 C531 1.415 . S
C531 H501 0.950 . S
C531 C526 1.363 . S
C531 C530 1.415 . S
H532 C529 0.999 . S
H533 C514 0.913 . S
H534 C552 0.951 . S
H535 C554 0.951 . S
H536 C556 0.950 . S
H537 C557 0.950 . S
H538 C559 0.950 . S
H539 C562 0.950 . S
H540 C563 0.950 . S
H541 C565 0.950 . S
H542 C566 0.950 . S
H543 C567 0.951 . S
H544 C569 0.951 . S
H545 C571 0.950 . S
H546 C572 0.950 . S
H547 C574 0.950 . S
H548 C577 0.950 . S
H549 C578 0.950 . S
H550 C580 0.950 . S
H551 C581 0.950 . S
C552 H534 0.951 . S
C552 C553 1.366 . S
C552 C554 1.388 . S
C553 C552 1.366 . S
C553 C557 1.385 . S
C554 H535 0.951 . S
C554 C552 1.388 . S
C554 C555 1.366 . S
C555 C554 1.366 . S
C555 C556 1.414 . S
C555 C558 1.499 . S
C556 H536 0.950 . S
C556 C555 1.414 . S
C556 C557 1.374 . S
C557 H537 0.950 . S
C557 C553 1.385 . S
C557 C556 1.374 . S
C558 C555 1.499 . S
C558 C559 1.373 . S
C558 C560 1.389 . S
C559 H538 0.950 . S
C559 C558 1.373 . S
C559 C575 1.377 . S
C560 C558 1.389 . S
C560 C561 1.524 . S
C560 C574 1.377 . S
C561 C560 1.524 . S
C561 C562 1.397 . S
C561 C566 1.363 . S
C562 H539 0.950 . S
C562 C561 1.397 . S
C562 C563 1.334 . S
C563 H540 0.950 . S
C563 C562 1.334 . S
C563 C564 1.287 . S
C564 C563 1.287 . S
C564 C565 1.524 . S
C564 H583 0.913 . S
C565 H541 0.950 . S
C565 C564 1.524 . S
C565 C566 1.415 . S
C566 H542 0.950 . S
C566 C561 1.363 . S
C566 C565 1.415 . S
C567 H543 0.951 . S
C567 C568 1.366 . S
C567 C569 1.388 . S
C568 C567 1.366 . S
C568 C572 1.385 . S
C569 H544 0.951 . S
C569 C567 1.388 . S
C569 C570 1.366 . S
C570 C569 1.366 . S
C570 C571 1.414 . S
C570 C573 1.499 . S
C571 H545 0.950 . S
C571 C570 1.414 . S
C571 C572 1.374 . S
C572 H546 0.950 . S
C572 C568 1.385 . S
C572 C571 1.374 . S
C573 C570 1.499 . S
C573 C574 1.373 . S
C573 C575 1.389 . S
C574 H547 0.950 . S
C574 C560 1.377 . S
C574 C573 1.373 . S
C575 C559 1.377 . S
C575 C573 1.389 . S
C575 C576 1.524 . S
C576 C575 1.524 . S
C576 C577 1.397 . S
C576 C581 1.363 . S
C577 H548 0.950 . S
C577 C576 1.397 . S
C577 C578 1.334 . S
C578 H549 0.950 . S
C578 C577 1.334 . S
C578 C579 1.287 . S
C579 C578 1.287 . S
C579 C580 1.524 . S
C579 H582 0.999 . S
C580 H550 0.950 . S
C580 C579 1.524 . S
C580 C581 1.415 . S
C581 H551 0.950 . S
C581 C576 1.363 . S
C581 C580 1.415 . S
H582 C579 0.999 . S
H583 C564 0.913 . S
H584 C602 0.951 . S
H585 C604 0.951 . S
H586 C606 0.950 . S
H587 C607 0.950 . S
H588 C609 0.950 . S
H589 C612 0.950 . S
H590 C613 0.950 . S
H591 C615 0.950 . S
H592 C616 0.950 . S
H593 C617 0.951 1_455 S
H594 C619 0.951 . S
H595 C621 0.950 . S
H596 C622 0.950 . S
H597 C624 0.950 . S
H598 C627 0.950 . S
H599 C628 0.950 . S
H600 C630 0.950 . S
H601 C631 0.950 . S
C602 H584 0.951 . S
C602 C603 1.366 . S
C602 C604 1.388 . S
C603 C602 1.366 . S
C603 C607 1.385 . S
C604 H585 0.951 . S
C604 C602 1.388 . S
C604 C605 1.366 . S
C605 C604 1.366 . S
C605 C606 1.414 . S
C605 C608 1.499 . S
C606 H586 0.950 . S
C606 C605 1.414 . S
C606 C607 1.374 . S
C607 H587 0.950 . S
C607 C603 1.385 . S
C607 C606 1.374 . S
C608 C605 1.499 . S
C608 C609 1.373 . S
C608 C610 1.389 . S
C609 H588 0.950 . S
C609 C608 1.373 . S
C609 C625 1.377 . S
C610 C608 1.389 . S
C610 C611 1.524 . S
C610 C624 1.377 . S
C611 C610 1.524 . S
C611 C612 1.397 . S
C611 C616 1.363 . S
C612 H589 0.950 . S
C612 C611 1.397 . S
C612 C613 1.334 . S
C613 H590 0.950 . S
C613 C612 1.334 . S
C613 C614 1.287 . S
C614 C613 1.287 . S
C614 C615 1.524 . S
C614 H633 0.913 . S
C615 H591 0.950 . S
C615 C614 1.524 . S
C615 C616 1.415 . S
C616 H592 0.950 . S
C616 C611 1.363 . S
C616 C615 1.415 . S
C617 H593 0.951 1_655 S
C617 C618 1.366 1_655 S
C617 C619 1.388 . S
C618 C617 1.366 1_455 S
C618 C622 1.385 1_455 S
C619 H594 0.951 . S
C619 C617 1.388 . S
C619 C620 1.366 . S
C620 C619 1.366 . S
C620 C621 1.414 . S
C620 C623 1.499 . S
C621 H595 0.950 . S
C621 C620 1.414 . S
C621 C622 1.374 . S
C622 H596 0.950 . S
C622 C618 1.385 1_655 S
C622 C621 1.374 . S
C623 C620 1.499 . S
C623 C624 1.373 . S
C623 C625 1.389 . S
C624 H597 0.950 . S
C624 C610 1.377 . S
C624 C623 1.373 . S
C625 C609 1.377 . S
C625 C623 1.389 . S
C625 C626 1.524 . S
C626 C625 1.524 . S
C626 C627 1.397 . S
C626 C631 1.363 . S
C627 H598 0.950 . S
C627 C626 1.397 . S
C627 C628 1.334 . S
C628 H599 0.950 . S
C628 C627 1.334 . S
C628 C629 1.287 . S
C629 C628 1.287 . S
C629 C630 1.524 . S
C629 H632 0.999 . S
C630 H600 0.950 . S
C630 C629 1.524 . S
C630 C631 1.415 . S
C631 H601 0.950 . S
C631 C626 1.363 . S
C631 C630 1.415 . S
H632 C629 0.999 . S
H633 C614 0.913 . S
H634 C652 0.951 . S
H635 C654 0.951 . S
H636 C656 0.950 . S
H637 C657 0.950 . S
H638 C659 0.950 . S
H639 C662 0.950 . S
H640 C663 0.950 . S
H641 C665 0.950 . S
H642 C666 0.950 . S
H643 C667 0.951 . S
H644 C669 0.951 . S
H645 C671 0.950 . S
H646 C672 0.950 . S
H647 C674 0.950 . S
H648 C677 0.950 . S
H649 C678 0.950 . S
H650 C680 0.950 . S
H651 C681 0.950 . S
C652 H634 0.951 . S
C652 C653 1.366 . S
C652 C654 1.388 . S
C653 C652 1.366 . S
C653 C657 1.385 . S
C654 H635 0.951 . S
C654 C652 1.388 . S
C654 C655 1.366 . S
C655 C654 1.366 . S
C655 C656 1.414 . S
C655 C658 1.499 . S
C656 H636 0.950 . S
C656 C655 1.414 . S
C656 C657 1.374 . S
C657 H637 0.950 . S
C657 C653 1.385 . S
C657 C656 1.374 . S
C658 C655 1.499 . S
C658 C659 1.373 . S
C658 C660 1.389 . S
C659 H638 0.950 . S
C659 C658 1.373 . S
C659 C675 1.377 . S
C660 C658 1.389 . S
C660 C661 1.524 . S
C660 C674 1.377 . S
C661 C660 1.524 . S
C661 C662 1.397 . S
C661 C666 1.363 . S
C662 H639 0.950 . S
C662 C661 1.397 . S
C662 C663 1.334 . S
C663 H640 0.950 . S
C663 C662 1.334 . S
C663 C664 1.287 . S
C664 C663 1.287 . S
C664 C665 1.524 . S
C664 H683 0.913 . S
C665 H641 0.950 . S
C665 C664 1.524 . S
C665 C666 1.415 . S
C666 H642 0.950 . S
C666 C661 1.363 . S
C666 C665 1.415 . S
C667 H643 0.951 . S
C667 C668 1.366 . S
C667 C669 1.388 1_545 S
C668 C667 1.366 . S
C668 C672 1.385 . S
C669 H644 0.951 . S
C669 C667 1.388 1_565 S
C669 C670 1.366 . S
C670 C669 1.366 . S
C670 C671 1.414 . S
C670 C673 1.499 . S
C671 H645 0.950 . S
C671 C670 1.414 . S
C671 C672 1.374 1_565 S
C672 H646 0.950 . S
C672 C668 1.385 . S
C672 C671 1.374 1_545 S
C673 C670 1.499 . S
C673 C674 1.373 . S
C673 C675 1.389 . S
C674 H647 0.950 . S
C674 C660 1.377 . S
C674 C673 1.373 . S
C675 C659 1.377 . S
C675 C673 1.389 . S
C675 C676 1.524 . S
C676 C675 1.524 . S
C676 C677 1.397 1_565 S
C676 C681 1.363 . S
C677 H648 0.950 . S
C677 C676 1.397 1_545 S
C677 C678 1.334 . S
C678 H649 0.950 . S
C678 C677 1.334 . S
C678 C679 1.287 . S
C679 C678 1.287 . S
C679 C680 1.524 . S
C679 H682 0.999 . S
C680 H650 0.950 . S
C680 C679 1.524 . S
C680 C681 1.415 1_545 S
C681 H651 0.950 . S
C681 C676 1.363 . S
C681 C680 1.415 1_565 S
H682 C679 0.999 . S
H683 C664 0.913 . S
H684 C702 0.951 . S
H685 C704 0.951 . S
H686 C706 0.950 . S
H687 C707 0.950 . S
H688 C709 0.950 . S
H689 C712 0.950 . S
H690 C713 0.950 . S
H691 C715 0.950 . S
H692 C716 0.950 . S
H693 C717 0.951 . S
H694 C719 0.951 . S
H695 C721 0.950 . S
H696 C722 0.950 . S
H697 C724 0.950 . S
H698 C727 0.950 . S
H699 C728 0.950 . S
H700 C730 0.950 . S
H701 C731 0.950 . S
C702 H684 0.951 . S
C702 C703 1.366 . S
C702 C704 1.388 . S
C703 C702 1.366 . S
C703 C707 1.385 . S
C704 H685 0.951 . S
C704 C702 1.388 . S
C704 C705 1.366 . S
C705 C704 1.366 . S
C705 C706 1.414 . S
C705 C708 1.499 . S
C706 H686 0.950 . S
C706 C705 1.414 . S
C706 C707 1.374 . S
C707 H687 0.950 . S
C707 C703 1.385 . S
C707 C706 1.374 . S
C708 C705 1.499 . S
C708 C709 1.373 . S
C708 C710 1.389 . S
C709 H688 0.950 . S
C709 C708 1.373 . S
C709 C725 1.377 . S
C710 C708 1.389 . S
C710 C711 1.524 . S
C710 C724 1.377 . S
C711 C710 1.524 . S
C711 C712 1.397 . S
C711 C716 1.363 . S
C712 H689 0.950 . S
C712 C711 1.397 . S
C712 C713 1.334 . S
C713 H690 0.950 . S
C713 C712 1.334 . S
C713 C714 1.287 . S
C714 C713 1.287 . S
C714 C715 1.524 . S
C714 H733 0.913 . S
C715 H691 0.950 . S
C715 C714 1.524 . S
C715 C716 1.415 . S
C716 H692 0.950 . S
C716 C711 1.363 . S
C716 C715 1.415 . S
C717 H693 0.951 . S
C717 C718 1.366 . S
C717 C719 1.388 . S
C718 C717 1.366 . S
C718 C722 1.385 . S
C719 H694 0.951 . S
C719 C717 1.388 . S
C719 C720 1.366 . S
C720 C719 1.366 . S
C720 C721 1.414 . S
C720 C723 1.499 . S
C721 H695 0.950 . S
C721 C720 1.414 . S
C721 C722 1.374 . S
C722 H696 0.950 . S
C722 C718 1.385 . S
C722 C721 1.374 . S
C723 C720 1.499 . S
C723 C724 1.373 . S
C723 C725 1.389 . S
C724 H697 0.950 . S
C724 C710 1.377 . S
C724 C723 1.373 . S
C725 C709 1.377 . S
C725 C723 1.389 . S
C725 C726 1.524 . S
C726 C725 1.524 . S
C726 C727 1.397 . S
C726 C731 1.363 . S
C727 H698 0.950 . S
C727 C726 1.397 . S
C727 C728 1.334 . S
C728 H699 0.950 . S
C728 C727 1.334 . S
C728 C729 1.287 . S
C729 C728 1.287 . S
C729 C730 1.524 . S
C729 H732 0.999 . S
C730 H700 0.950 . S
C730 C729 1.524 . S
C730 C731 1.415 . S
C731 H701 0.950 . S
C731 C726 1.363 . S
C731 C730 1.415 . S
H732 C729 0.999 . S
H733 C714 0.913 . S
H734 C752 0.951 . S
H735 C754 0.951 . S
H736 C756 0.950 . S
H737 C757 0.950 . S
H738 C759 0.950 . S
H739 C762 0.950 . S
H740 C763 0.950 . S
H741 C765 0.950 . S
H742 C766 0.950 . S
H743 C767 0.951 . S
H744 C769 0.951 . S
H745 C771 0.950 . S
H746 C772 0.950 . S
H747 C774 0.950 . S
H748 C777 0.950 . S
H749 C778 0.950 . S
H750 C780 0.950 . S
H751 C781 0.950 . S
C752 H734 0.951 . S
C752 C753 1.366 . S
C752 C754 1.388 . S
C753 C752 1.366 . S
C753 C757 1.385 . S
C754 H735 0.951 . S
C754 C752 1.388 . S
C754 C755 1.366 . S
C755 C754 1.366 . S
C755 C756 1.414 . S
C755 C758 1.499 . S
C756 H736 0.950 . S
C756 C755 1.414 . S
C756 C757 1.374 . S
C757 H737 0.950 . S
C757 C753 1.385 . S
C757 C756 1.374 . S
C758 C755 1.499 . S
C758 C759 1.373 . S
C758 C760 1.389 . S
C759 H738 0.950 . S
C759 C758 1.373 . S
C759 C775 1.377 . S
C760 C758 1.389 . S
C760 C761 1.524 . S
C760 C774 1.377 . S
C761 C760 1.524 . S
C761 C762 1.397 . S
C761 C766 1.363 . S
C762 H739 0.950 . S
C762 C761 1.397 . S
C762 C763 1.334 . S
C763 H740 0.950 . S
C763 C762 1.334 . S
C763 C764 1.287 . S
C764 C763 1.287 . S
C764 C765 1.524 . S
C764 H783 0.913 . S
C765 H741 0.950 . S
C765 C764 1.524 . S
C765 C766 1.415 . S
C766 H742 0.950 . S
C766 C761 1.363 . S
C766 C765 1.415 . S
C767 H743 0.951 . S
C767 C768 1.366 . S
C767 C769 1.388 . S
C768 C767 1.366 . S
C768 C772 1.385 . S
C769 H744 0.951 . S
C769 C767 1.388 . S
C769 C770 1.366 . S
C770 C769 1.366 . S
C770 C771 1.414 . S
C770 C773 1.499 . S
C771 H745 0.950 . S
C771 C770 1.414 . S
C771 C772 1.374 . S
C772 H746 0.950 . S
C772 C768 1.385 . S
C772 C771 1.374 . S
C773 C770 1.499 . S
C773 C774 1.373 . S
C773 C775 1.389 . S
C774 H747 0.950 . S
C774 C760 1.377 . S
C774 C773 1.373 . S
C775 C759 1.377 . S
C775 C773 1.389 . S
C775 C776 1.524 . S
C776 C775 1.524 . S
C776 C777 1.397 . S
C776 C781 1.363 . S
C777 H748 0.950 . S
C777 C776 1.397 . S
C777 C778 1.334 . S
C778 H749 0.950 . S
C778 C777 1.334 . S
C778 C779 1.287 . S
C779 C778 1.287 . S
C779 C780 1.524 . S
C779 H782 0.999 . S
C780 H750 0.950 . S
C780 C779 1.524 . S
C780 C781 1.415 . S
C781 H751 0.950 . S
C781 C776 1.363 . S
C781 C780 1.415 . S
H782 C779 0.999 . S
H783 C764 0.913 . S
H784 C802 0.951 . S
H785 C804 0.951 . S
H786 C806 0.950 . S
H787 C807 0.950 . S
H788 C809 0.950 . S
H789 C812 0.950 . S
H790 C813 0.950 . S
H791 C815 0.950 . S
H792 C816 0.950 . S
H793 C817 0.951 . S
H794 C819 0.951 . S
H795 C821 0.950 . S
H796 C822 0.950 . S
H797 C824 0.950 . S
H798 C827 0.950 . S
H799 C828 0.950 . S
H800 C830 0.950 . S
H801 C831 0.950 . S
C802 H784 0.951 . S
C802 C803 1.366 . S
C802 C804 1.388 . S
C803 C802 1.366 . S
C803 C807 1.385 . S
C804 H785 0.951 . S
C804 C802 1.388 . S
C804 C805 1.366 . S
C805 C804 1.366 . S
C805 C806 1.414 . S
C805 C808 1.499 . S
C806 H786 0.950 . S
C806 C805 1.414 . S
C806 C807 1.374 . S
C807 H787 0.950 . S
C807 C803 1.385 . S
C807 C806 1.374 . S
C808 C805 1.499 . S
C808 C809 1.373 . S
C808 C810 1.389 . S
C809 H788 0.950 . S
C809 C808 1.373 . S
C809 C825 1.377 . S
C810 C808 1.389 . S
C810 C811 1.524 . S
C810 C824 1.377 . S
C811 C810 1.524 . S
C811 C812 1.397 . S
C811 C816 1.363 . S
C812 H789 0.950 . S
C812 C811 1.397 . S
C812 C813 1.334 . S
C813 H790 0.950 . S
C813 C812 1.334 . S
C813 C814 1.287 . S
C814 C813 1.287 . S
C814 C815 1.524 . S
C814 H833 0.913 . S
C815 H791 0.950 . S
C815 C814 1.524 . S
C815 C816 1.415 . S
C816 H792 0.950 . S
C816 C811 1.363 . S
C816 C815 1.415 . S
C817 H793 0.951 . S
C817 C818 1.366 . S
C817 C819 1.388 . S
C818 C817 1.366 . S
C818 C822 1.385 . S
C819 H794 0.951 . S
C819 C817 1.388 . S
C819 C820 1.366 . S
C820 C819 1.366 . S
C820 C821 1.414 . S
C820 C823 1.499 . S
C821 H795 0.950 . S
C821 C820 1.414 . S
C821 C822 1.374 . S
C822 H796 0.950 . S
C822 C818 1.385 . S
C822 C821 1.374 . S
C823 C820 1.499 . S
C823 C824 1.373 . S
C823 C825 1.389 . S
C824 H797 0.950 . S
C824 C810 1.377 . S
C824 C823 1.373 . S
C825 C809 1.377 . S
C825 C823 1.389 . S
C825 C826 1.524 . S
C826 C825 1.524 . S
C826 C827 1.397 . S
C826 C831 1.363 . S
C827 H798 0.950 . S
C827 C826 1.397 . S
C827 C828 1.334 . S
C828 H799 0.950 . S
C828 C827 1.334 . S
C828 C829 1.287 . S
C829 C828 1.287 . S
C829 C830 1.524 . S
C829 H832 0.999 . S
C830 H800 0.950 . S
C830 C829 1.524 . S
C830 C831 1.415 . S
C831 H801 0.950 . S
C831 C826 1.363 . S
C831 C830 1.415 . S
H832 C829 0.999 . S
H833 C814 0.913 . S
H834 C852 0.951 . S
H835 C854 0.951 . S
H836 C856 0.950 . S
H837 C857 0.962 . S
H838 C859 0.950 . S
H839 C862 0.950 . S
H840 C863 0.950 . S
H841 C865 0.950 . S
H842 C866 0.950 . S
H843 C867 0.951 . S
H844 C869 0.951 . S
H845 C871 0.950 . S
H846 C872 0.950 . S
H847 C874 0.950 . S
H848 C877 0.950 . S
H849 C878 0.950 . S
H850 C880 0.950 . S
H851 C881 0.950 . S
C852 H834 0.951 . S
C852 C853 1.366 . S
C852 C854 1.388 . S
C853 C852 1.366 . S
C853 C857 1.385 . S
C854 H835 0.951 . S
C854 C852 1.388 . S
C854 C855 1.366 . S
C855 C854 1.366 . S
C855 C856 1.414 . S
C855 C858 1.499 . S
C856 H836 0.950 . S
C856 C855 1.414 . S
C856 C857 1.374 . S
C857 H837 0.962 . S
C857 C853 1.385 . S
C857 C856 1.374 . S
C858 C855 1.499 . S
C858 C859 1.373 . S
C858 C860 1.389 . S
C859 H838 0.950 . S
C859 C858 1.373 . S
C859 C875 1.377 . S
C860 C858 1.389 . S
C860 C861 1.524 . S
C860 C874 1.377 1_554 S
C861 C860 1.524 . S
C861 C862 1.397 1_455 S
C861 C866 1.363 . S
C862 H839 0.950 . S
C862 C861 1.397 1_655 S
C862 C863 1.334 . S
C863 H840 0.950 . S
C863 C862 1.334 . S
C863 C864 1.287 . S
C864 C863 1.287 . S
C864 C865 1.524 1_655 S
C864 H883 0.913 . S
C865 H841 0.950 . S
C865 C864 1.524 1_455 S
C865 C866 1.415 . S
C866 H842 0.950 . S
C866 C861 1.363 . S
C866 C865 1.415 . S
C867 H843 0.951 . S
C867 C868 1.366 . S
C867 C869 1.388 . S
C868 C867 1.366 . S
C868 C872 1.385 . S
C869 H844 0.951 . S
C869 C867 1.388 . S
C869 C870 1.366 . S
C870 C869 1.366 . S
C870 C871 1.414 . S
C870 C873 1.499 . S
C871 H845 0.950 . S
C871 C870 1.414 . S
C871 C872 1.374 . S
C872 H846 0.950 . S
C872 C868 1.385 . S
C872 C871 1.374 . S
C873 C870 1.499 . S
C873 C874 1.373 . S
C873 C875 1.389 1_556 S
C874 H847 0.950 . S
C874 C860 1.377 1_556 S
C874 C873 1.373 . S
C875 C859 1.377 . S
C875 C873 1.389 1_554 S
C875 C876 1.524 . S
C876 C875 1.524 . S
C876 C877 1.397 1_554 S
C876 C881 1.363 . S
C877 H848 0.950 . S
C877 C876 1.397 1_556 S
C877 C878 1.334 . S
C878 H849 0.950 . S
C878 C877 1.334 . S
C878 C879 1.287 . S
C879 C878 1.287 . S
C879 C880 1.524 1_556 S
C879 H882 0.999 . S
C880 H850 0.950 . S
C880 C879 1.524 1_554 S
C880 C881 1.415 . S
C881 H851 0.950 . S
C881 C876 1.363 . S
C881 C880 1.415 . S
H882 C879 0.999 . S
H883 C864 0.913 . S
H884 C902 0.951 . S
H885 C904 0.951 . S
H886 C906 0.950 . S
H887 C907 0.950 . S
H888 C909 0.950 . S
H889 C912 0.950 . S
H890 C913 0.950 . S
H891 C915 0.950 . S
H892 C916 0.950 . S
H893 C917 0.951 . S
H894 C919 0.951 . S
H895 C921 0.950 . S
H896 C922 0.950 . S
H897 C924 0.950 . S
H898 C927 0.950 . S
H899 C928 0.950 . S
H900 C930 0.950 . S
H901 C931 0.950 . S
C902 H884 0.951 . S
C902 C903 1.366 . S
C902 C904 1.388 . S
C903 C902 1.366 . S
C903 C907 1.385 . S
C904 H885 0.951 . S
C904 C902 1.388 . S
C904 C905 1.366 . S
C905 C904 1.366 . S
C905 C906 1.414 . S
C905 C908 1.499 . S
C906 H886 0.950 . S
C906 C905 1.414 . S
C906 C907 1.374 . S
C907 H887 0.950 . S
C907 C903 1.385 . S
C907 C906 1.374 . S
C908 C905 1.499 . S
C908 C909 1.373 . S
C908 C910 1.389 . S
C909 H888 0.950 . S
C909 C908 1.373 . S
C909 C925 1.377 . S
C910 C908 1.389 . S
C910 C911 1.524 . S
C910 C924 1.377 . S
C911 C910 1.524 . S
C911 C912 1.397 . S
C911 C916 1.363 . S
C912 H889 0.950 . S
C912 C911 1.397 . S
C912 C913 1.334 . S
C913 H890 0.950 . S
C913 C912 1.334 . S
C913 C914 1.287 . S
C914 C913 1.287 . S
C914 C915 1.524 . S
C914 H933 0.913 . S
C915 H891 0.950 . S
C915 C914 1.524 . S
C915 C916 1.415 . S
C916 H892 0.950 . S
C916 C911 1.363 . S
C916 C915 1.415 . S
C917 H893 0.951 . S
C917 C918 1.366 . S
C917 C919 1.388 . S
C918 C917 1.366 . S
C918 C922 1.385 . S
C919 H894 0.951 . S
C919 C917 1.388 . S
C919 C920 1.366 . S
C920 C919 1.366 . S
C920 C921 1.414 . S
C920 C923 1.499 . S
C921 H895 0.950 . S
C921 C920 1.414 . S
C921 C922 1.374 . S
C922 H896 0.950 . S
C922 C918 1.385 . S
C922 C921 1.374 . S
C923 C920 1.499 . S
C923 C924 1.373 . S
C923 C925 1.389 . S
C924 H897 0.950 . S
C924 C910 1.377 . S
C924 C923 1.373 . S
C925 C909 1.377 . S
C925 C923 1.389 . S
C925 C926 1.524 . S
C926 C925 1.524 . S
C926 C927 1.397 . S
C926 C931 1.363 . S
C927 H898 0.950 . S
C927 C926 1.397 . S
C927 C928 1.334 . S
C928 H899 0.950 . S
C928 C927 1.334 . S
C928 C929 1.287 . S
C929 C928 1.287 . S
C929 C930 1.524 . S
C929 H932 0.999 . S
C930 H900 0.950 . S
C930 C929 1.524 . S
C930 C931 1.415 . S
C931 H901 0.950 . S
C931 C926 1.363 . S
C931 C930 1.415 . S
H932 C929 0.999 . S
H933 C914 0.913 . S
H934 C952 0.951 . S
H935 C954 0.951 . S
H936 C956 0.950 . S
H937 C957 0.950 . S
H938 C959 0.950 . S
H939 C962 0.950 . S
H940 C963 0.950 . S
H941 C965 0.950 . S
H942 C966 0.950 . S
H943 C967 0.951 . S
H944 C969 0.951 . S
H945 C971 0.950 . S
H946 C972 0.950 . S
H947 C974 0.950 . S
H948 C977 0.950 . S
H949 C978 0.950 . S
H950 C980 0.950 . S
H951 C981 0.950 . S
C952 H934 0.951 . S
C952 C953 1.366 . S
C952 C954 1.388 . S
C953 C952 1.366 . S
C953 C957 1.385 . S
C954 H935 0.951 . S
C954 C952 1.388 . S
C954 C955 1.366 . S
C955 C954 1.366 . S
C955 C956 1.414 . S
C955 C958 1.499 . S
C956 H936 0.950 . S
C956 C955 1.414 . S
C956 C957 1.374 . S
C957 H937 0.950 . S
C957 C953 1.385 . S
C957 C956 1.374 . S
C958 C955 1.499 . S
C958 C959 1.373 . S
C958 C960 1.389 . S
C959 H938 0.950 . S
C959 C958 1.373 . S
C959 C975 1.377 . S
C960 C958 1.389 . S
C960 C961 1.524 . S
C960 C974 1.377 . S
C961 C960 1.524 . S
C961 C962 1.397 . S
C961 C966 1.363 . S
C962 H939 0.950 . S
C962 C961 1.397 . S
C962 C963 1.334 . S
C963 H940 0.950 . S
C963 C962 1.334 . S
C963 C964 1.287 . S
C964 C963 1.287 . S
C964 C965 1.524 . S
C964 H983 0.913 . S
C965 H941 0.950 . S
C965 C964 1.524 . S
C965 C966 1.415 . S
C966 H942 0.950 . S
C966 C961 1.363 . S
C966 C965 1.415 . S
C967 H943 0.951 . S
C967 C968 1.366 . S
C967 C969 1.388 . S
C968 C967 1.366 . S
C968 C972 1.385 . S
C969 H944 0.951 . S
C969 C967 1.388 . S
C969 C970 1.366 . S
C970 C969 1.366 . S
C970 C971 1.414 . S
C970 C973 1.499 . S
C971 H945 0.950 . S
C971 C970 1.414 . S
C971 C972 1.374 . S
C972 H946 0.950 . S
C972 C968 1.385 . S
C972 C971 1.374 . S
C973 C970 1.499 . S
C973 C974 1.373 . S
C973 C975 1.389 . S
C974 H947 0.950 . S
C974 C960 1.377 . S
C974 C973 1.373 . S
C975 C959 1.377 . S
C975 C973 1.389 . S
C975 C976 1.524 . S
C976 C975 1.524 . S
C976 C977 1.397 . S
C976 C981 1.363 . S
C977 H948 0.950 . S
C977 C976 1.397 . S
C977 C978 1.334 . S
C978 H949 0.950 . S
C978 C977 1.334 . S
C978 C979 1.287 . S
C979 C978 1.287 . S
C979 C980 1.524 . S
C979 H982 0.999 . S
C980 H950 0.950 . S
C980 C979 1.524 . S
C980 C981 1.415 . S
C981 H951 0.950 . S
C981 C976 1.363 . S
C981 C980 1.415 . S
H982 C979 0.999 . S
H983 C964 0.913 . S
H984 C1002 0.951 . S
H985 C1004 0.951 . S
H986 C1006 0.950 . S
H987 C1007 0.950 . S
H988 C1009 0.950 . S
H989 C1012 0.950 . S
H990 C1013 0.950 . S
H991 C1015 0.950 . S
H992 C1016 0.950 . S
H993 C1017 0.951 . S
H994 C1019 0.951 . S
H995 C1021 0.950 . S
H996 C1022 0.950 . S
H997 C1024 0.950 . S
H998 C1027 0.950 . S
H999 C1028 0.950 . S
H1000 C1030 0.950 . S
H1001 C1031 0.950 . S
C1002 H984 0.951 . S
C1002 C1003 1.366 . S
C1002 C1004 1.388 . S
C1003 C1002 1.366 . S
C1003 C1007 1.385 . S
C1004 H985 0.951 . S
C1004 C1002 1.388 . S
C1004 C1005 1.366 . S
C1005 C1004 1.366 . S
C1005 C1006 1.414 . S
C1005 C1008 1.499 . S
C1006 H986 0.950 . S
C1006 C1005 1.414 . S
C1006 C1007 1.374 . S
C1007 H987 0.950 . S
C1007 C1003 1.385 . S
C1007 C1006 1.374 . S
C1008 C1005 1.499 . S
C1008 C1009 1.373 . S
C1008 C1010 1.389 . S
C1009 H988 0.950 . S
C1009 C1008 1.373 . S
C1009 C1025 1.377 . S
C1010 C1008 1.389 . S
C1010 C1011 1.524 1_545 S
C1010 C1024 1.377 . S
C1011 C1010 1.524 1_565 S
C1011 C1012 1.397 . S
C1011 C1016 1.363 . S
C1012 H989 0.950 . S
C1012 C1011 1.397 . S
C1012 C1013 1.334 . S
C1013 H990 0.950 . S
C1013 C1012 1.334 . S
C1013 C1014 1.287 . S
C1014 C1013 1.287 . S
C1014 C1015 1.524 . S
C1014 H1033 0.913 . S
C1015 H991 0.950 . S
C1015 C1014 1.524 . S
C1015 C1016 1.415 . S
C1016 H992 0.950 . S
C1016 C1011 1.363 . S
C1016 C1015 1.415 . S
C1017 H993 0.951 . S
C1017 C1018 1.366 . S
C1017 C1019 1.388 . S
C1018 C1017 1.366 . S
C1018 C1022 1.385 . S
C1019 H994 0.951 . S
C1019 C1017 1.388 . S
C1019 C1020 1.366 . S
C1020 C1019 1.366 . S
C1020 C1021 1.414 . S
C1020 C1023 1.499 . S
C1021 H995 0.950 . S
C1021 C1020 1.414 . S
C1021 C1022 1.374 . S
C1022 H996 0.950 . S
C1022 C1018 1.385 . S
C1022 C1021 1.374 . S
C1023 C1020 1.499 . S
C1023 C1024 1.373 . S
C1023 C1025 1.389 . S
C1024 H997 0.950 . S
C1024 C1010 1.377 . S
C1024 C1023 1.373 . S
C1025 C1009 1.377 . S
C1025 C1023 1.389 . S
C1025 C1026 1.524 . S
C1026 C1025 1.524 . S
C1026 C1027 1.397 . S
C1026 C1031 1.363 . S
C1027 H998 0.950 . S
C1027 C1026 1.397 . S
C1027 C1028 1.334 . S
C1028 H999 0.950 . S
C1028 C1027 1.334 . S
C1028 C1029 1.287 . S
C1029 C1028 1.287 . S
C1029 C1030 1.524 . S
C1029 H1032 0.999 . S
C1030 H1000 0.950 . S
C1030 C1029 1.524 . S
C1030 C1031 1.415 . S
C1031 H1001 0.950 . S
C1031 C1026 1.363 . S
C1031 C1030 1.415 . S
H1032 C1029 0.999 . S
H1033 C1014 0.913 . S
H1034 C1052 0.951 . S
H1035 C1054 0.951 . S
H1036 C1056 0.950 . S
H1037 C1057 0.950 . S
H1038 C1059 0.950 . S
H1039 C1062 0.950 . S
H1040 C1063 0.950 . S
H1041 C1065 0.950 . S
H1042 C1066 0.950 . S
H1043 C1067 0.951 . S
H1044 C1069 0.951 . S
H1045 C1071 0.950 . S
H1046 C1072 0.950 . S
H1047 C1074 0.953 . S
H1048 C1077 0.950 . S
H1049 C1078 0.950 . S
H1050 C1080 0.950 . S
H1051 C1081 0.950 . S
C1052 H1034 0.951 . S
C1052 C1053 1.366 . S
C1052 C1054 1.388 . S
C1053 C1052 1.366 . S
C1053 C1057 1.385 . S
C1054 H1035 0.951 . S
C1054 C1052 1.388 . S
C1054 C1055 1.366 . S
C1055 C1054 1.366 . S
C1055 C1056 1.414 . S
C1055 C1058 1.499 . S
C1056 H1036 0.950 . S
C1056 C1055 1.414 . S
C1056 C1057 1.374 . S
C1057 H1037 0.950 . S
C1057 C1053 1.385 . S
C1057 C1056 1.374 . S
C1058 C1055 1.499 . S
C1058 C1059 1.373 . S
C1058 C1060 1.389 . S
C1059 H1038 0.950 . S
C1059 C1058 1.373 . S
C1059 C1075 1.377 . S
C1060 C1058 1.389 . S
C1060 C1061 1.524 . S
C1060 C1074 1.373 1_556 S
C1061 C1060 1.524 . S
C1061 C1062 1.397 . S
C1061 C1066 1.363 . S
C1062 H1039 0.950 . S
C1062 C1061 1.397 . S
C1062 C1063 1.334 . S
C1063 H1040 0.950 . S
C1063 C1062 1.334 . S
C1063 C1064 1.287 . S
C1064 C1063 1.287 . S
C1064 C1065 1.524 . S
C1064 H1083 0.913 . S
C1065 H1041 0.950 . S
C1065 C1064 1.524 . S
C1065 C1066 1.415 . S
C1066 H1042 0.950 . S
C1066 C1061 1.363 . S
C1066 C1065 1.415 . S
C1067 H1043 0.951 . S
C1067 C1068 1.366 . S
C1067 C1069 1.388 . S
C1068 C1067 1.366 . S
C1068 C1072 1.385 . S
C1069 H1044 0.951 . S
C1069 C1067 1.388 . S
C1069 C1070 1.366 . S
C1070 C1069 1.366 . S
C1070 C1071 1.414 . S
C1070 C1073 1.499 . S
C1071 H1045 0.950 . S
C1071 C1070 1.414 . S
C1071 C1072 1.374 . S
C1072 H1046 0.950 . S
C1072 C1068 1.385 . S
C1072 C1071 1.374 . S
C1073 C1070 1.499 . S
C1073 C1074 1.374 . S
C1073 C1075 1.389 1_554 S
C1074 H1047 0.953 . S
C1074 C1060 1.373 1_554 S
C1074 C1073 1.374 . S
C1075 C1059 1.377 . S
C1075 C1073 1.389 1_556 S
C1075 C1076 1.524 1_556 S
C1076 C1075 1.524 1_554 S
C1076 C1077 1.397 . S
C1076 C1081 1.363 1_554 S
C1077 H1048 0.950 . S
C1077 C1076 1.397 . S
C1077 C1078 1.334 . S
C1078 H1049 0.950 . S
C1078 C1077 1.334 . S
C1078 C1079 1.287 . S
C1079 C1078 1.287 . S
C1079 C1080 1.524 1_554 S
C1079 H1082 0.999 . S
C1080 H1050 0.950 . S
C1080 C1079 1.524 1_556 S
C1080 C1081 1.415 . S
C1081 H1051 0.950 . S
C1081 C1076 1.363 1_556 S
C1081 C1080 1.415 . S
H1082 C1079 0.999 . S
H1083 C1064 0.913 . S
H1084 C1102 0.951 . S
H1085 C1104 0.951 . S
H1086 C1106 0.950 . S
H1087 C1107 0.950 . S
H1088 C1109 0.950 . S
H1089 C1112 0.950 . S
H1090 C1113 0.950 . S
H1091 C1115 0.950 . S
H1092 C1116 0.950 . S
H1093 C1117 0.951 . S
H1094 C1119 0.951 . S
H1095 C1121 0.950 . S
H1096 C1122 0.950 . S
H1097 C1124 0.950 . S
H1098 C1127 0.950 . S
H1099 C1128 0.950 . S
H1100 C1130 0.950 . S
H1101 C1131 0.950 1_455 S
C1102 H1084 0.951 . S
C1102 C1103 1.366 . S
C1102 C1104 1.388 . S
C1103 C1102 1.366 . S
C1103 C1107 1.385 . S
C1104 H1085 0.951 . S
C1104 C1102 1.388 . S
C1104 C1105 1.366 . S
C1105 C1104 1.366 . S
C1105 C1106 1.414 . S
C1105 C1108 1.499 . S
C1106 H1086 0.950 . S
C1106 C1105 1.414 . S
C1106 C1107 1.374 . S
C1107 H1087 0.950 . S
C1107 C1103 1.385 . S
C1107 C1106 1.374 . S
C1108 C1105 1.499 . S
C1108 C1109 1.373 . S
C1108 C1110 1.389 . S
C1109 H1088 0.950 . S
C1109 C1108 1.373 . S
C1109 C1125 1.377 . S
C1110 C1108 1.389 . S
C1110 C1111 1.524 . S
C1110 C1124 1.377 . S
C1111 C1110 1.524 . S
C1111 C1112 1.397 . S
C1111 C1116 1.363 . S
C1112 H1089 0.950 . S
C1112 C1111 1.397 . S
C1112 C1113 1.334 . S
C1113 H1090 0.950 . S
C1113 C1112 1.334 . S
C1113 C1114 1.287 . S
C1114 C1113 1.287 . S
C1114 C1115 1.524 . S
C1114 H1133 0.913 . S
C1115 H1091 0.950 . S
C1115 C1114 1.524 . S
C1115 C1116 1.415 . S
C1116 H1092 0.950 . S
C1116 C1111 1.363 . S
C1116 C1115 1.415 . S
C1117 H1093 0.951 . S
C1117 C1118 1.366 . S
C1117 C1119 1.388 . S
C1118 C1117 1.366 . S
C1118 C1122 1.385 . S
C1119 H1094 0.951 . S
C1119 C1117 1.388 . S
C1119 C1120 1.366 . S
C1120 C1119 1.366 . S
C1120 C1121 1.414 . S
C1120 C1123 1.499 . S
C1121 H1095 0.950 . S
C1121 C1120 1.414 . S
C1121 C1122 1.374 . S
C1122 H1096 0.950 . S
C1122 C1118 1.385 . S
C1122 C1121 1.374 . S
C1123 C1120 1.499 . S
C1123 C1124 1.373 . S
C1123 C1125 1.389 . S
C1124 H1097 0.950 . S
C1124 C1110 1.377 . S
C1124 C1123 1.373 . S
C1125 C1109 1.377 . S
C1125 C1123 1.389 . S
C1125 C1126 1.524 1_455 S
C1126 C1125 1.524 1_655 S
C1126 C1127 1.397 . S
C1126 C1131 1.363 . S
C1127 H1098 0.950 . S
C1127 C1126 1.397 . S
C1127 C1128 1.334 . S
C1128 H1099 0.950 . S
C1128 C1127 1.334 . S
C1128 C1129 1.287 . S
C1129 C1128 1.287 . S
C1129 C1130 1.524 . S
C1129 H1132 0.999 . S
C1130 H1100 0.950 . S
C1130 C1129 1.524 . S
C1130 C1131 1.415 . S
C1131 H1101 0.950 1_655 S
C1131 C1126 1.363 . S
C1131 C1130 1.415 . S
H1132 C1129 0.999 . S
H1133 C1114 0.913 . S
C253 C24 3.062 . S
C268 C226 2.974 . S
C303 C66 1.183 . S
C318 C188 1.134 . S
C353 C93 1.836 . S
C368 C207 1.780 . S
C403 C13 2.953 . S
C418 C221 2.913 . S
C468 C183 1.002 . S
C453 C57 1.014 . S
C518 C202 1.824 . S
C503 C104 1.853 . S
C553 C64 2.067 . S
C568 C150 1.982 . S
C603 C97 0.127 . S
C618 C164 0.239 . S
C653 C17 1.086 . S
C668 C126 1.080 . S
C718 C145 1.629 . S
C703 C53 1.656 . S
C768 C169 0.462 . S
C753 C106 0.240 . S
C803 C26 1.192 . S
C818 C131 1.151 . S
C868 C160 1.376 . S
C853 C2 1.345 . S
C903 C63 1.522 . S
C918 C122 1.515 . S
C953 C82 1.523 . S
C968 C141 1.559 . S
C1018 C198 1.517 . S
C1003 C42 1.494 . S
C1068 C217 1.727 . S
C1053 C103 1.726 . S
C1103 C23 1.603 . S
C1118 C179 1.590 . S
