# Generated by pormake.
# Topology anh, (6,3)-cn, num edge types: 1
# Building blocks:
#     Node 0, Type 0, BuildingBlock: BETFEN_clean_sbu_0, # of connection points: 6
#     Node 1, Type 0, BuildingBlock: BETFEN_clean_sbu_0, # of connection points: 6
#     Node 2, Type 0, BuildingBlock: BETFEN_clean_sbu_0, # of connection points: 6
#     Node 3, Type 1, BuildingBlock: QEWDON_clean_linker_0, # of connection points: 3
#     Node 4, Type 1, BuildingBlock: QEWDON_clean_linker_0, # of connection points: 3
#     Node 5, Type 1, BuildingBlock: QEWDON_clean_linker_0, # of connection points: 3
#     Node 6, Type 1, BuildingBlock: QEWDON_clean_linker_0, # of connection points: 3
#     Node 7, Type 1, BuildingBlock: QEWDON_clean_linker_0, # of connection points: 3
#     Node 8, Type 1, BuildingBlock: QEWDON_clean_linker_0, # of connection points: 3
#     Edge 9, Type (0, 1), BuildingBlock: XUDNAN_clean_linker_2, # of connection points: 2
#     Edge 10, Type (0, 1), BuildingBlock: XUDNAN_clean_linker_2, # of connection points: 2
#     Edge 11, Type (0, 1), BuildingBlock: XUDNAN_clean_linker_2, # of connection points: 2
#     Edge 12, Type (0, 1), BuildingBlock: XUDNAN_clean_linker_2, # of connection points: 2
#     Edge 13, Type (0, 1), BuildingBlock: XUDNAN_clean_linker_2, # of connection points: 2
#     Edge 14, Type (0, 1), BuildingBlock: XUDNAN_clean_linker_2, # of connection points: 2
#     Edge 15, Type (0, 1), BuildingBlock: XUDNAN_clean_linker_2, # of connection points: 2
#     Edge 16, Type (0, 1), BuildingBlock: XUDNAN_clean_linker_2, # of connection points: 2
#     Edge 17, Type (0, 1), BuildingBlock: XUDNAN_clean_linker_2, # of connection points: 2
#     Edge 18, Type (0, 1), BuildingBlock: XUDNAN_clean_linker_2, # of connection points: 2
#     Edge 19, Type (0, 1), BuildingBlock: XUDNAN_clean_linker_2, # of connection points: 2
#     Edge 20, Type (0, 1), BuildingBlock: XUDNAN_clean_linker_2, # of connection points: 2
#     Edge 21, Type (0, 1), BuildingBlock: XUDNAN_clean_linker_2, # of connection points: 2
#     Edge 22, Type (0, 1), BuildingBlock: XUDNAN_clean_linker_2, # of connection points: 2
#     Edge 23, Type (0, 1), BuildingBlock: XUDNAN_clean_linker_2, # of connection points: 2
#     Edge 24, Type (0, 1), BuildingBlock: XUDNAN_clean_linker_2, # of connection points: 2
#     Edge 25, Type (0, 1), BuildingBlock: XUDNAN_clean_linker_2, # of connection points: 2
#     Edge 26, Type (0, 1), BuildingBlock: XUDNAN_clean_linker_2, # of connection points: 2
# Relax obj value: 0.139
# Max RMSD: 0.176
# Mean RMSD: 0.128
data_MOF--net-anh--node1-BETFEN_clean_sbu_0--node2-QEWDON_clean_linker_0--edge1-XUDNAN_clean_linker_2
_symmetry_space_group_name_H-M    P1
_symmetry_Int_Tables_number       1
_symmetry_cell_setting            triclinic
loop_
_symmetry_equiv_pos_as_xyz
'x, y, z'
_cell_length_a     31.383029
_cell_length_b     32.634914
_cell_length_c     48.54042
_cell_angle_alpha  93.911453
_cell_angle_beta   96.832705
_cell_angle_gamma 103.68924
loop_
_atom_site_label
_atom_site_type_symbol
_atom_site_fract_x
_atom_site_fract_y
_atom_site_fract_z
_atom_type_partial_charge
Pr0 Pr 0.08634 0.58854 0.14587 0.0
Pr1 Pr 0.11619 0.68475 0.15146 0.0
C2 C 0.0478 0.50705 0.15117 0.0
C3 C 1.00731 0.48393 0.16117 0.0
C4 C 0.98492 0.44365 0.1482 0.0
C5 C 0.94601 0.4215 0.15714 0.0
C6 C 0.92897 0.43923 0.17932 0.0
C7 C 0.95147 0.47969 0.19225 0.0
C8 C 0.99019 0.50199 0.18314 0.0
C9 C 0.09983 0.62323 0.09583 0.0
C10 C 1.01043 0.64573 0.1461 0.0
C11 C 0.15311 0.76726 0.14802 0.0
C12 C 0.19751 0.79615 0.15163 0.0
C13 C 0.20355 0.83745 0.16408 0.0
C14 C 0.24566 0.86501 0.16901 0.0
C15 C 0.28257 0.85174 0.16153 0.0
C16 C 0.27639 0.81045 0.14865 0.0
C17 C 0.23415 0.78276 0.14383 0.0
C18 C 0.09807 0.65056 0.20077 0.0
C19 C 0.19309 0.62792 0.15013 0.0
O20 O 0.07847 0.53109 0.17 0.0
O21 O 0.04212 0.52453 0.12801 0.0
O22 O 0.08083 0.63731 0.11448 0.0
O23 O 0.11093 0.58867 0.102 0.0
O24 O 0.04063 0.6784 0.14032 0.0
O25 O 1.02074 0.61007 0.15229 0.0
O26 O 0.14266 0.73874 0.12643 0.0
O27 O 0.1394 0.75274 0.17069 0.0
O28 O 0.11966 0.63618 0.18368 0.0
O29 O 0.08655 0.68417 0.19318 0.0
O30 O 0.16231 0.59312 0.15183 0.0
O31 O 0.18329 0.66499 0.14833 0.0
H32 H 0.99754 0.42933 0.13114 0.0
H33 H 0.92956 0.39024 0.14694 0.0
H34 H 0.93879 0.49432 0.20916 0.0
H35 H 1.00666 0.53335 0.19322 0.0
H36 H 0.17567 0.8483 0.17024 0.0
H37 H 0.24933 0.89684 0.1786 0.0
H38 H 0.3043 0.79932 0.14286 0.0
H39 H 0.2302 0.75087 0.13429 0.0
Pr40 Pr 0.62285 0.12391 0.52676 0.0
Pr41 Pr 0.52309 0.10067 0.51839 0.0
C42 C 0.7097 0.15539 0.52416 0.0
C43 C 0.74034 0.19347 0.51657 0.0
C44 C 0.74194 0.23434 0.52856 0.0
C45 C 0.7725 0.26964 0.52175 0.0
C46 C 0.80196 0.26487 0.50271 0.0
C47 C 0.79954 0.22394 0.49036 0.0
C48 C 0.76919 0.18869 0.4973 0.0
C49 C 0.58461 0.10929 0.57528 0.0
C50 C 0.56947 0.20397 0.52284 0.0
C51 C 0.43664 0.06562 0.52 0.0
C52 C 0.40896 1.02176 0.51579 0.0
C53 C 0.36598 1.01289 0.50116 0.0
C54 C 0.34108 0.97091 0.49473 0.0
C55 C 0.35893 0.9371 0.5027 0.0
C56 C 0.40146 0.94627 0.51812 0.0
C57 C 0.42625 0.98811 0.52458 0.0
C58 C 0.56014 0.11384 0.46948 0.0
C59 C 0.57752 1.01996 0.52203 0.0
O60 O 0.68252 0.13105 0.50373 0.0
O61 O 0.6917 0.15908 0.54689 0.0
O62 O 0.57273 0.13058 0.55643 0.0
O63 O 0.61897 0.09596 0.57005 0.0
O64 O 0.53334 0.17602 0.52757 0.0
O65 O 0.60505 0.19038 0.51816 0.0
O66 O 0.4664 0.07535 0.54223 0.0
O67 O 0.45154 0.08092 0.49783 0.0
O68 O 0.57302 0.09308 0.48841 0.0
O69 O 0.52613 0.1275 0.47503 0.0
O70 O 0.61478 1.04948 0.52204 0.0
O71 O 0.53939 1.03148 0.52181 0.0
H72 H 0.71996 0.23905 0.54342 0.0
H73 H 0.77368 0.30054 0.53193 0.0
H74 H 0.82105 0.21907 0.47525 0.0
H75 H 0.76842 0.15751 0.48769 0.0
H76 H 0.35212 1.03838 0.49408 0.0
H77 H 0.30852 0.96488 0.48264 0.0
H78 H 0.41574 0.921 0.52497 0.0
H79 H 0.45928 0.99403 0.53599 0.0
Pr80 Pr 0.59817 0.57876 0.81852 0.0
Pr81 Pr 0.62319 0.67114 0.83843 0.0
C82 C 0.56745 0.50074 0.79093 0.0
C83 C 0.53041 0.46322 0.78868 0.0
C84 C 0.50082 0.45796 0.80841 0.0
C85 C 0.46755 0.42043 0.80681 0.0
C86 C 0.46345 0.38783 0.78541 0.0
C87 C 0.49277 0.39393 0.76539 0.0
C88 C 0.52587 0.43133 0.76702 0.0
C89 C 0.61608 0.59539 0.87652 0.0
C90 C 0.70342 0.62566 0.83072 0.0
C91 C 0.63191 0.74877 0.86425 0.0
C92 C 0.59962 0.77114 0.87301 0.0
C93 C 0.60631 0.81441 0.86978 0.0
C94 C 0.57114 0.83372 0.87001 0.0
C95 C 0.52888 0.80997 0.87355 0.0
C96 C 0.52332 0.76769 0.87951 0.0
C97 C 0.55844 0.74825 0.87902 0.0
C98 C 0.63127 0.65475 0.78239 0.0
C99 C 0.5156 0.62322 0.82723 0.0
O100 O 0.59458 0.5087 0.81428 0.0
O101 O 0.55885 0.5347 0.78126 0.0
O102 O 0.59349 0.61335 0.86048 0.0
O103 O 0.63 0.5669 0.8627 0.0
O104 O 0.69154 0.65278 0.84797 0.0
O105 O 0.67309 0.59854 0.81283 0.0
O106 O 0.63749 0.7166 0.87778 0.0
O107 O 0.62916 0.74113 0.83724 0.0
O108 O 0.59942 0.63668 0.79433 0.0
O109 O 0.6601 0.68342 0.7993 0.0
O110 O 0.52732 0.58698 0.82449 0.0
O111 O 0.54547 0.65993 0.83031 0.0
H112 H 0.50395 0.48253 0.82525 0.0
H113 H 0.44531 0.41677 0.82241 0.0
H114 H 0.49118 0.36921 0.74897 0.0
H115 H 0.54862 0.43494 0.7517 0.0
H116 H 0.63773 0.83243 0.8649 0.0
H117 H 0.57612 0.86641 0.86542 0.0
H118 H 0.49099 0.74868 0.88209 0.0
H119 H 0.55245 0.71463 0.88124 0.0
H120 H 0.61223 0.19067 0.27016 0.0
C121 C 0.59354 0.16094 0.25867 0.0
C122 C 0.58367 0.12436 0.27268 0.0
C123 C 0.57819 0.15942 0.23008 0.0
H124 H 0.54972 1.05828 0.26915 0.0
C125 C 0.55818 0.08623 0.2581 0.0
C126 C 0.54181 0.08436 0.22975 0.0
C127 C 0.55254 0.1209 0.21577 0.0
C128 C 0.58713 0.19829 0.21534 0.0
H129 H 0.5398 0.11965 0.19389 0.0
C130 C 0.6299 0.22548 0.21853 0.0
C131 C 0.63862 0.26145 0.20368 0.0
C132 C 0.5529 0.208 0.19756 0.0
H133 H 0.51952 0.18799 0.19501 0.0
C134 C 0.56128 0.24388 0.18307 0.0
H135 H 0.65667 0.21784 0.2318 0.0
C136 C 0.60385 0.27039 0.18598 0.0
H137 H 0.60954 0.2981 0.17454 0.0
H138 H 0.53467 0.25114 0.16949 0.0
H139 H 0.58297 0.63359 0.57327 0.0
C140 C 0.58009 0.60191 0.56378 0.0
C141 C 0.58925 0.57162 0.58124 0.0
C142 C 0.56577 0.5917 0.5351 0.0
H143 H 0.59104 0.50677 0.58455 0.0
C144 C 0.58333 0.52927 0.57051 0.0
C145 C 0.57015 0.51614 0.54191 0.0
C146 C 0.56196 0.5481 0.52417 0.0
C147 C 0.55203 0.62612 0.51798 0.0
H148 H 0.55236 0.53868 0.50209 0.0
C149 C 0.56592 0.67167 0.52626 0.0
C150 C 0.54791 0.70185 0.51106 0.0
C151 C 0.52112 0.61289 0.49373 0.0
H152 H 0.50835 0.57965 0.48655 0.0
C153 C 0.50446 0.64189 0.47857 0.0
H154 H 0.59014 0.68385 0.54448 0.0
C155 C 0.51731 0.68527 0.48705 0.0
H156 H 0.50348 0.7061 0.47421 0.0
H157 H 0.48069 0.63044 0.45999 0.0
H158 H 0.15232 0.67764 0.89098 0.0
C159 C 0.11782 0.67097 0.88197 0.0
C160 C 0.08542 0.66883 0.89975 0.0
C161 C 0.10596 0.66715 0.85281 0.0
H162 H 1.01621 0.65968 0.90265 0.0
C163 C 0.04083 0.66206 0.88855 0.0
C164 C 1.02761 0.65763 0.85966 0.0
C165 C 0.06045 0.65978 0.84188 0.0
C166 C 0.14119 0.6745 0.834 0.0
H167 H 0.05062 0.65652 0.81953 0.0
C168 C 0.18097 0.66106 0.83959 0.0
C169 C 0.21472 0.67053 0.8223 0.0
C170 C 0.13592 0.69731 0.81078 0.0
H171 H 0.10672 0.7092 0.80615 0.0
C172 C 0.16873 0.70623 0.79355 0.0
H173 H 0.18583 0.6436 0.8574 0.0
C174 C 0.20768 0.69304 0.79918 0.0
H175 H 0.23216 0.70009 0.7851 0.0
H176 H 0.16403 0.72375 0.77575 0.0
H177 H 1.03638 0.58103 0.40651 0.0
C178 C 0.06668 0.60445 0.41484 0.0
C179 C 0.09649 0.62186 0.39672 0.0
C180 C 0.07468 0.61855 0.44346 0.0
H181 H 0.15798 0.6674 0.39408 0.0
C182 C 0.13542 0.6526 0.40783 0.0
C183 C 0.14395 0.66693 0.43632 0.0
C184 C 0.11348 0.64987 0.45397 0.0
C185 C 0.04127 0.60279 0.46208 0.0
H186 H 0.12008 0.66109 0.47598 0.0
C187 C 1.02017 0.55932 0.46091 0.0
C188 C 0.98833 0.54485 0.47858 0.0
C189 C 1.02992 0.63165 0.48102 0.0
H190 H 0.045 0.66531 0.48211 0.0
C191 C 0.99845 0.61753 0.49848 0.0
H192 H 1.0286 0.53684 0.44635 0.0
C193 C 0.97784 0.57452 0.49735 0.0
H194 H 0.95415 0.56444 0.51155 0.0
H195 H 0.99006 0.64005 0.51301 0.0
H196 H 0.34585 0.98066 0.7083 0.0
C197 C 0.34295 1.01182 0.71577 0.0
C198 C 0.36776 1.04814 0.70579 0.0
C199 C 0.31435 1.01565 0.7355 0.0
H200 H 0.38552 0.11634 0.7101 0.0
C201 C 0.36435 0.08818 0.71635 0.0
C202 C 0.33652 0.09247 0.73639 0.0
C203 C 0.31105 1.05595 0.74558 0.0
C204 C 0.29111 0.97799 0.74776 0.0
H205 H 0.28993 1.05886 0.76137 0.0
C206 C 0.31579 0.95527 0.7638 0.0
C207 C 0.29462 0.92124 0.7776 0.0
C208 C 0.24476 0.96646 0.74527 0.0
H209 H 0.22521 0.98399 0.73319 0.0
C210 C 0.2234 0.93221 0.75846 0.0
H211 H 0.35164 0.96545 0.76647 0.0
C212 C 0.2481 0.90976 0.77464 0.0
H213 H 0.23083 0.88344 0.78475 0.0
H214 H 0.18759 0.92326 0.75636 0.0
H215 H 0.57564 0.64051 0.08678 0.0
C216 C 0.60738 0.63767 0.09681 0.0
C217 C 0.63645 0.62326 0.0807 0.0
C218 C 0.62024 0.65157 0.12534 0.0
H219 H 0.70129 0.61107 0.08157 0.0
C220 C 0.67855 0.62194 0.09371 0.0
C221 C 0.69287 0.63691 0.12185 0.0
C222 C 0.66331 0.65111 0.13762 0.0
C223 C 0.59045 0.67049 0.14149 0.0
H224 H 0.67427 0.66235 0.15942 0.0
C225 C 0.54379 0.65403 0.13744 0.0
C226 C 0.51621 0.67374 0.15198 0.0
C227 C 0.60878 0.70676 0.16042 0.0
H228 H 0.64406 0.72106 0.16361 0.0
C229 C 0.58184 0.72591 0.17503 0.0
H230 H 0.52897 0.62622 0.12289 0.0
C231 C 0.53608 0.70966 0.17091 0.0
H232 H 0.51623 0.72509 0.18287 0.0
H233 H 0.59653 0.75374 0.18956 0.0
H234 H 0.26647 0.69358 0.14928 0.0
H235 H 0.22611 0.55688 0.14954 0.0
H236 H 0.30346 0.55302 0.14766 0.0
H237 H 0.34766 0.69523 0.10182 0.0
H238 H 0.3851 0.74255 0.11995 0.0
H239 H 0.32636 0.73387 0.12053 0.0
H240 H 0.33985 0.74261 0.17456 0.0
H241 H 0.39853 0.75101 0.17405 0.0
H242 H 0.36995 0.70956 0.19279 0.0
H243 H 0.38652 0.5645 0.14618 0.0
H244 H 0.46765 0.59073 0.14782 0.0
H245 H 0.45286 0.71961 0.14808 0.0
C246 C 0.27369 0.66274 0.14886 0.0
C247 C 0.23988 0.62551 0.14952 0.0
C248 C 0.25121 0.58591 0.14909 0.0
C249 C 0.29513 0.58337 0.14792 0.0
C250 C 0.32754 0.62069 0.14717 0.0
C251 C 0.3173 0.65964 0.14771 0.0
C252 C 0.35825 0.69515 0.14731 0.0
C253 C 0.35409 0.71804 0.12083 0.0
C254 C 0.36716 0.72641 0.17376 0.0
C255 C 0.39333 0.6702 0.14687 0.0
C256 C 0.37499 0.62726 0.14652 0.0
C257 C 0.40114 0.59808 0.14636 0.0
C258 C 0.44723 0.61323 0.1471 0.0
C259 C 0.4669 0.65724 0.14817 0.0
C260 C 0.43913 0.68581 0.14759 0.0
H261 H 0.79287 0.34593 0.49651 0.0
H262 H 0.88804 0.26876 0.4948 0.0
H263 H 0.94452 0.33069 0.48514 0.0
H264 H 0.8303 0.4117 0.44241 0.0
H265 H 0.82183 0.45903 0.45993 0.0
H266 H 0.78791 0.40789 0.4648 0.0
H267 H 0.81054 0.4235 0.5183 0.0
H268 H 0.84443 0.47467 0.51361 0.0
H269 H 0.86844 0.43802 0.53248 0.0
H270 H 0.99195 0.4021 0.47785 0.0
H271 H 1.02683 0.47768 0.47491 0.0
H272 H 0.90097 0.50818 0.48193 0.0
C273 C 0.82556 0.34195 0.49416 0.0
C274 C 0.83574 0.30219 0.49626 0.0
C275 C 0.87899 0.29853 0.49276 0.0
C276 C 0.91145 0.33364 0.4874 0.0
C277 C 0.90031 0.37232 0.48561 0.0
C278 C 0.85842 0.37668 0.48891 0.0
C279 C 0.85544 0.4221 0.48712 0.0
C280 C 0.82188 0.42535 0.46207 0.0
C281 C 0.84405 0.44066 0.51451 0.0
C282 C 0.90239 0.44271 0.48272 0.0
C283 C 0.92768 0.41343 0.48166 0.0
C284 C 0.97236 0.42527 0.47843 0.0
C285 C 0.99184 0.46825 0.47661 0.0
C286 C 0.96671 0.49894 0.47816 0.0
C287 C 0.92123 0.48563 0.4809 0.0
H288 H 0.50889 0.84098 0.82497 0.0
H289 H 0.45976 0.81337 0.90311 0.0
H290 H 0.39181 0.83641 0.88661 0.0
H291 H 0.46897 0.93324 0.81436 0.0
H292 H 0.45494 0.91992 0.77721 0.0
H293 H 0.49921 0.90229 0.79596 0.0
H294 H 0.4606 0.82453 0.77652 0.0
H295 H 0.416 0.84194 0.75789 0.0
H296 H 0.40429 0.80239 0.78196 0.0
H297 H 0.32972 0.86395 0.86083 0.0
H298 H 0.28042 0.89442 0.82908 0.0
H299 H 0.37028 0.89887 0.76733 0.0
C300 C 0.48419 0.84056 0.83884 0.0
C301 C 0.48974 0.82644 0.86551 0.0
C302 C 0.45615 0.82479 0.88274 0.0
C303 C 0.41756 0.83762 0.8735 0.0
C304 C 0.41303 0.85112 0.84684 0.0
C305 C 0.44552 0.85245 0.82981 0.0
C306 C 0.43273 0.86708 0.80188 0.0
C307 C 0.46593 0.90807 0.79709 0.0
C308 C 0.42813 0.83189 0.77816 0.0
C309 C 0.38832 0.87493 0.80595 0.0
C310 C 0.3772 0.86533 0.83189 0.0
C311 C 0.33803 0.87128 0.84041 0.0
C312 C 0.31009 0.88832 0.82216 0.0
C313 C 0.32156 0.89917 0.79574 0.0
C314 C 0.36079 0.89144 0.78749 0.0
H315 H 0.9314 0.58518 0.13161 0.0
H316 H 0.98649 0.71713 0.16297 0.0
H317 H 0.91109 0.72656 0.16498 0.0
H318 H 0.84167 0.60422 0.08635 0.0
H319 H 0.80256 0.55602 0.09134 0.0
H320 H 0.86085 0.55826 0.09524 0.0
H321 H 0.85727 0.53485 0.14502 0.0
H322 H 0.79894 0.53276 0.1413 0.0
H323 H 0.83587 0.56488 0.17021 0.0
H324 H 0.82999 0.72253 0.16259 0.0
H325 H 0.74881 0.7079 0.15046 0.0
H326 H 0.74502 0.57986 0.1177 0.0
C327 C 0.92746 0.61586 0.13921 0.0
C328 C 0.96479 0.6504 0.14733 0.0
C329 C 0.95836 0.6903 0.15661 0.0
C330 C 0.91567 0.69587 0.15802 0.0
C331 C 0.87951 0.66138 0.14972 0.0
C332 C 0.88484 0.62226 0.14011 0.0
C333 C 0.8402 0.59158 0.13008 0.0
C334 C 0.83609 0.57666 0.0989 0.0
C335 C 0.83264 0.55378 0.14771 0.0
C336 C 0.8091 0.61973 0.13524 0.0
C337 C 0.8325 0.65957 0.14714 0.0
C338 C 0.81128 0.69138 0.15339 0.0
C339 C 0.76507 0.68268 0.14661 0.0
C340 C 0.74044 0.6427 0.1333 0.0
C341 C 0.7629 0.61067 0.12798 0.0
H342 H 0.27065 0.9003 0.50352 0.0
H343 H 0.3917 0.87316 0.48124 0.0
H344 H 0.35077 0.79978 0.46413 0.0
H345 H 0.22515 0.79637 0.52644 0.0
H346 H 0.169 0.79547 0.5126 0.0
H347 H 0.2083 0.84531 0.52433 0.0
H348 H 0.19248 0.87199 0.47599 0.0
H349 H 0.15316 0.82231 0.46413 0.0
H350 H 0.1986 0.84129 0.44505 0.0
H351 H 0.29542 0.73122 0.44581 0.0
H352 H 0.23021 0.67115 0.43012 0.0
H353 H 0.14583 0.74186 0.46589 0.0
C354 C 0.28853 0.87885 0.49513 0.0
C355 C 0.33439 0.89244 0.49374 0.0
C356 C 0.35669 0.86331 0.48281 0.0
C357 C 0.33369 0.82161 0.47293 0.0
C358 C 0.28843 0.80935 0.47436 0.0
C359 C 0.26614 0.83696 0.48543 0.0
C360 C 0.21732 0.81598 0.48418 0.0
C361 C 0.20418 0.81311 0.51365 0.0
C362 C 0.18872 0.83928 0.46627 0.0
C363 C 0.21546 0.77255 0.47017 0.0
C364 C 0.25682 0.76938 0.46463 0.0
C365 C 0.26299 0.73311 0.45039 0.0
C366 C 0.22587 0.69926 0.44151 0.0
C367 C 0.1833 0.70181 0.44714 0.0
C368 C 0.17821 0.73882 0.46185 0.0
H369 H 0.41306 0.33894 0.73954 0.0
H370 H 0.44203 0.3423 0.82941 0.0
H371 H 0.39774 0.26849 0.82708 0.0
H372 H 0.29967 0.2633 0.73056 0.0
H373 H 0.30995 0.2375 0.69887 0.0
H374 H 0.33453 0.29326 0.70821 0.0
H375 H 0.41236 0.28063 0.70475 0.0
H376 H 0.38812 0.22509 0.69548 0.0
H377 H 0.43083 0.24227 0.72506 0.0
H378 H 0.36336 0.19122 0.81426 0.0
H379 H 0.34349 0.11766 0.79206 0.0
H380 H 0.3369 0.16426 0.71052 0.0
C381 C 0.40915 0.3245 0.75881 0.0
C382 C 0.43084 0.34644 0.78465 0.0
C383 C 0.42504 0.32642 0.80941 0.0
C384 C 0.39998 0.28443 0.80828 0.0
C385 C 0.38055 0.2631 0.78229 0.0
C386 C 0.38455 0.28265 0.758 0.0
C387 C 0.36586 0.25148 0.73246 0.0
C388 C 0.32507 0.26202 0.71659 0.0
C389 C 0.40141 0.24977 0.71334 0.0
C390 C 0.35301 0.21088 0.74608 0.0
C391 C 0.36073 0.21829 0.77485 0.0
C392 C 0.35601 0.18511 0.79179 0.0
C393 C 0.34452 0.14339 0.779 0.0
C394 C 0.3384 0.13532 0.74957 0.0
C395 C 0.34108 0.16955 0.73306 0.0
H396 H 0.50949 0.94254 0.5116 0.0
H397 H 0.65141 0.98984 0.53495 0.0
H398 H 0.65895 0.91666 0.53721 0.0
H399 H 0.49559 0.85251 0.55455 0.0
H400 H 0.45507 0.817 0.52877 0.0
H401 H 0.46016 0.87323 0.53022 0.0
H402 H 0.47223 0.87221 0.47828 0.0
H403 H 0.46649 0.81583 0.47698 0.0
H404 H 0.51538 0.84979 0.46718 0.0
H405 H 0.65159 0.83511 0.53745 0.0
H406 H 0.63032 0.75646 0.53154 0.0
H407 H 0.49393 0.75977 0.50659 0.0
C408 C 0.5422 0.93767 0.51733 0.0
C409 C 0.57987 0.97337 0.52316 0.0
C410 C 0.62177 0.96421 0.53028 0.0
C411 C 0.62649 0.92221 0.53173 0.0
C412 C 0.58911 0.88806 0.52584 0.0
C413 C 0.54769 0.89532 0.51855 0.0
C414 C 0.51315 0.85261 0.51219 0.0
C415 C 0.47896 0.84861 0.53265 0.0
C416 C 0.49046 0.84729 0.48186 0.0
C417 C 0.54146 0.82051 0.51686 0.0
C418 C 0.58519 0.84162 0.52509 0.0
C419 C 0.61729 0.8186 0.53091 0.0
C420 C 0.60479 0.77344 0.52773 0.0
C421 C 0.56036 0.75049 0.51843 0.0
C422 C 0.52844 0.77529 0.5134 0.0
H423 H 0.77739 0.67425 0.86551 0.0
H424 H 0.7377 0.57863 0.79444 0.0
H425 H 0.81583 0.57899 0.79258 0.0
H426 H 0.87827 0.73309 0.84227 0.0
H427 H 0.90926 0.74403 0.8768 0.0
H428 H 0.8501 0.73731 0.87222 0.0
H429 H 0.84209 0.678 0.90549 0.0
H430 H 0.9012 0.68463 0.91022 0.0
H431 H 0.8649 0.63326 0.89833 0.0
H432 H 0.89883 0.58832 0.7989 0.0
H433 H 0.97953 0.60426 0.8143 0.0
H434 H 0.96592 0.69469 0.88051 0.0
C435 C 0.78511 0.65348 0.8495 0.0
C436 C 0.75105 0.6264 0.83014 0.0
C437 C 0.76287 0.59965 0.8096 0.0
C438 C 0.80733 0.59968 0.80828 0.0
C439 C 0.84001 0.62665 0.82761 0.0
C440 C 0.82951 0.65303 0.84788 0.0
C441 C 0.87104 0.6782 0.86655 0.0
C442 C 0.87754 0.72599 0.86432 0.0
C443 C 0.86972 0.66789 0.89694 0.0
C444 C 0.90632 0.66152 0.85379 0.0
C445 C 0.88779 0.632 0.83124 0.0
C446 C 0.91373 0.6116 0.81646 0.0
C447 C 0.95969 0.62109 0.82524 0.0
C448 C 0.97944 0.65065 0.84868 0.0
C449 C 0.95209 0.67151 0.86273 0.0
H450 H 0.31933 0.90217 0.20971 0.0
H451 H 0.34638 0.8677 0.12685 0.0
H452 H 0.41874 0.92063 0.13614 0.0
H453 H 0.36307 1.01177 0.21111 0.0
H454 H 0.38584 1.01926 0.2475 0.0
H455 H 0.33826 0.9764 0.23496 0.0
H456 H 0.37976 0.9227 0.25499 0.0
H457 H 0.42755 0.96546 0.26761 0.0
H458 H 0.43294 0.92145 0.24491 0.0
H459 H 0.48522 0.98223 0.15337 0.0
H460 H 0.54138 1.04473 0.17783 0.0
H461 H 0.46986 1.03729 0.2492 0.0
C462 C 0.34058 0.9056 0.19356 0.0
C463 C 0.32726 0.88105 0.16752 0.0
C464 C 0.35617 0.88604 0.14702 0.0
C465 C 0.3972 0.91608 0.15209 0.0
C466 C 0.40892 0.94038 0.17785 0.0
C467 C 0.38155 0.9351 0.19832 0.0
C468 C 0.40089 0.96598 0.22389 0.0
C469 C 0.37019 0.99507 0.22968 0.0
C470 C 0.41088 0.94248 0.24935 0.0
C471 C 0.44303 0.99019 0.21444 0.0
C472 C 0.44727 0.97499 0.18788 0.0
C473 C 0.48251 0.99401 0.17431 0.0
C474 C 0.51409 1.02953 0.18827 0.0
C475 C 0.51019 1.04544 0.2155 0.0
C476 C 0.4743 1.0252 0.22867 0.0
H477 H 0.53208 0.26023 0.55437 0.0
H478 H 0.6103 0.25636 0.48691 0.0
H479 H 0.61467 0.33216 0.48226 0.0
H480 H 0.47146 0.33648 0.52857 0.0
H481 H 0.47464 0.36435 0.5624 0.0
H482 H 0.4749 0.30904 0.55945 0.0
H483 H 0.5484 0.32598 0.59315 0.0
H484 H 0.54822 0.38127 0.59629 0.0
H485 H 0.59532 0.36522 0.58546 0.0
H486 H 0.60937 0.41123 0.48418 0.0
H487 H 0.60305 0.48443 0.49643 0.0
H488 H 0.53391 0.44081 0.56517 0.0
C489 C 0.54975 0.27515 0.5384 0.0
C490 C 0.57033 0.25103 0.5207 0.0
C491 C 0.59394 0.27308 0.5007 0.0
C492 C 0.59653 0.31657 0.49782 0.0
C493 C 0.57613 0.33931 0.51546 0.0
C494 C 0.55375 0.31941 0.53573 0.0
C495 C 0.53735 0.35204 0.55324 0.0
C496 C 0.48657 0.33973 0.55077 0.0
C497 C 0.55858 0.35638 0.58385 0.0
C498 C 0.55361 0.39306 0.53965 0.0
C499 C 0.57533 0.38487 0.51757 0.0
C500 C 0.59252 0.41763 0.50158 0.0
C501 C 0.58842 0.45949 0.50856 0.0
C502 C 0.56788 0.46962 0.53178 0.0
C503 C 0.54996 0.43508 0.54725 0.0
H504 H 0.47359 0.68775 0.81867 0.0
H505 H 0.4499 0.55719 0.83828 0.0
H506 H 0.37166 0.55602 0.84148 0.0
H507 H 0.40234 0.72281 0.86244 0.0
H508 H 0.38158 0.75444 0.83754 0.0
H509 H 0.43609 0.74585 0.83713 0.0
H510 H 0.41641 0.71674 0.78562 0.0
H511 H 0.36163 0.72503 0.7853 0.0
H512 H 0.36851 0.67323 0.77478 0.0
H513 H 0.29521 0.56933 0.84295 0.0
H514 H 0.22629 0.59417 0.83868 0.0
H515 H 0.29935 0.71539 0.81717 0.0
C516 C 0.45199 0.65892 0.8237 0.0
C517 C 0.46813 0.62256 0.82831 0.0
C518 C 0.43847 0.5854 0.83455 0.0
C519 C 0.39391 0.58448 0.83655 0.0
C520 C 0.37908 0.62081 0.83193 0.0
C521 C 0.40712 0.65719 0.82528 0.0
C522 C 0.3823 0.69119 0.81993 0.0
C523 C 0.40173 0.73091 0.84054 0.0
C524 C 0.38222 0.70217 0.78961 0.0
C525 C 0.33625 0.66862 0.82517 0.0
C526 C 0.33503 0.62807 0.83212 0.0
C527 C 0.29587 0.60107 0.83754 0.0
C528 C 0.25686 0.61559 0.83529 0.0
C529 C 0.25704 0.65672 0.82753 0.0
C530 C 0.2977 0.68359 0.82285 0.0
H531 H 0.85138 0.39656 0.14719 0.0
H532 H 0.91408 0.4281 0.23308 0.0
H533 H 0.84632 0.38653 0.24897 0.0
H534 H 0.74177 0.40216 0.16003 0.0
H535 H 0.71421 0.35846 0.13439 0.0
H536 H 0.76743 0.39112 0.12999 0.0
H537 H 0.79862 0.32444 0.12631 0.0
H538 H 0.74553 0.29159 0.13071 0.0
H539 H 0.79433 0.28996 0.15386 0.0
H540 H 0.77249 0.339 0.25519 0.0
H541 H 0.6969 0.29231 0.25137 0.0
H542 H 0.68287 0.29293 0.16141 0.0
C543 C 0.85088 0.3946 0.16934 0.0
C544 C 0.88796 0.41539 0.18893 0.0
C545 C 0.88585 0.41264 0.21776 0.0
C546 C 0.84764 0.38897 0.22695 0.0
C547 C 0.81176 0.36857 0.20705 0.0
C548 C 0.81296 0.37143 0.17886 0.0
C549 C 0.76994 0.34677 0.16173 0.0
C550 C 0.74699 0.3764 0.14559 0.0
C551 C 0.77758 0.31107 0.142 0.0
C552 C 0.74446 0.32921 0.18465 0.0
C553 C 0.76914 0.342 0.21066 0.0
C554 C 0.75279 0.32895 0.23495 0.0
C555 C 0.70998 0.30229 0.23258 0.0
C556 C 0.68402 0.28922 0.20612 0.0
C557 C 0.7017 0.30292 0.18194 0.0
H558 H 0.12599 0.58943 0.04924 0.0
H559 H 0.08062 0.69657 0.08135 0.0
H560 H 0.08239 0.72496 0.0356 0.0
H561 H 0.19787 0.64666 0.00127 0.0
H562 H 0.1823 0.60243 0.97468 0.0
H563 H 0.18341 0.59328 0.01095 0.0
H564 H 0.10165 0.54983 0.00098 0.0
H565 H 0.10037 0.5587 0.96477 0.0
H566 H 0.06021 0.57358 0.98444 0.0
H567 H 0.08094 0.73772 0.9858 0.0
H568 H 0.074 0.73272 0.93435 0.0
H569 H 0.12011 0.61765 0.93366 0.0
C570 C 0.11731 0.61929 0.04673 0.0
C571 C 0.10358 0.64108 0.06886 0.0
C572 C 0.09161 0.6796 0.06472 0.0
C573 C 0.09266 0.69605 0.03884 0.0
C574 C 0.10578 0.67359 0.01731 0.0
C575 C 0.11789 0.63603 0.02091 0.0
C576 C 0.12673 0.61627 -0.00636 0.0
C577 C 0.17548 0.61457 -0.00476 0.0
C578 C 0.09536 0.57199 0.98548 0.0
C579 C 0.11631 0.64787 0.97401 0.0
C580 C 0.10494 0.68102 0.98824 0.0
C581 C 0.09059 0.71242 0.97448 0.0
C582 C 0.08676 0.70938 0.94534 0.0
C583 C 0.09728 0.67526 0.93035 0.0
C584 C 0.11311 0.64463 0.94485 0.0
H585 H 0.53842 0.16037 0.42791 0.0
H586 H 0.61909 0.07325 0.44988 0.0
H587 H 0.64168 0.07325 0.40274 0.0
H588 H 0.49716 0.11491 0.36065 0.0
H589 H 0.49828 0.16401 0.34551 0.0
H590 H 0.49291 0.16099 0.38182 0.0
H591 H 0.56204 0.22395 0.39508 0.0
H592 H 0.56764 0.22716 0.3587 0.0
H593 H 0.61342 0.22106 0.3829 0.0
H594 H 0.64667 0.07494 0.35148 0.0
H595 H 0.63606 0.08058 0.30058 0.0
H596 H 0.55549 0.16944 0.31278 0.0
C597 C 0.56145 0.14188 0.42293 0.0
C598 C 0.57694 0.11668 0.44239 0.0
C599 C 0.60691 0.09279 0.4352 0.0
C600 C 0.61998 0.0927 0.40853 0.0
C601 C 0.60335 0.11724 0.38956 0.0
C602 C 0.57515 0.1418 0.39656 0.0
C603 C 0.55983 0.16333 0.37193 0.0
C604 C 0.50905 0.14999 0.36455 0.0
C605 C 0.57676 0.21175 0.37749 0.0
C606 C 0.58239 0.14576 0.34965 0.0
C607 C 0.60763 0.11945 0.36026 0.0
C608 C 0.628 0.0963 0.34308 0.0
C609 C 0.62185 0.09964 0.31428 0.0
C610 C 0.59591 0.12618 0.30312 0.0
C611 C 0.57669 0.15007 0.32107 0.0
H612 H 0.57423 0.59472 0.74429 0.0
H613 H 0.69527 0.69475 0.75325 0.0
H614 H 0.70003 0.68115 0.70313 0.0
H615 H 0.60766 0.52342 0.69422 0.0
H616 H 0.55281 0.50544 0.67491 0.0
H617 H 0.55984 0.52197 0.71171 0.0
H618 H 0.51292 0.57625 0.70199 0.0
H619 H 0.5057 0.5599 0.66521 0.0
H620 H 0.52869 0.61488 0.67786 0.0
H621 H 0.68892 0.66019 0.65178 0.0
H622 H 0.66353 0.63203 0.60242 0.0
H623 H 0.55156 0.54327 0.62684 0.0
C624 C 0.60194 0.61345 0.73574 0.0
C625 C 0.63441 0.64581 0.75258 0.0
C626 C 0.67004 0.66985 0.74066 0.0
C627 C 0.67307 0.66228 0.71226 0.0
C628 C 0.64044 0.63025 0.69618 0.0
C629 C 0.60569 0.60602 0.70748 0.0
C630 C 0.5745 0.57416 0.68545 0.0
C631 C 0.57367 0.52854 0.69197 0.0
C632 C 0.52769 0.58178 0.68245 0.0
C633 C 0.59665 0.58488 0.65986 0.0
C634 C 0.6347 0.6173 0.66658 0.0
C635 C 0.65956 0.63443 0.64631 0.0
C636 C 0.64492 0.61834 0.6184 0.0
C637 C 0.606 0.58531 0.61105 0.0
C638 C 0.5819 0.56799 0.63208 0.0
H639 H 0.51201 0.13434 0.58846 0.0
H640 H 0.59463 1.04885 0.61033 0.0
H641 H 0.54513 1.01983 0.64421 0.0
H642 H 0.48693 0.15758 0.65665 0.0
H643 H 0.43073 0.15894 0.64463 0.0
H644 H 0.47269 0.1722 0.62223 0.0
H645 H 0.42495 0.11502 0.58412 0.0
H646 H 0.3831 0.10062 0.6065 0.0
H647 H 0.40772 0.0609 0.59202 0.0
H648 H 0.4865 1.00122 0.67641 0.0
H649 H 0.42684 0.99782 0.70591 0.0
H650 H 0.38169 0.09363 0.66102 0.0
C651 C 0.51973 0.10954 0.60042 0.0
C652 C 0.55706 0.09378 0.59683 0.0
C653 C 0.56621 0.06146 0.61288 0.0
C654 C 0.53814 1.04461 0.63201 0.0
C655 C 0.50106 1.06038 0.63469 0.0
C656 C 0.49197 0.09225 0.61937 0.0
C657 C 0.4505 0.10421 0.62631 0.0
C658 C 0.46085 0.151 0.63816 0.0
C659 C 0.41444 0.09459 0.60071 0.0
C660 C 0.43808 0.07471 0.64836 0.0
C661 C 0.46733 1.04938 0.6528 0.0
C662 C 0.46322 1.0207 0.67295 0.0
C663 C 0.42904 1.01874 0.68947 0.0
C664 C 0.39961 1.04545 0.68578 0.0
C665 C 0.40379 0.07296 0.66446 0.0
H666 H 0.68058 0.61945 0.92147 0.0
H667 H 0.53935 0.56905 0.89761 0.0
H668 H 0.52906 0.56748 0.9474 0.0
H669 H 0.69406 0.56301 0.98247 0.0
H670 H 0.73296 0.60761 0.00266 0.0
H671 H 0.72949 0.60196 0.96522 0.0
H672 H 0.71533 0.67688 0.96329 0.0
H673 H 0.71893 0.68281 0.0007 0.0
H674 H 0.67032 0.68917 0.97933 0.0
H675 H 0.53464 0.57103 -0.00016 0.0
H676 H 0.55452 0.58447 0.05097 0.0
H677 H 0.69116 0.63931 0.04018 0.0
C678 C 0.64769 0.60767 0.92689 0.0
C679 C 0.61076 0.59378 0.90606 0.0
C680 C 0.56794 0.57946 0.91356 0.0
C681 C 0.56185 0.5784 0.94168 0.0
C682 C 0.59891 0.59245 0.96192 0.0
C683 C 0.64092 0.6073 0.9549 0.0
C684 C 0.67468 0.6232 0.98065 0.0
C685 C 0.70987 0.59739 0.98287 0.0
C686 C 0.69605 0.67084 0.98101 0.0
C687 C 0.64518 0.61466 0.00321 0.0
C688 C 0.60171 0.59652 -0.00797 0.0
C689 C 0.56857 0.58552 0.00885 0.0
C690 C 0.58016 0.59355 0.0379 0.0
C691 C 0.62445 0.61295 0.04988 0.0
C692 C 0.65716 0.62358 0.03203 0.0
H693 H 0.15271 0.62713 0.24169 0.0
H694 H 1.01787 0.63565 0.21805 0.0
H695 H 0.9995 0.61596 0.26424 0.0
H696 H 0.12806 0.54077 0.29042 0.0
H697 H 0.17666 0.5662 0.31476 0.0
H698 H 0.17668 0.57085 0.27795 0.0
H699 H 0.19878 0.65268 0.28782 0.0
H700 H 0.19853 0.64832 0.32451 0.0
H701 H 0.16473 0.67864 0.30667 0.0
H702 H 0.99857 0.60697 0.31436 0.0
H703 H 1.01556 0.61228 0.36546 0.0
H704 H 0.15186 0.6113 0.35813 0.0
C705 C 0.11898 0.62307 0.24602 0.0
C706 C 0.08635 0.63197 0.22639 0.0
C707 C 0.043 0.62836 0.23289 0.0
C708 C 1.03227 0.61703 0.25898 0.0
C709 C 0.06547 0.60988 0.27842 0.0
C710 C 0.108 0.6127 0.27231 0.0
C711 C 0.13896 0.60971 0.29818 0.0
C712 C 0.15609 0.56948 0.29514 0.0
C713 C 0.1775 0.64972 0.30467 0.0
C714 C 0.1077 0.60677 0.31992 0.0
C715 C 0.06525 0.60583 0.30793 0.0
C716 C 1.03142 0.60668 0.32396 0.0
C717 C 0.04139 0.6095 0.35305 0.0
C718 C 0.08499 0.61185 0.36593 0.0
C719 C 0.11819 0.6094 0.34896 0.0
loop_
_geom_bond_atom_site_label_1
_geom_bond_atom_site_label_2
_geom_bond_distance
_geom_bond_site_symmetry_2
_ccdc_geom_bond_type
Pr0 C2 2.880 1_455 S
Pr0 O20 2.562 1_455 S
Pr0 O21 2.490 1_455 S
Pr0 O22 2.695 . S
Pr0 O23 2.512 . S
Pr0 O25 2.437 1_455 S
Pr0 O28 2.436 . S
Pr0 O30 2.438 . S
Pr1 C11 2.880 . S
Pr1 O22 2.436 . S
Pr1 O24 2.438 1_455 S
Pr1 O26 2.562 . S
Pr1 O27 2.490 . S
Pr1 O28 2.695 . S
Pr1 O29 2.512 . S
Pr1 O31 2.437 . S
C2 Pr0 2.880 1_655 S
C2 C3 1.491 . S
C2 O20 1.254 . S
C2 O21 1.225 . S
C3 C2 1.491 . S
C3 C4 1.392 . S
C3 C8 1.356 . S
C4 C3 1.392 . S
C4 C5 1.368 . S
C4 H32 0.929 . S
C5 C4 1.368 . S
C5 C6 1.386 . S
C5 H33 0.929 . S
C6 C5 1.386 . S
C6 C7 1.373 . S
C7 C6 1.373 . S
C7 C8 1.409 . S
C7 H34 0.931 . S
C8 C3 1.356 . S
C8 C7 1.409 . S
C8 H35 0.930 . S
C9 O22 1.270 . S
C9 O23 1.248 . S
C10 O24 1.267 . S
C10 O25 1.278 . S
C11 Pr1 2.880 . S
C11 C12 1.491 . S
C11 O26 1.254 . S
C11 O27 1.225 . S
C12 C11 1.491 . S
C12 C13 1.392 . S
C12 C17 1.356 . S
C13 C12 1.392 . S
C13 C14 1.368 . S
C13 H36 0.929 . S
C14 C13 1.368 . S
C14 C15 1.386 . S
C14 H37 0.929 . S
C15 C14 1.386 . S
C15 C16 1.373 . S
C16 C15 1.373 . S
C16 C17 1.409 . S
C16 H38 0.931 . S
C17 C12 1.356 . S
C17 C16 1.409 . S
C17 H39 0.930 . S
C18 O28 1.270 . S
C18 O29 1.248 . S
C19 O30 1.267 . S
C19 O31 1.278 . S
O20 Pr0 2.562 1_655 S
O20 C2 1.254 . S
O21 Pr0 2.490 1_655 S
O21 C2 1.225 . S
O22 Pr0 2.695 . S
O22 Pr1 2.436 . S
O22 C9 1.270 . S
O23 Pr0 2.512 . S
O23 C9 1.248 . S
O24 Pr1 2.438 1_655 S
O24 C10 1.267 . S
O25 Pr0 2.437 1_655 S
O25 C10 1.278 . S
O26 Pr1 2.562 . S
O26 C11 1.254 . S
O27 Pr1 2.490 . S
O27 C11 1.225 . S
O28 Pr0 2.436 . S
O28 Pr1 2.695 . S
O28 C18 1.270 . S
O29 Pr1 2.512 . S
O29 C18 1.248 . S
O30 Pr0 2.438 . S
O30 C19 1.267 . S
O31 Pr1 2.437 . S
O31 C19 1.278 . S
H32 C4 0.929 . S
H33 C5 0.929 . S
H34 C7 0.931 . S
H35 C8 0.930 . S
H36 C13 0.929 . S
H37 C14 0.929 . S
H38 C16 0.931 . S
H39 C17 0.930 . S
Pr40 C42 2.880 . S
Pr40 O60 2.562 . S
Pr40 O61 2.490 . S
Pr40 O62 2.695 . S
Pr40 O63 2.512 . S
Pr40 O65 2.437 . S
Pr40 O68 2.436 . S
Pr40 O70 2.438 . S
Pr41 C51 2.880 1_545 S
Pr41 O62 2.436 . S
Pr41 O64 2.438 . S
Pr41 O66 2.562 1_545 S
Pr41 O67 2.490 1_545 S
Pr41 O68 2.695 . S
Pr41 O69 2.512 . S
Pr41 O71 2.437 1_545 S
C42 Pr40 2.880 . S
C42 C43 1.491 . S
C42 O60 1.254 . S
C42 O61 1.225 . S
C43 C42 1.491 . S
C43 C44 1.392 . S
C43 C48 1.356 . S
C44 C43 1.392 . S
C44 C45 1.368 . S
C44 H72 0.929 . S
C45 C44 1.368 . S
C45 C46 1.386 . S
C45 H73 0.929 . S
C46 C45 1.386 . S
C46 C47 1.373 . S
C47 C46 1.373 . S
C47 C48 1.409 . S
C47 H74 0.931 . S
C48 C43 1.356 . S
C48 C47 1.409 . S
C48 H75 0.930 . S
C49 O62 1.270 . S
C49 O63 1.248 . S
C50 O64 1.267 . S
C50 O65 1.278 . S
C51 Pr41 2.880 1_565 S
C51 C52 1.491 . S
C51 O66 1.254 . S
C51 O67 1.225 . S
C52 C51 1.491 . S
C52 C53 1.392 . S
C52 C57 1.356 . S
C53 C52 1.392 . S
C53 C54 1.368 . S
C53 H76 0.929 . S
C54 C53 1.368 . S
C54 C55 1.386 . S
C54 H77 0.929 . S
C55 C54 1.386 . S
C55 C56 1.373 . S
C56 C55 1.373 . S
C56 C57 1.409 . S
C56 H78 0.931 . S
C57 C52 1.356 . S
C57 C56 1.409 . S
C57 H79 0.930 . S
C58 O68 1.270 . S
C58 O69 1.248 . S
C59 O70 1.267 1_565 S
C59 O71 1.278 . S
O60 Pr40 2.562 . S
O60 C42 1.254 . S
O61 Pr40 2.490 . S
O61 C42 1.225 . S
O62 Pr40 2.695 . S
O62 Pr41 2.436 . S
O62 C49 1.270 . S
O63 Pr40 2.512 . S
O63 C49 1.248 . S
O64 Pr41 2.438 . S
O64 C50 1.267 . S
O65 Pr40 2.437 . S
O65 C50 1.278 . S
O66 Pr41 2.562 1_565 S
O66 C51 1.254 . S
O67 Pr41 2.490 1_565 S
O67 C51 1.225 . S
O68 Pr40 2.436 . S
O68 Pr41 2.695 . S
O68 C58 1.270 . S
O69 Pr41 2.512 . S
O69 C58 1.248 . S
O70 Pr40 2.438 . S
O70 C59 1.267 1_545 S
O71 Pr41 2.437 1_565 S
O71 C59 1.278 . S
H72 C44 0.929 . S
H73 C45 0.929 . S
H74 C47 0.931 . S
H75 C48 0.930 . S
H76 C53 0.929 . S
H77 C54 0.929 . S
H78 C56 0.931 . S
H79 C57 0.930 . S
Pr80 C82 2.880 . S
Pr80 O100 2.562 . S
Pr80 O101 2.490 . S
Pr80 O102 2.695 . S
Pr80 O103 2.512 . S
Pr80 O105 2.437 . S
Pr80 O108 2.436 . S
Pr80 O110 2.438 . S
Pr81 C91 2.880 . S
Pr81 O102 2.436 . S
Pr81 O104 2.438 . S
Pr81 O106 2.562 . S
Pr81 O107 2.490 . S
Pr81 O108 2.695 . S
Pr81 O109 2.512 . S
Pr81 O111 2.437 . S
C82 Pr80 2.880 . S
C82 C83 1.491 . S
C82 O100 1.254 . S
C82 O101 1.225 . S
C83 C82 1.491 . S
C83 C84 1.392 . S
C83 C88 1.356 . S
C84 C83 1.392 . S
C84 C85 1.368 . S
C84 H112 0.929 . S
C85 C84 1.368 . S
C85 C86 1.386 . S
C85 H113 0.929 . S
C86 C85 1.386 . S
C86 C87 1.373 . S
C87 C86 1.373 . S
C87 C88 1.409 . S
C87 H114 0.931 . S
C88 C83 1.356 . S
C88 C87 1.409 . S
C88 H115 0.930 . S
C89 O102 1.270 . S
C89 O103 1.248 . S
C90 O104 1.267 . S
C90 O105 1.278 . S
C91 Pr81 2.880 . S
C91 C92 1.491 . S
C91 O106 1.254 . S
C91 O107 1.225 . S
C92 C91 1.491 . S
C92 C93 1.392 . S
C92 C97 1.356 . S
C93 C92 1.392 . S
C93 C94 1.368 . S
C93 H116 0.929 . S
C94 C93 1.368 . S
C94 C95 1.386 . S
C94 H117 0.929 . S
C95 C94 1.386 . S
C95 C96 1.373 . S
C96 C95 1.373 . S
C96 C97 1.409 . S
C96 H118 0.931 . S
C97 C92 1.356 . S
C97 C96 1.409 . S
C97 H119 0.930 . S
C98 O108 1.270 . S
C98 O109 1.248 . S
C99 O110 1.267 . S
C99 O111 1.278 . S
O100 Pr80 2.562 . S
O100 C82 1.254 . S
O101 Pr80 2.490 . S
O101 C82 1.225 . S
O102 Pr80 2.695 . S
O102 Pr81 2.436 . S
O102 C89 1.270 . S
O103 Pr80 2.512 . S
O103 C89 1.248 . S
O104 Pr81 2.438 . S
O104 C90 1.267 . S
O105 Pr80 2.437 . S
O105 C90 1.278 . S
O106 Pr81 2.562 . S
O106 C91 1.254 . S
O107 Pr81 2.490 . S
O107 C91 1.225 . S
O108 Pr80 2.436 . S
O108 Pr81 2.695 . S
O108 C98 1.270 . S
O109 Pr81 2.512 . S
O109 C98 1.248 . S
O110 Pr80 2.438 . S
O110 C99 1.267 . S
O111 Pr81 2.437 . S
O111 C99 1.278 . S
H112 C84 0.929 . S
H113 C85 0.929 . S
H114 C87 0.931 . S
H115 C88 0.930 . S
H116 C93 0.929 . S
H117 C94 0.929 . S
H118 C96 0.931 . S
H119 C97 0.930 . S
H120 C121 0.949 . S
C121 H120 0.949 . S
C121 C122 1.395 . S
C121 C123 1.391 . S
C122 C121 1.395 . S
C122 C125 1.390 . S
C123 C121 1.391 . S
C123 C127 1.387 . S
C123 C128 1.491 . S
H124 C125 0.950 . S
C125 C122 1.390 . S
C125 H124 0.950 . S
C125 C126 1.378 . S
C126 C125 1.378 . S
C126 C127 1.409 . S
C127 C123 1.387 . S
C127 C126 1.409 . S
C127 H129 0.951 . S
C128 C123 1.491 . S
C128 C130 1.382 . S
C128 C132 1.404 . S
H129 C127 0.951 . S
C130 C128 1.382 . S
C130 C131 1.390 . S
C130 H135 0.949 . S
C131 C130 1.390 . S
C131 C136 1.399 . S
C132 C128 1.404 . S
C132 H133 0.950 . S
C132 C134 1.375 . S
H133 C132 0.950 . S
C134 C132 1.375 . S
C134 C136 1.382 . S
C134 H138 0.950 . S
H135 C130 0.949 . S
C136 C131 1.399 . S
C136 C134 1.382 . S
C136 H137 0.952 . S
H137 C136 0.952 . S
H138 C134 0.950 . S
H139 C140 0.949 . S
C140 H139 0.949 . S
C140 C141 1.395 . S
C140 C142 1.391 . S
C141 C140 1.395 . S
C141 C144 1.390 . S
C142 C140 1.391 . S
C142 C146 1.387 . S
C142 C147 1.491 . S
H143 C144 0.950 . S
C144 C141 1.390 . S
C144 H143 0.950 . S
C144 C145 1.378 . S
C145 C144 1.378 . S
C145 C146 1.409 . S
C146 C142 1.387 . S
C146 C145 1.409 . S
C146 H148 0.951 . S
C147 C142 1.491 . S
C147 C149 1.382 . S
C147 C151 1.404 . S
H148 C146 0.951 . S
C149 C147 1.382 . S
C149 C150 1.390 . S
C149 H154 0.949 . S
C150 C149 1.390 . S
C150 C155 1.399 . S
C151 C147 1.404 . S
C151 H152 0.950 . S
C151 C153 1.375 . S
H152 C151 0.950 . S
C153 C151 1.375 . S
C153 C155 1.382 . S
C153 H157 0.950 . S
H154 C149 0.949 . S
C155 C150 1.399 . S
C155 C153 1.382 . S
C155 H156 0.952 . S
H156 C155 0.952 . S
H157 C153 0.950 . S
H158 C159 0.949 . S
C159 H158 0.949 . S
C159 C160 1.395 . S
C159 C161 1.391 . S
C160 C159 1.395 . S
C160 C163 1.390 1_455 S
C161 C159 1.391 . S
C161 C165 1.387 . S
C161 C166 1.491 . S
H162 C163 0.950 . S
C163 C160 1.390 1_655 S
C163 H162 0.950 . S
C163 C164 1.378 . S
C164 C163 1.378 . S
C164 C165 1.409 1_655 S
C165 C161 1.387 . S
C165 C164 1.409 1_455 S
C165 H167 0.951 . S
C166 C161 1.491 . S
C166 C168 1.382 . S
C166 C170 1.404 . S
H167 C165 0.951 . S
C168 C166 1.382 . S
C168 C169 1.390 . S
C168 H173 0.949 . S
C169 C168 1.390 . S
C169 C174 1.399 . S
C170 C166 1.404 . S
C170 H171 0.950 . S
C170 C172 1.375 . S
H171 C170 0.950 . S
C172 C170 1.375 . S
C172 C174 1.382 . S
C172 H176 0.950 . S
H173 C168 0.949 . S
C174 C169 1.399 . S
C174 C172 1.382 . S
C174 H175 0.952 . S
H175 C174 0.952 . S
H176 C172 0.950 . S
H177 C178 0.953 . S
C178 H177 0.953 . S
C178 C179 1.390 1_655 S
C178 C180 1.392 1_655 S
C179 C178 1.390 1_455 S
C179 C182 1.390 . S
C180 C178 1.392 1_455 S
C180 C184 1.387 . S
C180 C185 1.491 1_455 S
H181 C182 0.950 . S
C182 C179 1.390 . S
C182 H181 0.950 . S
C182 C183 1.378 . S
C183 C182 1.378 . S
C183 C184 1.409 . S
C184 C180 1.387 . S
C184 C183 1.409 . S
C184 H186 0.951 . S
C185 C180 1.491 1_655 S
C185 C187 1.382 . S
C185 C189 1.404 . S
H186 C184 0.951 . S
C187 C185 1.382 . S
C187 C188 1.390 . S
C187 H192 0.949 . S
C188 C187 1.390 . S
C188 C193 1.399 . S
C189 C185 1.404 . S
C189 H190 0.950 . S
C189 C191 1.375 . S
H190 C189 0.950 . S
C191 C189 1.375 . S
C191 C193 1.382 . S
C191 H195 0.950 . S
H192 C187 0.949 . S
C193 C188 1.399 . S
C193 C191 1.382 . S
C193 H194 0.952 . S
H194 C193 0.952 . S
H195 C191 0.950 . S
H196 C197 0.949 1_565 S
C197 H196 0.949 1_545 S
C197 C198 1.395 . S
C197 C199 1.391 . S
C198 C197 1.395 . S
C198 C201 1.390 . S
C199 C197 1.391 . S
C199 C203 1.387 . S
C199 C204 1.491 1_545 S
H200 C201 0.950 . S
C201 C198 1.390 . S
C201 H200 0.950 . S
C201 C202 1.378 . S
C202 C201 1.378 . S
C202 C203 1.409 . S
C203 C199 1.387 . S
C203 C202 1.409 . S
C203 H205 0.951 . S
C204 C199 1.491 1_565 S
C204 C206 1.382 . S
C204 C208 1.404 . S
H205 C203 0.951 . S
C206 C204 1.382 . S
C206 C207 1.390 . S
C206 H211 0.949 . S
C207 C206 1.390 . S
C207 C212 1.399 . S
C208 C204 1.404 . S
C208 H209 0.950 1_565 S
C208 C210 1.375 . S
H209 C208 0.950 1_545 S
C210 C208 1.375 . S
C210 C212 1.382 . S
C210 H214 0.950 . S
H211 C206 0.949 . S
C212 C207 1.399 . S
C212 C210 1.382 . S
C212 H213 0.952 . S
H213 C212 0.952 . S
H214 C210 0.950 . S
H215 C216 0.949 . S
C216 H215 0.949 . S
C216 C217 1.395 . S
C216 C218 1.391 . S
C217 C216 1.395 . S
C217 C220 1.390 . S
C218 C216 1.391 . S
C218 C222 1.387 . S
C218 C223 1.491 . S
H219 C220 0.950 . S
C220 C217 1.390 . S
C220 H219 0.950 . S
C220 C221 1.378 . S
C221 C220 1.378 . S
C221 C222 1.409 . S
C222 C218 1.387 . S
C222 C221 1.409 . S
C222 H224 0.951 . S
C223 C218 1.491 . S
C223 C225 1.382 . S
C223 C227 1.404 . S
H224 C222 0.951 . S
C225 C223 1.382 . S
C225 C226 1.390 . S
C225 H230 0.949 . S
C226 C225 1.390 . S
C226 C231 1.399 . S
C227 C223 1.404 . S
C227 H228 0.950 . S
C227 C229 1.375 . S
H228 C227 0.950 . S
C229 C227 1.375 . S
C229 C231 1.382 . S
C229 H233 0.950 . S
H230 C225 0.949 . S
C231 C226 1.399 . S
C231 C229 1.382 . S
C231 H232 0.952 . S
H232 C231 0.952 . S
H233 C229 0.950 . S
H234 C246 0.930 . S
H235 C248 0.930 . S
H236 C249 0.930 . S
H237 C253 0.959 . S
H238 C253 0.959 . S
H239 C253 0.961 . S
H240 C254 0.960 . S
H241 C254 0.961 . S
H242 C254 0.959 . S
H243 C257 0.929 . S
H244 C258 0.931 . S
H245 C260 0.930 . S
C246 H234 0.930 . S
C246 C247 1.399 . S
C246 C251 1.399 . S
C247 C246 1.399 . S
C247 C248 1.376 . S
C248 H235 0.930 . S
C248 C247 1.376 . S
C248 C249 1.388 . S
C249 H236 0.930 . S
C249 C248 1.388 . S
C249 C250 1.390 . S
C250 C249 1.390 . S
C250 C251 1.394 . S
C250 C256 1.465 . S
C251 C246 1.399 . S
C251 C250 1.394 . S
C251 C252 1.516 . S
C252 C251 1.516 . S
C252 C253 1.502 . S
C252 C254 1.561 . S
C252 C255 1.526 . S
C253 H237 0.959 . S
C253 H238 0.959 . S
C253 H239 0.961 . S
C253 C252 1.502 . S
C254 H240 0.960 . S
C254 H241 0.961 . S
C254 H242 0.959 . S
C254 C252 1.561 . S
C255 C252 1.526 . S
C255 C256 1.396 . S
C255 C260 1.390 . S
C256 C250 1.465 . S
C256 C255 1.396 . S
C256 C257 1.399 . S
C257 H243 0.929 . S
C257 C256 1.399 . S
C257 C258 1.385 . S
C258 H244 0.931 . S
C258 C257 1.385 . S
C258 C259 1.389 . S
C259 C258 1.389 . S
C259 C260 1.387 . S
C260 H245 0.930 . S
C260 C255 1.390 . S
C260 C259 1.387 . S
H261 C273 0.930 . S
H262 C275 0.930 . S
H263 C276 0.930 . S
H264 C280 0.959 . S
H265 C280 0.959 . S
H266 C280 0.961 . S
H267 C281 0.960 . S
H268 C281 0.961 . S
H269 C281 0.959 . S
H270 C284 0.929 . S
H271 C285 0.931 . S
H272 C287 0.930 . S
C273 H261 0.930 . S
C273 C274 1.399 . S
C273 C278 1.399 . S
C274 C273 1.399 . S
C274 C275 1.376 . S
C275 H262 0.930 . S
C275 C274 1.376 . S
C275 C276 1.388 . S
C276 H263 0.930 . S
C276 C275 1.388 . S
C276 C277 1.390 . S
C277 C276 1.390 . S
C277 C278 1.394 . S
C277 C283 1.465 . S
C278 C273 1.399 . S
C278 C277 1.394 . S
C278 C279 1.516 . S
C279 C278 1.516 . S
C279 C280 1.502 . S
C279 C281 1.561 . S
C279 C282 1.526 . S
C280 H264 0.959 . S
C280 H265 0.959 . S
C280 H266 0.961 . S
C280 C279 1.502 . S
C281 H267 0.960 . S
C281 H268 0.961 . S
C281 H269 0.959 . S
C281 C279 1.561 . S
C282 C279 1.526 . S
C282 C283 1.396 . S
C282 C287 1.390 . S
C283 C277 1.465 . S
C283 C282 1.396 . S
C283 C284 1.399 . S
C284 H270 0.929 . S
C284 C283 1.399 . S
C284 C285 1.385 . S
C285 H271 0.931 . S
C285 C284 1.385 . S
C285 C286 1.389 . S
C286 C285 1.389 . S
C286 C287 1.387 . S
C287 H272 0.930 . S
C287 C282 1.390 . S
C287 C286 1.387 . S
H288 C300 0.930 . S
H289 C302 0.930 . S
H290 C303 0.930 . S
H291 C307 0.959 . S
H292 C307 0.959 . S
H293 C307 0.961 . S
H294 C308 0.960 . S
H295 C308 0.961 . S
H296 C308 0.959 . S
H297 C311 0.929 . S
H298 C312 0.931 . S
H299 C314 0.930 . S
C300 H288 0.930 . S
C300 C301 1.399 . S
C300 C305 1.399 . S
C301 C300 1.399 . S
C301 C302 1.376 . S
C302 H289 0.930 . S
C302 C301 1.376 . S
C302 C303 1.388 . S
C303 H290 0.930 . S
C303 C302 1.388 . S
C303 C304 1.390 . S
C304 C303 1.390 . S
C304 C305 1.394 . S
C304 C310 1.465 . S
C305 C300 1.399 . S
C305 C304 1.394 . S
C305 C306 1.516 . S
C306 C305 1.516 . S
C306 C307 1.502 . S
C306 C308 1.561 . S
C306 C309 1.526 . S
C307 H291 0.959 . S
C307 H292 0.959 . S
C307 H293 0.961 . S
C307 C306 1.502 . S
C308 H294 0.960 . S
C308 H295 0.961 . S
C308 H296 0.959 . S
C308 C306 1.561 . S
C309 C306 1.526 . S
C309 C310 1.396 . S
C309 C314 1.390 . S
C310 C304 1.465 . S
C310 C309 1.396 . S
C310 C311 1.399 . S
C311 H297 0.929 . S
C311 C310 1.399 . S
C311 C312 1.385 . S
C312 H298 0.931 . S
C312 C311 1.385 . S
C312 C313 1.389 . S
C313 C312 1.389 . S
C313 C314 1.387 . S
C314 H299 0.930 . S
C314 C309 1.390 . S
C314 C313 1.387 . S
H315 C327 0.930 . S
H316 C329 0.930 . S
H317 C330 0.930 . S
H318 C334 0.959 . S
H319 C334 0.959 . S
H320 C334 0.961 . S
H321 C335 0.960 . S
H322 C335 0.961 . S
H323 C335 0.959 . S
H324 C338 0.929 . S
H325 C339 0.931 . S
H326 C341 0.930 . S
C327 H315 0.930 . S
C327 C328 1.399 . S
C327 C332 1.399 . S
C328 C327 1.399 . S
C328 C329 1.376 . S
C329 H316 0.930 . S
C329 C328 1.376 . S
C329 C330 1.388 . S
C330 H317 0.930 . S
C330 C329 1.388 . S
C330 C331 1.390 . S
C331 C330 1.390 . S
C331 C332 1.394 . S
C331 C337 1.465 . S
C332 C327 1.399 . S
C332 C331 1.394 . S
C332 C333 1.516 . S
C333 C332 1.516 . S
C333 C334 1.502 . S
C333 C335 1.561 . S
C333 C336 1.526 . S
C334 H318 0.959 . S
C334 H319 0.959 . S
C334 H320 0.961 . S
C334 C333 1.502 . S
C335 H321 0.960 . S
C335 H322 0.961 . S
C335 H323 0.959 . S
C335 C333 1.561 . S
C336 C333 1.526 . S
C336 C337 1.396 . S
C336 C341 1.390 . S
C337 C331 1.465 . S
C337 C336 1.396 . S
C337 C338 1.399 . S
C338 H324 0.929 . S
C338 C337 1.399 . S
C338 C339 1.385 . S
C339 H325 0.931 . S
C339 C338 1.385 . S
C339 C340 1.389 . S
C340 C339 1.389 . S
C340 C341 1.387 . S
C341 H326 0.930 . S
C341 C336 1.390 . S
C341 C340 1.387 . S
H342 C354 0.930 . S
H343 C356 0.930 . S
H344 C357 0.930 . S
H345 C361 0.959 . S
H346 C361 0.959 . S
H347 C361 0.961 . S
H348 C362 0.960 . S
H349 C362 0.961 . S
H350 C362 0.959 . S
H351 C365 0.929 . S
H352 C366 0.931 . S
H353 C368 0.930 . S
C354 H342 0.930 . S
C354 C355 1.399 . S
C354 C359 1.399 . S
C355 C354 1.399 . S
C355 C356 1.376 . S
C356 H343 0.930 . S
C356 C355 1.376 . S
C356 C357 1.388 . S
C357 H344 0.930 . S
C357 C356 1.388 . S
C357 C358 1.390 . S
C358 C357 1.390 . S
C358 C359 1.394 . S
C358 C364 1.465 . S
C359 C354 1.399 . S
C359 C358 1.394 . S
C359 C360 1.516 . S
C360 C359 1.516 . S
C360 C361 1.502 . S
C360 C362 1.561 . S
C360 C363 1.526 . S
C361 H345 0.959 . S
C361 H346 0.959 . S
C361 H347 0.961 . S
C361 C360 1.502 . S
C362 H348 0.960 . S
C362 H349 0.961 . S
C362 H350 0.959 . S
C362 C360 1.561 . S
C363 C360 1.526 . S
C363 C364 1.396 . S
C363 C368 1.390 . S
C364 C358 1.465 . S
C364 C363 1.396 . S
C364 C365 1.399 . S
C365 H351 0.929 . S
C365 C364 1.399 . S
C365 C366 1.385 . S
C366 H352 0.931 . S
C366 C365 1.385 . S
C366 C367 1.389 . S
C367 C366 1.389 . S
C367 C368 1.387 . S
C368 H353 0.930 . S
C368 C363 1.390 . S
C368 C367 1.387 . S
H369 C381 0.930 . S
H370 C383 0.930 . S
H371 C384 0.930 . S
H372 C388 0.959 . S
H373 C388 0.959 . S
H374 C388 0.961 . S
H375 C389 0.960 . S
H376 C389 0.961 . S
H377 C389 0.959 . S
H378 C392 0.929 . S
H379 C393 0.931 . S
H380 C395 0.930 . S
C381 H369 0.930 . S
C381 C382 1.399 . S
C381 C386 1.399 . S
C382 C381 1.399 . S
C382 C383 1.376 . S
C383 H370 0.930 . S
C383 C382 1.376 . S
C383 C384 1.388 . S
C384 H371 0.930 . S
C384 C383 1.388 . S
C384 C385 1.390 . S
C385 C384 1.390 . S
C385 C386 1.394 . S
C385 C391 1.465 . S
C386 C381 1.399 . S
C386 C385 1.394 . S
C386 C387 1.516 . S
C387 C386 1.516 . S
C387 C388 1.502 . S
C387 C389 1.561 . S
C387 C390 1.526 . S
C388 H372 0.959 . S
C388 H373 0.959 . S
C388 H374 0.961 . S
C388 C387 1.502 . S
C389 H375 0.960 . S
C389 H376 0.961 . S
C389 H377 0.959 . S
C389 C387 1.561 . S
C390 C387 1.526 . S
C390 C391 1.396 . S
C390 C395 1.390 . S
C391 C385 1.465 . S
C391 C390 1.396 . S
C391 C392 1.399 . S
C392 H378 0.929 . S
C392 C391 1.399 . S
C392 C393 1.385 . S
C393 H379 0.931 . S
C393 C392 1.385 . S
C393 C394 1.389 . S
C394 C393 1.389 . S
C394 C395 1.387 . S
C395 H380 0.930 . S
C395 C390 1.390 . S
C395 C394 1.387 . S
H396 C408 0.930 . S
H397 C410 0.930 . S
H398 C411 0.930 . S
H399 C415 0.959 . S
H400 C415 0.959 . S
H401 C415 0.961 . S
H402 C416 0.960 . S
H403 C416 0.961 . S
H404 C416 0.959 . S
H405 C419 0.929 . S
H406 C420 0.931 . S
H407 C422 0.930 . S
C408 H396 0.930 . S
C408 C409 1.399 . S
C408 C413 1.399 . S
C409 C408 1.399 . S
C409 C410 1.376 . S
C410 H397 0.930 . S
C410 C409 1.376 . S
C410 C411 1.388 . S
C411 H398 0.930 . S
C411 C410 1.388 . S
C411 C412 1.390 . S
C412 C411 1.390 . S
C412 C413 1.394 . S
C412 C418 1.465 . S
C413 C408 1.399 . S
C413 C412 1.394 . S
C413 C414 1.516 . S
C414 C413 1.516 . S
C414 C415 1.502 . S
C414 C416 1.561 . S
C414 C417 1.526 . S
C415 H399 0.959 . S
C415 H400 0.959 . S
C415 H401 0.961 . S
C415 C414 1.502 . S
C416 H402 0.960 . S
C416 H403 0.961 . S
C416 H404 0.959 . S
C416 C414 1.561 . S
C417 C414 1.526 . S
C417 C418 1.396 . S
C417 C422 1.390 . S
C418 C412 1.465 . S
C418 C417 1.396 . S
C418 C419 1.399 . S
C419 H405 0.929 . S
C419 C418 1.399 . S
C419 C420 1.385 . S
C420 H406 0.931 . S
C420 C419 1.385 . S
C420 C421 1.389 . S
C421 C420 1.389 . S
C421 C422 1.387 . S
C422 H407 0.930 . S
C422 C417 1.390 . S
C422 C421 1.387 . S
H423 C435 0.930 . S
H424 C437 0.930 . S
H425 C438 0.930 . S
H426 C442 0.959 . S
H427 C442 0.959 . S
H428 C442 0.961 . S
H429 C443 0.960 . S
H430 C443 0.961 . S
H431 C443 0.959 . S
H432 C446 0.929 . S
H433 C447 0.931 . S
H434 C449 0.930 . S
C435 H423 0.930 . S
C435 C436 1.399 . S
C435 C440 1.399 . S
C436 C435 1.399 . S
C436 C437 1.376 . S
C437 H424 0.930 . S
C437 C436 1.376 . S
C437 C438 1.388 . S
C438 H425 0.930 . S
C438 C437 1.388 . S
C438 C439 1.390 . S
C439 C438 1.390 . S
C439 C440 1.394 . S
C439 C445 1.465 . S
C440 C435 1.399 . S
C440 C439 1.394 . S
C440 C441 1.516 . S
C441 C440 1.516 . S
C441 C442 1.502 . S
C441 C443 1.561 . S
C441 C444 1.526 . S
C442 H426 0.959 . S
C442 H427 0.959 . S
C442 H428 0.961 . S
C442 C441 1.502 . S
C443 H429 0.960 . S
C443 H430 0.961 . S
C443 H431 0.959 . S
C443 C441 1.561 . S
C444 C441 1.526 . S
C444 C445 1.396 . S
C444 C449 1.390 . S
C445 C439 1.465 . S
C445 C444 1.396 . S
C445 C446 1.399 . S
C446 H432 0.929 . S
C446 C445 1.399 . S
C446 C447 1.385 . S
C447 H433 0.931 . S
C447 C446 1.385 . S
C447 C448 1.389 . S
C448 C447 1.389 . S
C448 C449 1.387 . S
C449 H434 0.930 . S
C449 C444 1.390 . S
C449 C448 1.387 . S
H450 C462 0.930 . S
H451 C464 0.930 . S
H452 C465 0.930 . S
H453 C469 0.959 . S
H454 C469 0.959 . S
H455 C469 0.961 . S
H456 C470 0.960 . S
H457 C470 0.961 . S
H458 C470 0.959 . S
H459 C473 0.929 . S
H460 C474 0.931 . S
H461 C476 0.930 . S
C462 H450 0.930 . S
C462 C463 1.399 . S
C462 C467 1.399 . S
C463 C462 1.399 . S
C463 C464 1.376 . S
C464 H451 0.930 . S
C464 C463 1.376 . S
C464 C465 1.388 . S
C465 H452 0.930 . S
C465 C464 1.388 . S
C465 C466 1.390 . S
C466 C465 1.390 . S
C466 C467 1.394 . S
C466 C472 1.465 . S
C467 C462 1.399 . S
C467 C466 1.394 . S
C467 C468 1.516 . S
C468 C467 1.516 . S
C468 C469 1.502 . S
C468 C470 1.561 . S
C468 C471 1.526 . S
C469 H453 0.959 . S
C469 H454 0.959 . S
C469 H455 0.961 . S
C469 C468 1.502 . S
C470 H456 0.960 . S
C470 H457 0.961 . S
C470 H458 0.959 . S
C470 C468 1.561 . S
C471 C468 1.526 . S
C471 C472 1.396 . S
C471 C476 1.390 . S
C472 C466 1.465 . S
C472 C471 1.396 . S
C472 C473 1.399 . S
C473 H459 0.929 . S
C473 C472 1.399 . S
C473 C474 1.385 . S
C474 H460 0.931 . S
C474 C473 1.385 . S
C474 C475 1.389 . S
C475 C474 1.389 . S
C475 C476 1.387 . S
C476 H461 0.930 . S
C476 C471 1.390 . S
C476 C475 1.387 . S
H477 C489 0.930 . S
H478 C491 0.930 . S
H479 C492 0.930 . S
H480 C496 0.959 . S
H481 C496 0.959 . S
H482 C496 0.961 . S
H483 C497 0.960 . S
H484 C497 0.961 . S
H485 C497 0.959 . S
H486 C500 0.929 . S
H487 C501 0.931 . S
H488 C503 0.930 . S
C489 H477 0.930 . S
C489 C490 1.399 . S
C489 C494 1.399 . S
C490 C489 1.399 . S
C490 C491 1.376 . S
C491 H478 0.930 . S
C491 C490 1.376 . S
C491 C492 1.388 . S
C492 H479 0.930 . S
C492 C491 1.388 . S
C492 C493 1.390 . S
C493 C492 1.390 . S
C493 C494 1.394 . S
C493 C499 1.465 . S
C494 C489 1.399 . S
C494 C493 1.394 . S
C494 C495 1.516 . S
C495 C494 1.516 . S
C495 C496 1.502 . S
C495 C497 1.561 . S
C495 C498 1.526 . S
C496 H480 0.959 . S
C496 H481 0.959 . S
C496 H482 0.961 . S
C496 C495 1.502 . S
C497 H483 0.960 . S
C497 H484 0.961 . S
C497 H485 0.959 . S
C497 C495 1.561 . S
C498 C495 1.526 . S
C498 C499 1.396 . S
C498 C503 1.390 . S
C499 C493 1.465 . S
C499 C498 1.396 . S
C499 C500 1.399 . S
C500 H486 0.929 . S
C500 C499 1.399 . S
C500 C501 1.385 . S
C501 H487 0.931 . S
C501 C500 1.385 . S
C501 C502 1.389 . S
C502 C501 1.389 . S
C502 C503 1.387 . S
C503 H488 0.930 . S
C503 C498 1.390 . S
C503 C502 1.387 . S
H504 C516 0.930 . S
H505 C518 0.930 . S
H506 C519 0.930 . S
H507 C523 0.959 . S
H508 C523 0.959 . S
H509 C523 0.961 . S
H510 C524 0.960 . S
H511 C524 0.961 . S
H512 C524 0.959 . S
H513 C527 0.929 . S
H514 C528 0.931 . S
H515 C530 0.930 . S
C516 H504 0.930 . S
C516 C517 1.399 . S
C516 C521 1.399 . S
C517 C516 1.399 . S
C517 C518 1.376 . S
C518 H505 0.930 . S
C518 C517 1.376 . S
C518 C519 1.388 . S
C519 H506 0.930 . S
C519 C518 1.388 . S
C519 C520 1.390 . S
C520 C519 1.390 . S
C520 C521 1.394 . S
C520 C526 1.465 . S
C521 C516 1.399 . S
C521 C520 1.394 . S
C521 C522 1.516 . S
C522 C521 1.516 . S
C522 C523 1.502 . S
C522 C524 1.561 . S
C522 C525 1.526 . S
C523 H507 0.959 . S
C523 H508 0.959 . S
C523 H509 0.961 . S
C523 C522 1.502 . S
C524 H510 0.960 . S
C524 H511 0.961 . S
C524 H512 0.959 . S
C524 C522 1.561 . S
C525 C522 1.526 . S
C525 C526 1.396 . S
C525 C530 1.390 . S
C526 C520 1.465 . S
C526 C525 1.396 . S
C526 C527 1.399 . S
C527 H513 0.929 . S
C527 C526 1.399 . S
C527 C528 1.385 . S
C528 H514 0.931 . S
C528 C527 1.385 . S
C528 C529 1.389 . S
C529 C528 1.389 . S
C529 C530 1.387 . S
C530 H515 0.930 . S
C530 C525 1.390 . S
C530 C529 1.387 . S
H531 C543 0.930 . S
H532 C545 0.930 . S
H533 C546 0.930 . S
H534 C550 0.959 . S
H535 C550 0.959 . S
H536 C550 0.961 . S
H537 C551 0.960 . S
H538 C551 0.961 . S
H539 C551 0.959 . S
H540 C554 0.929 . S
H541 C555 0.931 . S
H542 C557 0.930 . S
C543 H531 0.930 . S
C543 C544 1.399 . S
C543 C548 1.399 . S
C544 C543 1.399 . S
C544 C545 1.376 . S
C545 H532 0.930 . S
C545 C544 1.376 . S
C545 C546 1.388 . S
C546 H533 0.930 . S
C546 C545 1.388 . S
C546 C547 1.390 . S
C547 C546 1.390 . S
C547 C548 1.394 . S
C547 C553 1.465 . S
C548 C543 1.399 . S
C548 C547 1.394 . S
C548 C549 1.516 . S
C549 C548 1.516 . S
C549 C550 1.502 . S
C549 C551 1.561 . S
C549 C552 1.526 . S
C550 H534 0.959 . S
C550 H535 0.959 . S
C550 H536 0.961 . S
C550 C549 1.502 . S
C551 H537 0.960 . S
C551 H538 0.961 . S
C551 H539 0.959 . S
C551 C549 1.561 . S
C552 C549 1.526 . S
C552 C553 1.396 . S
C552 C557 1.390 . S
C553 C547 1.465 . S
C553 C552 1.396 . S
C553 C554 1.399 . S
C554 H540 0.929 . S
C554 C553 1.399 . S
C554 C555 1.385 . S
C555 H541 0.931 . S
C555 C554 1.385 . S
C555 C556 1.389 . S
C556 C555 1.389 . S
C556 C557 1.387 . S
C557 H542 0.930 . S
C557 C552 1.390 . S
C557 C556 1.387 . S
H558 C570 0.930 . S
H559 C572 0.930 . S
H560 C573 0.930 . S
H561 C577 0.959 . S
H562 C577 0.959 . S
H563 C577 0.961 . S
H564 C578 0.960 . S
H565 C578 0.961 1_556 S
H566 C578 0.959 1_556 S
H567 C581 0.929 . S
H568 C582 0.931 . S
H569 C584 0.930 . S
C570 H558 0.930 . S
C570 C571 1.399 . S
C570 C575 1.399 . S
C571 C570 1.399 . S
C571 C572 1.376 . S
C572 H559 0.930 . S
C572 C571 1.376 . S
C572 C573 1.388 . S
C573 H560 0.930 . S
C573 C572 1.388 . S
C573 C574 1.390 . S
C574 C573 1.390 . S
C574 C575 1.394 . S
C574 C580 1.465 1_554 S
C575 C570 1.399 . S
C575 C574 1.394 . S
C575 C576 1.516 . S
C576 C575 1.516 . S
C576 C577 1.502 . S
C576 C578 1.561 1_455 S
C576 C579 1.526 1_554 S
C577 H561 0.959 . S
C577 H562 0.959 . S
C577 H563 0.961 . S
C577 C576 1.502 . S
C578 H564 0.960 . S
C578 H565 0.961 1_554 S
C578 H566 0.959 1_554 S
C578 C576 1.561 1_655 S
C579 C576 1.526 1_556 S
C579 C580 1.396 . S
C579 C584 1.390 . S
C580 C574 1.465 1_556 S
C580 C579 1.396 . S
C580 C581 1.399 . S
C581 H567 0.929 . S
C581 C580 1.399 . S
C581 C582 1.385 . S
C582 H568 0.931 . S
C582 C581 1.385 . S
C582 C583 1.389 . S
C583 C582 1.389 . S
C583 C584 1.387 . S
C584 H569 0.930 . S
C584 C579 1.390 . S
C584 C583 1.387 . S
H585 C597 0.930 . S
H586 C599 0.930 . S
H587 C600 0.930 1_565 S
H588 C604 0.959 . S
H589 C604 0.959 . S
H590 C604 0.961 . S
H591 C605 0.960 . S
H592 C605 0.961 . S
H593 C605 0.959 . S
H594 C608 0.929 1_565 S
H595 C609 0.931 . S
H596 C611 0.930 . S
C597 H585 0.930 . S
C597 C598 1.399 . S
C597 C602 1.399 . S
C598 C597 1.399 . S
C598 C599 1.376 . S
C599 H586 0.930 . S
C599 C598 1.376 . S
C599 C600 1.388 . S
C600 H587 0.930 1_545 S
C600 C599 1.388 . S
C600 C601 1.390 . S
C601 C600 1.390 . S
C601 C602 1.394 . S
C601 C607 1.465 . S
C602 C597 1.399 . S
C602 C601 1.394 . S
C602 C603 1.516 . S
C603 C602 1.516 . S
C603 C604 1.502 . S
C603 C605 1.561 . S
C603 C606 1.526 . S
C604 H588 0.959 . S
C604 H589 0.959 . S
C604 H590 0.961 . S
C604 C603 1.502 . S
C605 H591 0.960 . S
C605 H592 0.961 . S
C605 H593 0.959 . S
C605 C603 1.561 . S
C606 C603 1.526 . S
C606 C607 1.396 . S
C606 C611 1.390 . S
C607 C601 1.465 . S
C607 C606 1.396 . S
C607 C608 1.399 . S
C608 H594 0.929 1_545 S
C608 C607 1.399 . S
C608 C609 1.385 . S
C609 H595 0.931 . S
C609 C608 1.385 . S
C609 C610 1.389 . S
C610 C609 1.389 . S
C610 C611 1.387 . S
C611 H596 0.930 . S
C611 C606 1.390 . S
C611 C610 1.387 . S
H612 C624 0.930 . S
H613 C626 0.930 . S
H614 C627 0.930 . S
H615 C631 0.959 . S
H616 C631 0.959 . S
H617 C631 0.961 . S
H618 C632 0.960 . S
H619 C632 0.961 . S
H620 C632 0.959 . S
H621 C635 0.929 . S
H622 C636 0.931 . S
H623 C638 0.930 . S
C624 H612 0.930 . S
C624 C625 1.399 . S
C624 C629 1.399 . S
C625 C624 1.399 . S
C625 C626 1.376 . S
C626 H613 0.930 . S
C626 C625 1.376 . S
C626 C627 1.388 . S
C627 H614 0.930 . S
C627 C626 1.388 . S
C627 C628 1.390 . S
C628 C627 1.390 . S
C628 C629 1.394 . S
C628 C634 1.465 . S
C629 C624 1.399 . S
C629 C628 1.394 . S
C629 C630 1.516 . S
C630 C629 1.516 . S
C630 C631 1.502 . S
C630 C632 1.561 . S
C630 C633 1.526 . S
C631 H615 0.959 . S
C631 H616 0.959 . S
C631 H617 0.961 . S
C631 C630 1.502 . S
C632 H618 0.960 . S
C632 H619 0.961 . S
C632 H620 0.959 . S
C632 C630 1.561 . S
C633 C630 1.526 . S
C633 C634 1.396 . S
C633 C638 1.390 . S
C634 C628 1.465 . S
C634 C633 1.396 . S
C634 C635 1.399 . S
C635 H621 0.929 . S
C635 C634 1.399 . S
C635 C636 1.385 . S
C636 H622 0.931 . S
C636 C635 1.385 . S
C636 C637 1.389 . S
C637 C636 1.389 . S
C637 C638 1.387 . S
C638 H623 0.930 . S
C638 C633 1.390 . S
C638 C637 1.387 . S
H639 C651 0.930 . S
H640 C653 0.930 . S
H641 C654 0.930 . S
H642 C658 0.959 1_545 S
H643 C658 0.959 . S
H644 C658 0.961 . S
H645 C659 0.960 . S
H646 C659 0.961 . S
H647 C659 0.959 . S
H648 C662 0.929 . S
H649 C663 0.931 . S
H650 C665 0.930 . S
C651 H639 0.930 . S
C651 C652 1.399 . S
C651 C656 1.399 . S
C652 C651 1.399 . S
C652 C653 1.376 . S
C653 H640 0.930 . S
C653 C652 1.376 . S
C653 C654 1.388 . S
C654 H641 0.930 . S
C654 C653 1.388 . S
C654 C655 1.390 . S
C655 C654 1.390 . S
C655 C656 1.394 . S
C655 C661 1.465 . S
C656 C651 1.399 . S
C656 C655 1.394 . S
C656 C657 1.516 . S
C657 C656 1.516 . S
C657 C658 1.502 1_545 S
C657 C659 1.561 1_545 S
C657 C660 1.526 . S
C658 H642 0.959 1_565 S
C658 H643 0.959 . S
C658 H644 0.961 . S
C658 C657 1.502 1_565 S
C659 H645 0.960 . S
C659 H646 0.961 . S
C659 H647 0.959 . S
C659 C657 1.561 1_565 S
C660 C657 1.526 . S
C660 C661 1.396 . S
C660 C665 1.390 . S
C661 C655 1.465 . S
C661 C660 1.396 . S
C661 C662 1.399 . S
C662 H648 0.929 . S
C662 C661 1.399 . S
C662 C663 1.385 . S
C663 H649 0.931 . S
C663 C662 1.385 . S
C663 C664 1.389 . S
C664 C663 1.389 . S
C664 C665 1.387 . S
C665 H650 0.930 . S
C665 C660 1.390 . S
C665 C664 1.387 . S
H666 C678 0.930 . S
H667 C680 0.930 . S
H668 C681 0.930 . S
H669 C685 0.959 . S
H670 C685 0.959 . S
H671 C685 0.961 1_556 S
H672 C686 0.960 . S
H673 C686 0.961 1_554 S
H674 C686 0.959 . S
H675 C689 0.929 . S
H676 C690 0.931 . S
H677 C692 0.930 . S
C678 H666 0.930 . S
C678 C679 1.399 . S
C678 C683 1.399 . S
C679 C678 1.399 . S
C679 C680 1.376 . S
C680 H667 0.930 . S
C680 C679 1.376 . S
C680 C681 1.388 . S
C681 H668 0.930 . S
C681 C680 1.388 . S
C681 C682 1.390 . S
C682 C681 1.390 . S
C682 C683 1.394 . S
C682 C688 1.465 1_556 S
C683 C678 1.399 . S
C683 C682 1.394 . S
C683 C684 1.516 1_556 S
C684 C683 1.516 1_554 S
C684 C685 1.502 . S
C684 C686 1.561 1_554 S
C684 C687 1.526 . S
C685 H669 0.959 . S
C685 H670 0.959 . S
C685 H671 0.961 1_554 S
C685 C684 1.502 . S
C686 H672 0.960 . S
C686 H673 0.961 1_556 S
C686 H674 0.959 . S
C686 C684 1.561 1_556 S
C687 C684 1.526 . S
C687 C688 1.396 . S
C687 C692 1.390 . S
C688 C682 1.465 1_554 S
C688 C687 1.396 . S
C688 C689 1.399 . S
C689 H675 0.929 . S
C689 C688 1.399 . S
C689 C690 1.385 . S
C690 H676 0.931 . S
C690 C689 1.385 . S
C690 C691 1.389 . S
C691 C690 1.389 . S
C691 C692 1.387 . S
C692 H677 0.930 . S
C692 C687 1.390 . S
C692 C691 1.387 . S
H693 C705 0.930 1_655 S
H694 C707 0.930 . S
H695 C708 0.930 . S
H696 C712 0.959 . S
H697 C712 0.959 . S
H698 C712 0.961 . S
H699 C713 0.960 . S
H700 C713 0.961 . S
H701 C713 0.959 . S
H702 C716 0.929 . S
H703 C717 0.931 . S
H704 C719 0.930 1_655 S
C705 H693 0.930 1_455 S
C705 C706 1.399 . S
C705 C710 1.399 . S
C706 C705 1.399 . S
C706 C707 1.376 . S
C707 H694 0.930 . S
C707 C706 1.376 . S
C707 C708 1.388 . S
C708 H695 0.930 . S
C708 C707 1.388 . S
C708 C709 1.390 . S
C709 C708 1.390 . S
C709 C710 1.394 . S
C709 C715 1.465 . S
C710 C705 1.399 . S
C710 C709 1.394 . S
C710 C711 1.511 1_455 S
C711 C710 1.511 1_655 S
C711 C712 1.523 . S
C711 C713 1.544 1_655 S
C711 C714 1.524 1_655 S
C712 H696 0.959 . S
C712 H697 0.959 . S
C712 H698 0.961 . S
C712 C711 1.523 . S
C713 H699 0.960 . S
C713 H700 0.961 . S
C713 H701 0.959 . S
C713 C711 1.544 1_455 S
C714 C711 1.524 1_455 S
C714 C715 1.396 . S
C714 C719 1.390 . S
C715 C709 1.465 . S
C715 C714 1.396 . S
C715 C716 1.399 . S
C716 H702 0.929 . S
C716 C715 1.399 . S
C716 C717 1.385 . S
C717 H703 0.931 . S
C717 C716 1.385 . S
C717 C718 1.389 . S
C718 C717 1.389 . S
C718 C719 1.387 . S
C719 H704 0.930 1_455 S
C719 C714 1.390 . S
C719 C718 1.387 . S
C247 C19 1.991 . S
C259 C226 1.958 . S
C274 C46 1.294 . S
C286 C188 1.293 . S
C301 C95 0.613 . S
C313 C207 0.471 . S
C328 C10 1.864 . S
C340 C221 1.823 . S
C367 C183 1.123 . S
C355 C55 1.124 . S
C394 C202 0.405 . S
C382 C86 0.527 . S
C409 C59 3.215 . S
C421 C150 3.124 . S
C436 C90 1.921 . S
C448 C164 1.916 . S
C463 C15 1.119 . S
C475 C126 1.125 1_565 S
C502 C145 2.944 . S
C490 C50 2.965 . S
C529 C169 1.916 . S
C517 C99 1.993 . S
C544 C6 1.298 . S
C556 C131 1.295 . S
C583 C160 1.523 . S
C571 C9 1.503 . S
C598 C58 1.573 . S
C610 C122 1.557 . S
C625 C98 1.636 . S
C637 C141 1.775 . S
C664 C198 1.338 . S
C652 C49 1.245 . S
C691 C217 1.537 . S
C679 C89 1.470 . S
C706 C18 1.541 . S
C718 C179 1.528 . S
