# Generated by pormake.
# Topology ctn, (3,4)-cn, num edge types: 1
# Building blocks:
#     Node 0, Type 0, BuildingBlock: CUQRIR_clean_linker_1, # of connection points: 3
#     Node 1, Type 0, BuildingBlock: CUQRIR_clean_linker_1, # of connection points: 3
#     Node 2, Type 0, BuildingBlock: CUQRIR_clean_linker_1, # of connection points: 3
#     Node 3, Type 0, BuildingBlock: CUQRIR_clean_linker_1, # of connection points: 3
#     Node 4, Type 0, BuildingBlock: CUQRIR_clean_linker_1, # of connection points: 3
#     Node 5, Type 0, BuildingBlock: CUQRIR_clean_linker_1, # of connection points: 3
#     Node 6, Type 0, BuildingBlock: CUQRIR_clean_linker_1, # of connection points: 3
#     Node 7, Type 0, BuildingBlock: CUQRIR_clean_linker_1, # of connection points: 3
#     Node 8, Type 0, BuildingBlock: CUQRIR_clean_linker_1, # of connection points: 3
#     Node 9, Type 0, BuildingBlock: CUQRIR_clean_linker_1, # of connection points: 3
#     Node 10, Type 0, BuildingBlock: CUQRIR_clean_linker_1, # of connection points: 3
#     Node 11, Type 0, BuildingBlock: CUQRIR_clean_linker_1, # of connection points: 3
#     Node 12, Type 0, BuildingBlock: CUQRIR_clean_linker_1, # of connection points: 3
#     Node 13, Type 0, BuildingBlock: CUQRIR_clean_linker_1, # of connection points: 3
#     Node 14, Type 0, BuildingBlock: CUQRIR_clean_linker_1, # of connection points: 3
#     Node 15, Type 0, BuildingBlock: CUQRIR_clean_linker_1, # of connection points: 3
#     Node 16, Type 1, BuildingBlock: TATPOV_clean_sbu_0, # of connection points: 4
#     Node 17, Type 1, BuildingBlock: TATPOV_clean_sbu_0, # of connection points: 4
#     Node 18, Type 1, BuildingBlock: TATPOV_clean_sbu_0, # of connection points: 4
#     Node 19, Type 1, BuildingBlock: TATPOV_clean_sbu_0, # of connection points: 4
#     Node 20, Type 1, BuildingBlock: TATPOV_clean_sbu_0, # of connection points: 4
#     Node 21, Type 1, BuildingBlock: TATPOV_clean_sbu_0, # of connection points: 4
#     Node 22, Type 1, BuildingBlock: TATPOV_clean_sbu_0, # of connection points: 4
#     Node 23, Type 1, BuildingBlock: TATPOV_clean_sbu_0, # of connection points: 4
#     Node 24, Type 1, BuildingBlock: TATPOV_clean_sbu_0, # of connection points: 4
#     Node 25, Type 1, BuildingBlock: TATPOV_clean_sbu_0, # of connection points: 4
#     Node 26, Type 1, BuildingBlock: TATPOV_clean_sbu_0, # of connection points: 4
#     Node 27, Type 1, BuildingBlock: TATPOV_clean_sbu_0, # of connection points: 4
#     Edge 28, Type (0, 1), BuildingBlock: UVAHIK_clean_linker_0, # of connection points: 2
#     Edge 29, Type (0, 1), BuildingBlock: UVAHIK_clean_linker_0, # of connection points: 2
#     Edge 30, Type (0, 1), BuildingBlock: UVAHIK_clean_linker_0, # of connection points: 2
#     Edge 31, Type (0, 1), BuildingBlock: UVAHIK_clean_linker_0, # of connection points: 2
#     Edge 32, Type (0, 1), BuildingBlock: UVAHIK_clean_linker_0, # of connection points: 2
#     Edge 33, Type (0, 1), BuildingBlock: UVAHIK_clean_linker_0, # of connection points: 2
#     Edge 34, Type (0, 1), BuildingBlock: UVAHIK_clean_linker_0, # of connection points: 2
#     Edge 35, Type (0, 1), BuildingBlock: UVAHIK_clean_linker_0, # of connection points: 2
#     Edge 36, Type (0, 1), BuildingBlock: UVAHIK_clean_linker_0, # of connection points: 2
#     Edge 37, Type (0, 1), BuildingBlock: UVAHIK_clean_linker_0, # of connection points: 2
#     Edge 38, Type (0, 1), BuildingBlock: UVAHIK_clean_linker_0, # of connection points: 2
#     Edge 39, Type (0, 1), BuildingBlock: UVAHIK_clean_linker_0, # of connection points: 2
#     Edge 40, Type (0, 1), BuildingBlock: UVAHIK_clean_linker_0, # of connection points: 2
#     Edge 41, Type (0, 1), BuildingBlock: UVAHIK_clean_linker_0, # of connection points: 2
#     Edge 42, Type (0, 1), BuildingBlock: UVAHIK_clean_linker_0, # of connection points: 2
#     Edge 43, Type (0, 1), BuildingBlock: UVAHIK_clean_linker_0, # of connection points: 2
#     Edge 44, Type (0, 1), BuildingBlock: UVAHIK_clean_linker_0, # of connection points: 2
#     Edge 45, Type (0, 1), BuildingBlock: UVAHIK_clean_linker_0, # of connection points: 2
#     Edge 46, Type (0, 1), BuildingBlock: UVAHIK_clean_linker_0, # of connection points: 2
#     Edge 47, Type (0, 1), BuildingBlock: UVAHIK_clean_linker_0, # of connection points: 2
#     Edge 48, Type (0, 1), BuildingBlock: UVAHIK_clean_linker_0, # of connection points: 2
#     Edge 49, Type (0, 1), BuildingBlock: UVAHIK_clean_linker_0, # of connection points: 2
#     Edge 50, Type (0, 1), BuildingBlock: UVAHIK_clean_linker_0, # of connection points: 2
#     Edge 51, Type (0, 1), BuildingBlock: UVAHIK_clean_linker_0, # of connection points: 2
#     Edge 52, Type (0, 1), BuildingBlock: UVAHIK_clean_linker_0, # of connection points: 2
#     Edge 53, Type (0, 1), BuildingBlock: UVAHIK_clean_linker_0, # of connection points: 2
#     Edge 54, Type (0, 1), BuildingBlock: UVAHIK_clean_linker_0, # of connection points: 2
#     Edge 55, Type (0, 1), BuildingBlock: UVAHIK_clean_linker_0, # of connection points: 2
#     Edge 56, Type (0, 1), BuildingBlock: UVAHIK_clean_linker_0, # of connection points: 2
#     Edge 57, Type (0, 1), BuildingBlock: UVAHIK_clean_linker_0, # of connection points: 2
#     Edge 58, Type (0, 1), BuildingBlock: UVAHIK_clean_linker_0, # of connection points: 2
#     Edge 59, Type (0, 1), BuildingBlock: UVAHIK_clean_linker_0, # of connection points: 2
#     Edge 60, Type (0, 1), BuildingBlock: UVAHIK_clean_linker_0, # of connection points: 2
#     Edge 61, Type (0, 1), BuildingBlock: UVAHIK_clean_linker_0, # of connection points: 2
#     Edge 62, Type (0, 1), BuildingBlock: UVAHIK_clean_linker_0, # of connection points: 2
#     Edge 63, Type (0, 1), BuildingBlock: UVAHIK_clean_linker_0, # of connection points: 2
#     Edge 64, Type (0, 1), BuildingBlock: UVAHIK_clean_linker_0, # of connection points: 2
#     Edge 65, Type (0, 1), BuildingBlock: UVAHIK_clean_linker_0, # of connection points: 2
#     Edge 66, Type (0, 1), BuildingBlock: UVAHIK_clean_linker_0, # of connection points: 2
#     Edge 67, Type (0, 1), BuildingBlock: UVAHIK_clean_linker_0, # of connection points: 2
#     Edge 68, Type (0, 1), BuildingBlock: UVAHIK_clean_linker_0, # of connection points: 2
#     Edge 69, Type (0, 1), BuildingBlock: UVAHIK_clean_linker_0, # of connection points: 2
#     Edge 70, Type (0, 1), BuildingBlock: UVAHIK_clean_linker_0, # of connection points: 2
#     Edge 71, Type (0, 1), BuildingBlock: UVAHIK_clean_linker_0, # of connection points: 2
#     Edge 72, Type (0, 1), BuildingBlock: UVAHIK_clean_linker_0, # of connection points: 2
#     Edge 73, Type (0, 1), BuildingBlock: UVAHIK_clean_linker_0, # of connection points: 2
#     Edge 74, Type (0, 1), BuildingBlock: UVAHIK_clean_linker_0, # of connection points: 2
#     Edge 75, Type (0, 1), BuildingBlock: UVAHIK_clean_linker_0, # of connection points: 2
# Relax obj value: 0.080
# Max RMSD: 0.208
# Mean RMSD: 0.131
data_MOF--net-ctn--node1-TATPOV_clean_sbu_0--node2-CUQRIR_clean_linker_1--edge1-UVAHIK_clean_linker_0
_symmetry_space_group_name_H-M    P1
_symmetry_Int_Tables_number       1
_symmetry_cell_setting            triclinic
loop_
_symmetry_equiv_pos_as_xyz
'x, y, z'
_cell_length_a     68.531628
_cell_length_b     64.079011
_cell_length_c     65.560806
_cell_angle_alpha  97.581868
_cell_angle_beta   90.031966
_cell_angle_gamma 93.75543
loop_
_atom_site_label
_atom_site_type_symbol
_atom_site_fract_x
_atom_site_fract_y
_atom_site_fract_z
_atom_type_partial_charge
C0 C 0.02676 0.00475 0.06609 0.0
N1 N 0.03705 0.01152 0.05028 0.0
N2 N 0.01378 0.01891 0.07337 0.0
C3 C 0.03037 0.98507 0.07538 0.0
C4 C 0.0166 0.03458 0.0615 0.0
N5 N 0.03092 0.03024 0.04763 0.0
C6 C 0.00434 0.05333 0.06244 0.0
H7 H 0.02172 0.97154 0.06667 0.0
H8 H 0.02585 0.98651 0.09172 0.0
H9 H 0.04604 0.98172 0.07438 0.0
H10 H 0.01193 0.06687 0.07226 0.0
H11 H 0.98979 0.04996 0.06911 0.0
H12 H 0.00229 0.05792 0.04688 0.0
C13 C 0.25743 0.73446 0.23957 0.0
N14 N 0.26546 0.72293 0.2529 0.0
N15 N 0.2705 0.7498 0.23471 0.0
C16 C 0.2376 0.72928 0.22956 0.0
C17 C 0.28685 0.74697 0.24542 0.0
N18 N 0.28386 0.7305 0.25633 0.0
C19 C 0.30532 0.76111 0.24621 0.0
H20 H 0.23743 0.7338 0.21381 0.0
H21 H 0.22662 0.73817 0.23891 0.0
H22 H 0.23327 0.71219 0.22864 0.0
H23 H 0.30219 0.77716 0.24305 0.0
H24 H 0.31554 0.75441 0.23437 0.0
H25 H 0.31257 0.76224 0.26149 0.0
C26 C 0.97338 0.46812 0.08312 0.0
N27 N 0.98448 0.45142 0.08337 0.0
N28 N 0.96222 0.46578 0.06579 0.0
C29 C 0.97464 0.48748 0.09891 0.0
C30 C 0.96693 0.44702 0.05557 0.0
N31 N 0.98048 0.43836 0.06622 0.0
C32 C 0.95813 0.43695 0.03533 0.0
H33 H 0.97143 0.50171 0.09187 0.0
H34 H 0.98937 0.48998 0.10622 0.0
H35 H 0.96372 0.48534 0.11107 0.0
H36 H 0.96759 0.44149 0.02268 0.0
H37 H 0.94327 0.44225 0.03316 0.0
H38 H 0.9573 0.4195 0.03432 0.0
C39 C 0.70397 0.73172 0.22649 0.0
N40 N 0.72004 0.74292 0.22076 0.0
N41 N 0.69815 0.73979 0.24547 0.0
C42 C 0.69457 0.7122 0.21413 0.0
C43 C 0.71123 0.75631 0.2511 0.0
N44 N 0.72472 0.75806 0.23619 0.0
C45 C 0.70956 0.77202 0.27015 0.0
H46 H 0.68373 0.71689 0.20329 0.0
H47 H 0.68686 0.70188 0.22428 0.0
H48 H 0.70566 0.70322 0.20504 0.0
H49 H 0.69419 0.77262 0.27537 0.0
H50 H 0.71505 0.78806 0.26736 0.0
H51 H 0.71848 0.76721 0.28265 0.0
C52 C 0.04167 0.98277 0.45943 0.0
N53 N 0.05693 0.98757 0.47279 0.0
N54 N 0.04086 0.99755 0.44659 0.0
C55 C 0.02659 0.9647 0.45999 0.0
C56 C 0.05595 0.01164 0.45264 0.0
N57 N 0.06564 0.00571 0.46874 0.0
C58 C 0.06183 0.03043 0.44193 0.0
H59 H 0.03225 0.95019 0.4516 0.0
H60 H 0.0127 0.96769 0.45253 0.0
H61 H 0.02362 0.96193 0.47608 0.0
H62 H 0.05577 0.04466 0.45043 0.0
H63 H 0.05606 0.02831 0.42593 0.0
H64 H 0.07799 0.03307 0.44164 0.0
C65 C 0.18202 0.72853 0.7794 0.0
N66 N 0.196 0.71945 0.78914 0.0
N67 N 0.18028 0.71985 0.75948 0.0
C68 C 0.17136 0.74725 0.78876 0.0
C69 C 0.19389 0.70535 0.75729 0.0
N70 N 0.20364 0.70525 0.77529 0.0
C71 C 0.1965 0.69019 0.73807 0.0
H72 H 0.15796 0.74157 0.79638 0.0
H73 H 0.16699 0.75684 0.77681 0.0
H74 H 0.18062 0.75746 0.80046 0.0
H75 H 0.20818 0.69688 0.72866 0.0
H76 H 0.18283 0.68762 0.72875 0.0
H77 H 0.20088 0.67479 0.7419 0.0
C78 C 0.93394 0.54588 0.4586 0.0
N79 N 0.94721 0.56232 0.45762 0.0
N80 N 0.91741 0.55256 0.46789 0.0
C81 C 0.93667 0.52342 0.44961 0.0
C82 C 0.92105 0.57368 0.47244 0.0
N83 N 0.93908 0.57965 0.46595 0.0
C84 C 0.90787 0.58811 0.48511 0.0
H85 H 0.92236 0.51473 0.44557 0.0
H86 H 0.94408 0.5154 0.46115 0.0
H87 H 0.94589 0.52288 0.43567 0.0
H88 H 0.91652 0.6008 0.495 0.0
H89 H 0.89814 0.57932 0.49499 0.0
H90 H 0.89865 0.59558 0.47458 0.0
C91 C 0.82286 0.83739 0.84618 0.0
N92 N 0.83675 0.82384 0.84026 0.0
N93 N 0.82331 0.85331 0.83449 0.0
C94 C 0.80797 0.83438 0.86256 0.0
C95 C 0.83807 0.84894 0.82122 0.0
N96 N 0.84626 0.83104 0.82472 0.0
C97 C 0.84263 0.86048 0.80306 0.0
H98 H 0.7955 0.82385 0.85572 0.0
H99 H 0.80237 0.84972 0.86901 0.0
H100 H 0.81444 0.82686 0.87506 0.0
H101 H 0.84157 0.87769 0.80735 0.0
H102 H 0.83176 0.85497 0.79064 0.0
H103 H 0.85749 0.85754 0.79711 0.0
C104 C 0.33267 0.343 0.34741 0.0
N105 N 0.34614 0.32893 0.34134 0.0
N106 N 0.3306 0.35629 0.33323 0.0
C107 C 0.31994 0.34221 0.36604 0.0
C108 C 0.34315 0.34967 0.31821 0.0
N109 N 0.35244 0.33294 0.32301 0.0
C110 C 0.34499 0.3584 0.29803 0.0
H111 H 0.30979 0.3551 0.36789 0.0
H112 H 0.32922 0.3436 0.38007 0.0
H113 H 0.31141 0.32674 0.36473 0.0
H114 H 0.35963 0.35599 0.29125 0.0
H115 H 0.34254 0.37547 0.30004 0.0
H116 H 0.33373 0.35012 0.28715 0.0
C117 C 0.47149 0.9744 0.57447 0.0
N118 N 0.48117 0.95658 0.57347 0.0
N119 N 0.45598 0.97153 0.56138 0.0
C120 C 0.47684 0.99434 0.5887 0.0
C121 C 0.45656 0.95126 0.55246 0.0
N122 N 0.47175 0.94207 0.56004 0.0
C123 C 0.44343 0.9411 0.53502 0.0
H124 H 0.46395 0.00381 0.59197 0.0
H125 H 0.48819 0.00387 0.58129 0.0
H126 H 0.48299 0.99069 0.60339 0.0
H127 H 0.43736 0.9531 0.5265 0.0
H128 H 0.43111 0.93196 0.54139 0.0
H129 H 0.45145 0.93007 0.52411 0.0
C130 C 0.20181 0.23886 0.7259 0.0
N131 N 0.21779 0.25066 0.72088 0.0
N132 N 0.19588 0.24577 0.74515 0.0
C133 C 0.19266 0.21982 0.71258 0.0
C134 C 0.20878 0.26219 0.7517 0.0
N135 N 0.22226 0.26505 0.73702 0.0
C136 C 0.20705 0.27657 0.77163 0.0
H137 H 0.185 0.20876 0.72205 0.0
H138 H 0.20388 0.21144 0.70311 0.0
H139 H 0.18181 0.22503 0.70207 0.0
H140 H 0.21632 0.27112 0.78348 0.0
H141 H 0.19174 0.27634 0.77712 0.0
H142 H 0.2121 0.29303 0.76984 0.0
C143 C 0.76548 0.22139 0.72925 0.0
N144 N 0.77448 0.21348 0.74465 0.0
N145 N 0.77461 0.23993 0.72577 0.0
C146 C 0.74693 0.2118 0.71854 0.0
C147 C 0.78943 0.24315 0.73976 0.0
N148 N 0.78927 0.22711 0.7514 0.0
C149 C 0.80491 0.26102 0.74086 0.0
H150 H 0.75073 0.2002 0.70529 0.0
H151 H 0.73854 0.22405 0.71271 0.0
H152 H 0.73756 0.20346 0.72911 0.0
H153 H 0.8006 0.27409 0.75245 0.0
H154 H 0.80651 0.26707 0.72581 0.0
H155 H 0.81921 0.25594 0.74559 0.0
C156 C 0.52349 0.50534 0.56434 0.0
N157 N 0.53335 0.51178 0.5481 0.0
N158 N 0.51073 0.51966 0.57182 0.0
C159 C 0.52732 0.48583 0.5738 0.0
C160 C 0.51325 0.53509 0.55963 0.0
N161 N 0.52717 0.53046 0.54538 0.0
C162 C 0.50107 0.55393 0.56068 0.0
H163 H 0.51852 0.47221 0.56544 0.0
H164 H 0.52316 0.48751 0.59026 0.0
H165 H 0.54298 0.48245 0.57249 0.0
H166 H 0.50902 0.56757 0.57003 0.0
H167 H 0.48674 0.55082 0.56794 0.0
H168 H 0.49854 0.55822 0.54509 0.0
C169 C 0.54488 0.48207 0.95444 0.0
N170 N 0.56023 0.4845 0.96776 0.0
N171 N 0.54431 0.49902 0.94423 0.0
C172 C 0.52972 0.46382 0.95229 0.0
C173 C 0.55968 0.51198 0.95191 0.0
N174 N 0.56928 0.50324 0.9664 0.0
C175 C 0.56606 0.53246 0.94429 0.0
H176 H 0.53542 0.45046 0.94202 0.0
H177 H 0.51591 0.46807 0.94554 0.0
H178 H 0.5266 0.45851 0.96747 0.0
H179 H 0.56179 0.54572 0.95569 0.0
H180 H 0.55915 0.5338 0.92926 0.0
H181 H 0.58221 0.5339 0.94276 0.0
C182 C 0.68913 0.22986 0.27562 0.0
N183 N 0.70286 0.22072 0.28562 0.0
N184 N 0.68786 0.22136 0.25562 0.0
C185 C 0.67804 0.24826 0.28495 0.0
C186 C 0.70151 0.20689 0.25369 0.0
N187 N 0.71083 0.20665 0.27192 0.0
C188 C 0.70444 0.19176 0.23452 0.0
H189 H 0.66456 0.24222 0.29219 0.0
H190 H 0.67379 0.25796 0.27306 0.0
H191 H 0.68696 0.25842 0.29699 0.0
H192 H 0.71647 0.19836 0.22548 0.0
H193 H 0.69102 0.18937 0.22479 0.0
H194 H 0.70849 0.17627 0.23842 0.0
C195 C 0.42978 0.04856 0.9391 0.0
N196 N 0.44388 0.06447 0.94068 0.0
N197 N 0.41405 0.05423 0.9505 0.0
C198 C 0.43116 0.02756 0.92603 0.0
C199 C 0.41906 0.0743 0.95899 0.0
N200 N 0.43714 0.08061 0.95283 0.0
C201 C 0.40733 0.08678 0.97513 0.0
H202 H 0.43997 0.02938 0.9121 0.0
H203 H 0.4164 0.02036 0.92136 0.0
H204 H 0.4385 0.01676 0.93501 0.0
H205 H 0.39782 0.07627 0.98362 0.0
H206 H 0.39789 0.0969 0.96747 0.0
H207 H 0.41702 0.09713 0.9863 0.0
Zn208 Zn 0.27318 0.85429 0.01651 0.0
Zn209 Zn 0.24021 0.8722 0.01998 0.0
O210 O 0.24311 0.86046 0.04833 0.0
O211 O 0.2706 0.84462 0.0439 0.0
O212 O 0.21548 0.88844 0.02276 0.0
O213 O 0.28875 0.88099 0.01377 0.0
O214 O 0.26089 0.89621 0.01456 0.0
C215 C 0.2562 0.8497 0.05509 0.0
C216 C 0.2468 0.83636 0.98467 0.0
O217 O 0.23541 0.84925 0.99426 0.0
O218 O 0.26407 0.83557 0.99119 0.0
C219 C 0.19876 0.8818 0.01518 0.0
O220 O 0.19643 0.8626 0.00525 0.0
C221 C 0.27947 0.89724 0.01278 0.0
Zn222 Zn 0.11562 0.46095 0.30217 0.0
Zn223 Zn 0.13302 0.49775 0.29424 0.0
O224 O 0.11463 0.50685 0.31829 0.0
O225 O 0.10181 0.47651 0.32612 0.0
O226 O 0.14829 0.52501 0.29026 0.0
O227 O 0.14134 0.4491 0.30659 0.0
O228 O 0.15552 0.47945 0.30057 0.0
C229 C 0.10352 0.49646 0.3295 0.0
C230 C 0.1073 0.4707 0.26126 0.0
O231 O 0.1182 0.48738 0.2669 0.0
O232 O 0.10397 0.45718 0.27352 0.0
C233 C 0.14704 0.53532 0.27507 0.0
O234 O 0.13448 0.52848 0.26016 0.0
C235 C 0.15672 0.46077 0.30496 0.0
Zn236 Zn 0.79907 0.60205 0.95455 0.0
Zn237 Zn 0.79568 0.62919 0.98929 0.0
O238 O 0.81768 0.61083 0.99644 0.0
O239 O 0.82166 0.58983 0.96752 0.0
O240 O 0.79265 0.64907 0.01554 0.0
O241 O 0.80454 0.62674 0.93871 0.0
O242 O 0.80273 0.64881 0.96729 0.0
C243 C 0.82652 0.59611 0.98607 0.0
C244 C 0.7614 0.59763 0.97344 0.0
O245 O 0.76865 0.61304 0.98604 0.0
O246 O 0.77148 0.58982 0.95849 0.0
C247 C 0.78845 0.64098 0.03182 0.0
O248 O 0.78661 0.62032 0.03081 0.0
C249 C 0.80571 0.64544 0.94795 0.0
Zn250 Zn 0.837 0.99592 0.30754 0.0
Zn251 Zn 0.85469 0.9977 0.27151 0.0
O252 O 0.83759 0.02353 0.27428 0.0
O253 O 0.82124 0.02028 0.30271 0.0
O254 O 0.86936 0.99922 0.24491 0.0
O255 O 0.86271 0.00177 0.32272 0.0
O256 O 0.87734 0.9996 0.29269 0.0
C257 C 0.82482 0.03002 0.28739 0.0
C258 C 0.82992 0.95785 0.27905 0.0
O259 O 0.83944 0.96848 0.26676 0.0
O260 O 0.8274 0.96581 0.29752 0.0
C261 C 0.88177 0.01462 0.24353 0.0
O262 O 0.88415 0.02962 0.25922 0.0
C263 C 0.87824 0.00176 0.31229 0.0
Zn264 Zn 0.29171 0.11145 0.4554 0.0
Zn265 Zn 0.28958 0.13756 0.49127 0.0
O266 O 0.31091 0.11853 0.49807 0.0
O267 O 0.31296 0.09721 0.46901 0.0
O268 O 0.28566 0.15728 0.51748 0.0
O269 O 0.29894 0.13656 0.44062 0.0
O270 O 0.29795 0.15755 0.47 0.0
C271 C 0.31855 0.10311 0.48743 0.0
C272 C 0.25409 0.10805 0.47379 0.0
O273 O 0.26242 0.12168 0.4875 0.0
O274 O 0.26332 0.10124 0.45781 0.0
C275 C 0.29821 0.16236 0.53187 0.0
O276 O 0.31562 0.15491 0.52999 0.0
C277 C 0.30099 0.15487 0.45065 0.0
Zn278 Zn 0.33884 0.50088 0.81051 0.0
Zn279 Zn 0.35554 0.50294 0.77397 0.0
O280 O 0.33795 0.52835 0.77696 0.0
O281 O 0.32256 0.52492 0.80593 0.0
O282 O 0.36956 0.50431 0.74696 0.0
O283 O 0.36484 0.50718 0.82505 0.0
O284 O 0.3787 0.50551 0.79464 0.0
C285 C 0.32542 0.5346 0.79044 0.0
C286 C 0.33147 0.46281 0.78221 0.0
O287 O 0.34054 0.47358 0.76973 0.0
O288 O 0.32938 0.47066 0.80079 0.0
C289 C 0.38204 0.51952 0.74513 0.0
O290 O 0.38494 0.53461 0.76068 0.0
C291 C 0.3801 0.50764 0.81421 0.0
Zn292 Zn 0.76917 0.35367 0.5168 0.0
Zn293 Zn 0.73597 0.37218 0.51898 0.0
O294 O 0.73593 0.35771 0.54582 0.0
O295 O 0.76196 0.33923 0.54118 0.0
O296 O 0.71144 0.38872 0.52069 0.0
O297 O 0.78516 0.38117 0.52017 0.0
O298 O 0.75752 0.39633 0.51781 0.0
C299 C 0.74712 0.34439 0.55164 0.0
C300 C 0.74523 0.33998 0.4815 0.0
O301 O 0.73292 0.35121 0.49174 0.0
O302 O 0.76232 0.33925 0.48855 0.0
C303 C 0.69471 0.38185 0.5133 0.0
O304 O 0.69233 0.36231 0.50419 0.0
C305 C 0.77615 0.39759 0.51907 0.0
Zn306 Zn 0.61378 0.96122 0.78673 0.0
Zn307 Zn 0.63237 0.99828 0.7811 0.0
O308 O 0.61316 0.00758 0.80416 0.0
O309 O 0.59869 0.97711 0.80965 0.0
O310 O 0.64848 0.02489 0.77705 0.0
O311 O 0.63891 0.94908 0.79312 0.0
O312 O 0.65399 0.97952 0.78878 0.0
C313 C 0.60089 0.997 0.81399 0.0
C314 C 0.60823 0.97223 0.74598 0.0
O315 O 0.61858 0.98889 0.75306 0.0
O316 O 0.60434 0.95787 0.75719 0.0
C317 C 0.65611 0.03671 0.79249 0.0
O318 O 0.65251 0.03192 0.81106 0.0
C319 C 0.65454 0.96069 0.79296 0.0
Zn320 Zn 0.9957 0.25241 0.87979 0.0
Zn321 Zn 0.99633 0.21843 0.89731 0.0
O322 O 0.01898 0.21655 0.876 0.0
O323 O 0.01472 0.24257 0.85803 0.0
O324 O 0.999 0.19215 0.91136 0.0
O325 O 0.00546 0.27055 0.90546 0.0
O326 O 0.00037 0.2428 0.92174 0.0
C327 C 0.02377 0.22667 0.86105 0.0
C328 C 0.95863 0.22916 0.87675 0.0
O329 O 0.96818 0.21539 0.88419 0.0
O330 O 0.96688 0.24699 0.87464 0.0
C331 C 0.01612 0.18786 0.91633 0.0
O332 O 0.03109 0.20043 0.91217 0.0
C333 C 0.0049 0.26249 0.92206 0.0
Zn334 Zn 0.48876 0.74889 0.37052 0.0
Zn335 Zn 0.49198 0.71767 0.39282 0.0
O336 O 0.51596 0.71587 0.373 0.0
O337 O 0.51151 0.74047 0.35326 0.0
O338 O 0.49644 0.69454 0.41044 0.0
O339 O 0.49278 0.77037 0.39576 0.0
O340 O 0.49282 0.74436 0.41462 0.0
C341 C 0.52122 0.72565 0.35794 0.0
C342 C 0.45508 0.7196 0.36635 0.0
O343 O 0.46455 0.70999 0.37867 0.0
O344 O 0.4622 0.73669 0.36089 0.0
C345 C 0.4973 0.67513 0.40343 0.0
O346 O 0.49429 0.66906 0.38369 0.0
C347 C 0.49363 0.76406 0.41321 0.0
Zn348 Zn 0.96588 0.8159 0.60612 0.0
Zn349 Zn 0.99867 0.80384 0.6223 0.0
O350 O 0.00832 0.832 0.61259 0.0
O351 O 0.98109 0.84302 0.60122 0.0
O352 O 0.02191 0.79421 0.63622 0.0
O353 O 0.95135 0.8135 0.63277 0.0
O354 O 0.97889 0.80538 0.64601 0.0
C355 C 0.99934 0.84583 0.60468 0.0
C356 C 0.97924 0.77719 0.5846 0.0
O357 O 0.99244 0.78004 0.59857 0.0
O358 O 0.9663 0.7904 0.58427 0.0
C359 C 0.0388 0.79199 0.62857 0.0
O360 O 0.04223 0.79654 0.60989 0.0
C361 C 0.96085 0.80886 0.64793 0.0
Zn362 Zn 0.46836 0.30772 0.10377 0.0
Zn363 Zn 0.50211 0.29797 0.11955 0.0
O364 O 0.51049 0.32556 0.108 0.0
O365 O 0.48244 0.33459 0.09661 0.0
O366 O 0.52617 0.28996 0.13331 0.0
O367 O 0.45472 0.30656 0.13103 0.0
O368 O 0.48295 0.29996 0.14389 0.0
C369 C 0.50072 0.33827 0.09935 0.0
C370 C 0.48246 0.26891 0.08346 0.0
O371 O 0.49614 0.27305 0.09683 0.0
O372 O 0.46882 0.2813 0.08314 0.0
C373 C 0.54292 0.288 0.12526 0.0
O374 O 0.54564 0.29181 0.10623 0.0
C375 C 0.46485 0.30298 0.1462 0.0
C376 C 0.18828 0.7266 0.82592 0.0
C377 C 0.20221 0.72527 0.81022 0.0
C378 C 0.19333 0.73634 0.84571 0.0
C379 C 0.23064 0.77546 0.87158 0.0
H380 H 0.20447 0.76225 0.9212 0.0
C381 C 0.25507 0.8138 0.95234 0.0
C382 C 0.24066 0.82278 0.96537 0.0
C383 C 0.24993 0.80117 0.93394 0.0
C384 C 0.21173 0.76617 0.9074 0.0
H385 H 0.23264 0.73136 0.80308 0.0
H386 H 0.24193 0.74739 0.83798 0.0
H387 H 0.19776 0.7395 0.88865 0.0
H388 H 0.20947 0.82527 0.96934 0.0
H389 H 0.20039 0.80257 0.93701 0.0
H390 H 0.24497 0.80179 0.89052 0.0
C391 C 0.22685 0.74174 0.83489 0.0
C392 C 0.20793 0.75317 0.88873 0.0
C393 C 0.22168 0.73225 0.81499 0.0
C394 C 0.22088 0.81861 0.95961 0.0
C395 C 0.2157 0.80558 0.94122 0.0
C396 C 0.23463 0.78822 0.89025 0.0
C397 C 0.21257 0.74466 0.85032 0.0
C398 C 0.21732 0.75767 0.87053 0.0
C399 C 0.23023 0.79693 0.92816 0.0
C400 C 0.22521 0.78373 0.90832 0.0
H401 H 0.17321 0.72108 0.82254 0.0
H402 H 0.18186 0.7383 0.85701 0.0
H403 H 0.23777 0.77985 0.85789 0.0
H404 H 0.27046 0.81672 0.95621 0.0
H405 H 0.2614 0.79458 0.92425 0.0
C406 C 0.9793 0.54719 0.45552 0.0
C407 C 0.96653 0.5613 0.44912 0.0
C408 C 0.99668 0.54342 0.44503 0.0
C409 C 0.03202 0.56169 0.40785 0.0
H410 H 0.03562 0.50178 0.39094 0.0
C411 C 0.08487 0.52728 0.34435 0.0
C412 C 0.0918 0.50741 0.346 0.0
C413 C 0.07153 0.53607 0.35869 0.0
C414 C 0.03519 0.51855 0.39583 0.0
H415 H 0.96236 0.58382 0.42798 0.0
H416 H 0.99307 0.5774 0.4095 0.0
H417 H 0.00942 0.51379 0.41338 0.0
H418 H 0.09152 0.48195 0.36473 0.0
H419 H 0.06915 0.4976 0.39015 0.0
H420 H 0.05796 0.56639 0.39029 0.0
C421 C 0.98958 0.56918 0.42258 0.0
C422 C 0.02006 0.52543 0.40865 0.0
C423 C 0.97208 0.57286 0.43308 0.0
C424 C 0.08616 0.49714 0.36289 0.0
C425 C 0.07319 0.50607 0.37738 0.0
C426 C 0.04741 0.55476 0.39513 0.0
C427 C 0.00168 0.55385 0.42801 0.0
C428 C 0.01829 0.54703 0.41484 0.0
C429 C 0.06513 0.52527 0.3751 0.0
C430 C 0.04919 0.53306 0.38899 0.0
H431 H 0.97542 0.53847 0.46816 0.0
H432 H 0.00591 0.53181 0.44978 0.0
H433 H 0.03097 0.57845 0.4124 0.0
H434 H 0.08897 0.53551 0.33143 0.0
H435 H 0.06559 0.55083 0.35635 0.0
C436 C 0.82198 0.78837 0.84259 0.0
C437 C 0.83786 0.80328 0.84647 0.0
C438 C 0.82106 0.76996 0.85188 0.0
C439 C 0.82482 0.72836 0.86795 0.0
H440 H 0.8399 0.73546 0.92559 0.0
C441 C 0.8175 0.659 0.91573 0.0
C442 C 0.81102 0.66316 0.93612 0.0
C443 C 0.82261 0.67547 0.90439 0.0
C444 C 0.83549 0.73323 0.90955 0.0
H445 H 0.86569 0.81052 0.86203 0.0
H446 H 0.86451 0.77789 0.8781 0.0
H447 H 0.84602 0.7646 0.90555 0.0
H448 H 0.8049 0.688 0.9606 0.0
H449 H 0.81333 0.71683 0.9406 0.0
H450 H 0.81344 0.69738 0.87213 0.0
C451 C 0.85254 0.78055 0.86817 0.0
C452 C 0.8393 0.74985 0.89794 0.0
C453 C 0.8534 0.79904 0.85884 0.0
C454 C 0.80986 0.68425 0.94494 0.0
C455 C 0.81484 0.70078 0.9335 0.0
C456 C 0.82092 0.7118 0.87957 0.0
C457 C 0.83609 0.76605 0.86524 0.0
C458 C 0.83379 0.74771 0.87705 0.0
C459 C 0.82123 0.69659 0.91304 0.0
C460 C 0.82603 0.71407 0.90057 0.0
H461 H 0.80984 0.79152 0.83312 0.0
H462 H 0.80807 0.75936 0.84941 0.0
H463 H 0.82057 0.72604 0.85186 0.0
H464 H 0.81877 0.64295 0.90849 0.0
H465 H 0.82781 0.67161 0.88884 0.0
C466 C 0.01347 0.01493 0.43355 0.0
C467 C 0.02644 0.99884 0.43102 0.0
C468 C 0.99915 0.01605 0.41865 0.0
C469 C 0.9731 0.9836 0.37428 0.0
H470 H 0.95461 0.03778 0.36588 0.0
C471 C 0.91364 0.9943 0.31384 0.0
C472 C 0.89731 0.00368 0.3231 0.0
C473 C 0.93112 0.99456 0.32497 0.0
C474 C 0.95974 0.02258 0.36802 0.0
H475 H 0.03524 0.97156 0.41117 0.0
H476 H 0.01074 0.97381 0.38446 0.0
H477 H 0.98235 0.03645 0.38889 0.0
H478 H 0.88667 0.02148 0.35084 0.0
H479 H 0.91737 0.02252 0.36998 0.0
H480 H 0.95053 0.96989 0.35303 0.0
C481 C 0.01108 0.98528 0.39816 0.0
C482 C 0.97551 0.02174 0.38135 0.0
C483 C 0.02518 0.984 0.4133 0.0
C484 C 0.899 0.01404 0.34335 0.0
C485 C 0.91656 0.01474 0.35427 0.0
C486 C 0.95758 0.98448 0.36064 0.0
C487 C 0.99775 0.00125 0.40069 0.0
C488 C 0.98212 0.00222 0.38505 0.0
C489 C 0.93265 0.0047 0.34531 0.0
C490 C 0.95053 0.00395 0.35774 0.0
H491 H 0.01426 0.0264 0.44728 0.0
H492 H 0.98894 0.02827 0.42148 0.0
H493 H 0.9775 0.96824 0.37689 0.0
H494 H 0.9127 0.98614 0.29827 0.0
H495 H 0.94339 0.98674 0.31778 0.0
C496 C 0.21925 0.24645 0.68306 0.0
C497 C 0.22874 0.24739 0.70213 0.0
C498 C 0.22926 0.24093 0.6648 0.0
C499 C 0.27091 0.21106 0.64541 0.0
H500 H 0.26019 0.23396 0.59499 0.0
C501 C 0.30569 0.17955 0.56797 0.0
C502 C 0.29275 0.17559 0.55104 0.0
C503 C 0.3 0.19101 0.58644 0.0
C504 C 0.26328 0.22735 0.60893 0.0
H505 H 0.25617 0.24429 0.71731 0.0
H506 H 0.27398 0.23488 0.68531 0.0
H507 H 0.24669 0.24981 0.62739 0.0
H508 H 0.26387 0.18106 0.54011 0.0
H509 H 0.25396 0.20084 0.57225 0.0
H510 H 0.28714 0.18833 0.6269 0.0
C511 C 0.25871 0.23809 0.68442 0.0
C512 C 0.25555 0.23643 0.6275 0.0
C513 C 0.24864 0.24365 0.70269 0.0
C514 C 0.27421 0.1838 0.55283 0.0
C515 C 0.26856 0.19529 0.57125 0.0
C516 C 0.27866 0.202 0.62685 0.0
C517 C 0.24902 0.23625 0.66526 0.0
C518 C 0.25896 0.22815 0.64591 0.0
C519 C 0.28129 0.19884 0.58835 0.0
C520 C 0.27464 0.20978 0.60832 0.0
H521 H 0.20392 0.24949 0.68236 0.0
H522 H 0.22127 0.23949 0.65037 0.0
H523 H 0.27362 0.20408 0.65923 0.0
H524 H 0.3201 0.17352 0.5671 0.0
H525 H 0.31023 0.19366 0.59926 0.0
C526 C 0.48419 0.50176 0.58979 0.0
C527 C 0.49775 0.51901 0.58903 0.0
C528 C 0.47117 0.5015 0.60621 0.0
C529 C 0.44879 0.53714 0.64758 0.0
H530 H 0.43679 0.48575 0.67165 0.0
C531 C 0.40784 0.53651 0.72447 0.0
C532 C 0.394 0.51968 0.72629 0.0
C533 C 0.41977 0.53632 0.70716 0.0
C534 C 0.43978 0.50017 0.66494 0.0
H535 H 0.5088 0.5492 0.60482 0.0
H536 H 0.4862 0.54882 0.63367 0.0
H537 H 0.45923 0.48543 0.64275 0.0
H538 H 0.3817 0.48955 0.71113 0.0
H539 H 0.40245 0.4893 0.68084 0.0
H540 H 0.42947 0.55192 0.66983 0.0
C541 C 0.48529 0.53564 0.62146 0.0
C542 C 0.45266 0.49999 0.64836 0.0
C543 C 0.49827 0.53587 0.60504 0.0
C544 C 0.39222 0.50276 0.71024 0.0
C545 C 0.40421 0.50255 0.69294 0.0
C546 C 0.43594 0.53732 0.66415 0.0
C547 C 0.47148 0.51851 0.6222 0.0
C548 C 0.45743 0.51851 0.63955 0.0
C549 C 0.4182 0.51928 0.69123 0.0
C550 C 0.43136 0.51888 0.67312 0.0
H551 H 0.48348 0.4887 0.57747 0.0
H552 H 0.4606 0.48817 0.60616 0.0
H553 H 0.45183 0.5516 0.64093 0.0
H554 H 0.40966 0.54978 0.73654 0.0
H555 H 0.43055 0.54935 0.70649 0.0
C556 C 0.76925 0.24289 0.68922 0.0
C557 C 0.77021 0.25231 0.70976 0.0
C558 C 0.76372 0.25427 0.67368 0.0
C559 C 0.75921 0.3083 0.66091 0.0
H560 H 0.72767 0.27819 0.6159 0.0
C561 C 0.73741 0.34641 0.58884 0.0
C562 C 0.74339 0.33464 0.57057 0.0
C563 C 0.7371 0.33759 0.60737 0.0
C564 C 0.73637 0.28685 0.62842 0.0
H565 H 0.76654 0.28099 0.73032 0.0
H566 H 0.7567 0.30118 0.70306 0.0
H567 H 0.73476 0.2607 0.64562 0.0
H568 H 0.75269 0.30425 0.55703 0.0
H569 H 0.7516 0.28876 0.58897 0.0
H570 H 0.76099 0.33436 0.64335 0.0
C571 C 0.76035 0.28499 0.69892 0.0
C572 C 0.74058 0.27679 0.64539 0.0
C573 C 0.76597 0.27352 0.71451 0.0
C574 C 0.74802 0.31367 0.5709 0.0
C575 C 0.74733 0.30477 0.58918 0.0
C576 C 0.75486 0.31843 0.64393 0.0
C577 C 0.75892 0.27539 0.67832 0.0
C578 C 0.75257 0.28713 0.66156 0.0
C579 C 0.74229 0.31674 0.6077 0.0
C580 C 0.74389 0.30757 0.62725 0.0
H581 H 0.77272 0.22661 0.68527 0.0
H582 H 0.76331 0.24651 0.65796 0.0
H583 H 0.76853 0.31672 0.67304 0.0
H584 H 0.73394 0.36268 0.589 0.0
H585 H 0.73313 0.34713 0.62145 0.0
C586 C 0.51578 0.96291 0.58356 0.0
C587 C 0.49726 0.95322 0.58636 0.0
C588 C 0.53066 0.96256 0.5981 0.0
C589 C 0.54307 0.93893 0.64561 0.0
H590 H 0.57681 0.99012 0.65686 0.0
C591 C 0.59709 0.94948 0.71376 0.0
C592 C 0.59997 0.96969 0.72494 0.0
C593 C 0.58753 0.94657 0.69468 0.0
C594 C 0.56739 0.97578 0.65412 0.0
H595 H 0.47945 0.93544 0.60594 0.0
H596 H 0.50494 0.93542 0.63192 0.0
H597 H 0.55412 0.98602 0.62804 0.0
H598 H 0.59554 0.00279 0.72484 0.0
H599 H 0.57785 0.99774 0.69213 0.0
H600 H 0.5551 0.92942 0.67262 0.0
C601 C 0.50853 0.94265 0.61826 0.0
C602 C 0.55457 0.97322 0.63724 0.0
C603 C 0.49384 0.94266 0.60348 0.0
C604 C 0.59361 0.98706 0.71644 0.0
C605 C 0.58355 0.9841 0.69758 0.0
C606 C 0.55556 0.94169 0.66273 0.0
C607 C 0.52708 0.95296 0.616 0.0
C608 C 0.54201 0.95486 0.63288 0.0
C609 C 0.58007 0.96374 0.68656 0.0
C610 C 0.56778 0.96026 0.66741 0.0
H611 H 0.5185 0.97123 0.57039 0.0
H612 H 0.54481 0.97024 0.59549 0.0
H613 H 0.534 0.92437 0.6426 0.0
H614 H 0.60209 0.93583 0.71988 0.0
H615 H 0.58577 0.93075 0.68649 0.0
C616 C 0.81378 0.20616 0.76562 0.0
C617 C 0.80331 0.22441 0.76708 0.0
C618 C 0.82875 0.2045 0.77979 0.0
C619 C 0.86352 0.23876 0.81385 0.0
H620 H 0.8742 0.18787 0.83682 0.0
C621 C 0.92547 0.24125 0.87209 0.0
C622 C 0.93814 0.22479 0.86953 0.0
C623 C 0.90742 0.23923 0.86194 0.0
C624 C 0.87149 0.20215 0.83041 0.0
H625 H 0.79932 0.2546 0.78494 0.0
H626 H 0.82542 0.25187 0.80974 0.0
H627 H 0.84552 0.18802 0.81446 0.0
H628 H 0.94148 0.19281 0.85526 0.0
H629 H 0.90993 0.18935 0.83692 0.0
H630 H 0.88951 0.25286 0.82915 0.0
C631 C 0.82239 0.23896 0.7975 0.0
C632 C 0.85505 0.20224 0.81762 0.0
C633 C 0.80745 0.24056 0.78339 0.0
C634 C 0.93189 0.20568 0.85759 0.0
C635 C 0.91384 0.20375 0.84708 0.0
C636 C 0.8799 0.23865 0.82647 0.0
C637 C 0.83353 0.22112 0.79562 0.0
C638 C 0.85082 0.22063 0.80932 0.0
C639 C 0.90172 0.22084 0.84856 0.0
C640 C 0.88406 0.22044 0.8351 0.0
H641 H 0.81087 0.19357 0.75306 0.0
H642 H 0.83711 0.19062 0.77782 0.0
H643 H 0.86102 0.25303 0.8073 0.0
H644 H 0.92985 0.25608 0.88138 0.0
H645 H 0.89824 0.25246 0.86402 0.0
C646 C 0.49631 0.92121 0.54115 0.0
C647 C 0.47871 0.92198 0.55199 0.0
C648 C 0.50109 0.90251 0.5293 0.0
C649 C 0.49068 0.84517 0.51799 0.0
H650 H 0.49694 0.85468 0.46113 0.0
C651 C 0.48549 0.77688 0.44988 0.0
C652 C 0.49554 0.7799 0.43174 0.0
C653 C 0.48566 0.79317 0.46644 0.0
C654 C 0.49574 0.8516 0.47694 0.0
H655 H 0.45292 0.90389 0.56029 0.0
H656 H 0.46145 0.87081 0.53986 0.0
H657 H 0.49445 0.88448 0.48764 0.0
H658 H 0.5148 0.80151 0.41716 0.0
H659 H 0.51621 0.82925 0.44626 0.0
H660 H 0.49226 0.81225 0.50735 0.0
C661 C 0.47152 0.88463 0.54046 0.0
C662 C 0.4942 0.86879 0.49215 0.0
C663 C 0.46663 0.90345 0.55208 0.0
C664 C 0.50665 0.79892 0.43087 0.0
C665 C 0.50728 0.81491 0.44754 0.0
C666 C 0.49263 0.82789 0.50277 0.0
C667 C 0.48843 0.88422 0.52834 0.0
C668 C 0.49153 0.86577 0.51278 0.0
C669 C 0.49627 0.81261 0.46533 0.0
C670 C 0.49505 0.83086 0.48196 0.0
H671 H 0.50566 0.93544 0.54075 0.0
H672 H 0.51425 0.90256 0.52014 0.0
H673 H 0.48859 0.84246 0.53383 0.0
H674 H 0.47676 0.76234 0.45088 0.0
H675 H 0.47685 0.79075 0.47973 0.0
C676 C 0.18123 0.23141 0.7751 0.0
C677 C 0.17907 0.23826 0.75583 0.0
C678 C 0.16479 0.22522 0.78602 0.0
C679 C 0.11096 0.21144 0.78048 0.0
H680 H 0.11114 0.22988 0.83925 0.0
C681 C 0.04181 0.2272 0.8281 0.0
C682 C 0.04061 0.22101 0.84786 0.0
C683 C 0.05869 0.22446 0.81643 0.0
C684 C 0.11097 0.22428 0.82291 0.0
H685 H 0.15842 0.244 0.73267 0.0
H686 H 0.12954 0.2338 0.75183 0.0
H687 H 0.14091 0.23479 0.81971 0.0
H688 H 0.05588 0.20638 0.87063 0.0
H689 H 0.08574 0.20198 0.85027 0.0
H690 H 0.08063 0.20202 0.78368 0.0
C691 C 0.14384 0.23257 0.75842 0.0
C692 C 0.12806 0.22706 0.81167 0.0
C693 C 0.16031 0.23854 0.74745 0.0
C694 C 0.05638 0.21123 0.85541 0.0
C695 C 0.07347 0.20883 0.84384 0.0
C696 C 0.09382 0.20891 0.7917 0.0
C697 C 0.14584 0.22599 0.77795 0.0
C698 C 0.12819 0.22106 0.79022 0.0
C699 C 0.07487 0.21574 0.82437 0.0
C700 C 0.09357 0.21566 0.81296 0.0
H701 H 0.19567 0.23101 0.78169 0.0
H702 H 0.16697 0.21992 0.80082 0.0
H703 H 0.11059 0.20617 0.76409 0.0
H704 H 0.02986 0.23471 0.82185 0.0
H705 H 0.0594 0.2301 0.80156 0.0
C706 C 0.53923 0.56382 0.53389 0.0
C707 C 0.53245 0.54262 0.52903 0.0
C708 C 0.53888 0.57762 0.5191 0.0
C709 C 0.53199 0.58202 0.46369 0.0
H710 H 0.50652 0.63257 0.48503 0.0
C711 C 0.50129 0.63792 0.41035 0.0
C712 C 0.50251 0.6597 0.41727 0.0
C713 C 0.50646 0.62345 0.42336 0.0
C714 C 0.51396 0.61877 0.47879 0.0
H715 H 0.52141 0.51872 0.50474 0.0
H716 H 0.52098 0.54279 0.47854 0.0
H717 H 0.51469 0.60776 0.50815 0.0
H718 H 0.51049 0.68333 0.44325 0.0
H719 H 0.5199 0.65829 0.46569 0.0
H720 H 0.53126 0.59312 0.43427 0.0
C721 C 0.52659 0.5488 0.49378 0.0
C722 C 0.51865 0.60449 0.49211 0.0
C723 C 0.52693 0.53498 0.50867 0.0
C724 C 0.50917 0.66666 0.43746 0.0
C725 C 0.51449 0.65224 0.45039 0.0
C726 C 0.52743 0.59645 0.45033 0.0
C727 C 0.53173 0.57048 0.49911 0.0
C728 C 0.52771 0.58593 0.48476 0.0
C729 C 0.51313 0.6304 0.44359 0.0
C730 C 0.5183 0.61502 0.4577 0.0
H731 H 0.54349 0.56997 0.54955 0.0
H732 H 0.54332 0.59413 0.5236 0.0
H733 H 0.53902 0.5679 0.45756 0.0
H734 H 0.49619 0.632 0.3949 0.0
H735 H 0.50491 0.60679 0.41763 0.0
C736 C 0.85183 0.81043 0.79134 0.0
C737 C 0.85897 0.81938 0.81076 0.0
C738 C 0.86473 0.80404 0.77562 0.0
C739 C 0.91527 0.81745 0.7603 0.0
H740 H 0.90116 0.77579 0.71333 0.0
C741 C 0.96165 0.80661 0.68591 0.0
C742 C 0.95085 0.80697 0.66772 0.0
C743 C 0.95209 0.80492 0.70456 0.0
C744 C 0.90531 0.78745 0.72637 0.0
H745 H 0.88477 0.82744 0.82973 0.0
H746 H 0.90761 0.81549 0.80248 0.0
H747 H 0.88191 0.77659 0.74469 0.0
H748 H 0.92156 0.80541 0.65479 0.0
H749 H 0.90495 0.80221 0.68724 0.0
H750 H 0.9386 0.82834 0.7418 0.0
C751 C 0.89207 0.81383 0.79913 0.0
C752 C 0.89426 0.78796 0.74434 0.0
C753 C 0.87908 0.82039 0.81482 0.0
C754 C 0.93032 0.80529 0.66853 0.0
C755 C 0.92079 0.80327 0.68707 0.0
C756 C 0.92646 0.81674 0.74241 0.0
C757 C 0.88509 0.80638 0.77908 0.0
C758 C 0.89873 0.80339 0.76134 0.0
C759 C 0.93156 0.80318 0.7053 0.0
C760 C 0.92125 0.80213 0.72508 0.0
H761 H 0.83631 0.80983 0.78798 0.0
H762 H 0.85871 0.79867 0.76042 0.0
H763 H 0.91904 0.82978 0.77287 0.0
H764 H 0.97749 0.80787 0.6858 0.0
H765 H 0.96074 0.80486 0.71838 0.0
C766 C 0.06052 0.98721 0.51013 0.0
C767 C 0.06105 0.97669 0.49001 0.0
C768 C 0.06013 0.97578 0.52693 0.0
C769 C 0.06346 0.92134 0.54161 0.0
H770 H 0.02232 0.93864 0.57944 0.0
C771 C 1.00002 0.87987 0.58985 0.0
C772 C 0.01025 0.86444 0.5979 0.0
C773 C 0.01002 0.89612 0.58112 0.0
C774 C 0.03388 0.93359 0.56905 0.0
H775 H 0.06342 0.94651 0.47152 0.0
H776 H 0.0622 0.92635 0.50056 0.0
H777 H 0.03437 0.962 0.55532 0.0
H778 H 0.03916 0.85462 0.60394 0.0
H779 H 0.0567 0.88324 0.5888 0.0
H780 H 0.06186 0.89223 0.55438 0.0
C781 C 0.06228 0.94337 0.50367 0.0
C782 C 0.04104 0.94715 0.55536 0.0
C783 C 0.06281 0.95484 0.48697 0.0
C784 C 0.03082 0.86622 0.59783 0.0
C785 C 0.04087 0.88254 0.58904 0.0
C786 C 0.05618 0.90769 0.55521 0.0
C787 C 0.06015 0.95359 0.52384 0.0
C788 C 0.05545 0.94092 0.54095 0.0
C789 C 0.03056 0.89746 0.58022 0.0
C790 C 0.04079 0.91335 0.56858 0.0
H791 H 0.05915 0.00409 0.51277 0.0
H792 H 0.05891 0.98424 0.54225 0.0
H793 H 0.07483 0.91617 0.53102 0.0
H794 H 0.98418 0.87905 0.58966 0.0
H795 H 0.00153 0.90707 0.57423 0.0
C796 C 0.17329 0.73085 0.72568 0.0
C797 C 0.16667 0.72479 0.74441 0.0
C798 C 0.16013 0.73744 0.71189 0.0
C799 C 0.11265 0.76071 0.7116 0.0
H800 H 0.11277 0.74326 0.65267 0.0
C801 C 0.04981 0.77785 0.66008 0.0
C802 C 0.05426 0.78413 0.64078 0.0
C803 C 0.06421 0.77056 0.67185 0.0
C804 C 0.11273 0.74849 0.66907 0.0
H805 H 0.1413 0.71976 0.76313 0.0
H806 H 0.1182 0.73129 0.73915 0.0
H807 H 0.13672 0.73003 0.67466 0.0
H808 H 0.07737 0.7875 0.61863 0.0
H809 H 0.10271 0.77499 0.63943 0.0
H810 H 0.08886 0.77924 0.70619 0.0
C811 C 0.13354 0.73132 0.73519 0.0
C812 C 0.1264 0.74088 0.68164 0.0
C813 C 0.14667 0.72468 0.74886 0.0
C814 C 0.07347 0.78278 0.63344 0.0
C815 C 0.08796 0.77551 0.6453 0.0
C816 C 0.09909 0.76837 0.69908 0.0
C817 C 0.14016 0.73813 0.71672 0.0
C818 C 0.1263 0.74669 0.70308 0.0
C819 C 0.08349 0.76945 0.66471 0.0
C820 C 0.09876 0.76213 0.6777 0.0
H821 H 0.18872 0.73114 0.72208 0.0
H822 H 0.16565 0.74269 0.69782 0.0
H823 H 0.1125 0.76585 0.72802 0.0
H824 H 0.03513 0.77849 0.66615 0.0
H825 H 0.06016 0.76561 0.68653 0.0
C826 C 0.9646 0.60333 0.48473 0.0
C827 C 0.94885 0.60023 0.47078 0.0
C828 C 0.97116 0.62375 0.49326 0.0
C829 C 0.9504 0.67484 0.50632 0.0
H830 H 0.00326 0.69471 0.52353 0.0
C831 C 0.96598 0.75684 0.55181 0.0
C832 C 0.97869 0.75834 0.56884 0.0
C833 C 0.96458 0.7387 0.53742 0.0
C834 C 0.98841 0.68931 0.51892 0.0
H835 H 0.92858 0.61549 0.45341 0.0
H836 H 0.94025 0.65133 0.46784 0.0
H837 H 0.99751 0.66092 0.50148 0.0
H838 H 0.00037 0.74216 0.58376 0.0
H839 H 0.99756 0.71021 0.55884 0.0
H840 H 0.94112 0.70268 0.52411 0.0
C841 C 0.94732 0.63811 0.4726 0.0
C842 C 0.98513 0.67001 0.50625 0.0
C843 C 0.94074 0.61771 0.4642 0.0
C844 C 0.9904 0.74149 0.57083 0.0
C845 C 0.98889 0.72323 0.55646 0.0
C846 C 0.95365 0.69401 0.51896 0.0
C847 C 0.96202 0.64133 0.4879 0.0
C848 C 0.96605 0.66252 0.4999 0.0
C849 C 0.97572 0.7215 0.53977 0.0
C850 C 0.97266 0.70147 0.52553 0.0
H851 H 0.97085 0.58993 0.49009 0.0
H852 H 0.98243 0.62566 0.50507 0.0
H853 H 0.93546 0.66932 0.50218 0.0
H854 H 0.95694 0.76963 0.54964 0.0
H855 H 0.95458 0.73809 0.52452 0.0
C856 C 0.75288 0.77923 0.253 0.0
C857 C 0.73993 0.77467 0.23621 0.0
C858 C 0.76505 0.79772 0.25531 0.0
C859 C 0.78737 0.84139 0.23079 0.0
H860 H 0.77815 0.87449 0.28337 0.0
C861 C 0.81706 0.92911 0.25147 0.0
C862 C 0.82194 0.93603 0.27219 0.0
C863 C 0.80833 0.90877 0.24562 0.0
C864 C 0.78128 0.8654 0.26876 0.0
H865 H 0.73042 0.78487 0.20788 0.0
H866 H 0.7522 0.81724 0.21163 0.0
H867 H 0.76207 0.83952 0.27532 0.0
H868 H 0.82262 0.92673 0.30278 0.0
H869 H 0.80839 0.89127 0.29258 0.0
H870 H 0.80698 0.86716 0.22441 0.0
C871 C 0.75281 0.80653 0.22305 0.0
C872 C 0.77193 0.84535 0.26413 0.0
C873 C 0.74043 0.78806 0.22087 0.0
C874 C 0.81868 0.922 0.28675 0.0
C875 C 0.81036 0.90165 0.28088 0.0
C876 C 0.79705 0.86143 0.23557 0.0
C877 C 0.76467 0.81189 0.24071 0.0
C878 C 0.77494 0.83309 0.24518 0.0
C879 C 0.8046 0.89487 0.26034 0.0
C880 C 0.79422 0.87365 0.25472 0.0
H881 H 0.75282 0.76895 0.26485 0.0
H882 H 0.77424 0.80137 0.26893 0.0
H883 H 0.78987 0.83223 0.21603 0.0
H884 H 0.81941 0.93961 0.23992 0.0
H885 H 0.804 0.9042 0.22969 0.0
C886 C 0.742 0.19048 0.26374 0.0
C887 C 0.72535 0.19247 0.2761 0.0
C888 C 0.75475 0.17472 0.26578 0.0
C889 C 0.76905 0.13667 0.30009 0.0
H890 H 0.78364 0.10353 0.2492 0.0
C891 C 0.79932 0.05503 0.29911 0.0
C892 C 0.81441 0.04926 0.28539 0.0
C893 C 0.78985 0.07349 0.29806 0.0
C894 C 0.77998 0.11279 0.26355 0.0
H895 H 0.70926 0.1803 0.30079 0.0
H896 H 0.73165 0.15277 0.30465 0.0
H897 H 0.76516 0.1346 0.24801 0.0
H898 H 0.83127 0.05842 0.25965 0.0
H899 H 0.81479 0.09089 0.25792 0.0
H900 H 0.78373 0.11481 0.31565 0.0
C901 C 0.73494 0.1634 0.29339 0.0
C902 C 0.76937 0.13062 0.26288 0.0
C903 C 0.72214 0.17914 0.29126 0.0
C904 C 0.81966 0.06235 0.2704 0.0
C905 C 0.81018 0.08094 0.26938 0.0
C906 C 0.77972 0.11889 0.30077 0.0
C907 C 0.75115 0.16069 0.28034 0.0
C908 C 0.76357 0.14262 0.28114 0.0
C909 C 0.79524 0.0868 0.28332 0.0
C910 C 0.78507 0.10654 0.28251 0.0
H911 H 0.7448 0.2008 0.25211 0.0
H912 H 0.76728 0.1733 0.25574 0.0
H913 H 0.76507 0.14575 0.31443 0.0
H914 H 0.79476 0.04529 0.31077 0.0
H915 H 0.77814 0.07722 0.30873 0.0
C916 C 0.37862 0.04538 0.95387 0.0
C917 C 0.39811 0.04046 0.95609 0.0
C918 C 0.36326 0.03159 0.95912 0.0
C919 C 0.35291 0.97575 0.96485 0.0
H920 H 0.31072 0.99385 0.00104 0.0
C921 C 0.31099 0.91788 0.00911 0.0
C922 C 0.29045 0.91672 0.00819 0.0
C923 C 0.32187 0.93465 0.00228 0.0
C924 C 0.32225 0.98866 0.99067 0.0
H925 H 0.417 0.01813 0.96634 0.0
H926 H 0.39038 0.99391 0.97519 0.0
H927 H 0.33412 0.0203 0.98913 0.0
H928 H 0.26521 0.93296 1.00048 0.0
H929 H 0.28451 0.96264 0.9885 0.0
H930 H 0.34156 0.94423 0.9667 0.0
C931 C 0.38683 0.00812 0.96908 0.0
C932 C 0.3356 0.00374 0.98386 0.0
C933 C 0.40206 0.0219 0.96401 0.0
C934 C 0.28101 0.9334 0.00133 0.0
C935 C 0.29202 0.95035 0.99447 0.0
C936 C 0.33968 0.9608 0.97161 0.0
C937 C 0.36727 0.01266 0.96649 0.0
C938 C 0.35141 0.99733 0.97142 0.0
C939 C 0.31255 0.95072 0.99433 0.0
C940 C 0.32461 0.96703 0.98512 0.0
H941 H 0.37536 0.05973 0.94787 0.0
H942 H 0.3483 0.03546 0.95702 0.0
H943 H 0.36469 0.97039 0.95488 0.0
H944 H 0.31876 0.9055 0.0146 0.0
H945 H 0.33768 0.9348 0.00282 0.0
C946 C 0.2956 0.35884 0.32734 0.0
C947 C 0.31432 0.36878 0.3309 0.0
C948 C 0.2798 0.37057 0.32386 0.0
C949 C 0.26251 0.42427 0.33091 0.0
H950 H 0.22444 0.39926 0.28948 0.0
C951 C 0.19342 0.4652 0.30827 0.0
C952 C 0.17599 0.45223 0.30757 0.0
C953 C 0.21153 0.45668 0.31036 0.0
C954 C 0.23493 0.40643 0.30112 0.0
H955 H 0.33152 0.39848 0.33379 0.0
H956 H 0.30375 0.41935 0.32749 0.0
H957 H 0.25396 0.38134 0.29456 0.0
H958 H 0.16394 0.42019 0.30861 0.0
H959 H 0.19532 0.40547 0.31211 0.0
H960 H 0.24321 0.44932 0.33748 0.0
C961 C 0.30123 0.4025 0.32761 0.0
C962 C 0.2518 0.39615 0.30409 0.0
C963 C 0.31708 0.39067 0.33114 0.0
C964 C 0.17704 0.43066 0.30907 0.0
C965 C 0.19505 0.42216 0.31094 0.0
C966 C 0.2456 0.43464 0.32785 0.0
C967 C 0.28245 0.39251 0.32372 0.0
C968 C 0.26555 0.40465 0.31936 0.0
C969 C 0.21248 0.43502 0.3115 0.0
C970 C 0.23144 0.42553 0.31327 0.0
H971 H 0.29332 0.34191 0.32702 0.0
H972 H 0.26548 0.36243 0.3213 0.0
H973 H 0.2728 0.43119 0.34284 0.0
H974 H 0.19309 0.4819 0.30719 0.0
H975 H 0.22477 0.46692 0.31072 0.0
C976 C 0.10049 0.00496 0.4776 0.0
C977 C 0.08341 0.01591 0.47804 0.0
C978 C 0.11863 0.01593 0.48222 0.0
C979 C 0.155 0.04454 0.49886 0.0
H980 H 0.16214 0.0893 0.46448 0.0
C981 C 0.22611 0.0997 0.49667 0.0
C982 C 0.23388 0.09949 0.47679 0.0
C983 C 0.20741 0.09039 0.49948 0.0
C984 C 0.1603 0.07696 0.47427 0.0
H985 H 0.07137 0.04627 0.48559 0.0
H986 H 0.10309 0.06561 0.49336 0.0
H987 H 0.12991 0.0711 0.46665 0.0
H988 H 0.22801 0.08983 0.44429 0.0
H989 H 0.19513 0.07423 0.4492 0.0
H990 H 0.18558 0.05039 0.50625 0.0
C991 C 0.10256 0.04864 0.48926 0.0
C992 C 0.14186 0.06665 0.47564 0.0
C993 C 0.08447 0.03764 0.48485 0.0
C994 C 0.22243 0.09022 0.45978 0.0
C995 C 0.20362 0.08135 0.46258 0.0
C996 C 0.17342 0.05517 0.49779 0.0
C997 C 0.11987 0.03801 0.48722 0.0
C998 C 0.13908 0.05013 0.48769 0.0
C999 C 0.19602 0.08117 0.48244 0.0
C1000 C 0.17627 0.0712 0.48518 0.0
H1001 H 0.09994 0.98819 0.47228 0.0
H1002 H 0.13177 0.00736 0.48048 0.0
H1003 H 0.15322 0.03184 0.50824 0.0
H1004 H 0.23465 0.10661 0.51007 0.0
H1005 H 0.2018 0.0905 0.51493 0.0
C1006 C 0.76572 0.17536 0.73962 0.0
C1007 C 0.7684 0.19437 0.75286 0.0
C1008 C 0.75652 0.15756 0.74651 0.0
C1009 C 0.7213 0.14379 0.78587 0.0
H1010 H 0.73144 0.08667 0.76283 0.0
C1011 C 0.67618 0.06964 0.80647 0.0
C1012 C 0.66985 0.05488 0.78958 0.0
C1013 C 0.68968 0.08638 0.80381 0.0
C1014 C 0.72842 0.10255 0.76934 0.0
H1015 H 0.7649 0.20957 0.78393 0.0
H1016 H 0.74927 0.17817 0.79642 0.0
H1017 H 0.754 0.11595 0.75603 0.0
H1018 H 0.67275 0.04614 0.75666 0.0
H1019 H 0.69641 0.07527 0.75209 0.0
H1020 H 0.69568 0.13026 0.79914 0.0
C1021 C 0.75381 0.1771 0.78052 0.0
C1022 C 0.74132 0.11934 0.76545 0.0
C1023 C 0.76295 0.19498 0.77352 0.0
C1024 C 0.67729 0.05725 0.76998 0.0
C1025 C 0.69096 0.07383 0.76738 0.0
C1026 C 0.70851 0.12695 0.78994 0.0
C1027 C 0.74993 0.15834 0.76691 0.0
C1028 C 0.7377 0.14024 0.77327 0.0
C1029 C 0.69733 0.08854 0.78427 0.0
C1030 C 0.71172 0.10621 0.78135 0.0
H1031 H 0.76998 0.17462 0.72365 0.0
H1032 H 0.75367 0.14354 0.73549 0.0
H1033 H 0.71783 0.15966 0.79191 0.0
H1034 H 0.67073 0.06825 0.82177 0.0
H1035 H 0.69439 0.09745 0.81711 0.0
C1036 C 0.4226 0.98281 0.55795 0.0
C1037 C 0.44288 0.98691 0.55672 0.0
C1038 C 0.40984 0.99728 0.55238 0.0
C1039 C 0.38639 0.03553 0.54881 0.0
H1040 H 0.39768 0.05851 0.49793 0.0
C1041 C 0.33861 0.09603 0.5176 0.0
C1042 C 0.33381 0.09173 0.49653 0.0
C1043 C 0.35265 0.08473 0.52613 0.0
C1044 C 0.39432 0.05221 0.51216 0.0
H1045 H 0.46589 0.00916 0.54905 0.0
H1046 H 0.44364 0.03471 0.53945 0.0
H1047 H 0.42061 0.03588 0.51106 0.0
H1048 H 0.34019 0.07235 0.4679 0.0
H1049 H 0.36455 0.05276 0.48276 0.0
H1050 H 0.35982 0.05147 0.54957 0.0
C1051 C 0.43754 0.02029 0.54457 0.0
C1052 C 0.40755 0.03943 0.5198 0.0
C1053 C 0.45027 0.00583 0.55021 0.0
C1054 C 0.34351 0.0761 0.48417 0.0
C1055 C 0.35759 0.06494 0.49266 0.0
C1056 C 0.37319 0.04843 0.54121 0.0
C1057 C 0.41717 0.01608 0.5454 0.0
C1058 C 0.40363 0.03073 0.53808 0.0
C1059 C 0.36227 0.06906 0.51373 0.0
C1060 C 0.37689 0.05666 0.52265 0.0
H1061 H 0.4167 0.96827 0.56299 0.0
H1062 H 0.39423 0.99346 0.55297 0.0
H1063 H 0.38306 0.02922 0.56304 0.0
H1064 H 0.33141 0.10798 0.52755 0.0
H1065 H 0.35606 0.08835 0.5424 0.0
C1066 C 0.56846 0.5103 0.54057 0.0
C1067 C 0.54926 0.50144 0.53765 0.0
C1068 C 0.58435 0.49815 0.53485 0.0
C1069 C 0.59571 0.44189 0.52696 0.0
H1070 H 0.64604 0.46378 0.50921 0.0
C1071 C 0.65944 0.38808 0.50729 0.0
C1072 C 0.67817 0.39588 0.51459 0.0
C1073 C 0.64386 0.40126 0.50846 0.0
C1074 C 0.63211 0.45747 0.51431 0.0
H1075 H 0.53135 0.47369 0.52534 0.0
H1076 H 0.55893 0.45258 0.51452 0.0
H1077 H 0.61862 0.4865 0.51276 0.0
H1078 H 0.69516 0.42384 0.52868 0.0
H1079 H 0.66795 0.44677 0.53079 0.0
H1080 H 0.60916 0.41295 0.52864 0.0
C1081 C 0.56191 0.46867 0.52176 0.0
C1082 C 0.61636 0.4705 0.51634 0.0
C1083 C 0.54611 0.48077 0.52764 0.0
C1084 C 0.68094 0.41726 0.52293 0.0
C1085 C 0.66536 0.43048 0.52401 0.0
C1086 C 0.61139 0.42888 0.52485 0.0
C1087 C 0.58127 0.4769 0.52601 0.0
C1088 C 0.59794 0.46291 0.52276 0.0
C1089 C 0.64659 0.42263 0.51687 0.0
C1090 C 0.62982 0.43649 0.51859 0.0
H1091 H 0.57113 0.52614 0.54856 0.0
H1092 H 0.59898 0.50504 0.53851 0.0
H1093 H 0.58194 0.43556 0.53244 0.0
H1094 H 0.65676 0.37173 0.50069 0.0
H1095 H 0.62966 0.39473 0.50259 0.0
C1096 C 0.69371 0.22625 0.32204 0.0
C1097 C 0.70824 0.22612 0.30697 0.0
C1098 C 0.69765 0.23595 0.34208 0.0
C1099 C 0.73633 0.25673 0.3796 0.0
H1100 H 0.69968 0.29871 0.39824 0.0
C1101 C 0.75486 0.32062 0.44793 0.0
C1102 C 0.73995 0.32726 0.46151 0.0
C1103 C 0.75049 0.30736 0.42967 0.0
C1104 C 0.70989 0.28684 0.39351 0.0
H1105 H 0.73858 0.23442 0.30112 0.0
H1106 H 0.74579 0.25107 0.33651 0.0
H1107 H 0.69345 0.2755 0.36605 0.0
H1108 H 0.70867 0.32545 0.46641 0.0
H1109 H 0.70096 0.30172 0.43462 0.0
H1110 H 0.75269 0.26779 0.40709 0.0
C1111 C 0.73128 0.24384 0.33277 0.0
C1112 C 0.70633 0.27356 0.37502 0.0
C1113 C 0.72724 0.23427 0.31261 0.0
C1114 C 0.72046 0.32067 0.45619 0.0
C1115 C 0.71607 0.3071 0.43795 0.0
C1116 C 0.73977 0.26982 0.39823 0.0
C1117 C 0.7163 0.24547 0.34747 0.0
C1118 C 0.71962 0.25853 0.36776 0.0
C1119 C 0.73109 0.30008 0.42456 0.0
C1120 C 0.72675 0.28529 0.4053 0.0
H1121 H 0.67901 0.21982 0.31795 0.0
H1122 H 0.68593 0.23664 0.35318 0.0
H1123 H 0.74671 0.24514 0.37446 0.0
H1124 H 0.77004 0.32563 0.45144 0.0
H1125 H 0.76241 0.30288 0.41953 0.0
C1126 C 0.47488 0.04739 0.93731 0.0
C1127 C 0.46327 0.06327 0.93246 0.0
C1128 C 0.49213 0.04344 0.92669 0.0
C1129 C 0.52961 0.06261 0.8925 0.0
H1130 H 0.52866 0.00354 0.86971 0.0
C1131 C 0.58342 0.02848 0.82955 0.0
C1132 C 0.58854 0.00767 0.83008 0.0
C1133 C 0.56977 0.03739 0.84346 0.0
C1134 C 0.52945 0.02001 0.87621 0.0
H1135 H 0.46104 0.08865 0.91411 0.0
H1136 H 0.49161 0.08183 0.8953 0.0
H1137 H 0.50255 0.01596 0.89208 0.0
H1138 H 0.58465 0.9805 0.8465 0.0
H1139 H 0.56166 0.99621 0.87117 0.0
H1140 H 0.55676 0.06653 0.87669 0.0
C1141 C 0.48729 0.0724 0.90729 0.0
C1142 C 0.51439 0.02714 0.88898 0.0
C1143 C 0.46989 0.07631 0.91796 0.0
C1144 C 0.5807 0.99643 0.84548 0.0
C1145 C 0.5674 0.00542 0.85954 0.0
C1146 C 0.54493 0.05538 0.87982 0.0
C1147 C 0.49814 0.05539 0.91105 0.0
C1148 C 0.51436 0.04844 0.8974 0.0
C1149 C 0.56122 0.02573 0.85831 0.0
C1150 C 0.5451 0.03392 0.87167 0.0
H1151 H 0.4701 0.03745 0.94873 0.0
H1152 H 0.5004 0.03047 0.93014 0.0
H1153 H 0.52988 0.07913 0.89878 0.0
H1154 H 0.58926 0.03749 0.81782 0.0
H1155 H 0.56533 0.05303 0.842 0.0
C1156 C 0.35562 0.312 0.37102 0.0
C1157 C 0.34904 0.31021 0.35057 0.0
C1158 C 0.35387 0.29462 0.38187 0.0
C1159 C 0.34445 0.23673 0.37723 0.0
H1160 H 0.31738 0.249 0.42894 0.0
C1161 C 0.3073 0.17065 0.41813 0.0
C1162 C 0.30749 0.17294 0.43975 0.0
C1163 C 0.31406 0.18727 0.40765 0.0
C1164 C 0.32525 0.24528 0.41475 0.0
H1165 H 0.33662 0.28883 0.32494 0.0
H1166 H 0.33396 0.25811 0.34368 0.0
H1167 H 0.32794 0.27766 0.40973 0.0
H1168 H 0.315 0.19455 0.46733 0.0
H1169 H 0.32724 0.22347 0.44906 0.0
H1170 H 0.34184 0.20435 0.38223 0.0
C1171 C 0.34046 0.27293 0.35139 0.0
C1172 C 0.3313 0.26174 0.40371 0.0
C1173 C 0.34206 0.29041 0.34061 0.0
C1174 C 0.31452 0.19232 0.45067 0.0
C1175 C 0.32149 0.20893 0.44016 0.0
C1176 C 0.33858 0.22025 0.38838 0.0
C1177 C 0.34565 0.27507 0.37237 0.0
C1178 C 0.34077 0.25764 0.38473 0.0
C1179 C 0.3214 0.2066 0.41849 0.0
C1180 C 0.32865 0.22427 0.40717 0.0
H1181 H 0.36109 0.32718 0.37889 0.0
H1182 H 0.35827 0.29667 0.39792 0.0
H1183 H 0.35185 0.23311 0.36273 0.0
H1184 H 0.30185 0.15598 0.40922 0.0
H1185 H 0.31331 0.185 0.391 0.0
C1186 C 0.51704 0.51775 0.93276 0.0
C1187 C 0.53053 0.5023 0.92869 0.0
C1188 C 0.50276 0.52001 0.91813 0.0
C1189 C 0.4777 0.4904 0.8717 0.0
H1190 H 0.45616 0.54439 0.86864 0.0
C1191 C 0.41594 0.50184 0.81446 0.0
C1192 C 0.39945 0.51004 0.82451 0.0
C1193 C 0.43376 0.50245 0.82506 0.0
C1194 C 0.46214 0.52925 0.86928 0.0
H1195 H 0.54045 0.47756 0.90634 0.0
H1196 H 0.51609 0.48195 0.88018 0.0
H1197 H 0.48444 0.54256 0.89083 0.0
H1198 H 0.38886 0.52619 0.85313 0.0
H1199 H 0.42008 0.52774 0.87139 0.0
H1200 H 0.45541 0.47725 0.84992 0.0
C1201 C 0.51596 0.49195 0.89483 0.0
C1202 C 0.47823 0.52812 0.88212 0.0
C1203 C 0.53 0.48949 0.90964 0.0
C1204 C 0.40131 0.51965 0.84502 0.0
C1205 C 0.41917 0.52065 0.85544 0.0
C1206 C 0.46185 0.49161 0.85859 0.0
C1207 C 0.50192 0.50703 0.89898 0.0
C1208 C 0.48597 0.5086 0.88387 0.0
C1209 C 0.43545 0.51172 0.84569 0.0
C1210 C 0.45369 0.51097 0.85759 0.0
H1211 H 0.51726 0.52762 0.94751 0.0
H1212 H 0.49205 0.53151 0.92213 0.0
H1213 H 0.48295 0.47502 0.87282 0.0
H1214 H 0.4149 0.4943 0.79867 0.0
H1215 H 0.44616 0.49549 0.81723 0.0
C1216 C 0.75036 0.73488 0.2019 0.0
C1217 C 0.73048 0.73881 0.20176 0.0
C1218 C 0.75978 0.72808 0.1835 0.0
C1219 C 0.77027 0.69813 0.14583 0.0
H1220 H 0.75652 0.71545 0.09348 0.0
C1221 C 0.77957 0.64516 0.06909 0.0
C1222 C 0.785 0.65445 0.0515 0.0
C1223 C 0.77561 0.65767 0.08753 0.0
C1224 C 0.76077 0.7106 0.10797 0.0
H1225 H 0.70514 0.74022 0.18253 0.0
H1226 H 0.72128 0.72796 0.15041 0.0
H1227 H 0.74541 0.73493 0.12535 0.0
H1228 H 0.79089 0.68424 0.03963 0.0
H1229 H 0.78415 0.70612 0.07196 0.0
H1230 H 0.78563 0.67383 0.12848 0.0
C1231 C 0.72978 0.7302 0.16455 0.0
C1232 C 0.75421 0.72164 0.12625 0.0
C1233 C 0.72044 0.73701 0.18292 0.0
C1234 C 0.78667 0.67658 0.05288 0.0
C1235 C 0.78272 0.68912 0.07138 0.0
C1236 C 0.77687 0.68714 0.12757 0.0
C1237 C 0.74945 0.72514 0.16464 0.0
C1238 C 0.75851 0.71525 0.14539 0.0
C1239 C 0.77703 0.6798 0.08891 0.0
C1240 C 0.77182 0.69292 0.10838 0.0
H1241 H 0.75833 0.73622 0.21633 0.0
H1242 H 0.77502 0.72466 0.1841 0.0
H1243 H 0.77374 0.69262 0.16024 0.0
H1244 H 0.77808 0.62817 0.06858 0.0
H1245 H 0.77094 0.64991 0.10058 0.0
C1246 C 0.98689 1.00049 0.09038 0.0
C1247 C 0.00037 0.0179 0.09017 0.0
C1248 C 0.97353 0.99982 0.10647 0.0
C1249 C 0.95011 0.03454 0.14778 0.0
H1250 H 0.9382 0.98255 0.17089 0.0
C1251 C 0.90785 0.0322 0.22368 0.0
C1252 C 0.89412 0.01515 0.225 0.0
C1253 C 0.9201 0.03241 0.20666 0.0
C1254 C 0.94117 0.99714 0.16444 0.0
H1255 H 0.0109 0.04798 0.10659 0.0
H1256 H 0.98771 0.04692 0.13485 0.0
H1257 H 0.96113 0.98299 0.14247 0.0
H1258 H 0.88236 0.98505 0.20927 0.0
H1259 H 0.90366 0.9855 0.17946 0.0
H1260 H 0.93027 0.04872 0.16982 0.0
C1261 C 0.98713 0.03391 0.12246 0.0
C1262 C 0.95433 0.99739 0.14814 0.0
C1263 C 0.00044 0.03454 0.10638 0.0
C1264 C 0.89279 0.99841 0.20876 0.0
C1265 C 0.90509 0.99861 0.19174 0.0
C1266 C 0.93698 0.03429 0.16407 0.0
C1267 C 0.97342 0.01659 0.12267 0.0
C1268 C 0.95906 0.01613 0.13969 0.0
C1269 C 0.91896 0.01557 0.19052 0.0
C1270 C 0.93243 0.01562 0.17269 0.0
H1271 H 0.98652 0.98759 0.07789 0.0
H1272 H 0.96305 0.98636 0.106 0.0
H1273 H 0.95312 0.04915 0.1414 0.0
H1274 H 0.90933 0.04533 0.23592 0.0
H1275 H 0.93078 0.0456 0.20636 0.0
C1276 C 0.25182 0.77615 0.22001 0.0
C1277 C 0.26821 0.76403 0.21969 0.0
C1278 C 0.24902 0.78892 0.20461 0.0
C1279 C 0.27546 0.81551 0.16538 0.0
H1280 H 0.22631 0.80918 0.13508 0.0
C1281 C 0.27137 0.83322 0.08302 0.0
C1282 C 0.25544 0.84321 0.07604 0.0
C1283 C 0.27142 0.82691 0.10251 0.0
C1284 C 0.23997 0.81148 0.14365 0.0
H1285 H 0.29442 0.75565 0.2031 0.0
H1286 H 0.28996 0.77838 0.17658 0.0
H1287 H 0.22945 0.79195 0.16605 0.0
H1288 H 0.22691 0.85429 0.08428 0.0
H1289 H 0.22697 0.84299 0.11876 0.0
H1290 H 0.28618 0.83461 0.14292 0.0
C1291 C 0.27929 0.77814 0.18875 0.0
C1292 C 0.24179 0.80158 0.16134 0.0
C1293 C 0.28192 0.76519 0.20394 0.0
C1294 C 0.23942 0.84667 0.08919 0.0
C1295 C 0.23943 0.84016 0.10888 0.0
C1296 C 0.27361 0.82547 0.14786 0.0
C1297 C 0.26275 0.79003 0.18881 0.0
C1298 C 0.25977 0.80294 0.17197 0.0
C1299 C 0.25556 0.83034 0.11576 0.0
C1300 C 0.25609 0.82296 0.13634 0.0
H1301 H 0.24112 0.77558 0.2321 0.0
H1302 H 0.2362 0.79799 0.2051 0.0
H1303 H 0.28936 0.81719 0.1735 0.0
H1304 H 0.28399 0.83018 0.07341 0.0
H1305 H 0.28388 0.81896 0.10707 0.0
C1306 C 0.01812 0.44803 0.09526 0.0
C1307 C 0.99806 0.44842 0.09927 0.0
C1308 C 0.03152 0.44807 0.11139 0.0
C1309 C 0.03503 0.43949 0.16625 0.0
H1310 H 0.08182 0.47705 0.16682 0.0
C1311 C 0.0903 0.44659 0.2328 0.0
C1312 C 0.09798 0.46695 0.24061 0.0
C1313 C 0.08009 0.44299 0.21414 0.0
C1314 C 0.06878 0.46657 0.16694 0.0
H1315 H 0.97603 0.44871 0.12278 0.0
H1316 H 0.99925 0.44899 0.1511 0.0
H1317 H 0.05981 0.4725 0.13705 0.0
H1318 H 0.10152 0.49943 0.23458 0.0
H1319 H 0.08314 0.49328 0.20213 0.0
H1320 H 0.04339 0.43427 0.19642 0.0
C1321 C 0.00479 0.4483 0.13558 0.0
C1322 C 0.05629 0.46373 0.14974 0.0
C1323 C 0.99148 0.44823 0.11946 0.0
C1324 C 0.09578 0.48356 0.22896 0.0
C1325 C 0.08532 0.47999 0.21031 0.0
C1326 C 0.04742 0.4424 0.18342 0.0
C1327 C 0.02502 0.44856 0.13181 0.0
C1328 C 0.03914 0.45033 0.1493 0.0
C1329 C 0.07703 0.45971 0.20287 0.0
C1330 C 0.06439 0.45609 0.18408 0.0
H1331 H 0.02347 0.44859 0.0798 0.0
H1332 H 0.04697 0.44806 0.10793 0.0
H1333 H 0.02208 0.42887 0.16634 0.0
H1334 H 0.092 0.43337 0.24124 0.0
H1335 H 0.07437 0.42708 0.20865 0.0
C1336 C 0.29457 0.72043 0.28953 0.0
C1337 C 0.2981 0.72218 0.26873 0.0
C1338 C 0.30924 0.71421 0.30194 0.0
C1339 C 0.35773 0.69036 0.29947 0.0
H1340 H 0.36717 0.72464 0.35227 0.0
C1341 C 0.4336 0.70955 0.33585 0.0
C1342 C 0.43613 0.71086 0.35722 0.0
C1343 C 0.41509 0.70516 0.32687 0.0
C1344 C 0.36452 0.71459 0.33778 0.0
H1345 H 0.31907 0.71779 0.24423 0.0
H1346 H 0.34482 0.70737 0.26571 0.0
H1347 H 0.33736 0.72799 0.33293 0.0
H1348 H 0.42145 0.70814 0.38605 0.0
H1349 H 0.38863 0.70085 0.3703 0.0
H1350 H 0.38545 0.67785 0.30386 0.0
C1351 C 0.33079 0.71056 0.27261 0.0
C1352 C 0.34741 0.7165 0.32666 0.0
C1353 C 0.31617 0.71677 0.26031 0.0
C1354 C 0.41986 0.70691 0.36949 0.0
C1355 C 0.40113 0.70293 0.3605 0.0
C1356 C 0.37487 0.68856 0.31052 0.0
C1357 C 0.32767 0.70951 0.29369 0.0
C1358 C 0.34411 0.70492 0.30703 0.0
C1359 C 0.39854 0.7024 0.33911 0.0
C1360 C 0.37875 0.70114 0.32949 0.0
H1361 H 0.28069 0.72453 0.29629 0.0
H1362 H 0.30624 0.71335 0.31803 0.0
H1363 H 0.35548 0.6808 0.28465 0.0
H1364 H 0.44593 0.71273 0.32611 0.0
H1365 H 0.41361 0.70515 0.31042 0.0
C1366 C 0.0054 0.41975 0.04584 0.0
C1367 C 0.98964 0.41921 0.05935 0.0
C1368 C 0.01131 0.40112 0.0348 0.0
C1369 C 0.00453 0.34235 0.02769 0.0
H1370 H 0.01018 0.34974 0.97021 0.0
C1371 C 0.99765 0.27385 0.95931 0.0
C1372 C 0.00851 0.27661 0.94158 0.0
C1373 C 0.99849 0.28972 0.9763 0.0
C1374 C 0.00907 0.34733 0.98622 0.0
H1375 H 0.96807 0.39918 0.07272 0.0
H1376 H 0.97815 0.36632 0.05319 0.0
H1377 H 0.00662 0.38018 0.99556 0.0
H1378 H 0.03014 0.29697 0.92841 0.0
H1379 H 0.03227 0.32405 0.95814 0.0
H1380 H 0.00656 0.30921 0.01798 0.0
C1381 C 0.98631 0.38101 0.05142 0.0
C1382 C 0.00702 0.36489 0.00083 0.0
C1383 C 0.98053 0.39972 0.06261 0.0
C1384 C 0.02137 0.2946 0.94176 0.0
C1385 C 0.02247 0.31019 0.95876 0.0
C1386 C 0.00666 0.32466 0.01296 0.0
C1387 C 0.00126 0.38162 0.03675 0.0
C1388 C 0.0047 0.36269 0.02174 0.0
C1389 C 0.0104 0.30844 0.97588 0.0
C1390 C 0.00895 0.32696 0.99202 0.0
H1391 H 0.01232 0.43474 0.04293 0.0
H1392 H 0.0231 0.40213 0.0239 0.0
H1393 H 0.00277 0.34014 0.04369 0.0
H1394 H 0.98758 0.26013 0.95952 0.0
H1395 H 0.98898 0.28785 0.9892 0.0
C1396 C 0.66238 0.73366 0.24662 0.0
C1397 C 0.68072 0.7339 0.25614 0.0
C1398 C 0.64531 0.7297 0.25748 0.0
C1399 C 0.62511 0.70797 0.30304 0.0
H1400 H 0.58527 0.74735 0.2984 0.0
C1401 C 0.55587 0.71486 0.35507 0.0
C1402 C 0.53884 0.72053 0.34584 0.0
C1403 C 0.57338 0.71378 0.34399 0.0
C1404 C 0.59606 0.73595 0.29965 0.0
H1405 H 0.69586 0.72956 0.28404 0.0
H1406 H 0.66587 0.72262 0.30327 0.0
H1407 H 0.61533 0.75036 0.27921 0.0
H1408 H 0.52624 0.72765 0.31744 0.0
H1409 H 0.5563 0.72494 0.298 0.0
H1410 H 0.60563 0.69353 0.32353 0.0
C1411 C 0.66468 0.72539 0.28738 0.0
C1412 C 0.61334 0.73774 0.28865 0.0
C1413 C 0.68179 0.72947 0.2765 0.0
C1414 C 0.53925 0.72359 0.32504 0.0
C1415 C 0.55654 0.7222 0.31395 0.0
C1416 C 0.60765 0.70606 0.314 0.0
C1417 C 0.64625 0.72587 0.27809 0.0
C1418 C 0.62801 0.7237 0.29007 0.0
C1419 C 0.57402 0.71813 0.32347 0.0
C1420 C 0.59283 0.71994 0.31226 0.0
H1421 H 0.66129 0.73719 0.23098 0.0
H1422 H 0.63133 0.72995 0.24983 0.0
H1423 H 0.63619 0.69691 0.3044 0.0
H1424 H 0.55592 0.71247 0.37112 0.0
H1425 H 0.58658 0.7106 0.35179 0.0
C1426 C 0.04312 0.06404 0.0371 0.0
C1427 C 0.03679 0.04278 0.03173 0.0
C1428 C 0.04397 0.07789 0.0223 0.0
C1429 C 0.02052 0.08402 0.97298 0.0
H1430 H 0.05648 0.13363 0.97625 0.0
C1431 C 0.00372 0.15767 0.93493 0.0
C1432 C 0.0194 0.16932 0.92704 0.0
C1433 C 0.00716 0.14082 0.94581 0.0
C1434 C 0.04641 0.11975 0.97487 0.0
H1435 H 0.02763 0.01884 0.00666 0.0
H1436 H 0.02962 0.04288 0.98039 0.0
H1437 H 0.06212 0.10627 0.99757 0.0
H1438 H 0.05094 0.17189 0.92385 0.0
H1439 H 0.05686 0.14239 0.94232 0.0
H1440 H 0.00492 0.09744 0.95011 0.0
C1441 C 0.03356 0.04903 0.99613 0.0
C1442 C 0.04955 0.10413 0.98731 0.0
C1443 C 0.03272 0.03517 0.01103 0.0
C1444 C 0.03852 0.16341 0.92988 0.0
C1445 C 0.04193 0.14652 0.94061 0.0
C1446 C 0.01742 0.09963 0.96046 0.0
C1447 C 0.03854 0.07073 0.00173 0.0
C1448 C 0.03648 0.08619 0.9868 0.0
C1449 C 0.02634 0.13513 0.94896 0.0
C1450 C 0.03017 0.11787 0.96144 0.0
H1451 H 0.04619 0.07018 0.05305 0.0
H1452 H 0.04771 0.09445 0.02731 0.0
H1453 H 0.00998 0.07059 0.9723 0.0
H1454 H 0.98882 0.16183 0.93306 0.0
H1455 H 0.99478 0.13263 0.95222 0.0
C1456 C 0.35813 0.3107 0.29047 0.0
C1457 C 0.36515 0.32055 0.30965 0.0
C1458 C 0.37109 0.30329 0.27522 0.0
C1459 C 0.42162 0.31549 0.25963 0.0
H1460 H 0.40742 0.27176 0.21442 0.0
C1461 C 0.46674 0.30236 0.18443 0.0
C1462 C 0.45545 0.30172 0.1664 0.0
C1463 C 0.4577 0.30123 0.20345 0.0
C1464 C 0.41161 0.28398 0.22698 0.0
H1465 H 0.39081 0.32892 0.3288 0.0
H1466 H 0.41378 0.3154 0.30228 0.0
H1467 H 0.38841 0.27397 0.246 0.0
H1468 H 0.42582 0.299 0.15419 0.0
H1469 H 0.41014 0.29683 0.18725 0.0
H1470 H 0.44467 0.32563 0.24037 0.0
C1471 C 0.39827 0.31381 0.29878 0.0
C1472 C 0.40071 0.28529 0.24507 0.0
C1473 C 0.3852 0.3213 0.31405 0.0
C1474 C 0.43496 0.29963 0.16777 0.0
C1475 C 0.42596 0.29819 0.18669 0.0
C1476 C 0.43266 0.31401 0.24162 0.0
C1477 C 0.39142 0.3055 0.27889 0.0
C1478 C 0.40515 0.30152 0.26137 0.0
C1479 C 0.43721 0.29908 0.20474 0.0
C1480 C 0.42737 0.29867 0.22487 0.0
H1481 H 0.34265 0.31005 0.2869 0.0
H1482 H 0.36518 0.29721 0.26013 0.0
H1483 H 0.42538 0.32837 0.27169 0.0
H1484 H 0.48256 0.30394 0.18389 0.0
H1485 H 0.46671 0.30193 0.21713 0.0
C1486 C 0.56606 0.44934 0.97664 0.0
C1487 C 0.56407 0.47086 0.98284 0.0
C1488 C 0.56463 0.43506 0.99101 0.0
C1489 C 0.56143 0.42896 0.04655 0.0
H1490 H 0.52164 0.38495 0.02713 0.0
C1491 C 0.5313 0.35933 0.09071 0.0
C1492 C 0.51076 0.35612 0.09037 0.0
C1493 C 0.54064 0.37425 0.0795 0.0
C1494 C 0.53281 0.39711 0.03276 0.0
H1495 H 0.56086 0.49479 0.00885 0.0
H1496 H 0.55835 0.46983 0.03422 0.0
H1497 H 0.53492 0.40848 0.00364 0.0
H1498 H 0.48398 0.36708 0.07903 0.0
H1499 H 0.50025 0.39273 0.0595 0.0
H1500 H 0.55883 0.41752 0.07593 0.0
C1501 C 0.56107 0.46392 0.0183 0.0
C1502 C 0.54059 0.41044 0.01925 0.0
C1503 C 0.56252 0.47821 0.00385 0.0
C1504 C 0.49981 0.36893 0.07953 0.0
C1505 C 0.50911 0.38361 0.06826 0.0
C1506 C 0.55377 0.41533 0.06009 0.0
C1507 C 0.56116 0.4421 0.01185 0.0
C1508 C 0.55479 0.42672 0.02601 0.0
C1509 C 0.52959 0.38601 0.06766 0.0
C1510 C 0.53908 0.39958 0.05337 0.0
H1511 H 0.56746 0.44347 0.96048 0.0
H1512 H 0.56513 0.41838 0.98563 0.0
H1513 H 0.57236 0.44135 0.05218 0.0
H1514 H 0.54018 0.34976 0.09894 0.0
H1515 H 0.55647 0.37584 0.07929 0.0
C1516 C 0.65416 0.22543 0.2448 0.0
C1517 C 0.67419 0.22598 0.24045 0.0
C1518 C 0.64094 0.23183 0.2311 0.0
C1519 C 0.63329 0.24095 0.17767 0.0
H1520 H 0.59557 0.27908 0.20229 0.0
C1521 C 0.57807 0.28012 0.12955 0.0
C1522 C 0.559 0.28115 0.13737 0.0
C1523 C 0.59311 0.27369 0.14129 0.0
C1524 C 0.60586 0.26827 0.19516 0.0
H1525 H 0.69619 0.23275 0.21822 0.0
H1526 H 0.67291 0.24383 0.19384 0.0
H1527 H 0.61982 0.26647 0.22397 0.0
H1528 H 0.54074 0.27586 0.1635 0.0
H1529 H 0.56671 0.2644 0.18365 0.0
H1530 H 0.61902 0.24252 0.14884 0.0
C1531 C 0.66747 0.23848 0.2079 0.0
C1532 C 0.61977 0.26108 0.2076 0.0
C1533 C 0.68075 0.23217 0.22175 0.0
C1534 C 0.55528 0.27544 0.15704 0.0
C1535 C 0.57023 0.26898 0.16868 0.0
C1536 C 0.61923 0.24808 0.16518 0.0
C1537 C 0.64748 0.2388 0.21268 0.0
C1538 C 0.63344 0.24711 0.19905 0.0
C1539 C 0.58936 0.26816 0.16105 0.0
C1540 C 0.60517 0.26158 0.17386 0.0
H1541 H 0.64884 0.22038 0.25902 0.0
H1542 H 0.62557 0.23151 0.235 0.0
H1543 H 0.64364 0.23015 0.17069 0.0
H1544 H 0.58141 0.28441 0.11445 0.0
H1545 H 0.60772 0.27336 0.13502 0.0
C1546 C 0.44063 0.11928 0.95867 0.0
C1547 C 0.44816 0.09985 0.96064 0.0
C1548 C 0.44935 0.1379 0.96921 0.0
C1549 C 0.47752 0.15572 0.0164 0.0
H1550 H 0.47715 0.2101 0.99661 0.0
C1551 C 0.49611 0.23455 0.06914 0.0
C1552 C 0.48249 0.24986 0.06798 0.0
C1553 C 0.49579 0.21651 0.05452 0.0
C1554 C 0.47736 0.19502 0.00234 0.0
H1555 H 0.47103 0.08439 0.97424 0.0
H1556 H 0.4867 0.11707 0.99251 0.0
H1557 H 0.47048 0.17788 0.97266 0.0
H1558 H 0.45809 0.25835 0.05032 0.0
H1559 H 0.45753 0.227 0.02502 0.0
H1560 H 0.48382 0.1729 0.0462 0.0
C1561 C 0.47394 0.11796 0.98299 0.0
C1562 C 0.47354 0.17658 0.98864 0.0
C1563 C 0.46516 0.09932 0.9724 0.0
C1564 C 0.46877 0.24688 0.05173 0.0
C1565 C 0.46856 0.22898 0.03708 0.0
C1566 C 0.48139 0.17417 0.0301 0.0
C1567 C 0.46579 0.1374 0.98197 0.0
C1568 C 0.47301 0.15673 0.99563 0.0
C1569 C 0.48199 0.21355 0.03834 0.0
C1570 C 0.48077 0.19403 0.02333 0.0
H1571 H 0.42744 0.11987 0.94971 0.0
H1572 H 0.44253 0.15252 0.96826 0.0
H1573 H 0.47699 0.14072 0.02237 0.0
H1574 H 0.5069 0.2364 0.08144 0.0
H1575 H 0.50637 0.2049 0.05583 0.0
C1576 C 0.25017 0.28583 0.75489 0.0
C1577 C 0.23736 0.28189 0.73793 0.0
C1578 C 0.26263 0.30411 0.75771 0.0
C1579 C 0.28606 0.34766 0.73363 0.0
H1580 H 0.27892 0.3801 0.78702 0.0
C1581 C 0.31779 0.43448 0.75473 0.0
C1582 C 0.32325 0.44109 0.77535 0.0
C1583 C 0.30866 0.41433 0.74889 0.0
C1584 C 0.28148 0.37116 0.77217 0.0
H1585 H 0.22833 0.29305 0.7099 0.0
H1586 H 0.25061 0.325 0.71452 0.0
H1587 H 0.26176 0.3457 0.77874 0.0
H1588 H 0.32456 0.43139 0.80574 0.0
H1589 H 0.30961 0.39621 0.79553 0.0
H1590 H 0.30613 0.373 0.72719 0.0
C1591 C 0.25087 0.31399 0.7257 0.0
C1592 C 0.27151 0.35144 0.76742 0.0
C1593 C 0.2382 0.29576 0.72303 0.0
C1594 C 0.32019 0.4269 0.78979 0.0
C1595 C 0.31146 0.40672 0.78393 0.0
C1596 C 0.29634 0.36735 0.73851 0.0
C1597 C 0.26272 0.31866 0.74344 0.0
C1598 C 0.27373 0.33945 0.74816 0.0
C1599 C 0.30511 0.40029 0.76352 0.0
C1600 C 0.29423 0.37934 0.75792 0.0
H1601 H 0.24992 0.27513 0.76638 0.0
H1602 H 0.27182 0.3072 0.77137 0.0
H1603 H 0.28799 0.33869 0.71865 0.0
H1604 H 0.31995 0.44511 0.74327 0.0
H1605 H 0.30386 0.41005 0.73307 0.0
C1606 C 0.23496 0.6898 0.76618 0.0
C1607 C 0.21862 0.69144 0.77904 0.0
C1608 C 0.24835 0.67463 0.7681 0.0
C1609 C 0.26537 0.63838 0.80285 0.0
H1610 H 0.27983 0.60485 0.75214 0.0
C1611 C 0.29945 0.55881 0.80272 0.0
C1612 C 0.31428 0.55337 0.78855 0.0
C1613 C 0.28916 0.57671 0.80162 0.0
C1614 C 0.27622 0.61425 0.76643 0.0
H1615 H 0.20375 0.67928 0.80447 0.0
H1616 H 0.22727 0.65275 0.80809 0.0
H1617 H 0.25981 0.63473 0.7508 0.0
H1618 H 0.32982 0.56254 0.762 0.0
H1619 H 0.31189 0.59405 0.76018 0.0
H1620 H 0.28166 0.61787 0.8185 0.0
C1621 C 0.2298 0.6632 0.79653 0.0
C1622 C 0.26472 0.63138 0.76567 0.0
C1623 C 0.21635 0.67835 0.79452 0.0
C1624 C 0.31845 0.56624 0.77311 0.0
C1625 C 0.30813 0.58426 0.77204 0.0
C1626 C 0.27693 0.62131 0.80361 0.0
C1627 C 0.24572 0.66087 0.78304 0.0
C1628 C 0.25896 0.6435 0.78388 0.0
C1629 C 0.29342 0.58977 0.78637 0.0
C1630 C 0.28227 0.60883 0.78542 0.0
H1631 H 0.23708 0.69999 0.75434 0.0
H1632 H 0.26064 0.6735 0.75772 0.0
H1633 H 0.26144 0.64759 0.81714 0.0
H1634 H 0.29572 0.54922 0.81475 0.0
H1635 H 0.27765 0.58015 0.81263 0.0
C1636 C 0.90442 0.52399 0.48661 0.0
C1637 C 0.90116 0.5398 0.4744 0.0
C1638 C 0.88873 0.5118 0.49338 0.0
C1639 C 0.83763 0.49348 0.48145 0.0
H1640 H 0.83952 0.47699 0.53622 0.0
C1641 C 0.77936 0.43453 0.50989 0.0
C1642 C 0.78756 0.41782 0.51805 0.0
C1643 C 0.79106 0.45257 0.50675 0.0
C1644 C 0.83876 0.4815 0.5209 0.0
H1645 H 0.87921 0.55554 0.45966 0.0
H1646 H 0.85146 0.53418 0.47156 0.0
H1647 H 0.86428 0.50262 0.52606 0.0
H1648 H 0.81415 0.40739 0.53027 0.0
H1649 H 0.83437 0.43872 0.52493 0.0
H1650 H 0.81238 0.47187 0.47615 0.0
C1651 C 0.86617 0.5311 0.4758 0.0
C1652 C 0.85297 0.49611 0.51506 0.0
C1653 C 0.88194 0.54334 0.46906 0.0
C1654 C 0.8074 0.41994 0.52387 0.0
C1655 C 0.81898 0.43798 0.52095 0.0
C1656 C 0.82337 0.47885 0.48733 0.0
C1657 C 0.86941 0.51523 0.4881 0.0
C1658 C 0.8529 0.50181 0.49507 0.0
C1659 C 0.81105 0.45433 0.51199 0.0
C1660 C 0.82413 0.47227 0.50692 0.0
H1661 H 0.91915 0.52121 0.49105 0.0
H1662 H 0.89177 0.49949 0.50255 0.0
H1663 H 0.83723 0.49745 0.46591 0.0
H1664 H 0.76412 0.43333 0.50523 0.0
H1665 H 0.78455 0.465 0.49993 0.0
C1666 C 0.81039 0.88825 0.83356 0.0
C1667 C 0.80749 0.8662 0.83135 0.0
C1668 C 0.79517 0.90053 0.82905 0.0
C1669 C 0.74882 0.89604 0.79936 0.0
H1670 H 0.73677 0.94712 0.83441 0.0
C1671 C 0.67413 0.9302 0.79773 0.0
C1672 C 0.67339 0.95198 0.79714 0.0
C1673 C 0.69178 0.92159 0.80119 0.0
C1674 C 0.74017 0.93304 0.82435 0.0
H1675 H 0.7868 0.83956 0.82291 0.0
H1676 H 0.76003 0.8608 0.8156 0.0
H1677 H 0.76541 0.92846 0.84218 0.0
H1678 H 0.69063 0.98187 0.80007 0.0
H1679 H 0.72167 0.96667 0.80643 0.0
H1680 H 0.72334 0.90022 0.78191 0.0
C1681 C 0.77402 0.86875 0.82045 0.0
C1682 C 0.75653 0.92237 0.82877 0.0
C1683 C 0.78919 0.85658 0.82489 0.0
C1684 C 0.69075 0.96502 0.80037 0.0
C1685 C 0.70846 0.95637 0.80409 0.0
C1686 C 0.73247 0.90659 0.79504 0.0
C1687 C 0.77688 0.89085 0.82219 0.0
C1688 C 0.76075 0.90347 0.81659 0.0
C1689 C 0.70913 0.93453 0.80431 0.0
C1690 C 0.72773 0.92492 0.80774 0.0
H1691 H 0.82448 0.89586 0.83851 0.0
H1692 H 0.79785 0.9175 0.83046 0.0
H1693 H 0.75195 0.88185 0.78934 0.0
H1694 H 0.66107 0.91968 0.79532 0.0
H1695 H 0.69183 0.90474 0.80158 0.0
C1696 C 0.59057 0.53079 0.98667 0.0
C1697 C 0.58804 0.51072 0.97523 0.0
C1698 C 0.60935 0.53988 0.99165 0.0
C1699 C 0.66247 0.52885 0.98986 0.0
H1700 H 0.66921 0.58767 0.9814 0.0
C1701 C 0.73548 0.56818 0.96629 0.0
C1702 C 0.74151 0.5882 0.97666 0.0
C1703 C 0.71696 0.55889 0.96962 0.0
C1704 C 0.66754 0.57133 0.9841 0.0
H1705 H 0.60267 0.48389 0.96082 0.0
H1706 H 0.63557 0.49973 0.96896 0.0
H1707 H 0.63642 0.5707 0.98192 0.0
H1708 H 0.73272 0.61418 0.99862 0.0
H1709 H 0.70004 0.59805 0.00402 0.0
H1710 H 0.69377 0.52937 0.99091 0.0
C1711 C 0.62323 0.50845 0.97459 0.0
C1712 C 0.64872 0.56157 0.98452 0.0
C1713 C 0.60442 0.49931 0.96987 0.0
C1714 C 0.72851 0.59876 0.99038 0.0
C1715 C 0.70982 0.58956 0.99346 0.0
C1716 C 0.6813 0.53855 0.98917 0.0
C1717 C 0.62597 0.52915 0.98498 0.0
C1718 C 0.64592 0.54008 0.98704 0.0
C1719 C 0.70392 0.56949 0.98318 0.0
C1720 C 0.68401 0.55978 0.98593 0.0
H1721 H 0.57799 0.53972 0.99098 0.0
H1722 H 0.61084 0.5556 1.00011 0.0
H1723 H 0.66093 0.51243 0.99227 0.0
H1724 H 0.74515 0.55956 0.95571 0.0
H1725 H 0.7127 0.54351 0.9613 0.0
C1726 C 0.23852 0.70582 0.27057 0.0
C1727 C 0.25633 0.70447 0.26016 0.0
C1728 C 0.22774 0.68755 0.2745 0.0
C1729 C 0.20183 0.64745 0.26487 0.0
H1730 H 0.22405 0.59789 0.28094 0.0
C1731 C 0.15843 0.56653 0.25771 0.0
C1732 C 0.15995 0.55467 0.27414 0.0
C1733 C 0.17067 0.58473 0.25685 0.0
C1734 C 0.21761 0.61166 0.27657 0.0
H1735 H 0.27744 0.68337 0.24646 0.0
H1736 H 0.25865 0.65116 0.25335 0.0
H1737 H 0.245 0.63006 0.2795 0.0
H1738 H 0.17562 0.55262 0.30252 0.0
H1739 H 0.19685 0.58442 0.30105 0.0
H1740 H 0.17446 0.6292 0.26203 0.0
C1741 C 0.25301 0.66632 0.25864 0.0
C1742 C 0.22964 0.63002 0.27559 0.0
C1743 C 0.2638 0.68467 0.25472 0.0
C1744 C 0.17404 0.56138 0.28963 0.0
C1745 C 0.18632 0.57954 0.28873 0.0
C1746 C 0.18985 0.62912 0.26576 0.0
C1747 C 0.23457 0.66754 0.26802 0.0
C1748 C 0.22187 0.64813 0.26973 0.0
C1749 C 0.18475 0.59146 0.27236 0.0
C1750 C 0.19758 0.61098 0.27157 0.0
H1751 H 0.23263 0.72103 0.27492 0.0
H1752 H 0.21379 0.68907 0.28212 0.0
H1753 H 0.19542 0.66101 0.26 0.0
H1754 H 0.1478 0.56177 0.24548 0.0
H1755 H 0.16925 0.59342 0.24389 0.0
C1756 C 0.95134 0.48663 0.03943 0.0
C1757 C 0.94933 0.48044 0.0591 0.0
C1758 C 0.93844 0.50021 0.03256 0.0
C1759 C 0.90488 0.54092 0.04912 0.0
H1760 H 0.88028 0.52312 0.99586 0.0
C1761 C 0.8428 0.58541 0.01704 0.0
C1762 C 0.84202 0.58557 0.99565 0.0
C1763 C 0.85634 0.57356 0.02567 0.0
C1764 C 0.88724 0.52858 0.0106 0.0
H1765 H 0.93272 0.48387 0.08724 0.0
H1766 H 0.91027 0.50822 0.0754 0.0
H1767 H 0.90322 0.50085 0.00928 0.0
H1768 H 0.85549 0.57452 0.96665 0.0
H1769 H 0.87951 0.55469 0.98165 0.0
H1770 H 0.88927 0.56893 0.05025 0.0
C1771 C 0.92178 0.50243 0.06529 0.0
C1772 C 0.90031 0.51571 0.01832 0.0
C1773 C 0.93455 0.48856 0.07205 0.0
C1774 C 0.85556 0.57446 0.98317 0.0
C1775 C 0.86924 0.56294 0.99178 0.0
C1776 C 0.89197 0.554 0.04126 0.0
C1777 C 0.92346 0.50814 0.04537 0.0
C1778 C 0.90932 0.52179 0.03759 0.0
C1779 C 0.86951 0.56187 0.01307 0.0
C1780 C 0.88308 0.54803 0.02181 0.0
H1781 H 0.9629 0.4809 0.02938 0.0
H1782 H 0.94021 0.5046 0.01723 0.0
H1783 H 0.91174 0.54599 0.064 0.0
H1784 H 0.83248 0.59378 0.02702 0.0
H1785 H 0.85601 0.57302 0.0421 0.0
C1786 C 0.07235 0.01018 0.0437 0.0
C1787 C 0.0532 0.00136 0.04012 0.0
C1788 C 0.08834 0.99812 0.03816 0.0
C1789 C 0.09975 0.94188 0.02943 0.0
H1790 H 0.15046 0.96418 0.01313 0.0
C1791 C 0.16353 0.88827 0.00931 0.0
C1792 C 0.18221 0.89584 0.01694 0.0
C1793 C 0.14798 0.9015 0.01072 0.0
C1794 C 0.13642 0.95776 0.01783 0.0
H1795 H 0.03552 0.9738 0.02688 0.0
H1796 H 0.06329 0.95287 0.01639 0.0
H1797 H 0.12306 0.98693 0.01666 0.0
H1798 H 0.19914 0.9234 0.03196 0.0
H1799 H 0.17198 0.94643 0.03451 0.0
H1800 H 0.11307 0.91279 0.0307 0.0
C1801 C 0.06614 0.96884 0.02399 0.0
C1802 C 0.12069 0.9708 0.01985 0.0
C1803 C 0.05023 0.98085 0.02969 0.0
C1804 C 0.18495 0.91702 0.02595 0.0
C1805 C 0.16941 0.93028 0.02727 0.0
C1806 C 0.11542 0.92886 0.02733 0.0
C1807 C 0.08541 0.977 0.02886 0.0
C1808 C 0.10212 0.96305 0.02572 0.0
C1809 C 0.1507 0.92268 0.01973 0.0
C1810 C 0.13398 0.93661 0.02157 0.0
H1811 H 0.07486 0.02589 0.05202 0.0
H1812 H 0.1029 0.00495 0.04229 0.0
H1813 H 0.08586 0.93543 0.03449 0.0
H1814 H 0.16088 0.87209 0.0022 0.0
H1815 H 0.13384 0.89517 0.00454 0.0
loop_
_geom_bond_atom_site_label_1
_geom_bond_atom_site_label_2
_geom_bond_distance
_geom_bond_site_symmetry_2
_ccdc_geom_bond_type
C0 N1 1.317 . S
C0 N2 1.348 . S
C0 C3 1.485 1_545 S
N1 C0 1.317 . S
N1 N5 1.370 . S
N2 C0 1.348 . S
N2 C4 1.346 . S
C3 C0 1.485 1_565 S
C3 H7 0.960 . S
C3 H8 0.961 . S
C3 H9 0.960 . S
C4 N2 1.346 . S
C4 N5 1.307 . S
C4 C6 1.486 1_455 S
N5 N1 1.370 . S
N5 C4 1.307 . S
C6 C4 1.486 1_655 S
C6 H10 0.960 . S
C6 H11 0.960 . S
C6 H12 0.959 . S
H7 C3 0.960 . S
H8 C3 0.961 . S
H9 C3 0.960 . S
H10 C6 0.960 . S
H11 C6 0.960 . S
H12 C6 0.959 . S
C13 N14 1.317 . S
C13 N15 1.348 . S
C13 C16 1.485 . S
N14 C13 1.317 . S
N14 N18 1.370 . S
N15 C13 1.348 . S
N15 C17 1.346 . S
C16 C13 1.485 . S
C16 H20 0.960 . S
C16 H21 0.961 . S
C16 H22 0.960 . S
C17 N15 1.346 . S
C17 N18 1.307 . S
C17 C19 1.486 . S
N18 N14 1.370 . S
N18 C17 1.307 . S
C19 C17 1.486 . S
C19 H23 0.960 . S
C19 H24 0.960 . S
C19 H25 0.959 . S
H20 C16 0.960 . S
H21 C16 0.961 . S
H22 C16 0.960 . S
H23 C19 0.960 . S
H24 C19 0.960 . S
H25 C19 0.959 . S
C26 N27 1.317 . S
C26 N28 1.348 . S
C26 C29 1.485 . S
N27 C26 1.317 . S
N27 N31 1.370 . S
N28 C26 1.348 . S
N28 C30 1.346 . S
C29 C26 1.485 . S
C29 H33 0.960 . S
C29 H34 0.961 . S
C29 H35 0.960 . S
C30 N28 1.346 . S
C30 N31 1.307 . S
C30 C32 1.486 . S
N31 N27 1.370 . S
N31 C30 1.307 . S
C32 C30 1.486 . S
C32 H36 0.960 . S
C32 H37 0.960 . S
C32 H38 0.959 . S
H33 C29 0.960 . S
H34 C29 0.961 . S
H35 C29 0.960 . S
H36 C32 0.960 . S
H37 C32 0.960 . S
H38 C32 0.959 . S
C39 N40 1.317 . S
C39 N41 1.348 . S
C39 C42 1.485 . S
N40 C39 1.317 . S
N40 N44 1.370 . S
N41 C39 1.348 . S
N41 C43 1.346 . S
C42 C39 1.485 . S
C42 H46 0.960 . S
C42 H47 0.961 . S
C42 H48 0.960 . S
C43 N41 1.346 . S
C43 N44 1.307 . S
C43 C45 1.486 . S
N44 N40 1.370 . S
N44 C43 1.307 . S
C45 C43 1.486 . S
C45 H49 0.960 . S
C45 H50 0.960 . S
C45 H51 0.959 . S
H46 C42 0.960 . S
H47 C42 0.961 . S
H48 C42 0.960 . S
H49 C45 0.960 . S
H50 C45 0.960 . S
H51 C45 0.959 . S
C52 N53 1.317 . S
C52 N54 1.348 . S
C52 C55 1.485 . S
N53 C52 1.317 . S
N53 N57 1.370 . S
N54 C52 1.348 . S
N54 C56 1.346 . S
C55 C52 1.485 . S
C55 H59 0.960 . S
C55 H60 0.961 . S
C55 H61 0.960 . S
C56 N54 1.346 . S
C56 N57 1.307 . S
C56 C58 1.486 . S
N57 N53 1.370 . S
N57 C56 1.307 . S
C58 C56 1.486 . S
C58 H62 0.960 1_565 S
C58 H63 0.960 . S
C58 H64 0.959 . S
H59 C55 0.960 . S
H60 C55 0.961 . S
H61 C55 0.960 . S
H62 C58 0.960 1_545 S
H63 C58 0.960 . S
H64 C58 0.959 . S
C65 N66 1.317 . S
C65 N67 1.348 . S
C65 C68 1.485 . S
N66 C65 1.317 . S
N66 N70 1.370 . S
N67 C65 1.348 . S
N67 C69 1.346 . S
C68 C65 1.485 . S
C68 H72 0.960 . S
C68 H73 0.961 . S
C68 H74 0.960 . S
C69 N67 1.346 . S
C69 N70 1.307 . S
C69 C71 1.486 . S
N70 N66 1.370 . S
N70 C69 1.307 . S
C71 C69 1.486 . S
C71 H75 0.960 . S
C71 H76 0.960 . S
C71 H77 0.959 . S
H72 C68 0.960 . S
H73 C68 0.961 . S
H74 C68 0.960 . S
H75 C71 0.960 . S
H76 C71 0.960 . S
H77 C71 0.959 . S
C78 N79 1.317 . S
C78 N80 1.348 . S
C78 C81 1.485 . S
N79 C78 1.317 . S
N79 N83 1.370 . S
N80 C78 1.348 . S
N80 C82 1.346 . S
C81 C78 1.485 . S
C81 H85 0.960 . S
C81 H86 0.961 . S
C81 H87 0.960 . S
C82 N80 1.346 . S
C82 N83 1.307 . S
C82 C84 1.486 . S
N83 N79 1.370 . S
N83 C82 1.307 . S
C84 C82 1.486 . S
C84 H88 0.960 . S
C84 H89 0.960 . S
C84 H90 0.959 . S
H85 C81 0.960 . S
H86 C81 0.961 . S
H87 C81 0.960 . S
H88 C84 0.960 . S
H89 C84 0.960 . S
H90 C84 0.959 . S
C91 N92 1.317 . S
C91 N93 1.348 . S
C91 C94 1.485 . S
N92 C91 1.317 . S
N92 N96 1.370 . S
N93 C91 1.348 . S
N93 C95 1.346 . S
C94 C91 1.485 . S
C94 H98 0.960 . S
C94 H99 0.961 . S
C94 H100 0.960 . S
C95 N93 1.346 . S
C95 N96 1.307 . S
C95 C97 1.486 . S
N96 N92 1.370 . S
N96 C95 1.307 . S
C97 C95 1.486 . S
C97 H101 0.960 . S
C97 H102 0.960 . S
C97 H103 0.959 . S
H98 C94 0.960 . S
H99 C94 0.961 . S
H100 C94 0.960 . S
H101 C97 0.960 . S
H102 C97 0.960 . S
H103 C97 0.959 . S
C104 N105 1.317 . S
C104 N106 1.348 . S
C104 C107 1.485 . S
N105 C104 1.317 . S
N105 N109 1.370 . S
N106 C104 1.348 . S
N106 C108 1.346 . S
C107 C104 1.485 . S
C107 H111 0.960 . S
C107 H112 0.961 . S
C107 H113 0.960 . S
C108 N106 1.346 . S
C108 N109 1.307 . S
C108 C110 1.486 . S
N109 N105 1.370 . S
N109 C108 1.307 . S
C110 C108 1.486 . S
C110 H114 0.960 . S
C110 H115 0.960 . S
C110 H116 0.959 . S
H111 C107 0.960 . S
H112 C107 0.961 . S
H113 C107 0.960 . S
H114 C110 0.960 . S
H115 C110 0.960 . S
H116 C110 0.959 . S
C117 N118 1.317 . S
C117 N119 1.348 . S
C117 C120 1.485 . S
N118 C117 1.317 . S
N118 N122 1.370 . S
N119 C117 1.348 . S
N119 C121 1.346 . S
C120 C117 1.485 . S
C120 H124 0.960 . S
C120 H125 0.961 1_565 S
C120 H126 0.960 . S
C121 N119 1.346 . S
C121 N122 1.307 . S
C121 C123 1.486 . S
N122 N118 1.370 . S
N122 C121 1.307 . S
C123 C121 1.486 . S
C123 H127 0.960 . S
C123 H128 0.960 . S
C123 H129 0.959 . S
H124 C120 0.960 . S
H125 C120 0.961 1_545 S
H126 C120 0.960 . S
H127 C123 0.960 . S
H128 C123 0.960 . S
H129 C123 0.959 . S
C130 N131 1.317 . S
C130 N132 1.348 . S
C130 C133 1.485 . S
N131 C130 1.317 . S
N131 N135 1.370 . S
N132 C130 1.348 . S
N132 C134 1.346 . S
C133 C130 1.485 . S
C133 H137 0.960 . S
C133 H138 0.961 . S
C133 H139 0.960 . S
C134 N132 1.346 . S
C134 N135 1.307 . S
C134 C136 1.486 . S
N135 N131 1.370 . S
N135 C134 1.307 . S
C136 C134 1.486 . S
C136 H140 0.960 . S
C136 H141 0.960 . S
C136 H142 0.959 . S
H137 C133 0.960 . S
H138 C133 0.961 . S
H139 C133 0.960 . S
H140 C136 0.960 . S
H141 C136 0.960 . S
H142 C136 0.959 . S
C143 N144 1.317 . S
C143 N145 1.348 . S
C143 C146 1.485 . S
N144 C143 1.317 . S
N144 N148 1.370 . S
N145 C143 1.348 . S
N145 C147 1.346 . S
C146 C143 1.485 . S
C146 H150 0.960 . S
C146 H151 0.961 . S
C146 H152 0.960 . S
C147 N145 1.346 . S
C147 N148 1.307 . S
C147 C149 1.486 . S
N148 N144 1.370 . S
N148 C147 1.307 . S
C149 C147 1.486 . S
C149 H153 0.960 . S
C149 H154 0.960 . S
C149 H155 0.959 . S
H150 C146 0.960 . S
H151 C146 0.961 . S
H152 C146 0.960 . S
H153 C149 0.960 . S
H154 C149 0.960 . S
H155 C149 0.959 . S
C156 N157 1.317 . S
C156 N158 1.348 . S
C156 C159 1.485 . S
N157 C156 1.317 . S
N157 N161 1.370 . S
N158 C156 1.348 . S
N158 C160 1.346 . S
C159 C156 1.485 . S
C159 H163 0.960 . S
C159 H164 0.961 . S
C159 H165 0.960 . S
C160 N158 1.346 . S
C160 N161 1.307 . S
C160 C162 1.486 . S
N161 N157 1.370 . S
N161 C160 1.307 . S
C162 C160 1.486 . S
C162 H166 0.960 . S
C162 H167 0.960 . S
C162 H168 0.959 . S
H163 C159 0.960 . S
H164 C159 0.961 . S
H165 C159 0.960 . S
H166 C162 0.960 . S
H167 C162 0.960 . S
H168 C162 0.959 . S
C169 N170 1.317 . S
C169 N171 1.348 . S
C169 C172 1.485 . S
N170 C169 1.317 . S
N170 N174 1.370 . S
N171 C169 1.348 . S
N171 C173 1.346 . S
C172 C169 1.485 . S
C172 H176 0.960 . S
C172 H177 0.961 . S
C172 H178 0.960 . S
C173 N171 1.346 . S
C173 N174 1.307 . S
C173 C175 1.486 . S
N174 N170 1.370 . S
N174 C173 1.307 . S
C175 C173 1.486 . S
C175 H179 0.960 . S
C175 H180 0.960 . S
C175 H181 0.959 . S
H176 C172 0.960 . S
H177 C172 0.961 . S
H178 C172 0.960 . S
H179 C175 0.960 . S
H180 C175 0.960 . S
H181 C175 0.959 . S
C182 N183 1.317 . S
C182 N184 1.348 . S
C182 C185 1.485 . S
N183 C182 1.317 . S
N183 N187 1.370 . S
N184 C182 1.348 . S
N184 C186 1.346 . S
C185 C182 1.485 . S
C185 H189 0.960 . S
C185 H190 0.961 . S
C185 H191 0.960 . S
C186 N184 1.346 . S
C186 N187 1.307 . S
C186 C188 1.486 . S
N187 N183 1.370 . S
N187 C186 1.307 . S
C188 C186 1.486 . S
C188 H192 0.960 . S
C188 H193 0.960 . S
C188 H194 0.959 . S
H189 C185 0.960 . S
H190 C185 0.961 . S
H191 C185 0.960 . S
H192 C188 0.960 . S
H193 C188 0.960 . S
H194 C188 0.959 . S
C195 N196 1.317 . S
C195 N197 1.348 . S
C195 C198 1.485 . S
N196 C195 1.317 . S
N196 N200 1.370 . S
N197 C195 1.348 . S
N197 C199 1.346 . S
C198 C195 1.485 . S
C198 H202 0.960 . S
C198 H203 0.961 . S
C198 H204 0.960 . S
C199 N197 1.346 . S
C199 N200 1.307 . S
C199 C201 1.486 . S
N200 N196 1.370 . S
N200 C199 1.307 . S
C201 C199 1.486 . S
C201 H205 0.960 . S
C201 H206 0.960 . S
C201 H207 0.959 . S
H202 C198 0.960 . S
H203 C198 0.961 . S
H204 C198 0.960 . S
H205 C201 0.960 . S
H206 C201 0.960 . S
H207 C201 0.959 . S
Zn208 O211 2.031 . S
Zn208 O213 2.049 1_554 S
Zn208 O218 2.067 1_554 S
Zn209 O210 1.962 . S
Zn209 O212 1.986 . S
Zn209 O214 1.996 . S
Zn209 O217 1.943 1_554 S
O210 Zn209 1.962 . S
O210 C215 1.254 . S
O211 Zn208 2.031 . S
O211 C215 1.269 . S
O212 Zn209 1.986 . S
O212 C219 1.262 . S
O213 Zn208 2.049 1_556 S
O213 C221 1.277 . S
O214 Zn209 1.996 . S
O214 C221 1.222 1_554 S
C215 O210 1.254 . S
C215 O211 1.269 . S
C216 O217 1.249 . S
C216 O218 1.270 . S
O217 Zn209 1.943 1_556 S
O217 C216 1.249 . S
O218 Zn208 2.067 1_556 S
O218 C216 1.270 . S
C219 O212 1.262 . S
C219 O220 1.232 . S
O220 C219 1.232 . S
C221 O213 1.277 . S
C221 O214 1.222 1_556 S
Zn222 O225 2.031 . S
Zn222 O227 2.049 . S
Zn222 O232 2.067 . S
Zn223 O224 1.962 . S
Zn223 O226 1.986 . S
Zn223 O228 1.996 . S
Zn223 O231 1.943 . S
O224 Zn223 1.962 . S
O224 C229 1.254 . S
O225 Zn222 2.031 . S
O225 C229 1.269 . S
O226 Zn223 1.986 . S
O226 C233 1.262 . S
O227 Zn222 2.049 . S
O227 C235 1.260 . S
O228 Zn223 1.996 . S
O228 C235 1.257 . S
C229 O224 1.254 . S
C229 O225 1.269 . S
C230 O231 1.249 . S
C230 O232 1.270 . S
O231 Zn223 1.943 . S
O231 C230 1.249 . S
O232 Zn222 2.067 . S
O232 C230 1.270 . S
C233 O226 1.262 . S
C233 O234 1.232 . S
O234 C233 1.232 . S
C235 O227 1.260 . S
C235 O228 1.257 . S
Zn236 O239 2.031 . S
Zn236 O241 2.049 . S
Zn236 O246 2.067 . S
Zn237 O238 1.962 . S
Zn237 O240 1.986 . S
Zn237 O242 1.996 1_554 S
Zn237 O245 1.943 . S
O238 Zn237 1.962 . S
O238 C243 1.254 . S
O239 Zn236 2.031 . S
O239 C243 1.269 1_556 S
O240 Zn237 1.986 . S
O240 C247 1.262 . S
O241 Zn236 2.049 . S
O241 C249 1.260 . S
O242 Zn237 1.996 1_556 S
O242 C249 1.257 . S
C243 O238 1.254 . S
C243 O239 1.269 1_554 S
C244 O245 1.249 1_556 S
C244 O246 1.270 . S
O245 Zn237 1.943 . S
O245 C244 1.249 1_554 S
O246 Zn236 2.067 . S
O246 C244 1.270 . S
C247 O240 1.262 . S
C247 O248 1.232 . S
O248 C247 1.232 . S
C249 O241 1.260 . S
C249 O242 1.257 . S
Zn250 O253 2.031 . S
Zn250 O255 2.049 1_545 S
Zn250 O260 2.067 1_545 S
Zn251 O252 1.962 . S
Zn251 O254 1.986 . S
Zn251 O256 1.996 . S
Zn251 O259 1.943 1_545 S
O252 Zn251 1.962 . S
O252 C257 1.254 . S
O253 Zn250 2.031 . S
O253 C257 1.269 . S
O254 Zn251 1.986 . S
O254 C261 1.262 . S
O255 Zn250 2.049 1_565 S
O255 C263 1.265 . S
O256 Zn251 1.996 . S
O256 C263 1.248 1_545 S
C257 O252 1.254 . S
C257 O253 1.269 . S
C258 O259 1.249 . S
C258 O260 1.270 . S
O259 Zn251 1.943 1_565 S
O259 C258 1.249 . S
O260 Zn250 2.067 1_565 S
O260 C258 1.270 . S
C261 O254 1.262 . S
C261 O262 1.232 . S
O262 C261 1.232 . S
C263 O255 1.265 . S
C263 O256 1.248 1_565 S
Zn264 O267 2.031 . S
Zn264 O269 2.049 . S
Zn264 O274 2.067 . S
Zn265 O266 1.962 . S
Zn265 O268 1.986 . S
Zn265 O270 1.996 . S
Zn265 O273 1.943 . S
O266 Zn265 1.962 . S
O266 C271 1.254 . S
O267 Zn264 2.031 . S
O267 C271 1.269 . S
O268 Zn265 1.986 . S
O268 C275 1.262 . S
O269 Zn264 2.049 . S
O269 C277 1.260 . S
O270 Zn265 1.996 . S
O270 C277 1.257 . S
C271 O266 1.254 . S
C271 O267 1.269 . S
C272 O273 1.249 . S
C272 O274 1.270 . S
O273 Zn265 1.943 . S
O273 C272 1.249 . S
O274 Zn264 2.067 . S
O274 C272 1.270 . S
C275 O268 1.262 . S
C275 O276 1.232 . S
O276 C275 1.232 . S
C277 O269 1.260 . S
C277 O270 1.257 . S
Zn278 O281 2.031 . S
Zn278 O283 2.049 . S
Zn278 O288 2.067 . S
Zn279 O280 1.962 . S
Zn279 O282 1.986 . S
Zn279 O284 1.996 . S
Zn279 O287 1.943 . S
O280 Zn279 1.962 . S
O280 C285 1.254 . S
O281 Zn278 2.031 . S
O281 C285 1.269 . S
O282 Zn279 1.986 . S
O282 C289 1.262 . S
O283 Zn278 2.049 . S
O283 C291 1.260 . S
O284 Zn279 1.996 . S
O284 C291 1.257 . S
C285 O280 1.254 . S
C285 O281 1.269 . S
C286 O287 1.249 . S
C286 O288 1.270 . S
O287 Zn279 1.943 . S
O287 C286 1.249 . S
O288 Zn278 2.067 . S
O288 C286 1.270 . S
C289 O282 1.262 . S
C289 O290 1.232 . S
O290 C289 1.232 . S
C291 O283 1.260 . S
C291 O284 1.257 . S
Zn292 O295 2.031 . S
Zn292 O297 2.049 . S
Zn292 O302 2.067 . S
Zn293 O294 1.962 . S
Zn293 O296 1.986 . S
Zn293 O298 1.996 . S
Zn293 O301 1.943 . S
O294 Zn293 1.962 . S
O294 C299 1.254 . S
O295 Zn292 2.031 . S
O295 C299 1.269 . S
O296 Zn293 1.986 . S
O296 C303 1.262 . S
O297 Zn292 2.049 . S
O297 C305 1.260 . S
O298 Zn293 1.996 . S
O298 C305 1.257 . S
C299 O294 1.254 . S
C299 O295 1.269 . S
C300 O301 1.249 . S
C300 O302 1.270 . S
O301 Zn293 1.943 . S
O301 C300 1.249 . S
O302 Zn292 2.067 . S
O302 C300 1.270 . S
C303 O296 1.262 . S
C303 O304 1.232 . S
O304 C303 1.232 . S
C305 O297 1.260 . S
C305 O298 1.257 . S
Zn306 O309 2.031 1_565 S
Zn306 O311 2.049 . S
Zn306 O316 2.067 . S
Zn307 O308 1.962 . S
Zn307 O310 1.986 . S
Zn307 O312 1.996 1_545 S
Zn307 O315 1.943 . S
O308 Zn307 1.962 . S
O308 C313 1.254 . S
O309 Zn306 2.031 1_545 S
O309 C313 1.269 . S
O310 Zn307 1.986 . S
O310 C317 1.262 . S
O311 Zn306 2.049 . S
O311 C319 1.260 . S
O312 Zn307 1.996 1_565 S
O312 C319 1.257 . S
C313 O308 1.254 . S
C313 O309 1.269 . S
C314 O315 1.249 . S
C314 O316 1.270 1_545 S
O315 Zn307 1.943 . S
O315 C314 1.249 . S
O316 Zn306 2.067 . S
O316 C314 1.270 1_565 S
C317 O310 1.262 . S
C317 O318 1.232 . S
O318 C317 1.232 . S
C319 O311 1.260 . S
C319 O312 1.257 . S
Zn320 O323 2.031 . S
Zn320 O325 2.049 1_455 S
Zn320 O330 2.067 1_455 S
Zn321 O322 1.962 . S
Zn321 O324 1.986 . S
Zn321 O326 1.996 . S
Zn321 O329 1.943 1_455 S
O322 Zn321 1.962 . S
O322 C327 1.254 . S
O323 Zn320 2.031 . S
O323 C327 1.269 . S
O324 Zn321 1.986 . S
O324 C331 1.262 . S
O325 Zn320 2.049 1_655 S
O325 C333 1.260 . S
O326 Zn321 1.996 . S
O326 C333 1.257 1_455 S
C327 O322 1.254 . S
C327 O323 1.269 . S
C328 O329 1.249 . S
C328 O330 1.270 . S
O329 Zn321 1.943 1_655 S
O329 C328 1.249 . S
O330 Zn320 2.067 1_655 S
O330 C328 1.270 . S
C331 O324 1.262 . S
C331 O332 1.232 . S
O332 C331 1.232 . S
C333 O325 1.260 . S
C333 O326 1.257 1_655 S
Zn334 O337 2.031 . S
Zn334 O339 2.049 . S
Zn334 O344 2.067 . S
Zn335 O336 1.962 . S
Zn335 O338 1.986 . S
Zn335 O340 1.996 . S
Zn335 O343 1.943 . S
O336 Zn335 1.962 . S
O336 C341 1.254 . S
O337 Zn334 2.031 . S
O337 C341 1.269 . S
O338 Zn335 1.986 . S
O338 C345 1.262 . S
O339 Zn334 2.049 . S
O339 C347 1.260 . S
O340 Zn335 1.996 . S
O340 C347 1.257 . S
C341 O336 1.254 . S
C341 O337 1.269 . S
C342 O343 1.249 . S
C342 O344 1.270 . S
O343 Zn335 1.943 . S
O343 C342 1.249 . S
O344 Zn334 2.067 . S
O344 C342 1.270 . S
C345 O338 1.262 . S
C345 O346 1.232 . S
O346 C345 1.232 . S
C347 O339 1.260 . S
C347 O340 1.257 . S
Zn348 O351 2.031 1_655 S
Zn348 O353 2.049 . S
Zn348 O358 2.067 . S
Zn349 O350 1.962 . S
Zn349 O352 1.986 . S
Zn349 O354 1.995 1_455 S
Zn349 O357 1.943 . S
O350 Zn349 1.962 . S
O350 C355 1.254 . S
O351 Zn348 2.031 1_455 S
O351 C355 1.269 . S
O352 Zn349 1.986 . S
O352 C359 1.262 . S
O353 Zn348 2.049 . S
O353 C361 1.260 . S
O354 Zn349 1.995 1_655 S
O354 C361 1.258 . S
C355 O350 1.254 . S
C355 O351 1.269 . S
C356 O357 1.249 . S
C356 O358 1.270 1_455 S
O357 Zn349 1.943 . S
O357 C356 1.249 . S
O358 Zn348 2.067 . S
O358 C356 1.270 1_655 S
C359 O352 1.262 . S
C359 O360 1.232 . S
O360 C359 1.232 . S
C361 O353 1.260 . S
C361 O354 1.258 . S
Zn362 O365 2.031 . S
Zn362 O367 2.049 . S
Zn362 O372 2.067 . S
Zn363 O364 1.962 . S
Zn363 O366 1.986 . S
Zn363 O368 1.996 . S
Zn363 O371 1.943 . S
O364 Zn363 1.962 . S
O364 C369 1.254 . S
O365 Zn362 2.031 . S
O365 C369 1.269 . S
O366 Zn363 1.986 . S
O366 C373 1.262 . S
O367 Zn362 2.049 . S
O367 C375 1.260 . S
O368 Zn363 1.996 . S
O368 C375 1.257 . S
C369 O364 1.254 . S
C369 O365 1.269 . S
C370 O371 1.249 . S
C370 O372 1.270 . S
O371 Zn363 1.943 . S
O371 C370 1.249 . S
O372 Zn362 2.067 . S
O372 C370 1.270 . S
C373 O366 1.262 . S
C373 O374 1.232 . S
O374 C373 1.232 . S
C375 O367 1.260 . S
C375 O368 1.257 . S
C376 C377 1.349 . S
C376 C378 1.327 . S
C376 H401 0.950 . S
C377 C376 1.349 . S
C377 C393 1.349 . S
C378 C376 1.327 . S
C378 C397 1.429 . S
C378 H402 0.950 . S
C379 C396 1.574 . S
C379 C398 1.368 . S
C379 H403 0.949 . S
H380 C384 0.949 . S
C381 C382 1.349 . S
C381 C383 1.327 . S
C381 H404 0.950 . S
C382 C381 1.349 . S
C382 C394 1.349 . S
C383 C381 1.327 . S
C383 C399 1.429 . S
C383 H405 0.950 . S
C384 H380 0.949 . S
C384 C392 1.574 . S
C384 C400 1.368 . S
H385 C393 0.950 . S
H386 C391 0.950 . S
H387 C392 0.949 . S
H388 C394 0.950 . S
H389 C395 0.950 . S
H390 C396 0.949 . S
C391 H386 0.950 . S
C391 C393 1.327 . S
C391 C397 1.429 . S
C392 C384 1.574 . S
C392 H387 0.949 . S
C392 C398 1.368 . S
C393 C377 1.349 . S
C393 H385 0.950 . S
C393 C391 1.327 . S
C394 C382 1.349 . S
C394 H388 0.950 . S
C394 C395 1.327 . S
C395 H389 0.950 . S
C395 C394 1.327 . S
C395 C399 1.429 . S
C396 C379 1.574 . S
C396 H390 0.949 . S
C396 C400 1.368 . S
C397 C378 1.429 . S
C397 C391 1.429 . S
C397 C398 1.523 . S
C398 C379 1.368 . S
C398 C392 1.368 . S
C398 C397 1.523 . S
C399 C383 1.429 . S
C399 C395 1.429 . S
C399 C400 1.523 . S
C400 C384 1.368 . S
C400 C396 1.368 . S
C400 C399 1.523 . S
H401 C376 0.950 . S
H402 C378 0.950 . S
H403 C379 0.949 . S
H404 C381 0.950 . S
H405 C383 0.950 . S
C406 C407 1.349 . S
C406 C408 1.327 . S
C406 H431 0.950 . S
C407 C406 1.349 . S
C407 C423 1.349 . S
C408 C406 1.327 . S
C408 C427 1.429 1_655 S
C408 H432 0.950 . S
C409 C426 1.574 . S
C409 C428 1.368 . S
C409 H433 0.949 . S
H410 C414 0.949 . S
C411 C412 1.349 . S
C411 C413 1.327 . S
C411 H434 0.950 . S
C412 C411 1.349 . S
C412 C424 1.349 . S
C413 C411 1.327 . S
C413 C429 1.429 . S
C413 H435 0.950 . S
C414 H410 0.949 . S
C414 C422 1.574 . S
C414 C430 1.368 . S
H415 C423 0.950 . S
H416 C421 0.989 . S
H417 C422 0.949 . S
H418 C424 0.950 . S
H419 C425 0.950 . S
H420 C426 0.949 . S
C421 H416 0.989 . S
C421 C423 1.282 1_455 S
C421 C427 1.438 . S
C422 C414 1.574 . S
C422 H417 0.949 . S
C422 C428 1.368 . S
C423 C407 1.349 . S
C423 H415 0.950 . S
C423 C421 1.282 1_655 S
C424 C412 1.349 . S
C424 H418 0.950 . S
C424 C425 1.327 . S
C425 H419 0.950 . S
C425 C424 1.327 . S
C425 C429 1.429 . S
C426 C409 1.574 . S
C426 H420 0.949 . S
C426 C430 1.368 . S
C427 C408 1.429 1_455 S
C427 C421 1.438 . S
C427 C428 1.523 . S
C428 C409 1.368 . S
C428 C422 1.368 . S
C428 C427 1.523 . S
C429 C413 1.429 . S
C429 C425 1.429 . S
C429 C430 1.523 . S
C430 C414 1.368 . S
C430 C426 1.368 . S
C430 C429 1.523 . S
H431 C406 0.950 . S
H432 C408 0.950 . S
H433 C409 0.949 . S
H434 C411 0.950 . S
H435 C413 0.950 . S
C436 C437 1.349 . S
C436 C438 1.327 . S
C436 H461 0.950 . S
C437 C436 1.349 . S
C437 C453 1.349 . S
C438 C436 1.327 . S
C438 C457 1.429 . S
C438 H462 0.950 . S
C439 C456 1.574 . S
C439 C458 1.368 . S
C439 H463 0.949 . S
H440 C444 0.949 . S
C441 C442 1.349 . S
C441 C443 1.327 . S
C441 H464 0.950 . S
C442 C441 1.349 . S
C442 C454 1.349 . S
C443 C441 1.327 . S
C443 C459 1.429 . S
C443 H465 0.950 . S
C444 H440 0.949 . S
C444 C452 1.574 . S
C444 C460 1.368 . S
H445 C453 0.950 . S
H446 C451 0.950 . S
H447 C452 0.949 . S
H448 C454 0.950 . S
H449 C455 0.950 . S
H450 C456 0.949 . S
C451 H446 0.950 . S
C451 C453 1.327 . S
C451 C457 1.429 . S
C452 C444 1.574 . S
C452 H447 0.949 . S
C452 C458 1.368 . S
C453 C437 1.349 . S
C453 H445 0.950 . S
C453 C451 1.327 . S
C454 C442 1.349 . S
C454 H448 0.950 . S
C454 C455 1.327 . S
C455 H449 0.950 . S
C455 C454 1.327 . S
C455 C459 1.429 . S
C456 C439 1.574 . S
C456 H450 0.949 . S
C456 C460 1.368 . S
C457 C438 1.429 . S
C457 C451 1.429 . S
C457 C458 1.523 . S
C458 C439 1.368 . S
C458 C452 1.368 . S
C458 C457 1.523 . S
C459 C443 1.429 . S
C459 C455 1.429 . S
C459 C460 1.523 . S
C460 C444 1.368 . S
C460 C456 1.368 . S
C460 C459 1.523 . S
H461 C436 0.950 . S
H462 C438 0.950 . S
H463 C439 0.949 . S
H464 C441 0.950 . S
H465 C443 0.950 . S
C466 C467 1.349 . S
C466 C468 1.327 . S
C466 H491 0.950 . S
C467 C466 1.349 . S
C467 C483 1.349 . S
C468 C466 1.327 . S
C468 C487 1.429 1_455 S
C468 H492 0.970 . S
C469 C486 1.574 . S
C469 C488 1.368 . S
C469 H493 0.949 . S
H470 C474 0.944 1_545 S
C471 C472 1.349 . S
C471 C473 1.327 . S
C471 H494 0.950 . S
C472 C471 1.349 . S
C472 C484 1.349 1_565 S
C473 C471 1.327 . S
C473 C489 1.429 . S
C473 H495 0.950 . S
C474 H470 0.944 1_565 S
C474 C482 1.575 . S
C474 C490 1.372 . S
H475 C483 0.950 . S
H476 C481 0.950 . S
H477 C482 0.949 1_545 S
H478 C484 0.950 . S
H479 C485 0.950 . S
H480 C486 0.949 . S
C481 H476 0.950 . S
C481 C483 1.327 1_655 S
C481 C487 1.429 . S
C482 C474 1.575 . S
C482 H477 0.949 1_565 S
C482 C488 1.368 . S
C483 C467 1.349 . S
C483 H475 0.950 . S
C483 C481 1.327 1_455 S
C484 C472 1.349 1_545 S
C484 H478 0.950 . S
C484 C485 1.327 . S
C485 H479 0.950 . S
C485 C484 1.327 . S
C485 C489 1.429 1_545 S
C486 C469 1.574 . S
C486 H480 0.949 . S
C486 C490 1.368 . S
C487 C468 1.429 1_655 S
C487 C481 1.429 . S
C487 C488 1.523 . S
C488 C469 1.368 . S
C488 C482 1.368 . S
C488 C487 1.523 . S
C489 C473 1.429 . S
C489 C485 1.429 1_565 S
C489 C490 1.523 . S
C490 C474 1.372 . S
C490 C486 1.368 . S
C490 C489 1.523 . S
H491 C466 0.950 . S
H492 C468 0.970 . S
H493 C469 0.949 . S
H494 C471 0.950 . S
H495 C473 0.950 . S
C496 C497 1.349 . S
C496 C498 1.327 . S
C496 H521 0.950 . S
C497 C496 1.349 . S
C497 C513 1.349 . S
C498 C496 1.327 . S
C498 C517 1.429 . S
C498 H522 0.950 . S
C499 C516 1.574 . S
C499 C518 1.368 . S
C499 H523 0.949 . S
H500 C504 0.949 . S
C501 C502 1.349 . S
C501 C503 1.327 . S
C501 H524 0.950 . S
C502 C501 1.349 . S
C502 C514 1.349 . S
C503 C501 1.327 . S
C503 C519 1.429 . S
C503 H525 0.950 . S
C504 H500 0.949 . S
C504 C512 1.574 . S
C504 C520 1.368 . S
H505 C513 0.950 . S
H506 C511 0.950 . S
H507 C512 0.949 . S
H508 C514 0.950 . S
H509 C515 0.950 . S
H510 C516 0.949 . S
C511 H506 0.950 . S
C511 C513 1.327 . S
C511 C517 1.429 . S
C512 C504 1.574 . S
C512 H507 0.949 . S
C512 C518 1.368 . S
C513 C497 1.349 . S
C513 H505 0.950 . S
C513 C511 1.327 . S
C514 C502 1.349 . S
C514 H508 0.950 . S
C514 C515 1.327 . S
C515 H509 0.950 . S
C515 C514 1.327 . S
C515 C519 1.429 . S
C516 C499 1.574 . S
C516 H510 0.949 . S
C516 C520 1.368 . S
C517 C498 1.429 . S
C517 C511 1.429 . S
C517 C518 1.523 . S
C518 C499 1.368 . S
C518 C512 1.368 . S
C518 C517 1.523 . S
C519 C503 1.429 . S
C519 C515 1.429 . S
C519 C520 1.523 . S
C520 C504 1.368 . S
C520 C516 1.368 . S
C520 C519 1.523 . S
H521 C496 0.950 . S
H522 C498 0.950 . S
H523 C499 0.949 . S
H524 C501 0.950 . S
H525 C503 0.950 . S
C526 C527 1.349 . S
C526 C528 1.327 . S
C526 H551 0.950 . S
C527 C526 1.349 . S
C527 C543 1.349 . S
C528 C526 1.327 . S
C528 C547 1.429 . S
C528 H552 0.950 . S
C529 C546 1.574 . S
C529 C548 1.368 . S
C529 H553 0.949 . S
H530 C534 0.949 . S
C531 C532 1.349 . S
C531 C533 1.327 . S
C531 H554 0.950 . S
C532 C531 1.349 . S
C532 C544 1.349 . S
C533 C531 1.327 . S
C533 C549 1.429 . S
C533 H555 0.950 . S
C534 H530 0.949 . S
C534 C542 1.574 . S
C534 C550 1.368 . S
H535 C543 0.950 . S
H536 C541 0.950 . S
H537 C542 0.949 . S
H538 C544 0.950 . S
H539 C545 0.950 . S
H540 C546 0.949 . S
C541 H536 0.950 . S
C541 C543 1.327 . S
C541 C547 1.429 . S
C542 C534 1.574 . S
C542 H537 0.949 . S
C542 C548 1.368 . S
C543 C527 1.349 . S
C543 H535 0.950 . S
C543 C541 1.327 . S
C544 C532 1.349 . S
C544 H538 0.950 . S
C544 C545 1.327 . S
C545 H539 0.950 . S
C545 C544 1.327 . S
C545 C549 1.429 . S
C546 C529 1.574 . S
C546 H540 0.949 . S
C546 C550 1.368 . S
C547 C528 1.429 . S
C547 C541 1.429 . S
C547 C548 1.523 . S
C548 C529 1.368 . S
C548 C542 1.368 . S
C548 C547 1.523 . S
C549 C533 1.429 . S
C549 C545 1.429 . S
C549 C550 1.523 . S
C550 C534 1.368 . S
C550 C546 1.368 . S
C550 C549 1.523 . S
H551 C526 0.950 . S
H552 C528 0.950 . S
H553 C529 0.949 . S
H554 C531 0.950 . S
H555 C533 0.950 . S
C556 C557 1.349 . S
C556 C558 1.327 . S
C556 H581 0.950 . S
C557 C556 1.349 . S
C557 C573 1.349 . S
C558 C556 1.327 . S
C558 C577 1.429 . S
C558 H582 0.950 . S
C559 C576 1.574 . S
C559 C578 1.368 . S
C559 H583 0.949 . S
H560 C564 0.949 . S
C561 C562 1.349 . S
C561 C563 1.327 . S
C561 H584 0.950 . S
C562 C561 1.349 . S
C562 C574 1.349 . S
C563 C561 1.327 . S
C563 C579 1.429 . S
C563 H585 0.950 . S
C564 H560 0.949 . S
C564 C572 1.574 . S
C564 C580 1.368 . S
H565 C573 0.950 . S
H566 C571 0.950 . S
H567 C572 0.949 . S
H568 C574 0.950 . S
H569 C575 0.950 . S
H570 C576 0.949 . S
C571 H566 0.950 . S
C571 C573 1.327 . S
C571 C577 1.429 . S
C572 C564 1.574 . S
C572 H567 0.949 . S
C572 C578 1.368 . S
C573 C557 1.349 . S
C573 H565 0.950 . S
C573 C571 1.327 . S
C574 C562 1.349 . S
C574 H568 0.950 . S
C574 C575 1.327 . S
C575 H569 0.950 . S
C575 C574 1.327 . S
C575 C579 1.429 . S
C576 C559 1.574 . S
C576 H570 0.949 . S
C576 C580 1.368 . S
C577 C558 1.429 . S
C577 C571 1.429 . S
C577 C578 1.523 . S
C578 C559 1.368 . S
C578 C572 1.368 . S
C578 C577 1.523 . S
C579 C563 1.429 . S
C579 C575 1.429 . S
C579 C580 1.523 . S
C580 C564 1.368 . S
C580 C576 1.368 . S
C580 C579 1.523 . S
H581 C556 0.950 . S
H582 C558 0.950 . S
H583 C559 0.949 . S
H584 C561 0.950 . S
H585 C563 0.950 . S
C586 C587 1.349 . S
C586 C588 1.327 . S
C586 H611 0.950 . S
C587 C586 1.349 . S
C587 C603 1.349 . S
C588 C586 1.327 . S
C588 C607 1.429 . S
C588 H612 0.950 1_565 S
C589 C606 1.574 . S
C589 C608 1.368 . S
C589 H613 0.949 . S
H590 C594 0.949 . S
C591 C592 1.355 . S
C591 C593 1.327 . S
C591 H614 0.950 . S
C592 C591 1.355 . S
C592 C604 1.343 1_565 S
C593 C591 1.327 . S
C593 C609 1.429 . S
C593 H615 0.950 . S
C594 H590 0.949 . S
C594 C602 1.574 1_545 S
C594 C610 1.368 1_545 S
H595 C603 0.950 . S
H596 C601 0.950 . S
H597 C602 0.949 1_545 S
H598 C604 0.950 . S
H599 C605 0.950 . S
H600 C606 0.949 . S
C601 H596 0.950 . S
C601 C603 1.327 . S
C601 C607 1.429 . S
C602 C594 1.574 1_565 S
C602 H597 0.949 1_565 S
C602 C608 1.368 . S
C603 C587 1.349 . S
C603 H595 0.950 . S
C603 C601 1.327 . S
C604 C592 1.343 1_545 S
C604 H598 0.950 . S
C604 C605 1.327 . S
C605 H599 0.950 . S
C605 C604 1.327 . S
C605 C609 1.429 1_545 S
C606 C589 1.574 . S
C606 H600 0.949 . S
C606 C610 1.368 . S
C607 C588 1.429 . S
C607 C601 1.429 . S
C607 C608 1.523 . S
C608 C589 1.368 . S
C608 C602 1.368 . S
C608 C607 1.523 . S
C609 C593 1.429 . S
C609 C605 1.429 1_565 S
C609 C610 1.523 . S
C610 C594 1.368 1_565 S
C610 C606 1.368 . S
C610 C609 1.523 . S
H611 C586 0.950 . S
H612 C588 0.950 1_545 S
H613 C589 0.949 . S
H614 C591 0.950 . S
H615 C593 0.950 . S
C616 C617 1.349 . S
C616 C618 1.327 . S
C616 H641 0.950 . S
C617 C616 1.349 . S
C617 C633 1.349 . S
C618 C616 1.327 . S
C618 C637 1.429 . S
C618 H642 0.950 . S
C619 C636 1.574 . S
C619 C638 1.368 . S
C619 H643 0.949 . S
H620 C624 0.949 . S
C621 C622 1.349 . S
C621 C623 1.327 . S
C621 H644 0.950 . S
C622 C621 1.349 . S
C622 C634 1.349 . S
C623 C621 1.327 . S
C623 C639 1.429 . S
C623 H645 0.950 . S
C624 H620 0.949 . S
C624 C632 1.574 . S
C624 C640 1.368 . S
H625 C633 0.950 . S
H626 C631 0.950 . S
H627 C632 0.949 . S
H628 C634 0.950 . S
H629 C635 0.950 . S
H630 C636 0.949 . S
C631 H626 0.950 . S
C631 C633 1.327 . S
C631 C637 1.429 . S
C632 C624 1.574 . S
C632 H627 0.949 . S
C632 C638 1.368 . S
C633 C617 1.349 . S
C633 H625 0.950 . S
C633 C631 1.327 . S
C634 C622 1.349 . S
C634 H628 0.950 . S
C634 C635 1.327 . S
C635 H629 0.950 . S
C635 C634 1.327 . S
C635 C639 1.429 . S
C636 C619 1.574 . S
C636 H630 0.949 . S
C636 C640 1.368 . S
C637 C618 1.429 . S
C637 C631 1.429 . S
C637 C638 1.523 . S
C638 C619 1.368 . S
C638 C632 1.368 . S
C638 C637 1.523 . S
C639 C623 1.429 . S
C639 C635 1.429 . S
C639 C640 1.523 . S
C640 C624 1.368 . S
C640 C636 1.368 . S
C640 C639 1.523 . S
H641 C616 0.950 . S
H642 C618 0.950 . S
H643 C619 0.949 . S
H644 C621 0.950 . S
H645 C623 0.950 . S
C646 C647 1.349 . S
C646 C648 1.327 . S
C646 H671 0.950 . S
C647 C646 1.349 . S
C647 C663 1.349 . S
C648 C646 1.327 . S
C648 C667 1.429 . S
C648 H672 0.950 . S
C649 C666 1.574 . S
C649 C668 1.368 . S
C649 H673 0.949 . S
H650 C654 0.949 . S
C651 C652 1.349 . S
C651 C653 1.327 . S
C651 H674 0.950 . S
C652 C651 1.349 . S
C652 C664 1.349 . S
C653 C651 1.327 . S
C653 C669 1.429 . S
C653 H675 0.950 . S
C654 H650 0.949 . S
C654 C662 1.574 . S
C654 C670 1.368 . S
H655 C663 0.950 . S
H656 C661 0.950 . S
H657 C662 0.949 . S
H658 C664 0.950 . S
H659 C665 0.950 . S
H660 C666 0.949 . S
C661 H656 0.950 . S
C661 C663 1.327 . S
C661 C667 1.429 . S
C662 C654 1.574 . S
C662 H657 0.949 . S
C662 C668 1.368 . S
C663 C647 1.349 . S
C663 H655 0.950 . S
C663 C661 1.327 . S
C664 C652 1.349 . S
C664 H658 0.950 . S
C664 C665 1.327 . S
C665 H659 0.950 . S
C665 C664 1.327 . S
C665 C669 1.429 . S
C666 C649 1.574 . S
C666 H660 0.949 . S
C666 C670 1.368 . S
C667 C648 1.429 . S
C667 C661 1.429 . S
C667 C668 1.523 . S
C668 C649 1.368 . S
C668 C662 1.368 . S
C668 C667 1.523 . S
C669 C653 1.429 . S
C669 C665 1.429 . S
C669 C670 1.523 . S
C670 C654 1.368 . S
C670 C666 1.368 . S
C670 C669 1.523 . S
H671 C646 0.950 . S
H672 C648 0.950 . S
H673 C649 0.949 . S
H674 C651 0.950 . S
H675 C653 0.950 . S
C676 C677 1.349 . S
C676 C678 1.327 . S
C676 H701 0.950 . S
C677 C676 1.349 . S
C677 C693 1.349 . S
C678 C676 1.327 . S
C678 C697 1.429 . S
C678 H702 0.950 . S
C679 C696 1.574 . S
C679 C698 1.368 . S
C679 H703 0.949 . S
H680 C684 0.949 . S
C681 C682 1.349 . S
C681 C683 1.327 . S
C681 H704 0.950 . S
C682 C681 1.349 . S
C682 C694 1.349 . S
C683 C681 1.327 . S
C683 C699 1.429 . S
C683 H705 0.950 . S
C684 H680 0.949 . S
C684 C692 1.574 . S
C684 C700 1.368 . S
H685 C693 0.950 . S
H686 C691 0.950 . S
H687 C692 0.949 . S
H688 C694 0.950 . S
H689 C695 0.950 . S
H690 C696 0.949 . S
C691 H686 0.950 . S
C691 C693 1.327 . S
C691 C697 1.429 . S
C692 C684 1.574 . S
C692 H687 0.949 . S
C692 C698 1.368 . S
C693 C677 1.349 . S
C693 H685 0.950 . S
C693 C691 1.327 . S
C694 C682 1.349 . S
C694 H688 0.950 . S
C694 C695 1.327 . S
C695 H689 0.950 . S
C695 C694 1.327 . S
C695 C699 1.429 . S
C696 C679 1.574 . S
C696 H690 0.949 . S
C696 C700 1.368 . S
C697 C678 1.429 . S
C697 C691 1.429 . S
C697 C698 1.523 . S
C698 C679 1.368 . S
C698 C692 1.368 . S
C698 C697 1.523 . S
C699 C683 1.429 . S
C699 C695 1.429 . S
C699 C700 1.523 . S
C700 C684 1.368 . S
C700 C696 1.368 . S
C700 C699 1.523 . S
H701 C676 0.950 . S
H702 C678 0.950 . S
H703 C679 0.949 . S
H704 C681 0.950 . S
H705 C683 0.950 . S
C706 C707 1.349 . S
C706 C708 1.327 . S
C706 H731 0.950 . S
C707 C706 1.349 . S
C707 C723 1.349 . S
C708 C706 1.327 . S
C708 C727 1.429 . S
C708 H732 0.950 . S
C709 C726 1.574 . S
C709 C728 1.368 . S
C709 H733 0.949 . S
H710 C714 0.949 . S
C711 C712 1.349 . S
C711 C713 1.327 . S
C711 H734 0.950 . S
C712 C711 1.349 . S
C712 C724 1.349 . S
C713 C711 1.327 . S
C713 C729 1.429 . S
C713 H735 0.950 . S
C714 H710 0.949 . S
C714 C722 1.574 . S
C714 C730 1.368 . S
H715 C723 0.950 . S
H716 C721 0.950 . S
H717 C722 0.949 . S
H718 C724 0.950 . S
H719 C725 0.950 . S
H720 C726 0.949 . S
C721 H716 0.950 . S
C721 C723 1.327 . S
C721 C727 1.429 . S
C722 C714 1.574 . S
C722 H717 0.949 . S
C722 C728 1.368 . S
C723 C707 1.349 . S
C723 H715 0.950 . S
C723 C721 1.327 . S
C724 C712 1.349 . S
C724 H718 0.950 . S
C724 C725 1.327 . S
C725 H719 0.950 . S
C725 C724 1.327 . S
C725 C729 1.429 . S
C726 C709 1.574 . S
C726 H720 0.949 . S
C726 C730 1.368 . S
C727 C708 1.429 . S
C727 C721 1.429 . S
C727 C728 1.523 . S
C728 C709 1.368 . S
C728 C722 1.368 . S
C728 C727 1.523 . S
C729 C713 1.429 . S
C729 C725 1.429 . S
C729 C730 1.523 . S
C730 C714 1.368 . S
C730 C726 1.368 . S
C730 C729 1.523 . S
H731 C706 0.950 . S
H732 C708 0.950 . S
H733 C709 0.949 . S
H734 C711 0.950 . S
H735 C713 0.950 . S
C736 C737 1.349 . S
C736 C738 1.327 . S
C736 H761 0.950 . S
C737 C736 1.349 . S
C737 C753 1.349 . S
C738 C736 1.327 . S
C738 C757 1.429 . S
C738 H762 0.950 . S
C739 C756 1.574 . S
C739 C758 1.368 . S
C739 H763 0.949 . S
H740 C744 0.949 . S
C741 C742 1.349 . S
C741 C743 1.327 . S
C741 H764 0.950 . S
C742 C741 1.349 . S
C742 C754 1.349 . S
C743 C741 1.327 . S
C743 C759 1.429 . S
C743 H765 0.950 . S
C744 H740 0.949 . S
C744 C752 1.574 . S
C744 C760 1.368 . S
H745 C753 0.950 . S
H746 C751 0.950 . S
H747 C752 0.949 . S
H748 C754 0.950 . S
H749 C755 0.950 . S
H750 C756 0.949 . S
C751 H746 0.950 . S
C751 C753 1.327 . S
C751 C757 1.429 . S
C752 C744 1.574 . S
C752 H747 0.949 . S
C752 C758 1.368 . S
C753 C737 1.349 . S
C753 H745 0.950 . S
C753 C751 1.327 . S
C754 C742 1.349 . S
C754 H748 0.950 . S
C754 C755 1.327 . S
C755 H749 0.950 . S
C755 C754 1.327 . S
C755 C759 1.429 . S
C756 C739 1.574 . S
C756 H750 0.949 . S
C756 C760 1.368 . S
C757 C738 1.429 . S
C757 C751 1.429 . S
C757 C758 1.523 . S
C758 C739 1.368 . S
C758 C752 1.368 . S
C758 C757 1.523 . S
C759 C743 1.429 . S
C759 C755 1.429 . S
C759 C760 1.523 . S
C760 C744 1.368 . S
C760 C756 1.368 . S
C760 C759 1.523 . S
H761 C736 0.950 . S
H762 C738 0.950 . S
H763 C739 0.949 . S
H764 C741 0.950 . S
H765 C743 0.950 . S
C766 C767 1.349 . S
C766 C768 1.327 . S
C766 H791 0.950 . S
C767 C766 1.349 . S
C767 C783 1.349 . S
C768 C766 1.327 . S
C768 C787 1.429 . S
C768 H792 0.950 . S
C769 C786 1.574 . S
C769 C788 1.368 . S
C769 H793 0.949 . S
H770 C774 0.949 . S
C771 C772 1.349 . S
C771 C773 1.327 . S
C771 H794 0.950 . S
C772 C771 1.349 . S
C772 C784 1.349 . S
C773 C771 1.327 . S
C773 C789 1.429 . S
C773 H795 0.950 . S
C774 H770 0.949 . S
C774 C782 1.574 . S
C774 C790 1.368 . S
H775 C783 0.950 . S
H776 C781 0.950 . S
H777 C782 0.949 . S
H778 C784 0.950 . S
H779 C785 0.950 . S
H780 C786 0.949 . S
C781 H776 0.950 . S
C781 C783 1.327 . S
C781 C787 1.429 . S
C782 C774 1.574 . S
C782 H777 0.949 . S
C782 C788 1.368 . S
C783 C767 1.349 . S
C783 H775 0.950 . S
C783 C781 1.327 . S
C784 C772 1.349 . S
C784 H778 0.950 . S
C784 C785 1.327 . S
C785 H779 0.950 . S
C785 C784 1.327 . S
C785 C789 1.429 . S
C786 C769 1.574 . S
C786 H780 0.949 . S
C786 C790 1.368 . S
C787 C768 1.429 . S
C787 C781 1.429 . S
C787 C788 1.523 . S
C788 C769 1.368 . S
C788 C782 1.368 . S
C788 C787 1.523 . S
C789 C773 1.429 . S
C789 C785 1.429 . S
C789 C790 1.523 . S
C790 C774 1.368 . S
C790 C786 1.368 . S
C790 C789 1.523 . S
H791 C766 0.950 . S
H792 C768 0.950 . S
H793 C769 0.949 . S
H794 C771 0.950 . S
H795 C773 0.950 . S
C796 C797 1.349 . S
C796 C798 1.327 . S
C796 H821 0.950 . S
C797 C796 1.349 . S
C797 C813 1.349 . S
C798 C796 1.327 . S
C798 C817 1.429 . S
C798 H822 0.950 . S
C799 C816 1.574 . S
C799 C818 1.368 . S
C799 H823 0.949 . S
H800 C804 0.949 . S
C801 C802 1.349 . S
C801 C803 1.327 . S
C801 H824 0.950 . S
C802 C801 1.349 . S
C802 C814 1.349 . S
C803 C801 1.327 . S
C803 C819 1.429 . S
C803 H825 0.950 . S
C804 H800 0.949 . S
C804 C812 1.574 . S
C804 C820 1.368 . S
H805 C813 0.950 . S
H806 C811 0.950 . S
H807 C812 0.949 . S
H808 C814 0.950 . S
H809 C815 0.950 . S
H810 C816 0.949 . S
C811 H806 0.950 . S
C811 C813 1.327 . S
C811 C817 1.429 . S
C812 C804 1.574 . S
C812 H807 0.949 . S
C812 C818 1.368 . S
C813 C797 1.349 . S
C813 H805 0.950 . S
C813 C811 1.327 . S
C814 C802 1.349 . S
C814 H808 0.950 . S
C814 C815 1.327 . S
C815 H809 0.950 . S
C815 C814 1.327 . S
C815 C819 1.429 . S
C816 C799 1.574 . S
C816 H810 0.949 . S
C816 C820 1.368 . S
C817 C798 1.429 . S
C817 C811 1.429 . S
C817 C818 1.523 . S
C818 C799 1.368 . S
C818 C812 1.368 . S
C818 C817 1.523 . S
C819 C803 1.429 . S
C819 C815 1.429 . S
C819 C820 1.523 . S
C820 C804 1.368 . S
C820 C816 1.368 . S
C820 C819 1.523 . S
H821 C796 0.950 . S
H822 C798 0.950 . S
H823 C799 0.949 . S
H824 C801 0.950 . S
H825 C803 0.950 . S
C826 C827 1.349 . S
C826 C828 1.327 . S
C826 H851 0.950 . S
C827 C826 1.349 . S
C827 C843 1.349 . S
C828 C826 1.327 . S
C828 C847 1.429 . S
C828 H852 0.950 . S
C829 C846 1.574 . S
C829 C848 1.368 . S
C829 H853 0.949 . S
H830 C834 0.949 1_455 S
C831 C832 1.349 1_655 S
C831 C833 1.327 . S
C831 H854 0.950 . S
C832 C831 1.349 1_455 S
C832 C844 1.349 . S
C833 C831 1.327 . S
C833 C849 1.429 . S
C833 H855 0.950 . S
C834 H830 0.949 1_655 S
C834 C842 1.574 . S
C834 C850 1.368 . S
H835 C843 0.950 . S
H836 C841 0.950 . S
H837 C842 0.949 . S
H838 C844 0.950 . S
H839 C845 0.950 . S
H840 C846 0.949 . S
C841 H836 0.950 . S
C841 C843 1.327 . S
C841 C847 1.429 . S
C842 C834 1.574 . S
C842 H837 0.949 . S
C842 C848 1.368 . S
C843 C827 1.349 . S
C843 H835 0.950 . S
C843 C841 1.327 . S
C844 C832 1.349 . S
C844 H838 0.950 . S
C844 C845 1.327 . S
C845 H839 0.950 . S
C845 C844 1.327 . S
C845 C849 1.429 1_455 S
C846 C829 1.574 . S
C846 H840 0.949 . S
C846 C850 1.368 . S
C847 C828 1.429 . S
C847 C841 1.429 . S
C847 C848 1.523 . S
C848 C829 1.368 . S
C848 C842 1.368 . S
C848 C847 1.523 . S
C849 C833 1.429 . S
C849 C845 1.429 1_655 S
C849 C850 1.523 . S
C850 C834 1.368 . S
C850 C846 1.368 . S
C850 C849 1.523 . S
H851 C826 0.950 . S
H852 C828 0.950 . S
H853 C829 0.949 . S
H854 C831 0.950 . S
H855 C833 0.950 . S
C856 C857 1.349 . S
C856 C858 1.327 . S
C856 H881 0.950 . S
C857 C856 1.349 . S
C857 C873 1.349 . S
C858 C856 1.327 . S
C858 C877 1.429 . S
C858 H882 0.950 . S
C859 C876 1.574 . S
C859 C878 1.368 . S
C859 H883 0.949 . S
H860 C864 0.949 . S
C861 C862 1.349 . S
C861 C863 1.327 . S
C861 H884 0.950 . S
C862 C861 1.349 . S
C862 C874 1.349 . S
C863 C861 1.327 . S
C863 C879 1.429 . S
C863 H885 0.950 . S
C864 H860 0.949 . S
C864 C872 1.574 . S
C864 C880 1.368 . S
H865 C873 0.950 . S
H866 C871 0.950 . S
H867 C872 0.949 . S
H868 C874 0.950 . S
H869 C875 0.950 . S
H870 C876 0.949 . S
C871 H866 0.950 . S
C871 C873 1.327 . S
C871 C877 1.429 . S
C872 C864 1.574 . S
C872 H867 0.949 . S
C872 C878 1.368 . S
C873 C857 1.349 . S
C873 H865 0.950 . S
C873 C871 1.327 . S
C874 C862 1.349 . S
C874 H868 0.950 . S
C874 C875 1.327 . S
C875 H869 0.950 . S
C875 C874 1.327 . S
C875 C879 1.429 . S
C876 C859 1.574 . S
C876 H870 0.949 . S
C876 C880 1.368 . S
C877 C858 1.429 . S
C877 C871 1.429 . S
C877 C878 1.523 . S
C878 C859 1.368 . S
C878 C872 1.368 . S
C878 C877 1.523 . S
C879 C863 1.429 . S
C879 C875 1.429 . S
C879 C880 1.523 . S
C880 C864 1.368 . S
C880 C876 1.368 . S
C880 C879 1.523 . S
H881 C856 0.950 . S
H882 C858 0.950 . S
H883 C859 0.949 . S
H884 C861 0.950 . S
H885 C863 0.950 . S
C886 C887 1.349 . S
C886 C888 1.327 . S
C886 H911 0.950 . S
C887 C886 1.349 . S
C887 C903 1.349 . S
C888 C886 1.327 . S
C888 C907 1.429 . S
C888 H912 0.950 . S
C889 C906 1.574 . S
C889 C908 1.368 . S
C889 H913 0.949 . S
H890 C894 0.949 . S
C891 C892 1.349 . S
C891 C893 1.327 . S
C891 H914 0.950 . S
C892 C891 1.349 . S
C892 C904 1.349 . S
C893 C891 1.327 . S
C893 C909 1.429 . S
C893 H915 0.950 . S
C894 H890 0.949 . S
C894 C902 1.574 . S
C894 C910 1.368 . S
H895 C903 0.950 . S
H896 C901 0.950 . S
H897 C902 0.949 . S
H898 C904 0.950 . S
H899 C905 0.950 . S
H900 C906 0.949 . S
C901 H896 0.950 . S
C901 C903 1.327 . S
C901 C907 1.429 . S
C902 C894 1.574 . S
C902 H897 0.949 . S
C902 C908 1.368 . S
C903 C887 1.349 . S
C903 H895 0.950 . S
C903 C901 1.327 . S
C904 C892 1.349 . S
C904 H898 0.950 . S
C904 C905 1.327 . S
C905 H899 0.950 . S
C905 C904 1.327 . S
C905 C909 1.429 . S
C906 C889 1.574 . S
C906 H900 0.949 . S
C906 C910 1.368 . S
C907 C888 1.429 . S
C907 C901 1.429 . S
C907 C908 1.523 . S
C908 C889 1.368 . S
C908 C902 1.368 . S
C908 C907 1.523 . S
C909 C893 1.429 . S
C909 C905 1.429 . S
C909 C910 1.523 . S
C910 C894 1.368 . S
C910 C906 1.368 . S
C910 C909 1.523 . S
H911 C886 0.950 . S
H912 C888 0.950 . S
H913 C889 0.949 . S
H914 C891 0.950 . S
H915 C893 0.950 . S
C916 C917 1.349 . S
C916 C918 1.327 . S
C916 H941 0.950 . S
C917 C916 1.349 . S
C917 C933 1.349 . S
C918 C916 1.327 . S
C918 C937 1.429 . S
C918 H942 0.950 . S
C919 C936 1.574 . S
C919 C938 1.368 . S
C919 H943 0.949 . S
H920 C924 0.968 . S
C921 C922 1.349 . S
C921 C923 1.327 . S
C921 H944 0.950 . S
C922 C921 1.349 . S
C922 C934 1.349 1_556 S
C923 C921 1.327 . S
C923 C939 1.429 . S
C923 H945 0.950 . S
C924 H920 0.968 . S
C924 C932 1.574 1_565 S
C924 C940 1.368 . S
H925 C933 0.950 . S
H926 C931 0.950 1_565 S
H927 C932 0.949 . S
H928 C934 0.950 . S
H929 C935 0.946 1_554 S
H930 C936 0.949 . S
C931 H926 0.950 1_545 S
C931 C933 1.327 . S
C931 C937 1.429 . S
C932 C924 1.574 1_545 S
C932 H927 0.949 . S
C932 C938 1.368 1_545 S
C933 C917 1.349 . S
C933 H925 0.950 . S
C933 C931 1.327 . S
C934 C922 1.349 1_554 S
C934 H928 0.950 . S
C934 C935 1.323 1_554 S
C935 H929 0.946 1_556 S
C935 C934 1.323 1_556 S
C935 C939 1.437 . S
C936 C919 1.574 . S
C936 H930 0.949 . S
C936 C940 1.368 . S
C937 C918 1.429 . S
C937 C931 1.429 . S
C937 C938 1.523 1_545 S
C938 C919 1.368 . S
C938 C932 1.368 1_565 S
C938 C937 1.523 1_565 S
C939 C923 1.429 . S
C939 C935 1.437 . S
C939 C940 1.523 . S
C940 C924 1.368 . S
C940 C936 1.368 . S
C940 C939 1.523 . S
H941 C916 0.950 . S
H942 C918 0.950 . S
H943 C919 0.949 . S
H944 C921 0.950 . S
H945 C923 0.950 . S
C946 C947 1.349 . S
C946 C948 1.327 . S
C946 H971 0.950 . S
C947 C946 1.349 . S
C947 C963 1.349 . S
C948 C946 1.327 . S
C948 C967 1.429 . S
C948 H972 0.950 . S
C949 C966 1.574 . S
C949 C968 1.368 . S
C949 H973 0.949 . S
H950 C954 0.949 . S
C951 C952 1.349 . S
C951 C953 1.327 . S
C951 H974 0.950 . S
C952 C951 1.349 . S
C952 C964 1.349 . S
C953 C951 1.327 . S
C953 C969 1.429 . S
C953 H975 0.950 . S
C954 H950 0.949 . S
C954 C962 1.574 . S
C954 C970 1.368 . S
H955 C963 0.950 . S
H956 C961 0.950 . S
H957 C962 0.949 . S
H958 C964 0.950 . S
H959 C965 0.950 . S
H960 C966 0.949 . S
C961 H956 0.950 . S
C961 C963 1.327 . S
C961 C967 1.429 . S
C962 C954 1.574 . S
C962 H957 0.949 . S
C962 C968 1.368 . S
C963 C947 1.349 . S
C963 H955 0.950 . S
C963 C961 1.327 . S
C964 C952 1.349 . S
C964 H958 0.950 . S
C964 C965 1.327 . S
C965 H959 0.950 . S
C965 C964 1.327 . S
C965 C969 1.429 . S
C966 C949 1.574 . S
C966 H960 0.949 . S
C966 C970 1.368 . S
C967 C948 1.429 . S
C967 C961 1.429 . S
C967 C968 1.523 . S
C968 C949 1.368 . S
C968 C962 1.368 . S
C968 C967 1.523 . S
C969 C953 1.429 . S
C969 C965 1.429 . S
C969 C970 1.523 . S
C970 C954 1.368 . S
C970 C966 1.368 . S
C970 C969 1.523 . S
H971 C946 0.950 . S
H972 C948 0.950 . S
H973 C949 0.949 . S
H974 C951 0.950 . S
H975 C953 0.950 . S
C976 C977 1.349 . S
C976 C978 1.327 1_565 S
C976 H1001 0.950 . S
C977 C976 1.349 . S
C977 C993 1.349 . S
C978 C976 1.327 1_545 S
C978 C997 1.429 . S
C978 H1002 0.950 . S
C979 C996 1.574 . S
C979 C998 1.368 . S
C979 H1003 0.949 . S
H980 C984 0.949 . S
C981 C982 1.349 . S
C981 C983 1.327 . S
C981 H1004 0.950 . S
C982 C981 1.349 . S
C982 C994 1.349 . S
C983 C981 1.327 . S
C983 C999 1.429 . S
C983 H1005 0.950 . S
C984 H980 0.949 . S
C984 C992 1.574 . S
C984 C1000 1.368 . S
H985 C993 0.950 . S
H986 C991 0.950 . S
H987 C992 0.949 . S
H988 C994 0.950 . S
H989 C995 0.950 . S
H990 C996 0.949 . S
C991 H986 0.950 . S
C991 C993 1.327 . S
C991 C997 1.429 1_565 S
C992 C984 1.574 . S
C992 H987 0.949 . S
C992 C998 1.368 . S
C993 C977 1.349 . S
C993 H985 0.950 . S
C993 C991 1.327 . S
C994 C982 1.349 . S
C994 H988 0.950 . S
C994 C995 1.327 . S
C995 H989 0.950 . S
C995 C994 1.327 . S
C995 C999 1.429 . S
C996 C979 1.574 . S
C996 H990 0.949 . S
C996 C1000 1.368 . S
C997 C978 1.429 . S
C997 C991 1.429 1_545 S
C997 C998 1.523 . S
C998 C979 1.368 . S
C998 C992 1.368 . S
C998 C997 1.523 . S
C999 C983 1.429 . S
C999 C995 1.429 . S
C999 C1000 1.523 . S
C1000 C984 1.368 . S
C1000 C996 1.368 . S
C1000 C999 1.523 . S
H1001 C976 0.950 . S
H1002 C978 0.950 . S
H1003 C979 0.949 . S
H1004 C981 0.950 . S
H1005 C983 0.950 . S
C1006 C1007 1.349 . S
C1006 C1008 1.327 . S
C1006 H1031 0.950 . S
C1007 C1006 1.349 . S
C1007 C1023 1.349 . S
C1008 C1006 1.327 . S
C1008 C1027 1.429 . S
C1008 H1032 0.950 . S
C1009 C1026 1.574 . S
C1009 C1028 1.368 . S
C1009 H1033 0.949 . S
H1010 C1014 0.949 . S
C1011 C1012 1.349 . S
C1011 C1013 1.327 . S
C1011 H1034 0.950 . S
C1012 C1011 1.349 . S
C1012 C1024 1.349 . S
C1013 C1011 1.327 . S
C1013 C1029 1.429 . S
C1013 H1035 0.950 . S
C1014 H1010 0.949 . S
C1014 C1022 1.574 . S
C1014 C1030 1.368 . S
H1015 C1023 0.950 . S
H1016 C1021 0.950 . S
H1017 C1022 0.949 . S
H1018 C1024 0.950 . S
H1019 C1025 0.950 . S
H1020 C1026 0.949 . S
C1021 H1016 0.950 . S
C1021 C1023 1.327 . S
C1021 C1027 1.429 . S
C1022 C1014 1.574 . S
C1022 H1017 0.949 . S
C1022 C1028 1.368 . S
C1023 C1007 1.349 . S
C1023 H1015 0.950 . S
C1023 C1021 1.327 . S
C1024 C1012 1.349 . S
C1024 H1018 0.950 . S
C1024 C1025 1.327 . S
C1025 H1019 0.950 . S
C1025 C1024 1.327 . S
C1025 C1029 1.429 . S
C1026 C1009 1.574 . S
C1026 H1020 0.949 . S
C1026 C1030 1.368 . S
C1027 C1008 1.429 . S
C1027 C1021 1.429 . S
C1027 C1028 1.523 . S
C1028 C1009 1.368 . S
C1028 C1022 1.368 . S
C1028 C1027 1.523 . S
C1029 C1013 1.429 . S
C1029 C1025 1.429 . S
C1029 C1030 1.523 . S
C1030 C1014 1.368 . S
C1030 C1026 1.368 . S
C1030 C1029 1.523 . S
H1031 C1006 0.950 . S
H1032 C1008 0.950 . S
H1033 C1009 0.949 . S
H1034 C1011 0.950 . S
H1035 C1013 0.950 . S
C1036 C1037 1.349 . S
C1036 C1038 1.327 . S
C1036 H1061 0.950 . S
C1037 C1036 1.349 . S
C1037 C1053 1.349 1_565 S
C1038 C1036 1.327 . S
C1038 C1057 1.429 1_565 S
C1038 H1062 0.950 . S
C1039 C1056 1.574 . S
C1039 C1058 1.368 . S
C1039 H1063 0.949 . S
H1040 C1044 0.949 . S
C1041 C1042 1.349 . S
C1041 C1043 1.327 . S
C1041 H1064 0.950 . S
C1042 C1041 1.349 . S
C1042 C1054 1.349 . S
C1043 C1041 1.327 . S
C1043 C1059 1.429 . S
C1043 H1065 0.950 . S
C1044 H1040 0.949 . S
C1044 C1052 1.574 . S
C1044 C1060 1.368 . S
H1045 C1053 0.950 . S
H1046 C1051 0.950 . S
H1047 C1052 0.949 . S
H1048 C1054 0.950 . S
H1049 C1055 0.950 . S
H1050 C1056 0.949 . S
C1051 H1046 0.950 . S
C1051 C1053 1.327 . S
C1051 C1057 1.429 . S
C1052 C1044 1.574 . S
C1052 H1047 0.949 . S
C1052 C1058 1.368 . S
C1053 C1037 1.349 1_545 S
C1053 H1045 0.950 . S
C1053 C1051 1.327 . S
C1054 C1042 1.349 . S
C1054 H1048 0.950 . S
C1054 C1055 1.327 . S
C1055 H1049 0.950 . S
C1055 C1054 1.327 . S
C1055 C1059 1.429 . S
C1056 C1039 1.574 . S
C1056 H1050 0.949 . S
C1056 C1060 1.368 . S
C1057 C1038 1.429 1_545 S
C1057 C1051 1.429 . S
C1057 C1058 1.523 . S
C1058 C1039 1.368 . S
C1058 C1052 1.368 . S
C1058 C1057 1.523 . S
C1059 C1043 1.429 . S
C1059 C1055 1.429 . S
C1059 C1060 1.523 . S
C1060 C1044 1.368 . S
C1060 C1056 1.368 . S
C1060 C1059 1.523 . S
H1061 C1036 0.950 . S
H1062 C1038 0.950 . S
H1063 C1039 0.949 . S
H1064 C1041 0.950 . S
H1065 C1043 0.950 . S
C1066 C1067 1.349 . S
C1066 C1068 1.327 . S
C1066 H1091 0.950 . S
C1067 C1066 1.349 . S
C1067 C1083 1.349 . S
C1068 C1066 1.327 . S
C1068 C1087 1.429 . S
C1068 H1092 0.950 . S
C1069 C1086 1.574 . S
C1069 C1088 1.368 . S
C1069 H1093 0.949 . S
H1070 C1074 0.949 . S
C1071 C1072 1.349 . S
C1071 C1073 1.327 . S
C1071 H1094 0.950 . S
C1072 C1071 1.349 . S
C1072 C1084 1.349 . S
C1073 C1071 1.327 . S
C1073 C1089 1.429 . S
C1073 H1095 0.950 . S
C1074 H1070 0.949 . S
C1074 C1082 1.574 . S
C1074 C1090 1.368 . S
H1075 C1083 0.950 . S
H1076 C1081 0.950 . S
H1077 C1082 0.949 . S
H1078 C1084 0.950 . S
H1079 C1085 0.950 . S
H1080 C1086 0.949 . S
C1081 H1076 0.950 . S
C1081 C1083 1.327 . S
C1081 C1087 1.429 . S
C1082 C1074 1.574 . S
C1082 H1077 0.949 . S
C1082 C1088 1.368 . S
C1083 C1067 1.349 . S
C1083 H1075 0.950 . S
C1083 C1081 1.327 . S
C1084 C1072 1.349 . S
C1084 H1078 0.950 . S
C1084 C1085 1.327 . S
C1085 H1079 0.950 . S
C1085 C1084 1.327 . S
C1085 C1089 1.429 . S
C1086 C1069 1.574 . S
C1086 H1080 0.949 . S
C1086 C1090 1.368 . S
C1087 C1068 1.429 . S
C1087 C1081 1.429 . S
C1087 C1088 1.523 . S
C1088 C1069 1.368 . S
C1088 C1082 1.368 . S
C1088 C1087 1.523 . S
C1089 C1073 1.429 . S
C1089 C1085 1.429 . S
C1089 C1090 1.523 . S
C1090 C1074 1.368 . S
C1090 C1086 1.368 . S
C1090 C1089 1.523 . S
H1091 C1066 0.950 . S
H1092 C1068 0.950 . S
H1093 C1069 0.949 . S
H1094 C1071 0.950 . S
H1095 C1073 0.950 . S
C1096 C1097 1.349 . S
C1096 C1098 1.327 . S
C1096 H1121 0.950 . S
C1097 C1096 1.349 . S
C1097 C1113 1.349 . S
C1098 C1096 1.327 . S
C1098 C1117 1.429 . S
C1098 H1122 0.950 . S
C1099 C1116 1.574 . S
C1099 C1118 1.368 . S
C1099 H1123 0.949 . S
H1100 C1104 0.949 . S
C1101 C1102 1.349 . S
C1101 C1103 1.327 . S
C1101 H1124 0.950 . S
C1102 C1101 1.349 . S
C1102 C1114 1.349 . S
C1103 C1101 1.327 . S
C1103 C1119 1.429 . S
C1103 H1125 0.950 . S
C1104 H1100 0.949 . S
C1104 C1112 1.574 . S
C1104 C1120 1.368 . S
H1105 C1113 0.950 . S
H1106 C1111 0.950 . S
H1107 C1112 0.949 . S
H1108 C1114 0.950 . S
H1109 C1115 0.950 . S
H1110 C1116 0.949 . S
C1111 H1106 0.950 . S
C1111 C1113 1.327 . S
C1111 C1117 1.429 . S
C1112 C1104 1.574 . S
C1112 H1107 0.949 . S
C1112 C1118 1.368 . S
C1113 C1097 1.349 . S
C1113 H1105 0.950 . S
C1113 C1111 1.327 . S
C1114 C1102 1.349 . S
C1114 H1108 0.950 . S
C1114 C1115 1.327 . S
C1115 H1109 0.950 . S
C1115 C1114 1.327 . S
C1115 C1119 1.429 . S
C1116 C1099 1.574 . S
C1116 H1110 0.949 . S
C1116 C1120 1.368 . S
C1117 C1098 1.429 . S
C1117 C1111 1.429 . S
C1117 C1118 1.523 . S
C1118 C1099 1.368 . S
C1118 C1112 1.368 . S
C1118 C1117 1.523 . S
C1119 C1103 1.429 . S
C1119 C1115 1.429 . S
C1119 C1120 1.523 . S
C1120 C1104 1.368 . S
C1120 C1116 1.368 . S
C1120 C1119 1.523 . S
H1121 C1096 0.950 . S
H1122 C1098 0.950 . S
H1123 C1099 0.949 . S
H1124 C1101 0.950 . S
H1125 C1103 0.950 . S
C1126 C1127 1.349 . S
C1126 C1128 1.327 . S
C1126 H1151 0.950 . S
C1127 C1126 1.349 . S
C1127 C1143 1.349 . S
C1128 C1126 1.327 . S
C1128 C1147 1.429 . S
C1128 H1152 0.950 . S
C1129 C1146 1.574 . S
C1129 C1148 1.368 . S
C1129 H1153 0.949 . S
H1130 C1134 0.949 . S
C1131 C1132 1.349 . S
C1131 C1133 1.327 . S
C1131 H1154 0.950 . S
C1132 C1131 1.349 . S
C1132 C1144 1.349 . S
C1133 C1131 1.327 . S
C1133 C1149 1.429 . S
C1133 H1155 0.950 . S
C1134 H1130 0.949 . S
C1134 C1142 1.574 . S
C1134 C1150 1.368 . S
H1135 C1143 0.950 . S
H1136 C1141 0.950 . S
H1137 C1142 0.949 . S
H1138 C1144 0.950 . S
H1139 C1145 0.950 . S
H1140 C1146 0.949 . S
C1141 H1136 0.950 . S
C1141 C1143 1.327 . S
C1141 C1147 1.429 . S
C1142 C1134 1.574 . S
C1142 H1137 0.949 . S
C1142 C1148 1.368 . S
C1143 C1127 1.349 . S
C1143 H1135 0.950 . S
C1143 C1141 1.327 . S
C1144 C1132 1.349 . S
C1144 H1138 0.950 . S
C1144 C1145 1.327 . S
C1145 H1139 0.950 . S
C1145 C1144 1.327 . S
C1145 C1149 1.429 . S
C1146 C1129 1.574 . S
C1146 H1140 0.949 . S
C1146 C1150 1.368 . S
C1147 C1128 1.429 . S
C1147 C1141 1.429 . S
C1147 C1148 1.523 . S
C1148 C1129 1.368 . S
C1148 C1142 1.368 . S
C1148 C1147 1.523 . S
C1149 C1133 1.429 . S
C1149 C1145 1.429 . S
C1149 C1150 1.523 . S
C1150 C1134 1.368 . S
C1150 C1146 1.368 . S
C1150 C1149 1.523 . S
H1151 C1126 0.950 . S
H1152 C1128 0.950 . S
H1153 C1129 0.949 . S
H1154 C1131 0.950 . S
H1155 C1133 0.950 . S
C1156 C1157 1.349 . S
C1156 C1158 1.327 . S
C1156 H1181 0.950 . S
C1157 C1156 1.349 . S
C1157 C1173 1.349 . S
C1158 C1156 1.327 . S
C1158 C1177 1.429 . S
C1158 H1182 0.950 . S
C1159 C1176 1.574 . S
C1159 C1178 1.368 . S
C1159 H1183 0.949 . S
H1160 C1164 0.949 . S
C1161 C1162 1.349 . S
C1161 C1163 1.327 . S
C1161 H1184 0.950 . S
C1162 C1161 1.349 . S
C1162 C1174 1.349 . S
C1163 C1161 1.327 . S
C1163 C1179 1.429 . S
C1163 H1185 0.950 . S
C1164 H1160 0.949 . S
C1164 C1172 1.574 . S
C1164 C1180 1.368 . S
H1165 C1173 0.950 . S
H1166 C1171 0.950 . S
H1167 C1172 0.949 . S
H1168 C1174 0.950 . S
H1169 C1175 0.950 . S
H1170 C1176 0.949 . S
C1171 H1166 0.950 . S
C1171 C1173 1.327 . S
C1171 C1177 1.429 . S
C1172 C1164 1.574 . S
C1172 H1167 0.949 . S
C1172 C1178 1.368 . S
C1173 C1157 1.349 . S
C1173 H1165 0.950 . S
C1173 C1171 1.327 . S
C1174 C1162 1.349 . S
C1174 H1168 0.950 . S
C1174 C1175 1.327 . S
C1175 H1169 0.950 . S
C1175 C1174 1.327 . S
C1175 C1179 1.429 . S
C1176 C1159 1.574 . S
C1176 H1170 0.949 . S
C1176 C1180 1.368 . S
C1177 C1158 1.429 . S
C1177 C1171 1.429 . S
C1177 C1178 1.523 . S
C1178 C1159 1.368 . S
C1178 C1172 1.368 . S
C1178 C1177 1.523 . S
C1179 C1163 1.429 . S
C1179 C1175 1.429 . S
C1179 C1180 1.523 . S
C1180 C1164 1.368 . S
C1180 C1176 1.368 . S
C1180 C1179 1.523 . S
H1181 C1156 0.950 . S
H1182 C1158 0.950 . S
H1183 C1159 0.949 . S
H1184 C1161 0.950 . S
H1185 C1163 0.950 . S
C1186 C1187 1.349 . S
C1186 C1188 1.327 . S
C1186 H1211 0.950 . S
C1187 C1186 1.349 . S
C1187 C1203 1.349 . S
C1188 C1186 1.327 . S
C1188 C1207 1.429 . S
C1188 H1212 0.950 . S
C1189 C1206 1.574 . S
C1189 C1208 1.368 . S
C1189 H1213 0.949 . S
H1190 C1194 0.949 . S
C1191 C1192 1.349 . S
C1191 C1193 1.327 . S
C1191 H1214 0.950 . S
C1192 C1191 1.349 . S
C1192 C1204 1.349 . S
C1193 C1191 1.327 . S
C1193 C1209 1.429 . S
C1193 H1215 0.950 . S
C1194 H1190 0.949 . S
C1194 C1202 1.574 . S
C1194 C1210 1.368 . S
H1195 C1203 0.950 . S
H1196 C1201 0.950 . S
H1197 C1202 0.949 . S
H1198 C1204 0.950 . S
H1199 C1205 0.950 . S
H1200 C1206 0.949 . S
C1201 H1196 0.950 . S
C1201 C1203 1.327 . S
C1201 C1207 1.429 . S
C1202 C1194 1.574 . S
C1202 H1197 0.949 . S
C1202 C1208 1.368 . S
C1203 C1187 1.349 . S
C1203 H1195 0.950 . S
C1203 C1201 1.327 . S
C1204 C1192 1.349 . S
C1204 H1198 0.950 . S
C1204 C1205 1.327 . S
C1205 H1199 0.950 . S
C1205 C1204 1.327 . S
C1205 C1209 1.429 . S
C1206 C1189 1.574 . S
C1206 H1200 0.949 . S
C1206 C1210 1.368 . S
C1207 C1188 1.429 . S
C1207 C1201 1.429 . S
C1207 C1208 1.523 . S
C1208 C1189 1.368 . S
C1208 C1202 1.368 . S
C1208 C1207 1.523 . S
C1209 C1193 1.429 . S
C1209 C1205 1.429 . S
C1209 C1210 1.523 . S
C1210 C1194 1.368 . S
C1210 C1206 1.368 . S
C1210 C1209 1.523 . S
H1211 C1186 0.950 . S
H1212 C1188 0.950 . S
H1213 C1189 0.949 . S
H1214 C1191 0.950 . S
H1215 C1193 0.950 . S
C1216 C1217 1.349 . S
C1216 C1218 1.327 . S
C1216 H1241 0.950 . S
C1217 C1216 1.349 . S
C1217 C1233 1.349 . S
C1218 C1216 1.327 . S
C1218 C1237 1.429 . S
C1218 H1242 0.950 . S
C1219 C1236 1.574 . S
C1219 C1238 1.368 . S
C1219 H1243 0.949 . S
H1220 C1224 0.949 . S
C1221 C1222 1.349 . S
C1221 C1223 1.327 . S
C1221 H1244 0.950 . S
C1222 C1221 1.349 . S
C1222 C1234 1.349 . S
C1223 C1221 1.327 . S
C1223 C1239 1.429 . S
C1223 H1245 0.950 . S
C1224 H1220 0.949 . S
C1224 C1232 1.574 . S
C1224 C1240 1.368 . S
H1225 C1233 0.950 . S
H1226 C1231 0.950 . S
H1227 C1232 0.949 . S
H1228 C1234 0.950 . S
H1229 C1235 0.950 . S
H1230 C1236 0.949 . S
C1231 H1226 0.950 . S
C1231 C1233 1.327 . S
C1231 C1237 1.429 . S
C1232 C1224 1.574 . S
C1232 H1227 0.949 . S
C1232 C1238 1.368 . S
C1233 C1217 1.349 . S
C1233 H1225 0.950 . S
C1233 C1231 1.327 . S
C1234 C1222 1.349 . S
C1234 H1228 0.950 . S
C1234 C1235 1.327 . S
C1235 H1229 0.950 . S
C1235 C1234 1.327 . S
C1235 C1239 1.429 . S
C1236 C1219 1.574 . S
C1236 H1230 0.949 . S
C1236 C1240 1.368 . S
C1237 C1218 1.429 . S
C1237 C1231 1.429 . S
C1237 C1238 1.523 . S
C1238 C1219 1.368 . S
C1238 C1232 1.368 . S
C1238 C1237 1.523 . S
C1239 C1223 1.429 . S
C1239 C1235 1.429 . S
C1239 C1240 1.523 . S
C1240 C1224 1.368 . S
C1240 C1236 1.368 . S
C1240 C1239 1.523 . S
H1241 C1216 0.950 . S
H1242 C1218 0.950 . S
H1243 C1219 0.949 . S
H1244 C1221 0.950 . S
H1245 C1223 0.950 . S
C1246 C1247 1.352 1_565 S
C1246 C1248 1.337 . S
C1246 H1271 0.937 1_655 S
C1247 C1246 1.352 1_545 S
C1247 C1263 1.349 . S
C1248 C1246 1.337 . S
C1248 C1267 1.429 1_565 S
C1248 H1272 0.950 . S
C1249 C1266 1.574 . S
C1249 C1268 1.368 . S
C1249 H1273 0.949 . S
H1250 C1254 0.949 . S
C1251 C1252 1.349 . S
C1251 C1253 1.327 . S
C1251 H1274 0.950 . S
C1252 C1251 1.349 . S
C1252 C1264 1.349 1_545 S
C1253 C1251 1.327 . S
C1253 C1269 1.429 . S
C1253 H1275 0.950 . S
C1254 H1250 0.949 . S
C1254 C1262 1.574 . S
C1254 C1270 1.368 1_565 S
H1255 C1263 0.950 . S
H1256 C1261 0.950 . S
H1257 C1262 0.949 . S
H1258 C1264 0.950 . S
H1259 C1265 0.950 . S
H1260 C1266 0.949 . S
C1261 H1256 0.950 . S
C1261 C1263 1.327 . S
C1261 C1267 1.429 . S
C1262 C1254 1.574 . S
C1262 H1257 0.949 . S
C1262 C1268 1.368 1_565 S
C1263 C1247 1.349 . S
C1263 H1255 0.950 . S
C1263 C1261 1.327 . S
C1264 C1252 1.349 1_565 S
C1264 H1258 0.950 . S
C1264 C1265 1.327 . S
C1265 H1259 0.950 . S
C1265 C1264 1.327 . S
C1265 C1269 1.429 1_565 S
C1266 C1249 1.574 . S
C1266 H1260 0.949 . S
C1266 C1270 1.368 . S
C1267 C1248 1.429 1_545 S
C1267 C1261 1.429 . S
C1267 C1268 1.523 . S
C1268 C1249 1.368 . S
C1268 C1262 1.368 1_545 S
C1268 C1267 1.523 . S
C1269 C1253 1.429 . S
C1269 C1265 1.429 1_545 S
C1269 C1270 1.523 . S
C1270 C1254 1.368 1_545 S
C1270 C1266 1.368 . S
C1270 C1269 1.523 . S
H1271 C1246 0.937 1_455 S
H1272 C1248 0.950 . S
H1273 C1249 0.949 . S
H1274 C1251 0.950 . S
H1275 C1253 0.950 . S
C1276 C1277 1.349 . S
C1276 C1278 1.327 . S
C1276 H1301 0.950 . S
C1277 C1276 1.349 . S
C1277 C1293 1.349 . S
C1278 C1276 1.327 . S
C1278 C1297 1.429 . S
C1278 H1302 0.950 . S
C1279 C1296 1.574 . S
C1279 C1298 1.368 . S
C1279 H1303 0.949 . S
H1280 C1284 0.949 . S
C1281 C1282 1.349 . S
C1281 C1283 1.327 . S
C1281 H1304 0.950 . S
C1282 C1281 1.349 . S
C1282 C1294 1.349 . S
C1283 C1281 1.327 . S
C1283 C1299 1.429 . S
C1283 H1305 0.950 . S
C1284 H1280 0.949 . S
C1284 C1292 1.574 . S
C1284 C1300 1.368 . S
H1285 C1293 0.950 . S
H1286 C1291 0.950 . S
H1287 C1292 0.949 . S
H1288 C1294 0.950 . S
H1289 C1295 0.950 . S
H1290 C1296 0.949 . S
C1291 H1286 0.950 . S
C1291 C1293 1.327 . S
C1291 C1297 1.429 . S
C1292 C1284 1.574 . S
C1292 H1287 0.949 . S
C1292 C1298 1.368 . S
C1293 C1277 1.349 . S
C1293 H1285 0.950 . S
C1293 C1291 1.327 . S
C1294 C1282 1.349 . S
C1294 H1288 0.950 . S
C1294 C1295 1.327 . S
C1295 H1289 0.950 . S
C1295 C1294 1.327 . S
C1295 C1299 1.429 . S
C1296 C1279 1.574 . S
C1296 H1290 0.949 . S
C1296 C1300 1.368 . S
C1297 C1278 1.429 . S
C1297 C1291 1.429 . S
C1297 C1298 1.523 . S
C1298 C1279 1.368 . S
C1298 C1292 1.368 . S
C1298 C1297 1.523 . S
C1299 C1283 1.429 . S
C1299 C1295 1.429 . S
C1299 C1300 1.523 . S
C1300 C1284 1.368 . S
C1300 C1296 1.368 . S
C1300 C1299 1.523 . S
H1301 C1276 0.950 . S
H1302 C1278 0.950 . S
H1303 C1279 0.949 . S
H1304 C1281 0.950 . S
H1305 C1283 0.950 . S
C1306 C1307 1.349 . S
C1306 C1308 1.327 1_655 S
C1306 H1331 0.950 . S
C1307 C1306 1.349 . S
C1307 C1323 1.349 . S
C1308 C1306 1.327 1_455 S
C1308 C1327 1.429 . S
C1308 H1332 0.950 . S
C1309 C1326 1.574 . S
C1309 C1328 1.368 . S
C1309 H1333 0.949 . S
H1310 C1314 0.949 . S
C1311 C1312 1.349 . S
C1311 C1313 1.327 . S
C1311 H1334 0.950 . S
C1312 C1311 1.349 . S
C1312 C1324 1.349 . S
C1313 C1311 1.327 . S
C1313 C1329 1.429 . S
C1313 H1335 0.950 . S
C1314 H1310 0.949 . S
C1314 C1322 1.574 . S
C1314 C1330 1.368 . S
H1315 C1323 0.950 . S
H1316 C1321 0.950 . S
H1317 C1322 0.949 . S
H1318 C1324 0.950 . S
H1319 C1325 0.950 . S
H1320 C1326 0.949 . S
C1321 H1316 0.950 . S
C1321 C1323 1.327 1_455 S
C1321 C1327 1.429 . S
C1322 C1314 1.574 . S
C1322 H1317 0.949 . S
C1322 C1328 1.368 . S
C1323 C1307 1.349 . S
C1323 H1315 0.950 . S
C1323 C1321 1.327 1_655 S
C1324 C1312 1.349 . S
C1324 H1318 0.950 . S
C1324 C1325 1.327 . S
C1325 H1319 0.950 . S
C1325 C1324 1.327 . S
C1325 C1329 1.429 . S
C1326 C1309 1.574 . S
C1326 H1320 0.949 . S
C1326 C1330 1.368 . S
C1327 C1308 1.429 . S
C1327 C1321 1.429 . S
C1327 C1328 1.523 . S
C1328 C1309 1.368 . S
C1328 C1322 1.368 . S
C1328 C1327 1.523 . S
C1329 C1313 1.429 . S
C1329 C1325 1.429 . S
C1329 C1330 1.523 . S
C1330 C1314 1.368 . S
C1330 C1326 1.368 . S
C1330 C1329 1.523 . S
H1331 C1306 0.950 . S
H1332 C1308 0.950 . S
H1333 C1309 0.949 . S
H1334 C1311 0.950 . S
H1335 C1313 0.950 . S
C1336 C1337 1.349 . S
C1336 C1338 1.327 . S
C1336 H1361 0.950 . S
C1337 C1336 1.349 . S
C1337 C1353 1.349 . S
C1338 C1336 1.327 . S
C1338 C1357 1.429 . S
C1338 H1362 0.950 . S
C1339 C1356 1.574 . S
C1339 C1358 1.368 . S
C1339 H1363 0.949 . S
H1340 C1344 0.949 . S
C1341 C1342 1.349 . S
C1341 C1343 1.327 . S
C1341 H1364 0.950 . S
C1342 C1341 1.349 . S
C1342 C1354 1.349 . S
C1343 C1341 1.327 . S
C1343 C1359 1.429 . S
C1343 H1365 0.950 . S
C1344 H1340 0.949 . S
C1344 C1352 1.574 . S
C1344 C1360 1.368 . S
H1345 C1353 0.950 . S
H1346 C1351 0.950 . S
H1347 C1352 0.949 . S
H1348 C1354 0.950 . S
H1349 C1355 0.950 . S
H1350 C1356 0.949 . S
C1351 H1346 0.950 . S
C1351 C1353 1.327 . S
C1351 C1357 1.429 . S
C1352 C1344 1.574 . S
C1352 H1347 0.949 . S
C1352 C1358 1.368 . S
C1353 C1337 1.349 . S
C1353 H1345 0.950 . S
C1353 C1351 1.327 . S
C1354 C1342 1.349 . S
C1354 H1348 0.950 . S
C1354 C1355 1.327 . S
C1355 H1349 0.950 . S
C1355 C1354 1.327 . S
C1355 C1359 1.429 . S
C1356 C1339 1.574 . S
C1356 H1350 0.949 . S
C1356 C1360 1.368 . S
C1357 C1338 1.429 . S
C1357 C1351 1.429 . S
C1357 C1358 1.523 . S
C1358 C1339 1.368 . S
C1358 C1352 1.368 . S
C1358 C1357 1.523 . S
C1359 C1343 1.429 . S
C1359 C1355 1.429 . S
C1359 C1360 1.523 . S
C1360 C1344 1.368 . S
C1360 C1356 1.368 . S
C1360 C1359 1.523 . S
H1361 C1336 0.950 . S
H1362 C1338 0.950 . S
H1363 C1339 0.949 . S
H1364 C1341 0.950 . S
H1365 C1343 0.950 . S
C1366 C1367 1.349 . S
C1366 C1368 1.327 . S
C1366 H1391 0.950 . S
C1367 C1366 1.349 . S
C1367 C1383 1.349 . S
C1368 C1366 1.327 . S
C1368 C1387 1.429 . S
C1368 H1392 0.950 . S
C1369 C1386 1.574 . S
C1369 C1388 1.368 . S
C1369 H1393 0.949 . S
H1370 C1374 0.949 1_455 S
C1371 C1372 1.349 . S
C1371 C1373 1.327 . S
C1371 H1394 0.950 . S
C1372 C1371 1.349 . S
C1372 C1384 1.349 1_655 S
C1373 C1371 1.327 . S
C1373 C1389 1.429 . S
C1373 H1395 0.950 . S
C1374 H1370 0.949 1_655 S
C1374 C1382 1.574 . S
C1374 C1390 1.368 . S
H1375 C1383 0.950 . S
H1376 C1381 0.950 . S
H1377 C1382 0.949 . S
H1378 C1384 0.950 . S
H1379 C1385 0.929 1_455 S
H1380 C1386 0.949 . S
C1381 H1376 0.950 . S
C1381 C1383 1.327 . S
C1381 C1387 1.429 . S
C1382 C1374 1.574 . S
C1382 H1377 0.949 . S
C1382 C1388 1.368 1_556 S
C1383 C1367 1.349 . S
C1383 H1375 0.950 . S
C1383 C1381 1.327 . S
C1384 C1372 1.349 1_455 S
C1384 H1378 0.950 . S
C1384 C1385 1.318 1_455 S
C1385 H1379 0.929 1_655 S
C1385 C1384 1.318 1_655 S
C1385 C1389 1.460 . S
C1386 C1369 1.574 . S
C1386 H1380 0.949 . S
C1386 C1390 1.368 1_554 S
C1387 C1368 1.429 . S
C1387 C1381 1.429 . S
C1387 C1388 1.523 . S
C1388 C1369 1.368 . S
C1388 C1382 1.368 1_554 S
C1388 C1387 1.523 . S
C1389 C1373 1.429 . S
C1389 C1385 1.460 . S
C1389 C1390 1.523 . S
C1390 C1374 1.368 . S
C1390 C1386 1.368 1_556 S
C1390 C1389 1.523 . S
H1391 C1366 0.950 . S
H1392 C1368 0.950 . S
H1393 C1369 0.949 . S
H1394 C1371 0.950 . S
H1395 C1373 0.950 . S
C1396 C1397 1.349 . S
C1396 C1398 1.327 . S
C1396 H1421 0.950 . S
C1397 C1396 1.349 . S
C1397 C1413 1.349 . S
C1398 C1396 1.327 . S
C1398 C1417 1.429 . S
C1398 H1422 0.950 . S
C1399 C1416 1.574 . S
C1399 C1418 1.368 . S
C1399 H1423 0.949 . S
H1400 C1404 0.949 . S
C1401 C1402 1.349 . S
C1401 C1403 1.327 . S
C1401 H1424 0.950 . S
C1402 C1401 1.349 . S
C1402 C1414 1.349 . S
C1403 C1401 1.327 . S
C1403 C1419 1.429 . S
C1403 H1425 0.950 . S
C1404 H1400 0.949 . S
C1404 C1412 1.574 . S
C1404 C1420 1.368 . S
H1405 C1413 0.950 . S
H1406 C1411 0.950 . S
H1407 C1412 0.949 . S
H1408 C1414 0.950 . S
H1409 C1415 0.950 . S
H1410 C1416 0.949 . S
C1411 H1406 0.950 . S
C1411 C1413 1.327 . S
C1411 C1417 1.429 . S
C1412 C1404 1.574 . S
C1412 H1407 0.949 . S
C1412 C1418 1.368 . S
C1413 C1397 1.349 . S
C1413 H1405 0.950 . S
C1413 C1411 1.327 . S
C1414 C1402 1.349 . S
C1414 H1408 0.950 . S
C1414 C1415 1.327 . S
C1415 H1409 0.950 . S
C1415 C1414 1.327 . S
C1415 C1419 1.429 . S
C1416 C1399 1.574 . S
C1416 H1410 0.949 . S
C1416 C1420 1.368 . S
C1417 C1398 1.429 . S
C1417 C1411 1.429 . S
C1417 C1418 1.523 . S
C1418 C1399 1.368 . S
C1418 C1412 1.368 . S
C1418 C1417 1.523 . S
C1419 C1403 1.429 . S
C1419 C1415 1.429 . S
C1419 C1420 1.523 . S
C1420 C1404 1.368 . S
C1420 C1416 1.368 . S
C1420 C1419 1.523 . S
H1421 C1396 0.950 . S
H1422 C1398 0.950 . S
H1423 C1399 0.949 . S
H1424 C1401 0.950 . S
H1425 C1403 0.950 . S
C1426 C1427 1.349 . S
C1426 C1428 1.327 . S
C1426 H1451 0.950 . S
C1427 C1426 1.349 . S
C1427 C1443 1.349 . S
C1428 C1426 1.327 . S
C1428 C1447 1.429 . S
C1428 H1452 0.956 . S
C1429 C1446 1.561 1_554 S
C1429 C1448 1.341 1_654 S
C1429 H1453 0.986 . S
H1430 C1434 0.949 . S
C1431 C1432 1.349 1_655 S
C1431 C1433 1.327 . S
C1431 H1454 0.950 . S
C1432 C1431 1.349 1_455 S
C1432 C1444 1.349 . S
C1433 C1431 1.327 . S
C1433 C1449 1.429 1_655 S
C1433 H1455 0.950 . S
C1434 H1430 0.949 . S
C1434 C1442 1.574 . S
C1434 C1450 1.368 . S
H1435 C1443 0.950 1_655 S
H1436 C1441 0.950 1_655 S
H1437 C1442 0.949 . S
H1438 C1444 0.950 . S
H1439 C1445 0.950 . S
H1440 C1446 0.949 . S
C1441 H1436 0.950 1_455 S
C1441 C1443 1.327 . S
C1441 C1447 1.429 . S
C1442 C1434 1.574 . S
C1442 H1437 0.949 . S
C1442 C1448 1.368 . S
C1443 C1427 1.349 . S
C1443 H1435 0.950 1_455 S
C1443 C1441 1.327 . S
C1444 C1432 1.349 . S
C1444 H1438 0.950 . S
C1444 C1445 1.327 . S
C1445 H1439 0.950 . S
C1445 C1444 1.327 . S
C1445 C1449 1.429 . S
C1446 C1429 1.561 1_556 S
C1446 H1440 0.949 . S
C1446 C1450 1.368 1_655 S
C1447 C1428 1.429 . S
C1447 C1441 1.429 . S
C1447 C1448 1.523 1_554 S
C1448 C1429 1.341 1_456 S
C1448 C1442 1.368 . S
C1448 C1447 1.523 1_556 S
C1449 C1433 1.429 1_455 S
C1449 C1445 1.429 . S
C1449 C1450 1.523 . S
C1450 C1434 1.368 . S
C1450 C1446 1.368 1_455 S
C1450 C1449 1.523 . S
H1451 C1426 0.950 . S
H1452 C1428 0.956 . S
H1453 C1429 0.986 . S
H1454 C1431 0.950 . S
H1455 C1433 0.950 . S
C1456 C1457 1.349 . S
C1456 C1458 1.327 . S
C1456 H1481 0.950 . S
C1457 C1456 1.349 . S
C1457 C1473 1.349 . S
C1458 C1456 1.327 . S
C1458 C1477 1.429 . S
C1458 H1482 0.950 . S
C1459 C1476 1.574 . S
C1459 C1478 1.368 . S
C1459 H1483 0.949 . S
H1460 C1464 0.949 . S
C1461 C1462 1.349 . S
C1461 C1463 1.327 . S
C1461 H1484 0.950 . S
C1462 C1461 1.349 . S
C1462 C1474 1.349 . S
C1463 C1461 1.327 . S
C1463 C1479 1.429 . S
C1463 H1485 0.950 . S
C1464 H1460 0.949 . S
C1464 C1472 1.574 . S
C1464 C1480 1.368 . S
H1465 C1473 0.950 . S
H1466 C1471 0.950 . S
H1467 C1472 0.949 . S
H1468 C1474 0.950 . S
H1469 C1475 0.950 . S
H1470 C1476 0.949 . S
C1471 H1466 0.950 . S
C1471 C1473 1.327 . S
C1471 C1477 1.429 . S
C1472 C1464 1.574 . S
C1472 H1467 0.949 . S
C1472 C1478 1.368 . S
C1473 C1457 1.349 . S
C1473 H1465 0.950 . S
C1473 C1471 1.327 . S
C1474 C1462 1.349 . S
C1474 H1468 0.950 . S
C1474 C1475 1.327 . S
C1475 H1469 0.950 . S
C1475 C1474 1.327 . S
C1475 C1479 1.429 . S
C1476 C1459 1.574 . S
C1476 H1470 0.949 . S
C1476 C1480 1.368 . S
C1477 C1458 1.429 . S
C1477 C1471 1.429 . S
C1477 C1478 1.523 . S
C1478 C1459 1.368 . S
C1478 C1472 1.368 . S
C1478 C1477 1.523 . S
C1479 C1463 1.429 . S
C1479 C1475 1.429 . S
C1479 C1480 1.523 . S
C1480 C1464 1.368 . S
C1480 C1476 1.368 . S
C1480 C1479 1.523 . S
H1481 C1456 0.950 . S
H1482 C1458 0.950 . S
H1483 C1459 0.949 . S
H1484 C1461 0.950 . S
H1485 C1463 0.950 . S
C1486 C1487 1.349 . S
C1486 C1488 1.327 . S
C1486 H1511 0.950 . S
C1487 C1486 1.349 . S
C1487 C1503 1.349 1_556 S
C1488 C1486 1.327 . S
C1488 C1507 1.429 1_556 S
C1488 H1512 0.950 . S
C1489 C1506 1.574 . S
C1489 C1508 1.368 . S
C1489 H1513 0.949 . S
H1490 C1494 0.949 . S
C1491 C1492 1.349 . S
C1491 C1493 1.327 . S
C1491 H1514 0.950 . S
C1492 C1491 1.349 . S
C1492 C1504 1.349 . S
C1493 C1491 1.327 . S
C1493 C1509 1.429 . S
C1493 H1515 0.950 . S
C1494 H1490 0.949 . S
C1494 C1502 1.574 . S
C1494 C1510 1.368 . S
H1495 C1503 0.950 . S
H1496 C1501 0.950 . S
H1497 C1502 0.949 . S
H1498 C1504 0.950 . S
H1499 C1505 0.950 . S
H1500 C1506 0.949 . S
C1501 H1496 0.950 . S
C1501 C1503 1.327 . S
C1501 C1507 1.429 . S
C1502 C1494 1.574 . S
C1502 H1497 0.949 . S
C1502 C1508 1.368 . S
C1503 C1487 1.349 1_554 S
C1503 H1495 0.950 . S
C1503 C1501 1.327 . S
C1504 C1492 1.349 . S
C1504 H1498 0.950 . S
C1504 C1505 1.327 . S
C1505 H1499 0.950 . S
C1505 C1504 1.327 . S
C1505 C1509 1.429 . S
C1506 C1489 1.574 . S
C1506 H1500 0.949 . S
C1506 C1510 1.368 . S
C1507 C1488 1.429 1_554 S
C1507 C1501 1.429 . S
C1507 C1508 1.523 . S
C1508 C1489 1.368 . S
C1508 C1502 1.368 . S
C1508 C1507 1.523 . S
C1509 C1493 1.429 . S
C1509 C1505 1.429 . S
C1509 C1510 1.523 . S
C1510 C1494 1.368 . S
C1510 C1506 1.368 . S
C1510 C1509 1.523 . S
H1511 C1486 0.950 . S
H1512 C1488 0.950 . S
H1513 C1489 0.949 . S
H1514 C1491 0.950 . S
H1515 C1493 0.950 . S
C1516 C1517 1.349 . S
C1516 C1518 1.327 . S
C1516 H1541 0.950 . S
C1517 C1516 1.349 . S
C1517 C1533 1.349 . S
C1518 C1516 1.327 . S
C1518 C1537 1.429 . S
C1518 H1542 0.950 . S
C1519 C1536 1.574 . S
C1519 C1538 1.368 . S
C1519 H1543 0.949 . S
H1520 C1524 0.949 . S
C1521 C1522 1.349 . S
C1521 C1523 1.327 . S
C1521 H1544 0.950 . S
C1522 C1521 1.349 . S
C1522 C1534 1.349 . S
C1523 C1521 1.327 . S
C1523 C1539 1.429 . S
C1523 H1545 0.950 . S
C1524 H1520 0.949 . S
C1524 C1532 1.574 . S
C1524 C1540 1.368 . S
H1525 C1533 0.950 . S
H1526 C1531 0.950 . S
H1527 C1532 0.949 . S
H1528 C1534 0.950 . S
H1529 C1535 0.950 . S
H1530 C1536 0.949 . S
C1531 H1526 0.950 . S
C1531 C1533 1.327 . S
C1531 C1537 1.429 . S
C1532 C1524 1.574 . S
C1532 H1527 0.949 . S
C1532 C1538 1.368 . S
C1533 C1517 1.349 . S
C1533 H1525 0.950 . S
C1533 C1531 1.327 . S
C1534 C1522 1.349 . S
C1534 H1528 0.950 . S
C1534 C1535 1.327 . S
C1535 H1529 0.950 . S
C1535 C1534 1.327 . S
C1535 C1539 1.429 . S
C1536 C1519 1.574 . S
C1536 H1530 0.949 . S
C1536 C1540 1.368 . S
C1537 C1518 1.429 . S
C1537 C1531 1.429 . S
C1537 C1538 1.523 . S
C1538 C1519 1.368 . S
C1538 C1532 1.368 . S
C1538 C1537 1.523 . S
C1539 C1523 1.429 . S
C1539 C1535 1.429 . S
C1539 C1540 1.523 . S
C1540 C1524 1.368 . S
C1540 C1536 1.368 . S
C1540 C1539 1.523 . S
H1541 C1516 0.950 . S
H1542 C1518 0.950 . S
H1543 C1519 0.949 . S
H1544 C1521 0.950 . S
H1545 C1523 0.950 . S
C1546 C1547 1.349 . S
C1546 C1548 1.327 . S
C1546 H1571 0.950 . S
C1547 C1546 1.349 . S
C1547 C1563 1.349 . S
C1548 C1546 1.327 . S
C1548 C1567 1.429 1_556 S
C1548 H1572 0.950 . S
C1549 C1566 1.574 . S
C1549 C1568 1.368 . S
C1549 H1573 0.949 . S
H1550 C1554 0.949 . S
C1551 C1552 1.349 . S
C1551 C1553 1.327 . S
C1551 H1574 0.950 . S
C1552 C1551 1.349 . S
C1552 C1564 1.349 . S
C1553 C1551 1.327 . S
C1553 C1569 1.429 . S
C1553 H1575 0.950 . S
C1554 H1550 0.949 . S
C1554 C1562 1.574 . S
C1554 C1570 1.368 . S
H1555 C1563 0.950 . S
H1556 C1561 0.950 . S
H1557 C1562 0.949 1_556 S
H1558 C1564 0.950 . S
H1559 C1565 0.950 . S
H1560 C1566 0.949 . S
C1561 H1556 0.950 . S
C1561 C1563 1.327 1_554 S
C1561 C1567 1.429 . S
C1562 C1554 1.574 . S
C1562 H1557 0.949 1_554 S
C1562 C1568 1.368 . S
C1563 C1547 1.349 . S
C1563 H1555 0.950 . S
C1563 C1561 1.327 1_556 S
C1564 C1552 1.349 . S
C1564 H1558 0.950 . S
C1564 C1565 1.327 . S
C1565 H1559 0.950 . S
C1565 C1564 1.327 . S
C1565 C1569 1.429 . S
C1566 C1549 1.574 . S
C1566 H1560 0.949 . S
C1566 C1570 1.368 . S
C1567 C1548 1.429 1_554 S
C1567 C1561 1.429 . S
C1567 C1568 1.523 . S
C1568 C1549 1.368 . S
C1568 C1562 1.368 . S
C1568 C1567 1.523 . S
C1569 C1553 1.429 . S
C1569 C1565 1.429 . S
C1569 C1570 1.523 . S
C1570 C1554 1.368 . S
C1570 C1566 1.368 . S
C1570 C1569 1.523 . S
H1571 C1546 0.950 . S
H1572 C1548 0.950 . S
H1573 C1549 0.949 . S
H1574 C1551 0.950 . S
H1575 C1553 0.950 . S
C1576 C1577 1.349 . S
C1576 C1578 1.327 . S
C1576 H1601 0.950 . S
C1577 C1576 1.349 . S
C1577 C1593 1.349 . S
C1578 C1576 1.327 . S
C1578 C1597 1.429 . S
C1578 H1602 0.950 . S
C1579 C1596 1.574 . S
C1579 C1598 1.368 . S
C1579 H1603 0.949 . S
H1580 C1584 0.949 . S
C1581 C1582 1.349 . S
C1581 C1583 1.327 . S
C1581 H1604 0.950 . S
C1582 C1581 1.349 . S
C1582 C1594 1.349 . S
C1583 C1581 1.327 . S
C1583 C1599 1.429 . S
C1583 H1605 0.950 . S
C1584 H1580 0.949 . S
C1584 C1592 1.574 . S
C1584 C1600 1.368 . S
H1585 C1593 0.950 . S
H1586 C1591 0.950 . S
H1587 C1592 0.949 . S
H1588 C1594 0.950 . S
H1589 C1595 0.950 . S
H1590 C1596 0.949 . S
C1591 H1586 0.950 . S
C1591 C1593 1.327 . S
C1591 C1597 1.429 . S
C1592 C1584 1.574 . S
C1592 H1587 0.949 . S
C1592 C1598 1.368 . S
C1593 C1577 1.349 . S
C1593 H1585 0.950 . S
C1593 C1591 1.327 . S
C1594 C1582 1.349 . S
C1594 H1588 0.950 . S
C1594 C1595 1.327 . S
C1595 H1589 0.950 . S
C1595 C1594 1.327 . S
C1595 C1599 1.429 . S
C1596 C1579 1.574 . S
C1596 H1590 0.949 . S
C1596 C1600 1.368 . S
C1597 C1578 1.429 . S
C1597 C1591 1.429 . S
C1597 C1598 1.523 . S
C1598 C1579 1.368 . S
C1598 C1592 1.368 . S
C1598 C1597 1.523 . S
C1599 C1583 1.429 . S
C1599 C1595 1.429 . S
C1599 C1600 1.523 . S
C1600 C1584 1.368 . S
C1600 C1596 1.368 . S
C1600 C1599 1.523 . S
H1601 C1576 0.950 . S
H1602 C1578 0.950 . S
H1603 C1579 0.949 . S
H1604 C1581 0.950 . S
H1605 C1583 0.950 . S
C1606 C1607 1.349 . S
C1606 C1608 1.327 . S
C1606 H1631 0.950 . S
C1607 C1606 1.349 . S
C1607 C1623 1.349 . S
C1608 C1606 1.327 . S
C1608 C1627 1.429 . S
C1608 H1632 0.950 . S
C1609 C1626 1.574 . S
C1609 C1628 1.368 . S
C1609 H1633 0.949 . S
H1610 C1614 0.949 . S
C1611 C1612 1.349 . S
C1611 C1613 1.327 . S
C1611 H1634 0.950 . S
C1612 C1611 1.349 . S
C1612 C1624 1.349 . S
C1613 C1611 1.327 . S
C1613 C1629 1.429 . S
C1613 H1635 0.950 . S
C1614 H1610 0.949 . S
C1614 C1622 1.574 . S
C1614 C1630 1.368 . S
H1615 C1623 0.950 . S
H1616 C1621 0.950 . S
H1617 C1622 0.949 . S
H1618 C1624 0.950 . S
H1619 C1625 0.950 . S
H1620 C1626 0.949 . S
C1621 H1616 0.950 . S
C1621 C1623 1.327 . S
C1621 C1627 1.429 . S
C1622 C1614 1.574 . S
C1622 H1617 0.949 . S
C1622 C1628 1.368 . S
C1623 C1607 1.349 . S
C1623 H1615 0.950 . S
C1623 C1621 1.327 . S
C1624 C1612 1.349 . S
C1624 H1618 0.950 . S
C1624 C1625 1.327 . S
C1625 H1619 0.950 . S
C1625 C1624 1.327 . S
C1625 C1629 1.429 . S
C1626 C1609 1.574 . S
C1626 H1620 0.949 . S
C1626 C1630 1.368 . S
C1627 C1608 1.429 . S
C1627 C1621 1.429 . S
C1627 C1628 1.523 . S
C1628 C1609 1.368 . S
C1628 C1622 1.368 . S
C1628 C1627 1.523 . S
C1629 C1613 1.429 . S
C1629 C1625 1.429 . S
C1629 C1630 1.523 . S
C1630 C1614 1.368 . S
C1630 C1626 1.368 . S
C1630 C1629 1.523 . S
H1631 C1606 0.950 . S
H1632 C1608 0.950 . S
H1633 C1609 0.949 . S
H1634 C1611 0.950 . S
H1635 C1613 0.950 . S
C1636 C1637 1.349 . S
C1636 C1638 1.327 . S
C1636 H1661 0.950 . S
C1637 C1636 1.349 . S
C1637 C1653 1.349 . S
C1638 C1636 1.327 . S
C1638 C1657 1.429 . S
C1638 H1662 0.950 . S
C1639 C1656 1.574 . S
C1639 C1658 1.368 . S
C1639 H1663 0.949 . S
H1640 C1644 0.949 . S
C1641 C1642 1.349 . S
C1641 C1643 1.327 . S
C1641 H1664 0.950 . S
C1642 C1641 1.349 . S
C1642 C1654 1.349 . S
C1643 C1641 1.327 . S
C1643 C1659 1.429 . S
C1643 H1665 0.950 . S
C1644 H1640 0.949 . S
C1644 C1652 1.574 . S
C1644 C1660 1.368 . S
H1645 C1653 0.950 . S
H1646 C1651 0.950 . S
H1647 C1652 0.949 . S
H1648 C1654 0.950 . S
H1649 C1655 0.950 . S
H1650 C1656 0.949 . S
C1651 H1646 0.950 . S
C1651 C1653 1.327 . S
C1651 C1657 1.429 . S
C1652 C1644 1.574 . S
C1652 H1647 0.949 . S
C1652 C1658 1.368 . S
C1653 C1637 1.349 . S
C1653 H1645 0.950 . S
C1653 C1651 1.327 . S
C1654 C1642 1.349 . S
C1654 H1648 0.950 . S
C1654 C1655 1.327 . S
C1655 H1649 0.950 . S
C1655 C1654 1.327 . S
C1655 C1659 1.429 . S
C1656 C1639 1.574 . S
C1656 H1650 0.949 . S
C1656 C1660 1.368 . S
C1657 C1638 1.429 . S
C1657 C1651 1.429 . S
C1657 C1658 1.523 . S
C1658 C1639 1.368 . S
C1658 C1652 1.368 . S
C1658 C1657 1.523 . S
C1659 C1643 1.429 . S
C1659 C1655 1.429 . S
C1659 C1660 1.523 . S
C1660 C1644 1.368 . S
C1660 C1656 1.368 . S
C1660 C1659 1.523 . S
H1661 C1636 0.950 . S
H1662 C1638 0.950 . S
H1663 C1639 0.949 . S
H1664 C1641 0.950 . S
H1665 C1643 0.950 . S
C1666 C1667 1.349 . S
C1666 C1668 1.327 . S
C1666 H1691 0.950 . S
C1667 C1666 1.349 . S
C1667 C1683 1.349 . S
C1668 C1666 1.327 . S
C1668 C1687 1.429 . S
C1668 H1692 0.950 . S
C1669 C1686 1.574 . S
C1669 C1688 1.368 . S
C1669 H1693 0.949 . S
H1670 C1674 0.949 . S
C1671 C1672 1.349 . S
C1671 C1673 1.327 . S
C1671 H1694 0.950 . S
C1672 C1671 1.349 . S
C1672 C1684 1.349 . S
C1673 C1671 1.327 . S
C1673 C1689 1.429 . S
C1673 H1695 0.950 . S
C1674 H1670 0.949 . S
C1674 C1682 1.574 . S
C1674 C1690 1.368 . S
H1675 C1683 0.950 . S
H1676 C1681 0.950 . S
H1677 C1682 0.949 . S
H1678 C1684 0.950 . S
H1679 C1685 0.950 . S
H1680 C1686 0.949 . S
C1681 H1676 0.950 . S
C1681 C1683 1.327 . S
C1681 C1687 1.429 . S
C1682 C1674 1.574 . S
C1682 H1677 0.949 . S
C1682 C1688 1.368 . S
C1683 C1667 1.349 . S
C1683 H1675 0.950 . S
C1683 C1681 1.327 . S
C1684 C1672 1.349 . S
C1684 H1678 0.950 . S
C1684 C1685 1.327 . S
C1685 H1679 0.950 . S
C1685 C1684 1.327 . S
C1685 C1689 1.429 . S
C1686 C1669 1.574 . S
C1686 H1680 0.949 . S
C1686 C1690 1.368 . S
C1687 C1668 1.429 . S
C1687 C1681 1.429 . S
C1687 C1688 1.523 . S
C1688 C1669 1.368 . S
C1688 C1682 1.368 . S
C1688 C1687 1.523 . S
C1689 C1673 1.429 . S
C1689 C1685 1.429 . S
C1689 C1690 1.523 . S
C1690 C1674 1.368 . S
C1690 C1686 1.368 . S
C1690 C1689 1.523 . S
H1691 C1666 0.950 . S
H1692 C1668 0.950 . S
H1693 C1669 0.949 . S
H1694 C1671 0.950 . S
H1695 C1673 0.950 . S
C1696 C1697 1.349 . S
C1696 C1698 1.327 . S
C1696 H1721 0.950 . S
C1697 C1696 1.349 . S
C1697 C1713 1.349 . S
C1698 C1696 1.327 . S
C1698 C1717 1.429 . S
C1698 H1722 0.950 . S
C1699 C1716 1.574 . S
C1699 C1718 1.368 . S
C1699 H1723 0.949 . S
H1700 C1704 0.949 . S
C1701 C1702 1.339 1_554 S
C1701 C1703 1.326 1_554 S
C1701 H1724 0.962 . S
C1702 C1701 1.339 1_556 S
C1702 C1714 1.349 . S
C1703 C1701 1.326 1_556 S
C1703 C1719 1.429 . S
C1703 H1725 0.950 1_556 S
C1704 H1700 0.949 . S
C1704 C1712 1.574 . S
C1704 C1720 1.368 . S
H1705 C1713 0.950 . S
H1706 C1711 0.950 . S
H1707 C1712 0.949 . S
H1708 C1714 0.950 . S
H1709 C1715 0.950 . S
H1710 C1716 0.949 . S
C1711 H1706 0.950 . S
C1711 C1713 1.327 . S
C1711 C1717 1.429 . S
C1712 C1704 1.574 . S
C1712 H1707 0.949 . S
C1712 C1718 1.368 . S
C1713 C1697 1.349 . S
C1713 H1705 0.950 . S
C1713 C1711 1.327 . S
C1714 C1702 1.349 . S
C1714 H1708 0.950 . S
C1714 C1715 1.327 . S
C1715 H1709 0.950 . S
C1715 C1714 1.327 . S
C1715 C1719 1.429 . S
C1716 C1699 1.574 . S
C1716 H1710 0.949 . S
C1716 C1720 1.368 . S
C1717 C1698 1.429 . S
C1717 C1711 1.429 . S
C1717 C1718 1.523 . S
C1718 C1699 1.368 . S
C1718 C1712 1.368 . S
C1718 C1717 1.523 . S
C1719 C1703 1.429 . S
C1719 C1715 1.429 . S
C1719 C1720 1.523 . S
C1720 C1704 1.368 . S
C1720 C1716 1.368 . S
C1720 C1719 1.523 . S
H1721 C1696 0.950 . S
H1722 C1698 0.950 . S
H1723 C1699 0.949 . S
H1724 C1701 0.962 . S
H1725 C1703 0.950 1_554 S
C1726 C1727 1.349 . S
C1726 C1728 1.327 . S
C1726 H1751 0.950 . S
C1727 C1726 1.349 . S
C1727 C1743 1.349 . S
C1728 C1726 1.327 . S
C1728 C1747 1.429 . S
C1728 H1752 0.950 . S
C1729 C1746 1.574 . S
C1729 C1748 1.368 . S
C1729 H1753 0.949 . S
H1730 C1734 0.949 . S
C1731 C1732 1.349 . S
C1731 C1733 1.327 . S
C1731 H1754 0.950 . S
C1732 C1731 1.349 . S
C1732 C1744 1.349 . S
C1733 C1731 1.327 . S
C1733 C1749 1.429 . S
C1733 H1755 0.950 . S
C1734 H1730 0.949 . S
C1734 C1742 1.574 . S
C1734 C1750 1.368 . S
H1735 C1743 0.950 . S
H1736 C1741 0.950 . S
H1737 C1742 0.949 . S
H1738 C1744 0.950 . S
H1739 C1745 0.950 . S
H1740 C1746 0.949 . S
C1741 H1736 0.950 . S
C1741 C1743 1.327 . S
C1741 C1747 1.429 . S
C1742 C1734 1.574 . S
C1742 H1737 0.949 . S
C1742 C1748 1.368 . S
C1743 C1727 1.349 . S
C1743 H1735 0.950 . S
C1743 C1741 1.327 . S
C1744 C1732 1.349 . S
C1744 H1738 0.950 . S
C1744 C1745 1.327 . S
C1745 H1739 0.950 . S
C1745 C1744 1.327 . S
C1745 C1749 1.429 . S
C1746 C1729 1.574 . S
C1746 H1740 0.949 . S
C1746 C1750 1.368 . S
C1747 C1728 1.429 . S
C1747 C1741 1.429 . S
C1747 C1748 1.523 . S
C1748 C1729 1.368 . S
C1748 C1742 1.368 . S
C1748 C1747 1.523 . S
C1749 C1733 1.429 . S
C1749 C1745 1.429 . S
C1749 C1750 1.523 . S
C1750 C1734 1.368 . S
C1750 C1746 1.368 . S
C1750 C1749 1.523 . S
H1751 C1726 0.950 . S
H1752 C1728 0.950 . S
H1753 C1729 0.949 . S
H1754 C1731 0.950 . S
H1755 C1733 0.950 . S
C1756 C1757 1.349 . S
C1756 C1758 1.327 . S
C1756 H1781 0.950 . S
C1757 C1756 1.349 . S
C1757 C1773 1.349 . S
C1758 C1756 1.327 . S
C1758 C1777 1.429 . S
C1758 H1782 0.950 . S
C1759 C1776 1.574 . S
C1759 C1778 1.368 . S
C1759 H1783 0.949 . S
H1760 C1764 0.949 . S
C1761 C1762 1.349 . S
C1761 C1763 1.327 . S
C1761 H1784 0.950 . S
C1762 C1761 1.349 . S
C1762 C1774 1.349 . S
C1763 C1761 1.327 . S
C1763 C1779 1.429 . S
C1763 H1785 0.950 . S
C1764 H1760 0.949 . S
C1764 C1772 1.574 . S
C1764 C1780 1.368 . S
H1765 C1773 0.950 . S
H1766 C1771 0.950 . S
H1767 C1772 0.949 . S
H1768 C1774 0.950 1_556 S
H1769 C1775 0.950 1_556 S
H1770 C1776 0.949 . S
C1771 H1766 0.950 . S
C1771 C1773 1.327 . S
C1771 C1777 1.429 . S
C1772 C1764 1.574 . S
C1772 H1767 0.949 . S
C1772 C1778 1.368 . S
C1773 C1757 1.349 . S
C1773 H1765 0.950 . S
C1773 C1771 1.327 . S
C1774 C1762 1.349 . S
C1774 H1768 0.950 1_554 S
C1774 C1775 1.327 . S
C1775 H1769 0.950 1_554 S
C1775 C1774 1.327 . S
C1775 C1779 1.429 . S
C1776 C1759 1.574 . S
C1776 H1770 0.949 . S
C1776 C1780 1.368 . S
C1777 C1758 1.429 . S
C1777 C1771 1.429 . S
C1777 C1778 1.523 . S
C1778 C1759 1.368 . S
C1778 C1772 1.368 . S
C1778 C1777 1.523 . S
C1779 C1763 1.429 . S
C1779 C1775 1.429 . S
C1779 C1780 1.523 . S
C1780 C1764 1.368 . S
C1780 C1776 1.368 . S
C1780 C1779 1.523 . S
H1781 C1756 0.950 . S
H1782 C1758 0.950 . S
H1783 C1759 0.949 . S
H1784 C1761 0.950 . S
H1785 C1763 0.950 . S
C1786 C1787 1.333 1_545 S
C1786 C1788 1.327 1_545 S
C1786 H1811 0.950 . S
C1787 C1786 1.333 1_565 S
C1787 C1803 1.386 . S
C1788 C1786 1.327 1_565 S
C1788 C1807 1.429 . S
C1788 H1812 0.950 1_565 S
C1789 C1806 1.574 . S
C1789 C1808 1.368 . S
C1789 H1813 0.949 . S
H1790 C1794 0.949 . S
C1791 C1792 1.349 . S
C1791 C1793 1.327 . S
C1791 H1814 0.950 . S
C1792 C1791 1.349 . S
C1792 C1804 1.349 . S
C1793 C1791 1.327 . S
C1793 C1809 1.429 . S
C1793 H1815 0.950 . S
C1794 H1790 0.949 . S
C1794 C1802 1.574 . S
C1794 C1810 1.368 . S
H1795 C1803 0.950 . S
H1796 C1801 0.950 . S
H1797 C1802 0.949 . S
H1798 C1804 0.950 . S
H1799 C1805 0.950 . S
H1800 C1806 0.949 . S
C1801 H1796 0.950 . S
C1801 C1803 1.327 . S
C1801 C1807 1.429 . S
C1802 C1794 1.574 . S
C1802 H1797 0.949 . S
C1802 C1808 1.368 . S
C1803 C1787 1.386 . S
C1803 H1795 0.950 . S
C1803 C1801 1.327 . S
C1804 C1792 1.349 . S
C1804 H1798 0.950 . S
C1804 C1805 1.327 . S
C1805 H1799 0.950 . S
C1805 C1804 1.327 . S
C1805 C1809 1.429 . S
C1806 C1789 1.574 . S
C1806 H1800 0.949 . S
C1806 C1810 1.368 . S
C1807 C1788 1.429 . S
C1807 C1801 1.429 . S
C1807 C1808 1.523 . S
C1808 C1789 1.368 . S
C1808 C1802 1.368 . S
C1808 C1807 1.523 . S
C1809 C1793 1.429 . S
C1809 C1805 1.429 . S
C1809 C1810 1.523 . S
C1810 C1794 1.368 . S
C1810 C1806 1.368 . S
C1810 C1809 1.523 . S
H1811 C1786 0.950 . S
H1812 C1788 0.950 1_545 S
H1813 C1789 0.949 . S
H1814 C1791 0.950 . S
H1815 C1793 0.950 . S
C382 C216 1.230 . S
C377 N66 1.226 . S
C412 C229 1.556 . S
C407 N79 1.543 . S
C437 N92 1.936 . S
C442 C249 1.859 . S
C472 C263 1.235 . S
C467 N54 1.271 . S
C502 C275 1.532 . S
C497 N131 1.528 . S
C532 C289 1.052 . S
C527 N158 1.051 . S
C557 N145 1.556 . S
C562 C299 1.551 . S
C592 C314 1.845 1_565 S
C587 N118 1.844 . S
C617 N148 2.007 . S
C622 C328 1.948 . S
C652 C347 1.414 . S
C647 N122 1.508 . S
C677 N132 1.161 . S
C682 C327 1.147 . S
C712 C345 1.413 . S
C707 N161 1.391 . S
C737 N96 2.062 . S
C742 C361 1.973 . S
C767 N53 1.725 . S
C772 C355 1.741 . S
C797 N67 1.017 . S
C802 C359 1.019 . S
C827 N83 1.339 . S
C832 C356 1.329 . S
C857 N44 1.398 . S
C862 C258 1.386 . S
C887 N187 1.453 . S
C892 C257 1.467 . S
C922 C221 1.057 . S
C917 N197 1.094 . S
C952 C235 1.304 . S
C947 N106 1.377 . S
C977 N57 1.891 . S
C982 C272 1.900 . S
C1012 C317 1.494 . S
C1007 N144 1.472 . S
C1042 C271 1.319 . S
C1037 N119 1.317 . S
C1072 C303 1.780 . S
C1067 N157 1.748 . S
C1102 C300 1.230 . S
C1097 N183 1.226 . S
C1127 N196 1.543 . S
C1132 C313 1.556 . S
C1157 N105 1.936 . S
C1162 C277 1.859 . S
C1192 C291 1.231 . S
C1187 N171 1.271 . S
C1217 N40 1.529 . S
C1222 C247 1.532 . S
C1252 C261 1.052 . S
C1247 N2 1.051 1_655 S
C1282 C215 1.551 . S
C1277 N15 1.556 . S
C1312 C230 1.845 . S
C1307 N27 1.844 . S
C1337 N18 2.007 . S
C1342 C342 1.948 . S
C1367 N31 1.508 . S
C1372 C333 1.414 . S
C1397 N41 1.162 . S
C1402 C341 1.147 . S
C1427 N5 1.391 . S
C1432 C331 1.413 . S
C1462 C375 1.973 . S
C1457 N109 2.062 . S
C1492 C369 1.741 . S
C1487 N170 1.725 . S
C1522 C373 1.019 . S
C1517 N184 1.016 . S
C1547 N200 1.339 . S
C1552 C370 1.329 . S
C1577 N135 1.398 . S
C1582 C286 1.386 . S
C1612 C285 1.467 . S
C1607 N70 1.453 . S
C1642 C305 1.037 . S
C1637 N80 1.094 . S
C1672 C319 1.304 . S
C1667 N93 1.377 . S
C1697 N174 1.891 . S
C1702 C244 1.900 . S
C1732 C233 1.494 . S
C1727 N14 1.472 . S
C1757 N28 1.317 . S
C1762 C243 1.319 . S
C1792 C219 1.780 . S
C1787 N1 1.730 1_565 S
