# Generated by pormake.
# Topology apo, (3,6)-cn, num edge types: 1
# Building blocks:
#     Node 0, Type 0, BuildingBlock: MIDCAF_clean_linker_0, # of connection points: 3
#     Node 1, Type 0, BuildingBlock: MIDCAF_clean_linker_0, # of connection points: 3
#     Node 2, Type 0, BuildingBlock: MIDCAF_clean_linker_0, # of connection points: 3
#     Node 3, Type 0, BuildingBlock: MIDCAF_clean_linker_0, # of connection points: 3
#     Node 4, Type 0, BuildingBlock: MIDCAF_clean_linker_0, # of connection points: 3
#     Node 5, Type 0, BuildingBlock: MIDCAF_clean_linker_0, # of connection points: 3
#     Node 6, Type 0, BuildingBlock: MIDCAF_clean_linker_0, # of connection points: 3
#     Node 7, Type 0, BuildingBlock: MIDCAF_clean_linker_0, # of connection points: 3
#     Node 8, Type 1, BuildingBlock: KUMJIN_clean_sbu_1, # of connection points: 6
#     Node 9, Type 1, BuildingBlock: KUMJIN_clean_sbu_1, # of connection points: 6
#     Node 10, Type 1, BuildingBlock: KUMJIN_clean_sbu_1, # of connection points: 6
#     Node 11, Type 1, BuildingBlock: KUMJIN_clean_sbu_1, # of connection points: 6
#     Edge 12, Type (0, 1), BuildingBlock: ZUJKAS_clean_linker_0, # of connection points: 2
#     Edge 13, Type (0, 1), BuildingBlock: ZUJKAS_clean_linker_0, # of connection points: 2
#     Edge 14, Type (0, 1), BuildingBlock: ZUJKAS_clean_linker_0, # of connection points: 2
#     Edge 15, Type (0, 1), BuildingBlock: ZUJKAS_clean_linker_0, # of connection points: 2
#     Edge 16, Type (0, 1), BuildingBlock: ZUJKAS_clean_linker_0, # of connection points: 2
#     Edge 17, Type (0, 1), BuildingBlock: ZUJKAS_clean_linker_0, # of connection points: 2
#     Edge 18, Type (0, 1), BuildingBlock: ZUJKAS_clean_linker_0, # of connection points: 2
#     Edge 19, Type (0, 1), BuildingBlock: ZUJKAS_clean_linker_0, # of connection points: 2
#     Edge 20, Type (0, 1), BuildingBlock: ZUJKAS_clean_linker_0, # of connection points: 2
#     Edge 21, Type (0, 1), BuildingBlock: ZUJKAS_clean_linker_0, # of connection points: 2
#     Edge 22, Type (0, 1), BuildingBlock: ZUJKAS_clean_linker_0, # of connection points: 2
#     Edge 23, Type (0, 1), BuildingBlock: ZUJKAS_clean_linker_0, # of connection points: 2
#     Edge 24, Type (0, 1), BuildingBlock: ZUJKAS_clean_linker_0, # of connection points: 2
#     Edge 25, Type (0, 1), BuildingBlock: ZUJKAS_clean_linker_0, # of connection points: 2
#     Edge 26, Type (0, 1), BuildingBlock: ZUJKAS_clean_linker_0, # of connection points: 2
#     Edge 27, Type (0, 1), BuildingBlock: ZUJKAS_clean_linker_0, # of connection points: 2
#     Edge 28, Type (0, 1), BuildingBlock: ZUJKAS_clean_linker_0, # of connection points: 2
#     Edge 29, Type (0, 1), BuildingBlock: ZUJKAS_clean_linker_0, # of connection points: 2
#     Edge 30, Type (0, 1), BuildingBlock: ZUJKAS_clean_linker_0, # of connection points: 2
#     Edge 31, Type (0, 1), BuildingBlock: ZUJKAS_clean_linker_0, # of connection points: 2
#     Edge 32, Type (0, 1), BuildingBlock: ZUJKAS_clean_linker_0, # of connection points: 2
#     Edge 33, Type (0, 1), BuildingBlock: ZUJKAS_clean_linker_0, # of connection points: 2
#     Edge 34, Type (0, 1), BuildingBlock: ZUJKAS_clean_linker_0, # of connection points: 2
#     Edge 35, Type (0, 1), BuildingBlock: ZUJKAS_clean_linker_0, # of connection points: 2
# Relax obj value: 0.010
# Max RMSD: 0.083
# Mean RMSD: 0.068
data_MOF--net-apo--node1-KUMJIN_clean_sbu_1--node2-MIDCAF_clean_linker_0--edge1-ZUJKAS_clean_linker_0
_symmetry_space_group_name_H-M    P1
_symmetry_Int_Tables_number       1
_symmetry_cell_setting            triclinic
loop_
_symmetry_equiv_pos_as_xyz
'x, y, z'
_cell_length_a     35.83805
_cell_length_b     65.321383
_cell_length_c     77.673829
_cell_angle_alpha  90.052546
_cell_angle_beta   90.06785
_cell_angle_gamma 90.478617
loop_
_atom_site_label
_atom_site_type_symbol
_atom_site_fract_x
_atom_site_fract_y
_atom_site_fract_z
_atom_type_partial_charge
C0 C 0.3312 0.38949 0.47592 0.0
C1 C 0.3171 0.37352 0.48621 0.0
C2 C 0.29145 0.3596 0.47887 0.0
C3 C 0.28017 0.36164 0.4617 0.0
H4 H 0.23915 0.32782 0.41915 0.0
H5 H 0.20683 0.3004 0.40357 0.0
H6 H 0.1797 0.3427 0.36286 0.0
H7 H 0.21185 0.37011 0.37832 0.0
H8 H 0.2564 0.41251 0.37615 0.0
H9 H 0.27845 0.44166 0.3594 0.0
H10 H 0.35931 0.45589 0.39906 0.0
H11 H 0.33646 0.4272 0.41606 0.0
H12 H 0.33146 0.40409 0.45132 0.0
H13 H 0.35144 0.40031 0.48102 0.0
H14 H 0.2796 0.34727 0.48648 0.0
H15 H 0.26022 0.3507 0.45653 0.0
N16 N 0.26099 0.36539 0.42541 0.0
N17 N 0.26065 0.38458 0.39989 0.0
N18 N 0.29274 0.3969 0.42412 0.0
C19 C 0.25008 0.36755 0.40874 0.0
C20 C 0.28204 0.39931 0.40746 0.0
C21 C 0.28219 0.38006 0.43324 0.0
C22 C 0.2283 0.35117 0.39996 0.0
C23 C 0.22601 0.33134 0.40695 0.0
C24 C 0.20769 0.31559 0.398 0.0
C25 C 0.19084 0.3194 0.38199 0.0
C26 C 0.19217 0.33934 0.37524 0.0
C27 C 0.21083 0.35501 0.38407 0.0
C28 C 0.29466 0.41744 0.39747 0.0
C29 C 0.27879 0.4219 0.38134 0.0
C30 C 0.2916 0.43857 0.37167 0.0
C31 C 0.32082 0.45113 0.3778 0.0
C32 C 0.3364 0.44678 0.39401 0.0
C33 C 0.32339 0.43021 0.40375 0.0
C34 C 0.29417 0.37771 0.45145 0.0
C35 C 0.31983 0.3916 0.4588 0.0
C36 C 0.19047 0.10488 0.97736 0.0
C37 C 0.19857 0.12306 0.98637 0.0
C38 C 0.21937 0.13848 0.97805 0.0
C39 C 0.23096 0.13598 0.96098 0.0
H40 H 0.29717 0.16227 0.92134 0.0
H41 H 0.32753 0.19014 0.90544 0.0
H42 H 0.2948 0.16179 0.85746 0.0
H43 H 0.26459 0.13412 0.87313 0.0
H44 H 0.22934 0.09178 0.87239 0.0
H45 H 0.2047 0.06315 0.85581 0.0
H46 H 0.16992 0.03324 0.90274 0.0
H47 H 0.19491 0.0619 0.91952 0.0
H48 H 0.19488 0.08821 0.95381 0.0
H49 H 0.17515 0.09253 0.98349 0.0
H50 H 0.2259 0.15272 0.98459 0.0
H51 H 0.24632 0.14834 0.95489 0.0
N52 N 0.25128 0.13085 0.92504 0.0
N53 N 0.24691 0.11238 0.89922 0.0
N54 N 0.22062 0.09893 0.92439 0.0
C55 C 0.25881 0.12923 0.90793 0.0
C56 C 0.22795 0.09713 0.90731 0.0
C57 C 0.23215 0.11573 0.93337 0.0
C58 C 0.27828 0.14596 0.89854 0.0
C59 C 0.29648 0.16198 0.9074 0.0
C60 C 0.31403 0.17788 0.89831 0.0
C61 C 0.31327 0.17819 0.88022 0.0
C62 C 0.2954 0.16211 0.8714 0.0
C63 C 0.27827 0.14616 0.88043 0.0
C64 C 0.21403 0.07924 0.89734 0.0
C65 C 0.21661 0.07911 0.87926 0.0
C66 C 0.20225 0.06275 0.86971 0.0
C67 C 0.18512 0.04602 0.87796 0.0
C68 C 0.18314 0.04588 0.89604 0.0
C69 C 0.1973 0.06236 0.90563 0.0
C70 C 0.22205 0.11797 0.95183 0.0
C71 C 0.20205 0.10236 0.96033 0.0
C72 C 0.81147 0.10372 0.5275 0.0
C73 C 0.81359 0.12265 0.51902 0.0
C74 C 0.80437 0.14053 0.52814 0.0
C75 C 0.79331 0.13945 0.54542 0.0
H76 H 0.721 0.16685 0.58478 0.0
H77 H 0.6876 0.19317 0.6009 0.0
H78 H 0.715 0.16257 0.6485 0.0
H79 H 0.74716 0.13626 0.6326 0.0
H80 H 0.7665 0.08985 0.63159 0.0
H81 H 0.78821 0.06046 0.64796 0.0
H82 H 0.8503 0.03966 0.60375 0.0
H83 H 0.82903 0.06911 0.58736 0.0
H84 H 0.79993 0.08776 0.55087 0.0
H85 H 0.81869 0.0897 0.52087 0.0
H86 H 0.80549 0.15532 0.52187 0.0
H87 H 0.78664 0.15347 0.55216 0.0
N88 N 0.76428 0.1345 0.5808 0.0
N89 N 0.76635 0.11567 0.60652 0.0
N90 N 0.79216 0.10208 0.58144 0.0
C91 C 0.75616 0.13282 0.59789 0.0
C92 C 0.78433 0.10026 0.59843 0.0
C93 C 0.78227 0.11906 0.5725 0.0
C94 C 0.73663 0.14933 0.60734 0.0
C95 C 0.71984 0.16577 0.59869 0.0
C96 C 0.70079 0.18089 0.60793 0.0
C97 C 0.69826 0.17989 0.626 0.0
C98 C 0.71553 0.16359 0.63458 0.0
C99 C 0.73429 0.14852 0.62541 0.0
C100 C 0.79614 0.08193 0.60816 0.0
C101 C 0.78469 0.079 0.62531 0.0
C102 C 0.79692 0.06209 0.63468 0.0
C103 C 0.82102 0.04781 0.62714 0.0
C104 C 0.83207 0.05056 0.60995 0.0
C105 C 0.81968 0.06739 0.60054 0.0
C106 C 0.79182 0.12049 0.55396 0.0
C107 C 0.80089 0.10265 0.54475 0.0
C108 C 0.6955 0.39412 0.02795 0.0
C109 C 0.69805 0.37544 0.01903 0.0
C110 C 0.71156 0.35823 0.0279 0.0
C111 C 0.72186 0.35961 0.04525 0.0
H112 H 0.79454 0.33379 0.08452 0.0
H113 H 0.8259 0.30628 0.10022 0.0
H114 H 0.78519 0.33077 0.14822 0.0
H115 H 0.75413 0.35809 0.13277 0.0
H116 H 0.73458 0.40443 0.13367 0.0
H117 H 0.71223 0.4329 0.15078 0.0
H118 H 0.66204 0.45941 0.1055 0.0
H119 H 0.68387 0.43065 0.08827 0.0
H120 H 0.70292 0.41012 0.05174 0.0
H121 H 0.68591 0.40779 0.02149 0.0
H122 H 0.71343 0.3435 0.02155 0.0
H123 H 0.73163 0.34597 0.05169 0.0
N124 N 0.74576 0.36401 0.08098 0.0
N125 N 0.74162 0.38173 0.10716 0.0
N126 N 0.71676 0.39613 0.08214 0.0
C127 C 0.75284 0.36506 0.09818 0.0
C128 C 0.72368 0.39734 0.0993 0.0
C129 C 0.72766 0.37954 0.07286 0.0
C130 C 0.77178 0.34815 0.10736 0.0
C131 C 0.79223 0.33325 0.09841 0.0
C132 C 0.81034 0.31759 0.10739 0.0
C133 C 0.80781 0.31636 0.12542 0.0
C134 C 0.78728 0.33119 0.13431 0.0
C135 C 0.76967 0.34694 0.12542 0.0
C136 C 0.711 0.41516 0.10954 0.0
C137 C 0.71887 0.41631 0.12727 0.0
C138 C 0.70625 0.43273 0.13711 0.0
C139 C 0.68541 0.44844 0.1295 0.0
C140 C 0.6777 0.44742 0.11177 0.0
C141 C 0.69041 0.43098 0.10188 0.0
C142 C 0.71861 0.37821 0.05422 0.0
C143 C 0.70551 0.39547 0.04531 0.0
C144 C 0.68667 0.60658 0.52957 0.0
C145 C 0.70157 0.62213 0.51905 0.0
C146 C 0.72868 0.63545 0.52606 0.0
C147 C 0.74045 0.63329 0.54317 0.0
H148 H 0.78936 0.66643 0.58466 0.0
H149 H 0.81896 0.6942 0.60103 0.0
H150 H 0.82069 0.65579 0.64623 0.0
H151 H 0.79102 0.62834 0.63018 0.0
H152 H 0.73721 0.59201 0.6328 0.0
H153 H 0.71365 0.56345 0.64973 0.0
H154 H 0.681 0.53193 0.60314 0.0
H155 H 0.70475 0.56059 0.58601 0.0
H156 H 0.68615 0.59224 0.55425 0.0
H157 H 0.66526 0.59626 0.52476 0.0
H158 H 0.74117 0.64741 0.51828 0.0
H159 H 0.76139 0.6438 0.54813 0.0
N160 N 0.75744 0.63046 0.57992 0.0
N161 N 0.75586 0.61166 0.6056 0.0
N162 N 0.72656 0.59858 0.58098 0.0
C163 C 0.76691 0.6286 0.59683 0.0
C164 C 0.73582 0.59657 0.59784 0.0
C165 C 0.73725 0.61545 0.5719 0.0
C166 C 0.78735 0.64516 0.60609 0.0
C167 C 0.79623 0.66388 0.59806 0.0
C168 C 0.81331 0.67978 0.60742 0.0
C169 C 0.82169 0.67728 0.62499 0.0
C170 C 0.81385 0.65838 0.63282 0.0
C171 C 0.79696 0.64256 0.62353 0.0
C172 C 0.72276 0.57868 0.608 0.0
C173 C 0.72523 0.57899 0.62608 0.0
C174 C 0.71151 0.56266 0.63583 0.0
C175 C 0.69527 0.54553 0.62777 0.0
C176 C 0.69354 0.54492 0.60969 0.0
C177 C 0.70696 0.56139 0.5999 0.0
C178 C 0.72552 0.6177 0.55364 0.0
C179 C 0.69858 0.60434 0.54658 0.0
C180 C 0.82181 0.89272 0.03008 0.0
C181 C 0.808 0.87687 0.01955 0.0
C182 C 0.7819 0.86296 0.02653 0.0
C183 C 0.77023 0.86476 0.04367 0.0
H184 H 0.7059 0.836 0.08369 0.0
H185 H 0.67264 0.80894 0.09927 0.0
H186 H 0.70675 0.83623 0.14756 0.0
H187 H 0.73854 0.86337 0.13219 0.0
H188 H 0.77473 0.90534 0.13374 0.0
H189 H 0.79815 0.93412 0.15059 0.0
H190 H 0.83064 0.96527 0.10388 0.0
H191 H 0.80704 0.93649 0.08687 0.0
H192 H 0.82171 0.90693 0.05479 0.0
H193 H 0.84241 0.90351 0.02528 0.0
H194 H 0.77024 0.85074 0.01872 0.0
H195 H 0.75022 0.85375 0.04864 0.0
N196 N 0.75336 0.86719 0.08047 0.0
N197 N 0.75645 0.88538 0.1065 0.0
N198 N 0.78417 0.89904 0.08179 0.0
C199 C 0.74497 0.86863 0.09752 0.0
C200 C 0.77588 0.90068 0.09876 0.0
C201 C 0.77312 0.88239 0.07253 0.0
C202 C 0.72477 0.85195 0.10665 0.0
C203 C 0.70615 0.83622 0.09763 0.0
C204 C 0.68722 0.82066 0.10657 0.0
C205 C 0.68673 0.82044 0.12471 0.0
C206 C 0.70566 0.83611 0.13363 0.0
C207 C 0.72419 0.85168 0.12475 0.0
C208 C 0.78908 0.91854 0.10892 0.0
C209 C 0.78669 0.91832 0.127 0.0
C210 C 0.80032 0.93476 0.13669 0.0
C211 C 0.81637 0.95187 0.12855 0.0
C212 C 0.81819 0.95232 0.11049 0.0
C213 C 0.80484 0.93577 0.10076 0.0
C214 C 0.78426 0.88059 0.05418 0.0
C215 C 0.81002 0.8946 0.04711 0.0
C216 C 0.18121 0.89109 0.4754 0.0
C217 C 0.19709 0.87639 0.48632 0.0
C218 C 0.2238 0.86296 0.47947 0.0
C219 C 0.2344 0.86426 0.46214 0.0
H220 H 0.27834 0.82928 0.41951 0.0
H221 H 0.30813 0.80204 0.4029 0.0
H222 H 0.31911 0.843 0.35956 0.0
H223 H 0.28921 0.86987 0.3758 0.0
H224 H 0.23928 0.907 0.37256 0.0
H225 H 0.21635 0.93555 0.35564 0.0
H226 H 0.16433 0.96082 0.40098 0.0
H227 H 0.1877 0.9324 0.41807 0.0
H228 H 0.17883 0.90397 0.45021 0.0
H229 H 0.16006 0.90142 0.48011 0.0
H230 H 0.23695 0.85161 0.48755 0.0
H231 H 0.25522 0.85379 0.45732 0.0
N232 N 0.25035 0.86608 0.42506 0.0
N233 N 0.24864 0.88469 0.39925 0.0
N234 N 0.21894 0.89749 0.4237 0.0
C235 C 0.25989 0.86796 0.40815 0.0
C236 C 0.22824 0.89952 0.40687 0.0
C237 C 0.22986 0.8809 0.43293 0.0
C238 C 0.28085 0.85173 0.39897 0.0
C239 C 0.28735 0.83249 0.40648 0.0
C240 C 0.30451 0.8169 0.39698 0.0
C241 C 0.31544 0.82026 0.3798 0.0
C242 C 0.3102 0.83972 0.37259 0.0
C243 C 0.29315 0.85521 0.38201 0.0
C244 C 0.21527 0.91731 0.39671 0.0
C245 C 0.22309 0.91864 0.379 0.0
C246 C 0.20976 0.93496 0.36924 0.0
C247 C 0.18838 0.95038 0.37695 0.0
C248 C 0.18103 0.94926 0.3947 0.0
C249 C 0.19428 0.9329 0.40447 0.0
C250 C 0.21866 0.87909 0.45128 0.0
C251 C 0.1919 0.89246 0.45816 0.0
C252 C 0.30413 0.60095 0.97825 0.0
C253 C 0.30669 0.62 0.98657 0.0
C254 C 0.29714 0.63774 0.97736 0.0
C255 C 0.28581 0.63649 0.96012 0.0
H256 H 0.21748 0.66518 0.92042 0.0
H257 H 0.18547 0.69197 0.90421 0.0
H258 H 0.21161 0.66084 0.85669 0.0
H259 H 0.24247 0.63413 0.87266 0.0
H260 H 0.28139 0.59372 0.87172 0.0
H261 H 0.30486 0.56506 0.85514 0.0
H262 H 0.329 0.53258 0.90223 0.0
H263 H 0.30633 0.56154 0.91894 0.0
H264 H 0.29232 0.58478 0.95489 0.0
H265 H 0.31146 0.58703 0.98498 0.0
H266 H 0.29846 0.65263 0.9835 0.0
H267 H 0.27914 0.65047 0.95334 0.0
N268 N 0.25807 0.6318 0.92465 0.0
N269 N 0.26207 0.61365 0.89866 0.0
N270 N 0.2857 0.59927 0.92393 0.0
C271 C 0.2512 0.63057 0.90742 0.0
C272 C 0.27927 0.59796 0.90674 0.0
C273 C 0.2753 0.61611 0.933 0.0
C274 C 0.23244 0.64737 0.89792 0.0
C275 C 0.21636 0.66408 0.90652 0.0
C276 C 0.19812 0.67947 0.89722 0.0
C277 C 0.19562 0.67847 0.87914 0.0
C278 C 0.21216 0.66191 0.87061 0.0
C279 C 0.23018 0.64659 0.87983 0.0
C280 C 0.29206 0.58001 0.89671 0.0
C281 C 0.29149 0.58045 0.8786 0.0
C282 C 0.30479 0.56394 0.86905 0.0
C283 C 0.31883 0.54651 0.87734 0.0
C284 C 0.31889 0.54591 0.89544 0.0
C285 C 0.30572 0.56249 0.90502 0.0
C286 C 0.28433 0.61747 0.95164 0.0
C287 C 0.29333 0.59971 0.96097 0.0
Eu288 Eu 0.05013 0.13415 0.23797 0.0
C289 C 0.88066 0.12045 0.25648 0.0
N290 N 0.89888 0.13878 0.2567 0.0
C291 C 0.84718 0.15481 0.24273 0.0
C292 C 0.84491 0.11856 0.24901 0.0
C293 C 0.88275 0.15589 0.2501 0.0
C294 C 0.82822 0.13605 0.24212 0.0
C295 C 0.88022 0.08416 0.26309 0.0
C296 C 0.8983 0.10343 0.26336 0.0
C297 C 0.84474 0.08219 0.25553 0.0
C298 C 0.82713 0.09934 0.24853 0.0
Eu299 Eu 0.95922 0.13923 0.26877 0.0
N300 N 0.93304 0.10572 0.27031 0.0
C301 C 0.89813 0.06746 0.27062 0.0
C302 C 0.94923 0.08979 0.27877 0.0
C303 C 0.93251 0.07038 0.27873 0.0
H304 H 0.89719 0.17042 0.25071 0.0
H305 H 0.9459 0.05774 0.28522 0.0
H306 H 0.10726 0.1001 0.25618 0.0
H307 H 0.07226 0.21575 0.22464 0.0
H308 H 0.97436 0.09196 0.28607 0.0
H309 H 0.88519 0.05241 0.27067 0.0
H310 H 0.03837 0.18299 0.22391 0.0
H311 H 0.83444 0.16843 0.23751 0.0
H312 H 0.83056 0.06748 0.25515 0.0
H313 H 0.79971 0.09758 0.2428 0.0
H314 H 0.17023 0.09927 0.26912 0.0
H315 H 0.80073 0.13524 0.23631 0.0
H316 H 0.13529 0.21775 0.23753 0.0
N317 N 0.1099 0.13183 0.25043 0.0
C318 C 0.13084 0.14928 0.25051 0.0
C319 C 0.15941 0.11346 0.26403 0.0
C320 C 0.16701 0.14949 0.25769 0.0
C321 C 0.12363 0.11401 0.25688 0.0
C322 C 0.18118 0.13128 0.26447 0.0
N323 N 0.08015 0.16661 0.23744 0.0
C324 C 0.06506 0.18363 0.23016 0.0
C325 C 0.13634 0.18559 0.24424 0.0
C326 C 0.11556 0.16716 0.24387 0.0
C327 C 0.12024 0.20329 0.23747 0.0
C328 C 0.08459 0.20225 0.23027 0.0
H329 H 0.20888 0.13082 0.27007 0.0
H330 H 0.21552 0.16829 0.26349 0.0
H331 H 0.18871 0.19986 0.25174 0.0
O332 O 0.05465 0.13631 0.20951 0.0
O333 O 0.05789 0.15046 0.26372 0.0
O334 O 0.00086 0.16521 0.26695 0.0
O335 O 0.087 0.11394 0.22405 0.0
O336 O 1.00013 0.15134 0.22715 0.0
O337 O 0.96928 0.16573 0.25042 0.0
O338 O 0.95561 0.13733 0.29713 0.0
O339 O 0.95139 0.12435 0.24252 0.0
O340 O 0.0075 0.10848 0.23933 0.0
O341 O 0.9222 0.1595 0.28285 0.0
O342 O 0.01071 0.12312 0.27944 0.0
O343 O 0.03679 0.10777 0.25567 0.0
C344 C 0.03612 0.16392 0.2711 0.0
C345 C 0.09565 0.11305 0.19324 0.0
C346 C 0.10931 0.11453 0.1625 0.0
C347 C 0.12824 0.09589 0.16378 0.0
C348 C 0.11481 0.09436 0.19418 0.0
C349 C 0.13091 0.08587 0.17954 0.0
C350 C 0.09279 0.12314 0.17724 0.0
C351 C 0.97671 0.1647 0.23379 0.0
C352 C 0.07868 0.12142 0.20906 0.0
C353 C 0.1877 0.16783 0.25802 0.0
C354 C 0.17241 0.18582 0.25134 0.0
C355 C 0.97208 0.11018 0.23551 0.0
C356 C 0.91548 0.16023 0.31389 0.0
C357 C 0.90499 0.15817 0.3449 0.0
C358 C 0.8893 0.17778 0.34452 0.0
C359 C 0.89924 0.17974 0.31383 0.0
C360 C 0.91798 0.14932 0.32951 0.0
C361 C 0.88627 0.18842 0.32906 0.0
C362 C 0.03279 0.10942 0.27242 0.0
C363 C 0.93154 0.15216 0.29778 0.0
H364 H 0.14099 0.08908 0.15253 0.0
H365 H 0.11724 0.08618 0.20625 0.0
H366 H 0.1455 0.07147 0.1804 0.0
H367 H 0.0781 0.13753 0.17625 0.0
H368 H 0.87899 0.18478 0.35623 0.0
H369 H 0.89716 0.1885 0.30203 0.0
H370 H 0.93038 0.13425 0.32978 0.0
H371 H 0.87401 0.20351 0.3289 0.0
Eu372 Eu 0.46221 0.36178 0.73856 0.0
C373 C 0.63194 0.37726 0.75266 0.0
N374 N 0.61331 0.35915 0.75443 0.0
C375 C 0.66306 0.34138 0.7405 0.0
C376 C 0.66692 0.37809 0.74439 0.0
C377 C 0.62834 0.3413 0.74867 0.0
C378 C 0.68242 0.35985 0.73831 0.0
C379 C 0.63347 0.4142 0.75635 0.0
C380 C 0.61524 0.39516 0.75854 0.0
C381 C 0.66843 0.41503 0.74822 0.0
C382 C 0.68508 0.39705 0.74225 0.0
Eu383 Eu 0.55513 0.36058 0.76837 0.0
N384 N 0.58074 0.39401 0.76591 0.0
C385 C 0.61599 0.43189 0.76236 0.0
C386 C 0.56455 0.41109 0.77258 0.0
C387 C 0.58158 0.43029 0.77067 0.0
H388 H 0.61379 0.32695 0.75062 0.0
H389 H 0.56832 0.44382 0.77579 0.0
H390 H 0.40111 0.39145 0.75917 0.0
H391 H 0.45002 0.2812 0.71917 0.0
H392 H 0.53901 0.41005 0.77971 0.0
H393 H 0.62906 0.4468 0.76089 0.0
H394 H 0.47841 0.31543 0.71984 0.0
H395 H 0.67492 0.32719 0.73592 0.0
H396 H 0.6828 0.42953 0.74643 0.0
H397 H 0.71195 0.39799 0.73591 0.0
H398 H 0.33882 0.38839 0.77253 0.0
H399 H 0.70926 0.35986 0.73191 0.0
H400 H 0.38946 0.27492 0.73349 0.0
N401 N 0.40319 0.36022 0.75178 0.0
C402 C 0.38504 0.34189 0.75106 0.0
C403 C 0.35158 0.37517 0.76664 0.0
C404 C 0.34931 0.33946 0.75843 0.0
C405 C 0.38701 0.37682 0.75925 0.0
C406 C 0.33267 0.3564 0.76627 0.0
N407 N 0.43726 0.32813 0.73635 0.0
C408 C 0.4534 0.31278 0.72713 0.0
C409 C 0.38462 0.3061 0.74266 0.0
C410 C 0.40271 0.32536 0.74333 0.0
C411 C 0.40243 0.28993 0.73429 0.0
C412 C 0.43673 0.29338 0.72629 0.0
H413 H 0.30524 0.35515 0.77205 0.0
H414 H 0.30413 0.31809 0.76355 0.0
H415 H 0.33494 0.28891 0.7497 0.0
O416 O 0.4567 0.36062 0.71005 0.0
O417 O 0.45682 0.34674 0.76499 0.0
O418 O 0.51522 0.33364 0.77061 0.0
O419 O 0.42119 0.38039 0.72561 0.0
O420 O 0.5139 0.34547 0.72857 0.0
O421 O 0.54333 0.33211 0.7526 0.0
O422 O 0.5639 0.3674 0.79569 0.0
O423 O 0.55885 0.37395 0.74137 0.0
O424 O 0.50191 0.38882 0.73835 0.0
O425 O 0.5972 0.34433 0.78328 0.0
O426 O 0.50373 0.37633 0.77929 0.0
O427 O 0.47257 0.38923 0.75567 0.0
C428 C 0.47886 0.33376 0.77293 0.0
C429 C 0.41067 0.3822 0.69494 0.0
C430 C 0.39951 0.3833 0.66392 0.0
C431 C 0.37549 0.39992 0.66635 0.0
C432 C 0.38621 0.39877 0.69698 0.0
C433 C 0.36878 0.40751 0.68278 0.0
C434 C 0.41702 0.3743 0.67828 0.0
C435 C 0.53632 0.33215 0.73595 0.0
C436 C 0.43007 0.37412 0.7103 0.0
C437 C 0.33153 0.32025 0.75792 0.0
C438 C 0.34914 0.30361 0.75008 0.0
C439 C 0.53722 0.38765 0.73431 0.0
C440 C 0.58549 0.34038 0.81315 0.0
C441 C 0.58893 0.33668 0.84437 0.0
C442 C 0.5768 0.31628 0.84279 0.0
C443 C 0.57442 0.31978 0.8118 0.0
C444 C 0.59324 0.34871 0.8295 0.0
C445 C 0.56985 0.30786 0.82656 0.0
C446 C 0.47944 0.38891 0.77231 0.0
C447 C 0.58914 0.35337 0.79773 0.0
H448 H 0.36163 0.40693 0.65546 0.0
H449 H 0.38076 0.4052 0.70958 0.0
H450 H 0.35011 0.42028 0.68452 0.0
H451 H 0.43573 0.36154 0.67644 0.0
H452 H 0.57345 0.30676 0.85411 0.0
H453 H 0.56955 0.31291 0.79933 0.0
H454 H 0.60235 0.36453 0.83065 0.0
H455 H 0.5611 0.29201 0.82542 0.0
Eu456 Eu 0.05468 0.85915 0.73544 0.0
C457 C 0.87962 0.84885 0.7622 0.0
N458 N 0.90101 0.86607 0.76132 0.0
C459 C 0.84706 0.88583 0.75409 0.0
C460 C 0.84116 0.84933 0.75831 0.0
C461 C 0.88497 0.88458 0.75823 0.0
C462 C 0.82518 0.86806 0.75383 0.0
C463 C 0.87364 0.81327 0.7707 0.0
C464 C 0.8955 0.83113 0.76847 0.0
C465 C 0.83583 0.81334 0.76592 0.0
C466 C 0.8196 0.83136 0.75977 0.0
Eu467 Eu 0.96478 0.86275 0.76871 0.0
N468 N 0.93195 0.83164 0.77321 0.0
C469 C 0.89019 0.79605 0.77811 0.0
C470 C 0.94759 0.81531 0.7814 0.0
C471 C 0.92723 0.79717 0.78367 0.0
H472 H 0.90149 0.89849 0.75895 0.0
H473 H 0.94 0.78413 0.78984 0.0
H474 H 0.1102 0.82271 0.75119 0.0
H475 H 0.07975 0.94206 0.7295 0.0
H476 H 0.97585 0.81625 0.78608 0.0
H477 H 0.87437 0.78203 0.78001 0.0
H478 H 0.04269 0.91057 0.7282 0.0
H479 H 0.83471 0.90051 0.75128 0.0
H480 H 0.81866 0.79973 0.76741 0.0
H481 H 0.79011 0.83139 0.75669 0.0
H482 H 0.17372 0.81962 0.76311 0.0
H483 H 0.79573 0.86908 0.75081 0.0
H484 H 0.14523 0.94112 0.73937 0.0
N485 N 0.11441 0.85484 0.7474 0.0
C486 C 0.13682 0.87174 0.74779 0.0
C487 C 0.16359 0.83439 0.75899 0.0
C488 C 0.17348 0.87062 0.75435 0.0
C489 C 0.12742 0.83624 0.75246 0.0
C490 C 0.18668 0.85167 0.76002 0.0
N491 N 0.08672 0.89118 0.7364 0.0
C492 C 0.07129 0.90951 0.73204 0.0
C493 C 0.14477 0.90833 0.74338 0.0
C494 C 0.12266 0.89039 0.74215 0.0
C495 C 0.1292 0.92702 0.73855 0.0
C496 C 0.09225 0.92761 0.73296 0.0
H497 H 0.21468 0.8502 0.76512 0.0
H498 H 0.2239 0.88781 0.7602 0.0
H499 H 0.19868 0.92081 0.75075 0.0
O500 O 0.07822 0.86359 0.70942 0.0
O501 O 0.06304 0.87382 0.76156 0.0
O502 O 0.00592 0.88795 0.76263 0.0
O503 O 0.07573 0.83306 0.72113 0.0
O504 O 0.00854 0.8798 0.72539 0.0
O505 O 0.95893 0.88355 0.74505 0.0
O506 O 0.97033 0.86034 0.79683 0.0
O507 O 0.96607 0.83513 0.75082 0.0
O508 O 0.99635 0.8493 0.72776 0.0
O509 O 0.94079 0.88565 0.78579 0.0
O510 O 0.0187 0.84763 0.77714 0.0
O511 O 0.04272 0.83201 0.75293 0.0
C512 C 0.04017 0.88709 0.76828 0.0
C513 C 0.10343 0.83491 0.69271 0.0
C514 C 0.11795 0.83465 0.66195 0.0
C515 C 0.13613 0.81583 0.66417 0.0
C516 C 0.12168 0.81609 0.69452 0.0
C517 C 0.13806 0.8067 0.68034 0.0
C518 C 0.10202 0.84433 0.67639 0.0
C519 C 0.97622 0.8877 0.7303 0.0
C520 C 0.08544 0.84414 0.70791 0.0
C521 C 0.19569 0.8884 0.75519 0.0
C522 C 0.18136 0.90719 0.74977 0.0
C523 C 0.97634 0.83455 0.73458 0.0
C524 C 0.91819 0.87283 0.81221 0.0
C525 C 0.89588 0.86871 0.84165 0.0
C526 C 0.85928 0.86655 0.83543 0.0
C527 C 0.88123 0.87077 0.8063 0.0
C528 C 0.9254 0.87197 0.83002 0.0
C529 C 0.85204 0.86767 0.81785 0.0
C530 C 0.03723 0.83274 0.76968 0.0
C531 C 0.94902 0.87595 0.79987 0.0
H532 H 0.14924 0.80823 0.65338 0.0
H533 H 0.12341 0.80862 0.70694 0.0
H534 H 0.15224 0.79225 0.68189 0.0
H535 H 0.08776 0.85878 0.67484 0.0
H536 H 0.83623 0.86417 0.84424 0.0
H537 H 0.87467 0.87168 0.79279 0.0
H538 H 0.95372 0.87364 0.83477 0.0
H539 H 0.8237 0.86616 0.81315 0.0
Eu540 Eu 0.4594 0.63686 0.23536 0.0
C541 C 0.62288 0.6556 0.25102 0.0
N542 N 0.60474 0.63741 0.25336 0.0
C543 C 0.65444 0.61983 0.23905 0.0
C544 C 0.65682 0.65663 0.24185 0.0
C545 C 0.62119 0.61954 0.24844 0.0
C546 C 0.67199 0.63849 0.23546 0.0
C547 C 0.628 0.69195 0.25745 0.0
C548 C 0.60877 0.6731 0.25874 0.0
C549 C 0.66088 0.69317 0.24769 0.0
C550 C 0.67522 0.67556 0.23989 0.0
Eu551 Eu 0.54758 0.63912 0.26869 0.0
N552 N 0.57645 0.67162 0.26781 0.0
C553 C 0.61391 0.70893 0.26628 0.0
C554 C 0.56365 0.68776 0.27722 0.0
C555 C 0.58189 0.70674 0.27641 0.0
H556 H 0.60938 0.60494 0.25206 0.0
H557 H 0.57127 0.71966 0.28357 0.0
H558 H 0.39573 0.66572 0.25555 0.0
H559 H 0.44776 0.5582 0.21137 0.0
H560 H 0.53902 0.68596 0.28509 0.0
H561 H 0.62794 0.72367 0.26564 0.0
H562 H 0.4775 0.5919 0.21521 0.0
H563 H 0.66688 0.60562 0.23488 0.0
H564 H 0.67586 0.70756 0.2464 0.0
H565 H 0.70113 0.67665 0.23276 0.0
H566 H 0.33281 0.66188 0.2678 0.0
H567 H 0.69801 0.63863 0.22836 0.0
H568 H 0.38497 0.55152 0.22338 0.0
N569 N 0.39948 0.63464 0.24769 0.0
C570 C 0.38109 0.61653 0.24561 0.0
C571 C 0.34624 0.64892 0.26181 0.0
C572 C 0.34469 0.61374 0.25216 0.0
C573 C 0.38224 0.65096 0.2551 0.0
C574 C 0.3275 0.63017 0.26049 0.0
N575 N 0.43373 0.60387 0.23057 0.0
C576 C 0.45096 0.58903 0.2212 0.0
C577 C 0.38 0.58183 0.23441 0.0
C578 C 0.3986 0.60077 0.23678 0.0
C579 C 0.39824 0.5663 0.2254 0.0
C580 C 0.43377 0.56997 0.21868 0.0
H581 H 0.29952 0.62866 0.26564 0.0
H582 H 0.29852 0.59239 0.25502 0.0
H583 H 0.32947 0.56443 0.23956 0.0
O584 O 0.43691 0.63347 0.20924 0.0
O585 O 0.45281 0.62082 0.2613 0.0
O586 O 0.51227 0.61028 0.26887 0.0
O587 O 0.43684 0.66351 0.22187 0.0
O588 O 0.51239 0.62063 0.22716 0.0
O589 O 0.54384 0.6104 0.25188 0.0
O590 O 0.54182 0.64176 0.29671 0.0
O591 O 0.53574 0.66524 0.25015 0.0
O592 O 0.51696 0.6468 0.22702 0.0
O593 O 0.59271 0.63013 0.28585 0.0
O594 O 0.49166 0.65116 0.2773 0.0
O595 O 0.46329 0.66465 0.25319 0.0
C596 C 0.47572 0.6089 0.26993 0.0
C597 C 0.41168 0.66182 0.19259 0.0
C598 C 0.39765 0.66079 0.16177 0.0
C599 C 0.38332 0.68069 0.16293 0.0
C600 C 0.39701 0.68167 0.1934 0.0
C601 C 0.38277 0.69096 0.17867 0.0
C602 C 0.41141 0.65124 0.17671 0.0
C603 C 0.5354 0.60835 0.23539 0.0
C604 C 0.42894 0.65282 0.2081 0.0
C605 C 0.32641 0.59482 0.25001 0.0
C606 C 0.34402 0.57892 0.24117 0.0
C607 C 0.53299 0.66307 0.23346 0.0
C608 C 0.57564 0.61792 0.31329 0.0
C609 C 0.58489 0.60872 0.34355 0.0
C610 C 0.58324 0.5879 0.33876 0.0
C611 C 0.57344 0.59712 0.30892 0.0
C612 C 0.58081 0.62366 0.33058 0.0
C613 C 0.57721 0.58221 0.32163 0.0
C614 C 0.47102 0.66511 0.26982 0.0
C615 C 0.57422 0.63379 0.2999 0.0
H616 H 0.37243 0.68828 0.15161 0.0
H617 H 0.39681 0.6901 0.20542 0.0
H618 H 0.3716 0.70628 0.17941 0.0
H619 H 0.42294 0.63599 0.17581 0.0
H620 H 0.58732 0.57589 0.34815 0.0
H621 H 0.56928 0.59242 0.29567 0.0
H622 H 0.58173 0.63979 0.33383 0.0
H623 H 0.57601 0.56617 0.31816 0.0
H624 H 0.15615 0.94795 0.34511 0.0
H625 H 0.13138 0.97592 0.32771 0.0
H626 H 0.16033 0.01898 0.36777 0.0
H627 H 0.18612 0.99116 0.38508 0.0
H628 H 0.0737 0.00282 0.33627 0.0
H629 H 0.207 0.04446 0.32435 0.0
H630 H 0.20532 0.01841 0.33208 0.0
H631 H 0.19733 0.03932 0.34663 0.0
C632 C 0.15772 0.96341 0.35012 0.0
C633 C 0.1733 0.96737 0.36643 0.0
C634 C 0.14333 0.97934 0.34022 0.0
C635 C 0.14448 -0.00048 0.34637 0.0
C636 C 0.15975 0.00354 0.36268 0.0
H637 H 0.04764 0.11199 0.30688 0.0
H638 H 0.07494 0.08549 0.32531 0.0
C639 C 0.1741 0.98761 0.37262 0.0
C640 C 0.12878 0.01627 0.33587 0.0
H641 H 0.15147 0.06085 0.31528 0.0
C642 C 0.09069 0.01549 0.33167 0.0
C643 C 0.15113 0.03272 0.32984 0.0
C644 C 0.19254 0.03377 0.3333 0.0
C645 C 0.07427 0.03088 0.3217 0.0
C646 C 0.09654 0.04734 0.31581 0.0
C647 C 0.13456 0.0482 0.32 0.0
C648 C 0.08089 0.06344 0.30474 0.0
C649 C 0.03322 0.02956 0.31748 0.0
C650 C 0.07558 0.0597 0.28715 0.0
C651 C 0.06021 0.07473 0.27663 0.0
C652 C 0.04987 0.09375 0.28356 0.0
C653 C 0.05532 0.09746 0.30121 0.0
C654 C 0.07094 0.08242 0.31172 0.0
H655 H 0.01899 0.01688 0.32446 0.0
H656 H 0.01939 0.0442 0.32077 0.0
H657 H 0.02965 0.02705 0.30343 0.0
H658 H 0.08316 0.04509 0.2816 0.0
H659 H 0.05602 0.07135 0.2631 0.0
H660 H 0.29123 0.53008 0.84737 0.0
H661 H 0.31837 0.50276 0.82988 0.0
H662 H 0.40777 0.49648 0.86659 0.0
H663 H 0.38141 0.52406 0.88402 0.0
H664 H 0.41819 0.5031 0.8236 0.0
H665 H 0.33573 0.43766 0.85021 0.0
H666 H 0.31427 0.46234 0.84732 0.0
H667 H 0.3492 0.45915 0.86357 0.0
C668 C 0.31675 0.52296 0.8517 0.0
C669 C 0.33417 0.52928 0.8671 0.0
C670 C 0.33205 0.50731 0.84175 0.0
C671 C 0.36491 0.4977 0.84703 0.0
C672 C 0.38226 0.50376 0.8624 0.0
H673 H 0.4788 0.39087 0.80752 0.0
H674 H 0.45174 0.41761 0.82559 0.0
C675 C 0.367 0.5194 0.87238 0.0
C676 C 0.38169 0.48161 0.83627 0.0
H677 H 0.37852 0.43033 0.82808 0.0
C678 C 0.40961 0.48717 0.82452 0.0
C679 C 0.37046 0.46094 0.8377 0.0
C680 C 0.34079 0.45446 0.85037 0.0
C681 C 0.42671 0.47247 0.81405 0.0
C682 C 0.41504 0.45175 0.81524 0.0
C683 C 0.38729 0.44622 0.82715 0.0
C684 C 0.43131 0.43558 0.80424 0.0
C685 C 0.45754 0.4792 0.80205 0.0
C686 C 0.42841 0.43672 0.78625 0.0
C687 C 0.44408 0.42159 0.7759 0.0
C688 C 0.46246 0.40482 0.78333 0.0
C689 C 0.4649 0.40359 0.80137 0.0
C690 C 0.44937 0.41881 0.81172 0.0
H691 H 0.47 0.49408 0.80608 0.0
H692 H 0.47999 0.46761 0.80144 0.0
H693 H 0.44594 0.48114 0.7889 0.0
H694 H 0.41394 0.44932 0.78021 0.0
H695 H 0.44184 0.42309 0.76205 0.0
H696 H 0.70407 0.50424 0.62325 0.0
H697 H 0.67815 0.4765 0.64107 0.0
H698 H 0.62518 0.52095 0.67377 0.0
H699 H 0.65071 0.54871 0.65605 0.0
H700 H 0.68342 0.47872 0.68522 0.0
H701 H 0.5469 0.47234 0.65104 0.0
H702 H 0.58912 0.47952 0.63977 0.0
H703 H 0.56811 0.49718 0.65443 0.0
C704 C 0.68672 0.50806 0.63418 0.0
C705 C 0.67947 0.52862 0.6383 0.0
C706 C 0.67216 0.49225 0.64436 0.0
C707 C 0.64992 0.4968 0.65868 0.0
C708 C 0.64245 0.51724 0.66278 0.0
H709 H 0.51042 0.42566 0.72707 0.0
H710 H 0.5395 0.45204 0.70908 0.0
C711 C 0.65714 0.53303 0.65269 0.0
C712 C 0.63422 0.48023 0.66942 0.0
H713 H 0.55546 0.45151 0.67539 0.0
C714 C 0.65556 0.47261 0.68307 0.0
C715 C 0.59775 0.47265 0.66662 0.0
C716 C 0.5739 0.48072 0.65217 0.0
C717 C 0.64107 0.45763 0.69423 0.0
C718 C 0.60463 0.44979 0.69131 0.0
C719 C 0.58341 0.45746 0.67757 0.0
C720 C 0.58766 0.43385 0.70248 0.0
C721 C 0.66438 0.45089 0.70937 0.0
C722 C 0.6049 0.41481 0.70462 0.0
C723 C 0.58849 0.39979 0.71499 0.0
C724 C 0.55425 0.40344 0.72319 0.0
C725 C 0.53673 0.42239 0.72084 0.0
C726 C 0.55335 0.43747 0.7106 0.0
H727 H 0.6866 0.46227 0.71251 0.0
H728 H 0.64682 0.44849 0.72097 0.0
H729 H 0.67815 0.43621 0.7062 0.0
H730 H 0.63085 0.41145 0.69812 0.0
H731 H 0.60239 0.38522 0.71641 0.0
H732 H 0.86086 0.94944 0.15695 0.0
H733 H 0.8855 0.97768 0.17448 0.0
H734 H 0.83155 0.02116 0.14121 0.0
H735 H 0.8066 0.99295 0.12358 0.0
H736 H 0.9291 0.01656 0.15799 0.0
H737 H 0.79955 0.03031 0.19581 0.0
H738 H 0.80994 0.00537 0.18702 0.0
H739 H 0.79647 0.02572 0.17295 0.0
C740 C 0.85405 0.96501 0.15343 0.0
C741 C 0.83168 0.96902 0.13896 0.0
C742 C 0.86826 0.98108 0.16339 0.0
C743 C 0.86007 0.00138 0.15913 0.0
C744 C 0.83796 0.00552 0.14467 0.0
H745 H 0.9078 0.11319 0.21682 0.0
H746 H 0.88044 0.08728 0.19764 0.0
C747 C 0.82394 0.98944 0.1346 0.0
C748 C 0.87501 0.01822 0.16982 0.0
H749 H 0.85219 0.05049 0.20261 0.0
C750 C 0.91238 0.02409 0.16772 0.0
C751 C 0.85282 0.02802 0.18229 0.0
C752 C 0.81243 0.02212 0.18481 0.0
C753 C 0.92836 0.03962 0.17788 0.0
C754 C 0.90659 0.04897 0.19089 0.0
C755 C 0.86892 0.04326 0.19274 0.0
C756 C 0.92252 0.06447 0.20285 0.0
C757 C 0.96818 0.04603 0.17432 0.0
C758 C 0.95458 0.06007 0.21251 0.0
C759 C 0.97059 0.07494 0.22316 0.0
C760 C 0.95424 0.09432 0.22472 0.0
C761 C 0.9211 0.09841 0.21574 0.0
C762 C 0.90547 0.08363 0.2048 0.0
H763 H 0.97625 0.04257 0.16082 0.0
H764 H 0.97255 0.06265 0.17666 0.0
H765 H 0.98715 0.03737 0.18289 0.0
H766 H 0.96737 0.04514 0.21178 0.0
H767 H 0.99568 0.07121 0.23025 0.0
H768 H 0.78217 0.02248 0.64884 0.0
H769 H 0.80686 0.99432 0.66622 0.0
H770 H 0.91676 0.00562 0.64558 0.0
H771 H 0.89253 0.03396 0.62846 0.0
H772 H 0.84572 0.9585 0.65469 0.0
H773 H 0.93131 0.00707 0.69847 0.0
H774 H 0.8944 0.01725 0.68524 0.0
H775 H 0.93915 0.01179 0.67597 0.0
C776 C 0.81163 0.01902 0.64811 0.0
C777 C 0.83547 0.03043 0.63733 0.0
C778 C 0.82561 0.00291 0.65795 0.0
C779 C 0.86365 0.99811 0.6573 0.0
C780 C 0.88739 0.00929 0.64641 0.0
H781 H 0.0085 0.90875 0.70344 0.0
H782 H 0.97996 0.93481 0.68534 0.0
C783 C 0.87345 0.02533 0.63652 0.0
C784 C 0.87868 0.98133 0.6679 0.0
H785 H 0.94133 0.9712 0.69982 0.0
C786 C 0.86645 0.96124 0.66464 0.0
C787 C 0.90557 0.98506 0.68089 0.0
C788 C 0.91819 0.00647 0.68551 0.0
C789 C 0.88125 0.94464 0.67376 0.0
C790 C 0.90867 0.94836 0.68649 0.0
C791 C 0.92054 0.96846 0.6899 0.0
C792 C 0.92514 0.93165 0.69666 0.0
C793 C 0.86814 0.92321 0.66953 0.0
C794 C 0.90358 0.9211 0.70881 0.0
C795 C 0.91995 0.90641 0.71936 0.0
C796 C 0.95823 0.90218 0.71818 0.0
C797 C 0.97928 0.9121 0.7053 0.0
C798 C 0.96298 0.92692 0.69481 0.0
H799 H 0.85213 0.92262 0.65728 0.0
H800 H 0.89224 0.9127 0.66855 0.0
H801 H 0.8498 0.91754 0.68002 0.0
H802 H 0.87422 0.92447 0.71035 0.0
H803 H 0.90242 0.89829 0.72827 0.0
H804 H 0.61645 0.46611 0.1284 0.0
H805 H 0.59295 0.49379 0.14658 0.0
H806 H 0.6984 0.49663 0.17331 0.0
H807 H 0.72249 0.46941 0.15488 0.0
H808 H 0.58625 0.4941 0.18259 0.0
H809 H 0.68003 0.55638 0.15961 0.0
H810 H 0.67376 0.53263 0.14802 0.0
H811 H 0.7038 0.53373 0.16655 0.0
C812 C 0.63483 0.47285 0.13797 0.0
C813 C 0.67138 0.46562 0.14016 0.0
C814 C 0.62127 0.48854 0.14842 0.0
C815 C 0.64407 0.49737 0.16116 0.0
C816 C 0.68054 0.49022 0.16338 0.0
H817 H 0.56677 0.57275 0.24703 0.0
H818 H 0.59455 0.54549 0.2296 0.0
C819 C 0.69412 0.47453 0.15295 0.0
C820 C 0.6294 0.51374 0.17241 0.0
H821 H 0.64296 0.56363 0.18412 0.0
C822 C 0.59859 0.50932 0.18294 0.0
C823 C 0.64539 0.53361 0.17267 0.0
C824 C 0.67736 0.5395 0.16101 0.0
C825 C 0.58345 0.52423 0.19386 0.0
C826 C 0.60002 0.54394 0.19444 0.0
C827 C 0.63067 0.5484 0.18381 0.0
C828 C 0.58464 0.56055 0.20522 0.0
C829 C 0.54929 0.51892 0.20435 0.0
C830 C 0.57095 0.57824 0.19732 0.0
C831 C 0.55552 0.59384 0.2072 0.0
C832 C 0.55352 0.59208 0.22522 0.0
C833 C 0.56797 0.57453 0.23318 0.0
C834 C 0.58352 0.55889 0.22324 0.0
H835 H 0.53517 0.50482 0.19956 0.0
H836 H 0.55767 0.51629 0.21792 0.0
H837 H 0.52897 0.53167 0.20415 0.0
H838 H 0.57172 0.57985 0.18344 0.0
H839 H 0.54492 0.60724 0.20068 0.0
H840 H 0.33076 0.45238 0.34278 0.0
H841 H 0.35614 0.48052 0.32552 0.0
H842 H 0.37103 0.51686 0.37136 0.0
H843 H 0.34449 0.48911 0.38876 0.0
H844 H 0.32822 0.5284 0.32906 0.0
H845 H 0.47714 0.50934 0.34165 0.0
H846 H 0.44116 0.48978 0.3415 0.0
H847 H 0.44353 0.50776 0.3589 0.0
C848 C 0.33884 0.46644 0.34921 0.0
C849 C 0.33555 0.46842 0.36721 0.0
C850 C 0.35357 0.48244 0.33932 0.0
C851 C 0.36555 0.50063 0.34722 0.0
C852 C 0.36209 0.50283 0.36509 0.0
H853 H 0.48972 0.60426 0.30407 0.0
H854 H 0.46223 0.57869 0.32362 0.0
C855 C 0.34714 0.48689 0.375 0.0
C856 C 0.38201 0.51728 0.33675 0.0
H857 H 0.46534 0.53738 0.32352 0.0
C858 C 0.35816 0.53046 0.32784 0.0
C859 C 0.42103 0.51992 0.3354 0.0
C860 C 0.44748 0.50599 0.3448 0.0
C861 C 0.37242 0.54629 0.31748 0.0
C862 C 0.41158 0.5486 0.31567 0.0
C863 C 0.43537 0.53557 0.32487 0.0
C864 C 0.42837 0.56407 0.30395 0.0
C865 C 0.34538 0.56056 0.30879 0.0
C866 C 0.41928 0.564 0.28636 0.0
C867 C 0.43481 0.57859 0.27531 0.0
C868 C 0.45985 0.59339 0.28157 0.0
C869 C 0.47009 0.59307 0.29901 0.0
C870 C 0.45438 0.57853 0.31015 0.0
H871 H 0.31814 0.56086 0.3156 0.0
H872 H 0.35672 0.57642 0.30817 0.0
H873 H 0.34011 0.55516 0.29545 0.0
H874 H 0.4005 0.55251 0.28112 0.0
H875 H 0.42813 0.57789 0.26181 0.0
H876 H 0.19139 0.0048 0.88365 0.0
H877 H 0.16658 0.97681 0.86582 0.0
H878 H 0.11751 0.02078 0.83135 0.0
H879 H 0.14225 0.04876 0.84902 0.0
H880 H 0.09301 0.96711 0.85628 0.0
H881 H 0.18 0.98533 0.79914 0.0
H882 H 0.18929 0.99612 0.82013 0.0
H883 H 0.15303 0.0065 0.8068 0.0
C884 C 0.17511 0.00847 0.87233 0.0
C885 C 0.16908 0.02897 0.86763 0.0
C886 C 0.16106 0.9925 0.86214 0.0
C887 C 0.14081 0.99676 0.84711 0.0
C888 C 0.13386 0.01718 0.84267 0.0
H889 H 0.00131 0.91757 0.78423 0.0
H890 H 0.02573 0.94344 0.80421 0.0
C891 C 0.148 0.03313 0.85278 0.0
C892 C 0.12691 0.97988 0.83602 0.0
H893 H 0.13163 0.96064 0.79519 0.0
C894 C 0.10153 0.96563 0.84294 0.0
C895 C 0.13844 0.97787 0.81868 0.0
C896 C 0.16696 0.99214 0.81076 0.0
C897 C 0.08671 0.94967 0.83285 0.0
C898 C 0.09738 0.94809 0.81539 0.0
C899 C 0.12331 0.96206 0.80856 0.0
C900 C 0.08217 0.93195 0.80396 0.0
C901 C 0.06009 0.93447 0.84093 0.0
C902 C 0.10593 0.91707 0.79714 0.0
C903 C 0.0921 0.90226 0.7858 0.0
C904 C 0.05432 0.90226 0.78086 0.0
C905 C 0.03052 0.91715 0.78779 0.0
C906 C 0.04437 0.93188 0.79925 0.0
H907 H 0.06059 0.93533 0.85521 0.0
H908 H 0.03129 0.93772 0.83651 0.0
H909 H 0.06699 0.91862 0.83692 0.0
H910 H 0.13523 0.91694 0.80059 0.0
H911 H 0.11115 0.89094 0.7808 0.0
H912 H 0.23577 0.13999 0.01391 0.0
H913 H 0.21337 0.14346 0.04357 0.0
H914 H 0.10795 0.11632 0.02892 0.0
H915 H 0.12995 0.11288 0.99929 0.0
H916 H 0.14937 0.16358 0.05765 0.0
H917 H 0.14521 0.07944 0.06812 0.0
H918 H 0.1693 0.09101 0.05016 0.0
H919 H 0.1194 0.08807 0.04971 0.0
C920 C 0.20768 0.13495 0.01697 0.0
C921 C 0.1848 0.12594 0.00427 0.0
C922 C 0.19496 0.13692 0.03392 0.0
C923 C 0.1592 0.12989 0.03848 0.0
C924 C 0.1359 0.12149 0.02574 0.0
H925 H 0.05578 0.10967 0.13813 0.0
H926 H 0.06251 0.11735 0.10735 0.0
C927 C 0.14858 0.11947 0.00883 0.0
C928 C 0.14672 0.13065 0.05666 0.0
H929 H 0.12182 0.1001 0.09042 0.0
C930 C 0.14326 0.14973 0.06484 0.0
C931 C 0.13878 0.11255 0.06599 0.0
C932 C 0.14363 0.09158 0.05814 0.0
C933 C 0.13183 0.15116 0.08213 0.0
C934 C 0.12417 0.13303 0.09147 0.0
C935 C 0.12727 0.11401 0.08319 0.0
C936 C 0.11562 0.13303 0.11016 0.0
C937 C 0.12782 0.17202 0.0902 0.0
C938 C 0.14252 0.13998 0.12202 0.0
C939 C 0.13855 0.13569 0.13956 0.0
C940 C 0.10761 0.12445 0.14549 0.0
C941 C 0.07946 0.11873 0.13384 0.0
C942 C 0.08344 0.12299 0.11629 0.0
H943 H 0.1238 0.18408 0.0803 0.0
H944 H 0.10394 0.17233 0.09929 0.0
H945 H 0.15361 0.17581 0.0975 0.0
H946 H 0.16795 0.14732 0.11759 0.0
H947 H 0.16095 0.1398 0.14832 0.0
H948 H 0.3286 0.4042 0.50973 0.0
H949 H 0.34926 0.40113 0.53956 0.0
H950 H 0.35146 0.33542 0.53445 0.0
H951 H 0.3322 0.33837 0.50431 0.0
H952 H 0.31376 0.38135 0.56609 0.0
H953 H 0.45395 0.34797 0.55524 0.0
H954 H 0.42719 0.35956 0.53818 0.0
H955 H 0.41584 0.33417 0.54548 0.0
C956 C 0.33405 0.38908 0.51482 0.0
C957 C 0.32901 0.37154 0.50452 0.0
C958 C 0.34563 0.38735 0.53194 0.0
C959 C 0.35249 0.36807 0.53917 0.0
C960 C 0.34709 0.35048 0.52904 0.0
H961 H 0.37369 0.34765 0.64998 0.0
H962 H 0.36629 0.34048 0.61905 0.0
C963 C 0.33557 0.3522 0.51187 0.0
C964 C 0.36386 0.36653 0.55752 0.0
H965 H 0.43454 0.35159 0.58427 0.0
C966 C 0.34006 0.37473 0.57005 0.0
C967 C 0.39831 0.35796 0.56267 0.0
C968 C 0.42552 0.34956 0.54971 0.0
C969 C 0.34986 0.37475 0.58753 0.0
C970 C 0.38425 0.36626 0.59266 0.0
C971 C 0.40802 0.35787 0.58024 0.0
C972 C 0.39649 0.36755 0.61083 0.0
C973 C 0.32384 0.38431 0.60046 0.0
C974 C 0.41718 0.38466 0.61632 0.0
C975 C 0.42123 0.38879 0.63388 0.0
C976 C 0.40498 0.37574 0.64618 0.0
C977 C 0.38695 0.35771 0.64071 0.0
C978 C 0.38261 0.35367 0.62309 0.0
H979 H 0.2985 0.39074 0.59431 0.0
H980 H 0.31508 0.37266 0.61006 0.0
H981 H 0.33859 0.39677 0.60752 0.0
H982 H 0.42782 0.3956 0.60704 0.0
H983 H 0.43483 0.4029 0.63785 0.0
H984 H 0.73037 0.35313 0.99312 0.0
H985 H 0.70948 0.34964 0.96327 0.0
H986 H 0.61878 0.39088 0.97317 0.0
H987 H 0.63863 0.39403 0.00321 0.0
H988 H 0.63257 0.33629 0.95286 0.0
H989 H 0.67502 0.41322 0.92857 0.0
H990 H 0.69609 0.40183 0.94739 0.0
H991 H 0.64987 0.412 0.94862 0.0
C992 C 0.7058 0.36137 0.98904 0.0
C993 C 0.6862 0.37385 1.00065 0.0
C994 C 0.6941 0.35946 0.97193 0.0
C995 C 0.66284 0.37015 0.96601 0.0
C996 C 0.64331 0.38275 0.97745 0.0
H997 H 0.54129 0.34239 0.87112 0.0
H998 H 0.55723 0.35272 0.90067 0.0
C999 C 0.65483 0.38457 0.99461 0.0
C1000 C 0.64986 0.36736 0.94805 0.0
H1001 H 0.64431 0.39111 0.90896 0.0
C1002 C 0.63495 0.34828 0.94326 0.0
C1003 C 0.65318 0.38305 0.93561 0.0
C1004 C 0.66957 0.40369 0.94016 0.0
C1005 C 0.62339 0.34439 0.92629 0.0
C1006 C 0.62673 0.36006 0.9138 0.0
C1007 C 0.64161 0.37919 0.91859 0.0
C1008 C 0.61626 0.3564 0.89557 0.0
C1009 C 0.60858 0.32337 0.92174 0.0
C1010 C 0.64391 0.35592 0.88278 0.0
C1011 C 0.63474 0.35033 0.86589 0.0
C1012 C 0.59783 0.34505 0.86159 0.0
C1013 C 0.56996 0.34629 0.87423 0.0
C1014 C 0.57905 0.35211 0.89106 0.0
H1015 H 0.61397 0.31203 0.93208 0.0
H1016 H 0.57797 0.32416 0.91971 0.0
H1017 H 0.6214 0.31783 0.90961 0.0
H1018 H 0.67279 0.35913 0.88603 0.0
H1019 H 0.65667 0.34931 0.85635 0.0
H1020 H 0.86419 0.14898 0.50439 0.0
H1021 H 0.8847 0.14994 0.47425 0.0
H1022 H 0.81138 0.09919 0.46243 0.0
H1023 H 0.79059 0.09819 0.49245 0.0
H1024 H 0.91582 0.11437 0.45296 0.0
H1025 H 0.78351 0.14821 0.42888 0.0
H1026 H 0.79808 0.15034 0.45108 0.0
H1027 H 0.77953 0.12656 0.44312 0.0
C1028 C 0.85229 0.13813 0.49533 0.0
C1029 C 0.82567 0.12357 0.50075 0.0
C1030 C 0.86426 0.13857 0.47819 0.0
C1031 C 0.8495 0.12464 0.46617 0.0
C1032 C 0.82305 0.11006 0.47154 0.0
H1033 H 0.86653 0.12386 0.35423 0.0
H1034 H 0.85703 0.11133 0.38376 0.0
C1035 C 0.81129 0.1095 0.48868 0.0
C1036 C 0.86072 0.1258 0.44787 0.0
H1037 H 0.82901 0.14009 0.40828 0.0
C1038 C 0.89689 0.11992 0.44314 0.0
C1039 C 0.83584 0.13295 0.43515 0.0
C1040 C 0.7971 0.14003 0.43971 0.0
C1041 C 0.90886 0.12114 0.42593 0.0
C1042 C 0.88414 0.12865 0.41326 0.0
C1043 C 0.84779 0.13414 0.418 0.0
C1044 C 0.89601 0.13278 0.39532 0.0
C1045 C 0.94775 0.11439 0.42138 0.0
C1046 C 0.92181 0.14857 0.39202 0.0
C1047 C 0.92694 0.15581 0.37526 0.0
C1048 C 0.90661 0.14725 0.36153 0.0
C1049 C 0.88283 0.13048 0.36462 0.0
C1050 C 0.87733 0.12339 0.38145 0.0
H1051 H 0.95962 0.10422 0.43142 0.0
H1052 H 0.94791 0.10621 0.40883 0.0
H1053 H 0.96615 0.12806 0.42022 0.0
H1054 H 0.93604 0.15625 0.40254 0.0
H1055 H 0.94516 0.16888 0.37315 0.0
H1056 H 0.82269 0.90754 0.99636 0.0
H1057 H 0.84621 0.90425 0.96697 0.0
H1058 H 0.84606 0.83857 0.97207 0.0
H1059 H 0.82358 0.84164 1.00171 0.0
H1060 H 0.9153 0.8813 0.95523 0.0
H1061 H 0.78011 0.85323 0.92831 0.0
H1062 H 0.78298 0.86724 0.94833 0.0
H1063 H 0.79698 0.84096 0.94751 0.0
C1064 C 0.82806 0.89238 0.99135 0.0
C1065 C 0.82123 0.87485 1.00146 0.0
C1066 C 0.8414 0.89055 0.97453 0.0
C1067 C 0.8478 0.87119 0.96741 0.0
C1068 C 0.84105 0.85365 0.97736 0.0
H1069 H 0.88834 0.83532 0.8619 0.0
H1070 H 0.88402 0.83475 0.89336 0.0
C1071 C 0.82792 0.85545 0.99424 0.0
C1072 C 0.86056 0.86937 0.94937 0.0
H1073 H 0.83074 0.85571 0.90928 0.0
C1074 C 0.89697 0.87564 0.94514 0.0
C1075 C 0.83651 0.86197 0.93634 0.0
C1076 C 0.79685 0.85556 0.94021 0.0
C1077 C 0.91009 0.87455 0.92811 0.0
C1078 C 0.88579 0.86742 0.91499 0.0
C1079 C 0.84946 0.86104 0.91934 0.0
C1080 C 0.89645 0.86703 0.89653 0.0
C1081 C 0.94989 0.88076 0.92438 0.0
C1082 C 0.90628 0.8852 0.88788 0.0
C1083 C 0.90933 0.88543 0.86991 0.0
C1084 C 0.90212 0.86757 0.86039 0.0
C1085 C 0.89432 0.84921 0.86906 0.0
C1086 C 0.8917 0.84892 0.88699 0.0
H1087 H 0.96768 0.87958 0.93606 0.0
H1088 H 0.96206 0.87114 0.91405 0.0
H1089 H 0.95055 0.89694 0.92005 0.0
H1090 H 0.90924 0.89946 0.89489 0.0
H1091 H 0.91472 0.89981 0.8634 0.0
H1092 H 0.68508 0.59164 0.49592 0.0
H1093 H 0.66194 0.59514 0.46648 0.0
H1094 H 0.66662 0.66083 0.47114 0.0
H1095 H 0.68881 0.65758 0.50091 0.0
H1096 H 0.59139 0.62792 0.45644 0.0
H1097 H 0.73132 0.63459 0.42559 0.0
H1098 H 0.72552 0.61937 0.44483 0.0
H1099 H 0.72161 0.64664 0.44602 0.0
C1100 C 0.68083 0.60687 0.49082 0.0
C1101 C 0.68868 0.62433 0.50088 0.0
C1102 C 0.66779 0.60881 0.47396 0.0
C1103 C 0.66255 0.62822 0.46673 0.0
C1104 C 0.67053 0.64572 0.47656 0.0
H1105 H 0.6246 0.64197 0.35604 0.0
H1106 H 0.6387 0.65039 0.38596 0.0
C1107 C 0.68349 0.64381 0.49351 0.0
C1108 C 0.64897 0.62991 0.44881 0.0
H1109 H 0.67956 0.63028 0.40729 0.0
C1110 C 0.61052 0.62869 0.44564 0.0
C1111 C 0.67403 0.63126 0.43487 0.0
C1112 C 0.71551 0.63308 0.43783 0.0
C1113 C 0.59645 0.62809 0.42875 0.0
C1114 C 0.62169 0.628 0.41469 0.0
C1115 C 0.66013 0.63018 0.41797 0.0
C1116 C 0.60932 0.62426 0.39663 0.0
C1117 C 0.5547 0.62759 0.42622 0.0
C1118 C 0.58771 0.60689 0.39256 0.0
C1119 C 0.57868 0.60232 0.37547 0.0
C1120 C 0.59195 0.61466 0.36189 0.0
C1121 C 0.6133 0.63221 0.36604 0.0
C1122 C 0.62174 0.63697 0.3832 0.0
H1123 H 0.54026 0.63552 0.43695 0.0
H1124 H 0.54646 0.6349 0.4139 0.0
H1125 H 0.54483 0.61145 0.42615 0.0
H1126 H 0.5786 0.59646 0.40256 0.0
H1127 H 0.56162 0.5889 0.37294 0.0
H1128 H 0.2853 0.59659 0.01419 0.0
H1129 H 0.30621 0.59982 0.04417 0.0
H1130 H 0.38042 0.64913 0.02956 0.0
H1131 H 0.35899 0.64628 0.99973 0.0
H1132 H 0.37457 0.59704 0.06036 0.0
H1133 H 0.31918 0.67565 0.06678 0.0
H1134 H 0.30805 0.65945 0.04865 0.0
H1135 H 0.35177 0.67322 0.04942 0.0
C1136 C 0.30614 0.60808 0.01739 0.0
C1137 C 0.32007 0.62142 0.00467 0.0
C1138 C 0.31811 0.60989 0.03451 0.0
C1139 C 0.34434 0.62499 0.0392 0.0
C1140 C 0.35939 0.63774 0.02636 0.0
H1141 H 0.43556 0.67336 0.13352 0.0
H1142 H 0.42714 0.66141 0.10389 0.0
C1143 C 0.34712 0.63611 0.00932 0.0
C1144 C 0.35504 0.62797 0.05756 0.0
H1145 H 0.35737 0.66386 0.08952 0.0
C1146 C 0.37072 0.61162 0.06678 0.0
C1147 C 0.3497 0.64693 0.066 0.0
C1148 C 0.33091 0.66475 0.05727 0.0
C1149 C 0.38215 0.61395 0.08406 0.0
C1150 C 0.37746 0.63308 0.09231 0.0
C1151 C 0.36138 0.64927 0.08313 0.0
C1152 C 0.38856 0.63701 0.11049 0.0
C1153 C 0.39981 0.59613 0.0932 0.0
C1154 C 0.37078 0.62677 0.12418 0.0
C1155 C 0.37594 0.63348 0.1412 0.0
C1156 C 0.39854 0.65067 0.14469 0.0
C1157 C 0.41798 0.66008 0.13112 0.0
C1158 C 0.41315 0.65327 0.11421 0.0
H1159 H 0.40965 0.58432 0.084 0.0
H1160 H 0.42373 0.60132 0.10123 0.0
H1161 H 0.37887 0.58888 0.10182 0.0
H1162 H 0.35116 0.61443 0.12163 0.0
H1163 H 0.36038 0.62614 0.15146 0.0
H1164 H 0.18508 0.84192 0.50576 0.0
H1165 H 0.16592 0.83999 0.53598 0.0
H1166 H 0.16305 0.90583 0.53874 0.0
H1167 H 0.18296 0.90802 0.50863 0.0
H1168 H 0.20894 0.87341 0.56634 0.0
H1169 H 0.05539 0.86795 0.55565 0.0
H1170 H 0.08676 0.8558 0.54068 0.0
H1171 H 0.08518 0.88316 0.54181 0.0
C1172 C 0.18072 0.85602 0.5128 0.0
C1173 C 0.1856 0.87513 0.50473 0.0
C1174 C 0.16948 0.85487 0.53002 0.0
C1175 C 0.16289 0.87277 0.53947 0.0
C1176 C 0.16778 0.89186 0.53156 0.0
H1177 H 0.13436 0.87414 0.65227 0.0
H1178 H 0.14114 0.88715 0.62273 0.0
C1179 C 0.17899 0.89305 0.51434 0.0
C1180 C 0.15199 0.87138 0.55778 0.0
H1181 H 0.07714 0.86296 0.58406 0.0
C1182 C 0.18013 0.87143 0.57031 0.0
C1183 C 0.11439 0.86878 0.56276 0.0
C1184 C 0.08343 0.86894 0.54961 0.0
C1185 C 0.17174 0.86812 0.58775 0.0
C1186 C 0.13414 0.86497 0.59276 0.0
C1187 C 0.10588 0.86554 0.58022 0.0
C1188 C 0.12439 0.85869 0.61057 0.0
C1189 C 0.20336 0.86696 0.60056 0.0
C1190 C 0.111 0.83877 0.61348 0.0
C1191 C 0.10704 0.83139 0.63024 0.0
C1192 C 0.11625 0.8438 0.64445 0.0
C1193 C 0.12716 0.86423 0.64157 0.0
C1194 C 0.13128 0.87162 0.62472 0.0
H1195 H 0.23104 0.86639 0.59416 0.0
H1196 H 0.20287 0.88068 0.60899 0.0
H1197 H 0.20018 0.85323 0.60886 0.0
H1198 H 0.1053 0.82858 0.60276 0.0
H1199 H 0.09798 0.81568 0.63209 0.0
H1200 H 0.21866 0.28129 0.37582 0.0
H1201 H 0.19191 0.25442 0.35748 0.0
H1202 H 0.09643 0.29238 0.3474 0.0
H1203 H 0.12343 0.31946 0.36545 0.0
H1204 H 0.12749 0.23254 0.35877 0.0
H1205 H 0.13034 0.27932 0.29923 0.0
H1206 H 0.15364 0.28728 0.31874 0.0
H1207 H 0.10417 0.29088 0.31628 0.0
C1208 C 0.19182 0.28383 0.3698 0.0
C1209 C 0.17327 0.30254 0.37194 0.0
C1210 C 0.17663 0.2685 0.35928 0.0
C1211 C 0.14258 0.27156 0.35075 0.0
C1212 C 0.12327 0.28991 0.35343 0.0
H1213 H 0.00174 0.19724 0.28494 0.0
H1214 H 0.02831 0.22274 0.30455 0.0
C1215 C 0.13863 0.30533 0.3638 0.0
C1216 C 0.12746 0.2556 0.33896 0.0
H1217 H 0.09827 0.24736 0.2976 0.0
C1218 C 0.12132 0.23575 0.34538 0.0
C1219 C 0.11959 0.25978 0.32143 0.0
C1220 C 0.12761 0.28041 0.31345 0.0
C1221 C 0.10683 0.22011 0.33483 0.0
C1222 C 0.09846 0.22443 0.31744 0.0
C1223 C 0.10467 0.24419 0.31099 0.0
C1224 C 0.08265 0.2087 0.30577 0.0
C1225 C 0.09985 0.19915 0.34237 0.0
C1226 C 0.10461 0.19244 0.2999 0.0
C1227 C 0.08958 0.17783 0.28862 0.0
C1228 C 0.05236 0.1793 0.28301 0.0
C1229 C 0.03052 0.19564 0.28897 0.0
C1230 C 0.04561 0.21025 0.30017 0.0
H1231 H 0.10266 0.19908 0.35661 0.0
H1232 H 0.07148 0.19357 0.33887 0.0
H1233 H 0.12028 0.18823 0.33694 0.0
H1234 H 0.1334 0.19113 0.30398 0.0
H1235 H 0.10708 0.16538 0.28439 0.0
H1236 H 0.38236 0.19563 0.88488 0.0
H1237 H 0.41156 0.22291 0.86761 0.0
H1238 H 0.31257 0.22641 0.83623 0.0
H1239 H 0.28322 0.19925 0.85336 0.0
H1240 H 0.40981 0.21988 0.82444 0.0
H1241 H 0.34931 0.28759 0.8576 0.0
H1242 H 0.35884 0.2641 0.86903 0.0
H1243 H 0.32082 0.26507 0.85408 0.0
C1244 C 0.36673 0.20238 0.87442 0.0
C1245 C 0.33057 0.19529 0.87042 0.0
C1246 C 0.38345 0.21786 0.86455 0.0
C1247 C 0.36408 0.2266 0.85073 0.0
C1248 C 0.32785 0.2198 0.84688 0.0
H1249 H 0.40599 0.33001 0.78362 0.0
H1250 H 0.37873 0.30317 0.80154 0.0
C1251 C 0.31124 0.20426 0.85662 0.0
C1252 C 0.38197 0.24239 0.83986 0.0
H1253 H 0.38639 0.29391 0.83316 0.0
C1254 C 0.40496 0.2361 0.82632 0.0
C1255 C 0.37489 0.26339 0.84228 0.0
C1256 C 0.3497 0.27063 0.85654 0.0
C1257 C 0.42075 0.25034 0.81486 0.0
C1258 C 0.41441 0.27155 0.81745 0.0
C1259 C 0.39142 0.27774 0.83114 0.0
C1260 C 0.43096 0.28756 0.80607 0.0
C1261 C 0.4428 0.24232 0.79977 0.0
C1262 C 0.46939 0.28793 0.8026 0.0
C1263 C 0.48459 0.30262 0.79155 0.0
C1264 C 0.46216 0.318 0.78439 0.0
C1265 C 0.42395 0.31813 0.78845 0.0
C1266 C 0.40842 0.30292 0.79896 0.0
H1267 H 0.43432 0.2264 0.79644 0.0
H1268 H 0.43922 0.25204 0.78819 0.0
H1269 H 0.47284 0.24204 0.80323 0.0
H1270 H 0.48778 0.27682 0.8084 0.0
H1271 H 0.51396 0.30184 0.78859 0.0
H1272 H 0.65362 0.17434 0.65424 0.0
H1273 H 0.62563 0.20061 0.67242 0.0
H1274 H 0.66843 0.24762 0.63875 0.0
H1275 H 0.6977 0.22148 0.6207 0.0
H1276 H 0.67336 0.23721 0.68715 0.0
H1277 H 0.5495 0.25696 0.64723 0.0
H1278 H 0.57107 0.23208 0.64614 0.0
H1279 H 0.59394 0.25384 0.63673 0.0
C1280 C 0.65728 0.19026 0.65069 0.0
C1281 C 0.67828 0.19579 0.63608 0.0
C1282 C 0.64105 0.20521 0.66105 0.0
C1283 C 0.64504 0.22596 0.65688 0.0
C1284 C 0.66494 0.23161 0.64207 0.0
H1285 H 0.55689 0.33643 0.70251 0.0
H1286 H 0.58518 0.31074 0.68382 0.0
C1287 C 0.68145 0.21665 0.63174 0.0
C1288 C 0.62978 0.24172 0.66851 0.0
H1289 H 0.55858 0.27559 0.67286 0.0
C1290 C 0.64828 0.24566 0.68409 0.0
C1291 C 0.59727 0.25267 0.66433 0.0
C1292 C 0.57649 0.24874 0.64775 0.0
C1293 C 0.63533 0.26059 0.69559 0.0
C1294 C 0.60229 0.27136 0.6916 0.0
C1295 C 0.58385 0.26733 0.67595 0.0
C1296 C 0.58651 0.28706 0.7033 0.0
C1297 C 0.65783 0.265 0.71163 0.0
C1298 C 0.5778 0.28235 0.7205 0.0
C1299 C 0.56232 0.29716 0.7313 0.0
C1300 C 0.55435 0.31675 0.72493 0.0
C1301 C 0.56266 0.3214 0.70771 0.0
C1302 C 0.57879 0.30673 0.69703 0.0
H1303 H 0.6874 0.26036 0.71008 0.0
H1304 H 0.65722 0.28152 0.71501 0.0
H1305 H 0.64599 0.25613 0.72253 0.0
H1306 H 0.5824 0.26712 0.72552 0.0
H1307 H 0.55565 0.29314 0.74447 0.0
H1308 H 0.87968 0.30297 0.12222 0.0
H1309 H 0.91085 0.27662 0.13949 0.0
H1310 H 0.80908 0.26617 0.1678 0.0
H1311 H 0.77784 0.29242 0.15067 0.0
H1312 H 0.91375 0.27679 0.17889 0.0
H1313 H 0.84678 0.20821 0.14917 0.0
H1314 H 0.85122 0.23238 0.13803 0.0
H1315 H 0.81655 0.22917 0.15447 0.0
C1316 C 0.8639 0.29487 0.132 0.0
C1317 C 0.82635 0.29972 0.13512 0.0
C1318 C 0.88175 0.27995 0.14189 0.0
C1319 C 0.86214 0.26945 0.15483 0.0
C1320 C 0.82457 0.27406 0.1578 0.0
H1321 H 0.93735 0.19906 0.24252 0.0
H1322 H 0.91044 0.22441 0.22316 0.0
C1323 C 0.80685 0.28909 0.14807 0.0
C1324 C 0.88099 0.25399 0.1656 0.0
H1325 H 0.88209 0.20287 0.17451 0.0
C1326 C 0.9071 0.2606 0.1779 0.0
C1327 C 0.87235 0.23293 0.16412 0.0
C1328 C 0.8454 0.2251 0.15067 0.0
C1329 C 0.92432 0.24666 0.18908 0.0
C1330 C 0.9147 0.22562 0.18804 0.0
C1331 C 0.88921 0.21901 0.17541 0.0
C1332 C 0.93078 0.21017 0.19985 0.0
C1333 C 0.95288 0.2546 0.20178 0.0
C1334 C 0.95013 0.19336 0.19318 0.0
C1335 C 0.96486 0.17857 0.2042 0.0
C1336 C 0.9605 0.18028 0.22214 0.0
C1337 C 0.94098 0.19713 0.22878 0.0
C1338 C 0.92598 0.21182 0.21773 0.0
H1339 H 0.96478 0.26957 0.19767 0.0
H1340 H 0.9393 0.25686 0.21447 0.0
H1341 H 0.97604 0.24358 0.20345 0.0
H1342 H 0.95401 0.19172 0.17942 0.0
H1343 H 0.9797 0.16581 0.19861 0.0
H1344 H 0.87779 0.70424 0.61617 0.0
H1345 H 0.90557 0.73127 0.6342 0.0
H1346 H 0.82934 0.71588 0.67519 0.0
H1347 H 0.80143 0.68905 0.65733 0.0
H1348 H 0.87134 0.76556 0.6504 0.0
H1349 H 0.93238 0.71248 0.69832 0.0
H1350 H 0.91621 0.70403 0.67745 0.0
H1351 H 0.88342 0.70852 0.69451 0.0
C1352 C 0.86681 0.70674 0.62898 0.0
C1353 C 0.83773 0.69433 0.6354 0.0
C1354 C 0.88279 0.7221 0.63928 0.0
C1355 C 0.87001 0.72526 0.65615 0.0
C1356 C 0.84026 0.71333 0.66237 0.0
H1357 H 0.92403 0.80483 0.74192 0.0
H1358 H 0.89835 0.77894 0.7224 0.0
C1359 C 0.82436 0.69801 0.65214 0.0
C1360 C 0.88743 0.7411 0.66731 0.0
H1361 H 0.93276 0.7478 0.70563 0.0
C1362 C 0.88505 0.76171 0.66241 0.0
C1363 C 0.90516 0.736 0.683 0.0
C1364 C 0.90982 0.71405 0.6886 0.0
C1365 C 0.89897 0.77744 0.67304 0.0
C1366 C 0.91648 0.77235 0.68881 0.0
C1367 C 0.91921 0.75169 0.69359 0.0
C1368 C 0.93206 0.78817 0.70059 0.0
C1369 C 0.89373 0.79938 0.66751 0.0
C1370 C 0.96 0.80174 0.69495 0.0
C1371 C 0.97438 0.81672 0.70603 0.0
C1372 C 0.96145 0.81828 0.72308 0.0
C1373 C 0.93426 0.80427 0.72886 0.0
C1374 C 0.91963 0.7894 0.71771 0.0
H1375 H 0.87098 0.80082 0.65787 0.0
H1376 H 0.88724 0.80933 0.67869 0.0
H1377 H 0.91987 0.80509 0.6615 0.0
H1378 H 0.97087 0.8007 0.68197 0.0
H1379 H 0.99577 0.82703 0.7012 0.0
H1380 H 0.64669 0.82391 0.1546 0.0
H1381 H 0.62016 0.79648 0.1721 0.0
H1382 H 0.65359 0.75214 0.13407 0.0
H1383 H 0.68233 0.77939 0.11694 0.0
H1384 H 0.56589 0.76908 0.1665 0.0
H1385 H 0.6993 0.72833 0.17681 0.0
H1386 H 0.69739 0.75352 0.16739 0.0
H1387 H 0.68735 0.73121 0.15452 0.0
C1388 C 0.64889 0.80831 0.15002 0.0
C1389 C 0.66732 0.80387 0.13447 0.0
C1390 C 0.63336 0.79264 0.15999 0.0
C1391 C 0.63564 0.77219 0.15461 0.0
C1392 C 0.65241 0.76775 0.13872 0.0
H1393 H 0.55009 0.65927 0.19942 0.0
H1394 H 0.57442 0.68582 0.18009 0.0
C1395 C 0.66834 0.78341 0.1288 0.0
C1396 C 0.62056 0.75563 0.16577 0.0
H1397 H 0.64443 0.71188 0.18709 0.0
C1398 C 0.5831 0.75661 0.17102 0.0
C1399 C 0.64312 0.7394 0.17177 0.0
C1400 C 0.68411 0.7381 0.16749 0.0
C1401 C 0.56756 0.74173 0.18196 0.0
C1402 C 0.59003 0.72548 0.18778 0.0
C1403 C 0.62733 0.72436 0.18249 0.0
C1404 C 0.57531 0.70956 0.1995 0.0
C1405 C 0.52715 0.74332 0.18717 0.0
C1406 C 0.56806 0.71418 0.21681 0.0
C1407 C 0.55422 0.69907 0.22787 0.0
C1408 C 0.54757 0.6791 0.22181 0.0
C1409 C 0.55487 0.67454 0.20445 0.0
C1410 C 0.56885 0.68964 0.19341 0.0
H1411 H 0.51206 0.75502 0.17953 0.0
H1412 H 0.51277 0.72831 0.18559 0.0
H1413 H 0.52552 0.74762 0.20097 0.0
H1414 H 0.57312 0.72948 0.22174 0.0
H1415 H 0.54833 0.7031 0.2411 0.0
H1416 H 0.2993 0.81123 0.34627 0.0
H1417 H 0.32688 0.78486 0.32811 0.0
H1418 H 0.39445 0.7648 0.37074 0.0
H1419 H 0.3673 0.79146 0.38904 0.0
H1420 H 0.40598 0.77993 0.32089 0.0
H1421 H 0.34137 0.71188 0.35241 0.0
H1422 H 0.32321 0.7374 0.3551 0.0
H1423 H 0.36475 0.72993 0.36629 0.0
C1424 C 0.3202 0.80131 0.3518 0.0
C1425 C 0.33127 0.80354 0.3691 0.0
C1426 C 0.33579 0.78619 0.34141 0.0
C1427 C 0.36251 0.77284 0.34811 0.0
C1428 C 0.37347 0.77482 0.3654 0.0
H1429 H 0.47814 0.66928 0.30464 0.0
H1430 H 0.45338 0.69607 0.323 0.0
C1431 C 0.3579 0.79001 0.37584 0.0
C1432 C 0.37931 0.75716 0.33678 0.0
H1433 H 0.38369 0.70567 0.32985 0.0
C1434 C 0.40118 0.76367 0.32282 0.0
C1435 C 0.37302 0.73602 0.3394 0.0
C1436 C 0.34912 0.72828 0.35402 0.0
C1437 C 0.41743 0.74955 0.31148 0.0
C1438 C 0.41064 0.72836 0.3139 0.0
C1439 C 0.38879 0.7219 0.32794 0.0
C1440 C 0.42649 0.71253 0.30232 0.0
C1441 C 0.44246 0.7575 0.29733 0.0
C1442 C 0.41964 0.71278 0.2845 0.0
C1443 C 0.43437 0.69756 0.27382 0.0
C1444 C 0.45546 0.68153 0.28084 0.0
C1445 C 0.46196 0.6813 0.29872 0.0
C1446 C 0.44773 0.69663 0.3093 0.0
H1447 H 0.45361 0.77301 0.30037 0.0
H1448 H 0.46632 0.7471 0.29508 0.0
H1449 H 0.42615 0.75863 0.28522 0.0
H1450 H 0.4026 0.72462 0.27884 0.0
H1451 H 0.42901 0.69832 0.26011 0.0
H1452 H 0.19704 0.72014 0.88416 0.0
H1453 H 0.16795 0.74648 0.86629 0.0
H1454 H 0.12303 0.69964 0.83284 0.0
H1455 H 0.15048 0.67329 0.85097 0.0
H1456 H 0.18127 0.75469 0.83233 0.0
H1457 H 0.03211 0.73424 0.84121 0.0
H1458 H 0.06843 0.72417 0.85482 0.0
H1459 H 0.0596 0.7131 0.83397 0.0
C1460 C 0.18031 0.71543 0.87321 0.0
C1461 C 0.1762 0.69457 0.869 0.0
C1462 C 0.16395 0.73051 0.86293 0.0
C1463 C 0.14296 0.72504 0.84831 0.0
C1464 C 0.13848 0.70425 0.84421 0.0
H1465 H 0.0616 0.79456 0.76046 0.0
H1466 H 0.08847 0.76838 0.77936 0.0
C1467 C 0.15466 0.68919 0.85449 0.0
C1468 C 0.12723 0.74103 0.83689 0.0
H1469 H 0.04622 0.75758 0.81845 0.0
C1470 C 0.15171 0.75538 0.82939 0.0
C1471 C 0.08862 0.74196 0.83305 0.0
C1472 C 0.06061 0.72767 0.84131 0.0
C1473 C 0.13867 0.77037 0.81796 0.0
C1474 C 0.10031 0.77099 0.81394 0.0
C1475 C 0.07573 0.75683 0.82148 0.0
C1476 C 0.08498 0.78683 0.80242 0.0
C1477 C 0.16578 0.78551 0.81018 0.0
C1478 C 0.07424 0.80574 0.80922 0.0
C1479 C 0.05892 0.82065 0.79852 0.0
C1480 C 0.0542 0.81694 0.7808 0.0
C1481 C 0.06518 0.79795 0.77402 0.0
C1482 C 0.0804 0.78298 0.78477 0.0
H1483 H 0.19508 0.78248 0.81404 0.0
H1484 H 0.16377 0.78497 0.79591 0.0
H1485 H 0.15837 0.80125 0.81428 0.0
H1486 H 0.07758 0.80892 0.82283 0.0
H1487 H 0.05086 0.83513 0.80416 0.0
loop_
_geom_bond_atom_site_label_1
_geom_bond_atom_site_label_2
_geom_bond_distance
_geom_bond_site_symmetry_2
_ccdc_geom_bond_type
C0 C1 1.384 . S
C0 H13 0.947 . S
C0 C35 1.382 . S
C1 C0 1.384 . S
C1 C2 1.378 . S
C2 C1 1.378 . S
C2 C3 1.378 . S
C2 H14 0.952 . S
C3 C2 1.378 . S
C3 H15 0.950 . S
C3 C34 1.383 . S
H4 C23 0.947 . S
H5 C24 0.946 . S
H6 C26 0.953 . S
H7 C27 0.945 . S
H8 C29 0.952 . S
H9 C30 0.949 . S
H10 C32 0.950 . S
H11 C33 0.948 . S
H12 C35 0.951 . S
H13 C0 0.947 . S
H14 C2 0.952 . S
H15 C3 0.950 . S
N16 C19 1.382 . S
N16 C21 1.363 . S
N17 C19 1.371 . S
N17 C20 1.372 . S
N18 C20 1.361 . S
N18 C21 1.377 . S
C19 N16 1.382 . S
C19 N17 1.371 . S
C19 C22 1.480 . S
C20 N17 1.372 . S
C20 N18 1.361 . S
C20 C28 1.457 . S
C21 N16 1.363 . S
C21 N18 1.377 . S
C21 C34 1.479 . S
C22 C19 1.480 . S
C22 C23 1.383 . S
C22 C27 1.385 . S
C23 H4 0.947 . S
C23 C22 1.383 . S
C23 C24 1.388 . S
C24 H5 0.946 . S
C24 C23 1.388 . S
C24 C25 1.384 . S
C25 C24 1.384 . S
C25 C26 1.377 . S
C26 H6 0.953 . S
C26 C25 1.377 . S
C26 C27 1.369 . S
C27 H7 0.945 . S
C27 C22 1.385 . S
C27 C26 1.369 . S
C28 C20 1.457 . S
C28 C29 1.372 . S
C28 C33 1.364 . S
C29 H8 0.952 . S
C29 C28 1.372 . S
C29 C30 1.389 . S
C30 H9 0.949 . S
C30 C29 1.389 . S
C30 C31 1.387 . S
C31 C30 1.387 . S
C31 C32 1.372 . S
C32 H10 0.950 . S
C32 C31 1.372 . S
C32 C33 1.379 . S
C33 H11 0.948 . S
C33 C28 1.364 . S
C33 C32 1.379 . S
C34 C3 1.383 . S
C34 C21 1.479 . S
C34 C35 1.398 . S
C35 C0 1.382 . S
C35 H12 0.951 . S
C35 C34 1.398 . S
C36 C37 1.384 . S
C36 H49 0.947 . S
C36 C71 1.382 . S
C37 C36 1.384 . S
C37 C38 1.378 . S
C38 C37 1.378 . S
C38 C39 1.378 . S
C38 H50 0.952 . S
C39 C38 1.378 . S
C39 H51 0.950 . S
C39 C70 1.383 . S
H40 C59 0.947 . S
H41 C60 0.946 . S
H42 C62 0.953 . S
H43 C63 0.945 . S
H44 C65 0.952 . S
H45 C66 0.949 . S
H46 C68 0.950 . S
H47 C69 0.948 . S
H48 C71 0.951 . S
H49 C36 0.947 . S
H50 C38 0.952 . S
H51 C39 0.950 . S
N52 C55 1.382 . S
N52 C57 1.363 . S
N53 C55 1.371 . S
N53 C56 1.372 . S
N54 C56 1.361 . S
N54 C57 1.377 . S
C55 N52 1.382 . S
C55 N53 1.371 . S
C55 C58 1.480 . S
C56 N53 1.372 . S
C56 N54 1.361 . S
C56 C64 1.457 . S
C57 N52 1.363 . S
C57 N54 1.377 . S
C57 C70 1.479 . S
C58 C55 1.480 . S
C58 C59 1.383 . S
C58 C63 1.385 . S
C59 H40 0.947 . S
C59 C58 1.383 . S
C59 C60 1.388 . S
C60 H41 0.946 . S
C60 C59 1.388 . S
C60 C61 1.384 . S
C61 C60 1.384 . S
C61 C62 1.377 . S
C62 H42 0.953 . S
C62 C61 1.377 . S
C62 C63 1.369 . S
C63 H43 0.945 . S
C63 C58 1.385 . S
C63 C62 1.369 . S
C64 C56 1.457 . S
C64 C65 1.372 . S
C64 C69 1.364 . S
C65 H44 0.952 . S
C65 C64 1.372 . S
C65 C66 1.389 . S
C66 H45 0.949 . S
C66 C65 1.389 . S
C66 C67 1.387 . S
C67 C66 1.387 . S
C67 C68 1.372 . S
C68 H46 0.950 . S
C68 C67 1.372 . S
C68 C69 1.379 . S
C69 H47 0.948 . S
C69 C64 1.364 . S
C69 C68 1.379 . S
C70 C39 1.383 . S
C70 C57 1.479 . S
C70 C71 1.398 . S
C71 C36 1.382 . S
C71 H48 0.951 . S
C71 C70 1.398 . S
C72 C73 1.384 . S
C72 H85 0.947 . S
C72 C107 1.382 . S
C73 C72 1.384 . S
C73 C74 1.378 . S
C74 C73 1.378 . S
C74 C75 1.378 . S
C74 H86 0.952 . S
C75 C74 1.378 . S
C75 H87 0.950 . S
C75 C106 1.383 . S
H76 C95 0.947 . S
H77 C96 0.946 . S
H78 C98 0.953 . S
H79 C99 0.945 . S
H80 C101 0.952 . S
H81 C102 0.949 . S
H82 C104 0.950 . S
H83 C105 0.948 . S
H84 C107 0.951 . S
H85 C72 0.947 . S
H86 C74 0.952 . S
H87 C75 0.950 . S
N88 C91 1.382 . S
N88 C93 1.363 . S
N89 C91 1.371 . S
N89 C92 1.372 . S
N90 C92 1.361 . S
N90 C93 1.377 . S
C91 N88 1.382 . S
C91 N89 1.371 . S
C91 C94 1.480 . S
C92 N89 1.372 . S
C92 N90 1.361 . S
C92 C100 1.457 . S
C93 N88 1.363 . S
C93 N90 1.377 . S
C93 C106 1.479 . S
C94 C91 1.480 . S
C94 C95 1.383 . S
C94 C99 1.385 . S
C95 H76 0.947 . S
C95 C94 1.383 . S
C95 C96 1.388 . S
C96 H77 0.946 . S
C96 C95 1.388 . S
C96 C97 1.384 . S
C97 C96 1.384 . S
C97 C98 1.377 . S
C98 H78 0.953 . S
C98 C97 1.377 . S
C98 C99 1.369 . S
C99 H79 0.945 . S
C99 C94 1.385 . S
C99 C98 1.369 . S
C100 C92 1.457 . S
C100 C101 1.372 . S
C100 C105 1.364 . S
C101 H80 0.952 . S
C101 C100 1.372 . S
C101 C102 1.389 . S
C102 H81 0.949 . S
C102 C101 1.389 . S
C102 C103 1.387 . S
C103 C102 1.387 . S
C103 C104 1.372 . S
C104 H82 0.950 . S
C104 C103 1.372 . S
C104 C105 1.379 . S
C105 H83 0.948 . S
C105 C100 1.364 . S
C105 C104 1.379 . S
C106 C75 1.383 . S
C106 C93 1.479 . S
C106 C107 1.398 . S
C107 C72 1.382 . S
C107 H84 0.951 . S
C107 C106 1.398 . S
C108 C109 1.384 . S
C108 H121 0.947 . S
C108 C143 1.382 . S
C109 C108 1.384 . S
C109 C110 1.378 . S
C110 C109 1.378 . S
C110 C111 1.378 . S
C110 H122 0.952 . S
C111 C110 1.378 . S
C111 H123 0.950 . S
C111 C142 1.383 . S
H112 C131 0.947 . S
H113 C132 0.946 . S
H114 C134 0.953 . S
H115 C135 0.945 . S
H116 C137 0.952 . S
H117 C138 0.949 . S
H118 C140 0.950 . S
H119 C141 0.948 . S
H120 C143 0.951 . S
H121 C108 0.947 . S
H122 C110 0.952 . S
H123 C111 0.950 . S
N124 C127 1.382 . S
N124 C129 1.363 . S
N125 C127 1.371 . S
N125 C128 1.372 . S
N126 C128 1.361 . S
N126 C129 1.377 . S
C127 N124 1.382 . S
C127 N125 1.371 . S
C127 C130 1.480 . S
C128 N125 1.372 . S
C128 N126 1.361 . S
C128 C136 1.457 . S
C129 N124 1.363 . S
C129 N126 1.377 . S
C129 C142 1.479 . S
C130 C127 1.480 . S
C130 C131 1.383 . S
C130 C135 1.385 . S
C131 H112 0.947 . S
C131 C130 1.383 . S
C131 C132 1.388 . S
C132 H113 0.946 . S
C132 C131 1.388 . S
C132 C133 1.384 . S
C133 C132 1.384 . S
C133 C134 1.377 . S
C134 H114 0.953 . S
C134 C133 1.377 . S
C134 C135 1.369 . S
C135 H115 0.945 . S
C135 C130 1.385 . S
C135 C134 1.369 . S
C136 C128 1.457 . S
C136 C137 1.372 . S
C136 C141 1.364 . S
C137 H116 0.952 . S
C137 C136 1.372 . S
C137 C138 1.389 . S
C138 H117 0.949 . S
C138 C137 1.389 . S
C138 C139 1.387 . S
C139 C138 1.387 . S
C139 C140 1.372 . S
C140 H118 0.950 . S
C140 C139 1.372 . S
C140 C141 1.379 . S
C141 H119 0.948 . S
C141 C136 1.364 . S
C141 C140 1.379 . S
C142 C111 1.383 . S
C142 C129 1.479 . S
C142 C143 1.398 . S
C143 C108 1.382 . S
C143 H120 0.951 . S
C143 C142 1.398 . S
C144 C145 1.384 . S
C144 H157 0.947 . S
C144 C179 1.382 . S
C145 C144 1.384 . S
C145 C146 1.378 . S
C146 C145 1.378 . S
C146 C147 1.378 . S
C146 H158 0.952 . S
C147 C146 1.378 . S
C147 H159 0.950 . S
C147 C178 1.383 . S
H148 C167 0.947 . S
H149 C168 0.946 . S
H150 C170 0.953 . S
H151 C171 0.945 . S
H152 C173 0.952 . S
H153 C174 0.949 . S
H154 C176 0.950 . S
H155 C177 0.948 . S
H156 C179 0.951 . S
H157 C144 0.947 . S
H158 C146 0.952 . S
H159 C147 0.950 . S
N160 C163 1.382 . S
N160 C165 1.363 . S
N161 C163 1.371 . S
N161 C164 1.372 . S
N162 C164 1.361 . S
N162 C165 1.377 . S
C163 N160 1.382 . S
C163 N161 1.371 . S
C163 C166 1.480 . S
C164 N161 1.372 . S
C164 N162 1.361 . S
C164 C172 1.457 . S
C165 N160 1.363 . S
C165 N162 1.377 . S
C165 C178 1.479 . S
C166 C163 1.480 . S
C166 C167 1.383 . S
C166 C171 1.385 . S
C167 H148 0.947 . S
C167 C166 1.383 . S
C167 C168 1.388 . S
C168 H149 0.946 . S
C168 C167 1.388 . S
C168 C169 1.384 . S
C169 C168 1.384 . S
C169 C170 1.377 . S
C170 H150 0.953 . S
C170 C169 1.377 . S
C170 C171 1.369 . S
C171 H151 0.945 . S
C171 C166 1.385 . S
C171 C170 1.369 . S
C172 C164 1.457 . S
C172 C173 1.372 . S
C172 C177 1.364 . S
C173 H152 0.952 . S
C173 C172 1.372 . S
C173 C174 1.389 . S
C174 H153 0.949 . S
C174 C173 1.389 . S
C174 C175 1.387 . S
C175 C174 1.387 . S
C175 C176 1.372 . S
C176 H154 0.950 . S
C176 C175 1.372 . S
C176 C177 1.379 . S
C177 H155 0.948 . S
C177 C172 1.364 . S
C177 C176 1.379 . S
C178 C147 1.383 . S
C178 C165 1.479 . S
C178 C179 1.398 . S
C179 C144 1.382 . S
C179 H156 0.951 . S
C179 C178 1.398 . S
C180 C181 1.384 . S
C180 H193 0.947 . S
C180 C215 1.382 . S
C181 C180 1.384 . S
C181 C182 1.378 . S
C182 C181 1.378 . S
C182 C183 1.378 . S
C182 H194 0.952 . S
C183 C182 1.378 . S
C183 H195 0.950 . S
C183 C214 1.383 . S
H184 C203 0.947 . S
H185 C204 0.946 . S
H186 C206 0.953 . S
H187 C207 0.945 . S
H188 C209 0.952 . S
H189 C210 0.949 . S
H190 C212 0.950 . S
H191 C213 0.948 . S
H192 C215 0.951 . S
H193 C180 0.947 . S
H194 C182 0.952 . S
H195 C183 0.950 . S
N196 C199 1.382 . S
N196 C201 1.363 . S
N197 C199 1.371 . S
N197 C200 1.372 . S
N198 C200 1.361 . S
N198 C201 1.377 . S
C199 N196 1.382 . S
C199 N197 1.371 . S
C199 C202 1.480 . S
C200 N197 1.372 . S
C200 N198 1.361 . S
C200 C208 1.457 . S
C201 N196 1.363 . S
C201 N198 1.377 . S
C201 C214 1.479 . S
C202 C199 1.480 . S
C202 C203 1.383 . S
C202 C207 1.385 . S
C203 H184 0.947 . S
C203 C202 1.383 . S
C203 C204 1.388 . S
C204 H185 0.946 . S
C204 C203 1.388 . S
C204 C205 1.384 . S
C205 C204 1.384 . S
C205 C206 1.377 . S
C206 H186 0.953 . S
C206 C205 1.377 . S
C206 C207 1.369 . S
C207 H187 0.945 . S
C207 C202 1.385 . S
C207 C206 1.369 . S
C208 C200 1.457 . S
C208 C209 1.372 . S
C208 C213 1.364 . S
C209 H188 0.952 . S
C209 C208 1.372 . S
C209 C210 1.389 . S
C210 H189 0.949 . S
C210 C209 1.389 . S
C210 C211 1.387 . S
C211 C210 1.387 . S
C211 C212 1.372 . S
C212 H190 0.950 . S
C212 C211 1.372 . S
C212 C213 1.379 . S
C213 H191 0.948 . S
C213 C208 1.364 . S
C213 C212 1.379 . S
C214 C183 1.383 . S
C214 C201 1.479 . S
C214 C215 1.398 . S
C215 C180 1.382 . S
C215 H192 0.951 . S
C215 C214 1.398 . S
C216 C217 1.384 . S
C216 H229 0.947 . S
C216 C251 1.382 . S
C217 C216 1.384 . S
C217 C218 1.378 . S
C218 C217 1.378 . S
C218 C219 1.378 . S
C218 H230 0.952 . S
C219 C218 1.378 . S
C219 H231 0.950 . S
C219 C250 1.383 . S
H220 C239 0.947 . S
H221 C240 0.946 . S
H222 C242 0.953 . S
H223 C243 0.945 . S
H224 C245 0.952 . S
H225 C246 0.949 . S
H226 C248 0.950 . S
H227 C249 0.948 . S
H228 C251 0.951 . S
H229 C216 0.947 . S
H230 C218 0.952 . S
H231 C219 0.950 . S
N232 C235 1.382 . S
N232 C237 1.363 . S
N233 C235 1.371 . S
N233 C236 1.372 . S
N234 C236 1.361 . S
N234 C237 1.377 . S
C235 N232 1.382 . S
C235 N233 1.371 . S
C235 C238 1.480 . S
C236 N233 1.372 . S
C236 N234 1.361 . S
C236 C244 1.457 . S
C237 N232 1.363 . S
C237 N234 1.377 . S
C237 C250 1.479 . S
C238 C235 1.480 . S
C238 C239 1.383 . S
C238 C243 1.385 . S
C239 H220 0.947 . S
C239 C238 1.383 . S
C239 C240 1.388 . S
C240 H221 0.946 . S
C240 C239 1.388 . S
C240 C241 1.384 . S
C241 C240 1.384 . S
C241 C242 1.377 . S
C242 H222 0.953 . S
C242 C241 1.377 . S
C242 C243 1.369 . S
C243 H223 0.945 . S
C243 C238 1.385 . S
C243 C242 1.369 . S
C244 C236 1.457 . S
C244 C245 1.372 . S
C244 C249 1.364 . S
C245 H224 0.952 . S
C245 C244 1.372 . S
C245 C246 1.389 . S
C246 H225 0.949 . S
C246 C245 1.389 . S
C246 C247 1.387 . S
C247 C246 1.387 . S
C247 C248 1.372 . S
C248 H226 0.950 . S
C248 C247 1.372 . S
C248 C249 1.379 . S
C249 H227 0.948 . S
C249 C244 1.364 . S
C249 C248 1.379 . S
C250 C219 1.383 . S
C250 C237 1.479 . S
C250 C251 1.398 . S
C251 C216 1.382 . S
C251 H228 0.951 . S
C251 C250 1.398 . S
C252 C253 1.384 . S
C252 H265 0.947 . S
C252 C287 1.382 . S
C253 C252 1.384 . S
C253 C254 1.378 . S
C254 C253 1.378 . S
C254 C255 1.378 . S
C254 H266 0.952 . S
C255 C254 1.378 . S
C255 H267 0.950 . S
C255 C286 1.383 . S
H256 C275 0.947 . S
H257 C276 0.946 . S
H258 C278 0.953 . S
H259 C279 0.945 . S
H260 C281 0.952 . S
H261 C282 0.949 . S
H262 C284 0.950 . S
H263 C285 0.948 . S
H264 C287 0.951 . S
H265 C252 0.947 . S
H266 C254 0.952 . S
H267 C255 0.950 . S
N268 C271 1.382 . S
N268 C273 1.363 . S
N269 C271 1.371 . S
N269 C272 1.372 . S
N270 C272 1.361 . S
N270 C273 1.377 . S
C271 N268 1.382 . S
C271 N269 1.371 . S
C271 C274 1.480 . S
C272 N269 1.372 . S
C272 N270 1.361 . S
C272 C280 1.457 . S
C273 N268 1.363 . S
C273 N270 1.377 . S
C273 C286 1.479 . S
C274 C271 1.480 . S
C274 C275 1.383 . S
C274 C279 1.385 . S
C275 H256 0.947 . S
C275 C274 1.383 . S
C275 C276 1.388 . S
C276 H257 0.946 . S
C276 C275 1.388 . S
C276 C277 1.384 . S
C277 C276 1.384 . S
C277 C278 1.377 . S
C278 H258 0.953 . S
C278 C277 1.377 . S
C278 C279 1.369 . S
C279 H259 0.945 . S
C279 C274 1.385 . S
C279 C278 1.369 . S
C280 C272 1.457 . S
C280 C281 1.372 . S
C280 C285 1.364 . S
C281 H260 0.952 . S
C281 C280 1.372 . S
C281 C282 1.389 . S
C282 H261 0.949 . S
C282 C281 1.389 . S
C282 C283 1.387 . S
C283 C282 1.387 . S
C283 C284 1.372 . S
C284 H262 0.950 . S
C284 C283 1.372 . S
C284 C285 1.379 . S
C285 H263 0.948 . S
C285 C280 1.364 . S
C285 C284 1.379 . S
C286 C255 1.383 . S
C286 C273 1.479 . S
C286 C287 1.398 . S
C287 C252 1.382 . S
C287 H264 0.951 . S
C287 C286 1.398 . S
Eu288 N317 2.600 . S
Eu288 N323 2.562 . S
Eu288 O332 2.462 . S
Eu288 O333 2.373 . S
Eu288 O335 2.432 . S
Eu288 O336 2.291 . S
Eu288 O340 2.335 . S
Eu288 O343 2.372 . S
Eu288 C352 2.787 . S
C289 N290 1.365 . S
C289 C292 1.405 . S
C289 C296 1.448 . S
N290 C289 1.365 . S
N290 C293 1.319 . S
N290 Eu299 2.600 . S
C291 C293 1.397 . S
C291 C294 1.367 . S
C291 H311 0.931 . S
C292 C289 1.405 . S
C292 C294 1.403 . S
C292 C298 1.439 . S
C293 N290 1.319 . S
C293 C291 1.397 . S
C293 H304 0.930 . S
C294 C291 1.367 . S
C294 C292 1.403 . S
C294 H315 0.929 . S
C295 C296 1.430 . S
C295 C297 1.387 . S
C295 C301 1.404 . S
C296 C289 1.448 . S
C296 C295 1.430 . S
C296 N300 1.351 . S
C297 C295 1.387 . S
C297 C298 1.374 . S
C297 H312 0.931 . S
C298 C292 1.439 . S
C298 C297 1.374 . S
C298 H313 0.931 . S
Eu299 N290 2.600 . S
Eu299 N300 2.562 . S
Eu299 O334 2.335 1_655 S
Eu299 O337 2.372 . S
Eu299 O338 2.462 . S
Eu299 O339 2.373 . S
Eu299 O341 2.432 . S
Eu299 O342 2.291 1_655 S
Eu299 C363 2.787 . S
N300 C296 1.351 . S
N300 Eu299 2.562 . S
N300 C302 1.325 . S
C301 C295 1.404 . S
C301 C303 1.366 . S
C301 H309 0.930 . S
C302 N300 1.325 . S
C302 C303 1.416 . S
C302 H308 0.929 . S
C303 C301 1.366 . S
C303 C302 1.416 . S
C303 H305 0.930 . S
H304 C293 0.930 . S
H305 C303 0.930 . S
H306 C321 0.930 . S
H307 C328 0.930 . S
H308 C302 0.929 . S
H309 C301 0.930 . S
H310 C324 0.929 . S
H311 C291 0.931 . S
H312 C297 0.931 . S
H313 C298 0.931 . S
H314 C319 0.931 . S
H315 C294 0.929 . S
H316 C327 0.930 . S
N317 Eu288 2.600 . S
N317 C318 1.365 . S
N317 C321 1.319 . S
C318 N317 1.365 . S
C318 C320 1.405 . S
C318 C326 1.448 . S
C319 H314 0.931 . S
C319 C321 1.397 . S
C319 C322 1.367 . S
C320 C318 1.405 . S
C320 C322 1.403 . S
C320 C353 1.439 . S
C321 H306 0.930 . S
C321 N317 1.319 . S
C321 C319 1.397 . S
C322 C319 1.367 . S
C322 C320 1.403 . S
C322 H329 0.929 . S
N323 Eu288 2.562 . S
N323 C324 1.325 . S
N323 C326 1.351 . S
C324 H310 0.929 . S
C324 N323 1.325 . S
C324 C328 1.416 . S
C325 C326 1.430 . S
C325 C327 1.404 . S
C325 C354 1.387 . S
C326 C318 1.448 . S
C326 N323 1.351 . S
C326 C325 1.430 . S
C327 H316 0.930 . S
C327 C325 1.404 . S
C327 C328 1.366 . S
C328 H307 0.930 . S
C328 C324 1.416 . S
C328 C327 1.366 . S
H329 C322 0.929 . S
H330 C353 0.931 . S
H331 C354 0.931 . S
O332 Eu288 2.462 . S
O332 C352 1.252 . S
O333 Eu288 2.373 . S
O333 C344 1.249 . S
O334 Eu299 2.335 1_455 S
O334 C344 1.264 . S
O335 Eu288 2.432 . S
O335 C352 1.268 . S
O336 Eu288 2.291 . S
O336 C351 1.255 1_455 S
O337 Eu299 2.372 . S
O337 C351 1.257 . S
O338 Eu299 2.462 . S
O338 C363 1.252 . S
O339 Eu299 2.373 . S
O339 C355 1.249 . S
O340 Eu288 2.335 . S
O340 C355 1.264 1_455 S
O341 Eu299 2.432 . S
O341 C363 1.268 . S
O342 Eu299 2.291 1_455 S
O342 C362 1.255 . S
O343 Eu288 2.372 . S
O343 C362 1.257 . S
C344 O333 1.249 . S
C344 O334 1.264 . S
C345 C348 1.382 . S
C345 C350 1.390 . S
C345 C352 1.506 . S
C346 C347 1.398 . S
C346 C350 1.392 . S
C347 C346 1.398 . S
C347 C349 1.372 . S
C347 H364 0.931 . S
C348 C345 1.382 . S
C348 C349 1.390 . S
C348 H365 0.931 . S
C349 C347 1.372 . S
C349 C348 1.390 . S
C349 H366 0.929 . S
C350 C345 1.390 . S
C350 C346 1.392 . S
C350 H367 0.930 . S
C351 O336 1.255 1_655 S
C351 O337 1.257 . S
C352 Eu288 2.787 . S
C352 O332 1.252 . S
C352 O335 1.268 . S
C352 C345 1.506 . S
C353 C320 1.439 . S
C353 H330 0.931 . S
C353 C354 1.374 . S
C354 C325 1.387 . S
C354 H331 0.931 . S
C354 C353 1.374 . S
C355 O339 1.249 . S
C355 O340 1.264 1_655 S
C356 C359 1.382 . S
C356 C360 1.390 . S
C356 C363 1.506 . S
C357 C358 1.398 . S
C357 C360 1.392 . S
C358 C357 1.398 . S
C358 C361 1.372 . S
C358 H368 0.931 . S
C359 C356 1.382 . S
C359 C361 1.390 . S
C359 H369 0.931 . S
C360 C356 1.390 . S
C360 C357 1.392 . S
C360 H370 0.930 . S
C361 C358 1.372 . S
C361 C359 1.390 . S
C361 H371 0.929 . S
C362 O342 1.255 . S
C362 O343 1.257 . S
C363 Eu299 2.787 . S
C363 O338 1.252 . S
C363 O341 1.268 . S
C363 C356 1.506 . S
H364 C347 0.931 . S
H365 C348 0.931 . S
H366 C349 0.929 . S
H367 C350 0.930 . S
H368 C358 0.931 . S
H369 C359 0.931 . S
H370 C360 0.930 . S
H371 C361 0.929 . S
Eu372 N401 2.600 . S
Eu372 N407 2.562 . S
Eu372 O416 2.462 . S
Eu372 O417 2.373 . S
Eu372 O419 2.432 . S
Eu372 O420 2.291 . S
Eu372 O424 2.335 . S
Eu372 O427 2.372 . S
Eu372 C436 2.787 . S
C373 N374 1.365 . S
C373 C376 1.405 . S
C373 C380 1.448 . S
N374 C373 1.365 . S
N374 C377 1.319 . S
N374 Eu383 2.600 . S
C375 C377 1.397 . S
C375 C378 1.367 . S
C375 H395 0.931 . S
C376 C373 1.405 . S
C376 C378 1.403 . S
C376 C382 1.439 . S
C377 N374 1.319 . S
C377 C375 1.397 . S
C377 H388 0.930 . S
C378 C375 1.367 . S
C378 C376 1.403 . S
C378 H399 0.929 . S
C379 C380 1.430 . S
C379 C381 1.387 . S
C379 C385 1.404 . S
C380 C373 1.448 . S
C380 C379 1.430 . S
C380 N384 1.351 . S
C381 C379 1.387 . S
C381 C382 1.374 . S
C381 H396 0.931 . S
C382 C376 1.439 . S
C382 C381 1.374 . S
C382 H397 0.931 . S
Eu383 N374 2.600 . S
Eu383 N384 2.562 . S
Eu383 O418 2.335 . S
Eu383 O421 2.372 . S
Eu383 O422 2.462 . S
Eu383 O423 2.373 . S
Eu383 O425 2.432 . S
Eu383 O426 2.291 . S
Eu383 C447 2.787 . S
N384 C380 1.351 . S
N384 Eu383 2.562 . S
N384 C386 1.325 . S
C385 C379 1.404 . S
C385 C387 1.366 . S
C385 H393 0.930 . S
C386 N384 1.325 . S
C386 C387 1.416 . S
C386 H392 0.929 . S
C387 C385 1.366 . S
C387 C386 1.416 . S
C387 H389 0.930 . S
H388 C377 0.930 . S
H389 C387 0.930 . S
H390 C405 0.930 . S
H391 C412 0.930 . S
H392 C386 0.929 . S
H393 C385 0.930 . S
H394 C408 0.929 . S
H395 C375 0.931 . S
H396 C381 0.931 . S
H397 C382 0.931 . S
H398 C403 0.931 . S
H399 C378 0.929 . S
H400 C411 0.930 . S
N401 Eu372 2.600 . S
N401 C402 1.365 . S
N401 C405 1.319 . S
C402 N401 1.365 . S
C402 C404 1.405 . S
C402 C410 1.448 . S
C403 H398 0.931 . S
C403 C405 1.397 . S
C403 C406 1.367 . S
C404 C402 1.405 . S
C404 C406 1.403 . S
C404 C437 1.439 . S
C405 H390 0.930 . S
C405 N401 1.319 . S
C405 C403 1.397 . S
C406 C403 1.367 . S
C406 C404 1.403 . S
C406 H413 0.929 . S
N407 Eu372 2.562 . S
N407 C408 1.325 . S
N407 C410 1.351 . S
C408 H394 0.929 . S
C408 N407 1.325 . S
C408 C412 1.416 . S
C409 C410 1.430 . S
C409 C411 1.404 . S
C409 C438 1.387 . S
C410 C402 1.448 . S
C410 N407 1.351 . S
C410 C409 1.430 . S
C411 H400 0.930 . S
C411 C409 1.404 . S
C411 C412 1.366 . S
C412 H391 0.930 . S
C412 C408 1.416 . S
C412 C411 1.366 . S
H413 C406 0.929 . S
H414 C437 0.931 . S
H415 C438 0.931 . S
O416 Eu372 2.462 . S
O416 C436 1.252 . S
O417 Eu372 2.373 . S
O417 C428 1.249 . S
O418 Eu383 2.335 . S
O418 C428 1.264 . S
O419 Eu372 2.432 . S
O419 C436 1.268 . S
O420 Eu372 2.291 . S
O420 C435 1.255 . S
O421 Eu383 2.372 . S
O421 C435 1.257 . S
O422 Eu383 2.462 . S
O422 C447 1.252 . S
O423 Eu383 2.373 . S
O423 C439 1.249 . S
O424 Eu372 2.335 . S
O424 C439 1.264 . S
O425 Eu383 2.432 . S
O425 C447 1.268 . S
O426 Eu383 2.291 . S
O426 C446 1.255 . S
O427 Eu372 2.372 . S
O427 C446 1.257 . S
C428 O417 1.249 . S
C428 O418 1.264 . S
C429 C432 1.382 . S
C429 C434 1.390 . S
C429 C436 1.506 . S
C430 C431 1.398 . S
C430 C434 1.392 . S
C431 C430 1.398 . S
C431 C433 1.372 . S
C431 H448 0.931 . S
C432 C429 1.382 . S
C432 C433 1.390 . S
C432 H449 0.931 . S
C433 C431 1.372 . S
C433 C432 1.390 . S
C433 H450 0.929 . S
C434 C429 1.390 . S
C434 C430 1.392 . S
C434 H451 0.930 . S
C435 O420 1.255 . S
C435 O421 1.257 . S
C436 Eu372 2.787 . S
C436 O416 1.252 . S
C436 O419 1.268 . S
C436 C429 1.506 . S
C437 C404 1.439 . S
C437 H414 0.931 . S
C437 C438 1.374 . S
C438 C409 1.387 . S
C438 H415 0.931 . S
C438 C437 1.374 . S
C439 O423 1.249 . S
C439 O424 1.264 . S
C440 C443 1.382 . S
C440 C444 1.390 . S
C440 C447 1.506 . S
C441 C442 1.398 . S
C441 C444 1.392 . S
C442 C441 1.398 . S
C442 C445 1.372 . S
C442 H452 0.931 . S
C443 C440 1.382 . S
C443 C445 1.390 . S
C443 H453 0.931 . S
C444 C440 1.390 . S
C444 C441 1.392 . S
C444 H454 0.930 . S
C445 C442 1.372 . S
C445 C443 1.390 . S
C445 H455 0.929 . S
C446 O426 1.255 . S
C446 O427 1.257 . S
C447 Eu383 2.787 . S
C447 O422 1.252 . S
C447 O425 1.268 . S
C447 C440 1.506 . S
H448 C431 0.931 . S
H449 C432 0.931 . S
H450 C433 0.929 . S
H451 C434 0.930 . S
H452 C442 0.931 . S
H453 C443 0.931 . S
H454 C444 0.930 . S
H455 C445 0.929 . S
Eu456 N485 2.600 . S
Eu456 N491 2.562 . S
Eu456 O500 2.462 . S
Eu456 O501 2.373 . S
Eu456 O503 2.432 . S
Eu456 O504 2.291 . S
Eu456 O508 2.335 . S
Eu456 O511 2.372 . S
Eu456 C520 2.787 . S
C457 N458 1.365 . S
C457 C460 1.405 . S
C457 C464 1.448 . S
N458 C457 1.365 . S
N458 C461 1.319 . S
N458 Eu467 2.600 . S
C459 C461 1.397 . S
C459 C462 1.367 . S
C459 H479 0.931 . S
C460 C457 1.405 . S
C460 C462 1.403 . S
C460 C466 1.439 . S
C461 N458 1.319 . S
C461 C459 1.397 . S
C461 H472 0.930 . S
C462 C459 1.367 . S
C462 C460 1.403 . S
C462 H483 0.929 . S
C463 C464 1.430 . S
C463 C465 1.387 . S
C463 C469 1.404 . S
C464 C457 1.448 . S
C464 C463 1.430 . S
C464 N468 1.351 . S
C465 C463 1.387 . S
C465 C466 1.374 . S
C465 H480 0.931 . S
C466 C460 1.439 . S
C466 C465 1.374 . S
C466 H481 0.931 . S
Eu467 N458 2.600 . S
Eu467 N468 2.562 . S
Eu467 O502 2.335 1_655 S
Eu467 O505 2.372 . S
Eu467 O506 2.462 . S
Eu467 O507 2.373 . S
Eu467 O509 2.432 . S
Eu467 O510 2.291 1_655 S
Eu467 C531 2.787 . S
N468 C464 1.351 . S
N468 Eu467 2.562 . S
N468 C470 1.325 . S
C469 C463 1.404 . S
C469 C471 1.366 . S
C469 H477 0.930 . S
C470 N468 1.325 . S
C470 C471 1.416 . S
C470 H476 0.929 . S
C471 C469 1.366 . S
C471 C470 1.416 . S
C471 H473 0.930 . S
H472 C461 0.930 . S
H473 C471 0.930 . S
H474 C489 0.930 . S
H475 C496 0.930 . S
H476 C470 0.929 . S
H477 C469 0.930 . S
H478 C492 0.929 . S
H479 C459 0.931 . S
H480 C465 0.931 . S
H481 C466 0.931 . S
H482 C487 0.931 . S
H483 C462 0.929 . S
H484 C495 0.930 . S
N485 Eu456 2.600 . S
N485 C486 1.365 . S
N485 C489 1.319 . S
C486 N485 1.365 . S
C486 C488 1.405 . S
C486 C494 1.448 . S
C487 H482 0.931 . S
C487 C489 1.397 . S
C487 C490 1.367 . S
C488 C486 1.405 . S
C488 C490 1.403 . S
C488 C521 1.439 . S
C489 H474 0.930 . S
C489 N485 1.319 . S
C489 C487 1.397 . S
C490 C487 1.367 . S
C490 C488 1.403 . S
C490 H497 0.929 . S
N491 Eu456 2.562 . S
N491 C492 1.325 . S
N491 C494 1.351 . S
C492 H478 0.929 . S
C492 N491 1.325 . S
C492 C496 1.416 . S
C493 C494 1.430 . S
C493 C495 1.404 . S
C493 C522 1.387 . S
C494 C486 1.448 . S
C494 N491 1.351 . S
C494 C493 1.430 . S
C495 H484 0.930 . S
C495 C493 1.404 . S
C495 C496 1.366 . S
C496 H475 0.930 . S
C496 C492 1.416 . S
C496 C495 1.366 . S
H497 C490 0.929 . S
H498 C521 0.931 . S
H499 C522 0.931 . S
O500 Eu456 2.462 . S
O500 C520 1.252 . S
O501 Eu456 2.373 . S
O501 C512 1.249 . S
O502 Eu467 2.335 1_455 S
O502 C512 1.264 . S
O503 Eu456 2.432 . S
O503 C520 1.268 . S
O504 Eu456 2.291 . S
O504 C519 1.255 1_455 S
O505 Eu467 2.372 . S
O505 C519 1.257 . S
O506 Eu467 2.462 . S
O506 C531 1.252 . S
O507 Eu467 2.373 . S
O507 C523 1.249 . S
O508 Eu456 2.335 . S
O508 C523 1.264 1_455 S
O509 Eu467 2.432 . S
O509 C531 1.268 . S
O510 Eu467 2.291 1_455 S
O510 C530 1.255 . S
O511 Eu456 2.372 . S
O511 C530 1.257 . S
C512 O501 1.249 . S
C512 O502 1.264 . S
C513 C516 1.382 . S
C513 C518 1.390 . S
C513 C520 1.506 . S
C514 C515 1.398 . S
C514 C518 1.392 . S
C515 C514 1.398 . S
C515 C517 1.372 . S
C515 H532 0.931 . S
C516 C513 1.382 . S
C516 C517 1.390 . S
C516 H533 0.931 . S
C517 C515 1.372 . S
C517 C516 1.390 . S
C517 H534 0.929 . S
C518 C513 1.390 . S
C518 C514 1.392 . S
C518 H535 0.930 . S
C519 O504 1.255 1_655 S
C519 O505 1.257 . S
C520 Eu456 2.787 . S
C520 O500 1.252 . S
C520 O503 1.268 . S
C520 C513 1.506 . S
C521 C488 1.439 . S
C521 H498 0.931 . S
C521 C522 1.374 . S
C522 C493 1.387 . S
C522 H499 0.931 . S
C522 C521 1.374 . S
C523 O507 1.249 . S
C523 O508 1.264 1_655 S
C524 C527 1.382 . S
C524 C528 1.390 . S
C524 C531 1.506 . S
C525 C526 1.398 . S
C525 C528 1.392 . S
C526 C525 1.398 . S
C526 C529 1.372 . S
C526 H536 0.931 . S
C527 C524 1.382 . S
C527 C529 1.390 . S
C527 H537 0.931 . S
C528 C524 1.390 . S
C528 C525 1.392 . S
C528 H538 0.930 . S
C529 C526 1.372 . S
C529 C527 1.390 . S
C529 H539 0.929 . S
C530 O510 1.255 . S
C530 O511 1.257 . S
C531 Eu467 2.787 . S
C531 O506 1.252 . S
C531 O509 1.268 . S
C531 C524 1.506 . S
H532 C515 0.931 . S
H533 C516 0.931 . S
H534 C517 0.929 . S
H535 C518 0.930 . S
H536 C526 0.931 . S
H537 C527 0.931 . S
H538 C528 0.930 . S
H539 C529 0.929 . S
Eu540 N569 2.600 . S
Eu540 N575 2.562 . S
Eu540 O584 2.462 . S
Eu540 O585 2.373 . S
Eu540 O587 2.432 . S
Eu540 O588 2.291 . S
Eu540 O592 2.335 . S
Eu540 O595 2.372 . S
Eu540 C604 2.787 . S
C541 N542 1.365 . S
C541 C544 1.405 . S
C541 C548 1.448 . S
N542 C541 1.365 . S
N542 C545 1.319 . S
N542 Eu551 2.600 . S
C543 C545 1.397 . S
C543 C546 1.367 . S
C543 H563 0.931 . S
C544 C541 1.405 . S
C544 C546 1.403 . S
C544 C550 1.439 . S
C545 N542 1.319 . S
C545 C543 1.397 . S
C545 H556 0.930 . S
C546 C543 1.367 . S
C546 C544 1.403 . S
C546 H567 0.929 . S
C547 C548 1.430 . S
C547 C549 1.387 . S
C547 C553 1.404 . S
C548 C541 1.448 . S
C548 C547 1.430 . S
C548 N552 1.351 . S
C549 C547 1.387 . S
C549 C550 1.374 . S
C549 H564 0.931 . S
C550 C544 1.439 . S
C550 C549 1.374 . S
C550 H565 0.931 . S
Eu551 N542 2.600 . S
Eu551 N552 2.562 . S
Eu551 O586 2.335 . S
Eu551 O589 2.372 . S
Eu551 O590 2.462 . S
Eu551 O591 2.373 . S
Eu551 O593 2.432 . S
Eu551 O594 2.291 . S
Eu551 C615 2.787 . S
N552 C548 1.351 . S
N552 Eu551 2.562 . S
N552 C554 1.325 . S
C553 C547 1.404 . S
C553 C555 1.366 . S
C553 H561 0.930 . S
C554 N552 1.325 . S
C554 C555 1.416 . S
C554 H560 0.929 . S
C555 C553 1.366 . S
C555 C554 1.416 . S
C555 H557 0.930 . S
H556 C545 0.930 . S
H557 C555 0.930 . S
H558 C573 0.930 . S
H559 C580 0.930 . S
H560 C554 0.929 . S
H561 C553 0.930 . S
H562 C576 0.929 . S
H563 C543 0.931 . S
H564 C549 0.931 . S
H565 C550 0.931 . S
H566 C571 0.931 . S
H567 C546 0.929 . S
H568 C579 0.930 . S
N569 Eu540 2.600 . S
N569 C570 1.365 . S
N569 C573 1.319 . S
C570 N569 1.365 . S
C570 C572 1.405 . S
C570 C578 1.448 . S
C571 H566 0.931 . S
C571 C573 1.397 . S
C571 C574 1.367 . S
C572 C570 1.405 . S
C572 C574 1.403 . S
C572 C605 1.439 . S
C573 H558 0.930 . S
C573 N569 1.319 . S
C573 C571 1.397 . S
C574 C571 1.367 . S
C574 C572 1.403 . S
C574 H581 0.929 . S
N575 Eu540 2.562 . S
N575 C576 1.325 . S
N575 C578 1.351 . S
C576 H562 0.929 . S
C576 N575 1.325 . S
C576 C580 1.416 . S
C577 C578 1.430 . S
C577 C579 1.404 . S
C577 C606 1.387 . S
C578 C570 1.448 . S
C578 N575 1.351 . S
C578 C577 1.430 . S
C579 H568 0.930 . S
C579 C577 1.404 . S
C579 C580 1.366 . S
C580 H559 0.930 . S
C580 C576 1.416 . S
C580 C579 1.366 . S
H581 C574 0.929 . S
H582 C605 0.931 . S
H583 C606 0.931 . S
O584 Eu540 2.462 . S
O584 C604 1.252 . S
O585 Eu540 2.373 . S
O585 C596 1.249 . S
O586 Eu551 2.335 . S
O586 C596 1.264 . S
O587 Eu540 2.432 . S
O587 C604 1.268 . S
O588 Eu540 2.291 . S
O588 C603 1.255 . S
O589 Eu551 2.372 . S
O589 C603 1.257 . S
O590 Eu551 2.462 . S
O590 C615 1.252 . S
O591 Eu551 2.373 . S
O591 C607 1.249 . S
O592 Eu540 2.335 . S
O592 C607 1.264 . S
O593 Eu551 2.432 . S
O593 C615 1.268 . S
O594 Eu551 2.291 . S
O594 C614 1.255 . S
O595 Eu540 2.372 . S
O595 C614 1.257 . S
C596 O585 1.249 . S
C596 O586 1.264 . S
C597 C600 1.382 . S
C597 C602 1.390 . S
C597 C604 1.506 . S
C598 C599 1.398 . S
C598 C602 1.392 . S
C599 C598 1.398 . S
C599 C601 1.372 . S
C599 H616 0.931 . S
C600 C597 1.382 . S
C600 C601 1.390 . S
C600 H617 0.931 . S
C601 C599 1.372 . S
C601 C600 1.390 . S
C601 H618 0.929 . S
C602 C597 1.390 . S
C602 C598 1.392 . S
C602 H619 0.930 . S
C603 O588 1.255 . S
C603 O589 1.257 . S
C604 Eu540 2.787 . S
C604 O584 1.252 . S
C604 O587 1.268 . S
C604 C597 1.506 . S
C605 C572 1.439 . S
C605 H582 0.931 . S
C605 C606 1.374 . S
C606 C577 1.387 . S
C606 H583 0.931 . S
C606 C605 1.374 . S
C607 O591 1.249 . S
C607 O592 1.264 . S
C608 C611 1.382 . S
C608 C612 1.390 . S
C608 C615 1.506 . S
C609 C610 1.398 . S
C609 C612 1.392 . S
C610 C609 1.398 . S
C610 C613 1.372 . S
C610 H620 0.931 . S
C611 C608 1.382 . S
C611 C613 1.390 . S
C611 H621 0.931 . S
C612 C608 1.390 . S
C612 C609 1.392 . S
C612 H622 0.930 . S
C613 C610 1.372 . S
C613 C611 1.390 . S
C613 H623 0.929 . S
C614 O594 1.255 . S
C614 O595 1.257 . S
C615 Eu551 2.787 . S
C615 O590 1.252 . S
C615 O593 1.268 . S
C615 C608 1.506 . S
H616 C599 0.931 . S
H617 C600 0.931 . S
H618 C601 0.929 . S
H619 C602 0.930 . S
H620 C610 0.931 . S
H621 C611 0.931 . S
H622 C612 0.930 . S
H623 C613 0.929 . S
H624 C632 0.929 . S
H625 C634 0.930 . S
H626 C636 0.930 . S
H627 C639 0.929 . S
H628 C642 0.930 . S
H629 C644 0.960 . S
H630 C644 0.960 . S
H631 C644 0.960 . S
C632 H624 0.929 . S
C632 C633 1.377 . S
C632 C634 1.384 . S
C633 C632 1.377 . S
C633 C639 1.390 . S
C634 H625 0.930 . S
C634 C632 1.384 . S
C634 C635 1.372 . S
C635 C634 1.372 . S
C635 C636 1.400 1_565 S
C635 C640 1.490 1_565 S
C636 H626 0.930 . S
C636 C635 1.400 1_545 S
C636 C639 1.386 1_545 S
H637 C653 0.930 . S
H638 C654 0.931 . S
C639 H627 0.929 . S
C639 C633 1.390 . S
C639 C636 1.386 1_565 S
C640 C635 1.490 1_545 S
C640 C642 1.395 . S
C640 C643 1.403 . S
H641 C647 0.930 . S
C642 H628 0.930 . S
C642 C640 1.395 . S
C642 C645 1.403 . S
C643 C640 1.403 . S
C643 C644 1.524 . S
C643 C647 1.400 . S
C644 H629 0.960 . S
C644 H630 0.960 . S
C644 H631 0.960 . S
C644 C643 1.524 . S
C645 C642 1.403 . S
C645 C646 1.392 . S
C645 C649 1.495 . S
C646 C645 1.392 . S
C646 C647 1.385 . S
C646 C648 1.478 . S
C647 H641 0.930 . S
C647 C643 1.400 . S
C647 C646 1.385 . S
C648 C646 1.478 . S
C648 C650 1.381 . S
C648 C654 1.383 . S
C649 C645 1.495 . S
C649 H655 0.959 . S
C649 H656 0.961 . S
C649 H657 0.960 . S
C650 C648 1.381 . S
C650 C651 1.394 . S
C650 H658 0.930 . S
C651 C650 1.394 . S
C651 C652 1.383 . S
C651 H659 0.929 . S
C652 C651 1.383 . S
C652 C653 1.377 . S
C653 H637 0.930 . S
C653 C652 1.377 . S
C653 C654 1.379 . S
C654 H638 0.931 . S
C654 C648 1.383 . S
C654 C653 1.379 . S
H655 C649 0.959 . S
H656 C649 0.961 . S
H657 C649 0.960 . S
H658 C650 0.930 . S
H659 C651 0.929 . S
H660 C668 0.929 . S
H661 C670 0.930 . S
H662 C672 0.930 . S
H663 C675 0.929 . S
H664 C678 0.930 . S
H665 C680 0.960 . S
H666 C680 0.960 . S
H667 C680 0.960 . S
C668 H660 0.929 . S
C668 C669 1.377 . S
C668 C670 1.384 . S
C669 C668 1.377 . S
C669 C675 1.390 . S
C670 H661 0.930 . S
C670 C668 1.384 . S
C670 C671 1.372 . S
C671 C670 1.372 . S
C671 C672 1.400 . S
C671 C676 1.490 . S
C672 H662 0.930 . S
C672 C671 1.400 . S
C672 C675 1.386 . S
H673 C689 0.930 . S
H674 C690 0.931 . S
C675 H663 0.929 . S
C675 C669 1.390 . S
C675 C672 1.386 . S
C676 C671 1.490 . S
C676 C678 1.395 . S
C676 C679 1.403 . S
H677 C683 0.930 . S
C678 H664 0.930 . S
C678 C676 1.395 . S
C678 C681 1.403 . S
C679 C676 1.403 . S
C679 C680 1.524 . S
C679 C683 1.400 . S
C680 H665 0.960 . S
C680 H666 0.960 . S
C680 H667 0.960 . S
C680 C679 1.524 . S
C681 C678 1.403 . S
C681 C682 1.392 . S
C681 C685 1.495 . S
C682 C681 1.392 . S
C682 C683 1.385 . S
C682 C684 1.478 . S
C683 H677 0.930 . S
C683 C679 1.400 . S
C683 C682 1.385 . S
C684 C682 1.478 . S
C684 C686 1.381 . S
C684 C690 1.383 . S
C685 C681 1.495 . S
C685 H691 0.959 . S
C685 H692 0.961 . S
C685 H693 0.960 . S
C686 C684 1.381 . S
C686 C687 1.394 . S
C686 H694 0.930 . S
C687 C686 1.394 . S
C687 C688 1.383 . S
C687 H695 0.929 . S
C688 C687 1.383 . S
C688 C689 1.377 . S
C689 H673 0.930 . S
C689 C688 1.377 . S
C689 C690 1.379 . S
C690 H674 0.931 . S
C690 C684 1.383 . S
C690 C689 1.379 . S
H691 C685 0.959 . S
H692 C685 0.961 . S
H693 C685 0.960 . S
H694 C686 0.930 . S
H695 C687 0.929 . S
H696 C704 0.929 . S
H697 C706 0.930 . S
H698 C708 0.930 . S
H699 C711 0.929 . S
H700 C714 0.930 . S
H701 C716 0.960 . S
H702 C716 0.960 . S
H703 C716 0.960 . S
C704 H696 0.929 . S
C704 C705 1.377 . S
C704 C706 1.384 . S
C705 C704 1.377 . S
C705 C711 1.390 . S
C706 H697 0.930 . S
C706 C704 1.384 . S
C706 C707 1.372 . S
C707 C706 1.372 . S
C707 C708 1.400 . S
C707 C712 1.490 . S
C708 H698 0.930 . S
C708 C707 1.400 . S
C708 C711 1.386 . S
H709 C725 0.930 . S
H710 C726 0.931 . S
C711 H699 0.929 . S
C711 C705 1.390 . S
C711 C708 1.386 . S
C712 C707 1.490 . S
C712 C714 1.395 . S
C712 C715 1.403 . S
H713 C719 0.930 . S
C714 H700 0.930 . S
C714 C712 1.395 . S
C714 C717 1.403 . S
C715 C712 1.403 . S
C715 C716 1.524 . S
C715 C719 1.400 . S
C716 H701 0.960 . S
C716 H702 0.960 . S
C716 H703 0.960 . S
C716 C715 1.524 . S
C717 C714 1.403 . S
C717 C718 1.392 . S
C717 C721 1.495 . S
C718 C717 1.392 . S
C718 C719 1.385 . S
C718 C720 1.478 . S
C719 H713 0.930 . S
C719 C715 1.400 . S
C719 C718 1.385 . S
C720 C718 1.478 . S
C720 C722 1.381 . S
C720 C726 1.383 . S
C721 C717 1.495 . S
C721 H727 0.959 . S
C721 H728 0.961 . S
C721 H729 0.960 . S
C722 C720 1.381 . S
C722 C723 1.394 . S
C722 H730 0.930 . S
C723 C722 1.394 . S
C723 C724 1.383 . S
C723 H731 0.929 . S
C724 C723 1.383 . S
C724 C725 1.377 . S
C725 H709 0.930 . S
C725 C724 1.377 . S
C725 C726 1.379 . S
C726 H710 0.931 . S
C726 C720 1.383 . S
C726 C725 1.379 . S
H727 C721 0.959 . S
H728 C721 0.961 . S
H729 C721 0.960 . S
H730 C722 0.930 . S
H731 C723 0.929 . S
H732 C740 0.929 . S
H733 C742 0.930 . S
H734 C744 0.930 . S
H735 C747 0.929 . S
H736 C750 0.930 . S
H737 C752 0.960 . S
H738 C752 0.960 . S
H739 C752 0.960 . S
C740 H732 0.929 . S
C740 C741 1.377 . S
C740 C742 1.384 . S
C741 C740 1.377 . S
C741 C747 1.390 . S
C742 H733 0.930 . S
C742 C740 1.384 . S
C742 C743 1.381 . S
C743 C742 1.381 . S
C743 C744 1.397 1_565 S
C743 C748 1.484 1_565 S
C744 H734 0.930 . S
C744 C743 1.397 1_545 S
C744 C747 1.386 1_545 S
H745 C761 0.930 . S
H746 C762 0.931 . S
C747 H735 0.929 . S
C747 C741 1.390 . S
C747 C744 1.386 1_565 S
C748 C743 1.484 1_545 S
C748 C750 1.395 . S
C748 C751 1.403 . S
H749 C755 0.930 . S
C750 H736 0.930 . S
C750 C748 1.395 . S
C750 C753 1.403 . S
C751 C748 1.403 . S
C751 C752 1.524 . S
C751 C755 1.400 . S
C752 H737 0.960 . S
C752 H738 0.960 . S
C752 H739 0.960 . S
C752 C751 1.524 . S
C753 C750 1.403 . S
C753 C754 1.392 . S
C753 C757 1.495 . S
C754 C753 1.392 . S
C754 C755 1.385 . S
C754 C756 1.478 . S
C755 H749 0.930 . S
C755 C751 1.400 . S
C755 C754 1.385 . S
C756 C754 1.478 . S
C756 C758 1.381 . S
C756 C762 1.383 . S
C757 C753 1.495 . S
C757 H763 0.959 . S
C757 H764 0.961 . S
C757 H765 0.960 . S
C758 C756 1.381 . S
C758 C759 1.394 . S
C758 H766 0.930 . S
C759 C758 1.394 . S
C759 C760 1.383 . S
C759 H767 0.929 . S
C760 C759 1.383 . S
C760 C761 1.377 . S
C761 H745 0.930 . S
C761 C760 1.377 . S
C761 C762 1.379 . S
C762 H746 0.931 . S
C762 C756 1.383 . S
C762 C761 1.379 . S
H763 C757 0.959 . S
H764 C757 0.961 . S
H765 C757 0.960 . S
H766 C758 0.930 . S
H767 C759 0.929 . S
H768 C776 0.929 . S
H769 C778 0.930 1_565 S
H770 C780 0.930 . S
H771 C783 0.929 . S
H772 C786 0.930 . S
H773 C788 0.960 . S
H774 C788 0.960 . S
H775 C788 0.960 . S
C776 H768 0.929 . S
C776 C777 1.377 . S
C776 C778 1.384 . S
C777 C776 1.377 . S
C777 C783 1.390 . S
C778 H769 0.930 1_545 S
C778 C776 1.384 . S
C778 C779 1.375 . S
C779 C778 1.375 . S
C779 C780 1.414 . S
C779 C784 1.473 1_545 S
C780 H770 0.930 . S
C780 C779 1.414 . S
C780 C783 1.386 . S
H781 C797 0.930 1_455 S
H782 C798 0.931 . S
C783 H771 0.929 . S
C783 C777 1.390 . S
C783 C780 1.386 . S
C784 C779 1.473 1_565 S
C784 C786 1.395 . S
C784 C787 1.403 . S
H785 C791 0.930 . S
C786 H772 0.930 . S
C786 C784 1.395 . S
C786 C789 1.403 . S
C787 C784 1.403 . S
C787 C788 1.524 1_565 S
C787 C791 1.400 . S
C788 H773 0.960 . S
C788 H774 0.960 . S
C788 H775 0.960 . S
C788 C787 1.524 1_545 S
C789 C786 1.403 . S
C789 C790 1.392 . S
C789 C793 1.495 . S
C790 C789 1.392 . S
C790 C791 1.385 . S
C790 C792 1.478 . S
C791 H785 0.930 . S
C791 C787 1.400 . S
C791 C790 1.385 . S
C792 C790 1.478 . S
C792 C794 1.381 . S
C792 C798 1.383 . S
C793 C789 1.495 . S
C793 H799 0.959 . S
C793 H800 0.961 . S
C793 H801 0.960 . S
C794 C792 1.381 . S
C794 C795 1.394 . S
C794 H802 0.930 . S
C795 C794 1.394 . S
C795 C796 1.383 . S
C795 H803 0.929 . S
C796 C795 1.383 . S
C796 C797 1.377 . S
C797 H781 0.930 1_655 S
C797 C796 1.377 . S
C797 C798 1.379 . S
C798 H782 0.931 . S
C798 C792 1.383 . S
C798 C797 1.379 . S
H799 C793 0.959 . S
H800 C793 0.961 . S
H801 C793 0.960 . S
H802 C794 0.930 . S
H803 C795 0.929 . S
H804 C812 0.929 . S
H805 C814 0.930 . S
H806 C816 0.930 . S
H807 C819 0.929 . S
H808 C822 0.930 . S
H809 C824 0.960 . S
H810 C824 0.960 . S
H811 C824 0.960 . S
C812 H804 0.929 . S
C812 C813 1.377 . S
C812 C814 1.384 . S
C813 C812 1.377 . S
C813 C819 1.390 . S
C814 H805 0.930 . S
C814 C812 1.384 . S
C814 C815 1.372 . S
C815 C814 1.372 . S
C815 C816 1.400 . S
C815 C820 1.490 . S
C816 H806 0.930 . S
C816 C815 1.400 . S
C816 C819 1.386 . S
H817 C833 0.930 . S
H818 C834 0.931 . S
C819 H807 0.929 . S
C819 C813 1.390 . S
C819 C816 1.386 . S
C820 C815 1.490 . S
C820 C822 1.395 . S
C820 C823 1.403 . S
H821 C827 0.930 . S
C822 H808 0.930 . S
C822 C820 1.395 . S
C822 C825 1.403 . S
C823 C820 1.403 . S
C823 C824 1.524 . S
C823 C827 1.400 . S
C824 H809 0.960 . S
C824 H810 0.960 . S
C824 H811 0.960 . S
C824 C823 1.524 . S
C825 C822 1.403 . S
C825 C826 1.392 . S
C825 C829 1.495 . S
C826 C825 1.392 . S
C826 C827 1.385 . S
C826 C828 1.478 . S
C827 H821 0.930 . S
C827 C823 1.400 . S
C827 C826 1.385 . S
C828 C826 1.478 . S
C828 C830 1.381 . S
C828 C834 1.383 . S
C829 C825 1.495 . S
C829 H835 0.959 . S
C829 H836 0.961 . S
C829 H837 0.960 . S
C830 C828 1.381 . S
C830 C831 1.394 . S
C830 H838 0.930 . S
C831 C830 1.394 . S
C831 C832 1.383 . S
C831 H839 0.929 . S
C832 C831 1.383 . S
C832 C833 1.377 . S
C833 H817 0.930 . S
C833 C832 1.377 . S
C833 C834 1.379 . S
C834 H818 0.931 . S
C834 C828 1.383 . S
C834 C833 1.379 . S
H835 C829 0.959 . S
H836 C829 0.961 . S
H837 C829 0.960 . S
H838 C830 0.930 . S
H839 C831 0.929 . S
H840 C848 0.929 . S
H841 C850 0.930 . S
H842 C852 0.930 . S
H843 C855 0.929 . S
H844 C858 0.930 . S
H845 C860 0.960 . S
H846 C860 0.960 . S
H847 C860 0.960 . S
C848 H840 0.929 . S
C848 C849 1.377 . S
C848 C850 1.384 . S
C849 C848 1.377 . S
C849 C855 1.390 . S
C850 H841 0.930 . S
C850 C848 1.384 . S
C850 C851 1.372 . S
C851 C850 1.372 . S
C851 C852 1.400 . S
C851 C856 1.490 . S
C852 H842 0.930 . S
C852 C851 1.400 . S
C852 C855 1.386 . S
H853 C869 0.930 . S
H854 C870 0.931 . S
C855 H843 0.929 . S
C855 C849 1.390 . S
C855 C852 1.386 . S
C856 C851 1.490 . S
C856 C858 1.395 . S
C856 C859 1.403 . S
H857 C863 0.930 . S
C858 H844 0.930 . S
C858 C856 1.395 . S
C858 C861 1.403 . S
C859 C856 1.403 . S
C859 C860 1.524 . S
C859 C863 1.400 . S
C860 H845 0.960 . S
C860 H846 0.960 . S
C860 H847 0.960 . S
C860 C859 1.524 . S
C861 C858 1.403 . S
C861 C862 1.392 . S
C861 C865 1.495 . S
C862 C861 1.392 . S
C862 C863 1.385 . S
C862 C864 1.478 . S
C863 H857 0.930 . S
C863 C859 1.400 . S
C863 C862 1.385 . S
C864 C862 1.478 . S
C864 C866 1.381 . S
C864 C870 1.383 . S
C865 C861 1.495 . S
C865 H871 0.959 . S
C865 H872 0.961 . S
C865 H873 0.960 . S
C866 C864 1.381 . S
C866 C867 1.394 . S
C866 H874 0.930 . S
C867 C866 1.394 . S
C867 C868 1.383 . S
C867 H875 0.929 . S
C868 C867 1.383 . S
C868 C869 1.377 . S
C869 H853 0.930 . S
C869 C868 1.377 . S
C869 C870 1.379 . S
C870 H854 0.931 . S
C870 C864 1.383 . S
C870 C869 1.379 . S
H871 C865 0.959 . S
H872 C865 0.961 . S
H873 C865 0.960 . S
H874 C866 0.930 . S
H875 C867 0.929 . S
H876 C884 0.929 . S
H877 C886 0.930 . S
H878 C888 0.930 . S
H879 C891 0.929 . S
H880 C894 0.930 . S
H881 C896 0.960 . S
H882 C896 0.960 . S
H883 C896 0.960 1_545 S
C884 H876 0.929 . S
C884 C885 1.377 . S
C884 C886 1.384 1_545 S
C885 C884 1.377 . S
C885 C891 1.390 . S
C886 H877 0.930 . S
C886 C884 1.384 1_565 S
C886 C887 1.372 . S
C887 C886 1.372 . S
C887 C888 1.400 1_565 S
C887 C892 1.490 . S
C888 H878 0.930 . S
C888 C887 1.400 1_545 S
C888 C891 1.386 . S
H889 C905 0.930 . S
H890 C906 0.931 . S
C891 H879 0.929 . S
C891 C885 1.390 . S
C891 C888 1.386 . S
C892 C887 1.490 . S
C892 C894 1.395 . S
C892 C895 1.403 . S
H893 C899 0.930 . S
C894 H880 0.930 . S
C894 C892 1.395 . S
C894 C897 1.403 . S
C895 C892 1.403 . S
C895 C896 1.524 . S
C895 C899 1.400 . S
C896 H881 0.960 . S
C896 H882 0.960 . S
C896 H883 0.960 1_565 S
C896 C895 1.524 . S
C897 C894 1.403 . S
C897 C898 1.392 . S
C897 C901 1.495 . S
C898 C897 1.392 . S
C898 C899 1.385 . S
C898 C900 1.478 . S
C899 H893 0.930 . S
C899 C895 1.400 . S
C899 C898 1.385 . S
C900 C898 1.478 . S
C900 C902 1.381 . S
C900 C906 1.383 . S
C901 C897 1.495 . S
C901 H907 0.959 . S
C901 H908 0.961 . S
C901 H909 0.960 . S
C902 C900 1.381 . S
C902 C903 1.394 . S
C902 H910 0.930 . S
C903 C902 1.394 . S
C903 C904 1.383 . S
C903 H911 0.929 . S
C904 C903 1.383 . S
C904 C905 1.377 . S
C905 H889 0.930 . S
C905 C904 1.377 . S
C905 C906 1.379 . S
C906 H890 0.931 . S
C906 C900 1.383 . S
C906 C905 1.379 . S
H907 C901 0.959 . S
H908 C901 0.961 . S
H909 C901 0.960 . S
H910 C902 0.930 . S
H911 C903 0.929 . S
H912 C920 0.929 . S
H913 C922 0.930 . S
H914 C924 0.930 . S
H915 C927 0.929 1_556 S
H916 C930 0.930 . S
H917 C932 0.960 . S
H918 C932 0.960 . S
H919 C932 0.960 . S
C920 H912 0.929 . S
C920 C921 1.377 . S
C920 C922 1.384 . S
C921 C920 1.377 . S
C921 C927 1.390 . S
C922 H913 0.930 . S
C922 C920 1.384 . S
C922 C923 1.372 . S
C923 C922 1.372 . S
C923 C924 1.400 . S
C923 C928 1.490 . S
C924 H914 0.930 . S
C924 C923 1.400 . S
C924 C927 1.386 . S
H925 C941 0.930 . S
H926 C942 0.931 . S
C927 H915 0.929 1_554 S
C927 C921 1.390 . S
C927 C924 1.386 . S
C928 C923 1.490 . S
C928 C930 1.395 . S
C928 C931 1.403 . S
H929 C935 0.930 . S
C930 H916 0.930 . S
C930 C928 1.395 . S
C930 C933 1.403 . S
C931 C928 1.403 . S
C931 C932 1.524 . S
C931 C935 1.400 . S
C932 H917 0.960 . S
C932 H918 0.960 . S
C932 H919 0.960 . S
C932 C931 1.524 . S
C933 C930 1.403 . S
C933 C934 1.392 . S
C933 C937 1.495 . S
C934 C933 1.392 . S
C934 C935 1.385 . S
C934 C936 1.478 . S
C935 H929 0.930 . S
C935 C931 1.400 . S
C935 C934 1.385 . S
C936 C934 1.478 . S
C936 C938 1.381 . S
C936 C942 1.383 . S
C937 C933 1.495 . S
C937 H943 0.959 . S
C937 H944 0.961 . S
C937 H945 0.960 . S
C938 C936 1.381 . S
C938 C939 1.394 . S
C938 H946 0.930 . S
C939 C938 1.394 . S
C939 C940 1.383 . S
C939 H947 0.929 . S
C940 C939 1.383 . S
C940 C941 1.377 . S
C941 H925 0.930 . S
C941 C940 1.377 . S
C941 C942 1.379 . S
C942 H926 0.931 . S
C942 C936 1.383 . S
C942 C941 1.379 . S
H943 C937 0.959 . S
H944 C937 0.961 . S
H945 C937 0.960 . S
H946 C938 0.930 . S
H947 C939 0.929 . S
H948 C956 0.929 . S
H949 C958 0.930 . S
H950 C960 0.930 . S
H951 C963 0.929 . S
H952 C966 0.930 . S
H953 C968 0.960 . S
H954 C968 0.960 . S
H955 C968 0.960 . S
C956 H948 0.929 . S
C956 C957 1.377 . S
C956 C958 1.384 . S
C957 C956 1.377 . S
C957 C963 1.390 . S
C958 H949 0.930 . S
C958 C956 1.384 . S
C958 C959 1.372 . S
C959 C958 1.372 . S
C959 C960 1.400 . S
C959 C964 1.490 . S
C960 H950 0.930 . S
C960 C959 1.400 . S
C960 C963 1.386 . S
H961 C977 0.930 . S
H962 C978 0.931 . S
C963 H951 0.929 . S
C963 C957 1.390 . S
C963 C960 1.386 . S
C964 C959 1.490 . S
C964 C966 1.395 . S
C964 C967 1.403 . S
H965 C971 0.930 . S
C966 H952 0.930 . S
C966 C964 1.395 . S
C966 C969 1.403 . S
C967 C964 1.403 . S
C967 C968 1.524 . S
C967 C971 1.400 . S
C968 H953 0.960 . S
C968 H954 0.960 . S
C968 H955 0.960 . S
C968 C967 1.524 . S
C969 C966 1.403 . S
C969 C970 1.392 . S
C969 C973 1.495 . S
C970 C969 1.392 . S
C970 C971 1.385 . S
C970 C972 1.478 . S
C971 H965 0.930 . S
C971 C967 1.400 . S
C971 C970 1.385 . S
C972 C970 1.478 . S
C972 C974 1.381 . S
C972 C978 1.383 . S
C973 C969 1.495 . S
C973 H979 0.959 . S
C973 H980 0.961 . S
C973 H981 0.960 . S
C974 C972 1.381 . S
C974 C975 1.394 . S
C974 H982 0.930 . S
C975 C974 1.394 . S
C975 C976 1.383 . S
C975 H983 0.929 . S
C976 C975 1.383 . S
C976 C977 1.377 . S
C977 H961 0.930 . S
C977 C976 1.377 . S
C977 C978 1.379 . S
C978 H962 0.931 . S
C978 C972 1.383 . S
C978 C977 1.379 . S
H979 C973 0.959 . S
H980 C973 0.961 . S
H981 C973 0.960 . S
H982 C974 0.930 . S
H983 C975 0.929 . S
H984 C992 0.929 . S
H985 C994 0.930 . S
H986 C996 0.930 . S
H987 C999 0.929 1_554 S
H988 C1002 0.930 . S
H989 C1004 0.960 . S
H990 C1004 0.960 . S
H991 C1004 0.960 . S
C992 H984 0.929 . S
C992 C993 1.342 1_556 S
C992 C994 1.384 . S
C993 C992 1.342 1_554 S
C993 C999 1.372 1_554 S
C994 H985 0.930 . S
C994 C992 1.384 . S
C994 C995 1.372 . S
C995 C994 1.372 . S
C995 C996 1.400 . S
C995 C1000 1.490 . S
C996 H986 0.930 . S
C996 C995 1.400 . S
C996 C999 1.386 . S
H997 C1013 0.930 . S
H998 C1014 0.931 . S
C999 H987 0.929 1_556 S
C999 C993 1.372 1_556 S
C999 C996 1.386 . S
C1000 C995 1.490 . S
C1000 C1002 1.395 . S
C1000 C1003 1.403 . S
H1001 C1007 0.930 . S
C1002 H988 0.930 . S
C1002 C1000 1.395 . S
C1002 C1005 1.403 . S
C1003 C1000 1.403 . S
C1003 C1004 1.524 . S
C1003 C1007 1.400 . S
C1004 H989 0.960 . S
C1004 H990 0.960 . S
C1004 H991 0.960 . S
C1004 C1003 1.524 . S
C1005 C1002 1.403 . S
C1005 C1006 1.392 . S
C1005 C1009 1.495 . S
C1006 C1005 1.392 . S
C1006 C1007 1.385 . S
C1006 C1008 1.478 . S
C1007 H1001 0.930 . S
C1007 C1003 1.400 . S
C1007 C1006 1.385 . S
C1008 C1006 1.478 . S
C1008 C1010 1.381 . S
C1008 C1014 1.383 . S
C1009 C1005 1.495 . S
C1009 H1015 0.959 . S
C1009 H1016 0.961 . S
C1009 H1017 0.960 . S
C1010 C1008 1.381 . S
C1010 C1011 1.394 . S
C1010 H1018 0.930 . S
C1011 C1010 1.394 . S
C1011 C1012 1.383 . S
C1011 H1019 0.929 . S
C1012 C1011 1.383 . S
C1012 C1013 1.377 . S
C1013 H997 0.930 . S
C1013 C1012 1.377 . S
C1013 C1014 1.379 . S
C1014 H998 0.931 . S
C1014 C1008 1.383 . S
C1014 C1013 1.379 . S
H1015 C1009 0.959 . S
H1016 C1009 0.961 . S
H1017 C1009 0.960 . S
H1018 C1010 0.930 . S
H1019 C1011 0.929 . S
H1020 C1028 0.929 . S
H1021 C1030 0.930 . S
H1022 C1032 0.930 . S
H1023 C1035 0.929 . S
H1024 C1038 0.930 . S
H1025 C1040 0.960 . S
H1026 C1040 0.960 . S
H1027 C1040 0.960 . S
C1028 H1020 0.929 . S
C1028 C1029 1.377 . S
C1028 C1030 1.384 . S
C1029 C1028 1.377 . S
C1029 C1035 1.390 . S
C1030 H1021 0.930 . S
C1030 C1028 1.384 . S
C1030 C1031 1.372 . S
C1031 C1030 1.372 . S
C1031 C1032 1.400 . S
C1031 C1036 1.490 . S
C1032 H1022 0.930 . S
C1032 C1031 1.400 . S
C1032 C1035 1.386 . S
H1033 C1049 0.930 . S
H1034 C1050 0.931 . S
C1035 H1023 0.929 . S
C1035 C1029 1.390 . S
C1035 C1032 1.386 . S
C1036 C1031 1.490 . S
C1036 C1038 1.395 . S
C1036 C1039 1.403 . S
H1037 C1043 0.930 . S
C1038 H1024 0.930 . S
C1038 C1036 1.395 . S
C1038 C1041 1.403 . S
C1039 C1036 1.403 . S
C1039 C1040 1.524 . S
C1039 C1043 1.400 . S
C1040 H1025 0.960 . S
C1040 H1026 0.960 . S
C1040 H1027 0.960 . S
C1040 C1039 1.524 . S
C1041 C1038 1.403 . S
C1041 C1042 1.392 . S
C1041 C1045 1.495 . S
C1042 C1041 1.392 . S
C1042 C1043 1.385 . S
C1042 C1044 1.478 . S
C1043 H1037 0.930 . S
C1043 C1039 1.400 . S
C1043 C1042 1.385 . S
C1044 C1042 1.478 . S
C1044 C1046 1.381 . S
C1044 C1050 1.383 . S
C1045 C1041 1.495 . S
C1045 H1051 0.959 . S
C1045 H1052 0.961 . S
C1045 H1053 0.960 . S
C1046 C1044 1.381 . S
C1046 C1047 1.394 . S
C1046 H1054 0.930 . S
C1047 C1046 1.394 . S
C1047 C1048 1.383 . S
C1047 H1055 0.929 . S
C1048 C1047 1.383 . S
C1048 C1049 1.377 . S
C1049 H1033 0.930 . S
C1049 C1048 1.377 . S
C1049 C1050 1.379 . S
C1050 H1034 0.931 . S
C1050 C1044 1.383 . S
C1050 C1049 1.379 . S
H1051 C1045 0.959 . S
H1052 C1045 0.961 . S
H1053 C1045 0.960 . S
H1054 C1046 0.930 . S
H1055 C1047 0.929 . S
H1056 C1064 0.929 . S
H1057 C1066 0.930 . S
H1058 C1068 0.930 . S
H1059 C1071 0.929 . S
H1060 C1074 0.930 . S
H1061 C1076 0.960 . S
H1062 C1076 0.960 . S
H1063 C1076 0.960 . S
C1064 H1056 0.929 . S
C1064 C1065 1.377 . S
C1064 C1066 1.384 . S
C1065 C1064 1.377 . S
C1065 C1071 1.390 . S
C1066 H1057 0.930 . S
C1066 C1064 1.384 . S
C1066 C1067 1.372 . S
C1067 C1066 1.372 . S
C1067 C1068 1.400 . S
C1067 C1072 1.490 . S
C1068 H1058 0.930 . S
C1068 C1067 1.400 . S
C1068 C1071 1.386 . S
H1069 C1085 0.930 . S
H1070 C1086 0.931 . S
C1071 H1059 0.929 . S
C1071 C1065 1.390 . S
C1071 C1068 1.386 . S
C1072 C1067 1.490 . S
C1072 C1074 1.395 . S
C1072 C1075 1.403 . S
H1073 C1079 0.930 . S
C1074 H1060 0.930 . S
C1074 C1072 1.395 . S
C1074 C1077 1.403 . S
C1075 C1072 1.403 . S
C1075 C1076 1.524 . S
C1075 C1079 1.400 . S
C1076 H1061 0.960 . S
C1076 H1062 0.960 . S
C1076 H1063 0.960 . S
C1076 C1075 1.524 . S
C1077 C1074 1.403 . S
C1077 C1078 1.392 . S
C1077 C1081 1.495 . S
C1078 C1077 1.392 . S
C1078 C1079 1.385 . S
C1078 C1080 1.478 . S
C1079 H1073 0.930 . S
C1079 C1075 1.400 . S
C1079 C1078 1.385 . S
C1080 C1078 1.478 . S
C1080 C1082 1.381 . S
C1080 C1086 1.383 . S
C1081 C1077 1.495 . S
C1081 H1087 0.959 . S
C1081 H1088 0.961 . S
C1081 H1089 0.960 . S
C1082 C1080 1.381 . S
C1082 C1083 1.394 . S
C1082 H1090 0.930 . S
C1083 C1082 1.394 . S
C1083 C1084 1.383 . S
C1083 H1091 0.929 . S
C1084 C1083 1.383 . S
C1084 C1085 1.377 . S
C1085 H1069 0.930 . S
C1085 C1084 1.377 . S
C1085 C1086 1.379 . S
C1086 H1070 0.931 . S
C1086 C1080 1.383 . S
C1086 C1085 1.379 . S
H1087 C1081 0.959 . S
H1088 C1081 0.961 . S
H1089 C1081 0.960 . S
H1090 C1082 0.930 . S
H1091 C1083 0.929 . S
H1092 C1100 0.929 . S
H1093 C1102 0.930 . S
H1094 C1104 0.930 . S
H1095 C1107 0.929 . S
H1096 C1110 0.930 . S
H1097 C1112 0.960 . S
H1098 C1112 0.960 . S
H1099 C1112 0.960 . S
C1100 H1092 0.929 . S
C1100 C1101 1.377 . S
C1100 C1102 1.384 . S
C1101 C1100 1.377 . S
C1101 C1107 1.390 . S
C1102 H1093 0.930 . S
C1102 C1100 1.384 . S
C1102 C1103 1.372 . S
C1103 C1102 1.372 . S
C1103 C1104 1.400 . S
C1103 C1108 1.490 . S
C1104 H1094 0.930 . S
C1104 C1103 1.400 . S
C1104 C1107 1.386 . S
H1105 C1121 0.930 . S
H1106 C1122 0.931 . S
C1107 H1095 0.929 . S
C1107 C1101 1.390 . S
C1107 C1104 1.386 . S
C1108 C1103 1.490 . S
C1108 C1110 1.395 . S
C1108 C1111 1.403 . S
H1109 C1115 0.930 . S
C1110 H1096 0.930 . S
C1110 C1108 1.395 . S
C1110 C1113 1.403 . S
C1111 C1108 1.403 . S
C1111 C1112 1.524 . S
C1111 C1115 1.400 . S
C1112 H1097 0.960 . S
C1112 H1098 0.960 . S
C1112 H1099 0.960 . S
C1112 C1111 1.524 . S
C1113 C1110 1.403 . S
C1113 C1114 1.392 . S
C1113 C1117 1.495 . S
C1114 C1113 1.392 . S
C1114 C1115 1.385 . S
C1114 C1116 1.478 . S
C1115 H1109 0.930 . S
C1115 C1111 1.400 . S
C1115 C1114 1.385 . S
C1116 C1114 1.478 . S
C1116 C1118 1.381 . S
C1116 C1122 1.383 . S
C1117 C1113 1.495 . S
C1117 H1123 0.959 . S
C1117 H1124 0.961 . S
C1117 H1125 0.960 . S
C1118 C1116 1.381 . S
C1118 C1119 1.394 . S
C1118 H1126 0.930 . S
C1119 C1118 1.394 . S
C1119 C1120 1.383 . S
C1119 H1127 0.929 . S
C1120 C1119 1.383 . S
C1120 C1121 1.377 . S
C1121 H1105 0.930 . S
C1121 C1120 1.377 . S
C1121 C1122 1.379 . S
C1122 H1106 0.931 . S
C1122 C1116 1.383 . S
C1122 C1121 1.379 . S
H1123 C1117 0.959 . S
H1124 C1117 0.961 . S
H1125 C1117 0.960 . S
H1126 C1118 0.930 . S
H1127 C1119 0.929 . S
H1128 C1136 0.929 . S
H1129 C1138 0.930 . S
H1130 C1140 0.930 . S
H1131 C1143 0.929 1_556 S
H1132 C1146 0.930 . S
H1133 C1148 0.960 . S
H1134 C1148 0.960 . S
H1135 C1148 0.960 . S
C1136 H1128 0.929 . S
C1136 C1137 1.377 1_554 S
C1136 C1138 1.384 . S
C1137 C1136 1.377 1_556 S
C1137 C1143 1.390 1_556 S
C1138 H1129 0.930 . S
C1138 C1136 1.384 . S
C1138 C1139 1.372 . S
C1139 C1138 1.372 . S
C1139 C1140 1.400 . S
C1139 C1144 1.490 . S
C1140 H1130 0.930 . S
C1140 C1139 1.400 . S
C1140 C1143 1.386 . S
H1141 C1157 0.930 . S
H1142 C1158 0.931 . S
C1143 H1131 0.929 1_554 S
C1143 C1137 1.390 1_554 S
C1143 C1140 1.386 . S
C1144 C1139 1.490 . S
C1144 C1146 1.395 . S
C1144 C1147 1.403 . S
H1145 C1151 0.930 . S
C1146 H1132 0.930 . S
C1146 C1144 1.395 . S
C1146 C1149 1.403 . S
C1147 C1144 1.403 . S
C1147 C1148 1.524 . S
C1147 C1151 1.400 . S
C1148 H1133 0.960 . S
C1148 H1134 0.960 . S
C1148 H1135 0.960 . S
C1148 C1147 1.524 . S
C1149 C1146 1.403 . S
C1149 C1150 1.392 . S
C1149 C1153 1.495 . S
C1150 C1149 1.392 . S
C1150 C1151 1.385 . S
C1150 C1152 1.478 . S
C1151 H1145 0.930 . S
C1151 C1147 1.400 . S
C1151 C1150 1.385 . S
C1152 C1150 1.478 . S
C1152 C1154 1.381 . S
C1152 C1158 1.383 . S
C1153 C1149 1.495 . S
C1153 H1159 0.959 . S
C1153 H1160 0.961 . S
C1153 H1161 0.960 . S
C1154 C1152 1.381 . S
C1154 C1155 1.394 . S
C1154 H1162 0.930 . S
C1155 C1154 1.394 . S
C1155 C1156 1.383 . S
C1155 H1163 0.929 . S
C1156 C1155 1.383 . S
C1156 C1157 1.377 . S
C1157 H1141 0.930 . S
C1157 C1156 1.377 . S
C1157 C1158 1.379 . S
C1158 H1142 0.931 . S
C1158 C1152 1.383 . S
C1158 C1157 1.379 . S
H1159 C1153 0.959 . S
H1160 C1153 0.961 . S
H1161 C1153 0.960 . S
H1162 C1154 0.930 . S
H1163 C1155 0.929 . S
H1164 C1172 0.929 . S
H1165 C1174 0.930 . S
H1166 C1176 0.930 . S
H1167 C1179 0.929 . S
H1168 C1182 0.930 . S
H1169 C1184 0.960 . S
H1170 C1184 0.960 . S
H1171 C1184 0.960 . S
C1172 H1164 0.929 . S
C1172 C1173 1.377 . S
C1172 C1174 1.384 . S
C1173 C1172 1.377 . S
C1173 C1179 1.390 . S
C1174 H1165 0.930 . S
C1174 C1172 1.384 . S
C1174 C1175 1.372 . S
C1175 C1174 1.372 . S
C1175 C1176 1.400 . S
C1175 C1180 1.490 . S
C1176 H1166 0.930 . S
C1176 C1175 1.400 . S
C1176 C1179 1.386 . S
H1177 C1193 0.930 . S
H1178 C1194 0.931 . S
C1179 H1167 0.929 . S
C1179 C1173 1.390 . S
C1179 C1176 1.386 . S
C1180 C1175 1.490 . S
C1180 C1182 1.395 . S
C1180 C1183 1.403 . S
H1181 C1187 0.930 . S
C1182 H1168 0.930 . S
C1182 C1180 1.395 . S
C1182 C1185 1.403 . S
C1183 C1180 1.403 . S
C1183 C1184 1.524 . S
C1183 C1187 1.400 . S
C1184 H1169 0.960 . S
C1184 H1170 0.960 . S
C1184 H1171 0.960 . S
C1184 C1183 1.524 . S
C1185 C1182 1.403 . S
C1185 C1186 1.392 . S
C1185 C1189 1.495 . S
C1186 C1185 1.392 . S
C1186 C1187 1.385 . S
C1186 C1188 1.478 . S
C1187 H1181 0.930 . S
C1187 C1183 1.400 . S
C1187 C1186 1.385 . S
C1188 C1186 1.478 . S
C1188 C1190 1.381 . S
C1188 C1194 1.383 . S
C1189 C1185 1.495 . S
C1189 H1195 0.959 . S
C1189 H1196 0.961 . S
C1189 H1197 0.960 . S
C1190 C1188 1.381 . S
C1190 C1191 1.394 . S
C1190 H1198 0.930 . S
C1191 C1190 1.394 . S
C1191 C1192 1.383 . S
C1191 H1199 0.929 . S
C1192 C1191 1.383 . S
C1192 C1193 1.377 . S
C1193 H1177 0.930 . S
C1193 C1192 1.377 . S
C1193 C1194 1.379 . S
C1194 H1178 0.931 . S
C1194 C1188 1.383 . S
C1194 C1193 1.379 . S
H1195 C1189 0.959 . S
H1196 C1189 0.961 . S
H1197 C1189 0.960 . S
H1198 C1190 0.930 . S
H1199 C1191 0.929 . S
H1200 C1208 0.929 . S
H1201 C1210 0.930 . S
H1202 C1212 0.930 . S
H1203 C1215 0.929 . S
H1204 C1218 0.930 . S
H1205 C1220 0.960 . S
H1206 C1220 0.960 . S
H1207 C1220 0.960 . S
C1208 H1200 0.929 . S
C1208 C1209 1.377 . S
C1208 C1210 1.384 . S
C1209 C1208 1.377 . S
C1209 C1215 1.390 . S
C1210 H1201 0.930 . S
C1210 C1208 1.384 . S
C1210 C1211 1.372 . S
C1211 C1210 1.372 . S
C1211 C1212 1.400 . S
C1211 C1216 1.490 . S
C1212 H1202 0.930 . S
C1212 C1211 1.400 . S
C1212 C1215 1.386 . S
H1213 C1229 0.930 . S
H1214 C1230 0.931 . S
C1215 H1203 0.929 . S
C1215 C1209 1.390 . S
C1215 C1212 1.386 . S
C1216 C1211 1.490 . S
C1216 C1218 1.395 . S
C1216 C1219 1.403 . S
H1217 C1223 0.930 . S
C1218 H1204 0.930 . S
C1218 C1216 1.395 . S
C1218 C1221 1.403 . S
C1219 C1216 1.403 . S
C1219 C1220 1.524 . S
C1219 C1223 1.400 . S
C1220 H1205 0.960 . S
C1220 H1206 0.960 . S
C1220 H1207 0.960 . S
C1220 C1219 1.524 . S
C1221 C1218 1.403 . S
C1221 C1222 1.392 . S
C1221 C1225 1.495 . S
C1222 C1221 1.392 . S
C1222 C1223 1.385 . S
C1222 C1224 1.478 . S
C1223 H1217 0.930 . S
C1223 C1219 1.400 . S
C1223 C1222 1.385 . S
C1224 C1222 1.478 . S
C1224 C1226 1.381 . S
C1224 C1230 1.383 . S
C1225 C1221 1.495 . S
C1225 H1231 0.959 . S
C1225 H1232 0.961 . S
C1225 H1233 0.960 . S
C1226 C1224 1.381 . S
C1226 C1227 1.394 . S
C1226 H1234 0.930 . S
C1227 C1226 1.394 . S
C1227 C1228 1.383 . S
C1227 H1235 0.929 . S
C1228 C1227 1.383 . S
C1228 C1229 1.377 . S
C1229 H1213 0.930 . S
C1229 C1228 1.377 . S
C1229 C1230 1.379 . S
C1230 H1214 0.931 . S
C1230 C1224 1.383 . S
C1230 C1229 1.379 . S
H1231 C1225 0.959 . S
H1232 C1225 0.961 . S
H1233 C1225 0.960 . S
H1234 C1226 0.930 . S
H1235 C1227 0.929 . S
H1236 C1244 0.929 . S
H1237 C1246 0.930 . S
H1238 C1248 0.930 . S
H1239 C1251 0.929 . S
H1240 C1254 0.930 . S
H1241 C1256 0.960 . S
H1242 C1256 0.960 . S
H1243 C1256 0.960 . S
C1244 H1236 0.929 . S
C1244 C1245 1.377 . S
C1244 C1246 1.384 . S
C1245 C1244 1.377 . S
C1245 C1251 1.390 . S
C1246 H1237 0.930 . S
C1246 C1244 1.384 . S
C1246 C1247 1.372 . S
C1247 C1246 1.372 . S
C1247 C1248 1.400 . S
C1247 C1252 1.490 . S
C1248 H1238 0.930 . S
C1248 C1247 1.400 . S
C1248 C1251 1.386 . S
H1249 C1265 0.930 . S
H1250 C1266 0.931 . S
C1251 H1239 0.929 . S
C1251 C1245 1.390 . S
C1251 C1248 1.386 . S
C1252 C1247 1.490 . S
C1252 C1254 1.395 . S
C1252 C1255 1.403 . S
H1253 C1259 0.930 . S
C1254 H1240 0.930 . S
C1254 C1252 1.395 . S
C1254 C1257 1.403 . S
C1255 C1252 1.403 . S
C1255 C1256 1.524 . S
C1255 C1259 1.400 . S
C1256 H1241 0.960 . S
C1256 H1242 0.960 . S
C1256 H1243 0.960 . S
C1256 C1255 1.524 . S
C1257 C1254 1.403 . S
C1257 C1258 1.392 . S
C1257 C1261 1.495 . S
C1258 C1257 1.392 . S
C1258 C1259 1.385 . S
C1258 C1260 1.478 . S
C1259 H1253 0.930 . S
C1259 C1255 1.400 . S
C1259 C1258 1.385 . S
C1260 C1258 1.478 . S
C1260 C1262 1.381 . S
C1260 C1266 1.383 . S
C1261 C1257 1.495 . S
C1261 H1267 0.959 . S
C1261 H1268 0.961 . S
C1261 H1269 0.960 . S
C1262 C1260 1.381 . S
C1262 C1263 1.394 . S
C1262 H1270 0.930 . S
C1263 C1262 1.394 . S
C1263 C1264 1.383 . S
C1263 H1271 0.929 . S
C1264 C1263 1.383 . S
C1264 C1265 1.377 . S
C1265 H1249 0.930 . S
C1265 C1264 1.377 . S
C1265 C1266 1.379 . S
C1266 H1250 0.931 . S
C1266 C1260 1.383 . S
C1266 C1265 1.379 . S
H1267 C1261 0.959 . S
H1268 C1261 0.961 . S
H1269 C1261 0.960 . S
H1270 C1262 0.930 . S
H1271 C1263 0.929 . S
H1272 C1280 0.929 . S
H1273 C1282 0.930 . S
H1274 C1284 0.930 . S
H1275 C1287 0.929 . S
H1276 C1290 0.930 . S
H1277 C1292 0.960 . S
H1278 C1292 0.960 . S
H1279 C1292 0.960 . S
C1280 H1272 0.929 . S
C1280 C1281 1.377 . S
C1280 C1282 1.384 . S
C1281 C1280 1.377 . S
C1281 C1287 1.390 . S
C1282 H1273 0.930 . S
C1282 C1280 1.384 . S
C1282 C1283 1.372 . S
C1283 C1282 1.372 . S
C1283 C1284 1.400 . S
C1283 C1288 1.490 . S
C1284 H1274 0.930 . S
C1284 C1283 1.400 . S
C1284 C1287 1.386 . S
H1285 C1301 0.930 . S
H1286 C1302 0.931 . S
C1287 H1275 0.929 . S
C1287 C1281 1.390 . S
C1287 C1284 1.386 . S
C1288 C1283 1.490 . S
C1288 C1290 1.395 . S
C1288 C1291 1.403 . S
H1289 C1295 0.930 . S
C1290 H1276 0.930 . S
C1290 C1288 1.395 . S
C1290 C1293 1.403 . S
C1291 C1288 1.403 . S
C1291 C1292 1.524 . S
C1291 C1295 1.400 . S
C1292 H1277 0.960 . S
C1292 H1278 0.960 . S
C1292 H1279 0.960 . S
C1292 C1291 1.524 . S
C1293 C1290 1.403 . S
C1293 C1294 1.392 . S
C1293 C1297 1.495 . S
C1294 C1293 1.392 . S
C1294 C1295 1.385 . S
C1294 C1296 1.478 . S
C1295 H1289 0.930 . S
C1295 C1291 1.400 . S
C1295 C1294 1.385 . S
C1296 C1294 1.478 . S
C1296 C1298 1.381 . S
C1296 C1302 1.383 . S
C1297 C1293 1.495 . S
C1297 H1303 0.959 . S
C1297 H1304 0.961 . S
C1297 H1305 0.960 . S
C1298 C1296 1.381 . S
C1298 C1299 1.394 . S
C1298 H1306 0.930 . S
C1299 C1298 1.394 . S
C1299 C1300 1.383 . S
C1299 H1307 0.929 . S
C1300 C1299 1.383 . S
C1300 C1301 1.377 . S
C1301 H1285 0.930 . S
C1301 C1300 1.377 . S
C1301 C1302 1.379 . S
C1302 H1286 0.931 . S
C1302 C1296 1.383 . S
C1302 C1301 1.379 . S
H1303 C1297 0.959 . S
H1304 C1297 0.961 . S
H1305 C1297 0.960 . S
H1306 C1298 0.930 . S
H1307 C1299 0.929 . S
H1308 C1316 0.929 . S
H1309 C1318 0.930 . S
H1310 C1320 0.930 . S
H1311 C1323 0.929 . S
H1312 C1326 0.930 . S
H1313 C1328 0.960 . S
H1314 C1328 0.960 . S
H1315 C1328 0.960 . S
C1316 H1308 0.929 . S
C1316 C1317 1.377 . S
C1316 C1318 1.384 . S
C1317 C1316 1.377 . S
C1317 C1323 1.390 . S
C1318 H1309 0.930 . S
C1318 C1316 1.384 . S
C1318 C1319 1.372 . S
C1319 C1318 1.372 . S
C1319 C1320 1.400 . S
C1319 C1324 1.490 . S
C1320 H1310 0.930 . S
C1320 C1319 1.400 . S
C1320 C1323 1.386 . S
H1321 C1337 0.930 . S
H1322 C1338 0.931 . S
C1323 H1311 0.929 . S
C1323 C1317 1.390 . S
C1323 C1320 1.386 . S
C1324 C1319 1.490 . S
C1324 C1326 1.395 . S
C1324 C1327 1.403 . S
H1325 C1331 0.930 . S
C1326 H1312 0.930 . S
C1326 C1324 1.395 . S
C1326 C1329 1.403 . S
C1327 C1324 1.403 . S
C1327 C1328 1.524 . S
C1327 C1331 1.400 . S
C1328 H1313 0.960 . S
C1328 H1314 0.960 . S
C1328 H1315 0.960 . S
C1328 C1327 1.524 . S
C1329 C1326 1.403 . S
C1329 C1330 1.392 . S
C1329 C1333 1.495 . S
C1330 C1329 1.392 . S
C1330 C1331 1.385 . S
C1330 C1332 1.478 . S
C1331 H1325 0.930 . S
C1331 C1327 1.400 . S
C1331 C1330 1.385 . S
C1332 C1330 1.478 . S
C1332 C1334 1.381 . S
C1332 C1338 1.383 . S
C1333 C1329 1.495 . S
C1333 H1339 0.959 . S
C1333 H1340 0.961 . S
C1333 H1341 0.960 . S
C1334 C1332 1.381 . S
C1334 C1335 1.394 . S
C1334 H1342 0.930 . S
C1335 C1334 1.394 . S
C1335 C1336 1.383 . S
C1335 H1343 0.929 1_655 S
C1336 C1335 1.383 . S
C1336 C1337 1.377 . S
C1337 H1321 0.930 . S
C1337 C1336 1.377 . S
C1337 C1338 1.379 . S
C1338 H1322 0.931 . S
C1338 C1332 1.383 . S
C1338 C1337 1.379 . S
H1339 C1333 0.959 . S
H1340 C1333 0.961 . S
H1341 C1333 0.960 . S
H1342 C1334 0.930 . S
H1343 C1335 0.929 1_455 S
H1344 C1352 0.929 . S
H1345 C1354 0.930 . S
H1346 C1356 0.930 . S
H1347 C1359 0.929 . S
H1348 C1362 0.930 . S
H1349 C1364 0.960 . S
H1350 C1364 0.960 . S
H1351 C1364 0.960 . S
C1352 H1344 0.929 . S
C1352 C1353 1.377 . S
C1352 C1354 1.384 . S
C1353 C1352 1.377 . S
C1353 C1359 1.390 . S
C1354 H1345 0.930 . S
C1354 C1352 1.384 . S
C1354 C1355 1.372 . S
C1355 C1354 1.372 . S
C1355 C1356 1.400 . S
C1355 C1360 1.490 . S
C1356 H1346 0.930 . S
C1356 C1355 1.400 . S
C1356 C1359 1.386 . S
H1357 C1373 0.930 . S
H1358 C1374 0.931 . S
C1359 H1347 0.929 . S
C1359 C1353 1.390 . S
C1359 C1356 1.386 . S
C1360 C1355 1.490 . S
C1360 C1362 1.395 . S
C1360 C1363 1.403 . S
H1361 C1367 0.930 . S
C1362 H1348 0.930 . S
C1362 C1360 1.395 . S
C1362 C1365 1.403 . S
C1363 C1360 1.403 . S
C1363 C1364 1.524 . S
C1363 C1367 1.400 . S
C1364 H1349 0.960 . S
C1364 H1350 0.960 . S
C1364 H1351 0.960 . S
C1364 C1363 1.524 . S
C1365 C1362 1.403 . S
C1365 C1366 1.392 . S
C1365 C1369 1.495 . S
C1366 C1365 1.392 . S
C1366 C1367 1.385 . S
C1366 C1368 1.478 . S
C1367 H1361 0.930 . S
C1367 C1363 1.400 . S
C1367 C1366 1.385 . S
C1368 C1366 1.478 . S
C1368 C1370 1.381 . S
C1368 C1374 1.383 . S
C1369 C1365 1.495 . S
C1369 H1375 0.959 . S
C1369 H1376 0.961 . S
C1369 H1377 0.960 . S
C1370 C1368 1.381 . S
C1370 C1371 1.394 . S
C1370 H1378 0.930 . S
C1371 C1370 1.394 . S
C1371 C1372 1.383 . S
C1371 H1379 0.929 . S
C1372 C1371 1.383 . S
C1372 C1373 1.377 . S
C1373 H1357 0.930 . S
C1373 C1372 1.377 . S
C1373 C1374 1.379 . S
C1374 H1358 0.931 . S
C1374 C1368 1.383 . S
C1374 C1373 1.379 . S
H1375 C1369 0.959 . S
H1376 C1369 0.961 . S
H1377 C1369 0.960 . S
H1378 C1370 0.930 . S
H1379 C1371 0.929 . S
H1380 C1388 0.929 . S
H1381 C1390 0.930 . S
H1382 C1392 0.930 . S
H1383 C1395 0.929 . S
H1384 C1398 0.930 . S
H1385 C1400 0.960 . S
H1386 C1400 0.960 . S
H1387 C1400 0.960 . S
C1388 H1380 0.929 . S
C1388 C1389 1.377 . S
C1388 C1390 1.384 . S
C1389 C1388 1.377 . S
C1389 C1395 1.390 . S
C1390 H1381 0.930 . S
C1390 C1388 1.384 . S
C1390 C1391 1.372 . S
C1391 C1390 1.372 . S
C1391 C1392 1.400 . S
C1391 C1396 1.490 . S
C1392 H1382 0.930 . S
C1392 C1391 1.400 . S
C1392 C1395 1.386 . S
H1393 C1409 0.930 . S
H1394 C1410 0.931 . S
C1395 H1383 0.929 . S
C1395 C1389 1.390 . S
C1395 C1392 1.386 . S
C1396 C1391 1.490 . S
C1396 C1398 1.395 . S
C1396 C1399 1.403 . S
H1397 C1403 0.930 . S
C1398 H1384 0.930 . S
C1398 C1396 1.395 . S
C1398 C1401 1.403 . S
C1399 C1396 1.403 . S
C1399 C1400 1.524 . S
C1399 C1403 1.400 . S
C1400 H1385 0.960 . S
C1400 H1386 0.960 . S
C1400 H1387 0.960 . S
C1400 C1399 1.524 . S
C1401 C1398 1.403 . S
C1401 C1402 1.392 . S
C1401 C1405 1.495 . S
C1402 C1401 1.392 . S
C1402 C1403 1.385 . S
C1402 C1404 1.478 . S
C1403 H1397 0.930 . S
C1403 C1399 1.400 . S
C1403 C1402 1.385 . S
C1404 C1402 1.478 . S
C1404 C1406 1.381 . S
C1404 C1410 1.383 . S
C1405 C1401 1.495 . S
C1405 H1411 0.959 . S
C1405 H1412 0.961 . S
C1405 H1413 0.960 . S
C1406 C1404 1.381 . S
C1406 C1407 1.394 . S
C1406 H1414 0.930 . S
C1407 C1406 1.394 . S
C1407 C1408 1.383 . S
C1407 H1415 0.929 . S
C1408 C1407 1.383 . S
C1408 C1409 1.377 . S
C1409 H1393 0.930 . S
C1409 C1408 1.377 . S
C1409 C1410 1.379 . S
C1410 H1394 0.931 . S
C1410 C1404 1.383 . S
C1410 C1409 1.379 . S
H1411 C1405 0.959 . S
H1412 C1405 0.961 . S
H1413 C1405 0.960 . S
H1414 C1406 0.930 . S
H1415 C1407 0.929 . S
H1416 C1424 0.929 . S
H1417 C1426 0.930 . S
H1418 C1428 0.930 . S
H1419 C1431 0.929 . S
H1420 C1434 0.930 . S
H1421 C1436 0.960 . S
H1422 C1436 0.960 . S
H1423 C1436 0.960 . S
C1424 H1416 0.929 . S
C1424 C1425 1.377 . S
C1424 C1426 1.384 . S
C1425 C1424 1.377 . S
C1425 C1431 1.390 . S
C1426 H1417 0.930 . S
C1426 C1424 1.384 . S
C1426 C1427 1.372 . S
C1427 C1426 1.372 . S
C1427 C1428 1.400 . S
C1427 C1432 1.490 . S
C1428 H1418 0.930 . S
C1428 C1427 1.400 . S
C1428 C1431 1.386 . S
H1429 C1445 0.930 . S
H1430 C1446 0.931 . S
C1431 H1419 0.929 . S
C1431 C1425 1.390 . S
C1431 C1428 1.386 . S
C1432 C1427 1.490 . S
C1432 C1434 1.395 . S
C1432 C1435 1.403 . S
H1433 C1439 0.930 . S
C1434 H1420 0.930 . S
C1434 C1432 1.395 . S
C1434 C1437 1.403 . S
C1435 C1432 1.403 . S
C1435 C1436 1.524 . S
C1435 C1439 1.400 . S
C1436 H1421 0.960 . S
C1436 H1422 0.960 . S
C1436 H1423 0.960 . S
C1436 C1435 1.524 . S
C1437 C1434 1.403 . S
C1437 C1438 1.392 . S
C1437 C1441 1.495 . S
C1438 C1437 1.392 . S
C1438 C1439 1.385 . S
C1438 C1440 1.478 . S
C1439 H1433 0.930 . S
C1439 C1435 1.400 . S
C1439 C1438 1.385 . S
C1440 C1438 1.478 . S
C1440 C1442 1.381 . S
C1440 C1446 1.383 . S
C1441 C1437 1.495 . S
C1441 H1447 0.959 . S
C1441 H1448 0.961 . S
C1441 H1449 0.960 . S
C1442 C1440 1.381 . S
C1442 C1443 1.394 . S
C1442 H1450 0.930 . S
C1443 C1442 1.394 . S
C1443 C1444 1.383 . S
C1443 H1451 0.929 . S
C1444 C1443 1.383 . S
C1444 C1445 1.377 . S
C1445 H1429 0.930 . S
C1445 C1444 1.377 . S
C1445 C1446 1.379 . S
C1446 H1430 0.931 . S
C1446 C1440 1.383 . S
C1446 C1445 1.379 . S
H1447 C1441 0.959 . S
H1448 C1441 0.961 . S
H1449 C1441 0.960 . S
H1450 C1442 0.930 . S
H1451 C1443 0.929 . S
H1452 C1460 0.929 . S
H1453 C1462 0.930 . S
H1454 C1464 0.930 . S
H1455 C1467 0.929 . S
H1456 C1470 0.930 . S
H1457 C1472 0.960 . S
H1458 C1472 0.960 . S
H1459 C1472 0.960 . S
C1460 H1452 0.929 . S
C1460 C1461 1.377 . S
C1460 C1462 1.384 . S
C1461 C1460 1.377 . S
C1461 C1467 1.390 . S
C1462 H1453 0.930 . S
C1462 C1460 1.384 . S
C1462 C1463 1.372 . S
C1463 C1462 1.372 . S
C1463 C1464 1.400 . S
C1463 C1468 1.490 . S
C1464 H1454 0.930 . S
C1464 C1463 1.400 . S
C1464 C1467 1.386 . S
H1465 C1481 0.930 . S
H1466 C1482 0.931 . S
C1467 H1455 0.929 . S
C1467 C1461 1.390 . S
C1467 C1464 1.386 . S
C1468 C1463 1.490 . S
C1468 C1470 1.395 . S
C1468 C1471 1.403 . S
H1469 C1475 0.930 . S
C1470 H1456 0.930 . S
C1470 C1468 1.395 . S
C1470 C1473 1.403 . S
C1471 C1468 1.403 . S
C1471 C1472 1.524 . S
C1471 C1475 1.400 . S
C1472 H1457 0.960 . S
C1472 H1458 0.960 . S
C1472 H1459 0.960 . S
C1472 C1471 1.524 . S
C1473 C1470 1.403 . S
C1473 C1474 1.392 . S
C1473 C1477 1.495 . S
C1474 C1473 1.392 . S
C1474 C1475 1.385 . S
C1474 C1476 1.478 . S
C1475 H1469 0.930 . S
C1475 C1471 1.400 . S
C1475 C1474 1.385 . S
C1476 C1474 1.478 . S
C1476 C1478 1.381 . S
C1476 C1482 1.383 . S
C1477 C1473 1.495 . S
C1477 H1483 0.959 . S
C1477 H1484 0.961 . S
C1477 H1485 0.960 . S
C1478 C1476 1.381 . S
C1478 C1479 1.394 . S
C1478 H1486 0.930 . S
C1479 C1478 1.394 . S
C1479 C1480 1.383 . S
C1479 H1487 0.929 . S
C1480 C1479 1.383 . S
C1480 C1481 1.377 . S
C1481 H1465 0.930 . S
C1481 C1480 1.377 . S
C1481 C1482 1.379 . S
C1482 H1466 0.931 . S
C1482 C1476 1.383 . S
C1482 C1481 1.379 . S
H1483 C1477 0.959 . S
H1484 C1477 0.961 . S
H1485 C1477 0.960 . S
H1486 C1478 0.930 . S
H1487 C1479 0.929 . S
C633 C247 1.472 . S
C652 C362 1.452 . S
C688 C446 1.439 . S
C669 C283 1.473 . S
C724 C439 1.455 . S
C705 C175 1.463 . S
C741 C211 1.464 . S
C760 C355 1.458 . S
C796 C519 1.463 . S
C777 C103 1.461 . S
C832 C603 1.441 . S
C813 C139 1.461 . S
C849 C31 1.447 . S
C868 C596 1.451 . S
C885 C67 1.453 . S
C904 C512 1.452 . S
C940 C346 1.377 . S
C921 C37 1.513 1_554 S
C976 C430 1.299 . S
C957 C1 1.509 . S
C1012 C441 1.393 . S
C993 C109 1.591 . S
C1048 C357 1.443 . S
C1029 C73 1.531 . S
C1084 C525 1.372 . S
C1065 C181 1.523 1_556 S
C1101 C145 1.522 . S
C1120 C609 1.378 . S
C1156 C598 1.435 . S
C1137 C253 1.543 . S
C1173 C217 1.543 . S
C1192 C514 1.372 . S
C1228 C344 1.578 . S
C1209 C25 1.564 . S
C1264 C428 1.592 . S
C1245 C61 1.571 . S
C1281 C97 1.562 . S
C1300 C435 1.551 . S
C1336 C351 1.551 . S
C1317 C133 1.563 . S
C1372 C523 1.578 . S
C1353 C169 1.584 . S
C1389 C205 1.583 . S
C1408 C607 1.589 . S
C1425 C241 1.575 . S
C1444 C614 1.549 . S
C1461 C277 1.576 . S
C1480 C530 1.561 . S
