# Generated by pormake.
# Topology anh, (6,3)-cn, num edge types: 1
# Building blocks:
#     Node 0, Type 0, BuildingBlock: BETDAH_clean_sbu_0, # of connection points: 6
#     Node 1, Type 0, BuildingBlock: BETDAH_clean_sbu_0, # of connection points: 6
#     Node 2, Type 0, BuildingBlock: BETDAH_clean_sbu_0, # of connection points: 6
#     Node 3, Type 1, BuildingBlock: KAKCAD_clean_linker_0, # of connection points: 3
#     Node 4, Type 1, BuildingBlock: KAKCAD_clean_linker_0, # of connection points: 3
#     Node 5, Type 1, BuildingBlock: KAKCAD_clean_linker_0, # of connection points: 3
#     Node 6, Type 1, BuildingBlock: KAKCAD_clean_linker_0, # of connection points: 3
#     Node 7, Type 1, BuildingBlock: KAKCAD_clean_linker_0, # of connection points: 3
#     Node 8, Type 1, BuildingBlock: KAKCAD_clean_linker_0, # of connection points: 3
#     Edge 9, Type (0, 1), BuildingBlock: EZIPEK_clean_linker_0, # of connection points: 2
#     Edge 10, Type (0, 1), BuildingBlock: EZIPEK_clean_linker_0, # of connection points: 2
#     Edge 11, Type (0, 1), BuildingBlock: EZIPEK_clean_linker_0, # of connection points: 2
#     Edge 12, Type (0, 1), BuildingBlock: EZIPEK_clean_linker_0, # of connection points: 2
#     Edge 13, Type (0, 1), BuildingBlock: EZIPEK_clean_linker_0, # of connection points: 2
#     Edge 14, Type (0, 1), BuildingBlock: EZIPEK_clean_linker_0, # of connection points: 2
#     Edge 15, Type (0, 1), BuildingBlock: EZIPEK_clean_linker_0, # of connection points: 2
#     Edge 16, Type (0, 1), BuildingBlock: EZIPEK_clean_linker_0, # of connection points: 2
#     Edge 17, Type (0, 1), BuildingBlock: EZIPEK_clean_linker_0, # of connection points: 2
#     Edge 18, Type (0, 1), BuildingBlock: EZIPEK_clean_linker_0, # of connection points: 2
#     Edge 19, Type (0, 1), BuildingBlock: EZIPEK_clean_linker_0, # of connection points: 2
#     Edge 20, Type (0, 1), BuildingBlock: EZIPEK_clean_linker_0, # of connection points: 2
#     Edge 21, Type (0, 1), BuildingBlock: EZIPEK_clean_linker_0, # of connection points: 2
#     Edge 22, Type (0, 1), BuildingBlock: EZIPEK_clean_linker_0, # of connection points: 2
#     Edge 23, Type (0, 1), BuildingBlock: EZIPEK_clean_linker_0, # of connection points: 2
#     Edge 24, Type (0, 1), BuildingBlock: EZIPEK_clean_linker_0, # of connection points: 2
#     Edge 25, Type (0, 1), BuildingBlock: EZIPEK_clean_linker_0, # of connection points: 2
#     Edge 26, Type (0, 1), BuildingBlock: EZIPEK_clean_linker_0, # of connection points: 2
# Relax obj value: 0.212
# Max RMSD: 0.227
# Mean RMSD: 0.165
data_MOF--net-anh--node1-BETDAH_clean_sbu_0--node2-KAKCAD_clean_linker_0--edge1-EZIPEK_clean_linker_0
_symmetry_space_group_name_H-M    P1
_symmetry_Int_Tables_number       1
_symmetry_cell_setting            triclinic
loop_
_symmetry_equiv_pos_as_xyz
'x, y, z'
_cell_length_a     28.221369
_cell_length_b     35.374854
_cell_length_c     52.679511
_cell_angle_alpha  91.829837
_cell_angle_beta   91.077115
_cell_angle_gamma 130.19164
loop_
_atom_site_label
_atom_site_type_symbol
_atom_site_fract_x
_atom_site_fract_y
_atom_site_fract_z
_atom_type_partial_charge
Ho0 Ho 0.14665 0.50651 0.13652 0.0
Ho1 Ho 1.05565 0.52115 0.15379 0.0
C2 C 0.19783 0.61898 0.14858 0.0
C3 C 0.2318 0.51231 0.1144 0.0
C4 C 0.29869 0.55194 0.11212 0.0
C5 C 0.32646 0.60224 0.11485 0.0
C6 C 0.39121 0.63918 0.11687 0.0
C7 C 0.42834 0.62582 0.11616 0.0
C8 C 0.40046 0.57573 0.11238 0.0
C9 C 0.33611 0.53906 0.11042 0.0
C10 C 0.12528 0.49807 0.18652 0.0
C11 C 1.00583 0.41062 0.1425 0.0
C12 C 0.98904 0.53117 0.18076 0.0
C13 C 0.92292 0.49547 0.18692 0.0
C14 C 0.90433 0.46535 0.20778 0.0
C15 C 0.84134 0.42861 0.21223 0.0
C16 C 0.79629 0.42165 0.19591 0.0
C17 C 0.81465 0.4525 0.17562 0.0
C18 C 0.87734 0.48916 0.17118 0.0
C19 C 1.05164 0.50243 0.10313 0.0
O20 O 0.21132 0.58982 0.14397 0.0
O21 O 0.14049 0.60137 0.15191 0.0
O22 O 0.21571 0.49807 0.13747 0.0
O23 O 0.19456 0.51658 0.1024 0.0
O24 O 0.13445 0.47162 0.17368 0.0
O25 O 0.13134 0.52892 0.1725 0.0
O26 O 1.00133 0.43926 0.15707 0.0
O27 O 1.05446 0.4296 0.12847 0.0
O28 O 1.00088 0.54398 0.15711 0.0
O29 O 1.0244 0.52279 0.19043 0.0
O30 O 1.00362 0.48885 0.11525 0.0
O31 O 1.09891 0.52866 0.11807 0.0
H32 H 0.29828 0.61284 0.11619 0.0
H33 H 0.41214 0.67772 0.11963 0.0
H34 H 0.42871 0.56494 0.11168 0.0
H35 H 0.31553 0.50049 0.10853 0.0
H36 H 0.93836 0.46958 0.22044 0.0
H37 H 0.82775 0.40546 0.22817 0.0
H38 H 0.78022 0.44796 0.16307 0.0
H39 H 0.88996 0.51192 0.15515 0.0
Ho40 Ho 0.67831 0.03901 0.47434 0.0
Ho41 Ho 0.5875 0.05616 0.46173 0.0
C42 C 0.53115 0.94361 0.46218 0.0
C43 C 0.73243 1.01123 0.4969 0.0
C44 C 0.7191 0.96393 0.50017 0.0
C45 C 0.70871 0.94587 0.52458 0.0
C46 C 0.69639 0.90141 0.52826 0.0
C47 C 0.69474 0.87451 0.50762 0.0
C48 C 0.70503 0.89229 0.48318 0.0
C49 C 0.71693 0.93663 0.47944 0.0
C50 C 0.665 0.04604 0.42433 0.0
C51 C 0.73689 0.15088 0.46861 0.0
C52 C 0.53065 0.08617 0.4452 0.0
C53 C 0.53928 0.13034 0.4534 0.0
C54 C 0.5157 0.14739 0.43834 0.0
C55 C 0.52514 0.19003 0.44634 0.0
C56 C 0.55808 0.21569 0.46949 0.0
C57 C 0.58216 0.19887 0.48437 0.0
C58 C 0.573 0.15655 0.47634 0.0
C59 C 0.60549 0.0518 0.51192 0.0
O60 O 0.58538 0.96075 0.47254 0.0
O61 O 0.52294 0.97374 0.45328 0.0
O62 O 0.74546 0.02829 0.47413 0.0
O63 O 0.69601 0.01645 0.50834 0.0
O64 O 0.71528 0.05894 0.43548 0.0
O65 O 0.62181 0.02486 0.43971 0.0
O66 O 0.68117 0.13306 0.45993 0.0
O67 O 0.74651 0.12222 0.47842 0.0
O68 O 0.50837 0.05292 0.46213 0.0
O69 O 0.57777 0.09511 0.43419 0.0
O70 O 0.55452 0.03872 0.50168 0.0
O71 O 0.64558 0.07143 0.49542 0.0
H72 H 0.71031 0.96626 0.54085 0.0
H73 H 0.68874 0.88819 0.54725 0.0
H74 H 0.70415 0.87196 0.46709 0.0
H75 H 0.72468 0.94953 0.46038 0.0
H76 H 0.49007 0.12777 0.42049 0.0
H77 H 0.50635 0.20274 0.4347 0.0
H78 H 0.60781 0.21842 0.50223 0.0
H79 H 0.59201 0.14409 0.48807 0.0
Ho80 Ho 0.6738 0.58069 0.83373 0.0
Ho81 Ho 0.58442 0.46868 0.83501 0.0
C82 C 0.52812 0.52313 0.84003 0.0
C83 C 0.74793 0.67167 0.82098 0.0
C84 C 0.74155 0.70939 0.81743 0.0
C85 C 0.6844 0.69545 0.80896 0.0
C86 C 0.67999 0.73147 0.80342 0.0
C87 C 0.7323 0.78196 0.8068 0.0
C88 C 0.78871 0.79599 0.81648 0.0
C89 C 0.7934 0.75987 0.82155 0.0
C90 C 0.63996 0.54612 0.88053 0.0
C91 C 0.73313 0.52688 0.83348 0.0
C92 C 0.52796 0.37631 0.84184 0.0
C93 C 0.54509 0.34494 0.83915 0.0
C94 C 0.59551 0.35995 0.82473 0.0
C95 C 0.60708 0.3277 0.81948 0.0
C96 C 0.56816 0.27983 0.82839 0.0
C97 C 0.51899 0.26525 0.84354 0.0
C98 C 0.50757 0.29771 0.8489 0.0
C99 C 0.59204 0.5046 0.78921 0.0
O100 O 0.57916 0.56023 0.82913 0.0
O101 O 0.52379 0.48597 0.8484 0.0
O102 O 0.74586 0.65912 0.84427 0.0
O103 O 0.7158 0.63345 0.80457 0.0
O104 O 0.64965 0.58538 0.87362 0.0
O105 O 0.65152 0.52904 0.86275 0.0
O106 O 0.67544 0.48399 0.83083 0.0
O107 O 0.7447 0.5697 0.83572 0.0
O108 O 0.52434 0.39247 0.82061 0.0
O109 O 0.55604 0.41065 0.86039 0.0
O110 O 0.5409 0.46648 0.79813 0.0
O111 O 0.63646 0.52053 0.8048 0.0
H112 H 0.64346 0.65673 0.80611 0.0
H113 H 0.636 0.72001 0.79619 0.0
H114 H 0.82943 0.83484 0.8193 0.0
H115 H 0.83774 0.77133 0.82824 0.0
H116 H 0.62441 0.39577 0.81659 0.0
H117 H 0.64493 0.33937 0.80762 0.0
H118 H 0.48837 0.22827 0.85044 0.0
H119 H 0.46818 0.28533 0.85988 0.0
C120 C 0.66871 0.06749 0.30126 0.0
C121 C 0.63689 0.02367 0.3142 0.0
C122 C 0.66427 0.06588 0.27475 0.0
C123 C 0.63073 0.0205 0.2602 0.0
C124 C 0.60054 0.97671 0.27342 0.0
C125 C 0.60208 0.97821 0.30001 0.0
C126 C 0.62627 0.01898 0.2316 0.0
C127 C 0.67069 0.06113 0.2182 0.0
C128 C 0.66396 0.06205 0.1917 0.0
C129 C 0.61483 0.01754 0.17789 0.0
C130 C 0.5724 0.97381 0.19075 0.0
C131 C 0.57703 0.97572 0.21743 0.0
C132 C 0.52263 0.92487 0.17731 0.0
C133 C 0.47599 0.91716 0.16154 0.0
C134 C 0.51676 0.88364 0.18349 0.0
C135 C 0.46385 0.83561 0.17551 0.0
C136 C 0.41562 0.82763 0.16109 0.0
C137 C 0.70884 0.11035 0.17936 0.0
C138 C 0.73171 0.15495 0.19262 0.0
C139 C 0.73173 0.11326 0.15531 0.0
C140 C 0.77806 0.15962 0.14542 0.0
C141 C 0.80304 0.20382 0.1596 0.0
C142 C 0.77858 0.20087 0.18305 0.0
C143 C 0.42267 0.86875 0.15351 0.0
H144 H 0.69581 0.1031 0.31176 0.0
H145 H 0.68662 0.1006 0.26597 0.0
H146 H 0.57571 0.94089 0.26351 0.0
H147 H 0.57702 0.94383 0.30954 0.0
H148 H 0.71147 0.09383 0.22834 0.0
H149 H 0.54098 0.94282 0.22695 0.0
H150 H 0.6096 0.01673 0.15742 0.0
H151 H 0.47906 0.94819 0.15672 0.0
H152 H 0.55203 0.88851 0.19558 0.0
H153 H 0.45935 0.80445 0.18151 0.0
H154 H 0.71392 0.15453 0.21074 0.0
H155 H 0.71536 0.07994 0.14449 0.0
H156 H 0.38575 0.86324 0.14242 0.0
H157 H 0.79612 0.23437 0.19407 0.0
H158 H 0.79573 0.16109 0.12707 0.0
C159 C 0.5732 0.52481 0.66673 0.0
C160 C 0.61529 0.52371 0.68052 0.0
C161 C 0.57633 0.52876 0.64042 0.0
C162 C 0.62091 0.53081 0.62745 0.0
C163 C 0.66279 0.52941 0.64125 0.0
C164 C 0.66041 0.52639 0.66765 0.0
C165 C 0.62339 0.53423 0.59954 0.0
C166 C 0.62573 0.57066 0.5882 0.0
C167 C 0.62706 0.57383 0.56167 0.0
C168 C 0.62526 0.53948 0.54646 0.0
C169 C 0.62263 0.50259 0.55758 0.0
C170 C 0.6223 0.50057 0.58418 0.0
C171 C 0.61784 0.46487 0.54155 0.0
C172 C 0.57675 0.4415 0.51991 0.0
C173 C 0.65179 0.45002 0.54856 0.0
C174 C 0.64328 0.41153 0.53476 0.0
C175 C 0.60073 0.38728 0.51375 0.0
C176 C 0.63175 0.61382 0.55012 0.0
C177 C 0.59784 0.62731 0.55951 0.0
C178 C 0.67258 0.64055 0.53059 0.0
C179 C 0.68099 0.68104 0.52136 0.0
C180 C 0.64884 0.69542 0.53154 0.0
C181 C 0.60644 0.66784 0.55033 0.0
C182 C 0.56821 0.40292 0.50613 0.0
H183 H 0.53804 0.5227 0.67637 0.0
H184 H 0.54332 0.52947 0.63013 0.0
H185 H 0.69777 0.53125 0.63163 0.0
H186 H 0.69336 0.52576 0.67804 0.0
H187 H 0.62811 0.59737 0.60021 0.0
H188 H 0.6189 0.47165 0.59297 0.0
H189 H 0.62571 0.54136 0.52596 0.0
H190 H 0.5495 0.45177 0.5142 0.0
H191 H 0.68434 0.46776 0.56494 0.0
H192 H 0.66875 0.39981 0.54082 0.0
H193 H 0.56526 0.60694 0.57423 0.0
H194 H 0.69975 0.63137 0.52313 0.0
H195 H 0.53502 0.38433 0.48997 0.0
H196 H 0.58113 0.67844 0.5583 0.0
H197 H 0.71398 0.70212 0.50685 0.0
C198 C 0.14356 0.53388 0.98569 0.0
C199 C 1.08335 0.50628 -0.00556 0.0
C200 C 0.15288 0.53617 0.95958 0.0
C201 C 0.10207 0.51063 0.94167 0.0
C202 C 1.04171 0.48223 0.95064 0.0
C203 C 1.03251 0.4803 0.97672 0.0
C204 C 0.11201 0.51504 0.91379 0.0
C205 C 0.15843 0.51625 0.90341 0.0
C206 C 0.17085 0.52297 0.87732 0.0
C207 C 0.13213 0.52594 0.86118 0.0
C208 C 1.08421 0.52398 0.87147 0.0
C209 C 1.07569 0.51913 0.89765 0.0
C210 C 1.04144 0.52736 0.8564 0.0
C211 C 1.05101 0.57174 0.85791 0.0
C212 C 0.98257 0.48373 0.84729 0.0
C213 C 0.93408 0.48411 0.8409 0.0
C214 C 0.94293 0.52809 0.84363 0.0
C215 C 0.22487 0.52709 0.86823 0.0
C216 C 0.27836 0.54972 0.88452 0.0
C217 C 0.22287 0.50603 0.84458 0.0
C218 C 0.27137 0.50596 0.83807 0.0
C219 C 0.32301 0.52645 0.85511 0.0
C220 C 0.32576 0.54878 0.87827 0.0
C221 C 1.0026 0.57216 0.8515 0.0
H222 H 0.18338 0.55422 -0.00089 0.0
H223 H 0.2 0.55893 0.95344 0.0
H224 H 1.00141 0.46141 0.93749 0.0
H225 H 0.98567 0.45864 0.98311 0.0
H226 H 0.18459 0.51112 0.91589 0.0
H227 H 1.04048 0.51914 0.90555 0.0
H228 H 0.13987 0.53073 0.84106 0.0
H229 H 1.09491 0.60564 0.86571 0.0
H230 H 0.97277 0.44863 0.84678 0.0
H231 H 0.88863 0.4495 0.83506 0.0
H232 H 0.28362 0.56797 0.90254 0.0
H233 H 0.18302 0.48824 0.83141 0.0
H234 H 1.01088 0.60654 0.85399 0.0
H235 H 0.36488 0.56549 0.89175 0.0
H236 H 0.26793 0.48894 0.8199 0.0
C237 C 1.06777 0.49973 0.30779 0.0
C238 C 0.12083 0.51339 0.29617 0.0
C239 C 1.06798 0.50475 0.33424 0.0
C240 C 0.12157 0.5242 0.34943 0.0
C241 C 0.17461 0.53786 0.33772 0.0
C242 C 0.17409 0.53218 0.31133 0.0
C243 C 0.12238 0.53059 0.37743 0.0
C244 C 1.07437 0.49172 0.3913 0.0
C245 C 1.07447 0.49702 0.41792 0.0
C246 C 0.12431 0.54279 0.43064 0.0
C247 C 0.17329 0.58219 0.41682 0.0
C248 C 0.17153 0.57546 0.39028 0.0
C249 C 0.2266 0.63125 0.42923 0.0
C250 C 0.21696 0.65801 0.44533 0.0
C251 C 0.28745 0.65434 0.42227 0.0
C252 C 0.33684 0.70381 0.42992 0.0
C253 C 0.3266 0.73132 0.44475 0.0
C254 C 1.02352 0.45318 0.43179 0.0
C255 C 0.96246 0.42077 0.42082 0.0
C256 C 1.03628 0.43986 0.4542 0.0
C257 C 0.99029 0.39367 0.4642 0.0
C258 C 0.93113 0.35986 0.45176 0.0
C259 C 0.91709 0.37452 0.43052 0.0
C260 C 0.26664 0.70779 0.45297 0.0
H261 H 1.02636 0.48532 0.29635 0.0
H262 H 1.02664 0.49425 0.3428 0.0
H263 H 0.2163 0.55253 0.34901 0.0
H264 H 0.2154 0.54281 0.30266 0.0
H265 H 1.03779 0.45652 0.38125 0.0
H266 H 0.20808 0.60581 0.37942 0.0
H267 H 0.12527 0.54766 0.4511 0.0
H268 H 0.1706 0.64137 0.45082 0.0
H269 H 0.29645 0.63457 0.41006 0.0
H270 H 0.38277 0.72122 0.42348 0.0
H271 H 0.95036 0.43026 0.40397 0.0
H272 H 1.08265 0.46373 0.46313 0.0
H273 H 0.25788 0.72849 0.46444 0.0
H274 H 0.87156 0.34929 0.42083 0.0
H275 H 1.00191 0.38309 0.48071 0.0
C276 C 0.62298 1.00034 0.63139 0.0
C277 C 0.64182 0.0433 0.62013 0.0
C278 C 0.62761 0.99967 0.65784 0.0
C279 C 0.65249 0.04232 0.67357 0.0
C280 C 0.67339 0.08579 0.662 0.0
C281 C 0.66748 0.08608 0.63564 0.0
C282 C 0.65565 0.04147 0.70189 0.0
C283 C 0.66672 0.01247 0.7136 0.0
C284 C 0.66957 1.01165 0.74022 0.0
C285 C 0.66247 0.04099 0.75536 0.0
C286 C 0.65104 0.07008 0.74407 0.0
C287 C 0.64699 0.06951 0.71739 0.0
C288 C 0.642 0.10049 0.75986 0.0
C289 C 0.60587 0.08157 0.78137 0.0
C290 C 0.66732 0.14807 0.75275 0.0
C291 C 0.655 0.17529 0.76622 0.0
C292 C 0.61753 0.15569 0.78716 0.0
C293 C 0.67929 0.97951 0.75206 0.0
C294 C 0.64189 0.9292 0.74392 0.0
C295 C 0.72652 0.99891 0.77107 0.0
C296 C 0.73716 0.96876 0.78128 0.0
C297 C 0.69988 0.91859 0.77297 0.0
C298 C 0.6518 0.89892 0.75443 0.0
C299 C 0.59374 0.109 0.79493 0.0
H300 H 0.60311 0.96694 0.61972 0.0
H301 H 0.61022 0.96529 0.66592 0.0
H302 H 0.69434 0.11978 0.67328 0.0
H303 H 0.68264 0.1197 0.62731 0.0
H304 H 0.67441 0.99109 0.7021 0.0
H305 H 0.63538 0.09012 0.70868 0.0
H306 H 0.66539 0.04081 0.77589 0.0
H307 H 0.58522 0.04492 0.78722 0.0
H308 H 0.69621 0.16412 0.73657 0.0
H309 H 0.67381 0.21135 0.76005 0.0
H310 H 0.60491 0.91331 0.72942 0.0
H311 H 0.75614 0.03764 0.77755 0.0
H312 H 0.56447 0.09332 0.81102 0.0
H313 H 0.62274 0.86031 0.74777 0.0
H314 H 0.77466 0.98454 0.79549 0.0
C315 C 0.59137 0.45448 -0.00502 0.0
C316 C 0.63851 0.50004 0.98481 0.0
C317 C 0.59123 0.44959 0.02123 0.0
C318 C 0.63823 0.49023 0.03749 0.0
C319 C 0.68748 0.53463 0.02693 0.0
C320 C 0.68752 0.53951 0.0008 0.0
C321 C 0.63165 0.48898 0.0653 0.0
C322 C 0.615 0.4487 0.07881 0.0
C323 C 0.60458 0.447 0.10492 0.0
C324 C 0.60985 0.48544 0.1173 0.0
C325 C 0.62763 0.52614 0.10402 0.0
C326 C 0.63868 0.52776 0.07816 0.0
C327 C 0.62769 0.56447 0.11586 0.0
C328 C 0.57239 0.55025 0.12513 0.0
C329 C 0.67855 0.61511 0.11382 0.0
C330 C 0.67231 0.65072 0.11901 0.0
C331 C 0.61448 0.6356 0.12532 0.0
C332 C 0.59503 0.40837 0.12007 0.0
C333 C 0.63903 0.40198 0.11966 0.0
C334 C 0.5479 0.38307 0.1375 0.0
C335 C 0.54799 0.35507 0.15568 0.0
C336 C 0.59651 0.35355 0.15719 0.0
C337 C 0.64005 0.37519 0.13809 0.0
C338 C 0.56571 0.58551 0.12964 0.0
H339 H 0.55341 0.42363 0.98276 0.0
H340 H 0.55255 0.4151 0.02892 0.0
H341 H 0.72461 0.56631 0.03904 0.0
H342 H 0.72449 0.57476 0.99316 0.0
H343 H 0.61067 0.41901 0.06913 0.0
H344 H 0.64946 0.55818 0.06768 0.0
H345 H 0.60179 0.48442 0.13741 0.0
H346 H 0.53256 0.51144 0.12674 0.0
H347 H 0.72179 0.62672 0.10681 0.0
H348 H 0.71088 0.68934 0.11619 0.0
H349 H 0.67591 0.42116 0.10644 0.0
H350 H 0.51269 0.38679 0.13777 0.0
H351 H 0.5208 0.57312 0.13478 0.0
H352 H 0.67818 0.37489 0.13849 0.0
H353 H 0.51181 0.33671 0.16912 0.0
C354 C 0.52284 0.66888 0.1446 0.0
C355 C 0.49664 0.66254 0.12007 0.0
C356 C 0.58263 0.67505 0.10031 0.0
C357 C 0.59965 0.66885 0.12437 0.0
N358 N 0.60582 0.68103 0.16957 0.0
N359 N 0.51255 0.68025 0.0762 0.0
C360 C 0.57734 0.67449 0.14668 0.0
C361 C 0.53148 0.67391 0.09848 0.0
N362 N 0.49218 0.66487 0.16545 0.0
N363 N 0.61125 0.67704 0.07917 0.0
H364 H 0.4742 0.67855 0.07517 0.0
H365 H 0.53685 0.69078 0.05966 0.0
H366 H 0.65048 0.6801 0.08022 0.0
H367 H 0.5965 0.67573 0.06068 0.0
H368 H 0.50523 0.66455 0.18399 0.0
H369 H 0.45274 0.66161 0.16383 0.0
H370 H 0.59356 0.68677 0.18688 0.0
H371 H 0.64515 0.68402 0.17065 0.0
C372 C 0.78659 0.24044 0.47775 0.0
C373 C 0.79011 0.20502 0.46688 0.0
C374 C 0.89209 0.2727 0.45075 0.0
C375 C 0.88524 0.30742 0.45915 0.0
N376 N 0.82434 0.32468 0.47901 0.0
N377 N 0.84221 0.1871 0.4397 0.0
C378 C 0.83202 0.29135 0.47225 0.0
C379 C 0.8422 0.22109 0.45279 0.0
N380 N 0.7409 0.2256 0.49402 0.0
N381 N 0.94614 0.28893 0.44045 0.0
H382 H 0.80675 0.14907 0.44029 0.0
H383 H 0.87461 0.19636 0.42644 0.0
H384 H 0.98228 0.32586 0.43689 0.0
H385 H 0.95723 0.26632 0.43712 0.0
H386 H 0.73901 0.24999 0.50453 0.0
H387 H 0.7075 0.18893 0.49879 0.0
H388 H 0.78317 0.31457 0.48556 0.0
H389 H 0.85826 0.3626 0.47667 0.0
C390 C 0.75239 0.84279 0.77575 0.0
C391 C 0.72817 0.81993 0.79914 0.0
C392 C 0.69151 0.86608 0.80676 0.0
C393 C 0.71262 0.88675 0.78272 0.0
N394 N 0.76273 0.89596 0.74408 0.0
N395 N 0.67412 0.80799 0.83692 0.0
C396 C 0.74338 0.87566 0.76723 0.0
C397 C 0.69785 0.83133 0.81473 0.0
N398 N 0.78406 0.83292 0.76175 0.0
N399 N 0.66575 0.88006 0.82194 0.0
H400 H 0.68111 0.78465 0.84404 0.0
H401 H 0.64568 0.80998 0.84804 0.0
H402 H 0.65784 0.9036 0.81622 0.0
H403 H 0.65459 0.87052 0.84064 0.0
H404 H 0.80869 0.85174 0.74595 0.0
H405 H 0.7881 0.80667 0.76644 0.0
H406 H 0.77921 0.88576 0.73038 0.0
H407 H 0.76062 0.92261 0.73795 0.0
C408 C 0.69513 0.33697 0.18575 0.0
C409 C 0.72913 0.38328 0.19966 0.0
C410 C 0.63523 0.37268 0.20183 0.0
C411 C 0.61083 0.3389 0.18046 0.0
N412 N 0.59945 0.27176 0.16072 0.0
N413 N 0.72925 0.43963 0.22642 0.0
C414 C 0.63373 0.31375 0.17632 0.0
C415 C 0.69776 0.39853 0.21017 0.0
N416 N 0.72342 0.31804 0.18013 0.0
N417 N 0.59935 0.38065 0.21333 0.0
H418 H 0.77471 0.45782 0.23322 0.0
H419 H 0.7111 0.4561 0.23251 0.0
H420 H 0.55247 0.35956 0.20798 0.0
H421 H 0.61382 0.40353 0.22973 0.0
H422 H 0.70195 0.28476 0.16969 0.0
H423 H 0.76859 0.33546 0.18698 0.0
H424 H 0.61315 0.25153 0.15567 0.0
H425 H 0.55546 0.2569 0.15341 0.0
C426 C 0.46039 0.85668 0.47831 0.0
C427 C 0.48007 0.88881 0.45797 0.0
C428 C 0.39497 0.81822 0.43017 0.0
C429 C 0.37812 0.78569 0.44985 0.0
N430 N 0.4008 0.77219 0.4912 0.0
N431 N 0.47644 0.89678 0.41274 0.0
C432 C 0.41258 0.80444 0.47353 0.0
C433 C 0.45011 0.86867 0.4334 0.0
N434 N 0.48567 0.87594 0.5024 0.0
N435 N 0.35772 0.8011 0.40846 0.0
H436 H 0.51896 0.93283 0.41389 0.0
H437 H 0.45998 0.88252 0.39408 0.0
H438 H 0.31714 0.76432 0.40526 0.0
H439 H 0.36403 0.8243 0.3947 0.0
H440 H 0.46792 0.85514 0.51842 0.0
H441 H 0.52176 0.91349 0.50681 0.0
H442 H 0.42904 0.78292 0.50756 0.0
H443 H 0.36534 0.7339 0.48857 0.0
C444 C 0.54005 0.21081 0.79841 0.0
C445 C 0.57619 0.24392 0.81984 0.0
C446 C 0.6378 0.21731 0.82085 0.0
C447 C 0.60053 0.18329 0.79986 0.0
N448 N 0.50933 0.14041 0.77164 0.0
N449 N 0.65181 0.27325 0.85425 0.0
C450 C 0.54937 0.17773 0.78962 0.0
C451 C 0.62275 0.24543 0.83195 0.0
N452 N 0.49876 0.21256 0.78577 0.0
N453 N 0.68868 0.2238 0.82958 0.0
H454 H 0.64212 0.29456 0.86268 0.0
H455 H 0.68185 0.27239 0.86544 0.0
H456 H 0.69979 0.20266 0.82243 0.0
H457 H 0.72193 0.2519 0.84283 0.0
H458 H 0.47666 0.19389 0.76827 0.0
H459 H 0.48959 0.23553 0.79184 0.0
H460 H 0.46742 0.13087 0.76541 0.0
H461 H 0.5154 0.1161 0.76436 0.0
C462 C 0.62645 0.78157 0.50436 0.0
C463 C 0.6843 0.82847 0.51194 0.0
C464 C 0.71833 0.78812 0.53276 0.0
C465 C 0.66221 0.74126 0.52376 0.0
N466 N 0.56786 0.69315 0.49716 0.0
N467 N 0.79015 0.87685 0.52846 0.0
C468 C 0.61772 0.73791 0.50836 0.0
C469 C 0.73177 0.83187 0.52466 0.0
N470 N 0.5791 0.77866 0.49429 0.0
N471 N 0.75759 0.79088 0.54992 0.0
H472 H 0.80187 0.90977 0.52265 0.0
H473 H 0.82827 0.88098 0.53521 0.0
H474 H 0.7495 0.75972 0.55645 0.0
H475 H 0.79547 0.82388 0.55935 0.0
H476 H 0.53383 0.74543 0.49101 0.0
H477 H 0.58376 0.80982 0.49104 0.0
H478 H 0.53725 0.68907 0.48364 0.0
H479 H 0.5601 0.66045 0.49974 0.0
C480 C 0.83293 0.54927 0.8173 0.0
C481 C 0.78642 0.52648 0.83559 0.0
C482 C 0.84443 0.50744 0.85968 0.0
C483 C 0.88866 0.52724 0.84057 0.0
N484 N 0.92075 0.56132 0.79952 0.0
N485 N 0.74391 0.47782 0.87261 0.0
C486 C 0.88179 0.54679 0.81896 0.0
C487 C 0.79091 0.50356 0.8562 0.0
N488 N 0.83035 0.57324 0.7982 0.0
N489 N 0.85519 0.49454 0.88191 0.0
H490 H 0.70625 0.47688 0.87223 0.0
H491 H 0.74011 0.45474 0.88576 0.0
H492 H 0.89349 0.49679 0.88531 0.0
H493 H 0.82934 0.4857 0.89789 0.0
H494 H 0.86622 0.59578 0.78609 0.0
H495 H 0.79329 0.57271 0.79518 0.0
H496 H 0.91486 0.57096 0.78201 0.0
H497 H 0.95681 0.56022 0.80018 0.0
C498 C 0.28913 0.69767 0.1301 0.0
C499 C 0.24984 0.67367 0.15073 0.0
C500 C 0.31205 0.75359 0.17548 0.0
C501 C 0.35584 0.7759 0.15625 0.0
N502 N 0.38958 0.76867 0.11611 0.0
N503 N 0.22746 0.67777 0.19429 0.0
C504 C 0.34523 0.74783 0.13372 0.0
C505 C 0.26182 0.70145 0.17368 0.0
N506 N 0.27157 0.67309 0.10674 0.0
N507 N 0.31828 0.78244 0.19544 0.0
H508 H 0.19019 0.6398 0.19394 0.0
H509 H 0.23889 0.69496 0.21242 0.0
H510 H 0.35502 0.82057 0.19764 0.0
H511 H 0.2844 0.7695 0.20859 0.0
H512 H 0.29494 0.69 0.09034 0.0
H513 H 0.23029 0.63672 0.10327 0.0
H514 H 0.38812 0.74845 0.10084 0.0
H515 H 0.43015 0.80573 0.11773 0.0
C516 C 0.52152 0.25308 0.49448 0.0
C517 C 0.56635 0.25966 0.47877 0.0
C518 C 0.62907 0.34984 0.48302 0.0
C519 C 0.58747 0.34333 0.50076 0.0
N520 N 0.49814 0.28978 0.52592 0.0
N521 N 0.66537 0.3133 0.45963 0.0
C522 C 0.5345 0.29519 0.50708 0.0
C523 C 0.62081 0.30782 0.47337 0.0
N524 N 0.46633 0.20651 0.49718 0.0
N525 N 0.67564 0.3961 0.47506 0.0
H526 H 0.65987 0.28332 0.4515 0.0
H527 H 0.70932 0.34727 0.45758 0.0
H528 H 0.68324 0.42769 0.48196 0.0
H529 H 0.7037 0.40282 0.46026 0.0
H530 H 0.42895 0.1996 0.50603 0.0
H531 H 0.45589 0.17462 0.48882 0.0
H532 H 0.46333 0.25602 0.53353 0.0
H533 H 0.5056 0.31967 0.53543 0.0
C534 C 0.4118 0.4797 0.83867 0.0
C535 C 0.47502 0.52378 0.84304 0.0
C536 C 0.43743 0.57006 0.84955 0.0
C537 C 0.37468 0.52519 0.84924 0.0
N538 N 0.30444 0.43578 0.84834 0.0
N539 N 0.54524 0.60985 0.85873 0.0
C540 C 0.36251 0.47956 0.84512 0.0
C541 C 0.48709 0.56873 0.85006 0.0
N542 N 0.39813 0.43832 0.82717 0.0
N543 N 0.44997 0.61429 0.84874 0.0
H544 H 0.5821 0.61014 0.86138 0.0
H545 H 0.55496 0.64193 0.86626 0.0
H546 H 0.41515 0.61679 0.84752 0.0
H547 H 0.4944 0.64771 0.84641 0.0
H548 H 0.35301 0.40686 0.82143 0.0
H549 H 0.43195 0.43739 0.82058 0.0
H550 H 0.29466 0.40188 0.84819 0.0
H551 H 0.26755 0.43378 0.85371 0.0
C552 C 0.96703 0.32442 0.15039 0.0
C553 C 0.9545 0.35554 0.14259 0.0
C554 C 0.84196 0.28458 0.14232 0.0
C555 C 0.85465 0.25389 0.15042 0.0
N556 N 0.92814 0.2414 0.15766 0.0
N557 N 0.88053 0.36306 0.12636 0.0
C558 C 0.91687 0.27279 0.1528 0.0
C559 C 0.892 0.33486 0.13714 0.0
N560 N 1.02649 0.34467 0.15728 0.0
N561 N 0.78172 0.26571 0.14012 0.0
H562 H 0.91556 0.39989 0.12244 0.0
H563 H 0.83702 0.34932 0.11934 0.0
H564 H 0.74386 0.22828 0.14185 0.0
H565 H 0.76887 0.28711 0.13757 0.0
H566 H 1.03787 0.3257 0.1665 0.0
H567 H 1.06485 0.38173 0.15548 0.0
H568 H 0.97153 0.25111 0.15645 0.0
H569 H 0.89321 0.20417 0.1611 0.0
C570 C 1.08564 0.5478 0.06268 0.0
C571 C 1.05464 0.50262 0.07497 0.0
C572 C 1.04535 0.4607 0.03479 0.0
C573 C 1.07339 0.50507 0.0222 0.0
N574 N 0.10922 0.58813 0.02288 0.0
N575 N 0.99237 0.41388 0.07163 0.0
C576 C 1.09062 0.54797 0.03581 0.0
C577 C 1.03044 0.45835 0.06065 0.0
N578 N 0.1102 0.5906 0.07665 0.0
N579 N 1.03529 0.42138 0.02235 0.0
H580 H 0.97997 0.41079 0.09037 0.0
H581 H 0.96825 0.37982 0.06153 0.0
H582 H 1.04618 0.42181 0.00349 0.0
H583 H 1.02142 0.39007 0.03132 0.0
H584 H 0.14061 0.62565 0.06951 0.0
H585 H 0.10255 0.59147 0.09587 0.0
H586 H 0.11604 0.61848 0.03123 0.0
H587 H 0.11284 0.58947 0.0032 0.0
C588 C 0.65833 1.00441 0.38326 0.0
C589 C 0.6541 0.03773 0.39633 0.0
C590 C 0.62534 0.05242 0.35618 0.0
C591 C 0.63972 0.0259 0.3426 0.0
N592 N 0.68417 0.98592 0.34394 0.0
N593 N 0.65191 0.10445 0.39375 0.0
C594 C 0.65992 1.00413 0.3563 0.0
C595 C 0.64249 0.06477 0.38243 0.0
N596 N 0.6602 0.97272 0.39643 0.0
N597 N 0.59425 0.06502 0.34426 0.0
H598 H 0.67052 0.11744 0.4123 0.0
H599 H 0.64874 0.12777 0.38374 0.0
H600 H 0.57775 0.05426 0.3253 0.0
H601 H 0.57889 0.08114 0.35405 0.0
H602 H 0.65758 0.94465 0.3875 0.0
H603 H 0.65798 0.97121 0.41616 0.0
H604 H 0.70465 0.97393 0.35348 0.0
H605 H 0.6902 0.98789 0.32443 0.0
C606 C 0.61117 0.55131 0.75041 0.0
C607 C 0.59983 0.51035 0.76153 0.0
C608 C 0.59442 0.47625 0.71933 0.0
C609 C 0.61176 0.51963 0.70852 0.0
N610 N 0.64995 0.60327 0.71451 0.0
N611 N 0.59357 0.43901 0.75726 0.0
C612 C 0.62411 0.55866 0.72429 0.0
C613 C 0.59539 0.47435 0.7462 0.0
N614 N 0.60726 0.58217 0.7645 0.0
N615 N 0.57443 0.43604 0.70398 0.0
H616 H 0.59465 0.43649 0.7769 0.0
H617 H 0.59691 0.41515 0.74707 0.0
H618 H 0.57173 0.43546 0.68419 0.0
H619 H 0.555 0.40169 0.71089 0.0
H620 H 0.60884 0.60968 0.75676 0.0
H621 H 0.5966 0.5772 0.78354 0.0
H622 H 0.66571 0.63457 0.72572 0.0
H623 H 0.66127 0.61042 0.69554 0.0
C624 C 0.56514 1.0101 0.55348 0.0
C625 C 0.61578 0.0486 0.53946 0.0
C626 C 0.68497 0.07639 0.57744 0.0
C627 C 0.63297 0.04338 0.59215 0.0
N628 N 0.52142 0.98627 0.59476 0.0
N629 N 0.72167 0.12695 0.54133 0.0
C630 C 0.57238 1.0123 0.58036 0.0
C631 C 0.67533 0.08405 0.55222 0.0
N632 N 0.51066 0.97024 0.54136 0.0
N633 N 0.74365 0.10021 0.5874 0.0
H634 H 0.71535 0.13749 0.52428 0.0
H635 H 0.76392 0.15535 0.55094 0.0
H636 H 0.75246 0.09484 0.60568 0.0
H637 H 0.78271 0.12105 0.57655 0.0
H638 H 0.47526 0.93927 0.5508 0.0
H639 H 0.50324 0.96495 0.52169 0.0
H640 H 0.47646 0.96722 0.58709 0.0
H641 H 0.52435 0.98789 0.61458 0.0
C642 C 0.68593 0.53424 0.9173 0.0
C643 C 0.6395 0.53514 0.90743 0.0
C644 C 0.59347 0.51513 0.949 0.0
C645 C 0.6353 0.50824 0.95767 0.0
N646 N 0.71356 0.50206 0.94864 0.0
N647 N 0.54505 0.52179 0.91298 0.0
C648 C 0.67899 0.51479 0.94131 0.0
C649 C 0.59207 0.5243 0.92303 0.0
N650 N 0.73894 0.55526 0.90465 0.0
N651 N 0.55706 0.51509 0.96578 0.0
H652 H 0.54371 0.53029 0.89438 0.0
H653 H 0.50526 0.50812 0.92255 0.0
H654 H 0.55651 0.50843 0.98496 0.0
H655 H 0.53104 0.52556 0.96121 0.0
H656 H 0.77665 0.55956 0.91221 0.0
H657 H 0.74849 0.57375 0.88803 0.0
H658 H 0.74156 0.50137 0.93637 0.0
H659 H 0.70955 0.48758 0.96619 0.0
C660 C 1.08167 0.45787 0.228 0.0
C661 C 0.12525 0.5011 0.21467 0.0
C662 C 0.16064 0.55228 0.25436 0.0
C663 C 0.12129 0.50888 0.26804 0.0
N664 N 1.05316 0.41972 0.26853 0.0
N665 N 0.2187 0.58718 0.21666 0.0
C666 C 1.0842 0.4614 0.25505 0.0
C667 C 0.16825 0.54776 0.22824 0.0
N668 N 1.0366 0.41375 0.2149 0.0
N669 N 0.18958 0.59787 0.26611 0.0
H670 H 0.22861 0.58476 0.19801 0.0
H671 H 0.25447 0.62066 0.22645 0.0
H672 H 0.18438 0.6028 0.28518 0.0
H673 H 0.21363 0.63019 0.25626 0.0
H674 H 0.9993 0.38244 0.2235 0.0
H675 H 1.03361 0.40939 0.19516 0.0
H676 H 1.03082 0.3845 0.26015 0.0
H677 H 1.0544 0.42077 0.28835 0.0
loop_
_geom_bond_atom_site_label_1
_geom_bond_atom_site_label_2
_geom_bond_distance
_geom_bond_site_symmetry_2
_ccdc_geom_bond_type
Ho0 C3 2.811 . S
Ho0 O20 2.322 . S
Ho0 O22 2.378 . S
Ho0 O23 2.524 . S
Ho0 O24 2.381 . S
Ho0 O25 2.669 . S
Ho0 O27 2.346 1_455 S
Ho0 O31 2.305 . S
Ho1 C12 2.811 . S
Ho1 O21 2.346 1_655 S
Ho1 O25 2.305 1_655 S
Ho1 O26 2.322 . S
Ho1 O28 2.378 . S
Ho1 O29 2.524 . S
Ho1 O30 2.378 1_655 S
Ho1 O31 2.669 1_655 S
C2 O20 1.259 . S
C2 O21 1.268 . S
C3 Ho0 2.811 . S
C3 C4 1.488 . S
C3 O22 1.215 . S
C3 O23 1.289 . S
C4 C3 1.488 . S
C4 C5 1.348 . S
C4 C9 1.413 . S
C5 C4 1.348 . S
C5 C6 1.442 . S
C5 H32 0.930 . S
C6 C5 1.442 . S
C6 C7 1.381 . S
C6 H33 0.931 . S
C7 C6 1.381 . S
C7 C8 1.321 . S
C8 C7 1.321 . S
C8 C9 1.403 . S
C8 H34 0.934 . S
C9 C4 1.413 . S
C9 C8 1.403 . S
C9 H35 0.930 . S
C10 O24 1.275 . S
C10 O25 1.256 . S
C11 O26 1.259 . S
C11 O27 1.268 . S
C12 Ho1 2.811 . S
C12 C13 1.488 . S
C12 O28 1.215 . S
C12 O29 1.289 . S
C13 C12 1.488 . S
C13 C14 1.348 . S
C13 C18 1.413 . S
C14 C13 1.348 . S
C14 C15 1.442 . S
C14 H36 0.930 . S
C15 C14 1.442 . S
C15 C16 1.381 . S
C15 H37 0.931 . S
C16 C15 1.381 . S
C16 C17 1.321 . S
C17 C16 1.321 . S
C17 C18 1.403 . S
C17 H38 0.934 . S
C18 C13 1.413 . S
C18 C17 1.403 . S
C18 H39 0.930 . S
C19 O30 1.293 . S
C19 O31 1.256 . S
O20 Ho0 2.322 . S
O20 C2 1.259 . S
O21 Ho1 2.346 1_455 S
O21 C2 1.268 . S
O22 Ho0 2.378 . S
O22 C3 1.215 . S
O23 Ho0 2.524 . S
O23 C3 1.289 . S
O24 Ho0 2.381 . S
O24 C10 1.275 . S
O25 Ho0 2.669 . S
O25 Ho1 2.305 1_455 S
O25 C10 1.256 . S
O26 Ho1 2.322 . S
O26 C11 1.259 . S
O27 Ho0 2.346 1_655 S
O27 C11 1.268 . S
O28 Ho1 2.378 . S
O28 C12 1.215 . S
O29 Ho1 2.524 . S
O29 C12 1.289 . S
O30 Ho1 2.378 1_455 S
O30 C19 1.293 . S
O31 Ho0 2.305 . S
O31 Ho1 2.669 1_455 S
O31 C19 1.256 . S
H32 C5 0.930 . S
H33 C6 0.931 . S
H34 C8 0.934 . S
H35 C9 0.930 . S
H36 C14 0.930 . S
H37 C15 0.931 . S
H38 C17 0.934 . S
H39 C18 0.930 . S
Ho40 C43 2.811 . S
Ho40 O60 2.322 . S
Ho40 O62 2.378 . S
Ho40 O63 2.524 . S
Ho40 O64 2.381 . S
Ho40 O65 2.669 1_565 S
Ho40 O67 2.346 1_565 S
Ho40 O71 2.313 . S
Ho41 C52 2.811 . S
Ho41 O61 2.346 1_545 S
Ho41 O65 2.305 . S
Ho41 O66 2.322 . S
Ho41 O68 2.378 . S
Ho41 O69 2.524 . S
Ho41 O70 2.381 . S
Ho41 O71 2.656 1_545 S
C42 O60 1.259 . S
C42 O61 1.268 . S
C43 Ho40 2.811 . S
C43 C44 1.488 . S
C43 O62 1.215 . S
C43 O63 1.289 . S
C44 C43 1.488 . S
C44 C45 1.348 . S
C44 C49 1.413 . S
C45 C44 1.348 . S
C45 C46 1.442 . S
C45 H72 0.930 . S
C46 C45 1.442 . S
C46 C47 1.381 . S
C46 H73 0.931 . S
C47 C46 1.381 . S
C47 C48 1.321 . S
C48 C47 1.321 . S
C48 C49 1.403 . S
C48 H74 0.934 . S
C49 C44 1.413 . S
C49 C48 1.403 . S
C49 H75 0.930 . S
C50 O64 1.275 1_545 S
C50 O65 1.256 . S
C51 O66 1.259 . S
C51 O67 1.268 . S
C52 Ho41 2.811 . S
C52 C53 1.488 . S
C52 O68 1.215 . S
C52 O69 1.289 . S
C53 C52 1.488 . S
C53 C54 1.348 . S
C53 C58 1.413 . S
C54 C53 1.348 . S
C54 C55 1.442 . S
C54 H76 0.930 . S
C55 C54 1.442 . S
C55 C56 1.381 . S
C55 H77 0.931 . S
C56 C55 1.381 . S
C56 C57 1.321 . S
C57 C56 1.321 . S
C57 C58 1.403 . S
C57 H78 0.934 . S
C58 C53 1.413 . S
C58 C57 1.403 . S
C58 H79 0.930 . S
C59 O70 1.275 . S
C59 O71 1.249 1_545 S
O60 Ho40 2.322 . S
O60 C42 1.259 . S
O61 Ho41 2.346 1_565 S
O61 C42 1.268 . S
O62 Ho40 2.378 . S
O62 C43 1.215 . S
O63 Ho40 2.524 . S
O63 C43 1.289 . S
O64 Ho40 2.381 . S
O64 C50 1.275 1_565 S
O65 Ho40 2.669 1_545 S
O65 Ho41 2.305 . S
O65 C50 1.256 . S
O66 Ho41 2.322 . S
O66 C51 1.259 . S
O67 Ho40 2.346 1_545 S
O67 C51 1.268 . S
O68 Ho41 2.378 . S
O68 C52 1.215 . S
O69 Ho41 2.524 . S
O69 C52 1.289 . S
O70 Ho41 2.381 . S
O70 C59 1.275 . S
O71 Ho40 2.313 . S
O71 Ho41 2.656 1_565 S
O71 C59 1.249 1_565 S
H72 C45 0.930 . S
H73 C46 0.931 . S
H74 C48 0.934 . S
H75 C49 0.930 . S
H76 C54 0.930 . S
H77 C55 0.931 . S
H78 C57 0.934 . S
H79 C58 0.930 . S
Ho80 C83 2.811 . S
Ho80 O100 2.322 . S
Ho80 O102 2.378 . S
Ho80 O103 2.524 . S
Ho80 O104 2.381 . S
Ho80 O105 2.669 . S
Ho80 O107 2.346 . S
Ho80 O111 2.305 . S
Ho81 C92 2.811 . S
Ho81 O101 2.346 . S
Ho81 O105 2.305 . S
Ho81 O106 2.322 . S
Ho81 O108 2.378 . S
Ho81 O109 2.524 . S
Ho81 O110 2.381 . S
Ho81 O111 2.669 . S
C82 O100 1.259 . S
C82 O101 1.268 . S
C83 Ho80 2.811 . S
C83 C84 1.488 . S
C83 O102 1.215 . S
C83 O103 1.289 . S
C84 C83 1.488 . S
C84 C85 1.348 . S
C84 C89 1.413 . S
C85 C84 1.348 . S
C85 C86 1.442 . S
C85 H112 0.930 . S
C86 C85 1.442 . S
C86 C87 1.381 . S
C86 H113 0.931 . S
C87 C86 1.381 . S
C87 C88 1.321 . S
C88 C87 1.321 . S
C88 C89 1.403 . S
C88 H114 0.934 . S
C89 C84 1.413 . S
C89 C88 1.403 . S
C89 H115 0.930 . S
C90 O104 1.275 . S
C90 O105 1.256 . S
C91 O106 1.259 . S
C91 O107 1.268 . S
C92 Ho81 2.811 . S
C92 C93 1.488 . S
C92 O108 1.215 . S
C92 O109 1.289 . S
C93 C92 1.488 . S
C93 C94 1.348 . S
C93 C98 1.413 . S
C94 C93 1.348 . S
C94 C95 1.442 . S
C94 H116 0.930 . S
C95 C94 1.442 . S
C95 C96 1.381 . S
C95 H117 0.931 . S
C96 C95 1.381 . S
C96 C97 1.321 . S
C97 C96 1.321 . S
C97 C98 1.403 . S
C97 H118 0.934 . S
C98 C93 1.413 . S
C98 C97 1.403 . S
C98 H119 0.930 . S
C99 O110 1.275 . S
C99 O111 1.256 . S
O100 Ho80 2.322 . S
O100 C82 1.259 . S
O101 Ho81 2.346 . S
O101 C82 1.268 . S
O102 Ho80 2.378 . S
O102 C83 1.215 . S
O103 Ho80 2.524 . S
O103 C83 1.289 . S
O104 Ho80 2.381 . S
O104 C90 1.275 . S
O105 Ho80 2.669 . S
O105 Ho81 2.305 . S
O105 C90 1.256 . S
O106 Ho81 2.322 . S
O106 C91 1.259 . S
O107 Ho80 2.346 . S
O107 C91 1.268 . S
O108 Ho81 2.378 . S
O108 C92 1.215 . S
O109 Ho81 2.524 . S
O109 C92 1.289 . S
O110 Ho81 2.381 . S
O110 C99 1.275 . S
O111 Ho80 2.305 . S
O111 Ho81 2.669 . S
O111 C99 1.256 . S
H112 C85 0.930 . S
H113 C86 0.931 . S
H114 C88 0.934 . S
H115 C89 0.930 . S
H116 C94 0.930 . S
H117 C95 0.931 . S
H118 C97 0.934 . S
H119 C98 0.930 . S
C120 C121 1.386 . S
C120 C122 1.397 . S
C120 H144 0.931 . S
C121 C120 1.386 . S
C121 C125 1.397 1_545 S
C122 C120 1.397 . S
C122 C123 1.384 . S
C122 H145 0.930 . S
C123 C122 1.384 . S
C123 C124 1.377 1_545 S
C123 C126 1.481 . S
C124 C123 1.377 1_565 S
C124 C125 1.389 . S
C124 H146 0.929 . S
C125 C121 1.397 1_565 S
C125 C124 1.389 . S
C125 H147 0.931 . S
C126 C123 1.481 . S
C126 C127 1.387 . S
C126 C131 1.390 1_545 S
C127 C126 1.387 . S
C127 C128 1.401 . S
C127 H148 0.930 . S
C128 C127 1.401 . S
C128 C129 1.376 . S
C128 C137 1.511 . S
C129 C128 1.376 . S
C129 C130 1.392 1_545 S
C129 H150 0.931 . S
C130 C129 1.392 1_565 S
C130 C131 1.361 . S
C130 C132 1.500 . S
C131 C126 1.390 1_565 S
C131 C130 1.361 . S
C131 H149 0.931 . S
C132 C130 1.500 . S
C132 C133 1.371 . S
C132 C134 1.365 . S
C133 C132 1.371 . S
C133 C143 1.386 . S
C133 H151 0.931 . S
C134 C132 1.365 . S
C134 C135 1.409 . S
C134 H152 0.929 . S
C135 C134 1.409 . S
C135 C136 1.380 . S
C135 H153 0.930 . S
C136 C135 1.380 . S
C136 C143 1.357 . S
C137 C128 1.511 . S
C137 C138 1.341 . S
C137 C139 1.371 . S
C138 C137 1.341 . S
C138 C142 1.394 . S
C138 H154 0.930 . S
C139 C137 1.371 . S
C139 C140 1.392 . S
C139 H155 0.931 . S
C140 C139 1.392 . S
C140 C141 1.331 . S
C140 H158 0.932 . S
C141 C140 1.331 . S
C141 C142 1.336 . S
C142 C138 1.394 . S
C142 C141 1.336 . S
C142 H157 0.929 . S
C143 C133 1.386 . S
C143 C136 1.357 . S
C143 H156 0.928 . S
H144 C120 0.931 . S
H145 C122 0.930 . S
H146 C124 0.929 . S
H147 C125 0.931 . S
H148 C127 0.930 . S
H149 C131 0.931 . S
H150 C129 0.931 . S
H151 C133 0.931 . S
H152 C134 0.929 . S
H153 C135 0.930 . S
H154 C138 0.930 . S
H155 C139 0.931 . S
H156 C143 0.928 . S
H157 C142 0.929 . S
H158 C140 0.932 . S
C159 C160 1.386 . S
C159 C161 1.397 . S
C159 H183 0.931 . S
C160 C159 1.386 . S
C160 C164 1.397 . S
C161 C159 1.397 . S
C161 C162 1.384 . S
C161 H184 0.930 . S
C162 C161 1.384 . S
C162 C163 1.377 . S
C162 C165 1.481 . S
C163 C162 1.377 . S
C163 C164 1.389 . S
C163 H185 0.929 . S
C164 C160 1.397 . S
C164 C163 1.389 . S
C164 H186 0.931 . S
C165 C162 1.481 . S
C165 C166 1.387 . S
C165 C170 1.390 . S
C166 C165 1.387 . S
C166 C167 1.401 . S
C166 H187 0.930 . S
C167 C166 1.401 . S
C167 C168 1.376 . S
C167 C176 1.511 . S
C168 C167 1.376 . S
C168 C169 1.392 . S
C168 H189 0.931 . S
C169 C168 1.392 . S
C169 C170 1.361 . S
C169 C171 1.500 . S
C170 C165 1.390 . S
C170 C169 1.361 . S
C170 H188 0.931 . S
C171 C169 1.500 . S
C171 C172 1.371 . S
C171 C173 1.365 . S
C172 C171 1.371 . S
C172 C182 1.386 . S
C172 H190 0.931 . S
C173 C171 1.365 . S
C173 C174 1.409 . S
C173 H191 0.929 . S
C174 C173 1.409 . S
C174 C175 1.380 . S
C174 H192 0.930 . S
C175 C174 1.380 . S
C175 C182 1.357 . S
C176 C167 1.511 . S
C176 C177 1.341 . S
C176 C178 1.371 . S
C177 C176 1.341 . S
C177 C181 1.394 . S
C177 H193 0.930 . S
C178 C176 1.371 . S
C178 C179 1.392 . S
C178 H194 0.931 . S
C179 C178 1.392 . S
C179 C180 1.331 . S
C179 H197 0.932 . S
C180 C179 1.331 . S
C180 C181 1.336 . S
C181 C177 1.394 . S
C181 C180 1.336 . S
C181 H196 0.929 . S
C182 C172 1.386 . S
C182 C175 1.357 . S
C182 H195 0.928 . S
H183 C159 0.931 . S
H184 C161 0.930 . S
H185 C163 0.929 . S
H186 C164 0.931 . S
H187 C166 0.930 . S
H188 C170 0.931 . S
H189 C168 0.931 . S
H190 C172 0.931 . S
H191 C173 0.929 . S
H192 C174 0.930 . S
H193 C177 0.930 . S
H194 C178 0.931 . S
H195 C182 0.928 . S
H196 C181 0.929 . S
H197 C179 0.932 . S
C198 C199 1.401 . S
C198 C200 1.397 . S
C198 H222 0.931 . S
C199 C198 1.401 . S
C199 C203 1.429 . S
C200 C198 1.397 . S
C200 C201 1.384 . S
C200 H223 0.930 . S
C201 C200 1.384 . S
C201 C202 1.377 . S
C201 C204 1.481 . S
C202 C201 1.377 . S
C202 C203 1.390 . S
C202 H224 0.929 1_455 S
C203 C199 1.429 . S
C203 C202 1.390 . S
C203 H225 0.916 1_455 S
C204 C201 1.481 . S
C204 C205 1.387 . S
C204 C209 1.390 . S
C205 C204 1.387 . S
C205 C206 1.401 . S
C205 H226 0.930 . S
C206 C205 1.401 . S
C206 C207 1.376 . S
C206 C215 1.511 . S
C207 C206 1.376 . S
C207 C208 1.392 . S
C207 H228 0.931 . S
C208 C207 1.392 . S
C208 C209 1.361 . S
C208 C210 1.500 1_455 S
C209 C204 1.390 . S
C209 C208 1.361 . S
C209 H227 0.931 1_455 S
C210 C208 1.500 1_655 S
C210 C211 1.371 . S
C210 C212 1.365 . S
C211 C210 1.371 . S
C211 C221 1.386 . S
C211 H229 0.931 1_655 S
C212 C210 1.365 . S
C212 C213 1.409 . S
C212 H230 0.929 . S
C213 C212 1.409 . S
C213 C214 1.380 . S
C213 H231 0.930 . S
C214 C213 1.380 . S
C214 C221 1.357 . S
C215 C206 1.511 . S
C215 C216 1.341 . S
C215 C217 1.371 . S
C216 C215 1.341 . S
C216 C220 1.394 . S
C216 H232 0.930 . S
C217 C215 1.371 . S
C217 C218 1.392 . S
C217 H233 0.931 . S
C218 C217 1.392 . S
C218 C219 1.331 . S
C218 H236 0.932 . S
C219 C218 1.331 . S
C219 C220 1.336 . S
C220 C216 1.394 . S
C220 C219 1.336 . S
C220 H235 0.929 . S
C221 C211 1.386 . S
C221 C214 1.357 . S
C221 H234 0.928 . S
H222 C198 0.931 . S
H223 C200 0.930 . S
H224 C202 0.929 1_655 S
H225 C203 0.916 1_655 S
H226 C205 0.930 . S
H227 C209 0.931 1_655 S
H228 C207 0.931 . S
H229 C211 0.931 1_455 S
H230 C212 0.929 . S
H231 C213 0.930 . S
H232 C216 0.930 . S
H233 C217 0.931 . S
H234 C221 0.928 . S
H235 C220 0.929 . S
H236 C218 0.932 . S
C237 C238 1.389 . S
C237 C239 1.397 . S
C237 H261 0.931 . S
C238 C237 1.389 . S
C238 C242 1.394 1_655 S
C239 C237 1.397 . S
C239 C240 1.384 . S
C239 H262 0.930 . S
C240 C239 1.384 . S
C240 C241 1.377 1_655 S
C240 C243 1.481 . S
C241 C240 1.377 1_455 S
C241 C242 1.389 . S
C241 H263 0.929 . S
C242 C238 1.394 1_455 S
C242 C241 1.389 . S
C242 H264 0.931 . S
C243 C240 1.481 . S
C243 C244 1.387 . S
C243 C248 1.390 1_655 S
C244 C243 1.387 . S
C244 C245 1.401 . S
C244 H265 0.930 . S
C245 C244 1.401 . S
C245 C246 1.376 . S
C245 C254 1.511 . S
C246 C245 1.376 . S
C246 C247 1.392 1_655 S
C246 H267 0.931 . S
C247 C246 1.392 1_455 S
C247 C248 1.361 . S
C247 C249 1.500 . S
C248 C243 1.390 1_455 S
C248 C247 1.361 . S
C248 H266 0.931 . S
C249 C247 1.500 . S
C249 C250 1.371 . S
C249 C251 1.365 . S
C250 C249 1.371 . S
C250 C260 1.386 . S
C250 H268 0.931 . S
C251 C249 1.365 . S
C251 C252 1.409 . S
C251 H269 0.929 . S
C252 C251 1.409 . S
C252 C253 1.380 . S
C252 H270 0.930 . S
C253 C252 1.380 . S
C253 C260 1.357 . S
C254 C245 1.511 . S
C254 C255 1.341 . S
C254 C256 1.371 . S
C255 C254 1.341 . S
C255 C259 1.394 . S
C255 H271 0.930 . S
C256 C254 1.371 . S
C256 C257 1.392 . S
C256 H272 0.931 . S
C257 C256 1.392 . S
C257 C258 1.331 . S
C257 H275 0.932 . S
C258 C257 1.331 . S
C258 C259 1.336 . S
C259 C255 1.394 . S
C259 C258 1.336 . S
C259 H274 0.929 . S
C260 C250 1.386 . S
C260 C253 1.357 . S
C260 H273 0.928 . S
H261 C237 0.931 . S
H262 C239 0.930 . S
H263 C241 0.929 . S
H264 C242 0.931 . S
H265 C244 0.930 . S
H266 C248 0.931 . S
H267 C246 0.931 . S
H268 C250 0.931 . S
H269 C251 0.929 . S
H270 C252 0.930 . S
H271 C255 0.930 . S
H272 C256 0.931 . S
H273 C260 0.928 . S
H274 C259 0.929 . S
H275 C257 0.932 . S
C276 C277 1.386 . S
C276 C278 1.397 . S
C276 H300 0.931 . S
C277 C276 1.386 . S
C277 C281 1.397 1_565 S
C278 C276 1.397 . S
C278 C279 1.384 . S
C278 H301 0.930 . S
C279 C278 1.384 . S
C279 C280 1.377 1_565 S
C279 C282 1.481 . S
C280 C279 1.377 1_545 S
C280 C281 1.389 . S
C280 H302 0.929 . S
C281 C277 1.397 1_545 S
C281 C280 1.389 . S
C281 H303 0.931 . S
C282 C279 1.481 . S
C282 C283 1.387 . S
C282 C287 1.390 1_565 S
C283 C282 1.387 . S
C283 C284 1.401 . S
C283 H304 0.930 . S
C284 C283 1.401 . S
C284 C285 1.376 1_565 S
C284 C293 1.511 . S
C285 C284 1.376 1_545 S
C285 C286 1.392 . S
C285 H306 0.931 . S
C286 C285 1.392 . S
C286 C287 1.361 . S
C286 C288 1.500 . S
C287 C282 1.390 1_545 S
C287 C286 1.361 . S
C287 H305 0.931 . S
C288 C286 1.500 . S
C288 C289 1.371 . S
C288 C290 1.365 . S
C289 C288 1.371 . S
C289 C299 1.386 . S
C289 H307 0.931 . S
C290 C288 1.365 . S
C290 C291 1.409 . S
C290 H308 0.929 . S
C291 C290 1.409 . S
C291 C292 1.380 . S
C291 H309 0.930 . S
C292 C291 1.380 . S
C292 C299 1.357 . S
C293 C284 1.511 . S
C293 C294 1.341 . S
C293 C295 1.371 . S
C294 C293 1.341 . S
C294 C298 1.394 . S
C294 H310 0.930 . S
C295 C293 1.371 . S
C295 C296 1.392 . S
C295 H311 0.931 . S
C296 C295 1.392 . S
C296 C297 1.331 . S
C296 H314 0.932 . S
C297 C296 1.331 . S
C297 C298 1.336 . S
C298 C294 1.394 . S
C298 C297 1.336 . S
C298 H313 0.929 . S
C299 C289 1.386 . S
C299 C292 1.357 . S
C299 H312 0.928 . S
H300 C276 0.931 . S
H301 C278 0.930 . S
H302 C280 0.929 . S
H303 C281 0.931 . S
H304 C283 0.930 . S
H305 C287 0.931 . S
H306 C285 0.931 . S
H307 C289 0.931 . S
H308 C290 0.929 . S
H309 C291 0.930 . S
H310 C294 0.930 . S
H311 C295 0.931 . S
H312 C299 0.928 . S
H313 C298 0.929 . S
H314 C296 0.932 . S
C315 C316 1.386 . S
C315 C317 1.397 1_556 S
C315 H339 0.931 . S
C316 C315 1.386 . S
C316 C320 1.397 . S
C317 C315 1.397 1_554 S
C317 C318 1.384 . S
C317 H340 0.930 . S
C318 C317 1.384 . S
C318 C319 1.377 . S
C318 C321 1.481 . S
C319 C318 1.377 . S
C319 C320 1.389 1_554 S
C319 H341 0.929 . S
C320 C316 1.397 . S
C320 C319 1.389 1_556 S
C320 H342 0.931 . S
C321 C318 1.481 . S
C321 C322 1.387 . S
C321 C326 1.390 . S
C322 C321 1.387 . S
C322 C323 1.401 . S
C322 H343 0.930 . S
C323 C322 1.401 . S
C323 C324 1.376 . S
C323 C332 1.511 . S
C324 C323 1.376 . S
C324 C325 1.392 . S
C324 H345 0.931 . S
C325 C324 1.392 . S
C325 C326 1.361 . S
C325 C327 1.500 . S
C326 C321 1.390 . S
C326 C325 1.361 . S
C326 H344 0.931 . S
C327 C325 1.500 . S
C327 C328 1.371 . S
C327 C329 1.365 . S
C328 C327 1.371 . S
C328 C338 1.386 . S
C328 H346 0.931 . S
C329 C327 1.365 . S
C329 C330 1.409 . S
C329 H347 0.929 . S
C330 C329 1.409 . S
C330 C331 1.380 . S
C330 H348 0.930 . S
C331 C330 1.380 . S
C331 C338 1.357 . S
C332 C323 1.511 . S
C332 C333 1.341 . S
C332 C334 1.371 . S
C333 C332 1.341 . S
C333 C337 1.394 . S
C333 H349 0.930 . S
C334 C332 1.371 . S
C334 C335 1.392 . S
C334 H350 0.931 . S
C335 C334 1.392 . S
C335 C336 1.331 . S
C335 H353 0.932 . S
C336 C335 1.331 . S
C336 C337 1.336 . S
C337 C333 1.394 . S
C337 C336 1.336 . S
C337 H352 0.929 . S
C338 C328 1.386 . S
C338 C331 1.357 . S
C338 H351 0.928 . S
H339 C315 0.931 . S
H340 C317 0.930 . S
H341 C319 0.929 . S
H342 C320 0.931 . S
H343 C322 0.930 . S
H344 C326 0.931 . S
H345 C324 0.931 . S
H346 C328 0.931 . S
H347 C329 0.929 . S
H348 C330 0.930 . S
H349 C333 0.930 . S
H350 C334 0.931 . S
H351 C338 0.928 . S
H352 C337 0.929 . S
H353 C335 0.932 . S
C354 C355 1.363 . S
C354 C360 1.379 . S
C354 N362 1.356 . S
C355 C354 1.363 . S
C355 C361 1.363 . S
C356 C357 1.363 . S
C356 C361 1.379 . S
C356 N363 1.356 . S
C357 C356 1.363 . S
C357 C360 1.363 . S
N358 C360 1.356 . S
N358 H370 0.984 . S
N358 H371 0.985 . S
N359 C361 1.356 . S
N359 H364 0.984 . S
N359 H365 0.985 . S
C360 C354 1.379 . S
C360 C357 1.363 . S
C360 N358 1.356 . S
C361 C355 1.363 . S
C361 C356 1.379 . S
C361 N359 1.356 . S
N362 C354 1.356 . S
N362 H368 0.984 . S
N362 H369 0.984 . S
N363 C356 1.356 . S
N363 H366 0.984 . S
N363 H367 0.985 . S
H364 N359 0.984 . S
H365 N359 0.985 . S
H366 N363 0.984 . S
H367 N363 0.985 . S
H368 N362 0.984 . S
H369 N362 0.984 . S
H370 N358 0.984 . S
H371 N358 0.985 . S
C372 C373 1.363 . S
C372 C378 1.379 . S
C372 N380 1.356 . S
C373 C372 1.363 . S
C373 C379 1.363 . S
C374 C375 1.363 . S
C374 C379 1.379 . S
C374 N381 1.356 . S
C375 C374 1.363 . S
C375 C378 1.363 . S
N376 C378 1.356 . S
N376 H388 0.984 . S
N376 H389 0.985 . S
N377 C379 1.356 . S
N377 H382 0.984 . S
N377 H383 0.985 . S
C378 C372 1.379 . S
C378 C375 1.363 . S
C378 N376 1.356 . S
C379 C373 1.363 . S
C379 C374 1.379 . S
C379 N377 1.356 . S
N380 C372 1.356 . S
N380 H386 0.984 . S
N380 H387 0.984 . S
N381 C374 1.356 . S
N381 H384 0.984 . S
N381 H385 0.985 . S
H382 N377 0.984 . S
H383 N377 0.985 . S
H384 N381 0.984 . S
H385 N381 0.985 . S
H386 N380 0.984 . S
H387 N380 0.984 . S
H388 N376 0.984 . S
H389 N376 0.985 . S
C390 C391 1.363 . S
C390 C396 1.379 . S
C390 N398 1.356 . S
C391 C390 1.363 . S
C391 C397 1.363 . S
C392 C393 1.363 . S
C392 C397 1.379 . S
C392 N399 1.356 . S
C393 C392 1.363 . S
C393 C396 1.363 . S
N394 C396 1.356 . S
N394 H406 0.984 . S
N394 H407 0.985 . S
N395 C397 1.356 . S
N395 H400 0.984 . S
N395 H401 0.985 . S
C396 C390 1.379 . S
C396 C393 1.363 . S
C396 N394 1.356 . S
C397 C391 1.363 . S
C397 C392 1.379 . S
C397 N395 1.356 . S
N398 C390 1.356 . S
N398 H404 0.984 . S
N398 H405 0.984 . S
N399 C392 1.356 . S
N399 H402 0.984 . S
N399 H403 0.985 . S
H400 N395 0.984 . S
H401 N395 0.985 . S
H402 N399 0.984 . S
H403 N399 0.985 . S
H404 N398 0.984 . S
H405 N398 0.984 . S
H406 N394 0.984 . S
H407 N394 0.985 . S
C408 C409 1.363 . S
C408 C414 1.379 . S
C408 N416 1.356 . S
C409 C408 1.363 . S
C409 C415 1.363 . S
C410 C411 1.363 . S
C410 C415 1.379 . S
C410 N417 1.356 . S
C411 C410 1.363 . S
C411 C414 1.363 . S
N412 C414 1.356 . S
N412 H424 0.984 . S
N412 H425 0.985 . S
N413 C415 1.356 . S
N413 H418 0.984 . S
N413 H419 0.985 . S
C414 C408 1.379 . S
C414 C411 1.363 . S
C414 N412 1.356 . S
C415 C409 1.363 . S
C415 C410 1.379 . S
C415 N413 1.356 . S
N416 C408 1.356 . S
N416 H422 0.984 . S
N416 H423 0.984 . S
N417 C410 1.356 . S
N417 H420 0.984 . S
N417 H421 0.985 . S
H418 N413 0.984 . S
H419 N413 0.985 . S
H420 N417 0.984 . S
H421 N417 0.985 . S
H422 N416 0.984 . S
H423 N416 0.984 . S
H424 N412 0.984 . S
H425 N412 0.985 . S
C426 C427 1.363 . S
C426 C432 1.379 . S
C426 N434 1.356 . S
C427 C426 1.363 . S
C427 C433 1.363 . S
C428 C429 1.363 . S
C428 C433 1.379 . S
C428 N435 1.356 . S
C429 C428 1.363 . S
C429 C432 1.363 . S
N430 C432 1.356 . S
N430 H442 0.984 . S
N430 H443 0.985 . S
N431 C433 1.356 . S
N431 H436 0.984 . S
N431 H437 0.985 . S
C432 C426 1.379 . S
C432 C429 1.363 . S
C432 N430 1.356 . S
C433 C427 1.363 . S
C433 C428 1.379 . S
C433 N431 1.356 . S
N434 C426 1.356 . S
N434 H440 0.984 . S
N434 H441 0.984 . S
N435 C428 1.356 . S
N435 H438 0.984 . S
N435 H439 0.985 . S
H436 N431 0.984 . S
H437 N431 0.985 . S
H438 N435 0.984 . S
H439 N435 0.985 . S
H440 N434 0.984 . S
H441 N434 0.984 . S
H442 N430 0.984 . S
H443 N430 0.985 . S
C444 C445 1.363 . S
C444 C450 1.379 . S
C444 N452 1.356 . S
C445 C444 1.363 . S
C445 C451 1.363 . S
C446 C447 1.363 . S
C446 C451 1.379 . S
C446 N453 1.356 . S
C447 C446 1.363 . S
C447 C450 1.363 . S
N448 C450 1.356 . S
N448 H460 0.984 . S
N448 H461 0.985 . S
N449 C451 1.356 . S
N449 H454 0.984 . S
N449 H455 0.985 . S
C450 C444 1.379 . S
C450 C447 1.363 . S
C450 N448 1.356 . S
C451 C445 1.363 . S
C451 C446 1.379 . S
C451 N449 1.356 . S
N452 C444 1.356 . S
N452 H458 0.984 . S
N452 H459 0.984 . S
N453 C446 1.356 . S
N453 H456 0.984 . S
N453 H457 0.985 . S
H454 N449 0.984 . S
H455 N449 0.985 . S
H456 N453 0.984 . S
H457 N453 0.985 . S
H458 N452 0.984 . S
H459 N452 0.984 . S
H460 N448 0.984 . S
H461 N448 0.985 . S
C462 C463 1.363 . S
C462 C468 1.379 . S
C462 N470 1.356 . S
C463 C462 1.363 . S
C463 C469 1.363 . S
C464 C465 1.363 . S
C464 C469 1.379 . S
C464 N471 1.356 . S
C465 C464 1.363 . S
C465 C468 1.363 . S
N466 C468 1.356 . S
N466 H478 0.984 . S
N466 H479 0.985 . S
N467 C469 1.356 . S
N467 H472 0.984 . S
N467 H473 0.985 . S
C468 C462 1.379 . S
C468 C465 1.363 . S
C468 N466 1.356 . S
C469 C463 1.363 . S
C469 C464 1.379 . S
C469 N467 1.356 . S
N470 C462 1.356 . S
N470 H476 0.984 . S
N470 H477 0.984 . S
N471 C464 1.356 . S
N471 H474 0.984 . S
N471 H475 0.985 . S
H472 N467 0.984 . S
H473 N467 0.985 . S
H474 N471 0.984 . S
H475 N471 0.985 . S
H476 N470 0.984 . S
H477 N470 0.984 . S
H478 N466 0.984 . S
H479 N466 0.985 . S
C480 C481 1.363 . S
C480 C486 1.379 . S
C480 N488 1.356 . S
C481 C480 1.363 . S
C481 C487 1.363 . S
C482 C483 1.363 . S
C482 C487 1.379 . S
C482 N489 1.356 . S
C483 C482 1.363 . S
C483 C486 1.363 . S
N484 C486 1.356 . S
N484 H496 0.984 . S
N484 H497 0.985 . S
N485 C487 1.356 . S
N485 H490 0.984 . S
N485 H491 0.985 . S
C486 C480 1.379 . S
C486 C483 1.363 . S
C486 N484 1.356 . S
C487 C481 1.363 . S
C487 C482 1.379 . S
C487 N485 1.356 . S
N488 C480 1.356 . S
N488 H494 0.984 . S
N488 H495 0.984 . S
N489 C482 1.356 . S
N489 H492 0.984 . S
N489 H493 0.985 . S
H490 N485 0.984 . S
H491 N485 0.985 . S
H492 N489 0.984 . S
H493 N489 0.985 . S
H494 N488 0.984 . S
H495 N488 0.984 . S
H496 N484 0.984 . S
H497 N484 0.985 . S
C498 C499 1.363 . S
C498 C504 1.379 . S
C498 N506 1.356 . S
C499 C498 1.363 . S
C499 C505 1.363 . S
C500 C501 1.363 . S
C500 C505 1.379 . S
C500 N507 1.356 . S
C501 C500 1.363 . S
C501 C504 1.363 . S
N502 C504 1.356 . S
N502 H514 0.984 . S
N502 H515 0.985 . S
N503 C505 1.356 . S
N503 H508 0.984 . S
N503 H509 0.985 . S
C504 C498 1.379 . S
C504 C501 1.363 . S
C504 N502 1.356 . S
C505 C499 1.363 . S
C505 C500 1.379 . S
C505 N503 1.356 . S
N506 C498 1.356 . S
N506 H512 0.984 . S
N506 H513 0.984 . S
N507 C500 1.356 . S
N507 H510 0.984 . S
N507 H511 0.985 . S
H508 N503 0.984 . S
H509 N503 0.985 . S
H510 N507 0.984 . S
H511 N507 0.985 . S
H512 N506 0.984 . S
H513 N506 0.984 . S
H514 N502 0.984 . S
H515 N502 0.985 . S
C516 C517 1.363 . S
C516 C522 1.379 . S
C516 N524 1.356 . S
C517 C516 1.363 . S
C517 C523 1.363 . S
C518 C519 1.363 . S
C518 C523 1.379 . S
C518 N525 1.356 . S
C519 C518 1.363 . S
C519 C522 1.363 . S
N520 C522 1.356 . S
N520 H532 0.984 . S
N520 H533 0.985 . S
N521 C523 1.356 . S
N521 H526 0.984 . S
N521 H527 0.985 . S
C522 C516 1.379 . S
C522 C519 1.363 . S
C522 N520 1.356 . S
C523 C517 1.363 . S
C523 C518 1.379 . S
C523 N521 1.356 . S
N524 C516 1.356 . S
N524 H530 0.984 . S
N524 H531 0.984 . S
N525 C518 1.356 . S
N525 H528 0.984 . S
N525 H529 0.985 . S
H526 N521 0.984 . S
H527 N521 0.985 . S
H528 N525 0.984 . S
H529 N525 0.985 . S
H530 N524 0.984 . S
H531 N524 0.984 . S
H532 N520 0.984 . S
H533 N520 0.985 . S
C534 C535 1.363 . S
C534 C540 1.379 . S
C534 N542 1.356 . S
C535 C534 1.363 . S
C535 C541 1.363 . S
C536 C537 1.363 . S
C536 C541 1.379 . S
C536 N543 1.356 . S
C537 C536 1.363 . S
C537 C540 1.363 . S
N538 C540 1.356 . S
N538 H550 0.984 . S
N538 H551 0.985 . S
N539 C541 1.356 . S
N539 H544 0.984 . S
N539 H545 0.985 . S
C540 C534 1.379 . S
C540 C537 1.363 . S
C540 N538 1.356 . S
C541 C535 1.363 . S
C541 C536 1.379 . S
C541 N539 1.356 . S
N542 C534 1.356 . S
N542 H548 0.984 . S
N542 H549 0.984 . S
N543 C536 1.356 . S
N543 H546 0.984 . S
N543 H547 0.985 . S
H544 N539 0.984 . S
H545 N539 0.985 . S
H546 N543 0.984 . S
H547 N543 0.985 . S
H548 N542 0.984 . S
H549 N542 0.984 . S
H550 N538 0.984 . S
H551 N538 0.985 . S
C552 C553 1.363 . S
C552 C558 1.379 . S
C552 N560 1.356 . S
C553 C552 1.363 . S
C553 C559 1.363 . S
C554 C555 1.363 . S
C554 C559 1.379 . S
C554 N561 1.356 . S
C555 C554 1.363 . S
C555 C558 1.363 . S
N556 C558 1.356 . S
N556 H568 0.984 . S
N556 H569 0.985 . S
N557 C559 1.356 . S
N557 H562 0.984 . S
N557 H563 0.985 . S
C558 C552 1.379 . S
C558 C555 1.363 . S
C558 N556 1.356 . S
C559 C553 1.363 . S
C559 C554 1.379 . S
C559 N557 1.356 . S
N560 C552 1.356 . S
N560 H566 0.984 . S
N560 H567 0.984 . S
N561 C554 1.356 . S
N561 H564 0.984 . S
N561 H565 0.985 . S
H562 N557 0.984 . S
H563 N557 0.985 . S
H564 N561 0.984 . S
H565 N561 0.985 . S
H566 N560 0.984 . S
H567 N560 0.984 . S
H568 N556 0.984 . S
H569 N556 0.985 . S
C570 C571 1.363 . S
C570 C576 1.379 . S
C570 N578 1.356 . S
C571 C570 1.363 . S
C571 C577 1.363 . S
C572 C573 1.363 . S
C572 C577 1.379 . S
C572 N579 1.356 . S
C573 C572 1.363 . S
C573 C576 1.363 . S
N574 C576 1.356 . S
N574 H586 0.984 . S
N574 H587 0.985 . S
N575 C577 1.356 . S
N575 H580 0.984 . S
N575 H581 0.985 . S
C576 C570 1.379 . S
C576 C573 1.363 . S
C576 N574 1.356 . S
C577 C571 1.363 . S
C577 C572 1.379 . S
C577 N575 1.356 . S
N578 C570 1.356 . S
N578 H584 0.984 . S
N578 H585 0.984 . S
N579 C572 1.356 . S
N579 H582 0.984 . S
N579 H583 0.985 . S
H580 N575 0.984 . S
H581 N575 0.985 . S
H582 N579 0.984 . S
H583 N579 0.985 . S
H584 N578 0.984 . S
H585 N578 0.984 . S
H586 N574 0.984 . S
H587 N574 0.985 . S
C588 C589 1.363 1_565 S
C588 C594 1.379 . S
C588 N596 1.356 . S
C589 C588 1.363 1_545 S
C589 C595 1.363 . S
C590 C591 1.363 . S
C590 C595 1.379 . S
C590 N597 1.356 . S
C591 C590 1.363 . S
C591 C594 1.363 1_545 S
N592 C594 1.356 . S
N592 H604 0.984 . S
N592 H605 0.985 . S
N593 C595 1.356 . S
N593 H598 0.984 . S
N593 H599 0.985 . S
C594 C588 1.379 . S
C594 C591 1.363 1_565 S
C594 N592 1.356 . S
C595 C589 1.363 . S
C595 C590 1.379 . S
C595 N593 1.356 . S
N596 C588 1.356 . S
N596 H602 0.984 . S
N596 H603 0.984 . S
N597 C590 1.356 . S
N597 H600 0.984 . S
N597 H601 0.985 . S
H598 N593 0.984 . S
H599 N593 0.985 . S
H600 N597 0.984 . S
H601 N597 0.985 . S
H602 N596 0.984 . S
H603 N596 0.984 . S
H604 N592 0.984 . S
H605 N592 0.985 . S
C606 C607 1.363 . S
C606 C612 1.379 . S
C606 N614 1.356 . S
C607 C606 1.363 . S
C607 C613 1.363 . S
C608 C609 1.363 . S
C608 C613 1.379 . S
C608 N615 1.356 . S
C609 C608 1.363 . S
C609 C612 1.363 . S
N610 C612 1.356 . S
N610 H622 0.984 . S
N610 H623 0.985 . S
N611 C613 1.356 . S
N611 H616 0.984 . S
N611 H617 0.985 . S
C612 C606 1.379 . S
C612 C609 1.363 . S
C612 N610 1.356 . S
C613 C607 1.363 . S
C613 C608 1.379 . S
C613 N611 1.356 . S
N614 C606 1.356 . S
N614 H620 0.984 . S
N614 H621 0.984 . S
N615 C608 1.356 . S
N615 H618 0.984 . S
N615 H619 0.985 . S
H616 N611 0.984 . S
H617 N611 0.985 . S
H618 N615 0.984 . S
H619 N615 0.985 . S
H620 N614 0.984 . S
H621 N614 0.984 . S
H622 N610 0.984 . S
H623 N610 0.985 . S
C624 C625 1.363 1_565 S
C624 C630 1.379 . S
C624 N632 1.356 . S
C625 C624 1.363 1_545 S
C625 C631 1.363 . S
C626 C627 1.363 1_545 S
C626 C631 1.379 . S
C626 N633 1.356 . S
C627 C626 1.363 1_565 S
C627 C630 1.363 . S
N628 C630 1.356 . S
N628 H640 0.984 . S
N628 H641 0.985 . S
N629 C631 1.356 . S
N629 H634 0.984 . S
N629 H635 0.985 . S
C630 C624 1.379 . S
C630 C627 1.363 . S
C630 N628 1.356 . S
C631 C625 1.363 . S
C631 C626 1.379 . S
C631 N629 1.356 . S
N632 C624 1.356 . S
N632 H638 0.984 . S
N632 H639 0.984 . S
N633 C626 1.356 . S
N633 H636 0.984 . S
N633 H637 0.985 . S
H634 N629 0.984 . S
H635 N629 0.985 . S
H636 N633 0.984 . S
H637 N633 0.985 . S
H638 N632 0.984 . S
H639 N632 0.984 . S
H640 N628 0.984 . S
H641 N628 0.985 . S
C642 C643 1.363 . S
C642 C648 1.379 . S
C642 N650 1.356 . S
C643 C642 1.363 . S
C643 C649 1.363 . S
C644 C645 1.363 . S
C644 C649 1.379 . S
C644 N651 1.356 . S
C645 C644 1.363 . S
C645 C648 1.363 . S
N646 C648 1.356 . S
N646 H658 0.984 . S
N646 H659 0.985 . S
N647 C649 1.356 . S
N647 H652 0.984 . S
N647 H653 0.985 . S
C648 C642 1.379 . S
C648 C645 1.363 . S
C648 N646 1.356 . S
C649 C643 1.363 . S
C649 C644 1.379 . S
C649 N647 1.356 . S
N650 C642 1.356 . S
N650 H656 0.984 . S
N650 H657 0.984 . S
N651 C644 1.356 . S
N651 H654 0.984 . S
N651 H655 0.985 . S
H652 N647 0.984 . S
H653 N647 0.985 . S
H654 N651 0.984 . S
H655 N651 0.985 . S
H656 N650 0.984 . S
H657 N650 0.984 . S
H658 N646 0.984 . S
H659 N646 0.985 . S
C660 C661 1.363 1_655 S
C660 C666 1.379 . S
C660 N668 1.356 . S
C661 C660 1.363 1_455 S
C661 C667 1.363 . S
C662 C663 1.363 . S
C662 C667 1.379 . S
C662 N669 1.356 . S
C663 C662 1.363 . S
C663 C666 1.363 1_455 S
N664 C666 1.356 . S
N664 H676 0.984 . S
N664 H677 0.985 . S
N665 C667 1.356 . S
N665 H670 0.984 . S
N665 H671 0.985 . S
C666 C660 1.379 . S
C666 C663 1.363 1_655 S
C666 N664 1.356 . S
C667 C661 1.363 . S
C667 C662 1.379 . S
C667 N665 1.356 . S
N668 C660 1.356 . S
N668 H674 0.984 . S
N668 H675 0.984 . S
N669 C662 1.356 . S
N669 H672 0.984 . S
N669 H673 0.985 . S
H670 N665 0.984 . S
H671 N665 0.985 . S
H672 N669 0.984 . S
H673 N669 0.985 . S
H674 N668 0.984 . S
H675 N668 0.984 . S
H676 N664 0.984 . S
H677 N664 0.985 . S
C355 C7 0.938 . S
C357 C331 0.994 . S
C373 C51 2.034 . S
C375 C258 1.977 . S
C391 C87 1.362 . S
C393 C297 1.400 . S
C409 C16 0.643 . S
C411 C336 0.560 . S
C429 C253 2.064 . S
C427 C42 2.170 . S
C447 C292 1.386 . S
C445 C96 1.361 . S
C463 C47 1.297 . S
C465 C180 1.321 . S
C481 C91 3.203 . S
C483 C214 3.137 . S
C499 C2 2.202 . S
C501 C136 2.116 . S
C519 C175 1.392 . S
C517 C56 1.350 . S
C537 C219 3.057 . S
C535 C82 3.120 . S
C553 C11 2.032 . S
C555 C141 1.989 . S
C573 C199 1.761 1_554 S
C571 C19 1.728 . S
C589 C50 1.335 . S
C591 C121 1.372 . S
C607 C99 1.462 . S
C609 C160 1.508 . S
C627 C277 1.490 . S
C625 C59 1.454 . S
C645 C316 1.095 . S
C643 C90 1.100 . S
C661 C10 1.328 . S
C663 C238 1.357 1_455 S
