# Generated by pormake.
# Topology wbl, (4,4)-cn, num edge types: 1
# Building blocks:
#     Node 0, Type 0, BuildingBlock: MIFKUJ_clean_linker_1, # of connection points: 4
#     Node 1, Type 0, BuildingBlock: MIFKUJ_clean_linker_1, # of connection points: 4
#     Node 2, Type 0, BuildingBlock: MIFKUJ_clean_linker_1, # of connection points: 4
#     Node 3, Type 0, BuildingBlock: MIFKUJ_clean_linker_1, # of connection points: 4
#     Node 4, Type 0, BuildingBlock: MIFKUJ_clean_linker_1, # of connection points: 4
#     Node 5, Type 0, BuildingBlock: MIFKUJ_clean_linker_1, # of connection points: 4
#     Node 6, Type 0, BuildingBlock: MIFKUJ_clean_linker_1, # of connection points: 4
#     Node 7, Type 0, BuildingBlock: MIFKUJ_clean_linker_1, # of connection points: 4
#     Node 8, Type 1, BuildingBlock: QUQFOY_clean_sbu_1, # of connection points: 4
#     Node 9, Type 1, BuildingBlock: QUQFOY_clean_sbu_1, # of connection points: 4
#     Node 10, Type 1, BuildingBlock: QUQFOY_clean_sbu_1, # of connection points: 4
#     Node 11, Type 1, BuildingBlock: QUQFOY_clean_sbu_1, # of connection points: 4
#     Node 12, Type 1, BuildingBlock: QUQFOY_clean_sbu_1, # of connection points: 4
#     Node 13, Type 1, BuildingBlock: QUQFOY_clean_sbu_1, # of connection points: 4
#     Node 14, Type 1, BuildingBlock: QUQFOY_clean_sbu_1, # of connection points: 4
#     Node 15, Type 1, BuildingBlock: QUQFOY_clean_sbu_1, # of connection points: 4
#     Edge 16, Type (0, 1), BuildingBlock: XUDNAN_clean_linker_2, # of connection points: 2
#     Edge 17, Type (0, 1), BuildingBlock: XUDNAN_clean_linker_2, # of connection points: 2
#     Edge 18, Type (0, 1), BuildingBlock: XUDNAN_clean_linker_2, # of connection points: 2
#     Edge 19, Type (0, 1), BuildingBlock: XUDNAN_clean_linker_2, # of connection points: 2
#     Edge 20, Type (0, 1), BuildingBlock: XUDNAN_clean_linker_2, # of connection points: 2
#     Edge 21, Type (0, 1), BuildingBlock: XUDNAN_clean_linker_2, # of connection points: 2
#     Edge 22, Type (0, 1), BuildingBlock: XUDNAN_clean_linker_2, # of connection points: 2
#     Edge 23, Type (0, 1), BuildingBlock: XUDNAN_clean_linker_2, # of connection points: 2
#     Edge 24, Type (0, 1), BuildingBlock: XUDNAN_clean_linker_2, # of connection points: 2
#     Edge 25, Type (0, 1), BuildingBlock: XUDNAN_clean_linker_2, # of connection points: 2
#     Edge 26, Type (0, 1), BuildingBlock: XUDNAN_clean_linker_2, # of connection points: 2
#     Edge 27, Type (0, 1), BuildingBlock: XUDNAN_clean_linker_2, # of connection points: 2
#     Edge 28, Type (0, 1), BuildingBlock: XUDNAN_clean_linker_2, # of connection points: 2
#     Edge 29, Type (0, 1), BuildingBlock: XUDNAN_clean_linker_2, # of connection points: 2
#     Edge 30, Type (0, 1), BuildingBlock: XUDNAN_clean_linker_2, # of connection points: 2
#     Edge 31, Type (0, 1), BuildingBlock: XUDNAN_clean_linker_2, # of connection points: 2
#     Edge 32, Type (0, 1), BuildingBlock: XUDNAN_clean_linker_2, # of connection points: 2
#     Edge 33, Type (0, 1), BuildingBlock: XUDNAN_clean_linker_2, # of connection points: 2
#     Edge 34, Type (0, 1), BuildingBlock: XUDNAN_clean_linker_2, # of connection points: 2
#     Edge 35, Type (0, 1), BuildingBlock: XUDNAN_clean_linker_2, # of connection points: 2
#     Edge 36, Type (0, 1), BuildingBlock: XUDNAN_clean_linker_2, # of connection points: 2
#     Edge 37, Type (0, 1), BuildingBlock: XUDNAN_clean_linker_2, # of connection points: 2
#     Edge 38, Type (0, 1), BuildingBlock: XUDNAN_clean_linker_2, # of connection points: 2
#     Edge 39, Type (0, 1), BuildingBlock: XUDNAN_clean_linker_2, # of connection points: 2
#     Edge 40, Type (0, 1), BuildingBlock: XUDNAN_clean_linker_2, # of connection points: 2
#     Edge 41, Type (0, 1), BuildingBlock: XUDNAN_clean_linker_2, # of connection points: 2
#     Edge 42, Type (0, 1), BuildingBlock: XUDNAN_clean_linker_2, # of connection points: 2
#     Edge 43, Type (0, 1), BuildingBlock: XUDNAN_clean_linker_2, # of connection points: 2
#     Edge 44, Type (0, 1), BuildingBlock: XUDNAN_clean_linker_2, # of connection points: 2
#     Edge 45, Type (0, 1), BuildingBlock: XUDNAN_clean_linker_2, # of connection points: 2
#     Edge 46, Type (0, 1), BuildingBlock: XUDNAN_clean_linker_2, # of connection points: 2
#     Edge 47, Type (0, 1), BuildingBlock: XUDNAN_clean_linker_2, # of connection points: 2
# Relax obj value: 0.175
# Max RMSD: 0.210
# Mean RMSD: 0.159
data_MOF--net-wbl--node1-QUQFOY_clean_sbu_1--node2-MIFKUJ_clean_linker_1--edge1-XUDNAN_clean_linker_2
_symmetry_space_group_name_H-M    P1
_symmetry_Int_Tables_number       1
_symmetry_cell_setting            triclinic
loop_
_symmetry_equiv_pos_as_xyz
'x, y, z'
_cell_length_a     45.8552
_cell_length_b     45.828704
_cell_length_c     76.700796
_cell_angle_alpha  93.504457
_cell_angle_beta   93.470812
_cell_angle_gamma 90.226792
loop_
_atom_site_label
_atom_site_type_symbol
_atom_site_fract_x
_atom_site_fract_y
_atom_site_fract_z
_atom_type_partial_charge
H0 H 0.14002 0.1534 0.3817 0.0
H1 H 0.11078 0.1874 0.39927 0.0
H2 H 0.03256 0.13932 0.38081 0.0
H3 H 0.06192 0.10527 0.36354 0.0
H4 H 0.14044 0.09001 0.38554 0.0
H5 H 0.12128 0.15859 0.33735 0.0
H6 H 0.08384 0.18814 0.32285 0.0
H7 H 0.0291 0.11094 0.31312 0.0
H8 H 0.06738 0.08167 0.32649 0.0
H9 H 0.13237 0.02146 0.31772 0.0
H10 H 0.1603 0.98449 0.30153 0.0
H11 H 0.2377 0.00863 0.33403 0.0
H12 H 0.21041 0.04681 0.34952 0.0
H13 H 0.13174 0.07532 0.32082 0.0
H14 H 0.14801 0.00449 0.36259 0.0
H15 H 0.17025 0.97122 0.38325 0.0
H16 H 0.21671 0.04387 0.41088 0.0
H17 H 0.1949 0.077 0.39002 0.0
C18 C 0.10309 0.127 0.37125 0.0
C19 C 0.11654 0.15044 0.38133 0.0
C20 C 0.0998 0.16991 0.39125 0.0
C21 C 0.06939 0.16599 0.39141 0.0
C22 C 0.05597 0.14277 0.38103 0.0
C23 C 0.07267 0.12344 0.37106 0.0
C24 C 0.12091 0.10522 0.36168 0.0
C25 C 0.13928 0.08709 0.37136 0.0
C26 C 0.11793 0.10061 0.34331 0.0
C27 C 0.09708 0.11798 0.33283 0.0
C28 C 0.10142 0.14809 0.33166 0.0
C29 C 0.0798 0.16498 0.32356 0.0
C30 C 0.05318 0.15213 0.31678 0.0
C31 C 0.0494 0.12172 0.31771 0.0
C32 C 0.07126 0.10482 0.32545 0.0
C33 C 0.16907 0.03685 0.33507 0.0
C34 C 0.15541 0.01907 0.32131 0.0
C35 C 0.17128 0.99786 0.3121 0.0
C36 C 0.20098 0.99365 0.31669 0.0
C37 C 0.21468 0.01125 0.33044 0.0
C38 C 0.19902 0.03294 0.33935 0.0
C39 C 0.1522 0.0598 0.34466 0.0
C40 C 0.13378 0.07826 0.33498 0.0
C41 C 0.15438 0.06394 0.3632 0.0
C42 C 0.16995 0.04326 0.37464 0.0
C43 C 0.16351 0.01318 0.37284 0.0
C44 C 0.17614 0.99419 0.38468 0.0
C45 C 0.19506 0.00501 0.39872 0.0
C46 C 0.20192 0.03499 0.4003 0.0
C47 C 0.18954 0.05391 0.38837 0.0
H48 H 0.05064 0.56805 0.57376 0.0
H49 H 0.0285 0.52908 0.55424 0.0
H50 H 0.94273 0.56232 0.5643 0.0
H51 H 0.96506 0.60191 0.5836 0.0
H52 H 0.05427 0.62379 0.57536 0.0
H53 H 0.0142 0.55419 0.61239 0.0
H54 H 0.98051 0.52456 0.62764 0.0
H55 H 0.93016 0.60162 0.64025 0.0
H56 H 0.96383 0.63112 0.62487 0.0
H57 H 0.04337 0.69461 0.64055 0.0
H58 H 0.07234 0.71098 0.66746 0.0
H59 H 0.13714 0.6458 0.65575 0.0
H60 H 0.10849 0.62979 0.62893 0.0
H61 H 0.02371 0.63428 0.63634 0.0
H62 H 0.06629 0.70269 0.59649 0.0
H63 H 0.10741 0.73027 0.58704 0.0
H64 H 0.15884 0.65119 0.58517 0.0
H65 H 0.1166 0.6236 0.59338 0.0
C66 C 0.00955 0.58775 0.58036 0.0
C67 C 0.02709 0.5674 0.57151 0.0
C68 C 0.01441 0.54514 0.5603 0.0
C69 C 0.98389 0.54265 0.55777 0.0
C70 C 0.96632 0.5636 0.56614 0.0
C71 C 0.97905 0.58612 0.57722 0.0
C72 C 0.02339 0.60969 0.59338 0.0
C73 C 0.04741 0.62604 0.58866 0.0
C74 C 0.01425 0.61337 0.6107 0.0
C75 C 0.9914 0.59482 0.61741 0.0
C76 C 0.99549 0.56456 0.61805 0.0
C77 C 0.97637 0.54771 0.62687 0.0
C78 C 0.95281 0.56082 0.63521 0.0
C79 C 0.94795 0.59087 0.63382 0.0
C80 C 0.96722 0.60776 0.6251 0.0
C81 C 0.07401 0.66127 0.63268 0.0
C82 C 0.06422 0.68447 0.64357 0.0
C83 C 0.08071 0.69376 0.65887 0.0
C84 C 0.10679 0.67947 0.66362 0.0
C85 C 0.11705 0.65706 0.65235 0.0
C86 C 0.10085 0.64812 0.63697 0.0
C87 C 0.05464 0.64755 0.61835 0.0
C88 C 0.0297 0.6327 0.62284 0.0
C89 C 0.06318 0.64472 0.60099 0.0
C90 C 0.08849 0.6612 0.59555 0.0
C91 C 0.08644 0.69139 0.59394 0.0
C92 C 0.1102 0.70715 0.58872 0.0
C93 C 0.13681 0.69314 0.58541 0.0
C94 C 0.13871 0.66277 0.58725 0.0
C95 C 0.11465 0.64692 0.59207 0.0
H96 H 0.52479 0.58943 0.88596 0.0
H97 H 0.49792 0.61931 0.90677 0.0
H98 H 0.41947 0.60788 0.87271 0.0
H99 H 0.44712 0.57886 0.85154 0.0
H100 H 0.51245 0.5313 0.87374 0.0
H101 H 0.51651 0.62804 0.85332 0.0
H102 H 0.49063 0.67187 0.84441 0.0
H103 H 0.45394 0.62364 0.79813 0.0
H104 H 0.47841 0.57927 0.80755 0.0
H105 H 0.52915 0.47344 0.81894 0.0
H106 H 0.5615 0.44276 0.80162 0.0
H107 H 0.626 0.51245 0.80595 0.0
H108 H 0.59272 0.54336 0.82236 0.0
H109 H 0.53244 0.56101 0.81446 0.0
H110 H 0.50781 0.47186 0.86165 0.0
H111 H 0.5305 0.43539 0.88017 0.0
H112 H 0.6148 0.47569 0.87584 0.0
H113 H 0.59208 0.51201 0.85735 0.0
C114 C 0.48791 0.58193 0.86727 0.0
C115 C 0.50179 0.59339 0.883 0.0
C116 C 0.4863 0.61033 0.89493 0.0
C117 C 0.45637 0.61578 0.89156 0.0
C118 C 0.44253 0.60439 0.87568 0.0
C119 C 0.45821 0.58765 0.86361 0.0
C120 C 0.50482 0.56375 0.85492 0.0
C121 C 0.51645 0.53757 0.86067 0.0
C122 C 0.51054 0.57246 0.83805 0.0
C123 C 0.49868 0.60007 0.83139 0.0
C124 C 0.5028 0.62678 0.84129 0.0
C125 C 0.48829 0.65187 0.83614 0.0
C126 C 0.47033 0.65094 0.82065 0.0
C127 C 0.46784 0.62483 0.81009 0.0
C128 C 0.48179 0.59953 0.81547 0.0
C129 C 0.55863 0.51057 0.82193 0.0
C130 C 0.55013 0.48214 0.81591 0.0
C131 C 0.5688 0.46457 0.80612 0.0
C132 C 0.5966 0.47492 0.80243 0.0
C133 C 0.60466 0.50378 0.8082 0.0
C134 C 0.58574 0.52149 0.81771 0.0
C135 C 0.53983 0.52843 0.83332 0.0
C136 C 0.52786 0.55448 0.82738 0.0
C137 C 0.53404 0.51992 0.85017 0.0
C138 C 0.54829 0.49453 0.85808 0.0
C139 C 0.5313 0.47228 0.86429 0.0
C140 C 0.54426 0.45145 0.87482 0.0
C141 C 0.57433 0.45291 0.87951 0.0
C142 C 0.59153 0.47422 0.87247 0.0
C143 C 0.57862 0.49481 0.8618 0.0
H144 H 0.54802 0.0027 0.06799 0.0
H145 H 0.51239 0.96604 0.05603 0.0
H146 H 0.44566 0.00909 0.08542 0.0
H147 H 0.48134 0.04649 0.0969 0.0
H148 H 0.55461 0.0609 0.06827 0.0
H149 H 0.53217 0.98937 0.10978 0.0
H150 H 0.50351 0.9636 0.13011 0.0
H151 H 0.49152 0.04469 0.1603 0.0
H152 H 0.51864 0.07084 0.13945 0.0
H153 H 0.59121 0.12233 0.13438 0.0
H154 H 0.63427 0.13783 0.15301 0.0
H155 H 0.68791 0.08044 0.12187 0.0
H156 H 0.64458 0.06492 0.10325 0.0
H157 H 0.57344 0.0652 0.13269 0.0
H158 H 0.60031 0.13562 0.09499 0.0
H159 H 0.63017 0.16333 0.07644 0.0
H160 H 0.63399 0.0882 0.03996 0.0
H161 H 0.60545 0.0597 0.05906 0.0
C162 C 0.51744 0.02706 0.08354 0.0
C163 C 0.52558 0.00466 0.07156 0.0
C164 C 0.50526 0.98353 0.06489 0.0
C165 C 0.47637 0.98437 0.07006 0.0
C166 C 0.46776 0.00787 0.0812 0.0
C167 C 0.48814 0.02915 0.08784 0.0
C168 C 0.54038 0.04635 0.09255 0.0
C169 C 0.55892 0.06179 0.08235 0.0
C170 C 0.54521 0.0482 0.11101 0.0
C171 C 0.52708 0.03223 0.12283 0.0
C172 C 0.52271 0.00181 0.12046 0.0
C173 C 0.50653 0.98705 0.13212 0.0
C174 C 0.49534 0.0023 0.14664 0.0
C175 C 0.49995 0.03256 0.14915 0.0
C176 C 0.51545 0.04743 0.13727 0.0
C177 C 0.61475 0.09251 0.11747 0.0
C178 C 0.61237 0.11364 0.13132 0.0
C179 C 0.63701 0.12257 0.14188 0.0
C180 C 0.66441 0.11023 0.13891 0.0
C181 C 0.66701 0.09016 0.12449 0.0
C182 C 0.64235 0.08144 0.1138 0.0
C183 C 0.58806 0.07924 0.10842 0.0
C184 C 0.56892 0.06478 0.11862 0.0
C185 C 0.58271 0.07841 0.09003 0.0
C186 C 0.60101 0.09526 0.0787 0.0
C187 C 0.60816 0.12471 0.08328 0.0
C188 C 0.62506 0.14065 0.07261 0.0
C189 C 0.63447 0.12777 0.05688 0.0
C190 C 0.62697 0.09855 0.05206 0.0
C191 C 0.61059 0.08235 0.06295 0.0
H192 H 0.03342 0.66038 0.92419 0.0
H193 H 0.07289 0.68372 0.91025 0.0
H194 H 0.13601 0.63923 0.94321 0.0
H195 H 0.09648 0.61386 0.9558 0.0
H196 H 0.02206 0.60533 0.92055 0.0
H197 H 0.04273 0.67113 0.97296 0.0
H198 H 0.08095 0.69405 0.9929 0.0
H199 H 0.10893 0.60857 0.00783 0.0
H200 H 0.07003 0.58608 0.98841 0.0
H201 H 3e-05 0.51923 0.95557 0.0
H202 H 0.96184 0.48306 0.96 0.0
H203 H 0.90227 0.55304 0.97215 0.0
H204 H 0.94072 0.58906 0.9682 0.0
H205 H 0.01001 0.5895 0.98317 0.0
H206 H 0.01677 0.54471 0.91364 0.0
H207 H 0.98765 0.518 0.89004 0.0
H208 H 0.90945 0.55901 0.90826 0.0
H209 H 0.93879 0.5857 0.93181 0.0
C210 C 0.06181 0.63537 0.94113 0.0
C211 C 0.05578 0.65586 0.92852 0.0
C212 C 0.07849 0.6695 0.92068 0.0
C213 C 0.10783 0.66323 0.92542 0.0
C214 C 0.11375 0.64416 0.9389 0.0
C215 C 0.09104 0.62999 0.94642 0.0
C216 C 0.03775 0.61729 0.94713 0.0
C217 C 0.01923 0.60241 0.93428 0.0
C218 C 0.03422 0.61276 0.96502 0.0
C219 C 0.05385 0.62694 0.97907 0.0
C220 C 0.05673 0.65746 0.98085 0.0
C221 C 0.0787 0.67047 0.99217 0.0
C222 C 0.09837 0.65315 0.00178 0.0
C223 C 0.09408 0.62266 0.00081 0.0
C224 C 0.07189 0.6097 0.98964 0.0
C225 C 0.97306 0.55668 0.96161 0.0
C226 C 0.97895 0.52668 0.95962 0.0
C227 C 0.95722 0.50612 0.96213 0.0
C228 C 0.92924 0.51541 0.96632 0.0
C229 C 0.92372 0.54546 0.96888 0.0
C230 C 0.94561 0.56597 0.96672 0.0
C231 C 0.99447 0.57823 0.95655 0.0
C232 C 0.01252 0.59332 0.96952 0.0
C233 C 0.99777 0.58292 0.93877 0.0
C234 C 0.97987 0.56688 0.92457 0.0
C235 C 0.99336 0.54795 0.91251 0.0
C236 C 0.97671 0.53281 0.89901 0.0
C237 C 0.94626 0.5364 0.8973 0.0
C238 C 0.93281 0.55547 0.90939 0.0
C239 C 0.94952 0.5707 0.92286 0.0
H240 H 0.57926 0.56863 0.22643 0.0
H241 H 0.56348 0.61586 0.23876 0.0
H242 H 0.47713 0.60038 0.21411 0.0
H243 H 0.49279 0.5525 0.20227 0.0
H244 H 0.56687 0.51246 0.22671 0.0
H245 H 0.5609 0.58568 0.18461 0.0
H246 H 0.54202 0.62138 0.16452 0.0
H247 H 0.48217 0.55626 0.13967 0.0
H248 H 0.50049 0.5209 0.16028 0.0
H249 H 0.55832 0.44505 0.15899 0.0
H250 H 0.5883 0.41772 0.13843 0.0
H251 H 0.66633 0.45366 0.16627 0.0
H252 H 0.63625 0.48079 0.18681 0.0
H253 H 0.55805 0.50331 0.16187 0.0
H254 H 0.57997 0.42733 0.19947 0.0
H255 H 0.61216 0.39365 0.21487 0.0
H256 H 0.6498 0.46591 0.24739 0.0
H257 H 0.61892 0.49997 0.23131 0.0
C258 C 0.53735 0.55718 0.2132 0.0
C259 C 0.5567 0.575 0.22405 0.0
C260 C 0.54774 0.60216 0.23093 0.0
C261 C 0.51923 0.6121 0.22711 0.0
C262 C 0.49924 0.59335 0.21728 0.0
C263 C 0.50822 0.56607 0.21042 0.0
C264 C 0.54875 0.53115 0.20338 0.0
C265 C 0.565 0.51033 0.21253 0.0
C266 C 0.54573 0.52811 0.18488 0.0
C267 C 0.53188 0.55069 0.17408 0.0
C268 C 0.54317 0.5793 0.17516 0.0
C269 C 0.53257 0.5996 0.16352 0.0
C270 C 0.51075 0.5916 0.15039 0.0
C271 C 0.49876 0.56323 0.14972 0.0
C272 C 0.50933 0.54294 0.16142 0.0
C273 C 0.59503 0.46484 0.17448 0.0
C274 C 0.5819 0.44661 0.16083 0.0
C275 C 0.59905 0.43116 0.14904 0.0
C276 C 0.62967 0.43375 0.15063 0.0
C277 C 0.64282 0.45096 0.16479 0.0
C278 C 0.62564 0.46646 0.17657 0.0
C279 C 0.57686 0.48494 0.1851 0.0
C280 C 0.55927 0.50471 0.17607 0.0
C281 C 0.57937 0.48727 0.20365 0.0
C282 C 0.59728 0.46642 0.21392 0.0
C283 C 0.59538 0.43611 0.20973 0.0
C284 C 0.61362 0.41682 0.2186 0.0
C285 C 0.63344 0.4273 0.23222 0.0
C286 C 0.63458 0.45736 0.23695 0.0
C287 C 0.61684 0.47677 0.2278 0.0
H288 H 0.5909 0.9756 0.4322 0.0
H289 H 0.55667 0.94352 0.41414 0.0
H290 H 0.49171 0.01137 0.41543 0.0
H291 H 0.52576 0.04316 0.4341 0.0
H292 H 0.60562 0.03422 0.42043 0.0
H293 H 0.562 0.98512 0.46484 0.0
H294 H 0.52225 0.96881 0.48098 0.0
H295 H 0.51258 0.0571 0.50346 0.0
H296 H 0.54905 0.07388 0.48481 0.0
H297 H 0.61486 0.12701 0.47315 0.0
H298 H 0.65136 0.16254 0.48572 0.0
H299 H 0.7193 0.09885 0.47734 0.0
H300 H 0.68271 0.06398 0.46419 0.0
H301 H 0.6014 0.06954 0.48262 0.0
H302 H 0.63822 0.11852 0.43428 0.0
H303 H 0.67384 0.13512 0.41446 0.0
H304 H 0.69744 0.04531 0.4021 0.0
H305 H 0.66291 0.02909 0.42247 0.0
C306 C 0.56066 0.01154 0.43456 0.0
C307 C 0.56907 0.98331 0.42889 0.0
C308 C 0.54957 0.96505 0.41867 0.0
C309 C 0.52168 0.97509 0.41355 0.0
C310 C 0.51311 0.00324 0.41935 0.0
C311 C 0.53242 0.02129 0.42998 0.0
C312 C 0.58244 0.03163 0.44384 0.0
C313 C 0.60486 0.04173 0.43409 0.0
C314 C 0.58084 0.04163 0.46162 0.0
C315 C 0.55791 0.03106 0.47281 0.0
C316 C 0.55052 0.00126 0.47263 0.0
C317 C 0.5281 0.99172 0.4825 0.0
C318 C 0.51341 0.01145 0.49371 0.0
C319 C 0.52219 0.04109 0.49464 0.0
C320 C 0.54368 0.05078 0.48412 0.0
C321 C 0.64617 0.09303 0.46765 0.0
C322 C 0.63763 0.12075 0.47412 0.0
C323 C 0.65854 0.14097 0.48137 0.0
C324 C 0.68835 0.13365 0.48249 0.0
C325 C 0.69666 0.1055 0.47635 0.0
C326 C 0.67577 0.08543 0.46895 0.0
C327 C 0.62419 0.07229 0.45909 0.0
C328 C 0.60187 0.06204 0.46895 0.0
C329 C 0.62568 0.06206 0.44141 0.0
C330 C 0.64814 0.07256 0.43004 0.0
C331 C 0.65151 0.10248 0.42756 0.0
C332 C 0.67163 0.11192 0.41605 0.0
C333 C 0.68859 0.09158 0.40669 0.0
C334 C 0.68519 0.06166 0.4093 0.0
C335 C 0.66523 0.05229 0.42085 0.0
H336 H 0.08661 0.20268 0.71828 0.0
H337 H 0.04558 0.23277 0.72701 0.0
H338 H 0.99107 0.15523 0.72561 0.0
H339 H 0.03283 0.12528 0.71784 0.0
H340 H 0.09008 0.11901 0.73409 0.0
H341 H 0.12566 0.19128 0.67862 0.0
H342 H 0.10589 0.2174 0.65367 0.0
H343 H 0.02219 0.17539 0.65723 0.0
H344 H 0.04212 0.14888 0.68184 0.0
H345 H 0.12915 0.05026 0.69213 0.0
H346 H 0.16044 0.01998 0.67375 0.0
H347 H 0.21767 0.09412 0.66986 0.0
H348 H 0.18659 0.12408 0.68845 0.0
H349 H 0.13052 0.13383 0.67676 0.0
H350 H 0.09119 0.06331 0.73147 0.0
H351 H 0.11003 0.02492 0.74975 0.0
H352 H 0.19808 0.05557 0.74458 0.0
H353 H 0.17916 0.0944 0.72663 0.0
C354 C 0.0627 0.16181 0.71742 0.0
C355 C 0.06586 0.19222 0.72005 0.0
C356 C 0.04222 0.2094 0.72486 0.0
C357 C 0.01474 0.19657 0.72686 0.0
C358 C 0.01189 0.16594 0.72446 0.0
C359 C 0.03572 0.14873 0.71996 0.0
C360 C 0.08715 0.14387 0.71113 0.0
C361 C 0.09894 0.12209 0.72153 0.0
C362 C 0.09885 0.1483 0.69488 0.0
C363 C 0.08536 0.16824 0.6822 0.0
C364 C 0.10288 0.18817 0.67426 0.0
C365 C 0.09161 0.20301 0.66001 0.0
C366 C 0.06257 0.19828 0.65349 0.0
C367 C 0.04454 0.17973 0.66212 0.0
C368 C 0.05591 0.16465 0.67626 0.0
C369 C 0.1556 0.0894 0.6917 0.0
C370 C 0.14892 0.05973 0.68777 0.0
C371 C 0.16664 0.04255 0.67711 0.0
C372 C 0.19135 0.05475 0.67021 0.0
C373 C 0.19894 0.084 0.67506 0.0
C374 C 0.18114 0.10118 0.68564 0.0
C375 C 0.13381 0.10904 0.6997 0.0
C376 C 0.1223 0.13116 0.68955 0.0
C377 C 0.12215 0.10446 0.716 0.0
C378 C 0.13373 0.08158 0.72744 0.0
C379 C 0.11454 0.06201 0.73441 0.0
C380 C 0.12531 0.0401 0.74489 0.0
C381 C 0.15553 0.03722 0.74855 0.0
C382 C 0.17471 0.05706 0.74179 0.0
C383 C 0.1639 0.07917 0.73147 0.0
O384 O 0.35711 0.73128 0.99789 0.0
Cd385 Cd 0.34137 0.74823 0.02092 0.0
Cd386 Cd 0.39756 0.73088 0.03433 0.0
O387 O 0.39817 0.71297 0.00891 0.0
O388 O 0.29895 0.75211 0.015 0.0
O389 O 0.31677 0.72289 0.03489 0.0
C390 C 0.2944 0.73299 0.02619 0.0
C391 C 0.42372 0.70542 0.0558 0.0
C392 C 0.38029 0.71669 0.99593 0.0
C393 C 0.38058 0.79561 0.03694 0.0
O394 O 0.39963 0.77583 0.03899 0.0
O395 O 0.35515 0.78916 0.03036 0.0
O396 O 0.43658 0.71975 0.04454 0.0
O397 O 0.39551 0.70494 0.05479 0.0
O398 O 0.41546 0.84942 0.30656 0.0
Cd399 Cd 0.39379 0.83522 0.28337 0.0
Cd400 Cd 0.4328 0.86905 0.26986 0.0
O401 O 0.43681 0.88659 0.29547 0.0
O402 O 0.35164 0.83219 0.28812 0.0
O403 O 0.36967 0.86501 0.27144 0.0
C404 C 0.34777 0.85498 0.27913 0.0
C405 C 0.43354 0.89951 0.24648 0.0
C406 C 0.43016 0.87303 0.30867 0.0
C407 C 0.43693 0.80283 0.26381 0.0
O408 O 0.44926 0.82782 0.26424 0.0
O409 O 0.4116 0.8003 0.2695 0.0
O410 O 0.45669 0.89528 0.25635 0.0
O411 O 0.40952 0.88732 0.25028 0.0
O412 O 0.28301 0.88725 0.50528 0.0
Cd413 Cd 0.30541 0.87897 0.5284 0.0
Cd414 Cd 0.26147 0.90844 0.54312 0.0
O415 O 0.2545 0.92036 0.51745 0.0
O416 O 0.34832 0.88102 0.52529 0.0
O417 O 0.32397 0.91442 0.54061 0.0
C418 C 0.34802 0.90611 0.53397 0.0
C419 C 0.25677 0.94284 0.56662 0.0
C420 C 0.26412 0.90731 0.50384 0.0
C421 C 0.26751 0.84327 0.54823 0.0
O422 O 0.25205 0.86622 0.54917 0.0
O423 O 0.29197 0.84354 0.54127 0.0
O424 O 0.23425 0.93243 0.5574 0.0
O425 O 0.28223 0.93467 0.56203 0.0
O426 O 0.22641 0.77897 0.76896 0.0
Cd427 Cd 0.25171 0.80558 0.78637 0.0
Cd428 Cd 0.23948 0.75952 0.80964 0.0
O429 O 0.21687 0.74435 0.78668 0.0
O430 O 0.25288 0.8436 0.77527 0.0
O431 O 0.23167 0.83773 0.79999 0.0
C432 C 0.23784 0.85447 0.78773 0.0
C433 C 0.22168 0.74135 0.83502 0.0
C434 C 0.21416 0.75494 0.77173 0.0
C435 C 0.30289 0.77477 0.80247 0.0
O436 O 0.28448 0.76087 0.81058 0.0
O437 O 0.29454 0.79364 0.79181 0.0
O438 O 0.23528 0.72519 0.82396 0.0
O439 O 0.21754 0.76832 0.83168 0.0
O440 O 0.93319 0.27819 0.55213 0.0
Cd441 Cd 0.90581 0.29652 0.5337 0.0
Cd442 Cd 0.92775 0.25504 0.5106 0.0
O443 O 0.95384 0.24831 0.53296 0.0
O444 O 0.89941 0.33765 0.54202 0.0
O445 O 0.92294 0.325 0.51832 0.0
C446 C 0.91378 0.34532 0.52906 0.0
C447 C 0.95208 0.24829 0.4847 0.0
C448 C 0.95225 0.25912 0.54853 0.0
C449 C 0.86242 0.25454 0.51644 0.0
O450 O 0.88391 0.24314 0.50887 0.0
O451 O 0.86619 0.27681 0.52703 0.0
O452 O 0.94406 0.2266 0.49321 0.0
O453 O 0.94595 0.2743 0.49077 0.0
O454 O 0.84419 0.41193 0.78811 0.0
Cd455 Cd 0.82702 0.38945 0.7658 0.0
Cd456 Cd 0.87311 0.41883 0.75158 0.0
O457 O 0.87792 0.43808 0.77672 0.0
O458 O 0.78983 0.37351 0.77345 0.0
O459 O 0.79127 0.40694 0.75392 0.0
C460 C 0.77608 0.39111 0.76345 0.0
C461 C 0.87836 0.44835 0.72812 0.0
C462 C 0.86416 0.43134 0.78982 0.0
C463 C 0.8736 0.35249 0.75001 0.0
O464 O 0.88657 0.37622 0.74735 0.0
O465 O 0.84887 0.35286 0.75665 0.0
O466 O 0.90047 0.44078 0.73794 0.0
O467 O 0.85275 0.43965 0.73183 0.0
O468 O 0.74592 0.35465 0.04071 0.0
Cd469 Cd 0.75709 0.33485 0.01736 0.0
Cd470 Cd 0.71464 0.36961 0.00355 0.0
O471 O 0.70557 0.37435 0.02976 0.0
O472 O 0.76565 0.29336 0.02161 0.0
O473 O 0.72702 0.30766 0.00547 0.0
C474 C 0.74123 0.28694 0.01287 0.0
C475 C 0.67678 0.37461 0.98209 0.0
C476 C 0.72221 0.36824 0.04291 0.0
C477 C 0.77909 0.37811 0.99531 0.0
O478 O 0.7527 0.38648 0.99507 0.0
O479 O 0.78695 0.35567 0.00326 0.0
O480 O 0.68642 0.3964 0.99221 0.0
O481 O 0.68726 0.3491 0.98491 0.0
O482 O 0.78777 0.20533 0.24401 0.0
Cd483 Cd 0.80166 0.23428 0.26469 0.0
Cd484 Cd 0.80259 0.18037 0.28104 0.0
O485 O 0.78479 0.16406 0.25728 0.0
O486 O 0.79223 0.27256 0.25481 0.0
O487 O 0.77108 0.25679 0.27767 0.0
C488 C 0.77303 0.27629 0.26631 0.0
C489 C 0.78573 0.16197 0.30643 0.0
C490 C 0.78153 0.17823 0.24359 0.0
C491 C 0.85947 0.21405 0.27916 0.0
O492 O 0.8462 0.19074 0.28222 0.0
O493 O 0.84564 0.23567 0.2732 0.0
O494 O 0.80225 0.14688 0.29637 0.0
O495 O 0.77802 0.18765 0.30191 0.0
H496 H 0.23162 0.94818 0.32988 0.0
H497 H 0.20881 0.98956 0.28168 0.0
H498 H 0.24047 0.95479 0.26568 0.0
H499 H 0.30507 0.93553 0.323 0.0
H500 H 0.30656 0.90036 0.33232 0.0
H501 H 0.28046 0.92701 0.33947 0.0
H502 H 0.23843 0.88965 0.33156 0.0
H503 H 0.26446 0.86287 0.32431 0.0
H504 H 0.23428 0.87266 0.30971 0.0
H505 H 0.27999 0.92015 0.2561 0.0
H506 H 0.32133 0.88585 0.25322 0.0
H507 H 0.31451 0.86389 0.30698 0.0
C508 C 0.23304 0.94956 0.31591 0.0
C509 C 0.21794 0.97142 0.30693 0.0
C510 C 0.22017 0.97276 0.28868 0.0
C511 C 0.23806 0.95314 0.27954 0.0
C512 C 0.25299 0.93197 0.2888 0.0
C513 C 0.25026 0.92976 0.30653 0.0
C514 C 0.26924 0.90564 0.31354 0.0
C515 C 0.29166 0.91788 0.32792 0.0
C516 C 0.25047 0.88126 0.32017 0.0
C517 C 0.28388 0.89528 0.29712 0.0
C518 C 0.27429 0.91077 0.28298 0.0
C519 C 0.28706 0.90729 0.26693 0.0
C520 C 0.31047 0.8878 0.26539 0.0
C521 C 0.32043 0.87171 0.27972 0.0
C522 C 0.30653 0.87511 0.29563 0.0
H523 H 0.15223 0.75048 0.59487 0.0
H524 H 0.17877 0.67477 0.56288 0.0
H525 H 0.21922 0.70359 0.55279 0.0
H526 H 0.16176 0.80051 0.56281 0.0
H527 H 0.17404 0.83004 0.57814 0.0
H528 H 0.15005 0.80227 0.58487 0.0
H529 H 0.18732 0.7917 0.61045 0.0
H530 H 0.21153 0.81939 0.60372 0.0
H531 H 0.22442 0.7826 0.60589 0.0
H532 H 0.25519 0.74179 0.54466 0.0
H533 H 0.28036 0.78692 0.53729 0.0
H534 H 0.22719 0.83799 0.57258 0.0
C535 C 0.16641 0.73977 0.58573 0.0
C536 C 0.16216 0.7101 0.57983 0.0
C537 C 0.18175 0.69717 0.56801 0.0
C538 C 0.20481 0.71344 0.56211 0.0
C539 C 0.20796 0.7427 0.568 0.0
C540 C 0.18912 0.75578 0.57945 0.0
C541 C 0.19539 0.78818 0.58255 0.0
C542 C 0.16873 0.80631 0.57674 0.0
C543 C 0.20526 0.79591 0.60179 0.0
C544 C 0.22027 0.79145 0.57072 0.0
C545 C 0.2277 0.76489 0.56273 0.0
C546 C 0.24965 0.76268 0.55091 0.0
C547 C 0.26389 0.78838 0.54684 0.0
C548 C 0.25566 0.8159 0.55434 0.0
C549 C 0.23393 0.81725 0.56664 0.0
H550 H 0.42911 0.67599 0.84035 0.0
H551 H 0.46913 0.68117 0.79093 0.0
H552 H 0.43467 0.72042 0.78283 0.0
H553 H 0.35835 0.68027 0.82304 0.0
H554 H 0.3445 0.70095 0.84147 0.0
H555 H 0.37562 0.67775 0.84464 0.0
H556 H 0.40572 0.72179 0.85898 0.0
H557 H 0.37463 0.74524 0.8558 0.0
H558 H 0.40903 0.75445 0.84726 0.0
H559 H 0.39291 0.75573 0.77916 0.0
H560 H 0.34461 0.77963 0.77865 0.0
H561 H 0.33054 0.74877 0.82984 0.0
C562 C 0.43113 0.68612 0.82808 0.0
C563 C 0.452 0.67622 0.81637 0.0
C564 C 0.45343 0.68893 0.80011 0.0
C565 C 0.43409 0.71126 0.79548 0.0
C566 C 0.41336 0.72033 0.80723 0.0
C567 C 0.41167 0.70796 0.82316 0.0
C568 C 0.38512 0.71854 0.83241 0.0
C569 C 0.3647 0.69285 0.83556 0.0
C570 C 0.39418 0.73605 0.84963 0.0
C571 C 0.37159 0.7381 0.81899 0.0
C572 C 0.38856 0.73952 0.80477 0.0
C573 C 0.37962 0.75505 0.79031 0.0
C574 C 0.35221 0.76866 0.79016 0.0
C575 C 0.33389 0.76607 0.80421 0.0
C576 C 0.34417 0.75126 0.81896 0.0
H577 H 0.48873 0.92623 0.06968 0.0
H578 H 0.41828 0.98665 0.05882 0.0
H579 H 0.38511 0.94479 0.05001 0.0
H580 H 0.47149 0.87528 0.03355 0.0
H581 H 0.48141 0.84381 0.04554 0.0
H582 H 0.49888 0.87855 0.05145 0.0
H583 H 0.48328 0.87581 0.08325 0.0
H584 H 0.46567 0.84108 0.07742 0.0
H585 H 0.44523 0.87077 0.08708 0.0
H586 H 0.3603 0.89579 0.04153 0.0
H587 H 0.34595 0.84421 0.03422 0.0
H588 H 0.43341 0.81693 0.0507 0.0
C589 C 0.46639 0.93074 0.0653 0.0
C590 C 0.45611 0.95968 0.06478 0.0
C591 C 0.42654 0.96461 0.05937 0.0
C592 C 0.40761 0.941 0.05431 0.0
C593 C 0.41861 0.91271 0.05487 0.0
C594 C 0.44732 0.90756 0.06027 0.0
C595 C 0.45401 0.87527 0.05956 0.0
C596 C 0.47785 0.8678 0.04676 0.0
C597 C 0.46254 0.86515 0.07792 0.0
C598 C 0.42465 0.86293 0.0527 0.0
C599 C 0.40443 0.88478 0.05012 0.0
C600 C 0.37594 0.87851 0.04356 0.0
C601 C 0.368 0.84915 0.03945 0.0
C602 C 0.38853 0.82648 0.04189 0.0
C603 C 0.41713 0.83365 0.04871 0.0
H604 H 0.1322 0.69709 0.99113 0.0
H605 H 0.12592 0.63819 0.03299 0.0
H606 H 0.17425 0.65545 0.04564 0.0
H607 H 0.20439 0.68681 0.98449 0.0
H608 H 0.21245 0.72415 0.98022 0.0
H609 H 0.176 0.70991 0.97581 0.0
H610 H 0.15567 0.75164 0.99587 0.0
H611 H 0.19211 0.76627 1.00022 0.0
H612 H 0.17055 0.7575 0.01811 0.0
H613 H 0.22613 0.6749 0.05143 0.0
H614 H 0.27565 0.69637 0.05046 0.0
H615 H 0.2458 0.74378 0.00555 0.0
C616 C 0.14034 0.68854 0.00333 0.0
C617 C 0.1251 0.66635 0.01108 0.0
C618 C 0.13725 0.65506 0.02671 0.0
C619 C 0.16461 0.66487 0.03406 0.0
C620 C 0.17934 0.68624 0.02577 0.0
C621 C 0.16737 0.69821 0.01087 0.0
C622 C 0.18825 0.71939 0.00371 0.0
C623 C 0.19571 0.70945 0.98496 0.0
C624 C 0.17591 0.75055 0.00453 0.0
C625 C 0.21426 0.71682 0.01657 0.0
C626 C 0.20876 0.69777 0.02929 0.0
C627 C 0.23047 0.6903 0.04174 0.0
C628 C 0.25853 0.70252 0.04107 0.0
C629 C 0.2645 0.72193 0.02804 0.0
C630 C 0.24186 0.72939 0.01586 0.0
H631 H 0.4682 0.63295 0.24066 0.0
H632 H 0.55235 0.66076 0.22417 0.0
H633 H 0.53993 0.71204 0.23154 0.0
H634 H 0.42681 0.69334 0.22403 0.0
H635 H 0.40343 0.69645 0.2421 0.0
H636 H 0.41878 0.66157 0.23569 0.0
H637 H 0.44132 0.65732 0.26721 0.0
H638 H 0.42598 0.69214 0.27374 0.0
H639 H 0.4647 0.68623 0.27714 0.0
H640 H 0.51888 0.75989 0.24022 0.0
H641 H 0.49079 0.80229 0.25062 0.0
H642 H 0.41961 0.74462 0.26169 0.0
C643 C 0.48395 0.64987 0.23858 0.0
C644 C 0.5114 0.6428 0.23201 0.0
C645 C 0.53146 0.66556 0.22953 0.0
C646 C 0.52452 0.6948 0.23353 0.0
C647 C 0.49739 0.70101 0.24001 0.0
C648 C 0.4774 0.67931 0.24259 0.0
C649 C 0.44988 0.69222 0.24987 0.0
C650 C 0.42314 0.6855 0.23716 0.0
C651 C 0.44521 0.68133 0.26807 0.0
C652 C 0.45763 0.72454 0.25095 0.0
C653 C 0.48512 0.72898 0.24512 0.0
C654 C 0.49732 0.75675 0.24483 0.0
C655 C 0.48111 0.78072 0.25079 0.0
C656 C 0.45293 0.77689 0.25702 0.0
C657 C 0.44104 0.74833 0.257 0.0
H658 H 0.50219 0.9556 0.50447 0.0
H659 H 0.46687 0.04376 0.50582 0.0
H660 H 0.4256 0.02697 0.52136 0.0
H661 H 0.43474 0.92286 0.49186 0.0
H662 H 0.44139 0.89048 0.50366 0.0
H663 H 0.47157 0.91036 0.49612 0.0
H664 H 0.49502 0.91541 0.52777 0.0
H665 H 0.46468 0.89571 0.53545 0.0
H666 H 0.47437 0.93155 0.54511 0.0
H667 H 0.38584 0.0004 0.53474 0.0
H668 H 0.34746 0.96516 0.54062 0.0
H669 H 0.40472 0.89339 0.52667 0.0
C670 C 0.48601 0.97167 0.50791 0.0
C671 C 0.48871 0.00139 0.50395 0.0
C672 C 0.46656 0.02118 0.50911 0.0
C673 C 0.44266 0.0118 0.51792 0.0
C674 C 0.44063 0.98239 0.52128 0.0
C675 C 0.46144 0.96252 0.51616 0.0
C676 C 0.45202 0.9315 0.51901 0.0
C677 C 0.44979 0.91271 0.50163 0.0
C678 C 0.47276 0.91774 0.53265 0.0
C679 C 0.42222 0.93702 0.52603 0.0
C680 C 0.41654 0.96662 0.5278 0.0
C681 C 0.39009 0.97717 0.5335 0.0
C682 C 0.36845 0.95695 0.53688 0.0
C683 C 0.3731 0.92652 0.5341 0.0
C684 C 0.40063 0.91651 0.52902 0.0
H685 H 0.20041 0.00052 0.74085 0.0
H686 H 0.13596 0.01858 0.77912 0.0
H687 H 0.15329 0.97607 0.79516 0.0
H688 H 0.19243 0.92456 0.7386 0.0
H689 H 0.23051 0.91694 0.73602 0.0
H690 H 0.21508 0.95044 0.72875 0.0
H691 H 0.25432 0.98018 0.74816 0.0
H692 H 0.2699 0.9467 0.75551 0.0
H693 H 0.25857 0.97459 0.77123 0.0
H694 H 0.17573 0.92957 0.80587 0.0
H695 H 0.19966 0.88186 0.80952 0.0
H696 H 0.24896 0.89455 0.76399 0.0
C697 C 0.1904 0.99593 0.75283 0.0
C698 C 0.16701 0.01294 0.75884 0.0
C699 C 0.15389 0.00575 0.77429 0.0
C700 C 0.16371 0.98179 0.78353 0.0
C701 C 0.18666 0.96527 0.77714 0.0
C702 C 0.1998 0.97204 0.76213 0.0
C703 C 0.22252 0.94964 0.75724 0.0
C704 C 0.21465 0.9345 0.73908 0.0
C705 C 0.25314 0.96362 0.75809 0.0
C706 C 0.21973 0.92886 0.77165 0.0
C707 C 0.19923 0.9384 0.78314 0.0
C708 C 0.19203 0.92204 0.79705 0.0
C709 C 0.20576 0.89499 0.79904 0.0
C710 C 0.22624 0.8845 0.78708 0.0
C711 C 0.23358 0.90202 0.77343 0.0
H712 H 0.6382 0.48917 0.77963 0.0
H713 H 0.60409 0.41607 0.80588 0.0
H714 H 0.64184 0.38437 0.79371 0.0
H715 H 0.66403 0.44646 0.74052 0.0
H716 H 0.69655 0.46865 0.74035 0.0
H717 H 0.66343 0.48444 0.74814 0.0
H718 H 0.69109 0.50123 0.77754 0.0
H719 H 0.72419 0.48567 0.76982 0.0
H720 H 0.71064 0.47464 0.79001 0.0
H721 H 0.68694 0.36239 0.78273 0.0
H722 H 0.73732 0.35237 0.7747 0.0
H723 H 0.74377 0.43956 0.75615 0.0
C724 C 0.63835 0.46641 0.78266 0.0
C725 C 0.61776 0.45521 0.79362 0.0
C726 C 0.61893 0.4252 0.79717 0.0
C727 C 0.64044 0.40694 0.79035 0.0
C728 C 0.66072 0.41887 0.77996 0.0
C729 C 0.65989 0.44791 0.7761 0.0
C730 C 0.68626 0.4561 0.76637 0.0
C731 C 0.67701 0.4644 0.74774 0.0
C732 C 0.70409 0.48086 0.77655 0.0
C733 C 0.70271 0.42746 0.76608 0.0
C734 C 0.68724 0.40612 0.77367 0.0
C735 C 0.69901 0.3787 0.77644 0.0
C736 C 0.72767 0.37322 0.77186 0.0
C737 C 0.74429 0.39507 0.76463 0.0
C738 C 0.73129 0.42219 0.76121 0.0
H739 H 0.6849 0.15827 0.06564 0.0
H740 H 0.6213 0.13751 0.02254 0.0
H741 H 0.64605 0.17202 0.00451 0.0
H742 H 0.68968 0.2321 0.06094 0.0
H743 H 0.72841 0.23552 0.06631 0.0
H744 H 0.70799 0.20655 0.07476 0.0
H745 H 0.74287 0.16833 0.06112 0.0
H746 H 0.76347 0.19728 0.05261 0.0
H747 H 0.74857 0.16784 0.03805 0.0
H748 H 0.67264 0.21486 0.99336 0.0
H749 H 0.70095 0.25983 0.98929 0.0
H750 H 0.74955 0.24954 0.03876 0.0
C751 C 0.67665 0.16057 0.05226 0.0
C752 C 0.65132 0.14534 0.04539 0.0
C753 C 0.6409 0.14886 0.02791 0.0
C754 C 0.65479 0.16839 0.01762 0.0
C755 C 0.67943 0.18364 0.02491 0.0
C756 C 0.69057 0.1795 0.04174 0.0
C757 C 0.71622 0.19971 0.04691 0.0
C758 C 0.71019 0.21965 0.06318 0.0
C759 C 0.74445 0.18224 0.04984 0.0
C760 C 0.71697 0.21684 0.03069 0.0
C761 C 0.69567 0.20722 0.01809 0.0
C762 C 0.68996 0.22202 0.00289 0.0
C763 C 0.70609 0.24753 0.00068 0.0
C764 C 0.72785 0.25771 0.01351 0.0
C765 C 0.73376 0.24168 0.02844 0.0
H766 H 0.01151 0.13665 0.29041 0.0
H767 H 0.03852 0.2086 0.32745 0.0
H768 H 0.99511 0.23623 0.31785 0.0
H769 H 0.97434 0.17933 0.25633 0.0
H770 H 0.9453 0.15267 0.25248 0.0
H771 H 0.98153 0.14128 0.2594 0.0
H772 H 0.96082 0.11694 0.28574 0.0
H773 H 0.92464 0.12814 0.27888 0.0
H774 H 0.93949 0.13845 0.30069 0.0
H775 H 0.94548 0.25394 0.3065 0.0
H776 H 0.89309 0.25755 0.29656 0.0
H777 H 0.89723 0.17184 0.26976 0.0
C778 C 0.00862 0.1583 0.29647 0.0
C779 C 0.02879 0.17032 0.30967 0.0
C780 C 0.02397 0.19897 0.31701 0.0
C781 C 0.99921 0.21488 0.31169 0.0
C782 C 0.97932 0.20187 0.29907 0.0
C783 C 0.98376 0.17412 0.29164 0.0
C784 C 0.9575 0.16328 0.28017 0.0
C785 C 0.96513 0.15889 0.26095 0.0
C786 C 0.94488 0.13505 0.28678 0.0
C787 C 0.93713 0.18881 0.28279 0.0
C788 C 0.9503 0.21129 0.2933 0.0
C789 C 0.93507 0.2366 0.2981 0.0
C790 C 0.90544 0.23855 0.29239 0.0
C791 C 0.89141 0.21499 0.28242 0.0
C792 C 0.90764 0.1902 0.27731 0.0
H793 H 0.94021 0.50767 0.56736 0.0
H794 H 0.999 0.51847 0.526 0.0
H795 H 0.98205 0.47111 0.51164 0.0
H796 H 0.95331 0.43544 0.57187 0.0
H797 H 0.91657 0.4252 0.57619 0.0
H798 H 0.92912 0.46206 0.58139 0.0
H799 H 0.88595 0.48167 0.56219 0.0
H800 H 0.87306 0.44476 0.55702 0.0
H801 H 0.88026 0.46812 0.53967 0.0
H802 H 0.9638 0.4198 0.50414 0.0
H803 H 0.9461 0.3688 0.50428 0.0
H804 H 0.89932 0.39194 0.55062 0.0
C805 C 0.94868 0.50059 0.55493 0.0
C806 C 0.97067 0.5168 0.54768 0.0
C807 C 0.98207 0.50634 0.53173 0.0
C808 C 0.97246 0.47958 0.52345 0.0
C809 C 0.95135 0.46366 0.53124 0.0
C810 C 0.93944 0.47391 0.54657 0.0
C811 C 0.91953 0.45134 0.55333 0.0
C812 C 0.93029 0.44302 0.57177 0.0
C813 C 0.88781 0.46212 0.55303 0.0
C814 C 0.92301 0.42635 0.53981 0.0
C815 C 0.94103 0.43399 0.527 0.0
C816 C 0.94922 0.41373 0.51391 0.0
C817 C 0.93911 0.38479 0.51412 0.0
C818 C 0.92124 0.37641 0.52741 0.0
C819 C 0.91266 0.3977 0.54015 0.0
H820 H 0.74343 0.14239 0.47138 0.0
H821 H 0.68417 0.17402 0.51028 0.0
H822 H 0.72137 0.21009 0.52226 0.0
H823 H 0.80788 0.1466 0.50013 0.0
H824 H 0.83117 0.15758 0.48356 0.0
H825 H 0.79921 0.13547 0.47745 0.0
H826 H 0.78076 0.17402 0.45609 0.0
H827 H 0.81261 0.19633 0.46219 0.0
H828 H 0.77666 0.21146 0.46419 0.0
H829 H 0.76541 0.24226 0.53028 0.0
H830 H 0.81371 0.26652 0.53458 0.0
H831 H 0.84468 0.21199 0.49131 0.0
C832 C 0.73826 0.15669 0.48251 0.0
C833 C 0.71074 0.15536 0.48982 0.0
C834 C 0.70485 0.17489 0.50422 0.0
C835 C 0.7259 0.19538 0.51119 0.0
C836 C 0.75278 0.19598 0.50367 0.0
C837 C 0.75906 0.17704 0.48971 0.0
C838 C 0.78993 0.18147 0.48439 0.0
C839 C 0.80811 0.15363 0.48652 0.0
C840 C 0.78998 0.19142 0.4656 0.0
C841 C 0.80014 0.20573 0.49764 0.0
C842 C 0.77832 0.214 0.50854 0.0
C843 C 0.78267 0.23597 0.52182 0.0
C844 C 0.81017 0.24966 0.52414 0.0
C845 C 0.83302 0.24112 0.51332 0.0
C846 C 0.82773 0.21898 0.49984 0.0
H847 H 0.00175 0.25161 0.71616 0.0
H848 H 0.96975 0.18388 0.74754 0.0
H849 H 0.92765 0.21473 0.75463 0.0
H850 H 0.98523 0.31079 0.7459 0.0
H851 H 0.97543 0.33527 0.72902 0.0
H852 H 0.0014 0.30665 0.72505 0.0
H853 H 0.96959 0.28735 0.69764 0.0
H854 H 0.94339 0.31583 0.7016 0.0
H855 H 0.93178 0.27809 0.69977 0.0
H856 H 0.88969 0.2538 0.75911 0.0
H857 H 0.86126 0.29929 0.76247 0.0
H858 H 0.92019 0.34232 0.72982 0.0
C859 C 0.98608 0.24318 0.72461 0.0
C860 C 0.98917 0.21508 0.73117 0.0
C861 C 0.96771 0.20499 0.742 0.0
C862 C 0.94373 0.22243 0.74619 0.0
C863 C 0.94153 0.25001 0.73955 0.0
C864 C 0.96228 0.26041 0.72912 0.0
C865 C 0.95591 0.29151 0.72456 0.0
C866 C 0.98098 0.31227 0.73156 0.0
C867 C 0.9498 0.29328 0.70471 0.0
C868 C 0.92856 0.29716 0.73428 0.0
C869 C 0.92032 0.27282 0.74262 0.0
C870 C 0.89591 0.27298 0.7526 0.0
C871 C 0.87984 0.29888 0.75439 0.0
C872 C 0.88853 0.32437 0.74644 0.0
C873 C 0.913 0.32323 0.73608 0.0
H874 H 0.92617 0.46852 0.98682 0.0
H875 H 0.8781 0.51467 0.94674 0.0
H876 H 0.83658 0.48039 0.94761 0.0
H877 H 0.89821 0.39421 0.97309 0.0
H878 H 0.89581 0.38394 0.99527 0.0
H879 H 0.92314 0.40998 0.99021 0.0
H880 H 0.90403 0.44749 0.0134 0.0
H881 H 0.87675 0.42157 0.01856 0.0
H882 H 0.86596 0.45732 0.01213 0.0
H883 H 0.79938 0.4445 0.95427 0.0
H884 H 0.76698 0.41001 0.96726 0.0
H885 H 0.83815 0.38639 0.00349 0.0
C886 C 0.90702 0.47097 0.97807 0.0
C887 C 0.90514 0.49406 0.96668 0.0
C888 C 0.87971 0.49713 0.95559 0.0
C889 C 0.85619 0.47767 0.95591 0.0
C890 C 0.85848 0.45533 0.96743 0.0
C891 C 0.88313 0.45187 0.97837 0.0
C892 C 0.8788 0.42747 0.99052 0.0
C893 C 0.90027 0.40241 0.98706 0.0
C894 C 0.88154 0.43917 0.00979 0.0
C895 C 0.84765 0.41824 0.98492 0.0
C896 C 0.8366 0.43444 0.97143 0.0
C897 C 0.80783 0.43143 0.9647 0.0
C898 C 0.78959 0.41185 0.9722 0.0
C899 C 0.80012 0.39547 0.98631 0.0
C900 C 0.82973 0.39823 0.9925 0.0
H901 H 0.67287 0.39087 0.21725 0.0
H902 H 0.63912 0.41819 0.26717 0.0
H903 H 0.67197 0.38307 0.28187 0.0
H904 H 0.68113 0.31514 0.22439 0.0
H905 H 0.71478 0.31155 0.21349 0.0
H906 H 0.68854 0.33865 0.20716 0.0
H907 H 0.72826 0.3791 0.21278 0.0
H908 H 0.75463 0.35212 0.21916 0.0
H909 H 0.74797 0.38326 0.23386 0.0
H910 H 0.70658 0.34223 0.29057 0.0
H911 H 0.74269 0.30225 0.29288 0.0
H912 H 0.75608 0.30518 0.23753 0.0
C913 C 0.67244 0.38937 0.23128 0.0
C914 C 0.65343 0.40691 0.24113 0.0
C915 C 0.65362 0.4048 0.25947 0.0
C916 C 0.67212 0.38494 0.26788 0.0
C917 C 0.6906 0.3678 0.25776 0.0
C918 C 0.69114 0.37015 0.23989 0.0
C919 C 0.71338 0.3498 0.23202 0.0
C920 C 0.69857 0.32746 0.21847 0.0
C921 C 0.73749 0.36711 0.22398 0.0
C922 C 0.72504 0.3353 0.24819 0.0
C923 C 0.7115 0.34571 0.26291 0.0
C924 C 0.71762 0.33425 0.27917 0.0
C925 C 0.73809 0.31156 0.28037 0.0
C926 C 0.75248 0.30101 0.26546 0.0
C927 C 0.74592 0.31325 0.24924 0.0
H928 H 0.19662 0.01476 0.43429 0.0
H929 H 0.21931 0.95085 0.39334 0.0
H930 H 0.23841 0.91814 0.41583 0.0
H931 H 0.25903 0.00428 0.46359 0.0
H932 H 0.23887 0.00878 0.48302 0.0
H933 H 0.22689 0.02681 0.46367 0.0
H934 H 0.17588 0.00235 0.46409 0.0
H935 H 0.18775 0.98414 0.48341 0.0
H936 H 0.17315 0.9631 0.4642 0.0
H937 H 0.25651 0.89333 0.44285 0.0
H938 H 0.27113 0.87759 0.47232 0.0
H939 H 0.23524 0.95739 0.49551 0.0
C940 C 0.2058 0.99396 0.43005 0.0
C941 C 0.20667 0.98535 0.41209 0.0
C942 C 0.21835 0.95776 0.40705 0.0
C943 C 0.22929 0.93912 0.41971 0.0
C944 C 0.22813 0.94832 0.43733 0.0
C945 C 0.21655 0.97504 0.44249 0.0
C946 C 0.21769 0.97972 0.46223 0.0
C947 C 0.23676 0.00648 0.46849 0.0
C948 C 0.18678 0.98248 0.46887 0.0
C949 C 0.23198 0.95156 0.4674 0.0
C950 C 0.23789 0.93377 0.45285 0.0
C951 C 0.25182 0.907 0.45434 0.0
C952 C 0.26006 0.89827 0.47114 0.0
C953 C 0.25418 0.91617 0.48623 0.0
C954 C 0.23975 0.94305 0.48425 0.0
H955 H 0.12769 0.73236 0.67805 0.0
H956 H 0.11983 0.6407 0.68817 0.0
H957 H 0.14506 0.65036 0.71736 0.0
H958 H 0.19994 0.74221 0.69838 0.0
H959 H 0.19357 0.77883 0.7072 0.0
H960 H 0.17358 0.76504 0.68746 0.0
H961 H 0.12475 0.77677 0.70163 0.0
H962 H 0.1446 0.79059 0.72142 0.0
H963 H 0.11772 0.76197 0.72222 0.0
H964 H 0.17056 0.66984 0.74534 0.0
H965 H 0.19788 0.69734 0.7698 0.0
H966 H 0.19156 0.77604 0.74103 0.0
C967 C 0.13119 0.71446 0.68651 0.0
C968 C 0.12189 0.68582 0.68099 0.0
C969 C 0.12702 0.66275 0.69222 0.0
C970 C 0.14117 0.66805 0.70881 0.0
C971 C 0.15026 0.69649 0.71387 0.0
C972 C 0.14573 0.7193 0.70304 0.0
C973 C 0.15884 0.74753 0.71142 0.0
C974 C 0.18291 0.75907 0.70046 0.0
C975 C 0.13506 0.77057 0.71435 0.0
C976 C 0.17145 0.73698 0.72862 0.0
C977 C 0.16595 0.70755 0.72983 0.0
C978 C 0.17511 0.69289 0.74455 0.0
C979 C 0.19055 0.70871 0.75838 0.0
C980 C 0.19697 0.73878 0.75729 0.0
C981 C 0.18717 0.75303 0.7422 0.0
H982 H 0.46283 0.6148 0.92734 0.0
H983 H 0.41253 0.65573 0.88578 0.0
H984 H 0.38609 0.68467 0.90795 0.0
H985 H 0.40616 0.61155 0.95754 0.0
H986 H 0.43054 0.62017 0.97649 0.0
H987 H 0.44411 0.60147 0.95732 0.0
H988 H 0.48357 0.64183 0.95605 0.0
H989 H 0.47016 0.66063 0.97521 0.0
H990 H 0.47259 0.67949 0.9554 0.0
H991 H 0.36572 0.70976 0.93492 0.0
H992 H 0.35437 0.73013 0.96429 0.0
H993 H 0.42042 0.67464 0.98779 0.0
C994 C 0.44643 0.62998 0.92281 0.0
C995 C 0.43982 0.63291 0.90475 0.0
C996 C 0.41774 0.6527 0.89951 0.0
C997 C 0.4027 0.66937 0.91201 0.0
C998 C 0.41009 0.6661 0.92968 0.0
C999 C 0.43152 0.64697 0.93505 0.0
C1000 C 0.43615 0.64819 0.95478 0.0
C1001 C 0.42879 0.61859 0.96195 0.0
C1002 C 0.46747 0.65814 0.9607 0.0
C1003 C 0.41408 0.67119 0.95973 0.0
C1004 C 0.39904 0.68107 0.9451 0.0
C1005 C 0.3774 0.7022 0.94645 0.0
C1006 C 0.37109 0.71361 0.9632 0.0
C1007 C 0.3866 0.70408 0.97834 0.0
C1008 C 0.40831 0.68254 0.97649 0.0
H1009 H 0.51184 0.99841 0.18106 0.0
H1010 H 0.44486 0.97035 0.14125 0.0
H1011 H 0.41925 0.94392 0.16322 0.0
H1012 H 0.51555 0.9308 0.20153 0.0
H1013 H 0.52231 0.94738 0.22333 0.0
H1014 H 0.53367 0.96586 0.20481 0.0
H1015 H 0.50403 0.01142 0.21457 0.0
H1016 H 0.49244 0.99298 0.23308 0.0
H1017 H 0.46564 0.00754 0.21784 0.0
H1018 H 0.40131 0.92055 0.18973 0.0
H1019 H 0.39528 0.89739 0.21762 0.0
H1020 H 0.47599 0.93837 0.23938 0.0
C1021 C 0.49159 0.98693 0.17708 0.0
C1022 C 0.47997 0.98656 0.15963 0.0
C1023 C 0.45387 0.97087 0.15465 0.0
C1024 C 0.43919 0.95599 0.16704 0.0
C1025 C 0.4512 0.95679 0.18422 0.0
C1026 C 0.47702 0.97155 0.18917 0.0
C1027 C 0.48651 0.96728 0.20808 0.0
C1028 C 0.51626 0.95191 0.20951 0.0
C1029 C 0.48718 0.99655 0.21904 0.0
C1030 C 0.46209 0.94767 0.21301 0.0
C1031 C 0.44165 0.94226 0.19918 0.0
C1032 C 0.41719 0.92462 0.20064 0.0
C1033 C 0.41388 0.91168 0.21654 0.0
C1034 C 0.43519 0.91606 0.23062 0.0
C1035 C 0.45936 0.9346 0.22883 0.0
H1036 H 0.11227 0.71603 0.90982 0.0
H1037 H 0.15726 0.63379 0.91666 0.0
H1038 H 0.19426 0.6483 0.89708 0.0
H1039 H 0.1199 0.71606 0.86495 0.0
H1040 H 0.12529 0.75495 0.86426 0.0
H1041 H 0.10475 0.74077 0.88117 0.0
H1042 H 0.13936 0.76769 0.90487 0.0
H1043 H 0.16 0.7821 0.88802 0.0
H1044 H 0.17818 0.76167 0.90478 0.0
H1045 H 0.22268 0.66789 0.8742 0.0
H1046 H 0.24153 0.69211 0.84941 0.0
H1047 H 0.17828 0.76153 0.85607 0.0
C1048 C 0.13009 0.7012 0.90741 0.0
C1049 C 0.13185 0.67385 0.9151 0.0
C1050 C 0.15565 0.65521 0.91148 0.0
C1051 C 0.17679 0.66315 0.90022 0.0
C1052 C 0.17396 0.68983 0.89258 0.0
C1053 C 0.15134 0.70869 0.89603 0.0
C1054 C 0.15212 0.73489 0.88485 0.0
C1055 C 0.12384 0.73676 0.87311 0.0
C1056 C 0.15776 0.76327 0.89632 0.0
C1057 C 0.17811 0.72719 0.87417 0.0
C1058 C 0.19051 0.70125 0.87905 0.0
C1059 C 0.21348 0.68845 0.87042 0.0
C1060 C 0.22392 0.70231 0.85628 0.0
C1061 C 0.21144 0.72875 0.85086 0.0
C1062 C 0.18852 0.74159 0.86012 0.0
H1063 H 0.45563 0.60236 0.13559 0.0
H1064 H 0.54707 0.62621 0.13357 0.0
H1065 H 0.53426 0.65835 0.10975 0.0
H1066 H 0.43852 0.59958 0.08937 0.0
H1067 H 0.40256 0.61486 0.09099 0.0
H1068 H 0.41849 0.5945 0.10848 0.0
H1069 H 0.41116 0.63855 0.13055 0.0
H1070 H 0.39511 0.65903 0.11313 0.0
H1071 H 0.42603 0.6738 0.12648 0.0
H1072 H 0.51246 0.686 0.08551 0.0
H1073 H 0.48252 0.70941 0.06271 0.0
H1074 H 0.40463 0.66837 0.08 0.0
C1075 C 0.47292 0.61441 0.13015 0.0
C1076 C 0.50236 0.61193 0.13658 0.0
C1077 C 0.52432 0.62816 0.12914 0.0
C1078 C 0.5173 0.64632 0.1155 0.0
C1079 C 0.48819 0.64813 0.10943 0.0
C1080 C 0.46628 0.63279 0.11652 0.0
C1081 C 0.43677 0.63855 0.10735 0.0
C1082 C 0.4233 0.61018 0.09852 0.0
C1083 C 0.41605 0.65337 0.12014 0.0
C1084 C 0.44565 0.6593 0.0939 0.0
C1085 C 0.47544 0.66443 0.09537 0.0
C1086 C 0.48908 0.6823 0.08427 0.0
C1087 C 0.47184 0.69545 0.07131 0.0
C1088 C 0.44119 0.69078 0.06956 0.0
C1089 C 0.42797 0.67245 0.08105 0.0
H1090 H 0.50218 0.98836 0.38087 0.0
H1091 H 0.50038 0.92049 0.41771 0.0
H1092 H 0.47315 0.88796 0.39531 0.0
H1093 H 0.43045 0.97232 0.35758 0.0
H1094 H 0.44383 0.97947 0.33662 0.0
H1095 H 0.45955 0.99851 0.35624 0.0
H1096 H 0.51092 0.98036 0.3485 0.0
H1097 H 0.49537 0.96109 0.32897 0.0
H1098 H 0.51705 0.94169 0.34482 0.0
H1099 H 0.44881 0.86216 0.36845 0.0
H1100 H 0.43096 0.84389 0.33877 0.0
H1101 H 0.45137 0.92788 0.31897 0.0
C1102 C 0.49528 0.96692 0.3843 0.0
C1103 C 0.50271 0.95693 0.401 0.0
C1104 C 0.49441 0.92847 0.40498 0.0
C1105 C 0.47898 0.90995 0.39238 0.0
C1106 C 0.47239 0.92024 0.37587 0.0
C1107 C 0.48035 0.94803 0.37179 0.0
C1108 C 0.47302 0.95284 0.35267 0.0
C1109 C 0.45036 0.97723 0.35066 0.0
C1110 C 0.50074 0.95937 0.34319 0.0
C1111 C 0.46012 0.92327 0.34655 0.0
C1112 C 0.45953 0.90495 0.36019 0.0
C1113 C 0.44902 0.87636 0.35768 0.0
C1114 C 0.43894 0.86619 0.34077 0.0
C1115 C 0.43985 0.88443 0.32654 0.0
C1116 C 0.45048 0.91338 0.32956 0.0
H1117 H 0.16808 0.02111 0.64212 0.0
H1118 H 0.25079 0.05162 0.66735 0.0
H1119 H 0.27689 0.02694 0.64331 0.0
H1120 H 0.19307 0.95004 0.62608 0.0
H1121 H 0.1707 0.95039 0.60594 0.0
H1122 H 0.15908 0.96969 0.62545 0.0
H1123 H 0.1549 0.01733 0.60894 0.0
H1124 H 0.16684 0.99828 0.58944 0.0
H1125 H 0.18619 0.03053 0.59855 0.0
H1126 H 0.29369 0.99922 0.61606 0.0
H1127 H 0.29983 0.96994 0.58835 0.0
H1128 H 0.20575 0.95855 0.58121 0.0
C1129 C 0.19173 0.02214 0.64279 0.0
C1130 C 0.20744 0.03809 0.65668 0.0
C1131 C 0.23833 0.03956 0.65681 0.0
C1132 C 0.25331 0.02559 0.64324 0.0
C1133 C 0.23706 0.01037 0.62962 0.0
C1134 C 0.20695 0.00851 0.62936 0.0
C1135 C 0.19447 0.99136 0.61312 0.0
C1136 C 0.17839 0.96373 0.61794 0.0
C1137 C 0.17442 0.01053 0.60185 0.0
C1138 C 0.22226 0.98379 0.60424 0.0
C1139 C 0.24663 0.99491 0.61394 0.0
C1140 C 0.27474 0.99043 0.60837 0.0
C1141 C 0.27801 0.97384 0.59259 0.0
C1142 C 0.25328 0.96205 0.58257 0.0
C1143 C 0.2251 0.9674 0.58848 0.0
H1144 H 0.60718 0.47184 0.90864 0.0
H1145 H 0.56937 0.39337 0.88183 0.0
H1146 H 0.58986 0.36403 0.9058 0.0
H1147 H 0.67371 0.4404 0.92512 0.0
H1148 H 0.67453 0.46202 0.94559 0.0
H1149 H 0.65706 0.47599 0.9262 0.0
H1150 H 0.60927 0.4835 0.9423 0.0
H1151 H 0.62652 0.46927 0.96169 0.0
H1152 H 0.59306 0.45296 0.952 0.0
H1153 H 0.61687 0.3434 0.93267 0.0
H1154 H 0.64636 0.33388 0.95993 0.0
H1155 H 0.66317 0.42696 0.96908 0.0
C1156 C 0.60349 0.44842 0.90771 0.0
C1157 C 0.58711 0.43472 0.89331 0.0
C1158 C 0.58205 0.40417 0.89276 0.0
C1159 C 0.59357 0.38741 0.90629 0.0
C1160 C 0.60965 0.40169 0.92035 0.0
C1161 C 0.61439 0.43157 0.92114 0.0
C1162 C 0.63192 0.44197 0.93766 0.0
C1163 C 0.66103 0.4559 0.93338 0.0
C1164 C 0.61412 0.46317 0.94909 0.0
C1165 C 0.63668 0.41326 0.94604 0.0
C1166 C 0.62384 0.39017 0.93592 0.0
C1167 C 0.62671 0.3614 0.94078 0.0
C1168 C 0.64343 0.35619 0.95628 0.0
C1169 C 0.65674 0.37969 0.96674 0.0
C1170 C 0.65287 0.40852 0.96157 0.0
H1171 H 0.68311 0.16292 0.15467 0.0
H1172 H 0.70038 0.06985 0.15337 0.0
H1173 H 0.7361 0.07777 0.17862 0.0
H1174 H 0.75927 0.18738 0.16903 0.0
H1175 H 0.7463 0.21739 0.1827 0.0
H1176 H 0.72527 0.20484 0.16304 0.0
H1177 H 0.68029 0.19739 0.18122 0.0
H1178 H 0.70121 0.20958 0.20092 0.0
H1179 H 0.68338 0.17431 0.19944 0.0
H1180 H 0.76358 0.09461 0.20659 0.0
H1181 H 0.7848 0.12005 0.23381 0.0
H1182 H 0.75129 0.20244 0.21635 0.0
C1183 C 0.69496 0.14434 0.15946 0.0
C1184 C 0.68916 0.11581 0.15203 0.0
C1185 C 0.70489 0.09195 0.15869 0.0
C1186 C 0.7251 0.09622 0.17308 0.0
C1187 C 0.72961 0.12452 0.18047 0.0
C1188 C 0.7154 0.14826 0.17371 0.0
C1189 C 0.72286 0.17615 0.18472 0.0
C1190 C 0.73942 0.19771 0.17425 0.0
C1191 C 0.6953 0.19016 0.192 0.0
C1192 C 0.74255 0.16418 0.1991 0.0
C1193 C 0.74624 0.13436 0.19639 0.0
C1194 C 0.76142 0.11805 0.20867 0.0
C1195 C 0.77321 0.13263 0.22413 0.0
C1196 C 0.76992 0.16321 0.22706 0.0
C1197 C 0.75465 0.17914 0.21427 0.0
H1198 H 0.0285 0.14828 0.41294 0.0
H1199 H 0.0716 0.22585 0.39702 0.0
H1200 H 0.04388 0.2564 0.41798 0.0
H1201 H 0.95724 0.18094 0.41953 0.0
H1202 H 0.95157 0.16036 0.43834 0.0
H1203 H 0.97328 0.14529 0.42122 0.0
H1204 H 0.01646 0.13834 0.44397 0.0
H1205 H 0.99494 0.1534 0.46114 0.0
H1206 H 0.03002 0.1693 0.45778 0.0
H1207 H 0.01221 0.27806 0.44171 0.0
H1208 H 0.98148 0.28841 0.46684 0.0
H1209 H 0.96043 0.19602 0.46693 0.0
C1210 C 0.03168 0.17176 0.41359 0.0
C1211 C 0.05195 0.18476 0.40324 0.0
C1212 C 0.05615 0.21548 0.40486 0.0
C1213 C 0.0404 0.23298 0.41664 0.0
C1214 C 0.02066 0.21937 0.42673 0.0
C1215 C 0.01637 0.18942 0.42531 0.0
C1216 C 0.99526 0.1798 0.43826 0.0
C1217 C 0.9677 0.16578 0.42876 0.0
C1218 C 0.01007 0.15899 0.45104 0.0
C1219 C 0.98856 0.20895 0.44737 0.0
C1220 C 0.0031 0.23162 0.44047 0.0
C1221 C 0.00062 0.26046 0.44715 0.0
C1222 C 0.9831 0.26615 0.46139 0.0
C1223 C 0.9686 0.24303 0.46885 0.0
C1224 C 0.97122 0.2142 0.46155 0.0
H1225 H 0.973 0.52438 0.65989 0.0
H1226 H 0.89305 0.55997 0.63701 0.0
H1227 H 0.86449 0.53402 0.65783 0.0
H1228 H 0.94384 0.45314 0.66853 0.0
H1229 H 0.96536 0.45161 0.68891 0.0
H1230 H 0.97877 0.47154 0.67149 0.0
H1231 H 0.98455 0.51802 0.69248 0.0
H1232 H 0.97096 0.49831 0.70992 0.0
H1233 H 0.95345 0.53158 0.7037 0.0
H1234 H 0.84503 0.50444 0.6819 0.0
H1235 H 0.83671 0.47516 0.70731 0.0
H1236 H 0.93007 0.46089 0.7144 0.0
C1237 C 0.94942 0.52624 0.65901 0.0
C1238 C 0.93516 0.54387 0.64671 0.0
C1239 C 0.90436 0.54648 0.64632 0.0
C1240 C 0.888 0.53179 0.65805 0.0
C1241 C 0.90284 0.51477 0.67014 0.0
C1242 C 0.93289 0.51202 0.67067 0.0
C1243 C 0.94389 0.49362 0.68536 0.0
C1244 C 0.95884 0.46583 0.67814 0.0
C1245 C 0.96441 0.51146 0.69865 0.0
C1246 C 0.91538 0.48649 0.69311 0.0
C1247 C 0.89186 0.49864 0.68413 0.0
C1248 C 0.86332 0.49484 0.68901 0.0
C1249 C 0.8588 0.47821 0.70345 0.0
C1250 C 0.88273 0.46587 0.71289 0.0
C1251 C 0.91129 0.47016 0.70755 0.0
H1252 H 0.68076 0.13488 0.38343 0.0
H1253 H 0.74296 0.06986 0.40073 0.0
H1254 H 0.77515 0.08236 0.37767 0.0
H1255 H 0.68848 0.12306 0.33837 0.0
H1256 H 0.68604 0.16097 0.33346 0.0
H1257 H 0.66845 0.14832 0.35198 0.0
H1258 H 0.69671 0.18718 0.37246 0.0
H1259 H 0.71426 0.20013 0.35397 0.0
H1260 H 0.73602 0.18877 0.37269 0.0
H1261 H 0.79842 0.09854 0.35139 0.0
H1262 H 0.81323 0.11989 0.32453 0.0
H1263 H 0.73777 0.17675 0.32503 0.0
C1264 C 0.70144 0.12371 0.38264 0.0
C1265 C 0.70918 0.10119 0.39386 0.0
C1266 C 0.73625 0.0868 0.39213 0.0
C1267 C 0.75481 0.09389 0.37914 0.0
C1268 C 0.74622 0.1157 0.3681 0.0
C1269 C 0.72039 0.1307 0.36983 0.0
C1270 C 0.71606 0.15271 0.35591 0.0
C1271 C 0.6881 0.14584 0.34424 0.0
C1272 C 0.71575 0.18406 0.36426 0.0
C1273 C 0.74322 0.14727 0.34589 0.0
C1274 C 0.76025 0.12579 0.35317 0.0
C1275 C 0.78551 0.11568 0.34571 0.0
C1276 C 0.79365 0.12784 0.3304 0.0
C1277 C 0.77674 0.15008 0.32277 0.0
C1278 C 0.75132 0.16007 0.33073 0.0
H1279 H 0.01045 0.22541 0.6455 0.0
H1280 H 0.09079 0.1959 0.62326 0.0
H1281 H 0.07188 0.20996 0.5942 0.0
H1282 H 0.96243 0.20025 0.61021 0.0
H1283 H 0.93821 0.2311 0.61139 0.0
H1284 H 0.95869 0.22072 0.63078 0.0
H1285 H 0.98085 0.2729 0.63549 0.0
H1286 H 0.96022 0.28354 0.61619 0.0
H1287 H 0.99935 0.2883 0.61808 0.0
H1288 H 0.04266 0.2223 0.56725 0.0
H1289 H 0.00656 0.23691 0.54429 0.0
H1290 H 0.94582 0.26072 0.58395 0.0
C1291 C 0.02415 0.22231 0.63453 0.0
C1292 C 0.05214 0.20976 0.63661 0.0
C1293 C 0.06948 0.20593 0.62199 0.0
C1294 C 0.05887 0.21366 0.60542 0.0
C1295 C 0.03101 0.22551 0.60373 0.0
C1296 C 0.01403 0.23027 0.6179 0.0
C1297 C 0.98464 0.24292 0.6124 0.0
C1298 C 0.95952 0.22252 0.61643 0.0
C1299 C 0.98107 0.27375 0.62105 0.0
C1300 C 0.98755 0.24387 0.59287 0.0
C1301 C 0.01444 0.23359 0.58816 0.0
C1302 C 0.02169 0.2308 0.57078 0.0
C1303 C 0.00099 0.23898 0.55783 0.0
C1304 C 0.97351 0.2501 0.56237 0.0
C1305 C 0.96681 0.25265 0.58014 0.0
H1306 H 0.95914 0.52764 0.86292 0.0
H1307 H 0.89369 0.50855 0.89929 0.0
H1308 H 0.86489 0.48075 0.8755 0.0
H1309 H 0.90927 0.53623 0.8253 0.0
H1310 H 0.93331 0.51909 0.81006 0.0
H1311 H 0.94829 0.5382 0.82983 0.0
H1312 H 0.97642 0.49165 0.8382 0.0
H1313 H 0.96154 0.47239 0.81847 0.0
H1314 H 0.95661 0.45784 0.83941 0.0
H1315 H 0.84436 0.45345 0.84814 0.0
H1316 H 0.83268 0.42947 0.81889 0.0
H1317 H 0.91152 0.46656 0.80029 0.0
C1318 C 0.9388 0.51753 0.8659 0.0
C1319 C 0.92864 0.52025 0.88295 0.0
C1320 C 0.90171 0.50703 0.88627 0.0
C1321 C 0.88529 0.49109 0.87288 0.0
C1322 C 0.89605 0.4887 0.85625 0.0
C1323 C 0.92211 0.50163 0.85269 0.0
C1324 C 0.92895 0.49548 0.83375 0.0
C1325 C 0.93 0.52395 0.82418 0.0
C1326 C 0.95757 0.47832 0.83239 0.0
C1327 C 0.90275 0.47685 0.82723 0.0
C1328 C 0.88406 0.47319 0.84042 0.0
C1329 C 0.85874 0.45626 0.83768 0.0
C1330 C 0.85236 0.44267 0.82102 0.0
C1331 C 0.87116 0.44616 0.80727 0.0
C1332 C 0.89661 0.46362 0.81047 0.0
H1333 H 0.61822 0.43288 0.11519 0.0
H1334 H 0.68207 0.40526 0.15482 0.0
H1335 H 0.71301 0.38566 0.13156 0.0
H1336 H 0.62539 0.37057 0.0844 0.0
H1337 H 0.62093 0.39217 0.06557 0.0
H1338 H 0.60382 0.40337 0.08539 0.0
H1339 H 0.6296 0.45388 0.08585 0.0
H1340 H 0.64697 0.44276 0.06611 0.0
H1341 H 0.66883 0.45561 0.08539 0.0
H1342 H 0.73716 0.36974 0.10383 0.0
H1343 H 0.75236 0.358 0.0739 0.0
H1344 H 0.67226 0.39605 0.05262 0.0
C1345 C 0.63847 0.42227 0.11901 0.0
C1346 C 0.64766 0.42044 0.13683 0.0
C1347 C 0.67468 0.40703 0.14125 0.0
C1348 C 0.69233 0.39576 0.12814 0.0
C1349 C 0.68266 0.39815 0.1107 0.0
C1350 C 0.65631 0.411 0.10613 0.0
C1351 C 0.65107 0.41127 0.08647 0.0
C1352 C 0.62368 0.39326 0.08009 0.0
C1353 C 0.64901 0.44275 0.08062 0.0
C1354 C 0.67861 0.39655 0.08065 0.0
C1355 C 0.69656 0.38915 0.0948 0.0
C1356 C 0.72325 0.3754 0.09265 0.0
C1357 C 0.73171 0.36887 0.07559 0.0
C1358 C 0.71353 0.37611 0.06087 0.0
C1359 C 0.6867 0.39024 0.06355 0.0
loop_
_geom_bond_atom_site_label_1
_geom_bond_atom_site_label_2
_geom_bond_distance
_geom_bond_site_symmetry_2
_ccdc_geom_bond_type
H0 C19 0.949 . S
H1 C20 0.950 . S
H2 C22 0.950 1_655 S
H3 C23 0.950 . S
H4 C25 0.950 . S
H5 C28 0.950 . S
H6 C29 0.950 . S
H7 C31 0.951 . S
H8 C32 0.949 . S
H9 C34 0.949 . S
H10 C35 0.950 . S
H11 C37 0.950 . S
H12 C38 0.950 . S
H13 C40 0.950 . S
H14 C43 0.950 . S
H15 C44 0.950 . S
H16 C46 0.951 . S
H17 C47 0.949 . S
C18 C19 1.376 . S
C18 C23 1.386 . S
C18 C24 1.483 . S
C19 H0 0.949 . S
C19 C18 1.376 . S
C19 C20 1.397 . S
C20 H1 0.950 . S
C20 C19 1.397 . S
C20 C21 1.391 . S
C21 C20 1.391 . S
C21 C22 1.405 . S
C22 H2 0.950 1_455 S
C22 C21 1.405 . S
C22 C23 1.367 . S
C23 H3 0.950 . S
C23 C18 1.386 . S
C23 C22 1.367 . S
C24 C18 1.483 . S
C24 C25 1.382 . S
C24 C26 1.403 . S
C25 H4 0.950 . S
C25 C24 1.382 . S
C25 C41 1.411 . S
C26 C24 1.403 . S
C26 C27 1.489 . S
C26 C40 1.411 . S
C27 C26 1.489 . S
C27 C28 1.383 . S
C27 C32 1.382 . S
C28 H5 0.950 . S
C28 C27 1.383 . S
C28 C29 1.395 . S
C29 H6 0.950 . S
C29 C28 1.395 . S
C29 C30 1.288 . S
C30 C29 1.288 . S
C30 C31 1.392 . S
C31 H7 0.951 . S
C31 C30 1.392 . S
C31 C32 1.392 . S
C32 H8 0.949 . S
C32 C27 1.382 . S
C32 C31 1.392 . S
C33 C34 1.376 . S
C33 C38 1.386 1_565 S
C33 C39 1.483 1_565 S
C34 H9 0.949 . S
C34 C33 1.376 . S
C34 C35 1.397 . S
C35 H10 0.950 . S
C35 C34 1.397 . S
C35 C36 1.391 . S
C36 C35 1.391 . S
C36 C37 1.405 . S
C37 H11 0.950 . S
C37 C36 1.405 . S
C37 C38 1.367 1_565 S
C38 H12 0.950 . S
C38 C33 1.386 1_545 S
C38 C37 1.367 1_545 S
C39 C33 1.483 1_545 S
C39 C40 1.382 . S
C39 C41 1.403 . S
C40 H13 0.950 . S
C40 C26 1.411 . S
C40 C39 1.382 . S
C41 C25 1.411 . S
C41 C39 1.403 . S
C41 C42 1.489 . S
C42 C41 1.489 . S
C42 C43 1.383 1_545 S
C42 C47 1.382 . S
C43 H14 0.950 . S
C43 C42 1.383 1_565 S
C43 C44 1.395 . S
C44 H15 0.950 . S
C44 C43 1.395 . S
C44 C45 1.288 . S
C45 C44 1.288 . S
C45 C46 1.392 1_565 S
C46 H16 0.951 . S
C46 C45 1.392 1_545 S
C46 C47 1.392 . S
C47 H17 0.949 . S
C47 C42 1.382 . S
C47 C46 1.392 . S
H48 C67 0.949 . S
H49 C68 0.950 . S
H50 C70 0.950 . S
H51 C71 0.950 . S
H52 C73 0.950 . S
H53 C76 0.950 . S
H54 C77 0.950 . S
H55 C79 0.951 . S
H56 C80 0.949 . S
H57 C82 0.949 . S
H58 C83 0.950 . S
H59 C85 0.950 . S
H60 C86 0.950 . S
H61 C88 0.950 . S
H62 C91 0.950 . S
H63 C92 0.950 . S
H64 C94 0.951 . S
H65 C95 0.949 . S
C66 C67 1.376 . S
C66 C71 1.386 1_455 S
C66 C72 1.483 . S
C67 H48 0.949 . S
C67 C66 1.376 . S
C67 C68 1.397 . S
C68 H49 0.950 . S
C68 C67 1.397 . S
C68 C69 1.391 1_455 S
C69 C68 1.391 1_655 S
C69 C70 1.405 . S
C70 H50 0.950 . S
C70 C69 1.405 . S
C70 C71 1.367 . S
C71 H51 0.950 . S
C71 C66 1.386 1_655 S
C71 C70 1.367 . S
C72 C66 1.483 . S
C72 C73 1.382 . S
C72 C74 1.403 . S
C73 H52 0.950 . S
C73 C72 1.382 . S
C73 C89 1.411 . S
C74 C72 1.403 . S
C74 C75 1.488 . S
C74 C88 1.411 . S
C75 C74 1.488 . S
C75 C76 1.383 . S
C75 C80 1.382 1_455 S
C76 H53 0.950 . S
C76 C75 1.383 . S
C76 C77 1.395 1_455 S
C77 H54 0.950 . S
C77 C76 1.395 1_655 S
C77 C78 1.288 . S
C78 C77 1.288 . S
C78 C79 1.392 . S
C79 H55 0.951 . S
C79 C78 1.392 . S
C79 C80 1.392 . S
C80 H56 0.949 . S
C80 C75 1.382 1_655 S
C80 C79 1.392 . S
C81 C82 1.376 . S
C81 C86 1.386 . S
C81 C87 1.483 . S
C82 H57 0.949 . S
C82 C81 1.376 . S
C82 C83 1.397 . S
C83 H58 0.950 . S
C83 C82 1.397 . S
C83 C84 1.391 . S
C84 C83 1.391 . S
C84 C85 1.405 . S
C85 H59 0.950 . S
C85 C84 1.405 . S
C85 C86 1.367 . S
C86 H60 0.950 . S
C86 C81 1.386 . S
C86 C85 1.367 . S
C87 C81 1.483 . S
C87 C88 1.382 . S
C87 C89 1.403 . S
C88 H61 0.950 . S
C88 C74 1.411 . S
C88 C87 1.382 . S
C89 C73 1.411 . S
C89 C87 1.403 . S
C89 C90 1.489 . S
C90 C89 1.489 . S
C90 C91 1.383 . S
C90 C95 1.382 . S
C91 H62 0.950 . S
C91 C90 1.383 . S
C91 C92 1.395 . S
C92 H63 0.950 . S
C92 C91 1.395 . S
C92 C93 1.288 . S
C93 C92 1.288 . S
C93 C94 1.392 . S
C94 H64 0.951 . S
C94 C93 1.392 . S
C94 C95 1.392 . S
C95 H65 0.949 . S
C95 C90 1.382 . S
C95 C94 1.392 . S
H96 C115 0.949 . S
H97 C116 0.950 . S
H98 C118 0.950 . S
H99 C119 0.950 . S
H100 C121 0.950 . S
H101 C124 0.950 . S
H102 C125 0.950 . S
H103 C127 0.951 . S
H104 C128 0.949 . S
H105 C130 0.949 . S
H106 C131 0.950 . S
H107 C133 0.950 . S
H108 C134 0.950 . S
H109 C136 0.950 . S
H110 C139 0.950 . S
H111 C140 0.950 . S
H112 C142 0.951 . S
H113 C143 0.949 . S
C114 C115 1.376 . S
C114 C119 1.386 . S
C114 C120 1.483 . S
C115 H96 0.949 . S
C115 C114 1.376 . S
C115 C116 1.397 . S
C116 H97 0.950 . S
C116 C115 1.397 . S
C116 C117 1.391 . S
C117 C116 1.391 . S
C117 C118 1.405 . S
C118 H98 0.950 . S
C118 C117 1.405 . S
C118 C119 1.367 . S
C119 H99 0.950 . S
C119 C114 1.386 . S
C119 C118 1.367 . S
C120 C114 1.483 . S
C120 C121 1.382 . S
C120 C122 1.403 . S
C121 H100 0.950 . S
C121 C120 1.382 . S
C121 C137 1.411 . S
C122 C120 1.403 . S
C122 C123 1.489 . S
C122 C136 1.411 . S
C123 C122 1.489 . S
C123 C124 1.383 . S
C123 C128 1.382 . S
C124 H101 0.950 . S
C124 C123 1.383 . S
C124 C125 1.395 . S
C125 H102 0.950 . S
C125 C124 1.395 . S
C125 C126 1.288 . S
C126 C125 1.288 . S
C126 C127 1.392 . S
C127 H103 0.951 . S
C127 C126 1.392 . S
C127 C128 1.392 . S
C128 H104 0.949 . S
C128 C123 1.382 . S
C128 C127 1.392 . S
C129 C130 1.376 . S
C129 C134 1.386 . S
C129 C135 1.483 . S
C130 H105 0.949 . S
C130 C129 1.376 . S
C130 C131 1.397 . S
C131 H106 0.950 . S
C131 C130 1.397 . S
C131 C132 1.391 . S
C132 C131 1.391 . S
C132 C133 1.405 . S
C133 H107 0.950 . S
C133 C132 1.405 . S
C133 C134 1.367 . S
C134 H108 0.950 . S
C134 C129 1.386 . S
C134 C133 1.367 . S
C135 C129 1.483 . S
C135 C136 1.382 . S
C135 C137 1.403 . S
C136 H109 0.950 . S
C136 C122 1.411 . S
C136 C135 1.382 . S
C137 C121 1.411 . S
C137 C135 1.403 . S
C137 C138 1.489 . S
C138 C137 1.489 . S
C138 C139 1.383 . S
C138 C143 1.382 . S
C139 H110 0.950 . S
C139 C138 1.383 . S
C139 C140 1.395 . S
C140 H111 0.950 . S
C140 C139 1.395 . S
C140 C141 1.288 . S
C141 C140 1.288 . S
C141 C142 1.392 . S
C142 H112 0.951 . S
C142 C141 1.392 . S
C142 C143 1.392 . S
C143 H113 0.949 . S
C143 C138 1.382 . S
C143 C142 1.392 . S
H144 C163 0.949 . S
H145 C164 0.950 . S
H146 C166 0.950 . S
H147 C167 0.950 . S
H148 C169 0.950 . S
H149 C172 0.950 . S
H150 C173 0.950 . S
H151 C175 0.951 . S
H152 C176 0.949 . S
H153 C178 0.949 . S
H154 C179 0.950 . S
H155 C181 0.950 . S
H156 C182 0.950 . S
H157 C184 0.950 . S
H158 C187 0.950 . S
H159 C188 0.950 . S
H160 C190 0.951 . S
H161 C191 0.949 . S
C162 C163 1.376 . S
C162 C167 1.386 . S
C162 C168 1.483 . S
C163 H144 0.949 . S
C163 C162 1.376 . S
C163 C164 1.397 . S
C164 H145 0.950 . S
C164 C163 1.397 . S
C164 C165 1.391 . S
C165 C164 1.391 . S
C165 C166 1.405 . S
C166 H146 0.950 . S
C166 C165 1.405 . S
C166 C167 1.367 . S
C167 H147 0.950 . S
C167 C162 1.386 . S
C167 C166 1.367 . S
C168 C162 1.483 . S
C168 C169 1.382 . S
C168 C170 1.403 . S
C169 H148 0.950 . S
C169 C168 1.382 . S
C169 C185 1.411 1_565 S
C170 C168 1.403 . S
C170 C171 1.489 . S
C170 C184 1.411 1_565 S
C171 C170 1.489 . S
C171 C172 1.383 . S
C171 C176 1.382 . S
C172 H149 0.950 . S
C172 C171 1.383 . S
C172 C173 1.395 . S
C173 H150 0.950 . S
C173 C172 1.395 . S
C173 C174 1.288 . S
C174 C173 1.288 . S
C174 C175 1.392 . S
C175 H151 0.951 . S
C175 C174 1.392 . S
C175 C176 1.392 . S
C176 H152 0.949 . S
C176 C171 1.382 . S
C176 C175 1.392 . S
C177 C178 1.376 . S
C177 C182 1.386 . S
C177 C183 1.483 . S
C178 H153 0.949 . S
C178 C177 1.376 . S
C178 C179 1.397 . S
C179 H154 0.950 . S
C179 C178 1.397 . S
C179 C180 1.391 . S
C180 C179 1.391 . S
C180 C181 1.405 . S
C181 H155 0.950 . S
C181 C180 1.405 . S
C181 C182 1.367 . S
C182 H156 0.950 . S
C182 C177 1.386 . S
C182 C181 1.367 . S
C183 C177 1.483 . S
C183 C184 1.382 . S
C183 C185 1.403 . S
C184 H157 0.950 . S
C184 C170 1.411 1_545 S
C184 C183 1.382 . S
C185 C169 1.411 1_545 S
C185 C183 1.403 . S
C185 C186 1.489 . S
C186 C185 1.489 . S
C186 C187 1.383 . S
C186 C191 1.382 . S
C187 H158 0.950 . S
C187 C186 1.383 . S
C187 C188 1.395 . S
C188 H159 0.950 . S
C188 C187 1.395 . S
C188 C189 1.288 . S
C189 C188 1.288 . S
C189 C190 1.392 . S
C190 H160 0.951 . S
C190 C189 1.392 . S
C190 C191 1.392 . S
C191 H161 0.949 . S
C191 C186 1.382 . S
C191 C190 1.392 . S
H192 C211 0.949 . S
H193 C212 0.950 . S
H194 C214 0.950 . S
H195 C215 0.950 . S
H196 C217 0.950 . S
H197 C220 0.950 . S
H198 C221 0.950 . S
H199 C223 0.951 1_554 S
H200 C224 0.949 . S
H201 C226 0.949 . S
H202 C227 0.950 . S
H203 C229 0.950 . S
H204 C230 0.950 . S
H205 C232 0.950 . S
H206 C235 0.950 . S
H207 C236 0.950 . S
H208 C238 0.951 . S
H209 C239 0.949 . S
C210 C211 1.376 . S
C210 C215 1.386 . S
C210 C216 1.483 . S
C211 H192 0.949 . S
C211 C210 1.376 . S
C211 C212 1.397 . S
C212 H193 0.950 . S
C212 C211 1.397 . S
C212 C213 1.391 . S
C213 C212 1.391 . S
C213 C214 1.405 . S
C214 H194 0.950 . S
C214 C213 1.405 . S
C214 C215 1.367 . S
C215 H195 0.950 . S
C215 C210 1.386 . S
C215 C214 1.367 . S
C216 C210 1.483 . S
C216 C217 1.382 1_455 S
C216 C218 1.403 . S
C217 H196 0.950 . S
C217 C216 1.382 1_655 S
C217 C233 1.411 . S
C218 C216 1.403 . S
C218 C219 1.489 . S
C218 C232 1.411 . S
C219 C218 1.489 . S
C219 C220 1.383 . S
C219 C224 1.382 . S
C220 H197 0.950 . S
C220 C219 1.383 . S
C220 C221 1.395 . S
C221 H198 0.950 . S
C221 C220 1.395 . S
C221 C222 1.285 . S
C222 C221 1.285 . S
C222 C223 1.391 . S
C223 H199 0.951 1_556 S
C223 C222 1.391 . S
C223 C224 1.392 . S
C224 H200 0.949 . S
C224 C219 1.382 . S
C224 C223 1.392 . S
C225 C226 1.376 . S
C225 C230 1.386 . S
C225 C231 1.483 . S
C226 H201 0.949 . S
C226 C225 1.376 . S
C226 C227 1.397 . S
C227 H202 0.950 . S
C227 C226 1.397 . S
C227 C228 1.391 . S
C228 C227 1.391 . S
C228 C229 1.405 . S
C229 H203 0.950 . S
C229 C228 1.405 . S
C229 C230 1.367 . S
C230 H204 0.950 . S
C230 C225 1.386 . S
C230 C229 1.367 . S
C231 C225 1.483 . S
C231 C232 1.382 1_655 S
C231 C233 1.403 . S
C232 H205 0.950 . S
C232 C218 1.411 . S
C232 C231 1.382 1_455 S
C233 C217 1.411 . S
C233 C231 1.403 . S
C233 C234 1.489 . S
C234 C233 1.489 . S
C234 C235 1.383 . S
C234 C239 1.382 . S
C235 H206 0.950 . S
C235 C234 1.383 . S
C235 C236 1.395 . S
C236 H207 0.950 . S
C236 C235 1.395 . S
C236 C237 1.288 . S
C237 C236 1.288 . S
C237 C238 1.392 . S
C238 H208 0.951 . S
C238 C237 1.392 . S
C238 C239 1.392 . S
C239 H209 0.949 . S
C239 C234 1.382 . S
C239 C238 1.392 . S
H240 C259 0.949 . S
H241 C260 0.950 . S
H242 C262 0.950 . S
H243 C263 0.950 . S
H244 C265 0.950 . S
H245 C268 0.950 . S
H246 C269 0.950 . S
H247 C271 0.951 . S
H248 C272 0.949 . S
H249 C274 0.949 . S
H250 C275 0.950 . S
H251 C277 0.950 . S
H252 C278 0.950 . S
H253 C280 0.950 . S
H254 C283 0.950 . S
H255 C284 0.950 . S
H256 C286 0.951 . S
H257 C287 0.949 . S
C258 C259 1.376 . S
C258 C263 1.386 . S
C258 C264 1.483 . S
C259 H240 0.949 . S
C259 C258 1.376 . S
C259 C260 1.397 . S
C260 H241 0.950 . S
C260 C259 1.397 . S
C260 C261 1.391 . S
C261 C260 1.391 . S
C261 C262 1.405 . S
C262 H242 0.950 . S
C262 C261 1.405 . S
C262 C263 1.367 . S
C263 H243 0.950 . S
C263 C258 1.386 . S
C263 C262 1.367 . S
C264 C258 1.483 . S
C264 C265 1.382 . S
C264 C266 1.403 . S
C265 H244 0.950 . S
C265 C264 1.382 . S
C265 C281 1.411 . S
C266 C264 1.403 . S
C266 C267 1.489 . S
C266 C280 1.411 . S
C267 C266 1.489 . S
C267 C268 1.383 . S
C267 C272 1.382 . S
C268 H245 0.950 . S
C268 C267 1.383 . S
C268 C269 1.395 . S
C269 H246 0.950 . S
C269 C268 1.395 . S
C269 C270 1.288 . S
C270 C269 1.288 . S
C270 C271 1.392 . S
C271 H247 0.951 . S
C271 C270 1.392 . S
C271 C272 1.392 . S
C272 H248 0.949 . S
C272 C267 1.382 . S
C272 C271 1.392 . S
C273 C274 1.376 . S
C273 C278 1.386 . S
C273 C279 1.483 . S
C274 H249 0.949 . S
C274 C273 1.376 . S
C274 C275 1.397 . S
C275 H250 0.950 . S
C275 C274 1.397 . S
C275 C276 1.391 . S
C276 C275 1.391 . S
C276 C277 1.405 . S
C277 H251 0.950 . S
C277 C276 1.405 . S
C277 C278 1.367 . S
C278 H252 0.950 . S
C278 C273 1.386 . S
C278 C277 1.367 . S
C279 C273 1.483 . S
C279 C280 1.382 . S
C279 C281 1.403 . S
C280 H253 0.950 . S
C280 C266 1.411 . S
C280 C279 1.382 . S
C281 C265 1.411 . S
C281 C279 1.403 . S
C281 C282 1.489 . S
C282 C281 1.489 . S
C282 C283 1.383 . S
C282 C287 1.382 . S
C283 H254 0.950 . S
C283 C282 1.383 . S
C283 C284 1.395 . S
C284 H255 0.950 . S
C284 C283 1.395 . S
C284 C285 1.288 . S
C285 C284 1.288 . S
C285 C286 1.392 . S
C286 H256 0.951 . S
C286 C285 1.392 . S
C286 C287 1.392 . S
C287 H257 0.949 . S
C287 C282 1.382 . S
C287 C286 1.392 . S
H288 C307 0.949 . S
H289 C308 0.950 . S
H290 C310 0.950 . S
H291 C311 0.950 1_545 S
H292 C313 0.950 . S
H293 C316 0.950 . S
H294 C317 0.950 . S
H295 C319 0.951 . S
H296 C320 0.949 . S
H297 C322 0.949 . S
H298 C323 0.950 . S
H299 C325 0.950 . S
H300 C326 0.950 . S
H301 C328 0.950 . S
H302 C331 0.950 . S
H303 C332 0.950 . S
H304 C334 0.951 . S
H305 C335 0.949 . S
C306 C307 1.376 . S
C306 C311 1.386 . S
C306 C312 1.483 1_565 S
C307 H288 0.949 . S
C307 C306 1.376 . S
C307 C308 1.397 . S
C308 H289 0.950 . S
C308 C307 1.397 . S
C308 C309 1.391 . S
C309 C308 1.391 . S
C309 C310 1.405 . S
C310 H290 0.950 . S
C310 C309 1.405 . S
C310 C311 1.367 . S
C311 H291 0.950 1_565 S
C311 C306 1.386 . S
C311 C310 1.367 . S
C312 C306 1.483 1_545 S
C312 C313 1.382 . S
C312 C314 1.403 . S
C313 H292 0.950 . S
C313 C312 1.382 . S
C313 C329 1.411 . S
C314 C312 1.403 . S
C314 C315 1.489 . S
C314 C328 1.411 . S
C315 C314 1.489 . S
C315 C316 1.383 1_545 S
C315 C320 1.382 . S
C316 H293 0.950 . S
C316 C315 1.383 1_565 S
C316 C317 1.395 . S
C317 H294 0.950 . S
C317 C316 1.395 . S
C317 C318 1.288 . S
C318 C317 1.288 . S
C318 C319 1.392 1_565 S
C319 H295 0.951 . S
C319 C318 1.392 1_545 S
C319 C320 1.392 . S
C320 H296 0.949 . S
C320 C315 1.382 . S
C320 C319 1.392 . S
C321 C322 1.376 . S
C321 C326 1.386 . S
C321 C327 1.483 . S
C322 H297 0.949 . S
C322 C321 1.376 . S
C322 C323 1.397 . S
C323 H298 0.950 . S
C323 C322 1.397 . S
C323 C324 1.391 . S
C324 C323 1.391 . S
C324 C325 1.405 . S
C325 H299 0.950 . S
C325 C324 1.405 . S
C325 C326 1.367 . S
C326 H300 0.950 . S
C326 C321 1.386 . S
C326 C325 1.367 . S
C327 C321 1.483 . S
C327 C328 1.382 . S
C327 C329 1.403 . S
C328 H301 0.950 . S
C328 C314 1.411 . S
C328 C327 1.382 . S
C329 C313 1.411 . S
C329 C327 1.403 . S
C329 C330 1.489 . S
C330 C329 1.489 . S
C330 C331 1.383 . S
C330 C335 1.382 . S
C331 H302 0.950 . S
C331 C330 1.383 . S
C331 C332 1.395 . S
C332 H303 0.950 . S
C332 C331 1.395 . S
C332 C333 1.288 . S
C333 C332 1.288 . S
C333 C334 1.392 . S
C334 H304 0.951 . S
C334 C333 1.392 . S
C334 C335 1.392 . S
C335 H305 0.949 . S
C335 C330 1.382 . S
C335 C334 1.392 . S
H336 C355 0.949 . S
H337 C356 0.950 . S
H338 C358 0.950 1_655 S
H339 C359 0.950 . S
H340 C361 0.950 . S
H341 C364 0.950 . S
H342 C365 0.950 . S
H343 C367 0.951 . S
H344 C368 0.949 . S
H345 C370 0.949 . S
H346 C371 0.950 . S
H347 C373 0.950 . S
H348 C374 0.950 . S
H349 C376 0.950 . S
H350 C379 0.950 . S
H351 C380 0.950 . S
H352 C382 0.951 . S
H353 C383 0.949 . S
C354 C355 1.376 . S
C354 C359 1.386 . S
C354 C360 1.483 . S
C355 H336 0.949 . S
C355 C354 1.376 . S
C355 C356 1.397 . S
C356 H337 0.950 . S
C356 C355 1.397 . S
C356 C357 1.391 . S
C357 C356 1.391 . S
C357 C358 1.405 . S
C358 H338 0.950 1_455 S
C358 C357 1.405 . S
C358 C359 1.367 . S
C359 H339 0.950 . S
C359 C354 1.386 . S
C359 C358 1.367 . S
C360 C354 1.483 . S
C360 C361 1.382 . S
C360 C362 1.403 . S
C361 H340 0.950 . S
C361 C360 1.382 . S
C361 C377 1.411 . S
C362 C360 1.403 . S
C362 C363 1.489 . S
C362 C376 1.411 . S
C363 C362 1.489 . S
C363 C364 1.383 . S
C363 C368 1.382 . S
C364 H341 0.950 . S
C364 C363 1.383 . S
C364 C365 1.395 . S
C365 H342 0.950 . S
C365 C364 1.395 . S
C365 C366 1.288 . S
C366 C365 1.288 . S
C366 C367 1.392 . S
C367 H343 0.951 . S
C367 C366 1.392 . S
C367 C368 1.392 . S
C368 H344 0.949 . S
C368 C363 1.382 . S
C368 C367 1.392 . S
C369 C370 1.376 . S
C369 C374 1.386 . S
C369 C375 1.483 . S
C370 H345 0.949 . S
C370 C369 1.376 . S
C370 C371 1.397 . S
C371 H346 0.950 . S
C371 C370 1.397 . S
C371 C372 1.391 . S
C372 C371 1.391 . S
C372 C373 1.405 . S
C373 H347 0.950 . S
C373 C372 1.405 . S
C373 C374 1.367 . S
C374 H348 0.950 . S
C374 C369 1.386 . S
C374 C373 1.367 . S
C375 C369 1.483 . S
C375 C376 1.382 . S
C375 C377 1.403 . S
C376 H349 0.950 . S
C376 C362 1.411 . S
C376 C375 1.382 . S
C377 C361 1.411 . S
C377 C375 1.403 . S
C377 C378 1.489 . S
C378 C377 1.489 . S
C378 C379 1.383 . S
C378 C383 1.382 . S
C379 H350 0.950 . S
C379 C378 1.383 . S
C379 C380 1.395 . S
C380 H351 0.950 . S
C380 C379 1.395 . S
C380 C381 1.288 . S
C381 C380 1.288 . S
C381 C382 1.392 . S
C382 H352 0.951 . S
C382 C381 1.392 . S
C382 C383 1.392 . S
C383 H353 0.949 . S
C383 C378 1.382 . S
C383 C382 1.392 . S
O384 Cd385 2.223 . S
O384 C392 1.315 . S
Cd385 O384 2.223 . S
Cd385 O388 2.297 . S
Cd385 O389 2.439 . S
Cd385 O395 2.240 . S
Cd386 O387 2.240 . S
Cd386 O394 2.223 . S
Cd386 O396 2.297 . S
Cd386 O397 2.439 . S
O387 Cd386 2.240 . S
O387 C392 1.279 . S
O388 Cd385 2.297 . S
O388 C390 1.247 . S
O389 Cd385 2.439 . S
O389 C390 1.208 . S
C390 O388 1.247 . S
C390 O389 1.208 . S
C391 O396 1.247 . S
C391 O397 1.208 . S
C392 O384 1.315 . S
C392 O387 1.279 . S
C393 O394 1.315 . S
C393 O395 1.279 . S
O394 Cd386 2.223 . S
O394 C393 1.315 . S
O395 Cd385 2.240 . S
O395 C393 1.279 . S
O396 Cd386 2.297 . S
O396 C391 1.247 . S
O397 Cd386 2.439 . S
O397 C391 1.208 . S
O398 Cd399 2.223 . S
O398 C406 1.315 . S
Cd399 O398 2.223 . S
Cd399 O402 2.297 . S
Cd399 O403 2.439 . S
Cd399 O409 2.240 . S
Cd400 O401 2.240 . S
Cd400 O408 2.223 . S
Cd400 O410 2.297 . S
Cd400 O411 2.439 . S
O401 Cd400 2.240 . S
O401 C406 1.279 . S
O402 Cd399 2.297 . S
O402 C404 1.247 . S
O403 Cd399 2.439 . S
O403 C404 1.208 . S
C404 O402 1.247 . S
C404 O403 1.208 . S
C405 O410 1.247 . S
C405 O411 1.208 . S
C406 O398 1.315 . S
C406 O401 1.279 . S
C407 O408 1.315 . S
C407 O409 1.279 . S
O408 Cd400 2.223 . S
O408 C407 1.315 . S
O409 Cd399 2.240 . S
O409 C407 1.279 . S
O410 Cd400 2.297 . S
O410 C405 1.247 . S
O411 Cd400 2.439 . S
O411 C405 1.208 . S
O412 Cd413 2.223 . S
O412 C420 1.315 . S
Cd413 O412 2.223 . S
Cd413 O416 2.297 . S
Cd413 O417 2.439 . S
Cd413 O423 2.240 . S
Cd414 O415 2.240 . S
Cd414 O422 2.223 . S
Cd414 O424 2.297 . S
Cd414 O425 2.439 . S
O415 Cd414 2.240 . S
O415 C420 1.279 . S
O416 Cd413 2.297 . S
O416 C418 1.247 . S
O417 Cd413 2.439 . S
O417 C418 1.208 . S
C418 O416 1.247 . S
C418 O417 1.208 . S
C419 O424 1.247 . S
C419 O425 1.208 . S
C420 O412 1.315 . S
C420 O415 1.279 . S
C421 O422 1.315 . S
C421 O423 1.279 . S
O422 Cd414 2.223 . S
O422 C421 1.315 . S
O423 Cd413 2.240 . S
O423 C421 1.279 . S
O424 Cd414 2.297 . S
O424 C419 1.247 . S
O425 Cd414 2.439 . S
O425 C419 1.208 . S
O426 Cd427 2.223 . S
O426 C434 1.315 . S
Cd427 O426 2.223 . S
Cd427 O430 2.297 . S
Cd427 O431 2.439 . S
Cd427 O437 2.240 . S
Cd428 O429 2.240 . S
Cd428 O436 2.223 . S
Cd428 O438 2.297 . S
Cd428 O439 2.439 . S
O429 Cd428 2.240 . S
O429 C434 1.279 . S
O430 Cd427 2.297 . S
O430 C432 1.247 . S
O431 Cd427 2.439 . S
O431 C432 1.208 . S
C432 O430 1.247 . S
C432 O431 1.208 . S
C433 O438 1.247 . S
C433 O439 1.208 . S
C434 O426 1.315 . S
C434 O429 1.279 . S
C435 O436 1.315 . S
C435 O437 1.279 . S
O436 Cd428 2.223 . S
O436 C435 1.315 . S
O437 Cd427 2.240 . S
O437 C435 1.279 . S
O438 Cd428 2.297 . S
O438 C433 1.247 . S
O439 Cd428 2.439 . S
O439 C433 1.208 . S
O440 Cd441 2.223 . S
O440 C448 1.315 . S
Cd441 O440 2.223 . S
Cd441 O444 2.297 . S
Cd441 O445 2.439 . S
Cd441 O451 2.240 . S
Cd442 O443 2.240 . S
Cd442 O450 2.223 . S
Cd442 O452 2.297 . S
Cd442 O453 2.439 . S
O443 Cd442 2.240 . S
O443 C448 1.279 . S
O444 Cd441 2.297 . S
O444 C446 1.247 . S
O445 Cd441 2.439 . S
O445 C446 1.208 . S
C446 O444 1.247 . S
C446 O445 1.208 . S
C447 O452 1.247 . S
C447 O453 1.208 . S
C448 O440 1.315 . S
C448 O443 1.279 . S
C449 O450 1.315 . S
C449 O451 1.279 . S
O450 Cd442 2.223 . S
O450 C449 1.315 . S
O451 Cd441 2.240 . S
O451 C449 1.279 . S
O452 Cd442 2.297 . S
O452 C447 1.247 . S
O453 Cd442 2.439 . S
O453 C447 1.208 . S
O454 Cd455 2.223 . S
O454 C462 1.315 . S
Cd455 O454 2.223 . S
Cd455 O458 2.297 . S
Cd455 O459 2.439 . S
Cd455 O465 2.240 . S
Cd456 O457 2.240 . S
Cd456 O464 2.223 . S
Cd456 O466 2.297 . S
Cd456 O467 2.439 . S
O457 Cd456 2.240 . S
O457 C462 1.279 . S
O458 Cd455 2.297 . S
O458 C460 1.247 . S
O459 Cd455 2.439 . S
O459 C460 1.208 . S
C460 O458 1.247 . S
C460 O459 1.208 . S
C461 O466 1.247 . S
C461 O467 1.208 . S
C462 O454 1.315 . S
C462 O457 1.279 . S
C463 O464 1.315 . S
C463 O465 1.279 . S
O464 Cd456 2.223 . S
O464 C463 1.315 . S
O465 Cd455 2.240 . S
O465 C463 1.279 . S
O466 Cd456 2.297 . S
O466 C461 1.247 . S
O467 Cd456 2.439 . S
O467 C461 1.208 . S
O468 Cd469 2.223 . S
O468 C476 1.315 . S
Cd469 O468 2.223 . S
Cd469 O472 2.297 . S
Cd469 O473 2.439 . S
Cd469 O479 2.240 1_554 S
Cd470 O471 2.240 1_556 S
Cd470 O478 2.223 . S
Cd470 O480 2.297 . S
Cd470 O481 2.439 . S
O471 Cd470 2.240 1_554 S
O471 C476 1.279 . S
O472 Cd469 2.297 . S
O472 C474 1.247 . S
O473 Cd469 2.439 . S
O473 C474 1.208 . S
C474 O472 1.247 . S
C474 O473 1.208 . S
C475 O480 1.247 . S
C475 O481 1.208 . S
C476 O468 1.315 . S
C476 O471 1.279 . S
C477 O478 1.319 . S
C477 O479 1.279 . S
O478 Cd470 2.223 . S
O478 C477 1.319 . S
O479 Cd469 2.240 1_556 S
O479 C477 1.279 . S
O480 Cd470 2.297 . S
O480 C475 1.247 . S
O481 Cd470 2.439 . S
O481 C475 1.208 . S
O482 Cd483 2.223 . S
O482 C490 1.315 . S
Cd483 O482 2.223 . S
Cd483 O486 2.297 . S
Cd483 O487 2.439 . S
Cd483 O493 2.240 . S
Cd484 O485 2.240 . S
Cd484 O492 2.223 . S
Cd484 O494 2.297 . S
Cd484 O495 2.439 . S
O485 Cd484 2.240 . S
O485 C490 1.279 . S
O486 Cd483 2.297 . S
O486 C488 1.247 . S
O487 Cd483 2.439 . S
O487 C488 1.208 . S
C488 O486 1.247 . S
C488 O487 1.208 . S
C489 O494 1.247 . S
C489 O495 1.208 . S
C490 O482 1.315 . S
C490 O485 1.279 . S
C491 O492 1.315 . S
C491 O493 1.279 . S
O492 Cd484 2.223 . S
O492 C491 1.315 . S
O493 Cd483 2.240 . S
O493 C491 1.279 . S
O494 Cd484 2.297 . S
O494 C489 1.247 . S
O495 Cd484 2.439 . S
O495 C489 1.208 . S
H496 C508 0.930 . S
H497 C510 0.930 . S
H498 C511 0.930 . S
H499 C515 0.959 . S
H500 C515 0.959 . S
H501 C515 0.961 . S
H502 C516 0.960 . S
H503 C516 0.961 . S
H504 C516 0.959 . S
H505 C519 0.929 . S
H506 C520 0.931 . S
H507 C522 0.930 . S
C508 H496 0.930 . S
C508 C509 1.399 . S
C508 C513 1.399 . S
C509 C508 1.399 . S
C509 C510 1.376 . S
C510 H497 0.930 . S
C510 C509 1.376 . S
C510 C511 1.388 . S
C511 H498 0.930 . S
C511 C510 1.388 . S
C511 C512 1.390 . S
C512 C511 1.390 . S
C512 C513 1.394 . S
C512 C518 1.465 . S
C513 C508 1.399 . S
C513 C512 1.394 . S
C513 C514 1.516 . S
C514 C513 1.516 . S
C514 C515 1.502 . S
C514 C516 1.561 . S
C514 C517 1.526 . S
C515 H499 0.959 . S
C515 H500 0.959 . S
C515 H501 0.961 . S
C515 C514 1.502 . S
C516 H502 0.960 . S
C516 H503 0.961 . S
C516 H504 0.959 . S
C516 C514 1.561 . S
C517 C514 1.526 . S
C517 C518 1.396 . S
C517 C522 1.390 . S
C518 C512 1.465 . S
C518 C517 1.396 . S
C518 C519 1.399 . S
C519 H505 0.929 . S
C519 C518 1.399 . S
C519 C520 1.385 . S
C520 H506 0.931 . S
C520 C519 1.385 . S
C520 C521 1.389 . S
C521 C520 1.389 . S
C521 C522 1.387 . S
C522 H507 0.930 . S
C522 C517 1.390 . S
C522 C521 1.387 . S
H523 C535 0.930 . S
H524 C537 0.930 . S
H525 C538 0.930 . S
H526 C542 0.959 . S
H527 C542 0.959 . S
H528 C542 0.961 . S
H529 C543 0.960 . S
H530 C543 0.961 . S
H531 C543 0.959 . S
H532 C546 0.929 . S
H533 C547 0.931 . S
H534 C549 0.930 . S
C535 H523 0.930 . S
C535 C536 1.399 . S
C535 C540 1.399 . S
C536 C535 1.399 . S
C536 C537 1.376 . S
C537 H524 0.930 . S
C537 C536 1.376 . S
C537 C538 1.388 . S
C538 H525 0.930 . S
C538 C537 1.388 . S
C538 C539 1.390 . S
C539 C538 1.390 . S
C539 C540 1.394 . S
C539 C545 1.465 . S
C540 C535 1.399 . S
C540 C539 1.394 . S
C540 C541 1.516 . S
C541 C540 1.516 . S
C541 C542 1.502 . S
C541 C543 1.561 . S
C541 C544 1.526 . S
C542 H526 0.959 . S
C542 H527 0.959 . S
C542 H528 0.961 . S
C542 C541 1.502 . S
C543 H529 0.960 . S
C543 H530 0.961 . S
C543 H531 0.959 . S
C543 C541 1.561 . S
C544 C541 1.526 . S
C544 C545 1.396 . S
C544 C549 1.390 . S
C545 C539 1.465 . S
C545 C544 1.396 . S
C545 C546 1.399 . S
C546 H532 0.929 . S
C546 C545 1.399 . S
C546 C547 1.385 . S
C547 H533 0.931 . S
C547 C546 1.385 . S
C547 C548 1.389 . S
C548 C547 1.389 . S
C548 C549 1.387 . S
C549 H534 0.930 . S
C549 C544 1.390 . S
C549 C548 1.387 . S
H550 C562 0.930 . S
H551 C564 0.930 . S
H552 C565 0.930 . S
H553 C569 0.959 . S
H554 C569 0.959 . S
H555 C569 0.961 . S
H556 C570 0.960 . S
H557 C570 0.961 . S
H558 C570 0.959 . S
H559 C573 0.929 . S
H560 C574 0.931 . S
H561 C576 0.930 . S
C562 H550 0.930 . S
C562 C563 1.399 . S
C562 C567 1.399 . S
C563 C562 1.399 . S
C563 C564 1.376 . S
C564 H551 0.930 . S
C564 C563 1.376 . S
C564 C565 1.388 . S
C565 H552 0.930 . S
C565 C564 1.388 . S
C565 C566 1.390 . S
C566 C565 1.390 . S
C566 C567 1.394 . S
C566 C572 1.465 . S
C567 C562 1.399 . S
C567 C566 1.394 . S
C567 C568 1.516 . S
C568 C567 1.516 . S
C568 C569 1.502 . S
C568 C570 1.561 . S
C568 C571 1.526 . S
C569 H553 0.959 . S
C569 H554 0.959 . S
C569 H555 0.961 . S
C569 C568 1.502 . S
C570 H556 0.960 . S
C570 H557 0.961 . S
C570 H558 0.959 . S
C570 C568 1.561 . S
C571 C568 1.526 . S
C571 C572 1.396 . S
C571 C576 1.390 . S
C572 C566 1.465 . S
C572 C571 1.396 . S
C572 C573 1.399 . S
C573 H559 0.929 . S
C573 C572 1.399 . S
C573 C574 1.385 . S
C574 H560 0.931 . S
C574 C573 1.385 . S
C574 C575 1.389 . S
C575 C574 1.389 . S
C575 C576 1.387 . S
C576 H561 0.930 . S
C576 C571 1.390 . S
C576 C575 1.387 . S
H577 C589 0.930 . S
H578 C591 0.930 . S
H579 C592 0.930 . S
H580 C596 0.959 . S
H581 C596 0.959 . S
H582 C596 0.961 . S
H583 C597 0.960 . S
H584 C597 0.961 . S
H585 C597 0.959 . S
H586 C600 0.929 . S
H587 C601 0.931 . S
H588 C603 0.930 . S
C589 H577 0.930 . S
C589 C590 1.399 . S
C589 C594 1.399 . S
C590 C589 1.399 . S
C590 C591 1.376 . S
C591 H578 0.930 . S
C591 C590 1.376 . S
C591 C592 1.388 . S
C592 H579 0.930 . S
C592 C591 1.388 . S
C592 C593 1.390 . S
C593 C592 1.390 . S
C593 C594 1.394 . S
C593 C599 1.465 . S
C594 C589 1.399 . S
C594 C593 1.394 . S
C594 C595 1.516 . S
C595 C594 1.516 . S
C595 C596 1.502 . S
C595 C597 1.561 . S
C595 C598 1.526 . S
C596 H580 0.959 . S
C596 H581 0.959 . S
C596 H582 0.961 . S
C596 C595 1.502 . S
C597 H583 0.960 . S
C597 H584 0.961 . S
C597 H585 0.959 . S
C597 C595 1.561 . S
C598 C595 1.526 . S
C598 C599 1.396 . S
C598 C603 1.390 . S
C599 C593 1.465 . S
C599 C598 1.396 . S
C599 C600 1.399 . S
C600 H586 0.929 . S
C600 C599 1.399 . S
C600 C601 1.385 . S
C601 H587 0.931 . S
C601 C600 1.385 . S
C601 C602 1.389 . S
C602 C601 1.389 . S
C602 C603 1.387 . S
C603 H588 0.930 . S
C603 C598 1.390 . S
C603 C602 1.387 . S
H604 C616 0.930 1_556 S
H605 C618 0.930 . S
H606 C619 0.930 . S
H607 C623 0.959 . S
H608 C623 0.959 . S
H609 C623 0.961 . S
H610 C624 0.960 . S
H611 C624 0.961 . S
H612 C624 0.959 . S
H613 C627 0.929 . S
H614 C628 0.931 . S
H615 C630 0.930 . S
C616 H604 0.930 1_554 S
C616 C617 1.399 . S
C616 C621 1.399 . S
C617 C616 1.399 . S
C617 C618 1.376 . S
C618 H605 0.930 . S
C618 C617 1.376 . S
C618 C619 1.388 . S
C619 H606 0.930 . S
C619 C618 1.388 . S
C619 C620 1.390 . S
C620 C619 1.390 . S
C620 C621 1.394 . S
C620 C626 1.465 . S
C621 C616 1.399 . S
C621 C620 1.394 . S
C621 C622 1.516 . S
C622 C621 1.516 . S
C622 C623 1.502 1_554 S
C622 C624 1.561 . S
C622 C625 1.526 . S
C623 H607 0.959 . S
C623 H608 0.959 . S
C623 H609 0.961 . S
C623 C622 1.502 1_556 S
C624 H610 0.960 . S
C624 H611 0.961 . S
C624 H612 0.959 . S
C624 C622 1.561 . S
C625 C622 1.526 . S
C625 C626 1.396 . S
C625 C630 1.390 . S
C626 C620 1.465 . S
C626 C625 1.396 . S
C626 C627 1.399 . S
C627 H613 0.929 . S
C627 C626 1.399 . S
C627 C628 1.385 . S
C628 H614 0.931 . S
C628 C627 1.385 . S
C628 C629 1.389 . S
C629 C628 1.389 . S
C629 C630 1.387 . S
C630 H615 0.930 . S
C630 C625 1.390 . S
C630 C629 1.387 . S
H631 C643 0.930 . S
H632 C645 0.930 . S
H633 C646 0.930 . S
H634 C650 0.959 . S
H635 C650 0.959 . S
H636 C650 0.961 . S
H637 C651 0.960 . S
H638 C651 0.961 . S
H639 C651 0.959 . S
H640 C654 0.929 . S
H641 C655 0.931 . S
H642 C657 0.930 . S
C643 H631 0.930 . S
C643 C644 1.399 . S
C643 C648 1.399 . S
C644 C643 1.399 . S
C644 C645 1.376 . S
C645 H632 0.930 . S
C645 C644 1.376 . S
C645 C646 1.388 . S
C646 H633 0.930 . S
C646 C645 1.388 . S
C646 C647 1.390 . S
C647 C646 1.390 . S
C647 C648 1.394 . S
C647 C653 1.465 . S
C648 C643 1.399 . S
C648 C647 1.394 . S
C648 C649 1.516 . S
C649 C648 1.516 . S
C649 C650 1.502 . S
C649 C651 1.561 . S
C649 C652 1.526 . S
C650 H634 0.959 . S
C650 H635 0.959 . S
C650 H636 0.961 . S
C650 C649 1.502 . S
C651 H637 0.960 . S
C651 H638 0.961 . S
C651 H639 0.959 . S
C651 C649 1.561 . S
C652 C649 1.526 . S
C652 C653 1.396 . S
C652 C657 1.390 . S
C653 C647 1.465 . S
C653 C652 1.396 . S
C653 C654 1.399 . S
C654 H640 0.929 . S
C654 C653 1.399 . S
C654 C655 1.385 . S
C655 H641 0.931 . S
C655 C654 1.385 . S
C655 C656 1.389 . S
C656 C655 1.389 . S
C656 C657 1.387 . S
C657 H642 0.930 . S
C657 C652 1.390 . S
C657 C656 1.387 . S
H658 C670 0.930 . S
H659 C672 0.930 1_545 S
H660 C673 0.930 1_545 S
H661 C677 0.959 . S
H662 C677 0.959 . S
H663 C677 0.961 . S
H664 C678 0.960 . S
H665 C678 0.961 . S
H666 C678 0.959 . S
H667 C681 0.929 . S
H668 C682 0.931 . S
H669 C684 0.930 . S
C670 H658 0.930 . S
C670 C671 1.399 . S
C670 C675 1.399 . S
C671 C670 1.399 . S
C671 C672 1.376 . S
C672 H659 0.930 1_565 S
C672 C671 1.376 . S
C672 C673 1.388 . S
C673 H660 0.930 1_565 S
C673 C672 1.388 . S
C673 C674 1.390 . S
C674 C673 1.390 . S
C674 C675 1.394 . S
C674 C680 1.465 . S
C675 C670 1.399 . S
C675 C674 1.394 . S
C675 C676 1.516 . S
C676 C675 1.516 . S
C676 C677 1.502 . S
C676 C678 1.561 . S
C676 C679 1.526 . S
C677 H661 0.959 . S
C677 H662 0.959 . S
C677 H663 0.961 . S
C677 C676 1.502 . S
C678 H664 0.960 . S
C678 H665 0.961 . S
C678 H666 0.959 . S
C678 C676 1.561 . S
C679 C676 1.526 . S
C679 C680 1.396 . S
C679 C684 1.390 . S
C680 C674 1.465 . S
C680 C679 1.396 . S
C680 C681 1.399 . S
C681 H667 0.929 . S
C681 C680 1.399 . S
C681 C682 1.385 . S
C682 H668 0.931 . S
C682 C681 1.385 . S
C682 C683 1.389 . S
C683 C682 1.389 . S
C683 C684 1.387 . S
C684 H669 0.930 . S
C684 C679 1.390 . S
C684 C683 1.387 . S
H685 C697 0.930 . S
H686 C699 0.930 . S
H687 C700 0.930 . S
H688 C704 0.959 . S
H689 C704 0.959 . S
H690 C704 0.961 . S
H691 C705 0.960 . S
H692 C705 0.961 . S
H693 C705 0.959 . S
H694 C708 0.929 . S
H695 C709 0.931 . S
H696 C711 0.930 . S
C697 H685 0.930 . S
C697 C698 1.399 . S
C697 C702 1.399 . S
C698 C697 1.399 . S
C698 C699 1.376 . S
C699 H686 0.930 . S
C699 C698 1.376 . S
C699 C700 1.388 . S
C700 H687 0.930 . S
C700 C699 1.388 . S
C700 C701 1.390 . S
C701 C700 1.390 . S
C701 C702 1.394 . S
C701 C707 1.465 1_545 S
C702 C697 1.399 . S
C702 C701 1.394 . S
C702 C703 1.516 1_545 S
C703 C702 1.516 1_565 S
C703 C704 1.502 . S
C703 C705 1.561 . S
C703 C706 1.526 . S
C704 H688 0.959 . S
C704 H689 0.959 . S
C704 H690 0.961 . S
C704 C703 1.502 . S
C705 H691 0.960 . S
C705 H692 0.961 . S
C705 H693 0.959 . S
C705 C703 1.561 . S
C706 C703 1.526 . S
C706 C707 1.396 . S
C706 C711 1.390 . S
C707 C701 1.465 1_565 S
C707 C706 1.396 . S
C707 C708 1.399 . S
C708 H694 0.929 . S
C708 C707 1.399 . S
C708 C709 1.385 . S
C709 H695 0.931 . S
C709 C708 1.385 . S
C709 C710 1.389 . S
C710 C709 1.389 . S
C710 C711 1.387 . S
C711 H696 0.930 . S
C711 C706 1.390 . S
C711 C710 1.387 . S
H712 C724 0.930 . S
H713 C726 0.930 . S
H714 C727 0.930 . S
H715 C731 0.959 . S
H716 C731 0.959 . S
H717 C731 0.961 . S
H718 C732 0.960 . S
H719 C732 0.961 . S
H720 C732 0.959 . S
H721 C735 0.929 . S
H722 C736 0.931 . S
H723 C738 0.930 . S
C724 H712 0.930 . S
C724 C725 1.399 . S
C724 C729 1.399 . S
C725 C724 1.399 . S
C725 C726 1.376 . S
C726 H713 0.930 . S
C726 C725 1.376 . S
C726 C727 1.388 . S
C727 H714 0.930 . S
C727 C726 1.388 . S
C727 C728 1.390 . S
C728 C727 1.390 . S
C728 C729 1.394 . S
C728 C734 1.465 . S
C729 C724 1.399 . S
C729 C728 1.394 . S
C729 C730 1.516 . S
C730 C729 1.516 . S
C730 C731 1.502 . S
C730 C732 1.561 . S
C730 C733 1.526 . S
C731 H715 0.959 . S
C731 H716 0.959 . S
C731 H717 0.961 . S
C731 C730 1.502 . S
C732 H718 0.960 . S
C732 H719 0.961 . S
C732 H720 0.959 . S
C732 C730 1.561 . S
C733 C730 1.526 . S
C733 C734 1.396 . S
C733 C738 1.390 . S
C734 C728 1.465 . S
C734 C733 1.396 . S
C734 C735 1.399 . S
C735 H721 0.929 . S
C735 C734 1.399 . S
C735 C736 1.385 . S
C736 H722 0.931 . S
C736 C735 1.385 . S
C736 C737 1.389 . S
C737 C736 1.389 . S
C737 C738 1.387 . S
C738 H723 0.930 . S
C738 C733 1.390 . S
C738 C737 1.387 . S
H739 C751 0.930 . S
H740 C753 0.930 . S
H741 C754 0.930 . S
H742 C758 0.959 . S
H743 C758 0.959 . S
H744 C758 0.961 . S
H745 C759 0.960 . S
H746 C759 0.961 . S
H747 C759 0.959 . S
H748 C762 0.929 1_556 S
H749 C763 0.878 1_556 S
H750 C765 0.930 . S
C751 H739 0.930 . S
C751 C752 1.399 . S
C751 C756 1.399 . S
C752 C751 1.399 . S
C752 C753 1.376 . S
C753 H740 0.930 . S
C753 C752 1.376 . S
C753 C754 1.388 . S
C754 H741 0.930 . S
C754 C753 1.388 . S
C754 C755 1.390 . S
C755 C754 1.390 . S
C755 C756 1.394 . S
C755 C761 1.465 . S
C756 C751 1.399 . S
C756 C755 1.394 . S
C756 C757 1.516 . S
C757 C756 1.516 . S
C757 C758 1.502 . S
C757 C759 1.561 . S
C757 C760 1.526 . S
C758 H742 0.959 . S
C758 H743 0.959 . S
C758 H744 0.961 . S
C758 C757 1.502 . S
C759 H745 0.960 . S
C759 H746 0.961 . S
C759 H747 0.959 . S
C759 C757 1.561 . S
C760 C757 1.526 . S
C760 C761 1.396 . S
C760 C765 1.390 . S
C761 C755 1.465 . S
C761 C760 1.396 . S
C761 C762 1.399 . S
C762 H748 0.929 1_554 S
C762 C761 1.399 . S
C762 C763 1.394 . S
C763 H749 0.878 1_554 S
C763 C762 1.394 . S
C763 C764 1.435 . S
C764 C763 1.435 . S
C764 C765 1.387 . S
C765 H750 0.930 . S
C765 C760 1.390 . S
C765 C764 1.387 . S
H766 C778 0.930 1_455 S
H767 C780 0.930 . S
H768 C781 0.930 . S
H769 C785 0.959 . S
H770 C785 0.959 . S
H771 C785 0.961 . S
H772 C786 0.960 . S
H773 C786 0.961 . S
H774 C786 0.959 . S
H775 C789 0.929 . S
H776 C790 0.931 . S
H777 C792 0.930 . S
C778 H766 0.930 1_655 S
C778 C779 1.398 . S
C778 C783 1.399 . S
C779 C778 1.398 . S
C779 C780 1.373 . S
C780 H767 0.930 . S
C780 C779 1.373 . S
C780 C781 1.388 . S
C781 H768 0.930 . S
C781 C780 1.388 . S
C781 C782 1.390 . S
C782 C781 1.390 . S
C782 C783 1.394 . S
C782 C788 1.465 . S
C783 C778 1.399 . S
C783 C782 1.394 . S
C783 C784 1.516 . S
C784 C783 1.516 . S
C784 C785 1.502 . S
C784 C786 1.561 . S
C784 C787 1.526 . S
C785 H769 0.959 . S
C785 H770 0.959 . S
C785 H771 0.961 . S
C785 C784 1.502 . S
C786 H772 0.960 . S
C786 H773 0.961 . S
C786 H774 0.959 . S
C786 C784 1.561 . S
C787 C784 1.526 . S
C787 C788 1.396 . S
C787 C792 1.390 . S
C788 C782 1.465 . S
C788 C787 1.396 . S
C788 C789 1.399 . S
C789 H775 0.929 . S
C789 C788 1.399 . S
C789 C790 1.385 . S
C790 H776 0.931 . S
C790 C789 1.385 . S
C790 C791 1.389 . S
C791 C790 1.389 . S
C791 C792 1.387 . S
C792 H777 0.930 . S
C792 C787 1.390 . S
C792 C791 1.387 . S
H793 C805 0.930 . S
H794 C807 0.930 1_455 S
H795 C808 0.930 1_455 S
H796 C812 0.959 . S
H797 C812 0.959 . S
H798 C812 0.961 . S
H799 C813 0.960 . S
H800 C813 0.961 . S
H801 C813 0.959 . S
H802 C816 0.929 . S
H803 C817 0.931 . S
H804 C819 0.930 . S
C805 H793 0.930 . S
C805 C806 1.399 . S
C805 C810 1.399 . S
C806 C805 1.399 . S
C806 C807 1.376 . S
C807 H794 0.930 1_655 S
C807 C806 1.376 . S
C807 C808 1.388 . S
C808 H795 0.930 1_655 S
C808 C807 1.388 . S
C808 C809 1.390 . S
C809 C808 1.390 . S
C809 C810 1.394 . S
C809 C815 1.465 . S
C810 C805 1.399 . S
C810 C809 1.394 . S
C810 C811 1.516 . S
C811 C810 1.516 . S
C811 C812 1.502 . S
C811 C813 1.561 . S
C811 C814 1.526 . S
C812 H796 0.959 . S
C812 H797 0.959 . S
C812 H798 0.961 . S
C812 C811 1.502 . S
C813 H799 0.960 . S
C813 H800 0.961 . S
C813 H801 0.959 . S
C813 C811 1.561 . S
C814 C811 1.526 . S
C814 C815 1.396 . S
C814 C819 1.390 . S
C815 C809 1.465 . S
C815 C814 1.396 . S
C815 C816 1.399 . S
C816 H802 0.929 . S
C816 C815 1.399 . S
C816 C817 1.385 . S
C817 H803 0.931 . S
C817 C816 1.385 . S
C817 C818 1.389 . S
C818 C817 1.389 . S
C818 C819 1.387 . S
C819 H804 0.930 . S
C819 C814 1.390 . S
C819 C818 1.387 . S
H820 C832 0.930 . S
H821 C834 0.930 . S
H822 C835 0.930 . S
H823 C839 0.959 . S
H824 C839 0.959 . S
H825 C839 0.961 . S
H826 C840 0.960 . S
H827 C840 0.961 . S
H828 C840 0.959 . S
H829 C843 0.929 . S
H830 C844 0.931 . S
H831 C846 0.930 . S
C832 H820 0.930 . S
C832 C833 1.399 . S
C832 C837 1.399 . S
C833 C832 1.399 . S
C833 C834 1.376 . S
C834 H821 0.930 . S
C834 C833 1.376 . S
C834 C835 1.388 . S
C835 H822 0.930 . S
C835 C834 1.388 . S
C835 C836 1.390 . S
C836 C835 1.390 . S
C836 C837 1.394 . S
C836 C842 1.465 . S
C837 C832 1.399 . S
C837 C836 1.394 . S
C837 C838 1.516 . S
C838 C837 1.516 . S
C838 C839 1.502 . S
C838 C840 1.561 . S
C838 C841 1.526 . S
C839 H823 0.959 . S
C839 H824 0.959 . S
C839 H825 0.961 . S
C839 C838 1.502 . S
C840 H826 0.960 . S
C840 H827 0.961 . S
C840 H828 0.959 . S
C840 C838 1.561 . S
C841 C838 1.526 . S
C841 C842 1.396 . S
C841 C846 1.390 . S
C842 C836 1.465 . S
C842 C841 1.396 . S
C842 C843 1.399 . S
C843 H829 0.929 . S
C843 C842 1.399 . S
C843 C844 1.385 . S
C844 H830 0.931 . S
C844 C843 1.385 . S
C844 C845 1.389 . S
C845 C844 1.389 . S
C845 C846 1.387 . S
C846 H831 0.930 . S
C846 C841 1.390 . S
C846 C845 1.387 . S
H847 C859 0.930 . S
H848 C861 0.930 . S
H849 C862 0.930 . S
H850 C866 0.959 . S
H851 C866 0.959 . S
H852 C866 0.961 . S
H853 C867 0.960 . S
H854 C867 0.961 . S
H855 C867 0.959 . S
H856 C870 0.929 . S
H857 C871 0.931 . S
H858 C873 0.930 . S
C859 H847 0.930 . S
C859 C860 1.399 . S
C859 C864 1.399 . S
C860 C859 1.399 . S
C860 C861 1.376 . S
C861 H848 0.930 . S
C861 C860 1.376 . S
C861 C862 1.388 . S
C862 H849 0.930 . S
C862 C861 1.388 . S
C862 C863 1.390 . S
C863 C862 1.390 . S
C863 C864 1.394 . S
C863 C869 1.465 . S
C864 C859 1.399 . S
C864 C863 1.394 . S
C864 C865 1.516 . S
C865 C864 1.516 . S
C865 C866 1.502 . S
C865 C867 1.561 . S
C865 C868 1.526 . S
C866 H850 0.959 . S
C866 H851 0.959 . S
C866 H852 0.961 . S
C866 C865 1.502 . S
C867 H853 0.960 . S
C867 H854 0.961 . S
C867 H855 0.959 . S
C867 C865 1.561 . S
C868 C865 1.526 . S
C868 C869 1.396 . S
C868 C873 1.390 . S
C869 C863 1.465 . S
C869 C868 1.396 . S
C869 C870 1.399 . S
C870 H856 0.929 . S
C870 C869 1.399 . S
C870 C871 1.385 . S
C871 H857 0.931 . S
C871 C870 1.385 . S
C871 C872 1.389 . S
C872 C871 1.389 . S
C872 C873 1.387 . S
C873 H858 0.930 . S
C873 C868 1.390 . S
C873 C872 1.387 . S
H874 C886 0.930 . S
H875 C888 0.930 . S
H876 C889 0.930 . S
H877 C893 0.959 . S
H878 C893 0.959 . S
H879 C893 0.961 . S
H880 C894 0.960 . S
H881 C894 0.961 . S
H882 C894 0.959 . S
H883 C897 0.929 . S
H884 C898 0.931 . S
H885 C900 0.930 . S
C886 H874 0.930 . S
C886 C887 1.399 1_554 S
C886 C891 1.399 1_554 S
C887 C886 1.399 1_556 S
C887 C888 1.376 . S
C888 H875 0.930 . S
C888 C887 1.376 . S
C888 C889 1.388 . S
C889 H876 0.930 . S
C889 C888 1.388 . S
C889 C890 1.390 . S
C890 C889 1.390 . S
C890 C891 1.423 . S
C890 C896 1.465 . S
C891 C886 1.399 1_556 S
C891 C890 1.423 . S
C891 C892 1.491 1_556 S
C892 C891 1.491 1_554 S
C892 C893 1.502 . S
C892 C894 1.561 . S
C892 C895 1.526 . S
C893 H877 0.959 . S
C893 H878 0.959 . S
C893 H879 0.961 . S
C893 C892 1.502 . S
C894 H880 0.960 . S
C894 H881 0.961 . S
C894 H882 0.959 . S
C894 C892 1.561 . S
C895 C892 1.526 . S
C895 C896 1.396 1_554 S
C895 C900 1.390 . S
C896 C890 1.465 . S
C896 C895 1.396 1_556 S
C896 C897 1.399 . S
C897 H883 0.929 . S
C897 C896 1.399 . S
C897 C898 1.385 . S
C898 H884 0.931 . S
C898 C897 1.385 . S
C898 C899 1.389 . S
C899 C898 1.389 . S
C899 C900 1.387 1_556 S
C900 H885 0.930 . S
C900 C895 1.390 . S
C900 C899 1.387 1_554 S
H901 C913 0.930 . S
H902 C915 0.930 . S
H903 C916 0.930 . S
H904 C920 0.959 . S
H905 C920 0.959 . S
H906 C920 0.961 . S
H907 C921 0.960 . S
H908 C921 0.961 . S
H909 C921 0.959 . S
H910 C924 0.929 . S
H911 C925 0.931 . S
H912 C927 0.930 . S
C913 H901 0.930 . S
C913 C914 1.399 . S
C913 C918 1.399 . S
C914 C913 1.399 . S
C914 C915 1.376 . S
C915 H902 0.930 . S
C915 C914 1.376 . S
C915 C916 1.388 . S
C916 H903 0.930 . S
C916 C915 1.388 . S
C916 C917 1.390 . S
C917 C916 1.390 . S
C917 C918 1.394 . S
C917 C923 1.465 . S
C918 C913 1.399 . S
C918 C917 1.394 . S
C918 C919 1.516 . S
C919 C918 1.516 . S
C919 C920 1.502 . S
C919 C921 1.561 . S
C919 C922 1.526 . S
C920 H904 0.959 . S
C920 H905 0.959 . S
C920 H906 0.961 . S
C920 C919 1.502 . S
C921 H907 0.960 . S
C921 H908 0.961 . S
C921 H909 0.959 . S
C921 C919 1.561 . S
C922 C919 1.526 . S
C922 C923 1.396 . S
C922 C927 1.390 . S
C923 C917 1.465 . S
C923 C922 1.396 . S
C923 C924 1.399 . S
C924 H910 0.929 . S
C924 C923 1.399 . S
C924 C925 1.385 . S
C925 H911 0.931 . S
C925 C924 1.385 . S
C925 C926 1.389 . S
C926 C925 1.389 . S
C926 C927 1.387 . S
C927 H912 0.930 . S
C927 C922 1.390 . S
C927 C926 1.387 . S
H928 C940 0.930 . S
H929 C942 0.930 1_545 S
H930 C943 0.950 . S
H931 C947 0.959 . S
H932 C947 0.959 . S
H933 C947 0.961 . S
H934 C948 0.960 . S
H935 C948 0.961 . S
H936 C948 0.959 . S
H937 C951 0.929 . S
H938 C952 0.931 . S
H939 C954 0.930 . S
C940 H928 0.930 . S
C940 C941 1.399 . S
C940 C945 1.399 . S
C941 C940 1.399 . S
C941 C942 1.376 . S
C942 H929 0.930 1_565 S
C942 C941 1.376 . S
C942 C943 1.388 . S
C943 H930 0.950 . S
C943 C942 1.388 . S
C943 C944 1.390 . S
C944 C943 1.390 . S
C944 C945 1.394 . S
C944 C950 1.465 . S
C945 C940 1.399 . S
C945 C944 1.394 . S
C945 C946 1.516 . S
C946 C945 1.516 . S
C946 C947 1.502 . S
C946 C948 1.561 . S
C946 C949 1.526 . S
C947 H931 0.959 . S
C947 H932 0.959 . S
C947 H933 0.961 . S
C947 C946 1.502 . S
C948 H934 0.960 . S
C948 H935 0.961 . S
C948 H936 0.959 . S
C948 C946 1.561 . S
C949 C946 1.526 . S
C949 C950 1.396 . S
C949 C954 1.390 . S
C950 C944 1.465 . S
C950 C949 1.396 . S
C950 C951 1.399 . S
C951 H937 0.929 . S
C951 C950 1.399 . S
C951 C952 1.385 . S
C952 H938 0.931 . S
C952 C951 1.385 . S
C952 C953 1.389 . S
C953 C952 1.389 . S
C953 C954 1.387 . S
C954 H939 0.930 . S
C954 C949 1.390 . S
C954 C953 1.387 . S
H955 C967 0.930 . S
H956 C969 0.930 . S
H957 C970 0.930 . S
H958 C974 0.959 . S
H959 C974 0.959 . S
H960 C974 0.961 . S
H961 C975 0.960 . S
H962 C975 0.961 . S
H963 C975 0.959 . S
H964 C978 0.929 . S
H965 C979 0.931 . S
H966 C981 0.930 . S
C967 H955 0.930 . S
C967 C968 1.399 . S
C967 C972 1.399 . S
C968 C967 1.399 . S
C968 C969 1.376 . S
C969 H956 0.930 . S
C969 C968 1.376 . S
C969 C970 1.388 . S
C970 H957 0.930 . S
C970 C969 1.388 . S
C970 C971 1.390 . S
C971 C970 1.390 . S
C971 C972 1.394 . S
C971 C977 1.465 . S
C972 C967 1.399 . S
C972 C971 1.394 . S
C972 C973 1.516 . S
C973 C972 1.516 . S
C973 C974 1.502 . S
C973 C975 1.561 . S
C973 C976 1.526 . S
C974 H958 0.959 . S
C974 H959 0.959 . S
C974 H960 0.961 . S
C974 C973 1.502 . S
C975 H961 0.960 . S
C975 H962 0.961 . S
C975 H963 0.959 . S
C975 C973 1.561 . S
C976 C973 1.526 . S
C976 C977 1.396 . S
C976 C981 1.390 . S
C977 C971 1.465 . S
C977 C976 1.396 . S
C977 C978 1.399 . S
C978 H964 0.929 . S
C978 C977 1.399 . S
C978 C979 1.385 . S
C979 H965 0.931 . S
C979 C978 1.385 . S
C979 C980 1.389 . S
C980 C979 1.389 . S
C980 C981 1.387 . S
C981 H966 0.930 . S
C981 C976 1.390 . S
C981 C980 1.387 . S
H982 C994 0.930 . S
H983 C996 0.930 . S
H984 C997 0.930 . S
H985 C1001 0.959 . S
H986 C1001 0.959 . S
H987 C1001 0.961 . S
H988 C1002 0.960 . S
H989 C1002 0.961 . S
H990 C1002 0.959 . S
H991 C1005 0.929 . S
H992 C1006 0.931 . S
H993 C1008 0.930 . S
C994 H982 0.930 . S
C994 C995 1.399 . S
C994 C999 1.399 . S
C995 C994 1.399 . S
C995 C996 1.376 . S
C996 H983 0.930 . S
C996 C995 1.376 . S
C996 C997 1.388 . S
C997 H984 0.930 . S
C997 C996 1.388 . S
C997 C998 1.390 . S
C998 C997 1.390 . S
C998 C999 1.394 . S
C998 C1004 1.465 . S
C999 C994 1.399 . S
C999 C998 1.394 . S
C999 C1000 1.516 . S
C1000 C999 1.516 . S
C1000 C1001 1.502 . S
C1000 C1002 1.561 . S
C1000 C1003 1.526 . S
C1001 H985 0.959 . S
C1001 H986 0.959 . S
C1001 H987 0.961 . S
C1001 C1000 1.502 . S
C1002 H988 0.960 . S
C1002 H989 0.961 . S
C1002 H990 0.959 . S
C1002 C1000 1.561 . S
C1003 C1000 1.526 . S
C1003 C1004 1.396 . S
C1003 C1008 1.390 . S
C1004 C998 1.465 . S
C1004 C1003 1.396 . S
C1004 C1005 1.399 . S
C1005 H991 0.929 . S
C1005 C1004 1.399 . S
C1005 C1006 1.385 . S
C1006 H992 0.931 . S
C1006 C1005 1.385 . S
C1006 C1007 1.389 . S
C1007 C1006 1.389 . S
C1007 C1008 1.387 . S
C1008 H993 0.930 . S
C1008 C1003 1.390 . S
C1008 C1007 1.387 . S
H1009 C1021 0.930 . S
H1010 C1023 0.930 . S
H1011 C1024 0.930 . S
H1012 C1028 0.959 . S
H1013 C1028 0.959 . S
H1014 C1028 0.961 . S
H1015 C1029 0.960 . S
H1016 C1029 0.961 . S
H1017 C1029 0.959 . S
H1018 C1032 0.929 . S
H1019 C1033 0.931 . S
H1020 C1035 0.930 . S
C1021 H1009 0.930 . S
C1021 C1022 1.399 . S
C1021 C1026 1.399 . S
C1022 C1021 1.399 . S
C1022 C1023 1.376 . S
C1023 H1010 0.930 . S
C1023 C1022 1.376 . S
C1023 C1024 1.388 . S
C1024 H1011 0.930 . S
C1024 C1023 1.388 . S
C1024 C1025 1.390 . S
C1025 C1024 1.390 . S
C1025 C1026 1.394 . S
C1025 C1031 1.465 . S
C1026 C1021 1.399 . S
C1026 C1025 1.394 . S
C1026 C1027 1.516 . S
C1027 C1026 1.516 . S
C1027 C1028 1.502 . S
C1027 C1029 1.561 . S
C1027 C1030 1.526 . S
C1028 H1012 0.959 . S
C1028 H1013 0.959 . S
C1028 H1014 0.961 . S
C1028 C1027 1.502 . S
C1029 H1015 0.960 . S
C1029 H1016 0.961 . S
C1029 H1017 0.959 . S
C1029 C1027 1.561 . S
C1030 C1027 1.526 . S
C1030 C1031 1.396 . S
C1030 C1035 1.390 . S
C1031 C1025 1.465 . S
C1031 C1030 1.396 . S
C1031 C1032 1.399 . S
C1032 H1018 0.929 . S
C1032 C1031 1.399 . S
C1032 C1033 1.385 . S
C1033 H1019 0.931 . S
C1033 C1032 1.385 . S
C1033 C1034 1.389 . S
C1034 C1033 1.389 . S
C1034 C1035 1.387 . S
C1035 H1020 0.930 . S
C1035 C1030 1.390 . S
C1035 C1034 1.387 . S
H1036 C1048 0.930 . S
H1037 C1050 0.930 . S
H1038 C1051 0.930 . S
H1039 C1055 0.959 . S
H1040 C1055 0.959 . S
H1041 C1055 0.961 . S
H1042 C1056 0.960 . S
H1043 C1056 0.961 . S
H1044 C1056 0.959 . S
H1045 C1059 0.929 . S
H1046 C1060 0.931 . S
H1047 C1062 0.930 . S
C1048 H1036 0.930 . S
C1048 C1049 1.399 . S
C1048 C1053 1.399 . S
C1049 C1048 1.399 . S
C1049 C1050 1.376 . S
C1050 H1037 0.930 . S
C1050 C1049 1.376 . S
C1050 C1051 1.388 . S
C1051 H1038 0.930 . S
C1051 C1050 1.388 . S
C1051 C1052 1.390 . S
C1052 C1051 1.390 . S
C1052 C1053 1.394 . S
C1052 C1058 1.465 . S
C1053 C1048 1.399 . S
C1053 C1052 1.394 . S
C1053 C1054 1.516 . S
C1054 C1053 1.516 . S
C1054 C1055 1.502 . S
C1054 C1056 1.561 . S
C1054 C1057 1.526 . S
C1055 H1039 0.959 . S
C1055 H1040 0.959 . S
C1055 H1041 0.961 . S
C1055 C1054 1.502 . S
C1056 H1042 0.960 . S
C1056 H1043 0.961 . S
C1056 H1044 0.959 . S
C1056 C1054 1.561 . S
C1057 C1054 1.526 . S
C1057 C1058 1.396 . S
C1057 C1062 1.390 . S
C1058 C1052 1.465 . S
C1058 C1057 1.396 . S
C1058 C1059 1.399 . S
C1059 H1045 0.929 . S
C1059 C1058 1.399 . S
C1059 C1060 1.385 . S
C1060 H1046 0.931 . S
C1060 C1059 1.385 . S
C1060 C1061 1.389 . S
C1061 C1060 1.389 . S
C1061 C1062 1.387 . S
C1062 H1047 0.930 . S
C1062 C1057 1.390 . S
C1062 C1061 1.387 . S
H1063 C1075 0.930 . S
H1064 C1077 0.930 . S
H1065 C1078 0.930 . S
H1066 C1082 0.959 . S
H1067 C1082 0.959 . S
H1068 C1082 0.961 . S
H1069 C1083 0.960 . S
H1070 C1083 0.961 . S
H1071 C1083 0.959 . S
H1072 C1086 0.929 . S
H1073 C1087 0.931 . S
H1074 C1089 0.930 . S
C1075 H1063 0.930 . S
C1075 C1076 1.399 . S
C1075 C1080 1.399 . S
C1076 C1075 1.399 . S
C1076 C1077 1.376 . S
C1077 H1064 0.930 . S
C1077 C1076 1.376 . S
C1077 C1078 1.388 . S
C1078 H1065 0.930 . S
C1078 C1077 1.388 . S
C1078 C1079 1.390 . S
C1079 C1078 1.390 . S
C1079 C1080 1.394 . S
C1079 C1085 1.465 . S
C1080 C1075 1.399 . S
C1080 C1079 1.394 . S
C1080 C1081 1.516 . S
C1081 C1080 1.516 . S
C1081 C1082 1.502 . S
C1081 C1083 1.561 . S
C1081 C1084 1.526 . S
C1082 H1066 0.959 . S
C1082 H1067 0.959 . S
C1082 H1068 0.961 . S
C1082 C1081 1.502 . S
C1083 H1069 0.960 . S
C1083 H1070 0.961 . S
C1083 H1071 0.959 . S
C1083 C1081 1.561 . S
C1084 C1081 1.526 . S
C1084 C1085 1.396 . S
C1084 C1089 1.390 . S
C1085 C1079 1.465 . S
C1085 C1084 1.396 . S
C1085 C1086 1.399 . S
C1086 H1072 0.929 . S
C1086 C1085 1.399 . S
C1086 C1087 1.385 . S
C1087 H1073 0.931 . S
C1087 C1086 1.385 . S
C1087 C1088 1.389 . S
C1088 C1087 1.389 . S
C1088 C1089 1.387 . S
C1089 H1074 0.930 . S
C1089 C1084 1.390 . S
C1089 C1088 1.387 . S
H1090 C1102 0.930 . S
H1091 C1104 0.930 . S
H1092 C1105 0.930 . S
H1093 C1109 0.959 . S
H1094 C1109 0.959 . S
H1095 C1109 0.961 . S
H1096 C1110 0.960 . S
H1097 C1110 0.961 . S
H1098 C1110 0.959 . S
H1099 C1113 0.929 . S
H1100 C1114 0.931 . S
H1101 C1116 0.930 . S
C1102 H1090 0.930 . S
C1102 C1103 1.399 . S
C1102 C1107 1.399 . S
C1103 C1102 1.399 . S
C1103 C1104 1.376 . S
C1104 H1091 0.930 . S
C1104 C1103 1.376 . S
C1104 C1105 1.388 . S
C1105 H1092 0.930 . S
C1105 C1104 1.388 . S
C1105 C1106 1.390 . S
C1106 C1105 1.390 . S
C1106 C1107 1.394 . S
C1106 C1112 1.465 . S
C1107 C1102 1.399 . S
C1107 C1106 1.394 . S
C1107 C1108 1.516 . S
C1108 C1107 1.516 . S
C1108 C1109 1.502 . S
C1108 C1110 1.561 . S
C1108 C1111 1.526 . S
C1109 H1093 0.959 . S
C1109 H1094 0.959 . S
C1109 H1095 0.961 . S
C1109 C1108 1.502 . S
C1110 H1096 0.960 . S
C1110 H1097 0.961 . S
C1110 H1098 0.959 . S
C1110 C1108 1.561 . S
C1111 C1108 1.526 . S
C1111 C1112 1.396 . S
C1111 C1116 1.390 . S
C1112 C1106 1.465 . S
C1112 C1111 1.396 . S
C1112 C1113 1.399 . S
C1113 H1099 0.929 . S
C1113 C1112 1.399 . S
C1113 C1114 1.385 . S
C1114 H1100 0.931 . S
C1114 C1113 1.385 . S
C1114 C1115 1.389 . S
C1115 C1114 1.389 . S
C1115 C1116 1.387 . S
C1116 H1101 0.930 . S
C1116 C1111 1.390 . S
C1116 C1115 1.387 . S
H1117 C1129 0.930 . S
H1118 C1131 0.930 . S
H1119 C1132 0.930 . S
H1120 C1136 0.959 . S
H1121 C1136 0.959 . S
H1122 C1136 0.961 . S
H1123 C1137 0.960 . S
H1124 C1137 0.961 . S
H1125 C1137 0.959 . S
H1126 C1140 0.929 . S
H1127 C1141 0.931 . S
H1128 C1143 0.930 1_545 S
C1129 H1117 0.930 . S
C1129 C1130 1.399 . S
C1129 C1134 1.399 . S
C1130 C1129 1.399 . S
C1130 C1131 1.376 . S
C1131 H1118 0.930 . S
C1131 C1130 1.376 . S
C1131 C1132 1.388 1_545 S
C1132 H1119 0.930 . S
C1132 C1131 1.388 1_565 S
C1132 C1133 1.390 1_565 S
C1133 C1132 1.390 1_545 S
C1133 C1134 1.394 . S
C1133 C1139 1.465 1_545 S
C1134 C1129 1.399 . S
C1134 C1133 1.394 . S
C1134 C1135 1.516 . S
C1135 C1134 1.516 . S
C1135 C1136 1.502 . S
C1135 C1137 1.561 . S
C1135 C1138 1.526 . S
C1136 H1120 0.959 . S
C1136 H1121 0.959 . S
C1136 H1122 0.961 . S
C1136 C1135 1.502 . S
C1137 H1123 0.960 . S
C1137 H1124 0.961 . S
C1137 H1125 0.959 . S
C1137 C1135 1.561 . S
C1138 C1135 1.526 . S
C1138 C1139 1.396 1_545 S
C1138 C1143 1.390 1_545 S
C1139 C1133 1.465 1_565 S
C1139 C1138 1.396 1_565 S
C1139 C1140 1.399 . S
C1140 H1126 0.929 . S
C1140 C1139 1.399 . S
C1140 C1141 1.385 . S
C1141 H1127 0.931 . S
C1141 C1140 1.385 . S
C1141 C1142 1.389 . S
C1142 C1141 1.389 . S
C1142 C1143 1.387 . S
C1143 H1128 0.930 1_565 S
C1143 C1138 1.390 1_565 S
C1143 C1142 1.387 . S
H1144 C1156 0.930 . S
H1145 C1158 0.930 . S
H1146 C1159 0.930 . S
H1147 C1163 0.959 . S
H1148 C1163 0.959 . S
H1149 C1163 0.961 . S
H1150 C1164 0.960 . S
H1151 C1164 0.961 . S
H1152 C1164 0.959 . S
H1153 C1167 0.929 . S
H1154 C1168 0.931 . S
H1155 C1170 0.930 . S
C1156 H1144 0.930 . S
C1156 C1157 1.399 . S
C1156 C1161 1.399 . S
C1157 C1156 1.399 . S
C1157 C1158 1.376 . S
C1158 H1145 0.930 . S
C1158 C1157 1.376 . S
C1158 C1159 1.388 . S
C1159 H1146 0.930 . S
C1159 C1158 1.388 . S
C1159 C1160 1.390 . S
C1160 C1159 1.390 . S
C1160 C1161 1.394 . S
C1160 C1166 1.465 . S
C1161 C1156 1.399 . S
C1161 C1160 1.394 . S
C1161 C1162 1.516 . S
C1162 C1161 1.516 . S
C1162 C1163 1.502 . S
C1162 C1164 1.561 . S
C1162 C1165 1.526 . S
C1163 H1147 0.959 . S
C1163 H1148 0.959 . S
C1163 H1149 0.961 . S
C1163 C1162 1.502 . S
C1164 H1150 0.960 . S
C1164 H1151 0.961 . S
C1164 H1152 0.959 . S
C1164 C1162 1.561 . S
C1165 C1162 1.526 . S
C1165 C1166 1.396 . S
C1165 C1170 1.390 . S
C1166 C1160 1.465 . S
C1166 C1165 1.396 . S
C1166 C1167 1.399 . S
C1167 H1153 0.929 . S
C1167 C1166 1.399 . S
C1167 C1168 1.385 . S
C1168 H1154 0.931 . S
C1168 C1167 1.385 . S
C1168 C1169 1.389 . S
C1169 C1168 1.389 . S
C1169 C1170 1.387 . S
C1170 H1155 0.930 . S
C1170 C1165 1.390 . S
C1170 C1169 1.387 . S
H1171 C1183 0.930 . S
H1172 C1185 0.930 . S
H1173 C1186 0.930 . S
H1174 C1190 0.959 . S
H1175 C1190 0.959 . S
H1176 C1190 0.961 . S
H1177 C1191 0.960 . S
H1178 C1191 0.961 . S
H1179 C1191 0.959 . S
H1180 C1194 0.929 . S
H1181 C1195 0.931 . S
H1182 C1197 0.930 . S
C1183 H1171 0.930 . S
C1183 C1184 1.399 . S
C1183 C1188 1.399 . S
C1184 C1183 1.399 . S
C1184 C1185 1.376 . S
C1185 H1172 0.930 . S
C1185 C1184 1.376 . S
C1185 C1186 1.388 . S
C1186 H1173 0.930 . S
C1186 C1185 1.388 . S
C1186 C1187 1.390 . S
C1187 C1186 1.390 . S
C1187 C1188 1.394 . S
C1187 C1193 1.465 . S
C1188 C1183 1.399 . S
C1188 C1187 1.394 . S
C1188 C1189 1.516 . S
C1189 C1188 1.516 . S
C1189 C1190 1.502 . S
C1189 C1191 1.561 . S
C1189 C1192 1.526 . S
C1190 H1174 0.959 . S
C1190 H1175 0.959 . S
C1190 H1176 0.961 . S
C1190 C1189 1.502 . S
C1191 H1177 0.960 . S
C1191 H1178 0.961 . S
C1191 H1179 0.959 . S
C1191 C1189 1.561 . S
C1192 C1189 1.526 . S
C1192 C1193 1.396 . S
C1192 C1197 1.390 . S
C1193 C1187 1.465 . S
C1193 C1192 1.396 . S
C1193 C1194 1.399 . S
C1194 H1180 0.929 . S
C1194 C1193 1.399 . S
C1194 C1195 1.385 . S
C1195 H1181 0.931 . S
C1195 C1194 1.385 . S
C1195 C1196 1.389 . S
C1196 C1195 1.389 . S
C1196 C1197 1.387 . S
C1197 H1182 0.930 . S
C1197 C1192 1.390 . S
C1197 C1196 1.387 . S
H1198 C1210 0.930 . S
H1199 C1212 0.930 . S
H1200 C1213 0.930 . S
H1201 C1217 0.959 . S
H1202 C1217 0.959 . S
H1203 C1217 0.961 . S
H1204 C1218 0.958 1_455 S
H1205 C1218 0.961 . S
H1206 C1218 0.959 1_455 S
H1207 C1221 0.929 . S
H1208 C1222 0.931 . S
H1209 C1224 0.930 . S
C1210 H1198 0.930 . S
C1210 C1211 1.399 1_655 S
C1210 C1215 1.399 . S
C1211 C1210 1.399 1_455 S
C1211 C1212 1.376 . S
C1212 H1199 0.930 . S
C1212 C1211 1.376 . S
C1212 C1213 1.388 . S
C1213 H1200 0.930 . S
C1213 C1212 1.388 . S
C1213 C1214 1.390 1_455 S
C1214 C1213 1.390 1_655 S
C1214 C1215 1.394 . S
C1214 C1220 1.465 . S
C1215 C1210 1.399 . S
C1215 C1214 1.394 . S
C1215 C1216 1.516 . S
C1216 C1215 1.516 . S
C1216 C1217 1.502 . S
C1216 C1218 1.561 . S
C1216 C1219 1.526 . S
C1217 H1201 0.959 . S
C1217 H1202 0.959 . S
C1217 H1203 0.961 . S
C1217 C1216 1.502 . S
C1218 H1204 0.958 1_655 S
C1218 H1205 0.961 . S
C1218 H1206 0.959 1_655 S
C1218 C1216 1.561 . S
C1219 C1216 1.526 . S
C1219 C1220 1.396 . S
C1219 C1224 1.390 . S
C1220 C1214 1.465 . S
C1220 C1219 1.396 . S
C1220 C1221 1.399 . S
C1221 H1207 0.929 . S
C1221 C1220 1.399 . S
C1221 C1222 1.385 . S
C1222 H1208 0.931 . S
C1222 C1221 1.385 . S
C1222 C1223 1.389 . S
C1223 C1222 1.389 . S
C1223 C1224 1.387 . S
C1224 H1209 0.930 . S
C1224 C1219 1.390 . S
C1224 C1223 1.387 . S
H1225 C1237 0.930 . S
H1226 C1239 0.930 . S
H1227 C1240 0.930 . S
H1228 C1244 0.959 . S
H1229 C1244 0.959 . S
H1230 C1244 0.961 . S
H1231 C1245 0.960 . S
H1232 C1245 0.961 . S
H1233 C1245 0.959 . S
H1234 C1248 0.929 . S
H1235 C1249 0.931 . S
H1236 C1251 0.930 . S
C1237 H1225 0.930 . S
C1237 C1238 1.399 . S
C1237 C1242 1.399 . S
C1238 C1237 1.399 . S
C1238 C1239 1.376 . S
C1239 H1226 0.930 . S
C1239 C1238 1.376 . S
C1239 C1240 1.388 . S
C1240 H1227 0.930 . S
C1240 C1239 1.388 . S
C1240 C1241 1.390 . S
C1241 C1240 1.390 . S
C1241 C1242 1.394 . S
C1241 C1247 1.465 . S
C1242 C1237 1.399 . S
C1242 C1241 1.394 . S
C1242 C1243 1.516 . S
C1243 C1242 1.516 . S
C1243 C1244 1.502 . S
C1243 C1245 1.561 . S
C1243 C1246 1.526 . S
C1244 H1228 0.959 . S
C1244 H1229 0.959 . S
C1244 H1230 0.961 . S
C1244 C1243 1.502 . S
C1245 H1231 0.960 . S
C1245 H1232 0.961 . S
C1245 H1233 0.959 . S
C1245 C1243 1.561 . S
C1246 C1243 1.526 . S
C1246 C1247 1.396 . S
C1246 C1251 1.390 . S
C1247 C1241 1.465 . S
C1247 C1246 1.396 . S
C1247 C1248 1.399 . S
C1248 H1234 0.929 . S
C1248 C1247 1.399 . S
C1248 C1249 1.385 . S
C1249 H1235 0.931 . S
C1249 C1248 1.385 . S
C1249 C1250 1.389 . S
C1250 C1249 1.389 . S
C1250 C1251 1.387 . S
C1251 H1236 0.930 . S
C1251 C1246 1.390 . S
C1251 C1250 1.387 . S
H1252 C1264 0.930 . S
H1253 C1266 0.930 . S
H1254 C1267 0.930 . S
H1255 C1271 0.959 . S
H1256 C1271 0.959 . S
H1257 C1271 0.961 . S
H1258 C1272 0.960 . S
H1259 C1272 0.961 . S
H1260 C1272 0.959 . S
H1261 C1275 0.929 . S
H1262 C1276 0.931 . S
H1263 C1278 0.930 . S
C1264 H1252 0.930 . S
C1264 C1265 1.399 . S
C1264 C1269 1.399 . S
C1265 C1264 1.399 . S
C1265 C1266 1.376 . S
C1266 H1253 0.930 . S
C1266 C1265 1.376 . S
C1266 C1267 1.388 . S
C1267 H1254 0.930 . S
C1267 C1266 1.388 . S
C1267 C1268 1.390 . S
C1268 C1267 1.390 . S
C1268 C1269 1.394 . S
C1268 C1274 1.465 . S
C1269 C1264 1.399 . S
C1269 C1268 1.394 . S
C1269 C1270 1.516 . S
C1270 C1269 1.516 . S
C1270 C1271 1.502 . S
C1270 C1272 1.561 . S
C1270 C1273 1.526 . S
C1271 H1255 0.959 . S
C1271 H1256 0.959 . S
C1271 H1257 0.961 . S
C1271 C1270 1.502 . S
C1272 H1258 0.960 . S
C1272 H1259 0.961 . S
C1272 H1260 0.959 . S
C1272 C1270 1.561 . S
C1273 C1270 1.526 . S
C1273 C1274 1.396 . S
C1273 C1278 1.390 . S
C1274 C1268 1.465 . S
C1274 C1273 1.396 . S
C1274 C1275 1.399 . S
C1275 H1261 0.929 . S
C1275 C1274 1.399 . S
C1275 C1276 1.385 . S
C1276 H1262 0.931 . S
C1276 C1275 1.385 . S
C1276 C1277 1.389 . S
C1277 C1276 1.389 . S
C1277 C1278 1.387 . S
C1278 H1263 0.930 . S
C1278 C1273 1.390 . S
C1278 C1277 1.387 . S
H1279 C1291 0.930 . S
H1280 C1293 0.930 . S
H1281 C1294 0.930 . S
H1282 C1298 0.959 . S
H1283 C1298 0.959 . S
H1284 C1298 0.961 . S
H1285 C1299 0.960 1_455 S
H1286 C1299 0.961 . S
H1287 C1299 0.959 1_455 S
H1288 C1302 0.929 . S
H1289 C1303 0.931 . S
H1290 C1305 0.930 . S
C1291 H1279 0.930 . S
C1291 C1292 1.399 . S
C1291 C1296 1.399 1_455 S
C1292 C1291 1.399 . S
C1292 C1293 1.376 . S
C1293 H1280 0.930 . S
C1293 C1292 1.376 . S
C1293 C1294 1.388 . S
C1294 H1281 0.930 . S
C1294 C1293 1.388 . S
C1294 C1295 1.390 1_455 S
C1295 C1294 1.390 1_655 S
C1295 C1296 1.394 . S
C1295 C1301 1.465 . S
C1296 C1291 1.399 1_655 S
C1296 C1295 1.394 . S
C1296 C1297 1.516 . S
C1297 C1296 1.516 . S
C1297 C1298 1.502 . S
C1297 C1299 1.561 . S
C1297 C1300 1.526 . S
C1298 H1282 0.959 . S
C1298 H1283 0.959 . S
C1298 H1284 0.961 . S
C1298 C1297 1.502 . S
C1299 H1285 0.960 1_655 S
C1299 H1286 0.961 . S
C1299 H1287 0.959 1_655 S
C1299 C1297 1.561 . S
C1300 C1297 1.526 . S
C1300 C1301 1.396 . S
C1300 C1305 1.390 . S
C1301 C1295 1.465 . S
C1301 C1300 1.396 . S
C1301 C1302 1.399 . S
C1302 H1288 0.929 . S
C1302 C1301 1.399 . S
C1302 C1303 1.385 . S
C1303 H1289 0.931 . S
C1303 C1302 1.385 . S
C1303 C1304 1.389 . S
C1304 C1303 1.389 . S
C1304 C1305 1.387 . S
C1305 H1290 0.930 . S
C1305 C1300 1.390 . S
C1305 C1304 1.387 . S
H1306 C1318 0.930 . S
H1307 C1320 0.930 . S
H1308 C1321 0.930 . S
H1309 C1325 0.959 . S
H1310 C1325 0.959 . S
H1311 C1325 0.961 . S
H1312 C1326 0.960 . S
H1313 C1326 0.961 . S
H1314 C1326 0.959 . S
H1315 C1329 0.929 . S
H1316 C1330 0.931 . S
H1317 C1332 0.930 . S
C1318 H1306 0.930 . S
C1318 C1319 1.399 . S
C1318 C1323 1.399 . S
C1319 C1318 1.399 . S
C1319 C1320 1.376 . S
C1320 H1307 0.930 . S
C1320 C1319 1.376 . S
C1320 C1321 1.388 . S
C1321 H1308 0.930 . S
C1321 C1320 1.388 . S
C1321 C1322 1.390 . S
C1322 C1321 1.390 . S
C1322 C1323 1.394 . S
C1322 C1328 1.465 . S
C1323 C1318 1.399 . S
C1323 C1322 1.394 . S
C1323 C1324 1.516 . S
C1324 C1323 1.516 . S
C1324 C1325 1.502 . S
C1324 C1326 1.561 . S
C1324 C1327 1.526 . S
C1325 H1309 0.959 . S
C1325 H1310 0.959 . S
C1325 H1311 0.961 . S
C1325 C1324 1.502 . S
C1326 H1312 0.960 . S
C1326 H1313 0.961 . S
C1326 H1314 0.959 . S
C1326 C1324 1.561 . S
C1327 C1324 1.526 . S
C1327 C1328 1.396 . S
C1327 C1332 1.390 . S
C1328 C1322 1.465 . S
C1328 C1327 1.396 . S
C1328 C1329 1.399 . S
C1329 H1315 0.929 . S
C1329 C1328 1.399 . S
C1329 C1330 1.385 . S
C1330 H1316 0.931 . S
C1330 C1329 1.385 . S
C1330 C1331 1.389 . S
C1331 C1330 1.389 . S
C1331 C1332 1.387 . S
C1332 H1317 0.930 . S
C1332 C1327 1.390 . S
C1332 C1331 1.387 . S
H1333 C1345 0.930 . S
H1334 C1347 0.930 . S
H1335 C1348 0.930 . S
H1336 C1352 0.959 . S
H1337 C1352 0.959 . S
H1338 C1352 0.961 . S
H1339 C1353 0.960 . S
H1340 C1353 0.961 . S
H1341 C1353 0.959 . S
H1342 C1356 0.929 . S
H1343 C1357 0.931 . S
H1344 C1359 0.930 . S
C1345 H1333 0.930 . S
C1345 C1346 1.399 . S
C1345 C1350 1.399 . S
C1346 C1345 1.399 . S
C1346 C1347 1.376 . S
C1347 H1334 0.930 . S
C1347 C1346 1.376 . S
C1347 C1348 1.388 . S
C1348 H1335 0.930 . S
C1348 C1347 1.388 . S
C1348 C1349 1.390 . S
C1349 C1348 1.390 . S
C1349 C1350 1.394 . S
C1349 C1355 1.465 . S
C1350 C1345 1.399 . S
C1350 C1349 1.394 . S
C1350 C1351 1.516 . S
C1351 C1350 1.516 . S
C1351 C1352 1.502 . S
C1351 C1353 1.561 . S
C1351 C1354 1.526 . S
C1352 H1336 0.959 . S
C1352 H1337 0.959 . S
C1352 H1338 0.961 . S
C1352 C1351 1.502 . S
C1353 H1339 0.960 . S
C1353 H1340 0.961 . S
C1353 H1341 0.959 . S
C1353 C1351 1.561 . S
C1354 C1351 1.526 . S
C1354 C1355 1.396 . S
C1354 C1359 1.390 . S
C1355 C1349 1.465 . S
C1355 C1354 1.396 . S
C1355 C1356 1.399 . S
C1356 H1342 0.929 . S
C1356 C1355 1.399 . S
C1356 C1357 1.385 . S
C1357 H1343 0.931 . S
C1357 C1356 1.385 . S
C1357 C1358 1.389 . S
C1358 C1357 1.389 . S
C1358 C1359 1.387 . S
C1359 H1344 0.930 . S
C1359 C1354 1.390 . S
C1359 C1358 1.387 . S
C521 C404 1.364 . S
C509 C36 1.369 . S
C548 C421 1.388 . S
C536 C93 1.429 . S
C575 C435 1.518 . S
C563 C126 1.570 . S
C590 C165 1.350 . S
C602 C393 1.352 . S
C617 C222 1.321 1_554 S
C629 C390 1.370 . S
C644 C261 1.126 . S
C656 C407 1.122 . S
C683 C418 1.564 . S
C671 C318 1.488 . S
C710 C432 1.419 . S
C698 C381 1.433 . S
C725 C132 1.398 . S
C737 C460 1.402 . S
C764 C474 1.555 . S
C752 C189 1.569 . S
C779 C30 1.144 1_655 S
C791 C491 1.116 . S
C818 C446 1.367 . S
C806 C69 1.333 . S
C833 C324 1.345 . S
C845 C449 1.345 . S
C860 C357 1.544 1_655 S
C872 C463 1.538 . S
C899 C477 1.367 . S
C887 C228 1.375 . S
C914 C285 1.360 . S
C926 C488 1.353 . S
C953 C420 1.958 . S
C941 C45 1.967 . S
C980 C434 2.084 . S
C968 C84 2.048 . S
C995 C117 1.954 . S
C1007 C392 2.025 1_556 S
C1022 C174 1.811 . S
C1034 C405 1.801 . S
C1049 C213 1.701 . S
C1061 C433 1.518 . S
C1088 C391 1.514 . S
C1076 C270 1.676 . S
C1115 C406 1.906 . S
C1103 C309 1.892 . S
C1142 C419 1.684 . S
C1130 C372 1.799 . S
C1169 C475 1.712 . S
C1157 C141 1.790 . S
C1196 C490 1.885 . S
C1184 C180 1.878 . S
C1211 C21 1.651 . S
C1223 C447 1.588 . S
C1250 C461 1.597 . S
C1238 C78 1.700 . S
C1277 C489 1.746 . S
C1265 C333 1.897 . S
C1292 C366 1.922 . S
C1304 C448 2.013 . S
C1331 C462 2.048 . S
C1319 C237 2.077 . S
C1358 C476 1.960 . S
C1346 C276 1.996 . S
