# Generated by pormake.
# Topology ssa, (4,4)-cn, num edge types: 1
# Building blocks:
#     Node 0, Type 0, BuildingBlock: ESEHIV_clean_sbu_0, # of connection points: 4
#     Node 1, Type 0, BuildingBlock: ESEHIV_clean_sbu_0, # of connection points: 4
#     Node 2, Type 0, BuildingBlock: ESEHIV_clean_sbu_0, # of connection points: 4
#     Node 3, Type 0, BuildingBlock: ESEHIV_clean_sbu_0, # of connection points: 4
#     Node 4, Type 0, BuildingBlock: ESEHIV_clean_sbu_0, # of connection points: 4
#     Node 5, Type 0, BuildingBlock: ESEHIV_clean_sbu_0, # of connection points: 4
#     Node 6, Type 1, BuildingBlock: MIFKUJ_clean_linker_1, # of connection points: 4
#     Node 7, Type 1, BuildingBlock: MIFKUJ_clean_linker_1, # of connection points: 4
#     Node 8, Type 1, BuildingBlock: MIFKUJ_clean_linker_1, # of connection points: 4
#     Node 9, Type 1, BuildingBlock: MIFKUJ_clean_linker_1, # of connection points: 4
#     Node 10, Type 1, BuildingBlock: MIFKUJ_clean_linker_1, # of connection points: 4
#     Node 11, Type 1, BuildingBlock: MIFKUJ_clean_linker_1, # of connection points: 4
#     Edge 12, Type (0, 1), None
#     Edge 13, Type (0, 1), None
#     Edge 14, Type (0, 1), None
#     Edge 15, Type (0, 1), None
#     Edge 16, Type (0, 1), None
#     Edge 17, Type (0, 1), None
#     Edge 18, Type (0, 1), None
#     Edge 19, Type (0, 1), None
#     Edge 20, Type (0, 1), None
#     Edge 21, Type (0, 1), None
#     Edge 22, Type (0, 1), None
#     Edge 23, Type (0, 1), None
#     Edge 24, Type (0, 1), None
#     Edge 25, Type (0, 1), None
#     Edge 26, Type (0, 1), None
#     Edge 27, Type (0, 1), None
#     Edge 28, Type (0, 1), None
#     Edge 29, Type (0, 1), None
#     Edge 30, Type (0, 1), None
#     Edge 31, Type (0, 1), None
#     Edge 32, Type (0, 1), None
#     Edge 33, Type (0, 1), None
#     Edge 34, Type (0, 1), None
#     Edge 35, Type (0, 1), None
# Relax obj value: 0.012
# Max RMSD: 0.110
# Mean RMSD: 0.057
data_MOF--net-ssa--node1-ESEHIV_clean_sbu_0--node2-MIFKUJ_clean_linker_1--edge1-none
_symmetry_space_group_name_H-M    P1
_symmetry_Int_Tables_number       1
_symmetry_cell_setting            triclinic
loop_
_symmetry_equiv_pos_as_xyz
'x, y, z'
_cell_length_a     32.708715
_cell_length_b     36.525038
_cell_length_c     21.479926
_cell_angle_alpha  87.712348
_cell_angle_beta   91.576614
_cell_angle_gamma 124.27747
loop_
_atom_site_label
_atom_site_type_symbol
_atom_site_fract_x
_atom_site_fract_y
_atom_site_fract_z
_atom_type_partial_charge
Cu0 Cu 1.00298 0.48238 0.99939 0.0
N1 N 0.99513 0.45587 0.92321 0.0
N2 N 0.95152 0.41173 0.84401 0.0
C3 C 0.95076 0.42164 0.90365 0.0
C4 C 0.99873 0.44079 0.82533 0.0
C5 C 0.02551 0.46832 0.8742 0.0
O6 O 0.93979 0.47719 1.00473 0.0
C7 C 0.0482 0.44166 0.05612 0.0
O8 O 0.05291 0.43472 0.99805 0.0
H9 H 0.91813 0.40499 0.9326 0.0
H10 H 0.06373 0.49637 0.87326 0.0
N11 N 0.05427 0.54214 0.99884 0.0
N12 N 0.10696 0.60755 0.04186 0.0
C13 C 0.07728 0.56333 0.05144 0.0
C14 C 0.07033 0.57388 0.95379 0.0
C15 C 0.10292 0.61446 0.98035 0.0
C16 C 0.93665 0.51053 1.00524 0.0
O17 O 0.9753 0.54894 0.02254 0.0
H18 H 0.06949 0.54677 0.09677 0.0
H19 H 0.05719 0.56816 0.90608 0.0
O20 O 0.02256 0.4571 0.06762 0.0
H21 H 1.01245 0.44319 0.77902 0.0
H22 H 0.12094 0.64656 0.95667 0.0
Cu23 Cu 0.49506 1.00707 0.53999 0.0
N24 N 0.54217 1.00663 0.49266 0.0
N25 N 0.57478 0.9755 0.44362 0.0
C26 C 0.53716 0.96863 0.47869 0.0
C27 C 0.60485 0.0201 0.43554 0.0
C28 C 0.5847 0.03914 0.46577 0.0
O29 O 0.43174 0.96286 0.50185 0.0
C30 C 0.5293 1.00772 0.66536 0.0
O31 O 0.52428 0.98867 0.72037 0.0
H32 H 0.50625 0.93653 0.4948 0.0
H33 H 0.6003 0.07415 0.46822 0.0
N34 N 0.50416 0.06269 0.54707 0.0
N35 N 0.51033 0.11978 0.59407 0.0
C36 C 0.49055 0.07561 0.59612 0.0
C37 C 0.53168 0.09951 0.51119 0.0
C38 C 0.53556 0.13452 0.5398 0.0
C39 C 0.42189 0.96702 0.44523 0.0
O40 O 0.45197 1.00459 0.41464 0.0
H41 H 0.46963 0.05345 0.63486 0.0
H42 H 0.54933 0.10125 0.46835 0.0
O43 O 0.49762 0.98549 0.62289 0.0
H44 H 0.63887 0.03802 0.4093 0.0
H45 H 0.55662 0.16847 0.52226 0.0
Cu46 Cu 0.54472 0.53406 0.05617 0.0
N47 N 0.54074 0.48085 0.06446 0.0
N48 N 0.53019 0.41888 0.03002 0.0
C49 C 0.53854 0.45866 1.01444 0.0
C50 C 0.52693 0.41579 0.09285 0.0
C51 C 0.53355 0.45418 0.11404 0.0
O52 O 0.57787 0.55826 0.97664 0.0
C53 C 0.43919 0.4829 0.06202 0.0
O54 O 0.44 0.44822 0.051 0.0
H55 H 0.54007 0.47042 0.96708 0.0
H56 H 0.53149 0.46138 0.16177 0.0
N57 N 0.57805 0.57363 0.12152 0.0
N58 N 0.59742 0.62828 0.18654 0.0
C59 C 0.57373 0.60734 0.13339 0.0
C60 C 0.6054 0.57285 0.16869 0.0
C61 C 0.61751 0.60644 0.20859 0.0
C62 C 0.62493 0.58195 0.97575 0.0
O63 O 0.64903 0.60025 0.02757 0.0
H64 H 0.55246 0.61539 0.10375 0.0
H65 H 0.6148 0.54887 0.17455 0.0
O66 O 0.47889 0.52156 0.05798 0.0
H67 H 0.51965 0.38765 0.12139 0.0
H68 H 0.63854 0.61322 0.25131 0.0
Cu69 Cu 0.99825 0.50149 0.49911 0.0
N70 N 0.04363 0.48615 0.50058 0.0
N71 N 0.09347 0.47027 0.4603 0.0
C72 C 0.05513 0.47371 0.44962 0.0
C73 C 0.10675 0.48084 0.52029 0.0
C74 C 0.0754 0.4902 0.54544 0.0
O75 O 0.02537 0.55065 0.43492 0.0
C76 C 0.9256 0.41327 0.52623 0.0
O77 O 0.96294 0.41921 0.55968 0.0
H78 H 0.03815 0.47054 0.40439 0.0
H79 H 0.07722 0.50114 0.59203 0.0
N80 N 0.99411 0.52142 0.57581 0.0
N81 N 0.95538 0.52607 0.65607 0.0
C82 C 0.95069 0.51064 0.59857 0.0
C83 C 0.0279 0.54484 0.62044 0.0
C84 C 1.00405 0.54792 0.67004 0.0
C85 C 0.0706 0.58194 0.44584 0.0
O86 O 0.09036 0.57938 0.49846 0.0
H87 H 0.91626 0.49207 0.5728 0.0
H88 H 0.06692 0.55842 0.61768 0.0
O89 O 0.93214 0.44534 0.49095 0.0
H90 H 0.13822 0.48357 0.5432 0.0
H91 H 0.02111 0.56442 0.7132 0.0
Cu92 Cu 0.54382 0.01678 0.02677 0.0
N93 N 0.55001 0.06789 0.04924 0.0
N94 N 0.54931 0.12552 1.01324 0.0
C95 C 0.52586 0.08126 1.01435 0.0
C96 C 0.58915 0.14073 0.05082 0.0
C97 C 0.58951 0.10493 0.07309 0.0
O98 O 0.55834 0.03002 0.93778 0.0
C99 C 0.47008 0.96099 0.11135 0.0
O100 O 0.50601 0.98898 0.1486 0.0
H101 H 0.49637 0.05967 0.9824 0.0
H102 H 0.61947 0.10658 0.09838 0.0
N103 N 0.59018 0.00977 0.06705 0.0
N104 N 0.61753 0.97503 0.12316 0.0
C105 C 0.57872 0.97115 0.09304 0.0
C106 C 0.63854 0.03921 0.07961 0.0
C107 C 0.65559 0.01774 0.11445 0.0
C108 C 0.59846 0.03921 0.91375 0.0
O109 O 0.62292 0.02434 0.94125 0.0
H110 H 0.54211 0.94082 0.09072 0.0
H111 H 0.65976 0.0738 0.06511 0.0
O112 O 0.47737 0.96665 0.05249 0.0
H113 H 0.61816 0.17532 0.0572 0.0
H114 H 0.69241 0.03271 0.13383 0.0
Cu115 Cu 0.49688 0.50047 0.54558 0.0
N116 N 0.50332 0.55381 0.55643 0.0
N117 N 0.52095 0.62014 0.52635 0.0
C118 C 0.51512 0.58267 0.50851 0.0
C119 C 0.51258 0.61505 0.58817 0.0
C120 C 0.50104 0.57359 0.60668 0.0
O121 O 0.46442 0.48147 0.46318 0.0
C122 C 0.5831 0.52907 0.61197 0.0
O123 O 0.56113 0.54159 0.64698 0.0
H124 H 0.5209 0.5768 0.46154 0.0
H125 H 0.49309 0.55963 0.65361 0.0
N126 N 0.45825 0.45721 0.60572 0.0
N127 N 0.4485 0.40501 0.67358 0.0
C128 C 0.46476 0.42447 0.61686 0.0
C129 C 0.43538 0.45788 0.65635 0.0
C130 C 0.42901 0.42534 0.69836 0.0
C131 C 0.42338 0.47824 0.45996 0.0
O132 O 0.40625 0.48351 0.51103 0.0
H133 H 0.48538 0.41807 0.58578 0.0
H134 H 0.42807 0.48265 0.66476 0.0
O135 O 0.56259 0.5108 0.56024 0.0
H136 H 0.51495 0.63956 0.61763 0.0
H137 H 0.41539 0.42 0.74547 0.0
H138 H 0.13976 0.3874 0.12946 0.0
H139 H 0.07592 0.38397 0.06312 0.0
H140 H 0.09608 0.49576 0.15552 0.0
H141 H 0.16213 0.50091 0.21973 0.0
H142 H 0.23149 0.44526 0.13021 0.0
H143 H 0.10787 0.39926 0.29836 0.0
H144 H 0.05899 0.40535 0.37763 0.0
H145 H 0.18934 0.52853 0.43627 0.0
H146 H 0.23747 0.52416 0.35563 0.0
H147 H 0.35256 0.53446 0.33749 0.0
H148 H 0.41087 0.54126 0.41717 0.0
H149 H 0.37842 0.41366 0.37108 0.0
H150 H 0.31897 0.40654 0.29077 0.0
H151 H 0.25532 0.46465 0.35793 0.0
H152 H 0.36852 0.53223 0.18897 0.0
H153 H 0.43559 0.54458 0.12441 0.0
H154 H 0.3457 0.40714 0.07267 0.0
H155 H 0.27812 0.3954 0.13699 0.0
C156 C 0.15624 0.44426 0.18048 0.0
C157 C 0.13037 0.41105 0.13622 0.0
C158 C 0.09339 0.40882 0.09847 0.0
C159 C 0.08031 0.43917 0.10448 0.0
C160 C 0.10437 0.47118 0.15063 0.0
C161 C 0.14231 0.47408 0.18758 0.0
C162 C 0.19993 0.44928 0.21473 0.0
C163 C 0.23581 0.44871 0.18031 0.0
C164 C 0.20832 0.45644 0.27971 0.0
C165 C 0.17629 0.46127 0.32103 0.0
C166 C 0.12563 0.42802 0.32731 0.0
C167 C 0.098 0.43118 0.37282 0.0
C168 C 0.12116 0.4668 0.41345 0.0
C169 C 0.17135 0.50032 0.40624 0.0
C170 C 0.19851 0.4979 0.35996 0.0
C171 C 0.33106 0.46994 0.308 0.0
C172 C 0.35913 0.50854 0.34266 0.0
C173 C 0.39263 0.51247 0.3882 0.0
C174 C 0.39947 0.47816 0.4001 0.0
C175 C 0.37455 0.44096 0.36214 0.0
C176 C 0.34051 0.43688 0.31631 0.0
C177 C 0.2862 0.46145 0.2735 0.0
C178 C 0.25012 0.46074 0.3079 0.0
C179 C 0.27919 0.45594 0.20856 0.0
C180 C 0.31892 0.46276 0.16847 0.0
C181 C 0.36324 0.50486 0.16343 0.0
C182 C 0.40131 0.51192 0.12591 0.0
C183 C 0.39595 0.47679 0.09328 0.0
C184 C 0.35088 0.43485 0.09712 0.0
C185 C 0.31243 0.428 0.13406 0.0
H186 H 0.64714 0.17825 0.83275 0.0
H187 H 0.59598 0.1127 0.90098 0.0
H188 H 0.66233 0.05075 0.82348 0.0
H189 H 0.71189 0.11569 0.75337 0.0
H190 H 0.7632 0.23358 0.81209 0.0
H191 H 0.60485 0.15379 0.71665 0.0
H192 H 0.53532 0.07612 0.71863 0.0
H193 H 0.61387 0.04529 0.5969 0.0
H194 H 0.68644 0.12261 0.60107 0.0
H195 H 0.83063 0.2633 0.57001 0.0
H196 H 0.89663 0.32857 0.51198 0.0
H197 H 0.84722 0.40653 0.58056 0.0
H198 H 0.78243 0.34162 0.64113 0.0
H199 H 0.71752 0.2168 0.58743 0.0
H200 H 0.8806 0.30464 0.694 0.0
H201 H 0.95266 0.3667 0.74685 0.0
H202 H 0.855 0.38067 0.85925 0.0
H203 H 0.78358 0.3188 0.80687 0.0
C204 C 0.68379 0.1521 0.78849 0.0
C205 C 0.65071 0.15058 0.83054 0.0
C206 C 0.62084 0.11275 0.86867 0.0
C207 C 0.62454 0.0762 0.86686 0.0
C208 C 0.65823 0.07812 0.82537 0.0
C209 C 0.68702 0.11541 0.78595 0.0
C210 C 0.71159 0.19008 0.74298 0.0
C211 C 0.75301 0.23033 0.76313 0.0
C212 C 0.69779 0.18552 0.67928 0.0
C213 C 0.65123 0.144 0.65948 0.0
C214 C 0.60694 0.13066 0.68919 0.0
C215 C 0.56721 0.08628 0.69039 0.0
C216 C 0.56888 0.05514 0.65661 0.0
C217 C 0.61127 0.06913 0.62171 0.0
C218 C 0.65251 0.11331 0.62361 0.0
C219 C 0.8017 0.29751 0.61031 0.0
C220 C 0.83275 0.29396 0.57087 0.0
C221 C 0.87019 0.33122 0.5372 0.0
C222 C 0.87642 0.37246 0.54066 0.0
C223 C 0.84253 0.375 0.57577 0.0
C224 C 0.8058 0.33798 0.61084 0.0
C225 C 0.7701 0.26102 0.65652 0.0
C226 C 0.72771 0.22062 0.63635 0.0
C227 C 0.78248 0.26591 0.72094 0.0
C228 C 0.82658 0.30707 0.74632 0.0
C229 C 0.87481 0.32172 0.72911 0.0
C230 C 0.91602 0.35712 0.75953 0.0
C231 C 0.90971 0.3782 0.80816 0.0
C232 C 0.86135 0.36455 0.82327 0.0
C233 C 0.82037 0.32935 0.79292 0.0
H234 H 0.66708 0.93177 0.35148 0.0
H235 H 0.65748 0.98814 0.39133 0.0
H236 H 0.50627 0.88579 0.44128 0.0
H237 H 0.5169 0.83008 0.40272 0.0
H238 H 0.57759 0.80431 0.43434 0.0
H239 H 0.68924 0.90832 0.21813 0.0
H240 H 0.69281 0.96547 0.14899 0.0
H241 H 0.5387 0.90878 0.18682 0.0
H242 H 0.53521 0.85188 0.25359 0.0
H243 H 0.55155 0.72737 0.19521 0.0
H244 H 0.54947 0.66728 0.1477 0.0
H245 H 0.64895 0.67378 0.29089 0.0
H246 H 0.65045 0.73411 0.33807 0.0
H247 H 0.6205 0.81027 0.21277 0.0
H248 H 0.51554 0.68427 0.34103 0.0
H249 H 0.48673 0.62013 0.41145 0.0
H250 H 0.59034 0.70534 0.55192 0.0
H251 H 0.62136 0.7696 0.48028 0.0
C252 C 0.5928 0.87654 0.37424 0.0
C253 C 0.63194 0.92159 0.37129 0.0
C254 C 0.62621 0.95395 0.39401 0.0
C255 C 0.58103 0.94213 0.42009 0.0
C256 C 0.54195 0.89677 0.42277 0.0
C257 C 0.5479 0.86452 0.40055 0.0
C258 C 0.59785 0.84193 0.34814 0.0
C259 C 0.58794 0.80587 0.38626 0.0
C260 C 0.60945 0.84309 0.28492 0.0
C261 C 0.61203 0.87625 0.24088 0.0
C262 C 0.65628 0.90821 0.21068 0.0
C263 C 0.65836 0.94088 0.17179 0.0
C264 C 0.61603 0.94147 0.16229 0.0
C265 C 0.57173 0.90884 0.19214 0.0
C266 C 0.56972 0.87647 0.23075 0.0
C267 C 0.60103 0.73549 0.27053 0.0
C268 C 0.57319 0.71603 0.21622 0.0
C269 C 0.57202 0.68122 0.18895 0.0
C270 C 0.59899 0.66475 0.21482 0.0
C271 C 0.62725 0.68471 0.26917 0.0
C272 C 0.62822 0.71952 0.29657 0.0
C273 C 0.60116 0.77228 0.29941 0.0
C274 C 0.61201 0.80903 0.2616 0.0
C275 C 0.58855 0.77073 0.36274 0.0
C276 C 0.57169 0.73163 0.40461 0.0
C277 C 0.53297 0.6892 0.38635 0.0
C278 C 0.51601 0.65271 0.42678 0.0
C279 C 0.53631 0.65818 0.48684 0.0
C280 C 0.5739 0.70065 0.50598 0.0
C281 C 0.59176 0.7371 0.46497 0.0
H282 H 0.66631 0.46543 0.68083 0.0
H283 H 0.60547 0.46677 0.61261 0.0
H284 H 0.65834 0.59701 0.67585 0.0
H285 H 0.72038 0.59666 0.74128 0.0
H286 H 0.76492 0.51386 0.69287 0.0
H287 H 0.63183 0.49816 0.82495 0.0
H288 H 0.58612 0.51981 0.88411 0.0
H289 H 0.72401 0.63124 0.95506 0.0
H290 H 0.76938 0.61086 0.89355 0.0
H291 H 0.85662 0.57754 0.93798 0.0
H292 H 0.91462 0.57254 1.00575 0.0
H293 H 0.86583 0.44687 0.92753 0.0
H294 H 0.80753 0.45194 0.86001 0.0
H295 H 0.76304 0.53591 0.91867 0.0
H296 H 0.89632 0.57736 0.79684 0.0
H297 H 0.96385 0.58165 0.74327 0.0
H298 H 0.85789 0.45952 0.65212 0.0
H299 H 0.79047 0.45569 0.70514 0.0
C300 C 0.69708 0.53036 0.71817 0.0
C301 C 0.66564 0.49476 0.67895 0.0
C302 C 0.6311 0.49562 0.63945 0.0
C303 C 0.62714 0.53198 0.63883 0.0
C304 C 0.66054 0.56852 0.67526 0.0
C305 C 0.69555 0.56804 0.71361 0.0
C306 C 0.73079 0.52771 0.7641 0.0
C307 C 0.76359 0.51775 0.74242 0.0
C308 C 0.73258 0.53658 0.82837 0.0
C309 C 0.70408 0.55247 0.85554 0.0
C310 C 0.65223 0.52801 0.85172 0.0
C311 C 0.62612 0.54041 0.8858 0.0
C312 C 0.65141 0.57663 0.92569 0.0
C313 C 0.70335 0.60289 0.92545 0.0
C314 C 0.72934 0.59102 0.89064 0.0
C315 C 0.82794 0.51548 0.89296 0.0
C316 C 0.85764 0.54847 0.9361 0.0
C317 C 0.89089 0.54553 0.975 0.0
C318 C 0.89505 0.50927 0.97234 0.0
C319 C 0.8635 0.47512 0.93136 0.0
C320 C 0.83044 0.47824 0.8921 0.0
C321 C 0.79572 0.5207 0.84756 0.0
C322 C 0.76364 0.53132 0.8692 0.0
C323 C 0.79749 0.51633 0.78273 0.0
C324 C 0.83833 0.51612 0.755 0.0
C325 C 0.88772 0.55107 0.7661 0.0
C326 C 0.92636 0.55352 0.73547 0.0
C327 C 0.91629 0.52126 0.69275 0.0
C328 C 0.86687 0.48545 0.68357 0.0
C329 C 0.82826 0.48304 0.7141 0.0
H330 H 0.29852 0.85933 0.12009 0.0
H331 H 0.37429 0.91862 0.06708 0.0
H332 H 0.46158 0.91691 0.21994 0.0
H333 H 0.38676 0.8562 0.27072 0.0
H334 H 0.26196 0.7806 0.14782 0.0
H335 H 0.31557 0.90267 0.27557 0.0
H336 H 0.37516 0.96657 0.33732 0.0
H337 H 0.37906 0.87916 0.47493 0.0
H338 H 0.3216 0.81558 0.41168 0.0
H339 H 0.2271 0.69941 0.38587 0.0
H340 H 0.17039 0.63539 0.45029 0.0
H341 H 0.04698 0.61445 0.33972 0.0
H342 H 0.10537 0.68053 0.27426 0.0
H343 H 0.2353 0.7745 0.37465 0.0
H344 H 0.19202 0.6559 0.22866 0.0
H345 H 0.14748 0.59984 0.14917 0.0
H346 H 0.12294 0.68865 0.04273 0.0
H347 H 0.16655 0.74414 0.12247 0.0
C348 C 0.33629 0.85366 0.20069 0.0
C349 C 0.33396 0.87138 0.14209 0.0
C350 C 0.37729 0.90523 0.11156 0.0
C351 C 0.42383 0.92265 0.1395 0.0
C352 C 0.42619 0.90458 0.19749 0.0
C353 C 0.3832 0.87008 0.22707 0.0
C354 C 0.29021 0.81648 0.23258 0.0
C355 C 0.25562 0.7798 0.19732 0.0
C356 C 0.28173 0.81519 0.29751 0.0
C357 C 0.31454 0.85401 0.33793 0.0
C358 C 0.32935 0.89712 0.31884 0.0
C359 C 0.36317 0.9337 0.35449 0.0
C360 C 0.38184 0.92799 0.41111 0.0
C361 C 0.36507 0.88473 0.43185 0.0
C362 C 0.33211 0.84824 0.39554 0.0
C363 C 0.17107 0.69561 0.32511 0.0
C364 C 0.18794 0.68141 0.375 0.0
C365 C 0.15501 0.64437 0.41216 0.0
C366 C 0.10355 0.61963 0.40115 0.0
C367 C 0.08623 0.63265 0.34983 0.0
C368 C 0.11971 0.67043 0.31226 0.0
C369 C 0.2083 0.73783 0.2901 0.0
C370 C 0.24124 0.7758 0.32497 0.0
C371 C 0.21477 0.74081 0.22459 0.0
C372 C 0.18202 0.70404 0.18212 0.0
C373 C 0.17595 0.66287 0.18907 0.0
C374 C 0.15094 0.63105 0.14328 0.0
C375 C 0.13229 0.64011 0.08929 0.0
C376 C 0.13771 0.68102 0.08307 0.0
C377 C 0.16211 0.71252 0.12905 0.0
H378 H 0.56056 0.37936 0.84382 0.0
H379 H 0.57232 0.43419 0.9167 0.0
H380 H 0.47224 0.32924 0.04582 0.0
H381 H 0.45956 0.27421 0.97213 0.0
H382 H 0.51848 0.25644 0.93264 0.0
H383 H 0.54362 0.34874 0.70016 0.0
H384 H 0.525 0.39817 0.64951 0.0
H385 H 0.39923 0.34711 0.77038 0.0
H386 H 0.41917 0.29785 0.82245 0.0
H387 H 0.44752 0.13697 0.77439 0.0
H388 H 0.44887 0.09139 0.69507 0.0
H389 H 0.57124 0.20972 0.60526 0.0
H390 H 0.56883 0.25455 0.6837 0.0
H391 H 0.48927 0.2602 0.70571 0.0
H392 H 0.44439 0.14632 0.89473 0.0
H393 H 0.46057 0.1048 0.97211 0.0
H394 H 0.61772 0.20047 0.94947 0.0
H395 H 0.60124 0.24194 0.87203 0.0
C396 C 0.50828 0.32232 0.9015 0.0
C397 C 0.54014 0.36792 0.88708 0.0
C398 C 0.5472 0.39938 0.92915 0.0
C399 C 0.52324 0.38615 0.98723 0.0
C400 C 0.49169 0.34058 1.00191 0.0
C401 C 0.48419 0.30908 0.9595 0.0
C402 C 0.50336 0.28866 0.85866 0.0
C403 C 0.5112 0.25698 0.88311 0.0
C404 C 0.49421 0.28897 0.7939 0.0
C405 C 0.48273 0.31958 0.7648 0.0
C406 C 0.51191 0.34802 0.71564 0.0
C407 C 0.50083 0.3761 0.68634 0.0
C408 C 0.45983 0.37606 0.70497 0.0
C409 C 0.43095 0.34791 0.75496 0.0
C410 C 0.44232 0.31983 0.78466 0.0
C411 C 0.50836 0.19938 0.73569 0.0
C412 C 0.47513 0.15297 0.73813 0.0
C413 C 0.47577 0.12685 0.69215 0.0
C414 C 0.50971 0.14644 0.6424 0.0
C415 C 0.54365 0.19293 0.64131 0.0
C416 C 0.54273 0.21888 0.68689 0.0
C417 C 0.5049 0.22829 0.77983 0.0
C418 C 0.49577 0.25935 0.75539 0.0
C419 C 0.51184 0.22695 0.84493 0.0
C420 C 0.52166 0.19628 0.87652 0.0
C421 C 0.48228 0.15744 0.90494 0.0
C422 C 0.49153 0.1343 0.94982 0.0
C423 C 0.5403 0.15008 0.96771 0.0
C424 C 0.57978 0.18829 0.93771 0.0
C425 C 0.57048 0.21127 0.8924 0.0
loop_
_geom_bond_atom_site_label_1
_geom_bond_atom_site_label_2
_geom_bond_distance
_geom_bond_site_symmetry_2
_ccdc_geom_bond_type
Cu0 N1 1.999 1_554 S
Cu0 O6 1.974 1_554 S
Cu0 N11 1.985 1_655 S
Cu0 O20 1.959 1_655 S
N1 Cu0 1.999 1_556 S
N1 C3 1.263 . S
N1 C5 1.389 1_556 S
N2 C3 1.358 . S
N2 C4 1.400 . S
C3 N1 1.263 . S
C3 N2 1.358 . S
C3 H9 0.930 . S
C4 N2 1.400 . S
C4 C5 1.351 1_556 S
C4 H21 0.930 . S
C5 N1 1.389 1_554 S
C5 C4 1.351 1_554 S
C5 H10 0.930 . S
O6 Cu0 1.974 1_556 S
O6 C16 1.282 . S
C7 O8 1.261 1_554 S
C7 O20 1.251 . S
O8 C7 1.261 1_556 S
H9 C3 0.930 . S
H10 C5 0.930 . S
N11 Cu0 1.985 1_455 S
N11 C13 1.335 . S
N11 C14 1.390 . S
N12 C13 1.345 . S
N12 C15 1.336 . S
C13 N11 1.335 . S
C13 N12 1.345 . S
C13 H18 0.930 . S
C14 N11 1.390 . S
C14 C15 1.346 . S
C14 H19 0.930 1_554 S
C15 N12 1.336 . S
C15 C14 1.346 . S
C15 H22 0.929 . S
C16 O6 1.282 . S
C16 O17 1.216 1_655 S
O17 C16 1.216 1_455 S
H18 C13 0.930 . S
H19 C14 0.930 1_556 S
O20 Cu0 1.959 1_455 S
O20 C7 1.251 . S
H21 C4 0.930 . S
H22 C15 0.929 . S
Cu23 N24 1.999 . S
Cu23 O29 1.974 . S
Cu23 N34 1.985 1_565 S
Cu23 O43 1.959 1_565 S
N24 Cu23 1.999 . S
N24 C26 1.263 . S
N24 C28 1.389 . S
N25 C26 1.358 . S
N25 C27 1.400 . S
C26 N24 1.263 . S
C26 N25 1.358 . S
C26 H32 0.930 . S
C27 N25 1.400 . S
C27 C28 1.351 . S
C27 H44 0.930 . S
C28 N24 1.389 . S
C28 C27 1.351 . S
C28 H33 0.930 . S
O29 Cu23 1.974 . S
O29 C39 1.282 . S
C30 O31 1.261 . S
C30 O43 1.251 . S
O31 C30 1.261 . S
H32 C26 0.930 . S
H33 C28 0.930 . S
N34 Cu23 1.985 1_545 S
N34 C36 1.335 . S
N34 C37 1.390 . S
N35 C36 1.345 . S
N35 C38 1.336 . S
C36 N34 1.335 . S
C36 N35 1.345 . S
C36 H41 0.930 . S
C37 N34 1.390 . S
C37 C38 1.346 . S
C37 H42 0.930 . S
C38 N35 1.336 . S
C38 C37 1.346 . S
C38 H45 0.929 . S
C39 O29 1.282 . S
C39 O40 1.216 . S
O40 C39 1.216 . S
H41 C36 0.930 . S
H42 C37 0.930 . S
O43 Cu23 1.959 1_545 S
O43 C30 1.251 . S
H44 C27 0.930 . S
H45 C38 0.929 . S
Cu46 N47 1.999 . S
Cu46 O52 1.974 . S
Cu46 N57 1.985 1_556 S
Cu46 O66 1.959 1_556 S
N47 Cu46 1.999 . S
N47 C49 1.263 . S
N47 C51 1.389 . S
N48 C49 1.358 . S
N48 C50 1.400 . S
C49 N47 1.263 . S
C49 N48 1.358 . S
C49 H55 0.930 . S
C50 N48 1.400 . S
C50 C51 1.351 . S
C50 H67 0.930 . S
C51 N47 1.389 . S
C51 C50 1.351 . S
C51 H56 0.930 . S
O52 Cu46 1.974 . S
O52 C62 1.282 . S
C53 O54 1.261 . S
C53 O66 1.251 . S
O54 C53 1.261 . S
H55 C49 0.930 . S
H56 C51 0.930 . S
N57 Cu46 1.985 1_554 S
N57 C59 1.335 . S
N57 C60 1.390 . S
N58 C59 1.345 . S
N58 C61 1.336 . S
C59 N57 1.335 . S
C59 N58 1.345 . S
C59 H64 0.930 . S
C60 N57 1.390 . S
C60 C61 1.346 . S
C60 H65 0.930 . S
C61 N58 1.336 . S
C61 C60 1.346 . S
C61 H68 0.929 . S
C62 O52 1.282 . S
C62 O63 1.216 1_556 S
O63 C62 1.216 1_554 S
H64 C59 0.930 . S
H65 C60 0.930 . S
O66 Cu46 1.959 1_554 S
O66 C53 1.251 . S
H67 C50 0.930 . S
H68 C61 0.929 . S
Cu69 N70 1.999 1_655 S
Cu69 O75 1.974 1_655 S
Cu69 N80 1.985 . S
Cu69 O89 1.959 . S
N70 Cu69 1.999 1_455 S
N70 C72 1.263 . S
N70 C74 1.389 1_455 S
N71 C72 1.358 . S
N71 C73 1.400 . S
C72 N70 1.263 . S
C72 N71 1.358 . S
C72 H78 0.930 . S
C73 N71 1.400 . S
C73 C74 1.351 1_455 S
C73 H90 0.930 . S
C74 N70 1.389 1_655 S
C74 C73 1.351 1_655 S
C74 H79 0.930 . S
O75 Cu69 1.974 1_455 S
O75 C85 1.282 . S
C76 O77 1.261 . S
C76 O89 1.251 . S
O77 C76 1.261 . S
H78 C72 0.930 . S
H79 C74 0.930 . S
N80 Cu69 1.985 . S
N80 C82 1.335 . S
N80 C83 1.390 . S
N81 C82 1.345 . S
N81 C84 1.336 . S
C82 N80 1.335 . S
C82 N81 1.345 . S
C82 H87 0.930 . S
C83 N80 1.390 . S
C83 C84 1.346 . S
C83 H88 0.930 1_655 S
C84 N81 1.336 . S
C84 C83 1.346 . S
C84 H91 0.929 . S
C85 O75 1.282 . S
C85 O86 1.216 . S
O86 C85 1.216 . S
H87 C82 0.930 . S
H88 C83 0.930 1_455 S
O89 Cu69 1.959 . S
O89 C76 1.251 . S
H90 C73 0.930 . S
H91 C84 0.929 . S
Cu92 N93 1.999 . S
Cu92 O98 1.974 1_554 S
Cu92 N103 1.985 1_545 S
Cu92 O112 1.959 1_545 S
N93 Cu92 1.999 . S
N93 C95 1.263 1_554 S
N93 C97 1.389 . S
N94 C95 1.358 . S
N94 C96 1.400 1_556 S
C95 N93 1.263 1_556 S
C95 N94 1.358 . S
C95 H101 0.930 . S
C96 N94 1.400 1_554 S
C96 C97 1.351 . S
C96 H113 0.930 . S
C97 N93 1.389 . S
C97 C96 1.351 . S
C97 H102 0.930 . S
O98 Cu92 1.974 1_556 S
O98 C108 1.282 . S
C99 O100 1.261 . S
C99 O112 1.251 . S
O100 C99 1.261 . S
H101 C95 0.930 . S
H102 C97 0.930 . S
N103 Cu92 1.985 1_565 S
N103 C105 1.335 . S
N103 C106 1.390 . S
N104 C105 1.345 . S
N104 C107 1.336 . S
C105 N103 1.335 . S
C105 N104 1.345 . S
C105 H110 0.930 . S
C106 N103 1.390 . S
C106 C107 1.346 . S
C106 H111 0.930 1_564 S
C107 N104 1.336 . S
C107 C106 1.346 . S
C107 H114 0.929 . S
C108 O98 1.282 . S
C108 O109 1.216 . S
O109 C108 1.216 . S
H110 C105 0.930 . S
H111 C106 0.930 1_546 S
O112 Cu92 1.959 1_565 S
O112 C99 1.251 . S
H113 C96 0.930 . S
H114 C107 0.929 . S
Cu115 N116 1.999 . S
Cu115 O121 1.974 . S
Cu115 N126 1.985 . S
Cu115 O135 1.959 . S
N116 Cu115 1.999 . S
N116 C118 1.263 . S
N116 C120 1.389 . S
N117 C118 1.358 . S
N117 C119 1.400 . S
C118 N116 1.263 . S
C118 N117 1.358 . S
C118 H124 0.930 . S
C119 N117 1.400 . S
C119 C120 1.351 . S
C119 H136 0.930 . S
C120 N116 1.389 . S
C120 C119 1.351 . S
C120 H125 0.930 . S
O121 Cu115 1.974 . S
O121 C131 1.282 . S
C122 O123 1.261 . S
C122 O135 1.251 . S
O123 C122 1.261 . S
H124 C118 0.930 . S
H125 C120 0.930 . S
N126 Cu115 1.985 . S
N126 C128 1.335 . S
N126 C129 1.390 . S
N127 C128 1.345 . S
N127 C130 1.336 . S
C128 N126 1.335 . S
C128 N127 1.345 . S
C128 H133 0.930 . S
C129 N126 1.390 . S
C129 C130 1.346 . S
C129 H134 0.930 . S
C130 N127 1.336 . S
C130 C129 1.346 . S
C130 H137 0.929 . S
C131 O121 1.282 . S
C131 O132 1.216 . S
O132 C131 1.216 . S
H133 C128 0.930 . S
H134 C129 0.930 . S
O135 Cu115 1.959 . S
O135 C122 1.251 . S
H136 C119 0.930 . S
H137 C130 0.929 . S
H138 C157 0.949 . S
H139 C158 0.950 . S
H140 C160 0.950 . S
H141 C161 0.950 . S
H142 C163 0.950 . S
H143 C166 0.950 . S
H144 C167 0.950 . S
H145 C169 0.951 . S
H146 C170 0.949 . S
H147 C172 0.949 . S
H148 C173 0.950 . S
H149 C175 0.950 . S
H150 C176 0.950 . S
H151 C178 0.950 . S
H152 C181 0.950 . S
H153 C182 0.950 . S
H154 C184 0.951 . S
H155 C185 0.949 . S
C156 C157 1.376 . S
C156 C161 1.386 . S
C156 C162 1.483 . S
C157 H138 0.949 . S
C157 C156 1.376 . S
C157 C158 1.397 . S
C158 H139 0.950 . S
C158 C157 1.397 . S
C158 C159 1.391 . S
C159 C158 1.391 . S
C159 C160 1.405 . S
C160 H140 0.950 . S
C160 C159 1.405 . S
C160 C161 1.367 . S
C161 H141 0.950 . S
C161 C156 1.386 . S
C161 C160 1.367 . S
C162 C156 1.483 . S
C162 C163 1.382 . S
C162 C164 1.403 . S
C163 H142 0.950 . S
C163 C162 1.382 . S
C163 C179 1.411 . S
C164 C162 1.403 . S
C164 C165 1.489 . S
C164 C178 1.411 . S
C165 C164 1.489 . S
C165 C166 1.383 . S
C165 C170 1.382 . S
C166 H143 0.950 . S
C166 C165 1.383 . S
C166 C167 1.395 . S
C167 H144 0.950 . S
C167 C166 1.395 . S
C167 C168 1.288 . S
C168 C167 1.288 . S
C168 C169 1.392 . S
C169 H145 0.951 . S
C169 C168 1.392 . S
C169 C170 1.392 . S
C170 H146 0.949 . S
C170 C165 1.382 . S
C170 C169 1.392 . S
C171 C172 1.376 . S
C171 C176 1.386 . S
C171 C177 1.483 . S
C172 H147 0.949 . S
C172 C171 1.376 . S
C172 C173 1.397 . S
C173 H148 0.950 . S
C173 C172 1.397 . S
C173 C174 1.391 . S
C174 C173 1.391 . S
C174 C175 1.405 . S
C175 H149 0.950 . S
C175 C174 1.405 . S
C175 C176 1.367 . S
C176 H150 0.950 . S
C176 C171 1.386 . S
C176 C175 1.367 . S
C177 C171 1.483 . S
C177 C178 1.382 . S
C177 C179 1.403 . S
C178 H151 0.950 . S
C178 C164 1.411 . S
C178 C177 1.382 . S
C179 C163 1.411 . S
C179 C177 1.403 . S
C179 C180 1.489 . S
C180 C179 1.489 . S
C180 C181 1.383 . S
C180 C185 1.382 . S
C181 H152 0.950 . S
C181 C180 1.383 . S
C181 C182 1.395 . S
C182 H153 0.950 . S
C182 C181 1.395 . S
C182 C183 1.288 . S
C183 C182 1.288 . S
C183 C184 1.392 . S
C184 H154 0.951 . S
C184 C183 1.392 . S
C184 C185 1.392 . S
C185 H155 0.949 . S
C185 C180 1.382 . S
C185 C184 1.392 . S
H186 C205 0.949 . S
H187 C206 0.950 . S
H188 C208 0.950 . S
H189 C209 0.950 . S
H190 C211 0.950 . S
H191 C214 0.950 . S
H192 C215 0.950 . S
H193 C217 0.951 . S
H194 C218 0.949 . S
H195 C220 0.949 . S
H196 C221 0.950 . S
H197 C223 0.950 . S
H198 C224 0.950 . S
H199 C226 0.950 . S
H200 C229 0.950 . S
H201 C230 0.950 . S
H202 C232 0.951 . S
H203 C233 0.949 . S
C204 C205 1.376 . S
C204 C209 1.386 . S
C204 C210 1.483 . S
C205 H186 0.949 . S
C205 C204 1.376 . S
C205 C206 1.397 . S
C206 H187 0.950 . S
C206 C205 1.397 . S
C206 C207 1.391 . S
C207 C206 1.391 . S
C207 C208 1.405 . S
C208 H188 0.950 . S
C208 C207 1.405 . S
C208 C209 1.367 . S
C209 H189 0.950 . S
C209 C204 1.386 . S
C209 C208 1.367 . S
C210 C204 1.483 . S
C210 C211 1.382 . S
C210 C212 1.403 . S
C211 H190 0.950 . S
C211 C210 1.382 . S
C211 C227 1.411 . S
C212 C210 1.403 . S
C212 C213 1.489 . S
C212 C226 1.411 . S
C213 C212 1.489 . S
C213 C214 1.383 . S
C213 C218 1.382 . S
C214 H191 0.950 . S
C214 C213 1.383 . S
C214 C215 1.395 . S
C215 H192 0.950 . S
C215 C214 1.395 . S
C215 C216 1.288 . S
C216 C215 1.288 . S
C216 C217 1.392 . S
C217 H193 0.951 . S
C217 C216 1.392 . S
C217 C218 1.392 . S
C218 H194 0.949 . S
C218 C213 1.382 . S
C218 C217 1.392 . S
C219 C220 1.376 . S
C219 C224 1.386 . S
C219 C225 1.483 . S
C220 H195 0.949 . S
C220 C219 1.376 . S
C220 C221 1.397 . S
C221 H196 0.950 . S
C221 C220 1.397 . S
C221 C222 1.391 . S
C222 C221 1.391 . S
C222 C223 1.405 . S
C223 H197 0.950 . S
C223 C222 1.405 . S
C223 C224 1.367 . S
C224 H198 0.950 . S
C224 C219 1.386 . S
C224 C223 1.367 . S
C225 C219 1.483 . S
C225 C226 1.382 . S
C225 C227 1.403 . S
C226 H199 0.950 . S
C226 C212 1.411 . S
C226 C225 1.382 . S
C227 C211 1.411 . S
C227 C225 1.403 . S
C227 C228 1.489 . S
C228 C227 1.489 . S
C228 C229 1.383 . S
C228 C233 1.382 . S
C229 H200 0.950 . S
C229 C228 1.383 . S
C229 C230 1.395 . S
C230 H201 0.950 . S
C230 C229 1.395 . S
C230 C231 1.288 . S
C231 C230 1.288 . S
C231 C232 1.392 . S
C232 H202 0.951 . S
C232 C231 1.392 . S
C232 C233 1.392 . S
C233 H203 0.949 . S
C233 C228 1.382 . S
C233 C232 1.392 . S
H234 C253 0.949 . S
H235 C254 0.950 . S
H236 C256 0.950 . S
H237 C257 0.950 . S
H238 C259 0.950 . S
H239 C262 0.950 . S
H240 C263 0.950 . S
H241 C265 0.951 . S
H242 C266 0.949 . S
H243 C268 0.949 . S
H244 C269 0.950 . S
H245 C271 0.950 . S
H246 C272 0.950 . S
H247 C274 0.950 . S
H248 C277 0.950 . S
H249 C278 0.950 . S
H250 C280 0.951 . S
H251 C281 0.949 . S
C252 C253 1.376 . S
C252 C257 1.386 . S
C252 C258 1.483 . S
C253 H234 0.949 . S
C253 C252 1.376 . S
C253 C254 1.397 . S
C254 H235 0.950 . S
C254 C253 1.397 . S
C254 C255 1.391 . S
C255 C254 1.391 . S
C255 C256 1.405 . S
C256 H236 0.950 . S
C256 C255 1.405 . S
C256 C257 1.367 . S
C257 H237 0.950 . S
C257 C252 1.386 . S
C257 C256 1.367 . S
C258 C252 1.483 . S
C258 C259 1.382 . S
C258 C260 1.403 . S
C259 H238 0.950 . S
C259 C258 1.382 . S
C259 C275 1.411 . S
C260 C258 1.403 . S
C260 C261 1.489 . S
C260 C274 1.411 . S
C261 C260 1.489 . S
C261 C262 1.383 . S
C261 C266 1.382 . S
C262 H239 0.950 . S
C262 C261 1.383 . S
C262 C263 1.395 . S
C263 H240 0.950 . S
C263 C262 1.395 . S
C263 C264 1.288 . S
C264 C263 1.288 . S
C264 C265 1.392 . S
C265 H241 0.951 . S
C265 C264 1.392 . S
C265 C266 1.392 . S
C266 H242 0.949 . S
C266 C261 1.382 . S
C266 C265 1.392 . S
C267 C268 1.376 . S
C267 C272 1.386 . S
C267 C273 1.483 . S
C268 H243 0.949 . S
C268 C267 1.376 . S
C268 C269 1.397 . S
C269 H244 0.950 . S
C269 C268 1.397 . S
C269 C270 1.391 . S
C270 C269 1.391 . S
C270 C271 1.405 . S
C271 H245 0.950 . S
C271 C270 1.405 . S
C271 C272 1.367 . S
C272 H246 0.950 . S
C272 C267 1.386 . S
C272 C271 1.367 . S
C273 C267 1.483 . S
C273 C274 1.382 . S
C273 C275 1.403 . S
C274 H247 0.950 . S
C274 C260 1.411 . S
C274 C273 1.382 . S
C275 C259 1.411 . S
C275 C273 1.403 . S
C275 C276 1.489 . S
C276 C275 1.489 . S
C276 C277 1.383 . S
C276 C281 1.382 . S
C277 H248 0.950 . S
C277 C276 1.383 . S
C277 C278 1.395 . S
C278 H249 0.950 . S
C278 C277 1.395 . S
C278 C279 1.288 . S
C279 C278 1.288 . S
C279 C280 1.392 . S
C280 H250 0.951 . S
C280 C279 1.392 . S
C280 C281 1.392 . S
C281 H251 0.949 . S
C281 C276 1.382 . S
C281 C280 1.392 . S
H282 C301 0.949 . S
H283 C302 0.950 . S
H284 C304 0.950 . S
H285 C305 0.950 . S
H286 C307 0.950 . S
H287 C310 0.950 . S
H288 C311 0.950 . S
H289 C313 0.951 . S
H290 C314 0.949 . S
H291 C316 0.949 . S
H292 C317 0.950 . S
H293 C319 0.950 . S
H294 C320 0.950 . S
H295 C322 0.950 . S
H296 C325 0.950 . S
H297 C326 0.950 . S
H298 C328 0.951 . S
H299 C329 0.949 . S
C300 C301 1.376 . S
C300 C305 1.386 . S
C300 C306 1.483 . S
C301 H282 0.949 . S
C301 C300 1.376 . S
C301 C302 1.397 . S
C302 H283 0.950 . S
C302 C301 1.397 . S
C302 C303 1.391 . S
C303 C302 1.391 . S
C303 C304 1.405 . S
C304 H284 0.950 . S
C304 C303 1.405 . S
C304 C305 1.367 . S
C305 H285 0.950 . S
C305 C300 1.386 . S
C305 C304 1.367 . S
C306 C300 1.483 . S
C306 C307 1.382 . S
C306 C308 1.403 . S
C307 H286 0.950 . S
C307 C306 1.382 . S
C307 C323 1.411 . S
C308 C306 1.403 . S
C308 C309 1.489 . S
C308 C322 1.411 . S
C309 C308 1.489 . S
C309 C310 1.383 . S
C309 C314 1.382 . S
C310 H287 0.950 . S
C310 C309 1.383 . S
C310 C311 1.395 . S
C311 H288 0.950 . S
C311 C310 1.395 . S
C311 C312 1.288 . S
C312 C311 1.288 . S
C312 C313 1.392 . S
C313 H289 0.951 . S
C313 C312 1.392 . S
C313 C314 1.392 . S
C314 H290 0.949 . S
C314 C309 1.382 . S
C314 C313 1.392 . S
C315 C316 1.376 . S
C315 C320 1.386 . S
C315 C321 1.483 . S
C316 H291 0.949 . S
C316 C315 1.376 . S
C316 C317 1.397 . S
C317 H292 0.950 . S
C317 C316 1.397 . S
C317 C318 1.391 . S
C318 C317 1.391 . S
C318 C319 1.405 . S
C319 H293 0.950 . S
C319 C318 1.405 . S
C319 C320 1.367 . S
C320 H294 0.950 . S
C320 C315 1.386 . S
C320 C319 1.367 . S
C321 C315 1.483 . S
C321 C322 1.382 . S
C321 C323 1.403 . S
C322 H295 0.950 . S
C322 C308 1.411 . S
C322 C321 1.382 . S
C323 C307 1.411 . S
C323 C321 1.403 . S
C323 C324 1.489 . S
C324 C323 1.489 . S
C324 C325 1.383 . S
C324 C329 1.382 . S
C325 H296 0.950 . S
C325 C324 1.383 . S
C325 C326 1.395 . S
C326 H297 0.950 . S
C326 C325 1.395 . S
C326 C327 1.288 . S
C327 C326 1.288 . S
C327 C328 1.392 . S
C328 H298 0.951 . S
C328 C327 1.392 . S
C328 C329 1.392 . S
C329 H299 0.949 . S
C329 C324 1.382 . S
C329 C328 1.392 . S
H330 C349 0.949 . S
H331 C350 0.950 . S
H332 C352 0.950 . S
H333 C353 0.950 . S
H334 C355 0.950 . S
H335 C358 0.950 . S
H336 C359 0.950 . S
H337 C361 0.951 . S
H338 C362 0.949 . S
H339 C364 0.949 . S
H340 C365 0.950 . S
H341 C367 0.950 . S
H342 C368 0.950 . S
H343 C370 0.950 . S
H344 C373 0.950 . S
H345 C374 0.950 . S
H346 C376 0.951 . S
H347 C377 0.949 . S
C348 C349 1.376 . S
C348 C353 1.386 . S
C348 C354 1.483 . S
C349 H330 0.949 . S
C349 C348 1.376 . S
C349 C350 1.397 . S
C350 H331 0.950 . S
C350 C349 1.397 . S
C350 C351 1.391 . S
C351 C350 1.391 . S
C351 C352 1.405 . S
C352 H332 0.950 . S
C352 C351 1.405 . S
C352 C353 1.367 . S
C353 H333 0.950 . S
C353 C348 1.386 . S
C353 C352 1.367 . S
C354 C348 1.483 . S
C354 C355 1.382 . S
C354 C356 1.403 . S
C355 H334 0.950 . S
C355 C354 1.382 . S
C355 C371 1.411 . S
C356 C354 1.403 . S
C356 C357 1.489 . S
C356 C370 1.411 . S
C357 C356 1.489 . S
C357 C358 1.383 . S
C357 C362 1.382 . S
C358 H335 0.950 . S
C358 C357 1.383 . S
C358 C359 1.395 . S
C359 H336 0.950 . S
C359 C358 1.395 . S
C359 C360 1.288 . S
C360 C359 1.288 . S
C360 C361 1.392 . S
C361 H337 0.951 . S
C361 C360 1.392 . S
C361 C362 1.392 . S
C362 H338 0.949 . S
C362 C357 1.382 . S
C362 C361 1.392 . S
C363 C364 1.376 . S
C363 C368 1.386 . S
C363 C369 1.483 . S
C364 H339 0.949 . S
C364 C363 1.376 . S
C364 C365 1.397 . S
C365 H340 0.950 . S
C365 C364 1.397 . S
C365 C366 1.391 . S
C366 C365 1.391 . S
C366 C367 1.405 . S
C367 H341 0.950 . S
C367 C366 1.405 . S
C367 C368 1.367 . S
C368 H342 0.950 . S
C368 C363 1.386 . S
C368 C367 1.367 . S
C369 C363 1.483 . S
C369 C370 1.382 . S
C369 C371 1.403 . S
C370 H343 0.950 . S
C370 C356 1.411 . S
C370 C369 1.382 . S
C371 C355 1.411 . S
C371 C369 1.403 . S
C371 C372 1.489 . S
C372 C371 1.489 . S
C372 C373 1.383 . S
C372 C377 1.382 . S
C373 H344 0.950 . S
C373 C372 1.383 . S
C373 C374 1.395 . S
C374 H345 0.950 . S
C374 C373 1.395 . S
C374 C375 1.288 . S
C375 C374 1.288 . S
C375 C376 1.392 . S
C376 H346 0.951 . S
C376 C375 1.392 . S
C376 C377 1.392 . S
C377 H347 0.949 . S
C377 C372 1.382 . S
C377 C376 1.392 . S
H378 C397 0.949 . S
H379 C398 0.950 . S
H380 C400 0.950 . S
H381 C401 0.950 . S
H382 C403 0.950 . S
H383 C406 0.950 . S
H384 C407 0.950 . S
H385 C409 0.951 . S
H386 C410 0.949 . S
H387 C412 0.949 . S
H388 C413 0.950 . S
H389 C415 0.950 . S
H390 C416 0.950 . S
H391 C418 0.950 . S
H392 C421 0.950 . S
H393 C422 0.950 . S
H394 C424 0.951 . S
H395 C425 0.949 . S
C396 C397 1.376 . S
C396 C401 1.386 . S
C396 C402 1.483 . S
C397 H378 0.949 . S
C397 C396 1.376 . S
C397 C398 1.397 . S
C398 H379 0.950 . S
C398 C397 1.397 . S
C398 C399 1.391 . S
C399 C398 1.391 . S
C399 C400 1.405 . S
C400 H380 0.950 . S
C400 C399 1.405 . S
C400 C401 1.367 . S
C401 H381 0.950 . S
C401 C396 1.386 . S
C401 C400 1.367 . S
C402 C396 1.483 . S
C402 C403 1.382 . S
C402 C404 1.403 . S
C403 H382 0.950 . S
C403 C402 1.382 . S
C403 C419 1.411 . S
C404 C402 1.403 . S
C404 C405 1.489 . S
C404 C418 1.411 . S
C405 C404 1.489 . S
C405 C406 1.383 . S
C405 C410 1.382 . S
C406 H383 0.950 . S
C406 C405 1.383 . S
C406 C407 1.395 . S
C407 H384 0.950 . S
C407 C406 1.395 . S
C407 C408 1.288 . S
C408 C407 1.288 . S
C408 C409 1.392 . S
C409 H385 0.951 . S
C409 C408 1.392 . S
C409 C410 1.392 . S
C410 H386 0.949 . S
C410 C405 1.382 . S
C410 C409 1.392 . S
C411 C412 1.376 . S
C411 C416 1.386 . S
C411 C417 1.483 . S
C412 H387 0.949 . S
C412 C411 1.376 . S
C412 C413 1.397 . S
C413 H388 0.950 . S
C413 C412 1.397 . S
C413 C414 1.391 . S
C414 C413 1.391 . S
C414 C415 1.405 . S
C415 H389 0.950 . S
C415 C414 1.405 . S
C415 C416 1.367 . S
C416 H390 0.950 . S
C416 C411 1.386 . S
C416 C415 1.367 . S
C417 C411 1.483 . S
C417 C418 1.382 . S
C417 C419 1.403 . S
C418 H391 0.950 . S
C418 C404 1.411 . S
C418 C417 1.382 . S
C419 C403 1.411 . S
C419 C417 1.403 . S
C419 C420 1.489 . S
C420 C419 1.489 . S
C420 C421 1.383 . S
C420 C425 1.382 . S
C421 H392 0.950 . S
C421 C420 1.383 . S
C421 C422 1.395 . S
C422 H393 0.950 . S
C422 C421 1.395 . S
C422 C423 1.288 . S
C423 C422 1.288 . S
C423 C424 1.392 . S
C424 H394 0.951 . S
C424 C423 1.392 . S
C424 C425 1.392 . S
C425 H395 0.949 . S
C425 C420 1.382 . S
C425 C424 1.392 . S
C7 C159 2.473 . S
C30 C216 2.048 . S
C270 N58 2.134 . S
C327 N81 1.530 . S
C351 C99 2.320 . S
C408 N127 1.969 . S
N25 C255 2.305 . S
C62 C312 2.118 . S
C366 C85 2.291 . S
C423 N94 1.961 . S
C131 C174 2.442 . S
C231 N2 1.644 . S
C318 C16 2.313 . S
C39 C360 1.760 . S
C399 N48 2.105 . S
N71 C168 1.423 . S
C108 C207 2.099 . S
N117 C279 1.943 . S
N35 C414 2.122 . S
C183 C53 1.985 . S
C76 C222 2.358 . S
N104 C264 1.673 . S
C122 C303 2.079 . S
N12 C375 1.529 . S
