# Generated by pormake.
# Topology cml, (3,6)-cn, num edge types: 1
# Building blocks:
#     Node 0, Type 0, BuildingBlock: MIDCAF_clean_linker_0, # of connection points: 3
#     Node 1, Type 0, BuildingBlock: MIDCAF_clean_linker_0, # of connection points: 3
#     Node 2, Type 0, BuildingBlock: MIDCAF_clean_linker_0, # of connection points: 3
#     Node 3, Type 0, BuildingBlock: MIDCAF_clean_linker_0, # of connection points: 3
#     Node 4, Type 0, BuildingBlock: MIDCAF_clean_linker_0, # of connection points: 3
#     Node 5, Type 0, BuildingBlock: MIDCAF_clean_linker_0, # of connection points: 3
#     Node 6, Type 0, BuildingBlock: MIDCAF_clean_linker_0, # of connection points: 3
#     Node 7, Type 0, BuildingBlock: MIDCAF_clean_linker_0, # of connection points: 3
#     Node 8, Type 1, BuildingBlock: IZENUY_clean_sbu_0, # of connection points: 6
#     Node 9, Type 1, BuildingBlock: IZENUY_clean_sbu_0, # of connection points: 6
#     Node 10, Type 1, BuildingBlock: IZENUY_clean_sbu_0, # of connection points: 6
#     Node 11, Type 1, BuildingBlock: IZENUY_clean_sbu_0, # of connection points: 6
#     Edge 12, Type (0, 1), BuildingBlock: TEMPAE_clean_linker_10, # of connection points: 2
#     Edge 13, Type (0, 1), BuildingBlock: TEMPAE_clean_linker_10, # of connection points: 2
#     Edge 14, Type (0, 1), BuildingBlock: TEMPAE_clean_linker_10, # of connection points: 2
#     Edge 15, Type (0, 1), BuildingBlock: TEMPAE_clean_linker_10, # of connection points: 2
#     Edge 16, Type (0, 1), BuildingBlock: TEMPAE_clean_linker_10, # of connection points: 2
#     Edge 17, Type (0, 1), BuildingBlock: TEMPAE_clean_linker_10, # of connection points: 2
#     Edge 18, Type (0, 1), BuildingBlock: TEMPAE_clean_linker_10, # of connection points: 2
#     Edge 19, Type (0, 1), BuildingBlock: TEMPAE_clean_linker_10, # of connection points: 2
#     Edge 20, Type (0, 1), BuildingBlock: TEMPAE_clean_linker_10, # of connection points: 2
#     Edge 21, Type (0, 1), BuildingBlock: TEMPAE_clean_linker_10, # of connection points: 2
#     Edge 22, Type (0, 1), BuildingBlock: TEMPAE_clean_linker_10, # of connection points: 2
#     Edge 23, Type (0, 1), BuildingBlock: TEMPAE_clean_linker_10, # of connection points: 2
#     Edge 24, Type (0, 1), BuildingBlock: TEMPAE_clean_linker_10, # of connection points: 2
#     Edge 25, Type (0, 1), BuildingBlock: TEMPAE_clean_linker_10, # of connection points: 2
#     Edge 26, Type (0, 1), BuildingBlock: TEMPAE_clean_linker_10, # of connection points: 2
#     Edge 27, Type (0, 1), BuildingBlock: TEMPAE_clean_linker_10, # of connection points: 2
#     Edge 28, Type (0, 1), BuildingBlock: TEMPAE_clean_linker_10, # of connection points: 2
#     Edge 29, Type (0, 1), BuildingBlock: TEMPAE_clean_linker_10, # of connection points: 2
#     Edge 30, Type (0, 1), BuildingBlock: TEMPAE_clean_linker_10, # of connection points: 2
#     Edge 31, Type (0, 1), BuildingBlock: TEMPAE_clean_linker_10, # of connection points: 2
#     Edge 32, Type (0, 1), BuildingBlock: TEMPAE_clean_linker_10, # of connection points: 2
#     Edge 33, Type (0, 1), BuildingBlock: TEMPAE_clean_linker_10, # of connection points: 2
#     Edge 34, Type (0, 1), BuildingBlock: TEMPAE_clean_linker_10, # of connection points: 2
#     Edge 35, Type (0, 1), BuildingBlock: TEMPAE_clean_linker_10, # of connection points: 2
# Relax obj value: 0.057
# Max RMSD: 0.072
# Mean RMSD: 0.069
data_MOF--net-cml--node1-IZENUY_clean_sbu_0--node2-MIDCAF_clean_linker_0--edge1-TEMPAE_clean_linker_10
_symmetry_space_group_name_H-M    P1
_symmetry_Int_Tables_number       1
_symmetry_cell_setting            triclinic
loop_
_symmetry_equiv_pos_as_xyz
'x, y, z'
_cell_length_a     43.533222
_cell_length_b     50.591374
_cell_length_c     47.142781
_cell_angle_alpha  90.041148
_cell_angle_beta   90.015701
_cell_angle_gamma 90.082453
loop_
_atom_site_label
_atom_site_type_symbol
_atom_site_fract_x
_atom_site_fract_y
_atom_site_fract_z
_atom_type_partial_charge
C0 C 0.33131 0.39338 0.10588 0.0
C1 C 0.32657 0.36808 0.11725 0.0
C2 C 0.30679 0.35049 0.10305 0.0
C3 C 0.29299 0.35781 0.07735 0.0
H4 H 0.2354 0.33231 0.01192 0.0
H5 H 0.20102 0.30335 0.98543 0.0
H6 H 0.1923 0.36265 0.92012 0.0
H7 H 0.22635 0.39185 0.94663 0.0
H8 H 0.2605 0.45074 0.95672 0.0
H9 H 0.2824 0.49037 0.93491 0.0
H10 H 0.36294 0.48242 0.98798 0.0
H11 H 0.34047 0.44413 0.01053 0.0
H12 H 0.32227 0.42028 0.07222 0.0
H13 H 0.34588 0.40758 0.11665 0.0
H14 H 0.30276 0.33083 0.11135 0.0
H15 H 0.27848 0.34363 0.06651 0.0
N16 N 0.26582 0.37484 0.02332 0.0
N17 N 0.26536 0.40481 0.98519 0.0
N18 N 0.29619 0.41304 0.0249 0.0
C19 C 0.25521 0.38194 0.99721 0.0
C20 C 0.28596 0.42039 0.99894 0.0
C21 C 0.28621 0.39047 0.03737 0.0
C22 C 0.23372 0.36447 0.98147 0.0
C23 C 0.22613 0.33928 0.99197 0.0
C24 C 0.2066 0.32256 0.97668 0.0
C25 C 0.19407 0.33069 0.95063 0.0
C26 C 0.20141 0.35592 0.94023 0.0
C27 C 0.22106 0.3726 0.95542 0.0
C28 C 0.29866 0.44441 0.98546 0.0
C29 C 0.28279 0.45768 0.96378 0.0
C30 C 0.29542 0.48031 0.95122 0.0
C31 C 0.32439 0.48985 0.95979 0.0
C32 C 0.34021 0.47629 0.98133 0.0
C33 C 0.3274 0.45408 0.99416 0.0
C34 C 0.29869 0.38287 0.06549 0.0
C35 C 0.31761 0.40067 0.08038 0.0
C36 C 0.67811 0.61284 0.60858 0.0
C37 C 0.67973 0.63921 0.61774 0.0
C38 C 0.69392 0.6581 0.60029 0.0
C39 C 0.70601 0.65074 0.57394 0.0
H40 H 0.78846 0.65772 0.51845 0.0
H41 H 0.82516 0.68578 0.49312 0.0
H42 H 0.7892 0.65807 0.41314 0.0
H43 H 0.75284 0.62964 0.43826 0.0
H44 H 0.73747 0.55379 0.45977 0.0
H45 H 0.71319 0.51685 0.43522 0.0
H46 H 0.62571 0.53871 0.47207 0.0
H47 H 0.65073 0.57407 0.4982 0.0
H48 H 0.68751 0.58518 0.57538 0.0
H49 H 0.66699 0.59796 0.62155 0.0
H50 H 0.69542 0.67856 0.60694 0.0
H51 H 0.71647 0.66578 0.56074 0.0
N52 N 0.73583 0.63156 0.52211 0.0
N53 N 0.73237 0.60364 0.48244 0.0
N54 N 0.70144 0.59581 0.52228 0.0
C55 C 0.74506 0.62497 0.49548 0.0
C56 C 0.71057 0.58901 0.49574 0.0
C57 C 0.71411 0.61697 0.53568 0.0
C58 C 0.76779 0.64146 0.48035 0.0
C59 C 0.78845 0.65754 0.49547 0.0
C60 C 0.8095 0.67348 0.48104 0.0
C61 C 0.80984 0.67401 0.45127 0.0
C62 C 0.78922 0.65802 0.43613 0.0
C63 C 0.76857 0.64169 0.45052 0.0
C64 C 0.69597 0.5666 0.48096 0.0
C65 C 0.71309 0.55043 0.46269 0.0
C66 C 0.69904 0.5294 0.44843 0.0
C67 C 0.66732 0.52457 0.45148 0.0
C68 C 0.65027 0.54115 0.46963 0.0
C69 C 0.66453 0.56163 0.48451 0.0
C70 C 0.70348 0.62449 0.56436 0.0
C71 C 0.68964 0.60559 0.58208 0.0
C72 C 0.67572 0.38673 0.10684 0.0
C73 C 0.67571 0.36012 0.11527 0.0
C74 C 0.68903 0.34111 0.09737 0.0
C75 C 0.70183 0.34859 0.07135 0.0
H76 H 0.75112 0.3214 0.00011 0.0
H77 H 0.78645 0.29285 0.97398 0.0
H78 H 0.81811 0.35995 0.92563 0.0
H79 H 0.78244 0.38859 0.95138 0.0
H80 H 0.73017 0.43658 0.94597 0.0
H81 H 0.70587 0.47401 0.9221 0.0
H82 H 0.64204 0.48184 0.99162 0.0
H83 H 0.666 0.44464 0.01552 0.0
H84 H 0.68722 0.41479 0.07469 0.0
H85 H 0.66529 0.40175 0.12009 0.0
H86 H 0.68935 0.32046 0.10344 0.0
H87 H 0.7116 0.33346 0.05782 0.0
N88 N 0.73228 0.36726 0.01969 0.0
N89 N 0.73274 0.39758 0.98197 0.0
N90 N 0.70284 0.40592 0.0223 0.0
C91 C 0.74264 0.37454 0.99362 0.0
C92 C 0.71266 0.41332 0.99614 0.0
C93 C 0.71259 0.38303 0.03427 0.0
C94 C 0.76402 0.35726 0.97783 0.0
C95 C 0.76558 0.33009 0.9839 0.0
C96 C 0.78561 0.31372 0.96886 0.0
C97 C 0.80486 0.32427 0.94783 0.0
C98 C 0.8035 0.35141 0.94183 0.0
C99 C 0.78304 0.36773 0.95649 0.0
C100 C 0.69992 0.43739 0.98259 0.0
C101 C 0.71111 0.44639 0.9563 0.0
C102 C 0.69732 0.46789 0.94266 0.0
C103 C 0.67192 0.48061 0.95491 0.0
C104 C 0.66133 0.47214 0.98152 0.0
C105 C 0.67522 0.45087 0.99526 0.0
C106 C 0.70102 0.37514 0.06255 0.0
C107 C 0.68807 0.39414 0.08072 0.0
C108 C 0.31642 0.60693 0.61478 0.0
C109 C 0.32117 0.63375 0.62092 0.0
C110 C 0.31157 0.65299 0.60147 0.0
C111 C 0.2978 0.64547 0.57591 0.0
H112 H 0.22093 0.66086 0.52062 0.0
H113 H 0.18612 0.69 0.49524 0.0
H114 H 0.20438 0.64785 0.41743 0.0
H115 H 0.23952 0.61847 0.44279 0.0
H116 H 0.27896 0.56386 0.44699 0.0
H117 H 0.3048 0.52631 0.42485 0.0
H118 H 0.3448 0.50541 0.50558 0.0
H119 H 0.31954 0.5429 0.52766 0.0
H120 H 0.30074 0.57851 0.58434 0.0
H121 H 0.32393 0.59182 0.6295 0.0
H122 H 0.31524 0.67378 0.60586 0.0
H123 H 0.29115 0.66068 0.56096 0.0
N124 N 0.26368 0.62643 0.52605 0.0
N125 N 0.26504 0.59695 0.48757 0.0
N126 N 0.29301 0.58779 0.52893 0.0
C127 C 0.25439 0.6197 0.49948 0.0
C128 C 0.28435 0.58084 0.50227 0.0
C129 C 0.28288 0.61053 0.5409 0.0
C130 C 0.23309 0.63726 0.48377 0.0
C131 C 0.21765 0.65771 0.4981 0.0
C132 C 0.19752 0.67436 0.48361 0.0
C133 C 0.19248 0.67114 0.4544 0.0
C134 C 0.208 0.65086 0.43994 0.0
C135 C 0.22798 0.63397 0.45451 0.0
C136 C 0.29741 0.55668 0.48907 0.0
C137 C 0.29302 0.55113 0.4601 0.0
C138 C 0.30772 0.52954 0.44741 0.0
C139 C 0.3271 0.51307 0.46342 0.0
C140 C 0.33049 0.51802 0.49256 0.0
C141 C 0.31586 0.53952 0.50522 0.0
C142 C 0.29422 0.61857 0.56915 0.0
C143 C 0.30334 0.59937 0.58896 0.0
C144 C 0.8375 0.8952 0.09969 0.0
C145 C 0.8327 0.87032 0.11211 0.0
C146 C 0.81231 0.85251 0.09902 0.0
C147 C 0.79784 0.85918 0.07346 0.0
H148 H 0.74874 0.82799 0.0035 0.0
H149 H 0.7133 0.79826 0.97891 0.0
H150 H 0.68099 0.86323 0.92777 0.0
H151 H 0.71672 0.89303 0.95197 0.0
H152 H 0.77111 0.93921 0.94112 0.0
H153 H 0.7959 0.97492 0.91454 0.0
H154 H 0.86023 0.98634 0.98314 0.0
H155 H 0.83584 0.95102 0.0097 0.0
H156 H 0.8278 0.92112 0.06525 0.0
H157 H 0.85256 0.90956 0.10958 0.0
H158 H 0.80825 0.83316 0.10808 0.0
H159 H 0.78281 0.84482 0.06354 0.0
N160 N 0.76918 0.8745 0.01984 0.0
N161 N 0.76759 0.90293 0.98043 0.0
N162 N 0.79976 0.91258 0.01884 0.0
C163 C 0.75768 0.88069 0.99383 0.0
C164 C 0.78876 0.91894 0.99281 0.0
C165 C 0.79008 0.89056 0.03259 0.0
C166 C 0.73553 0.86286 0.97966 0.0
C167 C 0.73403 0.83598 0.98709 0.0
C168 C 0.71394 0.81893 0.97293 0.0
C169 C 0.69459 0.82853 0.95146 0.0
C170 C 0.69568 0.85543 0.94432 0.0
C171 C 0.71618 0.87241 0.9581 0.0
C172 C 0.80162 0.94201 0.97747 0.0
C173 C 0.79038 0.94948 0.95064 0.0
C174 C 0.80446 0.96995 0.93544 0.0
C175 C 0.83017 0.98308 0.94669 0.0
C176 C 0.84073 0.97622 0.97381 0.0
C177 C 0.82659 0.95601 0.98906 0.0
C178 C 0.80349 0.8838 0.06058 0.0
C179 C 0.82314 0.90184 0.07427 0.0
C180 C 0.16009 0.11058 0.59305 0.0
C181 C 0.17614 0.12458 0.61421 0.0
C182 C 0.20652 0.13265 0.60858 0.0
C183 C 0.2203 0.12703 0.58244 0.0
H184 H 0.27163 0.16612 0.51713 0.0
H185 H 0.3077 0.19678 0.49508 0.0
H186 H 0.31881 0.14315 0.42455 0.0
H187 H 0.28313 0.11232 0.44653 0.0
H188 H 0.22093 0.07417 0.43502 0.0
H189 H 0.19864 0.0378 0.40758 0.0
H190 H 0.17234 0.99874 0.48522 0.0
H191 H 0.19408 0.03517 0.51274 0.0
H192 H 0.16092 0.09376 0.55147 0.0
H193 H 0.13642 0.10465 0.59611 0.0
H194 H 0.21983 0.14311 0.62443 0.0
H195 H 0.24366 0.13353 0.57869 0.0
N196 N 0.23996 0.12313 0.52264 0.0
N197 N 0.24178 0.09699 0.48154 0.0
N198 N 0.20875 0.08546 0.51875 0.0
C199 C 0.25176 0.11835 0.49642 0.0
C200 C 0.22045 0.08038 0.49264 0.0
C201 C 0.21838 0.10677 0.53387 0.0
C202 C 0.2744 0.13671 0.48363 0.0
C203 C 0.28184 0.16076 0.49699 0.0
C204 C 0.30235 0.17843 0.48429 0.0
C205 C 0.31599 0.17237 0.45808 0.0
C206 C 0.30886 0.14823 0.44489 0.0
C207 C 0.28826 0.13063 0.45747 0.0
C208 C 0.20908 0.05759 0.47604 0.0
C209 C 0.21068 0.0577 0.44625 0.0
C210 C 0.1979 0.03698 0.43053 0.0
C211 C 0.18392 0.01556 0.44436 0.0
C212 C 0.18326 0.01498 0.47412 0.0
C213 C 0.19549 0.0359 0.48982 0.0
C214 C 0.20423 0.11274 0.56162 0.0
C215 C 0.17407 0.10447 0.56727 0.0
C216 C 0.1521 0.87492 0.09093 0.0
C217 C 0.16586 0.85476 0.10694 0.0
C218 C 0.19356 0.84365 0.09741 0.0
C219 C 0.20706 0.85241 0.07213 0.0
H220 H 0.26315 0.82802 0.00601 0.0
H221 H 0.29906 0.80028 0.98015 0.0
H222 H 0.30903 0.8609 0.91638 0.0
H223 H 0.27325 0.88901 0.94237 0.0
H224 H 0.23884 0.94804 0.95586 0.0
H225 H 0.21878 0.98915 0.93594 0.0
H226 H 0.13397 0.97743 0.98206 0.0
H227 H 0.15452 0.93749 0.00284 0.0
H228 H 0.15439 0.89948 0.05424 0.0
H229 H 0.13097 0.88411 0.09798 0.0
H230 H 0.2046 0.82805 0.10937 0.0
H231 H 0.22838 0.84345 0.06527 0.0
N232 N 0.22968 0.86839 0.01623 0.0
N233 N 0.23239 0.90051 0.98033 0.0
N234 N 0.19775 0.90552 0.018 0.0
C235 C 0.2422 0.8772 0.99153 0.0
C236 C 0.21012 0.91475 0.99352 0.0
C237 C 0.20748 0.88249 0.02961 0.0
C238 C 0.26515 0.86081 0.97629 0.0
C239 C 0.273 0.8356 0.98654 0.0
C240 C 0.29343 0.81955 0.97161 0.0
C241 C 0.30665 0.82831 0.94611 0.0
C242 C 0.2993 0.85367 0.93605 0.0
C243 C 0.27871 0.86972 0.95093 0.0
C244 C 0.19834 0.93959 0.98103 0.0
C245 C 0.21598 0.95442 0.96179 0.0
C246 C 0.20441 0.97793 0.95031 0.0
C247 C 0.17478 0.98686 0.95752 0.0
C248 C 0.15719 0.97175 0.97658 0.0
C249 C 0.16891 0.94861 0.98837 0.0
C250 C 0.19332 0.87272 0.0562 0.0
C251 C 0.1657 0.88386 0.06595 0.0
C252 C 0.82278 0.10832 0.60998 0.0
C253 C 0.82136 0.13467 0.61927 0.0
C254 C 0.8063 0.15345 0.60232 0.0
C255 C 0.79364 0.14613 0.57619 0.0
H256 H 0.70887 0.14831 0.51654 0.0
H257 H 0.67412 0.17789 0.49181 0.0
H258 H 0.72806 0.1689 0.41525 0.0
H259 H 0.76126 0.13756 0.43977 0.0
H260 H 0.7863 0.07001 0.4411 0.0
H261 H 0.81167 0.03266 0.4182 0.0
H262 H 0.85115 0.00982 0.49857 0.0
H263 H 0.82644 0.04721 0.52136 0.0
H264 H 0.81282 0.08075 0.57681 0.0
H265 H 0.83451 0.0935 0.62252 0.0
H266 H 0.80479 0.17387 0.60909 0.0
H267 H 0.78284 0.16121 0.56331 0.0
N268 N 0.76648 0.12868 0.52279 0.0
N269 N 0.77121 0.10153 0.48255 0.0
N270 N 0.79792 0.09118 0.52429 0.0
C271 C 0.75887 0.12309 0.49549 0.0
C272 C 0.79059 0.08531 0.49698 0.0
C273 C 0.78612 0.11285 0.5373 0.0
C274 C 0.73769 0.14069 0.48004 0.0
C275 C 0.71311 0.15259 0.49437 0.0
C276 C 0.69337 0.16981 0.48017 0.0
C277 C 0.69828 0.17627 0.45145 0.0
C278 C 0.72304 0.16421 0.43716 0.0
C279 C 0.74226 0.14634 0.45122 0.0
C280 C 0.80449 0.06185 0.48307 0.0
C281 C 0.80026 0.05697 0.45393 0.0
C282 C 0.81468 0.03547 0.44081 0.0
C283 C 0.83361 0.01838 0.45653 0.0
C284 C 0.83717 0.02288 0.48575 0.0
C285 C 0.82285 0.04433 0.49884 0.0
C286 C 0.79628 0.11999 0.56631 0.0
C287 C 0.81054 0.10108 0.58371 0.0
Fe288 Fe 0.00263 0.8074 0.31664 0.0
Fe289 Fe 0.0033 0.83771 0.37321 0.0
O290 O 0.00325 0.83768 0.33566 0.0
Fe291 Fe 0.0039 0.86806 0.31713 0.0
O292 O 0.96763 0.8607 0.3001 0.0
O293 O 0.97982 0.82039 0.28688 0.0
O294 O 0.96672 0.79756 0.33291 0.0
C295 C 0.96214 0.79633 0.35927 0.0
C296 C 0.04327 0.83556 0.28445 0.0
O297 O 0.97999 0.80771 0.37661 0.0
C298 C 0.04459 0.87908 0.35938 0.0
O299 O 0.02521 0.78908 0.34304 0.0
O300 O 0.03889 0.81916 0.37429 0.0
O301 O 0.02586 0.85543 0.28692 0.0
O302 O 0.03861 0.815 0.29893 0.0
C303 C 0.96394 0.87858 0.36327 0.0
O304 O 0.02654 0.86785 0.37666 0.0
O305 O 0.04031 0.87729 0.33301 0.0
C306 C 0.04297 0.797 0.36259 0.0
O307 O 0.96769 0.85626 0.37463 0.0
O308 O 0.98195 0.88643 0.34393 0.0
C309 C 0.96259 0.84051 0.28509 0.0
Fe310 Fe 0.00279 0.1639 0.87204 0.0
Fe311 Fe 0.00597 0.13296 0.81639 0.0
O312 O 0.00392 0.1635 0.83457 0.0
Fe313 Fe 0.00316 0.19343 0.81513 0.0
O314 O 0.03807 0.20516 0.83217 0.0
O315 O 0.02416 0.19494 0.87564 0.0
O316 O 0.03945 0.1469 0.87451 0.0
C317 C 0.04435 0.12447 0.86383 0.0
C318 C 0.96114 0.20265 0.86014 0.0
O319 O 0.02728 0.11565 0.8443 0.0
C320 C 0.96576 0.16298 0.78218 0.0
O321 O 0.98078 0.13297 0.87496 0.0
O322 O 0.96947 0.12238 0.8309 0.0
O323 O 0.97859 0.21108 0.84061 0.0
O324 O 0.96635 0.18092 0.87224 0.0
C325 C 0.04651 0.16194 0.78551 0.0
O326 O 0.98489 0.14435 0.785 0.0
O327 O 0.96812 0.18369 0.7969 0.0
C328 C 0.96381 0.12111 0.85712 0.0
O329 O 0.04264 0.14188 0.80097 0.0
O330 O 0.02759 0.18099 0.78611 0.0
C331 C 0.04171 0.2071 0.85866 0.0
Fe332 Fe 0.50081 0.30901 0.31886 0.0
Fe333 Fe 0.50651 0.34021 0.37433 0.0
O334 O 0.50213 0.33968 0.33704 0.0
Fe335 Fe 0.49891 0.3696 0.31783 0.0
O336 O 0.46156 0.3602 0.30416 0.0
O337 O 0.47529 0.32057 0.29038 0.0
O338 O 0.46667 0.29908 0.33811 0.0
C339 C 0.46516 0.2978 0.36482 0.0
C340 C 0.53714 0.33769 0.2832 0.0
O341 O 0.48484 0.3095 0.3802 0.0
C342 C 0.54359 0.38294 0.35593 0.0
O343 O 0.52594 0.29151 0.34394 0.0
O344 O 0.54288 0.32285 0.37211 0.0
O345 O 0.51878 0.35693 0.28626 0.0
O346 O 0.53493 0.31735 0.29859 0.0
C347 C 0.46387 0.37946 0.36744 0.0
O348 O 0.52884 0.37089 0.37509 0.0
O349 O 0.53589 0.38135 0.33022 0.0
C350 C 0.54591 0.30038 0.36097 0.0
O351 O 0.47051 0.35776 0.37909 0.0
O352 O 0.47865 0.38751 0.34598 0.0
C353 C 0.45666 0.33975 0.28957 0.0
Fe354 Fe 0.50229 0.66296 0.87499 0.0
Fe355 Fe 0.50224 0.63073 0.82007 0.0
O356 O 0.50232 0.66179 0.83747 0.0
Fe357 Fe 0.50234 0.69143 0.81749 0.0
O358 O 0.52618 0.70996 0.84295 0.0
O359 O 0.53825 0.68073 0.87572 0.0
O360 O 0.52481 0.6325 0.87941 0.0
C361 C 0.54289 0.62073 0.86253 0.0
C362 C 0.46272 0.70513 0.86007 0.0
O363 O 0.53853 0.62168 0.83611 0.0
C364 C 0.46112 0.65777 0.78757 0.0
O365 O 0.466 0.64533 0.87662 0.0
O366 O 0.4803 0.61358 0.84779 0.0
O367 O 0.46689 0.70259 0.83376 0.0
O368 O 0.48018 0.69366 0.87759 0.0
C369 C 0.54152 0.66162 0.78551 0.0
O370 O 0.4661 0.63783 0.80291 0.0
O371 O 0.47839 0.67798 0.78865 0.0
C372 C 0.46197 0.62265 0.86621 0.0
O373 O 0.52391 0.64201 0.78905 0.0
O374 O 0.53783 0.68253 0.79963 0.0
C375 C 0.54324 0.7023 0.86316 0.0
C376 C 0.18016 0.28605 0.9314 0.0
C377 C 0.17317 0.31295 0.93453 0.0
C378 C 0.16002 0.26886 0.91721 0.0
C379 C 0.13215 0.27878 0.90604 0.0
C380 C 0.12529 0.30603 0.90856 0.0
C381 C 0.14592 0.3228 0.92273 0.0
C382 C 0.16822 0.23995 0.91479 0.0
C383 C 0.09568 0.31732 0.89712 0.0
C384 C 0.08701 0.23749 0.85283 0.0
C385 C 0.06508 0.22544 0.87041 0.0
C386 C 0.10915 0.25484 0.8641 0.0
C387 C 0.10916 0.26036 0.89356 0.0
C388 C 0.08708 0.24829 0.91136 0.0
C389 C 0.06543 0.23094 0.89961 0.0
C390 C 0.13252 0.26723 0.84454 0.0
C391 C 0.08622 0.25376 0.94286 0.0
H392 H 0.20143 0.27843 0.94011 0.0
H393 H 0.14028 0.34353 0.92531 0.0
H394 H 0.15149 0.2279 0.92697 0.0
H395 H 0.16685 0.23346 0.89234 0.0
H396 H 0.19166 0.23572 0.92292 0.0
H397 H 0.09466 0.33917 0.89925 0.0
H398 H 0.09292 0.31207 0.87441 0.0
H399 H 0.07591 0.30863 0.9087 0.0
H400 H 0.08701 0.23327 0.83029 0.0
H401 H 0.04857 0.22181 0.91341 0.0
H402 H 0.15606 0.26204 0.8516 0.0
H403 H 0.13061 0.28908 0.84539 0.0
H404 H 0.12959 0.26072 0.82219 0.0
H405 H 0.10837 0.24802 0.95271 0.0
H406 H 0.06741 0.2429 0.95372 0.0
H407 H 0.08308 0.27524 0.94667 0.0
C408 C 0.86293 0.69026 0.44174 0.0
C409 C 0.83141 0.69151 0.43605 0.0
C410 C 0.88363 0.70702 0.42772 0.0
C411 C 0.87235 0.72582 0.40807 0.0
C412 C 0.84049 0.72712 0.40224 0.0
C413 C 0.82039 0.70971 0.41612 0.0
C414 C 0.91753 0.70472 0.43408 0.0
C415 C 0.82757 0.74728 0.3819 0.0
C416 C 0.92379 0.78531 0.3965 0.0
C417 C 0.93762 0.77917 0.3705 0.0
C418 C 0.90169 0.76854 0.40848 0.0
C419 C 0.89388 0.74472 0.39442 0.0
C420 C 0.90748 0.73859 0.36794 0.0
C421 C 0.92896 0.75611 0.35609 0.0
C422 C 0.88711 0.77609 0.43639 0.0
C423 C 0.90014 0.71313 0.35264 0.0
H424 H 0.87138 0.676 0.45701 0.0
H425 H 0.79593 0.71073 0.41194 0.0
H426 H 0.93058 0.70178 0.41411 0.0
H427 H 0.92596 0.72331 0.44387 0.0
H428 H 0.92268 0.68809 0.44868 0.0
H429 H 0.80229 0.74539 0.37937 0.0
H430 H 0.83289 0.7675 0.38962 0.0
H431 H 0.83848 0.74513 0.36077 0.0
H432 H 0.93029 0.8033 0.40751 0.0
H433 H 0.93982 0.75127 0.33605 0.0
H434 H 0.89381 0.76168 0.453 0.0
H435 H 0.86171 0.77544 0.43457 0.0
H436 H 0.89405 0.79617 0.44349 0.0
H437 H 0.90715 0.69607 0.36592 0.0
H438 H 0.91201 0.71168 0.33183 0.0
H439 H 0.87503 0.71141 0.34909 0.0
C440 C 0.81657 0.28377 0.91952 0.0
C441 C 0.82678 0.30702 0.93265 0.0
C442 C 0.83732 0.26679 0.90587 0.0
C443 C 0.86905 0.27298 0.90599 0.0
C444 C 0.87941 0.29659 0.91906 0.0
C445 C 0.85806 0.31348 0.932 0.0
C446 C 0.82536 0.24207 0.89166 0.0
C447 C 0.91311 0.30363 0.92009 0.0
C448 C 0.92597 0.21666 0.89915 0.0
C449 C 0.93652 0.21988 0.87126 0.0
C450 C 0.90392 0.23375 0.91064 0.0
C451 C 0.89163 0.25422 0.89363 0.0
C452 C 0.90152 0.25711 0.86519 0.0
C453 C 0.92414 0.24007 0.85442 0.0
C454 C 0.89433 0.2303 0.94121 0.0
C455 C 0.88842 0.27834 0.84624 0.0
H456 H 0.7923 0.27894 0.91986 0.0
H457 H 0.86592 0.33139 0.94238 0.0
H458 H 0.83343 0.24121 0.86936 0.0
H459 H 0.83449 0.22436 0.90263 0.0
H460 H 0.79987 0.24104 0.89183 0.0
H461 H 0.91731 0.32296 0.93061 0.0
H462 H 0.9259 0.28811 0.93179 0.0
H463 H 0.92271 0.30442 0.89832 0.0
H464 H 0.93559 0.20119 0.91233 0.0
H465 H 0.93205 0.24248 0.83277 0.0
H466 H 0.86914 0.22722 0.94255 0.0
H467 H 0.89977 0.24849 0.95339 0.0
H468 H 0.90597 0.2133 0.95151 0.0
H469 H 0.86299 0.27684 0.8457 0.0
H470 H 0.89728 0.277 0.82419 0.0
H471 H 0.89424 0.29812 0.85487 0.0
C472 C 0.14212 0.6946 0.45095 0.0
C473 C 0.17099 0.68897 0.43927 0.0
C474 C 0.12185 0.71208 0.43749 0.0
C475 C 0.13077 0.72442 0.41183 0.0
C476 C 0.15982 0.71868 0.39981 0.0
C477 C 0.17955 0.70089 0.41361 0.0
C478 C 0.09092 0.71742 0.4508 0.0
C479 C 0.17021 0.73162 0.3726 0.0
C480 C 0.06682 0.7521 0.36588 0.0
C481 C 0.06663 0.77881 0.37396 0.0
C482 C 0.08795 0.73427 0.37764 0.0
C483 C 0.10963 0.74341 0.39776 0.0
C484 C 0.11017 0.77048 0.40541 0.0
C485 C 0.08858 0.78783 0.39351 0.0
C486 C 0.08651 0.70552 0.36909 0.0
C487 C 0.13317 0.78101 0.42659 0.0
H488 H 0.13531 0.68517 0.47062 0.0
H489 H 0.20198 0.69675 0.40468 0.0
H490 H 0.08879 0.73874 0.45595 0.0
H491 H 0.07232 0.71251 0.43558 0.0
H492 H 0.08726 0.70583 0.47052 0.0
H493 H 0.19336 0.72484 0.36588 0.0
H494 H 0.15363 0.72728 0.35534 0.0
H495 H 0.1708 0.7534 0.37534 0.0
H496 H 0.04997 0.74491 0.35079 0.0
H497 H 0.08878 0.80847 0.39971 0.0
H498 H 0.08076 0.69322 0.38784 0.0
H499 H 0.10924 0.69887 0.36124 0.0
H500 H 0.0691 0.70179 0.35232 0.0
H501 H 0.12916 0.77176 0.4476 0.0
H502 H 0.13173 0.80282 0.42902 0.0
H503 H 0.15684 0.77576 0.41994 0.0
C504 C 0.68414 0.7871 0.92431 0.0
C505 C 0.67322 0.81046 0.93664 0.0
C506 C 0.66403 0.76953 0.91064 0.0
C507 C 0.63222 0.77527 0.90989 0.0
C508 C 0.62113 0.79896 0.9222 0.0
C509 C 0.64186 0.81642 0.9352 0.0
C510 C 0.67676 0.74473 0.89727 0.0
C511 C 0.5873 0.8055 0.9223 0.0
C512 C 0.57942 0.74043 0.85762 0.0
C513 C 0.56702 0.7203 0.87455 0.0
C514 C 0.60125 0.75814 0.86863 0.0
C515 C 0.61032 0.75596 0.89739 0.0
C516 C 0.59796 0.73559 0.91451 0.0
C517 C 0.57671 0.71783 0.9028 0.0
C518 C 0.61447 0.77926 0.84959 0.0
C519 C 0.60666 0.73289 0.9454 0.0
H520 H 0.70849 0.78268 0.92523 0.0
H521 H 0.63347 0.83445 0.94493 0.0
H522 H 0.6675 0.72709 0.90832 0.0
H523 H 0.66943 0.7434 0.87476 0.0
H524 H 0.70225 0.74402 0.89816 0.0
H525 H 0.58251 0.82493 0.93235 0.0
H526 H 0.5783 0.8058 0.90029 0.0
H527 H 0.57444 0.78999 0.93398 0.0
H528 H 0.57215 0.74226 0.83571 0.0
H529 H 0.56705 0.70242 0.91605 0.0
H530 H 0.63992 0.77814 0.84963 0.0
H531 H 0.60811 0.79909 0.85772 0.0
H532 H 0.6062 0.77744 0.82738 0.0
H533 H 0.63184 0.73019 0.94747 0.0
H534 H 0.59496 0.71594 0.95579 0.0
H535 H 0.60058 0.75124 0.957 0.0
C536 C 0.36496 0.18215 0.43239 0.0
C537 C 0.33744 0.1912 0.44436 0.0
C538 C 0.38538 0.19968 0.41913 0.0
C539 C 0.378 0.22689 0.41774 0.0
C540 C 0.3502 0.23615 0.4297 0.0
C541 C 0.33027 0.21818 0.44295 0.0
C542 C 0.41495 0.18913 0.40682 0.0
C543 C 0.34152 0.26502 0.42847 0.0
C544 C 0.4437 0.27521 0.4076 0.0
C545 C 0.44226 0.2802 0.37834 0.0
C546 C 0.42278 0.25805 0.4207 0.0
C547 C 0.3997 0.24571 0.40421 0.0
C548 C 0.39777 0.25093 0.37477 0.0
C549 C 0.41914 0.26808 0.36215 0.0
C550 C 0.42562 0.25287 0.45215 0.0
C551 C 0.37331 0.23823 0.35657 0.0
H552 H 0.37073 0.16135 0.43372 0.0
H553 H 0.30883 0.22519 0.45188 0.0
H554 H 0.41627 0.19388 0.38389 0.0
H555 H 0.43487 0.19878 0.41727 0.0
H556 H 0.41711 0.16739 0.40944 0.0
H557 H 0.31888 0.26895 0.43847 0.0
H558 H 0.3592 0.27711 0.43941 0.0
H559 H 0.3407 0.27172 0.40608 0.0
H560 H 0.46147 0.28447 0.42031 0.0
H561 H 0.41773 0.27194 0.33958 0.0
H562 H 0.42982 0.23153 0.45589 0.0
H563 H 0.40384 0.25801 0.46303 0.0
H564 H 0.44459 0.26435 0.46202 0.0
H565 H 0.3759 0.21642 0.35702 0.0
H566 H 0.3744 0.24495 0.33416 0.0
H567 H 0.3502 0.24286 0.36514 0.0
C568 C 0.35576 0.82101 0.91949 0.0
C569 C 0.32809 0.81095 0.93024 0.0
C570 C 0.37707 0.80438 0.90606 0.0
C571 C 0.37045 0.77708 0.90325 0.0
C572 C 0.3421 0.767 0.9132 0.0
C573 C 0.32129 0.78405 0.92662 0.0
C574 C 0.40714 0.81582 0.89582 0.0
C575 C 0.33412 0.73805 0.91044 0.0
C576 C 0.41786 0.73545 0.85227 0.0
C577 C 0.43888 0.72348 0.87081 0.0
C578 C 0.3954 0.75298 0.86247 0.0
C579 C 0.39407 0.75873 0.89184 0.0
C580 C 0.41522 0.74673 0.91062 0.0
C581 C 0.43726 0.72922 0.89991 0.0
C582 C 0.37308 0.7653 0.84186 0.0
C583 C 0.4146 0.7524 0.94209 0.0
H584 H 0.36122 0.84175 0.92241 0.0
H585 H 0.29969 0.77628 0.93448 0.0
H586 H 0.42635 0.8074 0.90836 0.0
H587 H 0.41111 0.81041 0.87332 0.0
H588 H 0.40786 0.8377 0.89779 0.0
H589 H 0.31029 0.73371 0.91747 0.0
H590 H 0.33672 0.73153 0.88809 0.0
H591 H 0.35021 0.7261 0.92341 0.0
H592 H 0.41886 0.73107 0.82978 0.0
H593 H 0.4534 0.72013 0.91443 0.0
H594 H 0.37499 0.78716 0.84273 0.0
H595 H 0.34919 0.76011 0.84791 0.0
H596 H 0.37712 0.75874 0.81968 0.0
H597 H 0.41752 0.7739 0.94588 0.0
H598 H 0.4329 0.74166 0.95378 0.0
H599 H 0.39201 0.74662 0.95106 0.0
C600 C 0.67106 0.19284 0.40761 0.0
C601 C 0.67769 0.1955 0.43667 0.0
C602 C 0.65132 0.21057 0.39374 0.0
C603 C 0.63692 0.23092 0.40944 0.0
C604 C 0.6435 0.23385 0.43866 0.0
C605 C 0.66422 0.21649 0.45174 0.0
C606 C 0.64552 0.20727 0.36235 0.0
C607 C 0.62807 0.25493 0.45632 0.0
C608 C 0.60023 0.29046 0.37377 0.0
C609 C 0.56952 0.28243 0.37211 0.0
C610 C 0.62273 0.27348 0.3849 0.0
C611 C 0.61389 0.24845 0.3957 0.0
C612 C 0.58273 0.24046 0.39424 0.0
C613 C 0.56101 0.25737 0.38194 0.0
C614 C 0.65586 0.2823 0.38513 0.0
C615 C 0.57216 0.21439 0.40644 0.0
H616 H 0.68082 0.1766 0.39567 0.0
H617 H 0.66971 0.21942 0.47392 0.0
H618 H 0.62133 0.20124 0.35874 0.0
H619 H 0.64907 0.22635 0.35122 0.0
H620 H 0.66078 0.19217 0.35267 0.0
H621 H 0.63531 0.2543 0.47891 0.0
H622 H 0.63346 0.27479 0.44772 0.0
H623 H 0.60276 0.25243 0.45532 0.0
H624 H 0.60667 0.30986 0.366 0.0
H625 H 0.53709 0.2514 0.38089 0.0
H626 H 0.67048 0.26716 0.37475 0.0
H627 H 0.66404 0.28439 0.4073 0.0
H628 H 0.65919 0.30148 0.37408 0.0
H629 H 0.58427 0.19782 0.39587 0.0
H630 H 0.54702 0.21135 0.40399 0.0
H631 H 0.57796 0.21348 0.42934 0.0
C632 C 0.3578 0.5303 0.96158 0.0
C633 C 0.33896 0.51314 0.94584 0.0
C634 C 0.37538 0.5499 0.94826 0.0
C635 C 0.37329 0.55312 0.91852 0.0
C636 C 0.35255 0.53732 0.90274 0.0
C637 C 0.33593 0.51728 0.91651 0.0
C638 C 0.39755 0.56607 0.96582 0.0
C639 C 0.34905 0.5407 0.87109 0.0
C640 C 0.41061 0.61506 0.88846 0.0
C641 C 0.43862 0.605 0.87863 0.0
C642 C 0.38849 0.59825 0.90057 0.0
C643 C 0.39513 0.57101 0.90374 0.0
C644 C 0.42347 0.56085 0.89384 0.0
C645 C 0.44466 0.57791 0.881 0.0
C646 C 0.35813 0.60961 0.91006 0.0
C647 C 0.4318 0.53207 0.8975 0.0
H648 H 0.35959 0.5279 0.98436 0.0
H649 H 0.3216 0.50417 0.90403 0.0
H650 H 0.42147 0.56133 0.95944 0.0
H651 H 0.39404 0.58747 0.96198 0.0
H652 H 0.39512 0.5622 0.9889 0.0
H653 H 0.32876 0.52987 0.86273 0.0
H654 H 0.34678 0.56193 0.86558 0.0
H655 H 0.36986 0.53313 0.86022 0.0
H656 H 0.40587 0.636 0.88636 0.0
H657 H 0.46644 0.57016 0.8736 0.0
H658 H 0.35582 0.60774 0.93339 0.0
H659 H 0.33892 0.59834 0.90036 0.0
H660 H 0.35572 0.63079 0.90427 0.0
H661 H 0.43143 0.52681 0.92035 0.0
H662 H 0.45491 0.52741 0.88886 0.0
H663 H 0.41464 0.51936 0.88667 0.0
C664 C 0.62667 0.48934 0.44764 0.0
C665 C 0.65194 0.50259 0.43572 0.0
C666 C 0.61087 0.46968 0.43257 0.0
C667 C 0.62127 0.46219 0.40529 0.0
C668 C 0.64737 0.47467 0.39346 0.0
C669 C 0.66204 0.49503 0.40856 0.0
C670 C 0.58272 0.45719 0.44573 0.0
C671 C 0.65967 0.46662 0.36479 0.0
C672 C 0.5907 0.39532 0.38242 0.0
C673 C 0.56641 0.40267 0.3647 0.0
C674 C 0.61021 0.41448 0.39423 0.0
C675 C 0.60427 0.44159 0.38914 0.0
C676 C 0.58017 0.44899 0.37057 0.0
C677 C 0.56179 0.42933 0.35817 0.0
C678 C 0.63634 0.40576 0.41307 0.0
C679 C 0.57247 0.47767 0.3653 0.0
H680 H 0.61907 0.49429 0.46885 0.0
H681 H 0.68116 0.50526 0.39877 0.0
H682 H 0.56271 0.45948 0.43134 0.0
H683 H 0.58648 0.43571 0.44875 0.0
H684 H 0.57687 0.46608 0.46659 0.0
H685 H 0.68158 0.4768 0.35956 0.0
H686 H 0.66354 0.44495 0.36418 0.0
H687 H 0.6426 0.47132 0.34808 0.0
H688 H 0.59409 0.3746 0.38739 0.0
H689 H 0.5426 0.43487 0.34476 0.0
H690 H 0.63102 0.41068 0.43546 0.0
H691 H 0.65779 0.41638 0.40734 0.0
H692 H 0.64052 0.38415 0.41157 0.0
H693 H 0.5644 0.48685 0.38534 0.0
H694 H 0.55429 0.48007 0.34896 0.0
H695 H 0.59318 0.4887 0.35841 0.0
C696 C 0.62342 0.50105 0.93738 0.0
C697 C 0.6555 0.50191 0.93961 0.0
C698 C 0.60719 0.52113 0.9235 0.0
C699 C 0.62344 0.54277 0.91177 0.0
C700 C 0.6559 0.54366 0.91368 0.0
C701 C 0.6716 0.52308 0.92746 0.0
C702 C 0.57261 0.51927 0.9216 0.0
C703 C 0.67393 0.56656 0.90166 0.0
C704 C 0.57912 0.58259 0.85725 0.0
C705 C 0.56631 0.60254 0.87421 0.0
C706 C 0.59879 0.56353 0.86896 0.0
C707 C 0.6061 0.56467 0.8982 0.0
C708 C 0.59454 0.58557 0.91505 0.0
C709 C 0.57465 0.60416 0.90289 0.0
C710 C 0.6105 0.54143 0.85034 0.0
C711 C 0.60216 0.58768 0.94623 0.0
H712 H 0.61097 0.48447 0.94639 0.0
H713 H 0.69641 0.52382 0.92929 0.0
H714 H 0.562 0.53623 0.93285 0.0
H715 H 0.56521 0.52032 0.89911 0.0
H716 H 0.56358 0.50068 0.93098 0.0
H717 H 0.69911 0.56391 0.90419 0.0
H718 H 0.66869 0.569 0.87878 0.0
H719 H 0.66707 0.58514 0.91245 0.0
H720 H 0.57283 0.58122 0.83505 0.0
H721 H 0.56514 0.61972 0.91604 0.0
H722 H 0.60001 0.52246 0.85713 0.0
H723 H 0.63574 0.53937 0.85261 0.0
H724 H 0.60498 0.54466 0.8276 0.0
H725 H 0.59143 0.57099 0.95785 0.0
H726 H 0.59385 0.60648 0.95568 0.0
H727 H 0.62734 0.58631 0.94951 0.0
C728 C 0.37623 0.48835 0.4564 0.0
C729 C 0.34509 0.49166 0.44964 0.0
C730 C 0.39401 0.46885 0.44314 0.0
C731 C 0.38034 0.45217 0.42257 0.0
C732 C 0.34881 0.45512 0.41589 0.0
C733 C 0.33156 0.47491 0.42944 0.0
C734 C 0.42763 0.46651 0.45069 0.0
C735 C 0.33344 0.4376 0.39416 0.0
C736 C 0.43549 0.4224 0.36916 0.0
C737 C 0.44076 0.39719 0.38061 0.0
C738 C 0.4152 0.44016 0.38217 0.0
C739 C 0.39961 0.43255 0.4072 0.0
C740 C 0.404 0.40686 0.41839 0.0
C741 C 0.42457 0.38948 0.40499 0.0
C742 C 0.4112 0.4674 0.36959 0.0
C743 C 0.38763 0.398 0.44497 0.0
H744 H 0.38696 0.50149 0.47165 0.0
H745 H 0.30743 0.47722 0.42433 0.0
H746 H 0.4329 0.44606 0.45761 0.0
H747 H 0.44191 0.47066 0.43171 0.0
H748 H 0.43446 0.48038 0.46785 0.0
H749 H 0.30844 0.44164 0.39231 0.0
H750 H 0.34423 0.44064 0.3731 0.0
H751 H 0.33667 0.41651 0.39986 0.0
H752 H 0.44772 0.42855 0.35026 0.0
H753 H 0.4283 0.37001 0.4139 0.0
H754 H 0.41981 0.48251 0.38471 0.0
H755 H 0.38651 0.47152 0.36589 0.0
H756 H 0.42371 0.46973 0.3492 0.0
H757 H 0.39562 0.40997 0.46328 0.0
H758 H 0.39173 0.3768 0.44974 0.0
H759 H 0.36254 0.40126 0.44285 0.0
C760 C 0.83136 0.02435 0.91727 0.0
C761 C 0.84693 0.00325 0.93003 0.0
C762 C 0.84763 0.04447 0.90322 0.0
C763 C 0.88009 0.04316 0.90172 0.0
C764 C 0.89574 0.02134 0.91368 0.0
C765 C 0.87897 0.00172 0.92777 0.0
C766 C 0.83023 0.06753 0.89085 0.0
C767 C 0.93031 0.01904 0.91224 0.0
C768 C 0.92721 0.08345 0.84964 0.0
C769 C 0.93973 0.10287 0.86752 0.0
C770 C 0.9066 0.06448 0.86017 0.0
C771 C 0.89814 0.06515 0.88915 0.0
C772 C 0.90943 0.08555 0.9069 0.0
C773 C 0.93019 0.10408 0.8959 0.0
C774 C 0.89513 0.04296 0.84064 0.0
C775 C 0.90066 0.08712 0.93785 0.0
H776 H 0.80658 0.02556 0.91911 0.0
H777 H 0.89096 0.98516 0.93725 0.0
H778 H 0.83626 0.08585 0.90256 0.0
H779 H 0.83685 0.07061 0.86837 0.0
H780 H 0.80495 0.06465 0.89198 0.0
H781 H 0.93875 8e-05 0.92118 0.0
H782 H 0.93819 0.0206 0.88993 0.0
H783 H 0.94104 0.03553 0.92421 0.0
H784 H 0.93437 0.08244 0.82765 0.0
H785 H 0.93943 0.11926 0.90974 0.0
H786 H 0.86982 0.04093 0.84233 0.0
H787 H 0.90531 0.02377 0.84703 0.0
H788 H 0.90121 0.04679 0.81813 0.0
H789 H 0.87534 0.08604 0.94026 0.0
H790 H 0.909 0.1056 0.94803 0.0
H791 H 0.91057 0.07004 0.9494 0.0
C792 C 0.1452 0.0016 0.40845 0.0
C793 C 0.16807 0.9947 0.42796 0.0
C794 C 0.12718 0.98213 0.39531 0.0
C795 C 0.13264 0.95515 0.4015 0.0
C796 C 0.15689 0.94806 0.42 0.0
C797 C 0.17411 0.96798 0.43332 0.0
C798 C 0.10117 0.99052 0.37613 0.0
C799 C 0.16381 0.91949 0.42663 0.0
C800 C 0.06432 0.9089 0.39729 0.0
C801 C 0.06804 0.89757 0.37037 0.0
C802 C 0.08529 0.92757 0.40763 0.0
C803 C 0.11102 0.93466 0.39092 0.0
C804 C 0.1154 0.92276 0.36402 0.0
C805 C 0.09361 0.90455 0.35389 0.0
C806 C 0.07948 0.94018 0.4362 0.0
C807 C 0.14294 0.92942 0.34593 0.0
H808 H 0.1404 0.0223 0.40454 0.0
H809 H 0.19199 0.96271 0.44829 0.0
H810 H 0.10241 0.97988 0.35559 0.0
H811 H 0.0789 0.98527 0.38611 0.0
H812 H 0.10139 0.01212 0.37191 0.0
H813 H 0.18566 0.91722 0.43855 0.0
H814 H 0.14493 0.911 0.43954 0.0
H815 H 0.16525 0.90776 0.40677 0.0
H816 H 0.04447 0.90373 0.41002 0.0
H817 H 0.09664 0.89567 0.33314 0.0
H818 H 0.07732 0.96191 0.43375 0.0
H819 H 0.09918 0.93648 0.45058 0.0
H820 H 0.05828 0.93255 0.44646 0.0
H821 H 0.14233 0.95062 0.33996 0.0
H822 H 0.14386 0.91737 0.32624 0.0
H823 H 0.1644 0.92619 0.35815 0.0
C824 C 0.14139 0.02723 0.96031 0.0
C825 C 0.16147 0.01119 0.94458 0.0
C826 C 0.12504 0.04784 0.94745 0.0
C827 C 0.12956 0.05317 0.91829 0.0
C828 C 0.15158 0.0385 0.9028 0.0
C829 C 0.16699 0.01747 0.91602 0.0
C830 C 0.10148 0.06276 0.96466 0.0
C831 C 0.15762 0.04405 0.87184 0.0
C832 C 0.06107 0.07933 0.87754 0.0
C833 C 0.06688 0.10657 0.87712 0.0
C834 C 0.08136 0.06183 0.89085 0.0
C835 C 0.10862 0.07173 0.90337 0.0
C836 C 0.11505 0.09918 0.90238 0.0
C837 C 0.09379 0.11639 0.88962 0.0
C838 C 0.07322 0.0328 0.89206 0.0
C839 C 0.14431 0.11031 0.91476 0.0
H840 H 0.13765 0.02316 0.98261 0.0
H841 H 0.18231 0.00526 0.90353 0.0
H842 H 0.10486 0.08438 0.96238 0.0
H843 H 0.07813 0.05808 0.95661 0.0
H844 H 0.10243 0.05764 0.98755 0.0
H845 H 0.17868 0.03397 0.86414 0.0
H846 H 0.13787 0.03705 0.85898 0.0
H847 H 0.16004 0.06561 0.86815 0.0
H848 H 0.04013 0.07171 0.86811 0.0
H849 H 0.09838 0.13745 0.88909 0.0
H850 H 0.07198 0.02621 0.91448 0.0
H851 H 0.09133 0.02094 0.88152 0.0
H852 H 0.05088 0.02841 0.88166 0.0
H853 H 0.14489 0.10681 0.93797 0.0
H854 H 0.14665 0.13187 0.91085 0.0
H855 H 0.16447 0.10005 0.90549 0.0
C856 C 0.88135 0.99165 0.44944 0.0
C857 C 0.85054 0.99647 0.44245 0.0
C858 C 0.89797 0.97138 0.4362 0.0
C859 C 0.88349 0.95551 0.41537 0.0
C860 C 0.85233 0.9601 0.40831 0.0
C861 C 0.83622 0.98057 0.42192 0.0
C862 C 0.93122 0.96723 0.44422 0.0
C863 C 0.83612 0.94354 0.38624 0.0
C864 C 0.93788 0.92263 0.36341 0.0
C865 C 0.94108 0.89729 0.37517 0.0
C866 C 0.91835 0.94144 0.37571 0.0
C867 C 0.9015 0.93479 0.40037 0.0
C868 C 0.90364 0.90895 0.41171 0.0
C869 C 0.9234 0.89049 0.39897 0.0
C870 C 0.91663 0.96876 0.3629 0.0
C871 C 0.88592 0.9011 0.43792 0.0
H872 H 0.89273 0.00411 0.46493 0.0
H873 H 0.81232 0.98401 0.41663 0.0
H874 H 0.93483 0.94656 0.45129 0.0
H875 H 0.94609 0.9705 0.42543 0.0
H876 H 0.9388 0.98076 0.46143 0.0
H877 H 0.8116 0.94914 0.38376 0.0
H878 H 0.84775 0.94579 0.36544 0.0
H879 H 0.83736 0.92233 0.39207 0.0
H880 H 0.95121 0.92805 0.34488 0.0
H881 H 0.92553 0.87092 0.40812 0.0
H882 H 0.92628 0.98342 0.378 0.0
H883 H 0.89236 0.97431 0.35896 0.0
H884 H 0.92951 0.97021 0.34261 0.0
H885 H 0.89453 0.91247 0.45642 0.0
H886 H 0.88808 0.87967 0.44267 0.0
H887 H 0.86124 0.90595 0.43535 0.0
C888 C 0.37448 0.36635 0.14619 0.0
C889 C 0.34323 0.36015 0.14336 0.0
C890 C 0.39047 0.36076 0.17123 0.0
C891 C 0.37488 0.34855 0.19409 0.0
C892 C 0.34354 0.34149 0.19114 0.0
C893 C 0.32805 0.34735 0.16572 0.0
C894 C 0.42396 0.36844 0.1734 0.0
C895 C 0.32625 0.32837 0.21504 0.0
C896 C 0.42916 0.31919 0.24838 0.0
C897 C 0.43216 0.34017 0.2677 0.0
C898 C 0.40905 0.32092 0.22518 0.0
C899 C 0.39152 0.34416 0.22122 0.0
C900 C 0.39293 0.36465 0.24165 0.0
C901 C 0.41321 0.36241 0.26465 0.0
C902 C 0.40804 0.29856 0.20396 0.0
C903 C 0.37447 0.3897 0.23828 0.0
H904 H 0.38646 0.37577 0.12875 0.0
H905 H 0.30386 0.34261 0.16364 0.0
H906 H 0.4271 0.38307 0.19071 0.0
H907 H 0.43805 0.35089 0.17876 0.0
H908 H 0.43287 0.37715 0.1534 0.0
H909 H 0.30261 0.32252 0.20871 0.0
H910 H 0.33874 0.31055 0.22239 0.0
H911 H 0.32471 0.3421 0.23335 0.0
H912 H 0.44344 0.30179 0.25068 0.0
H913 H 0.41506 0.3786 0.27963 0.0
H914 H 0.41959 0.30482 0.18409 0.0
H915 H 0.38395 0.2935 0.19852 0.0
H916 H 0.41969 0.28053 0.212 0.0
H917 H 0.38357 0.40123 0.22011 0.0
H918 H 0.3754 0.40233 0.25755 0.0
H919 H 0.3501 0.38498 0.23357 0.0
C920 C 0.67023 0.63285 0.66957 0.0
C921 C 0.66468 0.64706 0.6446 0.0
C922 C 0.6531 0.63778 0.69421 0.0
C923 C 0.62945 0.65696 0.69359 0.0
C924 C 0.62479 0.67225 0.6688 0.0
C925 C 0.64267 0.66723 0.64463 0.0
C926 C 0.65917 0.62143 0.72039 0.0
C927 C 0.59952 0.69259 0.66713 0.0
C928 C 0.56039 0.64272 0.73998 0.0
C929 C 0.56429 0.6608 0.76225 0.0
C930 C 0.58129 0.64156 0.71746 0.0
C931 C 0.60713 0.65857 0.7174 0.0
C932 C 0.6114 0.67677 0.73991 0.0
C933 C 0.58971 0.67786 0.76199 0.0
C934 C 0.57559 0.62215 0.69363 0.0
C935 C 0.63898 0.69487 0.74076 0.0
H936 H 0.68748 0.61741 0.66958 0.0
H937 H 0.63823 0.67808 0.62523 0.0
H938 H 0.66027 0.63424 0.73948 0.0
H939 H 0.64004 0.60723 0.72358 0.0
H940 H 0.68094 0.6101 0.71873 0.0
H941 H 0.60109 0.70476 0.64757 0.0
H942 H 0.57689 0.68246 0.66732 0.0
H943 H 0.60024 0.7059 0.68582 0.0
H944 H 0.54065 0.62963 0.7399 0.0
H945 H 0.59289 0.69178 0.77924 0.0
H946 H 0.59488 0.60791 0.69227 0.0
H947 H 0.57447 0.63278 0.67307 0.0
H948 H 0.5539 0.61087 0.6965 0.0
H949 H 0.66038 0.68297 0.74068 0.0
H950 H 0.63903 0.70779 0.75982 0.0
H951 H 0.63945 0.70751 0.72156 0.0
C952 C 0.66526 0.3665 0.16698 0.0
C953 C 0.66006 0.3523 0.14189 0.0
C954 C 0.64768 0.36163 0.19136 0.0
C955 C 0.62408 0.34236 0.19044 0.0
C956 C 0.61977 0.32706 0.16559 0.0
C957 C 0.63797 0.33213 0.14162 0.0
C958 C 0.65329 0.37809 0.21759 0.0
C959 C 0.59466 0.30652 0.16367 0.0
C960 C 0.5849 0.32142 0.25906 0.0
C961 C 0.5593 0.33822 0.2594 0.0
C962 C 0.60632 0.32247 0.23677 0.0
C963 C 0.60169 0.34046 0.21417 0.0
C964 C 0.57563 0.35716 0.21425 0.0
C965 C 0.55492 0.35597 0.23693 0.0
C966 C 0.63407 0.30464 0.23755 0.0
C967 C 0.56962 0.3764 0.19037 0.0
H968 H 0.6826 0.38191 0.16729 0.0
H969 H 0.63377 0.32126 0.12216 0.0
H970 H 0.63382 0.39191 0.22075 0.0
H971 H 0.6546 0.36529 0.23664 0.0
H972 H 0.67481 0.38984 0.21604 0.0
H973 H 0.59647 0.2944 0.14409 0.0
H974 H 0.59536 0.29319 0.18233 0.0
H975 H 0.57195 0.31647 0.16376 0.0
H976 H 0.58849 0.30777 0.27647 0.0
H977 H 0.53506 0.36888 0.23691 0.0
H978 H 0.65534 0.31674 0.23772 0.0
H979 H 0.63479 0.29217 0.2182 0.0
H980 H 0.63415 0.29154 0.25646 0.0
H981 H 0.5887 0.39089 0.18899 0.0
H982 H 0.54777 0.38739 0.19323 0.0
H983 H 0.56866 0.3657 0.16984 0.0
C984 C 0.36812 0.65185 0.6436 0.0
C985 C 0.33856 0.64132 0.64648 0.0
C986 C 0.38664 0.65627 0.66747 0.0
C987 C 0.37491 0.6506 0.69483 0.0
C988 C 0.34442 0.6412 0.69786 0.0
C989 C 0.32672 0.63624 0.67352 0.0
C990 C 0.41927 0.66566 0.66328 0.0
C991 C 0.33086 0.6356 0.7267 0.0
C992 C 0.43281 0.63169 0.75129 0.0
C993 C 0.4377 0.65585 0.76508 0.0
C994 C 0.41227 0.62973 0.7285 0.0
C995 C 0.39551 0.65231 0.71991 0.0
C996 C 0.39953 0.67657 0.73448 0.0
C997 C 0.42105 0.67817 0.75663 0.0
C998 C 0.40929 0.60368 0.71303 0.0
C999 C 0.38134 0.70083 0.7265 0.0
H1000 H 0.3772 0.65549 0.62254 0.0
H1001 H 0.30377 0.6281 0.67555 0.0
H1002 H 0.42371 0.6836 0.67619 0.0
H1003 H 0.43546 0.65017 0.6706 0.0
H1004 H 0.42439 0.67025 0.64073 0.0
H1005 H 0.30581 0.63149 0.72558 0.0
H1006 H 0.3424 0.61821 0.73623 0.0
H1007 H 0.33474 0.65262 0.74113 0.0
H1008 H 0.44592 0.61447 0.75765 0.0
H1009 H 0.42472 0.69682 0.7675 0.0
H1010 H 0.41575 0.60627 0.69043 0.0
H1011 H 0.3851 0.59679 0.71351 0.0
H1012 H 0.42405 0.58804 0.72237 0.0
H1013 H 0.38781 0.70737 0.70486 0.0
H1014 H 0.38527 0.71748 0.74145 0.0
H1015 H 0.35643 0.69613 0.7261 0.0
C1016 C 0.88111 0.86912 0.14047 0.0
C1017 C 0.84978 0.86298 0.13819 0.0
C1018 C 0.89754 0.86363 0.1653 0.0
C1019 C 0.88233 0.85159 0.18846 0.0
C1020 C 0.85089 0.84471 0.18612 0.0
C1021 C 0.83495 0.85048 0.16094 0.0
C1022 C 0.93111 0.87114 0.16688 0.0
C1023 C 0.83398 0.83179 0.21038 0.0
C1024 C 0.93616 0.82123 0.24259 0.0
C1025 C 0.93919 0.8419 0.26228 0.0
C1026 C 0.91649 0.82354 0.21914 0.0
C1027 C 0.89943 0.84706 0.21531 0.0
C1028 C 0.90115 0.86741 0.23587 0.0
C1029 C 0.92099 0.86459 0.25911 0.0
C1030 C 0.91515 0.80136 0.19773 0.0
C1031 C 0.88322 0.89276 0.23259 0.0
H1032 H 0.89283 0.87831 0.12274 0.0
H1033 H 0.8107 0.84581 0.15931 0.0
H1034 H 0.93472 0.88572 0.18416 0.0
H1035 H 0.94518 0.8535 0.17198 0.0
H1036 H 0.93967 0.87982 0.14673 0.0
H1037 H 0.81002 0.8264 0.20464 0.0
H1038 H 0.84624 0.81368 0.21727 0.0
H1039 H 0.83335 0.84541 0.22882 0.0
H1040 H 0.94992 0.80353 0.24495 0.0
H1041 H 0.9229 0.88056 0.27434 0.0
H1042 H 0.92615 0.80784 0.17767 0.0
H1043 H 0.89095 0.79625 0.19275 0.0
H1044 H 0.92708 0.7833 0.20533 0.0
H1045 H 0.89216 0.90398 0.21413 0.0
H1046 H 0.88481 0.90553 0.25171 0.0
H1047 H 0.85866 0.88839 0.22836 0.0
C1048 C 0.16666 0.15498 0.65572 0.0
C1049 C 0.16088 0.13094 0.64172 0.0
C1050 C 0.15109 0.16164 0.68082 0.0
C1051 C 0.12857 0.14422 0.69175 0.0
C1052 C 0.12299 0.11978 0.67808 0.0
C1053 C 0.13956 0.11326 0.65359 0.0
C1054 C 0.15824 0.18756 0.69529 0.0
C1055 C 0.09883 0.10079 0.68883 0.0
C1056 C 0.09723 0.14713 0.76676 0.0
C1057 C 0.06944 0.16049 0.76257 0.0
C1058 C 0.11773 0.14313 0.74419 0.0
C1059 C 0.10963 0.15189 0.71666 0.0
C1060 C 0.08195 0.16605 0.71253 0.0
C1061 C 0.06239 0.17053 0.73566 0.0
C1062 C 0.1475 0.12872 0.7496 0.0
C1063 C 0.07208 0.17511 0.68341 0.0
H1064 H 0.1828 0.16898 0.64673 0.0
H1065 H 0.1355 0.0943 0.64356 0.0
H1066 H 0.13824 0.20102 0.6935 0.0
H1067 H 0.16255 0.18433 0.71823 0.0
H1068 H 0.17858 0.19753 0.68589 0.0
H1069 H 0.09716 0.08266 0.6756 0.0
H1070 H 0.10406 0.09488 0.71095 0.0
H1071 H 0.07606 0.11063 0.68902 0.0
H1072 H 0.10274 0.13952 0.78765 0.0
H1073 H 0.04073 0.18063 0.73235 0.0
H1074 H 0.16698 0.13949 0.73973 0.0
H1075 H 0.14654 0.10881 0.73978 0.0
H1076 H 0.15221 0.12635 0.77262 0.0
H1077 H 0.09043 0.18713 0.6734 0.0
H1078 H 0.05065 0.18699 0.68403 0.0
H1079 H 0.06815 0.15764 0.66961 0.0
C1080 C 0.11966 0.84121 0.1347 0.0
C1081 C 0.15135 0.84605 0.1338 0.0
C1082 C 0.10469 0.83633 0.16047 0.0
C1083 C 0.12182 0.83643 0.186 0.0
C1084 C 0.15411 0.83984 0.18507 0.0
C1085 C 0.16854 0.84456 0.1589 0.0
C1086 C 0.07027 0.83253 0.16049 0.0
C1087 C 0.17313 0.84007 0.21184 0.0
C1088 C 0.07513 0.85953 0.24891 0.0
C1089 C 0.06654 0.83556 0.26155 0.0
C1090 C 0.0944 0.86008 0.22515 0.0
C1091 C 0.10531 0.83603 0.2136 0.0
C1092 C 0.09803 0.81181 0.22707 0.0
C1093 C 0.07876 0.81185 0.25101 0.0
C1094 C 0.10187 0.88638 0.21161 0.0
C1095 C 0.10933 0.7858 0.2154 0.0
H1096 H 0.10642 0.84194 0.11523 0.0
H1097 H 0.19304 0.8484 0.15826 0.0
H1098 H 0.06395 0.81473 0.17293 0.0
H1099 H 0.05914 0.84978 0.17077 0.0
H1100 H 0.06082 0.83044 0.13871 0.0
H1101 H 0.19815 0.83931 0.20726 0.0
H1102 H 0.1683 0.85841 0.22397 0.0
H1103 H 0.16697 0.82312 0.22563 0.0
H1104 H 0.06615 0.87797 0.25719 0.0
H1105 H 0.07231 0.79324 0.26073 0.0
H1106 H 0.09097 0.88751 0.19037 0.0
H1107 H 0.12703 0.88839 0.20853 0.0
H1108 H 0.09368 0.90334 0.22452 0.0
H1109 H 0.09758 0.78158 0.195 0.0
H1110 H 0.10484 0.76913 0.23017 0.0
H1111 H 0.13433 0.78677 0.21099 0.0
C1112 C 0.83464 0.12795 0.67043 0.0
C1113 C 0.83772 0.14274 0.64546 0.0
C1114 C 0.8529 0.13344 0.69426 0.0
C1115 C 0.8751 0.15389 0.69286 0.0
C1116 C 0.87732 0.16963 0.66812 0.0
C1117 C 0.85845 0.16396 0.64476 0.0
C1118 C 0.84948 0.11649 0.72042 0.0
C1119 C 0.90096 0.19138 0.66563 0.0
C1120 C 0.91586 0.17675 0.76005 0.0
C1121 C 0.94258 0.16131 0.7593 0.0
C1122 C 0.89347 0.17451 0.73867 0.0
C1123 C 0.89827 0.15677 0.71584 0.0
C1124 C 0.92545 0.14147 0.71481 0.0
C1125 C 0.9471 0.14376 0.73665 0.0
C1126 C 0.86456 0.19083 0.74065 0.0
C1127 C 0.93171 0.12262 0.69061 0.0
H1128 H 0.81839 0.1117 0.67107 0.0
H1129 H 0.86106 0.17526 0.62537 0.0
H1130 H 0.86997 0.10366 0.72274 0.0
H1131 H 0.84809 0.12904 0.73969 0.0
H1132 H 0.82875 0.1037 0.71944 0.0
H1133 H 0.89767 0.20347 0.64621 0.0
H1134 H 0.90004 0.20458 0.6844 0.0
H1135 H 0.92428 0.18257 0.66498 0.0
H1136 H 0.9122 0.19022 0.77762 0.0
H1137 H 0.96782 0.13192 0.7358 0.0
H1138 H 0.8442 0.17762 0.74139 0.0
H1139 H 0.86214 0.20339 0.72151 0.0
H1140 H 0.86434 0.20374 0.75972 0.0
H1141 H 0.91359 0.1072 0.6898 0.0
H1142 H 0.95437 0.11274 0.69261 0.0
H1143 H 0.93107 0.13341 0.67013 0.0
loop_
_geom_bond_atom_site_label_1
_geom_bond_atom_site_label_2
_geom_bond_distance
_geom_bond_site_symmetry_2
_ccdc_geom_bond_type
C0 C1 1.384 . S
C0 H13 0.947 . S
C0 C35 1.382 . S
C1 C0 1.384 . S
C1 C2 1.378 . S
C2 C1 1.378 . S
C2 C3 1.378 . S
C2 H14 0.952 . S
C3 C2 1.378 . S
C3 H15 0.950 . S
C3 C34 1.383 . S
H4 C23 0.944 . S
H5 C24 0.946 1_554 S
H6 C26 0.953 . S
H7 C27 0.945 . S
H8 C29 0.952 . S
H9 C30 0.949 . S
H10 C32 0.950 . S
H11 C33 0.948 1_554 S
H12 C35 0.951 . S
H13 C0 0.947 . S
H14 C2 0.952 . S
H15 C3 0.950 . S
N16 C19 1.382 1_554 S
N16 C21 1.363 . S
N17 C19 1.371 . S
N17 C20 1.372 . S
N18 C20 1.361 1_554 S
N18 C21 1.377 . S
C19 N16 1.382 1_556 S
C19 N17 1.371 . S
C19 C22 1.480 . S
C20 N17 1.372 . S
C20 N18 1.361 1_556 S
C20 C28 1.457 . S
C21 N16 1.363 . S
C21 N18 1.377 . S
C21 C34 1.479 . S
C22 C19 1.480 . S
C22 C23 1.385 1_556 S
C22 C27 1.385 . S
C23 H4 0.944 . S
C23 C22 1.385 1_554 S
C23 C24 1.390 1_554 S
C24 H5 0.946 1_556 S
C24 C23 1.390 1_556 S
C24 C25 1.384 . S
C25 C24 1.384 . S
C25 C26 1.377 . S
C26 H6 0.953 . S
C26 C25 1.377 . S
C26 C27 1.369 . S
C27 H7 0.945 . S
C27 C22 1.385 . S
C27 C26 1.369 . S
C28 C20 1.457 . S
C28 C29 1.372 . S
C28 C33 1.364 . S
C29 H8 0.952 . S
C29 C28 1.372 . S
C29 C30 1.389 . S
C30 H9 0.949 . S
C30 C29 1.389 . S
C30 C31 1.387 . S
C31 C30 1.387 . S
C31 C32 1.372 . S
C32 H10 0.950 . S
C32 C31 1.372 . S
C32 C33 1.379 . S
C33 H11 0.948 1_556 S
C33 C28 1.364 . S
C33 C32 1.379 . S
C34 C3 1.383 . S
C34 C21 1.479 . S
C34 C35 1.398 . S
C35 C0 1.382 . S
C35 H12 0.951 . S
C35 C34 1.398 . S
C36 C37 1.384 . S
C36 H49 0.947 . S
C36 C71 1.382 . S
C37 C36 1.384 . S
C37 C38 1.378 . S
C38 C37 1.378 . S
C38 C39 1.378 . S
C38 H50 0.952 . S
C39 C38 1.378 . S
C39 H51 0.950 . S
C39 C70 1.383 . S
H40 C59 0.947 . S
H41 C60 0.946 . S
H42 C62 0.953 . S
H43 C63 0.945 . S
H44 C65 0.952 . S
H45 C66 0.949 . S
H46 C68 0.950 . S
H47 C69 0.948 . S
H48 C71 0.951 . S
H49 C36 0.947 . S
H50 C38 0.952 . S
H51 C39 0.950 . S
N52 C55 1.382 . S
N52 C57 1.363 . S
N53 C55 1.371 . S
N53 C56 1.372 . S
N54 C56 1.361 . S
N54 C57 1.377 . S
C55 N52 1.382 . S
C55 N53 1.371 . S
C55 C58 1.480 . S
C56 N53 1.372 . S
C56 N54 1.361 . S
C56 C64 1.457 . S
C57 N52 1.363 . S
C57 N54 1.377 . S
C57 C70 1.479 . S
C58 C55 1.480 . S
C58 C59 1.383 . S
C58 C63 1.385 . S
C59 H40 0.947 . S
C59 C58 1.383 . S
C59 C60 1.388 . S
C60 H41 0.946 . S
C60 C59 1.388 . S
C60 C61 1.384 . S
C61 C60 1.384 . S
C61 C62 1.377 . S
C62 H42 0.953 . S
C62 C61 1.377 . S
C62 C63 1.369 . S
C63 H43 0.945 . S
C63 C58 1.385 . S
C63 C62 1.369 . S
C64 C56 1.457 . S
C64 C65 1.372 . S
C64 C69 1.364 . S
C65 H44 0.952 . S
C65 C64 1.372 . S
C65 C66 1.389 . S
C66 H45 0.949 . S
C66 C65 1.389 . S
C66 C67 1.387 . S
C67 C66 1.387 . S
C67 C68 1.372 . S
C68 H46 0.950 . S
C68 C67 1.372 . S
C68 C69 1.379 . S
C69 H47 0.948 . S
C69 C64 1.364 . S
C69 C68 1.379 . S
C70 C39 1.383 . S
C70 C57 1.479 . S
C70 C71 1.398 . S
C71 C36 1.382 . S
C71 H48 0.951 . S
C71 C70 1.398 . S
C72 C73 1.384 . S
C72 H85 0.947 . S
C72 C107 1.382 . S
C73 C72 1.384 . S
C73 C74 1.378 . S
C74 C73 1.378 . S
C74 C75 1.378 . S
C74 H86 0.952 . S
C75 C74 1.378 . S
C75 H87 0.950 . S
C75 C106 1.383 . S
H76 C95 0.962 . S
H77 C96 0.946 . S
H78 C98 0.953 . S
H79 C99 0.945 . S
H80 C101 0.952 . S
H81 C102 0.949 . S
H82 C104 0.950 . S
H83 C105 0.948 1_554 S
H84 C107 0.951 . S
H85 C72 0.947 . S
H86 C74 0.952 . S
H87 C75 0.950 . S
N88 C91 1.344 1_554 S
N88 C93 1.363 . S
N89 C91 1.395 . S
N89 C92 1.372 . S
N90 C92 1.361 1_554 S
N90 C93 1.377 . S
C91 N88 1.344 1_556 S
C91 N89 1.395 . S
C91 C94 1.498 . S
C92 N89 1.372 . S
C92 N90 1.361 1_556 S
C92 C100 1.457 . S
C93 N88 1.363 . S
C93 N90 1.377 . S
C93 C106 1.479 . S
C94 C91 1.498 . S
C94 C95 1.375 1_556 S
C94 C99 1.385 . S
C95 H76 0.962 . S
C95 C94 1.375 1_554 S
C95 C96 1.381 1_554 S
C96 H77 0.946 . S
C96 C95 1.381 1_556 S
C96 C97 1.384 . S
C97 C96 1.384 . S
C97 C98 1.377 . S
C98 H78 0.953 . S
C98 C97 1.377 . S
C98 C99 1.369 . S
C99 H79 0.945 . S
C99 C94 1.385 . S
C99 C98 1.369 . S
C100 C92 1.457 . S
C100 C101 1.372 . S
C100 C105 1.364 . S
C101 H80 0.952 . S
C101 C100 1.372 . S
C101 C102 1.389 . S
C102 H81 0.949 . S
C102 C101 1.389 . S
C102 C103 1.387 . S
C103 C102 1.387 . S
C103 C104 1.372 . S
C104 H82 0.950 . S
C104 C103 1.372 . S
C104 C105 1.379 . S
C105 H83 0.948 1_556 S
C105 C100 1.364 . S
C105 C104 1.379 . S
C106 C75 1.383 . S
C106 C93 1.479 . S
C106 C107 1.398 . S
C107 C72 1.382 . S
C107 H84 0.951 . S
C107 C106 1.398 . S
C108 C109 1.384 . S
C108 H121 0.947 . S
C108 C143 1.382 . S
C109 C108 1.384 . S
C109 C110 1.378 . S
C110 C109 1.378 . S
C110 C111 1.378 . S
C110 H122 0.952 . S
C111 C110 1.378 . S
C111 H123 0.950 . S
C111 C142 1.383 . S
H112 C131 0.947 . S
H113 C132 0.946 . S
H114 C134 0.953 . S
H115 C135 0.945 . S
H116 C137 0.952 . S
H117 C138 0.949 . S
H118 C140 0.950 . S
H119 C141 0.948 . S
H120 C143 0.951 . S
H121 C108 0.947 . S
H122 C110 0.952 . S
H123 C111 0.950 . S
N124 C127 1.382 . S
N124 C129 1.363 . S
N125 C127 1.371 . S
N125 C128 1.372 . S
N126 C128 1.361 . S
N126 C129 1.377 . S
C127 N124 1.382 . S
C127 N125 1.371 . S
C127 C130 1.480 . S
C128 N125 1.372 . S
C128 N126 1.361 . S
C128 C136 1.457 . S
C129 N124 1.363 . S
C129 N126 1.377 . S
C129 C142 1.479 . S
C130 C127 1.480 . S
C130 C131 1.383 . S
C130 C135 1.385 . S
C131 H112 0.947 . S
C131 C130 1.383 . S
C131 C132 1.388 . S
C132 H113 0.946 . S
C132 C131 1.388 . S
C132 C133 1.384 . S
C133 C132 1.384 . S
C133 C134 1.377 . S
C134 H114 0.953 . S
C134 C133 1.377 . S
C134 C135 1.369 . S
C135 H115 0.945 . S
C135 C130 1.385 . S
C135 C134 1.369 . S
C136 C128 1.457 . S
C136 C137 1.372 . S
C136 C141 1.364 . S
C137 H116 0.952 . S
C137 C136 1.372 . S
C137 C138 1.389 . S
C138 H117 0.949 . S
C138 C137 1.389 . S
C138 C139 1.387 . S
C139 C138 1.387 . S
C139 C140 1.372 . S
C140 H118 0.950 . S
C140 C139 1.372 . S
C140 C141 1.379 . S
C141 H119 0.948 . S
C141 C136 1.364 . S
C141 C140 1.379 . S
C142 C111 1.383 . S
C142 C129 1.479 . S
C142 C143 1.398 . S
C143 C108 1.382 . S
C143 H120 0.951 . S
C143 C142 1.398 . S
C144 C145 1.384 . S
C144 H157 0.947 . S
C144 C179 1.382 . S
C145 C144 1.384 . S
C145 C146 1.378 . S
C146 C145 1.378 . S
C146 C147 1.378 . S
C146 H158 0.952 . S
C147 C146 1.378 . S
C147 H159 0.950 . S
C147 C178 1.383 . S
H148 C167 0.944 . S
H149 C168 0.946 1_554 S
H150 C170 0.953 . S
H151 C171 0.945 . S
H152 C173 0.952 . S
H153 C174 0.949 . S
H154 C176 0.950 . S
H155 C177 0.948 1_554 S
H156 C179 0.951 . S
H157 C144 0.947 . S
H158 C146 0.952 . S
H159 C147 0.950 . S
N160 C163 1.382 1_554 S
N160 C165 1.363 . S
N161 C163 1.371 . S
N161 C164 1.372 . S
N162 C164 1.361 1_554 S
N162 C165 1.377 . S
C163 N160 1.382 1_556 S
C163 N161 1.371 . S
C163 C166 1.480 . S
C164 N161 1.372 . S
C164 N162 1.361 1_556 S
C164 C172 1.457 . S
C165 N160 1.363 . S
C165 N162 1.377 . S
C165 C178 1.479 . S
C166 C163 1.480 . S
C166 C167 1.385 1_556 S
C166 C171 1.385 . S
C167 H148 0.944 . S
C167 C166 1.385 1_554 S
C167 C168 1.390 1_554 S
C168 H149 0.946 1_556 S
C168 C167 1.390 1_556 S
C168 C169 1.384 . S
C169 C168 1.384 . S
C169 C170 1.377 . S
C170 H150 0.953 . S
C170 C169 1.377 . S
C170 C171 1.369 . S
C171 H151 0.945 . S
C171 C166 1.385 . S
C171 C170 1.369 . S
C172 C164 1.457 . S
C172 C173 1.372 . S
C172 C177 1.364 . S
C173 H152 0.952 . S
C173 C172 1.372 . S
C173 C174 1.389 . S
C174 H153 0.949 . S
C174 C173 1.389 . S
C174 C175 1.387 . S
C175 C174 1.387 . S
C175 C176 1.372 . S
C176 H154 0.950 . S
C176 C175 1.372 . S
C176 C177 1.379 . S
C177 H155 0.948 1_556 S
C177 C172 1.364 . S
C177 C176 1.379 . S
C178 C147 1.383 . S
C178 C165 1.479 . S
C178 C179 1.398 . S
C179 C144 1.382 . S
C179 H156 0.951 . S
C179 C178 1.398 . S
C180 C181 1.384 . S
C180 H193 0.947 . S
C180 C215 1.382 . S
C181 C180 1.384 . S
C181 C182 1.378 . S
C182 C181 1.378 . S
C182 C183 1.378 . S
C182 H194 0.952 . S
C183 C182 1.378 . S
C183 H195 0.950 . S
C183 C214 1.383 . S
H184 C203 0.947 . S
H185 C204 0.946 . S
H186 C206 0.953 . S
H187 C207 0.945 . S
H188 C209 0.952 . S
H189 C210 0.949 . S
H190 C212 0.950 . S
H191 C213 0.948 . S
H192 C215 0.951 . S
H193 C180 0.947 . S
H194 C182 0.952 . S
H195 C183 0.950 . S
N196 C199 1.382 . S
N196 C201 1.363 . S
N197 C199 1.371 . S
N197 C200 1.372 . S
N198 C200 1.361 . S
N198 C201 1.377 . S
C199 N196 1.382 . S
C199 N197 1.371 . S
C199 C202 1.480 . S
C200 N197 1.372 . S
C200 N198 1.361 . S
C200 C208 1.457 . S
C201 N196 1.363 . S
C201 N198 1.377 . S
C201 C214 1.479 . S
C202 C199 1.480 . S
C202 C203 1.383 . S
C202 C207 1.385 . S
C203 H184 0.947 . S
C203 C202 1.383 . S
C203 C204 1.388 . S
C204 H185 0.946 . S
C204 C203 1.388 . S
C204 C205 1.384 . S
C205 C204 1.384 . S
C205 C206 1.377 . S
C206 H186 0.953 . S
C206 C205 1.377 . S
C206 C207 1.369 . S
C207 H187 0.945 . S
C207 C202 1.385 . S
C207 C206 1.369 . S
C208 C200 1.457 . S
C208 C209 1.372 . S
C208 C213 1.364 . S
C209 H188 0.952 . S
C209 C208 1.372 . S
C209 C210 1.389 . S
C210 H189 0.949 . S
C210 C209 1.389 . S
C210 C211 1.387 . S
C211 C210 1.387 . S
C211 C212 1.372 . S
C212 H190 0.950 . S
C212 C211 1.372 . S
C212 C213 1.379 . S
C213 H191 0.948 . S
C213 C208 1.364 . S
C213 C212 1.379 . S
C214 C183 1.383 . S
C214 C201 1.479 . S
C214 C215 1.398 . S
C215 C180 1.382 . S
C215 H192 0.951 . S
C215 C214 1.398 . S
C216 C217 1.384 . S
C216 H229 0.947 . S
C216 C251 1.382 . S
C217 C216 1.384 . S
C217 C218 1.378 . S
C218 C217 1.378 . S
C218 C219 1.378 . S
C218 H230 0.952 . S
C219 C218 1.378 . S
C219 H231 0.950 . S
C219 C250 1.383 . S
H220 C239 0.962 . S
H221 C240 0.946 . S
H222 C242 0.953 . S
H223 C243 0.945 . S
H224 C245 0.952 . S
H225 C246 0.949 . S
H226 C248 0.950 . S
H227 C249 0.948 1_554 S
H228 C251 0.951 . S
H229 C216 0.947 . S
H230 C218 0.952 . S
H231 C219 0.950 . S
N232 C235 1.382 1_554 S
N232 C237 1.363 . S
N233 C235 1.371 . S
N233 C236 1.372 . S
N234 C236 1.361 1_554 S
N234 C237 1.377 . S
C235 N232 1.382 1_556 S
C235 N233 1.371 . S
C235 C238 1.480 . S
C236 N233 1.372 . S
C236 N234 1.361 1_556 S
C236 C244 1.457 . S
C237 N232 1.363 . S
C237 N234 1.377 . S
C237 C250 1.479 . S
C238 C235 1.480 . S
C238 C239 1.375 1_556 S
C238 C243 1.385 . S
C239 H220 0.962 . S
C239 C238 1.375 1_554 S
C239 C240 1.381 1_554 S
C240 H221 0.946 . S
C240 C239 1.381 1_556 S
C240 C241 1.384 . S
C241 C240 1.384 . S
C241 C242 1.377 . S
C242 H222 0.953 . S
C242 C241 1.377 . S
C242 C243 1.369 . S
C243 H223 0.945 . S
C243 C238 1.385 . S
C243 C242 1.369 . S
C244 C236 1.457 . S
C244 C245 1.372 . S
C244 C249 1.364 . S
C245 H224 0.952 . S
C245 C244 1.372 . S
C245 C246 1.389 . S
C246 H225 0.949 . S
C246 C245 1.389 . S
C246 C247 1.387 . S
C247 C246 1.387 . S
C247 C248 1.372 . S
C248 H226 0.950 . S
C248 C247 1.372 . S
C248 C249 1.379 . S
C249 H227 0.948 1_556 S
C249 C244 1.364 . S
C249 C248 1.379 . S
C250 C219 1.383 . S
C250 C237 1.479 . S
C250 C251 1.398 . S
C251 C216 1.382 . S
C251 H228 0.951 . S
C251 C250 1.398 . S
C252 C253 1.384 . S
C252 H265 0.947 . S
C252 C287 1.382 . S
C253 C252 1.384 . S
C253 C254 1.378 . S
C254 C253 1.378 . S
C254 C255 1.378 . S
C254 H266 0.952 . S
C255 C254 1.378 . S
C255 H267 0.950 . S
C255 C286 1.383 . S
H256 C275 0.947 . S
H257 C276 0.946 . S
H258 C278 0.953 . S
H259 C279 0.945 . S
H260 C281 0.952 . S
H261 C282 0.949 . S
H262 C284 0.950 . S
H263 C285 0.948 . S
H264 C287 0.951 . S
H265 C252 0.947 . S
H266 C254 0.952 . S
H267 C255 0.950 . S
N268 C271 1.382 . S
N268 C273 1.363 . S
N269 C271 1.371 . S
N269 C272 1.372 . S
N270 C272 1.361 . S
N270 C273 1.377 . S
C271 N268 1.382 . S
C271 N269 1.371 . S
C271 C274 1.480 . S
C272 N269 1.372 . S
C272 N270 1.361 . S
C272 C280 1.457 . S
C273 N268 1.363 . S
C273 N270 1.377 . S
C273 C286 1.479 . S
C274 C271 1.480 . S
C274 C275 1.383 . S
C274 C279 1.385 . S
C275 H256 0.947 . S
C275 C274 1.383 . S
C275 C276 1.388 . S
C276 H257 0.946 . S
C276 C275 1.388 . S
C276 C277 1.384 . S
C277 C276 1.384 . S
C277 C278 1.377 . S
C278 H258 0.953 . S
C278 C277 1.377 . S
C278 C279 1.369 . S
C279 H259 0.945 . S
C279 C274 1.385 . S
C279 C278 1.369 . S
C280 C272 1.457 . S
C280 C281 1.372 . S
C280 C285 1.364 . S
C281 H260 0.952 . S
C281 C280 1.372 . S
C281 C282 1.389 . S
C282 H261 0.949 . S
C282 C281 1.389 . S
C282 C283 1.387 . S
C283 C282 1.387 . S
C283 C284 1.372 . S
C284 H262 0.950 . S
C284 C283 1.372 . S
C284 C285 1.379 . S
C285 H263 0.948 . S
C285 C280 1.364 . S
C285 C284 1.379 . S
C286 C255 1.383 . S
C286 C273 1.479 . S
C286 C287 1.398 . S
C287 C252 1.382 . S
C287 H264 0.951 . S
C287 C286 1.398 . S
Fe288 O290 1.918 . S
Fe288 O293 1.997 1_455 S
Fe288 O294 2.002 1_455 S
Fe288 O299 1.976 . S
Fe288 O302 1.996 . S
Fe289 O290 1.918 . S
Fe289 O297 1.997 1_455 S
Fe289 O300 1.996 . S
Fe289 O304 1.976 . S
Fe289 O307 2.002 1_455 S
O290 Fe288 1.918 . S
O290 Fe289 1.918 . S
O290 Fe291 1.918 . S
Fe291 O290 1.918 . S
Fe291 O292 2.002 1_455 S
Fe291 O301 1.976 . S
Fe291 O305 1.996 . S
Fe291 O308 1.997 1_455 S
O292 Fe291 2.002 1_655 S
O292 C309 1.295 . S
O293 Fe288 1.997 1_655 S
O293 C309 1.235 . S
O294 Fe288 2.002 1_655 S
O294 C295 1.295 . S
C295 O294 1.295 . S
C295 O297 1.235 . S
C296 O301 1.287 . S
C296 O302 1.255 . S
O297 Fe289 1.997 1_655 S
O297 C295 1.235 . S
C298 O304 1.287 . S
C298 O305 1.255 . S
O299 Fe288 1.976 . S
O299 C306 1.287 . S
O300 Fe289 1.996 . S
O300 C306 1.255 . S
O301 Fe291 1.976 . S
O301 C296 1.287 . S
O302 Fe288 1.996 . S
O302 C296 1.255 . S
C303 O307 1.295 . S
C303 O308 1.235 . S
O304 Fe289 1.976 . S
O304 C298 1.287 . S
O305 Fe291 1.996 . S
O305 C298 1.255 . S
C306 O299 1.287 . S
C306 O300 1.255 . S
O307 Fe289 2.002 1_655 S
O307 C303 1.295 . S
O308 Fe291 1.997 1_655 S
O308 C303 1.235 . S
C309 O292 1.295 . S
C309 O293 1.235 . S
Fe310 O312 1.919 . S
Fe310 O315 1.982 1_655 S
Fe310 O316 1.988 1_655 S
Fe310 O321 1.990 . S
Fe310 O324 2.010 . S
Fe311 O312 1.919 . S
Fe311 O319 1.982 1_655 S
Fe311 O322 2.010 . S
Fe311 O326 1.990 . S
Fe311 O329 1.988 1_655 S
O312 Fe310 1.919 . S
O312 Fe311 1.919 . S
O312 Fe313 1.919 . S
Fe313 O312 1.919 . S
Fe313 O314 1.988 1_655 S
Fe313 O323 1.990 . S
Fe313 O327 2.009 . S
Fe313 O330 1.983 1_655 S
O314 Fe313 1.988 1_455 S
O314 C331 1.295 . S
O315 Fe310 1.982 1_455 S
O315 C331 1.235 . S
O316 Fe310 1.988 1_455 S
O316 C317 1.295 . S
C317 O316 1.295 . S
C317 O319 1.235 . S
C318 O323 1.287 . S
C318 O324 1.255 . S
O319 Fe311 1.982 1_455 S
O319 C317 1.235 . S
C320 O326 1.287 . S
C320 O327 1.255 . S
O321 Fe310 1.990 . S
O321 C328 1.287 . S
O322 Fe311 2.010 . S
O322 C328 1.255 . S
O323 Fe313 1.990 . S
O323 C318 1.287 . S
O324 Fe310 2.010 . S
O324 C318 1.255 . S
C325 O329 1.295 . S
C325 O330 1.235 . S
O326 Fe311 1.990 . S
O326 C320 1.287 . S
O327 Fe313 2.009 . S
O327 C320 1.255 . S
C328 O321 1.287 . S
C328 O322 1.255 . S
O329 Fe311 1.988 1_455 S
O329 C325 1.295 . S
O330 Fe313 1.983 1_455 S
O330 C325 1.235 . S
C331 O314 1.295 . S
C331 O315 1.235 . S
Fe332 O334 1.918 . S
Fe332 O337 1.997 . S
Fe332 O338 2.002 . S
Fe332 O343 1.976 . S
Fe332 O346 1.996 . S
Fe333 O334 1.918 . S
Fe333 O341 1.997 . S
Fe333 O344 1.996 . S
Fe333 O348 1.976 . S
Fe333 O351 2.002 . S
O334 Fe332 1.918 . S
O334 Fe333 1.918 . S
O334 Fe335 1.918 . S
Fe335 O334 1.918 . S
Fe335 O336 2.002 . S
Fe335 O345 1.976 . S
Fe335 O349 1.996 . S
Fe335 O352 1.997 . S
O336 Fe335 2.002 . S
O336 C353 1.295 . S
O337 Fe332 1.997 . S
O337 C353 1.235 . S
O338 Fe332 2.002 . S
O338 C339 1.295 . S
C339 O338 1.295 . S
C339 O341 1.235 . S
C340 O345 1.287 . S
C340 O346 1.255 . S
O341 Fe333 1.997 . S
O341 C339 1.235 . S
C342 O348 1.287 . S
C342 O349 1.255 . S
O343 Fe332 1.976 . S
O343 C350 1.287 . S
O344 Fe333 1.996 . S
O344 C350 1.255 . S
O345 Fe335 1.976 . S
O345 C340 1.287 . S
O346 Fe332 1.996 . S
O346 C340 1.255 . S
C347 O351 1.295 . S
C347 O352 1.235 . S
O348 Fe333 1.976 . S
O348 C342 1.287 . S
O349 Fe335 1.996 . S
O349 C342 1.255 . S
C350 O343 1.287 . S
C350 O344 1.255 . S
O351 Fe333 2.002 . S
O351 C347 1.295 . S
O352 Fe335 1.997 . S
O352 C347 1.235 . S
C353 O336 1.295 . S
C353 O337 1.235 . S
Fe354 O356 1.918 . S
Fe354 O359 1.997 . S
Fe354 O360 2.002 . S
Fe354 O365 1.976 . S
Fe354 O368 1.996 . S
Fe355 O356 1.918 . S
Fe355 O363 1.997 . S
Fe355 O366 1.996 . S
Fe355 O370 1.976 . S
Fe355 O373 2.002 . S
O356 Fe354 1.918 . S
O356 Fe355 1.918 . S
O356 Fe357 1.918 . S
Fe357 O356 1.918 . S
Fe357 O358 2.002 . S
Fe357 O367 1.976 . S
Fe357 O371 1.996 . S
Fe357 O374 1.997 . S
O358 Fe357 2.002 . S
O358 C375 1.295 . S
O359 Fe354 1.997 . S
O359 C375 1.235 . S
O360 Fe354 2.002 . S
O360 C361 1.295 . S
C361 O360 1.295 . S
C361 O363 1.235 . S
C362 O367 1.287 . S
C362 O368 1.255 . S
O363 Fe355 1.997 . S
O363 C361 1.235 . S
C364 O370 1.287 . S
C364 O371 1.255 . S
O365 Fe354 1.976 . S
O365 C372 1.287 . S
O366 Fe355 1.996 . S
O366 C372 1.255 . S
O367 Fe357 1.976 . S
O367 C362 1.287 . S
O368 Fe354 1.996 . S
O368 C362 1.255 . S
C369 O373 1.295 . S
C369 O374 1.235 . S
O370 Fe355 1.976 . S
O370 C364 1.287 . S
O371 Fe357 1.996 . S
O371 C364 1.255 . S
C372 O365 1.287 . S
C372 O366 1.255 . S
O373 Fe355 2.002 . S
O373 C369 1.295 . S
O374 Fe357 1.997 . S
O374 C369 1.235 . S
C375 O358 1.295 . S
C375 O359 1.235 . S
C376 C377 1.391 . S
C376 C378 1.394 . S
C376 H392 0.931 . S
C377 C376 1.391 . S
C377 C381 1.376 . S
C378 C376 1.394 . S
C378 C379 1.369 . S
C378 C382 1.531 . S
C379 C378 1.369 . S
C379 C380 1.410 . S
C379 C387 1.503 . S
C380 C379 1.410 . S
C380 C381 1.392 . S
C380 C383 1.511 . S
C381 C377 1.376 . S
C381 C380 1.392 . S
C381 H393 0.929 . S
C382 C378 1.531 . S
C382 H394 0.960 . S
C382 H395 0.962 . S
C382 H396 0.960 . S
C383 C380 1.511 . S
C383 H397 0.961 . S
C383 H398 0.961 . S
C383 H399 0.961 . S
C384 C385 1.370 . S
C384 C386 1.363 . S
C384 H400 0.931 . S
C385 C384 1.370 . S
C385 C389 1.408 . S
C386 C384 1.363 . S
C386 C387 1.370 . S
C386 C390 1.524 . S
C387 C379 1.503 . S
C387 C386 1.370 . S
C387 C388 1.403 . S
C388 C387 1.403 . S
C388 C389 1.404 . S
C388 C391 1.539 . S
C389 C385 1.408 . S
C389 C388 1.404 . S
C389 H401 0.930 . S
C390 C386 1.524 . S
C390 H402 0.956 . S
C390 H403 0.961 . S
C390 H404 0.961 . S
C391 C388 1.539 . S
C391 H405 0.958 . S
C391 H406 0.961 . S
C391 H407 0.960 . S
H392 C376 0.931 . S
H393 C381 0.929 . S
H394 C382 0.960 . S
H395 C382 0.962 . S
H396 C382 0.960 . S
H397 C383 0.961 . S
H398 C383 0.961 . S
H399 C383 0.961 . S
H400 C384 0.931 . S
H401 C389 0.930 . S
H402 C390 0.956 . S
H403 C390 0.961 . S
H404 C390 0.961 . S
H405 C391 0.958 . S
H406 C391 0.961 . S
H407 C391 0.960 . S
C408 C409 1.391 . S
C408 C410 1.394 . S
C408 H424 0.931 . S
C409 C408 1.391 . S
C409 C413 1.376 . S
C410 C408 1.394 . S
C410 C411 1.369 . S
C410 C414 1.531 . S
C411 C410 1.369 . S
C411 C412 1.410 . S
C411 C419 1.503 . S
C412 C411 1.410 . S
C412 C413 1.392 . S
C412 C415 1.511 . S
C413 C409 1.376 . S
C413 C412 1.392 . S
C413 H425 0.929 . S
C414 C410 1.531 . S
C414 H426 0.960 . S
C414 H427 0.962 . S
C414 H428 0.960 . S
C415 C412 1.511 . S
C415 H429 0.961 . S
C415 H430 0.961 . S
C415 H431 0.961 . S
C416 C417 1.370 . S
C416 C418 1.363 . S
C416 H432 0.931 . S
C417 C416 1.370 . S
C417 C421 1.408 . S
C418 C416 1.363 . S
C418 C419 1.370 . S
C418 C422 1.524 . S
C419 C411 1.503 . S
C419 C418 1.370 . S
C419 C420 1.403 . S
C420 C419 1.403 . S
C420 C421 1.404 . S
C420 C423 1.539 . S
C421 C417 1.408 . S
C421 C420 1.404 . S
C421 H433 0.930 . S
C422 C418 1.524 . S
C422 H434 0.956 . S
C422 H435 0.961 . S
C422 H436 0.961 . S
C423 C420 1.539 . S
C423 H437 0.958 . S
C423 H438 0.961 . S
C423 H439 0.960 . S
H424 C408 0.931 . S
H425 C413 0.929 . S
H426 C414 0.960 . S
H427 C414 0.962 . S
H428 C414 0.960 . S
H429 C415 0.961 . S
H430 C415 0.961 . S
H431 C415 0.961 . S
H432 C416 0.931 . S
H433 C421 0.930 . S
H434 C422 0.956 . S
H435 C422 0.961 . S
H436 C422 0.961 . S
H437 C423 0.958 . S
H438 C423 0.961 . S
H439 C423 0.960 . S
C440 C441 1.391 . S
C440 C442 1.394 . S
C440 H456 0.931 . S
C441 C440 1.391 . S
C441 C445 1.376 . S
C442 C440 1.394 . S
C442 C443 1.369 . S
C442 C446 1.531 . S
C443 C442 1.369 . S
C443 C444 1.410 . S
C443 C451 1.503 . S
C444 C443 1.410 . S
C444 C445 1.392 . S
C444 C447 1.511 . S
C445 C441 1.376 . S
C445 C444 1.392 . S
C445 H457 0.929 . S
C446 C442 1.531 . S
C446 H458 0.960 . S
C446 H459 0.962 . S
C446 H460 0.960 . S
C447 C444 1.511 . S
C447 H461 0.961 . S
C447 H462 0.961 . S
C447 H463 0.961 . S
C448 C449 1.370 . S
C448 C450 1.363 . S
C448 H464 0.931 . S
C449 C448 1.370 . S
C449 C453 1.408 . S
C450 C448 1.363 . S
C450 C451 1.370 . S
C450 C454 1.524 . S
C451 C443 1.503 . S
C451 C450 1.370 . S
C451 C452 1.403 . S
C452 C451 1.403 . S
C452 C453 1.404 . S
C452 C455 1.539 . S
C453 C449 1.408 . S
C453 C452 1.404 . S
C453 H465 0.930 . S
C454 C450 1.524 . S
C454 H466 0.956 . S
C454 H467 0.961 . S
C454 H468 0.961 . S
C455 C452 1.539 . S
C455 H469 0.958 . S
C455 H470 0.961 . S
C455 H471 0.960 . S
H456 C440 0.931 . S
H457 C445 0.929 . S
H458 C446 0.960 . S
H459 C446 0.962 . S
H460 C446 0.960 . S
H461 C447 0.961 . S
H462 C447 0.961 . S
H463 C447 0.961 . S
H464 C448 0.931 . S
H465 C453 0.930 . S
H466 C454 0.956 . S
H467 C454 0.961 . S
H468 C454 0.961 . S
H469 C455 0.958 . S
H470 C455 0.961 . S
H471 C455 0.960 . S
C472 C473 1.391 . S
C472 C474 1.394 . S
C472 H488 0.931 . S
C473 C472 1.391 . S
C473 C477 1.376 . S
C474 C472 1.394 . S
C474 C475 1.369 . S
C474 C478 1.531 . S
C475 C474 1.369 . S
C475 C476 1.410 . S
C475 C483 1.503 . S
C476 C475 1.410 . S
C476 C477 1.392 . S
C476 C479 1.511 . S
C477 C473 1.376 . S
C477 C476 1.392 . S
C477 H489 0.929 . S
C478 C474 1.531 . S
C478 H490 0.960 . S
C478 H491 0.962 . S
C478 H492 0.960 . S
C479 C476 1.511 . S
C479 H493 0.961 . S
C479 H494 0.961 . S
C479 H495 0.961 . S
C480 C481 1.370 . S
C480 C482 1.363 . S
C480 H496 0.931 . S
C481 C480 1.370 . S
C481 C485 1.408 . S
C482 C480 1.363 . S
C482 C483 1.370 . S
C482 C486 1.524 . S
C483 C475 1.503 . S
C483 C482 1.370 . S
C483 C484 1.403 . S
C484 C483 1.403 . S
C484 C485 1.404 . S
C484 C487 1.539 . S
C485 C481 1.408 . S
C485 C484 1.404 . S
C485 H497 0.930 . S
C486 C482 1.524 . S
C486 H498 0.956 . S
C486 H499 0.961 . S
C486 H500 0.961 . S
C487 C484 1.539 . S
C487 H501 0.958 . S
C487 H502 0.961 . S
C487 H503 0.960 . S
H488 C472 0.931 . S
H489 C477 0.929 . S
H490 C478 0.960 . S
H491 C478 0.962 . S
H492 C478 0.960 . S
H493 C479 0.961 . S
H494 C479 0.961 . S
H495 C479 0.961 . S
H496 C480 0.931 . S
H497 C485 0.930 . S
H498 C486 0.956 . S
H499 C486 0.961 . S
H500 C486 0.961 . S
H501 C487 0.958 . S
H502 C487 0.961 . S
H503 C487 0.960 . S
C504 C505 1.391 . S
C504 C506 1.394 . S
C504 H520 0.931 . S
C505 C504 1.391 . S
C505 C509 1.376 . S
C506 C504 1.394 . S
C506 C507 1.369 . S
C506 C510 1.531 . S
C507 C506 1.369 . S
C507 C508 1.410 . S
C507 C515 1.503 . S
C508 C507 1.410 . S
C508 C509 1.392 . S
C508 C511 1.511 . S
C509 C505 1.376 . S
C509 C508 1.392 . S
C509 H521 0.929 . S
C510 C506 1.531 . S
C510 H522 0.960 . S
C510 H523 0.962 . S
C510 H524 0.960 . S
C511 C508 1.511 . S
C511 H525 0.961 . S
C511 H526 0.961 . S
C511 H527 0.961 . S
C512 C513 1.370 . S
C512 C514 1.363 . S
C512 H528 0.931 . S
C513 C512 1.370 . S
C513 C517 1.408 . S
C514 C512 1.363 . S
C514 C515 1.370 . S
C514 C518 1.524 . S
C515 C507 1.503 . S
C515 C514 1.370 . S
C515 C516 1.403 . S
C516 C515 1.403 . S
C516 C517 1.404 . S
C516 C519 1.539 . S
C517 C513 1.408 . S
C517 C516 1.404 . S
C517 H529 0.930 . S
C518 C514 1.524 . S
C518 H530 0.956 . S
C518 H531 0.961 . S
C518 H532 0.961 . S
C519 C516 1.539 . S
C519 H533 0.958 . S
C519 H534 0.961 . S
C519 H535 0.960 . S
H520 C504 0.931 . S
H521 C509 0.929 . S
H522 C510 0.960 . S
H523 C510 0.962 . S
H524 C510 0.960 . S
H525 C511 0.961 . S
H526 C511 0.961 . S
H527 C511 0.961 . S
H528 C512 0.931 . S
H529 C517 0.930 . S
H530 C518 0.956 . S
H531 C518 0.961 . S
H532 C518 0.961 . S
H533 C519 0.958 . S
H534 C519 0.961 . S
H535 C519 0.960 . S
C536 C537 1.391 . S
C536 C538 1.394 . S
C536 H552 0.931 . S
C537 C536 1.391 . S
C537 C541 1.376 . S
C538 C536 1.394 . S
C538 C539 1.369 . S
C538 C542 1.531 . S
C539 C538 1.369 . S
C539 C540 1.410 . S
C539 C547 1.503 . S
C540 C539 1.410 . S
C540 C541 1.392 . S
C540 C543 1.511 . S
C541 C537 1.376 . S
C541 C540 1.392 . S
C541 H553 0.929 . S
C542 C538 1.531 . S
C542 H554 0.960 . S
C542 H555 0.962 . S
C542 H556 0.960 . S
C543 C540 1.511 . S
C543 H557 0.961 . S
C543 H558 0.961 . S
C543 H559 0.961 . S
C544 C545 1.370 . S
C544 C546 1.363 . S
C544 H560 0.931 . S
C545 C544 1.370 . S
C545 C549 1.408 . S
C546 C544 1.363 . S
C546 C547 1.370 . S
C546 C550 1.524 . S
C547 C539 1.503 . S
C547 C546 1.370 . S
C547 C548 1.403 . S
C548 C547 1.403 . S
C548 C549 1.404 . S
C548 C551 1.539 . S
C549 C545 1.408 . S
C549 C548 1.404 . S
C549 H561 0.930 . S
C550 C546 1.524 . S
C550 H562 0.956 . S
C550 H563 0.961 . S
C550 H564 0.961 . S
C551 C548 1.539 . S
C551 H565 0.958 . S
C551 H566 0.961 . S
C551 H567 0.960 . S
H552 C536 0.931 . S
H553 C541 0.929 . S
H554 C542 0.960 . S
H555 C542 0.962 . S
H556 C542 0.960 . S
H557 C543 0.961 . S
H558 C543 0.961 . S
H559 C543 0.961 . S
H560 C544 0.931 . S
H561 C549 0.930 . S
H562 C550 0.956 . S
H563 C550 0.961 . S
H564 C550 0.961 . S
H565 C551 0.958 . S
H566 C551 0.961 . S
H567 C551 0.960 . S
C568 C569 1.391 . S
C568 C570 1.394 . S
C568 H584 0.931 . S
C569 C568 1.391 . S
C569 C573 1.376 . S
C570 C568 1.394 . S
C570 C571 1.369 . S
C570 C574 1.531 . S
C571 C570 1.369 . S
C571 C572 1.410 . S
C571 C579 1.503 . S
C572 C571 1.410 . S
C572 C573 1.392 . S
C572 C575 1.511 . S
C573 C569 1.376 . S
C573 C572 1.392 . S
C573 H585 0.929 . S
C574 C570 1.531 . S
C574 H586 0.960 . S
C574 H587 0.962 . S
C574 H588 0.960 . S
C575 C572 1.511 . S
C575 H589 0.961 . S
C575 H590 0.961 . S
C575 H591 0.961 . S
C576 C577 1.370 . S
C576 C578 1.363 . S
C576 H592 0.931 . S
C577 C576 1.370 . S
C577 C581 1.408 . S
C578 C576 1.363 . S
C578 C579 1.370 . S
C578 C582 1.524 . S
C579 C571 1.503 . S
C579 C578 1.370 . S
C579 C580 1.403 . S
C580 C579 1.403 . S
C580 C581 1.404 . S
C580 C583 1.539 . S
C581 C577 1.408 . S
C581 C580 1.404 . S
C581 H593 0.930 . S
C582 C578 1.524 . S
C582 H594 0.956 . S
C582 H595 0.961 . S
C582 H596 0.961 . S
C583 C580 1.539 . S
C583 H597 0.958 . S
C583 H598 0.961 . S
C583 H599 0.960 . S
H584 C568 0.931 . S
H585 C573 0.929 . S
H586 C574 0.960 . S
H587 C574 0.962 . S
H588 C574 0.960 . S
H589 C575 0.961 . S
H590 C575 0.961 . S
H591 C575 0.961 . S
H592 C576 0.931 . S
H593 C581 0.930 . S
H594 C582 0.956 . S
H595 C582 0.961 . S
H596 C582 0.961 . S
H597 C583 0.958 . S
H598 C583 0.961 . S
H599 C583 0.960 . S
C600 C601 1.391 . S
C600 C602 1.394 . S
C600 H616 0.931 . S
C601 C600 1.391 . S
C601 C605 1.376 . S
C602 C600 1.394 . S
C602 C603 1.369 . S
C602 C606 1.531 . S
C603 C602 1.369 . S
C603 C604 1.410 . S
C603 C611 1.503 . S
C604 C603 1.410 . S
C604 C605 1.392 . S
C604 C607 1.511 . S
C605 C601 1.376 . S
C605 C604 1.392 . S
C605 H617 0.929 . S
C606 C602 1.531 . S
C606 H618 0.960 . S
C606 H619 0.962 . S
C606 H620 0.960 . S
C607 C604 1.511 . S
C607 H621 0.961 . S
C607 H622 0.961 . S
C607 H623 0.961 . S
C608 C609 1.370 . S
C608 C610 1.363 . S
C608 H624 0.931 . S
C609 C608 1.370 . S
C609 C613 1.408 . S
C610 C608 1.363 . S
C610 C611 1.370 . S
C610 C614 1.524 . S
C611 C603 1.503 . S
C611 C610 1.370 . S
C611 C612 1.403 . S
C612 C611 1.403 . S
C612 C613 1.404 . S
C612 C615 1.539 . S
C613 C609 1.408 . S
C613 C612 1.404 . S
C613 H625 0.930 . S
C614 C610 1.524 . S
C614 H626 0.956 . S
C614 H627 0.961 . S
C614 H628 0.961 . S
C615 C612 1.539 . S
C615 H629 0.958 . S
C615 H630 0.961 . S
C615 H631 0.960 . S
H616 C600 0.931 . S
H617 C605 0.929 . S
H618 C606 0.960 . S
H619 C606 0.962 . S
H620 C606 0.960 . S
H621 C607 0.961 . S
H622 C607 0.961 . S
H623 C607 0.961 . S
H624 C608 0.931 . S
H625 C613 0.930 . S
H626 C614 0.956 . S
H627 C614 0.961 . S
H628 C614 0.961 . S
H629 C615 0.958 . S
H630 C615 0.961 . S
H631 C615 0.960 . S
C632 C633 1.391 . S
C632 C634 1.394 . S
C632 H648 0.931 . S
C633 C632 1.391 . S
C633 C637 1.376 . S
C634 C632 1.394 . S
C634 C635 1.369 . S
C634 C638 1.531 . S
C635 C634 1.369 . S
C635 C636 1.410 . S
C635 C643 1.503 . S
C636 C635 1.410 . S
C636 C637 1.392 . S
C636 C639 1.511 . S
C637 C633 1.376 . S
C637 C636 1.392 . S
C637 H649 0.929 . S
C638 C634 1.531 . S
C638 H650 0.960 . S
C638 H651 0.962 . S
C638 H652 0.960 . S
C639 C636 1.511 . S
C639 H653 0.961 . S
C639 H654 0.961 . S
C639 H655 0.961 . S
C640 C641 1.370 . S
C640 C642 1.363 . S
C640 H656 0.931 . S
C641 C640 1.370 . S
C641 C645 1.408 . S
C642 C640 1.363 . S
C642 C643 1.370 . S
C642 C646 1.524 . S
C643 C635 1.503 . S
C643 C642 1.370 . S
C643 C644 1.403 . S
C644 C643 1.403 . S
C644 C645 1.404 . S
C644 C647 1.539 . S
C645 C641 1.408 . S
C645 C644 1.404 . S
C645 H657 0.930 . S
C646 C642 1.524 . S
C646 H658 0.956 . S
C646 H659 0.961 . S
C646 H660 0.961 . S
C647 C644 1.539 . S
C647 H661 0.958 . S
C647 H662 0.961 . S
C647 H663 0.960 . S
H648 C632 0.931 . S
H649 C637 0.929 . S
H650 C638 0.960 . S
H651 C638 0.962 . S
H652 C638 0.960 . S
H653 C639 0.961 . S
H654 C639 0.961 . S
H655 C639 0.961 . S
H656 C640 0.931 . S
H657 C645 0.930 . S
H658 C646 0.956 . S
H659 C646 0.961 . S
H660 C646 0.961 . S
H661 C647 0.958 . S
H662 C647 0.961 . S
H663 C647 0.960 . S
C664 C665 1.391 . S
C664 C666 1.394 . S
C664 H680 0.931 . S
C665 C664 1.391 . S
C665 C669 1.376 . S
C666 C664 1.394 . S
C666 C667 1.369 . S
C666 C670 1.531 . S
C667 C666 1.369 . S
C667 C668 1.410 . S
C667 C675 1.503 . S
C668 C667 1.410 . S
C668 C669 1.392 . S
C668 C671 1.511 . S
C669 C665 1.376 . S
C669 C668 1.392 . S
C669 H681 0.929 . S
C670 C666 1.531 . S
C670 H682 0.960 . S
C670 H683 0.962 . S
C670 H684 0.960 . S
C671 C668 1.511 . S
C671 H685 0.961 . S
C671 H686 0.961 . S
C671 H687 0.961 . S
C672 C673 1.370 . S
C672 C674 1.363 . S
C672 H688 0.931 . S
C673 C672 1.370 . S
C673 C677 1.408 . S
C674 C672 1.363 . S
C674 C675 1.370 . S
C674 C678 1.524 . S
C675 C667 1.503 . S
C675 C674 1.370 . S
C675 C676 1.403 . S
C676 C675 1.403 . S
C676 C677 1.404 . S
C676 C679 1.539 . S
C677 C673 1.408 . S
C677 C676 1.404 . S
C677 H689 0.930 . S
C678 C674 1.524 . S
C678 H690 0.956 . S
C678 H691 0.961 . S
C678 H692 0.961 . S
C679 C676 1.539 . S
C679 H693 0.958 . S
C679 H694 0.961 . S
C679 H695 0.960 . S
H680 C664 0.931 . S
H681 C669 0.929 . S
H682 C670 0.960 . S
H683 C670 0.962 . S
H684 C670 0.960 . S
H685 C671 0.961 . S
H686 C671 0.961 . S
H687 C671 0.961 . S
H688 C672 0.931 . S
H689 C677 0.930 . S
H690 C678 0.956 . S
H691 C678 0.961 . S
H692 C678 0.961 . S
H693 C679 0.958 . S
H694 C679 0.961 . S
H695 C679 0.960 . S
C696 C697 1.391 . S
C696 C698 1.394 . S
C696 H712 0.931 . S
C697 C696 1.391 . S
C697 C701 1.376 . S
C698 C696 1.394 . S
C698 C699 1.369 . S
C698 C702 1.531 . S
C699 C698 1.369 . S
C699 C700 1.410 . S
C699 C707 1.503 . S
C700 C699 1.410 . S
C700 C701 1.392 . S
C700 C703 1.511 . S
C701 C697 1.376 . S
C701 C700 1.392 . S
C701 H713 0.929 . S
C702 C698 1.531 . S
C702 H714 0.960 . S
C702 H715 0.962 . S
C702 H716 0.960 . S
C703 C700 1.511 . S
C703 H717 0.961 . S
C703 H718 0.961 . S
C703 H719 0.961 . S
C704 C705 1.370 . S
C704 C706 1.363 . S
C704 H720 0.931 . S
C705 C704 1.370 . S
C705 C709 1.408 . S
C706 C704 1.363 . S
C706 C707 1.370 . S
C706 C710 1.524 . S
C707 C699 1.503 . S
C707 C706 1.370 . S
C707 C708 1.403 . S
C708 C707 1.403 . S
C708 C709 1.404 . S
C708 C711 1.539 . S
C709 C705 1.408 . S
C709 C708 1.404 . S
C709 H721 0.930 . S
C710 C706 1.524 . S
C710 H722 0.956 . S
C710 H723 0.961 . S
C710 H724 0.961 . S
C711 C708 1.539 . S
C711 H725 0.958 . S
C711 H726 0.961 . S
C711 H727 0.960 . S
H712 C696 0.931 . S
H713 C701 0.929 . S
H714 C702 0.960 . S
H715 C702 0.962 . S
H716 C702 0.960 . S
H717 C703 0.961 . S
H718 C703 0.961 . S
H719 C703 0.961 . S
H720 C704 0.931 . S
H721 C709 0.930 . S
H722 C710 0.956 . S
H723 C710 0.961 . S
H724 C710 0.961 . S
H725 C711 0.958 . S
H726 C711 0.961 . S
H727 C711 0.960 . S
C728 C729 1.391 . S
C728 C730 1.394 . S
C728 H744 0.931 . S
C729 C728 1.391 . S
C729 C733 1.376 . S
C730 C728 1.394 . S
C730 C731 1.369 . S
C730 C734 1.531 . S
C731 C730 1.369 . S
C731 C732 1.410 . S
C731 C739 1.503 . S
C732 C731 1.410 . S
C732 C733 1.392 . S
C732 C735 1.511 . S
C733 C729 1.376 . S
C733 C732 1.392 . S
C733 H745 0.929 . S
C734 C730 1.531 . S
C734 H746 0.960 . S
C734 H747 0.962 . S
C734 H748 0.960 . S
C735 C732 1.511 . S
C735 H749 0.961 . S
C735 H750 0.961 . S
C735 H751 0.961 . S
C736 C737 1.370 . S
C736 C738 1.363 . S
C736 H752 0.931 . S
C737 C736 1.370 . S
C737 C741 1.408 . S
C738 C736 1.363 . S
C738 C739 1.370 . S
C738 C742 1.524 . S
C739 C731 1.503 . S
C739 C738 1.370 . S
C739 C740 1.403 . S
C740 C739 1.403 . S
C740 C741 1.404 . S
C740 C743 1.539 . S
C741 C737 1.408 . S
C741 C740 1.404 . S
C741 H753 0.930 . S
C742 C738 1.524 . S
C742 H754 0.956 . S
C742 H755 0.961 . S
C742 H756 0.961 . S
C743 C740 1.539 . S
C743 H757 0.958 . S
C743 H758 0.961 . S
C743 H759 0.960 . S
H744 C728 0.931 . S
H745 C733 0.929 . S
H746 C734 0.960 . S
H747 C734 0.962 . S
H748 C734 0.960 . S
H749 C735 0.961 . S
H750 C735 0.961 . S
H751 C735 0.961 . S
H752 C736 0.931 . S
H753 C741 0.930 . S
H754 C742 0.956 . S
H755 C742 0.961 . S
H756 C742 0.961 . S
H757 C743 0.958 . S
H758 C743 0.961 . S
H759 C743 0.960 . S
C760 C761 1.391 . S
C760 C762 1.394 . S
C760 H776 0.931 . S
C761 C760 1.391 . S
C761 C765 1.376 . S
C762 C760 1.394 . S
C762 C763 1.369 . S
C762 C766 1.531 . S
C763 C762 1.369 . S
C763 C764 1.410 . S
C763 C771 1.503 . S
C764 C763 1.410 . S
C764 C765 1.392 . S
C764 C767 1.511 . S
C765 C761 1.376 . S
C765 C764 1.392 . S
C765 H777 0.929 1_545 S
C766 C762 1.531 . S
C766 H778 0.960 . S
C766 H779 0.962 . S
C766 H780 0.960 . S
C767 C764 1.511 . S
C767 H781 0.961 1_545 S
C767 H782 0.961 . S
C767 H783 0.961 . S
C768 C769 1.370 . S
C768 C770 1.363 . S
C768 H784 0.931 . S
C769 C768 1.370 . S
C769 C773 1.408 . S
C770 C768 1.363 . S
C770 C771 1.370 . S
C770 C774 1.524 . S
C771 C763 1.503 . S
C771 C770 1.370 . S
C771 C772 1.403 . S
C772 C771 1.403 . S
C772 C773 1.404 . S
C772 C775 1.539 . S
C773 C769 1.408 . S
C773 C772 1.404 . S
C773 H785 0.930 . S
C774 C770 1.524 . S
C774 H786 0.956 . S
C774 H787 0.961 . S
C774 H788 0.961 . S
C775 C772 1.539 . S
C775 H789 0.958 . S
C775 H790 0.961 . S
C775 H791 0.960 . S
H776 C760 0.931 . S
H777 C765 0.929 1_565 S
H778 C766 0.960 . S
H779 C766 0.962 . S
H780 C766 0.960 . S
H781 C767 0.961 1_565 S
H782 C767 0.961 . S
H783 C767 0.961 . S
H784 C768 0.931 . S
H785 C773 0.930 . S
H786 C774 0.956 . S
H787 C774 0.961 . S
H788 C774 0.961 . S
H789 C775 0.958 . S
H790 C775 0.961 . S
H791 C775 0.960 . S
C792 C793 1.391 . S
C792 C794 1.394 . S
C792 H808 0.931 1_565 S
C793 C792 1.391 . S
C793 C797 1.376 . S
C794 C792 1.394 . S
C794 C795 1.369 . S
C794 C798 1.531 . S
C795 C794 1.369 . S
C795 C796 1.410 . S
C795 C803 1.503 . S
C796 C795 1.410 . S
C796 C797 1.392 . S
C796 C799 1.511 . S
C797 C793 1.376 . S
C797 C796 1.392 . S
C797 H809 0.929 . S
C798 C794 1.531 . S
C798 H810 0.960 . S
C798 H811 0.962 . S
C798 H812 0.960 . S
C799 C796 1.511 . S
C799 H813 0.961 . S
C799 H814 0.961 . S
C799 H815 0.961 . S
C800 C801 1.370 . S
C800 C802 1.363 . S
C800 H816 0.931 . S
C801 C800 1.370 . S
C801 C805 1.408 . S
C802 C800 1.363 . S
C802 C803 1.370 . S
C802 C806 1.524 . S
C803 C795 1.503 . S
C803 C802 1.370 . S
C803 C804 1.403 . S
C804 C803 1.403 . S
C804 C805 1.404 . S
C804 C807 1.539 . S
C805 C801 1.408 . S
C805 C804 1.404 . S
C805 H817 0.930 . S
C806 C802 1.524 . S
C806 H818 0.956 . S
C806 H819 0.961 . S
C806 H820 0.961 . S
C807 C804 1.539 . S
C807 H821 0.958 . S
C807 H822 0.961 . S
C807 H823 0.960 . S
H808 C792 0.931 1_545 S
H809 C797 0.929 . S
H810 C798 0.960 . S
H811 C798 0.962 . S
H812 C798 0.960 . S
H813 C799 0.961 . S
H814 C799 0.961 . S
H815 C799 0.961 . S
H816 C800 0.931 . S
H817 C805 0.930 . S
H818 C806 0.956 . S
H819 C806 0.961 . S
H820 C806 0.961 . S
H821 C807 0.958 . S
H822 C807 0.961 . S
H823 C807 0.960 . S
C824 C825 1.391 . S
C824 C826 1.394 . S
C824 H840 0.931 . S
C825 C824 1.391 . S
C825 C829 1.376 . S
C826 C824 1.394 . S
C826 C827 1.369 . S
C826 C830 1.531 . S
C827 C826 1.369 . S
C827 C828 1.410 . S
C827 C835 1.503 . S
C828 C827 1.410 . S
C828 C829 1.392 . S
C828 C831 1.511 . S
C829 C825 1.376 . S
C829 C828 1.392 . S
C829 H841 0.929 . S
C830 C826 1.531 . S
C830 H842 0.960 . S
C830 H843 0.962 . S
C830 H844 0.960 . S
C831 C828 1.511 . S
C831 H845 0.961 . S
C831 H846 0.961 . S
C831 H847 0.961 . S
C832 C833 1.370 . S
C832 C834 1.363 . S
C832 H848 0.931 . S
C833 C832 1.370 . S
C833 C837 1.408 . S
C834 C832 1.363 . S
C834 C835 1.370 . S
C834 C838 1.524 . S
C835 C827 1.503 . S
C835 C834 1.370 . S
C835 C836 1.403 . S
C836 C835 1.403 . S
C836 C837 1.404 . S
C836 C839 1.539 . S
C837 C833 1.408 . S
C837 C836 1.404 . S
C837 H849 0.930 . S
C838 C834 1.524 . S
C838 H850 0.956 . S
C838 H851 0.961 . S
C838 H852 0.961 . S
C839 C836 1.539 . S
C839 H853 0.958 . S
C839 H854 0.961 . S
C839 H855 0.960 . S
H840 C824 0.931 . S
H841 C829 0.929 . S
H842 C830 0.960 . S
H843 C830 0.962 . S
H844 C830 0.960 . S
H845 C831 0.961 . S
H846 C831 0.961 . S
H847 C831 0.961 . S
H848 C832 0.931 . S
H849 C837 0.930 . S
H850 C838 0.956 . S
H851 C838 0.961 . S
H852 C838 0.961 . S
H853 C839 0.958 . S
H854 C839 0.961 . S
H855 C839 0.960 . S
C856 C857 1.391 . S
C856 C858 1.394 . S
C856 H872 0.931 1_565 S
C857 C856 1.391 . S
C857 C861 1.376 . S
C858 C856 1.394 . S
C858 C859 1.369 . S
C858 C862 1.531 . S
C859 C858 1.369 . S
C859 C860 1.410 . S
C859 C867 1.503 . S
C860 C859 1.410 . S
C860 C861 1.392 . S
C860 C863 1.511 . S
C861 C857 1.376 . S
C861 C860 1.392 . S
C861 H873 0.929 . S
C862 C858 1.531 . S
C862 H874 0.960 . S
C862 H875 0.962 . S
C862 H876 0.960 . S
C863 C860 1.511 . S
C863 H877 0.961 . S
C863 H878 0.961 . S
C863 H879 0.961 . S
C864 C865 1.370 . S
C864 C866 1.363 . S
C864 H880 0.931 . S
C865 C864 1.370 . S
C865 C869 1.408 . S
C866 C864 1.363 . S
C866 C867 1.370 . S
C866 C870 1.524 . S
C867 C859 1.503 . S
C867 C866 1.370 . S
C867 C868 1.403 . S
C868 C867 1.403 . S
C868 C869 1.404 . S
C868 C871 1.539 . S
C869 C865 1.408 . S
C869 C868 1.404 . S
C869 H881 0.930 . S
C870 C866 1.524 . S
C870 H882 0.956 . S
C870 H883 0.961 . S
C870 H884 0.961 . S
C871 C868 1.539 . S
C871 H885 0.958 . S
C871 H886 0.961 . S
C871 H887 0.960 . S
H872 C856 0.931 1_545 S
H873 C861 0.929 . S
H874 C862 0.960 . S
H875 C862 0.962 . S
H876 C862 0.960 . S
H877 C863 0.961 . S
H878 C863 0.961 . S
H879 C863 0.961 . S
H880 C864 0.931 . S
H881 C869 0.930 . S
H882 C870 0.956 . S
H883 C870 0.961 . S
H884 C870 0.961 . S
H885 C871 0.958 . S
H886 C871 0.961 . S
H887 C871 0.960 . S
C888 C889 1.391 . S
C888 C890 1.394 . S
C888 H904 0.931 . S
C889 C888 1.391 . S
C889 C893 1.376 . S
C890 C888 1.394 . S
C890 C891 1.369 . S
C890 C894 1.531 . S
C891 C890 1.369 . S
C891 C892 1.410 . S
C891 C899 1.503 . S
C892 C891 1.410 . S
C892 C893 1.392 . S
C892 C895 1.511 . S
C893 C889 1.376 . S
C893 C892 1.392 . S
C893 H905 0.929 . S
C894 C890 1.531 . S
C894 H906 0.960 . S
C894 H907 0.962 . S
C894 H908 0.960 . S
C895 C892 1.511 . S
C895 H909 0.961 . S
C895 H910 0.961 . S
C895 H911 0.961 . S
C896 C897 1.370 . S
C896 C898 1.363 . S
C896 H912 0.931 . S
C897 C896 1.370 . S
C897 C901 1.408 . S
C898 C896 1.363 . S
C898 C899 1.370 . S
C898 C902 1.524 . S
C899 C891 1.503 . S
C899 C898 1.370 . S
C899 C900 1.403 . S
C900 C899 1.403 . S
C900 C901 1.404 . S
C900 C903 1.539 . S
C901 C897 1.408 . S
C901 C900 1.404 . S
C901 H913 0.930 . S
C902 C898 1.524 . S
C902 H914 0.956 . S
C902 H915 0.961 . S
C902 H916 0.961 . S
C903 C900 1.539 . S
C903 H917 0.958 . S
C903 H918 0.961 . S
C903 H919 0.960 . S
H904 C888 0.931 . S
H905 C893 0.929 . S
H906 C894 0.960 . S
H907 C894 0.962 . S
H908 C894 0.960 . S
H909 C895 0.961 . S
H910 C895 0.961 . S
H911 C895 0.961 . S
H912 C896 0.931 . S
H913 C901 0.930 . S
H914 C902 0.956 . S
H915 C902 0.961 . S
H916 C902 0.961 . S
H917 C903 0.958 . S
H918 C903 0.961 . S
H919 C903 0.960 . S
C920 C921 1.391 . S
C920 C922 1.394 . S
C920 H936 0.931 . S
C921 C920 1.391 . S
C921 C925 1.376 . S
C922 C920 1.394 . S
C922 C923 1.369 . S
C922 C926 1.531 . S
C923 C922 1.369 . S
C923 C924 1.410 . S
C923 C931 1.503 . S
C924 C923 1.410 . S
C924 C925 1.392 . S
C924 C927 1.511 . S
C925 C921 1.376 . S
C925 C924 1.392 . S
C925 H937 0.929 . S
C926 C922 1.531 . S
C926 H938 0.960 . S
C926 H939 0.962 . S
C926 H940 0.960 . S
C927 C924 1.511 . S
C927 H941 0.961 . S
C927 H942 0.961 . S
C927 H943 0.961 . S
C928 C929 1.370 . S
C928 C930 1.363 . S
C928 H944 0.931 . S
C929 C928 1.370 . S
C929 C933 1.408 . S
C930 C928 1.363 . S
C930 C931 1.370 . S
C930 C934 1.524 . S
C931 C923 1.503 . S
C931 C930 1.370 . S
C931 C932 1.403 . S
C932 C931 1.403 . S
C932 C933 1.404 . S
C932 C935 1.539 . S
C933 C929 1.408 . S
C933 C932 1.404 . S
C933 H945 0.930 . S
C934 C930 1.524 . S
C934 H946 0.956 . S
C934 H947 0.961 . S
C934 H948 0.961 . S
C935 C932 1.539 . S
C935 H949 0.958 . S
C935 H950 0.961 . S
C935 H951 0.960 . S
H936 C920 0.931 . S
H937 C925 0.929 . S
H938 C926 0.960 . S
H939 C926 0.962 . S
H940 C926 0.960 . S
H941 C927 0.961 . S
H942 C927 0.961 . S
H943 C927 0.961 . S
H944 C928 0.931 . S
H945 C933 0.930 . S
H946 C934 0.956 . S
H947 C934 0.961 . S
H948 C934 0.961 . S
H949 C935 0.958 . S
H950 C935 0.961 . S
H951 C935 0.960 . S
C952 C953 1.391 . S
C952 C954 1.394 . S
C952 H968 0.931 . S
C953 C952 1.391 . S
C953 C957 1.376 . S
C954 C952 1.394 . S
C954 C955 1.369 . S
C954 C958 1.531 . S
C955 C954 1.369 . S
C955 C956 1.410 . S
C955 C963 1.503 . S
C956 C955 1.410 . S
C956 C957 1.392 . S
C956 C959 1.511 . S
C957 C953 1.376 . S
C957 C956 1.392 . S
C957 H969 0.929 . S
C958 C954 1.531 . S
C958 H970 0.960 . S
C958 H971 0.962 . S
C958 H972 0.960 . S
C959 C956 1.511 . S
C959 H973 0.961 . S
C959 H974 0.961 . S
C959 H975 0.961 . S
C960 C961 1.370 . S
C960 C962 1.363 . S
C960 H976 0.931 . S
C961 C960 1.370 . S
C961 C965 1.408 . S
C962 C960 1.363 . S
C962 C963 1.370 . S
C962 C966 1.524 . S
C963 C955 1.503 . S
C963 C962 1.370 . S
C963 C964 1.403 . S
C964 C963 1.403 . S
C964 C965 1.404 . S
C964 C967 1.539 . S
C965 C961 1.408 . S
C965 C964 1.404 . S
C965 H977 0.930 . S
C966 C962 1.524 . S
C966 H978 0.956 . S
C966 H979 0.961 . S
C966 H980 0.961 . S
C967 C964 1.539 . S
C967 H981 0.958 . S
C967 H982 0.961 . S
C967 H983 0.960 . S
H968 C952 0.931 . S
H969 C957 0.929 . S
H970 C958 0.960 . S
H971 C958 0.962 . S
H972 C958 0.960 . S
H973 C959 0.961 . S
H974 C959 0.961 . S
H975 C959 0.961 . S
H976 C960 0.931 . S
H977 C965 0.930 . S
H978 C966 0.956 . S
H979 C966 0.961 . S
H980 C966 0.961 . S
H981 C967 0.958 . S
H982 C967 0.961 . S
H983 C967 0.960 . S
C984 C985 1.391 . S
C984 C986 1.394 . S
C984 H1000 0.931 . S
C985 C984 1.391 . S
C985 C989 1.376 . S
C986 C984 1.394 . S
C986 C987 1.369 . S
C986 C990 1.531 . S
C987 C986 1.369 . S
C987 C988 1.410 . S
C987 C995 1.503 . S
C988 C987 1.410 . S
C988 C989 1.392 . S
C988 C991 1.511 . S
C989 C985 1.376 . S
C989 C988 1.392 . S
C989 H1001 0.929 . S
C990 C986 1.531 . S
C990 H1002 0.960 . S
C990 H1003 0.962 . S
C990 H1004 0.960 . S
C991 C988 1.511 . S
C991 H1005 0.961 . S
C991 H1006 0.961 . S
C991 H1007 0.961 . S
C992 C993 1.370 . S
C992 C994 1.363 . S
C992 H1008 0.931 . S
C993 C992 1.370 . S
C993 C997 1.408 . S
C994 C992 1.363 . S
C994 C995 1.370 . S
C994 C998 1.524 . S
C995 C987 1.503 . S
C995 C994 1.370 . S
C995 C996 1.403 . S
C996 C995 1.403 . S
C996 C997 1.404 . S
C996 C999 1.539 . S
C997 C993 1.408 . S
C997 C996 1.404 . S
C997 H1009 0.930 . S
C998 C994 1.524 . S
C998 H1010 0.956 . S
C998 H1011 0.961 . S
C998 H1012 0.961 . S
C999 C996 1.539 . S
C999 H1013 0.958 . S
C999 H1014 0.961 . S
C999 H1015 0.960 . S
H1000 C984 0.931 . S
H1001 C989 0.929 . S
H1002 C990 0.960 . S
H1003 C990 0.962 . S
H1004 C990 0.960 . S
H1005 C991 0.961 . S
H1006 C991 0.961 . S
H1007 C991 0.961 . S
H1008 C992 0.931 . S
H1009 C997 0.930 . S
H1010 C998 0.956 . S
H1011 C998 0.961 . S
H1012 C998 0.961 . S
H1013 C999 0.958 . S
H1014 C999 0.961 . S
H1015 C999 0.960 . S
C1016 C1017 1.391 . S
C1016 C1018 1.394 . S
C1016 H1032 0.931 . S
C1017 C1016 1.391 . S
C1017 C1021 1.376 . S
C1018 C1016 1.394 . S
C1018 C1019 1.369 . S
C1018 C1022 1.531 . S
C1019 C1018 1.369 . S
C1019 C1020 1.410 . S
C1019 C1027 1.503 . S
C1020 C1019 1.410 . S
C1020 C1021 1.392 . S
C1020 C1023 1.511 . S
C1021 C1017 1.376 . S
C1021 C1020 1.392 . S
C1021 H1033 0.929 . S
C1022 C1018 1.531 . S
C1022 H1034 0.960 . S
C1022 H1035 0.962 . S
C1022 H1036 0.960 . S
C1023 C1020 1.511 . S
C1023 H1037 0.961 . S
C1023 H1038 0.961 . S
C1023 H1039 0.961 . S
C1024 C1025 1.370 . S
C1024 C1026 1.363 . S
C1024 H1040 0.931 . S
C1025 C1024 1.370 . S
C1025 C1029 1.408 . S
C1026 C1024 1.363 . S
C1026 C1027 1.370 . S
C1026 C1030 1.524 . S
C1027 C1019 1.503 . S
C1027 C1026 1.370 . S
C1027 C1028 1.403 . S
C1028 C1027 1.403 . S
C1028 C1029 1.404 . S
C1028 C1031 1.539 . S
C1029 C1025 1.408 . S
C1029 C1028 1.404 . S
C1029 H1041 0.930 . S
C1030 C1026 1.524 . S
C1030 H1042 0.956 . S
C1030 H1043 0.961 . S
C1030 H1044 0.961 . S
C1031 C1028 1.539 . S
C1031 H1045 0.958 . S
C1031 H1046 0.961 . S
C1031 H1047 0.960 . S
H1032 C1016 0.931 . S
H1033 C1021 0.929 . S
H1034 C1022 0.960 . S
H1035 C1022 0.962 . S
H1036 C1022 0.960 . S
H1037 C1023 0.961 . S
H1038 C1023 0.961 . S
H1039 C1023 0.961 . S
H1040 C1024 0.931 . S
H1041 C1029 0.930 . S
H1042 C1030 0.956 . S
H1043 C1030 0.961 . S
H1044 C1030 0.961 . S
H1045 C1031 0.958 . S
H1046 C1031 0.961 . S
H1047 C1031 0.960 . S
C1048 C1049 1.391 . S
C1048 C1050 1.394 . S
C1048 H1064 0.931 . S
C1049 C1048 1.391 . S
C1049 C1053 1.376 . S
C1050 C1048 1.394 . S
C1050 C1051 1.369 . S
C1050 C1054 1.531 . S
C1051 C1050 1.369 . S
C1051 C1052 1.410 . S
C1051 C1059 1.503 . S
C1052 C1051 1.410 . S
C1052 C1053 1.392 . S
C1052 C1055 1.511 . S
C1053 C1049 1.376 . S
C1053 C1052 1.392 . S
C1053 H1065 0.929 . S
C1054 C1050 1.531 . S
C1054 H1066 0.960 . S
C1054 H1067 0.962 . S
C1054 H1068 0.960 . S
C1055 C1052 1.511 . S
C1055 H1069 0.961 . S
C1055 H1070 0.961 . S
C1055 H1071 0.961 . S
C1056 C1057 1.370 . S
C1056 C1058 1.363 . S
C1056 H1072 0.931 . S
C1057 C1056 1.370 . S
C1057 C1061 1.408 . S
C1058 C1056 1.363 . S
C1058 C1059 1.370 . S
C1058 C1062 1.524 . S
C1059 C1051 1.503 . S
C1059 C1058 1.370 . S
C1059 C1060 1.403 . S
C1060 C1059 1.403 . S
C1060 C1061 1.404 . S
C1060 C1063 1.539 . S
C1061 C1057 1.408 . S
C1061 C1060 1.404 . S
C1061 H1073 0.930 . S
C1062 C1058 1.524 . S
C1062 H1074 0.956 . S
C1062 H1075 0.961 . S
C1062 H1076 0.961 . S
C1063 C1060 1.539 . S
C1063 H1077 0.958 . S
C1063 H1078 0.961 . S
C1063 H1079 0.960 . S
H1064 C1048 0.931 . S
H1065 C1053 0.929 . S
H1066 C1054 0.960 . S
H1067 C1054 0.962 . S
H1068 C1054 0.960 . S
H1069 C1055 0.961 . S
H1070 C1055 0.961 . S
H1071 C1055 0.961 . S
H1072 C1056 0.931 . S
H1073 C1061 0.930 . S
H1074 C1062 0.956 . S
H1075 C1062 0.961 . S
H1076 C1062 0.961 . S
H1077 C1063 0.958 . S
H1078 C1063 0.961 . S
H1079 C1063 0.960 . S
C1080 C1081 1.391 . S
C1080 C1082 1.394 . S
C1080 H1096 0.931 . S
C1081 C1080 1.391 . S
C1081 C1085 1.376 . S
C1082 C1080 1.394 . S
C1082 C1083 1.369 . S
C1082 C1086 1.531 . S
C1083 C1082 1.369 . S
C1083 C1084 1.410 . S
C1083 C1091 1.503 . S
C1084 C1083 1.410 . S
C1084 C1085 1.392 . S
C1084 C1087 1.511 . S
C1085 C1081 1.376 . S
C1085 C1084 1.392 . S
C1085 H1097 0.929 . S
C1086 C1082 1.531 . S
C1086 H1098 0.960 . S
C1086 H1099 0.962 . S
C1086 H1100 0.960 . S
C1087 C1084 1.511 . S
C1087 H1101 0.961 . S
C1087 H1102 0.961 . S
C1087 H1103 0.961 . S
C1088 C1089 1.370 . S
C1088 C1090 1.363 . S
C1088 H1104 0.931 . S
C1089 C1088 1.370 . S
C1089 C1093 1.408 . S
C1090 C1088 1.363 . S
C1090 C1091 1.370 . S
C1090 C1094 1.524 . S
C1091 C1083 1.503 . S
C1091 C1090 1.370 . S
C1091 C1092 1.403 . S
C1092 C1091 1.403 . S
C1092 C1093 1.404 . S
C1092 C1095 1.539 . S
C1093 C1089 1.408 . S
C1093 C1092 1.404 . S
C1093 H1105 0.930 . S
C1094 C1090 1.524 . S
C1094 H1106 0.956 . S
C1094 H1107 0.961 . S
C1094 H1108 0.961 . S
C1095 C1092 1.539 . S
C1095 H1109 0.958 . S
C1095 H1110 0.961 . S
C1095 H1111 0.960 . S
H1096 C1080 0.931 . S
H1097 C1085 0.929 . S
H1098 C1086 0.960 . S
H1099 C1086 0.962 . S
H1100 C1086 0.960 . S
H1101 C1087 0.961 . S
H1102 C1087 0.961 . S
H1103 C1087 0.961 . S
H1104 C1088 0.931 . S
H1105 C1093 0.930 . S
H1106 C1094 0.956 . S
H1107 C1094 0.961 . S
H1108 C1094 0.961 . S
H1109 C1095 0.958 . S
H1110 C1095 0.961 . S
H1111 C1095 0.960 . S
C1112 C1113 1.391 . S
C1112 C1114 1.394 . S
C1112 H1128 0.931 . S
C1113 C1112 1.391 . S
C1113 C1117 1.376 . S
C1114 C1112 1.394 . S
C1114 C1115 1.369 . S
C1114 C1118 1.531 . S
C1115 C1114 1.369 . S
C1115 C1116 1.410 . S
C1115 C1123 1.503 . S
C1116 C1115 1.410 . S
C1116 C1117 1.392 . S
C1116 C1119 1.511 . S
C1117 C1113 1.376 . S
C1117 C1116 1.392 . S
C1117 H1129 0.929 . S
C1118 C1114 1.531 . S
C1118 H1130 0.960 . S
C1118 H1131 0.962 . S
C1118 H1132 0.960 . S
C1119 C1116 1.511 . S
C1119 H1133 0.961 . S
C1119 H1134 0.961 . S
C1119 H1135 0.961 . S
C1120 C1121 1.370 . S
C1120 C1122 1.363 . S
C1120 H1136 0.931 . S
C1121 C1120 1.370 . S
C1121 C1125 1.408 . S
C1122 C1120 1.363 . S
C1122 C1123 1.370 . S
C1122 C1126 1.524 . S
C1123 C1115 1.503 . S
C1123 C1122 1.370 . S
C1123 C1124 1.403 . S
C1124 C1123 1.403 . S
C1124 C1125 1.404 . S
C1124 C1127 1.539 . S
C1125 C1121 1.408 . S
C1125 C1124 1.404 . S
C1125 H1137 0.930 . S
C1126 C1122 1.524 . S
C1126 H1138 0.956 . S
C1126 H1139 0.961 . S
C1126 H1140 0.961 . S
C1127 C1124 1.539 . S
C1127 H1141 0.958 . S
C1127 H1142 0.961 . S
C1127 H1143 0.960 . S
H1128 C1112 0.931 . S
H1129 C1117 0.929 . S
H1130 C1118 0.960 . S
H1131 C1118 0.962 . S
H1132 C1118 0.960 . S
H1133 C1119 0.961 . S
H1134 C1119 0.961 . S
H1135 C1119 0.961 . S
H1136 C1120 0.931 . S
H1137 C1125 0.930 . S
H1138 C1126 0.956 . S
H1139 C1126 0.961 . S
H1140 C1126 0.961 . S
H1141 C1127 0.958 . S
H1142 C1127 0.961 . S
H1143 C1127 0.960 . S
C377 C25 1.549 . S
C385 C331 1.528 . S
C417 C295 1.531 . S
C409 C61 1.542 . S
C449 C318 1.531 . S
C441 C97 1.528 . S
C481 C306 1.529 . S
C473 C133 1.535 . S
C513 C375 1.529 . S
C505 C169 1.544 . S
C545 C339 1.545 . S
C537 C205 1.503 . S
C569 C241 1.542 . S
C577 C362 1.522 . S
C609 C350 1.522 . S
C601 C277 1.541 . S
C633 C31 1.460 . S
C641 C372 1.529 . S
C673 C342 1.529 . S
C665 C67 1.466 . S
C697 C103 1.538 . S
C705 C361 1.560 . S
C729 C139 1.533 . S
C737 C347 1.559 . S
C769 C328 1.532 . S
C761 C175 1.488 1_545 S
C793 C211 1.513 1_565 S
C801 C298 1.532 . S
C833 C317 1.563 . S
C825 C247 1.551 1_545 S
C865 C303 1.560 . S
C857 C283 1.535 1_565 S
C897 C353 1.529 . S
C889 C1 1.523 . S
C929 C369 1.534 . S
C921 C37 1.516 . S
C953 C73 1.480 . S
C961 C340 1.501 . S
C993 C364 1.505 . S
C985 C109 1.503 . S
C1025 C309 1.530 . S
C1017 C145 1.525 . S
C1049 C181 1.485 . S
C1057 C325 1.523 . S
C1081 C217 1.499 . S
C1089 C296 1.505 . S
C1113 C253 1.480 . S
C1121 C320 1.503 . S
