# Generated by pormake.
# Topology zzz, (3,6)-cn, num edge types: 1
# Building blocks:
#     Node 0, Type 0, BuildingBlock: VETTIZ_charged_linker_0, # of connection points: 3
#     Node 1, Type 0, BuildingBlock: VETTIZ_charged_linker_0, # of connection points: 3
#     Node 2, Type 0, BuildingBlock: VETTIZ_charged_linker_0, # of connection points: 3
#     Node 3, Type 0, BuildingBlock: VETTIZ_charged_linker_0, # of connection points: 3
#     Node 4, Type 0, BuildingBlock: VETTIZ_charged_linker_0, # of connection points: 3
#     Node 5, Type 0, BuildingBlock: VETTIZ_charged_linker_0, # of connection points: 3
#     Node 6, Type 0, BuildingBlock: VETTIZ_charged_linker_0, # of connection points: 3
#     Node 7, Type 0, BuildingBlock: VETTIZ_charged_linker_0, # of connection points: 3
#     Node 8, Type 1, BuildingBlock: PAMTUU_clean_sbu_0, # of connection points: 6
#     Node 9, Type 1, BuildingBlock: PAMTUU_clean_sbu_0, # of connection points: 6
#     Node 10, Type 1, BuildingBlock: PAMTUU_clean_sbu_0, # of connection points: 6
#     Node 11, Type 1, BuildingBlock: PAMTUU_clean_sbu_0, # of connection points: 6
#     Edge 12, Type (0, 1), BuildingBlock: EZIPEK_clean_linker_0, # of connection points: 2
#     Edge 13, Type (0, 1), BuildingBlock: EZIPEK_clean_linker_0, # of connection points: 2
#     Edge 14, Type (0, 1), BuildingBlock: EZIPEK_clean_linker_0, # of connection points: 2
#     Edge 15, Type (0, 1), BuildingBlock: EZIPEK_clean_linker_0, # of connection points: 2
#     Edge 16, Type (0, 1), BuildingBlock: EZIPEK_clean_linker_0, # of connection points: 2
#     Edge 17, Type (0, 1), BuildingBlock: EZIPEK_clean_linker_0, # of connection points: 2
#     Edge 18, Type (0, 1), BuildingBlock: EZIPEK_clean_linker_0, # of connection points: 2
#     Edge 19, Type (0, 1), BuildingBlock: EZIPEK_clean_linker_0, # of connection points: 2
#     Edge 20, Type (0, 1), BuildingBlock: EZIPEK_clean_linker_0, # of connection points: 2
#     Edge 21, Type (0, 1), BuildingBlock: EZIPEK_clean_linker_0, # of connection points: 2
#     Edge 22, Type (0, 1), BuildingBlock: EZIPEK_clean_linker_0, # of connection points: 2
#     Edge 23, Type (0, 1), BuildingBlock: EZIPEK_clean_linker_0, # of connection points: 2
#     Edge 24, Type (0, 1), BuildingBlock: EZIPEK_clean_linker_0, # of connection points: 2
#     Edge 25, Type (0, 1), BuildingBlock: EZIPEK_clean_linker_0, # of connection points: 2
#     Edge 26, Type (0, 1), BuildingBlock: EZIPEK_clean_linker_0, # of connection points: 2
#     Edge 27, Type (0, 1), BuildingBlock: EZIPEK_clean_linker_0, # of connection points: 2
#     Edge 28, Type (0, 1), BuildingBlock: EZIPEK_clean_linker_0, # of connection points: 2
#     Edge 29, Type (0, 1), BuildingBlock: EZIPEK_clean_linker_0, # of connection points: 2
#     Edge 30, Type (0, 1), BuildingBlock: EZIPEK_clean_linker_0, # of connection points: 2
#     Edge 31, Type (0, 1), BuildingBlock: EZIPEK_clean_linker_0, # of connection points: 2
#     Edge 32, Type (0, 1), BuildingBlock: EZIPEK_clean_linker_0, # of connection points: 2
#     Edge 33, Type (0, 1), BuildingBlock: EZIPEK_clean_linker_0, # of connection points: 2
#     Edge 34, Type (0, 1), BuildingBlock: EZIPEK_clean_linker_0, # of connection points: 2
#     Edge 35, Type (0, 1), BuildingBlock: EZIPEK_clean_linker_0, # of connection points: 2
# Relax obj value: 0.429
# Max RMSD: 0.292
# Mean RMSD: 0.223
data_MOF--net-zzz--node1-PAMTUU_clean_sbu_0--node2-VETTIZ_charged_linker_0--edge1-EZIPEK_clean_linker_0
_symmetry_space_group_name_H-M    P1
_symmetry_Int_Tables_number       1
_symmetry_cell_setting            triclinic
loop_
_symmetry_equiv_pos_as_xyz
'x, y, z'
_cell_length_a     43.190037
_cell_length_b     47.846023
_cell_length_c     16.305948
_cell_angle_alpha  100.81368
_cell_angle_beta   90.370631
_cell_angle_gamma 88.871737
loop_
_atom_site_label
_atom_site_type_symbol
_atom_site_fract_x
_atom_site_fract_y
_atom_site_fract_z
_atom_type_partial_charge
C0 C 0.80181 0.51519 0.59963 0.0
C1 C 0.83241 0.50267 0.59251 0.0
C2 C 0.84031 0.4848 0.51591 0.0
C3 C 0.79392 0.49951 0.45113 0.0
C4 C 0.78219 0.51195 0.52727 0.0
C5 C 0.74957 0.52359 0.51343 0.0
H6 H 0.66228 0.55812 0.17542 0.0
C7 C 0.77558 0.50905 0.3849 0.0
C8 C 0.74585 0.51749 0.41683 0.0
H9 H 0.63753 0.48221 0.26346 0.0
H10 H 0.68101 0.48956 0.36643 0.0
H11 H 0.69913 0.59653 0.38222 0.0
H12 H 0.70943 0.57181 0.14409 0.0
H13 H 0.73785 0.5447 0.15497 0.0
H14 H 0.74643 0.58212 0.18156 0.0
H15 H 0.68805 0.60458 0.28239 0.0
H16 H 0.72651 0.61169 0.32161 0.0
C17 C 0.74747 0.5557 0.55009 0.0
C18 C 0.72519 0.50741 0.55317 0.0
C19 C 0.84499 0.5588 0.21295 0.0
C20 C 0.84778 0.58829 0.21848 0.0
C21 C 0.82261 0.60648 0.2479 0.0
C22 C 0.79532 0.595 0.27355 0.0
C23 C 0.79398 0.56551 0.2708 0.0
C24 C 0.81956 0.54837 0.24775 0.0
C25 C 0.82032 0.52241 0.2878 0.0
C26 C 0.78883 0.52553 0.33057 0.0
C27 C 0.77306 0.54981 0.31414 0.0
C28 C 0.84824 0.52455 0.34935 0.0
C29 C 0.82215 0.49528 0.22019 0.0
C30 C 0.66569 0.54347 0.21792 0.0
C31 C 0.64622 0.51994 0.21176 0.0
C32 C 0.65175 0.5008 0.26754 0.0
C33 C 0.67651 0.50495 0.32668 0.0
C34 C 0.69616 0.5282 0.32949 0.0
C35 C 0.69094 0.54663 0.27414 0.0
C36 C 0.71761 0.56642 0.27433 0.0
C37 C 0.74094 0.55326 0.32777 0.0
C38 C 0.72673 0.53461 0.37214 0.0
C39 C 0.70732 0.59653 0.31767 0.0
C40 C 0.72857 0.5661 0.18388 0.0
H41 H 0.82817 0.47019 0.38663 0.0
H42 H 0.79421 0.52813 0.65795 0.0
H43 H 0.72689 0.48422 0.52726 0.0
H44 H 0.7015 0.51507 0.54036 0.0
H45 H 0.72859 0.51059 0.6219 0.0
H46 H 0.76514 0.56739 0.52125 0.0
H47 H 0.7514 0.55969 0.61867 0.0
H48 H 0.72421 0.56451 0.53831 0.0
H49 H 0.86448 0.54457 0.19501 0.0
H50 H 0.82475 0.62933 0.25547 0.0
H51 H 0.777 0.60916 0.30146 0.0
H52 H 0.84133 0.53603 0.41222 0.0
H53 H 0.86808 0.53622 0.33042 0.0
H54 H 0.85849 0.50344 0.3527 0.0
H55 H 0.80312 0.49517 0.17384 0.0
H56 H 0.82004 0.47603 0.24835 0.0
H57 H 0.84458 0.49387 0.18662 0.0
H58 H 0.86263 0.47389 0.50887 0.0
C59 C 0.82098 0.48291 0.44555 0.0
C60 C 0.14031 0.79253 0.18276 0.0
C61 C 0.1548 0.8185 0.21372 0.0
C62 C 0.16582 0.82398 0.29649 0.0
C63 C 0.13619 0.78489 0.3243 0.0
C64 C 0.13133 0.77569 0.24011 0.0
C65 C 0.11182 0.74949 0.2241 0.0
H66 H 0.99455 0.67715 0.32166 0.0
C67 C 0.11437 0.77063 0.37038 0.0
C68 C 0.10291 0.74742 0.31398 0.0
H69 H 0.07171 0.64321 0.16321 0.0
H70 H 0.1026 0.68356 0.22807 0.0
H71 H 0.04281 0.69955 0.48651 0.0
H72 H 1.00295 0.74998 0.31506 0.0
H73 H 0.99614 0.76482 0.42172 0.0
H74 H 0.97879 0.73169 0.37655 0.0
H75 H 1.00156 0.70467 0.47953 0.0
H76 H 1.02537 0.73189 0.53804 0.0
C77 C 0.13213 0.72448 0.17872 0.0
C78 C 0.08299 0.75438 0.17163 0.0
C79 C 0.06183 0.83916 0.6029 0.0
C80 C 0.03285 0.84069 0.64138 0.0
C81 C 1.01374 0.8166 0.62388 0.0
C82 C 1.02299 0.7922 0.56496 0.0
C83 C 0.05173 0.79183 0.52398 0.0
C84 C 0.07067 0.81507 0.54494 0.0
C85 C 0.10052 0.81186 0.49789 0.0
C86 C 0.09612 0.78312 0.44082 0.0
C87 C 0.06756 0.77111 0.45666 0.0
C88 C 0.12717 0.81047 0.56082 0.0
C89 C 0.10319 0.83717 0.45072 0.0
C90 C 1.01746 0.67925 0.29725 0.0
C91 C 1.03006 0.65787 0.23329 0.0
C92 C 0.0609 0.66015 0.20798 0.0
C93 C 0.07829 0.68384 0.24126 0.0
C94 C 0.06419 0.7063 0.29572 0.0
C95 C 0.03538 0.70341 0.32844 0.0
C96 C 1.02858 0.72779 0.40101 0.0
C97 C 0.05833 0.74508 0.40449 0.0
C98 C 0.07763 0.73268 0.3383 0.0
C99 C 1.02416 0.71546 0.48086 0.0
C100 C 1.0 0.74455 0.37794 0.0
H101 H 0.16426 0.81204 0.41608 0.0
H102 H 0.1326 0.78762 0.11846 0.0
H103 H 0.06953 0.77348 0.20251 0.0
H104 H 0.06758 0.73577 0.16355 0.0
H105 H 0.0897 0.7574 0.10829 0.0
H106 H 0.14848 0.73162 0.13476 0.0
H107 H 0.11801 0.7081 0.139 0.0
H108 H 0.14607 0.71472 0.22389 0.0
H109 H 0.07736 0.85697 0.61663 0.0
H110 H 0.99155 0.81688 0.65461 0.0
H111 H 1.00747 0.77465 0.55307 0.0
H112 H 0.12109 0.79659 0.60576 0.0
H113 H 0.1321 0.832 0.5971 0.0
H114 H 0.14867 0.80121 0.52986 0.0
H115 H 0.09577 0.83087 0.38492 0.0
H116 H 0.12687 0.84574 0.4539 0.0
H117 H 0.0883 0.85583 0.47688 0.0
H118 H 0.17802 0.8434 0.32037 0.0
C119 C 0.157 0.80664 0.35207 0.0
C120 C 0.86959 0.99858 0.2774 0.0
C121 C 0.89178 0.98255 0.22101 0.0
C122 C 0.88878 0.9527 0.20111 0.0
C123 C 0.83873 0.95669 0.26592 0.0
C124 C 0.84325 0.98447 0.30185 0.0
C125 C 0.81529 0.99513 0.35845 0.0
H126 H 0.66139 0.96839 0.44014 0.0
C127 C 0.80659 0.94964 0.27487 0.0
C128 C 0.79325 0.96936 0.34061 0.0
H129 H 0.72278 0.01027 0.63141 0.0
H130 H 0.76702 0.9992 0.53384 0.0
H131 H 0.67605 0.98728 0.30077 0.0
H132 H 0.70456 0.91576 0.38757 0.0
H133 H 0.70254 0.90532 0.27809 0.0
H134 H 0.66969 0.9232 0.33413 0.0
H135 H 0.66913 0.95475 0.23332 0.0
H136 H 0.70226 0.97583 0.21797 0.0
C137 C 0.80021 0.02145 0.33196 0.0
C138 C 0.82624 1.00191 0.44981 0.0
C139 C 0.7511 0.93996 1.00785 0.0
C140 C 0.71945 0.94654 1.00271 0.0
C141 C 0.69845 0.93482 0.05166 0.0
C142 C 0.70937 0.92375 0.1199 0.0
C143 C 0.74083 0.92638 0.14012 0.0
C144 C 0.76182 0.93042 0.07985 0.0
C145 C 0.79434 0.93261 0.11447 0.0
C146 C 0.78756 0.93619 0.20873 0.0
C147 C 0.75576 0.93423 0.22242 0.0
C148 C 0.81078 0.95844 0.0898 0.0
C149 C 0.81167 0.90447 0.07937 0.0
C150 C 0.68408 0.97608 0.46102 0.0
C151 C 0.68809 0.99084 0.54298 0.0
C152 C 0.71859 0.99958 0.56781 0.0
C153 C 0.7441 0.99372 0.51122 0.0
C154 C 0.73916 0.97942 0.42846 0.0
C155 C 0.70948 0.9702 0.40645 0.0
C156 C 0.70815 0.95184 0.32158 0.0
C157 C 0.74232 0.94944 0.29782 0.0
C158 C 0.76067 0.967 0.35786 0.0
C159 C 0.68801 0.96802 0.26514 0.0
C160 C 0.69538 0.92247 0.3302 0.0
H161 H 0.85996 0.91689 0.20706 0.0
H162 H 0.87201 0.02128 0.29803 0.0
H163 H 0.83093 0.98204 0.47418 0.0
H164 H 0.80895 0.01521 0.48992 0.0
H165 H 0.84786 0.01436 0.4553 0.0
H166 H 0.79341 0.01661 0.26496 0.0
H167 H 0.81651 0.03946 0.34129 0.0
H168 H 0.77907 0.02826 0.36952 0.0
H169 H 0.76684 0.94743 0.9659 0.0
H170 H 0.67372 0.93797 0.0448 0.0
H171 H 0.69281 0.91667 0.15983 0.0
H172 H 0.7989 0.97876 0.11762 0.0
H173 H 0.81189 0.95666 0.02116 0.0
H174 H 0.83524 0.95981 0.10864 0.0
H175 H 0.80745 0.89813 1.0111 0.0
H176 H 0.80384 0.88697 0.11002 0.0
H177 H 0.83701 0.90644 0.08662 0.0
H178 H 0.9059 0.93965 0.16243 0.0
C179 C 0.86246 0.93963 0.22462 0.0
C180 C 0.5776 0.73859 0.36167 0.0
C181 C 0.59108 0.71112 0.3584 0.0
C182 C 0.60764 0.69823 0.28669 0.0
C183 C 0.58811 0.7343 0.21473 0.0
C184 C 0.57745 0.75036 0.28833 0.0
C185 C 0.56286 0.77798 0.27234 0.0
H186 H 0.50909 0.84918 0.97072 0.0
C187 C 0.57514 0.74591 0.14504 0.0
C188 C 0.56532 0.77398 0.1767 0.0
H189 H 0.57684 0.88448 0.1549 0.0
H190 H 0.58164 0.83836 0.20105 0.0
H191 H 0.54533 0.78963 0.90587 0.0
H192 H 0.47219 0.80946 0.08852 0.0
H193 H 0.47004 0.77319 0.0433 0.0
H194 H 0.46391 0.79979 0.97911 0.0
H195 H 0.50746 0.80312 0.88501 0.0
H196 H 0.51345 0.76617 0.88482 0.0
C197 C 0.58135 0.80333 0.31826 0.0
C198 C 0.52877 0.78038 0.30075 0.0
C199 C 0.52187 0.66971 0.93959 0.0
C200 C 0.4921 0.66947 0.90521 0.0
C201 C 0.47653 0.69543 0.90272 0.0
C202 C 0.4904 0.72139 0.93742 0.0
C203 C 0.5194 0.72107 0.97734 0.0
C204 C 0.53419 0.69538 0.9799 0.0
C205 C 0.56105 0.69822 0.03977 0.0
C206 C 0.55969 0.73017 0.07416 0.0
C207 C 0.53613 0.74339 0.03426 0.0
C208 C 0.59091 0.68952 0.98927 0.0
C209 C 0.55536 0.67964 0.10701 0.0
C210 C 0.52385 0.84735 0.02344 0.0
C211 C 0.54194 0.87042 0.06088 0.0
C212 C 0.56199 0.86721 0.12744 0.0
C213 C 0.56419 0.84113 0.15561 0.0
C214 C 0.54536 0.81864 0.11893 0.0
C215 C 0.52636 0.8215 0.05209 0.0
C216 C 0.51301 0.79331 1.01102 0.0
C217 C 0.53102 0.77316 0.05651 0.0
C218 C 0.54703 0.78839 0.12474 0.0
C219 C 0.52012 0.78764 0.91646 0.0
C220 C 0.47794 0.79384 0.03077 0.0
H221 H 0.6183 0.69928 0.15944 0.0
H222 H 0.56574 0.74939 0.41727 0.0
H223 H 0.51567 0.7615 0.26964 0.0
H224 H 0.51746 0.79972 0.2847 0.0
H225 H 0.52712 0.78188 0.36942 0.0
H226 H 0.60454 0.80395 0.28951 0.0
H227 H 0.58471 0.80176 0.38491 0.0
H228 H 0.56867 0.82366 0.31756 0.0
H229 H 0.53393 0.64984 0.94267 0.0
H230 H 0.45335 0.69553 0.87706 0.0
H231 H 0.47763 0.74069 0.93533 0.0
H232 H 0.59191 0.70023 0.9344 0.0
H233 H 0.59188 0.66614 0.96615 0.0
H234 H 0.61192 0.69565 0.02676 0.0
H235 H 0.53981 0.66155 0.08552 0.0
H236 H 0.54428 0.69228 0.1637 0.0
H237 H 0.57701 0.6694 0.12429 0.0
H238 H 0.61922 0.67779 0.28428 0.0
C239 C 0.60662 0.7101 0.21474 0.0
C240 C 0.37913 0.49643 0.31283 0.0
C241 C 0.38894 0.50913 0.39581 0.0
C242 C 0.3688 0.52895 0.44422 0.0
C243 C 0.32794 0.51687 0.34305 0.0
C244 C 0.34822 0.50203 0.28622 0.0
C245 C 0.33011 0.49112 0.205 0.0
H246 H 0.17814 0.46251 0.05737 0.0
C247 C 0.29624 0.50984 0.31508 0.0
C248 C 0.29602 0.50035 0.22801 0.0
H249 H 0.22102 0.53579 0.99312 0.0
H250 H 0.26728 0.52783 0.07899 0.0
H251 H 0.25136 0.42317 0.11454 0.0
H252 H 0.17141 0.4684 0.19209 0.0
H253 H 0.19153 0.4792 0.28468 0.0
H254 H 0.18221 0.44228 0.24771 0.0
H255 H 0.21038 0.4166 0.10964 0.0
H256 H 0.23212 0.41389 0.20263 0.0
C257 C 0.33372 0.45853 0.18044 0.0
C258 C 0.3414 0.50554 0.13445 0.0
C259 C 0.2213 0.49091 0.52576 0.0
C260 C 0.19222 0.47945 0.50393 0.0
C261 C 0.19005 0.45479 0.44164 0.0
C262 C 0.21511 0.44672 0.3877 0.0
C263 C 0.23952 0.46557 0.39268 0.0
C264 C 0.2447 0.48486 0.46595 0.0
C265 C 0.27108 0.50409 0.45762 0.0
C266 C 0.27593 0.49682 0.36354 0.0
C267 C 0.25647 0.47486 0.3254 0.0
C268 C 0.29868 0.49506 0.50877 0.0
C269 C 0.26123 0.53583 0.48621 0.0
C270 C 0.19754 0.47668 0.06073 0.0
C271 C 0.19542 0.49979 0.01882 0.0
C272 C 0.22167 0.51768 0.02415 0.0
C273 C 0.24835 0.5131 0.07292 0.0
C274 C 0.24876 0.49085 0.11866 0.0
C275 C 0.22286 0.47385 0.11462 0.0
C276 C 0.22268 0.45769 0.18585 0.0
C277 C 0.25049 0.47109 0.23794 0.0
C278 C 0.26889 0.48596 0.19052 0.0
C279 C 0.22951 0.42599 0.15116 0.0
C280 C 0.19063 0.46204 0.23012 0.0
H281 H 0.32361 0.54741 0.45907 0.0
H282 H 0.39442 0.48195 0.27223 0.0
H283 H 0.33899 0.52907 0.15253 0.0
H284 H 0.32756 0.49852 0.07681 0.0
H285 H 0.36617 0.50006 0.12034 0.0
H286 H 0.35836 0.45222 0.16739 0.0
H287 H 0.31996 0.45038 0.12343 0.0
H288 H 0.32554 0.44815 0.2317 0.0
H289 H 0.22323 0.50906 0.57631 0.0
H290 H 0.16804 0.44447 0.42757 0.0
H291 H 0.21344 0.42878 0.33706 0.0
H292 H 0.2906 0.48609 0.56292 0.0
H293 H 0.31301 0.5133 0.53695 0.0
H294 H 0.31361 0.47858 0.46994 0.0
H295 H 0.2369 0.53979 0.46872 0.0
H296 H 0.27484 0.55033 0.45601 0.0
H297 H 0.2634 0.54243 0.55503 0.0
H298 H 0.37588 0.53993 0.50555 0.0
C299 C 0.33849 0.53297 0.41808 0.0
C300 C 0.06597 0.23017 0.67179 0.0
C301 C 0.06507 0.20035 0.66059 0.0
C302 C 0.08574 0.18372 0.60436 0.0
C303 C 0.09558 0.22476 0.54476 0.0
C304 C 0.08162 0.24214 0.61186 0.0
C305 C 0.08013 0.27255 0.59986 0.0
H306 H 0.031 0.3615 0.3899 0.0
C307 C 0.09643 0.24013 0.47513 0.0
C308 C 0.091 0.26885 0.50865 0.0
H309 H 0.08807 0.37967 0.61252 0.0
H310 H 0.11072 0.33147 0.57812 0.0
H311 H 0.09616 0.31936 0.28504 0.0
H312 H 1.0108 0.2924 0.38488 0.0
H313 H 1.01815 0.27776 0.27757 0.0
H314 H 1.00975 0.31506 0.30824 0.0
H315 H 0.05915 0.32813 0.24428 0.0
H316 H 0.07596 0.29301 0.21508 0.0
C317 C 0.10226 0.28994 0.66378 0.0
C318 C 0.04647 0.28434 0.61107 0.0
C319 C 0.0664 0.179 0.20055 0.0
C320 C 0.05361 0.18392 0.12551 0.0
C321 C 0.04758 0.21242 0.11682 0.0
C322 C 0.05377 0.23536 0.18349 0.0
C323 C 0.0665 0.22971 0.2588 0.0
C324 C 0.07271 0.20172 0.26515 0.0
C325 C 0.08669 0.19856 0.34693 0.0
C326 C 0.08845 0.22952 0.39023 0.0
C327 C 0.0763 0.24802 0.33905 0.0
C328 C 0.11945 0.18502 0.3304 0.0
C329 C 0.06442 0.18055 0.39018 0.0
C330 C 0.04757 0.35482 0.43274 0.0
C331 C 0.05626 0.37364 0.50728 0.0
C332 C 0.07972 0.36508 0.55822 0.0
C333 C 0.09174 0.3374 0.54145 0.0
C334 C 0.07908 0.31806 0.47611 0.0
C335 C 0.06014 0.32677 0.41755 0.0
C336 C 0.05652 0.30258 0.34251 0.0
C337 C 0.07382 0.2779 0.37271 0.0
C338 C 0.0848 0.28778 0.45384 0.0
C339 C 0.07268 0.31113 0.26719 0.0
C340 C 1.02188 0.29655 0.32707 0.0
H341 H 0.11587 0.18279 0.50099 0.0
H342 H 0.05125 0.24317 0.71784 0.0
H343 H 0.03058 0.271 0.56684 0.0
H344 H 0.04461 0.30647 0.60012 0.0
H345 H 0.03821 0.28494 0.6757 0.0
H346 H 0.10249 0.28204 0.72375 0.0
H347 H 0.09465 0.31253 0.68071 0.0
H348 H 0.12639 0.28861 0.63983 0.0
H349 H 0.07155 0.15744 0.20903 0.0
H350 H 0.03807 0.21685 0.0589 0.0
H351 H 0.04849 0.25656 0.17437 0.0
H352 H 0.13149 0.19385 0.28101 0.0
H353 H 0.11818 0.16159 0.30944 0.0
H354 H 0.1346 0.18961 0.38599 0.0
H355 H 0.04697 0.169 0.34691 0.0
H356 H 0.0508 0.19409 0.44057 0.0
H357 H 0.077 0.16361 0.41552 0.0
H358 H 0.08658 0.16076 0.59818 0.0
C359 C 0.10178 0.19616 0.5469 0.0
C360 C 0.33229 0.00943 0.17024 0.0
C361 C 0.36382 1.00069 0.15047 0.0
C362 C 0.37921 0.98489 0.20333 0.0
C363 C 0.33266 0.98316 0.2851 0.0
C364 C 0.31725 1.00076 0.23963 0.0
C365 C 0.28453 0.00799 0.2761 0.0
H366 H 0.17912 0.98111 0.57707 0.0
C367 C 0.31116 0.97491 0.3467 0.0
C368 C 0.28255 0.9897 0.34458 0.0
H369 H 0.16305 0.04261 0.41923 0.0
H370 H 0.21365 0.02951 0.35005 0.0
H371 H 0.20007 0.93457 0.43113 0.0
H372 H 0.24808 0.99203 0.62051 0.0
H373 H 0.26647 0.95874 0.61505 0.0
H374 H 0.226 0.96257 0.64005 0.0
H375 H 0.20643 0.92665 0.533 0.0
H376 H 0.23372 0.91552 0.44891 0.0
C377 C 0.25993 0.99947 0.20794 0.0
C378 C 0.28271 0.03996 0.31376 0.0
C379 C 0.34777 0.89841 0.50553 0.0
C380 C 0.33298 0.88368 0.56057 0.0
C381 C 0.30122 0.88836 0.57621 0.0
C382 C 0.28489 0.90902 0.54184 0.0
C383 C 0.30037 0.92465 0.48974 0.0
C384 C 0.33102 0.9185 0.47038 0.0
C385 C 0.34329 0.93579 0.4102 0.0
C386 C 0.31495 0.95399 0.39764 0.0
C387 C 0.29035 0.94781 0.446 0.0
C388 C 0.35252 0.91465 0.32934 0.0
C389 C 0.37019 0.95407 0.45387 0.0
C390 C 0.18643 0.99224 0.52861 0.0
C391 C 0.16729 0.01334 0.50588 0.0
C392 C 0.1776 0.02658 0.43984 0.0
C393 C 0.20691 0.01909 0.4 0.0
C394 C 0.22601 0.99791 0.42552 0.0
C395 C 0.21476 0.98483 0.48821 0.0
C396 C 0.23543 0.96159 0.50629 0.0
C397 C 0.26243 0.96383 0.44985 0.0
C398 C 0.25773 0.98493 0.40032 0.0
C399 C 0.21815 0.93307 0.47919 0.0
C400 C 0.24447 0.96878 0.60026 0.0
H401 H 0.37758 0.96362 0.30452 0.0
H402 H 0.31976 0.02217 0.13231 0.0
H403 H 0.3017 0.04579 0.35982 0.0
H404 H 0.26059 0.04593 0.34655 0.0
H405 H 0.28497 0.05284 0.26411 0.0
H406 H 0.26273 0.97659 0.17915 0.0
H407 H 0.26209 0.01225 0.15801 0.0
H408 H 0.23626 1.00282 0.23405 0.0
H409 H 0.37213 0.89482 0.49146 0.0
H410 H 0.28941 0.87684 0.61758 0.0
H411 H 0.26111 0.91251 0.55947 0.0
H412 H 0.33614 0.89667 0.31627 0.0
H413 H 0.37606 0.90543 0.33518 0.0
H414 H 0.35156 0.92412 0.27271 0.0
H415 H 0.36762 0.95839 0.523 0.0
H416 H 0.37069 0.97547 0.43729 0.0
H417 H 0.393 0.94321 0.43923 0.0
H418 H 0.40321 0.97835 0.19173 0.0
C419 C 0.36407 0.97617 0.26924 0.0
C420 C 0.45789 0.26335 0.18563 0.0
C421 C 0.44858 0.2915 0.17826 0.0
C422 C 0.43601 0.30981 0.24825 0.0
C423 C 0.45287 0.27716 0.33488 0.0
C424 C 0.4586 0.25628 0.2663 0.0
C425 C 0.46634 0.22822 0.2944 0.0
H426 H 0.49497 0.17145 0.6483 0.0
C427 C 0.46455 0.26768 0.40899 0.0
C428 C 0.47047 0.23822 0.38909 0.0
H429 H 0.48162 0.1221 0.40088 0.0
H430 H 0.47788 0.16618 0.34458 0.0
H431 H 0.5473 0.19855 0.5724 0.0
H432 H 0.45928 0.23265 0.66331 0.0
H433 H 0.49077 0.25499 0.70352 0.0
H434 H 0.49031 0.2191 0.72002 0.0
H435 H 0.54429 0.22223 0.67033 0.0
H436 H 0.55083 0.23531 0.57486 0.0
C437 C 0.49629 0.21479 0.25251 0.0
C438 C 0.43829 0.20874 0.27364 0.0
C439 C 0.51987 0.34319 0.61073 0.0
C440 C 0.54377 0.34136 0.66799 0.0
C441 C 0.5508 0.31494 0.69051 0.0
C442 C 0.53371 0.29076 0.65664 0.0
C443 C 0.51085 0.29275 0.59602 0.0
C444 C 0.50465 0.31864 0.57318 0.0
C445 C 0.48362 0.31636 0.49873 0.0
C446 C 0.47828 0.28435 0.48025 0.0
C447 C 0.49393 0.2709 0.5378 0.0
C448 C 0.50177 0.32643 0.42807 0.0
C449 C 0.45362 0.33422 0.52417 0.0
C450 C 0.49041 0.16988 0.58225 0.0
C451 C 0.48712 0.14311 0.5302 0.0
C452 C 0.48278 0.14235 0.44345 0.0
C453 C 0.48037 0.16781 0.41087 0.0
C454 C 0.48365 0.19421 0.46492 0.0
C455 C 0.49047 0.19456 0.54816 0.0
C456 C 0.50228 0.22281 0.59148 0.0
C457 C 0.49419 0.24087 0.52725 0.0
C458 C 0.48344 0.22424 0.45216 0.0
C459 C 0.53791 0.21971 0.60327 0.0
C460 C 0.48472 0.23299 0.67429 0.0
H461 H 0.42866 0.31708 0.37959 0.0
H462 H 0.46584 0.24823 0.13167 0.0
H463 H 0.41675 0.21979 0.30064 0.0
H464 H 0.4407 0.18901 0.29878 0.0
H465 H 0.4351 0.20282 0.20491 0.0
H466 H 0.51542 0.23027 0.26374 0.0
H467 H 0.49296 0.20826 0.18403 0.0
H468 H 0.50362 0.19576 0.27765 0.0
H469 H 0.51428 0.36329 0.59212 0.0
H470 H 0.56949 0.31302 0.73383 0.0
H471 H 0.53919 0.27139 0.67771 0.0
H472 H 0.52307 0.31313 0.41207 0.0
H473 H 0.50876 0.34893 0.44724 0.0
H474 H 0.48821 0.32563 0.37038 0.0
H475 H 0.45476 0.34683 0.58875 0.0
H476 H 0.43312 0.32043 0.52233 0.0
H477 H 0.44918 0.34987 0.48285 0.0
H478 H 0.42718 0.33078 0.24311 0.0
C479 C 0.43765 0.30246 0.32682 0.0
Tb480 Tb 0.99811 0.02123 0.81486 0.0
Tb481 Tb 0.05595 0.00808 0.92259 0.0
C482 C 0.98707 0.00704 0.99082 0.0
C483 C 0.95379 0.06474 0.69956 0.0
C484 C 0.97535 0.11856 0.68865 0.0
C485 C 0.95246 0.116 0.74696 0.0
C486 C 0.94138 0.08914 0.7518 0.0
C487 C 0.97266 0.0682 0.63229 0.0
C488 C 0.98357 0.09503 0.6273 0.0
C489 C 0.95494 0.03741 0.72945 0.0
O490 O 1.00647 0.05924 0.91146 0.0
O491 O 0.05789 0.05299 0.9158 0.0
O492 O 0.07189 1.00193 0.79259 0.0
O493 O 0.03906 0.03437 0.75177 0.0
O494 O 0.0772 0.00867 0.0395 0.0
O495 O 0.10265 0.99557 0.92576 0.0
O496 O 0.0344 0.9669 0.88524 0.0
O497 O 1.0095 0.97618 0.76894 0.0
O498 O 0.97772 1.00179 0.91255 0.0
O499 O 1.01577 0.01534 1.0087 0.0
C500 C 0.03379 0.07003 0.9313 0.0
O501 O 0.97676 0.01946 0.69779 0.0
O502 O 0.95372 0.03962 0.8102 0.0
C503 C 0.0651 0.01933 0.74137 0.0
C504 C 0.11346 0.97113 0.03313 0.0
C505 C 0.13393 0.92042 0.07981 0.0
C506 C 0.15191 0.94493 0.09908 0.0
C507 C 0.14181 0.97019 0.07499 0.0
C508 C 0.09564 0.94661 1.01391 0.0
C509 C 0.10601 0.92133 0.03592 0.0
C510 C 0.10281 0.99717 1.0061 0.0
C511 C 1.02125 0.95795 0.81253 0.0
H512 H 0.9454 0.13424 0.79339 0.0
H513 H 0.92619 0.08721 0.80297 0.0
H514 H 0.98197 0.04995 0.58945 0.0
H515 H 1.00083 0.09694 0.5808 0.0
H516 H 0.17326 0.94464 0.13419 0.0
H517 H 0.15585 0.98899 0.08992 0.0
H518 H 0.07355 0.94709 0.98268 0.0
H519 H 0.09163 0.90271 0.02178 0.0
Tb520 Tb 0.4991 0.98642 0.7346 0.0
Tb521 Tb 0.52895 0.03248 0.88119 0.0
C522 C 0.53006 0.96777 0.89665 0.0
C523 C 0.46881 0.91907 0.62101 0.0
C524 C 0.43629 0.86961 0.63373 0.0
C525 C 0.4566 0.88179 0.6977 0.0
C526 C 0.47249 0.90648 0.69173 0.0
C527 C 0.45136 0.90544 0.55349 0.0
C528 C 0.43548 0.88081 0.55933 0.0
C529 C 0.48141 0.94718 0.61957 0.0
O530 O 0.46374 0.9905 0.8327 0.0
O531 O 0.48017 0.03078 0.92106 0.0
O532 O 0.52297 0.0513 0.76944 0.0
O533 O 0.48164 0.02733 0.7106 0.0
O534 O 0.54299 0.04856 1.00455 0.0
O535 O 0.54688 0.07377 0.90986 0.0
O536 O 0.56914 0.01155 0.8123 0.0
O537 O 0.54422 0.99804 0.68806 0.0
O538 O 0.51416 0.96131 0.82696 0.0
O539 O 0.54001 0.99345 0.92548 0.0
C540 C 0.45974 0.01031 0.90031 0.0
O541 O 0.46386 0.96888 0.65231 0.0
O542 O 0.51007 0.95051 0.64404 0.0
C543 C 0.4992 0.04964 0.71851 0.0
C544 C 0.59116 0.06915 0.99186 0.0
C545 C 0.64912 0.04176 0.9692 0.0
C546 C 0.63261 0.04228 0.04328 0.0
C547 C 0.60389 0.05615 0.05503 0.0
C548 C 0.61023 0.07276 0.92476 0.0
C549 C 0.63908 0.05886 0.91304 0.0
C550 C 0.55711 0.06968 0.98192 0.0
C551 C 0.57013 0.00318 0.73081 0.0
H552 H 0.45899 0.87336 0.7544 0.0
H553 H 0.48649 0.91641 0.744 0.0
H554 H 0.44867 0.91463 0.4979 0.0
H555 H 0.42067 0.87202 0.50757 0.0
H556 H 0.64056 0.02969 0.08834 0.0
H557 H 0.59007 0.05354 0.10821 0.0
H558 H 0.6015 0.08352 0.87635 0.0
H559 H 0.65204 0.05923 0.85661 0.0
Tb560 Tb 0.49467 0.48742 0.83025 0.0
Tb561 Tb 0.54876 0.51953 0.73614 0.0
C562 C 0.48439 0.50041 0.64676 0.0
C563 C 0.45904 0.42926 0.92312 0.0
C564 C 0.45907 0.37694 0.98126 0.0
C565 C 0.47109 0.37822 0.90218 0.0
C566 C 0.47128 0.40416 0.87355 0.0
C567 C 0.44695 0.42779 1.00197 0.0
C568 C 0.44706 0.40196 0.03082 0.0
C569 C 0.45753 0.45678 0.89293 0.0
O570 O 0.52341 0.45536 0.75445 0.0
O571 O 0.56907 0.47793 0.74163 0.0
O572 O 0.56765 0.52135 0.86268 0.0
O573 O 0.53366 0.49369 0.92038 0.0
O574 O 0.57963 0.55311 0.74371 0.0
O575 O 0.57341 0.52378 0.62758 0.0
O576 O 0.51286 0.55119 0.77703 0.0
O577 O 0.4807 0.53188 0.86397 0.0
O578 O 0.47182 0.49922 0.71974 0.0
O579 O 0.51473 0.50197 0.63918 0.0
C580 C 0.55341 0.45488 0.74381 0.0
O581 O 0.47219 0.47817 0.93657 0.0
O582 O 0.46105 0.45571 0.81313 0.0
C583 C 0.55934 0.50857 0.92397 0.0
C584 C 0.5831 0.57224 0.62118 0.0
C585 C 0.58158 0.62143 0.54818 0.0
C586 C 0.60548 0.60093 0.52882 0.0
C587 C 0.60626 0.57659 0.56514 0.0
C588 C 0.55888 0.59254 0.63966 0.0
C589 C 0.55822 0.61699 0.60375 0.0
C590 C 0.58569 0.54763 0.66416 0.0
C591 C 0.49022 0.55333 0.8314 0.0
H592 H 0.48047 0.35919 0.86293 0.0
H593 H 0.48085 0.40449 0.81251 0.0
H594 H 0.43724 0.44668 0.04125 0.0
H595 H 0.43766 0.40146 0.09196 0.0
H596 H 0.62365 0.60388 0.48588 0.0
H597 H 0.62522 0.56133 0.55033 0.0
H598 H 0.54075 0.58972 0.68282 0.0
H599 H 0.53953 0.63247 0.6193 0.0
Tb600 Tb 1.0112 0.54232 0.80335 0.0
Tb601 Tb 0.99772 0.4947 0.91447 0.0
C602 C 0.99996 0.56071 0.99396 0.0
C603 C 0.03255 0.57675 0.63356 0.0
C604 C 0.08474 0.55247 0.5516 0.0
C605 C 0.08518 0.58115 0.59044 0.0
C606 C 0.05868 0.59353 0.63106 0.0
C607 C 0.03032 0.55062 0.57769 0.0
C608 C 0.05678 0.53817 0.53788 0.0
C609 C 1.01671 0.57955 0.71347 0.0
O610 O 0.05854 0.52711 0.83052 0.0
O611 O 0.0473 0.50328 0.93686 0.0
O612 O 1.01518 0.46856 0.79997 0.0
O613 O 1.01564 0.50203 0.71375 0.0
O614 O 1.01081 0.4691 1.00186 0.0
O615 O 0.96374 0.47093 0.96036 0.0
O616 O 0.95864 0.49348 0.82588 0.0
O617 O 0.96065 0.53996 0.81761 0.0
O618 O 1.01379 0.56623 0.92848 0.0
O619 O 0.98726 0.53605 0.99405 0.0
C620 C 0.06757 0.51439 0.89256 0.0
O621 O 0.99224 0.56425 0.71396 0.0
O622 O 0.0351 0.57702 0.77534 0.0
C623 C 1.01834 0.47556 0.72605 0.0
C624 C 0.97129 0.47978 0.1041 0.0
C625 C 0.94206 0.52938 0.18868 0.0
C626 C 0.92475 0.50473 0.16226 0.0
C627 C 0.93939 0.47984 0.12055 0.0
C628 C 0.98904 0.5021 0.14848 0.0
C629 C 0.97437 0.52709 0.18938 0.0
C630 C 0.9819 0.46579 0.02003 0.0
C631 C 0.9455 0.51595 0.80394 0.0
H632 H 0.1068 0.59245 0.59932 0.0
H633 H 0.0605 0.61399 0.67249 0.0
H634 H 1.01 0.53761 0.57617 0.0
H635 H 0.05626 0.51619 0.50573 0.0
H636 H 0.89972 0.50581 0.16337 0.0
H637 H 0.92515 0.4627 0.08892 0.0
H638 H 1.01391 0.50213 0.14072 0.0
H639 H 0.98805 0.54548 0.21372 0.0
C640 C 0.13255 0.04349 0.61672 0.0
C641 C 0.13642 0.01931 0.55145 0.0
C642 C 0.08873 0.99904 0.59956 0.0
C643 C 0.08724 0.02133 0.67077 0.0
N644 N 0.1062 0.06587 0.74535 0.0
N645 N 0.11709 0.97492 0.47669 0.0
C646 C 0.10845 0.04413 0.6779 0.0
C647 C 0.11383 0.99755 0.54129 0.0
N648 N 0.15226 0.06569 0.62057 0.0
N649 N 0.06564 0.97951 0.58712 0.0
H650 H 0.13356 0.97433 0.4298 0.0
H651 H 0.10428 0.95645 0.46998 0.0
H652 H 0.04711 0.98017 0.62821 0.0
H653 H 0.06338 0.96388 0.53388 0.0
H654 H 0.14991 0.08502 0.66173 0.0
H655 H 0.17029 0.06552 0.57832 0.0
H656 H 0.12223 0.08196 0.76054 0.0
H657 H 0.08827 0.06752 0.78855 0.0
C658 C 0.46988 0.0938 0.55425 0.0
C659 C 0.49103 0.11672 0.56836 0.0
C660 C 0.51088 0.09853 0.68875 0.0
C661 C 0.49438 0.07271 0.66661 0.0
N662 N 0.46439 0.04378 0.55554 0.0
N663 N 0.54028 0.13223 0.63082 0.0
C664 C 0.47563 0.06956 0.59258 0.0
C665 C 0.51456 0.11605 0.62899 0.0
N666 N 0.44373 0.0953 0.50783 0.0
N667 N 0.52082 0.10804 0.76843 0.0
H668 H 0.54486 0.14394 0.58446 0.0
H669 H 0.55837 0.13111 0.67295 0.0
H670 H 0.51289 0.09949 0.81847 0.0
H671 H 0.53208 0.12737 0.7859 0.0
H672 H 0.42663 0.07996 0.50218 0.0
H673 H 0.43751 0.11319 0.48319 0.0
H674 H 0.45242 0.04093 0.4989 0.0
H675 H 0.47051 0.0247 0.57348 0.0
C676 C 0.44347 0.5203 0.45077 0.0
C677 C 0.41819 0.50137 0.44 0.0
C678 C 0.44114 0.47769 0.54992 0.0
C679 C 0.46342 0.49953 0.57038 0.0
N680 N 0.48485 0.54277 0.54004 0.0
N681 N 0.39226 0.46245 0.48264 0.0
C682 C 0.46469 0.52086 0.51964 0.0
C683 C 0.41712 0.47996 0.48992 0.0
N684 N 0.44698 0.53795 0.39482 0.0
N685 N 0.44356 0.45411 0.58577 0.0
H686 H 0.37521 0.46244 0.43699 0.0
H687 H 0.38767 0.44904 0.52439 0.0
H688 H 0.46126 0.45123 0.62737 0.0
H689 H 0.43009 0.43616 0.56789 0.0
H690 H 0.46626 0.55052 0.39298 0.0
H691 H 0.43174 0.53787 0.3448 0.0
H692 H 0.48464 0.56062 0.51208 0.0
H693 H 0.50031 0.54449 0.58989 0.0
C694 C 1.01282 0.4031 0.58384 0.0
C695 C 0.04086 0.40183 0.53824 0.0
C696 C 0.05189 0.45098 0.6055 0.0
C697 C 1.02431 0.45202 0.65307 0.0
N698 N 0.9739 0.43276 0.66669 0.0
N699 N 0.08204 0.42665 0.48685 0.0
C700 C 1.00325 0.42923 0.63537 0.0
C701 C 0.05851 0.42668 0.54243 0.0
N702 N 0.99626 0.37895 0.58209 0.0
N703 N 0.07292 0.47211 0.62446 0.0
H704 H 0.08715 0.40892 0.44063 0.0
H705 H 0.09427 0.44475 0.48127 0.0
H706 H 0.06921 0.49013 0.67037 0.0
H707 H 0.09504 0.47057 0.59916 0.0
H708 H 0.97796 0.37768 0.62244 0.0
H709 H 1.0019 0.35965 0.54328 0.0
H710 H 0.95657 0.41791 0.65002 0.0
H711 H 0.96597 0.45193 0.70226 0.0
C712 C 0.90996 0.01046 0.11104 0.0
C713 C 0.91724 0.99532 0.17623 0.0
C714 C 0.97112 0.98874 0.1229 0.0
C715 C 0.96408 0.00479 0.05959 0.0
N716 N 0.92896 0.03832 1.01253 0.0
N717 N 0.95691 0.9767 0.25617 0.0
C718 C 0.93414 0.0179 0.05963 0.0
C719 C 0.94862 0.98679 0.18603 0.0
N720 N 0.87976 0.01649 0.09458 0.0
N721 N 0.99847 0.97376 0.12014 0.0
H722 H 0.94106 0.97534 0.30328 0.0
H723 H 0.97978 0.97254 0.27142 0.0
H724 H 1.01509 0.9737 0.07408 0.0
H725 H 1.00348 0.95927 0.15895 0.0
H726 H 0.87286 0.02422 0.04156 0.0
H727 H 0.86133 0.01176 0.1302 0.0
H728 H 0.90859 0.0505 0.01572 0.0
H729 H 0.94636 0.0454 0.97783 0.0
C730 C 0.51937 0.91903 0.05427 0.0
C731 C 0.54146 0.89708 0.02537 0.0
C732 C 0.55835 0.92295 0.91682 0.0
C733 C 0.5362 0.94485 0.94569 0.0
N734 N 0.50022 0.96695 0.05185 0.0
N735 N 0.5852 0.8797 0.93837 0.0
C736 C 0.51821 0.94391 0.01776 0.0
C737 C 0.56199 0.89957 0.95941 0.0
N738 N 0.49873 0.91557 0.11469 0.0
N739 N 0.57569 0.92451 0.84804 0.0
H740 H 0.58806 0.86202 0.96681 0.0
H741 H 0.60288 0.88144 0.89672 0.0
H742 H 0.57535 0.94242 0.82018 0.0
H743 H 0.58968 0.908 0.81688 0.0
H744 H 0.47958 0.92891 0.13148 0.0
H745 H 0.49964 0.89819 0.14494 0.0
H746 H 0.48897 0.96894 0.10895 0.0
H747 H 0.49822 0.98524 0.02594 0.0
C748 C 0.63349 0.5034 0.05727 0.0
C749 C 0.62293 0.51425 0.13994 0.0
C750 C 0.57072 0.52192 0.08168 0.0
C751 C 0.58098 0.50996 0.99924 0.0
N752 N 0.62122 0.4845 0.9122 0.0
N753 N 0.58035 0.53027 0.23203 0.0
C754 C 0.61216 0.49948 0.98825 0.0
C755 C 0.59112 0.52228 0.15232 0.0
N756 N 0.66433 0.49724 0.04417 0.0
N757 N 0.54193 0.53442 0.09215 0.0
H758 H 0.5947 0.53162 0.28428 0.0
H759 H 0.55699 0.53351 0.24693 0.0
H760 H 0.52665 0.53489 0.04267 0.0
H761 H 0.534 0.54631 0.14839 0.0
H762 H 0.67452 0.49333 0.98535 0.0
H763 H 0.68029 0.49762 0.09263 0.0
H764 H 0.64211 0.4732 0.90193 0.0
H765 H 0.6067 0.48108 0.86035 0.0
C766 C 0.9909 0.634 0.12832 0.0
C767 C 1.01285 0.6321 0.19241 0.0
C768 C 1.02134 0.58137 0.13577 0.0
C769 C 1.00001 0.58326 0.07041 0.0
N770 N 0.95891 0.60905 0.01561 0.0
N771 N 0.04058 0.60261 0.27306 0.0
C772 C 0.98273 0.60883 0.07099 0.0
C773 C 1.02493 0.60513 0.20173 0.0
N774 N 0.97956 0.66003 0.11858 0.0
N775 N 0.03979 0.55764 0.132 0.0
H776 H 0.04336 0.61992 0.32197 0.0
H777 H 0.04786 0.58313 0.28691 0.0
H778 H 0.03793 0.53979 0.08469 0.0
H779 H 0.05828 0.55641 0.1726 0.0
H780 H 0.96657 0.66331 0.06711 0.0
H781 H 0.98442 0.67873 0.16036 0.0
H782 H 0.94349 0.62616 0.0175 0.0
H783 H 0.95293 0.59102 0.97219 0.0
C784 C 1.00946 0.18597 0.64593 0.0
C785 C 0.03829 0.18597 0.68918 0.0
C786 C 1.02343 0.14404 0.74319 0.0
C787 C 0.99475 0.14404 0.69985 0.0
N788 N 0.95683 0.16896 0.63071 0.0
N789 N 0.06874 0.17073 0.79699 0.0
C790 C 0.98644 0.16658 0.65896 0.0
C791 C 0.04375 0.167 0.74461 0.0
N792 N 1.00492 0.20259 0.58704 0.0
N793 N 0.03212 0.12128 0.77826 0.0
H794 H 0.08392 0.18753 0.7983 0.0
H795 H 0.07256 0.15905 0.84413 0.0
H796 H 1.01801 0.10384 0.77804 0.0
H797 H 0.05417 0.11872 0.80236 0.0
H798 H 0.98606 0.2005 0.54636 0.0
H799 H 1.0209 0.21707 0.57375 0.0
H800 H 0.94861 0.1866 0.60763 0.0
H801 H 0.9397 0.15452 0.63771 0.0
C802 C 0.36745 0.84095 0.55483 0.0
C803 C 0.35199 0.86478 0.60383 0.0
C804 C 0.39015 0.86386 0.71324 0.0
C805 C 0.4108 0.85074 0.65078 0.0
N806 N 0.41576 0.8129 0.53372 0.0
N807 N 0.34584 0.89574 0.73902 0.0
C808 C 0.39759 0.83337 0.58042 0.0
C809 C 0.36179 0.87469 0.68739 0.0
N810 N 0.35428 0.82762 0.4821 0.0
N811 N 0.39824 0.86673 0.79511 0.0
H812 H 0.32474 0.90406 0.72256 0.0
H813 H 0.35438 0.9056 0.79699 0.0
H814 H 0.41859 0.85735 0.81296 0.0
H815 H 0.38329 0.87531 0.84368 0.0
H816 H 0.36456 0.81063 0.44162 0.0
H817 H 0.33214 0.8334 0.46426 0.0
H818 H 0.40853 0.79972 0.4791 0.0
H819 H 0.43834 0.8091 0.55292 0.0
C820 C 0.55833 0.38209 0.78186 0.0
C821 C 0.56159 0.36751 0.69851 0.0
C822 C 0.57687 0.41158 0.65473 0.0
C823 C 0.56874 0.42658 0.73502 0.0
N824 N 0.56269 0.42513 0.88143 0.0
N825 N 0.58547 0.36544 0.56472 0.0
C826 C 0.56404 0.41146 0.80059 0.0
C827 C 0.57525 0.38136 0.63825 0.0
N828 N 0.54813 0.36864 0.84306 0.0
N829 N 0.58355 0.42629 0.59319 0.0
H830 H 0.58433 0.34326 0.55262 0.0
H831 H 0.59732 0.3738 0.51972 0.0
H832 H 0.58578 0.44835 0.6052 0.0
H833 H 0.58608 0.41686 0.53062 0.0
H834 H 0.54516 0.37928 0.90455 0.0
H835 H 0.54255 0.34721 0.83285 0.0
H836 H 0.56735 0.44669 0.90005 0.0
H837 H 0.56735 0.44669 0.90005 0.0
C838 C 0.15755 0.51627 0.45898 0.0
C839 C 0.16543 0.49925 0.5194 0.0
C840 C 0.12458 0.52319 0.60974 0.0
C841 C 0.11351 0.53565 0.54215 0.0
N842 N 0.11703 0.54151 0.39903 0.0
N843 N 0.15654 0.4861 0.65242 0.0
C844 C 0.12916 0.53131 0.46556 0.0
C845 C 0.14908 0.50271 0.5953 0.0
N846 N 0.17806 0.52001 0.39899 0.0
N847 N 0.11184 0.53106 0.68738 0.0
H848 H 0.17483 0.47127 0.64391 0.0
H849 H 0.14336 0.48561 0.70526 0.0
H850 H 0.09309 0.54524 0.69989 0.0
H851 H 0.12112 0.52498 0.74059 0.0
H852 H 0.17439 0.53449 0.35931 0.0
H853 H 0.20025 0.5113 0.3949 0.0
H854 H 0.12607 0.53594 0.3389 0.0
H855 H 0.09663 0.55373 0.40251 0.0
C856 C 0.1719 0.85117 0.11825 0.0
C857 C 0.1495 0.84313 0.17207 0.0
C858 C 0.12132 0.88806 0.17642 0.0
C859 C 0.14146 0.89483 0.11528 0.0
N860 N 0.18383 0.88156 0.0193 0.0
N861 N 0.09851 0.85061 0.23403 0.0
C862 C 0.16632 0.87607 0.0837 0.0
C863 C 0.12286 0.86057 0.19555 0.0
N864 N 0.19845 0.83523 0.10108 0.0
N865 N 0.10121 0.9082 0.21797 0.0
H866 H 0.09786 0.82999 0.24573 0.0
H867 H 0.07747 0.86164 0.24536 0.0
H868 H 0.09994 0.92903 0.20736 0.0
H869 H 0.08826 0.90511 0.26914 0.0
H870 H 0.21712 0.84153 0.06926 0.0
H871 H 0.20243 0.81637 0.1232 0.0
H872 H 0.20025 0.86727 0.9881 0.0
H873 H 0.18041 0.89969 0.99318 0.0
C874 C 0.68731 0.96955 0.90574 0.0
C875 C 0.70928 0.97232 0.9711 0.0
C876 C 0.70137 0.02406 0.99655 0.0
C877 C 0.67427 0.02024 0.94804 0.0
N878 N 0.64085 0.98931 0.85429 0.0
N879 N 0.73466 0.003 0.08739 0.0
C880 C 0.6675 0.99309 0.89987 0.0
C881 C 0.71643 0.99987 0.01755 0.0
N882 N 0.68477 0.94422 0.8516 0.0
N883 N 0.71138 0.05092 0.02666 0.0
H884 H 0.74428 0.98612 0.11107 0.0
H885 H 0.73759 0.02244 0.12754 0.0
H886 H 0.69991 0.06886 1.01255 0.0
H887 H 0.7325 0.05502 0.05746 0.0
H888 H 0.67071 0.94152 0.79863 0.0
H889 H 0.69907 0.92669 0.85587 0.0
H890 H 0.63251 0.96937 0.8276 0.0
H891 H 0.62623 0.00623 0.84737 0.0
C892 C 0.47212 0.62705 0.95286 0.0
C893 C 0.47662 0.64159 0.88583 0.0
C894 C 0.46984 0.59703 0.78787 0.0
C895 C 0.47528 0.58197 0.85382 0.0
N896 N 0.4787 0.58276 1.00251 0.0
N897 N 0.47761 0.64097 0.73791 0.0
C898 C 0.47455 0.59688 0.93774 0.0
C899 C 0.47397 0.62689 0.80256 0.0
N900 N 0.46683 0.64237 0.03114 0.0
N901 N 0.46143 0.58244 0.7112 0.0
H902 H 0.48011 0.66297 0.74708 0.0
H903 H 0.4796 0.63064 0.67592 0.0
H904 H 0.45754 0.56058 0.70102 0.0
H905 H 0.45523 0.5923 0.66155 0.0
H906 H 0.46108 0.63315 0.08187 0.0
H907 H 0.46526 0.66458 0.04286 0.0
H908 H 0.48282 0.59302 0.06367 0.0
H909 H 0.47916 0.5607 0.99525 0.0
C910 C 0.89242 0.5892 0.13227 0.0
C911 C 0.8795 0.59863 0.21123 0.0
C912 C 0.92103 0.57505 0.27564 0.0
C913 C 0.92659 0.55776 0.19603 0.0
N914 N 0.92006 0.55034 0.04548 0.0
N915 N 0.89095 0.61483 0.35498 0.0
C916 C 0.91405 0.56614 0.12268 0.0
C917 C 0.89804 0.59712 0.28173 0.0
N918 N 0.88063 0.59982 0.06658 0.0
N919 N 0.93551 0.56881 0.34484 0.0
H920 H 0.87304 0.62999 0.35768 0.0
H921 H 0.90359 0.61576 0.40992 0.0
H922 H 0.95221 0.5526 0.34148 0.0
H923 H 0.93065 0.57918 0.40546 0.0
H924 H 0.88957 0.59484 1.00634 0.0
H925 H 0.86315 0.61551 0.07584 0.0
H926 H 0.9094 0.55401 0.99096 0.0
H927 H 0.93439 0.53231 0.03635 0.0
C928 C 1.01782 0.14936 0.03296 0.0
C929 C 0.04809 0.15831 0.05834 0.0
C930 C 0.06715 0.10964 1.0117 0.0
C931 C 0.03795 0.10085 0.97471 0.0
N932 N 0.98731 0.11751 0.93372 0.0
N933 N 0.10281 0.14848 0.04315 0.0
C934 C 1.01376 0.12219 0.98001 0.0
C935 C 0.07314 0.13903 0.03588 0.0
N936 N 0.99271 0.16601 0.06173 0.0
N937 N 0.08805 0.09054 0.03381 0.0
H938 H 0.1078 0.17004 0.06107 0.0
H939 H 0.12179 0.13521 0.02285 0.0
H940 H 0.08249 0.06972 0.03712 0.0
H941 H 0.10882 0.09678 0.06415 0.0
H942 H 0.97005 0.15889 0.05303 0.0
H943 H 0.99455 0.18596 0.1 0.0
H944 H 0.97062 0.13343 0.93203 0.0
H945 H 0.98362 0.09953 0.88861 0.0
C946 C 0.39298 0.98061 0.01749 0.0
C947 C 0.38195 0.00512 0.07364 0.0
C948 C 0.41621 0.03376 1.00104 0.0
C949 C 0.43171 0.00866 0.9571 0.0
N950 N 0.4371 0.95727 0.9422 0.0
N951 N 0.38591 0.05556 0.12275 0.0
C952 C 0.42046 0.9818 0.96958 0.0
C953 C 0.39426 0.0319 0.06614 0.0
N954 N 0.37737 0.95574 1.01096 0.0
N955 N 0.42128 0.05936 0.97856 0.0
H956 H 0.36957 0.05512 0.16928 0.0
H957 H 0.39671 0.07505 0.1267 0.0
H958 H 0.43513 0.06143 0.92801 0.0
H959 H 0.40882 0.07784 1.00341 0.0
H960 H 0.3825 0.93779 0.96575 0.0
H961 H 0.35717 0.95424 0.0446 0.0
H962 H 0.43128 0.93778 0.95704 0.0
H963 H 0.45881 0.95664 0.91473 0.0
C964 C 0.4307 0.30969 0.05116 0.0
C965 C 0.45542 0.30472 0.10439 0.0
C966 C 0.48579 0.34153 0.05604 0.0
C967 C 0.4592 0.34964 1.01378 0.0
N968 N 0.40695 0.34071 0.96495 0.0
N969 N 0.50718 0.31444 0.15587 0.0
C970 C 0.43195 0.33315 1.00841 0.0
C971 C 0.48351 0.31972 0.10444 0.0
N972 N 0.40597 0.29202 0.04302 0.0
N973 N 0.51307 0.35511 0.05102 0.0
H974 H 0.50683 0.29779 0.18897 0.0
H975 H 0.52668 0.32697 0.16843 0.0
H976 H 0.51505 0.37225 0.02044 0.0
H977 H 0.5342 0.34842 0.07236 0.0
H978 H 0.38766 0.29289 1.00181 0.0
H979 H 0.4051 0.27477 0.07378 0.0
H980 H 0.38526 0.33165 0.96478 0.0
H981 H 0.40765 0.35697 0.93044 0.0
C982 C 0.14477 0.52936 0.01507 0.0
C983 C 0.16438 0.50604 0.97794 0.0
C984 C 0.12075 0.4886 0.88182 0.0
C985 C 0.10187 0.51268 0.91613 0.0
N986 N 0.09863 0.55877 1.00503 0.0
N987 N 0.17225 0.46637 0.86501 0.0
C988 C 0.11487 0.53392 0.97929 0.0
C989 C 0.15262 0.48657 0.90794 0.0
N990 N 0.15381 0.54632 0.08793 0.0
N991 N 0.10793 0.4671 0.82564 0.0
H992 H 0.19546 0.46453 0.88172 0.0
H993 H 0.16646 0.45319 0.80893 0.0
H994 H 0.08534 0.46826 0.80328 0.0
H995 H 0.1189 0.4475 0.80494 0.0
H996 H 0.13926 0.56137 0.12377 0.0
H997 H 0.17504 0.54378 0.11664 0.0
H998 H 0.10777 0.57639 0.04434 0.0
H999 H 0.07684 0.56268 0.98108 0.0
C1000 C 0.04585 0.87929 0.76189 0.0
C1001 C 1.02421 0.86802 0.69923 0.0
C1002 C 0.99571 0.91382 0.72982 0.0
C1003 C 1.02132 0.92661 0.777 0.0
N1004 N 0.07506 0.92094 0.81621 0.0
N1005 N 0.97977 0.87684 0.61581 0.0
C1006 C 0.04749 0.90918 0.78829 0.0
C1007 C 0.99919 0.88578 0.68144 0.0
N1008 N 0.06573 0.86148 0.79364 0.0
N1009 N 0.96786 0.92796 0.73249 0.0
H1010 H 0.98167 0.85687 0.57753 0.0
H1011 H 0.96337 0.89029 0.59532 0.0
H1012 H 0.96381 0.94768 0.77094 0.0
H1013 H 0.94793 0.91855 0.70431 0.0
H1014 H 0.08057 0.86865 0.84356 0.0
H1015 H 0.06478 0.83937 0.77578 0.0
H1016 H 0.0952 0.90878 0.81911 0.0
H1017 H 0.07901 0.94271 0.82541 0.0
C1018 C 0.64529 0.97071 0.62069 0.0
C1019 C 0.6601 0.995 0.60119 0.0
C1020 C 0.61742 0.02511 0.6745 0.0
C1021 C 0.60109 1.00045 0.68556 0.0
N1022 N 0.59787 0.94937 0.65689 0.0
N1023 N 0.65811 0.04536 0.6021 0.0
C1024 C 0.61461 0.97316 0.65493 0.0
C1025 C 0.64569 0.02227 0.62691 0.0
N1026 N 0.66106 0.94524 0.60863 0.0
N1027 N 0.60575 0.0514 0.70888 0.0
H1028 H 0.67866 0.04424 0.56836 0.0
H1029 H 0.64708 0.06522 0.60971 0.0
H1030 H 0.58444 0.05439 0.7392 0.0
H1031 H 0.61798 0.07011 0.71215 0.0
H1032 H 0.65313 0.92736 0.6293 0.0
H1033 H 0.68364 0.9428 0.58558 0.0
H1034 H 0.60492 0.929 0.62775 0.0
H1035 H 0.57559 0.95021 0.68152 0.0
C1036 C 0.55955 0.67392 0.40589 0.0
C1037 C 0.58448 0.69314 0.42162 0.0
C1038 C 0.60301 0.66903 0.53365 0.0
C1039 C 0.58098 0.64732 0.50897 0.0
N1040 N 0.53982 0.62763 0.41648 0.0
N1041 N 0.63059 0.70898 0.49822 0.0
C1042 C 0.55935 0.64956 0.44443 0.0
C1043 C 0.60624 0.69087 0.48559 0.0
N1044 N 0.53615 0.6789 0.35328 0.0
N1045 N 0.62046 0.66896 0.60382 0.0
H1046 H 0.63264 0.72594 0.46672 0.0
H1047 H 0.6494 0.70645 0.5366 0.0
H1048 H 0.61855 0.65336 0.64037 0.0
H1049 H 0.63487 0.68551 0.62979 0.0
H1050 H 0.51581 0.66736 0.3453 0.0
H1051 H 0.53574 0.69634 0.32333 0.0
H1052 H 0.52614 0.6264 0.36317 0.0
H1053 H 0.53897 0.60937 0.44261 0.0
C1054 C 0.88468 0.52427 0.63448 0.0
C1055 C 0.85839 0.50998 0.65709 0.0
C1056 C 0.8875 0.5029 0.78433 0.0
C1057 C 0.91508 0.51361 0.75444 0.0
N1058 N 0.94052 0.52607 0.6356 0.0
N1059 N 0.83615 0.48309 0.75185 0.0
C1060 C 0.91373 0.52219 0.67553 0.0
C1061 C 0.86014 0.49868 0.73199 0.0
N1062 N 0.88189 0.54014 0.57341 0.0
N1063 N 0.88712 0.49733 0.8634 0.0
H1064 H 0.81587 0.48028 0.71636 0.0
H1065 H 0.83714 0.47159 0.80009 0.0
H1066 H 0.90641 0.50013 0.90269 0.0
H1067 H 0.86711 0.49221 0.89224 0.0
H1068 H 0.89959 0.55281 0.55848 0.0
H1069 H 0.86067 0.54328 0.54539 0.0
H1070 H 0.94106 0.53003 0.57491 0.0
H1071 H 0.96214 0.52125 0.65844 0.0
loop_
_geom_bond_atom_site_label_1
_geom_bond_atom_site_label_2
_geom_bond_distance
_geom_bond_site_symmetry_2
_ccdc_geom_bond_type
C0 C1 1.391 . S
C0 C4 1.391 . S
C0 H42 0.948 . S
C1 C0 1.391 . S
C1 C2 1.391 . S
C2 C1 1.391 . S
C2 H58 0.947 . S
C2 C59 1.392 . S
C3 C4 1.391 . S
C3 C7 1.397 . S
C3 C59 1.419 . S
C4 C0 1.391 . S
C4 C3 1.391 . S
C4 C5 1.399 . S
C5 C4 1.399 . S
C5 C8 1.396 . S
C5 C17 1.453 . S
C5 C18 1.684 . S
H6 C30 0.948 . S
C7 C3 1.397 . S
C7 C8 1.394 . S
C7 C26 1.723 . S
C8 C5 1.396 . S
C8 C7 1.394 . S
C8 C38 1.723 . S
H9 C32 0.947 . S
H10 C33 0.948 . S
H11 C39 0.982 . S
H12 C40 0.979 . S
H13 C40 0.980 . S
H14 C40 0.983 . S
H15 C39 0.979 . S
H16 C39 0.977 . S
C17 C5 1.453 . S
C17 H46 0.982 . S
C17 H47 0.979 . S
C17 H48 0.977 . S
C18 C5 1.684 . S
C18 H43 0.979 . S
C18 H44 0.980 . S
C18 H45 0.983 . S
C19 C20 1.391 . S
C19 C24 1.391 . S
C19 H49 0.948 . S
C20 C19 1.391 . S
C20 C21 1.391 . S
C21 C20 1.391 . S
C21 C22 1.392 . S
C21 H50 0.947 . S
C22 C21 1.392 . S
C22 C23 1.419 . S
C22 H51 0.948 . S
C23 C22 1.419 . S
C23 C24 1.391 . S
C23 C27 1.397 . S
C24 C19 1.391 . S
C24 C23 1.391 . S
C24 C25 1.399 . S
C25 C24 1.399 . S
C25 C26 1.396 . S
C25 C28 1.453 . S
C25 C29 1.684 . S
C26 C7 1.723 . S
C26 C25 1.396 . S
C26 C27 1.394 . S
C27 C23 1.397 . S
C27 C26 1.394 . S
C27 C37 1.723 . S
C28 C25 1.453 . S
C28 H52 0.982 . S
C28 H53 0.979 . S
C28 H54 0.977 . S
C29 C25 1.684 . S
C29 H55 0.979 . S
C29 H56 0.980 . S
C29 H57 0.983 . S
C30 H6 0.948 . S
C30 C31 1.391 . S
C30 C35 1.391 . S
C31 C30 1.391 . S
C31 C32 1.391 . S
C32 H9 0.947 . S
C32 C31 1.391 . S
C32 C33 1.392 . S
C33 H10 0.948 . S
C33 C32 1.392 . S
C33 C34 1.419 . S
C34 C33 1.419 . S
C34 C35 1.391 . S
C34 C38 1.397 . S
C35 C30 1.391 . S
C35 C34 1.391 . S
C35 C36 1.399 . S
C36 C35 1.399 . S
C36 C37 1.396 . S
C36 C39 1.453 . S
C36 C40 1.684 . S
C37 C27 1.723 . S
C37 C36 1.396 . S
C37 C38 1.394 . S
C38 C8 1.723 . S
C38 C34 1.397 . S
C38 C37 1.394 . S
C39 H11 0.982 . S
C39 H15 0.979 . S
C39 H16 0.977 . S
C39 C36 1.453 . S
C40 H12 0.979 . S
C40 H13 0.980 . S
C40 H14 0.983 . S
C40 C36 1.684 . S
H41 C59 0.948 . S
H42 C0 0.948 . S
H43 C18 0.979 . S
H44 C18 0.980 . S
H45 C18 0.983 . S
H46 C17 0.982 . S
H47 C17 0.979 . S
H48 C17 0.977 . S
H49 C19 0.948 . S
H50 C21 0.947 . S
H51 C22 0.948 . S
H52 C28 0.982 . S
H53 C28 0.979 . S
H54 C28 0.977 . S
H55 C29 0.979 . S
H56 C29 0.980 . S
H57 C29 0.983 . S
H58 C2 0.947 . S
C59 C2 1.392 . S
C59 C3 1.419 . S
C59 H41 0.948 . S
C60 C61 1.391 . S
C60 C64 1.391 . S
C60 H102 0.948 . S
C61 C60 1.391 . S
C61 C62 1.391 . S
C62 C61 1.391 . S
C62 H118 0.947 . S
C62 C119 1.392 . S
C63 C64 1.391 . S
C63 C67 1.397 1_655 S
C63 C119 1.419 . S
C64 C60 1.391 . S
C64 C63 1.391 . S
C64 C65 1.399 . S
C65 C64 1.399 . S
C65 C68 1.396 1_655 S
C65 C77 1.453 1_655 S
C65 C78 1.684 . S
H66 C90 0.948 . S
C67 C63 1.397 1_455 S
C67 C68 1.394 . S
C67 C86 1.723 . S
C68 C65 1.396 1_455 S
C68 C67 1.394 . S
C68 C98 1.723 . S
H69 C92 0.947 . S
H70 C93 0.948 . S
H71 C99 0.982 . S
H72 C100 0.979 . S
H73 C100 0.980 . S
H74 C100 0.983 . S
H75 C99 0.979 . S
H76 C99 0.977 . S
C77 C65 1.453 1_455 S
C77 H106 0.982 . S
C77 H107 0.979 . S
C77 H108 0.977 . S
C78 C65 1.684 . S
C78 H103 0.979 . S
C78 H104 0.980 . S
C78 H105 0.983 . S
C79 C80 1.391 . S
C79 C84 1.391 . S
C79 H109 0.948 . S
C80 C79 1.391 . S
C80 C81 1.391 . S
C81 C80 1.391 . S
C81 C82 1.392 . S
C81 H110 0.947 . S
C82 C81 1.392 . S
C82 C83 1.419 . S
C82 H111 0.948 . S
C83 C82 1.419 . S
C83 C84 1.391 . S
C83 C87 1.397 1_655 S
C84 C79 1.391 . S
C84 C83 1.391 . S
C84 C85 1.399 . S
C85 C84 1.399 . S
C85 C86 1.396 1_655 S
C85 C88 1.453 1_655 S
C85 C89 1.684 . S
C86 C67 1.723 . S
C86 C85 1.396 1_455 S
C86 C87 1.394 . S
C87 C83 1.397 1_455 S
C87 C86 1.394 . S
C87 C97 1.723 . S
C88 C85 1.453 1_455 S
C88 H112 0.982 . S
C88 H113 0.979 . S
C88 H114 0.977 . S
C89 C85 1.684 . S
C89 H115 0.979 . S
C89 H116 0.980 . S
C89 H117 0.983 . S
C90 H66 0.948 . S
C90 C91 1.391 . S
C90 C95 1.391 . S
C91 C90 1.391 . S
C91 C92 1.391 . S
C92 H69 0.947 . S
C92 C91 1.391 . S
C92 C93 1.392 . S
C93 H70 0.948 . S
C93 C92 1.392 . S
C93 C94 1.419 . S
C94 C93 1.419 . S
C94 C95 1.391 . S
C94 C98 1.397 1_655 S
C95 C90 1.391 . S
C95 C94 1.391 . S
C95 C96 1.399 . S
C96 C95 1.399 . S
C96 C97 1.396 1_655 S
C96 C99 1.453 1_655 S
C96 C100 1.684 . S
C97 C87 1.723 . S
C97 C96 1.396 1_455 S
C97 C98 1.394 . S
C98 C68 1.723 . S
C98 C94 1.397 1_455 S
C98 C97 1.394 . S
C99 H71 0.982 . S
C99 H75 0.979 . S
C99 H76 0.977 . S
C99 C96 1.453 1_455 S
C100 H72 0.979 . S
C100 H73 0.980 . S
C100 H74 0.983 . S
C100 C96 1.684 . S
H101 C119 0.948 . S
H102 C60 0.948 . S
H103 C78 0.979 . S
H104 C78 0.980 . S
H105 C78 0.983 . S
H106 C77 0.982 . S
H107 C77 0.979 . S
H108 C77 0.977 . S
H109 C79 0.948 . S
H110 C81 0.947 . S
H111 C82 0.948 . S
H112 C88 0.982 . S
H113 C88 0.979 . S
H114 C88 0.977 . S
H115 C89 0.979 . S
H116 C89 0.980 . S
H117 C89 0.983 . S
H118 C62 0.947 . S
C119 C62 1.392 . S
C119 C63 1.419 . S
C119 H101 0.948 . S
C120 C121 1.391 . S
C120 C124 1.391 . S
C120 H162 0.948 . S
C121 C120 1.391 . S
C121 C122 1.391 . S
C122 C121 1.391 . S
C122 H178 0.947 . S
C122 C179 1.392 . S
C123 C124 1.391 . S
C123 C127 1.397 1_565 S
C123 C179 1.419 . S
C124 C120 1.391 . S
C124 C123 1.391 . S
C124 C125 1.399 . S
C125 C124 1.399 . S
C125 C128 1.396 1_565 S
C125 C137 1.453 1_565 S
C125 C138 1.684 . S
H126 C150 0.948 . S
C127 C123 1.397 1_545 S
C127 C128 1.394 . S
C127 C146 1.723 . S
C128 C125 1.396 1_545 S
C128 C127 1.394 . S
C128 C158 1.723 . S
H129 C152 0.947 . S
H130 C153 0.948 . S
H131 C159 0.982 . S
H132 C160 0.979 . S
H133 C160 0.980 . S
H134 C160 0.983 . S
H135 C159 0.979 . S
H136 C159 0.977 . S
C137 C125 1.453 1_545 S
C137 H166 0.982 . S
C137 H167 0.979 . S
C137 H168 0.977 . S
C138 C125 1.684 . S
C138 H163 0.979 . S
C138 H164 0.980 . S
C138 H165 0.983 . S
C139 C140 1.391 . S
C139 C144 1.391 . S
C139 H169 0.948 . S
C140 C139 1.391 . S
C140 C141 1.391 . S
C141 C140 1.391 . S
C141 C142 1.392 . S
C141 H170 0.947 . S
C142 C141 1.392 . S
C142 C143 1.419 . S
C142 H171 0.948 . S
C143 C142 1.419 . S
C143 C144 1.391 . S
C143 C147 1.397 1_565 S
C144 C139 1.391 . S
C144 C143 1.391 . S
C144 C145 1.399 . S
C145 C144 1.399 . S
C145 C146 1.396 1_565 S
C145 C148 1.453 1_565 S
C145 C149 1.684 . S
C146 C127 1.723 . S
C146 C145 1.396 1_545 S
C146 C147 1.394 . S
C147 C143 1.397 1_545 S
C147 C146 1.394 . S
C147 C157 1.723 . S
C148 C145 1.453 1_545 S
C148 H172 0.982 . S
C148 H173 0.979 . S
C148 H174 0.977 . S
C149 C145 1.684 . S
C149 H175 0.979 . S
C149 H176 0.980 . S
C149 H177 0.983 . S
C150 H126 0.948 . S
C150 C151 1.391 . S
C150 C155 1.391 . S
C151 C150 1.391 . S
C151 C152 1.391 . S
C152 H129 0.947 . S
C152 C151 1.391 . S
C152 C153 1.392 . S
C153 H130 0.948 . S
C153 C152 1.392 . S
C153 C154 1.419 . S
C154 C153 1.419 . S
C154 C155 1.391 . S
C154 C158 1.397 1_565 S
C155 C150 1.391 . S
C155 C154 1.391 . S
C155 C156 1.399 . S
C156 C155 1.399 . S
C156 C157 1.396 1_565 S
C156 C159 1.453 1_565 S
C156 C160 1.684 . S
C157 C147 1.723 . S
C157 C156 1.396 1_545 S
C157 C158 1.394 . S
C158 C128 1.723 . S
C158 C154 1.397 1_545 S
C158 C157 1.394 . S
C159 H131 0.982 . S
C159 H135 0.979 . S
C159 H136 0.977 . S
C159 C156 1.453 1_545 S
C160 H132 0.979 . S
C160 H133 0.980 . S
C160 H134 0.983 . S
C160 C156 1.684 . S
H161 C179 0.948 . S
H162 C120 0.948 . S
H163 C138 0.979 . S
H164 C138 0.980 . S
H165 C138 0.983 . S
H166 C137 0.982 . S
H167 C137 0.979 . S
H168 C137 0.977 . S
H169 C139 0.948 . S
H170 C141 0.947 . S
H171 C142 0.948 . S
H172 C148 0.982 . S
H173 C148 0.979 . S
H174 C148 0.977 . S
H175 C149 0.979 . S
H176 C149 0.980 . S
H177 C149 0.983 . S
H178 C122 0.947 . S
C179 C122 1.392 . S
C179 C123 1.419 . S
C179 H161 0.948 . S
C180 C181 1.391 . S
C180 C184 1.391 . S
C180 H222 0.948 . S
C181 C180 1.391 . S
C181 C182 1.391 . S
C182 C181 1.391 . S
C182 H238 0.947 . S
C182 C239 1.392 . S
C183 C184 1.391 . S
C183 C187 1.397 . S
C183 C239 1.419 . S
C184 C180 1.391 . S
C184 C183 1.391 . S
C184 C185 1.399 . S
C185 C184 1.399 . S
C185 C188 1.396 . S
C185 C197 1.453 . S
C185 C198 1.684 . S
H186 C210 0.948 . S
C187 C183 1.397 . S
C187 C188 1.394 . S
C187 C206 1.723 1_554 S
C188 C185 1.396 . S
C188 C187 1.394 . S
C188 C218 1.723 . S
H189 C212 0.947 . S
H190 C213 0.948 . S
H191 C219 0.982 . S
H192 C220 0.979 . S
H193 C220 0.980 . S
H194 C220 0.983 . S
H195 C219 0.979 . S
H196 C219 0.977 . S
C197 C185 1.453 . S
C197 H226 0.982 . S
C197 H227 0.979 . S
C197 H228 0.977 . S
C198 C185 1.684 . S
C198 H223 0.979 . S
C198 H224 0.980 . S
C198 H225 0.983 . S
C199 C200 1.391 . S
C199 C204 1.391 . S
C199 H229 0.948 . S
C200 C199 1.391 . S
C200 C201 1.391 . S
C201 C200 1.391 . S
C201 C202 1.392 . S
C201 H230 0.947 . S
C202 C201 1.392 . S
C202 C203 1.419 . S
C202 H231 0.948 . S
C203 C202 1.419 . S
C203 C204 1.391 . S
C203 C207 1.397 . S
C204 C199 1.391 . S
C204 C203 1.391 . S
C204 C205 1.399 . S
C205 C204 1.399 . S
C205 C206 1.396 . S
C205 C208 1.453 . S
C205 C209 1.684 . S
C206 C187 1.723 1_556 S
C206 C205 1.396 . S
C206 C207 1.394 . S
C207 C203 1.397 . S
C207 C206 1.394 . S
C207 C217 1.723 . S
C208 C205 1.453 . S
C208 H232 0.982 . S
C208 H233 0.979 . S
C208 H234 0.977 1_556 S
C209 C205 1.684 . S
C209 H235 0.979 . S
C209 H236 0.980 1_556 S
C209 H237 0.983 . S
C210 H186 0.948 . S
C210 C211 1.391 . S
C210 C215 1.391 . S
C211 C210 1.391 . S
C211 C212 1.391 1_556 S
C212 H189 0.947 . S
C212 C211 1.391 1_554 S
C212 C213 1.392 . S
C213 H190 0.948 . S
C213 C212 1.392 . S
C213 C214 1.417 1_554 S
C214 C213 1.417 1_556 S
C214 C215 1.394 . S
C214 C218 1.396 1_556 S
C215 C210 1.391 . S
C215 C214 1.394 . S
C215 C216 1.399 . S
C216 C215 1.399 . S
C216 C217 1.396 . S
C216 C219 1.453 . S
C216 C220 1.684 . S
C217 C207 1.723 . S
C217 C216 1.396 . S
C217 C218 1.394 1_556 S
C218 C188 1.723 . S
C218 C214 1.396 1_554 S
C218 C217 1.394 1_554 S
C219 H191 0.982 . S
C219 H195 0.979 . S
C219 H196 0.977 . S
C219 C216 1.453 . S
C220 H192 0.979 . S
C220 H193 0.980 . S
C220 H194 0.983 . S
C220 C216 1.684 . S
H221 C239 0.948 . S
H222 C180 0.948 . S
H223 C198 0.979 . S
H224 C198 0.980 . S
H225 C198 0.983 . S
H226 C197 0.982 . S
H227 C197 0.979 . S
H228 C197 0.977 . S
H229 C199 0.948 . S
H230 C201 0.947 . S
H231 C202 0.948 . S
H232 C208 0.982 . S
H233 C208 0.979 . S
H234 C208 0.977 1_554 S
H235 C209 0.979 . S
H236 C209 0.980 1_554 S
H237 C209 0.983 . S
H238 C182 0.947 . S
C239 C182 1.392 . S
C239 C183 1.419 . S
C239 H221 0.948 . S
C240 C241 1.391 . S
C240 C244 1.391 . S
C240 H282 0.948 . S
C241 C240 1.391 . S
C241 C242 1.391 . S
C242 C241 1.391 . S
C242 H298 0.947 . S
C242 C299 1.392 . S
C243 C244 1.391 . S
C243 C247 1.397 . S
C243 C299 1.419 . S
C244 C240 1.391 . S
C244 C243 1.391 . S
C244 C245 1.399 . S
C245 C244 1.399 . S
C245 C248 1.396 . S
C245 C257 1.453 . S
C245 C258 1.684 . S
H246 C270 0.948 . S
C247 C243 1.397 . S
C247 C248 1.394 . S
C247 C266 1.723 . S
C248 C245 1.396 . S
C248 C247 1.394 . S
C248 C278 1.723 . S
H249 C272 0.947 . S
H250 C273 0.948 . S
H251 C279 0.982 . S
H252 C280 0.979 . S
H253 C280 0.980 . S
H254 C280 0.983 . S
H255 C279 0.979 . S
H256 C279 0.977 . S
C257 C245 1.453 . S
C257 H286 0.982 . S
C257 H287 0.979 . S
C257 H288 0.977 1_554 S
C258 C245 1.684 . S
C258 H283 0.979 . S
C258 H284 0.980 1_554 S
C258 H285 0.983 . S
C259 C260 1.391 . S
C259 C264 1.391 . S
C259 H289 0.948 . S
C260 C259 1.391 . S
C260 C261 1.391 . S
C261 C260 1.391 . S
C261 C262 1.392 . S
C261 H290 0.947 . S
C262 C261 1.392 . S
C262 C263 1.419 . S
C262 H291 0.948 . S
C263 C262 1.419 . S
C263 C264 1.391 . S
C263 C267 1.397 . S
C264 C259 1.391 . S
C264 C263 1.391 . S
C264 C265 1.399 . S
C265 C264 1.399 . S
C265 C266 1.396 . S
C265 C268 1.453 . S
C265 C269 1.684 . S
C266 C247 1.723 . S
C266 C265 1.396 . S
C266 C267 1.394 . S
C267 C263 1.397 . S
C267 C266 1.394 . S
C267 C277 1.723 . S
C268 C265 1.453 . S
C268 H292 0.982 . S
C268 H293 0.979 . S
C268 H294 0.977 . S
C269 C265 1.684 . S
C269 H295 0.979 . S
C269 H296 0.980 . S
C269 H297 0.983 . S
C270 H246 0.948 . S
C270 C271 1.391 . S
C270 C275 1.391 . S
C271 C270 1.391 . S
C271 C272 1.391 . S
C272 H249 0.947 . S
C272 C271 1.391 . S
C272 C273 1.392 . S
C273 H250 0.948 . S
C273 C272 1.392 . S
C273 C274 1.419 1_556 S
C274 C273 1.419 1_554 S
C274 C275 1.391 1_554 S
C274 C278 1.397 . S
C275 C270 1.391 . S
C275 C274 1.391 1_556 S
C275 C276 1.399 1_556 S
C276 C275 1.399 1_554 S
C276 C277 1.396 . S
C276 C279 1.453 . S
C276 C280 1.684 . S
C277 C267 1.723 . S
C277 C276 1.396 . S
C277 C278 1.394 . S
C278 C248 1.723 . S
C278 C274 1.397 . S
C278 C277 1.394 . S
C279 H251 0.982 . S
C279 H255 0.979 . S
C279 H256 0.977 . S
C279 C276 1.453 . S
C280 H252 0.979 . S
C280 H253 0.980 . S
C280 H254 0.983 . S
C280 C276 1.684 . S
H281 C299 0.948 . S
H282 C240 0.948 . S
H283 C258 0.979 . S
H284 C258 0.980 1_556 S
H285 C258 0.983 . S
H286 C257 0.982 . S
H287 C257 0.979 . S
H288 C257 0.977 1_556 S
H289 C259 0.948 . S
H290 C261 0.947 . S
H291 C262 0.948 . S
H292 C268 0.982 . S
H293 C268 0.979 . S
H294 C268 0.977 . S
H295 C269 0.979 . S
H296 C269 0.980 . S
H297 C269 0.983 . S
H298 C242 0.947 . S
C299 C242 1.392 . S
C299 C243 1.419 . S
C299 H281 0.948 . S
C300 C301 1.391 . S
C300 C304 1.391 . S
C300 H342 0.948 . S
C301 C300 1.391 . S
C301 C302 1.391 . S
C302 C301 1.391 . S
C302 H358 0.947 . S
C302 C359 1.392 . S
C303 C304 1.391 . S
C303 C307 1.396 1_655 S
C303 C359 1.419 . S
C304 C300 1.391 . S
C304 C303 1.391 . S
C304 C305 1.399 . S
C305 C304 1.399 . S
C305 C308 1.396 1_655 S
C305 C317 1.453 1_655 S
C305 C318 1.684 . S
H306 C330 0.948 . S
C307 C303 1.396 1_455 S
C307 C308 1.395 . S
C307 C326 1.723 . S
C308 C305 1.396 1_455 S
C308 C307 1.395 . S
C308 C338 1.723 . S
H309 C332 0.947 . S
H310 C333 0.948 . S
H311 C339 0.982 . S
H312 C340 0.979 . S
H313 C340 0.980 . S
H314 C340 0.983 . S
H315 C339 0.979 . S
H316 C339 0.977 . S
C317 C305 1.453 1_455 S
C317 H346 0.982 . S
C317 H347 0.979 . S
C317 H348 0.977 . S
C318 C305 1.684 . S
C318 H343 0.979 . S
C318 H344 0.980 . S
C318 H345 0.983 . S
C319 C320 1.391 . S
C319 C324 1.391 1_556 S
C319 H349 0.948 . S
C320 C319 1.391 . S
C320 C321 1.391 . S
C321 C320 1.391 . S
C321 C322 1.392 . S
C321 H350 0.947 . S
C322 C321 1.392 . S
C322 C323 1.419 1_556 S
C322 H351 0.948 1_556 S
C323 C322 1.419 1_554 S
C323 C324 1.391 . S
C323 C327 1.396 1_655 S
C324 C319 1.391 1_554 S
C324 C323 1.391 . S
C324 C325 1.399 . S
C325 C324 1.399 . S
C325 C326 1.396 1_655 S
C325 C328 1.453 1_655 S
C325 C329 1.684 . S
C326 C307 1.723 . S
C326 C325 1.396 1_455 S
C326 C327 1.394 . S
C327 C323 1.396 1_455 S
C327 C326 1.394 . S
C327 C337 1.723 . S
C328 C325 1.453 1_455 S
C328 H352 0.982 . S
C328 H353 0.979 . S
C328 H354 0.977 . S
C329 C325 1.684 . S
C329 H355 0.979 . S
C329 H356 0.980 . S
C329 H357 0.983 . S
C330 H306 0.948 . S
C330 C331 1.391 . S
C330 C335 1.391 . S
C331 C330 1.391 . S
C331 C332 1.391 . S
C332 H309 0.947 . S
C332 C331 1.391 . S
C332 C333 1.392 . S
C333 H310 0.948 . S
C333 C332 1.392 . S
C333 C334 1.419 . S
C334 C333 1.419 . S
C334 C335 1.391 . S
C334 C338 1.397 1_655 S
C335 C330 1.391 . S
C335 C334 1.391 . S
C335 C336 1.399 . S
C336 C335 1.399 . S
C336 C337 1.396 1_655 S
C336 C339 1.453 1_655 S
C336 C340 1.684 . S
C337 C327 1.723 . S
C337 C336 1.396 1_455 S
C337 C338 1.395 . S
C338 C308 1.723 . S
C338 C334 1.397 1_455 S
C338 C337 1.395 . S
C339 H311 0.982 . S
C339 H315 0.979 . S
C339 H316 0.977 . S
C339 C336 1.453 1_455 S
C340 H312 0.979 . S
C340 H313 0.980 . S
C340 H314 0.983 . S
C340 C336 1.684 . S
H341 C359 0.948 . S
H342 C300 0.948 . S
H343 C318 0.979 . S
H344 C318 0.980 . S
H345 C318 0.983 . S
H346 C317 0.982 . S
H347 C317 0.979 . S
H348 C317 0.977 . S
H349 C319 0.948 . S
H350 C321 0.947 . S
H351 C322 0.948 1_554 S
H352 C328 0.982 . S
H353 C328 0.979 . S
H354 C328 0.977 . S
H355 C329 0.979 . S
H356 C329 0.980 . S
H357 C329 0.983 . S
H358 C302 0.947 . S
C359 C302 1.392 . S
C359 C303 1.419 . S
C359 H341 0.948 . S
C360 C361 1.391 . S
C360 C364 1.391 . S
C360 H402 0.948 . S
C361 C360 1.391 . S
C361 C362 1.391 . S
C362 C361 1.391 . S
C362 H418 0.947 . S
C362 C419 1.392 1_556 S
C363 C364 1.391 1_554 S
C363 C367 1.397 1_545 S
C363 C419 1.419 . S
C364 C360 1.391 . S
C364 C363 1.391 1_556 S
C364 C365 1.399 1_556 S
C365 C364 1.399 1_554 S
C365 C368 1.396 1_545 S
C365 C377 1.453 1_544 S
C365 C378 1.684 . S
H366 C390 0.948 . S
C367 C363 1.397 1_565 S
C367 C368 1.394 . S
C367 C386 1.723 . S
C368 C365 1.396 1_565 S
C368 C367 1.394 . S
C368 C398 1.723 . S
H369 C392 0.947 . S
H370 C393 0.948 . S
H371 C399 0.982 . S
H372 C400 0.979 . S
H373 C400 0.980 . S
H374 C400 0.983 . S
H375 C399 0.979 . S
H376 C399 0.977 . S
C377 C365 1.453 1_566 S
C377 H406 0.982 . S
C377 H407 0.979 . S
C377 H408 0.977 1_556 S
C378 C365 1.684 . S
C378 H403 0.979 . S
C378 H404 0.980 . S
C378 H405 0.983 1_554 S
C379 C380 1.391 . S
C379 C384 1.391 . S
C379 H409 0.948 . S
C380 C379 1.391 . S
C380 C381 1.391 . S
C381 C380 1.391 . S
C381 C382 1.392 . S
C381 H410 0.947 . S
C382 C381 1.392 . S
C382 C383 1.419 . S
C382 H411 0.948 . S
C383 C382 1.419 . S
C383 C384 1.391 . S
C383 C387 1.397 1_545 S
C384 C379 1.391 . S
C384 C383 1.391 . S
C384 C385 1.399 . S
C385 C384 1.399 . S
C385 C386 1.396 1_545 S
C385 C388 1.453 1_545 S
C385 C389 1.684 . S
C386 C367 1.723 . S
C386 C385 1.396 1_565 S
C386 C387 1.394 . S
C387 C383 1.397 1_565 S
C387 C386 1.394 . S
C387 C397 1.723 . S
C388 C385 1.453 1_565 S
C388 H412 0.982 . S
C388 H413 0.979 . S
C388 H414 0.977 . S
C389 C385 1.684 . S
C389 H415 0.979 . S
C389 H416 0.980 . S
C389 H417 0.983 . S
C390 H366 0.948 . S
C390 C391 1.391 . S
C390 C395 1.391 . S
C391 C390 1.391 . S
C391 C392 1.391 . S
C392 H369 0.947 . S
C392 C391 1.391 . S
C392 C393 1.392 . S
C393 H370 0.948 . S
C393 C392 1.392 . S
C393 C394 1.419 . S
C394 C393 1.419 . S
C394 C395 1.391 . S
C394 C398 1.397 1_545 S
C395 C390 1.391 . S
C395 C394 1.391 . S
C395 C396 1.399 . S
C396 C395 1.399 . S
C396 C397 1.396 1_545 S
C396 C399 1.453 1_545 S
C396 C400 1.684 . S
C397 C387 1.723 . S
C397 C396 1.396 1_565 S
C397 C398 1.394 . S
C398 C368 1.723 . S
C398 C394 1.397 1_565 S
C398 C397 1.394 . S
C399 H371 0.982 . S
C399 H375 0.979 . S
C399 H376 0.977 . S
C399 C396 1.453 1_565 S
C400 H372 0.979 . S
C400 H373 0.980 . S
C400 H374 0.983 . S
C400 C396 1.684 . S
H401 C419 0.948 . S
H402 C360 0.948 . S
H403 C378 0.979 . S
H404 C378 0.980 . S
H405 C378 0.983 1_556 S
H406 C377 0.982 . S
H407 C377 0.979 . S
H408 C377 0.977 1_554 S
H409 C379 0.948 . S
H410 C381 0.947 . S
H411 C382 0.948 . S
H412 C388 0.982 . S
H413 C388 0.979 . S
H414 C388 0.977 . S
H415 C389 0.979 . S
H416 C389 0.980 . S
H417 C389 0.983 . S
H418 C362 0.947 . S
C419 C362 1.392 1_554 S
C419 C363 1.419 . S
C419 H401 0.948 . S
C420 C421 1.391 . S
C420 C424 1.391 . S
C420 H462 0.948 . S
C421 C420 1.391 . S
C421 C422 1.391 . S
C422 C421 1.391 . S
C422 H478 0.947 . S
C422 C479 1.392 . S
C423 C424 1.391 . S
C423 C427 1.397 . S
C423 C479 1.419 . S
C424 C420 1.391 . S
C424 C423 1.391 . S
C424 C425 1.399 . S
C425 C424 1.399 . S
C425 C428 1.396 . S
C425 C437 1.453 . S
C425 C438 1.684 . S
H426 C450 0.948 . S
C427 C423 1.397 . S
C427 C428 1.394 . S
C427 C446 1.723 . S
C428 C425 1.396 . S
C428 C427 1.394 . S
C428 C458 1.723 . S
H429 C452 0.947 . S
H430 C453 0.948 . S
H431 C459 0.982 . S
H432 C460 0.979 . S
H433 C460 0.980 . S
H434 C460 0.983 . S
H435 C459 0.979 . S
H436 C459 0.977 . S
C437 C425 1.453 . S
C437 H466 0.982 . S
C437 H467 0.979 . S
C437 H468 0.977 . S
C438 C425 1.684 . S
C438 H463 0.979 . S
C438 H464 0.980 . S
C438 H465 0.983 . S
C439 C440 1.391 . S
C439 C444 1.391 . S
C439 H469 0.948 . S
C440 C439 1.391 . S
C440 C441 1.391 . S
C441 C440 1.391 . S
C441 C442 1.392 . S
C441 H470 0.947 . S
C442 C441 1.392 . S
C442 C443 1.419 . S
C442 H471 0.948 . S
C443 C442 1.419 . S
C443 C444 1.391 . S
C443 C447 1.397 . S
C444 C439 1.391 . S
C444 C443 1.391 . S
C444 C445 1.399 . S
C445 C444 1.399 . S
C445 C446 1.396 . S
C445 C448 1.453 . S
C445 C449 1.684 . S
C446 C427 1.723 . S
C446 C445 1.396 . S
C446 C447 1.394 . S
C447 C443 1.397 . S
C447 C446 1.394 . S
C447 C457 1.723 . S
C448 C445 1.453 . S
C448 H472 0.982 . S
C448 H473 0.979 . S
C448 H474 0.977 . S
C449 C445 1.684 . S
C449 H475 0.979 . S
C449 H476 0.980 . S
C449 H477 0.983 . S
C450 H426 0.948 . S
C450 C451 1.391 . S
C450 C455 1.391 . S
C451 C450 1.391 . S
C451 C452 1.391 . S
C452 H429 0.947 . S
C452 C451 1.391 . S
C452 C453 1.392 . S
C453 H430 0.948 . S
C453 C452 1.392 . S
C453 C454 1.419 . S
C454 C453 1.419 . S
C454 C455 1.391 . S
C454 C458 1.397 . S
C455 C450 1.391 . S
C455 C454 1.391 . S
C455 C456 1.399 . S
C456 C455 1.399 . S
C456 C457 1.396 . S
C456 C459 1.453 . S
C456 C460 1.684 . S
C457 C447 1.723 . S
C457 C456 1.396 . S
C457 C458 1.394 . S
C458 C428 1.723 . S
C458 C454 1.397 . S
C458 C457 1.394 . S
C459 H431 0.982 . S
C459 H435 0.979 . S
C459 H436 0.977 . S
C459 C456 1.453 . S
C460 H432 0.979 . S
C460 H433 0.980 . S
C460 H434 0.983 . S
C460 C456 1.684 . S
H461 C479 0.948 . S
H462 C420 0.948 . S
H463 C438 0.979 . S
H464 C438 0.980 . S
H465 C438 0.983 . S
H466 C437 0.982 . S
H467 C437 0.979 . S
H468 C437 0.977 . S
H469 C439 0.948 . S
H470 C441 0.947 . S
H471 C442 0.948 . S
H472 C448 0.982 . S
H473 C448 0.979 . S
H474 C448 0.977 . S
H475 C449 0.979 . S
H476 C449 0.980 . S
H477 C449 0.983 . S
H478 C422 0.947 . S
C479 C422 1.392 . S
C479 C423 1.419 . S
C479 H461 0.948 . S
Tb480 C489 2.764 . S
Tb480 O490 2.325 . S
Tb480 O493 2.303 1_655 S
Tb480 O497 2.322 1_545 S
Tb480 O498 2.349 . S
Tb480 O501 2.415 . S
Tb480 O502 2.399 . S
Tb481 O491 2.322 1_565 S
Tb481 O492 2.349 . S
Tb481 O494 2.415 . S
Tb481 O495 2.399 . S
Tb481 O496 2.325 . S
Tb481 O499 2.303 1_455 S
Tb481 C510 2.764 . S
C482 O498 1.261 . S
C482 O499 1.257 1_545 S
C483 C486 1.358 . S
C483 C487 1.332 . S
C483 C489 1.504 . S
C484 C485 1.373 . S
C484 C488 1.308 . S
C485 C484 1.373 . S
C485 C486 1.429 . S
C485 H512 0.932 . S
C486 C483 1.358 . S
C486 C485 1.429 . S
C486 H513 0.930 . S
C487 C483 1.332 . S
C487 C488 1.394 . S
C487 H514 0.913 1_655 S
C488 C484 1.308 . S
C488 C487 1.394 . S
C488 H515 0.929 . S
C489 Tb480 2.764 . S
C489 C483 1.504 . S
C489 O501 1.239 . S
C489 O502 1.263 . S
O490 Tb480 2.325 . S
O490 C500 1.236 1_655 S
O491 Tb481 2.322 1_545 S
O491 C500 1.257 . S
O492 Tb481 2.349 . S
O492 C503 1.261 . S
O493 Tb480 2.303 1_455 S
O493 C503 1.257 1_545 S
O494 Tb481 2.415 . S
O494 C510 1.239 . S
O495 Tb481 2.399 . S
O495 C510 1.263 . S
O496 Tb481 2.325 . S
O496 C511 1.236 1_455 S
O497 Tb480 2.322 1_565 S
O497 C511 1.257 . S
O498 Tb480 2.349 . S
O498 C482 1.261 . S
O499 Tb481 2.303 1_655 S
O499 C482 1.257 1_565 S
C500 O490 1.236 1_455 S
C500 O491 1.257 . S
O501 Tb480 2.415 . S
O501 C489 1.239 . S
O502 Tb480 2.399 . S
O502 C489 1.263 . S
C503 O492 1.261 . S
C503 O493 1.257 1_565 S
C504 C507 1.357 1_556 S
C504 C508 1.332 1_556 S
C504 C510 1.504 . S
C505 C506 1.373 . S
C505 C509 1.308 . S
C506 C505 1.373 . S
C506 C507 1.433 . S
C506 H516 0.932 . S
C507 C504 1.357 1_554 S
C507 C506 1.433 . S
C507 H517 0.928 1_554 S
C508 C504 1.332 1_554 S
C508 C509 1.394 . S
C508 H518 0.921 1_455 S
C509 C505 1.308 . S
C509 C508 1.394 . S
C509 H519 0.929 . S
C510 Tb481 2.764 . S
C510 O494 1.239 . S
C510 O495 1.263 . S
C510 C504 1.504 . S
C511 O496 1.236 1_655 S
C511 O497 1.257 . S
H512 C485 0.932 . S
H513 C486 0.930 . S
H514 C487 0.913 1_455 S
H515 C488 0.929 . S
H516 C506 0.932 . S
H517 C507 0.928 1_556 S
H518 C508 0.921 1_655 S
H519 C509 0.929 . S
Tb520 C529 2.764 . S
Tb520 O530 2.325 . S
Tb520 O533 2.303 1_565 S
Tb520 O537 2.322 . S
Tb520 O538 2.349 . S
Tb520 O541 2.415 1_565 S
Tb520 O542 2.399 . S
Tb521 O531 2.322 . S
Tb521 O532 2.349 . S
Tb521 O534 2.415 1_545 S
Tb521 O535 2.399 . S
Tb521 O536 2.325 . S
Tb521 O539 2.303 1_545 S
Tb521 C550 2.764 1_556 S
C522 O538 1.261 . S
C522 O539 1.257 . S
C523 C526 1.358 . S
C523 C527 1.318 1_565 S
C523 C529 1.504 . S
C524 C525 1.373 . S
C524 C528 1.308 . S
C525 C524 1.373 . S
C525 C526 1.429 . S
C525 H552 0.932 . S
C526 C523 1.358 . S
C526 C525 1.429 . S
C526 H553 0.930 . S
C527 C523 1.318 1_545 S
C527 C528 1.395 1_545 S
C527 H554 0.946 . S
C528 C524 1.308 . S
C528 C527 1.395 1_565 S
C528 H555 0.929 1_565 S
C529 Tb520 2.764 . S
C529 C523 1.504 . S
C529 O541 1.239 1_565 S
C529 O542 1.263 . S
O530 Tb520 2.325 . S
O530 C540 1.236 1_565 S
O531 Tb521 2.322 . S
O531 C540 1.257 . S
O532 Tb521 2.349 . S
O532 C543 1.261 . S
O533 Tb520 2.303 1_545 S
O533 C543 1.257 . S
O534 Tb521 2.415 1_565 S
O534 C550 1.239 1_566 S
O535 Tb521 2.399 . S
O535 C550 1.263 1_556 S
O536 Tb521 2.325 . S
O536 C551 1.236 1_545 S
O537 Tb520 2.322 . S
O537 C551 1.257 . S
O538 Tb520 2.349 . S
O538 C522 1.261 . S
O539 Tb521 2.303 1_565 S
O539 C522 1.257 . S
C540 O530 1.236 1_545 S
C540 O531 1.257 . S
O541 Tb520 2.415 1_545 S
O541 C529 1.239 1_545 S
O542 Tb520 2.399 . S
O542 C529 1.263 . S
C543 O532 1.261 . S
C543 O533 1.257 . S
C544 C547 1.358 . S
C544 C548 1.325 1_545 S
C544 C550 1.504 . S
C545 C546 1.373 . S
C545 C549 1.308 . S
C546 C545 1.373 . S
C546 C547 1.429 . S
C546 H556 0.932 . S
C547 C544 1.358 . S
C547 C546 1.429 . S
C547 H557 0.930 . S
C548 C544 1.325 1_565 S
C548 C549 1.394 1_565 S
C548 H558 0.938 . S
C549 C545 1.308 . S
C549 C548 1.394 1_545 S
C549 H559 0.929 1_545 S
C550 Tb521 2.764 1_554 S
C550 O534 1.239 1_544 S
C550 O535 1.263 1_554 S
C550 C544 1.504 . S
C551 O536 1.236 1_565 S
C551 O537 1.257 . S
H552 C525 0.932 . S
H553 C526 0.930 . S
H554 C527 0.946 . S
H555 C528 0.929 1_545 S
H556 C546 0.932 . S
H557 C547 0.930 . S
H558 C548 0.938 . S
H559 C549 0.929 1_565 S
Tb560 C569 2.764 1_556 S
Tb560 O570 2.325 . S
Tb560 O573 2.303 . S
Tb560 O577 2.322 . S
Tb560 O578 2.349 . S
Tb560 O581 2.415 1_556 S
Tb560 O582 2.399 . S
Tb561 O571 2.322 . S
Tb561 O572 2.349 . S
Tb561 O574 2.415 . S
Tb561 O575 2.399 . S
Tb561 O576 2.325 . S
Tb561 O579 2.303 . S
Tb561 C590 2.764 . S
C562 O578 1.261 . S
C562 O579 1.257 . S
C563 C566 1.358 . S
C563 C567 1.332 . S
C563 C569 1.504 . S
C564 C565 1.373 . S
C564 C568 1.308 . S
C565 C564 1.373 . S
C565 C566 1.429 . S
C565 H592 0.932 . S
C566 C563 1.358 . S
C566 C565 1.429 . S
C566 H593 0.930 . S
C567 C563 1.332 . S
C567 C568 1.394 . S
C567 H594 0.932 . S
C568 C564 1.308 . S
C568 C567 1.394 . S
C568 H595 0.929 . S
C569 Tb560 2.764 1_554 S
C569 C563 1.504 . S
C569 O581 1.239 . S
C569 O582 1.263 1_554 S
O570 Tb560 2.325 . S
O570 C580 1.236 . S
O571 Tb561 2.322 . S
O571 C580 1.257 . S
O572 Tb561 2.349 . S
O572 C583 1.261 . S
O573 Tb560 2.303 . S
O573 C583 1.257 . S
O574 Tb561 2.415 . S
O574 C590 1.239 . S
O575 Tb561 2.399 . S
O575 C590 1.263 . S
O576 Tb561 2.325 . S
O576 C591 1.236 . S
O577 Tb560 2.322 . S
O577 C591 1.257 . S
O578 Tb560 2.349 . S
O578 C562 1.261 . S
O579 Tb561 2.303 . S
O579 C562 1.257 . S
C580 O570 1.236 . S
C580 O571 1.257 . S
O581 Tb560 2.415 1_554 S
O581 C569 1.239 . S
O582 Tb560 2.399 . S
O582 C569 1.263 1_556 S
C583 O572 1.261 . S
C583 O573 1.257 . S
C584 C587 1.358 . S
C584 C588 1.332 . S
C584 C590 1.504 . S
C585 C586 1.373 . S
C585 C589 1.308 . S
C586 C585 1.373 . S
C586 C587 1.429 . S
C586 H596 0.932 . S
C587 C584 1.358 . S
C587 C586 1.429 . S
C587 H597 0.930 . S
C588 C584 1.332 . S
C588 C589 1.394 . S
C588 H598 0.932 . S
C589 C585 1.308 . S
C589 C588 1.394 . S
C589 H599 0.929 . S
C590 Tb561 2.764 . S
C590 O574 1.239 . S
C590 O575 1.263 . S
C590 C584 1.504 . S
C591 O576 1.236 . S
C591 O577 1.257 . S
H592 C565 0.932 . S
H593 C566 0.930 . S
H594 C567 0.932 . S
H595 C568 0.929 . S
H596 C586 0.932 . S
H597 C587 0.930 . S
H598 C588 0.932 . S
H599 C589 0.929 . S
Tb600 C609 2.764 . S
Tb600 O610 2.325 . S
Tb600 O613 2.303 . S
Tb600 O617 2.322 1_455 S
Tb600 O618 2.349 . S
Tb600 O621 2.415 . S
Tb600 O622 2.399 . S
Tb601 O611 2.322 1_655 S
Tb601 O612 2.349 . S
Tb601 O614 2.415 . S
Tb601 O615 2.399 . S
Tb601 O616 2.325 . S
Tb601 O619 2.303 . S
Tb601 C630 2.764 . S
C602 O618 1.261 . S
C602 O619 1.257 1_455 S
C603 C606 1.358 . S
C603 C607 1.332 . S
C603 C609 1.504 . S
C604 C605 1.373 . S
C604 C608 1.308 . S
C605 C604 1.373 . S
C605 C606 1.429 . S
C605 H632 0.932 . S
C606 C603 1.358 . S
C606 C605 1.429 . S
C606 H633 0.930 . S
C607 C603 1.332 . S
C607 C608 1.394 . S
C607 H634 0.932 . S
C608 C604 1.308 . S
C608 C607 1.394 . S
C608 H635 0.929 . S
C609 Tb600 2.764 . S
C609 C603 1.504 . S
C609 O621 1.239 . S
C609 O622 1.263 . S
O610 Tb600 2.325 . S
O610 C620 1.236 . S
O611 Tb601 2.322 1_455 S
O611 C620 1.257 . S
O612 Tb601 2.349 . S
O612 C623 1.261 . S
O613 Tb600 2.303 . S
O613 C623 1.257 1_455 S
O614 Tb601 2.415 . S
O614 C630 1.239 . S
O615 Tb601 2.399 . S
O615 C630 1.263 . S
O616 Tb601 2.325 . S
O616 C631 1.236 . S
O617 Tb600 2.322 1_655 S
O617 C631 1.257 . S
O618 Tb600 2.349 . S
O618 C602 1.261 . S
O619 Tb601 2.303 . S
O619 C602 1.257 1_655 S
C620 O610 1.236 . S
C620 O611 1.257 . S
O621 Tb600 2.415 . S
O621 C609 1.239 . S
O622 Tb600 2.399 . S
O622 C609 1.263 . S
C623 O612 1.261 . S
C623 O613 1.257 1_655 S
C624 C627 1.358 . S
C624 C628 1.332 . S
C624 C630 1.504 1_554 S
C625 C626 1.373 . S
C625 C629 1.308 . S
C626 C625 1.373 . S
C626 C627 1.429 . S
C626 H636 0.932 . S
C627 C624 1.358 . S
C627 C626 1.429 . S
C627 H637 0.930 1_554 S
C628 C624 1.332 . S
C628 C629 1.394 . S
C628 H638 0.932 . S
C629 C625 1.308 . S
C629 C628 1.394 . S
C629 H639 0.929 . S
C630 Tb601 2.764 . S
C630 O614 1.239 . S
C630 O615 1.263 . S
C630 C624 1.504 1_556 S
C631 O616 1.236 . S
C631 O617 1.257 . S
H632 C605 0.932 . S
H633 C606 0.930 . S
H634 C607 0.932 . S
H635 C608 0.929 . S
H636 C626 0.932 . S
H637 C627 0.930 1_556 S
H638 C628 0.932 . S
H639 C629 0.929 . S
C640 C641 1.385 . S
C640 C646 1.379 . S
C640 N648 1.356 . S
C641 C640 1.385 . S
C641 C647 1.334 1_545 S
C642 C643 1.363 1_565 S
C642 C647 1.379 . S
C642 N649 1.356 . S
C643 C642 1.363 1_545 S
C643 C646 1.363 . S
N644 C646 1.356 . S
N644 H656 0.984 . S
N644 H657 0.985 . S
N645 C647 1.356 . S
N645 H650 0.984 . S
N645 H651 0.985 . S
C646 C640 1.379 . S
C646 C643 1.363 . S
C646 N644 1.356 . S
C647 C641 1.334 1_565 S
C647 C642 1.379 . S
C647 N645 1.356 . S
N648 C640 1.356 . S
N648 H654 0.984 . S
N648 H655 0.984 . S
N649 C642 1.356 . S
N649 H652 0.984 . S
N649 H653 0.985 . S
H650 N645 0.984 . S
H651 N645 0.985 . S
H652 N649 0.984 . S
H653 N649 0.985 . S
H654 N648 0.984 . S
H655 N648 0.984 . S
H656 N644 0.984 . S
H657 N644 0.985 . S
C658 C659 1.363 . S
C658 C664 1.379 . S
C658 N666 1.356 . S
C659 C658 1.363 . S
C659 C665 1.363 . S
C660 C661 1.363 . S
C660 C665 1.379 . S
C660 N667 1.356 . S
C661 C660 1.363 . S
C661 C664 1.363 . S
N662 C664 1.356 . S
N662 H674 0.984 . S
N662 H675 0.985 . S
N663 C665 1.356 . S
N663 H668 0.984 . S
N663 H669 0.985 . S
C664 C658 1.379 . S
C664 C661 1.363 . S
C664 N662 1.356 . S
C665 C659 1.363 . S
C665 C660 1.379 . S
C665 N663 1.356 . S
N666 C658 1.356 . S
N666 H672 0.984 . S
N666 H673 0.984 . S
N667 C660 1.356 . S
N667 H670 0.984 . S
N667 H671 0.985 . S
H668 N663 0.984 . S
H669 N663 0.985 . S
H670 N667 0.984 . S
H671 N667 0.985 . S
H672 N666 0.984 . S
H673 N666 0.984 . S
H674 N662 0.984 . S
H675 N662 0.985 . S
C676 C677 1.363 . S
C676 C682 1.379 . S
C676 N684 1.356 . S
C677 C676 1.363 . S
C677 C683 1.363 . S
C678 C679 1.363 . S
C678 C683 1.379 . S
C678 N685 1.356 . S
C679 C678 1.363 . S
C679 C682 1.363 . S
N680 C682 1.356 . S
N680 H692 0.984 . S
N680 H693 0.985 . S
N681 C683 1.356 . S
N681 H686 0.984 . S
N681 H687 0.985 . S
C682 C676 1.379 . S
C682 C679 1.363 . S
C682 N680 1.356 . S
C683 C677 1.363 . S
C683 C678 1.379 . S
C683 N681 1.356 . S
N684 C676 1.356 . S
N684 H690 0.984 . S
N684 H691 0.984 . S
N685 C678 1.356 . S
N685 H688 0.984 . S
N685 H689 0.985 . S
H686 N681 0.984 . S
H687 N681 0.985 . S
H688 N685 0.984 . S
H689 N685 0.985 . S
H690 N684 0.984 . S
H691 N684 0.984 . S
H692 N680 0.984 . S
H693 N680 0.985 . S
C694 C695 1.351 1_655 S
C694 C700 1.379 . S
C694 N702 1.356 . S
C695 C694 1.351 1_455 S
C695 C701 1.376 . S
C696 C697 1.363 . S
C696 C701 1.379 . S
C696 N703 1.356 . S
C697 C696 1.363 . S
C697 C700 1.363 1_455 S
N698 C700 1.356 . S
N698 H710 0.984 . S
N698 H711 0.985 . S
N699 C701 1.356 . S
N699 H704 0.984 . S
N699 H705 0.985 . S
C700 C694 1.379 . S
C700 C697 1.363 1_655 S
C700 N698 1.356 . S
C701 C695 1.376 . S
C701 C696 1.379 . S
C701 N699 1.356 . S
N702 C694 1.356 . S
N702 H708 0.984 . S
N702 H709 0.984 . S
N703 C696 1.356 . S
N703 H706 0.984 . S
N703 H707 0.985 . S
H704 N699 0.984 . S
H705 N699 0.985 . S
H706 N703 0.984 . S
H707 N703 0.985 . S
H708 N702 0.984 . S
H709 N702 0.984 . S
H710 N698 0.984 . S
H711 N698 0.985 . S
C712 C713 1.338 1_545 S
C712 C718 1.379 . S
C712 N720 1.356 . S
C713 C712 1.338 1_565 S
C713 C719 1.382 . S
C714 C715 1.363 . S
C714 C719 1.379 . S
C714 N721 1.356 . S
C715 C714 1.363 . S
C715 C718 1.363 1_565 S
N716 C718 1.356 . S
N716 H728 0.984 . S
N716 H729 0.985 1_554 S
N717 C719 1.356 . S
N717 H722 0.984 . S
N717 H723 0.985 . S
C718 C712 1.379 . S
C718 C715 1.363 1_545 S
C718 N716 1.356 . S
C719 C713 1.382 . S
C719 C714 1.379 . S
C719 N717 1.356 . S
N720 C712 1.356 . S
N720 H726 0.984 . S
N720 H727 0.984 . S
N721 C714 1.356 . S
N721 H724 0.984 1_554 S
N721 H725 0.985 . S
H722 N717 0.984 . S
H723 N717 0.985 . S
H724 N721 0.984 1_556 S
H725 N721 0.985 . S
H726 N720 0.984 . S
H727 N720 0.984 . S
H728 N716 0.984 . S
H729 N716 0.985 1_556 S
C730 C731 1.363 . S
C730 C736 1.379 . S
C730 N738 1.356 1_556 S
C731 C730 1.363 . S
C731 C737 1.363 . S
C732 C733 1.363 . S
C732 C737 1.379 . S
C732 N739 1.356 . S
C733 C732 1.363 . S
C733 C736 1.363 . S
N734 C736 1.356 . S
N734 H746 0.984 1_556 S
N734 H747 0.985 . S
N735 C737 1.356 . S
N735 H740 0.984 . S
N735 H741 0.985 . S
C736 C730 1.379 . S
C736 C733 1.363 . S
C736 N734 1.356 . S
C737 C731 1.363 . S
C737 C732 1.379 . S
C737 N735 1.356 . S
N738 C730 1.356 1_554 S
N738 H744 0.984 . S
N738 H745 0.984 . S
N739 C732 1.356 . S
N739 H742 0.984 . S
N739 H743 0.985 . S
H740 N735 0.984 . S
H741 N735 0.985 . S
H742 N739 0.984 . S
H743 N739 0.985 . S
H744 N738 0.984 . S
H745 N738 0.984 . S
H746 N734 0.984 1_554 S
H747 N734 0.985 . S
C748 C749 1.363 . S
C748 C754 1.379 . S
C748 N756 1.356 . S
C749 C748 1.363 . S
C749 C755 1.363 . S
C750 C751 1.363 . S
C750 C755 1.379 . S
C750 N757 1.356 . S
C751 C750 1.363 . S
C751 C754 1.363 . S
N752 C754 1.356 . S
N752 H764 0.984 . S
N752 H765 0.985 1_554 S
N753 C755 1.356 . S
N753 H758 0.984 . S
N753 H759 0.985 . S
C754 C748 1.379 . S
C754 C751 1.363 . S
C754 N752 1.356 . S
C755 C749 1.363 . S
C755 C750 1.379 . S
C755 N753 1.356 . S
N756 C748 1.356 . S
N756 H762 0.984 . S
N756 H763 0.984 . S
N757 C750 1.356 . S
N757 H760 0.984 1_554 S
N757 H761 0.985 . S
H758 N753 0.984 . S
H759 N753 0.985 . S
H760 N757 0.984 1_556 S
H761 N757 0.985 . S
H762 N756 0.984 . S
H763 N756 0.984 . S
H764 N752 0.984 . S
H765 N752 0.985 1_556 S
C766 C767 1.374 . S
C766 C772 1.379 . S
C766 N774 1.356 . S
C767 C766 1.374 . S
C767 C773 1.353 1_655 S
C768 C769 1.363 1_455 S
C768 C773 1.379 . S
C768 N775 1.356 . S
C769 C768 1.363 1_655 S
C769 C772 1.363 . S
N770 C772 1.356 . S
N770 H782 0.984 . S
N770 H783 0.985 1_554 S
N771 C773 1.356 . S
N771 H776 0.984 . S
N771 H777 0.985 . S
C772 C766 1.379 . S
C772 C769 1.363 . S
C772 N770 1.356 . S
C773 C767 1.353 1_455 S
C773 C768 1.379 . S
C773 N771 1.356 . S
N774 C766 1.356 . S
N774 H780 0.984 . S
N774 H781 0.984 . S
N775 C768 1.356 . S
N775 H778 0.984 1_554 S
N775 H779 0.985 . S
H776 N771 0.984 . S
H777 N771 0.985 . S
H778 N775 0.984 1_556 S
H779 N775 0.985 . S
H780 N774 0.984 . S
H781 N774 0.984 . S
H782 N770 0.984 . S
H783 N770 0.985 1_556 S
C784 C785 1.363 . S
C784 C790 1.379 . S
C784 N792 1.356 . S
C785 C784 1.363 . S
C785 C791 1.363 . S
C786 C787 1.363 . S
C786 C791 1.379 . S
C786 N793 1.356 . S
C787 C786 1.363 . S
C787 C790 1.363 . S
N788 C790 1.356 . S
N788 H800 0.984 . S
N788 H801 0.985 . S
N789 C791 1.356 1_455 S
N789 H794 0.984 . S
N789 H795 0.985 . S
C790 C784 1.379 . S
C790 C787 1.363 . S
C790 N788 1.356 . S
C791 C785 1.363 . S
C791 C786 1.379 . S
C791 N789 1.356 1_655 S
N792 C784 1.356 . S
N792 H798 0.984 . S
N792 H799 0.984 . S
N793 C786 1.356 . S
N793 H796 0.984 . S
N793 H797 0.985 . S
H794 N789 0.984 . S
H795 N789 0.985 . S
H796 N793 0.984 . S
H797 N793 0.985 . S
H798 N792 0.984 . S
H799 N792 0.984 . S
H800 N788 0.984 . S
H801 N788 0.985 . S
C802 C803 1.363 1_565 S
C802 C808 1.379 . S
C802 N810 1.356 . S
C803 C802 1.363 1_545 S
C803 C809 1.363 . S
C804 C805 1.363 . S
C804 C809 1.379 1_565 S
C804 N811 1.356 . S
C805 C804 1.363 . S
C805 C808 1.363 . S
N806 C808 1.356 . S
N806 H818 0.984 . S
N806 H819 0.985 . S
N807 C809 1.356 . S
N807 H812 0.984 . S
N807 H813 0.985 . S
C808 C802 1.379 . S
C808 C805 1.363 . S
C808 N806 1.356 . S
C809 C803 1.363 . S
C809 C804 1.379 1_545 S
C809 N807 1.356 . S
N810 C802 1.356 . S
N810 H816 0.984 . S
N810 H817 0.984 . S
N811 C804 1.356 . S
N811 H814 0.984 . S
N811 H815 0.985 1_565 S
H812 N807 0.984 . S
H813 N807 0.985 . S
H814 N811 0.984 . S
H815 N811 0.985 1_545 S
H816 N810 0.984 . S
H817 N810 0.984 . S
H818 N806 0.984 . S
H819 N806 0.985 . S
C820 C821 1.363 . S
C820 C826 1.379 . S
C820 N828 1.356 . S
C821 C820 1.363 . S
C821 C827 1.363 . S
C822 C823 1.363 . S
C822 C827 1.379 . S
C822 N829 1.356 . S
C823 C822 1.363 . S
C823 C826 1.363 . S
N824 C826 1.356 . S
N824 H836 0.984 . S
N824 H837 0.985 . S
N825 C827 1.356 . S
N825 H830 0.984 . S
N825 H831 0.985 . S
C826 C820 1.379 . S
C826 C823 1.363 . S
C826 N824 1.356 . S
C827 C821 1.363 . S
C827 C822 1.379 . S
C827 N825 1.356 . S
N828 C820 1.356 . S
N828 H834 0.984 1_556 S
N828 H835 0.984 1_556 S
N829 C822 1.356 . S
N829 H832 0.984 . S
N829 H833 0.985 . S
H830 N825 0.984 . S
H831 N825 0.985 . S
H832 N829 0.984 . S
H833 N829 0.985 . S
H834 N828 0.984 1_554 S
H835 N828 0.984 1_554 S
H836 N824 0.984 . S
H837 N824 0.985 . S
C838 C839 1.363 . S
C838 C844 1.379 . S
C838 N846 1.356 . S
C839 C838 1.363 . S
C839 C845 1.363 . S
C840 C841 1.363 . S
C840 C845 1.379 . S
C840 N847 1.356 . S
C841 C840 1.363 . S
C841 C844 1.363 . S
N842 C844 1.356 . S
N842 H854 0.984 . S
N842 H855 0.985 . S
N843 C845 1.356 . S
N843 H848 0.984 . S
N843 H849 0.985 . S
C844 C838 1.379 . S
C844 C841 1.363 . S
C844 N842 1.356 . S
C845 C839 1.363 . S
C845 C840 1.379 . S
C845 N843 1.356 . S
N846 C838 1.356 . S
N846 H852 0.984 . S
N846 H853 0.984 . S
N847 C840 1.356 . S
N847 H850 0.984 . S
N847 H851 0.985 . S
H848 N843 0.984 . S
H849 N843 0.985 . S
H850 N847 0.984 . S
H851 N847 0.985 . S
H852 N846 0.984 . S
H853 N846 0.984 . S
H854 N842 0.984 . S
H855 N842 0.985 . S
C856 C857 1.363 . S
C856 C862 1.379 . S
C856 N864 1.356 . S
C857 C856 1.363 . S
C857 C863 1.363 . S
C858 C859 1.363 . S
C858 C863 1.379 . S
C858 N865 1.356 . S
C859 C858 1.363 . S
C859 C862 1.363 . S
N860 C862 1.356 1_556 S
N860 H872 0.984 . S
N860 H873 0.985 . S
N861 C863 1.356 1_655 S
N861 H866 0.984 . S
N861 H867 0.985 . S
C862 C856 1.379 . S
C862 C859 1.363 . S
C862 N860 1.356 1_554 S
C863 C857 1.363 . S
C863 C858 1.379 . S
C863 N861 1.356 1_455 S
N864 C856 1.356 . S
N864 H870 0.984 1_554 S
N864 H871 0.984 1_455 S
N865 C858 1.356 . S
N865 H868 0.984 . S
N865 H869 0.985 . S
H866 N861 0.984 . S
H867 N861 0.985 . S
H868 N865 0.984 . S
H869 N865 0.985 . S
H870 N864 0.984 1_556 S
H871 N864 0.984 1_655 S
H872 N860 0.984 . S
H873 N860 0.985 . S
C874 C875 1.363 . S
C874 C880 1.379 1_565 S
C874 N882 1.356 . S
C875 C874 1.363 . S
C875 C881 1.363 1_565 S
C876 C877 1.363 . S
C876 C881 1.379 . S
C876 N883 1.356 . S
C877 C876 1.363 . S
C877 C880 1.363 . S
N878 C880 1.356 . S
N878 H890 0.984 1_545 S
N878 H891 0.985 . S
N879 C881 1.356 . S
N879 H884 0.984 . S
N879 H885 0.985 . S
C880 C874 1.379 1_545 S
C880 C877 1.363 . S
C880 N878 1.356 . S
C881 C875 1.363 1_545 S
C881 C876 1.379 . S
C881 N879 1.356 . S
N882 C874 1.356 . S
N882 H888 0.984 . S
N882 H889 0.984 . S
N883 C876 1.356 . S
N883 H886 0.984 . S
N883 H887 0.985 . S
H884 N879 0.984 . S
H885 N879 0.985 . S
H886 N883 0.984 . S
H887 N883 0.985 . S
H888 N882 0.984 . S
H889 N882 0.984 . S
H890 N878 0.984 1_565 S
H891 N878 0.985 . S
C892 C893 1.363 . S
C892 C898 1.379 . S
C892 N900 1.356 . S
C893 C892 1.363 . S
C893 C899 1.363 . S
C894 C895 1.363 . S
C894 C899 1.379 . S
C894 N901 1.356 . S
C895 C894 1.363 . S
C895 C898 1.363 . S
N896 C898 1.356 . S
N896 H908 0.984 . S
N896 H909 0.985 . S
N897 C899 1.356 . S
N897 H902 0.984 . S
N897 H903 0.985 . S
C898 C892 1.379 . S
C898 C895 1.363 . S
C898 N896 1.356 . S
C899 C893 1.363 . S
C899 C894 1.379 . S
C899 N897 1.356 . S
N900 C892 1.356 . S
N900 H906 0.984 . S
N900 H907 0.984 . S
N901 C894 1.356 . S
N901 H904 0.984 . S
N901 H905 0.985 . S
H902 N897 0.984 . S
H903 N897 0.985 . S
H904 N901 0.984 . S
H905 N901 0.985 . S
H906 N900 0.984 . S
H907 N900 0.984 . S
H908 N896 0.984 . S
H909 N896 0.985 . S
C910 C911 1.363 . S
C910 C916 1.379 . S
C910 N918 1.356 . S
C911 C910 1.363 . S
C911 C917 1.363 . S
C912 C913 1.363 . S
C912 C917 1.379 . S
C912 N919 1.356 . S
C913 C912 1.363 . S
C913 C916 1.363 . S
N914 C916 1.356 . S
N914 H926 0.984 1_554 S
N914 H927 0.985 . S
N915 C917 1.356 . S
N915 H920 0.984 . S
N915 H921 0.985 . S
C916 C910 1.379 . S
C916 C913 1.363 . S
C916 N914 1.356 . S
C917 C911 1.363 . S
C917 C912 1.379 . S
C917 N915 1.356 . S
N918 C910 1.356 . S
N918 H924 0.984 . S
N918 H925 0.984 . S
N919 C912 1.356 . S
N919 H922 0.984 . S
N919 H923 0.985 . S
H920 N915 0.984 . S
H921 N915 0.985 . S
H922 N919 0.984 . S
H923 N919 0.985 . S
H924 N918 0.984 . S
H925 N918 0.984 . S
H926 N914 0.984 1_556 S
H927 N914 0.985 . S
C928 C929 1.363 1_655 S
C928 C934 1.379 . S
C928 N936 1.356 . S
C929 C928 1.363 1_455 S
C929 C935 1.363 . S
C930 C931 1.363 . S
C930 C935 1.379 . S
C930 N937 1.356 . S
C931 C930 1.363 . S
C931 C934 1.363 1_455 S
N932 C934 1.356 . S
N932 H944 0.984 . S
N932 H945 0.985 . S
N933 C935 1.356 . S
N933 H938 0.984 . S
N933 H939 0.985 . S
C934 C928 1.379 . S
C934 C931 1.363 1_655 S
C934 N932 1.356 . S
C935 C929 1.363 . S
C935 C930 1.379 . S
C935 N933 1.356 . S
N936 C928 1.356 . S
N936 H942 0.984 . S
N936 H943 0.984 . S
N937 C930 1.356 . S
N937 H940 0.984 . S
N937 H941 0.985 . S
H938 N933 0.984 . S
H939 N933 0.985 . S
H940 N937 0.984 . S
H941 N937 0.985 . S
H942 N936 0.984 . S
H943 N936 0.984 . S
H944 N932 0.984 . S
H945 N932 0.985 . S
C946 C947 1.363 1_565 S
C946 C952 1.379 . S
C946 N954 1.356 . S
C947 C946 1.363 1_545 S
C947 C953 1.363 . S
C948 C949 1.363 . S
C948 C953 1.379 . S
C948 N955 1.356 . S
C949 C948 1.363 . S
C949 C952 1.363 1_545 S
N950 C952 1.356 . S
N950 H962 0.984 1_556 S
N950 H963 0.985 . S
N951 C953 1.356 . S
N951 H956 0.984 . S
N951 H957 0.985 . S
C952 C946 1.379 . S
C952 C949 1.363 1_565 S
C952 N950 1.356 . S
C953 C947 1.363 . S
C953 C948 1.379 . S
C953 N951 1.356 . S
N954 C946 1.356 . S
N954 H960 0.984 . S
N954 H961 0.984 . S
N955 C948 1.356 . S
N955 H958 0.984 . S
N955 H959 0.985 . S
H956 N951 0.984 . S
H957 N951 0.985 . S
H958 N955 0.984 . S
H959 N955 0.985 . S
H960 N954 0.984 . S
H961 N954 0.984 . S
H962 N950 0.984 1_554 S
H963 N950 0.985 . S
C964 C965 1.363 . S
C964 C970 1.379 . S
C964 N972 1.356 . S
C965 C964 1.363 . S
C965 C971 1.363 . S
C966 C967 1.363 . S
C966 C971 1.379 . S
C966 N973 1.356 . S
C967 C966 1.363 . S
C967 C970 1.363 . S
N968 C970 1.356 . S
N968 H980 0.984 . S
N968 H981 0.985 . S
N969 C971 1.356 . S
N969 H974 0.984 . S
N969 H975 0.985 . S
C970 C964 1.379 . S
C970 C967 1.363 . S
C970 N968 1.356 . S
C971 C965 1.363 . S
C971 C966 1.379 . S
C971 N969 1.356 . S
N972 C964 1.356 . S
N972 H978 0.984 . S
N972 H979 0.984 . S
N973 C966 1.356 . S
N973 H976 0.984 . S
N973 H977 0.985 . S
H974 N969 0.984 . S
H975 N969 0.985 . S
H976 N973 0.984 . S
H977 N973 0.985 . S
H978 N972 0.984 . S
H979 N972 0.984 . S
H980 N968 0.984 . S
H981 N968 0.985 . S
C982 C983 1.363 . S
C982 C988 1.379 . S
C982 N990 1.356 . S
C983 C982 1.363 . S
C983 C989 1.363 . S
C984 C985 1.363 . S
C984 C989 1.379 . S
C984 N991 1.356 . S
C985 C984 1.363 . S
C985 C988 1.363 . S
N986 C988 1.356 . S
N986 H998 0.984 1_556 S
N986 H999 0.985 . S
N987 C989 1.356 . S
N987 H992 0.984 . S
N987 H993 0.985 . S
C988 C982 1.379 . S
C988 C985 1.363 . S
C988 N986 1.356 . S
C989 C983 1.363 . S
C989 C984 1.379 . S
C989 N987 1.356 . S
N990 C982 1.356 . S
N990 H996 0.984 . S
N990 H997 0.984 . S
N991 C984 1.356 . S
N991 H994 0.984 . S
N991 H995 0.985 . S
H992 N987 0.984 . S
H993 N987 0.985 . S
H994 N991 0.984 . S
H995 N991 0.985 . S
H996 N990 0.984 . S
H997 N990 0.984 . S
H998 N986 0.984 1_554 S
H999 N986 0.985 . S
C1000 C1001 1.363 1_455 S
C1000 C1006 1.379 . S
C1000 N1008 1.356 . S
C1001 C1000 1.363 1_655 S
C1001 C1007 1.363 . S
C1002 C1003 1.363 . S
C1002 C1007 1.379 . S
C1002 N1009 1.356 . S
C1003 C1002 1.363 . S
C1003 C1006 1.363 1_655 S
N1004 C1006 1.356 . S
N1004 H1016 0.984 . S
N1004 H1017 0.985 . S
N1005 C1007 1.356 . S
N1005 H1010 0.984 . S
N1005 H1011 0.985 . S
C1006 C1000 1.379 . S
C1006 C1003 1.363 1_455 S
C1006 N1004 1.356 . S
C1007 C1001 1.363 . S
C1007 C1002 1.379 . S
C1007 N1005 1.356 . S
N1008 C1000 1.356 . S
N1008 H1014 0.984 . S
N1008 H1015 0.984 . S
N1009 C1002 1.356 . S
N1009 H1012 0.984 . S
N1009 H1013 0.985 . S
H1010 N1005 0.984 . S
H1011 N1005 0.985 . S
H1012 N1009 0.984 . S
H1013 N1009 0.985 . S
H1014 N1008 0.984 . S
H1015 N1008 0.984 . S
H1016 N1004 0.984 . S
H1017 N1004 0.985 . S
C1018 C1019 1.363 . S
C1018 C1024 1.379 . S
C1018 N1026 1.356 . S
C1019 C1018 1.363 . S
C1019 C1025 1.363 1_565 S
C1020 C1021 1.363 1_545 S
C1020 C1025 1.379 . S
C1020 N1027 1.356 . S
C1021 C1020 1.363 1_565 S
C1021 C1024 1.363 . S
N1022 C1024 1.356 . S
N1022 H1034 0.984 . S
N1022 H1035 0.985 . S
N1023 C1025 1.356 . S
N1023 H1028 0.984 . S
N1023 H1029 0.985 . S
C1024 C1018 1.379 . S
C1024 C1021 1.363 . S
C1024 N1022 1.356 . S
C1025 C1019 1.363 1_545 S
C1025 C1020 1.379 . S
C1025 N1023 1.356 . S
N1026 C1018 1.356 . S
N1026 H1032 0.984 . S
N1026 H1033 0.984 . S
N1027 C1020 1.356 . S
N1027 H1030 0.984 . S
N1027 H1031 0.985 . S
H1028 N1023 0.984 . S
H1029 N1023 0.985 . S
H1030 N1027 0.984 . S
H1031 N1027 0.985 . S
H1032 N1026 0.984 . S
H1033 N1026 0.984 . S
H1034 N1022 0.984 . S
H1035 N1022 0.985 . S
C1036 C1037 1.363 . S
C1036 C1042 1.379 . S
C1036 N1044 1.356 . S
C1037 C1036 1.363 . S
C1037 C1043 1.363 . S
C1038 C1039 1.363 . S
C1038 C1043 1.379 . S
C1038 N1045 1.356 . S
C1039 C1038 1.363 . S
C1039 C1042 1.363 . S
N1040 C1042 1.356 . S
N1040 H1052 0.984 . S
N1040 H1053 0.985 . S
N1041 C1043 1.356 . S
N1041 H1046 0.984 . S
N1041 H1047 0.985 . S
C1042 C1036 1.379 . S
C1042 C1039 1.363 . S
C1042 N1040 1.356 . S
C1043 C1037 1.363 . S
C1043 C1038 1.379 . S
C1043 N1041 1.356 . S
N1044 C1036 1.356 . S
N1044 H1050 0.984 . S
N1044 H1051 0.984 . S
N1045 C1038 1.356 . S
N1045 H1048 0.984 . S
N1045 H1049 0.985 . S
H1046 N1041 0.984 . S
H1047 N1041 0.985 . S
H1048 N1045 0.984 . S
H1049 N1045 0.985 . S
H1050 N1044 0.984 . S
H1051 N1044 0.984 . S
H1052 N1040 0.984 . S
H1053 N1040 0.985 . S
C1054 C1055 1.363 . S
C1054 C1060 1.379 . S
C1054 N1062 1.356 . S
C1055 C1054 1.363 . S
C1055 C1061 1.363 . S
C1056 C1057 1.363 . S
C1056 C1061 1.379 . S
C1056 N1063 1.356 . S
C1057 C1056 1.363 . S
C1057 C1060 1.363 . S
N1058 C1060 1.356 . S
N1058 H1070 0.984 . S
N1058 H1071 0.985 . S
N1059 C1061 1.356 . S
N1059 H1064 0.984 . S
N1059 H1065 0.985 . S
C1060 C1054 1.379 . S
C1060 C1057 1.363 . S
C1060 N1058 1.356 . S
C1061 C1055 1.363 . S
C1061 C1056 1.379 . S
C1061 N1059 1.356 . S
N1062 C1054 1.356 . S
N1062 H1068 0.984 . S
N1062 H1069 0.984 . S
N1063 C1056 1.356 . S
N1063 H1066 0.984 . S
N1063 H1067 0.985 . S
H1064 N1059 0.984 . S
H1065 N1059 0.985 . S
H1066 N1063 0.984 . S
H1067 N1063 0.985 . S
H1068 N1062 0.984 . S
H1069 N1062 0.984 . S
H1070 N1058 0.984 . S
H1071 N1058 0.985 . S
C641 C391 2.781 . S
C643 C503 2.923 1_545 S
C661 C543 1.753 . S
C659 C451 1.731 . S
C679 C562 2.983 . S
C677 C241 2.428 . S
C697 C623 2.208 1_455 S
C695 C331 1.753 1_455 S
C715 C482 2.924 1_564 S
C713 C121 2.405 . S
C731 C211 1.662 . S
C733 C522 1.757 . S
C749 C31 2.798 . S
C751 C583 2.982 1_554 S
C767 C91 1.753 . S
C769 C602 2.209 1_654 S
C787 C484 1.026 . S
C785 C301 1.011 . S
C805 C524 0.617 . S
C803 C380 0.498 . S
C823 C580 1.672 . S
C821 C440 1.597 . S
C839 C260 0.764 . S
C841 C604 0.769 . S
C857 C61 1.092 1_455 S
C859 C505 1.031 . S
C877 C545 0.617 . S
C875 C140 0.617 . S
C895 C591 1.671 . S
C893 C200 1.477 . S
C911 C20 0.772 . S
C913 C625 0.777 . S
C929 C320 2.705 1_455 S
C931 C500 2.935 . S
C947 C361 2.915 . S
C949 C540 3.599 . S
C967 C564 2.117 . S
C965 C421 1.882 . S
C985 C620 3.585 . S
C983 C271 3.315 . S
C1001 C80 2.680 . S
C1003 C511 2.945 . S
C1021 C551 3.600 . S
C1019 C151 3.331 . S
C1039 C585 2.117 . S
C1037 C181 1.918 . S
C1055 C1 2.904 . S
C1057 C631 3.590 . S
