# Generated by pormake.
# Topology pth, (4,4)-cn, num edge types: 1
# Building blocks:
#     Node 0, Type 0, BuildingBlock: QUQFOY_clean_sbu_1, # of connection points: 4
#     Node 1, Type 0, BuildingBlock: QUQFOY_clean_sbu_1, # of connection points: 4
#     Node 2, Type 0, BuildingBlock: QUQFOY_clean_sbu_1, # of connection points: 4
#     Node 3, Type 1, BuildingBlock: NAHDIM_clean_linker_0, # of connection points: 4
#     Node 4, Type 1, BuildingBlock: NAHDIM_clean_linker_0, # of connection points: 4
#     Node 5, Type 1, BuildingBlock: NAHDIM_clean_linker_0, # of connection points: 4
#     Edge 6, Type (0, 1), BuildingBlock: FUNLAD_clean_linker_0, # of connection points: 2
#     Edge 7, Type (0, 1), BuildingBlock: FUNLAD_clean_linker_0, # of connection points: 2
#     Edge 8, Type (0, 1), BuildingBlock: FUNLAD_clean_linker_0, # of connection points: 2
#     Edge 9, Type (0, 1), BuildingBlock: FUNLAD_clean_linker_0, # of connection points: 2
#     Edge 10, Type (0, 1), BuildingBlock: FUNLAD_clean_linker_0, # of connection points: 2
#     Edge 11, Type (0, 1), BuildingBlock: FUNLAD_clean_linker_0, # of connection points: 2
#     Edge 12, Type (0, 1), BuildingBlock: FUNLAD_clean_linker_0, # of connection points: 2
#     Edge 13, Type (0, 1), BuildingBlock: FUNLAD_clean_linker_0, # of connection points: 2
#     Edge 14, Type (0, 1), BuildingBlock: FUNLAD_clean_linker_0, # of connection points: 2
#     Edge 15, Type (0, 1), BuildingBlock: FUNLAD_clean_linker_0, # of connection points: 2
#     Edge 16, Type (0, 1), BuildingBlock: FUNLAD_clean_linker_0, # of connection points: 2
#     Edge 17, Type (0, 1), BuildingBlock: FUNLAD_clean_linker_0, # of connection points: 2
# Relax obj value: 0.027
# Max RMSD: 0.121
# Mean RMSD: 0.079
data_MOF--net-pth--node1-QUQFOY_clean_sbu_1--node2-NAHDIM_clean_linker_0--edge1-FUNLAD_clean_linker_0
_symmetry_space_group_name_H-M    P1
_symmetry_Int_Tables_number       1
_symmetry_cell_setting            triclinic
loop_
_symmetry_equiv_pos_as_xyz
'x, y, z'
_cell_length_a     34.268431
_cell_length_b     37.137213
_cell_length_c     92.995422
_cell_angle_alpha  89.751176
_cell_angle_beta   90.578505
_cell_angle_gamma 120.07817
loop_
_atom_site_label
_atom_site_type_symbol
_atom_site_fract_x
_atom_site_fract_y
_atom_site_fract_z
_atom_type_partial_charge
O0 O 0.03283 0.08129 0.06342 0.0
Cd1 Cd 0.98236 0.04148 0.07697 0.0
Cd2 Cd 0.0302 0.00301 0.07673 0.0
O3 O 0.07886 0.05663 0.06683 0.0
O4 O 0.95711 0.07472 0.08537 0.0
O5 O 0.99287 0.04967 0.09823 0.0
C6 C 0.97327 0.07165 0.09761 0.0
C7 C 0.04711 0.97412 0.09642 0.0
C8 C 0.07055 0.0835 0.06133 0.0
C9 C 0.93783 0.9597 0.06262 0.0
O10 O 0.97562 0.9615 0.0644 0.0
O11 O 0.93131 0.98777 0.06787 0.0
O12 O 0.05899 0.97081 0.08359 0.0
O13 O 0.02714 0.99546 0.09813 0.0
O14 O 0.00475 0.07934 0.41125 0.0
Cd15 Cd 0.05938 0.0911 0.39892 0.0
Cd16 Cd 0.02144 0.00763 0.39972 0.0
O17 O 0.97099 0.01083 0.41065 0.0
O18 O 0.08116 0.14651 0.3899 0.0
O19 O 0.05146 0.08766 0.3775 0.0
C20 C 0.06816 0.12754 0.3777 0.0
C21 C 0.00234 0.95728 0.38188 0.0
C22 C 0.97185 0.04395 0.41463 0.0
C23 C 0.11356 0.05949 0.41354 0.0
O24 O 0.08022 0.02361 0.41084 0.0
O25 O 0.11324 0.09193 0.40933 0.0
O26 O 0.99665 0.94759 0.39532 0.0
O27 O 0.01783 0.99582 0.37847 0.0
O28 O 0.9513 0.99478 0.72522 0.0
Cd29 Cd 0.99389 0.97903 0.73568 0.0
Cd30 Cd 0.04718 0.06193 0.73944 0.0
O31 O 0.99229 0.06171 0.73009 0.0
O32 O 0.95667 0.92099 0.74268 0.0
O33 O 0.99175 0.9755 0.75718 0.0
C34 C 0.96552 0.93583 0.75558 0.0
C35 C 0.07996 0.10683 0.75895 0.0
C36 C 0.95706 0.0313 0.72467 0.0
C37 C 0.084 0.01755 0.72188 0.0
O38 O 0.08985 0.05189 0.72671 0.0
O39 O 0.04784 0.98377 0.72452 0.0
O40 O 0.08482 0.12053 0.74596 0.0
O41 O 0.05651 0.06711 0.76093 0.0
C42 C 0.9138 0.67342 0.28569 0.0
C43 C 0.93151 0.66594 0.29995 0.0
C44 C 0.9795 0.63792 0.29192 0.0
C45 C 0.02408 0.64754 0.28995 0.0
C46 C 0.03415 0.61922 0.28339 0.0
C47 C 0.99858 0.58022 0.27869 0.0
C48 C 0.95335 0.56978 0.28093 0.0
C49 C 0.94421 0.59867 0.28753 0.0
C50 C 0.08277 0.63124 0.28123 0.0
C51 C 0.91465 0.52832 0.2761 0.0
C52 C 0.9956 0.28899 0.31036 0.0
C53 C 0.9831 0.31718 0.30279 0.0
C54 C 0.01565 0.39027 0.29598 0.0
C55 C 0.9779 0.38438 0.28794 0.0
C56 C 0.97861 0.41744 0.28037 0.0
C57 C 0.01819 0.45705 0.28055 0.0
C58 C 0.05615 0.4632 0.28869 0.0
C59 C 0.05422 0.42972 0.29639 0.0
C60 C 0.9371 0.40989 0.27204 0.0
C61 C 0.09893 0.50494 0.28905 0.0
C62 C 0.06225 0.40642 0.19057 0.0
C63 C 0.01851 0.39607 0.19459 0.0
C64 C 0.01031 0.42587 0.20093 0.0
C65 C 0.04673 0.46665 0.2034 0.0
C66 C 0.09055 0.4775 0.19883 0.0
C67 C 0.09759 0.44726 0.19228 0.0
C68 C 0.96283 0.41364 0.20515 0.0
C69 C 0.13006 0.52073 0.20116 0.0
C70 C 0.97072 0.70764 0.19437 0.0
C71 C 0.01037 0.7126 0.18543 0.0
C72 C 0.00778 0.64599 0.18652 0.0
C73 C 0.97274 0.60478 0.18733 0.0
C74 C 0.97847 0.57479 0.19479 0.0
C75 C 0.02076 0.58631 0.20122 0.0
C76 C 0.05713 0.62751 0.19968 0.0
C77 C 0.05017 0.65702 0.19239 0.0
C78 C 0.93905 0.53111 0.19613 0.0
C79 C 0.10308 0.64047 0.20596 0.0
C80 C 0.00862 0.5511 0.27084 0.0
C81 C 0.01158 0.52033 0.27869 0.0
C82 C 0.02 0.49147 0.27185 0.0
C83 C 0.02674 0.49383 0.25681 0.0
C84 C 0.03684 0.46623 0.24967 0.0
C85 C 0.04161 0.46769 0.23481 0.0
C86 C 0.0362 0.49664 0.22649 0.0
C87 C 0.0393 0.49734 0.21131 0.0
C88 C 0.03446 0.527 0.20339 0.0
C89 C 0.02619 0.55596 0.21022 0.0
C90 C 0.02232 0.55534 0.22537 0.0
C91 C 0.01318 0.58352 0.23257 0.0
C92 C 0.00915 0.58249 0.24745 0.0
C93 C 0.01365 0.55298 0.25573 0.0
C94 C 0.02283 0.52428 0.24871 0.0
C95 C 0.02732 0.52554 0.23351 0.0
C96 C 0.09368 0.33655 0.19801 0.0
C97 C 0.05556 0.33787 0.18978 0.0
O98 O 0.9724 0.66754 0.29791 0.0
O99 O -2e-05 0.67426 0.17978 0.0
O100 O 0.07123 0.37798 0.18471 0.0
O101 O 0.01624 0.35885 0.30338 0.0
H102 H 0.90644 0.6349 0.30425 0.0
H103 H 0.90745 0.64873 0.27779 0.0
H104 H 0.93867 0.70394 0.28101 0.0
H105 H 0.88151 0.67295 0.28742 0.0
H106 H 0.05111 0.67773 0.29341 0.0
H107 H 0.90946 0.59036 0.28903 0.0
H108 H 0.08918 0.60718 0.28598 0.0
H109 H 0.10656 0.66186 0.28614 0.0
H110 H 0.08975 0.63272 0.26954 0.0
H111 H 0.8813 0.52469 0.27871 0.0
H112 H 0.91742 0.50275 0.28133 0.0
H113 H 0.91632 0.52492 0.2643 0.0
H114 H 0.94884 0.31171 0.30538 0.0
H115 H 0.97091 0.27514 0.31945 0.0
H116 H 0.02522 0.30923 0.31757 0.0
H117 H 0.99913 0.25274 0.29377 0.0
H118 H 0.9477 0.35411 0.2875 0.0
H119 H 0.08316 0.43403 0.30262 0.0
H120 H 0.9438 0.41127 0.26034 0.0
H121 H 0.92874 0.43447 0.2745 0.0
H122 H 0.90735 0.37906 0.27449 0.0
H123 H 0.12621 0.50419 0.29537 0.0
H124 H 0.09202 0.52846 0.29388 0.0
H125 H 0.11092 0.51522 0.27793 0.0
H126 H 0.02727 0.32859 0.19741 0.0
H127 H 0.99074 0.36489 0.19267 0.0
H128 H 0.13106 0.45505 0.18886 0.0
H129 H 0.96035 0.41267 0.21705 0.0
H130 H 0.93759 0.38262 0.20084 0.0
H131 H 0.95426 0.43712 0.20121 0.0
H132 H 0.16234 0.52368 0.19754 0.0
H133 H 0.13318 0.52898 0.21275 0.0
H134 H 0.12426 0.54357 0.19517 0.0
H135 H 0.04048 0.72483 0.19263 0.0
H136 H 0.97843 0.73805 0.19902 0.0
H137 H 0.96428 0.6856 0.20336 0.0
H138 H 0.93966 0.69533 0.18763 0.0
H139 H 0.94039 0.59651 0.18251 0.0
H140 H 0.07788 0.68857 0.1912 0.0
H141 H 0.93205 0.52261 0.20767 0.0
H142 H 0.94754 0.50886 0.19111 0.0
H143 H 0.90798 0.5275 0.19091 0.0
H144 H 0.12902 0.67207 0.2024 0.0
H145 H 0.11379 0.61791 0.20284 0.0
H146 H 0.10141 0.64039 0.21788 0.0
H147 H 0.00634 0.5183 0.29022 0.0
H148 H 0.04104 0.44307 0.25549 0.0
H149 H 0.04927 0.44557 0.22992 0.0
H150 H 0.03685 0.52736 0.19176 0.0
H151 H 0.0089 0.60668 0.22678 0.0
H152 H 0.00207 0.60495 0.25236 0.0
H153 H 0.12293 0.34534 0.19087 0.0
H154 H 0.08188 0.30485 0.20236 0.0
H155 H 0.10494 0.35874 0.20717 0.0
C156 C 0.37437 0.94687 0.6638 0.0
C157 C 0.36668 0.97534 0.65367 0.0
C158 C 0.38649 0.97385 0.62878 0.0
C159 C 0.41001 0.01651 0.62561 0.0
C160 C 0.44269 0.03222 0.6148 0.0
C161 C 0.45194 0.00464 0.60708 0.0
C162 C 0.42648 0.96132 0.60976 0.0
C163 C 0.39351 0.94643 0.62048 0.0
C164 C 0.46832 0.07841 0.61193 0.0
C165 C 0.43541 0.93101 0.60172 0.0
C166 C 0.79352 0.1631 0.62993 0.0
C167 C 0.75484 0.12229 0.63578 0.0
C168 C 0.69619 0.0848 0.61746 0.0
C169 C 0.67248 0.04617 0.61066 0.0
C170 C 0.63185 0.0342 0.60333 0.0
C171 C 0.61538 0.06228 0.60245 0.0
C172 C 0.63987 0.10197 0.60896 0.0
C173 C 0.68 0.1128 0.61647 0.0
C174 C 0.60629 0.99139 0.59668 0.0
C175 C 0.62352 0.13284 0.60804 0.0
C176 C 0.67603 0.09003 0.51033 0.0
C177 C 0.64761 0.04784 0.51364 0.0
C178 C 0.60712 0.03469 0.52099 0.0
C179 C 0.59472 0.06431 0.52495 0.0
C180 C 0.6219 0.10639 0.52081 0.0
C181 C 0.66219 0.11866 0.51344 0.0
C182 C 0.57822 0.98937 0.52491 0.0
C183 C 0.60923 0.13859 0.52468 0.0
C184 C 0.22408 0.95073 0.51996 0.0
C185 C 0.2725 0.98178 0.51561 0.0
C186 C 0.34155 0.97843 0.51947 0.0
C187 C 0.35762 0.95118 0.52225 0.0
C188 C 0.40183 0.96593 0.52722 0.0
C189 C 0.43052 0.00911 0.52947 0.0
C190 C 0.41536 0.03714 0.52589 0.0
C191 C 0.37106 0.02155 0.52082 0.0
C192 C 0.41734 0.93527 0.53059 0.0
C193 C 0.44556 0.08344 0.52788 0.0
C194 C 0.49107 0.02138 0.59728 0.0
C195 C 0.53342 0.03468 0.60348 0.0
C196 C 0.57191 0.04971 0.59504 0.0
C197 C 0.56838 0.0515 0.57994 0.0
C198 C 0.60648 0.06638 0.57114 0.0
C199 C 0.60242 0.06669 0.55625 0.0
C200 C 0.56013 0.05257 0.5496 0.0
C201 C 0.55551 0.05188 0.53446 0.0
C202 C 0.51309 0.03797 0.52818 0.0
C203 C 0.47483 0.0245 0.53669 0.0
C204 C 0.4787 0.02472 0.55185 0.0
C205 C 0.4408 0.01124 0.56072 0.0
C206 C 0.44477 0.01043 0.57561 0.0
C207 C 0.48676 0.02313 0.5822 0.0
C208 C 0.52556 0.03787 0.57349 0.0
C209 C 0.52149 0.03855 0.55831 0.0
C210 C 0.78652 0.12469 0.5161 0.0
C211 C 0.7472 0.09087 0.50738 0.0
O212 O 0.35746 0.95848 0.63994 0.0
O213 O 0.29742 0.96176 0.51571 0.0
O214 O 0.71679 0.1041 0.50411 0.0
O215 O 0.73461 0.09384 0.6247 0.0
H216 H 0.39844 0.00605 0.65389 0.0
H217 H 0.40393 0.94474 0.66017 0.0
H218 H 0.34446 0.91502 0.66391 0.0
H219 H 0.38129 0.95964 0.67491 0.0
H220 H 0.40316 0.03752 0.63169 0.0
H221 H 0.37454 0.91346 0.6229 0.0
H222 H 0.50366 0.09159 0.61576 0.0
H223 H 0.45321 0.09492 0.61746 0.0
H224 H 0.46925 0.08444 0.6002 0.0
H225 H 0.41286 0.89833 0.60516 0.0
H226 H 0.47096 0.93899 0.60348 0.0
H227 H 0.43057 0.93334 0.59001 0.0
H228 H 0.72988 0.12883 0.64096 0.0
H229 H 0.81006 0.18586 0.63881 0.0
H230 H 0.78046 0.1768 0.62192 0.0
H231 H 0.81905 0.15773 0.6246 0.0
H232 H 0.68551 0.02497 0.6114 0.0
H233 H 0.69864 0.14322 0.6214 0.0
H234 H 0.60548 0.99422 0.58481 0.0
H235 H 0.57085 0.975 0.60044 0.0
H236 H 0.62179 0.9721 0.59934 0.0
H237 H 0.64856 0.16379 0.61245 0.0
H238 H 0.59176 0.12084 0.61416 0.0
H239 H 0.61599 0.13668 0.59668 0.0
H240 H 0.73159 0.06256 0.51425 0.0
H241 H 0.657 0.02515 0.51054 0.0
H242 H 0.68394 0.151 0.51055 0.0
H243 H 0.57701 0.98601 0.53679 0.0
H244 H 0.59118 0.96984 0.52033 0.0
H245 H 0.54315 0.97748 0.52099 0.0
H246 H 0.63249 0.1695 0.51993 0.0
H247 H 0.60986 0.14187 0.53655 0.0
H248 H 0.57434 0.1283 0.52091 0.0
H249 H 0.28575 0.00693 0.52385 0.0
H250 H 0.20334 0.96607 0.52 0.0
H251 H 0.22391 0.93889 0.53097 0.0
H252 H 0.20855 0.92385 0.51244 0.0
H253 H 0.33488 0.91805 0.52091 0.0
H254 H 0.35965 0.04316 0.51811 0.0
H255 H 0.42228 0.93451 0.54238 0.0
H256 H 0.45029 0.94525 0.52542 0.0
H257 H 0.39266 0.90329 0.5269 0.0
H258 H 0.42918 0.10126 0.52424 0.0
H259 H 0.47721 0.0943 0.52178 0.0
H260 H 0.45493 0.0904 0.53942 0.0
H261 H 0.53641 0.03294 0.61506 0.0
H262 H 0.63986 0.07759 0.57565 0.0
H263 H 0.63291 0.07808 0.55004 0.0
H264 H 0.50975 0.03724 0.51656 0.0
H265 H 0.40754 0.00088 0.55626 0.0
H266 H 0.41448 0.99951 0.5819 0.0
H267 H 0.81152 0.11486 0.51872 0.0
H268 H 0.77381 0.1301 0.52634 0.0
H269 H 0.80354 0.15445 0.51003 0.0
C270 C 0.63441 0.67927 0.82241 0.0
C271 C 0.66984 0.69185 0.83446 0.0
C272 C 0.63303 0.63068 0.8503 0.0
C273 C 0.60037 0.63925 0.85576 0.0
C274 C 0.56642 0.61109 0.86493 0.0
C275 C 0.5649 0.5735 0.86873 0.0
C276 C 0.59787 0.56488 0.86339 0.0
C277 C 0.63164 0.59373 0.85429 0.0
C278 C 0.53203 0.62146 0.87055 0.0
C279 C 0.59735 0.52519 0.86732 0.0
C280 C 0.20656 0.32928 0.87353 0.0
C281 C 0.24844 0.33534 0.86569 0.0
C282 C 0.31812 0.40301 0.86498 0.0
C283 C 0.34933 0.38927 0.86671 0.0
C284 C 0.39387 0.41698 0.87112 0.0
C285 C 0.40722 0.45909 0.87386 0.0
C286 C 0.37652 0.47341 0.87127 0.0
C287 C 0.33243 0.44516 0.8667 0.0
C288 C 0.42622 0.40103 0.87334 0.0
C289 C 0.38979 0.51823 0.87382 0.0
C290 C 0.36237 0.4058 0.96713 0.0
C291 C 0.38968 0.39286 0.96044 0.0
C292 C 0.42738 0.42105 0.95249 0.0
C293 C 0.43716 0.46273 0.95101 0.0
C294 C 0.4103 0.47606 0.95816 0.0
C295 C 0.37354 0.44741 0.96635 0.0
C296 C 0.45618 0.40608 0.94546 0.0
C297 C 0.41975 0.52023 0.95689 0.0
C298 C 0.76959 0.73348 0.95308 0.0
C299 C 0.73061 0.71786 0.9637 0.0
C300 C 0.67152 0.64543 0.95923 0.0
C301 C 0.66748 0.60717 0.95571 0.0
C302 C 0.62805 0.57547 0.94924 0.0
C303 C 0.59171 0.58231 0.94633 0.0
C304 C 0.59489 0.62041 0.95033 0.0
C305 C 0.63459 0.65145 0.95689 0.0
C306 C 0.62537 0.53491 0.94534 0.0
C307 C 0.55632 0.62834 0.94764 0.0
C308 C 0.52897 0.54352 0.8784 0.0
C309 C 0.48751 0.51458 0.87225 0.0
C310 C 0.45144 0.48711 0.88083 0.0
C311 C 0.45685 0.48796 0.89595 0.0
C312 C 0.4211 0.46101 0.9049 0.0
C313 C 0.42657 0.46218 0.91974 0.0
C314 C 0.46798 0.49041 0.92626 0.0
C315 C 0.47387 0.49173 0.94137 0.0
C316 C 0.51483 0.52136 0.94754 0.0
C317 C 0.55038 0.54984 0.93901 0.0
C318 C 0.54564 0.54819 0.92386 0.0
C319 C 0.58105 0.57587 0.91495 0.0
C320 C 0.57585 0.57421 0.90006 0.0
C321 C 0.53492 0.545 0.89351 0.0
C322 C 0.49875 0.51694 0.90229 0.0
C323 C 0.50421 0.51837 0.91748 0.0
C324 C 0.25565 0.3553 0.96186 0.0
C325 C 0.28918 0.34358 0.96823 0.0
O326 O 0.66601 0.65674 0.84113 0.0
O327 O 0.711 0.67508 0.96518 0.0
O328 O 0.32507 0.37856 0.9744 0.0
O329 O 0.27407 0.37675 0.86168 0.0
H330 H 0.66501 0.71132 0.8425 0.0
H331 H 0.59982 0.66164 0.8268 0.0
H332 H 0.6384 0.65936 0.81435 0.0
H333 H 0.63792 0.70739 0.81693 0.0
H334 H 0.60084 0.66772 0.85294 0.0
H335 H 0.65697 0.58735 0.85011 0.0
H336 H 0.49805 0.59825 0.86646 0.0
H337 H 0.53922 0.65296 0.86723 0.0
H338 H 0.53113 0.61973 0.88247 0.0
H339 H 0.62464 0.52254 0.86197 0.0
H340 H 0.56433 0.49795 0.86426 0.0
H341 H 0.60133 0.52393 0.87915 0.0
H342 H 0.2673 0.32662 0.87344 0.0
H343 H 0.18552 0.2964 0.87703 0.0
H344 H 0.18601 0.33764 0.86643 0.0
H345 H 0.21684 0.34947 0.88322 0.0
H346 H 0.33898 0.35698 0.86471 0.0
H347 H 0.3083 0.45556 0.865 0.0
H348 H 0.43329 0.40091 0.88501 0.0
H349 H 0.45875 0.42198 0.86799 0.0
H350 H 0.41255 0.36897 0.86909 0.0
H351 H 0.36165 0.52422 0.87156 0.0
H352 H 0.41857 0.53866 0.86682 0.0
H353 H 0.40104 0.52693 0.88515 0.0
H354 H 0.30115 0.33153 0.95937 0.0
H355 H 0.38145 0.36074 0.96146 0.0
H356 H 0.35237 0.457 0.97176 0.0
H357 H 0.45019 0.40388 0.93366 0.0
H358 H 0.44843 0.37499 0.94948 0.0
H359 H 0.49249 0.42856 0.9474 0.0
H360 H 0.39317 0.52454 0.96197 0.0
H361 H 0.42244 0.52938 0.9454 0.0
H362 H 0.45252 0.54153 0.96219 0.0
H363 H 0.70655 0.72672 0.95914 0.0
H364 H 0.78626 0.76784 0.95192 0.0
H365 H 0.7565 0.71915 0.94237 0.0
H366 H 0.79497 0.72508 0.95674 0.0
H367 H 0.69578 0.60248 0.95784 0.0
H368 H 0.63609 0.67988 0.96034 0.0
H369 H 0.62077 0.53009 0.93353 0.0
H370 H 0.59559 0.50866 0.95053 0.0
H371 H 0.6561 0.53402 0.94867 0.0
H372 H 0.56436 0.6599 0.95115 0.0
H373 H 0.52604 0.60491 0.95349 0.0
H374 H 0.54765 0.62485 0.936 0.0
H375 H 0.48296 0.51406 0.86068 0.0
H376 H 0.38837 0.43865 0.90055 0.0
H377 H 0.39775 0.44073 0.92604 0.0
H378 H 0.51887 0.52266 0.95915 0.0
H379 H 0.61326 0.59911 0.91939 0.0
H380 H 0.60429 0.59628 0.89376 0.0
H381 H 0.24257 0.3672 0.9704 0.0
H382 H 0.22687 0.3279 0.95662 0.0
H383 H 0.27256 0.37992 0.9536 0.0
C384 C 0.95915 0.12531 0.10866 0.0
C385 C 0.97248 0.09534 0.11025 0.0
C386 C 0.9633 0.15121 0.12013 0.0
C387 C 0.98074 0.14757 0.13346 0.0
C388 C 0.99173 0.11614 0.13529 0.0
C389 C 0.98805 0.09049 0.12376 0.0
C390 C 0.98859 0.17656 0.14553 0.0
C391 C 0.00159 0.21694 0.14337 0.0
C392 C 0.01376 0.2474 0.15526 0.0
C393 C 0.04622 0.2892 0.15279 0.0
C394 C 0.05947 0.31863 0.16381 0.0
C395 C 0.03949 0.30708 0.17744 0.0
H396 H 0.96782 0.20402 0.17106 0.0
C397 C 0.0065 0.26534 0.17984 0.0
C398 C 0.99365 0.23579 0.16887 0.0
H399 H 0.99098 0.25553 0.19029 0.0
H400 H 0.94672 0.12966 0.09843 0.0
H401 H 0.95315 0.17425 0.11849 0.0
H402 H 0.00474 0.11238 0.14551 0.0
H403 H 0.99834 0.06752 0.12535 0.0
H404 H 0.98761 0.16528 0.1564 0.0
H405 H 0.0071 0.22903 0.13247 0.0
H406 H 0.06218 0.29895 0.1424 0.0
H407 H 0.08565 0.35032 0.16168 0.0
C408 C 0.93484 0.07791 0.42741 0.0
C409 C 0.93581 0.04159 0.42392 0.0
C410 C 0.9035 0.07662 0.43717 0.0
C411 C 0.87214 0.03883 0.44365 0.0
C412 C 0.87256 0.0024 0.43997 0.0
C413 C 0.90383 0.00366 0.43013 0.0
C414 C 0.8416 0.0371 0.45522 0.0
C415 C 0.82813 0.06538 0.45654 0.0
C416 C 0.80351 0.06864 0.46915 0.0
C417 C 0.79873 0.10399 0.4702 0.0
C418 C 0.77947 0.11064 0.48232 0.0
C419 C 0.76418 0.08188 0.49368 0.0
H420 H 0.78881 0.01107 0.48007 0.0
C421 C 0.76763 0.04591 0.49252 0.0
C422 C 0.78682 0.03916 0.48037 0.0
H423 H 0.75613 0.02326 0.50114 0.0
H424 H 0.9591 0.10769 0.42287 0.0
H425 H 0.9054 0.10567 0.44003 0.0
H426 H 0.84911 0.97296 0.4449 0.0
H427 H 0.90378 0.97512 0.42774 0.0
H428 H 0.83137 0.01222 0.46298 0.0
H429 H 0.8373 0.08884 0.44824 0.0
H430 H 0.81111 0.12725 0.46177 0.0
H431 H 0.77743 0.13876 0.48298 0.0
C432 C 0.9142 0.86553 0.76591 0.0
C433 C 0.94359 0.90832 0.76805 0.0
C434 C 0.8889 0.8401 0.77727 0.0
C435 C 0.89268 0.85683 0.79112 0.0
C436 C 0.92357 0.8993 0.79336 0.0
C437 C 0.94887 0.92478 0.78196 0.0
C438 C 0.86146 0.83241 0.80295 0.0
C439 C 0.83567 0.79055 0.80292 0.0
C440 C 0.79716 0.76669 0.81282 0.0
C441 C 0.77755 0.7232 0.81347 0.0
C442 C 0.73755 0.69895 0.82099 0.0
C443 C 0.71641 0.71776 0.82814 0.0
H444 H 0.7892 0.81864 0.81975 0.0
C445 C 0.73656 0.76128 0.82782 0.0
C446 C 0.77641 0.78551 0.82027 0.0
H447 H 0.72044 0.7765 0.83295 0.0
H448 H 0.90931 0.85184 0.75532 0.0
H449 H 0.86491 0.80793 0.77486 0.0
H450 H 0.92707 0.91315 0.80387 0.0
H451 H 0.97128 0.95764 0.78397 0.0
H452 H 0.85855 0.8501 0.81171 0.0
H453 H 0.84157 0.77261 0.79494 0.0
H454 H 0.79236 0.70775 0.8077 0.0
H455 H 0.7223 0.6654 0.8208 0.0
C456 C 0.06837 0.92324 0.10604 0.0
C457 C 0.05317 0.95146 0.10856 0.0
C458 C 0.06928 0.89821 0.11713 0.0
C459 C 0.05504 0.90092 0.13102 0.0
C460 C 0.04225 0.93071 0.13373 0.0
C461 C 0.04095 0.95553 0.12259 0.0
C462 C 0.0524 0.87259 0.14276 0.0
C463 C 0.04148 0.83288 0.14027 0.0
C464 C 0.03479 0.80283 0.15189 0.0
C465 C 0.00485 0.76031 0.14947 0.0
C466 C 0.99708 0.73106 0.1602 0.0
C467 C 0.02013 0.74363 0.17345 0.0
H468 H 0.08187 0.84788 0.16729 0.0
C469 C 0.05039 0.78616 0.17583 0.0
C470 C 0.05781 0.81548 0.16515 0.0
H471 H 0.06813 0.79671 0.18602 0.0
H472 H 0.07842 0.9196 0.09538 0.0
H473 H 0.08081 0.87656 0.11478 0.0
H474 H 0.03168 0.93375 0.14438 0.0
H475 H 0.02937 0.97718 0.1249 0.0
H476 H 0.05558 0.88361 0.15374 0.0
H477 H 0.03374 0.82083 0.12935 0.0
H478 H 0.98672 0.74975 0.13935 0.0
H479 H 0.97284 0.69863 0.15814 0.0
C480 C 0.15462 0.02773 0.42548 0.0
C481 C 0.15054 0.06297 0.42284 0.0
C482 C 0.1842 0.02853 0.43605 0.0
C483 C 0.21052 0.06473 0.44425 0.0
C484 C 0.20808 0.10059 0.44112 0.0
C485 C 0.17868 0.09988 0.43042 0.0
C486 C 0.23535 0.06404 0.45735 0.0
C487 C 0.24976 0.03657 0.45925 0.0
C488 C 0.26225 0.02663 0.47349 0.0
C489 C 0.26083 0.98834 0.47502 0.0
C490 C 0.26583 0.97452 0.48852 0.0
C491 C 0.27294 0.99897 0.5008 0.0
H492 H 0.27458 0.08237 0.48505 0.0
C493 C 0.27672 0.03821 0.49925 0.0
C494 C 0.27177 0.05211 0.48572 0.0
H495 H 0.28239 0.05769 0.50856 0.0
H496 H 0.13344 0.99882 0.4198 0.0
H497 H 0.18397 0.99984 0.43832 0.0
H498 H 0.22767 0.12876 0.44735 0.0
H499 H 0.17619 0.12752 0.42868 0.0
H500 H 0.23804 0.0846 0.46602 0.0
H501 H 0.24794 0.01724 0.45025 0.0
H502 H 0.25377 0.96809 0.46582 0.0
H503 H 0.2626 0.94406 0.48943 0.0
C504 C 0.10268 0.12216 0.78495 0.0
C505 C 0.10035 0.1362 0.77108 0.0
C506 C 0.12214 0.15047 0.79632 0.0
C507 C 0.13931 0.19329 0.79401 0.0
C508 C 0.13635 0.20707 0.7802 0.0
C509 C 0.1175 0.17895 0.76883 0.0
C510 C 0.15867 0.22437 0.80578 0.0
C511 C 0.18062 0.22046 0.81725 0.0
C512 C 0.20008 0.25151 0.82914 0.0
C513 C 0.2117 0.23966 0.84213 0.0
C514 C 0.22853 0.26716 0.85377 0.0
C515 C 0.23457 0.30735 0.85263 0.0
H516 H 0.20025 0.30352 0.81805 0.0
C517 C 0.22371 0.31957 0.83958 0.0
C518 C 0.2072 0.29224 0.82791 0.0
H519 H 0.22752 0.35021 0.83843 0.0
H520 H 0.08951 0.08936 0.78701 0.0
H521 H 0.12272 0.13861 0.80692 0.0
H522 H 0.14893 0.23982 0.77816 0.0
H523 H 0.11594 0.19076 0.7583 0.0
H524 H 0.15516 0.25164 0.8046 0.0
H525 H 0.1841 0.19302 0.81813 0.0
H526 H 0.20689 0.20867 0.8434 0.0
H527 H 0.23607 0.25678 0.86378 0.0
C528 C 0.88991 0.0084 0.70839 0.0
C529 C 0.92371 0.03908 0.71719 0.0
C530 C 0.86116 0.01731 0.70032 0.0
C531 C 0.86568 0.0571 0.70093 0.0
C532 C 0.89767 0.08686 0.71034 0.0
C533 C 0.92664 0.07811 0.71831 0.0
C534 C 0.83905 0.06925 0.6915 0.0
C535 C 0.82616 0.05402 0.6781 0.0
C536 C 0.80637 0.07079 0.66762 0.0
C537 C 0.81253 0.06737 0.6529 0.0
C538 C 0.79606 0.08407 0.64266 0.0
C539 C 0.77233 0.10397 0.64691 0.0
H540 H 0.77579 0.09267 0.68313 0.0
C541 C 0.76564 0.107 0.66163 0.0
C542 C 0.78225 0.09038 0.6719 0.0
H543 H 0.74743 0.12215 0.66519 0.0
H544 H 0.88642 0.97786 0.70743 0.0
H545 H 0.8358 0.99317 0.69352 0.0
H546 H 0.90144 0.11755 0.71114 0.0
H547 H 0.9519 0.10225 0.72515 0.0
H548 H 0.83479 0.09485 0.69508 0.0
H549 H 0.83454 0.0313 0.6741 0.0
H550 H 0.83088 0.05238 0.64931 0.0
H551 H 0.80192 0.08151 0.63138 0.0
C552 C 0.90989 0.89509 0.04784 0.0
C553 C 0.90289 0.92652 0.05341 0.0
C554 C 0.87981 0.86656 0.03782 0.0
C555 C 0.84173 0.86859 0.03318 0.0
C556 C 0.83402 0.89921 0.03908 0.0
C557 C 0.86409 0.92773 0.04915 0.0
C558 C 0.81216 0.84222 0.02123 0.0
C559 C 0.80788 0.80528 0.01757 0.0
C560 C 0.7845 0.78155 0.00431 0.0
C561 C 0.79245 0.74968 -0.00015 0.0
C562 C 0.77427 0.7285 0.98694 0.0
C563 C 0.74744 0.73853 0.97819 0.0
H564 H 0.74802 0.81395 0.99884 0.0
C565 C 0.73824 0.76945 0.9828 0.0
C566 C 0.75628 0.79058 0.99575 0.0
H567 H 0.71747 0.77766 0.97629 0.0
H568 H 0.9395 0.89332 0.05085 0.0
H569 H 0.88792 0.84437 0.03328 0.0
H570 H 0.80517 0.9017 0.03562 0.0
H571 H 0.85773 0.9516 0.05319 0.0
H572 H 0.79503 0.855 0.01502 0.0
H573 H 0.82433 0.79255 0.0242 0.0
H574 H 0.8138 0.74181 0.00621 0.0
H575 H 0.7819 0.70478 0.98364 0.0
C576 C 0.97985 0.8843 0.37514 0.0
C577 C 0.99312 0.92519 0.37089 0.0
C578 C 0.97346 0.85422 0.36498 0.0
C579 C 0.97969 0.86416 0.35024 0.0
C580 C 0.99283 0.90503 0.346 0.0
C581 C 0.99938 0.93524 0.35619 0.0
C582 C 0.97493 0.83336 0.33915 0.0
C583 C 0.95057 0.79182 0.34111 0.0
C584 C 0.94664 0.7607 0.33031 0.0
C585 C 0.91012 0.71986 0.33124 0.0
C586 C 0.90546 0.68933 0.32153 0.0
C587 C 0.93767 0.69877 0.31078 0.0
H588 H 0.00834 0.8009 0.31867 0.0
C589 C 0.97437 0.73959 0.30984 0.0
C590 C 0.97901 0.77019 0.31954 0.0
H591 H -0.00048 0.74778 0.30158 0.0
H592 H 0.97525 0.87561 0.38639 0.0
H593 H 0.96491 0.82364 0.36884 0.0
H594 H 0.99828 0.91371 0.33475 0.0
H595 H 0.00984 0.96652 0.35257 0.0
H596 H 0.99103 0.84561 0.32888 0.0
H597 H 0.93107 0.77961 0.35085 0.0
H598 H 0.88484 0.71155 0.33947 0.0
H599 H 0.87658 0.65827 0.32241 0.0
C600 C 0.11243 0.97997 0.70672 0.0
C601 C 0.11951 0.01706 0.71309 0.0
C602 C 0.14615 0.97955 0.69851 0.0
C603 C 0.1877 0.01632 0.69648 0.0
C604 C 0.19477 0.05327 0.70289 0.0
C605 C 0.161 0.05375 0.71103 0.0
C606 C 0.22538 0.01688 0.68855 0.0
C607 C 0.2194 0.98947 0.6781 0.0
C608 C 0.25724 0.98797 0.67098 0.0
C609 C 0.24854 0.95075 0.66432 0.0
C610 C 0.28357 0.94695 0.65835 0.0
C611 C 0.32807 0.98046 0.65884 0.0
H612 H 0.30967 0.05193 0.67533 0.0
C613 C 0.3366 0.01824 0.66497 0.0
C614 C 0.30157 0.02212 0.67087 0.0
H615 H 0.37054 0.04469 0.66536 0.0
H616 H 0.08093 0.95112 0.70814 0.0
H617 H 0.13987 0.95015 0.69414 0.0
H618 H 0.22659 0.08193 0.70161 0.0
H619 H 0.16765 0.08287 0.7158 0.0
H620 H 0.25914 0.04072 0.69167 0.0
H621 H 0.18543 0.96588 0.675 0.0
H622 H 0.21471 0.92408 0.66409 0.0
H623 H 0.27609 0.91752 0.65364 0.0
C624 C 0.08919 0.13639 0.04206 0.0
C625 C 0.10367 0.11642 0.05182 0.0
C626 C 0.11953 0.16639 0.03262 0.0
C627 C 0.1652 0.17747 0.03283 0.0
C628 C 0.1801 0.15851 0.04285 0.0
C629 C 0.14946 0.12775 0.05215 0.0
C630 C 0.19758 0.20955 0.02289 0.0
C631 C 0.18627 0.21174 0.00915 0.0
C632 C 0.21614 0.2452 -0.00084 0.0
C633 C 0.21327 0.2365 0.98441 0.0
C634 C 0.23824 0.26815 0.97457 0.0
C635 C 0.266 0.30934 0.97926 0.0
H636 H 0.24618 0.29415 0.01521 0.0
C637 C 0.26864 0.31811 0.99406 0.0
C638 C 0.24432 0.28626 0.00393 0.0
H639 H 0.2888 0.34964 0.99803 0.0
H640 H 0.05416 0.12841 0.04154 0.0
H641 H 0.10729 0.18126 0.02525 0.0
H642 H 0.21528 0.16695 0.0433 0.0
H643 H 0.1616 0.11306 0.05963 0.0
H644 H 0.23144 0.23088 0.02683 0.0
H645 H 0.15394 0.18761 0.00494 0.0
H646 H 0.19129 0.20518 0.98047 0.0
H647 H 0.23503 0.26068 0.96321 0.0
C648 C 0.04451 0.12953 0.35226 0.0
C649 C 0.06956 0.1507 0.36456 0.0
C650 C 0.04138 0.15166 0.34053 0.0
C651 C 0.06349 0.19542 0.34085 0.0
C652 C 0.09063 0.21654 0.35278 0.0
C653 C 0.09332 0.19444 0.36458 0.0
C654 C 0.05782 0.21986 0.32918 0.0
C655 C 0.01882 0.20573 0.32186 0.0
C656 C 0.01068 0.23151 0.31154 0.0
C657 C 0.95268 0.21408 0.30678 0.0
C658 C 0.93861 0.24418 0.29483 0.0
C659 C 0.98639 0.29679 0.29057 0.0
H660 H 0.09155 0.28647 0.30628 0.0
C661 C 0.04653 0.31009 0.29166 0.0
C662 C 0.05709 0.27781 0.30375 0.0
H663 H 0.07371 0.33944 0.2878 0.0
H664 H 0.02605 0.09584 0.35189 0.0
H665 H 0.02125 0.13444 0.3313 0.0
H666 H 0.1084 0.25023 0.35323 0.0
H667 H 0.11322 0.21167 0.37385 0.0
H668 H 0.08476 0.25171 0.32766 0.0
H669 H 0.99034 0.17528 0.32428 0.0
H670 H 0.926 0.18554 0.3113 0.0
H671 H 0.90389 0.23598 0.29301 0.0
loop_
_geom_bond_atom_site_label_1
_geom_bond_atom_site_label_2
_geom_bond_distance
_geom_bond_site_symmetry_2
_ccdc_geom_bond_type
O0 Cd1 2.223 1_455 S
O0 C8 1.315 . S
Cd1 O0 2.223 1_655 S
Cd1 O4 2.297 . S
Cd1 O5 2.439 1_655 S
Cd1 O11 2.240 1_545 S
Cd2 O3 2.240 1_565 S
Cd2 O10 2.223 . S
Cd2 O12 2.297 . S
Cd2 O13 2.439 . S
O3 Cd2 2.240 1_545 S
O3 C8 1.279 . S
O4 Cd1 2.297 . S
O4 C6 1.247 1_655 S
O5 Cd1 2.439 1_455 S
O5 C6 1.208 . S
C6 O4 1.247 1_455 S
C6 O5 1.208 . S
C7 O12 1.247 . S
C7 O13 1.208 . S
C8 O0 1.315 . S
C8 O3 1.279 . S
C9 O10 1.315 1_655 S
C9 O11 1.279 . S
O10 Cd2 2.223 . S
O10 C9 1.315 1_455 S
O11 Cd1 2.240 1_565 S
O11 C9 1.279 . S
O12 Cd2 2.297 . S
O12 C7 1.247 . S
O13 Cd2 2.439 . S
O13 C7 1.208 . S
O14 Cd15 2.223 . S
O14 C22 1.315 1_455 S
Cd15 O14 2.223 . S
Cd15 O18 2.297 . S
Cd15 O19 2.439 . S
Cd15 O25 2.240 . S
Cd16 O17 2.240 1_565 S
Cd16 O24 2.223 1_655 S
Cd16 O26 2.297 1_655 S
Cd16 O27 2.439 1_655 S
O17 Cd16 2.240 1_545 S
O17 C22 1.279 . S
O18 Cd15 2.297 . S
O18 C20 1.247 . S
O19 Cd15 2.439 . S
O19 C20 1.208 . S
C20 O18 1.247 . S
C20 O19 1.208 . S
C21 O26 1.247 . S
C21 O27 1.208 . S
C22 O14 1.315 1_655 S
C22 O17 1.279 . S
C23 O24 1.315 1_545 S
C23 O25 1.279 . S
O24 Cd16 2.223 1_455 S
O24 C23 1.315 1_565 S
O25 Cd15 2.240 . S
O25 C23 1.279 . S
O26 Cd16 2.297 1_455 S
O26 C21 1.247 . S
O27 Cd16 2.439 1_455 S
O27 C21 1.208 . S
O28 Cd29 2.223 . S
O28 C36 1.315 1_565 S
Cd29 O28 2.223 . S
Cd29 O32 2.297 . S
Cd29 O33 2.439 . S
Cd29 O39 2.240 1_665 S
Cd30 O31 2.240 1_455 S
Cd30 O38 2.223 . S
Cd30 O40 2.297 . S
Cd30 O41 2.439 . S
O31 Cd30 2.240 1_655 S
O31 C36 1.279 . S
O32 Cd29 2.297 . S
O32 C34 1.247 . S
O33 Cd29 2.439 . S
O33 C34 1.208 . S
C34 O32 1.247 . S
C34 O33 1.208 . S
C35 O40 1.247 . S
C35 O41 1.208 . S
C36 O28 1.315 1_545 S
C36 O31 1.279 . S
C37 O38 1.315 . S
C37 O39 1.279 . S
O38 Cd30 2.223 . S
O38 C37 1.315 . S
O39 Cd29 2.240 1_445 S
O39 C37 1.279 . S
O40 Cd30 2.297 . S
O40 C35 1.247 . S
O41 Cd30 2.439 . S
O41 C35 1.208 . S
C42 C43 1.560 . S
C42 H103 0.959 . S
C42 H104 0.959 . S
C42 H105 0.960 . S
C43 C42 1.560 . S
C43 O98 1.426 . S
C43 H102 0.980 1_655 S
C44 C45 1.407 1_655 S
C44 C49 1.418 . S
C44 O98 1.334 . S
C45 C44 1.407 1_455 S
C45 C46 1.360 . S
C45 H106 0.929 . S
C46 C45 1.360 . S
C46 C47 1.401 . S
C46 C50 1.527 . S
C47 C46 1.401 . S
C47 C48 1.405 1_455 S
C47 C80 1.587 . S
C48 C47 1.405 1_655 S
C48 C49 1.332 . S
C48 C51 1.496 . S
C49 C44 1.418 . S
C49 C48 1.332 . S
C49 H107 0.929 . S
C50 C46 1.527 . S
C50 H108 0.959 . S
C50 H109 0.961 . S
C50 H110 0.961 . S
C51 C48 1.496 . S
C51 H111 0.960 . S
C51 H112 0.960 . S
C51 H113 0.961 . S
C52 C53 1.517 . S
C52 H115 0.961 . S
C52 H116 0.960 . S
C52 H117 0.959 . S
C53 C52 1.517 . S
C53 O101 1.468 . S
C53 H114 0.980 . S
C54 C55 1.349 . S
C54 C59 1.367 . S
C54 O101 1.408 . S
C55 C54 1.349 . S
C55 C56 1.407 . S
C55 H118 0.930 . S
C56 C55 1.407 . S
C56 C57 1.449 . S
C56 C60 1.535 1_455 S
C57 C56 1.449 . S
C57 C58 1.384 . S
C57 C82 1.553 . S
C58 C57 1.384 . S
C58 C59 1.364 . S
C58 C61 1.450 . S
C59 C54 1.367 . S
C59 C58 1.364 . S
C59 H119 0.931 . S
C60 C56 1.535 1_655 S
C60 H120 0.959 . S
C60 H121 0.961 . S
C60 H122 0.959 . S
C61 C58 1.450 . S
C61 H123 0.960 . S
C61 H124 0.960 . S
C61 H125 0.960 . S
C62 C63 1.309 . S
C62 C67 1.304 . S
C62 O100 1.435 . S
C63 C62 1.309 . S
C63 C64 1.476 . S
C63 H127 0.930 1_455 S
C64 C63 1.476 . S
C64 C65 1.400 . S
C64 C68 1.567 1_455 S
C65 C64 1.400 . S
C65 C66 1.373 . S
C65 C87 1.432 . S
C66 C65 1.373 . S
C66 C67 1.339 . S
C66 C69 1.530 . S
C67 C62 1.304 . S
C67 C66 1.339 . S
C67 H128 0.930 . S
C68 C64 1.567 1_655 S
C68 H129 0.961 . S
C68 H130 0.960 . S
C68 H131 0.958 . S
C69 C66 1.530 . S
C69 H132 0.961 . S
C69 H133 0.960 . S
C69 H134 0.960 . S
C70 C71 1.530 1_655 S
C70 H136 0.961 . S
C70 H137 0.961 . S
C70 H138 0.959 . S
C71 C70 1.530 1_455 S
C71 O99 1.412 1_455 S
C71 H135 0.980 . S
C72 C73 1.288 . S
C72 C77 1.377 1_655 S
C72 O99 1.393 . S
C73 C72 1.288 . S
C73 C74 1.369 . S
C73 H139 0.932 . S
C74 C73 1.369 . S
C74 C75 1.398 1_655 S
C74 C78 1.527 . S
C75 C74 1.398 1_455 S
C75 C76 1.380 . S
C75 C89 1.497 . S
C76 C75 1.380 . S
C76 C77 1.383 . S
C76 C79 1.603 . S
C77 C72 1.377 1_455 S
C77 C76 1.383 . S
C77 H140 0.929 . S
C78 C74 1.527 . S
C78 H141 0.961 . S
C78 H142 0.959 . S
C78 H143 0.959 . S
C79 C76 1.603 . S
C79 H144 0.960 . S
C79 H145 0.962 . S
C79 H146 0.961 . S
C80 C47 1.587 . S
C80 C81 1.360 . S
C80 C93 1.412 . S
C81 C80 1.360 . S
C81 C82 1.365 . S
C81 H147 0.929 . S
C82 C57 1.553 . S
C82 C81 1.365 . S
C82 C83 1.404 . S
C83 C82 1.404 . S
C83 C84 1.395 . S
C83 C94 1.451 . S
C84 C83 1.395 . S
C84 C85 1.322 . S
C84 H148 0.930 . S
C85 C84 1.322 . S
C85 C86 1.459 . S
C85 H149 0.929 . S
C86 C85 1.459 . S
C86 C87 1.445 . S
C86 C95 1.395 . S
C87 C65 1.432 . S
C87 C86 1.445 . S
C87 C88 1.370 . S
C88 C87 1.370 . S
C88 C89 1.438 . S
C88 H150 0.930 . S
C89 C75 1.497 . S
C89 C88 1.438 . S
C89 C90 1.360 . S
C90 C89 1.360 . S
C90 C91 1.401 . S
C90 C95 1.446 . S
C91 C90 1.401 . S
C91 C92 1.347 . S
C91 H151 0.929 . S
C92 C91 1.347 . S
C92 C93 1.455 . S
C92 H152 0.930 . S
C93 C80 1.412 . S
C93 C92 1.455 . S
C93 C94 1.331 . S
C94 C83 1.451 . S
C94 C93 1.331 . S
C94 C95 1.497 . S
C95 C86 1.395 . S
C95 C90 1.446 . S
C95 C94 1.497 . S
C96 C97 1.582 . S
C96 H153 0.962 . S
C96 H154 0.959 . S
C96 H155 0.958 . S
C97 C96 1.582 . S
C97 O100 1.458 . S
C97 H126 0.980 . S
O98 C43 1.426 . S
O98 C44 1.334 . S
O99 C71 1.412 1_655 S
O99 C72 1.393 . S
O100 C62 1.435 . S
O100 C97 1.458 . S
O101 C53 1.468 . S
O101 C54 1.408 . S
H102 C43 0.980 1_455 S
H103 C42 0.959 . S
H104 C42 0.959 . S
H105 C42 0.960 . S
H106 C45 0.929 . S
H107 C49 0.929 . S
H108 C50 0.959 . S
H109 C50 0.961 . S
H110 C50 0.961 . S
H111 C51 0.960 . S
H112 C51 0.960 . S
H113 C51 0.961 . S
H114 C53 0.980 . S
H115 C52 0.961 . S
H116 C52 0.960 . S
H117 C52 0.959 . S
H118 C55 0.930 . S
H119 C59 0.931 . S
H120 C60 0.959 . S
H121 C60 0.961 . S
H122 C60 0.959 . S
H123 C61 0.960 . S
H124 C61 0.960 . S
H125 C61 0.960 . S
H126 C97 0.980 . S
H127 C63 0.930 1_655 S
H128 C67 0.930 . S
H129 C68 0.961 . S
H130 C68 0.960 . S
H131 C68 0.958 . S
H132 C69 0.961 . S
H133 C69 0.960 . S
H134 C69 0.960 . S
H135 C71 0.980 . S
H136 C70 0.961 . S
H137 C70 0.961 . S
H138 C70 0.959 . S
H139 C73 0.932 . S
H140 C77 0.929 . S
H141 C78 0.961 . S
H142 C78 0.959 . S
H143 C78 0.959 . S
H144 C79 0.960 . S
H145 C79 0.962 . S
H146 C79 0.961 . S
H147 C81 0.929 . S
H148 C84 0.930 . S
H149 C85 0.929 . S
H150 C88 0.930 . S
H151 C91 0.929 . S
H152 C92 0.930 . S
H153 C96 0.962 . S
H154 C96 0.959 . S
H155 C96 0.958 . S
C156 C157 1.560 1_565 S
C156 H217 0.959 . S
C156 H218 0.959 . S
C156 H219 0.960 . S
C157 C156 1.560 1_545 S
C157 O212 1.426 1_545 S
C157 H216 0.980 . S
C158 C159 1.407 . S
C158 C163 1.418 1_545 S
C158 O212 1.334 1_545 S
C159 C158 1.407 . S
C159 C160 1.360 . S
C159 H220 0.929 . S
C160 C159 1.360 . S
C160 C161 1.401 . S
C160 C164 1.527 . S
C161 C160 1.401 . S
C161 C162 1.405 1_545 S
C161 C194 1.587 . S
C162 C161 1.405 1_565 S
C162 C163 1.332 . S
C162 C165 1.496 . S
C163 C158 1.418 1_565 S
C163 C162 1.332 . S
C163 H221 0.929 . S
C164 C160 1.527 . S
C164 H222 0.959 . S
C164 H223 0.961 . S
C164 H224 0.961 . S
C165 C162 1.496 . S
C165 H225 0.960 . S
C165 H226 0.960 . S
C165 H227 0.961 . S
C166 C167 1.517 . S
C166 H229 0.961 . S
C166 H230 0.960 . S
C166 H231 0.959 . S
C167 C166 1.517 . S
C167 O215 1.468 . S
C167 H228 0.980 . S
C168 C169 1.349 . S
C168 C173 1.367 . S
C168 O215 1.408 . S
C169 C168 1.349 . S
C169 C170 1.407 . S
C169 H232 0.930 . S
C170 C169 1.407 . S
C170 C171 1.449 . S
C170 C174 1.535 1_545 S
C171 C170 1.449 . S
C171 C172 1.384 . S
C171 C196 1.553 . S
C172 C171 1.384 . S
C172 C173 1.364 . S
C172 C175 1.450 . S
C173 C168 1.367 . S
C173 C172 1.364 . S
C173 H233 0.931 . S
C174 C170 1.535 1_565 S
C174 H234 0.959 . S
C174 H235 0.961 . S
C174 H236 0.959 . S
C175 C172 1.450 . S
C175 H237 0.960 . S
C175 H238 0.960 . S
C175 H239 0.960 . S
C176 C177 1.309 . S
C176 C181 1.304 . S
C176 O214 1.435 . S
C177 C176 1.309 . S
C177 C178 1.476 . S
C177 H241 0.930 . S
C178 C177 1.476 . S
C178 C179 1.400 . S
C178 C182 1.567 1_545 S
C179 C178 1.400 . S
C179 C180 1.373 . S
C179 C201 1.432 . S
C180 C179 1.373 . S
C180 C181 1.339 . S
C180 C183 1.530 . S
C181 C176 1.304 . S
C181 C180 1.339 . S
C181 H242 0.930 . S
C182 C178 1.567 1_565 S
C182 H243 0.961 . S
C182 H244 0.960 . S
C182 H245 0.958 . S
C183 C180 1.530 . S
C183 H246 0.961 . S
C183 H247 0.960 . S
C183 H248 0.960 . S
C184 C185 1.530 1_565 S
C184 H250 0.961 1_565 S
C184 H251 0.961 . S
C184 H252 0.959 . S
C185 C184 1.530 1_545 S
C185 O213 1.412 1_545 S
C185 H249 0.980 . S
C186 C187 1.288 1_545 S
C186 C191 1.377 . S
C186 O213 1.393 1_545 S
C187 C186 1.288 1_565 S
C187 C188 1.369 . S
C187 H253 0.932 . S
C188 C187 1.369 . S
C188 C189 1.398 1_565 S
C188 C192 1.527 . S
C189 C188 1.398 1_545 S
C189 C190 1.380 . S
C189 C203 1.497 . S
C190 C189 1.380 . S
C190 C191 1.383 . S
C190 C193 1.603 . S
C191 C186 1.377 . S
C191 C190 1.383 . S
C191 H254 0.929 . S
C192 C188 1.527 . S
C192 H255 0.961 . S
C192 H256 0.959 . S
C192 H257 0.959 . S
C193 C190 1.603 . S
C193 H258 0.960 . S
C193 H259 0.962 . S
C193 H260 0.961 . S
C194 C161 1.587 . S
C194 C195 1.360 . S
C194 C207 1.412 . S
C195 C194 1.360 . S
C195 C196 1.365 . S
C195 H261 0.929 . S
C196 C171 1.553 . S
C196 C195 1.365 . S
C196 C197 1.404 . S
C197 C196 1.404 . S
C197 C198 1.395 . S
C197 C208 1.451 . S
C198 C197 1.395 . S
C198 C199 1.322 . S
C198 H262 0.930 . S
C199 C198 1.322 . S
C199 C200 1.459 . S
C199 H263 0.929 . S
C200 C199 1.459 . S
C200 C201 1.445 . S
C200 C209 1.395 . S
C201 C179 1.432 . S
C201 C200 1.445 . S
C201 C202 1.370 . S
C202 C201 1.370 . S
C202 C203 1.438 . S
C202 H264 0.930 . S
C203 C189 1.497 . S
C203 C202 1.438 . S
C203 C204 1.360 . S
C204 C203 1.360 . S
C204 C205 1.401 . S
C204 C209 1.446 . S
C205 C204 1.401 . S
C205 C206 1.347 . S
C205 H265 0.929 . S
C206 C205 1.347 . S
C206 C207 1.455 . S
C206 H266 0.930 . S
C207 C194 1.412 . S
C207 C206 1.455 . S
C207 C208 1.331 . S
C208 C197 1.451 . S
C208 C207 1.331 . S
C208 C209 1.497 . S
C209 C200 1.395 . S
C209 C204 1.446 . S
C209 C208 1.497 . S
C210 C211 1.582 . S
C210 H267 0.962 . S
C210 H268 0.959 . S
C210 H269 0.958 . S
C211 C210 1.582 . S
C211 O214 1.458 . S
C211 H240 0.980 . S
O212 C157 1.426 1_565 S
O212 C158 1.334 1_565 S
O213 C185 1.412 1_565 S
O213 C186 1.393 1_565 S
O214 C176 1.435 . S
O214 C211 1.458 . S
O215 C167 1.468 . S
O215 C168 1.408 . S
H216 C157 0.980 . S
H217 C156 0.959 . S
H218 C156 0.959 . S
H219 C156 0.960 . S
H220 C159 0.929 . S
H221 C163 0.929 . S
H222 C164 0.959 . S
H223 C164 0.961 . S
H224 C164 0.961 . S
H225 C165 0.960 . S
H226 C165 0.960 . S
H227 C165 0.961 . S
H228 C167 0.980 . S
H229 C166 0.961 . S
H230 C166 0.960 . S
H231 C166 0.959 . S
H232 C169 0.930 . S
H233 C173 0.931 . S
H234 C174 0.959 . S
H235 C174 0.961 . S
H236 C174 0.959 . S
H237 C175 0.960 . S
H238 C175 0.960 . S
H239 C175 0.960 . S
H240 C211 0.980 . S
H241 C177 0.930 . S
H242 C181 0.930 . S
H243 C182 0.961 . S
H244 C182 0.960 . S
H245 C182 0.958 . S
H246 C183 0.961 . S
H247 C183 0.960 . S
H248 C183 0.960 . S
H249 C185 0.980 . S
H250 C184 0.961 1_545 S
H251 C184 0.961 . S
H252 C184 0.959 . S
H253 C187 0.932 . S
H254 C191 0.929 . S
H255 C192 0.961 . S
H256 C192 0.959 . S
H257 C192 0.959 . S
H258 C193 0.960 . S
H259 C193 0.962 . S
H260 C193 0.961 . S
H261 C195 0.929 . S
H262 C198 0.930 . S
H263 C199 0.929 . S
H264 C202 0.930 . S
H265 C205 0.929 . S
H266 C206 0.930 . S
H267 C210 0.962 . S
H268 C210 0.959 . S
H269 C210 0.958 . S
C270 C271 1.560 . S
C270 H331 0.959 . S
C270 H332 0.959 . S
C270 H333 0.960 . S
C271 C270 1.560 . S
C271 O326 1.426 . S
C271 H330 0.980 . S
C272 C273 1.407 . S
C272 C277 1.418 . S
C272 O326 1.334 . S
C273 C272 1.407 . S
C273 C274 1.360 . S
C273 H334 0.929 . S
C274 C273 1.360 . S
C274 C275 1.401 . S
C274 C278 1.527 . S
C275 C274 1.401 . S
C275 C276 1.405 . S
C275 C308 1.587 . S
C276 C275 1.405 . S
C276 C277 1.332 . S
C276 C279 1.496 . S
C277 C272 1.418 . S
C277 C276 1.332 . S
C277 H335 0.929 . S
C278 C274 1.527 . S
C278 H336 0.959 . S
C278 H337 0.961 . S
C278 H338 0.961 . S
C279 C276 1.496 . S
C279 H339 0.960 . S
C279 H340 0.960 . S
C279 H341 0.961 . S
C280 C281 1.517 . S
C280 H343 0.961 . S
C280 H344 0.960 . S
C280 H345 0.959 . S
C281 C280 1.517 . S
C281 O329 1.468 . S
C281 H342 0.980 . S
C282 C283 1.349 . S
C282 C287 1.367 . S
C282 O329 1.408 . S
C283 C282 1.349 . S
C283 C284 1.407 . S
C283 H346 0.930 . S
C284 C283 1.407 . S
C284 C285 1.449 . S
C284 C288 1.535 . S
C285 C284 1.449 . S
C285 C286 1.384 . S
C285 C310 1.553 . S
C286 C285 1.384 . S
C286 C287 1.364 . S
C286 C289 1.450 . S
C287 C282 1.367 . S
C287 C286 1.364 . S
C287 H347 0.931 . S
C288 C284 1.535 . S
C288 H348 0.959 . S
C288 H349 0.961 . S
C288 H350 0.959 . S
C289 C286 1.450 . S
C289 H351 0.960 . S
C289 H352 0.960 . S
C289 H353 0.960 . S
C290 C291 1.309 . S
C290 C295 1.304 . S
C290 O328 1.435 . S
C291 C290 1.309 . S
C291 C292 1.476 . S
C291 H355 0.930 . S
C292 C291 1.476 . S
C292 C293 1.400 . S
C292 C296 1.567 . S
C293 C292 1.400 . S
C293 C294 1.373 . S
C293 C315 1.432 . S
C294 C293 1.373 . S
C294 C295 1.339 . S
C294 C297 1.530 . S
C295 C290 1.304 . S
C295 C294 1.339 . S
C295 H356 0.930 . S
C296 C292 1.567 . S
C296 H357 0.961 . S
C296 H358 0.960 . S
C296 H359 0.958 . S
C297 C294 1.530 . S
C297 H360 0.961 . S
C297 H361 0.960 . S
C297 H362 0.960 . S
C298 C299 1.530 . S
C298 H364 0.961 . S
C298 H365 0.961 . S
C298 H366 0.959 . S
C299 C298 1.530 . S
C299 O327 1.412 . S
C299 H363 0.980 . S
C300 C301 1.288 . S
C300 C305 1.377 . S
C300 O327 1.393 . S
C301 C300 1.288 . S
C301 C302 1.369 . S
C301 H367 0.932 . S
C302 C301 1.369 . S
C302 C303 1.398 . S
C302 C306 1.527 . S
C303 C302 1.398 . S
C303 C304 1.380 . S
C303 C317 1.497 . S
C304 C303 1.380 . S
C304 C305 1.383 . S
C304 C307 1.603 . S
C305 C300 1.377 . S
C305 C304 1.383 . S
C305 H368 0.929 . S
C306 C302 1.527 . S
C306 H369 0.961 . S
C306 H370 0.959 . S
C306 H371 0.959 . S
C307 C304 1.603 . S
C307 H372 0.960 . S
C307 H373 0.962 . S
C307 H374 0.961 . S
C308 C275 1.587 . S
C308 C309 1.360 . S
C308 C321 1.412 . S
C309 C308 1.360 . S
C309 C310 1.365 . S
C309 H375 0.929 . S
C310 C285 1.553 . S
C310 C309 1.365 . S
C310 C311 1.404 . S
C311 C310 1.404 . S
C311 C312 1.395 . S
C311 C322 1.451 . S
C312 C311 1.395 . S
C312 C313 1.322 . S
C312 H376 0.930 . S
C313 C312 1.322 . S
C313 C314 1.459 . S
C313 H377 0.929 . S
C314 C313 1.459 . S
C314 C315 1.445 . S
C314 C323 1.395 . S
C315 C293 1.432 . S
C315 C314 1.445 . S
C315 C316 1.370 . S
C316 C315 1.370 . S
C316 C317 1.438 . S
C316 H378 0.930 . S
C317 C303 1.497 . S
C317 C316 1.438 . S
C317 C318 1.360 . S
C318 C317 1.360 . S
C318 C319 1.401 . S
C318 C323 1.446 . S
C319 C318 1.401 . S
C319 C320 1.347 . S
C319 H379 0.929 . S
C320 C319 1.347 . S
C320 C321 1.455 . S
C320 H380 0.930 . S
C321 C308 1.412 . S
C321 C320 1.455 . S
C321 C322 1.331 . S
C322 C311 1.451 . S
C322 C321 1.331 . S
C322 C323 1.497 . S
C323 C314 1.395 . S
C323 C318 1.446 . S
C323 C322 1.497 . S
C324 C325 1.582 . S
C324 H381 0.962 . S
C324 H382 0.959 . S
C324 H383 0.958 . S
C325 C324 1.582 . S
C325 O328 1.458 . S
C325 H354 0.980 . S
O326 C271 1.426 . S
O326 C272 1.334 . S
O327 C299 1.412 . S
O327 C300 1.393 . S
O328 C290 1.435 . S
O328 C325 1.458 . S
O329 C281 1.468 . S
O329 C282 1.408 . S
H330 C271 0.980 . S
H331 C270 0.959 . S
H332 C270 0.959 . S
H333 C270 0.960 . S
H334 C273 0.929 . S
H335 C277 0.929 . S
H336 C278 0.959 . S
H337 C278 0.961 . S
H338 C278 0.961 . S
H339 C279 0.960 . S
H340 C279 0.960 . S
H341 C279 0.961 . S
H342 C281 0.980 . S
H343 C280 0.961 . S
H344 C280 0.960 . S
H345 C280 0.959 . S
H346 C283 0.930 . S
H347 C287 0.931 . S
H348 C288 0.959 . S
H349 C288 0.961 . S
H350 C288 0.959 . S
H351 C289 0.960 . S
H352 C289 0.960 . S
H353 C289 0.960 . S
H354 C325 0.980 . S
H355 C291 0.930 . S
H356 C295 0.930 . S
H357 C296 0.961 . S
H358 C296 0.960 . S
H359 C296 0.958 . S
H360 C297 0.961 . S
H361 C297 0.960 . S
H362 C297 0.960 . S
H363 C299 0.980 . S
H364 C298 0.961 . S
H365 C298 0.961 . S
H366 C298 0.959 . S
H367 C301 0.932 . S
H368 C305 0.929 . S
H369 C306 0.961 . S
H370 C306 0.959 . S
H371 C306 0.959 . S
H372 C307 0.960 . S
H373 C307 0.962 . S
H374 C307 0.961 . S
H375 C309 0.929 . S
H376 C312 0.930 . S
H377 C313 0.929 . S
H378 C316 0.930 . S
H379 C319 0.929 . S
H380 C320 0.930 . S
H381 C324 0.962 . S
H382 C324 0.959 . S
H383 C324 0.958 . S
C384 C385 1.386 1_655 S
C384 C386 1.383 . S
C384 H400 0.951 . S
C385 C384 1.386 1_455 S
C385 C389 1.383 . S
C386 C384 1.383 . S
C386 C387 1.402 . S
C386 H401 0.951 . S
C387 C386 1.402 . S
C387 C388 1.375 1_655 S
C387 C390 1.481 . S
C388 C387 1.375 1_455 S
C388 C389 1.367 . S
C388 H402 0.951 . S
C389 C385 1.383 . S
C389 C388 1.367 . S
C389 H403 0.950 . S
C390 C387 1.481 . S
C390 C391 1.297 . S
C390 H404 0.950 1_655 S
C391 C390 1.297 . S
C391 C392 1.479 . S
C391 H405 0.950 . S
C392 C391 1.479 . S
C392 C393 1.375 . S
C392 C398 1.404 . S
C393 C392 1.375 . S
C393 C394 1.369 . S
C393 H406 0.950 . S
C394 C393 1.369 . S
C394 C395 1.392 . S
C394 H407 0.951 . S
C395 C394 1.392 . S
C395 C397 1.384 . S
H396 C398 0.949 . S
C397 C395 1.384 . S
C397 C398 1.385 . S
C397 H399 0.950 1_655 S
C398 C392 1.404 . S
C398 H396 0.949 . S
C398 C397 1.385 . S
H399 C397 0.950 1_455 S
H400 C384 0.951 . S
H401 C386 0.951 . S
H402 C388 0.951 . S
H403 C389 0.950 . S
H404 C390 0.950 1_455 S
H405 C391 0.950 . S
H406 C393 0.950 . S
H407 C394 0.951 . S
C408 C409 1.386 . S
C408 C410 1.383 . S
C408 H424 0.951 . S
C409 C408 1.386 . S
C409 C413 1.383 . S
C410 C408 1.383 . S
C410 C411 1.402 . S
C410 H425 0.951 . S
C411 C410 1.402 . S
C411 C412 1.375 . S
C411 C414 1.481 . S
C412 C411 1.375 . S
C412 C413 1.367 . S
C412 H426 0.951 1_545 S
C413 C409 1.383 . S
C413 C412 1.367 . S
C413 H427 0.950 1_545 S
C414 C411 1.481 . S
C414 C415 1.297 . S
C414 H428 0.950 1_545 S
C415 C414 1.297 . S
C415 C416 1.479 . S
C415 H429 0.950 . S
C416 C415 1.479 . S
C416 C417 1.375 . S
C416 C422 1.404 1_545 S
C417 C416 1.375 . S
C417 C418 1.369 . S
C417 H430 0.950 . S
C418 C417 1.369 . S
C418 C419 1.392 . S
C418 H431 0.951 . S
C419 C418 1.392 . S
C419 C421 1.384 1_545 S
H420 C422 0.949 . S
C421 C419 1.384 1_565 S
C421 C422 1.385 . S
C421 H423 0.950 . S
C422 C416 1.404 1_565 S
C422 H420 0.949 . S
C422 C421 1.385 . S
H423 C421 0.950 . S
H424 C408 0.951 . S
H425 C410 0.951 . S
H426 C412 0.951 1_565 S
H427 C413 0.950 1_565 S
H428 C414 0.950 1_565 S
H429 C415 0.950 . S
H430 C417 0.950 . S
H431 C418 0.951 . S
C432 C433 1.386 . S
C432 C434 1.383 . S
C432 H448 0.951 . S
C433 C432 1.386 . S
C433 C437 1.383 . S
C434 C432 1.383 . S
C434 C435 1.402 . S
C434 H449 0.951 . S
C435 C434 1.402 . S
C435 C436 1.375 . S
C435 C438 1.481 . S
C436 C435 1.375 . S
C436 C437 1.367 . S
C436 H450 0.951 . S
C437 C433 1.383 . S
C437 C436 1.367 . S
C437 H451 0.950 . S
C438 C435 1.481 . S
C438 C439 1.297 . S
C438 H452 0.950 . S
C439 C438 1.297 . S
C439 C440 1.479 . S
C439 H453 0.950 . S
C440 C439 1.479 . S
C440 C441 1.375 . S
C440 C446 1.404 . S
C441 C440 1.375 . S
C441 C442 1.369 . S
C441 H454 0.950 . S
C442 C441 1.369 . S
C442 C443 1.392 . S
C442 H455 0.951 . S
C443 C442 1.392 . S
C443 C445 1.384 . S
H444 C446 0.949 . S
C445 C443 1.384 . S
C445 C446 1.385 . S
C445 H447 0.950 . S
C446 C440 1.404 . S
C446 H444 0.949 . S
C446 C445 1.385 . S
H447 C445 0.950 . S
H448 C432 0.951 . S
H449 C434 0.951 . S
H450 C436 0.951 . S
H451 C437 0.950 . S
H452 C438 0.950 . S
H453 C439 0.950 . S
H454 C441 0.950 . S
H455 C442 0.951 . S
C456 C457 1.386 . S
C456 C458 1.383 . S
C456 H472 0.951 . S
C457 C456 1.386 . S
C457 C461 1.383 1_455 S
C458 C456 1.383 . S
C458 C459 1.402 . S
C458 H473 0.951 . S
C459 C458 1.402 . S
C459 C460 1.375 1_455 S
C459 C462 1.481 . S
C460 C459 1.375 1_655 S
C460 C461 1.367 . S
C460 H474 0.951 . S
C461 C457 1.383 1_655 S
C461 C460 1.367 . S
C461 H475 0.950 . S
C462 C459 1.481 . S
C462 C463 1.297 . S
C462 H476 0.950 1_455 S
C463 C462 1.297 . S
C463 C464 1.479 . S
C463 H477 0.950 . S
C464 C463 1.479 . S
C464 C465 1.375 . S
C464 C470 1.404 . S
C465 C464 1.375 . S
C465 C466 1.369 . S
C465 H478 0.950 . S
C466 C465 1.369 . S
C466 C467 1.392 . S
C466 H479 0.951 . S
C467 C466 1.392 . S
C467 C469 1.384 . S
H468 C470 0.949 1_655 S
C469 C467 1.384 . S
C469 C470 1.385 . S
C469 H471 0.950 1_455 S
C470 C464 1.404 . S
C470 H468 0.949 1_455 S
C470 C469 1.385 . S
H471 C469 0.950 1_655 S
H472 C456 0.951 . S
H473 C458 0.951 . S
H474 C460 0.951 . S
H475 C461 0.950 . S
H476 C462 0.950 1_655 S
H477 C463 0.950 . S
H478 C465 0.950 . S
H479 C466 0.951 . S
C480 C481 1.386 . S
C480 C482 1.383 . S
C480 H496 0.951 1_545 S
C481 C480 1.386 . S
C481 C485 1.383 . S
C482 C480 1.383 . S
C482 C483 1.402 . S
C482 H497 0.951 1_545 S
C483 C482 1.402 . S
C483 C484 1.375 . S
C483 C486 1.481 . S
C484 C483 1.375 . S
C484 C485 1.367 . S
C484 H498 0.951 . S
C485 C481 1.383 . S
C485 C484 1.367 . S
C485 H499 0.950 . S
C486 C483 1.481 . S
C486 C487 1.297 . S
C486 H500 0.950 . S
C487 C486 1.297 . S
C487 C488 1.479 . S
C487 H501 0.950 . S
C488 C487 1.479 . S
C488 C489 1.375 . S
C488 C494 1.404 . S
C489 C488 1.375 . S
C489 C490 1.369 . S
C489 H502 0.950 1_545 S
C490 C489 1.369 . S
C490 C491 1.392 . S
C490 H503 0.951 1_545 S
C491 C490 1.392 . S
C491 C493 1.384 . S
H492 C494 0.949 . S
C493 C491 1.384 . S
C493 C494 1.385 . S
C493 H495 0.950 . S
C494 C488 1.404 . S
C494 H492 0.949 . S
C494 C493 1.385 . S
H495 C493 0.950 . S
H496 C480 0.951 1_565 S
H497 C482 0.951 1_565 S
H498 C484 0.951 . S
H499 C485 0.950 . S
H500 C486 0.950 . S
H501 C487 0.950 . S
H502 C489 0.950 1_565 S
H503 C490 0.951 1_565 S
C504 C505 1.386 . S
C504 C506 1.383 . S
C504 H520 0.951 . S
C505 C504 1.386 . S
C505 C509 1.383 . S
C506 C504 1.383 . S
C506 C507 1.402 . S
C506 H521 0.951 . S
C507 C506 1.402 . S
C507 C508 1.375 . S
C507 C510 1.481 . S
C508 C507 1.375 . S
C508 C509 1.367 . S
C508 H522 0.951 . S
C509 C505 1.383 . S
C509 C508 1.367 . S
C509 H523 0.950 . S
C510 C507 1.481 . S
C510 C511 1.297 . S
C510 H524 0.950 . S
C511 C510 1.297 . S
C511 C512 1.479 . S
C511 H525 0.950 . S
C512 C511 1.479 . S
C512 C513 1.375 . S
C512 C518 1.404 . S
C513 C512 1.375 . S
C513 C514 1.369 . S
C513 H526 0.950 . S
C514 C513 1.369 . S
C514 C515 1.392 . S
C514 H527 0.951 . S
C515 C514 1.392 . S
C515 C517 1.384 . S
H516 C518 0.949 . S
C517 C515 1.384 . S
C517 C518 1.385 . S
C517 H519 0.950 . S
C518 C512 1.404 . S
C518 H516 0.949 . S
C518 C517 1.385 . S
H519 C517 0.950 . S
H520 C504 0.951 . S
H521 C506 0.951 . S
H522 C508 0.951 . S
H523 C509 0.950 . S
H524 C510 0.950 . S
H525 C511 0.950 . S
H526 C513 0.950 . S
H527 C514 0.951 . S
C528 C529 1.386 . S
C528 C530 1.383 . S
C528 H544 0.951 . S
C529 C528 1.386 . S
C529 C533 1.383 . S
C530 C528 1.383 . S
C530 C531 1.402 . S
C530 H545 0.951 . S
C531 C530 1.402 . S
C531 C532 1.375 . S
C531 C534 1.481 . S
C532 C531 1.375 . S
C532 C533 1.367 . S
C532 H546 0.951 . S
C533 C529 1.383 . S
C533 C532 1.367 . S
C533 H547 0.950 . S
C534 C531 1.481 . S
C534 C535 1.297 . S
C534 H548 0.950 . S
C535 C534 1.297 . S
C535 C536 1.479 . S
C535 H549 0.950 1_545 S
C536 C535 1.479 . S
C536 C537 1.375 . S
C536 C542 1.404 . S
C537 C536 1.375 . S
C537 C538 1.369 . S
C537 H550 0.950 . S
C538 C537 1.369 . S
C538 C539 1.392 . S
C538 H551 0.951 . S
C539 C538 1.392 . S
C539 C541 1.384 . S
H540 C542 0.949 . S
C541 C539 1.384 . S
C541 C542 1.385 . S
C541 H543 0.950 . S
C542 C536 1.404 . S
C542 H540 0.949 . S
C542 C541 1.385 . S
H543 C541 0.950 . S
H544 C528 0.951 . S
H545 C530 0.951 . S
H546 C532 0.951 . S
H547 C533 0.950 . S
H548 C534 0.950 . S
H549 C535 0.950 1_565 S
H550 C537 0.950 . S
H551 C538 0.951 . S
C552 C553 1.386 . S
C552 C554 1.383 . S
C552 H568 0.951 . S
C553 C552 1.386 . S
C553 C557 1.383 . S
C554 C552 1.383 . S
C554 C555 1.402 . S
C554 H569 0.951 . S
C555 C554 1.402 . S
C555 C556 1.375 . S
C555 C558 1.481 . S
C556 C555 1.375 . S
C556 C557 1.367 . S
C556 H570 0.951 . S
C557 C553 1.383 . S
C557 C556 1.367 . S
C557 H571 0.950 . S
C558 C555 1.481 . S
C558 C559 1.297 . S
C558 H572 0.950 . S
C559 C558 1.297 . S
C559 C560 1.479 . S
C559 H573 0.950 . S
C560 C559 1.479 . S
C560 C561 1.375 1_554 S
C560 C566 1.404 . S
C561 C560 1.375 1_556 S
C561 C562 1.369 . S
C561 H574 0.950 . S
C562 C561 1.369 . S
C562 C563 1.392 . S
C562 H575 0.951 . S
C563 C562 1.392 . S
C563 C565 1.384 . S
H564 C566 0.949 . S
C565 C563 1.384 . S
C565 C566 1.385 1_556 S
C565 H567 0.949 1_556 S
C566 C560 1.404 . S
C566 H564 0.949 . S
C566 C565 1.385 1_554 S
H567 C565 0.949 1_554 S
H568 C552 0.951 . S
H569 C554 0.951 . S
H570 C556 0.951 . S
H571 C557 0.950 . S
H572 C558 0.950 . S
H573 C559 0.950 . S
H574 C561 0.950 . S
H575 C562 0.951 . S
C576 C577 1.387 1_655 S
C576 C578 1.377 . S
C576 H592 0.955 . S
C577 C576 1.387 1_455 S
C577 C581 1.383 . S
C578 C576 1.377 . S
C578 C579 1.402 1_655 S
C578 H593 0.951 . S
C579 C578 1.402 1_455 S
C579 C580 1.375 . S
C579 C582 1.481 . S
C580 C579 1.375 . S
C580 C581 1.367 . S
C580 H594 0.951 . S
C581 C577 1.383 . S
C581 C580 1.367 . S
C581 H595 0.950 . S
C582 C579 1.481 . S
C582 C583 1.297 1_455 S
C582 H596 0.950 . S
C583 C582 1.297 1_655 S
C583 C584 1.479 . S
C583 H597 0.950 . S
C584 C583 1.479 . S
C584 C585 1.375 . S
C584 C590 1.404 1_655 S
C585 C584 1.375 . S
C585 C586 1.369 . S
C585 H598 0.950 . S
C586 C585 1.369 . S
C586 C587 1.396 . S
C586 H599 0.951 . S
C587 C586 1.396 . S
C587 C589 1.387 1_655 S
H588 C590 0.949 . S
C589 C587 1.387 1_455 S
C589 C590 1.385 . S
C589 H591 0.950 . S
C590 C584 1.404 1_455 S
C590 H588 0.949 . S
C590 C589 1.385 . S
H591 C589 0.950 . S
H592 C576 0.955 . S
H593 C578 0.951 . S
H594 C580 0.951 . S
H595 C581 0.950 . S
H596 C582 0.950 . S
H597 C583 0.950 . S
H598 C585 0.950 . S
H599 C586 0.951 . S
C600 C601 1.386 1_565 S
C600 C602 1.383 . S
C600 H616 0.951 . S
C601 C600 1.386 1_545 S
C601 C605 1.383 . S
C602 C600 1.383 . S
C602 C603 1.402 1_565 S
C602 H617 0.951 . S
C603 C602 1.402 1_545 S
C603 C604 1.375 . S
C603 C606 1.481 . S
C604 C603 1.375 . S
C604 C605 1.367 . S
C604 H618 0.951 . S
C605 C601 1.383 . S
C605 C604 1.367 . S
C605 H619 0.950 . S
C606 C603 1.481 . S
C606 C607 1.297 . S
C606 H620 0.950 . S
C607 C606 1.297 . S
C607 C608 1.479 . S
C607 H621 0.950 1_545 S
C608 C607 1.479 . S
C608 C609 1.375 1_545 S
C608 C614 1.404 . S
C609 C608 1.375 1_565 S
C609 C610 1.369 . S
C609 H622 0.950 . S
C610 C609 1.369 . S
C610 C611 1.392 1_565 S
C610 H623 0.951 . S
C611 C610 1.392 1_545 S
C611 C613 1.384 . S
H612 C614 0.949 . S
C613 C611 1.384 . S
C613 C614 1.385 . S
C613 H615 0.950 . S
C614 C608 1.404 . S
C614 H612 0.949 . S
C614 C613 1.385 . S
H615 C613 0.950 . S
H616 C600 0.951 . S
H617 C602 0.951 . S
H618 C604 0.951 . S
H619 C605 0.950 . S
H620 C606 0.950 . S
H621 C607 0.950 1_565 S
H622 C609 0.950 . S
H623 C610 0.951 . S
C624 C625 1.386 . S
C624 C626 1.383 . S
C624 H640 0.951 . S
C625 C624 1.386 . S
C625 C629 1.383 . S
C626 C624 1.383 . S
C626 C627 1.402 . S
C626 H641 0.951 . S
C627 C626 1.402 . S
C627 C628 1.375 . S
C627 C630 1.481 . S
C628 C627 1.375 . S
C628 C629 1.367 . S
C628 H642 0.951 . S
C629 C625 1.383 . S
C629 C628 1.367 . S
C629 H643 0.950 . S
C630 C627 1.481 . S
C630 C631 1.297 . S
C630 H644 0.950 . S
C631 C630 1.297 . S
C631 C632 1.446 1_554 S
C631 H645 0.950 . S
C632 C631 1.446 1_556 S
C632 C633 1.429 . S
C632 C638 1.390 1_556 S
C633 C632 1.429 . S
C633 C634 1.369 . S
C633 H646 0.950 . S
C634 C633 1.369 . S
C634 C635 1.392 . S
C634 H647 0.951 . S
C635 C634 1.392 . S
C635 C637 1.384 . S
H636 C638 0.949 . S
C637 C635 1.384 . S
C637 C638 1.385 1_556 S
C637 H639 0.950 . S
C638 C632 1.390 1_554 S
C638 H636 0.949 . S
C638 C637 1.385 1_554 S
H639 C637 0.950 . S
H640 C624 0.951 . S
H641 C626 0.951 . S
H642 C628 0.951 . S
H643 C629 0.950 . S
H644 C630 0.950 . S
H645 C631 0.950 . S
H646 C633 0.950 . S
H647 C634 0.951 . S
C648 C649 1.386 1_655 S
C648 C650 1.383 . S
C648 H664 0.951 . S
C649 C648 1.386 1_455 S
C649 C653 1.383 . S
C650 C648 1.383 . S
C650 C651 1.402 1_655 S
C650 H665 0.951 . S
C651 C650 1.402 1_455 S
C651 C652 1.375 . S
C651 C654 1.481 . S
C652 C651 1.375 . S
C652 C653 1.367 . S
C652 H666 0.951 . S
C653 C649 1.383 . S
C653 C652 1.367 . S
C653 H667 0.950 . S
C654 C651 1.481 . S
C654 C655 1.297 . S
C654 H668 0.950 . S
C655 C654 1.297 . S
C655 C656 1.479 . S
C655 H669 0.950 1_455 S
C656 C655 1.479 . S
C656 C657 1.375 1_455 S
C656 C662 1.404 . S
C657 C656 1.375 1_655 S
C657 C658 1.369 . S
C657 H670 0.950 . S
C658 C657 1.369 . S
C658 C659 1.392 1_655 S
C658 H671 0.951 . S
C659 C658 1.392 1_455 S
C659 C661 1.384 . S
H660 C662 0.949 . S
C661 C659 1.384 . S
C661 C662 1.385 . S
C661 H663 0.950 . S
C662 C656 1.404 . S
C662 H660 0.949 . S
C662 C661 1.385 . S
H663 C661 0.950 . S
H664 C648 0.951 . S
H665 C650 0.951 . S
H666 C652 0.951 . S
H667 C653 0.950 . S
H668 C654 0.950 . S
H669 C655 0.950 1_655 S
H670 C657 0.950 . S
H671 C658 0.951 . S
C395 C97 1.234 1_655 S
C385 C6 1.563 . S
C409 C22 1.680 . S
C419 C211 1.357 . S
C433 C34 1.094 . S
C443 C271 1.030 . S
C457 C7 1.411 . S
C467 C71 1.157 . S
C491 C185 1.320 . S
C481 C23 1.522 . S
C505 C35 1.224 . S
C515 C281 0.800 . S
C539 C167 1.069 . S
C529 C36 1.599 . S
C553 C9 1.753 . S
C563 C299 1.415 . S
C587 C43 1.033 . S
C577 C21 1.314 . S
C611 C157 1.162 . S
C601 C37 1.421 . S
C635 C325 1.412 . S
C625 C8 1.909 . S
C649 C20 1.448 . S
C659 C53 0.815 . S
