# Generated by pormake.
# Topology cml, (3,6)-cn, num edge types: 1
# Building blocks:
#     Node 0, Type 0, BuildingBlock: BELTOD_clean_linker_0, # of connection points: 3
#     Node 1, Type 0, BuildingBlock: BELTOD_clean_linker_0, # of connection points: 3
#     Node 2, Type 0, BuildingBlock: BELTOD_clean_linker_0, # of connection points: 3
#     Node 3, Type 0, BuildingBlock: BELTOD_clean_linker_0, # of connection points: 3
#     Node 4, Type 0, BuildingBlock: BELTOD_clean_linker_0, # of connection points: 3
#     Node 5, Type 0, BuildingBlock: BELTOD_clean_linker_0, # of connection points: 3
#     Node 6, Type 0, BuildingBlock: BELTOD_clean_linker_0, # of connection points: 3
#     Node 7, Type 0, BuildingBlock: BELTOD_clean_linker_0, # of connection points: 3
#     Node 8, Type 1, BuildingBlock: IZENUY_clean_sbu_0, # of connection points: 6
#     Node 9, Type 1, BuildingBlock: IZENUY_clean_sbu_0, # of connection points: 6
#     Node 10, Type 1, BuildingBlock: IZENUY_clean_sbu_0, # of connection points: 6
#     Node 11, Type 1, BuildingBlock: IZENUY_clean_sbu_0, # of connection points: 6
#     Edge 12, Type (0, 1), BuildingBlock: XIVTED_clean_linker_0, # of connection points: 2
#     Edge 13, Type (0, 1), BuildingBlock: XIVTED_clean_linker_0, # of connection points: 2
#     Edge 14, Type (0, 1), BuildingBlock: XIVTED_clean_linker_0, # of connection points: 2
#     Edge 15, Type (0, 1), BuildingBlock: XIVTED_clean_linker_0, # of connection points: 2
#     Edge 16, Type (0, 1), BuildingBlock: XIVTED_clean_linker_0, # of connection points: 2
#     Edge 17, Type (0, 1), BuildingBlock: XIVTED_clean_linker_0, # of connection points: 2
#     Edge 18, Type (0, 1), BuildingBlock: XIVTED_clean_linker_0, # of connection points: 2
#     Edge 19, Type (0, 1), BuildingBlock: XIVTED_clean_linker_0, # of connection points: 2
#     Edge 20, Type (0, 1), BuildingBlock: XIVTED_clean_linker_0, # of connection points: 2
#     Edge 21, Type (0, 1), BuildingBlock: XIVTED_clean_linker_0, # of connection points: 2
#     Edge 22, Type (0, 1), BuildingBlock: XIVTED_clean_linker_0, # of connection points: 2
#     Edge 23, Type (0, 1), BuildingBlock: XIVTED_clean_linker_0, # of connection points: 2
#     Edge 24, Type (0, 1), BuildingBlock: XIVTED_clean_linker_0, # of connection points: 2
#     Edge 25, Type (0, 1), BuildingBlock: XIVTED_clean_linker_0, # of connection points: 2
#     Edge 26, Type (0, 1), BuildingBlock: XIVTED_clean_linker_0, # of connection points: 2
#     Edge 27, Type (0, 1), BuildingBlock: XIVTED_clean_linker_0, # of connection points: 2
#     Edge 28, Type (0, 1), BuildingBlock: XIVTED_clean_linker_0, # of connection points: 2
#     Edge 29, Type (0, 1), BuildingBlock: XIVTED_clean_linker_0, # of connection points: 2
#     Edge 30, Type (0, 1), BuildingBlock: XIVTED_clean_linker_0, # of connection points: 2
#     Edge 31, Type (0, 1), BuildingBlock: XIVTED_clean_linker_0, # of connection points: 2
#     Edge 32, Type (0, 1), BuildingBlock: XIVTED_clean_linker_0, # of connection points: 2
#     Edge 33, Type (0, 1), BuildingBlock: XIVTED_clean_linker_0, # of connection points: 2
#     Edge 34, Type (0, 1), BuildingBlock: XIVTED_clean_linker_0, # of connection points: 2
#     Edge 35, Type (0, 1), BuildingBlock: XIVTED_clean_linker_0, # of connection points: 2
# Relax obj value: 0.049
# Max RMSD: 0.063
# Mean RMSD: 0.061
data_MOF--net-cml--node1-IZENUY_clean_sbu_0--node2-BELTOD_clean_linker_0--edge1-XIVTED_clean_linker_0
_symmetry_space_group_name_H-M    P1
_symmetry_Int_Tables_number       1
_symmetry_cell_setting            triclinic
loop_
_symmetry_equiv_pos_as_xyz
'x, y, z'
_cell_length_a     40.595294
_cell_length_b     47.065575
_cell_length_c     43.283731
_cell_angle_alpha  89.614064
_cell_angle_beta   89.660526
_cell_angle_gamma 89.897833
loop_
_atom_site_label
_atom_site_type_symbol
_atom_site_fract_x
_atom_site_fract_y
_atom_site_fract_z
_atom_type_partial_charge
P0 P 0.3327 0.3407 0.97747 0.0
H1 H 0.36342 0.30144 0.02118 0.0
H2 H 0.36853 0.3019 0.07727 0.0
H3 H 0.30656 0.37667 0.08116 0.0
H4 H 0.30266 0.3766 0.02487 0.0
H5 H 0.32086 0.30194 0.92639 0.0
H6 H 0.27087 0.28006 0.90646 0.0
H7 H 0.21336 0.32324 0.97626 0.0
H8 H 0.26354 0.34464 0.99634 0.0
H9 H 0.37875 0.38496 0.99335 0.0
H10 H 0.29363 0.37658 0.9349 0.0
O11 O 0.3656 0.32349 0.96377 0.0
H12 H 0.38487 0.43433 0.97695 0.0
H13 H 0.29921 0.42621 0.9188 0.0
C14 C 0.33321 0.33927 0.01893 0.0
C15 C 0.35081 0.31782 0.03414 0.0
C16 C 0.3534 0.31797 0.06629 0.0
C17 C 0.3381 0.33945 0.08377 0.0
C18 C 0.31913 0.36013 0.06839 0.0
C19 C 0.31674 0.36004 0.03623 0.0
C20 C 0.29594 0.32436 0.96326 0.0
C21 C 0.29753 0.30651 0.93754 0.0
C22 C 0.26889 0.29425 0.92598 0.0
C23 C 0.23819 0.29983 0.93989 0.0
C24 C 0.23672 0.31814 0.9654 0.0
C25 C 0.26538 0.33039 0.97691 0.0
C26 C 0.33572 0.3772 0.96549 0.0
C27 C 0.36118 0.39388 0.97721 0.0
C28 C 0.36444 0.42218 0.96803 0.0
C29 C 0.34232 0.43428 0.94678 0.0
C30 C 0.31669 0.41746 0.93512 0.0
C31 C 0.31343 0.38909 0.9444 0.0
P32 P 0.76057 0.58238 0.52468 0.0
H33 H 0.76152 0.52107 0.51405 0.0
H34 H 0.72609 0.48968 0.48435 0.0
H35 H 0.66684 0.56177 0.4567 0.0
H36 H 0.70279 0.59316 0.48619 0.0
H37 H 0.78819 0.63688 0.54235 0.0
H38 H 0.81365 0.67532 0.51271 0.0
H39 H 0.79055 0.63165 0.42793 0.0
H40 H 0.76691 0.5927 0.45785 0.0
H41 H 0.76182 0.56484 0.58954 0.0
H42 H 0.70749 0.62396 0.53284 0.0
O43 O 0.79376 0.5644 0.53635 0.0
H44 H 0.72837 0.57781 0.63422 0.0
H45 H 0.67282 0.63629 0.57719 0.0
C46 C 0.73489 0.55945 0.50212 0.0
C47 C 0.74106 0.53017 0.50145 0.0
C48 C 0.72069 0.51223 0.48456 0.0
C49 C 0.69369 0.52326 0.46814 0.0
C50 C 0.68771 0.55269 0.46876 0.0
C51 C 0.70805 0.5706 0.48579 0.0
C52 C 0.77493 0.61227 0.50233 0.0
C53 C 0.7882 0.63584 0.51736 0.0
C54 C 0.80264 0.65789 0.5003 0.0
C55 C 0.80409 0.65675 0.46781 0.0
C56 C 0.79025 0.63318 0.45288 0.0
C57 C 0.77622 0.61099 0.47 0.0
C58 C 0.7373 0.59362 0.55795 0.0
C59 C 0.74274 0.58073 0.58673 0.0
C60 C 0.72332 0.58799 0.61224 0.0
C61 C 0.69768 0.608 0.60936 0.0
C62 C 0.69258 0.62109 0.58042 0.0
C63 C 0.71223 0.61393 0.55495 0.0
P64 P 0.75641 0.40907 0.03294 0.0
H65 H 0.76705 0.39209 0.09739 0.0
H66 H 0.72944 0.37552 0.13803 0.0
H67 H 0.65031 0.37288 0.07175 0.0
H68 H 0.68792 0.38999 0.03147 0.0
H69 H 0.81726 0.41012 0.9972 0.0
H70 H 0.84544 0.37482 0.96546 0.0
H71 H 0.7657 0.3158 0.98206 0.0
H72 H 0.73801 0.35111 0.01431 0.0
H73 H 0.72412 0.46159 0.05027 0.0
H74 H 0.73514 0.41158 0.96776 0.0
O75 O 0.78585 0.42709 0.05105 0.0
H76 H 0.68939 0.49535 0.02232 0.0
H77 H 0.70123 0.44566 0.93931 0.0
C78 C 0.73003 0.3929 0.06165 0.0
C79 C 0.74167 0.3877 0.09159 0.0
C80 C 0.72019 0.378 0.11475 0.0
C81 C 0.68674 0.37325 0.10825 0.0
C82 C 0.67575 0.37691 0.07768 0.0
C83 C 0.69723 0.38661 0.0546 0.0
C84 C 0.77596 0.383 0.00867 0.0
C85 C 0.80589 0.38954 0.99405 0.0
C86 C 0.82183 0.36941 0.97565 0.0
C87 C 0.80795 0.34236 0.97132 0.0
C88 C 0.77737 0.33622 0.98535 0.0
C89 C 0.76145 0.35643 0.00376 0.0
C90 C 0.73246 0.43429 0.01105 0.0
C91 C 0.71938 0.45811 0.02599 0.0
C92 C 0.69966 0.47747 0.0099 0.0
C93 C 0.69259 0.47336 0.97846 0.0
C94 C 0.70587 0.44937 0.96355 0.0
C95 C 0.72553 0.42995 0.97975 0.0
P96 P 0.31911 0.65408 0.47313 0.0
H97 H 0.28637 0.62372 0.42317 0.0
H98 H 0.28782 0.57411 0.40705 0.0
H99 H 0.34875 0.55362 0.48579 0.0
H100 H 0.3457 0.60254 0.50244 0.0
H101 H 0.30774 0.71238 0.45324 0.0
H102 H 0.25786 0.739 0.44056 0.0
H103 H 0.19887 0.6655 0.46404 0.0
H104 H 0.24904 0.63892 0.47645 0.0
H105 H 0.38245 0.65519 0.50383 0.0
H106 H 0.27996 0.66109 0.53005 0.0
O107 O 0.34931 0.66725 0.45101 0.0
H108 H 0.39805 0.6554 0.55828 0.0
H109 H 0.29562 0.66188 0.5847 0.0
C110 C 0.31547 0.61688 0.46426 0.0
C111 C 0.29918 0.60833 0.43744 0.0
C112 C 0.30033 0.57996 0.42808 0.0
C113 C 0.31855 0.55973 0.44499 0.0
C114 C 0.33392 0.56832 0.47243 0.0
C115 C 0.33242 0.59657 0.48191 0.0
C116 C 0.28204 0.67349 0.46487 0.0
C117 C 0.28406 0.70199 0.45557 0.0
C118 C 0.25552 0.71726 0.44863 0.0
C119 C 0.22445 0.70427 0.45108 0.0
C120 C 0.22251 0.67591 0.46141 0.0
C121 C 0.25111 0.6607 0.46847 0.0
C122 C 0.33012 0.65851 0.51293 0.0
C123 C 0.36336 0.65715 0.52128 0.0
C124 C 0.37223 0.65708 0.55233 0.0
C125 C 0.34798 0.65863 0.57552 0.0
C126 C 0.31472 0.66091 0.56715 0.0
C127 C 0.30581 0.66049 0.53598 0.0
P128 P 0.83364 0.8365 0.97187 0.0
H129 H 0.81773 0.79301 0.01756 0.0
H130 H 0.82011 0.79193 0.074 0.0
H131 H 0.85157 0.87969 0.07353 0.0
H132 H 0.84775 0.88092 0.0177 0.0
H133 H 0.81836 0.80173 0.91839 0.0
H134 H 0.76707 0.78113 0.89971 0.0
H135 H 0.71394 0.82113 0.97465 0.0
H136 H 0.76552 0.84116 0.99349 0.0
H137 H 0.89341 0.86936 0.96403 0.0
H138 H 0.7895 0.88118 0.94775 0.0
O139 O 0.86455 0.81538 0.96086 0.0
H140 H 0.90366 0.91856 0.94832 0.0
H141 H 0.79976 0.93037 0.93158 0.0
C142 C 0.83267 0.83695 0.01339 0.0
C143 C 0.82465 0.81211 0.02974 0.0
C144 C 0.82616 0.8115 0.06198 0.0
C145 C 0.83616 0.83569 0.07836 0.0
C146 C 0.84325 0.86079 0.0618 0.0
C147 C 0.84145 0.86141 0.02964 0.0
C148 C 0.79571 0.82234 0.95766 0.0
C149 C 0.79566 0.80596 0.93081 0.0
C150 C 0.76629 0.79443 0.92002 0.0
C151 C 0.73648 0.79936 0.93584 0.0
C152 C 0.73659 0.81651 0.9623 0.0
C153 C 0.766 0.828 0.97306 0.0
C154 C 0.84083 0.87152 0.9566 0.0
C155 C 0.8729 0.88241 0.95659 0.0
C156 C 0.87867 0.91054 0.94792 0.0
C157 C 0.85243 0.92819 0.93892 0.0
C158 C 0.82037 0.91709 0.93829 0.0
C159 C 0.81455 0.88899 0.94744 0.0
P160 P 0.25204 0.08287 0.52275 0.0
H161 H 0.25921 0.03515 0.48033 0.0
H162 H 0.21964 0.00933 0.44867 0.0
H163 H 0.14267 0.06696 0.47785 0.0
H164 H 0.18226 0.09234 0.50974 0.0
H165 H 0.30857 0.11743 0.53824 0.0
H166 H 0.33702 0.15618 0.51141 0.0
H167 H 0.26624 0.15192 0.43738 0.0
H168 H 0.23821 0.11295 0.46415 0.0
H169 H 0.22616 0.05119 0.5751 0.0
H170 H 0.22956 0.13874 0.54538 0.0
O171 O 0.2813 0.05981 0.53311 0.0
H172 H 0.19433 0.06475 0.62067 0.0
H173 H 0.19859 0.15272 0.59147 0.0
C174 C 0.22339 0.06508 0.49801 0.0
C175 C 0.2338 0.04219 0.47986 0.0
C176 C 0.21124 0.02764 0.46155 0.0
C177 C 0.17794 0.03592 0.46101 0.0
C178 C 0.168 0.05972 0.47825 0.0
C179 C 0.19059 0.07423 0.49649 0.0
C180 C 0.27156 0.11214 0.50307 0.0
C181 C 0.29919 0.12489 0.51625 0.0
C182 C 0.31528 0.14715 0.50096 0.0
C183 C 0.30392 0.15709 0.4722 0.0
C184 C 0.27586 0.14447 0.45928 0.0
C185 C 0.25972 0.12225 0.47466 0.0
C186 C 0.23071 0.09398 0.5572 0.0
C187 C 0.22051 0.07343 0.57871 0.0
C188 C 0.20242 0.08127 0.60485 0.0
C189 C 0.19408 0.1099 0.60997 0.0
C190 C 0.20436 0.13047 0.5882 0.0
C191 C 0.22237 0.12254 0.56194 0.0
P192 P 0.25703 0.90761 0.02881 0.0
H193 H 0.26597 0.90036 0.09565 0.0
H194 H 0.2287 0.88475 0.13697 0.0
H195 H 0.15425 0.86604 0.06916 0.0
H196 H 0.19162 0.8819 0.02799 0.0
H197 H 0.28566 0.90912 0.96675 0.0
H198 H 0.31295 0.87332 0.93507 0.0
H199 H 0.29822 0.81116 0.00789 0.0
H200 H 0.26965 0.84681 0.03869 0.0
H201 H 0.23944 0.96668 0.03964 0.0
H202 H 0.21844 0.90282 0.97168 0.0
O203 O 0.28807 0.92531 0.04482 0.0
H204 H 0.20358 0.00017 0.01269 0.0
H205 H 0.18391 0.93653 0.94357 0.0
C206 C 0.23127 0.89279 0.05884 0.0
C207 C 0.24174 0.89265 0.08965 0.0
C208 C 0.22049 0.88352 0.11325 0.0
C209 C 0.18839 0.87443 0.10638 0.0
C210 C 0.17863 0.87336 0.07526 0.0
C211 C 0.19996 0.88236 0.0517 0.0
C212 C 0.27474 0.88045 0.00468 0.0
C213 C 0.28769 0.88761 0.97558 0.0
C214 C 0.3037 0.86715 0.95764 0.0
C215 C 0.30782 0.8392 0.9688 0.0
C216 C 0.29492 0.83222 0.99816 0.0
C217 C 0.27862 0.85267 0.01593 0.0
C218 C 0.23237 0.93255 0.00719 0.0
C219 C 0.22763 0.96007 0.01851 0.0
C220 C 0.20719 0.97926 0.00294 0.0
C221 C 0.19097 0.97127 0.97568 0.0
C222 C 0.19569 0.94347 0.96457 0.0
C223 C 0.21586 0.92422 0.9804 0.0
P224 P 0.82194 0.15281 0.47755 0.0
H225 H 0.84372 0.12919 0.41887 0.0
H226 H 0.84619 0.08078 0.39925 0.0
H227 H 0.79782 0.05025 0.48227 0.0
H228 H 0.79579 0.09891 0.5019 0.0
H229 H 0.81058 0.21186 0.4599 0.0
H230 H 0.76111 0.23807 0.44507 0.0
H231 H 0.70279 0.16235 0.45965 0.0
H232 H 0.75254 0.13618 0.47411 0.0
H233 H 0.86539 0.11887 0.51581 0.0
H234 H 0.79244 0.18443 0.52951 0.0
O235 O 0.85448 0.16947 0.46224 0.0
H236 H 0.87612 0.11771 0.57117 0.0
H237 H 0.80303 0.18332 0.58515 0.0
C238 C 0.82042 0.11746 0.46213 0.0
C239 C 0.83347 0.11211 0.43276 0.0
C240 C 0.83455 0.08442 0.42145 0.0
C241 C 0.82236 0.0616 0.4393 0.0
C242 C 0.80785 0.0673 0.46819 0.0
C243 C 0.80669 0.09507 0.47942 0.0
C244 C 0.78527 0.17196 0.46736 0.0
C245 C 0.78716 0.20088 0.45979 0.0
C246 C 0.75882 0.21591 0.45158 0.0
C247 C 0.72807 0.20223 0.451 0.0
C248 C 0.72622 0.17334 0.45937 0.0
C249 C 0.7546 0.15837 0.46767 0.0
C250 C 0.82771 0.15129 0.51865 0.0
C251 C 0.85132 0.1327 0.53083 0.0
C252 C 0.85732 0.13199 0.5625 0.0
C253 C 0.84014 0.15022 0.58255 0.0
C254 C 0.81661 0.16903 0.57024 0.0
C255 C 0.81045 0.16957 0.53847 0.0
Fe256 Fe 0.98891 0.8186 0.31938 0.0
Fe257 Fe 0.9819 0.85377 0.3787 0.0
O258 O 0.98357 0.85184 0.33783 0.0
Fe259 Fe 0.97997 0.88327 0.31537 0.0
O260 O 0.94335 0.8701 0.29645 0.0
O261 O 0.9638 0.82798 0.28579 0.0
O262 O 0.95166 0.80446 0.33699 0.0
C263 C 0.9456 0.80408 0.3656 0.0
C264 C 0.02826 0.85175 0.28256 0.0
O265 O 0.9619 0.81925 0.38403 0.0
C266 C 0.01965 0.90197 0.36169 0.0
O267 O 0.01472 0.80329 0.34981 0.0
O268 O 0.02272 0.83835 0.38221 0.0
O269 O 0.00649 0.87095 0.28386 0.0
O270 O 0.0267 0.83031 0.3002 0.0
C271 C 0.93382 0.89192 0.36369 0.0
O272 O 0.00147 0.88869 0.38072 0.0
O273 O 0.0165 0.89848 0.33295 0.0
C274 C 0.03128 0.81477 0.37102 0.0
O275 O 0.94098 0.86944 0.37819 0.0
O276 O 0.95252 0.90137 0.34254 0.0
C277 C 0.942 0.84695 0.28198 0.0
Fe278 Fe 0.99391 0.15366 0.88156 0.0
Fe279 Fe 0.9939 0.11902 0.82204 0.0
O280 O 0.99434 0.15228 0.84073 0.0
Fe281 Fe 0.99539 0.18409 0.8186 0.0
O282 O 0.03401 0.19449 0.8358 0.0
O283 O 0.01884 0.18606 0.88379 0.0
O284 O 0.03213 0.13371 0.88412 0.0
C285 C 0.03617 0.10925 0.873 0.0
C286 C 0.95182 0.19723 0.86823 0.0
O287 O 0.01714 0.10012 0.85222 0.0
C288 C 0.952 0.15314 0.7849 0.0
O289 O 0.96892 0.12144 0.8867 0.0
O290 O 0.95479 0.10975 0.8396 0.0
O291 O 0.97112 0.205 0.84661 0.0
O292 O 0.9558 0.17364 0.88168 0.0
C293 C 0.03843 0.14723 0.78581 0.0
O294 O 0.97057 0.13173 0.7885 0.0
O295 O 0.95688 0.17564 0.79983 0.0
C296 C 0.94997 0.10854 0.86836 0.0
O297 O 0.03301 0.12622 0.80332 0.0
O298 O 0.01987 0.16894 0.78663 0.0
C299 C 0.03871 0.19692 0.86442 0.0
Fe300 Fe 0.48943 0.31842 0.32418 0.0
Fe301 Fe 0.48528 0.35325 0.38399 0.0
O302 O 0.48616 0.35165 0.34307 0.0
Fe303 Fe 0.48395 0.38354 0.32118 0.0
O304 O 0.44633 0.37223 0.30259 0.0
O305 O 0.4636 0.32906 0.29147 0.0
O306 O 0.45206 0.30525 0.34264 0.0
C307 C 0.44689 0.30464 0.37139 0.0
C308 C 0.52945 0.35057 0.28671 0.0
O309 O 0.46416 0.31933 0.38945 0.0
C310 C 0.52599 0.3992 0.36709 0.0
O311 O 0.51569 0.30212 0.35378 0.0
O312 O 0.52541 0.33657 0.38662 0.0
O313 O 0.50895 0.37068 0.28899 0.0
O314 O 0.52714 0.32893 0.30396 0.0
C315 C 0.4387 0.39302 0.3698 0.0
O316 O 0.50648 0.3874 0.38608 0.0
O317 O 0.52171 0.39684 0.33835 0.0
C318 C 0.5331 0.31304 0.37478 0.0
O319 O 0.44496 0.37021 0.3841 0.0
O320 O 0.45812 0.4023 0.34913 0.0
C321 C 0.44321 0.34925 0.28802 0.0
Fe322 Fe 0.49272 0.65158 0.87919 0.0
Fe323 Fe 0.4931 0.61524 0.82087 0.0
O324 O 0.49394 0.649 0.83843 0.0
Fe325 Fe 0.49605 0.6801 0.8152 0.0
O326 O 0.53445 0.69045 0.83265 0.0
O327 O 0.51858 0.68355 0.88075 0.0
O328 O 0.53033 0.63098 0.88314 0.0
C329 C 0.53418 0.60623 0.87275 0.0
C330 C 0.45202 0.69554 0.86367 0.0
O331 O 0.51522 0.5968 0.85209 0.0
C332 C 0.45292 0.64889 0.7816 0.0
O333 O 0.46667 0.62003 0.88493 0.0
O334 O 0.45343 0.60725 0.83793 0.0
O335 O 0.47178 0.70226 0.84202 0.0
O336 O 0.45514 0.6723 0.87799 0.0
C337 C 0.53894 0.64153 0.78447 0.0
O338 O 0.47094 0.62734 0.78643 0.0
O339 O 0.45771 0.67166 0.79606 0.0
C340 C 0.44773 0.60712 0.86657 0.0
O341 O 0.53271 0.62119 0.80267 0.0
O342 O 0.52094 0.66361 0.78426 0.0
C343 C 0.53875 0.69375 0.86119 0.0
H344 H 0.21999 0.29215 0.87961 0.0
H345 H 0.05471 0.20877 0.92424 0.0
H346 H 0.18747 0.2766 0.97334 0.0
H347 H 0.08698 0.22329 0.83017 0.0
H348 H 0.10227 0.23516 0.94245 0.0
H349 H 0.17062 0.26832 0.86086 0.0
C350 C 0.2025 0.28366 0.89624 0.0
C351 C 0.20789 0.28629 0.92809 0.0
C352 C 0.09891 0.23267 0.91782 0.0
C353 C 0.15126 0.25922 0.90681 0.0
C354 C 0.07172 0.2176 0.90737 0.0
C355 C 0.06683 0.21378 0.8756 0.0
C356 C 0.12151 0.24398 0.89638 0.0
C357 C 0.08975 0.22572 0.85487 0.0
C358 C 0.17424 0.2702 0.88552 0.0
C359 C 0.18414 0.27532 0.94859 0.0
N360 N 0.11615 0.24022 0.86564 0.0
N361 N 0.15693 0.26219 0.9376 0.0
H362 H 0.84214 0.65093 0.41539 0.0
H363 H 0.91421 0.80698 0.42123 0.0
H364 H 0.80595 0.71421 0.47906 0.0
H365 H 0.92162 0.75528 0.33948 0.0
H366 H 0.87654 0.77223 0.44401 0.0
H367 H 0.87296 0.68786 0.38804 0.0
C368 C 0.84022 0.6726 0.42343 0.0
C369 C 0.8214 0.67934 0.44977 0.0
C370 C 0.88619 0.76858 0.421 0.0
C371 C 0.85745 0.7216 0.41886 0.0
C372 C 0.90782 0.78832 0.40803 0.0
C373 C 0.92124 0.7839 0.3785 0.0
C374 C 0.87828 0.74395 0.40456 0.0
C375 C 0.91184 0.7595 0.36232 0.0
C376 C 0.85803 0.69365 0.40784 0.0
C377 C 0.8206 0.70781 0.45933 0.0
N378 N 0.8912 0.74023 0.37572 0.0
N379 N 0.83859 0.72781 0.44406 0.0
H380 H 0.84332 0.34929 0.9174 0.0
H381 H 0.90704 0.18819 0.91489 0.0
H382 H 0.81387 0.28538 0.98397 0.0
H383 H 0.94019 0.25247 0.85025 0.0
H384 H 0.86939 0.22268 0.93776 0.0
H385 H 0.87581 0.31345 0.89013 0.0
C386 C 0.84364 0.32773 0.92629 0.0
C387 C 0.82594 0.32043 0.95318 0.0
C388 C 0.88478 0.22924 0.91848 0.0
C389 C 0.86294 0.27919 0.92186 0.0
C390 C 0.90632 0.20952 0.90536 0.0
C391 C 0.9271 0.21745 0.88072 0.0
C392 C 0.88393 0.2572 0.90699 0.0
C393 C 0.9248 0.2454 0.86929 0.0
C394 C 0.86209 0.30723 0.9106 0.0
C395 C 0.82683 0.29199 0.96322 0.0
N396 N 0.90378 0.26429 0.88264 0.0
N397 N 0.84515 0.2725 0.94768 0.0
H398 H 0.17297 0.68461 0.41701 0.0
H399 H 0.0758 0.83283 0.41433 0.0
H400 H 0.20774 0.75964 0.46332 0.0
H401 H 0.05069 0.76052 0.35829 0.0
H402 H 0.12194 0.80568 0.43582 0.0
H403 H 0.12509 0.71128 0.39915 0.0
C404 C 0.17034 0.70663 0.42371 0.0
C405 C 0.1944 0.71993 0.44164 0.0
C406 C 0.10626 0.79581 0.41884 0.0
C407 C 0.13984 0.75077 0.4209 0.0
C408 C 0.07992 0.81127 0.40658 0.0
C409 C 0.05934 0.79896 0.38444 0.0
C410 C 0.11191 0.76783 0.40898 0.0
C411 C 0.0659 0.77096 0.37523 0.0
C412 C 0.14312 0.72193 0.41329 0.0
C413 C 0.18995 0.74866 0.44922 0.0
N414 N 0.09155 0.75637 0.38755 0.0
N415 N 0.1632 0.76315 0.43877 0.0
H416 H 0.6881 0.77467 0.97114 0.0
H417 H 0.58498 0.7214 0.82589 0.0
H418 H 0.71464 0.79332 0.87643 0.0
H419 H 0.55627 0.70563 0.92073 0.0
H420 H 0.63177 0.74896 0.84401 0.0
H421 H 0.63854 0.7508 0.95316 0.0
C422 C 0.68333 0.774 0.94657 0.0
C423 C 0.70559 0.78595 0.92524 0.0
C424 C 0.61517 0.73957 0.86086 0.0
C425 C 0.64915 0.75828 0.90447 0.0
C426 C 0.58843 0.7238 0.85053 0.0
C427 C 0.56666 0.71114 0.87183 0.0
C428 C 0.62028 0.74263 0.89271 0.0
C429 C 0.5724 0.71499 0.90347 0.0
C430 C 0.65513 0.76021 0.9363 0.0
C431 C 0.6984 0.78404 0.89365 0.0
N432 N 0.59873 0.73033 0.91295 0.0
N433 N 0.67084 0.77038 0.88422 0.0
H434 H 0.31854 0.16136 0.41027 0.0
H435 H 0.42507 0.30257 0.43098 0.0
H436 H 0.32974 0.20567 0.49654 0.0
H437 H 0.41311 0.26133 0.34294 0.0
H438 H 0.3877 0.26829 0.45437 0.0
H439 H 0.35034 0.19876 0.38426 0.0
C440 C 0.32739 0.17908 0.42369 0.0
C441 C 0.32165 0.18028 0.4557 0.0
C442 C 0.39308 0.26671 0.42991 0.0
C443 C 0.3583 0.22296 0.42614 0.0
C444 C 0.41453 0.28631 0.41648 0.0
C445 C 0.42254 0.2847 0.38495 0.0
C446 C 0.3795 0.24512 0.4118 0.0
C447 C 0.40774 0.2633 0.36735 0.0
C448 C 0.34569 0.20034 0.40885 0.0
C449 C 0.33404 0.20358 0.47196 0.0
N450 N 0.38708 0.2442 0.38108 0.0
N451 N 0.35184 0.22389 0.45703 0.0
H452 H 0.2961 0.78177 0.96387 0.0
H453 H 0.4488 0.75261 0.85049 0.0
H454 H 0.36241 0.84747 0.93179 0.0
H455 H 0.40044 0.68672 0.90367 0.0
H456 H 0.41163 0.78765 0.87356 0.0
H457 H 0.32897 0.74671 0.9359 0.0
C458 C 0.31755 0.7889 0.95103 0.0
C459 C 0.32649 0.81774 0.95046 0.0
C460 C 0.40908 0.7655 0.88005 0.0
C461 C 0.36391 0.77761 0.91783 0.0
C462 C 0.43019 0.74545 0.86678 0.0
C463 C 0.42793 0.71668 0.87533 0.0
C464 C 0.38531 0.75671 0.90179 0.0
C465 C 0.40329 0.70869 0.89659 0.0
C466 C 0.3362 0.76884 0.93491 0.0
C467 C 0.35418 0.82562 0.9327 0.0
N468 N 0.383 0.72859 0.90912 0.0
N469 N 0.3719 0.8057 0.91719 0.0
H470 H 0.67918 0.18383 0.41282 0.0
H471 H 0.57797 0.32992 0.41814 0.0
H472 H 0.70919 0.25639 0.46615 0.0
H473 H 0.55317 0.25942 0.35932 0.0
H474 H 0.6248 0.30272 0.43782 0.0
H475 H 0.63112 0.21047 0.39518 0.0
C476 C 0.6755 0.20529 0.42104 0.0
C477 C 0.69824 0.21791 0.44098 0.0
C478 C 0.60907 0.29322 0.42063 0.0
C479 C 0.64346 0.24869 0.42058 0.0
C480 C 0.5823 0.30872 0.4094 0.0
C481 C 0.56154 0.29694 0.38705 0.0
C482 C 0.6151 0.26572 0.4095 0.0
C483 C 0.56847 0.2694 0.37652 0.0
C484 C 0.64818 0.22057 0.41078 0.0
C485 C 0.69249 0.24596 0.45049 0.0
N486 N 0.59462 0.25475 0.38785 0.0
N487 N 0.66566 0.26041 0.4402 0.0
H488 H 0.33712 0.45458 0.88754 0.0
H489 H 0.43118 0.59754 0.92722 0.0
H490 H 0.35967 0.48109 0.98031 0.0
H491 H 0.40717 0.57148 0.83456 0.0
H492 H 0.39653 0.55939 0.94757 0.0
H493 H 0.3537 0.50131 0.86841 0.0
C494 C 0.34495 0.47041 0.90398 0.0
C495 C 0.34754 0.46376 0.93552 0.0
C496 C 0.3985 0.56224 0.92278 0.0
C497 C 0.36716 0.51714 0.9137 0.0
C498 C 0.41829 0.58405 0.91113 0.0
C499 C 0.4227 0.58733 0.87912 0.0
C500 C 0.38316 0.54348 0.90228 0.0
C501 C 0.40498 0.56945 0.85941 0.0
C502 C 0.35462 0.49706 0.89301 0.0
C503 C 0.35807 0.48508 0.9557 0.0
N504 N 0.38639 0.54804 0.87132 0.0
N505 N 0.36791 0.51069 0.9444 0.0
H506 H 0.66946 0.47234 0.48824 0.0
H507 H 0.56234 0.441 0.33748 0.0
H508 H 0.66621 0.53028 0.4106 0.0
H509 H 0.55066 0.39771 0.42512 0.0
H510 H 0.60529 0.47083 0.36062 0.0
H511 H 0.63103 0.44126 0.46186 0.0
C512 C 0.66089 0.4784 0.46548 0.0
C513 C 0.67106 0.50394 0.45162 0.0
C514 C 0.59324 0.45475 0.37465 0.0
C515 C 0.6266 0.46855 0.42132 0.0
C516 C 0.56886 0.43771 0.36147 0.0
C517 C 0.55267 0.41706 0.37949 0.0
C518 C 0.60167 0.45071 0.40585 0.0
C519 C 0.56213 0.41361 0.41043 0.0
C520 C 0.63873 0.46074 0.45049 0.0
C521 C 0.6587 0.5109 0.42225 0.0
N522 N 0.58594 0.43022 0.42256 0.0
N523 N 0.63707 0.49328 0.40803 0.0
H524 H 0.69015 0.53159 0.98327 0.0
H525 H 0.54474 0.54993 0.86047 0.0
H526 H 0.64532 0.46164 0.93518 0.0
H527 H 0.58003 0.61841 0.91726 0.0
H528 H 0.58432 0.51803 0.88492 0.0
H529 H 0.6527 0.56428 0.95692 0.0
C530 C 0.6724 0.52305 0.96725 0.0
C531 C 0.67089 0.4937 0.96159 0.0
C532 C 0.58345 0.54004 0.89204 0.0
C533 C 0.62811 0.5312 0.93099 0.0
C534 C 0.56085 0.55833 0.87805 0.0
C535 C 0.55886 0.58694 0.88691 0.0
C536 C 0.60444 0.55036 0.91505 0.0
C537 C 0.58053 0.59652 0.90978 0.0
C538 C 0.65111 0.54178 0.95209 0.0
C539 C 0.64775 0.48405 0.94006 0.0
N540 N 0.60237 0.57826 0.92307 0.0
N541 N 0.62727 0.50272 0.92564 0.0
H542 H 0.32758 0.5447 0.38445 0.0
H543 H 0.40721 0.39492 0.4264 0.0
H544 H 0.32507 0.5088 0.47657 0.0
H545 H 0.40823 0.43368 0.33577 0.0
H546 H 0.3685 0.43176 0.44379 0.0
H547 H 0.34733 0.49962 0.36488 0.0
C548 C 0.33043 0.5272 0.40058 0.0
C549 C 0.32503 0.53087 0.43238 0.0
C550 C 0.37683 0.43189 0.41998 0.0
C551 C 0.34897 0.47906 0.41002 0.0
C552 C 0.39882 0.41084 0.41005 0.0
C553 C 0.41141 0.41164 0.3798 0.0
C554 C 0.36741 0.45366 0.39941 0.0
C555 C 0.39967 0.43263 0.3595 0.0
C556 C 0.3421 0.5014 0.38935 0.0
C557 C 0.32974 0.50726 0.45199 0.0
N558 N 0.37865 0.45293 0.36975 0.0
N559 N 0.34195 0.4825 0.44058 0.0
H560 H 0.8319 0.9574 0.88761 0.0
H561 H 0.93958 0.09381 0.92889 0.0
H562 H 0.88742 0.96693 0.97153 0.0
H563 H 0.90716 0.07463 0.83647 0.0
H564 H 0.90835 0.05317 0.94828 0.0
H565 H 0.84784 0.00578 0.87214 0.0
C566 C 0.84704 0.96987 0.90293 0.0
C567 C 0.85882 0.95817 0.93062 0.0
C568 C 0.90777 0.05807 0.92381 0.0
C569 C 0.87693 0.01318 0.91329 0.0
C570 C 0.92552 0.08133 0.9127 0.0
C571 C 0.92659 0.08729 0.88089 0.0
C572 C 0.89091 0.04067 0.903 0.0
C573 C 0.9075 0.07054 0.86111 0.0
C574 C 0.8562 0.99735 0.89408 0.0
C575 C 0.87836 0.97508 0.94971 0.0
N576 N 0.89075 0.04774 0.87245 0.0
N577 N 0.88697 0.00169 0.94061 0.0
H578 H 0.11665 0.02045 0.48087 0.0
H579 H 0.07142 0.92873 0.33188 0.0
H580 H 0.18314 0.01186 0.40329 0.0
H581 H 0.01974 0.92462 0.41929 0.0
H582 H 0.1095 0.96352 0.35426 0.0
H583 H 0.07724 0.99016 0.45481 0.0
C584 C 0.12281 0.01247 0.45814 0.0
C585 C 0.15326 0.01874 0.44425 0.0
C586 C 0.08972 0.95497 0.3684 0.0
C587 C 0.1083 0.98349 0.41437 0.0
C588 C 0.06798 0.93523 0.35564 0.0
C589 C 0.04246 0.92365 0.37377 0.0
C590 C 0.08556 0.96333 0.3993 0.0
C591 C 0.03916 0.93276 0.40445 0.0
C592 C 0.10038 0.99494 0.44336 0.0
C593 C 0.16008 0.00732 0.41497 0.0
N594 N 0.06038 0.95201 0.41616 0.0
N595 N 0.13777 0.99018 0.40097 0.0
H596 H 0.13299 0.95993 0.94554 0.0
H597 H 0.08685 0.12204 0.91235 0.0
H598 H 0.1978 0.02924 0.96859 0.0
H599 H 0.04111 0.05171 0.86567 0.0
H600 H 0.12547 0.08869 0.93655 0.0
H601 H 0.09678 0.99355 0.91931 0.0
C602 C 0.13987 0.98214 0.94489 0.0
C603 C 0.16872 0.99161 0.95934 0.0
C604 C 0.10705 0.08063 0.92089 0.0
C605 C 0.12669 0.03044 0.9298 0.0
C606 C 0.08495 0.09963 0.90713 0.0
C607 C 0.06063 0.08968 0.88698 0.0
C608 C 0.10454 0.05143 0.91477 0.0
C609 C 0.05945 0.06039 0.88099 0.0
C610 C 0.11901 0.00137 0.93002 0.0
C611 C 0.17567 0.02089 0.95826 0.0
N612 N 0.08091 0.04232 0.89498 0.0
N613 N 0.15476 0.03925 0.94388 0.0
H614 H 0.81486 0.04045 0.38087 0.0
H615 H 0.90679 0.89497 0.42195 0.0
H616 H 0.84158 0.01526 0.47347 0.0
H617 H 0.89991 0.93118 0.33037 0.0
H618 H 0.86973 0.93227 0.44104 0.0
H619 H 0.83271 0.99398 0.36232 0.0
C620 C 0.82414 0.02503 0.39736 0.0
C621 C 0.82734 0.03197 0.42867 0.0
C622 C 0.87591 0.93171 0.41668 0.0
C623 C 0.84773 0.97871 0.40761 0.0
C624 C 0.89689 0.91037 0.40576 0.0
C625 C 0.90683 0.91036 0.37466 0.0
C626 C 0.86469 0.9529 0.39623 0.0
C627 C 0.8933 0.93076 0.35465 0.0
C628 C 0.83422 0.99847 0.38677 0.0
C629 C 0.83873 0.01087 0.44912 0.0
N630 N 0.8732 0.95137 0.36583 0.0
N631 N 0.84899 0.98533 0.43816 0.0
H632 H 0.34808 0.38741 0.11808 0.0
H633 H 0.4215 0.30143 0.25938 0.0
H634 H 0.34237 0.29605 0.12643 0.0
H635 H 0.40961 0.3926 0.25938 0.0
H636 H 0.38774 0.29893 0.21309 0.0
H637 H 0.36526 0.38989 0.17181 0.0
C638 C 0.34978 0.36787 0.13134 0.0
C639 C 0.34414 0.34142 0.1175 0.0
C640 C 0.39211 0.31947 0.22341 0.0
C641 C 0.36461 0.34414 0.17899 0.0
C642 C 0.41147 0.32092 0.24982 0.0
C643 C 0.41883 0.34731 0.26295 0.0
C644 C 0.38039 0.34463 0.20975 0.0
C645 C 0.40478 0.37182 0.24986 0.0
C646 C 0.3598 0.36932 0.16204 0.0
C647 C 0.34722 0.31686 0.13586 0.0
N648 N 0.38666 0.36993 0.22366 0.0
N649 N 0.35766 0.31879 0.16552 0.0
H650 H 0.67055 0.65941 0.6263 0.0
H651 H 0.5782 0.59503 0.77491 0.0
H652 H 0.67437 0.57104 0.65359 0.0
H653 H 0.55871 0.67928 0.73923 0.0
H654 H 0.6181 0.58779 0.73346 0.0
H655 H 0.63343 0.66868 0.66987 0.0
C656 C 0.66358 0.64193 0.64135 0.0
C657 C 0.67574 0.61437 0.63617 0.0
C658 C 0.60517 0.6079 0.7347 0.0
C659 C 0.63359 0.62498 0.68637 0.0
C660 C 0.58238 0.6121 0.75845 0.0
C661 C 0.5648 0.63776 0.7605 0.0
C662 C 0.61066 0.6295 0.71275 0.0
C663 C 0.57152 0.6591 0.73849 0.0
C664 C 0.64251 0.6473 0.66632 0.0
C665 C 0.66619 0.59272 0.65684 0.0
N666 N 0.59385 0.65447 0.71548 0.0
N667 N 0.64573 0.59849 0.68093 0.0
H668 H 0.62535 0.39569 0.11603 0.0
H669 H 0.58249 0.31499 0.2747 0.0
H670 H 0.6938 0.3373 0.15858 0.0
H671 H 0.53135 0.38885 0.23947 0.0
H672 H 0.62101 0.3183 0.23056 0.0
H673 H 0.58731 0.38806 0.15878 0.0
C674 C 0.63224 0.38093 0.13419 0.0
C675 C 0.66284 0.36705 0.13359 0.0
C676 C 0.6013 0.33371 0.23268 0.0
C677 C 0.61937 0.3586 0.1833 0.0
C678 C 0.57933 0.33182 0.25779 0.0
C679 C 0.55363 0.35167 0.26089 0.0
C680 C 0.59716 0.35537 0.21047 0.0
C681 C 0.55075 0.37307 0.23828 0.0
C682 C 0.61059 0.37679 0.15883 0.0
C683 C 0.67058 0.34861 0.15824 0.0
N684 N 0.57208 0.37425 0.21414 0.0
N685 N 0.64897 0.34491 0.18216 0.0
H686 H 0.33244 0.69427 0.62333 0.0
H687 H 0.4383 0.60407 0.74454 0.0
H688 H 0.38511 0.61722 0.60177 0.0
H689 H 0.41583 0.69293 0.75785 0.0
H690 H 0.4072 0.60509 0.69668 0.0
H691 H 0.35223 0.6907 0.67691 0.0
C692 C 0.34789 0.67651 0.63003 0.0
C693 C 0.35757 0.65616 0.60825 0.0
C694 C 0.40887 0.62433 0.71018 0.0
C695 C 0.37976 0.65179 0.66897 0.0
C696 C 0.42658 0.62378 0.73758 0.0
C697 C 0.43024 0.64861 0.75499 0.0
C698 C 0.39457 0.64985 0.70003 0.0
C699 C 0.414 0.67337 0.74496 0.0
C700 C 0.3592 0.67452 0.66043 0.0
C701 C 0.37755 0.63353 0.61786 0.0
N702 N 0.39708 0.67345 0.71791 0.0
N703 N 0.38801 0.63196 0.6475 0.0
H704 H 0.86246 0.79147 0.11148 0.0
H705 H 0.89879 0.8865 0.25832 0.0
H706 H 0.82445 0.87662 0.12231 0.0
H707 H 0.93025 0.79931 0.2483 0.0
H708 H 0.86481 0.88145 0.21219 0.0
H709 H 0.88006 0.79181 0.16501 0.0
C710 C 0.85716 0.81006 0.12525 0.0
C711 C 0.8423 0.83421 0.11213 0.0
C712 C 0.87885 0.86334 0.22034 0.0
C713 C 0.86338 0.83503 0.17349 0.0
C714 C 0.89825 0.86621 0.24668 0.0
C715 C 0.91793 0.84347 0.25682 0.0
C716 C 0.87922 0.83759 0.20408 0.0
C717 C 0.91599 0.81759 0.241 0.0
C718 C 0.86751 0.81033 0.15585 0.0
C719 C 0.83656 0.85778 0.1312 0.0
N720 N 0.89733 0.81548 0.21525 0.0
N721 N 0.84753 0.85776 0.16079 0.0
H722 H 0.19785 0.08844 0.66901 0.0
H723 H 0.04805 0.18145 0.73489 0.0
H724 H 0.14456 0.14978 0.61392 0.0
H725 H 0.08727 0.1073 0.78113 0.0
H726 H 0.08824 0.17467 0.69317 0.0
H727 H 0.16225 0.0995 0.71294 0.0
C728 C 0.17865 0.10422 0.66609 0.0
C729 C 0.17406 0.11796 0.63752 0.0
C730 C 0.08811 0.15998 0.71253 0.0
C731 C 0.13341 0.13105 0.68805 0.0
C732 C 0.06526 0.16388 0.73642 0.0
C733 C 0.06408 0.14477 0.76146 0.0
C734 C 0.11014 0.13696 0.71381 0.0
C735 C 0.08703 0.12241 0.76217 0.0
C736 C 0.15842 0.11062 0.69127 0.0
C737 C 0.14925 0.13876 0.63548 0.0
N738 N 0.10903 0.1191 0.73868 0.0
N739 N 0.12978 0.14457 0.66034 0.0
H740 H 0.12426 0.89137 0.11002 0.0
H741 H 0.08458 0.81938 0.27406 0.0
H742 H 0.19786 0.84411 0.16042 0.0
H743 H 0.02809 0.88751 0.23294 0.0
H744 H 0.12397 0.82285 0.23068 0.0
H745 H 0.08563 0.88397 0.15253 0.0
C746 C 0.13219 0.8791 0.12989 0.0
C747 C 0.16435 0.86831 0.1316 0.0
C748 C 0.10291 0.83699 0.23134 0.0
C749 C 0.12022 0.86007 0.1808 0.0
C750 C 0.08044 0.835 0.25601 0.0
C751 C 0.05299 0.8532 0.25723 0.0
C752 C 0.09752 0.85701 0.20763 0.0
C753 C 0.04888 0.87308 0.23319 0.0
C754 C 0.11019 0.8751 0.15433 0.0
C755 C 0.17336 0.853 0.15828 0.0
N756 N 0.07074 0.87433 0.20945 0.0
N757 N 0.15138 0.8493 0.18188 0.0
H758 H 0.8499 0.10449 0.62071 0.0
H759 H 0.91903 0.19844 0.75904 0.0
H760 H 0.84895 0.19617 0.62022 0.0
H761 H 0.92989 0.10737 0.75281 0.0
H762 H 0.88458 0.19775 0.71282 0.0
H763 H 0.87039 0.10501 0.67359 0.0
C764 C 0.85381 0.12474 0.63185 0.0
C765 C 0.8482 0.15032 0.61591 0.0
C766 C 0.89424 0.17791 0.72179 0.0
C767 C 0.87165 0.15112 0.67646 0.0
C768 C 0.91385 0.17827 0.74821 0.0
C769 C 0.92781 0.15297 0.75951 0.0
C770 C 0.8885 0.15206 0.70671 0.0
C771 C 0.92009 0.12745 0.74464 0.0
C772 C 0.86541 0.12504 0.66206 0.0
C773 C 0.85296 0.17595 0.63167 0.0
N774 N 0.90121 0.12769 0.71889 0.0
N775 N 0.86481 0.17571 0.66098 0.0
loop_
_geom_bond_atom_site_label_1
_geom_bond_atom_site_label_2
_geom_bond_distance
_geom_bond_site_symmetry_2
_ccdc_geom_bond_type
P0 O11 1.490 . S
P0 C14 1.812 1_556 S
P0 C20 1.803 . S
P0 C26 1.819 . S
H1 C15 0.941 . S
H2 C16 0.939 . S
H3 C18 0.940 . S
H4 C19 0.940 . S
H5 C21 0.939 . S
H6 C22 0.942 . S
H7 C24 0.940 1_554 S
H8 C25 0.939 . S
H9 C27 0.941 . S
H10 C31 0.939 . S
O11 P0 1.490 . S
H12 C28 0.939 . S
H13 C30 0.940 . S
C14 P0 1.812 1_554 S
C14 C15 1.389 . S
C14 C19 1.391 . S
C15 H1 0.941 . S
C15 C14 1.389 . S
C15 C16 1.397 . S
C16 H2 0.939 . S
C16 C15 1.397 . S
C16 C17 1.378 . S
C17 C16 1.378 . S
C17 C18 1.378 . S
C18 H3 0.940 . S
C18 C17 1.378 . S
C18 C19 1.396 . S
C19 H4 0.940 . S
C19 C14 1.391 . S
C19 C18 1.396 . S
C20 P0 1.803 . S
C20 C21 1.378 . S
C20 C25 1.400 1_556 S
C21 H5 0.939 . S
C21 C20 1.378 . S
C21 C22 1.361 . S
C22 H6 0.942 . S
C22 C21 1.361 . S
C22 C23 1.369 . S
C23 C22 1.369 . S
C23 C24 1.404 . S
C24 H7 0.940 1_556 S
C24 C23 1.404 . S
C24 C25 1.389 1_556 S
C25 H8 0.939 . S
C25 C20 1.400 1_554 S
C25 C24 1.389 1_554 S
C26 P0 1.819 . S
C26 C27 1.391 . S
C26 C31 1.391 . S
C27 H9 0.941 . S
C27 C26 1.391 . S
C27 C28 1.396 . S
C28 H12 0.939 . S
C28 C27 1.396 . S
C28 C29 1.397 . S
C29 C28 1.397 . S
C29 C30 1.385 . S
C30 H13 0.940 . S
C30 C29 1.385 . S
C30 C31 1.388 . S
C31 H10 0.939 . S
C31 C26 1.391 . S
C31 C30 1.388 . S
P32 O43 1.490 . S
P32 C46 1.812 . S
P32 C52 1.803 . S
P32 C58 1.819 . S
H33 C47 0.941 . S
H34 C48 0.939 . S
H35 C50 0.940 . S
H36 C51 0.940 . S
H37 C53 0.939 . S
H38 C54 0.942 . S
H39 C56 0.940 . S
H40 C57 0.939 . S
H41 C59 0.941 . S
H42 C63 0.939 . S
O43 P32 1.490 . S
H44 C60 0.939 . S
H45 C62 0.940 . S
C46 P32 1.812 . S
C46 C47 1.389 . S
C46 C51 1.391 . S
C47 H33 0.941 . S
C47 C46 1.389 . S
C47 C48 1.397 . S
C48 H34 0.939 . S
C48 C47 1.397 . S
C48 C49 1.378 . S
C49 C48 1.378 . S
C49 C50 1.378 . S
C50 H35 0.940 . S
C50 C49 1.378 . S
C50 C51 1.396 . S
C51 H36 0.940 . S
C51 C46 1.391 . S
C51 C50 1.396 . S
C52 P32 1.803 . S
C52 C53 1.378 . S
C52 C57 1.400 . S
C53 H37 0.939 . S
C53 C52 1.378 . S
C53 C54 1.361 . S
C54 H38 0.942 . S
C54 C53 1.361 . S
C54 C55 1.369 . S
C55 C54 1.369 . S
C55 C56 1.404 . S
C56 H39 0.940 . S
C56 C55 1.404 . S
C56 C57 1.389 . S
C57 H40 0.939 . S
C57 C52 1.400 . S
C57 C56 1.389 . S
C58 P32 1.819 . S
C58 C59 1.391 . S
C58 C63 1.391 . S
C59 H41 0.941 . S
C59 C58 1.391 . S
C59 C60 1.396 . S
C60 H44 0.939 . S
C60 C59 1.396 . S
C60 C61 1.397 . S
C61 C60 1.397 . S
C61 C62 1.385 . S
C62 H45 0.940 . S
C62 C61 1.385 . S
C62 C63 1.388 . S
C63 H42 0.939 . S
C63 C58 1.391 . S
C63 C62 1.388 . S
P64 O75 1.490 . S
P64 C78 1.812 . S
P64 C84 1.803 . S
P64 C90 1.819 1_554 S
H65 C79 0.941 . S
H66 C80 0.939 . S
H67 C82 0.940 . S
H68 C83 0.940 . S
H69 C85 0.939 . S
H70 C86 0.942 . S
H71 C88 0.940 . S
H72 C89 0.928 1_554 S
H73 C91 0.941 . S
H74 C95 0.939 . S
O75 P64 1.490 . S
H76 C92 0.939 . S
H77 C94 0.940 . S
C78 P64 1.812 . S
C78 C79 1.389 . S
C78 C83 1.391 . S
C79 H65 0.941 . S
C79 C78 1.389 . S
C79 C80 1.397 . S
C80 H66 0.939 . S
C80 C79 1.397 . S
C80 C81 1.378 . S
C81 C80 1.378 . S
C81 C82 1.378 . S
C82 H67 0.940 . S
C82 C81 1.378 . S
C82 C83 1.396 . S
C83 H68 0.940 . S
C83 C78 1.391 . S
C83 C82 1.396 . S
C84 P64 1.803 . S
C84 C85 1.378 1_554 S
C84 C89 1.395 1_554 S
C85 H69 0.939 . S
C85 C84 1.378 1_556 S
C85 C86 1.361 . S
C86 H70 0.942 . S
C86 C85 1.361 . S
C86 C87 1.369 . S
C87 C86 1.369 . S
C87 C88 1.404 . S
C88 H71 0.940 . S
C88 C87 1.404 . S
C88 C89 1.406 . S
C89 H72 0.928 1_556 S
C89 C84 1.395 1_556 S
C89 C88 1.406 . S
C90 P64 1.819 1_556 S
C90 C91 1.391 1_556 S
C90 C95 1.391 . S
C91 H73 0.941 . S
C91 C90 1.391 1_554 S
C91 C92 1.396 1_554 S
C92 H76 0.939 . S
C92 C91 1.396 1_556 S
C92 C93 1.397 . S
C93 C92 1.397 . S
C93 C94 1.385 . S
C94 H77 0.940 . S
C94 C93 1.385 . S
C94 C95 1.388 . S
C95 H74 0.939 . S
C95 C90 1.391 . S
C95 C94 1.388 . S
P96 O107 1.490 . S
P96 C110 1.812 . S
P96 C116 1.803 . S
P96 C122 1.819 . S
H97 C111 0.941 . S
H98 C112 0.939 . S
H99 C114 0.940 . S
H100 C115 0.940 . S
H101 C117 0.939 . S
H102 C118 0.942 . S
H103 C120 0.940 . S
H104 C121 0.939 . S
H105 C123 0.941 . S
H106 C127 0.939 . S
O107 P96 1.490 . S
H108 C124 0.939 . S
H109 C126 0.940 . S
C110 P96 1.812 . S
C110 C111 1.389 . S
C110 C115 1.391 . S
C111 H97 0.941 . S
C111 C110 1.389 . S
C111 C112 1.397 . S
C112 H98 0.939 . S
C112 C111 1.397 . S
C112 C113 1.378 . S
C113 C112 1.378 . S
C113 C114 1.378 . S
C114 H99 0.940 . S
C114 C113 1.378 . S
C114 C115 1.396 . S
C115 H100 0.940 . S
C115 C110 1.391 . S
C115 C114 1.396 . S
C116 P96 1.803 . S
C116 C117 1.378 . S
C116 C121 1.400 . S
C117 H101 0.939 . S
C117 C116 1.378 . S
C117 C118 1.361 . S
C118 H102 0.942 . S
C118 C117 1.361 . S
C118 C119 1.369 . S
C119 C118 1.369 . S
C119 C120 1.404 . S
C120 H103 0.940 . S
C120 C119 1.404 . S
C120 C121 1.389 . S
C121 H104 0.939 . S
C121 C116 1.400 . S
C121 C120 1.389 . S
C122 P96 1.819 . S
C122 C123 1.391 . S
C122 C127 1.391 . S
C123 H105 0.941 . S
C123 C122 1.391 . S
C123 C124 1.396 . S
C124 H108 0.939 . S
C124 C123 1.396 . S
C124 C125 1.397 . S
C125 C124 1.397 . S
C125 C126 1.385 . S
C126 H109 0.940 . S
C126 C125 1.385 . S
C126 C127 1.388 . S
C127 H106 0.939 . S
C127 C122 1.391 . S
C127 C126 1.388 . S
P128 O139 1.490 . S
P128 C142 1.812 1_556 S
P128 C148 1.803 . S
P128 C154 1.819 . S
H129 C143 0.941 . S
H130 C144 0.939 . S
H131 C146 0.940 . S
H132 C147 0.940 . S
H133 C149 0.939 . S
H134 C150 0.942 . S
H135 C152 0.940 1_554 S
H136 C153 0.939 . S
H137 C155 0.941 . S
H138 C159 0.939 . S
O139 P128 1.490 . S
H140 C156 0.939 . S
H141 C158 0.940 . S
C142 P128 1.812 1_554 S
C142 C143 1.389 . S
C142 C147 1.391 . S
C143 H129 0.941 . S
C143 C142 1.389 . S
C143 C144 1.397 . S
C144 H130 0.939 . S
C144 C143 1.397 . S
C144 C145 1.378 . S
C145 C144 1.378 . S
C145 C146 1.378 . S
C146 H131 0.940 . S
C146 C145 1.378 . S
C146 C147 1.396 . S
C147 H132 0.940 . S
C147 C142 1.391 . S
C147 C146 1.396 . S
C148 P128 1.803 . S
C148 C149 1.378 . S
C148 C153 1.400 1_556 S
C149 H133 0.939 . S
C149 C148 1.378 . S
C149 C150 1.361 . S
C150 H134 0.942 . S
C150 C149 1.361 . S
C150 C151 1.369 . S
C151 C150 1.369 . S
C151 C152 1.404 . S
C152 H135 0.940 1_556 S
C152 C151 1.404 . S
C152 C153 1.389 1_556 S
C153 H136 0.939 . S
C153 C148 1.400 1_554 S
C153 C152 1.389 1_554 S
C154 P128 1.819 . S
C154 C155 1.391 . S
C154 C159 1.391 . S
C155 H137 0.941 . S
C155 C154 1.391 . S
C155 C156 1.396 . S
C156 H140 0.939 . S
C156 C155 1.396 . S
C156 C157 1.397 . S
C157 C156 1.397 . S
C157 C158 1.385 . S
C158 H141 0.940 . S
C158 C157 1.385 . S
C158 C159 1.388 . S
C159 H138 0.939 . S
C159 C154 1.391 . S
C159 C158 1.388 . S
P160 O171 1.490 . S
P160 C174 1.812 . S
P160 C180 1.803 . S
P160 C186 1.819 . S
H161 C175 0.941 . S
H162 C176 0.939 . S
H163 C178 0.940 . S
H164 C179 0.940 . S
H165 C181 0.939 . S
H166 C182 0.942 . S
H167 C184 0.940 . S
H168 C185 0.939 . S
H169 C187 0.941 . S
H170 C191 0.939 . S
O171 P160 1.490 . S
H172 C188 0.939 . S
H173 C190 0.940 . S
C174 P160 1.812 . S
C174 C175 1.389 . S
C174 C179 1.391 . S
C175 H161 0.941 . S
C175 C174 1.389 . S
C175 C176 1.397 . S
C176 H162 0.939 . S
C176 C175 1.397 . S
C176 C177 1.378 . S
C177 C176 1.378 . S
C177 C178 1.378 . S
C178 H163 0.940 . S
C178 C177 1.378 . S
C178 C179 1.396 . S
C179 H164 0.940 . S
C179 C174 1.391 . S
C179 C178 1.396 . S
C180 P160 1.803 . S
C180 C181 1.378 . S
C180 C185 1.400 . S
C181 H165 0.939 . S
C181 C180 1.378 . S
C181 C182 1.361 . S
C182 H166 0.942 . S
C182 C181 1.361 . S
C182 C183 1.369 . S
C183 C182 1.369 . S
C183 C184 1.404 . S
C184 H167 0.940 . S
C184 C183 1.404 . S
C184 C185 1.389 . S
C185 H168 0.939 . S
C185 C180 1.400 . S
C185 C184 1.389 . S
C186 P160 1.819 . S
C186 C187 1.391 . S
C186 C191 1.391 . S
C187 H169 0.941 . S
C187 C186 1.391 . S
C187 C188 1.396 . S
C188 H172 0.939 . S
C188 C187 1.396 . S
C188 C189 1.397 . S
C189 C188 1.397 . S
C189 C190 1.385 . S
C190 H173 0.940 . S
C190 C189 1.385 . S
C190 C191 1.388 . S
C191 H170 0.939 . S
C191 C186 1.391 . S
C191 C190 1.388 . S
P192 O203 1.490 . S
P192 C206 1.812 . S
P192 C212 1.803 . S
P192 C218 1.819 1_554 S
H193 C207 0.941 . S
H194 C208 0.939 . S
H195 C210 0.940 . S
H196 C211 0.940 . S
H197 C213 0.939 . S
H198 C214 0.942 . S
H199 C216 0.940 . S
H200 C217 0.928 1_554 S
H201 C219 0.941 . S
H202 C223 0.939 . S
O203 P192 1.490 . S
H204 C220 0.927 1_545 S
H205 C222 0.940 . S
C206 P192 1.812 . S
C206 C207 1.389 . S
C206 C211 1.391 . S
C207 H193 0.941 . S
C207 C206 1.389 . S
C207 C208 1.397 . S
C208 H194 0.939 . S
C208 C207 1.397 . S
C208 C209 1.378 . S
C209 C208 1.378 . S
C209 C210 1.378 . S
C210 H195 0.940 . S
C210 C209 1.378 . S
C210 C211 1.396 . S
C211 H196 0.940 . S
C211 C206 1.391 . S
C211 C210 1.396 . S
C212 P192 1.803 . S
C212 C213 1.378 1_554 S
C212 C217 1.395 1_554 S
C213 H197 0.939 . S
C213 C212 1.378 1_556 S
C213 C214 1.361 . S
C214 H198 0.942 . S
C214 C213 1.361 . S
C214 C215 1.369 . S
C215 C214 1.369 . S
C215 C216 1.404 . S
C216 H199 0.940 . S
C216 C215 1.404 . S
C216 C217 1.406 . S
C217 H200 0.928 1_556 S
C217 C212 1.395 1_556 S
C217 C216 1.406 . S
C218 P192 1.819 1_556 S
C218 C219 1.391 1_556 S
C218 C223 1.391 . S
C219 H201 0.941 . S
C219 C218 1.391 1_554 S
C219 C220 1.396 1_554 S
C220 H204 0.927 1_565 S
C220 C219 1.396 1_556 S
C220 C221 1.397 . S
C221 C220 1.397 . S
C221 C222 1.385 . S
C222 H205 0.940 . S
C222 C221 1.385 . S
C222 C223 1.388 . S
C223 H202 0.939 . S
C223 C218 1.391 . S
C223 C222 1.388 . S
P224 O235 1.490 . S
P224 C238 1.812 . S
P224 C244 1.803 . S
P224 C250 1.819 . S
H225 C239 0.941 . S
H226 C240 0.939 . S
H227 C242 0.940 . S
H228 C243 0.940 . S
H229 C245 0.939 . S
H230 C246 0.942 . S
H231 C248 0.940 . S
H232 C249 0.939 . S
H233 C251 0.941 . S
H234 C255 0.939 . S
O235 P224 1.490 . S
H236 C252 0.939 . S
H237 C254 0.940 . S
C238 P224 1.812 . S
C238 C239 1.389 . S
C238 C243 1.391 . S
C239 H225 0.941 . S
C239 C238 1.389 . S
C239 C240 1.397 . S
C240 H226 0.939 . S
C240 C239 1.397 . S
C240 C241 1.378 . S
C241 C240 1.378 . S
C241 C242 1.378 . S
C242 H227 0.940 . S
C242 C241 1.378 . S
C242 C243 1.396 . S
C243 H228 0.940 . S
C243 C238 1.391 . S
C243 C242 1.396 . S
C244 P224 1.803 . S
C244 C245 1.378 . S
C244 C249 1.400 . S
C245 H229 0.939 . S
C245 C244 1.378 . S
C245 C246 1.361 . S
C246 H230 0.942 . S
C246 C245 1.361 . S
C246 C247 1.369 . S
C247 C246 1.369 . S
C247 C248 1.404 . S
C248 H231 0.940 . S
C248 C247 1.404 . S
C248 C249 1.389 . S
C249 H232 0.939 . S
C249 C244 1.400 . S
C249 C248 1.389 . S
C250 P224 1.819 . S
C250 C251 1.391 . S
C250 C255 1.391 . S
C251 H233 0.941 . S
C251 C250 1.391 . S
C251 C252 1.396 . S
C252 H236 0.939 . S
C252 C251 1.396 . S
C252 C253 1.397 . S
C253 C252 1.397 . S
C253 C254 1.385 . S
C254 H237 0.940 . S
C254 C253 1.385 . S
C254 C255 1.388 . S
C255 H234 0.939 . S
C255 C250 1.391 . S
C255 C254 1.388 . S
Fe256 O258 1.918 . S
Fe256 O261 1.997 1_455 S
Fe256 O262 2.002 1_455 S
Fe256 O267 1.976 . S
Fe256 O270 1.996 . S
Fe257 O258 1.918 . S
Fe257 O265 1.997 1_455 S
Fe257 O268 1.996 . S
Fe257 O272 1.976 . S
Fe257 O275 2.002 1_455 S
O258 Fe256 1.918 . S
O258 Fe257 1.918 . S
O258 Fe259 1.918 . S
Fe259 O258 1.918 . S
Fe259 O260 2.002 1_455 S
Fe259 O269 1.976 . S
Fe259 O273 1.996 . S
Fe259 O276 1.997 1_455 S
O260 Fe259 2.002 1_655 S
O260 C277 1.295 . S
O261 Fe256 1.997 1_655 S
O261 C277 1.235 . S
O262 Fe256 2.002 1_655 S
O262 C263 1.295 . S
C263 O262 1.295 . S
C263 O265 1.235 . S
C264 O269 1.287 . S
C264 O270 1.255 . S
O265 Fe257 1.997 1_655 S
O265 C263 1.235 . S
C266 O272 1.287 . S
C266 O273 1.255 . S
O267 Fe256 1.976 . S
O267 C274 1.287 . S
O268 Fe257 1.996 . S
O268 C274 1.255 . S
O269 Fe259 1.976 . S
O269 C264 1.287 . S
O270 Fe256 1.996 . S
O270 C264 1.255 . S
C271 O275 1.295 . S
C271 O276 1.235 . S
O272 Fe257 1.976 . S
O272 C266 1.287 . S
O273 Fe259 1.996 . S
O273 C266 1.255 . S
C274 O267 1.287 . S
C274 O268 1.255 . S
O275 Fe257 2.002 1_655 S
O275 C271 1.295 . S
O276 Fe259 1.997 1_655 S
O276 C271 1.235 . S
C277 O260 1.295 . S
C277 O261 1.235 . S
Fe278 O280 1.919 . S
Fe278 O283 1.979 1_655 S
Fe278 O284 1.984 1_655 S
Fe278 O289 1.994 . S
Fe278 O292 2.014 . S
Fe279 O280 1.919 . S
Fe279 O287 1.979 1_655 S
Fe279 O290 2.013 . S
Fe279 O294 1.994 . S
Fe279 O297 1.984 1_655 S
O280 Fe278 1.919 . S
O280 Fe279 1.919 . S
O280 Fe281 1.919 . S
Fe281 O280 1.919 . S
Fe281 O282 1.984 1_655 S
Fe281 O291 1.994 . S
Fe281 O295 2.013 . S
Fe281 O298 1.979 1_655 S
O282 Fe281 1.984 1_455 S
O282 C299 1.295 . S
O283 Fe278 1.979 1_455 S
O283 C299 1.235 . S
O284 Fe278 1.984 1_455 S
O284 C285 1.295 . S
C285 O284 1.295 . S
C285 O287 1.235 . S
C286 O291 1.287 . S
C286 O292 1.255 . S
O287 Fe279 1.979 1_455 S
O287 C285 1.235 . S
C288 O294 1.287 . S
C288 O295 1.255 . S
O289 Fe278 1.994 . S
O289 C296 1.287 . S
O290 Fe279 2.013 . S
O290 C296 1.255 . S
O291 Fe281 1.994 . S
O291 C286 1.287 . S
O292 Fe278 2.014 . S
O292 C286 1.255 . S
C293 O297 1.295 . S
C293 O298 1.235 . S
O294 Fe279 1.994 . S
O294 C288 1.287 . S
O295 Fe281 2.013 . S
O295 C288 1.255 . S
C296 O289 1.287 . S
C296 O290 1.255 . S
O297 Fe279 1.984 1_455 S
O297 C293 1.295 . S
O298 Fe281 1.979 1_455 S
O298 C293 1.235 . S
C299 O282 1.295 . S
C299 O283 1.235 . S
Fe300 O302 1.918 . S
Fe300 O305 1.997 . S
Fe300 O306 2.002 . S
Fe300 O311 1.976 . S
Fe300 O314 1.996 . S
Fe301 O302 1.918 . S
Fe301 O309 1.997 . S
Fe301 O312 1.996 . S
Fe301 O316 1.976 . S
Fe301 O319 2.002 . S
O302 Fe300 1.918 . S
O302 Fe301 1.918 . S
O302 Fe303 1.918 . S
Fe303 O302 1.918 . S
Fe303 O304 2.002 . S
Fe303 O313 1.976 . S
Fe303 O317 1.996 . S
Fe303 O320 1.997 . S
O304 Fe303 2.002 . S
O304 C321 1.295 . S
O305 Fe300 1.997 . S
O305 C321 1.235 . S
O306 Fe300 2.002 . S
O306 C307 1.295 . S
C307 O306 1.295 . S
C307 O309 1.235 . S
C308 O313 1.287 . S
C308 O314 1.255 . S
O309 Fe301 1.997 . S
O309 C307 1.235 . S
C310 O316 1.287 . S
C310 O317 1.255 . S
O311 Fe300 1.976 . S
O311 C318 1.287 . S
O312 Fe301 1.996 . S
O312 C318 1.255 . S
O313 Fe303 1.976 . S
O313 C308 1.287 . S
O314 Fe300 1.996 . S
O314 C308 1.255 . S
C315 O319 1.295 . S
C315 O320 1.235 . S
O316 Fe301 1.976 . S
O316 C310 1.287 . S
O317 Fe303 1.996 . S
O317 C310 1.255 . S
C318 O311 1.287 . S
C318 O312 1.255 . S
O319 Fe301 2.002 . S
O319 C315 1.295 . S
O320 Fe303 1.997 . S
O320 C315 1.235 . S
C321 O304 1.295 . S
C321 O305 1.235 . S
Fe322 O324 1.918 . S
Fe322 O327 1.997 . S
Fe322 O328 2.002 . S
Fe322 O333 1.976 . S
Fe322 O336 1.996 . S
Fe323 O324 1.918 . S
Fe323 O331 1.997 . S
Fe323 O334 1.996 . S
Fe323 O338 1.976 . S
Fe323 O341 2.002 . S
O324 Fe322 1.918 . S
O324 Fe323 1.918 . S
O324 Fe325 1.918 . S
Fe325 O324 1.918 . S
Fe325 O326 2.002 . S
Fe325 O335 1.976 . S
Fe325 O339 1.996 . S
Fe325 O342 1.997 . S
O326 Fe325 2.002 . S
O326 C343 1.295 . S
O327 Fe322 1.997 . S
O327 C343 1.235 . S
O328 Fe322 2.002 . S
O328 C329 1.295 . S
C329 O328 1.295 . S
C329 O331 1.235 . S
C330 O335 1.287 . S
C330 O336 1.255 . S
O331 Fe323 1.997 . S
O331 C329 1.235 . S
C332 O338 1.287 . S
C332 O339 1.255 . S
O333 Fe322 1.976 . S
O333 C340 1.287 . S
O334 Fe323 1.996 . S
O334 C340 1.255 . S
O335 Fe325 1.976 . S
O335 C330 1.287 . S
O336 Fe322 1.996 . S
O336 C330 1.255 . S
C337 O341 1.295 . S
C337 O342 1.235 . S
O338 Fe323 1.976 . S
O338 C332 1.287 . S
O339 Fe325 1.996 . S
O339 C332 1.255 . S
C340 O333 1.287 . S
C340 O334 1.255 . S
O341 Fe323 2.002 . S
O341 C337 1.295 . S
O342 Fe325 1.997 . S
O342 C337 1.235 . S
C343 O326 1.295 . S
C343 O327 1.235 . S
H344 C350 0.930 . S
H345 C354 0.930 . S
H346 C359 0.929 . S
H347 C357 0.929 . S
H348 C352 0.929 . S
H349 C358 0.929 . S
C350 H344 0.930 . S
C350 C351 1.367 . S
C350 C358 1.378 . S
C351 C350 1.367 . S
C351 C359 1.433 . S
C352 H348 0.929 . S
C352 C354 1.378 . S
C352 C356 1.350 . S
C353 C356 1.463 . S
C353 C358 1.350 . S
C353 N361 1.427 . S
C354 H345 0.930 . S
C354 C352 1.378 . S
C354 C355 1.367 . S
C355 C354 1.367 . S
C355 C357 1.433 . S
C356 C352 1.350 . S
C356 C353 1.463 . S
C356 N360 1.427 . S
C357 H347 0.929 . S
C357 C355 1.433 . S
C357 N360 1.384 . S
C358 H349 0.929 . S
C358 C350 1.378 . S
C358 C353 1.350 . S
C359 H346 0.929 . S
C359 C351 1.433 . S
C359 N361 1.384 . S
N360 C356 1.427 . S
N360 C357 1.384 . S
N361 C353 1.427 . S
N361 C359 1.384 . S
H362 C368 0.930 . S
H363 C372 0.930 . S
H364 C377 0.929 . S
H365 C375 0.929 . S
H366 C370 0.929 . S
H367 C376 0.929 . S
C368 H362 0.930 . S
C368 C369 1.367 . S
C368 C376 1.378 . S
C369 C368 1.367 . S
C369 C377 1.433 . S
C370 H366 0.929 . S
C370 C372 1.378 . S
C370 C374 1.350 . S
C371 C374 1.463 . S
C371 C376 1.350 . S
C371 N379 1.427 . S
C372 H363 0.930 . S
C372 C370 1.378 . S
C372 C373 1.367 . S
C373 C372 1.367 . S
C373 C375 1.433 . S
C374 C370 1.350 . S
C374 C371 1.463 . S
C374 N378 1.427 . S
C375 H365 0.929 . S
C375 C373 1.433 . S
C375 N378 1.384 . S
C376 H367 0.929 . S
C376 C368 1.378 . S
C376 C371 1.350 . S
C377 H364 0.929 . S
C377 C369 1.433 . S
C377 N379 1.384 . S
N378 C374 1.427 . S
N378 C375 1.384 . S
N379 C371 1.427 . S
N379 C377 1.384 . S
H380 C386 0.930 . S
H381 C390 0.930 . S
H382 C395 0.929 . S
H383 C393 0.929 . S
H384 C388 0.929 . S
H385 C394 0.929 . S
C386 H380 0.930 . S
C386 C387 1.367 . S
C386 C394 1.378 . S
C387 C386 1.367 . S
C387 C395 1.433 . S
C388 H384 0.929 . S
C388 C390 1.378 . S
C388 C392 1.350 . S
C389 C392 1.463 . S
C389 C394 1.350 . S
C389 N397 1.427 . S
C390 H381 0.930 . S
C390 C388 1.378 . S
C390 C391 1.367 . S
C391 C390 1.367 . S
C391 C393 1.433 . S
C392 C388 1.350 . S
C392 C389 1.463 . S
C392 N396 1.427 . S
C393 H383 0.929 . S
C393 C391 1.433 . S
C393 N396 1.384 . S
C394 H385 0.929 . S
C394 C386 1.378 . S
C394 C389 1.350 . S
C395 H382 0.929 . S
C395 C387 1.433 . S
C395 N397 1.384 . S
N396 C392 1.427 . S
N396 C393 1.384 . S
N397 C389 1.427 . S
N397 C395 1.384 . S
H398 C404 0.930 . S
H399 C408 0.930 . S
H400 C413 0.929 . S
H401 C411 0.929 . S
H402 C406 0.929 . S
H403 C412 0.929 . S
C404 H398 0.930 . S
C404 C405 1.367 . S
C404 C412 1.378 . S
C405 C404 1.367 . S
C405 C413 1.433 . S
C406 H402 0.929 . S
C406 C408 1.378 . S
C406 C410 1.350 . S
C407 C410 1.463 . S
C407 C412 1.350 . S
C407 N415 1.427 . S
C408 H399 0.930 . S
C408 C406 1.378 . S
C408 C409 1.367 . S
C409 C408 1.367 . S
C409 C411 1.433 . S
C410 C406 1.350 . S
C410 C407 1.463 . S
C410 N414 1.427 . S
C411 H401 0.929 . S
C411 C409 1.433 . S
C411 N414 1.384 . S
C412 H403 0.929 . S
C412 C404 1.378 . S
C412 C407 1.350 . S
C413 H400 0.929 . S
C413 C405 1.433 . S
C413 N415 1.384 . S
N414 C410 1.427 . S
N414 C411 1.384 . S
N415 C407 1.427 . S
N415 C413 1.384 . S
H416 C422 0.930 . S
H417 C426 0.930 . S
H418 C431 0.929 . S
H419 C429 0.929 . S
H420 C424 0.929 . S
H421 C430 0.929 . S
C422 H416 0.930 . S
C422 C423 1.367 . S
C422 C430 1.378 . S
C423 C422 1.367 . S
C423 C431 1.433 . S
C424 H420 0.929 . S
C424 C426 1.378 . S
C424 C428 1.350 . S
C425 C428 1.463 . S
C425 C430 1.350 . S
C425 N433 1.427 . S
C426 H417 0.930 . S
C426 C424 1.378 . S
C426 C427 1.367 . S
C427 C426 1.367 . S
C427 C429 1.433 . S
C428 C424 1.350 . S
C428 C425 1.463 . S
C428 N432 1.427 . S
C429 H419 0.929 . S
C429 C427 1.433 . S
C429 N432 1.384 . S
C430 H421 0.929 . S
C430 C422 1.378 . S
C430 C425 1.350 . S
C431 H418 0.929 . S
C431 C423 1.433 . S
C431 N433 1.384 . S
N432 C428 1.427 . S
N432 C429 1.384 . S
N433 C425 1.427 . S
N433 C431 1.384 . S
H434 C440 0.930 . S
H435 C444 0.930 . S
H436 C449 0.929 . S
H437 C447 0.929 . S
H438 C442 0.929 . S
H439 C448 0.929 . S
C440 H434 0.930 . S
C440 C441 1.367 . S
C440 C448 1.378 . S
C441 C440 1.367 . S
C441 C449 1.433 . S
C442 H438 0.929 . S
C442 C444 1.378 . S
C442 C446 1.350 . S
C443 C446 1.463 . S
C443 C448 1.350 . S
C443 N451 1.427 . S
C444 H435 0.930 . S
C444 C442 1.378 . S
C444 C445 1.367 . S
C445 C444 1.367 . S
C445 C447 1.433 . S
C446 C442 1.350 . S
C446 C443 1.463 . S
C446 N450 1.427 . S
C447 H437 0.929 . S
C447 C445 1.433 . S
C447 N450 1.384 . S
C448 H439 0.929 . S
C448 C440 1.378 . S
C448 C443 1.350 . S
C449 H436 0.929 . S
C449 C441 1.433 . S
C449 N451 1.384 . S
N450 C446 1.427 . S
N450 C447 1.384 . S
N451 C443 1.427 . S
N451 C449 1.384 . S
H452 C458 0.930 . S
H453 C462 0.930 . S
H454 C467 0.929 . S
H455 C465 0.929 . S
H456 C460 0.929 . S
H457 C466 0.929 . S
C458 H452 0.930 . S
C458 C459 1.367 . S
C458 C466 1.378 . S
C459 C458 1.367 . S
C459 C467 1.433 . S
C460 H456 0.929 . S
C460 C462 1.378 . S
C460 C464 1.350 . S
C461 C464 1.463 . S
C461 C466 1.350 . S
C461 N469 1.427 . S
C462 H453 0.930 . S
C462 C460 1.378 . S
C462 C463 1.367 . S
C463 C462 1.367 . S
C463 C465 1.433 . S
C464 C460 1.350 . S
C464 C461 1.463 . S
C464 N468 1.427 . S
C465 H455 0.929 . S
C465 C463 1.433 . S
C465 N468 1.384 . S
C466 H457 0.929 . S
C466 C458 1.378 . S
C466 C461 1.350 . S
C467 H454 0.929 . S
C467 C459 1.433 . S
C467 N469 1.384 . S
N468 C464 1.427 . S
N468 C465 1.384 . S
N469 C461 1.427 . S
N469 C467 1.384 . S
H470 C476 0.930 . S
H471 C480 0.930 . S
H472 C485 0.929 . S
H473 C483 0.929 . S
H474 C478 0.929 . S
H475 C484 0.929 . S
C476 H470 0.930 . S
C476 C477 1.367 . S
C476 C484 1.378 . S
C477 C476 1.367 . S
C477 C485 1.433 . S
C478 H474 0.929 . S
C478 C480 1.378 . S
C478 C482 1.350 . S
C479 C482 1.463 . S
C479 C484 1.350 . S
C479 N487 1.427 . S
C480 H471 0.930 . S
C480 C478 1.378 . S
C480 C481 1.367 . S
C481 C480 1.367 . S
C481 C483 1.433 . S
C482 C478 1.350 . S
C482 C479 1.463 . S
C482 N486 1.427 . S
C483 H473 0.929 . S
C483 C481 1.433 . S
C483 N486 1.384 . S
C484 H475 0.929 . S
C484 C476 1.378 . S
C484 C479 1.350 . S
C485 H472 0.929 . S
C485 C477 1.433 . S
C485 N487 1.384 . S
N486 C482 1.427 . S
N486 C483 1.384 . S
N487 C479 1.427 . S
N487 C485 1.384 . S
H488 C494 0.930 . S
H489 C498 0.930 . S
H490 C503 0.929 . S
H491 C501 0.929 . S
H492 C496 0.929 . S
H493 C502 0.929 . S
C494 H488 0.930 . S
C494 C495 1.367 . S
C494 C502 1.378 . S
C495 C494 1.367 . S
C495 C503 1.433 . S
C496 H492 0.929 . S
C496 C498 1.378 . S
C496 C500 1.350 . S
C497 C500 1.463 . S
C497 C502 1.350 . S
C497 N505 1.427 . S
C498 H489 0.930 . S
C498 C496 1.378 . S
C498 C499 1.367 . S
C499 C498 1.367 . S
C499 C501 1.433 . S
C500 C496 1.350 . S
C500 C497 1.463 . S
C500 N504 1.427 . S
C501 H491 0.929 . S
C501 C499 1.433 . S
C501 N504 1.384 . S
C502 H493 0.929 . S
C502 C494 1.378 . S
C502 C497 1.350 . S
C503 H490 0.929 . S
C503 C495 1.433 . S
C503 N505 1.384 . S
N504 C500 1.427 . S
N504 C501 1.384 . S
N505 C497 1.427 . S
N505 C503 1.384 . S
H506 C512 0.930 . S
H507 C516 0.930 . S
H508 C521 0.929 . S
H509 C519 0.929 . S
H510 C514 0.929 . S
H511 C520 0.929 . S
C512 H506 0.930 . S
C512 C513 1.367 . S
C512 C520 1.378 . S
C513 C512 1.367 . S
C513 C521 1.433 . S
C514 H510 0.929 . S
C514 C516 1.378 . S
C514 C518 1.350 . S
C515 C518 1.463 . S
C515 C520 1.350 . S
C515 N523 1.427 . S
C516 H507 0.930 . S
C516 C514 1.378 . S
C516 C517 1.367 . S
C517 C516 1.367 . S
C517 C519 1.433 . S
C518 C514 1.350 . S
C518 C515 1.463 . S
C518 N522 1.427 . S
C519 H509 0.929 . S
C519 C517 1.433 . S
C519 N522 1.384 . S
C520 H511 0.929 . S
C520 C512 1.378 . S
C520 C515 1.350 . S
C521 H508 0.929 . S
C521 C513 1.433 . S
C521 N523 1.384 . S
N522 C518 1.427 . S
N522 C519 1.384 . S
N523 C515 1.427 . S
N523 C521 1.384 . S
H524 C530 0.930 . S
H525 C534 0.930 . S
H526 C539 0.929 . S
H527 C537 0.929 . S
H528 C532 0.929 . S
H529 C538 0.929 . S
C530 H524 0.930 . S
C530 C531 1.367 . S
C530 C538 1.378 . S
C531 C530 1.367 . S
C531 C539 1.433 . S
C532 H528 0.929 . S
C532 C534 1.378 . S
C532 C536 1.350 . S
C533 C536 1.463 . S
C533 C538 1.350 . S
C533 N541 1.427 . S
C534 H525 0.930 . S
C534 C532 1.378 . S
C534 C535 1.367 . S
C535 C534 1.367 . S
C535 C537 1.433 . S
C536 C532 1.350 . S
C536 C533 1.463 . S
C536 N540 1.427 . S
C537 H527 0.929 . S
C537 C535 1.433 . S
C537 N540 1.384 . S
C538 H529 0.929 . S
C538 C530 1.378 . S
C538 C533 1.350 . S
C539 H526 0.929 . S
C539 C531 1.433 . S
C539 N541 1.384 . S
N540 C536 1.427 . S
N540 C537 1.384 . S
N541 C533 1.427 . S
N541 C539 1.384 . S
H542 C548 0.930 . S
H543 C552 0.930 . S
H544 C557 0.929 . S
H545 C555 0.929 . S
H546 C550 0.929 . S
H547 C556 0.929 . S
C548 H542 0.930 . S
C548 C549 1.367 . S
C548 C556 1.378 . S
C549 C548 1.367 . S
C549 C557 1.433 . S
C550 H546 0.929 . S
C550 C552 1.378 . S
C550 C554 1.350 . S
C551 C554 1.463 . S
C551 C556 1.350 . S
C551 N559 1.427 . S
C552 H543 0.930 . S
C552 C550 1.378 . S
C552 C553 1.367 . S
C553 C552 1.367 . S
C553 C555 1.433 . S
C554 C550 1.350 . S
C554 C551 1.463 . S
C554 N558 1.427 . S
C555 H545 0.929 . S
C555 C553 1.433 . S
C555 N558 1.384 . S
C556 H547 0.929 . S
C556 C548 1.378 . S
C556 C551 1.350 . S
C557 H544 0.929 . S
C557 C549 1.433 . S
C557 N559 1.384 . S
N558 C554 1.427 . S
N558 C555 1.384 . S
N559 C551 1.427 . S
N559 C557 1.384 . S
H560 C566 0.930 . S
H561 C570 0.930 . S
H562 C575 0.929 1_565 S
H563 C573 0.929 . S
H564 C568 0.929 . S
H565 C574 0.929 . S
C566 H560 0.930 . S
C566 C567 1.367 . S
C566 C574 1.378 1_565 S
C567 C566 1.367 . S
C567 C575 1.433 1_565 S
C568 H564 0.929 . S
C568 C570 1.378 . S
C568 C572 1.350 . S
C569 C572 1.463 . S
C569 C574 1.350 . S
C569 N577 1.427 . S
C570 H561 0.930 . S
C570 C568 1.378 . S
C570 C571 1.367 . S
C571 C570 1.367 . S
C571 C573 1.433 . S
C572 C568 1.350 . S
C572 C569 1.463 . S
C572 N576 1.427 . S
C573 H563 0.929 . S
C573 C571 1.433 . S
C573 N576 1.384 . S
C574 H565 0.929 . S
C574 C566 1.378 1_545 S
C574 C569 1.350 . S
C575 H562 0.929 1_545 S
C575 C567 1.433 1_545 S
C575 N577 1.384 . S
N576 C572 1.427 . S
N576 C573 1.384 . S
N577 C569 1.427 . S
N577 C575 1.384 . S
H578 C584 0.930 . S
H579 C588 0.930 . S
H580 C593 0.929 1_545 S
H581 C591 0.929 . S
H582 C586 0.929 . S
H583 C592 0.929 . S
C584 H578 0.930 . S
C584 C585 1.367 . S
C584 C592 1.378 1_545 S
C585 C584 1.367 . S
C585 C593 1.433 1_545 S
C586 H582 0.929 . S
C586 C588 1.378 . S
C586 C590 1.350 . S
C587 C590 1.463 . S
C587 C592 1.350 . S
C587 N595 1.427 . S
C588 H579 0.930 . S
C588 C586 1.378 . S
C588 C589 1.367 . S
C589 C588 1.367 . S
C589 C591 1.433 . S
C590 C586 1.350 . S
C590 C587 1.463 . S
C590 N594 1.427 . S
C591 H581 0.929 . S
C591 C589 1.433 . S
C591 N594 1.384 . S
C592 H583 0.929 . S
C592 C584 1.378 1_565 S
C592 C587 1.350 . S
C593 H580 0.929 1_565 S
C593 C585 1.433 1_565 S
C593 N595 1.384 . S
N594 C590 1.427 . S
N594 C591 1.384 . S
N595 C587 1.427 . S
N595 C593 1.384 . S
H596 C602 0.930 . S
H597 C606 0.930 . S
H598 C611 0.929 . S
H599 C609 0.929 . S
H600 C604 0.929 . S
H601 C610 0.929 1_565 S
C602 H596 0.930 . S
C602 C603 1.367 . S
C602 C610 1.378 1_565 S
C603 C602 1.367 . S
C603 C611 1.433 1_565 S
C604 H600 0.929 . S
C604 C606 1.378 . S
C604 C608 1.350 . S
C605 C608 1.463 . S
C605 C610 1.350 . S
C605 N613 1.427 . S
C606 H597 0.930 . S
C606 C604 1.378 . S
C606 C607 1.367 . S
C607 C606 1.367 . S
C607 C609 1.433 . S
C608 C604 1.350 . S
C608 C605 1.463 . S
C608 N612 1.427 . S
C609 H599 0.929 . S
C609 C607 1.433 . S
C609 N612 1.384 . S
C610 H601 0.929 1_545 S
C610 C602 1.378 1_545 S
C610 C605 1.350 . S
C611 H598 0.929 . S
C611 C603 1.433 1_545 S
C611 N613 1.384 . S
N612 C608 1.427 . S
N612 C609 1.384 . S
N613 C605 1.427 . S
N613 C611 1.384 . S
H614 C620 0.930 . S
H615 C624 0.930 . S
H616 C629 0.929 . S
H617 C627 0.929 . S
H618 C622 0.929 . S
H619 C628 0.929 . S
C620 H614 0.930 . S
C620 C621 1.367 . S
C620 C628 1.378 1_545 S
C621 C620 1.367 . S
C621 C629 1.433 1_545 S
C622 H618 0.929 . S
C622 C624 1.378 . S
C622 C626 1.350 . S
C623 C626 1.463 . S
C623 C628 1.350 . S
C623 N631 1.427 . S
C624 H615 0.930 . S
C624 C622 1.378 . S
C624 C625 1.367 . S
C625 C624 1.367 . S
C625 C627 1.433 . S
C626 C622 1.350 . S
C626 C623 1.463 . S
C626 N630 1.427 . S
C627 H617 0.929 . S
C627 C625 1.433 . S
C627 N630 1.384 . S
C628 H619 0.929 . S
C628 C620 1.378 1_565 S
C628 C623 1.350 . S
C629 H616 0.929 . S
C629 C621 1.433 1_565 S
C629 N631 1.384 . S
N630 C626 1.427 . S
N630 C627 1.384 . S
N631 C623 1.427 . S
N631 C629 1.384 . S
H632 C638 0.930 . S
H633 C642 0.930 . S
H634 C647 0.929 . S
H635 C645 0.929 . S
H636 C640 0.929 . S
H637 C646 0.929 . S
C638 H632 0.930 . S
C638 C639 1.367 . S
C638 C646 1.378 . S
C639 C638 1.367 . S
C639 C647 1.433 . S
C640 H636 0.929 . S
C640 C642 1.378 . S
C640 C644 1.350 . S
C641 C644 1.463 . S
C641 C646 1.350 . S
C641 N649 1.427 . S
C642 H633 0.930 . S
C642 C640 1.378 . S
C642 C643 1.367 . S
C643 C642 1.367 . S
C643 C645 1.433 . S
C644 C640 1.350 . S
C644 C641 1.463 . S
C644 N648 1.427 . S
C645 H635 0.929 . S
C645 C643 1.433 . S
C645 N648 1.384 . S
C646 H637 0.929 . S
C646 C638 1.378 . S
C646 C641 1.350 . S
C647 H634 0.929 . S
C647 C639 1.433 . S
C647 N649 1.384 . S
N648 C644 1.427 . S
N648 C645 1.384 . S
N649 C641 1.427 . S
N649 C647 1.384 . S
H650 C656 0.930 . S
H651 C660 0.930 . S
H652 C665 0.929 . S
H653 C663 0.929 . S
H654 C658 0.929 . S
H655 C664 0.929 . S
C656 H650 0.930 . S
C656 C657 1.367 . S
C656 C664 1.378 . S
C657 C656 1.367 . S
C657 C665 1.433 . S
C658 H654 0.929 . S
C658 C660 1.378 . S
C658 C662 1.350 . S
C659 C662 1.463 . S
C659 C664 1.350 . S
C659 N667 1.427 . S
C660 H651 0.930 . S
C660 C658 1.378 . S
C660 C661 1.367 . S
C661 C660 1.367 . S
C661 C663 1.433 . S
C662 C658 1.350 . S
C662 C659 1.463 . S
C662 N666 1.427 . S
C663 H653 0.929 . S
C663 C661 1.433 . S
C663 N666 1.384 . S
C664 H655 0.929 . S
C664 C656 1.378 . S
C664 C659 1.350 . S
C665 H652 0.929 . S
C665 C657 1.433 . S
C665 N667 1.384 . S
N666 C662 1.427 . S
N666 C663 1.384 . S
N667 C659 1.427 . S
N667 C665 1.384 . S
H668 C674 0.930 . S
H669 C678 0.930 . S
H670 C683 0.929 . S
H671 C681 0.929 . S
H672 C676 0.929 . S
H673 C682 0.929 . S
C674 H668 0.930 . S
C674 C675 1.367 . S
C674 C682 1.378 . S
C675 C674 1.367 . S
C675 C683 1.433 . S
C676 H672 0.929 . S
C676 C678 1.378 . S
C676 C680 1.350 . S
C677 C680 1.463 . S
C677 C682 1.350 . S
C677 N685 1.427 . S
C678 H669 0.930 . S
C678 C676 1.378 . S
C678 C679 1.367 . S
C679 C678 1.367 . S
C679 C681 1.433 . S
C680 C676 1.350 . S
C680 C677 1.463 . S
C680 N684 1.427 . S
C681 H671 0.929 . S
C681 C679 1.433 . S
C681 N684 1.384 . S
C682 H673 0.929 . S
C682 C674 1.378 . S
C682 C677 1.350 . S
C683 H670 0.929 . S
C683 C675 1.433 . S
C683 N685 1.384 . S
N684 C680 1.427 . S
N684 C681 1.384 . S
N685 C677 1.427 . S
N685 C683 1.384 . S
H686 C692 0.930 . S
H687 C696 0.930 . S
H688 C701 0.929 . S
H689 C699 0.929 . S
H690 C694 0.929 . S
H691 C700 0.929 . S
C692 H686 0.930 . S
C692 C693 1.367 . S
C692 C700 1.378 . S
C693 C692 1.367 . S
C693 C701 1.433 . S
C694 H690 0.929 . S
C694 C696 1.378 . S
C694 C698 1.350 . S
C695 C698 1.463 . S
C695 C700 1.350 . S
C695 N703 1.427 . S
C696 H687 0.930 . S
C696 C694 1.378 . S
C696 C697 1.367 . S
C697 C696 1.367 . S
C697 C699 1.433 . S
C698 C694 1.350 . S
C698 C695 1.463 . S
C698 N702 1.427 . S
C699 H689 0.929 . S
C699 C697 1.433 . S
C699 N702 1.384 . S
C700 H691 0.929 . S
C700 C692 1.378 . S
C700 C695 1.350 . S
C701 H688 0.929 . S
C701 C693 1.433 . S
C701 N703 1.384 . S
N702 C698 1.427 . S
N702 C699 1.384 . S
N703 C695 1.427 . S
N703 C701 1.384 . S
H704 C710 0.930 . S
H705 C714 0.930 . S
H706 C719 0.929 . S
H707 C717 0.929 . S
H708 C712 0.929 . S
H709 C718 0.929 . S
C710 H704 0.930 . S
C710 C711 1.367 . S
C710 C718 1.378 . S
C711 C710 1.367 . S
C711 C719 1.433 . S
C712 H708 0.929 . S
C712 C714 1.378 . S
C712 C716 1.350 . S
C713 C716 1.463 . S
C713 C718 1.350 . S
C713 N721 1.427 . S
C714 H705 0.930 . S
C714 C712 1.378 . S
C714 C715 1.367 . S
C715 C714 1.367 . S
C715 C717 1.433 . S
C716 C712 1.350 . S
C716 C713 1.463 . S
C716 N720 1.427 . S
C717 H707 0.929 . S
C717 C715 1.433 . S
C717 N720 1.384 . S
C718 H709 0.929 . S
C718 C710 1.378 . S
C718 C713 1.350 . S
C719 H706 0.929 . S
C719 C711 1.433 . S
C719 N721 1.384 . S
N720 C716 1.427 . S
N720 C717 1.384 . S
N721 C713 1.427 . S
N721 C719 1.384 . S
H722 C728 0.930 . S
H723 C732 0.930 . S
H724 C737 0.929 . S
H725 C735 0.929 . S
H726 C730 0.929 . S
H727 C736 0.929 . S
C728 H722 0.930 . S
C728 C729 1.367 . S
C728 C736 1.378 . S
C729 C728 1.367 . S
C729 C737 1.433 . S
C730 H726 0.929 . S
C730 C732 1.378 . S
C730 C734 1.350 . S
C731 C734 1.463 . S
C731 C736 1.350 . S
C731 N739 1.427 . S
C732 H723 0.930 . S
C732 C730 1.378 . S
C732 C733 1.367 . S
C733 C732 1.367 . S
C733 C735 1.433 . S
C734 C730 1.350 . S
C734 C731 1.463 . S
C734 N738 1.427 . S
C735 H725 0.929 . S
C735 C733 1.433 . S
C735 N738 1.384 . S
C736 H727 0.929 . S
C736 C728 1.378 . S
C736 C731 1.350 . S
C737 H724 0.929 . S
C737 C729 1.433 . S
C737 N739 1.384 . S
N738 C734 1.427 . S
N738 C735 1.384 . S
N739 C731 1.427 . S
N739 C737 1.384 . S
H740 C746 0.930 . S
H741 C750 0.930 . S
H742 C755 0.929 . S
H743 C753 0.929 . S
H744 C748 0.929 . S
H745 C754 0.929 . S
C746 H740 0.930 . S
C746 C747 1.367 . S
C746 C754 1.378 . S
C747 C746 1.367 . S
C747 C755 1.433 . S
C748 H744 0.929 . S
C748 C750 1.378 . S
C748 C752 1.350 . S
C749 C752 1.463 . S
C749 C754 1.350 . S
C749 N757 1.427 . S
C750 H741 0.930 . S
C750 C748 1.378 . S
C750 C751 1.367 . S
C751 C750 1.367 . S
C751 C753 1.433 . S
C752 C748 1.350 . S
C752 C749 1.463 . S
C752 N756 1.427 . S
C753 H743 0.929 . S
C753 C751 1.433 . S
C753 N756 1.384 . S
C754 H745 0.929 . S
C754 C746 1.378 . S
C754 C749 1.350 . S
C755 H742 0.929 . S
C755 C747 1.433 . S
C755 N757 1.384 . S
N756 C752 1.427 . S
N756 C753 1.384 . S
N757 C749 1.427 . S
N757 C755 1.384 . S
H758 C764 0.930 . S
H759 C768 0.930 . S
H760 C773 0.929 . S
H761 C771 0.929 . S
H762 C766 0.929 . S
H763 C772 0.929 . S
C764 H758 0.930 . S
C764 C765 1.367 . S
C764 C772 1.378 . S
C765 C764 1.367 . S
C765 C773 1.433 . S
C766 H762 0.929 . S
C766 C768 1.378 . S
C766 C770 1.350 . S
C767 C770 1.463 . S
C767 C772 1.350 . S
C767 N775 1.427 . S
C768 H759 0.930 . S
C768 C766 1.378 . S
C768 C769 1.367 . S
C769 C768 1.367 . S
C769 C771 1.433 . S
C770 C766 1.350 . S
C770 C767 1.463 . S
C770 N774 1.427 . S
C771 H761 0.929 . S
C771 C769 1.433 . S
C771 N774 1.384 . S
C772 H763 0.929 . S
C772 C764 1.378 . S
C772 C767 1.350 . S
C773 H760 0.929 . S
C773 C765 1.433 . S
C773 N775 1.384 . S
N774 C770 1.427 . S
N774 C771 1.384 . S
N775 C767 1.427 . S
N775 C773 1.384 . S
C351 C23 1.507 . S
C355 C299 1.552 . S
C373 C263 1.503 . S
C369 C55 1.522 . S
C391 C286 1.544 . S
C387 C87 1.554 . S
C409 C274 1.495 . S
C405 C119 1.433 . S
C427 C343 1.557 . S
C423 C151 1.512 . S
C445 C307 1.502 . S
C441 C183 1.523 . S
C459 C215 1.556 . S
C463 C330 1.543 . S
C481 C318 1.496 . S
C477 C247 1.437 . S
C495 C29 1.459 . S
C499 C340 1.537 . S
C517 C310 1.466 . S
C513 C49 1.460 . S
C531 C93 1.556 . S
C535 C329 1.556 . S
C549 C113 1.431 . S
C553 C315 1.491 . S
C571 C296 1.536 . S
C567 C157 1.463 . S
C585 C177 1.462 . S
C589 C266 1.467 . S
C607 C285 1.561 . S
C603 C221 1.560 . S
C625 C271 1.488 . S
C621 C241 1.437 . S
C643 C321 1.509 . S
C639 C17 1.460 . S
C661 C337 1.502 . S
C657 C61 1.512 . S
C675 C81 1.483 . S
C679 C308 1.485 . S
C697 C332 1.480 . S
C693 C125 1.399 . S
C715 C277 1.508 . S
C711 C145 1.448 . S
C729 C189 1.509 . S
C733 C293 1.500 . S
C747 C209 1.483 . S
C751 C264 1.486 . S
C765 C253 1.402 . S
C769 C288 1.484 . S
