# Generated by pormake.
# Topology rtl, (3,6)-cn, num edge types: 1
# Building blocks:
#     Node 0, Type 0, BuildingBlock: ESEHIV_clean_linker_0, # of connection points: 3
#     Node 1, Type 0, BuildingBlock: ESEHIV_clean_linker_0, # of connection points: 3
#     Node 2, Type 0, BuildingBlock: ESEHIV_clean_linker_0, # of connection points: 3
#     Node 3, Type 0, BuildingBlock: ESEHIV_clean_linker_0, # of connection points: 3
#     Node 4, Type 1, BuildingBlock: CIFDUS_clean_sbu_1, # of connection points: 6
#     Node 5, Type 1, BuildingBlock: CIFDUS_clean_sbu_1, # of connection points: 6
#     Edge 6, Type (0, 1), BuildingBlock: TEMPAE_clean_linker_10, # of connection points: 2
#     Edge 7, Type (0, 1), BuildingBlock: TEMPAE_clean_linker_10, # of connection points: 2
#     Edge 8, Type (0, 1), BuildingBlock: TEMPAE_clean_linker_10, # of connection points: 2
#     Edge 9, Type (0, 1), BuildingBlock: TEMPAE_clean_linker_10, # of connection points: 2
#     Edge 10, Type (0, 1), BuildingBlock: TEMPAE_clean_linker_10, # of connection points: 2
#     Edge 11, Type (0, 1), BuildingBlock: TEMPAE_clean_linker_10, # of connection points: 2
#     Edge 12, Type (0, 1), BuildingBlock: TEMPAE_clean_linker_10, # of connection points: 2
#     Edge 13, Type (0, 1), BuildingBlock: TEMPAE_clean_linker_10, # of connection points: 2
#     Edge 14, Type (0, 1), BuildingBlock: TEMPAE_clean_linker_10, # of connection points: 2
#     Edge 15, Type (0, 1), BuildingBlock: TEMPAE_clean_linker_10, # of connection points: 2
#     Edge 16, Type (0, 1), BuildingBlock: TEMPAE_clean_linker_10, # of connection points: 2
#     Edge 17, Type (0, 1), BuildingBlock: TEMPAE_clean_linker_10, # of connection points: 2
# Relax obj value: 0.028
# Max RMSD: 0.063
# Mean RMSD: 0.047
data_MOF--net-rtl--node1-CIFDUS_clean_sbu_1--node2-ESEHIV_clean_linker_0--edge1-TEMPAE_clean_linker_10
_symmetry_space_group_name_H-M    P1
_symmetry_Int_Tables_number       1
_symmetry_cell_setting            triclinic
loop_
_symmetry_equiv_pos_as_xyz
'x, y, z'
_cell_length_a     29.271901
_cell_length_b     33.260988
_cell_length_c     23.067413
_cell_angle_alpha  90.186271
_cell_angle_beta   98.133784
_cell_angle_gamma 89.839094
loop_
_atom_site_label
_atom_site_type_symbol
_atom_site_fract_x
_atom_site_fract_y
_atom_site_fract_z
_atom_type_partial_charge
H0 H 0.19506 0.92819 0.08184 0.0
H1 H 0.29003 0.85636 0.19754 0.0
H2 H 0.28138 0.84093 0.01134 0.0
C3 C 0.22205 0.90562 0.08779 0.0
C4 C 0.23533 0.88573 0.03871 0.0
C5 C 0.24259 0.89602 0.14509 0.0
C6 C 0.27599 0.86528 0.15344 0.0
C7 C 0.28878 0.84415 0.10535 0.0
C8 C 0.26958 0.85574 0.04839 0.0
H9 H 0.69468 0.59898 0.56592 0.0
H10 H 0.75336 0.70536 0.50178 0.0
H11 H 0.76633 0.68439 0.68733 0.0
C12 C 0.71405 0.6266 0.5746 0.0
C13 C 0.72881 0.6387 0.63284 0.0
C14 C 0.72247 0.65052 0.52723 0.0
C15 C 0.74695 0.68665 0.53817 0.0
C16 C 0.76388 0.69837 0.59589 0.0
C17 C 0.75476 0.67435 0.64295 0.0
H18 H 0.83325 0.11414 0.0125 0.0
H19 H 0.7572 0.2061 0.08764 0.0
H20 H 0.729 0.18178 0.90266 0.0
C21 C 0.80645 0.13685 0.00696 0.0
C22 C 0.78253 0.14503 0.95062 0.0
C23 C 0.7966 0.15796 0.05672 0.0
C24 C 0.76329 0.18873 0.04965 0.0
C25 C 0.73951 0.19839 0.99386 0.0
C26 C 0.74865 0.17563 0.94506 0.0
H27 H 0.31263 0.4283 0.50208 0.0
H28 H 0.22358 0.34245 0.56962 0.0
H29 H 0.21601 0.35974 0.38373 0.0
C30 C 0.28534 0.4061 0.49521 0.0
C31 C 0.26539 0.39683 0.43768 0.0
C32 C 0.27046 0.3868 0.5436 0.0
C33 C 0.2346 0.3584 0.53312 0.0
C34 C 0.2148 0.34842 0.47562 0.0
C35 C 0.23047 0.36776 0.42814 0.0
O36 O 0.97352 0.04415 0.47634 0.0
Mn37 Mn 0.01305 0.01446 0.5472 0.0
O38 O 0.978 0.99707 0.4092 0.0
Mn39 Mn 0.99763 0.95763 0.46349 0.0
O40 O 0.05114 0.98038 0.61653 0.0
O41 O 0.04849 0.0697 0.56217 0.0
Mn42 Mn 0.06159 0.05788 0.63825 0.0
O43 O 0.96347 0.03061 0.60176 0.0
O44 O 0.10692 0.02023 0.65339 0.0
O45 O 0.06696 0.00331 0.4956 0.0
O46 O 0.05749 0.9409 0.47025 0.0
O47 O 0.08321 0.10685 0.63859 0.0
O48 O 0.01151 0.05357 0.67775 0.0
C49 C 0.95337 0.92746 0.50662 0.0
C50 C 0.96538 0.03187 0.42303 0.0
C51 C 0.09069 0.98545 0.6475 0.0
C52 C 0.07083 0.1026 0.58264 0.0
C53 C 0.97102 0.0447 0.65427 0.0
C54 C 0.08336 0.9708 0.47712 0.0
O55 O 0.97398 0.96018 0.53135 0.0
O56 O 0.96075 0.91654 0.45478 0.0
O57 O 0.54071 0.53914 0.11168 0.0
Mn58 Mn 0.4985 0.5176 0.03644 0.0
O59 O 0.54671 0.48695 0.17415 0.0
Mn60 Mn 0.515 0.4499 0.12318 0.0
O61 O 0.45584 0.49268 0.96142 0.0
O62 O 0.47455 0.57655 0.02525 0.0
Mn63 Mn 0.46613 0.57758 0.94762 0.0
O64 O 0.55247 0.52852 0.98624 0.0
O65 O 0.42014 0.54455 0.91531 0.0
O66 O 0.44401 0.50875 0.08704 0.0
O67 O 0.45272 0.44731 0.12497 0.0
O68 O 0.44847 0.62673 0.96454 0.0
O69 O 0.52155 0.57355 0.91979 0.0
C70 C 0.54414 0.42492 0.05343 0.0
C71 C 0.55465 0.52347 0.16216 0.0
C72 C 0.42535 0.50711 0.92094 0.0
C73 C 0.45935 0.61381 0.01774 0.0
C74 C 0.55507 0.55181 0.94229 0.0
C75 C 0.42894 0.47885 0.11405 0.0
O76 O 0.52525 0.46069 0.05089 0.0
O77 O 0.54395 0.4053 0.10182 0.0
C78 C 0.1418 0.31495 0.49447 0.0
C79 C 0.18092 0.31506 0.46582 0.0
C80 C 0.11474 0.28018 0.49542 0.0
C81 C 0.12808 0.24436 0.46874 0.0
C82 C 0.16455 0.24576 0.43442 0.0
C83 C 0.19051 0.28119 0.43322 0.0
C84 C 0.07522 0.28056 0.53088 0.0
C85 C 0.17983 0.20851 0.40494 0.0
C86 C 0.12736 0.15478 0.56825 0.0
C87 C 0.08687 0.13436 0.54538 0.0
C88 C 0.14109 0.18982 0.54277 0.0
C89 C 0.11441 0.20484 0.49149 0.0
C90 C 0.07502 0.183 0.46538 0.0
C91 C 0.06143 0.14787 0.49298 0.0
C92 C 0.18323 0.21175 0.57286 0.0
C93 C 0.04607 0.19755 0.41016 0.0
H94 H 0.13381 0.34141 0.51876 0.0
H95 H 0.22061 0.28128 0.4107 0.0
H96 H 0.04593 0.26243 0.50913 0.0
H97 H 0.08681 0.26708 0.57445 0.0
H98 H 0.06292 0.31163 0.53762 0.0
H99 H 0.20098 0.21606 0.37013 0.0
H100 H 0.20107 0.18956 0.43801 0.0
H101 H 0.14967 0.19042 0.38556 0.0
H102 H 0.14784 0.14407 0.60811 0.0
H103 H 0.03014 0.13221 0.47512 0.0
H104 H 0.17312 0.24187 0.58761 0.0
H105 H 0.20854 0.21625 0.54199 0.0
H106 H 0.2007 0.19531 0.61168 0.0
H107 H 0.02291 0.22198 0.42127 0.0
H108 H 0.02431 0.17307 0.38813 0.0
H109 H 0.068 0.20994 0.37905 0.0
C110 C 0.30872 0.77408 0.07834 0.0
C111 C 0.31952 0.80808 0.11366 0.0
C112 C 0.33845 0.74087 0.0809 0.0
C113 C 0.37991 0.7409 0.121 0.0
C114 C 0.38955 0.7739 0.15989 0.0
C115 C 0.35943 0.8073 0.15541 0.0
C116 C 0.32653 0.70674 0.03802 0.0
C117 C 0.43245 0.77493 0.2046 0.0
C118 C 0.43057 0.63698 0.10989 0.0
C119 C 0.45685 0.6437 0.06469 0.0
C120 C 0.41061 0.66978 0.13639 0.0
C121 C 0.41529 0.70928 0.11467 0.0
C122 C 0.44693 0.71615 0.07479 0.0
C123 C 0.46844 0.6833 0.05192 0.0
C124 C 0.3807 0.66173 0.18306 0.0
C125 C 0.45275 0.75725 0.04907 0.0
H126 H 0.27717 0.77375 0.04742 0.0
H127 H 0.36798 0.83326 0.18333 0.0
H128 H 0.3537 0.70362 0.00925 0.0
H129 H 0.32499 0.67801 0.06185 0.0
H130 H 0.29285 0.71136 0.00994 0.0
H131 H 0.42697 0.79355 0.2431 0.0
H132 H 0.44331 0.74428 0.21978 0.0
H133 H 0.46107 0.78867 0.18486 0.0
H134 H 0.42195 0.60646 0.12056 0.0
H135 H 0.48958 0.68848 0.01763 0.0
H136 H 0.34428 0.65845 0.16254 0.0
H137 H 0.38249 0.68702 0.21484 0.0
H138 H 0.39124 0.63349 0.20697 0.0
H139 H 0.42048 0.76578 0.02037 0.0
H140 H 0.48159 0.75808 0.02253 0.0
H141 H 0.45921 0.78024 0.08405 0.0
C142 C 0.76887 0.77341 0.59898 0.0
C143 C 0.79088 0.73599 0.60645 0.0
C144 C 0.79462 0.80912 0.5995 0.0
C145 C 0.84348 0.80716 0.6057 0.0
C146 C 0.86571 0.76955 0.61818 0.0
C147 C 0.83907 0.73441 0.61865 0.0
C148 C 0.76934 0.84846 0.58749 0.0
C149 C 0.91753 0.76562 0.62441 0.0
C150 C 0.89655 0.87201 0.49896 0.0
C151 C 0.92195 0.90085 0.53481 0.0
C152 C 0.87141 0.84188 0.5219 0.0
C153 C 0.86955 0.84084 0.58272 0.0
C154 C 0.8929 0.87101 0.61945 0.0
C155 C 0.91931 0.90063 0.59509 0.0
C156 C 0.84788 0.81034 0.48058 0.0
C157 C 0.89043 0.87162 0.68426 0.0
H158 H 0.73151 0.77459 0.59015 0.0
H159 H 0.856 0.70538 0.62469 0.0
H160 H 0.78751 0.87315 0.61369 0.0
H161 H 0.76808 0.85622 0.54054 0.0
H162 H 0.73334 0.84667 0.59737 0.0
H163 H 0.92972 0.73681 0.6455 0.0
H164 H 0.92852 0.76662 0.58031 0.0
H165 H 0.93465 0.79085 0.65041 0.0
H166 H 0.8972 0.87203 0.45211 0.0
H167 H 0.93855 0.92277 0.62315 0.0
H168 H 0.81009 0.81103 0.48128 0.0
H169 H 0.86044 0.77992 0.49471 0.0
H170 H 0.85416 0.81476 0.43465 0.0
H171 H 0.85387 0.87347 0.69178 0.0
H172 H 0.90966 0.89736 0.70668 0.0
H173 H 0.90479 0.84327 0.70458 0.0
C174 C 0.70489 0.25918 0.93807 0.0
C175 C 0.70659 0.23327 0.98647 0.0
C176 C 0.67661 0.29374 0.93298 0.0
C177 C 0.64994 0.3032 0.97784 0.0
C178 C 0.65033 0.2765 0.02575 0.0
C179 C 0.67824 0.24187 0.0292 0.0
C180 C 0.67651 0.32074 0.88053 0.0
C181 C 0.62229 0.28511 0.07457 0.0
C182 C 0.6183 0.4083 0.0221 0.0
C183 C 0.57009 0.40712 0.00954 0.0
C184 C 0.64551 0.37604 0.00703 0.0
C185 C 0.62393 0.3421 0.97768 0.0
C186 C 0.57586 0.34348 0.95767 0.0
C187 C 0.5494 0.37583 0.97448 0.0
C188 C 0.69653 0.37614 0.02935 0.0
C189 C 0.55149 0.30883 0.92428 0.0
H190 H 0.72678 0.25322 0.90487 0.0
H191 H 0.67823 0.2217 0.06599 0.0
H192 H 0.64076 0.32982 0.86278 0.0
H193 H 0.69608 0.34855 0.89389 0.0
H194 H 0.69257 0.30596 0.84514 0.0
H195 H 0.62575 0.26106 0.10822 0.0
H196 H 0.63355 0.31397 0.09624 0.0
H197 H 0.58527 0.2883 0.05657 0.0
H198 H 0.6343 0.43199 0.05035 0.0
H199 H 0.51204 0.37437 0.96563 0.0
H200 H 0.71665 0.3652 0.99517 0.0
H201 H 0.70351 0.35546 0.06726 0.0
H202 H 0.70905 0.40658 0.0437 0.0
H203 H 0.57272 0.29608 0.89243 0.0
H204 H 0.51746 0.31814 0.90047 0.0
H205 H 0.54563 0.28464 0.95539 0.0
C206 C 0.25761 0.93163 0.24243 0.0
C207 C 0.22624 0.9156 0.19655 0.0
C208 C 0.2423 0.94783 0.29286 0.0
C209 C 0.19467 0.94694 0.29813 0.0
C210 C 0.16286 0.93176 0.25109 0.0
C211 C 0.179 0.91662 0.20083 0.0
C212 C 0.27718 0.96474 0.34113 0.0
C213 C 0.11182 0.92973 0.25489 0.0
C214 C 0.14724 0.93375 0.44088 0.0
C215 C 0.12387 0.97024 0.44527 0.0
C216 C 0.17416 0.92706 0.39608 0.0
C217 C 0.17789 0.95768 0.3545 0.0
C218 C 0.15868 0.99615 0.3627 0.0
C219 C 0.13178 0.00202 0.40815 0.0
C220 C 0.19433 0.88571 0.38969 0.0
C221 C 0.16275 0.02995 0.32033 0.0
H222 H 0.29416 0.93126 0.23897 0.0
H223 H 0.15469 0.904 0.1657 0.0
H224 H 0.26531 0.99423 0.3561 0.0
H225 H 0.28089 0.94421 0.37929 0.0
H226 H 0.31162 0.96862 0.32695 0.0
H227 H 0.09147 0.91876 0.21357 0.0
H228 H 0.10579 0.9092 0.29087 0.0
H229 H 0.09866 0.95983 0.2652 0.0
H230 H 0.14135 0.90919 0.46972 0.0
H231 H 0.11363 0.03026 0.4111 0.0
H232 H 0.23049 0.8878 0.38081 0.0
H233 H 0.17418 0.87004 0.35192 0.0
H234 H 0.19362 0.86709 0.42946 0.0
H235 H 0.19781 0.03079 0.30734 0.0
H236 H 0.15514 0.05958 0.33924 0.0
H237 H 0.13778 0.02506 0.28007 0.0
C238 C 0.74277 0.61066 0.73571 0.0
C239 C 0.71346 0.6161 0.68256 0.0
C240 C 0.72649 0.59319 0.78446 0.0
C241 C 0.67969 0.58131 0.78023 0.0
C242 C 0.65076 0.58465 0.72574 0.0
C243 C 0.66793 0.60197 0.67785 0.0
C244 C 0.75868 0.58942 0.84133 0.0
C245 C 0.60051 0.57272 0.71902 0.0
C246 C 0.61977 0.525 0.89195 0.0
C247 C 0.5981 0.55712 0.91662 0.0
C248 C 0.65041 0.53229 0.85098 0.0
C249 C 0.6584 0.5724 0.83395 0.0
C250 C 0.63965 0.6047 0.86304 0.0
C251 C 0.61031 0.59659 0.90437 0.0
C252 C 0.67106 0.49705 0.82257 0.0
C253 C 0.64635 0.64795 0.84615 0.0
H254 H 0.77824 0.62079 0.73959 0.0
H255 H 0.6447 0.6064 0.63742 0.0
H256 H 0.75005 0.61274 0.87255 0.0
H257 H 0.75458 0.55969 0.86165 0.0
H258 H 0.79535 0.59329 0.83509 0.0
H259 H 0.58395 0.57341 0.67262 0.0
H260 H 0.59683 0.54204 0.73641 0.0
H261 H 0.58152 0.59365 0.74466 0.0
H262 H 0.61017 0.49445 0.90104 0.0
H263 H 0.59355 0.62144 0.92361 0.0
H264 H 0.70708 0.50354 0.81572 0.0
H265 H 0.65074 0.4912 0.77904 0.0
H266 H 0.67075 0.46936 0.84932 0.0
H267 H 0.6834 0.65441 0.84556 0.0
H268 H 0.63283 0.66951 0.87649 0.0
H269 H 0.62803 0.65334 0.80132 0.0
C270 C 0.86958 0.14315 0.12518 0.0
C271 C 0.82144 0.1478 0.11609 0.0
C272 C 0.89304 0.13033 0.17951 0.0
C273 C 0.8678 0.12125 0.22594 0.0
C274 C 0.81937 0.12753 0.21775 0.0
C275 C 0.79685 0.14095 0.16314 0.0
C276 C 0.94467 0.12447 0.18618 0.0
C277 C 0.79088 0.11772 0.26547 0.0
C278 C 0.91773 0.03612 0.32474 0.0
C279 C 0.93871 0.05618 0.37535 0.0
C280 C 0.89397 0.05695 0.27699 0.0
C281 C 0.89095 0.09936 0.27894 0.0
C282 C 0.91119 0.12004 0.33022 0.0
C283 C 0.93462 0.09818 0.37808 0.0
C284 C 0.8727 0.03335 0.22385 0.0
C285 C 0.90894 0.16525 0.33396 0.0
H286 H 0.88891 0.14898 0.08934 0.0
H287 H 0.75963 0.14434 0.15643 0.0
H288 H 0.9614 0.13816 0.22773 0.0
H289 H 0.95279 0.09185 0.18807 0.0
H290 H 0.95993 0.13779 0.14922 0.0
H291 H 0.75492 0.12909 0.2553 0.0
H292 H 0.78968 0.08462 0.271 0.0
H293 H 0.80682 0.13067 0.30789 0.0
H294 H 0.9199 0.00364 0.32214 0.0
H295 H 0.95057 0.11397 0.41685 0.0
H296 H 0.88917 0.04193 0.18525 0.0
H297 H 0.83539 0.04047 0.21353 0.0
H298 H 0.87659 0.00035 0.23018 0.0
H299 H 0.92749 0.17872 0.30006 0.0
H300 H 0.92448 0.17676 0.37757 0.0
H301 H 0.87255 0.17555 0.32498 0.0
C302 C 0.34127 0.4005 0.61667 0.0
C303 C 0.29324 0.39544 0.6047 0.0
C304 C 0.36295 0.41135 0.6729 0.0
C305 C 0.33611 0.41729 0.71878 0.0
C306 C 0.28796 0.40994 0.70787 0.0
C307 C 0.26713 0.39924 0.65109 0.0
C308 C 0.41426 0.41906 0.68209 0.0
C309 C 0.25793 0.41583 0.7553 0.0
C310 C 0.40096 0.43977 0.87248 0.0
C311 C 0.39983 0.48198 0.87299 0.0
C312 C 0.37907 0.41784 0.82349 0.0
C313 C 0.35667 0.43866 0.77358 0.0
C314 C 0.35513 0.48109 0.77449 0.0
C315 C 0.3759 0.50191 0.82396 0.0
C316 C 0.38026 0.37254 0.82477 0.0
C317 C 0.33274 0.50491 0.72221 0.0
H318 H 0.36202 0.39663 0.58167 0.0
H319 H 0.23002 0.39547 0.64257 0.0
H320 H 0.42058 0.45184 0.6873 0.0
H321 H 0.43092 0.40426 0.7227 0.0
H322 H 0.43109 0.40814 0.64473 0.0
H323 H 0.22298 0.40281 0.74295 0.0
H324 H 0.27417 0.40193 0.79684 0.0
H325 H 0.25406 0.44844 0.76369 0.0
H326 H 0.41914 0.42397 0.90987 0.0
H327 H 0.37449 0.53446 0.82296 0.0
H328 H 0.39869 0.36098 0.7893 0.0
H329 H 0.34457 0.36056 0.81658 0.0
H330 H 0.39757 0.36076 0.86731 0.0
H331 H 0.35 0.498 0.68348 0.0
H332 H 0.33456 0.53788 0.72999 0.0
H333 H 0.29595 0.49638 0.71112 0.0
C334 C 0.66723 0.65986 0.43498 0.0
C335 C 0.70349 0.63815 0.46669 0.0
C336 C 0.64439 0.64534 0.38117 0.0
C337 C 0.65883 0.60862 0.35799 0.0
C338 C 0.69732 0.58791 0.38844 0.0
C339 C 0.71872 0.6026 0.44283 0.0
C340 C 0.60298 0.66796 0.35109 0.0
C341 C 0.71458 0.54917 0.36497 0.0
C342 C 0.57103 0.54111 0.26795 0.0
C343 C 0.57931 0.54823 0.21041 0.0
C344 C 0.59563 0.5615 0.31574 0.0
C345 C 0.6304 0.58927 0.30631 0.0
C346 C 0.6385 0.59718 0.24816 0.0
C347 C 0.6124 0.57692 0.20072 0.0
C348 C 0.58488 0.55269 0.3766 0.0
C349 C 0.67582 0.62593 0.23629 0.0
H350 H 0.65524 0.68718 0.45378 0.0
H351 H 0.74681 0.58585 0.46741 0.0
H352 H 0.60556 0.67205 0.30398 0.0
H353 H 0.57129 0.65025 0.35389 0.0
H354 H 0.59909 0.69793 0.37124 0.0
H355 H 0.74838 0.53979 0.38937 0.0
H356 H 0.68923 0.52487 0.36845 0.0
H357 H 0.71818 0.55236 0.31796 0.0
H358 H 0.5451 0.5193 0.27568 0.0
H359 H 0.6191 0.58234 0.15639 0.0
H360 H 0.57774 0.58108 0.39911 0.0
H361 H 0.61515 0.53828 0.40292 0.0
H362 H 0.55469 0.53245 0.37608 0.0
H363 H 0.67104 0.65552 0.25695 0.0
H364 H 0.6763 0.63044 0.18868 0.0
H365 H 0.70996 0.61414 0.25614 0.0
C366 C 0.79275 0.14278 0.8433 0.0
C367 C 0.795 0.12321 0.89766 0.0
C368 C 0.81056 0.12485 0.79585 0.0
C369 C 0.83285 0.08699 0.80309 0.0
C370 C 0.83186 0.06561 0.8559 0.0
C371 C 0.81237 0.08365 0.90202 0.0
C372 C 0.80942 0.14829 0.73976 0.0
C373 C 0.85538 0.0253 0.86599 0.0
C374 C 0.88836 0.03939 0.67743 0.0
C375 C 0.93344 0.05454 0.68962 0.0
C376 C 0.85469 0.04945 0.71368 0.0
C377 C 0.86658 0.07513 0.76293 0.0
C378 C 0.91186 0.09056 0.77469 0.0
C379 C 0.94424 0.08028 0.73816 0.0
C380 C 0.80672 0.03242 0.69965 0.0
C381 C 0.92652 0.11819 0.82622 0.0
H382 H 0.77965 0.17322 0.83838 0.0
H383 H 0.81266 0.06717 0.94248 0.0
H384 H 0.84336 0.16291 0.73902 0.0
H385 H 0.80293 0.12811 0.70109 0.0
H386 H 0.78244 0.17208 0.73578 0.0
H387 H 0.84496 0.00953 0.90442 0.0
H388 H 0.84755 0.00576 0.82684 0.0
H389 H 0.89332 0.02977 0.87396 0.0
H390 H 0.87959 0.01949 0.64025 0.0
H391 H 0.97855 0.09292 0.74799 0.0
H392 H 0.78054 0.05659 0.69991 0.0
H393 H 0.80075 0.01038 0.73375 0.0
H394 H 0.80132 0.01705 0.65641 0.0
H395 H 0.90565 0.14618 0.82163 0.0
H396 H 0.96353 0.12662 0.83021 0.0
H397 H 0.92048 0.1035 0.86757 0.0
C398 C 0.32176 0.39796 0.36655 0.0
C399 C 0.28355 0.41521 0.38724 0.0
C400 C 0.33948 0.41433 0.31832 0.0
C401 C 0.31847 0.44893 0.29004 0.0
C402 C 0.27969 0.46646 0.31096 0.0
C403 C 0.26261 0.4493 0.3594 0.0
C404 C 0.3808 0.39452 0.29764 0.0
C405 C 0.25625 0.50315 0.28206 0.0
C406 C 0.39987 0.50335 0.20277 0.0
C407 C 0.39061 0.48371 0.14856 0.0
C408 C 0.3743 0.49464 0.2484 0.0
C409 C 0.33783 0.46636 0.23896 0.0
C410 C 0.32511 0.45005 0.1821 0.0
C411 C 0.35232 0.45825 0.13789 0.0
C412 C 0.38978 0.51223 0.30834 0.0
C413 C 0.28559 0.42086 0.16941 0.0
H414 H 0.33766 0.37148 0.38816 0.0
H415 H 0.23292 0.46248 0.37558 0.0
H416 H 0.3717 0.38417 0.2517 0.0
H417 H 0.40931 0.41653 0.29849 0.0
H418 H 0.39354 0.36828 0.32501 0.0
H419 H 0.22616 0.51287 0.30311 0.0
H420 H 0.2811 0.5284 0.28404 0.0
H421 H 0.24438 0.49683 0.2351 0.0
H422 H 0.4303 0.52217 0.21158 0.0
H423 H 0.34571 0.44242 0.09639 0.0
H424 H 0.4077 0.48864 0.33706 0.0
H425 H 0.35978 0.52265 0.32882 0.0
H426 H 0.4139 0.5378 0.30669 0.0
H427 H 0.2964 0.39108 0.18816 0.0
H428 H 0.27461 0.41709 0.12159 0.0
H429 H 0.25553 0.43108 0.19001 0.0
C430 C 0.20618 0.8648 0.93438 0.0
C431 C 0.21269 0.89509 0.97759 0.0
C432 C 0.18627 0.87325 0.87654 0.0
C433 C 0.17087 0.91269 0.86146 0.0
C434 C 0.1762 0.94322 0.90492 0.0
C435 C 0.19751 0.93422 0.96198 0.0
C436 C 0.18227 0.84005 0.83132 0.0
C437 C 0.15981 0.98565 0.89097 0.0
C438 C 0.15905 0.95516 0.7075 0.0
C439 C 0.111 0.95578 0.69148 0.0
C440 C 0.17924 0.93855 0.76096 0.0
C441 C 0.15064 0.9227 0.79993 0.0
C442 C 0.10232 0.92031 0.78185 0.0
C443 C 0.08306 0.93665 0.72752 0.0
C444 C 0.23094 0.94096 0.77759 0.0
C445 C 0.0705 0.90382 0.82199 0.0
H446 H 0.21643 0.83418 0.9456 0.0
H447 H 0.20283 0.95818 0.99412 0.0
H448 H 0.14561 0.8357 0.81249 0.0
H449 H 0.20119 0.84851 0.79476 0.0
H450 H 0.1963 0.81102 0.84984 0.0
H451 H 0.16378 0.00531 0.93038 0.0
H452 H 0.17968 -0.00109 0.85824 0.0
H453 H 0.12293 0.98552 0.87139 0.0
H454 H 0.18071 0.97019 0.67987 0.0
H455 H 0.04586 0.93772 0.71585 0.0
H456 H 0.24493 0.91205 0.7964 0.0
H457 H 0.23938 0.96449 0.81161 0.0
H458 H 0.24865 0.94855 0.73952 0.0
H459 H 0.0839 0.87496 0.84157 0.0
H460 H 0.03501 0.89898 0.79881 0.0
H461 H 0.0687 0.92533 0.85848 0.0
loop_
_geom_bond_atom_site_label_1
_geom_bond_atom_site_label_2
_geom_bond_distance
_geom_bond_site_symmetry_2
_ccdc_geom_bond_type
H0 C3 0.931 . S
H1 C6 0.928 . S
H2 C8 0.930 . S
C3 H0 0.931 . S
C3 C4 1.413 . S
C3 C5 1.360 . S
C4 C3 1.413 . S
C4 C8 1.429 . S
C5 C3 1.360 . S
C5 C6 1.372 . S
C6 H1 0.928 . S
C6 C5 1.372 . S
C6 C7 1.404 . S
C7 C6 1.404 . S
C7 C8 1.391 . S
C8 H2 0.930 . S
C8 C4 1.429 . S
C8 C7 1.391 . S
H9 C12 0.931 . S
H10 C15 0.928 . S
H11 C17 0.930 . S
C12 H9 0.931 . S
C12 C13 1.413 . S
C12 C14 1.360 . S
C13 C12 1.413 . S
C13 C17 1.429 . S
C14 C12 1.360 . S
C14 C15 1.372 . S
C15 H10 0.928 . S
C15 C14 1.372 . S
C15 C16 1.404 . S
C16 C15 1.404 . S
C16 C17 1.391 . S
C17 H11 0.930 . S
C17 C13 1.429 . S
C17 C16 1.391 . S
H18 C21 0.931 . S
H19 C24 0.928 . S
H20 C26 0.930 . S
C21 H18 0.931 . S
C21 C22 1.413 1_554 S
C21 C23 1.360 . S
C22 C21 1.413 1_556 S
C22 C26 1.429 . S
C23 C21 1.360 . S
C23 C24 1.372 . S
C24 H19 0.928 . S
C24 C23 1.372 . S
C24 C25 1.404 1_554 S
C25 C24 1.404 1_556 S
C25 C26 1.391 . S
C26 H20 0.930 . S
C26 C22 1.429 . S
C26 C25 1.391 . S
H27 C30 0.931 . S
H28 C33 0.928 . S
H29 C35 0.930 . S
C30 H27 0.931 . S
C30 C31 1.413 . S
C30 C32 1.360 . S
C31 C30 1.413 . S
C31 C35 1.429 . S
C32 C30 1.360 . S
C32 C33 1.372 . S
C33 H28 0.928 . S
C33 C32 1.372 . S
C33 C34 1.404 . S
C34 C33 1.404 . S
C34 C35 1.391 . S
C35 H29 0.930 . S
C35 C31 1.429 . S
C35 C34 1.391 . S
O36 Mn37 2.163 1_655 S
O36 C50 1.244 . S
Mn37 O36 2.163 1_455 S
Mn37 O40 2.160 1_545 S
Mn37 O41 2.221 . S
Mn37 O43 2.163 1_455 S
Mn37 O45 2.160 1_545 S
Mn37 O55 2.221 1_445 S
O38 Mn39 2.087 1_545 S
O38 C50 1.256 . S
Mn39 O38 2.087 1_565 S
Mn39 O46 2.089 1_655 S
Mn39 O55 2.290 . S
Mn39 O56 2.251 . S
O40 Mn37 2.160 1_565 S
O40 C51 1.239 . S
O41 Mn37 2.221 . S
O41 Mn42 2.290 . S
O41 C52 1.278 . S
Mn42 O41 2.290 . S
Mn42 O44 2.089 . S
Mn42 O47 2.251 . S
Mn42 O48 2.087 1_455 S
O43 Mn37 2.163 1_655 S
O43 C53 1.244 . S
O44 Mn42 2.089 . S
O44 C51 1.256 1_545 S
O45 Mn37 2.160 1_565 S
O45 C54 1.239 . S
O46 Mn39 2.089 1_455 S
O46 C54 1.256 . S
O47 Mn42 2.251 . S
O47 C52 1.241 . S
O48 Mn42 2.087 1_655 S
O48 C53 1.256 . S
C49 O55 1.278 . S
C49 O56 1.241 . S
C50 O36 1.244 . S
C50 O38 1.256 . S
C51 O40 1.239 . S
C51 O44 1.256 1_565 S
C52 O41 1.278 . S
C52 O47 1.241 . S
C53 O43 1.244 . S
C53 O48 1.256 . S
C54 O45 1.239 . S
C54 O46 1.256 . S
O55 Mn37 2.221 1_665 S
O55 Mn39 2.290 . S
O55 C49 1.278 . S
O56 Mn39 2.251 . S
O56 C49 1.241 . S
O57 Mn58 2.163 . S
O57 C71 1.244 . S
Mn58 O57 2.163 . S
Mn58 O61 2.160 1_554 S
Mn58 O62 2.221 . S
Mn58 O64 2.163 1_554 S
Mn58 O66 2.160 . S
Mn58 O76 2.221 . S
O59 Mn60 2.087 . S
O59 C71 1.256 . S
Mn60 O59 2.087 . S
Mn60 O67 2.089 . S
Mn60 O76 2.290 . S
Mn60 O77 2.251 . S
O61 Mn58 2.160 1_556 S
O61 C72 1.239 . S
O62 Mn58 2.221 . S
O62 Mn63 2.290 1_554 S
O62 C73 1.278 . S
Mn63 O62 2.290 1_556 S
Mn63 O65 2.089 . S
Mn63 O68 2.251 . S
Mn63 O69 2.087 . S
O64 Mn58 2.163 1_556 S
O64 C74 1.244 . S
O65 Mn63 2.089 . S
O65 C72 1.256 . S
O66 Mn58 2.160 . S
O66 C75 1.239 . S
O67 Mn60 2.089 . S
O67 C75 1.256 . S
O68 Mn63 2.251 . S
O68 C73 1.241 1_556 S
O69 Mn63 2.087 . S
O69 C74 1.256 . S
C70 O76 1.278 . S
C70 O77 1.241 . S
C71 O57 1.244 . S
C71 O59 1.256 . S
C72 O61 1.239 . S
C72 O65 1.256 . S
C73 O62 1.278 . S
C73 O68 1.241 1_554 S
C74 O64 1.244 . S
C74 O69 1.256 . S
C75 O66 1.239 . S
C75 O67 1.256 . S
O76 Mn58 2.221 . S
O76 Mn60 2.290 . S
O76 C70 1.278 . S
O77 Mn60 2.251 . S
O77 C70 1.241 . S
C78 C79 1.391 . S
C78 C80 1.394 . S
C78 H94 0.931 . S
C79 C78 1.391 . S
C79 C83 1.376 . S
C80 C78 1.394 . S
C80 C81 1.369 . S
C80 C84 1.531 . S
C81 C80 1.369 . S
C81 C82 1.410 . S
C81 C89 1.503 . S
C82 C81 1.410 . S
C82 C83 1.392 . S
C82 C85 1.511 . S
C83 C79 1.376 . S
C83 C82 1.392 . S
C83 H95 0.929 . S
C84 C80 1.531 . S
C84 H96 0.960 . S
C84 H97 0.962 . S
C84 H98 0.960 . S
C85 C82 1.511 . S
C85 H99 0.961 . S
C85 H100 0.961 . S
C85 H101 0.961 . S
C86 C87 1.370 . S
C86 C88 1.363 . S
C86 H102 0.931 . S
C87 C86 1.370 . S
C87 C91 1.408 . S
C88 C86 1.363 . S
C88 C89 1.370 . S
C88 C92 1.524 . S
C89 C81 1.503 . S
C89 C88 1.370 . S
C89 C90 1.403 . S
C90 C89 1.403 . S
C90 C91 1.404 . S
C90 C93 1.539 . S
C91 C87 1.408 . S
C91 C90 1.404 . S
C91 H103 0.930 . S
C92 C88 1.524 . S
C92 H104 0.956 . S
C92 H105 0.961 . S
C92 H106 0.961 . S
C93 C90 1.539 . S
C93 H107 0.958 . S
C93 H108 0.961 . S
C93 H109 0.960 . S
H94 C78 0.931 . S
H95 C83 0.929 . S
H96 C84 0.960 . S
H97 C84 0.962 . S
H98 C84 0.960 . S
H99 C85 0.961 . S
H100 C85 0.961 . S
H101 C85 0.961 . S
H102 C86 0.931 . S
H103 C91 0.930 . S
H104 C92 0.956 . S
H105 C92 0.961 . S
H106 C92 0.961 . S
H107 C93 0.958 . S
H108 C93 0.961 . S
H109 C93 0.960 . S
C110 C111 1.391 . S
C110 C112 1.394 . S
C110 H126 0.931 . S
C111 C110 1.391 . S
C111 C115 1.376 . S
C112 C110 1.394 . S
C112 C113 1.369 . S
C112 C116 1.531 . S
C113 C112 1.369 . S
C113 C114 1.410 . S
C113 C121 1.503 . S
C114 C113 1.410 . S
C114 C115 1.392 . S
C114 C117 1.511 . S
C115 C111 1.376 . S
C115 C114 1.392 . S
C115 H127 0.929 . S
C116 C112 1.531 . S
C116 H128 0.960 . S
C116 H129 0.962 . S
C116 H130 0.968 . S
C117 C114 1.511 . S
C117 H131 0.961 . S
C117 H132 0.961 . S
C117 H133 0.961 . S
C118 C119 1.370 . S
C118 C120 1.363 . S
C118 H134 0.931 . S
C119 C118 1.370 . S
C119 C123 1.408 . S
C120 C118 1.363 . S
C120 C121 1.370 . S
C120 C124 1.524 . S
C121 C113 1.503 . S
C121 C120 1.370 . S
C121 C122 1.403 . S
C122 C121 1.403 . S
C122 C123 1.404 . S
C122 C125 1.539 1_554 S
C123 C119 1.408 . S
C123 C122 1.404 . S
C123 H135 0.930 1_554 S
C124 C120 1.524 . S
C124 H136 0.956 . S
C124 H137 0.961 . S
C124 H138 0.961 . S
C125 C122 1.539 1_556 S
C125 H139 0.958 . S
C125 H140 0.961 . S
C125 H141 0.960 . S
H126 C110 0.931 . S
H127 C115 0.929 . S
H128 C116 0.960 . S
H129 C116 0.962 . S
H130 C116 0.968 . S
H131 C117 0.961 . S
H132 C117 0.961 . S
H133 C117 0.961 . S
H134 C118 0.931 . S
H135 C123 0.930 1_556 S
H136 C124 0.956 . S
H137 C124 0.961 . S
H138 C124 0.961 . S
H139 C125 0.958 . S
H140 C125 0.961 . S
H141 C125 0.960 . S
C142 C143 1.391 . S
C142 C144 1.394 . S
C142 H158 0.931 . S
C143 C142 1.391 . S
C143 C147 1.376 . S
C144 C142 1.394 . S
C144 C145 1.369 . S
C144 C148 1.531 . S
C145 C144 1.369 . S
C145 C146 1.410 . S
C145 C153 1.503 . S
C146 C145 1.410 . S
C146 C147 1.392 . S
C146 C149 1.511 . S
C147 C143 1.376 . S
C147 C146 1.392 . S
C147 H159 0.929 . S
C148 C144 1.531 . S
C148 H160 0.960 . S
C148 H161 0.962 . S
C148 H162 0.960 . S
C149 C146 1.511 . S
C149 H163 0.961 . S
C149 H164 0.961 . S
C149 H165 0.961 . S
C150 C151 1.370 . S
C150 C152 1.363 . S
C150 H166 0.931 . S
C151 C150 1.370 . S
C151 C155 1.408 . S
C152 C150 1.363 . S
C152 C153 1.370 . S
C152 C156 1.524 . S
C153 C145 1.503 . S
C153 C152 1.370 . S
C153 C154 1.403 . S
C154 C153 1.403 . S
C154 C155 1.404 . S
C154 C157 1.539 . S
C155 C151 1.408 . S
C155 C154 1.404 . S
C155 H167 0.930 . S
C156 C152 1.524 . S
C156 H168 0.956 . S
C156 H169 0.961 . S
C156 H170 0.961 . S
C157 C154 1.539 . S
C157 H171 0.958 . S
C157 H172 0.961 . S
C157 H173 0.960 . S
H158 C142 0.931 . S
H159 C147 0.929 . S
H160 C148 0.960 . S
H161 C148 0.962 . S
H162 C148 0.960 . S
H163 C149 0.961 . S
H164 C149 0.961 . S
H165 C149 0.961 . S
H166 C150 0.931 . S
H167 C155 0.930 . S
H168 C156 0.956 . S
H169 C156 0.961 . S
H170 C156 0.961 . S
H171 C157 0.958 . S
H172 C157 0.961 . S
H173 C157 0.960 . S
C174 C175 1.391 . S
C174 C176 1.394 . S
C174 H190 0.931 . S
C175 C174 1.391 . S
C175 C179 1.376 1_556 S
C176 C174 1.394 . S
C176 C177 1.369 . S
C176 C180 1.531 . S
C177 C176 1.369 . S
C177 C178 1.410 1_556 S
C177 C185 1.503 1_556 S
C178 C177 1.410 1_554 S
C178 C179 1.392 . S
C178 C181 1.511 . S
C179 C175 1.376 1_554 S
C179 C178 1.392 . S
C179 H191 0.929 . S
C180 C176 1.531 . S
C180 H192 0.960 . S
C180 H193 0.962 . S
C180 H194 0.960 . S
C181 C178 1.511 . S
C181 H195 0.961 . S
C181 H196 0.961 . S
C181 H197 0.961 . S
C182 C183 1.370 . S
C182 C184 1.363 . S
C182 H198 0.931 . S
C183 C182 1.370 . S
C183 C187 1.408 1_554 S
C184 C182 1.363 . S
C184 C185 1.370 . S
C184 C188 1.524 . S
C185 C177 1.503 1_554 S
C185 C184 1.370 . S
C185 C186 1.403 1_554 S
C186 C185 1.403 1_556 S
C186 C187 1.404 . S
C186 C189 1.539 . S
C187 C183 1.408 1_556 S
C187 C186 1.404 . S
C187 H199 0.930 . S
C188 C184 1.524 . S
C188 H200 0.956 . S
C188 H201 0.961 . S
C188 H202 0.961 . S
C189 C186 1.539 . S
C189 H203 0.958 . S
C189 H204 0.961 . S
C189 H205 0.960 . S
H190 C174 0.931 . S
H191 C179 0.929 . S
H192 C180 0.960 . S
H193 C180 0.962 . S
H194 C180 0.960 . S
H195 C181 0.961 . S
H196 C181 0.961 . S
H197 C181 0.961 . S
H198 C182 0.931 . S
H199 C187 0.930 . S
H200 C188 0.956 . S
H201 C188 0.961 . S
H202 C188 0.961 . S
H203 C189 0.958 . S
H204 C189 0.961 . S
H205 C189 0.960 . S
C206 C207 1.391 . S
C206 C208 1.394 . S
C206 H222 0.931 . S
C207 C206 1.391 . S
C207 C211 1.376 . S
C208 C206 1.394 . S
C208 C209 1.369 . S
C208 C212 1.531 . S
C209 C208 1.369 . S
C209 C210 1.410 . S
C209 C217 1.503 . S
C210 C209 1.410 . S
C210 C211 1.392 . S
C210 C213 1.511 . S
C211 C207 1.376 . S
C211 C210 1.392 . S
C211 H223 0.929 . S
C212 C208 1.531 . S
C212 H224 0.960 1_565 S
C212 H225 0.962 . S
C212 H226 0.960 . S
C213 C210 1.511 . S
C213 H227 0.961 . S
C213 H228 0.961 . S
C213 H229 0.961 . S
C214 C215 1.370 . S
C214 C216 1.363 . S
C214 H230 0.931 . S
C215 C214 1.370 . S
C215 C219 1.408 1_565 S
C216 C214 1.363 . S
C216 C217 1.370 . S
C216 C220 1.524 . S
C217 C209 1.503 . S
C217 C216 1.370 . S
C217 C218 1.403 . S
C218 C217 1.403 . S
C218 C219 1.404 1_565 S
C218 C221 1.539 1_565 S
C219 C215 1.408 1_545 S
C219 C218 1.404 1_545 S
C219 H231 0.930 . S
C220 C216 1.524 . S
C220 H232 0.956 . S
C220 H233 0.961 . S
C220 H234 0.961 . S
C221 C218 1.539 1_545 S
C221 H235 0.958 . S
C221 H236 0.961 . S
C221 H237 0.960 . S
H222 C206 0.931 . S
H223 C211 0.929 . S
H224 C212 0.960 1_545 S
H225 C212 0.962 . S
H226 C212 0.960 . S
H227 C213 0.961 . S
H228 C213 0.961 . S
H229 C213 0.961 . S
H230 C214 0.931 . S
H231 C219 0.930 . S
H232 C220 0.956 . S
H233 C220 0.961 . S
H234 C220 0.961 . S
H235 C221 0.958 . S
H236 C221 0.961 . S
H237 C221 0.960 . S
C238 C239 1.391 . S
C238 C240 1.394 . S
C238 H254 0.931 . S
C239 C238 1.391 . S
C239 C243 1.376 . S
C240 C238 1.394 . S
C240 C241 1.369 . S
C240 C244 1.531 . S
C241 C240 1.369 . S
C241 C242 1.410 . S
C241 C249 1.503 . S
C242 C241 1.410 . S
C242 C243 1.392 . S
C242 C245 1.511 . S
C243 C239 1.376 . S
C243 C242 1.392 . S
C243 H255 0.929 . S
C244 C240 1.531 . S
C244 H256 0.960 . S
C244 H257 0.962 . S
C244 H258 0.960 . S
C245 C242 1.511 . S
C245 H259 0.961 . S
C245 H260 0.961 . S
C245 H261 0.961 . S
C246 C247 1.370 . S
C246 C248 1.363 . S
C246 H262 0.931 . S
C247 C246 1.370 . S
C247 C251 1.408 . S
C248 C246 1.363 . S
C248 C249 1.370 . S
C248 C252 1.524 . S
C249 C241 1.503 . S
C249 C248 1.370 . S
C249 C250 1.403 . S
C250 C249 1.403 . S
C250 C251 1.404 . S
C250 C253 1.539 . S
C251 C247 1.408 . S
C251 C250 1.404 . S
C251 H263 0.930 . S
C252 C248 1.524 . S
C252 H264 0.956 . S
C252 H265 0.961 . S
C252 H266 0.961 . S
C253 C250 1.539 . S
C253 H267 0.958 . S
C253 H268 0.961 . S
C253 H269 0.960 . S
H254 C238 0.931 . S
H255 C243 0.929 . S
H256 C244 0.960 . S
H257 C244 0.962 . S
H258 C244 0.960 . S
H259 C245 0.961 . S
H260 C245 0.961 . S
H261 C245 0.961 . S
H262 C246 0.931 . S
H263 C251 0.930 . S
H264 C252 0.956 . S
H265 C252 0.961 . S
H266 C252 0.961 . S
H267 C253 0.958 . S
H268 C253 0.961 . S
H269 C253 0.960 . S
C270 C271 1.391 . S
C270 C272 1.394 . S
C270 H286 0.931 . S
C271 C270 1.391 . S
C271 C275 1.376 . S
C272 C270 1.394 . S
C272 C273 1.369 . S
C272 C276 1.531 . S
C273 C272 1.369 . S
C273 C274 1.410 . S
C273 C281 1.503 . S
C274 C273 1.410 . S
C274 C275 1.392 . S
C274 C277 1.511 . S
C275 C271 1.376 . S
C275 C274 1.392 . S
C275 H287 0.929 . S
C276 C272 1.531 . S
C276 H288 0.960 . S
C276 H289 0.962 . S
C276 H290 0.960 . S
C277 C274 1.511 . S
C277 H291 0.961 . S
C277 H292 0.961 . S
C277 H293 0.961 . S
C278 C279 1.370 . S
C278 C280 1.363 . S
C278 H294 0.931 . S
C279 C278 1.370 . S
C279 C283 1.408 . S
C280 C278 1.363 . S
C280 C281 1.370 . S
C280 C284 1.524 . S
C281 C273 1.503 . S
C281 C280 1.370 . S
C281 C282 1.403 . S
C282 C281 1.403 . S
C282 C283 1.404 . S
C282 C285 1.539 . S
C283 C279 1.408 . S
C283 C282 1.404 . S
C283 H295 0.930 . S
C284 C280 1.524 . S
C284 H296 0.956 . S
C284 H297 0.961 . S
C284 H298 0.961 1_545 S
C285 C282 1.539 . S
C285 H299 0.958 . S
C285 H300 0.961 . S
C285 H301 0.960 . S
H286 C270 0.931 . S
H287 C275 0.929 . S
H288 C276 0.960 . S
H289 C276 0.962 . S
H290 C276 0.960 . S
H291 C277 0.961 . S
H292 C277 0.961 . S
H293 C277 0.961 . S
H294 C278 0.931 . S
H295 C283 0.930 . S
H296 C284 0.956 . S
H297 C284 0.961 . S
H298 C284 0.961 1_565 S
H299 C285 0.958 . S
H300 C285 0.961 . S
H301 C285 0.960 . S
C302 C303 1.391 . S
C302 C304 1.394 . S
C302 H318 0.931 . S
C303 C302 1.391 . S
C303 C307 1.376 . S
C304 C302 1.394 . S
C304 C305 1.369 . S
C304 C308 1.531 . S
C305 C304 1.369 . S
C305 C306 1.410 . S
C305 C313 1.503 . S
C306 C305 1.410 . S
C306 C307 1.392 . S
C306 C309 1.511 . S
C307 C303 1.376 . S
C307 C306 1.392 . S
C307 H319 0.929 . S
C308 C304 1.531 . S
C308 H320 0.960 . S
C308 H321 0.962 . S
C308 H322 0.960 . S
C309 C306 1.511 . S
C309 H323 0.961 . S
C309 H324 0.961 . S
C309 H325 0.961 . S
C310 C311 1.370 . S
C310 C312 1.363 . S
C310 H326 0.931 . S
C311 C310 1.370 . S
C311 C315 1.408 . S
C312 C310 1.363 . S
C312 C313 1.370 . S
C312 C316 1.524 . S
C313 C305 1.503 . S
C313 C312 1.370 . S
C313 C314 1.403 . S
C314 C313 1.403 . S
C314 C315 1.404 . S
C314 C317 1.539 . S
C315 C311 1.408 . S
C315 C314 1.404 . S
C315 H327 0.930 . S
C316 C312 1.524 . S
C316 H328 0.956 . S
C316 H329 0.961 . S
C316 H330 0.961 . S
C317 C314 1.539 . S
C317 H331 0.958 . S
C317 H332 0.961 . S
C317 H333 0.960 . S
H318 C302 0.931 . S
H319 C307 0.929 . S
H320 C308 0.960 . S
H321 C308 0.962 . S
H322 C308 0.960 . S
H323 C309 0.961 . S
H324 C309 0.961 . S
H325 C309 0.961 . S
H326 C310 0.931 . S
H327 C315 0.930 . S
H328 C316 0.956 . S
H329 C316 0.961 . S
H330 C316 0.961 . S
H331 C317 0.958 . S
H332 C317 0.961 . S
H333 C317 0.960 . S
C334 C335 1.391 . S
C334 C336 1.394 . S
C334 H350 0.931 . S
C335 C334 1.391 . S
C335 C339 1.376 . S
C336 C334 1.394 . S
C336 C337 1.369 . S
C336 C340 1.531 . S
C337 C336 1.369 . S
C337 C338 1.410 . S
C337 C345 1.503 . S
C338 C337 1.410 . S
C338 C339 1.392 . S
C338 C341 1.511 . S
C339 C335 1.376 . S
C339 C338 1.392 . S
C339 H351 0.929 . S
C340 C336 1.531 . S
C340 H352 0.960 . S
C340 H353 0.962 . S
C340 H354 0.960 . S
C341 C338 1.511 . S
C341 H355 0.961 . S
C341 H356 0.961 . S
C341 H357 0.961 . S
C342 C343 1.370 . S
C342 C344 1.363 . S
C342 H358 0.931 . S
C343 C342 1.370 . S
C343 C347 1.408 . S
C344 C342 1.363 . S
C344 C345 1.370 . S
C344 C348 1.524 . S
C345 C337 1.503 . S
C345 C344 1.370 . S
C345 C346 1.403 . S
C346 C345 1.403 . S
C346 C347 1.404 . S
C346 C349 1.539 . S
C347 C343 1.408 . S
C347 C346 1.404 . S
C347 H359 0.930 . S
C348 C344 1.524 . S
C348 H360 0.956 . S
C348 H361 0.961 . S
C348 H362 0.961 . S
C349 C346 1.539 . S
C349 H363 0.958 . S
C349 H364 0.961 . S
C349 H365 0.960 . S
H350 C334 0.931 . S
H351 C339 0.929 . S
H352 C340 0.960 . S
H353 C340 0.962 . S
H354 C340 0.960 . S
H355 C341 0.961 . S
H356 C341 0.961 . S
H357 C341 0.961 . S
H358 C342 0.931 . S
H359 C347 0.930 . S
H360 C348 0.956 . S
H361 C348 0.961 . S
H362 C348 0.961 . S
H363 C349 0.958 . S
H364 C349 0.961 . S
H365 C349 0.960 . S
C366 C367 1.391 . S
C366 C368 1.394 . S
C366 H382 0.931 . S
C367 C366 1.391 . S
C367 C371 1.376 . S
C368 C366 1.394 . S
C368 C369 1.369 . S
C368 C372 1.531 . S
C369 C368 1.369 . S
C369 C370 1.410 . S
C369 C377 1.503 . S
C370 C369 1.410 . S
C370 C371 1.392 . S
C370 C373 1.511 . S
C371 C367 1.376 . S
C371 C370 1.392 . S
C371 H383 0.929 . S
C372 C368 1.531 . S
C372 H384 0.960 . S
C372 H385 0.962 . S
C372 H386 0.960 . S
C373 C370 1.511 . S
C373 H387 0.961 . S
C373 H388 0.961 . S
C373 H389 0.961 . S
C374 C375 1.370 . S
C374 C376 1.363 . S
C374 H390 0.931 . S
C375 C374 1.370 . S
C375 C379 1.408 . S
C376 C374 1.363 . S
C376 C377 1.370 . S
C376 C380 1.524 . S
C377 C369 1.503 . S
C377 C376 1.370 . S
C377 C378 1.403 . S
C378 C377 1.403 . S
C378 C379 1.404 . S
C378 C381 1.539 . S
C379 C375 1.408 . S
C379 C378 1.404 . S
C379 H391 0.930 . S
C380 C376 1.524 . S
C380 H392 0.956 . S
C380 H393 0.961 . S
C380 H394 0.961 . S
C381 C378 1.539 . S
C381 H395 0.958 . S
C381 H396 0.961 . S
C381 H397 0.960 . S
H382 C366 0.931 . S
H383 C371 0.929 . S
H384 C372 0.960 . S
H385 C372 0.962 . S
H386 C372 0.960 . S
H387 C373 0.961 . S
H388 C373 0.961 . S
H389 C373 0.961 . S
H390 C374 0.931 . S
H391 C379 0.930 . S
H392 C380 0.956 . S
H393 C380 0.961 . S
H394 C380 0.961 . S
H395 C381 0.958 . S
H396 C381 0.961 . S
H397 C381 0.960 . S
C398 C399 1.391 . S
C398 C400 1.394 . S
C398 H414 0.931 . S
C399 C398 1.391 . S
C399 C403 1.376 . S
C400 C398 1.394 . S
C400 C401 1.369 . S
C400 C404 1.531 . S
C401 C400 1.369 . S
C401 C402 1.410 . S
C401 C409 1.503 . S
C402 C401 1.410 . S
C402 C403 1.392 . S
C402 C405 1.511 . S
C403 C399 1.376 . S
C403 C402 1.392 . S
C403 H415 0.929 . S
C404 C400 1.531 . S
C404 H416 0.960 . S
C404 H417 0.962 . S
C404 H418 0.960 . S
C405 C402 1.511 . S
C405 H419 0.961 . S
C405 H420 0.961 . S
C405 H421 0.961 . S
C406 C407 1.370 . S
C406 C408 1.363 . S
C406 H422 0.931 . S
C407 C406 1.370 . S
C407 C411 1.408 . S
C408 C406 1.363 . S
C408 C409 1.370 . S
C408 C412 1.524 . S
C409 C401 1.503 . S
C409 C408 1.370 . S
C409 C410 1.403 . S
C410 C409 1.403 . S
C410 C411 1.404 . S
C410 C413 1.539 . S
C411 C407 1.408 . S
C411 C410 1.404 . S
C411 H423 0.930 . S
C412 C408 1.524 . S
C412 H424 0.956 . S
C412 H425 0.961 . S
C412 H426 0.961 . S
C413 C410 1.539 . S
C413 H427 0.958 . S
C413 H428 0.961 . S
C413 H429 0.960 . S
H414 C398 0.931 . S
H415 C403 0.929 . S
H416 C404 0.960 . S
H417 C404 0.962 . S
H418 C404 0.960 . S
H419 C405 0.961 . S
H420 C405 0.961 . S
H421 C405 0.961 . S
H422 C406 0.931 . S
H423 C411 0.930 . S
H424 C412 0.956 . S
H425 C412 0.961 . S
H426 C412 0.961 . S
H427 C413 0.958 . S
H428 C413 0.961 . S
H429 C413 0.960 . S
C430 C431 1.391 . S
C430 C432 1.394 . S
C430 H446 0.931 . S
C431 C430 1.391 . S
C431 C435 1.376 . S
C432 C430 1.394 . S
C432 C433 1.369 . S
C432 C436 1.531 . S
C433 C432 1.369 . S
C433 C434 1.410 . S
C433 C441 1.503 . S
C434 C433 1.410 . S
C434 C435 1.392 . S
C434 C437 1.511 . S
C435 C431 1.376 . S
C435 C434 1.392 . S
C435 H447 0.929 1_556 S
C436 C432 1.531 . S
C436 H448 0.960 . S
C436 H449 0.962 . S
C436 H450 0.960 . S
C437 C434 1.511 . S
C437 H451 0.961 1_565 S
C437 H452 0.961 1_565 S
C437 H453 0.961 . S
C438 C439 1.370 . S
C438 C440 1.363 . S
C438 H454 0.931 1_565 S
C439 C438 1.370 . S
C439 C443 1.408 . S
C440 C438 1.363 . S
C440 C441 1.370 . S
C440 C444 1.536 . S
C441 C433 1.503 . S
C441 C440 1.370 . S
C441 C442 1.403 . S
C442 C441 1.403 . S
C442 C443 1.404 . S
C442 C445 1.539 . S
C443 C439 1.408 . S
C443 C442 1.404 . S
C443 H455 0.930 . S
C444 C440 1.536 . S
C444 H456 0.972 . S
C444 H457 0.952 1_565 S
C444 H458 0.943 1_565 S
C445 C442 1.539 . S
C445 H459 0.958 . S
C445 H460 0.961 . S
C445 H461 0.960 . S
H446 C430 0.931 . S
H447 C435 0.929 1_554 S
H448 C436 0.960 . S
H449 C436 0.962 . S
H450 C436 0.960 . S
H451 C437 0.961 1_545 S
H452 C437 0.961 1_545 S
H453 C437 0.961 . S
H454 C438 0.931 1_545 S
H455 C443 0.930 . S
H456 C444 0.972 . S
H457 C444 0.952 1_545 S
H458 C444 0.943 1_545 S
H459 C445 0.958 . S
H460 C445 0.961 . S
H461 C445 0.960 . S
C87 C52 1.280 . S
C79 C34 1.442 . S
C111 C7 1.435 . S
C119 C73 1.231 . S
C143 C16 1.592 . S
C151 C49 1.402 . S
C175 C25 1.600 . S
C183 C70 1.387 . S
C215 C54 1.487 . S
C207 C5 1.513 . S
C247 C74 1.477 . S
C239 C13 1.530 . S
C271 C23 1.520 . S
C279 C50 1.488 . S
C303 C32 1.520 . S
C311 C72 1.444 . S
C343 C71 1.479 . S
C335 C14 1.526 . S
C375 C53 1.475 . S
C367 C22 1.524 . S
C407 C75 1.494 . S
C399 C31 1.518 . S
C431 C4 1.496 1_556 S
C439 C51 1.464 . S
