# Generated by pormake.
# Topology zzz, (3,6)-cn, num edge types: 1
# Building blocks:
#     Node 0, Type 0, BuildingBlock: BETDAH_clean_linker_0, # of connection points: 3
#     Node 1, Type 0, BuildingBlock: BETDAH_clean_linker_0, # of connection points: 3
#     Node 2, Type 0, BuildingBlock: BETDAH_clean_linker_0, # of connection points: 3
#     Node 3, Type 0, BuildingBlock: BETDAH_clean_linker_0, # of connection points: 3
#     Node 4, Type 0, BuildingBlock: BETDAH_clean_linker_0, # of connection points: 3
#     Node 5, Type 0, BuildingBlock: BETDAH_clean_linker_0, # of connection points: 3
#     Node 6, Type 0, BuildingBlock: BETDAH_clean_linker_0, # of connection points: 3
#     Node 7, Type 0, BuildingBlock: BETDAH_clean_linker_0, # of connection points: 3
#     Node 8, Type 1, BuildingBlock: INOVEN_clean_sbu_0, # of connection points: 6
#     Node 9, Type 1, BuildingBlock: INOVEN_clean_sbu_0, # of connection points: 6
#     Node 10, Type 1, BuildingBlock: INOVEN_clean_sbu_0, # of connection points: 6
#     Node 11, Type 1, BuildingBlock: INOVEN_clean_sbu_0, # of connection points: 6
#     Edge 12, Type (0, 1), BuildingBlock: ZUJKAS_clean_linker_0, # of connection points: 2
#     Edge 13, Type (0, 1), BuildingBlock: ZUJKAS_clean_linker_0, # of connection points: 2
#     Edge 14, Type (0, 1), BuildingBlock: ZUJKAS_clean_linker_0, # of connection points: 2
#     Edge 15, Type (0, 1), BuildingBlock: ZUJKAS_clean_linker_0, # of connection points: 2
#     Edge 16, Type (0, 1), BuildingBlock: ZUJKAS_clean_linker_0, # of connection points: 2
#     Edge 17, Type (0, 1), BuildingBlock: ZUJKAS_clean_linker_0, # of connection points: 2
#     Edge 18, Type (0, 1), BuildingBlock: ZUJKAS_clean_linker_0, # of connection points: 2
#     Edge 19, Type (0, 1), BuildingBlock: ZUJKAS_clean_linker_0, # of connection points: 2
#     Edge 20, Type (0, 1), BuildingBlock: ZUJKAS_clean_linker_0, # of connection points: 2
#     Edge 21, Type (0, 1), BuildingBlock: ZUJKAS_clean_linker_0, # of connection points: 2
#     Edge 22, Type (0, 1), BuildingBlock: ZUJKAS_clean_linker_0, # of connection points: 2
#     Edge 23, Type (0, 1), BuildingBlock: ZUJKAS_clean_linker_0, # of connection points: 2
#     Edge 24, Type (0, 1), BuildingBlock: ZUJKAS_clean_linker_0, # of connection points: 2
#     Edge 25, Type (0, 1), BuildingBlock: ZUJKAS_clean_linker_0, # of connection points: 2
#     Edge 26, Type (0, 1), BuildingBlock: ZUJKAS_clean_linker_0, # of connection points: 2
#     Edge 27, Type (0, 1), BuildingBlock: ZUJKAS_clean_linker_0, # of connection points: 2
#     Edge 28, Type (0, 1), BuildingBlock: ZUJKAS_clean_linker_0, # of connection points: 2
#     Edge 29, Type (0, 1), BuildingBlock: ZUJKAS_clean_linker_0, # of connection points: 2
#     Edge 30, Type (0, 1), BuildingBlock: ZUJKAS_clean_linker_0, # of connection points: 2
#     Edge 31, Type (0, 1), BuildingBlock: ZUJKAS_clean_linker_0, # of connection points: 2
#     Edge 32, Type (0, 1), BuildingBlock: ZUJKAS_clean_linker_0, # of connection points: 2
#     Edge 33, Type (0, 1), BuildingBlock: ZUJKAS_clean_linker_0, # of connection points: 2
#     Edge 34, Type (0, 1), BuildingBlock: ZUJKAS_clean_linker_0, # of connection points: 2
#     Edge 35, Type (0, 1), BuildingBlock: ZUJKAS_clean_linker_0, # of connection points: 2
# Relax obj value: 0.219
# Max RMSD: 0.171
# Mean RMSD: 0.158
data_MOF--net-zzz--node1-INOVEN_clean_sbu_0--node2-BETDAH_clean_linker_0--edge1-ZUJKAS_clean_linker_0
_symmetry_space_group_name_H-M    P1
_symmetry_Int_Tables_number       1
_symmetry_cell_setting            triclinic
loop_
_symmetry_equiv_pos_as_xyz
'x, y, z'
_cell_length_a     68.339345
_cell_length_b     68.365167
_cell_length_c     17.307426
_cell_angle_alpha  90.045025
_cell_angle_beta   90.008702
_cell_angle_gamma 89.950385
loop_
_atom_site_label
_atom_site_type_symbol
_atom_site_fract_x
_atom_site_fract_y
_atom_site_fract_z
_atom_type_partial_charge
H0 H 0.80203 0.50876 0.2297 0.0
H1 H 0.74129 0.51361 0.17129 0.0
H2 H 0.75953 0.51703 0.41007 0.0
C3 C 0.78697 0.51075 0.2479 0.0
C4 C 0.78272 0.51259 0.32675 0.0
C5 C 0.77215 0.51126 0.19198 0.0
C6 C 0.75264 0.51346 0.21496 0.0
C7 C 0.74794 0.51575 0.29375 0.0
C8 C 0.76309 0.51545 0.34938 0.0
N9 N 0.72819 0.51825 0.31845 0.0
C10 C 0.71215 0.51858 0.26837 0.0
H11 H 1.00944 0.80028 0.24718 0.0
H12 H 0.01121 0.73983 0.17941 0.0
H13 H 1.00765 0.75557 0.4208 0.0
C14 C 1.00893 0.78489 0.26223 0.0
C15 C 1.00801 0.77971 0.34028 0.0
C16 C 0.01019 0.77063 0.20393 0.0
C17 C 0.01026 0.75079 0.22444 0.0
C18 C 1.00916 0.74517 0.30268 0.0
C19 C 1.00828 0.75976 0.3605 0.0
N20 N 1.00905 0.72507 0.3247 0.0
C21 C 1.00937 0.70947 0.27246 0.0
H22 H 0.73091 0.03392 0.26351 0.0
H23 H 0.78971 0.02205 0.1902 0.0
H24 H 0.76896 1.00037 0.4098 0.0
C25 C 0.7453 0.02793 0.27541 0.0
C26 C 0.74819 0.0175 0.34404 0.0
C27 C 0.76011 0.02952 0.21959 0.0
C28 C 0.77836 0.02087 0.2336 0.0
C29 C 0.7818 0.01048 0.30262 0.0
C30 C 0.76653 1.00862 0.35725 0.0
N31 N 0.80028 1.00155 0.31772 0.0
C32 C 0.81623 1.00234 0.26721 0.0
H33 H 0.51041 0.72606 0.2173 0.0
H34 H 0.51507 0.7867 0.15752 0.0
H35 H 0.52318 0.76829 0.39435 0.0
C36 C 0.5131 0.74108 0.23466 0.0
C37 C 0.51667 0.74523 0.31261 0.0
C38 C 0.51267 0.75589 0.17872 0.0
C39 C 0.51566 0.77533 0.20101 0.0
C40 C 0.51963 0.77997 0.27885 0.0
C41 C 0.5203 0.76479 0.33436 0.0
N42 N 0.5228 0.79968 0.30274 0.0
C43 C 0.52185 0.81577 0.25305 0.0
H44 H 0.23068 0.50542 0.14801 0.0
H45 H 0.29167 0.50914 0.20314 0.0
H46 H 0.27333 0.50233 0.96582 0.0
C47 C 0.24584 0.50496 0.12946 0.0
C48 C 0.25006 0.50315 0.05054 0.0
C49 C 0.26074 0.50723 0.18444 0.0
C50 C 0.28028 0.50744 0.16029 0.0
C51 C 0.28503 0.50551 0.08143 0.0
C52 C 0.26979 0.50364 0.02661 0.0
N53 N 0.30488 0.5055 0.05596 0.0
C54 C 0.32102 0.50634 0.10557 0.0
H55 H 0.01627 0.2282 0.13163 0.0
H56 H 0.01973 0.28858 0.19726 0.0
H57 H 0.01993 0.27244 0.95592 0.0
C58 C 0.01744 0.24349 0.11543 0.0
C59 C 0.01801 0.24846 0.03701 0.0
C60 C 0.01823 0.25785 0.17326 0.0
C61 C 0.0192 0.27761 0.1523 0.0
C62 C 0.01982 0.28307 0.07386 0.0
C63 C 0.01948 0.26836 0.01637 0.0
N64 N 0.02066 0.30313 0.05139 0.0
C65 C 0.02032 0.31886 0.10311 0.0
H66 H 0.29473 0.99111 0.11729 0.0
H67 H 0.23555 1.00109 0.18935 0.0
H68 H 0.25547 0.02252 0.96833 0.0
C69 C 0.28016 0.99653 0.10468 0.0
C70 C 0.2769 1.00643 0.03498 0.0
C71 C 0.26539 0.99458 0.16048 0.0
C72 C 0.24688 1.0026 0.14609 0.0
C73 C 0.24311 0.01268 0.07667 0.0
C74 C 0.25826 0.01466 0.02154 0.0
N75 N 0.2244 0.02111 0.06143 0.0
C76 C 0.20857 0.02043 0.11258 0.0
H77 H 0.50106 0.29621 0.1428 0.0
H78 H 0.50533 0.23502 0.19338 0.0
H79 H 0.50257 0.25469 0.95634 0.0
C80 C 0.50136 0.28116 0.12288 0.0
C81 C 0.50114 0.27742 0.04331 0.0
C82 C 0.50291 0.26599 0.17702 0.0
C83 C 0.50416 0.24664 0.15116 0.0
C84 C 0.50391 0.24235 0.07152 0.0
C85 C 0.50264 0.25787 0.01767 0.0
N86 N 0.50497 0.22264 0.04461 0.0
C87 C 0.50586 0.20645 0.09381 0.0
Gd88 Gd 0.0222 1.00842 0.77303 0.0
Gd89 Gd 1.00199 0.01926 0.61641 0.0
C90 C 0.01241 0.97444 0.64286 0.0
C91 C 0.02708 0.992 0.90429 0.0
C92 C 0.03588 0.97272 0.918 0.0
C93 C 0.05023 0.9656 0.86702 0.0
C94 C 0.02711 0.95992 0.97064 0.0
C95 C 0.04546 0.93266 0.91574 0.0
C96 C 0.03186 0.94005 0.96959 0.0
C97 C 0.05504 0.94577 0.86613 0.0
C98 C 0.04985 0.01174 0.65971 0.0
C99 C 0.01601 0.05377 0.73925 0.0
C100 C 0.99154 0.03757 0.49359 0.0
C101 C 0.99335 0.05869 0.47753 0.0
C102 C 0.9764 0.07028 0.47407 0.0
C103 C 0.01172 0.06791 0.48023 0.0
C104 C 0.99598 0.09976 0.48915 0.0
C105 C 0.01301 0.08823 0.48551 0.0
C106 C 0.97769 0.09061 0.47998 0.0
C107 C 0.97802 1.00844 0.73317 0.0
O108 O 0.01569 0.97914 0.71617 0.0
O109 O 1.00873 0.98784 0.58952 0.0
O110 O 0.03887 1.00576 0.87904 0.0
O111 O 0.01047 0.99115 0.86645 0.0
O112 O 0.05387 1.00793 0.73134 0.0
O113 O 0.03162 0.01383 0.65446 0.0
O114 O 0.01116 0.04861 0.66768 0.0
O115 O 0.0193 0.04067 0.79403 0.0
O116 O 0.9793 0.03327 0.54917 0.0
O117 O 1.00784 0.0275 0.49765 0.0
O118 O 0.97532 1.00353 0.66138 0.0
O119 O 0.99301 0.01916 0.73899 0.0
H120 H 0.05694 0.97514 0.82473 0.0
H121 H 0.01569 0.96505 0.00908 0.0
H122 H 0.02398 0.93033 0.00791 0.0
H123 H 0.06575 0.9406 0.82475 0.0
H124 H 0.96207 0.06353 0.47161 0.0
H125 H 0.02509 0.05944 0.4834 0.0
H126 H 0.02735 0.09471 0.49253 0.0
H127 H 0.96431 0.09909 0.47966 0.0
Gd128 Gd 0.51857 0.02242 0.76491 0.0
Gd129 Gd 0.50436 1.00315 0.59998 0.0
C130 C 0.55075 0.01014 0.63149 0.0
C131 C 0.53532 0.02717 0.8959 0.0
C132 C 0.55512 0.03485 0.91035 0.0
C133 C 0.56137 0.0524 0.87562 0.0
C134 C 0.56903 0.02251 0.94468 0.0
C135 C 0.59518 0.04369 0.90032 0.0
C136 C 0.58892 0.02681 0.93908 0.0
C137 C 0.5813 0.05687 0.8713 0.0
C138 C 0.5161 0.04958 0.64889 0.0
C139 C 0.47224 0.01599 0.73275 0.0
C140 C 0.48756 0.99785 0.46946 0.0
C141 C 0.46789 0.98963 0.45635 0.0
C142 C 0.4626 0.97141 0.48807 0.0
C143 C 0.45319 1.00194 0.4272 0.0
C144 C 0.42827 0.9794 0.47215 0.0
C145 C 0.43354 0.99695 0.43577 0.0
C146 C 0.44288 0.96627 0.49532 0.0
C147 C 0.50685 0.97598 0.71591 0.0
O148 O 0.54692 0.01465 0.70471 0.0
O149 O 0.53687 1.0066 0.5793 0.0
O150 O 0.52213 0.03953 0.86976 0.0
O151 O 0.53523 0.01041 0.85918 0.0
O152 O 0.52138 0.05368 0.71907 0.0
O153 O 0.51253 0.03154 0.64678 0.0
O154 O 0.47608 0.01177 0.65927 0.0
O155 O 0.4861 0.01892 0.78555 0.0
O156 O 0.50113 0.98588 0.49537 0.0
O157 O 0.48739 0.01469 0.50559 0.0
O158 O 0.5014 0.97194 0.64595 0.0
O159 O 0.51041 0.99401 0.7181 0.0
H160 H 0.55102 0.06209 0.84766 0.0
H161 H 0.56459 1.00883 0.97098 0.0
H162 H 0.59948 0.01657 0.96251 0.0
H163 H 0.58591 0.06999 0.84135 0.0
H164 H 0.47356 0.96167 0.51179 0.0
H165 H 0.45687 0.01609 0.40309 0.0
H166 H 0.4224 1.00716 0.4168 0.0
H167 H 0.43903 0.95262 0.52323 0.0
Gd168 Gd 0.50618 0.51938 0.76916 0.0
Gd169 Gd 0.52701 0.50614 0.61712 0.0
C170 C 0.51805 0.55155 0.63563 0.0
C171 C 0.50058 0.53702 0.89774 0.0
C172 C 0.49122 0.55614 0.90979 0.0
C173 C 0.4754 0.56193 0.86309 0.0
C174 C 0.5003 0.56997 0.95743 0.0
C175 C 0.47897 0.59552 0.90672 0.0
C176 C 0.49426 0.58948 0.95589 0.0
C177 C 0.46928 0.58141 0.86184 0.0
C178 C 0.47907 0.51595 0.65404 0.0
C179 C 0.51234 0.47343 0.74608 0.0
C180 C 0.53729 0.48662 0.49658 0.0
C181 C 0.53643 0.46537 0.48403 0.0
C182 C 0.55241 0.45556 0.45102 0.0
C183 C 0.52094 0.45445 0.51542 0.0
C184 C 0.53814 0.42425 0.48669 0.0
C185 C 0.52184 0.4341 0.51706 0.0
C186 C 0.5532 0.43511 0.45183 0.0
C187 C 0.55063 0.5178 0.73352 0.0
O188 O 0.51432 0.54775 0.70931 0.0
O189 O 0.52135 0.53746 0.58465 0.0
O190 O 0.48919 0.52275 0.87398 0.0
O191 O 0.51722 0.53795 0.86023 0.0
O192 O 0.47492 0.521 0.72431 0.0
O193 O 0.49722 0.51296 0.65044 0.0
O194 O 0.51913 0.47742 0.67597 0.0
O195 O 0.50731 0.48729 0.79566 0.0
O196 O 0.54974 0.4921 0.5497 0.0
O197 O 0.52045 0.4957 0.50178 0.0
O198 O 0.55379 0.52177 0.66109 0.0
O199 O 0.53534 0.50754 0.74028 0.0
H200 H 0.46831 0.5516 0.82479 0.0
H201 H 0.51278 0.5659 0.99256 0.0
H202 H 0.50229 0.59999 0.99034 0.0
H203 H 0.45729 0.5855 0.8242 0.0
H204 H 0.5646 0.46373 0.42739 0.0
H205 H 0.50843 0.46164 0.54138 0.0
H206 H 0.50988 0.42606 0.54307 0.0
H207 H 0.56593 0.42783 0.42804 0.0
Gd208 Gd 0.00996 0.50373 0.76981 0.0
Gd209 Gd 0.02143 0.5246 0.61622 0.0
C210 C 0.97669 0.51447 0.63897 0.0
C211 C 0.99201 0.49856 0.89757 0.0
C212 C 0.97198 0.49095 0.90386 0.0
C213 C 0.96483 0.47844 0.84585 0.0
C214 C 0.95881 0.49965 0.95542 0.0
C215 C 0.93144 0.48548 0.88447 0.0
C216 C 0.93869 0.49686 0.94608 0.0
C217 C 0.94476 0.47569 0.83635 0.0
C218 C 0.01196 0.47678 0.65336 0.0
C219 C 0.05563 0.51039 0.74114 0.0
C220 C 0.04047 0.53582 0.4964 0.0
C221 C 0.06133 0.54116 0.49276 0.0
C222 C 0.06959 0.55336 0.54964 0.0
C223 C 0.07368 0.53139 0.4409 0.0
C224 C 0.10224 0.54406 0.50852 0.0
C225 C 0.09396 0.53283 0.44869 0.0
C226 C 0.08987 0.55491 0.55703 0.0
C227 C 0.01142 0.54822 0.73532 0.0
O228 O 0.98116 0.51192 0.71282 0.0
O229 O 0.99038 0.51712 0.58584 0.0
O230 O 1.00538 0.48623 0.87273 0.0
O231 O 0.99287 0.51567 0.8636 0.0
O232 O 1.0083 0.47243 0.72476 0.0
O233 O 0.01476 0.49493 0.64989 0.0
O234 O 0.05081 0.51759 0.67238 0.0
O235 O 0.04229 0.50488 0.79222 0.0
O236 O 0.02912 0.54761 0.53579 0.0
O237 O 0.03714 0.51735 0.51128 0.0
O238 O 1.00666 0.55149 0.66385 0.0
O239 O 0.02167 0.53286 0.73981 0.0
H240 H 0.97465 0.47188 0.80417 0.0
H241 H 0.964 0.50959 0.99971 0.0
H242 H 0.92877 0.50425 0.98525 0.0
H243 H 0.93969 0.46695 0.78811 0.0
H244 H 0.06045 0.56085 0.59136 0.0
H245 H 0.06765 0.52183 0.397 0.0
H246 H 0.10318 0.52466 0.40925 0.0
H247 H 0.09581 0.56362 0.60378 0.0
H248 H 0.17035 0.02286 0.07347 0.0
H249 H 0.14204 0.02276 0.16121 0.0
H250 H 0.18094 0.01662 0.35603 0.0
H251 H 0.2092 0.01713 0.26843 0.0
H252 H 0.129 0.99506 0.26335 0.0
H253 H 0.14782 0.06278 0.42246 0.0
H254 H 0.15973 0.05594 0.33338 0.0
H255 H 0.1672 0.04507 0.42337 0.0
C256 C 0.17278 0.02156 0.13512 0.0
C257 C 0.19187 0.02007 0.16447 0.0
C258 C 0.15663 0.02148 0.18519 0.0
C259 C 0.15929 0.02002 0.26558 0.0
C260 C 0.17846 0.01823 0.29458 0.0
H261 H 0.08917 0.00949 0.67595 0.0
H262 H 0.11437 0.01192 0.57648 0.0
C263 C 0.1946 0.01836 0.2445 0.0
C264 C 0.14208 0.02002 0.31893 0.0
H265 H 0.12286 0.04284 0.47774 0.0
C266 C 0.12756 1.00563 0.30976 0.0
C267 C 0.14006 0.03386 0.37937 0.0
C268 C 0.15442 0.05041 0.38991 0.0
C269 C 0.11158 1.00424 0.36103 0.0
C270 C 0.10987 0.01778 0.42265 0.0
C271 C 0.12416 0.03242 0.43074 0.0
C272 C 0.0941 0.01638 0.48216 0.0
C273 C 0.09707 0.98784 0.35053 0.0
C274 C 0.07417 0.01824 0.46276 0.0
C275 C 0.05962 0.01684 0.52001 0.0
C276 C 0.06475 0.01365 0.59763 0.0
C277 C 0.08469 0.01196 0.61671 0.0
C278 C 0.09915 0.01337 0.55983 0.0
H279 H 0.10267 0.97632 0.31097 0.0
H280 H 0.09342 0.98102 0.40692 0.0
H281 H 0.08336 0.99381 0.32547 0.0
H282 H 0.06986 0.02089 0.40348 0.0
H283 H 0.04443 0.01817 0.50351 0.0
H284 H 0.48503 0.17283 0.08665 0.0
H285 H 0.48617 0.14533 0.17827 0.0
H286 H 0.53016 0.17562 0.31109 0.0
H287 H 0.52879 0.20316 0.2201 0.0
H288 H 0.51695 0.12106 0.22142 0.0
H289 H 0.48966 0.16237 0.47517 0.0
H290 H 0.48796 0.17174 0.37794 0.0
H291 H 0.51063 0.17335 0.43039 0.0
C292 C 0.49489 0.17355 0.13558 0.0
C293 C 0.50677 0.19003 0.14684 0.0
C294 C 0.49556 0.15786 0.1878 0.0
C295 C 0.50803 0.15848 0.25245 0.0
C296 C 0.52012 0.17493 0.26276 0.0
H297 H 0.53631 0.08346 0.63969 0.0
H298 H 0.5343 0.10888 0.54067 0.0
C299 C 0.51944 0.19059 0.21057 0.0
C300 C 0.50854 0.1419 0.30861 0.0
H301 H 0.50258 0.1307 0.49972 0.0
C302 C 0.51368 0.12313 0.2822 0.0
C303 C 0.50422 0.14454 0.38798 0.0
C304 C 0.49762 0.16403 0.41959 0.0
C305 C 0.51522 0.10713 0.33322 0.0
C306 C 0.51118 0.10986 0.4128 0.0
C307 C 0.50578 0.12857 0.4389 0.0
C308 C 0.51293 0.0937 0.47057 0.0
C309 C 0.52177 0.08761 0.30179 0.0
C310 C 0.50156 0.07661 0.46475 0.0
C311 C 0.50279 0.06195 0.52146 0.0
C312 C 0.51533 0.06412 0.58517 0.0
C313 C 0.5266 0.08126 0.59095 0.0
C314 C 0.52545 0.09584 0.53437 0.0
H315 H 0.529 0.08909 0.24461 0.0
H316 H 0.53207 0.08031 0.3422 0.0
H317 H 0.50882 0.07801 0.29445 0.0
H318 H 0.49133 0.07482 0.4175 0.0
H319 H 0.49335 0.04942 0.51706 0.0
H320 H 0.32266 0.52071 0.25131 0.0
H321 H 0.35119 0.52119 0.33757 0.0
H322 H 0.38611 0.49386 0.16015 0.0
H323 H 0.35751 0.49333 0.07382 0.0
H324 H 0.37375 0.48838 0.38861 0.0
H325 H 0.41933 0.54167 0.22616 0.0
H326 H 0.39335 0.53911 0.20993 0.0
H327 H 0.41006 0.52131 0.1715 0.0
C328 C 0.33643 0.51482 0.23081 0.0
C329 C 0.33796 0.50696 0.15616 0.0
C330 C 0.35273 0.51512 0.28004 0.0
C331 C 0.37089 0.50776 0.25517 0.0
C332 C 0.37238 0.49992 0.18027 0.0
H333 H 0.48388 0.50308 0.50352 0.0
H334 H 0.4584 0.4998 0.40377 0.0
C335 C 0.35604 0.49953 0.13116 0.0
C336 C 0.38801 0.50779 0.30869 0.0
H337 H 0.4335 0.52744 0.3372 0.0
C338 C 0.38682 0.4969 0.37726 0.0
C339 C 0.40518 0.51872 0.29357 0.0
C340 C 0.40712 0.53101 0.22164 0.0
C341 C 0.40221 0.49674 0.43125 0.0
C342 C 0.41914 0.50818 0.41748 0.0
C343 C 0.42055 0.5187 0.34795 0.0
C344 C 0.43489 0.51031 0.47672 0.0
C345 C 0.40022 0.48413 0.50235 0.0
C346 C 0.43033 0.51767 0.55027 0.0
C347 C 0.4448 0.51946 0.60691 0.0
C348 C 0.4643 0.51415 0.59142 0.0
C349 C 0.46903 0.50721 0.51728 0.0
C350 C 0.45446 0.50535 0.4603 0.0
H351 H 0.38988 0.47184 0.49255 0.0
H352 H 0.41457 0.47802 0.52035 0.0
H353 H 0.39436 0.49313 0.5505 0.0
H354 H 0.41552 0.52211 0.56397 0.0
H355 H 0.44066 0.52505 0.66316 0.0
H356 H 0.0292 0.3563 0.06759 0.0
H357 H 0.02895 0.3847 0.15513 0.0
H358 H 0.01022 0.3475 0.34213 0.0
H359 H 0.01045 0.3192 0.25483 0.0
H360 H 0.99764 0.40049 0.24467 0.0
H361 H 0.05873 0.37537 0.43078 0.0
H362 H 0.05394 0.36494 0.33678 0.0
H363 H 0.03954 0.3577 0.41882 0.0
C364 C 0.02508 0.35425 0.1275 0.0
C365 C 0.02002 0.3356 0.15484 0.0
C366 C 0.02491 0.37046 0.17737 0.0
C367 C 0.01985 0.36823 0.25559 0.0
C368 C 0.01454 0.34956 0.28249 0.0
H369 H 1.00696 0.4377 0.66556 0.0
H370 H 1.00921 0.41285 0.56484 0.0
C371 C 0.01463 0.33339 0.23256 0.0
C372 C 0.01993 0.38537 0.30905 0.0
H373 H 0.04021 0.40241 0.47663 0.0
C374 C 1.00706 0.40103 0.29505 0.0
C375 C 0.03228 0.38612 0.37463 0.0
C376 C 0.04705 0.37024 0.39101 0.0
C377 C 1.00563 0.41697 0.34653 0.0
C378 C 0.0177 0.4175 0.4131 0.0
C379 C 0.03091 0.40206 0.42585 0.0
C380 C 0.01607 0.43318 0.47304 0.0
C381 C 0.99064 0.43268 0.3308 0.0
C382 C 0.01922 0.45306 0.45556 0.0
C383 C 0.01783 0.46744 0.51356 0.0
C384 C 0.01347 0.46215 0.59011 0.0
C385 C 0.01039 0.44229 0.60723 0.0
C386 C 0.0117 0.42802 0.54959 0.0
H387 H 0.97952 0.42784 0.28802 0.0
H388 H 0.98302 0.43704 0.3848 0.0
H389 H 0.9981 0.44577 0.3071 0.0
H390 H 0.02296 0.45744 0.39732 0.0
H391 H 0.0202 0.4826 0.49858 0.0
H392 H 0.85117 0.01976 0.2923 0.0
H393 H 0.87934 0.02075 0.20387 0.0
H394 H 0.8469 0.98683 0.0372 0.0
H395 H 0.81868 0.98615 0.12515 0.0
H396 H 0.90147 0.99086 0.14165 0.0
H397 H 0.86533 0.03257 0.90708 0.0
H398 H 0.85492 0.03048 0.00252 0.0
H399 H 0.85231 0.01084 0.93404 0.0
C400 C 0.8501 0.01262 0.23653 0.0
C401 C 0.83283 1.00297 0.215 0.0
C402 C 0.86619 0.01315 0.18615 0.0
C403 C 0.86521 1.00413 0.11316 0.0
C404 C 0.84792 0.99428 0.09228 0.0
H405 H 0.94345 0.98882 0.72251 0.0
H406 H 0.91701 0.98733 0.81769 0.0
C407 C 0.83185 0.99378 0.14264 0.0
C408 C 0.88233 1.00476 0.05948 0.0
H409 H 0.89625 0.01849 0.8776 0.0
C410 C 0.90036 0.99701 0.08408 0.0
C411 C 0.88097 0.01282 0.98429 0.0
C412 C 0.86241 0.02232 0.95553 0.0
C413 C 0.91682 0.99663 0.035 0.0
C414 C 0.91536 1.00448 0.95951 0.0
C415 C 0.89739 0.01238 0.93524 0.0
C416 C 0.93214 1.00447 0.90414 0.0
C417 C 0.93548 0.98732 0.0637 0.0
C418 C 0.9496 0.01452 0.92088 0.0
C419 C 0.96481 0.01535 0.86639 0.0
C420 C 0.9628 1.00626 0.79388 0.0
C421 C 0.94547 0.99596 0.77782 0.0
C422 C 0.93031 0.99514 0.83217 0.0
H423 H 0.93281 0.97766 0.11419 0.0
H424 H 0.9426 0.97861 0.01738 0.0
H425 H 0.94579 0.99897 0.08193 0.0
H426 H 0.95129 0.02215 0.9753 0.0
H427 H 0.97794 0.0235 0.88031 0.0
H428 H 0.55085 0.83027 0.1638 0.0
H429 H 0.54919 0.85891 0.07814 0.0
H430 H 0.4887 0.86746 0.14108 0.0
H431 H 0.4905 0.83899 0.22743 0.0
H432 H 0.52614 0.86544 0.95205 0.0
H433 H 0.51103 0.92195 0.17382 0.0
H434 H 0.51932 0.89765 0.19822 0.0
H435 H 0.49398 0.902 0.17581 0.0
C436 C 0.53726 0.83838 0.15943 0.0
C437 C 0.52083 0.8326 0.20217 0.0
C438 C 0.53631 0.85472 0.11056 0.0
C439 C 0.51892 0.86563 0.10398 0.0
C440 C 0.50242 0.85964 0.14641 0.0
H441 H 0.48609 0.94253 0.72742 0.0
H442 H 0.48932 0.91641 0.82304 0.0
C443 C 0.50339 0.8433 0.19527 0.0
C444 C 0.51785 0.88278 0.05065 0.0
H445 H 0.50696 0.93163 0.04232 0.0
C446 C 0.52204 0.87992 0.97198 0.0
C447 C 0.51279 0.9018 0.07652 0.0
C448 C 0.50921 0.90614 0.16081 0.0
C449 C 0.5208 0.89535 0.9184 0.0
C450 C 0.5149 0.91417 0.94368 0.0
C451 C 0.51125 0.91719 0.02267 0.0
C452 C 0.51216 0.93074 0.88855 0.0
C453 C 0.52602 0.89136 0.83515 0.0
C454 C 0.52341 0.94789 0.89475 0.0
C455 C 0.52146 0.96297 0.84011 0.0
C456 C 0.50808 0.96128 0.7789 0.0
C457 C 0.49654 0.9443 0.77401 0.0
C458 C 0.49844 0.92929 0.82843 0.0
H459 H 0.53534 0.87812 0.82929 0.0
H460 H 0.51241 0.88886 0.80161 0.0
H461 H 0.53386 0.90398 0.80922 0.0
H462 H 0.53415 0.94934 0.94044 0.0
H463 H 0.53104 0.97542 0.84381 0.0
H464 H 0.71011 0.53501 0.12662 0.0
H465 H 0.68163 0.5357 0.03978 0.0
H466 H 0.64811 0.50326 0.20752 0.0
H467 H 0.67653 0.50281 0.29457 0.0
H468 H 0.6613 0.50483 0.9749 0.0
H469 H 0.61165 0.54885 0.15983 0.0
H470 H 0.63759 0.54701 0.17813 0.0
H471 H 0.62146 0.52751 0.20626 0.0
C472 C 0.6966 0.52813 0.14482 0.0
C473 C 0.69537 0.51894 0.21707 0.0
C474 C 0.68035 0.52851 0.09531 0.0
C475 C 0.66256 0.51982 0.11748 0.0
C476 C 0.66147 0.51047 0.18971 0.0
H477 H 0.55024 0.50344 0.88164 0.0
H478 H 0.57712 0.50407 0.97597 0.0
C479 C 0.67773 0.51009 0.23917 0.0
C480 C 0.64542 0.52003 0.06397 0.0
H481 H 0.59774 0.53482 0.04699 0.0
C482 C 0.64744 0.51147 0.9906 0.0
C483 C 0.62725 0.52858 0.08446 0.0
C484 C 0.62433 0.53867 0.16116 0.0
C485 C 0.63181 0.51102 0.93769 0.0
C486 C 0.61369 0.51973 0.95785 0.0
C487 C 0.6116 0.52816 0.03143 0.0
C488 C 0.5969 0.52041 0.90277 0.0
C489 C 0.63475 0.50085 0.86114 0.0
C490 C 0.59879 0.52991 0.83124 0.0
C491 C 0.58349 0.52956 0.77743 0.0
C492 C 0.56588 0.51981 0.7941 0.0
C493 C 0.56365 0.51102 0.86702 0.0
C494 C 0.57901 0.51135 0.92091 0.0
H495 H 0.64724 0.49044 0.8631 0.0
H496 H 0.62139 0.49274 0.84362 0.0
H497 H 0.63797 0.51193 0.8161 0.0
H498 H 0.61223 0.53742 0.81654 0.0
H499 H 0.58561 0.53662 0.72205 0.0
H500 H 0.02742 0.67473 0.29393 0.0
H501 H 0.02774 0.6466 0.20519 0.0
H502 H 0.9917 0.67878 0.04477 0.0
H503 H 0.99163 0.70695 0.13313 0.0
H504 H 0.99712 0.62434 0.14765 0.0
H505 H 0.03652 0.66069 0.9075 0.0
H506 H 0.03537 0.67099 0.00344 0.0
H507 H 0.01502 0.6736 0.93833 0.0
C508 C 0.01967 0.67575 0.23945 0.0
C509 C 0.00961 0.69294 0.21978 0.0
C510 C 0.01981 0.6597 0.18891 0.0
C511 C 0.00999 0.66061 0.11759 0.0
C512 C 0.99974 0.67781 0.09854 0.0
H513 H 0.99193 0.58287 0.728 0.0
H514 H 0.9912 0.60913 0.82398 0.0
C515 C 0.99961 0.69386 0.14912 0.0
C516 C 0.01023 0.64351 0.06376 0.0
H517 H 0.02256 0.62966 0.88017 0.0
C518 C 1.00279 0.62547 0.08929 0.0
C519 C 0.01766 0.64491 0.98758 0.0
C520 C 0.02677 0.66353 0.95765 0.0
C521 C 1.00208 0.60901 0.04022 0.0
C522 C 1.00932 0.61049 0.96376 0.0
C523 C 0.01693 0.62849 0.93858 0.0
C524 C 1.00885 0.59376 0.90816 0.0
C525 C 0.99306 0.59035 0.07 0.0
C526 C 0.0189 0.5762 0.92339 0.0
C527 C 0.01927 0.56107 0.86843 0.0
C528 C 0.00973 0.56327 0.79694 0.0
C529 C 0.99943 0.5807 0.78247 0.0
C530 C 0.99904 0.59577 0.83729 0.0
H531 H 0.98376 0.59301 0.12162 0.0
H532 H 0.98403 0.5832 0.02474 0.0
H533 H 1.00488 0.58007 0.08685 0.0
H534 H 0.0269 0.57439 0.9769 0.0
H535 H 0.02744 0.54786 0.88107 0.0
H536 H 0.04023 0.22993 0.2425 0.0
H537 H 0.03355 0.21395 0.36512 0.0
H538 H 0.98821 0.25619 0.41376 0.0
H539 H 0.99446 0.27192 0.28849 0.0
H540 H 0.02981 0.22148 0.52337 0.0
H541 H 0.9572 0.20616 0.38744 0.0
H542 H 0.97628 0.2177 0.33206 0.0
H543 H 0.96415 0.23097 0.40789 0.0
C544 C 0.0291 0.23606 0.28001 0.0
C545 C 0.01746 0.25176 0.25524 0.0
C546 C 0.02541 0.22705 0.35054 0.0
C547 C 0.01006 0.23359 0.39784 0.0
C548 C 0.99986 0.25067 0.37737 0.0
H549 H 0.97134 0.12228 0.57812 0.0
H550 H 0.97232 0.15779 0.59637 0.0
C551 C 1.0035 0.2597 0.30611 0.0
C552 C 1.0029 0.2201 0.45852 0.0
H553 H 0.97028 0.18252 0.46839 0.0
C554 C 0.01638 0.21338 0.51384 0.0
C555 C 0.98515 0.20974 0.44767 0.0
C556 C 0.9698 0.2164 0.39066 0.0
C557 C 0.01398 0.19507 0.54915 0.0
C558 C 0.99788 0.18335 0.52781 0.0
C559 C 0.98283 0.19148 0.48327 0.0
C560 C 0.99898 0.16178 0.53108 0.0
C561 C 0.02961 0.18759 0.60301 0.0
C562 C 0.01354 0.15233 0.48775 0.0
C563 C 0.01268 0.13223 0.47484 0.0
C564 C 0.99727 0.12108 0.50547 0.0
C565 C 0.98313 0.13048 0.55186 0.0
C566 C 0.98386 0.15071 0.56377 0.0
H567 H 0.03602 0.19977 0.63713 0.0
H568 H 0.02373 0.17639 0.64324 0.0
H569 H 0.04156 0.18087 0.56856 0.0
H570 H 0.02501 0.16068 0.45989 0.0
H571 H 0.02368 0.12562 0.43813 0.0
H572 H 0.25636 1.00855 0.30471 0.0
H573 H 0.27423 1.0009 0.42347 0.0
H574 H 0.30472 0.95446 0.30498 0.0
H575 H 0.28612 0.96122 0.18813 0.0
H576 H 0.30392 0.94849 0.46365 0.0
H577 H 0.32778 0.02442 0.39021 0.0
H578 H 0.30283 0.02102 0.41928 0.0
H579 H 0.31124 0.01112 0.32882 0.0
C580 C 0.26614 0.99607 0.30515 0.0
C581 C 0.27046 0.98594 0.23647 0.0
C582 C 0.27645 0.9918 0.37296 0.0
C583 C 0.2914 0.9777 0.37192 0.0
C584 C 0.29347 0.96564 0.30683 0.0
H585 H 0.40507 0.95019 0.41715 0.0
H586 H 0.36941 0.94826 0.42778 0.0
C587 C 0.28298 0.96965 0.2397 0.0
C588 C 0.3078 0.97842 0.42782 0.0
H589 H 0.34887 1.00535 0.46101 0.0
C590 C 0.31354 0.9611 0.46523 0.0
C591 C 0.32032 0.99494 0.43031 0.0
C592 C 0.31538 0.01392 0.38987 0.0
C593 C 0.33215 0.95935 0.4991 0.0
C594 C 0.34534 0.97522 0.49424 0.0
C595 C 0.33879 0.99313 0.46436 0.0
C596 C 0.36673 0.97297 0.50586 0.0
C597 C 0.33778 0.94027 0.53657 0.0
C598 C 0.37719 0.98732 0.5467 0.0
C599 C 0.39744 0.98876 0.53844 0.0
C600 C 0.40757 0.97569 0.49036 0.0
C601 C 0.39745 0.96035 0.45468 0.0
C602 C 0.37711 0.95911 0.46174 0.0
H603 H 0.32489 0.93341 0.56473 0.0
H604 H 0.34309 0.92999 0.49155 0.0
H605 H 0.34948 0.94229 0.58035 0.0
H606 H 0.36955 0.99826 0.5805 0.0
H607 H 0.40511 1.00063 0.56659 0.0
H608 H 0.52939 0.25196 0.28225 0.0
H609 H 0.53801 0.2674 0.40521 0.0
H610 H 0.48985 0.30778 0.37693 0.0
H611 H 0.48059 0.29162 0.25832 0.0
H612 H 0.55244 0.30024 0.404 0.0
H613 H 0.49152 0.30987 0.60062 0.0
H614 H 0.49082 0.29085 0.52805 0.0
H615 H 0.48084 0.31492 0.50862 0.0
C616 C 0.52008 0.26347 0.30466 0.0
C617 C 0.50462 0.27097 0.26002 0.0
C618 C 0.52505 0.27235 0.37487 0.0
C619 C 0.51471 0.2889 0.40087 0.0
C620 C 0.49793 0.29484 0.36009 0.0
H621 H 0.54749 0.39828 0.37314 0.0
H622 H 0.54664 0.36271 0.38037 0.0
C623 C 0.49281 0.28581 0.29098 0.0
C624 C 0.52376 0.3029 0.45605 0.0
H625 H 0.50867 0.34206 0.56145 0.0
C626 C 0.54308 0.30891 0.44126 0.0
C627 C 0.51229 0.31393 0.50835 0.0
C628 C 0.49281 0.30679 0.53778 0.0
C629 C 0.54978 0.32724 0.46589 0.0
C630 C 0.53656 0.34006 0.50314 0.0
C631 C 0.5186 0.33267 0.52962 0.0
C632 C 0.53949 0.36157 0.50254 0.0
C633 C 0.57051 0.33308 0.44713 0.0
C634 C 0.53514 0.37293 0.56788 0.0
C635 C 0.535 0.39331 0.5628 0.0
C636 C 0.53944 0.40272 0.4928 0.0
C637 C 0.54434 0.3914 0.42811 0.0
C638 C 0.54408 0.37104 0.43264 0.0
H639 H 0.58053 0.32043 0.45485 0.0
H640 H 0.57142 0.33754 0.38558 0.0
H641 H 0.57566 0.34532 0.48411 0.0
H642 H 0.53133 0.36605 0.6222 0.0
H643 H 0.53114 0.40177 0.61325 0.0
H644 H 0.23509 0.48647 0.27187 0.0
H645 H 0.2186 0.49803 0.38801 0.0
H646 H 0.25759 0.54755 0.39869 0.0
H647 H 0.27381 0.5363 0.28022 0.0
H648 H 0.22518 0.51172 0.54149 0.0
H649 H 0.20525 0.57179 0.33703 0.0
H650 H 0.21823 0.55046 0.30371 0.0
H651 H 0.23053 0.56838 0.36215 0.0
C652 C 0.24051 0.49952 0.30023 0.0
C653 C 0.2553 0.51081 0.26603 0.0
C654 C 0.2312 0.50604 0.36703 0.0
C655 C 0.23656 0.52392 0.40077 0.0
C656 C 0.25303 0.5339 0.37261 0.0
H657 H 0.12667 0.57466 0.54369 0.0
H658 H 0.16243 0.57376 0.55437 0.0
C659 C 0.26233 0.52741 0.30521 0.0
C660 C 0.22224 0.53355 0.45247 0.0
H661 H 0.18369 0.56487 0.43596 0.0
C662 C 0.21644 0.52381 0.52012 0.0
C663 C 0.21099 0.54956 0.42533 0.0
C664 C 0.21642 0.56069 0.35306 0.0
C665 C 0.19856 0.52821 0.5561 0.0
C666 C 0.18611 0.54237 0.52234 0.0
C667 C 0.19313 0.55384 0.46122 0.0
C668 C 0.16471 0.54251 0.53614 0.0
C669 C 0.19263 0.51681 0.62688 0.0
C670 C 0.15408 0.52523 0.52371 0.0
C671 C 0.13377 0.52571 0.51756 0.0
C672 C 0.12363 0.54354 0.52258 0.0
C673 C 0.13412 0.56071 0.53931 0.0
C674 C 0.15452 0.56021 0.54576 0.0
H675 H 0.20553 0.51405 0.66443 0.0
H676 H 0.18129 0.5246 0.66104 0.0
H677 H 0.18678 0.50236 0.60898 0.0
H678 H 0.16153 0.51146 0.51396 0.0
H679 H 0.12604 0.51216 0.50666 0.0
H680 H 0.03589 0.75622 0.09557 0.0
H681 H 0.0464 0.77307 0.97777 0.0
H682 H 1.00205 0.81706 0.01544 0.0
H683 H 0.9906 0.79954 0.12846 0.0
H684 H 0.01047 0.81498 0.86649 0.0
H685 H 0.08078 0.81766 0.03108 0.0
H686 H 0.07246 0.79455 0.99472 0.0
H687 H 0.05952 0.80631 0.07262 0.0
C688 C 0.02787 0.76902 0.07667 0.0
C689 C 0.0129 0.77703 0.12274 0.0
C690 C 0.03406 0.77878 0.00982 0.0
C691 C 0.02567 0.79685 0.98978 0.0
C692 C 1.00905 0.80332 0.03013 0.0
H693 H 0.04789 0.9056 0.03104 0.0
H694 H 0.04785 0.87021 0.01816 0.0
C695 C 1.00262 0.79342 0.09552 0.0
C696 C 0.03578 0.81111 0.9388 0.0
H697 H 0.0731 0.84399 0.95367 0.0
C698 C 0.02448 0.82105 0.88344 0.0
C699 C 0.05435 0.81877 0.95956 0.0
C700 C 0.06753 0.80887 0.01774 0.0
C701 C 0.02959 0.83994 0.85873 0.0
C702 C 0.04678 0.84866 0.88854 0.0
C703 C 0.05971 0.83733 0.93267 0.0
C704 C 0.04896 0.87019 0.89295 0.0
C705 C 0.01546 0.85116 0.80835 0.0
C706 C 0.05006 0.88202 0.82694 0.0
C707 C 0.04971 0.90241 0.8343 0.0
C708 C 0.04841 0.91124 0.9078 0.0
C709 C 0.04847 0.8993 0.97364 0.0
C710 C 0.04865 0.87903 0.96626 0.0
H711 H 1.00207 0.8426 0.79489 0.0
H712 H 0.01101 0.86497 0.83725 0.0
H713 H 0.02268 0.85501 0.753 0.0
H714 H 0.05067 0.87554 0.7699 0.0
H715 H 0.04968 0.91121 0.78233 0.0
H716 H 0.74041 0.06349 0.19109 0.0
H717 H 0.721 0.06984 0.07583 0.0
H718 H 0.74947 0.0219 0.95901 0.0
H719 H 0.7682 0.01475 0.07604 0.0
H720 H 0.72025 0.07391 0.91395 0.0
H721 H 0.6957 0.99998 0.01113 0.0
H722 H 0.71312 0.01401 0.06587 0.0
H723 H 0.72044 1.00216 0.97764 0.0
C724 C 0.74302 0.0547 0.13997 0.0
C725 C 0.75516 0.03813 0.14347 0.0
C726 C 0.73205 0.05847 0.07377 0.0
C727 C 0.73328 0.04584 0.01006 0.0
C728 C 0.74797 0.03147 0.00854 0.0
H729 H 0.61941 0.02025 0.81867 0.0
H730 H 0.65509 0.02235 0.81014 0.0
C731 C 0.75875 0.02747 0.07539 0.0
C732 C 0.71622 0.04469 0.95756 0.0
H733 H 0.67473 0.01774 0.93441 0.0
C734 C 0.71048 0.06144 0.9164 0.0
C735 C 0.70345 0.02838 0.96096 0.0
C736 C 0.70833 0.01014 0.00649 0.0
C737 C 0.69178 0.06278 0.88288 0.0
C738 C 0.6785 0.0471 0.89209 0.0
C739 C 0.6849 0.02977 0.92735 0.0
C740 C 0.6572 0.04901 0.87739 0.0
C741 C 0.68625 0.08121 0.84045 0.0
C742 C 0.64643 0.06369 0.91541 0.0
C743 C 0.62602 0.06266 0.91898 0.0
C744 C 0.6162 0.0467 0.88622 0.0
C745 C 0.62681 0.03263 0.84456 0.0
C746 C 0.64713 0.03389 0.83943 0.0
H747 H 0.6992 0.08764 0.81113 0.0
H748 H 0.67467 0.07847 0.79678 0.0
H749 H 0.6808 0.09218 0.88257 0.0
H750 H 0.65381 0.07517 0.94713 0.0
H751 H 0.61804 0.0736 0.95157 0.0
H752 H 0.4845 0.77116 0.08311 0.0
H753 H 0.471 0.75488 0.96827 0.0
H754 H 0.51666 0.71132 0.98255 0.0
H755 H 0.53062 0.72809 0.09303 0.0
H756 H 0.50403 0.71448 0.83719 0.0
H757 H 0.43914 0.70906 0.03229 0.0
H758 H 0.44612 0.73248 0.99459 0.0
H759 H 0.46118 0.72063 0.06592 0.0
C760 C 0.49207 0.75861 0.05926 0.0
C761 C 0.50821 0.75045 0.09794 0.0
C762 C 0.48423 0.74919 0.99425 0.0
C763 C 0.49228 0.73138 0.96881 0.0
C764 C 0.50996 0.72489 0.00139 0.0
H765 H 0.47744 0.6229 0.02131 0.0
H766 H 0.47439 0.6581 0.00722 0.0
C767 C 0.5179 0.73439 0.06509 0.0
C768 C 0.48104 0.71719 0.92135 0.0
H769 H 0.44613 0.68257 0.95412 0.0
C770 C 0.49094 0.70777 0.86063 0.0
C771 C 0.4636 0.70873 0.95056 0.0
C772 C 0.45183 0.71815 0.01439 0.0
C773 C 0.48609 0.68859 0.83874 0.0
C774 C 0.47047 0.67905 0.87692 0.0
C775 C 0.4584 0.68984 0.92668 0.0
C776 C 0.46976 0.65744 0.8833 0.0
C777 C 0.49909 0.67804 0.7818 0.0
C778 C 0.46769 0.64523 0.8187 0.0
C779 C 0.47003 0.62496 0.8264 0.0
C780 C 0.47409 0.61661 0.89917 0.0
C781 C 0.47481 0.62884 0.96426 0.0
C782 C 0.47281 0.64899 0.95631 0.0
H783 H 0.5116 0.68718 0.76251 0.0
H784 H 0.50497 0.6644 0.80775 0.0
H785 H 0.49041 0.67399 0.73007 0.0
H786 H 0.46488 0.65139 0.76219 0.0
H787 H 0.46945 0.61598 0.7749 0.0
H788 H 0.75879 0.48391 0.0892 0.0
H789 H 0.77507 0.47441 0.96811 0.0
H790 H 0.81458 0.52324 0.99251 0.0
H791 H 0.79816 0.5329 0.11136 0.0
H792 H 0.80792 0.51253 0.83581 0.0
H793 H 0.82707 0.44837 0.02111 0.0
H794 H 0.80194 0.45272 0.9958 0.0
H795 H 0.81419 0.46895 0.06161 0.0
C796 C 0.77043 0.49301 0.06664 0.0
C797 C 0.77759 0.50885 0.10995 0.0
C798 C 0.77976 0.48754 0.99782 0.0
C799 C 0.79635 0.49783 0.97247 0.0
C800 C 0.80187 0.51502 0.01105 0.0
H801 H 0.9057 0.51587 0.88977 0.0
H802 H 0.87042 0.51475 0.87456 0.0
C803 C 0.79259 0.52047 0.07929 0.0
C804 C 0.81065 0.48908 0.91827 0.0
H805 H 0.84987 0.45852 0.93108 0.0
C806 C 0.81675 0.50023 0.85456 0.0
C807 C 0.82199 0.47276 0.94153 0.0
C808 C 0.81609 0.45995 0.0087 0.0
C809 C 0.83516 0.49714 0.82064 0.0
C810 C 0.84774 0.48281 0.85235 0.0
C811 C 0.84037 0.46977 0.90768 0.0
C812 C 0.86932 0.48398 0.84429 0.0
C813 C 0.84144 0.51028 0.75527 0.0
C814 C 0.88063 0.46704 0.83309 0.0
C815 C 0.9009 0.46753 0.84441 0.0
C816 C 0.91017 0.48496 0.86738 0.0
C817 C 0.89895 0.50209 0.87423 0.0
C818 C 0.87876 0.50157 0.86343 0.0
H819 H 0.82929 0.51206 0.71321 0.0
H820 H 0.84489 0.52502 0.77847 0.0
H821 H 0.85447 0.50452 0.72446 0.0
H822 H 0.87366 0.45325 0.81922 0.0
H823 H 0.90916 0.45409 0.83842 0.0
H824 H 0.04495 0.2382 0.9263 0.0
H825 H 0.04583 0.20751 0.8516 0.0
H826 H 0.98995 0.19113 0.94727 0.0
H827 H 0.98907 0.22158 0.02124 0.0
H828 H 0.04644 0.17088 0.91768 0.0
H829 H 0.98322 0.17615 0.72045 0.0
H830 H 0.99381 0.19726 0.76709 0.0
H831 H 0.97651 0.18213 0.8179 0.0
C832 C 0.03259 0.22831 0.92919 0.0
C833 C 0.01686 0.23235 0.97907 0.0
C834 C 0.03316 0.21071 0.88701 0.0
C835 C 0.01787 0.19699 0.89308 0.0
C836 C 1.00175 0.20154 0.94013 0.0
H837 H 0.02066 0.07098 0.88198 0.0
H838 H 0.02218 0.10586 0.91255 0.0
C839 C 1.00127 0.21896 0.98262 0.0
C840 C 0.01953 0.17707 0.85783 0.0
H841 H 0.99426 0.14349 0.7505 0.0
C842 C 0.03516 0.16499 0.88025 0.0
C843 C 1.00509 0.16937 0.80764 0.0
C844 C 0.98883 0.18197 0.77614 0.0
C845 C 0.03618 0.14523 0.85747 0.0
C846 C 0.02084 0.13705 0.81268 0.0
C847 C 1.0058 0.14947 0.78644 0.0
C848 C 0.01991 0.11566 0.79387 0.0
C849 C 0.05379 0.13339 0.88156 0.0
C850 C 0.01736 0.10931 0.71728 0.0
C851 C 0.01611 0.0893 0.69992 0.0
C852 C 0.01745 0.07506 0.75837 0.0
C853 C 0.01984 0.08144 0.83513 0.0
C854 C 0.02087 0.10146 0.85267 0.0
H855 H 0.06677 0.1429 0.89063 0.0
H856 H 0.05062 0.12597 0.93716 0.0
H857 H 0.05754 0.12212 0.83776 0.0
H858 H 0.01643 0.11985 0.67069 0.0
H859 H 0.01414 0.08498 0.64052 0.0
H860 H 0.29032 0.0397 0.96223 0.0
H861 H 0.32146 0.04366 0.89274 0.0
H862 H 0.33321 0.98207 0.92012 0.0
H863 H 0.30207 0.97799 0.98655 0.0
H864 H 0.35708 0.03833 0.94994 0.0
H865 H 0.34954 0.98861 0.70066 0.0
H866 H 0.32884 0.99598 0.75845 0.0
H867 H 0.34424 0.976 0.78883 0.0
C868 C 0.29925 0.02692 0.95101 0.0
C869 C 0.29367 1.00853 0.97998 0.0
C870 C 0.31717 0.02921 0.91191 0.0
C871 C 0.32976 0.01314 0.90025 0.0
C872 C 0.32373 0.99466 0.92641 0.0
H873 H 0.4567 0.01353 0.87897 0.0
H874 H 0.42218 0.01402 0.91624 0.0
C875 C 0.30591 0.99237 0.96513 0.0
C876 C 0.34991 0.01578 0.86772 0.0
H877 H 0.38263 0.9963 0.7392 0.0
C878 C 0.36256 0.02931 0.90312 0.0
C879 C 0.35717 1.00429 0.80575 0.0
C880 C 0.34415 0.99058 0.76073 0.0
C881 C 0.3823 0.03108 0.88069 0.0
C882 C 0.38992 0.01857 0.82258 0.0
C883 C 0.37705 1.00566 0.78482 0.0
C884 C 0.41113 0.01854 0.80026 0.0
C885 C 0.39467 0.04654 0.9192 0.0
C886 C 0.41666 0.02027 0.72235 0.0
C887 C 0.43642 0.01948 0.70062 0.0
C888 C 0.45126 0.0172 0.75644 0.0
C889 C 0.44574 0.01558 0.83451 0.0
C890 C 0.42593 0.016 0.856 0.0
H891 H 0.38553 0.05879 0.94118 0.0
H892 H 0.40237 0.04 0.96939 0.0
H893 H 0.40576 0.05258 0.87888 0.0
H894 H 0.40563 0.02231 0.67815 0.0
H895 H 0.44005 0.02078 0.63991 0.0
H896 H 0.47392 0.30638 0.04497 0.0
H897 H 0.47575 0.33822 0.98141 0.0
H898 H 0.5278 0.31985 0.86074 0.0
H899 H 0.526 0.28774 0.92483 0.0
H900 H 0.50778 0.36289 0.00487 0.0
H901 H 0.49568 0.34899 0.69272 0.0
H902 H 0.4902 0.33098 0.76575 0.0
H903 H 0.51504 0.3348 0.73526 0.0
C904 C 0.48547 0.30892 0.00328 0.0
C905 C 0.49983 0.29453 0.98995 0.0
C906 C 0.48655 0.32718 0.96718 0.0
C907 C 0.50193 0.33155 0.91635 0.0
C908 C 0.51566 0.3168 0.89906 0.0
H909 H 0.53494 0.44263 0.69823 0.0
H910 H 0.53364 0.40859 0.7429 0.0
C911 C 0.51459 0.29841 0.93543 0.0
C912 C 0.50451 0.3521 0.88871 0.0
H913 H 0.50512 0.38122 0.72798 0.0
C914 C 0.50714 0.36688 0.94427 0.0
C915 C 0.50396 0.35735 0.80964 0.0
C916 C 0.50092 0.34224 0.74729 0.0
C917 C 0.50916 0.38665 0.92331 0.0
C918 C 0.50802 0.39204 0.84441 0.0
C919 C 0.50581 0.37721 0.78853 0.0
C920 C 0.50898 0.41295 0.81894 0.0
C921 C 0.51294 0.40151 0.98612 0.0
C922 C 0.4958 0.42696 0.84804 0.0
C923 C 0.49699 0.4466 0.82503 0.0
C924 C 0.511 0.45259 0.77045 0.0
C925 C 0.52388 0.43849 0.73995 0.0
C926 C 0.52305 0.41897 0.76482 0.0
H927 H 0.51946 0.39459 0.03822 0.0
H928 H 0.52292 0.41324 0.96587 0.0
H929 H 0.49887 0.40829 0.00363 0.0
H930 H 0.48451 0.42271 0.88856 0.0
H931 H 0.48674 0.45705 0.84907 0.0
H932 H 0.24211 0.52526 0.92113 0.0
H933 H 0.21083 0.52667 0.8501 0.0
H934 H 0.18862 0.47919 0.98801 0.0
H935 H 0.21963 0.47761 0.05826 0.0
H936 H 0.18371 0.48999 0.7778 0.0
H937 H 0.1551 0.53444 0.02262 0.0
H938 H 0.18071 0.5342 0.99675 0.0
H939 H 0.17018 0.51359 0.04529 0.0
C940 C 0.23077 0.51473 0.93445 0.0
C941 C 0.23331 0.50138 0.99553 0.0
C942 C 0.21288 0.51562 0.89419 0.0
C943 C 0.19735 0.50313 0.9143 0.0
C944 C 0.20036 0.48899 0.9717 0.0
H945 H 0.0721 0.49613 0.87473 0.0
H946 H 0.10674 0.49472 0.90934 0.0
C947 C 0.21811 0.48811 0.01176 0.0
C948 C 0.17735 0.50592 0.8819 0.0
H949 H 0.13218 0.52348 0.93069 0.0
C950 C 0.17244 0.49749 0.81054 0.0
C951 C 0.16269 0.51562 0.925 0.0
C952 C 0.16731 0.52512 0.00157 0.0
C953 C 0.15305 0.49794 0.78242 0.0
C954 C 0.13822 0.50733 0.82648 0.0
C955 C 0.14339 0.51618 0.89692 0.0
C956 C 0.11714 0.50759 0.80274 0.0
C957 C 0.14851 0.48762 0.70747 0.0
C958 C 0.11123 0.51534 0.73122 0.0
C959 C 0.09136 0.51592 0.71085 0.0
C960 C 0.07682 0.50917 0.76205 0.0
C961 C 0.08278 0.5015 0.83372 0.0
C962 C 0.10266 0.50072 0.8537 0.0
H963 H 0.16011 0.47693 0.69173 0.0
H964 H 0.1343 0.47981 0.7108 0.0
H965 H 0.14758 0.49857 0.66038 0.0
H966 H 0.12193 0.52123 0.69147 0.0
H967 H 0.0874 0.52184 0.6551 0.0
H968 H 0.03679 0.79108 0.44039 0.0
H969 H 0.03856 0.82229 0.51124 0.0
H970 H 0.98016 0.83655 0.43571 0.0
H971 H 0.97849 0.80558 0.36467 0.0
H972 H 0.0351 0.85899 0.4348 0.0
H973 H 0.97976 0.85224 0.66728 0.0
H974 H 0.99074 0.83128 0.62065 0.0
H975 H 0.97131 0.84445 0.57382 0.0
C976 C 0.02411 0.80059 0.44145 0.0
C977 C 1.00737 0.79577 0.3983 0.0
C978 C 0.02518 0.81849 0.48129 0.0
C979 C 1.00942 0.83176 0.47952 0.0
C980 C 0.99236 0.82647 0.43935 0.0
H981 H 1.00694 0.95813 0.49906 0.0
H982 H 1.00722 0.92346 0.46393 0.0
C983 C 0.99138 0.80874 0.39888 0.0
C984 C 0.01145 0.85192 0.51197 0.0
H985 H 0.99031 0.8846 0.63648 0.0
C986 C 0.02543 0.86452 0.47947 0.0
C987 C 0.99903 0.85915 0.5709 0.0
C988 C 0.98447 0.84606 0.61087 0.0
C989 C 0.02679 0.88428 0.50196 0.0
C990 C 0.01361 0.89182 0.55773 0.0
C991 C 1.00021 0.87899 0.59278 0.0
C992 C 0.01333 0.91301 0.57948 0.0
C993 C 0.04242 0.89687 0.46581 0.0
C994 C 0.01614 0.91881 0.65655 0.0
C995 C 0.01595 0.93868 0.67696 0.0
C996 C 0.01269 0.95329 0.62084 0.0
C997 C 0.00961 0.9474 0.54384 0.0
C998 C 0.00988 0.92752 0.52351 0.0
H999 H 0.05466 0.8879 0.44268 0.0
H1000 H 0.03599 0.90518 0.41696 0.0
H1001 H 0.04843 0.9075 0.50817 0.0
H1002 H 0.01865 0.90794 0.70096 0.0
H1003 H 0.01834 0.94256 0.73692 0.0
H1004 H 0.72668 0.04669 0.40858 0.0
H1005 H 0.69454 0.04402 0.4697 0.0
H1006 H 0.69811 0.98114 0.45564 0.0
H1007 H 0.73058 0.98383 0.39534 0.0
H1008 H 0.66311 0.02888 0.39768 0.0
H1009 H 0.6755 0.98866 0.67133 0.0
H1010 H 0.69517 0.99985 0.61756 0.0
H1011 H 0.6854 0.97664 0.58766 0.0
C1012 C 0.72088 0.03227 0.4208 0.0
C1013 C 0.73123 0.01546 0.39766 0.0
C1014 C 0.70242 0.03075 0.45529 0.0
C1015 C 0.69377 0.01238 0.46755 0.0
C1016 C 0.70452 0.99549 0.44818 0.0
H1017 H 0.56632 0.99727 0.49361 0.0
H1018 H 0.60074 0.99689 0.45438 0.0
C1019 C 0.72313 0.99701 0.41389 0.0
C1020 C 0.67288 0.01121 0.49313 0.0
H1021 H 0.64238 0.99266 0.63177 0.0
C1022 C 0.65862 0.02097 0.44899 0.0
C1023 C 0.66692 1.00107 0.56046 0.0
C1024 C 0.68154 0.9911 0.61252 0.0
C1025 C 0.63871 0.02083 0.46981 0.0
C1026 C 0.63264 0.01021 0.53585 0.0
C1027 C 0.64691 1.00059 0.58056 0.0
C1028 C 0.61167 0.0095 0.56073 0.0
C1029 C 0.62447 0.03255 0.42185 0.0
C1030 C 0.60625 0.0161 0.63455 0.0
C1031 C 0.58658 0.0161 0.6576 0.0
C1032 C 0.57174 0.00952 0.60725 0.0
C1033 C 0.57724 1.00262 0.53373 0.0
C1034 C 0.59697 1.00248 0.51101 0.0
H1035 H 0.63202 0.04399 0.38741 0.0
H1036 H 0.61686 0.02264 0.38093 0.0
H1037 H 0.61329 0.03973 0.4588 0.0
H1038 H 0.61725 0.02161 0.67398 0.0
H1039 H 0.58303 0.02155 0.7147 0.0
H1040 H 0.54455 0.73442 0.41982 0.0
H1041 H 0.54596 0.70343 0.49221 0.0
H1042 H 0.48962 0.68719 0.40021 0.0
H1043 H 0.48797 0.7181 0.33012 0.0
H1044 H 0.49301 0.67599 0.54933 0.0
H1045 H 0.55858 0.65221 0.38414 0.0
H1046 H 0.56156 0.67442 0.43832 0.0
H1047 H 0.54472 0.67371 0.35859 0.0
C1048 C 0.53229 0.72442 0.41677 0.0
C1049 C 0.51623 0.72864 0.36874 0.0
C1050 C 0.53321 0.70658 0.45725 0.0
C1051 C 0.51811 0.69266 0.45021 0.0
C1052 C 0.50154 0.69751 0.4063 0.0
H1053 H 0.52031 0.56634 0.48791 0.0
H1054 H 0.52068 0.60073 0.44832 0.0
C1055 C 0.50062 0.71523 0.36613 0.0
C1056 C 0.51968 0.67262 0.4846 0.0
H1057 H 0.54594 0.63001 0.47513 0.0
C1058 C 0.50468 0.66599 0.53358 0.0
C1059 C 0.53471 0.65938 0.46313 0.0
C1060 C 0.55073 0.66515 0.40766 0.0
C1061 C 0.50412 0.64656 0.56062 0.0
C1062 C 0.51924 0.63336 0.53967 0.0
C1063 C 0.53439 0.64007 0.49157 0.0
C1064 C 0.51924 0.61237 0.56455 0.0
C1065 C 0.48686 0.64014 0.60867 0.0
C1066 C 0.51858 0.60729 0.64317 0.0
C1067 C 0.51813 0.58761 0.66592 0.0
C1068 C 0.5187 0.57245 0.61071 0.0
C1069 C 0.51983 0.57756 0.53208 0.0
C1070 C 0.52007 0.59727 0.50934 0.0
H1071 H 0.47439 0.6505 0.60407 0.0
H1072 H 0.48179 0.62537 0.59102 0.0
H1073 H 0.49132 0.63945 0.67019 0.0
H1074 H 0.51854 0.61853 0.68725 0.0
H1075 H 0.51745 0.58433 0.72708 0.0
H1076 H 0.81061 0.48429 0.33565 0.0
H1077 H 0.84113 0.48501 0.4087 0.0
H1078 H 0.82337 0.53901 0.51693 0.0
H1079 H 0.79269 0.53849 0.4422 0.0
H1080 H 0.85985 0.54156 0.45343 0.0
H1081 H 0.85635 0.4744 0.63039 0.0
H1082 H 0.85102 0.46961 0.53069 0.0
H1083 H 0.83495 0.4851 0.58605 0.0
C1084 C 0.813 0.49612 0.37628 0.0
C1085 C 0.79923 0.51135 0.38307 0.0
C1086 C 0.83044 0.49644 0.41853 0.0
C1087 C 0.83458 0.51194 0.46919 0.0
C1088 C 0.82049 0.52681 0.4786 0.0
H1089 H 0.94466 0.51131 0.7338 0.0
H1090 H 0.91008 0.51163 0.69803 0.0
C1091 C 0.8029 0.52645 0.43634 0.0
C1092 C 0.8544 0.51348 0.50532 0.0
H1093 H 0.88849 0.48758 0.60791 0.0
C1094 C 0.866 0.52986 0.48806 0.0
C1095 C 0.86248 0.49836 0.55139 0.0
C1096 C 0.85048 0.48098 0.57643 0.0
C1097 C 0.88562 0.53112 0.51237 0.0
C1098 C 0.89411 0.5154 0.55394 0.0
C1099 C 0.88221 0.49947 0.57463 0.0
C1100 C 0.9153 0.51513 0.57552 0.0
C1101 C 0.89706 0.54936 0.49329 0.0
C1102 C 0.92994 0.51663 0.51863 0.0
C1103 C 0.94982 0.51644 0.5389 0.0
C1104 C 0.95558 0.51458 0.6166 0.0
C1105 C 0.94087 0.51277 0.67333 0.0
C1106 C 0.92101 0.51296 0.65301 0.0
H1107 H 0.88721 0.56206 0.48353 0.0
H1108 H 0.90749 0.5531 0.54021 0.0
H1109 H 0.9055 0.5469 0.43939 0.0
H1110 H 0.92598 0.5178 0.45822 0.0
H1111 H 0.96067 0.51769 0.49355 0.0
loop_
_geom_bond_atom_site_label_1
_geom_bond_atom_site_label_2
_geom_bond_distance
_geom_bond_site_symmetry_2
_ccdc_geom_bond_type
H0 C3 0.929 . S
H1 C6 0.929 . S
H2 C8 0.930 . S
C3 H0 0.929 . S
C3 C4 1.398 . S
C3 C5 1.396 . S
C4 C3 1.398 . S
C4 C8 1.407 . S
C5 C3 1.396 . S
C5 C6 1.394 . S
C6 H1 0.929 . S
C6 C5 1.394 . S
C6 C7 1.382 . S
C7 C6 1.382 . S
C7 C8 1.392 . S
C7 N9 1.420 . S
C8 H2 0.930 . S
C8 C4 1.407 . S
C8 C7 1.392 . S
N9 C7 1.420 . S
N9 C10 1.244 . S
C10 N9 1.244 . S
H11 C14 0.929 . S
H12 C17 0.929 . S
H13 C19 0.930 . S
C14 H11 0.929 . S
C14 C15 1.398 . S
C14 C16 1.396 . S
C15 C14 1.398 . S
C15 C19 1.407 1_655 S
C16 C14 1.396 . S
C16 C17 1.394 1_655 S
C17 H12 0.929 . S
C17 C16 1.394 1_455 S
C17 C18 1.382 . S
C18 C17 1.382 . S
C18 C19 1.392 . S
C18 N20 1.420 . S
C19 H13 0.930 . S
C19 C15 1.407 1_455 S
C19 C18 1.392 . S
N20 C18 1.420 . S
N20 C21 1.244 1_455 S
C21 N20 1.244 1_655 S
H22 C25 0.929 . S
H23 C28 0.932 . S
H24 C30 0.930 . S
C25 H22 0.929 . S
C25 C26 1.398 . S
C25 C27 1.396 . S
C26 C25 1.398 . S
C26 C30 1.407 1_565 S
C27 C25 1.396 . S
C27 C28 1.390 1_565 S
C28 H23 0.932 . S
C28 C27 1.390 1_545 S
C28 C29 1.384 . S
C29 C28 1.384 . S
C29 C30 1.392 . S
C29 N31 1.420 . S
C30 H24 0.930 . S
C30 C26 1.407 1_545 S
C30 C29 1.392 . S
N31 C29 1.420 . S
N31 C32 1.244 1_545 S
C32 N31 1.244 1_565 S
H33 C36 0.929 . S
H34 C39 0.929 . S
H35 C41 0.930 . S
C36 H33 0.929 . S
C36 C37 1.398 . S
C36 C38 1.396 . S
C37 C36 1.398 . S
C37 C41 1.407 . S
C38 C36 1.396 . S
C38 C39 1.394 . S
C39 H34 0.929 . S
C39 C38 1.394 . S
C39 C40 1.382 . S
C40 C39 1.382 . S
C40 C41 1.392 . S
C40 N42 1.420 . S
C41 H35 0.930 . S
C41 C37 1.407 . S
C41 C40 1.392 . S
N42 C40 1.420 . S
N42 C43 1.244 . S
C43 N42 1.244 . S
H44 C47 0.929 1_556 S
H45 C50 0.929 . S
H46 C52 0.930 . S
C47 H44 0.929 1_554 S
C47 C48 1.398 1_554 S
C47 C49 1.396 . S
C48 C47 1.398 1_556 S
C48 C52 1.407 . S
C49 C47 1.396 . S
C49 C50 1.394 . S
C50 H45 0.929 . S
C50 C49 1.394 . S
C50 C51 1.382 . S
C51 C50 1.382 . S
C51 C52 1.392 1_554 S
C51 N53 1.420 . S
C52 H46 0.930 . S
C52 C48 1.407 . S
C52 C51 1.392 1_556 S
N53 C51 1.420 . S
N53 C54 1.244 . S
C54 N53 1.244 . S
H55 C58 0.929 1_556 S
H56 C61 0.929 . S
H57 C63 0.930 . S
C58 H55 0.929 1_554 S
C58 C59 1.398 1_554 S
C58 C60 1.396 . S
C59 C58 1.398 1_556 S
C59 C63 1.407 . S
C60 C58 1.396 . S
C60 C61 1.394 . S
C61 H56 0.929 . S
C61 C60 1.394 . S
C61 C62 1.382 . S
C62 C61 1.382 . S
C62 C63 1.392 1_554 S
C62 N64 1.420 . S
C63 H57 0.930 . S
C63 C59 1.407 . S
C63 C62 1.392 1_556 S
N64 C62 1.420 . S
N64 C65 1.244 . S
C65 N64 1.244 . S
H66 C69 0.929 1_556 S
H67 C72 0.929 . S
H68 C74 0.930 . S
C69 H66 0.929 1_554 S
C69 C70 1.398 1_554 S
C69 C71 1.396 . S
C70 C69 1.398 1_556 S
C70 C74 1.407 . S
C71 C69 1.396 . S
C71 C72 1.394 . S
C72 H67 0.929 . S
C72 C71 1.394 . S
C72 C73 1.382 . S
C73 C72 1.382 . S
C73 C74 1.392 1_554 S
C73 N75 1.420 . S
C74 H68 0.930 . S
C74 C70 1.407 . S
C74 C73 1.392 1_556 S
N75 C73 1.420 . S
N75 C76 1.244 . S
C76 N75 1.244 . S
H77 C80 0.929 1_556 S
H78 C83 0.929 . S
H79 C85 0.930 . S
C80 H77 0.929 1_554 S
C80 C81 1.398 1_554 S
C80 C82 1.396 . S
C81 C80 1.398 1_556 S
C81 C85 1.407 . S
C82 C80 1.396 . S
C82 C83 1.394 . S
C83 H78 0.929 . S
C83 C82 1.394 . S
C83 C84 1.382 . S
C84 C83 1.382 . S
C84 C85 1.392 1_554 S
C84 N86 1.420 . S
C85 H79 0.930 . S
C85 C81 1.407 . S
C85 C84 1.392 1_556 S
N86 C84 1.420 . S
N86 C87 1.244 . S
C87 N86 1.244 . S
Gd88 C91 2.818 . S
Gd88 O108 2.377 . S
Gd88 O110 2.448 . S
Gd88 O111 2.506 . S
Gd88 O112 2.435 . S
Gd88 O113 2.717 1_565 S
Gd88 O115 2.395 1_565 S
Gd88 O119 2.327 1_455 S
Gd89 C100 2.818 . S
Gd89 O109 2.395 1_545 S
Gd89 O113 2.327 1_655 S
Gd89 O114 2.377 . S
Gd89 O116 2.448 . S
Gd89 O117 2.506 1_655 S
Gd89 O118 2.435 . S
Gd89 O119 2.717 1_545 S
C90 O108 1.240 1_655 S
C90 O109 1.240 . S
C91 Gd88 2.818 . S
C91 C92 1.510 . S
C91 O110 1.249 . S
C91 O111 1.252 . S
C92 C91 1.510 . S
C92 C93 1.404 . S
C92 C94 1.352 . S
C93 C92 1.404 . S
C93 C97 1.389 . S
C93 H120 0.930 . S
C94 C92 1.352 . S
C94 C96 1.374 . S
C94 H121 0.931 1_455 S
C95 C96 1.359 . S
C95 C97 1.364 . S
C96 C94 1.374 . S
C96 C95 1.359 . S
C96 H122 0.931 1_455 S
C97 C93 1.389 . S
C97 C95 1.364 . S
C97 H123 0.931 . S
C98 O112 1.256 1_545 S
C98 O113 1.257 . S
C99 O114 1.240 1_455 S
C99 O115 1.240 . S
C100 Gd89 2.818 . S
C100 C101 1.510 . S
C100 O116 1.249 . S
C100 O117 1.252 1_655 S
C101 C100 1.510 . S
C101 C102 1.404 . S
C101 C103 1.352 1_655 S
C102 C101 1.404 . S
C102 C106 1.389 . S
C102 H124 0.930 . S
C103 C101 1.352 1_455 S
C103 C105 1.374 . S
C103 H125 0.931 . S
C104 C105 1.359 1_655 S
C104 C106 1.364 . S
C105 C103 1.374 . S
C105 C104 1.359 1_455 S
C105 H126 0.931 . S
C106 C102 1.389 . S
C106 C104 1.364 . S
C106 H127 0.931 . S
C107 O118 1.256 . S
C107 O119 1.257 1_545 S
O108 Gd88 2.377 . S
O108 C90 1.240 1_455 S
O109 Gd89 2.395 1_565 S
O109 C90 1.240 . S
O110 Gd88 2.448 . S
O110 C91 1.249 . S
O111 Gd88 2.506 . S
O111 C91 1.252 . S
O112 Gd88 2.435 . S
O112 C98 1.256 1_565 S
O113 Gd88 2.717 1_545 S
O113 Gd89 2.327 1_455 S
O113 C98 1.257 . S
O114 Gd89 2.377 . S
O114 C99 1.240 1_655 S
O115 Gd88 2.395 1_545 S
O115 C99 1.240 . S
O116 Gd89 2.448 . S
O116 C100 1.249 . S
O117 Gd89 2.506 1_455 S
O117 C100 1.252 1_455 S
O118 Gd89 2.435 . S
O118 C107 1.256 . S
O119 Gd88 2.327 1_655 S
O119 Gd89 2.717 1_565 S
O119 C107 1.257 1_565 S
H120 C93 0.930 . S
H121 C94 0.931 1_655 S
H122 C96 0.931 1_655 S
H123 C97 0.931 . S
H124 C102 0.930 . S
H125 C103 0.931 . S
H126 C105 0.931 . S
H127 C106 0.931 . S
Gd128 C131 2.818 . S
Gd128 O148 2.377 . S
Gd128 O150 2.448 . S
Gd128 O151 2.506 . S
Gd128 O152 2.435 . S
Gd128 O153 2.717 . S
Gd128 O155 2.395 . S
Gd128 O159 2.327 1_545 S
Gd129 C140 2.818 . S
Gd129 O149 2.395 . S
Gd129 O153 2.327 1_565 S
Gd129 O154 2.377 . S
Gd129 O156 2.448 . S
Gd129 O157 2.506 1_565 S
Gd129 O158 2.435 . S
Gd129 O159 2.717 . S
C130 O148 1.240 1_565 S
C130 O149 1.240 . S
C131 Gd128 2.818 . S
C131 C132 1.510 . S
C131 O150 1.249 . S
C131 O151 1.252 . S
C132 C131 1.510 . S
C132 C133 1.404 . S
C132 C134 1.352 . S
C133 C132 1.404 . S
C133 C137 1.389 . S
C133 H160 0.930 . S
C134 C132 1.352 . S
C134 C136 1.374 . S
C134 H161 0.931 1_545 S
C135 C136 1.359 . S
C135 C137 1.364 . S
C136 C134 1.374 . S
C136 C135 1.359 . S
C136 H162 0.931 1_545 S
C137 C133 1.389 . S
C137 C135 1.364 . S
C137 H163 0.931 . S
C138 O152 1.256 . S
C138 O153 1.257 . S
C139 O154 1.240 1_545 S
C139 O155 1.240 . S
C140 Gd129 2.818 . S
C140 C141 1.510 . S
C140 O156 1.249 . S
C140 O157 1.252 1_565 S
C141 C140 1.510 . S
C141 C142 1.404 . S
C141 C143 1.352 1_565 S
C142 C141 1.404 . S
C142 C146 1.389 . S
C142 H164 0.930 . S
C143 C141 1.352 1_545 S
C143 C145 1.378 . S
C143 H165 0.931 . S
C144 C145 1.311 1_565 S
C144 C146 1.364 . S
C145 C143 1.378 . S
C145 C144 1.311 1_545 S
C145 H166 0.975 . S
C146 C142 1.389 . S
C146 C144 1.364 . S
C146 H167 0.931 . S
C147 O158 1.256 . S
C147 O159 1.257 . S
O148 Gd128 2.377 . S
O148 C130 1.240 1_545 S
O149 Gd129 2.395 . S
O149 C130 1.240 . S
O150 Gd128 2.448 . S
O150 C131 1.249 . S
O151 Gd128 2.506 . S
O151 C131 1.252 . S
O152 Gd128 2.435 . S
O152 C138 1.256 . S
O153 Gd128 2.717 . S
O153 Gd129 2.327 1_545 S
O153 C138 1.257 . S
O154 Gd129 2.377 . S
O154 C139 1.240 1_565 S
O155 Gd128 2.395 . S
O155 C139 1.240 . S
O156 Gd129 2.448 . S
O156 C140 1.249 . S
O157 Gd129 2.506 1_545 S
O157 C140 1.252 1_545 S
O158 Gd129 2.435 . S
O158 C147 1.256 . S
O159 Gd128 2.327 1_565 S
O159 Gd129 2.717 . S
O159 C147 1.257 . S
H160 C133 0.930 . S
H161 C134 0.931 1_565 S
H162 C136 0.931 1_565 S
H163 C137 0.931 . S
H164 C142 0.930 . S
H165 C143 0.931 . S
H166 C145 0.975 . S
H167 C146 0.931 . S
Gd168 C171 2.818 . S
Gd168 O188 2.377 . S
Gd168 O190 2.448 . S
Gd168 O191 2.506 . S
Gd168 O192 2.435 . S
Gd168 O193 2.717 . S
Gd168 O195 2.395 . S
Gd168 O199 2.327 . S
Gd169 C180 2.818 . S
Gd169 O189 2.395 . S
Gd169 O193 2.327 . S
Gd169 O194 2.377 . S
Gd169 O196 2.448 . S
Gd169 O197 2.506 . S
Gd169 O198 2.435 . S
Gd169 O199 2.717 . S
C170 O188 1.240 . S
C170 O189 1.240 . S
C171 Gd168 2.818 . S
C171 C172 1.510 . S
C171 O190 1.249 . S
C171 O191 1.252 . S
C172 C171 1.510 . S
C172 C173 1.404 . S
C172 C174 1.352 . S
C173 C172 1.404 . S
C173 C177 1.389 . S
C173 H200 0.930 . S
C174 C172 1.352 . S
C174 C176 1.374 . S
C174 H201 0.931 . S
C175 C176 1.359 . S
C175 C177 1.364 . S
C176 C174 1.374 . S
C176 C175 1.359 . S
C176 H202 0.931 . S
C177 C173 1.389 . S
C177 C175 1.364 . S
C177 H203 0.931 . S
C178 O192 1.256 . S
C178 O193 1.257 . S
C179 O194 1.240 . S
C179 O195 1.240 . S
C180 Gd169 2.818 . S
C180 C181 1.510 . S
C180 O196 1.249 . S
C180 O197 1.252 . S
C181 C180 1.510 . S
C181 C182 1.404 . S
C181 C183 1.352 . S
C182 C181 1.404 . S
C182 C186 1.389 . S
C182 H204 0.930 . S
C183 C181 1.352 . S
C183 C185 1.374 . S
C183 H205 0.931 . S
C184 C185 1.359 . S
C184 C186 1.364 . S
C185 C183 1.374 . S
C185 C184 1.359 . S
C185 H206 0.931 . S
C186 C182 1.389 . S
C186 C184 1.364 . S
C186 H207 0.931 . S
C187 O198 1.256 . S
C187 O199 1.257 . S
O188 Gd168 2.377 . S
O188 C170 1.240 . S
O189 Gd169 2.395 . S
O189 C170 1.240 . S
O190 Gd168 2.448 . S
O190 C171 1.249 . S
O191 Gd168 2.506 . S
O191 C171 1.252 . S
O192 Gd168 2.435 . S
O192 C178 1.256 . S
O193 Gd168 2.717 . S
O193 Gd169 2.327 . S
O193 C178 1.257 . S
O194 Gd169 2.377 . S
O194 C179 1.240 . S
O195 Gd168 2.395 . S
O195 C179 1.240 . S
O196 Gd169 2.448 . S
O196 C180 1.249 . S
O197 Gd169 2.506 . S
O197 C180 1.252 . S
O198 Gd169 2.435 . S
O198 C187 1.256 . S
O199 Gd168 2.327 . S
O199 Gd169 2.717 . S
O199 C187 1.257 . S
H200 C173 0.930 . S
H201 C174 0.931 . S
H202 C176 0.931 . S
H203 C177 0.931 . S
H204 C182 0.930 . S
H205 C183 0.931 . S
H206 C185 0.931 . S
H207 C186 0.931 . S
Gd208 C211 2.818 . S
Gd208 O228 2.377 . S
Gd208 O230 2.448 . S
Gd208 O231 2.506 . S
Gd208 O232 2.435 . S
Gd208 O233 2.717 1_655 S
Gd208 O235 2.395 1_655 S
Gd208 O239 2.333 . S
Gd209 C220 2.818 . S
Gd209 O229 2.395 1_455 S
Gd209 O233 2.327 . S
Gd209 O234 2.377 . S
Gd209 O236 2.448 . S
Gd209 O237 2.506 . S
Gd209 O238 2.435 . S
Gd209 O239 2.706 1_455 S
C210 O228 1.240 . S
C210 O229 1.240 . S
C211 Gd208 2.818 . S
C211 C212 1.510 . S
C211 O230 1.249 . S
C211 O231 1.252 . S
C212 C211 1.510 . S
C212 C213 1.404 . S
C212 C214 1.352 . S
C213 C212 1.404 . S
C213 C217 1.389 . S
C213 H240 0.930 . S
C214 C212 1.352 . S
C214 C216 1.374 . S
C214 H241 0.931 . S
C215 C216 1.359 . S
C215 C217 1.364 . S
C216 C214 1.374 . S
C216 C215 1.359 . S
C216 H242 0.931 . S
C217 C213 1.389 . S
C217 C215 1.364 . S
C217 H243 0.931 . S
C218 O232 1.256 1_455 S
C218 O233 1.257 . S
C219 O234 1.240 . S
C219 O235 1.240 . S
C220 Gd209 2.818 . S
C220 C221 1.510 . S
C220 O236 1.249 . S
C220 O237 1.252 . S
C221 C220 1.510 . S
C221 C222 1.404 . S
C221 C223 1.352 . S
C222 C221 1.404 . S
C222 C226 1.389 . S
C222 H244 0.930 . S
C223 C221 1.352 . S
C223 C225 1.374 . S
C223 H245 0.931 . S
C224 C225 1.359 . S
C224 C226 1.364 . S
C225 C223 1.374 . S
C225 C224 1.359 . S
C225 H246 0.931 . S
C226 C222 1.389 . S
C226 C224 1.364 . S
C226 H247 0.931 . S
C227 O238 1.256 . S
C227 O239 1.249 1_455 S
O228 Gd208 2.377 . S
O228 C210 1.240 . S
O229 Gd209 2.395 1_655 S
O229 C210 1.240 . S
O230 Gd208 2.448 . S
O230 C211 1.249 . S
O231 Gd208 2.506 . S
O231 C211 1.252 . S
O232 Gd208 2.435 . S
O232 C218 1.256 1_655 S
O233 Gd208 2.717 1_455 S
O233 Gd209 2.327 . S
O233 C218 1.257 . S
O234 Gd209 2.377 . S
O234 C219 1.240 . S
O235 Gd208 2.395 1_455 S
O235 C219 1.240 . S
O236 Gd209 2.448 . S
O236 C220 1.249 . S
O237 Gd209 2.506 . S
O237 C220 1.252 . S
O238 Gd209 2.435 . S
O238 C227 1.256 . S
O239 Gd208 2.333 . S
O239 Gd209 2.706 1_655 S
O239 C227 1.249 1_655 S
H240 C213 0.930 . S
H241 C214 0.931 . S
H242 C216 0.931 . S
H243 C217 0.931 . S
H244 C222 0.930 . S
H245 C223 0.931 . S
H246 C225 0.931 . S
H247 C226 0.931 . S
H248 C256 0.929 . S
H249 C258 0.930 . S
H250 C260 0.930 . S
H251 C263 0.929 . S
H252 C266 0.941 . S
H253 C268 0.960 . S
H254 C268 0.960 . S
H255 C268 0.960 . S
C256 H248 0.929 . S
C256 C257 1.377 . S
C256 C258 1.384 . S
C257 C256 1.377 . S
C257 C263 1.390 1_545 S
C258 H249 0.930 . S
C258 C256 1.384 . S
C258 C259 1.372 . S
C259 C258 1.372 . S
C259 C260 1.400 1_545 S
C259 C264 1.490 . S
C260 H250 0.930 . S
C260 C259 1.400 1_565 S
C260 C263 1.386 . S
H261 C277 0.930 . S
H262 C278 0.931 . S
C263 H251 0.929 . S
C263 C257 1.390 1_565 S
C263 C260 1.386 . S
C264 C259 1.490 . S
C264 C266 1.395 . S
C264 C267 1.403 . S
H265 C271 0.930 . S
C266 H252 0.941 . S
C266 C264 1.395 . S
C266 C269 1.403 . S
C267 C264 1.403 . S
C267 C268 1.524 . S
C267 C271 1.400 . S
C268 H253 0.960 . S
C268 H254 0.960 . S
C268 H255 0.960 . S
C268 C267 1.524 . S
C269 C266 1.403 . S
C269 C270 1.392 . S
C269 C273 1.495 1_545 S
C270 C269 1.392 . S
C270 C271 1.385 . S
C270 C272 1.478 . S
C271 H265 0.930 . S
C271 C267 1.400 . S
C271 C270 1.385 . S
C272 C270 1.478 . S
C272 C274 1.381 . S
C272 C278 1.383 1_545 S
C273 C269 1.495 1_565 S
C273 H279 0.959 . S
C273 H280 0.961 . S
C273 H281 0.960 1_565 S
C274 C272 1.381 . S
C274 C275 1.394 . S
C274 H282 0.930 . S
C275 C274 1.394 . S
C275 C276 1.383 . S
C275 H283 0.929 . S
C276 C275 1.383 . S
C276 C277 1.377 1_545 S
C277 H261 0.930 . S
C277 C276 1.377 1_565 S
C277 C278 1.379 . S
C278 H262 0.931 . S
C278 C272 1.383 1_565 S
C278 C277 1.379 . S
H279 C273 0.959 . S
H280 C273 0.961 . S
H281 C273 0.960 1_545 S
H282 C274 0.930 . S
H283 C275 0.929 . S
H284 C292 0.929 . S
H285 C294 0.930 . S
H286 C296 0.930 . S
H287 C299 0.929 . S
H288 C302 0.930 . S
H289 C304 0.960 . S
H290 C304 0.960 . S
H291 C304 0.960 . S
C292 H284 0.929 . S
C292 C293 1.377 . S
C292 C294 1.384 . S
C293 C292 1.377 . S
C293 C299 1.390 . S
C294 H285 0.930 . S
C294 C292 1.384 . S
C294 C295 1.372 . S
C295 C294 1.372 . S
C295 C296 1.400 . S
C295 C300 1.490 . S
C296 H286 0.930 . S
C296 C295 1.400 . S
C296 C299 1.386 . S
H297 C313 0.930 . S
H298 C314 0.931 . S
C299 H287 0.929 . S
C299 C293 1.390 . S
C299 C296 1.386 . S
C300 C295 1.490 . S
C300 C302 1.395 . S
C300 C303 1.403 . S
H301 C307 0.930 . S
C302 H288 0.930 . S
C302 C300 1.395 . S
C302 C305 1.403 . S
C303 C300 1.403 . S
C303 C304 1.524 . S
C303 C307 1.400 . S
C304 H289 0.960 . S
C304 H290 0.960 . S
C304 H291 0.960 . S
C304 C303 1.524 . S
C305 C302 1.403 . S
C305 C306 1.392 . S
C305 C309 1.495 . S
C306 C305 1.392 . S
C306 C307 1.385 . S
C306 C308 1.478 . S
C307 H301 0.930 . S
C307 C303 1.400 . S
C307 C306 1.385 . S
C308 C306 1.478 . S
C308 C310 1.381 . S
C308 C314 1.383 . S
C309 C305 1.495 . S
C309 H315 0.959 . S
C309 H316 0.961 . S
C309 H317 0.960 . S
C310 C308 1.381 . S
C310 C311 1.394 . S
C310 H318 0.930 . S
C311 C310 1.394 . S
C311 C312 1.383 . S
C311 H319 0.929 . S
C312 C311 1.383 . S
C312 C313 1.377 . S
C313 H297 0.930 . S
C313 C312 1.377 . S
C313 C314 1.379 . S
C314 H298 0.931 . S
C314 C308 1.383 . S
C314 C313 1.379 . S
H315 C309 0.959 . S
H316 C309 0.961 . S
H317 C309 0.960 . S
H318 C310 0.930 . S
H319 C311 0.929 . S
H320 C328 0.929 . S
H321 C330 0.930 . S
H322 C332 0.930 . S
H323 C335 0.929 . S
H324 C338 0.930 . S
H325 C340 0.960 . S
H326 C340 0.960 . S
H327 C340 0.960 . S
C328 H320 0.929 . S
C328 C329 1.377 . S
C328 C330 1.384 . S
C329 C328 1.377 . S
C329 C335 1.390 . S
C330 H321 0.930 . S
C330 C328 1.384 . S
C330 C331 1.372 . S
C331 C330 1.372 . S
C331 C332 1.400 . S
C331 C336 1.490 . S
C332 H322 0.930 . S
C332 C331 1.400 . S
C332 C335 1.386 . S
H333 C349 0.930 . S
H334 C350 0.931 . S
C335 H323 0.929 . S
C335 C329 1.390 . S
C335 C332 1.386 . S
C336 C331 1.490 . S
C336 C338 1.395 . S
C336 C339 1.403 . S
H337 C343 0.930 . S
C338 H324 0.930 . S
C338 C336 1.395 . S
C338 C341 1.403 . S
C339 C336 1.403 . S
C339 C340 1.524 . S
C339 C343 1.400 . S
C340 H325 0.960 . S
C340 H326 0.960 . S
C340 H327 0.960 . S
C340 C339 1.524 . S
C341 C338 1.403 . S
C341 C342 1.392 . S
C341 C345 1.495 . S
C342 C341 1.392 . S
C342 C343 1.385 . S
C342 C344 1.478 . S
C343 H337 0.930 . S
C343 C339 1.400 . S
C343 C342 1.385 . S
C344 C342 1.478 . S
C344 C346 1.381 . S
C344 C350 1.383 . S
C345 C341 1.495 . S
C345 H351 0.959 . S
C345 H352 0.961 . S
C345 H353 0.960 . S
C346 C344 1.381 . S
C346 C347 1.394 . S
C346 H354 0.930 . S
C347 C346 1.394 . S
C347 C348 1.383 . S
C347 H355 0.929 . S
C348 C347 1.383 . S
C348 C349 1.377 . S
C349 H333 0.930 . S
C349 C348 1.377 . S
C349 C350 1.379 . S
C350 H334 0.931 . S
C350 C344 1.383 . S
C350 C349 1.379 . S
H351 C345 0.959 . S
H352 C345 0.961 . S
H353 C345 0.960 . S
H354 C346 0.930 . S
H355 C347 0.929 . S
H356 C364 0.929 . S
H357 C366 0.930 . S
H358 C368 0.930 . S
H359 C371 0.929 . S
H360 C374 0.930 . S
H361 C376 0.960 . S
H362 C376 0.960 . S
H363 C376 0.960 . S
C364 H356 0.929 . S
C364 C365 1.377 . S
C364 C366 1.384 . S
C365 C364 1.377 . S
C365 C371 1.390 1_455 S
C366 H357 0.930 . S
C366 C364 1.384 . S
C366 C367 1.372 . S
C367 C366 1.372 . S
C367 C368 1.400 1_455 S
C367 C372 1.490 . S
C368 H358 0.930 . S
C368 C367 1.400 1_655 S
C368 C371 1.386 . S
H369 C385 0.930 . S
H370 C386 0.931 . S
C371 H359 0.929 . S
C371 C365 1.390 1_655 S
C371 C368 1.386 . S
C372 C367 1.490 . S
C372 C374 1.395 . S
C372 C375 1.403 . S
H373 C379 0.930 . S
C374 H360 0.930 . S
C374 C372 1.395 . S
C374 C377 1.403 . S
C375 C372 1.403 . S
C375 C376 1.524 . S
C375 C379 1.400 . S
C376 H361 0.960 . S
C376 H362 0.960 . S
C376 H363 0.960 . S
C376 C375 1.524 . S
C377 C374 1.403 . S
C377 C378 1.392 . S
C377 C381 1.495 1_455 S
C378 C377 1.392 . S
C378 C379 1.385 . S
C378 C380 1.478 . S
C379 H373 0.930 . S
C379 C375 1.400 . S
C379 C378 1.385 . S
C380 C378 1.478 . S
C380 C382 1.381 . S
C380 C386 1.383 1_455 S
C381 C377 1.495 1_655 S
C381 H387 0.959 . S
C381 H388 0.961 . S
C381 H389 0.960 1_655 S
C382 C380 1.381 . S
C382 C383 1.394 . S
C382 H390 0.930 . S
C383 C382 1.394 . S
C383 C384 1.383 . S
C383 H391 0.929 . S
C384 C383 1.383 . S
C384 C385 1.377 1_455 S
C385 H369 0.930 . S
C385 C384 1.377 1_655 S
C385 C386 1.379 . S
C386 H370 0.931 . S
C386 C380 1.383 1_655 S
C386 C385 1.379 . S
H387 C381 0.959 . S
H388 C381 0.961 . S
H389 C381 0.960 1_455 S
H390 C382 0.930 . S
H391 C383 0.929 . S
H392 C400 0.929 . S
H393 C402 0.930 . S
H394 C404 0.930 . S
H395 C407 0.929 . S
H396 C410 0.930 . S
H397 C412 0.960 . S
H398 C412 0.960 1_554 S
H399 C412 0.960 1_565 S
C400 H392 0.929 . S
C400 C401 1.377 1_545 S
C400 C402 1.384 . S
C401 C400 1.377 1_565 S
C401 C407 1.390 . S
C402 H393 0.930 . S
C402 C400 1.384 . S
C402 C403 1.335 1_545 S
C403 C402 1.335 1_565 S
C403 C404 1.440 . S
C403 C408 1.490 . S
C404 H394 0.930 . S
C404 C403 1.440 . S
C404 C407 1.386 . S
H405 C421 0.930 . S
H406 C422 0.931 . S
C407 H395 0.929 . S
C407 C401 1.390 . S
C407 C404 1.386 . S
C408 C403 1.490 . S
C408 C410 1.398 . S
C408 C411 1.399 1_565 S
H409 C415 0.930 . S
C410 H396 0.930 . S
C410 C408 1.398 . S
C410 C413 1.403 . S
C411 C408 1.399 1_545 S
C411 C412 1.524 1_554 S
C411 C415 1.400 1_554 S
C412 H397 0.960 . S
C412 H398 0.960 1_556 S
C412 H399 0.960 1_545 S
C412 C411 1.524 1_556 S
C413 C410 1.403 . S
C413 C414 1.396 1_554 S
C413 C417 1.495 . S
C414 C413 1.396 1_556 S
C414 C415 1.382 1_565 S
C414 C416 1.478 . S
C415 H409 0.930 . S
C415 C411 1.400 1_556 S
C415 C414 1.382 1_545 S
C416 C414 1.478 . S
C416 C418 1.357 1_565 S
C416 C422 1.407 . S
C417 C413 1.495 . S
C417 H423 0.959 . S
C417 H424 0.961 . S
C417 H425 0.960 1_565 S
C418 C416 1.357 1_545 S
C418 C419 1.394 . S
C418 H426 0.930 . S
C419 C418 1.394 . S
C419 C420 1.400 . S
C419 H427 0.929 . S
C420 C419 1.400 . S
C420 C421 1.360 1_545 S
C421 H405 0.930 . S
C421 C420 1.360 1_565 S
C421 C422 1.379 . S
C422 H406 0.931 . S
C422 C416 1.407 . S
C422 C421 1.379 . S
H423 C417 0.959 . S
H424 C417 0.961 . S
H425 C417 0.960 1_545 S
H426 C418 0.930 . S
H427 C419 0.929 . S
H428 C436 0.929 . S
H429 C438 0.930 . S
H430 C440 0.930 . S
H431 C443 0.929 . S
H432 C446 0.930 . S
H433 C448 0.960 . S
H434 C448 0.960 . S
H435 C448 0.960 . S
C436 H428 0.929 . S
C436 C437 1.377 . S
C436 C438 1.384 . S
C437 C436 1.377 . S
C437 C443 1.390 . S
C438 H429 0.930 . S
C438 C436 1.384 . S
C438 C439 1.372 . S
C439 C438 1.372 . S
C439 C440 1.400 . S
C439 C444 1.490 . S
C440 H430 0.930 . S
C440 C439 1.400 . S
C440 C443 1.386 . S
H441 C457 0.930 . S
H442 C458 0.931 . S
C443 H431 0.929 . S
C443 C437 1.390 . S
C443 C440 1.386 . S
C444 C439 1.490 . S
C444 C446 1.395 . S
C444 C447 1.403 . S
H445 C451 0.930 . S
C446 H432 0.930 . S
C446 C444 1.395 . S
C446 C449 1.403 1_554 S
C447 C444 1.403 . S
C447 C448 1.524 . S
C447 C451 1.400 . S
C448 H433 0.960 . S
C448 H434 0.960 . S
C448 H435 0.960 . S
C448 C447 1.524 . S
C449 C446 1.403 1_556 S
C449 C450 1.392 . S
C449 C453 1.495 . S
C450 C449 1.392 . S
C450 C451 1.385 1_556 S
C450 C452 1.478 . S
C451 H445 0.930 . S
C451 C447 1.400 . S
C451 C450 1.385 1_554 S
C452 C450 1.478 . S
C452 C454 1.381 . S
C452 C458 1.383 . S
C453 C449 1.495 . S
C453 H459 0.959 . S
C453 H460 0.961 . S
C453 H461 0.960 . S
C454 C452 1.381 . S
C454 C455 1.394 . S
C454 H462 0.930 . S
C455 C454 1.394 . S
C455 C456 1.383 . S
C455 H463 0.929 . S
C456 C455 1.383 . S
C456 C457 1.377 . S
C457 H441 0.930 . S
C457 C456 1.377 . S
C457 C458 1.379 . S
C458 H442 0.931 . S
C458 C452 1.383 . S
C458 C457 1.379 . S
H459 C453 0.959 . S
H460 C453 0.961 . S
H461 C453 0.960 . S
H462 C454 0.930 . S
H463 C455 0.929 . S
H464 C472 0.929 . S
H465 C474 0.930 . S
H466 C476 0.930 . S
H467 C479 0.929 . S
H468 C482 0.928 1_556 S
H469 C484 0.960 . S
H470 C484 0.960 . S
H471 C484 0.960 . S
C472 H464 0.929 . S
C472 C473 1.377 . S
C472 C474 1.384 . S
C473 C472 1.377 . S
C473 C479 1.390 . S
C474 H465 0.930 . S
C474 C472 1.384 . S
C474 C475 1.372 . S
C475 C474 1.372 . S
C475 C476 1.400 . S
C475 C480 1.490 . S
C476 H466 0.930 . S
C476 C475 1.400 . S
C476 C479 1.386 . S
H477 C493 0.930 . S
H478 C494 0.931 . S
C479 H467 0.929 . S
C479 C473 1.390 . S
C479 C476 1.386 . S
C480 C475 1.490 . S
C480 C482 1.395 . S
C480 C483 1.403 . S
H481 C487 0.930 . S
C482 H468 0.928 1_554 S
C482 C480 1.395 . S
C482 C485 1.403 1_554 S
C483 C480 1.403 . S
C483 C484 1.524 . S
C483 C487 1.400 . S
C484 H469 0.960 . S
C484 H470 0.960 . S
C484 H471 0.960 . S
C484 C483 1.524 . S
C485 C482 1.403 1_556 S
C485 C486 1.392 . S
C485 C489 1.495 . S
C486 C485 1.392 . S
C486 C487 1.385 1_556 S
C486 C488 1.478 . S
C487 H481 0.930 . S
C487 C483 1.400 . S
C487 C486 1.385 1_554 S
C488 C486 1.478 . S
C488 C490 1.381 . S
C488 C494 1.383 . S
C489 C485 1.495 . S
C489 H495 0.959 . S
C489 H496 0.961 . S
C489 H497 0.960 . S
C490 C488 1.381 . S
C490 C491 1.394 . S
C490 H498 0.930 . S
C491 C490 1.394 . S
C491 C492 1.383 . S
C491 H499 0.929 . S
C492 C491 1.383 . S
C492 C493 1.377 . S
C493 H477 0.930 . S
C493 C492 1.377 . S
C493 C494 1.379 . S
C494 H478 0.931 . S
C494 C488 1.383 . S
C494 C493 1.379 . S
H495 C489 0.959 . S
H496 C489 0.961 . S
H497 C489 0.960 . S
H498 C490 0.930 . S
H499 C491 0.929 . S
H500 C508 0.929 . S
H501 C510 0.930 . S
H502 C512 0.930 . S
H503 C515 0.929 . S
H504 C518 0.930 . S
H505 C520 0.960 1_556 S
H506 C520 0.960 . S
H507 C520 0.960 . S
C508 H500 0.929 . S
C508 C509 1.377 1_455 S
C508 C510 1.384 . S
C509 C508 1.377 1_655 S
C509 C515 1.390 . S
C510 H501 0.930 . S
C510 C508 1.384 . S
C510 C511 1.365 1_455 S
C511 C510 1.365 1_655 S
C511 C512 1.408 . S
C511 C516 1.490 . S
C512 H502 0.930 . S
C512 C511 1.408 . S
C512 C515 1.386 . S
H513 C529 0.930 . S
H514 C530 0.931 . S
C515 H503 0.929 . S
C515 C509 1.390 . S
C515 C512 1.386 . S
C516 C511 1.490 . S
C516 C518 1.411 . S
C516 C519 1.387 1_655 S
H517 C523 0.930 . S
C518 H504 0.930 . S
C518 C516 1.411 . S
C518 C521 1.403 . S
C519 C516 1.387 1_455 S
C519 C520 1.524 . S
C519 C523 1.400 1_554 S
C520 H505 0.960 1_554 S
C520 H506 0.960 . S
C520 H507 0.960 . S
C520 C519 1.524 . S
C521 C518 1.403 . S
C521 C522 1.392 1_554 S
C521 C525 1.495 . S
C522 C521 1.392 1_556 S
C522 C523 1.385 1_655 S
C522 C524 1.478 . S
C523 H517 0.930 . S
C523 C519 1.400 1_556 S
C523 C522 1.385 1_455 S
C524 C522 1.478 . S
C524 C526 1.381 1_655 S
C524 C530 1.383 . S
C525 C521 1.495 . S
C525 H531 0.959 . S
C525 H532 0.961 . S
C525 H533 0.960 . S
C526 C524 1.381 1_455 S
C526 C527 1.394 . S
C526 H534 0.930 . S
C527 C526 1.394 . S
C527 C528 1.395 . S
C527 H535 0.929 . S
C528 C527 1.395 . S
C528 C529 1.364 1_455 S
C529 H513 0.930 . S
C529 C528 1.364 1_655 S
C529 C530 1.379 . S
C530 H514 0.931 . S
C530 C524 1.383 . S
C530 C529 1.379 . S
H531 C525 0.959 . S
H532 C525 0.961 . S
H533 C525 0.960 . S
H534 C526 0.930 . S
H535 C527 0.929 . S
H536 C544 0.929 . S
H537 C546 0.930 . S
H538 C548 0.930 . S
H539 C551 0.929 . S
H540 C554 0.930 . S
H541 C556 0.960 . S
H542 C556 0.960 . S
H543 C556 0.960 . S
C544 H536 0.929 . S
C544 C545 1.377 . S
C544 C546 1.384 . S
C545 C544 1.377 . S
C545 C551 1.390 1_455 S
C546 H537 0.930 . S
C546 C544 1.384 . S
C546 C547 1.372 . S
C547 C546 1.372 . S
C547 C548 1.400 1_455 S
C547 C552 1.490 . S
C548 H538 0.930 . S
C548 C547 1.400 1_655 S
C548 C551 1.386 . S
H549 C565 0.930 . S
H550 C566 0.931 . S
C551 H539 0.929 . S
C551 C545 1.390 1_655 S
C551 C548 1.386 . S
C552 C547 1.490 . S
C552 C554 1.395 . S
C552 C555 1.403 1_455 S
H553 C559 0.930 . S
C554 H540 0.930 . S
C554 C552 1.395 . S
C554 C557 1.403 . S
C555 C552 1.403 1_655 S
C555 C556 1.524 . S
C555 C559 1.400 . S
C556 H541 0.960 . S
C556 H542 0.960 . S
C556 H543 0.960 . S
C556 C555 1.524 . S
C557 C554 1.403 . S
C557 C558 1.392 1_455 S
C557 C561 1.495 . S
C558 C557 1.392 1_655 S
C558 C559 1.385 . S
C558 C560 1.478 . S
C559 H553 0.930 . S
C559 C555 1.400 . S
C559 C558 1.385 . S
C560 C558 1.478 . S
C560 C562 1.379 1_655 S
C560 C566 1.383 . S
C561 C557 1.495 . S
C561 H567 0.959 . S
C561 H568 0.961 . S
C561 H569 0.960 . S
C562 C560 1.379 1_455 S
C562 C563 1.393 1_455 S
C562 H570 0.934 . S
C563 C562 1.393 1_655 S
C563 C564 1.383 . S
C563 H571 0.920 1_655 S
C564 C563 1.383 . S
C564 C565 1.377 . S
C565 H549 0.930 . S
C565 C564 1.377 . S
C565 C566 1.379 . S
C566 H550 0.931 . S
C566 C560 1.383 . S
C566 C565 1.379 . S
H567 C561 0.959 . S
H568 C561 0.961 . S
H569 C561 0.960 . S
H570 C562 0.934 . S
H571 C563 0.920 1_455 S
H572 C580 0.929 . S
H573 C582 0.930 . S
H574 C584 0.935 . S
H575 C587 0.929 . S
H576 C590 0.930 . S
H577 C592 0.960 . S
H578 C592 0.960 . S
H579 C592 0.960 . S
C580 H572 0.929 . S
C580 C581 1.377 . S
C580 C582 1.384 . S
C581 C580 1.377 . S
C581 C587 1.390 . S
C582 H573 0.930 . S
C582 C580 1.384 . S
C582 C583 1.372 . S
C583 C582 1.372 . S
C583 C584 1.400 . S
C583 C588 1.490 1_545 S
C584 H574 0.935 . S
C584 C583 1.400 . S
C584 C587 1.386 . S
H585 C601 0.930 . S
H586 C602 0.931 . S
C587 H575 0.929 . S
C587 C581 1.390 . S
C587 C584 1.386 . S
C588 C583 1.490 1_565 S
C588 C590 1.395 . S
C588 C591 1.403 1_565 S
H589 C595 0.930 . S
C590 H576 0.930 . S
C590 C588 1.395 . S
C590 C593 1.403 . S
C591 C588 1.403 1_545 S
C591 C592 1.524 . S
C591 C595 1.400 . S
C592 H577 0.960 . S
C592 H578 0.960 . S
C592 H579 0.960 . S
C592 C591 1.524 . S
C593 C590 1.403 . S
C593 C594 1.392 . S
C593 C597 1.495 . S
C594 C593 1.392 . S
C594 C595 1.385 1_565 S
C594 C596 1.478 . S
C595 H589 0.930 . S
C595 C591 1.400 . S
C595 C594 1.385 1_545 S
C596 C594 1.478 . S
C596 C598 1.381 . S
C596 C602 1.383 . S
C597 C593 1.495 . S
C597 H603 0.959 . S
C597 H604 0.961 . S
C597 H605 0.960 . S
C598 C596 1.381 . S
C598 C599 1.394 . S
C598 H606 0.930 . S
C599 C598 1.394 . S
C599 C600 1.383 . S
C599 H607 0.929 . S
C600 C599 1.383 . S
C600 C601 1.377 . S
C601 H585 0.930 . S
C601 C600 1.377 . S
C601 C602 1.379 . S
C602 H586 0.931 . S
C602 C596 1.383 . S
C602 C601 1.379 . S
H603 C597 0.959 . S
H604 C597 0.961 . S
H605 C597 0.960 . S
H606 C598 0.930 . S
H607 C599 0.929 . S
H608 C616 0.929 . S
H609 C618 0.930 . S
H610 C620 0.930 . S
H611 C623 0.929 . S
H612 C626 0.930 . S
H613 C628 0.960 . S
H614 C628 0.960 . S
H615 C628 0.960 . S
C616 H608 0.929 . S
C616 C617 1.377 . S
C616 C618 1.384 . S
C617 C616 1.377 . S
C617 C623 1.390 . S
C618 H609 0.930 . S
C618 C616 1.384 . S
C618 C619 1.372 . S
C619 C618 1.372 . S
C619 C620 1.400 . S
C619 C624 1.490 . S
C620 H610 0.930 . S
C620 C619 1.400 . S
C620 C623 1.386 . S
H621 C637 0.930 . S
H622 C638 0.931 . S
C623 H611 0.929 . S
C623 C617 1.390 . S
C623 C620 1.386 . S
C624 C619 1.490 . S
C624 C626 1.395 . S
C624 C627 1.403 . S
H625 C631 0.930 . S
C626 H612 0.930 . S
C626 C624 1.395 . S
C626 C629 1.403 . S
C627 C624 1.403 . S
C627 C628 1.524 . S
C627 C631 1.400 . S
C628 H613 0.960 . S
C628 H614 0.960 . S
C628 H615 0.960 . S
C628 C627 1.524 . S
C629 C626 1.403 . S
C629 C630 1.392 . S
C629 C633 1.495 . S
C630 C629 1.392 . S
C630 C631 1.385 . S
C630 C632 1.478 . S
C631 H625 0.930 . S
C631 C627 1.400 . S
C631 C630 1.385 . S
C632 C630 1.478 . S
C632 C634 1.381 . S
C632 C638 1.383 . S
C633 C629 1.495 . S
C633 H639 0.959 . S
C633 H640 0.961 . S
C633 H641 0.960 . S
C634 C632 1.381 . S
C634 C635 1.394 . S
C634 H642 0.930 . S
C635 C634 1.394 . S
C635 C636 1.383 . S
C635 H643 0.929 . S
C636 C635 1.383 . S
C636 C637 1.377 . S
C637 H621 0.930 . S
C637 C636 1.377 . S
C637 C638 1.379 . S
C638 H622 0.931 . S
C638 C632 1.383 . S
C638 C637 1.379 . S
H639 C633 0.959 . S
H640 C633 0.961 . S
H641 C633 0.960 . S
H642 C634 0.930 . S
H643 C635 0.929 . S
H644 C652 0.929 . S
H645 C654 0.930 . S
H646 C656 0.930 . S
H647 C659 0.929 . S
H648 C662 0.930 . S
H649 C664 0.960 . S
H650 C664 0.960 . S
H651 C664 0.960 . S
C652 H644 0.929 . S
C652 C653 1.377 . S
C652 C654 1.384 . S
C653 C652 1.377 . S
C653 C659 1.390 . S
C654 H645 0.930 . S
C654 C652 1.384 . S
C654 C655 1.372 . S
C655 C654 1.372 . S
C655 C656 1.400 . S
C655 C660 1.490 . S
C656 H646 0.930 . S
C656 C655 1.400 . S
C656 C659 1.386 . S
H657 C673 0.930 . S
H658 C674 0.931 . S
C659 H647 0.929 . S
C659 C653 1.390 . S
C659 C656 1.386 . S
C660 C655 1.490 . S
C660 C662 1.395 . S
C660 C663 1.403 . S
H661 C667 0.930 . S
C662 H648 0.930 . S
C662 C660 1.395 . S
C662 C665 1.403 . S
C663 C660 1.403 . S
C663 C664 1.524 . S
C663 C667 1.400 . S
C664 H649 0.960 . S
C664 H650 0.960 . S
C664 H651 0.960 . S
C664 C663 1.524 . S
C665 C662 1.403 . S
C665 C666 1.392 . S
C665 C669 1.495 . S
C666 C665 1.392 . S
C666 C667 1.385 . S
C666 C668 1.478 . S
C667 H661 0.930 . S
C667 C663 1.400 . S
C667 C666 1.385 . S
C668 C666 1.478 . S
C668 C670 1.381 . S
C668 C674 1.383 . S
C669 C665 1.495 . S
C669 H675 0.959 . S
C669 H676 0.961 . S
C669 H677 0.960 . S
C670 C668 1.381 . S
C670 C671 1.394 . S
C670 H678 0.930 . S
C671 C670 1.394 . S
C671 C672 1.383 . S
C671 H679 0.929 . S
C672 C671 1.383 . S
C672 C673 1.377 . S
C673 H657 0.930 . S
C673 C672 1.377 . S
C673 C674 1.379 . S
C674 H658 0.931 . S
C674 C668 1.383 . S
C674 C673 1.379 . S
H675 C669 0.959 . S
H676 C669 0.961 . S
H677 C669 0.960 . S
H678 C670 0.930 . S
H679 C671 0.929 . S
H680 C688 0.929 . S
H681 C690 0.930 . S
H682 C692 0.930 . S
H683 C695 0.929 . S
H684 C698 0.930 1_655 S
H685 C700 0.960 . S
H686 C700 0.960 . S
H687 C700 0.960 . S
C688 H680 0.929 . S
C688 C689 1.377 1_455 S
C688 C690 1.384 . S
C689 C688 1.377 1_655 S
C689 C695 1.390 . S
C690 H681 0.930 . S
C690 C688 1.384 . S
C690 C691 1.372 . S
C691 C690 1.372 . S
C691 C692 1.400 1_455 S
C691 C696 1.490 . S
C692 H682 0.930 . S
C692 C691 1.400 1_655 S
C692 C695 1.386 . S
H693 C709 0.930 . S
H694 C710 0.960 . S
C695 H683 0.929 . S
C695 C689 1.390 . S
C695 C692 1.386 . S
C696 C691 1.490 . S
C696 C698 1.395 . S
C696 C699 1.403 . S
H697 C703 0.930 . S
C698 H684 0.930 1_455 S
C698 C696 1.395 . S
C698 C701 1.403 . S
C699 C696 1.403 . S
C699 C700 1.524 . S
C699 C703 1.400 . S
C700 H685 0.960 . S
C700 H686 0.960 . S
C700 H687 0.960 . S
C700 C699 1.524 . S
C701 C698 1.403 . S
C701 C702 1.392 . S
C701 C705 1.495 1_454 S
C702 C701 1.392 . S
C702 C703 1.385 . S
C702 C704 1.478 . S
C703 H697 0.930 . S
C703 C699 1.400 . S
C703 C702 1.385 . S
C704 C702 1.478 . S
C704 C706 1.381 1_554 S
C704 C710 1.383 . S
C705 C701 1.495 1_656 S
C705 H711 0.959 . S
C705 H712 0.961 . S
C705 H713 0.960 1_655 S
C706 C704 1.381 1_556 S
C706 C707 1.394 . S
C706 H714 0.930 . S
C707 C706 1.394 . S
C707 C708 1.383 . S
C707 H715 0.929 . S
C708 C707 1.383 . S
C708 C709 1.377 1_556 S
C709 H693 0.930 . S
C709 C708 1.377 1_554 S
C709 C710 1.379 . S
C710 H694 0.960 . S
C710 C704 1.383 . S
C710 C709 1.379 . S
H711 C705 0.959 . S
H712 C705 0.961 . S
H713 C705 0.960 1_455 S
H714 C706 0.930 . S
H715 C707 0.929 . S
H716 C724 0.929 . S
H717 C726 0.930 . S
H718 C728 0.930 . S
H719 C731 0.929 . S
H720 C734 0.930 . S
H721 C736 0.960 . S
H722 C736 0.960 . S
H723 C736 0.960 . S
C724 H716 0.929 . S
C724 C725 1.377 1_545 S
C724 C726 1.384 . S
C725 C724 1.377 1_565 S
C725 C731 1.390 . S
C726 H717 0.930 . S
C726 C724 1.384 . S
C726 C727 1.372 . S
C727 C726 1.372 . S
C727 C728 1.400 1_545 S
C727 C732 1.490 . S
C728 H718 0.930 . S
C728 C727 1.400 1_565 S
C728 C731 1.386 . S
H729 C745 0.930 . S
H730 C746 0.955 . S
C731 H719 0.929 . S
C731 C725 1.390 . S
C731 C728 1.386 . S
C732 C727 1.490 . S
C732 C734 1.395 . S
C732 C735 1.403 1_545 S
H733 C739 0.930 1_565 S
C734 H720 0.930 . S
C734 C732 1.395 . S
C734 C737 1.403 . S
C735 C732 1.403 1_565 S
C735 C736 1.524 . S
C735 C739 1.400 1_565 S
C736 H721 0.960 . S
C736 H722 0.960 . S
C736 H723 0.960 . S
C736 C735 1.524 . S
C737 C734 1.403 . S
C737 C738 1.392 . S
C737 C741 1.495 . S
C738 C737 1.392 . S
C738 C739 1.385 . S
C738 C740 1.478 . S
C739 H733 0.930 1_545 S
C739 C735 1.400 1_545 S
C739 C738 1.385 . S
C740 C738 1.478 . S
C740 C742 1.381 . S
C740 C746 1.383 1_554 S
C741 C737 1.495 . S
C741 H747 0.959 . S
C741 H748 0.961 1_554 S
C741 H749 0.960 . S
C742 C740 1.381 . S
C742 C743 1.394 . S
C742 H750 0.930 . S
C743 C742 1.394 . S
C743 C744 1.383 1_554 S
C743 H751 0.929 . S
C744 C743 1.383 1_556 S
C744 C745 1.377 . S
C745 H729 0.930 . S
C745 C744 1.377 . S
C745 C746 1.379 . S
C746 H730 0.955 . S
C746 C740 1.383 1_556 S
C746 C745 1.379 . S
H747 C741 0.959 . S
H748 C741 0.961 1_556 S
H749 C741 0.960 . S
H750 C742 0.930 . S
H751 C743 0.929 . S
H752 C760 0.929 . S
H753 C762 0.930 . S
H754 C764 0.930 . S
H755 C767 0.929 . S
H756 C770 0.930 . S
H757 C772 0.960 . S
H758 C772 0.960 . S
H759 C772 0.960 . S
C760 H752 0.929 . S
C760 C761 1.377 . S
C760 C762 1.384 . S
C761 C760 1.377 . S
C761 C767 1.390 . S
C762 H753 0.930 . S
C762 C760 1.384 . S
C762 C763 1.372 . S
C763 C762 1.372 . S
C763 C764 1.400 . S
C763 C768 1.490 . S
C764 H754 0.930 . S
C764 C763 1.400 . S
C764 C767 1.386 . S
H765 C781 0.930 . S
H766 C782 0.931 . S
C767 H755 0.929 . S
C767 C761 1.390 . S
C767 C764 1.386 . S
C768 C763 1.490 . S
C768 C770 1.395 . S
C768 C771 1.403 . S
H769 C775 0.930 . S
C770 H756 0.930 . S
C770 C768 1.395 . S
C770 C773 1.403 . S
C771 C768 1.403 . S
C771 C772 1.524 . S
C771 C775 1.400 . S
C772 H757 0.960 . S
C772 H758 0.960 . S
C772 H759 0.960 . S
C772 C771 1.524 . S
C773 C770 1.403 . S
C773 C774 1.392 . S
C773 C777 1.495 1_554 S
C774 C773 1.392 . S
C774 C775 1.385 . S
C774 C776 1.478 . S
C775 H769 0.930 . S
C775 C771 1.400 . S
C775 C774 1.385 . S
C776 C774 1.478 . S
C776 C778 1.381 1_554 S
C776 C782 1.383 . S
C777 C773 1.495 1_556 S
C777 H783 0.959 . S
C777 H784 0.961 . S
C777 H785 0.960 . S
C778 C776 1.381 1_556 S
C778 C779 1.394 . S
C778 H786 0.930 . S
C779 C778 1.394 . S
C779 C780 1.383 . S
C779 H787 0.929 . S
C780 C779 1.383 . S
C780 C781 1.377 1_556 S
C781 H765 0.930 . S
C781 C780 1.377 1_554 S
C781 C782 1.379 . S
C782 H766 0.931 . S
C782 C776 1.383 . S
C782 C781 1.379 . S
H783 C777 0.959 . S
H784 C777 0.961 . S
H785 C777 0.960 . S
H786 C778 0.930 . S
H787 C779 0.929 . S
H788 C796 0.929 . S
H789 C798 0.930 . S
H790 C800 0.930 . S
H791 C803 0.929 . S
H792 C806 0.930 . S
H793 C808 0.960 . S
H794 C808 0.960 . S
H795 C808 0.960 . S
C796 H788 0.929 . S
C796 C797 1.377 . S
C796 C798 1.384 . S
C797 C796 1.377 . S
C797 C803 1.390 . S
C798 H789 0.930 . S
C798 C796 1.384 . S
C798 C799 1.372 . S
C799 C798 1.372 . S
C799 C800 1.400 . S
C799 C804 1.490 . S
C800 H790 0.930 . S
C800 C799 1.400 . S
C800 C803 1.386 . S
H801 C817 0.930 . S
H802 C818 0.932 . S
C803 H791 0.929 . S
C803 C797 1.390 . S
C803 C800 1.386 . S
C804 C799 1.490 . S
C804 C806 1.395 . S
C804 C807 1.403 . S
H805 C811 0.930 . S
C806 H792 0.930 . S
C806 C804 1.395 . S
C806 C809 1.403 . S
C807 C804 1.403 . S
C807 C808 1.524 . S
C807 C811 1.400 . S
C808 H793 0.960 . S
C808 H794 0.960 . S
C808 H795 0.960 . S
C808 C807 1.524 . S
C809 C806 1.403 . S
C809 C810 1.392 . S
C809 C813 1.495 1_554 S
C810 C809 1.392 . S
C810 C811 1.385 . S
C810 C812 1.478 . S
C811 H805 0.930 . S
C811 C807 1.400 . S
C811 C810 1.385 . S
C812 C810 1.478 . S
C812 C814 1.381 . S
C812 C818 1.383 1_554 S
C813 C809 1.495 1_556 S
C813 H819 0.959 . S
C813 H820 0.961 . S
C813 H821 0.960 . S
C814 C812 1.381 . S
C814 C815 1.394 1_554 S
C814 H822 0.930 . S
C815 C814 1.394 1_556 S
C815 C816 1.383 . S
C815 H823 0.929 . S
C816 C815 1.383 . S
C816 C817 1.377 . S
C817 H801 0.930 . S
C817 C816 1.377 . S
C817 C818 1.379 . S
C818 H802 0.932 . S
C818 C812 1.383 1_556 S
C818 C817 1.379 . S
H819 C813 0.959 . S
H820 C813 0.961 . S
H821 C813 0.960 . S
H822 C814 0.930 . S
H823 C815 0.929 . S
H824 C832 0.929 . S
H825 C834 0.930 . S
H826 C836 0.930 . S
H827 C839 0.929 . S
H828 C842 0.930 . S
H829 C844 0.960 . S
H830 C844 0.960 . S
H831 C844 0.960 . S
C832 H824 0.929 . S
C832 C833 1.377 . S
C832 C834 1.384 . S
C833 C832 1.377 . S
C833 C839 1.390 1_455 S
C834 H825 0.930 . S
C834 C832 1.384 . S
C834 C835 1.372 . S
C835 C834 1.372 . S
C835 C836 1.400 1_455 S
C835 C840 1.490 . S
C836 H826 0.930 . S
C836 C835 1.400 1_655 S
C836 C839 1.386 . S
H837 C853 0.930 1_655 S
H838 C854 0.931 1_655 S
C839 H827 0.929 . S
C839 C833 1.390 1_655 S
C839 C836 1.386 . S
C840 C835 1.490 . S
C840 C842 1.395 . S
C840 C843 1.403 1_455 S
H841 C847 0.942 . S
C842 H828 0.930 . S
C842 C840 1.395 . S
C842 C845 1.403 . S
C843 C840 1.403 1_655 S
C843 C844 1.524 . S
C843 C847 1.402 . S
C844 H829 0.960 . S
C844 H830 0.960 . S
C844 H831 0.960 . S
C844 C843 1.524 . S
C845 C842 1.403 . S
C845 C846 1.392 . S
C845 C849 1.495 . S
C846 C845 1.392 . S
C846 C847 1.372 1_455 S
C846 C848 1.478 . S
C847 H841 0.942 . S
C847 C843 1.402 . S
C847 C846 1.372 1_655 S
C848 C846 1.478 . S
C848 C850 1.381 . S
C848 C854 1.383 . S
C849 C845 1.495 . S
C849 H855 0.959 . S
C849 H856 0.961 . S
C849 H857 0.960 . S
C850 C848 1.381 . S
C850 C851 1.394 . S
C850 H858 0.930 . S
C851 C850 1.394 . S
C851 C852 1.383 . S
C851 H859 0.929 . S
C852 C851 1.383 . S
C852 C853 1.377 . S
C853 H837 0.930 1_455 S
C853 C852 1.377 . S
C853 C854 1.379 . S
C854 H838 0.931 1_455 S
C854 C848 1.383 . S
C854 C853 1.379 . S
H855 C849 0.959 . S
H856 C849 0.961 . S
H857 C849 0.960 . S
H858 C850 0.930 . S
H859 C851 0.929 . S
H860 C868 0.929 . S
H861 C870 0.930 . S
H862 C872 0.930 . S
H863 C875 0.929 . S
H864 C878 0.930 . S
H865 C880 0.960 . S
H866 C880 0.960 . S
H867 C880 0.960 . S
C868 H860 0.929 . S
C868 C869 1.377 . S
C868 C870 1.384 . S
C869 C868 1.377 . S
C869 C875 1.390 1_545 S
C870 H861 0.930 . S
C870 C868 1.384 . S
C870 C871 1.372 . S
C871 C870 1.372 . S
C871 C872 1.400 1_545 S
C871 C876 1.490 . S
C872 H862 0.930 . S
C872 C871 1.400 1_565 S
C872 C875 1.386 . S
H873 C889 0.930 1_565 S
H874 C890 0.931 1_565 S
C875 H863 0.929 . S
C875 C869 1.390 1_565 S
C875 C872 1.386 . S
C876 C871 1.490 . S
C876 C878 1.395 . S
C876 C879 1.403 1_545 S
H877 C883 0.969 . S
C878 H864 0.930 . S
C878 C876 1.395 . S
C878 C881 1.403 . S
C879 C876 1.403 1_565 S
C879 C880 1.524 . S
C879 C883 1.406 . S
C880 H865 0.960 . S
C880 H866 0.960 . S
C880 H867 0.960 . S
C880 C879 1.524 . S
C881 C878 1.403 . S
C881 C882 1.392 . S
C881 C885 1.495 . S
C882 C881 1.392 . S
C882 C883 1.344 1_545 S
C882 C884 1.478 . S
C883 H877 0.969 . S
C883 C879 1.406 . S
C883 C882 1.344 1_565 S
C884 C882 1.478 . S
C884 C886 1.381 . S
C884 C890 1.383 . S
C885 C881 1.495 . S
C885 H891 0.959 . S
C885 H892 0.961 . S
C885 H893 0.960 . S
C886 C884 1.381 . S
C886 C887 1.394 . S
C886 H894 0.930 . S
C887 C886 1.394 . S
C887 C888 1.383 . S
C887 H895 0.929 . S
C888 C887 1.383 . S
C888 C889 1.377 . S
C889 H873 0.930 1_545 S
C889 C888 1.377 . S
C889 C890 1.379 . S
C890 H874 0.931 1_545 S
C890 C884 1.383 . S
C890 C889 1.379 . S
H891 C885 0.959 . S
H892 C885 0.961 . S
H893 C885 0.960 . S
H894 C886 0.930 . S
H895 C887 0.929 . S
H896 C904 0.929 . S
H897 C906 0.930 . S
H898 C908 0.930 . S
H899 C911 0.929 . S
H900 C914 0.930 . S
H901 C916 0.960 . S
H902 C916 0.960 . S
H903 C916 0.960 . S
C904 H896 0.929 . S
C904 C905 1.377 . S
C904 C906 1.384 . S
C905 C904 1.377 . S
C905 C911 1.390 . S
C906 H897 0.930 . S
C906 C904 1.384 . S
C906 C907 1.372 . S
C907 C906 1.372 . S
C907 C908 1.400 . S
C907 C912 1.490 . S
C908 H898 0.930 . S
C908 C907 1.400 . S
C908 C911 1.386 . S
H909 C925 0.930 . S
H910 C926 0.931 . S
C911 H899 0.929 . S
C911 C905 1.390 . S
C911 C908 1.386 . S
C912 C907 1.490 . S
C912 C914 1.395 . S
C912 C915 1.403 . S
H913 C919 0.930 . S
C914 H900 0.930 . S
C914 C912 1.395 . S
C914 C917 1.403 . S
C915 C912 1.403 . S
C915 C916 1.524 . S
C915 C919 1.400 . S
C916 H901 0.960 . S
C916 H902 0.960 . S
C916 H903 0.960 . S
C916 C915 1.524 . S
C917 C914 1.403 . S
C917 C918 1.392 . S
C917 C921 1.495 . S
C918 C917 1.392 . S
C918 C919 1.385 . S
C918 C920 1.478 . S
C919 H913 0.930 . S
C919 C915 1.400 . S
C919 C918 1.385 . S
C920 C918 1.478 . S
C920 C922 1.381 . S
C920 C926 1.383 . S
C921 C917 1.495 . S
C921 H927 0.959 . S
C921 H928 0.961 . S
C921 H929 0.960 . S
C922 C920 1.381 . S
C922 C923 1.394 . S
C922 H930 0.930 . S
C923 C922 1.394 . S
C923 C924 1.383 . S
C923 H931 0.929 . S
C924 C923 1.383 . S
C924 C925 1.377 . S
C925 H909 0.930 . S
C925 C924 1.377 . S
C925 C926 1.379 . S
C926 H910 0.931 . S
C926 C920 1.383 . S
C926 C925 1.379 . S
H927 C921 0.959 . S
H928 C921 0.961 . S
H929 C921 0.960 . S
H930 C922 0.930 . S
H931 C923 0.929 . S
H932 C940 0.929 . S
H933 C942 0.930 . S
H934 C944 0.930 . S
H935 C947 0.929 . S
H936 C950 0.930 . S
H937 C952 0.960 . S
H938 C952 0.960 . S
H939 C952 0.960 . S
C940 H932 0.929 . S
C940 C941 1.377 . S
C940 C942 1.384 . S
C941 C940 1.377 . S
C941 C947 1.390 . S
C942 H933 0.930 . S
C942 C940 1.384 . S
C942 C943 1.372 . S
C943 C942 1.372 . S
C943 C944 1.400 . S
C943 C948 1.490 . S
C944 H934 0.930 . S
C944 C943 1.400 . S
C944 C947 1.386 . S
H945 C961 0.930 . S
H946 C962 0.931 . S
C947 H935 0.929 . S
C947 C941 1.390 . S
C947 C944 1.386 . S
C948 C943 1.490 . S
C948 C950 1.395 . S
C948 C951 1.403 . S
H949 C955 0.930 . S
C950 H936 0.930 . S
C950 C948 1.395 . S
C950 C953 1.403 . S
C951 C948 1.403 . S
C951 C952 1.524 . S
C951 C955 1.400 . S
C952 H937 0.960 . S
C952 H938 0.960 . S
C952 H939 0.960 . S
C952 C951 1.524 . S
C953 C950 1.403 . S
C953 C954 1.392 . S
C953 C957 1.495 . S
C954 C953 1.392 . S
C954 C955 1.385 . S
C954 C956 1.478 . S
C955 H949 0.930 . S
C955 C951 1.400 . S
C955 C954 1.385 . S
C956 C954 1.478 . S
C956 C958 1.381 . S
C956 C962 1.383 . S
C957 C953 1.495 . S
C957 H963 0.959 . S
C957 H964 0.961 . S
C957 H965 0.960 . S
C958 C956 1.381 . S
C958 C959 1.394 . S
C958 H966 0.930 . S
C959 C958 1.394 . S
C959 C960 1.383 . S
C959 H967 0.929 . S
C960 C959 1.383 . S
C960 C961 1.377 . S
C961 H945 0.930 . S
C961 C960 1.377 . S
C961 C962 1.379 . S
C962 H946 0.931 . S
C962 C956 1.383 . S
C962 C961 1.379 . S
H963 C957 0.959 . S
H964 C957 0.961 . S
H965 C957 0.960 . S
H966 C958 0.930 . S
H967 C959 0.929 . S
H968 C976 0.929 . S
H969 C978 0.930 . S
H970 C980 0.930 . S
H971 C983 0.929 . S
H972 C986 0.930 . S
H973 C988 0.960 . S
H974 C988 0.960 . S
H975 C988 0.960 . S
C976 H968 0.929 . S
C976 C977 1.377 1_455 S
C976 C978 1.384 . S
C977 C976 1.377 1_655 S
C977 C983 1.390 . S
C978 H969 0.930 . S
C978 C976 1.384 . S
C978 C979 1.372 1_455 S
C979 C978 1.372 1_655 S
C979 C980 1.400 . S
C979 C984 1.490 . S
C980 H970 0.930 . S
C980 C979 1.400 . S
C980 C983 1.386 . S
H981 C997 0.930 . S
H982 C998 0.931 . S
C983 H971 0.929 . S
C983 C977 1.390 . S
C983 C980 1.386 . S
C984 C979 1.490 . S
C984 C986 1.395 1_655 S
C984 C987 1.403 . S
H985 C991 0.930 . S
C986 H972 0.930 . S
C986 C984 1.395 1_455 S
C986 C989 1.403 . S
C987 C984 1.403 . S
C987 C988 1.524 . S
C987 C991 1.400 . S
C988 H973 0.960 . S
C988 H974 0.960 . S
C988 H975 0.960 . S
C988 C987 1.524 . S
C989 C986 1.403 . S
C989 C990 1.357 1_455 S
C989 C993 1.495 . S
C990 C989 1.357 1_655 S
C990 C991 1.422 . S
C990 C992 1.479 . S
C991 H985 0.930 . S
C991 C987 1.400 . S
C991 C990 1.422 . S
C992 C990 1.479 . S
C992 C994 1.381 1_655 S
C992 C998 1.383 . S
C993 C989 1.495 . S
C993 H999 0.959 . S
C993 H1000 0.961 . S
C993 H1001 0.960 . S
C994 C992 1.381 1_455 S
C994 C995 1.394 . S
C994 H1002 0.930 . S
C995 C994 1.394 . S
C995 C996 1.383 1_455 S
C995 H1003 0.929 . S
C996 C995 1.383 1_655 S
C996 C997 1.377 . S
C997 H981 0.930 . S
C997 C996 1.377 . S
C997 C998 1.379 . S
C998 H982 0.931 . S
C998 C992 1.383 . S
C998 C997 1.379 . S
H999 C993 0.959 . S
H1000 C993 0.961 . S
H1001 C993 0.960 . S
H1002 C994 0.930 . S
H1003 C995 0.929 . S
H1004 C1012 0.929 . S
H1005 C1014 0.930 . S
H1006 C1016 0.930 . S
H1007 C1019 0.929 . S
H1008 C1022 0.930 . S
H1009 C1024 0.960 . S
H1010 C1024 0.960 . S
H1011 C1024 0.960 . S
C1012 H1004 0.929 . S
C1012 C1013 1.377 1_545 S
C1012 C1014 1.384 . S
C1013 C1012 1.377 1_565 S
C1013 C1019 1.390 . S
C1014 H1005 0.930 . S
C1014 C1012 1.384 . S
C1014 C1015 1.372 1_545 S
C1015 C1014 1.372 1_565 S
C1015 C1016 1.400 . S
C1015 C1020 1.490 . S
C1016 H1006 0.930 . S
C1016 C1015 1.400 . S
C1016 C1019 1.386 . S
H1017 C1033 0.930 . S
H1018 C1034 0.931 . S
C1019 H1007 0.929 . S
C1019 C1013 1.390 . S
C1019 C1016 1.386 . S
C1020 C1015 1.490 . S
C1020 C1022 1.395 1_565 S
C1020 C1023 1.403 . S
H1021 C1027 0.930 . S
C1022 H1008 0.930 . S
C1022 C1020 1.395 1_545 S
C1022 C1025 1.403 . S
C1023 C1020 1.403 . S
C1023 C1024 1.524 . S
C1023 C1027 1.400 . S
C1024 H1009 0.960 . S
C1024 H1010 0.960 . S
C1024 H1011 0.960 . S
C1024 C1023 1.524 . S
C1025 C1022 1.403 . S
C1025 C1026 1.392 1_545 S
C1025 C1029 1.495 . S
C1026 C1025 1.392 1_565 S
C1026 C1027 1.385 . S
C1026 C1028 1.478 . S
C1027 H1021 0.930 . S
C1027 C1023 1.400 . S
C1027 C1026 1.385 . S
C1028 C1026 1.478 . S
C1028 C1030 1.381 1_565 S
C1028 C1034 1.383 . S
C1029 C1025 1.495 . S
C1029 H1035 0.959 . S
C1029 H1036 0.961 . S
C1029 H1037 0.960 . S
C1030 C1028 1.381 1_545 S
C1030 C1031 1.394 . S
C1030 H1038 0.930 . S
C1031 C1030 1.394 . S
C1031 C1032 1.383 1_545 S
C1031 H1039 0.929 . S
C1032 C1031 1.383 1_565 S
C1032 C1033 1.377 . S
C1033 H1017 0.930 . S
C1033 C1032 1.377 . S
C1033 C1034 1.379 . S
C1034 H1018 0.931 . S
C1034 C1028 1.383 . S
C1034 C1033 1.379 . S
H1035 C1029 0.959 . S
H1036 C1029 0.961 . S
H1037 C1029 0.960 . S
H1038 C1030 0.930 . S
H1039 C1031 0.929 . S
H1040 C1048 0.929 . S
H1041 C1050 0.930 . S
H1042 C1052 0.930 . S
H1043 C1055 0.929 . S
H1044 C1058 0.930 . S
H1045 C1060 0.960 . S
H1046 C1060 0.960 . S
H1047 C1060 0.960 . S
C1048 H1040 0.929 . S
C1048 C1049 1.377 . S
C1048 C1050 1.384 . S
C1049 C1048 1.377 . S
C1049 C1055 1.390 . S
C1050 H1041 0.930 . S
C1050 C1048 1.384 . S
C1050 C1051 1.372 . S
C1051 C1050 1.372 . S
C1051 C1052 1.400 . S
C1051 C1056 1.490 . S
C1052 H1042 0.930 . S
C1052 C1051 1.400 . S
C1052 C1055 1.386 . S
H1053 C1069 0.930 . S
H1054 C1070 0.931 . S
C1055 H1043 0.929 . S
C1055 C1049 1.390 . S
C1055 C1052 1.386 . S
C1056 C1051 1.490 . S
C1056 C1058 1.395 . S
C1056 C1059 1.403 . S
H1057 C1063 0.930 . S
C1058 H1044 0.930 . S
C1058 C1056 1.395 . S
C1058 C1061 1.403 . S
C1059 C1056 1.403 . S
C1059 C1060 1.524 . S
C1059 C1063 1.400 . S
C1060 H1045 0.960 . S
C1060 H1046 0.960 . S
C1060 H1047 0.960 . S
C1060 C1059 1.524 . S
C1061 C1058 1.403 . S
C1061 C1062 1.392 . S
C1061 C1065 1.495 . S
C1062 C1061 1.392 . S
C1062 C1063 1.385 . S
C1062 C1064 1.478 . S
C1063 H1057 0.930 . S
C1063 C1059 1.400 . S
C1063 C1062 1.385 . S
C1064 C1062 1.478 . S
C1064 C1066 1.381 . S
C1064 C1070 1.383 . S
C1065 C1061 1.495 . S
C1065 H1071 0.959 . S
C1065 H1072 0.961 . S
C1065 H1073 0.960 . S
C1066 C1064 1.381 . S
C1066 C1067 1.394 . S
C1066 H1074 0.930 . S
C1067 C1066 1.394 . S
C1067 C1068 1.383 . S
C1067 H1075 0.929 . S
C1068 C1067 1.383 . S
C1068 C1069 1.377 . S
C1069 H1053 0.930 . S
C1069 C1068 1.377 . S
C1069 C1070 1.379 . S
C1070 H1054 0.931 . S
C1070 C1064 1.383 . S
C1070 C1069 1.379 . S
H1071 C1065 0.959 . S
H1072 C1065 0.961 . S
H1073 C1065 0.960 . S
H1074 C1066 0.930 . S
H1075 C1067 0.929 . S
H1076 C1084 0.929 . S
H1077 C1086 0.930 . S
H1078 C1088 0.930 . S
H1079 C1091 0.929 . S
H1080 C1094 0.930 . S
H1081 C1096 0.960 . S
H1082 C1096 0.960 . S
H1083 C1096 0.960 . S
C1084 H1076 0.929 . S
C1084 C1085 1.377 . S
C1084 C1086 1.384 . S
C1085 C1084 1.377 . S
C1085 C1091 1.390 . S
C1086 H1077 0.930 . S
C1086 C1084 1.384 . S
C1086 C1087 1.372 . S
C1087 C1086 1.372 . S
C1087 C1088 1.400 . S
C1087 C1092 1.490 . S
C1088 H1078 0.930 . S
C1088 C1087 1.400 . S
C1088 C1091 1.386 . S
H1089 C1105 0.930 . S
H1090 C1106 0.931 . S
C1091 H1079 0.929 . S
C1091 C1085 1.390 . S
C1091 C1088 1.386 . S
C1092 C1087 1.490 . S
C1092 C1094 1.395 . S
C1092 C1095 1.403 . S
H1093 C1099 0.930 . S
C1094 H1080 0.930 . S
C1094 C1092 1.395 . S
C1094 C1097 1.403 . S
C1095 C1092 1.403 . S
C1095 C1096 1.524 . S
C1095 C1099 1.400 . S
C1096 H1081 0.960 . S
C1096 H1082 0.960 . S
C1096 H1083 0.960 . S
C1096 C1095 1.524 . S
C1097 C1094 1.403 . S
C1097 C1098 1.392 . S
C1097 C1101 1.495 . S
C1098 C1097 1.392 . S
C1098 C1099 1.385 . S
C1098 C1100 1.478 . S
C1099 H1093 0.930 . S
C1099 C1095 1.400 . S
C1099 C1098 1.385 . S
C1100 C1098 1.478 . S
C1100 C1102 1.381 . S
C1100 C1106 1.383 . S
C1101 C1097 1.495 . S
C1101 H1107 0.959 . S
C1101 H1108 0.961 . S
C1101 H1109 0.960 . S
C1102 C1100 1.381 . S
C1102 C1103 1.394 . S
C1102 H1110 0.930 . S
C1103 C1102 1.394 . S
C1103 C1104 1.383 . S
C1103 H1111 0.929 . S
C1104 C1103 1.383 . S
C1104 C1105 1.377 . S
C1105 H1089 0.930 . S
C1105 C1104 1.377 . S
C1105 C1106 1.379 . S
C1106 H1090 0.931 . S
C1106 C1100 1.383 . S
C1106 C1105 1.379 . S
H1107 C1101 0.959 . S
H1108 C1101 0.961 . S
H1109 C1101 0.960 . S
H1110 C1102 0.930 . S
H1111 C1103 0.929 . S
C257 C76 1.732 . S
C276 C98 1.813 . S
C312 C138 1.817 . S
C293 C87 1.733 . S
C348 C178 1.803 . S
C329 C54 1.737 . S
C384 C218 1.813 . S
C365 C65 1.733 . S
C420 C107 1.822 . S
C401 C32 1.733 . S
C437 C43 1.738 . S
C456 C147 1.810 . S
C473 C10 1.735 . S
C492 C187 1.804 . S
C509 C21 1.736 . S
C528 C227 1.828 . S
C564 C104 0.291 . S
C545 C60 0.379 . S
C600 C144 0.424 . S
C581 C71 0.409 . S
C636 C184 0.427 . S
C617 C82 0.410 . S
C653 C49 0.405 . S
C672 C224 0.411 . S
C689 C16 0.401 . S
C708 C95 0.326 . S
C744 C135 0.424 . S
C725 C27 0.389 . S
C780 C175 0.304 . S
C761 C38 0.408 . S
C797 C5 0.389 . S
C816 C215 0.400 . S
C833 C59 1.865 . S
C852 C99 2.063 . S
C869 C70 1.864 . S
C888 C139 2.063 . S
C924 C179 2.060 . S
C905 C81 1.864 . S
C960 C219 2.049 . S
C941 C48 1.852 . S
C977 C15 1.866 . S
C996 C90 2.043 . S
C1032 C130 2.045 . S
C1013 C26 1.865 . S
C1068 C170 2.046 . S
C1049 C37 1.861 . S
C1085 C4 1.857 . S
C1104 C210 2.059 . S
