# Generated by pormake.
# Topology ptr, (4,4)-cn, num edge types: 1
# Building blocks:
#     Node 0, Type 0, BuildingBlock: QUQFOY_clean_sbu_1, # of connection points: 4
#     Node 1, Type 0, BuildingBlock: QUQFOY_clean_sbu_1, # of connection points: 4
#     Node 2, Type 0, BuildingBlock: QUQFOY_clean_sbu_1, # of connection points: 4
#     Node 3, Type 0, BuildingBlock: QUQFOY_clean_sbu_1, # of connection points: 4
#     Node 4, Type 0, BuildingBlock: QUQFOY_clean_sbu_1, # of connection points: 4
#     Node 5, Type 0, BuildingBlock: QUQFOY_clean_sbu_1, # of connection points: 4
#     Node 6, Type 0, BuildingBlock: QUQFOY_clean_sbu_1, # of connection points: 4
#     Node 7, Type 0, BuildingBlock: QUQFOY_clean_sbu_1, # of connection points: 4
#     Node 8, Type 0, BuildingBlock: QUQFOY_clean_sbu_1, # of connection points: 4
#     Node 9, Type 0, BuildingBlock: QUQFOY_clean_sbu_1, # of connection points: 4
#     Node 10, Type 0, BuildingBlock: QUQFOY_clean_sbu_1, # of connection points: 4
#     Node 11, Type 0, BuildingBlock: QUQFOY_clean_sbu_1, # of connection points: 4
#     Node 12, Type 0, BuildingBlock: QUQFOY_clean_sbu_1, # of connection points: 4
#     Node 13, Type 0, BuildingBlock: QUQFOY_clean_sbu_1, # of connection points: 4
#     Node 14, Type 0, BuildingBlock: QUQFOY_clean_sbu_1, # of connection points: 4
#     Node 15, Type 0, BuildingBlock: QUQFOY_clean_sbu_1, # of connection points: 4
#     Node 16, Type 0, BuildingBlock: QUQFOY_clean_sbu_1, # of connection points: 4
#     Node 17, Type 0, BuildingBlock: QUQFOY_clean_sbu_1, # of connection points: 4
#     Node 18, Type 1, BuildingBlock: MUDLON_clean_linker_0, # of connection points: 4
#     Node 19, Type 1, BuildingBlock: MUDLON_clean_linker_0, # of connection points: 4
#     Node 20, Type 1, BuildingBlock: MUDLON_clean_linker_0, # of connection points: 4
#     Node 21, Type 1, BuildingBlock: MUDLON_clean_linker_0, # of connection points: 4
#     Node 22, Type 1, BuildingBlock: MUDLON_clean_linker_0, # of connection points: 4
#     Node 23, Type 1, BuildingBlock: MUDLON_clean_linker_0, # of connection points: 4
#     Node 24, Type 1, BuildingBlock: MUDLON_clean_linker_0, # of connection points: 4
#     Node 25, Type 1, BuildingBlock: MUDLON_clean_linker_0, # of connection points: 4
#     Node 26, Type 1, BuildingBlock: MUDLON_clean_linker_0, # of connection points: 4
#     Node 27, Type 1, BuildingBlock: MUDLON_clean_linker_0, # of connection points: 4
#     Node 28, Type 1, BuildingBlock: MUDLON_clean_linker_0, # of connection points: 4
#     Node 29, Type 1, BuildingBlock: MUDLON_clean_linker_0, # of connection points: 4
#     Node 30, Type 1, BuildingBlock: MUDLON_clean_linker_0, # of connection points: 4
#     Node 31, Type 1, BuildingBlock: MUDLON_clean_linker_0, # of connection points: 4
#     Node 32, Type 1, BuildingBlock: MUDLON_clean_linker_0, # of connection points: 4
#     Node 33, Type 1, BuildingBlock: MUDLON_clean_linker_0, # of connection points: 4
#     Node 34, Type 1, BuildingBlock: MUDLON_clean_linker_0, # of connection points: 4
#     Node 35, Type 1, BuildingBlock: MUDLON_clean_linker_0, # of connection points: 4
#     Edge 36, Type (0, 1), BuildingBlock: MIFKUJ_clean_linker_0, # of connection points: 2
#     Edge 37, Type (0, 1), BuildingBlock: MIFKUJ_clean_linker_0, # of connection points: 2
#     Edge 38, Type (0, 1), BuildingBlock: MIFKUJ_clean_linker_0, # of connection points: 2
#     Edge 39, Type (0, 1), BuildingBlock: MIFKUJ_clean_linker_0, # of connection points: 2
#     Edge 40, Type (0, 1), BuildingBlock: MIFKUJ_clean_linker_0, # of connection points: 2
#     Edge 41, Type (0, 1), BuildingBlock: MIFKUJ_clean_linker_0, # of connection points: 2
#     Edge 42, Type (0, 1), BuildingBlock: MIFKUJ_clean_linker_0, # of connection points: 2
#     Edge 43, Type (0, 1), BuildingBlock: MIFKUJ_clean_linker_0, # of connection points: 2
#     Edge 44, Type (0, 1), BuildingBlock: MIFKUJ_clean_linker_0, # of connection points: 2
#     Edge 45, Type (0, 1), BuildingBlock: MIFKUJ_clean_linker_0, # of connection points: 2
#     Edge 46, Type (0, 1), BuildingBlock: MIFKUJ_clean_linker_0, # of connection points: 2
#     Edge 47, Type (0, 1), BuildingBlock: MIFKUJ_clean_linker_0, # of connection points: 2
#     Edge 48, Type (0, 1), BuildingBlock: MIFKUJ_clean_linker_0, # of connection points: 2
#     Edge 49, Type (0, 1), BuildingBlock: MIFKUJ_clean_linker_0, # of connection points: 2
#     Edge 50, Type (0, 1), BuildingBlock: MIFKUJ_clean_linker_0, # of connection points: 2
#     Edge 51, Type (0, 1), BuildingBlock: MIFKUJ_clean_linker_0, # of connection points: 2
#     Edge 52, Type (0, 1), BuildingBlock: MIFKUJ_clean_linker_0, # of connection points: 2
#     Edge 53, Type (0, 1), BuildingBlock: MIFKUJ_clean_linker_0, # of connection points: 2
#     Edge 54, Type (0, 1), BuildingBlock: MIFKUJ_clean_linker_0, # of connection points: 2
#     Edge 55, Type (0, 1), BuildingBlock: MIFKUJ_clean_linker_0, # of connection points: 2
#     Edge 56, Type (0, 1), BuildingBlock: MIFKUJ_clean_linker_0, # of connection points: 2
#     Edge 57, Type (0, 1), BuildingBlock: MIFKUJ_clean_linker_0, # of connection points: 2
#     Edge 58, Type (0, 1), BuildingBlock: MIFKUJ_clean_linker_0, # of connection points: 2
#     Edge 59, Type (0, 1), BuildingBlock: MIFKUJ_clean_linker_0, # of connection points: 2
#     Edge 60, Type (0, 1), BuildingBlock: MIFKUJ_clean_linker_0, # of connection points: 2
#     Edge 61, Type (0, 1), BuildingBlock: MIFKUJ_clean_linker_0, # of connection points: 2
#     Edge 62, Type (0, 1), BuildingBlock: MIFKUJ_clean_linker_0, # of connection points: 2
#     Edge 63, Type (0, 1), BuildingBlock: MIFKUJ_clean_linker_0, # of connection points: 2
#     Edge 64, Type (0, 1), BuildingBlock: MIFKUJ_clean_linker_0, # of connection points: 2
#     Edge 65, Type (0, 1), BuildingBlock: MIFKUJ_clean_linker_0, # of connection points: 2
#     Edge 66, Type (0, 1), BuildingBlock: MIFKUJ_clean_linker_0, # of connection points: 2
#     Edge 67, Type (0, 1), BuildingBlock: MIFKUJ_clean_linker_0, # of connection points: 2
#     Edge 68, Type (0, 1), BuildingBlock: MIFKUJ_clean_linker_0, # of connection points: 2
#     Edge 69, Type (0, 1), BuildingBlock: MIFKUJ_clean_linker_0, # of connection points: 2
#     Edge 70, Type (0, 1), BuildingBlock: MIFKUJ_clean_linker_0, # of connection points: 2
#     Edge 71, Type (0, 1), BuildingBlock: MIFKUJ_clean_linker_0, # of connection points: 2
#     Edge 72, Type (0, 1), BuildingBlock: MIFKUJ_clean_linker_0, # of connection points: 2
#     Edge 73, Type (0, 1), BuildingBlock: MIFKUJ_clean_linker_0, # of connection points: 2
#     Edge 74, Type (0, 1), BuildingBlock: MIFKUJ_clean_linker_0, # of connection points: 2
#     Edge 75, Type (0, 1), BuildingBlock: MIFKUJ_clean_linker_0, # of connection points: 2
#     Edge 76, Type (0, 1), BuildingBlock: MIFKUJ_clean_linker_0, # of connection points: 2
#     Edge 77, Type (0, 1), BuildingBlock: MIFKUJ_clean_linker_0, # of connection points: 2
#     Edge 78, Type (0, 1), BuildingBlock: MIFKUJ_clean_linker_0, # of connection points: 2
#     Edge 79, Type (0, 1), BuildingBlock: MIFKUJ_clean_linker_0, # of connection points: 2
#     Edge 80, Type (0, 1), BuildingBlock: MIFKUJ_clean_linker_0, # of connection points: 2
#     Edge 81, Type (0, 1), BuildingBlock: MIFKUJ_clean_linker_0, # of connection points: 2
#     Edge 82, Type (0, 1), BuildingBlock: MIFKUJ_clean_linker_0, # of connection points: 2
#     Edge 83, Type (0, 1), BuildingBlock: MIFKUJ_clean_linker_0, # of connection points: 2
#     Edge 84, Type (0, 1), BuildingBlock: MIFKUJ_clean_linker_0, # of connection points: 2
#     Edge 85, Type (0, 1), BuildingBlock: MIFKUJ_clean_linker_0, # of connection points: 2
#     Edge 86, Type (0, 1), BuildingBlock: MIFKUJ_clean_linker_0, # of connection points: 2
#     Edge 87, Type (0, 1), BuildingBlock: MIFKUJ_clean_linker_0, # of connection points: 2
#     Edge 88, Type (0, 1), BuildingBlock: MIFKUJ_clean_linker_0, # of connection points: 2
#     Edge 89, Type (0, 1), BuildingBlock: MIFKUJ_clean_linker_0, # of connection points: 2
#     Edge 90, Type (0, 1), BuildingBlock: MIFKUJ_clean_linker_0, # of connection points: 2
#     Edge 91, Type (0, 1), BuildingBlock: MIFKUJ_clean_linker_0, # of connection points: 2
#     Edge 92, Type (0, 1), BuildingBlock: MIFKUJ_clean_linker_0, # of connection points: 2
#     Edge 93, Type (0, 1), BuildingBlock: MIFKUJ_clean_linker_0, # of connection points: 2
#     Edge 94, Type (0, 1), BuildingBlock: MIFKUJ_clean_linker_0, # of connection points: 2
#     Edge 95, Type (0, 1), BuildingBlock: MIFKUJ_clean_linker_0, # of connection points: 2
#     Edge 96, Type (0, 1), BuildingBlock: MIFKUJ_clean_linker_0, # of connection points: 2
#     Edge 97, Type (0, 1), BuildingBlock: MIFKUJ_clean_linker_0, # of connection points: 2
#     Edge 98, Type (0, 1), BuildingBlock: MIFKUJ_clean_linker_0, # of connection points: 2
#     Edge 99, Type (0, 1), BuildingBlock: MIFKUJ_clean_linker_0, # of connection points: 2
#     Edge 100, Type (0, 1), BuildingBlock: MIFKUJ_clean_linker_0, # of connection points: 2
#     Edge 101, Type (0, 1), BuildingBlock: MIFKUJ_clean_linker_0, # of connection points: 2
#     Edge 102, Type (0, 1), BuildingBlock: MIFKUJ_clean_linker_0, # of connection points: 2
#     Edge 103, Type (0, 1), BuildingBlock: MIFKUJ_clean_linker_0, # of connection points: 2
#     Edge 104, Type (0, 1), BuildingBlock: MIFKUJ_clean_linker_0, # of connection points: 2
#     Edge 105, Type (0, 1), BuildingBlock: MIFKUJ_clean_linker_0, # of connection points: 2
#     Edge 106, Type (0, 1), BuildingBlock: MIFKUJ_clean_linker_0, # of connection points: 2
#     Edge 107, Type (0, 1), BuildingBlock: MIFKUJ_clean_linker_0, # of connection points: 2
# Relax obj value: 0.013
# Max RMSD: 0.036
# Mean RMSD: 0.036
data_MOF--net-ptr--node1-QUQFOY_clean_sbu_1--node2-MUDLON_clean_linker_0--edge1-MIFKUJ_clean_linker_0
_symmetry_space_group_name_H-M    P1
_symmetry_Int_Tables_number       1
_symmetry_cell_setting            triclinic
loop_
_symmetry_equiv_pos_as_xyz
'x, y, z'
_cell_length_a     130.93289
_cell_length_b     130.94368
_cell_length_c     79.108259
_cell_angle_alpha  90.001287
_cell_angle_beta   90.013334
_cell_angle_gamma 120.0101
loop_
_atom_site_label
_atom_site_type_symbol
_atom_site_fract_x
_atom_site_fract_y
_atom_site_fract_z
_atom_type_partial_charge
O0 O 0.01252 0.37798 0.03906 0.0
Cd1 Cd 0.0164 0.37084 0.01841 0.0
Cd2 Cd 0.9922 0.35944 0.01599 0.0
O3 O 0.99311 0.36706 0.03927 0.0
O4 O 0.03326 0.37546 0.02214 0.0
O5 O 0.01887 0.35691 0.0218 0.0
C6 C 0.02994 0.36445 0.02382 0.0
C7 C 0.97861 0.33953 0.01082 0.0
C8 C 0.00263 0.37507 0.04586 0.0
C9 C 0.00657 0.3767 0.98831 0.0
O10 O 0.99656 0.3704 0.99522 0.0
O11 O 0.01579 0.37745 0.99488 0.0
O12 O 0.97536 0.34732 0.01194 0.0
O13 O 0.98963 0.34297 0.01329 0.0
O14 O 0.63212 0.63746 0.03928 0.0
Cd15 Cd 0.63698 0.64826 0.01835 0.0
Cd16 Cd 0.64959 0.63674 0.01159 0.0
O17 O 0.64256 0.62874 0.03463 0.0
O18 O 0.63171 0.65972 0.02419 0.0
O19 O 0.65039 0.66511 0.01974 0.0
C20 C 0.64259 0.66798 0.02377 0.0
C21 C 0.66955 0.64358 0.0058 0.0
C22 C 0.63533 0.63015 0.04368 0.0
C23 C 0.63058 0.63353 0.98676 0.0
O24 O 0.63842 0.63098 0.99095 0.0
O25 O 0.62875 0.6405 0.99578 0.0
O26 O 0.66192 0.63248 0.00637 0.0
O27 O 0.6659 0.65092 0.00891 0.0
O28 O 0.37802 0.01118 0.99375 0.0
Cd29 Cd 0.37019 0.01398 0.01453 0.0
Cd30 Cd 0.35873 0.99011 0.01549 0.0
O31 O 0.36715 0.99178 0.99265 0.0
O32 O 0.37369 0.03061 0.01245 0.0
O33 O 0.35565 0.01526 0.01067 0.0
C34 C 0.36259 0.02655 0.00996 0.0
C35 C 0.33863 0.97656 0.01904 0.0
C36 C 0.37528 0.00145 0.98658 0.0
C37 C 0.3753 0.00321 0.04427 0.0
O38 O 0.36889 0.9934 0.0369 0.0
O39 O 0.37647 0.01267 0.03799 0.0
O40 O 0.34633 0.9732 0.01776 0.0
O41 O 0.3423 0.9877 0.01762 0.0
O42 O 0.99729 0.62985 0.99414 0.0
Cd43 Cd 0.9938 0.63755 0.01447 0.0
Cd44 Cd 0.01775 0.64957 0.01556 0.0
O45 O 0.01653 0.64175 0.99236 0.0
O46 O 0.97699 0.63329 0.01128 0.0
O47 O 0.99177 0.65167 0.01042 0.0
C48 C 0.98059 0.64432 0.00896 0.0
C49 C 0.03123 0.66958 0.02021 0.0
C50 C 0.00705 0.63311 0.98666 0.0
C51 C 0.00458 0.63262 0.04414 0.0
O52 O 0.0143 0.63893 0.03651 0.0
O53 O 0.99507 0.63158 0.0382 0.0
O54 O 0.03462 0.66192 0.01861 0.0
O55 O 0.02012 0.66595 0.01843 0.0
O56 O 0.37944 0.36889 0.99321 0.0
Cd57 Cd 0.37276 0.35807 0.01398 0.0
Cd58 Cd 0.36074 0.37009 0.01744 0.0
O59 O 0.3685 0.37732 0.99429 0.0
O60 O 0.37705 0.34562 0.01015 0.0
O61 O 0.35859 0.34178 0.01118 0.0
C62 C 0.36596 0.33805 0.00892 0.0
C63 C 0.34077 0.36377 0.02223 0.0
C64 C 0.37641 0.37595 0.98707 0.0
C65 C 0.37855 0.37341 0.04451 0.0
O66 O 0.3714 0.37642 0.03863 0.0
O67 O 0.38007 0.3657 0.03697 0.0
O68 O 0.3486 0.3748 0.02119 0.0
O69 O 0.34422 0.35619 0.01993 0.0
O70 O 0.63009 0.99597 0.03445 0.0
Cd71 Cd 0.63834 0.99306 0.01421 0.0
Cd72 Cd 0.64878 0.0167 0.01267 0.0
O73 O 0.64142 0.01527 0.03628 0.0
O74 O 0.63412 0.97626 0.01686 0.0
O75 O 0.65244 0.99104 0.01872 0.0
C76 C 0.6451 0.97984 0.01955 0.0
C77 C 0.66872 0.03 0.00739 0.0
C78 C 0.63305 0.00563 0.04202 0.0
C79 C 0.63208 0.00284 0.98461 0.0
O80 O 0.6375 0.01267 0.9923 0.0
O81 O 0.63231 0.99389 0.99036 0.0
O82 O 0.66119 0.03352 0.00949 0.0
O83 O 0.66497 0.01885 0.00887 0.0
O84 O 0.68197 0.71431 0.36769 0.0
Cd85 Cd 0.68543 0.70598 0.34836 0.0
Cd86 Cd 0.66156 0.69393 0.34603 0.0
O87 O 0.66279 0.70187 0.36936 0.0
O88 O 0.70181 0.70909 0.35214 0.0
O89 O 0.6861 0.69124 0.35332 0.0
C90 C 0.69739 0.69795 0.35481 0.0
C91 C 0.64788 0.67392 0.3416 0.0
C92 C 0.67211 0.71076 0.37496 0.0
C93 C 0.67554 0.71079 0.31767 0.0
O94 O 0.66553 0.70442 0.32459 0.0
O95 O 0.68484 0.71193 0.32452 0.0
O96 O 0.64459 0.68164 0.34329 0.0
O97 O 0.65899 0.67748 0.34304 0.0
O98 O 0.29815 0.96983 0.37304 0.0
Cd99 Cd 0.30356 0.98049 0.35179 0.0
Cd100 Cd 0.31685 0.9695 0.34826 0.0
O101 O 0.31007 0.9625 0.37173 0.0
O102 O 0.29787 0.99179 0.35653 0.0
O103 O 0.31676 0.99744 0.35359 0.0
C104 C 0.30873 1.00014 0.35684 0.0
C105 C 0.33681 0.97653 0.34217 0.0
C106 C 0.30197 0.9634 0.37921 0.0
C107 C 0.29808 0.96465 0.32188 0.0
O108 O 0.3055 0.96212 0.32811 0.0
O109 O 0.29639 0.97247 0.32875 0.0
O110 O 0.32938 0.96543 0.34366 0.0
O111 O 0.33298 0.98379 0.34469 0.0
O112 O 0.04297 0.34274 0.32674 0.0
Cd113 Cd 0.03646 0.34694 0.34787 0.0
Cd114 Cd 0.02433 0.32275 0.35105 0.0
O115 O 0.03217 0.32332 0.32818 0.0
O116 O 0.04074 0.36374 0.34465 0.0
O117 O 0.0223 0.34903 0.34484 0.0
C118 C 0.02965 0.36018 0.34314 0.0
C119 C 0.00439 0.30903 0.35579 0.0
C120 C 0.03994 0.33259 0.32077 0.0
C121 C 0.04198 0.33693 0.37832 0.0
O122 O 0.03502 0.32689 0.37195 0.0
O123 O 0.04339 0.34627 0.37123 0.0
O124 O 0.01226 0.30589 0.35496 0.0
O125 O 0.00777 0.32003 0.35329 0.0
O126 O 0.6618 0.96162 0.3287 0.0
Cd127 Cd 0.65914 0.97007 0.34883 0.0
Cd128 Cd 0.68258 0.98231 0.34824 0.0
O129 O 0.68052 0.97477 0.32457 0.0
O130 O 0.64236 0.96616 0.3471 0.0
O131 O 0.65744 0.98425 0.34397 0.0
C132 C 0.64617 0.97712 0.34378 0.0
C133 C 0.69511 0.00252 0.35254 0.0
C134 C 0.67117 0.96551 0.31997 0.0
C135 C 0.67107 0.96581 0.37749 0.0
O136 O 0.68042 0.97165 0.36882 0.0
O137 O 0.66146 0.96507 0.37264 0.0
O138 O 0.6992 0.99558 0.34936 0.0
O139 O 0.68379 0.99805 0.35274 0.0
O140 O 0.04521 0.70359 0.32832 0.0
Cd141 Cd 0.03683 0.69293 0.34893 0.0
Cd142 Cd 0.02537 0.705 0.3483 0.0
O143 O 0.03237 0.70955 0.32423 0.0
O144 O 0.04064 0.67996 0.34787 0.0
O145 O 0.0226 0.67699 0.34436 0.0
C146 C 0.02968 0.67279 0.34455 0.0
C147 C 0.00537 0.69763 0.35378 0.0
C148 C 0.04139 0.70906 0.31944 0.0
C149 C 0.04209 0.70994 0.37699 0.0
O150 O 0.03667 0.71383 0.36812 0.0
O151 O 0.0421 0.70061 0.37257 0.0
O152 O 0.01221 0.70851 0.34964 0.0
O153 O 0.0098 0.69075 0.35421 0.0
O154 O 0.29947 0.33136 0.37056 0.0
Cd155 Cd 0.30616 0.32782 0.34902 0.0
Cd156 Cd 0.31826 0.35184 0.34735 0.0
O157 O 0.31065 0.35076 0.3706 0.0
O158 O 0.30163 0.31088 0.35129 0.0
O159 O 0.32015 0.32539 0.35179 0.0
C160 C 0.31266 0.31424 0.35303 0.0
C161 C 0.3384 0.36454 0.34249 0.0
C162 C 0.30267 0.34131 0.37738 0.0
C163 C 0.30064 0.33886 0.31974 0.0
O164 O 0.30744 0.34868 0.32684 0.0
O165 O 0.29943 0.32933 0.32586 0.0
O166 O 0.33126 0.3685 0.34477 0.0
O167 O 0.33417 0.35328 0.34358 0.0
O168 O 0.34758 0.04484 0.70145 0.0
Cd169 Cd 0.35138 0.03766 0.68091 0.0
Cd170 Cd 0.32721 0.02629 0.67789 0.0
O171 O 0.32817 0.03395 0.70125 0.0
O172 O 0.3682 0.04211 0.68448 0.0
O173 O 0.35364 0.02362 0.68451 0.0
C174 C 0.36476 0.03108 0.68634 0.0
C175 C 0.31381 0.00631 0.67303 0.0
C176 C 0.33763 0.04192 0.70804 0.0
C177 C 0.34179 0.04357 0.65043 0.0
O178 O 0.33163 0.03705 0.65682 0.0
O179 O 0.35093 0.04452 0.65757 0.0
O180 O 0.31036 0.01393 0.67443 0.0
O181 O 0.32492 0.00997 0.67499 0.0
O182 O 0.96213 0.30438 0.70032 0.0
Cd183 Cd 0.97102 0.31578 0.68061 0.0
Cd184 Cd 0.98336 0.30502 0.6824 0.0
O185 O 0.97621 0.30043 0.70646 0.0
O186 O 0.96742 0.32887 0.68221 0.0
O187 O 0.98531 0.33144 0.68597 0.0
C188 C 0.97838 0.33582 0.6859 0.0
C189 C 0.00355 0.31317 0.67729 0.0
C190 C 0.96644 0.29977 0.71004 0.0
C191 C 0.96698 0.29934 0.65286 0.0
O192 O 0.97233 0.29573 0.66243 0.0
O193 O 0.96668 0.30862 0.65666 0.0
O194 O 0.99699 0.3022 0.68123 0.0
O195 O 0.9987 0.31968 0.67686 0.0
O196 O 0.71263 0.67936 0.66211 0.0
Cd197 Cd 0.70581 0.68407 0.68215 0.0
Cd198 Cd 0.6936 0.65989 0.6868 0.0
O199 O 0.70123 0.66002 0.6637 0.0
O200 O 0.71005 0.70067 0.67725 0.0
O201 O 0.6916 0.68609 0.6788 0.0
C202 C 0.69895 0.69713 0.67609 0.0
C203 C 0.67386 0.6457 0.69211 0.0
C204 C 0.70935 0.66912 0.65636 0.0
C205 C 0.71146 0.67534 0.71353 0.0
O206 O 0.70438 0.66505 0.70796 0.0
O207 O 0.71298 0.6844 0.70549 0.0
O208 O 0.68206 0.643 0.69173 0.0
O209 O 0.67678 0.6565 0.68887 0.0
O210 O 0.32849 0.29647 0.66065 0.0
Cd211 Cd 0.32547 0.30427 0.68128 0.0
Cd212 Cd 0.34911 0.31672 0.68071 0.0
O213 O 0.34728 0.3095 0.65686 0.0
O214 O 0.30844 0.29937 0.67917 0.0
O215 O 0.32271 0.31797 0.67763 0.0
C216 C 0.31159 0.31028 0.67671 0.0
C217 C 0.36171 0.33685 0.68571 0.0
C218 C 0.3379 0.30036 0.65202 0.0
C219 C 0.3375 0.29959 0.70941 0.0
O220 O 0.34686 0.30572 0.70087 0.0
O221 O 0.32782 0.29877 0.70473 0.0
O222 O 0.36575 0.3299 0.68231 0.0
O223 O 0.35041 0.33244 0.68571 0.0
O224 O 0.71235 0.03479 0.66084 0.0
Cd225 Cd 0.7047 0.02457 0.68203 0.0
Cd226 Cd 0.69263 0.03613 0.6809 0.0
O227 O 0.69965 0.04094 0.65686 0.0
O228 O 0.70943 0.01229 0.68047 0.0
O229 O 0.69088 0.00809 0.67897 0.0
C230 C 0.69848 0.00456 0.67817 0.0
C231 C 0.67252 0.02814 0.68624 0.0
C232 C 0.70856 0.0403 0.65196 0.0
C233 C 0.70983 0.04196 0.7095 0.0
O234 O 0.70379 0.0452 0.70075 0.0
O235 O 0.71044 0.03292 0.70518 0.0
O236 O 0.67908 0.03907 0.68214 0.0
O237 O 0.67729 0.02156 0.68675 0.0
O238 O 0.96393 0.66436 0.70501 0.0
Cd239 Cd 0.96875 0.65808 0.68449 0.0
Cd240 Cd 0.98126 0.68199 0.67669 0.0
O241 O 0.97391 0.68339 0.69926 0.0
O242 O 0.96334 0.64141 0.69086 0.0
O243 O 0.98208 0.65453 0.68656 0.0
C244 C 0.97419 0.64393 0.69077 0.0
C245 C 1.00135 0.69479 0.6714 0.0
C246 C 0.96687 0.67493 0.70874 0.0
C247 C 0.96236 0.66564 0.65218 0.0
O248 O 0.97044 0.67609 0.65562 0.0
O249 O 0.96028 0.65712 0.66199 0.0
O250 O 0.99381 0.69837 0.67088 0.0
O251 O 0.99753 0.68389 0.67533 0.0
H252 H 0.23375 0.36251 0.15195 0.0
N253 N 0.2131 0.34653 0.13928 0.0
H254 H 0.24412 0.36031 0.17625 0.0
H255 H 0.2038 0.32818 0.16211 0.0
H256 H 0.214 0.32613 0.18668 0.0
H257 H 0.21592 0.32757 0.13304 0.0
H258 H 0.22912 0.32686 0.11191 0.0
H259 H 0.22172 0.36047 0.11241 0.0
H260 H 0.23425 0.35947 0.09037 0.0
H261 H 0.20504 0.36147 0.14094 0.0
H262 H 0.19373 0.32463 0.13547 0.0
H263 H 0.1846 0.35702 0.13971 0.0
H264 H 0.17311 0.31985 0.13548 0.0
H265 H 0.12985 0.34596 0.15406 0.0
H266 H 0.11998 0.34732 0.17925 0.0
H267 H 0.10486 0.30982 0.18735 0.0
H268 H 0.11551 0.30878 0.16266 0.0
H269 H 0.10794 0.31048 0.12608 0.0
H270 H 0.09618 0.31472 0.10626 0.0
H271 H 0.12408 0.35106 0.10372 0.0
H272 H 0.13581 0.34673 0.12369 0.0
H273 H 0.14719 0.34497 0.1557 0.0
H274 H 0.16745 0.3495 0.15499 0.0
H275 H 0.15788 0.32022 0.12096 0.0
N276 N 0.12807 0.32586 0.14061 0.0
H277 H 0.13725 0.31522 0.12271 0.0
C278 C 0.21797 0.34562 0.15523 0.0
C279 C 0.2293 0.35464 0.15967 0.0
C280 C 0.23523 0.35334 0.17343 0.0
C281 C 0.22985 0.34303 0.18323 0.0
C282 C 0.21829 0.33418 0.17933 0.0
C283 C 0.21244 0.33539 0.16531 0.0
C284 C 0.21809 0.34425 0.1245 0.0
C285 C 0.21974 0.33445 0.12358 0.0
C286 C 0.22727 0.33404 0.11137 0.0
C287 C 0.23308 0.34329 0.09962 0.0
C288 C 0.23032 0.3524 0.09955 0.0
C289 C 0.22301 0.35292 0.11197 0.0
C290 C 0.20087 0.3434 0.13859 0.0
C291 C 0.19807 0.35238 0.1397 0.0
C292 C 0.18634 0.34977 0.13914 0.0
C293 C 0.17705 0.33803 0.13772 0.0
C294 C 0.17994 0.32902 0.1364 0.0
C295 C 0.19174 0.33169 0.13663 0.0
C296 C 0.12361 0.32726 0.15664 0.0
C297 C 0.12472 0.3381 0.16154 0.0
C298 C 0.11886 0.33882 0.17585 0.0
C299 C 0.11145 0.32866 0.18535 0.0
C300 C 0.11059 0.31789 0.1806 0.0
C301 C 0.11666 0.31724 0.16645 0.0
C302 C 0.12272 0.32824 0.12634 0.0
C303 C 0.11164 0.31927 0.12088 0.0
C304 C 0.10491 0.32174 0.1097 0.0
C305 C 0.10917 0.33324 0.10361 0.0
C306 C 0.12061 0.3421 0.10818 0.0
C307 C 0.12732 0.33964 0.11956 0.0
C308 C 0.14049 0.32957 0.13938 0.0
C309 C 0.14929 0.33944 0.14808 0.0
C310 C 0.16107 0.34214 0.14752 0.0
C311 C 0.16446 0.33524 0.13795 0.0
C312 C 0.15567 0.32562 0.1288 0.0
C313 C 0.14386 0.32281 0.12962 0.0
H314 H 0.69937 0.80889 0.15742 0.0
N315 N 0.68178 0.8051 0.13685 0.0
H316 H 0.69857 0.79726 0.18202 0.0
H317 H 0.66172 0.78746 0.15157 0.0
H318 H 0.66062 0.7765 0.17686 0.0
H319 H 0.66024 0.7925 0.12133 0.0
H320 H 0.6549 0.7771 0.10005 0.0
H321 H 0.69616 0.79979 0.12052 0.0
H322 H 0.6909 0.78417 0.09976 0.0
H323 H 0.69528 0.8267 0.12471 0.0
H324 H 0.66137 0.80435 0.14761 0.0
H325 H 0.69113 0.84296 0.12389 0.0
H326 H 0.6574 0.82054 0.14767 0.0
H327 H 0.68455 0.8896 0.15024 0.0
H328 H 0.68795 0.90167 0.17536 0.0
H329 H 0.65145 0.87939 0.18978 0.0
H330 H 0.64834 0.86707 0.16495 0.0
H331 H 0.64499 0.8714 0.1276 0.0
H332 H 0.64491 0.88463 0.10595 0.0
H333 H 0.68228 0.89871 0.09814 0.0
H334 H 0.68221 0.88543 0.12009 0.0
H335 H 0.6853 0.87289 0.14253 0.0
H336 H 0.68955 0.85678 0.14118 0.0
H337 H 0.65276 0.83233 0.13077 0.0
N338 N 0.66347 0.87092 0.14012 0.0
H339 H 0.64855 0.84848 0.13307 0.0
C340 C 0.68064 0.79927 0.15281 0.0
C341 C 0.69088 0.80194 0.16183 0.0
C342 C 0.69037 0.79527 0.17595 0.0
C343 C 0.67951 0.78583 0.18155 0.0
C344 C 0.66918 0.78351 0.17284 0.0
C345 C 0.66975 0.79 0.1585 0.0
C346 C 0.67866 0.79736 0.12244 0.0
C347 C 0.66703 0.79093 0.11636 0.0
C348 C 0.66397 0.78203 0.1043 0.0
C349 C 0.67244 0.77929 0.09821 0.0
C350 C 0.68416 0.7861 0.10387 0.0
C351 C 0.6872 0.79503 0.11579 0.0
C352 C 0.67876 0.81431 0.13634 0.0
C353 C 0.68697 0.82532 0.12964 0.0
C354 C 0.6846 0.83463 0.12931 0.0
C355 C 0.67393 0.83315 0.1358 0.0
C356 C 0.66564 0.82203 0.14233 0.0
C357 C 0.66798 0.8127 0.14249 0.0
C358 C 0.66619 0.8773 0.15585 0.0
C359 C 0.67737 0.8871 0.15904 0.0
C360 C 0.67925 0.89412 0.17333 0.0
C361 C 0.66996 0.89159 0.1846 0.0
C362 C 0.65888 0.88155 0.18158 0.0
C363 C 0.65705 0.87448 0.16738 0.0
C364 C 0.66355 0.87743 0.12542 0.0
C365 C 0.65309 0.87716 0.12092 0.0
C366 C 0.65308 0.88472 0.1085 0.0
C367 C 0.6636 0.89278 0.10028 0.0
C368 C 0.67405 0.89271 0.10435 0.0
C369 C 0.67402 0.88508 0.11681 0.0
C370 C 0.66653 0.86184 0.13816 0.0
C371 C 0.67814 0.86408 0.14002 0.0
C372 C 0.68058 0.85482 0.13908 0.0
C373 C 0.67149 0.84316 0.13601 0.0
C374 C 0.65996 0.84109 0.13356 0.0
C375 C 0.65753 0.85032 0.13471 0.0
H376 H 0.12807 0.78462 0.14863 0.0
N377 N 0.12804 0.80476 0.13924 0.0
H378 H 0.11801 0.77226 0.17307 0.0
H379 H 0.11823 0.80994 0.16493 0.0
H380 H 0.10831 0.79765 0.18973 0.0
H381 H 0.10701 0.79833 0.12625 0.0
H382 H 0.09627 0.78315 0.1051 0.0
H383 H 0.13746 0.79433 0.11938 0.0
H384 H 0.12703 0.77951 0.0975 0.0
H385 H 0.14691 0.80444 0.15438 0.0
H386 H 0.13741 0.82493 0.12214 0.0
H387 H 0.16723 0.82022 0.1544 0.0
H388 H 0.15805 0.84052 0.12091 0.0
H389 H 0.23137 0.87102 0.15732 0.0
H390 H 0.241 0.88315 0.18218 0.0
H391 H 0.21423 0.89324 0.18433 0.0
H392 H 0.20491 0.88137 0.15926 0.0
H393 H 0.21528 0.89049 0.13171 0.0
H394 H 0.22814 0.90364 0.10969 0.0
H395 H 0.23527 0.87639 0.09277 0.0
H396 H 0.22307 0.86368 0.11574 0.0
H397 H 0.20501 0.84625 0.14202 0.0
H398 H 0.18463 0.83023 0.14017 0.0
H399 H 0.17312 0.85587 0.13535 0.0
N400 N 0.21302 0.86924 0.14049 0.0
H401 H 0.19367 0.8717 0.1357 0.0
C402 C 0.12378 0.79819 0.15483 0.0
C403 C 0.12387 0.7876 0.15756 0.0
C404 C 0.11811 0.78052 0.17153 0.0
C405 C 0.11228 0.78394 0.18318 0.0
C406 C 0.11276 0.79483 0.18097 0.0
C407 C 0.11841 0.80185 0.16685 0.0
C408 C 0.12301 0.79752 0.12438 0.0
C409 C 0.1115 0.79443 0.11972 0.0
C410 C 0.10539 0.78574 0.10755 0.0
C411 C 0.11071 0.77998 0.09957 0.0
C412 C 0.12254 0.78358 0.10358 0.0
C413 C 0.1286 0.79219 0.11594 0.0
C414 C 0.14046 0.81353 0.13845 0.0
C415 C 0.14916 0.81227 0.14711 0.0
C416 C 0.16094 0.82135 0.14694 0.0
C417 C 0.16445 0.83181 0.13771 0.0
C418 C 0.15576 0.83281 0.12855 0.0
C419 C 0.14394 0.82383 0.12905 0.0
C420 C 0.21739 0.87518 0.15645 0.0
C421 C 0.22749 0.8757 0.16337 0.0
C422 C 0.23295 0.88262 0.1776 0.0
C423 C 0.22842 0.88922 0.18527 0.0
C424 C 0.21806 0.88841 0.17862 0.0
C425 C 0.21262 0.88148 0.16434 0.0
C426 C 0.21846 0.87618 0.12559 0.0
C427 C 0.21954 0.88732 0.12319 0.0
C428 C 0.22686 0.89482 0.11042 0.0
C429 C 0.23302 0.89123 0.09957 0.0
C430 C 0.23103 0.87966 0.10119 0.0
C431 C 0.22393 0.87229 0.11416 0.0
C432 C 0.20083 0.86013 0.13937 0.0
C433 C 0.19804 0.84835 0.1405 0.0
C434 C 0.18633 0.8392 0.1396 0.0
C435 C 0.17704 0.84163 0.13786 0.0
C436 C 0.17994 0.85354 0.13652 0.0
C437 C 0.19171 0.86268 0.13703 0.0
H438 H 0.35214 0.2173 0.86724 0.0
N439 N 0.33297 0.20461 0.88762 0.0
H440 H 0.35281 0.22869 0.84245 0.0
H441 H 0.31466 0.20323 0.87119 0.0
H442 H 0.31499 0.21383 0.84561 0.0
H443 H 0.31835 0.20436 0.91112 0.0
H444 H 0.32218 0.21995 0.93155 0.0
H445 H 0.35464 0.2237 0.89506 0.0
H446 H 0.3586 0.23902 0.91559 0.0
H447 H 0.35467 0.20647 0.89246 0.0
H448 H 0.31784 0.1818 0.88401 0.0
H449 H 0.35877 0.19031 0.89367 0.0
H450 H 0.32191 0.16551 0.88424 0.0
H451 H 0.36623 0.13507 0.87156 0.0
H452 H 0.36271 0.12257 0.84687 0.0
H453 H 0.32645 0.11466 0.84549 0.0
H454 H 0.33006 0.12697 0.87062 0.0
H455 H 0.32984 0.11963 0.89985 0.0
H456 H 0.32764 0.1056 0.92172 0.0
H457 H 0.36524 0.12551 0.93091 0.0
H458 H 0.36713 0.1399 0.90975 0.0
H459 H 0.36439 0.16004 0.87758 0.0
H460 H 0.36033 0.17633 0.8772 0.0
H461 H 0.32671 0.15393 0.90129 0.0
N462 N 0.35065 0.13823 0.88862 0.0
H463 H 0.3306 0.13762 0.90074 0.0
C464 C 0.33336 0.20962 0.87126 0.0
C465 C 0.34401 0.21651 0.86258 0.0
C466 C 0.34434 0.22293 0.84824 0.0
C467 C 0.33397 0.22241 0.8421 0.0
C468 C 0.32322 0.2148 0.85021 0.0
C469 C 0.32296 0.20859 0.8647 0.0
C470 C 0.33615 0.21274 0.90158 0.0
C471 C 0.32721 0.21177 0.91237 0.0
C472 C 0.32943 0.2207 0.92403 0.0
C473 C 0.34068 0.23082 0.92508 0.0
C474 C 0.34979 0.23145 0.91491 0.0
C475 C 0.34755 0.22255 0.90325 0.0
C476 C 0.33586 0.19534 0.88839 0.0
C477 C 0.34743 0.19759 0.89087 0.0
C478 C 0.34979 0.18827 0.89136 0.0
C479 C 0.34068 0.17651 0.8891 0.0
C480 C 0.32914 0.17437 0.88642 0.0
C481 C 0.32679 0.18367 0.88614 0.0
C482 C 0.34848 0.132 0.87283 0.0
C483 C 0.35759 0.13077 0.86573 0.0
C484 C 0.35554 0.12365 0.85157 0.0
C485 C 0.34428 0.11759 0.84411 0.0
C486 C 0.33519 0.11907 0.85101 0.0
C487 C 0.33725 0.12619 0.86529 0.0
C488 C 0.34867 0.13099 0.90336 0.0
C489 C 0.33753 0.12125 0.90704 0.0
C490 C 0.33633 0.11307 0.91939 0.0
C491 C 0.34628 0.11427 0.92805 0.0
C492 C 0.35732 0.12432 0.92479 0.0
C493 C 0.35846 0.13258 0.91265 0.0
C494 C 0.34792 0.14763 0.8893 0.0
C495 C 0.35616 0.15869 0.8828 0.0
C496 C 0.35384 0.16802 0.88272 0.0
C497 C 0.3432 0.16654 0.88931 0.0
C498 C 0.33493 0.15541 0.89588 0.0
C499 C 0.33721 0.14603 0.89575 0.0
H500 H 0.78357 0.14342 0.86387 0.0
N501 N 0.79634 0.14036 0.88722 0.0
H502 H 0.77414 0.1311 0.83915 0.0
H503 H 0.8002 0.12297 0.87519 0.0
H504 H 0.79156 0.11115 0.84998 0.0
H505 H 0.79944 0.12449 0.90578 0.0
H506 H 0.78518 0.1102 0.92589 0.0
H507 H 0.77791 0.14062 0.90046 0.0
H508 H 0.76373 0.12656 0.92071 0.0
H509 H 0.80395 0.16304 0.89263 0.0
H510 H 0.81613 0.13815 0.88729 0.0
H511 H 0.82432 0.17911 0.89548 0.0
H512 H 0.83646 0.15411 0.88897 0.0
H513 H 0.88193 0.22576 0.88246 0.0
H514 H 0.89192 0.23777 0.85767 0.0
H515 H 0.8991 0.21084 0.83987 0.0
H516 H 0.88943 0.19896 0.86514 0.0
H517 H 0.90189 0.21097 0.90452 0.0
H518 H 0.91283 0.22588 0.92597 0.0
H519 H 0.8827 0.23056 0.93346 0.0
H520 H 0.87203 0.21594 0.91143 0.0
H521 H 0.86187 0.20654 0.88031 0.0
H522 H 0.84141 0.1907 0.88011 0.0
H523 H 0.85153 0.16797 0.90588 0.0
N524 N 0.88099 0.20508 0.89155 0.0
H525 H 0.87213 0.18372 0.90501 0.0
C526 C 0.79275 0.1343 0.87124 0.0
C527 C 0.78551 0.13653 0.86065 0.0
C528 C 0.78015 0.12946 0.84648 0.0
C529 C 0.78201 0.12003 0.84249 0.0
C530 C 0.78972 0.11817 0.85275 0.0
C531 C 0.79491 0.12512 0.86708 0.0
C532 C 0.78967 0.13359 0.9016 0.0
C533 C 0.7918 0.12515 0.90927 0.0
C534 C 0.78365 0.117 0.92078 0.0
C535 C 0.77323 0.11714 0.92467 0.0
C536 C 0.77155 0.12608 0.91774 0.0
C537 C 0.77969 0.1342 0.90633 0.0
C538 C 0.80847 0.14942 0.88952 0.0
C539 C 0.81105 0.16107 0.89198 0.0
C540 C 0.82273 0.17025 0.89344 0.0
C541 C 0.83217 0.16802 0.89227 0.0
C542 C 0.82951 0.15624 0.89013 0.0
C543 C 0.8178 0.14704 0.88894 0.0
C544 C 0.8851 0.21149 0.87582 0.0
C545 C 0.88557 0.22236 0.87323 0.0
C546 C 0.89128 0.22924 0.85907 0.0
C547 C 0.89635 0.22526 0.84701 0.0
C548 C 0.89523 0.21408 0.84901 0.0
C549 C 0.88972 0.2073 0.86338 0.0
C550 C 0.88616 0.21227 0.9064 0.0
C551 C 0.89758 0.21504 0.91108 0.0
C552 C 0.9038 0.22357 0.9234 0.0
C553 C 0.89871 0.22953 0.93146 0.0
C554 C 0.887 0.22631 0.92734 0.0
C555 C 0.8808 0.21782 0.91488 0.0
C556 C 0.86862 0.19625 0.89243 0.0
C557 C 0.85972 0.19815 0.88585 0.0
C558 C 0.84793 0.18905 0.88592 0.0
C559 C 0.8447 0.17791 0.89287 0.0
C560 C 0.85362 0.17626 0.90002 0.0
C561 C 0.86541 0.1853 0.89971 0.0
H562 H 0.80364 0.68783 0.87812 0.0
N563 N 0.80037 0.66668 0.88933 0.0
H564 H 0.79374 0.69077 0.85399 0.0
H565 H 0.78812 0.65105 0.86548 0.0
H566 H 0.77854 0.65394 0.84086 0.0
H567 H 0.7826 0.64755 0.90298 0.0
H568 H 0.7684 0.64672 0.92373 0.0
H569 H 0.80271 0.68533 0.90818 0.0
H570 H 0.78887 0.6846 0.92933 0.0
H571 H 0.81951 0.68852 0.89552 0.0
H572 H 0.80885 0.65219 0.88584 0.0
H573 H 0.83999 0.69335 0.89764 0.0
H574 H 0.82943 0.65701 0.88666 0.0
H575 H 0.90575 0.70449 0.88041 0.0
H576 H 0.91566 0.70402 0.85448 0.0
H577 H 0.88582 0.66989 0.84229 0.0
H578 H 0.87617 0.67034 0.86854 0.0
H579 H 0.88405 0.66597 0.89504 0.0
H580 H 0.89463 0.66044 0.91496 0.0
H581 H 0.90771 0.69384 0.94059 0.0
H582 H 0.89728 0.69944 0.92018 0.0
H583 H 0.87676 0.70104 0.88306 0.0
H584 H 0.85619 0.69618 0.88223 0.0
H585 H 0.84574 0.66183 0.90324 0.0
N586 N 0.88547 0.68754 0.89282 0.0
H587 H 0.86616 0.66649 0.90294 0.0
C588 C 0.79651 0.66917 0.87363 0.0
C589 C 0.79832 0.68044 0.86992 0.0
C590 C 0.79267 0.68211 0.85603 0.0
C591 C 0.78517 0.67254 0.84559 0.0
C592 C 0.78401 0.66144 0.84884 0.0
C593 C 0.78958 0.65978 0.86276 0.0
C594 C 0.79378 0.66644 0.90407 0.0
C595 C 0.78417 0.65562 0.90905 0.0
C596 C 0.77606 0.65519 0.92094 0.0
C597 C 0.7774 0.66561 0.92817 0.0
C598 C 0.78742 0.67641 0.92383 0.0
C599 C 0.79549 0.67683 0.91184 0.0
C600 C 0.81258 0.6699 0.89089 0.0
C601 C 0.82154 0.68155 0.89396 0.0
C602 C 0.83336 0.68433 0.89488 0.0
C603 C 0.83651 0.67559 0.89235 0.0
C604 C 0.82744 0.66397 0.8891 0.0
C605 C 0.81565 0.66118 0.88848 0.0
C606 C 0.89025 0.68752 0.87638 0.0
C607 C 0.9013 0.69701 0.87197 0.0
C608 C 0.90692 0.69672 0.85711 0.0
C609 C 0.90157 0.68689 0.84628 0.0
C610 C 0.89028 0.67752 0.85046 0.0
C611 C 0.88469 0.67781 0.86538 0.0
C612 C 0.88987 0.68317 0.90611 0.0
C613 C 0.88901 0.67203 0.9051 0.0
C614 C 0.89505 0.66885 0.91659 0.0
C615 C 0.90211 0.67672 0.92935 0.0
C616 C 0.90251 0.68763 0.93078 0.0
C617 C 0.89645 0.6908 0.91927 0.0
C618 C 0.87314 0.68426 0.89317 0.0
C619 C 0.87 0.69246 0.88748 0.0
C620 C 0.8582 0.68968 0.88716 0.0
C621 C 0.84917 0.6786 0.89277 0.0
C622 C 0.85235 0.67038 0.89856 0.0
C623 C 0.86416 0.67311 0.89858 0.0
H624 H 0.77469 0.63844 0.49011 0.0
N625 N 0.7921 0.65626 0.47354 0.0
H626 H 0.76482 0.63942 0.51575 0.0
H627 H 0.79913 0.67572 0.4932 0.0
H628 H 0.78886 0.67708 0.51819 0.0
H629 H 0.79666 0.67822 0.46426 0.0
H630 H 0.78556 0.68263 0.44362 0.0
H631 H 0.7769 0.64144 0.4509 0.0
H632 H 0.76593 0.64578 0.42974 0.0
H633 H 0.79684 0.63979 0.48365 0.0
H634 H 0.81316 0.67479 0.46262 0.0
H635 H 0.81569 0.64034 0.48311 0.0
H636 H 0.832 0.67519 0.4609 0.0
H637 H 0.87584 0.64082 0.47636 0.0
H638 H 0.88694 0.64069 0.50127 0.0
H639 H 0.88362 0.6691 0.52303 0.0
H640 H 0.87289 0.66948 0.49796 0.0
H641 H 0.88749 0.67835 0.47018 0.0
H642 H 0.90439 0.68628 0.45085 0.0
H643 H 0.88614 0.65505 0.4199 0.0
H644 H 0.86939 0.64714 0.43943 0.0
H645 H 0.8469 0.63835 0.46458 0.0
H646 H 0.82857 0.63889 0.46486 0.0
H647 H 0.84832 0.67637 0.47509 0.0
N648 N 0.86861 0.65599 0.4693 0.0
H649 H 0.86669 0.67575 0.47354 0.0
C650 C 0.78749 0.657 0.48971 0.0
C651 C 0.77792 0.64684 0.49644 0.0
C652 C 0.77221 0.64748 0.51096 0.0
C653 C 0.77584 0.65838 0.51893 0.0
C654 C 0.78581 0.66851 0.51251 0.0
C655 C 0.79165 0.6678 0.4981 0.0
C656 C 0.78758 0.65946 0.45911 0.0
C657 C 0.79016 0.67113 0.45653 0.0
C658 C 0.7838 0.67364 0.44465 0.0
C659 C 0.77473 0.66454 0.43512 0.0
C660 C 0.77269 0.65298 0.43706 0.0
C661 C 0.77904 0.65049 0.44897 0.0
C662 C 0.80351 0.65713 0.473 0.0
C663 C 0.80451 0.64756 0.47874 0.0
C664 C 0.81532 0.64787 0.47824 0.0
C665 C 0.82545 0.65773 0.47164 0.0
C666 C 0.82447 0.66746 0.46615 0.0
C667 C 0.81363 0.66721 0.46697 0.0
C668 C 0.8734 0.65503 0.48528 0.0
C669 C 0.87732 0.64686 0.48665 0.0
C670 C 0.8837 0.64685 0.50079 0.0
C671 C 0.88612 0.65489 0.514 0.0
C672 C 0.88177 0.66275 0.51304 0.0
C673 C 0.87559 0.66293 0.4987 0.0
C674 C 0.87723 0.66209 0.45625 0.0
C675 C 0.88701 0.67337 0.45899 0.0
C676 C 0.89669 0.67785 0.44801 0.0
C677 C 0.89665 0.67122 0.43398 0.0
C678 C 0.88643 0.66039 0.43054 0.0
C679 C 0.87684 0.65587 0.44164 0.0
C680 C 0.8581 0.65692 0.46932 0.0
C681 C 0.84723 0.64667 0.46681 0.0
C682 C 0.83675 0.64701 0.46716 0.0
C683 C 0.83683 0.65764 0.47036 0.0
C684 C 0.84783 0.66802 0.47253 0.0
C685 C 0.85837 0.66768 0.47185 0.0
H686 H 0.36522 0.13986 0.48662 0.0
N687 N 0.3466 0.13747 0.46986 0.0
H688 H 0.36534 0.12868 0.51119 0.0
H689 H 0.32731 0.12236 0.48876 0.0
H690 H 0.32732 0.11212 0.5142 0.0
H691 H 0.3243 0.12274 0.45782 0.0
H692 H 0.31877 0.10697 0.43717 0.0
H693 H 0.36096 0.13357 0.45089 0.0
H694 H 0.35557 0.11758 0.43072 0.0
H695 H 0.36145 0.15948 0.46036 0.0
H696 H 0.32585 0.13703 0.47776 0.0
H697 H 0.35804 0.17622 0.45954 0.0
H698 H 0.32258 0.15365 0.47799 0.0
H699 H 0.35185 0.22311 0.48477 0.0
H700 H 0.35477 0.23489 0.51004 0.0
H701 H 0.31762 0.21357 0.52163 0.0
H702 H 0.31501 0.20143 0.49677 0.0
H703 H 0.31254 0.20539 0.4596 0.0
H704 H 0.31279 0.21882 0.43799 0.0
H705 H 0.35044 0.23369 0.43241 0.0
H706 H 0.35003 0.22017 0.4543 0.0
H707 H 0.35219 0.20619 0.4776 0.0
H708 H 0.35585 0.1897 0.47634 0.0
H709 H 0.31955 0.1666 0.4616 0.0
N710 N 0.33087 0.2051 0.47314 0.0
H711 H 0.31587 0.18308 0.46399 0.0
C712 C 0.34634 0.13224 0.48601 0.0
C713 C 0.35695 0.13395 0.49281 0.0
C714 C 0.35698 0.12754 0.50695 0.0
C715 C 0.34633 0.11938 0.51485 0.0
C716 C 0.33571 0.11809 0.50838 0.0
C717 C 0.33569 0.12425 0.49396 0.0
C718 C 0.34309 0.12942 0.4558 0.0
C719 C 0.33119 0.12187 0.45164 0.0
C720 C 0.32803 0.11274 0.43993 0.0
C721 C 0.3367 0.11087 0.43231 0.0
C722 C 0.34863 0.11878 0.43605 0.0
C723 C 0.35175 0.12794 0.44762 0.0
C724 C 0.34402 0.14699 0.46926 0.0
C725 C 0.35292 0.15818 0.46411 0.0
C726 C 0.35097 0.16777 0.4638 0.0
C727 C 0.34003 0.1664 0.46879 0.0
C728 C 0.33107 0.1551 0.4738 0.0
C729 C 0.333 0.1455 0.4739 0.0
C730 C 0.33321 0.21123 0.48904 0.0
C731 C 0.34442 0.22072 0.49303 0.0
C732 C 0.34603 0.22761 0.50739 0.0
C733 C 0.33643 0.22529 0.51791 0.0
C734 C 0.32529 0.21555 0.51408 0.0
C735 C 0.32374 0.20859 0.49984 0.0
C736 C 0.33122 0.21178 0.4585 0.0
C737 C 0.32078 0.21137 0.4534 0.0
C738 C 0.32097 0.21905 0.44102 0.0
C739 C 0.33165 0.22737 0.43343 0.0
C740 C 0.34209 0.22748 0.43812 0.0
C741 C 0.34187 0.21972 0.45054 0.0
C742 C 0.33366 0.19582 0.47119 0.0
C743 C 0.34501 0.19759 0.4742 0.0
C744 C 0.34711 0.1881 0.47328 0.0
C745 C 0.33798 0.17668 0.46902 0.0
C746 C 0.32675 0.17512 0.46537 0.0
C747 C 0.32464 0.18456 0.46655 0.0
H748 H 0.80142 0.10638 0.4854 0.0
N749 N 0.80521 0.12665 0.47251 0.0
H750 H 0.78864 0.09553 0.5093 0.0
H751 H 0.79497 0.13512 0.4947 0.0
H752 H 0.78254 0.12448 0.51887 0.0
H753 H 0.78577 0.12807 0.46374 0.0
H754 H 0.77159 0.11661 0.44159 0.0
H755 H 0.80777 0.11386 0.44874 0.0
H756 H 0.7935 0.10201 0.42701 0.0
H757 H 0.8282 0.13454 0.47334 0.0
H758 H 0.80289 0.14632 0.47029 0.0
H759 H 0.8443 0.15496 0.4725 0.0
H760 H 0.81878 0.16676 0.47075 0.0
H761 H 0.88948 0.2107 0.48481 0.0
H762 H 0.90148 0.22048 0.50963 0.0
H763 H 0.87719 0.23231 0.52365 0.0
H764 H 0.86513 0.22234 0.49875 0.0
H765 H 0.87589 0.23224 0.46055 0.0
H766 H 0.89083 0.24291 0.43904 0.0
H767 H 0.89575 0.21282 0.43308 0.0
H768 H 0.88112 0.20244 0.45522 0.0
H769 H 0.87031 0.19239 0.48839 0.0
H770 H 0.85448 0.17207 0.48787 0.0
H771 H 0.83397 0.18196 0.45598 0.0
N772 N 0.86999 0.21153 0.47418 0.0
H773 H 0.84965 0.20254 0.45765 0.0
C774 C 0.7993 0.1216 0.48829 0.0
C775 C 0.79751 0.11048 0.49286 0.0
C776 C 0.79017 0.10428 0.5064 0.0
C777 C 0.78462 0.1092 0.51583 0.0
C778 C 0.78681 0.12056 0.51181 0.0
C779 C 0.79397 0.12667 0.49801 0.0
C780 C 0.79789 0.12188 0.45775 0.0
C781 C 0.78771 0.12273 0.45537 0.0
C782 C 0.77951 0.11602 0.44284 0.0
C783 C 0.78132 0.10828 0.43254 0.0
C784 C 0.79185 0.10798 0.43445 0.0
C785 C 0.80004 0.11473 0.4469 0.0
C786 C 0.81436 0.13887 0.47214 0.0
C787 C 0.82614 0.14158 0.47272 0.0
C788 C 0.83533 0.1533 0.47239 0.0
C789 C 0.83295 0.16266 0.47173 0.0
C790 C 0.82106 0.15988 0.47104 0.0
C791 C 0.81188 0.14812 0.47103 0.0
C792 C 0.87637 0.2158 0.48991 0.0
C793 C 0.88663 0.21524 0.49332 0.0
C794 C 0.89354 0.22092 0.50748 0.0
C795 C 0.89037 0.22728 0.51852 0.0
C796 C 0.87984 0.22741 0.51547 0.0
C797 C 0.87294 0.22174 0.50127 0.0
C798 C 0.87733 0.21657 0.45944 0.0
C799 C 0.88003 0.22788 0.45433 0.0
C800 C 0.88857 0.23395 0.44196 0.0
C801 C 0.89458 0.22877 0.43427 0.0
C802 C 0.89146 0.21717 0.43888 0.0
C803 C 0.88298 0.21115 0.45141 0.0
C804 C 0.86113 0.19915 0.47327 0.0
C805 C 0.86242 0.19029 0.48137 0.0
C806 C 0.85331 0.17852 0.48089 0.0
C807 C 0.84279 0.17523 0.47195 0.0
C808 C 0.84174 0.18409 0.46338 0.0
C809 C 0.85076 0.19588 0.46415 0.0
H810 H 0.0208 0.5577 0.21049 0.0
N811 N 1.00101 0.54021 0.22563 0.0
H812 H 0.02135 0.56888 0.18549 0.0
H813 H 0.98331 0.53515 0.20457 0.0
H814 H 0.98379 0.54587 0.17898 0.0
H815 H 0.98406 0.54089 0.24308 0.0
H816 H 0.98633 0.55553 0.26425 0.0
H817 H 0.02182 0.55651 0.24043 0.0
H818 H 0.02419 0.57126 0.26124 0.0
H819 H 0.02288 0.54223 0.22529 0.0
H820 H 0.98565 0.51732 0.22724 0.0
H821 H 0.02713 0.52612 0.22634 0.0
H822 H 0.98968 0.50102 0.22708 0.0
H823 H 0.0335 0.46961 0.20736 0.0
H824 H 0.02935 0.45696 0.18272 0.0
H825 H 0.9937 0.45089 0.18141 0.0
H826 H 0.99791 0.46325 0.20664 0.0
H827 H 0.99777 0.45516 0.2359 0.0
H828 H 0.99563 0.44083 0.25732 0.0
H829 H 0.03332 0.46036 0.26583 0.0
H830 H 0.03517 0.475 0.24513 0.0
H831 H 0.03085 0.49475 0.21028 0.0
H832 H 0.02682 0.51104 0.21063 0.0
H833 H 0.99631 0.49034 0.24218 0.0
N834 N 0.01856 0.47369 0.22455 0.0
H835 H 1.0 0.47396 0.24085 0.0
C836 C 1.00196 0.54566 0.20947 0.0
C837 C 0.01272 0.555 0.2036 0.0
C838 C 0.01302 0.56135 0.18919 0.0
C839 C 0.00258 0.55841 0.18028 0.0
C840 C 0.99195 0.5486 0.18572 0.0
C841 C 0.99167 0.54236 0.2002 0.0
C842 C 0.00271 0.54752 0.24018 0.0
C843 C 0.99283 0.54732 0.24735 0.0
C844 C 0.99416 0.55577 0.25929 0.0
C845 C 0.00545 0.56466 0.26431 0.0
C846 C 0.01536 0.56448 0.25778 0.0
C847 C 0.01401 0.55602 0.2458 0.0
C848 C 0.00392 0.53098 0.22657 0.0
C849 C 0.01561 0.53329 0.22608 0.0
C850 C 0.018 0.52399 0.2264 0.0
C851 C 0.00876 0.51214 0.22681 0.0
C852 C 0.99707 0.50994 0.22716 0.0
C853 C 0.99472 0.51925 0.22713 0.0
C854 C 0.01608 0.46744 0.20872 0.0
C855 C 0.02486 0.46569 0.20155 0.0
C856 C 0.02245 0.45848 0.18741 0.0
C857 C 0.01117 0.45289 0.17994 0.0
C858 C 0.00243 0.45492 0.18691 0.0
C859 C 0.00485 0.46209 0.20123 0.0
C860 C 0.01665 0.46631 0.23913 0.0
C861 C 0.0055 0.45659 0.24284 0.0
C862 C 0.00433 0.44826 0.25492 0.0
C863 C 0.01431 0.44928 0.26327 0.0
C864 C 0.02537 0.45929 0.25996 0.0
C865 C 0.02649 0.4677 0.24809 0.0
C866 C 0.01584 0.48311 0.22556 0.0
C867 C 0.02328 0.49375 0.21724 0.0
C868 C 0.02101 0.50311 0.21761 0.0
C869 C 0.01125 0.50214 0.22653 0.0
C870 C 0.0038 0.49144 0.23494 0.0
C871 C 0.00599 0.482 0.23432 0.0
H872 H 0.57365 0.54 0.21486 0.0
N873 N 0.55291 0.53571 0.22666 0.0
H874 H 0.58349 0.5505 0.18895 0.0
H875 H 0.54308 0.54257 0.20181 0.0
H876 H 0.55277 0.55297 0.1757 0.0
H877 H 0.54902 0.5544 0.22816 0.0
H878 H 0.55866 0.57115 0.24749 0.0
H879 H 0.5648 0.53697 0.25459 0.0
H880 H 0.57436 0.55368 0.27422 0.0
H881 H 0.54786 0.5138 0.2208 0.0
H882 H 0.5316 0.53452 0.23263 0.0
H883 H 0.52857 0.49597 0.2203 0.0
H884 H 0.51223 0.51662 0.23315 0.0
H885 H 0.47573 0.44474 0.20567 0.0
H886 H 0.46449 0.43481 0.18026 0.0
H887 H 0.44993 0.45806 0.17961 0.0
H888 H 0.46082 0.46752 0.20538 0.0
H889 H 0.4588 0.46735 0.23585 0.0
H890 H 0.44299 0.45608 0.25623 0.0
H891 H 0.4568 0.43256 0.26409 0.0
H892 H 0.47218 0.44362 0.24314 0.0
H893 H 0.49468 0.46423 0.23546 0.0
H894 H 0.51348 0.48262 0.2375 0.0
H895 H 0.49708 0.50155 0.21696 0.0
N896 N 0.47434 0.46113 0.22372 0.0
H897 H 0.47816 0.48314 0.21608 0.0
C898 C 0.55769 0.54051 0.21025 0.0
C899 C 0.56899 0.54264 0.20618 0.0
C900 C 0.57457 0.54861 0.19135 0.0
C901 C 0.56894 0.55262 0.18026 0.0
C902 C 0.55741 0.55013 0.18408 0.0
C903 C 0.55182 0.54411 0.19893 0.0
C904 C 0.55626 0.54442 0.23987 0.0
C905 C 0.55432 0.55403 0.23836 0.0
C906 C 0.5599 0.56365 0.24936 0.0
C907 C 0.56738 0.56379 0.26223 0.0
C908 C 0.56862 0.55381 0.26447 0.0
C909 C 0.56315 0.54425 0.25331 0.0
C910 C 0.54125 0.52546 0.22698 0.0
C911 C 0.5401 0.51445 0.22353 0.0
C912 C 0.52903 0.50424 0.22341 0.0
C913 C 0.51874 0.50473 0.22695 0.0
C914 C 0.51989 0.51585 0.23025 0.0
C915 C 0.53102 0.52613 0.23014 0.0
C916 C 0.46922 0.45692 0.2073 0.0
C917 C 0.47029 0.44782 0.19979 0.0
C918 C 0.46386 0.44218 0.18524 0.0
C919 C 0.45622 0.44558 0.17787 0.0
C920 C 0.45557 0.45507 0.18507 0.0
C921 C 0.46194 0.46063 0.1997 0.0
C922 C 0.46657 0.45622 0.23795 0.0
C923 C 0.45848 0.45987 0.24218 0.0
C924 C 0.44949 0.45344 0.2539 0.0
C925 C 0.44849 0.44328 0.26165 0.0
C926 C 0.4571 0.44015 0.2581 0.0
C927 C 0.466 0.44653 0.24631 0.0
C928 C 0.48509 0.47227 0.22539 0.0
C929 C 0.49516 0.47239 0.23155 0.0
C930 C 0.50593 0.48293 0.23252 0.0
C931 C 0.50695 0.49365 0.22707 0.0
C932 C 0.49669 0.49354 0.22134 0.0
C933 C 0.48584 0.48296 0.22064 0.0
H934 H 0.53765 0.97483 0.20244 0.0
N935 N 0.53491 0.99008 0.22113 0.0
H936 H 0.55016 0.97895 0.17758 0.0
H937 H 0.54697 0.01132 0.20496 0.0
H938 H 0.55938 0.01557 0.17975 0.0
H939 H 0.55428 0.00982 0.2334 0.0
H940 H 0.56799 0.01019 0.25469 0.0
H941 H 0.53166 0.97251 0.24134 0.0
H942 H 0.54533 0.9728 0.26279 0.0
H943 H 0.51432 0.97964 0.20529 0.0
H944 H 0.53533 0.00831 0.23932 0.0
H945 H 0.49882 0.98477 0.20596 0.0
H946 H 0.51961 0.01302 0.24103 0.0
H947 H 0.45149 0.99114 0.21337 0.0
H948 H 0.43966 0.98841 0.18808 0.0
H949 H 0.46454 0.02398 0.17235 0.0
H950 H 0.47642 0.02652 0.19757 0.0
H951 H 0.46514 0.02702 0.23367 0.0
H952 H 0.45016 0.02401 0.25442 0.0
H953 H 0.44587 0.98988 0.26664 0.0
H954 H 0.46032 0.99271 0.24519 0.0
H955 H 0.46827 0.98934 0.22068 0.0
H956 H 0.48374 0.98425 0.2216 0.0
H957 H 0.50984 0.02118 0.2271 0.0
N958 N 0.47114 0.01156 0.22314 0.0
H959 H 0.49409 0.02603 0.22739 0.0
C960 C 0.54135 0.99272 0.20545 0.0
C961 C 0.54225 0.9837 0.19737 0.0
C962 C 0.54938 0.98608 0.18313 0.0
C963 C 0.55579 0.9976 0.17661 0.0
C964 C 0.55467 0.00663 0.18455 0.0
C965 C 0.54752 0.00422 0.19886 0.0
C966 C 0.54188 0.9911 0.23584 0.0
C967 C 0.55208 0.00177 0.24008 0.0
C968 C 0.55993 0.00197 0.25227 0.0
C969 C 0.5578 0.9915 0.26031 0.0
C970 C 0.54728 0.98098 0.25666 0.0
C971 C 0.53941 0.98081 0.24457 0.0
C972 C 0.52598 0.99346 0.22229 0.0
C973 C 0.51552 0.98696 0.21308 0.0
C974 C 0.5066 0.98986 0.21364 0.0
C975 C 0.5078 0.99927 0.22371 0.0
C976 C 0.51834 0.00581 0.23295 0.0
C977 C 0.52738 0.00304 0.23211 0.0
C978 C 0.46488 0.00907 0.20731 0.0
C979 C 0.45455 0.99824 0.20429 0.0
C980 C 0.44772 0.99674 0.1899 0.0
C981 C 0.4511 0.00601 0.17825 0.0
C982 C 0.46173 0.01662 0.18095 0.0
C983 C 0.46853 0.01811 0.19535 0.0
C984 C 0.46397 0.01019 0.23779 0.0
C985 C 0.46112 0.019 0.24108 0.0
C986 C 0.45254 0.01724 0.25304 0.0
C987 C 0.44665 0.00664 0.26224 0.0
C988 C 0.44998 0.99806 0.25958 0.0
C989 C 0.45844 0.99975 0.24737 0.0
C990 C 0.48 0.0081 0.22429 0.0
C991 C 0.47728 0.99632 0.22246 0.0
C992 C 0.48623 0.99344 0.22271 0.0
C993 C 0.49817 0.00228 0.22434 0.0
C994 C 0.50081 0.01406 0.22616 0.0
C995 C 0.49182 0.01689 0.22623 0.0
H996 H 0.45356 0.99506 0.81712 0.0
N997 N 0.47435 0.01499 0.8093 0.0
H998 H 0.44154 0.99203 0.84211 0.0
H999 H 0.48054 0.02839 0.83692 0.0
H1000 H 0.46881 0.0252 0.86252 0.0
H1001 H 0.4719 0.03287 0.79891 0.0
H1002 H 0.45833 0.03259 0.77751 0.0
H1003 H 0.46122 0.99673 0.78763 0.0
H1004 H 0.44769 0.99635 0.76584 0.0
H1005 H 0.47222 0.9937 0.81842 0.0
H1006 H 0.49522 0.02696 0.79428 0.0
H1007 H 0.48744 0.98831 0.81639 0.0
H1008 H 0.51026 0.02131 0.79098 0.0
H1009 H 0.53692 0.97317 0.81624 0.0
H1010 H 0.54678 0.97212 0.84193 0.0
H1011 H 0.55708 0.00833 0.85322 0.0
H1012 H 0.54682 0.00906 0.82818 0.0
H1013 H 0.55736 0.01325 0.802 0.0
H1014 H 0.57364 0.01838 0.7825 0.0
H1015 H 0.55276 0.98544 0.75614 0.0
H1016 H 0.53646 0.98021 0.776 0.0
H1017 H 0.51376 0.97744 0.80064 0.0
H1018 H 0.49811 0.98243 0.80006 0.0
H1019 H 0.52435 0.01933 0.8056 0.0
N1020 N 0.5368 0.99191 0.80367 0.0
H1021 H 0.53983 0.01426 0.80479 0.0
C1022 C 0.46793 0.01206 0.82506 0.0
C1023 C 0.45701 0.00164 0.82701 0.0
C1024 C 0.45016 0.99987 0.84144 0.0
C1025 C 0.45411 0.00843 0.85433 0.0
C1026 C 0.46535 0.01853 0.85272 0.0
C1027 C 0.47214 0.02033 0.8382 0.0
C1028 C 0.4676 0.01489 0.79482 0.0
C1029 C 0.46681 0.02496 0.79147 0.0
C1030 C 0.45905 0.02477 0.77919 0.0
C1031 C 0.45187 0.01443 0.76993 0.0
C1032 C 0.45298 0.00441 0.77288 0.0
C1033 C 0.46078 0.00464 0.78521 0.0
C1034 C 0.48265 0.0109 0.80678 0.0
C1035 C 0.4805 0.99982 0.81248 0.0
C1036 C 0.48924 0.99668 0.81112 0.0
C1037 C 0.50025 0.0044 0.80365 0.0
C1038 C 0.5021 0.01523 0.79725 0.0
C1039 C 0.49345 0.01845 0.79893 0.0
C1040 C 0.54109 0.99114 0.82017 0.0
C1041 C 0.54107 0.98076 0.82452 0.0
C1042 C 0.54685 0.98025 0.8391 0.0
C1043 C 0.55289 0.9902 0.8496 0.0
C1044 C 0.55244 1.00044 0.8456 0.0
C1045 C 0.54657 1.0009 0.83111 0.0
C1046 C 0.54565 0.99624 0.79055 0.0
C1047 C 0.55613 0.00719 0.7919 0.0
C1048 C 0.56549 0.0101 0.78078 0.0
C1049 C 0.56451 0.00225 0.76793 0.0
C1050 C 0.55376 0.99168 0.76589 0.0
C1051 C 0.54445 0.98869 0.77718 0.0
C1052 C 0.52795 0.9954 0.80298 0.0
C1053 C 0.51608 0.98661 0.80158 0.0
C1054 C 0.50714 0.9895 0.80143 0.0
C1055 C 0.50984 1.00131 0.80296 0.0
C1056 C 0.52182 0.01014 0.80415 0.0
C1057 C 0.53077 0.00724 0.80397 0.0
H1058 H 0.9774 0.53729 0.82764 0.0
N1059 N 0.99259 0.53398 0.80971 0.0
H1060 H 0.98149 0.54997 0.85229 0.0
H1061 H 0.01368 0.54575 0.82638 0.0
H1062 H 0.01787 0.55826 0.85145 0.0
H1063 H 0.01157 0.55455 0.79869 0.0
H1064 H 0.01101 0.56788 0.77769 0.0
H1065 H 0.97549 0.52881 0.78741 0.0
H1066 H 0.975 0.54178 0.76558 0.0
H1067 H 0.98314 0.5139 0.82682 0.0
H1068 H 0.01041 0.53436 0.79061 0.0
H1069 H 0.98854 0.49862 0.82611 0.0
H1070 H 0.01532 0.51874 0.78874 0.0
H1071 H 0.99487 0.4521 0.82053 0.0
H1072 H 0.99452 0.4413 0.84572 0.0
H1073 H 0.03178 0.46539 0.85303 0.0
H1074 H 0.03209 0.47597 0.82732 0.0
H1075 H 0.02989 0.46725 0.78845 0.0
H1076 H 0.02568 0.45169 0.76781 0.0
H1077 H 0.98858 0.4404 0.77065 0.0
H1078 H 0.99282 0.45585 0.79117 0.0
H1079 H 0.99248 0.46783 0.81136 0.0
H1080 H 0.98742 0.48327 0.81093 0.0
H1081 H 0.02398 0.50912 0.80146 0.0
N1082 N 0.01443 0.47046 0.80591 0.0
H1083 H 0.02872 0.4933 0.80047 0.0
C1084 C 0.99518 0.54053 0.82529 0.0
C1085 C 0.9862 0.54173 0.83296 0.0
C1086 C 0.98857 0.54895 0.84708 0.0
C1087 C 1.00002 0.55514 0.85393 0.0
C1088 C 0.00899 0.55374 0.84641 0.0
C1089 C 0.0066 0.54651 0.83218 0.0
C1090 C 0.99346 0.54074 0.79482 0.0
C1091 C 0.00361 0.55163 0.79135 0.0
C1092 C 0.00329 0.55923 0.7792 0.0
C1093 C 0.99286 0.55605 0.77011 0.0
C1094 C 0.98307 0.5447 0.77265 0.0
C1095 C 0.98336 0.53719 0.78495 0.0
C1096 C 0.99623 0.52523 0.80871 0.0
C1097 C 0.99022 0.51501 0.81855 0.0
C1098 C 0.99326 0.5062 0.81794 0.0
C1099 C 0.00229 0.50724 0.80715 0.0
C1100 C 0.0084 0.51759 0.79735 0.0
C1101 C 0.00551 0.52655 0.79827 0.0
C1102 C 0.01356 0.46488 0.82198 0.0
C1103 C 0.00294 0.45521 0.82763 0.0
C1104 C 0.00274 0.44903 0.84215 0.0
C1105 C 0.01315 0.45241 0.85139 0.0
C1106 C 0.02365 0.4624 0.84607 0.0
C1107 C 0.02383 0.46854 0.8315 0.0
C1108 C 0.01175 0.46279 0.79146 0.0
C1109 C 0.0209 0.46161 0.78425 0.0
C1110 C 0.01846 0.45271 0.77247 0.0
C1111 C 0.00677 0.44472 0.76773 0.0
C1112 C 0.99767 0.44631 0.77425 0.0
C1113 C 1.00012 0.45525 0.78596 0.0
C1114 C 0.01099 0.47935 0.80553 0.0
C1115 C 0.99937 0.47674 0.80873 0.0
C1116 C 0.99653 0.48571 0.80882 0.0
C1117 C 0.00527 0.49759 0.80625 0.0
C1118 C 0.01691 0.50013 0.80316 0.0
C1119 C 0.01968 0.4911 0.8027 0.0
H1120 H 0.46912 0.44429 0.82359 0.0
N1121 N 0.47115 0.46275 0.80688 0.0
H1122 H 0.45717 0.43489 0.84858 0.0
H1123 H 0.45956 0.47131 0.82598 0.0
H1124 H 0.44812 0.46241 0.85148 0.0
H1125 H 0.452 0.46402 0.79599 0.0
H1126 H 0.43797 0.45162 0.77424 0.0
H1127 H 0.47348 0.44837 0.78572 0.0
H1128 H 0.45938 0.43566 0.76436 0.0
H1129 H 0.49409 0.4704 0.80776 0.0
H1130 H 0.4691 0.48244 0.80239 0.0
H1131 H 0.51036 0.49071 0.80594 0.0
H1132 H 0.48515 0.5028 0.80183 0.0
H1133 H 0.5547 0.5465 0.82072 0.0
H1134 H 0.56503 0.55678 0.84642 0.0
H1135 H 0.54074 0.56975 0.85275 0.0
H1136 H 0.53035 0.55932 0.82693 0.0
H1137 H 0.54232 0.56753 0.79025 0.0
H1138 H 0.5583 0.57809 0.77011 0.0
H1139 H 0.56482 0.5488 0.76967 0.0
H1140 H 0.54908 0.53856 0.79049 0.0
H1141 H 0.53632 0.52842 0.82104 0.0
H1142 H 0.52045 0.50812 0.82076 0.0
H1143 H 0.50064 0.5176 0.78677 0.0
N1144 N 0.5363 0.54738 0.80573 0.0
H1145 H 0.51636 0.53819 0.78814 0.0
C1146 C 0.46538 0.45856 0.82298 0.0
C1147 C 0.46469 0.44837 0.82981 0.0
C1148 C 0.45787 0.44304 0.84417 0.0
C1149 C 0.45163 0.44786 0.85217 0.0
C1150 C 0.45263 0.45832 0.84556 0.0
C1151 C 0.45935 0.46355 0.83104 0.0
C1152 C 0.46385 0.45717 0.79234 0.0
C1153 C 0.45384 0.45812 0.78877 0.0
C1154 C 0.44574 0.4509 0.77646 0.0
C1155 C 0.44747 0.44256 0.76757 0.0
C1156 C 0.45781 0.44207 0.7707 0.0
C1157 C 0.46589 0.44931 0.78293 0.0
C1158 C 0.4804 0.47488 0.80548 0.0
C1159 C 0.49214 0.47748 0.80636 0.0
C1160 C 0.50142 0.48913 0.80547 0.0
C1161 C 0.49918 0.49855 0.80393 0.0
C1162 C 0.48733 0.49587 0.80282 0.0
C1163 C 0.47806 0.48416 0.8034 0.0
C1164 C 0.54163 0.55204 0.82198 0.0
C1165 C 0.5514 0.55131 0.82781 0.0
C1166 C 0.55732 0.55721 0.84253 0.0
C1167 C 0.55371 0.56409 0.85159 0.0
C1168 C 0.54377 0.56458 0.84597 0.0
C1169 C 0.53778 0.55857 0.83133 0.0
C1170 C 0.54445 0.55227 0.79179 0.0
C1171 C 0.54706 0.56332 0.78552 0.0
C1172 C 0.5562 0.56931 0.77394 0.0
C1173 C 0.56293 0.56434 0.76819 0.0
C1174 C 0.55997 0.553 0.77398 0.0
C1175 C 0.55086 0.54705 0.78574 0.0
C1176 C 0.52749 0.53499 0.80482 0.0
C1177 C 0.52859 0.52624 0.81359 0.0
C1178 C 0.51946 0.51448 0.81325 0.0
C1179 C 0.5091 0.51108 0.80382 0.0
C1180 C 0.50827 0.51982 0.79454 0.0
C1181 C 0.51732 0.53161 0.79515 0.0
H1182 H 0.68124 0.89066 0.54907 0.0
N1183 N 0.66149 0.87001 0.55814 0.0
H1184 H 0.68333 0.90276 0.5244 0.0
H1185 H 0.64667 0.86426 0.53209 0.0
H1186 H 0.64885 0.87628 0.50702 0.0
H1187 H 0.64681 0.87642 0.57085 0.0
H1188 H 0.65109 0.89152 0.59204 0.0
H1189 H 0.68118 0.88036 0.57837 0.0
H1190 H 0.68537 0.89502 0.60037 0.0
H1191 H 0.68116 0.87107 0.54354 0.0
H1192 H 0.6507 0.8495 0.57441 0.0
H1193 H 0.68607 0.85554 0.5431 0.0
H1194 H 0.65609 0.83415 0.57525 0.0
H1195 H 0.69896 0.80104 0.54381 0.0
H1196 H 0.69658 0.7886 0.51925 0.0
H1197 H 0.66339 0.7865 0.5077 0.0
H1198 H 0.66556 0.79856 0.53248 0.0
H1199 H 0.66443 0.7847 0.56147 0.0
H1200 H 0.663 0.77074 0.58303 0.0
H1201 H 0.69515 0.79802 0.60596 0.0
H1202 H 0.6969 0.81161 0.58351 0.0
H1203 H 0.6982 0.82969 0.55507 0.0
H1204 H 0.69345 0.84544 0.55707 0.0
H1205 H 0.65636 0.81926 0.56034 0.0
N1206 N 0.68352 0.8066 0.55606 0.0
H1207 H 0.66144 0.80367 0.55974 0.0
C1208 C 0.66368 0.87657 0.54255 0.0
C1209 C 0.67414 0.88739 0.53996 0.0
C1210 C 0.67533 0.89432 0.52586 0.0
C1211 C 0.6662 0.89051 0.51392 0.0
C1212 C 0.65603 0.87942 0.51603 0.0
C1213 C 0.65477 0.87255 0.53029 0.0
C1214 C 0.66359 0.87719 0.57304 0.0
C1215 C 0.65514 0.88028 0.57754 0.0
C1216 C 0.65762 0.88892 0.58975 0.0
C1217 C 0.66864 0.89463 0.59797 0.0
C1218 C 0.67688 0.89103 0.59412 0.0
C1219 C 0.67444 0.88248 0.58168 0.0
C1220 C 0.66535 0.8614 0.55879 0.0
C1221 C 0.67555 0.86304 0.55041 0.0
C1222 C 0.67846 0.85411 0.55035 0.0
C1223 C 0.67147 0.84342 0.55907 0.0
C1224 C 0.66155 0.84204 0.56799 0.0
C1225 C 0.6585 0.85088 0.56771 0.0
C1226 C 0.68256 0.80088 0.54002 0.0
C1227 C 0.69127 0.79807 0.53582 0.0
C1228 C 0.68987 0.79091 0.5219 0.0
C1229 C 0.67979 0.78659 0.51168 0.0
C1230 C 0.67127 0.78979 0.51538 0.0
C1231 C 0.67255 0.79675 0.52955 0.0
C1232 C 0.68096 0.79913 0.57069 0.0
C1233 C 0.67108 0.7877 0.57127 0.0
C1234 C 0.67025 0.77973 0.58374 0.0
C1235 C 0.67912 0.78311 0.59611 0.0
C1236 C 0.68836 0.79493 0.59634 0.0
C1237 C 0.68931 0.80279 0.58367 0.0
C1238 C 0.68019 0.81556 0.55693 0.0
C1239 C 0.68906 0.82741 0.55624 0.0
C1240 C 0.68628 0.8364 0.55725 0.0
C1241 C 0.67447 0.83375 0.55866 0.0
C1242 C 0.66557 0.82177 0.55948 0.0
C1243 C 0.66842 0.81278 0.55887 0.0
H1244 H 0.23587 0.87056 0.54725 0.0
N1245 N 0.21604 0.86812 0.56 0.0
H1246 H 0.24638 0.88164 0.52209 0.0
H1247 H 0.20762 0.87744 0.53656 0.0
H1248 H 0.21772 0.88806 0.51097 0.0
H1249 H 0.21184 0.88619 0.56588 0.0
H1250 H 0.22271 0.90244 0.58575 0.0
H1251 H 0.22977 0.8686 0.58502 0.0
H1252 H 0.24039 0.88454 0.6054 0.0
H1253 H 0.21214 0.84649 0.56505 0.0
H1254 H 0.19426 0.86617 0.55742 0.0
H1255 H 0.19326 0.82815 0.56572 0.0
H1256 H 0.17526 0.84779 0.55677 0.0
H1257 H 0.13717 0.7729 0.54283 0.0
H1258 H 0.12573 0.76357 0.51736 0.0
H1259 H 0.11652 0.79097 0.51377 0.0
H1260 H 0.12871 0.8006 0.53863 0.0
H1261 H 0.1221 0.79701 0.56692 0.0
H1262 H 0.10616 0.78647 0.58718 0.0
H1263 H 0.12188 0.76578 0.60262 0.0
H1264 H 0.1379 0.77647 0.58231 0.0
H1265 H 0.16018 0.79635 0.54787 0.0
H1266 H 0.17852 0.81518 0.54796 0.0
H1267 H 0.16049 0.83156 0.57153 0.0
N1268 N 0.13918 0.7916 0.55886 0.0
H1269 H 0.14201 0.81276 0.57032 0.0
C1270 C 0.22095 0.87307 0.54373 0.0
C1271 C 0.2318 0.87419 0.53917 0.0
C1272 C 0.23776 0.88051 0.52474 0.0
C1273 C 0.23295 0.88582 0.51445 0.0
C1274 C 0.22181 0.88427 0.51872 0.0
C1275 C 0.21591 0.87804 0.53327 0.0
C1276 C 0.22009 0.87625 0.57395 0.0
C1277 C 0.21785 0.88566 0.57474 0.0
C1278 C 0.22408 0.89494 0.58615 0.0
C1279 C 0.23261 0.89492 0.597 0.0
C1280 C 0.23411 0.885 0.59697 0.0
C1281 C 0.22795 0.8758 0.58551 0.0
C1282 C 0.20463 0.85763 0.56087 0.0
C1283 C 0.20409 0.8468 0.56335 0.0
C1284 C 0.19325 0.83631 0.56352 0.0
C1285 C 0.18263 0.83636 0.56091 0.0
C1286 C 0.18319 0.84733 0.55886 0.0
C1287 C 0.19409 0.85788 0.55899 0.0
C1288 C 0.13364 0.78731 0.54268 0.0
C1289 C 0.13285 0.77698 0.53629 0.0
C1290 C 0.12617 0.77159 0.52187 0.0
C1291 C 0.11993 0.77633 0.51365 0.0
C1292 C 0.1212 0.78704 0.51968 0.0
C1293 C 0.12808 0.79253 0.534 0.0
C1294 C 0.13124 0.78753 0.5731 0.0
C1295 C 0.12233 0.79044 0.57494 0.0
C1296 C 0.11313 0.78433 0.58646 0.0
C1297 C 0.11266 0.77518 0.59637 0.0
C1298 C 0.12201 0.77282 0.59528 0.0
C1299 C 0.13118 0.77893 0.58371 0.0
C1300 C 0.14974 0.80304 0.55926 0.0
C1301 C 0.1602 0.80403 0.553 0.0
C1302 C 0.17072 0.81482 0.55324 0.0
C1303 C 0.17114 0.82496 0.56006 0.0
C1304 C 0.16056 0.82401 0.56609 0.0
C1305 C 0.14994 0.81318 0.56556 0.0
H1306 H 0.21189 0.32753 0.54432 0.0
N1307 N 0.21419 0.34804 0.55688 0.0
H1308 H 0.2213 0.32543 0.51905 0.0
H1309 H 0.2266 0.36456 0.53407 0.0
H1310 H 0.23677 0.36281 0.50934 0.0
H1311 H 0.2353 0.36225 0.56981 0.0
H1312 H 0.24596 0.35745 0.59052 0.0
H1313 H 0.20479 0.32775 0.57571 0.0
H1314 H 0.21506 0.32304 0.59745 0.0
H1315 H 0.1945 0.3287 0.54347 0.0
H1316 H 0.20598 0.36019 0.57319 0.0
H1317 H 0.17441 0.32485 0.54438 0.0
H1318 H 0.18561 0.35597 0.57517 0.0
H1319 H 0.11322 0.31377 0.53975 0.0
H1320 H 0.10329 0.31596 0.51508 0.0
H1321 H 0.12767 0.35356 0.51541 0.0
H1322 H 0.13705 0.35129 0.54057 0.0
H1323 H 0.13282 0.35116 0.5712 0.0
H1324 H 0.12021 0.35262 0.59273 0.0
H1325 H 0.1015 0.31467 0.59811 0.0
H1326 H 0.11441 0.31341 0.57697 0.0
H1327 H 0.13737 0.31504 0.55901 0.0
H1328 H 0.15757 0.31869 0.56031 0.0
H1329 H 0.17055 0.35626 0.56012 0.0
N1330 N 0.13025 0.33074 0.55792 0.0
H1331 H 0.15034 0.35241 0.56008 0.0
C1332 C 0.21836 0.3462 0.5409 0.0
C1333 C 0.21699 0.33519 0.53644 0.0
C1334 C 0.22258 0.33406 0.52209 0.0
C1335 C 0.22995 0.34397 0.51212 0.0
C1336 C 0.23105 0.35491 0.51645 0.0
C1337 C 0.22526 0.35597 0.53063 0.0
C1338 C 0.21926 0.34545 0.57129 0.0
C1339 C 0.23079 0.35376 0.57605 0.0
C1340 C 0.23685 0.35098 0.58802 0.0
C1341 C 0.23145 0.33981 0.59581 0.0
C1342 C 0.21964 0.33164 0.59156 0.0
C1343 C 0.21365 0.33438 0.57928 0.0
C1344 C 0.20193 0.34492 0.55806 0.0
C1345 C 0.19276 0.33478 0.55035 0.0
C1346 C 0.18112 0.33248 0.55106 0.0
C1347 C 0.17825 0.3401 0.55979 0.0
C1348 C 0.18741 0.35002 0.56796 0.0
C1349 C 0.19908 0.3524 0.567 0.0
C1350 C 0.12595 0.33228 0.54192 0.0
C1351 C 0.11653 0.32244 0.53427 0.0
C1352 C 0.11089 0.32373 0.52011 0.0
C1353 C 0.11464 0.33496 0.51316 0.0
C1354 C 0.1244 0.3448 0.52053 0.0
C1355 C 0.12993 0.34349 0.53484 0.0
C1356 C 0.12458 0.33214 0.57259 0.0
C1357 C 0.12625 0.34321 0.57739 0.0
C1358 C 0.11891 0.344 0.58957 0.0
C1359 C 0.10974 0.33375 0.59711 0.0
C1360 C 0.10854 0.32277 0.59282 0.0
C1361 C 0.1159 0.32201 0.58072 0.0
C1362 C 0.14231 0.3334 0.55917 0.0
C1363 C 0.14462 0.32405 0.55937 0.0
C1364 C 0.1562 0.32619 0.55995 0.0
C1365 C 0.16583 0.33781 0.5601 0.0
C1366 C 0.16345 0.34719 0.56019 0.0
C1367 C 0.15182 0.34501 0.55991 0.0
H1368 H 0.98334 0.3714 0.06451 0.0
H1369 H 0.98295 0.38319 0.08828 0.0
H1370 H 0.0207 0.4056 0.0847 0.0
H1371 H 0.02121 0.39375 0.06138 0.0
H1372 H 0.0147 0.40146 0.1164 0.0
H1373 H 1.00081 0.41346 0.06807 0.0
H1374 H 0.98778 0.41049 0.04381 0.0
H1375 H 0.95789 0.39703 0.07705 0.0
H1376 H 0.97074 0.39978 0.10149 0.0
H1377 H 0.0257 0.45484 0.15362 0.0
H1378 H 0.02229 0.44017 0.13201 0.0
H1379 H 0.98719 0.41764 0.1512 0.0
H1380 H 0.99067 0.43204 0.17345 0.0
H1381 H 0.98981 0.42015 0.11365 0.0
H1382 H 0.00483 0.41002 0.16239 0.0
H1383 H 0.01864 0.41413 0.18601 0.0
H1384 H 0.04728 0.42515 0.15092 0.0
H1385 H 0.03365 0.42129 0.12708 0.0
C1386 C 0.99156 0.37878 0.06888 0.0
C1387 C 0.0023 0.38164 0.06096 0.0
C1388 C 0.99132 0.38556 0.08241 0.0
C1389 C 1.00178 0.39541 0.08815 0.0
C1390 C 0.01251 0.39806 0.08053 0.0
C1391 C 0.01277 0.39127 0.06713 0.0
C1392 C 1.00167 0.40312 0.10188 0.0
C1393 C 0.00929 0.40558 0.1157 0.0
C1394 C 0.99444 0.40834 0.10124 0.0
C1395 C 0.98671 0.40669 0.08657 0.0
C1396 C 0.99145 0.40978 0.07019 0.0
C1397 C 0.98409 0.40815 0.05641 0.0
C1398 C 0.972 0.40353 0.05888 0.0
C1399 C 0.96725 0.40058 0.07515 0.0
C1400 C 0.97456 0.40217 0.08897 0.0
C1401 C 0.01726 0.44676 0.15337 0.0
C1402 C 0.00853 0.4446 0.1655 0.0
C1403 C 0.0153 0.43842 0.14091 0.0
C1404 C 0.00453 0.4278 0.14013 0.0
C1405 C 0.99556 0.42581 0.15161 0.0
C1406 C 0.99756 0.4341 0.16426 0.0
C1407 C 0.00298 0.41859 0.12784 0.0
C1408 C 0.99507 0.41588 0.11436 0.0
C1409 C 0.01003 0.41322 0.12867 0.0
C1410 C 0.01824 0.41547 0.14296 0.0
C1411 C 0.01409 0.41342 0.15972 0.0
C1412 C 0.02188 0.41569 0.17314 0.0
C1413 C 0.03384 0.41992 0.16997 0.0
C1414 C 0.03802 0.42188 0.15336 0.0
C1415 C 0.03026 0.41964 0.13988 0.0
H1416 H 0.03985 0.42167 0.18038 0.0
H1417 H 0.96633 0.40228 0.0482 0.0
H1418 H 0.62093 0.632 0.06698 0.0
H1419 H 0.6106 0.61876 0.09047 0.0
H1420 H 0.62693 0.5981 0.07835 0.0
H1421 H 0.63728 0.61129 0.05462 0.0
H1422 H 0.60329 0.5843 0.08306 0.0
H1423 H 0.6355 0.61547 0.11303 0.0
H1424 H 0.64907 0.63602 0.12165 0.0
H1425 H 0.61998 0.63868 0.14154 0.0
H1426 H 0.6062 0.61819 0.13282 0.0
H1427 H 0.58338 0.54953 0.15827 0.0
H1428 H 0.59521 0.56258 0.13527 0.0
H1429 H 0.58087 0.5853 0.14539 0.0
H1430 H 0.56929 0.5725 0.16872 0.0
H1431 H 0.60437 0.59785 0.14193 0.0
H1432 H 0.57211 0.56708 0.11097 0.0
H1433 H 0.55841 0.54662 0.1021 0.0
H1434 H 0.58751 0.54329 0.08394 0.0
H1435 H 0.60141 0.56369 0.09291 0.0
C1436 C 0.62244 0.62472 0.06937 0.0
C1437 C 0.62995 0.62272 0.05888 0.0
C1438 C 0.61654 0.61717 0.08287 0.0
C1439 C 0.61804 0.60748 0.08624 0.0
C1440 C 0.62566 0.60554 0.07597 0.0
C1441 C 0.63161 0.61312 0.06247 0.0
C1442 C 0.61125 0.59913 0.10006 0.0
C1443 C 0.60368 0.58722 0.096 0.0
C1444 C 0.61154 0.60299 0.11685 0.0
C1445 C 0.61981 0.61532 0.12214 0.0
C1446 C 0.63198 0.62046 0.11912 0.0
C1447 C 0.63972 0.6321 0.12405 0.0
C1448 C 0.63539 0.63866 0.1321 0.0
C1449 C 0.62332 0.63359 0.13528 0.0
C1450 C 0.61555 0.62196 0.13037 0.0
C1451 C 0.58274 0.5573 0.15559 0.0
C1452 C 0.57538 0.55996 0.16534 0.0
C1453 C 0.58944 0.56471 0.14236 0.0
C1454 C 0.58889 0.57489 0.13853 0.0
C1455 C 0.58144 0.57749 0.1481 0.0
C1456 C 0.57473 0.57009 0.16133 0.0
C1457 C 0.59633 0.58304 0.12491 0.0
C1458 C 0.60403 0.59492 0.12901 0.0
C1459 C 0.59614 0.57915 0.10816 0.0
C1460 C 0.58781 0.56687 0.10278 0.0
C1461 C 0.5756 0.56195 0.10522 0.0
C1462 C 0.56779 0.55037 0.10015 0.0
C1463 C 0.57209 0.54365 0.09251 0.0
C1464 C 0.5842 0.5485 0.08989 0.0
C1465 C 0.59204 0.56008 0.09495 0.0
H1466 H 0.56603 0.53468 0.08859 0.0
H1467 H 0.64139 0.64766 0.13591 0.0
H1468 H 0.39143 0.02268 0.06199 0.0
H1469 H 0.40428 0.02331 0.08495 0.0
H1470 H 0.3876 0.98538 0.0838 0.0
H1471 H 0.37483 0.98464 0.06082 0.0
H1472 H 0.40072 0.01418 0.11663 0.0
H1473 H 0.40866 0.97769 0.08931 0.0
H1474 H 0.40882 0.96914 0.06158 0.0
H1475 H 0.41748 0.0018 0.03722 0.0
H1476 H 0.41754 0.01059 0.06481 0.0
H1477 H 0.4271 0.99618 0.17881 0.0
H1478 H 0.41426 0.99568 0.15605 0.0
H1479 H 0.44431 0.01338 0.12293 0.0
H1480 H 0.45721 0.01362 0.14553 0.0
H1481 H 0.42562 0.99605 0.10646 0.0
H1482 H 0.43323 0.02876 0.14184 0.0
H1483 H 0.43422 0.03878 0.16869 0.0
H1484 H 0.39684 0.01659 0.17524 0.0
H1485 H 0.39565 0.00632 0.14853 0.0
C1486 C 0.39041 0.01446 0.06674 0.0
C1487 C 0.38216 0.00362 0.05944 0.0
C1488 C 0.39775 0.01484 0.07988 0.0
C1489 C 0.39703 0.0044 0.08589 0.0
C1490 C 0.38845 0.99355 0.07915 0.0
C1491 C 0.38112 0.99316 0.06604 0.0
C1492 C 0.40549 0.00486 0.09877 0.0
C1493 C 0.40614 0.0102 0.11442 0.0
C1494 C 0.41276 0.99988 0.09576 0.0
C1495 C 0.41298 0.99475 0.07913 0.0
C1496 C 0.41065 0.98306 0.07805 0.0
C1497 C 0.41069 0.97817 0.06235 0.0
C1498 C 0.41312 0.98491 0.04764 0.0
C1499 C 0.41556 0.99657 0.04861 0.0
C1500 C 0.41554 0.00151 0.06428 0.0
C1501 C 0.43097 0.99978 0.1666 0.0
C1502 C 0.4432 0.00496 0.164 0.0
C1503 C 0.42362 0.9996 0.15365 0.0
C1504 C 0.42834 0.00465 0.13786 0.0
C1505 C 0.44048 0.00948 0.13504 0.0
C1506 C 0.44785 0.00968 0.148 0.0
C1507 C 0.42065 0.00513 0.12446 0.0
C1508 C 0.42016 0.99999 0.10869 0.0
C1509 C 0.4137 0.01049 0.12725 0.0
C1510 C 0.41437 0.0167 0.14326 0.0
C1511 C 0.42523 0.02596 0.14906 0.0
C1512 C 0.42583 0.03169 0.16425 0.0
C1513 C 0.41561 0.0283 0.17369 0.0
C1514 C 0.40476 0.01919 0.16793 0.0
C1515 C 0.40412 0.01342 0.15276 0.0
H1516 H 0.41609 0.03275 0.18544 0.0
H1517 H 0.41313 0.98111 0.0355 0.0
H1518 H 0.37447 0.9824 0.97075 0.0
H1519 H 0.38714 0.98265 0.9478 0.0
H1520 H 0.40446 0.02061 0.94603 0.0
H1521 H 0.39183 0.02046 0.96883 0.0
H1522 H 0.39982 0.01091 0.91446 0.0
H1523 H 0.41714 0.00727 0.96636 0.0
H1524 H 0.41703 0.99799 0.99355 0.0
H1525 H 0.40853 0.96581 0.96785 0.0
H1526 H 0.40843 0.97485 0.94051 0.0
H1527 H 0.4516 0.02578 0.86976 0.0
H1528 H 0.43788 0.02367 0.89208 0.0
H1529 H 0.42441 0.98614 0.8933 0.0
H1530 H 0.43861 0.98825 0.87155 0.0
H1531 H 0.42605 0.99429 0.92448 0.0
H1532 H 0.40957 0.99804 0.87243 0.0
H1533 H 0.40943 0.00712 0.84519 0.0
H1534 H 0.41589 0.03869 0.87088 0.0
H1535 H 0.41623 0.02986 0.89827 0.0
C1536 C 0.38089 0.99079 0.96537 0.0
C1537 C 0.38217 0.00141 0.97171 0.0
C1538 C 0.38816 0.99092 0.95231 0.0
C1539 C 0.39684 0.00166 0.94535 0.0
C1540 C 0.39784 0.01223 0.95124 0.0
C1541 C 0.39062 0.01212 0.96432 0.0
C1542 C 0.4051 0.00198 0.93224 0.0
C1543 C 0.40563 0.00737 0.91669 0.0
C1544 C 0.41247 0.99709 0.93501 0.0
C1545 C 0.41265 0.99169 0.95142 0.0
C1546 C 0.41516 0.99818 0.96652 0.0
C1547 C 0.41515 0.99298 0.98196 0.0
C1548 C 0.41274 0.98131 0.98243 0.0
C1549 C 0.41038 0.97484 0.96746 0.0
C1550 C 0.41036 0.98 0.95199 0.0
C1551 C 0.44592 0.01709 0.87498 0.0
C1552 C 0.44622 0.00718 0.86874 0.0
C1553 C 0.43793 0.01588 0.88761 0.0
C1554 C 0.42992 0.00471 0.89413 0.0
C1555 C 0.43044 0.99484 0.88837 0.0
C1556 C 0.4385 0.99606 0.87581 0.0
C1557 C 0.42088 0.00336 0.90672 0.0
C1558 C 0.42019 0.99776 0.92217 0.0
C1559 C 0.41332 0.00802 0.90384 0.0
C1560 C 0.41302 0.01332 0.88739 0.0
C1561 C 0.41104 0.00695 0.87227 0.0
C1562 C 0.41091 0.01205 0.8568 0.0
C1563 C 0.41267 0.02349 0.8563 0.0
C1564 C 0.41454 0.02984 0.87128 0.0
C1565 C 0.41469 0.02479 0.88678 0.0
H1566 H 0.41258 0.02742 0.84431 0.0
H1567 H 0.41274 0.9773 0.99439 0.0
H1568 H 0.02555 0.38871 0.96712 0.0
H1569 H 0.02719 0.40127 0.94314 0.0
H1570 H 0.99152 0.39366 0.95176 0.0
H1571 H 0.98967 0.38081 0.97523 0.0
H1572 H 0.9948 0.39363 0.91969 0.0
H1573 H 0.01674 0.42011 0.96503 0.0
H1574 H 0.03197 0.42854 0.98725 0.0
H1575 H 0.05901 0.43747 0.95003 0.0
H1576 H 0.04392 0.42895 0.9276 0.0
H1577 H 0.99619 0.44154 0.87588 0.0
H1578 H 0.99562 0.42854 0.89849 0.0
H1579 H 0.02948 0.43393 0.88267 0.0
H1580 H 0.03003 0.44674 0.85981 0.0
H1581 H 0.02778 0.43499 0.9174 0.0
H1582 H 0.0052 0.40912 0.8719 0.0
H1583 H 0.98959 0.40112 0.8502 0.0
H1584 H 0.96321 0.39152 0.88867 0.0
H1585 H 0.97868 0.39962 0.9106 0.0
C1586 C 0.01803 0.38965 0.96382 0.0
C1587 C 0.0075 0.38378 0.97315 0.0
C1588 C 0.01901 0.3969 0.95017 0.0
C1589 C 0.00955 0.3986 0.9458 0.0
C1590 C 0.99895 0.39252 0.95486 0.0
C1591 C 0.99791 0.38516 0.96833 0.0
C1592 C 0.01066 0.40681 0.93197 0.0
C1593 C 1.00195 0.40271 0.91933 0.0
C1594 C 0.02011 0.41861 0.93122 0.0
C1595 C 0.02919 0.42378 0.94467 0.0
C1596 C 0.02593 0.4238 0.9616 0.0
C1597 C 0.03454 0.4286 0.97423 0.0
C1598 C 0.04645 0.4335 0.97006 0.0
C1599 C 0.04978 0.43365 0.95324 0.0
C1600 C 0.0412 0.42884 0.94057 0.0
C1601 C 0.0035 0.43992 0.87714 0.0
C1602 C 0.01313 0.44516 0.86594 0.0
C1603 C 0.00317 0.43251 0.89011 0.0
C1604 C 0.01245 0.43016 0.89214 0.0
C1605 C 0.02223 0.43563 0.88133 0.0
C1606 C 0.02255 0.44301 0.86831 0.0
C1607 C 0.01185 0.42182 0.90535 0.0
C1608 C 0.02066 0.4259 0.9178 0.0
C1609 C 0.00243 0.41004 0.90604 0.0
C1610 C 0.99311 0.40507 0.89288 0.0
C1611 C 0.99608 0.40538 0.87573 0.0
C1612 C 0.98725 0.40082 0.86338 0.0
C1613 C 0.97542 0.39584 0.86805 0.0
C1614 C 0.97238 0.39539 0.88508 0.0
C1615 C 0.98117 0.39996 0.89747 0.0
H1616 H 0.9686 0.39232 0.85847 0.0
H1617 H 0.0531 0.43722 0.97986 0.0
H1618 H 0.60943 0.63179 0.97862 0.0
H1619 H 0.5962 0.62055 0.95537 0.0
H1620 H 0.62139 0.61086 0.9379 0.0
H1621 H 0.63463 0.62196 0.96117 0.0
H1622 H 0.61114 0.61735 0.91158 0.0
H1623 H 0.59961 0.59173 0.96022 0.0
H1624 H 0.59351 0.58629 0.98987 0.0
H1625 H 0.56273 0.58927 0.98119 0.0
H1626 H 0.56875 0.5949 0.95152 0.0
H1627 H 0.56255 0.55727 0.87788 0.0
H1628 H 0.57538 0.56961 0.90083 0.0
H1629 H 0.57366 0.59944 0.88122 0.0
H1630 H 0.56089 0.58719 0.85821 0.0
H1631 H 0.57227 0.58281 0.92609 0.0
H1632 H 0.60184 0.62359 0.8854 0.0
H1633 H 0.60836 0.62849 0.85576 0.0
H1634 H 0.60383 0.59396 0.84854 0.0
H1635 H 0.59746 0.58893 0.87819 0.0
C1636 C 0.61222 0.62738 0.96972 0.0
C1637 C 0.62306 0.62772 0.9718 0.0
C1638 C 0.60463 0.62093 0.95649 0.0
C1639 C 0.60779 0.61481 0.94501 0.0
C1640 C 0.61879 0.61552 0.94664 0.0
C1641 C 0.62632 0.62184 0.95998 0.0
C1642 C 0.59941 0.6072 0.93177 0.0
C1643 C 0.60262 0.60984 0.91473 0.0
C1644 C 0.58836 0.59732 0.93592 0.0
C1645 C 0.58469 0.59386 0.95371 0.0
C1646 C 0.59159 0.59132 0.96467 0.0
C1647 C 0.58814 0.58819 0.98147 0.0
C1648 C 0.57775 0.58747 0.98743 0.0
C1649 C 0.57078 0.58985 0.97657 0.0
C1650 C 0.5742 0.59301 0.95976 0.0
C1651 C 0.56487 0.56645 0.87851 0.0
C1652 C 0.56073 0.57127 0.86624 0.0
C1653 C 0.57213 0.57346 0.89167 0.0
C1654 C 0.57553 0.58545 0.89264 0.0
C1655 C 0.5712 0.59022 0.88063 0.0
C1656 C 0.56384 0.5832 0.86757 0.0
C1657 C 0.58393 0.59304 0.90587 0.0
C1658 C 0.58074 0.59039 0.92291 0.0
C1659 C 0.59504 0.60286 0.90172 0.0
C1660 C 0.59905 0.60585 0.88396 0.0
C1661 C 0.60228 0.61707 0.8775 0.0
C1662 C 0.60594 0.61986 0.8607 0.0
C1663 C 0.60646 0.61153 0.85026 0.0
C1664 C 0.60338 0.60039 0.85662 0.0
C1665 C 0.59973 0.59756 0.87341 0.0
H1666 H 0.60929 0.6137 0.83725 0.0
H1667 H 0.57509 0.58504 0.00044 0.0
H1668 H 0.02566 0.63828 0.96544 0.0
H1669 H 0.02634 0.6259 0.94268 0.0
H1670 H 0.99004 0.59989 0.95235 0.0
H1671 H 0.98921 0.61215 0.9749 0.0
H1672 H 0.00525 0.59055 0.95083 0.0
H1673 H 0.99634 0.61674 0.91885 0.0
H1674 H 1.00006 0.6362 0.90909 0.0
H1675 H 0.03347 0.64364 0.88863 0.0
H1676 H 0.03001 0.62428 0.89848 0.0
H1677 H 0.9861 0.55201 0.88154 0.0
H1678 H 0.98936 0.56609 0.9039 0.0
H1679 H 0.02309 0.59075 0.8822 0.0
H1680 H 0.01959 0.5769 0.85917 0.0
H1681 H 0.01197 0.60191 0.89031 0.0
H1682 H 0.02074 0.57559 0.9196 0.0
H1683 H 0.01791 0.55651 0.92961 0.0
H1684 H 0.98638 0.54976 0.95572 0.0
H1685 H 0.98893 0.56872 0.94567 0.0
C1686 C 0.01779 0.62997 0.96261 0.0
C1687 C 0.00738 0.62621 0.97201 0.0
C1688 C 0.0182 0.62292 0.9496 0.0
C1689 C 0.00825 0.61198 0.94588 0.0
C1690 C 0.99783 0.60829 0.95508 0.0
C1691 C 0.99737 0.61535 0.96792 0.0
C1692 C 0.00865 0.60413 0.9327 0.0
C1693 C 0.00663 0.59297 0.93757 0.0
C1694 C 0.01092 0.60751 0.91552 0.0
C1695 C 0.01298 0.61913 0.90958 0.0
C1696 C 0.00453 0.62257 0.91241 0.0
C1697 C 0.00658 0.63357 0.90683 0.0
C1698 C 0.01701 0.64117 0.89829 0.0
C1699 C 0.0254 0.63776 0.89528 0.0
C1700 C 0.0234 0.62678 0.90085 0.0
C1701 C 0.99421 0.56044 0.88145 0.0
C1702 C 0.00256 0.56332 0.86847 0.0
C1703 C 0.99613 0.56844 0.8944 0.0
C1704 C 0.00654 0.57945 0.8949 0.0
C1705 C 0.015 0.5823 0.88214 0.0
C1706 C 0.01304 0.57431 0.86906 0.0
C1707 C 0.00828 0.58813 0.90835 0.0
C1708 C 0.01073 0.59948 0.90357 0.0
C1709 C 0.00656 0.58498 0.92568 0.0
C1710 C 0.00498 0.57355 0.93176 0.0
C1711 C 0.01315 0.57 0.92737 0.0
C1712 C 0.01161 0.55921 0.93307 0.0
C1713 C 1.00196 0.55192 0.94327 0.0
C1714 C 0.99385 0.55541 0.94781 0.0
C1715 C 0.99535 0.56619 0.94213 0.0
H1716 H 1.00078 0.54357 0.94767 0.0
H1717 H 0.01858 0.64968 0.89398 0.0
H1718 H 0.39555 0.37714 0.97145 0.0
H1719 H 0.40731 0.39027 0.94863 0.0
H1720 H 0.38383 0.40436 0.94586 0.0
H1721 H 0.37195 0.39125 0.96895 0.0
H1722 H 0.39098 0.39933 0.91343 0.0
H1723 H 0.40797 0.4203 0.96513 0.0
H1724 H 0.4159 0.42253 0.99402 0.0
H1725 H 0.44325 0.41643 0.97565 0.0
H1726 H 0.43538 0.414 0.94668 0.0
H1727 H 0.43028 0.44604 0.85995 0.0
H1728 H 0.41701 0.43516 0.88314 0.0
H1729 H 0.44124 0.42403 0.90009 0.0
H1730 H 0.45497 0.4356 0.87774 0.0
H1731 H 0.43271 0.42871 0.92613 0.0
H1732 H 0.41543 0.40602 0.87559 0.0
H1733 H 0.40748 0.40253 0.84658 0.0
H1734 H 0.38085 0.41052 0.86224 0.0
H1735 H 0.38874 0.4142 0.89132 0.0
C1736 C 0.39277 0.38294 0.96594 0.0
C1737 C 0.38282 0.38318 0.97213 0.0
C1738 C 0.39955 0.39046 0.95291 0.0
C1739 C 0.39651 0.39836 0.94571 0.0
C1740 C 0.38633 0.39834 0.95132 0.0
C1741 C 0.37957 0.39086 0.96452 0.0
C1742 C 0.40429 0.40688 0.93275 0.0
C1743 C 0.40005 0.40591 0.91621 0.0
C1744 C 0.41618 0.41526 0.93637 0.0
C1745 C 0.42103 0.41688 0.95375 0.0
C1746 C 0.41563 0.41936 0.96727 0.0
C1747 C 0.42012 0.42067 0.98366 0.0
C1748 C 0.43006 0.4196 0.98667 0.0
C1749 C 0.43555 0.41725 0.9733 0.0
C1750 C 0.43109 0.41592 0.95689 0.0
C1751 C 0.43294 0.4415 0.8688 0.0
C1752 C 0.44372 0.44168 0.86681 0.0
C1753 C 0.42522 0.4351 0.88194 0.0
C1754 C 0.42797 0.42852 0.89319 0.0
C1755 C 0.43885 0.42895 0.89153 0.0
C1756 C 0.44666 0.43548 0.87857 0.0
C1757 C 0.41951 0.42107 0.90658 0.0
C1758 C 0.42362 0.42223 0.92327 0.0
C1759 C 0.40754 0.41276 0.90302 0.0
C1760 C 0.40276 0.41051 0.88557 0.0
C1761 C 0.40793 0.40711 0.87282 0.0
C1762 C 0.40343 0.40509 0.85637 0.0
C1763 C 0.39369 0.40634 0.85256 0.0
C1764 C 0.38841 0.40958 0.8652 0.0
C1765 C 0.39289 0.41162 0.88167 0.0
H1766 H 0.39022 0.40477 0.83981 0.0
H1767 H 0.43352 0.42061 0.99937 0.0
H1768 H 0.62425 0.9859 0.95991 0.0
H1769 H 0.61087 0.98322 0.9364 0.0
H1770 H 0.60945 0.0139 0.95263 0.0
H1771 H 0.62302 0.01685 0.97582 0.0
H1772 H 0.58637 0.99108 0.94691 0.0
H1773 H 0.62392 0.0184 0.92106 0.0
H1774 H 0.64434 0.02488 0.91226 0.0
H1775 H 0.63206 0.99375 0.88182 0.0
H1776 H 0.61158 0.98699 0.89067 0.0
H1777 H 0.55627 1.00096 0.8806 0.0
H1778 H 0.56965 0.00234 0.90305 0.0
H1779 H 0.57918 0.98037 0.87426 0.0
H1780 H 0.56641 0.97959 0.85126 0.0
H1781 H 0.5981 0.99765 0.8865 0.0
H1782 H 0.56099 0.97021 0.91026 0.0
H1783 H 0.54035 0.96222 0.91929 0.0
H1784 H 0.55105 0.99112 0.9538 0.0
H1785 H 0.57174 0.99938 0.94481 0.0
C1786 C 0.62118 0.99214 0.95836 0.0
C1787 C 0.62471 0.0016 0.96969 0.0
C1788 C 0.61355 0.99059 0.94495 0.0
C1789 C 0.60918 0.99835 0.94287 0.0
C1790 C 0.61273 0.00782 0.95408 0.0
C1791 C 0.62054 0.00952 0.96724 0.0
C1792 C 0.60065 0.99644 0.92926 0.0
C1793 C 0.58891 0.99262 0.93369 0.0
C1794 C 0.60394 0.99805 0.91205 0.0
C1795 C 0.61624 0.00212 0.9067 0.0
C1796 C 0.62559 0.01287 0.91264 0.0
C1797 C 0.63717 0.01661 0.90761 0.0
C1798 C 0.6395 0.00971 0.89653 0.0
C1799 C 0.63025 0.99908 0.89043 0.0
C1800 C 0.61865 0.99529 0.89544 0.0
C1801 C 0.56124 0.99646 0.87896 0.0
C1802 C 0.56022 0.99017 0.86404 0.0
C1803 C 0.5688 0.99713 0.89195 0.0
C1804 C 0.57535 0.99134 0.89049 0.0
C1805 C 0.57422 0.9849 0.87573 0.0
C1806 C 0.56677 0.98434 0.86265 0.0
C1807 C 0.5837 0.99238 0.90407 0.0
C1808 C 0.59544 0.99601 0.89967 0.0
C1809 C 0.58035 0.99038 0.92132 0.0
C1810 C 0.56791 0.98547 0.92674 0.0
C1811 C 0.55893 0.97491 0.91967 0.0
C1812 C 0.54722 0.97033 0.92481 0.0
C1813 C 0.54439 0.97618 0.93708 0.0
C1814 C 0.55326 0.98661 0.94428 0.0
C1815 C 0.56498 0.99124 0.93918 0.0
H1816 H 0.53532 0.97261 0.94104 0.0
H1817 H 0.64847 0.01263 0.89265 0.0
H1818 H 0.63833 0.02372 0.06429 0.0
H1819 H 0.62601 0.02396 0.08748 0.0
H1820 H 0.59969 0.98806 0.07605 0.0
H1821 H 0.61194 0.98766 0.0531 0.0
H1822 H 0.59077 0.00382 0.07899 0.0
H1823 H 0.61594 0.99274 0.10917 0.0
H1824 H 0.63508 0.99538 0.11853 0.0
H1825 H 0.64367 0.0284 0.14166 0.0
H1826 H 0.62463 0.02602 0.13221 0.0
H1827 H 0.55215 0.98409 0.14837 0.0
H1828 H 0.56606 0.9873 0.12575 0.0
H1829 H 0.59159 0.02023 0.14863 0.0
H1830 H 0.57787 0.01677 0.17183 0.0
H1831 H 0.60199 0.00842 0.13959 0.0
H1832 H 0.57675 0.01936 0.1118 0.0
H1833 H 0.558 0.01758 0.10224 0.0
H1834 H 0.55004 0.98639 0.07416 0.0
H1835 H 0.56867 0.98789 0.08374 0.0
C1836 C 0.62997 0.01584 0.06682 0.0
C1837 C 0.62613 0.00567 0.05683 0.0
C1838 C 0.62295 0.016 0.08007 0.0
C1839 C 0.61194 0.00603 0.08343 0.0
C1840 C 0.60815 0.99585 0.07361 0.0
C1841 C 0.6152 0.99563 0.06055 0.0
C1842 C 0.60416 0.00622 0.0969 0.0
C1843 C 0.59316 0.00472 0.09227 0.0
C1844 C 0.6075 0.00785 0.11412 0.0
C1845 C 0.61893 0.00927 0.11981 0.0
C1846 C 0.62196 1.00062 0.11611 0.0
C1847 C 0.63278 0.00205 0.12146 0.0
C1848 C 0.6406 0.01207 0.13064 0.0
C1849 C 0.63761 0.02065 0.13452 0.0
C1850 C 0.6268 0.01926 0.12918 0.0
C1851 C 0.56073 0.99201 0.14865 0.0
C1852 C 0.56388 1.00015 0.16199 0.0
C1853 C 0.56864 0.99391 0.13557 0.0
C1854 C 0.57985 0.00408 0.13534 0.0
C1855 C 0.58298 0.01233 0.14849 0.0
C1856 C 0.57507 0.0104 0.16166 0.0
C1857 C 0.58842 0.00578 0.12175 0.0
C1858 C 0.5996 0.00764 0.12632 0.0
C1859 C 0.5853 0.00464 0.10442 0.0
C1860 C 0.57407 0.00369 0.09861 0.0
C1861 C 0.57096 0.01207 0.10369 0.0
C1862 C 0.56036 0.01112 0.09825 0.0
C1863 C 0.55282 0.00186 0.08763 0.0
C1864 C 0.55588 0.99355 0.0824 0.0
C1865 C 0.56647 0.99446 0.08782 0.0
H1866 H 0.54462 1.00114 0.08342 0.0
H1867 H 0.64897 0.01316 0.13478 0.0
H1868 H 0.02256 0.63007 0.05684 0.0
H1869 H 0.02186 0.61762 0.08026 0.0
H1870 H 0.98547 0.60724 0.08934 0.0
H1871 H 0.98603 0.61966 0.06571 0.0
H1872 H 0.9998 0.61281 0.1193 0.0
H1873 H 0.99036 0.58879 0.06928 0.0
H1874 H 0.99359 0.58434 0.04013 0.0
H1875 H 0.02667 0.58765 0.05492 0.0
H1876 H 0.02372 0.5923 0.08411 0.0
H1877 H 0.9858 0.56436 0.17255 0.0
H1878 H 0.98596 0.57687 0.14969 0.0
H1879 H 0.01989 0.58267 0.13335 0.0
H1880 H 0.01949 0.56956 0.15568 0.0
H1881 H 0.00661 0.57953 0.10692 0.0
H1882 H 0.01675 0.6037 0.15633 0.0
H1883 H 0.01449 0.60892 0.18549 0.0
H1884 H 0.98148 0.60634 0.17222 0.0
H1885 H 0.98346 0.60093 0.14301 0.0
C1886 C 0.01441 0.62524 0.06386 0.0
C1887 C 0.00433 0.62583 0.05931 0.0
C1888 C 0.01403 0.61809 0.07723 0.0
C1889 C 0.00359 0.61143 0.0864 0.0
C1890 C 0.99361 0.61231 0.08236 0.0
C1891 C 0.99395 0.61938 0.06884 0.0
C1892 C 0.00305 0.6033 0.09987 0.0
C1893 C 1.00111 0.60542 0.1166 0.0
C1894 C 0.00512 0.59388 0.09636 0.0
C1895 C 0.00687 0.591 0.07884 0.0
C1896 C 0.99837 0.58867 0.06628 0.0
C1897 C 1.00014 0.58609 0.04976 0.0
C1898 C 0.01034 0.58574 0.04567 0.0
C1899 C 0.01878 0.58794 0.0581 0.0
C1900 C 0.01706 0.59053 0.07464 0.0
C1901 C 0.99322 0.5681 0.16395 0.0
C1902 C 0.00263 0.56589 0.16601 0.0
C1903 C 0.99338 0.57543 0.15099 0.0
C1904 C 0.00304 0.58091 0.13995 0.0
C1905 C 0.01236 0.5786 0.14177 0.0
C1906 C 0.01217 0.57117 0.15466 0.0
C1907 C 0.00336 0.58901 0.12648 0.0
C1908 C 0.00528 0.58689 0.1097 0.0
C1909 C 1.00141 0.59852 0.12999 0.0
C1910 C 1.0002 0.6018 0.14752 0.0
C1911 C 0.00896 0.60415 0.15966 0.0
C1912 C 0.00774 0.60716 0.17619 0.0
C1913 C 0.99783 0.60793 0.18071 0.0
C1914 C 0.98914 0.60572 0.1687 0.0
C1915 C 0.99031 0.6027 0.15215 0.0
H1916 H 0.9969 0.61026 0.19352 0.0
H1917 H 0.0117 0.58375 0.03287 0.0
H1918 H 0.37401 0.38549 0.06873 0.0
H1919 H 0.3869 0.39732 0.09183 0.0
H1920 H 0.41275 0.38789 0.07654 0.0
H1921 H 0.39964 0.3756 0.05393 0.0
H1922 H 0.41248 0.3884 0.10888 0.0
H1923 H 0.41464 0.41524 0.06595 0.0
H1924 H 0.40687 0.42412 0.04591 0.0
H1925 H 0.39197 0.43371 0.08709 0.0
H1926 H 0.39953 0.42475 0.10736 0.0
H1927 H 0.46145 0.43577 0.15082 0.0
H1928 H 0.44811 0.42332 0.12848 0.0
H1929 H 0.42013 0.42758 0.14962 0.0
H1930 H 0.43325 0.43974 0.17227 0.0
H1931 H 0.42173 0.42992 0.11441 0.0
H1932 H 0.4204 0.40295 0.15717 0.0
H1933 H 0.42913 0.39455 0.17636 0.0
H1934 H 0.44383 0.3859 0.13392 0.0
H1935 H 0.43532 0.39441 0.11448 0.0
C1936 C 0.38239 0.38584 0.07041 0.0
C1937 C 0.38583 0.37966 0.05945 0.0
C1938 C 0.3898 0.39269 0.08355 0.0
C1939 C 0.40096 0.39378 0.0857 0.0
C1940 C 0.40422 0.38726 0.07513 0.0
C1941 C 0.39671 0.38022 0.06219 0.0
C1942 C 0.40933 0.40186 0.09873 0.0
C1943 C 0.4146 0.39752 0.1099 0.0
C1944 C 0.41204 0.41375 0.1003 0.0
C1945 C 0.40756 0.41923 0.08815 0.0
C1946 C 0.40964 0.41918 0.07072 0.0
C1947 C 0.40528 0.42423 0.05932 0.0
C1948 C 0.3989 0.42945 0.06522 0.0
C1949 C 0.3969 0.42965 0.08253 0.0
C1950 C 0.40123 0.4246 0.09399 0.0
C1951 C 0.45245 0.43403 0.1508 0.0
C1952 C 0.44845 0.43876 0.16344 0.0
C1953 C 0.44485 0.42694 0.13797 0.0
C1954 C 0.4331 0.42444 0.13749 0.0
C1955 C 0.42917 0.42942 0.14975 0.0
C1956 C 0.43673 0.43644 0.16264 0.0
C1957 C 0.42482 0.41643 0.12444 0.0
C1958 C 0.41959 0.4208 0.1133 0.0
C1959 C 0.42229 0.40463 0.12273 0.0
C1960 C 0.42732 0.39942 0.13439 0.0
C1961 C 0.42557 0.39933 0.15194 0.0
C1962 C 0.43047 0.39454 0.16286 0.0
C1963 C 0.43706 0.38972 0.15637 0.0
C1964 C 0.43874 0.38965 0.13893 0.0
C1965 C 0.43387 0.39445 0.12796 0.0
H1966 H 0.44085 0.38602 0.16484 0.0
H1967 H 0.39553 0.43335 0.05638 0.0
H1968 H 0.6637 0.70339 0.40694 0.0
H1969 H 0.66414 0.71572 0.43062 0.0
H1970 H 0.6788 0.74608 0.39758 0.0
H1971 H 0.67925 0.73393 0.3745 0.0
H1972 H 0.68972 0.75301 0.42402 0.0
H1973 H 0.64818 0.72997 0.41369 0.0
H1974 H 0.6289 0.7119 0.4099 0.0
H1975 H 0.63091 0.70083 0.46028 0.0
H1976 H 0.65027 0.71876 0.4643 0.0
H1977 H 0.67587 0.78878 0.47831 0.0
H1978 H 0.67351 0.77523 0.45513 0.0
H1979 H 0.6768 0.75207 0.49067 0.0
H1980 H 0.6795 0.76574 0.51375 0.0
H1981 H 0.65647 0.74158 0.46383 0.0
H1982 H 0.69908 0.76598 0.47218 0.0
H1983 H 0.71742 0.78517 0.47463 0.0
H1984 H 0.71166 0.79491 0.42521 0.0
H1985 H 0.69317 0.77583 0.42259 0.0
C1986 C 0.66696 0.7127 0.40485 0.0
C1987 C 0.67145 0.71777 0.38902 0.0
C1988 C 0.66713 0.71974 0.41831 0.0
C1989 C 0.67134 0.73188 0.41595 0.0
C1990 C 0.67557 0.7368 0.3999 0.0
C1991 C 0.67578 0.72986 0.38667 0.0
C1992 C 0.67188 0.73963 0.43021 0.0
C1993 C 0.68232 0.7505 0.43249 0.0
C1994 C 0.66237 0.73643 0.44159 0.0
C1995 C 0.65073 0.72565 0.43923 0.0
C1996 C 0.64455 0.72364 0.42391 0.0
C1997 C 0.6336 0.71343 0.42174 0.0
C1998 C 0.6287 0.70521 0.43483 0.0
C1999 C 0.63472 0.70719 0.45014 0.0
C2000 C 0.64568 0.71738 0.45238 0.0
C2001 C 0.67604 0.78077 0.48112 0.0
C2002 C 0.67793 0.77831 0.49773 0.0
C2003 C 0.67469 0.77306 0.46794 0.0
C2004 C 0.67497 0.76267 0.47126 0.0
C2005 C 0.67653 0.76004 0.4879 0.0
C2006 C 0.67814 0.76786 0.50102 0.0
C2007 C 0.67416 0.7548 0.45726 0.0
C2008 C 0.66374 0.74397 0.45516 0.0
C2009 C 0.68353 0.75814 0.44574 0.0
C2010 C 0.69468 0.76955 0.44728 0.0
C2011 C 0.70166 0.77226 0.46191 0.0
C2012 C 0.7121 0.7831 0.46332 0.0
C2013 C 0.71569 0.79127 0.45011 0.0
C2014 C 0.70886 0.78858 0.43545 0.0
C2015 C 0.69841 0.77776 0.43399 0.0
H2016 H 0.72377 0.79965 0.45122 0.0
H2017 H 0.62022 0.69731 0.43311 0.0
H2018 H 0.28634 0.96503 0.4004 0.0
H2019 H 0.27552 0.95208 0.424 0.0
H2020 H 0.29361 0.93255 0.41625 0.0
H2021 H 0.30451 0.94547 0.39256 0.0
H2022 H 0.26942 0.91819 0.41871 0.0
H2023 H 0.3004 0.95025 0.44977 0.0
H2024 H 0.31305 0.97104 0.45813 0.0
H2025 H 0.28261 0.97249 0.47487 0.0
H2026 H 0.26974 0.95175 0.46639 0.0
H2027 H 0.24744 0.88277 0.49237 0.0
H2028 H 0.25982 0.89613 0.47012 0.0
H2029 H 0.24612 0.91933 0.48083 0.0
H2030 H 0.23428 0.90641 0.5038 0.0
H2031 H 0.26873 0.93187 0.47695 0.0
H2032 H 0.23758 0.90068 0.44522 0.0
H2033 H 0.22429 0.88017 0.43614 0.0
H2034 H 0.25404 0.87732 0.41983 0.0
H2035 H 0.26753 0.89777 0.42902 0.0
C2036 C 0.28813 0.95807 0.40381 0.0
C2037 C 0.29629 0.95629 0.39456 0.0
C2038 C 0.28195 0.95069 0.41734 0.0
C2039 C 0.28379 0.94137 0.42191 0.0
C2040 C 0.29207 0.93969 0.41292 0.0
C2041 C 0.29833 0.94712 0.39944 0.0
C2042 C 0.27666 0.93309 0.43557 0.0
C2043 C 0.2694 0.92113 0.43153 0.0
C2044 C 0.27637 0.93701 0.45213 0.0
C2045 C 0.2841 0.94947 0.45731 0.0
C2046 C 0.29639 0.95503 0.45511 0.0
C2047 C 0.3036 0.9668 0.45989 0.0
C2048 C 0.29863 0.97309 0.46699 0.0
C2049 C 0.28644 0.96761 0.46935 0.0
C2050 C 0.27919 0.95584 0.46458 0.0
C2051 C 0.2471 0.89075 0.49009 0.0
C2052 C 0.23982 0.89346 0.49994 0.0
C2053 C 0.25409 0.89832 0.47719 0.0
C2054 C 0.25382 0.90869 0.47362 0.0
C2055 C 0.24648 0.91137 0.4833 0.0
C2056 C 0.23958 0.90387 0.49632 0.0
C2057 C 0.2614 0.91691 0.46011 0.0
C2058 C 0.26875 0.92888 0.46416 0.0
C2059 C 0.26166 0.91302 0.44349 0.0
C2060 C 0.25357 0.90071 0.43797 0.0
C2061 C 0.2413 0.89565 0.43982 0.0
C2062 C 0.23373 0.88404 0.43464 0.0
C2063 C 0.23832 0.87743 0.42746 0.0
C2064 C 0.2505 0.88244 0.42542 0.0
C2065 C 0.25811 0.89404 0.4306 0.0
H2066 H 0.23244 0.86845 0.42345 0.0
H2067 H 0.30423 0.9822 0.47069 0.0
H2068 H 0.04475 0.31934 0.3918 0.0
H2069 H 0.05707 0.32043 0.41547 0.0
H2070 H 0.06738 0.35697 0.42317 0.0
H2071 H 0.05532 0.35606 0.39883 0.0
H2072 H 0.08587 0.35467 0.42602 0.0
H2073 H 0.04766 0.33441 0.45041 0.0
H2074 H 0.02656 0.31953 0.45271 0.0
H2075 H 0.03512 0.29187 0.45319 0.0
H2076 H 0.05627 0.30658 0.45067 0.0
H2077 H 0.1101 0.35308 0.50775 0.0
H2078 H 0.09822 0.3548 0.48531 0.0
H2079 H 0.0916 0.32165 0.46439 0.0
H2080 H 0.10391 0.32007 0.48625 0.0
H2081 H 0.07093 0.3237 0.47031 0.0
H2082 H 0.10953 0.34505 0.44428 0.0
H2083 H 0.13046 0.36061 0.44306 0.0
H2084 H 0.12056 0.38719 0.44768 0.0
H2085 H 0.09957 0.37177 0.44917 0.0
C2086 C 0.04953 0.32761 0.39858 0.0
C2087 C 0.04897 0.33761 0.39346 0.0
C2088 C 0.05656 0.3282 0.41222 0.0
C2089 C 0.063 0.33872 0.42138 0.0
C2090 C 0.06246 0.34874 0.41636 0.0
C2091 C 0.05553 0.3482 0.40249 0.0
C2092 C 0.07056 0.33922 0.43579 0.0
C2093 C 0.08253 0.34802 0.43588 0.0
C2094 C 0.06628 0.3305 0.44863 0.0
C2095 C 0.05356 0.32161 0.45023 0.0
C2096 C 0.04504 0.32515 0.4509 0.0
C2097 C 0.03307 0.31675 0.45225 0.0
C2098 C 0.0295 0.30476 0.45306 0.0
C2099 C 0.0379 0.30116 0.45256 0.0
C2100 C 0.04988 0.30953 0.45119 0.0
C2101 C 0.10637 0.34627 0.49818 0.0
C2102 C 0.10799 0.33641 0.49891 0.0
C2103 C 0.0995 0.34724 0.48543 0.0
C2104 C 0.09401 0.33834 0.47325 0.0
C2105 C 0.0957 0.32858 0.47376 0.0
C2106 C 0.1027 0.32767 0.48635 0.0
C2107 C 0.08619 0.33896 0.46025 0.0
C2108 C 0.07419 0.33039 0.46051 0.0
C2109 C 0.09039 0.348 0.44795 0.0
C2110 C 0.103 0.35726 0.44704 0.0
C2111 C 0.11183 0.35421 0.4452 0.0
C2112 C 0.12369 0.363 0.44443 0.0
C2113 C 0.12684 0.37488 0.44535 0.0
C2114 C 0.11811 0.37799 0.447 0.0
C2115 C 0.10623 0.36923 0.4478 0.0
H2116 H 0.13603 0.38167 0.44474 0.0
H2117 H 0.02023 0.29827 0.45411 0.0
H2118 H 0.05157 0.34911 0.2962 0.0
H2119 H 0.06303 0.34789 0.27254 0.0
H2120 H 0.0542 0.31289 0.2882 0.0
H2121 H 0.04246 0.31388 0.3116 0.0
H2122 H 0.08011 0.33134 0.28272 0.0
H2123 H 0.04145 0.3126 0.25646 0.0
H2124 H 0.02292 0.31166 0.24775 0.0
H2125 H 0.04246 0.34314 0.21824 0.0
H2126 H 0.06113 0.34436 0.22699 0.0
H2127 H 0.10504 0.31594 0.21506 0.0
H2128 H 0.09234 0.31617 0.23738 0.0
H2129 H 0.08931 0.34333 0.21085 0.0
H2130 H 0.10116 0.34247 0.18784 0.0
H2131 H 0.06911 0.32883 0.22223 0.0
H2132 H 0.10732 0.34868 0.24734 0.0
H2133 H 0.12665 0.35173 0.25649 0.0
H2134 H 0.10949 0.32126 0.28855 0.0
H2135 H 0.09004 0.31794 0.27942 0.0
C2136 C 0.05196 0.3411 0.29449 0.0
C2137 C 0.0461 0.33158 0.30574 0.0
C2138 C 0.0585 0.34043 0.28099 0.0
C2139 C 0.05945 0.33031 0.27871 0.0
C2140 C 0.05355 0.32076 0.2898 0.0
C2141 C 0.0468 0.32133 0.30308 0.0
C2142 C 0.06695 0.32988 0.26507 0.0
C2143 C 0.07767 0.33062 0.26948 0.0
C2144 C 0.06391 0.3294 0.24785 0.0
C2145 C 0.05269 0.32864 0.24253 0.0
C2146 C 0.0418 0.31939 0.24825 0.0
C2147 C 0.03127 0.31879 0.24327 0.0
C2148 C 0.03151 0.32735 0.23249 0.0
C2149 C 0.04228 0.33652 0.22662 0.0
C2150 C 0.05284 0.33716 0.23157 0.0
C2151 C 0.10158 0.32188 0.21383 0.0
C2152 C 0.10423 0.32922 0.19957 0.0
C2153 C 0.09443 0.32213 0.22678 0.0
C2154 C 0.08999 0.32992 0.22601 0.0
C2155 C 0.09264 0.33727 0.21183 0.0
C2156 C 0.09961 0.33688 0.19875 0.0
C2157 C 0.08239 0.33026 0.23976 0.0
C2158 C 0.07163 0.32953 0.23542 0.0
C2159 C 0.08554 0.33105 0.25706 0.0
C2160 C 0.09722 0.33299 0.26255 0.0
C2161 C 0.10767 0.34257 0.25623 0.0
C2162 C 0.11865 0.34436 0.26144 0.0
C2163 C 0.1193 0.33667 0.27305 0.0
C2164 C 0.10897 0.32719 0.27953 0.0
C2165 C 0.09797 0.32536 0.27435 0.0
H2166 H 0.12781 0.33807 0.27707 0.0
H2167 H 0.02335 0.32687 0.22865 0.0
H2168 H 0.65825 0.70653 0.29463 0.0
H2169 H 0.65944 0.71901 0.2707 0.0
H2170 H 0.69584 0.74336 0.28267 0.0
H2171 H 0.69484 0.73082 0.30631 0.0
H2172 H 0.67914 0.75292 0.27905 0.0
H2173 H 0.69301 0.72928 0.25088 0.0
H2174 H 0.69153 0.71053 0.24208 0.0
H2175 H 0.65913 0.70078 0.21607 0.0
H2176 H 0.66033 0.71941 0.22494 0.0
H2177 H 0.69367 0.79191 0.2099 0.0
H2178 H 0.6935 0.77898 0.23211 0.0
H2179 H 0.66358 0.74939 0.20863 0.0
H2180 H 0.6644 0.762 0.18554 0.0
H2181 H 0.67711 0.74222 0.2185 0.0
H2182 H 0.66192 0.76435 0.24592 0.0
H2183 H 0.66146 0.78206 0.25536 0.0
H2184 H 0.69342 0.79344 0.28349 0.0
H2185 H 0.69415 0.77586 0.27404 0.0
C2186 C 0.66655 0.71446 0.29203 0.0
C2187 C 0.67646 0.71768 0.30234 0.0
C2188 C 0.66721 0.72157 0.27838 0.0
C2189 C 0.67772 0.73209 0.275 0.0
C2190 C 0.68766 0.73526 0.28512 0.0
C2191 C 0.68708 0.72805 0.29854 0.0
C2192 C 0.67821 0.74003 0.26133 0.0
C2193 C 0.67886 0.7507 0.26577 0.0
C2194 C 0.6774 0.73687 0.24411 0.0
C2195 C 0.6767 0.72568 0.23874 0.0
C2196 C 0.68551 0.72309 0.24343 0.0
C2197 C 0.68474 0.71249 0.23839 0.0
C2198 C 0.67523 0.70445 0.22856 0.0
C2199 C 0.66649 0.70701 0.22371 0.0
C2200 C 0.66721 0.71759 0.22873 0.0
C2201 C 0.68714 0.78263 0.20927 0.0
C2202 C 0.67902 0.7781 0.19581 0.0
C2203 C 0.68693 0.77525 0.22221 0.0
C2204 C 0.67838 0.7632 0.22231 0.0
C2205 C 0.67025 0.75865 0.20895 0.0
C2206 C 0.67061 0.76596 0.19582 0.0
C2207 C 0.67804 0.75526 0.2361 0.0
C2208 C 0.67739 0.74454 0.23172 0.0
C2209 C 0.67856 0.75826 0.25343 0.0
C2210 C 0.67815 0.76885 0.25913 0.0
C2211 C 0.6689 0.77067 0.25402 0.0
C2212 C 0.66858 0.78068 0.25939 0.0
C2213 C 0.67742 0.78889 0.26998 0.0
C2214 C 0.68659 0.78709 0.27526 0.0
C2215 C 0.68695 0.7771 0.26991 0.0
H2216 H 0.67716 0.79663 0.27413 0.0
H2217 H 0.67465 0.69625 0.22467 0.0
H2218 H 0.29468 0.94359 0.31047 0.0
H2219 H 0.28271 0.93196 0.28677 0.0
H2220 H 0.27364 0.9587 0.27551 0.0
H2221 H 0.28529 0.97024 0.29991 0.0
H2222 H 0.25495 0.93811 0.27218 0.0
H2223 H 0.29414 0.95483 0.25114 0.0
H2224 H 0.3151 0.96028 0.25122 0.0
H2225 H 0.30519 0.9237 0.25285 0.0
H2226 H 0.28416 0.91802 0.253 0.0
H2227 H 0.23194 0.91143 0.19105 0.0
H2228 H 0.24337 0.92509 0.21374 0.0
H2229 H 0.25109 0.89921 0.23437 0.0
H2230 H 0.2395 0.88541 0.21194 0.0
H2231 H 0.27089 0.92104 0.23104 0.0
H2232 H 0.23136 0.9049 0.25341 0.0
H2233 H 0.2106 0.90011 0.25252 0.0
H2234 H 0.2217 0.93682 0.24679 0.0
H2235 H 0.24254 0.94182 0.24742 0.0
C2236 C 0.29022 0.94707 0.30292 0.0
C2237 C 0.29104 0.95791 0.30701 0.0
C2238 C 0.2834 0.94041 0.28927 0.0
C2239 C 0.27747 0.94455 0.27904 0.0
C2240 C 0.27818 0.95534 0.28314 0.0
C2241 C 0.28487 0.96195 0.29705 0.0
C2242 C 0.27035 0.9374 0.26435 0.0
C2243 C 0.25852 0.93457 0.26301 0.0
C2244 C 0.27492 0.93263 0.25243 0.0
C2245 C 0.28756 0.936 0.2522 0.0
C2246 C 0.29642 0.94795 0.25161 0.0
C2247 C 0.30832 0.95108 0.25161 0.0
C2248 C 0.31147 0.94234 0.25207 0.0
C2249 C 0.30273 0.93045 0.2525 0.0
C2250 C 0.29082 0.92727 0.25252 0.0
C2251 C 0.23588 0.90855 0.20058 0.0
C2252 C 0.23479 0.8973 0.19964 0.0
C2253 C 0.24246 0.9164 0.21351 0.0
C2254 C 0.24806 0.91316 0.22578 0.0
C2255 C 0.24689 0.90191 0.22499 0.0
C2256 C 0.24028 0.89405 0.21212 0.0
C2257 C 0.25549 0.92159 0.23914 0.0
C2258 C 0.26739 0.92468 0.24016 0.0
C2259 C 0.25102 0.92672 0.25058 0.0
C2260 C 0.2385 0.92372 0.25028 0.0
C2261 C 0.22937 0.91194 0.25182 0.0
C2262 C 0.21759 0.90919 0.25139 0.0
C2263 C 0.21483 0.91815 0.24955 0.0
C2264 C 0.22385 0.92989 0.24819 0.0
C2265 C 0.23565 0.93268 0.2486 0.0
H2266 H 0.20571 0.91601 0.24922 0.0
H2267 H 0.32068 0.94479 0.25207 0.0
H2268 H 0.68698 0.97317 0.29372 0.0
H2269 H 0.68774 0.96139 0.2701 0.0
H2270 H 0.65694 0.93068 0.28953 0.0
H2271 H 0.65592 0.94238 0.31287 0.0
H2272 H 0.67784 0.92823 0.28145 0.0
H2273 H 0.65221 0.94154 0.25811 0.0
H2274 H 0.64724 0.9567 0.24987 0.0
H2275 H 0.67722 0.97256 0.21675 0.0
H2276 H 0.68247 0.95758 0.225 0.0
H2277 H 0.66045 0.88589 0.21652 0.0
H2278 H 0.66183 0.89928 0.23896 0.0
H2279 H 0.68489 0.92911 0.20789 0.0
H2280 H 0.68297 0.91578 0.18499 0.0
H2281 H 0.66958 0.9333 0.22178 0.0
H2282 H 0.69511 0.92028 0.2428 0.0
H2283 H 0.7015 0.90618 0.25105 0.0
H2284 H 0.67408 0.89119 0.28843 0.0
H2285 H 0.66742 0.9051 0.28024 0.0
C2286 C 0.68032 0.96393 0.29287 0.0
C2287 C 0.67137 0.95871 0.30514 0.0
C2288 C 0.68077 0.95723 0.2794 0.0
C2289 C 0.67241 0.94518 0.27816 0.0
C2290 C 0.66347 0.93997 0.29033 0.0
C2291 C 0.66287 0.94669 0.30359 0.0
C2292 C 0.67305 0.9379 0.26434 0.0
C2293 C 0.67594 0.92923 0.2684 0.0
C2294 C 0.67098 0.93955 0.24731 0.0
C2295 C 0.66782 0.94854 0.24233 0.0
C2296 C 0.65782 0.94834 0.24921 0.0
C2297 C 0.65493 0.95687 0.24451 0.0
C2298 C 0.66193 0.96561 0.23284 0.0
C2299 C 0.67182 0.9658 0.22581 0.0
C2300 C 0.67475 0.95729 0.23049 0.0
C2301 C 0.66577 0.89529 0.21439 0.0
C2302 C 0.67159 0.89972 0.19888 0.0
C2303 C 0.66668 0.90296 0.22735 0.0
C2304 C 0.6736 0.91524 0.22525 0.0
C2305 C 0.67954 0.91968 0.20987 0.0
C2306 C 0.67854 0.91202 0.19683 0.0
C2307 C 0.67423 0.92341 0.23883 0.0
C2308 C 0.6716 0.93229 0.23476 0.0
C2309 C 0.67675 0.92208 0.25585 0.0
C2310 C 0.6807 0.91367 0.2608 0.0
C2311 C 0.69038 0.91391 0.25269 0.0
C2312 C 0.69406 0.90597 0.25737 0.0
C2313 C 0.68818 0.89778 0.27023 0.0
C2314 C 0.67862 0.89754 0.27846 0.0
C2315 C 0.67489 0.90546 0.27381 0.0
H2316 H 0.69105 0.89164 0.27384 0.0
H2317 H 0.65968 0.97221 0.2292 0.0
H2318 H 0.03408 0.71843 0.29442 0.0
H2319 H 0.04541 0.73006 0.27003 0.0
H2320 H 0.07503 0.72656 0.28601 0.0
H2321 H 0.06362 0.71457 0.30996 0.0
H2322 H 0.06402 0.75027 0.26785 0.0
H2323 H 0.09202 0.72806 0.25345 0.0
H2324 H 0.08999 0.7083 0.25463 0.0
H2325 H 0.05237 0.69227 0.25028 0.0
H2326 H 0.05419 0.71192 0.24885 0.0
H2327 H 0.11232 0.78898 0.21679 0.0
H2328 H 0.09998 0.77556 0.2392 0.0
H2329 H 0.08337 0.74735 0.20277 0.0
H2330 H 0.09599 0.76062 0.18055 0.0
H2331 H 0.08663 0.73876 0.22971 0.0
H2332 H 0.06997 0.76318 0.21819 0.0
H2333 H 0.06984 0.78182 0.21446 0.0
H2334 H 0.08074 0.79125 0.26602 0.0
H2335 H 0.08109 0.77273 0.27 0.0
C2336 C 0.04296 0.72002 0.29261 0.0
C2337 C 0.04792 0.71552 0.3041 0.0
C2338 C 0.04945 0.72671 0.2787 0.0
C2339 C 0.06106 0.72912 0.27604 0.0
C2340 C 0.06601 0.72462 0.28751 0.0
C2341 C 0.05948 0.71779 0.30127 0.0
C2342 C 0.06815 0.73671 0.26167 0.0
C2343 C 0.06893 0.74772 0.25949 0.0
C2344 C 0.07442 0.73334 0.25052 0.0
C2345 C 0.07324 0.72147 0.2512 0.0
C2346 C 0.08332 0.72032 0.25267 0.0
C2347 C 0.0822 0.70913 0.2534 0.0
C2348 C 0.07106 0.69904 0.25258 0.0
C2349 C 0.061 0.7001 0.25098 0.0
C2350 C 0.06207 0.71126 0.25023 0.0
C2351 C 0.10605 0.7799 0.21363 0.0
C2352 C 0.10511 0.77583 0.19695 0.0
C2353 C 0.09896 0.77224 0.22641 0.0
C2354 C 0.09058 0.76046 0.22267 0.0
C2355 C 0.08976 0.75637 0.20603 0.0
C2356 C 0.09698 0.76396 0.19333 0.0
C2357 C 0.08261 0.75238 0.23601 0.0
C2358 C 0.08169 0.74129 0.23804 0.0
C2359 C 0.0759 0.7555 0.24665 0.0
C2360 C 0.07565 0.76662 0.24434 0.0
C2361 C 0.07241 0.76927 0.2287 0.0
C2362 C 0.07229 0.7798 0.22654 0.0
C2363 C 0.07531 0.78772 0.23998 0.0
C2364 C 0.07842 0.78511 0.25562 0.0
C2365 C 0.07857 0.77459 0.25783 0.0
H2366 H 0.07521 0.79588 0.23829 0.0
H2367 H 0.07021 0.69039 0.25316 0.0
H2368 H 0.29747 0.35668 0.30822 0.0
H2369 H 0.2851 0.35625 0.28501 0.0
H2370 H 0.27569 0.32032 0.27388 0.0
H2371 H 0.28778 0.32055 0.29771 0.0
H2372 H 0.28559 0.35439 0.25333 0.0
H2373 H 0.24822 0.3056 0.2564 0.0
H2374 H 0.23842 0.28966 0.27744 0.0
H2375 H 0.24789 0.31532 0.31698 0.0
H2376 H 0.2576 0.33139 0.29616 0.0
H2377 H 0.25103 0.3441 0.18063 0.0
H2378 H 0.26262 0.34198 0.20317 0.0
H2379 H 0.23563 0.33646 0.23933 0.0
H2380 H 0.22374 0.33799 0.21651 0.0
H2381 H 0.24377 0.32293 0.24741 0.0
H2382 H 0.26196 0.36396 0.23394 0.0
H2383 H 0.27091 0.38152 0.21555 0.0
H2384 H 0.29839 0.37431 0.20172 0.0
H2385 H 0.28951 0.35661 0.21987 0.0
C2386 C 0.29281 0.34867 0.30084 0.0
C2387 C 0.29361 0.33863 0.30488 0.0
C2388 C 0.28573 0.34845 0.2875 0.0
C2389 C 0.27933 0.33822 0.27773 0.0
C2390 C 0.28033 0.32825 0.28142 0.0
C2391 C 0.28731 0.32841 0.29499 0.0
C2392 C 0.27166 0.33815 0.26373 0.0
C2393 C 0.27645 0.34747 0.25204 0.0
C2394 C 0.25966 0.32928 0.26214 0.0
C2395 C 0.25375 0.31968 0.27474 0.0
C2396 C 0.24818 0.30783 0.26958 0.0
C2397 C 0.24264 0.29877 0.28146 0.0
C2398 C 0.24257 0.30147 0.29854 0.0
C2399 C 0.24799 0.31324 0.30376 0.0
C2400 C 0.25352 0.32232 0.29193 0.0
C2401 C 0.24758 0.34239 0.1934 0.0
C2402 C 0.23658 0.34134 0.19692 0.0
C2403 C 0.25421 0.34122 0.20629 0.0
C2404 C 0.25016 0.33934 0.22308 0.0
C2405 C 0.23899 0.33795 0.22652 0.0
C2406 C 0.23222 0.33886 0.21352 0.0
C2407 C 0.25771 0.33917 0.23706 0.0
C2408 C 0.25292 0.3298 0.24868 0.0
C2409 C 0.26961 0.34824 0.239 0.0
C2410 C 0.27501 0.35891 0.22813 0.0
C2411 C 0.26987 0.36608 0.22689 0.0
C2412 C 0.27493 0.37606 0.21652 0.0
C2413 C 0.2852 0.37902 0.20744 0.0
C2414 C 0.29044 0.37201 0.20875 0.0
C2415 C 0.2854 0.36201 0.21908 0.0
H2416 H 0.2891 0.38675 0.19942 0.0
H2417 H 0.23829 0.29445 0.30772 0.0
H2418 H 0.29204 0.32472 0.40211 0.0
H2419 H 0.28024 0.3251 0.4258 0.0
H2420 H 0.28646 0.35923 0.40957 0.0
H2421 H 0.29889 0.35919 0.38659 0.0
H2422 H 0.28658 0.35945 0.44118 0.0
H2423 H 0.2597 0.33146 0.40112 0.0
H2424 H 0.25146 0.31402 0.3825 0.0
H2425 H 0.24565 0.29168 0.42541 0.0
H2426 H 0.25399 0.30901 0.44427 0.0
H2427 H 0.2361 0.3561 0.4819 0.0
H2428 H 0.24882 0.35557 0.45974 0.0
H2429 H 0.25205 0.32894 0.4873 0.0
H2430 H 0.23991 0.32983 0.50999 0.0
H2431 H 0.24687 0.3247 0.45059 0.0
H2432 H 0.27373 0.35415 0.49026 0.0
H2433 H 0.2809 0.37215 0.5075 0.0
H2434 H 0.2853 0.39247 0.4627 0.0
H2435 H 0.27798 0.37455 0.44522 0.0
C2436 C 0.29099 0.33235 0.40375 0.0
C2437 C 0.29635 0.34191 0.39249 0.0
C2438 C 0.28414 0.33252 0.4172 0.0
C2439 C 0.28214 0.34205 0.41928 0.0
C2440 C 0.2878 0.35175 0.40829 0.0
C2441 C 0.29492 0.35172 0.39513 0.0
C2442 C 0.27405 0.34189 0.43269 0.0
C2443 C 0.27785 0.35188 0.44302 0.0
C2444 C 0.26265 0.33199 0.43537 0.0
C2445 C 0.25758 0.32155 0.42408 0.0
C2446 C 0.25673 0.32284 0.40657 0.0
C2447 C 0.25204 0.31297 0.39597 0.0
C2448 C 0.24806 0.30175 0.40276 0.0
C2449 C 0.24875 0.30037 0.42017 0.0
C2450 C 0.25345 0.31021 0.43082 0.0
C2451 C 0.23958 0.3502 0.4834 0.0
C2452 C 0.23695 0.34304 0.49788 0.0
C2453 C 0.24679 0.34985 0.47063 0.0
C2454 C 0.25138 0.34224 0.47194 0.0
C2455 C 0.24853 0.33484 0.48604 0.0
C2456 C 0.24149 0.33531 0.49896 0.0
C2457 C 0.25945 0.34224 0.45881 0.0
C2458 C 0.25562 0.33223 0.44861 0.0
C2459 C 0.27068 0.3522 0.45597 0.0
C2460 C 0.2752 0.36299 0.46646 0.0
C2461 C 0.27613 0.36244 0.4841 0.0
C2462 C 0.28024 0.37263 0.49391 0.0
C2463 C 0.28352 0.38344 0.4862 0.0
C2464 C 0.28274 0.38409 0.46866 0.0
C2465 C 0.27862 0.37392 0.45879 0.0
H2466 H 0.2867 0.39133 0.49382 0.0
H2467 H 0.24443 0.29412 0.39454 0.0
H2468 H 0.68839 0.9612 0.38718 0.0
H2469 H 0.68783 0.94859 0.41028 0.0
H2470 H 0.6537 0.94294 0.42534 0.0
H2471 H 0.65402 0.95521 0.40182 0.0
H2472 H 0.68722 0.94891 0.44261 0.0
H2473 H 0.6369 0.91563 0.44118 0.0
H2474 H 0.62048 0.90751 0.42071 0.0
H2475 H 0.64487 0.91473 0.38002 0.0
H2476 H 0.66141 0.92274 0.40026 0.0
H2477 H 0.672 0.91353 0.51585 0.0
H2478 H 0.67308 0.92648 0.49284 0.0
H2479 H 0.66368 0.89823 0.45709 0.0
H2480 H 0.66214 0.8851 0.48028 0.0
H2481 H 0.6525 0.90883 0.44914 0.0
H2482 H 0.69286 0.92223 0.46185 0.0
H2483 H 0.71053 0.92929 0.47978 0.0
H2484 H 0.70834 0.9599 0.49332 0.0
H2485 H 0.69056 0.95294 0.47563 0.0
C2486 C 0.68079 0.95734 0.39546 0.0
C2487 C 0.6712 0.95914 0.39255 0.0
C2488 C 0.68049 0.95013 0.40871 0.0
C2489 C 0.67063 0.94463 0.41942 0.0
C2490 C 0.66128 0.94684 0.41701 0.0
C2491 C 0.6615 0.95393 0.40361 0.0
C2492 C 0.67008 0.93639 0.43283 0.0
C2493 C 0.67961 0.94015 0.44404 0.0
C2494 C 0.66031 0.92483 0.43449 0.0
C2495 C 0.6504 0.9199 0.42223 0.0
C2496 C 0.63875 0.91544 0.42787 0.0
C2497 C 0.62942 0.91086 0.41631 0.0
C2498 C 0.63163 0.91064 0.39907 0.0
C2499 C 0.64317 0.91495 0.39337 0.0
C2500 C 0.65253 0.91952 0.40488 0.0
C2501 C 0.67024 0.91012 0.50305 0.0
C2502 C 0.66708 0.89835 0.4998 0.0
C2503 C 0.67089 0.91754 0.48989 0.0
C2504 C 0.66868 0.91343 0.47313 0.0
C2505 C 0.66544 0.90163 0.46989 0.0
C2506 C 0.66458 0.89414 0.48312 0.0
C2507 C 0.66958 0.9214 0.45906 0.0
C2508 C 0.6601 0.91759 0.44773 0.0
C2509 C 0.67959 0.93276 0.45693 0.0
C2510 C 0.69031 0.93701 0.46753 0.0
C2511 C 0.6961 0.93043 0.46874 0.0
C2512 C 0.70614 0.93442 0.47885 0.0
C2513 C 0.71054 0.94502 0.48772 0.0
C2514 C 0.70492 0.95168 0.48646 0.0
C2515 C 0.69486 0.94772 0.47638 0.0
H2516 H 0.71832 0.9481 0.49554 0.0
H2517 H 0.6244 0.9071 0.39014 0.0
H2518 H 0.05028 0.70228 0.40311 0.0
H2519 H 0.06275 0.71395 0.42678 0.0
H2520 H 0.06239 0.74465 0.40792 0.0
H2521 H 0.04975 0.73303 0.38442 0.0
H2522 H 0.08557 0.74779 0.41564 0.0
H2523 H 0.04715 0.73321 0.44045 0.0
H2524 H 0.02713 0.71782 0.44871 0.0
H2525 H 0.04166 0.7012 0.47954 0.0
H2526 H 0.06178 0.71641 0.47126 0.0
H2527 H 0.11514 0.78538 0.48518 0.0
H2528 H 0.10124 0.77452 0.4625 0.0
H2529 H 0.09269 0.74165 0.48668 0.0
H2530 H 0.10586 0.75241 0.50993 0.0
H2531 H 0.07354 0.73998 0.47585 0.0
H2532 H 0.11144 0.75304 0.45091 0.0
H2533 H 0.13178 0.76735 0.44226 0.0
H2534 H 0.11893 0.78547 0.41134 0.0
H2535 H 0.09851 0.77135 0.41999 0.0
C2536 C 0.05277 0.71148 0.40408 0.0
C2537 C 0.04902 0.71672 0.3919 0.0
C2538 C 0.05988 0.71813 0.41761 0.0
C2539 C 0.06348 0.73015 0.41906 0.0
C2540 C 0.0597 0.73538 0.40699 0.0
C2541 C 0.05243 0.72871 0.39363 0.0
C2542 C 0.07146 0.73733 0.43291 0.0
C2543 C 0.08292 0.74622 0.42881 0.0
C2544 C 0.06806 0.73501 0.45006 0.0
C2545 C 0.05597 0.72588 0.45509 0.0
C2546 C 0.04608 0.72621 0.44886 0.0
C2547 C 0.03471 0.71753 0.45358 0.0
C2548 C 0.03312 0.70852 0.46461 0.0
C2549 C 0.0429 0.70818 0.47098 0.0
C2550 C 0.05429 0.71683 0.46629 0.0
C2551 C 0.11022 0.77585 0.48579 0.0
C2552 C 0.11175 0.76982 0.4994 0.0
C2553 C 0.10236 0.76962 0.47267 0.0
C2554 C 0.09603 0.75722 0.47269 0.0
C2555 C 0.09749 0.7512 0.48629 0.0
C2556 C 0.10519 0.7574 0.49951 0.0
C2557 C 0.0878 0.75048 0.45867 0.0
C2558 C 0.07625 0.74162 0.46271 0.0
C2559 C 0.0912 0.7527 0.44145 0.0
C2560 C 0.10346 0.76122 0.43625 0.0
C2561 C 0.11296 0.76013 0.44238 0.0
C2562 C 0.1245 0.7682 0.43745 0.0
C2563 C 0.12665 0.77733 0.42629 0.0
C2564 C 0.11725 0.7784 0.42001 0.0
C2565 C 0.10569 0.77037 0.42491 0.0
H2566 H 0.13559 0.78356 0.42249 0.0
H2567 H 0.02431 0.70181 0.46825 0.0
H2568 H 0.35559 0.06204 0.72151 0.0
H2569 H 0.35495 0.0733 0.74549 0.0
H2570 H 0.31821 0.04774 0.75327 0.0
H2571 H 0.31868 0.03655 0.72869 0.0
H2572 H 0.32131 0.06898 0.75661 0.0
H2573 H 0.34025 0.04939 0.77998 0.0
H2574 H 0.35449 0.04232 0.78164 0.0
H2575 H 0.38318 0.07806 0.78285 0.0
H2576 H 0.36912 0.08536 0.78095 0.0
H2577 H 0.32465 0.09599 0.83809 0.0
H2578 H 0.32179 0.08195 0.81561 0.0
H2579 H 0.35611 0.10633 0.79544 0.0
H2580 H 0.3589 0.12056 0.81746 0.0
H2581 H 0.35236 0.08346 0.80077 0.0
H2582 H 0.33244 0.10244 0.77525 0.0
H2583 H 0.3176 0.10877 0.77435 0.0
H2584 H 0.28983 0.07276 0.77893 0.0
H2585 H 0.30453 0.06623 0.78009 0.0
C2586 C 0.34737 0.05872 0.72836 0.0
C2587 C 0.3372 0.04833 0.72322 0.0
C2588 C 0.34704 0.06517 0.74216 0.0
C2589 C 0.3366 0.06127 0.75144 0.0
C2590 C 0.32639 0.0509 0.74636 0.0
C2591 C 0.32668 0.04449 0.73235 0.0
C2592 C 0.3364 0.0683 0.7661 0.0
C2593 C 0.32797 0.07195 0.76644 0.0
C2594 C 0.34512 0.07227 0.77892 0.0
C2595 C 0.35362 0.06792 0.78021 0.0
C2596 C 0.3496 0.05575 0.78049 0.0
C2597 C 0.35764 0.0517 0.78149 0.0
C2598 C 0.36973 0.05974 0.78232 0.0
C2599 C 0.37381 0.07184 0.7822 0.0
C2600 C 0.36581 0.07594 0.78119 0.0
C2601 C 0.33149 0.09849 0.82867 0.0
C2602 C 0.34204 0.10941 0.82968 0.0
C2603 C 0.32986 0.09041 0.81589 0.0
C2604 C 0.33876 0.09309 0.80392 0.0
C2605 C 0.34917 0.10406 0.80465 0.0
C2606 C 0.35077 0.11216 0.8173 0.0
C2607 C 0.3375 0.08435 0.79095 0.0
C2608 C 0.34564 0.08036 0.79101 0.0
C2609 C 0.32842 0.07994 0.7787 0.0
C2610 C 0.31959 0.08386 0.77796 0.0
C2611 C 0.32318 0.09589 0.77622 0.0
C2612 C 0.31479 0.09951 0.77563 0.0
C2613 C 0.30278 0.09118 0.77664 0.0
C2614 C 0.29914 0.0792 0.77819 0.0
C2615 C 0.30749 0.07554 0.7788 0.0
H2616 H 0.2963 0.094 0.77617 0.0
H2617 H 0.37594 0.05658 0.78308 0.0
H2618 H 0.97422 0.2995 0.74202 0.0
H2619 H 0.96247 0.28753 0.76597 0.0
H2620 H 0.9315 0.2714 0.73413 0.0
H2621 H 0.94304 0.28414 0.71079 0.0
H2622 H 0.92454 0.27374 0.76159 0.0
H2623 H 0.94942 0.25793 0.74706 0.0
H2624 H 0.96809 0.25824 0.74138 0.0
H2625 H 0.97988 0.27044 0.79191 0.0
H2626 H 0.96132 0.27033 0.79782 0.0
H2627 H 0.89382 0.22057 0.81309 0.0
H2628 H 0.90588 0.23372 0.79005 0.0
H2629 H 0.92721 0.26045 0.8265 0.0
H2630 H 0.915 0.24751 0.84949 0.0
H2631 H 0.93886 0.2525 0.79763 0.0
H2632 H 0.91208 0.26749 0.8103 0.0
H2633 H 0.8922 0.26481 0.81422 0.0
H2634 H 0.88267 0.25085 0.76393 0.0
H2635 H 0.90246 0.25327 0.75982 0.0
C2636 C 0.96489 0.29344 0.74027 0.0
C2637 C 0.9595 0.29272 0.72464 0.0
C2638 C 0.95817 0.28649 0.75389 0.0
C2639 C 0.94608 0.27827 0.75188 0.0
C2640 C 0.94076 0.27764 0.73617 0.0
C2641 C 0.94736 0.2849 0.72279 0.0
C2642 C 0.93889 0.2704 0.76604 0.0
C2643 C 0.92769 0.26902 0.76926 0.0
C2644 C 0.94289 0.26421 0.77632 0.0
C2645 C 0.95403 0.26424 0.77282 0.0
C2646 C 0.95602 0.26075 0.75692 0.0
C2647 C 0.96658 0.26088 0.75367 0.0
C2648 C 0.97518 0.26439 0.76626 0.0
C2649 C 0.97322 0.26774 0.78216 0.0
C2650 C 0.96268 0.26764 0.78547 0.0
C2651 C 0.90107 0.22927 0.81612 0.0
C2652 C 0.90347 0.23309 0.833 0.0
C2653 C 0.90792 0.23674 0.80301 0.0
C2654 C 0.9174 0.24802 0.80665 0.0
C2655 C 0.91992 0.25177 0.82349 0.0
C2656 C 0.91292 0.24442 0.83656 0.0
C2657 C 0.9247 0.25594 0.79286 0.0
C2658 C 0.93584 0.25727 0.78981 0.0
C2659 C 0.92053 0.26179 0.78239 0.0
C2660 C 0.90869 0.26043 0.78483 0.0
C2661 C 0.9057 0.26373 0.80015 0.0
C2662 C 0.89446 0.26229 0.80238 0.0
C2663 C 0.88616 0.25763 0.78935 0.0
C2664 C 0.8891 0.25444 0.77403 0.0
C2665 C 0.90033 0.25585 0.77174 0.0
H2666 H 0.87747 0.25652 0.7911 0.0
H2667 H 0.98335 0.26449 0.76371 0.0
H2668 H 0.70756 0.65863 0.7373 0.0
H2669 H 0.72036 0.66024 0.76086 0.0
H2670 H 0.74449 0.69648 0.74764 0.0
H2671 H 0.73166 0.69499 0.72409 0.0
H2672 H 0.75534 0.6827 0.75173 0.0
H2673 H 0.72914 0.69155 0.78208 0.0
H2674 H 0.70986 0.68852 0.79143 0.0
H2675 H 0.70161 0.65537 0.81372 0.0
H2676 H 0.72078 0.65811 0.80427 0.0
H2677 H 0.79169 0.6912 0.82377 0.0
H2678 H 0.77948 0.69351 0.80239 0.0
H2679 H 0.75035 0.65922 0.81521 0.0
H2680 H 0.76226 0.65709 0.83705 0.0
H2681 H 0.74274 0.6742 0.81166 0.0
H2682 H 0.76749 0.66403 0.77936 0.0
H2683 H 0.78627 0.66611 0.76933 0.0
H2684 H 0.79671 0.70064 0.75011 0.0
H2685 H 0.77804 0.69882 0.76023 0.0
C2686 C 0.71551 0.667 0.73951 0.0
C2687 C 0.71859 0.67668 0.7288 0.0
C2688 C 0.7228 0.66791 0.75301 0.0
C2689 C 0.73336 0.67848 0.75601 0.0
C2690 C 0.73637 0.68824 0.74554 0.0
C2691 C 0.729 0.68739 0.73215 0.0
C2692 C 0.7415 0.67909 0.76953 0.0
C2693 C 0.75269 0.68107 0.7649 0.0
C2694 C 0.7379 0.67667 0.78661 0.0
C2695 C 0.72636 0.67499 0.79234 0.0
C2696 C 0.72317 0.68356 0.78884 0.0
C2697 C 0.71227 0.68191 0.79419 0.0
C2698 C 0.7045 0.67175 0.80313 0.0
C2699 C 0.70763 0.66323 0.80678 0.0
C2700 C 0.71852 0.66484 0.80145 0.0
C2701 C 0.78266 0.68418 0.82212 0.0
C2702 C 0.77801 0.67391 0.83208 0.0
C2703 C 0.77572 0.68547 0.80977 0.0
C2704 C 0.76402 0.67648 0.80705 0.0
C2705 C 0.75935 0.66627 0.81704 0.0
C2706 C 0.76624 0.665 0.8294 0.0
C2707 C 0.75655 0.67763 0.79386 0.0
C2708 C 0.74546 0.67596 0.79854 0.0
C2709 C 0.7602 0.68022 0.77678 0.0
C2710 C 0.77144 0.68134 0.77074 0.0
C2711 C 0.77384 0.67211 0.77313 0.0
C2712 C 0.78445 0.67323 0.7674 0.0
C2713 C 0.7927 0.68352 0.75914 0.0
C2714 C 0.79033 0.69269 0.75655 0.0
C2715 C 0.77973 0.69161 0.76227 0.0
H2716 H 0.80091 0.68437 0.7547 0.0
H2717 H 0.69607 0.67048 0.80726 0.0
H2718 H 0.70134 0.65079 0.63379 0.0
H2719 H 0.71211 0.64878 0.60991 0.0
H2720 H 0.74253 0.68229 0.62263 0.0
H2721 H 0.73159 0.68462 0.64576 0.0
H2722 H 0.74098 0.68143 0.59106 0.0
H2723 H 0.73936 0.6538 0.63236 0.0
H2724 H 0.72988 0.63706 0.65217 0.0
H2725 H 0.71049 0.61389 0.61121 0.0
H2726 H 0.71975 0.63054 0.59118 0.0
H2727 H 0.78397 0.67294 0.54685 0.0
H2728 H 0.77233 0.67466 0.56969 0.0
H2729 H 0.74044 0.64723 0.54695 0.0
H2730 H 0.75185 0.6458 0.52367 0.0
H2731 H 0.74263 0.64472 0.58293 0.0
H2732 H 0.74565 0.67345 0.54182 0.0
H2733 H 0.75646 0.6906 0.52302 0.0
H2734 H 0.77508 0.71225 0.56566 0.0
H2735 H 0.7645 0.69517 0.58469 0.0
C2736 C 0.7103 0.65773 0.6314 0.0
C2737 C 0.71561 0.66785 0.64165 0.0
C2738 C 0.7165 0.65655 0.61783 0.0
C2739 C 0.72827 0.66528 0.61459 0.0
C2740 C 0.73349 0.67543 0.62477 0.0
C2741 C 0.72722 0.67674 0.63804 0.0
C2742 C 0.73518 0.66394 0.60065 0.0
C2743 C 0.74143 0.67343 0.58949 0.0
C2744 C 0.7357 0.65347 0.5983 0.0
C2745 C 0.73016 0.64344 0.6103 0.0
C2746 C 0.73301 0.64515 0.6276 0.0
C2747 C 0.72769 0.63568 0.63886 0.0
C2748 C 0.71957 0.62443 0.63296 0.0
C2749 C 0.71677 0.62262 0.61577 0.0
C2750 C 0.72206 0.63207 0.60445 0.0
C2751 C 0.77448 0.66735 0.54656 0.0
C2752 C 0.76891 0.65921 0.53333 0.0
C2753 C 0.76785 0.6683 0.55971 0.0
C2754 C 0.75553 0.66107 0.55998 0.0
C2755 C 0.74995 0.65282 0.54702 0.0
C2756 C 0.75653 0.65198 0.53376 0.0
C2757 C 0.74842 0.66221 0.57364 0.0
C2758 C 0.74214 0.65268 0.58465 0.0
C2759 C 0.74806 0.67272 0.57607 0.0
C2760 C 0.75437 0.683 0.56465 0.0
C2761 C 0.75212 0.68184 0.54717 0.0
C2762 C 0.75819 0.69155 0.53647 0.0
C2763 C 0.76648 0.7025 0.54313 0.0
C2764 C 0.76868 0.70376 0.56051 0.0
C2765 C 0.76264 0.69407 0.57126 0.0
H2766 H 0.77117 0.71001 0.53483 0.0
H2767 H 0.71545 0.6171 0.6417 0.0
H2768 H 0.32443 0.04096 0.6286 0.0
H2769 H 0.32619 0.05375 0.60491 0.0
H2770 H 0.36348 0.0753 0.61438 0.0
H2771 H 0.36186 0.0625 0.63803 0.0
H2772 H 0.35129 0.0881 0.61132 0.0
H2773 H 0.35535 0.05831 0.58128 0.0
H2774 H 0.34936 0.03791 0.57303 0.0
H2775 H 0.31682 0.0333 0.55307 0.0
H2776 H 0.32254 0.05363 0.56142 0.0
H2777 H 0.36326 0.12467 0.53948 0.0
H2778 H 0.3635 0.11176 0.56138 0.0
H2779 H 0.32904 0.08427 0.54562 0.0
H2780 H 0.32926 0.0966 0.52259 0.0
H2781 H 0.3408 0.07454 0.55203 0.0
H2782 H 0.33508 0.10285 0.58295 0.0
H2783 H 0.33952 0.12262 0.5923 0.0
H2784 H 0.37295 0.1294 0.61181 0.0
H2785 H 0.36876 0.10971 0.60238 0.0
C2786 C 0.33304 0.04835 0.62555 0.0
C2787 C 0.34301 0.05071 0.63521 0.0
C2788 C 0.33402 0.05563 0.61199 0.0
C2789 C 0.34497 0.06546 0.6079 0.0
C2790 C 0.35496 0.06776 0.61736 0.0
C2791 C 0.35402 0.0604 0.6308 0.0
C2792 C 0.34587 0.07356 0.59413 0.0
C2793 C 0.34917 0.08522 0.59829 0.0
C2794 C 0.34274 0.06965 0.57728 0.0
C2795 C 0.33934 0.05746 0.57211 0.0
C2796 C 0.34688 0.05292 0.57525 0.0
C2797 C 0.34354 0.04138 0.57053 0.0
C2798 C 0.3327 0.03431 0.56257 0.0
C2799 C 0.3252 0.03878 0.55926 0.0
C2800 C 0.3285 0.05032 0.56396 0.0
C2801 C 0.35578 0.11583 0.54043 0.0
C2802 C 0.34622 0.1118 0.52912 0.0
C2803 C 0.35585 0.10849 0.55325 0.0
C2804 C 0.34619 0.09707 0.55547 0.0
C2805 C 0.33661 0.09305 0.54429 0.0
C2806 C 0.33667 0.10025 0.53121 0.0
C2807 C 0.34609 0.08917 0.56916 0.0
C2808 C 0.34295 0.07751 0.56502 0.0
C2809 C 0.34913 0.09302 0.58612 0.0
C2810 C 0.35166 0.10486 0.5918 0.0
C2811 C 0.34341 0.10859 0.58913 0.0
C2812 C 0.34587 0.11977 0.59446 0.0
C2813 C 0.35652 0.12727 0.6026 0.0
C2814 C 0.36471 0.12359 0.60547 0.0
C2815 C 0.3623 0.11242 0.60015 0.0
H2816 H 0.35841 0.13593 0.60672 0.0
H2817 H 0.33013 0.02537 0.55893 0.0
H2818 H 0.9602 0.30658 0.62467 0.0
H2819 H 0.9478 0.2943 0.60142 0.0
H2820 H 0.94546 0.26352 0.62522 0.0
H2821 H 0.95837 0.27585 0.6479 0.0
H2822 H 0.94675 0.26118 0.59391 0.0
H2823 H 0.92286 0.27151 0.62778 0.0
H2824 H 0.91768 0.28496 0.64233 0.0
H2825 H 0.91789 0.30102 0.59491 0.0
H2826 H 0.92321 0.28774 0.5801 0.0
H2827 H 0.88436 0.2294 0.55105 0.0
H2828 H 0.89755 0.24128 0.57396 0.0
H2829 H 0.92746 0.25301 0.54067 0.0
H2830 H 0.91436 0.24114 0.51782 0.0
H2831 H 0.91169 0.26407 0.5776 0.0
H2832 H 0.95148 0.2574 0.56268 0.0
H2833 H 0.95514 0.24206 0.55093 0.0
H2834 H 0.9203 0.21525 0.56541 0.0
H2835 H 0.91648 0.23039 0.57745 0.0
C2836 C 0.95713 0.29721 0.62482 0.0
C2837 C 0.96022 0.29217 0.63813 0.0
C2838 C 0.94996 0.29017 0.6116 0.0
C2839 C 0.94543 0.2779 0.61171 0.0
C2840 C 0.9488 0.27294 0.62479 0.0
C2841 C 0.95619 0.28001 0.63778 0.0
C2842 C 0.937 0.27017 0.59847 0.0
C2843 C 0.9391 0.26185 0.59035 0.0
C2844 C 0.92683 0.27079 0.59401 0.0
C2845 C 0.92353 0.27871 0.60286 0.0
C2846 C 0.92186 0.27795 0.62048 0.0
C2847 C 0.9189 0.28554 0.62877 0.0
C2848 C 0.91749 0.29386 0.61956 0.0
C2849 C 0.919 0.29458 0.60203 0.0
C2850 C 0.92198 0.28702 0.59368 0.0
C2851 C 0.89375 0.23452 0.54862 0.0
C2852 C 0.89832 0.23425 0.53265 0.0
C2853 C 0.90128 0.2413 0.56172 0.0
C2854 C 0.91352 0.24795 0.55911 0.0
C2855 C 0.91808 0.24777 0.54312 0.0
C2856 C 0.91057 0.24096 0.53006 0.0
C2857 C 0.92153 0.25519 0.573 0.0
C2858 C 0.91935 0.26343 0.58118 0.0
C2859 C 0.93141 0.25423 0.57792 0.0
C2860 C 0.93366 0.24505 0.5708 0.0
C2861 C 0.94461 0.24822 0.5634 0.0
C2862 C 0.94671 0.23957 0.55669 0.0
C2863 C 0.93794 0.22769 0.55737 0.0
C2864 C 0.92706 0.22445 0.56483 0.0
C2865 C 0.92492 0.23307 0.57157 0.0
H2866 H 0.93959 0.22101 0.55216 0.0
H2867 H 0.91519 0.29973 0.626 0.0
H2868 H 0.32166 0.27778 0.6435 0.0
H2869 H 0.32265 0.26595 0.62037 0.0
H2870 H 0.35536 0.29563 0.60351 0.0
H2871 H 0.35459 0.30755 0.62692 0.0
H2872 H 0.33694 0.28179 0.57711 0.0
H2873 H 0.35874 0.27728 0.62296 0.0
H2874 H 0.3614 0.27317 0.65255 0.0
H2875 H 0.33117 0.23845 0.64855 0.0
H2876 H 0.32822 0.24242 0.61898 0.0
H2877 H 0.3506 0.24939 0.51929 0.0
H2878 H 0.3521 0.26269 0.54191 0.0
H2879 H 0.32633 0.2331 0.57098 0.0
H2880 H 0.32538 0.21963 0.54891 0.0
H2881 H 0.34228 0.24783 0.59133 0.0
H2882 H 0.31936 0.2516 0.54725 0.0
H2883 H 0.31484 0.25507 0.51827 0.0
H2884 H 0.34476 0.29013 0.51929 0.0
H2885 H 0.34956 0.2868 0.5482 0.0
C2886 C 0.32903 0.28187 0.6348 0.0
C2887 C 0.33808 0.29362 0.63708 0.0
C2888 C 0.32958 0.27507 0.62163 0.0
C2889 C 0.33911 0.27991 0.61034 0.0
C2890 C 0.34795 0.29175 0.61215 0.0
C2891 C 0.34751 0.29853 0.62552 0.0
C2892 C 0.33992 0.27241 0.59702 0.0
C2893 C 0.33832 0.27448 0.58012 0.0
C2894 C 0.34133 0.26267 0.60111 0.0
C2895 C 0.3432 0.26019 0.6188 0.0
C2896 C 0.3526 0.2688 0.62843 0.0
C2897 C 0.35417 0.26649 0.64519 0.0
C2898 C 0.34644 0.25557 0.65244 0.0
C2899 C 0.33715 0.24691 0.64292 0.0
C2900 C 0.33553 0.24919 0.62615 0.0
C2901 C 0.34543 0.24564 0.53063 0.0
C2902 C 0.33781 0.23338 0.53215 0.0
C2903 C 0.34617 0.25331 0.54348 0.0
C2904 C 0.33913 0.24895 0.55802 0.0
C2905 C 0.33179 0.23671 0.55983 0.0
C2906 C 0.33116 0.22901 0.54708 0.0
C2907 C 0.33927 0.25714 0.57122 0.0
C2908 C 0.34101 0.25518 0.58817 0.0
C2909 C 0.33776 0.26686 0.56719 0.0
C2910 C 0.3349 0.2689 0.54982 0.0
C2911 C 0.32503 0.26001 0.54124 0.0
C2912 C 0.32241 0.26196 0.52484 0.0
C2913 C 0.32953 0.2728 0.51693 0.0
C2914 C 0.33927 0.28173 0.52542 0.0
C2915 C 0.34194 0.27982 0.54182 0.0
H2916 H 0.32748 0.2743 0.50423 0.0
H2917 H 0.34767 0.2538 0.66542 0.0
H2918 H 0.7025 0.05179 0.62844 0.0
H2919 H 0.71388 0.06285 0.60366 0.0
H2920 H 0.74092 0.05445 0.6162 0.0
H2921 H 0.7295 0.04315 0.64054 0.0
H2922 H 0.73444 0.08175 0.6006 0.0
H2923 H 0.75447 0.05234 0.58191 0.0
H2924 H 0.74868 0.03129 0.58194 0.0
H2925 H 0.71213 0.02157 0.5806 0.0
H2926 H 0.7177 0.04255 0.58032 0.0
H2927 H 0.78474 0.11484 0.54911 0.0
H2928 H 0.77063 0.10276 0.57107 0.0
H2929 H 0.75063 0.07586 0.53394 0.0
H2930 H 0.7651 0.08766 0.51231 0.0
H2931 H 0.75144 0.0655 0.55988 0.0
H2932 H 0.74174 0.09568 0.55118 0.0
H2933 H 0.74531 0.11599 0.54879 0.0
H2934 H 0.75709 0.12279 0.60036 0.0
H2935 H 0.75374 0.10257 0.603 0.0
C2936 C 0.71081 0.0522 0.6258 0.0
C2937 C 0.71504 0.04652 0.63644 0.0
C2938 C 0.71733 0.05857 0.61167 0.0
C2939 C 0.72821 0.05939 0.60793 0.0
C2940 C 0.73244 0.05375 0.61857 0.0
C2941 C 0.7259 0.04731 0.63256 0.0
C2942 C 0.73535 0.06639 0.5932 0.0
C2943 C 0.73812 0.07818 0.59164 0.0
C2944 C 0.73994 0.06169 0.58125 0.0
C2945 C 0.73652 0.04903 0.58125 0.0
C2946 C 0.7452 0.04571 0.58155 0.0
C2947 C 0.74196 0.03379 0.58162 0.0
C2948 C 0.73005 0.0251 0.58132 0.0
C2949 C 0.72136 0.02831 0.58089 0.0
C2950 C 0.72455 0.04022 0.5808 0.0
C2951 C 0.77731 0.10635 0.54573 0.0
C2952 C 0.77599 0.10214 0.5291 0.0
C2953 C 0.76919 0.09947 0.55822 0.0
C2954 C 0.75941 0.08842 0.55418 0.0
C2955 C 0.75809 0.0843 0.53746 0.0
C2956 C 0.76634 0.09105 0.52509 0.0
C2957 C 0.75074 0.08097 0.56738 0.0
C2958 C 0.74772 0.06908 0.56872 0.0
C2959 C 0.74559 0.08548 0.57875 0.0
C2960 C 0.74758 0.09764 0.57724 0.0
C2961 C 0.74516 0.10153 0.56198 0.0
C2962 C 0.74714 0.11303 0.56058 0.0
C2963 C 0.75145 0.12068 0.5744 0.0
C2964 C 0.75376 0.11685 0.58966 0.0
C2965 C 0.75181 0.10537 0.59112 0.0
H2966 H 0.75297 0.12958 0.57329 0.0
H2967 H 0.72755 0.01587 0.5814 0.0
H2968 H 0.96876 0.67663 0.62155 0.0
H2969 H 0.95591 0.67407 0.59755 0.0
H2970 H 0.92586 0.64815 0.62585 0.0
H2971 H 0.93887 0.65007 0.64929 0.0
H2972 H 0.92231 0.64129 0.59619 0.0
H2973 H 0.93381 0.67901 0.62021 0.0
H2974 H 0.94745 0.6991 0.6306 0.0
H2975 H 0.96275 0.70934 0.58114 0.0
H2976 H 0.94929 0.68926 0.57049 0.0
H2977 H 0.88141 0.65351 0.54787 0.0
H2978 H 0.89438 0.65468 0.57126 0.0
H2979 H 0.9212 0.65948 0.53539 0.0
H2980 H 0.90818 0.65796 0.51202 0.0
H2981 H 0.92571 0.67692 0.56867 0.0
H2982 H 0.91309 0.63702 0.54658 0.0
H2983 H 0.89751 0.6171 0.53816 0.0
H2984 H 0.88191 0.61161 0.58747 0.0
H2985 H 0.89731 0.63159 0.59607 0.0
C2986 C 0.95943 0.6703 0.62252 0.0
C2987 C 0.95479 0.66357 0.63726 0.0
C2988 C 0.95205 0.66892 0.60887 0.0
C2989 C 0.9398 0.66116 0.60998 0.0
C2990 C 0.93524 0.65423 0.6246 0.0
C2991 C 0.94268 0.65532 0.63803 0.0
C2992 C 0.93173 0.66035 0.59603 0.0
C2993 C 0.92305 0.64913 0.59036 0.0
C2994 C 0.93255 0.67051 0.58827 0.0
C2995 C 0.94062 0.68261 0.5946 0.0
C2996 C 0.94013 0.68553 0.61157 0.0
C2997 C 0.94783 0.69691 0.61751 0.0
C2998 C 0.95598 0.70548 0.60655 0.0
C2999 C 0.95644 0.70269 0.58962 0.0
C3000 C 0.94877 0.69131 0.58362 0.0
C3001 C 0.89006 0.65477 0.54504 0.0
C3002 C 0.8938 0.65557 0.5282 0.0
C3003 C 0.89742 0.65543 0.55834 0.0
C3004 C 0.90869 0.65712 0.55497 0.0
C3005 C 0.91251 0.65812 0.53819 0.0
C3006 C 0.90507 0.6572 0.5249 0.0
C3007 C 0.91657 0.65797 0.56896 0.0
C3008 C 0.92511 0.66917 0.57462 0.0
C3009 C 0.91542 0.64784 0.57702 0.0
C3010 C 0.90625 0.63583 0.57188 0.0
C3011 C 0.90626 0.63161 0.55555 0.0
C3012 C 0.89748 0.6203 0.55077 0.0
C3013 C 0.8887 0.61311 0.56226 0.0
C3014 C 0.8887 0.6172 0.57857 0.0
C3015 C 0.89745 0.62851 0.58341 0.0
H3016 H 0.88191 0.60435 0.55853 0.0
H3017 H 0.96194 0.71428 0.61116 0.0
H3018 H 0.96892 0.6959 0.71924 0.0
H3019 H 0.95833 0.69894 0.74241 0.0
H3020 H 0.94178 0.66202 0.75513 0.0
H3021 H 0.95218 0.65887 0.73199 0.0
H3022 H 0.92582 0.66899 0.75328 0.0
H3023 H 0.96366 0.68314 0.77965 0.0
H3024 H 0.98527 0.6955 0.78223 0.0
H3025 H 0.98235 0.72673 0.78179 0.0
H3026 H 0.96073 0.71455 0.77898 0.0
H3027 H 0.90224 0.66761 0.83428 0.0
H3028 H 0.91349 0.66663 0.81036 0.0
H3029 H 0.92714 0.70361 0.80049 0.0
H3030 H 0.91572 0.70464 0.82425 0.0
H3031 H 0.94455 0.69782 0.79992 0.0
H3032 H 0.90656 0.68354 0.77489 0.0
H3033 H 0.88496 0.67111 0.77251 0.0
H3034 H 0.88815 0.64005 0.77042 0.0
H3035 H 0.90977 0.65229 0.77304 0.0
C3036 C 0.96314 0.68847 0.72707 0.0
C3037 C 0.96139 0.67714 0.72368 0.0
C3038 C 0.95709 0.69021 0.74035 0.0
C3039 C 0.94926 0.6807 0.75053 0.0
C3040 C 0.94772 0.66947 0.7474 0.0
C3041 C 0.95373 0.66772 0.73417 0.0
C3042 C 0.94227 0.68225 0.76407 0.0
C3043 C 0.92993 0.6752 0.76358 0.0
C3044 C 0.9476 0.69061 0.77723 0.0
C3045 C 0.96059 0.69794 0.77891 0.0
C3046 C 0.96764 0.69265 0.77995 0.0
C3047 C 0.97988 0.69962 0.78149 0.0
C3048 C 0.98518 0.71189 0.78212 0.0
C3049 C 0.97824 0.71722 0.78126 0.0
C3050 C 0.96599 0.71029 0.77971 0.0
C3051 C 0.90745 0.6755 0.82686 0.0
C3052 C 0.90801 0.6862 0.83119 0.0
C3053 C 0.91394 0.67494 0.81322 0.0
C3054 C 0.9211 0.68503 0.80357 0.0
C3055 C 0.92169 0.69572 0.8078 0.0
C3056 C 0.91517 0.69629 0.82141 0.0
C3057 C 0.92812 0.68442 0.78925 0.0
C3058 C 0.94044 0.69165 0.78956 0.0
C3059 C 0.92279 0.67622 0.77591 0.0
C3060 C 0.90978 0.66883 0.77432 0.0
C3061 C 0.90265 0.67405 0.77407 0.0
C3062 C 0.89041 0.66705 0.77265 0.0
C3063 C 0.88518 0.6548 0.77135 0.0
C3064 C 0.8922 0.64954 0.77144 0.0
C3065 C 0.90446 0.65651 0.77287 0.0
H3066 H 0.8757 0.64939 0.77025 0.0
H3067 H 0.99466 0.71727 0.78331 0.0
H3068 H 0.35482 0.29469 0.7179 0.0
H3069 H 0.35457 0.28196 0.74068 0.0
H3070 H 0.32065 0.27612 0.757 0.0
H3071 H 0.32071 0.28873 0.73404 0.0
H3072 H 0.33801 0.28113 0.7838 0.0
H3073 H 0.32031 0.25566 0.73531 0.0
H3074 H 0.31994 0.24996 0.70551 0.0
H3075 H 0.35151 0.24825 0.7133 0.0
H3076 H 0.35216 0.25412 0.74311 0.0
H3077 H 0.32057 0.23301 0.83817 0.0
H3078 H 0.32149 0.24606 0.8157 0.0
H3079 H 0.34994 0.24365 0.79223 0.0
H3080 H 0.34847 0.22977 0.81405 0.0
H3081 H 0.33617 0.24343 0.76882 0.0
H3082 H 0.35444 0.26826 0.8164 0.0
H3083 H 0.35642 0.27505 0.84592 0.0
H3084 H 0.3262 0.27936 0.83994 0.0
H3085 H 0.32393 0.27244 0.81044 0.0
C3086 C 0.34734 0.2908 0.72641 0.0
C3087 C 0.33776 0.2927 0.72411 0.0
C3088 C 0.34721 0.2835 0.73939 0.0
C3089 C 0.33756 0.27805 0.75042 0.0
C3090 C 0.32817 0.28025 0.74858 0.0
C3091 C 0.32821 0.28743 0.73544 0.0
C3092 C 0.33712 0.26976 0.76354 0.0
C3093 C 0.33746 0.27281 0.78059 0.0
C3094 C 0.33683 0.25913 0.75924 0.0
C3095 C 0.33635 0.25544 0.74139 0.0
C3096 C 0.32723 0.25416 0.73063 0.0
C3097 C 0.32695 0.25088 0.71375 0.0
C3098 C 0.33571 0.24877 0.7075 0.0
C3099 C 0.34474 0.2499 0.71815 0.0
C3100 C 0.34506 0.25319 0.73504 0.0
C3101 C 0.32688 0.235 0.82808 0.0
C3102 C 0.33444 0.23024 0.82802 0.0
C3103 C 0.32753 0.24268 0.81534 0.0
C3104 C 0.33597 0.2461 0.80243 0.0
C3105 C 0.34341 0.24124 0.80212 0.0
C3106 C 0.34264 0.23338 0.81474 0.0
C3107 C 0.33696 0.25469 0.78928 0.0
C3108 C 0.33675 0.25174 0.77215 0.0
C3109 C 0.3376 0.26553 0.79352 0.0
C3110 C 0.33895 0.26973 0.81125 0.0
C3111 C 0.34816 0.27058 0.82141 0.0
C3112 C 0.34934 0.27446 0.83814 0.0
C3113 C 0.34142 0.27761 0.84481 0.0
C3114 C 0.33232 0.27691 0.83476 0.0
C3115 C 0.33109 0.27302 0.81803 0.0
H3116 H 0.34236 0.28061 0.85776 0.0
H3117 H 0.33549 0.24624 0.69442 0.0
H3118 H 0.71505 0.06437 0.71728 0.0
H3119 H 0.72761 0.07693 0.74012 0.0
H3120 H 0.73284 0.04873 0.75772 0.0
H3121 H 0.7204 0.03608 0.73467 0.0
H3122 H 0.72753 0.06146 0.78383 0.0
H3123 H 0.75395 0.06847 0.73717 0.0
H3124 H 0.76052 0.07328 0.70757 0.0
H3125 H 0.76227 0.10677 0.71266 0.0
H3126 H 0.75553 0.10208 0.74224 0.0
H3127 H 0.77334 0.09609 0.84092 0.0
H3128 H 0.7618 0.08251 0.81845 0.0
H3129 H 0.76311 0.11128 0.79009 0.0
H3130 H 0.77547 0.1251 0.8119 0.0
H3131 H 0.76521 0.09748 0.7693 0.0
H3132 H 0.7383 0.09105 0.81452 0.0
H3133 H 0.7307 0.0867 0.84372 0.0
H3134 H 0.72859 0.05294 0.84121 0.0
H3135 H 0.73633 0.05715 0.81206 0.0
C3136 C 0.71878 0.06077 0.72607 0.0
C3137 C 0.71674 0.04922 0.72411 0.0
C3138 C 0.72599 0.06799 0.73908 0.0
C3139 C 0.7312 0.06377 0.75051 0.0
C3140 C 0.7289 0.05213 0.74898 0.0
C3141 C 0.72182 0.04494 0.73579 0.0
C3142 C 0.73929 0.07168 0.76376 0.0
C3143 C 0.73586 0.06925 0.78074 0.0
C3144 C 0.74997 0.082 0.7596 0.0
C3145 C 0.75413 0.08488 0.74187 0.0
C3146 C 0.75564 0.07682 0.73194 0.0
C3147 C 0.75941 0.07953 0.71517 0.0
C3148 C 0.76178 0.09031 0.70822 0.0
C3149 C 0.76042 0.09842 0.71805 0.0
C3150 C 0.75663 0.09574 0.73482 0.0
C3151 C 0.77143 0.09963 0.82976 0.0
C3152 C 0.77536 0.11177 0.82836 0.0
C3153 C 0.76463 0.09177 0.817 0.0
C3154 C 0.7613 0.09578 0.80271 0.0
C3155 C 0.76545 0.10792 0.80104 0.0
C3156 C 0.77243 0.11582 0.81366 0.0
C3157 C 0.75346 0.08736 0.78955 0.0
C3158 C 0.75691 0.08969 0.77253 0.0
C3159 C 0.74269 0.07704 0.79367 0.0
C3160 C 0.73801 0.07447 0.81118 0.0
C3161 C 0.73629 0.08273 0.82024 0.0
C3162 C 0.73195 0.08029 0.83677 0.0
C3163 C 0.7292 0.06957 0.84433 0.0
C3164 C 0.73075 0.06125 0.83535 0.0
C3165 C 0.7351 0.06366 0.81882 0.0
H3166 H 0.72583 0.06769 0.85713 0.0
H3167 H 0.7647 0.09239 0.69524 0.0
H3168 H 0.026 0.34197 0.02867 0.0
H3169 H 0.03986 0.33628 0.04015 0.0
H3170 H 0.06701 0.37287 0.04234 0.0
H3171 H 0.05331 0.37863 0.0309 0.0
H3172 H 0.06254 0.34035 0.03025 0.0
H3173 H 0.08081 0.37692 0.08065 0.0
H3174 H 0.07471 0.38929 0.09632 0.0
H3175 H 0.03839 0.36226 0.09168 0.0
H3176 H 0.04429 0.34968 0.07621 0.0
H3177 H 0.11374 0.34563 0.07386 0.0
H3178 H 0.10039 0.35043 0.05829 0.0
H3179 H 0.07357 0.33239 0.09616 0.0
H3180 H 0.08675 0.32749 0.11158 0.0
H3181 H 0.07762 0.35514 0.08793 0.0
H3182 H 0.07006 0.31904 0.06098 0.0
H3183 H 0.07556 0.30604 0.04582 0.0
H3184 H 0.08918 0.33069 0.00467 0.0
H3185 H 0.08391 0.34392 0.01972 0.0
C3186 C 0.03497 0.34879 0.03138 0.0
C3187 C 0.03851 0.36076 0.02898 0.0
C3188 C 0.04288 0.34552 0.03788 0.0
C3189 C 0.05442 0.35416 0.04225 0.0
C3190 C 0.05812 0.36606 0.0392 0.0
C3191 C 0.05026 0.36933 0.03263 0.0
C3192 C 0.06237 0.35086 0.05107 0.0
C3193 C 0.06587 0.34361 0.04283 0.0
C3194 C 0.06664 0.35503 0.06756 0.0
C3195 C 0.06299 0.36242 0.07713 0.0
C3196 C 0.07153 0.37361 0.08304 0.0
C3197 C 0.0681 0.38065 0.09188 0.0
C3198 C 0.05616 0.37658 0.09494 0.0
C3199 C 0.04763 0.36543 0.08924 0.0
C3200 C 0.05101 0.35834 0.08042 0.0
C3201 C 0.10498 0.34269 0.0788 0.0
C3202 C 0.10124 0.33612 0.09385 0.0
C3203 C 0.09737 0.34538 0.06989 0.0
C3204 C 0.08598 0.34172 0.07606 0.0
C3205 C 0.08231 0.33528 0.09117 0.0
C3206 C 0.08981 0.33243 0.0999 0.0
C3207 C 0.07791 0.34475 0.06705 0.0
C3208 C 0.07437 0.35196 0.07529 0.0
C3209 C 0.07357 0.34048 0.05064 0.0
C3210 C 0.07671 0.33253 0.04156 0.0
C3211 C 0.07433 0.32174 0.04877 0.0
C3212 C 0.07738 0.31432 0.04018 0.0
C3213 C 0.08275 0.31755 0.02431 0.0
C3214 C 0.08504 0.3282 0.01697 0.0
C3215 C 0.08202 0.33566 0.02552 0.0
H3216 H 0.0851 0.3118 0.01767 0.0
H3217 H 0.05353 0.38206 0.10176 0.0
H3218 H 0.62891 0.6753 0.03953 0.0
H3219 H 0.63444 0.69512 0.04883 0.0
H3220 H 0.66923 0.70834 0.02781 0.0
H3221 H 0.66385 0.68829 0.01908 0.0
H3222 H 0.67134 0.71775 0.05696 0.0
H3223 H 0.64749 0.71367 0.00921 0.0
H3224 H 0.63008 0.70427 0.99056 0.0
H3225 H 0.60845 0.70562 0.03029 0.0
H3226 H 0.6257 0.71489 0.04927 0.0
H3227 H 0.685 0.77702 0.07201 0.0
H3228 H 0.68033 0.75912 0.05627 0.0
H3229 H 0.64738 0.74007 0.08309 0.0
H3230 H 0.65211 0.75775 0.0993 0.0
H3231 H 0.64552 0.73496 0.04804 0.0
H3232 H 0.66977 0.73763 0.0961 0.0
H3233 H 0.68759 0.74757 0.1139 0.0
H3234 H 0.70906 0.74958 0.0716 0.0
H3235 H 0.69137 0.7398 0.05347 0.0
C3236 C 0.63772 0.68243 0.03674 0.0
C3237 C 0.64593 0.68022 0.02848 0.0
C3238 C 0.64085 0.69381 0.04198 0.0
C3239 C 0.65219 0.70334 0.03874 0.0
C3240 C 0.66041 0.70117 0.03041 0.0
C3241 C 0.65732 0.68971 0.02538 0.0
C3242 C 0.65556 0.7154 0.04482 0.0
C3243 C 0.6658 0.72159 0.05467 0.0
C3244 C 0.64829 0.72044 0.0421 0.0
C3245 C 0.63788 0.7149 0.03071 0.0
C3246 C 0.63901 0.71189 0.01401 0.0
C3247 C 0.62917 0.70659 0.00338 0.0
C3248 C 0.61816 0.70433 0.00925 0.0
C3249 C 0.61698 0.70738 0.02576 0.0
C3250 C 0.62679 0.71267 0.03646 0.0
C3251 C 0.67676 0.76903 0.0746 0.0
C3252 C 0.66899 0.76886 0.08708 0.0
C3253 C 0.67408 0.75882 0.06551 0.0
C3254 C 0.66356 0.74824 0.06863 0.0
C3255 C 0.65553 0.74815 0.08046 0.0
C3256 C 0.65824 0.75832 0.08966 0.0
C3257 C 0.66115 0.73711 0.06026 0.0
C3258 C 0.6511 0.73113 0.05005 0.0
C3259 C 0.66866 0.73233 0.06246 0.0
C3260 C 0.67927 0.73811 0.07339 0.0
C3261 C 0.6783 0.74028 0.09056 0.0
C3262 C 0.68837 0.74587 0.10072 0.0
C3263 C 0.69945 0.74923 0.09388 0.0
C3264 C 0.70048 0.74698 0.07687 0.0
C3265 C 0.69043 0.74141 0.06666 0.0
H3266 H 0.70724 0.75356 0.10176 0.0
H3267 H 0.61056 0.70023 0.00099 0.0
H3268 H 0.32928 0.95318 0.02581 0.0
H3269 H 0.30941 0.93922 0.03521 0.0
H3270 H 0.2997 0.96613 0.03093 0.0
H3271 H 0.31986 0.98036 0.02197 0.0
H3272 H 0.29196 0.95518 0.05948 0.0
H3273 H 0.28876 0.94202 0.00302 0.0
H3274 H 0.2944 0.93587 0.97684 0.0
H3275 H 0.29269 0.90624 0.00273 0.0
H3276 H 0.28721 0.91229 0.02914 0.0
H3277 H 0.2331 0.90941 0.0816 0.0
H3278 H 0.24907 0.92432 0.06417 0.0
H3279 H 0.26944 0.90719 0.07257 0.0
H3280 H 0.25394 0.89267 0.09059 0.0
H3281 H 0.26928 0.91409 0.03819 0.0
H3282 H 0.27541 0.92988 0.09547 0.0
H3283 H 0.26932 0.93615 0.12111 0.0
H3284 H 0.26462 0.96115 0.0919 0.0
H3285 H 0.27053 0.95489 0.06603 0.0
C3286 C 0.32291 0.95613 0.02664 0.0
C3287 C 0.32617 0.9679 0.0231 0.0
C3288 C 0.31148 0.94809 0.03193 0.0
C3289 C 0.30294 0.95153 0.03354 0.0
C3290 C 0.3061 0.96323 0.02972 0.0
C3291 C 0.31761 0.97135 0.02455 0.0
C3292 C 0.29102 0.94304 0.04029 0.0
C3293 C 0.28687 0.94629 0.05452 0.0
C3294 C 0.28435 0.93137 0.03398 0.0
C3295 C 0.28763 0.92765 0.0181 0.0
C3296 C 0.28966 0.93423 0.00317 0.0
C3297 C 0.29282 0.93076 0.98828 0.0
C3298 C 0.29392 0.92068 0.98813 0.0
C3299 C 0.29184 0.91404 0.00286 0.0
C3300 C 0.28868 0.91748 0.0178 0.0
C3301 C 0.24099 0.90882 0.07983 0.0
C3302 C 0.24215 0.89976 0.0876 0.0
C3303 C 0.25007 0.91731 0.06975 0.0
C3304 C 0.26042 0.91685 0.06709 0.0
C3305 C 0.26147 0.90765 0.07434 0.0
C3306 C 0.25251 0.89928 0.08458 0.0
C3307 C 0.2705 0.9262 0.05751 0.0
C3308 C 0.27428 0.92308 0.04281 0.0
C3309 C 0.27674 0.93801 0.06324 0.0
C3310 C 0.27326 0.94181 0.0788 0.0
C3311 C 0.27297 0.93664 0.09449 0.0
C3312 C 0.26957 0.9402 0.10907 0.0
C3313 C 0.26654 0.94902 0.10812 0.0
C3314 C 0.26694 0.95431 0.09261 0.0
C3315 C 0.27032 0.95075 0.07798 0.0
H3316 H 0.26392 0.95177 0.11942 0.0
H3317 H 0.29637 0.918 0.97659 0.0
H3318 H 0.37353 0.05032 0.0149 0.0
H3319 H 0.36765 0.06406 0.00385 0.0
H3320 H 0.33622 0.03497 0.98259 0.0
H3321 H 0.34196 0.02111 0.99387 0.0
H3322 H 0.35036 0.05314 0.95928 0.0
H3323 H 0.33274 0.04901 0.01368 0.0
H3324 H 0.33209 0.04877 0.04483 0.0
H3325 H 0.35953 0.08508 0.04613 0.0
H3326 H 0.36047 0.08549 0.01498 0.0
H3327 H 0.33168 0.09032 0.92452 0.0
H3328 H 0.33145 0.07462 0.94119 0.0
H3329 H 0.35917 0.10041 0.97288 0.0
H3330 H 0.35885 0.11625 0.95705 0.0
H3331 H 0.34489 0.08256 0.99152 0.0
H3332 H 0.36456 0.08655 0.93863 0.0
H3333 H 0.36665 0.08741 0.9076 0.0
H3334 H 0.33724 0.05218 0.90357 0.0
H3335 H 0.33487 0.05117 0.93459 0.0
C3336 C 0.36526 0.04682 0.00813 0.0
C3337 C 0.35822 0.03463 0.00522 0.0
C3338 C 0.36189 0.05468 0.00188 0.0
C3339 C 0.35149 0.05053 0.99243 0.0
C3340 C 0.34426 0.03834 0.98989 0.0
C3341 C 0.34753 0.03044 0.9964 0.0
C3342 C 0.34877 0.05903 0.98403 0.0
C3343 C 0.3489 0.05942 0.96631 0.0
C3344 C 0.34728 0.06745 0.99324 0.0
C3345 C 0.34674 0.06724 0.01198 0.0
C3346 C 0.33871 0.05691 0.0206 0.0
C3347 C 0.33827 0.05676 0.03826 0.0
C3348 C 0.34578 0.0669 0.04745 0.0
C3349 C 0.35372 0.07723 0.03899 0.0
C3350 C 0.3542 0.07743 0.02133 0.0
C3351 C 0.33752 0.09273 0.93531 0.0
C3352 C 0.34537 0.10465 0.93927 0.0
C3353 C 0.33749 0.08368 0.94471 0.0
C3354 C 0.34551 0.0863 0.95804 0.0
C3355 C 0.35297 0.09814 0.96256 0.0
C3356 C 0.35287 0.10721 0.95333 0.0
C3357 C 0.34655 0.07675 0.96671 0.0
C3358 C 0.34617 0.07619 0.98446 0.0
C3359 C 0.34803 0.06827 0.95754 0.0
C3360 C 0.34946 0.06883 0.93891 0.0
C3361 C 0.35848 0.07902 0.93112 0.0
C3362 C 0.35973 0.07953 0.91354 0.0
C3363 C 0.35206 0.06987 0.90362 0.0
C3364 C 0.34316 0.05966 0.91127 0.0
C3365 C 0.34186 0.05911 0.92885 0.0
H3366 H 0.35304 0.07028 0.89001 0.0
H3367 H 0.34542 0.06676 0.06112 0.0
H3368 H 0.98123 0.31999 0.01226 0.0
H3369 H 0.96726 0.3 0.00245 0.0
H3370 H 0.94293 0.31154 0.98755 0.0
H3371 H 0.95656 0.33128 0.99799 0.0
H3372 H 0.93092 0.29095 0.00016 0.0
H3373 H 0.96222 0.30806 0.95894 0.0
H3374 H 0.98278 0.31744 0.94888 0.0
H3375 H 0.9853 0.2877 0.96624 0.0
H3376 H 0.96478 0.27821 0.97658 0.0
H3377 H 0.89848 0.25029 0.93458 0.0
H3378 H 0.91141 0.26744 0.95175 0.0
H3379 H 0.92869 0.24922 0.9712 0.0
H3380 H 0.91551 0.23181 0.9545 0.0
H3381 H 0.94436 0.2717 0.95881 0.0
H3382 H 0.9115 0.25381 0.99681 0.0
H3383 H 0.89057 0.24476 0.00495 0.0
H3384 H 0.89066 0.27656 0.99143 0.0
H3385 H 0.91155 0.28575 0.98297 0.0
C3386 C 0.97285 0.31822 0.00702 0.0
C3387 C 0.97003 0.32723 0.00585 0.0
C3388 C 0.96489 0.3068 0.00131 0.0
C3389 C 0.95409 0.30426 0.99394 0.0
C3390 C 0.95118 0.31322 0.99317 0.0
C3391 C 0.95902 0.32454 0.99913 0.0
C3392 C 0.94588 0.29242 0.9866 0.0
C3393 C 0.93388 0.28681 0.99103 0.0
C3394 C 0.9497 0.28681 0.97492 0.0
C3395 C 0.96202 0.2925 0.96871 0.0
C3396 C 0.96719 0.30357 0.96072 0.0
C3397 C 0.97883 0.30889 0.95495 0.0
C3398 C 0.98535 0.30319 0.95697 0.0
C3399 C 0.98024 0.29212 0.96472 0.0
C3400 C 0.96861 0.28676 0.97053 0.0
C3401 C 0.9048 0.24976 0.94282 0.0
C3402 C 0.90591 0.2396 0.94309 0.0
C3403 C 0.91226 0.25964 0.95257 0.0
C3404 C 0.92101 0.25961 0.96278 0.0
C3405 C 0.92203 0.24945 0.96335 0.0
C3406 C 0.9145 0.23952 0.95372 0.0
C3407 C 0.92944 0.27041 0.97216 0.0
C3408 C 0.94147 0.2758 0.9681 0.0
C3409 C 0.92562 0.27591 0.98395 0.0
C3410 C 0.91307 0.27044 0.98914 0.0
C3411 C 0.90703 0.25884 0.99545 0.0
C3412 C 0.89518 0.25369 1.00014 0.0
C3413 C 0.88928 0.26007 0.99867 0.0
C3414 C 0.89524 0.27163 0.99255 0.0
C3415 C 0.90709 0.27682 0.98783 0.0
H3416 H 0.88011 0.25607 0.00231 0.0
H3417 H 0.99436 0.30732 0.95249 0.0
H3418 H 0.68633 0.66549 0.99471 0.0
H3419 H 0.70612 0.67135 0.98404 0.0
H3420 H 0.70047 0.63668 0.99528 0.0
H3421 H 0.6807 0.63072 0.00574 0.0
H3422 H 0.72338 0.65531 0.00417 0.0
H3423 H 0.69623 0.64201 0.9568 0.0
H3424 H 0.68122 0.64229 0.93826 0.0
H3425 H 0.70517 0.67854 0.9259 0.0
H3426 H 0.72027 0.67853 0.94457 0.0
H3427 H 0.7638 0.64901 0.95198 0.0
H3428 H 0.74693 0.64738 0.96743 0.0
H3429 H 0.75279 0.67993 0.94507 0.0
H3430 H 0.76927 0.68128 0.92887 0.0
H3431 H 0.73063 0.66448 0.94301 0.0
H3432 H 0.75856 0.67771 0.98783 0.0
H3433 H 0.77378 0.67804 0.00654 0.0
H3434 H 0.74912 0.64324 0.02425 0.0
H3435 H 0.73379 0.64263 0.00546 0.0
C3436 C 0.68937 0.65917 0.9951 0.0
C3437 C 0.68193 0.64762 0.00097 0.0
C3438 C 0.70066 0.66252 0.98897 0.0
C3439 C 0.70473 0.65442 0.98878 0.0
C3440 C 0.69751 0.64306 0.99533 0.0
C3441 C 0.68619 0.63966 0.00123 0.0
C3442 C 0.71619 0.65746 0.98086 0.0
C3443 C 0.72497 0.65726 0.99078 0.0
C3444 C 0.71837 0.66031 0.9635 0.0
C3445 C 0.70932 0.66031 0.95224 0.0
C3446 C 0.69825 0.65007 0.95025 0.0
C3447 C 0.68974 0.65018 0.93969 0.0
C3448 C 0.69222 0.66044 0.93095 0.0
C3449 C 0.70324 0.67061 0.93271 0.0
C3450 C 0.71178 0.67056 0.94327 0.0
C3451 C 0.76152 0.65583 0.95033 0.0
C3452 C 0.76793 0.66527 0.93911 0.0
C3453 C 0.75193 0.65497 0.95936 0.0
C3454 C 0.74862 0.6636 0.95759 0.0
C3455 C 0.75517 0.67317 0.94671 0.0
C3456 C 0.7647 0.67399 0.93758 0.0
C3457 C 0.7379 0.66225 0.96626 0.0
C3458 C 0.72919 0.66272 0.95646 0.0
C3459 C 0.73586 0.65977 0.98377 0.0
C3460 C 0.74505 0.66009 0.99512 0.0
C3461 C 0.7564 0.67009 0.99561 0.0
C3462 C 0.76505 0.67033 0.00625 0.0
C3463 C 0.76243 0.66065 0.01655 0.0
C3464 C 0.75114 0.65072 0.01625 0.0
C3465 C 0.74247 0.65043 0.00562 0.0
H3466 H 0.76913 0.66086 0.02478 0.0
H3467 H 0.68562 0.6605 0.92278 0.0
H3468 H 0.98528 0.66678 0.00166 0.0
H3469 H 0.97153 0.6727 0.99055 0.0
H3470 H 0.94321 0.63661 0.9932 0.0
H3471 H 0.95685 0.63063 0.00415 0.0
H3472 H 0.94379 0.646 0.96291 0.0
H3473 H 0.94469 0.65731 0.02078 0.0
H3474 H 0.95392 0.66743 0.0475 0.0
H3475 H 0.96881 0.70098 0.02252 0.0
H3476 H 0.9598 0.69104 0.99559 0.0
H3477 H 0.89644 0.65541 0.94367 0.0
H3478 H 0.90944 0.65037 0.95931 0.0
H3479 H 0.93773 0.68641 0.95552 0.0
H3480 H 0.92486 0.6915 0.93972 0.0
H3481 H 0.93714 0.67724 0.98677 0.0
H3482 H 0.93676 0.66603 0.92893 0.0
H3483 H 0.9276 0.65605 0.9021 0.0
H3484 H 0.91197 0.62242 0.92697 0.0
H3485 H 0.9209 0.63222 0.95402 0.0
C3486 C 0.9761 0.66013 1.00007 0.0
C3487 C 0.97218 0.64823 0.00377 0.0
C3488 C 0.96823 0.66353 0.99375 0.0
C3489 C 0.95631 0.6551 0.99107 0.0
C3490 C 0.95236 0.64327 0.99511 0.0
C3491 C 0.96018 0.63987 0.00144 0.0
C3492 C 0.94806 0.65845 0.98323 0.0
C3493 C 0.94221 0.65271 0.96829 0.0
C3494 C 0.94622 0.66742 0.98996 0.0
C3495 C 0.95167 0.67342 0.00613 0.0
C3496 C 0.95002 0.66684 0.02095 0.0
C3497 C 0.95519 0.67254 0.03614 0.0
C3498 C 0.96197 0.68484 0.0367 0.0
C3499 C 0.96357 0.69145 0.02207 0.0
C3500 C 0.95842 0.68579 0.00684 0.0
C3501 C 0.90543 0.66227 0.94616 0.0
C3502 C 0.90961 0.67385 0.94031 0.0
C3503 C 0.91284 0.65939 0.95515 0.0
C3504 C 0.92461 0.66798 0.95841 0.0
C3505 C 0.92868 0.67963 0.95318 0.0
C3506 C 0.92128 0.68253 0.94419 0.0
C3507 C 0.93282 0.66471 0.96656 0.0
C3508 C 0.9387 0.6705 0.98147 0.0
C3509 C 0.93472 0.65579 0.9598 0.0
C3510 C 0.9294 0.64987 0.94353 0.0
C3511 C 0.93129 0.65651 0.9287 0.0
C3512 C 0.92616 0.65089 0.91345 0.0
C3513 C 0.91918 0.63861 0.91284 0.0
C3514 C 0.91736 0.63193 0.92747 0.0
C3515 C 0.92246 0.63751 0.94276 0.0
H3516 H 0.91521 0.63427 0.90102 0.0
H3517 H 0.96596 0.68924 0.04847 0.0
H3518 H 0.37953 0.32786 0.00467 0.0
H3519 H 0.37359 0.30839 0.9932 0.0
H3520 H 0.33752 0.30069 0.99042 0.0
H3521 H 0.34346 0.32033 0.00171 0.0
H3522 H 0.35895 0.28596 0.00194 0.0
H3523 H 0.3255 0.28499 0.95387 0.0
H3524 H 0.32103 0.29876 0.93868 0.0
H3525 H 0.35748 0.32576 0.94146 0.0
H3526 H 0.36217 0.3121 0.95646 0.0
H3527 H 0.33247 0.23072 0.95717 0.0
H3528 H 0.33523 0.24774 0.97378 0.0
H3529 H 0.35621 0.27105 0.93356 0.0
H3530 H 0.35322 0.25416 0.91677 0.0
H3531 H 0.3408 0.27704 0.94487 0.0
H3532 H 0.36898 0.26784 0.96931 0.0
H3533 H 0.37537 0.25509 0.98313 0.0
H3534 H 0.35273 0.25011 0.02535 0.0
H3535 H 0.34609 0.26272 0.01167 0.0
C3536 C 0.3703 0.32199 0.00181 0.0
C3537 C 0.36198 0.3257 0.00396 0.0
C3538 C 0.36691 0.31082 0.99532 0.0
C3539 C 0.35514 0.30311 0.99076 0.0
C3540 C 0.34669 0.30655 0.99365 0.0
C3541 C 0.35008 0.31776 0.00016 0.0
C3542 C 0.35199 0.29189 0.98193 0.0
C3543 C 0.35486 0.28395 0.98954 0.0
C3544 C 0.34683 0.28931 0.96563 0.0
C3545 C 0.34414 0.29757 0.95647 0.0
C3546 C 0.33255 0.29386 0.9512 0.0
C3547 C 0.32998 0.30164 0.94262 0.0
C3548 C 0.33896 0.31314 0.93916 0.0
C3549 C 0.35053 0.31686 0.94421 0.0
C3550 C 0.35314 0.30911 0.95276 0.0
C3551 C 0.33764 0.23947 0.95186 0.0
C3552 C 0.34269 0.24107 0.93568 0.0
C3553 C 0.33927 0.24919 0.96141 0.0
C3554 C 0.34598 0.26069 0.95495 0.0
C3555 C 0.35099 0.26228 0.93881 0.0
C3556 C 0.34939 0.2526 0.9293 0.0
C3557 C 0.3478 0.27113 0.96483 0.0
C3558 C 0.34467 0.27892 0.95741 0.0
C3559 C 0.35294 0.27367 0.98114 0.0
C3560 C 0.35693 0.26611 0.98938 0.0
C3561 C 0.36529 0.26395 0.98148 0.0
C3562 C 0.36897 0.25676 0.9893 0.0
C3563 C 0.36444 0.25176 0.00509 0.0
C3564 C 0.35622 0.25397 0.01311 0.0
C3565 C 0.3525 0.26114 0.00533 0.0
H3566 H 0.3673 0.24621 0.01112 0.0
H3567 H 0.33695 0.31916 0.93254 0.0
H3568 H 0.67894 0.05388 0.00438 0.0
H3569 H 0.69836 0.06766 0.99305 0.0
H3570 H 0.70597 0.03935 0.98775 0.0
H3571 H 0.68637 0.02539 0.9989 0.0
H3572 H 0.72082 0.07517 0.0014 0.0
H3573 H 0.7218 0.0442 0.95096 0.0
H3574 H 0.7081 0.02622 0.93519 0.0
H3575 H 0.68081 0.03514 0.93969 0.0
H3576 H 0.69439 0.05324 0.9553 0.0
H3577 H 0.77506 0.10716 0.95434 0.0
H3578 H 0.75896 0.09135 0.97073 0.0
H3579 H 0.7338 0.08963 0.93397 0.0
H3580 H 0.74975 0.1052 0.91756 0.0
H3581 H 0.72925 0.06778 0.94293 0.0
H3582 H 0.73771 0.10418 0.97056 0.0
H3583 H 0.75043 0.12301 0.98518 0.0
H3584 H 0.75723 0.1046 0.02454 0.0
H3585 H 0.74466 0.08567 0.01001 0.0
C3586 C 0.68477 0.05057 0.00099 0.0
C3587 C 0.68104 0.03849 0.0024 0.0
C3588 C 0.69592 0.0585 0.99458 0.0
C3589 C 0.7036 0.05454 0.98936 0.0
C3590 C 0.70014 0.04258 0.9915 0.0
C3591 C 0.68894 0.03462 0.99792 0.0
C3592 C 0.7148 0.06286 0.98065 0.0
C3593 C 0.72274 0.07348 0.9887 0.0
C3594 C 0.71727 0.06075 0.964 0.0
C3595 C 0.70907 0.04998 0.95447 0.0
C3596 C 0.71288 0.04233 0.94854 0.0
C3597 C 0.70514 0.03212 0.93964 0.0
C3598 C 0.69358 0.02952 0.9365 0.0
C3599 C 0.68975 0.03715 0.94219 0.0
C3600 C 0.69746 0.04737 0.95108 0.0
C3601 C 0.7661 0.10335 0.94975 0.0
C3602 C 0.76367 0.10752 0.93477 0.0
C3603 C 0.75691 0.09435 0.95913 0.0
C3604 C 0.74516 0.08934 0.95361 0.0
C3605 C 0.74279 0.09335 0.93848 0.0
C3606 C 0.75191 0.10235 0.92921 0.0
C3607 C 0.73521 0.08013 0.96363 0.0
C3608 C 0.72749 0.06934 0.9558 0.0
C3609 C 0.73284 0.08218 0.98035 0.0
C3610 C 0.74037 0.09354 0.9891 0.0
C3611 C 0.742 0.10416 0.98226 0.0
C3612 C 0.74917 0.11485 0.99054 0.0
C3613 C 0.75467 0.11501 0.00575 0.0
C3614 C 0.75299 0.10447 0.01274 0.0
C3615 C 0.74584 0.09376 0.00449 0.0
H3616 H 0.76021 0.12329 0.01215 0.0
H3617 H 0.68759 0.0216 0.92962 0.0
H3618 H 0.63243 0.95592 0.017 0.0
H3619 H 0.63747 0.94164 0.02812 0.0
H3620 H 0.67116 0.96999 0.04485 0.0
H3621 H 0.66625 0.98441 0.03333 0.0
H3622 H 0.67314 0.95147 0.03315 0.0
H3623 H 0.64866 0.95699 0.07247 0.0
H3624 H 0.6314 0.95827 0.08194 0.0
H3625 H 0.60846 0.92217 0.06766 0.0
H3626 H 0.62558 0.92072 0.05786 0.0
H3627 H 0.68023 0.91625 0.09755 0.0
H3628 H 0.67893 0.93132 0.08093 0.0
H3629 H 0.64569 0.90472 0.06023 0.0
H3630 H 0.64702 0.88957 0.07651 0.0
H3631 H 0.64444 0.92312 0.07446 0.0
H3632 H 0.66976 0.91792 0.03558 0.0
H3633 H 0.68748 0.91713 0.02719 0.0
H3634 H 0.70946 0.9532 0.04236 0.0
H3635 H 0.69186 0.95416 0.05108 0.0
C3636 C 0.64098 0.95914 0.02285 0.0
C3637 C 0.64889 0.97131 0.02445 0.0
C3638 C 0.64384 0.95096 0.02925 0.0
C3639 C 0.65459 0.95474 0.03765 0.0
C3640 C 0.66279 0.96687 0.03849 0.0
C3641 C 0.65997 0.9751 0.03192 0.0
C3642 C 0.65684 0.946 0.04642 0.0
C3643 C 0.66694 0.94536 0.04234 0.0
C3644 C 0.64872 0.93797 0.05833 0.0
C3645 C 0.6384 0.93878 0.06429 0.0
C3646 C 0.63993 0.94935 0.07123 0.0
C3647 C 0.63017 0.9501 0.07668 0.0
C3648 C 0.61884 0.94032 0.07537 0.0
C3649 C 0.61725 0.92975 0.06865 0.0
C3650 C 0.62697 0.92895 0.06316 0.0
C3651 C 0.67279 0.91354 0.08912 0.0
C3652 C 0.66368 0.90169 0.08848 0.0
C3653 C 0.67205 0.92219 0.07966 0.0
C3654 C 0.6622 0.91915 0.06937 0.0
C3655 C 0.65334 0.90727 0.06817 0.0
C3656 C 0.6541 0.89863 0.07754 0.0
C3657 C 0.6606 0.9284 0.06094 0.0
C3658 C 0.65063 0.9292 0.06523 0.0
C3659 C 0.66891 0.93663 0.04942 0.0
C3660 C 0.6795 0.93607 0.04415 0.0
C3661 C 0.67837 0.92565 0.03727 0.0
C3662 C 0.6884 0.92518 0.03242 0.0
C3663 C 0.69959 0.9351 0.03428 0.0
C3664 C 0.70078 0.94552 0.04095 0.0
C3665 C 0.69079 0.94604 0.04583 0.0
H3666 H 0.70734 0.93472 0.03052 0.0
H3667 H 0.6113 0.94092 0.07959 0.0
H3668 H 0.05416 0.67845 0.02953 0.0
H3669 H 0.06775 0.69807 0.04056 0.0
H3670 H 0.04149 0.70831 0.03324 0.0
H3671 H 0.02766 0.68853 0.02232 0.0
H3672 H 0.06617 0.726 0.02337 0.0
H3673 H 0.04344 0.70154 0.07016 0.0
H3674 H 0.0349 0.68363 0.08782 0.0
H3675 H 0.06961 0.6897 0.0989 0.0
H3676 H 0.07835 0.70756 0.08108 0.0
H3677 H 0.09313 0.77656 0.07716 0.0
H3678 H 0.07994 0.75863 0.06166 0.0
H3679 H 0.09928 0.74218 0.08003 0.0
H3680 H 0.11195 0.75973 0.09653 0.0
H3681 H 0.0773 0.72767 0.08369 0.0
H3682 H 0.10044 0.75171 0.03744 0.0
H3683 H 0.10963 0.76928 0.01909 0.0
H3684 H 0.07545 0.76394 0.00618 0.0
H3685 H 0.06605 0.74642 0.02463 0.0
C3686 C 0.05128 0.68489 0.03005 0.0
C3687 C 0.03979 0.68189 0.02512 0.0
C3688 C 0.05907 0.6961 0.03638 0.0
C3689 C 0.05559 0.7046 0.03781 0.0
C3690 C 0.04433 0.70186 0.03221 0.0
C3691 C 0.03644 0.69056 0.02603 0.0
C3692 C 0.06352 0.71602 0.04617 0.0
C3693 C 0.0685 0.72644 0.03662 0.0
C3694 C 0.06677 0.7165 0.06332 0.0
C3695 C 0.06154 0.70582 0.07415 0.0
C3696 C 0.04924 0.699 0.07625 0.0
C3697 C 0.04437 0.68887 0.08631 0.0
C3698 C 0.05171 0.68551 0.09445 0.0
C3699 C 0.06394 0.6923 0.09257 0.0
C3700 C 0.06886 0.70243 0.08251 0.0
C3701 C 0.09459 0.76913 0.07797 0.0
C3702 C 0.10363 0.76965 0.08825 0.0
C3703 C 0.08711 0.75891 0.06887 0.0
C3704 C 0.08863 0.74903 0.06951 0.0
C3705 C 0.09789 0.74966 0.0793 0.0
C3706 C 0.10526 0.75981 0.08859 0.0
C3707 C 0.0802 0.73779 0.06089 0.0
C3708 C 0.07504 0.72734 0.07043 0.0
C3709 C 0.07693 0.7373 0.04368 0.0
C3710 C 0.08255 0.74782 0.03256 0.0
C3711 C 0.09489 0.75434 0.03079 0.0
C3712 C 0.10013 0.76428 0.02035 0.0
C3713 C 0.09313 0.76775 0.01151 0.0
C3714 C 0.08086 0.76126 0.01305 0.0
C3715 C 0.07557 0.75131 0.02349 0.0
H3716 H 0.09721 0.77544 0.00343 0.0
H3717 H 0.04792 0.67766 0.10223 0.0
H3718 H 0.33152 0.37801 0.02803 0.0
H3719 H 0.31205 0.37247 0.03908 0.0
H3720 H 0.30256 0.33585 0.03865 0.0
H3721 H 0.32217 0.34133 0.02751 0.0
H3722 H 0.2839 0.34024 0.02791 0.0
H3723 H 0.31066 0.34895 0.0743 0.0
H3724 H 0.32921 0.3608 0.09001 0.0
H3725 H 0.32224 0.3895 0.09301 0.0
H3726 H 0.30373 0.37787 0.07708 0.0
H3727 H 0.23515 0.32531 0.08456 0.0
H3728 H 0.25232 0.32692 0.06982 0.0
H3729 H 0.27017 0.36477 0.075 0.0
H3730 H 0.25352 0.36322 0.09061 0.0
H3731 H 0.28428 0.35743 0.08396 0.0
H3732 H 0.25828 0.34956 0.03635 0.0
H3733 H 0.23994 0.3382 0.01999 0.0
H3734 H 0.24537 0.30847 0.0188 0.0
H3735 H 0.26368 0.31961 0.03535 0.0
C3736 C 0.32528 0.36875 0.03006 0.0
C3737 C 0.32846 0.36012 0.02703 0.0
C3738 C 0.31414 0.36561 0.0364 0.0
C3739 C 0.30592 0.35377 0.03988 0.0
C3740 C 0.3088 0.34504 0.03607 0.0
C3741 C 0.32001 0.34819 0.02975 0.0
C3742 C 0.29471 0.35078 0.04859 0.0
C3743 C 0.28393 0.34382 0.04028 0.0
C3744 C 0.29479 0.3556 0.06463 0.0
C3745 C 0.30585 0.36257 0.07438 0.0
C3746 C 0.31313 0.35782 0.0782 0.0
C3747 C 0.32363 0.36449 0.08716 0.0
C3748 C 0.32691 0.37591 0.09247 0.0
C3749 C 0.31969 0.38066 0.08887 0.0
C3750 C 0.30918 0.37402 0.0799 0.0
C3751 C 0.24273 0.33398 0.08259 0.0
C3752 C 0.24285 0.34413 0.08883 0.0
C3753 C 0.25251 0.3349 0.07396 0.0
C3754 C 0.26255 0.34598 0.07117 0.0
C3755 C 0.26255 0.35611 0.07697 0.0
C3756 C 0.25289 0.3552 0.08574 0.0
C3757 C 0.27338 0.34717 0.06309 0.0
C3758 C 0.28416 0.35376 0.07162 0.0
C3759 C 0.27326 0.34206 0.04724 0.0
C3760 C 0.26228 0.33537 0.03725 0.0
C3761 C 0.25552 0.34057 0.03272 0.0
C3762 C 0.24513 0.33418 0.02338 0.0
C3763 C 0.24147 0.32261 0.0184 0.0
C3764 C 0.2482 0.31742 0.0227 0.0
C3765 C 0.25859 0.32378 0.03204 0.0
H3766 H 0.23343 0.31768 0.01118 0.0
H3767 H 0.33505 0.38106 0.0994 0.0
H3768 H 0.72145 0.70925 0.35463 0.0
H3769 H 0.73417 0.70217 0.3659 0.0
H3770 H 0.70353 0.66902 0.37902 0.0
H3771 H 0.6907 0.67604 0.36768 0.0
H3772 H 0.71931 0.67883 0.40545 0.0
H3773 H 0.72052 0.66996 0.34703 0.0
H3774 H 0.72327 0.67407 0.31645 0.0
H3775 H 0.7593 0.7008 0.32496 0.0
H3776 H 0.75672 0.69697 0.35564 0.0
H3777 H 0.75079 0.65097 0.43157 0.0
H3778 H 0.73757 0.65548 0.41568 0.0
H3779 H 0.76727 0.68827 0.39902 0.0
H3780 H 0.78066 0.68362 0.41444 0.0
H3781 H 0.75149 0.67784 0.37371 0.0
H3782 H 0.75032 0.68781 0.43165 0.0
H3783 H 0.74794 0.6844 0.46241 0.0
H3784 H 0.71225 0.65652 0.45503 0.0
H3785 H 0.71448 0.65965 0.42418 0.0
C3786 C 0.7174 0.7004 0.35973 0.0
C3787 C 0.70505 0.69321 0.36027 0.0
C3788 C 0.7247 0.69635 0.36612 0.0
C3789 C 0.71981 0.68505 0.37323 0.0
C3790 C 0.70749 0.67777 0.37356 0.0
C3791 C 0.70017 0.68178 0.36702 0.0
C3792 C 0.72757 0.68112 0.38113 0.0
C3793 C 0.72621 0.6784 0.39843 0.0
C3794 C 0.7368 0.68092 0.3721 0.0
C3795 C 0.73839 0.68325 0.35366 0.0
C3796 C 0.729 0.67679 0.3424 0.0
C3797 C 0.73054 0.67905 0.32505 0.0
C3798 C 0.74144 0.68771 0.31877 0.0
C3799 C 0.75085 0.6941 0.32984 0.0
C3800 C 0.74936 0.69188 0.34721 0.0
C3801 C 0.75457 0.65903 0.42426 0.0
C3802 C 0.76682 0.66694 0.42433 0.0
C3803 C 0.74697 0.66166 0.41531 0.0
C3804 C 0.7514 0.6723 0.40637 0.0
C3805 C 0.76364 0.68003 0.40591 0.0
C3806 C 0.77128 0.6774 0.41484 0.0
C3807 C 0.74322 0.67553 0.39802 0.0
C3808 C 0.74453 0.67818 0.38068 0.0
C3809 C 0.73399 0.67576 0.40704 0.0
C3810 C 0.73261 0.67388 0.42559 0.0
C3811 C 0.74199 0.68088 0.43657 0.0
C3812 C 0.74067 0.67902 0.45403 0.0
C3813 C 0.72996 0.67023 0.46067 0.0
C3814 C 0.72055 0.66331 0.44986 0.0
C3815 C 0.72183 0.66513 0.43239 0.0
H3816 H 0.72895 0.66879 0.47419 0.0
H3817 H 0.74261 0.68944 0.30533 0.0
H3818 H 0.29521 0.00662 0.37479 0.0
H3819 H 0.30032 0.02621 0.3846 0.0
H3820 H 0.33403 0.04084 0.35951 0.0
H3821 H 0.32917 0.02097 0.3505 0.0
H3822 H 0.33759 0.05082 0.38784 0.0
H3823 H 0.30972 0.04437 0.34468 0.0
H3824 H 0.2911 0.03382 0.3287 0.0
H3825 H 0.27175 0.03417 0.37229 0.0
H3826 H 0.29024 0.04459 0.38862 0.0
H3827 H 0.34804 0.10914 0.40403 0.0
H3828 H 0.34364 0.0913 0.38833 0.0
H3829 H 0.31335 0.07083 0.42004 0.0
H3830 H 0.31787 0.08848 0.43619 0.0
H3831 H 0.30908 0.06527 0.38517 0.0
H3832 H 0.33794 0.07076 0.42823 0.0
H3833 H 0.35709 0.08213 0.44274 0.0
H3834 H 0.37524 0.08469 0.39634 0.0
H3835 H 0.35618 0.07347 0.3815 0.0
C3836 C 0.30368 0.01401 0.37122 0.0
C3837 C 0.31175 0.01226 0.36177 0.0
C3838 C 0.30657 0.02527 0.37675 0.0
C3839 C 0.31747 0.03515 0.37248 0.0
C3840 C 0.32555 0.03341 0.36293 0.0
C3841 C 0.32275 0.02206 0.35773 0.0
C3842 C 0.32055 0.04714 0.37869 0.0
C3843 C 0.33142 0.05405 0.38689 0.0
C3844 C 0.31252 0.05142 0.3777 0.0
C3845 C 0.30137 0.0452 0.3679 0.0
C3846 C 0.30149 0.04213 0.35089 0.0
C3847 C 0.29096 0.03618 0.34177 0.0
C3848 C 0.28025 0.03331 0.34948 0.0
C3849 C 0.28005 0.0364 0.36633 0.0
C3850 C 0.29056 0.04235 0.37552 0.0
C3851 C 0.34046 0.10085 0.40773 0.0
C3852 C 0.33337 0.1003 0.4215 0.0
C3853 C 0.33793 0.09067 0.39867 0.0
C3854 C 0.32822 0.07973 0.40311 0.0
C3855 C 0.32087 0.0792 0.41637 0.0
C3856 C 0.32344 0.08934 0.42554 0.0
C3857 C 0.32595 0.06872 0.39443 0.0
C3858 C 0.31526 0.06204 0.38582 0.0
C3859 C 0.33422 0.06476 0.39475 0.0
C3860 C 0.34565 0.07139 0.40372 0.0
C3861 C 0.34602 0.07383 0.4211 0.0
C3862 C 0.35685 0.08023 0.42939 0.0
C3863 C 0.36737 0.08416 0.42046 0.0
C3864 C 0.36708 0.08166 0.40323 0.0
C3865 C 0.35627 0.07528 0.39488 0.0
H3866 H 0.37575 0.08912 0.42689 0.0
H3867 H 0.27211 0.0287 0.3424 0.0
H3868 H 0.99607 0.28674 0.36764 0.0
H3869 H 0.97625 0.27284 0.37732 0.0
H3870 H 0.96477 0.29746 0.36388 0.0
H3871 H 0.98488 0.31171 0.35477 0.0
H3872 H 0.95638 0.28884 0.39312 0.0
H3873 H 0.95645 0.27114 0.34074 0.0
H3874 H 0.96384 0.26333 0.31845 0.0
H3875 H 0.96221 0.23716 0.35277 0.0
H3876 H 0.95496 0.2449 0.37535 0.0
H3877 H 0.89667 0.24513 0.41058 0.0
H3878 H 0.91409 0.25832 0.39395 0.0
H3879 H 0.93254 0.24149 0.41416 0.0
H3880 H 0.91539 0.22858 0.43135 0.0
H3881 H 0.93586 0.24627 0.3786 0.0
H3882 H 0.93751 0.26591 0.43143 0.0
H3883 H 0.92955 0.2737 0.45292 0.0
H3884 H 0.92717 0.29633 0.41577 0.0
H3885 H 0.93496 0.28853 0.39399 0.0
C3886 C 0.98932 0.28918 0.36656 0.0
C3887 C 0.99206 0.30034 0.36037 0.0
C3888 C 0.97793 0.28116 0.37201 0.0
C3889 C 0.96889 0.28396 0.37107 0.0
C3890 C 0.97156 0.29505 0.36469 0.0
C3891 C 0.98304 0.30318 0.35944 0.0
C3892 C 0.95689 0.27553 0.37765 0.0
C3893 C 0.95181 0.27959 0.38962 0.0
C3894 C 0.95091 0.26339 0.37334 0.0
C3895 C 0.95523 0.25866 0.35978 0.0
C3896 C 0.95774 0.26377 0.34358 0.0
C3897 C 0.96189 0.25935 0.33088 0.0
C3898 C 0.96351 0.24977 0.3342 0.0
C3899 C 0.96095 0.24458 0.35022 0.0
C3900 C 0.95681 0.24897 0.36296 0.0
C3901 C 0.90442 0.24422 0.41155 0.0
C3902 C 0.9046 0.23581 0.42249 0.0
C3903 C 0.91435 0.25173 0.40193 0.0
C3904 C 0.92463 0.25093 0.40293 0.0
C3905 C 0.92467 0.24222 0.41317 0.0
C3906 C 0.9148 0.23479 0.42294 0.0
C3907 C 0.93557 0.2596 0.39411 0.0
C3908 C 0.94042 0.25557 0.3818 0.0
C3909 C 0.94126 0.27178 0.39793 0.0
C3910 C 0.93668 0.27654 0.41105 0.0
C3911 C 0.93519 0.27247 0.42782 0.0
C3912 C 0.93073 0.2769 0.44005 0.0
C3913 C 0.92782 0.28548 0.4357 0.0
C3914 C 0.92941 0.28967 0.41911 0.0
C3915 C 0.93385 0.28525 0.40682 0.0
H3916 H 0.92437 0.2889 0.4452 0.0
H3917 H 0.96673 0.24636 0.32436 0.0
H3918 H 0.00855 0.35537 0.32919 0.0
H3919 H 0.00324 0.36965 0.31824 0.0
H3920 H 0.03652 0.39827 0.33564 0.0
H3921 H 0.04195 0.38411 0.34635 0.0
H3922 H 0.01644 0.40159 0.34115 0.0
H3923 H 0.03517 0.39079 0.29692 0.0
H3924 H 0.03697 0.37651 0.27865 0.0
H3925 H 0.00214 0.36435 0.25917 0.0
H3926 H 1.00008 0.37845 0.27753 0.0
H3927 H 0.02719 0.45099 0.29181 0.0
H3928 H 0.02727 0.43503 0.30749 0.0
H3929 H 0.99898 0.4095 0.27624 0.0
H3930 H 0.99948 0.42538 0.25963 0.0
H3931 H 0.01414 0.40311 0.27868 0.0
H3932 H 0.99552 0.41474 0.31978 0.0
H3933 H 0.99262 0.42824 0.33826 0.0
H3934 H 0.02503 0.43776 0.36407 0.0
H3935 H 0.02822 0.42444 0.34559 0.0
C3936 C 0.01464 0.3647 0.33093 0.0
C3937 C 0.0257 0.36862 0.33854 0.0
C3938 C 0.01161 0.37284 0.32464 0.0
C3939 C 0.01952 0.38501 0.32606 0.0
C3940 C 0.03028 0.38892 0.33445 0.0
C3941 C 0.03339 0.38081 0.34049 0.0
C3942 C 0.01708 0.3937 0.31763 0.0
C3943 C 0.01598 0.402 0.32749 0.0
C3944 C 0.01614 0.39397 0.29985 0.0
C3945 C 0.01742 0.38557 0.28873 0.0
C3946 C 0.02786 0.385 0.28885 0.0
C3947 C 0.02893 0.37695 0.27846 0.0
C3948 C 0.01966 0.3695 0.26779 0.0
C3949 C 0.00931 0.37011 0.26746 0.0
C3950 C 0.00818 0.37813 0.27785 0.0
C3951 C 0.02099 0.44199 0.28818 0.0
C3952 C 0.01337 0.43957 0.27431 0.0
C3953 C 0.02092 0.43283 0.29739 0.0
C3954 C 0.01302 0.42099 0.29325 0.0
C3955 C 0.00515 0.41853 0.27976 0.0
C3956 C 0.00535 0.42768 0.27037 0.0
C3957 C 0.01356 0.41121 0.30215 0.0
C3958 C 0.01437 0.40268 0.29236 0.0
C3959 C 0.01403 0.41063 0.32002 0.0
C3960 C 0.01216 0.41866 0.33119 0.0
C3961 C 0.00208 0.41978 0.32931 0.0
C3962 C 1.00037 0.42739 0.3398 0.0
C3963 C 0.00864 0.43387 0.35231 0.0
C3964 C 0.01863 0.43274 0.35437 0.0
C3965 C 0.02039 0.42515 0.3439 0.0
H3966 H 0.00731 0.43976 0.36042 0.0
H3967 H 0.02051 0.36327 0.25976 0.0
H3968 H 0.62393 0.66291 0.34436 0.0
H3969 H 0.60943 0.64328 0.33433 0.0
H3970 H 0.63757 0.63763 0.31744 0.0
H3971 H 0.65211 0.65711 0.32811 0.0
H3972 H 0.60457 0.63526 0.30465 0.0
H3973 H 0.62883 0.60871 0.31504 0.0
H3974 H 0.64234 0.60754 0.33568 0.0
H3975 H 0.63006 0.62191 0.37419 0.0
H3976 H 0.61637 0.62301 0.35386 0.0
H3977 H 0.58061 0.58622 0.25049 0.0
H3978 H 0.59342 0.60404 0.26652 0.0
H3979 H 0.58344 0.58385 0.31276 0.0
H3980 H 0.57087 0.56585 0.29657 0.0
H3981 H 0.60572 0.59838 0.31381 0.0
H3982 H 0.57263 0.60286 0.30136 0.0
H3983 H 0.55737 0.60334 0.28363 0.0
H3984 H 0.5842 0.63204 0.25487 0.0
H3985 H 0.59962 0.63163 0.27228 0.0
C3986 C 0.62703 0.65741 0.33876 0.0
C3987 C 0.63918 0.66157 0.33705 0.0
C3988 C 0.61872 0.64619 0.33295 0.0
C3989 C 0.62234 0.63888 0.32514 0.0
C3990 C 0.63449 0.64295 0.3237 0.0
C3991 C 0.64282 0.65412 0.32976 0.0
C3992 C 0.61341 0.62738 0.31758 0.0
C3993 C 0.60482 0.6272 0.30675 0.0
C3994 C 0.6135 0.61675 0.32051 0.0
C3995 C 0.62166 0.61604 0.33286 0.0
C3996 C 0.62898 0.61157 0.32793 0.0
C3997 C 0.63668 0.61093 0.33957 0.0
C3998 C 0.63708 0.61468 0.35622 0.0
C3999 C 0.62977 0.61905 0.36128 0.0
C4000 C 0.62205 0.6197 0.34969 0.0
C4001 C 0.58103 0.5856 0.2641 0.0
C4002 C 0.57463 0.57466 0.2723 0.0
C4003 C 0.58836 0.59581 0.27328 0.0
C4004 C 0.58927 0.59539 0.29094 0.0
C4005 C 0.58289 0.58444 0.29917 0.0
C4006 C 0.57569 0.57417 0.28993 0.0
C4007 C 0.59704 0.60635 0.30068 0.0
C4008 C 0.60543 0.60643 0.31186 0.0
C4009 C 0.59653 0.61683 0.29851 0.0
C4010 C 0.58728 0.61715 0.28805 0.0
C4011 C 0.57527 0.60923 0.29118 0.0
C4012 C 0.5666 0.60949 0.2812 0.0
C4013 C 0.56982 0.6177 0.26811 0.0
C4014 C 0.58172 0.62568 0.26501 0.0
C4015 C 0.59043 0.62545 0.27494 0.0
H4016 H 0.56309 0.61789 0.2604 0.0
H4017 H 0.64305 0.61418 0.36521 0.0
H4018 H 0.35515 0.99931 0.33909 0.0
H4019 H 0.3751 0.00581 0.32864 0.0
H4020 H 0.36608 0.96951 0.32229 0.0
H4021 H 0.34636 0.96301 0.33314 0.0
H4022 H 0.38736 0.98132 0.33413 0.0
H4023 H 0.36637 0.98709 0.28872 0.0
H4024 H 0.35477 0.99486 0.27491 0.0
H4025 H 0.38277 0.0303 0.28372 0.0
H4026 H 0.39448 0.02272 0.29779 0.0
H4027 H 0.42638 0.98551 0.26806 0.0
H4028 H 0.40937 0.98186 0.28509 0.0
H4029 H 0.42641 0.01867 0.2984 0.0
H4030 H 0.44381 0.02238 0.28213 0.0
H4031 H 0.40253 0.00852 0.28508 0.0
H4032 H 0.42426 0.00156 0.32791 0.0
H4033 H 0.43543 0.9927 0.33986 0.0
H4034 H 0.40531 0.95811 0.33374 0.0
H4035 H 0.39401 0.96675 0.3215 0.0
C4036 C 0.35746 0.99273 0.3356 0.0
C4037 C 0.34914 0.98064 0.33689 0.0
C4038 C 0.36886 0.99645 0.32954 0.0
C4039 C 0.37208 0.98815 0.32442 0.0
C4040 C 0.36385 0.9761 0.32615 0.0
C4041 C 0.35253 0.97238 0.33233 0.0
C4042 C 0.38385 0.99191 0.31681 0.0
C4043 C 0.39062 0.98721 0.32334 0.0
C4044 C 0.38826 0.99976 0.3029 0.0
C4045 C 0.38123 0.00434 0.2945 0.0
C4046 C 0.37001 0.99654 0.28784 0.0
C4047 C 0.36342 1.00091 0.27995 0.0
C4048 C 0.36802 0.01307 0.27849 0.0
C4049 C 0.37922 0.02088 0.2849 0.0
C4050 C 0.38583 0.01656 0.29283 0.0
C4051 C 0.42672 0.99282 0.27493 0.0
C4052 C 0.43657 0.00426 0.27363 0.0
C4053 C 0.41691 0.99071 0.28457 0.0
C4054 C 0.41664 1.0 0.29298 0.0
C4055 C 0.42644 0.01139 0.29193 0.0
C4056 C 0.43635 0.01349 0.28251 0.0
C4057 C 0.40589 0.99781 0.30228 0.0
C4058 C 0.39931 0.00276 0.29602 0.0
C4059 C 0.40156 0.99004 0.31624 0.0
C4060 C 0.40832 0.98481 0.32365 0.0
C4061 C 0.42005 0.99206 0.32897 0.0
C4062 C 0.4264 0.98708 0.33583 0.0
C4063 C 0.42109 0.97485 0.33752 0.0
C4064 C 0.40941 0.96758 0.3324 0.0
C4065 C 0.40303 0.97252 0.32552 0.0
H4066 H 0.42603 0.97101 0.34284 0.0
H4067 H 0.36291 0.01644 0.27237 0.0
H4068 H 0.65124 0.99819 0.32939 0.0
H4069 H 0.63719 0.00363 0.318 0.0
H4070 H 0.60825 0.97044 0.33506 0.0
H4071 H 0.62217 0.96495 0.34642 0.0
H4072 H 0.6213 0.99212 0.29298 0.0
H4073 H 0.58479 0.97398 0.34458 0.0
H4074 H 0.58321 0.97208 0.37562 0.0
H4075 H 0.61846 1.00129 0.38074 0.0
H4076 H 0.62019 0.00348 0.34976 0.0
H4077 H 0.56543 0.97559 0.25983 0.0
H4078 H 0.58131 0.97587 0.27637 0.0
H4079 H 0.58709 0.00746 0.30177 0.0
H4080 H 0.57107 0.0072 0.28525 0.0
H4081 H 0.58753 0.9906 0.32374 0.0
H4082 H 0.60547 0.01068 0.2723 0.0
H4083 H 0.6074 0.0134 0.24139 0.0
H4084 H 0.61049 0.9824 0.23644 0.0
H4085 H 0.60839 0.97939 0.26731 0.0
C4086 C 0.64188 0.99215 0.33097 0.0
C4087 C 0.63782 0.98112 0.33877 0.0
C4088 C 0.63387 0.99525 0.3244 0.0
C4089 C 0.62167 0.98747 0.32574 0.0
C4090 C 0.61761 0.97665 0.33406 0.0
C4091 C 0.6256 0.9735 0.34049 0.0
C4092 C 0.61313 0.99016 0.31731 0.0
C4093 C 0.61398 0.99188 0.29974 0.0
C4094 C 0.60365 0.99 0.32615 0.0
C4095 C 0.60264 0.98882 0.34482 0.0
C4096 C 0.59218 0.98003 0.35233 0.0
C4097 C 0.59127 0.9789 0.36992 0.0
C4098 C 0.60074 0.98654 0.38015 0.0
C4099 C 0.61114 0.99535 0.3728 0.0
C4100 C 0.6121 0.99653 0.35523 0.0
C4101 C 0.56994 0.9825 0.26911 0.0
C4102 C 0.56696 0.99136 0.27126 0.0
C4103 C 0.57909 0.9827 0.27846 0.0
C4104 C 0.58545 0.99174 0.29018 0.0
C4105 C 0.58231 1.00043 0.29274 0.0
C4106 C 0.5732 1.0003 0.28325 0.0
C4107 C 0.59553 0.99217 0.2994 0.0
C4108 C 0.59495 0.99099 0.31705 0.0
C4109 C 0.60533 0.99294 0.29068 0.0
C4110 C 0.60669 0.99476 0.27212 0.0
C4111 C 0.60647 0.00439 0.26461 0.0
C4112 C 0.60761 0.00599 0.2471 0.0
C4113 C 0.60904 0.99806 0.23695 0.0
C4114 C 0.60937 0.98853 0.24431 0.0
C4115 C 0.60822 0.98688 0.26182 0.0
H4116 H 0.60992 0.99932 0.2234 0.0
H4117 H 0.60001 0.98564 0.39376 0.0
H4118 H 0.01 0.65758 0.32659 0.0
H4119 H 0.00495 0.63813 0.31573 0.0
H4120 H 0.03512 0.64043 0.34145 0.0
H4121 H 0.04048 0.6601 0.35164 0.0
H4122 H 0.03504 0.63369 0.31133 0.0
H4123 H 0.00492 0.62095 0.35372 0.0
H4124 H 0.98823 0.62041 0.36897 0.0
H4125 H 0.9674 0.60936 0.32364 0.0
H4126 H 0.98403 0.60998 0.30806 0.0
H4127 H 0.02104 0.57534 0.29052 0.0
H4128 H 0.02422 0.59252 0.30702 0.0
H4129 H 0.99652 0.59371 0.27914 0.0
H4130 H 0.99328 0.57657 0.26269 0.0
H4131 H 0.99529 0.59803 0.31191 0.0
H4132 H 0.02587 0.61201 0.26945 0.0
H4133 H 0.04258 0.61257 0.25421 0.0
H4134 H 0.06253 0.62129 0.30031 0.0
H4135 H 0.04588 0.62062 0.31587 0.0
C4136 C 0.01544 0.65385 0.33015 0.0
C4137 C 0.02565 0.66038 0.33995 0.0
C4138 C 0.01252 0.64268 0.32399 0.0
C4139 C 0.01958 0.63769 0.32786 0.0
C4140 C 0.02953 0.64406 0.3382 0.0
C4141 C 0.03257 0.6553 0.34408 0.0
C4142 C 0.01714 0.62627 0.3202 0.0
C4143 C 0.02638 0.62585 0.31179 0.0
C4144 C 0.00579 0.61605 0.32033 0.0
C4145 C 0.99576 0.61561 0.32969 0.0
C4146 C 0.99681 0.61848 0.34698 0.0
C4147 C 0.98735 0.61815 0.35569 0.0
C4148 C 0.97677 0.61488 0.34727 0.0
C4149 C 0.97561 0.6119 0.33014 0.0
C4150 C 0.98504 0.61223 0.32137 0.0
C4151 C 0.01561 0.57925 0.28793 0.0
C4152 C 0.00692 0.57458 0.27525 0.0
C4153 C 0.01743 0.58907 0.29738 0.0
C4154 C 0.0107 0.59452 0.29419 0.0
C4155 C 1.0018 0.58966 0.28188 0.0
C4156 C 0.99994 0.57982 0.2725 0.0
C4157 C 0.01319 0.60552 0.30317 0.0
C4158 C 0.00396 0.60587 0.3117 0.0
C4159 C 0.02455 0.61568 0.30322 0.0
C4160 C 0.03459 0.61614 0.29385 0.0
C4161 C 0.03379 0.61396 0.27635 0.0
C4162 C 0.04326 0.61431 0.26766 0.0
C4163 C 0.0536 0.61693 0.27629 0.0
C4164 C 0.05451 0.61924 0.29364 0.0
C4165 C 0.04506 0.61889 0.3024 0.0
H4166 H 0.06092 0.6172 0.26954 0.0
H4167 H 0.96946 0.61463 0.35403 0.0
H4168 H 0.35404 0.35904 0.32798 0.0
H4169 H 0.37366 0.37276 0.31688 0.0
H4170 H 0.37054 0.40213 0.33519 0.0
H4171 H 0.35076 0.38847 0.3457 0.0
H4172 H 0.37789 0.40637 0.30463 0.0
H4173 H 0.38975 0.39315 0.35336 0.0
H4174 H 0.39011 0.37864 0.37285 0.0
H4175 H 0.4026 0.36553 0.33287 0.0
H4176 H 0.40217 0.37987 0.31307 0.0
H4177 H 0.4371 0.44972 0.28495 0.0
H4178 H 0.41933 0.43674 0.3012 0.0
H4179 H 0.41859 0.4063 0.27903 0.0
H4180 H 0.43616 0.41914 0.26257 0.0
H4181 H 0.4138 0.40327 0.3129 0.0
H4182 H 0.40083 0.41585 0.26411 0.0
H4183 H 0.40057 0.43048 0.24475 0.0
H4184 H 0.39026 0.44497 0.28561 0.0
H4185 H 0.39061 0.43052 0.30528 0.0
C4186 C 0.35762 0.36842 0.32986 0.0
C4187 C 0.35084 0.37267 0.33769 0.0
C4188 C 0.36887 0.37627 0.32356 0.0
C4189 C 0.37368 0.38853 0.32528 0.0
C4190 C 0.36705 0.39274 0.33362 0.0
C4191 C 0.35574 0.38491 0.33968 0.0
C4192 C 0.38525 0.39699 0.31747 0.0
C4193 C 0.38578 0.4058 0.30674 0.0
C4194 C 0.39553 0.39613 0.31981 0.0
C4195 C 0.39583 0.38752 0.3317 0.0
C4196 C 0.39249 0.38712 0.34869 0.0
C4197 C 0.39272 0.37893 0.3598 0.0
C4198 C 0.39635 0.37115 0.35409 0.0
C4199 C 0.39978 0.37155 0.33727 0.0
C4200 C 0.39956 0.37972 0.3261 0.0
C4201 C 0.43315 0.44027 0.2835 0.0
C4202 C 0.4381 0.43551 0.27242 0.0
C4203 C 0.42301 0.43286 0.29284 0.0
C4204 C 0.41758 0.42054 0.29125 0.0
C4205 C 0.42266 0.41577 0.28054 0.0
C4206 C 0.43275 0.42315 0.27118 0.0
C4207 C 0.40637 0.4126 0.3002 0.0
C4208 C 0.40591 0.40387 0.31102 0.0
C4209 C 0.39615 0.41354 0.29802 0.0
C4210 C 0.39587 0.42219 0.2862 0.0
C4211 C 0.3986 0.42222 0.26899 0.0
C4212 C 0.39842 0.43046 0.25796 0.0
C4213 C 0.39544 0.43867 0.26395 0.0
C4214 C 0.39259 0.43862 0.28099 0.0
C4215 C 0.39277 0.4304 0.29208 0.0
H4216 H 0.3953 0.44505 0.25539 0.0
H4217 H 0.39652 0.36482 0.36271 0.0
H4218 H 0.33405 0.31855 0.36541 0.0
H4219 H 0.339 0.30406 0.37637 0.0
H4220 H 0.30461 0.27588 0.36168 0.0
H4221 H 0.29952 0.29029 0.3512 0.0
H4222 H 0.30868 0.27281 0.39275 0.0
H4223 H 0.33097 0.28174 0.34121 0.0
H4224 H 0.34563 0.29453 0.32004 0.0
H4225 H 0.37308 0.30639 0.35732 0.0
H4226 H 0.35855 0.29378 0.37879 0.0
H4227 H 0.31574 0.22409 0.40852 0.0
H4228 H 0.31436 0.23923 0.3923 0.0
H4229 H 0.34655 0.26611 0.41516 0.0
H4230 H 0.34791 0.25102 0.43171 0.0
H4231 H 0.34448 0.27026 0.38029 0.0
H4232 H 0.32208 0.26158 0.43169 0.0
H4233 H 0.30748 0.24855 0.45274 0.0
H4234 H 0.28016 0.23621 0.4152 0.0
H4235 H 0.29465 0.24904 0.39384 0.0
C4236 C 0.32762 0.30926 0.36427 0.0
C4237 C 0.31637 0.30558 0.35751 0.0
C4238 C 0.33048 0.30097 0.3705 0.0
C4239 C 0.32219 0.28883 0.36984 0.0
C4240 C 0.31114 0.28517 0.36244 0.0
C4241 C 0.30825 0.29343 0.3564 0.0
C4242 C 0.32461 0.27997 0.37792 0.0
C4243 C 0.31643 0.27217 0.38976 0.0
C4244 C 0.33491 0.27932 0.37453 0.0
C4245 C 0.34365 0.28691 0.36165 0.0
C4246 C 0.34012 0.28715 0.34493 0.0
C4247 C 0.3484 0.29435 0.33287 0.0
C4248 C 0.36027 0.30129 0.33734 0.0
C4249 C 0.36388 0.30102 0.35388 0.0
C4250 C 0.35562 0.29384 0.366 0.0
C4251 C 0.32258 0.23321 0.41004 0.0
C4252 C 0.33184 0.23634 0.42162 0.0
C4253 C 0.32181 0.24185 0.40069 0.0
C4254 C 0.33027 0.25382 0.4027 0.0
C4255 C 0.33993 0.25693 0.41342 0.0
C4256 C 0.3407 0.24828 0.42284 0.0
C4257 C 0.32842 0.26305 0.39473 0.0
C4258 C 0.33672 0.27093 0.38311 0.0
C4259 C 0.31823 0.26381 0.39827 0.0
C4260 C 0.30947 0.25618 0.41113 0.0
C4261 C 0.31298 0.25602 0.42789 0.0
C4262 C 0.30472 0.24868 0.43988 0.0
C4263 C 0.2929 0.24154 0.4353 0.0
C4264 C 0.28932 0.24174 0.41873 0.0
C4265 C 0.29755 0.24905 0.40667 0.0
H4266 H 0.28652 0.23586 0.4446 0.0
H4267 H 0.36667 0.30686 0.32798 0.0
H4268 H 0.69038 0.01725 0.37123 0.0
H4269 H 0.70459 0.03688 0.38184 0.0
H4270 H 0.73236 0.03571 0.35402 0.0
H4271 H 0.71829 0.01589 0.34414 0.0
H4272 H 0.73963 0.04222 0.38372 0.0
H4273 H 0.72062 0.05472 0.34384 0.0
H4274 H 0.70399 0.05509 0.32984 0.0
H4275 H 0.69491 0.06532 0.37651 0.0
H4276 H 0.7114 0.06486 0.39085 0.0
H4277 H 0.78377 0.10071 0.40117 0.0
H4278 H 0.76859 0.08439 0.38464 0.0
H4279 H 0.74225 0.08024 0.42096 0.0
H4280 H 0.75739 0.09627 0.43789 0.0
H4281 H 0.73452 0.07726 0.38606 0.0
H4282 H 0.75319 0.0635 0.42565 0.0
H4283 H 0.77032 0.06366 0.4389 0.0
H4284 H 0.78044 0.0562 0.39087 0.0
H4285 H 0.76345 0.05618 0.37729 0.0
C4286 C 0.69948 0.02128 0.36716 0.0
C4287 C 0.70324 0.01503 0.35691 0.0
C4288 C 0.70761 0.03255 0.37317 0.0
C4289 C 0.7196 0.03789 0.36867 0.0
C4290 C 0.72321 0.03181 0.35779 0.0
C4291 C 0.71515 0.02048 0.35209 0.0
C4292 C 0.72855 0.04932 0.37635 0.0
C4293 C 0.73856 0.04992 0.38388 0.0
C4294 C 0.72712 0.05936 0.37704 0.0
C4295 C 0.71719 0.05965 0.36845 0.0
C4296 C 0.71502 0.05696 0.35115 0.0
C4297 C 0.70563 0.0572 0.34314 0.0
C4298 C 0.69838 0.0602 0.35229 0.0
C4299 C 0.70052 0.06299 0.36945 0.0
C4300 C 0.7099 0.06275 0.37752 0.0
C4301 C 0.77475 0.09639 0.40563 0.0
C4302 C 0.77187 0.09975 0.42102 0.0
C4303 C 0.76607 0.08711 0.39609 0.0
C4304 C 0.75432 0.08105 0.40167 0.0
C4305 C 0.75126 0.08484 0.41641 0.0
C4306 C 0.75995 0.09405 0.42604 0.0
C4307 C 0.74551 0.07006 0.39309 0.0
C4308 C 0.73555 0.06954 0.3856 0.0
C4309 C 0.74701 0.0601 0.39224 0.0
C4310 C 0.75713 0.05997 0.40043 0.0
C4311 C 0.75912 0.06199 0.4179 0.0
C4312 C 0.7688 0.06204 0.42547 0.0
C4313 C 0.77648 0.05997 0.41573 0.0
C4314 C 0.77449 0.05782 0.3984 0.0
C4315 C 0.76484 0.05778 0.39076 0.0
H4316 H 0.78397 0.06002 0.42161 0.0
H4317 H 0.69111 0.06039 0.34607 0.0
H4318 H 0.99251 0.68101 0.37746 0.0
H4319 H 0.9733 0.67622 0.38893 0.0
H4320 H 0.97111 0.69986 0.35293 0.0
H4321 H 0.99074 0.7053 0.34236 0.0
H4322 H 0.96447 0.70367 0.3801 0.0
H4323 H 0.95338 0.66745 0.35171 0.0
H4324 H 0.95435 0.64976 0.34365 0.0
H4325 H 0.94822 0.63791 0.3952 0.0
H4326 H 0.94735 0.6556 0.40361 0.0
H4327 H 0.89912 0.67134 0.39949 0.0
H4328 H 0.91697 0.67569 0.38354 0.0
H4329 H 0.93646 0.68304 0.43015 0.0
H4330 H 0.91878 0.67889 0.44612 0.0
H4331 H 0.93292 0.6633 0.39527 0.0
H4332 H 0.94965 0.70426 0.42166 0.0
H4333 H 0.94715 0.72148 0.42688 0.0
H4334 H 0.94033 0.72297 0.37409 0.0
H4335 H 0.94263 0.70564 0.36866 0.0
C4336 C 0.98783 0.68503 0.37185 0.0
C4337 C 0.99308 0.69349 0.359 0.0
C4338 C 0.97679 0.68225 0.37834 0.0
C4339 C 0.97056 0.68752 0.37168 0.0
C4340 C 0.97568 0.69568 0.35839 0.0
C4341 C 0.98688 0.69874 0.35227 0.0
C4342 C 0.95911 0.68514 0.37925 0.0
C4343 C 0.95759 0.69479 0.38317 0.0
C4344 C 0.94994 0.67359 0.38334 0.0
C4345 C 0.95039 0.6629 0.37831 0.0
C4346 C 0.95231 0.66111 0.36135 0.0
C4347 C 0.95283 0.65107 0.35671 0.0
C4348 C 0.95137 0.64273 0.36891 0.0
C4349 C 0.94935 0.64439 0.38576 0.0
C4350 C 0.94883 0.65441 0.39047 0.0
C4351 C 0.90725 0.67402 0.40629 0.0
C4352 C 0.90758 0.67488 0.42404 0.0
C4353 C 0.91741 0.67649 0.39719 0.0
C4354 C 0.92801 0.67975 0.4057 0.0
C4355 C 0.92839 0.68069 0.42337 0.0
C4356 C 0.9183 0.67837 0.43245 0.0
C4357 C 0.93863 0.68179 0.39627 0.0
C4358 C 0.9399 0.6721 0.39199 0.0
C4359 C 0.94745 0.69322 0.39152 0.0
C4360 C 0.94616 0.70362 0.39481 0.0
C4361 C 0.9475 0.70821 0.41122 0.0
C4362 C 0.94615 0.71799 0.41421 0.0
C4363 C 0.94354 0.72329 0.40084 0.0
C4364 C 0.94232 0.71884 0.38444 0.0
C4365 C 0.94364 0.70904 0.38141 0.0
H4366 H 0.94251 0.73087 0.40317 0.0
H4367 H 0.95178 0.63497 0.36529 0.0
H4368 H 0.36012 0.00913 0.69663 0.0
H4369 H 0.37425 0.00371 0.70783 0.0
H4370 H 0.40269 0.03916 0.69906 0.0
H4371 H 0.38871 0.0446 0.68782 0.0
H4372 H 0.40904 0.02291 0.69068 0.0
H4373 H 0.39042 0.03085 0.7378 0.0
H4374 H 0.37349 0.02796 0.75508 0.0
H4375 H 0.36347 0.99169 0.76301 0.0
H4376 H 0.38027 0.99434 0.74559 0.0
H4377 H 0.45399 0.03162 0.748 0.0
H4378 H 0.43854 0.03186 0.73112 0.0
H4379 H 0.41382 0.99651 0.74758 0.0
H4380 H 0.42915 0.99641 0.76515 0.0
H4381 H 0.40427 0.00988 0.75047 0.0
H4382 H 0.42451 0.00264 0.70624 0.0
H4383 H 0.44161 0.0057 0.68927 0.0
H4384 H 0.44868 0.0404 0.67576 0.0
H4385 H 0.43171 0.03761 0.69285 0.0
C4386 C 0.36941 0.01572 0.69688 0.0
C4387 C 0.37328 0.02731 0.69143 0.0
C4388 C 0.37746 0.01262 0.70335 0.0
C4389 C 0.38952 0.02107 0.70446 0.0
C4390 C 0.39344 0.03249 0.69834 0.0
C4391 C 0.38541 0.0356 0.69196 0.0
C4392 C 0.39804 0.0183 0.71279 0.0
C4393 C 0.40804 0.0201 0.70377 0.0
C4394 C 0.39658 0.01435 0.72974 0.0
C4395 C 0.3865 0.01276 0.74023 0.0
C4396 C 0.38454 0.02224 0.74312 0.0
C4397 C 0.37499 0.02065 0.75296 0.0
C4398 C 0.36738 0.00964 0.76009 0.0
C4399 C 0.36935 1.0002 0.75745 0.0
C4400 C 0.37889 0.00175 0.7476 0.0
C4401 C 0.44528 0.02387 0.74802 0.0
C4402 C 0.44283 0.01402 0.75802 0.0
C4403 C 0.43646 0.02397 0.73818 0.0
C4404 C 0.42501 0.01415 0.7379 0.0
C4405 C 0.4226 0.00418 0.74753 0.0
C4406 C 0.43141 0.00409 0.75745 0.0
C4407 C 0.41542 0.01465 0.72844 0.0
C4408 C 0.40521 0.01247 0.73728 0.0
C4409 C 0.4167 0.01824 0.71131 0.0
C4410 C 0.42688 0.01994 0.70093 0.0
C4411 C 0.42976 0.01095 0.69975 0.0
C4412 C 0.43942 0.01263 0.69009 0.0
C4413 C 0.44624 0.02324 0.68147 0.0
C4414 C 0.44339 0.03218 0.68245 0.0
C4415 C 0.43374 0.03055 0.6921 0.0
H4416 H 0.45371 0.02453 0.674 0.0
H4417 H 0.35999 0.00842 0.76771 0.0
H4418 H 1.00009 0.35195 0.69845 0.0
H4419 H 0.00609 0.37154 0.70992 0.0
H4420 H 0.97217 0.36716 0.69671 0.0
H4421 H 0.96614 0.34766 0.68515 0.0
H4422 H 0.98985 0.3897 0.69078 0.0
H4423 H 0.97701 0.36116 0.73608 0.0
H4424 H 0.97732 0.34559 0.75325 0.0
H4425 H 0.01354 0.36921 0.76624 0.0
H4426 H 0.01349 0.38487 0.74895 0.0
H4427 H 0.98937 0.42199 0.77291 0.0
H4428 H 0.98539 0.40446 0.75681 0.0
H4429 H 0.01415 0.42594 0.72314 0.0
H4430 H 0.0181 0.44362 0.73912 0.0
H4431 H 0.99974 0.39526 0.75188 0.0
H4432 H 0.00619 0.41249 0.68336 0.0
H4433 H 0.00431 0.4274 0.66672 0.0
H4434 H 0.97811 0.42542 0.70133 0.0
H4435 H 0.97973 0.41039 0.71803 0.0
C4436 C 0.99397 0.35523 0.69776 0.0
C4437 C 0.9826 0.34819 0.69101 0.0
C4438 C 0.9974 0.36641 0.70436 0.0
C4439 C 0.98953 0.37076 0.70435 0.0
C4440 C 0.97839 0.36399 0.69686 0.0
C4441 C 0.97494 0.35281 0.69031 0.0
C4442 C 0.9925 0.38193 0.71316 0.0
C4443 C 0.99211 0.39096 0.70411 0.0
C4444 C 0.99527 0.38352 0.73061 0.0
C4445 C 0.99529 0.37414 0.74109 0.0
C4446 C 0.98507 0.363 0.7425 0.0
C4447 C 0.98519 0.35417 0.75226 0.0
C4448 C 0.99545 0.3564 0.76079 0.0
C4449 C 0.00561 0.36748 0.7596 0.0
C4450 C 0.00553 0.37635 0.74983 0.0
C4451 C 0.99473 0.42303 0.76191 0.0
C4452 C 0.00401 0.43422 0.75723 0.0
C4453 C 0.99252 0.41298 0.75283 0.0
C4454 C 0.99945 0.41389 0.73876 0.0
C4455 C 0.00864 0.42505 0.73389 0.0
C4456 C 0.01092 0.43513 0.74307 0.0
C4457 C 0.99715 0.40307 0.7295 0.0
C4458 C 0.99765 0.39409 0.7385 0.0
C4459 C 0.99433 0.40148 0.71207 0.0
C4460 C 0.9932 0.41042 0.70205 0.0
C4461 C 1.00001 0.41522 0.68739 0.0
C4462 C 0.99899 0.42369 0.67795 0.0
C4463 C 0.99113 0.42739 0.683 0.0
C4464 C 0.98424 0.42259 0.69747 0.0
C4465 C 0.98522 0.41411 0.70694 0.0
H4466 H 0.99035 0.43396 0.67568 0.0
H4467 H 0.99553 0.34954 0.76834 0.0
H4468 H 0.66649 0.62407 0.7059 0.0
H4469 H 0.64683 0.60979 0.71579 0.0
H4470 H 0.63379 0.63254 0.69909 0.0
H4471 H 0.6537 0.64718 0.68977 0.0
H4472 H 0.62528 0.62461 0.72849 0.0
H4473 H 0.6272 0.60583 0.67805 0.0
H4474 H 0.63559 0.59795 0.65738 0.0
H4475 H 0.63465 0.57354 0.69445 0.0
H4476 H 0.6264 0.58138 0.71542 0.0
H4477 H 0.56558 0.57978 0.74266 0.0
H4478 H 0.58356 0.59299 0.72714 0.0
H4479 H 0.60199 0.57786 0.75252 0.0
H4480 H 0.58424 0.56497 0.7687 0.0
H4481 H 0.60658 0.58177 0.71649 0.0
H4482 H 0.60591 0.6022 0.7672 0.0
H4483 H 0.59689 0.60995 0.787 0.0
H4484 H 0.59469 0.63122 0.74742 0.0
H4485 H 0.60355 0.62344 0.72731 0.0
C4486 C 0.65943 0.62602 0.70417 0.0
C4487 C 0.66166 0.63676 0.69698 0.0
C4488 C 0.64813 0.61778 0.70975 0.0
C4489 C 0.6387 0.61993 0.70793 0.0
C4490 C 0.64088 0.63063 0.7006 0.0
C4491 C 0.65226 0.63898 0.69522 0.0
C4492 C 0.62676 0.61127 0.71449 0.0
C4493 C 0.62112 0.61528 0.72554 0.0
C4494 C 0.62132 0.59903 0.71095 0.0
C4495 C 0.62626 0.59426 0.69835 0.0
C4496 C 0.62886 0.59884 0.68183 0.0
C4497 C 0.63358 0.59437 0.67006 0.0
C4498 C 0.63567 0.58527 0.67461 0.0
C4499 C 0.63303 0.5806 0.69094 0.0
C4500 C 0.62831 0.58504 0.70278 0.0
C4501 C 0.57344 0.57926 0.74503 0.0
C4502 C 0.57342 0.57134 0.75713 0.0
C4503 C 0.5837 0.58677 0.73604 0.0
C4504 C 0.59412 0.58646 0.73878 0.0
C4505 C 0.59402 0.57821 0.75019 0.0
C4506 C 0.58381 0.57079 0.75937 0.0
C4507 C 0.60529 0.59516 0.73047 0.0
C4508 C 0.61075 0.59113 0.71918 0.0
C4509 C 0.61049 0.60739 0.7336 0.0
C4510 C 0.60527 0.61214 0.74571 0.0
C4511 C 0.60341 0.60845 0.76268 0.0
C4512 C 0.59834 0.61286 0.77397 0.0
C4513 C 0.59519 0.62105 0.76846 0.0
C4514 C 0.59712 0.62486 0.75166 0.0
C4515 C 0.60217 0.62046 0.74032 0.0
H4516 H 0.59127 0.62445 0.77721 0.0
H4517 H 0.63933 0.58183 0.66547 0.0
H4518 H 0.71264 0.72062 0.66972 0.0
H4519 H 0.70645 0.73427 0.6598 0.0
H4520 H 0.67007 0.70646 0.6612 0.0
H4521 H 0.67627 0.69257 0.67091 0.0
H4522 H 0.67461 0.71845 0.63241 0.0
H4523 H 0.6807 0.729 0.6903 0.0
H4524 H 0.6909 0.73426 0.71782 0.0
H4525 H 0.71948 0.76561 0.69613 0.0
H4526 H 0.70954 0.76046 0.66841 0.0
H4527 H 0.66034 0.76344 0.61062 0.0
H4528 H 0.66102 0.74803 0.62731 0.0
H4529 H 0.69899 0.76719 0.6248 0.0
H4530 H 0.69845 0.78227 0.60756 0.0
H4531 H 0.68996 0.75824 0.65742 0.0
H4532 H 0.68463 0.74542 0.59873 0.0
H4533 H 0.67408 0.74004 0.57146 0.0
H4534 H 0.64318 0.71264 0.59583 0.0
H4535 H 0.65351 0.71799 0.6233 0.0
C4536 C 0.7033 0.71739 0.66809 0.0
C4537 C 0.69494 0.70549 0.67115 0.0
C4538 C 0.69976 0.72525 0.66249 0.0
C4539 C 0.68777 0.72146 0.65997 0.0
C4540 C 0.67937 0.7096 0.66312 0.0
C4541 C 0.68292 0.70169 0.66872 0.0
C4542 C 0.68423 0.72986 0.65323 0.0
C4543 C 0.67773 0.72704 0.63813 0.0
C4544 C 0.68835 0.74113 0.66057 0.0
C4545 C 0.69439 0.7443 0.67723 0.0
C4546 C 0.6892 0.73698 0.69136 0.0
C4547 C 0.69493 0.73995 0.707 0.0
C4548 C 0.70584 0.75026 0.70872 0.0
C4549 C 0.71103 0.75763 0.69479 0.0
C4550 C 0.70534 0.7547 0.67911 0.0
C4551 C 0.66885 0.76438 0.61354 0.0
C4552 C 0.67934 0.77419 0.60767 0.0
C4553 C 0.66921 0.75558 0.62318 0.0
C4554 C 0.68006 0.75647 0.62727 0.0
C4555 C 0.69052 0.76638 0.62191 0.0
C4556 C 0.69018 0.77507 0.61212 0.0
C4557 C 0.68066 0.74691 0.63645 0.0
C4558 C 0.68663 0.74954 0.65198 0.0
C4559 C 0.67596 0.73544 0.6296 0.0
C4560 C 0.66978 0.7322 0.61309 0.0
C4561 C 0.67555 0.73832 0.59829 0.0
C4562 C 0.66962 0.73526 0.5828 0.0
C4563 C 0.65795 0.72603 0.58192 0.0
C4564 C 0.6522 0.71981 0.59653 0.0
C4565 C 0.65809 0.72285 0.61207 0.0
H4566 H 0.65338 0.72367 0.56991 0.0
H4567 H 0.71027 0.75254 0.72084 0.0
H4568 H 0.31858 0.989 0.66348 0.0
H4569 H 0.30459 0.96929 0.65277 0.0
H4570 H 0.2759 0.97599 0.66089 0.0
H4571 H 0.28979 0.99567 0.6716 0.0
H4572 H 0.27001 0.95329 0.67003 0.0
H4573 H 0.28709 0.97933 0.62251 0.0
H4574 H 0.30335 0.99388 0.60474 0.0
H4575 H 0.31553 0.96929 0.59682 0.0
H4576 H 0.29943 0.95465 0.61475 0.0
H4577 H 0.2272 0.9098 0.61451 0.0
H4578 H 0.24083 0.92799 0.62942 0.0
H4579 H 0.26972 0.92225 0.61752 0.0
H4580 H 0.25629 0.90437 0.60213 0.0
H4581 H 0.27561 0.9443 0.61097 0.0
H4582 H 0.2581 0.91789 0.65771 0.0
H4583 H 0.24182 0.90334 0.67544 0.0
H4584 H 0.23041 0.92838 0.68486 0.0
H4585 H 0.24653 0.94303 0.66698 0.0
C4586 C 0.30928 0.98622 0.66319 0.0
C4587 C 0.30531 0.99394 0.66829 0.0
C4588 C 0.3013 0.97497 0.65701 0.0
C4589 C 0.28922 0.97122 0.65585 0.0
C4590 C 0.28518 0.9787 0.66165 0.0
C4591 C 0.29315 0.98997 0.66771 0.0
C4592 C 0.28086 0.95978 0.64777 0.0
C4593 C 0.27116 0.95134 0.65707 0.0
C4594 C 0.28247 0.95717 0.63095 0.0
C4595 C 0.29214 0.96595 0.62013 0.0
C4596 C 0.2933 0.97706 0.6171 0.0
C4597 C 0.30247 0.98532 0.60698 0.0
C4598 C 0.31049 0.98252 0.5997 0.0
C4599 C 0.30933 0.97145 0.60249 0.0
C4600 C 0.30018 0.96317 0.61262 0.0
C4601 C 0.23645 0.91241 0.61507 0.0
C4602 C 0.24061 0.90555 0.60717 0.0
C4603 C 0.24422 0.92276 0.62374 0.0
C4604 C 0.25631 0.92645 0.62474 0.0
C4605 C 0.26044 0.91958 0.61698 0.0
C4606 C 0.2527 0.90927 0.60832 0.0
C4607 C 0.26475 0.93771 0.63324 0.0
C4608 C 0.27447 0.94616 0.62398 0.0
C4609 C 0.26314 0.9403 0.65009 0.0
C4610 C 0.25345 0.93152 0.66087 0.0
C4611 C 0.25206 0.92026 0.66345 0.0
C4612 C 0.24287 0.912 0.67355 0.0
C4613 C 0.23507 0.91492 0.68123 0.0
C4614 C 0.23645 0.92612 0.67888 0.0
C4615 C 0.24562 0.93441 0.66877 0.0
H4616 H 0.22796 0.90852 0.68905 0.0
H4617 H 0.31759 0.98893 0.59186 0.0
H4618 H 0.01727 0.30325 0.68295 0.0
H4619 H 0.03703 0.30973 0.67192 0.0
H4620 H 0.03766 0.33984 0.64871 0.0
H4621 H 0.0179 0.33348 0.65991 0.0
H4622 H 0.04296 0.32637 0.62645 0.0
H4623 H 0.0553 0.34465 0.68065 0.0
H4624 H 0.05544 0.34563 0.71178 0.0
H4625 H 0.06605 0.3195 0.71449 0.0
H4626 H 0.06581 0.31823 0.68337 0.0
H4627 H 0.10013 0.34808 0.5938 0.0
H4628 H 0.08394 0.34742 0.60994 0.0
H4629 H 0.08233 0.31957 0.64099 0.0
H4630 H 0.09894 0.32059 0.62546 0.0
H4631 H 0.07815 0.33385 0.65977 0.0
H4632 H 0.06381 0.31372 0.60683 0.0
H4633 H 0.06308 0.31157 0.57582 0.0
H4634 H 0.05542 0.33971 0.57086 0.0
H4635 H 0.05627 0.34214 0.60186 0.0
C4636 C 0.02168 0.31136 0.67573 0.0
C4637 C 0.01601 0.31785 0.67228 0.0
C4638 C 0.03299 0.31507 0.66948 0.0
C4639 C 0.03883 0.32528 0.65953 0.0
C4640 C 0.03332 0.33194 0.65639 0.0
C4641 C 0.02205 0.32832 0.66286 0.0
C4642 C 0.05027 0.32845 0.65142 0.0
C4643 C 0.05074 0.32826 0.63372 0.0
C4644 C 0.06029 0.33054 0.66094 0.0
C4645 C 0.06043 0.33127 0.67967 0.0
C4646 C 0.05756 0.33903 0.68788 0.0
C4647 C 0.05768 0.33965 0.70553 0.0
C4648 C 0.06073 0.33261 0.71511 0.0
C4649 C 0.06369 0.32494 0.70706 0.0
C4650 C 0.06357 0.32428 0.68941 0.0
C4651 C 0.09656 0.34202 0.60434 0.0
C4652 C 0.10081 0.33431 0.6082 0.0
C4653 C 0.08718 0.34155 0.61344 0.0
C4654 C 0.08172 0.33327 0.62646 0.0
C4655 C 0.08632 0.32598 0.63093 0.0
C4656 C 0.09576 0.3265 0.62191 0.0
C4657 C 0.07083 0.33171 0.63477 0.0
C4658 C 0.07043 0.33213 0.65249 0.0
C4659 C 0.06079 0.32967 0.62528 0.0
C4660 C 0.06024 0.3282 0.60665 0.0
C4661 C 0.06206 0.31951 0.59912 0.0
C4662 C 0.06161 0.31823 0.58155 0.0
C4663 C 0.05924 0.32552 0.57137 0.0
C4664 C 0.05728 0.33409 0.57876 0.0
C4665 C 0.05774 0.33542 0.59633 0.0
H4666 H 0.05889 0.32452 0.55777 0.0
H4667 H 0.06082 0.33311 0.72877 0.0
H4668 H 0.31465 0.33254 0.67322 0.0
H4669 H 0.30031 0.33778 0.66226 0.0
H4670 H 0.27441 0.3009 0.65744 0.0
H4671 H 0.28853 0.2956 0.66855 0.0
H4672 H 0.2783 0.31456 0.62753 0.0
H4673 H 0.27065 0.31563 0.68719 0.0
H4674 H 0.27625 0.32241 0.71659 0.0
H4675 H 0.28864 0.35814 0.70109 0.0
H4676 H 0.28327 0.35159 0.67154 0.0
H4677 H 0.22948 0.318 0.60014 0.0
H4678 H 0.24201 0.31308 0.61682 0.0
H4679 H 0.26259 0.34929 0.63306 0.0
H4680 H 0.24939 0.35407 0.61776 0.0
H4681 H 0.26198 0.33651 0.65752 0.0
H4682 H 0.27096 0.33697 0.59893 0.0
H4683 H 0.26695 0.33171 0.56876 0.0
H4684 H 0.25444 0.29537 0.58076 0.0
H4685 H 0.25823 0.30038 0.61104 0.0
C4686 C 0.30585 0.32556 0.67005 0.0
C4687 C 0.30275 0.31365 0.67174 0.0
C4688 C 0.29767 0.32856 0.66382 0.0
C4689 C 0.28631 0.31971 0.65903 0.0
C4690 C 0.28313 0.30785 0.66105 0.0
C4691 C 0.29122 0.30485 0.66746 0.0
C4692 C 0.27792 0.32272 0.65094 0.0
C4693 C 0.2746 0.31922 0.63414 0.0
C4694 C 0.27347 0.3292 0.65937 0.0
C4695 C 0.27668 0.33313 0.67713 0.0
C4696 C 0.27467 0.32494 0.69003 0.0
C4697 C 0.27778 0.32874 0.70672 0.0
C4698 C 0.28283 0.3407 0.7107 0.0
C4699 C 0.28475 0.34888 0.69799 0.0
C4700 C 0.28166 0.34513 0.68127 0.0
C4701 C 0.23644 0.3249 0.6076 0.0
C4702 C 0.23844 0.33651 0.60729 0.0
C4703 C 0.24377 0.32209 0.61694 0.0
C4704 C 0.25354 0.33088 0.62578 0.0
C4705 C 0.25523 0.34235 0.62618 0.0
C4706 C 0.24773 0.34511 0.61718 0.0
C4707 C 0.26219 0.32822 0.63405 0.0
C4708 C 0.26563 0.33183 0.65085 0.0
C4709 C 0.26701 0.32208 0.62548 0.0
C4710 C 0.26478 0.31904 0.60727 0.0
C4711 C 0.26729 0.32784 0.59514 0.0
C4712 C 0.26506 0.32491 0.57802 0.0
C4713 C 0.26041 0.31321 0.57285 0.0
C4714 C 0.25802 0.30442 0.58479 0.0
C4715 C 0.26021 0.30731 0.60193 0.0
H4716 H 0.25869 0.31095 0.55959 0.0
H4717 H 0.28522 0.34362 0.72363 0.0
H4718 H 0.67614 0.98534 0.6756 0.0
H4719 H 0.67065 0.96567 0.66472 0.0
H4720 H 0.70741 0.97658 0.65833 0.0
H4721 H 0.71297 0.99608 0.66941 0.0
H4722 H 0.69285 0.96663 0.62881 0.0
H4723 H 0.69375 0.95847 0.68828 0.0
H4724 H 0.68793 0.95749 0.71814 0.0
H4725 H 0.65177 0.93379 0.70492 0.0
H4726 H 0.65736 0.93476 0.67493 0.0
H4727 H 0.69026 0.91467 0.60206 0.0
H4728 H 0.69496 0.93217 0.61847 0.0
H4729 H 0.65881 0.91609 0.6351 0.0
H4730 H 0.6542 0.89811 0.61978 0.0
H4731 H 0.67216 0.92859 0.65967 0.0
H4732 H 0.66998 0.93628 0.60129 0.0
H4733 H 0.67442 0.93726 0.57085 0.0
H4734 H 0.71091 0.96192 0.58079 0.0
H4735 H 0.70671 0.96096 0.61133 0.0
C4736 C 0.68305 0.98348 0.67212 0.0
C4737 C 0.69499 0.99228 0.67336 0.0
C4738 C 0.6799 0.97225 0.66593 0.0
C4739 C 0.68864 0.96969 0.6607 0.0
C4740 C 0.70054 0.97838 0.66228 0.0
C4741 C 0.70369 0.98951 0.66868 0.0
C4742 C 0.68545 0.95825 0.65262 0.0
C4743 C 0.68846 0.95831 0.63559 0.0
C4744 C 0.67932 0.94739 0.66132 0.0
C4745 C 0.67596 0.9468 0.67934 0.0
C4746 C 0.68454 0.95315 0.69172 0.0
C4747 C 0.68129 0.95257 0.70867 0.0
C4748 C 0.66948 0.94561 0.71342 0.0
C4749 C 0.66091 0.93919 0.70123 0.0
C4750 C 0.66412 0.93975 0.68425 0.0
C4751 C 0.68333 0.91465 0.60954 0.0
C4752 C 0.67178 0.90491 0.60936 0.0
C4753 C 0.68601 0.9248 0.61874 0.0
C4754 C 0.67717 0.92564 0.62765 0.0
C4755 C 0.66577 0.91576 0.62818 0.0
C4756 C 0.66312 0.9055 0.61922 0.0
C4757 C 0.67973 0.93694 0.63583 0.0
C4758 C 0.67655 0.93687 0.65283 0.0
C4759 C 0.68549 0.94781 0.627 0.0
C4760 C 0.68805 0.94846 0.60862 0.0
C4761 C 0.67896 0.94185 0.597 0.0
C4762 C 0.68144 0.94241 0.57972 0.0
C4763 C 0.69294 0.94962 0.57389 0.0
C4764 C 0.702 0.95632 0.58533 0.0
C4765 C 0.69958 0.95578 0.60262 0.0
H4766 H 0.69484 0.95005 0.56051 0.0
H4767 H 0.66698 0.94518 0.72655 0.0
H4768 H 0.01895 0.68948 0.66666 0.0
H4769 H 0.03922 0.70281 0.65719 0.0
H4770 H 0.03221 0.73167 0.65621 0.0
H4771 H 0.01206 0.71848 0.6657 0.0
H4772 H 0.04643 0.71493 0.62788 0.0
H4773 H 0.05725 0.75727 0.66555 0.0
H4774 H 0.05291 0.7627 0.69339 0.0
H4775 H 0.04713 0.72994 0.71419 0.0
H4776 H 0.0516 0.72438 0.68654 0.0
H4777 H 0.08964 0.76601 0.5871 0.0
H4778 H 0.07202 0.75212 0.60272 0.0
H4779 H 0.09371 0.75245 0.64397 0.0
H4780 H 0.11147 0.76654 0.62845 0.0
H4781 H 0.07388 0.75327 0.6549 0.0
H4782 H 0.08289 0.7299 0.61819 0.0
H4783 H 0.08778 0.72414 0.59103 0.0
H4784 H 0.0549 0.71791 0.57007 0.0
H4785 H 0.04989 0.72381 0.59704 0.0
C4786 C 0.02178 0.69869 0.66462 0.0
C4787 C 0.01388 0.70291 0.66692 0.0
C4788 C 0.03335 0.70629 0.65916 0.0
C4789 C 0.03727 0.71827 0.65611 0.0
C4790 C 0.02946 0.72252 0.65871 0.0
C4791 C 0.0179 0.71494 0.66407 0.0
C4792 C 0.04929 0.72623 0.64928 0.0
C4793 C 0.05245 0.72328 0.63386 0.0
C4794 C 0.05724 0.73705 0.65718 0.0
C4795 C 0.05467 0.74038 0.67392 0.0
C4796 C 0.05511 0.75125 0.67608 0.0
C4797 C 0.05262 0.75434 0.69182 0.0
C4798 C 0.04972 0.74665 0.70554 0.0
C4799 C 0.04934 0.73587 0.70354 0.0
C4800 C 0.05183 0.73273 0.68783 0.0
C4801 C 0.09068 0.7633 0.59962 0.0
C4802 C 0.10198 0.76741 0.60655 0.0
C4803 C 0.0806 0.75527 0.60846 0.0
C4804 C 0.08156 0.75115 0.62443 0.0
C4805 C 0.09278 0.75549 0.63164 0.0
C4806 C 0.10291 0.76349 0.62273 0.0
C4807 C 0.07081 0.74211 0.63329 0.0
C4808 C 0.06789 0.74487 0.64905 0.0
C4809 C 0.06313 0.73104 0.62581 0.0
C4810 C 0.06606 0.72738 0.60961 0.0
C4811 C 0.07674 0.72738 0.60775 0.0
C4812 C 0.07953 0.72408 0.5924 0.0
C4813 C 0.07166 0.72068 0.57882 0.0
C4814 C 0.06098 0.72055 0.58059 0.0
C4815 C 0.05816 0.72386 0.59592 0.0
H4816 H 0.07384 0.71813 0.56694 0.0
H4817 H 0.04778 0.74906 0.71771 0.0
H4818 H 0.95943 0.62189 0.7029 0.0
H4819 H 0.9646 0.60781 0.71442 0.0
H4820 H 1.00122 0.63154 0.70287 0.0
H4821 H 0.99612 0.64586 0.69132 0.0
H4822 H 0.99253 0.60651 0.69529 0.0
H4823 H 0.9944 0.63147 0.74092 0.0
H4824 H 0.98717 0.642 0.75871 0.0
H4825 H 0.95694 0.60905 0.77277 0.0
H4826 H 0.96389 0.59834 0.75485 0.0
H4827 H 0.00972 0.5734 0.74963 0.0
H4828 H 0.00832 0.58898 0.73456 0.0
H4829 H 0.97219 0.57409 0.75081 0.0
H4830 H 0.9737 0.55899 0.76661 0.0
H4831 H 0.98332 0.59668 0.756 0.0
H4832 H 0.9804 0.57172 0.70917 0.0
H4833 H 0.98698 0.56088 0.69085 0.0
H4834 H 0.01856 0.59323 0.67872 0.0
H4835 H 0.01222 0.60424 0.69715 0.0
C4836 C 0.96859 0.62412 0.70263 0.0
C4837 C 0.97738 0.63506 0.69628 0.0
C4838 C 0.97152 0.61605 0.70924 0.0
C4839 C 0.9833 0.61868 0.70963 0.0
C4840 C 0.99208 0.62936 0.70269 0.0
C4841 C 0.98915 0.63753 0.69615 0.0
C4842 C 0.98632 0.61045 0.71819 0.0
C4843 C 0.99073 0.60448 0.70863 0.0
C4844 C 0.98379 0.60771 0.73552 0.0
C4845 C 0.97962 0.61411 0.74643 0.0
C4846 C 0.98616 0.62648 0.7477 0.0
C4847 C 0.98212 0.63248 0.75783 0.0
C4848 C 0.97159 0.6262 0.76684 0.0
C4849 C 0.96509 0.61391 0.76577 0.0
C4850 C 0.96908 0.60786 0.75565 0.0
C4851 C 1.00148 0.57344 0.75002 0.0
C4852 C 0.99182 0.56486 0.75936 0.0
C4853 C 1.00065 0.5823 0.74124 0.0
C4854 C 0.99012 0.58269 0.74144 0.0
C4855 C 0.98042 0.574 0.75044 0.0
C4856 C 0.98126 0.56524 0.75931 0.0
C4857 C 0.98922 0.59239 0.73303 0.0
C4858 C 0.98525 0.59872 0.74268 0.0
C4859 C 0.9921 0.59539 0.71578 0.0
C4860 C 0.9959 0.58878 0.70468 0.0
C4861 C 0.98879 0.57651 0.7027 0.0
C4862 C 0.99247 0.57034 0.69228 0.0
C4863 C 0.0032 0.57636 0.68367 0.0
C4864 C 0.01026 0.58857 0.68542 0.0
C4865 C 0.00663 0.59478 0.69584 0.0
H4866 H 0.00603 0.57157 0.6756 0.0
H4867 H 0.96847 0.63086 0.77467 0.0
H4868 H 0.35679 0.35166 0.70392 0.0
H4869 H 0.37094 0.3711 0.71522 0.0
H4870 H 0.39921 0.36956 0.68949 0.0
H4871 H 0.38518 0.34995 0.67884 0.0
H4872 H 0.40548 0.37566 0.71987 0.0
H4873 H 0.38838 0.38893 0.67786 0.0
H4874 H 0.37241 0.38977 0.66255 0.0
H4875 H 0.36236 0.40032 0.70809 0.0
H4876 H 0.37818 0.3994 0.72374 0.0
H4877 H 0.45039 0.43376 0.73755 0.0
H4878 H 0.43533 0.41726 0.72115 0.0
H4879 H 0.40842 0.41489 0.75498 0.0
H4880 H 0.42344 0.43116 0.77176 0.0
H4881 H 0.40153 0.41141 0.72011 0.0
H4882 H 0.4184 0.39727 0.76186 0.0
H4883 H 0.43478 0.39686 0.77662 0.0
H4884 H 0.44559 0.38822 0.73009 0.0
H4885 H 0.42937 0.38876 0.715 0.0
C4886 C 0.366 0.35557 0.70046 0.0
C4887 C 0.36989 0.34927 0.69055 0.0
C4888 C 0.37409 0.36672 0.70687 0.0
C4889 C 0.38619 0.3719 0.70316 0.0
C4890 C 0.38996 0.36577 0.69264 0.0
C4891 C 0.38192 0.35457 0.6865 0.0
C4892 C 0.39505 0.3832 0.71123 0.0
C4893 C 0.40468 0.38351 0.71959 0.0
C4894 C 0.39392 0.39342 0.71138 0.0
C4895 C 0.3844 0.39398 0.70201 0.0
C4896 C 0.38271 0.39134 0.68465 0.0
C4897 C 0.37369 0.39185 0.6759 0.0
C4898 C 0.36636 0.39507 0.68435 0.0
C4899 C 0.36804 0.39781 0.70157 0.0
C4900 C 0.37704 0.39731 0.71037 0.0
C4901 C 0.44127 0.42978 0.74149 0.0
C4902 C 0.43818 0.43373 0.75613 0.0
C4903 C 0.43266 0.42039 0.73203 0.0
C4904 C 0.42078 0.41478 0.73696 0.0
C4905 C 0.41754 0.41912 0.75094 0.0
C4906 C 0.42616 0.42847 0.76049 0.0
C4907 C 0.41191 0.40379 0.72839 0.0
C4908 C 0.4023 0.40354 0.72013 0.0
C4909 C 0.41306 0.39362 0.72819 0.0
C4910 C 0.42275 0.39317 0.73728 0.0
C4911 C 0.42433 0.39537 0.75476 0.0
C4912 C 0.43357 0.3951 0.76318 0.0
C4913 C 0.44124 0.39254 0.75429 0.0
C4914 C 0.43966 0.39022 0.73696 0.0
C4915 C 0.43043 0.3905 0.72846 0.0
H4916 H 0.4484 0.39234 0.76084 0.0
H4917 H 0.35938 0.39546 0.67756 0.0
H4918 H 0.65706 0.03441 0.67372 0.0
H4919 H 0.63739 0.02866 0.68444 0.0
H4920 H 0.64096 0.00686 0.72228 0.0
H4921 H 0.66023 0.01191 0.71066 0.0
H4922 H 0.61971 0.99661 0.71447 0.0
H4923 H 0.64659 0.03689 0.72928 0.0
H4924 H 0.66133 0.05779 0.72436 0.0
H4925 H 0.63663 0.06171 0.69325 0.0
H4926 H 0.62178 0.04078 0.69783 0.0
H4927 H 0.58661 0.00886 0.77914 0.0
H4928 H 0.60375 0.01215 0.76241 0.0
H4929 H 0.58323 0.00449 0.71674 0.0
H4930 H 0.56591 1.0009 0.73348 0.0
H4931 H 0.61183 0.02914 0.72722 0.0
H4932 H 0.58526 0.98634 0.71339 0.0
H4933 H 0.57154 0.96608 0.72313 0.0
H4934 H 0.59755 0.96825 0.75829 0.0
H4935 H 0.61134 0.9886 0.74891 0.0
C4936 C 0.65353 0.02823 0.68414 0.0
C4937 C 0.66016 0.02363 0.69142 0.0
C4938 C 0.64233 0.02503 0.6904 0.0
C4939 C 0.63776 0.01761 0.70458 0.0
C4940 C 0.64423 0.01264 0.7114 0.0
C4941 C 0.65527 0.01553 0.70476 0.0
C4942 C 0.62653 0.01538 0.71272 0.0
C4943 C 0.61806 0.00377 0.71717 0.0
C4944 C 0.62423 0.02466 0.71649 0.0
C4945 C 0.63313 0.03724 0.71375 0.0
C4946 C 0.64433 0.04219 0.72131 0.0
C4947 C 0.6527 0.05404 0.71859 0.0
C4948 C 0.64993 0.06106 0.70845 0.0
C4949 C 0.63877 0.05625 0.70106 0.0
C4950 C 0.63037 0.0444 0.70373 0.0
C4951 C 0.58577 0.00794 0.76552 0.0
C4952 C 0.57494 0.00466 0.75759 0.0
C4953 C 0.59553 0.00976 0.75601 0.0
C4954 C 0.59469 0.00845 0.73841 0.0
C4955 C 0.58398 0.0054 0.73037 0.0
C4956 C 0.57413 0.00337 0.73991 0.0
C4957 C 0.60514 0.01046 0.72854 0.0
C4958 C 0.61349 0.02203 0.72406 0.0
C4959 C 0.60747 1.00124 0.72516 0.0
C4960 C 0.59925 0.989 0.73061 0.0
C4961 C 0.58799 0.98253 0.72332 0.0
C4962 C 0.58022 0.97103 0.72874 0.0
C4963 C 0.58366 0.96589 0.74136 0.0
C4964 C 0.59489 0.97224 0.74854 0.0
C4965 C 0.60269 0.98375 0.74317 0.0
H4966 H 0.57763 0.95699 0.74554 0.0
H4967 H 0.65642 0.07024 0.70636 0.0
loop_
_geom_bond_atom_site_label_1
_geom_bond_atom_site_label_2
_geom_bond_distance
_geom_bond_site_symmetry_2
_ccdc_geom_bond_type
O0 Cd1 2.223 . S
O0 C8 1.315 . S
Cd1 O0 2.223 . S
Cd1 O4 2.297 . S
Cd1 O5 2.439 . S
Cd1 O11 2.240 1_554 S
Cd2 O3 2.236 . S
Cd2 O10 2.243 . S
Cd2 O12 2.297 1_554 S
Cd2 O13 2.439 . S
O3 Cd2 2.236 . S
O3 C8 1.279 1_655 S
O4 Cd1 2.297 . S
O4 C6 1.247 . S
O5 Cd1 2.439 . S
O5 C6 1.208 . S
C6 O4 1.247 . S
C6 O5 1.208 . S
C7 O12 1.247 . S
C7 O13 1.208 1_556 S
C8 O0 1.315 . S
C8 O3 1.279 1_455 S
C9 O10 1.343 1_556 S
C9 O11 1.237 1_655 S
O10 Cd2 2.243 . S
O10 C9 1.343 1_554 S
O11 Cd1 2.240 1_556 S
O11 C9 1.237 1_455 S
O12 Cd2 2.297 1_556 S
O12 C7 1.247 . S
O13 Cd2 2.439 . S
O13 C7 1.208 1_554 S
O14 Cd15 2.223 . S
O14 C22 1.315 . S
Cd15 O14 2.223 . S
Cd15 O18 2.297 . S
Cd15 O19 2.439 . S
Cd15 O25 2.240 1_554 S
Cd16 O17 2.240 . S
Cd16 O24 2.242 . S
Cd16 O26 2.297 1_554 S
Cd16 O27 2.439 . S
O17 Cd16 2.240 . S
O17 C22 1.279 . S
O18 Cd15 2.297 . S
O18 C20 1.247 . S
O19 Cd15 2.439 . S
O19 C20 1.208 . S
C20 O18 1.247 . S
C20 O19 1.208 . S
C21 O26 1.247 . S
C21 O27 1.208 1_556 S
C22 O14 1.315 . S
C22 O17 1.279 . S
C23 O24 1.301 1_556 S
C23 O25 1.279 . S
O24 Cd16 2.242 . S
O24 C23 1.301 1_554 S
O25 Cd15 2.240 1_556 S
O25 C23 1.279 . S
O26 Cd16 2.297 1_556 S
O26 C21 1.247 . S
O27 Cd16 2.439 . S
O27 C21 1.208 1_554 S
O28 Cd29 2.240 . S
O28 C36 1.302 1_554 S
Cd29 O28 2.240 . S
Cd29 O32 2.297 1_554 S
Cd29 O33 2.439 . S
Cd29 O39 2.240 . S
Cd30 O31 2.253 1_554 S
Cd30 O38 2.223 . S
Cd30 O40 2.297 . S
Cd30 O41 2.439 . S
O31 Cd30 2.253 1_556 S
O31 C36 1.279 1_565 S
O32 Cd29 2.297 1_556 S
O32 C34 1.247 . S
O33 Cd29 2.439 . S
O33 C34 1.208 1_554 S
C34 O32 1.247 . S
C34 O33 1.208 1_556 S
C35 O40 1.247 . S
C35 O41 1.208 . S
C36 O28 1.302 1_556 S
C36 O31 1.279 1_545 S
C37 O38 1.383 . S
C37 O39 1.211 1_565 S
O38 Cd30 2.223 . S
O38 C37 1.383 . S
O39 Cd29 2.240 . S
O39 C37 1.211 1_545 S
O40 Cd30 2.297 . S
O40 C35 1.247 . S
O41 Cd30 2.439 . S
O41 C35 1.208 . S
O42 Cd43 2.243 . S
O42 C50 1.337 1_554 S
Cd43 O42 2.243 . S
Cd43 O46 2.297 1_554 S
Cd43 O47 2.439 . S
Cd43 O53 2.237 . S
Cd44 O45 2.240 1_554 S
Cd44 O52 2.223 . S
Cd44 O54 2.297 . S
Cd44 O55 2.439 . S
O45 Cd44 2.240 1_556 S
O45 C50 1.280 1_455 S
O46 Cd43 2.297 1_556 S
O46 C48 1.247 . S
O47 Cd43 2.439 . S
O47 C48 1.208 1_554 S
C48 O46 1.247 . S
C48 O47 1.208 1_556 S
C49 O54 1.247 . S
C49 O55 1.208 . S
C50 O42 1.337 1_556 S
C50 O45 1.280 1_655 S
C51 O52 1.315 . S
C51 O53 1.283 1_455 S
O52 Cd44 2.223 . S
O52 C51 1.315 . S
O53 Cd43 2.237 . S
O53 C51 1.283 1_655 S
O54 Cd44 2.297 . S
O54 C49 1.247 . S
O55 Cd44 2.439 . S
O55 C49 1.208 . S
O56 Cd57 2.244 . S
O56 C64 1.300 1_554 S
Cd57 O56 2.244 . S
Cd57 O60 2.297 1_554 S
Cd57 O61 2.439 . S
Cd57 O67 2.240 . S
Cd58 O59 2.240 1_554 S
Cd58 O66 2.223 . S
Cd58 O68 2.297 . S
Cd58 O69 2.439 . S
O59 Cd58 2.240 1_556 S
O59 C64 1.279 . S
O60 Cd57 2.297 1_556 S
O60 C62 1.247 . S
O61 Cd57 2.439 . S
O61 C62 1.208 1_554 S
C62 O60 1.247 . S
C62 O61 1.208 1_556 S
C63 O68 1.247 . S
C63 O69 1.208 . S
C64 O56 1.300 1_556 S
C64 O59 1.279 . S
C65 O66 1.315 . S
C65 O67 1.279 . S
O66 Cd58 2.223 . S
O66 C65 1.315 . S
O67 Cd57 2.240 . S
O67 C65 1.279 . S
O68 Cd58 2.297 . S
O68 C63 1.247 . S
O69 Cd58 2.439 . S
O69 C63 1.208 . S
O70 Cd71 2.223 . S
O70 C78 1.368 . S
Cd71 O70 2.223 . S
Cd71 O74 2.297 . S
Cd71 O75 2.439 . S
Cd71 O81 2.256 1_554 S
Cd72 O73 2.240 . S
Cd72 O80 2.241 . S
Cd72 O82 2.297 1_554 S
Cd72 O83 2.439 . S
O73 Cd72 2.240 . S
O73 C78 1.280 1_545 S
O74 Cd71 2.297 . S
O74 C76 1.247 . S
O75 Cd71 2.439 . S
O75 C76 1.208 . S
C76 O74 1.247 . S
C76 O75 1.208 . S
C77 O82 1.247 . S
C77 O83 1.208 1_556 S
C78 O70 1.368 . S
C78 O73 1.280 1_565 S
C79 O80 1.302 1_556 S
C79 O81 1.261 1_545 S
O80 Cd72 2.241 . S
O80 C79 1.302 1_554 S
O81 Cd71 2.256 1_556 S
O81 C79 1.261 1_565 S
O82 Cd72 2.297 1_556 S
O82 C77 1.247 . S
O83 Cd72 2.439 . S
O83 C77 1.208 1_554 S
O84 Cd85 2.223 . S
O84 C92 1.315 . S
Cd85 O84 2.223 . S
Cd85 O88 2.297 . S
Cd85 O89 2.439 . S
Cd85 O95 2.240 . S
Cd86 O87 2.240 . S
Cd86 O94 2.223 . S
Cd86 O96 2.297 . S
Cd86 O97 2.439 . S
O87 Cd86 2.240 . S
O87 C92 1.279 . S
O88 Cd85 2.297 . S
O88 C90 1.247 . S
O89 Cd85 2.439 . S
O89 C90 1.208 . S
C90 O88 1.247 . S
C90 O89 1.208 . S
C91 O96 1.247 . S
C91 O97 1.208 . S
C92 O84 1.315 . S
C92 O87 1.279 . S
C93 O94 1.315 . S
C93 O95 1.279 . S
O94 Cd86 2.223 . S
O94 C93 1.315 . S
O95 Cd85 2.240 . S
O95 C93 1.279 . S
O96 Cd86 2.297 . S
O96 C91 1.247 . S
O97 Cd86 2.439 . S
O97 C91 1.208 . S
O98 Cd99 2.223 . S
O98 C106 1.315 . S
Cd99 O98 2.223 . S
Cd99 O102 2.303 1_565 S
Cd99 O103 2.439 1_565 S
Cd99 O109 2.240 . S
Cd100 O101 2.240 . S
Cd100 O108 2.223 . S
Cd100 O110 2.297 . S
Cd100 O111 2.439 . S
O101 Cd100 2.240 . S
O101 C106 1.279 . S
O102 Cd99 2.303 1_545 S
O102 C104 1.248 . S
O103 Cd99 2.439 1_545 S
O103 C104 1.208 . S
C104 O102 1.248 . S
C104 O103 1.208 . S
C105 O110 1.247 . S
C105 O111 1.208 . S
C106 O98 1.315 . S
C106 O101 1.279 . S
C107 O108 1.315 . S
C107 O109 1.279 . S
O108 Cd100 2.223 . S
O108 C107 1.315 . S
O109 Cd99 2.240 . S
O109 C107 1.279 . S
O110 Cd100 2.297 . S
O110 C105 1.247 . S
O111 Cd100 2.439 . S
O111 C105 1.208 . S
O112 Cd113 2.223 . S
O112 C120 1.315 . S
Cd113 O112 2.223 . S
Cd113 O116 2.297 . S
Cd113 O117 2.439 . S
Cd113 O123 2.240 . S
Cd114 O115 2.240 . S
Cd114 O122 2.223 . S
Cd114 O124 2.297 . S
Cd114 O125 2.439 . S
O115 Cd114 2.240 . S
O115 C120 1.279 . S
O116 Cd113 2.297 . S
O116 C118 1.247 . S
O117 Cd113 2.439 . S
O117 C118 1.208 . S
C118 O116 1.247 . S
C118 O117 1.208 . S
C119 O124 1.247 1_655 S
C119 O125 1.209 1_655 S
C120 O112 1.315 . S
C120 O115 1.279 . S
C121 O122 1.315 . S
C121 O123 1.279 . S
O122 Cd114 2.223 . S
O122 C121 1.315 . S
O123 Cd113 2.240 . S
O123 C121 1.279 . S
O124 Cd114 2.297 . S
O124 C119 1.247 1_455 S
O125 Cd114 2.439 . S
O125 C119 1.209 1_455 S
O126 Cd127 2.223 . S
O126 C134 1.315 . S
Cd127 O126 2.223 . S
Cd127 O130 2.297 . S
Cd127 O131 2.439 . S
Cd127 O137 2.240 . S
Cd128 O129 2.240 . S
Cd128 O136 2.223 . S
Cd128 O138 2.292 . S
Cd128 O139 2.439 1_565 S
O129 Cd128 2.240 . S
O129 C134 1.279 . S
O130 Cd127 2.297 . S
O130 C132 1.247 . S
O131 Cd127 2.439 . S
O131 C132 1.208 . S
C132 O130 1.247 . S
C132 O131 1.208 . S
C133 O138 1.257 1_545 S
C133 O139 1.208 . S
C134 O126 1.315 . S
C134 O129 1.279 . S
C135 O136 1.315 . S
C135 O137 1.279 . S
O136 Cd128 2.223 . S
O136 C135 1.315 . S
O137 Cd127 2.240 . S
O137 C135 1.279 . S
O138 Cd128 2.292 . S
O138 C133 1.257 1_565 S
O139 Cd128 2.439 1_545 S
O139 C133 1.208 . S
O140 Cd141 2.223 . S
O140 C148 1.315 . S
Cd141 O140 2.223 . S
Cd141 O144 2.297 . S
Cd141 O145 2.439 . S
Cd141 O151 2.240 . S
Cd142 O143 2.240 . S
Cd142 O150 2.223 . S
Cd142 O152 2.297 . S
Cd142 O153 2.439 . S
O143 Cd142 2.240 . S
O143 C148 1.279 . S
O144 Cd141 2.297 . S
O144 C146 1.247 . S
O145 Cd141 2.439 . S
O145 C146 1.208 . S
C146 O144 1.247 . S
C146 O145 1.208 . S
C147 O152 1.248 1_655 S
C147 O153 1.204 1_655 S
C148 O140 1.315 . S
C148 O143 1.279 . S
C149 O150 1.315 . S
C149 O151 1.279 . S
O150 Cd142 2.223 . S
O150 C149 1.315 . S
O151 Cd141 2.240 . S
O151 C149 1.279 . S
O152 Cd142 2.297 . S
O152 C147 1.248 1_455 S
O153 Cd142 2.439 . S
O153 C147 1.204 1_455 S
O154 Cd155 2.223 . S
O154 C162 1.315 . S
Cd155 O154 2.223 . S
Cd155 O158 2.297 . S
Cd155 O159 2.439 . S
Cd155 O165 2.240 . S
Cd156 O157 2.240 . S
Cd156 O164 2.223 . S
Cd156 O166 2.297 . S
Cd156 O167 2.439 . S
O157 Cd156 2.240 . S
O157 C162 1.279 . S
O158 Cd155 2.297 . S
O158 C160 1.247 . S
O159 Cd155 2.439 . S
O159 C160 1.208 . S
C160 O158 1.247 . S
C160 O159 1.208 . S
C161 O166 1.247 . S
C161 O167 1.208 . S
C162 O154 1.315 . S
C162 O157 1.279 . S
C163 O164 1.315 . S
C163 O165 1.279 . S
O164 Cd156 2.223 . S
O164 C163 1.315 . S
O165 Cd155 2.240 . S
O165 C163 1.279 . S
O166 Cd156 2.297 . S
O166 C161 1.247 . S
O167 Cd156 2.439 . S
O167 C161 1.208 . S
O168 Cd169 2.223 . S
O168 C176 1.315 . S
Cd169 O168 2.223 . S
Cd169 O172 2.297 . S
Cd169 O173 2.439 . S
Cd169 O179 2.240 . S
Cd170 O171 2.240 . S
Cd170 O178 2.223 . S
Cd170 O180 2.297 . S
Cd170 O181 2.439 . S
O171 Cd170 2.240 . S
O171 C176 1.279 . S
O172 Cd169 2.297 . S
O172 C174 1.247 . S
O173 Cd169 2.439 . S
O173 C174 1.208 . S
C174 O172 1.247 . S
C174 O173 1.208 . S
C175 O180 1.221 1_565 S
C175 O181 1.212 1_565 S
C176 O168 1.315 . S
C176 O171 1.279 . S
C177 O178 1.315 . S
C177 O179 1.279 . S
O178 Cd170 2.223 . S
O178 C177 1.315 . S
O179 Cd169 2.240 . S
O179 C177 1.279 . S
O180 Cd170 2.297 . S
O180 C175 1.221 1_545 S
O181 Cd170 2.439 . S
O181 C175 1.212 1_545 S
O182 Cd183 2.223 . S
O182 C190 1.315 . S
Cd183 O182 2.223 . S
Cd183 O186 2.297 . S
Cd183 O187 2.439 . S
Cd183 O193 2.240 . S
Cd184 O185 2.240 . S
Cd184 O192 2.223 . S
Cd184 O194 2.283 1_655 S
Cd184 O195 2.439 1_655 S
O185 Cd184 2.240 . S
O185 C190 1.279 . S
O186 Cd183 2.297 . S
O186 C188 1.247 . S
O187 Cd183 2.439 . S
O187 C188 1.208 . S
C188 O186 1.247 . S
C188 O187 1.208 . S
C189 O194 1.247 . S
C189 O195 1.208 . S
C190 O182 1.315 . S
C190 O185 1.279 . S
C191 O192 1.315 . S
C191 O193 1.279 . S
O192 Cd184 2.223 . S
O192 C191 1.315 . S
O193 Cd183 2.240 . S
O193 C191 1.279 . S
O194 Cd184 2.283 1_455 S
O194 C189 1.247 . S
O195 Cd184 2.439 1_455 S
O195 C189 1.208 . S
O196 Cd197 2.223 . S
O196 C204 1.315 . S
Cd197 O196 2.223 . S
Cd197 O200 2.297 . S
Cd197 O201 2.439 . S
Cd197 O207 2.240 . S
Cd198 O199 2.240 . S
Cd198 O206 2.223 . S
Cd198 O208 2.297 . S
Cd198 O209 2.439 . S
O199 Cd198 2.240 . S
O199 C204 1.279 . S
O200 Cd197 2.297 . S
O200 C202 1.247 . S
O201 Cd197 2.439 . S
O201 C202 1.208 . S
C202 O200 1.247 . S
C202 O201 1.208 . S
C203 O208 1.247 . S
C203 O209 1.208 . S
C204 O196 1.315 . S
C204 O199 1.279 . S
C205 O206 1.315 . S
C205 O207 1.279 . S
O206 Cd198 2.223 . S
O206 C205 1.315 . S
O207 Cd197 2.240 . S
O207 C205 1.279 . S
O208 Cd198 2.297 . S
O208 C203 1.247 . S
O209 Cd198 2.439 . S
O209 C203 1.208 . S
O210 Cd211 2.223 . S
O210 C218 1.315 . S
Cd211 O210 2.223 . S
Cd211 O214 2.297 . S
Cd211 O215 2.439 . S
Cd211 O221 2.240 . S
Cd212 O213 2.240 . S
Cd212 O220 2.223 . S
Cd212 O222 2.297 . S
Cd212 O223 2.439 . S
O213 Cd212 2.240 . S
O213 C218 1.279 . S
O214 Cd211 2.297 . S
O214 C216 1.247 . S
O215 Cd211 2.439 . S
O215 C216 1.208 . S
C216 O214 1.247 . S
C216 O215 1.208 . S
C217 O222 1.247 . S
C217 O223 1.208 . S
C218 O210 1.315 . S
C218 O213 1.279 . S
C219 O220 1.315 . S
C219 O221 1.279 . S
O220 Cd212 2.223 . S
O220 C219 1.315 . S
O221 Cd211 2.240 . S
O221 C219 1.279 . S
O222 Cd212 2.297 . S
O222 C217 1.247 . S
O223 Cd212 2.439 . S
O223 C217 1.208 . S
O224 Cd225 2.223 . S
O224 C232 1.315 . S
Cd225 O224 2.223 . S
Cd225 O228 2.297 . S
Cd225 O229 2.439 . S
Cd225 O235 2.240 . S
Cd226 O227 2.240 . S
Cd226 O234 2.223 . S
Cd226 O236 2.297 . S
Cd226 O237 2.439 . S
O227 Cd226 2.240 . S
O227 C232 1.279 . S
O228 Cd225 2.297 . S
O228 C230 1.249 1_545 S
O229 Cd225 2.439 . S
O229 C230 1.183 1_545 S
C230 O228 1.249 1_565 S
C230 O229 1.183 1_565 S
C231 O236 1.247 . S
C231 O237 1.208 . S
C232 O224 1.315 . S
C232 O227 1.279 . S
C233 O234 1.315 . S
C233 O235 1.279 . S
O234 Cd226 2.223 . S
O234 C233 1.315 . S
O235 Cd225 2.240 . S
O235 C233 1.279 . S
O236 Cd226 2.297 . S
O236 C231 1.247 . S
O237 Cd226 2.439 . S
O237 C231 1.208 . S
O238 Cd239 2.223 . S
O238 C246 1.315 . S
Cd239 O238 2.223 . S
Cd239 O242 2.297 . S
Cd239 O243 2.439 . S
Cd239 O249 2.240 . S
Cd240 O241 2.240 . S
Cd240 O248 2.223 . S
Cd240 O250 2.291 1_655 S
Cd240 O251 2.439 1_655 S
O241 Cd240 2.240 . S
O241 C246 1.279 . S
O242 Cd239 2.297 . S
O242 C244 1.247 . S
O243 Cd239 2.439 . S
O243 C244 1.208 . S
C244 O242 1.247 . S
C244 O243 1.208 . S
C245 O250 1.261 . S
C245 O251 1.208 . S
C246 O238 1.315 . S
C246 O241 1.279 . S
C247 O248 1.315 . S
C247 O249 1.279 . S
O248 Cd240 2.223 . S
O248 C247 1.315 . S
O249 Cd239 2.240 . S
O249 C247 1.279 . S
O250 Cd240 2.291 1_455 S
O250 C245 1.261 . S
O251 Cd240 2.439 1_455 S
O251 C245 1.208 . S
H252 C279 0.929 . S
N253 C278 1.433 . S
N253 C284 1.435 . S
N253 C290 1.423 . S
H254 C280 0.930 . S
H255 C283 0.931 . S
H256 C282 0.929 . S
H257 C285 0.930 . S
H258 C286 0.932 . S
H259 C289 0.929 . S
H260 C288 0.931 . S
H261 C291 0.929 . S
H262 C295 0.932 . S
H263 C292 0.931 . S
H264 C294 0.929 . S
H265 C297 0.929 . S
H266 C298 0.930 . S
H267 C300 0.929 . S
H268 C301 0.931 . S
H269 C303 0.930 . S
H270 C304 0.932 . S
H271 C306 0.931 . S
H272 C307 0.929 . S
H273 C309 0.929 . S
H274 C310 0.931 . S
H275 C312 0.929 . S
N276 C296 1.433 . S
N276 C302 1.435 . S
N276 C308 1.423 . S
H277 C313 0.932 . S
C278 N253 1.433 . S
C278 C279 1.363 . S
C278 C283 1.370 . S
C279 H252 0.929 . S
C279 C278 1.363 . S
C279 C280 1.385 . S
C280 H254 0.930 . S
C280 C279 1.385 . S
C280 C281 1.357 . S
C281 C280 1.357 . S
C281 C282 1.406 . S
C282 H256 0.929 . S
C282 C281 1.406 . S
C282 C283 1.391 . S
C283 H255 0.931 . S
C283 C278 1.370 . S
C283 C282 1.391 . S
C284 N253 1.435 . S
C284 C285 1.358 . S
C284 C289 1.371 . S
C285 H257 0.930 . S
C285 C284 1.358 . S
C285 C286 1.405 . S
C286 H258 0.932 . S
C286 C285 1.405 . S
C286 C287 1.383 . S
C287 C286 1.383 . S
C287 C288 1.393 . S
C288 H260 0.931 . S
C288 C287 1.393 . S
C288 C289 1.382 . S
C289 H259 0.929 . S
C289 C284 1.371 . S
C289 C288 1.382 . S
C290 N253 1.423 . S
C290 C291 1.362 . S
C290 C295 1.388 . S
C291 H261 0.929 . S
C291 C290 1.362 . S
C291 C292 1.376 . S
C292 H263 0.931 . S
C292 C291 1.376 . S
C292 C293 1.396 . S
C293 C292 1.396 . S
C293 C294 1.348 . S
C293 C311 1.472 . S
C294 H264 0.929 . S
C294 C293 1.348 . S
C294 C295 1.443 . S
C295 H262 0.932 . S
C295 C290 1.388 . S
C295 C294 1.443 . S
C296 N276 1.433 . S
C296 C297 1.363 . S
C296 C301 1.370 . S
C297 H265 0.929 . S
C297 C296 1.363 . S
C297 C298 1.385 . S
C298 H266 0.930 . S
C298 C297 1.385 . S
C298 C299 1.357 . S
C299 C298 1.357 . S
C299 C300 1.406 . S
C300 H267 0.929 . S
C300 C299 1.406 . S
C300 C301 1.391 . S
C301 H268 0.931 . S
C301 C296 1.370 . S
C301 C300 1.391 . S
C302 N276 1.435 . S
C302 C303 1.358 . S
C302 C307 1.371 . S
C303 H269 0.930 . S
C303 C302 1.358 . S
C303 C304 1.405 . S
C304 H270 0.932 . S
C304 C303 1.405 . S
C304 C305 1.383 . S
C305 C304 1.383 . S
C305 C306 1.393 . S
C306 H271 0.931 . S
C306 C305 1.393 . S
C306 C307 1.382 . S
C307 H272 0.929 . S
C307 C302 1.371 . S
C307 C306 1.382 . S
C308 N276 1.423 . S
C308 C309 1.362 . S
C308 C313 1.388 . S
C309 H273 0.929 . S
C309 C308 1.362 . S
C309 C310 1.376 . S
C310 H274 0.931 . S
C310 C309 1.376 . S
C310 C311 1.396 . S
C311 C293 1.472 . S
C311 C310 1.396 . S
C311 C312 1.348 . S
C312 H275 0.929 . S
C312 C311 1.348 . S
C312 C313 1.443 . S
C313 H277 0.932 . S
C313 C308 1.388 . S
C313 C312 1.443 . S
H314 C341 0.929 . S
N315 C340 1.433 . S
N315 C346 1.435 . S
N315 C352 1.423 . S
H316 C342 0.930 . S
H317 C345 0.931 . S
H318 C344 0.929 . S
H319 C347 0.930 . S
H320 C348 0.932 . S
H321 C351 0.929 . S
H322 C350 0.931 . S
H323 C353 0.929 . S
H324 C357 0.932 . S
H325 C354 0.931 . S
H326 C356 0.929 . S
H327 C359 0.929 . S
H328 C360 0.930 . S
H329 C362 0.929 . S
H330 C363 0.931 . S
H331 C365 0.930 . S
H332 C366 0.932 . S
H333 C368 0.931 . S
H334 C369 0.929 . S
H335 C371 0.929 . S
H336 C372 0.931 . S
H337 C374 0.929 . S
N338 C358 1.433 . S
N338 C364 1.435 . S
N338 C370 1.423 . S
H339 C375 0.932 . S
C340 N315 1.433 . S
C340 C341 1.363 . S
C340 C345 1.370 . S
C341 H314 0.929 . S
C341 C340 1.363 . S
C341 C342 1.385 . S
C342 H316 0.930 . S
C342 C341 1.385 . S
C342 C343 1.357 . S
C343 C342 1.357 . S
C343 C344 1.406 . S
C344 H318 0.929 . S
C344 C343 1.406 . S
C344 C345 1.391 . S
C345 H317 0.931 . S
C345 C340 1.370 . S
C345 C344 1.391 . S
C346 N315 1.435 . S
C346 C347 1.358 . S
C346 C351 1.371 . S
C347 H319 0.930 . S
C347 C346 1.358 . S
C347 C348 1.405 . S
C348 H320 0.932 . S
C348 C347 1.405 . S
C348 C349 1.383 . S
C349 C348 1.383 . S
C349 C350 1.393 . S
C350 H322 0.931 . S
C350 C349 1.393 . S
C350 C351 1.382 . S
C351 H321 0.929 . S
C351 C346 1.371 . S
C351 C350 1.382 . S
C352 N315 1.423 . S
C352 C353 1.362 . S
C352 C357 1.388 . S
C353 H323 0.929 . S
C353 C352 1.362 . S
C353 C354 1.376 . S
C354 H325 0.931 . S
C354 C353 1.376 . S
C354 C355 1.396 . S
C355 C354 1.396 . S
C355 C356 1.348 . S
C355 C373 1.472 . S
C356 H326 0.929 . S
C356 C355 1.348 . S
C356 C357 1.443 . S
C357 H324 0.932 . S
C357 C352 1.388 . S
C357 C356 1.443 . S
C358 N338 1.433 . S
C358 C359 1.363 . S
C358 C363 1.370 . S
C359 H327 0.929 . S
C359 C358 1.363 . S
C359 C360 1.385 . S
C360 H328 0.930 . S
C360 C359 1.385 . S
C360 C361 1.357 . S
C361 C360 1.357 . S
C361 C362 1.406 . S
C362 H329 0.929 . S
C362 C361 1.406 . S
C362 C363 1.391 . S
C363 H330 0.931 . S
C363 C358 1.370 . S
C363 C362 1.391 . S
C364 N338 1.435 . S
C364 C365 1.358 . S
C364 C369 1.371 . S
C365 H331 0.930 . S
C365 C364 1.358 . S
C365 C366 1.405 . S
C366 H332 0.932 . S
C366 C365 1.405 . S
C366 C367 1.383 . S
C367 C366 1.383 . S
C367 C368 1.393 . S
C368 H333 0.931 . S
C368 C367 1.393 . S
C368 C369 1.382 . S
C369 H334 0.929 . S
C369 C364 1.371 . S
C369 C368 1.382 . S
C370 N338 1.423 . S
C370 C371 1.362 . S
C370 C375 1.388 . S
C371 H335 0.929 . S
C371 C370 1.362 . S
C371 C372 1.376 . S
C372 H336 0.931 . S
C372 C371 1.376 . S
C372 C373 1.396 . S
C373 C355 1.472 . S
C373 C372 1.396 . S
C373 C374 1.348 . S
C374 H337 0.929 . S
C374 C373 1.348 . S
C374 C375 1.443 . S
C375 H339 0.932 . S
C375 C370 1.388 . S
C375 C374 1.443 . S
H376 C403 0.929 . S
N377 C402 1.433 . S
N377 C408 1.435 . S
N377 C414 1.423 . S
H378 C404 0.930 . S
H379 C407 0.931 . S
H380 C406 0.929 . S
H381 C409 0.930 . S
H382 C410 0.932 . S
H383 C413 0.929 . S
H384 C412 0.931 . S
H385 C415 0.929 . S
H386 C419 0.932 . S
H387 C416 0.931 . S
H388 C418 0.929 . S
H389 C421 0.929 . S
H390 C422 0.930 . S
H391 C424 0.929 . S
H392 C425 0.931 . S
H393 C427 0.930 . S
H394 C428 0.932 . S
H395 C430 0.931 . S
H396 C431 0.929 . S
H397 C433 0.929 . S
H398 C434 0.931 . S
H399 C436 0.929 . S
N400 C420 1.433 . S
N400 C426 1.435 . S
N400 C432 1.423 . S
H401 C437 0.932 . S
C402 N377 1.433 . S
C402 C403 1.363 . S
C402 C407 1.370 . S
C403 H376 0.929 . S
C403 C402 1.363 . S
C403 C404 1.385 . S
C404 H378 0.930 . S
C404 C403 1.385 . S
C404 C405 1.357 . S
C405 C404 1.357 . S
C405 C406 1.406 . S
C406 H380 0.929 . S
C406 C405 1.406 . S
C406 C407 1.391 . S
C407 H379 0.931 . S
C407 C402 1.370 . S
C407 C406 1.391 . S
C408 N377 1.435 . S
C408 C409 1.358 . S
C408 C413 1.371 . S
C409 H381 0.930 . S
C409 C408 1.358 . S
C409 C410 1.405 . S
C410 H382 0.932 . S
C410 C409 1.405 . S
C410 C411 1.383 . S
C411 C410 1.383 . S
C411 C412 1.393 . S
C412 H384 0.931 . S
C412 C411 1.393 . S
C412 C413 1.382 . S
C413 H383 0.929 . S
C413 C408 1.371 . S
C413 C412 1.382 . S
C414 N377 1.423 . S
C414 C415 1.362 . S
C414 C419 1.388 . S
C415 H385 0.929 . S
C415 C414 1.362 . S
C415 C416 1.376 . S
C416 H387 0.931 . S
C416 C415 1.376 . S
C416 C417 1.396 . S
C417 C416 1.396 . S
C417 C418 1.348 . S
C417 C435 1.472 . S
C418 H388 0.929 . S
C418 C417 1.348 . S
C418 C419 1.443 . S
C419 H386 0.932 . S
C419 C414 1.388 . S
C419 C418 1.443 . S
C420 N400 1.433 . S
C420 C421 1.363 . S
C420 C425 1.370 . S
C421 H389 0.929 . S
C421 C420 1.363 . S
C421 C422 1.385 . S
C422 H390 0.930 . S
C422 C421 1.385 . S
C422 C423 1.357 . S
C423 C422 1.357 . S
C423 C424 1.406 . S
C424 H391 0.929 . S
C424 C423 1.406 . S
C424 C425 1.391 . S
C425 H392 0.931 . S
C425 C420 1.370 . S
C425 C424 1.391 . S
C426 N400 1.435 . S
C426 C427 1.358 . S
C426 C431 1.371 . S
C427 H393 0.930 . S
C427 C426 1.358 . S
C427 C428 1.405 . S
C428 H394 0.932 . S
C428 C427 1.405 . S
C428 C429 1.383 . S
C429 C428 1.383 . S
C429 C430 1.393 . S
C430 H395 0.931 . S
C430 C429 1.393 . S
C430 C431 1.382 . S
C431 H396 0.929 . S
C431 C426 1.371 . S
C431 C430 1.382 . S
C432 N400 1.423 . S
C432 C433 1.362 . S
C432 C437 1.388 . S
C433 H397 0.929 . S
C433 C432 1.362 . S
C433 C434 1.376 . S
C434 H398 0.931 . S
C434 C433 1.376 . S
C434 C435 1.396 . S
C435 C417 1.472 . S
C435 C434 1.396 . S
C435 C436 1.348 . S
C436 H399 0.929 . S
C436 C435 1.348 . S
C436 C437 1.443 . S
C437 H401 0.932 . S
C437 C432 1.388 . S
C437 C436 1.443 . S
H438 C465 0.929 . S
N439 C464 1.433 . S
N439 C470 1.435 . S
N439 C476 1.423 . S
H440 C466 0.930 . S
H441 C469 0.931 . S
H442 C468 0.929 . S
H443 C471 0.930 . S
H444 C472 0.932 . S
H445 C475 0.929 . S
H446 C474 0.931 . S
H447 C477 0.929 . S
H448 C481 0.932 . S
H449 C478 0.931 . S
H450 C480 0.929 . S
H451 C483 0.929 . S
H452 C484 0.930 . S
H453 C486 0.929 . S
H454 C487 0.931 . S
H455 C489 0.930 . S
H456 C490 0.932 . S
H457 C492 0.931 . S
H458 C493 0.929 . S
H459 C495 0.929 . S
H460 C496 0.931 . S
H461 C498 0.929 . S
N462 C482 1.433 . S
N462 C488 1.435 . S
N462 C494 1.423 . S
H463 C499 0.932 . S
C464 N439 1.433 . S
C464 C465 1.363 . S
C464 C469 1.370 . S
C465 H438 0.929 . S
C465 C464 1.363 . S
C465 C466 1.385 . S
C466 H440 0.930 . S
C466 C465 1.385 . S
C466 C467 1.357 . S
C467 C466 1.357 . S
C467 C468 1.406 . S
C468 H442 0.929 . S
C468 C467 1.406 . S
C468 C469 1.391 . S
C469 H441 0.931 . S
C469 C464 1.370 . S
C469 C468 1.391 . S
C470 N439 1.435 . S
C470 C471 1.358 . S
C470 C475 1.371 . S
C471 H443 0.930 . S
C471 C470 1.358 . S
C471 C472 1.405 . S
C472 H444 0.932 . S
C472 C471 1.405 . S
C472 C473 1.383 . S
C473 C472 1.383 . S
C473 C474 1.393 . S
C474 H446 0.931 . S
C474 C473 1.393 . S
C474 C475 1.382 . S
C475 H445 0.929 . S
C475 C470 1.371 . S
C475 C474 1.382 . S
C476 N439 1.423 . S
C476 C477 1.362 . S
C476 C481 1.388 . S
C477 H447 0.929 . S
C477 C476 1.362 . S
C477 C478 1.376 . S
C478 H449 0.931 . S
C478 C477 1.376 . S
C478 C479 1.396 . S
C479 C478 1.396 . S
C479 C480 1.348 . S
C479 C497 1.472 . S
C480 H450 0.929 . S
C480 C479 1.348 . S
C480 C481 1.443 . S
C481 H448 0.932 . S
C481 C476 1.388 . S
C481 C480 1.443 . S
C482 N462 1.433 . S
C482 C483 1.363 . S
C482 C487 1.370 . S
C483 H451 0.929 . S
C483 C482 1.363 . S
C483 C484 1.385 . S
C484 H452 0.930 . S
C484 C483 1.385 . S
C484 C485 1.357 . S
C485 C484 1.357 . S
C485 C486 1.406 . S
C486 H453 0.929 . S
C486 C485 1.406 . S
C486 C487 1.391 . S
C487 H454 0.931 . S
C487 C482 1.370 . S
C487 C486 1.391 . S
C488 N462 1.435 . S
C488 C489 1.358 . S
C488 C493 1.371 . S
C489 H455 0.930 . S
C489 C488 1.358 . S
C489 C490 1.405 . S
C490 H456 0.932 . S
C490 C489 1.405 . S
C490 C491 1.383 . S
C491 C490 1.383 . S
C491 C492 1.393 . S
C492 H457 0.931 . S
C492 C491 1.393 . S
C492 C493 1.382 . S
C493 H458 0.929 . S
C493 C488 1.371 . S
C493 C492 1.382 . S
C494 N462 1.423 . S
C494 C495 1.362 . S
C494 C499 1.388 . S
C495 H459 0.929 . S
C495 C494 1.362 . S
C495 C496 1.376 . S
C496 H460 0.931 . S
C496 C495 1.376 . S
C496 C497 1.396 . S
C497 C479 1.472 . S
C497 C496 1.396 . S
C497 C498 1.348 . S
C498 H461 0.929 . S
C498 C497 1.348 . S
C498 C499 1.443 . S
C499 H463 0.932 . S
C499 C494 1.388 . S
C499 C498 1.443 . S
H500 C527 0.929 . S
N501 C526 1.433 . S
N501 C532 1.435 . S
N501 C538 1.423 . S
H502 C528 0.930 . S
H503 C531 0.931 . S
H504 C530 0.929 . S
H505 C533 0.930 . S
H506 C534 0.932 . S
H507 C537 0.929 . S
H508 C536 0.931 . S
H509 C539 0.929 . S
H510 C543 0.932 . S
H511 C540 0.931 . S
H512 C542 0.929 . S
H513 C545 0.929 . S
H514 C546 0.930 . S
H515 C548 0.929 . S
H516 C549 0.931 . S
H517 C551 0.930 . S
H518 C552 0.932 . S
H519 C554 0.931 . S
H520 C555 0.929 . S
H521 C557 0.929 . S
H522 C558 0.931 . S
H523 C560 0.929 . S
N524 C544 1.433 . S
N524 C550 1.435 . S
N524 C556 1.423 . S
H525 C561 0.932 . S
C526 N501 1.433 . S
C526 C527 1.363 . S
C526 C531 1.370 . S
C527 H500 0.929 . S
C527 C526 1.363 . S
C527 C528 1.385 . S
C528 H502 0.930 . S
C528 C527 1.385 . S
C528 C529 1.357 . S
C529 C528 1.357 . S
C529 C530 1.406 . S
C530 H504 0.929 . S
C530 C529 1.406 . S
C530 C531 1.391 . S
C531 H503 0.931 . S
C531 C526 1.370 . S
C531 C530 1.391 . S
C532 N501 1.435 . S
C532 C533 1.358 . S
C532 C537 1.371 . S
C533 H505 0.930 . S
C533 C532 1.358 . S
C533 C534 1.405 . S
C534 H506 0.932 . S
C534 C533 1.405 . S
C534 C535 1.383 . S
C535 C534 1.383 . S
C535 C536 1.393 . S
C536 H508 0.931 . S
C536 C535 1.393 . S
C536 C537 1.382 . S
C537 H507 0.929 . S
C537 C532 1.371 . S
C537 C536 1.382 . S
C538 N501 1.423 . S
C538 C539 1.362 . S
C538 C543 1.388 . S
C539 H509 0.929 . S
C539 C538 1.362 . S
C539 C540 1.376 . S
C540 H511 0.931 . S
C540 C539 1.376 . S
C540 C541 1.396 . S
C541 C540 1.396 . S
C541 C542 1.348 . S
C541 C559 1.472 . S
C542 H512 0.929 . S
C542 C541 1.348 . S
C542 C543 1.443 . S
C543 H510 0.932 . S
C543 C538 1.388 . S
C543 C542 1.443 . S
C544 N524 1.433 . S
C544 C545 1.363 . S
C544 C549 1.370 . S
C545 H513 0.929 . S
C545 C544 1.363 . S
C545 C546 1.385 . S
C546 H514 0.930 . S
C546 C545 1.385 . S
C546 C547 1.357 . S
C547 C546 1.357 . S
C547 C548 1.406 . S
C548 H515 0.929 . S
C548 C547 1.406 . S
C548 C549 1.391 . S
C549 H516 0.931 . S
C549 C544 1.370 . S
C549 C548 1.391 . S
C550 N524 1.435 . S
C550 C551 1.358 . S
C550 C555 1.371 . S
C551 H517 0.930 . S
C551 C550 1.358 . S
C551 C552 1.405 . S
C552 H518 0.932 . S
C552 C551 1.405 . S
C552 C553 1.383 . S
C553 C552 1.383 . S
C553 C554 1.393 . S
C554 H519 0.931 . S
C554 C553 1.393 . S
C554 C555 1.382 . S
C555 H520 0.929 . S
C555 C550 1.371 . S
C555 C554 1.382 . S
C556 N524 1.423 . S
C556 C557 1.362 . S
C556 C561 1.388 . S
C557 H521 0.929 . S
C557 C556 1.362 . S
C557 C558 1.376 . S
C558 H522 0.931 . S
C558 C557 1.376 . S
C558 C559 1.396 . S
C559 C541 1.472 . S
C559 C558 1.396 . S
C559 C560 1.348 . S
C560 H523 0.929 . S
C560 C559 1.348 . S
C560 C561 1.443 . S
C561 H525 0.932 . S
C561 C556 1.388 . S
C561 C560 1.443 . S
H562 C589 0.929 . S
N563 C588 1.433 . S
N563 C594 1.435 . S
N563 C600 1.423 . S
H564 C590 0.930 . S
H565 C593 0.931 . S
H566 C592 0.929 . S
H567 C595 0.930 . S
H568 C596 0.932 . S
H569 C599 0.929 . S
H570 C598 0.931 . S
H571 C601 0.929 . S
H572 C605 0.932 . S
H573 C602 0.931 . S
H574 C604 0.929 . S
H575 C607 0.929 . S
H576 C608 0.930 . S
H577 C610 0.929 . S
H578 C611 0.931 . S
H579 C613 0.930 . S
H580 C614 0.932 . S
H581 C616 0.931 . S
H582 C617 0.929 . S
H583 C619 0.929 . S
H584 C620 0.931 . S
H585 C622 0.929 . S
N586 C606 1.433 . S
N586 C612 1.435 . S
N586 C618 1.423 . S
H587 C623 0.932 . S
C588 N563 1.433 . S
C588 C589 1.363 . S
C588 C593 1.370 . S
C589 H562 0.929 . S
C589 C588 1.363 . S
C589 C590 1.385 . S
C590 H564 0.930 . S
C590 C589 1.385 . S
C590 C591 1.357 . S
C591 C590 1.357 . S
C591 C592 1.406 . S
C592 H566 0.929 . S
C592 C591 1.406 . S
C592 C593 1.391 . S
C593 H565 0.931 . S
C593 C588 1.370 . S
C593 C592 1.391 . S
C594 N563 1.435 . S
C594 C595 1.358 . S
C594 C599 1.371 . S
C595 H567 0.930 . S
C595 C594 1.358 . S
C595 C596 1.405 . S
C596 H568 0.932 . S
C596 C595 1.405 . S
C596 C597 1.383 . S
C597 C596 1.383 . S
C597 C598 1.393 . S
C598 H570 0.931 . S
C598 C597 1.393 . S
C598 C599 1.382 . S
C599 H569 0.929 . S
C599 C594 1.371 . S
C599 C598 1.382 . S
C600 N563 1.423 . S
C600 C601 1.362 . S
C600 C605 1.388 . S
C601 H571 0.929 . S
C601 C600 1.362 . S
C601 C602 1.376 . S
C602 H573 0.931 . S
C602 C601 1.376 . S
C602 C603 1.396 . S
C603 C602 1.396 . S
C603 C604 1.348 . S
C603 C621 1.472 . S
C604 H574 0.929 . S
C604 C603 1.348 . S
C604 C605 1.443 . S
C605 H572 0.932 . S
C605 C600 1.388 . S
C605 C604 1.443 . S
C606 N586 1.433 . S
C606 C607 1.363 . S
C606 C611 1.370 . S
C607 H575 0.929 . S
C607 C606 1.363 . S
C607 C608 1.385 . S
C608 H576 0.930 . S
C608 C607 1.385 . S
C608 C609 1.357 . S
C609 C608 1.357 . S
C609 C610 1.406 . S
C610 H577 0.929 . S
C610 C609 1.406 . S
C610 C611 1.391 . S
C611 H578 0.931 . S
C611 C606 1.370 . S
C611 C610 1.391 . S
C612 N586 1.435 . S
C612 C613 1.358 . S
C612 C617 1.371 . S
C613 H579 0.930 . S
C613 C612 1.358 . S
C613 C614 1.405 . S
C614 H580 0.932 . S
C614 C613 1.405 . S
C614 C615 1.383 . S
C615 C614 1.383 . S
C615 C616 1.393 . S
C616 H581 0.931 . S
C616 C615 1.393 . S
C616 C617 1.382 . S
C617 H582 0.929 . S
C617 C612 1.371 . S
C617 C616 1.382 . S
C618 N586 1.423 . S
C618 C619 1.362 . S
C618 C623 1.388 . S
C619 H583 0.929 . S
C619 C618 1.362 . S
C619 C620 1.376 . S
C620 H584 0.931 . S
C620 C619 1.376 . S
C620 C621 1.396 . S
C621 C603 1.472 . S
C621 C620 1.396 . S
C621 C622 1.348 . S
C622 H585 0.929 . S
C622 C621 1.348 . S
C622 C623 1.443 . S
C623 H587 0.932 . S
C623 C618 1.388 . S
C623 C622 1.443 . S
H624 C651 0.929 . S
N625 C650 1.433 . S
N625 C656 1.435 . S
N625 C662 1.423 . S
H626 C652 0.930 . S
H627 C655 0.931 . S
H628 C654 0.929 . S
H629 C657 0.930 . S
H630 C658 0.932 . S
H631 C661 0.929 . S
H632 C660 0.931 . S
H633 C663 0.929 . S
H634 C667 0.932 . S
H635 C664 0.931 . S
H636 C666 0.929 . S
H637 C669 0.929 . S
H638 C670 0.930 . S
H639 C672 0.929 . S
H640 C673 0.931 . S
H641 C675 0.930 . S
H642 C676 0.932 . S
H643 C678 0.931 . S
H644 C679 0.929 . S
H645 C681 0.929 . S
H646 C682 0.931 . S
H647 C684 0.929 . S
N648 C668 1.433 . S
N648 C674 1.435 . S
N648 C680 1.423 . S
H649 C685 0.932 . S
C650 N625 1.433 . S
C650 C651 1.363 . S
C650 C655 1.370 . S
C651 H624 0.929 . S
C651 C650 1.363 . S
C651 C652 1.385 . S
C652 H626 0.930 . S
C652 C651 1.385 . S
C652 C653 1.357 . S
C653 C652 1.357 . S
C653 C654 1.406 . S
C654 H628 0.929 . S
C654 C653 1.406 . S
C654 C655 1.391 . S
C655 H627 0.931 . S
C655 C650 1.370 . S
C655 C654 1.391 . S
C656 N625 1.435 . S
C656 C657 1.358 . S
C656 C661 1.371 . S
C657 H629 0.930 . S
C657 C656 1.358 . S
C657 C658 1.405 . S
C658 H630 0.932 . S
C658 C657 1.405 . S
C658 C659 1.383 . S
C659 C658 1.383 . S
C659 C660 1.393 . S
C660 H632 0.931 . S
C660 C659 1.393 . S
C660 C661 1.382 . S
C661 H631 0.929 . S
C661 C656 1.371 . S
C661 C660 1.382 . S
C662 N625 1.423 . S
C662 C663 1.362 . S
C662 C667 1.388 . S
C663 H633 0.929 . S
C663 C662 1.362 . S
C663 C664 1.376 . S
C664 H635 0.931 . S
C664 C663 1.376 . S
C664 C665 1.396 . S
C665 C664 1.396 . S
C665 C666 1.348 . S
C665 C683 1.472 . S
C666 H636 0.929 . S
C666 C665 1.348 . S
C666 C667 1.443 . S
C667 H634 0.932 . S
C667 C662 1.388 . S
C667 C666 1.443 . S
C668 N648 1.433 . S
C668 C669 1.363 . S
C668 C673 1.370 . S
C669 H637 0.929 . S
C669 C668 1.363 . S
C669 C670 1.385 . S
C670 H638 0.930 . S
C670 C669 1.385 . S
C670 C671 1.357 . S
C671 C670 1.357 . S
C671 C672 1.406 . S
C672 H639 0.929 . S
C672 C671 1.406 . S
C672 C673 1.391 . S
C673 H640 0.931 . S
C673 C668 1.370 . S
C673 C672 1.391 . S
C674 N648 1.435 . S
C674 C675 1.358 . S
C674 C679 1.371 . S
C675 H641 0.930 . S
C675 C674 1.358 . S
C675 C676 1.405 . S
C676 H642 0.932 . S
C676 C675 1.405 . S
C676 C677 1.383 . S
C677 C676 1.383 . S
C677 C678 1.393 . S
C678 H643 0.931 . S
C678 C677 1.393 . S
C678 C679 1.382 . S
C679 H644 0.929 . S
C679 C674 1.371 . S
C679 C678 1.382 . S
C680 N648 1.423 . S
C680 C681 1.362 . S
C680 C685 1.388 . S
C681 H645 0.929 . S
C681 C680 1.362 . S
C681 C682 1.376 . S
C682 H646 0.931 . S
C682 C681 1.376 . S
C682 C683 1.396 . S
C683 C665 1.472 . S
C683 C682 1.396 . S
C683 C684 1.348 . S
C684 H647 0.929 . S
C684 C683 1.348 . S
C684 C685 1.443 . S
C685 H649 0.932 . S
C685 C680 1.388 . S
C685 C684 1.443 . S
H686 C713 0.929 . S
N687 C712 1.433 . S
N687 C718 1.435 . S
N687 C724 1.423 . S
H688 C714 0.930 . S
H689 C717 0.931 . S
H690 C716 0.929 . S
H691 C719 0.930 . S
H692 C720 0.932 . S
H693 C723 0.929 . S
H694 C722 0.931 . S
H695 C725 0.929 . S
H696 C729 0.932 . S
H697 C726 0.931 . S
H698 C728 0.929 . S
H699 C731 0.929 . S
H700 C732 0.930 . S
H701 C734 0.929 . S
H702 C735 0.931 . S
H703 C737 0.930 . S
H704 C738 0.932 . S
H705 C740 0.931 . S
H706 C741 0.929 . S
H707 C743 0.929 . S
H708 C744 0.931 . S
H709 C746 0.929 . S
N710 C730 1.433 . S
N710 C736 1.435 . S
N710 C742 1.423 . S
H711 C747 0.932 . S
C712 N687 1.433 . S
C712 C713 1.363 . S
C712 C717 1.370 . S
C713 H686 0.929 . S
C713 C712 1.363 . S
C713 C714 1.385 . S
C714 H688 0.930 . S
C714 C713 1.385 . S
C714 C715 1.357 . S
C715 C714 1.357 . S
C715 C716 1.406 . S
C716 H690 0.929 . S
C716 C715 1.406 . S
C716 C717 1.391 . S
C717 H689 0.931 . S
C717 C712 1.370 . S
C717 C716 1.391 . S
C718 N687 1.435 . S
C718 C719 1.358 . S
C718 C723 1.371 . S
C719 H691 0.930 . S
C719 C718 1.358 . S
C719 C720 1.405 . S
C720 H692 0.932 . S
C720 C719 1.405 . S
C720 C721 1.383 . S
C721 C720 1.383 . S
C721 C722 1.393 . S
C722 H694 0.931 . S
C722 C721 1.393 . S
C722 C723 1.382 . S
C723 H693 0.929 . S
C723 C718 1.371 . S
C723 C722 1.382 . S
C724 N687 1.423 . S
C724 C725 1.362 . S
C724 C729 1.388 . S
C725 H695 0.929 . S
C725 C724 1.362 . S
C725 C726 1.376 . S
C726 H697 0.931 . S
C726 C725 1.376 . S
C726 C727 1.396 . S
C727 C726 1.396 . S
C727 C728 1.348 . S
C727 C745 1.472 . S
C728 H698 0.929 . S
C728 C727 1.348 . S
C728 C729 1.443 . S
C729 H696 0.932 . S
C729 C724 1.388 . S
C729 C728 1.443 . S
C730 N710 1.433 . S
C730 C731 1.363 . S
C730 C735 1.370 . S
C731 H699 0.929 . S
C731 C730 1.363 . S
C731 C732 1.385 . S
C732 H700 0.930 . S
C732 C731 1.385 . S
C732 C733 1.357 . S
C733 C732 1.357 . S
C733 C734 1.406 . S
C734 H701 0.929 . S
C734 C733 1.406 . S
C734 C735 1.391 . S
C735 H702 0.931 . S
C735 C730 1.370 . S
C735 C734 1.391 . S
C736 N710 1.435 . S
C736 C737 1.358 . S
C736 C741 1.371 . S
C737 H703 0.930 . S
C737 C736 1.358 . S
C737 C738 1.405 . S
C738 H704 0.932 . S
C738 C737 1.405 . S
C738 C739 1.383 . S
C739 C738 1.383 . S
C739 C740 1.393 . S
C740 H705 0.931 . S
C740 C739 1.393 . S
C740 C741 1.382 . S
C741 H706 0.929 . S
C741 C736 1.371 . S
C741 C740 1.382 . S
C742 N710 1.423 . S
C742 C743 1.362 . S
C742 C747 1.388 . S
C743 H707 0.929 . S
C743 C742 1.362 . S
C743 C744 1.376 . S
C744 H708 0.931 . S
C744 C743 1.376 . S
C744 C745 1.396 . S
C745 C727 1.472 . S
C745 C744 1.396 . S
C745 C746 1.348 . S
C746 H709 0.929 . S
C746 C745 1.348 . S
C746 C747 1.443 . S
C747 H711 0.932 . S
C747 C742 1.388 . S
C747 C746 1.443 . S
H748 C775 0.929 . S
N749 C774 1.433 . S
N749 C780 1.435 . S
N749 C786 1.423 . S
H750 C776 0.930 . S
H751 C779 0.931 . S
H752 C778 0.929 . S
H753 C781 0.930 . S
H754 C782 0.932 . S
H755 C785 0.929 . S
H756 C784 0.931 . S
H757 C787 0.929 . S
H758 C791 0.932 . S
H759 C788 0.931 . S
H760 C790 0.929 . S
H761 C793 0.929 . S
H762 C794 0.930 . S
H763 C796 0.929 . S
H764 C797 0.931 . S
H765 C799 0.930 . S
H766 C800 0.932 . S
H767 C802 0.931 . S
H768 C803 0.929 . S
H769 C805 0.929 . S
H770 C806 0.931 . S
H771 C808 0.929 . S
N772 C792 1.433 . S
N772 C798 1.435 . S
N772 C804 1.423 . S
H773 C809 0.932 . S
C774 N749 1.433 . S
C774 C775 1.363 . S
C774 C779 1.370 . S
C775 H748 0.929 . S
C775 C774 1.363 . S
C775 C776 1.385 . S
C776 H750 0.930 . S
C776 C775 1.385 . S
C776 C777 1.357 . S
C777 C776 1.357 . S
C777 C778 1.406 . S
C778 H752 0.929 . S
C778 C777 1.406 . S
C778 C779 1.391 . S
C779 H751 0.931 . S
C779 C774 1.370 . S
C779 C778 1.391 . S
C780 N749 1.435 . S
C780 C781 1.358 . S
C780 C785 1.371 . S
C781 H753 0.930 . S
C781 C780 1.358 . S
C781 C782 1.405 . S
C782 H754 0.932 . S
C782 C781 1.405 . S
C782 C783 1.383 . S
C783 C782 1.383 . S
C783 C784 1.393 . S
C784 H756 0.931 . S
C784 C783 1.393 . S
C784 C785 1.382 . S
C785 H755 0.929 . S
C785 C780 1.371 . S
C785 C784 1.382 . S
C786 N749 1.423 . S
C786 C787 1.362 . S
C786 C791 1.388 . S
C787 H757 0.929 . S
C787 C786 1.362 . S
C787 C788 1.376 . S
C788 H759 0.931 . S
C788 C787 1.376 . S
C788 C789 1.396 . S
C789 C788 1.396 . S
C789 C790 1.348 . S
C789 C807 1.472 . S
C790 H760 0.929 . S
C790 C789 1.348 . S
C790 C791 1.443 . S
C791 H758 0.932 . S
C791 C786 1.388 . S
C791 C790 1.443 . S
C792 N772 1.433 . S
C792 C793 1.363 . S
C792 C797 1.370 . S
C793 H761 0.929 . S
C793 C792 1.363 . S
C793 C794 1.385 . S
C794 H762 0.930 . S
C794 C793 1.385 . S
C794 C795 1.357 . S
C795 C794 1.357 . S
C795 C796 1.406 . S
C796 H763 0.929 . S
C796 C795 1.406 . S
C796 C797 1.391 . S
C797 H764 0.931 . S
C797 C792 1.370 . S
C797 C796 1.391 . S
C798 N772 1.435 . S
C798 C799 1.358 . S
C798 C803 1.371 . S
C799 H765 0.930 . S
C799 C798 1.358 . S
C799 C800 1.405 . S
C800 H766 0.932 . S
C800 C799 1.405 . S
C800 C801 1.383 . S
C801 C800 1.383 . S
C801 C802 1.393 . S
C802 H767 0.931 . S
C802 C801 1.393 . S
C802 C803 1.382 . S
C803 H768 0.929 . S
C803 C798 1.371 . S
C803 C802 1.382 . S
C804 N772 1.423 . S
C804 C805 1.362 . S
C804 C809 1.388 . S
C805 H769 0.929 . S
C805 C804 1.362 . S
C805 C806 1.376 . S
C806 H770 0.931 . S
C806 C805 1.376 . S
C806 C807 1.396 . S
C807 C789 1.472 . S
C807 C806 1.396 . S
C807 C808 1.348 . S
C808 H771 0.929 . S
C808 C807 1.348 . S
C808 C809 1.443 . S
C809 H773 0.932 . S
C809 C804 1.388 . S
C809 C808 1.443 . S
H810 C837 0.929 . S
N811 C836 1.433 . S
N811 C842 1.435 . S
N811 C848 1.423 . S
H812 C838 0.930 . S
H813 C841 0.931 1_655 S
H814 C840 0.929 . S
H815 C843 0.930 1_655 S
H816 C844 0.932 1_655 S
H817 C847 0.929 . S
H818 C846 0.931 . S
H819 C849 0.929 . S
H820 C853 0.932 . S
H821 C850 0.931 . S
H822 C852 0.929 . S
H823 C855 0.929 . S
H824 C856 0.930 . S
H825 C858 0.929 . S
H826 C859 0.931 1_655 S
H827 C861 0.930 1_655 S
H828 C862 0.932 1_655 S
H829 C864 0.931 . S
H830 C865 0.929 . S
H831 C867 0.929 . S
H832 C868 0.931 . S
H833 C870 0.929 . S
N834 C854 1.433 . S
N834 C860 1.435 . S
N834 C866 1.423 . S
H835 C871 0.932 . S
C836 N811 1.433 . S
C836 C837 1.363 . S
C836 C841 1.370 . S
C837 H810 0.929 . S
C837 C836 1.363 . S
C837 C838 1.385 . S
C838 H812 0.930 . S
C838 C837 1.385 . S
C838 C839 1.357 . S
C839 C838 1.357 . S
C839 C840 1.406 1_455 S
C840 H814 0.929 . S
C840 C839 1.406 1_655 S
C840 C841 1.391 1_655 S
C841 H813 0.931 1_455 S
C841 C836 1.370 . S
C841 C840 1.391 1_455 S
C842 N811 1.435 . S
C842 C843 1.358 . S
C842 C847 1.371 . S
C843 H815 0.930 1_455 S
C843 C842 1.358 . S
C843 C844 1.405 . S
C844 H816 0.932 1_455 S
C844 C843 1.405 . S
C844 C845 1.383 . S
C845 C844 1.383 . S
C845 C846 1.393 . S
C846 H818 0.931 . S
C846 C845 1.393 . S
C846 C847 1.382 . S
C847 H817 0.929 . S
C847 C842 1.371 . S
C847 C846 1.382 . S
C848 N811 1.423 . S
C848 C849 1.362 . S
C848 C853 1.388 . S
C849 H819 0.929 . S
C849 C848 1.362 . S
C849 C850 1.376 . S
C850 H821 0.931 . S
C850 C849 1.376 . S
C850 C851 1.396 . S
C851 C850 1.396 . S
C851 C852 1.348 . S
C851 C869 1.472 . S
C852 H822 0.929 . S
C852 C851 1.348 . S
C852 C853 1.443 . S
C853 H820 0.932 . S
C853 C848 1.388 . S
C853 C852 1.443 . S
C854 N834 1.433 . S
C854 C855 1.363 . S
C854 C859 1.370 . S
C855 H823 0.929 . S
C855 C854 1.363 . S
C855 C856 1.385 . S
C856 H824 0.930 . S
C856 C855 1.385 . S
C856 C857 1.357 . S
C857 C856 1.357 . S
C857 C858 1.406 1_455 S
C858 H825 0.929 . S
C858 C857 1.406 1_655 S
C858 C859 1.391 1_655 S
C859 H826 0.931 1_455 S
C859 C854 1.370 . S
C859 C858 1.391 1_455 S
C860 N834 1.435 . S
C860 C861 1.358 . S
C860 C865 1.371 . S
C861 H827 0.930 1_455 S
C861 C860 1.358 . S
C861 C862 1.405 . S
C862 H828 0.932 1_455 S
C862 C861 1.405 . S
C862 C863 1.383 . S
C863 C862 1.383 . S
C863 C864 1.393 . S
C864 H829 0.931 . S
C864 C863 1.393 . S
C864 C865 1.382 . S
C865 H830 0.929 . S
C865 C860 1.371 . S
C865 C864 1.382 . S
C866 N834 1.423 . S
C866 C867 1.362 . S
C866 C871 1.388 . S
C867 H831 0.929 . S
C867 C866 1.362 . S
C867 C868 1.376 . S
C868 H832 0.931 . S
C868 C867 1.376 . S
C868 C869 1.396 . S
C869 C851 1.472 . S
C869 C868 1.396 . S
C869 C870 1.348 . S
C870 H833 0.929 . S
C870 C869 1.348 . S
C870 C871 1.443 . S
C871 H835 0.932 . S
C871 C866 1.388 . S
C871 C870 1.443 . S
H872 C899 0.929 . S
N873 C898 1.433 . S
N873 C904 1.435 . S
N873 C910 1.423 . S
H874 C900 0.930 . S
H875 C903 0.931 . S
H876 C902 0.929 . S
H877 C905 0.930 . S
H878 C906 0.932 . S
H879 C909 0.929 . S
H880 C908 0.931 . S
H881 C911 0.929 . S
H882 C915 0.932 . S
H883 C912 0.931 . S
H884 C914 0.929 . S
H885 C917 0.929 . S
H886 C918 0.930 . S
H887 C920 0.929 . S
H888 C921 0.931 . S
H889 C923 0.930 . S
H890 C924 0.932 . S
H891 C926 0.931 . S
H892 C927 0.929 . S
H893 C929 0.929 . S
H894 C930 0.931 . S
H895 C932 0.929 . S
N896 C916 1.433 . S
N896 C922 1.435 . S
N896 C928 1.423 . S
H897 C933 0.932 . S
C898 N873 1.433 . S
C898 C899 1.363 . S
C898 C903 1.370 . S
C899 H872 0.929 . S
C899 C898 1.363 . S
C899 C900 1.385 . S
C900 H874 0.930 . S
C900 C899 1.385 . S
C900 C901 1.357 . S
C901 C900 1.357 . S
C901 C902 1.406 . S
C902 H876 0.929 . S
C902 C901 1.406 . S
C902 C903 1.391 . S
C903 H875 0.931 . S
C903 C898 1.370 . S
C903 C902 1.391 . S
C904 N873 1.435 . S
C904 C905 1.358 . S
C904 C909 1.371 . S
C905 H877 0.930 . S
C905 C904 1.358 . S
C905 C906 1.405 . S
C906 H878 0.932 . S
C906 C905 1.405 . S
C906 C907 1.383 . S
C907 C906 1.383 . S
C907 C908 1.393 . S
C908 H880 0.931 . S
C908 C907 1.393 . S
C908 C909 1.382 . S
C909 H879 0.929 . S
C909 C904 1.371 . S
C909 C908 1.382 . S
C910 N873 1.423 . S
C910 C911 1.362 . S
C910 C915 1.388 . S
C911 H881 0.929 . S
C911 C910 1.362 . S
C911 C912 1.376 . S
C912 H883 0.931 . S
C912 C911 1.376 . S
C912 C913 1.396 . S
C913 C912 1.396 . S
C913 C914 1.348 . S
C913 C931 1.472 . S
C914 H884 0.929 . S
C914 C913 1.348 . S
C914 C915 1.443 . S
C915 H882 0.932 . S
C915 C910 1.388 . S
C915 C914 1.443 . S
C916 N896 1.433 . S
C916 C917 1.363 . S
C916 C921 1.370 . S
C917 H885 0.929 . S
C917 C916 1.363 . S
C917 C918 1.385 . S
C918 H886 0.930 . S
C918 C917 1.385 . S
C918 C919 1.357 . S
C919 C918 1.357 . S
C919 C920 1.406 . S
C920 H887 0.929 . S
C920 C919 1.406 . S
C920 C921 1.391 . S
C921 H888 0.931 . S
C921 C916 1.370 . S
C921 C920 1.391 . S
C922 N896 1.435 . S
C922 C923 1.358 . S
C922 C927 1.371 . S
C923 H889 0.930 . S
C923 C922 1.358 . S
C923 C924 1.405 . S
C924 H890 0.932 . S
C924 C923 1.405 . S
C924 C925 1.383 . S
C925 C924 1.383 . S
C925 C926 1.393 . S
C926 H891 0.931 . S
C926 C925 1.393 . S
C926 C927 1.382 . S
C927 H892 0.929 . S
C927 C922 1.371 . S
C927 C926 1.382 . S
C928 N896 1.423 . S
C928 C929 1.362 . S
C928 C933 1.388 . S
C929 H893 0.929 . S
C929 C928 1.362 . S
C929 C930 1.376 . S
C930 H894 0.931 . S
C930 C929 1.376 . S
C930 C931 1.396 . S
C931 C913 1.472 . S
C931 C930 1.396 . S
C931 C932 1.348 . S
C932 H895 0.929 . S
C932 C931 1.348 . S
C932 C933 1.443 . S
C933 H897 0.932 . S
C933 C928 1.388 . S
C933 C932 1.443 . S
H934 C961 0.929 . S
N935 C960 1.433 . S
N935 C966 1.435 . S
N935 C972 1.423 . S
H936 C962 0.930 . S
H937 C965 0.931 . S
H938 C964 0.929 . S
H939 C967 0.930 . S
H940 C968 0.932 . S
H941 C971 0.929 . S
H942 C970 0.931 . S
H943 C973 0.929 . S
H944 C977 0.932 1_545 S
H945 C974 0.931 . S
H946 C976 0.954 . S
H947 C979 0.929 . S
H948 C980 0.930 . S
H949 C982 0.929 . S
H950 C983 0.931 . S
H951 C985 0.930 . S
H952 C986 0.932 . S
H953 C988 0.931 . S
H954 C989 0.929 . S
H955 C991 0.929 . S
H956 C992 0.931 . S
H957 C994 0.934 . S
N958 C978 1.433 . S
N958 C984 1.435 . S
N958 C990 1.423 . S
H959 C995 0.932 1_545 S
C960 N935 1.433 . S
C960 C961 1.363 . S
C960 C965 1.370 1_565 S
C961 H934 0.929 . S
C961 C960 1.363 . S
C961 C962 1.385 . S
C962 H936 0.930 . S
C962 C961 1.385 . S
C962 C963 1.357 1_565 S
C963 C962 1.357 1_545 S
C963 C964 1.406 . S
C964 H938 0.929 . S
C964 C963 1.406 . S
C964 C965 1.391 . S
C965 H937 0.931 . S
C965 C960 1.370 1_545 S
C965 C964 1.391 . S
C966 N935 1.435 . S
C966 C967 1.358 1_565 S
C966 C971 1.371 . S
C967 H939 0.930 . S
C967 C966 1.358 1_545 S
C967 C968 1.405 . S
C968 H940 0.932 . S
C968 C967 1.405 . S
C968 C969 1.383 1_545 S
C969 C968 1.383 1_565 S
C969 C970 1.393 . S
C970 H942 0.931 . S
C970 C969 1.393 . S
C970 C971 1.382 . S
C971 H941 0.929 . S
C971 C966 1.371 . S
C971 C970 1.382 . S
C972 N935 1.423 . S
C972 C973 1.362 . S
C972 C977 1.388 . S
C973 H943 0.929 . S
C973 C972 1.362 . S
C973 C974 1.376 . S
C974 H945 0.931 . S
C974 C973 1.376 . S
C974 C975 1.396 . S
C975 C974 1.396 . S
C975 C976 1.348 . S
C975 C993 1.472 . S
C976 H946 0.954 . S
C976 C975 1.348 . S
C976 C977 1.443 . S
C977 H944 0.932 1_565 S
C977 C972 1.388 . S
C977 C976 1.443 . S
C978 N958 1.433 . S
C978 C979 1.363 . S
C978 C983 1.370 1_565 S
C979 H947 0.929 . S
C979 C978 1.363 . S
C979 C980 1.385 . S
C980 H948 0.930 . S
C980 C979 1.385 . S
C980 C981 1.357 1_565 S
C981 C980 1.357 1_545 S
C981 C982 1.406 . S
C982 H949 0.929 . S
C982 C981 1.406 . S
C982 C983 1.391 . S
C983 H950 0.931 . S
C983 C978 1.370 1_545 S
C983 C982 1.391 . S
C984 N958 1.435 . S
C984 C985 1.358 1_565 S
C984 C989 1.371 . S
C985 H951 0.930 . S
C985 C984 1.358 1_545 S
C985 C986 1.405 . S
C986 H952 0.932 . S
C986 C985 1.405 . S
C986 C987 1.383 1_545 S
C987 C986 1.383 1_565 S
C987 C988 1.393 . S
C988 H953 0.931 . S
C988 C987 1.393 . S
C988 C989 1.382 . S
C989 H954 0.929 . S
C989 C984 1.371 . S
C989 C988 1.382 . S
C990 N958 1.423 . S
C990 C991 1.362 . S
C990 C995 1.388 . S
C991 H955 0.929 . S
C991 C990 1.362 . S
C991 C992 1.376 . S
C992 H956 0.931 . S
C992 C991 1.376 . S
C992 C993 1.396 . S
C993 C975 1.472 . S
C993 C992 1.396 . S
C993 C994 1.348 . S
C994 H957 0.934 . S
C994 C993 1.348 . S
C994 C995 1.443 . S
C995 H959 0.932 1_565 S
C995 C990 1.388 . S
C995 C994 1.443 . S
H996 C1023 0.929 . S
N997 C1022 1.430 1_565 S
N997 C1028 1.424 1_565 S
N997 C1034 1.437 . S
H998 C1024 0.930 . S
H999 C1027 0.931 . S
H1000 C1026 0.929 . S
H1001 C1029 0.930 . S
H1002 C1030 0.932 . S
H1003 C1033 0.929 . S
H1004 C1032 0.988 . S
H1005 C1035 0.929 . S
H1006 C1039 0.932 . S
H1007 C1036 0.931 . S
H1008 C1038 0.929 . S
H1009 C1041 0.929 . S
H1010 C1042 0.930 . S
H1011 C1044 0.929 . S
H1012 C1045 0.931 . S
H1013 C1047 0.930 . S
H1014 C1048 0.932 . S
H1015 C1050 0.977 . S
H1016 C1051 0.929 . S
H1017 C1053 0.929 . S
H1018 C1054 0.931 . S
H1019 C1056 0.929 . S
N1020 C1040 1.436 1_565 S
N1020 C1046 1.438 1_565 S
N1020 C1052 1.415 . S
H1021 C1057 0.932 . S
C1022 N997 1.430 1_545 S
C1022 C1023 1.363 1_545 S
C1022 C1027 1.369 . S
C1023 H996 0.929 . S
C1023 C1022 1.363 1_565 S
C1023 C1024 1.385 . S
C1024 H998 0.930 . S
C1024 C1023 1.385 . S
C1024 C1025 1.347 1_565 S
C1025 C1024 1.347 1_545 S
C1025 C1026 1.405 . S
C1026 H1000 0.929 . S
C1026 C1025 1.405 . S
C1026 C1027 1.391 . S
C1027 H999 0.931 . S
C1027 C1022 1.369 . S
C1027 C1026 1.391 . S
C1028 N997 1.424 1_545 S
C1028 C1029 1.358 . S
C1028 C1033 1.371 1_545 S
C1029 H1001 0.930 . S
C1029 C1028 1.358 . S
C1029 C1030 1.405 . S
C1030 H1002 0.932 . S
C1030 C1029 1.405 . S
C1030 C1031 1.383 . S
C1031 C1030 1.383 . S
C1031 C1032 1.287 1_545 S
C1032 H1004 0.988 . S
C1032 C1031 1.287 1_565 S
C1032 C1033 1.441 . S
C1033 H1003 0.929 . S
C1033 C1028 1.371 1_565 S
C1033 C1032 1.441 . S
C1034 N997 1.437 . S
C1034 C1035 1.362 . S
C1034 C1039 1.388 1_565 S
C1035 H1005 0.929 . S
C1035 C1034 1.362 . S
C1035 C1036 1.376 . S
C1036 H1007 0.931 . S
C1036 C1035 1.376 . S
C1036 C1037 1.396 . S
C1037 C1036 1.396 . S
C1037 C1038 1.348 1_565 S
C1037 C1055 1.472 . S
C1038 H1008 0.929 . S
C1038 C1037 1.348 1_545 S
C1038 C1039 1.443 . S
C1039 H1006 0.932 . S
C1039 C1034 1.388 1_545 S
C1039 C1038 1.443 . S
C1040 N1020 1.436 1_545 S
C1040 C1041 1.368 1_545 S
C1040 C1045 1.366 . S
C1041 H1009 0.929 . S
C1041 C1040 1.368 1_565 S
C1041 C1042 1.385 . S
C1042 H1010 0.930 . S
C1042 C1041 1.385 . S
C1042 C1043 1.304 1_565 S
C1043 C1042 1.304 1_545 S
C1043 C1044 1.475 . S
C1044 H1011 0.929 . S
C1044 C1043 1.475 . S
C1044 C1045 1.391 . S
C1045 H1012 0.931 . S
C1045 C1040 1.366 . S
C1045 C1044 1.391 . S
C1046 N1020 1.438 1_545 S
C1046 C1047 1.358 . S
C1046 C1051 1.371 1_545 S
C1047 H1013 0.930 . S
C1047 C1046 1.358 . S
C1047 C1048 1.405 . S
C1048 H1014 0.932 . S
C1048 C1047 1.405 . S
C1048 C1049 1.383 . S
C1049 C1048 1.383 . S
C1049 C1050 1.372 1_545 S
C1050 H1015 0.977 . S
C1050 C1049 1.372 1_565 S
C1050 C1051 1.372 . S
C1051 H1016 0.929 . S
C1051 C1046 1.371 1_565 S
C1051 C1050 1.372 . S
C1052 N1020 1.415 . S
C1052 C1053 1.362 . S
C1052 C1057 1.388 1_565 S
C1053 H1017 0.929 . S
C1053 C1052 1.362 . S
C1053 C1054 1.376 . S
C1054 H1018 0.931 . S
C1054 C1053 1.376 . S
C1054 C1055 1.396 . S
C1055 C1037 1.472 . S
C1055 C1054 1.396 . S
C1055 C1056 1.348 1_565 S
C1056 H1019 0.929 . S
C1056 C1055 1.348 1_545 S
C1056 C1057 1.443 . S
C1057 H1021 0.932 . S
C1057 C1052 1.388 1_545 S
C1057 C1056 1.443 . S
H1058 C1085 0.929 . S
N1059 C1084 1.433 . S
N1059 C1090 1.435 . S
N1059 C1096 1.423 . S
H1060 C1086 0.930 . S
H1061 C1089 0.931 . S
H1062 C1088 0.929 . S
H1063 C1091 0.930 . S
H1064 C1092 0.932 . S
H1065 C1095 0.929 . S
H1066 C1094 0.931 . S
H1067 C1097 0.929 . S
H1068 C1101 0.932 1_455 S
H1069 C1098 0.931 . S
H1070 C1100 0.954 . S
H1071 C1103 0.929 . S
H1072 C1104 0.930 . S
H1073 C1106 0.929 . S
H1074 C1107 0.931 . S
H1075 C1109 0.930 . S
H1076 C1110 0.932 . S
H1077 C1112 0.931 . S
H1078 C1113 0.929 . S
H1079 C1115 0.929 . S
H1080 C1116 0.931 . S
H1081 C1118 0.934 . S
N1082 C1102 1.433 . S
N1082 C1108 1.435 . S
N1082 C1114 1.423 . S
H1083 C1119 0.932 1_455 S
C1084 N1059 1.433 . S
C1084 C1085 1.363 . S
C1084 C1089 1.370 1_655 S
C1085 H1058 0.929 . S
C1085 C1084 1.363 . S
C1085 C1086 1.385 . S
C1086 H1060 0.930 . S
C1086 C1085 1.385 . S
C1086 C1087 1.357 1_655 S
C1087 C1086 1.357 1_455 S
C1087 C1088 1.406 . S
C1088 H1062 0.929 . S
C1088 C1087 1.406 . S
C1088 C1089 1.391 . S
C1089 H1061 0.931 . S
C1089 C1084 1.370 1_455 S
C1089 C1088 1.391 . S
C1090 N1059 1.435 . S
C1090 C1091 1.358 1_655 S
C1090 C1095 1.371 . S
C1091 H1063 0.930 . S
C1091 C1090 1.358 1_455 S
C1091 C1092 1.405 . S
C1092 H1064 0.932 . S
C1092 C1091 1.405 . S
C1092 C1093 1.383 1_455 S
C1093 C1092 1.383 1_655 S
C1093 C1094 1.393 . S
C1094 H1066 0.931 . S
C1094 C1093 1.393 . S
C1094 C1095 1.382 . S
C1095 H1065 0.929 . S
C1095 C1090 1.371 . S
C1095 C1094 1.382 . S
C1096 N1059 1.423 . S
C1096 C1097 1.362 . S
C1096 C1101 1.388 . S
C1097 H1067 0.929 . S
C1097 C1096 1.362 . S
C1097 C1098 1.376 . S
C1098 H1069 0.931 . S
C1098 C1097 1.376 . S
C1098 C1099 1.396 . S
C1099 C1098 1.396 . S
C1099 C1100 1.348 . S
C1099 C1117 1.472 . S
C1100 H1070 0.954 . S
C1100 C1099 1.348 . S
C1100 C1101 1.443 . S
C1101 H1068 0.932 1_655 S
C1101 C1096 1.388 . S
C1101 C1100 1.443 . S
C1102 N1082 1.433 . S
C1102 C1103 1.363 . S
C1102 C1107 1.370 1_655 S
C1103 H1071 0.929 . S
C1103 C1102 1.363 . S
C1103 C1104 1.385 . S
C1104 H1072 0.930 . S
C1104 C1103 1.385 . S
C1104 C1105 1.357 1_655 S
C1105 C1104 1.357 1_455 S
C1105 C1106 1.406 . S
C1106 H1073 0.929 . S
C1106 C1105 1.406 . S
C1106 C1107 1.391 . S
C1107 H1074 0.931 . S
C1107 C1102 1.370 1_455 S
C1107 C1106 1.391 . S
C1108 N1082 1.435 . S
C1108 C1109 1.358 1_655 S
C1108 C1113 1.371 . S
C1109 H1075 0.930 . S
C1109 C1108 1.358 1_455 S
C1109 C1110 1.405 . S
C1110 H1076 0.932 . S
C1110 C1109 1.405 . S
C1110 C1111 1.383 1_455 S
C1111 C1110 1.383 1_655 S
C1111 C1112 1.393 . S
C1112 H1077 0.931 . S
C1112 C1111 1.393 . S
C1112 C1113 1.382 . S
C1113 H1078 0.929 . S
C1113 C1108 1.371 . S
C1113 C1112 1.382 . S
C1114 N1082 1.423 . S
C1114 C1115 1.362 . S
C1114 C1119 1.388 . S
C1115 H1079 0.929 . S
C1115 C1114 1.362 . S
C1115 C1116 1.376 . S
C1116 H1080 0.931 . S
C1116 C1115 1.376 . S
C1116 C1117 1.396 . S
C1117 C1099 1.472 . S
C1117 C1116 1.396 . S
C1117 C1118 1.348 . S
C1118 H1081 0.934 . S
C1118 C1117 1.348 . S
C1118 C1119 1.443 . S
C1119 H1083 0.932 1_655 S
C1119 C1114 1.388 . S
C1119 C1118 1.443 . S
H1120 C1147 0.929 . S
N1121 C1146 1.433 . S
N1121 C1152 1.435 . S
N1121 C1158 1.423 . S
H1122 C1148 0.930 . S
H1123 C1151 0.931 . S
H1124 C1150 0.929 . S
H1125 C1153 0.930 . S
H1126 C1154 0.932 . S
H1127 C1157 0.929 . S
H1128 C1156 0.931 . S
H1129 C1159 0.929 . S
H1130 C1163 0.932 . S
H1131 C1160 0.931 . S
H1132 C1162 0.929 . S
H1133 C1165 0.929 . S
H1134 C1166 0.930 . S
H1135 C1168 0.929 . S
H1136 C1169 0.931 . S
H1137 C1171 0.930 . S
H1138 C1172 0.932 . S
H1139 C1174 0.931 . S
H1140 C1175 0.929 . S
H1141 C1177 0.929 . S
H1142 C1178 0.931 . S
H1143 C1180 0.929 . S
N1144 C1164 1.433 . S
N1144 C1170 1.435 . S
N1144 C1176 1.423 . S
H1145 C1181 0.932 . S
C1146 N1121 1.433 . S
C1146 C1147 1.363 . S
C1146 C1151 1.370 . S
C1147 H1120 0.929 . S
C1147 C1146 1.363 . S
C1147 C1148 1.385 . S
C1148 H1122 0.930 . S
C1148 C1147 1.385 . S
C1148 C1149 1.357 . S
C1149 C1148 1.357 . S
C1149 C1150 1.406 . S
C1150 H1124 0.929 . S
C1150 C1149 1.406 . S
C1150 C1151 1.391 . S
C1151 H1123 0.931 . S
C1151 C1146 1.370 . S
C1151 C1150 1.391 . S
C1152 N1121 1.435 . S
C1152 C1153 1.358 . S
C1152 C1157 1.371 . S
C1153 H1125 0.930 . S
C1153 C1152 1.358 . S
C1153 C1154 1.405 . S
C1154 H1126 0.932 . S
C1154 C1153 1.405 . S
C1154 C1155 1.383 . S
C1155 C1154 1.383 . S
C1155 C1156 1.393 . S
C1156 H1128 0.931 . S
C1156 C1155 1.393 . S
C1156 C1157 1.382 . S
C1157 H1127 0.929 . S
C1157 C1152 1.371 . S
C1157 C1156 1.382 . S
C1158 N1121 1.423 . S
C1158 C1159 1.362 . S
C1158 C1163 1.388 . S
C1159 H1129 0.929 . S
C1159 C1158 1.362 . S
C1159 C1160 1.376 . S
C1160 H1131 0.931 . S
C1160 C1159 1.376 . S
C1160 C1161 1.396 . S
C1161 C1160 1.396 . S
C1161 C1162 1.348 . S
C1161 C1179 1.472 . S
C1162 H1132 0.929 . S
C1162 C1161 1.348 . S
C1162 C1163 1.443 . S
C1163 H1130 0.932 . S
C1163 C1158 1.388 . S
C1163 C1162 1.443 . S
C1164 N1144 1.433 . S
C1164 C1165 1.363 . S
C1164 C1169 1.370 . S
C1165 H1133 0.929 . S
C1165 C1164 1.363 . S
C1165 C1166 1.385 . S
C1166 H1134 0.930 . S
C1166 C1165 1.385 . S
C1166 C1167 1.357 . S
C1167 C1166 1.357 . S
C1167 C1168 1.406 . S
C1168 H1135 0.929 . S
C1168 C1167 1.406 . S
C1168 C1169 1.391 . S
C1169 H1136 0.931 . S
C1169 C1164 1.370 . S
C1169 C1168 1.391 . S
C1170 N1144 1.435 . S
C1170 C1171 1.358 . S
C1170 C1175 1.371 . S
C1171 H1137 0.930 . S
C1171 C1170 1.358 . S
C1171 C1172 1.405 . S
C1172 H1138 0.932 . S
C1172 C1171 1.405 . S
C1172 C1173 1.383 . S
C1173 C1172 1.383 . S
C1173 C1174 1.393 . S
C1174 H1139 0.931 . S
C1174 C1173 1.393 . S
C1174 C1175 1.382 . S
C1175 H1140 0.929 . S
C1175 C1170 1.371 . S
C1175 C1174 1.382 . S
C1176 N1144 1.423 . S
C1176 C1177 1.362 . S
C1176 C1181 1.388 . S
C1177 H1141 0.929 . S
C1177 C1176 1.362 . S
C1177 C1178 1.376 . S
C1178 H1142 0.931 . S
C1178 C1177 1.376 . S
C1178 C1179 1.396 . S
C1179 C1161 1.472 . S
C1179 C1178 1.396 . S
C1179 C1180 1.348 . S
C1180 H1143 0.929 . S
C1180 C1179 1.348 . S
C1180 C1181 1.443 . S
C1181 H1145 0.932 . S
C1181 C1176 1.388 . S
C1181 C1180 1.443 . S
H1182 C1209 0.929 . S
N1183 C1208 1.433 . S
N1183 C1214 1.435 . S
N1183 C1220 1.423 . S
H1184 C1210 0.930 . S
H1185 C1213 0.931 . S
H1186 C1212 0.929 . S
H1187 C1215 0.930 . S
H1188 C1216 0.932 . S
H1189 C1219 0.929 . S
H1190 C1218 0.931 . S
H1191 C1221 0.929 . S
H1192 C1225 0.932 . S
H1193 C1222 0.931 . S
H1194 C1224 0.929 . S
H1195 C1227 0.929 . S
H1196 C1228 0.930 . S
H1197 C1230 0.929 . S
H1198 C1231 0.931 . S
H1199 C1233 0.930 . S
H1200 C1234 0.932 . S
H1201 C1236 0.931 . S
H1202 C1237 0.929 . S
H1203 C1239 0.929 . S
H1204 C1240 0.931 . S
H1205 C1242 0.929 . S
N1206 C1226 1.433 . S
N1206 C1232 1.435 . S
N1206 C1238 1.423 . S
H1207 C1243 0.932 . S
C1208 N1183 1.433 . S
C1208 C1209 1.363 . S
C1208 C1213 1.370 . S
C1209 H1182 0.929 . S
C1209 C1208 1.363 . S
C1209 C1210 1.385 . S
C1210 H1184 0.930 . S
C1210 C1209 1.385 . S
C1210 C1211 1.357 . S
C1211 C1210 1.357 . S
C1211 C1212 1.406 . S
C1212 H1186 0.929 . S
C1212 C1211 1.406 . S
C1212 C1213 1.391 . S
C1213 H1185 0.931 . S
C1213 C1208 1.370 . S
C1213 C1212 1.391 . S
C1214 N1183 1.435 . S
C1214 C1215 1.358 . S
C1214 C1219 1.371 . S
C1215 H1187 0.930 . S
C1215 C1214 1.358 . S
C1215 C1216 1.405 . S
C1216 H1188 0.932 . S
C1216 C1215 1.405 . S
C1216 C1217 1.383 . S
C1217 C1216 1.383 . S
C1217 C1218 1.393 . S
C1218 H1190 0.931 . S
C1218 C1217 1.393 . S
C1218 C1219 1.382 . S
C1219 H1189 0.929 . S
C1219 C1214 1.371 . S
C1219 C1218 1.382 . S
C1220 N1183 1.423 . S
C1220 C1221 1.362 . S
C1220 C1225 1.388 . S
C1221 H1191 0.929 . S
C1221 C1220 1.362 . S
C1221 C1222 1.376 . S
C1222 H1193 0.931 . S
C1222 C1221 1.376 . S
C1222 C1223 1.396 . S
C1223 C1222 1.396 . S
C1223 C1224 1.348 . S
C1223 C1241 1.472 . S
C1224 H1194 0.929 . S
C1224 C1223 1.348 . S
C1224 C1225 1.443 . S
C1225 H1192 0.932 . S
C1225 C1220 1.388 . S
C1225 C1224 1.443 . S
C1226 N1206 1.433 . S
C1226 C1227 1.363 . S
C1226 C1231 1.370 . S
C1227 H1195 0.929 . S
C1227 C1226 1.363 . S
C1227 C1228 1.385 . S
C1228 H1196 0.930 . S
C1228 C1227 1.385 . S
C1228 C1229 1.357 . S
C1229 C1228 1.357 . S
C1229 C1230 1.406 . S
C1230 H1197 0.929 . S
C1230 C1229 1.406 . S
C1230 C1231 1.391 . S
C1231 H1198 0.931 . S
C1231 C1226 1.370 . S
C1231 C1230 1.391 . S
C1232 N1206 1.435 . S
C1232 C1233 1.358 . S
C1232 C1237 1.371 . S
C1233 H1199 0.930 . S
C1233 C1232 1.358 . S
C1233 C1234 1.405 . S
C1234 H1200 0.932 . S
C1234 C1233 1.405 . S
C1234 C1235 1.383 . S
C1235 C1234 1.383 . S
C1235 C1236 1.393 . S
C1236 H1201 0.931 . S
C1236 C1235 1.393 . S
C1236 C1237 1.382 . S
C1237 H1202 0.929 . S
C1237 C1232 1.371 . S
C1237 C1236 1.382 . S
C1238 N1206 1.423 . S
C1238 C1239 1.362 . S
C1238 C1243 1.388 . S
C1239 H1203 0.929 . S
C1239 C1238 1.362 . S
C1239 C1240 1.376 . S
C1240 H1204 0.931 . S
C1240 C1239 1.376 . S
C1240 C1241 1.396 . S
C1241 C1223 1.472 . S
C1241 C1240 1.396 . S
C1241 C1242 1.348 . S
C1242 H1205 0.929 . S
C1242 C1241 1.348 . S
C1242 C1243 1.443 . S
C1243 H1207 0.932 . S
C1243 C1238 1.388 . S
C1243 C1242 1.443 . S
H1244 C1271 0.929 . S
N1245 C1270 1.433 . S
N1245 C1276 1.435 . S
N1245 C1282 1.423 . S
H1246 C1272 0.930 . S
H1247 C1275 0.931 . S
H1248 C1274 0.929 . S
H1249 C1277 0.930 . S
H1250 C1278 0.932 . S
H1251 C1281 0.929 . S
H1252 C1280 0.931 . S
H1253 C1283 0.929 . S
H1254 C1287 0.932 . S
H1255 C1284 0.931 . S
H1256 C1286 0.929 . S
H1257 C1289 0.929 . S
H1258 C1290 0.930 . S
H1259 C1292 0.929 . S
H1260 C1293 0.931 . S
H1261 C1295 0.930 . S
H1262 C1296 0.932 . S
H1263 C1298 0.931 . S
H1264 C1299 0.929 . S
H1265 C1301 0.929 . S
H1266 C1302 0.931 . S
H1267 C1304 0.929 . S
N1268 C1288 1.433 . S
N1268 C1294 1.435 . S
N1268 C1300 1.423 . S
H1269 C1305 0.932 . S
C1270 N1245 1.433 . S
C1270 C1271 1.363 . S
C1270 C1275 1.370 . S
C1271 H1244 0.929 . S
C1271 C1270 1.363 . S
C1271 C1272 1.385 . S
C1272 H1246 0.930 . S
C1272 C1271 1.385 . S
C1272 C1273 1.357 . S
C1273 C1272 1.357 . S
C1273 C1274 1.406 . S
C1274 H1248 0.929 . S
C1274 C1273 1.406 . S
C1274 C1275 1.391 . S
C1275 H1247 0.931 . S
C1275 C1270 1.370 . S
C1275 C1274 1.391 . S
C1276 N1245 1.435 . S
C1276 C1277 1.358 . S
C1276 C1281 1.371 . S
C1277 H1249 0.930 . S
C1277 C1276 1.358 . S
C1277 C1278 1.405 . S
C1278 H1250 0.932 . S
C1278 C1277 1.405 . S
C1278 C1279 1.383 . S
C1279 C1278 1.383 . S
C1279 C1280 1.393 . S
C1280 H1252 0.931 . S
C1280 C1279 1.393 . S
C1280 C1281 1.382 . S
C1281 H1251 0.929 . S
C1281 C1276 1.371 . S
C1281 C1280 1.382 . S
C1282 N1245 1.423 . S
C1282 C1283 1.362 . S
C1282 C1287 1.388 . S
C1283 H1253 0.929 . S
C1283 C1282 1.362 . S
C1283 C1284 1.376 . S
C1284 H1255 0.931 . S
C1284 C1283 1.376 . S
C1284 C1285 1.396 . S
C1285 C1284 1.396 . S
C1285 C1286 1.348 . S
C1285 C1303 1.472 . S
C1286 H1256 0.929 . S
C1286 C1285 1.348 . S
C1286 C1287 1.443 . S
C1287 H1254 0.932 . S
C1287 C1282 1.388 . S
C1287 C1286 1.443 . S
C1288 N1268 1.433 . S
C1288 C1289 1.363 . S
C1288 C1293 1.370 . S
C1289 H1257 0.929 . S
C1289 C1288 1.363 . S
C1289 C1290 1.385 . S
C1290 H1258 0.930 . S
C1290 C1289 1.385 . S
C1290 C1291 1.357 . S
C1291 C1290 1.357 . S
C1291 C1292 1.406 . S
C1292 H1259 0.929 . S
C1292 C1291 1.406 . S
C1292 C1293 1.391 . S
C1293 H1260 0.931 . S
C1293 C1288 1.370 . S
C1293 C1292 1.391 . S
C1294 N1268 1.435 . S
C1294 C1295 1.358 . S
C1294 C1299 1.371 . S
C1295 H1261 0.930 . S
C1295 C1294 1.358 . S
C1295 C1296 1.405 . S
C1296 H1262 0.932 . S
C1296 C1295 1.405 . S
C1296 C1297 1.383 . S
C1297 C1296 1.383 . S
C1297 C1298 1.393 . S
C1298 H1263 0.931 . S
C1298 C1297 1.393 . S
C1298 C1299 1.382 . S
C1299 H1264 0.929 . S
C1299 C1294 1.371 . S
C1299 C1298 1.382 . S
C1300 N1268 1.423 . S
C1300 C1301 1.362 . S
C1300 C1305 1.388 . S
C1301 H1265 0.929 . S
C1301 C1300 1.362 . S
C1301 C1302 1.376 . S
C1302 H1266 0.931 . S
C1302 C1301 1.376 . S
C1302 C1303 1.396 . S
C1303 C1285 1.472 . S
C1303 C1302 1.396 . S
C1303 C1304 1.348 . S
C1304 H1267 0.929 . S
C1304 C1303 1.348 . S
C1304 C1305 1.443 . S
C1305 H1269 0.932 . S
C1305 C1300 1.388 . S
C1305 C1304 1.443 . S
H1306 C1333 0.929 . S
N1307 C1332 1.433 . S
N1307 C1338 1.435 . S
N1307 C1344 1.423 . S
H1308 C1334 0.930 . S
H1309 C1337 0.931 . S
H1310 C1336 0.929 . S
H1311 C1339 0.930 . S
H1312 C1340 0.932 . S
H1313 C1343 0.929 . S
H1314 C1342 0.931 . S
H1315 C1345 0.929 . S
H1316 C1349 0.932 . S
H1317 C1346 0.931 . S
H1318 C1348 0.929 . S
H1319 C1351 0.929 . S
H1320 C1352 0.930 . S
H1321 C1354 0.929 . S
H1322 C1355 0.931 . S
H1323 C1357 0.930 . S
H1324 C1358 0.932 . S
H1325 C1360 0.931 . S
H1326 C1361 0.929 . S
H1327 C1363 0.929 . S
H1328 C1364 0.931 . S
H1329 C1366 0.929 . S
N1330 C1350 1.433 . S
N1330 C1356 1.435 . S
N1330 C1362 1.423 . S
H1331 C1367 0.932 . S
C1332 N1307 1.433 . S
C1332 C1333 1.363 . S
C1332 C1337 1.370 . S
C1333 H1306 0.929 . S
C1333 C1332 1.363 . S
C1333 C1334 1.385 . S
C1334 H1308 0.930 . S
C1334 C1333 1.385 . S
C1334 C1335 1.357 . S
C1335 C1334 1.357 . S
C1335 C1336 1.406 . S
C1336 H1310 0.929 . S
C1336 C1335 1.406 . S
C1336 C1337 1.391 . S
C1337 H1309 0.931 . S
C1337 C1332 1.370 . S
C1337 C1336 1.391 . S
C1338 N1307 1.435 . S
C1338 C1339 1.358 . S
C1338 C1343 1.371 . S
C1339 H1311 0.930 . S
C1339 C1338 1.358 . S
C1339 C1340 1.405 . S
C1340 H1312 0.932 . S
C1340 C1339 1.405 . S
C1340 C1341 1.383 . S
C1341 C1340 1.383 . S
C1341 C1342 1.393 . S
C1342 H1314 0.931 . S
C1342 C1341 1.393 . S
C1342 C1343 1.382 . S
C1343 H1313 0.929 . S
C1343 C1338 1.371 . S
C1343 C1342 1.382 . S
C1344 N1307 1.423 . S
C1344 C1345 1.362 . S
C1344 C1349 1.388 . S
C1345 H1315 0.929 . S
C1345 C1344 1.362 . S
C1345 C1346 1.376 . S
C1346 H1317 0.931 . S
C1346 C1345 1.376 . S
C1346 C1347 1.396 . S
C1347 C1346 1.396 . S
C1347 C1348 1.348 . S
C1347 C1365 1.472 . S
C1348 H1318 0.929 . S
C1348 C1347 1.348 . S
C1348 C1349 1.443 . S
C1349 H1316 0.932 . S
C1349 C1344 1.388 . S
C1349 C1348 1.443 . S
C1350 N1330 1.433 . S
C1350 C1351 1.363 . S
C1350 C1355 1.370 . S
C1351 H1319 0.929 . S
C1351 C1350 1.363 . S
C1351 C1352 1.385 . S
C1352 H1320 0.930 . S
C1352 C1351 1.385 . S
C1352 C1353 1.357 . S
C1353 C1352 1.357 . S
C1353 C1354 1.406 . S
C1354 H1321 0.929 . S
C1354 C1353 1.406 . S
C1354 C1355 1.391 . S
C1355 H1322 0.931 . S
C1355 C1350 1.370 . S
C1355 C1354 1.391 . S
C1356 N1330 1.435 . S
C1356 C1357 1.358 . S
C1356 C1361 1.371 . S
C1357 H1323 0.930 . S
C1357 C1356 1.358 . S
C1357 C1358 1.405 . S
C1358 H1324 0.932 . S
C1358 C1357 1.405 . S
C1358 C1359 1.383 . S
C1359 C1358 1.383 . S
C1359 C1360 1.393 . S
C1360 H1325 0.931 . S
C1360 C1359 1.393 . S
C1360 C1361 1.382 . S
C1361 H1326 0.929 . S
C1361 C1356 1.371 . S
C1361 C1360 1.382 . S
C1362 N1330 1.423 . S
C1362 C1363 1.362 . S
C1362 C1367 1.388 . S
C1363 H1327 0.929 . S
C1363 C1362 1.362 . S
C1363 C1364 1.376 . S
C1364 H1328 0.931 . S
C1364 C1363 1.376 . S
C1364 C1365 1.396 . S
C1365 C1347 1.472 . S
C1365 C1364 1.396 . S
C1365 C1366 1.348 . S
C1366 H1329 0.929 . S
C1366 C1365 1.348 . S
C1366 C1367 1.443 . S
C1367 H1331 0.932 . S
C1367 C1362 1.388 . S
C1367 C1366 1.443 . S
H1368 C1386 0.951 . S
H1369 C1388 0.951 . S
H1370 C1390 0.950 . S
H1371 C1391 0.950 . S
H1372 C1393 0.950 . S
H1373 C1396 0.950 . S
H1374 C1397 0.950 1_455 S
H1375 C1399 0.950 . S
H1376 C1400 0.950 . S
H1377 C1401 0.951 . S
H1378 C1403 0.951 . S
H1379 C1405 0.950 . S
H1380 C1406 0.950 . S
H1381 C1408 0.950 . S
H1382 C1411 0.950 1_655 S
H1383 C1412 0.950 . S
H1384 C1414 0.950 . S
H1385 C1415 0.950 . S
C1386 H1368 0.951 . S
C1386 C1387 1.366 1_655 S
C1386 C1388 1.388 . S
C1387 C1386 1.366 1_455 S
C1387 C1391 1.385 . S
C1388 H1369 0.951 . S
C1388 C1386 1.388 . S
C1388 C1389 1.366 1_655 S
C1389 C1388 1.366 1_455 S
C1389 C1390 1.414 . S
C1389 C1392 1.499 . S
C1390 H1370 0.950 . S
C1390 C1389 1.414 . S
C1390 C1391 1.374 . S
C1391 H1371 0.950 . S
C1391 C1387 1.385 . S
C1391 C1390 1.374 . S
C1392 C1389 1.499 . S
C1392 C1393 1.373 . S
C1392 C1394 1.389 1_455 S
C1393 H1372 0.950 . S
C1393 C1392 1.373 . S
C1393 C1409 1.377 . S
C1394 C1392 1.389 1_655 S
C1394 C1395 1.524 . S
C1394 C1408 1.377 . S
C1395 C1394 1.524 . S
C1395 C1396 1.397 1_655 S
C1395 C1400 1.363 . S
C1396 H1373 0.950 . S
C1396 C1395 1.397 1_455 S
C1396 C1397 1.334 1_455 S
C1397 H1374 0.950 1_655 S
C1397 C1396 1.334 1_655 S
C1397 C1398 1.287 . S
C1398 C1397 1.287 . S
C1398 C1399 1.524 . S
C1398 H1417 0.913 . S
C1399 H1375 0.950 . S
C1399 C1398 1.524 . S
C1399 C1400 1.415 . S
C1400 H1376 0.950 . S
C1400 C1395 1.363 . S
C1400 C1399 1.415 . S
C1401 H1377 0.951 . S
C1401 C1402 1.366 . S
C1401 C1403 1.388 . S
C1402 C1401 1.366 . S
C1402 C1406 1.385 1_455 S
C1403 H1378 0.951 . S
C1403 C1401 1.388 . S
C1403 C1404 1.366 . S
C1404 C1403 1.366 . S
C1404 C1405 1.414 1_455 S
C1404 C1407 1.499 . S
C1405 H1379 0.950 . S
C1405 C1404 1.414 1_655 S
C1405 C1406 1.374 . S
C1406 H1380 0.950 . S
C1406 C1402 1.385 1_655 S
C1406 C1405 1.374 . S
C1407 C1404 1.499 . S
C1407 C1408 1.373 1_455 S
C1407 C1409 1.389 . S
C1408 H1381 0.950 . S
C1408 C1394 1.377 . S
C1408 C1407 1.373 1_655 S
C1409 C1393 1.377 . S
C1409 C1407 1.389 . S
C1409 C1410 1.524 . S
C1410 C1409 1.524 . S
C1410 C1411 1.397 . S
C1410 C1415 1.363 . S
C1411 H1382 0.950 1_455 S
C1411 C1410 1.397 . S
C1411 C1412 1.334 . S
C1412 H1383 0.950 . S
C1412 C1411 1.334 . S
C1412 C1413 1.287 . S
C1413 C1412 1.287 . S
C1413 C1414 1.524 . S
C1413 H1416 0.999 . S
C1414 H1384 0.950 . S
C1414 C1413 1.524 . S
C1414 C1415 1.415 . S
C1415 H1385 0.950 . S
C1415 C1410 1.363 . S
C1415 C1414 1.415 . S
H1416 C1413 0.999 . S
H1417 C1398 0.913 . S
H1418 C1436 0.951 . S
H1419 C1438 0.951 . S
H1420 C1440 0.950 . S
H1421 C1441 0.950 . S
H1422 C1443 0.950 . S
H1423 C1446 0.950 . S
H1424 C1447 0.950 . S
H1425 C1449 0.950 . S
H1426 C1450 0.950 . S
H1427 C1451 0.951 . S
H1428 C1453 0.951 . S
H1429 C1455 0.950 . S
H1430 C1456 0.950 . S
H1431 C1458 0.950 . S
H1432 C1461 0.950 . S
H1433 C1462 0.950 . S
H1434 C1464 0.950 . S
H1435 C1465 0.950 . S
C1436 H1418 0.951 . S
C1436 C1437 1.366 . S
C1436 C1438 1.388 . S
C1437 C1436 1.366 . S
C1437 C1441 1.385 . S
C1438 H1419 0.951 . S
C1438 C1436 1.388 . S
C1438 C1439 1.366 . S
C1439 C1438 1.366 . S
C1439 C1440 1.414 . S
C1439 C1442 1.499 . S
C1440 H1420 0.950 . S
C1440 C1439 1.414 . S
C1440 C1441 1.374 . S
C1441 H1421 0.950 . S
C1441 C1437 1.385 . S
C1441 C1440 1.374 . S
C1442 C1439 1.499 . S
C1442 C1443 1.373 . S
C1442 C1444 1.389 . S
C1443 H1422 0.950 . S
C1443 C1442 1.373 . S
C1443 C1459 1.377 . S
C1444 C1442 1.389 . S
C1444 C1445 1.524 . S
C1444 C1458 1.377 . S
C1445 C1444 1.524 . S
C1445 C1446 1.397 . S
C1445 C1450 1.363 . S
C1446 H1423 0.950 . S
C1446 C1445 1.397 . S
C1446 C1447 1.334 . S
C1447 H1424 0.950 . S
C1447 C1446 1.334 . S
C1447 C1448 1.287 . S
C1448 C1447 1.287 . S
C1448 C1449 1.524 . S
C1448 H1467 0.913 . S
C1449 H1425 0.950 . S
C1449 C1448 1.524 . S
C1449 C1450 1.415 . S
C1450 H1426 0.950 . S
C1450 C1445 1.363 . S
C1450 C1449 1.415 . S
C1451 H1427 0.951 . S
C1451 C1452 1.366 . S
C1451 C1453 1.388 . S
C1452 C1451 1.366 . S
C1452 C1456 1.385 . S
C1453 H1428 0.951 . S
C1453 C1451 1.388 . S
C1453 C1454 1.366 . S
C1454 C1453 1.366 . S
C1454 C1455 1.414 . S
C1454 C1457 1.499 . S
C1455 H1429 0.950 . S
C1455 C1454 1.414 . S
C1455 C1456 1.374 . S
C1456 H1430 0.950 . S
C1456 C1452 1.385 . S
C1456 C1455 1.374 . S
C1457 C1454 1.499 . S
C1457 C1458 1.373 . S
C1457 C1459 1.389 . S
C1458 H1431 0.950 . S
C1458 C1444 1.377 . S
C1458 C1457 1.373 . S
C1459 C1443 1.377 . S
C1459 C1457 1.389 . S
C1459 C1460 1.524 . S
C1460 C1459 1.524 . S
C1460 C1461 1.397 . S
C1460 C1465 1.363 . S
C1461 H1432 0.950 . S
C1461 C1460 1.397 . S
C1461 C1462 1.334 . S
C1462 H1433 0.950 . S
C1462 C1461 1.334 . S
C1462 C1463 1.287 . S
C1463 C1462 1.287 . S
C1463 C1464 1.524 . S
C1463 H1466 0.999 . S
C1464 H1434 0.950 . S
C1464 C1463 1.524 . S
C1464 C1465 1.415 . S
C1465 H1435 0.950 . S
C1465 C1460 1.363 . S
C1465 C1464 1.415 . S
H1466 C1463 0.999 . S
H1467 C1448 0.913 . S
H1468 C1486 0.951 . S
H1469 C1488 0.951 . S
H1470 C1490 0.952 . S
H1471 C1491 0.938 . S
H1472 C1493 0.950 . S
H1473 C1496 0.950 . S
H1474 C1497 0.950 . S
H1475 C1499 0.950 . S
H1476 C1500 0.950 . S
H1477 C1501 0.952 1_565 S
H1478 C1503 0.952 . S
H1479 C1505 0.950 . S
H1480 C1506 0.950 . S
H1481 C1508 0.950 . S
H1482 C1511 0.950 . S
H1483 C1512 0.950 . S
H1484 C1514 0.950 . S
H1485 C1515 0.950 . S
C1486 H1468 0.951 . S
C1486 C1487 1.366 . S
C1486 C1488 1.388 . S
C1487 C1486 1.366 . S
C1487 C1491 1.383 1_545 S
C1488 H1469 0.951 . S
C1488 C1486 1.388 . S
C1488 C1489 1.366 . S
C1489 C1488 1.366 . S
C1489 C1490 1.427 1_545 S
C1489 C1492 1.499 . S
C1490 H1470 0.952 . S
C1490 C1489 1.427 1_565 S
C1490 C1491 1.375 . S
C1491 H1471 0.938 . S
C1491 C1487 1.383 1_565 S
C1491 C1490 1.375 . S
C1492 C1489 1.499 . S
C1492 C1493 1.373 . S
C1492 C1494 1.389 1_545 S
C1493 H1472 0.950 . S
C1493 C1492 1.373 . S
C1493 C1509 1.377 . S
C1494 C1492 1.389 1_565 S
C1494 C1495 1.524 . S
C1494 C1508 1.377 . S
C1495 C1494 1.524 . S
C1495 C1496 1.397 . S
C1495 C1500 1.363 . S
C1496 H1473 0.950 . S
C1496 C1495 1.397 . S
C1496 C1497 1.334 . S
C1497 H1474 0.950 . S
C1497 C1496 1.334 . S
C1497 C1498 1.287 . S
C1498 C1497 1.287 . S
C1498 C1499 1.524 . S
C1498 H1517 0.913 . S
C1499 H1475 0.950 . S
C1499 C1498 1.524 . S
C1499 C1500 1.415 . S
C1500 H1476 0.950 . S
C1500 C1495 1.363 . S
C1500 C1499 1.415 . S
C1501 H1477 0.952 1_545 S
C1501 C1502 1.366 . S
C1501 C1503 1.388 . S
C1502 C1501 1.366 . S
C1502 C1506 1.385 . S
C1503 H1478 0.952 . S
C1503 C1501 1.388 . S
C1503 C1504 1.366 . S
C1504 C1503 1.366 . S
C1504 C1505 1.414 . S
C1504 C1507 1.499 . S
C1505 H1479 0.950 . S
C1505 C1504 1.414 . S
C1505 C1506 1.374 . S
C1506 H1480 0.950 . S
C1506 C1502 1.385 . S
C1506 C1505 1.374 . S
C1507 C1504 1.499 . S
C1507 C1508 1.373 1_545 S
C1507 C1509 1.389 . S
C1508 H1481 0.950 . S
C1508 C1494 1.377 . S
C1508 C1507 1.373 1_565 S
C1509 C1493 1.377 . S
C1509 C1507 1.389 . S
C1509 C1510 1.524 . S
C1510 C1509 1.524 . S
C1510 C1511 1.397 . S
C1510 C1515 1.363 . S
C1511 H1482 0.950 . S
C1511 C1510 1.397 . S
C1511 C1512 1.334 . S
C1512 H1483 0.950 . S
C1512 C1511 1.334 . S
C1512 C1513 1.287 . S
C1513 C1512 1.287 . S
C1513 C1514 1.524 . S
C1513 H1516 0.999 . S
C1514 H1484 0.950 . S
C1514 C1513 1.524 . S
C1514 C1515 1.415 . S
C1515 H1485 0.950 . S
C1515 C1510 1.363 . S
C1515 C1514 1.415 . S
H1516 C1513 0.999 . S
H1517 C1498 0.913 . S
H1518 C1536 0.951 . S
H1519 C1538 0.951 . S
H1520 C1540 0.950 . S
H1521 C1541 0.950 . S
H1522 C1543 0.950 . S
H1523 C1546 0.950 . S
H1524 C1547 0.950 . S
H1525 C1549 0.950 . S
H1526 C1550 0.950 . S
H1527 C1551 0.951 . S
H1528 C1553 0.951 . S
H1529 C1555 0.950 . S
H1530 C1556 0.950 . S
H1531 C1558 0.950 . S
H1532 C1561 0.950 . S
H1533 C1562 0.950 . S
H1534 C1564 0.950 . S
H1535 C1565 0.950 . S
C1536 H1518 0.951 . S
C1536 C1537 1.366 1_565 S
C1536 C1538 1.388 . S
C1537 C1536 1.366 1_545 S
C1537 C1541 1.385 . S
C1538 H1519 0.951 . S
C1538 C1536 1.388 . S
C1538 C1539 1.366 1_565 S
C1539 C1538 1.366 1_545 S
C1539 C1540 1.414 . S
C1539 C1542 1.499 . S
C1540 H1520 0.950 . S
C1540 C1539 1.414 . S
C1540 C1541 1.374 . S
C1541 H1521 0.950 . S
C1541 C1537 1.385 . S
C1541 C1540 1.374 . S
C1542 C1539 1.499 . S
C1542 C1543 1.373 . S
C1542 C1544 1.389 1_545 S
C1543 H1522 0.950 . S
C1543 C1542 1.373 . S
C1543 C1559 1.377 . S
C1544 C1542 1.389 1_565 S
C1544 C1545 1.524 . S
C1544 C1558 1.377 . S
C1545 C1544 1.524 . S
C1545 C1546 1.397 . S
C1545 C1550 1.363 . S
C1546 H1523 0.950 . S
C1546 C1545 1.397 . S
C1546 C1547 1.334 . S
C1547 H1524 0.950 . S
C1547 C1546 1.334 . S
C1547 C1548 1.287 . S
C1548 C1547 1.287 . S
C1548 C1549 1.524 . S
C1548 H1567 0.913 . S
C1549 H1525 0.950 . S
C1549 C1548 1.524 . S
C1549 C1550 1.415 . S
C1550 H1526 0.950 . S
C1550 C1545 1.363 . S
C1550 C1549 1.415 . S
C1551 H1527 0.951 . S
C1551 C1552 1.366 . S
C1551 C1553 1.388 . S
C1552 C1551 1.366 . S
C1552 C1556 1.385 1_545 S
C1553 H1528 0.951 . S
C1553 C1551 1.388 . S
C1553 C1554 1.366 . S
C1554 C1553 1.366 . S
C1554 C1555 1.414 1_545 S
C1554 C1557 1.499 . S
C1555 H1529 0.950 . S
C1555 C1554 1.414 1_565 S
C1555 C1556 1.374 . S
C1556 H1530 0.950 . S
C1556 C1552 1.385 1_565 S
C1556 C1555 1.374 . S
C1557 C1554 1.499 . S
C1557 C1558 1.373 1_545 S
C1557 C1559 1.389 . S
C1558 H1531 0.950 . S
C1558 C1544 1.377 . S
C1558 C1557 1.373 1_565 S
C1559 C1543 1.377 . S
C1559 C1557 1.389 . S
C1559 C1560 1.524 . S
C1560 C1559 1.524 . S
C1560 C1561 1.397 . S
C1560 C1565 1.363 . S
C1561 H1532 0.950 . S
C1561 C1560 1.397 . S
C1561 C1562 1.334 . S
C1562 H1533 0.950 . S
C1562 C1561 1.334 . S
C1562 C1563 1.287 . S
C1563 C1562 1.287 . S
C1563 C1564 1.524 . S
C1563 H1566 0.999 . S
C1564 H1534 0.950 . S
C1564 C1563 1.524 . S
C1564 C1565 1.415 . S
C1565 H1535 0.950 . S
C1565 C1560 1.363 . S
C1565 C1564 1.415 . S
H1566 C1563 0.999 . S
H1567 C1548 0.913 . S
H1568 C1586 0.951 . S
H1569 C1588 0.951 . S
H1570 C1590 0.950 . S
H1571 C1591 0.950 . S
H1572 C1593 0.950 . S
H1573 C1596 0.950 . S
H1574 C1597 0.950 . S
H1575 C1599 0.950 . S
H1576 C1600 0.950 . S
H1577 C1601 0.951 . S
H1578 C1603 0.951 . S
H1579 C1605 0.950 . S
H1580 C1606 0.950 . S
H1581 C1608 0.950 . S
H1582 C1611 0.950 . S
H1583 C1612 0.950 . S
H1584 C1614 0.950 . S
H1585 C1615 0.950 . S
C1586 H1568 0.951 . S
C1586 C1587 1.366 . S
C1586 C1588 1.388 . S
C1587 C1586 1.366 . S
C1587 C1591 1.385 1_455 S
C1588 H1569 0.951 . S
C1588 C1586 1.388 . S
C1588 C1589 1.366 . S
C1589 C1588 1.366 . S
C1589 C1590 1.414 1_455 S
C1589 C1592 1.499 . S
C1590 H1570 0.950 . S
C1590 C1589 1.414 1_655 S
C1590 C1591 1.374 . S
C1591 H1571 0.950 . S
C1591 C1587 1.385 1_655 S
C1591 C1590 1.374 . S
C1592 C1589 1.499 . S
C1592 C1593 1.373 1_455 S
C1592 C1594 1.389 . S
C1593 H1572 0.950 . S
C1593 C1592 1.373 1_655 S
C1593 C1609 1.377 . S
C1594 C1592 1.389 . S
C1594 C1595 1.524 . S
C1594 C1608 1.377 . S
C1595 C1594 1.524 . S
C1595 C1596 1.397 . S
C1595 C1600 1.363 . S
C1596 H1573 0.950 . S
C1596 C1595 1.397 . S
C1596 C1597 1.334 . S
C1597 H1574 0.950 . S
C1597 C1596 1.334 . S
C1597 C1598 1.287 . S
C1598 C1597 1.287 . S
C1598 C1599 1.524 . S
C1598 H1617 0.913 . S
C1599 H1575 0.950 . S
C1599 C1598 1.524 . S
C1599 C1600 1.415 . S
C1600 H1576 0.950 . S
C1600 C1595 1.363 . S
C1600 C1599 1.415 . S
C1601 H1577 0.951 . S
C1601 C1602 1.366 1_655 S
C1601 C1603 1.388 . S
C1602 C1601 1.366 1_455 S
C1602 C1606 1.385 . S
C1603 H1578 0.951 . S
C1603 C1601 1.388 . S
C1603 C1604 1.366 1_655 S
C1604 C1603 1.366 1_455 S
C1604 C1605 1.414 . S
C1604 C1607 1.499 . S
C1605 H1579 0.950 . S
C1605 C1604 1.414 . S
C1605 C1606 1.374 . S
C1606 H1580 0.950 . S
C1606 C1602 1.385 . S
C1606 C1605 1.374 . S
C1607 C1604 1.499 . S
C1607 C1608 1.373 . S
C1607 C1609 1.389 1_455 S
C1608 H1581 0.950 . S
C1608 C1594 1.377 . S
C1608 C1607 1.373 . S
C1609 C1593 1.377 . S
C1609 C1607 1.389 1_655 S
C1609 C1610 1.524 . S
C1610 C1609 1.524 . S
C1610 C1611 1.397 . S
C1610 C1615 1.363 . S
C1611 H1582 0.950 . S
C1611 C1610 1.397 . S
C1611 C1612 1.334 . S
C1612 H1583 0.950 . S
C1612 C1611 1.334 . S
C1612 C1613 1.287 . S
C1613 C1612 1.287 . S
C1613 C1614 1.524 . S
C1613 H1616 0.999 . S
C1614 H1584 0.950 . S
C1614 C1613 1.524 . S
C1614 C1615 1.415 . S
C1615 H1585 0.950 . S
C1615 C1610 1.363 . S
C1615 C1614 1.415 . S
H1616 C1613 0.999 . S
H1617 C1598 0.913 . S
H1618 C1636 0.951 . S
H1619 C1638 0.951 . S
H1620 C1640 0.950 . S
H1621 C1641 0.950 . S
H1622 C1643 0.950 . S
H1623 C1646 0.950 . S
H1624 C1647 0.950 . S
H1625 C1649 0.954 . S
H1626 C1650 0.950 . S
H1627 C1651 0.951 . S
H1628 C1653 0.951 . S
H1629 C1655 0.950 . S
H1630 C1656 0.950 . S
H1631 C1658 0.950 . S
H1632 C1661 0.950 . S
H1633 C1662 0.950 . S
H1634 C1664 0.950 . S
H1635 C1665 0.950 . S
C1636 H1618 0.951 . S
C1636 C1637 1.366 . S
C1636 C1638 1.388 . S
C1637 C1636 1.366 . S
C1637 C1641 1.385 . S
C1638 H1619 0.951 . S
C1638 C1636 1.388 . S
C1638 C1639 1.366 . S
C1639 C1638 1.366 . S
C1639 C1640 1.414 . S
C1639 C1642 1.499 . S
C1640 H1620 0.950 . S
C1640 C1639 1.414 . S
C1640 C1641 1.374 . S
C1641 H1621 0.950 . S
C1641 C1637 1.385 . S
C1641 C1640 1.374 . S
C1642 C1639 1.499 . S
C1642 C1643 1.373 . S
C1642 C1644 1.389 . S
C1643 H1622 0.950 . S
C1643 C1642 1.373 . S
C1643 C1659 1.377 . S
C1644 C1642 1.389 . S
C1644 C1645 1.524 . S
C1644 C1658 1.377 . S
C1645 C1644 1.524 . S
C1645 C1646 1.397 . S
C1645 C1650 1.363 . S
C1646 H1623 0.950 . S
C1646 C1645 1.397 . S
C1646 C1647 1.334 . S
C1647 H1624 0.950 . S
C1647 C1646 1.334 . S
C1647 C1648 1.299 . S
C1648 C1647 1.299 . S
C1648 C1649 1.533 . S
C1648 H1667 0.888 1_556 S
C1649 H1625 0.954 . S
C1649 C1648 1.533 . S
C1649 C1650 1.415 . S
C1650 H1626 0.950 . S
C1650 C1645 1.363 . S
C1650 C1649 1.415 . S
C1651 H1627 0.951 . S
C1651 C1652 1.366 . S
C1651 C1653 1.388 . S
C1652 C1651 1.366 . S
C1652 C1656 1.385 . S
C1653 H1628 0.951 . S
C1653 C1651 1.388 . S
C1653 C1654 1.366 . S
C1654 C1653 1.366 . S
C1654 C1655 1.414 . S
C1654 C1657 1.499 . S
C1655 H1629 0.950 . S
C1655 C1654 1.414 . S
C1655 C1656 1.374 . S
C1656 H1630 0.950 . S
C1656 C1652 1.385 . S
C1656 C1655 1.374 . S
C1657 C1654 1.499 . S
C1657 C1658 1.373 . S
C1657 C1659 1.389 . S
C1658 H1631 0.950 . S
C1658 C1644 1.377 . S
C1658 C1657 1.373 . S
C1659 C1643 1.377 . S
C1659 C1657 1.389 . S
C1659 C1660 1.524 . S
C1660 C1659 1.524 . S
C1660 C1661 1.397 . S
C1660 C1665 1.363 . S
C1661 H1632 0.950 . S
C1661 C1660 1.397 . S
C1661 C1662 1.334 . S
C1662 H1633 0.950 . S
C1662 C1661 1.334 . S
C1662 C1663 1.287 . S
C1663 C1662 1.287 . S
C1663 C1664 1.524 . S
C1663 H1666 0.999 . S
C1664 H1634 0.950 . S
C1664 C1663 1.524 . S
C1664 C1665 1.415 . S
C1665 H1635 0.950 . S
C1665 C1660 1.363 . S
C1665 C1664 1.415 . S
H1666 C1663 0.999 . S
H1667 C1648 0.888 1_554 S
H1668 C1686 0.951 . S
H1669 C1688 0.951 . S
H1670 C1690 0.950 . S
H1671 C1691 0.950 . S
H1672 C1693 0.948 1_655 S
H1673 C1696 0.950 . S
H1674 C1697 0.950 . S
H1675 C1699 0.950 . S
H1676 C1700 0.950 . S
H1677 C1701 0.951 . S
H1678 C1703 0.951 . S
H1679 C1705 0.950 . S
H1680 C1706 0.950 . S
H1681 C1708 0.950 . S
H1682 C1711 0.950 . S
H1683 C1712 0.950 . S
H1684 C1714 0.950 . S
H1685 C1715 0.950 . S
C1686 H1668 0.951 . S
C1686 C1687 1.366 . S
C1686 C1688 1.388 . S
C1687 C1686 1.366 . S
C1687 C1691 1.385 1_455 S
C1688 H1669 0.951 . S
C1688 C1686 1.388 . S
C1688 C1689 1.366 . S
C1689 C1688 1.366 . S
C1689 C1690 1.414 1_455 S
C1689 C1692 1.499 . S
C1690 H1670 0.950 . S
C1690 C1689 1.414 1_655 S
C1690 C1691 1.374 . S
C1691 H1671 0.950 . S
C1691 C1687 1.385 1_655 S
C1691 C1690 1.374 . S
C1692 C1689 1.499 . S
C1692 C1693 1.364 . S
C1692 C1694 1.389 . S
C1693 H1672 0.948 1_455 S
C1693 C1692 1.364 . S
C1693 C1709 1.389 . S
C1694 C1692 1.389 . S
C1694 C1695 1.524 . S
C1694 C1708 1.377 . S
C1695 C1694 1.524 . S
C1695 C1696 1.397 1_455 S
C1695 C1700 1.363 . S
C1696 H1673 0.950 . S
C1696 C1695 1.397 1_655 S
C1696 C1697 1.334 . S
C1697 H1674 0.950 . S
C1697 C1696 1.334 . S
C1697 C1698 1.287 1_655 S
C1698 C1697 1.287 1_455 S
C1698 C1699 1.524 . S
C1698 H1717 0.913 . S
C1699 H1675 0.950 . S
C1699 C1698 1.524 . S
C1699 C1700 1.415 . S
C1700 H1676 0.950 . S
C1700 C1695 1.363 . S
C1700 C1699 1.415 . S
C1701 H1677 0.951 . S
C1701 C1702 1.366 1_655 S
C1701 C1703 1.388 . S
C1702 C1701 1.366 1_455 S
C1702 C1706 1.385 . S
C1703 H1678 0.951 . S
C1703 C1701 1.388 . S
C1703 C1704 1.366 1_655 S
C1704 C1703 1.366 1_455 S
C1704 C1705 1.414 . S
C1704 C1707 1.499 . S
C1705 H1679 0.950 . S
C1705 C1704 1.414 . S
C1705 C1706 1.374 . S
C1706 H1680 0.950 . S
C1706 C1702 1.385 . S
C1706 C1705 1.374 . S
C1707 C1704 1.499 . S
C1707 C1708 1.373 . S
C1707 C1709 1.389 . S
C1708 H1681 0.950 . S
C1708 C1694 1.377 . S
C1708 C1707 1.373 . S
C1709 C1693 1.389 . S
C1709 C1707 1.389 . S
C1709 C1710 1.503 . S
C1710 C1709 1.503 . S
C1710 C1711 1.452 . S
C1710 C1715 1.333 1_455 S
C1711 H1682 0.950 . S
C1711 C1710 1.452 . S
C1711 C1712 1.334 . S
C1712 H1683 0.950 . S
C1712 C1711 1.334 . S
C1712 C1713 1.287 . S
C1713 C1712 1.287 . S
C1713 C1714 1.524 1_455 S
C1713 H1716 0.999 . S
C1714 H1684 0.950 . S
C1714 C1713 1.524 1_655 S
C1714 C1715 1.415 . S
C1715 H1685 0.950 . S
C1715 C1710 1.333 1_655 S
C1715 C1714 1.415 . S
H1716 C1713 0.999 . S
H1717 C1698 0.913 . S
H1718 C1736 0.951 . S
H1719 C1738 0.951 . S
H1720 C1740 0.950 . S
H1721 C1741 0.950 . S
H1722 C1743 0.950 . S
H1723 C1746 0.950 . S
H1724 C1747 0.950 1_554 S
H1725 C1749 0.950 . S
H1726 C1750 0.950 . S
H1727 C1751 0.951 . S
H1728 C1753 0.951 . S
H1729 C1755 0.950 . S
H1730 C1756 0.950 . S
H1731 C1758 0.950 . S
H1732 C1761 0.950 . S
H1733 C1762 0.950 . S
H1734 C1764 0.950 . S
H1735 C1765 0.950 . S
C1736 H1718 0.951 . S
C1736 C1737 1.366 . S
C1736 C1738 1.388 . S
C1737 C1736 1.366 . S
C1737 C1741 1.385 . S
C1738 H1719 0.951 . S
C1738 C1736 1.388 . S
C1738 C1739 1.366 . S
C1739 C1738 1.366 . S
C1739 C1740 1.414 . S
C1739 C1742 1.499 . S
C1740 H1720 0.950 . S
C1740 C1739 1.414 . S
C1740 C1741 1.374 . S
C1741 H1721 0.950 . S
C1741 C1737 1.385 . S
C1741 C1740 1.374 . S
C1742 C1739 1.499 . S
C1742 C1743 1.373 . S
C1742 C1744 1.389 . S
C1743 H1722 0.950 . S
C1743 C1742 1.373 . S
C1743 C1759 1.377 . S
C1744 C1742 1.389 . S
C1744 C1745 1.524 . S
C1744 C1758 1.377 . S
C1745 C1744 1.524 . S
C1745 C1746 1.397 . S
C1745 C1750 1.363 . S
C1746 H1723 0.950 . S
C1746 C1745 1.397 . S
C1746 C1747 1.334 . S
C1747 H1724 0.950 1_556 S
C1747 C1746 1.334 . S
C1747 C1748 1.287 . S
C1748 C1747 1.287 . S
C1748 C1749 1.524 . S
C1748 H1767 0.913 . S
C1749 H1725 0.950 . S
C1749 C1748 1.524 . S
C1749 C1750 1.415 . S
C1750 H1726 0.950 . S
C1750 C1745 1.363 . S
C1750 C1749 1.415 . S
C1751 H1727 0.951 . S
C1751 C1752 1.366 . S
C1751 C1753 1.388 . S
C1752 C1751 1.366 . S
C1752 C1756 1.385 . S
C1753 H1728 0.951 . S
C1753 C1751 1.388 . S
C1753 C1754 1.366 . S
C1754 C1753 1.366 . S
C1754 C1755 1.414 . S
C1754 C1757 1.499 . S
C1755 H1729 0.950 . S
C1755 C1754 1.414 . S
C1755 C1756 1.374 . S
C1756 H1730 0.950 . S
C1756 C1752 1.385 . S
C1756 C1755 1.374 . S
C1757 C1754 1.499 . S
C1757 C1758 1.373 . S
C1757 C1759 1.389 . S
C1758 H1731 0.950 . S
C1758 C1744 1.377 . S
C1758 C1757 1.373 . S
C1759 C1743 1.377 . S
C1759 C1757 1.389 . S
C1759 C1760 1.524 . S
C1760 C1759 1.524 . S
C1760 C1761 1.397 . S
C1760 C1765 1.363 . S
C1761 H1732 0.950 . S
C1761 C1760 1.397 . S
C1761 C1762 1.334 . S
C1762 H1733 0.950 . S
C1762 C1761 1.334 . S
C1762 C1763 1.287 . S
C1763 C1762 1.287 . S
C1763 C1764 1.524 . S
C1763 H1766 0.999 . S
C1764 H1734 0.950 . S
C1764 C1763 1.524 . S
C1764 C1765 1.415 . S
C1765 H1735 0.950 . S
C1765 C1760 1.363 . S
C1765 C1764 1.415 . S
H1766 C1763 0.999 . S
H1767 C1748 0.913 . S
H1768 C1786 0.951 . S
H1769 C1788 0.951 . S
H1770 C1790 0.950 . S
H1771 C1791 0.950 . S
H1772 C1793 0.950 . S
H1773 C1796 0.950 . S
H1774 C1797 0.950 . S
H1775 C1799 0.950 . S
H1776 C1800 0.950 . S
H1777 C1801 0.951 . S
H1778 C1803 0.951 . S
H1779 C1805 0.932 1_565 S
H1780 C1806 0.942 1_565 S
H1781 C1808 0.950 . S
H1782 C1811 0.950 . S
H1783 C1812 0.950 . S
H1784 C1814 0.950 . S
H1785 C1815 0.950 . S
C1786 H1768 0.951 . S
C1786 C1787 1.366 . S
C1786 C1788 1.388 . S
C1787 C1786 1.366 . S
C1787 C1791 1.385 . S
C1788 H1769 0.951 . S
C1788 C1786 1.388 . S
C1788 C1789 1.366 . S
C1789 C1788 1.366 . S
C1789 C1790 1.414 . S
C1789 C1792 1.499 . S
C1790 H1770 0.950 . S
C1790 C1789 1.414 . S
C1790 C1791 1.374 . S
C1791 H1771 0.950 . S
C1791 C1787 1.385 . S
C1791 C1790 1.374 . S
C1792 C1789 1.499 . S
C1792 C1793 1.373 1_545 S
C1792 C1794 1.389 . S
C1793 H1772 0.950 . S
C1793 C1792 1.373 1_565 S
C1793 C1809 1.377 . S
C1794 C1792 1.389 . S
C1794 C1795 1.524 . S
C1794 C1808 1.377 . S
C1795 C1794 1.524 . S
C1795 C1796 1.397 . S
C1795 C1800 1.363 . S
C1796 H1773 0.950 . S
C1796 C1795 1.397 . S
C1796 C1797 1.334 . S
C1797 H1774 0.950 . S
C1797 C1796 1.334 . S
C1797 C1798 1.287 . S
C1798 C1797 1.287 . S
C1798 C1799 1.524 . S
C1798 H1817 0.913 . S
C1799 H1775 0.950 . S
C1799 C1798 1.524 . S
C1799 C1800 1.415 . S
C1800 H1776 0.950 . S
C1800 C1795 1.363 . S
C1800 C1799 1.415 . S
C1801 H1777 0.951 . S
C1801 C1802 1.366 . S
C1801 C1803 1.388 . S
C1802 C1801 1.366 . S
C1802 C1806 1.408 . S
C1803 H1778 0.951 . S
C1803 C1801 1.388 . S
C1803 C1804 1.366 . S
C1804 C1803 1.366 . S
C1804 C1805 1.421 . S
C1804 C1807 1.499 . S
C1805 H1779 0.932 1_545 S
C1805 C1804 1.421 . S
C1805 C1806 1.375 . S
C1806 H1780 0.942 1_545 S
C1806 C1802 1.408 . S
C1806 C1805 1.375 . S
C1807 C1804 1.499 . S
C1807 C1808 1.373 . S
C1807 C1809 1.389 1_545 S
C1808 H1781 0.950 . S
C1808 C1794 1.377 . S
C1808 C1807 1.373 . S
C1809 C1793 1.377 . S
C1809 C1807 1.389 1_565 S
C1809 C1810 1.524 . S
C1810 C1809 1.524 . S
C1810 C1811 1.397 . S
C1810 C1815 1.363 . S
C1811 H1782 0.950 . S
C1811 C1810 1.397 . S
C1811 C1812 1.334 . S
C1812 H1783 0.950 . S
C1812 C1811 1.334 . S
C1812 C1813 1.287 . S
C1813 C1812 1.287 . S
C1813 C1814 1.524 . S
C1813 H1816 0.999 . S
C1814 H1784 0.950 . S
C1814 C1813 1.524 . S
C1814 C1815 1.415 . S
C1815 H1785 0.950 . S
C1815 C1810 1.363 . S
C1815 C1814 1.415 . S
H1816 C1813 0.999 . S
H1817 C1798 0.913 . S
H1818 C1836 0.951 . S
H1819 C1838 0.951 . S
H1820 C1840 0.950 . S
H1821 C1841 0.950 . S
H1822 C1843 0.950 . S
H1823 C1846 0.950 . S
H1824 C1847 0.950 . S
H1825 C1849 0.950 . S
H1826 C1850 0.950 . S
H1827 C1851 0.951 . S
H1828 C1853 0.951 . S
H1829 C1855 0.950 . S
H1830 C1856 0.950 . S
H1831 C1858 0.950 . S
H1832 C1861 0.950 . S
H1833 C1862 0.950 . S
H1834 C1864 0.950 1_565 S
H1835 C1865 0.950 . S
C1836 H1818 0.951 . S
C1836 C1837 1.366 . S
C1836 C1838 1.388 . S
C1837 C1836 1.366 . S
C1837 C1841 1.385 1_545 S
C1838 H1819 0.951 . S
C1838 C1836 1.388 . S
C1838 C1839 1.366 . S
C1839 C1838 1.366 . S
C1839 C1840 1.414 1_545 S
C1839 C1842 1.499 . S
C1840 H1820 0.950 . S
C1840 C1839 1.414 1_565 S
C1840 C1841 1.374 . S
C1841 H1821 0.950 . S
C1841 C1837 1.385 1_565 S
C1841 C1840 1.374 . S
C1842 C1839 1.499 . S
C1842 C1843 1.373 . S
C1842 C1844 1.389 . S
C1843 H1822 0.950 . S
C1843 C1842 1.373 . S
C1843 C1859 1.377 . S
C1844 C1842 1.389 . S
C1844 C1845 1.512 1_545 S
C1844 C1858 1.377 . S
C1845 C1844 1.512 1_565 S
C1845 C1846 1.417 . S
C1845 C1850 1.355 1_565 S
C1846 H1823 0.950 . S
C1846 C1845 1.417 . S
C1846 C1847 1.334 . S
C1847 H1824 0.950 . S
C1847 C1846 1.334 . S
C1847 C1848 1.287 . S
C1848 C1847 1.287 . S
C1848 C1849 1.524 1_565 S
C1848 H1867 0.913 . S
C1849 H1825 0.950 . S
C1849 C1848 1.524 1_545 S
C1849 C1850 1.415 . S
C1850 H1826 0.950 . S
C1850 C1845 1.355 1_545 S
C1850 C1849 1.415 . S
C1851 H1827 0.951 . S
C1851 C1852 1.366 1_565 S
C1851 C1853 1.388 . S
C1852 C1851 1.366 1_545 S
C1852 C1856 1.385 . S
C1853 H1828 0.951 . S
C1853 C1851 1.388 . S
C1853 C1854 1.366 1_565 S
C1854 C1853 1.366 1_545 S
C1854 C1855 1.414 . S
C1854 C1857 1.499 . S
C1855 H1829 0.950 . S
C1855 C1854 1.414 . S
C1855 C1856 1.374 . S
C1856 H1830 0.950 . S
C1856 C1852 1.385 . S
C1856 C1855 1.374 . S
C1857 C1854 1.499 . S
C1857 C1858 1.373 . S
C1857 C1859 1.389 . S
C1858 H1831 0.950 . S
C1858 C1844 1.377 . S
C1858 C1857 1.373 . S
C1859 C1843 1.377 . S
C1859 C1857 1.389 . S
C1859 C1860 1.524 . S
C1860 C1859 1.524 . S
C1860 C1861 1.397 . S
C1860 C1865 1.363 1_545 S
C1861 H1832 0.950 . S
C1861 C1860 1.397 . S
C1861 C1862 1.334 . S
C1862 H1833 0.950 . S
C1862 C1861 1.334 . S
C1862 C1863 1.287 . S
C1863 C1862 1.287 . S
C1863 C1864 1.523 . S
C1863 H1866 0.999 . S
C1864 H1834 0.950 1_545 S
C1864 C1863 1.523 . S
C1864 C1865 1.415 1_545 S
C1865 H1835 0.950 . S
C1865 C1860 1.363 1_565 S
C1865 C1864 1.415 1_565 S
H1866 C1863 0.999 . S
H1867 C1848 0.913 . S
H1868 C1886 0.951 . S
H1869 C1888 0.951 . S
H1870 C1890 0.950 . S
H1871 C1891 0.950 . S
H1872 C1893 0.950 . S
H1873 C1896 0.950 . S
H1874 C1897 0.950 . S
H1875 C1899 0.950 . S
H1876 C1900 0.950 . S
H1877 C1901 0.951 . S
H1878 C1903 0.951 . S
H1879 C1905 0.950 . S
H1880 C1906 0.950 . S
H1881 C1908 0.950 . S
H1882 C1911 0.950 . S
H1883 C1912 0.950 . S
H1884 C1914 0.950 . S
H1885 C1915 0.950 . S
C1886 H1868 0.951 . S
C1886 C1887 1.366 . S
C1886 C1888 1.388 . S
C1887 C1886 1.366 . S
C1887 C1891 1.385 1_455 S
C1888 H1869 0.951 . S
C1888 C1886 1.388 . S
C1888 C1889 1.366 . S
C1889 C1888 1.366 . S
C1889 C1890 1.414 1_455 S
C1889 C1892 1.499 . S
C1890 H1870 0.950 . S
C1890 C1889 1.414 1_655 S
C1890 C1891 1.374 . S
C1891 H1871 0.950 . S
C1891 C1887 1.385 1_655 S
C1891 C1890 1.374 . S
C1892 C1889 1.499 . S
C1892 C1893 1.373 . S
C1892 C1894 1.389 . S
C1893 H1872 0.950 . S
C1893 C1892 1.373 . S
C1893 C1909 1.377 . S
C1894 C1892 1.389 . S
C1894 C1895 1.524 . S
C1894 C1908 1.377 . S
C1895 C1894 1.524 . S
C1895 C1896 1.397 1_455 S
C1895 C1900 1.363 . S
C1896 H1873 0.950 . S
C1896 C1895 1.397 1_655 S
C1896 C1897 1.334 . S
C1897 H1874 0.950 . S
C1897 C1896 1.334 . S
C1897 C1898 1.287 . S
C1898 C1897 1.287 . S
C1898 C1899 1.524 1_655 S
C1898 H1917 0.913 . S
C1899 H1875 0.950 . S
C1899 C1898 1.524 1_455 S
C1899 C1900 1.415 . S
C1900 H1876 0.950 . S
C1900 C1895 1.363 . S
C1900 C1899 1.415 . S
C1901 H1877 0.951 . S
C1901 C1902 1.366 1_655 S
C1901 C1903 1.388 . S
C1902 C1901 1.366 1_455 S
C1902 C1906 1.385 . S
C1903 H1878 0.951 . S
C1903 C1901 1.388 . S
C1903 C1904 1.366 1_655 S
C1904 C1903 1.366 1_455 S
C1904 C1905 1.414 . S
C1904 C1907 1.499 . S
C1905 H1879 0.950 . S
C1905 C1904 1.414 . S
C1905 C1906 1.374 . S
C1906 H1880 0.950 . S
C1906 C1902 1.385 . S
C1906 C1905 1.374 . S
C1907 C1904 1.499 . S
C1907 C1908 1.373 . S
C1907 C1909 1.389 . S
C1908 H1881 0.950 . S
C1908 C1894 1.377 . S
C1908 C1907 1.373 . S
C1909 C1893 1.377 . S
C1909 C1907 1.389 . S
C1909 C1910 1.524 . S
C1910 C1909 1.524 . S
C1910 C1911 1.397 . S
C1910 C1915 1.363 1_455 S
C1911 H1882 0.950 . S
C1911 C1910 1.397 . S
C1911 C1912 1.334 . S
C1912 H1883 0.950 . S
C1912 C1911 1.334 . S
C1912 C1913 1.287 . S
C1913 C1912 1.287 . S
C1913 C1914 1.524 1_455 S
C1913 H1916 0.999 . S
C1914 H1884 0.950 . S
C1914 C1913 1.524 1_655 S
C1914 C1915 1.415 . S
C1915 H1885 0.950 . S
C1915 C1910 1.363 1_655 S
C1915 C1914 1.415 . S
H1916 C1913 0.999 . S
H1917 C1898 0.913 . S
H1918 C1936 0.951 . S
H1919 C1938 0.951 . S
H1920 C1940 0.950 . S
H1921 C1941 0.950 . S
H1922 C1943 0.950 . S
H1923 C1946 0.950 . S
H1924 C1947 0.950 . S
H1925 C1949 0.950 . S
H1926 C1950 0.950 . S
H1927 C1951 0.951 . S
H1928 C1953 0.951 . S
H1929 C1955 0.950 . S
H1930 C1956 0.950 . S
H1931 C1958 0.950 . S
H1932 C1961 0.950 . S
H1933 C1962 0.950 . S
H1934 C1964 0.950 . S
H1935 C1965 0.950 . S
C1936 H1918 0.951 . S
C1936 C1937 1.366 . S
C1936 C1938 1.388 . S
C1937 C1936 1.366 . S
C1937 C1941 1.385 . S
C1938 H1919 0.951 . S
C1938 C1936 1.388 . S
C1938 C1939 1.366 . S
C1939 C1938 1.366 . S
C1939 C1940 1.414 . S
C1939 C1942 1.499 . S
C1940 H1920 0.950 . S
C1940 C1939 1.414 . S
C1940 C1941 1.374 . S
C1941 H1921 0.950 . S
C1941 C1937 1.385 . S
C1941 C1940 1.374 . S
C1942 C1939 1.499 . S
C1942 C1943 1.373 . S
C1942 C1944 1.389 . S
C1943 H1922 0.950 . S
C1943 C1942 1.373 . S
C1943 C1959 1.377 . S
C1944 C1942 1.389 . S
C1944 C1945 1.524 . S
C1944 C1958 1.377 . S
C1945 C1944 1.524 . S
C1945 C1946 1.397 . S
C1945 C1950 1.363 . S
C1946 H1923 0.950 . S
C1946 C1945 1.397 . S
C1946 C1947 1.334 . S
C1947 H1924 0.950 . S
C1947 C1946 1.334 . S
C1947 C1948 1.287 . S
C1948 C1947 1.287 . S
C1948 C1949 1.524 . S
C1948 H1967 0.913 . S
C1949 H1925 0.950 . S
C1949 C1948 1.524 . S
C1949 C1950 1.415 . S
C1950 H1926 0.950 . S
C1950 C1945 1.363 . S
C1950 C1949 1.415 . S
C1951 H1927 0.951 . S
C1951 C1952 1.366 . S
C1951 C1953 1.388 . S
C1952 C1951 1.366 . S
C1952 C1956 1.385 . S
C1953 H1928 0.951 . S
C1953 C1951 1.388 . S
C1953 C1954 1.366 . S
C1954 C1953 1.366 . S
C1954 C1955 1.414 . S
C1954 C1957 1.499 . S
C1955 H1929 0.950 . S
C1955 C1954 1.414 . S
C1955 C1956 1.374 . S
C1956 H1930 0.950 . S
C1956 C1952 1.385 . S
C1956 C1955 1.374 . S
C1957 C1954 1.499 . S
C1957 C1958 1.373 . S
C1957 C1959 1.389 . S
C1958 H1931 0.950 . S
C1958 C1944 1.377 . S
C1958 C1957 1.373 . S
C1959 C1943 1.377 . S
C1959 C1957 1.389 . S
C1959 C1960 1.524 . S
C1960 C1959 1.524 . S
C1960 C1961 1.397 . S
C1960 C1965 1.363 . S
C1961 H1932 0.950 . S
C1961 C1960 1.397 . S
C1961 C1962 1.334 . S
C1962 H1933 0.950 . S
C1962 C1961 1.334 . S
C1962 C1963 1.287 . S
C1963 C1962 1.287 . S
C1963 C1964 1.524 . S
C1963 H1966 0.999 . S
C1964 H1934 0.950 . S
C1964 C1963 1.524 . S
C1964 C1965 1.415 . S
C1965 H1935 0.950 . S
C1965 C1960 1.363 . S
C1965 C1964 1.415 . S
H1966 C1963 0.999 . S
H1967 C1948 0.913 . S
H1968 C1986 0.951 . S
H1969 C1988 0.951 . S
H1970 C1990 0.950 . S
H1971 C1991 0.950 . S
H1972 C1993 0.950 . S
H1973 C1996 0.950 . S
H1974 C1997 0.950 . S
H1975 C1999 0.950 . S
H1976 C2000 0.950 . S
H1977 C2001 0.951 . S
H1978 C2003 0.951 . S
H1979 C2005 0.950 . S
H1980 C2006 0.950 . S
H1981 C2008 0.950 . S
H1982 C2011 0.950 . S
H1983 C2012 0.950 . S
H1984 C2014 0.950 . S
H1985 C2015 0.950 . S
C1986 H1968 0.951 . S
C1986 C1987 1.366 . S
C1986 C1988 1.388 . S
C1987 C1986 1.366 . S
C1987 C1991 1.385 . S
C1988 H1969 0.951 . S
C1988 C1986 1.388 . S
C1988 C1989 1.366 . S
C1989 C1988 1.366 . S
C1989 C1990 1.414 . S
C1989 C1992 1.499 . S
C1990 H1970 0.950 . S
C1990 C1989 1.414 . S
C1990 C1991 1.374 . S
C1991 H1971 0.950 . S
C1991 C1987 1.385 . S
C1991 C1990 1.374 . S
C1992 C1989 1.499 . S
C1992 C1993 1.373 . S
C1992 C1994 1.389 . S
C1993 H1972 0.950 . S
C1993 C1992 1.373 . S
C1993 C2009 1.377 . S
C1994 C1992 1.389 . S
C1994 C1995 1.524 . S
C1994 C2008 1.377 . S
C1995 C1994 1.524 . S
C1995 C1996 1.397 . S
C1995 C2000 1.363 . S
C1996 H1973 0.950 . S
C1996 C1995 1.397 . S
C1996 C1997 1.334 . S
C1997 H1974 0.950 . S
C1997 C1996 1.334 . S
C1997 C1998 1.287 . S
C1998 C1997 1.287 . S
C1998 C1999 1.524 . S
C1998 H2017 0.913 . S
C1999 H1975 0.950 . S
C1999 C1998 1.524 . S
C1999 C2000 1.415 . S
C2000 H1976 0.950 . S
C2000 C1995 1.363 . S
C2000 C1999 1.415 . S
C2001 H1977 0.951 . S
C2001 C2002 1.366 . S
C2001 C2003 1.388 . S
C2002 C2001 1.366 . S
C2002 C2006 1.385 . S
C2003 H1978 0.951 . S
C2003 C2001 1.388 . S
C2003 C2004 1.366 . S
C2004 C2003 1.366 . S
C2004 C2005 1.414 . S
C2004 C2007 1.499 . S
C2005 H1979 0.950 . S
C2005 C2004 1.414 . S
C2005 C2006 1.374 . S
C2006 H1980 0.950 . S
C2006 C2002 1.385 . S
C2006 C2005 1.374 . S
C2007 C2004 1.499 . S
C2007 C2008 1.373 . S
C2007 C2009 1.389 . S
C2008 H1981 0.950 . S
C2008 C1994 1.377 . S
C2008 C2007 1.373 . S
C2009 C1993 1.377 . S
C2009 C2007 1.389 . S
C2009 C2010 1.524 . S
C2010 C2009 1.524 . S
C2010 C2011 1.397 . S
C2010 C2015 1.363 . S
C2011 H1982 0.950 . S
C2011 C2010 1.397 . S
C2011 C2012 1.334 . S
C2012 H1983 0.950 . S
C2012 C2011 1.334 . S
C2012 C2013 1.287 . S
C2013 C2012 1.287 . S
C2013 C2014 1.524 . S
C2013 H2016 0.999 . S
C2014 H1984 0.950 . S
C2014 C2013 1.524 . S
C2014 C2015 1.415 . S
C2015 H1985 0.950 . S
C2015 C2010 1.363 . S
C2015 C2014 1.415 . S
H2016 C2013 0.999 . S
H2017 C1998 0.913 . S
H2018 C2036 0.951 . S
H2019 C2038 0.951 . S
H2020 C2040 0.950 . S
H2021 C2041 0.950 . S
H2022 C2043 0.950 . S
H2023 C2046 0.950 . S
H2024 C2047 0.950 . S
H2025 C2049 0.950 . S
H2026 C2050 0.950 . S
H2027 C2051 0.951 . S
H2028 C2053 0.951 . S
H2029 C2055 0.950 . S
H2030 C2056 0.950 . S
H2031 C2058 0.950 . S
H2032 C2061 0.950 . S
H2033 C2062 0.950 . S
H2034 C2064 0.950 . S
H2035 C2065 0.950 . S
C2036 H2018 0.951 . S
C2036 C2037 1.366 . S
C2036 C2038 1.388 . S
C2037 C2036 1.366 . S
C2037 C2041 1.385 . S
C2038 H2019 0.951 . S
C2038 C2036 1.388 . S
C2038 C2039 1.366 . S
C2039 C2038 1.366 . S
C2039 C2040 1.414 . S
C2039 C2042 1.499 . S
C2040 H2020 0.950 . S
C2040 C2039 1.414 . S
C2040 C2041 1.374 . S
C2041 H2021 0.950 . S
C2041 C2037 1.385 . S
C2041 C2040 1.374 . S
C2042 C2039 1.499 . S
C2042 C2043 1.373 . S
C2042 C2044 1.389 . S
C2043 H2022 0.950 . S
C2043 C2042 1.373 . S
C2043 C2059 1.377 . S
C2044 C2042 1.389 . S
C2044 C2045 1.524 . S
C2044 C2058 1.377 . S
C2045 C2044 1.524 . S
C2045 C2046 1.397 . S
C2045 C2050 1.363 . S
C2046 H2023 0.950 . S
C2046 C2045 1.397 . S
C2046 C2047 1.334 . S
C2047 H2024 0.950 . S
C2047 C2046 1.334 . S
C2047 C2048 1.287 . S
C2048 C2047 1.287 . S
C2048 C2049 1.524 . S
C2048 H2067 0.913 . S
C2049 H2025 0.950 . S
C2049 C2048 1.524 . S
C2049 C2050 1.415 . S
C2050 H2026 0.950 . S
C2050 C2045 1.363 . S
C2050 C2049 1.415 . S
C2051 H2027 0.951 . S
C2051 C2052 1.366 . S
C2051 C2053 1.388 . S
C2052 C2051 1.366 . S
C2052 C2056 1.385 . S
C2053 H2028 0.951 . S
C2053 C2051 1.388 . S
C2053 C2054 1.366 . S
C2054 C2053 1.366 . S
C2054 C2055 1.414 . S
C2054 C2057 1.499 . S
C2055 H2029 0.950 . S
C2055 C2054 1.414 . S
C2055 C2056 1.374 . S
C2056 H2030 0.950 . S
C2056 C2052 1.385 . S
C2056 C2055 1.374 . S
C2057 C2054 1.499 . S
C2057 C2058 1.373 . S
C2057 C2059 1.389 . S
C2058 H2031 0.950 . S
C2058 C2044 1.377 . S
C2058 C2057 1.373 . S
C2059 C2043 1.377 . S
C2059 C2057 1.389 . S
C2059 C2060 1.524 . S
C2060 C2059 1.524 . S
C2060 C2061 1.397 . S
C2060 C2065 1.363 . S
C2061 H2032 0.950 . S
C2061 C2060 1.397 . S
C2061 C2062 1.334 . S
C2062 H2033 0.950 . S
C2062 C2061 1.334 . S
C2062 C2063 1.287 . S
C2063 C2062 1.287 . S
C2063 C2064 1.524 . S
C2063 H2066 0.999 . S
C2064 H2034 0.950 . S
C2064 C2063 1.524 . S
C2064 C2065 1.415 . S
C2065 H2035 0.950 . S
C2065 C2060 1.363 . S
C2065 C2064 1.415 . S
H2066 C2063 0.999 . S
H2067 C2048 0.913 . S
H2068 C2086 0.951 . S
H2069 C2088 0.951 . S
H2070 C2090 0.950 . S
H2071 C2091 0.950 . S
H2072 C2093 0.950 . S
H2073 C2096 0.950 . S
H2074 C2097 0.950 . S
H2075 C2099 0.950 . S
H2076 C2100 0.950 . S
H2077 C2101 0.951 . S
H2078 C2103 0.951 . S
H2079 C2105 0.950 . S
H2080 C2106 0.950 . S
H2081 C2108 0.950 . S
H2082 C2111 0.950 . S
H2083 C2112 0.950 . S
H2084 C2114 0.950 . S
H2085 C2115 0.950 . S
C2086 H2068 0.951 . S
C2086 C2087 1.366 . S
C2086 C2088 1.388 . S
C2087 C2086 1.366 . S
C2087 C2091 1.385 . S
C2088 H2069 0.951 . S
C2088 C2086 1.388 . S
C2088 C2089 1.366 . S
C2089 C2088 1.366 . S
C2089 C2090 1.414 . S
C2089 C2092 1.499 . S
C2090 H2070 0.950 . S
C2090 C2089 1.414 . S
C2090 C2091 1.374 . S
C2091 H2071 0.950 . S
C2091 C2087 1.385 . S
C2091 C2090 1.374 . S
C2092 C2089 1.499 . S
C2092 C2093 1.373 . S
C2092 C2094 1.389 . S
C2093 H2072 0.950 . S
C2093 C2092 1.373 . S
C2093 C2109 1.377 . S
C2094 C2092 1.389 . S
C2094 C2095 1.524 . S
C2094 C2108 1.377 . S
C2095 C2094 1.524 . S
C2095 C2096 1.397 . S
C2095 C2100 1.363 . S
C2096 H2073 0.950 . S
C2096 C2095 1.397 . S
C2096 C2097 1.334 . S
C2097 H2074 0.950 . S
C2097 C2096 1.334 . S
C2097 C2098 1.287 . S
C2098 C2097 1.287 . S
C2098 C2099 1.524 . S
C2098 H2117 0.913 . S
C2099 H2075 0.950 . S
C2099 C2098 1.524 . S
C2099 C2100 1.415 . S
C2100 H2076 0.950 . S
C2100 C2095 1.363 . S
C2100 C2099 1.415 . S
C2101 H2077 0.951 . S
C2101 C2102 1.366 . S
C2101 C2103 1.388 . S
C2102 C2101 1.366 . S
C2102 C2106 1.385 . S
C2103 H2078 0.951 . S
C2103 C2101 1.388 . S
C2103 C2104 1.366 . S
C2104 C2103 1.366 . S
C2104 C2105 1.414 . S
C2104 C2107 1.499 . S
C2105 H2079 0.950 . S
C2105 C2104 1.414 . S
C2105 C2106 1.374 . S
C2106 H2080 0.950 . S
C2106 C2102 1.385 . S
C2106 C2105 1.374 . S
C2107 C2104 1.499 . S
C2107 C2108 1.373 . S
C2107 C2109 1.389 . S
C2108 H2081 0.950 . S
C2108 C2094 1.377 . S
C2108 C2107 1.373 . S
C2109 C2093 1.377 . S
C2109 C2107 1.389 . S
C2109 C2110 1.524 . S
C2110 C2109 1.524 . S
C2110 C2111 1.397 . S
C2110 C2115 1.363 . S
C2111 H2082 0.950 . S
C2111 C2110 1.397 . S
C2111 C2112 1.334 . S
C2112 H2083 0.950 . S
C2112 C2111 1.334 . S
C2112 C2113 1.287 . S
C2113 C2112 1.287 . S
C2113 C2114 1.524 . S
C2113 H2116 0.999 . S
C2114 H2084 0.950 . S
C2114 C2113 1.524 . S
C2114 C2115 1.415 . S
C2115 H2085 0.950 . S
C2115 C2110 1.363 . S
C2115 C2114 1.415 . S
H2116 C2113 0.999 . S
H2117 C2098 0.913 . S
H2118 C2136 0.951 . S
H2119 C2138 0.951 . S
H2120 C2140 0.950 . S
H2121 C2141 0.950 . S
H2122 C2143 0.950 . S
H2123 C2146 0.950 . S
H2124 C2147 0.950 . S
H2125 C2149 0.950 . S
H2126 C2150 0.950 . S
H2127 C2151 0.951 . S
H2128 C2153 0.951 . S
H2129 C2155 0.950 . S
H2130 C2156 0.950 . S
H2131 C2158 0.950 . S
H2132 C2161 0.950 . S
H2133 C2162 0.950 . S
H2134 C2164 0.950 . S
H2135 C2165 0.950 . S
C2136 H2118 0.951 . S
C2136 C2137 1.366 . S
C2136 C2138 1.388 . S
C2137 C2136 1.366 . S
C2137 C2141 1.385 . S
C2138 H2119 0.951 . S
C2138 C2136 1.388 . S
C2138 C2139 1.366 . S
C2139 C2138 1.366 . S
C2139 C2140 1.414 . S
C2139 C2142 1.499 . S
C2140 H2120 0.950 . S
C2140 C2139 1.414 . S
C2140 C2141 1.374 . S
C2141 H2121 0.950 . S
C2141 C2137 1.385 . S
C2141 C2140 1.374 . S
C2142 C2139 1.499 . S
C2142 C2143 1.373 . S
C2142 C2144 1.389 . S
C2143 H2122 0.950 . S
C2143 C2142 1.373 . S
C2143 C2159 1.377 . S
C2144 C2142 1.389 . S
C2144 C2145 1.524 . S
C2144 C2158 1.377 . S
C2145 C2144 1.524 . S
C2145 C2146 1.397 . S
C2145 C2150 1.363 . S
C2146 H2123 0.950 . S
C2146 C2145 1.397 . S
C2146 C2147 1.334 . S
C2147 H2124 0.950 . S
C2147 C2146 1.334 . S
C2147 C2148 1.287 . S
C2148 C2147 1.287 . S
C2148 C2149 1.524 . S
C2148 H2167 0.913 . S
C2149 H2125 0.950 . S
C2149 C2148 1.524 . S
C2149 C2150 1.415 . S
C2150 H2126 0.950 . S
C2150 C2145 1.363 . S
C2150 C2149 1.415 . S
C2151 H2127 0.951 . S
C2151 C2152 1.366 . S
C2151 C2153 1.388 . S
C2152 C2151 1.366 . S
C2152 C2156 1.385 . S
C2153 H2128 0.951 . S
C2153 C2151 1.388 . S
C2153 C2154 1.366 . S
C2154 C2153 1.366 . S
C2154 C2155 1.414 . S
C2154 C2157 1.499 . S
C2155 H2129 0.950 . S
C2155 C2154 1.414 . S
C2155 C2156 1.374 . S
C2156 H2130 0.950 . S
C2156 C2152 1.385 . S
C2156 C2155 1.374 . S
C2157 C2154 1.499 . S
C2157 C2158 1.373 . S
C2157 C2159 1.389 . S
C2158 H2131 0.950 . S
C2158 C2144 1.377 . S
C2158 C2157 1.373 . S
C2159 C2143 1.377 . S
C2159 C2157 1.389 . S
C2159 C2160 1.524 . S
C2160 C2159 1.524 . S
C2160 C2161 1.397 . S
C2160 C2165 1.363 . S
C2161 H2132 0.950 . S
C2161 C2160 1.397 . S
C2161 C2162 1.334 . S
C2162 H2133 0.950 . S
C2162 C2161 1.334 . S
C2162 C2163 1.287 . S
C2163 C2162 1.287 . S
C2163 C2164 1.524 . S
C2163 H2166 0.999 . S
C2164 H2134 0.950 . S
C2164 C2163 1.524 . S
C2164 C2165 1.415 . S
C2165 H2135 0.950 . S
C2165 C2160 1.363 . S
C2165 C2164 1.415 . S
H2166 C2163 0.999 . S
H2167 C2148 0.913 . S
H2168 C2186 0.951 . S
H2169 C2188 0.951 . S
H2170 C2190 0.950 . S
H2171 C2191 0.950 . S
H2172 C2193 0.950 . S
H2173 C2196 0.950 . S
H2174 C2197 0.950 . S
H2175 C2199 0.950 . S
H2176 C2200 0.950 . S
H2177 C2201 0.951 . S
H2178 C2203 0.951 . S
H2179 C2205 0.950 . S
H2180 C2206 0.950 . S
H2181 C2208 0.950 . S
H2182 C2211 0.950 . S
H2183 C2212 0.950 . S
H2184 C2214 0.950 . S
H2185 C2215 0.950 . S
C2186 H2168 0.951 . S
C2186 C2187 1.366 . S
C2186 C2188 1.388 . S
C2187 C2186 1.366 . S
C2187 C2191 1.385 . S
C2188 H2169 0.951 . S
C2188 C2186 1.388 . S
C2188 C2189 1.366 . S
C2189 C2188 1.366 . S
C2189 C2190 1.414 . S
C2189 C2192 1.499 . S
C2190 H2170 0.950 . S
C2190 C2189 1.414 . S
C2190 C2191 1.374 . S
C2191 H2171 0.950 . S
C2191 C2187 1.385 . S
C2191 C2190 1.374 . S
C2192 C2189 1.499 . S
C2192 C2193 1.373 . S
C2192 C2194 1.389 . S
C2193 H2172 0.950 . S
C2193 C2192 1.373 . S
C2193 C2209 1.377 . S
C2194 C2192 1.389 . S
C2194 C2195 1.524 . S
C2194 C2208 1.377 . S
C2195 C2194 1.524 . S
C2195 C2196 1.397 . S
C2195 C2200 1.363 . S
C2196 H2173 0.950 . S
C2196 C2195 1.397 . S
C2196 C2197 1.334 . S
C2197 H2174 0.950 . S
C2197 C2196 1.334 . S
C2197 C2198 1.287 . S
C2198 C2197 1.287 . S
C2198 C2199 1.524 . S
C2198 H2217 0.913 . S
C2199 H2175 0.950 . S
C2199 C2198 1.524 . S
C2199 C2200 1.415 . S
C2200 H2176 0.950 . S
C2200 C2195 1.363 . S
C2200 C2199 1.415 . S
C2201 H2177 0.951 . S
C2201 C2202 1.366 . S
C2201 C2203 1.388 . S
C2202 C2201 1.366 . S
C2202 C2206 1.385 . S
C2203 H2178 0.951 . S
C2203 C2201 1.388 . S
C2203 C2204 1.366 . S
C2204 C2203 1.366 . S
C2204 C2205 1.414 . S
C2204 C2207 1.499 . S
C2205 H2179 0.950 . S
C2205 C2204 1.414 . S
C2205 C2206 1.374 . S
C2206 H2180 0.950 . S
C2206 C2202 1.385 . S
C2206 C2205 1.374 . S
C2207 C2204 1.499 . S
C2207 C2208 1.373 . S
C2207 C2209 1.389 . S
C2208 H2181 0.950 . S
C2208 C2194 1.377 . S
C2208 C2207 1.373 . S
C2209 C2193 1.377 . S
C2209 C2207 1.389 . S
C2209 C2210 1.524 . S
C2210 C2209 1.524 . S
C2210 C2211 1.397 . S
C2210 C2215 1.363 . S
C2211 H2182 0.950 . S
C2211 C2210 1.397 . S
C2211 C2212 1.334 . S
C2212 H2183 0.950 . S
C2212 C2211 1.334 . S
C2212 C2213 1.287 . S
C2213 C2212 1.287 . S
C2213 C2214 1.524 . S
C2213 H2216 0.999 . S
C2214 H2184 0.950 . S
C2214 C2213 1.524 . S
C2214 C2215 1.415 . S
C2215 H2185 0.950 . S
C2215 C2210 1.363 . S
C2215 C2214 1.415 . S
H2216 C2213 0.999 . S
H2217 C2198 0.913 . S
H2218 C2236 0.951 . S
H2219 C2238 0.951 . S
H2220 C2240 0.950 . S
H2221 C2241 0.950 . S
H2222 C2243 0.950 . S
H2223 C2246 0.950 . S
H2224 C2247 0.950 . S
H2225 C2249 0.950 . S
H2226 C2250 0.950 . S
H2227 C2251 0.951 . S
H2228 C2253 0.951 . S
H2229 C2255 0.950 . S
H2230 C2256 0.950 . S
H2231 C2258 0.950 . S
H2232 C2261 0.950 . S
H2233 C2262 0.950 . S
H2234 C2264 0.950 . S
H2235 C2265 0.950 . S
C2236 H2218 0.951 . S
C2236 C2237 1.366 . S
C2236 C2238 1.388 . S
C2237 C2236 1.366 . S
C2237 C2241 1.385 . S
C2238 H2219 0.951 . S
C2238 C2236 1.388 . S
C2238 C2239 1.366 . S
C2239 C2238 1.366 . S
C2239 C2240 1.414 . S
C2239 C2242 1.499 . S
C2240 H2220 0.950 . S
C2240 C2239 1.414 . S
C2240 C2241 1.374 . S
C2241 H2221 0.950 . S
C2241 C2237 1.385 . S
C2241 C2240 1.374 . S
C2242 C2239 1.499 . S
C2242 C2243 1.373 . S
C2242 C2244 1.389 . S
C2243 H2222 0.950 . S
C2243 C2242 1.373 . S
C2243 C2259 1.377 . S
C2244 C2242 1.389 . S
C2244 C2245 1.524 . S
C2244 C2258 1.377 . S
C2245 C2244 1.524 . S
C2245 C2246 1.397 . S
C2245 C2250 1.363 . S
C2246 H2223 0.950 . S
C2246 C2245 1.397 . S
C2246 C2247 1.334 . S
C2247 H2224 0.950 . S
C2247 C2246 1.334 . S
C2247 C2248 1.287 . S
C2248 C2247 1.287 . S
C2248 C2249 1.524 . S
C2248 H2267 0.913 . S
C2249 H2225 0.950 . S
C2249 C2248 1.524 . S
C2249 C2250 1.415 . S
C2250 H2226 0.950 . S
C2250 C2245 1.363 . S
C2250 C2249 1.415 . S
C2251 H2227 0.951 . S
C2251 C2252 1.366 . S
C2251 C2253 1.388 . S
C2252 C2251 1.366 . S
C2252 C2256 1.385 . S
C2253 H2228 0.951 . S
C2253 C2251 1.388 . S
C2253 C2254 1.366 . S
C2254 C2253 1.366 . S
C2254 C2255 1.414 . S
C2254 C2257 1.499 . S
C2255 H2229 0.950 . S
C2255 C2254 1.414 . S
C2255 C2256 1.374 . S
C2256 H2230 0.950 . S
C2256 C2252 1.385 . S
C2256 C2255 1.374 . S
C2257 C2254 1.499 . S
C2257 C2258 1.373 . S
C2257 C2259 1.389 . S
C2258 H2231 0.950 . S
C2258 C2244 1.377 . S
C2258 C2257 1.373 . S
C2259 C2243 1.377 . S
C2259 C2257 1.389 . S
C2259 C2260 1.524 . S
C2260 C2259 1.524 . S
C2260 C2261 1.397 . S
C2260 C2265 1.363 . S
C2261 H2232 0.950 . S
C2261 C2260 1.397 . S
C2261 C2262 1.334 . S
C2262 H2233 0.950 . S
C2262 C2261 1.334 . S
C2262 C2263 1.287 . S
C2263 C2262 1.287 . S
C2263 C2264 1.524 . S
C2263 H2266 0.999 . S
C2264 H2234 0.950 . S
C2264 C2263 1.524 . S
C2264 C2265 1.415 . S
C2265 H2235 0.950 . S
C2265 C2260 1.363 . S
C2265 C2264 1.415 . S
H2266 C2263 0.999 . S
H2267 C2248 0.913 . S
H2268 C2286 0.951 . S
H2269 C2288 0.951 . S
H2270 C2290 0.950 . S
H2271 C2291 0.950 . S
H2272 C2293 0.950 . S
H2273 C2296 0.950 . S
H2274 C2297 0.950 . S
H2275 C2299 0.950 . S
H2276 C2300 0.950 . S
H2277 C2301 0.951 . S
H2278 C2303 0.951 . S
H2279 C2305 0.950 . S
H2280 C2306 0.950 . S
H2281 C2308 0.950 . S
H2282 C2311 0.950 . S
H2283 C2312 0.950 . S
H2284 C2314 0.950 . S
H2285 C2315 0.950 . S
C2286 H2268 0.951 . S
C2286 C2287 1.366 . S
C2286 C2288 1.388 . S
C2287 C2286 1.366 . S
C2287 C2291 1.385 . S
C2288 H2269 0.951 . S
C2288 C2286 1.388 . S
C2288 C2289 1.366 . S
C2289 C2288 1.366 . S
C2289 C2290 1.414 . S
C2289 C2292 1.499 . S
C2290 H2270 0.950 . S
C2290 C2289 1.414 . S
C2290 C2291 1.374 . S
C2291 H2271 0.950 . S
C2291 C2287 1.385 . S
C2291 C2290 1.374 . S
C2292 C2289 1.499 . S
C2292 C2293 1.373 . S
C2292 C2294 1.389 . S
C2293 H2272 0.950 . S
C2293 C2292 1.373 . S
C2293 C2309 1.377 . S
C2294 C2292 1.389 . S
C2294 C2295 1.524 . S
C2294 C2308 1.377 . S
C2295 C2294 1.524 . S
C2295 C2296 1.397 . S
C2295 C2300 1.363 . S
C2296 H2273 0.950 . S
C2296 C2295 1.397 . S
C2296 C2297 1.334 . S
C2297 H2274 0.950 . S
C2297 C2296 1.334 . S
C2297 C2298 1.287 . S
C2298 C2297 1.287 . S
C2298 C2299 1.524 . S
C2298 H2317 0.913 . S
C2299 H2275 0.950 . S
C2299 C2298 1.524 . S
C2299 C2300 1.415 . S
C2300 H2276 0.950 . S
C2300 C2295 1.363 . S
C2300 C2299 1.415 . S
C2301 H2277 0.951 . S
C2301 C2302 1.366 . S
C2301 C2303 1.388 . S
C2302 C2301 1.366 . S
C2302 C2306 1.385 . S
C2303 H2278 0.951 . S
C2303 C2301 1.388 . S
C2303 C2304 1.366 . S
C2304 C2303 1.366 . S
C2304 C2305 1.414 . S
C2304 C2307 1.499 . S
C2305 H2279 0.950 . S
C2305 C2304 1.414 . S
C2305 C2306 1.374 . S
C2306 H2280 0.950 . S
C2306 C2302 1.385 . S
C2306 C2305 1.374 . S
C2307 C2304 1.499 . S
C2307 C2308 1.373 . S
C2307 C2309 1.389 . S
C2308 H2281 0.950 . S
C2308 C2294 1.377 . S
C2308 C2307 1.373 . S
C2309 C2293 1.377 . S
C2309 C2307 1.389 . S
C2309 C2310 1.524 . S
C2310 C2309 1.524 . S
C2310 C2311 1.397 . S
C2310 C2315 1.363 . S
C2311 H2282 0.950 . S
C2311 C2310 1.397 . S
C2311 C2312 1.334 . S
C2312 H2283 0.950 . S
C2312 C2311 1.334 . S
C2312 C2313 1.287 . S
C2313 C2312 1.287 . S
C2313 C2314 1.524 . S
C2313 H2316 0.999 . S
C2314 H2284 0.950 . S
C2314 C2313 1.524 . S
C2314 C2315 1.415 . S
C2315 H2285 0.950 . S
C2315 C2310 1.363 . S
C2315 C2314 1.415 . S
H2316 C2313 0.999 . S
H2317 C2298 0.913 . S
H2318 C2336 0.951 . S
H2319 C2338 0.951 . S
H2320 C2340 0.950 . S
H2321 C2341 0.950 . S
H2322 C2343 0.950 . S
H2323 C2346 0.950 . S
H2324 C2347 0.950 . S
H2325 C2349 0.950 . S
H2326 C2350 0.950 . S
H2327 C2351 0.951 . S
H2328 C2353 0.951 . S
H2329 C2355 0.950 . S
H2330 C2356 0.950 . S
H2331 C2358 0.950 . S
H2332 C2361 0.950 . S
H2333 C2362 0.950 . S
H2334 C2364 0.950 . S
H2335 C2365 0.950 . S
C2336 H2318 0.951 . S
C2336 C2337 1.366 . S
C2336 C2338 1.388 . S
C2337 C2336 1.366 . S
C2337 C2341 1.385 . S
C2338 H2319 0.951 . S
C2338 C2336 1.388 . S
C2338 C2339 1.366 . S
C2339 C2338 1.366 . S
C2339 C2340 1.414 . S
C2339 C2342 1.499 . S
C2340 H2320 0.950 . S
C2340 C2339 1.414 . S
C2340 C2341 1.374 . S
C2341 H2321 0.950 . S
C2341 C2337 1.385 . S
C2341 C2340 1.374 . S
C2342 C2339 1.499 . S
C2342 C2343 1.373 . S
C2342 C2344 1.389 . S
C2343 H2322 0.950 . S
C2343 C2342 1.373 . S
C2343 C2359 1.377 . S
C2344 C2342 1.389 . S
C2344 C2345 1.524 . S
C2344 C2358 1.377 . S
C2345 C2344 1.524 . S
C2345 C2346 1.397 . S
C2345 C2350 1.363 . S
C2346 H2323 0.950 . S
C2346 C2345 1.397 . S
C2346 C2347 1.334 . S
C2347 H2324 0.950 . S
C2347 C2346 1.334 . S
C2347 C2348 1.287 . S
C2348 C2347 1.287 . S
C2348 C2349 1.524 . S
C2348 H2367 0.913 . S
C2349 H2325 0.950 . S
C2349 C2348 1.524 . S
C2349 C2350 1.415 . S
C2350 H2326 0.950 . S
C2350 C2345 1.363 . S
C2350 C2349 1.415 . S
C2351 H2327 0.951 . S
C2351 C2352 1.366 . S
C2351 C2353 1.388 . S
C2352 C2351 1.366 . S
C2352 C2356 1.385 . S
C2353 H2328 0.951 . S
C2353 C2351 1.388 . S
C2353 C2354 1.366 . S
C2354 C2353 1.366 . S
C2354 C2355 1.414 . S
C2354 C2357 1.499 . S
C2355 H2329 0.950 . S
C2355 C2354 1.414 . S
C2355 C2356 1.374 . S
C2356 H2330 0.950 . S
C2356 C2352 1.385 . S
C2356 C2355 1.374 . S
C2357 C2354 1.499 . S
C2357 C2358 1.373 . S
C2357 C2359 1.389 . S
C2358 H2331 0.950 . S
C2358 C2344 1.377 . S
C2358 C2357 1.373 . S
C2359 C2343 1.377 . S
C2359 C2357 1.389 . S
C2359 C2360 1.524 . S
C2360 C2359 1.524 . S
C2360 C2361 1.397 . S
C2360 C2365 1.363 . S
C2361 H2332 0.950 . S
C2361 C2360 1.397 . S
C2361 C2362 1.334 . S
C2362 H2333 0.950 . S
C2362 C2361 1.334 . S
C2362 C2363 1.287 . S
C2363 C2362 1.287 . S
C2363 C2364 1.524 . S
C2363 H2366 0.999 . S
C2364 H2334 0.950 . S
C2364 C2363 1.524 . S
C2364 C2365 1.415 . S
C2365 H2335 0.950 . S
C2365 C2360 1.363 . S
C2365 C2364 1.415 . S
H2366 C2363 0.999 . S
H2367 C2348 0.913 . S
H2368 C2386 0.951 . S
H2369 C2388 0.951 . S
H2370 C2390 0.950 . S
H2371 C2391 0.950 . S
H2372 C2393 0.950 . S
H2373 C2396 0.950 . S
H2374 C2397 0.950 . S
H2375 C2399 0.950 . S
H2376 C2400 0.950 . S
H2377 C2401 0.951 . S
H2378 C2403 0.951 . S
H2379 C2405 0.950 . S
H2380 C2406 0.950 . S
H2381 C2408 0.950 . S
H2382 C2411 0.950 . S
H2383 C2412 0.950 . S
H2384 C2414 0.950 . S
H2385 C2415 0.950 . S
C2386 H2368 0.951 . S
C2386 C2387 1.366 . S
C2386 C2388 1.388 . S
C2387 C2386 1.366 . S
C2387 C2391 1.385 . S
C2388 H2369 0.951 . S
C2388 C2386 1.388 . S
C2388 C2389 1.366 . S
C2389 C2388 1.366 . S
C2389 C2390 1.414 . S
C2389 C2392 1.499 . S
C2390 H2370 0.950 . S
C2390 C2389 1.414 . S
C2390 C2391 1.374 . S
C2391 H2371 0.950 . S
C2391 C2387 1.385 . S
C2391 C2390 1.374 . S
C2392 C2389 1.499 . S
C2392 C2393 1.373 . S
C2392 C2394 1.389 . S
C2393 H2372 0.950 . S
C2393 C2392 1.373 . S
C2393 C2409 1.377 . S
C2394 C2392 1.389 . S
C2394 C2395 1.524 . S
C2394 C2408 1.377 . S
C2395 C2394 1.524 . S
C2395 C2396 1.397 . S
C2395 C2400 1.363 . S
C2396 H2373 0.950 . S
C2396 C2395 1.397 . S
C2396 C2397 1.334 . S
C2397 H2374 0.950 . S
C2397 C2396 1.334 . S
C2397 C2398 1.287 . S
C2398 C2397 1.287 . S
C2398 C2399 1.524 . S
C2398 H2417 0.913 . S
C2399 H2375 0.950 . S
C2399 C2398 1.524 . S
C2399 C2400 1.415 . S
C2400 H2376 0.950 . S
C2400 C2395 1.363 . S
C2400 C2399 1.415 . S
C2401 H2377 0.951 . S
C2401 C2402 1.366 . S
C2401 C2403 1.388 . S
C2402 C2401 1.366 . S
C2402 C2406 1.385 . S
C2403 H2378 0.951 . S
C2403 C2401 1.388 . S
C2403 C2404 1.366 . S
C2404 C2403 1.366 . S
C2404 C2405 1.414 . S
C2404 C2407 1.499 . S
C2405 H2379 0.950 . S
C2405 C2404 1.414 . S
C2405 C2406 1.374 . S
C2406 H2380 0.950 . S
C2406 C2402 1.385 . S
C2406 C2405 1.374 . S
C2407 C2404 1.499 . S
C2407 C2408 1.373 . S
C2407 C2409 1.389 . S
C2408 H2381 0.950 . S
C2408 C2394 1.377 . S
C2408 C2407 1.373 . S
C2409 C2393 1.377 . S
C2409 C2407 1.389 . S
C2409 C2410 1.524 . S
C2410 C2409 1.524 . S
C2410 C2411 1.397 . S
C2410 C2415 1.363 . S
C2411 H2382 0.950 . S
C2411 C2410 1.397 . S
C2411 C2412 1.334 . S
C2412 H2383 0.950 . S
C2412 C2411 1.334 . S
C2412 C2413 1.287 . S
C2413 C2412 1.287 . S
C2413 C2414 1.524 . S
C2413 H2416 0.999 . S
C2414 H2384 0.950 . S
C2414 C2413 1.524 . S
C2414 C2415 1.415 . S
C2415 H2385 0.950 . S
C2415 C2410 1.363 . S
C2415 C2414 1.415 . S
H2416 C2413 0.999 . S
H2417 C2398 0.913 . S
H2418 C2436 0.951 . S
H2419 C2438 0.951 . S
H2420 C2440 0.950 . S
H2421 C2441 0.950 . S
H2422 C2443 0.950 . S
H2423 C2446 0.950 . S
H2424 C2447 0.950 . S
H2425 C2449 0.950 . S
H2426 C2450 0.950 . S
H2427 C2451 0.951 . S
H2428 C2453 0.951 . S
H2429 C2455 0.950 . S
H2430 C2456 0.950 . S
H2431 C2458 0.950 . S
H2432 C2461 0.950 . S
H2433 C2462 0.950 . S
H2434 C2464 0.950 . S
H2435 C2465 0.950 . S
C2436 H2418 0.951 . S
C2436 C2437 1.366 . S
C2436 C2438 1.388 . S
C2437 C2436 1.366 . S
C2437 C2441 1.385 . S
C2438 H2419 0.951 . S
C2438 C2436 1.388 . S
C2438 C2439 1.366 . S
C2439 C2438 1.366 . S
C2439 C2440 1.414 . S
C2439 C2442 1.499 . S
C2440 H2420 0.950 . S
C2440 C2439 1.414 . S
C2440 C2441 1.374 . S
C2441 H2421 0.950 . S
C2441 C2437 1.385 . S
C2441 C2440 1.374 . S
C2442 C2439 1.499 . S
C2442 C2443 1.373 . S
C2442 C2444 1.389 . S
C2443 H2422 0.950 . S
C2443 C2442 1.373 . S
C2443 C2459 1.377 . S
C2444 C2442 1.389 . S
C2444 C2445 1.524 . S
C2444 C2458 1.377 . S
C2445 C2444 1.524 . S
C2445 C2446 1.397 . S
C2445 C2450 1.363 . S
C2446 H2423 0.950 . S
C2446 C2445 1.397 . S
C2446 C2447 1.334 . S
C2447 H2424 0.950 . S
C2447 C2446 1.334 . S
C2447 C2448 1.287 . S
C2448 C2447 1.287 . S
C2448 C2449 1.524 . S
C2448 H2467 0.913 . S
C2449 H2425 0.950 . S
C2449 C2448 1.524 . S
C2449 C2450 1.415 . S
C2450 H2426 0.950 . S
C2450 C2445 1.363 . S
C2450 C2449 1.415 . S
C2451 H2427 0.951 . S
C2451 C2452 1.366 . S
C2451 C2453 1.388 . S
C2452 C2451 1.366 . S
C2452 C2456 1.385 . S
C2453 H2428 0.951 . S
C2453 C2451 1.388 . S
C2453 C2454 1.366 . S
C2454 C2453 1.366 . S
C2454 C2455 1.414 . S
C2454 C2457 1.499 . S
C2455 H2429 0.950 . S
C2455 C2454 1.414 . S
C2455 C2456 1.374 . S
C2456 H2430 0.950 . S
C2456 C2452 1.385 . S
C2456 C2455 1.374 . S
C2457 C2454 1.499 . S
C2457 C2458 1.373 . S
C2457 C2459 1.389 . S
C2458 H2431 0.950 . S
C2458 C2444 1.377 . S
C2458 C2457 1.373 . S
C2459 C2443 1.377 . S
C2459 C2457 1.389 . S
C2459 C2460 1.524 . S
C2460 C2459 1.524 . S
C2460 C2461 1.397 . S
C2460 C2465 1.363 . S
C2461 H2432 0.950 . S
C2461 C2460 1.397 . S
C2461 C2462 1.334 . S
C2462 H2433 0.950 . S
C2462 C2461 1.334 . S
C2462 C2463 1.287 . S
C2463 C2462 1.287 . S
C2463 C2464 1.524 . S
C2463 H2466 0.999 . S
C2464 H2434 0.950 . S
C2464 C2463 1.524 . S
C2464 C2465 1.415 . S
C2465 H2435 0.950 . S
C2465 C2460 1.363 . S
C2465 C2464 1.415 . S
H2466 C2463 0.999 . S
H2467 C2448 0.913 . S
H2468 C2486 0.951 . S
H2469 C2488 0.951 . S
H2470 C2490 0.950 . S
H2471 C2491 0.950 . S
H2472 C2493 0.950 . S
H2473 C2496 0.950 . S
H2474 C2497 0.950 . S
H2475 C2499 0.950 . S
H2476 C2500 0.950 . S
H2477 C2501 0.951 . S
H2478 C2503 0.951 . S
H2479 C2505 0.950 . S
H2480 C2506 0.950 . S
H2481 C2508 0.950 . S
H2482 C2511 0.950 . S
H2483 C2512 0.950 . S
H2484 C2514 0.950 . S
H2485 C2515 0.950 . S
C2486 H2468 0.951 . S
C2486 C2487 1.366 . S
C2486 C2488 1.388 . S
C2487 C2486 1.366 . S
C2487 C2491 1.385 . S
C2488 H2469 0.951 . S
C2488 C2486 1.388 . S
C2488 C2489 1.366 . S
C2489 C2488 1.366 . S
C2489 C2490 1.414 . S
C2489 C2492 1.499 . S
C2490 H2470 0.950 . S
C2490 C2489 1.414 . S
C2490 C2491 1.374 . S
C2491 H2471 0.950 . S
C2491 C2487 1.385 . S
C2491 C2490 1.374 . S
C2492 C2489 1.499 . S
C2492 C2493 1.373 . S
C2492 C2494 1.389 . S
C2493 H2472 0.950 . S
C2493 C2492 1.373 . S
C2493 C2509 1.377 . S
C2494 C2492 1.389 . S
C2494 C2495 1.524 . S
C2494 C2508 1.377 . S
C2495 C2494 1.524 . S
C2495 C2496 1.397 . S
C2495 C2500 1.363 . S
C2496 H2473 0.950 . S
C2496 C2495 1.397 . S
C2496 C2497 1.334 . S
C2497 H2474 0.950 . S
C2497 C2496 1.334 . S
C2497 C2498 1.287 . S
C2498 C2497 1.287 . S
C2498 C2499 1.524 . S
C2498 H2517 0.913 . S
C2499 H2475 0.950 . S
C2499 C2498 1.524 . S
C2499 C2500 1.415 . S
C2500 H2476 0.950 . S
C2500 C2495 1.363 . S
C2500 C2499 1.415 . S
C2501 H2477 0.951 . S
C2501 C2502 1.366 . S
C2501 C2503 1.388 . S
C2502 C2501 1.366 . S
C2502 C2506 1.385 . S
C2503 H2478 0.951 . S
C2503 C2501 1.388 . S
C2503 C2504 1.366 . S
C2504 C2503 1.366 . S
C2504 C2505 1.414 . S
C2504 C2507 1.499 . S
C2505 H2479 0.950 . S
C2505 C2504 1.414 . S
C2505 C2506 1.374 . S
C2506 H2480 0.950 . S
C2506 C2502 1.385 . S
C2506 C2505 1.374 . S
C2507 C2504 1.499 . S
C2507 C2508 1.373 . S
C2507 C2509 1.389 . S
C2508 H2481 0.950 . S
C2508 C2494 1.377 . S
C2508 C2507 1.373 . S
C2509 C2493 1.377 . S
C2509 C2507 1.389 . S
C2509 C2510 1.524 . S
C2510 C2509 1.524 . S
C2510 C2511 1.397 . S
C2510 C2515 1.363 . S
C2511 H2482 0.950 . S
C2511 C2510 1.397 . S
C2511 C2512 1.334 . S
C2512 H2483 0.950 . S
C2512 C2511 1.334 . S
C2512 C2513 1.287 . S
C2513 C2512 1.287 . S
C2513 C2514 1.524 . S
C2513 H2516 0.999 . S
C2514 H2484 0.950 . S
C2514 C2513 1.524 . S
C2514 C2515 1.415 . S
C2515 H2485 0.950 . S
C2515 C2510 1.363 . S
C2515 C2514 1.415 . S
H2516 C2513 0.999 . S
H2517 C2498 0.913 . S
H2518 C2536 0.951 . S
H2519 C2538 0.951 . S
H2520 C2540 0.950 . S
H2521 C2541 0.950 . S
H2522 C2543 0.950 . S
H2523 C2546 0.950 . S
H2524 C2547 0.950 . S
H2525 C2549 0.950 . S
H2526 C2550 0.950 . S
H2527 C2551 0.951 . S
H2528 C2553 0.951 . S
H2529 C2555 0.950 . S
H2530 C2556 0.950 . S
H2531 C2558 0.950 . S
H2532 C2561 0.950 . S
H2533 C2562 0.950 . S
H2534 C2564 0.950 . S
H2535 C2565 0.950 . S
C2536 H2518 0.951 . S
C2536 C2537 1.366 . S
C2536 C2538 1.388 . S
C2537 C2536 1.366 . S
C2537 C2541 1.385 . S
C2538 H2519 0.951 . S
C2538 C2536 1.388 . S
C2538 C2539 1.366 . S
C2539 C2538 1.366 . S
C2539 C2540 1.414 . S
C2539 C2542 1.499 . S
C2540 H2520 0.950 . S
C2540 C2539 1.414 . S
C2540 C2541 1.374 . S
C2541 H2521 0.950 . S
C2541 C2537 1.385 . S
C2541 C2540 1.374 . S
C2542 C2539 1.499 . S
C2542 C2543 1.373 . S
C2542 C2544 1.389 . S
C2543 H2522 0.950 . S
C2543 C2542 1.373 . S
C2543 C2559 1.377 . S
C2544 C2542 1.389 . S
C2544 C2545 1.524 . S
C2544 C2558 1.377 . S
C2545 C2544 1.524 . S
C2545 C2546 1.397 . S
C2545 C2550 1.363 . S
C2546 H2523 0.950 . S
C2546 C2545 1.397 . S
C2546 C2547 1.334 . S
C2547 H2524 0.950 . S
C2547 C2546 1.334 . S
C2547 C2548 1.287 . S
C2548 C2547 1.287 . S
C2548 C2549 1.524 . S
C2548 H2567 0.913 . S
C2549 H2525 0.950 . S
C2549 C2548 1.524 . S
C2549 C2550 1.415 . S
C2550 H2526 0.950 . S
C2550 C2545 1.363 . S
C2550 C2549 1.415 . S
C2551 H2527 0.951 . S
C2551 C2552 1.366 . S
C2551 C2553 1.388 . S
C2552 C2551 1.366 . S
C2552 C2556 1.385 . S
C2553 H2528 0.951 . S
C2553 C2551 1.388 . S
C2553 C2554 1.366 . S
C2554 C2553 1.366 . S
C2554 C2555 1.414 . S
C2554 C2557 1.499 . S
C2555 H2529 0.950 . S
C2555 C2554 1.414 . S
C2555 C2556 1.374 . S
C2556 H2530 0.950 . S
C2556 C2552 1.385 . S
C2556 C2555 1.374 . S
C2557 C2554 1.499 . S
C2557 C2558 1.373 . S
C2557 C2559 1.389 . S
C2558 H2531 0.950 . S
C2558 C2544 1.377 . S
C2558 C2557 1.373 . S
C2559 C2543 1.377 . S
C2559 C2557 1.389 . S
C2559 C2560 1.524 . S
C2560 C2559 1.524 . S
C2560 C2561 1.397 . S
C2560 C2565 1.363 . S
C2561 H2532 0.950 . S
C2561 C2560 1.397 . S
C2561 C2562 1.334 . S
C2562 H2533 0.950 . S
C2562 C2561 1.334 . S
C2562 C2563 1.287 . S
C2563 C2562 1.287 . S
C2563 C2564 1.524 . S
C2563 H2566 0.999 . S
C2564 H2534 0.950 . S
C2564 C2563 1.524 . S
C2564 C2565 1.415 . S
C2565 H2535 0.950 . S
C2565 C2560 1.363 . S
C2565 C2564 1.415 . S
H2566 C2563 0.999 . S
H2567 C2548 0.913 . S
H2568 C2586 0.951 . S
H2569 C2588 0.951 . S
H2570 C2590 0.950 . S
H2571 C2591 0.950 . S
H2572 C2593 0.950 . S
H2573 C2596 0.950 . S
H2574 C2597 0.950 . S
H2575 C2599 0.950 . S
H2576 C2600 0.950 . S
H2577 C2601 0.951 . S
H2578 C2603 0.951 . S
H2579 C2605 0.950 . S
H2580 C2606 0.950 . S
H2581 C2608 0.950 . S
H2582 C2611 0.950 . S
H2583 C2612 0.950 . S
H2584 C2614 0.950 . S
H2585 C2615 0.950 . S
C2586 H2568 0.951 . S
C2586 C2587 1.366 . S
C2586 C2588 1.388 . S
C2587 C2586 1.366 . S
C2587 C2591 1.385 . S
C2588 H2569 0.951 . S
C2588 C2586 1.388 . S
C2588 C2589 1.366 . S
C2589 C2588 1.366 . S
C2589 C2590 1.414 . S
C2589 C2592 1.499 . S
C2590 H2570 0.950 . S
C2590 C2589 1.414 . S
C2590 C2591 1.374 . S
C2591 H2571 0.950 . S
C2591 C2587 1.385 . S
C2591 C2590 1.374 . S
C2592 C2589 1.499 . S
C2592 C2593 1.373 . S
C2592 C2594 1.389 . S
C2593 H2572 0.950 . S
C2593 C2592 1.373 . S
C2593 C2609 1.377 . S
C2594 C2592 1.389 . S
C2594 C2595 1.524 . S
C2594 C2608 1.377 . S
C2595 C2594 1.524 . S
C2595 C2596 1.397 . S
C2595 C2600 1.363 . S
C2596 H2573 0.950 . S
C2596 C2595 1.397 . S
C2596 C2597 1.334 . S
C2597 H2574 0.950 . S
C2597 C2596 1.334 . S
C2597 C2598 1.287 . S
C2598 C2597 1.287 . S
C2598 C2599 1.524 . S
C2598 H2617 0.913 . S
C2599 H2575 0.950 . S
C2599 C2598 1.524 . S
C2599 C2600 1.415 . S
C2600 H2576 0.950 . S
C2600 C2595 1.363 . S
C2600 C2599 1.415 . S
C2601 H2577 0.951 . S
C2601 C2602 1.366 . S
C2601 C2603 1.388 . S
C2602 C2601 1.366 . S
C2602 C2606 1.385 . S
C2603 H2578 0.951 . S
C2603 C2601 1.388 . S
C2603 C2604 1.366 . S
C2604 C2603 1.366 . S
C2604 C2605 1.414 . S
C2604 C2607 1.499 . S
C2605 H2579 0.950 . S
C2605 C2604 1.414 . S
C2605 C2606 1.374 . S
C2606 H2580 0.950 . S
C2606 C2602 1.385 . S
C2606 C2605 1.374 . S
C2607 C2604 1.499 . S
C2607 C2608 1.373 . S
C2607 C2609 1.389 . S
C2608 H2581 0.950 . S
C2608 C2594 1.377 . S
C2608 C2607 1.373 . S
C2609 C2593 1.377 . S
C2609 C2607 1.389 . S
C2609 C2610 1.524 . S
C2610 C2609 1.524 . S
C2610 C2611 1.397 . S
C2610 C2615 1.363 . S
C2611 H2582 0.950 . S
C2611 C2610 1.397 . S
C2611 C2612 1.334 . S
C2612 H2583 0.950 . S
C2612 C2611 1.334 . S
C2612 C2613 1.287 . S
C2613 C2612 1.287 . S
C2613 C2614 1.524 . S
C2613 H2616 0.999 . S
C2614 H2584 0.950 . S
C2614 C2613 1.524 . S
C2614 C2615 1.415 . S
C2615 H2585 0.950 . S
C2615 C2610 1.363 . S
C2615 C2614 1.415 . S
H2616 C2613 0.999 . S
H2617 C2598 0.913 . S
H2618 C2636 0.951 . S
H2619 C2638 0.951 . S
H2620 C2640 0.950 . S
H2621 C2641 0.950 . S
H2622 C2643 0.950 . S
H2623 C2646 0.950 . S
H2624 C2647 0.950 . S
H2625 C2649 0.950 . S
H2626 C2650 0.950 . S
H2627 C2651 0.951 . S
H2628 C2653 0.951 . S
H2629 C2655 0.950 . S
H2630 C2656 0.950 . S
H2631 C2658 0.950 . S
H2632 C2661 0.950 . S
H2633 C2662 0.950 . S
H2634 C2664 0.950 . S
H2635 C2665 0.950 . S
C2636 H2618 0.951 . S
C2636 C2637 1.366 . S
C2636 C2638 1.388 . S
C2637 C2636 1.366 . S
C2637 C2641 1.385 . S
C2638 H2619 0.951 . S
C2638 C2636 1.388 . S
C2638 C2639 1.366 . S
C2639 C2638 1.366 . S
C2639 C2640 1.414 . S
C2639 C2642 1.499 . S
C2640 H2620 0.950 . S
C2640 C2639 1.414 . S
C2640 C2641 1.374 . S
C2641 H2621 0.950 . S
C2641 C2637 1.385 . S
C2641 C2640 1.374 . S
C2642 C2639 1.499 . S
C2642 C2643 1.373 . S
C2642 C2644 1.389 . S
C2643 H2622 0.950 . S
C2643 C2642 1.373 . S
C2643 C2659 1.377 . S
C2644 C2642 1.389 . S
C2644 C2645 1.524 . S
C2644 C2658 1.377 . S
C2645 C2644 1.524 . S
C2645 C2646 1.397 . S
C2645 C2650 1.363 . S
C2646 H2623 0.950 . S
C2646 C2645 1.397 . S
C2646 C2647 1.334 . S
C2647 H2624 0.950 . S
C2647 C2646 1.334 . S
C2647 C2648 1.287 . S
C2648 C2647 1.287 . S
C2648 C2649 1.524 . S
C2648 H2667 0.913 . S
C2649 H2625 0.950 . S
C2649 C2648 1.524 . S
C2649 C2650 1.415 . S
C2650 H2626 0.950 . S
C2650 C2645 1.363 . S
C2650 C2649 1.415 . S
C2651 H2627 0.951 . S
C2651 C2652 1.366 . S
C2651 C2653 1.388 . S
C2652 C2651 1.366 . S
C2652 C2656 1.385 . S
C2653 H2628 0.951 . S
C2653 C2651 1.388 . S
C2653 C2654 1.366 . S
C2654 C2653 1.366 . S
C2654 C2655 1.414 . S
C2654 C2657 1.499 . S
C2655 H2629 0.950 . S
C2655 C2654 1.414 . S
C2655 C2656 1.374 . S
C2656 H2630 0.950 . S
C2656 C2652 1.385 . S
C2656 C2655 1.374 . S
C2657 C2654 1.499 . S
C2657 C2658 1.373 . S
C2657 C2659 1.389 . S
C2658 H2631 0.950 . S
C2658 C2644 1.377 . S
C2658 C2657 1.373 . S
C2659 C2643 1.377 . S
C2659 C2657 1.389 . S
C2659 C2660 1.524 . S
C2660 C2659 1.524 . S
C2660 C2661 1.397 . S
C2660 C2665 1.363 . S
C2661 H2632 0.950 . S
C2661 C2660 1.397 . S
C2661 C2662 1.334 . S
C2662 H2633 0.950 . S
C2662 C2661 1.334 . S
C2662 C2663 1.287 . S
C2663 C2662 1.287 . S
C2663 C2664 1.524 . S
C2663 H2666 0.999 . S
C2664 H2634 0.950 . S
C2664 C2663 1.524 . S
C2664 C2665 1.415 . S
C2665 H2635 0.950 . S
C2665 C2660 1.363 . S
C2665 C2664 1.415 . S
H2666 C2663 0.999 . S
H2667 C2648 0.913 . S
H2668 C2686 0.951 . S
H2669 C2688 0.951 . S
H2670 C2690 0.950 . S
H2671 C2691 0.950 . S
H2672 C2693 0.950 . S
H2673 C2696 0.950 . S
H2674 C2697 0.950 . S
H2675 C2699 0.950 . S
H2676 C2700 0.950 . S
H2677 C2701 0.951 . S
H2678 C2703 0.951 . S
H2679 C2705 0.950 . S
H2680 C2706 0.950 . S
H2681 C2708 0.950 . S
H2682 C2711 0.950 . S
H2683 C2712 0.950 . S
H2684 C2714 0.950 . S
H2685 C2715 0.950 . S
C2686 H2668 0.951 . S
C2686 C2687 1.366 . S
C2686 C2688 1.388 . S
C2687 C2686 1.366 . S
C2687 C2691 1.385 . S
C2688 H2669 0.951 . S
C2688 C2686 1.388 . S
C2688 C2689 1.366 . S
C2689 C2688 1.366 . S
C2689 C2690 1.414 . S
C2689 C2692 1.499 . S
C2690 H2670 0.950 . S
C2690 C2689 1.414 . S
C2690 C2691 1.374 . S
C2691 H2671 0.950 . S
C2691 C2687 1.385 . S
C2691 C2690 1.374 . S
C2692 C2689 1.499 . S
C2692 C2693 1.373 . S
C2692 C2694 1.389 . S
C2693 H2672 0.950 . S
C2693 C2692 1.373 . S
C2693 C2709 1.377 . S
C2694 C2692 1.389 . S
C2694 C2695 1.524 . S
C2694 C2708 1.377 . S
C2695 C2694 1.524 . S
C2695 C2696 1.397 . S
C2695 C2700 1.363 . S
C2696 H2673 0.950 . S
C2696 C2695 1.397 . S
C2696 C2697 1.334 . S
C2697 H2674 0.950 . S
C2697 C2696 1.334 . S
C2697 C2698 1.287 . S
C2698 C2697 1.287 . S
C2698 C2699 1.524 . S
C2698 H2717 0.913 . S
C2699 H2675 0.950 . S
C2699 C2698 1.524 . S
C2699 C2700 1.415 . S
C2700 H2676 0.950 . S
C2700 C2695 1.363 . S
C2700 C2699 1.415 . S
C2701 H2677 0.951 . S
C2701 C2702 1.366 . S
C2701 C2703 1.388 . S
C2702 C2701 1.366 . S
C2702 C2706 1.385 . S
C2703 H2678 0.951 . S
C2703 C2701 1.388 . S
C2703 C2704 1.366 . S
C2704 C2703 1.366 . S
C2704 C2705 1.414 . S
C2704 C2707 1.499 . S
C2705 H2679 0.950 . S
C2705 C2704 1.414 . S
C2705 C2706 1.374 . S
C2706 H2680 0.950 . S
C2706 C2702 1.385 . S
C2706 C2705 1.374 . S
C2707 C2704 1.499 . S
C2707 C2708 1.373 . S
C2707 C2709 1.389 . S
C2708 H2681 0.950 . S
C2708 C2694 1.377 . S
C2708 C2707 1.373 . S
C2709 C2693 1.377 . S
C2709 C2707 1.389 . S
C2709 C2710 1.524 . S
C2710 C2709 1.524 . S
C2710 C2711 1.397 . S
C2710 C2715 1.363 . S
C2711 H2682 0.950 . S
C2711 C2710 1.397 . S
C2711 C2712 1.334 . S
C2712 H2683 0.950 . S
C2712 C2711 1.334 . S
C2712 C2713 1.287 . S
C2713 C2712 1.287 . S
C2713 C2714 1.524 . S
C2713 H2716 0.999 . S
C2714 H2684 0.950 . S
C2714 C2713 1.524 . S
C2714 C2715 1.415 . S
C2715 H2685 0.950 . S
C2715 C2710 1.363 . S
C2715 C2714 1.415 . S
H2716 C2713 0.999 . S
H2717 C2698 0.913 . S
H2718 C2736 0.951 . S
H2719 C2738 0.951 . S
H2720 C2740 0.950 . S
H2721 C2741 0.950 . S
H2722 C2743 0.950 . S
H2723 C2746 0.950 . S
H2724 C2747 0.950 . S
H2725 C2749 0.950 . S
H2726 C2750 0.950 . S
H2727 C2751 0.951 . S
H2728 C2753 0.951 . S
H2729 C2755 0.950 . S
H2730 C2756 0.950 . S
H2731 C2758 0.950 . S
H2732 C2761 0.950 . S
H2733 C2762 0.950 . S
H2734 C2764 0.950 . S
H2735 C2765 0.950 . S
C2736 H2718 0.951 . S
C2736 C2737 1.366 . S
C2736 C2738 1.388 . S
C2737 C2736 1.366 . S
C2737 C2741 1.385 . S
C2738 H2719 0.951 . S
C2738 C2736 1.388 . S
C2738 C2739 1.366 . S
C2739 C2738 1.366 . S
C2739 C2740 1.414 . S
C2739 C2742 1.499 . S
C2740 H2720 0.950 . S
C2740 C2739 1.414 . S
C2740 C2741 1.374 . S
C2741 H2721 0.950 . S
C2741 C2737 1.385 . S
C2741 C2740 1.374 . S
C2742 C2739 1.499 . S
C2742 C2743 1.373 . S
C2742 C2744 1.389 . S
C2743 H2722 0.950 . S
C2743 C2742 1.373 . S
C2743 C2759 1.377 . S
C2744 C2742 1.389 . S
C2744 C2745 1.524 . S
C2744 C2758 1.377 . S
C2745 C2744 1.524 . S
C2745 C2746 1.397 . S
C2745 C2750 1.363 . S
C2746 H2723 0.950 . S
C2746 C2745 1.397 . S
C2746 C2747 1.334 . S
C2747 H2724 0.950 . S
C2747 C2746 1.334 . S
C2747 C2748 1.287 . S
C2748 C2747 1.287 . S
C2748 C2749 1.524 . S
C2748 H2767 0.913 . S
C2749 H2725 0.950 . S
C2749 C2748 1.524 . S
C2749 C2750 1.415 . S
C2750 H2726 0.950 . S
C2750 C2745 1.363 . S
C2750 C2749 1.415 . S
C2751 H2727 0.951 . S
C2751 C2752 1.366 . S
C2751 C2753 1.388 . S
C2752 C2751 1.366 . S
C2752 C2756 1.385 . S
C2753 H2728 0.951 . S
C2753 C2751 1.388 . S
C2753 C2754 1.366 . S
C2754 C2753 1.366 . S
C2754 C2755 1.414 . S
C2754 C2757 1.499 . S
C2755 H2729 0.950 . S
C2755 C2754 1.414 . S
C2755 C2756 1.374 . S
C2756 H2730 0.950 . S
C2756 C2752 1.385 . S
C2756 C2755 1.374 . S
C2757 C2754 1.499 . S
C2757 C2758 1.373 . S
C2757 C2759 1.389 . S
C2758 H2731 0.950 . S
C2758 C2744 1.377 . S
C2758 C2757 1.373 . S
C2759 C2743 1.377 . S
C2759 C2757 1.389 . S
C2759 C2760 1.524 . S
C2760 C2759 1.524 . S
C2760 C2761 1.397 . S
C2760 C2765 1.363 . S
C2761 H2732 0.950 . S
C2761 C2760 1.397 . S
C2761 C2762 1.334 . S
C2762 H2733 0.950 . S
C2762 C2761 1.334 . S
C2762 C2763 1.287 . S
C2763 C2762 1.287 . S
C2763 C2764 1.524 . S
C2763 H2766 0.999 . S
C2764 H2734 0.950 . S
C2764 C2763 1.524 . S
C2764 C2765 1.415 . S
C2765 H2735 0.950 . S
C2765 C2760 1.363 . S
C2765 C2764 1.415 . S
H2766 C2763 0.999 . S
H2767 C2748 0.913 . S
H2768 C2786 0.951 . S
H2769 C2788 0.951 . S
H2770 C2790 0.950 . S
H2771 C2791 0.950 . S
H2772 C2793 0.950 . S
H2773 C2796 0.950 . S
H2774 C2797 0.950 . S
H2775 C2799 0.950 . S
H2776 C2800 0.950 . S
H2777 C2801 0.951 . S
H2778 C2803 0.951 . S
H2779 C2805 0.950 . S
H2780 C2806 0.950 . S
H2781 C2808 0.950 . S
H2782 C2811 0.950 . S
H2783 C2812 0.950 . S
H2784 C2814 0.950 . S
H2785 C2815 0.950 . S
C2786 H2768 0.951 . S
C2786 C2787 1.366 . S
C2786 C2788 1.388 . S
C2787 C2786 1.366 . S
C2787 C2791 1.385 . S
C2788 H2769 0.951 . S
C2788 C2786 1.388 . S
C2788 C2789 1.366 . S
C2789 C2788 1.366 . S
C2789 C2790 1.414 . S
C2789 C2792 1.499 . S
C2790 H2770 0.950 . S
C2790 C2789 1.414 . S
C2790 C2791 1.374 . S
C2791 H2771 0.950 . S
C2791 C2787 1.385 . S
C2791 C2790 1.374 . S
C2792 C2789 1.499 . S
C2792 C2793 1.373 . S
C2792 C2794 1.389 . S
C2793 H2772 0.950 . S
C2793 C2792 1.373 . S
C2793 C2809 1.377 . S
C2794 C2792 1.389 . S
C2794 C2795 1.524 . S
C2794 C2808 1.377 . S
C2795 C2794 1.524 . S
C2795 C2796 1.397 . S
C2795 C2800 1.363 . S
C2796 H2773 0.950 . S
C2796 C2795 1.397 . S
C2796 C2797 1.334 . S
C2797 H2774 0.950 . S
C2797 C2796 1.334 . S
C2797 C2798 1.287 . S
C2798 C2797 1.287 . S
C2798 C2799 1.524 . S
C2798 H2817 0.913 . S
C2799 H2775 0.950 . S
C2799 C2798 1.524 . S
C2799 C2800 1.415 . S
C2800 H2776 0.950 . S
C2800 C2795 1.363 . S
C2800 C2799 1.415 . S
C2801 H2777 0.951 . S
C2801 C2802 1.366 . S
C2801 C2803 1.388 . S
C2802 C2801 1.366 . S
C2802 C2806 1.385 . S
C2803 H2778 0.951 . S
C2803 C2801 1.388 . S
C2803 C2804 1.366 . S
C2804 C2803 1.366 . S
C2804 C2805 1.414 . S
C2804 C2807 1.499 . S
C2805 H2779 0.950 . S
C2805 C2804 1.414 . S
C2805 C2806 1.374 . S
C2806 H2780 0.950 . S
C2806 C2802 1.385 . S
C2806 C2805 1.374 . S
C2807 C2804 1.499 . S
C2807 C2808 1.373 . S
C2807 C2809 1.389 . S
C2808 H2781 0.950 . S
C2808 C2794 1.377 . S
C2808 C2807 1.373 . S
C2809 C2793 1.377 . S
C2809 C2807 1.389 . S
C2809 C2810 1.524 . S
C2810 C2809 1.524 . S
C2810 C2811 1.397 . S
C2810 C2815 1.363 . S
C2811 H2782 0.950 . S
C2811 C2810 1.397 . S
C2811 C2812 1.334 . S
C2812 H2783 0.950 . S
C2812 C2811 1.334 . S
C2812 C2813 1.287 . S
C2813 C2812 1.287 . S
C2813 C2814 1.524 . S
C2813 H2816 0.999 . S
C2814 H2784 0.950 . S
C2814 C2813 1.524 . S
C2814 C2815 1.415 . S
C2815 H2785 0.950 . S
C2815 C2810 1.363 . S
C2815 C2814 1.415 . S
H2816 C2813 0.999 . S
H2817 C2798 0.913 . S
H2818 C2836 0.951 . S
H2819 C2838 0.951 . S
H2820 C2840 0.950 . S
H2821 C2841 0.950 . S
H2822 C2843 0.950 . S
H2823 C2846 0.950 . S
H2824 C2847 0.950 . S
H2825 C2849 0.950 . S
H2826 C2850 0.950 . S
H2827 C2851 0.951 . S
H2828 C2853 0.951 . S
H2829 C2855 0.950 . S
H2830 C2856 0.950 . S
H2831 C2858 0.950 . S
H2832 C2861 0.950 . S
H2833 C2862 0.950 . S
H2834 C2864 0.950 . S
H2835 C2865 0.950 . S
C2836 H2818 0.951 . S
C2836 C2837 1.366 . S
C2836 C2838 1.388 . S
C2837 C2836 1.366 . S
C2837 C2841 1.385 . S
C2838 H2819 0.951 . S
C2838 C2836 1.388 . S
C2838 C2839 1.366 . S
C2839 C2838 1.366 . S
C2839 C2840 1.414 . S
C2839 C2842 1.499 . S
C2840 H2820 0.950 . S
C2840 C2839 1.414 . S
C2840 C2841 1.374 . S
C2841 H2821 0.950 . S
C2841 C2837 1.385 . S
C2841 C2840 1.374 . S
C2842 C2839 1.499 . S
C2842 C2843 1.373 . S
C2842 C2844 1.389 . S
C2843 H2822 0.950 . S
C2843 C2842 1.373 . S
C2843 C2859 1.377 . S
C2844 C2842 1.389 . S
C2844 C2845 1.524 . S
C2844 C2858 1.377 . S
C2845 C2844 1.524 . S
C2845 C2846 1.397 . S
C2845 C2850 1.363 . S
C2846 H2823 0.950 . S
C2846 C2845 1.397 . S
C2846 C2847 1.334 . S
C2847 H2824 0.950 . S
C2847 C2846 1.334 . S
C2847 C2848 1.287 . S
C2848 C2847 1.287 . S
C2848 C2849 1.524 . S
C2848 H2867 0.913 . S
C2849 H2825 0.950 . S
C2849 C2848 1.524 . S
C2849 C2850 1.415 . S
C2850 H2826 0.950 . S
C2850 C2845 1.363 . S
C2850 C2849 1.415 . S
C2851 H2827 0.951 . S
C2851 C2852 1.366 . S
C2851 C2853 1.388 . S
C2852 C2851 1.366 . S
C2852 C2856 1.385 . S
C2853 H2828 0.951 . S
C2853 C2851 1.388 . S
C2853 C2854 1.366 . S
C2854 C2853 1.366 . S
C2854 C2855 1.414 . S
C2854 C2857 1.499 . S
C2855 H2829 0.950 . S
C2855 C2854 1.414 . S
C2855 C2856 1.374 . S
C2856 H2830 0.950 . S
C2856 C2852 1.385 . S
C2856 C2855 1.374 . S
C2857 C2854 1.499 . S
C2857 C2858 1.373 . S
C2857 C2859 1.389 . S
C2858 H2831 0.950 . S
C2858 C2844 1.377 . S
C2858 C2857 1.373 . S
C2859 C2843 1.377 . S
C2859 C2857 1.389 . S
C2859 C2860 1.524 . S
C2860 C2859 1.524 . S
C2860 C2861 1.397 . S
C2860 C2865 1.363 . S
C2861 H2832 0.950 . S
C2861 C2860 1.397 . S
C2861 C2862 1.334 . S
C2862 H2833 0.950 . S
C2862 C2861 1.334 . S
C2862 C2863 1.287 . S
C2863 C2862 1.287 . S
C2863 C2864 1.524 . S
C2863 H2866 0.999 . S
C2864 H2834 0.950 . S
C2864 C2863 1.524 . S
C2864 C2865 1.415 . S
C2865 H2835 0.950 . S
C2865 C2860 1.363 . S
C2865 C2864 1.415 . S
H2866 C2863 0.999 . S
H2867 C2848 0.913 . S
H2868 C2886 0.951 . S
H2869 C2888 0.951 . S
H2870 C2890 0.950 . S
H2871 C2891 0.950 . S
H2872 C2893 0.950 . S
H2873 C2896 0.950 . S
H2874 C2897 0.950 . S
H2875 C2899 0.950 . S
H2876 C2900 0.950 . S
H2877 C2901 0.951 . S
H2878 C2903 0.951 . S
H2879 C2905 0.950 . S
H2880 C2906 0.950 . S
H2881 C2908 0.950 . S
H2882 C2911 0.950 . S
H2883 C2912 0.950 . S
H2884 C2914 0.950 . S
H2885 C2915 0.950 . S
C2886 H2868 0.951 . S
C2886 C2887 1.366 . S
C2886 C2888 1.388 . S
C2887 C2886 1.366 . S
C2887 C2891 1.385 . S
C2888 H2869 0.951 . S
C2888 C2886 1.388 . S
C2888 C2889 1.366 . S
C2889 C2888 1.366 . S
C2889 C2890 1.414 . S
C2889 C2892 1.499 . S
C2890 H2870 0.950 . S
C2890 C2889 1.414 . S
C2890 C2891 1.374 . S
C2891 H2871 0.950 . S
C2891 C2887 1.385 . S
C2891 C2890 1.374 . S
C2892 C2889 1.499 . S
C2892 C2893 1.373 . S
C2892 C2894 1.389 . S
C2893 H2872 0.950 . S
C2893 C2892 1.373 . S
C2893 C2909 1.377 . S
C2894 C2892 1.389 . S
C2894 C2895 1.524 . S
C2894 C2908 1.377 . S
C2895 C2894 1.524 . S
C2895 C2896 1.397 . S
C2895 C2900 1.363 . S
C2896 H2873 0.950 . S
C2896 C2895 1.397 . S
C2896 C2897 1.334 . S
C2897 H2874 0.950 . S
C2897 C2896 1.334 . S
C2897 C2898 1.287 . S
C2898 C2897 1.287 . S
C2898 C2899 1.524 . S
C2898 H2917 0.913 . S
C2899 H2875 0.950 . S
C2899 C2898 1.524 . S
C2899 C2900 1.415 . S
C2900 H2876 0.950 . S
C2900 C2895 1.363 . S
C2900 C2899 1.415 . S
C2901 H2877 0.951 . S
C2901 C2902 1.366 . S
C2901 C2903 1.388 . S
C2902 C2901 1.366 . S
C2902 C2906 1.385 . S
C2903 H2878 0.951 . S
C2903 C2901 1.388 . S
C2903 C2904 1.366 . S
C2904 C2903 1.366 . S
C2904 C2905 1.414 . S
C2904 C2907 1.499 . S
C2905 H2879 0.950 . S
C2905 C2904 1.414 . S
C2905 C2906 1.374 . S
C2906 H2880 0.950 . S
C2906 C2902 1.385 . S
C2906 C2905 1.374 . S
C2907 C2904 1.499 . S
C2907 C2908 1.373 . S
C2907 C2909 1.389 . S
C2908 H2881 0.950 . S
C2908 C2894 1.377 . S
C2908 C2907 1.373 . S
C2909 C2893 1.377 . S
C2909 C2907 1.389 . S
C2909 C2910 1.524 . S
C2910 C2909 1.524 . S
C2910 C2911 1.397 . S
C2910 C2915 1.363 . S
C2911 H2882 0.950 . S
C2911 C2910 1.397 . S
C2911 C2912 1.334 . S
C2912 H2883 0.950 . S
C2912 C2911 1.334 . S
C2912 C2913 1.287 . S
C2913 C2912 1.287 . S
C2913 C2914 1.524 . S
C2913 H2916 0.999 . S
C2914 H2884 0.950 . S
C2914 C2913 1.524 . S
C2914 C2915 1.415 . S
C2915 H2885 0.950 . S
C2915 C2910 1.363 . S
C2915 C2914 1.415 . S
H2916 C2913 0.999 . S
H2917 C2898 0.913 . S
H2918 C2936 0.951 . S
H2919 C2938 0.951 . S
H2920 C2940 0.950 . S
H2921 C2941 0.950 . S
H2922 C2943 0.950 . S
H2923 C2946 0.950 . S
H2924 C2947 0.950 . S
H2925 C2949 0.950 . S
H2926 C2950 0.950 . S
H2927 C2951 0.951 . S
H2928 C2953 0.951 . S
H2929 C2955 0.950 . S
H2930 C2956 0.950 . S
H2931 C2958 0.950 . S
H2932 C2961 0.950 . S
H2933 C2962 0.950 . S
H2934 C2964 0.950 . S
H2935 C2965 0.950 . S
C2936 H2918 0.951 . S
C2936 C2937 1.366 . S
C2936 C2938 1.388 . S
C2937 C2936 1.366 . S
C2937 C2941 1.385 . S
C2938 H2919 0.951 . S
C2938 C2936 1.388 . S
C2938 C2939 1.366 . S
C2939 C2938 1.366 . S
C2939 C2940 1.414 . S
C2939 C2942 1.499 . S
C2940 H2920 0.950 . S
C2940 C2939 1.414 . S
C2940 C2941 1.374 . S
C2941 H2921 0.950 . S
C2941 C2937 1.385 . S
C2941 C2940 1.374 . S
C2942 C2939 1.499 . S
C2942 C2943 1.373 . S
C2942 C2944 1.389 . S
C2943 H2922 0.950 . S
C2943 C2942 1.373 . S
C2943 C2959 1.377 . S
C2944 C2942 1.389 . S
C2944 C2945 1.524 . S
C2944 C2958 1.377 . S
C2945 C2944 1.524 . S
C2945 C2946 1.397 . S
C2945 C2950 1.363 . S
C2946 H2923 0.950 . S
C2946 C2945 1.397 . S
C2946 C2947 1.334 . S
C2947 H2924 0.950 . S
C2947 C2946 1.334 . S
C2947 C2948 1.287 . S
C2948 C2947 1.287 . S
C2948 C2949 1.524 . S
C2948 H2967 0.913 . S
C2949 H2925 0.950 . S
C2949 C2948 1.524 . S
C2949 C2950 1.415 . S
C2950 H2926 0.950 . S
C2950 C2945 1.363 . S
C2950 C2949 1.415 . S
C2951 H2927 0.951 . S
C2951 C2952 1.366 . S
C2951 C2953 1.388 . S
C2952 C2951 1.366 . S
C2952 C2956 1.385 . S
C2953 H2928 0.951 . S
C2953 C2951 1.388 . S
C2953 C2954 1.366 . S
C2954 C2953 1.366 . S
C2954 C2955 1.414 . S
C2954 C2957 1.499 . S
C2955 H2929 0.950 . S
C2955 C2954 1.414 . S
C2955 C2956 1.374 . S
C2956 H2930 0.950 . S
C2956 C2952 1.385 . S
C2956 C2955 1.374 . S
C2957 C2954 1.499 . S
C2957 C2958 1.373 . S
C2957 C2959 1.389 . S
C2958 H2931 0.950 . S
C2958 C2944 1.377 . S
C2958 C2957 1.373 . S
C2959 C2943 1.377 . S
C2959 C2957 1.389 . S
C2959 C2960 1.524 . S
C2960 C2959 1.524 . S
C2960 C2961 1.397 . S
C2960 C2965 1.363 . S
C2961 H2932 0.950 . S
C2961 C2960 1.397 . S
C2961 C2962 1.334 . S
C2962 H2933 0.950 . S
C2962 C2961 1.334 . S
C2962 C2963 1.287 . S
C2963 C2962 1.287 . S
C2963 C2964 1.524 . S
C2963 H2966 0.999 . S
C2964 H2934 0.950 . S
C2964 C2963 1.524 . S
C2964 C2965 1.415 . S
C2965 H2935 0.950 . S
C2965 C2960 1.363 . S
C2965 C2964 1.415 . S
H2966 C2963 0.999 . S
H2967 C2948 0.913 . S
H2968 C2986 0.951 . S
H2969 C2988 0.951 . S
H2970 C2990 0.950 . S
H2971 C2991 0.950 . S
H2972 C2993 0.950 . S
H2973 C2996 0.950 . S
H2974 C2997 0.950 . S
H2975 C2999 0.950 . S
H2976 C3000 0.950 . S
H2977 C3001 0.951 . S
H2978 C3003 0.951 . S
H2979 C3005 0.950 . S
H2980 C3006 0.950 . S
H2981 C3008 0.950 . S
H2982 C3011 0.950 . S
H2983 C3012 0.950 . S
H2984 C3014 0.950 . S
H2985 C3015 0.950 . S
C2986 H2968 0.951 . S
C2986 C2987 1.366 . S
C2986 C2988 1.388 . S
C2987 C2986 1.366 . S
C2987 C2991 1.385 . S
C2988 H2969 0.951 . S
C2988 C2986 1.388 . S
C2988 C2989 1.366 . S
C2989 C2988 1.366 . S
C2989 C2990 1.414 . S
C2989 C2992 1.499 . S
C2990 H2970 0.950 . S
C2990 C2989 1.414 . S
C2990 C2991 1.374 . S
C2991 H2971 0.950 . S
C2991 C2987 1.385 . S
C2991 C2990 1.374 . S
C2992 C2989 1.499 . S
C2992 C2993 1.373 . S
C2992 C2994 1.389 . S
C2993 H2972 0.950 . S
C2993 C2992 1.373 . S
C2993 C3009 1.377 . S
C2994 C2992 1.389 . S
C2994 C2995 1.524 . S
C2994 C3008 1.377 . S
C2995 C2994 1.524 . S
C2995 C2996 1.397 . S
C2995 C3000 1.363 . S
C2996 H2973 0.950 . S
C2996 C2995 1.397 . S
C2996 C2997 1.334 . S
C2997 H2974 0.950 . S
C2997 C2996 1.334 . S
C2997 C2998 1.287 . S
C2998 C2997 1.287 . S
C2998 C2999 1.524 . S
C2998 H3017 0.913 . S
C2999 H2975 0.950 . S
C2999 C2998 1.524 . S
C2999 C3000 1.415 . S
C3000 H2976 0.950 . S
C3000 C2995 1.363 . S
C3000 C2999 1.415 . S
C3001 H2977 0.951 . S
C3001 C3002 1.366 . S
C3001 C3003 1.388 . S
C3002 C3001 1.366 . S
C3002 C3006 1.385 . S
C3003 H2978 0.951 . S
C3003 C3001 1.388 . S
C3003 C3004 1.366 . S
C3004 C3003 1.366 . S
C3004 C3005 1.414 . S
C3004 C3007 1.499 . S
C3005 H2979 0.950 . S
C3005 C3004 1.414 . S
C3005 C3006 1.374 . S
C3006 H2980 0.950 . S
C3006 C3002 1.385 . S
C3006 C3005 1.374 . S
C3007 C3004 1.499 . S
C3007 C3008 1.373 . S
C3007 C3009 1.389 . S
C3008 H2981 0.950 . S
C3008 C2994 1.377 . S
C3008 C3007 1.373 . S
C3009 C2993 1.377 . S
C3009 C3007 1.389 . S
C3009 C3010 1.524 . S
C3010 C3009 1.524 . S
C3010 C3011 1.397 . S
C3010 C3015 1.363 . S
C3011 H2982 0.950 . S
C3011 C3010 1.397 . S
C3011 C3012 1.334 . S
C3012 H2983 0.950 . S
C3012 C3011 1.334 . S
C3012 C3013 1.287 . S
C3013 C3012 1.287 . S
C3013 C3014 1.524 . S
C3013 H3016 0.999 . S
C3014 H2984 0.950 . S
C3014 C3013 1.524 . S
C3014 C3015 1.415 . S
C3015 H2985 0.950 . S
C3015 C3010 1.363 . S
C3015 C3014 1.415 . S
H3016 C3013 0.999 . S
H3017 C2998 0.913 . S
H3018 C3036 0.951 . S
H3019 C3038 0.951 . S
H3020 C3040 0.950 . S
H3021 C3041 0.950 . S
H3022 C3043 0.950 . S
H3023 C3046 0.950 . S
H3024 C3047 0.950 . S
H3025 C3049 0.950 . S
H3026 C3050 0.950 . S
H3027 C3051 0.951 . S
H3028 C3053 0.951 . S
H3029 C3055 0.950 . S
H3030 C3056 0.950 . S
H3031 C3058 0.950 . S
H3032 C3061 0.950 . S
H3033 C3062 0.950 . S
H3034 C3064 0.950 . S
H3035 C3065 0.950 . S
C3036 H3018 0.951 . S
C3036 C3037 1.366 . S
C3036 C3038 1.388 . S
C3037 C3036 1.366 . S
C3037 C3041 1.385 . S
C3038 H3019 0.951 . S
C3038 C3036 1.388 . S
C3038 C3039 1.366 . S
C3039 C3038 1.366 . S
C3039 C3040 1.414 . S
C3039 C3042 1.499 . S
C3040 H3020 0.950 . S
C3040 C3039 1.414 . S
C3040 C3041 1.374 . S
C3041 H3021 0.950 . S
C3041 C3037 1.385 . S
C3041 C3040 1.374 . S
C3042 C3039 1.499 . S
C3042 C3043 1.373 . S
C3042 C3044 1.389 . S
C3043 H3022 0.950 . S
C3043 C3042 1.373 . S
C3043 C3059 1.377 . S
C3044 C3042 1.389 . S
C3044 C3045 1.524 . S
C3044 C3058 1.377 . S
C3045 C3044 1.524 . S
C3045 C3046 1.397 . S
C3045 C3050 1.363 . S
C3046 H3023 0.950 . S
C3046 C3045 1.397 . S
C3046 C3047 1.334 . S
C3047 H3024 0.950 . S
C3047 C3046 1.334 . S
C3047 C3048 1.287 . S
C3048 C3047 1.287 . S
C3048 C3049 1.524 . S
C3048 H3067 0.913 . S
C3049 H3025 0.950 . S
C3049 C3048 1.524 . S
C3049 C3050 1.415 . S
C3050 H3026 0.950 . S
C3050 C3045 1.363 . S
C3050 C3049 1.415 . S
C3051 H3027 0.951 . S
C3051 C3052 1.366 . S
C3051 C3053 1.388 . S
C3052 C3051 1.366 . S
C3052 C3056 1.385 . S
C3053 H3028 0.951 . S
C3053 C3051 1.388 . S
C3053 C3054 1.366 . S
C3054 C3053 1.366 . S
C3054 C3055 1.414 . S
C3054 C3057 1.499 . S
C3055 H3029 0.950 . S
C3055 C3054 1.414 . S
C3055 C3056 1.374 . S
C3056 H3030 0.950 . S
C3056 C3052 1.385 . S
C3056 C3055 1.374 . S
C3057 C3054 1.499 . S
C3057 C3058 1.373 . S
C3057 C3059 1.389 . S
C3058 H3031 0.950 . S
C3058 C3044 1.377 . S
C3058 C3057 1.373 . S
C3059 C3043 1.377 . S
C3059 C3057 1.389 . S
C3059 C3060 1.524 . S
C3060 C3059 1.524 . S
C3060 C3061 1.397 . S
C3060 C3065 1.363 . S
C3061 H3032 0.950 . S
C3061 C3060 1.397 . S
C3061 C3062 1.334 . S
C3062 H3033 0.950 . S
C3062 C3061 1.334 . S
C3062 C3063 1.287 . S
C3063 C3062 1.287 . S
C3063 C3064 1.524 . S
C3063 H3066 0.999 . S
C3064 H3034 0.950 . S
C3064 C3063 1.524 . S
C3064 C3065 1.415 . S
C3065 H3035 0.950 . S
C3065 C3060 1.363 . S
C3065 C3064 1.415 . S
H3066 C3063 0.999 . S
H3067 C3048 0.913 . S
H3068 C3086 0.951 . S
H3069 C3088 0.951 . S
H3070 C3090 0.950 . S
H3071 C3091 0.950 . S
H3072 C3093 0.950 . S
H3073 C3096 0.950 . S
H3074 C3097 0.950 . S
H3075 C3099 0.950 . S
H3076 C3100 0.950 . S
H3077 C3101 0.951 . S
H3078 C3103 0.951 . S
H3079 C3105 0.950 . S
H3080 C3106 0.950 . S
H3081 C3108 0.950 . S
H3082 C3111 0.950 . S
H3083 C3112 0.950 . S
H3084 C3114 0.950 . S
H3085 C3115 0.950 . S
C3086 H3068 0.951 . S
C3086 C3087 1.366 . S
C3086 C3088 1.388 . S
C3087 C3086 1.366 . S
C3087 C3091 1.385 . S
C3088 H3069 0.951 . S
C3088 C3086 1.388 . S
C3088 C3089 1.366 . S
C3089 C3088 1.366 . S
C3089 C3090 1.414 . S
C3089 C3092 1.499 . S
C3090 H3070 0.950 . S
C3090 C3089 1.414 . S
C3090 C3091 1.374 . S
C3091 H3071 0.950 . S
C3091 C3087 1.385 . S
C3091 C3090 1.374 . S
C3092 C3089 1.499 . S
C3092 C3093 1.373 . S
C3092 C3094 1.389 . S
C3093 H3072 0.950 . S
C3093 C3092 1.373 . S
C3093 C3109 1.377 . S
C3094 C3092 1.389 . S
C3094 C3095 1.524 . S
C3094 C3108 1.377 . S
C3095 C3094 1.524 . S
C3095 C3096 1.397 . S
C3095 C3100 1.363 . S
C3096 H3073 0.950 . S
C3096 C3095 1.397 . S
C3096 C3097 1.334 . S
C3097 H3074 0.950 . S
C3097 C3096 1.334 . S
C3097 C3098 1.287 . S
C3098 C3097 1.287 . S
C3098 C3099 1.524 . S
C3098 H3117 0.913 . S
C3099 H3075 0.950 . S
C3099 C3098 1.524 . S
C3099 C3100 1.415 . S
C3100 H3076 0.950 . S
C3100 C3095 1.363 . S
C3100 C3099 1.415 . S
C3101 H3077 0.951 . S
C3101 C3102 1.366 . S
C3101 C3103 1.388 . S
C3102 C3101 1.366 . S
C3102 C3106 1.385 . S
C3103 H3078 0.951 . S
C3103 C3101 1.388 . S
C3103 C3104 1.366 . S
C3104 C3103 1.366 . S
C3104 C3105 1.414 . S
C3104 C3107 1.499 . S
C3105 H3079 0.950 . S
C3105 C3104 1.414 . S
C3105 C3106 1.374 . S
C3106 H3080 0.950 . S
C3106 C3102 1.385 . S
C3106 C3105 1.374 . S
C3107 C3104 1.499 . S
C3107 C3108 1.373 . S
C3107 C3109 1.389 . S
C3108 H3081 0.950 . S
C3108 C3094 1.377 . S
C3108 C3107 1.373 . S
C3109 C3093 1.377 . S
C3109 C3107 1.389 . S
C3109 C3110 1.524 . S
C3110 C3109 1.524 . S
C3110 C3111 1.397 . S
C3110 C3115 1.363 . S
C3111 H3082 0.950 . S
C3111 C3110 1.397 . S
C3111 C3112 1.334 . S
C3112 H3083 0.950 . S
C3112 C3111 1.334 . S
C3112 C3113 1.287 . S
C3113 C3112 1.287 . S
C3113 C3114 1.524 . S
C3113 H3116 0.999 . S
C3114 H3084 0.950 . S
C3114 C3113 1.524 . S
C3114 C3115 1.415 . S
C3115 H3085 0.950 . S
C3115 C3110 1.363 . S
C3115 C3114 1.415 . S
H3116 C3113 0.999 . S
H3117 C3098 0.913 . S
H3118 C3136 0.951 . S
H3119 C3138 0.951 . S
H3120 C3140 0.950 . S
H3121 C3141 0.950 . S
H3122 C3143 0.950 . S
H3123 C3146 0.950 . S
H3124 C3147 0.950 . S
H3125 C3149 0.950 . S
H3126 C3150 0.950 . S
H3127 C3151 0.951 . S
H3128 C3153 0.951 . S
H3129 C3155 0.950 . S
H3130 C3156 0.950 . S
H3131 C3158 0.950 . S
H3132 C3161 0.950 . S
H3133 C3162 0.950 . S
H3134 C3164 0.950 . S
H3135 C3165 0.950 . S
C3136 H3118 0.951 . S
C3136 C3137 1.366 . S
C3136 C3138 1.388 . S
C3137 C3136 1.366 . S
C3137 C3141 1.385 . S
C3138 H3119 0.951 . S
C3138 C3136 1.388 . S
C3138 C3139 1.366 . S
C3139 C3138 1.366 . S
C3139 C3140 1.414 . S
C3139 C3142 1.499 . S
C3140 H3120 0.950 . S
C3140 C3139 1.414 . S
C3140 C3141 1.374 . S
C3141 H3121 0.950 . S
C3141 C3137 1.385 . S
C3141 C3140 1.374 . S
C3142 C3139 1.499 . S
C3142 C3143 1.373 . S
C3142 C3144 1.389 . S
C3143 H3122 0.950 . S
C3143 C3142 1.373 . S
C3143 C3159 1.377 . S
C3144 C3142 1.389 . S
C3144 C3145 1.524 . S
C3144 C3158 1.377 . S
C3145 C3144 1.524 . S
C3145 C3146 1.397 . S
C3145 C3150 1.363 . S
C3146 H3123 0.950 . S
C3146 C3145 1.397 . S
C3146 C3147 1.334 . S
C3147 H3124 0.950 . S
C3147 C3146 1.334 . S
C3147 C3148 1.287 . S
C3148 C3147 1.287 . S
C3148 C3149 1.524 . S
C3148 H3167 0.913 . S
C3149 H3125 0.950 . S
C3149 C3148 1.524 . S
C3149 C3150 1.415 . S
C3150 H3126 0.950 . S
C3150 C3145 1.363 . S
C3150 C3149 1.415 . S
C3151 H3127 0.951 . S
C3151 C3152 1.366 . S
C3151 C3153 1.388 . S
C3152 C3151 1.366 . S
C3152 C3156 1.385 . S
C3153 H3128 0.951 . S
C3153 C3151 1.388 . S
C3153 C3154 1.366 . S
C3154 C3153 1.366 . S
C3154 C3155 1.414 . S
C3154 C3157 1.499 . S
C3155 H3129 0.950 . S
C3155 C3154 1.414 . S
C3155 C3156 1.374 . S
C3156 H3130 0.950 . S
C3156 C3152 1.385 . S
C3156 C3155 1.374 . S
C3157 C3154 1.499 . S
C3157 C3158 1.373 . S
C3157 C3159 1.389 . S
C3158 H3131 0.950 . S
C3158 C3144 1.377 . S
C3158 C3157 1.373 . S
C3159 C3143 1.377 . S
C3159 C3157 1.389 . S
C3159 C3160 1.524 . S
C3160 C3159 1.524 . S
C3160 C3161 1.397 . S
C3160 C3165 1.363 . S
C3161 H3132 0.950 . S
C3161 C3160 1.397 . S
C3161 C3162 1.334 . S
C3162 H3133 0.950 . S
C3162 C3161 1.334 . S
C3162 C3163 1.287 . S
C3163 C3162 1.287 . S
C3163 C3164 1.524 . S
C3163 H3166 0.999 . S
C3164 H3134 0.950 . S
C3164 C3163 1.524 . S
C3164 C3165 1.415 . S
C3165 H3135 0.950 . S
C3165 C3160 1.363 . S
C3165 C3164 1.415 . S
H3166 C3163 0.999 . S
H3167 C3148 0.913 . S
H3168 C3186 0.951 . S
H3169 C3188 0.951 . S
H3170 C3190 0.950 . S
H3171 C3191 0.950 . S
H3172 C3193 0.950 . S
H3173 C3196 0.950 . S
H3174 C3197 0.950 . S
H3175 C3199 0.950 . S
H3176 C3200 0.950 . S
H3177 C3201 0.951 . S
H3178 C3203 0.951 . S
H3179 C3205 0.950 . S
H3180 C3206 0.950 . S
H3181 C3208 0.950 . S
H3182 C3211 0.950 . S
H3183 C3212 0.950 . S
H3184 C3214 0.950 . S
H3185 C3215 0.950 . S
C3186 H3168 0.951 . S
C3186 C3187 1.366 . S
C3186 C3188 1.388 . S
C3187 C3186 1.366 . S
C3187 C3191 1.385 . S
C3188 H3169 0.951 . S
C3188 C3186 1.388 . S
C3188 C3189 1.366 . S
C3189 C3188 1.366 . S
C3189 C3190 1.414 . S
C3189 C3192 1.499 . S
C3190 H3170 0.950 . S
C3190 C3189 1.414 . S
C3190 C3191 1.374 . S
C3191 H3171 0.950 . S
C3191 C3187 1.385 . S
C3191 C3190 1.374 . S
C3192 C3189 1.499 . S
C3192 C3193 1.373 . S
C3192 C3194 1.389 . S
C3193 H3172 0.950 . S
C3193 C3192 1.373 . S
C3193 C3209 1.377 . S
C3194 C3192 1.389 . S
C3194 C3195 1.524 . S
C3194 C3208 1.377 . S
C3195 C3194 1.524 . S
C3195 C3196 1.397 . S
C3195 C3200 1.363 . S
C3196 H3173 0.950 . S
C3196 C3195 1.397 . S
C3196 C3197 1.334 . S
C3197 H3174 0.950 . S
C3197 C3196 1.334 . S
C3197 C3198 1.287 . S
C3198 C3197 1.287 . S
C3198 C3199 1.524 . S
C3198 H3217 0.913 . S
C3199 H3175 0.950 . S
C3199 C3198 1.524 . S
C3199 C3200 1.415 . S
C3200 H3176 0.950 . S
C3200 C3195 1.363 . S
C3200 C3199 1.415 . S
C3201 H3177 0.951 . S
C3201 C3202 1.366 . S
C3201 C3203 1.388 . S
C3202 C3201 1.366 . S
C3202 C3206 1.385 . S
C3203 H3178 0.951 . S
C3203 C3201 1.388 . S
C3203 C3204 1.366 . S
C3204 C3203 1.366 . S
C3204 C3205 1.414 . S
C3204 C3207 1.499 . S
C3205 H3179 0.950 . S
C3205 C3204 1.414 . S
C3205 C3206 1.374 . S
C3206 H3180 0.950 . S
C3206 C3202 1.385 . S
C3206 C3205 1.374 . S
C3207 C3204 1.499 . S
C3207 C3208 1.373 . S
C3207 C3209 1.389 . S
C3208 H3181 0.950 . S
C3208 C3194 1.377 . S
C3208 C3207 1.373 . S
C3209 C3193 1.377 . S
C3209 C3207 1.389 . S
C3209 C3210 1.524 . S
C3210 C3209 1.524 . S
C3210 C3211 1.397 . S
C3210 C3215 1.363 . S
C3211 H3182 0.950 . S
C3211 C3210 1.397 . S
C3211 C3212 1.334 . S
C3212 H3183 0.950 . S
C3212 C3211 1.334 . S
C3212 C3213 1.287 . S
C3213 C3212 1.287 . S
C3213 C3214 1.524 . S
C3213 H3216 0.999 . S
C3214 H3184 0.950 . S
C3214 C3213 1.524 . S
C3214 C3215 1.415 . S
C3215 H3185 0.950 . S
C3215 C3210 1.363 . S
C3215 C3214 1.415 . S
H3216 C3213 0.999 . S
H3217 C3198 0.913 . S
H3218 C3236 0.951 . S
H3219 C3238 0.951 . S
H3220 C3240 0.950 . S
H3221 C3241 0.950 . S
H3222 C3243 0.950 . S
H3223 C3246 0.950 . S
H3224 C3247 0.950 . S
H3225 C3249 0.950 . S
H3226 C3250 0.950 . S
H3227 C3251 0.951 . S
H3228 C3253 0.951 . S
H3229 C3255 0.950 . S
H3230 C3256 0.950 . S
H3231 C3258 0.950 . S
H3232 C3261 0.950 . S
H3233 C3262 0.950 . S
H3234 C3264 0.950 . S
H3235 C3265 0.950 . S
C3236 H3218 0.951 . S
C3236 C3237 1.366 . S
C3236 C3238 1.388 . S
C3237 C3236 1.366 . S
C3237 C3241 1.385 . S
C3238 H3219 0.951 . S
C3238 C3236 1.388 . S
C3238 C3239 1.366 . S
C3239 C3238 1.366 . S
C3239 C3240 1.414 . S
C3239 C3242 1.499 . S
C3240 H3220 0.950 . S
C3240 C3239 1.414 . S
C3240 C3241 1.374 . S
C3241 H3221 0.950 . S
C3241 C3237 1.385 . S
C3241 C3240 1.374 . S
C3242 C3239 1.499 . S
C3242 C3243 1.373 . S
C3242 C3244 1.389 . S
C3243 H3222 0.950 . S
C3243 C3242 1.373 . S
C3243 C3259 1.377 . S
C3244 C3242 1.389 . S
C3244 C3245 1.524 . S
C3244 C3258 1.377 . S
C3245 C3244 1.524 . S
C3245 C3246 1.397 . S
C3245 C3250 1.363 . S
C3246 H3223 0.950 . S
C3246 C3245 1.397 . S
C3246 C3247 1.334 . S
C3247 H3224 0.950 . S
C3247 C3246 1.334 . S
C3247 C3248 1.287 . S
C3248 C3247 1.287 . S
C3248 C3249 1.524 . S
C3248 H3267 0.913 . S
C3249 H3225 0.950 . S
C3249 C3248 1.524 . S
C3249 C3250 1.415 . S
C3250 H3226 0.950 . S
C3250 C3245 1.363 . S
C3250 C3249 1.415 . S
C3251 H3227 0.951 . S
C3251 C3252 1.366 . S
C3251 C3253 1.388 . S
C3252 C3251 1.366 . S
C3252 C3256 1.385 . S
C3253 H3228 0.951 . S
C3253 C3251 1.388 . S
C3253 C3254 1.366 . S
C3254 C3253 1.366 . S
C3254 C3255 1.414 . S
C3254 C3257 1.499 . S
C3255 H3229 0.950 . S
C3255 C3254 1.414 . S
C3255 C3256 1.374 . S
C3256 H3230 0.950 . S
C3256 C3252 1.385 . S
C3256 C3255 1.374 . S
C3257 C3254 1.499 . S
C3257 C3258 1.373 . S
C3257 C3259 1.389 . S
C3258 H3231 0.950 . S
C3258 C3244 1.377 . S
C3258 C3257 1.373 . S
C3259 C3243 1.377 . S
C3259 C3257 1.389 . S
C3259 C3260 1.524 . S
C3260 C3259 1.524 . S
C3260 C3261 1.397 . S
C3260 C3265 1.363 . S
C3261 H3232 0.950 . S
C3261 C3260 1.397 . S
C3261 C3262 1.334 . S
C3262 H3233 0.950 . S
C3262 C3261 1.334 . S
C3262 C3263 1.287 . S
C3263 C3262 1.287 . S
C3263 C3264 1.524 . S
C3263 H3266 0.999 . S
C3264 H3234 0.950 . S
C3264 C3263 1.524 . S
C3264 C3265 1.415 . S
C3265 H3235 0.950 . S
C3265 C3260 1.363 . S
C3265 C3264 1.415 . S
H3266 C3263 0.999 . S
H3267 C3248 0.913 . S
H3268 C3286 0.951 . S
H3269 C3288 0.951 . S
H3270 C3290 0.950 . S
H3271 C3291 0.950 . S
H3272 C3293 0.950 . S
H3273 C3296 0.950 . S
H3274 C3297 0.950 . S
H3275 C3299 0.950 . S
H3276 C3300 0.950 . S
H3277 C3301 0.951 . S
H3278 C3303 0.951 . S
H3279 C3305 0.950 . S
H3280 C3306 0.950 . S
H3281 C3308 0.950 . S
H3282 C3311 0.950 . S
H3283 C3312 0.950 . S
H3284 C3314 0.950 . S
H3285 C3315 0.950 . S
C3286 H3268 0.951 . S
C3286 C3287 1.366 . S
C3286 C3288 1.388 . S
C3287 C3286 1.366 . S
C3287 C3291 1.385 . S
C3288 H3269 0.951 . S
C3288 C3286 1.388 . S
C3288 C3289 1.366 . S
C3289 C3288 1.366 . S
C3289 C3290 1.414 . S
C3289 C3292 1.499 . S
C3290 H3270 0.950 . S
C3290 C3289 1.414 . S
C3290 C3291 1.374 . S
C3291 H3271 0.950 . S
C3291 C3287 1.385 . S
C3291 C3290 1.374 . S
C3292 C3289 1.499 . S
C3292 C3293 1.373 . S
C3292 C3294 1.389 . S
C3293 H3272 0.950 . S
C3293 C3292 1.373 . S
C3293 C3309 1.377 . S
C3294 C3292 1.389 . S
C3294 C3295 1.524 . S
C3294 C3308 1.377 . S
C3295 C3294 1.524 . S
C3295 C3296 1.397 . S
C3295 C3300 1.363 . S
C3296 H3273 0.950 . S
C3296 C3295 1.397 . S
C3296 C3297 1.334 . S
C3297 H3274 0.950 . S
C3297 C3296 1.334 . S
C3297 C3298 1.287 . S
C3298 C3297 1.287 . S
C3298 C3299 1.524 . S
C3298 H3317 0.935 . S
C3299 H3275 0.950 . S
C3299 C3298 1.524 . S
C3299 C3300 1.415 . S
C3300 H3276 0.950 . S
C3300 C3295 1.363 . S
C3300 C3299 1.415 . S
C3301 H3277 0.951 . S
C3301 C3302 1.366 . S
C3301 C3303 1.388 . S
C3302 C3301 1.366 . S
C3302 C3306 1.385 . S
C3303 H3278 0.951 . S
C3303 C3301 1.388 . S
C3303 C3304 1.366 . S
C3304 C3303 1.366 . S
C3304 C3305 1.414 . S
C3304 C3307 1.499 . S
C3305 H3279 0.950 . S
C3305 C3304 1.414 . S
C3305 C3306 1.374 . S
C3306 H3280 0.950 . S
C3306 C3302 1.385 . S
C3306 C3305 1.374 . S
C3307 C3304 1.499 . S
C3307 C3308 1.373 . S
C3307 C3309 1.389 . S
C3308 H3281 0.950 . S
C3308 C3294 1.377 . S
C3308 C3307 1.373 . S
C3309 C3293 1.377 . S
C3309 C3307 1.389 . S
C3309 C3310 1.524 . S
C3310 C3309 1.524 . S
C3310 C3311 1.397 . S
C3310 C3315 1.363 . S
C3311 H3282 0.950 . S
C3311 C3310 1.397 . S
C3311 C3312 1.334 . S
C3312 H3283 0.950 . S
C3312 C3311 1.334 . S
C3312 C3313 1.287 . S
C3313 C3312 1.287 . S
C3313 C3314 1.524 . S
C3313 H3316 0.999 . S
C3314 H3284 0.950 . S
C3314 C3313 1.524 . S
C3314 C3315 1.415 . S
C3315 H3285 0.950 . S
C3315 C3310 1.363 . S
C3315 C3314 1.415 . S
H3316 C3313 0.999 . S
H3317 C3298 0.935 . S
H3318 C3336 0.951 1_554 S
H3319 C3338 0.951 . S
H3320 C3340 0.950 . S
H3321 C3341 0.950 . S
H3322 C3343 0.950 . S
H3323 C3346 0.950 . S
H3324 C3347 0.950 . S
H3325 C3349 0.950 . S
H3326 C3350 0.950 . S
H3327 C3351 0.951 . S
H3328 C3353 0.951 . S
H3329 C3355 0.950 . S
H3330 C3356 0.950 . S
H3331 C3358 0.950 . S
H3332 C3361 0.950 . S
H3333 C3362 0.950 . S
H3334 C3364 0.950 . S
H3335 C3365 0.950 . S
C3336 H3318 0.951 1_556 S
C3336 C3337 1.366 . S
C3336 C3338 1.388 . S
C3337 C3336 1.366 . S
C3337 C3341 1.385 . S
C3338 H3319 0.951 . S
C3338 C3336 1.388 . S
C3338 C3339 1.366 . S
C3339 C3338 1.366 . S
C3339 C3340 1.414 . S
C3339 C3342 1.499 . S
C3340 H3320 0.950 . S
C3340 C3339 1.414 . S
C3340 C3341 1.374 . S
C3341 H3321 0.950 . S
C3341 C3337 1.385 . S
C3341 C3340 1.374 . S
C3342 C3339 1.499 . S
C3342 C3343 1.373 . S
C3342 C3344 1.389 . S
C3343 H3322 0.950 . S
C3343 C3342 1.373 . S
C3343 C3359 1.377 . S
C3344 C3342 1.389 . S
C3344 C3345 1.524 . S
C3344 C3358 1.377 . S
C3345 C3344 1.524 . S
C3345 C3346 1.397 . S
C3345 C3350 1.363 1_556 S
C3346 H3323 0.950 . S
C3346 C3345 1.397 . S
C3346 C3347 1.334 1_556 S
C3347 H3324 0.950 . S
C3347 C3346 1.334 1_554 S
C3347 C3348 1.287 . S
C3348 C3347 1.287 . S
C3348 C3349 1.524 . S
C3348 H3367 0.913 . S
C3349 H3325 0.950 . S
C3349 C3348 1.524 . S
C3349 C3350 1.415 . S
C3350 H3326 0.950 . S
C3350 C3345 1.363 1_554 S
C3350 C3349 1.415 . S
C3351 H3327 0.951 . S
C3351 C3352 1.366 . S
C3351 C3353 1.388 . S
C3352 C3351 1.366 . S
C3352 C3356 1.385 . S
C3353 H3328 0.951 . S
C3353 C3351 1.388 . S
C3353 C3354 1.366 . S
C3354 C3353 1.366 . S
C3354 C3355 1.414 . S
C3354 C3357 1.499 . S
C3355 H3329 0.950 . S
C3355 C3354 1.414 . S
C3355 C3356 1.374 . S
C3356 H3330 0.950 . S
C3356 C3352 1.385 . S
C3356 C3355 1.374 . S
C3357 C3354 1.499 . S
C3357 C3358 1.373 . S
C3357 C3359 1.389 . S
C3358 H3331 0.950 . S
C3358 C3344 1.377 . S
C3358 C3357 1.373 . S
C3359 C3343 1.377 . S
C3359 C3357 1.389 . S
C3359 C3360 1.524 . S
C3360 C3359 1.524 . S
C3360 C3361 1.397 . S
C3360 C3365 1.363 . S
C3361 H3332 0.950 . S
C3361 C3360 1.397 . S
C3361 C3362 1.334 . S
C3362 H3333 0.950 . S
C3362 C3361 1.334 . S
C3362 C3363 1.287 . S
C3363 C3362 1.287 . S
C3363 C3364 1.524 . S
C3363 H3366 0.999 . S
C3364 H3334 0.950 . S
C3364 C3363 1.524 . S
C3364 C3365 1.415 . S
C3365 H3335 0.950 . S
C3365 C3360 1.363 . S
C3365 C3364 1.415 . S
H3366 C3363 0.999 . S
H3367 C3348 0.913 . S
H3368 C3386 0.951 1_554 S
H3369 C3388 0.951 . S
H3370 C3390 0.950 . S
H3371 C3391 0.950 . S
H3372 C3393 0.950 . S
H3373 C3396 0.950 . S
H3374 C3397 0.950 . S
H3375 C3399 0.950 . S
H3376 C3400 0.950 . S
H3377 C3401 0.951 . S
H3378 C3403 0.951 . S
H3379 C3405 0.950 . S
H3380 C3406 0.950 . S
H3381 C3408 0.950 . S
H3382 C3411 0.950 . S
H3383 C3412 0.950 . S
H3384 C3414 0.950 . S
H3385 C3415 0.950 . S
C3386 H3368 0.951 1_556 S
C3386 C3387 1.366 . S
C3386 C3388 1.388 . S
C3387 C3386 1.366 . S
C3387 C3391 1.385 . S
C3388 H3369 0.951 . S
C3388 C3386 1.388 . S
C3388 C3389 1.366 . S
C3389 C3388 1.366 . S
C3389 C3390 1.414 . S
C3389 C3392 1.499 . S
C3390 H3370 0.950 . S
C3390 C3389 1.414 . S
C3390 C3391 1.374 . S
C3391 H3371 0.950 . S
C3391 C3387 1.385 . S
C3391 C3390 1.374 . S
C3392 C3389 1.499 . S
C3392 C3393 1.373 . S
C3392 C3394 1.389 . S
C3393 H3372 0.950 . S
C3393 C3392 1.373 . S
C3393 C3409 1.377 . S
C3394 C3392 1.389 . S
C3394 C3395 1.524 . S
C3394 C3408 1.377 . S
C3395 C3394 1.524 . S
C3395 C3396 1.397 . S
C3395 C3400 1.363 . S
C3396 H3373 0.950 . S
C3396 C3395 1.397 . S
C3396 C3397 1.334 . S
C3397 H3374 0.950 . S
C3397 C3396 1.334 . S
C3397 C3398 1.287 . S
C3398 C3397 1.287 . S
C3398 C3399 1.524 . S
C3398 H3417 0.913 . S
C3399 H3375 0.950 . S
C3399 C3398 1.524 . S
C3399 C3400 1.415 . S
C3400 H3376 0.950 . S
C3400 C3395 1.363 . S
C3400 C3399 1.415 . S
C3401 H3377 0.951 . S
C3401 C3402 1.366 . S
C3401 C3403 1.388 . S
C3402 C3401 1.366 . S
C3402 C3406 1.385 . S
C3403 H3378 0.951 . S
C3403 C3401 1.388 . S
C3403 C3404 1.366 . S
C3404 C3403 1.366 . S
C3404 C3405 1.414 . S
C3404 C3407 1.499 . S
C3405 H3379 0.950 . S
C3405 C3404 1.414 . S
C3405 C3406 1.374 . S
C3406 H3380 0.950 . S
C3406 C3402 1.385 . S
C3406 C3405 1.374 . S
C3407 C3404 1.499 . S
C3407 C3408 1.373 . S
C3407 C3409 1.389 . S
C3408 H3381 0.950 . S
C3408 C3394 1.377 . S
C3408 C3407 1.373 . S
C3409 C3393 1.377 . S
C3409 C3407 1.389 . S
C3409 C3410 1.524 . S
C3410 C3409 1.524 . S
C3410 C3411 1.397 . S
C3410 C3415 1.363 . S
C3411 H3382 0.950 . S
C3411 C3410 1.397 . S
C3411 C3412 1.334 . S
C3412 H3383 0.950 . S
C3412 C3411 1.334 . S
C3412 C3413 1.287 . S
C3413 C3412 1.287 . S
C3413 C3414 1.524 . S
C3413 H3416 0.999 . S
C3414 H3384 0.950 . S
C3414 C3413 1.524 . S
C3414 C3415 1.415 . S
C3415 H3385 0.950 . S
C3415 C3410 1.363 . S
C3415 C3414 1.415 . S
H3416 C3413 0.999 . S
H3417 C3398 0.913 . S
H3418 C3436 0.951 . S
H3419 C3438 0.951 . S
H3420 C3440 0.950 . S
H3421 C3441 0.950 1_554 S
H3422 C3443 0.950 . S
H3423 C3446 0.950 . S
H3424 C3447 0.950 . S
H3425 C3449 0.950 . S
H3426 C3450 0.950 . S
H3427 C3451 0.951 . S
H3428 C3453 0.951 . S
H3429 C3455 0.950 . S
H3430 C3456 0.950 . S
H3431 C3458 0.950 . S
H3432 C3461 0.950 . S
H3433 C3462 0.950 . S
H3434 C3464 0.950 . S
H3435 C3465 0.950 . S
C3436 H3418 0.951 . S
C3436 C3437 1.366 . S
C3436 C3438 1.388 . S
C3437 C3436 1.366 . S
C3437 C3441 1.385 . S
C3438 H3419 0.951 . S
C3438 C3436 1.388 . S
C3438 C3439 1.366 . S
C3439 C3438 1.366 . S
C3439 C3440 1.414 . S
C3439 C3442 1.499 . S
C3440 H3420 0.950 . S
C3440 C3439 1.414 . S
C3440 C3441 1.374 . S
C3441 H3421 0.950 1_556 S
C3441 C3437 1.385 . S
C3441 C3440 1.374 . S
C3442 C3439 1.499 . S
C3442 C3443 1.373 . S
C3442 C3444 1.389 . S
C3443 H3422 0.950 . S
C3443 C3442 1.373 . S
C3443 C3459 1.377 . S
C3444 C3442 1.389 . S
C3444 C3445 1.524 . S
C3444 C3458 1.377 . S
C3445 C3444 1.524 . S
C3445 C3446 1.397 . S
C3445 C3450 1.363 . S
C3446 H3423 0.950 . S
C3446 C3445 1.397 . S
C3446 C3447 1.334 . S
C3447 H3424 0.950 . S
C3447 C3446 1.334 . S
C3447 C3448 1.287 . S
C3448 C3447 1.287 . S
C3448 C3449 1.524 . S
C3448 H3467 0.913 . S
C3449 H3425 0.950 . S
C3449 C3448 1.524 . S
C3449 C3450 1.415 . S
C3450 H3426 0.950 . S
C3450 C3445 1.363 . S
C3450 C3449 1.415 . S
C3451 H3427 0.951 . S
C3451 C3452 1.366 . S
C3451 C3453 1.388 . S
C3452 C3451 1.366 . S
C3452 C3456 1.385 . S
C3453 H3428 0.951 . S
C3453 C3451 1.388 . S
C3453 C3454 1.366 . S
C3454 C3453 1.366 . S
C3454 C3455 1.414 . S
C3454 C3457 1.499 . S
C3455 H3429 0.950 . S
C3455 C3454 1.414 . S
C3455 C3456 1.374 . S
C3456 H3430 0.950 . S
C3456 C3452 1.385 . S
C3456 C3455 1.374 . S
C3457 C3454 1.499 . S
C3457 C3458 1.373 . S
C3457 C3459 1.389 . S
C3458 H3431 0.950 . S
C3458 C3444 1.377 . S
C3458 C3457 1.373 . S
C3459 C3443 1.377 . S
C3459 C3457 1.389 . S
C3459 C3460 1.524 . S
C3460 C3459 1.524 . S
C3460 C3461 1.397 . S
C3460 C3465 1.363 . S
C3461 H3432 0.950 . S
C3461 C3460 1.397 . S
C3461 C3462 1.334 . S
C3462 H3433 0.950 . S
C3462 C3461 1.334 . S
C3462 C3463 1.241 1_556 S
C3463 C3462 1.241 1_554 S
C3463 C3464 1.538 . S
C3463 H3466 1.037 . S
C3464 H3434 0.950 . S
C3464 C3463 1.538 . S
C3464 C3465 1.415 1_554 S
C3465 H3435 0.950 . S
C3465 C3460 1.363 . S
C3465 C3464 1.415 1_556 S
H3466 C3463 1.037 . S
H3467 C3448 0.913 . S
H3468 C3486 0.951 . S
H3469 C3488 0.951 . S
H3470 C3490 0.950 . S
H3471 C3491 0.950 . S
H3472 C3493 0.950 . S
H3473 C3496 0.950 1_556 S
H3474 C3497 0.950 . S
H3475 C3499 0.950 . S
H3476 C3500 0.964 . S
H3477 C3501 0.951 . S
H3478 C3503 0.951 . S
H3479 C3505 0.950 . S
H3480 C3506 0.950 . S
H3481 C3508 0.950 . S
H3482 C3511 0.950 . S
H3483 C3512 0.950 . S
H3484 C3514 0.950 . S
H3485 C3515 0.950 . S
C3486 H3468 0.951 . S
C3486 C3487 1.366 . S
C3486 C3488 1.388 . S
C3487 C3486 1.366 . S
C3487 C3491 1.385 . S
C3488 H3469 0.951 . S
C3488 C3486 1.388 . S
C3488 C3489 1.366 . S
C3489 C3488 1.366 . S
C3489 C3490 1.414 . S
C3489 C3492 1.499 . S
C3490 H3470 0.950 . S
C3490 C3489 1.414 . S
C3490 C3491 1.374 . S
C3491 H3471 0.950 . S
C3491 C3487 1.385 . S
C3491 C3490 1.374 . S
C3492 C3489 1.499 . S
C3492 C3493 1.373 . S
C3492 C3494 1.389 . S
C3493 H3472 0.950 . S
C3493 C3492 1.373 . S
C3493 C3509 1.377 . S
C3494 C3492 1.389 . S
C3494 C3495 1.524 . S
C3494 C3508 1.377 . S
C3495 C3494 1.524 . S
C3495 C3496 1.397 1_556 S
C3495 C3500 1.371 . S
C3496 H3473 0.950 1_554 S
C3496 C3495 1.397 1_554 S
C3496 C3497 1.334 . S
C3497 H3474 0.950 . S
C3497 C3496 1.334 . S
C3497 C3498 1.287 . S
C3498 C3497 1.287 . S
C3498 C3499 1.524 . S
C3498 H3517 0.913 . S
C3499 H3475 0.950 . S
C3499 C3498 1.524 . S
C3499 C3500 1.393 1_554 S
C3500 H3476 0.964 . S
C3500 C3495 1.371 . S
C3500 C3499 1.393 1_556 S
C3501 H3477 0.951 . S
C3501 C3502 1.366 . S
C3501 C3503 1.388 . S
C3502 C3501 1.366 . S
C3502 C3506 1.385 . S
C3503 H3478 0.951 . S
C3503 C3501 1.388 . S
C3503 C3504 1.366 . S
C3504 C3503 1.366 . S
C3504 C3505 1.414 . S
C3504 C3507 1.499 . S
C3505 H3479 0.950 . S
C3505 C3504 1.414 . S
C3505 C3506 1.374 . S
C3506 H3480 0.950 . S
C3506 C3502 1.385 . S
C3506 C3505 1.374 . S
C3507 C3504 1.499 . S
C3507 C3508 1.373 . S
C3507 C3509 1.389 . S
C3508 H3481 0.950 . S
C3508 C3494 1.377 . S
C3508 C3507 1.373 . S
C3509 C3493 1.377 . S
C3509 C3507 1.389 . S
C3509 C3510 1.524 . S
C3510 C3509 1.524 . S
C3510 C3511 1.397 . S
C3510 C3515 1.363 . S
C3511 H3482 0.950 . S
C3511 C3510 1.397 . S
C3511 C3512 1.334 . S
C3512 H3483 0.950 . S
C3512 C3511 1.334 . S
C3512 C3513 1.287 . S
C3513 C3512 1.287 . S
C3513 C3514 1.524 . S
C3513 H3516 0.999 . S
C3514 H3484 0.950 . S
C3514 C3513 1.524 . S
C3514 C3515 1.415 . S
C3515 H3485 0.950 . S
C3515 C3510 1.363 . S
C3515 C3514 1.415 . S
H3516 C3513 0.999 . S
H3517 C3498 0.913 . S
H3518 C3536 0.951 . S
H3519 C3538 0.951 . S
H3520 C3540 0.950 . S
H3521 C3541 0.950 1_554 S
H3522 C3543 0.950 . S
H3523 C3546 0.950 . S
H3524 C3547 0.950 . S
H3525 C3549 0.950 . S
H3526 C3550 0.950 . S
H3527 C3551 0.951 . S
H3528 C3553 0.951 . S
H3529 C3555 0.950 . S
H3530 C3556 0.950 . S
H3531 C3558 0.950 . S
H3532 C3561 0.950 . S
H3533 C3562 0.950 . S
H3534 C3564 0.888 1_554 S
H3535 C3565 0.950 . S
C3536 H3518 0.951 . S
C3536 C3537 1.366 . S
C3536 C3538 1.388 . S
C3537 C3536 1.366 . S
C3537 C3541 1.385 . S
C3538 H3519 0.951 . S
C3538 C3536 1.388 . S
C3538 C3539 1.366 . S
C3539 C3538 1.366 . S
C3539 C3540 1.414 . S
C3539 C3542 1.499 . S
C3540 H3520 0.950 . S
C3540 C3539 1.414 . S
C3540 C3541 1.374 . S
C3541 H3521 0.950 1_556 S
C3541 C3537 1.385 . S
C3541 C3540 1.374 . S
C3542 C3539 1.499 . S
C3542 C3543 1.373 . S
C3542 C3544 1.389 . S
C3543 H3522 0.950 . S
C3543 C3542 1.373 . S
C3543 C3559 1.377 . S
C3544 C3542 1.389 . S
C3544 C3545 1.524 . S
C3544 C3558 1.377 . S
C3545 C3544 1.524 . S
C3545 C3546 1.397 . S
C3545 C3550 1.363 . S
C3546 H3523 0.950 . S
C3546 C3545 1.397 . S
C3546 C3547 1.334 . S
C3547 H3524 0.950 . S
C3547 C3546 1.334 . S
C3547 C3548 1.287 . S
C3548 C3547 1.287 . S
C3548 C3549 1.524 . S
C3548 H3567 0.913 . S
C3549 H3525 0.950 . S
C3549 C3548 1.524 . S
C3549 C3550 1.415 . S
C3550 H3526 0.950 . S
C3550 C3545 1.363 . S
C3550 C3549 1.415 . S
C3551 H3527 0.951 . S
C3551 C3552 1.366 . S
C3551 C3553 1.388 . S
C3552 C3551 1.366 . S
C3552 C3556 1.385 . S
C3553 H3528 0.951 . S
C3553 C3551 1.388 . S
C3553 C3554 1.366 . S
C3554 C3553 1.366 . S
C3554 C3555 1.414 . S
C3554 C3557 1.499 . S
C3555 H3529 0.950 . S
C3555 C3554 1.414 . S
C3555 C3556 1.374 . S
C3556 H3530 0.950 . S
C3556 C3552 1.385 . S
C3556 C3555 1.374 . S
C3557 C3554 1.499 . S
C3557 C3558 1.373 . S
C3557 C3559 1.389 . S
C3558 H3531 0.950 . S
C3558 C3544 1.377 . S
C3558 C3557 1.373 . S
C3559 C3543 1.377 . S
C3559 C3557 1.389 . S
C3559 C3560 1.524 . S
C3560 C3559 1.524 . S
C3560 C3561 1.397 . S
C3560 C3565 1.363 . S
C3561 H3532 0.950 . S
C3561 C3560 1.397 . S
C3561 C3562 1.334 . S
C3562 H3533 0.950 . S
C3562 C3561 1.334 . S
C3562 C3563 1.287 . S
C3563 C3562 1.287 . S
C3563 C3564 1.564 . S
C3563 H3566 0.999 . S
C3564 H3534 0.888 1_556 S
C3564 C3563 1.564 . S
C3564 C3565 1.446 . S
C3565 H3535 0.950 . S
C3565 C3560 1.363 . S
C3565 C3564 1.446 . S
H3566 C3563 0.999 . S
H3567 C3548 0.913 . S
H3568 C3586 0.951 . S
H3569 C3588 0.951 . S
H3570 C3590 0.950 . S
H3571 C3591 0.950 1_554 S
H3572 C3593 0.950 . S
H3573 C3596 0.950 . S
H3574 C3597 0.950 . S
H3575 C3599 0.950 . S
H3576 C3600 0.950 . S
H3577 C3601 0.951 . S
H3578 C3603 0.951 . S
H3579 C3605 0.950 . S
H3580 C3606 0.950 . S
H3581 C3608 0.950 . S
H3582 C3611 0.950 . S
H3583 C3612 0.950 . S
H3584 C3614 0.950 1_554 S
H3585 C3615 0.950 . S
C3586 H3568 0.951 . S
C3586 C3587 1.366 . S
C3586 C3588 1.388 . S
C3587 C3586 1.366 . S
C3587 C3591 1.385 . S
C3588 H3569 0.951 . S
C3588 C3586 1.388 . S
C3588 C3589 1.366 . S
C3589 C3588 1.366 . S
C3589 C3590 1.414 . S
C3589 C3592 1.499 . S
C3590 H3570 0.950 . S
C3590 C3589 1.414 . S
C3590 C3591 1.374 . S
C3591 H3571 0.950 1_556 S
C3591 C3587 1.385 . S
C3591 C3590 1.374 . S
C3592 C3589 1.499 . S
C3592 C3593 1.373 . S
C3592 C3594 1.389 . S
C3593 H3572 0.950 . S
C3593 C3592 1.373 . S
C3593 C3609 1.377 . S
C3594 C3592 1.389 . S
C3594 C3595 1.524 . S
C3594 C3608 1.377 . S
C3595 C3594 1.524 . S
C3595 C3596 1.397 . S
C3595 C3600 1.363 . S
C3596 H3573 0.950 . S
C3596 C3595 1.397 . S
C3596 C3597 1.334 . S
C3597 H3574 0.950 . S
C3597 C3596 1.334 . S
C3597 C3598 1.287 . S
C3598 C3597 1.287 . S
C3598 C3599 1.524 . S
C3598 H3617 0.913 . S
C3599 H3575 0.950 . S
C3599 C3598 1.524 . S
C3599 C3600 1.415 . S
C3600 H3576 0.950 . S
C3600 C3595 1.363 . S
C3600 C3599 1.415 . S
C3601 H3577 0.951 . S
C3601 C3602 1.366 . S
C3601 C3603 1.388 . S
C3602 C3601 1.366 . S
C3602 C3606 1.385 . S
C3603 H3578 0.951 . S
C3603 C3601 1.388 . S
C3603 C3604 1.366 . S
C3604 C3603 1.366 . S
C3604 C3605 1.414 . S
C3604 C3607 1.499 . S
C3605 H3579 0.950 . S
C3605 C3604 1.414 . S
C3605 C3606 1.374 . S
C3606 H3580 0.950 . S
C3606 C3602 1.385 . S
C3606 C3605 1.374 . S
C3607 C3604 1.499 . S
C3607 C3608 1.373 . S
C3607 C3609 1.389 . S
C3608 H3581 0.950 . S
C3608 C3594 1.377 . S
C3608 C3607 1.373 . S
C3609 C3593 1.377 . S
C3609 C3607 1.389 . S
C3609 C3610 1.524 . S
C3610 C3609 1.524 . S
C3610 C3611 1.397 . S
C3610 C3615 1.363 . S
C3611 H3582 0.950 . S
C3611 C3610 1.397 . S
C3611 C3612 1.334 . S
C3612 H3583 0.950 . S
C3612 C3611 1.334 . S
C3612 C3613 1.287 . S
C3613 C3612 1.287 . S
C3613 C3614 1.524 . S
C3613 H3616 0.999 . S
C3614 H3584 0.950 1_556 S
C3614 C3613 1.524 . S
C3614 C3615 1.415 . S
C3615 H3585 0.950 . S
C3615 C3610 1.363 . S
C3615 C3614 1.415 . S
H3616 C3613 0.999 . S
H3617 C3598 0.913 . S
H3618 C3636 0.951 . S
H3619 C3638 0.951 . S
H3620 C3640 0.950 . S
H3621 C3641 0.950 . S
H3622 C3643 0.950 . S
H3623 C3646 0.950 . S
H3624 C3647 0.950 . S
H3625 C3649 0.950 . S
H3626 C3650 0.950 . S
H3627 C3651 0.951 . S
H3628 C3653 0.951 . S
H3629 C3655 0.950 . S
H3630 C3656 0.950 . S
H3631 C3658 0.950 . S
H3632 C3661 0.950 . S
H3633 C3662 0.950 . S
H3634 C3664 0.950 . S
H3635 C3665 0.950 . S
C3636 H3618 0.951 . S
C3636 C3637 1.366 . S
C3636 C3638 1.388 . S
C3637 C3636 1.366 . S
C3637 C3641 1.385 . S
C3638 H3619 0.951 . S
C3638 C3636 1.388 . S
C3638 C3639 1.366 . S
C3639 C3638 1.366 . S
C3639 C3640 1.414 . S
C3639 C3642 1.499 . S
C3640 H3620 0.950 . S
C3640 C3639 1.414 . S
C3640 C3641 1.374 . S
C3641 H3621 0.950 . S
C3641 C3637 1.385 . S
C3641 C3640 1.374 . S
C3642 C3639 1.499 . S
C3642 C3643 1.373 . S
C3642 C3644 1.389 . S
C3643 H3622 0.950 . S
C3643 C3642 1.373 . S
C3643 C3659 1.377 . S
C3644 C3642 1.389 . S
C3644 C3645 1.524 . S
C3644 C3658 1.377 . S
C3645 C3644 1.524 . S
C3645 C3646 1.397 . S
C3645 C3650 1.363 . S
C3646 H3623 0.950 . S
C3646 C3645 1.397 . S
C3646 C3647 1.334 . S
C3647 H3624 0.950 . S
C3647 C3646 1.334 . S
C3647 C3648 1.287 . S
C3648 C3647 1.287 . S
C3648 C3649 1.524 . S
C3648 H3667 0.913 . S
C3649 H3625 0.950 . S
C3649 C3648 1.524 . S
C3649 C3650 1.415 . S
C3650 H3626 0.950 . S
C3650 C3645 1.363 . S
C3650 C3649 1.415 . S
C3651 H3627 0.951 . S
C3651 C3652 1.366 . S
C3651 C3653 1.388 . S
C3652 C3651 1.366 . S
C3652 C3656 1.385 . S
C3653 H3628 0.951 . S
C3653 C3651 1.388 . S
C3653 C3654 1.366 . S
C3654 C3653 1.366 . S
C3654 C3655 1.414 . S
C3654 C3657 1.499 . S
C3655 H3629 0.950 . S
C3655 C3654 1.414 . S
C3655 C3656 1.374 . S
C3656 H3630 0.950 . S
C3656 C3652 1.385 . S
C3656 C3655 1.374 . S
C3657 C3654 1.499 . S
C3657 C3658 1.373 . S
C3657 C3659 1.389 . S
C3658 H3631 0.950 . S
C3658 C3644 1.377 . S
C3658 C3657 1.373 . S
C3659 C3643 1.377 . S
C3659 C3657 1.389 . S
C3659 C3660 1.524 . S
C3660 C3659 1.524 . S
C3660 C3661 1.397 . S
C3660 C3665 1.363 . S
C3661 H3632 0.950 . S
C3661 C3660 1.397 . S
C3661 C3662 1.334 . S
C3662 H3633 0.950 . S
C3662 C3661 1.334 . S
C3662 C3663 1.287 . S
C3663 C3662 1.287 . S
C3663 C3664 1.524 . S
C3663 H3666 0.999 . S
C3664 H3634 0.950 . S
C3664 C3663 1.524 . S
C3664 C3665 1.415 . S
C3665 H3635 0.950 . S
C3665 C3660 1.363 . S
C3665 C3664 1.415 . S
H3666 C3663 0.999 . S
H3667 C3648 0.913 . S
H3668 C3686 0.951 . S
H3669 C3688 0.951 . S
H3670 C3690 0.950 . S
H3671 C3691 0.950 . S
H3672 C3693 0.950 . S
H3673 C3696 0.950 . S
H3674 C3697 0.950 . S
H3675 C3699 0.950 . S
H3676 C3700 0.950 . S
H3677 C3701 0.951 . S
H3678 C3703 0.951 . S
H3679 C3705 0.950 . S
H3680 C3706 0.950 . S
H3681 C3708 0.950 . S
H3682 C3711 0.950 . S
H3683 C3712 0.950 . S
H3684 C3714 0.950 . S
H3685 C3715 0.950 . S
C3686 H3668 0.951 . S
C3686 C3687 1.366 . S
C3686 C3688 1.388 . S
C3687 C3686 1.366 . S
C3687 C3691 1.385 . S
C3688 H3669 0.951 . S
C3688 C3686 1.388 . S
C3688 C3689 1.366 . S
C3689 C3688 1.366 . S
C3689 C3690 1.414 . S
C3689 C3692 1.499 . S
C3690 H3670 0.950 . S
C3690 C3689 1.414 . S
C3690 C3691 1.374 . S
C3691 H3671 0.950 . S
C3691 C3687 1.385 . S
C3691 C3690 1.374 . S
C3692 C3689 1.499 . S
C3692 C3693 1.373 . S
C3692 C3694 1.389 . S
C3693 H3672 0.950 . S
C3693 C3692 1.373 . S
C3693 C3709 1.377 . S
C3694 C3692 1.389 . S
C3694 C3695 1.524 . S
C3694 C3708 1.377 . S
C3695 C3694 1.524 . S
C3695 C3696 1.397 . S
C3695 C3700 1.363 . S
C3696 H3673 0.950 . S
C3696 C3695 1.397 . S
C3696 C3697 1.334 . S
C3697 H3674 0.950 . S
C3697 C3696 1.334 . S
C3697 C3698 1.287 . S
C3698 C3697 1.287 . S
C3698 C3699 1.524 . S
C3698 H3717 0.913 . S
C3699 H3675 0.950 . S
C3699 C3698 1.524 . S
C3699 C3700 1.415 . S
C3700 H3676 0.950 . S
C3700 C3695 1.363 . S
C3700 C3699 1.415 . S
C3701 H3677 0.951 . S
C3701 C3702 1.366 . S
C3701 C3703 1.388 . S
C3702 C3701 1.366 . S
C3702 C3706 1.385 . S
C3703 H3678 0.951 . S
C3703 C3701 1.388 . S
C3703 C3704 1.366 . S
C3704 C3703 1.366 . S
C3704 C3705 1.414 . S
C3704 C3707 1.499 . S
C3705 H3679 0.950 . S
C3705 C3704 1.414 . S
C3705 C3706 1.374 . S
C3706 H3680 0.950 . S
C3706 C3702 1.385 . S
C3706 C3705 1.374 . S
C3707 C3704 1.499 . S
C3707 C3708 1.373 . S
C3707 C3709 1.389 . S
C3708 H3681 0.950 . S
C3708 C3694 1.377 . S
C3708 C3707 1.373 . S
C3709 C3693 1.377 . S
C3709 C3707 1.389 . S
C3709 C3710 1.524 . S
C3710 C3709 1.524 . S
C3710 C3711 1.397 . S
C3710 C3715 1.363 . S
C3711 H3682 0.950 . S
C3711 C3710 1.397 . S
C3711 C3712 1.334 . S
C3712 H3683 0.950 . S
C3712 C3711 1.334 . S
C3712 C3713 1.287 . S
C3713 C3712 1.287 . S
C3713 C3714 1.524 . S
C3713 H3716 0.999 . S
C3714 H3684 0.950 . S
C3714 C3713 1.524 . S
C3714 C3715 1.415 . S
C3715 H3685 0.950 . S
C3715 C3710 1.363 . S
C3715 C3714 1.415 . S
H3716 C3713 0.999 . S
H3717 C3698 0.913 . S
H3718 C3736 0.951 . S
H3719 C3738 0.951 . S
H3720 C3740 0.950 . S
H3721 C3741 0.950 . S
H3722 C3743 0.950 . S
H3723 C3746 0.950 . S
H3724 C3747 0.950 . S
H3725 C3749 0.950 . S
H3726 C3750 0.950 . S
H3727 C3751 0.951 . S
H3728 C3753 0.951 . S
H3729 C3755 0.950 . S
H3730 C3756 0.950 . S
H3731 C3758 0.950 . S
H3732 C3761 0.950 . S
H3733 C3762 0.950 . S
H3734 C3764 0.950 . S
H3735 C3765 0.950 . S
C3736 H3718 0.951 . S
C3736 C3737 1.366 . S
C3736 C3738 1.388 . S
C3737 C3736 1.366 . S
C3737 C3741 1.385 . S
C3738 H3719 0.951 . S
C3738 C3736 1.388 . S
C3738 C3739 1.366 . S
C3739 C3738 1.366 . S
C3739 C3740 1.414 . S
C3739 C3742 1.499 . S
C3740 H3720 0.950 . S
C3740 C3739 1.414 . S
C3740 C3741 1.374 . S
C3741 H3721 0.950 . S
C3741 C3737 1.385 . S
C3741 C3740 1.374 . S
C3742 C3739 1.499 . S
C3742 C3743 1.373 . S
C3742 C3744 1.389 . S
C3743 H3722 0.950 . S
C3743 C3742 1.373 . S
C3743 C3759 1.377 . S
C3744 C3742 1.389 . S
C3744 C3745 1.524 . S
C3744 C3758 1.377 . S
C3745 C3744 1.524 . S
C3745 C3746 1.397 . S
C3745 C3750 1.363 . S
C3746 H3723 0.950 . S
C3746 C3745 1.397 . S
C3746 C3747 1.334 . S
C3747 H3724 0.950 . S
C3747 C3746 1.334 . S
C3747 C3748 1.287 . S
C3748 C3747 1.287 . S
C3748 C3749 1.524 . S
C3748 H3767 0.913 . S
C3749 H3725 0.950 . S
C3749 C3748 1.524 . S
C3749 C3750 1.415 . S
C3750 H3726 0.950 . S
C3750 C3745 1.363 . S
C3750 C3749 1.415 . S
C3751 H3727 0.951 . S
C3751 C3752 1.366 . S
C3751 C3753 1.388 . S
C3752 C3751 1.366 . S
C3752 C3756 1.385 . S
C3753 H3728 0.951 . S
C3753 C3751 1.388 . S
C3753 C3754 1.366 . S
C3754 C3753 1.366 . S
C3754 C3755 1.414 . S
C3754 C3757 1.499 . S
C3755 H3729 0.950 . S
C3755 C3754 1.414 . S
C3755 C3756 1.374 . S
C3756 H3730 0.950 . S
C3756 C3752 1.385 . S
C3756 C3755 1.374 . S
C3757 C3754 1.499 . S
C3757 C3758 1.373 . S
C3757 C3759 1.389 . S
C3758 H3731 0.950 . S
C3758 C3744 1.377 . S
C3758 C3757 1.373 . S
C3759 C3743 1.377 . S
C3759 C3757 1.389 . S
C3759 C3760 1.524 . S
C3760 C3759 1.524 . S
C3760 C3761 1.397 . S
C3760 C3765 1.363 . S
C3761 H3732 0.950 . S
C3761 C3760 1.397 . S
C3761 C3762 1.334 . S
C3762 H3733 0.950 . S
C3762 C3761 1.334 . S
C3762 C3763 1.287 . S
C3763 C3762 1.287 . S
C3763 C3764 1.524 . S
C3763 H3766 0.999 . S
C3764 H3734 0.950 . S
C3764 C3763 1.524 . S
C3764 C3765 1.415 . S
C3765 H3735 0.950 . S
C3765 C3760 1.363 . S
C3765 C3764 1.415 . S
H3766 C3763 0.999 . S
H3767 C3748 0.913 . S
H3768 C3786 0.951 . S
H3769 C3788 0.951 . S
H3770 C3790 0.950 . S
H3771 C3791 0.950 . S
H3772 C3793 0.950 . S
H3773 C3796 0.950 . S
H3774 C3797 0.950 . S
H3775 C3799 0.950 . S
H3776 C3800 0.950 . S
H3777 C3801 0.951 . S
H3778 C3803 0.951 . S
H3779 C3805 0.950 . S
H3780 C3806 0.950 . S
H3781 C3808 0.950 . S
H3782 C3811 0.950 . S
H3783 C3812 0.950 . S
H3784 C3814 0.950 . S
H3785 C3815 0.950 . S
C3786 H3768 0.951 . S
C3786 C3787 1.366 . S
C3786 C3788 1.388 . S
C3787 C3786 1.366 . S
C3787 C3791 1.385 . S
C3788 H3769 0.951 . S
C3788 C3786 1.388 . S
C3788 C3789 1.366 . S
C3789 C3788 1.366 . S
C3789 C3790 1.414 . S
C3789 C3792 1.499 . S
C3790 H3770 0.950 . S
C3790 C3789 1.414 . S
C3790 C3791 1.374 . S
C3791 H3771 0.950 . S
C3791 C3787 1.385 . S
C3791 C3790 1.374 . S
C3792 C3789 1.499 . S
C3792 C3793 1.373 . S
C3792 C3794 1.389 . S
C3793 H3772 0.950 . S
C3793 C3792 1.373 . S
C3793 C3809 1.377 . S
C3794 C3792 1.389 . S
C3794 C3795 1.524 . S
C3794 C3808 1.377 . S
C3795 C3794 1.524 . S
C3795 C3796 1.397 . S
C3795 C3800 1.363 . S
C3796 H3773 0.950 . S
C3796 C3795 1.397 . S
C3796 C3797 1.334 . S
C3797 H3774 0.950 . S
C3797 C3796 1.334 . S
C3797 C3798 1.287 . S
C3798 C3797 1.287 . S
C3798 C3799 1.524 . S
C3798 H3817 0.913 . S
C3799 H3775 0.950 . S
C3799 C3798 1.524 . S
C3799 C3800 1.415 . S
C3800 H3776 0.950 . S
C3800 C3795 1.363 . S
C3800 C3799 1.415 . S
C3801 H3777 0.951 . S
C3801 C3802 1.366 . S
C3801 C3803 1.388 . S
C3802 C3801 1.366 . S
C3802 C3806 1.385 . S
C3803 H3778 0.951 . S
C3803 C3801 1.388 . S
C3803 C3804 1.366 . S
C3804 C3803 1.366 . S
C3804 C3805 1.414 . S
C3804 C3807 1.499 . S
C3805 H3779 0.950 . S
C3805 C3804 1.414 . S
C3805 C3806 1.374 . S
C3806 H3780 0.950 . S
C3806 C3802 1.385 . S
C3806 C3805 1.374 . S
C3807 C3804 1.499 . S
C3807 C3808 1.373 . S
C3807 C3809 1.389 . S
C3808 H3781 0.950 . S
C3808 C3794 1.377 . S
C3808 C3807 1.373 . S
C3809 C3793 1.377 . S
C3809 C3807 1.389 . S
C3809 C3810 1.524 . S
C3810 C3809 1.524 . S
C3810 C3811 1.397 . S
C3810 C3815 1.363 . S
C3811 H3782 0.950 . S
C3811 C3810 1.397 . S
C3811 C3812 1.334 . S
C3812 H3783 0.950 . S
C3812 C3811 1.334 . S
C3812 C3813 1.287 . S
C3813 C3812 1.287 . S
C3813 C3814 1.524 . S
C3813 H3816 0.999 . S
C3814 H3784 0.950 . S
C3814 C3813 1.524 . S
C3814 C3815 1.415 . S
C3815 H3785 0.950 . S
C3815 C3810 1.363 . S
C3815 C3814 1.415 . S
H3816 C3813 0.999 . S
H3817 C3798 0.913 . S
H3818 C3836 0.951 . S
H3819 C3838 0.951 . S
H3820 C3840 0.950 . S
H3821 C3841 0.950 . S
H3822 C3843 0.950 . S
H3823 C3846 0.950 . S
H3824 C3847 0.950 . S
H3825 C3849 0.950 . S
H3826 C3850 0.950 . S
H3827 C3851 0.951 . S
H3828 C3853 0.951 . S
H3829 C3855 0.950 . S
H3830 C3856 0.950 . S
H3831 C3858 0.950 . S
H3832 C3861 0.950 . S
H3833 C3862 0.950 . S
H3834 C3864 0.950 . S
H3835 C3865 0.950 . S
C3836 H3818 0.951 . S
C3836 C3837 1.366 . S
C3836 C3838 1.388 . S
C3837 C3836 1.366 . S
C3837 C3841 1.385 . S
C3838 H3819 0.951 . S
C3838 C3836 1.388 . S
C3838 C3839 1.366 . S
C3839 C3838 1.366 . S
C3839 C3840 1.414 . S
C3839 C3842 1.499 . S
C3840 H3820 0.950 . S
C3840 C3839 1.414 . S
C3840 C3841 1.374 . S
C3841 H3821 0.950 . S
C3841 C3837 1.385 . S
C3841 C3840 1.374 . S
C3842 C3839 1.499 . S
C3842 C3843 1.373 . S
C3842 C3844 1.389 . S
C3843 H3822 0.950 . S
C3843 C3842 1.373 . S
C3843 C3859 1.377 . S
C3844 C3842 1.389 . S
C3844 C3845 1.524 . S
C3844 C3858 1.377 . S
C3845 C3844 1.524 . S
C3845 C3846 1.397 . S
C3845 C3850 1.363 . S
C3846 H3823 0.950 . S
C3846 C3845 1.397 . S
C3846 C3847 1.334 . S
C3847 H3824 0.950 . S
C3847 C3846 1.334 . S
C3847 C3848 1.287 . S
C3848 C3847 1.287 . S
C3848 C3849 1.524 . S
C3848 H3867 0.913 . S
C3849 H3825 0.950 . S
C3849 C3848 1.524 . S
C3849 C3850 1.415 . S
C3850 H3826 0.950 . S
C3850 C3845 1.363 . S
C3850 C3849 1.415 . S
C3851 H3827 0.951 . S
C3851 C3852 1.366 . S
C3851 C3853 1.388 . S
C3852 C3851 1.366 . S
C3852 C3856 1.385 . S
C3853 H3828 0.951 . S
C3853 C3851 1.388 . S
C3853 C3854 1.366 . S
C3854 C3853 1.366 . S
C3854 C3855 1.414 . S
C3854 C3857 1.499 . S
C3855 H3829 0.950 . S
C3855 C3854 1.414 . S
C3855 C3856 1.374 . S
C3856 H3830 0.950 . S
C3856 C3852 1.385 . S
C3856 C3855 1.374 . S
C3857 C3854 1.499 . S
C3857 C3858 1.373 . S
C3857 C3859 1.389 . S
C3858 H3831 0.950 . S
C3858 C3844 1.377 . S
C3858 C3857 1.373 . S
C3859 C3843 1.377 . S
C3859 C3857 1.389 . S
C3859 C3860 1.524 . S
C3860 C3859 1.524 . S
C3860 C3861 1.397 . S
C3860 C3865 1.363 . S
C3861 H3832 0.950 . S
C3861 C3860 1.397 . S
C3861 C3862 1.334 . S
C3862 H3833 0.950 . S
C3862 C3861 1.334 . S
C3862 C3863 1.287 . S
C3863 C3862 1.287 . S
C3863 C3864 1.524 . S
C3863 H3866 0.999 . S
C3864 H3834 0.950 . S
C3864 C3863 1.524 . S
C3864 C3865 1.415 . S
C3865 H3835 0.950 . S
C3865 C3860 1.363 . S
C3865 C3864 1.415 . S
H3866 C3863 0.999 . S
H3867 C3848 0.913 . S
H3868 C3886 0.951 . S
H3869 C3888 0.951 . S
H3870 C3890 0.950 . S
H3871 C3891 0.950 . S
H3872 C3893 0.950 . S
H3873 C3896 0.950 . S
H3874 C3897 0.950 . S
H3875 C3899 0.950 . S
H3876 C3900 0.950 . S
H3877 C3901 0.951 . S
H3878 C3903 0.951 . S
H3879 C3905 0.950 . S
H3880 C3906 0.950 . S
H3881 C3908 0.950 . S
H3882 C3911 0.950 . S
H3883 C3912 0.950 . S
H3884 C3914 0.950 . S
H3885 C3915 0.950 . S
C3886 H3868 0.951 . S
C3886 C3887 1.366 . S
C3886 C3888 1.388 . S
C3887 C3886 1.366 . S
C3887 C3891 1.385 . S
C3888 H3869 0.951 . S
C3888 C3886 1.388 . S
C3888 C3889 1.366 . S
C3889 C3888 1.366 . S
C3889 C3890 1.414 . S
C3889 C3892 1.499 . S
C3890 H3870 0.950 . S
C3890 C3889 1.414 . S
C3890 C3891 1.374 . S
C3891 H3871 0.950 . S
C3891 C3887 1.385 . S
C3891 C3890 1.374 . S
C3892 C3889 1.499 . S
C3892 C3893 1.373 . S
C3892 C3894 1.389 . S
C3893 H3872 0.950 . S
C3893 C3892 1.373 . S
C3893 C3909 1.377 . S
C3894 C3892 1.389 . S
C3894 C3895 1.524 . S
C3894 C3908 1.377 . S
C3895 C3894 1.524 . S
C3895 C3896 1.397 . S
C3895 C3900 1.363 . S
C3896 H3873 0.950 . S
C3896 C3895 1.397 . S
C3896 C3897 1.334 . S
C3897 H3874 0.950 . S
C3897 C3896 1.334 . S
C3897 C3898 1.287 . S
C3898 C3897 1.287 . S
C3898 C3899 1.524 . S
C3898 H3917 0.913 . S
C3899 H3875 0.950 . S
C3899 C3898 1.524 . S
C3899 C3900 1.415 . S
C3900 H3876 0.950 . S
C3900 C3895 1.363 . S
C3900 C3899 1.415 . S
C3901 H3877 0.951 . S
C3901 C3902 1.366 . S
C3901 C3903 1.388 . S
C3902 C3901 1.366 . S
C3902 C3906 1.385 . S
C3903 H3878 0.951 . S
C3903 C3901 1.388 . S
C3903 C3904 1.366 . S
C3904 C3903 1.366 . S
C3904 C3905 1.414 . S
C3904 C3907 1.499 . S
C3905 H3879 0.950 . S
C3905 C3904 1.414 . S
C3905 C3906 1.374 . S
C3906 H3880 0.950 . S
C3906 C3902 1.385 . S
C3906 C3905 1.374 . S
C3907 C3904 1.499 . S
C3907 C3908 1.373 . S
C3907 C3909 1.389 . S
C3908 H3881 0.950 . S
C3908 C3894 1.377 . S
C3908 C3907 1.373 . S
C3909 C3893 1.377 . S
C3909 C3907 1.389 . S
C3909 C3910 1.524 . S
C3910 C3909 1.524 . S
C3910 C3911 1.397 . S
C3910 C3915 1.363 . S
C3911 H3882 0.950 . S
C3911 C3910 1.397 . S
C3911 C3912 1.334 . S
C3912 H3883 0.950 . S
C3912 C3911 1.334 . S
C3912 C3913 1.287 . S
C3913 C3912 1.287 . S
C3913 C3914 1.524 . S
C3913 H3916 0.999 . S
C3914 H3884 0.950 . S
C3914 C3913 1.524 . S
C3914 C3915 1.415 . S
C3915 H3885 0.950 . S
C3915 C3910 1.363 . S
C3915 C3914 1.415 . S
H3916 C3913 0.999 . S
H3917 C3898 0.913 . S
H3918 C3936 0.951 . S
H3919 C3938 0.951 . S
H3920 C3940 0.950 . S
H3921 C3941 0.950 . S
H3922 C3943 0.950 . S
H3923 C3946 0.950 . S
H3924 C3947 0.950 . S
H3925 C3949 0.950 . S
H3926 C3950 0.950 . S
H3927 C3951 0.951 . S
H3928 C3953 0.951 . S
H3929 C3955 0.950 1_655 S
H3930 C3956 0.950 1_655 S
H3931 C3958 0.950 . S
H3932 C3961 0.945 1_655 S
H3933 C3962 0.950 . S
H3934 C3964 0.950 . S
H3935 C3965 0.950 . S
C3936 H3918 0.951 . S
C3936 C3937 1.366 . S
C3936 C3938 1.388 . S
C3937 C3936 1.366 . S
C3937 C3941 1.385 . S
C3938 H3919 0.951 . S
C3938 C3936 1.388 . S
C3938 C3939 1.366 . S
C3939 C3938 1.366 . S
C3939 C3940 1.414 . S
C3939 C3942 1.499 . S
C3940 H3920 0.950 . S
C3940 C3939 1.414 . S
C3940 C3941 1.374 . S
C3941 H3921 0.950 . S
C3941 C3937 1.385 . S
C3941 C3940 1.374 . S
C3942 C3939 1.499 . S
C3942 C3943 1.373 . S
C3942 C3944 1.389 . S
C3943 H3922 0.950 . S
C3943 C3942 1.373 . S
C3943 C3959 1.377 . S
C3944 C3942 1.389 . S
C3944 C3945 1.524 . S
C3944 C3958 1.377 . S
C3945 C3944 1.524 . S
C3945 C3946 1.397 . S
C3945 C3950 1.363 . S
C3946 H3923 0.950 . S
C3946 C3945 1.397 . S
C3946 C3947 1.334 . S
C3947 H3924 0.950 . S
C3947 C3946 1.334 . S
C3947 C3948 1.287 . S
C3948 C3947 1.287 . S
C3948 C3949 1.524 . S
C3948 H3967 0.913 . S
C3949 H3925 0.950 . S
C3949 C3948 1.524 . S
C3949 C3950 1.415 . S
C3950 H3926 0.950 . S
C3950 C3945 1.363 . S
C3950 C3949 1.415 . S
C3951 H3927 0.951 . S
C3951 C3952 1.366 . S
C3951 C3953 1.388 . S
C3952 C3951 1.366 . S
C3952 C3956 1.385 . S
C3953 H3928 0.951 . S
C3953 C3951 1.388 . S
C3953 C3954 1.366 . S
C3954 C3953 1.366 . S
C3954 C3955 1.414 . S
C3954 C3957 1.499 . S
C3955 H3929 0.950 1_455 S
C3955 C3954 1.414 . S
C3955 C3956 1.374 . S
C3956 H3930 0.950 1_455 S
C3956 C3952 1.385 . S
C3956 C3955 1.374 . S
C3957 C3954 1.499 . S
C3957 C3958 1.373 . S
C3957 C3959 1.389 . S
C3958 H3931 0.950 . S
C3958 C3944 1.377 . S
C3958 C3957 1.373 . S
C3959 C3943 1.377 . S
C3959 C3957 1.389 . S
C3959 C3960 1.524 . S
C3960 C3959 1.524 . S
C3960 C3961 1.408 . S
C3960 C3965 1.363 . S
C3961 H3932 0.945 1_455 S
C3961 C3960 1.408 . S
C3961 C3962 1.327 1_455 S
C3962 H3933 0.950 . S
C3962 C3961 1.327 1_655 S
C3962 C3963 1.287 1_655 S
C3963 C3962 1.287 1_455 S
C3963 C3964 1.524 . S
C3963 H3966 0.999 . S
C3964 H3934 0.950 . S
C3964 C3963 1.524 . S
C3964 C3965 1.415 . S
C3965 H3935 0.950 . S
C3965 C3960 1.363 . S
C3965 C3964 1.415 . S
H3966 C3963 0.999 . S
H3967 C3948 0.913 . S
H3968 C3986 0.951 . S
H3969 C3988 0.951 . S
H3970 C3990 0.950 . S
H3971 C3991 0.950 . S
H3972 C3993 0.950 . S
H3973 C3996 0.950 . S
H3974 C3997 0.950 . S
H3975 C3999 0.950 . S
H3976 C4000 0.950 . S
H3977 C4001 0.951 . S
H3978 C4003 0.951 . S
H3979 C4005 0.950 . S
H3980 C4006 0.950 . S
H3981 C4008 0.950 . S
H3982 C4011 0.950 . S
H3983 C4012 0.950 . S
H3984 C4014 0.950 . S
H3985 C4015 0.950 . S
C3986 H3968 0.951 . S
C3986 C3987 1.366 . S
C3986 C3988 1.388 . S
C3987 C3986 1.366 . S
C3987 C3991 1.385 . S
C3988 H3969 0.951 . S
C3988 C3986 1.388 . S
C3988 C3989 1.366 . S
C3989 C3988 1.366 . S
C3989 C3990 1.414 . S
C3989 C3992 1.499 . S
C3990 H3970 0.950 . S
C3990 C3989 1.414 . S
C3990 C3991 1.374 . S
C3991 H3971 0.950 . S
C3991 C3987 1.385 . S
C3991 C3990 1.374 . S
C3992 C3989 1.499 . S
C3992 C3993 1.373 . S
C3992 C3994 1.389 . S
C3993 H3972 0.950 . S
C3993 C3992 1.373 . S
C3993 C4009 1.377 . S
C3994 C3992 1.389 . S
C3994 C3995 1.524 . S
C3994 C4008 1.377 . S
C3995 C3994 1.524 . S
C3995 C3996 1.397 . S
C3995 C4000 1.363 . S
C3996 H3973 0.950 . S
C3996 C3995 1.397 . S
C3996 C3997 1.334 . S
C3997 H3974 0.950 . S
C3997 C3996 1.334 . S
C3997 C3998 1.287 . S
C3998 C3997 1.287 . S
C3998 C3999 1.524 . S
C3998 H4017 0.913 . S
C3999 H3975 0.950 . S
C3999 C3998 1.524 . S
C3999 C4000 1.415 . S
C4000 H3976 0.950 . S
C4000 C3995 1.363 . S
C4000 C3999 1.415 . S
C4001 H3977 0.951 . S
C4001 C4002 1.366 . S
C4001 C4003 1.388 . S
C4002 C4001 1.366 . S
C4002 C4006 1.385 . S
C4003 H3978 0.951 . S
C4003 C4001 1.388 . S
C4003 C4004 1.366 . S
C4004 C4003 1.366 . S
C4004 C4005 1.414 . S
C4004 C4007 1.499 . S
C4005 H3979 0.950 . S
C4005 C4004 1.414 . S
C4005 C4006 1.374 . S
C4006 H3980 0.950 . S
C4006 C4002 1.385 . S
C4006 C4005 1.374 . S
C4007 C4004 1.499 . S
C4007 C4008 1.373 . S
C4007 C4009 1.389 . S
C4008 H3981 0.950 . S
C4008 C3994 1.377 . S
C4008 C4007 1.373 . S
C4009 C3993 1.377 . S
C4009 C4007 1.389 . S
C4009 C4010 1.524 . S
C4010 C4009 1.524 . S
C4010 C4011 1.397 . S
C4010 C4015 1.363 . S
C4011 H3982 0.950 . S
C4011 C4010 1.397 . S
C4011 C4012 1.334 . S
C4012 H3983 0.950 . S
C4012 C4011 1.334 . S
C4012 C4013 1.287 . S
C4013 C4012 1.287 . S
C4013 C4014 1.524 . S
C4013 H4016 0.999 . S
C4014 H3984 0.950 . S
C4014 C4013 1.524 . S
C4014 C4015 1.415 . S
C4015 H3985 0.950 . S
C4015 C4010 1.363 . S
C4015 C4014 1.415 . S
H4016 C4013 0.999 . S
H4017 C3998 0.913 . S
H4018 C4036 0.951 1_545 S
H4019 C4038 0.951 1_545 S
H4020 C4040 0.950 . S
H4021 C4041 0.950 . S
H4022 C4043 0.950 . S
H4023 C4046 0.950 . S
H4024 C4047 0.950 . S
H4025 C4049 0.950 . S
H4026 C4050 0.950 . S
H4027 C4051 0.951 . S
H4028 C4053 0.951 . S
H4029 C4055 0.950 . S
H4030 C4056 0.950 . S
H4031 C4058 0.950 . S
H4032 C4061 0.950 1_545 S
H4033 C4062 0.950 1_545 S
H4034 C4064 0.950 . S
H4035 C4065 0.950 . S
C4036 H4018 0.951 1_565 S
C4036 C4037 1.366 . S
C4036 C4038 1.388 . S
C4037 C4036 1.366 . S
C4037 C4041 1.385 . S
C4038 H4019 0.951 1_565 S
C4038 C4036 1.388 . S
C4038 C4039 1.366 . S
C4039 C4038 1.366 . S
C4039 C4040 1.414 . S
C4039 C4042 1.499 . S
C4040 H4020 0.950 . S
C4040 C4039 1.414 . S
C4040 C4041 1.374 . S
C4041 H4021 0.950 . S
C4041 C4037 1.385 . S
C4041 C4040 1.374 . S
C4042 C4039 1.499 . S
C4042 C4043 1.373 . S
C4042 C4044 1.389 . S
C4043 H4022 0.950 . S
C4043 C4042 1.373 . S
C4043 C4059 1.377 . S
C4044 C4042 1.389 . S
C4044 C4045 1.524 . S
C4044 C4058 1.377 . S
C4045 C4044 1.524 . S
C4045 C4046 1.397 . S
C4045 C4050 1.363 1_565 S
C4046 H4023 0.950 . S
C4046 C4045 1.397 . S
C4046 C4047 1.334 . S
C4047 H4024 0.950 . S
C4047 C4046 1.334 . S
C4047 C4048 1.287 . S
C4048 C4047 1.287 . S
C4048 C4049 1.524 1_565 S
C4048 H4067 0.913 . S
C4049 H4025 0.950 . S
C4049 C4048 1.524 1_545 S
C4049 C4050 1.415 . S
C4050 H4026 0.950 . S
C4050 C4045 1.363 1_545 S
C4050 C4049 1.415 . S
C4051 H4027 0.951 . S
C4051 C4052 1.366 . S
C4051 C4053 1.388 . S
C4052 C4051 1.366 . S
C4052 C4056 1.385 1_565 S
C4053 H4028 0.951 . S
C4053 C4051 1.388 . S
C4053 C4054 1.366 . S
C4054 C4053 1.366 . S
C4054 C4055 1.414 1_565 S
C4054 C4057 1.499 . S
C4055 H4029 0.950 . S
C4055 C4054 1.414 1_545 S
C4055 C4056 1.374 . S
C4056 H4030 0.950 . S
C4056 C4052 1.385 1_545 S
C4056 C4055 1.374 . S
C4057 C4054 1.499 . S
C4057 C4058 1.373 . S
C4057 C4059 1.389 . S
C4058 H4031 0.950 . S
C4058 C4044 1.377 . S
C4058 C4057 1.373 . S
C4059 C4043 1.377 . S
C4059 C4057 1.389 . S
C4059 C4060 1.524 . S
C4060 C4059 1.524 . S
C4060 C4061 1.397 . S
C4060 C4065 1.363 . S
C4061 H4032 0.950 1_565 S
C4061 C4060 1.397 . S
C4061 C4062 1.334 . S
C4062 H4033 0.950 1_565 S
C4062 C4061 1.334 . S
C4062 C4063 1.287 . S
C4063 C4062 1.287 . S
C4063 C4064 1.524 . S
C4063 H4066 0.999 . S
C4064 H4034 0.950 . S
C4064 C4063 1.524 . S
C4064 C4065 1.415 . S
C4065 H4035 0.950 . S
C4065 C4060 1.363 . S
C4065 C4064 1.415 . S
H4066 C4063 0.999 . S
H4067 C4048 0.913 . S
H4068 C4086 0.951 . S
H4069 C4088 0.883 1_545 S
H4070 C4090 0.950 . S
H4071 C4091 0.950 . S
H4072 C4093 0.950 . S
H4073 C4096 0.950 . S
H4074 C4097 0.950 . S
H4075 C4099 0.950 . S
H4076 C4100 0.950 1_545 S
H4077 C4101 0.951 . S
H4078 C4103 0.951 . S
H4079 C4105 0.950 . S
H4080 C4106 0.950 . S
H4081 C4108 0.950 . S
H4082 C4111 0.950 . S
H4083 C4112 0.950 . S
H4084 C4114 0.950 . S
H4085 C4115 0.950 . S
C4086 H4068 0.951 . S
C4086 C4087 1.366 . S
C4086 C4088 1.388 . S
C4087 C4086 1.366 . S
C4087 C4091 1.385 . S
C4088 H4069 0.883 1_565 S
C4088 C4086 1.388 . S
C4088 C4089 1.366 . S
C4089 C4088 1.366 . S
C4089 C4090 1.414 . S
C4089 C4092 1.499 . S
C4090 H4070 0.950 . S
C4090 C4089 1.414 . S
C4090 C4091 1.374 . S
C4091 H4071 0.950 . S
C4091 C4087 1.385 . S
C4091 C4090 1.374 . S
C4092 C4089 1.499 . S
C4092 C4093 1.373 . S
C4092 C4094 1.389 . S
C4093 H4072 0.950 . S
C4093 C4092 1.373 . S
C4093 C4109 1.377 . S
C4094 C4092 1.389 . S
C4094 C4095 1.524 . S
C4094 C4108 1.377 . S
C4095 C4094 1.524 . S
C4095 C4096 1.397 . S
C4095 C4100 1.363 . S
C4096 H4073 0.950 . S
C4096 C4095 1.397 . S
C4096 C4097 1.334 . S
C4097 H4074 0.950 . S
C4097 C4096 1.334 . S
C4097 C4098 1.287 . S
C4098 C4097 1.287 . S
C4098 C4099 1.524 . S
C4098 H4117 0.913 . S
C4099 H4075 0.950 . S
C4099 C4098 1.524 . S
C4099 C4100 1.415 . S
C4100 H4076 0.950 1_565 S
C4100 C4095 1.363 . S
C4100 C4099 1.415 . S
C4101 H4077 0.951 . S
C4101 C4102 1.366 . S
C4101 C4103 1.388 . S
C4102 C4101 1.366 . S
C4102 C4106 1.385 1_565 S
C4103 H4078 0.951 . S
C4103 C4101 1.388 . S
C4103 C4104 1.366 . S
C4104 C4103 1.366 . S
C4104 C4105 1.414 1_565 S
C4104 C4107 1.499 . S
C4105 H4079 0.950 . S
C4105 C4104 1.414 1_545 S
C4105 C4106 1.374 . S
C4106 H4080 0.950 . S
C4106 C4102 1.385 1_545 S
C4106 C4105 1.374 . S
C4107 C4104 1.499 . S
C4107 C4108 1.373 . S
C4107 C4109 1.389 . S
C4108 H4081 0.950 . S
C4108 C4094 1.377 . S
C4108 C4107 1.373 . S
C4109 C4093 1.377 . S
C4109 C4107 1.389 . S
C4109 C4110 1.524 . S
C4110 C4109 1.524 . S
C4110 C4111 1.397 1_565 S
C4110 C4115 1.363 . S
C4111 H4082 0.950 . S
C4111 C4110 1.397 1_545 S
C4111 C4112 1.334 . S
C4112 H4083 0.950 . S
C4112 C4111 1.334 . S
C4112 C4113 1.277 1_545 S
C4113 C4112 1.277 1_565 S
C4113 C4114 1.536 . S
C4113 H4116 0.998 1_565 S
C4114 H4084 0.950 . S
C4114 C4113 1.536 . S
C4114 C4115 1.415 . S
C4115 H4085 0.950 . S
C4115 C4110 1.363 . S
C4115 C4114 1.415 . S
H4116 C4113 0.998 1_545 S
H4117 C4098 0.913 . S
H4118 C4136 0.951 . S
H4119 C4138 0.951 . S
H4120 C4140 0.950 . S
H4121 C4141 0.950 . S
H4122 C4143 0.950 . S
H4123 C4146 0.950 . S
H4124 C4147 0.950 . S
H4125 C4149 0.950 . S
H4126 C4150 0.950 1_455 S
H4127 C4151 0.951 . S
H4128 C4153 0.951 . S
H4129 C4155 0.950 . S
H4130 C4156 0.950 . S
H4131 C4158 0.950 . S
H4132 C4161 0.950 . S
H4133 C4162 0.950 . S
H4134 C4164 0.950 . S
H4135 C4165 0.950 . S
C4136 H4118 0.951 . S
C4136 C4137 1.366 . S
C4136 C4138 1.388 . S
C4137 C4136 1.366 . S
C4137 C4141 1.385 . S
C4138 H4119 0.951 . S
C4138 C4136 1.388 . S
C4138 C4139 1.366 . S
C4139 C4138 1.366 . S
C4139 C4140 1.414 . S
C4139 C4142 1.499 . S
C4140 H4120 0.950 . S
C4140 C4139 1.414 . S
C4140 C4141 1.374 . S
C4141 H4121 0.950 . S
C4141 C4137 1.385 . S
C4141 C4140 1.374 . S
C4142 C4139 1.499 . S
C4142 C4143 1.373 . S
C4142 C4144 1.389 . S
C4143 H4122 0.950 . S
C4143 C4142 1.373 . S
C4143 C4159 1.377 . S
C4144 C4142 1.389 . S
C4144 C4145 1.439 1_455 S
C4144 C4158 1.377 . S
C4145 C4144 1.439 1_655 S
C4145 C4146 1.470 . S
C4145 C4150 1.380 . S
C4146 H4123 0.950 . S
C4146 C4145 1.470 . S
C4146 C4147 1.334 . S
C4147 H4124 0.950 . S
C4147 C4146 1.334 . S
C4147 C4148 1.287 . S
C4148 C4147 1.287 . S
C4148 C4149 1.524 . S
C4148 H4167 0.913 . S
C4149 H4125 0.950 . S
C4149 C4148 1.524 . S
C4149 C4150 1.415 . S
C4150 H4126 0.950 1_655 S
C4150 C4145 1.380 . S
C4150 C4149 1.415 . S
C4151 H4127 0.951 . S
C4151 C4152 1.366 . S
C4151 C4153 1.388 . S
C4152 C4151 1.366 . S
C4152 C4156 1.385 . S
C4153 H4128 0.951 . S
C4153 C4151 1.388 . S
C4153 C4154 1.366 . S
C4154 C4153 1.366 . S
C4154 C4155 1.414 . S
C4154 C4157 1.499 . S
C4155 H4129 0.950 . S
C4155 C4154 1.414 . S
C4155 C4156 1.374 . S
C4156 H4130 0.950 . S
C4156 C4152 1.385 . S
C4156 C4155 1.374 . S
C4157 C4154 1.499 . S
C4157 C4158 1.373 . S
C4157 C4159 1.389 . S
C4158 H4131 0.950 . S
C4158 C4144 1.377 . S
C4158 C4157 1.373 . S
C4159 C4143 1.377 . S
C4159 C4157 1.389 . S
C4159 C4160 1.524 . S
C4160 C4159 1.524 . S
C4160 C4161 1.397 . S
C4160 C4165 1.363 . S
C4161 H4132 0.950 . S
C4161 C4160 1.397 . S
C4161 C4162 1.334 . S
C4162 H4133 0.950 . S
C4162 C4161 1.334 . S
C4162 C4163 1.287 . S
C4163 C4162 1.287 . S
C4163 C4164 1.524 . S
C4163 H4166 0.999 . S
C4164 H4134 0.950 . S
C4164 C4163 1.524 . S
C4164 C4165 1.415 . S
C4165 H4135 0.950 . S
C4165 C4160 1.363 . S
C4165 C4164 1.415 . S
H4166 C4163 0.999 . S
H4167 C4148 0.913 . S
H4168 C4186 0.951 . S
H4169 C4188 0.951 . S
H4170 C4190 0.950 . S
H4171 C4191 0.950 . S
H4172 C4193 0.950 . S
H4173 C4196 0.950 . S
H4174 C4197 0.950 . S
H4175 C4199 0.950 . S
H4176 C4200 0.950 . S
H4177 C4201 0.951 . S
H4178 C4203 0.951 . S
H4179 C4205 0.950 . S
H4180 C4206 0.950 . S
H4181 C4208 0.950 . S
H4182 C4211 0.950 . S
H4183 C4212 0.950 . S
H4184 C4214 0.950 . S
H4185 C4215 0.950 . S
C4186 H4168 0.951 . S
C4186 C4187 1.366 . S
C4186 C4188 1.388 . S
C4187 C4186 1.366 . S
C4187 C4191 1.385 . S
C4188 H4169 0.951 . S
C4188 C4186 1.388 . S
C4188 C4189 1.366 . S
C4189 C4188 1.366 . S
C4189 C4190 1.414 . S
C4189 C4192 1.499 . S
C4190 H4170 0.950 . S
C4190 C4189 1.414 . S
C4190 C4191 1.374 . S
C4191 H4171 0.950 . S
C4191 C4187 1.385 . S
C4191 C4190 1.374 . S
C4192 C4189 1.499 . S
C4192 C4193 1.373 . S
C4192 C4194 1.389 . S
C4193 H4172 0.950 . S
C4193 C4192 1.373 . S
C4193 C4209 1.377 . S
C4194 C4192 1.389 . S
C4194 C4195 1.524 . S
C4194 C4208 1.377 . S
C4195 C4194 1.524 . S
C4195 C4196 1.397 . S
C4195 C4200 1.363 . S
C4196 H4173 0.950 . S
C4196 C4195 1.397 . S
C4196 C4197 1.334 . S
C4197 H4174 0.950 . S
C4197 C4196 1.334 . S
C4197 C4198 1.287 . S
C4198 C4197 1.287 . S
C4198 C4199 1.524 . S
C4198 H4217 0.913 . S
C4199 H4175 0.950 . S
C4199 C4198 1.524 . S
C4199 C4200 1.415 . S
C4200 H4176 0.950 . S
C4200 C4195 1.363 . S
C4200 C4199 1.415 . S
C4201 H4177 0.951 . S
C4201 C4202 1.366 . S
C4201 C4203 1.388 . S
C4202 C4201 1.366 . S
C4202 C4206 1.385 . S
C4203 H4178 0.951 . S
C4203 C4201 1.388 . S
C4203 C4204 1.366 . S
C4204 C4203 1.366 . S
C4204 C4205 1.414 . S
C4204 C4207 1.499 . S
C4205 H4179 0.950 . S
C4205 C4204 1.414 . S
C4205 C4206 1.374 . S
C4206 H4180 0.950 . S
C4206 C4202 1.385 . S
C4206 C4205 1.374 . S
C4207 C4204 1.499 . S
C4207 C4208 1.373 . S
C4207 C4209 1.389 . S
C4208 H4181 0.950 . S
C4208 C4194 1.377 . S
C4208 C4207 1.373 . S
C4209 C4193 1.377 . S
C4209 C4207 1.389 . S
C4209 C4210 1.524 . S
C4210 C4209 1.524 . S
C4210 C4211 1.397 . S
C4210 C4215 1.363 . S
C4211 H4182 0.950 . S
C4211 C4210 1.397 . S
C4211 C4212 1.334 . S
C4212 H4183 0.950 . S
C4212 C4211 1.334 . S
C4212 C4213 1.287 . S
C4213 C4212 1.287 . S
C4213 C4214 1.524 . S
C4213 H4216 0.999 . S
C4214 H4184 0.950 . S
C4214 C4213 1.524 . S
C4214 C4215 1.415 . S
C4215 H4185 0.950 . S
C4215 C4210 1.363 . S
C4215 C4214 1.415 . S
H4216 C4213 0.999 . S
H4217 C4198 0.913 . S
H4218 C4236 0.951 . S
H4219 C4238 0.951 . S
H4220 C4240 0.950 . S
H4221 C4241 0.950 . S
H4222 C4243 0.950 . S
H4223 C4246 0.950 . S
H4224 C4247 0.950 . S
H4225 C4249 0.950 . S
H4226 C4250 0.950 . S
H4227 C4251 0.951 . S
H4228 C4253 0.951 . S
H4229 C4255 0.950 . S
H4230 C4256 0.950 . S
H4231 C4258 0.950 . S
H4232 C4261 0.950 . S
H4233 C4262 0.950 . S
H4234 C4264 0.950 . S
H4235 C4265 0.950 . S
C4236 H4218 0.951 . S
C4236 C4237 1.366 . S
C4236 C4238 1.388 . S
C4237 C4236 1.366 . S
C4237 C4241 1.385 . S
C4238 H4219 0.951 . S
C4238 C4236 1.388 . S
C4238 C4239 1.366 . S
C4239 C4238 1.366 . S
C4239 C4240 1.414 . S
C4239 C4242 1.499 . S
C4240 H4220 0.950 . S
C4240 C4239 1.414 . S
C4240 C4241 1.374 . S
C4241 H4221 0.950 . S
C4241 C4237 1.385 . S
C4241 C4240 1.374 . S
C4242 C4239 1.499 . S
C4242 C4243 1.373 . S
C4242 C4244 1.389 . S
C4243 H4222 0.950 . S
C4243 C4242 1.373 . S
C4243 C4259 1.377 . S
C4244 C4242 1.389 . S
C4244 C4245 1.524 . S
C4244 C4258 1.377 . S
C4245 C4244 1.524 . S
C4245 C4246 1.397 . S
C4245 C4250 1.363 . S
C4246 H4223 0.950 . S
C4246 C4245 1.397 . S
C4246 C4247 1.334 . S
C4247 H4224 0.950 . S
C4247 C4246 1.334 . S
C4247 C4248 1.287 . S
C4248 C4247 1.287 . S
C4248 C4249 1.524 . S
C4248 H4267 0.913 . S
C4249 H4225 0.950 . S
C4249 C4248 1.524 . S
C4249 C4250 1.415 . S
C4250 H4226 0.950 . S
C4250 C4245 1.363 . S
C4250 C4249 1.415 . S
C4251 H4227 0.951 . S
C4251 C4252 1.366 . S
C4251 C4253 1.388 . S
C4252 C4251 1.366 . S
C4252 C4256 1.385 . S
C4253 H4228 0.951 . S
C4253 C4251 1.388 . S
C4253 C4254 1.366 . S
C4254 C4253 1.366 . S
C4254 C4255 1.414 . S
C4254 C4257 1.499 . S
C4255 H4229 0.950 . S
C4255 C4254 1.414 . S
C4255 C4256 1.374 . S
C4256 H4230 0.950 . S
C4256 C4252 1.385 . S
C4256 C4255 1.374 . S
C4257 C4254 1.499 . S
C4257 C4258 1.373 . S
C4257 C4259 1.389 . S
C4258 H4231 0.950 . S
C4258 C4244 1.377 . S
C4258 C4257 1.373 . S
C4259 C4243 1.377 . S
C4259 C4257 1.389 . S
C4259 C4260 1.524 . S
C4260 C4259 1.524 . S
C4260 C4261 1.397 . S
C4260 C4265 1.363 . S
C4261 H4232 0.950 . S
C4261 C4260 1.397 . S
C4261 C4262 1.334 . S
C4262 H4233 0.950 . S
C4262 C4261 1.334 . S
C4262 C4263 1.287 . S
C4263 C4262 1.287 . S
C4263 C4264 1.524 . S
C4263 H4266 0.999 . S
C4264 H4234 0.950 . S
C4264 C4263 1.524 . S
C4264 C4265 1.415 . S
C4265 H4235 0.950 . S
C4265 C4260 1.363 . S
C4265 C4264 1.415 . S
H4266 C4263 0.999 . S
H4267 C4248 0.913 . S
H4268 C4286 0.951 . S
H4269 C4288 0.951 . S
H4270 C4290 0.950 . S
H4271 C4291 0.950 . S
H4272 C4293 0.950 . S
H4273 C4296 0.950 . S
H4274 C4297 0.950 . S
H4275 C4299 0.950 . S
H4276 C4300 0.950 . S
H4277 C4301 0.951 . S
H4278 C4303 0.951 . S
H4279 C4305 0.950 . S
H4280 C4306 0.950 . S
H4281 C4308 0.950 . S
H4282 C4311 0.950 . S
H4283 C4312 0.950 . S
H4284 C4314 0.950 . S
H4285 C4315 0.950 . S
C4286 H4268 0.951 . S
C4286 C4287 1.366 . S
C4286 C4288 1.388 . S
C4287 C4286 1.366 . S
C4287 C4291 1.385 . S
C4288 H4269 0.951 . S
C4288 C4286 1.388 . S
C4288 C4289 1.366 . S
C4289 C4288 1.366 . S
C4289 C4290 1.414 . S
C4289 C4292 1.499 . S
C4290 H4270 0.950 . S
C4290 C4289 1.414 . S
C4290 C4291 1.374 . S
C4291 H4271 0.950 . S
C4291 C4287 1.385 . S
C4291 C4290 1.374 . S
C4292 C4289 1.499 . S
C4292 C4293 1.373 . S
C4292 C4294 1.389 . S
C4293 H4272 0.950 . S
C4293 C4292 1.373 . S
C4293 C4309 1.377 . S
C4294 C4292 1.389 . S
C4294 C4295 1.524 . S
C4294 C4308 1.377 . S
C4295 C4294 1.524 . S
C4295 C4296 1.397 . S
C4295 C4300 1.363 . S
C4296 H4273 0.950 . S
C4296 C4295 1.397 . S
C4296 C4297 1.334 . S
C4297 H4274 0.950 . S
C4297 C4296 1.334 . S
C4297 C4298 1.287 . S
C4298 C4297 1.287 . S
C4298 C4299 1.524 . S
C4298 H4317 0.913 . S
C4299 H4275 0.950 . S
C4299 C4298 1.524 . S
C4299 C4300 1.415 . S
C4300 H4276 0.950 . S
C4300 C4295 1.363 . S
C4300 C4299 1.415 . S
C4301 H4277 0.951 . S
C4301 C4302 1.366 . S
C4301 C4303 1.388 . S
C4302 C4301 1.366 . S
C4302 C4306 1.385 . S
C4303 H4278 0.951 . S
C4303 C4301 1.388 . S
C4303 C4304 1.366 . S
C4304 C4303 1.366 . S
C4304 C4305 1.414 . S
C4304 C4307 1.499 . S
C4305 H4279 0.950 . S
C4305 C4304 1.414 . S
C4305 C4306 1.374 . S
C4306 H4280 0.950 . S
C4306 C4302 1.385 . S
C4306 C4305 1.374 . S
C4307 C4304 1.499 . S
C4307 C4308 1.373 . S
C4307 C4309 1.389 . S
C4308 H4281 0.950 . S
C4308 C4294 1.377 . S
C4308 C4307 1.373 . S
C4309 C4293 1.377 . S
C4309 C4307 1.389 . S
C4309 C4310 1.524 . S
C4310 C4309 1.524 . S
C4310 C4311 1.397 . S
C4310 C4315 1.363 . S
C4311 H4282 0.950 . S
C4311 C4310 1.397 . S
C4311 C4312 1.334 . S
C4312 H4283 0.950 . S
C4312 C4311 1.334 . S
C4312 C4313 1.287 . S
C4313 C4312 1.287 . S
C4313 C4314 1.524 . S
C4313 H4316 0.999 . S
C4314 H4284 0.950 . S
C4314 C4313 1.524 . S
C4314 C4315 1.415 . S
C4315 H4285 0.950 . S
C4315 C4310 1.363 . S
C4315 C4314 1.415 . S
H4316 C4313 0.999 . S
H4317 C4298 0.913 . S
H4318 C4336 0.951 . S
H4319 C4338 0.951 . S
H4320 C4340 0.950 . S
H4321 C4341 0.950 . S
H4322 C4343 0.950 . S
H4323 C4346 0.950 . S
H4324 C4347 0.950 . S
H4325 C4349 0.950 . S
H4326 C4350 0.950 . S
H4327 C4351 0.951 . S
H4328 C4353 0.951 . S
H4329 C4355 0.950 . S
H4330 C4356 0.950 . S
H4331 C4358 0.950 . S
H4332 C4361 0.950 . S
H4333 C4362 0.950 . S
H4334 C4364 0.950 . S
H4335 C4365 0.950 . S
C4336 H4318 0.951 . S
C4336 C4337 1.366 . S
C4336 C4338 1.388 . S
C4337 C4336 1.366 . S
C4337 C4341 1.385 . S
C4338 H4319 0.951 . S
C4338 C4336 1.388 . S
C4338 C4339 1.366 . S
C4339 C4338 1.366 . S
C4339 C4340 1.414 . S
C4339 C4342 1.499 . S
C4340 H4320 0.950 . S
C4340 C4339 1.414 . S
C4340 C4341 1.374 . S
C4341 H4321 0.950 . S
C4341 C4337 1.385 . S
C4341 C4340 1.374 . S
C4342 C4339 1.499 . S
C4342 C4343 1.373 . S
C4342 C4344 1.389 . S
C4343 H4322 0.950 . S
C4343 C4342 1.373 . S
C4343 C4359 1.377 . S
C4344 C4342 1.389 . S
C4344 C4345 1.524 . S
C4344 C4358 1.377 . S
C4345 C4344 1.524 . S
C4345 C4346 1.397 . S
C4345 C4350 1.363 . S
C4346 H4323 0.950 . S
C4346 C4345 1.397 . S
C4346 C4347 1.334 . S
C4347 H4324 0.950 . S
C4347 C4346 1.334 . S
C4347 C4348 1.287 . S
C4348 C4347 1.287 . S
C4348 C4349 1.524 . S
C4348 H4367 0.913 . S
C4349 H4325 0.950 . S
C4349 C4348 1.524 . S
C4349 C4350 1.415 . S
C4350 H4326 0.950 . S
C4350 C4345 1.363 . S
C4350 C4349 1.415 . S
C4351 H4327 0.951 . S
C4351 C4352 1.366 . S
C4351 C4353 1.388 . S
C4352 C4351 1.366 . S
C4352 C4356 1.385 . S
C4353 H4328 0.951 . S
C4353 C4351 1.388 . S
C4353 C4354 1.366 . S
C4354 C4353 1.366 . S
C4354 C4355 1.414 . S
C4354 C4357 1.499 . S
C4355 H4329 0.950 . S
C4355 C4354 1.414 . S
C4355 C4356 1.374 . S
C4356 H4330 0.950 . S
C4356 C4352 1.385 . S
C4356 C4355 1.374 . S
C4357 C4354 1.499 . S
C4357 C4358 1.373 . S
C4357 C4359 1.389 . S
C4358 H4331 0.950 . S
C4358 C4344 1.377 . S
C4358 C4357 1.373 . S
C4359 C4343 1.377 . S
C4359 C4357 1.389 . S
C4359 C4360 1.524 . S
C4360 C4359 1.524 . S
C4360 C4361 1.397 . S
C4360 C4365 1.363 . S
C4361 H4332 0.950 . S
C4361 C4360 1.397 . S
C4361 C4362 1.334 . S
C4362 H4333 0.950 . S
C4362 C4361 1.334 . S
C4362 C4363 1.287 . S
C4363 C4362 1.287 . S
C4363 C4364 1.524 . S
C4363 H4366 0.999 . S
C4364 H4334 0.950 . S
C4364 C4363 1.524 . S
C4364 C4365 1.415 . S
C4365 H4335 0.950 . S
C4365 C4360 1.363 . S
C4365 C4364 1.415 . S
H4366 C4363 0.999 . S
H4367 C4348 0.913 . S
H4368 C4386 0.951 . S
H4369 C4388 0.900 1_565 S
H4370 C4390 0.950 . S
H4371 C4391 0.950 . S
H4372 C4393 0.950 . S
H4373 C4396 0.950 . S
H4374 C4397 0.950 . S
H4375 C4399 0.950 . S
H4376 C4400 0.950 . S
H4377 C4401 0.951 . S
H4378 C4403 0.951 . S
H4379 C4405 0.937 1_565 S
H4380 C4406 1.036 . S
H4381 C4408 0.950 . S
H4382 C4411 0.950 . S
H4383 C4412 0.950 . S
H4384 C4414 0.950 . S
H4385 C4415 0.950 . S
C4386 H4368 0.951 . S
C4386 C4387 1.366 . S
C4386 C4388 1.388 . S
C4387 C4386 1.366 . S
C4387 C4391 1.385 . S
C4388 H4369 0.900 1_545 S
C4388 C4386 1.388 . S
C4388 C4389 1.366 . S
C4389 C4388 1.366 . S
C4389 C4390 1.414 . S
C4389 C4392 1.499 . S
C4390 H4370 0.950 . S
C4390 C4389 1.414 . S
C4390 C4391 1.374 . S
C4391 H4371 0.950 . S
C4391 C4387 1.385 . S
C4391 C4390 1.374 . S
C4392 C4389 1.499 . S
C4392 C4393 1.373 . S
C4392 C4394 1.389 . S
C4393 H4372 0.950 . S
C4393 C4392 1.373 . S
C4393 C4409 1.377 . S
C4394 C4392 1.389 . S
C4394 C4395 1.524 . S
C4394 C4408 1.377 . S
C4395 C4394 1.524 . S
C4395 C4396 1.397 . S
C4395 C4400 1.363 1_545 S
C4396 H4373 0.950 . S
C4396 C4395 1.397 . S
C4396 C4397 1.334 . S
C4397 H4374 0.950 . S
C4397 C4396 1.334 . S
C4397 C4398 1.287 1_545 S
C4398 C4397 1.287 1_565 S
C4398 C4399 1.524 . S
C4398 H4417 0.913 . S
C4399 H4375 0.950 . S
C4399 C4398 1.524 . S
C4399 C4400 1.415 . S
C4400 H4376 0.950 . S
C4400 C4395 1.363 1_565 S
C4400 C4399 1.415 . S
C4401 H4377 0.951 . S
C4401 C4402 1.366 . S
C4401 C4403 1.388 . S
C4402 C4401 1.366 . S
C4402 C4406 1.348 1_545 S
C4403 H4378 0.951 . S
C4403 C4401 1.388 . S
C4403 C4404 1.366 . S
C4404 C4403 1.366 . S
C4404 C4405 1.443 . S
C4404 C4407 1.499 . S
C4405 H4379 0.937 1_545 S
C4405 C4404 1.443 . S
C4405 C4406 1.315 1_545 S
C4406 H4380 1.036 . S
C4406 C4402 1.348 1_565 S
C4406 C4405 1.315 1_565 S
C4407 C4404 1.499 . S
C4407 C4408 1.373 . S
C4407 C4409 1.389 . S
C4408 H4381 0.950 . S
C4408 C4394 1.377 . S
C4408 C4407 1.373 . S
C4409 C4393 1.377 . S
C4409 C4407 1.389 . S
C4409 C4410 1.524 . S
C4410 C4409 1.524 . S
C4410 C4411 1.397 . S
C4410 C4415 1.363 . S
C4411 H4382 0.950 . S
C4411 C4410 1.397 . S
C4411 C4412 1.334 . S
C4412 H4383 0.950 . S
C4412 C4411 1.334 . S
C4412 C4413 1.287 . S
C4413 C4412 1.287 . S
C4413 C4414 1.524 . S
C4413 H4416 0.999 . S
C4414 H4384 0.950 . S
C4414 C4413 1.524 . S
C4414 C4415 1.415 . S
C4415 H4385 0.950 . S
C4415 C4410 1.363 . S
C4415 C4414 1.415 . S
H4416 C4413 0.999 . S
H4417 C4398 0.913 . S
H4418 C4436 0.908 1_455 S
H4419 C4438 0.951 1_455 S
H4420 C4440 0.950 . S
H4421 C4441 0.950 . S
H4422 C4443 0.950 . S
H4423 C4446 0.950 . S
H4424 C4447 0.950 . S
H4425 C4449 0.950 1_455 S
H4426 C4450 0.921 1_455 S
H4427 C4451 0.951 . S
H4428 C4453 0.951 . S
H4429 C4455 0.950 . S
H4430 C4456 0.950 . S
H4431 C4458 0.950 . S
H4432 C4461 0.950 . S
H4433 C4462 0.950 . S
H4434 C4464 0.950 . S
H4435 C4465 0.950 . S
C4436 H4418 0.908 1_655 S
C4436 C4437 1.366 . S
C4436 C4438 1.388 . S
C4437 C4436 1.366 . S
C4437 C4441 1.385 . S
C4438 H4419 0.951 1_655 S
C4438 C4436 1.388 . S
C4438 C4439 1.366 . S
C4439 C4438 1.366 . S
C4439 C4440 1.414 . S
C4439 C4442 1.499 . S
C4440 H4420 0.950 . S
C4440 C4439 1.414 . S
C4440 C4441 1.374 . S
C4441 H4421 0.950 . S
C4441 C4437 1.385 . S
C4441 C4440 1.374 . S
C4442 C4439 1.499 . S
C4442 C4443 1.373 . S
C4442 C4444 1.389 . S
C4443 H4422 0.950 . S
C4443 C4442 1.373 . S
C4443 C4459 1.377 . S
C4444 C4442 1.389 . S
C4444 C4445 1.524 . S
C4444 C4458 1.377 . S
C4445 C4444 1.524 . S
C4445 C4446 1.397 . S
C4445 C4450 1.425 . S
C4446 H4423 0.950 . S
C4446 C4445 1.397 . S
C4446 C4447 1.334 . S
C4447 H4424 0.950 . S
C4447 C4446 1.334 . S
C4447 C4448 1.287 . S
C4448 C4447 1.287 . S
C4448 C4449 1.524 . S
C4448 H4467 0.913 . S
C4449 H4425 0.950 1_655 S
C4449 C4448 1.524 . S
C4449 C4450 1.390 . S
C4450 H4426 0.921 1_655 S
C4450 C4445 1.425 . S
C4450 C4449 1.390 . S
C4451 H4427 0.951 . S
C4451 C4452 1.366 . S
C4451 C4453 1.388 . S
C4452 C4451 1.366 . S
C4452 C4456 1.385 1_655 S
C4453 H4428 0.951 . S
C4453 C4451 1.388 . S
C4453 C4454 1.366 . S
C4454 C4453 1.366 . S
C4454 C4455 1.414 1_655 S
C4454 C4457 1.499 . S
C4455 H4429 0.950 . S
C4455 C4454 1.414 1_455 S
C4455 C4456 1.374 . S
C4456 H4430 0.950 . S
C4456 C4452 1.385 1_455 S
C4456 C4455 1.374 . S
C4457 C4454 1.499 . S
C4457 C4458 1.373 . S
C4457 C4459 1.389 . S
C4458 H4431 0.950 . S
C4458 C4444 1.377 . S
C4458 C4457 1.373 . S
C4459 C4443 1.377 . S
C4459 C4457 1.389 . S
C4459 C4460 1.524 . S
C4460 C4459 1.524 . S
C4460 C4461 1.397 1_655 S
C4460 C4465 1.363 . S
C4461 H4432 0.950 . S
C4461 C4460 1.397 1_455 S
C4461 C4462 1.334 . S
C4462 H4433 0.950 . S
C4462 C4461 1.334 . S
C4462 C4463 1.287 1_455 S
C4463 C4462 1.287 1_655 S
C4463 C4464 1.524 . S
C4463 H4466 0.999 . S
C4464 H4434 0.950 . S
C4464 C4463 1.524 . S
C4464 C4465 1.415 . S
C4465 H4435 0.950 . S
C4465 C4460 1.363 . S
C4465 C4464 1.415 . S
H4466 C4463 0.999 . S
H4467 C4448 0.913 . S
H4468 C4486 0.951 . S
H4469 C4488 0.951 . S
H4470 C4490 0.950 . S
H4471 C4491 0.950 . S
H4472 C4493 0.950 . S
H4473 C4496 0.950 . S
H4474 C4497 0.950 . S
H4475 C4499 0.950 . S
H4476 C4500 0.950 . S
H4477 C4501 0.951 . S
H4478 C4503 0.951 . S
H4479 C4505 0.950 . S
H4480 C4506 0.950 . S
H4481 C4508 0.950 . S
H4482 C4511 0.950 . S
H4483 C4512 0.950 . S
H4484 C4514 0.950 . S
H4485 C4515 0.950 . S
C4486 H4468 0.951 . S
C4486 C4487 1.366 . S
C4486 C4488 1.388 . S
C4487 C4486 1.366 . S
C4487 C4491 1.385 . S
C4488 H4469 0.951 . S
C4488 C4486 1.388 . S
C4488 C4489 1.366 . S
C4489 C4488 1.366 . S
C4489 C4490 1.414 . S
C4489 C4492 1.499 . S
C4490 H4470 0.950 . S
C4490 C4489 1.414 . S
C4490 C4491 1.374 . S
C4491 H4471 0.950 . S
C4491 C4487 1.385 . S
C4491 C4490 1.374 . S
C4492 C4489 1.499 . S
C4492 C4493 1.373 . S
C4492 C4494 1.389 . S
C4493 H4472 0.950 . S
C4493 C4492 1.373 . S
C4493 C4509 1.377 . S
C4494 C4492 1.389 . S
C4494 C4495 1.524 . S
C4494 C4508 1.377 . S
C4495 C4494 1.524 . S
C4495 C4496 1.397 . S
C4495 C4500 1.363 . S
C4496 H4473 0.950 . S
C4496 C4495 1.397 . S
C4496 C4497 1.334 . S
C4497 H4474 0.950 . S
C4497 C4496 1.334 . S
C4497 C4498 1.287 . S
C4498 C4497 1.287 . S
C4498 C4499 1.524 . S
C4498 H4517 0.913 . S
C4499 H4475 0.950 . S
C4499 C4498 1.524 . S
C4499 C4500 1.415 . S
C4500 H4476 0.950 . S
C4500 C4495 1.363 . S
C4500 C4499 1.415 . S
C4501 H4477 0.951 . S
C4501 C4502 1.366 . S
C4501 C4503 1.388 . S
C4502 C4501 1.366 . S
C4502 C4506 1.385 . S
C4503 H4478 0.951 . S
C4503 C4501 1.388 . S
C4503 C4504 1.366 . S
C4504 C4503 1.366 . S
C4504 C4505 1.414 . S
C4504 C4507 1.499 . S
C4505 H4479 0.950 . S
C4505 C4504 1.414 . S
C4505 C4506 1.374 . S
C4506 H4480 0.950 . S
C4506 C4502 1.385 . S
C4506 C4505 1.374 . S
C4507 C4504 1.499 . S
C4507 C4508 1.373 . S
C4507 C4509 1.389 . S
C4508 H4481 0.950 . S
C4508 C4494 1.377 . S
C4508 C4507 1.373 . S
C4509 C4493 1.377 . S
C4509 C4507 1.389 . S
C4509 C4510 1.524 . S
C4510 C4509 1.524 . S
C4510 C4511 1.397 . S
C4510 C4515 1.363 . S
C4511 H4482 0.950 . S
C4511 C4510 1.397 . S
C4511 C4512 1.334 . S
C4512 H4483 0.950 . S
C4512 C4511 1.334 . S
C4512 C4513 1.287 . S
C4513 C4512 1.287 . S
C4513 C4514 1.524 . S
C4513 H4516 0.999 . S
C4514 H4484 0.950 . S
C4514 C4513 1.524 . S
C4514 C4515 1.415 . S
C4515 H4485 0.950 . S
C4515 C4510 1.363 . S
C4515 C4514 1.415 . S
H4516 C4513 0.999 . S
H4517 C4498 0.913 . S
H4518 C4536 0.951 . S
H4519 C4538 0.951 . S
H4520 C4540 0.950 . S
H4521 C4541 0.950 . S
H4522 C4543 0.950 . S
H4523 C4546 0.950 . S
H4524 C4547 0.950 . S
H4525 C4549 0.950 . S
H4526 C4550 0.950 . S
H4527 C4551 0.951 . S
H4528 C4553 0.951 . S
H4529 C4555 0.950 . S
H4530 C4556 0.950 . S
H4531 C4558 0.950 . S
H4532 C4561 0.950 . S
H4533 C4562 0.950 . S
H4534 C4564 0.950 . S
H4535 C4565 0.950 . S
C4536 H4518 0.951 . S
C4536 C4537 1.366 . S
C4536 C4538 1.388 . S
C4537 C4536 1.366 . S
C4537 C4541 1.385 . S
C4538 H4519 0.951 . S
C4538 C4536 1.388 . S
C4538 C4539 1.366 . S
C4539 C4538 1.366 . S
C4539 C4540 1.414 . S
C4539 C4542 1.499 . S
C4540 H4520 0.950 . S
C4540 C4539 1.414 . S
C4540 C4541 1.374 . S
C4541 H4521 0.950 . S
C4541 C4537 1.385 . S
C4541 C4540 1.374 . S
C4542 C4539 1.499 . S
C4542 C4543 1.373 . S
C4542 C4544 1.389 . S
C4543 H4522 0.950 . S
C4543 C4542 1.373 . S
C4543 C4559 1.377 . S
C4544 C4542 1.389 . S
C4544 C4545 1.524 . S
C4544 C4558 1.377 . S
C4545 C4544 1.524 . S
C4545 C4546 1.397 . S
C4545 C4550 1.363 . S
C4546 H4523 0.950 . S
C4546 C4545 1.397 . S
C4546 C4547 1.334 . S
C4547 H4524 0.950 . S
C4547 C4546 1.334 . S
C4547 C4548 1.287 . S
C4548 C4547 1.287 . S
C4548 C4549 1.524 . S
C4548 H4567 0.913 . S
C4549 H4525 0.950 . S
C4549 C4548 1.524 . S
C4549 C4550 1.415 . S
C4550 H4526 0.950 . S
C4550 C4545 1.363 . S
C4550 C4549 1.415 . S
C4551 H4527 0.951 . S
C4551 C4552 1.366 . S
C4551 C4553 1.388 . S
C4552 C4551 1.366 . S
C4552 C4556 1.385 . S
C4553 H4528 0.951 . S
C4553 C4551 1.388 . S
C4553 C4554 1.366 . S
C4554 C4553 1.366 . S
C4554 C4555 1.414 . S
C4554 C4557 1.499 . S
C4555 H4529 0.950 . S
C4555 C4554 1.414 . S
C4555 C4556 1.374 . S
C4556 H4530 0.950 . S
C4556 C4552 1.385 . S
C4556 C4555 1.374 . S
C4557 C4554 1.499 . S
C4557 C4558 1.373 . S
C4557 C4559 1.389 . S
C4558 H4531 0.950 . S
C4558 C4544 1.377 . S
C4558 C4557 1.373 . S
C4559 C4543 1.377 . S
C4559 C4557 1.389 . S
C4559 C4560 1.524 . S
C4560 C4559 1.524 . S
C4560 C4561 1.397 . S
C4560 C4565 1.363 . S
C4561 H4532 0.950 . S
C4561 C4560 1.397 . S
C4561 C4562 1.334 . S
C4562 H4533 0.950 . S
C4562 C4561 1.334 . S
C4562 C4563 1.287 . S
C4563 C4562 1.287 . S
C4563 C4564 1.524 . S
C4563 H4566 0.999 . S
C4564 H4534 0.950 . S
C4564 C4563 1.524 . S
C4564 C4565 1.415 . S
C4565 H4535 0.950 . S
C4565 C4560 1.363 . S
C4565 C4564 1.415 . S
H4566 C4563 0.999 . S
H4567 C4548 0.913 . S
H4568 C4586 0.951 . S
H4569 C4588 0.951 . S
H4570 C4590 0.950 . S
H4571 C4591 0.950 . S
H4572 C4593 0.950 . S
H4573 C4596 0.950 . S
H4574 C4597 0.950 . S
H4575 C4599 0.950 . S
H4576 C4600 0.950 . S
H4577 C4601 0.951 . S
H4578 C4603 0.951 . S
H4579 C4605 0.950 . S
H4580 C4606 0.950 . S
H4581 C4608 0.950 . S
H4582 C4611 0.950 . S
H4583 C4612 0.950 . S
H4584 C4614 0.950 . S
H4585 C4615 0.950 . S
C4586 H4568 0.951 . S
C4586 C4587 1.366 . S
C4586 C4588 1.388 . S
C4587 C4586 1.366 . S
C4587 C4591 1.385 . S
C4588 H4569 0.951 . S
C4588 C4586 1.388 . S
C4588 C4589 1.366 . S
C4589 C4588 1.366 . S
C4589 C4590 1.414 . S
C4589 C4592 1.499 . S
C4590 H4570 0.950 . S
C4590 C4589 1.414 . S
C4590 C4591 1.374 . S
C4591 H4571 0.950 . S
C4591 C4587 1.385 . S
C4591 C4590 1.374 . S
C4592 C4589 1.499 . S
C4592 C4593 1.373 . S
C4592 C4594 1.389 . S
C4593 H4572 0.950 . S
C4593 C4592 1.373 . S
C4593 C4609 1.377 . S
C4594 C4592 1.389 . S
C4594 C4595 1.524 . S
C4594 C4608 1.377 . S
C4595 C4594 1.524 . S
C4595 C4596 1.397 . S
C4595 C4600 1.363 . S
C4596 H4573 0.950 . S
C4596 C4595 1.397 . S
C4596 C4597 1.334 . S
C4597 H4574 0.950 . S
C4597 C4596 1.334 . S
C4597 C4598 1.287 . S
C4598 C4597 1.287 . S
C4598 C4599 1.524 . S
C4598 H4617 0.913 . S
C4599 H4575 0.950 . S
C4599 C4598 1.524 . S
C4599 C4600 1.415 . S
C4600 H4576 0.950 . S
C4600 C4595 1.363 . S
C4600 C4599 1.415 . S
C4601 H4577 0.951 . S
C4601 C4602 1.366 . S
C4601 C4603 1.388 . S
C4602 C4601 1.366 . S
C4602 C4606 1.385 . S
C4603 H4578 0.951 . S
C4603 C4601 1.388 . S
C4603 C4604 1.366 . S
C4604 C4603 1.366 . S
C4604 C4605 1.414 . S
C4604 C4607 1.499 . S
C4605 H4579 0.950 . S
C4605 C4604 1.414 . S
C4605 C4606 1.374 . S
C4606 H4580 0.950 . S
C4606 C4602 1.385 . S
C4606 C4605 1.374 . S
C4607 C4604 1.499 . S
C4607 C4608 1.373 . S
C4607 C4609 1.389 . S
C4608 H4581 0.950 . S
C4608 C4594 1.377 . S
C4608 C4607 1.373 . S
C4609 C4593 1.377 . S
C4609 C4607 1.389 . S
C4609 C4610 1.524 . S
C4610 C4609 1.524 . S
C4610 C4611 1.397 . S
C4610 C4615 1.363 . S
C4611 H4582 0.950 . S
C4611 C4610 1.397 . S
C4611 C4612 1.334 . S
C4612 H4583 0.950 . S
C4612 C4611 1.334 . S
C4612 C4613 1.287 . S
C4613 C4612 1.287 . S
C4613 C4614 1.524 . S
C4613 H4616 0.999 . S
C4614 H4584 0.950 . S
C4614 C4613 1.524 . S
C4614 C4615 1.415 . S
C4615 H4585 0.950 . S
C4615 C4610 1.363 . S
C4615 C4614 1.415 . S
H4616 C4613 0.999 . S
H4617 C4598 0.913 . S
H4618 C4636 0.951 . S
H4619 C4638 0.951 . S
H4620 C4640 0.950 . S
H4621 C4641 0.950 . S
H4622 C4643 0.950 . S
H4623 C4646 0.950 . S
H4624 C4647 0.950 . S
H4625 C4649 0.950 . S
H4626 C4650 0.950 . S
H4627 C4651 0.951 . S
H4628 C4653 0.951 . S
H4629 C4655 0.950 . S
H4630 C4656 0.950 . S
H4631 C4658 0.950 . S
H4632 C4661 0.950 . S
H4633 C4662 0.950 . S
H4634 C4664 0.950 . S
H4635 C4665 0.950 . S
C4636 H4618 0.951 . S
C4636 C4637 1.366 . S
C4636 C4638 1.388 . S
C4637 C4636 1.366 . S
C4637 C4641 1.385 . S
C4638 H4619 0.951 . S
C4638 C4636 1.388 . S
C4638 C4639 1.366 . S
C4639 C4638 1.366 . S
C4639 C4640 1.414 . S
C4639 C4642 1.499 . S
C4640 H4620 0.950 . S
C4640 C4639 1.414 . S
C4640 C4641 1.374 . S
C4641 H4621 0.950 . S
C4641 C4637 1.385 . S
C4641 C4640 1.374 . S
C4642 C4639 1.499 . S
C4642 C4643 1.373 . S
C4642 C4644 1.389 . S
C4643 H4622 0.950 . S
C4643 C4642 1.373 . S
C4643 C4659 1.377 . S
C4644 C4642 1.389 . S
C4644 C4645 1.524 . S
C4644 C4658 1.377 . S
C4645 C4644 1.524 . S
C4645 C4646 1.397 . S
C4645 C4650 1.363 . S
C4646 H4623 0.950 . S
C4646 C4645 1.397 . S
C4646 C4647 1.334 . S
C4647 H4624 0.950 . S
C4647 C4646 1.334 . S
C4647 C4648 1.287 . S
C4648 C4647 1.287 . S
C4648 C4649 1.524 . S
C4648 H4667 0.913 . S
C4649 H4625 0.950 . S
C4649 C4648 1.524 . S
C4649 C4650 1.415 . S
C4650 H4626 0.950 . S
C4650 C4645 1.363 . S
C4650 C4649 1.415 . S
C4651 H4627 0.951 . S
C4651 C4652 1.366 . S
C4651 C4653 1.388 . S
C4652 C4651 1.366 . S
C4652 C4656 1.385 . S
C4653 H4628 0.951 . S
C4653 C4651 1.388 . S
C4653 C4654 1.366 . S
C4654 C4653 1.366 . S
C4654 C4655 1.414 . S
C4654 C4657 1.499 . S
C4655 H4629 0.950 . S
C4655 C4654 1.414 . S
C4655 C4656 1.374 . S
C4656 H4630 0.950 . S
C4656 C4652 1.385 . S
C4656 C4655 1.374 . S
C4657 C4654 1.499 . S
C4657 C4658 1.373 . S
C4657 C4659 1.389 . S
C4658 H4631 0.950 . S
C4658 C4644 1.377 . S
C4658 C4657 1.373 . S
C4659 C4643 1.377 . S
C4659 C4657 1.389 . S
C4659 C4660 1.524 . S
C4660 C4659 1.524 . S
C4660 C4661 1.397 . S
C4660 C4665 1.363 . S
C4661 H4632 0.950 . S
C4661 C4660 1.397 . S
C4661 C4662 1.334 . S
C4662 H4633 0.950 . S
C4662 C4661 1.334 . S
C4662 C4663 1.287 . S
C4663 C4662 1.287 . S
C4663 C4664 1.524 . S
C4663 H4666 0.999 . S
C4664 H4634 0.950 . S
C4664 C4663 1.524 . S
C4664 C4665 1.415 . S
C4665 H4635 0.950 . S
C4665 C4660 1.363 . S
C4665 C4664 1.415 . S
H4666 C4663 0.999 . S
H4667 C4648 0.913 . S
H4668 C4686 0.951 . S
H4669 C4688 0.951 . S
H4670 C4690 0.950 . S
H4671 C4691 0.950 . S
H4672 C4693 0.950 . S
H4673 C4696 0.950 . S
H4674 C4697 0.950 . S
H4675 C4699 0.950 . S
H4676 C4700 0.950 . S
H4677 C4701 0.951 . S
H4678 C4703 0.951 . S
H4679 C4705 0.950 . S
H4680 C4706 0.950 . S
H4681 C4708 0.950 . S
H4682 C4711 0.950 . S
H4683 C4712 0.950 . S
H4684 C4714 0.950 . S
H4685 C4715 0.950 . S
C4686 H4668 0.951 . S
C4686 C4687 1.366 . S
C4686 C4688 1.388 . S
C4687 C4686 1.366 . S
C4687 C4691 1.385 . S
C4688 H4669 0.951 . S
C4688 C4686 1.388 . S
C4688 C4689 1.366 . S
C4689 C4688 1.366 . S
C4689 C4690 1.414 . S
C4689 C4692 1.499 . S
C4690 H4670 0.950 . S
C4690 C4689 1.414 . S
C4690 C4691 1.374 . S
C4691 H4671 0.950 . S
C4691 C4687 1.385 . S
C4691 C4690 1.374 . S
C4692 C4689 1.499 . S
C4692 C4693 1.373 . S
C4692 C4694 1.389 . S
C4693 H4672 0.950 . S
C4693 C4692 1.373 . S
C4693 C4709 1.377 . S
C4694 C4692 1.389 . S
C4694 C4695 1.524 . S
C4694 C4708 1.377 . S
C4695 C4694 1.524 . S
C4695 C4696 1.397 . S
C4695 C4700 1.363 . S
C4696 H4673 0.950 . S
C4696 C4695 1.397 . S
C4696 C4697 1.334 . S
C4697 H4674 0.950 . S
C4697 C4696 1.334 . S
C4697 C4698 1.287 . S
C4698 C4697 1.287 . S
C4698 C4699 1.524 . S
C4698 H4717 0.913 . S
C4699 H4675 0.950 . S
C4699 C4698 1.524 . S
C4699 C4700 1.415 . S
C4700 H4676 0.950 . S
C4700 C4695 1.363 . S
C4700 C4699 1.415 . S
C4701 H4677 0.951 . S
C4701 C4702 1.366 . S
C4701 C4703 1.388 . S
C4702 C4701 1.366 . S
C4702 C4706 1.385 . S
C4703 H4678 0.951 . S
C4703 C4701 1.388 . S
C4703 C4704 1.366 . S
C4704 C4703 1.366 . S
C4704 C4705 1.414 . S
C4704 C4707 1.499 . S
C4705 H4679 0.950 . S
C4705 C4704 1.414 . S
C4705 C4706 1.374 . S
C4706 H4680 0.950 . S
C4706 C4702 1.385 . S
C4706 C4705 1.374 . S
C4707 C4704 1.499 . S
C4707 C4708 1.373 . S
C4707 C4709 1.389 . S
C4708 H4681 0.950 . S
C4708 C4694 1.377 . S
C4708 C4707 1.373 . S
C4709 C4693 1.377 . S
C4709 C4707 1.389 . S
C4709 C4710 1.524 . S
C4710 C4709 1.524 . S
C4710 C4711 1.397 . S
C4710 C4715 1.363 . S
C4711 H4682 0.950 . S
C4711 C4710 1.397 . S
C4711 C4712 1.334 . S
C4712 H4683 0.950 . S
C4712 C4711 1.334 . S
C4712 C4713 1.287 . S
C4713 C4712 1.287 . S
C4713 C4714 1.524 . S
C4713 H4716 0.999 . S
C4714 H4684 0.950 . S
C4714 C4713 1.524 . S
C4714 C4715 1.415 . S
C4715 H4685 0.950 . S
C4715 C4710 1.363 . S
C4715 C4714 1.415 . S
H4716 C4713 0.999 . S
H4717 C4698 0.913 . S
H4718 C4736 0.951 . S
H4719 C4738 0.951 . S
H4720 C4740 0.950 . S
H4721 C4741 0.950 . S
H4722 C4743 0.950 . S
H4723 C4746 0.950 . S
H4724 C4747 0.950 . S
H4725 C4749 0.950 . S
H4726 C4750 0.950 . S
H4727 C4751 0.951 . S
H4728 C4753 0.951 . S
H4729 C4755 0.950 . S
H4730 C4756 0.950 . S
H4731 C4758 0.950 . S
H4732 C4761 0.950 . S
H4733 C4762 0.950 . S
H4734 C4764 0.950 . S
H4735 C4765 0.950 . S
C4736 H4718 0.951 . S
C4736 C4737 1.366 . S
C4736 C4738 1.388 . S
C4737 C4736 1.366 . S
C4737 C4741 1.385 . S
C4738 H4719 0.951 . S
C4738 C4736 1.388 . S
C4738 C4739 1.366 . S
C4739 C4738 1.366 . S
C4739 C4740 1.414 . S
C4739 C4742 1.499 . S
C4740 H4720 0.950 . S
C4740 C4739 1.414 . S
C4740 C4741 1.374 . S
C4741 H4721 0.950 . S
C4741 C4737 1.385 . S
C4741 C4740 1.374 . S
C4742 C4739 1.499 . S
C4742 C4743 1.373 . S
C4742 C4744 1.389 . S
C4743 H4722 0.950 . S
C4743 C4742 1.373 . S
C4743 C4759 1.377 . S
C4744 C4742 1.389 . S
C4744 C4745 1.524 . S
C4744 C4758 1.377 . S
C4745 C4744 1.524 . S
C4745 C4746 1.397 . S
C4745 C4750 1.363 . S
C4746 H4723 0.950 . S
C4746 C4745 1.397 . S
C4746 C4747 1.334 . S
C4747 H4724 0.950 . S
C4747 C4746 1.334 . S
C4747 C4748 1.287 . S
C4748 C4747 1.287 . S
C4748 C4749 1.524 . S
C4748 H4767 0.913 . S
C4749 H4725 0.950 . S
C4749 C4748 1.524 . S
C4749 C4750 1.415 . S
C4750 H4726 0.950 . S
C4750 C4745 1.363 . S
C4750 C4749 1.415 . S
C4751 H4727 0.951 . S
C4751 C4752 1.366 . S
C4751 C4753 1.388 . S
C4752 C4751 1.366 . S
C4752 C4756 1.385 . S
C4753 H4728 0.951 . S
C4753 C4751 1.388 . S
C4753 C4754 1.366 . S
C4754 C4753 1.366 . S
C4754 C4755 1.414 . S
C4754 C4757 1.499 . S
C4755 H4729 0.950 . S
C4755 C4754 1.414 . S
C4755 C4756 1.374 . S
C4756 H4730 0.950 . S
C4756 C4752 1.385 . S
C4756 C4755 1.374 . S
C4757 C4754 1.499 . S
C4757 C4758 1.373 . S
C4757 C4759 1.389 . S
C4758 H4731 0.950 . S
C4758 C4744 1.377 . S
C4758 C4757 1.373 . S
C4759 C4743 1.377 . S
C4759 C4757 1.389 . S
C4759 C4760 1.524 . S
C4760 C4759 1.524 . S
C4760 C4761 1.397 . S
C4760 C4765 1.363 . S
C4761 H4732 0.950 . S
C4761 C4760 1.397 . S
C4761 C4762 1.334 . S
C4762 H4733 0.950 . S
C4762 C4761 1.334 . S
C4762 C4763 1.287 . S
C4763 C4762 1.287 . S
C4763 C4764 1.524 . S
C4763 H4766 0.999 . S
C4764 H4734 0.950 . S
C4764 C4763 1.524 . S
C4764 C4765 1.415 . S
C4765 H4735 0.950 . S
C4765 C4760 1.363 . S
C4765 C4764 1.415 . S
H4766 C4763 0.999 . S
H4767 C4748 0.913 . S
H4768 C4786 0.951 . S
H4769 C4788 0.951 . S
H4770 C4790 0.950 . S
H4771 C4791 0.950 . S
H4772 C4793 0.950 . S
H4773 C4796 0.950 . S
H4774 C4797 0.950 . S
H4775 C4799 0.950 . S
H4776 C4800 0.950 . S
H4777 C4801 0.951 . S
H4778 C4803 0.951 . S
H4779 C4805 0.950 . S
H4780 C4806 0.950 . S
H4781 C4808 0.950 . S
H4782 C4811 0.950 . S
H4783 C4812 0.950 . S
H4784 C4814 0.950 . S
H4785 C4815 0.950 . S
C4786 H4768 0.951 . S
C4786 C4787 1.366 . S
C4786 C4788 1.388 . S
C4787 C4786 1.366 . S
C4787 C4791 1.385 . S
C4788 H4769 0.951 . S
C4788 C4786 1.388 . S
C4788 C4789 1.366 . S
C4789 C4788 1.366 . S
C4789 C4790 1.414 . S
C4789 C4792 1.499 . S
C4790 H4770 0.950 . S
C4790 C4789 1.414 . S
C4790 C4791 1.374 . S
C4791 H4771 0.950 . S
C4791 C4787 1.385 . S
C4791 C4790 1.374 . S
C4792 C4789 1.499 . S
C4792 C4793 1.373 . S
C4792 C4794 1.389 . S
C4793 H4772 0.950 . S
C4793 C4792 1.373 . S
C4793 C4809 1.377 . S
C4794 C4792 1.389 . S
C4794 C4795 1.524 . S
C4794 C4808 1.377 . S
C4795 C4794 1.524 . S
C4795 C4796 1.397 . S
C4795 C4800 1.363 . S
C4796 H4773 0.950 . S
C4796 C4795 1.397 . S
C4796 C4797 1.334 . S
C4797 H4774 0.950 . S
C4797 C4796 1.334 . S
C4797 C4798 1.287 . S
C4798 C4797 1.287 . S
C4798 C4799 1.524 . S
C4798 H4817 0.913 . S
C4799 H4775 0.950 . S
C4799 C4798 1.524 . S
C4799 C4800 1.415 . S
C4800 H4776 0.950 . S
C4800 C4795 1.363 . S
C4800 C4799 1.415 . S
C4801 H4777 0.951 . S
C4801 C4802 1.366 . S
C4801 C4803 1.388 . S
C4802 C4801 1.366 . S
C4802 C4806 1.385 . S
C4803 H4778 0.951 . S
C4803 C4801 1.388 . S
C4803 C4804 1.366 . S
C4804 C4803 1.366 . S
C4804 C4805 1.414 . S
C4804 C4807 1.499 . S
C4805 H4779 0.950 . S
C4805 C4804 1.414 . S
C4805 C4806 1.374 . S
C4806 H4780 0.950 . S
C4806 C4802 1.385 . S
C4806 C4805 1.374 . S
C4807 C4804 1.499 . S
C4807 C4808 1.373 . S
C4807 C4809 1.389 . S
C4808 H4781 0.950 . S
C4808 C4794 1.377 . S
C4808 C4807 1.373 . S
C4809 C4793 1.377 . S
C4809 C4807 1.389 . S
C4809 C4810 1.524 . S
C4810 C4809 1.524 . S
C4810 C4811 1.397 . S
C4810 C4815 1.363 . S
C4811 H4782 0.950 . S
C4811 C4810 1.397 . S
C4811 C4812 1.334 . S
C4812 H4783 0.950 . S
C4812 C4811 1.334 . S
C4812 C4813 1.287 . S
C4813 C4812 1.287 . S
C4813 C4814 1.524 . S
C4813 H4816 0.999 . S
C4814 H4784 0.950 . S
C4814 C4813 1.524 . S
C4814 C4815 1.415 . S
C4815 H4785 0.950 . S
C4815 C4810 1.363 . S
C4815 C4814 1.415 . S
H4816 C4813 0.999 . S
H4817 C4798 0.913 . S
H4818 C4836 0.951 . S
H4819 C4838 0.951 . S
H4820 C4840 0.950 1_455 S
H4821 C4841 0.950 1_455 S
H4822 C4843 0.950 . S
H4823 C4846 0.950 . S
H4824 C4847 0.950 . S
H4825 C4849 0.950 . S
H4826 C4850 0.950 . S
H4827 C4851 0.951 . S
H4828 C4853 0.951 . S
H4829 C4855 0.950 . S
H4830 C4856 0.950 . S
H4831 C4858 0.950 . S
H4832 C4861 0.950 . S
H4833 C4862 0.950 . S
H4834 C4864 0.950 . S
H4835 C4865 0.950 . S
C4836 H4818 0.951 . S
C4836 C4837 1.366 . S
C4836 C4838 1.388 . S
C4837 C4836 1.366 . S
C4837 C4841 1.385 . S
C4838 H4819 0.951 . S
C4838 C4836 1.388 . S
C4838 C4839 1.366 . S
C4839 C4838 1.366 . S
C4839 C4840 1.414 . S
C4839 C4842 1.499 . S
C4840 H4820 0.950 1_655 S
C4840 C4839 1.414 . S
C4840 C4841 1.374 . S
C4841 H4821 0.950 1_655 S
C4841 C4837 1.385 . S
C4841 C4840 1.374 . S
C4842 C4839 1.499 . S
C4842 C4843 1.373 . S
C4842 C4844 1.389 . S
C4843 H4822 0.950 . S
C4843 C4842 1.373 . S
C4843 C4859 1.377 . S
C4844 C4842 1.389 . S
C4844 C4845 1.524 . S
C4844 C4858 1.377 . S
C4845 C4844 1.524 . S
C4845 C4846 1.397 . S
C4845 C4850 1.363 . S
C4846 H4823 0.950 . S
C4846 C4845 1.397 . S
C4846 C4847 1.334 . S
C4847 H4824 0.950 . S
C4847 C4846 1.334 . S
C4847 C4848 1.287 . S
C4848 C4847 1.287 . S
C4848 C4849 1.524 . S
C4848 H4867 0.913 . S
C4849 H4825 0.950 . S
C4849 C4848 1.524 . S
C4849 C4850 1.415 . S
C4850 H4826 0.950 . S
C4850 C4845 1.363 . S
C4850 C4849 1.415 . S
C4851 H4827 0.951 . S
C4851 C4852 1.366 1_455 S
C4851 C4853 1.388 . S
C4852 C4851 1.366 1_655 S
C4852 C4856 1.385 . S
C4853 H4828 0.951 . S
C4853 C4851 1.388 . S
C4853 C4854 1.366 1_455 S
C4854 C4853 1.366 1_655 S
C4854 C4855 1.414 . S
C4854 C4857 1.499 . S
C4855 H4829 0.950 . S
C4855 C4854 1.414 . S
C4855 C4856 1.374 . S
C4856 H4830 0.950 . S
C4856 C4852 1.385 . S
C4856 C4855 1.374 . S
C4857 C4854 1.499 . S
C4857 C4858 1.373 . S
C4857 C4859 1.389 . S
C4858 H4831 0.950 . S
C4858 C4844 1.377 . S
C4858 C4857 1.373 . S
C4859 C4843 1.377 . S
C4859 C4857 1.389 . S
C4859 C4860 1.524 1_655 S
C4860 C4859 1.524 1_455 S
C4860 C4861 1.397 1_455 S
C4860 C4865 1.363 . S
C4861 H4832 0.950 . S
C4861 C4860 1.397 1_655 S
C4861 C4862 1.334 . S
C4862 H4833 0.950 . S
C4862 C4861 1.334 . S
C4862 C4863 1.287 1_655 S
C4863 C4862 1.287 1_455 S
C4863 C4864 1.524 . S
C4863 H4866 0.999 . S
C4864 H4834 0.950 . S
C4864 C4863 1.524 . S
C4864 C4865 1.415 . S
C4865 H4835 0.950 . S
C4865 C4860 1.363 . S
C4865 C4864 1.415 . S
H4866 C4863 0.999 . S
H4867 C4848 0.913 . S
H4868 C4886 0.951 . S
H4869 C4888 0.951 . S
H4870 C4890 0.950 . S
H4871 C4891 0.950 . S
H4872 C4893 0.950 . S
H4873 C4896 0.950 . S
H4874 C4897 0.950 . S
H4875 C4899 0.950 . S
H4876 C4900 0.950 . S
H4877 C4901 0.951 . S
H4878 C4903 0.951 . S
H4879 C4905 0.950 . S
H4880 C4906 0.950 . S
H4881 C4908 0.950 . S
H4882 C4911 0.950 . S
H4883 C4912 0.950 . S
H4884 C4914 0.950 . S
H4885 C4915 0.950 . S
C4886 H4868 0.951 . S
C4886 C4887 1.366 . S
C4886 C4888 1.388 . S
C4887 C4886 1.366 . S
C4887 C4891 1.385 . S
C4888 H4869 0.951 . S
C4888 C4886 1.388 . S
C4888 C4889 1.366 . S
C4889 C4888 1.366 . S
C4889 C4890 1.414 . S
C4889 C4892 1.499 . S
C4890 H4870 0.950 . S
C4890 C4889 1.414 . S
C4890 C4891 1.374 . S
C4891 H4871 0.950 . S
C4891 C4887 1.385 . S
C4891 C4890 1.374 . S
C4892 C4889 1.499 . S
C4892 C4893 1.373 . S
C4892 C4894 1.389 . S
C4893 H4872 0.950 . S
C4893 C4892 1.373 . S
C4893 C4909 1.377 . S
C4894 C4892 1.389 . S
C4894 C4895 1.524 . S
C4894 C4908 1.377 . S
C4895 C4894 1.524 . S
C4895 C4896 1.397 . S
C4895 C4900 1.363 . S
C4896 H4873 0.950 . S
C4896 C4895 1.397 . S
C4896 C4897 1.334 . S
C4897 H4874 0.950 . S
C4897 C4896 1.334 . S
C4897 C4898 1.287 . S
C4898 C4897 1.287 . S
C4898 C4899 1.524 . S
C4898 H4917 0.913 . S
C4899 H4875 0.950 . S
C4899 C4898 1.524 . S
C4899 C4900 1.415 . S
C4900 H4876 0.950 . S
C4900 C4895 1.363 . S
C4900 C4899 1.415 . S
C4901 H4877 0.951 . S
C4901 C4902 1.366 . S
C4901 C4903 1.388 . S
C4902 C4901 1.366 . S
C4902 C4906 1.385 . S
C4903 H4878 0.951 . S
C4903 C4901 1.388 . S
C4903 C4904 1.366 . S
C4904 C4903 1.366 . S
C4904 C4905 1.414 . S
C4904 C4907 1.499 . S
C4905 H4879 0.950 . S
C4905 C4904 1.414 . S
C4905 C4906 1.374 . S
C4906 H4880 0.950 . S
C4906 C4902 1.385 . S
C4906 C4905 1.374 . S
C4907 C4904 1.499 . S
C4907 C4908 1.373 . S
C4907 C4909 1.389 . S
C4908 H4881 0.950 . S
C4908 C4894 1.377 . S
C4908 C4907 1.373 . S
C4909 C4893 1.377 . S
C4909 C4907 1.389 . S
C4909 C4910 1.524 . S
C4910 C4909 1.524 . S
C4910 C4911 1.397 . S
C4910 C4915 1.363 . S
C4911 H4882 0.950 . S
C4911 C4910 1.397 . S
C4911 C4912 1.334 . S
C4912 H4883 0.950 . S
C4912 C4911 1.334 . S
C4912 C4913 1.287 . S
C4913 C4912 1.287 . S
C4913 C4914 1.524 . S
C4913 H4916 0.999 . S
C4914 H4884 0.950 . S
C4914 C4913 1.524 . S
C4914 C4915 1.415 . S
C4915 H4885 0.950 . S
C4915 C4910 1.363 . S
C4915 C4914 1.415 . S
H4916 C4913 0.999 . S
H4917 C4898 0.913 . S
H4918 C4936 0.951 . S
H4919 C4938 0.951 . S
H4920 C4940 0.950 . S
H4921 C4941 0.950 . S
H4922 C4943 0.950 . S
H4923 C4946 0.950 . S
H4924 C4947 0.950 . S
H4925 C4949 0.950 . S
H4926 C4950 0.950 . S
H4927 C4951 0.951 . S
H4928 C4953 0.951 . S
H4929 C4955 0.950 . S
H4930 C4956 0.950 . S
H4931 C4958 0.950 . S
H4932 C4961 0.950 . S
H4933 C4962 0.950 . S
H4934 C4964 0.950 . S
H4935 C4965 0.961 . S
C4936 H4918 0.951 . S
C4936 C4937 1.366 . S
C4936 C4938 1.388 . S
C4937 C4936 1.366 . S
C4937 C4941 1.385 . S
C4938 H4919 0.951 . S
C4938 C4936 1.388 . S
C4938 C4939 1.366 . S
C4939 C4938 1.366 . S
C4939 C4940 1.414 . S
C4939 C4942 1.499 . S
C4940 H4920 0.950 . S
C4940 C4939 1.414 . S
C4940 C4941 1.374 . S
C4941 H4921 0.950 . S
C4941 C4937 1.385 . S
C4941 C4940 1.374 . S
C4942 C4939 1.499 . S
C4942 C4943 1.373 . S
C4942 C4944 1.389 . S
C4943 H4922 0.950 . S
C4943 C4942 1.373 . S
C4943 C4959 1.377 . S
C4944 C4942 1.389 . S
C4944 C4945 1.524 . S
C4944 C4958 1.377 . S
C4945 C4944 1.524 . S
C4945 C4946 1.397 . S
C4945 C4950 1.363 . S
C4946 H4923 0.950 . S
C4946 C4945 1.397 . S
C4946 C4947 1.334 . S
C4947 H4924 0.950 . S
C4947 C4946 1.334 . S
C4947 C4948 1.287 . S
C4948 C4947 1.287 . S
C4948 C4949 1.524 . S
C4948 H4967 0.913 . S
C4949 H4925 0.950 . S
C4949 C4948 1.524 . S
C4949 C4950 1.415 . S
C4950 H4926 0.950 . S
C4950 C4945 1.363 . S
C4950 C4949 1.415 . S
C4951 H4927 0.951 . S
C4951 C4952 1.366 . S
C4951 C4953 1.388 . S
C4952 C4951 1.366 . S
C4952 C4956 1.385 . S
C4953 H4928 0.951 . S
C4953 C4951 1.388 . S
C4953 C4954 1.366 . S
C4954 C4953 1.366 . S
C4954 C4955 1.414 . S
C4954 C4957 1.499 . S
C4955 H4929 0.950 . S
C4955 C4954 1.414 . S
C4955 C4956 1.374 . S
C4956 H4930 0.950 . S
C4956 C4952 1.385 . S
C4956 C4955 1.374 . S
C4957 C4954 1.499 . S
C4957 C4958 1.373 . S
C4957 C4959 1.389 . S
C4958 H4931 0.950 . S
C4958 C4944 1.377 . S
C4958 C4957 1.373 . S
C4959 C4943 1.377 . S
C4959 C4957 1.389 . S
C4959 C4960 1.524 1_545 S
C4960 C4959 1.524 1_565 S
C4960 C4961 1.397 . S
C4960 C4965 1.363 . S
C4961 H4932 0.950 . S
C4961 C4960 1.397 . S
C4961 C4962 1.334 . S
C4962 H4933 0.950 . S
C4962 C4961 1.334 . S
C4962 C4963 1.287 . S
C4963 C4962 1.287 . S
C4963 C4964 1.524 . S
C4963 H4966 0.999 . S
C4964 H4934 0.950 . S
C4964 C4963 1.524 . S
C4964 C4965 1.415 . S
C4965 H4935 0.961 . S
C4965 C4960 1.363 . S
C4965 C4964 1.415 . S
H4966 C4963 0.999 . S
H4967 C4948 0.913 . S
C1387 C8 1.569 . S
C1402 C857 1.514 . S
C1437 C22 1.569 . S
C1452 C901 1.524 . S
C1502 C981 1.513 . S
C1487 C37 1.589 1_545 S
C1537 C36 1.569 . S
C1552 C1025 1.555 . S
C1587 C9 1.579 1_455 S
C1602 C1105 1.518 . S
C1637 C23 1.569 . S
C1652 C1167 1.514 . S
C1687 C50 1.543 1_455 S
C1702 C1087 1.512 . S
C1752 C1149 1.514 . S
C1737 C64 1.569 . S
C1802 C1043 1.507 . S
C1787 C79 1.569 . S
C1837 C78 1.532 1_545 S
C1852 C963 1.514 . S
C1902 C839 1.515 . S
C1887 C51 1.570 . S
C1937 C65 1.569 . S
C1952 C919 1.525 . S
C1987 C92 1.570 . S
C2002 C1229 1.515 . S
C2037 C106 1.570 . S
C2052 C1273 1.525 . S
C2102 C1353 1.514 . S
C2087 C121 1.570 . S
C2137 C120 1.570 . S
C2152 C299 1.515 . S
C2187 C93 1.568 . S
C2202 C343 1.524 . S
C2237 C107 1.569 . S
C2252 C423 1.513 . S
C2287 C134 1.571 . S
C2302 C361 1.526 . S
C2337 C148 1.569 . S
C2352 C405 1.513 . S
C2402 C281 1.515 . S
C2387 C163 1.569 . S
C2452 C1335 1.514 . S
C2437 C162 1.570 . S
C2502 C1211 1.514 . S
C2487 C135 1.568 . S
C2552 C1291 1.525 . S
C2537 C149 1.569 . S
C2587 C176 1.571 . S
C2602 C485 1.515 . S
C2637 C190 1.569 . S
C2652 C547 1.514 . S
C2687 C205 1.569 . S
C2702 C591 1.525 . S
C2737 C204 1.570 . S
C2752 C653 1.526 . S
C2802 C715 1.524 . S
C2787 C177 1.568 . S
C2852 C795 1.514 . S
C2837 C191 1.569 . S
C2902 C733 1.527 . S
C2887 C218 1.570 . S
C2952 C777 1.514 . S
C2937 C232 1.570 . S
C2987 C247 1.569 . S
C3002 C671 1.525 . S
C3052 C609 1.525 . S
C3037 C246 1.569 . S
C3087 C219 1.568 . S
C3102 C467 1.513 . S
C3152 C529 1.514 . S
C3137 C233 1.569 . S
C3202 C305 1.481 . S
C3187 C6 1.500 . S
C3237 C20 1.499 . S
C3252 C349 1.485 . S
C3302 C429 1.481 . S
C3287 C35 1.498 . S
C3352 C491 1.482 . S
C3337 C34 1.499 . S
C3402 C553 1.480 . S
C3387 C7 1.498 . S
C3452 C597 1.486 . S
C3437 C21 1.500 . S
C3487 C48 1.498 . S
C3502 C615 1.484 . S
C3537 C62 1.499 . S
C3552 C473 1.481 . S
C3587 C77 1.497 . S
C3602 C535 1.480 . S
C3637 C76 1.499 . S
C3652 C367 1.484 . S
C3702 C411 1.479 . S
C3687 C49 1.498 . S
C3737 C63 1.500 . S
C3752 C287 1.481 . S
C3802 C659 1.485 . S
C3787 C90 1.498 . S
C3837 C104 1.500 . S
C3852 C721 1.486 . S
C3887 C119 1.500 . S
C3902 C801 1.481 . S
C3952 C863 1.479 . S
C3937 C118 1.498 . S
C3987 C91 1.498 . S
C4002 C907 1.485 . S
C4037 C105 1.499 . S
C4052 C987 1.481 . S
C4087 C132 1.499 . S
C4102 C969 1.480 . S
C4137 C146 1.499 . S
C4152 C845 1.481 . S
C4202 C925 1.485 . S
C4187 C161 1.499 . S
C4237 C160 1.498 . S
C4252 C739 1.485 . S
C4287 C133 1.498 . S
C4302 C783 1.481 . S
C4352 C677 1.485 . S
C4337 C147 1.504 . S
C4402 C1031 1.484 . S
C4387 C174 1.498 . S
C4437 C188 1.498 . S
C4452 C1111 1.485 . S
C4487 C203 1.499 . S
C4502 C1173 1.481 . S
C4552 C1235 1.482 . S
C4537 C202 1.499 . S
C4602 C1279 1.484 . S
C4587 C175 1.520 . S
C4637 C189 1.499 . S
C4652 C1359 1.482 . S
C4687 C216 1.499 . S
C4702 C1341 1.481 . S
C4737 C230 1.531 . S
C4752 C1217 1.482 . S
C4802 C1297 1.486 . S
C4787 C245 1.500 . S
C4852 C1093 1.481 . S
C4837 C244 1.490 . S
C4902 C1155 1.481 . S
C4887 C217 1.498 . S
C4937 C231 1.500 . S
C4952 C1049 1.486 . S
