# Generated by pormake.
# Topology anh, (6,3)-cn, num edge types: 1
# Building blocks:
#     Node 0, Type 0, BuildingBlock: VOLQOD_clean_sbu_1, # of connection points: 6
#     Node 1, Type 0, BuildingBlock: VOLQOD_clean_sbu_1, # of connection points: 6
#     Node 2, Type 0, BuildingBlock: VOLQOD_clean_sbu_1, # of connection points: 6
#     Node 3, Type 1, BuildingBlock: ESEHIV_clean_linker_0, # of connection points: 3
#     Node 4, Type 1, BuildingBlock: ESEHIV_clean_linker_0, # of connection points: 3
#     Node 5, Type 1, BuildingBlock: ESEHIV_clean_linker_0, # of connection points: 3
#     Node 6, Type 1, BuildingBlock: ESEHIV_clean_linker_0, # of connection points: 3
#     Node 7, Type 1, BuildingBlock: ESEHIV_clean_linker_0, # of connection points: 3
#     Node 8, Type 1, BuildingBlock: ESEHIV_clean_linker_0, # of connection points: 3
#     Edge 9, Type (0, 1), BuildingBlock: AJUNOK_clean_linker_0, # of connection points: 2
#     Edge 10, Type (0, 1), BuildingBlock: AJUNOK_clean_linker_0, # of connection points: 2
#     Edge 11, Type (0, 1), BuildingBlock: AJUNOK_clean_linker_0, # of connection points: 2
#     Edge 12, Type (0, 1), BuildingBlock: AJUNOK_clean_linker_0, # of connection points: 2
#     Edge 13, Type (0, 1), BuildingBlock: AJUNOK_clean_linker_0, # of connection points: 2
#     Edge 14, Type (0, 1), BuildingBlock: AJUNOK_clean_linker_0, # of connection points: 2
#     Edge 15, Type (0, 1), BuildingBlock: AJUNOK_clean_linker_0, # of connection points: 2
#     Edge 16, Type (0, 1), BuildingBlock: AJUNOK_clean_linker_0, # of connection points: 2
#     Edge 17, Type (0, 1), BuildingBlock: AJUNOK_clean_linker_0, # of connection points: 2
#     Edge 18, Type (0, 1), BuildingBlock: AJUNOK_clean_linker_0, # of connection points: 2
#     Edge 19, Type (0, 1), BuildingBlock: AJUNOK_clean_linker_0, # of connection points: 2
#     Edge 20, Type (0, 1), BuildingBlock: AJUNOK_clean_linker_0, # of connection points: 2
#     Edge 21, Type (0, 1), BuildingBlock: AJUNOK_clean_linker_0, # of connection points: 2
#     Edge 22, Type (0, 1), BuildingBlock: AJUNOK_clean_linker_0, # of connection points: 2
#     Edge 23, Type (0, 1), BuildingBlock: AJUNOK_clean_linker_0, # of connection points: 2
#     Edge 24, Type (0, 1), BuildingBlock: AJUNOK_clean_linker_0, # of connection points: 2
#     Edge 25, Type (0, 1), BuildingBlock: AJUNOK_clean_linker_0, # of connection points: 2
#     Edge 26, Type (0, 1), BuildingBlock: AJUNOK_clean_linker_0, # of connection points: 2
# Relax obj value: 0.166
# Max RMSD: 0.230
# Mean RMSD: 0.114
data_MOF--net-anh--node1-VOLQOD_clean_sbu_1--node2-ESEHIV_clean_linker_0--edge1-AJUNOK_clean_linker_0
_symmetry_space_group_name_H-M    P1
_symmetry_Int_Tables_number       1
_symmetry_cell_setting            triclinic
loop_
_symmetry_equiv_pos_as_xyz
'x, y, z'
_cell_length_a     20.219871
_cell_length_b     19.992386
_cell_length_c     42.516203
_cell_angle_alpha  89.617215
_cell_angle_beta   89.680379
_cell_angle_gamma 121.52253
loop_
_atom_site_label
_atom_site_type_symbol
_atom_site_fract_x
_atom_site_fract_y
_atom_site_fract_z
_atom_type_partial_charge
O0 O 0.96288 0.54484 0.22952 0.0
Zn1 Zn -0.02076 0.57749 0.18388 0.0
O2 O -0.00716 0.50375 0.159 0.0
Zn3 Zn 0.90595 0.44285 0.13145 0.0
Zn4 Zn 0.00306 0.433 0.18744 0.0
Zn5 Zn 0.08366 0.56141 0.1327 0.0
O6 O 0.93721 0.45288 0.08558 0.0
O7 O 0.0584 0.55422 0.08655 0.0
O8 O 0.88628 0.5818 0.16952 0.0
O9 O 0.83644 0.48439 0.13496 0.0
O10 O 0.83841 0.33102 0.14642 0.0
O11 O 0.90371 0.32891 0.18784 0.0
O12 O 0.09528 0.4236 0.17588 0.0
O13 O 0.07776 0.68423 0.18315 0.0
O14 O 0.14935 0.51596 0.13843 0.0
O15 O 0.14992 0.67256 0.14677 0.0
C16 C -0.0158 0.50568 0.24571 0.0
C17 C -0.001 0.50425 0.07128 0.0
C18 C 0.84399 0.29641 0.17055 0.0
C19 C 0.83408 0.53769 0.15007 0.0
C20 C 0.14869 0.46342 0.15562 0.0
C21 C 0.14114 0.71271 0.16764 0.0
O22 O 0.0104 0.46703 0.23247 0.0
O23 O 0.4516 0.03207 0.42893 0.0
Zn24 Zn 0.41374 0.01781 0.47362 0.0
O25 O 0.47867 -0.0011 0.50082 0.0
Zn26 Zn 0.53871 0.08505 0.52833 0.0
Zn27 Zn 0.54934 0.98311 0.47525 0.0
Zn28 Zn 0.41221 0.91067 0.52787 0.0
O29 O 0.53302 0.05063 0.5734 0.0
O30 O 0.41688 0.94098 0.57344 0.0
O31 O 0.4083 0.11115 0.48852 0.0
O32 O 0.49457 0.15301 0.52727 0.0
O33 O 0.64813 0.15258 0.51277 0.0
O34 O 0.65689 0.08139 0.47514 0.0
O35 O 0.55023 0.88746 0.49133 0.0
O36 O 0.30833 0.91957 0.47133 0.0
O37 O 0.45198 0.83906 0.52595 0.0
O38 O 0.30294 0.84656 0.51196 0.0
C39 C 0.4833 -1e-05 0.41458 0.0
C40 C 0.47473 -0.00472 0.58811 0.0
C41 C 0.68671 0.14438 0.491 0.0
C42 C 0.44523 0.15827 0.5108 0.0
C43 C 0.50506 0.8354 0.51138 0.0
C44 C 0.27226 0.85704 0.48789 0.0
O45 O 0.51622 0.96996 0.42963 0.0
O46 O 0.43566 0.46231 0.76403 0.0
Zn47 Zn 0.41075 0.43115 0.8095 0.0
O48 O 0.49693 0.50846 0.83516 0.0
Zn49 Zn 0.46295 0.56151 0.86233 0.0
Zn50 Zn 0.58324 0.58695 0.80852 0.0
Zn51 Zn 0.5296 0.45376 0.86243 0.0
O52 O 0.47804 0.55037 0.90816 0.0
O53 O 0.50499 0.45637 0.90826 0.0
O54 O 0.30848 0.42329 0.82074 0.0
O55 O 0.35085 0.51709 0.85663 0.0
O56 O 0.50923 0.67302 0.8498 0.0
O57 O 0.58895 0.69195 0.81021 0.0
O58 O 0.68561 0.59617 0.82101 0.0
O59 O 0.40224 0.32558 0.81172 0.0
O60 O 0.64315 0.50373 0.85844 0.0
O61 O 0.48806 0.34408 0.84811 0.0
C62 C 0.49798 0.50777 0.74873 0.0
C63 C 0.48958 0.50196 0.92298 0.0
C64 C 0.55483 0.71633 0.8279 0.0
C65 C 0.29681 0.46455 0.84012 0.0
C66 C 0.69761 0.55718 0.84171 0.0
C67 C 0.439 0.30111 0.82752 0.0
O68 O 0.56086 0.555 0.76283 0.0
H69 H 0.36325 0.90621 0.27171 0.0
H70 H 0.60514 0.08314 0.27584 0.0
H71 H 0.491 0.0171 0.18635 0.0
C72 C 0.41666 0.94897 0.25983 0.0
C73 C 0.41883 0.95619 0.22686 0.0
C74 C 0.48339 -0.00452 0.27763 0.0
C75 C 0.55332 0.0477 0.26213 0.0
C76 C 0.55644 0.05665 0.22926 0.0
C77 C 0.48915 0.01004 0.2117 0.0
H78 H 0.52275 0.62308 0.6072 0.0
H79 H 0.47344 0.38618 0.60797 0.0
H80 H 0.47891 0.4981 0.52042 0.0
C81 C 0.51107 0.57094 0.5947 0.0
C82 C 0.50433 0.56871 0.56183 0.0
C83 C 0.49769 0.50437 0.6116 0.0
C84 C 0.48055 0.43661 0.59513 0.0
C85 C 0.47282 0.43356 0.56229 0.0
C86 C 0.48537 0.50009 0.54576 0.0
H87 H 0.91401 0.54402 0.93117 0.0
H88 H 0.08245 0.47474 0.92906 0.0
H89 H -0.00248 0.51263 0.8424 0.0
C90 C 0.951 0.5299 0.91791 0.0
C91 C 0.94955 0.53032 0.88482 0.0
C92 C -0.00076 0.5105 0.93403 0.0
C93 C 0.04551 0.49037 0.91675 0.0
C94 C 0.04547 0.49134 0.88373 0.0
C95 C -0.00243 0.51163 0.86789 0.0
H96 H 0.88606 0.37583 0.38794 0.0
H97 H 0.05163 0.6228 0.38462 0.0
H98 H -0.00546 0.4977 0.47323 0.0
C99 C 0.92669 0.42925 0.40004 0.0
C100 C 0.93403 0.42863 0.43289 0.0
C101 C 0.96977 0.49897 0.3826 0.0
C102 C 0.01909 0.56903 0.39828 0.0
C103 C 0.02889 0.57003 0.43105 0.0
C104 C -0.01375 0.49905 0.44816 0.0
H105 H 0.44949 0.08444 0.72754 0.0
H106 H 0.51877 0.91519 0.72847 0.0
H107 H 0.50072 0.01431 0.81548 0.0
C108 C 0.46525 0.04833 0.74075 0.0
C109 C 0.47023 0.05333 0.77367 0.0
C110 C 0.48355 -0.00068 0.72449 0.0
C111 C 0.50675 0.95453 0.74122 0.0
C112 C 0.51187 0.95824 0.7742 0.0
C113 C 0.49497 0.00916 0.79016 0.0
H114 H 0.36319 0.45754 0.06554 0.0
H115 H 0.60194 0.52194 0.06217 0.0
H116 H 0.48748 0.49027 0.15146 0.0
C117 C 0.41595 0.47119 0.07752 0.0
C118 C 0.41766 0.47189 0.11052 0.0
C119 C 0.4825 0.49016 0.05991 0.0
C120 C 0.55044 0.50789 0.07563 0.0
C121 C 0.5524 0.50741 0.10862 0.0
C122 C 0.48591 0.48961 0.12597 0.0
C123 C 0.20871 0.39225 0.1343 0.0
C124 C 0.21513 0.45369 0.15242 0.0
C125 C 0.27528 0.39577 0.12239 0.0
C126 C 0.34975 0.46069 0.12842 0.0
H127 H 0.15215 0.3444 0.12735 0.0
H128 H 0.26842 0.34962 0.10699 0.0
S129 S 0.39602 0.63357 0.17656 0.0
N130 N 0.30037 0.57834 0.17749 0.0
N131 N 0.42567 0.58512 0.1553 0.0
C132 C 0.3566 0.51975 0.14831 0.0
C133 C 0.28903 0.51624 0.16023 0.0
C134 C 0.78188 0.28917 0.4917 0.0
C135 C 0.76127 0.21457 0.48041 0.0
C136 C 0.84113 0.35814 0.47736 0.0
C137 C 0.88268 0.35552 0.45128 0.0
H138 H 0.74891 0.29486 0.51054 0.0
H139 H 0.8511 0.41381 0.48561 0.0
S140 S 0.86342 0.17621 0.41678 0.0
N141 N 0.79535 0.14285 0.44438 0.0
N142 N 0.90787 0.27281 0.41791 0.0
C143 C 0.86768 0.28173 0.44155 0.0
C144 C 0.80689 0.21126 0.45602 0.0
C145 C 0.60104 0.83597 0.79366 0.0
C146 C 0.55505 0.78874 0.81909 0.0
C147 C 0.58951 0.8935 0.78034 0.0
C148 C 0.53112 0.90578 0.7917 0.0
H149 H 0.64398 0.82617 0.78298 0.0
H150 H 0.62497 0.92684 0.76025 0.0
S151 S 0.39878 0.80251 0.85951 0.0
N152 N 0.45315 0.76361 0.85696 0.0
N153 N 0.42941 0.86858 0.83094 0.0
C154 C 0.48758 0.86205 0.81818 0.0
C155 C 0.50012 0.80445 0.83211 0.0
C156 C 0.76529 0.59856 0.12706 0.0
C157 C 0.76418 0.54116 0.14654 0.0
C158 C 0.69578 0.58954 0.11619 0.0
C159 C 0.62364 0.52298 0.12461 0.0
H160 H 0.81996 0.64771 0.11853 0.0
H161 H 0.69852 0.63299 0.09998 0.0
S162 S 0.59137 0.35922 0.17694 0.0
N163 N 0.68657 0.41857 0.17534 0.0
N164 N 0.55571 0.40136 0.15503 0.0
C165 C 0.62214 0.46778 0.14565 0.0
C166 C 0.69269 0.47691 0.15655 0.0
C167 C 0.21508 0.76597 0.4437 0.0
C168 C 0.20536 0.7879 0.47383 0.0
C169 C 0.15819 0.69547 0.43051 0.0
C170 C 0.08767 0.6447 0.44642 0.0
H171 H 0.26883 0.80208 0.43069 0.0
H172 H 0.17084 0.68008 0.40785 0.0
S173 S 0.03227 0.67928 0.52547 0.0
N174 N 0.12097 0.75523 0.51941 0.0
N175 N 0.01016 0.62481 0.49367 0.0
C176 C 0.07641 0.66732 0.47643 0.0
C177 C 0.13607 0.73842 0.49032 0.0
C178 C 0.49752 0.21779 0.82655 0.0
C179 C 0.43635 0.22843 0.8179 0.0
C180 C 0.50623 0.15915 0.81305 0.0
C181 C 0.4538 0.10813 0.79054 0.0
H182 H 0.54191 0.2578 0.84259 0.0
H183 H 0.55669 0.15641 0.8192 0.0
S184 S 0.27636 0.10202 0.76367 0.0
N185 N 0.31759 0.17703 0.7879 0.0
N186 N 0.3329 0.06525 0.76318 0.0
C187 C 0.3893 0.11432 0.7833 0.0
C188 C 0.38075 0.17465 0.79685 0.0
C189 C 0.57728 0.77551 0.53241 0.0
C190 C 0.51087 0.76675 0.51806 0.0
C191 C 0.57596 0.71046 0.54583 0.0
C192 C 0.50865 0.63518 0.54469 0.0
H193 H 0.62862 0.83333 0.53497 0.0
H194 H 0.62687 0.71927 0.55795 0.0
S195 S 0.32168 0.58196 0.50807 0.0
N196 N 0.37768 0.67763 0.50229 0.0
N197 N 0.37559 0.5553 0.52694 0.0
C198 C 0.44341 0.6255 0.529 0.0
C199 C 0.44445 0.69148 0.5158 0.0
C200 C 0.82815 0.61953 0.86569 0.0
C201 C 0.77353 0.56496 0.84473 0.0
C202 C 0.88815 0.61068 0.87721 0.0
C203 C 0.89483 0.54663 0.86829 0.0
H204 H 0.82127 0.66597 0.8749 0.0
H205 H 0.92734 0.65209 0.89436 0.0
S206 S 0.76676 0.3895 0.81296 0.0
N207 N 0.73116 0.44728 0.81441 0.0
N208 N 0.84296 0.42975 0.83618 0.0
C209 C 0.84276 0.49424 0.84597 0.0
C210 C 0.78218 0.50358 0.83422 0.0
C211 C 0.28494 0.8049 0.16808 0.0
C212 C 0.21072 0.78669 0.17823 0.0
C213 C 0.35226 0.86268 0.18291 0.0
C214 C 0.34818 0.90491 0.20834 0.0
H215 H 0.29128 0.77105 0.14983 0.0
H216 H 0.40753 0.87111 0.17553 0.0
S217 S 0.17024 0.89161 0.23994 0.0
N218 N 0.13851 0.82378 0.21255 0.0
N219 N 0.26551 0.93335 0.23999 0.0
C220 C 0.27522 0.89227 0.21698 0.0
C221 C 0.20645 0.83313 0.20198 0.0
C222 C 0.49115 0.2986 0.50589 0.0
C223 C 0.4354 0.22401 0.51758 0.0
C224 C 0.49994 0.36641 0.51937 0.0
C225 C 0.45377 0.36147 0.54521 0.0
H226 H 0.53172 0.30466 0.48767 0.0
H227 H 0.54649 0.42297 0.51084 0.0
S228 S 0.29361 0.17875 0.5819 0.0
N229 N 0.32956 0.1481 0.55447 0.0
N230 N 0.34455 0.27558 0.5796 0.0
C231 C 0.39425 0.2868 0.55565 0.0
C232 C 0.38548 0.21792 0.54188 0.0
C233 C 0.16365 0.40035 0.86253 0.0
C234 C 0.22132 0.4579 0.84272 0.0
C235 C 0.10328 0.40877 0.87411 0.0
C236 C 0.09909 0.47506 0.86624 0.0
H237 H 0.16853 0.35191 0.87104 0.0
H238 H 0.06204 0.36538 0.8907 0.0
S239 S 0.23392 0.63894 0.81317 0.0
N240 N 0.26846 0.58018 0.81403 0.0
N241 N 0.1553 0.59634 0.83571 0.0
C242 C 0.15369 0.53012 0.8447 0.0
C243 C 0.21494 0.52149 0.83301 0.0
C244 C 0.72964 0.15782 0.17281 0.0
C245 C 0.77175 0.23382 0.18507 0.0
C246 C 0.65941 0.10028 0.18709 0.0
C247 C 0.62929 0.11782 0.21367 0.0
H248 H 0.75134 0.14276 0.15241 0.0
H249 H 0.62897 0.04163 0.17754 0.0
S250 S 0.71395 0.31223 0.25149 0.0
N251 N 0.7765 0.32567 0.22339 0.0
N252 N 0.64389 0.21914 0.24944 0.0
C253 C 0.67002 0.1948 0.22517 0.0
C254 C 0.74144 0.25244 0.21102 0.0
C255 C 0.93127 0.46673 0.01934 0.0
C256 C 0.00103 0.50665 0.03628 0.0
C257 C 0.93115 0.46894 0.98636 0.0
C258 C 0.00078 0.51044 0.96897 0.0
H259 H 0.87602 0.43388 0.03161 0.0
H260 H 0.87612 0.43707 0.97435 0.0
S261 S 0.19926 0.62516 0.00153 0.0
N262 N 0.14194 0.58919 0.03279 0.0
N263 N 0.14124 0.59335 0.97089 0.0
C264 C 0.07093 0.55058 0.98547 0.0
C265 C 0.07117 0.54877 0.01906 0.0
C266 C 0.53437 0.98563 0.36278 0.0
C267 C 0.48087 -0.0032 0.3797 0.0
C268 C 0.53423 0.98418 0.32979 0.0
C269 C 0.47989 0.99267 0.31251 0.0
H270 H 0.57761 0.97927 0.37505 0.0
H271 H 0.57706 0.97646 0.3177 0.0
S272 S 0.32608 0.02118 0.34524 0.0
N273 N 0.37072 0.01462 0.37642 0.0
N274 N 0.37104 0.01216 0.31454 0.0
C275 C 0.42534 0.00259 0.32905 0.0
C276 C 0.42576 0.00469 0.36259 0.0
C277 C 0.55937 0.56539 0.6961 0.0
C278 C 0.49711 0.50534 0.71377 0.0
C279 C 0.55925 0.56491 0.6631 0.0
C280 C 0.49731 0.50397 0.64651 0.0
H281 H 0.60843 0.61363 0.7078 0.0
H282 H 0.6083 0.61225 0.65046 0.0
S283 S 0.31991 0.33314 0.68116 0.0
N284 N 0.37158 0.38298 0.71178 0.0
N285 N 0.37141 0.38302 0.64994 0.0
C286 C 0.43476 0.44363 0.66376 0.0
C287 C 0.43463 0.44411 0.6973 0.0
C288 C 0.545 0.02097 0.63889 0.0
C289 C 0.47492 -0.00589 0.62286 0.0
C290 C 0.54703 0.02095 0.67184 0.0
C291 C 0.47939 -0.00418 0.68982 0.0
H292 H 0.59859 0.04149 0.62588 0.0
H293 H 0.60206 0.04196 0.68336 0.0
S294 S 0.28175 0.92163 0.65947 0.0
N295 N 0.33625 0.9417 0.62756 0.0
N296 N 0.34076 0.94384 0.68957 0.0
C297 C 0.40912 0.96932 0.6742 0.0
C298 C 0.40668 0.9678 0.64067 0.0
C299 C 0.51118 0.45562 0.97461 0.0
C300 C 0.48561 0.49891 0.95789 0.0
C301 C 0.50959 0.45282 0.00754 0.0
C302 C 0.48184 0.49263 0.02507 0.0
H303 H 0.53337 0.4241 0.96223 0.0
H304 H 0.52998 0.41888 0.0194 0.0
S305 S 0.40797 0.61421 0.99316 0.0
N306 N 0.43091 0.58218 0.96174 0.0
N307 N 0.4289 0.57722 0.02362 0.0
C308 C 0.45562 0.53571 0.00883 0.0
C309 C 0.45737 0.53885 0.97527 0.0
C310 C -0.01269 0.44975 0.29821 0.0
C311 C 0.97726 0.5037 0.28058 0.0
C312 C -0.01785 0.44694 0.33112 0.0
C313 C 0.96727 0.49827 0.34775 0.0
H314 H -0.0003 0.40942 0.28658 0.0
H315 H -0.00801 0.40563 0.3437 0.0
S316 S 0.93214 0.64762 0.31325 0.0
N317 N 0.94861 0.60789 0.2826 0.0
N318 N 0.93883 0.60198 0.34445 0.0
C319 C 0.95542 0.55133 0.33058 0.0
C320 C 0.96034 0.55412 0.29703 0.0
loop_
_geom_bond_atom_site_label_1
_geom_bond_atom_site_label_2
_geom_bond_distance
_geom_bond_site_symmetry_2
_ccdc_geom_bond_type
O0 Zn1 1.953 . S
O0 C16 1.225 1_655 S
Zn1 O0 1.953 . S
Zn1 O2 1.949 1_655 S
Zn1 O8 1.919 . S
Zn1 O13 1.924 1_655 S
O2 Zn1 1.949 1_455 S
O2 Zn3 1.923 1_455 S
O2 Zn4 1.950 . S
O2 Zn5 1.945 . S
Zn3 O2 1.923 1_655 S
Zn3 O6 1.933 . S
Zn3 O9 1.941 . S
Zn3 O10 1.965 . S
Zn4 O2 1.950 . S
Zn4 O11 1.938 1_455 S
Zn4 O12 1.906 . S
Zn4 O22 1.953 . S
Zn5 O2 1.945 . S
Zn5 O7 1.932 . S
Zn5 O14 1.977 . S
Zn5 O15 1.910 . S
O6 Zn3 1.933 . S
O6 C17 1.226 1_655 S
O7 Zn5 1.932 . S
O7 C17 1.307 . S
O8 Zn1 1.919 . S
O8 C19 1.253 . S
O9 Zn3 1.941 . S
O9 C19 1.283 . S
O10 Zn3 1.965 . S
O10 C18 1.303 . S
O11 Zn4 1.938 1_655 S
O11 C18 1.247 . S
O12 Zn4 1.906 . S
O12 C20 1.304 . S
O13 Zn1 1.924 1_455 S
O13 C21 1.311 . S
O14 Zn5 1.977 . S
O14 C20 1.272 . S
O15 Zn5 1.910 . S
O15 C21 1.231 . S
C16 O0 1.225 1_455 S
C16 O22 1.298 . S
C17 O6 1.226 1_455 S
C17 O7 1.307 . S
C18 O10 1.303 . S
C18 O11 1.247 . S
C19 O8 1.253 . S
C19 O9 1.283 . S
C20 O12 1.304 . S
C20 O14 1.272 . S
C21 O13 1.311 . S
C21 O15 1.231 . S
O22 Zn4 1.953 . S
O22 C16 1.298 . S
O23 Zn24 1.953 . S
O23 C39 1.225 . S
Zn24 O23 1.953 . S
Zn24 O25 1.949 . S
Zn24 O31 1.919 . S
Zn24 O36 1.924 1_545 S
O25 Zn24 1.949 . S
O25 Zn26 1.923 . S
O25 Zn27 1.950 1_545 S
O25 Zn28 1.945 1_545 S
Zn26 O25 1.923 . S
Zn26 O29 1.933 . S
Zn26 O32 1.941 . S
Zn26 O33 1.965 . S
Zn27 O25 1.950 1_565 S
Zn27 O34 1.938 1_565 S
Zn27 O35 1.906 . S
Zn27 O45 1.953 . S
Zn28 O25 1.945 1_565 S
Zn28 O30 1.932 . S
Zn28 O37 1.977 . S
Zn28 O38 1.910 . S
O29 Zn26 1.933 . S
O29 C40 1.226 . S
O30 Zn28 1.932 . S
O30 C40 1.307 1_565 S
O31 Zn24 1.919 . S
O31 C42 1.253 . S
O32 Zn26 1.941 . S
O32 C42 1.283 . S
O33 Zn26 1.965 . S
O33 C41 1.303 . S
O34 Zn27 1.938 1_545 S
O34 C41 1.247 . S
O35 Zn27 1.906 . S
O35 C43 1.304 . S
O36 Zn24 1.924 1_565 S
O36 C44 1.311 . S
O37 Zn28 1.977 . S
O37 C43 1.272 . S
O38 Zn28 1.910 . S
O38 C44 1.231 . S
C39 O23 1.225 . S
C39 O45 1.298 1_545 S
C40 O29 1.226 . S
C40 O30 1.307 1_545 S
C41 O33 1.303 . S
C41 O34 1.247 . S
C42 O31 1.253 . S
C42 O32 1.283 . S
C43 O35 1.304 . S
C43 O37 1.272 . S
C44 O36 1.311 . S
C44 O38 1.231 . S
O45 Zn27 1.953 . S
O45 C39 1.298 1_565 S
O46 Zn47 1.953 . S
O46 C62 1.225 . S
Zn47 O46 1.953 . S
Zn47 O48 1.949 . S
Zn47 O54 1.919 . S
Zn47 O59 1.924 . S
O48 Zn47 1.949 . S
O48 Zn49 1.923 . S
O48 Zn50 1.950 . S
O48 Zn51 1.945 . S
Zn49 O48 1.923 . S
Zn49 O52 1.933 . S
Zn49 O55 1.941 . S
Zn49 O56 1.965 . S
Zn50 O48 1.950 . S
Zn50 O57 1.938 . S
Zn50 O58 1.906 . S
Zn50 O68 1.953 . S
Zn51 O48 1.945 . S
Zn51 O53 1.932 . S
Zn51 O60 1.977 . S
Zn51 O61 1.910 . S
O52 Zn49 1.933 . S
O52 C63 1.226 . S
O53 Zn51 1.932 . S
O53 C63 1.307 . S
O54 Zn47 1.919 . S
O54 C65 1.253 . S
O55 Zn49 1.941 . S
O55 C65 1.283 . S
O56 Zn49 1.965 . S
O56 C64 1.303 . S
O57 Zn50 1.938 . S
O57 C64 1.247 . S
O58 Zn50 1.906 . S
O58 C66 1.304 . S
O59 Zn47 1.924 . S
O59 C67 1.311 . S
O60 Zn51 1.977 . S
O60 C66 1.272 . S
O61 Zn51 1.910 . S
O61 C67 1.231 . S
C62 O46 1.225 . S
C62 O68 1.298 . S
C63 O52 1.226 . S
C63 O53 1.307 . S
C64 O56 1.303 . S
C64 O57 1.247 . S
C65 O54 1.253 . S
C65 O55 1.283 . S
C66 O58 1.304 . S
C66 O60 1.272 . S
C67 O59 1.311 . S
C67 O61 1.231 . S
O68 Zn50 1.953 . S
O68 C62 1.298 . S
H69 C72 0.931 . S
H70 C75 0.928 . S
H71 C77 0.930 . S
C72 H69 0.931 . S
C72 C73 1.413 . S
C72 C74 1.360 1_565 S
C73 C72 1.413 . S
C73 C77 1.429 1_565 S
C74 C72 1.360 1_545 S
C74 C75 1.372 . S
C75 H70 0.928 . S
C75 C74 1.372 . S
C75 C76 1.404 . S
C76 C75 1.404 . S
C76 C77 1.391 . S
C77 H71 0.930 . S
C77 C73 1.429 1_545 S
C77 C76 1.391 . S
H78 C81 0.931 . S
H79 C84 0.928 . S
H80 C86 0.930 . S
C81 H78 0.931 . S
C81 C82 1.413 . S
C81 C83 1.360 . S
C82 C81 1.413 . S
C82 C86 1.429 . S
C83 C81 1.360 . S
C83 C84 1.372 . S
C84 H79 0.928 . S
C84 C83 1.372 . S
C84 C85 1.404 . S
C85 C84 1.404 . S
C85 C86 1.391 . S
C86 H80 0.930 . S
C86 C82 1.429 . S
C86 C85 1.391 . S
H87 C90 0.931 . S
H88 C93 0.928 . S
H89 C95 0.930 . S
C90 H87 0.931 . S
C90 C91 1.413 . S
C90 C92 1.360 1_655 S
C91 C90 1.413 . S
C91 C95 1.429 1_655 S
C92 C90 1.360 1_455 S
C92 C93 1.372 . S
C93 H88 0.928 . S
C93 C92 1.372 . S
C93 C94 1.404 . S
C94 C93 1.404 . S
C94 C95 1.391 . S
C95 H89 0.930 . S
C95 C91 1.429 1_455 S
C95 C94 1.391 . S
H96 C99 0.931 . S
H97 C102 0.928 . S
H98 C104 0.930 . S
C99 H96 0.931 . S
C99 C100 1.413 . S
C99 C101 1.360 1_655 S
C100 C99 1.413 . S
C100 C104 1.429 1_655 S
C101 C99 1.360 1_455 S
C101 C102 1.372 . S
C102 H97 0.928 . S
C102 C101 1.372 . S
C102 C103 1.404 . S
C103 C102 1.404 . S
C103 C104 1.391 . S
C104 H98 0.930 . S
C104 C100 1.429 1_455 S
C104 C103 1.391 . S
H105 C108 0.931 . S
H106 C111 0.928 . S
H107 C113 0.930 . S
C108 H105 0.931 . S
C108 C109 1.413 . S
C108 C110 1.352 1_545 S
C109 C108 1.413 . S
C109 C113 1.429 1_545 S
C110 C108 1.352 1_565 S
C110 C111 1.379 . S
C111 H106 0.928 . S
C111 C110 1.379 . S
C111 C112 1.404 . S
C112 C111 1.404 . S
C112 C113 1.391 . S
C113 H107 0.930 . S
C113 C109 1.429 1_565 S
C113 C112 1.391 . S
H114 C117 0.931 . S
H115 C120 0.928 . S
H116 C122 0.930 . S
C117 H114 0.931 . S
C117 C118 1.413 . S
C117 C119 1.360 . S
C118 C117 1.413 . S
C118 C122 1.429 . S
C119 C117 1.360 . S
C119 C120 1.372 . S
C120 H115 0.928 . S
C120 C119 1.372 . S
C120 C121 1.404 . S
C121 C120 1.404 . S
C121 C122 1.391 . S
C122 H116 0.930 . S
C122 C118 1.429 . S
C122 C121 1.391 . S
C123 C124 1.369 . S
C123 C125 1.419 . S
C123 H127 0.930 . S
C124 C123 1.369 . S
C124 C133 1.429 . S
C125 C123 1.419 . S
C125 C126 1.363 . S
C125 H128 0.929 . S
C126 C125 1.363 . S
C126 C132 1.428 . S
H127 C123 0.930 . S
H128 C125 0.929 . S
S129 N130 1.613 . S
S129 N131 1.610 . S
N130 S129 1.613 . S
N130 C133 1.350 . S
N131 S129 1.610 . S
N131 C132 1.351 . S
C132 C126 1.428 . S
C132 N131 1.351 . S
C132 C133 1.434 . S
C133 C124 1.429 . S
C133 N130 1.350 . S
C133 C132 1.434 . S
C134 C135 1.369 . S
C134 C136 1.419 . S
C134 H138 0.930 . S
C135 C134 1.369 . S
C135 C144 1.429 . S
C136 C134 1.419 . S
C136 C137 1.363 . S
C136 H139 0.929 . S
C137 C136 1.363 . S
C137 C143 1.428 . S
H138 C134 0.930 . S
H139 C136 0.929 . S
S140 N141 1.613 . S
S140 N142 1.610 . S
N141 S140 1.613 . S
N141 C144 1.350 . S
N142 S140 1.610 . S
N142 C143 1.351 . S
C143 C137 1.428 . S
C143 N142 1.351 . S
C143 C144 1.434 . S
C144 C135 1.429 . S
C144 N141 1.350 . S
C144 C143 1.434 . S
C145 C146 1.369 . S
C145 C147 1.419 . S
C145 H149 0.930 . S
C146 C145 1.369 . S
C146 C155 1.429 . S
C147 C145 1.419 . S
C147 C148 1.363 . S
C147 H150 0.929 . S
C148 C147 1.363 . S
C148 C154 1.428 . S
H149 C145 0.930 . S
H150 C147 0.929 . S
S151 N152 1.613 . S
S151 N153 1.610 . S
N152 S151 1.613 . S
N152 C155 1.350 . S
N153 S151 1.610 . S
N153 C154 1.351 . S
C154 C148 1.428 . S
C154 N153 1.351 . S
C154 C155 1.434 . S
C155 C146 1.429 . S
C155 N152 1.350 . S
C155 C154 1.434 . S
C156 C157 1.369 . S
C156 C158 1.419 . S
C156 H160 0.930 . S
C157 C156 1.369 . S
C157 C166 1.429 . S
C158 C156 1.419 . S
C158 C159 1.363 . S
C158 H161 0.929 . S
C159 C158 1.363 . S
C159 C165 1.428 . S
H160 C156 0.930 . S
H161 C158 0.929 . S
S162 N163 1.613 . S
S162 N164 1.610 . S
N163 S162 1.613 . S
N163 C166 1.350 . S
N164 S162 1.610 . S
N164 C165 1.351 . S
C165 C159 1.428 . S
C165 N164 1.351 . S
C165 C166 1.434 . S
C166 C157 1.429 . S
C166 N163 1.350 . S
C166 C165 1.434 . S
C167 C168 1.369 . S
C167 C169 1.419 . S
C167 H171 0.930 . S
C168 C167 1.369 . S
C168 C177 1.429 . S
C169 C167 1.419 . S
C169 C170 1.363 . S
C169 H172 0.929 . S
C170 C169 1.363 . S
C170 C176 1.428 . S
H171 C167 0.930 . S
H172 C169 0.929 . S
S173 N174 1.613 . S
S173 N175 1.610 . S
N174 S173 1.613 . S
N174 C177 1.350 . S
N175 S173 1.610 . S
N175 C176 1.351 . S
C176 C170 1.428 . S
C176 N175 1.351 . S
C176 C177 1.434 . S
C177 C168 1.429 . S
C177 N174 1.350 . S
C177 C176 1.434 . S
C178 C179 1.369 . S
C178 C180 1.419 . S
C178 H182 0.930 . S
C179 C178 1.369 . S
C179 C188 1.429 . S
C180 C178 1.419 . S
C180 C181 1.363 . S
C180 H183 0.929 . S
C181 C180 1.363 . S
C181 C187 1.428 . S
H182 C178 0.930 . S
H183 C180 0.929 . S
S184 N185 1.613 . S
S184 N186 1.610 . S
N185 S184 1.613 . S
N185 C188 1.350 . S
N186 S184 1.610 . S
N186 C187 1.351 . S
C187 C181 1.428 . S
C187 N186 1.351 . S
C187 C188 1.434 . S
C188 C179 1.429 . S
C188 N185 1.350 . S
C188 C187 1.434 . S
C189 C190 1.369 . S
C189 C191 1.419 . S
C189 H193 0.930 . S
C190 C189 1.369 . S
C190 C199 1.429 . S
C191 C189 1.419 . S
C191 C192 1.363 . S
C191 H194 0.929 . S
C192 C191 1.363 . S
C192 C198 1.428 . S
H193 C189 0.930 . S
H194 C191 0.929 . S
S195 N196 1.613 . S
S195 N197 1.610 . S
N196 S195 1.613 . S
N196 C199 1.350 . S
N197 S195 1.610 . S
N197 C198 1.351 . S
C198 C192 1.428 . S
C198 N197 1.351 . S
C198 C199 1.434 . S
C199 C190 1.429 . S
C199 N196 1.350 . S
C199 C198 1.434 . S
C200 C201 1.369 . S
C200 C202 1.419 . S
C200 H204 0.930 . S
C201 C200 1.369 . S
C201 C210 1.429 . S
C202 C200 1.419 . S
C202 C203 1.363 . S
C202 H205 0.929 . S
C203 C202 1.363 . S
C203 C209 1.428 . S
H204 C200 0.930 . S
H205 C202 0.929 . S
S206 N207 1.613 . S
S206 N208 1.610 . S
N207 S206 1.613 . S
N207 C210 1.350 . S
N208 S206 1.610 . S
N208 C209 1.351 . S
C209 C203 1.428 . S
C209 N208 1.351 . S
C209 C210 1.434 . S
C210 C201 1.429 . S
C210 N207 1.350 . S
C210 C209 1.434 . S
C211 C212 1.369 . S
C211 C213 1.419 . S
C211 H215 0.930 . S
C212 C211 1.369 . S
C212 C221 1.429 . S
C213 C211 1.419 . S
C213 C214 1.363 . S
C213 H216 0.929 . S
C214 C213 1.363 . S
C214 C220 1.428 . S
H215 C211 0.930 . S
H216 C213 0.929 . S
S217 N218 1.613 . S
S217 N219 1.610 . S
N218 S217 1.613 . S
N218 C221 1.350 . S
N219 S217 1.610 . S
N219 C220 1.351 . S
C220 C214 1.428 . S
C220 N219 1.351 . S
C220 C221 1.434 . S
C221 C212 1.429 . S
C221 N218 1.350 . S
C221 C220 1.434 . S
C222 C223 1.369 . S
C222 C224 1.419 . S
C222 H226 0.930 . S
C223 C222 1.369 . S
C223 C232 1.429 . S
C224 C222 1.419 . S
C224 C225 1.363 . S
C224 H227 0.929 . S
C225 C224 1.363 . S
C225 C231 1.428 . S
H226 C222 0.930 . S
H227 C224 0.929 . S
S228 N229 1.613 . S
S228 N230 1.610 . S
N229 S228 1.613 . S
N229 C232 1.350 . S
N230 S228 1.610 . S
N230 C231 1.351 . S
C231 C225 1.428 . S
C231 N230 1.351 . S
C231 C232 1.434 . S
C232 C223 1.429 . S
C232 N229 1.350 . S
C232 C231 1.434 . S
C233 C234 1.369 . S
C233 C235 1.419 . S
C233 H237 0.930 . S
C234 C233 1.369 . S
C234 C243 1.429 . S
C235 C233 1.419 . S
C235 C236 1.363 . S
C235 H238 0.929 . S
C236 C235 1.363 . S
C236 C242 1.428 . S
H237 C233 0.930 . S
H238 C235 0.929 . S
S239 N240 1.613 . S
S239 N241 1.610 . S
N240 S239 1.613 . S
N240 C243 1.350 . S
N241 S239 1.610 . S
N241 C242 1.351 . S
C242 C236 1.428 . S
C242 N241 1.351 . S
C242 C243 1.434 . S
C243 C234 1.429 . S
C243 N240 1.350 . S
C243 C242 1.434 . S
C244 C245 1.369 . S
C244 C246 1.419 . S
C244 H248 0.930 . S
C245 C244 1.369 . S
C245 C254 1.429 . S
C246 C244 1.419 . S
C246 C247 1.363 . S
C246 H249 0.929 . S
C247 C246 1.363 . S
C247 C253 1.428 . S
H248 C244 0.930 . S
H249 C246 0.929 . S
S250 N251 1.613 . S
S250 N252 1.610 . S
N251 S250 1.613 . S
N251 C254 1.350 . S
N252 S250 1.610 . S
N252 C253 1.351 . S
C253 C247 1.428 . S
C253 N252 1.351 . S
C253 C254 1.434 . S
C254 C245 1.429 . S
C254 N251 1.350 . S
C254 C253 1.434 . S
C255 C256 1.369 1_655 S
C255 C257 1.419 1_554 S
C255 H259 0.930 . S
C256 C255 1.369 1_455 S
C256 C265 1.429 . S
C257 C255 1.419 1_556 S
C257 C258 1.363 1_655 S
C257 H260 0.929 . S
C258 C257 1.363 1_455 S
C258 C264 1.428 . S
H259 C255 0.930 . S
H260 C257 0.929 . S
S261 N262 1.613 . S
S261 N263 1.610 1_554 S
N262 S261 1.613 . S
N262 C265 1.350 . S
N263 S261 1.610 1_556 S
N263 C264 1.351 . S
C264 C258 1.428 . S
C264 N263 1.351 . S
C264 C265 1.434 1_556 S
C265 C256 1.429 . S
C265 N262 1.350 . S
C265 C264 1.434 1_554 S
C266 C267 1.369 . S
C266 C268 1.419 . S
C266 H270 0.930 . S
C267 C266 1.369 . S
C267 C276 1.429 1_545 S
C268 C266 1.419 . S
C268 C269 1.363 . S
C268 H271 0.929 . S
C269 C268 1.363 . S
C269 C275 1.428 1_545 S
H270 C266 0.930 . S
H271 C268 0.929 . S
S272 N273 1.613 . S
S272 N274 1.610 . S
N273 S272 1.613 . S
N273 C276 1.350 . S
N274 S272 1.610 . S
N274 C275 1.351 . S
C275 C269 1.428 1_565 S
C275 N274 1.351 . S
C275 C276 1.434 . S
C276 C267 1.429 1_565 S
C276 N273 1.350 . S
C276 C275 1.434 . S
C277 C278 1.369 . S
C277 C279 1.419 . S
C277 H281 0.930 . S
C278 C277 1.369 . S
C278 C287 1.429 . S
C279 C277 1.419 . S
C279 C280 1.363 . S
C279 H282 0.929 . S
C280 C279 1.363 . S
C280 C286 1.428 . S
H281 C277 0.930 . S
H282 C279 0.929 . S
S283 N284 1.613 . S
S283 N285 1.610 . S
N284 S283 1.613 . S
N284 C287 1.350 . S
N285 S283 1.610 . S
N285 C286 1.351 . S
C286 C280 1.428 . S
C286 N285 1.351 . S
C286 C287 1.434 . S
C287 C278 1.429 . S
C287 N284 1.350 . S
C287 C286 1.434 . S
C288 C289 1.369 1_565 S
C288 C290 1.419 . S
C288 H292 0.930 . S
C289 C288 1.369 1_545 S
C289 C298 1.429 . S
C290 C288 1.419 . S
C290 C291 1.363 1_565 S
C290 H293 0.929 . S
C291 C290 1.363 1_545 S
C291 C297 1.428 . S
H292 C288 0.930 . S
H293 C290 0.929 . S
S294 N295 1.613 . S
S294 N296 1.610 . S
N295 S294 1.613 . S
N295 C298 1.350 . S
N296 S294 1.610 . S
N296 C297 1.351 . S
C297 C291 1.428 . S
C297 N296 1.351 . S
C297 C298 1.434 . S
C298 C289 1.429 . S
C298 N295 1.350 . S
C298 C297 1.434 . S
C299 C300 1.369 . S
C299 C301 1.419 1_556 S
C299 H303 0.930 . S
C300 C299 1.369 . S
C300 C309 1.429 . S
C301 C299 1.419 1_554 S
C301 C302 1.363 . S
C301 H304 0.929 . S
C302 C301 1.363 . S
C302 C308 1.428 . S
H303 C299 0.930 . S
H304 C301 0.929 . S
S305 N306 1.613 . S
S305 N307 1.610 1_556 S
N306 S305 1.613 . S
N306 C309 1.350 . S
N307 S305 1.610 1_554 S
N307 C308 1.351 . S
C308 C302 1.428 . S
C308 N307 1.351 . S
C308 C309 1.434 1_554 S
C309 C300 1.429 . S
C309 N306 1.350 . S
C309 C308 1.434 1_556 S
C310 C311 1.369 . S
C310 C312 1.419 . S
C310 H314 0.930 . S
C311 C310 1.369 . S
C311 C320 1.429 1_455 S
C312 C310 1.419 . S
C312 C313 1.363 . S
C312 H315 0.929 . S
C313 C312 1.363 . S
C313 C319 1.428 1_455 S
H314 C310 0.930 . S
H315 C312 0.929 . S
S316 N317 1.613 . S
S316 N318 1.610 . S
N317 S316 1.613 . S
N317 C320 1.350 . S
N318 S316 1.610 . S
N318 C319 1.351 . S
C319 C313 1.428 1_655 S
C319 N318 1.351 . S
C319 C320 1.434 . S
C320 C311 1.429 1_655 S
C320 N317 1.350 . S
C320 C319 1.434 . S
C124 C20 1.323 . S
C126 C118 1.382 . S
C135 C41 1.413 . S
C137 C100 1.401 . S
C146 C64 1.424 . S
C148 C112 1.421 . S
C157 C19 1.350 . S
C159 C121 1.419 . S
C170 C103 1.397 . S
C168 C44 1.388 . S
C181 C109 1.389 . S
C179 C67 1.385 . S
C190 C43 1.327 . S
C192 C82 1.388 . S
C201 C66 1.324 . S
C203 C91 1.383 . S
C212 C21 1.402 . S
C214 C73 1.404 . S
C225 C85 1.402 . S
C223 C42 1.349 . S
C236 C94 1.421 . S
C234 C65 1.350 . S
C245 C18 1.402 . S
C247 C76 1.395 . S
C258 C92 1.478 . S
C256 C17 1.478 . S
C267 C39 1.476 . S
C269 C74 1.476 . S
C278 C62 1.489 . S
C280 C83 1.489 . S
C291 C110 1.466 1_545 S
C289 C40 1.465 . S
C302 C119 1.478 . S
C300 C63 1.478 . S
C311 C16 1.475 . S
C313 C101 1.476 . S
