# Generated by pormake.
# Topology anh, (6,3)-cn, num edge types: 1
# Building blocks:
#     Node 0, Type 0, BuildingBlock: CUKXOW_clean_sbu_0, # of connection points: 6
#     Node 1, Type 0, BuildingBlock: CUKXOW_clean_sbu_0, # of connection points: 6
#     Node 2, Type 0, BuildingBlock: CUKXOW_clean_sbu_0, # of connection points: 6
#     Node 3, Type 1, BuildingBlock: KAKCAD_clean_linker_0, # of connection points: 3
#     Node 4, Type 1, BuildingBlock: KAKCAD_clean_linker_0, # of connection points: 3
#     Node 5, Type 1, BuildingBlock: KAKCAD_clean_linker_0, # of connection points: 3
#     Node 6, Type 1, BuildingBlock: KAKCAD_clean_linker_0, # of connection points: 3
#     Node 7, Type 1, BuildingBlock: KAKCAD_clean_linker_0, # of connection points: 3
#     Node 8, Type 1, BuildingBlock: KAKCAD_clean_linker_0, # of connection points: 3
#     Edge 9, Type (0, 1), BuildingBlock: CIFDUS_clean_linker_0, # of connection points: 2
#     Edge 10, Type (0, 1), BuildingBlock: CIFDUS_clean_linker_0, # of connection points: 2
#     Edge 11, Type (0, 1), BuildingBlock: CIFDUS_clean_linker_0, # of connection points: 2
#     Edge 12, Type (0, 1), BuildingBlock: CIFDUS_clean_linker_0, # of connection points: 2
#     Edge 13, Type (0, 1), BuildingBlock: CIFDUS_clean_linker_0, # of connection points: 2
#     Edge 14, Type (0, 1), BuildingBlock: CIFDUS_clean_linker_0, # of connection points: 2
#     Edge 15, Type (0, 1), BuildingBlock: CIFDUS_clean_linker_0, # of connection points: 2
#     Edge 16, Type (0, 1), BuildingBlock: CIFDUS_clean_linker_0, # of connection points: 2
#     Edge 17, Type (0, 1), BuildingBlock: CIFDUS_clean_linker_0, # of connection points: 2
#     Edge 18, Type (0, 1), BuildingBlock: CIFDUS_clean_linker_0, # of connection points: 2
#     Edge 19, Type (0, 1), BuildingBlock: CIFDUS_clean_linker_0, # of connection points: 2
#     Edge 20, Type (0, 1), BuildingBlock: CIFDUS_clean_linker_0, # of connection points: 2
#     Edge 21, Type (0, 1), BuildingBlock: CIFDUS_clean_linker_0, # of connection points: 2
#     Edge 22, Type (0, 1), BuildingBlock: CIFDUS_clean_linker_0, # of connection points: 2
#     Edge 23, Type (0, 1), BuildingBlock: CIFDUS_clean_linker_0, # of connection points: 2
#     Edge 24, Type (0, 1), BuildingBlock: CIFDUS_clean_linker_0, # of connection points: 2
#     Edge 25, Type (0, 1), BuildingBlock: CIFDUS_clean_linker_0, # of connection points: 2
#     Edge 26, Type (0, 1), BuildingBlock: CIFDUS_clean_linker_0, # of connection points: 2
# Relax obj value: 0.134
# Max RMSD: 0.194
# Mean RMSD: 0.139
data_MOF--net-anh--node1-CUKXOW_clean_sbu_0--node2-KAKCAD_clean_linker_0--edge1-CIFDUS_clean_linker_0
_symmetry_space_group_name_H-M    P1
_symmetry_Int_Tables_number       1
_symmetry_cell_setting            triclinic
loop_
_symmetry_equiv_pos_as_xyz
'x, y, z'
_cell_length_a     31.225957
_cell_length_b     30.477504
_cell_length_c     58.636233
_cell_angle_alpha  94.85765
_cell_angle_beta   90.30429
_cell_angle_gamma 113.79638
loop_
_atom_site_label
_atom_site_type_symbol
_atom_site_fract_x
_atom_site_fract_y
_atom_site_fract_z
_atom_type_partial_charge
Tb0 Tb 0.10317 0.54578 0.1564 0.0
C1 C 0.06656 0.49124 0.20023 0.0
Tb2 Tb 0.03472 0.44262 0.14943 0.0
O3 O 0.05292 0.56831 0.14012 0.0
O4 O 0.02867 0.50869 0.15883 0.0
O5 O 0.09377 0.53237 0.19222 0.0
C6 C 0.95652 0.36185 0.14905 0.0
O7 O 0.04075 0.45186 0.1868 0.0
C8 C 0.12284 0.45586 0.1428 0.0
C9 C 0.07273 0.49818 0.10677 0.0
O10 O 0.99806 0.36654 0.15565 0.0
O11 O 0.95931 0.40235 0.14233 0.0
O12 O 0.08659 0.42184 0.13199 0.0
O13 O 0.1084 0.47853 0.1578 0.0
O14 O 0.03517 0.46525 0.11502 0.0
O15 O 0.1082 0.52853 0.12022 0.0
C16 C 0.17981 0.62775 0.16414 0.0
O17 O 0.13739 0.62265 0.16848 0.0
O18 O 0.17904 0.58668 0.15575 0.0
C19 C 1.01575 0.53332 0.14629 0.0
Tb20 Tb 0.51691 0.99252 0.50231 0.0
C21 C 0.56155 0.0258 0.45593 0.0
Tb22 Tb 0.61968 0.06266 0.50363 0.0
O23 O 0.49492 0.05017 0.4953 0.0
O24 O 0.55649 0.06557 0.51437 0.0
O25 O 0.52919 0.99014 0.4658 0.0
C26 C 0.69862 0.1406 0.50021 0.0
O27 O 0.59749 0.06045 0.46774 0.0
C28 C 0.60437 0.97118 0.50117 0.0
C29 C 0.57549 0.02779 0.55003 0.0
O30 O 0.69634 0.09822 0.50361 0.0
O31 O 0.65663 0.13896 0.49867 0.0
O32 O 0.64202 0.00536 0.51071 0.0
O33 O 0.58018 0.98957 0.49172 0.0
O34 O 0.60872 0.06308 0.54031 0.0
O35 O 0.53874 0.99434 0.53813 0.0
C36 C 0.43619 0.91619 0.50494 0.0
O37 O 0.44029 0.9582 0.4998 0.0
O38 O 0.47752 0.91718 0.50866 0.0
C39 C 0.53251 0.08416 0.50492 0.0
Tb40 Tb 0.50457 0.5145 0.83798 0.0
C41 C 0.57943 0.53305 0.87841 0.0
Tb42 Tb 0.60713 0.52565 0.82705 0.0
O43 O 0.47564 0.43634 0.82786 0.0
O44 O 0.54526 0.47364 0.83918 0.0
O45 O 0.54178 0.53936 0.8715 0.0
C46 C 0.68551 0.51597 0.81762 0.0
O47 O 0.60662 0.52105 0.864 0.0
C48 C 0.59773 0.60876 0.82719 0.0
C49 C 0.53319 0.50864 0.78661 0.0
O50 O 0.68179 0.54882 0.83204 0.0
O51 O 0.6445 0.48678 0.80885 0.0
O52 O 0.63595 0.6036 0.82235 0.0
O53 O 0.56902 0.56794 0.83141 0.0
O54 O 0.57196 0.50441 0.79327 0.0
O55 O 0.50408 0.51688 0.80103 0.0
C56 C 0.43541 0.54046 0.84871 0.0
O57 O 0.46154 0.55296 0.8313 0.0
O58 O 0.44708 0.51157 0.85991 0.0
C59 C 0.5161 0.43373 0.83018 0.0
C60 C 0.58794 0.09888 0.31028 0.0
C61 C 0.56325 0.05812 0.32198 0.0
C62 C 0.58445 0.09643 0.28636 0.0
C63 C 0.55734 0.05278 0.27334 0.0
C64 C 0.53368 0.01182 0.28504 0.0
C65 C 0.53575 0.01469 0.30891 0.0
C66 C 0.55323 0.04969 0.24775 0.0
C67 C 0.59006 0.07925 0.23503 0.0
C68 C 0.58632 0.07561 0.21098 0.0
C69 C 0.54581 0.04067 0.19936 0.0
C70 C 0.50824 0.01136 0.21179 0.0
C71 C 0.51217 0.01668 0.23584 0.0
C72 C 0.46473 0.97409 0.20023 0.0
C73 C 0.42087 0.96857 0.20852 0.0
C74 C 0.46675 0.94041 0.18284 0.0
C75 C 0.42602 0.90034 0.17499 0.0
C76 C 0.3825 0.89324 0.18436 0.0
C77 C 0.62458 0.10997 0.19842 0.0
C78 C 0.63952 0.15965 0.20436 0.0
C79 C 0.64799 0.09382 0.18153 0.0
C80 C 0.6868 0.12694 0.17132 0.0
C81 C 0.70207 0.1767 0.17752 0.0
C82 C 0.6776 0.19265 0.19391 0.0
C83 C 0.38036 0.92863 0.20078 0.0
H84 H 0.61028 0.1329 0.31948 0.0
H85 H 0.60276 0.1291 0.27821 0.0
H86 H 0.51341 0.97707 0.27588 0.0
H87 H 0.51515 0.98255 0.31697 0.0
H88 H 0.6223 0.1048 0.24369 0.0
H89 H 0.48286 0.99444 0.24526 0.0
H90 H 0.5429 0.0375 0.18081 0.0
H91 H 0.41813 0.99428 0.22174 0.0
H92 H 0.50007 0.94371 0.17616 0.0
H93 H 0.42885 0.87429 0.16201 0.0
H94 H 0.62195 0.17296 0.21732 0.0
H95 H 0.63718 0.05563 0.17677 0.0
H96 H 0.34773 0.92442 0.20856 0.0
H97 H 0.68881 0.23071 0.19919 0.0
H98 H 0.705 0.11373 0.15868 0.0
C99 C 0.49346 0.49317 0.63919 0.0
C100 C 0.52897 0.53153 0.65221 0.0
C101 C 0.49005 0.49295 0.6154 0.0
C102 C 0.5218 0.53129 0.60427 0.0
C103 C 0.5555 0.57094 0.61747 0.0
C104 C 0.55917 0.57096 0.6412 0.0
C105 C 0.5239 0.52752 0.57898 0.0
C106 C 0.52967 0.56674 0.56666 0.0
C107 C 0.53825 0.56532 0.54317 0.0
C108 C 0.5417 0.52414 0.53198 0.0
C109 C 0.53547 0.48418 0.54417 0.0
C110 C 0.52545 0.48607 0.5675 0.0
C111 C 0.54078 0.44066 0.53339 0.0
C112 C 0.52149 0.41971 0.5114 0.0
C113 C 0.56247 0.41757 0.54607 0.0
C114 C 0.56165 0.37298 0.53792 0.0
C115 C 0.54047 0.35052 0.51638 0.0
C116 C 0.54708 0.609 0.53133 0.0
C117 C 0.5147 0.63034 0.53256 0.0
C118 C 0.59056 0.63339 0.52184 0.0
C119 C 0.60265 0.67978 0.51512 0.0
C120 C 0.57116 0.70219 0.51749 0.0
C121 C 0.52647 0.67633 0.52554 0.0
C122 C 0.52155 0.37523 0.50293 0.0
H123 H 0.4698 0.46227 0.64725 0.0
H124 H 0.46362 0.46205 0.60561 0.0
H125 H 0.5807 0.60077 0.60933 0.0
H126 H 0.58651 0.60123 0.6509 0.0
H127 H 0.52892 0.59911 0.57554 0.0
H128 H 0.5206 0.45568 0.57711 0.0
H129 H 0.54998 0.52365 0.51406 0.0
H130 H 0.50473 0.43666 0.50111 0.0
H131 H 0.57894 0.43324 0.56282 0.0
H132 H 0.57604 0.35546 0.54914 0.0
H133 H 0.48101 0.61223 0.53992 0.0
H134 H 0.61625 0.61784 0.52093 0.0
H135 H 0.50587 0.35987 0.48604 0.0
H136 H 0.50163 0.69277 0.52772 0.0
H137 H 0.63723 0.69882 0.50883 0.0
C138 C 0.09006 0.62117 0.98167 0.0
C139 C 0.05417 0.5752 0.98292 0.0
C140 C 0.09858 0.64205 0.96099 0.0
C141 C 0.07149 0.61734 0.94109 0.0
C142 C 0.03454 0.57199 0.94252 0.0
C143 C 1.02584 0.5512 0.96328 0.0
C144 C 0.0837 0.63727 0.91864 0.0
C145 C 0.13065 0.65722 0.91253 0.0
C146 C 0.14262 0.67194 0.89048 0.0
C147 C 0.10669 0.66696 0.87464 0.0
C148 C 0.05958 0.6447 0.88005 0.0
C149 C 0.04846 0.63182 0.90238 0.0
C150 C 1.02218 0.62959 0.86173 0.0
C151 C 1.02473 0.65847 0.84389 0.0
C152 C 0.98418 0.58467 0.86162 0.0
C153 C 0.94789 0.57046 0.84512 0.0
C154 C 0.94899 0.6003 0.82789 0.0
C155 C 0.19118 0.68423 0.88289 0.0
C156 C 0.22995 0.70548 0.89857 0.0
C157 C 0.1984 0.66845 0.86053 0.0
C158 C 0.24199 0.67005 0.85466 0.0
C159 C 0.27897 0.68618 0.87112 0.0
C160 C 0.27337 0.70562 0.89286 0.0
C161 C 0.98877 0.64369 0.82698 0.0
H162 H 0.11189 0.64081 0.99669 0.0
H163 H 0.12682 0.67731 0.9605 0.0
H164 H 1.01345 0.55166 0.92743 0.0
H165 H 0.99816 0.51561 0.96377 0.0
H166 H 0.15747 0.65786 0.9245 0.0
H167 H 1.01214 0.61612 0.90695 0.0
H168 H 0.11523 0.67738 0.85751 0.0
H169 H 0.05375 0.69312 0.84331 0.0
H170 H 0.98189 0.56057 0.87456 0.0
H171 H 0.91782 0.53715 0.84682 0.0
H172 H 0.22614 0.7193 0.91572 0.0
H173 H 0.16977 0.65095 0.84795 0.0
H174 H 0.99132 0.66725 0.81375 0.0
H175 H 0.30172 0.71826 0.90577 0.0
H176 H 0.24544 0.6542 0.83788 0.0
C177 C 0.03227 0.53445 0.34889 0.0
C178 C 0.06511 0.52282 0.33642 0.0
C179 C 0.03123 0.53282 0.37263 0.0
C180 C 0.06372 0.52063 0.38423 0.0
C181 C 0.09673 0.50927 0.37177 0.0
C182 C 0.09707 0.50981 0.34797 0.0
C183 C 0.06378 0.52073 0.40939 0.0
C184 C 1.02357 0.49167 0.4201 0.0
C185 C 1.02331 0.49183 0.44409 0.0
C186 C 0.06366 0.52254 0.45731 0.0
C187 C 0.10412 0.55189 0.44671 0.0
C188 C 0.10402 0.55034 0.42271 0.0
C189 C 0.14601 0.58587 0.46051 0.0
C190 C 0.14159 0.61652 0.47876 0.0
C191 C 0.19095 0.59056 0.45433 0.0
C192 C 0.23074 0.62682 0.46538 0.0
C193 C 0.22636 0.65928 0.48275 0.0
C194 C 0.98147 0.45857 0.45511 0.0
C195 C 0.93616 0.45006 0.44691 0.0
C196 C 0.98652 0.43293 0.47303 0.0
C197 C 0.9472 0.39822 0.48192 0.0
C198 C 0.90199 0.38827 0.47304 0.0
C199 C 0.89688 0.41524 0.45574 0.0
C200 C 0.18143 0.65303 0.48972 0.0
H201 H 1.00727 0.54444 0.34023 0.0
H202 H 1.00565 0.54191 0.38199 0.0
H203 H 0.12202 0.4997 0.38045 0.0
H204 H 0.12275 0.50088 0.33862 0.0
H205 H 0.993 0.46785 0.40961 0.0
H206 H 0.13476 0.57349 0.41436 0.0
H207 H 0.06366 0.5236 0.47583 0.0
H208 H 0.10735 0.6138 0.4838 0.0
H209 H 0.1953 0.56705 0.44047 0.0
H210 H 0.26487 0.63097 0.4595 0.0
H211 H 0.93107 0.46974 0.43336 0.0
H212 H 1.02093 0.43839 0.47964 0.0
H213 H 0.17708 0.67734 0.50319 0.0
H214 H 0.8626 0.40826 0.44838 0.0
H215 H 0.95228 0.37855 0.49548 0.0
C216 C 0.50931 0.95149 0.69259 0.0
C217 C 0.54934 0.98408 0.68271 0.0
C218 C 0.50566 0.95301 0.71638 0.0
C219 C 0.54147 0.98773 0.73074 0.0
C220 C 0.58162 0.01995 0.72108 0.0
C221 C 0.58579 0.0178 0.69735 0.0
C222 C 0.53625 0.99174 0.75575 0.0
C223 C 0.5294 0.95274 0.76843 0.0
C224 C 0.52585 0.95708 0.79232 0.0
C225 C 0.52738 1.00063 0.80344 0.0
C226 C 0.53315 0.03974 0.79068 0.0
C227 C 0.53825 0.03498 0.76692 0.0
C228 C 0.53202 0.08533 0.8013 0.0
C229 C 0.49396 0.08468 0.81414 0.0
C230 C 0.56565 0.1299 0.79582 0.0
C231 C 0.56002 0.17256 0.80187 0.0
C232 C 0.52044 0.17174 0.81346 0.0
C233 C 0.52376 0.91651 0.80518 0.0
C234 C 0.48667 0.87096 0.80072 0.0
C235 C 0.56262 0.92103 0.81885 0.0
C236 C 0.56568 0.88017 0.82668 0.0
C237 C 0.52954 0.83424 0.82133 0.0
C238 C 0.48927 0.83024 0.80897 0.0
C239 C 0.48811 0.12743 0.82008 0.0
H240 H 0.48012 0.92555 0.682 0.0
H241 H 0.47421 0.92807 0.72353 0.0
H242 H 0.60984 0.04676 0.73193 0.0
H243 H 0.61765 0.0427 0.69053 0.0
H244 H 0.5286 0.91948 0.7598 0.0
H245 H 0.54232 0.06461 0.75688 0.0
H246 H 0.52434 1.00409 0.82185 0.0
H247 H 0.46735 0.05084 0.81847 0.0
H248 H 0.59542 0.13149 0.78597 0.0
H249 H 0.58548 0.20585 0.79637 0.0
H250 H 0.45663 0.86658 0.78996 0.0
H251 H 0.59193 0.95566 0.82221 0.0
H252 H 0.45757 0.12563 0.8293 0.0
H253 H 0.46112 0.79524 0.80445 0.0
H254 H 0.5971 0.88418 0.83619 0.0
C255 C 0.61197 0.5251 0.02511 0.0
C256 C 0.58256 0.544 0.0153 0.0
C257 C 0.60959 0.51654 0.04822 0.0
C258 C 0.5789 0.52817 0.06257 0.0
C259 C 0.55042 0.54832 0.0529 0.0
C260 C 0.55165 0.55534 0.02962 0.0
C261 C 0.57644 0.51915 0.08737 0.0
C262 C 0.61616 0.52164 0.09975 0.0
C263 C 0.61442 0.51204 0.12283 0.0
C264 C 0.57174 0.50185 0.13418 0.0
C265 C 0.53148 0.50044 0.12211 0.0
C266 C 0.53432 0.50791 0.09875 0.0
C267 C 0.48569 0.49261 0.13284 0.0
C268 C 0.44491 0.45215 0.12506 0.0
C269 C 0.48032 0.53012 0.14651 0.0
C270 C 0.43539 0.52807 0.15147 0.0
C271 C 0.39426 0.48836 0.1429 0.0
C272 C 0.65827 0.51253 0.13383 0.0
C273 C 0.66062 0.46981 0.13985 0.0
C274 C 0.70055 0.55373 0.13372 0.0
C275 C 0.74395 0.55191 0.13849 0.0
C276 C 0.74688 0.50861 0.1433 0.0
C277 C 0.70424 0.46785 0.14452 0.0
C278 C 0.40008 0.44983 0.13016 0.0
H279 H 0.63713 0.51679 0.01504 0.0
H280 H 0.63163 0.50018 0.05465 0.0
H281 H 0.52702 0.55895 0.06326 0.0
H282 H 0.52766 0.5691 0.02292 0.0
H283 H 0.64913 0.53099 0.0914 0.0
H284 H 0.50306 0.505 0.08947 0.0
H285 H 0.56994 0.49534 0.1521 0.0
H286 H 0.44769 0.42301 0.11413 0.0
H287 H 0.51085 0.56243 0.1522 0.0
H288 H 0.4331 0.55888 0.1611 0.0
H289 H 0.62895 0.43712 0.13958 0.0
H290 H 0.70015 0.58713 0.12893 0.0
H291 H 0.36991 0.418 0.12363 0.0
H292 H 0.70449 0.43364 0.14799 0.0
H293 H 0.77539 0.58454 0.13792 0.0
H294 H 0.20203 0.50353 0.1718 0.0
H295 H 0.15515 0.41935 0.10659 0.0
H296 H 0.23348 0.42235 0.1007 0.0
H297 H 0.31533 0.44765 0.11389 0.0
H298 H 0.36282 0.52826 0.17996 0.0
H299 H 0.28537 0.52844 0.18534 0.0
C300 C 0.2091 0.4861 0.15626 0.0
C301 C 0.17232 0.46115 0.13966 0.0
C302 C 0.25469 0.48726 0.15306 0.0
C303 C 0.18238 0.43863 0.11971 0.0
C304 C 0.22737 0.4403 0.11631 0.0
C305 C 0.30896 0.46475 0.12969 0.0
C306 C 0.34586 0.48777 0.14646 0.0
C307 C 0.26378 0.46409 0.13292 0.0
C308 C 0.33606 0.51066 0.16647 0.0
C309 C 0.29134 0.51055 0.16968 0.0
H310 H 0.70606 0.23106 0.49654 0.0
H311 H 0.78738 0.14558 0.49754 0.0
H312 H 0.85826 0.21571 0.49037 0.0
H313 H 0.8958 0.29973 0.48158 0.0
H314 H 0.81479 0.38578 0.48126 0.0
H315 H 0.74484 0.31677 0.49027 0.0
C316 C 0.73941 0.22796 0.49531 0.0
C317 C 0.74169 0.18338 0.49738 0.0
C318 C 0.77985 0.26833 0.49119 0.0
C319 C 0.78495 0.17966 0.49593 0.0
C320 C 0.82538 0.21966 0.49181 0.0
C321 C 0.8631 0.30374 0.48393 0.0
C322 C 0.86054 0.34784 0.48065 0.0
C323 C 0.82311 0.26401 0.48915 0.0
C324 C 0.81759 0.35206 0.48336 0.0
C325 C 0.77762 0.31268 0.4886 0.0
H326 H 0.52709 0.63323 0.84411 0.0
H327 H 0.65403 0.68606 0.80695 0.0
H328 H 0.6456 0.76105 0.80303 0.0
H329 H 0.60125 0.81106 0.80889 0.0
H330 H 0.47208 0.75855 0.84416 0.0
H331 H 0.48248 0.68472 0.85041 0.0
C332 C 0.55221 0.66076 0.83478 0.0
C333 C 0.59052 0.65353 0.82538 0.0
C334 C 0.54693 0.70408 0.83238 0.0
C335 C 0.624 0.69048 0.81418 0.0
C336 C 0.61925 0.73347 0.81191 0.0
C337 C 0.57548 0.78347 0.81804 0.0
C338 C 0.53618 0.79028 0.8262 0.0
C339 C 0.58078 0.74058 0.8208 0.0
C340 C 0.50263 0.754 0.83772 0.0
C341 C 0.50838 0.71165 0.84112 0.0
H342 H 0.93377 0.47858 0.16712 0.0
H343 H 0.98757 0.58152 0.11716 0.0
H344 H 0.91056 0.58248 0.11161 0.0
H345 H 0.82808 0.5558 0.12114 0.0
H346 H 0.77299 0.45463 0.1718 0.0
H347 H 0.84925 0.45072 0.17643 0.0
C348 C 0.92851 0.50098 0.15494 0.0
C349 C 0.9669 0.53016 0.14265 0.0
C350 C 0.88358 0.50178 0.1519 0.0
C351 C 0.9591 0.55892 0.12697 0.0
C352 C 0.91487 0.55953 0.12376 0.0
C353 C 0.83256 0.53328 0.13347 0.0
C354 C 0.79407 0.50591 0.1462 0.0
C355 C 0.8769 0.53156 0.13628 0.0
C356 C 0.80123 0.47599 0.16155 0.0
C357 C 0.84521 0.47391 0.16433 0.0
H358 H 0.42555 0.82447 0.50862 0.0
H359 H 0.34816 0.91157 0.49915 0.0
H360 H 0.27517 0.83924 0.49383 0.0
H361 H 0.23479 0.75139 0.48834 0.0
H362 H 0.31213 0.66369 0.49634 0.0
H363 H 0.38387 0.73615 0.50583 0.0
C364 C 0.39255 0.82752 0.5057 0.0
C365 C 0.39201 0.87303 0.50416 0.0
C366 C 0.35091 0.78575 0.50225 0.0
C367 C 0.34927 0.87675 0.5003 0.0
C368 C 0.30761 0.83546 0.49724 0.0
C369 C 0.2671 0.74809 0.4927 0.0
C370 C 0.26823 0.70232 0.49164 0.0
C371 C 0.30818 0.78978 0.49771 0.0
C372 C 0.31055 0.69862 0.49689 0.0
C373 C 0.3515 0.73998 0.5023 0.0
H374 H 0.45256 0.34221 0.81765 0.0
H375 H 0.59767 0.42465 0.83864 0.0
H376 H 0.61187 0.35128 0.8357 0.0
H377 H 0.58307 0.26341 0.8273 0.0
H378 H 0.4375 0.18043 0.80714 0.0
H379 H 0.42325 0.25378 0.81022 0.0
C380 C 0.48728 0.34403 0.8215 0.0
C381 C 0.52418 0.38891 0.82799 0.0
C382 C 0.495 0.30143 0.82023 0.0
C383 C 0.56887 0.39069 0.8332 0.0
C384 C 0.57695 0.34866 0.83168 0.0
C385 C 0.54823 0.26136 0.82355 0.0
C386 C 0.51144 0.21631 0.81703 0.0
C387 C 0.5403 0.3038 0.82521 0.0
C388 C 0.46637 0.2144 0.81253 0.0
C389 C 0.45825 0.25645 0.81407 0.0
H390 H 0.65467 0.9289 0.52083 0.0
H391 H 0.52998 0.89684 0.4789 0.0
H392 H 0.50859 0.81048 0.47991 0.0
H393 H 0.5244 0.74393 0.49382 0.0
H394 H 0.65157 0.77659 0.53392 0.0
H395 H 0.6736 0.86267 0.53202 0.0
C396 C 0.62295 0.90296 0.51182 0.0
C397 C 0.59321 0.91911 0.50037 0.0
C398 C 0.6116 0.85344 0.51196 0.0
C399 C 0.55268 0.88521 0.48842 0.0
C400 C 0.54064 0.83584 0.48884 0.0
C401 C 0.55707 0.76998 0.50198 0.0
C402 C 0.5863 0.75393 0.514 0.0
C403 C 0.5696 0.81951 0.50077 0.0
C404 C 0.62873 0.788 0.52434 0.0
C405 C 0.64118 0.83725 0.52342 0.0
H406 H 0.75498 0.59553 0.80735 0.0
H407 H 0.71622 0.44359 0.81002 0.0
H408 H 0.79864 0.4557 0.80634 0.0
H409 H 0.88164 0.51243 0.8111 0.0
H410 H 0.91725 0.6655 0.81363 0.0
H411 H 0.83653 0.64981 0.80467 0.0
C412 C 0.76461 0.56496 0.80655 0.0
C413 C 0.73065 0.51909 0.80954 0.0
C414 C 0.81155 0.57254 0.80518 0.0
C415 C 0.74248 0.47929 0.80797 0.0
C416 C 0.78944 0.48634 0.80599 0.0
C417 C 0.87185 0.54235 0.80938 0.0
C418 C 0.90541 0.59011 0.81409 0.0
C419 C 0.82447 0.53328 0.80595 0.0
C420 C 0.89257 0.62832 0.81045 0.0
C421 C 0.84601 0.61948 0.80566 0.0
H422 H 0.18383 0.71861 0.16938 0.0
H423 H 0.27042 0.6384 0.16535 0.0
H424 H 0.34099 0.71349 0.17034 0.0
H425 H 0.37782 0.80171 0.17705 0.0
H426 H 0.29129 0.88223 0.17869 0.0
H427 H 0.22107 0.80733 0.17345 0.0
C428 C 0.21821 0.71771 0.16965 0.0
C429 C 0.22208 0.67322 0.16725 0.0
C430 C 0.25861 0.76103 0.17205 0.0
C431 C 0.26669 0.67235 0.16728 0.0
C432 C 0.30701 0.71523 0.17009 0.0
C433 C 0.34373 0.80306 0.1758 0.0
C434 C 0.34008 0.84779 0.17847 0.0
C435 C 0.30339 0.7598 0.17254 0.0
C436 C 0.29531 0.84845 0.17713 0.0
C437 C 0.25504 0.80558 0.17405 0.0
H438 H 0.48078 0.12787 0.48735 0.0
H439 H 0.60521 0.1565 0.52891 0.0
H440 H 0.62243 0.24232 0.53292 0.0
H441 H 0.60048 0.30848 0.52615 0.0
H442 H 0.46916 0.27843 0.49002 0.0
H443 H 0.4573 0.1946 0.48168 0.0
C444 C 0.51172 0.15301 0.49721 0.0
C445 C 0.54231 0.13603 0.50736 0.0
C446 C 0.52031 0.20219 0.50033 0.0
C447 C 0.58188 0.16882 0.52036 0.0
C448 C 0.59154 0.21789 0.52283 0.0
C449 C 0.56881 0.28376 0.51672 0.0
C450 C 0.53565 0.30039 0.50902 0.0
C451 C 0.56073 0.23489 0.51309 0.0
C452 C 0.49586 0.26748 0.49601 0.0
C453 C 0.48862 0.21911 0.49145 0.0
H454 H 0.41942 0.60799 0.82829 0.0
H455 H 0.38347 0.52549 0.88687 0.0
H456 H 0.33656 0.56937 0.90086 0.0
H457 H 0.30358 0.62874 0.89528 0.0
H458 H 0.33928 0.71019 0.8364 0.0
H459 H 0.39079 0.67059 0.82403 0.0
C460 C 0.40119 0.59952 0.8441 0.0
C461 C 0.4043 0.56344 0.8565 0.0
C462 C 0.37545 0.62547 0.85216 0.0
C463 C 0.38097 0.5529 0.877 0.0
C464 C 0.35464 0.57823 0.88506 0.0
C465 C 0.32383 0.63876 0.88014 0.0
C466 C 0.31842 0.67253 0.86683 0.0
C467 C 0.35168 0.61455 0.87275 0.0
C468 C 0.34363 0.68459 0.84693 0.0
C469 C 0.37241 0.66155 0.83975 0.0
H470 H 0.86829 0.35638 0.144 0.0
H471 H 0.94608 0.2736 0.16089 0.0
H472 H 0.87326 0.20673 0.16918 0.0
H473 H 0.78806 0.17442 0.17448 0.0
H474 H 0.7113 0.25933 0.15943 0.0
H475 H 0.78294 0.32266 0.1475 0.0
C476 C 0.86918 0.32341 0.14919 0.0
C477 C 0.91237 0.31979 0.15182 0.0
C478 C 0.82735 0.28565 0.15441 0.0
C479 C 0.91317 0.27713 0.15875 0.0
C480 C 0.87157 0.23897 0.16353 0.0
C481 C 0.78697 0.20643 0.16818 0.0
C482 C 0.74452 0.21226 0.16784 0.0
C483 C 0.82853 0.24314 0.16181 0.0
C484 C 0.74366 0.25421 0.15997 0.0
C485 C 0.78457 0.29039 0.15315 0.0
H486 H 1.00044 0.48396 0.0769 0.0
H487 H 0.15025 0.52827 0.08198 0.0
H488 H 0.15711 0.55298 0.04322 0.0
H489 H 0.12174 0.56895 0.00947 0.0
H490 H 0.9726 0.52835 0.00434 0.0
H491 H 0.964 0.49469 0.04141 0.0
C492 C 0.03434 0.49801 0.06925 0.0
C493 C 0.07481 0.50456 0.08218 0.0
C494 C 0.03818 0.51339 0.04713 0.0
C495 C 0.11869 0.52329 0.07231 0.0
C496 C 0.12266 0.53754 0.05021 0.0
C497 C 0.08737 0.55276 0.0165 0.0
C498 C 0.04799 0.5518 0.00448 0.0
C499 C 0.08287 0.53409 0.03777 0.0
C500 C 1.00345 0.52961 0.01341 0.0
C501 C 0.99856 0.51051 0.03459 0.0
H502 H 0.57677 0.10012 0.43036 0.0
H503 H 0.54341 0.94786 0.42557 0.0
H504 H 0.54402 0.94507 0.38375 0.0
H505 H 0.55529 0.98608 0.34896 0.0
H506 H 0.5768 0.13601 0.35335 0.0
H507 H 0.5813 0.13988 0.39492 0.0
C508 C 0.56961 0.06644 0.42006 0.0
C509 C 0.56029 0.0243 0.43082 0.0
C510 C 0.56847 0.06482 0.39603 0.0
C511 C 0.55046 0.98064 0.4175 0.0
C512 C 0.55099 0.97911 0.39365 0.0
C513 C 0.55987 0.01952 0.35878 0.0
C514 C 0.56581 0.06067 0.3476 0.0
C515 C 0.5599 0.02098 0.38275 0.0
C516 C 0.57325 0.10384 0.36112 0.0
C517 C 0.57527 0.10606 0.38504 0.0
H518 H 0.59592 0.52738 0.75325 0.0
H519 H 0.44914 0.48838 0.76448 0.0
H520 H 0.43454 0.49135 0.72372 0.0
H521 H 0.46411 0.50716 0.68501 0.0
H522 H 0.61152 0.54925 0.67453 0.0
H523 H 0.62534 0.54338 0.71494 0.0
C524 C 0.56062 0.51898 0.74675 0.0
C525 C 0.52362 0.50733 0.76181 0.0
C526 C 0.55271 0.52185 0.72348 0.0
C527 C 0.47823 0.49741 0.7532 0.0
C528 C 0.46987 0.49916 0.72992 0.0
C529 C 0.49917 0.51487 0.69162 0.0
C530 C 0.53677 0.52885 0.67689 0.0
C531 C 0.50693 0.51172 0.71493 0.0
C532 C 0.58213 0.53911 0.68564 0.0
C533 C 0.59002 0.53544 0.70869 0.0
H534 H 0.53753 0.95047 0.57441 0.0
H535 H 0.61774 0.10431 0.58194 0.0
H536 H 0.61687 0.10432 0.62363 0.0
H537 H 0.59028 0.06118 0.6577 0.0
H538 H 0.51541 0.90626 0.65022 0.0
H539 H 0.51639 0.9064 0.6087 0.0
C540 C 0.55488 0.98397 0.5852 0.0
C541 C 0.57735 0.02737 0.57516 0.0
C542 C 0.55481 0.98361 0.60913 0.0
C543 C 0.6003 0.07042 0.58929 0.0
C544 C 0.59965 0.07046 0.61312 0.0
C545 C 0.57495 0.02721 0.64712 0.0
C546 C 0.55242 0.98382 0.65731 0.0
C547 C 0.57672 0.0273 0.62321 0.0
C548 C 0.53204 0.94042 0.64303 0.0
C549 C 0.5329 0.94035 0.61922 0.0
H550 H 0.56368 0.58941 0.91293 0.0
H551 H 0.61313 0.47687 0.89946 0.0
H552 H 0.61844 0.4702 0.94051 0.0
H553 H 0.60384 0.49236 0.97976 0.0
H554 H 0.56343 0.61174 0.99378 0.0
H555 H 0.55857 0.61861 0.95295 0.0
C556 C 0.57607 0.56381 0.91906 0.0
C557 C 0.58777 0.53353 0.90325 0.0
C558 C 0.57988 0.56075 0.94272 0.0
C559 C 0.6042 0.5008 0.91133 0.0
C560 C 0.60694 0.49674 0.93479 0.0
C561 C 0.59511 0.52082 0.97417 0.0
C562 C 0.58328 0.55084 0.99025 0.0
C563 C 0.59428 0.5261 0.95063 0.0
C564 C 0.57121 0.58677 0.98209 0.0
C565 C 0.56893 0.59124 0.95863 0.0
H566 H 0.07934 0.56463 0.23268 0.0
H567 H 0.04912 0.41291 0.22375 0.0
H568 H 0.04701 0.40947 0.26526 0.0
H569 H 0.05402 0.44985 0.30419 0.0
H570 H 0.07874 0.60005 0.31295 0.0
H571 H 0.08274 0.60406 0.2714 0.0
C572 C 0.07246 0.53089 0.23986 0.0
C573 C 0.06476 0.48918 0.22526 0.0
C574 C 0.07026 0.52897 0.26367 0.0
C575 C 0.0551 0.44548 0.2347 0.0
C576 C 0.05398 0.44351 0.2584 0.0
C577 C 0.06031 0.48335 0.29688 0.0
C578 C 0.06638 0.52468 0.31138 0.0
C579 C 0.06155 0.48503 0.27305 0.0
C580 C 0.07394 0.56787 0.30194 0.0
C581 C 0.07631 0.57015 0.27827 0.0
loop_
_geom_bond_atom_site_label_1
_geom_bond_atom_site_label_2
_geom_bond_distance
_geom_bond_site_symmetry_2
_ccdc_geom_bond_type
Tb0 O3 2.453 1_455 S
Tb0 O4 2.596 1_455 S
Tb0 O5 2.374 . S
Tb0 O13 2.343 . S
Tb0 O15 2.353 . S
Tb0 O17 2.427 . S
Tb0 O18 2.513 . S
C1 O5 1.251 . S
C1 O7 1.263 . S
Tb2 O4 2.343 1_455 S
Tb2 O7 2.353 . S
Tb2 O10 2.427 1_455 S
Tb2 O11 2.513 1_455 S
Tb2 O12 2.453 . S
Tb2 O13 2.596 . S
Tb2 O14 2.374 . S
O3 Tb0 2.453 1_655 S
O3 C19 1.245 . S
O4 Tb0 2.596 1_655 S
O4 Tb2 2.343 1_655 S
O4 C19 1.259 . S
O5 Tb0 2.374 . S
O5 C1 1.251 . S
C6 O10 1.275 . S
C6 O11 1.246 . S
O7 C1 1.263 . S
O7 Tb2 2.353 . S
C8 O12 1.245 . S
C8 O13 1.259 . S
C9 O14 1.250 . S
C9 O15 1.263 . S
O10 Tb2 2.427 1_655 S
O10 C6 1.275 . S
O11 Tb2 2.513 1_655 S
O11 C6 1.246 . S
O12 Tb2 2.453 . S
O12 C8 1.245 . S
O13 Tb0 2.343 . S
O13 Tb2 2.596 . S
O13 C8 1.259 . S
O14 Tb2 2.374 . S
O14 C9 1.250 . S
O15 Tb0 2.353 . S
O15 C9 1.263 . S
C16 O17 1.275 . S
C16 O18 1.246 . S
O17 Tb0 2.427 . S
O17 C16 1.275 . S
O18 Tb0 2.513 . S
O18 C16 1.246 . S
C19 O3 1.245 . S
C19 O4 1.259 . S
Tb20 O23 2.453 . S
Tb20 O24 2.596 . S
Tb20 O25 2.374 . S
Tb20 O33 2.343 1_545 S
Tb20 O35 2.353 . S
Tb20 O37 2.427 1_545 S
Tb20 O38 2.513 1_545 S
C21 O25 1.251 . S
C21 O27 1.263 . S
Tb22 O24 2.343 . S
Tb22 O27 2.353 . S
Tb22 O30 2.427 . S
Tb22 O31 2.513 . S
Tb22 O32 2.453 1_545 S
Tb22 O33 2.596 1_545 S
Tb22 O34 2.374 . S
O23 Tb20 2.453 . S
O23 C39 1.245 . S
O24 Tb20 2.596 . S
O24 Tb22 2.343 . S
O24 C39 1.259 . S
O25 Tb20 2.374 . S
O25 C21 1.251 . S
C26 O30 1.275 . S
C26 O31 1.246 . S
O27 C21 1.263 . S
O27 Tb22 2.353 . S
C28 O32 1.245 . S
C28 O33 1.259 . S
C29 O34 1.250 . S
C29 O35 1.263 . S
O30 Tb22 2.427 . S
O30 C26 1.275 . S
O31 Tb22 2.513 . S
O31 C26 1.246 . S
O32 Tb22 2.453 1_565 S
O32 C28 1.245 . S
O33 Tb20 2.343 1_565 S
O33 Tb22 2.596 1_565 S
O33 C28 1.259 . S
O34 Tb22 2.374 . S
O34 C29 1.250 . S
O35 Tb20 2.353 . S
O35 C29 1.263 . S
C36 O37 1.275 . S
C36 O38 1.246 . S
O37 Tb20 2.427 1_565 S
O37 C36 1.275 . S
O38 Tb20 2.513 1_565 S
O38 C36 1.246 . S
C39 O23 1.245 . S
C39 O24 1.259 . S
Tb40 O43 2.453 . S
Tb40 O44 2.596 . S
Tb40 O45 2.374 . S
Tb40 O53 2.343 . S
Tb40 O55 2.353 . S
Tb40 O57 2.427 . S
Tb40 O58 2.513 . S
C41 O45 1.251 . S
C41 O47 1.263 . S
Tb42 O44 2.343 . S
Tb42 O47 2.353 . S
Tb42 O50 2.427 . S
Tb42 O51 2.513 . S
Tb42 O52 2.453 . S
Tb42 O53 2.596 . S
Tb42 O54 2.374 . S
O43 Tb40 2.453 . S
O43 C59 1.245 . S
O44 Tb40 2.596 . S
O44 Tb42 2.343 . S
O44 C59 1.259 . S
O45 Tb40 2.374 . S
O45 C41 1.251 . S
C46 O50 1.275 . S
C46 O51 1.246 . S
O47 C41 1.263 . S
O47 Tb42 2.353 . S
C48 O52 1.245 . S
C48 O53 1.259 . S
C49 O54 1.250 . S
C49 O55 1.263 . S
O50 Tb42 2.427 . S
O50 C46 1.275 . S
O51 Tb42 2.513 . S
O51 C46 1.246 . S
O52 Tb42 2.453 . S
O52 C48 1.245 . S
O53 Tb40 2.343 . S
O53 Tb42 2.596 . S
O53 C48 1.259 . S
O54 Tb42 2.374 . S
O54 C49 1.250 . S
O55 Tb40 2.353 . S
O55 C49 1.263 . S
C56 O57 1.275 . S
C56 O58 1.246 . S
O57 Tb40 2.427 . S
O57 C56 1.275 . S
O58 Tb40 2.513 . S
O58 C56 1.246 . S
C59 O43 1.245 . S
C59 O44 1.259 . S
C60 C61 1.386 . S
C60 C62 1.397 . S
C60 H84 0.931 . S
C61 C60 1.386 . S
C61 C65 1.397 . S
C62 C60 1.397 . S
C62 C63 1.384 . S
C62 H85 0.930 . S
C63 C62 1.384 . S
C63 C64 1.377 . S
C63 C66 1.481 . S
C64 C63 1.377 . S
C64 C65 1.389 . S
C64 H86 0.929 1_545 S
C65 C61 1.397 . S
C65 C64 1.389 . S
C65 H87 0.931 1_545 S
C66 C63 1.481 . S
C66 C67 1.387 . S
C66 C71 1.390 . S
C67 C66 1.387 . S
C67 C68 1.401 . S
C67 H88 0.930 . S
C68 C67 1.401 . S
C68 C69 1.376 . S
C68 C77 1.511 . S
C69 C68 1.376 . S
C69 C70 1.392 . S
C69 H90 0.931 . S
C70 C69 1.392 . S
C70 C71 1.361 . S
C70 C72 1.500 1_545 S
C71 C66 1.390 . S
C71 C70 1.361 . S
C71 H89 0.931 1_545 S
C72 C70 1.500 1_565 S
C72 C73 1.371 . S
C72 C74 1.365 . S
C73 C72 1.371 . S
C73 C83 1.386 . S
C73 H91 0.931 . S
C74 C72 1.365 . S
C74 C75 1.409 . S
C74 H92 0.929 . S
C75 C74 1.409 . S
C75 C76 1.380 . S
C75 H93 0.930 . S
C76 C75 1.380 . S
C76 C83 1.357 . S
C77 C68 1.511 . S
C77 C78 1.341 . S
C77 C79 1.371 . S
C78 C77 1.341 . S
C78 C82 1.394 . S
C78 H94 0.930 . S
C79 C77 1.371 . S
C79 C80 1.392 . S
C79 H95 0.931 . S
C80 C79 1.392 . S
C80 C81 1.331 . S
C80 H98 0.932 . S
C81 C80 1.331 . S
C81 C82 1.336 . S
C82 C78 1.394 . S
C82 C81 1.336 . S
C82 H97 0.929 . S
C83 C73 1.386 . S
C83 C76 1.357 . S
C83 H96 0.928 . S
H84 C60 0.931 . S
H85 C62 0.930 . S
H86 C64 0.929 1_565 S
H87 C65 0.931 1_565 S
H88 C67 0.930 . S
H89 C71 0.931 1_565 S
H90 C69 0.931 . S
H91 C73 0.931 . S
H92 C74 0.929 . S
H93 C75 0.930 . S
H94 C78 0.930 . S
H95 C79 0.931 . S
H96 C83 0.928 . S
H97 C82 0.929 . S
H98 C80 0.932 . S
C99 C100 1.386 . S
C99 C101 1.397 . S
C99 H123 0.931 . S
C100 C99 1.386 . S
C100 C104 1.397 . S
C101 C99 1.397 . S
C101 C102 1.384 . S
C101 H124 0.930 . S
C102 C101 1.384 . S
C102 C103 1.377 . S
C102 C105 1.481 . S
C103 C102 1.377 . S
C103 C104 1.389 . S
C103 H125 0.929 . S
C104 C100 1.397 . S
C104 C103 1.389 . S
C104 H126 0.931 . S
C105 C102 1.481 . S
C105 C106 1.387 . S
C105 C110 1.390 . S
C106 C105 1.387 . S
C106 C107 1.401 . S
C106 H127 0.930 . S
C107 C106 1.401 . S
C107 C108 1.376 . S
C107 C116 1.511 . S
C108 C107 1.376 . S
C108 C109 1.392 . S
C108 H129 0.931 . S
C109 C108 1.392 . S
C109 C110 1.361 . S
C109 C111 1.500 . S
C110 C105 1.390 . S
C110 C109 1.361 . S
C110 H128 0.931 . S
C111 C109 1.500 . S
C111 C112 1.371 . S
C111 C113 1.365 . S
C112 C111 1.371 . S
C112 C122 1.386 . S
C112 H130 0.931 . S
C113 C111 1.365 . S
C113 C114 1.409 . S
C113 H131 0.929 . S
C114 C113 1.409 . S
C114 C115 1.380 . S
C114 H132 0.930 . S
C115 C114 1.380 . S
C115 C122 1.357 . S
C116 C107 1.511 . S
C116 C117 1.341 . S
C116 C118 1.371 . S
C117 C116 1.341 . S
C117 C121 1.394 . S
C117 H133 0.930 . S
C118 C116 1.371 . S
C118 C119 1.392 . S
C118 H134 0.931 . S
C119 C118 1.392 . S
C119 C120 1.331 . S
C119 H137 0.932 . S
C120 C119 1.331 . S
C120 C121 1.336 . S
C121 C117 1.394 . S
C121 C120 1.336 . S
C121 H136 0.929 . S
C122 C112 1.386 . S
C122 C115 1.357 . S
C122 H135 0.928 . S
H123 C99 0.931 . S
H124 C101 0.930 . S
H125 C103 0.929 . S
H126 C104 0.931 . S
H127 C106 0.930 . S
H128 C110 0.931 . S
H129 C108 0.931 . S
H130 C112 0.931 . S
H131 C113 0.929 . S
H132 C114 0.930 . S
H133 C117 0.930 . S
H134 C118 0.931 . S
H135 C122 0.928 . S
H136 C121 0.929 . S
H137 C119 0.932 . S
C138 C139 1.386 . S
C138 C140 1.397 . S
C138 H162 0.931 . S
C139 C138 1.386 . S
C139 C143 1.397 . S
C140 C138 1.397 . S
C140 C141 1.384 . S
C140 H163 0.930 . S
C141 C140 1.384 . S
C141 C142 1.377 . S
C141 C144 1.481 . S
C142 C141 1.377 . S
C142 C143 1.389 . S
C142 H164 0.929 . S
C143 C139 1.397 . S
C143 C142 1.389 . S
C143 H165 0.918 1_455 S
C144 C141 1.481 . S
C144 C145 1.387 . S
C144 C149 1.390 . S
C145 C144 1.387 . S
C145 C146 1.401 . S
C145 H166 0.930 . S
C146 C145 1.401 . S
C146 C147 1.376 . S
C146 C155 1.511 . S
C147 C146 1.376 . S
C147 C148 1.392 . S
C147 H168 0.931 . S
C148 C147 1.392 . S
C148 C149 1.361 . S
C148 C150 1.500 1_455 S
C149 C144 1.390 . S
C149 C148 1.361 . S
C149 H167 0.931 . S
C150 C148 1.500 1_655 S
C150 C151 1.371 1_655 S
C150 C152 1.365 . S
C151 C150 1.371 1_455 S
C151 C161 1.386 1_455 S
C151 H169 0.931 . S
C152 C150 1.365 . S
C152 C153 1.409 . S
C152 H170 0.929 . S
C153 C152 1.409 . S
C153 C154 1.380 . S
C153 H171 0.930 . S
C154 C153 1.380 . S
C154 C161 1.357 . S
C155 C146 1.511 . S
C155 C156 1.341 . S
C155 C157 1.371 . S
C156 C155 1.341 . S
C156 C160 1.394 . S
C156 H172 0.930 . S
C157 C155 1.371 . S
C157 C158 1.392 . S
C157 H173 0.931 . S
C158 C157 1.392 . S
C158 C159 1.331 . S
C158 H176 0.932 . S
C159 C158 1.331 . S
C159 C160 1.336 . S
C160 C156 1.394 . S
C160 C159 1.336 . S
C160 H175 0.929 . S
C161 C151 1.386 1_655 S
C161 C154 1.357 . S
C161 H174 0.928 . S
H162 C138 0.931 . S
H163 C140 0.930 . S
H164 C142 0.929 . S
H165 C143 0.918 1_655 S
H166 C145 0.930 . S
H167 C149 0.931 . S
H168 C147 0.931 . S
H169 C151 0.931 . S
H170 C152 0.929 . S
H171 C153 0.930 . S
H172 C156 0.930 . S
H173 C157 0.931 . S
H174 C161 0.928 . S
H175 C160 0.929 . S
H176 C158 0.932 . S
C177 C178 1.386 . S
C177 C179 1.397 . S
C177 H201 0.931 . S
C178 C177 1.386 . S
C178 C182 1.397 1_655 S
C179 C177 1.397 . S
C179 C180 1.384 . S
C179 H202 0.930 . S
C180 C179 1.384 . S
C180 C181 1.377 1_655 S
C180 C183 1.481 . S
C181 C180 1.377 1_455 S
C181 C182 1.389 . S
C181 H203 0.929 . S
C182 C178 1.397 1_455 S
C182 C181 1.389 . S
C182 H204 0.931 . S
C183 C180 1.481 . S
C183 C184 1.387 . S
C183 C188 1.390 1_655 S
C184 C183 1.387 . S
C184 C185 1.401 . S
C184 H205 0.930 . S
C185 C184 1.401 . S
C185 C186 1.368 1_655 S
C185 C194 1.511 . S
C186 C185 1.368 1_455 S
C186 C187 1.402 . S
C186 H207 0.932 . S
C187 C186 1.402 . S
C187 C188 1.361 . S
C187 C189 1.500 . S
C188 C183 1.390 1_455 S
C188 C187 1.361 . S
C188 H206 0.931 . S
C189 C187 1.500 . S
C189 C190 1.371 . S
C189 C191 1.365 . S
C190 C189 1.371 . S
C190 C200 1.386 . S
C190 H208 0.931 . S
C191 C189 1.365 . S
C191 C192 1.409 . S
C191 H209 0.929 . S
C192 C191 1.409 . S
C192 C193 1.380 . S
C192 H210 0.930 . S
C193 C192 1.380 . S
C193 C200 1.357 . S
C194 C185 1.511 . S
C194 C195 1.341 . S
C194 C196 1.371 . S
C195 C194 1.341 . S
C195 C199 1.394 . S
C195 H211 0.930 . S
C196 C194 1.371 . S
C196 C197 1.392 . S
C196 H212 0.931 . S
C197 C196 1.392 . S
C197 C198 1.331 . S
C197 H215 0.932 . S
C198 C197 1.331 . S
C198 C199 1.336 . S
C199 C195 1.394 . S
C199 C198 1.336 . S
C199 H214 0.929 . S
C200 C190 1.386 . S
C200 C193 1.357 . S
C200 H213 0.928 . S
H201 C177 0.931 . S
H202 C179 0.930 . S
H203 C181 0.929 . S
H204 C182 0.931 . S
H205 C184 0.930 . S
H206 C188 0.931 . S
H207 C186 0.932 . S
H208 C190 0.931 . S
H209 C191 0.929 . S
H210 C192 0.930 . S
H211 C195 0.930 . S
H212 C196 0.931 . S
H213 C200 0.928 . S
H214 C199 0.929 . S
H215 C197 0.932 . S
C216 C217 1.386 1_565 S
C216 C218 1.397 . S
C216 H240 0.931 . S
C217 C216 1.386 1_545 S
C217 C221 1.397 . S
C218 C216 1.397 . S
C218 C219 1.384 1_565 S
C218 H241 0.930 . S
C219 C218 1.384 1_545 S
C219 C220 1.377 . S
C219 C222 1.481 . S
C220 C219 1.377 . S
C220 C221 1.389 . S
C220 H242 0.929 . S
C221 C217 1.397 . S
C221 C220 1.389 . S
C221 H243 0.931 . S
C222 C219 1.481 . S
C222 C223 1.387 1_545 S
C222 C227 1.390 . S
C223 C222 1.387 1_565 S
C223 C224 1.401 . S
C223 H244 0.930 . S
C224 C223 1.401 . S
C224 C225 1.376 1_565 S
C224 C233 1.511 . S
C225 C224 1.376 1_545 S
C225 C226 1.392 . S
C225 H246 0.931 . S
C226 C225 1.392 . S
C226 C227 1.361 . S
C226 C228 1.500 . S
C227 C222 1.390 . S
C227 C226 1.361 . S
C227 H245 0.931 . S
C228 C226 1.500 . S
C228 C229 1.371 . S
C228 C230 1.365 . S
C229 C228 1.371 . S
C229 C239 1.386 . S
C229 H247 0.931 . S
C230 C228 1.365 . S
C230 C231 1.409 . S
C230 H248 0.929 . S
C231 C230 1.409 . S
C231 C232 1.380 . S
C231 H249 0.930 . S
C232 C231 1.380 . S
C232 C239 1.357 . S
C233 C224 1.511 . S
C233 C234 1.341 . S
C233 C235 1.371 . S
C234 C233 1.341 . S
C234 C238 1.394 . S
C234 H250 0.930 . S
C235 C233 1.371 . S
C235 C236 1.392 . S
C235 H251 0.931 . S
C236 C235 1.392 . S
C236 C237 1.331 . S
C236 H254 0.932 . S
C237 C236 1.331 . S
C237 C238 1.336 . S
C238 C234 1.394 . S
C238 C237 1.336 . S
C238 H253 0.929 . S
C239 C229 1.386 . S
C239 C232 1.357 . S
C239 H252 0.928 . S
H240 C216 0.931 . S
H241 C218 0.930 . S
H242 C220 0.929 . S
H243 C221 0.931 . S
H244 C223 0.930 . S
H245 C227 0.931 . S
H246 C225 0.931 . S
H247 C229 0.931 . S
H248 C230 0.929 . S
H249 C231 0.930 . S
H250 C234 0.930 . S
H251 C235 0.931 . S
H252 C239 0.928 . S
H253 C238 0.929 . S
H254 C236 0.932 . S
C255 C256 1.386 . S
C255 C257 1.397 . S
C255 H279 0.931 . S
C256 C255 1.386 . S
C256 C260 1.397 . S
C257 C255 1.397 . S
C257 C258 1.384 . S
C257 H280 0.930 . S
C258 C257 1.384 . S
C258 C259 1.377 . S
C258 C261 1.481 . S
C259 C258 1.377 . S
C259 C260 1.389 . S
C259 H281 0.929 . S
C260 C256 1.397 . S
C260 C259 1.389 . S
C260 H282 0.931 . S
C261 C258 1.481 . S
C261 C262 1.387 . S
C261 C266 1.390 . S
C262 C261 1.387 . S
C262 C263 1.401 . S
C262 H283 0.930 . S
C263 C262 1.401 . S
C263 C264 1.376 . S
C263 C272 1.511 . S
C264 C263 1.376 . S
C264 C265 1.392 . S
C264 H285 0.931 . S
C265 C264 1.392 . S
C265 C266 1.361 . S
C265 C267 1.500 . S
C266 C261 1.390 . S
C266 C265 1.361 . S
C266 H284 0.931 . S
C267 C265 1.500 . S
C267 C268 1.371 . S
C267 C269 1.365 . S
C268 C267 1.371 . S
C268 C278 1.386 . S
C268 H286 0.931 . S
C269 C267 1.365 . S
C269 C270 1.409 . S
C269 H287 0.929 . S
C270 C269 1.409 . S
C270 C271 1.380 . S
C270 H288 0.930 . S
C271 C270 1.380 . S
C271 C278 1.357 . S
C272 C263 1.511 . S
C272 C273 1.341 . S
C272 C274 1.371 . S
C273 C272 1.341 . S
C273 C277 1.394 . S
C273 H289 0.930 . S
C274 C272 1.371 . S
C274 C275 1.392 . S
C274 H290 0.931 . S
C275 C274 1.392 . S
C275 C276 1.331 . S
C275 H293 0.932 . S
C276 C275 1.331 . S
C276 C277 1.336 . S
C277 C273 1.394 . S
C277 C276 1.336 . S
C277 H292 0.929 . S
C278 C268 1.386 . S
C278 C271 1.357 . S
C278 H291 0.928 . S
H279 C255 0.931 . S
H280 C257 0.930 . S
H281 C259 0.929 . S
H282 C260 0.931 . S
H283 C262 0.930 . S
H284 C266 0.931 . S
H285 C264 0.931 . S
H286 C268 0.931 . S
H287 C269 0.929 . S
H288 C270 0.930 . S
H289 C273 0.930 . S
H290 C274 0.931 . S
H291 C278 0.928 . S
H292 C277 0.929 . S
H293 C275 0.932 . S
H294 C300 0.930 . S
H295 C303 0.930 . S
H296 C304 0.930 . S
H297 C305 0.930 . S
H298 C308 0.930 . S
H299 C309 0.930 . S
C300 H294 0.930 . S
C300 C301 1.355 . S
C300 C302 1.415 . S
C301 C300 1.355 . S
C301 C303 1.419 . S
C302 C300 1.415 . S
C302 C307 1.425 . S
C302 C309 1.409 . S
C303 H295 0.930 . S
C303 C301 1.419 . S
C303 C304 1.362 . S
C304 H296 0.930 . S
C304 C303 1.362 . S
C304 C307 1.409 . S
C305 H297 0.930 . S
C305 C306 1.355 . S
C305 C307 1.415 . S
C306 C305 1.355 . S
C306 C308 1.419 . S
C307 C302 1.425 . S
C307 C304 1.409 . S
C307 C305 1.415 . S
C308 H298 0.930 . S
C308 C306 1.419 . S
C308 C309 1.362 . S
C309 H299 0.930 . S
C309 C302 1.409 . S
C309 C308 1.362 . S
H310 C316 0.930 . S
H311 C319 0.930 . S
H312 C320 0.930 . S
H313 C321 0.930 . S
H314 C324 0.930 . S
H315 C325 0.930 . S
C316 H310 0.930 . S
C316 C317 1.355 . S
C316 C318 1.415 . S
C317 C316 1.355 . S
C317 C319 1.419 . S
C318 C316 1.415 . S
C318 C323 1.425 . S
C318 C325 1.409 . S
C319 H311 0.930 . S
C319 C317 1.419 . S
C319 C320 1.362 . S
C320 H312 0.930 . S
C320 C319 1.362 . S
C320 C323 1.409 . S
C321 H313 0.930 . S
C321 C322 1.355 . S
C321 C323 1.415 . S
C322 C321 1.355 . S
C322 C324 1.419 . S
C323 C318 1.425 . S
C323 C320 1.409 . S
C323 C321 1.415 . S
C324 H314 0.930 . S
C324 C322 1.419 . S
C324 C325 1.362 . S
C325 H315 0.930 . S
C325 C318 1.409 . S
C325 C324 1.362 . S
H326 C332 0.930 . S
H327 C335 0.930 . S
H328 C336 0.930 . S
H329 C337 0.930 . S
H330 C340 0.930 . S
H331 C341 0.930 . S
C332 H326 0.930 . S
C332 C333 1.355 . S
C332 C334 1.415 . S
C333 C332 1.355 . S
C333 C335 1.419 . S
C334 C332 1.415 . S
C334 C339 1.425 . S
C334 C341 1.409 . S
C335 H327 0.930 . S
C335 C333 1.419 . S
C335 C336 1.362 . S
C336 H328 0.930 . S
C336 C335 1.362 . S
C336 C339 1.409 . S
C337 H329 0.930 . S
C337 C338 1.355 . S
C337 C339 1.415 . S
C338 C337 1.355 . S
C338 C340 1.419 . S
C339 C334 1.425 . S
C339 C336 1.409 . S
C339 C337 1.415 . S
C340 H330 0.930 . S
C340 C338 1.419 . S
C340 C341 1.362 . S
C341 H331 0.930 . S
C341 C334 1.409 . S
C341 C340 1.362 . S
H342 C348 0.930 . S
H343 C351 0.930 . S
H344 C352 0.930 . S
H345 C353 0.930 . S
H346 C356 0.930 . S
H347 C357 0.930 . S
C348 H342 0.930 . S
C348 C349 1.355 . S
C348 C350 1.415 . S
C349 C348 1.355 . S
C349 C351 1.419 . S
C350 C348 1.415 . S
C350 C355 1.425 . S
C350 C357 1.409 . S
C351 H343 0.930 . S
C351 C349 1.419 . S
C351 C352 1.362 . S
C352 H344 0.930 . S
C352 C351 1.362 . S
C352 C355 1.409 . S
C353 H345 0.930 . S
C353 C354 1.355 . S
C353 C355 1.415 . S
C354 C353 1.355 . S
C354 C356 1.419 . S
C355 C350 1.425 . S
C355 C352 1.409 . S
C355 C353 1.415 . S
C356 H346 0.930 . S
C356 C354 1.419 . S
C356 C357 1.362 . S
C357 H347 0.930 . S
C357 C350 1.409 . S
C357 C356 1.362 . S
H358 C364 0.930 . S
H359 C367 0.930 . S
H360 C368 0.930 . S
H361 C369 0.930 . S
H362 C372 0.930 . S
H363 C373 0.930 . S
C364 H358 0.930 . S
C364 C365 1.355 . S
C364 C366 1.415 . S
C365 C364 1.355 . S
C365 C367 1.419 . S
C366 C364 1.415 . S
C366 C371 1.425 . S
C366 C373 1.409 . S
C367 H359 0.930 . S
C367 C365 1.419 . S
C367 C368 1.362 . S
C368 H360 0.930 . S
C368 C367 1.362 . S
C368 C371 1.409 . S
C369 H361 0.930 . S
C369 C370 1.355 . S
C369 C371 1.415 . S
C370 C369 1.355 . S
C370 C372 1.419 . S
C371 C366 1.425 . S
C371 C368 1.409 . S
C371 C369 1.415 . S
C372 H362 0.930 . S
C372 C370 1.419 . S
C372 C373 1.362 . S
C373 H363 0.930 . S
C373 C366 1.409 . S
C373 C372 1.362 . S
H374 C380 0.930 . S
H375 C383 0.930 . S
H376 C384 0.930 . S
H377 C385 0.930 . S
H378 C388 0.930 . S
H379 C389 0.930 . S
C380 H374 0.930 . S
C380 C381 1.355 . S
C380 C382 1.415 . S
C381 C380 1.355 . S
C381 C383 1.419 . S
C382 C380 1.415 . S
C382 C387 1.425 . S
C382 C389 1.409 . S
C383 H375 0.930 . S
C383 C381 1.419 . S
C383 C384 1.362 . S
C384 H376 0.930 . S
C384 C383 1.362 . S
C384 C387 1.409 . S
C385 H377 0.930 . S
C385 C386 1.355 . S
C385 C387 1.415 . S
C386 C385 1.355 . S
C386 C388 1.419 . S
C387 C382 1.425 . S
C387 C384 1.409 . S
C387 C385 1.415 . S
C388 H378 0.930 . S
C388 C386 1.419 . S
C388 C389 1.362 . S
C389 H379 0.930 . S
C389 C382 1.409 . S
C389 C388 1.362 . S
H390 C396 0.930 . S
H391 C399 0.930 . S
H392 C400 0.930 . S
H393 C401 0.930 . S
H394 C404 0.930 . S
H395 C405 0.930 . S
C396 H390 0.930 . S
C396 C397 1.355 . S
C396 C398 1.415 . S
C397 C396 1.355 . S
C397 C399 1.419 . S
C398 C396 1.415 . S
C398 C403 1.425 . S
C398 C405 1.409 . S
C399 H391 0.930 . S
C399 C397 1.419 . S
C399 C400 1.362 . S
C400 H392 0.930 . S
C400 C399 1.362 . S
C400 C403 1.409 . S
C401 H393 0.930 . S
C401 C402 1.355 . S
C401 C403 1.415 . S
C402 C401 1.355 . S
C402 C404 1.419 . S
C403 C398 1.425 . S
C403 C400 1.409 . S
C403 C401 1.415 . S
C404 H394 0.930 . S
C404 C402 1.419 . S
C404 C405 1.362 . S
C405 H395 0.930 . S
C405 C398 1.409 . S
C405 C404 1.362 . S
H406 C412 0.930 . S
H407 C415 0.930 . S
H408 C416 0.930 . S
H409 C417 0.930 . S
H410 C420 0.930 . S
H411 C421 0.930 . S
C412 H406 0.930 . S
C412 C413 1.355 . S
C412 C414 1.415 . S
C413 C412 1.355 . S
C413 C415 1.419 . S
C414 C412 1.415 . S
C414 C419 1.425 . S
C414 C421 1.409 . S
C415 H407 0.930 . S
C415 C413 1.419 . S
C415 C416 1.362 . S
C416 H408 0.930 . S
C416 C415 1.362 . S
C416 C419 1.409 . S
C417 H409 0.930 . S
C417 C418 1.355 . S
C417 C419 1.415 . S
C418 C417 1.355 . S
C418 C420 1.419 . S
C419 C414 1.425 . S
C419 C416 1.409 . S
C419 C417 1.415 . S
C420 H410 0.930 . S
C420 C418 1.419 . S
C420 C421 1.362 . S
C421 H411 0.930 . S
C421 C414 1.409 . S
C421 C420 1.362 . S
H422 C428 0.930 . S
H423 C431 0.930 . S
H424 C432 0.930 . S
H425 C433 0.930 . S
H426 C436 0.930 . S
H427 C437 0.930 . S
C428 H422 0.930 . S
C428 C429 1.355 . S
C428 C430 1.415 . S
C429 C428 1.355 . S
C429 C431 1.419 . S
C430 C428 1.415 . S
C430 C435 1.425 . S
C430 C437 1.409 . S
C431 H423 0.930 . S
C431 C429 1.419 . S
C431 C432 1.362 . S
C432 H424 0.930 . S
C432 C431 1.362 . S
C432 C435 1.409 . S
C433 H425 0.930 . S
C433 C434 1.355 . S
C433 C435 1.415 . S
C434 C433 1.355 . S
C434 C436 1.419 . S
C435 C430 1.425 . S
C435 C432 1.409 . S
C435 C433 1.415 . S
C436 H426 0.930 . S
C436 C434 1.419 . S
C436 C437 1.362 . S
C437 H427 0.930 . S
C437 C430 1.409 . S
C437 C436 1.362 . S
H438 C444 0.930 . S
H439 C447 0.930 . S
H440 C448 0.930 . S
H441 C449 0.930 . S
H442 C452 0.930 . S
H443 C453 0.930 . S
C444 H438 0.930 . S
C444 C445 1.355 . S
C444 C446 1.415 . S
C445 C444 1.355 . S
C445 C447 1.419 . S
C446 C444 1.415 . S
C446 C451 1.425 . S
C446 C453 1.409 . S
C447 H439 0.930 . S
C447 C445 1.419 . S
C447 C448 1.362 . S
C448 H440 0.930 . S
C448 C447 1.362 . S
C448 C451 1.409 . S
C449 H441 0.930 . S
C449 C450 1.355 . S
C449 C451 1.415 . S
C450 C449 1.355 . S
C450 C452 1.419 . S
C451 C446 1.425 . S
C451 C448 1.409 . S
C451 C449 1.415 . S
C452 H442 0.930 . S
C452 C450 1.419 . S
C452 C453 1.362 . S
C453 H443 0.930 . S
C453 C446 1.409 . S
C453 C452 1.362 . S
H454 C460 0.930 . S
H455 C463 0.930 . S
H456 C464 0.930 . S
H457 C465 0.930 . S
H458 C468 0.930 . S
H459 C469 0.930 . S
C460 H454 0.930 . S
C460 C461 1.355 . S
C460 C462 1.415 . S
C461 C460 1.355 . S
C461 C463 1.419 . S
C462 C460 1.415 . S
C462 C467 1.425 . S
C462 C469 1.409 . S
C463 H455 0.930 . S
C463 C461 1.419 . S
C463 C464 1.362 . S
C464 H456 0.930 . S
C464 C463 1.362 . S
C464 C467 1.409 . S
C465 H457 0.930 . S
C465 C466 1.355 . S
C465 C467 1.415 . S
C466 C465 1.355 . S
C466 C468 1.419 . S
C467 C462 1.425 . S
C467 C464 1.409 . S
C467 C465 1.415 . S
C468 H458 0.930 . S
C468 C466 1.419 . S
C468 C469 1.362 . S
C469 H459 0.930 . S
C469 C462 1.409 . S
C469 C468 1.362 . S
H470 C476 0.930 . S
H471 C479 0.930 . S
H472 C480 0.930 . S
H473 C481 0.930 . S
H474 C484 0.930 . S
H475 C485 0.930 . S
C476 H470 0.930 . S
C476 C477 1.355 . S
C476 C478 1.415 . S
C477 C476 1.355 . S
C477 C479 1.419 . S
C478 C476 1.415 . S
C478 C483 1.425 . S
C478 C485 1.409 . S
C479 H471 0.930 . S
C479 C477 1.419 . S
C479 C480 1.362 . S
C480 H472 0.930 . S
C480 C479 1.362 . S
C480 C483 1.409 . S
C481 H473 0.930 . S
C481 C482 1.355 . S
C481 C483 1.415 . S
C482 C481 1.355 . S
C482 C484 1.419 . S
C483 C478 1.425 . S
C483 C480 1.409 . S
C483 C481 1.415 . S
C484 H474 0.930 . S
C484 C482 1.419 . S
C484 C485 1.362 . S
C485 H475 0.930 . S
C485 C478 1.409 . S
C485 C484 1.362 . S
H486 C492 0.930 1_655 S
H487 C495 0.930 . S
H488 C496 0.930 . S
H489 C497 0.930 . S
H490 C500 0.930 1_655 S
H491 C501 0.944 . S
C492 H486 0.930 1_455 S
C492 C493 1.355 . S
C492 C494 1.415 . S
C493 C492 1.355 . S
C493 C495 1.419 . S
C494 C492 1.415 . S
C494 C499 1.425 . S
C494 C501 1.398 1_455 S
C495 H487 0.930 . S
C495 C493 1.419 . S
C495 C496 1.362 . S
C496 H488 0.930 . S
C496 C495 1.362 . S
C496 C499 1.409 . S
C497 H489 0.930 . S
C497 C498 1.355 . S
C497 C499 1.415 . S
C498 C497 1.355 . S
C498 C500 1.419 . S
C499 C494 1.425 . S
C499 C496 1.409 . S
C499 C497 1.415 . S
C500 H490 0.930 1_455 S
C500 C498 1.419 . S
C500 C501 1.360 1_455 S
C501 H491 0.944 . S
C501 C494 1.398 1_655 S
C501 C500 1.360 1_655 S
H502 C508 0.930 . S
H503 C511 0.930 1_565 S
H504 C512 0.930 1_565 S
H505 C513 0.930 . S
H506 C516 0.930 . S
H507 C517 0.930 . S
C508 H502 0.930 . S
C508 C509 1.355 . S
C508 C510 1.415 . S
C509 C508 1.355 . S
C509 C511 1.419 . S
C510 C508 1.415 . S
C510 C515 1.425 . S
C510 C517 1.409 . S
C511 H503 0.930 1_545 S
C511 C509 1.419 . S
C511 C512 1.362 . S
C512 H504 0.930 1_545 S
C512 C511 1.362 . S
C512 C515 1.409 . S
C513 H505 0.930 . S
C513 C514 1.355 . S
C513 C515 1.415 . S
C514 C513 1.355 . S
C514 C516 1.419 . S
C515 C510 1.425 . S
C515 C512 1.409 . S
C515 C513 1.415 . S
C516 H506 0.930 . S
C516 C514 1.419 . S
C516 C517 1.362 . S
C517 H507 0.930 . S
C517 C510 1.409 . S
C517 C516 1.362 . S
H518 C524 0.930 . S
H519 C527 0.930 . S
H520 C528 0.930 . S
H521 C529 0.930 . S
H522 C532 0.930 . S
H523 C533 0.930 . S
C524 H518 0.930 . S
C524 C525 1.355 . S
C524 C526 1.415 . S
C525 C524 1.355 . S
C525 C527 1.419 . S
C526 C524 1.415 . S
C526 C531 1.425 . S
C526 C533 1.409 . S
C527 H519 0.930 . S
C527 C525 1.419 . S
C527 C528 1.362 . S
C528 H520 0.930 . S
C528 C527 1.362 . S
C528 C531 1.409 . S
C529 H521 0.930 . S
C529 C530 1.355 . S
C529 C531 1.415 . S
C530 C529 1.355 . S
C530 C532 1.419 . S
C531 C526 1.425 . S
C531 C528 1.409 . S
C531 C529 1.415 . S
C532 H522 0.930 . S
C532 C530 1.419 . S
C532 C533 1.362 . S
C533 H523 0.930 . S
C533 C526 1.409 . S
C533 C532 1.362 . S
H534 C540 0.930 . S
H535 C543 0.930 . S
H536 C544 0.930 . S
H537 C545 0.930 . S
H538 C548 0.930 . S
H539 C549 0.930 . S
C540 H534 0.930 . S
C540 C541 1.355 1_565 S
C540 C542 1.415 . S
C541 C540 1.355 1_545 S
C541 C543 1.419 . S
C542 C540 1.415 . S
C542 C547 1.425 1_565 S
C542 C549 1.409 . S
C543 H535 0.930 . S
C543 C541 1.419 . S
C543 C544 1.362 . S
C544 H536 0.930 . S
C544 C543 1.362 . S
C544 C547 1.409 . S
C545 H537 0.930 . S
C545 C546 1.355 . S
C545 C547 1.415 . S
C546 C545 1.355 . S
C546 C548 1.419 1_545 S
C547 C542 1.425 1_545 S
C547 C544 1.409 . S
C547 C545 1.415 . S
C548 H538 0.930 . S
C548 C546 1.419 1_565 S
C548 C549 1.362 . S
C549 H539 0.930 . S
C549 C542 1.409 . S
C549 C548 1.362 . S
H550 C556 0.930 . S
H551 C559 0.930 . S
H552 C560 0.930 . S
H553 C561 0.930 . S
H554 C564 0.960 . S
H555 C565 0.930 . S
C556 H550 0.930 . S
C556 C557 1.355 . S
C556 C558 1.415 . S
C557 C556 1.355 . S
C557 C559 1.419 . S
C558 C556 1.415 . S
C558 C563 1.425 . S
C558 C565 1.409 . S
C559 H551 0.930 . S
C559 C557 1.419 . S
C559 C560 1.362 . S
C560 H552 0.930 . S
C560 C559 1.362 . S
C560 C563 1.409 . S
C561 H553 0.930 . S
C561 C562 1.355 . S
C561 C563 1.415 . S
C562 C561 1.355 . S
C562 C564 1.419 . S
C563 C558 1.425 . S
C563 C560 1.409 . S
C563 C561 1.415 . S
C564 H554 0.960 . S
C564 C562 1.419 . S
C564 C565 1.362 . S
C565 H555 0.930 . S
C565 C558 1.409 . S
C565 C564 1.362 . S
H566 C572 0.930 . S
H567 C575 0.930 . S
H568 C576 0.930 . S
H569 C577 0.930 . S
H570 C580 0.930 . S
H571 C581 0.930 . S
C572 H566 0.930 . S
C572 C573 1.355 . S
C572 C574 1.415 . S
C573 C572 1.355 . S
C573 C575 1.419 . S
C574 C572 1.415 . S
C574 C579 1.425 . S
C574 C581 1.409 1_455 S
C575 H567 0.930 . S
C575 C573 1.419 . S
C575 C576 1.362 . S
C576 H568 0.930 . S
C576 C575 1.362 . S
C576 C579 1.409 . S
C577 H569 0.930 . S
C577 C578 1.355 1_455 S
C577 C579 1.415 . S
C578 C577 1.355 1_655 S
C578 C580 1.419 . S
C579 C574 1.425 . S
C579 C576 1.409 . S
C579 C577 1.415 . S
C580 H570 0.930 . S
C580 C578 1.419 . S
C580 C581 1.362 . S
C581 H571 0.930 . S
C581 C574 1.409 1_655 S
C581 C580 1.362 . S
C301 C8 2.025 . S
C306 C271 2.100 . S
C317 C26 1.354 . S
C322 C198 1.379 . S
C333 C48 1.509 . S
C338 C237 1.576 . S
C349 C19 1.852 . S
C354 C276 1.908 . S
C370 C193 1.532 . S
C365 C36 1.501 . S
C386 C232 1.748 . S
C381 C59 1.751 . S
C397 C28 1.536 . S
C402 C120 1.569 . S
C413 C46 1.304 . S
C418 C154 1.270 . S
C429 C16 1.630 . S
C434 C76 1.637 . S
C450 C115 1.723 . S
C445 C39 1.763 . S
C466 C159 1.100 . S
C461 C56 1.061 . S
C477 C6 1.429 . S
C482 C81 1.424 . S
C498 C139 1.439 1_554 S
C493 C9 1.430 . S
C509 C21 1.482 . S
C514 C61 1.520 . S
C525 C49 1.490 . S
C530 C100 1.480 . S
C546 C217 1.480 . S
C541 C29 1.448 . S
C562 C256 1.583 1_556 S
C557 C41 1.585 . S
C573 C1 1.481 . S
C578 C178 1.512 . S
