# Generated by pormake.
# Topology sit, (3,6)-cn, num edge types: 1
# Building blocks:
#     Node 0, Type 0, BuildingBlock: ESEHIV_clean_linker_0, # of connection points: 3
#     Node 1, Type 0, BuildingBlock: ESEHIV_clean_linker_0, # of connection points: 3
#     Node 2, Type 0, BuildingBlock: ESEHIV_clean_linker_0, # of connection points: 3
#     Node 3, Type 0, BuildingBlock: ESEHIV_clean_linker_0, # of connection points: 3
#     Node 4, Type 1, BuildingBlock: MIDCAF_clean_sbu_0, # of connection points: 6
#     Node 5, Type 1, BuildingBlock: MIDCAF_clean_sbu_0, # of connection points: 6
#     Edge 6, Type (0, 1), BuildingBlock: ZUJKAS_clean_linker_0, # of connection points: 2
#     Edge 7, Type (0, 1), BuildingBlock: ZUJKAS_clean_linker_0, # of connection points: 2
#     Edge 8, Type (0, 1), BuildingBlock: ZUJKAS_clean_linker_0, # of connection points: 2
#     Edge 9, Type (0, 1), BuildingBlock: ZUJKAS_clean_linker_0, # of connection points: 2
#     Edge 10, Type (0, 1), BuildingBlock: ZUJKAS_clean_linker_0, # of connection points: 2
#     Edge 11, Type (0, 1), BuildingBlock: ZUJKAS_clean_linker_0, # of connection points: 2
#     Edge 12, Type (0, 1), BuildingBlock: ZUJKAS_clean_linker_0, # of connection points: 2
#     Edge 13, Type (0, 1), BuildingBlock: ZUJKAS_clean_linker_0, # of connection points: 2
#     Edge 14, Type (0, 1), BuildingBlock: ZUJKAS_clean_linker_0, # of connection points: 2
#     Edge 15, Type (0, 1), BuildingBlock: ZUJKAS_clean_linker_0, # of connection points: 2
#     Edge 16, Type (0, 1), BuildingBlock: ZUJKAS_clean_linker_0, # of connection points: 2
#     Edge 17, Type (0, 1), BuildingBlock: ZUJKAS_clean_linker_0, # of connection points: 2
# Relax obj value: 0.110
# Max RMSD: 0.193
# Mean RMSD: 0.106
data_MOF--net-sit--node1-MIDCAF_clean_sbu_0--node2-ESEHIV_clean_linker_0--edge1-ZUJKAS_clean_linker_0
_symmetry_space_group_name_H-M    P1
_symmetry_Int_Tables_number       1
_symmetry_cell_setting            triclinic
loop_
_symmetry_equiv_pos_as_xyz
'x, y, z'
_cell_length_a     28.827314
_cell_length_b     39.30906
_cell_length_c     43.565162
_cell_angle_alpha  90.195133
_cell_angle_beta   89.370024
_cell_angle_gamma 84.152406
loop_
_atom_site_label
_atom_site_type_symbol
_atom_site_fract_x
_atom_site_fract_y
_atom_site_fract_z
_atom_type_partial_charge
H0 H 0.07472 0.3844 0.01775 0.0
H1 H 0.14249 0.29252 0.05695 0.0
H2 H -0.007 0.31428 0.06376 0.0
C3 C 0.07287 0.36097 0.03058 0.0
C4 C 0.02927 0.35187 0.04008 0.0
C5 C 0.11387 0.33989 0.03666 0.0
C6 C 0.11095 0.30915 0.05256 0.0
C7 C 0.06749 0.2996 0.0625 0.0
C8 C 0.02672 0.32131 0.05632 0.0
H9 H 0.03634 0.63524 0.01803 0.0
H10 H 0.96808 0.72927 0.05423 0.0
H11 H 0.1181 0.70936 0.05688 0.0
C12 C 0.03807 0.65958 0.02951 0.0
C13 C 0.08162 0.66949 0.03752 0.0
C14 C -0.00295 0.68106 0.0352 0.0
C15 C -0.0001 0.71294 0.04933 0.0
C16 C 0.04338 0.72356 0.0575 0.0
C17 C 0.08417 0.70138 0.05164 0.0
H18 H 0.5925 0.88258 0.53099 0.0
H19 H 0.65754 0.78797 0.56638 0.0
H20 H 0.50785 0.80428 0.55942 0.0
C21 C 0.58951 0.85759 0.54083 0.0
C22 C 0.5453 0.84625 0.54492 0.0
C23 C 0.63002 0.83647 0.54804 0.0
C24 C 0.62612 0.80393 0.56032 0.0
C25 C 0.58212 0.79212 0.56502 0.0
C26 C 0.54185 0.81356 0.55718 0.0
H27 H 0.53321 0.1329 0.52749 0.0
H28 H 0.46033 0.22453 0.56496 0.0
H29 H 0.61084 0.21231 0.56114 0.0
C30 C 0.53395 0.15728 0.5391 0.0
C31 C 0.57686 0.16974 0.54454 0.0
C32 C 0.49193 0.17701 0.54603 0.0
C33 C 0.49293 0.20953 0.55929 0.0
C34 C 0.53576 0.22251 0.56529 0.0
C35 C 0.5776 0.20239 0.55758 0.0
Zn36 Zn 0.0388 0.0713 0.34427 0.0
Zn37 Zn 0.08738 0.93797 0.34239 0.0
Zn38 Zn 0.06297 0.00486 0.34299 0.0
C39 C 0.08059 0.95775 0.28145 0.0
C40 C 0.00396 0.94845 0.37543 0.0
O41 O 0.11903 0.0303 0.36514 0.0
O42 O 0.09603 0.08569 0.3625 0.0
C43 C 0.03969 0.05126 0.28291 0.0
O44 O 0.06741 0.98687 0.29418 0.0
O45 O 0.09262 0.93196 0.29775 0.0
O46 O 0.03151 0.92425 0.36456 0.0
O47 O 0.01051 0.97978 0.3697 0.0
O48 O 0.02796 0.07678 0.29993 0.0
O49 O 0.05526 0.02229 0.2946 0.0
O50 O -0.00367 0.01517 0.36885 0.0
O51 O 0.98453 0.07169 0.37172 0.0
C52 C 0.97227 0.04271 0.37832 0.0
O53 O 0.12936 0.99479 0.36809 0.0
O54 O 0.14569 0.93854 0.36559 0.0
C55 C 0.12586 0.06169 0.3704 0.0
C56 C 0.15566 0.96736 0.37474 0.0
Zn57 Zn 0.52048 0.57435 0.84671 0.0
Zn58 Zn 0.59717 0.44213 0.84558 0.0
Zn59 Zn 0.55862 0.50828 0.84434 0.0
C60 C 0.58222 0.46198 0.78377 0.0
C61 C 0.50915 0.44616 0.87486 0.0
O62 O 0.6079 0.53864 0.8672 0.0
O63 O 0.57296 0.59147 0.87004 0.0
C64 C 0.53566 0.55489 0.78452 0.0
O65 O 0.56531 0.49049 0.79611 0.0
O66 O 0.59931 0.4376 0.80031 0.0
O67 O 0.54414 0.42494 0.86908 0.0
O68 O 0.5091 0.47775 0.86711 0.0
O69 O 0.51881 0.57925 0.80156 0.0
O70 O 0.55238 0.52628 0.79632 0.0
O71 O 0.49249 0.51256 0.87086 0.0
O72 O 0.46258 0.56673 0.86915 0.0
C73 C 0.4603 0.53647 0.87812 0.0
O74 O 0.62421 0.50374 0.87052 0.0
O75 O 0.65461 0.4497 0.86783 0.0
C76 C 0.60779 0.57018 0.87536 0.0
C77 C 0.65638 0.47987 0.87733 0.0
H78 H 0.00528 0.25213 0.05422 0.0
H79 H -0.00108 0.19968 0.08371 0.0
H80 H 0.11745 0.22057 0.13748 0.0
H81 H 0.12371 0.27318 0.10853 0.0
H82 H 0.07774 0.13957 0.099 0.0
H83 H -0.00402 0.21716 0.19618 0.0
H84 H -0.00428 0.23283 0.15725 0.0
H85 H 0.04802 0.23123 0.17938 0.0
C86 C 0.03 0.24552 0.07232 0.0
C87 C 0.06478 0.26695 0.07922 0.0
C88 C 0.02663 0.2154 0.08886 0.0
C89 C 0.05782 0.20633 0.11261 0.0
C90 C 0.09325 0.22714 0.11906 0.0
H91 H 0.11183 0.04471 0.24188 0.0
H92 H 0.1133 0.07639 0.19353 0.0
C93 C 0.09677 0.25714 0.1025 0.0
C94 C 0.05091 0.17696 0.13265 0.0
H95 H 0.01518 0.1584 0.20488 0.0
C96 C 0.06375 0.14349 0.12209 0.0
C97 C 0.03225 0.18231 0.16256 0.0
C98 C 0.01683 0.21776 0.17462 0.0
C99 C 0.0594 0.11511 0.14119 0.0
C100 C 0.042 0.12061 0.17147 0.0
C101 C 0.0283 0.15414 0.1816 0.0
C102 C 0.0392 0.09267 0.19402 0.0
C103 C 0.07329 0.0796 0.1289 0.0
C104 C -0.00318 0.08982 0.2095 0.0
C105 C -0.00382 0.07224 0.23721 0.0
C106 C 0.03776 0.0568 0.24963 0.0
C107 C 0.07927 0.05603 0.23241 0.0
C108 C 0.08008 0.07415 0.20479 0.0
H109 H 0.07349 0.07905 0.1034 0.0
H110 H 0.10901 0.07082 0.13672 0.0
H111 H 0.04934 0.06131 0.13757 0.0
H112 H 0.96491 0.10388 0.20162 0.0
H113 H 0.96387 0.07334 0.25031 0.0
H114 H 0.99016 0.78412 0.04518 0.0
H115 H -0.00764 0.83943 0.07083 0.0
H116 H 0.10595 0.79665 0.12673 0.0
H117 H 0.10279 0.74095 0.10242 0.0
H118 H 0.98388 0.84741 0.13955 0.0
H119 H 0.14594 0.89 0.08978 0.0
H120 H 0.11199 0.8603 0.07046 0.0
H121 H 0.15026 0.84581 0.10105 0.0
C122 C 0.01544 0.78631 0.06308 0.0
C123 C 0.04616 0.75783 0.0718 0.0
C124 C 0.01694 0.81809 0.07743 0.0
C125 C 0.04974 0.82216 0.10029 0.0
C126 C 0.08097 0.79412 0.10867 0.0
H127 H 0.14176 0.91621 0.24806 0.0
H128 H 0.13023 0.89417 0.19688 0.0
C129 C 0.07914 0.76227 0.09467 0.0
C130 C 0.0492 0.85464 0.11758 0.0
H131 H 0.12003 0.91504 0.13812 0.0
C132 C 0.01291 0.86292 0.13881 0.0
C133 C 0.08701 0.87476 0.11623 0.0
C134 C 0.12591 0.86755 0.09297 0.0
C135 C 0.0157 0.88872 0.1609 0.0
C136 C 0.05541 0.90727 0.1611 0.0
C137 C 0.08961 0.90092 0.13797 0.0
C138 C 0.06689 0.92723 0.18851 0.0
C139 C 0.97821 0.8936 0.18546 0.0
C140 C 0.03669 0.95472 0.20024 0.0
C141 C 0.04311 0.96728 0.22995 0.0
C142 C 0.08003 0.95262 0.24792 0.0
C143 C 0.11272 0.92771 0.23479 0.0
C144 C 0.10624 0.91518 0.20543 0.0
H145 H 0.95311 0.874 0.18413 0.0
H146 H -0.00604 0.89239 0.20863 0.0
H147 H 0.95838 0.9191 0.18284 0.0
H148 H 0.00667 0.96498 0.18728 0.0
H149 H 0.01726 0.98634 0.23962 0.0
H150 H 0.63928 0.73279 0.55385 0.0
H151 H 0.63588 0.67702 0.57815 0.0
H152 H 0.5125 0.71657 0.62859 0.0
H153 H 0.51652 0.77265 0.60553 0.0
H154 H 0.63755 0.66849 0.64457 0.0
H155 H 0.48101 0.62257 0.59241 0.0
H156 H 0.51384 0.65402 0.57433 0.0
H157 H 0.47277 0.6665 0.60467 0.0
C158 C 0.61145 0.72972 0.57018 0.0
C159 C 0.57832 0.75741 0.57786 0.0
C160 C 0.60932 0.6977 0.58374 0.0
C161 C 0.57355 0.6926 0.60474 0.0
C162 C 0.5398 0.71982 0.61187 0.0
H163 H 0.47578 0.59693 0.75142 0.0
H164 H 0.48958 0.6199 0.70082 0.0
C165 C 0.54217 0.7519 0.59864 0.0
C166 C 0.5738 0.6602 0.62192 0.0
H167 H 0.50335 0.59904 0.64175 0.0
C168 C 0.60898 0.65259 0.64351 0.0
C169 C 0.53662 0.63955 0.62018 0.0
C170 C 0.49909 0.64581 0.59644 0.0
C171 C 0.60553 0.62699 0.66556 0.0
C172 C 0.56633 0.60793 0.66536 0.0
C173 C 0.53335 0.6136 0.64192 0.0
C174 C 0.55409 0.58777 0.69248 0.0
C175 C 0.64166 0.62283 0.69048 0.0
C176 C 0.58442 0.56063 0.70402 0.0
C177 C 0.57681 0.54764 0.7334 0.0
C178 C 0.53845 0.5614 0.75125 0.0
C179 C 0.50592 0.58611 0.7383 0.0
C180 C 0.51365 0.59915 0.70925 0.0
H181 H 0.66609 0.64293 0.68954 0.0
H182 H 0.62461 0.6238 0.71349 0.0
H183 H 0.66245 0.59763 0.68787 0.0
H184 H 0.6153 0.5509 0.69113 0.0
H185 H 0.60251 0.52866 0.74288 0.0
H186 H 0.47673 0.28098 0.55506 0.0
H187 H 0.47798 0.33703 0.57969 0.0
H188 H 0.59946 0.29883 0.63065 0.0
H189 H 0.59745 0.24254 0.60742 0.0
H190 H 0.47629 0.34664 0.64795 0.0
H191 H 0.63063 0.39233 0.59055 0.0
H192 H 0.59675 0.36105 0.57347 0.0
H193 H 0.63872 0.34842 0.60255 0.0
C194 C 0.50356 0.28438 0.57166 0.0
C195 C 0.53701 0.25708 0.57923 0.0
C196 C 0.50447 0.31655 0.58542 0.0
C197 C 0.5393 0.32213 0.6065 0.0
C198 C 0.57292 0.29518 0.61387 0.0
H199 H 0.64139 0.42002 0.74891 0.0
H200 H 0.62582 0.39656 0.69882 0.0
C201 C 0.57172 0.26299 0.60049 0.0
C202 C 0.53888 0.355 0.62312 0.0
H203 H 0.60945 0.41684 0.64007 0.0
C204 C 0.50455 0.36274 0.64579 0.0
C205 C 0.57571 0.37585 0.61996 0.0
C206 C 0.61239 0.36926 0.59512 0.0
C207 C 0.50865 0.38871 0.6675 0.0
C208 C 0.54763 0.40796 0.66584 0.0
C209 C 0.57961 0.40215 0.64135 0.0
C210 C 0.5609 0.42847 0.69242 0.0
C211 C 0.47359 0.39306 0.69359 0.0
C212 C 0.53096 0.4557 0.70478 0.0
C213 C 0.53963 0.46899 0.73384 0.0
C214 C 0.57865 0.45545 0.75055 0.0
C215 C 0.6108 0.4307 0.73667 0.0
C216 C 0.60202 0.41736 0.70793 0.0
H217 H 0.44922 0.37291 0.69356 0.0
H218 H 0.49161 0.39236 0.71601 0.0
H219 H 0.45263 0.41821 0.69157 0.0
H220 H 0.49956 0.46522 0.69286 0.0
H221 H 0.51419 0.48798 0.74407 0.0
H222 H 0.14591 0.40289 0.03846 0.0
H223 H 0.21462 0.42086 0.01216 0.0
H224 H 0.25334 0.31699 0.98239 0.0
H225 H 0.18362 0.29901 0.00766 0.0
H226 H 0.30894 0.40171 0.01693 0.0
H227 H 0.24409 0.37023 0.90182 0.0
H228 H 0.2077 0.37176 0.93587 0.0
H229 H 0.24839 0.3349 0.928 0.0
C230 C 0.16911 0.38386 0.02634 0.0
C231 C 0.15904 0.34962 0.02474 0.0
C232 C 0.20843 0.39414 0.01148 0.0
C233 C 0.2384 0.37038 0.99481 0.0
C234 C 0.22999 0.33583 0.99461 0.0
H235 H 0.51088 0.39863 0.92008 0.0
H236 H 0.44449 0.38136 0.94967 0.0
C237 C 0.19051 0.32552 0.00938 0.0
C238 C 0.27753 0.38208 0.97682 0.0
H239 H 0.32116 0.38623 0.90394 0.0
C240 C 0.31168 0.39834 0.99224 0.0
C241 C 0.28028 0.3784 0.94451 0.0
C242 C 0.24295 0.36319 0.92648 0.0
C243 C 0.34926 0.41024 0.97625 0.0
C244 C 0.35308 0.40515 0.94414 0.0
C245 C 0.31835 0.38968 0.92863 0.0
C246 C 0.39304 0.4155 0.92618 0.0
C247 C 0.38413 0.42862 0.99376 0.0
C248 C 0.38577 0.43953 0.90254 0.0
C249 C 0.42353 0.44905 0.88538 0.0
C250 C 0.46904 0.43487 0.89179 0.0
C251 C 0.4761 0.41012 0.91488 0.0
C252 C 0.43836 0.40053 0.93197 0.0
H253 H 0.36939 0.43895 0.01597 0.0
H254 H 0.4151 0.41042 -0.00126 0.0
H255 H 0.39588 0.45001 0.98012 0.0
H256 H 0.35095 0.45109 0.89754 0.0
H257 H 0.41716 0.46745 0.86709 0.0
H258 H 0.96495 0.61811 0.03973 0.0
H259 H 0.89736 0.59857 0.01414 0.0
H260 H 0.85886 0.70084 0.98131 0.0
H261 H 0.92753 0.72031 0.00574 0.0
H262 H 0.80285 0.61675 0.01765 0.0
H263 H 0.87298 0.64439 0.90232 0.0
H264 H 0.90751 0.64469 0.93659 0.0
H265 H 0.8668 0.6809 0.92744 0.0
C266 C 0.94201 0.63647 0.02712 0.0
C267 C 0.95197 0.67064 0.02432 0.0
C268 C 0.90331 0.62529 0.01267 0.0
C269 C 0.87385 0.64809 0.99525 0.0
C270 C 0.88189 0.68269 0.99408 0.0
H271 H 0.6048 0.61744 0.92113 0.0
H272 H 0.67027 0.63465 0.95077 0.0
C273 C 0.92076 0.69387 0.00839 0.0
C274 C 0.83587 0.63532 0.97734 0.0
H275 H 0.79552 0.62885 0.90442 0.0
C276 C 0.80121 0.61934 0.9929 0.0
C277 C 0.83461 0.63791 0.94496 0.0
C278 C 0.8727 0.65257 0.92676 0.0
C279 C 0.76443 0.60682 0.97699 0.0
C280 C 0.76189 0.61104 0.9448 0.0
C281 C 0.79728 0.62608 0.92916 0.0
C282 C 0.72244 0.60052 0.92692 0.0
C283 C 0.72902 0.58876 0.9947 0.0
C284 C 0.7304 0.57657 0.903 0.0
C285 C 0.69315 0.56715 0.88576 0.0
C286 C 0.64745 0.58131 0.89238 0.0
C287 C 0.63972 0.60595 0.91577 0.0
C288 C 0.67695 0.61548 0.93291 0.0
H289 H 0.74327 0.57859 0.01681 0.0
H290 H 0.69811 0.60715 -9e-05 0.0
H291 H 0.71734 0.56731 0.98116 0.0
H292 H 0.76537 0.56504 0.89781 0.0
H293 H 0.70006 0.54882 0.86724 0.0
H294 H 0.9557 0.3768 0.07703 0.0
H295 H 0.88724 0.41553 0.0621 0.0
H296 H 0.93916 0.41474 0.96879 0.0
H297 H 0.00736 0.37682 0.98361 0.0
H298 H 0.9065 0.48015 0.98931 0.0
H299 H 0.7784 0.386 0.01337 0.0
H300 H 0.81438 0.39727 0.04448 0.0
H301 H 0.84035 0.37351 0.0123 0.0
C302 C 0.95214 0.38484 0.05334 0.0
C303 C 0.98669 0.37389 0.03145 0.0
C304 C 0.91321 0.40698 0.04487 0.0
C305 C 0.90812 0.41797 0.01431 0.0
C306 C 0.94262 0.40689 0.99255 0.0
H307 H 0.74932 0.46472 0.86949 0.0
H308 H 0.80847 0.46315 0.90947 0.0
C309 C 0.98147 0.38513 0.001 0.0
C310 C 0.86623 0.43966 0.00393 0.0
H311 H 0.75259 0.43449 0.98527 0.0
C312 C 0.87249 0.47062 0.9891 0.0
C313 C 0.82175 0.42741 0.00396 0.0
C314 C 0.81303 0.39417 0.0192 0.0
C315 C 0.83652 0.48803 0.97208 0.0
C316 C 0.7936 0.47399 0.96983 0.0
C317 C 0.78578 0.44505 0.98712 0.0
C318 C 0.76059 0.48392 0.94503 0.0
C319 C 0.84542 0.52009 0.95503 0.0
C320 C 0.71451 0.49707 0.95169 0.0
C321 C 0.68093 0.49867 0.92865 0.0
C322 C 0.69301 0.48619 0.89907 0.0
C323 C 0.73952 0.47467 0.89212 0.0
C324 C 0.77321 0.47395 0.91487 0.0
H325 H 0.87324 0.53325 0.96609 0.0
H326 H 0.8569 0.5132 0.93121 0.0
H327 H 0.81317 0.53806 0.95383 0.0
H328 H 0.70408 0.50431 0.97496 0.0
H329 H 0.645 0.50731 0.93445 0.0
H330 H 0.15472 0.647 0.07448 0.0
H331 H 0.22341 0.60743 0.06038 0.0
H332 H 0.17256 0.60232 0.96784 0.0
H333 H 0.10396 0.6409 0.98195 0.0
H334 H 0.20577 0.53874 0.98973 0.0
H335 H 0.33256 0.63447 0.01 0.0
H336 H 0.29663 0.62438 0.04197 0.0
H337 H 0.27055 0.64652 0.00947 0.0
C338 C 0.15856 0.63744 0.05114 0.0
C339 C 0.12423 0.64695 0.02926 0.0
C340 C 0.19762 0.61485 0.04313 0.0
C341 C 0.20316 0.60202 0.01302 0.0
C342 C 0.1688 0.6116 0.99128 0.0
H343 H 0.36771 0.55058 0.86959 0.0
H344 H 0.30679 0.55285 0.90931 0.0
C345 C 0.12975 0.63377 -0.00069 0.0
C346 C 0.24543 0.57999 0.00301 0.0
H347 H 0.35971 0.58438 0.98396 0.0
C348 C 0.23975 0.54832 0.98913 0.0
C349 C 0.28988 0.59231 0.00253 0.0
C350 C 0.29804 0.62633 0.01659 0.0
C351 C 0.27633 0.53018 0.97254 0.0
C352 C 0.31932 0.54412 0.96984 0.0
C353 C 0.32646 0.57389 0.98621 0.0
C354 C 0.3532 0.53317 0.94527 0.0
C355 C 0.26809 0.49738 0.9564 0.0
C356 C 0.39902 0.52027 0.95222 0.0
C357 C 0.43362 0.51823 0.92932 0.0
C358 C 0.42279 0.53006 0.89962 0.0
C359 C 0.37653 0.54114 0.89234 0.0
C360 C 0.34183 0.54227 0.91495 0.0
H361 H 0.23967 0.48479 0.96772 0.0
H362 H 0.2578 0.50318 0.93235 0.0
H363 H 0.30032 0.47931 0.95582 0.0
H364 H 0.40847 0.51371 0.97562 0.0
H365 H 0.46934 0.50992 0.93536 0.0
H366 H 0.70088 0.80021 0.51675 0.0
H367 H 0.77098 0.82162 0.49557 0.0
H368 H 0.73323 0.91926 0.53945 0.0
H369 H 0.66233 0.89806 0.56022 0.0
H370 H 0.74844 0.92652 0.48008 0.0
H371 H 0.89559 0.84197 0.52657 0.0
H372 H 0.85328 0.81758 0.5095 0.0
H373 H 0.83744 0.84382 0.54273 0.0
C374 C 0.70827 0.8259 0.52264 0.0
C375 C 0.6762 0.84753 0.54005 0.0
C376 C 0.74847 0.83808 0.51062 0.0
C377 C 0.75771 0.87193 0.51623 0.0
C378 C 0.72687 0.89303 0.53493 0.0
H379 H 0.97256 0.98244 0.42743 0.0
H380 H 0.91228 0.96677 0.46343 0.0
C381 C 0.68641 0.88095 0.54672 0.0
C382 C 0.7959 0.88645 0.49928 0.0
H383 H 0.91112 0.87146 0.4794 0.0
C384 C 0.78417 0.91482 0.48037 0.0
C385 C 0.84256 0.87126 0.49972 0.0
C386 C 0.85804 0.8422 0.52099 0.0
C387 C 0.8173 0.92734 0.4608 0.0
C388 C 0.86328 0.91116 0.4602 0.0
C389 C 0.87558 0.88358 0.47981 0.0
C390 C 0.89845 0.9215 0.43821 0.0
C391 C 0.80279 0.95729 0.44037 0.0
C392 C 0.9103 0.90122 0.41221 0.0
C393 C 0.94389 0.9105 0.39138 0.0
C394 C 0.96604 0.94024 0.39622 0.0
C395 C 0.95444 0.9603 0.42246 0.0
C396 C 0.92057 0.95114 0.44321 0.0
H397 H 0.76438 0.96381 0.44026 0.0
H398 H 0.81905 0.97978 0.4489 0.0
H399 H 0.8153 0.95203 0.41646 0.0
H400 H 0.89359 0.87818 0.40811 0.0
H401 H 0.95273 0.89433 0.37154 0.0
H402 H 0.46356 0.11346 0.55431 0.0
H403 H 0.40076 0.08904 0.52707 0.0
H404 H 0.35859 0.18754 0.48735 0.0
H405 H 0.42189 0.21197 0.514 0.0
H406 H 0.3019 0.1058 0.52321 0.0
H407 H 0.39531 0.1229 0.41315 0.0
H408 H 0.4225 0.12608 0.45005 0.0
H409 H 0.38446 0.16135 0.43562 0.0
C410 C 0.44029 0.13002 0.54021 0.0
C411 C 0.44782 0.1645 0.53595 0.0
C412 C 0.40454 0.11605 0.52471 0.0
C413 C 0.37596 0.13636 0.50471 0.0
C414 C 0.381 0.17139 0.50231 0.0
H415 H 0.12391 0.11032 0.41418 0.0
H416 H 0.18727 0.12374 0.4473 0.0
C417 C 0.41673 0.1854 0.51782 0.0
C418 C 0.34294 0.12055 0.48483 0.0
H419 H 0.31776 0.10746 0.40964 0.0
C420 C 0.30543 0.10594 0.49839 0.0
C421 C 0.34862 0.11982 0.45253 0.0
C422 C 0.39015 0.13305 0.43691 0.0
C423 C 0.27182 0.09231 0.48031 0.0
C424 C 0.27573 0.09383 0.44795 0.0
C425 C 0.31465 0.10669 0.43446 0.0
C426 C 0.23789 0.08498 0.42779 0.0
C427 C 0.23227 0.07663 0.49601 0.0
C428 C 0.24598 0.05965 0.40499 0.0
C429 C 0.20978 0.05219 0.38571 0.0
C430 C 0.16533 0.07005 0.38907 0.0
C431 C 0.15788 0.09605 0.41126 0.0
C432 C 0.19382 0.10345 0.43044 0.0
H433 H 0.24246 0.06691 0.51914 0.0
H434 H 0.20225 0.09645 0.49896 0.0
H435 H 0.22072 0.05528 0.48225 0.0
H436 H 0.28006 0.04554 0.40229 0.0
H437 H 0.21646 0.03256 0.36827 0.0
H438 H 0.46021 0.85876 0.57395 0.0
H439 H 0.38957 0.89097 0.55396 0.0
H440 H 0.46486 0.91373 0.47171 0.0
H441 H 0.53515 0.88177 0.49135 0.0
H442 H 0.40296 0.96984 0.49407 0.0
H443 H 0.31893 0.84867 0.48437 0.0
H444 H 0.33832 0.8596 0.52186 0.0
H445 H 0.38032 0.8489 0.49171 0.0
C446 C 0.46165 0.87078 0.55167 0.0
C447 C 0.50317 0.86759 0.53417 0.0
C448 C 0.42141 0.88927 0.54037 0.0
C449 C 0.422 0.90451 0.51128 0.0
C450 C 0.46378 0.90238 0.49431 0.0
H451 H 0.24129 0.9347 0.36489 0.0
H452 H 0.3048 0.92636 0.4017 0.0
C453 C 0.50393 0.88407 0.50559 0.0
C454 C 0.37858 0.91989 0.49689 0.0
H455 H 0.27949 0.89786 0.46335 0.0
C456 C 0.37543 0.95435 0.48784 0.0
C457 C 0.34298 0.89947 0.48863 0.0
C458 C 0.34516 0.86205 0.49689 0.0
C459 C 0.3384 0.96851 0.46966 0.0
C460 C 0.30415 0.94757 0.46034 0.0
C461 C 0.30605 0.91372 0.47065 0.0
C462 C 0.26923 0.95843 0.43688 0.0
C463 C 0.33731 0.00502 0.45901 0.0
C464 C 0.22883 0.98002 0.44431 0.0
C465 C 0.19255 0.98501 0.42313 0.0
C466 C 0.19646 0.96831 0.39451 0.0
C467 C 0.23776 0.94801 0.38675 0.0
C468 C 0.27393 0.94326 0.4077 0.0
H469 H 0.36565 0.01841 0.46917 0.0
H470 H 0.3407 0.00556 0.43361 0.0
H471 H 0.30328 0.01919 0.46531 0.0
H472 H 0.22444 0.99153 0.46691 0.0
H473 H 0.16061 1.00036 0.4297 0.0
H474 H 0.64914 0.1927 0.5124 0.0
H475 H 0.71405 0.15811 0.48728 0.0
H476 H 0.66608 0.06657 0.52524 0.0
H477 H 0.60166 0.10115 0.55124 0.0
H478 H 0.76378 0.06724 0.52614 0.0
H479 H 0.69141 0.0991 0.41146 0.0
H480 H 0.6979 0.1365 0.43413 0.0
H481 H 0.65786 0.1069 0.44648 0.0
C482 C 0.65303 0.16532 0.51604 0.0
C483 C 0.62014 0.14959 0.53357 0.0
C484 C 0.68972 0.14556 0.50134 0.0
C485 C 0.69395 0.10978 0.5038 0.0
C486 C 0.66292 0.09413 0.52277 0.0
H487 H 0.89345 0.01111 0.36892 0.0
H488 H 0.82212 0.0176 0.40093 0.0
C489 C 0.62621 0.11388 0.53752 0.0
C490 C 0.73014 0.08893 0.48577 0.0
H491 H 0.77234 0.07722 0.41274 0.0
C492 C 0.76537 0.0689 0.50131 0.0
C493 C 0.73119 0.09017 0.45335 0.0
C494 C 0.69227 0.10902 0.43534 0.0
C495 C 0.80383 0.05242 0.48532 0.0
C496 C 0.80726 0.05669 0.45315 0.0
C497 C 0.77001 0.07427 0.43744 0.0
C498 C 0.85148 0.04793 0.43603 0.0
C499 C 0.84102 0.03157 0.50323 0.0
C500 C 0.89123 0.06302 0.44503 0.0
C501 C 0.93114 0.05993 0.4266 0.0
C502 C 0.93218 0.04145 0.39901 0.0
C503 C 0.89326 0.02518 0.39036 0.0
C504 C 0.85279 0.0288 0.40862 0.0
H505 H 0.82555 0.01915 0.52322 0.0
H506 H 0.86047 0.01154 0.48878 0.0
H507 H 0.86603 0.04872 0.51223 0.0
H508 H 0.89063 0.07879 0.46549 0.0
H509 H 0.96084 0.07288 0.43346 0.0
loop_
_geom_bond_atom_site_label_1
_geom_bond_atom_site_label_2
_geom_bond_distance
_geom_bond_site_symmetry_2
_ccdc_geom_bond_type
H0 C3 0.960 . S
H1 C6 0.928 . S
H2 C8 0.930 . S
C3 H0 0.960 . S
C3 C4 1.400 1_556 S
C3 C5 1.344 1_556 S
C4 C3 1.400 1_554 S
C4 C8 1.429 . S
C5 C3 1.344 1_554 S
C5 C6 1.372 . S
C6 H1 0.928 . S
C6 C5 1.372 . S
C6 C7 1.404 . S
C7 C6 1.404 . S
C7 C8 1.391 . S
C8 H2 0.930 . S
C8 C4 1.429 . S
C8 C7 1.391 . S
H9 C12 0.931 1_556 S
H10 C15 0.928 . S
H11 C17 0.930 . S
C12 H9 0.931 1_554 S
C12 C13 1.413 . S
C12 C14 1.360 1_455 S
C13 C12 1.413 . S
C13 C17 1.429 . S
C14 C12 1.360 1_655 S
C14 C15 1.372 . S
C15 H10 0.928 . S
C15 C14 1.372 . S
C15 C16 1.404 1_655 S
C16 C15 1.404 1_455 S
C16 C17 1.391 . S
C17 H11 0.930 . S
C17 C13 1.429 . S
C17 C16 1.391 . S
H18 C21 0.931 . S
H19 C24 0.928 . S
H20 C26 0.930 . S
C21 H18 0.931 . S
C21 C22 1.413 . S
C21 C23 1.360 . S
C22 C21 1.413 . S
C22 C26 1.429 . S
C23 C21 1.360 . S
C23 C24 1.372 . S
C24 H19 0.928 . S
C24 C23 1.372 . S
C24 C25 1.404 . S
C25 C24 1.404 . S
C25 C26 1.391 . S
C26 H20 0.930 . S
C26 C22 1.429 . S
C26 C25 1.391 . S
H27 C30 0.931 . S
H28 C33 0.928 . S
H29 C35 0.930 . S
C30 H27 0.931 . S
C30 C31 1.413 . S
C30 C32 1.360 . S
C31 C30 1.413 . S
C31 C35 1.429 . S
C32 C30 1.360 . S
C32 C33 1.372 . S
C33 H28 0.928 . S
C33 C32 1.372 . S
C33 C34 1.404 . S
C34 C33 1.404 . S
C34 C35 1.391 . S
C35 H29 0.930 . S
C35 C31 1.429 . S
C35 C34 1.391 . S
Zn36 O42 1.920 . S
Zn36 O48 1.898 . S
Zn36 O51 1.905 1_455 S
Zn37 O45 1.905 . S
Zn37 O46 1.898 . S
Zn37 O54 1.920 . S
Zn38 O41 2.080 . S
Zn38 O44 2.114 1_545 S
Zn38 O47 2.120 1_545 S
Zn38 O49 2.120 . S
Zn38 O50 2.114 . S
Zn38 O53 2.080 1_545 S
C39 O44 1.166 . S
C39 O45 1.182 . S
C40 O46 1.167 . S
C40 O47 1.299 . S
O41 Zn38 2.080 . S
O41 C55 1.305 . S
O42 Zn36 1.920 . S
O42 C55 1.234 . S
C43 O48 1.167 . S
C43 O49 1.299 . S
O44 Zn38 2.114 1_565 S
O44 C39 1.166 . S
O45 Zn37 1.905 . S
O45 C39 1.182 . S
O46 Zn37 1.898 . S
O46 C40 1.167 . S
O47 Zn38 2.120 1_565 S
O47 C40 1.299 . S
O48 Zn36 1.898 . S
O48 C43 1.167 . S
O49 Zn38 2.120 . S
O49 C43 1.299 . S
O50 Zn38 2.114 . S
O50 C52 1.166 1_455 S
O51 Zn36 1.905 1_655 S
O51 C52 1.182 . S
C52 O50 1.166 1_655 S
C52 O51 1.182 . S
O53 Zn38 2.080 1_565 S
O53 C56 1.305 . S
O54 Zn37 1.920 . S
O54 C56 1.234 . S
C55 O41 1.305 . S
C55 O42 1.234 . S
C56 O53 1.305 . S
C56 O54 1.234 . S
Zn57 O63 1.920 . S
Zn57 O69 1.898 . S
Zn57 O72 1.905 . S
Zn58 O66 1.905 . S
Zn58 O67 1.898 . S
Zn58 O75 1.920 . S
Zn59 O62 2.080 . S
Zn59 O65 2.114 . S
Zn59 O68 2.120 . S
Zn59 O70 2.120 . S
Zn59 O71 2.114 . S
Zn59 O74 2.080 . S
C60 O65 1.166 . S
C60 O66 1.182 . S
C61 O67 1.167 . S
C61 O68 1.299 . S
O62 Zn59 2.080 . S
O62 C76 1.305 . S
O63 Zn57 1.920 . S
O63 C76 1.234 . S
C64 O69 1.167 . S
C64 O70 1.299 . S
O65 Zn59 2.114 . S
O65 C60 1.166 . S
O66 Zn58 1.905 . S
O66 C60 1.182 . S
O67 Zn58 1.898 . S
O67 C61 1.167 . S
O68 Zn59 2.120 . S
O68 C61 1.299 . S
O69 Zn57 1.898 . S
O69 C64 1.167 . S
O70 Zn59 2.120 . S
O70 C64 1.299 . S
O71 Zn59 2.114 . S
O71 C73 1.166 . S
O72 Zn57 1.905 . S
O72 C73 1.182 . S
C73 O71 1.166 . S
C73 O72 1.182 . S
O74 Zn59 2.080 . S
O74 C77 1.305 . S
O75 Zn58 1.920 . S
O75 C77 1.234 . S
C76 O62 1.305 . S
C76 O63 1.234 . S
C77 O74 1.305 . S
C77 O75 1.234 . S
H78 C86 0.929 . S
H79 C88 0.930 . S
H80 C90 0.930 . S
H81 C93 0.929 . S
H82 C96 0.930 . S
H83 C98 0.960 . S
H84 C98 0.960 . S
H85 C98 0.960 . S
C86 H78 0.929 . S
C86 C87 1.377 . S
C86 C88 1.384 . S
C87 C86 1.377 . S
C87 C93 1.390 . S
C88 H79 0.930 . S
C88 C86 1.384 . S
C88 C89 1.372 . S
C89 C88 1.372 . S
C89 C90 1.400 . S
C89 C94 1.490 . S
C90 H80 0.930 . S
C90 C89 1.400 . S
C90 C93 1.386 . S
H91 C107 0.930 . S
H92 C108 0.931 . S
C93 H81 0.929 . S
C93 C87 1.390 . S
C93 C90 1.386 . S
C94 C89 1.490 . S
C94 C96 1.395 . S
C94 C97 1.403 . S
H95 C101 0.930 . S
C96 H82 0.930 . S
C96 C94 1.395 . S
C96 C99 1.403 . S
C97 C94 1.403 . S
C97 C98 1.524 . S
C97 C101 1.400 . S
C98 H83 0.960 . S
C98 H84 0.960 . S
C98 H85 0.960 . S
C98 C97 1.524 . S
C99 C96 1.403 . S
C99 C100 1.392 . S
C99 C103 1.495 . S
C100 C99 1.392 . S
C100 C101 1.385 . S
C100 C102 1.478 . S
C101 H95 0.930 . S
C101 C97 1.400 . S
C101 C100 1.385 . S
C102 C100 1.478 . S
C102 C104 1.381 . S
C102 C108 1.383 . S
C103 C99 1.495 . S
C103 H109 0.959 . S
C103 H110 0.961 . S
C103 H111 0.960 . S
C104 C102 1.381 . S
C104 C105 1.394 . S
C104 H112 0.930 . S
C105 C104 1.394 . S
C105 C106 1.383 . S
C105 H113 0.929 . S
C106 C105 1.383 . S
C106 C107 1.377 . S
C107 H91 0.930 . S
C107 C106 1.377 . S
C107 C108 1.379 . S
C108 H92 0.931 . S
C108 C102 1.383 . S
C108 C107 1.379 . S
H109 C103 0.959 . S
H110 C103 0.961 . S
H111 C103 0.960 . S
H112 C104 0.930 . S
H113 C105 0.929 . S
H114 C122 0.929 . S
H115 C124 0.930 . S
H116 C126 0.930 . S
H117 C129 0.929 . S
H118 C132 0.930 . S
H119 C134 0.960 . S
H120 C134 0.960 . S
H121 C134 0.960 . S
C122 H114 0.929 . S
C122 C123 1.377 1_655 S
C122 C124 1.384 . S
C123 C122 1.377 1_455 S
C123 C129 1.390 . S
C124 H115 0.930 . S
C124 C122 1.384 . S
C124 C125 1.372 1_655 S
C125 C124 1.372 1_455 S
C125 C126 1.400 . S
C125 C130 1.490 . S
C126 H116 0.930 . S
C126 C125 1.400 . S
C126 C129 1.386 . S
H127 C143 0.930 . S
H128 C144 0.931 . S
C129 H117 0.929 . S
C129 C123 1.390 . S
C129 C126 1.386 . S
C130 C125 1.490 . S
C130 C132 1.395 1_455 S
C130 C133 1.403 . S
H131 C137 0.930 . S
C132 H118 0.930 . S
C132 C130 1.395 1_655 S
C132 C135 1.403 . S
C133 C130 1.403 . S
C133 C134 1.524 . S
C133 C137 1.400 . S
C134 H119 0.960 . S
C134 H120 0.960 . S
C134 H121 0.960 . S
C134 C133 1.524 . S
C135 C132 1.403 . S
C135 C136 1.392 1_655 S
C135 C139 1.495 . S
C136 C135 1.392 1_455 S
C136 C137 1.385 . S
C136 C138 1.478 . S
C137 H131 0.930 . S
C137 C133 1.400 . S
C137 C136 1.385 . S
C138 C136 1.478 . S
C138 C140 1.381 1_455 S
C138 C144 1.383 . S
C139 C135 1.495 . S
C139 H145 0.959 . S
C139 H146 0.944 1_655 S
C139 H147 0.960 . S
C140 C138 1.381 1_655 S
C140 C141 1.394 . S
C140 H148 0.930 . S
C141 C140 1.394 . S
C141 C142 1.383 1_655 S
C141 H149 0.929 . S
C142 C141 1.383 1_455 S
C142 C143 1.377 . S
C143 H127 0.930 . S
C143 C142 1.377 . S
C143 C144 1.379 . S
C144 H128 0.931 . S
C144 C138 1.383 . S
C144 C143 1.379 . S
H145 C139 0.959 . S
H146 C139 0.944 1_455 S
H147 C139 0.960 . S
H148 C140 0.930 . S
H149 C141 0.929 . S
H150 C158 0.929 . S
H151 C160 0.930 . S
H152 C162 0.930 . S
H153 C165 0.929 . S
H154 C168 0.930 . S
H155 C170 0.960 . S
H156 C170 0.960 . S
H157 C170 0.960 . S
C158 H150 0.929 . S
C158 C159 1.377 . S
C158 C160 1.384 . S
C159 C158 1.377 . S
C159 C165 1.390 . S
C160 H151 0.930 . S
C160 C158 1.384 . S
C160 C161 1.372 . S
C161 C160 1.372 . S
C161 C162 1.400 . S
C161 C166 1.490 . S
C162 H152 0.930 . S
C162 C161 1.400 . S
C162 C165 1.386 . S
H163 C179 0.930 . S
H164 C180 0.931 . S
C165 H153 0.929 . S
C165 C159 1.390 . S
C165 C162 1.386 . S
C166 C161 1.490 . S
C166 C168 1.395 . S
C166 C169 1.403 . S
H167 C173 0.930 . S
C168 H154 0.930 . S
C168 C166 1.395 . S
C168 C171 1.403 . S
C169 C166 1.403 . S
C169 C170 1.524 . S
C169 C173 1.400 . S
C170 H155 0.960 . S
C170 H156 0.960 . S
C170 H157 0.960 . S
C170 C169 1.524 . S
C171 C168 1.403 . S
C171 C172 1.392 . S
C171 C175 1.495 . S
C172 C171 1.392 . S
C172 C173 1.385 . S
C172 C174 1.478 . S
C173 H167 0.930 . S
C173 C169 1.400 . S
C173 C172 1.385 . S
C174 C172 1.478 . S
C174 C176 1.381 . S
C174 C180 1.383 . S
C175 C171 1.495 . S
C175 H181 0.959 . S
C175 H182 0.961 . S
C175 H183 0.960 . S
C176 C174 1.381 . S
C176 C177 1.394 . S
C176 H184 0.930 . S
C177 C176 1.394 . S
C177 C178 1.383 . S
C177 H185 0.929 . S
C178 C177 1.383 . S
C178 C179 1.377 . S
C179 H163 0.930 . S
C179 C178 1.377 . S
C179 C180 1.379 . S
C180 H164 0.931 . S
C180 C174 1.383 . S
C180 C179 1.379 . S
H181 C175 0.959 . S
H182 C175 0.961 . S
H183 C175 0.960 . S
H184 C176 0.930 . S
H185 C177 0.929 . S
H186 C194 0.929 . S
H187 C196 0.930 . S
H188 C198 0.930 . S
H189 C201 0.929 . S
H190 C204 0.930 . S
H191 C206 0.960 . S
H192 C206 0.960 . S
H193 C206 0.960 . S
C194 H186 0.929 . S
C194 C195 1.377 . S
C194 C196 1.384 . S
C195 C194 1.377 . S
C195 C201 1.390 . S
C196 H187 0.930 . S
C196 C194 1.384 . S
C196 C197 1.372 . S
C197 C196 1.372 . S
C197 C198 1.400 . S
C197 C202 1.490 . S
C198 H188 0.930 . S
C198 C197 1.400 . S
C198 C201 1.386 . S
H199 C215 0.930 . S
H200 C216 0.931 . S
C201 H189 0.929 . S
C201 C195 1.390 . S
C201 C198 1.386 . S
C202 C197 1.490 . S
C202 C204 1.395 . S
C202 C205 1.403 . S
H203 C209 0.930 . S
C204 H190 0.930 . S
C204 C202 1.395 . S
C204 C207 1.403 . S
C205 C202 1.403 . S
C205 C206 1.524 . S
C205 C209 1.400 . S
C206 H191 0.960 . S
C206 H192 0.960 . S
C206 H193 0.960 . S
C206 C205 1.524 . S
C207 C204 1.403 . S
C207 C208 1.392 . S
C207 C211 1.495 . S
C208 C207 1.392 . S
C208 C209 1.385 . S
C208 C210 1.478 . S
C209 H203 0.930 . S
C209 C205 1.400 . S
C209 C208 1.385 . S
C210 C208 1.478 . S
C210 C212 1.381 . S
C210 C216 1.383 . S
C211 C207 1.495 . S
C211 H217 0.959 . S
C211 H218 0.961 . S
C211 H219 0.960 . S
C212 C210 1.381 . S
C212 C213 1.394 . S
C212 H220 0.930 . S
C213 C212 1.394 . S
C213 C214 1.383 . S
C213 H221 0.929 . S
C214 C213 1.383 . S
C214 C215 1.377 . S
C215 H199 0.930 . S
C215 C214 1.377 . S
C215 C216 1.379 . S
C216 H200 0.931 . S
C216 C210 1.383 . S
C216 C215 1.379 . S
H217 C211 0.959 . S
H218 C211 0.961 . S
H219 C211 0.960 . S
H220 C212 0.930 . S
H221 C213 0.929 . S
H222 C230 0.929 . S
H223 C232 0.930 . S
H224 C234 0.930 . S
H225 C237 0.929 . S
H226 C240 0.930 . S
H227 C242 0.960 . S
H228 C242 0.960 . S
H229 C242 0.960 . S
C230 H222 0.929 . S
C230 C231 1.377 1_556 S
C230 C232 1.384 . S
C231 C230 1.377 1_554 S
C231 C237 1.390 . S
C232 H223 0.930 . S
C232 C230 1.384 . S
C232 C233 1.372 . S
C233 C232 1.372 . S
C233 C234 1.400 1_556 S
C233 C238 1.490 . S
C234 H224 0.930 . S
C234 C233 1.400 1_554 S
C234 C237 1.386 . S
H235 C251 0.930 . S
H236 C252 0.931 . S
C237 H225 0.929 . S
C237 C231 1.390 . S
C237 C234 1.386 . S
C238 C233 1.490 . S
C238 C240 1.395 . S
C238 C241 1.403 . S
H239 C245 0.930 . S
C240 H226 0.930 . S
C240 C238 1.395 . S
C240 C243 1.403 . S
C241 C238 1.403 . S
C241 C242 1.524 . S
C241 C245 1.400 . S
C242 H227 0.960 . S
C242 H228 0.960 . S
C242 H229 0.960 . S
C242 C241 1.524 . S
C243 C240 1.403 . S
C243 C244 1.392 . S
C243 C247 1.495 . S
C244 C243 1.392 . S
C244 C245 1.385 . S
C244 C246 1.478 . S
C245 H239 0.930 . S
C245 C241 1.400 . S
C245 C244 1.385 . S
C246 C244 1.478 . S
C246 C248 1.381 . S
C246 C252 1.383 . S
C247 C243 1.495 . S
C247 H253 0.959 . S
C247 H254 0.963 . S
C247 H255 0.960 . S
C248 C246 1.381 . S
C248 C249 1.394 . S
C248 H256 0.930 . S
C249 C248 1.394 . S
C249 C250 1.383 . S
C249 H257 0.929 . S
C250 C249 1.383 . S
C250 C251 1.377 . S
C251 H235 0.930 . S
C251 C250 1.377 . S
C251 C252 1.379 . S
C252 H236 0.931 . S
C252 C246 1.383 . S
C252 C251 1.379 . S
H253 C247 0.959 . S
H254 C247 0.963 . S
H255 C247 0.960 . S
H256 C248 0.930 . S
H257 C249 0.929 . S
H258 C266 0.929 . S
H259 C268 0.930 . S
H260 C270 0.930 . S
H261 C273 0.932 . S
H262 C276 0.930 1_554 S
H263 C278 0.960 . S
H264 C278 0.960 . S
H265 C278 0.960 . S
C266 H258 0.929 . S
C266 C267 1.377 . S
C266 C268 1.384 1_554 S
C267 C266 1.377 . S
C267 C273 1.390 1_554 S
C268 H259 0.930 . S
C268 C266 1.384 1_556 S
C268 C269 1.372 . S
C269 C268 1.372 . S
C269 C270 1.400 . S
C269 C274 1.490 . S
C270 H260 0.930 . S
C270 C269 1.400 . S
C270 C273 1.386 . S
H271 C287 0.930 . S
H272 C288 0.931 . S
C273 H261 0.932 . S
C273 C267 1.390 1_556 S
C273 C270 1.386 . S
C274 C269 1.490 . S
C274 C276 1.395 . S
C274 C277 1.403 . S
H275 C281 0.930 . S
C276 H262 0.930 1_556 S
C276 C274 1.395 . S
C276 C279 1.403 . S
C277 C274 1.403 . S
C277 C278 1.524 . S
C277 C281 1.400 . S
C278 H263 0.960 . S
C278 H264 0.960 . S
C278 H265 0.960 . S
C278 C277 1.524 . S
C279 C276 1.403 . S
C279 C280 1.392 . S
C279 C283 1.495 1_556 S
C280 C279 1.392 . S
C280 C281 1.385 . S
C280 C282 1.478 . S
C281 H275 0.930 . S
C281 C277 1.400 . S
C281 C280 1.385 . S
C282 C280 1.478 . S
C282 C284 1.381 . S
C282 C288 1.383 . S
C283 C279 1.495 1_554 S
C283 H289 0.959 . S
C283 H290 0.961 . S
C283 H291 0.960 . S
C284 C282 1.381 . S
C284 C285 1.394 . S
C284 H292 0.930 . S
C285 C284 1.394 . S
C285 C286 1.383 . S
C285 H293 0.929 . S
C286 C285 1.383 . S
C286 C287 1.377 . S
C287 H271 0.930 . S
C287 C286 1.377 . S
C287 C288 1.379 . S
C288 H272 0.931 . S
C288 C282 1.383 . S
C288 C287 1.379 . S
H289 C283 0.959 . S
H290 C283 0.961 . S
H291 C283 0.960 . S
H292 C284 0.930 . S
H293 C285 0.929 . S
H294 C302 0.929 . S
H295 C304 0.930 . S
H296 C306 0.930 . S
H297 C309 0.929 . S
H298 C312 0.930 . S
H299 C314 0.960 . S
H300 C314 0.960 . S
H301 C314 0.960 . S
C302 H294 0.929 . S
C302 C303 1.377 1_554 S
C302 C304 1.384 1_455 S
C303 C302 1.377 1_556 S
C303 C309 1.390 . S
C304 H295 0.930 . S
C304 C302 1.384 1_655 S
C304 C305 1.372 1_554 S
C305 C304 1.372 1_556 S
C305 C306 1.400 . S
C305 C310 1.490 . S
C306 H296 0.930 . S
C306 C305 1.400 . S
C306 C309 1.386 1_655 S
H307 C323 0.930 . S
H308 C324 0.931 . S
C309 H297 0.929 . S
C309 C303 1.390 . S
C309 C306 1.386 1_455 S
C310 C305 1.490 . S
C310 C312 1.395 . S
C310 C313 1.403 . S
H311 C317 0.930 . S
C312 H298 0.930 . S
C312 C310 1.395 . S
C312 C315 1.403 . S
C313 C310 1.403 . S
C313 C314 1.524 . S
C313 C317 1.400 . S
C314 H299 0.960 . S
C314 H300 0.960 . S
C314 H301 0.960 . S
C314 C313 1.524 . S
C315 C312 1.403 . S
C315 C316 1.392 . S
C315 C319 1.495 . S
C316 C315 1.392 . S
C316 C317 1.385 . S
C316 C318 1.478 . S
C317 H311 0.930 . S
C317 C313 1.400 . S
C317 C316 1.385 . S
C318 C316 1.478 . S
C318 C320 1.381 . S
C318 C324 1.383 . S
C319 C315 1.495 . S
C319 H325 0.959 . S
C319 H326 0.961 . S
C319 H327 0.960 . S
C320 C318 1.381 . S
C320 C321 1.394 . S
C320 H328 0.930 . S
C321 C320 1.394 . S
C321 C322 1.383 . S
C321 H329 0.929 . S
C322 C321 1.383 . S
C322 C323 1.377 . S
C323 H307 0.930 . S
C323 C322 1.377 . S
C323 C324 1.379 . S
C324 H308 0.931 . S
C324 C318 1.383 . S
C324 C323 1.379 . S
H325 C319 0.959 . S
H326 C319 0.961 . S
H327 C319 0.960 . S
H328 C320 0.930 . S
H329 C321 0.929 . S
H330 C338 0.929 . S
H331 C340 0.930 . S
H332 C342 0.930 . S
H333 C345 0.929 . S
H334 C348 0.930 . S
H335 C350 0.960 . S
H336 C350 0.960 . S
H337 C350 0.960 . S
C338 H330 0.929 . S
C338 C339 1.377 1_554 S
C338 C340 1.384 . S
C339 C338 1.377 1_556 S
C339 C345 1.390 . S
C340 H331 0.930 . S
C340 C338 1.384 . S
C340 C341 1.372 1_554 S
C341 C340 1.372 1_556 S
C341 C342 1.400 . S
C341 C346 1.490 . S
C342 H332 0.930 . S
C342 C341 1.400 . S
C342 C345 1.386 . S
H343 C359 0.930 . S
H344 C360 0.931 . S
C345 H333 0.929 . S
C345 C339 1.390 . S
C345 C342 1.386 . S
C346 C341 1.490 . S
C346 C348 1.395 . S
C346 C349 1.403 . S
H347 C353 0.930 . S
C348 H334 0.930 . S
C348 C346 1.395 . S
C348 C351 1.403 . S
C349 C346 1.403 . S
C349 C350 1.524 . S
C349 C353 1.400 . S
C350 H335 0.960 . S
C350 H336 0.960 . S
C350 H337 0.960 . S
C350 C349 1.524 . S
C351 C348 1.403 . S
C351 C352 1.392 . S
C351 C355 1.495 . S
C352 C351 1.392 . S
C352 C353 1.385 . S
C352 C354 1.478 . S
C353 H347 0.930 . S
C353 C349 1.400 . S
C353 C352 1.385 . S
C354 C352 1.478 . S
C354 C356 1.381 . S
C354 C360 1.383 . S
C355 C351 1.495 . S
C355 H361 0.959 . S
C355 H362 0.961 . S
C355 H363 0.960 . S
C356 C354 1.381 . S
C356 C357 1.394 . S
C356 H364 0.930 . S
C357 C356 1.394 . S
C357 C358 1.383 . S
C357 H365 0.929 . S
C358 C357 1.383 . S
C358 C359 1.377 . S
C359 H343 0.930 . S
C359 C358 1.377 . S
C359 C360 1.379 . S
C360 H344 0.931 . S
C360 C354 1.383 . S
C360 C359 1.379 . S
H361 C355 0.959 . S
H362 C355 0.961 . S
H363 C355 0.960 . S
H364 C356 0.930 . S
H365 C357 0.929 . S
H366 C374 0.929 . S
H367 C376 0.930 . S
H368 C378 0.930 . S
H369 C381 0.929 . S
H370 C384 0.930 . S
H371 C386 0.960 . S
H372 C386 0.960 . S
H373 C386 0.960 . S
C374 H366 0.929 . S
C374 C375 1.377 . S
C374 C376 1.384 . S
C375 C374 1.377 . S
C375 C381 1.390 . S
C376 H367 0.930 . S
C376 C374 1.384 . S
C376 C377 1.372 . S
C377 C376 1.372 . S
C377 C378 1.400 . S
C377 C382 1.490 . S
C378 H368 0.930 . S
C378 C377 1.400 . S
C378 C381 1.386 . S
H379 C395 0.930 . S
H380 C396 0.931 . S
C381 H369 0.929 . S
C381 C375 1.390 . S
C381 C378 1.386 . S
C382 C377 1.490 . S
C382 C384 1.395 . S
C382 C385 1.403 . S
H383 C389 0.930 . S
C384 H370 0.930 . S
C384 C382 1.395 . S
C384 C387 1.403 . S
C385 C382 1.403 . S
C385 C386 1.524 . S
C385 C389 1.400 . S
C386 H371 0.960 . S
C386 H372 0.960 . S
C386 H373 0.960 . S
C386 C385 1.524 . S
C387 C384 1.403 . S
C387 C388 1.392 . S
C387 C391 1.495 . S
C388 C387 1.392 . S
C388 C389 1.385 . S
C388 C390 1.478 . S
C389 H383 0.930 . S
C389 C385 1.400 . S
C389 C388 1.385 . S
C390 C388 1.478 . S
C390 C392 1.381 . S
C390 C396 1.383 . S
C391 C387 1.495 . S
C391 H397 0.959 . S
C391 H398 0.961 . S
C391 H399 0.960 . S
C392 C390 1.381 . S
C392 C393 1.394 . S
C392 H400 0.930 . S
C393 C392 1.394 . S
C393 C394 1.383 . S
C393 H401 0.929 1_655 S
C394 C393 1.383 . S
C394 C395 1.377 . S
C395 H379 0.930 . S
C395 C394 1.377 . S
C395 C396 1.379 . S
C396 H380 0.931 . S
C396 C390 1.383 . S
C396 C395 1.379 . S
H397 C391 0.959 . S
H398 C391 0.961 . S
H399 C391 0.960 . S
H400 C392 0.930 . S
H401 C393 0.929 1_455 S
H402 C410 0.929 . S
H403 C412 0.930 . S
H404 C414 0.930 . S
H405 C417 0.929 . S
H406 C420 0.930 . S
H407 C422 0.960 . S
H408 C422 0.960 . S
H409 C422 0.960 . S
C410 H402 0.929 . S
C410 C411 1.377 . S
C410 C412 1.384 . S
C411 C410 1.377 . S
C411 C417 1.390 . S
C412 H403 0.930 . S
C412 C410 1.384 . S
C412 C413 1.372 . S
C413 C412 1.372 . S
C413 C414 1.400 . S
C413 C418 1.490 . S
C414 H404 0.930 . S
C414 C413 1.400 . S
C414 C417 1.386 . S
H415 C431 0.930 . S
H416 C432 0.931 . S
C417 H405 0.929 . S
C417 C411 1.390 . S
C417 C414 1.386 . S
C418 C413 1.490 . S
C418 C420 1.395 . S
C418 C421 1.403 . S
H419 C425 0.930 . S
C420 H406 0.930 . S
C420 C418 1.395 . S
C420 C423 1.403 . S
C421 C418 1.403 . S
C421 C422 1.524 . S
C421 C425 1.400 . S
C422 H407 0.960 . S
C422 H408 0.960 . S
C422 H409 0.960 . S
C422 C421 1.524 . S
C423 C420 1.403 . S
C423 C424 1.392 . S
C423 C427 1.495 . S
C424 C423 1.392 . S
C424 C425 1.385 . S
C424 C426 1.478 . S
C425 H419 0.930 . S
C425 C421 1.400 . S
C425 C424 1.385 . S
C426 C424 1.478 . S
C426 C428 1.381 . S
C426 C432 1.383 . S
C427 C423 1.495 . S
C427 H433 0.959 . S
C427 H434 0.961 . S
C427 H435 0.960 . S
C428 C426 1.381 . S
C428 C429 1.394 . S
C428 H436 0.930 . S
C429 C428 1.394 . S
C429 C430 1.383 . S
C429 H437 0.929 . S
C430 C429 1.383 . S
C430 C431 1.377 . S
C431 H415 0.930 . S
C431 C430 1.377 . S
C431 C432 1.379 . S
C432 H416 0.931 . S
C432 C426 1.383 . S
C432 C431 1.379 . S
H433 C427 0.959 . S
H434 C427 0.961 . S
H435 C427 0.960 . S
H436 C428 0.930 . S
H437 C429 0.929 . S
H438 C446 0.929 . S
H439 C448 0.930 . S
H440 C450 0.930 . S
H441 C453 0.929 . S
H442 C456 0.930 . S
H443 C458 0.960 . S
H444 C458 0.960 . S
H445 C458 0.960 . S
C446 H438 0.929 . S
C446 C447 1.377 . S
C446 C448 1.384 . S
C447 C446 1.377 . S
C447 C453 1.390 . S
C448 H439 0.930 . S
C448 C446 1.384 . S
C448 C449 1.372 . S
C449 C448 1.372 . S
C449 C450 1.400 . S
C449 C454 1.490 . S
C450 H440 0.930 . S
C450 C449 1.400 . S
C450 C453 1.386 . S
H451 C467 0.930 . S
H452 C468 0.931 . S
C453 H441 0.929 . S
C453 C447 1.390 . S
C453 C450 1.386 . S
C454 C449 1.490 . S
C454 C456 1.395 . S
C454 C457 1.403 . S
H455 C461 0.930 . S
C456 H442 0.930 . S
C456 C454 1.395 . S
C456 C459 1.403 . S
C457 C454 1.403 . S
C457 C458 1.524 . S
C457 C461 1.400 . S
C458 H443 0.960 . S
C458 H444 0.960 . S
C458 H445 0.960 . S
C458 C457 1.524 . S
C459 C456 1.403 . S
C459 C460 1.392 . S
C459 C463 1.495 . S
C460 C459 1.392 . S
C460 C461 1.385 . S
C460 C462 1.478 . S
C461 H455 0.930 . S
C461 C457 1.400 . S
C461 C460 1.385 . S
C462 C460 1.478 . S
C462 C464 1.381 . S
C462 C468 1.383 . S
C463 C459 1.495 . S
C463 H469 0.959 . S
C463 H470 0.961 . S
C463 H471 0.960 . S
C464 C462 1.381 . S
C464 C465 1.394 . S
C464 H472 0.930 . S
C465 C464 1.394 . S
C465 C466 1.383 . S
C465 H473 0.929 . S
C466 C465 1.383 . S
C466 C467 1.377 . S
C467 H451 0.930 . S
C467 C466 1.377 . S
C467 C468 1.379 . S
C468 H452 0.931 . S
C468 C462 1.383 . S
C468 C467 1.379 . S
H469 C463 0.959 . S
H470 C463 0.961 . S
H471 C463 0.960 . S
H472 C464 0.930 . S
H473 C465 0.929 . S
H474 C482 0.929 . S
H475 C484 0.930 . S
H476 C486 0.930 . S
H477 C489 0.929 . S
H478 C492 0.930 . S
H479 C494 0.960 . S
H480 C494 0.960 . S
H481 C494 0.960 . S
C482 H474 0.929 . S
C482 C483 1.377 . S
C482 C484 1.384 . S
C483 C482 1.377 . S
C483 C489 1.390 . S
C484 H475 0.930 . S
C484 C482 1.384 . S
C484 C485 1.372 . S
C485 C484 1.372 . S
C485 C486 1.400 . S
C485 C490 1.490 . S
C486 H476 0.930 . S
C486 C485 1.400 . S
C486 C489 1.386 . S
H487 C503 0.930 . S
H488 C504 0.931 . S
C489 H477 0.929 . S
C489 C483 1.390 . S
C489 C486 1.386 . S
C490 C485 1.490 . S
C490 C492 1.395 . S
C490 C493 1.403 . S
H491 C497 0.930 . S
C492 H478 0.930 . S
C492 C490 1.395 . S
C492 C495 1.403 . S
C493 C490 1.403 . S
C493 C494 1.524 . S
C493 C497 1.400 . S
C494 H479 0.960 . S
C494 H480 0.960 . S
C494 H481 0.960 . S
C494 C493 1.524 . S
C495 C492 1.403 . S
C495 C496 1.392 . S
C495 C499 1.495 . S
C496 C495 1.392 . S
C496 C497 1.385 . S
C496 C498 1.478 . S
C497 H491 0.930 . S
C497 C493 1.400 . S
C497 C496 1.385 . S
C498 C496 1.478 . S
C498 C500 1.381 . S
C498 C504 1.383 . S
C499 C495 1.495 . S
C499 H505 0.959 . S
C499 H506 0.961 . S
C499 H507 0.960 . S
C500 C498 1.381 . S
C500 C501 1.394 . S
C500 H508 0.930 . S
C501 C500 1.394 . S
C501 C502 1.383 . S
C501 H509 0.929 . S
C502 C501 1.383 . S
C502 C503 1.377 . S
C503 H487 0.930 . S
C503 C502 1.377 . S
C503 C504 1.379 . S
C504 H488 0.931 . S
C504 C498 1.383 . S
C504 C503 1.379 . S
H505 C499 0.959 . S
H506 C499 0.961 . S
H507 C499 0.960 . S
H508 C500 0.930 . S
H509 C501 0.929 . S
C106 C43 1.386 . S
C87 C7 1.479 . S
C142 C39 1.329 . S
C123 C16 1.479 . S
C178 C64 1.375 . S
C159 C25 1.480 . S
C195 C34 1.479 . S
C214 C60 1.343 . S
C231 C5 1.115 . S
C250 C61 1.072 . S
C286 C76 1.084 . S
C267 C14 1.136 . S
C303 C4 1.673 1_556 S
C322 C77 1.581 . S
C358 C73 1.598 . S
C339 C13 1.686 1_556 S
C394 C40 0.973 1_655 S
C375 C23 1.118 . S
C411 C32 1.135 . S
C430 C55 1.061 . S
C466 C56 1.581 . S
C447 C22 1.673 . S
C502 C52 1.554 . S
C483 C31 1.687 . S
