# Generated by pormake.
# Topology pth, (4,4)-cn, num edge types: 1
# Building blocks:
#     Node 0, Type 0, BuildingBlock: NAHDIM_clean_sbu_0, # of connection points: 4
#     Node 1, Type 0, BuildingBlock: NAHDIM_clean_sbu_0, # of connection points: 4
#     Node 2, Type 0, BuildingBlock: NAHDIM_clean_sbu_0, # of connection points: 4
#     Node 3, Type 1, BuildingBlock: MIFKUJ_clean_linker_1, # of connection points: 4
#     Node 4, Type 1, BuildingBlock: MIFKUJ_clean_linker_1, # of connection points: 4
#     Node 5, Type 1, BuildingBlock: MIFKUJ_clean_linker_1, # of connection points: 4
#     Edge 6, Type (0, 1), BuildingBlock: XUDNAN_clean_linker_2, # of connection points: 2
#     Edge 7, Type (0, 1), BuildingBlock: XUDNAN_clean_linker_2, # of connection points: 2
#     Edge 8, Type (0, 1), BuildingBlock: XUDNAN_clean_linker_2, # of connection points: 2
#     Edge 9, Type (0, 1), BuildingBlock: XUDNAN_clean_linker_2, # of connection points: 2
#     Edge 10, Type (0, 1), BuildingBlock: XUDNAN_clean_linker_2, # of connection points: 2
#     Edge 11, Type (0, 1), BuildingBlock: XUDNAN_clean_linker_2, # of connection points: 2
#     Edge 12, Type (0, 1), BuildingBlock: XUDNAN_clean_linker_2, # of connection points: 2
#     Edge 13, Type (0, 1), BuildingBlock: XUDNAN_clean_linker_2, # of connection points: 2
#     Edge 14, Type (0, 1), BuildingBlock: XUDNAN_clean_linker_2, # of connection points: 2
#     Edge 15, Type (0, 1), BuildingBlock: XUDNAN_clean_linker_2, # of connection points: 2
#     Edge 16, Type (0, 1), BuildingBlock: XUDNAN_clean_linker_2, # of connection points: 2
#     Edge 17, Type (0, 1), BuildingBlock: XUDNAN_clean_linker_2, # of connection points: 2
# Relax obj value: 0.043
# Max RMSD: 0.165
# Mean RMSD: 0.094
data_MOF--net-pth--node1-NAHDIM_clean_sbu_0--node2-MIFKUJ_clean_linker_1--edge1-XUDNAN_clean_linker_2
_symmetry_space_group_name_H-M    P1
_symmetry_Int_Tables_number       1
_symmetry_cell_setting            triclinic
loop_
_symmetry_equiv_pos_as_xyz
'x, y, z'
_cell_length_a     29.513892
_cell_length_b     29.649852
_cell_length_c     62.575528
_cell_angle_alpha  91.870233
_cell_angle_beta   89.904461
_cell_angle_gamma 120.46875
loop_
_atom_site_label
_atom_site_type_symbol
_atom_site_fract_x
_atom_site_fract_y
_atom_site_fract_z
_atom_type_partial_charge
C0 C 0.01395 0.95743 0.06975 0.0
O1 O 0.98099 0.97052 0.07793 0.0
O2 O 0.01926 0.07625 0.06426 0.0
Zn3 Zn 0.02802 0.0346 0.04012 0.0
O4 O 0.96331 0.99535 0.02122 0.0
C5 C 0.10243 0.12749 0.0178 0.0
O6 O 0.07312 0.14603 0.02508 0.0
O7 O 0.03968 0.98027 0.0533 0.0
C8 C 0.95068 0.01471 0.00611 0.0
O9 O 0.97991 0.06479 0.00246 0.0
C10 C 0.99507 0.10143 0.06336 0.0
O11 O 0.97242 0.10161 0.04535 0.0
O12 O 0.09099 0.08144 0.02237 0.0
C13 C 0.06363 0.15301 0.35644 0.0
O14 O 0.04097 0.15317 0.3745 0.0
O15 O 0.00783 0.98762 0.34914 0.0
Zn16 Zn 0.03913 0.05033 0.36952 0.0
O17 O 0.98707 0.05254 0.38971 0.0
C18 C 0.07887 -0.00074 0.39287 0.0
O19 O 0.03094 0.96151 0.38785 0.0
O20 O 0.06981 0.11447 0.35161 0.0
C21 C 0.9456 0.01541 0.39749 0.0
O22 O 0.93072 0.96668 0.39193 0.0
C23 C 0.96429 0.96417 0.33891 0.0
O24 O 0.93058 0.98045 0.34119 0.0
O25 O 0.09388 0.04534 0.38694 0.0
C26 C 0.04602 0.99658 0.65713 0.0
O27 O 0.00764 0.00329 0.6506 0.0
O28 O 0.96133 0.02861 0.68316 0.0
Zn29 Zn 0.01772 0.02135 0.69813 0.0
O30 O 0.06917 0.09037 0.71239 0.0
C31 C 0.94174 0.92687 0.71906 0.0
O32 O 0.91969 0.91198 0.69994 0.0
O33 O 0.05661 0.00056 0.67704 0.0
C34 C 0.10494 0.09419 0.72486 0.0
O35 O 0.1094 0.05284 0.72758 0.0
C36 C 0.95289 0.06558 0.68813 0.0
O37 O 0.98091 0.0994 0.70361 0.0
O38 O 0.98437 0.97037 0.72153 0.0
H39 H 0.07589 0.49656 0.16816 0.0
H40 H 0.07366 0.4224 0.14872 0.0
H41 H 0.95178 0.31547 0.19005 0.0
H42 H 0.95203 0.38916 0.20881 0.0
H43 H 0.01335 0.52831 0.17147 0.0
H44 H 0.10108 0.4927 0.22297 0.0
H45 H 0.12252 0.43799 0.24397 0.0
H46 H 0.97458 0.37756 0.27652 0.0
H47 H 0.95398 0.43364 0.25568 0.0
H48 H 0.91069 0.55256 0.24199 0.0
H49 H 0.89176 0.61608 0.25956 0.0
H50 H 0.0426 0.7422 0.24017 0.0
H51 H 0.06152 0.67836 0.22285 0.0
H52 H -0.00019 0.53838 0.25032 0.0
H53 H 0.92918 0.59518 0.18917 0.0
H54 H 0.9353 0.65979 0.16402 0.0
H55 H 0.09623 0.70328 0.15127 0.0
H56 H 0.08922 0.63804 0.17584 0.0
C57 C 0.01452 0.4487 0.19015 0.0
C58 C 0.04853 0.4572 0.17303 0.0
C59 C 0.04734 0.41492 0.16195 0.0
C60 C 0.01268 0.36346 0.16799 0.0
C61 C 0.97929 0.3549 0.18529 0.0
C62 C 0.97971 0.39706 0.19608 0.0
C63 C 0.01328 0.49331 0.20115 0.0
C64 C 0.01106 0.53068 0.18874 0.0
C65 C 0.01205 0.4979 0.2237 0.0
C66 C 0.02563 0.46671 0.23758 0.0
C67 C 0.07332 0.46776 0.23469 0.0
C68 C 0.08541 0.43625 0.24664 0.0
C69 C 0.05002 0.40286 0.26177 0.0
C70 C 0.00294 0.40311 0.26514 0.0
C71 C 0.99098 0.435 0.25321 0.0
C72 C 0.98736 0.61083 0.23107 0.0
C73 C 0.93964 0.59392 0.24155 0.0
C74 C 0.92871 0.63022 0.25141 0.0
C75 C 0.96561 0.6841 0.25117 0.0
C76 C 0.01356 0.70091 0.24073 0.0
C77 C 0.02431 0.66457 0.23075 0.0
C78 C 0.99806 0.57192 0.22049 0.0
C79 C 0.00212 0.53567 0.23307 0.0
C80 C 0.00512 0.57082 0.19818 0.0
C81 C 0.00871 0.61184 0.18426 0.0
C82 C 0.96577 0.61898 0.18102 0.0
C83 C 0.96943 0.65599 0.1667 0.0
C84 C 0.01611 0.68633 0.15544 0.0
C85 C 0.05933 0.67979 0.15926 0.0
C86 C 0.05553 0.64276 0.17341 0.0
H87 H 0.61826 0.09181 0.50014 0.0
H88 H 0.69515 0.1029 0.48094 0.0
H89 H 0.68151 0.96774 0.51123 0.0
H90 H 0.60378 0.95635 0.53023 0.0
H91 H 0.51879 0.00888 0.4972 0.0
H92 H 0.64878 0.10297 0.55309 0.0
H93 H 0.72059 0.12163 0.57802 0.0
H94 H 0.62632 0.96852 0.60404 0.0
H95 H 0.55454 0.95003 0.57901 0.0
H96 H 0.40154 0.93601 0.57627 0.0
H97 H 0.32279 0.93045 0.59208 0.0
H98 H 0.34574 0.0607 0.55513 0.0
H99 H 0.42486 0.06703 0.53982 0.0
H100 H 0.5029 0.00885 0.57615 0.0
H101 H 0.36668 0.92319 0.52297 0.0
H102 H 0.29505 0.91203 0.49981 0.0
H103 H 0.40346 0.05188 0.46708 0.0
H104 H 0.47435 0.06431 0.4911 0.0
C105 C 0.6055 0.02345 0.51667 0.0
C106 C 0.63195 0.06469 0.50271 0.0
C107 C 0.67608 0.07117 0.49187 0.0
C108 C 0.69446 0.03628 0.49465 0.0
C109 C 0.66804 0.99503 0.5087 0.0
C110 C 0.62396 0.98875 0.51968 0.0
C111 C 0.55732 0.01579 0.5273 0.0
C112 C 0.51544 0.00937 0.51447 0.0
C113 C 0.55242 0.01484 0.54977 0.0
C114 C 0.59657 0.02502 0.56416 0.0
C115 C 0.64381 0.07327 0.56403 0.0
C116 C 0.68459 0.084 0.57836 0.0
C117 C 0.67889 0.04653 0.59297 0.0
C118 C 0.63185 0.9979 0.59283 0.0
C119 C 0.59083 0.98741 0.57865 0.0
C120 C 0.41852 0.00125 0.55653 0.0
C121 C 0.38988 0.96369 0.57175 0.0
C122 C 0.34497 0.96052 0.58075 0.0
C123 C 0.32788 0.9947 0.57459 0.0
C124 C 0.35748 0.03322 0.55985 0.0
C125 C 0.40264 0.03681 0.55108 0.0
C126 C 0.46453 0.00297 0.54604 0.0
C127 C 0.50589 0.00789 0.55887 0.0
C128 C 0.46905 0.00275 0.52349 0.0
C129 C 0.42578 0.99492 0.50895 0.0
C130 C 0.3749 0.95174 0.51095 0.0
C131 C 0.33409 0.9451 0.49751 0.0
C132 C 0.34347 0.98106 0.48155 0.0
C133 C 0.39466 0.02389 0.4794 0.0
C134 C 0.43537 0.03074 0.49297 0.0
H135 H 0.4846 0.43812 0.83062 0.0
H136 H 0.41426 0.37195 0.80726 0.0
H137 H 0.30306 0.40549 0.83818 0.0
H138 H 0.37367 0.47216 0.86128 0.0
H139 H 0.52156 0.53962 0.83248 0.0
H140 H 0.44909 0.40429 0.87962 0.0
H141 H 0.38791 0.33241 0.90124 0.0
H142 H 0.35709 0.43911 0.93851 0.0
H143 H 0.41557 0.51021 0.91575 0.0
H144 H 0.53885 0.66382 0.90408 0.0
H145 H 0.60319 0.74434 0.92353 0.0
H146 H 0.72475 0.7079 0.90965 0.0
H147 H 0.6602 0.62752 0.88998 0.0
H148 H 0.51333 0.55606 0.91132 0.0
H149 H 0.5973 0.69318 0.85935 0.0
H150 H 0.67267 0.75775 0.83942 0.0
H151 H 0.69555 0.63479 0.81278 0.0
H152 H 0.6219 0.57055 0.83352 0.0
C153 C 0.43433 0.45995 0.84772 0.0
C154 C 0.44498 0.43093 0.83245 0.0
C155 C 0.40474 0.39295 0.81922 0.0
C156 C 0.35324 0.38373 0.82086 0.0
C157 C 0.34249 0.41215 0.83642 0.0
C158 C 0.38267 0.44989 0.84975 0.0
C159 C 0.47766 0.50307 0.86058 0.0
C160 C 0.52012 0.54277 0.84977 0.0
C161 C 0.47584 0.50693 0.88314 0.0
C162 C 0.43654 0.46273 0.89579 0.0
C163 C 0.42817 0.41206 0.89208 0.0
C164 C 0.39376 0.37103 0.90475 0.0
C165 C 0.36771 0.37985 0.92179 0.0
C166 C 0.37584 0.43057 0.92539 0.0
C167 C 0.40976 0.47149 0.91249 0.0
C168 C 0.59496 0.64003 0.89557 0.0
C169 C 0.57933 0.67313 0.90532 0.0
C170 C 0.61607 0.71915 0.91627 0.0
C171 C 0.66884 0.73227 0.91798 0.0
C172 C 0.68421 0.69846 0.90861 0.0
C173 C 0.64755 0.65275 0.89738 0.0
C174 C 0.5561 0.59287 0.88312 0.0
C175 C 0.5145 0.55252 0.89404 0.0
C176 C 0.55985 0.58737 0.86075 0.0
C177 C 0.60453 0.62704 0.84834 0.0
C178 C 0.61911 0.68015 0.84959 0.0
C179 C 0.66191 0.71697 0.83811 0.0
C180 C 0.68984 0.70108 0.82469 0.0
C181 C 0.67446 0.64789 0.82299 0.0
C182 C 0.63242 0.61127 0.83481 0.0
H183 H 0.98472 0.18807 0.06396 0.0
H184 H 0.0077 0.08624 0.1052 0.0
H185 H 0.01238 0.14098 0.13674 0.0
H186 H 0.07606 0.30694 0.09155 0.0
H187 H 0.03814 0.33834 0.08772 0.0
H188 H 0.03275 0.28911 0.06858 0.0
H189 H 0.9319 0.23589 0.07371 0.0
H190 H 0.93694 0.28512 0.09279 0.0
H191 H 0.90627 0.21776 0.1002 0.0
H192 H 0.01479 0.207 0.16371 0.0
H193 H 0.01924 0.28236 0.184 0.0
H194 H -0.00011 0.34351 0.12487 0.0
C195 C 0.99001 0.17692 0.07966 0.0
C196 C 0.99539 0.13275 0.08222 0.0
C197 C 0.00339 0.11995 0.10295 0.0
C198 C 0.00598 0.1507 0.12093 0.0
C199 C 0.0011 0.19437 0.11785 0.0
C200 C 0.99361 0.20768 0.09773 0.0
C201 C 0.9923 0.25809 0.09866 0.0
C202 C 0.03751 0.30062 0.08587 0.0
C203 C 0.93865 0.24862 0.09089 0.0
C204 C 0.00032 0.27108 0.12244 0.0
C205 C 0.00473 0.23356 0.13326 0.0
C206 C 0.01154 0.23672 0.15541 0.0
C207 C 0.01395 0.27945 0.16678 0.0
C208 C 0.01028 0.31863 0.15592 0.0
C209 C 0.00346 0.31432 0.13349 0.0
H210 H 0.85101 0.94757 0.4159 0.0
H211 H 0.97219 0.11183 0.41449 0.0
H212 H 0.92313 0.13389 0.44047 0.0
H213 H 0.74219 0.9687 0.41885 0.0
H214 H 0.70498 0.91608 0.43663 0.0
H215 H 0.75062 0.91256 0.41851 0.0
H216 H 0.79823 0.89954 0.4504 0.0
H217 H 0.75284 0.90327 0.46864 0.0
H218 H 0.82258 0.94689 0.47249 0.0
H219 H 0.86075 0.13909 0.46579 0.0
H220 H 0.78689 0.12706 0.48827 0.0
H221 H 0.70527 0.95994 0.47322 0.0
C222 C 0.86734 0.98812 0.42114 0.0
C223 C 0.91553 0.0279 0.41315 0.0
C224 C 0.93536 0.08057 0.42033 0.0
C225 C 0.90789 0.09357 0.43516 0.0
C226 C 0.86059 0.05352 0.4427 0.0
C227 C 0.8403 0.00189 0.43594 0.0
C228 C 0.78774 0.96674 0.44611 0.0
C229 C 0.74379 0.93943 0.429 0.0
C230 C 0.79054 0.92675 0.46025 0.0
C231 C 0.78158 0.00683 0.45947 0.0
C232 C 0.82423 0.05658 0.45733 0.0
C233 C 0.82713 0.10032 0.46764 0.0
C234 C 0.78493 0.09314 0.48029 0.0
C235 C 0.74038 0.04263 0.48247 0.0
C236 C 0.73912 -0.00109 0.47209 0.0
H237 H 0.85249 0.82968 0.71988 0.0
H238 H 0.96826 0.95668 0.76114 0.0
H239 H 0.91789 0.91117 0.79274 0.0
H240 H 0.7407 0.80678 0.7485 0.0
H241 H 0.70622 0.73653 0.74472 0.0
H242 H 0.75302 0.77716 0.72529 0.0
H243 H 0.80436 0.72838 0.72975 0.0
H244 H 0.75744 0.68725 0.74909 0.0
H245 H 0.82649 0.72398 0.75602 0.0
H246 H 0.85094 0.85626 0.81958 0.0
H247 H 0.7753 0.79121 0.84008 0.0
H248 H 0.7052 0.69833 0.78171 0.0
C249 C 0.86766 0.84758 0.73557 0.0
C250 C 0.91429 0.8968 0.738 0.0
C251 C 0.93272 0.91893 0.75884 0.0
C252 C 0.90434 0.89345 0.77692 0.0
C253 C 0.85796 0.84555 0.77393 0.0
C254 C 0.84009 0.82242 0.75382 0.0
C255 C 0.78851 0.77115 0.75503 0.0
C256 C 0.74453 0.77306 0.74265 0.0
C257 C 0.79459 0.72496 0.747 0.0
C258 C 0.77969 0.76967 0.7789 0.0
C259 C 0.82013 0.81304 0.78951 0.0
C260 C 0.81939 0.82175 0.8115 0.0
C261 C 0.77628 0.7849 0.82298 0.0
C262 C 0.73491 0.73984 0.81243 0.0
C263 C 0.73682 0.73214 0.79015 0.0
H264 H 0.97508 0.91038 0.10782 0.0
H265 H 0.06667 0.91054 0.05339 0.0
H266 H 0.07558 0.84009 0.06913 0.0
H267 H 0.0499 0.88945 0.14748 0.0
H268 H 0.99339 0.84795 0.16315 0.0
H269 H 0.9935 0.8978 0.14742 0.0
H270 H 0.90739 0.82763 0.12821 0.0
H271 H 0.90714 0.77752 0.14381 0.0
H272 H 0.90502 0.77147 0.11503 0.0
H273 H 0.07345 0.76906 0.09041 0.0
H274 H 0.06384 0.70454 0.11655 0.0
H275 H 0.97644 0.75284 0.15786 0.0
C276 C 0.99695 0.89557 0.09917 0.0
C277 C 0.02008 0.91586 0.07933 0.0
C278 C 0.04868 0.89564 0.06862 0.0
C279 C 0.05384 0.85554 0.0774 0.0
C280 C 0.03041 0.83633 0.09694 0.0
C281 C 0.0028 0.85583 0.10777 0.0
C282 C 0.98231 0.82899 0.12873 0.0
C283 C 0.00622 0.8684 0.14782 0.0
C284 C 0.92188 0.79966 0.12894 0.0
C285 C 0.00266 0.79126 0.12796 0.0
C286 C 0.03009 0.79602 0.10944 0.0
C287 C 0.05241 0.76524 0.10505 0.0
C288 C 0.04701 0.72893 0.12009 0.0
C289 C 0.01983 0.7239 0.1394 0.0
C290 C 0.9971 0.75538 0.14322 0.0
H291 H 0.17184 0.06793 0.41407 0.0
H292 H 0.06563 0.90281 0.39866 0.0
H293 H 0.1229 0.88075 0.41883 0.0
H294 H 0.29318 0.06507 0.41116 0.0
H295 H 0.32383 0.1106 0.43357 0.0
H296 H 0.27558 0.11405 0.41721 0.0
H297 H 0.22072 0.10554 0.45083 0.0
H298 H 0.26882 0.10212 0.46727 0.0
H299 H 0.20087 0.05073 0.46776 0.0
H300 H 0.1907 0.87601 0.44063 0.0
H301 H 0.2641 0.88885 0.46376 0.0
H302 H 0.32463 0.05653 0.46658 0.0
C303 C 0.1609 0.02721 0.41483 0.0
C304 C 0.11434 0.98711 0.40476 0.0
C305 C 0.10103 0.93421 0.4063 0.0
C306 C 0.13337 0.92123 0.41766 0.0
C307 C 0.17877 0.96155 0.42751 0.0
C308 C 0.19254 0.01345 0.42632 0.0
C309 C 0.24266 0.04891 0.43902 0.0
C310 C 0.2864 0.08689 0.42436 0.0
C311 C 0.23264 0.07856 0.4573 0.0
C312 C 0.25469 0.00876 0.44751 0.0
C313 C 0.21748 0.95868 0.44056 0.0
C314 C 0.22002 0.91502 0.44628 0.0
C315 C 0.26167 0.92271 0.45956 0.0
C316 C 0.30006 0.97365 0.46714 0.0
C317 C 0.29636 0.01714 0.4609 0.0
H318 H 0.18773 0.11702 0.7518 0.0
H319 H 0.09823 0.18298 0.726 0.0
H320 H 0.15178 0.26397 0.7479 0.0
H321 H 0.20167 0.16989 0.80508 0.0
H322 H 0.26781 0.18287 0.8089 0.0
H323 H 0.22313 0.13028 0.79091 0.0
H324 H 0.28955 0.17026 0.7602 0.0
H325 H 0.33454 0.22285 0.77813 0.0
H326 H 0.31377 0.23729 0.75349 0.0
H327 H 0.21309 0.33663 0.77333 0.0
H328 H 0.28127 0.39796 0.79929 0.0
H329 H 0.33119 0.28499 0.80828 0.0
C330 C 0.17953 0.14856 0.75066 0.0
C331 C 0.13876 0.14363 0.73719 0.0
C332 C 0.12933 0.18587 0.73617 0.0
C333 C 0.15944 0.232 0.74858 0.0
C334 C 0.19896 0.23536 0.76184 0.0
C335 C 0.20933 0.19496 0.76286 0.0
C336 C 0.25411 0.20861 0.7784 0.0
C337 C 0.23555 0.17066 0.79692 0.0
C338 C 0.30075 0.20983 0.76686 0.0
C339 C 0.26715 0.26293 0.78601 0.0
C340 C 0.23472 0.27752 0.77633 0.0
C341 C 0.23879 0.3257 0.781 0.0
C342 C 0.27735 0.36008 0.79586 0.0
C343 C 0.31141 0.34616 0.80579 0.0
C344 C 0.30601 0.29685 0.80078 0.0
H345 H 0.88032 0.99661 0.65848 0.0
H346 H 0.93588 0.14809 0.69063 0.0
H347 H 0.87156 0.15945 0.66987 0.0
H348 H 0.85898 0.03149 0.60692 0.0
H349 H 0.8002 0.96946 0.60106 0.0
H350 H 0.85021 0.97288 0.61863 0.0
H351 H 0.78129 0.92941 0.64825 0.0
H352 H 0.73103 0.92576 0.63076 0.0
H353 H 0.74283 0.9582 0.65673 0.0
H354 H 0.80351 0.15576 0.64479 0.0
H355 H 0.73303 0.13521 0.61828 0.0
H356 H 0.7204 0.98538 0.6031 0.0
C357 C 0.87891 0.03213 0.6612 0.0
C358 C 0.91323 0.07154 0.67615 0.0
C359 C 0.90995 0.11733 0.67929 0.0
C360 C 0.87362 0.1242 0.66755 0.0
C361 C 0.84062 0.08475 0.65285 0.0
C362 C 0.84262 0.03945 0.64975 0.0
C363 C 0.80255 0.00298 0.63304 0.0
C364 C 0.82962 0.99368 0.61378 0.0
C365 C 0.76202 0.95102 0.64278 0.0
C366 C 0.77793 0.03503 0.62715 0.0
C367 C 0.80063 0.08217 0.63869 0.0
C368 C 0.78528 0.1189 0.63571 0.0
C369 C 0.74549 0.10704 0.62056 0.0
C370 C 0.72136 0.05875 0.6087 0.0
C371 C 0.73783 0.02235 0.61212 0.0
H372 H 0.90082 0.90806 0.00143 0.0
H373 H 0.89877 0.04361 0.97849 0.0
H374 H 0.82472 0.98578 0.95391 0.0
H375 H 0.87653 0.84126 0.95074 0.0
H376 H 0.8362 0.77701 0.96115 0.0
H377 H 0.88682 0.82868 0.97777 0.0
H378 H 0.81797 0.81482 0.0065 0.0
H379 H 0.76713 0.76293 0.99001 0.0
H380 H 0.76044 0.81756 0.99908 0.0
H381 H 0.75099 0.91282 0.9318 0.0
H382 H 0.6857 0.83068 0.9127 0.0
H383 H 0.73921 0.74401 0.94913 0.0
C384 C 0.88445 0.92559 0.99142 0.0
C385 C 0.90523 0.98028 0.99196 0.0
C386 C 0.88332 0.00177 0.97834 0.0
C387 C 0.84125 0.96925 0.96437 0.0
C388 C 0.82198 0.91549 0.96412 0.0
C389 C 0.84305 0.89386 0.97721 0.0
C390 C 0.81676 0.83523 0.97325 0.0
C391 C 0.85645 0.81965 0.96525 0.0
C392 C 0.78892 0.80592 0.99341 0.0
C393 C 0.77761 0.82718 0.95584 0.0
C394 C 0.78087 0.87385 0.95093 0.0
C395 C 0.74814 0.87607 0.9355 0.0
C396 C 0.71116 0.82933 0.9248 0.0
C397 C 0.70773 0.78128 0.92944 0.0
C398 C 0.74147 0.78036 0.94514 0.0
H399 H 0.03063 0.92833 0.32856 0.0
H400 H 0.87288 0.89851 0.31615 0.0
H401 H 0.85566 0.82353 0.29189 0.0
H402 H 0.05515 0.89877 0.27531 0.0
H403 H 0.09172 0.86898 0.28411 0.0
H404 H 0.09102 0.91979 0.30042 0.0
H405 H 0.05716 0.85819 0.33241 0.0
H406 H 0.05789 0.80724 0.31623 0.0
H407 H 0.99824 0.79497 0.32914 0.0
H408 H 0.85602 0.75055 0.26938 0.0
H409 H 0.8743 0.68732 0.25013 0.0
H410 H 0.03216 0.76714 0.27748 0.0
C411 C 0.99234 0.90616 0.32078 0.0
C412 C 0.95301 0.91926 0.32429 0.0
C413 C 0.9036 0.8892 0.3137 0.0
C414 C 0.8935 0.84657 0.29991 0.0
C415 C 0.9333 0.83483 0.29685 0.0
C416 C 0.98177 0.86394 0.30698 0.0
C417 C 0.01813 0.84369 0.30107 0.0
C418 C 0.06688 0.88529 0.28954 0.0
C419 C 0.03375 0.8249 0.32089 0.0
C420 C 0.98258 0.79837 0.28604 0.0
C421 C 0.93375 0.79369 0.28382 0.0
C422 C 0.89416 0.75397 0.27098 0.0
C423 C 0.90481 0.71816 0.2602 0.0
C424 C 0.95471 0.7225 0.26225 0.0
C425 C 0.99394 0.7633 0.27533 0.0
H426 H 0.13232 0.98652 0.66475 0.0
H427 H 0.03567 0.99128 0.6136 0.0
H428 H 0.09489 0.98664 0.58698 0.0
H429 H 0.25463 0.06713 0.64126 0.0
H430 H 0.28486 0.0312 0.65022 0.0
H431 H 0.23276 0.03077 0.66537 0.0
H432 H 0.1797 0.92935 0.66263 0.0
H433 H 0.2318 0.92945 0.64753 0.0
H434 H 0.16569 0.89636 0.6367 0.0
H435 H 0.16779 0.98858 0.56601 0.0
H436 H 0.24831 0.99331 0.55196 0.0
H437 H 0.29725 0.98587 0.61645 0.0
C438 C 0.12315 0.98579 0.64795 0.0
C439 C 0.07926 0.98922 0.64128 0.0
C440 C 0.06893 0.98858 0.61913 0.0
C441 C 0.10235 0.98594 0.60386 0.0
C442 C 0.14571 0.98353 0.61096 0.0
C443 C 0.15601 0.98296 0.63246 0.0
C444 C 0.20638 0.98201 0.6358 0.0
C445 C 0.24705 0.03068 0.64894 0.0
C446 C 0.19521 0.93126 0.64628 0.0
C447 C 0.22329 0.98325 0.61285 0.0
C448 C 0.18762 0.98397 0.59879 0.0
C449 C 0.19577 0.98752 0.57683 0.0
C450 C 0.2417 0.99051 0.56902 0.0
C451 C 0.27881 0.98984 0.58312 0.0
C452 C 0.26914 0.9857 0.6053 0.0
H453 H 0.1233 0.21617 0.99744 0.0
H454 H 0.18248 0.11054 0.00652 0.0
H455 H 0.25706 0.16382 0.98305 0.0
H456 H 0.15536 0.2369 0.94187 0.0
H457 H 0.17301 0.30471 0.94346 0.0
H458 H 0.1251 0.25896 0.96136 0.0
H459 H 0.1803 0.31755 0.99387 0.0
H460 H 0.22842 0.36346 0.97607 0.0
H461 H 0.24828 0.33548 0.9966 0.0
H462 H 0.32597 0.22966 0.95922 0.0
H463 H 0.38271 0.30131 0.93572 0.0
H464 H 0.2753 0.36079 0.94057 0.0
C465 C 0.15207 0.20434 0.99459 0.0
C466 C 0.14728 0.15937 0.00389 0.0
C467 C 0.18541 0.14487 0.99956 0.0
C468 C 0.22792 0.17491 0.98629 0.0
C469 C 0.2314 0.21899 0.97736 0.0
C470 C 0.19434 0.23349 0.98122 0.0
C471 C 0.20649 0.28187 0.96927 0.0
C472 C 0.16237 0.26987 0.95303 0.0
C473 C 0.21647 0.32727 0.98489 0.0
C474 C 0.2564 0.29254 0.95818 0.0
C475 C 0.27021 0.25597 0.96312 0.0
C476 C 0.31528 0.25824 0.95506 0.0
C477 C 0.34704 0.29893 0.94156 0.0
C478 C 0.33342 0.33667 0.93606 0.0
C479 C 0.2873 0.33307 0.94455 0.0
H480 H 0.04118 0.23207 0.35936 0.0
H481 H 0.10985 0.16397 0.31742 0.0
H482 H 0.11878 0.22448 0.28937 0.0
H483 H 0.96436 0.24435 0.32039 0.0
H484 H 0.97328 0.30578 0.33081 0.0
H485 H 0.97762 0.26145 0.34852 0.0
H486 H 0.07073 0.33435 0.36109 0.0
H487 H 0.06648 0.37918 0.34358 0.0
H488 H 0.12084 0.3678 0.34156 0.0
H489 H 0.11247 0.28627 0.26481 0.0
H490 H 0.09431 0.34711 0.24584 0.0
H491 H 0.03103 0.3761 0.30398 0.0
C492 C 0.05914 0.23056 0.34446 0.0
C493 C 0.07498 0.19334 0.34063 0.0
C494 C 0.0976 0.19224 0.32077 0.0
C495 C 0.10284 0.22646 0.30473 0.0
C496 C 0.08552 0.26169 0.30884 0.0
C497 C 0.06455 0.26432 0.32828 0.0
C498 C 0.04628 0.30373 0.32821 0.0
C499 C 0.98686 0.27722 0.33222 0.0
C500 C 0.07799 0.34895 0.34458 0.0
C501 C 0.05911 0.32196 0.30553 0.0
C502 C 0.08206 0.29751 0.29468 0.0
C503 C 0.09535 0.30633 0.27325 0.0
C504 C 0.08506 0.34118 0.26264 0.0
C505 C 0.06167 0.36689 0.27344 0.0
C506 C 0.04875 0.35704 0.29522 0.0
loop_
_geom_bond_atom_site_label_1
_geom_bond_atom_site_label_2
_geom_bond_distance
_geom_bond_site_symmetry_2
_ccdc_geom_bond_type
C0 O1 1.160 . S
C0 O7 1.185 . S
O1 C0 1.160 . S
O2 Zn3 1.899 . S
O2 C10 1.284 1_455 S
Zn3 O2 1.899 . S
Zn3 O4 2.032 1_445 S
Zn3 O7 2.086 1_545 S
Zn3 O12 1.977 . S
O4 Zn3 2.032 1_665 S
O4 C8 1.278 . S
C5 O6 1.203 . S
C5 O12 1.267 . S
O6 C5 1.203 . S
O7 C0 1.185 . S
O7 Zn3 2.086 1_565 S
C8 O4 1.278 . S
C8 O9 1.209 1_564 S
O9 C8 1.209 1_546 S
C10 O2 1.284 1_655 S
C10 O11 1.273 . S
O11 C10 1.273 . S
O12 Zn3 1.977 . S
O12 C5 1.267 . S
C13 O14 1.160 . S
C13 O20 1.185 . S
O14 C13 1.160 . S
O15 Zn16 1.899 . S
O15 C23 1.284 1_545 S
Zn16 O15 1.899 . S
Zn16 O17 2.032 1_455 S
Zn16 O20 2.086 . S
Zn16 O25 1.977 . S
O17 Zn16 2.032 1_655 S
O17 C21 1.278 . S
C18 O19 1.203 . S
C18 O25 1.267 . S
O19 C18 1.203 . S
O20 C13 1.185 . S
O20 Zn16 2.086 . S
C21 O17 1.278 . S
C21 O22 1.211 . S
O22 C21 1.211 . S
C23 O15 1.284 1_565 S
C23 O24 1.273 1_455 S
O24 C23 1.273 1_655 S
O25 Zn16 1.977 . S
O25 C18 1.267 . S
C26 O27 1.160 . S
C26 O33 1.185 1_545 S
O27 C26 1.160 . S
O28 Zn29 1.899 1_655 S
O28 C36 1.284 . S
Zn29 O28 1.899 1_455 S
Zn29 O30 2.032 . S
Zn29 O33 2.086 1_545 S
Zn29 O38 1.977 1_445 S
O30 Zn29 2.032 . S
O30 C34 1.278 . S
C31 O32 1.203 . S
C31 O38 1.267 . S
O32 C31 1.203 . S
O33 C26 1.185 1_565 S
O33 Zn29 2.086 1_565 S
C34 O30 1.278 . S
C34 O35 1.211 . S
O35 C34 1.211 . S
C36 O28 1.284 . S
C36 O37 1.273 . S
O37 C36 1.273 . S
O38 Zn29 1.977 1_665 S
O38 C31 1.267 . S
H39 C58 0.949 . S
H40 C59 0.950 . S
H41 C61 0.950 . S
H42 C62 0.950 . S
H43 C64 0.950 . S
H44 C67 0.950 . S
H45 C68 0.950 . S
H46 C70 0.951 . S
H47 C71 0.949 . S
H48 C73 0.949 . S
H49 C74 0.950 . S
H50 C76 0.950 . S
H51 C77 0.950 . S
H52 C79 0.952 . S
H53 C82 0.950 . S
H54 C83 0.950 . S
H55 C85 0.951 . S
H56 C86 0.949 . S
C57 C58 1.376 . S
C57 C62 1.386 1_455 S
C57 C63 1.483 . S
C58 H39 0.949 . S
C58 C57 1.376 . S
C58 C59 1.397 . S
C59 H40 0.950 . S
C59 C58 1.397 . S
C59 C60 1.391 . S
C60 C59 1.391 . S
C60 C61 1.405 1_455 S
C61 H41 0.950 . S
C61 C60 1.405 1_655 S
C61 C62 1.367 . S
C62 H42 0.950 . S
C62 C57 1.386 1_655 S
C62 C61 1.367 . S
C63 C57 1.483 . S
C63 C64 1.382 . S
C63 C65 1.403 . S
C64 H43 0.950 . S
C64 C63 1.382 . S
C64 C80 1.411 . S
C65 C63 1.403 . S
C65 C66 1.489 . S
C65 C79 1.406 1_455 S
C66 C65 1.489 . S
C66 C67 1.383 . S
C66 C71 1.382 1_455 S
C67 H44 0.950 . S
C67 C66 1.383 . S
C67 C68 1.395 . S
C68 H45 0.950 . S
C68 C67 1.395 . S
C68 C69 1.288 . S
C69 C68 1.288 . S
C69 C70 1.392 1_455 S
C70 H46 0.951 . S
C70 C69 1.392 1_655 S
C70 C71 1.392 . S
C71 H47 0.949 . S
C71 C66 1.382 1_655 S
C71 C70 1.392 . S
C72 C73 1.376 1_455 S
C72 C77 1.386 . S
C72 C78 1.483 . S
C73 H48 0.949 . S
C73 C72 1.376 1_655 S
C73 C74 1.397 . S
C74 H49 0.950 . S
C74 C73 1.397 . S
C74 C75 1.391 1_655 S
C75 C74 1.391 1_455 S
C75 C76 1.405 . S
C76 H50 0.950 . S
C76 C75 1.405 . S
C76 C77 1.367 . S
C77 H51 0.950 . S
C77 C72 1.386 . S
C77 C76 1.367 . S
C78 C72 1.483 . S
C78 C79 1.385 1_455 S
C78 C80 1.403 . S
C79 H52 0.952 . S
C79 C65 1.406 1_655 S
C79 C78 1.385 1_655 S
C80 C64 1.411 . S
C80 C78 1.403 . S
C80 C81 1.489 . S
C81 C80 1.489 . S
C81 C82 1.383 1_455 S
C81 C86 1.382 . S
C82 H53 0.950 . S
C82 C81 1.383 1_655 S
C82 C83 1.395 . S
C83 H54 0.950 . S
C83 C82 1.395 . S
C83 C84 1.288 1_655 S
C84 C83 1.288 1_455 S
C84 C85 1.392 . S
C85 H55 0.951 . S
C85 C84 1.392 . S
C85 C86 1.392 . S
C86 H56 0.949 . S
C86 C81 1.382 . S
C86 C85 1.392 . S
H87 C106 0.949 . S
H88 C107 0.950 . S
H89 C109 0.950 . S
H90 C110 0.950 . S
H91 C112 0.950 . S
H92 C115 0.950 . S
H93 C116 0.950 . S
H94 C118 0.951 . S
H95 C119 0.949 . S
H96 C121 0.949 . S
H97 C122 0.950 . S
H98 C124 0.950 . S
H99 C125 0.950 . S
H100 C127 0.950 . S
H101 C130 0.950 . S
H102 C131 0.950 . S
H103 C133 0.951 . S
H104 C134 0.949 . S
C105 C106 1.376 . S
C105 C110 1.386 1_545 S
C105 C111 1.483 . S
C106 H87 0.949 . S
C106 C105 1.376 . S
C106 C107 1.397 . S
C107 H88 0.950 . S
C107 C106 1.397 . S
C107 C108 1.391 . S
C108 C107 1.391 . S
C108 C109 1.405 1_545 S
C109 H89 0.950 . S
C109 C108 1.405 1_565 S
C109 C110 1.367 . S
C110 H90 0.950 . S
C110 C105 1.386 1_565 S
C110 C109 1.367 . S
C111 C105 1.483 . S
C111 C112 1.382 . S
C111 C113 1.403 . S
C112 H91 0.950 . S
C112 C111 1.382 . S
C112 C128 1.411 . S
C113 C111 1.403 . S
C113 C114 1.489 . S
C113 C127 1.411 . S
C114 C113 1.489 . S
C114 C115 1.383 . S
C114 C119 1.382 1_545 S
C115 H92 0.950 . S
C115 C114 1.383 . S
C115 C116 1.395 . S
C116 H93 0.950 . S
C116 C115 1.395 . S
C116 C117 1.288 . S
C117 C116 1.288 . S
C117 C118 1.392 1_545 S
C118 H94 0.951 . S
C118 C117 1.392 1_565 S
C118 C119 1.392 . S
C119 H95 0.949 . S
C119 C114 1.382 1_565 S
C119 C118 1.392 . S
C120 C121 1.376 1_545 S
C120 C125 1.386 . S
C120 C126 1.483 . S
C121 H96 0.949 . S
C121 C120 1.376 1_565 S
C121 C122 1.397 . S
C122 H97 0.950 . S
C122 C121 1.397 . S
C122 C123 1.391 1_565 S
C123 C122 1.391 1_545 S
C123 C124 1.405 . S
C124 H98 0.950 . S
C124 C123 1.405 . S
C124 C125 1.367 . S
C125 H99 0.950 . S
C125 C120 1.386 . S
C125 C124 1.367 . S
C126 C120 1.483 . S
C126 C127 1.382 . S
C126 C128 1.403 . S
C127 H100 0.950 . S
C127 C113 1.411 . S
C127 C126 1.382 . S
C128 C112 1.411 . S
C128 C126 1.403 . S
C128 C129 1.489 . S
C129 C128 1.489 . S
C129 C130 1.383 1_545 S
C129 C134 1.382 . S
C130 H101 0.950 . S
C130 C129 1.383 1_565 S
C130 C131 1.395 . S
C131 H102 0.950 . S
C131 C130 1.395 . S
C131 C132 1.288 1_565 S
C132 C131 1.288 1_545 S
C132 C133 1.392 . S
C133 H103 0.951 . S
C133 C132 1.392 . S
C133 C134 1.392 . S
C134 H104 0.949 . S
C134 C129 1.382 . S
C134 C133 1.392 . S
H135 C154 0.949 . S
H136 C155 0.950 . S
H137 C157 0.950 . S
H138 C158 0.950 . S
H139 C160 0.950 . S
H140 C163 0.950 . S
H141 C164 0.950 . S
H142 C166 0.951 . S
H143 C167 0.949 . S
H144 C169 0.949 . S
H145 C170 0.950 . S
H146 C172 0.950 . S
H147 C173 0.950 . S
H148 C175 0.950 . S
H149 C178 0.950 . S
H150 C179 0.950 . S
H151 C181 0.951 . S
H152 C182 0.949 . S
C153 C154 1.376 . S
C153 C158 1.386 . S
C153 C159 1.483 . S
C154 H135 0.949 . S
C154 C153 1.376 . S
C154 C155 1.397 . S
C155 H136 0.950 . S
C155 C154 1.397 . S
C155 C156 1.391 . S
C156 C155 1.391 . S
C156 C157 1.405 . S
C157 H137 0.950 . S
C157 C156 1.405 . S
C157 C158 1.367 . S
C158 H138 0.950 . S
C158 C153 1.386 . S
C158 C157 1.367 . S
C159 C153 1.483 . S
C159 C160 1.382 . S
C159 C161 1.403 . S
C160 H139 0.950 . S
C160 C159 1.382 . S
C160 C176 1.411 . S
C161 C159 1.403 . S
C161 C162 1.489 . S
C161 C175 1.411 . S
C162 C161 1.489 . S
C162 C163 1.383 . S
C162 C167 1.382 . S
C163 H140 0.950 . S
C163 C162 1.383 . S
C163 C164 1.395 . S
C164 H141 0.950 . S
C164 C163 1.395 . S
C164 C165 1.288 . S
C165 C164 1.288 . S
C165 C166 1.392 . S
C166 H142 0.951 . S
C166 C165 1.392 . S
C166 C167 1.392 . S
C167 H143 0.949 . S
C167 C162 1.382 . S
C167 C166 1.392 . S
C168 C169 1.376 . S
C168 C173 1.386 . S
C168 C174 1.483 . S
C169 H144 0.949 . S
C169 C168 1.376 . S
C169 C170 1.397 . S
C170 H145 0.950 . S
C170 C169 1.397 . S
C170 C171 1.391 . S
C171 C170 1.391 . S
C171 C172 1.405 . S
C172 H146 0.950 . S
C172 C171 1.405 . S
C172 C173 1.367 . S
C173 H147 0.950 . S
C173 C168 1.386 . S
C173 C172 1.367 . S
C174 C168 1.483 . S
C174 C175 1.382 . S
C174 C176 1.403 . S
C175 H148 0.950 . S
C175 C161 1.411 . S
C175 C174 1.382 . S
C176 C160 1.411 . S
C176 C174 1.403 . S
C176 C177 1.489 . S
C177 C176 1.489 . S
C177 C178 1.383 . S
C177 C182 1.382 . S
C178 H149 0.950 . S
C178 C177 1.383 . S
C178 C179 1.395 . S
C179 H150 0.950 . S
C179 C178 1.395 . S
C179 C180 1.288 . S
C180 C179 1.288 . S
C180 C181 1.392 . S
C181 H151 0.951 . S
C181 C180 1.392 . S
C181 C182 1.392 . S
C182 H152 0.949 . S
C182 C177 1.382 . S
C182 C181 1.392 . S
H183 C195 0.930 . S
H184 C197 0.930 . S
H185 C198 0.930 . S
H186 C202 0.959 . S
H187 C202 0.959 . S
H188 C202 0.961 . S
H189 C203 0.960 . S
H190 C203 0.961 . S
H191 C203 0.959 1_655 S
H192 C206 0.929 . S
H193 C207 0.931 . S
H194 C209 0.930 . S
C195 H183 0.930 . S
C195 C196 1.399 1_455 S
C195 C200 1.399 . S
C196 C195 1.399 1_655 S
C196 C197 1.376 . S
C197 H184 0.930 . S
C197 C196 1.376 . S
C197 C198 1.388 . S
C198 H185 0.930 . S
C198 C197 1.388 . S
C198 C199 1.390 . S
C199 C198 1.390 . S
C199 C200 1.394 1_655 S
C199 C205 1.465 . S
C200 C195 1.399 . S
C200 C199 1.394 1_455 S
C200 C201 1.516 . S
C201 C200 1.516 . S
C201 C202 1.502 . S
C201 C203 1.561 . S
C201 C204 1.526 . S
C202 H186 0.959 . S
C202 H187 0.959 . S
C202 H188 0.961 . S
C202 C201 1.502 . S
C203 H189 0.960 . S
C203 H190 0.961 . S
C203 H191 0.959 1_455 S
C203 C201 1.561 . S
C204 C201 1.526 . S
C204 C205 1.396 1_455 S
C204 C209 1.390 . S
C205 C199 1.465 . S
C205 C204 1.396 1_655 S
C205 C206 1.399 . S
C206 H192 0.929 . S
C206 C205 1.399 . S
C206 C207 1.385 . S
C207 H193 0.931 . S
C207 C206 1.385 . S
C207 C208 1.392 . S
C208 C207 1.392 . S
C208 C209 1.380 1_655 S
C209 H194 0.930 . S
C209 C204 1.390 . S
C209 C208 1.380 1_455 S
H210 C222 0.930 . S
H211 C224 0.930 . S
H212 C225 0.930 . S
H213 C229 0.959 . S
H214 C229 0.959 . S
H215 C229 0.961 . S
H216 C230 0.960 . S
H217 C230 0.961 . S
H218 C230 0.959 . S
H219 C233 0.929 . S
H220 C234 0.931 . S
H221 C236 0.930 . S
C222 H210 0.930 . S
C222 C223 1.399 1_565 S
C222 C227 1.399 1_565 S
C223 C222 1.399 1_545 S
C223 C224 1.376 . S
C224 H211 0.930 . S
C224 C223 1.376 . S
C224 C225 1.388 . S
C225 H212 0.930 . S
C225 C224 1.388 . S
C225 C226 1.390 . S
C226 C225 1.390 . S
C226 C227 1.394 . S
C226 C232 1.465 . S
C227 C222 1.399 1_545 S
C227 C226 1.394 . S
C227 C228 1.516 1_545 S
C228 C227 1.516 1_565 S
C228 C229 1.502 . S
C228 C230 1.561 . S
C228 C231 1.526 1_565 S
C229 H213 0.959 . S
C229 H214 0.959 . S
C229 H215 0.961 . S
C229 C228 1.502 . S
C230 H216 0.960 . S
C230 H217 0.961 . S
C230 H218 0.959 . S
C230 C228 1.561 . S
C231 C228 1.526 1_545 S
C231 C232 1.396 . S
C231 C236 1.390 1_545 S
C232 C226 1.465 . S
C232 C231 1.396 . S
C232 C233 1.399 . S
C233 H219 0.929 . S
C233 C232 1.399 . S
C233 C234 1.385 . S
C234 H220 0.931 . S
C234 C233 1.385 . S
C234 C235 1.389 . S
C235 C234 1.389 . S
C235 C236 1.387 1_545 S
C236 H221 0.930 . S
C236 C231 1.390 1_565 S
C236 C235 1.387 1_565 S
H237 C249 0.930 . S
H238 C251 0.930 . S
H239 C252 0.930 . S
H240 C256 0.959 . S
H241 C256 0.959 . S
H242 C256 0.961 . S
H243 C257 0.960 . S
H244 C257 0.961 . S
H245 C257 0.959 . S
H246 C260 0.929 . S
H247 C261 0.931 . S
H248 C263 0.930 . S
C249 H237 0.930 . S
C249 C250 1.399 . S
C249 C254 1.399 . S
C250 C249 1.399 . S
C250 C251 1.376 . S
C251 H238 0.930 . S
C251 C250 1.376 . S
C251 C252 1.388 . S
C252 H239 0.930 . S
C252 C251 1.388 . S
C252 C253 1.390 . S
C253 C252 1.390 . S
C253 C254 1.394 . S
C253 C259 1.465 . S
C254 C249 1.399 . S
C254 C253 1.394 . S
C254 C255 1.516 . S
C255 C254 1.516 . S
C255 C256 1.502 . S
C255 C257 1.561 . S
C255 C258 1.526 . S
C256 H240 0.959 . S
C256 H241 0.959 . S
C256 H242 0.961 . S
C256 C255 1.502 . S
C257 H243 0.960 . S
C257 H244 0.961 . S
C257 H245 0.959 . S
C257 C255 1.561 . S
C258 C255 1.526 . S
C258 C259 1.396 . S
C258 C263 1.390 . S
C259 C253 1.465 . S
C259 C258 1.396 . S
C259 C260 1.399 . S
C260 H246 0.929 . S
C260 C259 1.399 . S
C260 C261 1.385 . S
C261 H247 0.931 . S
C261 C260 1.385 . S
C261 C262 1.389 . S
C262 C261 1.389 . S
C262 C263 1.387 . S
C263 H248 0.930 . S
C263 C258 1.390 . S
C263 C262 1.387 . S
H264 C276 0.930 . S
H265 C278 0.930 . S
H266 C279 0.930 . S
H267 C283 0.959 . S
H268 C283 0.959 . S
H269 C283 0.961 . S
H270 C284 0.960 . S
H271 C284 0.961 . S
H272 C284 0.959 . S
H273 C287 0.929 . S
H274 C288 0.931 . S
H275 C290 0.930 1_655 S
C276 H264 0.930 . S
C276 C277 1.399 . S
C276 C281 1.399 . S
C277 C276 1.399 . S
C277 C278 1.376 . S
C278 H265 0.930 . S
C278 C277 1.376 . S
C278 C279 1.388 . S
C279 H266 0.930 . S
C279 C278 1.388 . S
C279 C280 1.390 . S
C280 C279 1.390 . S
C280 C281 1.394 . S
C280 C286 1.465 . S
C281 C276 1.399 . S
C281 C280 1.394 . S
C281 C282 1.516 . S
C282 C281 1.516 . S
C282 C283 1.502 . S
C282 C284 1.561 1_455 S
C282 C285 1.526 . S
C283 H267 0.959 . S
C283 H268 0.959 . S
C283 H269 0.961 . S
C283 C282 1.502 . S
C284 H270 0.960 . S
C284 H271 0.961 . S
C284 H272 0.959 . S
C284 C282 1.561 1_655 S
C285 C282 1.526 . S
C285 C286 1.396 . S
C285 C290 1.390 . S
C286 C280 1.465 . S
C286 C285 1.396 . S
C286 C287 1.399 . S
C287 H273 0.929 . S
C287 C286 1.399 . S
C287 C288 1.385 . S
C288 H274 0.931 . S
C288 C287 1.385 . S
C288 C289 1.389 . S
C289 C288 1.389 . S
C289 C290 1.387 . S
C290 H275 0.930 1_455 S
C290 C285 1.390 . S
C290 C289 1.387 . S
H291 C303 0.930 . S
H292 C305 0.930 1_565 S
H293 C306 0.930 . S
H294 C310 0.959 . S
H295 C310 0.959 . S
H296 C310 0.961 . S
H297 C311 0.960 . S
H298 C311 0.961 . S
H299 C311 0.959 . S
H300 C314 0.929 . S
H301 C315 0.931 . S
H302 C317 0.930 . S
C303 H291 0.930 . S
C303 C304 1.399 . S
C303 C308 1.399 . S
C304 C303 1.399 . S
C304 C305 1.376 . S
C305 H292 0.930 1_545 S
C305 C304 1.376 . S
C305 C306 1.388 1_545 S
C306 H293 0.930 . S
C306 C305 1.388 1_565 S
C306 C307 1.390 1_565 S
C307 C306 1.390 1_545 S
C307 C308 1.394 . S
C307 C313 1.465 . S
C308 C303 1.399 . S
C308 C307 1.394 . S
C308 C309 1.516 . S
C309 C308 1.516 . S
C309 C310 1.502 . S
C309 C311 1.561 . S
C309 C312 1.526 . S
C310 H294 0.959 . S
C310 H295 0.959 . S
C310 H296 0.961 . S
C310 C309 1.502 . S
C311 H297 0.960 . S
C311 H298 0.961 . S
C311 H299 0.959 . S
C311 C309 1.561 . S
C312 C309 1.526 . S
C312 C313 1.396 . S
C312 C317 1.390 . S
C313 C307 1.465 . S
C313 C312 1.396 . S
C313 C314 1.399 1_545 S
C314 H300 0.929 . S
C314 C313 1.399 1_565 S
C314 C315 1.385 . S
C315 H301 0.931 . S
C315 C314 1.385 . S
C315 C316 1.389 1_565 S
C316 C315 1.389 1_545 S
C316 C317 1.387 . S
C317 H302 0.930 . S
C317 C312 1.390 . S
C317 C316 1.387 . S
H318 C330 0.930 . S
H319 C332 0.930 . S
H320 C333 0.930 . S
H321 C337 0.959 . S
H322 C337 0.959 . S
H323 C337 0.961 . S
H324 C338 0.960 . S
H325 C338 0.961 . S
H326 C338 0.959 . S
H327 C341 0.929 . S
H328 C342 0.931 . S
H329 C344 0.930 . S
C330 H318 0.930 . S
C330 C331 1.399 . S
C330 C335 1.399 . S
C331 C330 1.399 . S
C331 C332 1.376 . S
C332 H319 0.930 . S
C332 C331 1.376 . S
C332 C333 1.388 . S
C333 H320 0.930 . S
C333 C332 1.388 . S
C333 C334 1.390 . S
C334 C333 1.390 . S
C334 C335 1.394 . S
C334 C340 1.465 . S
C335 C330 1.399 . S
C335 C334 1.394 . S
C335 C336 1.516 . S
C336 C335 1.516 . S
C336 C337 1.502 . S
C336 C338 1.561 . S
C336 C339 1.526 . S
C337 H321 0.959 . S
C337 H322 0.959 . S
C337 H323 0.961 . S
C337 C336 1.502 . S
C338 H324 0.960 . S
C338 H325 0.961 . S
C338 H326 0.959 . S
C338 C336 1.561 . S
C339 C336 1.526 . S
C339 C340 1.396 . S
C339 C344 1.390 . S
C340 C334 1.465 . S
C340 C339 1.396 . S
C340 C341 1.399 . S
C341 H327 0.929 . S
C341 C340 1.399 . S
C341 C342 1.385 . S
C342 H328 0.931 . S
C342 C341 1.385 . S
C342 C343 1.389 . S
C343 C342 1.389 . S
C343 C344 1.387 . S
C344 H329 0.930 . S
C344 C339 1.390 . S
C344 C343 1.387 . S
H345 C357 0.930 1_565 S
H346 C359 0.930 . S
H347 C360 0.930 . S
H348 C364 0.959 1_545 S
H349 C364 0.959 . S
H350 C364 0.961 . S
H351 C365 0.960 . S
H352 C365 0.961 . S
H353 C365 0.959 . S
H354 C368 0.929 . S
H355 C369 0.931 . S
H356 C371 0.930 . S
C357 H345 0.930 1_545 S
C357 C358 1.399 . S
C357 C362 1.399 . S
C358 C357 1.399 . S
C358 C359 1.376 . S
C359 H346 0.930 . S
C359 C358 1.376 . S
C359 C360 1.388 . S
C360 H347 0.930 . S
C360 C359 1.388 . S
C360 C361 1.390 . S
C361 C360 1.390 . S
C361 C362 1.394 . S
C361 C367 1.465 . S
C362 C357 1.399 . S
C362 C361 1.394 . S
C362 C363 1.516 1_545 S
C363 C362 1.516 1_565 S
C363 C364 1.502 . S
C363 C365 1.561 . S
C363 C366 1.526 1_565 S
C364 H348 0.959 1_565 S
C364 H349 0.959 . S
C364 H350 0.961 . S
C364 C363 1.502 . S
C365 H351 0.960 . S
C365 H352 0.961 . S
C365 H353 0.959 . S
C365 C363 1.561 . S
C366 C363 1.526 1_545 S
C366 C367 1.396 . S
C366 C371 1.390 1_545 S
C367 C361 1.465 . S
C367 C366 1.396 . S
C367 C368 1.399 . S
C368 H354 0.929 . S
C368 C367 1.399 . S
C368 C369 1.385 . S
C369 H355 0.931 . S
C369 C368 1.385 . S
C369 C370 1.389 . S
C370 C369 1.389 . S
C370 C371 1.387 1_545 S
C371 H356 0.930 . S
C371 C366 1.390 1_565 S
C371 C370 1.387 1_565 S
H372 C384 0.930 . S
H373 C386 0.930 1_545 S
H374 C387 0.930 . S
H375 C391 0.959 . S
H376 C391 0.959 . S
H377 C391 0.961 . S
H378 C392 0.960 . S
H379 C392 0.961 . S
H380 C392 0.959 . S
H381 C395 0.929 . S
H382 C396 0.931 . S
H383 C398 0.930 . S
C384 H372 0.930 . S
C384 C385 1.399 . S
C384 C389 1.399 1_554 S
C385 C384 1.399 . S
C385 C386 1.376 1_554 S
C386 H373 0.930 1_565 S
C386 C385 1.376 1_556 S
C386 C387 1.388 . S
C387 H374 0.930 . S
C387 C386 1.388 . S
C387 C388 1.390 . S
C388 C387 1.390 . S
C388 C389 1.394 . S
C388 C394 1.465 . S
C389 C384 1.399 1_556 S
C389 C388 1.394 . S
C389 C390 1.516 . S
C390 C389 1.516 . S
C390 C391 1.502 . S
C390 C392 1.561 1_556 S
C390 C393 1.526 . S
C391 H375 0.959 . S
C391 H376 0.959 . S
C391 H377 0.961 . S
C391 C390 1.502 . S
C392 H378 0.960 . S
C392 H379 0.961 . S
C392 H380 0.959 . S
C392 C390 1.561 1_554 S
C393 C390 1.526 . S
C393 C394 1.396 . S
C393 C398 1.390 . S
C394 C388 1.465 . S
C394 C393 1.396 . S
C394 C395 1.399 . S
C395 H381 0.929 . S
C395 C394 1.399 . S
C395 C396 1.385 . S
C396 H382 0.931 . S
C396 C395 1.385 . S
C396 C397 1.389 . S
C397 C396 1.389 . S
C397 C398 1.387 . S
C398 H383 0.930 . S
C398 C393 1.390 . S
C398 C397 1.387 . S
H399 C411 0.930 . S
H400 C413 0.930 . S
H401 C414 0.930 . S
H402 C418 0.959 . S
H403 C418 0.959 . S
H404 C418 0.961 . S
H405 C419 0.960 . S
H406 C419 0.961 . S
H407 C419 0.959 . S
H408 C422 0.929 . S
H409 C423 0.931 . S
H410 C425 0.930 . S
C411 H399 0.930 . S
C411 C412 1.399 . S
C411 C416 1.399 . S
C412 C411 1.399 . S
C412 C413 1.376 1_455 S
C413 H400 0.930 . S
C413 C412 1.376 1_655 S
C413 C414 1.388 . S
C414 H401 0.930 . S
C414 C413 1.388 . S
C414 C415 1.390 . S
C415 C414 1.390 . S
C415 C416 1.394 1_655 S
C415 C421 1.465 . S
C416 C411 1.399 . S
C416 C415 1.394 1_455 S
C416 C417 1.516 . S
C417 C416 1.516 . S
C417 C418 1.502 . S
C417 C419 1.561 . S
C417 C420 1.526 . S
C418 H402 0.959 . S
C418 H403 0.959 . S
C418 H404 0.961 . S
C418 C417 1.502 . S
C419 H405 0.960 . S
C419 H406 0.961 . S
C419 H407 0.959 . S
C419 C417 1.561 . S
C420 C417 1.526 . S
C420 C421 1.396 1_455 S
C420 C425 1.390 . S
C421 C415 1.465 . S
C421 C420 1.396 1_655 S
C421 C422 1.399 . S
C422 H408 0.929 . S
C422 C421 1.399 . S
C422 C423 1.385 . S
C423 H409 0.931 . S
C423 C422 1.385 . S
C423 C424 1.389 1_655 S
C424 C423 1.389 1_455 S
C424 C425 1.387 . S
C425 H410 0.930 . S
C425 C420 1.390 . S
C425 C424 1.387 . S
H426 C438 0.930 . S
H427 C440 0.930 . S
H428 C441 0.930 . S
H429 C445 0.959 . S
H430 C445 0.959 . S
H431 C445 0.961 . S
H432 C446 0.960 . S
H433 C446 0.961 . S
H434 C446 0.959 . S
H435 C449 0.929 . S
H436 C450 0.931 . S
H437 C452 0.930 . S
C438 H426 0.930 . S
C438 C439 1.399 1_565 S
C438 C443 1.399 . S
C439 C438 1.399 1_545 S
C439 C440 1.376 . S
C440 H427 0.930 . S
C440 C439 1.376 . S
C440 C441 1.388 . S
C441 H428 0.930 . S
C441 C440 1.388 . S
C441 C442 1.390 . S
C442 C441 1.390 . S
C442 C443 1.394 1_545 S
C442 C448 1.465 . S
C443 C438 1.399 . S
C443 C442 1.394 1_565 S
C443 C444 1.516 . S
C444 C443 1.516 . S
C444 C445 1.502 . S
C444 C446 1.561 . S
C444 C447 1.526 . S
C445 H429 0.959 . S
C445 H430 0.959 . S
C445 H431 0.961 . S
C445 C444 1.502 . S
C446 H432 0.960 . S
C446 H433 0.961 . S
C446 H434 0.959 . S
C446 C444 1.561 . S
C447 C444 1.526 . S
C447 C448 1.396 1_565 S
C447 C452 1.390 . S
C448 C442 1.465 . S
C448 C447 1.396 1_545 S
C448 C449 1.399 . S
C449 H435 0.929 . S
C449 C448 1.399 . S
C449 C450 1.385 . S
C450 H436 0.931 . S
C450 C449 1.385 . S
C450 C451 1.389 . S
C451 C450 1.389 . S
C451 C452 1.387 1_545 S
C452 H437 0.930 . S
C452 C447 1.390 . S
C452 C451 1.387 1_565 S
H453 C465 0.930 . S
H454 C467 0.930 1_554 S
H455 C468 0.930 . S
H456 C472 0.959 . S
H457 C472 0.959 . S
H458 C472 0.961 . S
H459 C473 0.960 . S
H460 C473 0.961 . S
H461 C473 0.959 . S
H462 C476 0.929 . S
H463 C477 0.931 . S
H464 C479 0.930 . S
C465 H453 0.930 . S
C465 C466 1.402 . S
C465 C470 1.399 . S
C466 C465 1.402 . S
C466 C467 1.377 . S
C467 H454 0.930 1_556 S
C467 C466 1.377 . S
C467 C468 1.388 . S
C468 H455 0.930 . S
C468 C467 1.388 . S
C468 C469 1.390 . S
C469 C468 1.390 . S
C469 C470 1.394 . S
C469 C475 1.465 . S
C470 C465 1.399 . S
C470 C469 1.394 . S
C470 C471 1.516 . S
C471 C470 1.516 . S
C471 C472 1.502 . S
C471 C473 1.561 . S
C471 C474 1.526 . S
C472 H456 0.959 . S
C472 H457 0.959 . S
C472 H458 0.961 . S
C472 C471 1.502 . S
C473 H459 0.960 . S
C473 H460 0.961 . S
C473 H461 0.959 . S
C473 C471 1.561 . S
C474 C471 1.526 . S
C474 C475 1.396 . S
C474 C479 1.390 . S
C475 C469 1.465 . S
C475 C474 1.396 . S
C475 C476 1.399 . S
C476 H462 0.929 . S
C476 C475 1.399 . S
C476 C477 1.385 . S
C477 H463 0.931 . S
C477 C476 1.385 . S
C477 C478 1.389 . S
C478 C477 1.389 . S
C478 C479 1.387 . S
C479 H464 0.930 . S
C479 C474 1.390 . S
C479 C478 1.387 . S
H480 C492 0.930 . S
H481 C494 0.930 . S
H482 C495 0.930 . S
H483 C499 0.959 . S
H484 C499 0.959 . S
H485 C499 0.961 . S
H486 C500 0.960 . S
H487 C500 0.961 . S
H488 C500 0.959 . S
H489 C503 0.929 . S
H490 C504 0.931 . S
H491 C506 0.930 1_655 S
C492 H480 0.930 . S
C492 C493 1.399 . S
C492 C497 1.399 . S
C493 C492 1.399 . S
C493 C494 1.376 . S
C494 H481 0.930 . S
C494 C493 1.376 . S
C494 C495 1.388 . S
C495 H482 0.930 . S
C495 C494 1.388 . S
C495 C496 1.390 . S
C496 C495 1.390 . S
C496 C497 1.394 . S
C496 C502 1.465 . S
C497 C492 1.399 . S
C497 C496 1.394 . S
C497 C498 1.516 . S
C498 C497 1.516 . S
C498 C499 1.502 1_455 S
C498 C500 1.561 . S
C498 C501 1.526 . S
C499 H483 0.959 . S
C499 H484 0.959 . S
C499 H485 0.961 . S
C499 C498 1.502 1_655 S
C500 H486 0.960 . S
C500 H487 0.961 . S
C500 H488 0.959 . S
C500 C498 1.561 . S
C501 C498 1.526 . S
C501 C502 1.396 . S
C501 C506 1.390 . S
C502 C496 1.465 . S
C502 C501 1.396 . S
C502 C503 1.399 . S
C503 H489 0.929 . S
C503 C502 1.399 . S
C503 C504 1.385 . S
C504 H490 0.931 . S
C504 C503 1.385 . S
C504 C505 1.389 . S
C505 C504 1.389 . S
C505 C506 1.387 . S
C506 H491 0.930 1_455 S
C506 C501 1.390 . S
C506 C505 1.387 . S
C208 C60 1.413 1_655 S
C196 C10 1.406 . S
C223 C21 1.405 . S
C235 C108 1.462 . S
C250 C31 1.422 . S
C262 C180 1.432 . S
C277 C0 1.414 . S
C289 C84 1.410 . S
C316 C132 1.465 . S
C304 C18 1.358 . S
C331 C34 1.433 . S
C343 C156 1.434 . S
C370 C117 1.393 . S
C358 C36 1.387 . S
C385 C8 1.404 . S
C397 C171 1.431 . S
C424 C75 1.407 . S
C412 C23 1.404 . S
C451 C123 1.384 . S
C439 C26 1.302 . S
C478 C165 1.460 . S
C466 C5 1.416 1_556 S
C493 C13 1.386 . S
C505 C69 1.442 . S
