# Generated by pormake.
# Topology pth, (4,4)-cn, num edge types: 1
# Building blocks:
#     Node 0, Type 0, BuildingBlock: UXUYUI_clean_sbu_0, # of connection points: 4
#     Node 1, Type 0, BuildingBlock: UXUYUI_clean_sbu_0, # of connection points: 4
#     Node 2, Type 0, BuildingBlock: UXUYUI_clean_sbu_0, # of connection points: 4
#     Node 3, Type 1, BuildingBlock: NAHDIM_clean_linker_0, # of connection points: 4
#     Node 4, Type 1, BuildingBlock: NAHDIM_clean_linker_0, # of connection points: 4
#     Node 5, Type 1, BuildingBlock: NAHDIM_clean_linker_0, # of connection points: 4
#     Edge 6, Type (0, 1), BuildingBlock: AJUNOK_clean_linker_0, # of connection points: 2
#     Edge 7, Type (0, 1), BuildingBlock: AJUNOK_clean_linker_0, # of connection points: 2
#     Edge 8, Type (0, 1), BuildingBlock: AJUNOK_clean_linker_0, # of connection points: 2
#     Edge 9, Type (0, 1), BuildingBlock: AJUNOK_clean_linker_0, # of connection points: 2
#     Edge 10, Type (0, 1), BuildingBlock: AJUNOK_clean_linker_0, # of connection points: 2
#     Edge 11, Type (0, 1), BuildingBlock: AJUNOK_clean_linker_0, # of connection points: 2
#     Edge 12, Type (0, 1), BuildingBlock: AJUNOK_clean_linker_0, # of connection points: 2
#     Edge 13, Type (0, 1), BuildingBlock: AJUNOK_clean_linker_0, # of connection points: 2
#     Edge 14, Type (0, 1), BuildingBlock: AJUNOK_clean_linker_0, # of connection points: 2
#     Edge 15, Type (0, 1), BuildingBlock: AJUNOK_clean_linker_0, # of connection points: 2
#     Edge 16, Type (0, 1), BuildingBlock: AJUNOK_clean_linker_0, # of connection points: 2
#     Edge 17, Type (0, 1), BuildingBlock: AJUNOK_clean_linker_0, # of connection points: 2
# Relax obj value: 0.093
# Max RMSD: 0.220
# Mean RMSD: 0.135
data_MOF--net-pth--node1-UXUYUI_clean_sbu_0--node2-NAHDIM_clean_linker_0--edge1-AJUNOK_clean_linker_0
_symmetry_space_group_name_H-M    P1
_symmetry_Int_Tables_number       1
_symmetry_cell_setting            triclinic
loop_
_symmetry_equiv_pos_as_xyz
'x, y, z'
_cell_length_a     31.014347
_cell_length_b     31.000245
_cell_length_c     78.962487
_cell_angle_alpha  89.715587
_cell_angle_beta   90.297656
_cell_angle_gamma 119.98614
loop_
_atom_site_label
_atom_site_type_symbol
_atom_site_fract_x
_atom_site_fract_y
_atom_site_fract_z
_atom_type_partial_charge
Li0 Li 0.0613 0.06632 0.03739 0.0
Li1 Li 0.00866 0.06779 0.05981 0.0
Li2 Li 0.02854 0.99959 0.05898 0.0
Li3 Li 0.9696 0.00161 0.03874 0.0
C4 C 0.12429 0.08826 0.06539 0.0
N5 N 0.2237 0.12049 0.07144 0.0
C6 C 0.15348 0.13189 0.07459 0.0
C7 C 0.1456 0.06085 0.05942 0.0
C8 C 0.20368 0.14764 0.07747 0.0
C9 C 0.1959 0.07775 0.06257 0.0
C10 C 0.99041 0.11105 0.03253 0.0
C11 C 0.93022 0.13726 0.02737 0.0
N12 N 0.96751 0.18559 0.02745 0.0
C13 C 0.02821 0.16091 0.0323 0.0
C14 C 0.94108 0.09903 0.02982 0.0
C15 C 0.01585 0.19808 0.02982 0.0
C16 C 0.10507 0.09266 0.00557 0.0
N17 N 0.1118 0.10749 0.022 0.0
C18 C 0.17935 0.18753 0.01448 0.0
C19 C 0.14846 0.15355 0.0267 0.0
C20 C 0.17213 0.17387 0.99733 0.0
C21 C 0.13511 0.12539 0.99295 0.0
H22 H 0.07458 0.05632 0.00219 0.0
H23 H 0.15187 0.16493 0.03978 0.0
C24 C 0.96666 0.10418 0.08497 0.0
N25 N 0.00466 0.11464 0.07415 0.0
C26 C 0.97093 0.14004 0.09662 0.0
C27 C 0.05282 0.19644 0.08555 0.0
C28 C 0.04668 0.15996 0.07404 0.0
C29 C 0.01516 0.18642 0.09733 0.0
H30 H 0.93382 0.0677 0.08499 0.0
H31 H 0.07639 0.16706 0.06537 0.0
C32 C 0.03954 0.95975 0.02757 0.0
N33 N 0.06268 0.89172 0.01404 0.0
C34 C 0.0025 0.91 0.02552 0.0
C35 C 0.08813 0.97509 0.02235 0.0
C36 C 0.01499 0.87612 0.01877 0.0
C37 C 0.09915 0.94009 0.01565 0.0
C38 C 0.91453 0.97026 0.06816 0.0
C39 C 0.89522 0.92601 0.07748 0.0
C40 C 0.88301 0.98795 0.06303 0.0
C41 C 0.8445 0.89991 0.08133 0.0
C42 C 0.83251 0.96082 0.06713 0.0
N43 N 0.81444 0.91768 0.07611 0.0
C44 C 0.06881 0.96427 0.0852 0.0
C45 C -0.00042 0.90452 0.06943 0.0
C46 C 0.06517 0.9272 0.09627 0.0
N47 N 0.03588 0.95228 0.07219 0.0
C48 C 0.99409 0.86659 0.08027 0.0
C49 C 0.02662 0.87772 0.09409 0.0
H50 H 0.09615 0.00274 0.0876 0.0
H51 H 0.97243 0.89645 0.05954 0.0
C52 C 0.91559 0.97694 0.00874 0.0
N53 N 0.91494 0.96003 0.02469 0.0
C54 C 0.88364 0.94466 0.99637 0.0
C55 C 0.84935 0.87879 0.01731 0.0
C56 C 0.88212 0.9123 0.02926 0.0
C57 C 0.85084 0.89455 0.00051 0.0
H58 H 0.94316 0.01469 0.00537 0.0
H59 H 0.88363 0.89927 0.04184 0.0
O60 O 0.07529 0.07284 0.06217 0.0
O61 O 0.00178 0.07413 0.03492 0.0
O62 O 0.02788 0.99368 0.03393 0.0
O63 O 0.96385 0.99563 0.06388 0.0
H64 H 0.13764 0.15345 0.07946 0.0
H65 H 0.1233 0.02646 0.05269 0.0
H66 H 0.22671 0.18143 0.08451 0.0
H67 H 0.2128 0.05678 0.05803 0.0
H68 H 0.89217 0.1285 0.02533 0.0
H69 H 0.06666 0.17083 0.0341 0.0
H70 H 0.91151 0.06059 0.02945 0.0
H71 H 0.0447 0.23685 0.02975 0.0
H72 H 0.20725 0.22473 0.01831 0.0
H73 H 0.12745 0.11387 0.97983 0.0
H74 H 0.94049 0.13111 0.10521 0.0
H75 H 0.08771 0.23139 0.08569 0.0
H76 H 0.9645 0.89758 0.02911 0.0
H77 H 0.11706 0.01369 0.02332 0.0
H78 H 0.98673 0.83744 0.01725 0.0
H79 H 0.13667 0.95145 0.01166 0.0
H80 H 0.91906 0.91193 0.08171 0.0
H81 H 0.89746 0.02233 0.05599 0.0
H82 H 0.82904 0.86554 0.08848 0.0
H83 H 0.80769 0.97406 0.06319 0.0
H84 H 0.09072 0.93749 0.10686 0.0
H85 H 0.96247 0.82963 0.07847 0.0
H86 H 0.88702 0.95801 0.98348 0.0
H87 H 0.82483 0.84036 0.02094 0.0
Li88 Li 0.02025 0.00086 0.37024 0.0
Li89 Li 0.08153 0.0618 0.38943 0.0
Li90 Li 0.99266 0.04092 0.39145 0.0
Li91 Li 0.04618 0.09192 0.36843 0.0
C92 C 0.99308 0.95069 0.40215 0.0
N93 N 0.93515 0.85692 0.41604 0.0
C94 C 0.01537 0.92746 0.41085 0.0
C95 C 0.94124 0.92655 0.40086 0.0
C96 C 0.98549 0.87995 0.41768 0.0
C97 C 0.91261 0.87911 0.40788 0.0
C98 C 0.1347 0.07231 0.36191 0.0
C99 C 0.22147 0.13506 0.36014 0.0
N100 N 0.23329 0.09881 0.35768 0.0
C101 C 0.14761 0.0357 0.35915 0.0
C102 C 0.17182 0.12242 0.36223 0.0
C103 C 0.19769 0.04983 0.35712 0.0
C104 C 0.98461 0.933 0.34242 0.0
N105 N 0.00597 0.94253 0.35806 0.0
C106 C 0.01413 0.87004 0.35675 0.0
C107 C 0.02111 0.91237 0.36521 0.0
C108 C 0.9924 0.85919 0.34056 0.0
C109 C 0.97712 0.89103 0.33342 0.0
H110 H 0.97389 0.95826 0.33688 0.0
H111 H 0.03955 0.9217 0.37737 0.0
C112 C 0.1625 0.10904 0.41337 0.0
N113 N 0.13682 0.07084 0.40239 0.0
C114 C 0.1967 0.10754 0.42466 0.0
C115 C 0.17774 0.02822 0.41275 0.0
C116 C 0.14454 0.03151 0.40167 0.0
C117 C 0.20383 0.06613 0.42466 0.0
H118 H 0.15475 0.13934 0.41393 0.0
H119 H 0.12255 0.00112 0.39311 0.0
C120 C 0.92942 0.01001 0.36173 0.0
N121 N 0.83138 0.96536 0.35101 0.0
C122 C 0.90957 0.03905 0.3558 0.0
C123 C 0.89955 0.95813 0.36183 0.0
C124 C 0.85989 0.01585 0.35055 0.0
C125 C 0.85006 0.93629 0.35646 0.0
C126 C 0.06838 0.15575 0.39494 0.0
C127 C 0.03371 0.16903 0.40031 0.0
C128 C 0.11732 0.1929 0.39164 0.0
C129 C 0.04836 0.21938 0.40194 0.0
C130 C 0.13054 0.24284 0.39343 0.0
N131 N 0.09606 0.25494 0.39848 0.0
C132 C 0.94858 0.02358 0.42329 0.0
C133 C 0.90759 0.04578 0.40252 0.0
C134 C 0.91786 0.02455 0.43594 0.0
N135 N 0.94316 0.03442 0.40699 0.0
C136 C 0.87613 0.04734 0.41478 0.0
C137 C 0.8815 0.03718 0.43177 0.0
H138 H 0.97808 0.01601 0.42655 0.0
H139 H 0.90512 0.05592 0.38961 0.0
C140 C 0.08349 0.15391 0.33921 0.0
N141 N 0.05469 0.14315 0.35328 0.0
C142 C 0.08209 0.1853 0.3267 0.0
C143 C 0.02284 0.19492 0.3437 0.0
C144 C 0.02565 0.16381 0.35588 0.0
C145 C 0.05008 0.20461 0.3287 0.0
H146 H 0.10551 0.13617 0.33731 0.0
H147 H 0.00244 0.15389 0.367 0.0
O148 O 0.02192 0.99729 0.39536 0.0
O149 O 0.08594 0.05917 0.36418 0.0
O150 O 0.97835 0.03219 0.36664 0.0
O151 O 0.05467 0.10662 0.39328 0.0
H152 H 0.05534 0.94574 0.41228 0.0
H153 H 0.92316 0.94454 0.39478 0.0
H154 H 0.00234 0.86144 0.42431 0.0
H155 H 0.87244 0.86004 0.40692 0.0
H156 H 0.25061 0.17371 0.36044 0.0
H157 H 0.11931 0.99676 0.35872 0.0
H158 H 0.16237 0.15124 0.36401 0.0
H159 H 0.20827 0.02187 0.35511 0.0
H160 H 0.02558 0.846 0.36285 0.0
H161 H 0.96035 0.88397 0.32094 0.0
H162 H 0.21578 0.13734 0.43373 0.0
H163 H 0.18038 0.9947 0.41268 0.0
H164 H 0.93206 0.07913 0.35535 0.0
H165 H 0.91441 0.93477 0.36583 0.0
H166 H 0.84404 0.03798 0.34608 0.0
H167 H 0.82657 0.8962 0.35655 0.0
H168 H 0.99581 0.14082 0.40309 0.0
H169 H 0.14486 0.18331 0.38782 0.0
H170 H 0.02182 0.23017 0.40597 0.0
H171 H 0.16825 0.27197 0.39084 0.0
H172 H 0.92407 0.01778 0.44895 0.0
H173 H 0.84879 0.05768 0.41113 0.0
H174 H 0.10332 0.19178 0.31519 0.0
H175 H 0.99845 0.20997 0.34579 0.0
Li176 Li 0.05369 0.03928 0.70623 0.0
Li177 Li 0.04859 0.09441 0.72782 0.0
Li178 Li 0.98184 0.006 0.72574 0.0
Li179 Li 0.99283 0.06884 0.70363 0.0
C180 C 0.0829 0.01748 0.73811 0.0
N181 N 0.14518 0.98641 0.75167 0.0
C182 C 0.12951 0.05234 0.74458 0.0
C183 C 0.06768 0.96679 0.73875 0.0
C184 C 0.16053 0.03589 0.75132 0.0
C185 C 0.09979 0.95184 0.74559 0.0
C186 C 0.08275 0.1464 0.69222 0.0
C187 C 0.09339 0.22588 0.68367 0.0
N188 N 0.11384 0.22272 0.66886 0.0
C189 C 0.10427 0.14408 0.67699 0.0
C190 C 0.07763 0.18775 0.69568 0.0
C191 C 0.11962 0.18301 0.66532 0.0
C192 C 0.07911 0.00517 0.67752 0.0
N193 N 0.09563 0.02401 0.69325 0.0
C194 C 0.17195 0.02445 0.68863 0.0
C195 C 0.14125 0.03416 0.69889 0.0
C196 C 0.15562 0.00475 0.67237 0.0
C197 C 0.10861 0.99514 0.66682 0.0
H198 H 0.0433 0.99878 0.67315 0.0
H199 H 0.15434 0.05078 0.71118 0.0
C200 C 0.07835 0.14024 0.76004 0.0
N201 N 0.08927 0.14515 0.74324 0.0
C202 C 0.11375 0.1722 0.77174 0.0
C203 C 0.1706 0.21357 0.74858 0.0
C204 C 0.13386 0.18156 0.73732 0.0
C205 C 0.16094 0.20819 0.76599 0.0
H206 H 0.04355 0.1096 0.76448 0.0
H207 H 0.14208 0.18363 0.72396 0.0
C208 C 0.95682 0.95432 0.69408 0.0
N209 N 0.90395 0.8592 0.68103 0.0
C210 C 0.91569 0.94115 0.68358 0.0
C211 C 0.97132 0.91932 0.69785 0.0
C212 C 0.88936 0.8928 0.67714 0.0
C213 C 0.94404 0.87137 0.69115 0.0
C214 C 0.96379 0.09242 0.73893 0.0
C215 C 0.9453 0.07273 0.75496 0.0
C216 C 0.97054 0.139 0.73439 0.0
C217 C 0.93474 0.10055 0.76634 0.0
C218 C 0.95954 0.16567 0.74613 0.0
N219 N 0.94208 0.14608 0.76173 0.0
C220 C 0.94489 0.93988 0.75356 0.0
C221 C 0.88925 0.9196 0.73037 0.0
C222 C 0.90954 0.89845 0.7626 0.0
N223 N 0.93423 0.9493 0.73773 0.0
C224 C 0.85322 0.87741 0.7388 0.0
C225 C 0.86313 0.86627 0.75513 0.0
H226 H 0.98065 0.96488 0.75923 0.0
H227 H 0.88122 0.92877 0.71798 0.0
C228 C 0.96812 0.09592 0.67177 0.0
N229 N 0.95377 0.08107 0.68802 0.0
C230 C 0.93354 0.09343 0.65984 0.0
C231 C 0.87045 0.06069 0.68161 0.0
C232 C 0.90635 0.06474 0.69318 0.0
C233 C 0.88382 0.0741 0.66468 0.0
H234 H 0.00536 0.10664 0.66778 0.0
H235 H 0.89573 0.05189 0.70606 0.0
O236 O 0.05191 0.03288 0.73158 0.0
O237 O 0.06764 0.10871 0.70381 0.0
O238 O 0.98274 0.00138 0.70057 0.0
O239 O 0.97426 0.06572 0.72763 0.0
H240 H 0.14178 0.09169 0.74428 0.0
H241 H 0.03135 0.93925 0.73413 0.0
H242 H 0.19682 0.06247 0.75628 0.0
H243 H 0.08855 0.91273 0.74612 0.0
H244 H 0.08947 0.25805 0.68614 0.0
H245 H 0.10886 0.11249 0.67419 0.0
H246 H 0.06181 0.19043 0.70753 0.0
H247 H 0.13611 0.18163 0.65344 0.0
H248 H 0.20852 0.03345 0.69316 0.0
H249 H 0.09492 0.98019 0.65432 0.0
H250 H 0.10558 0.16626 0.78514 0.0
H251 H 0.20682 0.24089 0.74377 0.0
H252 H 0.90411 0.96793 0.68051 0.0
H253 H 0.00343 0.92918 0.70577 0.0
H254 H 0.85734 0.882 0.66904 0.0
H255 H 0.9548 0.84385 0.69397 0.0
H256 H 0.93952 0.0365 0.75859 0.0
H257 H 0.98389 0.15424 0.72192 0.0
H258 H 0.92072 0.08596 0.77883 0.0
H259 H 0.96476 0.20187 0.74282 0.0
H260 H 0.91819 0.89217 0.77536 0.0
H261 H 0.81797 0.85366 0.73257 0.0
H262 H 0.94477 0.10295 0.64676 0.0
H263 H 0.83229 0.0455 0.68572 0.0
C264 C 0.9107 0.62945 0.32055 0.0
C265 C 0.95374 0.67109 0.31058 0.0
C266 C 0.962 0.65122 0.28165 0.0
C267 C 0.01377 0.67315 0.28019 0.0
C268 C 0.03469 0.65376 0.26896 0.0
C269 C 0.00302 0.61133 0.25917 0.0
C270 C 0.95069 0.59057 0.26012 0.0
C271 C 0.93091 0.61154 0.27117 0.0
C272 C 0.09056 0.67757 0.26799 0.0
C273 C 0.9155 0.5449 0.2501 0.0
C274 C 0.03536 0.30392 0.30717 0.0
C275 C 0.02286 0.33386 0.29547 0.0
C276 C 0.05965 0.41431 0.28127 0.0
C277 C 0.01685 0.40209 0.27158 0.0
C278 C 0.0144 0.43768 0.26127 0.0
C279 C 0.05585 0.48646 0.2604 0.0
C280 C 0.09943 0.49872 0.26979 0.0
C281 C 0.10074 0.46236 0.28013 0.0
C282 C 0.96706 0.42324 0.25153 0.0
C283 C 0.14429 0.55033 0.26901 0.0
C284 C 0.08017 0.41616 0.15243 0.0
C285 C 0.03449 0.40132 0.16035 0.0
C286 C 0.02593 0.43616 0.16871 0.0
C287 C 0.06411 0.48678 0.16924 0.0
C288 C 0.10967 0.50198 0.16084 0.0
C289 C 0.11684 0.46642 0.15233 0.0
C290 C 0.97613 0.41878 0.177 0.0
C291 C 0.15097 0.5556 0.16105 0.0
C292 C 0.89457 0.7205 0.14871 0.0
C293 C 0.94589 0.72553 0.1466 0.0
C294 C 0.96249 0.65707 0.15038 0.0
C295 C 0.93538 0.60582 0.15316 0.0
C296 C 0.95642 0.58138 0.1619 0.0
C297 C 0.00656 0.6089 0.16741 0.0
C298 C 0.03522 0.66039 0.16364 0.0
C299 C 0.01262 0.68416 0.15533 0.0
C300 C 0.92468 0.52635 0.16551 0.0
C301 C 0.08936 0.69034 0.16863 0.0
C302 C 0.02423 0.58549 0.24941 0.0
C303 C 0.03657 0.5543 0.25846 0.0
C304 C 0.05217 0.52479 0.2502 0.0
C305 C 0.05702 0.52722 0.2324 0.0
C306 C 0.07315 0.49837 0.22373 0.0
C307 C 0.07419 0.49811 0.20612 0.0
C308 C 0.05891 0.5265 0.19654 0.0
C309 C 0.05618 0.52355 0.17867 0.0
C310 C 0.04142 0.5527 0.16951 0.0
C311 C 0.02788 0.58396 0.17775 0.0
C312 C 0.02965 0.58689 0.19565 0.0
C313 C 0.01519 0.61707 0.20439 0.0
C314 C 0.01495 0.61796 0.22201 0.0
C315 C 0.02798 0.58781 0.23155 0.0
C316 C 0.04404 0.55819 0.22302 0.0
C317 C 0.04493 0.55778 0.20505 0.0
C318 C 0.12685 0.34043 0.15697 0.0
C319 C 0.07857 0.33682 0.15048 0.0
O320 O 0.94126 0.66654 0.29355 0.0
O321 O 0.93915 0.67904 0.14276 0.0
O322 O 0.08942 0.38318 0.14434 0.0
O323 O 0.06224 0.38102 0.29193 0.0
H324 H 0.986 0.66528 0.31273 0.0
H325 H 0.90519 0.59277 0.31649 0.0
H326 H 0.87538 0.62955 0.3183 0.0
H327 H 0.91925 0.63371 0.33433 0.0
H328 H 0.0377 0.70487 0.28804 0.0
H329 H 0.89097 0.59536 0.27233 0.0
H330 H 0.10227 0.65292 0.27427 0.0
H331 H 0.10987 0.71448 0.27431 0.0
H332 H 0.10268 0.68219 0.25457 0.0
H333 H 0.87597 0.53059 0.25357 0.0
H334 H 0.9245 0.51482 0.25217 0.0
H335 H 0.91979 0.55396 0.23638 0.0
H336 H 0.98814 0.33425 0.29886 0.0
H337 H 0.01254 0.29836 0.31887 0.0
H338 H 0.07192 0.33073 0.31333 0.0
H339 H 0.026 0.24466 0.29202 0.0
H340 H 0.98491 0.36491 0.27207 0.0
H341 H 0.13371 0.47148 0.28755 0.0
H342 H 0.97466 0.42604 0.23773 0.0
H343 H 0.95334 0.44924 0.25453 0.0
H344 H 0.93709 0.38468 0.25442 0.0
H345 H 0.17657 0.55302 0.27611 0.0
H346 H 0.13467 0.57744 0.27442 0.0
H347 H 0.15527 0.56115 0.25561 0.0
H348 H 0.05229 0.32529 0.16131 0.0
H349 H 0.00523 0.36271 0.15978 0.0
H350 H 0.15163 0.47751 0.14589 0.0
H351 H 0.98075 0.42054 0.19097 0.0
H352 H 0.94835 0.37992 0.17348 0.0
H353 H 0.96127 0.44354 0.1734 0.0
H354 H 0.18532 0.5608 0.15484 0.0
H355 H 0.15995 0.56904 0.17431 0.0
H356 H 0.13845 0.57905 0.15438 0.0
H357 H 0.96564 0.73872 0.15897 0.0
H358 H 0.89814 0.75658 0.15256 0.0
H359 H 0.87343 0.69255 0.1587 0.0
H360 H 0.87314 0.70814 0.13666 0.0
H361 H 0.89694 0.5853 0.14897 0.0
H362 H 0.03407 0.72368 0.15262 0.0
H363 H 0.92675 0.51869 0.17915 0.0
H364 H 0.93898 0.50568 0.15819 0.0
H365 H 0.88504 0.51171 0.162 0.0
H366 H 0.10819 0.72781 0.16263 0.0
H367 H 0.10924 0.67031 0.16501 0.0
H368 H 0.09239 0.69514 0.18259 0.0
H369 H 0.03167 0.55115 0.2721 0.0
H370 H 0.08451 0.47517 0.23047 0.0
H371 H 0.08636 0.47472 0.20011 0.0
H372 H 0.03846 0.54948 0.15583 0.0
H373 H 0.00343 0.64005 0.19774 0.0
H374 H 0.00336 0.64176 0.22806 0.0
H375 H 0.15428 0.35118 0.14653 0.0
H376 H 0.11961 0.3043 0.1624 0.0
H377 H 0.14329 0.36905 0.16707 0.0
C378 C 0.24483 0.92969 0.61267 0.0
C379 C 0.27968 0.9695 0.6253 0.0
C380 C 0.35466 0.02561 0.60888 0.0
C381 C 0.38298 0.074 0.60254 0.0
C382 C 0.42801 0.0892 0.59406 0.0
C383 C 0.44453 0.05464 0.59158 0.0
C384 C 0.41598 0.00549 0.59791 0.0
C385 C 0.37163 0.99161 0.60663 0.0
C386 C 0.45786 0.1421 0.58772 0.0
C387 C 0.43239 0.96752 0.5956 0.0
C388 C 0.77033 0.06599 0.64482 0.0
C389 C 0.72604 0.05405 0.63418 0.0
C390 C 0.69102 0.09348 0.6165 0.0
C391 C 0.65544 0.0488 0.6088 0.0
C392 C 0.61922 0.04768 0.59788 0.0
C393 C 0.61812 0.09203 0.59466 0.0
C394 C 0.65424 0.13725 0.60212 0.0
C395 C 0.69052 0.13742 0.6129 0.0
C396 C 0.58198 0.9989 0.58981 0.0
C397 C 0.65425 0.18517 0.59876 0.0
C398 C 0.71519 0.09448 0.48896 0.0
C399 C 0.67705 0.04822 0.49481 0.0
C400 C 0.63406 0.04389 0.50222 0.0
C401 C 0.62871 0.0865 0.50352 0.0
C402 C 0.66597 0.13262 0.49692 0.0
C403 C 0.70869 0.13591 0.48962 0.0
C404 C 0.5946 0.99388 0.50886 0.0
C405 C 0.66111 0.17857 0.49797 0.0
C406 C 0.22995 0.95021 0.48493 0.0
C407 C 0.27793 0.99816 0.4804 0.0
C408 C 0.35992 0.00613 0.48384 0.0
C409 C 0.37998 0.97529 0.4867 0.0
C410 C 0.42566 0.99305 0.49507 0.0
C411 C 0.45259 0.04354 0.50017 0.0
C412 C 0.43405 0.07589 0.49619 0.0
C413 C 0.38751 0.05668 0.48819 0.0
C414 C 0.44446 0.95748 0.49876 0.0
C415 C 0.46276 0.13038 0.50076 0.0
C416 C 0.49143 0.06953 0.58229 0.0
C417 C 0.53385 0.08042 0.59175 0.0
C418 C 0.57801 0.09014 0.58384 0.0
C419 C 0.58089 0.09114 0.56598 0.0
C420 C 0.62503 0.10153 0.55766 0.0
C421 C 0.62673 0.09973 0.54009 0.0
C422 C 0.58429 0.08732 0.53018 0.0
C423 C 0.58493 0.08286 0.51238 0.0
C424 C 0.54221 0.07065 0.50287 0.0
C425 C 0.49803 0.06123 0.51073 0.0
C426 C 0.49638 0.06458 0.52857 0.0
C427 C 0.45206 0.05345 0.53696 0.0
C428 C 0.45048 0.05566 0.55451 0.0
C429 C 0.49307 0.0688 0.5644 0.0
C430 C 0.53811 0.08001 0.55622 0.0
C431 C 0.53977 0.07795 0.53829 0.0
C432 C 0.82613 0.11204 0.49963 0.0
C433 C 0.78401 0.07707 0.48777 0.0
O434 O 0.31131 0.01349 0.61689 0.0
O435 O 0.31406 0.98584 0.47675 0.0
O436 O 0.7581 0.10037 0.4823 0.0
O437 O 0.7259 0.09538 0.62746 0.0
H438 H 0.30199 0.95587 0.63214 0.0
H439 H 0.2664 0.92114 0.60347 0.0
H440 H 0.22253 0.94267 0.60547 0.0
H441 H 0.21912 0.89473 0.61949 0.0
H442 H 0.3697 0.10002 0.60435 0.0
H443 H 0.35047 0.95403 0.61147 0.0
H444 H 0.49697 0.15908 0.59221 0.0
H445 H 0.44221 0.16556 0.59197 0.0
H446 H 0.4585 0.14224 0.57366 0.0
H447 H 0.40226 0.92913 0.59862 0.0
H448 H 0.46431 0.97686 0.60418 0.0
H449 H 0.44491 0.9682 0.5824 0.0
H450 H 0.68953 0.0269 0.63995 0.0
H451 H 0.75526 0.05369 0.65799 0.0
H452 H 0.78901 0.10699 0.64776 0.0
H453 H 0.80554 0.03416 0.63137 0.0
H454 H 0.65556 0.01451 0.61126 0.0
H455 H 0.71825 0.17177 0.61878 0.0
H456 H 0.58584 0.00214 0.57582 0.0
H457 H 0.54359 0.99006 0.59291 0.0
H458 H 0.58693 0.96741 0.59404 0.0
H459 H 0.68604 0.21761 0.60499 0.0
H460 H 0.61899 0.1818 0.60344 0.0
H461 H 0.65598 0.19219 0.58491 0.0
H462 H 0.75972 0.04296 0.49516 0.0
H463 H 0.68023 0.01522 0.49346 0.0
H464 H 0.73788 0.17123 0.48475 0.0
H465 H 0.5902 0.99626 0.52271 0.0
H466 H 0.60372 0.96405 0.50647 0.0
H467 H 0.5583 0.98326 0.50281 0.0
H468 H 0.69289 0.21146 0.49193 0.0
H469 H 0.65896 0.18732 0.51145 0.0
H470 H 0.62604 0.17151 0.4917 0.0
H471 H 0.28875 0.02272 0.49174 0.0
H472 H 0.20037 0.95848 0.4887 0.0
H473 H 0.23692 0.93146 0.49576 0.0
H474 H 0.21655 0.92428 0.47398 0.0
H475 H 0.35869 0.93658 0.4829 0.0
H476 H 0.37278 0.08106 0.48533 0.0
H477 H 0.45568 0.95996 0.51226 0.0
H478 H 0.47779 0.96786 0.49089 0.0
H479 H 0.41614 0.91825 0.4959 0.0
H480 H 0.44768 0.15198 0.4943 0.0
H481 H 0.50262 0.1466 0.49737 0.0
H482 H 0.46074 0.13446 0.51464 0.0
H483 H 0.53175 0.07895 0.60547 0.0
H484 H 0.65868 0.11084 0.56466 0.0
H485 H 0.66164 0.10771 0.5344 0.0
H486 H 0.54283 0.06665 0.48924 0.0
H487 H 0.41785 0.04248 0.53009 0.0
H488 H 0.41522 0.04639 0.56023 0.0
H489 H 0.84759 0.09418 0.50404 0.0
H490 H 0.81034 0.1205 0.51089 0.0
H491 H 0.85177 0.14763 0.49312 0.0
C492 C 0.69745 0.6409 0.77677 0.0
C493 C 0.70499 0.68594 0.78705 0.0
C494 C 0.67916 0.66268 0.81611 0.0
C495 C 0.64785 0.68264 0.8185 0.0
C496 C 0.60836 0.66086 0.83006 0.0
C497 C 0.60015 0.61824 0.83932 0.0
C498 C 0.63361 0.5999 0.83762 0.0
C499 C 0.67329 0.62302 0.82618 0.0
C500 C 0.57439 0.68229 0.83193 0.0
C501 C 0.62627 0.55458 0.84729 0.0
C502 C 0.27328 0.31547 0.78569 0.0
C503 C 0.31865 0.3481 0.7958 0.0
C504 C 0.35161 0.41683 0.81578 0.0
C505 C 0.39079 0.4097 0.82132 0.0
C506 C 0.42747 0.44353 0.83234 0.0
C507 C 0.42562 0.48599 0.83774 0.0
C508 C 0.38605 0.49316 0.83238 0.0
C509 C 0.34914 0.45806 0.82159 0.0
C510 C 0.46889 0.43435 0.8379 0.0
C511 C 0.38334 0.53832 0.83781 0.0
C512 C 0.32773 0.40214 0.94222 0.0
C513 C 0.366 0.39214 0.93834 0.0
C514 C 0.41142 0.42961 0.93177 0.0
C515 C 0.4188 0.47808 0.92927 0.0
C516 C 0.38158 0.489 0.93427 0.0
C517 C 0.33651 0.45079 0.9408 0.0
C518 C 0.45093 0.41709 0.92698 0.0
C519 C 0.38866 0.5405 0.93205 0.0
C520 C 0.8122 0.76645 0.93321 0.0
C521 C 0.76685 0.75872 0.94329 0.0
C522 C 0.69113 0.67752 0.94369 0.0
C523 C 0.67681 0.62804 0.94023 0.0
C524 C 0.62937 0.59525 0.9337 0.0
C525 C 0.59544 0.61251 0.93088 0.0
C526 C 0.60825 0.66131 0.93577 0.0
C527 C 0.65608 0.69341 0.94218 0.0
C528 C 0.61647 0.54306 0.92894 0.0
C529 C 0.57229 0.68026 0.93342 0.0
C530 C 0.55356 0.58933 0.84913 0.0
C531 C 0.51071 0.55714 0.84004 0.0
C532 C 0.46672 0.52377 0.84828 0.0
C533 C 0.46481 0.52284 0.86616 0.0
C534 C 0.42149 0.48888 0.87486 0.0
C535 C 0.42062 0.48697 0.89246 0.0
C536 C 0.46316 0.51875 0.90204 0.0
C537 C 0.46321 0.51578 0.91993 0.0
C538 C 0.50631 0.54736 0.92908 0.0
C539 C 0.54975 0.58199 0.92076 0.0
C540 C 0.55036 0.58572 0.90288 0.0
C541 C 0.59358 0.6201 0.89413 0.0
C542 C 0.59444 0.62208 0.87653 0.0
C543 C 0.55226 0.58962 0.86701 0.0
C544 C 0.50782 0.55586 0.87555 0.0
C545 C 0.50697 0.55377 0.89351 0.0
C546 C 0.21173 0.30879 0.93134 0.0
C547 C 0.25685 0.31706 0.94181 0.0
O548 O 0.71433 0.68011 0.80384 0.0
O549 O 0.73919 0.70911 0.94807 0.0
O550 O 0.28211 0.366 0.94742 0.0
O551 O 0.31615 0.38513 0.80476 0.0
H552 H 0.66969 0.68691 0.78583 0.0
H553 H 0.66422 0.60672 0.78152 0.0
H554 H 0.73009 0.63543 0.77787 0.0
H555 H 0.69119 0.6458 0.7632 0.0
H556 H 0.65381 0.71472 0.81113 0.0
H557 H 0.69837 0.60859 0.82439 0.0
H558 H 0.53808 0.65705 0.82579 0.0
H559 H 0.5902 0.71971 0.82599 0.0
H560 H 0.5672 0.68509 0.84553 0.0
H561 H 0.65314 0.54268 0.84344 0.0
H562 H 0.58792 0.52306 0.84531 0.0
H563 H 0.63105 0.5629 0.86105 0.0
H564 H 0.35451 0.36254 0.78882 0.0
H565 H 0.24652 0.24533 0.79699 0.0
H566 H 0.28571 0.32319 0.7721 0.0
H567 H 0.2508 0.33489 0.78497 0.0
H568 H 0.39326 0.37791 0.81706 0.0
H569 H 0.31876 0.46323 0.81732 0.0
H570 H 0.47471 0.43935 0.8518 0.0
H571 H 0.50404 0.46186 0.83165 0.0
H572 H 0.46121 0.39638 0.83456 0.0
H573 H 0.35071 0.53902 0.83226 0.0
H574 H 0.41781 0.57269 0.83393 0.0
H575 H 0.38102 0.53886 0.85183 0.0
H576 H 0.28045 0.30932 0.93324 0.0
H577 H 0.3605 0.35514 0.94033 0.0
H578 H 0.30712 0.45834 0.94422 0.0
H579 H 0.45713 0.4215 0.91309 0.0
H580 H 0.44058 0.3784 0.93056 0.0
H581 H 0.48666 0.44331 0.93325 0.0
H582 H 0.35769 0.54386 0.93766 0.0
H583 H 0.39101 0.54953 0.91834 0.0
H584 H 0.42423 0.56846 0.93801 0.0
H585 H 0.7452 0.76896 0.93452 0.0
H586 H 0.8353 0.80616 0.92942 0.0
H587 H 0.79972 0.74341 0.92155 0.0
H588 H 0.8354 0.75534 0.94077 0.0
H589 H 0.70385 0.6159 0.94183 0.0
H590 H 0.66633 0.7311 0.94567 0.0
H591 H 0.61168 0.5385 0.915 0.0
H592 H 0.58062 0.51568 0.93485 0.0
H593 H 0.64567 0.53434 0.93295 0.0
H594 H 0.58568 0.717 0.93955 0.0
H595 H 0.53538 0.65313 0.93874 0.0
H596 H 0.56709 0.68406 0.91968 0.0
H597 H 0.5123 0.55632 0.82632 0.0
H598 H 0.38784 0.46315 0.86815 0.0
H599 H 0.38623 0.45985 0.89843 0.0
H600 H 0.50632 0.54435 0.94277 0.0
H601 H 0.62746 0.64562 0.90076 0.0
H602 H 0.62876 0.64899 0.87045 0.0
H603 H 0.19079 0.26975 0.92673 0.0
H604 H 0.22429 0.33406 0.92018 0.0
H605 H 0.18644 0.31661 0.939 0.0
C606 C 0.04845 0.27456 0.10678 0.0
C607 C 0.02428 0.22346 0.11081 0.0
C608 C 0.0644 0.31087 0.11944 0.0
C609 C 0.05579 0.29759 0.13669 0.0
H610 H 0.05649 0.28672 0.09371 0.0
H611 H 0.08472 0.34961 0.11563 0.0
S612 S 0.9931 0.1691 0.15406 0.0
N613 N 0.99242 0.16153 0.13337 0.0
N614 N 0.02031 0.22979 0.1571 0.0
C615 C 0.02996 0.24661 0.14086 0.0
C616 C 0.01448 0.20959 0.12797 0.0
C617 C 0.85154 0.089 0.44606 0.0
C618 C 0.85263 0.04424 0.44529 0.0
C619 C 0.82846 0.09875 0.45952 0.0
C620 C 0.80509 0.06388 0.47265 0.0
H621 H 0.87016 0.11748 0.43648 0.0
H622 H 0.82982 0.13434 0.45985 0.0
S623 S 0.79538 0.93985 0.47605 0.0
N624 N 0.82665 0.96384 0.45837 0.0
N625 N 0.7835 0.98222 0.48379 0.0
C626 C 0.80509 0.01853 0.47185 0.0
C627 C 0.82871 0.00867 0.45814 0.0
C628 C 0.77462 0.81059 0.76382 0.0
C629 C 0.82451 0.8217 0.76426 0.0
C630 C 0.73682 0.76746 0.77144 0.0
C631 C 0.74736 0.73387 0.77998 0.0
H632 H 0.76456 0.83533 0.75743 0.0
H633 H 0.69889 0.76013 0.77047 0.0
S634 S 0.8719 0.74589 0.7851 0.0
N635 N 0.88243 0.79536 0.77393 0.0
N636 N 0.81148 0.71519 0.78886 0.0
C637 C 0.79723 0.74505 0.7809 0.0
C638 C 0.83575 0.78875 0.77294 0.0
C639 C 0.0151 0.85153 0.12449 0.0
C640 C 0.01542 0.83937 0.10737 0.0
C641 C 0.99549 0.81458 0.13701 0.0
C642 C 0.97493 0.76388 0.13297 0.0
H643 H 0.02733 0.88955 0.12818 0.0
H644 H 0.99397 0.82553 0.14991 0.0
S645 S 0.97355 0.71321 0.09025 0.0
N646 N -0.0003 0.77389 0.08729 0.0
N647 N 0.96028 0.70395 0.11062 0.0
C648 C 0.97755 0.7514 0.11599 0.0
C649 C 0.9985 0.78927 0.10328 0.0
C650 C 0.2241 0.06571 0.45532 0.0
C651 C 0.23243 0.05847 0.43835 0.0
C652 C 0.24197 0.04895 0.46864 0.0
C653 C 0.26846 0.02386 0.46558 0.0
H654 H 0.20097 0.08162 0.45838 0.0
H655 H 0.23258 0.0532 0.48149 0.0
S656 S 0.3068 0.00266 0.4233 0.0
N657 N 0.2749 0.03104 0.41917 0.0
N658 N 0.3063 0.99704 0.4441 0.0
C659 C 0.27969 0.0191 0.44864 0.0
C660 C 0.26229 0.03712 0.43508 0.0
C661 C 0.26083 0.23831 0.77357 0.0
C662 C 0.2019 0.2351 0.77802 0.0
C663 C 0.3126 0.26886 0.78812 0.0
C664 C 0.30335 0.30447 0.80535 0.0
H665 H 0.26503 0.22151 0.76219 0.0
H666 H 0.34901 0.2746 0.78496 0.0
S667 S 0.16866 0.29198 0.82027 0.0
N668 N 0.15022 0.25921 0.80207 0.0
N669 N 0.22854 0.31098 0.82517 0.0
C670 C 0.24044 0.28998 0.81256 0.0
C671 C 0.1918 0.25907 0.79749 0.0
C672 C 0.7886 0.00152 0.65336 0.0
C673 C 0.84493 0.0619 0.65191 0.0
C674 C 0.73935 0.98309 0.63787 0.0
C675 C 0.74712 0.034 0.62325 0.0
H676 H 0.78441 0.97616 0.6635 0.0
H677 H 0.70403 0.9491 0.63938 0.0
S678 S 0.87732 0.16948 0.61499 0.0
N679 N 0.89495 0.1495 0.6322 0.0
N680 N 0.82005 0.12724 0.60799 0.0
C681 C 0.809 0.08934 0.61869 0.0
C682 C 0.85526 0.10396 0.6345 0.0
C683 C 0.82698 0.81426 0.986 0.0
C684 C 0.82356 0.85778 0.98694 0.0
C685 C 0.8071 0.7818 0.97223 0.0
C686 C 0.78311 0.7916 0.95884 0.0
H687 H 0.847 0.80622 0.99563 0.0
H688 H 0.81189 0.74952 0.9718 0.0
S689 S 0.76005 0.89792 0.95604 0.0
N690 N 0.7909 0.90692 0.97399 0.0
N691 N 0.75424 0.84629 0.9479 0.0
C692 C 0.77776 0.83398 0.95992 0.0
C693 C 0.79784 0.86696 0.974 0.0
C694 C 0.93849 0.7813 0.32414 0.0
C695 C 0.98499 0.81424 0.33142 0.0
C696 C 0.92925 0.73621 0.31693 0.0
C697 C 0.96594 0.72208 0.31694 0.0
H698 H 0.9085 0.78963 0.32451 0.0
H699 H 0.89266 0.71164 0.31171 0.0
S700 S 0.09632 0.79905 0.33193 0.0
N701 N 0.07005 0.83273 0.33621 0.0
N702 N 0.05231 0.74741 0.32314 0.0
C703 C 0.01344 0.75603 0.32332 0.0
C704 C 0.02298 0.80212 0.3305 0.0
C705 C 0.19678 0.01554 0.64435 0.0
C706 C 0.18806 0.99602 0.66089 0.0
C707 C 0.22673 0.00739 0.63313 0.0
C708 C 0.24918 0.9794 0.638 0.0
H709 H 0.18046 0.03751 0.64008 0.0
H710 H 0.23215 0.02287 0.62047 0.0
S711 S 0.23564 0.91796 0.67966 0.0
N712 N 0.20266 0.94617 0.68147 0.0
N713 N 0.25896 0.93057 0.66034 0.0
C714 C 0.24026 0.9592 0.65447 0.0
C715 C 0.2099 0.96774 0.66593 0.0
C716 C 0.19922 0.25716 0.9844 0.0
C717 C 0.19877 0.21158 0.98393 0.0
C718 C 0.21924 0.29142 0.97106 0.0
C719 C 0.2401 0.28171 0.9568 0.0
H720 H 0.18219 0.26561 0.99485 0.0
H721 H 0.21721 0.32526 0.97171 0.0
S722 S 0.25042 0.1689 0.94988 0.0
N723 N 0.22278 0.15937 0.96845 0.0
N724 N 0.2602 0.22368 0.94326 0.0
C725 C 0.2409 0.23674 0.95637 0.0
C726 C 0.22038 0.20176 0.96996 0.0
C727 C 0.09267 0.27399 0.30146 0.0
C728 C 0.04116 0.23049 0.31467 0.0
C729 C 0.08199 0.30608 0.28405 0.0
C730 C 0.018 0.29826 0.28351 0.0
H731 H 0.12993 0.28104 0.304 0.0
H732 H 0.11255 0.33479 0.27687 0.0
S733 S 0.8926 0.19069 0.30908 0.0
N734 N 0.93685 0.18314 0.3189 0.0
N735 N 0.91579 0.23297 0.29327 0.0
C736 C 0.96369 0.24456 0.29356 0.0
C737 C 0.9778 0.21512 0.31025 0.0
loop_
_geom_bond_atom_site_label_1
_geom_bond_atom_site_label_2
_geom_bond_distance
_geom_bond_site_symmetry_2
_ccdc_geom_bond_type
Li0 N17 1.990 . S
Li0 O60 1.956 . S
Li0 O61 1.948 1_455 S
Li0 O62 1.961 1_545 S
Li1 N25 1.990 . S
Li1 O60 1.970 1_655 S
Li1 O61 1.956 . S
Li1 O63 1.961 1_545 S
Li2 N47 1.990 . S
Li2 O60 1.961 1_565 S
Li2 O62 1.956 . S
Li2 O63 1.970 1_455 S
Li3 N53 1.990 . S
Li3 O61 1.961 1_565 S
Li3 O62 1.970 1_655 S
Li3 O63 1.956 . S
C4 C6 1.348 . S
C4 C7 1.356 . S
C4 O60 1.325 . S
N5 C8 1.314 . S
N5 C9 1.279 . S
C6 C4 1.348 . S
C6 C8 1.353 . S
C6 H64 0.929 . S
C7 C4 1.356 . S
C7 C9 1.358 . S
C7 H65 0.930 . S
C8 N5 1.314 . S
C8 C6 1.353 . S
C8 H66 0.930 . S
C9 N5 1.279 . S
C9 C7 1.358 . S
C9 H67 0.930 . S
C10 C13 1.348 1_655 S
C10 C14 1.356 . S
C10 O61 1.339 . S
C11 N12 1.279 . S
C11 C14 1.358 . S
C11 H68 0.930 . S
N12 C11 1.279 . S
N12 C15 1.314 1_655 S
C13 C10 1.348 1_455 S
C13 C15 1.353 . S
C13 H69 0.929 . S
C14 C10 1.356 . S
C14 C11 1.358 . S
C14 H70 0.930 . S
C15 N12 1.314 1_455 S
C15 C13 1.353 . S
C15 H71 0.930 . S
C16 N17 1.314 . S
C16 C21 1.353 1_554 S
C16 H22 0.930 . S
N17 Li0 1.990 . S
N17 C16 1.314 . S
N17 C19 1.279 . S
C18 C19 1.358 . S
C18 C20 1.356 . S
C18 H72 0.930 . S
C19 N17 1.279 . S
C19 C18 1.358 . S
C19 H23 0.930 . S
C20 C18 1.356 . S
C20 C21 1.348 1_554 S
C21 C16 1.353 1_556 S
C21 C20 1.348 1_556 S
C21 H73 0.929 . S
H22 C16 0.930 . S
H23 C19 0.930 . S
C24 N25 1.314 . S
C24 C26 1.353 . S
C24 H30 0.930 . S
N25 Li1 1.990 . S
N25 C24 1.314 . S
N25 C28 1.279 . S
C26 C24 1.353 . S
C26 C29 1.348 . S
C26 H74 0.929 . S
C27 C28 1.358 . S
C27 C29 1.356 . S
C27 H75 0.930 . S
C28 N25 1.279 . S
C28 C27 1.358 . S
C28 H31 0.930 . S
C29 C26 1.348 . S
C29 C27 1.356 . S
H30 C24 0.930 . S
H31 C28 0.930 . S
C32 C34 1.348 . S
C32 C35 1.356 . S
C32 O62 1.325 . S
N33 C36 1.314 . S
N33 C37 1.279 . S
C34 C32 1.348 . S
C34 C36 1.353 . S
C34 H76 0.929 1_455 S
C35 C32 1.356 . S
C35 C37 1.358 . S
C35 H77 0.930 . S
C36 N33 1.314 . S
C36 C34 1.353 . S
C36 H78 0.930 1_455 S
C37 N33 1.279 . S
C37 C35 1.358 . S
C37 H79 0.930 . S
C38 C39 1.348 . S
C38 C40 1.356 . S
C38 O63 1.325 . S
C39 C38 1.348 . S
C39 C41 1.353 . S
C39 H80 0.929 . S
C40 C38 1.356 . S
C40 C42 1.358 . S
C40 H81 0.930 . S
C41 C39 1.353 . S
C41 N43 1.314 . S
C41 H82 0.930 . S
C42 C40 1.358 . S
C42 N43 1.279 . S
C42 H83 0.930 . S
N43 C41 1.314 . S
N43 C42 1.279 . S
C44 C46 1.353 . S
C44 N47 1.314 . S
C44 H50 0.930 . S
C45 N47 1.279 . S
C45 C48 1.358 . S
C45 H51 0.930 . S
C46 C44 1.353 . S
C46 C49 1.348 . S
C46 H84 0.929 . S
N47 Li2 1.990 . S
N47 C44 1.314 . S
N47 C45 1.279 . S
C48 C45 1.358 . S
C48 C49 1.356 . S
C48 H85 0.930 . S
C49 C46 1.348 . S
C49 C48 1.356 . S
H50 C44 0.930 . S
H51 C45 0.930 . S
C52 N53 1.314 . S
C52 C54 1.353 1_554 S
C52 H58 0.930 . S
N53 Li3 1.990 . S
N53 C52 1.314 . S
N53 C56 1.279 . S
C54 C52 1.353 1_556 S
C54 C57 1.348 1_556 S
C54 H86 0.929 . S
C55 C56 1.358 . S
C55 C57 1.356 . S
C55 H87 0.930 . S
C56 N53 1.279 . S
C56 C55 1.358 . S
C56 H59 0.930 . S
C57 C54 1.348 1_554 S
C57 C55 1.356 . S
H58 C52 0.930 . S
H59 C56 0.930 . S
O60 Li0 1.956 . S
O60 Li1 1.970 1_455 S
O60 Li2 1.961 1_545 S
O60 C4 1.325 . S
O61 Li0 1.948 1_655 S
O61 Li1 1.956 . S
O61 Li3 1.961 1_545 S
O61 C10 1.339 . S
O62 Li0 1.961 1_565 S
O62 Li2 1.956 . S
O62 Li3 1.970 1_455 S
O62 C32 1.325 . S
O63 Li1 1.961 1_565 S
O63 Li2 1.970 1_655 S
O63 Li3 1.956 . S
O63 C38 1.325 . S
H64 C6 0.929 . S
H65 C7 0.930 . S
H66 C8 0.930 . S
H67 C9 0.930 . S
H68 C11 0.930 . S
H69 C13 0.929 . S
H70 C14 0.930 . S
H71 C15 0.930 . S
H72 C18 0.930 . S
H73 C21 0.929 . S
H74 C26 0.929 . S
H75 C27 0.930 . S
H76 C34 0.929 1_655 S
H77 C35 0.930 . S
H78 C36 0.930 1_655 S
H79 C37 0.930 . S
H80 C39 0.929 . S
H81 C40 0.930 . S
H82 C41 0.930 . S
H83 C42 0.930 . S
H84 C46 0.929 . S
H85 C48 0.930 . S
H86 C54 0.929 . S
H87 C55 0.930 . S
Li88 N105 1.990 1_455 S
Li88 O148 1.956 . S
Li88 O149 1.970 1_565 S
Li88 O150 1.961 1_465 S
Li89 N113 1.990 . S
Li89 O148 1.970 1_545 S
Li89 O149 1.956 . S
Li89 O151 1.961 . S
Li90 N135 1.990 . S
Li90 O148 1.961 1_645 S
Li90 O150 1.956 . S
Li90 O151 1.970 1_655 S
Li91 N141 1.990 . S
Li91 O149 1.961 . S
Li91 O150 1.970 1_455 S
Li91 O151 1.956 . S
C92 C94 1.348 . S
C92 C95 1.356 1_455 S
C92 O148 1.325 . S
N93 C96 1.314 1_655 S
N93 C97 1.279 . S
C94 C92 1.348 . S
C94 C96 1.353 . S
C94 H152 0.929 . S
C95 C92 1.356 1_655 S
C95 C97 1.358 . S
C95 H153 0.930 . S
C96 N93 1.314 1_455 S
C96 C94 1.353 . S
C96 H154 0.930 . S
C97 N93 1.279 . S
C97 C95 1.358 . S
C97 H155 0.930 . S
C98 C101 1.348 . S
C98 C102 1.356 . S
C98 O149 1.325 . S
C99 N100 1.279 . S
C99 C102 1.358 . S
C99 H156 0.930 . S
N100 C99 1.279 . S
N100 C103 1.314 . S
C101 C98 1.348 . S
C101 C103 1.353 . S
C101 H157 0.929 1_545 S
C102 C98 1.356 . S
C102 C99 1.358 . S
C102 H158 0.930 . S
C103 N100 1.314 . S
C103 C101 1.353 . S
C103 H159 0.930 . S
C104 N105 1.314 . S
C104 C109 1.353 . S
C104 H110 0.930 . S
N105 Li88 1.990 1_655 S
N105 C104 1.314 . S
N105 C107 1.279 . S
C106 C107 1.358 . S
C106 C108 1.356 . S
C106 H160 0.930 . S
C107 N105 1.279 . S
C107 C106 1.358 . S
C107 H111 0.931 . S
C108 C106 1.356 . S
C108 C109 1.348 . S
C109 C104 1.353 . S
C109 C108 1.348 . S
C109 H161 0.929 . S
H110 C104 0.930 . S
H111 C107 0.931 . S
C112 N113 1.314 . S
C112 C114 1.353 . S
C112 H118 0.930 . S
N113 Li89 1.990 . S
N113 C112 1.314 . S
N113 C116 1.279 . S
C114 C112 1.353 . S
C114 C117 1.348 . S
C114 H162 0.929 . S
C115 C116 1.358 . S
C115 C117 1.356 . S
C115 H163 0.930 . S
C116 N113 1.279 . S
C116 C115 1.358 . S
C116 H119 0.930 . S
C117 C114 1.348 . S
C117 C115 1.356 . S
H118 C112 0.930 . S
H119 C116 0.930 . S
C120 C122 1.348 . S
C120 C123 1.356 1_545 S
C120 O150 1.325 . S
N121 C124 1.314 1_565 S
N121 C125 1.279 . S
C122 C120 1.348 . S
C122 C124 1.353 . S
C122 H164 0.929 . S
C123 C120 1.356 1_565 S
C123 C125 1.358 . S
C123 H165 0.930 . S
C124 N121 1.314 1_545 S
C124 C122 1.353 . S
C124 H166 0.930 . S
C125 N121 1.279 . S
C125 C123 1.358 . S
C125 H167 0.930 . S
C126 C127 1.348 . S
C126 C128 1.356 . S
C126 O151 1.325 . S
C127 C126 1.348 . S
C127 C129 1.353 . S
C127 H168 0.929 1_455 S
C128 C126 1.356 . S
C128 C130 1.358 . S
C128 H169 0.930 . S
C129 C127 1.353 . S
C129 N131 1.314 . S
C129 H170 0.930 . S
C130 C128 1.358 . S
C130 N131 1.279 . S
C130 H171 0.930 . S
N131 C129 1.314 . S
N131 C130 1.279 . S
C132 C134 1.356 1_545 S
C132 N135 1.318 . S
C132 H138 0.928 . S
C133 N135 1.279 . S
C133 C136 1.356 . S
C133 H139 0.930 . S
C134 C132 1.356 1_565 S
C134 C137 1.348 . S
C134 H172 0.929 . S
N135 Li90 1.990 . S
N135 C132 1.318 . S
N135 C133 1.279 . S
C136 C133 1.356 . S
C136 C137 1.354 1_545 S
C136 H173 0.943 1_545 S
C137 C134 1.348 . S
C137 C136 1.354 1_565 S
H138 C132 0.928 . S
H139 C133 0.930 . S
C140 N141 1.314 . S
C140 C142 1.353 . S
C140 H146 0.930 . S
N141 Li91 1.990 . S
N141 C140 1.314 . S
N141 C144 1.279 . S
C142 C140 1.353 . S
C142 C145 1.348 . S
C142 H174 0.929 . S
C143 C144 1.358 . S
C143 C145 1.356 . S
C143 H175 0.930 . S
C144 N141 1.279 . S
C144 C143 1.358 . S
C144 H147 0.930 . S
C145 C142 1.348 . S
C145 C143 1.356 . S
H146 C140 0.930 . S
H147 C144 0.930 . S
O148 Li88 1.956 . S
O148 Li89 1.970 1_565 S
O148 Li90 1.961 1_465 S
O148 C92 1.325 . S
O149 Li88 1.970 1_545 S
O149 Li89 1.956 . S
O149 Li91 1.961 . S
O149 C98 1.325 . S
O150 Li88 1.961 1_645 S
O150 Li90 1.956 . S
O150 Li91 1.970 1_655 S
O150 C120 1.325 . S
O151 Li89 1.961 . S
O151 Li90 1.970 1_455 S
O151 Li91 1.956 . S
O151 C126 1.325 . S
H152 C94 0.929 . S
H153 C95 0.930 . S
H154 C96 0.930 . S
H155 C97 0.930 . S
H156 C99 0.930 . S
H157 C101 0.929 1_565 S
H158 C102 0.930 . S
H159 C103 0.930 . S
H160 C106 0.930 . S
H161 C109 0.929 . S
H162 C114 0.929 . S
H163 C115 0.930 . S
H164 C122 0.929 . S
H165 C123 0.930 . S
H166 C124 0.930 . S
H167 C125 0.930 . S
H168 C127 0.929 1_655 S
H169 C128 0.930 . S
H170 C129 0.930 . S
H171 C130 0.930 . S
H172 C134 0.929 . S
H173 C136 0.943 1_565 S
H174 C142 0.929 . S
H175 C143 0.930 . S
Li176 N193 1.990 . S
Li176 O236 1.956 . S
Li176 O237 1.970 . S
Li176 O238 1.961 1_445 S
Li177 N201 1.990 . S
Li177 O236 1.970 . S
Li177 O237 1.956 . S
Li177 O239 1.961 1_455 S
Li178 N223 1.990 . S
Li178 O236 1.961 1_665 S
Li178 O238 1.956 . S
Li178 O239 1.970 1_565 S
Li179 N229 1.990 . S
Li179 O237 1.961 1_655 S
Li179 O238 1.970 1_545 S
Li179 O239 1.956 . S
C180 C182 1.348 . S
C180 C183 1.356 1_545 S
C180 O236 1.325 . S
N181 C184 1.314 1_565 S
N181 C185 1.279 . S
C182 C180 1.348 . S
C182 C184 1.353 . S
C182 H240 0.929 . S
C183 C180 1.356 1_565 S
C183 C185 1.358 . S
C183 H241 0.930 . S
C184 N181 1.314 1_545 S
C184 C182 1.353 . S
C184 H242 0.930 . S
C185 N181 1.279 . S
C185 C183 1.358 . S
C185 H243 0.930 . S
C186 C189 1.348 . S
C186 C190 1.356 . S
C186 O237 1.325 . S
C187 N188 1.279 . S
C187 C190 1.358 . S
C187 H244 0.930 . S
N188 C187 1.279 . S
N188 C191 1.314 . S
C189 C186 1.348 . S
C189 C191 1.353 . S
C189 H245 0.929 . S
C190 C186 1.356 . S
C190 C187 1.358 . S
C190 H246 0.930 . S
C191 N188 1.314 . S
C191 C189 1.353 . S
C191 H247 0.930 . S
C192 N193 1.314 . S
C192 C197 1.353 1_545 S
C192 H198 0.930 . S
N193 Li176 1.990 . S
N193 C192 1.314 . S
N193 C195 1.279 . S
C194 C195 1.358 . S
C194 C196 1.356 1_545 S
C194 H248 0.932 . S
C195 N193 1.279 . S
C195 C194 1.358 . S
C195 H199 0.930 . S
C196 C194 1.356 1_565 S
C196 C197 1.348 . S
C197 C192 1.353 1_565 S
C197 C196 1.348 . S
C197 H249 0.929 . S
H198 C192 0.930 . S
H199 C195 0.930 . S
C200 N201 1.314 . S
C200 C202 1.353 . S
C200 H206 0.930 . S
N201 Li177 1.990 . S
N201 C200 1.314 . S
N201 C204 1.279 . S
C202 C200 1.353 . S
C202 C205 1.348 . S
C202 H250 0.929 . S
C203 C204 1.358 . S
C203 C205 1.356 . S
C203 H251 0.930 . S
C204 N201 1.279 . S
C204 C203 1.358 . S
C204 H207 0.930 . S
C205 C202 1.348 . S
C205 C203 1.356 . S
H206 C200 0.930 . S
H207 C204 0.930 . S
C208 C210 1.348 . S
C208 C211 1.356 . S
C208 O238 1.325 . S
N209 C212 1.314 . S
N209 C213 1.279 . S
C210 C208 1.348 . S
C210 C212 1.353 . S
C210 H252 0.929 . S
C211 C208 1.356 . S
C211 C213 1.358 . S
C211 H253 0.930 . S
C212 N209 1.314 . S
C212 C210 1.353 . S
C212 H254 0.930 . S
C213 N209 1.279 . S
C213 C211 1.358 . S
C213 H255 0.930 . S
C214 C215 1.348 . S
C214 C216 1.356 . S
C214 O239 1.325 . S
C215 C214 1.348 . S
C215 C217 1.353 . S
C215 H256 0.929 1_545 S
C216 C214 1.356 . S
C216 C218 1.358 . S
C216 H257 0.930 . S
C217 C215 1.353 . S
C217 N219 1.314 . S
C217 H258 0.930 . S
C218 C216 1.358 . S
C218 N219 1.279 . S
C218 H259 0.930 . S
N219 C217 1.314 . S
N219 C218 1.279 . S
C220 C222 1.353 . S
C220 N223 1.314 . S
C220 H226 0.930 . S
C221 N223 1.279 . S
C221 C224 1.358 . S
C221 H227 0.930 . S
C222 C220 1.353 . S
C222 C225 1.348 . S
C222 H260 0.929 . S
N223 Li178 1.990 . S
N223 C220 1.314 . S
N223 C221 1.279 . S
C224 C221 1.358 . S
C224 C225 1.356 . S
C224 H261 0.930 . S
C225 C222 1.348 . S
C225 C224 1.356 . S
H226 C220 0.930 . S
H227 C221 0.930 . S
C228 N229 1.314 . S
C228 C230 1.353 . S
C228 H234 0.930 . S
N229 Li179 1.990 . S
N229 C228 1.314 . S
N229 C232 1.279 . S
C230 C228 1.353 . S
C230 C233 1.348 . S
C230 H262 0.929 . S
C231 C232 1.358 . S
C231 C233 1.356 . S
C231 H263 0.930 . S
C232 N229 1.279 . S
C232 C231 1.358 . S
C232 H235 0.930 . S
C233 C230 1.348 . S
C233 C231 1.356 . S
H234 C228 0.930 . S
H235 C232 0.930 . S
O236 Li176 1.956 . S
O236 Li177 1.970 . S
O236 Li178 1.961 1_445 S
O236 C180 1.325 . S
O237 Li176 1.970 . S
O237 Li177 1.956 . S
O237 Li179 1.961 1_455 S
O237 C186 1.325 . S
O238 Li176 1.961 1_665 S
O238 Li178 1.956 . S
O238 Li179 1.970 1_565 S
O238 C208 1.325 . S
O239 Li177 1.961 1_655 S
O239 Li178 1.970 1_545 S
O239 Li179 1.956 . S
O239 C214 1.325 . S
H240 C182 0.929 . S
H241 C183 0.930 . S
H242 C184 0.930 . S
H243 C185 0.930 . S
H244 C187 0.930 . S
H245 C189 0.929 . S
H246 C190 0.930 . S
H247 C191 0.930 . S
H248 C194 0.932 . S
H249 C197 0.929 . S
H250 C202 0.929 . S
H251 C203 0.930 . S
H252 C210 0.929 . S
H253 C211 0.930 . S
H254 C212 0.930 . S
H255 C213 0.930 . S
H256 C215 0.929 1_565 S
H257 C216 0.930 . S
H258 C217 0.930 . S
H259 C218 0.930 . S
H260 C222 0.929 . S
H261 C224 0.930 . S
H262 C230 0.929 . S
H263 C231 0.930 . S
C264 C265 1.560 . S
C264 H325 0.959 . S
C264 H326 0.959 . S
C264 H327 0.960 . S
C265 C264 1.560 . S
C265 O320 1.426 . S
C265 H324 0.980 1_655 S
C266 C267 1.407 1_655 S
C266 C271 1.418 . S
C266 O320 1.334 . S
C267 C266 1.407 1_455 S
C267 C268 1.360 . S
C267 H328 0.929 . S
C268 C267 1.360 . S
C268 C269 1.401 . S
C268 C272 1.527 . S
C269 C268 1.401 . S
C269 C270 1.405 1_455 S
C269 C302 1.587 . S
C270 C269 1.405 1_655 S
C270 C271 1.332 . S
C270 C273 1.496 . S
C271 C266 1.418 . S
C271 C270 1.332 . S
C271 H329 0.929 . S
C272 C268 1.527 . S
C272 H330 0.959 . S
C272 H331 0.961 . S
C272 H332 0.961 . S
C273 C270 1.496 . S
C273 H333 0.960 . S
C273 H334 0.960 . S
C273 H335 0.961 . S
C274 C275 1.517 . S
C274 H337 0.961 . S
C274 H338 0.960 . S
C274 H339 0.959 . S
C275 C274 1.517 . S
C275 O323 1.468 . S
C275 H336 0.980 . S
C276 C277 1.349 . S
C276 C281 1.367 . S
C276 O323 1.408 . S
C277 C276 1.349 . S
C277 C278 1.407 . S
C277 H340 0.930 . S
C278 C277 1.407 . S
C278 C279 1.449 . S
C278 C282 1.535 1_455 S
C279 C278 1.449 . S
C279 C280 1.384 . S
C279 C304 1.553 . S
C280 C279 1.384 . S
C280 C281 1.364 . S
C280 C283 1.450 . S
C281 C276 1.367 . S
C281 C280 1.364 . S
C281 H341 0.931 . S
C282 C278 1.535 1_655 S
C282 H342 0.959 . S
C282 H343 0.961 . S
C282 H344 0.959 . S
C283 C280 1.450 . S
C283 H345 0.960 . S
C283 H346 0.960 . S
C283 H347 0.960 . S
C284 C285 1.309 . S
C284 C289 1.304 . S
C284 O322 1.435 . S
C285 C284 1.309 . S
C285 C286 1.476 . S
C285 H349 0.930 1_455 S
C286 C285 1.476 . S
C286 C287 1.400 . S
C286 C290 1.567 1_455 S
C287 C286 1.400 . S
C287 C288 1.373 . S
C287 C309 1.432 . S
C288 C287 1.373 . S
C288 C289 1.339 . S
C288 C291 1.530 . S
C289 C284 1.304 . S
C289 C288 1.339 . S
C289 H350 0.930 . S
C290 C286 1.567 1_655 S
C290 H351 0.961 . S
C290 H352 0.960 . S
C290 H353 0.958 . S
C291 C288 1.530 . S
C291 H354 0.961 . S
C291 H355 0.960 . S
C291 H356 0.960 . S
C292 C293 1.530 1_655 S
C292 H358 0.961 . S
C292 H359 0.961 . S
C292 H360 0.959 . S
C293 C292 1.530 1_455 S
C293 O321 1.412 1_455 S
C293 H357 0.980 . S
C294 C295 1.288 . S
C294 C299 1.377 1_655 S
C294 O321 1.393 . S
C295 C294 1.288 . S
C295 C296 1.369 . S
C295 H361 0.932 . S
C296 C295 1.369 . S
C296 C297 1.398 1_655 S
C296 C300 1.527 . S
C297 C296 1.398 1_455 S
C297 C298 1.380 . S
C297 C311 1.497 . S
C298 C297 1.380 . S
C298 C299 1.383 . S
C298 C301 1.603 . S
C299 C294 1.377 1_455 S
C299 C298 1.383 . S
C299 H362 0.929 . S
C300 C296 1.527 . S
C300 H363 0.961 . S
C300 H364 0.959 . S
C300 H365 0.959 . S
C301 C298 1.603 . S
C301 H366 0.960 . S
C301 H367 0.962 . S
C301 H368 0.961 . S
C302 C269 1.587 . S
C302 C303 1.360 . S
C302 C315 1.412 . S
C303 C302 1.360 . S
C303 C304 1.365 . S
C303 H369 0.929 . S
C304 C279 1.553 . S
C304 C303 1.365 . S
C304 C305 1.404 . S
C305 C304 1.404 . S
C305 C306 1.395 . S
C305 C316 1.451 . S
C306 C305 1.395 . S
C306 C307 1.322 . S
C306 H370 0.930 . S
C307 C306 1.322 . S
C307 C308 1.459 . S
C307 H371 0.929 . S
C308 C307 1.459 . S
C308 C309 1.445 . S
C308 C317 1.395 . S
C309 C287 1.432 . S
C309 C308 1.445 . S
C309 C310 1.370 . S
C310 C309 1.370 . S
C310 C311 1.438 . S
C310 H372 0.930 . S
C311 C297 1.497 . S
C311 C310 1.438 . S
C311 C312 1.360 . S
C312 C311 1.360 . S
C312 C313 1.401 . S
C312 C317 1.446 . S
C313 C312 1.401 . S
C313 C314 1.347 . S
C313 H373 0.929 . S
C314 C313 1.347 . S
C314 C315 1.455 . S
C314 H374 0.930 . S
C315 C302 1.412 . S
C315 C314 1.455 . S
C315 C316 1.331 . S
C316 C305 1.451 . S
C316 C315 1.331 . S
C316 C317 1.497 . S
C317 C308 1.395 . S
C317 C312 1.446 . S
C317 C316 1.497 . S
C318 C319 1.582 . S
C318 H375 0.962 . S
C318 H376 0.959 . S
C318 H377 0.958 . S
C319 C318 1.582 . S
C319 O322 1.458 . S
C319 H348 0.980 . S
O320 C265 1.426 . S
O320 C266 1.334 . S
O321 C293 1.412 1_655 S
O321 C294 1.393 . S
O322 C284 1.435 . S
O322 C319 1.458 . S
O323 C275 1.468 . S
O323 C276 1.408 . S
H324 C265 0.980 1_455 S
H325 C264 0.959 . S
H326 C264 0.959 . S
H327 C264 0.960 . S
H328 C267 0.929 . S
H329 C271 0.929 . S
H330 C272 0.959 . S
H331 C272 0.961 . S
H332 C272 0.961 . S
H333 C273 0.960 . S
H334 C273 0.960 . S
H335 C273 0.961 . S
H336 C275 0.980 . S
H337 C274 0.961 . S
H338 C274 0.960 . S
H339 C274 0.959 . S
H340 C277 0.930 . S
H341 C281 0.931 . S
H342 C282 0.959 . S
H343 C282 0.961 . S
H344 C282 0.959 . S
H345 C283 0.960 . S
H346 C283 0.960 . S
H347 C283 0.960 . S
H348 C319 0.980 . S
H349 C285 0.930 1_655 S
H350 C289 0.930 . S
H351 C290 0.961 . S
H352 C290 0.960 . S
H353 C290 0.958 . S
H354 C291 0.961 . S
H355 C291 0.960 . S
H356 C291 0.960 . S
H357 C293 0.980 . S
H358 C292 0.961 . S
H359 C292 0.961 . S
H360 C292 0.959 . S
H361 C295 0.932 . S
H362 C299 0.929 . S
H363 C300 0.961 . S
H364 C300 0.959 . S
H365 C300 0.959 . S
H366 C301 0.960 . S
H367 C301 0.962 . S
H368 C301 0.961 . S
H369 C303 0.929 . S
H370 C306 0.930 . S
H371 C307 0.929 . S
H372 C310 0.930 . S
H373 C313 0.929 . S
H374 C314 0.930 . S
H375 C318 0.962 . S
H376 C318 0.959 . S
H377 C318 0.958 . S
C378 C379 1.560 1_565 S
C378 H439 0.959 . S
C378 H440 0.959 . S
C378 H441 0.960 . S
C379 C378 1.560 1_545 S
C379 O434 1.426 1_545 S
C379 H438 0.980 . S
C380 C381 1.407 . S
C380 C385 1.418 1_545 S
C380 O434 1.334 1_545 S
C381 C380 1.407 . S
C381 C382 1.360 . S
C381 H442 0.929 . S
C382 C381 1.360 . S
C382 C383 1.401 . S
C382 C386 1.527 . S
C383 C382 1.401 . S
C383 C384 1.405 1_545 S
C383 C416 1.587 . S
C384 C383 1.405 1_565 S
C384 C385 1.332 . S
C384 C387 1.496 . S
C385 C380 1.418 1_565 S
C385 C384 1.332 . S
C385 H443 0.929 . S
C386 C382 1.527 . S
C386 H444 0.959 . S
C386 H445 0.961 . S
C386 H446 0.961 . S
C387 C384 1.496 . S
C387 H447 0.960 . S
C387 H448 0.960 . S
C387 H449 0.961 . S
C388 C389 1.517 . S
C388 H451 0.961 . S
C388 H452 0.960 . S
C388 H453 0.959 . S
C389 C388 1.517 . S
C389 O437 1.468 . S
C389 H450 0.980 . S
C390 C391 1.349 . S
C390 C395 1.367 . S
C390 O437 1.408 . S
C391 C390 1.349 . S
C391 C392 1.407 . S
C391 H454 0.930 . S
C392 C391 1.407 . S
C392 C393 1.449 . S
C392 C396 1.535 1_545 S
C393 C392 1.449 . S
C393 C394 1.384 . S
C393 C418 1.553 . S
C394 C393 1.384 . S
C394 C395 1.364 . S
C394 C397 1.450 . S
C395 C390 1.367 . S
C395 C394 1.364 . S
C395 H455 0.931 . S
C396 C392 1.535 1_565 S
C396 H456 0.972 . S
C396 H457 0.961 . S
C396 H458 0.959 . S
C397 C394 1.450 . S
C397 H459 0.960 . S
C397 H460 0.960 . S
C397 H461 0.960 . S
C398 C399 1.309 . S
C398 C403 1.304 . S
C398 O436 1.435 . S
C399 C398 1.309 . S
C399 C400 1.476 . S
C399 H463 0.930 . S
C400 C399 1.476 . S
C400 C401 1.400 . S
C400 C404 1.567 1_545 S
C401 C400 1.400 . S
C401 C402 1.373 . S
C401 C423 1.432 . S
C402 C401 1.373 . S
C402 C403 1.339 . S
C402 C405 1.530 . S
C403 C398 1.304 . S
C403 C402 1.339 . S
C403 H464 0.930 . S
C404 C400 1.567 1_565 S
C404 H465 0.961 . S
C404 H466 0.960 . S
C404 H467 0.958 . S
C405 C402 1.530 . S
C405 H468 0.961 . S
C405 H469 0.960 . S
C405 H470 0.960 . S
C406 C407 1.530 1_565 S
C406 H472 0.959 1_565 S
C406 H473 0.961 . S
C406 H474 0.960 . S
C407 C406 1.530 1_545 S
C407 O435 1.422 . S
C407 H471 0.980 . S
C408 C409 1.288 1_545 S
C408 C413 1.377 . S
C408 O435 1.391 . S
C409 C408 1.288 1_565 S
C409 C410 1.369 . S
C409 H475 0.932 . S
C410 C409 1.369 . S
C410 C411 1.398 1_565 S
C410 C414 1.527 . S
C411 C410 1.398 1_545 S
C411 C412 1.380 . S
C411 C425 1.497 . S
C412 C411 1.380 . S
C412 C413 1.383 . S
C412 C415 1.603 . S
C413 C408 1.377 . S
C413 C412 1.383 . S
C413 H476 0.929 . S
C414 C410 1.527 . S
C414 H477 0.961 . S
C414 H478 0.959 . S
C414 H479 0.959 . S
C415 C412 1.603 . S
C415 H480 0.960 . S
C415 H481 0.962 . S
C415 H482 0.961 . S
C416 C383 1.587 . S
C416 C417 1.360 . S
C416 C429 1.412 . S
C417 C416 1.360 . S
C417 C418 1.365 . S
C417 H483 0.929 . S
C418 C393 1.553 . S
C418 C417 1.365 . S
C418 C419 1.404 . S
C419 C418 1.404 . S
C419 C420 1.395 . S
C419 C430 1.451 . S
C420 C419 1.395 . S
C420 C421 1.322 . S
C420 H484 0.930 . S
C421 C420 1.322 . S
C421 C422 1.459 . S
C421 H485 0.929 . S
C422 C421 1.459 . S
C422 C423 1.445 . S
C422 C431 1.395 . S
C423 C401 1.432 . S
C423 C422 1.445 . S
C423 C424 1.370 . S
C424 C423 1.370 . S
C424 C425 1.438 . S
C424 H486 0.930 . S
C425 C411 1.497 . S
C425 C424 1.438 . S
C425 C426 1.360 . S
C426 C425 1.360 . S
C426 C427 1.401 . S
C426 C431 1.446 . S
C427 C426 1.401 . S
C427 C428 1.347 . S
C427 H487 0.929 . S
C428 C427 1.347 . S
C428 C429 1.455 . S
C428 H488 0.930 . S
C429 C416 1.412 . S
C429 C428 1.455 . S
C429 C430 1.331 . S
C430 C419 1.451 . S
C430 C429 1.331 . S
C430 C431 1.497 . S
C431 C422 1.395 . S
C431 C426 1.446 . S
C431 C430 1.497 . S
C432 C433 1.582 . S
C432 H489 0.962 . S
C432 H490 0.959 . S
C432 H491 0.958 . S
C433 C432 1.582 . S
C433 O436 1.458 . S
C433 H462 0.980 . S
O434 C379 1.426 1_565 S
O434 C380 1.334 1_565 S
O435 C407 1.422 . S
O435 C408 1.391 . S
O436 C398 1.435 . S
O436 C433 1.458 . S
O437 C389 1.468 . S
O437 C390 1.408 . S
H438 C379 0.980 . S
H439 C378 0.959 . S
H440 C378 0.959 . S
H441 C378 0.960 . S
H442 C381 0.929 . S
H443 C385 0.929 . S
H444 C386 0.959 . S
H445 C386 0.961 . S
H446 C386 0.961 . S
H447 C387 0.960 . S
H448 C387 0.960 . S
H449 C387 0.961 . S
H450 C389 0.980 . S
H451 C388 0.961 . S
H452 C388 0.960 . S
H453 C388 0.959 . S
H454 C391 0.930 . S
H455 C395 0.931 . S
H456 C396 0.972 . S
H457 C396 0.961 . S
H458 C396 0.959 . S
H459 C397 0.960 . S
H460 C397 0.960 . S
H461 C397 0.960 . S
H462 C433 0.980 . S
H463 C399 0.930 . S
H464 C403 0.930 . S
H465 C404 0.961 . S
H466 C404 0.960 . S
H467 C404 0.958 . S
H468 C405 0.961 . S
H469 C405 0.960 . S
H470 C405 0.960 . S
H471 C407 0.980 . S
H472 C406 0.959 1_545 S
H473 C406 0.961 . S
H474 C406 0.960 . S
H475 C409 0.932 . S
H476 C413 0.929 . S
H477 C414 0.961 . S
H478 C414 0.959 . S
H479 C414 0.959 . S
H480 C415 0.960 . S
H481 C415 0.962 . S
H482 C415 0.961 . S
H483 C417 0.929 . S
H484 C420 0.930 . S
H485 C421 0.929 . S
H486 C424 0.930 . S
H487 C427 0.929 . S
H488 C428 0.930 . S
H489 C432 0.962 . S
H490 C432 0.959 . S
H491 C432 0.958 . S
C492 C493 1.560 . S
C492 H553 0.959 . S
C492 H554 0.959 . S
C492 H555 0.960 . S
C493 C492 1.560 . S
C493 O548 1.426 . S
C493 H552 0.980 . S
C494 C495 1.407 . S
C494 C499 1.418 . S
C494 O548 1.334 . S
C495 C494 1.407 . S
C495 C496 1.360 . S
C495 H556 0.929 . S
C496 C495 1.360 . S
C496 C497 1.401 . S
C496 C500 1.527 . S
C497 C496 1.401 . S
C497 C498 1.405 . S
C497 C530 1.587 . S
C498 C497 1.405 . S
C498 C499 1.332 . S
C498 C501 1.496 . S
C499 C494 1.418 . S
C499 C498 1.332 . S
C499 H557 0.929 . S
C500 C496 1.527 . S
C500 H558 0.959 . S
C500 H559 0.961 . S
C500 H560 0.961 . S
C501 C498 1.496 . S
C501 H561 0.960 . S
C501 H562 0.960 . S
C501 H563 0.961 . S
C502 C503 1.517 . S
C502 H565 0.961 . S
C502 H566 0.960 . S
C502 H567 0.959 . S
C503 C502 1.517 . S
C503 O551 1.468 . S
C503 H564 0.980 . S
C504 C505 1.349 . S
C504 C509 1.367 . S
C504 O551 1.408 . S
C505 C504 1.349 . S
C505 C506 1.407 . S
C505 H568 0.930 . S
C506 C505 1.407 . S
C506 C507 1.449 . S
C506 C510 1.535 . S
C507 C506 1.449 . S
C507 C508 1.384 . S
C507 C532 1.553 . S
C508 C507 1.384 . S
C508 C509 1.364 . S
C508 C511 1.450 . S
C509 C504 1.367 . S
C509 C508 1.364 . S
C509 H569 0.931 . S
C510 C506 1.535 . S
C510 H570 0.959 . S
C510 H571 0.961 . S
C510 H572 0.959 . S
C511 C508 1.450 . S
C511 H573 0.960 . S
C511 H574 0.960 . S
C511 H575 0.960 . S
C512 C513 1.309 . S
C512 C517 1.304 . S
C512 O550 1.435 . S
C513 C512 1.309 . S
C513 C514 1.476 . S
C513 H577 0.930 . S
C514 C513 1.476 . S
C514 C515 1.400 . S
C514 C518 1.567 . S
C515 C514 1.400 . S
C515 C516 1.373 . S
C515 C537 1.432 . S
C516 C515 1.373 . S
C516 C517 1.339 . S
C516 C519 1.530 . S
C517 C512 1.304 . S
C517 C516 1.339 . S
C517 H578 0.930 . S
C518 C514 1.567 . S
C518 H579 0.961 . S
C518 H580 0.960 . S
C518 H581 0.958 . S
C519 C516 1.530 . S
C519 H582 0.961 . S
C519 H583 0.960 . S
C519 H584 0.960 . S
C520 C521 1.530 . S
C520 H586 0.961 . S
C520 H587 0.961 . S
C520 H588 0.959 . S
C521 C520 1.530 . S
C521 O549 1.412 . S
C521 H585 0.980 . S
C522 C523 1.288 . S
C522 C527 1.377 . S
C522 O549 1.393 . S
C523 C522 1.288 . S
C523 C524 1.369 . S
C523 H589 0.932 . S
C524 C523 1.369 . S
C524 C525 1.398 . S
C524 C528 1.527 . S
C525 C524 1.398 . S
C525 C526 1.380 . S
C525 C539 1.497 . S
C526 C525 1.380 . S
C526 C527 1.383 . S
C526 C529 1.603 . S
C527 C522 1.377 . S
C527 C526 1.383 . S
C527 H590 0.929 . S
C528 C524 1.527 . S
C528 H591 0.961 . S
C528 H592 0.959 . S
C528 H593 0.959 . S
C529 C526 1.603 . S
C529 H594 0.960 . S
C529 H595 0.962 . S
C529 H596 0.961 . S
C530 C497 1.587 . S
C530 C531 1.360 . S
C530 C543 1.412 . S
C531 C530 1.360 . S
C531 C532 1.365 . S
C531 H597 0.929 . S
C532 C507 1.553 . S
C532 C531 1.365 . S
C532 C533 1.404 . S
C533 C532 1.404 . S
C533 C534 1.395 . S
C533 C544 1.451 . S
C534 C533 1.395 . S
C534 C535 1.322 . S
C534 H598 0.930 . S
C535 C534 1.322 . S
C535 C536 1.459 . S
C535 H599 0.929 . S
C536 C535 1.459 . S
C536 C537 1.445 . S
C536 C545 1.395 . S
C537 C515 1.432 . S
C537 C536 1.445 . S
C537 C538 1.370 . S
C538 C537 1.370 . S
C538 C539 1.438 . S
C538 H600 0.930 . S
C539 C525 1.497 . S
C539 C538 1.438 . S
C539 C540 1.360 . S
C540 C539 1.360 . S
C540 C541 1.401 . S
C540 C545 1.446 . S
C541 C540 1.401 . S
C541 C542 1.347 . S
C541 H601 0.929 . S
C542 C541 1.347 . S
C542 C543 1.455 . S
C542 H602 0.930 . S
C543 C530 1.412 . S
C543 C542 1.455 . S
C543 C544 1.331 . S
C544 C533 1.451 . S
C544 C543 1.331 . S
C544 C545 1.497 . S
C545 C536 1.395 . S
C545 C540 1.446 . S
C545 C544 1.497 . S
C546 C547 1.582 . S
C546 H603 0.962 . S
C546 H604 0.959 . S
C546 H605 0.958 . S
C547 C546 1.582 . S
C547 O550 1.458 . S
C547 H576 0.980 . S
O548 C493 1.426 . S
O548 C494 1.334 . S
O549 C521 1.412 . S
O549 C522 1.393 . S
O550 C512 1.435 . S
O550 C547 1.458 . S
O551 C503 1.468 . S
O551 C504 1.408 . S
H552 C493 0.980 . S
H553 C492 0.959 . S
H554 C492 0.959 . S
H555 C492 0.960 . S
H556 C495 0.929 . S
H557 C499 0.929 . S
H558 C500 0.959 . S
H559 C500 0.961 . S
H560 C500 0.961 . S
H561 C501 0.960 . S
H562 C501 0.960 . S
H563 C501 0.961 . S
H564 C503 0.980 . S
H565 C502 0.961 . S
H566 C502 0.960 . S
H567 C502 0.959 . S
H568 C505 0.930 . S
H569 C509 0.931 . S
H570 C510 0.959 . S
H571 C510 0.961 . S
H572 C510 0.959 . S
H573 C511 0.960 . S
H574 C511 0.960 . S
H575 C511 0.960 . S
H576 C547 0.980 . S
H577 C513 0.930 . S
H578 C517 0.930 . S
H579 C518 0.961 . S
H580 C518 0.960 . S
H581 C518 0.958 . S
H582 C519 0.961 . S
H583 C519 0.960 . S
H584 C519 0.960 . S
H585 C521 0.980 . S
H586 C520 0.961 . S
H587 C520 0.961 . S
H588 C520 0.959 . S
H589 C523 0.932 . S
H590 C527 0.929 . S
H591 C528 0.961 . S
H592 C528 0.959 . S
H593 C528 0.959 . S
H594 C529 0.960 . S
H595 C529 0.962 . S
H596 C529 0.961 . S
H597 C531 0.929 . S
H598 C534 0.930 . S
H599 C535 0.929 . S
H600 C538 0.930 . S
H601 C541 0.929 . S
H602 C542 0.930 . S
H603 C546 0.962 . S
H604 C546 0.959 . S
H605 C546 0.958 . S
C606 C607 1.369 . S
C606 C608 1.419 . S
C606 H610 0.930 . S
C607 C606 1.369 . S
C607 C616 1.429 . S
C608 C606 1.419 . S
C608 C609 1.363 . S
C608 H611 0.929 . S
C609 C608 1.363 . S
C609 C615 1.428 . S
H610 C606 0.930 . S
H611 C608 0.929 . S
S612 N613 1.613 1_455 S
S612 N614 1.610 . S
N613 S612 1.613 1_655 S
N613 C616 1.350 . S
N614 S612 1.610 . S
N614 C615 1.351 1_455 S
C615 C609 1.428 . S
C615 N614 1.351 1_655 S
C615 C616 1.434 . S
C616 C607 1.429 . S
C616 N613 1.350 . S
C616 C615 1.434 . S
C617 C618 1.369 1_545 S
C617 C619 1.419 . S
C617 H621 0.930 . S
C618 C617 1.369 1_565 S
C618 C627 1.429 . S
C619 C617 1.419 . S
C619 C620 1.363 . S
C619 H622 0.929 . S
C620 C619 1.363 . S
C620 C626 1.428 1_545 S
H621 C617 0.930 . S
H622 C619 0.929 . S
S623 N624 1.613 . S
S623 N625 1.610 . S
N624 S623 1.613 . S
N624 C627 1.350 . S
N625 S623 1.610 . S
N625 C626 1.351 . S
C626 C620 1.428 1_565 S
C626 N625 1.351 . S
C626 C627 1.434 . S
C627 C618 1.429 . S
C627 N624 1.350 . S
C627 C626 1.434 . S
C628 C629 1.369 . S
C628 C630 1.419 . S
C628 H632 0.930 . S
C629 C628 1.369 . S
C629 C638 1.429 . S
C630 C628 1.419 . S
C630 C631 1.363 . S
C630 H633 0.929 . S
C631 C630 1.363 . S
C631 C637 1.428 . S
H632 C628 0.930 . S
H633 C630 0.929 . S
S634 N635 1.613 . S
S634 N636 1.610 . S
N635 S634 1.613 . S
N635 C638 1.350 . S
N636 S634 1.610 . S
N636 C637 1.351 . S
C637 C631 1.428 . S
C637 N636 1.351 . S
C637 C638 1.434 . S
C638 C629 1.429 . S
C638 N635 1.350 . S
C638 C637 1.434 . S
C639 C640 1.369 . S
C639 C641 1.419 . S
C639 H643 0.930 . S
C640 C639 1.369 . S
C640 C649 1.429 . S
C641 C639 1.419 . S
C641 C642 1.363 . S
C641 H644 0.929 1_455 S
C642 C641 1.363 . S
C642 C648 1.428 . S
H643 C639 0.930 . S
H644 C641 0.929 1_655 S
S645 N646 1.613 . S
S645 N647 1.610 . S
N646 S645 1.613 . S
N646 C649 1.350 . S
N647 S645 1.610 . S
N647 C648 1.351 . S
C648 C642 1.428 . S
C648 N647 1.351 . S
C648 C649 1.434 . S
C649 C640 1.429 . S
C649 N646 1.350 . S
C649 C648 1.434 . S
C650 C651 1.369 . S
C650 C652 1.419 . S
C650 H654 0.930 . S
C651 C650 1.369 . S
C651 C660 1.429 . S
C652 C650 1.419 . S
C652 C653 1.363 . S
C652 H655 0.929 . S
C653 C652 1.363 . S
C653 C659 1.428 . S
H654 C650 0.930 . S
H655 C652 0.929 . S
S656 N657 1.613 . S
S656 N658 1.610 . S
N657 S656 1.613 . S
N657 C660 1.350 . S
N658 S656 1.610 . S
N658 C659 1.351 . S
C659 C653 1.428 . S
C659 N658 1.351 . S
C659 C660 1.434 . S
C660 C651 1.429 . S
C660 N657 1.350 . S
C660 C659 1.434 . S
C661 C662 1.369 . S
C661 C663 1.419 . S
C661 H665 0.930 . S
C662 C661 1.369 . S
C662 C671 1.429 . S
C663 C661 1.419 . S
C663 C664 1.363 . S
C663 H666 0.929 . S
C664 C663 1.363 . S
C664 C670 1.428 . S
H665 C661 0.930 . S
H666 C663 0.929 . S
S667 N668 1.613 . S
S667 N669 1.610 . S
N668 S667 1.613 . S
N668 C671 1.350 . S
N669 S667 1.610 . S
N669 C670 1.351 . S
C670 C664 1.428 . S
C670 N669 1.351 . S
C670 C671 1.434 . S
C671 C662 1.429 . S
C671 N668 1.350 . S
C671 C670 1.434 . S
C672 C673 1.369 . S
C672 C674 1.419 . S
C672 H676 0.930 . S
C673 C672 1.369 . S
C673 C682 1.429 . S
C674 C672 1.419 . S
C674 C675 1.363 . S
C674 H677 0.929 1_545 S
C675 C674 1.363 . S
C675 C681 1.428 . S
H676 C672 0.930 . S
H677 C674 0.929 1_565 S
S678 N679 1.613 . S
S678 N680 1.610 . S
N679 S678 1.613 . S
N679 C682 1.350 . S
N680 S678 1.610 . S
N680 C681 1.351 . S
C681 C675 1.428 . S
C681 N680 1.351 . S
C681 C682 1.434 . S
C682 C673 1.429 . S
C682 N679 1.350 . S
C682 C681 1.434 . S
C683 C684 1.369 . S
C683 C685 1.419 . S
C683 H687 0.912 1_556 S
C684 C683 1.369 . S
C684 C693 1.429 . S
C685 C683 1.419 . S
C685 C686 1.363 . S
C685 H688 0.929 . S
C686 C685 1.363 . S
C686 C692 1.428 . S
H687 C683 0.912 1_554 S
H688 C685 0.929 . S
S689 N690 1.613 . S
S689 N691 1.610 . S
N690 S689 1.613 . S
N690 C693 1.350 . S
N691 S689 1.610 . S
N691 C692 1.351 . S
C692 C686 1.428 . S
C692 N691 1.351 . S
C692 C693 1.434 . S
C693 C684 1.429 . S
C693 N690 1.350 . S
C693 C692 1.434 . S
C694 C695 1.369 . S
C694 C696 1.419 . S
C694 H698 0.930 . S
C695 C694 1.369 . S
C695 C704 1.429 1_655 S
C696 C694 1.419 . S
C696 C697 1.363 1_655 S
C696 H699 0.929 . S
C697 C696 1.363 1_455 S
C697 C703 1.428 . S
H698 C694 0.930 . S
H699 C696 0.929 . S
S700 N701 1.613 . S
S700 N702 1.610 . S
N701 S700 1.613 . S
N701 C704 1.350 . S
N702 S700 1.610 . S
N702 C703 1.351 . S
C703 C697 1.428 . S
C703 N702 1.351 . S
C703 C704 1.434 . S
C704 C695 1.429 1_455 S
C704 N701 1.350 . S
C704 C703 1.434 . S
C705 C706 1.369 1_545 S
C705 C707 1.419 . S
C705 H709 0.930 . S
C706 C705 1.369 1_565 S
C706 C715 1.429 . S
C707 C705 1.419 . S
C707 C708 1.363 . S
C707 H710 0.929 . S
C708 C707 1.363 . S
C708 C714 1.422 1_545 S
H709 C705 0.930 . S
H710 C707 0.929 . S
S711 N712 1.613 . S
S711 N713 1.610 . S
N712 S711 1.613 . S
N712 C715 1.350 . S
N713 S711 1.610 . S
N713 C714 1.359 . S
C714 C708 1.422 1_565 S
C714 N713 1.359 . S
C714 C715 1.433 . S
C715 C706 1.429 . S
C715 N712 1.350 . S
C715 C714 1.433 . S
C716 C717 1.369 . S
C716 C718 1.419 . S
C716 H720 0.930 1_556 S
C717 C716 1.369 . S
C717 C726 1.429 . S
C718 C716 1.419 . S
C718 C719 1.363 . S
C718 H721 0.929 . S
C719 C718 1.363 . S
C719 C725 1.428 . S
H720 C716 0.930 1_554 S
H721 C718 0.929 . S
S722 N723 1.613 . S
S722 N724 1.610 . S
N723 S722 1.613 . S
N723 C726 1.350 . S
N724 S722 1.610 . S
N724 C725 1.351 . S
C725 C719 1.428 . S
C725 N724 1.351 . S
C725 C726 1.434 . S
C726 C717 1.429 . S
C726 N723 1.350 . S
C726 C725 1.434 . S
C727 C728 1.369 . S
C727 C729 1.419 . S
C727 H731 0.930 . S
C728 C727 1.369 . S
C728 C737 1.429 . S
C729 C727 1.419 . S
C729 C730 1.363 . S
C729 H732 0.929 . S
C730 C729 1.363 . S
C730 C736 1.428 . S
H731 C727 0.930 . S
H732 C729 0.929 . S
S733 N734 1.613 . S
S733 N735 1.610 . S
N734 S733 1.613 . S
N734 C737 1.350 1_655 S
N735 S733 1.610 . S
N735 C736 1.351 1_655 S
C736 C730 1.428 . S
C736 N735 1.351 1_455 S
C736 C737 1.434 . S
C737 C728 1.429 . S
C737 N734 1.350 1_455 S
C737 C736 1.434 . S
C609 C319 1.293 1_655 S
C607 C29 1.544 . S
C618 C137 1.549 . S
C620 C433 1.307 . S
C629 C225 1.320 . S
C631 C493 0.984 . S
C640 C49 1.400 . S
C642 C293 1.242 . S
C653 C407 1.240 . S
C651 C117 1.398 . S
C662 C205 1.479 . S
C664 C503 0.760 . S
C675 C389 0.750 . S
C673 C233 1.480 . S
C684 C57 1.400 1_556 S
C686 C521 1.233 . S
C697 C265 0.988 1_455 S
C695 C108 1.302 . S
C708 C379 0.977 . S
C706 C196 1.318 . S
C719 C547 1.304 . S
C717 C20 1.549 1_556 S
C728 C145 1.481 . S
C730 C275 0.768 . S
