# Generated by pormake.
# Topology tbo, (3,4)-cn, num edge types: 1
# Building blocks:
#     Node 0, Type 0, BuildingBlock: KAKCAD_clean_linker_0, # of connection points: 3
#     Node 1, Type 0, BuildingBlock: KAKCAD_clean_linker_0, # of connection points: 3
#     Node 2, Type 0, BuildingBlock: KAKCAD_clean_linker_0, # of connection points: 3
#     Node 3, Type 0, BuildingBlock: KAKCAD_clean_linker_0, # of connection points: 3
#     Node 4, Type 0, BuildingBlock: KAKCAD_clean_linker_0, # of connection points: 3
#     Node 5, Type 0, BuildingBlock: KAKCAD_clean_linker_0, # of connection points: 3
#     Node 6, Type 0, BuildingBlock: KAKCAD_clean_linker_0, # of connection points: 3
#     Node 7, Type 0, BuildingBlock: KAKCAD_clean_linker_0, # of connection points: 3
#     Node 8, Type 0, BuildingBlock: KAKCAD_clean_linker_0, # of connection points: 3
#     Node 9, Type 0, BuildingBlock: KAKCAD_clean_linker_0, # of connection points: 3
#     Node 10, Type 0, BuildingBlock: KAKCAD_clean_linker_0, # of connection points: 3
#     Node 11, Type 0, BuildingBlock: KAKCAD_clean_linker_0, # of connection points: 3
#     Node 12, Type 0, BuildingBlock: KAKCAD_clean_linker_0, # of connection points: 3
#     Node 13, Type 0, BuildingBlock: KAKCAD_clean_linker_0, # of connection points: 3
#     Node 14, Type 0, BuildingBlock: KAKCAD_clean_linker_0, # of connection points: 3
#     Node 15, Type 0, BuildingBlock: KAKCAD_clean_linker_0, # of connection points: 3
#     Node 16, Type 0, BuildingBlock: KAKCAD_clean_linker_0, # of connection points: 3
#     Node 17, Type 0, BuildingBlock: KAKCAD_clean_linker_0, # of connection points: 3
#     Node 18, Type 0, BuildingBlock: KAKCAD_clean_linker_0, # of connection points: 3
#     Node 19, Type 0, BuildingBlock: KAKCAD_clean_linker_0, # of connection points: 3
#     Node 20, Type 0, BuildingBlock: KAKCAD_clean_linker_0, # of connection points: 3
#     Node 21, Type 0, BuildingBlock: KAKCAD_clean_linker_0, # of connection points: 3
#     Node 22, Type 0, BuildingBlock: KAKCAD_clean_linker_0, # of connection points: 3
#     Node 23, Type 0, BuildingBlock: KAKCAD_clean_linker_0, # of connection points: 3
#     Node 24, Type 0, BuildingBlock: KAKCAD_clean_linker_0, # of connection points: 3
#     Node 25, Type 0, BuildingBlock: KAKCAD_clean_linker_0, # of connection points: 3
#     Node 26, Type 0, BuildingBlock: KAKCAD_clean_linker_0, # of connection points: 3
#     Node 27, Type 0, BuildingBlock: KAKCAD_clean_linker_0, # of connection points: 3
#     Node 28, Type 0, BuildingBlock: KAKCAD_clean_linker_0, # of connection points: 3
#     Node 29, Type 0, BuildingBlock: KAKCAD_clean_linker_0, # of connection points: 3
#     Node 30, Type 0, BuildingBlock: KAKCAD_clean_linker_0, # of connection points: 3
#     Node 31, Type 0, BuildingBlock: KAKCAD_clean_linker_0, # of connection points: 3
#     Node 32, Type 1, BuildingBlock: ESEHIV_clean_sbu_0, # of connection points: 4
#     Node 33, Type 1, BuildingBlock: ESEHIV_clean_sbu_0, # of connection points: 4
#     Node 34, Type 1, BuildingBlock: ESEHIV_clean_sbu_0, # of connection points: 4
#     Node 35, Type 1, BuildingBlock: ESEHIV_clean_sbu_0, # of connection points: 4
#     Node 36, Type 1, BuildingBlock: ESEHIV_clean_sbu_0, # of connection points: 4
#     Node 37, Type 1, BuildingBlock: ESEHIV_clean_sbu_0, # of connection points: 4
#     Node 38, Type 1, BuildingBlock: ESEHIV_clean_sbu_0, # of connection points: 4
#     Node 39, Type 1, BuildingBlock: ESEHIV_clean_sbu_0, # of connection points: 4
#     Node 40, Type 1, BuildingBlock: ESEHIV_clean_sbu_0, # of connection points: 4
#     Node 41, Type 1, BuildingBlock: ESEHIV_clean_sbu_0, # of connection points: 4
#     Node 42, Type 1, BuildingBlock: ESEHIV_clean_sbu_0, # of connection points: 4
#     Node 43, Type 1, BuildingBlock: ESEHIV_clean_sbu_0, # of connection points: 4
#     Node 44, Type 1, BuildingBlock: ESEHIV_clean_sbu_0, # of connection points: 4
#     Node 45, Type 1, BuildingBlock: ESEHIV_clean_sbu_0, # of connection points: 4
#     Node 46, Type 1, BuildingBlock: ESEHIV_clean_sbu_0, # of connection points: 4
#     Node 47, Type 1, BuildingBlock: ESEHIV_clean_sbu_0, # of connection points: 4
#     Node 48, Type 1, BuildingBlock: ESEHIV_clean_sbu_0, # of connection points: 4
#     Node 49, Type 1, BuildingBlock: ESEHIV_clean_sbu_0, # of connection points: 4
#     Node 50, Type 1, BuildingBlock: ESEHIV_clean_sbu_0, # of connection points: 4
#     Node 51, Type 1, BuildingBlock: ESEHIV_clean_sbu_0, # of connection points: 4
#     Node 52, Type 1, BuildingBlock: ESEHIV_clean_sbu_0, # of connection points: 4
#     Node 53, Type 1, BuildingBlock: ESEHIV_clean_sbu_0, # of connection points: 4
#     Node 54, Type 1, BuildingBlock: ESEHIV_clean_sbu_0, # of connection points: 4
#     Node 55, Type 1, BuildingBlock: ESEHIV_clean_sbu_0, # of connection points: 4
#     Edge 56, Type (0, 1), BuildingBlock: TEMPAE_clean_linker_10, # of connection points: 2
#     Edge 57, Type (0, 1), BuildingBlock: TEMPAE_clean_linker_10, # of connection points: 2
#     Edge 58, Type (0, 1), BuildingBlock: TEMPAE_clean_linker_10, # of connection points: 2
#     Edge 59, Type (0, 1), BuildingBlock: TEMPAE_clean_linker_10, # of connection points: 2
#     Edge 60, Type (0, 1), BuildingBlock: TEMPAE_clean_linker_10, # of connection points: 2
#     Edge 61, Type (0, 1), BuildingBlock: TEMPAE_clean_linker_10, # of connection points: 2
#     Edge 62, Type (0, 1), BuildingBlock: TEMPAE_clean_linker_10, # of connection points: 2
#     Edge 63, Type (0, 1), BuildingBlock: TEMPAE_clean_linker_10, # of connection points: 2
#     Edge 64, Type (0, 1), BuildingBlock: TEMPAE_clean_linker_10, # of connection points: 2
#     Edge 65, Type (0, 1), BuildingBlock: TEMPAE_clean_linker_10, # of connection points: 2
#     Edge 66, Type (0, 1), BuildingBlock: TEMPAE_clean_linker_10, # of connection points: 2
#     Edge 67, Type (0, 1), BuildingBlock: TEMPAE_clean_linker_10, # of connection points: 2
#     Edge 68, Type (0, 1), BuildingBlock: TEMPAE_clean_linker_10, # of connection points: 2
#     Edge 69, Type (0, 1), BuildingBlock: TEMPAE_clean_linker_10, # of connection points: 2
#     Edge 70, Type (0, 1), BuildingBlock: TEMPAE_clean_linker_10, # of connection points: 2
#     Edge 71, Type (0, 1), BuildingBlock: TEMPAE_clean_linker_10, # of connection points: 2
#     Edge 72, Type (0, 1), BuildingBlock: TEMPAE_clean_linker_10, # of connection points: 2
#     Edge 73, Type (0, 1), BuildingBlock: TEMPAE_clean_linker_10, # of connection points: 2
#     Edge 74, Type (0, 1), BuildingBlock: TEMPAE_clean_linker_10, # of connection points: 2
#     Edge 75, Type (0, 1), BuildingBlock: TEMPAE_clean_linker_10, # of connection points: 2
#     Edge 76, Type (0, 1), BuildingBlock: TEMPAE_clean_linker_10, # of connection points: 2
#     Edge 77, Type (0, 1), BuildingBlock: TEMPAE_clean_linker_10, # of connection points: 2
#     Edge 78, Type (0, 1), BuildingBlock: TEMPAE_clean_linker_10, # of connection points: 2
#     Edge 79, Type (0, 1), BuildingBlock: TEMPAE_clean_linker_10, # of connection points: 2
#     Edge 80, Type (0, 1), BuildingBlock: TEMPAE_clean_linker_10, # of connection points: 2
#     Edge 81, Type (0, 1), BuildingBlock: TEMPAE_clean_linker_10, # of connection points: 2
#     Edge 82, Type (0, 1), BuildingBlock: TEMPAE_clean_linker_10, # of connection points: 2
#     Edge 83, Type (0, 1), BuildingBlock: TEMPAE_clean_linker_10, # of connection points: 2
#     Edge 84, Type (0, 1), BuildingBlock: TEMPAE_clean_linker_10, # of connection points: 2
#     Edge 85, Type (0, 1), BuildingBlock: TEMPAE_clean_linker_10, # of connection points: 2
#     Edge 86, Type (0, 1), BuildingBlock: TEMPAE_clean_linker_10, # of connection points: 2
#     Edge 87, Type (0, 1), BuildingBlock: TEMPAE_clean_linker_10, # of connection points: 2
#     Edge 88, Type (0, 1), BuildingBlock: TEMPAE_clean_linker_10, # of connection points: 2
#     Edge 89, Type (0, 1), BuildingBlock: TEMPAE_clean_linker_10, # of connection points: 2
#     Edge 90, Type (0, 1), BuildingBlock: TEMPAE_clean_linker_10, # of connection points: 2
#     Edge 91, Type (0, 1), BuildingBlock: TEMPAE_clean_linker_10, # of connection points: 2
#     Edge 92, Type (0, 1), BuildingBlock: TEMPAE_clean_linker_10, # of connection points: 2
#     Edge 93, Type (0, 1), BuildingBlock: TEMPAE_clean_linker_10, # of connection points: 2
#     Edge 94, Type (0, 1), BuildingBlock: TEMPAE_clean_linker_10, # of connection points: 2
#     Edge 95, Type (0, 1), BuildingBlock: TEMPAE_clean_linker_10, # of connection points: 2
#     Edge 96, Type (0, 1), BuildingBlock: TEMPAE_clean_linker_10, # of connection points: 2
#     Edge 97, Type (0, 1), BuildingBlock: TEMPAE_clean_linker_10, # of connection points: 2
#     Edge 98, Type (0, 1), BuildingBlock: TEMPAE_clean_linker_10, # of connection points: 2
#     Edge 99, Type (0, 1), BuildingBlock: TEMPAE_clean_linker_10, # of connection points: 2
#     Edge 100, Type (0, 1), BuildingBlock: TEMPAE_clean_linker_10, # of connection points: 2
#     Edge 101, Type (0, 1), BuildingBlock: TEMPAE_clean_linker_10, # of connection points: 2
#     Edge 102, Type (0, 1), BuildingBlock: TEMPAE_clean_linker_10, # of connection points: 2
#     Edge 103, Type (0, 1), BuildingBlock: TEMPAE_clean_linker_10, # of connection points: 2
#     Edge 104, Type (0, 1), BuildingBlock: TEMPAE_clean_linker_10, # of connection points: 2
#     Edge 105, Type (0, 1), BuildingBlock: TEMPAE_clean_linker_10, # of connection points: 2
#     Edge 106, Type (0, 1), BuildingBlock: TEMPAE_clean_linker_10, # of connection points: 2
#     Edge 107, Type (0, 1), BuildingBlock: TEMPAE_clean_linker_10, # of connection points: 2
#     Edge 108, Type (0, 1), BuildingBlock: TEMPAE_clean_linker_10, # of connection points: 2
#     Edge 109, Type (0, 1), BuildingBlock: TEMPAE_clean_linker_10, # of connection points: 2
#     Edge 110, Type (0, 1), BuildingBlock: TEMPAE_clean_linker_10, # of connection points: 2
#     Edge 111, Type (0, 1), BuildingBlock: TEMPAE_clean_linker_10, # of connection points: 2
#     Edge 112, Type (0, 1), BuildingBlock: TEMPAE_clean_linker_10, # of connection points: 2
#     Edge 113, Type (0, 1), BuildingBlock: TEMPAE_clean_linker_10, # of connection points: 2
#     Edge 114, Type (0, 1), BuildingBlock: TEMPAE_clean_linker_10, # of connection points: 2
#     Edge 115, Type (0, 1), BuildingBlock: TEMPAE_clean_linker_10, # of connection points: 2
#     Edge 116, Type (0, 1), BuildingBlock: TEMPAE_clean_linker_10, # of connection points: 2
#     Edge 117, Type (0, 1), BuildingBlock: TEMPAE_clean_linker_10, # of connection points: 2
#     Edge 118, Type (0, 1), BuildingBlock: TEMPAE_clean_linker_10, # of connection points: 2
#     Edge 119, Type (0, 1), BuildingBlock: TEMPAE_clean_linker_10, # of connection points: 2
#     Edge 120, Type (0, 1), BuildingBlock: TEMPAE_clean_linker_10, # of connection points: 2
#     Edge 121, Type (0, 1), BuildingBlock: TEMPAE_clean_linker_10, # of connection points: 2
#     Edge 122, Type (0, 1), BuildingBlock: TEMPAE_clean_linker_10, # of connection points: 2
#     Edge 123, Type (0, 1), BuildingBlock: TEMPAE_clean_linker_10, # of connection points: 2
#     Edge 124, Type (0, 1), BuildingBlock: TEMPAE_clean_linker_10, # of connection points: 2
#     Edge 125, Type (0, 1), BuildingBlock: TEMPAE_clean_linker_10, # of connection points: 2
#     Edge 126, Type (0, 1), BuildingBlock: TEMPAE_clean_linker_10, # of connection points: 2
#     Edge 127, Type (0, 1), BuildingBlock: TEMPAE_clean_linker_10, # of connection points: 2
#     Edge 128, Type (0, 1), BuildingBlock: TEMPAE_clean_linker_10, # of connection points: 2
#     Edge 129, Type (0, 1), BuildingBlock: TEMPAE_clean_linker_10, # of connection points: 2
#     Edge 130, Type (0, 1), BuildingBlock: TEMPAE_clean_linker_10, # of connection points: 2
#     Edge 131, Type (0, 1), BuildingBlock: TEMPAE_clean_linker_10, # of connection points: 2
#     Edge 132, Type (0, 1), BuildingBlock: TEMPAE_clean_linker_10, # of connection points: 2
#     Edge 133, Type (0, 1), BuildingBlock: TEMPAE_clean_linker_10, # of connection points: 2
#     Edge 134, Type (0, 1), BuildingBlock: TEMPAE_clean_linker_10, # of connection points: 2
#     Edge 135, Type (0, 1), BuildingBlock: TEMPAE_clean_linker_10, # of connection points: 2
#     Edge 136, Type (0, 1), BuildingBlock: TEMPAE_clean_linker_10, # of connection points: 2
#     Edge 137, Type (0, 1), BuildingBlock: TEMPAE_clean_linker_10, # of connection points: 2
#     Edge 138, Type (0, 1), BuildingBlock: TEMPAE_clean_linker_10, # of connection points: 2
#     Edge 139, Type (0, 1), BuildingBlock: TEMPAE_clean_linker_10, # of connection points: 2
#     Edge 140, Type (0, 1), BuildingBlock: TEMPAE_clean_linker_10, # of connection points: 2
#     Edge 141, Type (0, 1), BuildingBlock: TEMPAE_clean_linker_10, # of connection points: 2
#     Edge 142, Type (0, 1), BuildingBlock: TEMPAE_clean_linker_10, # of connection points: 2
#     Edge 143, Type (0, 1), BuildingBlock: TEMPAE_clean_linker_10, # of connection points: 2
#     Edge 144, Type (0, 1), BuildingBlock: TEMPAE_clean_linker_10, # of connection points: 2
#     Edge 145, Type (0, 1), BuildingBlock: TEMPAE_clean_linker_10, # of connection points: 2
#     Edge 146, Type (0, 1), BuildingBlock: TEMPAE_clean_linker_10, # of connection points: 2
#     Edge 147, Type (0, 1), BuildingBlock: TEMPAE_clean_linker_10, # of connection points: 2
#     Edge 148, Type (0, 1), BuildingBlock: TEMPAE_clean_linker_10, # of connection points: 2
#     Edge 149, Type (0, 1), BuildingBlock: TEMPAE_clean_linker_10, # of connection points: 2
#     Edge 150, Type (0, 1), BuildingBlock: TEMPAE_clean_linker_10, # of connection points: 2
#     Edge 151, Type (0, 1), BuildingBlock: TEMPAE_clean_linker_10, # of connection points: 2
# Relax obj value: 0.002
# Max RMSD: 0.116
# Mean RMSD: 0.048
data_MOF--net-tbo--node1-ESEHIV_clean_sbu_0--node2-KAKCAD_clean_linker_0--edge1-TEMPAE_clean_linker_10
_symmetry_space_group_name_H-M    P1
_symmetry_Int_Tables_number       1
_symmetry_cell_setting            triclinic
loop_
_symmetry_equiv_pos_as_xyz
'x, y, z'
_cell_length_a     91.992383
_cell_length_b     91.784901
_cell_length_c     91.683348
_cell_angle_alpha  90.348752
_cell_angle_beta   91.910159
_cell_angle_gamma 90.802447
loop_
_atom_site_label
_atom_site_type_symbol
_atom_site_fract_x
_atom_site_fract_y
_atom_site_fract_z
_atom_type_partial_charge
C0 C 0.21381 0.17048 0.14003 0.0
C1 C 0.21833 0.18516 0.1396 0.0
C2 C 0.20547 0.16536 0.15143 0.0
C3 C 0.20147 0.17476 0.16273 0.0
C4 C 0.20587 0.18948 0.16226 0.0
C5 C 0.21421 0.19462 0.15083 0.0
C6 C 0.19297 0.1691 0.17507 0.0
C7 C 0.1962 0.15547 0.1811 0.0
C8 C 0.18813 0.1497 0.1925 0.0
C9 C 0.17671 0.1579 0.19809 0.0
C10 C 0.17337 0.1717 0.19227 0.0
C11 C 0.18158 0.17717 0.18078 0.0
C12 C 0.16111 0.18039 0.1978 0.0
C13 C 0.1474 0.17392 0.19985 0.0
C14 C 0.16287 0.19544 0.20032 0.0
C15 C 0.15114 0.20389 0.20446 0.0
C16 C 0.13728 0.19755 0.20608 0.0
C17 C 0.19193 0.1351 0.19841 0.0
C18 C 0.19506 0.12364 0.18881 0.0
C19 C 0.19346 0.13274 0.21351 0.0
C20 C 0.19852 0.11938 0.21885 0.0
C21 C 0.20212 0.1081 0.2092 0.0
C22 C 0.20007 0.11034 0.19412 0.0
C23 C 0.13561 0.1824 0.20388 0.0
H24 H 0.21689 0.16287 0.13165 0.0
H25 H 0.20211 0.154 0.15134 0.0
H26 H 0.20307 0.19699 0.17084 0.0
H27 H 0.21736 0.20603 0.15074 0.0
H28 H 0.20527 0.1494 0.17706 0.0
H29 H 0.1788 0.18756 0.17596 0.0
H30 H 0.17042 0.15355 0.20689 0.0
H31 H 0.14566 0.16237 0.19784 0.0
H32 H 0.17335 0.20072 0.19904 0.0
H33 H 0.15297 0.21543 0.20639 0.0
H34 H 0.19375 0.12502 0.17711 0.0
H35 H 0.19125 0.1414 0.22118 0.0
H36 H 0.12509 0.17712 0.20485 0.0
H37 H 0.20236 0.10178 0.18638 0.0
H38 H 0.20003 0.11806 0.23053 0.0
C39 C 0.9042 0.21816 0.19763 0.0
C40 C 0.91342 0.20726 0.20325 0.0
C41 C 0.89136 0.21448 0.18969 0.0
C42 C 0.88735 0.1998 0.18718 0.0
C43 C 0.89666 0.18892 0.19264 0.0
C44 C 0.9095 0.19259 0.20055 0.0
C45 C 0.87331 0.19583 0.17935 0.0
C46 C 0.86843 0.20354 0.16688 0.0
C47 C 0.85505 0.19993 0.15965 0.0
C48 C 0.8465 0.18856 0.1653 0.0
C49 C 0.85126 0.18057 0.17751 0.0
C50 C 0.86466 0.18427 0.18445 0.0
C51 C 0.84228 0.16818 0.18281 0.0
C52 C 0.82718 0.16957 0.18414 0.0
C53 C 0.84865 0.1547 0.18605 0.0
C54 C 0.84009 0.14281 0.19022 0.0
C55 C 0.82493 0.14411 0.19139 0.0
C56 C 0.84991 0.20778 0.14616 0.0
C57 C 0.85267 0.2228 0.14435 0.0
C58 C 0.84181 0.20031 0.13505 0.0
C59 C 0.83618 0.20767 0.12286 0.0
C60 C 0.83875 0.22266 0.12121 0.0
C61 C 0.84724 0.23012 0.13196 0.0
C62 C 0.81863 0.15771 0.18843 0.0
H63 H 0.90674 0.22956 0.19963 0.0
H64 H 0.88438 0.22314 0.18583 0.0
H65 H 0.89406 0.17751 0.19073 0.0
H66 H 0.91643 0.1839 0.20442 0.0
H67 H 0.87527 0.21209 0.1626 0.0
H68 H 0.86816 0.17835 0.19411 0.0
H69 H 0.83608 0.18577 0.1601 0.0
H70 H 0.82197 0.17987 0.18191 0.0
H71 H 0.86023 0.15324 0.18496 0.0
H72 H 0.84533 0.13248 0.19218 0.0
H73 H 0.85871 0.22901 0.15266 0.0
H74 H 0.83979 0.18869 0.13571 0.0
H75 H 0.80706 0.15925 0.18949 0.0
H76 H 0.84935 0.24171 0.13097 0.0
H77 H 0.82987 0.2016 0.11463 0.0
C78 C 0.82841 0.83446 0.14657 0.0
C79 C 0.82702 0.84257 0.1336 0.0
C80 C 0.83405 0.8409 0.15947 0.0
C81 C 0.83818 0.85568 0.15986 0.0
C82 C 0.83667 0.8639 0.14705 0.0
C83 C 0.8313 0.8574 0.13405 0.0
C84 C 0.8443 0.86237 0.17358 0.0
C85 C 0.85599 0.85575 0.18108 0.0
C86 C 0.86183 0.86166 0.19425 0.0
C87 C 0.85559 0.87434 0.19992 0.0
C88 C 0.84393 0.88123 0.19254 0.0
C89 C 0.83844 0.8752 0.17927 0.0
C90 C 0.83756 0.8947 0.19879 0.0
C91 C 0.83564 0.89604 0.21391 0.0
C92 C 0.83362 0.90644 0.18976 0.0
C93 C 0.82809 0.91923 0.19572 0.0
C94 C 0.82636 0.92063 0.21086 0.0
C95 C 0.8745 0.8547 0.20198 0.0
C96 C 0.87607 0.83945 0.20187 0.0
C97 C 0.88524 0.86326 0.20942 0.0
C98 C 0.89713 0.85677 0.21659 0.0
C99 C 0.89873 0.84158 0.21627 0.0
C100 C 0.88811 0.83299 0.20882 0.0
C101 C 0.83014 0.90883 0.21986 0.0
H102 H 0.82494 0.82316 0.14688 0.0
H103 H 0.83498 0.83435 0.16924 0.0
H104 H 0.83993 0.87528 0.14702 0.0
H105 H 0.8307 0.864 0.12431 0.0
H106 H 0.86076 0.84615 0.17638 0.0
H107 H 0.82931 0.8802 0.17357 0.0
H108 H 0.85986 0.87893 0.21012 0.0
H109 H 0.83828 0.88713 0.22117 0.0
H110 H 0.83512 0.90588 0.17811 0.0
H111 H 0.82545 0.92816 0.18847 0.0
H112 H 0.86794 0.83243 0.19654 0.0
H113 H 0.88465 0.87503 0.20953 0.0
H114 H 0.82871 0.90942 0.23152 0.0
H115 H 0.88902 0.82124 0.20853 0.0
H116 H 0.90526 0.86365 0.22212 0.0
C117 C 0.18099 0.81174 0.1142 0.0
C118 C 0.19623 0.81345 0.11492 0.0
C119 C 0.17275 0.81435 0.12651 0.0
C120 C 0.17956 0.81885 0.13977 0.0
C121 C 0.1948 0.82041 0.1405 0.0
C122 C 0.20303 0.81772 0.12825 0.0
C123 C 0.17088 0.82232 0.15273 0.0
C124 C 0.15931 0.81317 0.15688 0.0
C125 C 0.15161 0.81627 0.16952 0.0
C126 C 0.1553 0.82883 0.17774 0.0
C127 C 0.1666 0.83821 0.17364 0.0
C128 C 0.17436 0.83484 0.16116 0.0
C129 C 0.17036 0.85144 0.18252 0.0
C130 C 0.15935 0.86024 0.18797 0.0
C131 C 0.18496 0.85526 0.1858 0.0
C132 C 0.18847 0.86751 0.19442 0.0
C133 C 0.17746 0.87626 0.19994 0.0
C134 C 0.13985 0.80641 0.17452 0.0
C135 C 0.12837 0.80183 0.165 0.0
C136 C 0.13957 0.80236 0.18926 0.0
C137 C 0.12781 0.79446 0.19453 0.0
C138 C 0.11597 0.79041 0.18521 0.0
C139 C 0.11648 0.79398 0.17032 0.0
C140 C 0.16286 0.87251 0.19656 0.0
H141 H 0.17543 0.8083 0.10413 0.0
H142 H 0.16103 0.81313 0.12557 0.0
H143 H 0.20041 0.82371 0.15059 0.0
H144 H 0.21472 0.81924 0.12915 0.0
H145 H 0.15665 0.80339 0.15061 0.0
H146 H 0.18296 0.84215 0.15781 0.0
H147 H 0.14938 0.83126 0.18747 0.0
H148 H 0.148 0.85768 0.18553 0.0
H149 H 0.19369 0.84865 0.18187 0.0
H150 H 0.19983 0.8702 0.19668 0.0
H151 H 0.12829 0.80484 0.15359 0.0
H152 H 0.14834 0.80561 0.19682 0.0
H153 H 0.15412 0.87895 0.20073 0.0
H154 H 0.10757 0.79095 0.16284 0.0
H155 H 0.12773 0.79208 0.20608 0.0
C156 C 0.12316 0.82896 0.82683 0.0
C157 C 0.12143 0.82923 0.81152 0.0
C158 C 0.13634 0.83327 0.83375 0.0
C159 C 0.14814 0.838 0.82554 0.0
C160 C 0.14646 0.83811 0.81022 0.0
C161 C 0.13329 0.8338 0.80331 0.0
C162 C 0.16202 0.84314 0.8329 0.0
C163 C 0.16795 0.83582 0.8451 0.0
C164 C 0.18095 0.84077 0.85222 0.0
C165 C 0.18806 0.85326 0.8468 0.0
C166 C 0.18237 0.86066 0.8345 0.0
C167 C 0.16932 0.85553 0.82774 0.0
C168 C 0.18982 0.87383 0.8286 0.0
C169 C 0.19546 0.88491 0.83792 0.0
C170 C 0.19077 0.87567 0.81343 0.0
C171 C 0.19687 0.88837 0.80771 0.0
C172 C 0.20223 0.89961 0.81699 0.0
C173 C 0.18705 0.83277 0.8652 0.0
C174 C 0.17777 0.82677 0.87557 0.0
C175 C 0.20214 0.83084 0.86724 0.0
C176 C 0.20776 0.82309 0.87926 0.0
C177 C 0.19844 0.817 0.88954 0.0
C178 C 0.18338 0.81897 0.88753 0.0
C179 C 0.20154 0.89767 0.83218 0.0
H180 H 0.11421 0.82569 0.83352 0.0
H181 H 0.13717 0.83323 0.84556 0.0
H182 H 0.15539 0.84145 0.80354 0.0
H183 H 0.13244 0.8339 0.7915 0.0
H184 H 0.16258 0.82603 0.84885 0.0
H185 H 0.1646 0.86146 0.81861 0.0
H186 H 0.19803 0.85723 0.85215 0.0
H187 H 0.19483 0.8839 0.84964 0.0
H188 H 0.1867 0.8673 0.80592 0.0
H189 H 0.19707 0.8895 0.79597 0.0
H190 H 0.16612 0.82824 0.87457 0.0
H191 H 0.20963 0.83508 0.8594 0.0
H192 H 0.20571 0.90603 0.83966 0.0
H193 H 0.17589 0.81468 0.89536 0.0
H194 H 0.21941 0.82166 0.88036 0.0
C195 C 0.22541 0.18966 0.91476 0.0
C196 C 0.22543 0.20494 0.91619 0.0
C197 C 0.22051 0.18289 0.90173 0.0
C198 C 0.21548 0.19124 0.88986 0.0
C199 C 0.21583 0.20652 0.89118 0.0
C200 C 0.22075 0.21328 0.90416 0.0
C201 C 0.20924 0.18416 0.87635 0.0
C202 C 0.19621 0.1893 0.87005 0.0
C203 C 0.19004 0.18296 0.85729 0.0
C204 C 0.19723 0.17139 0.85061 0.0
C205 C 0.21024 0.16581 0.85684 0.0
C206 C 0.21608 0.17228 0.86981 0.0
C207 C 0.21765 0.15321 0.84992 0.0
C208 C 0.20951 0.14186 0.84301 0.0
C209 C 0.23294 0.15233 0.85023 0.0
C210 C 0.23985 0.14045 0.84394 0.0
C211 C 0.23168 0.12921 0.83698 0.0
C212 C 0.17602 0.18855 0.85118 0.0
C213 C 0.16449 0.19125 0.86048 0.0
C214 C 0.17424 0.1919 0.8363 0.0
C215 C 0.16138 0.19826 0.83094 0.0
C216 C 0.14998 0.20124 0.84033 0.0
C217 C 0.15164 0.19749 0.85512 0.0
C218 C 0.21643 0.13008 0.83655 0.0
H219 H 0.22879 0.18288 0.92385 0.0
H220 H 0.22025 0.1711 0.90112 0.0
H221 H 0.21225 0.21328 0.88214 0.0
H222 H 0.2209 0.22507 0.90475 0.0
H223 H 0.19077 0.1983 0.87516 0.0
H224 H 0.22597 0.16811 0.87486 0.0
H225 H 0.19258 0.16669 0.84061 0.0
H226 H 0.19773 0.14192 0.84276 0.0
H227 H 0.23965 0.16094 0.85517 0.0
H228 H 0.25163 0.14017 0.8443 0.0
H229 H 0.16548 0.18866 0.87198 0.0
H230 H 0.18296 0.19 0.82889 0.0
H231 H 0.20983 0.12151 0.83141 0.0
H232 H 0.14313 0.19974 0.86268 0.0
H233 H 0.16038 0.20091 0.81945 0.0
C234 C 0.84686 0.13303 0.81855 0.0
C235 C 0.8316 0.13376 0.81702 0.0
C236 C 0.85518 0.1454 0.82256 0.0
C237 C 0.84842 0.15873 0.82527 0.0
C238 C 0.83322 0.15952 0.82356 0.0
C239 C 0.82492 0.14723 0.81942 0.0
C240 C 0.85706 0.17171 0.83033 0.0
C241 C 0.8698 0.17594 0.82334 0.0
C242 C 0.87776 0.18842 0.828 0.0
C243 C 0.87286 0.19658 0.83989 0.0
C244 C 0.86024 0.1924 0.84715 0.0
C245 C 0.85245 0.17992 0.84225 0.0
C246 C 0.85524 0.20087 0.85996 0.0
C247 C 0.86532 0.20704 0.8702 0.0
C248 C 0.84029 0.20257 0.86224 0.0
C249 C 0.83556 0.20991 0.87457 0.0
C250 C 0.84564 0.21594 0.88482 0.0
C251 C 0.89124 0.19298 0.82054 0.0
C252 C 0.90146 0.18262 0.81634 0.0
C253 C 0.89417 0.2078 0.81792 0.0
C254 C 0.90715 0.21219 0.81164 0.0
C255 C 0.91754 0.20188 0.80779 0.0
C256 C 0.91445 0.18702 0.81003 0.0
C257 C 0.86057 0.21458 0.88243 0.0
H258 H 0.85238 0.12283 0.81698 0.0
H259 H 0.86687 0.14445 0.82393 0.0
H260 H 0.82773 0.16971 0.82537 0.0
H261 H 0.81326 0.14832 0.81802 0.0
H262 H 0.87328 0.16973 0.81402 0.0
H263 H 0.84294 0.1763 0.84795 0.0
H264 H 0.87893 0.20619 0.84353 0.0
H265 H 0.8769 0.20578 0.86898 0.0
H266 H 0.83219 0.19827 0.85446 0.0
H267 H 0.82398 0.21097 0.87606 0.0
H268 H 0.89962 0.17114 0.81833 0.0
H269 H 0.88641 0.21604 0.82072 0.0
H270 H 0.86857 0.21901 0.89024 0.0
H271 H 0.92229 0.17882 0.80732 0.0
H272 H 0.90907 0.22369 0.80983 0.0
C273 C 0.80851 0.85172 0.8811 0.0
C274 C 0.81647 0.85061 0.89446 0.0
C275 C 0.81544 0.85558 0.86828 0.0
C276 C 0.83052 0.85814 0.86842 0.0
C277 C 0.83851 0.85703 0.88166 0.0
C278 C 0.83157 0.85346 0.89453 0.0
C279 C 0.83798 0.86188 0.85479 0.0
C280 C 0.83313 0.87347 0.84605 0.0
C281 C 0.84047 0.87738 0.8334 0.0
C282 C 0.85267 0.86933 0.82947 0.0
C283 C 0.85757 0.85749 0.83794 0.0
C284 C 0.85013 0.85393 0.85064 0.0
C285 C 0.87037 0.84883 0.8335 0.0
C286 C 0.87289 0.84615 0.81865 0.0
C287 C 0.88016 0.84309 0.84405 0.0
C288 C 0.89203 0.83485 0.83988 0.0
C289 C 0.89456 0.83234 0.82506 0.0
C290 C 0.83554 0.88999 0.82439 0.0
C291 C 0.82064 0.89243 0.82165 0.0
C292 C 0.8457 0.89974 0.81851 0.0
C293 C 0.84108 0.91164 0.81016 0.0
C294 C 0.82618 0.91413 0.80752 0.0
C295 C 0.81602 0.90435 0.81333 0.0
C296 C 0.8849 0.83811 0.81449 0.0
H297 H 0.79695 0.84937 0.88046 0.0
H298 H 0.80904 0.85626 0.85817 0.0
H299 H 0.85014 0.85912 0.88209 0.0
H300 H 0.83808 0.8531 0.90458 0.0
H301 H 0.8239 0.87974 0.84941 0.0
H302 H 0.85354 0.84474 0.8572 0.0
H303 H 0.85838 0.87232 0.81977 0.0
H304 H 0.86548 0.85008 0.81019 0.0
H305 H 0.87879 0.84511 0.85556 0.0
H306 H 0.8994 0.83065 0.84825 0.0
H307 H 0.81251 0.88503 0.8258 0.0
H308 H 0.85725 0.89836 0.82058 0.0
H309 H 0.88651 0.8362 0.80299 0.0
H310 H 0.80447 0.90583 0.81133 0.0
H311 H 0.8492 0.91908 0.80605 0.0
C312 C 0.19703 0.68969 0.62706 0.0
C313 C 0.20069 0.70467 0.62753 0.0
C314 C 0.19109 0.68279 0.63913 0.0
C315 C 0.18835 0.69073 0.65185 0.0
C316 C 0.19178 0.70567 0.65233 0.0
C317 C 0.19801 0.71253 0.64041 0.0
C318 C 0.18174 0.6835 0.66454 0.0
C319 C 0.18804 0.67099 0.67075 0.0
C320 C 0.18199 0.66435 0.683 0.0
C321 C 0.16921 0.67009 0.6886 0.0
C322 C 0.16269 0.68248 0.68247 0.0
C323 C 0.16915 0.68924 0.67055 0.0
C324 C 0.14916 0.68828 0.68867 0.0
C325 C 0.1379 0.67871 0.69265 0.0
C326 C 0.14755 0.7033 0.69108 0.0
C327 C 0.1351 0.7086 0.69758 0.0
C328 C 0.12394 0.699 0.70175 0.0
C329 C 0.18898 0.6516 0.69026 0.0
C330 C 0.19466 0.64011 0.68208 0.0
C331 C 0.18963 0.65068 0.70558 0.0
C332 C 0.19541 0.63846 0.71254 0.0
C333 C 0.20085 0.62683 0.70441 0.0
C334 C 0.20051 0.62786 0.68908 0.0
C335 C 0.12546 0.684 0.6991 0.0
H336 H 0.1986 0.68326 0.61732 0.0
H337 H 0.18838 0.67127 0.63842 0.0
H338 H 0.18987 0.71202 0.66207 0.0
H339 H 0.20094 0.72396 0.64144 0.0
H340 H 0.19793 0.66676 0.66634 0.0
H341 H 0.16418 0.69876 0.66567 0.0
H342 H 0.16433 0.66494 0.69789 0.0
H343 H 0.13873 0.66709 0.6908 0.0
H344 H 0.15605 0.71094 0.68822 0.0
H345 H 0.13419 0.72023 0.69933 0.0
H346 H 0.19429 0.64043 0.67027 0.0
H347 H 0.18559 0.65942 0.71226 0.0
H348 H 0.11714 0.6763 0.70227 0.0
H349 H 0.20476 0.61919 0.68246 0.0
H350 H 0.19532 0.63803 0.72434 0.0
C351 C 0.88845 0.7387 0.67693 0.0
C352 C 0.89961 0.72945 0.68189 0.0
C353 C 0.87564 0.73296 0.67034 0.0
C354 C 0.87365 0.71782 0.66853 0.0
C355 C 0.88481 0.70858 0.67348 0.0
C356 C 0.89762 0.71431 0.68005 0.0
C357 C 0.86 0.71171 0.6615 0.0
C358 C 0.85362 0.71845 0.64915 0.0
C359 C 0.84077 0.7128 0.64238 0.0
C360 C 0.83416 0.70032 0.64829 0.0
C361 C 0.84039 0.69337 0.66057 0.0
C362 C 0.85333 0.6991 0.66704 0.0
C363 C 0.83341 0.6801 0.66662 0.0
C364 C 0.81854 0.67987 0.66966 0.0
C365 C 0.84158 0.66755 0.6694 0.0
C366 C 0.83501 0.65499 0.67497 0.0
C367 C 0.82012 0.65473 0.67817 0.0
C368 C 0.8345 0.71971 0.62893 0.0
C369 C 0.83388 0.73496 0.62769 0.0
C370 C 0.82935 0.71108 0.61708 0.0
C371 C 0.82381 0.71752 0.6043 0.0
C372 C 0.82319 0.73278 0.60303 0.0
C373 C 0.82828 0.74141 0.61492 0.0
C374 C 0.81201 0.66741 0.67548 0.0
H375 H 0.8895 0.75039 0.67836 0.0
H376 H 0.8672 0.7404 0.66685 0.0
H377 H 0.88376 0.69688 0.67206 0.0
H378 H 0.90607 0.70686 0.68351 0.0
H379 H 0.85894 0.72786 0.6445 0.0
H380 H 0.858 0.69391 0.67666 0.0
H381 H 0.8242 0.69592 0.64326 0.0
H382 H 0.81201 0.68945 0.66777 0.0
H383 H 0.85303 0.66736 0.66701 0.0
H384 H 0.84161 0.64543 0.67655 0.0
H385 H 0.8376 0.74193 0.63667 0.0
H386 H 0.82989 0.69931 0.61755 0.0
H387 H 0.80062 0.66784 0.67804 0.0
H388 H 0.82779 0.75318 0.61444 0.0
H389 H 0.82025 0.7105 0.5953 0.0
C390 C 0.84214 0.32726 0.65552 0.0
C391 C 0.84176 0.33429 0.64189 0.0
C392 C 0.84668 0.33476 0.66824 0.0
C393 C 0.85069 0.34956 0.66776 0.0
C394 C 0.84997 0.35676 0.6543 0.0
C395 C 0.8457 0.34919 0.6415 0.0
C396 C 0.85604 0.35723 0.68127 0.0
C397 C 0.8674 0.35122 0.68981 0.0
C398 C 0.87251 0.35805 0.70281 0.0
C399 C 0.86574 0.37086 0.70739 0.0
C400 C 0.85445 0.37711 0.69895 0.0
C401 C 0.8498 0.37037 0.68575 0.0
C402 C 0.8476 0.39067 0.70415 0.0
C403 C 0.84248 0.39151 0.7184 0.0
C404 C 0.8468 0.40306 0.69524 0.0
C405 C 0.84134 0.41614 0.70063 0.0
C406 C 0.83632 0.417 0.71494 0.0
C407 C 0.88509 0.35204 0.71143 0.0
C408 C 0.88683 0.33692 0.71295 0.0
C409 C 0.89561 0.36144 0.71805 0.0
C410 C 0.90755 0.35588 0.72592 0.0
C411 C 0.90939 0.34076 0.72732 0.0
C412 C 0.89884 0.33135 0.72075 0.0
C413 C 0.83677 0.40449 0.72369 0.0
H414 H 0.83885 0.31595 0.65644 0.0
H415 H 0.84698 0.32898 0.67851 0.0
H416 H 0.85312 0.36815 0.65363 0.0
H417 H 0.84581 0.355 0.63126 0.0
H418 H 0.87253 0.34139 0.68605 0.0
H419 H 0.84102 0.37506 0.67924 0.0
H420 H 0.8693 0.37609 0.71755 0.0
H421 H 0.84294 0.38211 0.72548 0.0
H422 H 0.85076 0.40271 0.68425 0.0
H423 H 0.84102 0.4256 0.69363 0.0
H424 H 0.87888 0.32933 0.70817 0.0
H425 H 0.89478 0.37314 0.71696 0.0
H426 H 0.83303 0.40486 0.73476 0.0
H427 H 0.89995 0.31964 0.72144 0.0
H428 H 0.91533 0.36348 0.73097 0.0
C429 C 0.18587 0.32401 0.63359 0.0
C430 C 0.20039 0.32011 0.63157 0.0
C431 C 0.18205 0.3316 0.64611 0.0
C432 C 0.19265 0.33551 0.65689 0.0
C433 C 0.20721 0.33186 0.65474 0.0
C434 C 0.21104 0.32421 0.64224 0.0
C435 C 0.18841 0.34285 0.67057 0.0
C436 C 0.17607 0.33798 0.67779 0.0
C437 C 0.17192 0.34457 0.69083 0.0
C438 C 0.18043 0.35617 0.69676 0.0
C439 C 0.19286 0.36128 0.68967 0.0
C440 C 0.19671 0.35451 0.67654 0.0
C441 C 0.20178 0.37374 0.69579 0.0
C442 C 0.19513 0.38575 0.7023 0.0
C443 C 0.21704 0.37386 0.69493 0.0
C444 C 0.22538 0.38573 0.70025 0.0
C445 C 0.21871 0.39773 0.70669 0.0
C446 C 0.1588 0.33902 0.69823 0.0
C447 C 0.1461 0.33526 0.69001 0.0
C448 C 0.15907 0.33675 0.71338 0.0
C449 C 0.14704 0.33054 0.72009 0.0
C450 C 0.13444 0.32651 0.7118 0.0
C451 C 0.13408 0.32909 0.69671 0.0
C452 C 0.20349 0.39757 0.70772 0.0
H453 H 0.17741 0.32092 0.62563 0.0
H454 H 0.17075 0.33438 0.64739 0.0
H455 H 0.21561 0.33463 0.66289 0.0
H456 H 0.22234 0.32151 0.64091 0.0
H457 H 0.16988 0.32871 0.67344 0.0
H458 H 0.20601 0.35853 0.67074 0.0
H459 H 0.17735 0.3612 0.7069 0.0
H460 H 0.18341 0.38618 0.70295 0.0
H461 H 0.22259 0.36471 0.69025 0.0
H462 H 0.2371 0.38543 0.69949 0.0
H463 H 0.14547 0.33702 0.67833 0.0
H464 H 0.16872 0.33943 0.72001 0.0
H465 H 0.19801 0.40673 0.71246 0.0
H466 H 0.1246 0.32605 0.68998 0.0
H467 H 0.1476 0.3289 0.73178 0.0
C468 C 0.13412 0.31516 0.34657 0.0
C469 C 0.133 0.31177 0.33156 0.0
C470 C 0.14619 0.32289 0.35247 0.0
C471 C 0.15741 0.32764 0.34352 0.0
C472 C 0.15623 0.32453 0.3285 0.0
C473 C 0.14424 0.31662 0.32261 0.0
C474 C 0.17044 0.33548 0.34998 0.0
C475 C 0.1774 0.33015 0.36275 0.0
C476 C 0.18964 0.33738 0.3691 0.0
C477 C 0.19468 0.35027 0.36272 0.0
C478 C 0.18788 0.35591 0.35006 0.0
C479 C 0.17589 0.3483 0.34358 0.0
C480 C 0.19339 0.36987 0.34396 0.0
C481 C 0.19671 0.38175 0.35331 0.0
C482 C 0.19619 0.37121 0.32904 0.0
C483 C 0.20266 0.38397 0.32372 0.0
C484 C 0.20629 0.39572 0.33318 0.0
C485 C 0.1972 0.33161 0.38244 0.0
C486 C 0.18926 0.32638 0.3942 0.0
C487 C 0.21249 0.33169 0.38365 0.0
C488 C 0.21966 0.32686 0.39638 0.0
C489 C 0.21174 0.32184 0.40824 0.0
C490 C 0.19644 0.32157 0.40696 0.0
C491 C 0.20304 0.3945 0.34799 0.0
H492 H 0.1256 0.31197 0.35381 0.0
H493 H 0.14667 0.32528 0.36406 0.0
H494 H 0.16477 0.32791 0.32134 0.0
H495 H 0.14396 0.31407 0.31106 0.0
H496 H 0.17349 0.32012 0.36754 0.0
H497 H 0.1705 0.35263 0.33388 0.0
H498 H 0.20397 0.35603 0.36768 0.0
H499 H 0.19456 0.38111 0.36484 0.0
H500 H 0.19381 0.36223 0.32159 0.0
H501 H 0.20489 0.38462 0.31222 0.0
H502 H 0.17748 0.32634 0.39369 0.0
H503 H 0.21895 0.33541 0.3747 0.0
H504 H 0.20577 0.40326 0.35561 0.0
H505 H 0.18998 0.31794 0.41594 0.0
H506 H 0.23144 0.32696 0.39687 0.0
C507 C 0.20442 0.6895 0.40113 0.0
C508 C 0.21963 0.68817 0.40248 0.0
C509 C 0.19673 0.68458 0.38859 0.0
C510 C 0.204 0.67835 0.37686 0.0
C511 C 0.21922 0.67697 0.37819 0.0
C512 C 0.22691 0.68175 0.39084 0.0
C513 C 0.19572 0.67348 0.3633 0.0
C514 C 0.18355 0.68132 0.35816 0.0
C515 C 0.17534 0.67671 0.34572 0.0
C516 C 0.17965 0.66422 0.33813 0.0
C517 C 0.19188 0.65628 0.34288 0.0
C518 C 0.1998 0.66097 0.35552 0.0
C519 C 0.1963 0.64304 0.33466 0.0
C520 C 0.18577 0.63309 0.32894 0.0
C521 C 0.21105 0.64034 0.33228 0.0
C522 C 0.21516 0.62805 0.32436 0.0
C523 C 0.20463 0.61812 0.31862 0.0
C524 C 0.16213 0.68485 0.34079 0.0
C525 C 0.15249 0.69031 0.35102 0.0
C526 C 0.15895 0.6871 0.32586 0.0
C527 C 0.14644 0.69454 0.32129 0.0
C528 C 0.13678 0.69996 0.33152 0.0
C529 C 0.14 0.69778 0.34645 0.0
C530 C 0.18988 0.62081 0.32102 0.0
H531 H 0.19839 0.69456 0.4097 0.0
H532 H 0.18502 0.68562 0.38816 0.0
H533 H 0.22527 0.67239 0.36938 0.0
H534 H 0.23857 0.68033 0.39149 0.0
H535 H 0.18057 0.69123 0.36371 0.0
H536 H 0.2089 0.6546 0.35952 0.0
H537 H 0.17343 0.66063 0.3285 0.0
H538 H 0.17433 0.63467 0.33075 0.0
H539 H 0.21943 0.64787 0.33632 0.0
H540 H 0.2266 0.62644 0.32257 0.0
H541 H 0.15448 0.68865 0.36259 0.0
H542 H 0.1662 0.68319 0.31767 0.0
H543 H 0.1815 0.61328 0.31698 0.0
H544 H 0.13292 0.70194 0.35466 0.0
H545 H 0.14425 0.69589 0.3097 0.0
C546 C 0.83188 0.62211 0.31464 0.0
C547 C 0.81699 0.62244 0.31056 0.0
C548 C 0.83922 0.63473 0.31963 0.0
C549 C 0.83178 0.6479 0.32086 0.0
C550 C 0.81695 0.64829 0.31673 0.0
C551 C 0.80967 0.63575 0.31156 0.0
C552 C 0.83921 0.66108 0.32709 0.0
C553 C 0.85261 0.66598 0.32189 0.0
C554 C 0.85952 0.6786 0.3278 0.0
C555 C 0.85294 0.68605 0.33931 0.0
C556 C 0.83952 0.68125 0.34455 0.0
C557 C 0.83275 0.66881 0.33833 0.0
C558 C 0.83242 0.68899 0.35661 0.0
C559 C 0.84017 0.69246 0.36965 0.0
C560 C 0.81751 0.69204 0.35546 0.0
C561 C 0.81037 0.69796 0.36727 0.0
C562 C 0.81793 0.70088 0.38057 0.0
C563 C 0.87331 0.68424 0.32166 0.0
C564 C 0.88424 0.67468 0.31739 0.0
C565 C 0.87555 0.6993 0.31977 0.0
C566 C 0.88835 0.70464 0.31381 0.0
C567 C 0.89927 0.6951 0.30952 0.0
C568 C 0.89706 0.68003 0.31141 0.0
C569 C 0.83299 0.6983 0.38154 0.0
H570 H 0.83785 0.61204 0.31422 0.0
H571 H 0.85062 0.63411 0.32291 0.0
H572 H 0.811 0.65836 0.31744 0.0
H573 H 0.79831 0.63655 0.3082 0.0
H574 H 0.85738 0.66022 0.31292 0.0
H575 H 0.82254 0.66489 0.34252 0.0
H576 H 0.85819 0.69564 0.34415 0.0
H577 H 0.85166 0.69012 0.37086 0.0
H578 H 0.81131 0.68967 0.34546 0.0
H579 H 0.79886 0.70014 0.366 0.0
H580 H 0.88296 0.66303 0.3188 0.0
H581 H 0.86731 0.70699 0.32273 0.0
H582 H 0.83914 0.7003 0.39165 0.0
H583 H 0.90519 0.67235 0.30814 0.0
H584 H 0.88974 0.71632 0.31275 0.0
C585 C 0.82083 0.34104 0.39216 0.0
C586 C 0.82955 0.33652 0.40413 0.0
C587 C 0.82713 0.34568 0.37926 0.0
C588 C 0.84234 0.34586 0.37795 0.0
C589 C 0.85107 0.34138 0.38994 0.0
C590 C 0.84476 0.33681 0.40287 0.0
C591 C 0.849 0.35064 0.3641 0.0
C592 C 0.84353 0.36283 0.35654 0.0
C593 C 0.8494 0.36726 0.34326 0.0
C594 C 0.86074 0.35915 0.33751 0.0
C595 C 0.86653 0.34711 0.34491 0.0
C596 C 0.86069 0.34297 0.35828 0.0
C597 C 0.87882 0.33915 0.33852 0.0
C598 C 0.8784 0.33552 0.32359 0.0
C599 C 0.89149 0.33623 0.34692 0.0
C600 C 0.9037 0.3304 0.34036 0.0
C601 C 0.90343 0.32724 0.32531 0.0
C602 C 0.84382 0.38028 0.33526 0.0
C603 C 0.82888 0.38348 0.33468 0.0
C604 C 0.85341 0.38937 0.32769 0.0
C605 C 0.84819 0.40094 0.3193 0.0
C606 C 0.83327 0.40392 0.31849 0.0
C607 C 0.82368 0.39525 0.32645 0.0
C608 C 0.89053 0.32962 0.31707 0.0
H609 H 0.80909 0.34104 0.39277 0.0
H610 H 0.82006 0.34893 0.37021 0.0
H611 H 0.86281 0.34149 0.38937 0.0
H612 H 0.85181 0.33325 0.41181 0.0
H613 H 0.83492 0.3691 0.3612 0.0
H614 H 0.86496 0.33351 0.3639 0.0
H615 H 0.8652 0.36226 0.32717 0.0
H616 H 0.86875 0.33754 0.31686 0.0
H617 H 0.89216 0.33898 0.35843 0.0
H618 H 0.91342 0.32854 0.34704 0.0
H619 H 0.82114 0.37668 0.34023 0.0
H620 H 0.86502 0.38754 0.32818 0.0
H621 H 0.88996 0.3274 0.30545 0.0
H622 H 0.81211 0.39731 0.32595 0.0
H623 H 0.85583 0.40761 0.31346 0.0
C624 C 0.71584 0.20426 0.61832 0.0
C625 C 0.7159 0.21959 0.61886 0.0
C626 C 0.71107 0.19604 0.6301 0.0
C627 C 0.70616 0.20292 0.64273 0.0
C628 C 0.70615 0.21824 0.64326 0.0
C629 C 0.71098 0.22647 0.6315 0.0
C630 C 0.70101 0.19413 0.65524 0.0
C631 C 0.70856 0.18162 0.65983 0.0
C632 C 0.70378 0.17328 0.67162 0.0
C633 C 0.69118 0.17751 0.67872 0.0
C634 C 0.6834 0.18989 0.67429 0.0
C635 C 0.68846 0.19817 0.66258 0.0
C636 C 0.66997 0.19404 0.68191 0.0
C637 C 0.65985 0.18332 0.68603 0.0
C638 C 0.66727 0.20869 0.68535 0.0
C639 C 0.65485 0.21249 0.69287 0.0
C640 C 0.6448 0.20175 0.6971 0.0
C641 C 0.71185 0.16014 0.67663 0.0
C642 C 0.71704 0.14998 0.66656 0.0
C643 C 0.71396 0.15739 0.69162 0.0
C644 C 0.72072 0.14467 0.69643 0.0
C645 C 0.7256 0.13432 0.68639 0.0
C646 C 0.7238 0.1372 0.67138 0.0
C647 C 0.64744 0.18712 0.69352 0.0
H648 H 0.71928 0.19855 0.60868 0.0
H649 H 0.71101 0.18427 0.62921 0.0
H650 H 0.70262 0.2239 0.65289 0.0
H651 H 0.71106 0.23824 0.63241 0.0
H652 H 0.7184 0.17858 0.65446 0.0
H653 H 0.68237 0.20756 0.6589 0.0
H654 H 0.68739 0.17111 0.68776 0.0
H655 H 0.66148 0.17195 0.68341 0.0
H656 H 0.67488 0.21722 0.68244 0.0
H657 H 0.65308 0.22388 0.69529 0.0
H658 H 0.71552 0.15172 0.65494 0.0
H659 H 0.71029 0.16506 0.69968 0.0
H660 H 0.64002 0.17854 0.69672 0.0
H661 H 0.72753 0.12953 0.66335 0.0
H662 H 0.72174 0.14276 0.70806 0.0
C663 C 0.39934 0.22952 0.69933 0.0
C664 C 0.41095 0.22044 0.70339 0.0
C665 C 0.38601 0.22359 0.69424 0.0
C666 C 0.38392 0.2084 0.69304 0.0
C667 C 0.39538 0.19929 0.69751 0.0
C668 C 0.40873 0.20523 0.70261 0.0
C669 C 0.37013 0.20221 0.68639 0.0
C670 C 0.36375 0.20882 0.67399 0.0
C671 C 0.35102 0.20307 0.66724 0.0
C672 C 0.34442 0.19062 0.67309 0.0
C673 C 0.35041 0.1839 0.68563 0.0
C674 C 0.3634 0.18966 0.69211 0.0
C675 C 0.34294 0.17096 0.69191 0.0
C676 C 0.32776 0.1708 0.69334 0.0
C677 C 0.35077 0.15856 0.69616 0.0
C678 C 0.34355 0.14617 0.70137 0.0
C679 C 0.32831 0.14591 0.70259 0.0
C680 C 0.34477 0.21 0.65392 0.0
C681 C 0.3418 0.22498 0.65381 0.0
C682 C 0.34205 0.20176 0.64113 0.0
C683 C 0.33664 0.20842 0.62841 0.0
C684 C 0.33358 0.22338 0.62834 0.0
C685 C 0.33611 0.23158 0.64118 0.0
C686 C 0.32056 0.15849 0.69865 0.0
H687 H 0.40055 0.24126 0.70007 0.0
H688 H 0.37734 0.23093 0.69117 0.0
H689 H 0.3942 0.18756 0.69659 0.0
H690 H 0.41747 0.19791 0.70551 0.0
H691 H 0.36896 0.21825 0.66924 0.0
H692 H 0.36805 0.18463 0.70182 0.0
H693 H 0.33459 0.18618 0.66784 0.0
H694 H 0.32143 0.18026 0.69039 0.0
H695 H 0.36245 0.15828 0.69508 0.0
H696 H 0.3499 0.13666 0.70408 0.0
H697 H 0.34378 0.23155 0.66355 0.0
H698 H 0.34433 0.19022 0.64092 0.0
H699 H 0.30889 0.15889 0.69973 0.0
H700 H 0.33385 0.24313 0.64138 0.0
H701 H 0.33469 0.20185 0.61867 0.0
C702 C 0.34132 0.82558 0.65571 0.0
C703 C 0.33602 0.83339 0.64354 0.0
C704 C 0.34696 0.83288 0.66815 0.0
C705 C 0.3475 0.84821 0.66878 0.0
C706 C 0.34198 0.85603 0.65671 0.0
C707 C 0.33635 0.84872 0.64424 0.0
C708 C 0.3542 0.85593 0.6818 0.0
C709 C 0.36704 0.8506 0.68854 0.0
C710 C 0.37364 0.85774 0.70072 0.0
C711 C 0.36729 0.87043 0.7061 0.0
C712 C 0.35451 0.876 0.69958 0.0
C713 C 0.34798 0.86865 0.68746 0.0
C714 C 0.34801 0.8894 0.70573 0.0
C715 C 0.33308 0.88998 0.70841 0.0
C716 C 0.35691 0.90147 0.70968 0.0
C717 C 0.3511 0.91369 0.71642 0.0
C718 C 0.33623 0.91415 0.71953 0.0
C719 C 0.3871 0.85191 0.70795 0.0
C720 C 0.38866 0.83686 0.71021 0.0
C721 C 0.39838 0.86139 0.71292 0.0
C722 C 0.41081 0.85599 0.7201 0.0
C723 C 0.41231 0.84095 0.72251 0.0
C724 C 0.40109 0.83146 0.71741 0.0
C725 C 0.32727 0.90218 0.71528 0.0
H726 H 0.34138 0.81379 0.65554 0.0
H727 H 0.35094 0.82648 0.67729 0.0
H728 H 0.34231 0.86783 0.65675 0.0
H729 H 0.33222 0.8551 0.63515 0.0
H730 H 0.37213 0.84106 0.68408 0.0
H731 H 0.33808 0.87284 0.68245 0.0
H732 H 0.37208 0.87579 0.7157 0.0
H733 H 0.32596 0.8808 0.70565 0.0
H734 H 0.36843 0.90144 0.70756 0.0
H735 H 0.3583 0.92279 0.7192 0.0
H736 H 0.38014 0.82926 0.70665 0.0
H737 H 0.39763 0.87303 0.71122 0.0
H738 H 0.31581 0.90203 0.71763 0.0
H739 H 0.40195 0.8198 0.71892 0.0
H740 H 0.41917 0.86363 0.72398 0.0
C741 C 0.67215 0.82182 0.61787 0.0
C742 C 0.68711 0.82178 0.61521 0.0
C743 C 0.66703 0.82829 0.63048 0.0
C744 C 0.67672 0.83485 0.64082 0.0
C745 C 0.69166 0.83509 0.63806 0.0
C746 C 0.6968 0.82861 0.6254 0.0
C747 C 0.67122 0.84083 0.65469 0.0
C748 C 0.66051 0.83308 0.66212 0.0
C749 C 0.65491 0.8385 0.67509 0.0
C750 C 0.66045 0.85178 0.68081 0.0
C751 C 0.67134 0.8597 0.6737 0.0
C752 C 0.67661 0.85412 0.66056 0.0
C753 C 0.67722 0.87366 0.68016 0.0
C754 C 0.66811 0.88312 0.68771 0.0
C755 C 0.69206 0.87744 0.67931 0.0
C756 C 0.69766 0.89017 0.68604 0.0
C757 C 0.68859 0.89926 0.69395 0.0
C758 C 0.64327 0.83028 0.68264 0.0
C759 C 0.63226 0.82266 0.67457 0.0
C760 C 0.64301 0.83004 0.69798 0.0
C761 C 0.63192 0.82262 0.70502 0.0
C762 C 0.62099 0.81506 0.69692 0.0
C763 C 0.62131 0.81501 0.68164 0.0
C764 C 0.67376 0.89567 0.69465 0.0
H765 H 0.66439 0.81655 0.61034 0.0
H766 H 0.65543 0.82808 0.63218 0.0
H767 H 0.69942 0.83997 0.64584 0.0
H768 H 0.70838 0.82893 0.6236 0.0
H769 H 0.65675 0.82258 0.65792 0.0
H770 H 0.68466 0.86026 0.65471 0.0
H771 H 0.65629 0.85595 0.69089 0.0
H772 H 0.65656 0.88086 0.6883 0.0
H773 H 0.69948 0.87039 0.67379 0.0
H774 H 0.70916 0.89268 0.68541 0.0
H775 H 0.63192 0.82278 0.66275 0.0
H776 H 0.65144 0.83546 0.7046 0.0
H777 H 0.66651 0.90263 0.70051 0.0
H778 H 0.61292 0.80932 0.67518 0.0
H779 H 0.63197 0.82265 0.71684 0.0
C780 C 0.61735 0.82921 0.32448 0.0
C781 C 0.61499 0.82705 0.30936 0.0
C782 C 0.63043 0.83537 0.33003 0.0
C783 C 0.64143 0.83963 0.3206 0.0
C784 C 0.63908 0.83742 0.30549 0.0
C785 C 0.62605 0.83119 0.29995 0.0
C786 C 0.6552 0.84665 0.32637 0.0
C787 C 0.66253 0.84136 0.33897 0.0
C788 C 0.67572 0.84782 0.34409 0.0
C789 C 0.68139 0.85989 0.33668 0.0
C790 C 0.6741 0.86549 0.32426 0.0
C791 C 0.66109 0.85874 0.31916 0.0
C792 C 0.6799 0.87855 0.31671 0.0
C793 C 0.68485 0.89084 0.32475 0.0
C794 C 0.68017 0.87896 0.30139 0.0
C795 C 0.6852 0.8914 0.29427 0.0
C796 C 0.68994 0.90377 0.30231 0.0
C797 C 0.68375 0.84194 0.35708 0.0
C798 C 0.67667 0.83952 0.37022 0.0
C799 C 0.69868 0.83897 0.35648 0.0
C800 C 0.70635 0.83367 0.36873 0.0
C801 C 0.69934 0.83146 0.38194 0.0
C802 C 0.68442 0.83447 0.38257 0.0
C803 C 0.68975 0.90333 0.31763 0.0
H804 H 0.60913 0.82598 0.33205 0.0
H805 H 0.63183 0.83702 0.34171 0.0
H806 H 0.64738 0.84042 0.29792 0.0
H807 H 0.62458 0.82976 0.28826 0.0
H808 H 0.65822 0.83193 0.34453 0.0
H809 H 0.65529 0.86319 0.30975 0.0
H810 H 0.69151 0.86495 0.34061 0.0
H811 H 0.68466 0.8909 0.33656 0.0
H812 H 0.67653 0.86962 0.2949 0.0
H813 H 0.68512 0.89144 0.28246 0.0
H814 H 0.6652 0.84179 0.37101 0.0
H815 H 0.7044 0.84066 0.34648 0.0
H816 H 0.69347 0.91263 0.32413 0.0
H817 H 0.67872 0.83278 0.39258 0.0
H818 H 0.71785 0.83149 0.36795 0.0
C819 C 0.69813 0.20401 0.39912 0.0
C820 C 0.7134 0.20547 0.39937 0.0
C821 C 0.6905 0.19895 0.38655 0.0
C822 C 0.69798 0.19516 0.37397 0.0
C823 C 0.71321 0.19686 0.37418 0.0
C824 C 0.72081 0.20192 0.3867 0.0
C825 C 0.69012 0.18898 0.3608 0.0
C826 C 0.67696 0.19489 0.35548 0.0
C827 C 0.66983 0.18924 0.34276 0.0
C828 C 0.67619 0.17752 0.33534 0.0
C829 C 0.68935 0.17142 0.34052 0.0
C830 C 0.69602 0.17715 0.35338 0.0
C831 C 0.69634 0.15911 0.3327 0.0
C832 C 0.68799 0.1478 0.32599 0.0
C833 C 0.71162 0.15834 0.33235 0.0
C834 C 0.71834 0.1464 0.32604 0.0
C835 C 0.71 0.13501 0.31963 0.0
C836 C 0.65589 0.19574 0.33716 0.0
C837 C 0.64523 0.20025 0.34683 0.0
C838 C 0.65313 0.19757 0.32209 0.0
C839 C 0.6401 0.20366 0.31686 0.0
C840 C 0.62943 0.20815 0.32652 0.0
C841 C 0.6322 0.20637 0.34159 0.0
C842 C 0.69475 0.13593 0.31944 0.0
H843 H 0.69206 0.20681 0.40864 0.0
H844 H 0.67879 0.19771 0.38678 0.0
H845 H 0.7193 0.19422 0.36463 0.0
H846 H 0.73255 0.20277 0.38651 0.0
H847 H 0.67251 0.2042 0.36102 0.0
H848 H 0.70581 0.1722 0.35784 0.0
H849 H 0.67089 0.17316 0.3255 0.0
H850 H 0.67623 0.1479 0.32612 0.0
H851 H 0.71848 0.16699 0.33699 0.0
H852 H 0.73011 0.14611 0.32611 0.0
H853 H 0.64687 0.19891 0.35849 0.0
H854 H 0.66112 0.19442 0.31429 0.0
H855 H 0.68806 0.12726 0.31459 0.0
H856 H 0.62433 0.20978 0.34939 0.0
H857 H 0.63831 0.20464 0.30518 0.0
C858 C 0.31767 0.11525 0.32513 0.0
C859 C 0.3027 0.11688 0.32189 0.0
C860 C 0.32647 0.12733 0.3289 0.0
C861 C 0.32045 0.14126 0.32973 0.0
C862 C 0.30565 0.14301 0.3261 0.0
C863 C 0.2969 0.13099 0.32209 0.0
C864 C 0.32923 0.15368 0.33572 0.0
C865 C 0.34263 0.15757 0.32987 0.0
C866 C 0.35117 0.16907 0.33605 0.0
C867 C 0.3461 0.17642 0.34842 0.0
C868 C 0.33259 0.17272 0.35421 0.0
C869 C 0.32425 0.16138 0.34774 0.0
C870 C 0.32711 0.18032 0.36722 0.0
C871 C 0.33605 0.18243 0.3798 0.0
C872 C 0.31251 0.18458 0.36745 0.0
C873 C 0.30681 0.19037 0.38013 0.0
C874 C 0.31558 0.19199 0.39289 0.0
C875 C 0.36519 0.17353 0.32944 0.0
C876 C 0.37407 0.16316 0.32285 0.0
C877 C 0.36967 0.18828 0.32935 0.0
C878 C 0.38261 0.1925 0.32287 0.0
C879 C 0.39124 0.18215 0.31607 0.0
C880 C 0.38686 0.16744 0.31612 0.0
C881 C 0.33032 0.18815 0.39254 0.0
H882 H 0.32252 0.10457 0.32529 0.0
H883 H 0.33784 0.1257 0.33183 0.0
H884 H 0.30079 0.15369 0.32657 0.0
H885 H 0.28553 0.13276 0.31931 0.0
H886 H 0.34615 0.15182 0.32029 0.0
H887 H 0.31402 0.15816 0.35241 0.0
H888 H 0.3526 0.18506 0.35357 0.0
H889 H 0.34732 0.17916 0.37995 0.0
H890 H 0.30539 0.1832 0.35787 0.0
H891 H 0.29539 0.19311 0.38006 0.0
H892 H 0.37122 0.15168 0.32293 0.0
H893 H 0.36305 0.19666 0.33401 0.0
H894 H 0.33737 0.18943 0.40217 0.0
H895 H 0.39343 0.15923 0.31108 0.0
H896 H 0.3857 0.20394 0.32285 0.0
C897 C 0.29939 0.82595 0.39788 0.0
C898 C 0.30791 0.82219 0.41029 0.0
C899 C 0.30594 0.83035 0.38501 0.0
C900 C 0.32118 0.83106 0.38421 0.0
C901 C 0.3297 0.82731 0.3966 0.0
C902 C 0.32316 0.82297 0.40946 0.0
C903 C 0.32825 0.8359 0.3706 0.0
C904 C 0.32282 0.84783 0.36268 0.0
C905 C 0.32968 0.85278 0.35012 0.0
C906 C 0.34222 0.84568 0.34556 0.0
C907 C 0.34774 0.83351 0.35313 0.0
C908 C 0.34058 0.82872 0.36562 0.0
C909 C 0.36087 0.82577 0.34794 0.0
C910 C 0.36365 0.82476 0.33293 0.0
C911 C 0.37076 0.81925 0.35792 0.0
C912 C 0.38291 0.81185 0.35304 0.0
C913 C 0.38566 0.81106 0.3381 0.0
C914 C 0.32365 0.86529 0.3417 0.0
C915 C 0.30859 0.86628 0.33887 0.0
C916 C 0.33284 0.8763 0.33639 0.0
C917 C 0.32707 0.88806 0.32855 0.0
C918 C 0.312 0.88904 0.32574 0.0
C919 C 0.30284 0.87798 0.33099 0.0
C920 C 0.37598 0.81765 0.3281 0.0
H921 H 0.28763 0.82531 0.39803 0.0
H922 H 0.29906 0.83302 0.37561 0.0
H923 H 0.34145 0.82797 0.39646 0.0
H924 H 0.33009 0.82045 0.41886 0.0
H925 H 0.31345 0.85354 0.36653 0.0
H926 H 0.34438 0.81915 0.37137 0.0
H927 H 0.34762 0.84965 0.33602 0.0
H928 H 0.35621 0.82928 0.32482 0.0
H929 H 0.36927 0.82 0.36956 0.0
H930 H 0.39031 0.80695 0.36097 0.0
H931 H 0.30121 0.85793 0.34267 0.0
H932 H 0.34449 0.87593 0.33848 0.0
H933 H 0.37781 0.81706 0.3165 0.0
H934 H 0.29116 0.87848 0.3292 0.0
H935 H 0.33443 0.89635 0.32461 0.0
C936 C 0.68444 0.70273 0.11974 0.0
C937 C 0.68668 0.71783 0.12175 0.0
C938 C 0.67973 0.69399 0.13116 0.0
C939 C 0.67689 0.70015 0.14481 0.0
C940 C 0.6788 0.71525 0.1468 0.0
C941 C 0.68374 0.72397 0.13545 0.0
C942 C 0.6723 0.69077 0.15703 0.0
C943 C 0.68011 0.67817 0.16056 0.0
C944 C 0.676 0.66914 0.1721 0.0
C945 C 0.66384 0.67299 0.18017 0.0
C946 C 0.65578 0.68556 0.17681 0.0
C947 C 0.66018 0.69439 0.16518 0.0
C948 C 0.64277 0.68939 0.18539 0.0
C949 C 0.6337 0.6784 0.19101 0.0
C950 C 0.6393 0.70404 0.1881 0.0
C951 C 0.62712 0.70759 0.19611 0.0
C952 C 0.61828 0.69658 0.20184 0.0
C953 C 0.68439 0.65573 0.17572 0.0
C954 C 0.69032 0.64721 0.16461 0.0
C955 C 0.68653 0.65128 0.19031 0.0
C956 C 0.69421 0.63861 0.19365 0.0
C957 C 0.70015 0.6302 0.18253 0.0
C958 C 0.6982 0.63467 0.16799 0.0
C959 C 0.62172 0.68196 0.19926 0.0
H960 H 0.68623 0.69761 0.1093 0.0
H961 H 0.67818 0.6824 0.12927 0.0
H962 H 0.67683 0.72026 0.15727 0.0
H963 H 0.68555 0.73548 0.13756 0.0
H964 H 0.68966 0.67562 0.15448 0.0
H965 H 0.65397 0.70391 0.16215 0.0
H966 H 0.66063 0.66614 0.1891 0.0
H967 H 0.63572 0.66701 0.18891 0.0
H968 H 0.64609 0.71284 0.18424 0.0
H969 H 0.62475 0.71895 0.19805 0.0
H970 H 0.68871 0.65009 0.15324 0.0
H971 H 0.68243 0.65766 0.1992 0.0
H972 H 0.61496 0.67327 0.20343 0.0
H973 H 0.70253 0.6283 0.1592 0.0
H974 H 0.69571 0.63551 0.20498 0.0
C975 C 0.38269 0.72083 0.17985 0.0
C976 C 0.39487 0.71317 0.18525 0.0
C977 C 0.37038 0.71334 0.17409 0.0
C978 C 0.3699 0.69801 0.1737 0.0
C979 C 0.3822 0.69039 0.1788 0.0
C980 C 0.39449 0.69786 0.18448 0.0
C981 C 0.35651 0.68988 0.16854 0.0
C982 C 0.34862 0.69411 0.1559 0.0
C983 C 0.33609 0.68627 0.15094 0.0
C984 C 0.33155 0.67399 0.15889 0.0
C985 C 0.3393 0.66957 0.1716 0.0
C986 C 0.35167 0.6777 0.17633 0.0
C987 C 0.3346 0.65654 0.18008 0.0
C988 C 0.31979 0.65348 0.18222 0.0
C989 C 0.34501 0.64723 0.18648 0.0
C990 C 0.34078 0.63543 0.19503 0.0
C991 C 0.32599 0.63245 0.19733 0.0
C992 C 0.32788 0.69087 0.13739 0.0
C993 C 0.32594 0.70573 0.13432 0.0
C994 C 0.3221 0.68051 0.12731 0.0
C995 C 0.31475 0.6849 0.11445 0.0
C996 C 0.31297 0.69978 0.11131 0.0
C997 C 0.31864 0.71011 0.12147 0.0
C998 C 0.31555 0.64159 0.19071 0.0
H999 H 0.38265 0.73263 0.18018 0.0
H1000 H 0.36107 0.71954 0.17031 0.0
H1001 H 0.38229 0.6786 0.1785 0.0
H1002 H 0.40356 0.69156 0.18869 0.0
H1003 H 0.3525 0.7033 0.14969 0.0
H1004 H 0.35742 0.67473 0.18635 0.0
H1005 H 0.32199 0.66784 0.15517 0.0
H1006 H 0.31145 0.66044 0.17758 0.0
H1007 H 0.3565 0.64905 0.18492 0.0
H1008 H 0.34918 0.62879 0.20004 0.0
H1009 H 0.33005 0.71404 0.14187 0.0
H1010 H 0.32348 0.66897 0.1292 0.0
H1011 H 0.30405 0.63954 0.19203 0.0
H1012 H 0.3177 0.72167 0.11939 0.0
H1013 H 0.31044 0.67661 0.10698 0.0
C1014 C 0.33692 0.3192 0.14879 0.0
C1015 C 0.33253 0.32829 0.13719 0.0
C1016 C 0.34308 0.32513 0.16173 0.0
C1017 C 0.34501 0.34029 0.16337 0.0
C1018 C 0.34086 0.34933 0.15165 0.0
C1019 C 0.33469 0.34342 0.13876 0.0
C1020 C 0.35088 0.34677 0.17736 0.0
C1021 C 0.36257 0.34042 0.18517 0.0
C1022 C 0.36816 0.34666 0.19833 0.0
C1023 C 0.36187 0.35953 0.20358 0.0
C1024 C 0.35014 0.36604 0.19591 0.0
C1025 C 0.3447 0.35946 0.18293 0.0
C1026 C 0.34331 0.37963 0.20133 0.0
C1027 C 0.3407 0.38164 0.21622 0.0
C1028 C 0.33877 0.39048 0.19145 0.0
C1029 C 0.33152 0.40281 0.19626 0.0
C1030 C 0.32868 0.40472 0.21111 0.0
C1031 C 0.3806 0.33973 0.20645 0.0
C1032 C 0.38126 0.32448 0.20768 0.0
C1033 C 0.39206 0.3482 0.21276 0.0
C1034 C 0.40397 0.34158 0.21986 0.0
C1035 C 0.4047 0.32631 0.22091 0.0
C1036 C 0.39312 0.31787 0.21479 0.0
C1037 C 0.33348 0.39403 0.22105 0.0
H1038 H 0.3353 0.30751 0.14799 0.0
H1039 H 0.346 0.31786 0.17058 0.0
H1040 H 0.34245 0.36103 0.15242 0.0
H1041 H 0.33172 0.35071 0.12994 0.0
H1042 H 0.36758 0.3308 0.18078 0.0
H1043 H 0.33534 0.36407 0.17726 0.0
H1044 H 0.36609 0.36447 0.21364 0.0
H1045 H 0.34394 0.37348 0.22413 0.0
H1046 H 0.34078 0.38942 0.17992 0.0
H1047 H 0.32792 0.41072 0.18826 0.0
H1048 H 0.37257 0.31759 0.20312 0.0
H1049 H 0.392 0.35997 0.21194 0.0
H1050 H 0.33171 0.39524 0.23261 0.0
H1051 H 0.39335 0.30609 0.2152 0.0
H1052 H 0.41263 0.34844 0.22453 0.0
C1053 C 0.68494 0.32609 0.12083 0.0
C1054 C 0.70003 0.32789 0.11963 0.0
C1055 C 0.67794 0.33148 0.133 0.0
C1056 C 0.68591 0.33862 0.14438 0.0
C1057 C 0.70103 0.34049 0.14308 0.0
C1058 C 0.70799 0.33527 0.13079 0.0
C1059 C 0.6785 0.34378 0.15766 0.0
C1060 C 0.667 0.33561 0.16335 0.0
C1061 C 0.65983 0.34032 0.17579 0.0
C1062 C 0.66468 0.35319 0.18294 0.0
C1063 C 0.67628 0.36152 0.17756 0.0
C1064 C 0.68292 0.35681 0.16476 0.0
C1065 C 0.68157 0.37508 0.18527 0.0
C1066 C 0.67187 0.38443 0.1922 0.0
C1067 C 0.69647 0.3788 0.18573 0.0
C1068 C 0.70149 0.39163 0.19258 0.0
C1069 C 0.69179 0.40094 0.19939 0.0
C1070 C 0.64723 0.33178 0.18115 0.0
C1071 C 0.63685 0.32569 0.17118 0.0
C1072 C 0.64547 0.32954 0.19615 0.0
C1073 C 0.63367 0.32135 0.20104 0.0
C1074 C 0.62335 0.3152 0.19105 0.0
C1075 C 0.6251 0.31749 0.17606 0.0
C1076 C 0.67695 0.39716 0.1993 0.0
H1077 H 0.67851 0.32062 0.11227 0.0
H1078 H 0.66626 0.3301 0.13341 0.0
H1079 H 0.70758 0.34572 0.1517 0.0
H1080 H 0.71967 0.3367 0.13018 0.0
H1081 H 0.66376 0.32534 0.15826 0.0
H1082 H 0.69141 0.36344 0.16013 0.0
H1083 H 0.65937 0.35671 0.19269 0.0
H1084 H 0.6603 0.38208 0.19193 0.0
H1085 H 0.70436 0.37176 0.18089 0.0
H1086 H 0.71303 0.3942 0.1927 0.0
H1087 H 0.63775 0.32735 0.15955 0.0
H1088 H 0.65332 0.33396 0.20412 0.0
H1089 H 0.66926 0.40423 0.20442 0.0
H1090 H 0.61746 0.31278 0.16804 0.0
H1091 H 0.63257 0.31994 0.21267 0.0
C1092 C 0.63882 0.33865 0.82977 0.0
C1093 C 0.63825 0.3342 0.81501 0.0
C1094 C 0.65161 0.34468 0.83617 0.0
C1095 C 0.66405 0.34665 0.8279 0.0
C1096 C 0.66354 0.34226 0.81319 0.0
C1097 C 0.65087 0.336 0.80687 0.0
C1098 C 0.67742 0.3537 0.8344 0.0
C1099 C 0.68373 0.34874 0.84761 0.0
C1100 C 0.69661 0.35524 0.85352 0.0
C1101 C 0.70285 0.36716 0.84624 0.0
C1102 C 0.69654 0.37237 0.83312 0.0
C1103 C 0.68394 0.36545 0.82723 0.0
C1104 C 0.70283 0.38522 0.8256 0.0
C1105 C 0.70662 0.39801 0.83341 0.0
C1106 C 0.7044 0.38503 0.8104 0.0
C1107 C 0.70936 0.39741 0.80314 0.0
C1108 C 0.71274 0.41039 0.81086 0.0
C1109 C 0.70373 0.34937 0.86708 0.0
C1110 C 0.6955 0.34574 0.87922 0.0
C1111 C 0.71883 0.34716 0.8679 0.0
C1112 C 0.72553 0.34139 0.88049 0.0
C1113 C 0.71733 0.3378 0.89271 0.0
C1114 C 0.70222 0.34011 0.89189 0.0
C1115 C 0.71144 0.41047 0.82613 0.0
H1116 H 0.62933 0.33771 0.83638 0.0
H1117 H 0.65166 0.34812 0.84749 0.0
H1118 H 0.67303 0.34352 0.8066 0.0
H1119 H 0.65107 0.33241 0.79561 0.0
H1120 H 0.67888 0.33949 0.85301 0.0
H1121 H 0.6789 0.36949 0.81721 0.0
H1122 H 0.71265 0.37237 0.85078 0.0
H1123 H 0.70538 0.39855 0.84511 0.0
H1124 H 0.70176 0.37527 0.8041 0.0
H1125 H 0.71052 0.39679 0.79144 0.0
H1126 H 0.68387 0.34745 0.879 0.0
H1127 H 0.72546 0.34963 0.85866 0.0
H1128 H 0.71374 0.42028 0.83246 0.0
H1129 H 0.69554 0.33776 0.90111 0.0
H1130 H 0.73712 0.33953 0.88053 0.0
C1131 C 0.71658 0.69756 0.91298 0.0
C1132 C 0.73058 0.70398 0.91291 0.0
C1133 C 0.71047 0.69088 0.90043 0.0
C1134 C 0.71829 0.69015 0.88758 0.0
C1135 C 0.7325 0.69595 0.88759 0.0
C1136 C 0.73854 0.70289 0.90008 0.0
C1137 C 0.71135 0.6839 0.87405 0.0
C1138 C 0.69774 0.68894 0.86908 0.0
C1139 C 0.69084 0.68319 0.85635 0.0
C1140 C 0.69777 0.67207 0.84865 0.0
C1141 C 0.71143 0.66681 0.85349 0.0
C1142 C 0.71819 0.67295 0.86614 0.0
C1143 C 0.71847 0.65468 0.84557 0.0
C1144 C 0.7102 0.6426 0.84041 0.0
C1145 C 0.73353 0.65492 0.84337 0.0
C1146 C 0.74016 0.64337 0.83621 0.0
C1147 C 0.7319 0.63125 0.8311 0.0
C1148 C 0.67651 0.68899 0.85111 0.0
C1149 C 0.66583 0.6926 0.8611 0.0
C1150 C 0.67356 0.69144 0.83617 0.0
C1151 C 0.6604 0.6976 0.83141 0.0
C1152 C 0.64984 0.70148 0.84144 0.0
C1153 C 0.65271 0.69879 0.85635 0.0
C1154 C 0.71683 0.63104 0.83329 0.0
H1155 H 0.71022 0.6978 0.9227 0.0
H1156 H 0.69956 0.6863 0.90076 0.0
H1157 H 0.73873 0.69559 0.87778 0.0
H1158 H 0.74925 0.70783 0.89948 0.0
H1159 H 0.69269 0.69768 0.875 0.0
H1160 H 0.72858 0.66888 0.87015 0.0
H1161 H 0.69252 0.66747 0.83889 0.0
H1162 H 0.69863 0.64192 0.84213 0.0
H1163 H 0.7402 0.66414 0.84704 0.0
H1164 H 0.75175 0.64402 0.83453 0.0
H1165 H 0.66762 0.6907 0.87266 0.0
H1166 H 0.68156 0.68891 0.82817 0.0
H1167 H 0.71015 0.62179 0.82974 0.0
H1168 H 0.64493 0.70175 0.86443 0.0
H1169 H 0.6585 0.69934 0.81983 0.0
C1170 C 0.34956 0.62176 0.80946 0.0
C1171 C 0.33459 0.61859 0.81021 0.0
C1172 C 0.35556 0.63444 0.81581 0.0
C1173 C 0.34677 0.64462 0.82278 0.0
C1174 C 0.33183 0.64139 0.82371 0.0
C1175 C 0.32586 0.62851 0.81763 0.0
C1176 C 0.35315 0.65868 0.82857 0.0
C1177 C 0.36465 0.66546 0.82134 0.0
C1178 C 0.37119 0.6784 0.82669 0.0
C1179 C 0.36561 0.68505 0.83911 0.0
C1180 C 0.35397 0.67868 0.84653 0.0
C1181 C 0.34793 0.66538 0.84123 0.0
C1182 C 0.34824 0.68603 0.85976 0.0
C1183 C 0.35764 0.69403 0.86938 0.0
C1184 C 0.33328 0.68558 0.86263 0.0
C1185 C 0.32789 0.69312 0.8746 0.0
C1186 C 0.33728 0.70149 0.8838 0.0
C1187 C 0.38421 0.68463 0.81962 0.0
C1188 C 0.39521 0.67542 0.81482 0.0
C1189 C 0.38605 0.69977 0.81809 0.0
C1190 C 0.39874 0.70556 0.81228 0.0
C1191 C 0.40988 0.69635 0.80781 0.0
C1192 C 0.40786 0.6812 0.80896 0.0
C1193 C 0.3522 0.70179 0.88113 0.0
H1194 H 0.3567 0.6146 0.80372 0.0
H1195 H 0.36718 0.63625 0.81515 0.0
H1196 H 0.32463 0.64894 0.82888 0.0
H1197 H 0.31435 0.62639 0.81877 0.0
H1198 H 0.36848 0.66078 0.81133 0.0
H1199 H 0.33939 0.66006 0.84716 0.0
H1200 H 0.37046 0.6952 0.84306 0.0
H1201 H 0.36926 0.69434 0.86788 0.0
H1202 H 0.32564 0.67972 0.85544 0.0
H1203 H 0.31631 0.69277 0.87642 0.0
H1204 H 0.39424 0.66371 0.81596 0.0
H1205 H 0.37773 0.70717 0.82148 0.0
H1206 H 0.35968 0.708 0.8882 0.0
H1207 H 0.41613 0.67378 0.80547 0.0
H1208 H 0.39999 0.71729 0.81171 0.0
C1209 C 0.33378 0.31904 0.89945 0.0
C1210 C 0.34457 0.31452 0.90958 0.0
C1211 C 0.33761 0.32622 0.88667 0.0
C1212 C 0.35231 0.32917 0.88384 0.0
C1213 C 0.36302 0.32499 0.89426 0.0
C1214 C 0.3592 0.31766 0.9069 0.0
C1215 C 0.3566 0.33623 0.86999 0.0
C1216 C 0.34831 0.34743 0.86364 0.0
C1217 C 0.35264 0.35426 0.85074 0.0
C1218 C 0.36552 0.34982 0.84421 0.0
C1219 C 0.37392 0.33857 0.85039 0.0
C1220 C 0.36922 0.33178 0.86311 0.0
C1221 C 0.38759 0.33364 0.84376 0.0
C1222 C 0.3883 0.33114 0.82866 0.0
C1223 C 0.3998 0.33046 0.85276 0.0
C1224 C 0.41219 0.32439 0.84693 0.0
C1225 C 0.41277 0.32139 0.83191 0.0
C1226 C 0.34374 0.36621 0.84435 0.0
C1227 C 0.32855 0.36463 0.84278 0.0
C1228 C 0.35025 0.37945 0.8403 0.0
C1229 C 0.34173 0.39098 0.83515 0.0
C1230 C 0.32647 0.3895 0.83374 0.0
C1231 C 0.32004 0.37607 0.83745 0.0
C1232 C 0.40075 0.32505 0.8228 0.0
H1233 H 0.32241 0.31669 0.90123 0.0
H1234 H 0.32907 0.32914 0.87885 0.0
H1235 H 0.37441 0.3274 0.89269 0.0
H1236 H 0.36772 0.31453 0.91466 0.0
H1237 H 0.33869 0.35117 0.86895 0.0
H1238 H 0.37533 0.32273 0.86755 0.0
H1239 H 0.36901 0.35511 0.83436 0.0
H1240 H 0.37907 0.33341 0.82144 0.0
H1241 H 0.3997 0.33244 0.86441 0.0
H1242 H 0.42115 0.32162 0.85432 0.0
H1243 H 0.32323 0.35448 0.84564 0.0
H1244 H 0.36192 0.38104 0.84154 0.0
H1245 H 0.40091 0.32308 0.81115 0.0
H1246 H 0.3084 0.37435 0.83623 0.0
H1247 H 0.3471 0.40118 0.83263 0.0
Cu1248 Cu 0.28631 0.25558 0.02931 0.0
N1249 N 0.30369 0.25671 0.01953 0.0
N1250 N 0.3185 0.26306 1.00178 0.0
C1251 C 0.30461 0.26083 1.00554 0.0
C1252 C 0.32668 0.26013 0.01389 0.0
C1253 C 0.31748 0.25614 0.02485 0.0
O1254 O 0.27108 0.25562 0.01401 0.0
C1255 C 0.29356 0.2829 0.04301 0.0
O1256 O 0.30064 0.28568 0.03111 0.0
H1257 H 0.29521 0.26315 0.99856 0.0
H1258 H 0.32055 0.25378 0.03606 0.0
N1259 N 0.28513 0.23844 0.03996 0.0
N1260 N 0.27728 0.22312 0.05693 0.0
C1261 C 0.27759 0.23701 0.05218 0.0
C1262 C 0.28998 0.22505 0.03687 0.0
C1263 C 0.28517 0.21556 0.04737 0.0
C1264 C 0.2604 0.24663 0.01337 0.0
O1265 O 0.25767 0.23862 0.0248 0.0
H1266 H 0.27214 0.246 0.05726 0.0
H1267 H 0.29612 0.22233 0.0274 0.0
O1268 O 0.28573 0.27137 0.04356 0.0
H1269 H 0.3384 0.26124 0.01488 0.0
H1270 H 0.28684 0.20391 0.04757 0.0
Cu1271 Cu 0.77932 0.27545 1.00401 0.0
N1272 N 0.76132 0.27863 0.01435 0.0
N1273 N 0.74549 0.28616 0.0306 0.0
C1274 C 0.7596 0.28578 0.02704 0.0
C1275 C 0.73807 0.27904 0.01972 0.0
C1276 C 0.74788 0.27437 0.00973 0.0
O1277 O 0.78842 0.26583 0.02221 0.0
C1278 C 0.76538 0.29752 0.98512 0.0
O1279 O 0.76629 0.30564 0.99698 0.0
H1280 H 0.76839 0.29087 0.0334 0.0
H1281 H 0.74541 0.26838 0.99973 0.0
N1282 N 0.79708 0.27193 0.99346 0.0
N1283 N 0.81176 0.26418 0.97624 0.0
C1284 C 0.79785 0.26571 0.98018 0.0
C1285 C 0.81092 0.27452 0.99807 0.0
C1286 C 0.82003 0.26967 0.98747 0.0
C1287 C 0.79483 0.27315 0.03245 0.0
O1288 O 0.79579 0.28739 0.03138 0.0
H1289 H 0.78843 0.26205 0.9737 0.0
H1290 H 0.81418 0.27943 0.00844 0.0
O1291 O 0.77019 0.28457 0.98556 0.0
H1292 H 0.72642 0.27721 0.01914 0.0
H1293 H 0.8318 0.27018 0.98795 0.0
Cu1294 Cu 0.76281 0.79023 0.01828 0.0
N1295 N 0.76363 0.80689 1.00662 0.0
N1296 N 0.76963 0.82124 0.98807 0.0
C1297 C 0.77018 0.80773 0.99371 0.0
C1298 C 0.76263 0.82933 0.99788 0.0
C1299 C 0.75888 0.82042 0.00932 0.0
O1300 O 0.76588 0.77344 1.00559 0.0
C1301 C 0.77329 0.80095 0.04503 0.0
O1302 O 0.76033 0.80679 0.04453 0.0
H1303 H 0.77552 0.79864 0.98867 0.0
H1304 H 0.75323 0.8236 0.01897 0.0
N1305 N 0.74453 0.78732 0.02623 0.0
N1306 N 0.72772 0.77834 0.0409 0.0
C1307 C 0.74201 0.77931 0.03817 0.0
C1308 C 0.73135 0.79156 0.02119 0.0
C1309 C 0.72093 0.78597 0.03021 0.0
C1310 C 0.75761 0.77296 0.99414 0.0
O1311 O 0.74803 0.78326 0.99199 0.0
H1312 H 0.75051 0.77401 0.04454 0.0
H1313 H 0.72946 0.79806 0.01153 0.0
O1314 O 0.77709 0.79294 0.03443 0.0
H1315 H 0.7603 0.84081 0.99682 0.0
H1316 H 0.70929 0.78741 0.02902 0.0
Cu1317 Cu 0.2668 0.76384 0.99619 0.0
N1318 N 0.26424 0.7802 0.00803 0.0
N1319 N 0.25509 0.79303 0.02634 0.0
C1320 C 0.2569 0.77969 0.02047 0.0
C1321 C 0.26181 0.80233 0.01728 0.0
C1322 C 0.26742 0.79437 1.00595 0.0
O1323 O 0.26938 0.74755 0.00983 0.0
C1324 C 0.23975 0.77086 0.98155 0.0
O1325 O 0.23699 0.77809 0.99351 0.0
H1326 H 0.25267 0.76965 0.02489 0.0
H1327 H 0.27293 0.79864 0.99661 0.0
N1328 N 0.28349 0.76509 0.98513 0.0
N1329 N 0.29872 0.75902 0.96768 0.0
C1330 C 0.28533 0.75714 0.97296 0.0
C1331 C 0.29612 0.77244 0.98756 0.0
C1332 C 0.30561 0.7686 0.97684 0.0
C1333 C 0.28035 0.74944 0.01861 0.0
O1334 O 0.28834 0.76128 0.0172 0.0
H1335 H 0.27716 0.74966 0.96838 0.0
H1336 H 0.29841 0.77977 0.99665 0.0
O1337 O 0.25083 0.76264 0.98146 0.0
H1338 H 0.26213 0.81408 0.0184 0.0
H1339 H 0.31672 0.77244 0.97591 0.0
Cu1340 Cu 0.02207 0.26508 0.26406 0.0
N1341 N 0.03302 0.26452 0.24714 0.0
N1342 N 0.05057 0.25747 0.23237 0.0
C1343 C 0.04662 0.25937 0.24629 0.0
C1344 C 0.03905 0.26184 0.22408 0.0
C1345 C 0.02827 0.26623 0.23322 0.0
O1346 O 0.03546 0.26746 0.28094 0.0
C1347 C 0.00797 0.23851 0.25439 0.0
O1348 O 0.01958 0.2364 0.24674 0.0
H1349 H 0.05316 0.2561 0.25564 0.0
H1350 H 0.0174 0.26953 0.22996 0.0
N1351 N 0.01012 0.2813 0.26448 0.0
N1352 N 0.99195 0.29522 0.2719 0.0
C1353 C 0.99847 0.28216 0.27292 0.0
C1354 C 0.01107 0.29424 0.25776 0.0
C1355 C 0.99983 0.30286 0.26229 0.0
C1356 C 0.04552 0.25891 0.28514 0.0
O1357 O 0.04612 0.2458 0.27938 0.0
H1358 H 0.9949 0.27327 0.27969 0.0
H1359 H 0.01945 0.29726 0.2503 0.0
O1360 O 0.00815 0.24874 0.26387 0.0
H1361 H 0.03824 0.26136 0.21228 0.0
H1362 H 0.99788 0.31399 0.25903 0.0
Cu1363 Cu 0.75568 0.02728 0.2508 0.0
N1364 N 0.75788 0.03808 0.2337 0.0
N1365 N 0.76576 0.0556 0.21888 0.0
C1366 C 0.76328 0.05176 0.23278 0.0
C1367 C 0.76155 0.04392 0.21068 0.0
C1368 C 0.75666 0.03316 0.21985 0.0
O1369 O 0.75171 0.04051 0.26685 0.0
C1370 C 0.78343 0.01456 0.24615 0.0
O1371 O 0.78597 0.026 0.23804 0.0
H1372 H 0.76619 0.05848 0.24215 0.0
H1373 H 0.75315 0.02225 0.21672 0.0
N1374 N 0.73959 0.01476 0.24905 0.0
N1375 N 0.72533 0.99555 0.25394 0.0
C1376 C 0.73867 1.00178 0.25573 0.0
C1377 C 0.72643 0.01689 0.24268 0.0
C1378 C 0.71761 1.00503 0.24565 0.0
C1379 C 0.76008 0.05056 0.27201 0.0
O1380 O 0.77352 0.05156 0.26768 0.0
H1381 H 0.74764 0.99719 0.262 0.0
H1382 H 0.72335 0.02657 0.23674 0.0
O1383 O 0.77208 0.01422 0.25375 0.0
H1384 H 0.76236 0.04304 0.19896 0.0
H1385 H 0.70623 1.00383 0.24241 0.0
Cu1386 Cu 0.01366 0.76218 0.27004 0.0
N1387 N 1.00418 0.78011 0.26975 0.0
N1388 N 0.98741 0.79666 0.26391 0.0
C1389 C 0.99109 0.7825 0.26325 0.0
C1390 C 0.9986 0.80347 0.27114 0.0
C1391 C 0.0089 0.79321 0.2748 0.0
O1392 O 0.99851 0.74723 0.2717 0.0
C1393 C 0.03544 0.77068 0.2524 0.0
O1394 O 0.03689 0.7798 0.26347 0.0
H1395 H 0.98459 0.77407 0.25775 0.0
H1396 H 0.01921 0.79522 0.28052 0.0
N1397 N 0.02665 0.76061 0.28611 0.0
N1398 N 0.04583 0.75318 0.29966 0.0
C1399 C 0.03825 0.75182 0.28682 0.0
C1400 C 0.02683 0.76781 0.29894 0.0
C1401 C 0.03862 0.76325 0.30731 0.0
C1402 C 0.99085 0.74864 0.28295 0.0
O1403 O 0.99412 0.75936 0.2921 0.0
H1404 H 0.0412 0.7448 0.2779 0.0
H1405 H 0.01894 0.77582 0.30198 0.0
O1406 O 0.02525 0.76111 0.25261 0.0
H1407 H 0.99928 0.81502 0.27356 0.0
H1408 H 0.04154 0.76698 0.31826 0.0
Cu1409 Cu 0.23826 0.99376 0.2722 0.0
N1410 N 0.23709 1.0065 0.28801 0.0
N1411 N 0.24242 0.02658 0.30105 0.0
C1412 C 0.24325 0.01986 0.28803 0.0
C1413 C 0.23544 0.01708 0.30966 0.0
C1414 C 0.23204 1.00469 0.30151 0.0
O1415 O 0.2407 1.00684 0.25569 0.0
C1416 C 0.25233 0.97191 0.28689 0.0
O1417 O 0.24007 0.97274 0.29377 0.0
H1418 H 0.24894 0.02428 0.27887 0.0
H1419 H 0.22667 0.99494 0.30531 0.0
N1420 N 0.22149 0.98227 0.26945 0.0
N1421 N 0.20709 0.96438 0.26038 0.0
C1422 C 0.2205 0.97053 0.26062 0.0
C1423 C 0.20829 0.98361 0.27516 0.0
C1424 C 0.19936 0.97254 0.26959 0.0
C1425 C 0.23044 0.00919 0.24634 0.0
O1426 O 0.21911 1.00035 0.24569 0.0
H1427 H 0.22953 0.96659 0.2545 0.0
H1428 H 0.20533 0.99211 0.28268 0.0
O1429 O 0.25434 0.98052 0.27625 0.0
H1430 H 0.23322 0.01888 0.32105 0.0
H1431 H 0.188 0.97083 0.27188 0.0
Cu1432 Cu 0.00844 0.76926 0.75977 0.0
N1433 N 0.01841 0.7518 0.75834 0.0
N1434 N 0.03553 0.7364 0.7514 0.0
C1435 C 0.03085 0.75027 0.7512 0.0
C1436 C 0.02568 0.72893 0.75915 0.0
C1437 C 0.0151 0.73848 0.76339 0.0
O1438 O 0.02358 0.78437 0.75994 0.0
C1439 C 0.99373 0.76267 0.73243 0.0
O1440 O 1.00533 0.75511 0.72963 0.0
H1441 H 0.0363 0.75922 0.74591 0.0
H1442 H 1.00558 0.73587 0.76953 0.0
N1443 N 0.99851 0.77015 0.77716 0.0
N1444 N 0.9816 0.77693 0.79266 0.0
C1445 C 0.98514 0.77567 0.77855 0.0
C1446 C 1.00359 0.76769 0.79084 0.0
C1447 C 0.99318 0.77192 0.80046 0.0
C1448 C 0.02414 0.79512 0.76881 0.0
O1449 O 0.01271 0.79802 0.77648 0.0
H1450 H 0.97852 0.77953 0.76943 0.0
H1451 H 0.01436 0.76376 0.79363 0.0
O1452 O 0.99364 0.77037 0.74404 0.0
H1453 H 0.02589 0.71735 0.76127 0.0
H1454 H 0.99419 0.77171 0.81225 0.0
Cu1455 Cu 0.27002 0.02231 0.76361 0.0
N1456 N 0.27091 0.03423 0.74704 0.0
N1457 N 0.27791 0.05274 0.73286 0.0
C1458 C 0.27487 0.04845 0.74653 0.0
C1459 C 0.27552 0.04079 0.72441 0.0
C1460 C 0.2713 0.02944 0.73316 0.0
O1461 O 0.26807 0.03463 0.78082 0.0
C1462 C 0.28915 0.99858 0.77031 0.0
O1463 O 0.28077 0.9959 0.7813 0.0
H1464 H 0.27652 0.05528 0.75609 0.0
H1465 H 0.26968 0.01821 0.72978 0.0
N1466 N 0.25385 0.00954 0.7625 0.0
N1467 N 0.23919 0.99097 0.76866 0.0
C1468 C 0.24945 1.00079 0.77333 0.0
C1469 C 0.24581 1.00538 0.75063 0.0
C1470 C 0.23677 0.99397 0.75439 0.0
C1471 C 0.27706 0.04456 0.78508 0.0
O1472 O 0.28969 0.04565 0.77888 0.0
H1473 H 0.25403 1.00132 0.78433 0.0
H1474 H 0.24692 0.00981 0.73983 0.0
O1475 O 0.28725 0.01016 0.76295 0.0
H1476 H 0.27732 0.04009 0.71282 0.0
H1477 H 0.22961 0.98782 0.74696 0.0
Cu1478 Cu 0.02953 0.26865 0.77969 0.0
N1479 N 0.01722 0.28432 0.78263 0.0
N1480 N 0.99842 0.29908 0.77814 0.0
C1481 C 1.00514 0.28668 0.77435 0.0
C1482 C 1.00665 0.30468 0.78938 0.0
C1483 C 0.01823 0.29555 0.79212 0.0
O1484 O 0.01634 0.2525 0.77442 0.0
C1485 C 0.05118 0.28518 0.76822 0.0
O1486 O 0.04961 0.29137 0.78102 0.0
H1487 H 1.00142 0.27934 0.7657 0.0
H1488 H 0.02691 0.29714 0.80025 0.0
N1489 N 0.0408 0.26421 0.79639 0.0
N1490 N 0.05909 0.25495 0.80992 0.0
C1491 C 0.05349 0.25707 0.79631 0.0
C1492 C 0.03826 0.26679 0.81053 0.0
C1493 C 0.04956 0.26112 0.81891 0.0
C1494 C 0.01556 0.24075 0.78169 0.0
O1495 O 0.02591 0.23784 0.7914 0.0
H1496 H 0.05846 0.25347 0.7864 0.0
H1497 H 0.02877 0.2722 0.81446 0.0
O1498 O 0.04302 0.27428 0.76473 0.0
H1499 H 1.00471 0.31482 0.795 0.0
H1500 H 0.05048 0.2612 0.83071 0.0
Cu1501 Cu 0.76074 0.01813 0.75328 0.0
N1502 N 0.76318 0.02822 0.77095 0.0
N1503 N 0.77169 0.04535 0.78653 0.0
C1504 C 0.76923 0.0416 0.77241 0.0
C1505 C 0.76693 0.03387 0.79428 0.0
C1506 C 0.76164 0.02331 0.78461 0.0
O1507 O 0.75943 0.03273 0.73785 0.0
C1508 C 0.78816 1.00493 0.75951 0.0
O1509 O 0.7916 0.0172 0.76628 0.0
H1510 H 0.77264 0.04806 0.76326 0.0
H1511 H 0.75761 0.01256 0.78731 0.0
N1512 N 0.74367 0.00686 0.75273 0.0
N1513 N 0.72829 0.98878 0.74617 0.0
C1514 C 0.74183 0.99438 0.74508 0.0
C1515 C 0.73089 0.00919 0.75904 0.0
C1516 C 0.72131 0.99808 0.75489 0.0
C1517 C 0.74899 0.04161 0.73915 0.0
O1518 O 0.74033 0.03989 0.75013 0.0
H1519 H 0.75019 0.98965 0.73857 0.0
H1520 H 0.72866 0.01834 0.76606 0.0
O1521 O 0.77632 1.00407 0.75192 0.0
H1522 H 0.76759 0.03301 0.80605 0.0
H1523 H 0.71014 0.99686 0.75811 0.0
Cu1524 Cu 0.27134 0.76226 0.52391 0.0
N1525 N 0.28822 0.76748 0.53496 0.0
N1526 N 0.30238 0.7777 0.55271 0.0
C1527 C 0.28862 0.77527 0.5475 0.0
C1528 C 0.31094 0.77116 0.54301 0.0
C1529 C 0.30219 0.76492 0.53207 0.0
O1530 O 0.25582 0.75796 0.53737 0.0
C1531 C 0.27467 0.78889 0.50818 0.0
O1532 O 0.28373 0.79281 0.51889 0.0
H1533 H 0.27895 0.77902 0.55269 0.0
H1534 H 0.30578 0.75913 0.52256 0.0
N1535 N 0.27377 0.74562 0.51244 0.0
N1536 N 0.2697 0.73035 0.4935 0.0
C1537 C 0.2655 0.74259 0.50038 0.0
C1538 C 0.28355 0.73491 0.5134 0.0
C1539 C 0.28107 0.72546 0.50174 0.0
C1540 C 0.25934 0.75005 0.5483 0.0
O1541 O 0.27274 0.74538 0.54968 0.0
H1542 H 0.25652 0.74932 0.49683 0.0
H1543 H 0.29198 0.7341 0.52186 0.0
O1544 O 0.26706 0.77728 0.50941 0.0
H1545 H 0.32271 0.77116 0.54355 0.0
H1546 H 0.28739 0.71592 0.49941 0.0
Cu1547 Cu 0.75161 0.76826 0.49388 0.0
N1548 N 0.75514 0.75073 0.48432 0.0
N1549 N 0.76392 0.73538 0.4679 0.0
C1550 C 0.76097 0.74938 0.47112 0.0
C1551 C 0.75965 0.72762 0.47951 0.0
C1552 C 0.75422 0.73713 0.48962 0.0
O1553 O 0.74503 0.78225 0.4793 0.0
C1554 C 0.78016 0.76669 0.50694 0.0
O1555 O 0.78298 0.75805 0.49595 0.0
H1556 H 0.76375 0.75857 0.46438 0.0
H1557 H 0.75039 0.7344 0.50031 0.0
N1558 N 0.73644 0.76606 0.50661 0.0
N1559 N 0.72273 0.77108 0.52562 0.0
C1560 C 0.73512 0.77418 0.51872 0.0
C1561 C 0.72453 0.75739 0.50574 0.0
C1562 C 0.71605 0.76044 0.51752 0.0
C1563 C 0.75249 0.78922 0.47015 0.0
O1564 O 0.76675 0.78849 0.47086 0.0
H1565 H 0.74314 0.78228 0.52231 0.0
H1566 H 0.72207 0.74965 0.49704 0.0
O1567 O 0.76828 0.77367 0.50665 0.0
H1568 H 0.76064 0.71595 0.48073 0.0
H1569 H 0.70559 0.75551 0.51966 0.0
Cu1570 Cu 0.78213 0.27252 0.51697 0.0
N1571 N 0.77963 0.25495 0.50665 0.0
N1572 N 0.7708 0.23976 0.48922 0.0
C1573 C 0.77203 0.2537 0.49389 0.0
C1574 C 0.77818 0.23191 0.49937 0.0
C1575 C 0.78358 0.24132 0.51016 0.0
O1576 O 0.78534 0.28756 0.50226 0.0
C1577 C 0.75416 0.26707 0.52889 0.0
O1578 O 0.75121 0.25956 0.5169 0.0
H1579 H 0.76722 0.26291 0.48831 0.0
H1580 H 0.7896 0.23841 0.52003 0.0
N1581 N 0.79827 0.27258 0.52996 0.0
N1582 N 0.81201 0.27931 0.54952 0.0
C1583 C 0.79883 0.28004 0.54268 0.0
C1584 C 0.81155 0.26678 0.52876 0.0
C1585 C 0.82009 0.27102 0.54079 0.0
C1586 C 0.79573 0.28466 0.49386 0.0
O1587 O 0.803 0.27264 0.49621 0.0
H1588 H 0.78987 0.28633 0.54659 0.0
H1589 H 0.81488 0.26016 0.5197 0.0
O1590 O 0.7657 0.27492 0.52975 0.0
H1591 H 0.77915 0.22017 0.49931 0.0
H1592 H 0.83136 0.26826 0.54293 0.0
Cu1593 Cu 0.26179 0.25539 0.51475 0.0
N1594 N 0.24496 0.25682 0.5254 0.0
N1595 N 0.23053 0.26444 0.54292 0.0
C1596 C 0.24427 0.26375 0.53831 0.0
C1597 C 0.22225 0.25742 0.53258 0.0
C1598 C 0.2312 0.25278 0.52173 0.0
O1599 O 0.2778 0.2525 0.52867 0.0
C1600 C 0.25536 0.28304 0.5021 0.0
O1601 O 0.24775 0.28529 0.51374 0.0
H1602 H 0.25365 0.26855 0.54401 0.0
H1603 H 0.22787 0.24731 0.51165 0.0
N1604 N 0.26114 0.23908 0.50265 0.0
N1605 N 0.26736 0.22467 0.48423 0.0
C1606 C 0.2691 0.23784 0.4907 0.0
C1607 C 0.25401 0.22628 0.50387 0.0
C1608 C 0.25779 0.21735 0.49245 0.0
C1609 C 0.28423 0.26193 0.53689 0.0
O1610 O 0.28136 0.27581 0.5352 0.0
H1611 H 0.27607 0.24651 0.48689 0.0
H1612 H 0.24682 0.22355 0.51258 0.0
O1613 O 0.2634 0.27187 0.50156 0.0
H1614 H 0.21052 0.2563 0.53254 0.0
H1615 H 0.25409 0.20623 0.49059 0.0
Cu1616 Cu 0.77249 0.53226 0.74892 0.0
N1617 N 0.7706 0.54395 0.73238 0.0
N1618 N 0.77497 0.56235 0.71715 0.0
C1619 C 0.77599 0.5576 0.73106 0.0
C1620 C 0.76862 0.55127 0.70944 0.0
C1621 C 0.76592 0.53994 0.71887 0.0
O1622 O 0.77566 0.54566 0.76536 0.0
C1623 C 0.79406 0.51 0.75405 0.0
O1624 O 0.79153 0.51119 0.76802 0.0
H1625 H 0.78136 0.56359 0.73997 0.0
H1626 H 0.76147 0.5293 0.71598 0.0
N1627 N 0.75555 0.5212 0.75166 0.0
N1628 N 0.74132 0.50308 0.75951 0.0
C1629 C 0.75502 0.50743 0.75668 0.0
C1630 C 0.74169 0.5257 0.75114 0.0
C1631 C 0.73288 0.51455 0.756 0.0
C1632 C 0.76973 0.54396 0.77761 0.0
O1633 O 0.76343 0.53142 0.78045 0.0
H1634 H 0.76457 0.50101 0.75902 0.0
H1635 H 0.73833 0.53652 0.74804 0.0
O1636 O 0.7879 0.51863 0.74505 0.0
H1637 H 0.76642 0.55122 0.69777 0.0
H1638 H 0.72122 0.51498 0.75715 0.0
Cu1639 Cu 0.26313 0.50748 0.77121 0.0
N1640 N 0.26244 0.49577 0.78787 0.0
N1641 N 0.26882 0.47756 0.80284 0.0
C1642 C 0.26655 0.48175 0.78886 0.0
C1643 C 0.26575 0.48936 0.81099 0.0
C1644 C 0.26187 0.50055 0.80174 0.0
O1645 O 0.26182 0.49499 0.75404 0.0
C1646 C 0.28521 0.52913 0.76542 0.0
O1647 O 0.27963 0.52998 0.75209 0.0
H1648 H 0.26907 0.4751 0.77956 0.0
H1649 H 0.25998 0.51172 0.80488 0.0
N1650 N 0.24762 0.52042 0.76994 0.0
N1651 N 0.23422 0.53895 0.76148 0.0
C1652 C 0.24501 0.52956 0.75875 0.0
C1653 C 0.23804 0.52397 0.78009 0.0
C1654 C 0.22976 0.53538 0.77491 0.0
C1655 C 0.27087 0.48522 0.75086 0.0
O1656 O 0.28334 0.48461 0.75823 0.0
H1657 H 0.25111 0.52943 0.74888 0.0
H1658 H 0.23744 0.519 0.79071 0.0
O1659 O 0.28058 0.5194 0.77398 0.0
H1660 H 0.26703 0.49012 0.82275 0.0
H1661 H 0.22153 0.54098 0.78087 0.0
Cu1662 Cu 0.26865 0.51467 0.26847 0.0
N1663 N 0.26693 0.50428 0.28588 0.0
N1664 N 0.25927 0.48632 0.3003 0.0
C1665 C 0.26032 0.49112 0.28649 0.0
C1666 C 0.26572 0.49683 0.30875 0.0
C1667 C 0.27039 0.50794 0.29981 0.0
O1668 O 0.27333 0.50008 0.2538 0.0
C1669 C 0.24029 0.52583 0.27322 0.0
O1670 O 0.23842 0.51443 0.28156 0.0
H1671 H 0.25604 0.48535 0.27691 0.0
H1672 H 0.2755 0.51813 0.30324 0.0
N1673 N 0.28366 0.52865 0.2688 0.0
N1674 N 0.29641 0.54785 0.26078 0.0
C1675 C 0.28444 0.53927 0.25878 0.0
C1676 C 0.29551 0.53054 0.27764 0.0
C1677 C 0.3034 0.54237 0.27272 0.0
C1678 C 0.2852 0.49362 0.25703 0.0
O1679 O 0.29254 0.49779 0.2689 0.0
H1680 H 0.27622 0.54062 0.2502 0.0
H1681 H 0.29833 0.5237 0.28684 0.0
O1682 O 0.25126 0.52634 0.26509 0.0
H1683 H 0.26649 0.49679 0.32055 0.0
H1684 H 0.31365 0.54638 0.27742 0.0
Cu1685 Cu 0.76288 0.51188 0.24454 0.0
N1686 N 0.78037 0.50182 0.24647 0.0
N1687 N 0.79612 0.48561 0.25545 0.0
C1688 C 0.78224 0.49014 0.25508 0.0
C1689 C 0.80334 0.49489 0.24681 0.0
C1690 C 0.79355 0.50487 0.24121 0.0
O1691 O 0.74705 0.49757 0.2452 0.0
C1692 C 0.7725 0.53689 0.25802 0.0
O1693 O 0.78032 0.53677 0.2463 0.0
H1694 H 0.77364 0.48528 0.2613 0.0
H1695 H 0.79592 0.51387 0.23406 0.0
N1696 N 0.76067 0.52182 0.22688 0.0
N1697 N 0.75323 0.53923 0.21155 0.0
C1698 C 0.75408 0.53476 0.22552 0.0
C1699 C 0.76401 0.51785 0.21325 0.0
C1700 C 0.75936 0.52859 0.20372 0.0
C1701 C 0.74872 0.48621 0.23741 0.0
O1702 O 0.76045 0.48509 0.22972 0.0
H1703 H 0.74969 0.54065 0.2346 0.0
H1704 H 0.76928 0.5078 0.21043 0.0
O1705 O 0.76346 0.5265 0.26003 0.0
H1706 H 0.81484 0.49448 0.24472 0.0
H1707 H 0.76045 0.52861 0.192 0.0
Cu1708 Cu 0.52819 0.26205 0.76316 0.0
N1709 N 0.51749 0.26178 0.78007 0.0
N1710 N 0.50001 0.26867 0.79495 0.0
C1711 C 0.50531 0.26952 0.78142 0.0
C1712 C 0.50926 0.25987 0.80239 0.0
C1713 C 0.52009 0.25567 0.79317 0.0
O1714 O 0.51329 0.26394 0.74756 0.0
C1715 C 0.55311 0.27557 0.77406 0.0
O1716 O 0.55379 0.26293 0.78065 0.0
H1717 H 0.50053 0.27578 0.77257 0.0
H1718 H 0.52935 0.24899 0.79594 0.0
N1719 N 0.53878 0.24503 0.76038 0.0
N1720 N 0.55616 0.23076 0.75184 0.0
C1721 C 0.55048 0.24424 0.75198 0.0
C1722 C 0.53693 0.23158 0.76583 0.0
C1723 C 0.54768 0.22274 0.7606 0.0
C1724 C 0.51126 0.25458 0.73733 0.0
O1725 O 0.52134 0.24492 0.73505 0.0
H1726 H 0.55482 0.25351 0.74624 0.0
H1727 H 0.52839 0.22843 0.77304 0.0
O1728 O 0.5423 0.27812 0.7654 0.0
H1729 H 0.50858 0.25705 0.81379 0.0
H1730 H 0.54899 0.21128 0.76291 0.0
Cu1731 Cu 0.52692 0.76489 0.78084 0.0
N1732 N 0.53908 0.76202 0.79738 0.0
N1733 N 0.55763 0.75349 0.81115 0.0
C1734 C 0.55049 0.75297 0.79802 0.0
C1735 C 0.55028 0.76322 0.8191 0.0
C1736 C 0.53887 0.76845 0.81059 0.0
O1737 O 0.53883 0.7649 0.76373 0.0
C1738 C 0.50328 0.75082 0.79132 0.0
O1739 O 0.50609 0.76082 0.80138 0.0
H1740 H 0.55372 0.74649 0.78881 0.0
H1741 H 0.53102 0.77643 0.81378 0.0
N1742 N 0.51741 0.78274 0.78088 0.0
N1743 N 0.5008 0.7992 0.77417 0.0
C1744 C 0.50519 0.78529 0.77289 0.0
C1745 C 0.52098 0.79547 0.7875 0.0
C1746 C 0.51069 0.80565 0.78343 0.0
C1747 C 0.55068 0.77223 0.76499 0.0
O1748 O 0.55399 0.77891 0.77739 0.0
H1749 H 0.49965 0.77701 0.76625 0.0
H1750 H 0.53051 0.7973 0.79454 0.0
O1751 O 0.51167 0.75004 0.78057 0.0
H1752 H 0.55288 0.76633 0.83029 0.0
H1753 H 0.51074 0.81699 0.78673 0.0
Cu1754 Cu 0.50149 0.75376 0.26872 0.0
N1755 N 0.49068 0.75366 0.28571 0.0
N1756 N 0.47329 0.75978 0.30097 0.0
C1757 C 0.47836 0.76117 0.28741 0.0
C1758 C 0.48275 0.75104 0.30812 0.0
C1759 C 0.49342 0.74717 0.29863 0.0
O1760 O 0.48733 0.75405 0.25225 0.0
C1761 C 0.52487 0.76826 0.28104 0.0
O1762 O 0.52363 0.75662 0.28918 0.0
H1763 H 0.47341 0.76782 0.27894 0.0
H1764 H 0.5026 0.74025 0.30104 0.0
N1765 N 0.51261 0.73699 0.26657 0.0
N1766 N 0.53047 0.72306 0.25857 0.0
C1767 C 0.52514 0.73664 0.2594 0.0
C1768 C 0.50994 0.72312 0.27053 0.0
C1769 C 0.52092 0.71447 0.2655 0.0
C1770 C 0.47788 0.74375 0.25271 0.0
O1771 O 0.47879 0.73459 0.26365 0.0
H1772 H 0.53004 0.74614 0.25449 0.0
H1773 H 0.50059 0.71951 0.27644 0.0
O1774 O 0.5156 0.76994 0.27052 0.0
H1775 H 0.48195 0.74765 0.31936 0.0
H1776 H 0.52182 0.7028 0.26681 0.0
Cu1777 Cu 0.51193 0.24668 0.25969 0.0
N1778 N 0.50027 0.22981 0.26034 0.0
N1779 N 0.48194 0.21522 0.26674 0.0
C1780 C 0.4877 0.22881 0.26742 0.0
C1781 C 0.49121 0.20733 0.25891 0.0
C1782 C 0.50247 0.21639 0.25488 0.0
O1783 O 0.49853 0.26316 0.25973 0.0
C1784 C 0.53583 0.23508 0.27353 0.0
O1785 O 0.5337 0.22664 0.26202 0.0
H1786 H 0.48306 0.23781 0.27327 0.0
H1787 H 0.51166 0.21334 0.24854 0.0
N1788 N 0.52205 0.24803 0.24241 0.0
N1789 N 0.53866 0.25632 0.22713 0.0
C1790 C 0.53314 0.25745 0.24054 0.0
C1791 C 0.52043 0.24058 0.22976 0.0
C1792 C 0.53069 0.24567 0.2203 0.0
C1793 C 0.48957 0.26287 0.24877 0.0
O1794 O 0.49045 0.2521 0.23935 0.0
H1795 H 0.5372 0.26483 0.24903 0.0
H1796 H 0.51232 0.23214 0.22755 0.0
O1797 O 0.52701 0.24553 0.27536 0.0
H1798 H 0.4899 0.19587 0.25625 0.0
H1799 H 0.53201 0.24195 0.20921 0.0
C1800 C 0.22428 0.18594 0.11309 0.0
C1801 C 0.22734 0.19054 0.12751 0.0
C1802 C 0.23271 0.19087 0.10157 0.0
C1803 C 0.24446 0.20068 0.10452 0.0
C1804 C 0.24766 0.20533 0.11904 0.0
C1805 C 0.23908 0.20019 0.13036 0.0
C1806 C 0.22892 0.1857 0.08622 0.0
C1807 C 0.26009 0.21581 0.12261 0.0
C1808 C 0.27352 0.20475 0.07615 0.0
C1809 C 0.26918 0.21749 0.06894 0.0
C1810 C 0.26562 0.19916 0.08778 0.0
C1811 C 0.25308 0.20649 0.09232 0.0
C1812 C 0.24865 0.21935 0.08511 0.0
C1813 C 0.25671 0.22465 0.07351 0.0
C1814 C 0.27067 0.1854 0.09521 0.0
C1815 C 0.23533 0.22747 0.08959 0.0
H1816 H 0.21512 0.17865 0.11075 0.0
H1817 H 0.24165 0.20362 0.14149 0.0
H1818 H 0.2259 0.19513 0.07929 0.0
H1819 H 0.23852 0.1806 0.08138 0.0
H1820 H 0.21975 0.17769 0.08583 0.0
H1821 H 0.26132 0.21814 0.1345 0.0
H1822 H 0.27042 0.21129 0.11878 0.0
H1823 H 0.25829 0.22624 0.1168 0.0
H1824 H 0.28318 0.19922 0.07279 0.0
H1825 H 0.25306 0.23432 0.06786 0.0
H1826 H 0.26196 0.17692 0.09436 0.0
H1827 H 0.27291 0.18755 0.107 0.0
H1828 H 0.28065 0.18102 0.0904 0.0
H1829 H 0.22556 0.22028 0.08835 0.0
H1830 H 0.23348 0.23744 0.08301 0.0
H1831 H 0.23644 0.23066 0.10127 0.0
C1832 C 0.84113 0.23887 0.09941 0.0
C1833 C 0.83235 0.23043 0.10838 0.0
C1834 C 0.83523 0.24579 0.08693 0.0
C1835 C 0.8201 0.24453 0.08355 0.0
C1836 C 0.81115 0.23623 0.09277 0.0
C1837 C 0.81741 0.22916 0.10495 0.0
C1838 C 0.8452 0.25427 0.07725 0.0
C1839 C 0.79494 0.23488 0.0898 0.0
C1840 C 0.80295 0.27328 0.0588 0.0
C1841 C 0.80118 0.26575 0.04549 0.0
C1842 C 0.80893 0.26648 0.07129 0.0
C1843 C 0.81362 0.25187 0.07038 0.0
C1844 C 0.81199 0.24425 0.05691 0.0
C1845 C 0.80562 0.25121 0.04469 0.0
C1846 C 0.81009 0.27489 0.0855 0.0
C1847 C 0.81711 0.22878 0.05537 0.0
H1848 H 0.8527 0.23977 0.10197 0.0
H1849 H 0.81057 0.22274 0.11195 0.0
H1850 H 0.84445 0.24975 0.06599 0.0
H1851 H 0.84179 0.2658 0.07665 0.0
H1852 H 0.85673 0.25398 0.08123 0.0
H1853 H 0.78944 0.22843 0.09827 0.0
H1854 H 0.79007 0.24587 0.08932 0.0
H1855 H 0.79272 0.22958 0.07904 0.0
H1856 H 0.79942 0.28448 0.05953 0.0
H1857 H 0.80438 0.24536 0.03441 0.0
H1858 H 0.82164 0.2758 0.0893 0.0
H1859 H 0.80415 0.26897 0.09403 0.0
H1860 H 0.80561 0.28603 0.08448 0.0
H1861 H 0.82884 0.22818 0.05852 0.0
H1862 H 0.81547 0.22452 0.04406 0.0
H1863 H 0.81115 0.22156 0.06286 0.0
C1864 C 0.82332 0.82087 0.11667 0.0
C1865 C 0.82089 0.83565 0.11982 0.0
C1866 C 0.81684 0.81402 0.10426 0.0
C1867 C 0.80798 0.82218 0.0945 0.0
C1868 C 0.80596 0.83721 0.09726 0.0
C1869 C 0.81227 0.84369 0.10992 0.0
C1870 C 0.81909 0.79794 0.10186 0.0
C1871 C 0.79676 0.84638 0.08703 0.0
C1872 C 0.79762 0.80822 0.05616 0.0
C1873 C 0.78304 0.80416 0.05782 0.0
C1874 C 0.80609 0.81376 0.0681 0.0
C1875 C 0.79988 0.81488 0.08202 0.0
C1876 C 0.78541 0.80991 0.08384 0.0
C1877 C 0.77712 0.80483 0.07168 0.0
C1878 C 0.82136 0.81919 0.06563 0.0
C1879 C 0.77846 0.81049 0.09852 0.0
H1880 H 0.83021 0.81456 0.12397 0.0
H1881 H 0.81006 0.85502 0.11223 0.0
H1882 H 0.80853 0.79202 0.10251 0.0
H1883 H 0.8232 0.79593 0.0908 0.0
H1884 H 0.82687 0.79327 0.11005 0.0
H1885 H 0.79742 0.85815 0.08992 0.0
H1886 H 0.80024 0.84498 0.07564 0.0
H1887 H 0.78522 0.84276 0.08736 0.0
H1888 H 0.80214 0.80787 0.04539 0.0
H1889 H 0.76584 0.80163 0.07297 0.0
H1890 H 0.82908 0.81462 0.07388 0.0
H1891 H 0.8218 0.83122 0.06691 0.0
H1892 H 0.82505 0.81634 0.05457 0.0
H1893 H 0.78564 0.80544 0.10698 0.0
H1894 H 0.7677 0.80482 0.0984 0.0
H1895 H 0.77693 0.82201 0.10179 0.0
C1896 C 0.2005 0.81626 0.08814 0.0
C1897 C 0.20503 0.81089 0.10182 0.0
C1898 C 0.20877 0.81401 0.07573 0.0
C1899 C 0.22187 0.80612 0.07699 0.0
C1900 C 0.22655 0.80072 0.09078 0.0
C1901 C 0.21809 0.80319 0.10301 0.0
C1902 C 0.20345 0.82 0.06124 0.0
C1903 C 0.24037 0.79214 0.09257 0.0
C1904 C 0.23542 0.78715 0.04318 0.0
C1905 C 0.24671 0.79651 0.03894 0.0
C1906 C 0.22727 0.79018 0.05548 0.0
C1907 C 0.23038 0.80295 0.06378 0.0
C1908 C 0.24164 0.81256 0.05952 0.0
C1909 C 0.24967 0.80923 0.04716 0.0
C1910 C 0.21535 0.77965 0.0596 0.0
C1911 C 0.24526 0.8263 0.06809 0.0
H1912 H 0.19053 0.82239 0.08717 0.0
H1913 H 0.2216 0.79887 0.11351 0.0
H1914 H 0.21191 0.82721 0.05666 0.0
H1915 H 0.2014 0.81094 0.05334 0.0
H1916 H 0.19328 0.82627 0.06217 0.0
H1917 H 0.24274 0.78909 0.1041 0.0
H1918 H 0.23948 0.78203 0.08588 0.0
H1919 H 0.24971 0.79857 0.08859 0.0
H1920 H 0.23278 0.77748 0.03677 0.0
H1921 H 0.25841 0.81647 0.04406 0.0
H1922 H 0.20477 0.78531 0.05962 0.0
H1923 H 0.21753 0.77555 0.07081 0.0
H1924 H 0.21432 0.77018 0.05202 0.0
H1925 H 0.23548 0.83319 0.06869 0.0
H1926 H 0.25412 0.83279 0.06319 0.0
H1927 H 0.24865 0.82351 0.07944 0.0
C1928 C 0.19757 0.79585 0.90695 0.0
C1929 C 0.20439 0.80876 0.90239 0.0
C1930 C 0.20279 0.78824 0.9193 0.0
C1931 C 0.21509 0.79369 0.92741 0.0
C1932 C 0.22214 0.8066 0.92275 0.0
C1933 C 0.21675 0.81393 0.91031 0.0
C1934 C 0.19502 0.77447 0.92379 0.0
C1935 C 0.23523 0.81287 0.9311 0.0
C1936 C 0.22056 0.78478 0.96774 0.0
C1937 C 0.23199 0.77479 0.96761 0.0
C1938 C 0.21466 0.79062 0.95473 0.0
C1939 C 0.22023 0.78635 0.94116 0.0
C1940 C 0.23125 0.77571 0.94088 0.0
C1941 C 0.237 0.77007 0.95409 0.0
C1942 C 0.20291 0.80189 0.95557 0.0
C1943 C 0.23741 0.77074 0.92667 0.0
H1944 H 0.18814 0.79164 0.9008 0.0
H1945 H 0.22201 0.82396 0.907 0.0
H1946 H 0.20281 0.76538 0.92467 0.0
H1947 H 0.19043 0.77601 0.93472 0.0
H1948 H 0.18605 0.77128 0.91596 0.0
H1949 H 0.23978 0.82269 0.92579 0.0
H1950 H 0.23216 0.81587 0.94232 0.0
H1951 H 0.24387 0.80459 0.93212 0.0
H1952 H 0.21655 0.78851 0.97808 0.0
H1953 H 0.24584 0.7624 0.95383 0.0
H1954 H 0.19344 0.79873 0.94837 0.0
H1955 H 0.20709 0.81252 0.95165 0.0
H1956 H 0.19912 0.80338 0.96685 0.0
H1957 H 0.22851 0.76736 0.91885 0.0
H1958 H 0.24499 0.76151 0.92818 0.0
H1959 H 0.24338 0.77992 0.92165 0.0
C1960 C 0.22239 0.22413 0.93553 0.0
C1961 C 0.23006 0.21218 0.93024 0.0
C1962 C 0.2265 0.23095 0.94883 0.0
C1963 C 0.23855 0.22567 0.95711 0.0
C1964 C 0.2464 0.21368 0.95181 0.0
C1965 C 0.24208 0.2071 0.93845 0.0
C1966 C 0.21785 0.24369 0.9541 0.0
C1967 C 0.25933 0.20774 0.9603 0.0
C1968 C 0.25838 0.249 0.98612 0.0
C1969 C 0.25319 0.243 0.99903 0.0
C1970 C 0.25334 0.24384 0.97237 0.0
C1971 C 0.24281 0.23243 0.97149 0.0
C1972 C 0.23698 0.22686 0.98447 0.0
C1973 C 0.24223 0.23221 0.99806 0.0
C1974 C 0.25978 0.25013 0.9588 0.0
C1975 C 0.22569 0.21475 0.98402 0.0
H1976 H 0.21296 0.22801 0.92938 0.0
H1977 H 0.2482 0.19803 0.93437 0.0
H1978 H 0.21288 0.24095 0.96462 0.0
H1979 H 0.22513 0.25328 0.95612 0.0
H1980 H 0.20906 0.24678 0.94615 0.0
H1981 H 0.26437 0.19847 0.9546 0.0
H1982 H 0.26768 0.21645 0.96214 0.0
H1983 H 0.25594 0.204 0.97117 0.0
H1984 H 0.26685 0.25734 0.98672 0.0
H1985 H 0.23811 0.22752 0.00795 0.0
H1986 H 0.25101 0.2535 0.95099 0.0
H1987 H 0.26618 0.24168 0.95329 0.0
H1988 H 0.26703 0.25968 0.96127 0.0
H1989 H 0.21642 0.21762 0.97659 0.0
H1990 H 0.22146 0.21238 0.99498 0.0
H1991 H 0.23051 0.20467 0.97966 0.0
C1992 C 0.83028 0.21656 0.9068 0.0
C1993 C 0.84059 0.22336 0.89811 0.0
C1994 C 0.82555 0.2233 0.91956 0.0
C1995 C 0.8311 0.23728 0.92358 0.0
C1996 C 0.84139 0.24427 0.91473 0.0
C1997 C 0.84612 0.23716 0.90216 0.0
C1998 C 0.81477 0.21537 0.92883 0.0
C1999 C 0.84736 0.25927 0.91851 0.0
C2000 C 0.80894 0.25953 0.94977 0.0
C2001 C 0.81673 0.25766 0.96301 0.0
C2002 C 0.81362 0.25317 0.9368 0.0
C2003 C 0.82624 0.24449 0.93714 0.0
C2004 C 0.83412 0.24253 0.95051 0.0
C2005 C 0.82934 0.24925 0.96325 0.0
C2006 C 0.80507 0.25574 0.92273 0.0
C2007 C 0.84747 0.23315 0.9514 0.0
H2008 H 0.82611 0.20582 0.90376 0.0
H2009 H 0.854 0.24247 0.89537 0.0
H2010 H 0.81949 0.21388 0.94001 0.0
H2011 H 0.80481 0.22193 0.92983 0.0
H2012 H 0.8116 0.2045 0.92425 0.0
H2013 H 0.85498 0.26338 0.91027 0.0
H2014 H 0.83831 0.26707 0.91935 0.0
H2015 H 0.85318 0.25909 0.9293 0.0
H2016 H 0.79929 0.26617 0.94954 0.0
H2017 H 0.83527 0.24765 0.97351 0.0
H2018 H 0.80082 0.24522 0.9182 0.0
H2019 H 0.81227 0.26054 0.91451 0.0
H2020 H 0.79576 0.26312 0.92424 0.0
H2021 H 0.84462 0.2219 0.94772 0.0
H2022 H 0.85233 0.23269 0.96264 0.0
H2023 H 0.8558 0.23741 0.944 0.0
C2024 C 0.79486 0.85083 0.91076 0.0
C2025 C 0.80914 0.84644 0.9082 0.0
C2026 C 0.78784 0.84686 0.92358 0.0
C2027 C 0.79536 0.83858 0.93432 0.0
C2028 C 0.80979 0.83422 0.93191 0.0
C2029 C 0.81641 0.83802 0.91885 0.0
C2030 C 0.77236 0.85151 0.92561 0.0
C2031 C 0.81827 0.82553 0.94316 0.0
C2032 C 0.78249 0.8395 0.9734 0.0
C2033 C 0.77553 0.8259 0.97447 0.0
C2034 C 0.78897 0.8438 0.96039 0.0
C2035 C 0.78815 0.83439 0.94806 0.0
C2036 C 0.78077 0.82079 0.949 0.0
C2037 C 0.7747 0.81665 0.96223 0.0
C2038 C 0.79701 0.85823 0.95997 0.0
C2039 C 0.77934 0.81058 0.93604 0.0
H2040 H 0.78915 0.85753 0.90282 0.0
H2041 H 0.82729 0.83425 0.91696 0.0
H2042 H 0.76534 0.84181 0.92749 0.0
H2043 H 0.7718 0.85862 0.93539 0.0
H2044 H 0.76785 0.85749 0.91602 0.0
H2045 H 0.82959 0.82349 0.93989 0.0
H2046 H 0.81867 0.83141 0.95378 0.0
H2047 H 0.81275 0.81489 0.94488 0.0
H2048 H 0.78326 0.84659 0.9829 0.0
H2049 H 0.76916 0.8062 0.96301 0.0
H2050 H 0.79237 0.86508 0.95109 0.0
H2051 H 0.80859 0.85641 0.95756 0.0
H2052 H 0.79653 0.86435 0.97043 0.0
H2053 H 0.77427 0.81629 0.92657 0.0
H2054 H 0.77268 0.80072 0.93837 0.0
H2055 H 0.79026 0.80706 0.9328 0.0
C2056 C 0.12304 0.22073 0.20376 0.0
C2057 C 0.1246 0.20676 0.20976 0.0
C2058 C 0.11121 0.22955 0.20711 0.0
C2059 C 0.10052 0.22427 0.21657 0.0
C2060 C 0.10195 0.21016 0.2226 0.0
C2061 C 0.11397 0.20162 0.21918 0.0
C2062 C 0.11014 0.24454 0.20048 0.0
C2063 C 0.09077 0.20409 0.2327 0.0
C2064 C 0.07638 0.25091 0.23621 0.0
C2065 C 0.0634 0.25005 0.22773 0.0
C2066 C 0.0886 0.24279 0.23258 0.0
C2067 C 0.08785 0.23348 0.22018 0.0
C2068 C 0.07488 0.23278 0.2114 0.0
C2069 C 0.06284 0.24111 0.21525 0.0
C2070 C 0.10225 0.24401 0.24214 0.0
C2071 C 0.07357 0.22293 0.19817 0.0
H2072 H 0.131 0.22475 0.19626 0.0
H2073 H 0.11511 0.19096 0.22405 0.0
H2074 H 0.09995 0.24533 0.19374 0.0
H2075 H 0.1097 0.2529 0.20924 0.0
H2076 H 0.11948 0.24715 0.19353 0.0
H2077 H 0.09331 0.19284 0.23629 0.0
H2078 H 0.09014 0.21117 0.24251 0.0
H2079 H 0.07986 0.20398 0.22716 0.0
H2080 H 0.07694 0.25791 0.24577 0.0
H2081 H 0.05282 0.2402 0.20875 0.0
H2082 H 0.1116 0.24732 0.2355 0.0
H2083 H 0.10482 0.23324 0.24693 0.0
H2084 H 0.10121 0.25202 0.25116 0.0
H2085 H 0.08235 0.22549 0.19054 0.0
H2086 H 0.06291 0.22395 0.19223 0.0
H2087 H 0.0749 0.21142 0.20154 0.0
C2088 C 0.82076 0.12125 0.20586 0.0
C2089 C 0.81572 0.1313 0.19543 0.0
C2090 C 0.81232 0.109 0.20953 0.0
C2091 C 0.7984 0.10677 0.20273 0.0
C2092 C 0.79317 0.11692 0.19232 0.0
C2093 C 0.8019 0.12899 0.18874 0.0
C2094 C 0.81833 0.09841 0.22065 0.0
C2095 C 0.77837 0.11498 0.18488 0.0
C2096 C 0.78243 0.06824 0.20235 0.0
C2097 C 0.7732 0.06864 0.21423 0.0
C2098 C 0.79058 0.08059 0.19841 0.0
C2099 C 0.78939 0.09373 0.20645 0.0
C2100 C 0.77984 0.0943 0.21823 0.0
C2101 C 0.77192 0.08175 0.22201 0.0
C2102 C 0.80074 0.07947 0.18587 0.0
C2103 C 0.77811 0.10813 0.22698 0.0
H2104 H 0.83129 0.12301 0.21128 0.0
H2105 H 0.79796 0.13651 0.1805 0.0
H2106 H 0.81101 0.09768 0.23 0.0
H2107 H 0.81883 0.08736 0.21573 0.0
H2108 H 0.82939 0.10162 0.22484 0.0
H2109 H 0.7757 0.12407 0.17735 0.0
H2110 H 0.77792 0.10462 0.17858 0.0
H2111 H 0.76987 0.11427 0.19317 0.0
H2112 H 0.78365 0.05812 0.19642 0.0
H2113 H 0.76469 0.08218 0.23109 0.0
H2114 H 0.8121 0.08154 0.18987 0.0
H2115 H 0.79812 0.08789 0.1776 0.0
H2116 H 0.80013 0.0686 0.18048 0.0
H2117 H 0.78868 0.11135 0.23232 0.0
H2118 H 0.76991 0.1069 0.23552 0.0
H2119 H 0.7748 0.11715 0.21964 0.0
C2120 C 0.9201 0.82501 0.21589 0.0
C2121 C 0.91154 0.83475 0.22357 0.0
C2122 C 0.93249 0.81877 0.22253 0.0
C2123 C 0.93623 0.82211 0.23731 0.0
C2124 C 0.92746 0.83177 0.24518 0.0
C2125 C 0.91531 0.8381 0.23816 0.0
C2126 C 0.9417 0.80876 0.21368 0.0
C2127 C 0.93089 0.83538 0.26102 0.0
C2128 C 0.96112 0.79574 0.25762 0.0
C2129 C 0.97453 0.80318 0.25757 0.0
C2130 C 0.94852 0.80187 0.25129 0.0
C2131 C 0.94941 0.81564 0.24446 0.0
C2132 C 0.96296 0.82318 0.24434 0.0
C2133 C 0.97531 0.81692 0.25103 0.0
C2134 C 0.93424 0.79361 0.25193 0.0
C2135 C 0.96444 0.83775 0.23693 0.0
H2136 H 0.91726 0.82253 0.20457 0.0
H2137 H 0.90862 0.84554 0.24414 0.0
H2138 H 0.95299 0.81315 0.21341 0.0
H2139 H 0.94225 0.79788 0.21885 0.0
H2140 H 0.93739 0.80738 0.20228 0.0
H2141 H 0.92271 0.84269 0.26572 0.0
H2142 H 0.93133 0.82522 0.26751 0.0
H2143 H 0.94175 0.84075 0.26217 0.0
H2144 H 0.96049 0.78518 0.26281 0.0
H2145 H 0.98571 0.82261 0.25082 0.0
H2146 H 0.93001 0.79106 0.24073 0.0
H2147 H 0.92605 0.80045 0.25722 0.0
H2148 H 0.9353 0.78326 0.25807 0.0
H2149 H 0.96106 0.83668 0.22523 0.0
H2150 H 0.97576 0.84214 0.23769 0.0
H2151 H 0.95714 0.84576 0.24191 0.0
C2152 C 0.17385 0.90239 0.20705 0.0
C2153 C 0.1812 0.88924 0.2092 0.0
C2154 C 0.17745 0.91478 0.21556 0.0
C2155 C 0.18864 0.914 0.22649 0.0
C2156 C 0.19598 0.90072 0.22883 0.0
C2157 C 0.19218 0.88851 0.22015 0.0
C2158 C 0.16943 0.92877 0.21269 0.0
C2159 C 0.20795 0.89944 0.24041 0.0
C2160 C 0.20855 0.9488 0.23846 0.0
C2161 C 0.20213 0.95195 0.25177 0.0
C2162 C 0.20417 0.93657 0.2301 0.0
C2163 C 0.19308 0.92722 0.23513 0.0
C2164 C 0.18641 0.93042 0.24846 0.0
C2165 C 0.191 0.94277 0.25661 0.0
C2166 C 0.2115 0.9336 0.21589 0.0
C2167 C 0.17456 0.92069 0.2542 0.0
H2168 H 0.16547 0.90308 0.1985 0.0
H2169 H 0.19775 0.87832 0.22202 0.0
H2170 H 0.16456 0.93273 0.22286 0.0
H2171 H 0.17716 0.93733 0.20915 0.0
H2172 H 0.16065 0.92743 0.20415 0.0
H2173 H 0.21228 0.88822 0.24114 0.0
H2174 H 0.21703 0.90704 0.238 0.0
H2175 H 0.20386 0.90259 0.25121 0.0
H2176 H 0.21695 0.95598 0.23449 0.0
H2177 H 0.18608 0.94506 0.26693 0.0
H2178 H 0.20327 0.93313 0.20677 0.0
H2179 H 0.21685 0.92285 0.21635 0.0
H2180 H 0.2198 0.94206 0.21342 0.0
H2181 H 0.16544 0.9197 0.24601 0.0
H2182 H 0.17027 0.92485 0.26459 0.0
H2183 H 0.17881 0.90957 0.25605 0.0
C2184 C 0.10165 0.83279 0.79225 0.0
C2185 C 0.10729 0.82486 0.80416 0.0
C2186 C 0.08826 0.82889 0.78535 0.0
C2187 C 0.08027 0.81676 0.79046 0.0
C2188 C 0.08595 0.80866 0.8024 0.0
C2189 C 0.09936 0.81279 0.80909 0.0
C2190 C 0.08259 0.83784 0.77268 0.0
C2191 C 0.07781 0.79562 0.80817 0.0
C2192 C 0.03935 0.81308 0.7836 0.0
C2193 C 0.03838 0.80229 0.77267 0.0
C2194 C 0.05291 0.81829 0.78909 0.0
C2195 C 0.06586 0.81261 0.78353 0.0
C2196 C 0.06497 0.80227 0.77199 0.0
C2197 C 0.05126 0.79725 0.76669 0.0
C2198 C 0.05335 0.82939 0.80133 0.0
C2199 C 0.0785 0.79599 0.76569 0.0
H2200 H 0.1076 0.84224 0.78847 0.0
H2201 H 0.10371 0.80646 0.81813 0.0
H2202 H 0.08054 0.83075 0.76296 0.0
H2203 H 0.07205 0.84273 0.7754 0.0
H2204 H 0.09028 0.84672 0.76977 0.0
H2205 H 0.08376 0.79039 0.81745 0.0
H2206 H 0.06698 0.79897 0.81185 0.0
H2207 H 0.07595 0.7874 0.79935 0.0
H2208 H 0.0295 0.81709 0.78829 0.0
H2209 H 0.05067 0.78892 0.75825 0.0
H2210 H 0.06055 0.83872 0.79862 0.0
H2211 H 0.05796 0.82437 0.81142 0.0
H2212 H 0.04239 0.83359 0.80363 0.0
H2213 H 0.08607 0.80486 0.76255 0.0
H2214 H 0.076 0.789 0.75597 0.0
H2215 H 0.08426 0.78936 0.77407 0.0
C2216 C 0.25017 0.10928 0.83771 0.0
C2217 C 0.23903 0.11665 0.83013 0.0
C2218 C 0.25706 0.09729 0.83141 0.0
C2219 C 0.25287 0.09269 0.81708 0.0
C2220 C 0.24172 0.10021 0.80933 0.0
C2221 C 0.23487 0.112 0.81598 0.0
C2222 C 0.26871 0.08945 0.84014 0.0
C2223 C 0.23707 0.09584 0.79395 0.0
C2224 C 0.27856 0.07029 0.79442 0.0
C2225 C 0.27206 0.05638 0.7948 0.0
C2226 C 0.27263 0.08214 0.80188 0.0
C2227 C 0.26004 0.08 0.81015 0.0
C2228 C 0.25385 0.06583 0.81112 0.0
C2229 C 0.25984 0.05423 0.80334 0.0
C2230 C 0.27947 0.09708 0.80037 0.0
C2231 C 0.24059 0.063 0.82001 0.0
H2232 H 0.25334 0.11274 0.84871 0.0
H2233 H 0.22638 0.11775 0.81001 0.0
H2234 H 0.26555 0.07782 0.84136 0.0
H2235 H 0.27907 0.08974 0.83428 0.0
H2236 H 0.27066 0.09431 0.85117 0.0
H2237 H 0.22848 0.103 0.78929 0.0
H2238 H 0.24656 0.09626 0.78679 0.0
H2239 H 0.23288 0.08444 0.79378 0.0
H2240 H 0.28791 0.0721 0.78774 0.0
H2241 H 0.25476 0.04352 0.80371 0.0
H2242 H 0.28193 0.10196 0.81128 0.0
H2243 H 0.27169 0.10436 0.79459 0.0
H2244 H 0.28966 0.09681 0.79421 0.0
H2245 H 0.24237 0.06738 0.83124 0.0
H2246 H 0.23784 0.0512 0.82067 0.0
H2247 H 0.23111 0.06871 0.81504 0.0
C2248 C 0.93796 0.19935 0.79035 0.0
C2249 C 0.93177 0.20669 0.80205 0.0
C2250 C 0.95155 0.20372 0.78512 0.0
C2251 C 0.95917 0.21563 0.79182 0.0
C2252 C 0.95291 0.22312 0.80358 0.0
C2253 C 0.93932 0.21858 0.80852 0.0
C2254 C 0.9578 0.19555 0.7725 0.0
C2255 C 0.9607 0.23582 0.81111 0.0
C2256 C 1.00017 0.22046 0.79123 0.0
C2257 C 1.00162 0.23238 0.78183 0.0
C2258 C 0.98646 0.21431 0.79391 0.0
C2259 C 0.97387 0.22015 0.78697 0.0
C2260 C 0.97536 0.23143 0.77663 0.0
C2261 C 0.98921 0.23741 0.77419 0.0
C2262 C 0.98538 0.20224 0.80496 0.0
C2263 C 0.96224 0.23787 0.76889 0.0
H2264 H 0.93212 0.19025 0.78521 0.0
H2265 H 0.93473 0.22416 0.8177 0.0
H2266 H 0.96015 0.20319 0.76352 0.0
H2267 H 0.96826 0.19057 0.77599 0.0
H2268 H 0.95033 0.18681 0.7682 0.0
H2269 H 0.95424 0.24063 0.81992 0.0
H2270 H 0.97126 0.23221 0.81594 0.0
H2271 H 0.96309 0.24445 0.80308 0.0
H2272 H 0.00967 0.2164 0.79712 0.0
H2273 H 0.99019 0.24657 0.76685 0.0
H2274 H 0.97833 0.19322 0.8006 0.0
H2275 H 0.98032 0.20648 0.81492 0.0
H2276 H 0.9962 0.1978 0.80812 0.0
H2277 H 0.95485 0.22912 0.7645 0.0
H2278 H 0.96532 0.2451 0.75979 0.0
H2279 H 0.95605 0.24435 0.77677 0.0
C2280 C 0.82831 0.93128 0.78632 0.0
C2281 C 0.82126 0.92706 0.79901 0.0
C2282 C 0.8239 0.94363 0.7784 0.0
C2283 C 0.8122 0.95202 0.78331 0.0
C2284 C 0.80499 0.94776 0.79605 0.0
C2285 C 0.80959 0.93536 0.80372 0.0
C2286 C 0.83181 0.94775 0.76483 0.0
C2287 C 0.79251 0.95644 0.80171 0.0
C2288 C 0.80785 0.99196 0.77357 0.0
C2289 C 0.79603 0.99139 0.76348 0.0
C2290 C 0.81368 0.97918 0.77959 0.0
C2291 C 0.80761 0.96546 0.7754 0.0
C2292 C 0.79629 0.96476 0.76454 0.0
C2293 C 0.79065 0.97772 0.75871 0.0
C2294 C 0.8258 0.98042 0.79107 0.0
C2295 C 0.78957 0.95035 0.75968 0.0
H2296 H 0.83722 0.92484 0.7825 0.0
H2297 H 0.8042 0.93232 0.81361 0.0
H2298 H 0.82401 0.94823 0.75535 0.0
H2299 H 0.8368 0.95877 0.76621 0.0
H2300 H 0.84049 0.93993 0.76228 0.0
H2301 H 0.78789 0.95154 0.81163 0.0
H2302 H 0.79625 0.96771 0.80439 0.0
H2303 H 0.78372 0.95719 0.79318 0.0
H2304 H 0.81214 1.00244 0.7773 0.0
H2305 H 0.78154 0.97712 0.7509 0.0
H2306 H 0.83478 0.97301 0.78846 0.0
H2307 H 0.82167 0.97708 0.80179 0.0
H2308 H 0.83025 0.99171 0.79211 0.0
H2309 H 0.79816 0.94255 0.75686 0.0
H2310 H 0.78197 0.95153 0.7501 0.0
H2311 H 0.78347 0.94555 0.76876 0.0
C2312 C 0.20233 0.08726 0.22693 0.0
C2313 C 0.2081 0.09405 0.2147 0.0
C2314 C 0.20744 0.0737 0.23176 0.0
C2315 C 0.21859 0.0667 0.22418 0.0
C2316 C 0.22474 0.07366 0.21206 0.0
C2317 C 0.21944 0.08724 0.20748 0.0
C2318 C 0.2006 0.06665 0.24476 0.0
C2319 C 0.23668 0.06662 0.20372 0.0
C2320 C 0.23753 0.03559 0.24413 0.0
C2321 C 0.22944 0.02347 0.23886 0.0
C2322 C 0.23448 0.04972 0.23912 0.0
C2323 C 0.22319 0.05174 0.22846 0.0
C2324 C 0.21562 0.03945 0.22247 0.0
C2325 C 0.2188 0.02549 0.22777 0.0
C2326 C 0.24281 0.06253 0.24579 0.0
C2327 C 0.20362 0.04108 0.21096 0.0
H2328 H 0.19351 0.09237 0.23251 0.0
H2329 H 0.22418 0.09252 0.1982 0.0
H2330 H 0.19497 0.05637 0.2413 0.0
H2331 H 0.20913 0.0638 0.25305 0.0
H2332 H 0.19261 0.07384 0.24994 0.0
H2333 H 0.24084 0.07379 0.19503 0.0
H2334 H 0.24587 0.06379 0.21127 0.0
H2335 H 0.23255 0.05632 0.1986 0.0
H2336 H 0.24572 0.03417 0.25276 0.0
H2337 H 0.21254 0.01619 0.22359 0.0
H2338 H 0.23536 0.06929 0.25217 0.0
H2339 H 0.2472 0.06954 0.23711 0.0
H2340 H 0.25195 0.05907 0.25314 0.0
H2341 H 0.19439 0.04694 0.21567 0.0
H2342 H 0.19955 0.0304 0.20664 0.0
H2343 H 0.20752 0.04768 0.20174 0.0
C2344 C 0.20474 0.927 0.8167 0.0
C2345 C 0.20817 0.91339 0.81074 0.0
C2346 C 0.2097 0.94007 0.81047 0.0
C2347 C 0.21832 0.93956 0.79796 0.0
C2348 C 0.22201 0.92587 0.79202 0.0
C2349 C 0.21691 0.91299 0.79847 0.0
C2350 C 0.20553 0.95443 0.81715 0.0
C2351 C 0.23124 0.92481 0.77875 0.0
C2352 C 0.22003 0.97229 0.77259 0.0
C2353 C 0.23357 0.97863 0.77659 0.0
C2354 C 0.21483 0.95976 0.77961 0.0
C2355 C 0.22337 0.95333 0.79093 0.0
C2356 C 0.23692 0.95981 0.79521 0.0
C2357 C 0.24185 0.97234 0.78801 0.0
C2358 C 0.2003 0.95324 0.77473 0.0
C2359 C 0.24639 0.9533 0.80718 0.0
H2360 H 0.19786 0.92747 0.82605 0.0
H2361 H 0.21982 0.90255 0.7939 0.0
H2362 H 0.21544 0.96098 0.82006 0.0
H2363 H 0.19903 0.96079 0.80909 0.0
H2364 H 0.1991 0.95298 0.82709 0.0
H2365 H 0.23332 0.91334 0.77559 0.0
H2366 H 0.22576 0.93032 0.76938 0.0
H2367 H 0.24183 0.93047 0.78088 0.0
H2368 H 0.21349 0.97713 0.76391 0.0
H2369 H 0.25242 0.97695 0.79106 0.0
H2370 H 0.19308 0.95237 0.78415 0.0
H2371 H 0.2018 0.94205 0.77045 0.0
H2372 H 0.19477 0.9598 0.7661 0.0
H2373 H 0.2402 0.9522 0.8173 0.0
H2374 H 0.25635 0.95998 0.80965 0.0
H2375 H 0.24972 0.9422 0.80393 0.0
C2376 C 0.12283 0.20395 0.83941 0.0
C2377 C 0.13655 0.20865 0.83493 0.0
C2378 C 0.11013 0.21133 0.83509 0.0
C2379 C 0.11115 0.22377 0.82611 0.0
C2380 C 0.12494 0.22846 0.82137 0.0
C2381 C 0.13746 0.22083 0.8258 0.0
C2382 C 0.09563 0.20588 0.84026 0.0
C2383 C 0.1265 0.24171 0.81184 0.0
C2384 C 0.07714 0.23595 0.80504 0.0
C2385 C 0.0722 0.24723 0.81394 0.0
C2386 C 0.0898 0.22827 0.80884 0.0
C2387 C 0.09779 0.23197 0.82182 0.0
C2388 C 0.09292 0.24339 0.83082 0.0
C2389 C 0.08016 0.25084 0.8268 0.0
C2390 C 0.09455 0.21609 0.799 0.0
C2391 C 0.10118 0.24775 0.84471 0.0
H2392 H 0.12202 0.19444 0.84631 0.0
H2393 H 0.14803 0.22464 0.82244 0.0
H2394 H 0.09053 0.21442 0.84692 0.0
H2395 H 0.08815 0.20355 0.83076 0.0
H2396 H 0.09665 0.19584 0.8469 0.0
H2397 H 0.13795 0.24377 0.80885 0.0
H2398 H 0.11972 0.24034 0.80168 0.0
H2399 H 0.12253 0.25147 0.81761 0.0
H2400 H 0.07094 0.23292 0.79521 0.0
H2401 H 0.07652 0.25964 0.83363 0.0
H2402 H 0.0948 0.2057 0.80511 0.0
H2403 H 0.10574 0.2183 0.79537 0.0
H2404 H 0.08722 0.21466 0.78921 0.0
H2405 H 0.10176 0.23835 0.85225 0.0
H2406 H 0.09607 0.25698 0.8504 0.0
H2407 H 0.11252 0.25091 0.84223 0.0
C2408 C 0.80914 0.11813 0.81944 0.0
C2409 C 0.82263 0.12056 0.81306 0.0
C2410 C 0.80042 0.10592 0.81561 0.0
C2411 C 0.80537 0.09575 0.8053 0.0
C2412 C 0.81905 0.098 0.79897 0.0
C2413 C 0.82747 0.11039 0.80286 0.0
C2414 C 0.78587 0.10396 0.82254 0.0
C2415 C 0.82474 0.08735 0.78799 0.0
C2416 C 0.78887 0.05748 0.80414 0.0
C2417 C 0.77941 0.05818 0.79186 0.0
C2418 C 0.79732 0.06965 0.80871 0.0
C2419 C 0.79613 0.08289 0.80092 0.0
C2420 C 0.7863 0.08376 0.78875 0.0
C2421 C 0.77813 0.07138 0.78433 0.0
C2422 C 0.80778 0.06824 0.82165 0.0
C2423 C 0.78454 0.09771 0.78028 0.0
H2424 H 0.8054 0.12573 0.82753 0.0
H2425 H 0.83776 0.11224 0.79771 0.0
H2426 H 0.77707 0.10357 0.81397 0.0
H2427 H 0.7855 0.09345 0.82844 0.0
H2428 H 0.78357 0.11289 0.83034 0.0
H2429 H 0.83582 0.09039 0.78447 0.0
H2430 H 0.82508 0.07626 0.79271 0.0
H2431 H 0.81731 0.08684 0.77821 0.0
H2432 H 0.79004 0.04726 0.80987 0.0
H2433 H 0.77071 0.07199 0.77493 0.0
H2434 H 0.80552 0.07662 0.83001 0.0
H2435 H 0.81908 0.07016 0.81816 0.0
H2436 H 0.80713 0.05732 0.82677 0.0
H2437 H 0.78159 0.1067 0.78771 0.0
H2438 H 0.77607 0.09672 0.77139 0.0
H2439 H 0.79501 0.10083 0.7754 0.0
C2440 C 0.91008 0.81013 0.82685 0.0
C2441 C 0.90728 0.82377 0.82063 0.0
C2442 C 0.92199 0.80186 0.82261 0.0
C2443 C 0.93149 0.80749 0.81211 0.0
C2444 C 0.92878 0.82134 0.80591 0.0
C2445 C 0.91663 0.82924 0.81014 0.0
C2446 C 0.92434 0.78704 0.82927 0.0
C2447 C 0.93877 0.82785 0.79487 0.0
C2448 C 0.96989 0.79275 0.81057 0.0
C2449 C 0.96887 0.78385 0.79809 0.0
C2450 C 0.95779 0.80042 0.81533 0.0
C2451 C 0.94427 0.79894 0.80757 0.0
C2452 C 0.94308 0.78963 0.7952 0.0
C2453 C 0.95543 0.78231 0.79053 0.0
C2454 C 0.95958 0.81043 0.82842 0.0
C2455 C 0.92882 0.78753 0.78677 0.0
H2456 H 0.90278 0.80583 0.83487 0.0
H2457 H 0.91456 0.83984 0.80542 0.0
H2458 H 0.92434 0.77861 0.82055 0.0
H2459 H 0.93512 0.78676 0.83505 0.0
H2460 H 0.91584 0.78413 0.83712 0.0
H2461 H 0.93531 0.83886 0.79132 0.0
H2462 H 0.95002 0.82867 0.79958 0.0
H2463 H 0.93906 0.82066 0.78511 0.0
H2464 H 0.98031 0.79413 0.81632 0.0
H2465 H 0.95459 0.77533 0.78096 0.0
H2466 H 0.9517 0.80736 0.83681 0.0
H2467 H 0.95722 0.82179 0.82513 0.0
H2468 H 0.97074 0.81014 0.83344 0.0
H2469 H 0.92021 0.78399 0.79423 0.0
H2470 H 0.92954 0.77934 0.77786 0.0
H2471 H 0.92536 0.79803 0.78193 0.0
C2472 C 0.80901 0.94158 0.21037 0.0
C2473 C 0.82067 0.93434 0.21724 0.0
C2474 C 0.80361 0.95455 0.21619 0.0
C2475 C 0.81002 0.96053 0.2292 0.0
C2476 C 0.82175 0.95326 0.23624 0.0
C2477 C 0.82692 0.94027 0.2302 0.0
C2478 C 0.79102 0.9619 0.20836 0.0
C2479 C 0.82894 0.95928 0.25009 0.0
C2480 C 0.80372 1.00106 0.23476 0.0
C2481 C 0.79176 1.00099 0.24388 0.0
C2482 C 0.81017 0.988 0.23041 0.0
C2483 C 0.80452 0.9745 0.23524 0.0
C2484 C 0.79295 0.97438 0.24507 0.0
C2485 C 0.78674 0.98761 0.24929 0.0
C2486 C 0.82258 0.98863 0.22004 0.0
C2487 C 0.78662 0.96025 0.25053 0.0
H2488 H 0.80397 0.93699 0.20049 0.0
H2489 H 0.83605 0.93486 0.2355 0.0
H2490 H 0.78183 0.96299 0.2158 0.0
H2491 H 0.79432 0.97305 0.20508 0.0
H2492 H 0.78713 0.95578 0.19846 0.0
H2493 H 0.83774 0.95217 0.2544 0.0
H2494 H 0.83362 0.97025 0.24802 0.0
H2495 H 0.82075 0.96056 0.2586 0.0
H2496 H 0.80774 0.0113 0.23054 0.0
H2497 H 0.7775 0.9874 0.25633 0.0
H2498 H 0.81895 0.98395 0.20932 0.0
H2499 H 0.83178 0.982 0.22423 0.0
H2500 H 0.82656 0.99996 0.21832 0.0
H2501 H 0.78122 0.95419 0.2413 0.0
H2502 H 0.77852 0.96203 0.25906 0.0
H2503 H 0.79537 0.95324 0.25507 0.0
C2504 C 0.08889 0.78891 0.1877 0.0
C2505 C 0.10275 0.78364 0.19146 0.0
C2506 C 0.07667 0.78477 0.1956 0.0
C2507 C 0.07837 0.77518 0.20757 0.0
C2508 C 0.0921 0.76885 0.21057 0.0
C2509 C 0.1041 0.77314 0.20247 0.0
C2510 C 0.06223 0.79168 0.19194 0.0
C2511 C 0.09442 0.75852 0.22315 0.0
C2512 C 0.05638 0.78295 0.24086 0.0
C2513 C 0.04586 0.77172 0.24039 0.0
C2514 C 0.0668 0.78421 0.23015 0.0
C2515 C 0.06678 0.774 0.21853 0.0
C2516 C 0.05607 0.76274 0.21778 0.0
C2517 C 0.0457 0.76171 0.22875 0.0
C2518 C 0.07799 0.79642 0.23144 0.0
C2519 C 0.05568 0.75171 0.20551 0.0
H2520 H 0.08771 0.79704 0.17924 0.0
H2521 H 0.11473 0.76878 0.20523 0.0
H2522 H 0.05322 0.78356 0.19249 0.0
H2523 H 0.06019 0.80039 0.20004 0.0
H2524 H 0.062 0.79662 0.1809 0.0
H2525 H 0.10496 0.7528 0.22261 0.0
H2526 H 0.09435 0.76473 0.23357 0.0
H2527 H 0.0855 0.75028 0.22338 0.0
H2528 H 0.0566 0.79081 0.24974 0.0
H2529 H 0.03761 0.75301 0.22829 0.0
H2530 H 0.07752 0.80321 0.22147 0.0
H2531 H 0.08907 0.79184 0.23242 0.0
H2532 H 0.07635 0.80359 0.24104 0.0
H2533 H 0.05529 0.75732 0.19482 0.0
H2534 H 0.04618 0.74414 0.206 0.0
H2535 H 0.06577 0.74522 0.20598 0.0
C2536 C 0.93584 0.22299 0.20779 0.0
C2537 C 0.92706 0.21116 0.21187 0.0
C2538 C 0.94875 0.2267 0.21571 0.0
C2539 C 0.9531 0.21837 0.22803 0.0
C2540 C 0.94428 0.20646 0.23226 0.0
C2541 C 0.93139 0.20301 0.22417 0.0
C2542 C 0.95781 0.23948 0.21078 0.0
C2543 C 0.94848 0.19732 0.24532 0.0
C2544 C 0.99352 0.22085 0.23848 0.0
C2545 C 0.99387 0.23155 0.24951 0.0
C2546 C 0.98029 0.21602 0.23183 0.0
C2547 C 0.96703 0.22204 0.23625 0.0
C2548 C 0.96724 0.23228 0.2479 0.0
C2549 C 0.98063 0.23688 0.2544 0.0
C2550 C 0.98059 0.20498 0.21958 0.0
C2551 C 0.95338 0.23896 0.253 0.0
H2552 H 0.93275 0.22925 0.19822 0.0
H2553 H 0.92461 0.19399 0.22758 0.0
H2554 H 0.95934 0.24752 0.2198 0.0
H2555 H 0.96877 0.23573 0.20787 0.0
H2556 H 0.95279 0.24505 0.20118 0.0
H2557 H 0.94041 0.18849 0.24728 0.0
H2558 H 0.95924 0.19234 0.24372 0.0
H2559 H 0.94954 0.20428 0.25524 0.0
H2560 H 1.00364 0.21661 0.23462 0.0
H2561 H 0.98073 0.24517 0.26287 0.0
H2562 H 0.97706 0.21017 0.20917 0.0
H2563 H 0.97287 0.19587 0.22156 0.0
H2564 H 0.9916 0.20044 0.21825 0.0
H2565 H 0.94864 0.2459 0.24424 0.0
H2566 H 0.95523 0.24576 0.26297 0.0
H2567 H 0.94523 0.23033 0.25529 0.0
C2568 C 0.21713 0.70439 0.60601 0.0
C2569 C 0.20755 0.712 0.61484 0.0
C2570 C 0.2241 0.71126 0.59444 0.0
C2571 C 0.22181 0.72624 0.59177 0.0
C2572 C 0.212 0.73396 0.60042 0.0
C2573 C 0.20487 0.72673 0.61169 0.0
C2574 C 0.2343 0.70253 0.58535 0.0
C2575 C 0.20943 0.75001 0.5981 0.0
C2576 C 0.25369 0.74501 0.57407 0.0
C2577 C 0.24884 0.74588 0.55946 0.0
C2578 C 0.24469 0.73936 0.58479 0.0
C2579 C 0.23061 0.734 0.58074 0.0
C2580 C 0.22548 0.73525 0.56603 0.0
C2581 C 0.23462 0.74137 0.55557 0.0
C2582 C 0.25048 0.73866 0.60038 0.0
C2583 C 0.21068 0.7294 0.5612 0.0
H2584 H 0.21955 0.69312 0.60836 0.0
H2585 H 0.19727 0.73271 0.61812 0.0
H2586 H 0.23169 0.70407 0.57356 0.0
H2587 H 0.24565 0.70644 0.58746 0.0
H2588 H 0.23375 0.6907 0.5878 0.0
H2589 H 0.2009 0.75428 0.60522 0.0
H2590 H 0.21968 0.75622 0.60044 0.0
H2591 H 0.20615 0.75207 0.58656 0.0
H2592 H 0.26467 0.74858 0.5771 0.0
H2593 H 0.23093 0.74189 0.54423 0.0
H2594 H 0.25205 0.72713 0.60354 0.0
H2595 H 0.24255 0.74338 0.60788 0.0
H2596 H 0.26104 0.74457 0.60197 0.0
H2597 H 0.21051 0.71735 0.56215 0.0
H2598 H 0.2078 0.73229 0.54972 0.0
H2599 H 0.20219 0.73362 0.56836 0.0
C2600 C 0.82391 0.75214 0.58361 0.0
C2601 C 0.81732 0.73959 0.58931 0.0
C2602 C 0.81873 0.75835 0.57046 0.0
C2603 C 0.80671 0.75182 0.56275 0.0
C2604 C 0.79989 0.7393 0.56855 0.0
C2605 C 0.80523 0.73339 0.58174 0.0
C2606 C 0.82627 0.77173 0.5647 0.0
C2607 C 0.78703 0.73198 0.5607 0.0
C2608 C 0.78378 0.7715 0.53387 0.0
C2609 C 0.78871 0.76527 0.52093 0.0
C2610 C 0.79005 0.76782 0.54755 0.0
C2611 C 0.8015 0.75766 0.54834 0.0
C2612 C 0.80712 0.75208 0.53527 0.0
C2613 C 0.8007 0.75598 0.52176 0.0
C2614 C 0.78383 0.77416 0.56119 0.0
C2615 C 0.81935 0.74126 0.53559 0.0
H2616 H 0.83335 0.75695 0.58926 0.0
H2617 H 0.79986 0.72388 0.58615 0.0
H2618 H 0.83126 0.76911 0.55416 0.0
H2619 H 0.81826 0.78045 0.56256 0.0
H2620 H 0.83491 0.77599 0.5724 0.0
H2621 H 0.78279 0.72248 0.56677 0.0
H2622 H 0.77812 0.73988 0.55903 0.0
H2623 H 0.79021 0.72821 0.54975 0.0
H2624 H 0.77455 0.77871 0.5334 0.0
H2625 H 0.80466 0.75114 0.51186 0.0
H2626 H 0.79267 0.77834 0.56867 0.0
H2627 H 0.77789 0.76551 0.56706 0.0
H2628 H 0.77618 0.78315 0.55872 0.0
H2629 H 0.82856 0.74533 0.54265 0.0
H2630 H 0.82339 0.739 0.52453 0.0
H2631 H 0.81548 0.73085 0.5403 0.0
C2632 C 0.82986 0.33288 0.61663 0.0
C2633 C 0.83746 0.32604 0.6282 0.0
C2634 C 0.8259 0.32526 0.6037 0.0
C2635 C 0.82929 0.31032 0.60234 0.0
C2636 C 0.83682 0.3033 0.61397 0.0
C2637 C 0.84097 0.31126 0.62663 0.0
C2638 C 0.81807 0.33322 0.59148 0.0
C2639 C 0.84047 0.28733 0.61308 0.0
C2640 C 0.80694 0.2878 0.5744 0.0
C2641 C 0.81655 0.28663 0.56291 0.0
C2642 C 0.81102 0.29526 0.58737 0.0
C2643 C 0.82494 0.30202 0.58877 0.0
C2644 C 0.83468 0.30089 0.57717 0.0
C2645 C 0.83042 0.29307 0.56445 0.0
C2646 C 0.80043 0.29587 0.59958 0.0
C2647 C 0.8495 0.30819 0.57807 0.0
H2648 H 0.82683 0.34418 0.6177 0.0
H2649 H 0.8471 0.30585 0.63525 0.0
H2650 H 0.82417 0.33223 0.58129 0.0
H2651 H 0.80716 0.32823 0.58932 0.0
H2652 H 0.81672 0.34497 0.594 0.0
H2653 H 0.84592 0.28335 0.62326 0.0
H2654 H 0.8304 0.28076 0.61092 0.0
H2655 H 0.84772 0.2854 0.60386 0.0
H2656 H 0.79625 0.28271 0.57327 0.0
H2657 H 0.83779 0.29233 0.55551 0.0
H2658 H 0.79765 0.30735 0.60191 0.0
H2659 H 0.80551 0.29137 0.60971 0.0
H2660 H 0.79021 0.28966 0.59695 0.0
H2661 H 0.8483 0.32009 0.57975 0.0
H2662 H 0.85574 0.30638 0.56806 0.0
H2663 H 0.8559 0.304 0.58757 0.0
C2664 C 0.19859 0.31518 0.60463 0.0
C2665 C 0.20437 0.31161 0.61848 0.0
C2666 C 0.2023 0.30728 0.59217 0.0
C2667 C 0.212 0.29549 0.59361 0.0
C2668 C 0.21775 0.29172 0.60758 0.0
C2669 C 0.21388 0.29984 0.61984 0.0
C2670 C 0.19604 0.31169 0.57744 0.0
C2671 C 0.22808 0.2792 0.60955 0.0
C2672 C 0.21329 0.26761 0.56279 0.0
C2673 C 0.22573 0.27221 0.55556 0.0
C2674 C 0.20866 0.27507 0.5752 0.0
C2675 C 0.21662 0.28747 0.58043 0.0
C2676 C 0.22909 0.29224 0.57309 0.0
C2677 C 0.23349 0.28456 0.56077 0.0
C2678 C 0.19534 0.26964 0.58278 0.0
C2679 C 0.23781 0.30547 0.57825 0.0
H2680 H 0.19135 0.32435 0.60349 0.0
H2681 H 0.2182 0.29689 0.63054 0.0
H2682 H 0.20495 0.31509 0.57028 0.0
H2683 H 0.19033 0.30227 0.57206 0.0
H2684 H 0.18828 0.3208 0.57825 0.0
H2685 H 0.2312 0.27738 0.6212 0.0
H2686 H 0.22303 0.26903 0.605 0.0
H2687 H 0.2381 0.28135 0.60346 0.0
H2688 H 0.20732 0.25803 0.55886 0.0
H2689 H 0.24292 0.28837 0.55508 0.0
H2690 H 0.18712 0.27836 0.58311 0.0
H2691 H 0.19826 0.26681 0.59424 0.0
H2692 H 0.19031 0.2599 0.57729 0.0
H2693 H 0.23076 0.31517 0.57829 0.0
H2694 H 0.2472 0.30779 0.57127 0.0
H2695 H 0.24196 0.30384 0.58961 0.0
C2696 C 0.21447 0.30463 0.42935 0.0
C2697 C 0.21941 0.31697 0.42192 0.0
C2698 C 0.22148 0.30001 0.44233 0.0
C2699 C 0.23377 0.30788 0.44805 0.0
C2700 C 0.23888 0.32028 0.44057 0.0
C2701 C 0.23164 0.32469 0.42762 0.0
C2702 C 0.21568 0.2867 0.44995 0.0
C2703 C 0.25193 0.32896 0.44631 0.0
C2704 C 0.24154 0.30235 0.48859 0.0
C2705 C 0.25192 0.29128 0.48853 0.0
C2706 C 0.23603 0.30834 0.47551 0.0
C2707 C 0.24103 0.30318 0.46201 0.0
C2708 C 0.25216 0.29268 0.4619 0.0
C2709 C 0.25748 0.28686 0.47515 0.0
C2710 C 0.22424 0.31959 0.47612 0.0
C2711 C 0.25788 0.28697 0.44775 0.0
H2712 H 0.20518 0.29847 0.42494 0.0
H2713 H 0.23543 0.33434 0.42208 0.0
H2714 H 0.22429 0.27839 0.45101 0.0
H2715 H 0.21251 0.28966 0.46114 0.0
H2716 H 0.20609 0.28174 0.44404 0.0
H2717 H 0.2548 0.33808 0.43899 0.0
H2718 H 0.24972 0.3335 0.45724 0.0
H2719 H 0.26147 0.32177 0.44764 0.0
H2720 H 0.23721 0.3059 0.49885 0.0
H2721 H 0.26551 0.27834 0.47495 0.0
H2722 H 0.21385 0.31483 0.47167 0.0
H2723 H 0.22696 0.3291 0.46927 0.0
H2724 H 0.22254 0.32347 0.48743 0.0
H2725 H 0.24925 0.28047 0.44188 0.0
H2726 H 0.26753 0.27998 0.44953 0.0
H2727 H 0.26088 0.29613 0.44055 0.0
C2728 C 0.24162 0.7002 0.41495 0.0
C2729 C 0.2278 0.6936 0.41589 0.0
C2730 C 0.24918 0.70575 0.42743 0.0
C2731 C 0.24271 0.70494 0.44121 0.0
C2732 C 0.22885 0.6982 0.44228 0.0
C2733 C 0.22165 0.69251 0.42968 0.0
C2734 C 0.26401 0.7127 0.42582 0.0
C2735 C 0.22148 0.69722 0.45672 0.0
C2736 C 0.2657 0.7094 0.47643 0.0
C2737 C 0.26335 0.72404 0.48015 0.0
C2738 C 0.2593 0.70312 0.46367 0.0
C2739 C 0.25016 0.71159 0.45443 0.0
C2740 C 0.24785 0.72638 0.45802 0.0
C2741 C 0.25454 0.73243 0.4707 0.0
C2742 C 0.26222 0.68737 0.46013 0.0
C2743 C 0.23813 0.7358 0.44854 0.0
H2744 H 0.24646 0.70132 0.4044 0.0
H2745 H 0.21115 0.68718 0.43068 0.0
H2746 H 0.26362 0.72444 0.4287 0.0
H2747 H 0.27202 0.70761 0.43346 0.0
H2748 H 0.26794 0.71165 0.41454 0.0
H2749 H 0.21075 0.69153 0.45576 0.0
H2750 H 0.22848 0.69134 0.46475 0.0
H2751 H 0.21986 0.70833 0.46117 0.0
H2752 H 0.27235 0.70272 0.48359 0.0
H2753 H 0.25284 0.74381 0.47314 0.0
H2754 H 0.2665 0.68642 0.449 0.0
H2755 H 0.25193 0.68094 0.46023 0.0
H2756 H 0.27015 0.68246 0.46801 0.0
H2757 H 0.24216 0.73616 0.43728 0.0
H2758 H 0.23752 0.74714 0.45277 0.0
H2759 H 0.22697 0.73104 0.44786 0.0
C2760 C 0.81619 0.71663 0.40302 0.0
C2761 C 0.80999 0.70606 0.39349 0.0
C2762 C 0.80878 0.72146 0.41527 0.0
C2763 C 0.79479 0.71564 0.41802 0.0
C2764 C 0.78847 0.705 0.40845 0.0
C2765 C 0.79616 0.7003 0.39637 0.0
C2766 C 0.81589 0.73279 0.42526 0.0
C2767 C 0.77358 0.69855 0.41099 0.0
C2768 C 0.7805 0.7181 0.4564 0.0
C2769 C 0.77135 0.73017 0.45532 0.0
C2770 C 0.78826 0.7133 0.44438 0.0
C2771 C 0.78674 0.72068 0.43091 0.0
C2772 C 0.77741 0.73279 0.4297 0.0
C2773 C 0.76987 0.7374 0.44193 0.0
C2774 C 0.79818 0.70042 0.44613 0.0
C2775 C 0.77537 0.74084 0.41549 0.0
H2776 H 0.82678 0.72126 0.40082 0.0
H2777 H 0.79139 0.69193 0.38925 0.0
H2778 H 0.80904 0.74263 0.42561 0.0
H2779 H 0.81686 0.72853 0.43654 0.0
H2780 H 0.82689 0.73607 0.42172 0.0
H2781 H 0.7701 0.69053 0.40239 0.0
H2782 H 0.77357 0.69304 0.42172 0.0
H2783 H 0.76543 0.70733 0.41129 0.0
H2784 H 0.78187 0.7126 0.46676 0.0
H2785 H 0.76269 0.74662 0.44098 0.0
H2786 H 0.80948 0.7037 0.44362 0.0
H2787 H 0.79479 0.69167 0.43829 0.0
H2788 H 0.79818 0.6959 0.45734 0.0
H2789 H 0.78599 0.74519 0.41193 0.0
H2790 H 0.76772 0.75004 0.41636 0.0
H2791 H 0.77115 0.73325 0.40683 0.0
C2792 C 0.81082 0.32149 0.41691 0.0
C2793 C 0.82285 0.33109 0.41772 0.0
C2794 C 0.80512 0.31535 0.42956 0.0
C2795 C 0.81153 0.31891 0.44341 0.0
C2796 C 0.82323 0.32912 0.44435 0.0
C2797 C 0.82877 0.33503 0.43152 0.0
C2798 C 0.79273 0.30443 0.42801 0.0
C2799 C 0.83034 0.3333 0.45888 0.0
C2800 C 0.79231 0.30687 0.47787 0.0
C2801 C 0.7996 0.29392 0.48124 0.0
C2802 C 0.79609 0.31525 0.46565 0.0
C2803 C 0.80735 0.31052 0.4566 0.0
C2804 C 0.81472 0.2975 0.46003 0.0
C2805 C 0.8108 0.28944 0.47225 0.0
C2806 C 0.78803 0.32911 0.46237 0.0
C2807 C 0.82675 0.29196 0.45071 0.0
H2808 H 0.80623 0.31828 0.40631 0.0
H2809 H 0.83789 0.34263 0.43227 0.0
H2810 H 0.79674 0.29341 0.4308 0.0
H2811 H 0.78407 0.30705 0.43571 0.0
H2812 H 0.78788 0.30406 0.41675 0.0
H2813 H 0.8381 0.3426 0.45795 0.0
H2814 H 0.82199 0.33623 0.46681 0.0
H2815 H 0.83635 0.32386 0.46341 0.0
H2816 H 0.78365 0.31043 0.48473 0.0
H2817 H 0.81654 0.27947 0.47468 0.0
H2818 H 0.78249 0.32828 0.45145 0.0
H2819 H 0.79581 0.33843 0.46204 0.0
H2820 H 0.77977 0.33147 0.4706 0.0
H2821 H 0.82255 0.29011 0.43935 0.0
H2822 H 0.83141 0.28162 0.45487 0.0
H2823 H 0.83564 0.30023 0.4503 0.0
C2824 C 0.09695 0.69899 0.70514 0.0
C2825 C 0.11085 0.70452 0.70903 0.0
C2826 C 0.08454 0.70391 0.71208 0.0
C2827 C 0.08604 0.71463 0.72323 0.0
C2828 C 0.10003 0.72027 0.72722 0.0
C2829 C 0.11226 0.71517 0.72006 0.0
C2830 C 0.06981 0.69771 0.70744 0.0
C2831 C 0.10209 0.73168 0.73907 0.0
C2832 C 0.05323 0.73753 0.73173 0.0
C2833 C 0.04811 0.7308 0.74432 0.0
C2834 C 0.06552 0.73237 0.72477 0.0
C2835 C 0.07293 0.72016 0.73051 0.0
C2836 C 0.06781 0.71325 0.74317 0.0
C2837 C 0.05544 0.71864 0.7499 0.0
C2838 C 0.07056 0.73998 0.71124 0.0
C2839 C 0.07545 0.70024 0.74965 0.0
H2840 H 0.09575 0.69089 0.69651 0.0
H2841 H 0.12297 0.71935 0.72328 0.0
H2842 H 0.0645 0.69273 0.71693 0.0
H2843 H 0.06268 0.70656 0.70338 0.0
H2844 H 0.07051 0.68931 0.69871 0.0
H2845 H 0.1137 0.73484 0.74098 0.0
H2846 H 0.09588 0.74157 0.7361 0.0
H2847 H 0.09776 0.72754 0.74943 0.0
H2848 H 0.04749 0.74676 0.72718 0.0
H2849 H 0.05164 0.71347 0.75968 0.0
H2850 H 0.07053 0.73218 0.70195 0.0
H2851 H 0.0819 0.74404 0.71302 0.0
H2852 H 0.06358 0.74933 0.70816 0.0
H2853 H 0.07572 0.69132 0.74145 0.0
H2854 H 0.07008 0.69608 0.7595 0.0
H2855 H 0.0869 0.7032 0.75268 0.0
C2856 C 0.79859 0.63755 0.68042 0.0
C2857 C 0.81311 0.6413 0.68422 0.0
C2858 C 0.79191 0.62496 0.68599 0.0
C2859 C 0.79998 0.61564 0.69535 0.0
C2860 C 0.81463 0.61929 0.69921 0.0
C2861 C 0.82093 0.63211 0.69376 0.0
C2862 C 0.77621 0.6216 0.68177 0.0
C2863 C 0.82369 0.60956 0.70901 0.0
C2864 C 0.78043 0.5887 0.71975 0.0
C2865 C 0.78086 0.57578 0.71154 0.0
C2866 C 0.78638 0.6018 0.71452 0.0
C2867 C 0.79322 0.60192 0.70089 0.0
C2868 C 0.79373 0.58887 0.6926 0.0
C2869 C 0.78743 0.57601 0.69796 0.0
C2870 C 0.78531 0.61551 0.72357 0.0
C2871 C 0.80118 0.58842 0.67818 0.0
H2872 H 0.79244 0.64432 0.6729 0.0
H2873 H 0.83203 0.63495 0.69708 0.0
H2874 H 0.77543 0.61121 0.67552 0.0
H2875 H 0.76979 0.62016 0.6917 0.0
H2876 H 0.7712 0.63032 0.67501 0.0
H2877 H 0.83499 0.61379 0.71079 0.0
H2878 H 0.81862 0.60848 0.71976 0.0
H2879 H 0.82413 0.59847 0.70416 0.0
H2880 H 0.77526 0.58857 0.73019 0.0
H2881 H 0.78798 0.56601 0.69168 0.0
H2882 H 0.77973 0.62408 0.71708 0.0
H2883 H 0.79635 0.61975 0.72661 0.0
H2884 H 0.77928 0.61369 0.73371 0.0
H2885 H 0.79604 0.59622 0.67047 0.0
H2886 H 0.80072 0.57739 0.67311 0.0
H2887 H 0.81276 0.59181 0.67977 0.0
C2888 C 0.9211 0.32247 0.7442 0.0
C2889 C 0.92236 0.33486 0.73539 0.0
C2890 C 0.9333 0.31665 0.7516 0.0
C2891 C 0.94711 0.32343 0.75029 0.0
C2892 C 0.94844 0.33605 0.7416 0.0
C2893 C 0.9361 0.34154 0.7342 0.0
C2894 C 0.93144 0.30313 0.7607 0.0
C2895 C 0.96296 0.34363 0.73994 0.0
C2896 C 0.97714 0.31538 0.77862 0.0
C2897 C 0.98551 0.30518 0.77124 0.0
C2898 C 0.96463 0.32141 0.77196 0.0
C2899 C 0.96026 0.31707 0.75761 0.0
C2900 C 0.96858 0.30675 0.75012 0.0
C2901 C 0.9811 0.30102 0.75697 0.0
C2902 C 0.95609 0.33247 0.78027 0.0
C2903 C 0.96428 0.30178 0.73482 0.0
H2904 H 0.91053 0.31734 0.7454 0.0
H2905 H 0.93728 0.35097 0.72726 0.0
H2906 H 0.93818 0.29424 0.7564 0.0
H2907 H 0.93529 0.3053 0.77211 0.0
H2908 H 0.91994 0.29927 0.76077 0.0
H2909 H 0.96206 0.35369 0.73331 0.0
H2910 H 0.9678 0.34656 0.75083 0.0
H2911 H 0.9706 0.33617 0.73465 0.0
H2912 H 0.98027 0.31859 0.78967 0.0
H2913 H 0.98753 0.29339 0.75098 0.0
H2914 H 0.94474 0.3285 0.78142 0.0
H2915 H 0.95558 0.34283 0.77412 0.0
H2916 H 0.96094 0.33475 0.79132 0.0
H2917 H 0.95305 0.29721 0.73455 0.0
H2918 H 0.97169 0.29339 0.73063 0.0
H2919 H 0.96434 0.31122 0.72732 0.0
C2920 C 0.22483 0.41661 0.72591 0.0
C2921 C 0.22758 0.41039 0.71228 0.0
C2922 C 0.23297 0.42867 0.73127 0.0
C2923 C 0.24406 0.43478 0.72276 0.0
C2924 C 0.24695 0.42851 0.70902 0.0
C2925 C 0.23872 0.41636 0.70398 0.0
C2926 C 0.22963 0.43492 0.74605 0.0
C2927 C 0.25858 0.43478 0.69957 0.0
C2928 C 0.25344 0.47422 0.73225 0.0
C2929 C 0.26571 0.47276 0.7416 0.0
C2930 C 0.24674 0.46202 0.72543 0.0
C2931 C 0.25232 0.44796 0.72816 0.0
C2932 C 0.26514 0.44648 0.73701 0.0
C2933 C 0.27174 0.45891 0.74354 0.0
C2934 C 0.23322 0.46411 0.71591 0.0
C2935 C 0.27139 0.43169 0.74029 0.0
H2936 H 0.21638 0.41193 0.73246 0.0
H2937 H 0.2408 0.4117 0.69337 0.0
H2938 H 0.23957 0.43502 0.75324 0.0
H2939 H 0.22609 0.44637 0.74486 0.0
H2940 H 0.22095 0.42865 0.75149 0.0
H2941 H 0.25973 0.42844 0.68932 0.0
H2942 H 0.25595 0.4462 0.6967 0.0
H2943 H 0.26921 0.43503 0.70565 0.0
H2944 H 0.24875 0.48489 0.73066 0.0
H2945 H 0.28114 0.45765 0.75085 0.0
H2946 H 0.22366 0.45942 0.72138 0.0
H2947 H 0.23417 0.45827 0.70536 0.0
H2948 H 0.23114 0.47579 0.71368 0.0
H2949 H 0.26382 0.42547 0.74718 0.0
H2950 H 0.28214 0.43249 0.74614 0.0
H2951 H 0.27259 0.42537 0.73006 0.0
C2952 C 0.11437 0.3062 0.31131 0.0
C2953 C 0.12018 0.30322 0.32534 0.0
C2954 C 0.10233 0.2983 0.30537 0.0
C2955 C 0.0957 0.28724 0.31369 0.0
C2956 C 0.10144 0.28416 0.32784 0.0
C2957 C 0.11364 0.29207 0.33342 0.0
C2958 C 0.09665 0.30187 0.29019 0.0
C2959 C 0.09464 0.27256 0.33713 0.0
C2960 C 0.05641 0.27765 0.30246 0.0
C2961 C 0.05802 0.26496 0.29408 0.0
C2962 C 0.0685 0.28468 0.30936 0.0
C2963 C 0.08262 0.27907 0.30762 0.0
C2964 C 0.08426 0.26604 0.2995 0.0
C2965 C 0.07194 0.25907 0.29295 0.0
C2966 C 0.0662 0.29837 0.31813 0.0
C2967 C 0.0991 0.25979 0.29717 0.0
H2968 H 0.11909 0.3149 0.305 0.0
H2969 H 0.11813 0.2894 0.34413 0.0
H2970 H 0.09644 0.29192 0.28324 0.0
H2971 H 0.08532 0.30577 0.29063 0.0
H2972 H 0.10336 0.31036 0.2849 0.0
H2973 H 0.10029 0.27158 0.34798 0.0
H2974 H 0.08305 0.27509 0.3388 0.0
H2975 H 0.0949 0.26186 0.33148 0.0
H2976 H 0.0457 0.28227 0.3034 0.0
H2977 H 0.07333 0.24939 0.28634 0.0
H2978 H 0.07134 0.3078 0.3127 0.0
H2979 H 0.07148 0.29744 0.32914 0.0
H2980 H 0.05448 0.30069 0.31939 0.0
H2981 H 0.10567 0.26757 0.29081 0.0
H2982 H 0.0985 0.2492 0.29122 0.0
H2983 H 0.10496 0.2582 0.3078 0.0
C2984 C 0.22105 0.59679 0.31517 0.0
C2985 C 0.20902 0.6049 0.31035 0.0
C2986 C 0.22518 0.58417 0.3077 0.0
C2987 C 0.2171 0.57947 0.29506 0.0
C2988 C 0.20502 0.58767 0.29004 0.0
C2989 C 0.20112 0.60026 0.29774 0.0
C2990 C 0.2381 0.57574 0.31348 0.0
C2991 C 0.19618 0.58308 0.27659 0.0
C2992 C 0.23713 0.5529 0.2711 0.0
C2993 C 0.23226 0.5394 0.27636 0.0
C2994 C 0.23173 0.56607 0.27652 0.0
C2995 C 0.22117 0.56576 0.28743 0.0
C2996 C 0.21548 0.55218 0.292 0.0
C2997 C 0.22108 0.53919 0.28641 0.0
C2998 C 0.23801 0.5803 0.27125 0.0
C2999 C 0.20414 0.55133 0.30351 0.0
H3000 H 0.22711 0.60015 0.32499 0.0
H3001 H 0.19193 0.60655 0.29381 0.0
H3002 H 0.2346 0.56456 0.31644 0.0
H3003 H 0.24626 0.5747 0.30491 0.0
H3004 H 0.24343 0.58101 0.32325 0.0
H3005 H 0.1873 0.5908 0.27391 0.0
H3006 H 0.20331 0.58229 0.2671 0.0
H3007 H 0.19131 0.5721 0.27822 0.0
H3008 H 0.24576 0.55324 0.26334 0.0
H3009 H 0.21716 0.52885 0.2905 0.0
H3010 H 0.2449 0.58538 0.28011 0.0
H3011 H 0.22921 0.58803 0.26844 0.0
H3012 H 0.24478 0.57878 0.26156 0.0
H3013 H 0.20901 0.555 0.31416 0.0
H3014 H 0.19975 0.54008 0.30477 0.0
H3015 H 0.19499 0.55867 0.30077 0.0
C3016 C 0.91269 0.71281 0.29383 0.0
C3017 C 0.91301 0.70094 0.30343 0.0
C3018 C 0.92559 0.71933 0.28908 0.0
C3019 C 0.9392 0.71384 0.29397 0.0
C3020 C 0.93961 0.70139 0.30303 0.0
C3021 C 0.92653 0.69513 0.30768 0.0
C3022 C 0.92464 0.73258 0.27942 0.0
C3023 C 0.95387 0.69516 0.30846 0.0
C3024 C 0.97348 0.728 0.27596 0.0
C3025 C 0.97805 0.73911 0.28571 0.0
C3026 C 0.96096 0.71947 0.27855 0.0
C3027 C 0.95284 0.72219 0.29114 0.0
C3028 C 0.95755 0.73327 0.30107 0.0
C3029 C 0.97005 0.74153 0.29826 0.0
C3030 C 0.95632 0.70769 0.26776 0.0
C3031 C 0.94924 0.7366 0.31462 0.0
H3032 H 0.90231 0.71719 0.29021 0.0
H3033 H 0.92693 0.68603 0.31516 0.0
H3034 H 0.92867 0.74232 0.28562 0.0
H3035 H 0.93164 0.73129 0.2699 0.0
H3036 H 0.91333 0.73461 0.2754 0.0
H3037 H 0.95239 0.68445 0.31383 0.0
H3038 H 0.96136 0.69383 0.29932 0.0
H3039 H 0.9592 0.7028 0.31647 0.0
H3040 H 0.97959 0.72604 0.26625 0.0
H3041 H 0.97346 0.75006 0.30591 0.0
H3042 H 0.94545 0.7102 0.26288 0.0
H3043 H 0.9553 0.69709 0.27342 0.0
H3044 H 0.9641 0.70653 0.25884 0.0
H3045 H 0.93801 0.73992 0.31151 0.0
H3046 H 0.95447 0.74543 0.32136 0.0
H3047 H 0.94836 0.72669 0.32143 0.0
C3048 C 0.81872 0.42654 0.31466 0.0
C3049 C 0.82778 0.41586 0.30907 0.0
C3050 C 0.81376 0.43807 0.30587 0.0
C3051 C 0.81772 0.43874 0.29108 0.0
C3052 C 0.8267 0.42784 0.28535 0.0
C3053 C 0.83174 0.41662 0.29446 0.0
C3054 C 0.8044 0.44961 0.31245 0.0
C3055 C 0.8309 0.42797 0.26957 0.0
C3056 C 0.79359 0.46087 0.26534 0.0
C3057 C 0.80187 0.47368 0.26385 0.0
C3058 C 0.79872 0.44932 0.27397 0.0
C3059 C 0.81233 0.45075 0.28155 0.0
C3060 C 0.82076 0.46367 0.28005 0.0
C3061 C 0.81549 0.47492 0.27108 0.0
C3062 C 0.78954 0.43562 0.27499 0.0
C3063 C 0.83522 0.46571 0.28814 0.0
H3064 H 0.81575 0.42602 0.32599 0.0
H3065 H 0.83864 0.40827 0.2901 0.0
H3066 H 0.80958 0.4605 0.31122 0.0
H3067 H 0.79367 0.44986 0.30658 0.0
H3068 H 0.80261 0.44772 0.32422 0.0
H3069 H 0.83776 0.41856 0.26676 0.0
H3070 H 0.82097 0.42772 0.26235 0.0
H3071 H 0.83696 0.43817 0.2672 0.0
H3072 H 0.78312 0.45986 0.25963 0.0
H3073 H 0.8218 0.48489 0.27005 0.0
H3074 H 0.78645 0.43388 0.28645 0.0
H3075 H 0.7959 0.42603 0.27168 0.0
H3076 H 0.77946 0.43605 0.268 0.0
H3077 H 0.8337 0.46484 0.30006 0.0
H3078 H 0.8404 0.47642 0.28587 0.0
H3079 H 0.84276 0.45697 0.28505 0.0
C3080 C 0.21467 0.61493 0.72517 0.0
C3081 C 0.20652 0.6136 0.71198 0.0
C3082 C 0.21931 0.60259 0.73292 0.0
C3083 C 0.21587 0.5885 0.72732 0.0
C3084 C 0.20796 0.58705 0.71386 0.0
C3085 C 0.20334 0.5996 0.70638 0.0
C3086 C 0.22774 0.60464 0.74722 0.0
C3087 C 0.20416 0.57223 0.70746 0.0
C3088 C 0.23849 0.55707 0.74205 0.0
C3089 C 0.22939 0.55102 0.75252 0.0
C3090 C 0.23413 0.56907 0.7336 0.0
C3091 C 0.22037 0.57532 0.7357 0.0
C3092 C 0.21107 0.56923 0.74613 0.0
C3093 C 0.21566 0.55715 0.75435 0.0
C3094 C 0.24435 0.5752 0.72257 0.0
C3095 C 0.19633 0.5756 0.74875 0.0
H3096 H 0.21743 0.62568 0.72947 0.0
H3097 H 0.19691 0.59841 0.69631 0.0
H3098 H 0.22172 0.59947 0.75615 0.0
H3099 H 0.23841 0.5992 0.74674 0.0
H3100 H 0.22967 0.61632 0.75001 0.0
H3101 H 0.19846 0.57295 0.69662 0.0
H3102 H 0.21417 0.56579 0.70629 0.0
H3103 H 0.19707 0.56617 0.71494 0.0
H3104 H 0.2492 0.55267 0.74064 0.0
H3105 H 0.20845 0.55249 0.76222 0.0
H3106 H 0.24751 0.58655 0.72561 0.0
H3107 H 0.23883 0.57557 0.71163 0.0
H3108 H 0.25439 0.56869 0.72176 0.0
H3109 H 0.19763 0.58709 0.75244 0.0
H3110 H 0.1903 0.56946 0.75709 0.0
H3111 H 0.18968 0.57562 0.73843 0.0
C3112 C 0.20966 0.42295 0.33248 0.0
C3113 C 0.21381 0.40907 0.32781 0.0
C3114 C 0.21706 0.43559 0.32805 0.0
C3115 C 0.22898 0.43438 0.31876 0.0
C3116 C 0.23318 0.42041 0.31392 0.0
C3117 C 0.22553 0.40794 0.31845 0.0
C3118 C 0.21211 0.45027 0.33333 0.0
C3119 C 0.24586 0.41862 0.30405 0.0
C3120 C 0.23991 0.46754 0.29665 0.0
C3121 C 0.25178 0.47328 0.30496 0.0
C3122 C 0.23244 0.45491 0.30099 0.0
C3123 C 0.23694 0.44774 0.31397 0.0
C3124 C 0.24892 0.45345 0.32242 0.0
C3125 C 0.25614 0.46617 0.31785 0.0
C3126 C 0.21965 0.44932 0.29173 0.0
C3127 C 0.25412 0.44608 0.33627 0.0
H3128 H 0.20052 0.42394 0.33957 0.0
H3129 H 0.22894 0.39726 0.31494 0.0
H3130 H 0.22113 0.45591 0.33952 0.0
H3131 H 0.20912 0.45723 0.32388 0.0
H3132 H 0.20261 0.44937 0.34046 0.0
H3133 H 0.24777 0.40702 0.30127 0.0
H3134 H 0.2439 0.42472 0.29379 0.0
H3135 H 0.25589 0.42325 0.30942 0.0
H3136 H 0.23627 0.47308 0.28683 0.0
H3137 H 0.26536 0.47045 0.32426 0.0
H3138 H 0.20971 0.44912 0.29826 0.0
H3139 H 0.2216 0.43796 0.28815 0.0
H3140 H 0.21757 0.4561 0.28191 0.0
H3141 H 0.24524 0.44569 0.34416 0.0
H3142 H 0.26369 0.45177 0.34152 0.0
H3143 H 0.2571 0.43466 0.33388 0.0
C3144 C 0.11019 0.70538 0.33367 0.0
C3145 C 0.12336 0.70779 0.32668 0.0
C3146 C 0.09749 0.71275 0.32932 0.0
C3147 C 0.09789 0.72274 0.31763 0.0
C3148 C 0.11111 0.72518 0.31047 0.0
C3149 C 0.12367 0.71771 0.31509 0.0
C3150 C 0.08363 0.70982 0.33724 0.0
C3151 C 0.11199 0.73574 0.29795 0.0
C3152 C 0.06216 0.73204 0.2979 0.0
C3153 C 0.05889 0.74556 0.30416 0.0
C3154 C 0.07483 0.72455 0.30212 0.0
C3155 C 0.08448 0.73065 0.31292 0.0
C3156 C 0.08127 0.74427 0.3193 0.0
C3157 C 0.06855 0.75156 0.31483 0.0
C3158 C 0.07786 0.71005 0.29504 0.0
C3159 C 0.09127 0.75116 0.33085 0.0
H3160 H 0.10975 0.69758 0.34247 0.0
H3161 H 0.1338 0.71981 0.30974 0.0
H3162 H 0.07961 0.72011 0.34195 0.0
H3163 H 0.07505 0.70562 0.32945 0.0
H3164 H 0.08514 0.70179 0.34616 0.0
H3165 H 0.12304 0.73629 0.29342 0.0
H3166 H 0.10409 0.73247 0.28908 0.0
H3167 H 0.10902 0.7468 0.30164 0.0
H3168 H 0.05472 0.72717 0.28982 0.0
H3169 H 0.06629 0.76207 0.3196 0.0
H3170 H 0.07844 0.70142 0.30345 0.0
H3171 H 0.08855 0.71048 0.28981 0.0
H3172 H 0.06938 0.70688 0.28666 0.0
H3173 H 0.0925 0.74375 0.34031 0.0
H3174 H 0.08721 0.76179 0.33477 0.0
H3175 H 0.10225 0.75291 0.32647 0.0
C3176 C 0.81609 0.59915 0.29598 0.0
C3177 C 0.80914 0.60906 0.30503 0.0
C3178 C 0.80865 0.58691 0.29008 0.0
C3179 C 0.79379 0.58461 0.29309 0.0
C3180 C 0.78677 0.59434 0.30248 0.0
C3181 C 0.79455 0.60638 0.30843 0.0
C3182 C 0.81659 0.57672 0.2802 0.0
C3183 C 0.77093 0.59231 0.30586 0.0
C3184 C 0.77436 0.56332 0.26271 0.0
C3185 C 0.77451 0.54916 0.26827 0.0
C3186 C 0.77956 0.57516 0.27115 0.0
C3187 C 0.78545 0.57269 0.28537 0.0
C3188 C 0.78481 0.55849 0.29136 0.0
C3189 C 0.77921 0.54684 0.28272 0.0
C3190 C 0.7797 0.59015 0.26444 0.0
C3191 C 0.7911 0.55537 0.30641 0.0
H3192 H 0.82727 0.60116 0.2931 0.0
H3193 H 0.78914 0.61378 0.31565 0.0
H3194 H 0.81518 0.56529 0.28382 0.0
H3195 H 0.81193 0.57743 0.26891 0.0
H3196 H 0.82841 0.57931 0.27997 0.0
H3197 H 0.76736 0.60019 0.31421 0.0
H3198 H 0.76414 0.59376 0.29575 0.0
H3199 H 0.76884 0.5811 0.30979 0.0
H3200 H 0.77074 0.56504 0.25147 0.0
H3201 H 0.77952 0.53582 0.28689 0.0
H3202 H 0.79104 0.59335 0.26201 0.0
H3203 H 0.77558 0.59834 0.27218 0.0
H3204 H 0.77301 0.59055 0.25414 0.0
H3205 H 0.80315 0.55597 0.3062 0.0
H3206 H 0.78786 0.54438 0.31027 0.0
H3207 H 0.78761 0.56364 0.31438 0.0
C3208 C 0.91567 0.311 0.30739 0.0
C3209 C 0.91669 0.32208 0.31801 0.0
C3210 C 0.92795 0.30656 0.29989 0.0
C3211 C 0.94161 0.3134 0.30302 0.0
C3212 C 0.94274 0.32451 0.31381 0.0
C3213 C 0.93029 0.32868 0.32119 0.0
C3214 C 0.9263 0.29457 0.28858 0.0
C3215 C 0.95708 0.33212 0.31743 0.0
C3216 C 0.97587 0.29338 0.293 0.0
C3217 C 0.97944 0.29998 0.27977 0.0
C3218 C 0.96363 0.29764 0.30065 0.0
C3219 C 0.95472 0.30888 0.29504 0.0
C3220 C 0.95831 0.31571 0.28179 0.0
C3221 C 0.97059 0.31117 0.27431 0.0
C3222 C 0.96022 0.29006 0.31473 0.0
C3223 C 0.9491 0.32776 0.27546 0.0
H3224 H 0.90524 0.30574 0.30497 0.0
H3225 H 0.93114 0.33739 0.32922 0.0
H3226 H 0.92958 0.29868 0.2778 0.0
H3227 H 0.93359 0.28544 0.29151 0.0
H3228 H 0.91496 0.29029 0.2875 0.0
H3229 H 0.95617 0.34044 0.32619 0.0
H3230 H 0.96531 0.32405 0.32098 0.0
H3231 H 0.96117 0.33752 0.30755 0.0
H3232 H 0.98273 0.28494 0.29752 0.0
H3233 H 0.97311 0.31626 0.26407 0.0
H3234 H 0.9492 0.285 0.31385 0.0
H3235 H 0.96017 0.29811 0.3238 0.0
H3236 H 0.96819 0.28147 0.31759 0.0
H3237 H 0.93786 0.32365 0.27313 0.0
H3238 H 0.9535 0.33217 0.26522 0.0
H3239 H 0.94841 0.3368 0.28349 0.0
C3240 C 0.81738 0.43128 0.72762 0.0
C3241 C 0.8308 0.43093 0.72083 0.0
C3242 C 0.81201 0.44437 0.73323 0.0
C3243 C 0.82042 0.45737 0.73231 0.0
C3244 C 0.83411 0.45701 0.72568 0.0
C3245 C 0.83906 0.44382 0.71988 0.0
C3246 C 0.79723 0.44432 0.73993 0.0
C3247 C 0.84352 0.47055 0.72472 0.0
C3248 C 0.80031 0.49327 0.7336 0.0
C3249 C 0.80199 0.49726 0.74838 0.0
C3250 C 0.80638 0.48043 0.72823 0.0
C3251 C 0.8146 0.47143 0.73778 0.0
C3252 C 0.81679 0.47564 0.7526 0.0
C3253 C 0.81033 0.48842 0.75776 0.0
C3254 C 0.80355 0.47625 0.71241 0.0
C3255 C 0.82573 0.4665 0.76307 0.0
H3256 H 0.81094 0.42134 0.72829 0.0
H3257 H 0.84953 0.44354 0.7148 0.0
H3258 H 0.79818 0.4483 0.75137 0.0
H3259 H 0.78993 0.45186 0.73386 0.0
H3260 H 0.79208 0.4333 0.73983 0.0
H3261 H 0.85416 0.46831 0.71984 0.0
H3262 H 0.83783 0.47886 0.718 0.0
H3263 H 0.84552 0.47534 0.73576 0.0
H3264 H 0.7938 0.49993 0.72625 0.0
H3265 H 0.81171 0.49142 0.76919 0.0
H3266 H 0.79749 0.46571 0.71172 0.0
H3267 H 0.81399 0.47471 0.70692 0.0
H3268 H 0.79717 0.48457 0.70634 0.0
H3269 H 0.8203 0.45576 0.7645 0.0
H3270 H 0.82729 0.47179 0.77396 0.0
H3271 H 0.83657 0.46443 0.75857 0.0
C3272 C 0.10753 0.32359 0.71498 0.0
C3273 C 0.12179 0.31952 0.71885 0.0
C3274 C 0.09552 0.31733 0.72182 0.0
C3275 C 0.09782 0.30676 0.73281 0.0
C3276 C 0.11215 0.30233 0.73649 0.0
C3277 C 0.12395 0.30876 0.72948 0.0
C3278 C 0.08042 0.32241 0.71762 0.0
C3279 C 0.11507 0.29108 0.74814 0.0
C3280 C 0.07039 0.30351 0.76262 0.0
C3281 C 0.0626 0.29077 0.75858 0.0
C3282 C 0.0817 0.30887 0.75421 0.0
C3283 C 0.0854 0.30133 0.74139 0.0
C3284 C 0.07746 0.28858 0.73708 0.0
C3285 C 0.06612 0.28344 0.74573 0.0
C3286 C 0.08983 0.32254 0.7592 0.0
C3287 C 0.0811 0.28027 0.72346 0.0
H3288 H 0.10575 0.33197 0.70687 0.0
H3289 H 0.13491 0.30535 0.73234 0.0
H3290 H 0.07314 0.31293 0.71507 0.0
H3291 H 0.07579 0.32831 0.72695 0.0
H3292 H 0.08037 0.32976 0.70805 0.0
H3293 H 0.12672 0.28808 0.74901 0.0
H3294 H 0.1118 0.29537 0.75887 0.0
H3295 H 0.10846 0.28108 0.74581 0.0
H3296 H 0.06774 0.30932 0.77248 0.0
H3297 H 0.06017 0.2736 0.74254 0.0
H3298 H 0.08934 0.33085 0.75047 0.0
H3299 H 0.10146 0.32006 0.76139 0.0
H3300 H 0.08536 0.32731 0.76924 0.0
H3301 H 0.08059 0.28758 0.71388 0.0
H3302 H 0.07361 0.27083 0.72134 0.0
H3303 H 0.09239 0.27622 0.72449 0.0
C3304 C 0.91968 0.72868 0.70118 0.0
C3305 C 0.91326 0.73554 0.68898 0.0
C3306 C 0.93266 0.73409 0.70782 0.0
C3307 C 0.93944 0.74672 0.70219 0.0
C3308 C 0.93294 0.75381 0.68999 0.0
C3309 C 0.91996 0.74814 0.68353 0.0
C3310 C 0.93919 0.72621 0.72082 0.0
C3311 C 0.93981 0.76729 0.68365 0.0
C3312 C 0.96688 0.7661 0.72791 0.0
C3313 C 0.98008 0.76024 0.72352 0.0
C3314 C 0.95362 0.76221 0.72074 0.0
C3315 C 0.95351 0.75222 0.7089 0.0
C3316 C 0.96684 0.74678 0.70401 0.0
C3317 C 0.97994 0.75085 0.71136 0.0
C3318 C 0.93966 0.76833 0.72625 0.0
C3319 C 0.96724 0.73615 0.6914 0.0
H3320 H 0.91449 0.7191 0.70563 0.0
H3321 H 0.9152 0.75343 0.67402 0.0
H3322 H 0.95023 0.72239 0.71832 0.0
H3323 H 0.94039 0.73376 0.7303 0.0
H3324 H 0.93248 0.71666 0.72401 0.0
H3325 H 0.93314 0.77182 0.67448 0.0
H3326 H 0.94137 0.77581 0.69222 0.0
H3327 H 0.95073 0.76468 0.67964 0.0
H3328 H 0.96684 0.77336 0.73728 0.0
H3329 H 0.99005 0.74628 0.70784 0.0
H3330 H 0.933 0.75942 0.73088 0.0
H3331 H 0.93315 0.77312 0.71712 0.0
H3332 H 0.94165 0.77681 0.73481 0.0
H3333 H 0.96179 0.72578 0.6944 0.0
H3334 H 0.97853 0.73373 0.68828 0.0
H3335 H 0.96121 0.74052 0.68175 0.0
C3336 C 0.7139 0.24104 0.60183 0.0
C3337 C 0.72108 0.22831 0.60627 0.0
C3338 C 0.71846 0.24906 0.58972 0.0
C3339 C 0.73043 0.24421 0.58176 0.0
C3340 C 0.73785 0.23152 0.58632 0.0
C3341 C 0.73313 0.22378 0.5985 0.0
C3342 C 0.71029 0.26256 0.58527 0.0
C3343 C 0.75067 0.22595 0.57817 0.0
C3344 C 0.73467 0.25338 0.54173 0.0
C3345 C 0.74628 0.26348 0.54236 0.0
C3346 C 0.72895 0.24755 0.5545 0.0
C3347 C 0.7349 0.25196 0.5683 0.0
C3348 C 0.74598 0.26285 0.56905 0.0
C3349 C 0.75154 0.26848 0.55609 0.0
C3350 C 0.71712 0.23599 0.55317 0.0
C3351 C 0.75253 0.26798 0.58353 0.0
H3352 H 0.7045 0.24458 0.60764 0.0
H3353 H 0.73894 0.21415 0.60198 0.0
H3354 H 0.71794 0.27194 0.58441 0.0
H3355 H 0.70498 0.26085 0.57434 0.0
H3356 H 0.70182 0.26541 0.59312 0.0
H3357 H 0.75547 0.21611 0.5833 0.0
H3358 H 0.74723 0.22322 0.56675 0.0
H3359 H 0.75924 0.23455 0.57772 0.0
H3360 H 0.73046 0.24947 0.53122 0.0
H3361 H 0.7605 0.27627 0.55674 0.0
H3362 H 0.70802 0.23868 0.5603 0.0
H3363 H 0.72151 0.22538 0.55684 0.0
H3364 H 0.71276 0.2347 0.54178 0.0
H3365 H 0.74385 0.27085 0.59111 0.0
H3366 H 0.75988 0.27758 0.58235 0.0
H3367 H 0.75887 0.25905 0.58863 0.0
C3368 C 0.33466 0.22893 0.60169 0.0
C3369 C 0.32759 0.23034 0.61492 0.0
C3370 C 0.32882 0.23503 0.58879 0.0
C3371 C 0.3154 0.24239 0.58907 0.0
C3372 C 0.30833 0.24402 0.60248 0.0
C3373 C 0.31461 0.23811 0.61527 0.0
C3374 C 0.33686 0.23334 0.5748 0.0
C3375 C 0.29385 0.25149 0.60322 0.0
C3376 C 0.30236 0.26652 0.55765 0.0
C3377 C 0.29315 0.2569 0.54964 0.0
C3378 C 0.31004 0.26187 0.57029 0.0
C3379 C 0.30817 0.24737 0.57521 0.0
C3380 C 0.29898 0.23761 0.56708 0.0
C3381 C 0.29174 0.24243 0.55434 0.0
C3382 C 0.32001 0.2725 0.57849 0.0
C3383 C 0.29644 0.22214 0.57206 0.0
H3384 H 0.34479 0.22304 0.60145 0.0
H3385 H 0.30911 0.23913 0.6255 0.0
H3386 H 0.33048 0.22617 0.56711 0.0
H3387 H 0.33814 0.24406 0.56944 0.0
H3388 H 0.34779 0.22856 0.57667 0.0
H3389 H 0.29006 0.25236 0.61456 0.0
H3390 H 0.29459 0.26259 0.59857 0.0
H3391 H 0.28554 0.24531 0.59655 0.0
H3392 H 0.30354 0.27769 0.55407 0.0
H3393 H 0.28455 0.23492 0.54832 0.0
H3394 H 0.33099 0.26779 0.58004 0.0
H3395 H 0.31581 0.27461 0.58949 0.0
H3396 H 0.32104 0.28306 0.57273 0.0
H3397 H 0.30692 0.21633 0.57298 0.0
H3398 H 0.28898 0.21591 0.56448 0.0
H3399 H 0.29173 0.2222 0.58304 0.0
C3400 C 0.32196 0.81278 0.63112 0.0
C3401 C 0.33047 0.82553 0.63009 0.0
C3402 C 0.31709 0.805 0.61858 0.0
C3403 C 0.32077 0.81007 0.60459 0.0
C3404 C 0.32921 0.82302 0.60345 0.0
C3405 C 0.33395 0.83057 0.61618 0.0
C3406 C 0.30806 0.79129 0.6203 0.0
C3407 C 0.3334 0.8288 0.58877 0.0
C3408 C 0.32029 0.78287 0.57295 0.0
C3409 C 0.30695 0.78579 0.56573 0.0
C3410 C 0.3249 0.79067 0.58557 0.0
C3411 C 0.31599 0.8017 0.59118 0.0
C3412 C 0.30252 0.80471 0.58397 0.0
C3413 C 0.29817 0.79674 0.57136 0.0
C3414 C 0.33931 0.78705 0.59294 0.0
C3415 C 0.29271 0.81642 0.58953 0.0
H3416 H 0.31902 0.80889 0.64178 0.0
H3417 H 0.34067 0.84029 0.61523 0.0
H3418 H 0.29746 0.79233 0.61429 0.0
H3419 H 0.31369 0.78188 0.6155 0.0
H3420 H 0.30598 0.78888 0.63191 0.0
H3421 H 0.33967 0.83921 0.5897 0.0
H3422 H 0.34008 0.82067 0.58312 0.0
H3423 H 0.32351 0.83058 0.58179 0.0
H3424 H 0.32708 0.77433 0.56884 0.0
H3425 H 0.28796 0.79927 0.5658 0.0
H3426 H 0.3376 0.7836 0.60435 0.0
H3427 H 0.34648 0.79687 0.59344 0.0
H3428 H 0.345 0.77822 0.58719 0.0
H3429 H 0.28978 0.81404 0.60092 0.0
H3430 H 0.28254 0.81738 0.58274 0.0
H3431 H 0.29851 0.8271 0.58966 0.0
C3432 C 0.685 0.81557 0.58851 0.0
C3433 C 0.69253 0.81437 0.602 0.0
C3434 C 0.68972 0.80831 0.57605 0.0
C3435 C 0.70234 0.79967 0.57706 0.0
C3436 C 0.71005 0.79846 0.59062 0.0
C3437 C 0.70505 0.8058 0.60292 0.0
C3438 C 0.68123 0.80991 0.56178 0.0
C3439 C 0.72359 0.7894 0.59212 0.0
C3440 C 0.70783 0.77102 0.54764 0.0
C3441 C 0.71757 0.77818 0.53854 0.0
C3442 C 0.7028 0.77785 0.56023 0.0
C3443 C 0.70765 0.79218 0.56385 0.0
C3444 C 0.71748 0.79945 0.55475 0.0
C3445 C 0.72227 0.7924 0.54221 0.0
C3446 C 0.6923 0.76975 0.56968 0.0
C3447 C 0.7229 0.81474 0.55821 0.0
H3448 H 0.67544 0.82233 0.58764 0.0
H3449 H 0.71081 0.80464 0.61334 0.0
H3450 H 0.68827 0.81485 0.5535 0.0
H3451 H 0.67766 0.79903 0.55757 0.0
H3452 H 0.67149 0.8168 0.56288 0.0
H3453 H 0.72831 0.78954 0.60343 0.0
H3454 H 0.72104 0.77794 0.58893 0.0
H3455 H 0.73193 0.79351 0.58465 0.0
H3456 H 0.70426 0.75999 0.54501 0.0
H3457 H 0.72955 0.79817 0.53516 0.0
H3458 H 0.6821 0.77597 0.57047 0.0
H3459 H 0.69703 0.76872 0.58091 0.0
H3460 H 0.68957 0.75868 0.56536 0.0
H3461 H 0.7136 0.82229 0.5584 0.0
H3462 H 0.73073 0.81879 0.55015 0.0
H3463 H 0.72831 0.81509 0.56921 0.0
C3464 C 0.7162 0.81359 0.39397 0.0
C3465 C 0.70758 0.82601 0.395 0.0
C3466 C 0.72381 0.80811 0.40627 0.0
C3467 C 0.72304 0.8154 0.4199 0.0
C3468 C 0.71458 0.82814 0.42091 0.0
C3469 C 0.70683 0.83319 0.40849 0.0
C3470 C 0.73243 0.79433 0.40476 0.0
C3471 C 0.71367 0.8364 0.43513 0.0
C3472 C 0.7302 0.79338 0.45438 0.0
C3473 C 0.74489 0.79668 0.45777 0.0
C3474 C 0.72299 0.79944 0.44216 0.0
C3475 C 0.73052 0.8093 0.43319 0.0
C3476 C 0.74524 0.813 0.43676 0.0
C3477 C 0.75229 0.80653 0.44891 0.0
C3478 C 0.70739 0.79498 0.43864 0.0
C3479 C 0.75357 0.82369 0.42766 0.0
H3480 H 0.71672 0.80795 0.38358 0.0
H3481 H 0.7003 0.84289 0.40929 0.0
H3482 H 0.74394 0.79636 0.40823 0.0
H3483 H 0.72806 0.78581 0.41202 0.0
H3484 H 0.73208 0.79007 0.39338 0.0
H3485 H 0.70732 0.84655 0.43392 0.0
H3486 H 0.70848 0.82942 0.44337 0.0
H3487 H 0.72476 0.83927 0.43945 0.0
H3488 H 0.72439 0.78571 0.46106 0.0
H3489 H 0.76362 0.80917 0.45147 0.0
H3490 H 0.70656 0.78978 0.42768 0.0
H3491 H 0.70039 0.80472 0.43829 0.0
H3492 H 0.70306 0.78724 0.44673 0.0
H3493 H 0.75456 0.81929 0.41644 0.0
H3494 H 0.76466 0.82603 0.43232 0.0
H3495 H 0.74758 0.83407 0.42673 0.0
C3496 C 0.73351 0.22019 0.41185 0.0
C3497 C 0.72166 0.21048 0.41282 0.0
C3498 C 0.74166 0.2247 0.42435 0.0
C3499 C 0.73787 0.21942 0.43822 0.0
C3500 C 0.72589 0.20966 0.4393 0.0
C3501 C 0.71794 0.20531 0.4266 0.0
C3502 C 0.75429 0.23518 0.42271 0.0
C3503 C 0.72148 0.2038 0.45388 0.0
C3504 C 0.76648 0.22173 0.46927 0.0
C3505 C 0.76246 0.23444 0.4766 0.0
C3506 C 0.75855 0.21665 0.45681 0.0
C3507 C 0.74623 0.22442 0.45161 0.0
C3508 C 0.74201 0.23714 0.45909 0.0
C3509 C 0.75016 0.24198 0.47145 0.0
C3510 C 0.76344 0.20309 0.44911 0.0
C3511 C 0.7289 0.24568 0.454 0.0
H3512 H 0.73636 0.2244 0.40128 0.0
H3513 H 0.70894 0.19765 0.42746 0.0
H3514 H 0.75237 0.24535 0.42891 0.0
H3515 H 0.76441 0.23036 0.42735 0.0
H3516 H 0.75603 0.23803 0.41114 0.0
H3517 H 0.71194 0.19626 0.45287 0.0
H3518 H 0.73069 0.19791 0.45914 0.0
H3519 H 0.71878 0.21293 0.46124 0.0
H3520 H 0.77601 0.21591 0.47311 0.0
H3521 H 0.74678 0.25163 0.47719 0.0
H3522 H 0.76624 0.20574 0.43774 0.0
H3523 H 0.75447 0.19488 0.4485 0.0
H3524 H 0.77306 0.19814 0.45468 0.0
H3525 H 0.73038 0.24959 0.44271 0.0
H3526 H 0.72694 0.25523 0.46113 0.0
H3527 H 0.71905 0.23855 0.45375 0.0
C3528 C 0.2994 0.20872 0.40649 0.0
C3529 C 0.30912 0.19708 0.40664 0.0
C3530 C 0.29263 0.21313 0.41925 0.0
C3531 C 0.29563 0.20571 0.43248 0.0
C3532 C 0.30555 0.19405 0.43274 0.0
C3533 C 0.31219 0.18989 0.41982 0.0
C3534 C 0.28223 0.22572 0.41856 0.0
C3535 C 0.309 0.18586 0.44663 0.0
C3536 C 0.28815 0.22547 0.46787 0.0
C3537 C 0.27459 0.21955 0.47148 0.0
C3538 C 0.29515 0.221 0.45528 0.0
C3539 C 0.28848 0.21026 0.44607 0.0
C3540 C 0.27491 0.20405 0.44972 0.0
C3541 C 0.26812 0.20877 0.46238 0.0
C3542 C 0.30963 0.22786 0.45179 0.0
C3543 C 0.26748 0.19255 0.44016 0.0
H3544 H 0.29711 0.21441 0.39636 0.0
H3545 H 0.31954 0.18075 0.41996 0.0
H3546 H 0.27134 0.22208 0.42204 0.0
H3547 H 0.28606 0.23448 0.4262 0.0
H3548 H 0.28109 0.23035 0.40742 0.0
H3549 H 0.31706 0.17713 0.44503 0.0
H3550 H 0.31337 0.19348 0.45518 0.0
H3551 H 0.29891 0.18085 0.45079 0.0
H3552 H 0.2934 0.23357 0.47496 0.0
H3553 H 0.25761 0.20423 0.465 0.0
H3554 H 0.30881 0.23334 0.44105 0.0
H3555 H 0.31799 0.21932 0.45098 0.0
H3556 H 0.31341 0.23599 0.46016 0.0
H3557 H 0.26507 0.19705 0.42915 0.0
H3558 H 0.25715 0.18852 0.44473 0.0
H3559 H 0.2748 0.18317 0.43875 0.0
C3560 C 0.30709 0.80626 0.43247 0.0
C3561 C 0.30102 0.81753 0.42407 0.0
C3562 C 0.30121 0.80216 0.4458 0.0
C3563 C 0.28884 0.8094 0.4509 0.0
C3564 C 0.2824 0.82051 0.44231 0.0
C3565 C 0.28858 0.82447 0.42904 0.0
C3566 C 0.30843 0.79024 0.45458 0.0
C3567 C 0.26917 0.82844 0.44731 0.0
C3568 C 0.26946 0.78938 0.48108 0.0
C3569 C 0.27597 0.79585 0.49365 0.0
C3570 C 0.27294 0.79418 0.46705 0.0
C3571 C 0.28318 0.80571 0.46553 0.0
C3572 C 0.28905 0.81286 0.47818 0.0
C3573 C 0.28536 0.80788 0.49205 0.0
C3574 C 0.26631 0.78634 0.45387 0.0
C3575 C 0.29996 0.82523 0.47709 0.0
H3576 H 0.31651 0.80062 0.42862 0.0
H3577 H 0.28386 0.83327 0.42273 0.0
H3578 H 0.31244 0.79466 0.46529 0.0
H3579 H 0.30043 0.78144 0.45679 0.0
H3580 H 0.31774 0.78543 0.44893 0.0
H3581 H 0.26484 0.83608 0.43893 0.0
H3582 H 0.26044 0.82051 0.44997 0.0
H3583 H 0.27197 0.83471 0.45742 0.0
H3584 H 0.26218 0.78009 0.48215 0.0
H3585 H 0.2904 0.81301 0.50165 0.0
H3586 H 0.27479 0.77994 0.4485 0.0
H3587 H 0.26205 0.79428 0.44577 0.0
H3588 H 0.25733 0.77879 0.45679 0.0
H3589 H 0.31022 0.82102 0.47274 0.0
H3590 H 0.30248 0.83051 0.48783 0.0
H3591 H 0.29585 0.8336 0.46938 0.0
C3592 C 0.63263 0.21619 0.71653 0.0
C3593 C 0.63166 0.20574 0.70528 0.0
C3594 C 0.62034 0.22003 0.72435 0.0
C3595 C 0.60672 0.21326 0.72086 0.0
C3596 C 0.60568 0.20266 0.70957 0.0
C3597 C 0.61813 0.19904 0.70192 0.0
C3598 C 0.62193 0.23136 0.73632 0.0
C3599 C 0.59136 0.19525 0.70546 0.0
C3600 C 0.57718 0.2145 0.74902 0.0
C3601 C 0.56864 0.22609 0.74395 0.0
C3602 C 0.58956 0.21016 0.7416 0.0
C3603 C 0.5935 0.21755 0.72877 0.0
C3604 C 0.58486 0.22916 0.72352 0.0
C3605 C 0.57256 0.23326 0.73114 0.0
C3606 C 0.59851 0.19774 0.74757 0.0
C3607 C 0.58862 0.23729 0.70985 0.0
H3608 H 0.64306 0.22126 0.71936 0.0
H3609 H 0.61722 0.1911 0.69314 0.0
H3610 H 0.61482 0.24073 0.73375 0.0
H3611 H 0.61837 0.22673 0.74678 0.0
H3612 H 0.63331 0.23545 0.73784 0.0
H3613 H 0.59242 0.187 0.69666 0.0
H3614 H 0.58687 0.1898 0.71513 0.0
H3615 H 0.58335 0.20347 0.70173 0.0
H3616 H 0.57435 0.20899 0.75896 0.0
H3617 H 0.56591 0.24204 0.72696 0.0
H3618 H 0.60976 0.20162 0.75026 0.0
H3619 H 0.59924 0.18904 0.73918 0.0
H3620 H 0.59387 0.19296 0.75752 0.0
H3621 H 0.59963 0.24231 0.7112 0.0
H3622 H 0.58073 0.246 0.70715 0.0
H3623 H 0.58889 0.22961 0.70047 0.0
C3624 C 0.32658 0.12372 0.71865 0.0
C3625 C 0.32048 0.13253 0.70763 0.0
C3626 C 0.31946 0.11093 0.72319 0.0
C3627 C 0.30581 0.10685 0.71669 0.0
C3628 C 0.29947 0.1158 0.70575 0.0
C3629 C 0.30689 0.12843 0.70131 0.0
C3630 C 0.32665 0.10167 0.73484 0.0
C3631 C 0.28492 0.11189 0.69854 0.0
C3632 C 0.29421 0.06684 0.71707 0.0
C3633 C 0.28456 0.06639 0.72863 0.0
C3634 C 0.30119 0.07989 0.71314 0.0
C3635 C 0.29844 0.09292 0.72086 0.0
C3636 C 0.28866 0.09259 0.73249 0.0
C3637 C 0.2819 0.07934 0.73626 0.0
C3638 C 0.31165 0.07968 0.70079 0.0
C3639 C 0.28531 0.10624 0.74092 0.0
H3640 H 0.33694 0.12684 0.72381 0.0
H3641 H 0.30213 0.13495 0.69262 0.0
H3642 H 0.31933 0.1003 0.74412 0.0
H3643 H 0.3287 0.09065 0.73039 0.0
H3644 H 0.33715 0.10647 0.73902 0.0
H3645 H 0.28109 0.12038 0.69078 0.0
H3646 H 0.28571 0.10143 0.69251 0.0
H3647 H 0.27663 0.11034 0.70693 0.0
H3648 H 0.29659 0.0569 0.71128 0.0
H3649 H 0.27441 0.07912 0.74513 0.0
H3650 H 0.32259 0.08346 0.7048 0.0
H3651 H 0.308 0.0873 0.69211 0.0
H3652 H 0.31264 0.06865 0.69589 0.0
H3653 H 0.29547 0.11097 0.74594 0.0
H3654 H 0.27749 0.10417 0.74967 0.0
H3655 H 0.28069 0.11453 0.73339 0.0
C3656 C 0.43936 0.84085 0.72758 0.0
C3657 C 0.42546 0.83522 0.73038 0.0
C3658 C 0.45184 0.83548 0.73486 0.0
C3659 C 0.45044 0.82419 0.7452 0.0
C3660 C 0.43645 0.81853 0.74816 0.0
C3661 C 0.42415 0.82411 0.74073 0.0
C3662 C 0.46656 0.84177 0.73135 0.0
C3663 C 0.43448 0.8065 0.75911 0.0
C3664 C 0.48293 0.80005 0.75343 0.0
C3665 C 0.48837 0.80573 0.76682 0.0
C3666 C 0.47068 0.806 0.74627 0.0
C3667 C 0.46364 0.81798 0.75261 0.0
C3668 C 0.46913 0.82388 0.76603 0.0
C3669 C 0.48143 0.8177 0.77297 0.0
C3670 C 0.46524 0.79941 0.73194 0.0
C3671 C 0.46192 0.83665 0.77315 0.0
H3672 H 0.44051 0.8493 0.71948 0.0
H3673 H 0.41346 0.81984 0.74313 0.0
H3674 H 0.47221 0.84591 0.74145 0.0
H3675 H 0.47343 0.83313 0.72679 0.0
H3676 H 0.46577 0.85081 0.72337 0.0
H3677 H 0.42285 0.80349 0.76038 0.0
H3678 H 0.44038 0.79667 0.75565 0.0
H3679 H 0.4392 0.80992 0.76991 0.0
H3680 H 0.48835 0.791 0.74842 0.0
H3681 H 0.48544 0.82208 0.78335 0.0
H3682 H 0.46517 0.80782 0.7233 0.0
H3683 H 0.45387 0.79542 0.73291 0.0
H3684 H 0.472 0.79019 0.72841 0.0
H3685 H 0.46156 0.84602 0.76557 0.0
H3686 H 0.46766 0.84014 0.78346 0.0
H3687 H 0.45051 0.83372 0.77557 0.0
C3688 C 0.69218 0.91433 0.71662 0.0
C3689 C 0.69459 0.91234 0.70174 0.0
C3690 C 0.69778 0.92662 0.7242 0.0
C3691 C 0.70571 0.93734 0.71662 0.0
C3692 C 0.70809 0.93542 0.70154 0.0
C3693 C 0.70264 0.92284 0.69431 0.0
C3694 C 0.69529 0.92809 0.74034 0.0
C3695 C 0.71625 0.94673 0.69301 0.0
C3696 C 0.70824 0.97545 0.73321 0.0
C3697 C 0.72249 0.9758 0.73911 0.0
C3698 C 0.70268 0.96306 0.72575 0.0
C3699 C 0.71148 0.95059 0.72446 0.0
C3700 C 0.7258 0.95081 0.73066 0.0
C3701 C 0.73118 0.96347 0.73776 0.0
C3702 C 0.68747 0.96337 0.71906 0.0
C3703 C 0.73541 0.93765 0.72984 0.0
H3704 H 0.68606 0.90612 0.72239 0.0
H3705 H 0.70442 0.92134 0.68277 0.0
H3706 H 0.70588 0.92922 0.74643 0.0
H3707 H 0.68905 0.93808 0.74248 0.0
H3708 H 0.68926 0.91858 0.7447 0.0
H3709 H 0.71693 0.94373 0.6813 0.0
H3710 H 0.71079 0.9574 0.69381 0.0
H3711 H 0.72744 0.94819 0.6977 0.0
H3712 H 0.70159 0.98504 0.73412 0.0
H3713 H 0.74215 0.9637 0.74245 0.0
H3714 H 0.68068 0.95462 0.72377 0.0
H3715 H 0.68779 0.96127 0.70714 0.0
H3716 H 0.68212 0.97399 0.72084 0.0
H3717 H 0.72994 0.92809 0.73473 0.0
H3718 H 0.74612 0.93945 0.73558 0.0
H3719 H 0.7373 0.93487 0.71827 0.0
C3720 C 0.60138 0.80951 0.29253 0.0
C3721 C 0.60115 0.82027 0.30346 0.0
C3722 C 0.58854 0.80234 0.28753 0.0
C3723 C 0.57508 0.80603 0.29356 0.0
C3724 C 0.57469 0.81733 0.30414 0.0
C3725 C 0.58772 0.82426 0.30899 0.0
C3726 C 0.58949 0.79028 0.27634 0.0
C3727 C 0.56059 0.82166 0.3108 0.0
C3728 C 0.53988 0.7908 0.27551 0.0
C3729 C 0.5373 0.7785 0.28411 0.0
C3730 C 0.55205 0.80003 0.27848 0.0
C3731 C 0.56185 0.79681 0.29027 0.0
C3732 C 0.55919 0.78447 0.29901 0.0
C3733 C 0.54701 0.77556 0.29585 0.0
C3734 C 0.55451 0.81312 0.26897 0.0
C3735 C 0.56933 0.78056 0.31166 0.0
H3736 H 0.61171 0.80627 0.28826 0.0
H3737 H 0.5874 0.83274 0.31725 0.0
H3738 H 0.58712 0.77966 0.28152 0.0
H3739 H 0.58126 0.79177 0.26738 0.0
H3740 H 0.60043 0.78979 0.27159 0.0
H3741 H 0.56184 0.8317 0.31758 0.0
H3742 H 0.55211 0.82348 0.30214 0.0
H3743 H 0.55664 0.81271 0.31779 0.0
H3744 H 0.53246 0.79317 0.26642 0.0
H3745 H 0.54518 0.76611 0.30262 0.0
H3746 H 0.565 0.81211 0.26346 0.0
H3747 H 0.55524 0.82316 0.27577 0.0
H3748 H 0.54568 0.8144 0.26052 0.0
H3749 H 0.58041 0.77868 0.3077 0.0
H3750 H 0.56566 0.77063 0.31744 0.0
H3751 H 0.57014 0.78971 0.31962 0.0
C3752 C 0.7137 0.11729 0.29915 0.0
C3753 C 0.71731 0.12215 0.31335 0.0
C3754 C 0.72099 0.10552 0.29292 0.0
C3755 C 0.73193 0.09823 0.30121 0.0
C3756 C 0.73539 0.10293 0.31567 0.0
C3757 C 0.72814 0.11492 0.3215 0.0
C3758 C 0.71713 0.10102 0.27739 0.0
C3759 C 0.74674 0.0953 0.32499 0.0
C3760 C 0.74098 0.05995 0.28838 0.0
C3761 C 0.75381 0.06239 0.28084 0.0
C3762 C 0.73401 0.07141 0.29545 0.0
C3763 C 0.7398 0.08576 0.29469 0.0
C3764 C 0.75291 0.08825 0.28733 0.0
C3765 C 0.75983 0.07652 0.28063 0.0
C3766 C 0.72026 0.06822 0.30346 0.0
C3767 C 0.75933 0.1034 0.28605 0.0
H3768 H 0.70542 0.12293 0.29278 0.0
H3769 H 0.73085 0.11856 0.33254 0.0
H3770 H 0.72693 0.10176 0.27068 0.0
H3771 H 0.71331 0.0895 0.27705 0.0
H3772 H 0.70851 0.1079 0.27236 0.0
H3773 H 0.74784 0.10001 0.33617 0.0
H3774 H 0.74388 0.08355 0.32583 0.0
H3775 H 0.75745 0.09605 0.31983 0.0
H3776 H 0.73628 0.04906 0.2886 0.0
H3777 H 0.76964 0.07853 0.27468 0.0
H3778 H 0.71095 0.07374 0.29796 0.0
H3779 H 0.72126 0.07257 0.31477 0.0
H3780 H 0.71774 0.05636 0.30392 0.0
H3781 H 0.75151 0.11047 0.28006 0.0
H3782 H 0.76974 0.10347 0.28024 0.0
H3783 H 0.7613 0.10828 0.29704 0.0
C3784 C 0.41534 0.19516 0.31628 0.0
C3785 C 0.40469 0.18672 0.30876 0.0
C3786 C 0.42811 0.19959 0.30947 0.0
C3787 C 0.4301 0.19576 0.29468 0.0
C3788 C 0.41929 0.18733 0.28701 0.0
C3789 C 0.40678 0.18277 0.2942 0.0
C3790 C 0.4395 0.20831 0.31811 0.0
C3791 C 0.42085 0.18328 0.27116 0.0
C3792 C 0.45665 0.21911 0.27371 0.0
C3793 C 0.46886 0.21018 0.27342 0.0
C3794 C 0.44387 0.21446 0.28037 0.0
C3795 C 0.44344 0.20067 0.28721 0.0
C3796 C 0.45579 0.19163 0.287 0.0
C3797 C 0.4683 0.19643 0.27996 0.0
C3798 C 0.43084 0.22429 0.28006 0.0
C3799 C 0.45588 0.17699 0.29442 0.0
H3800 H 0.41375 0.19813 0.32758 0.0
H3801 H 0.39847 0.17635 0.28835 0.0
H3802 H 0.45009 0.20266 0.31799 0.0
H3803 H 0.44109 0.21912 0.31302 0.0
H3804 H 0.43651 0.20998 0.32964 0.0
H3805 H 0.41136 0.17686 0.26671 0.0
H3806 H 0.42204 0.1933 0.26456 0.0
H3807 H 0.43082 0.17682 0.26983 0.0
H3808 H 0.45704 0.22968 0.26852 0.0
H3809 H 0.47781 0.18961 0.27988 0.0
H3810 H 0.42804 0.22728 0.29135 0.0
H3811 H 0.42127 0.21846 0.27503 0.0
H3812 H 0.43279 0.23445 0.27386 0.0
H3813 H 0.45375 0.1784 0.30619 0.0
H3814 H 0.4664 0.17134 0.29338 0.0
H3815 H 0.44706 0.1699 0.28967 0.0
C3816 C 0.31048 0.91596 0.32107 0.0
C3817 C 0.30568 0.9017 0.31777 0.0
C3818 C 0.30352 0.92806 0.31478 0.0
C3819 C 0.29148 0.92586 0.30494 0.0
C3820 C 0.28713 0.91148 0.30094 0.0
C3821 C 0.29426 0.8996 0.3074 0.0
C3822 C 0.30851 0.9432 0.31936 0.0
C3823 C 0.2744 0.90862 0.29044 0.0
C3824 C 0.26106 0.9533 0.30465 0.0
C3825 C 0.26311 0.96084 0.29158 0.0
C3826 C 0.2704 0.94218 0.30919 0.0
C3827 C 0.28218 0.93837 0.30046 0.0
C3828 C 0.28458 0.94613 0.28741 0.0
C3829 C 0.27501 0.95732 0.28312 0.0
C3830 C 0.26745 0.93428 0.32323 0.0
C3831 C 0.29703 0.94238 0.27783 0.0
H3832 H 0.31925 0.91771 0.32911 0.0
H3833 H 0.29068 0.88861 0.30456 0.0
H3834 H 0.30945 0.95033 0.3097 0.0
H3835 H 0.30034 0.94808 0.32648 0.0
H3836 H 0.31916 0.94314 0.32544 0.0
H3837 H 0.27345 0.89696 0.28717 0.0
H3838 H 0.26418 0.91179 0.29564 0.0
H3839 H 0.27544 0.91531 0.28049 0.0
H3840 H 0.25198 0.95599 0.31136 0.0
H3841 H 0.27668 0.96309 0.27301 0.0
H3842 H 0.27721 0.93481 0.33066 0.0
H3843 H 0.26505 0.92261 0.32089 0.0
H3844 H 0.25813 0.93892 0.32902 0.0
H3845 H 0.30743 0.94259 0.28433 0.0
H3846 H 0.29798 0.95001 0.26854 0.0
H3847 H 0.29546 0.93116 0.27344 0.0
C3848 C 0.74108 0.12004 0.70419 0.0
C3849 C 0.73183 0.1203 0.6917 0.0
C3850 C 0.74549 0.10682 0.71045 0.0
C3851 C 0.74058 0.09347 0.70407 0.0
C3852 C 0.73201 0.09364 0.69094 0.0
C3853 C 0.72772 0.10703 0.68494 0.0
C3854 C 0.75465 0.10717 0.72443 0.0
C3855 C 0.72659 0.07967 0.68374 0.0
C3856 C 0.75697 0.05824 0.71894 0.0
C3857 C 0.74676 0.05422 0.72926 0.0
C3858 C 0.75504 0.07084 0.71038 0.0
C3859 C 0.74262 0.07958 0.71224 0.0
C3860 C 0.73215 0.07533 0.72241 0.0
C3861 C 0.73434 0.06276 0.73073 0.0
C3862 C 0.76639 0.07499 0.6996 0.0
C3863 C 0.71874 0.08426 0.72476 0.0
H3864 H 0.74458 0.13023 0.70932 0.0
H3865 H 0.72051 0.10707 0.67534 0.0
H3866 H 0.74798 0.10343 0.73359 0.0
H3867 H 0.76392 0.09963 0.72367 0.0
H3868 H 0.75896 0.11827 0.72707 0.0
H3869 H 0.72193 0.08154 0.67259 0.0
H3870 H 0.73552 0.07172 0.68306 0.0
H3871 H 0.71803 0.07466 0.69042 0.0
H3872 H 0.7666 0.05172 0.71773 0.0
H3873 H 0.72631 0.05974 0.73859 0.0
H3874 H 0.77169 0.08546 0.70298 0.0
H3875 H 0.76122 0.07665 0.68864 0.0
H3876 H 0.7749 0.06659 0.69875 0.0
H3877 H 0.72196 0.09533 0.72871 0.0
H3878 H 0.71145 0.07925 0.73281 0.0
H3879 H 0.71249 0.08555 0.7143 0.0
C3880 C 0.70441 0.9162 0.28311 0.0
C3881 C 0.69492 0.91715 0.29474 0.0
C3882 C 0.70933 0.92878 0.276 0.0
C3883 C 0.70453 0.94264 0.28052 0.0
C3884 C 0.69481 0.94365 0.29213 0.0
C3885 C 0.69018 0.93091 0.29913 0.0
C3886 C 0.71982 0.92724 0.26379 0.0
C3887 C 0.68934 0.9582 0.29721 0.0
C3888 C 0.72754 0.97625 0.27267 0.0
C3889 C 0.72021 0.98213 0.2604 0.0
C3890 C 0.72266 0.96334 0.27917 0.0
C3891 C 0.71002 0.95613 0.27342 0.0
C3892 C 0.70255 0.96193 0.26107 0.0
C3893 C 0.70776 0.9748 0.25468 0.0
C3894 C 0.73099 0.95749 0.29231 0.0
C3895 C 0.68899 0.95459 0.25464 0.0
H3896 H 0.70823 0.90561 0.27976 0.0
H3897 H 0.68269 0.9317 0.30797 0.0
H3898 H 0.71529 0.93234 0.25372 0.0
H3899 H 0.73017 0.93306 0.26674 0.0
H3900 H 0.72226 0.91568 0.26136 0.0
H3901 H 0.6815 0.95709 0.30611 0.0
H3902 H 0.69862 0.96515 0.3012 0.0
H3903 H 0.68396 0.96396 0.28795 0.0
H3904 H 0.73699 0.98183 0.27743 0.0
H3905 H 0.70209 0.97906 0.24513 0.0
H3906 H 0.73428 0.94611 0.29021 0.0
H3907 H 0.72392 0.95731 0.30187 0.0
H3908 H 0.74089 0.96411 0.29515 0.0
H3909 H 0.69143 0.94327 0.2513 0.0
H3910 H 0.68443 0.96047 0.24501 0.0
H3911 H 0.68056 0.95391 0.263 0.0
C3912 C 0.61508 0.22367 0.30874 0.0
C3913 C 0.61537 0.21434 0.32083 0.0
C3914 C 0.60187 0.22857 0.30249 0.0
C3915 C 0.58852 0.2241 0.30845 0.0
C3916 C 0.58875 0.21529 0.3211 0.0
C3917 C 0.60213 0.21049 0.32709 0.0
C3918 C 0.60218 0.23794 0.28902 0.0
C3919 C 0.57482 0.21026 0.32785 0.0
C3920 C 0.55348 0.2422 0.29433 0.0
C3921 C 0.54868 0.23231 0.28342 0.0
C3922 C 0.5663 0.23963 0.30282 0.0
C3923 C 0.57447 0.22689 0.30029 0.0
C3924 C 0.56944 0.21677 0.28952 0.0
C3925 C 0.55669 0.21958 0.28129 0.0
C3926 C 0.57126 0.25064 0.31427 0.0
C3927 C 0.5777 0.20303 0.28641 0.0
H3928 H 0.62522 0.227 0.30399 0.0
H3929 H 0.60214 0.20321 0.33636 0.0
H3930 H 0.59778 0.23161 0.27947 0.0
H3931 H 0.59518 0.24757 0.29029 0.0
H3932 H 0.61337 0.24175 0.28664 0.0
H3933 H 0.57681 0.20518 0.33869 0.0
H3934 H 0.56734 0.21953 0.32911 0.0
H3935 H 0.56921 0.20213 0.32055 0.0
H3936 H 0.5474 0.25206 0.29606 0.0
H3937 H 0.55308 0.21176 0.27299 0.0
H3938 H 0.58185 0.25552 0.31129 0.0
H3939 H 0.57299 0.24522 0.32495 0.0
H3940 H 0.56331 0.25952 0.31552 0.0
H3941 H 0.58875 0.20589 0.28274 0.0
H3942 H 0.57215 0.1961 0.27789 0.0
H3943 H 0.57905 0.19652 0.29651 0.0
C3944 C 0.29813 0.09188 0.3111 0.0
C3945 C 0.29308 0.10391 0.31888 0.0
C3946 C 0.28931 0.07944 0.30863 0.0
C3947 C 0.27499 0.07909 0.31383 0.0
C3948 C 0.26973 0.09124 0.3215 0.0
C3949 C 0.27887 0.10342 0.32406 0.0
C3950 C 0.29535 0.06664 0.3005 0.0
C3951 C 0.25443 0.09137 0.32698 0.0
C3952 C 0.2492 0.05176 0.29501 0.0
C3953 C 0.24925 0.04028 0.30502 0.0
C3954 C 0.25708 0.06469 0.29798 0.0
C3955 C 0.2655 0.06601 0.31114 0.0
C3956 C 0.26532 0.05457 0.32145 0.0
C3957 C 0.25705 0.04189 0.31832 0.0
C3958 C 0.25672 0.07673 0.28683 0.0
C3959 C 0.27432 0.05548 0.3355 0.0
H3960 H 0.30897 0.09219 0.30684 0.0
H3961 H 0.27491 0.11249 0.33033 0.0
H3962 H 0.29465 0.05667 0.30724 0.0
H3963 H 0.28879 0.06457 0.29032 0.0
H3964 H 0.30687 0.06844 0.29762 0.0
H3965 H 0.25186 0.10183 0.33241 0.0
H3966 H 0.24649 0.0895 0.31775 0.0
H3967 H 0.25291 0.0824 0.33485 0.0
H3968 H 0.24308 0.05052 0.28475 0.0
H3969 H 0.25722 0.03292 0.32596 0.0
H3970 H 0.26735 0.07742 0.28149 0.0
H3971 H 0.2549 0.08741 0.29215 0.0
H3972 H 0.24806 0.07487 0.27825 0.0
H3973 H 0.28604 0.05615 0.33301 0.0
H3974 H 0.27253 0.04591 0.34262 0.0
H3975 H 0.27172 0.06551 0.34164 0.0
C3976 C 0.40078 0.78869 0.3364 0.0
C3977 C 0.39862 0.80337 0.33294 0.0
C3978 C 0.41284 0.78118 0.33129 0.0
C3979 C 0.42317 0.78864 0.32285 0.0
C3980 C 0.42112 0.80356 0.31954 0.0
C3981 C 0.40876 0.81068 0.32447 0.0
C3982 C 0.41441 0.76521 0.33475 0.0
C3983 C 0.43203 0.81201 0.31088 0.0
C3984 C 0.46107 0.7727 0.3207 0.0
C3985 C 0.46063 0.76662 0.30663 0.0
C3986 C 0.449 0.77998 0.32609 0.0
C3987 C 0.43605 0.78084 0.31735 0.0
C3988 C 0.43546 0.77441 0.30324 0.0
C3989 C 0.44783 0.76755 0.29799 0.0
C3990 C 0.45021 0.78699 0.34103 0.0
C3991 C 0.42177 0.77474 0.29371 0.0
H3992 H 0.39286 0.78302 0.34287 0.0
H3993 H 0.40711 0.82207 0.32188 0.0
H3994 H 0.41485 0.7588 0.32447 0.0
H3995 H 0.42477 0.76341 0.34098 0.0
H3996 H 0.4053 0.76093 0.34121 0.0
H3997 H 0.42914 0.82367 0.30973 0.0
H3998 H 0.44299 0.81136 0.31626 0.0
H3999 H 0.43277 0.80716 0.29982 0.0
H4000 H 0.47103 0.77211 0.3273 0.0
H4001 H 0.44747 0.76272 0.28717 0.0
H4002 H 0.44181 0.78236 0.34814 0.0
H4003 H 0.44818 0.79885 0.34012 0.0
H4004 H 0.46108 0.78545 0.3464 0.0
H4005 H 0.41253 0.76995 0.29961 0.0
H4006 H 0.4229 0.76867 0.2833 0.0
H4007 H 0.41897 0.78618 0.29113 0.0
C4008 C 0.31631 0.93217 0.72367 0.0
C4009 C 0.33021 0.92694 0.7274 0.0
C4010 C 0.31046 0.94404 0.73115 0.0
C4011 C 0.31872 0.95099 0.74258 0.0
C4012 C 0.33279 0.94587 0.74633 0.0
C4013 C 0.33832 0.93389 0.73877 0.0
C4014 C 0.29539 0.94912 0.72683 0.0
C4015 C 0.34197 0.95299 0.7584 0.0
C4016 C 0.30714 0.98941 0.75249 0.0
C4017 C 0.29845 0.98687 0.76454 0.0
C4018 C 0.31423 0.97792 0.74556 0.0
C4019 C 0.31251 0.9635 0.7507 0.0
C4020 C 0.30423 0.96094 0.76321 0.0
C4021 C 0.29738 0.97265 0.77001 0.0
C4022 C 0.32312 0.98116 0.73238 0.0
C4023 C 0.30206 0.94574 0.76903 0.0
H4024 H 0.31001 0.92707 0.71479 0.0
H4025 H 0.34896 0.92983 0.74195 0.0
H4026 H 0.28826 0.94851 0.73634 0.0
H4027 H 0.29584 0.96068 0.72339 0.0
H4028 H 0.29033 0.94251 0.71777 0.0
H4029 H 0.35287 0.948 0.7597 0.0
H4030 H 0.34343 0.96478 0.75616 0.0
H4031 H 0.33637 0.95207 0.7689 0.0
H4032 H 0.30807 1.00034 0.74818 0.0
H4033 H 0.29066 0.97051 0.77927 0.0
H4034 H 0.31781 0.97605 0.72254 0.0
H4035 H 0.33409 0.9764 0.73374 0.0
H4036 H 0.32434 0.99304 0.73044 0.0
H4037 H 0.29587 0.93901 0.76081 0.0
H4038 H 0.29606 0.94568 0.77935 0.0
H4039 H 0.31272 0.94047 0.77102 0.0
C4040 C 0.60117 0.81487 0.71476 0.0
C4041 C 0.60922 0.80738 0.70451 0.0
C4042 C 0.59064 0.80763 0.72283 0.0
C4043 C 0.58834 0.79244 0.7208 0.0
C4044 C 0.59614 0.7849 0.71012 0.0
C4045 C 0.60643 0.79251 0.70199 0.0
C4046 C 0.58238 0.81614 0.73393 0.0
C4047 C 0.59414 0.76869 0.7078 0.0
C4048 C 0.57534 0.77527 0.75542 0.0
C4049 C 0.5603 0.77437 0.75265 0.0
C4050 C 0.58472 0.78005 0.74468 0.0
C4051 C 0.57885 0.78441 0.73094 0.0
C4052 C 0.56373 0.7827 0.72779 0.0
C4053 C 0.5546 0.77753 0.73869 0.0
C4054 C 0.60081 0.78136 0.74839 0.0
C4055 C 0.55704 0.78738 0.71335 0.0
H4056 H 0.60323 0.82642 0.71656 0.0
H4057 H 0.61272 0.78673 0.69407 0.0
H4058 H 0.57052 0.81399 0.73244 0.0
H4059 H 0.58567 0.8126 0.74509 0.0
H4060 H 0.58441 0.82807 0.73314 0.0
H4061 H 0.59979 0.76476 0.69804 0.0
H4062 H 0.59854 0.76285 0.71751 0.0
H4063 H 0.58242 0.76577 0.70656 0.0
H4064 H 0.57973 0.77272 0.76622 0.0
H4065 H 0.54293 0.77694 0.73662 0.0
H4066 H 0.60395 0.79303 0.74957 0.0
H4067 H 0.60723 0.77672 0.73949 0.0
H4068 H 0.60382 0.77573 0.75873 0.0
H4069 H 0.55708 0.79946 0.71286 0.0
H4070 H 0.54564 0.78337 0.71179 0.0
H4071 H 0.56349 0.7834 0.70417 0.0
C4072 C 0.43347 0.22082 0.71977 0.0
C4073 C 0.4254 0.22681 0.70808 0.0
C4074 C 0.44724 0.22652 0.72405 0.0
C4075 C 0.45316 0.23851 0.71645 0.0
C4076 C 0.445 0.24472 0.70475 0.0
C4077 C 0.43125 0.23881 0.70071 0.0
C4078 C 0.45554 0.21961 0.73664 0.0
C4079 C 0.45092 0.25745 0.69633 0.0
C4080 C 0.48437 0.25916 0.73608 0.0
C4081 C 0.49656 0.25241 0.73034 0.0
C4082 C 0.47017 0.25514 0.7313 0.0
C4083 C 0.46809 0.24415 0.72047 0.0
C4084 C 0.48036 0.23789 0.71408 0.0
C4085 C 0.49441 0.24207 0.7191 0.0
C4086 C 0.45739 0.26213 0.73836 0.0
C4087 C 0.47865 0.22624 0.70242 0.0
H4088 H 0.42898 0.2117 0.72566 0.0
H4089 H 0.42521 0.2434 0.69153 0.0
H4090 H 0.46592 0.2152 0.73281 0.0
H4091 H 0.45831 0.22792 0.74515 0.0
H4092 H 0.44928 0.21062 0.74167 0.0
H4093 H 0.44298 0.26143 0.68791 0.0
H4094 H 0.4539 0.26658 0.70388 0.0
H4095 H 0.46097 0.25422 0.69086 0.0
H4096 H 0.48587 0.26711 0.74481 0.0
H4097 H 0.50373 0.23682 0.71455 0.0
H4098 H 0.45154 0.25388 0.74485 0.0
H4099 H 0.44957 0.2662 0.72991 0.0
H4100 H 0.46079 0.27133 0.74569 0.0
H4101 H 0.4737 0.2163 0.70711 0.0
H4102 H 0.48922 0.2233 0.69776 0.0
H4103 H 0.47123 0.22994 0.69345 0.0
C4104 C 0.68756 0.74145 0.10781 0.0
C4105 C 0.69228 0.72707 0.1097 0.0
C4106 C 0.69299 0.7503 0.0967 0.0
C4107 C 0.70319 0.74459 0.08704 0.0
C4108 C 0.70785 0.73005 0.08874 0.0
C4109 C 0.70248 0.72154 0.1001 0.0
C4110 C 0.68787 0.76581 0.09538 0.0
C4111 C 0.71861 0.72348 0.07858 0.0
C4112 C 0.70802 0.76278 0.05023 0.0
C4113 C 0.72121 0.77041 0.0526 0.0
C4114 C 0.70198 0.75439 0.06136 0.0
C4115 C 0.70916 0.75385 0.07526 0.0
C4116 C 0.72229 0.76185 0.07779 0.0
C4117 C 0.72822 0.76991 0.06639 0.0
C4118 C 0.68812 0.74581 0.05812 0.0
C4119 C 0.73015 0.76181 0.09252 0.0
H4120 H 0.67952 0.74582 0.11495 0.0
H4121 H 0.70646 0.71058 0.10157 0.0
H4122 H 0.69733 0.77344 0.09627 0.0
H4123 H 0.68254 0.76748 0.0845 0.0
H4124 H 0.68008 0.7687 0.1039 0.0
H4125 H 0.72066 0.71182 0.08096 0.0
H4126 H 0.71452 0.72438 0.0671 0.0
H4127 H 0.7291 0.72957 0.0795 0.0
H4128 H 0.70267 0.76304 0.03954 0.0
H4129 H 0.73832 0.77595 0.06828 0.0
H4130 H 0.6797 0.74888 0.06592 0.0
H4131 H 0.69014 0.73401 0.05956 0.0
H4132 H 0.68374 0.74759 0.04684 0.0
H4133 H 0.72269 0.76526 0.10112 0.0
H4134 H 0.73986 0.76916 0.0929 0.0
H4135 H 0.73369 0.75062 0.0952 0.0
C4136 C 0.29679 0.71692 0.09705 0.0
C4137 C 0.30569 0.7046 0.09733 0.0
C4138 C 0.29113 0.72253 0.08383 0.0
C4139 C 0.29433 0.71563 0.07046 0.0
C4140 C 0.30258 0.70271 0.07071 0.0
C4141 C 0.3082 0.69739 0.0841 0.0
C4142 C 0.2824 0.73633 0.08413 0.0
C4143 C 0.30619 0.69494 0.05676 0.0
C4144 C 0.27411 0.72901 0.03593 0.0
C4145 C 0.28402 0.73943 0.03087 0.0
C4146 C 0.27741 0.72081 0.04859 0.0
C4147 C 0.29089 0.72312 0.05633 0.0
C4148 C 0.30107 0.73325 0.05091 0.0
C4149 C 0.29753 0.74119 0.03831 0.0
C4150 C 0.26632 0.71 0.05393 0.0
C4151 C 0.31558 0.7361 0.0587 0.0
H4152 H 0.29446 0.7224 0.1072 0.0
H4153 H 0.31511 0.68793 0.0841 0.0
H4154 H 0.28879 0.74537 0.07936 0.0
H4155 H 0.27223 0.73501 0.07739 0.0
H4156 H 0.27956 0.7395 0.09538 0.0
H4157 H 0.31074 0.68398 0.05886 0.0
H4158 H 0.29636 0.69375 0.04948 0.0
H4159 H 0.31431 0.70148 0.05086 0.0
H4160 H 0.26365 0.72758 0.03028 0.0
H4161 H 0.30537 0.74909 0.03445 0.0
H4162 H 0.26208 0.71389 0.06443 0.0
H4163 H 0.27145 0.69931 0.05602 0.0
H4164 H 0.25703 0.70843 0.04601 0.0
H4165 H 0.31384 0.74051 0.0698 0.0
H4166 H 0.32249 0.74398 0.05279 0.0
H4167 H 0.32161 0.72579 0.06001 0.0
C4168 C 0.33133 0.30953 0.11708 0.0
C4169 C 0.32572 0.32208 0.12349 0.0
C4170 C 0.32519 0.30375 0.10401 0.0
C4171 C 0.31311 0.31065 0.09716 0.0
C4172 C 0.3073 0.32323 0.10365 0.0
C4173 C 0.31367 0.3288 0.11671 0.0
C4174 C 0.33176 0.29034 0.09743 0.0
C4175 C 0.29437 0.33085 0.09675 0.0
C4176 C 0.30731 0.30279 0.05658 0.0
C4177 C 0.29692 0.29144 0.05657 0.0
C4178 C 0.31231 0.30948 0.06967 0.0
C4179 C 0.30676 0.30476 0.0831 0.0
C4180 C 0.29574 0.29383 0.0831 0.0
C4181 C 0.29096 0.2873 0.06985 0.0
C4182 C 0.32401 0.32115 0.06918 0.0
C4183 C 0.28945 0.28857 0.09716 0.0
H4184 H 0.34072 0.30437 0.12215 0.0
H4185 H 0.30913 0.33839 0.12169 0.0
H4186 H 0.32338 0.28158 0.09612 0.0
H4187 H 0.33569 0.29286 0.0864 0.0
H4188 H 0.34101 0.28615 0.10421 0.0
H4189 H 0.29101 0.34039 0.10328 0.0
H4190 H 0.29701 0.33461 0.08566 0.0
H4191 H 0.28501 0.32314 0.09552 0.0
H4192 H 0.31198 0.30611 0.04641 0.0
H4193 H 0.28291 0.27857 0.06998 0.0
H4194 H 0.33415 0.31717 0.07461 0.0
H4195 H 0.32069 0.331 0.07523 0.0
H4196 H 0.32645 0.32431 0.05783 0.0
H4197 H 0.29798 0.28296 0.10378 0.0
H4198 H 0.28014 0.28088 0.09523 0.0
H4199 H 0.28575 0.29793 0.10372 0.0
C4200 C 0.70477 0.30744 0.10235 0.0
C4201 C 0.70741 0.3219 0.10681 0.0
C4202 C 0.71149 0.30164 0.09013 0.0
C4203 C 0.7209 0.31059 0.08203 0.0
C4204 C 0.72364 0.32519 0.08651 0.0
C4205 C 0.71696 0.33064 0.09894 0.0
C4206 C 0.70848 0.28594 0.08586 0.0
C4207 C 0.73342 0.33514 0.07803 0.0
C4208 C 0.74725 0.29225 0.05685 0.0
C4209 C 0.73956 0.29267 0.0434 0.0
C4210 C 0.74135 0.29809 0.06952 0.0
C4211 C 0.72754 0.30473 0.06864 0.0
C4212 C 0.71988 0.30545 0.05502 0.0
C4213 C 0.72593 0.29929 0.04259 0.0
C4214 C 0.74976 0.2969 0.08388 0.0
C4215 C 0.70525 0.31265 0.05357 0.0
H4216 H 0.69752 0.30063 0.10854 0.0
H4217 H 0.71893 0.34186 0.10232 0.0
H4218 H 0.70312 0.2854 0.07485 0.0
H4219 H 0.71885 0.27997 0.08529 0.0
H4220 H 0.70138 0.28028 0.09367 0.0
H4221 H 0.73457 0.34615 0.08305 0.0
H4222 H 0.74438 0.33035 0.07732 0.0
H4223 H 0.72897 0.33628 0.0667 0.0
H4224 H 0.75772 0.287 0.05752 0.0
H4225 H 0.72007 0.29979 0.03216 0.0
H4226 H 0.74333 0.29044 0.09166 0.0
H4227 H 0.75161 0.30787 0.08879 0.0
H4228 H 0.76045 0.29162 0.08266 0.0
H4229 H 0.69726 0.30677 0.06027 0.0
H4230 H 0.70099 0.31283 0.0421 0.0
H4231 H 0.70606 0.32401 0.05775 0.0
C4232 C 0.71747 0.32097 0.91443 0.0
C4233 C 0.72452 0.33167 0.90621 0.0
C4234 C 0.72404 0.31524 0.9272 0.0
C4235 C 0.73813 0.32013 0.93184 0.0
C4236 C 0.74539 0.33078 0.92354 0.0
C4237 C 0.73849 0.33648 0.91093 0.0
C4238 C 0.71586 0.30398 0.93577 0.0
C4239 C 0.76046 0.33623 0.92802 0.0
C4240 C 0.75008 0.31592 0.97181 0.0
C4241 C 0.75849 0.30329 0.97146 0.0
C4242 C 0.74332 0.32143 0.95905 0.0
C4243 C 0.74517 0.31428 0.9455 0.0
C4244 C 0.75376 0.30159 0.94505 0.0
C4245 C 0.76021 0.29619 0.95803 0.0
C4246 C 0.73412 0.33486 0.96008 0.0
C4247 C 0.75619 0.29375 0.93084 0.0
H4248 H 0.70682 0.31694 0.91083 0.0
H4249 H 0.744 0.34489 0.90488 0.0
H4250 H 0.72216 0.29377 0.93646 0.0
H4251 H 0.71451 0.30794 0.9471 0.0
H4252 H 0.70494 0.30141 0.9308 0.0
H4253 H 0.76486 0.34414 0.92012 0.0
H4254 H 0.76024 0.34158 0.93889 0.0
H4255 H 0.76801 0.32694 0.92901 0.0
H4256 H 0.7486 0.32143 0.98213 0.0
H4257 H 0.76675 0.28647 0.95763 0.0
H4258 H 0.72289 0.3324 0.9559 0.0
H4259 H 0.73857 0.34362 0.95316 0.0
H4260 H 0.7336 0.33904 0.97144 0.0
H4261 H 0.74562 0.28997 0.92589 0.0
H4262 H 0.76337 0.2842 0.93228 0.0
H4263 H 0.76117 0.30134 0.92298 0.0
C4264 C 0.72713 0.72081 0.93421 0.0
C4265 C 0.73647 0.7124 0.92588 0.0
C4266 C 0.73244 0.72934 0.94603 0.0
C4267 C 0.74755 0.72979 0.94951 0.0
C4268 C 0.75706 0.72119 0.94135 0.0
C4269 C 0.75141 0.71253 0.9297 0.0
C4270 C 0.72187 0.73827 0.95448 0.0
C4271 C 0.77325 0.72148 0.94463 0.0
C4272 C 0.7583 0.76534 0.96828 0.0
C4273 C 0.75849 0.76138 0.98301 0.0
C4274 C 0.75595 0.7549 0.9572 0.0
C4275 C 0.7533 0.74018 0.96096 0.0
C4276 C 0.75435 0.73599 0.97583 0.0
C4277 C 0.75707 0.74668 0.98672 0.0
C4278 C 0.75528 0.75984 0.94151 0.0
C4279 C 0.75143 0.72047 0.98033 0.0
H4280 H 0.71564 0.72111 0.93126 0.0
H4281 H 0.75873 0.70593 0.92354 0.0
H4282 H 0.72338 0.73626 0.96636 0.0
H4283 H 0.72398 0.75004 0.95266 0.0
H4284 H 0.71036 0.73577 0.95121 0.0
H4285 H 0.77906 0.71342 0.93797 0.0
H4286 H 0.77771 0.73251 0.9424 0.0
H4287 H 0.77555 0.71923 0.95635 0.0
H4288 H 0.75942 0.77675 0.96544 0.0
H4289 H 0.75704 0.74368 0.99814 0.0
H4290 H 0.74383 0.75951 0.93733 0.0
H4291 H 0.76156 0.75244 0.93457 0.0
H4292 H 0.7596 0.77113 0.94031 0.0
H4293 H 0.73963 0.71799 0.9789 0.0
H4294 H 0.75474 0.71855 0.99191 0.0
H4295 H 0.75725 0.71275 0.97332 0.0
C4296 C 0.32324 0.70344 0.90668 0.0
C4297 C 0.33154 0.71015 0.89601 0.0
C4298 C 0.31807 0.71151 0.91848 0.0
C4299 C 0.32096 0.72671 0.9194 0.0
C4300 C 0.32915 0.73355 0.90848 0.0
C4301 C 0.33449 0.72515 0.89703 0.0
C4302 C 0.30966 0.70374 0.93004 0.0
C4303 C 0.33216 0.74976 0.90884 0.0
C4304 C 0.2959 0.74907 0.94271 0.0
C4305 C 0.30455 0.75151 0.95538 0.0
C4306 C 0.3012 0.74129 0.9308 0.0
C4307 C 0.31538 0.73546 0.93175 0.0
C4308 C 0.32416 0.73789 0.94456 0.0
C4309 C 0.3187 0.74606 0.95614 0.0
C4310 C 0.29161 0.73929 0.91723 0.0
C4311 C 0.3392 0.7316 0.94614 0.0
H4312 H 0.32105 0.69182 0.90594 0.0
H4313 H 0.34082 0.73035 0.8887 0.0
H4314 H 0.3151 0.70553 0.9409 0.0
H4315 H 0.29858 0.70827 0.93056 0.0
H4316 H 0.30868 0.69183 0.92794 0.0
H4317 H 0.33836 0.75347 0.89932 0.0
H4318 H 0.32176 0.75574 0.90898 0.0
H4319 H 0.33845 0.75278 0.91897 0.0
H4320 H 0.285 0.7534 0.94209 0.0
H4321 H 0.32532 0.74779 0.96601 0.0
H4322 H 0.28928 0.72754 0.9153 0.0
H4323 H 0.29732 0.74342 0.90758 0.0
H4324 H 0.28112 0.74505 0.918 0.0
H4325 H 0.33855 0.71956 0.94502 0.0
H4326 H 0.3446 0.73439 0.95684 0.0
H4327 H 0.34612 0.7357 0.93733 0.0
C4328 C 0.34793 0.29354 0.92659 0.0
C4329 C 0.34067 0.3064 0.92287 0.0
C4330 C 0.34458 0.28583 0.93924 0.0
C4331 C 0.33387 0.29123 0.94852 0.0
C4332 C 0.3265 0.30421 0.9448 0.0
C4333 C 0.32991 0.31158 0.93195 0.0
C4334 C 0.3525 0.27189 0.94268 0.0
C4335 C 0.31515 0.31042 0.95451 0.0
C4336 C 0.31548 0.26597 0.97517 0.0
C4337 C 0.32313 0.26927 0.98829 0.0
C4338 C 0.31905 0.27281 0.96209 0.0
C4339 C 0.33043 0.28335 0.96216 0.0
C4340 C 0.33835 0.28657 0.97533 0.0
C4341 C 0.33467 0.27941 0.98823 0.0
C4342 C 0.3105 0.26889 0.94824 0.0
C4343 C 0.35044 0.29787 0.9759 0.0
H4344 H 0.35615 0.28944 0.91949 0.0
H4345 H 0.32438 0.32158 0.92914 0.0
H4346 H 0.35857 0.273 0.9533 0.0
H4347 H 0.34455 0.26278 0.94373 0.0
H4348 H 0.36028 0.26899 0.93416 0.0
H4349 H 0.31048 0.32066 0.95012 0.0
H4350 H 0.30618 0.30237 0.95579 0.0
H4351 H 0.32001 0.31268 0.96555 0.0
H4352 H 0.30664 0.25805 0.97518 0.0
H4353 H 0.34046 0.28213 0.99838 0.0
H4354 H 0.31798 0.26531 0.93972 0.0
H4355 H 0.30476 0.27862 0.94399 0.0
H4356 H 0.30232 0.26009 0.94994 0.0
H4357 H 0.35885 0.29504 0.968 0.0
H4358 H 0.35571 0.29891 0.98694 0.0
H4359 H 0.34607 0.30863 0.97267 0.0
C4360 C 0.59485 0.70968 0.20476 0.0
C4361 C 0.60547 0.70032 0.21048 0.0
C4362 C 0.58255 0.71311 0.21272 0.0
C4363 C 0.58101 0.70732 0.22689 0.0
C4364 C 0.59183 0.698 0.23278 0.0
C4365 C 0.60384 0.69447 0.22443 0.0
C4366 C 0.57113 0.72284 0.20591 0.0
C4367 C 0.59078 0.69188 0.24797 0.0
C4368 C 0.55584 0.72763 0.25184 0.0
C4369 C 0.54332 0.71874 0.25118 0.0
C4370 C 0.56829 0.72387 0.24428 0.0
C4371 C 0.5681 0.71108 0.23554 0.0
C4372 C 0.55547 0.70204 0.23487 0.0
C4373 C 0.54329 0.7059 0.24284 0.0
C4374 C 0.58163 0.73363 0.24559 0.0
C4375 C 0.5547 0.68849 0.22545 0.0
H4376 H 0.59606 0.7141 0.19392 0.0
H4377 H 0.61212 0.68732 0.2289 0.0
H4378 H 0.5604 0.71715 0.20559 0.0
H4379 H 0.57005 0.73283 0.21263 0.0
H4380 H 0.57374 0.7261 0.19463 0.0
H4381 H 0.60026 0.68506 0.25107 0.0
H4382 H 0.59009 0.70091 0.25601 0.0
H4383 H 0.58072 0.68517 0.24873 0.0
H4384 H 0.5559 0.73749 0.25841 0.0
H4385 H 0.53355 0.69912 0.2422 0.0
H4386 H 0.58409 0.73821 0.23477 0.0
H4387 H 0.59119 0.72721 0.24927 0.0
H4388 H 0.58026 0.74278 0.25339 0.0
H4389 H 0.55636 0.69143 0.2139 0.0
H4390 H 0.5441 0.68262 0.22614 0.0
H4391 H 0.56352 0.68096 0.22876 0.0
C4392 C 0.32916 0.60679 0.2065 0.0
C4393 C 0.32156 0.61996 0.20673 0.0
C4394 C 0.32536 0.59508 0.21551 0.0
C4395 C 0.31354 0.59644 0.22491 0.0
C4396 C 0.30575 0.60964 0.22514 0.0
C4397 C 0.30988 0.62124 0.21613 0.0
C4398 C 0.33399 0.58123 0.21493 0.0
C4399 C 0.293 0.61151 0.23491 0.0
C4400 C 0.29505 0.56154 0.23751 0.0
C4401 C 0.3008 0.56003 0.25183 0.0
C4402 C 0.299 0.57336 0.22873 0.0
C4403 C 0.30913 0.58393 0.23424 0.0
C4404 C 0.3151 0.58246 0.2486 0.0
C4405 C 0.31082 0.5706 0.25722 0.0
C4406 C 0.29233 0.57451 0.21351 0.0
C4407 C 0.32601 0.59344 0.25486 0.0
H4408 H 0.33804 0.60553 0.19914 0.0
H4409 H 0.30406 0.6314 0.21661 0.0
H4410 H 0.33843 0.57857 0.22598 0.0
H4411 H 0.32678 0.57201 0.21133 0.0
H4412 H 0.34315 0.58205 0.20737 0.0
H4413 H 0.28803 0.62242 0.23379 0.0
H4414 H 0.28454 0.60308 0.23227 0.0
H4415 H 0.29655 0.60997 0.24647 0.0
H4416 H 0.28754 0.5534 0.23301 0.0
H4417 H 0.31526 0.56973 0.26825 0.0
H4418 H 0.30097 0.57423 0.20537 0.0
H4419 H 0.28671 0.58507 0.21225 0.0
H4420 H 0.28437 0.56556 0.21095 0.0
H4421 H 0.33561 0.59406 0.24786 0.0
H4422 H 0.32977 0.59069 0.26614 0.0
H4423 H 0.32114 0.60443 0.255 0.0
C4424 C 0.43182 0.32413 0.22515 0.0
C4425 C 0.41768 0.31908 0.22781 0.0
C4426 C 0.44413 0.3165 0.23026 0.0
C4427 C 0.44231 0.30344 0.23821 0.0
C4428 C 0.42809 0.29874 0.24162 0.0
C4429 C 0.41599 0.30659 0.2364 0.0
C4430 C 0.45906 0.32194 0.22636 0.0
C4431 C 0.4256 0.28492 0.25009 0.0
C4432 C 0.46971 0.27343 0.23317 0.0
C4433 C 0.47804 0.27393 0.2463 0.0
C4434 C 0.45828 0.28307 0.23043 0.0
C4435 C 0.45495 0.29363 0.24106 0.0
C4436 C 0.46343 0.29444 0.25427 0.0
C4437 C 0.47491 0.28457 0.25675 0.0
C4438 C 0.44962 0.28177 0.21616 0.0
C4439 C 0.46024 0.30558 0.26585 0.0
H4440 H 0.43331 0.3337 0.21846 0.0
H4441 H 0.40514 0.30275 0.23881 0.0
H4442 H 0.46662 0.32172 0.23604 0.0
H4443 H 0.46352 0.31466 0.21796 0.0
H4444 H 0.45881 0.3332 0.222 0.0
H4445 H 0.41412 0.28366 0.25333 0.0
H4446 H 0.42838 0.27537 0.24329 0.0
H4447 H 0.43277 0.28475 0.26005 0.0
H4448 H 0.47203 0.26534 0.22493 0.0
H4449 H 0.48125 0.28506 0.26691 0.0
H4450 H 0.44989 0.29229 0.21027 0.0
H4451 H 0.43807 0.27921 0.21831 0.0
H4452 H 0.45379 0.27316 0.20891 0.0
H4453 H 0.46036 0.31668 0.26113 0.0
H4454 H 0.46821 0.30528 0.27521 0.0
H4455 H 0.44919 0.30359 0.26996 0.0
C4456 C 0.70598 0.42423 0.19853 0.0
C4457 C 0.6973 0.41463 0.20639 0.0
C4458 C 0.71238 0.43663 0.20521 0.0
C4459 C 0.71026 0.43937 0.22021 0.0
C4460 C 0.70105 0.42999 0.22809 0.0
C4461 C 0.69458 0.41775 0.22103 0.0
C4462 C 0.72192 0.44647 0.19633 0.0
C4463 C 0.69866 0.43243 0.24411 0.0
C4464 C 0.74268 0.45991 0.23678 0.0
C4465 C 0.73784 0.4743 0.23642 0.0
C4466 C 0.73335 0.44828 0.23272 0.0
C4467 C 0.71894 0.45117 0.22778 0.0
C4468 C 0.71372 0.46563 0.22831 0.0
C4469 C 0.72325 0.47707 0.23277 0.0
C4470 C 0.7393 0.43303 0.23268 0.0
C4471 C 0.69848 0.46918 0.22303 0.0
H4472 H 0.70794 0.42191 0.18716 0.0
H4473 H 0.68789 0.41029 0.22711 0.0
H4474 H 0.71872 0.458 0.19766 0.0
H4475 H 0.7334 0.4456 0.20029 0.0
H4476 H 0.72131 0.44363 0.18453 0.0
H4477 H 0.68987 0.42527 0.2482 0.0
H4478 H 0.70886 0.43015 0.25044 0.0
H4479 H 0.69589 0.44395 0.24625 0.0
H4480 H 0.75398 0.45781 0.23966 0.0
H4481 H 0.71959 0.48824 0.23236 0.0
H4482 H 0.74082 0.42943 0.22126 0.0
H4483 H 0.73154 0.42529 0.23762 0.0
H4484 H 0.74994 0.43239 0.23873 0.0
H4485 H 0.69778 0.46842 0.21094 0.0
H4486 H 0.69535 0.48034 0.22632 0.0
H4487 H 0.6905 0.46124 0.2273 0.0
C4488 C 0.61563 0.31844 0.81629 0.0
C4489 C 0.6247 0.32751 0.80816 0.0
C4490 C 0.60326 0.31154 0.80984 0.0
C4491 C 0.59996 0.31344 0.79477 0.0
C4492 C 0.60883 0.3228 0.78655 0.0
C4493 C 0.62097 0.32983 0.79335 0.0
C4494 C 0.59399 0.30179 0.81908 0.0
C4495 C 0.60582 0.32499 0.77043 0.0
C4496 C 0.57939 0.28124 0.77759 0.0
C4497 C 0.56506 0.28623 0.7769 0.0
C4498 C 0.59092 0.29029 0.7826 0.0
C4499 C 0.58802 0.3046 0.78747 0.0
C4500 C 0.57361 0.30989 0.78629 0.0
C4501 C 0.56228 0.30066 0.78084 0.0
C4502 C 0.60613 0.28429 0.78328 0.0
C4503 C 0.57001 0.32497 0.7916 0.0
H4504 H 0.6184 0.31633 0.82765 0.0
H4505 H 0.62761 0.33706 0.78698 0.0
H4506 H 0.58234 0.30461 0.8176 0.0
H4507 H 0.59511 0.29029 0.81556 0.0
H4508 H 0.5971 0.30263 0.83087 0.0
H4509 H 0.61317 0.33332 0.76576 0.0
H4510 H 0.60725 0.31454 0.76453 0.0
H4511 H 0.5944 0.32833 0.76839 0.0
H4512 H 0.58152 0.27006 0.77452 0.0
H4513 H 0.55116 0.30444 0.7805 0.0
H4514 H 0.6098 0.28297 0.79484 0.0
H4515 H 0.61383 0.29199 0.77818 0.0
H4516 H 0.60676 0.27355 0.7777 0.0
H4517 H 0.57143 0.32545 0.80366 0.0
H4518 H 0.55866 0.32799 0.78858 0.0
H4519 H 0.57755 0.33319 0.78707 0.0
C4520 C 0.7525 0.61365 0.82859 0.0
C4521 C 0.73894 0.61884 0.82358 0.0
C4522 C 0.75903 0.60173 0.82179 0.0
C4523 C 0.75182 0.59476 0.80971 0.0
C4524 C 0.73823 0.60004 0.8045 0.0
C4525 C 0.73199 0.612 0.81145 0.0
C4526 C 0.77353 0.59646 0.82767 0.0
C4527 C 0.73017 0.59296 0.79164 0.0
C4528 C 0.77156 0.57086 0.78287 0.0
C4529 C 0.76725 0.55682 0.78714 0.0
C4530 C 0.76715 0.5833 0.79049 0.0
C4531 C 0.75821 0.5817 0.80269 0.0
C4532 C 0.75449 0.56754 0.80751 0.0
C4533 C 0.75906 0.5553 0.79971 0.0
C4534 C 0.77148 0.59818 0.78505 0.0
C4535 C 0.74502 0.56533 0.82048 0.0
H4536 H 0.7579 0.61873 0.83804 0.0
H4537 H 0.72165 0.61605 0.80732 0.0
H4538 H 0.77236 0.58515 0.83171 0.0
H4539 H 0.78148 0.59623 0.81884 0.0
H4540 H 0.77803 0.60344 0.83673 0.0
H4541 H 0.71981 0.59849 0.78879 0.0
H4542 H 0.73709 0.59309 0.78195 0.0
H4543 H 0.72771 0.58138 0.79411 0.0
H4544 H 0.77789 0.57219 0.77319 0.0
H4545 H 0.7557 0.54453 0.80316 0.0
H4546 H 0.77611 0.60497 0.79417 0.0
H4547 H 0.7617 0.60381 0.78062 0.0
H4548 H 0.77956 0.59758 0.77634 0.0
H4549 H 0.74943 0.57164 0.83002 0.0
H4550 H 0.7441 0.55368 0.82358 0.0
H4551 H 0.73394 0.56942 0.81788 0.0
C4552 C 0.42402 0.715 0.7939 0.0
C4553 C 0.42386 0.70258 0.80276 0.0
C4554 C 0.43718 0.72186 0.79038 0.0
C4555 C 0.4505 0.71614 0.7958 0.0
C4556 C 0.45046 0.70317 0.80406 0.0
C4557 C 0.43715 0.69659 0.80749 0.0
C4558 C 0.43676 0.73567 0.78152 0.0
C4559 C 0.46442 0.69671 0.81003 0.0
C4560 C 0.48619 0.73112 0.78154 0.0
C4561 C 0.4901 0.74146 0.79236 0.0
C4562 C 0.47334 0.72269 0.78248 0.0
C4563 C 0.46425 0.72472 0.79448 0.0
C4564 C 0.46823 0.73507 0.80545 0.0
C4565 C 0.48108 0.74325 0.80427 0.0
C4566 C 0.46946 0.7117 0.77064 0.0
C4567 C 0.45884 0.7376 0.81843 0.0
H4568 H 0.41383 0.71954 0.78996 0.0
H4569 H 0.43717 0.68709 0.81446 0.0
H4570 H 0.44015 0.74506 0.78858 0.0
H4571 H 0.44452 0.73509 0.77254 0.0
H4572 H 0.42573 0.73779 0.77678 0.0
H4573 H 0.46268 0.68566 0.8146 0.0
H4574 H 0.47254 0.69602 0.80138 0.0
H4575 H 0.46914 0.70387 0.81881 0.0
H4576 H 0.49309 0.72969 0.77231 0.0
H4577 H 0.48397 0.7512 0.8127 0.0
H4578 H 0.45884 0.71444 0.76533 0.0
H4579 H 0.46824 0.7007 0.77544 0.0
H4580 H 0.47779 0.71126 0.76215 0.0
H4581 H 0.44784 0.74103 0.81466 0.0
H4582 H 0.4635 0.74606 0.826 0.0
H4583 H 0.45751 0.72732 0.82458 0.0
C4584 C 0.3037 0.4044 0.83482 0.0
C4585 C 0.31729 0.40198 0.82874 0.0
C4586 C 0.29507 0.41623 0.83047 0.0
C4587 C 0.3002 0.42609 0.81993 0.0
C4588 C 0.31384 0.4237 0.81368 0.0
C4589 C 0.32215 0.41165 0.81807 0.0
C4590 C 0.28053 0.41831 0.83732 0.0
C4591 C 0.31978 0.434 0.80248 0.0
C4592 C 0.27389 0.45134 0.7998 0.0
C4593 C 0.27593 0.46441 0.80767 0.0
C4594 C 0.28152 0.43872 0.80378 0.0
C4595 C 0.29156 0.4392 0.81585 0.0
C4596 C 0.29354 0.45232 0.82392 0.0
C4597 C 0.28566 0.46472 0.81979 0.0
C4598 C 0.27893 0.4249 0.795 0.0
C4599 C 0.30428 0.45338 0.83672 0.0
H4600 H 0.29987 0.39721 0.84325 0.0
H4601 H 0.33248 0.40979 0.81307 0.0
H4602 H 0.28069 0.42864 0.84368 0.0
H4603 H 0.27183 0.41917 0.82872 0.0
H4604 H 0.27771 0.40923 0.84471 0.0
H4605 H 0.3305 0.43055 0.79855 0.0
H4606 H 0.31205 0.43473 0.79298 0.0
H4607 H 0.321 0.44511 0.80726 0.0
H4608 H 0.26633 0.45102 0.79049 0.0
H4609 H 0.28751 0.47482 0.82577 0.0
H4610 H 0.27547 0.41596 0.80226 0.0
H4611 H 0.28918 0.4215 0.79003 0.0
H4612 H 0.2705 0.42622 0.78616 0.0
H4613 H 0.3016 0.44511 0.84502 0.0
H4614 H 0.3044 0.46432 0.84199 0.0
H4615 H 0.31538 0.45106 0.83304 0.0
C4616 C 0.722 0.6144 0.18036 0.0
C4617 C 0.70829 0.61675 0.18612 0.0
C4618 C 0.72993 0.60185 0.18393 0.0
C4619 C 0.72388 0.59129 0.19325 0.0
C4620 C 0.70993 0.59353 0.1989 0.0
C4621 C 0.70237 0.60629 0.19536 0.0
C4622 C 0.74488 0.60001 0.17791 0.0
C4623 C 0.70299 0.58245 0.20869 0.0
C4624 C 0.73836 0.5526 0.19329 0.0
C4625 C 0.7467 0.55248 0.20636 0.0
C4626 C 0.73099 0.56521 0.18878 0.0
C4627 C 0.73224 0.57806 0.19742 0.0
C4628 C 0.74108 0.57811 0.21037 0.0
C4629 C 0.74808 0.56529 0.21473 0.0
C4630 C 0.72151 0.56464 0.17503 0.0
C4631 C 0.74295 0.59163 0.21975 0.0
H4632 H 0.72666 0.62254 0.17331 0.0
H4633 H 0.6917 0.60802 0.1997 0.0
H4634 H 0.75308 0.5993 0.18703 0.0
H4635 H 0.74531 0.58969 0.17159 0.0
H4636 H 0.74799 0.60917 0.17073 0.0
H4637 H 0.69185 0.58555 0.21171 0.0
H4638 H 0.7024 0.57165 0.20318 0.0
H4639 H 0.70975 0.58121 0.21884 0.0
H4640 H 0.73718 0.54267 0.18689 0.0
H4641 H 0.75469 0.56525 0.22474 0.0
H4642 H 0.72482 0.57336 0.16744 0.0
H4643 H 0.71003 0.56664 0.17775 0.0
H4644 H 0.72204 0.55397 0.16931 0.0
H4645 H 0.7467 0.60091 0.21307 0.0
H4646 H 0.75088 0.59009 0.229 0.0
H4647 H 0.73235 0.59466 0.22422 0.0
C4648 C 0.72781 0.43348 0.80911 0.0
C4649 C 0.71723 0.42387 0.80297 0.0
C4650 C 0.73184 0.44634 0.80192 0.0
C4651 C 0.72527 0.44967 0.78817 0.0
C4652 C 0.71473 0.43996 0.78183 0.0
C4653 C 0.71078 0.42727 0.78932 0.0
C4654 C 0.74307 0.45644 0.80911 0.0
C4655 C 0.70752 0.44305 0.76715 0.0
C4656 C 0.72524 0.48919 0.77567 0.0
C4657 C 0.73698 0.48959 0.76628 0.0
C4658 C 0.72134 0.4763 0.78286 0.0
C4659 C 0.72926 0.46342 0.78052 0.0
C4660 C 0.741 0.4637 0.77091 0.0
C4661 C 0.74475 0.47678 0.76397 0.0
C4662 C 0.70885 0.47653 0.79314 0.0
C4663 C 0.74962 0.45018 0.76795 0.0
H4664 H 0.73304 0.4309 0.81952 0.0
H4665 H 0.70242 0.42012 0.78455 0.0
H4666 H 0.75246 0.45783 0.80193 0.0
H4667 H 0.73835 0.46737 0.81072 0.0
H4668 H 0.74711 0.45233 0.81985 0.0
H4669 H 0.69992 0.43416 0.76347 0.0
H4670 H 0.70137 0.45334 0.76771 0.0
H4671 H 0.71588 0.44454 0.75883 0.0
H4672 H 0.71932 0.49908 0.7777 0.0
H4673 H 0.75373 0.47697 0.75662 0.0
H4674 H 0.71275 0.47343 0.80426 0.0
H4675 H 0.7004 0.46841 0.78958 0.0
H4676 H 0.70376 0.48741 0.79374 0.0
H4677 H 0.75467 0.44612 0.77828 0.0
H4678 H 0.75834 0.45216 0.76007 0.0
H4679 H 0.74227 0.4414 0.76354 0.0
C4680 C 0.62282 0.70503 0.84294 0.0
C4681 C 0.63603 0.7086 0.83649 0.0
C4682 C 0.60985 0.71206 0.83881 0.0
C4683 C 0.61003 0.7229 0.82788 0.0
C4684 C 0.62326 0.7264 0.82116 0.0
C4685 C 0.63608 0.71926 0.82557 0.0
C4686 C 0.59598 0.70798 0.84624 0.0
C4687 C 0.62391 0.73786 0.80944 0.0
C4688 C 0.5743 0.73272 0.80838 0.0
C4689 C 0.57064 0.7457 0.8155 0.0
C4690 C 0.58706 0.72521 0.81227 0.0
C4691 C 0.59641 0.73072 0.82364 0.0
C4692 C 0.59276 0.74373 0.83095 0.0
C4693 C 0.57998 0.75106 0.82679 0.0
C4694 C 0.59054 0.71138 0.80418 0.0
C4695 C 0.60242 0.74997 0.84315 0.0
H4696 H 0.62258 0.69666 0.85122 0.0
H4697 H 0.64623 0.72227 0.82065 0.0
H4698 H 0.59162 0.71768 0.85179 0.0
H4699 H 0.58761 0.70424 0.83801 0.0
H4700 H 0.59763 0.69924 0.85442 0.0
H4701 H 0.63495 0.73902 0.80498 0.0
H4702 H 0.61609 0.73507 0.80034 0.0
H4703 H 0.6207 0.74855 0.81392 0.0
H4704 H 0.56712 0.72831 0.79981 0.0
H4705 H 0.57744 0.76115 0.83225 0.0
H4706 H 0.59136 0.70217 0.81193 0.0
H4707 H 0.60125 0.71256 0.79905 0.0
H4708 H 0.58219 0.70857 0.79555 0.0
H4709 H 0.60382 0.74183 0.85196 0.0
H4710 H 0.59796 0.76007 0.84789 0.0
H4711 H 0.61338 0.75249 0.83905 0.0
C4712 C 0.33624 0.59224 0.80239 0.0
C4713 C 0.32817 0.60512 0.80313 0.0
C4714 C 0.33043 0.57961 0.79553 0.0
C4715 C 0.31602 0.57963 0.78965 0.0
C4716 C 0.30776 0.5925 0.79041 0.0
C4717 C 0.31399 0.60511 0.79692 0.0
C4718 C 0.33969 0.5662 0.79471 0.0
C4719 C 0.29223 0.5929 0.78454 0.0
C4720 C 0.3018 0.55083 0.76242 0.0
C4721 C 0.29455 0.54114 0.77155 0.0
C4722 C 0.30934 0.56313 0.76821 0.0
C4723 C 0.30926 0.566 0.78342 0.0
C4724 C 0.30219 0.55609 0.79269 0.0
C4725 C 0.2951 0.54372 0.78668 0.0
C4726 C 0.31712 0.57321 0.75802 0.0
C4727 C 0.30155 0.55888 0.80891 0.0
H4728 H 0.34708 0.5919 0.80734 0.0
H4729 H 0.3077 0.61499 0.79706 0.0
H4730 H 0.33499 0.5574 0.80141 0.0
H4731 H 0.33982 0.56211 0.7833 0.0
H4732 H 0.35108 0.56832 0.79866 0.0
H4733 H 0.28724 0.60373 0.78606 0.0
H4734 H 0.29178 0.59016 0.77273 0.0
H4735 H 0.28557 0.58459 0.79012 0.0
H4736 H 0.30144 0.5489 0.75074 0.0
H4737 H 0.28941 0.53638 0.79383 0.0
H4738 H 0.3285 0.57516 0.76204 0.0
H4739 H 0.31168 0.58392 0.75771 0.0
H4740 H 0.31727 0.56878 0.74672 0.0
H4741 H 0.31269 0.56015 0.8138 0.0
H4742 H 0.29585 0.54996 0.81466 0.0
H4743 H 0.29579 0.56922 0.81089 0.0
C4744 C 0.43978 0.31761 0.83128 0.0
C4745 C 0.42568 0.314 0.82598 0.0
C4746 C 0.45198 0.31018 0.82641 0.0
C4747 C 0.45009 0.29891 0.81588 0.0
C4748 C 0.43593 0.29533 0.81032 0.0
C4749 C 0.42391 0.30288 0.81545 0.0
C4750 C 0.46689 0.31436 0.83259 0.0
C4751 C 0.43347 0.28344 0.79901 0.0
C4752 C 0.48259 0.28898 0.79346 0.0
C4753 C 0.48753 0.27623 0.80031 0.0
C4754 C 0.4704 0.29638 0.79835 0.0
C4755 C 0.46297 0.29103 0.81051 0.0
C4756 C 0.46792 0.27825 0.81758 0.0
C4757 C 0.48011 0.27099 0.81239 0.0
C4758 C 0.46549 0.30996 0.79049 0.0
C4759 C 0.46031 0.27222 0.83063 0.0
H4760 H 0.44131 0.32631 0.83925 0.0
H4761 H 0.41307 0.29985 0.81144 0.0
H4762 H 0.47208 0.30476 0.83776 0.0
H4763 H 0.47395 0.31796 0.82368 0.0
H4764 H 0.4665 0.32326 0.84083 0.0
H4765 H 0.4218 0.28208 0.79568 0.0
H4766 H 0.43973 0.28594 0.78918 0.0
H4767 H 0.43747 0.27293 0.80337 0.0
H4768 H 0.48834 0.29336 0.78433 0.0
H4769 H 0.48372 0.26111 0.81769 0.0
H4770 H 0.46592 0.31939 0.79814 0.0
H4771 H 0.45403 0.3086 0.7865 0.0
H4772 H 0.47231 0.31258 0.78105 0.0
H4773 H 0.4603 0.28054 0.83946 0.0
H4774 H 0.46555 0.26224 0.83496 0.0
H4775 H 0.44879 0.2696 0.82761 0.0
C4776 C 0.32354 0.43161 0.21019 0.0
C4777 C 0.32078 0.41784 0.2162 0.0
C4778 C 0.3166 0.44412 0.21527 0.0
C4779 C 0.30673 0.44291 0.22674 0.0
C4780 C 0.30353 0.429 0.23254 0.0
C4781 C 0.31055 0.41666 0.22718 0.0
C4782 C 0.32033 0.45872 0.20878 0.0
C4783 C 0.29312 0.42723 0.24481 0.0
C4784 C 0.30407 0.47504 0.25267 0.0
C4785 C 0.29066 0.48113 0.24847 0.0
C4786 C 0.30939 0.46275 0.24559 0.0
C4787 C 0.30117 0.4563 0.23388 0.0
C4788 C 0.28774 0.46252 0.22933 0.0
C4789 C 0.28261 0.47487 0.2367 0.0
C4790 C 0.32375 0.45653 0.25084 0.0
C4791 C 0.27874 0.45599 0.21682 0.0
H4792 H 0.3315 0.43271 0.20181 0.0
H4793 H 0.30809 0.40606 0.2317 0.0
H4794 H 0.31028 0.46476 0.20593 0.0
H4795 H 0.32669 0.46538 0.21694 0.0
H4796 H 0.32684 0.45764 0.19884 0.0
H4797 H 0.29082 0.41559 0.24724 0.0
H4798 H 0.29781 0.43254 0.25484 0.0
H4799 H 0.2827 0.43267 0.24207 0.0
H4800 H 0.31045 0.47977 0.26169 0.0
H4801 H 0.27225 0.47949 0.23339 0.0
H4802 H 0.33141 0.45621 0.24176 0.0
H4803 H 0.32211 0.44516 0.25455 0.0
H4804 H 0.3289 0.46295 0.25998 0.0
H4805 H 0.28533 0.45532 0.20693 0.0
H4806 H 0.26885 0.46243 0.21422 0.0
H4807 H 0.27534 0.44472 0.21955 0.0
C4808 C 0.59694 0.30784 0.18953 0.0
C4809 C 0.61081 0.3064 0.19618 0.0
C4810 C 0.58504 0.29953 0.19415 0.0
C4811 C 0.587 0.28959 0.20577 0.0
C4812 C 0.60096 0.28808 0.21255 0.0
C4813 C 0.61269 0.29648 0.20765 0.0
C4814 C 0.57033 0.30146 0.18666 0.0
C4815 C 0.60348 0.27764 0.22501 0.0
C4816 C 0.55403 0.27863 0.22724 0.0
C4817 C 0.55059 0.26474 0.22149 0.0
C4818 C 0.56583 0.2868 0.22222 0.0
C4819 C 0.57439 0.28103 0.21108 0.0
C4820 C 0.5709 0.26712 0.20508 0.0
C4821 C 0.55906 0.25913 0.21036 0.0
C4822 C 0.56917 0.30161 0.22889 0.0
C4823 C 0.57975 0.26062 0.19315 0.0
H4824 H 0.59532 0.31562 0.18081 0.0
H4825 H 0.6234 0.29513 0.21271 0.0
H4826 H 0.56614 0.29084 0.18231 0.0
H4827 H 0.56243 0.30537 0.19464 0.0
H4828 H 0.5707 0.30934 0.17753 0.0
H4829 H 0.61501 0.27766 0.22903 0.0
H4830 H 0.59652 0.28056 0.23421 0.0
H4831 H 0.60035 0.2664 0.2215 0.0
H4832 H 0.54742 0.2832 0.23562 0.0
H4833 H 0.5566 0.24838 0.20595 0.0
H4834 H 0.5687 0.31009 0.22032 0.0
H4835 H 0.58038 0.30185 0.23377 0.0
H4836 H 0.56148 0.30453 0.23749 0.0
H4837 H 0.57983 0.26803 0.18363 0.0
H4838 H 0.57547 0.24979 0.18946 0.0
H4839 H 0.5912 0.25941 0.19708 0.0
C4840 C 0.40561 0.73234 0.20233 0.0
C4841 C 0.40764 0.7209 0.1924 0.0
C4842 C 0.41736 0.73827 0.21073 0.0
C4843 C 0.43149 0.73262 0.20922 0.0
C4844 C 0.43375 0.72178 0.19849 0.0
C4845 C 0.42183 0.71608 0.19022 0.0
C4846 C 0.41445 0.74985 0.22199 0.0
C4847 C 0.44861 0.71546 0.19644 0.0
C4848 C 0.46469 0.7503 0.22897 0.0
C4849 C 0.46596 0.74161 0.24148 0.0
C4850 C 0.45343 0.74769 0.21837 0.0
C4851 C 0.44327 0.73615 0.22036 0.0
C4852 C 0.44446 0.72752 0.23307 0.0
C4853 C 0.45571 0.73036 0.2434 0.0
C4854 C 0.45247 0.75716 0.20499 0.0
C4855 C 0.43391 0.7151 0.23572 0.0
H4856 H 0.39471 0.73613 0.20416 0.0
H4857 H 0.42356 0.70747 0.18235 0.0
H4858 H 0.41498 0.74495 0.23303 0.0
H4859 H 0.42283 0.75864 0.22179 0.0
H4860 H 0.40355 0.75472 0.22024 0.0
H4861 H 0.44897 0.70866 0.18639 0.0
H4862 H 0.45696 0.72425 0.19588 0.0
H4863 H 0.45158 0.70855 0.20595 0.0
H4864 H 0.47253 0.75902 0.2274 0.0
H4865 H 0.45647 0.72358 0.25302 0.0
H4866 H 0.44154 0.76207 0.20394 0.0
H4867 H 0.45392 0.75041 0.19508 0.0
H4868 H 0.46082 0.76603 0.2053 0.0
H4869 H 0.42262 0.7192 0.23571 0.0
H4870 H 0.43622 0.70956 0.24626 0.0
H4871 H 0.43442 0.70692 0.2268 0.0
loop_
_geom_bond_atom_site_label_1
_geom_bond_atom_site_label_2
_geom_bond_distance
_geom_bond_site_symmetry_2
_ccdc_geom_bond_type
C0 C1 1.386 . S
C0 C2 1.397 . S
C0 H24 0.931 . S
C1 C0 1.386 . S
C1 C5 1.397 . S
C2 C0 1.397 . S
C2 C3 1.384 . S
C2 H25 0.930 . S
C3 C2 1.384 . S
C3 C4 1.377 . S
C3 C6 1.481 . S
C4 C3 1.377 . S
C4 C5 1.389 . S
C4 H26 0.929 . S
C5 C1 1.397 . S
C5 C4 1.389 . S
C5 H27 0.931 . S
C6 C3 1.481 . S
C6 C7 1.387 . S
C6 C11 1.390 . S
C7 C6 1.387 . S
C7 C8 1.401 . S
C7 H28 0.930 . S
C8 C7 1.401 . S
C8 C9 1.376 . S
C8 C17 1.511 . S
C9 C8 1.376 . S
C9 C10 1.392 . S
C9 H30 0.931 . S
C10 C9 1.392 . S
C10 C11 1.361 . S
C10 C12 1.500 . S
C11 C6 1.390 . S
C11 C10 1.361 . S
C11 H29 0.931 . S
C12 C10 1.500 . S
C12 C13 1.371 . S
C12 C14 1.365 . S
C13 C12 1.371 . S
C13 C23 1.386 . S
C13 H31 0.931 . S
C14 C12 1.365 . S
C14 C15 1.409 . S
C14 H32 0.929 . S
C15 C14 1.409 . S
C15 C16 1.380 . S
C15 H33 0.930 . S
C16 C15 1.380 . S
C16 C23 1.357 . S
C17 C8 1.511 . S
C17 C18 1.341 . S
C17 C19 1.371 . S
C18 C17 1.341 . S
C18 C22 1.394 . S
C18 H34 0.930 . S
C19 C17 1.371 . S
C19 C20 1.392 . S
C19 H35 0.931 . S
C20 C19 1.392 . S
C20 C21 1.331 . S
C20 H38 0.932 . S
C21 C20 1.331 . S
C21 C22 1.336 . S
C22 C18 1.394 . S
C22 C21 1.336 . S
C22 H37 0.929 . S
C23 C13 1.386 . S
C23 C16 1.357 . S
C23 H36 0.928 . S
H24 C0 0.931 . S
H25 C2 0.930 . S
H26 C4 0.929 . S
H27 C5 0.931 . S
H28 C7 0.930 . S
H29 C11 0.931 . S
H30 C9 0.931 . S
H31 C13 0.931 . S
H32 C14 0.929 . S
H33 C15 0.930 . S
H34 C18 0.930 . S
H35 C19 0.931 . S
H36 C23 0.928 . S
H37 C22 0.929 . S
H38 C20 0.932 . S
C39 C40 1.386 . S
C39 C41 1.397 . S
C39 H63 0.931 . S
C40 C39 1.386 . S
C40 C44 1.397 . S
C41 C39 1.397 . S
C41 C42 1.384 . S
C41 H64 0.930 . S
C42 C41 1.384 . S
C42 C43 1.377 . S
C42 C45 1.481 . S
C43 C42 1.377 . S
C43 C44 1.389 . S
C43 H65 0.929 . S
C44 C40 1.397 . S
C44 C43 1.389 . S
C44 H66 0.931 . S
C45 C42 1.481 . S
C45 C46 1.387 . S
C45 C50 1.390 . S
C46 C45 1.387 . S
C46 C47 1.401 . S
C46 H67 0.930 . S
C47 C46 1.401 . S
C47 C48 1.376 . S
C47 C56 1.511 . S
C48 C47 1.376 . S
C48 C49 1.392 . S
C48 H69 0.931 . S
C49 C48 1.392 . S
C49 C50 1.361 . S
C49 C51 1.500 . S
C50 C45 1.390 . S
C50 C49 1.361 . S
C50 H68 0.931 . S
C51 C49 1.500 . S
C51 C52 1.371 . S
C51 C53 1.365 . S
C52 C51 1.371 . S
C52 C62 1.386 . S
C52 H70 0.931 . S
C53 C51 1.365 . S
C53 C54 1.409 . S
C53 H71 0.929 . S
C54 C53 1.409 . S
C54 C55 1.380 . S
C54 H72 0.930 . S
C55 C54 1.380 . S
C55 C62 1.357 . S
C56 C47 1.511 . S
C56 C57 1.341 . S
C56 C58 1.371 . S
C57 C56 1.341 . S
C57 C61 1.394 . S
C57 H73 0.930 . S
C58 C56 1.371 . S
C58 C59 1.392 . S
C58 H74 0.931 . S
C59 C58 1.392 . S
C59 C60 1.331 . S
C59 H77 0.932 . S
C60 C59 1.331 . S
C60 C61 1.336 . S
C61 C57 1.394 . S
C61 C60 1.336 . S
C61 H76 0.929 . S
C62 C52 1.386 . S
C62 C55 1.357 . S
C62 H75 0.928 . S
H63 C39 0.931 . S
H64 C41 0.930 . S
H65 C43 0.929 . S
H66 C44 0.931 . S
H67 C46 0.930 . S
H68 C50 0.931 . S
H69 C48 0.931 . S
H70 C52 0.931 . S
H71 C53 0.929 . S
H72 C54 0.930 . S
H73 C57 0.930 . S
H74 C58 0.931 . S
H75 C62 0.928 . S
H76 C61 0.929 . S
H77 C59 0.932 . S
C78 C79 1.386 . S
C78 C80 1.397 . S
C78 H102 0.931 . S
C79 C78 1.386 . S
C79 C83 1.397 . S
C80 C78 1.397 . S
C80 C81 1.384 . S
C80 H103 0.930 . S
C81 C80 1.384 . S
C81 C82 1.377 . S
C81 C84 1.481 . S
C82 C81 1.377 . S
C82 C83 1.389 . S
C82 H104 0.929 . S
C83 C79 1.397 . S
C83 C82 1.389 . S
C83 H105 0.931 . S
C84 C81 1.481 . S
C84 C85 1.387 . S
C84 C89 1.390 . S
C85 C84 1.387 . S
C85 C86 1.401 . S
C85 H106 0.930 . S
C86 C85 1.401 . S
C86 C87 1.376 . S
C86 C95 1.511 . S
C87 C86 1.376 . S
C87 C88 1.392 . S
C87 H108 0.931 . S
C88 C87 1.392 . S
C88 C89 1.361 . S
C88 C90 1.500 . S
C89 C84 1.390 . S
C89 C88 1.361 . S
C89 H107 0.931 . S
C90 C88 1.500 . S
C90 C91 1.371 . S
C90 C92 1.365 . S
C91 C90 1.371 . S
C91 C101 1.386 . S
C91 H109 0.931 . S
C92 C90 1.365 . S
C92 C93 1.409 . S
C92 H110 0.929 . S
C93 C92 1.409 . S
C93 C94 1.380 . S
C93 H111 0.930 . S
C94 C93 1.380 . S
C94 C101 1.357 . S
C95 C86 1.511 . S
C95 C96 1.341 . S
C95 C97 1.371 . S
C96 C95 1.341 . S
C96 C100 1.394 . S
C96 H112 0.930 . S
C97 C95 1.371 . S
C97 C98 1.392 . S
C97 H113 0.931 . S
C98 C97 1.392 . S
C98 C99 1.331 . S
C98 H116 0.932 . S
C99 C98 1.331 . S
C99 C100 1.336 . S
C100 C96 1.394 . S
C100 C99 1.336 . S
C100 H115 0.929 . S
C101 C91 1.386 . S
C101 C94 1.357 . S
C101 H114 0.928 . S
H102 C78 0.931 . S
H103 C80 0.930 . S
H104 C82 0.929 . S
H105 C83 0.931 . S
H106 C85 0.930 . S
H107 C89 0.931 . S
H108 C87 0.931 . S
H109 C91 0.931 . S
H110 C92 0.929 . S
H111 C93 0.930 . S
H112 C96 0.930 . S
H113 C97 0.931 . S
H114 C101 0.928 . S
H115 C100 0.929 . S
H116 C98 0.932 . S
C117 C118 1.386 . S
C117 C119 1.397 . S
C117 H141 0.931 . S
C118 C117 1.386 . S
C118 C122 1.397 . S
C119 C117 1.397 . S
C119 C120 1.384 . S
C119 H142 0.930 . S
C120 C119 1.384 . S
C120 C121 1.377 . S
C120 C123 1.481 . S
C121 C120 1.377 . S
C121 C122 1.389 . S
C121 H143 0.929 . S
C122 C118 1.397 . S
C122 C121 1.389 . S
C122 H144 0.931 . S
C123 C120 1.481 . S
C123 C124 1.387 . S
C123 C128 1.390 . S
C124 C123 1.387 . S
C124 C125 1.401 . S
C124 H145 0.930 . S
C125 C124 1.401 . S
C125 C126 1.376 . S
C125 C134 1.511 . S
C126 C125 1.376 . S
C126 C127 1.392 . S
C126 H147 0.931 . S
C127 C126 1.392 . S
C127 C128 1.361 . S
C127 C129 1.500 . S
C128 C123 1.390 . S
C128 C127 1.361 . S
C128 H146 0.931 . S
C129 C127 1.500 . S
C129 C130 1.371 . S
C129 C131 1.365 . S
C130 C129 1.371 . S
C130 C140 1.386 . S
C130 H148 0.931 . S
C131 C129 1.365 . S
C131 C132 1.409 . S
C131 H149 0.929 . S
C132 C131 1.409 . S
C132 C133 1.380 . S
C132 H150 0.930 . S
C133 C132 1.380 . S
C133 C140 1.357 . S
C134 C125 1.511 . S
C134 C135 1.341 . S
C134 C136 1.371 . S
C135 C134 1.341 . S
C135 C139 1.394 . S
C135 H151 0.930 . S
C136 C134 1.371 . S
C136 C137 1.392 . S
C136 H152 0.931 . S
C137 C136 1.392 . S
C137 C138 1.331 . S
C137 H155 0.932 . S
C138 C137 1.331 . S
C138 C139 1.336 . S
C139 C135 1.394 . S
C139 C138 1.336 . S
C139 H154 0.929 . S
C140 C130 1.386 . S
C140 C133 1.357 . S
C140 H153 0.928 . S
H141 C117 0.931 . S
H142 C119 0.930 . S
H143 C121 0.929 . S
H144 C122 0.931 . S
H145 C124 0.930 . S
H146 C128 0.931 . S
H147 C126 0.931 . S
H148 C130 0.931 . S
H149 C131 0.929 . S
H150 C132 0.930 . S
H151 C135 0.930 . S
H152 C136 0.931 . S
H153 C140 0.928 . S
H154 C139 0.929 . S
H155 C137 0.932 . S
C156 C157 1.386 . S
C156 C158 1.397 . S
C156 H180 0.931 . S
C157 C156 1.386 . S
C157 C161 1.397 . S
C158 C156 1.397 . S
C158 C159 1.384 . S
C158 H181 0.930 . S
C159 C158 1.384 . S
C159 C160 1.377 . S
C159 C162 1.481 . S
C160 C159 1.377 . S
C160 C161 1.389 . S
C160 H182 0.929 . S
C161 C157 1.397 . S
C161 C160 1.389 . S
C161 H183 0.931 . S
C162 C159 1.481 . S
C162 C163 1.387 . S
C162 C167 1.390 . S
C163 C162 1.387 . S
C163 C164 1.401 . S
C163 H184 0.930 . S
C164 C163 1.401 . S
C164 C165 1.376 . S
C164 C173 1.511 . S
C165 C164 1.376 . S
C165 C166 1.392 . S
C165 H186 0.931 . S
C166 C165 1.392 . S
C166 C167 1.361 . S
C166 C168 1.500 . S
C167 C162 1.390 . S
C167 C166 1.361 . S
C167 H185 0.931 . S
C168 C166 1.500 . S
C168 C169 1.371 . S
C168 C170 1.365 . S
C169 C168 1.371 . S
C169 C179 1.386 . S
C169 H187 0.931 . S
C170 C168 1.365 . S
C170 C171 1.409 . S
C170 H188 0.929 . S
C171 C170 1.409 . S
C171 C172 1.380 . S
C171 H189 0.930 . S
C172 C171 1.380 . S
C172 C179 1.357 . S
C173 C164 1.511 . S
C173 C174 1.341 . S
C173 C175 1.371 . S
C174 C173 1.341 . S
C174 C178 1.394 . S
C174 H190 0.930 . S
C175 C173 1.371 . S
C175 C176 1.392 . S
C175 H191 0.931 . S
C176 C175 1.392 . S
C176 C177 1.331 . S
C176 H194 0.932 . S
C177 C176 1.331 . S
C177 C178 1.336 . S
C178 C174 1.394 . S
C178 C177 1.336 . S
C178 H193 0.929 . S
C179 C169 1.386 . S
C179 C172 1.357 . S
C179 H192 0.928 . S
H180 C156 0.931 . S
H181 C158 0.930 . S
H182 C160 0.929 . S
H183 C161 0.931 . S
H184 C163 0.930 . S
H185 C167 0.931 . S
H186 C165 0.931 . S
H187 C169 0.931 . S
H188 C170 0.929 . S
H189 C171 0.930 . S
H190 C174 0.930 . S
H191 C175 0.931 . S
H192 C179 0.928 . S
H193 C178 0.929 . S
H194 C176 0.932 . S
C195 C196 1.386 . S
C195 C197 1.397 . S
C195 H219 0.931 . S
C196 C195 1.386 . S
C196 C200 1.397 . S
C197 C195 1.397 . S
C197 C198 1.384 . S
C197 H220 0.930 . S
C198 C197 1.384 . S
C198 C199 1.377 . S
C198 C201 1.481 . S
C199 C198 1.377 . S
C199 C200 1.389 . S
C199 H221 0.929 . S
C200 C196 1.397 . S
C200 C199 1.389 . S
C200 H222 0.931 . S
C201 C198 1.481 . S
C201 C202 1.387 . S
C201 C206 1.390 . S
C202 C201 1.387 . S
C202 C203 1.401 . S
C202 H223 0.930 . S
C203 C202 1.401 . S
C203 C204 1.376 . S
C203 C212 1.511 . S
C204 C203 1.376 . S
C204 C205 1.392 . S
C204 H225 0.931 . S
C205 C204 1.392 . S
C205 C206 1.361 . S
C205 C207 1.500 . S
C206 C201 1.390 . S
C206 C205 1.361 . S
C206 H224 0.931 . S
C207 C205 1.500 . S
C207 C208 1.371 . S
C207 C209 1.365 . S
C208 C207 1.371 . S
C208 C218 1.386 . S
C208 H226 0.931 . S
C209 C207 1.365 . S
C209 C210 1.409 . S
C209 H227 0.929 . S
C210 C209 1.409 . S
C210 C211 1.380 . S
C210 H228 0.930 . S
C211 C210 1.380 . S
C211 C218 1.357 . S
C212 C203 1.511 . S
C212 C213 1.341 . S
C212 C214 1.371 . S
C213 C212 1.341 . S
C213 C217 1.394 . S
C213 H229 0.930 . S
C214 C212 1.371 . S
C214 C215 1.392 . S
C214 H230 0.931 . S
C215 C214 1.392 . S
C215 C216 1.331 . S
C215 H233 0.932 . S
C216 C215 1.331 . S
C216 C217 1.336 . S
C217 C213 1.394 . S
C217 C216 1.336 . S
C217 H232 0.929 . S
C218 C208 1.386 . S
C218 C211 1.357 . S
C218 H231 0.928 . S
H219 C195 0.931 . S
H220 C197 0.930 . S
H221 C199 0.929 . S
H222 C200 0.931 . S
H223 C202 0.930 . S
H224 C206 0.931 . S
H225 C204 0.931 . S
H226 C208 0.931 . S
H227 C209 0.929 . S
H228 C210 0.930 . S
H229 C213 0.930 . S
H230 C214 0.931 . S
H231 C218 0.928 . S
H232 C217 0.929 . S
H233 C215 0.932 . S
C234 C235 1.386 . S
C234 C236 1.397 . S
C234 H258 0.931 . S
C235 C234 1.386 . S
C235 C239 1.397 . S
C236 C234 1.397 . S
C236 C237 1.384 . S
C236 H259 0.930 . S
C237 C236 1.384 . S
C237 C238 1.377 . S
C237 C240 1.481 . S
C238 C237 1.377 . S
C238 C239 1.389 . S
C238 H260 0.929 . S
C239 C235 1.397 . S
C239 C238 1.389 . S
C239 H261 0.931 . S
C240 C237 1.481 . S
C240 C241 1.387 . S
C240 C245 1.390 . S
C241 C240 1.387 . S
C241 C242 1.401 . S
C241 H262 0.930 . S
C242 C241 1.401 . S
C242 C243 1.376 . S
C242 C251 1.511 . S
C243 C242 1.376 . S
C243 C244 1.392 . S
C243 H264 0.931 . S
C244 C243 1.392 . S
C244 C245 1.361 . S
C244 C246 1.500 . S
C245 C240 1.390 . S
C245 C244 1.361 . S
C245 H263 0.931 . S
C246 C244 1.500 . S
C246 C247 1.371 . S
C246 C248 1.365 . S
C247 C246 1.371 . S
C247 C257 1.386 . S
C247 H265 0.931 . S
C248 C246 1.365 . S
C248 C249 1.409 . S
C248 H266 0.929 . S
C249 C248 1.409 . S
C249 C250 1.380 . S
C249 H267 0.930 . S
C250 C249 1.380 . S
C250 C257 1.357 . S
C251 C242 1.511 . S
C251 C252 1.341 . S
C251 C253 1.371 . S
C252 C251 1.341 . S
C252 C256 1.394 . S
C252 H268 0.930 . S
C253 C251 1.371 . S
C253 C254 1.392 . S
C253 H269 0.931 . S
C254 C253 1.392 . S
C254 C255 1.331 . S
C254 H272 0.932 . S
C255 C254 1.331 . S
C255 C256 1.336 . S
C256 C252 1.394 . S
C256 C255 1.336 . S
C256 H271 0.929 . S
C257 C247 1.386 . S
C257 C250 1.357 . S
C257 H270 0.928 . S
H258 C234 0.931 . S
H259 C236 0.930 . S
H260 C238 0.929 . S
H261 C239 0.931 . S
H262 C241 0.930 . S
H263 C245 0.931 . S
H264 C243 0.931 . S
H265 C247 0.931 . S
H266 C248 0.929 . S
H267 C249 0.930 . S
H268 C252 0.930 . S
H269 C253 0.931 . S
H270 C257 0.928 . S
H271 C256 0.929 . S
H272 C254 0.932 . S
C273 C274 1.386 . S
C273 C275 1.397 . S
C273 H297 0.931 . S
C274 C273 1.386 . S
C274 C278 1.397 . S
C275 C273 1.397 . S
C275 C276 1.384 . S
C275 H298 0.930 . S
C276 C275 1.384 . S
C276 C277 1.377 . S
C276 C279 1.481 . S
C277 C276 1.377 . S
C277 C278 1.389 . S
C277 H299 0.929 . S
C278 C274 1.397 . S
C278 C277 1.389 . S
C278 H300 0.931 . S
C279 C276 1.481 . S
C279 C280 1.387 . S
C279 C284 1.390 . S
C280 C279 1.387 . S
C280 C281 1.401 . S
C280 H301 0.930 . S
C281 C280 1.401 . S
C281 C282 1.376 . S
C281 C290 1.511 . S
C282 C281 1.376 . S
C282 C283 1.392 . S
C282 H303 0.931 . S
C283 C282 1.392 . S
C283 C284 1.361 . S
C283 C285 1.500 . S
C284 C279 1.390 . S
C284 C283 1.361 . S
C284 H302 0.931 . S
C285 C283 1.500 . S
C285 C286 1.371 . S
C285 C287 1.365 . S
C286 C285 1.371 . S
C286 C296 1.386 . S
C286 H304 0.931 . S
C287 C285 1.365 . S
C287 C288 1.409 . S
C287 H305 0.929 . S
C288 C287 1.409 . S
C288 C289 1.380 . S
C288 H306 0.930 . S
C289 C288 1.380 . S
C289 C296 1.357 . S
C290 C281 1.511 . S
C290 C291 1.341 . S
C290 C292 1.371 . S
C291 C290 1.341 . S
C291 C295 1.394 . S
C291 H307 0.930 . S
C292 C290 1.371 . S
C292 C293 1.392 . S
C292 H308 0.931 . S
C293 C292 1.392 . S
C293 C294 1.331 . S
C293 H311 0.932 . S
C294 C293 1.331 . S
C294 C295 1.336 . S
C295 C291 1.394 . S
C295 C294 1.336 . S
C295 H310 0.929 . S
C296 C286 1.386 . S
C296 C289 1.357 . S
C296 H309 0.928 . S
H297 C273 0.931 . S
H298 C275 0.930 . S
H299 C277 0.929 . S
H300 C278 0.931 . S
H301 C280 0.930 . S
H302 C284 0.931 . S
H303 C282 0.931 . S
H304 C286 0.931 . S
H305 C287 0.929 . S
H306 C288 0.930 . S
H307 C291 0.930 . S
H308 C292 0.931 . S
H309 C296 0.928 . S
H310 C295 0.929 . S
H311 C293 0.932 . S
C312 C313 1.386 . S
C312 C314 1.397 . S
C312 H336 0.931 . S
C313 C312 1.386 . S
C313 C317 1.397 . S
C314 C312 1.397 . S
C314 C315 1.384 . S
C314 H337 0.930 . S
C315 C314 1.384 . S
C315 C316 1.377 . S
C315 C318 1.481 . S
C316 C315 1.377 . S
C316 C317 1.389 . S
C316 H338 0.929 . S
C317 C313 1.397 . S
C317 C316 1.389 . S
C317 H339 0.931 . S
C318 C315 1.481 . S
C318 C319 1.387 . S
C318 C323 1.390 . S
C319 C318 1.387 . S
C319 C320 1.401 . S
C319 H340 0.930 . S
C320 C319 1.401 . S
C320 C321 1.376 . S
C320 C329 1.511 . S
C321 C320 1.376 . S
C321 C322 1.392 . S
C321 H342 0.931 . S
C322 C321 1.392 . S
C322 C323 1.361 . S
C322 C324 1.500 . S
C323 C318 1.390 . S
C323 C322 1.361 . S
C323 H341 0.931 . S
C324 C322 1.500 . S
C324 C325 1.371 . S
C324 C326 1.365 . S
C325 C324 1.371 . S
C325 C335 1.386 . S
C325 H343 0.931 . S
C326 C324 1.365 . S
C326 C327 1.409 . S
C326 H344 0.929 . S
C327 C326 1.409 . S
C327 C328 1.380 . S
C327 H345 0.930 . S
C328 C327 1.380 . S
C328 C335 1.357 . S
C329 C320 1.511 . S
C329 C330 1.341 . S
C329 C331 1.371 . S
C330 C329 1.341 . S
C330 C334 1.394 . S
C330 H346 0.930 . S
C331 C329 1.371 . S
C331 C332 1.392 . S
C331 H347 0.931 . S
C332 C331 1.392 . S
C332 C333 1.331 . S
C332 H350 0.932 . S
C333 C332 1.331 . S
C333 C334 1.336 . S
C334 C330 1.394 . S
C334 C333 1.336 . S
C334 H349 0.929 . S
C335 C325 1.386 . S
C335 C328 1.357 . S
C335 H348 0.928 . S
H336 C312 0.931 . S
H337 C314 0.930 . S
H338 C316 0.929 . S
H339 C317 0.931 . S
H340 C319 0.930 . S
H341 C323 0.931 . S
H342 C321 0.931 . S
H343 C325 0.931 . S
H344 C326 0.929 . S
H345 C327 0.930 . S
H346 C330 0.930 . S
H347 C331 0.931 . S
H348 C335 0.928 . S
H349 C334 0.929 . S
H350 C332 0.932 . S
C351 C352 1.386 . S
C351 C353 1.397 . S
C351 H375 0.931 . S
C352 C351 1.386 . S
C352 C356 1.397 . S
C353 C351 1.397 . S
C353 C354 1.384 . S
C353 H376 0.930 . S
C354 C353 1.384 . S
C354 C355 1.377 . S
C354 C357 1.481 . S
C355 C354 1.377 . S
C355 C356 1.389 . S
C355 H377 0.929 . S
C356 C352 1.397 . S
C356 C355 1.389 . S
C356 H378 0.931 . S
C357 C354 1.481 . S
C357 C358 1.387 . S
C357 C362 1.390 . S
C358 C357 1.387 . S
C358 C359 1.401 . S
C358 H379 0.930 . S
C359 C358 1.401 . S
C359 C360 1.376 . S
C359 C368 1.511 . S
C360 C359 1.376 . S
C360 C361 1.392 . S
C360 H381 0.931 . S
C361 C360 1.392 . S
C361 C362 1.361 . S
C361 C363 1.500 . S
C362 C357 1.390 . S
C362 C361 1.361 . S
C362 H380 0.931 . S
C363 C361 1.500 . S
C363 C364 1.371 . S
C363 C365 1.365 . S
C364 C363 1.371 . S
C364 C374 1.386 . S
C364 H382 0.931 . S
C365 C363 1.365 . S
C365 C366 1.409 . S
C365 H383 0.929 . S
C366 C365 1.409 . S
C366 C367 1.380 . S
C366 H384 0.930 . S
C367 C366 1.380 . S
C367 C374 1.357 . S
C368 C359 1.511 . S
C368 C369 1.341 . S
C368 C370 1.371 . S
C369 C368 1.341 . S
C369 C373 1.394 . S
C369 H385 0.930 . S
C370 C368 1.371 . S
C370 C371 1.392 . S
C370 H386 0.931 . S
C371 C370 1.392 . S
C371 C372 1.331 . S
C371 H389 0.932 . S
C372 C371 1.331 . S
C372 C373 1.336 . S
C373 C369 1.394 . S
C373 C372 1.336 . S
C373 H388 0.929 . S
C374 C364 1.386 . S
C374 C367 1.357 . S
C374 H387 0.928 . S
H375 C351 0.931 . S
H376 C353 0.930 . S
H377 C355 0.929 . S
H378 C356 0.931 . S
H379 C358 0.930 . S
H380 C362 0.931 . S
H381 C360 0.931 . S
H382 C364 0.931 . S
H383 C365 0.929 . S
H384 C366 0.930 . S
H385 C369 0.930 . S
H386 C370 0.931 . S
H387 C374 0.928 . S
H388 C373 0.929 . S
H389 C371 0.932 . S
C390 C391 1.386 . S
C390 C392 1.397 . S
C390 H414 0.931 . S
C391 C390 1.386 . S
C391 C395 1.397 . S
C392 C390 1.397 . S
C392 C393 1.384 . S
C392 H415 0.930 . S
C393 C392 1.384 . S
C393 C394 1.377 . S
C393 C396 1.481 . S
C394 C393 1.377 . S
C394 C395 1.389 . S
C394 H416 0.929 . S
C395 C391 1.397 . S
C395 C394 1.389 . S
C395 H417 0.931 . S
C396 C393 1.481 . S
C396 C397 1.387 . S
C396 C401 1.390 . S
C397 C396 1.387 . S
C397 C398 1.401 . S
C397 H418 0.930 . S
C398 C397 1.401 . S
C398 C399 1.376 . S
C398 C407 1.511 . S
C399 C398 1.376 . S
C399 C400 1.392 . S
C399 H420 0.931 . S
C400 C399 1.392 . S
C400 C401 1.361 . S
C400 C402 1.500 . S
C401 C396 1.390 . S
C401 C400 1.361 . S
C401 H419 0.931 . S
C402 C400 1.500 . S
C402 C403 1.371 . S
C402 C404 1.365 . S
C403 C402 1.371 . S
C403 C413 1.386 . S
C403 H421 0.931 . S
C404 C402 1.365 . S
C404 C405 1.409 . S
C404 H422 0.929 . S
C405 C404 1.409 . S
C405 C406 1.380 . S
C405 H423 0.930 . S
C406 C405 1.380 . S
C406 C413 1.357 . S
C407 C398 1.511 . S
C407 C408 1.341 . S
C407 C409 1.371 . S
C408 C407 1.341 . S
C408 C412 1.394 . S
C408 H424 0.930 . S
C409 C407 1.371 . S
C409 C410 1.392 . S
C409 H425 0.931 . S
C410 C409 1.392 . S
C410 C411 1.331 . S
C410 H428 0.932 . S
C411 C410 1.331 . S
C411 C412 1.336 . S
C412 C408 1.394 . S
C412 C411 1.336 . S
C412 H427 0.929 . S
C413 C403 1.386 . S
C413 C406 1.357 . S
C413 H426 0.928 . S
H414 C390 0.931 . S
H415 C392 0.930 . S
H416 C394 0.929 . S
H417 C395 0.931 . S
H418 C397 0.930 . S
H419 C401 0.931 . S
H420 C399 0.931 . S
H421 C403 0.931 . S
H422 C404 0.929 . S
H423 C405 0.930 . S
H424 C408 0.930 . S
H425 C409 0.931 . S
H426 C413 0.928 . S
H427 C412 0.929 . S
H428 C410 0.932 . S
C429 C430 1.386 . S
C429 C431 1.397 . S
C429 H453 0.931 . S
C430 C429 1.386 . S
C430 C434 1.397 . S
C431 C429 1.397 . S
C431 C432 1.384 . S
C431 H454 0.930 . S
C432 C431 1.384 . S
C432 C433 1.377 . S
C432 C435 1.481 . S
C433 C432 1.377 . S
C433 C434 1.389 . S
C433 H455 0.929 . S
C434 C430 1.397 . S
C434 C433 1.389 . S
C434 H456 0.931 . S
C435 C432 1.481 . S
C435 C436 1.387 . S
C435 C440 1.390 . S
C436 C435 1.387 . S
C436 C437 1.401 . S
C436 H457 0.930 . S
C437 C436 1.401 . S
C437 C438 1.376 . S
C437 C446 1.511 . S
C438 C437 1.376 . S
C438 C439 1.392 . S
C438 H459 0.931 . S
C439 C438 1.392 . S
C439 C440 1.361 . S
C439 C441 1.500 . S
C440 C435 1.390 . S
C440 C439 1.361 . S
C440 H458 0.931 . S
C441 C439 1.500 . S
C441 C442 1.371 . S
C441 C443 1.365 . S
C442 C441 1.371 . S
C442 C452 1.386 . S
C442 H460 0.931 . S
C443 C441 1.365 . S
C443 C444 1.409 . S
C443 H461 0.929 . S
C444 C443 1.409 . S
C444 C445 1.380 . S
C444 H462 0.930 . S
C445 C444 1.380 . S
C445 C452 1.357 . S
C446 C437 1.511 . S
C446 C447 1.341 . S
C446 C448 1.371 . S
C447 C446 1.341 . S
C447 C451 1.394 . S
C447 H463 0.930 . S
C448 C446 1.371 . S
C448 C449 1.392 . S
C448 H464 0.931 . S
C449 C448 1.392 . S
C449 C450 1.331 . S
C449 H467 0.932 . S
C450 C449 1.331 . S
C450 C451 1.336 . S
C451 C447 1.394 . S
C451 C450 1.336 . S
C451 H466 0.929 . S
C452 C442 1.386 . S
C452 C445 1.357 . S
C452 H465 0.928 . S
H453 C429 0.931 . S
H454 C431 0.930 . S
H455 C433 0.929 . S
H456 C434 0.931 . S
H457 C436 0.930 . S
H458 C440 0.931 . S
H459 C438 0.931 . S
H460 C442 0.931 . S
H461 C443 0.929 . S
H462 C444 0.930 . S
H463 C447 0.930 . S
H464 C448 0.931 . S
H465 C452 0.928 . S
H466 C451 0.929 . S
H467 C449 0.932 . S
C468 C469 1.386 . S
C468 C470 1.397 . S
C468 H492 0.931 . S
C469 C468 1.386 . S
C469 C473 1.397 . S
C470 C468 1.397 . S
C470 C471 1.384 . S
C470 H493 0.930 . S
C471 C470 1.384 . S
C471 C472 1.377 . S
C471 C474 1.481 . S
C472 C471 1.377 . S
C472 C473 1.389 . S
C472 H494 0.929 . S
C473 C469 1.397 . S
C473 C472 1.389 . S
C473 H495 0.931 . S
C474 C471 1.481 . S
C474 C475 1.387 . S
C474 C479 1.390 . S
C475 C474 1.387 . S
C475 C476 1.401 . S
C475 H496 0.930 . S
C476 C475 1.401 . S
C476 C477 1.376 . S
C476 C485 1.511 . S
C477 C476 1.376 . S
C477 C478 1.392 . S
C477 H498 0.931 . S
C478 C477 1.392 . S
C478 C479 1.361 . S
C478 C480 1.500 . S
C479 C474 1.390 . S
C479 C478 1.361 . S
C479 H497 0.931 . S
C480 C478 1.500 . S
C480 C481 1.371 . S
C480 C482 1.365 . S
C481 C480 1.371 . S
C481 C491 1.386 . S
C481 H499 0.931 . S
C482 C480 1.365 . S
C482 C483 1.409 . S
C482 H500 0.929 . S
C483 C482 1.409 . S
C483 C484 1.380 . S
C483 H501 0.930 . S
C484 C483 1.380 . S
C484 C491 1.357 . S
C485 C476 1.511 . S
C485 C486 1.341 . S
C485 C487 1.371 . S
C486 C485 1.341 . S
C486 C490 1.394 . S
C486 H502 0.930 . S
C487 C485 1.371 . S
C487 C488 1.392 . S
C487 H503 0.931 . S
C488 C487 1.392 . S
C488 C489 1.331 . S
C488 H506 0.932 . S
C489 C488 1.331 . S
C489 C490 1.336 . S
C490 C486 1.394 . S
C490 C489 1.336 . S
C490 H505 0.929 . S
C491 C481 1.386 . S
C491 C484 1.357 . S
C491 H504 0.928 . S
H492 C468 0.931 . S
H493 C470 0.930 . S
H494 C472 0.929 . S
H495 C473 0.931 . S
H496 C475 0.930 . S
H497 C479 0.931 . S
H498 C477 0.931 . S
H499 C481 0.931 . S
H500 C482 0.929 . S
H501 C483 0.930 . S
H502 C486 0.930 . S
H503 C487 0.931 . S
H504 C491 0.928 . S
H505 C490 0.929 . S
H506 C488 0.932 . S
C507 C508 1.386 . S
C507 C509 1.397 . S
C507 H531 0.931 . S
C508 C507 1.386 . S
C508 C512 1.397 . S
C509 C507 1.397 . S
C509 C510 1.384 . S
C509 H532 0.930 . S
C510 C509 1.384 . S
C510 C511 1.377 . S
C510 C513 1.481 . S
C511 C510 1.377 . S
C511 C512 1.389 . S
C511 H533 0.929 . S
C512 C508 1.397 . S
C512 C511 1.389 . S
C512 H534 0.931 . S
C513 C510 1.481 . S
C513 C514 1.387 . S
C513 C518 1.390 . S
C514 C513 1.387 . S
C514 C515 1.401 . S
C514 H535 0.930 . S
C515 C514 1.401 . S
C515 C516 1.376 . S
C515 C524 1.511 . S
C516 C515 1.376 . S
C516 C517 1.392 . S
C516 H537 0.931 . S
C517 C516 1.392 . S
C517 C518 1.361 . S
C517 C519 1.500 . S
C518 C513 1.390 . S
C518 C517 1.361 . S
C518 H536 0.931 . S
C519 C517 1.500 . S
C519 C520 1.371 . S
C519 C521 1.365 . S
C520 C519 1.371 . S
C520 C530 1.386 . S
C520 H538 0.931 . S
C521 C519 1.365 . S
C521 C522 1.409 . S
C521 H539 0.929 . S
C522 C521 1.409 . S
C522 C523 1.380 . S
C522 H540 0.930 . S
C523 C522 1.380 . S
C523 C530 1.357 . S
C524 C515 1.511 . S
C524 C525 1.341 . S
C524 C526 1.371 . S
C525 C524 1.341 . S
C525 C529 1.394 . S
C525 H541 0.930 . S
C526 C524 1.371 . S
C526 C527 1.392 . S
C526 H542 0.931 . S
C527 C526 1.392 . S
C527 C528 1.331 . S
C527 H545 0.932 . S
C528 C527 1.331 . S
C528 C529 1.336 . S
C529 C525 1.394 . S
C529 C528 1.336 . S
C529 H544 0.929 . S
C530 C520 1.386 . S
C530 C523 1.357 . S
C530 H543 0.928 . S
H531 C507 0.931 . S
H532 C509 0.930 . S
H533 C511 0.929 . S
H534 C512 0.931 . S
H535 C514 0.930 . S
H536 C518 0.931 . S
H537 C516 0.931 . S
H538 C520 0.931 . S
H539 C521 0.929 . S
H540 C522 0.930 . S
H541 C525 0.930 . S
H542 C526 0.931 . S
H543 C530 0.928 . S
H544 C529 0.929 . S
H545 C527 0.932 . S
C546 C547 1.386 . S
C546 C548 1.397 . S
C546 H570 0.931 . S
C547 C546 1.386 . S
C547 C551 1.397 . S
C548 C546 1.397 . S
C548 C549 1.384 . S
C548 H571 0.930 . S
C549 C548 1.384 . S
C549 C550 1.377 . S
C549 C552 1.481 . S
C550 C549 1.377 . S
C550 C551 1.389 . S
C550 H572 0.929 . S
C551 C547 1.397 . S
C551 C550 1.389 . S
C551 H573 0.931 . S
C552 C549 1.481 . S
C552 C553 1.387 . S
C552 C557 1.390 . S
C553 C552 1.387 . S
C553 C554 1.401 . S
C553 H574 0.930 . S
C554 C553 1.401 . S
C554 C555 1.376 . S
C554 C563 1.511 . S
C555 C554 1.376 . S
C555 C556 1.392 . S
C555 H576 0.931 . S
C556 C555 1.392 . S
C556 C557 1.361 . S
C556 C558 1.500 . S
C557 C552 1.390 . S
C557 C556 1.361 . S
C557 H575 0.931 . S
C558 C556 1.500 . S
C558 C559 1.371 . S
C558 C560 1.365 . S
C559 C558 1.371 . S
C559 C569 1.386 . S
C559 H577 0.931 . S
C560 C558 1.365 . S
C560 C561 1.409 . S
C560 H578 0.929 . S
C561 C560 1.409 . S
C561 C562 1.380 . S
C561 H579 0.930 . S
C562 C561 1.380 . S
C562 C569 1.357 . S
C563 C554 1.511 . S
C563 C564 1.341 . S
C563 C565 1.371 . S
C564 C563 1.341 . S
C564 C568 1.394 . S
C564 H580 0.930 . S
C565 C563 1.371 . S
C565 C566 1.392 . S
C565 H581 0.931 . S
C566 C565 1.392 . S
C566 C567 1.331 . S
C566 H584 0.932 . S
C567 C566 1.331 . S
C567 C568 1.336 . S
C568 C564 1.394 . S
C568 C567 1.336 . S
C568 H583 0.929 . S
C569 C559 1.386 . S
C569 C562 1.357 . S
C569 H582 0.928 . S
H570 C546 0.931 . S
H571 C548 0.930 . S
H572 C550 0.929 . S
H573 C551 0.931 . S
H574 C553 0.930 . S
H575 C557 0.931 . S
H576 C555 0.931 . S
H577 C559 0.931 . S
H578 C560 0.929 . S
H579 C561 0.930 . S
H580 C564 0.930 . S
H581 C565 0.931 . S
H582 C569 0.928 . S
H583 C568 0.929 . S
H584 C566 0.932 . S
C585 C586 1.386 . S
C585 C587 1.397 . S
C585 H609 0.931 . S
C586 C585 1.386 . S
C586 C590 1.397 . S
C587 C585 1.397 . S
C587 C588 1.384 . S
C587 H610 0.930 . S
C588 C587 1.384 . S
C588 C589 1.377 . S
C588 C591 1.481 . S
C589 C588 1.377 . S
C589 C590 1.389 . S
C589 H611 0.929 . S
C590 C586 1.397 . S
C590 C589 1.389 . S
C590 H612 0.931 . S
C591 C588 1.481 . S
C591 C592 1.387 . S
C591 C596 1.390 . S
C592 C591 1.387 . S
C592 C593 1.401 . S
C592 H613 0.930 . S
C593 C592 1.401 . S
C593 C594 1.376 . S
C593 C602 1.511 . S
C594 C593 1.376 . S
C594 C595 1.392 . S
C594 H615 0.931 . S
C595 C594 1.392 . S
C595 C596 1.361 . S
C595 C597 1.500 . S
C596 C591 1.390 . S
C596 C595 1.361 . S
C596 H614 0.931 . S
C597 C595 1.500 . S
C597 C598 1.371 . S
C597 C599 1.365 . S
C598 C597 1.371 . S
C598 C608 1.386 . S
C598 H616 0.931 . S
C599 C597 1.365 . S
C599 C600 1.409 . S
C599 H617 0.929 . S
C600 C599 1.409 . S
C600 C601 1.380 . S
C600 H618 0.930 . S
C601 C600 1.380 . S
C601 C608 1.357 . S
C602 C593 1.511 . S
C602 C603 1.341 . S
C602 C604 1.371 . S
C603 C602 1.341 . S
C603 C607 1.394 . S
C603 H619 0.930 . S
C604 C602 1.371 . S
C604 C605 1.392 . S
C604 H620 0.931 . S
C605 C604 1.392 . S
C605 C606 1.331 . S
C605 H623 0.932 . S
C606 C605 1.331 . S
C606 C607 1.336 . S
C607 C603 1.394 . S
C607 C606 1.336 . S
C607 H622 0.929 . S
C608 C598 1.386 . S
C608 C601 1.357 . S
C608 H621 0.928 . S
H609 C585 0.931 . S
H610 C587 0.930 . S
H611 C589 0.929 . S
H612 C590 0.931 . S
H613 C592 0.930 . S
H614 C596 0.931 . S
H615 C594 0.931 . S
H616 C598 0.931 . S
H617 C599 0.929 . S
H618 C600 0.930 . S
H619 C603 0.930 . S
H620 C604 0.931 . S
H621 C608 0.928 . S
H622 C607 0.929 . S
H623 C605 0.932 . S
C624 C625 1.386 . S
C624 C626 1.397 . S
C624 H648 0.931 . S
C625 C624 1.386 . S
C625 C629 1.397 . S
C626 C624 1.397 . S
C626 C627 1.384 . S
C626 H649 0.930 . S
C627 C626 1.384 . S
C627 C628 1.377 . S
C627 C630 1.481 . S
C628 C627 1.377 . S
C628 C629 1.389 . S
C628 H650 0.929 . S
C629 C625 1.397 . S
C629 C628 1.389 . S
C629 H651 0.931 . S
C630 C627 1.481 . S
C630 C631 1.387 . S
C630 C635 1.390 . S
C631 C630 1.387 . S
C631 C632 1.401 . S
C631 H652 0.930 . S
C632 C631 1.401 . S
C632 C633 1.376 . S
C632 C641 1.511 . S
C633 C632 1.376 . S
C633 C634 1.392 . S
C633 H654 0.931 . S
C634 C633 1.392 . S
C634 C635 1.361 . S
C634 C636 1.500 . S
C635 C630 1.390 . S
C635 C634 1.361 . S
C635 H653 0.931 . S
C636 C634 1.500 . S
C636 C637 1.371 . S
C636 C638 1.365 . S
C637 C636 1.371 . S
C637 C647 1.386 . S
C637 H655 0.931 . S
C638 C636 1.365 . S
C638 C639 1.409 . S
C638 H656 0.929 . S
C639 C638 1.409 . S
C639 C640 1.380 . S
C639 H657 0.930 . S
C640 C639 1.380 . S
C640 C647 1.357 . S
C641 C632 1.511 . S
C641 C642 1.341 . S
C641 C643 1.371 . S
C642 C641 1.341 . S
C642 C646 1.394 . S
C642 H658 0.930 . S
C643 C641 1.371 . S
C643 C644 1.392 . S
C643 H659 0.931 . S
C644 C643 1.392 . S
C644 C645 1.331 . S
C644 H662 0.932 . S
C645 C644 1.331 . S
C645 C646 1.336 . S
C646 C642 1.394 . S
C646 C645 1.336 . S
C646 H661 0.929 . S
C647 C637 1.386 . S
C647 C640 1.357 . S
C647 H660 0.928 . S
H648 C624 0.931 . S
H649 C626 0.930 . S
H650 C628 0.929 . S
H651 C629 0.931 . S
H652 C631 0.930 . S
H653 C635 0.931 . S
H654 C633 0.931 . S
H655 C637 0.931 . S
H656 C638 0.929 . S
H657 C639 0.930 . S
H658 C642 0.930 . S
H659 C643 0.931 . S
H660 C647 0.928 . S
H661 C646 0.929 . S
H662 C644 0.932 . S
C663 C664 1.386 . S
C663 C665 1.397 . S
C663 H687 0.931 . S
C664 C663 1.386 . S
C664 C668 1.397 . S
C665 C663 1.397 . S
C665 C666 1.384 . S
C665 H688 0.930 . S
C666 C665 1.384 . S
C666 C667 1.377 . S
C666 C669 1.481 . S
C667 C666 1.377 . S
C667 C668 1.389 . S
C667 H689 0.929 . S
C668 C664 1.397 . S
C668 C667 1.389 . S
C668 H690 0.931 . S
C669 C666 1.481 . S
C669 C670 1.387 . S
C669 C674 1.390 . S
C670 C669 1.387 . S
C670 C671 1.401 . S
C670 H691 0.930 . S
C671 C670 1.401 . S
C671 C672 1.376 . S
C671 C680 1.511 . S
C672 C671 1.376 . S
C672 C673 1.392 . S
C672 H693 0.931 . S
C673 C672 1.392 . S
C673 C674 1.361 . S
C673 C675 1.500 . S
C674 C669 1.390 . S
C674 C673 1.361 . S
C674 H692 0.931 . S
C675 C673 1.500 . S
C675 C676 1.371 . S
C675 C677 1.365 . S
C676 C675 1.371 . S
C676 C686 1.386 . S
C676 H694 0.931 . S
C677 C675 1.365 . S
C677 C678 1.409 . S
C677 H695 0.929 . S
C678 C677 1.409 . S
C678 C679 1.380 . S
C678 H696 0.930 . S
C679 C678 1.380 . S
C679 C686 1.357 . S
C680 C671 1.511 . S
C680 C681 1.341 . S
C680 C682 1.371 . S
C681 C680 1.341 . S
C681 C685 1.394 . S
C681 H697 0.930 . S
C682 C680 1.371 . S
C682 C683 1.392 . S
C682 H698 0.931 . S
C683 C682 1.392 . S
C683 C684 1.331 . S
C683 H701 0.932 . S
C684 C683 1.331 . S
C684 C685 1.336 . S
C685 C681 1.394 . S
C685 C684 1.336 . S
C685 H700 0.929 . S
C686 C676 1.386 . S
C686 C679 1.357 . S
C686 H699 0.928 . S
H687 C663 0.931 . S
H688 C665 0.930 . S
H689 C667 0.929 . S
H690 C668 0.931 . S
H691 C670 0.930 . S
H692 C674 0.931 . S
H693 C672 0.931 . S
H694 C676 0.931 . S
H695 C677 0.929 . S
H696 C678 0.930 . S
H697 C681 0.930 . S
H698 C682 0.931 . S
H699 C686 0.928 . S
H700 C685 0.929 . S
H701 C683 0.932 . S
C702 C703 1.386 . S
C702 C704 1.397 . S
C702 H726 0.931 . S
C703 C702 1.386 . S
C703 C707 1.397 . S
C704 C702 1.397 . S
C704 C705 1.384 . S
C704 H727 0.930 . S
C705 C704 1.384 . S
C705 C706 1.377 . S
C705 C708 1.481 . S
C706 C705 1.377 . S
C706 C707 1.389 . S
C706 H728 0.929 . S
C707 C703 1.397 . S
C707 C706 1.389 . S
C707 H729 0.931 . S
C708 C705 1.481 . S
C708 C709 1.387 . S
C708 C713 1.390 . S
C709 C708 1.387 . S
C709 C710 1.401 . S
C709 H730 0.930 . S
C710 C709 1.401 . S
C710 C711 1.376 . S
C710 C719 1.511 . S
C711 C710 1.376 . S
C711 C712 1.392 . S
C711 H732 0.931 . S
C712 C711 1.392 . S
C712 C713 1.361 . S
C712 C714 1.500 . S
C713 C708 1.390 . S
C713 C712 1.361 . S
C713 H731 0.931 . S
C714 C712 1.500 . S
C714 C715 1.371 . S
C714 C716 1.365 . S
C715 C714 1.371 . S
C715 C725 1.386 . S
C715 H733 0.931 . S
C716 C714 1.365 . S
C716 C717 1.409 . S
C716 H734 0.929 . S
C717 C716 1.409 . S
C717 C718 1.380 . S
C717 H735 0.930 . S
C718 C717 1.380 . S
C718 C725 1.357 . S
C719 C710 1.511 . S
C719 C720 1.341 . S
C719 C721 1.371 . S
C720 C719 1.341 . S
C720 C724 1.394 . S
C720 H736 0.930 . S
C721 C719 1.371 . S
C721 C722 1.392 . S
C721 H737 0.931 . S
C722 C721 1.392 . S
C722 C723 1.331 . S
C722 H740 0.932 . S
C723 C722 1.331 . S
C723 C724 1.336 . S
C724 C720 1.394 . S
C724 C723 1.336 . S
C724 H739 0.929 . S
C725 C715 1.386 . S
C725 C718 1.357 . S
C725 H738 0.928 . S
H726 C702 0.931 . S
H727 C704 0.930 . S
H728 C706 0.929 . S
H729 C707 0.931 . S
H730 C709 0.930 . S
H731 C713 0.931 . S
H732 C711 0.931 . S
H733 C715 0.931 . S
H734 C716 0.929 . S
H735 C717 0.930 . S
H736 C720 0.930 . S
H737 C721 0.931 . S
H738 C725 0.928 . S
H739 C724 0.929 . S
H740 C722 0.932 . S
C741 C742 1.386 . S
C741 C743 1.397 . S
C741 H765 0.931 . S
C742 C741 1.386 . S
C742 C746 1.397 . S
C743 C741 1.397 . S
C743 C744 1.384 . S
C743 H766 0.930 . S
C744 C743 1.384 . S
C744 C745 1.377 . S
C744 C747 1.481 . S
C745 C744 1.377 . S
C745 C746 1.389 . S
C745 H767 0.929 . S
C746 C742 1.397 . S
C746 C745 1.389 . S
C746 H768 0.931 . S
C747 C744 1.481 . S
C747 C748 1.387 . S
C747 C752 1.390 . S
C748 C747 1.387 . S
C748 C749 1.401 . S
C748 H769 0.930 . S
C749 C748 1.401 . S
C749 C750 1.376 . S
C749 C758 1.511 . S
C750 C749 1.376 . S
C750 C751 1.392 . S
C750 H771 0.931 . S
C751 C750 1.392 . S
C751 C752 1.361 . S
C751 C753 1.500 . S
C752 C747 1.390 . S
C752 C751 1.361 . S
C752 H770 0.931 . S
C753 C751 1.500 . S
C753 C754 1.371 . S
C753 C755 1.365 . S
C754 C753 1.371 . S
C754 C764 1.386 . S
C754 H772 0.931 . S
C755 C753 1.365 . S
C755 C756 1.409 . S
C755 H773 0.929 . S
C756 C755 1.409 . S
C756 C757 1.380 . S
C756 H774 0.930 . S
C757 C756 1.380 . S
C757 C764 1.357 . S
C758 C749 1.511 . S
C758 C759 1.341 . S
C758 C760 1.371 . S
C759 C758 1.341 . S
C759 C763 1.394 . S
C759 H775 0.930 . S
C760 C758 1.371 . S
C760 C761 1.392 . S
C760 H776 0.931 . S
C761 C760 1.392 . S
C761 C762 1.331 . S
C761 H779 0.932 . S
C762 C761 1.331 . S
C762 C763 1.336 . S
C763 C759 1.394 . S
C763 C762 1.336 . S
C763 H778 0.929 . S
C764 C754 1.386 . S
C764 C757 1.357 . S
C764 H777 0.928 . S
H765 C741 0.931 . S
H766 C743 0.930 . S
H767 C745 0.929 . S
H768 C746 0.931 . S
H769 C748 0.930 . S
H770 C752 0.931 . S
H771 C750 0.931 . S
H772 C754 0.931 . S
H773 C755 0.929 . S
H774 C756 0.930 . S
H775 C759 0.930 . S
H776 C760 0.931 . S
H777 C764 0.928 . S
H778 C763 0.929 . S
H779 C761 0.932 . S
C780 C781 1.386 . S
C780 C782 1.397 . S
C780 H804 0.931 . S
C781 C780 1.386 . S
C781 C785 1.397 . S
C782 C780 1.397 . S
C782 C783 1.384 . S
C782 H805 0.930 . S
C783 C782 1.384 . S
C783 C784 1.377 . S
C783 C786 1.481 . S
C784 C783 1.377 . S
C784 C785 1.389 . S
C784 H806 0.929 . S
C785 C781 1.397 . S
C785 C784 1.389 . S
C785 H807 0.931 . S
C786 C783 1.481 . S
C786 C787 1.387 . S
C786 C791 1.390 . S
C787 C786 1.387 . S
C787 C788 1.401 . S
C787 H808 0.930 . S
C788 C787 1.401 . S
C788 C789 1.376 . S
C788 C797 1.511 . S
C789 C788 1.376 . S
C789 C790 1.392 . S
C789 H810 0.931 . S
C790 C789 1.392 . S
C790 C791 1.361 . S
C790 C792 1.500 . S
C791 C786 1.390 . S
C791 C790 1.361 . S
C791 H809 0.931 . S
C792 C790 1.500 . S
C792 C793 1.371 . S
C792 C794 1.365 . S
C793 C792 1.371 . S
C793 C803 1.386 . S
C793 H811 0.931 . S
C794 C792 1.365 . S
C794 C795 1.409 . S
C794 H812 0.929 . S
C795 C794 1.409 . S
C795 C796 1.380 . S
C795 H813 0.930 . S
C796 C795 1.380 . S
C796 C803 1.357 . S
C797 C788 1.511 . S
C797 C798 1.341 . S
C797 C799 1.371 . S
C798 C797 1.341 . S
C798 C802 1.394 . S
C798 H814 0.930 . S
C799 C797 1.371 . S
C799 C800 1.392 . S
C799 H815 0.931 . S
C800 C799 1.392 . S
C800 C801 1.331 . S
C800 H818 0.932 . S
C801 C800 1.331 . S
C801 C802 1.336 . S
C802 C798 1.394 . S
C802 C801 1.336 . S
C802 H817 0.929 . S
C803 C793 1.386 . S
C803 C796 1.357 . S
C803 H816 0.928 . S
H804 C780 0.931 . S
H805 C782 0.930 . S
H806 C784 0.929 . S
H807 C785 0.931 . S
H808 C787 0.930 . S
H809 C791 0.931 . S
H810 C789 0.931 . S
H811 C793 0.931 . S
H812 C794 0.929 . S
H813 C795 0.930 . S
H814 C798 0.930 . S
H815 C799 0.931 . S
H816 C803 0.928 . S
H817 C802 0.929 . S
H818 C800 0.932 . S
C819 C820 1.386 . S
C819 C821 1.397 . S
C819 H843 0.931 . S
C820 C819 1.386 . S
C820 C824 1.397 . S
C821 C819 1.397 . S
C821 C822 1.384 . S
C821 H844 0.930 . S
C822 C821 1.384 . S
C822 C823 1.377 . S
C822 C825 1.481 . S
C823 C822 1.377 . S
C823 C824 1.389 . S
C823 H845 0.929 . S
C824 C820 1.397 . S
C824 C823 1.389 . S
C824 H846 0.931 . S
C825 C822 1.481 . S
C825 C826 1.387 . S
C825 C830 1.390 . S
C826 C825 1.387 . S
C826 C827 1.401 . S
C826 H847 0.930 . S
C827 C826 1.401 . S
C827 C828 1.376 . S
C827 C836 1.511 . S
C828 C827 1.376 . S
C828 C829 1.392 . S
C828 H849 0.931 . S
C829 C828 1.392 . S
C829 C830 1.361 . S
C829 C831 1.500 . S
C830 C825 1.390 . S
C830 C829 1.361 . S
C830 H848 0.931 . S
C831 C829 1.500 . S
C831 C832 1.371 . S
C831 C833 1.365 . S
C832 C831 1.371 . S
C832 C842 1.386 . S
C832 H850 0.931 . S
C833 C831 1.365 . S
C833 C834 1.409 . S
C833 H851 0.929 . S
C834 C833 1.409 . S
C834 C835 1.380 . S
C834 H852 0.930 . S
C835 C834 1.380 . S
C835 C842 1.357 . S
C836 C827 1.511 . S
C836 C837 1.341 . S
C836 C838 1.371 . S
C837 C836 1.341 . S
C837 C841 1.394 . S
C837 H853 0.930 . S
C838 C836 1.371 . S
C838 C839 1.392 . S
C838 H854 0.931 . S
C839 C838 1.392 . S
C839 C840 1.331 . S
C839 H857 0.932 . S
C840 C839 1.331 . S
C840 C841 1.336 . S
C841 C837 1.394 . S
C841 C840 1.336 . S
C841 H856 0.929 . S
C842 C832 1.386 . S
C842 C835 1.357 . S
C842 H855 0.928 . S
H843 C819 0.931 . S
H844 C821 0.930 . S
H845 C823 0.929 . S
H846 C824 0.931 . S
H847 C826 0.930 . S
H848 C830 0.931 . S
H849 C828 0.931 . S
H850 C832 0.931 . S
H851 C833 0.929 . S
H852 C834 0.930 . S
H853 C837 0.930 . S
H854 C838 0.931 . S
H855 C842 0.928 . S
H856 C841 0.929 . S
H857 C839 0.932 . S
C858 C859 1.386 . S
C858 C860 1.397 . S
C858 H882 0.931 . S
C859 C858 1.386 . S
C859 C863 1.397 . S
C860 C858 1.397 . S
C860 C861 1.384 . S
C860 H883 0.930 . S
C861 C860 1.384 . S
C861 C862 1.377 . S
C861 C864 1.481 . S
C862 C861 1.377 . S
C862 C863 1.389 . S
C862 H884 0.929 . S
C863 C859 1.397 . S
C863 C862 1.389 . S
C863 H885 0.931 . S
C864 C861 1.481 . S
C864 C865 1.387 . S
C864 C869 1.390 . S
C865 C864 1.387 . S
C865 C866 1.401 . S
C865 H886 0.930 . S
C866 C865 1.401 . S
C866 C867 1.376 . S
C866 C875 1.511 . S
C867 C866 1.376 . S
C867 C868 1.392 . S
C867 H888 0.931 . S
C868 C867 1.392 . S
C868 C869 1.361 . S
C868 C870 1.500 . S
C869 C864 1.390 . S
C869 C868 1.361 . S
C869 H887 0.931 . S
C870 C868 1.500 . S
C870 C871 1.371 . S
C870 C872 1.365 . S
C871 C870 1.371 . S
C871 C881 1.386 . S
C871 H889 0.931 . S
C872 C870 1.365 . S
C872 C873 1.409 . S
C872 H890 0.929 . S
C873 C872 1.409 . S
C873 C874 1.380 . S
C873 H891 0.930 . S
C874 C873 1.380 . S
C874 C881 1.357 . S
C875 C866 1.511 . S
C875 C876 1.341 . S
C875 C877 1.371 . S
C876 C875 1.341 . S
C876 C880 1.394 . S
C876 H892 0.930 . S
C877 C875 1.371 . S
C877 C878 1.392 . S
C877 H893 0.931 . S
C878 C877 1.392 . S
C878 C879 1.331 . S
C878 H896 0.932 . S
C879 C878 1.331 . S
C879 C880 1.336 . S
C880 C876 1.394 . S
C880 C879 1.336 . S
C880 H895 0.929 . S
C881 C871 1.386 . S
C881 C874 1.357 . S
C881 H894 0.928 . S
H882 C858 0.931 . S
H883 C860 0.930 . S
H884 C862 0.929 . S
H885 C863 0.931 . S
H886 C865 0.930 . S
H887 C869 0.931 . S
H888 C867 0.931 . S
H889 C871 0.931 . S
H890 C872 0.929 . S
H891 C873 0.930 . S
H892 C876 0.930 . S
H893 C877 0.931 . S
H894 C881 0.928 . S
H895 C880 0.929 . S
H896 C878 0.932 . S
C897 C898 1.386 . S
C897 C899 1.397 . S
C897 H921 0.931 . S
C898 C897 1.386 . S
C898 C902 1.397 . S
C899 C897 1.397 . S
C899 C900 1.384 . S
C899 H922 0.930 . S
C900 C899 1.384 . S
C900 C901 1.377 . S
C900 C903 1.481 . S
C901 C900 1.377 . S
C901 C902 1.389 . S
C901 H923 0.929 . S
C902 C898 1.397 . S
C902 C901 1.389 . S
C902 H924 0.931 . S
C903 C900 1.481 . S
C903 C904 1.387 . S
C903 C908 1.390 . S
C904 C903 1.387 . S
C904 C905 1.401 . S
C904 H925 0.930 . S
C905 C904 1.401 . S
C905 C906 1.376 . S
C905 C914 1.511 . S
C906 C905 1.376 . S
C906 C907 1.392 . S
C906 H927 0.931 . S
C907 C906 1.392 . S
C907 C908 1.361 . S
C907 C909 1.500 . S
C908 C903 1.390 . S
C908 C907 1.361 . S
C908 H926 0.931 . S
C909 C907 1.500 . S
C909 C910 1.371 . S
C909 C911 1.365 . S
C910 C909 1.371 . S
C910 C920 1.386 . S
C910 H928 0.931 . S
C911 C909 1.365 . S
C911 C912 1.409 . S
C911 H929 0.929 . S
C912 C911 1.409 . S
C912 C913 1.380 . S
C912 H930 0.930 . S
C913 C912 1.380 . S
C913 C920 1.357 . S
C914 C905 1.511 . S
C914 C915 1.341 . S
C914 C916 1.371 . S
C915 C914 1.341 . S
C915 C919 1.394 . S
C915 H931 0.930 . S
C916 C914 1.371 . S
C916 C917 1.392 . S
C916 H932 0.931 . S
C917 C916 1.392 . S
C917 C918 1.331 . S
C917 H935 0.932 . S
C918 C917 1.331 . S
C918 C919 1.336 . S
C919 C915 1.394 . S
C919 C918 1.336 . S
C919 H934 0.929 . S
C920 C910 1.386 . S
C920 C913 1.357 . S
C920 H933 0.928 . S
H921 C897 0.931 . S
H922 C899 0.930 . S
H923 C901 0.929 . S
H924 C902 0.931 . S
H925 C904 0.930 . S
H926 C908 0.931 . S
H927 C906 0.931 . S
H928 C910 0.931 . S
H929 C911 0.929 . S
H930 C912 0.930 . S
H931 C915 0.930 . S
H932 C916 0.931 . S
H933 C920 0.928 . S
H934 C919 0.929 . S
H935 C917 0.932 . S
C936 C937 1.386 . S
C936 C938 1.397 . S
C936 H960 0.931 . S
C937 C936 1.386 . S
C937 C941 1.397 . S
C938 C936 1.397 . S
C938 C939 1.384 . S
C938 H961 0.930 . S
C939 C938 1.384 . S
C939 C940 1.377 . S
C939 C942 1.481 . S
C940 C939 1.377 . S
C940 C941 1.389 . S
C940 H962 0.929 . S
C941 C937 1.397 . S
C941 C940 1.389 . S
C941 H963 0.931 . S
C942 C939 1.481 . S
C942 C943 1.387 . S
C942 C947 1.390 . S
C943 C942 1.387 . S
C943 C944 1.401 . S
C943 H964 0.930 . S
C944 C943 1.401 . S
C944 C945 1.376 . S
C944 C953 1.511 . S
C945 C944 1.376 . S
C945 C946 1.392 . S
C945 H966 0.931 . S
C946 C945 1.392 . S
C946 C947 1.361 . S
C946 C948 1.500 . S
C947 C942 1.390 . S
C947 C946 1.361 . S
C947 H965 0.931 . S
C948 C946 1.500 . S
C948 C949 1.371 . S
C948 C950 1.365 . S
C949 C948 1.371 . S
C949 C959 1.386 . S
C949 H967 0.931 . S
C950 C948 1.365 . S
C950 C951 1.409 . S
C950 H968 0.929 . S
C951 C950 1.409 . S
C951 C952 1.380 . S
C951 H969 0.930 . S
C952 C951 1.380 . S
C952 C959 1.357 . S
C953 C944 1.511 . S
C953 C954 1.341 . S
C953 C955 1.371 . S
C954 C953 1.341 . S
C954 C958 1.394 . S
C954 H970 0.930 . S
C955 C953 1.371 . S
C955 C956 1.392 . S
C955 H971 0.931 . S
C956 C955 1.392 . S
C956 C957 1.331 . S
C956 H974 0.932 . S
C957 C956 1.331 . S
C957 C958 1.336 . S
C958 C954 1.394 . S
C958 C957 1.336 . S
C958 H973 0.929 . S
C959 C949 1.386 . S
C959 C952 1.357 . S
C959 H972 0.928 . S
H960 C936 0.931 . S
H961 C938 0.930 . S
H962 C940 0.929 . S
H963 C941 0.931 . S
H964 C943 0.930 . S
H965 C947 0.931 . S
H966 C945 0.931 . S
H967 C949 0.931 . S
H968 C950 0.929 . S
H969 C951 0.930 . S
H970 C954 0.930 . S
H971 C955 0.931 . S
H972 C959 0.928 . S
H973 C958 0.929 . S
H974 C956 0.932 . S
C975 C976 1.386 . S
C975 C977 1.397 . S
C975 H999 0.931 . S
C976 C975 1.386 . S
C976 C980 1.397 . S
C977 C975 1.397 . S
C977 C978 1.384 . S
C977 H1000 0.930 . S
C978 C977 1.384 . S
C978 C979 1.377 . S
C978 C981 1.481 . S
C979 C978 1.377 . S
C979 C980 1.389 . S
C979 H1001 0.929 . S
C980 C976 1.397 . S
C980 C979 1.389 . S
C980 H1002 0.931 . S
C981 C978 1.481 . S
C981 C982 1.387 . S
C981 C986 1.390 . S
C982 C981 1.387 . S
C982 C983 1.401 . S
C982 H1003 0.930 . S
C983 C982 1.401 . S
C983 C984 1.376 . S
C983 C992 1.511 . S
C984 C983 1.376 . S
C984 C985 1.392 . S
C984 H1005 0.931 . S
C985 C984 1.392 . S
C985 C986 1.361 . S
C985 C987 1.500 . S
C986 C981 1.390 . S
C986 C985 1.361 . S
C986 H1004 0.931 . S
C987 C985 1.500 . S
C987 C988 1.371 . S
C987 C989 1.365 . S
C988 C987 1.371 . S
C988 C998 1.386 . S
C988 H1006 0.931 . S
C989 C987 1.365 . S
C989 C990 1.409 . S
C989 H1007 0.929 . S
C990 C989 1.409 . S
C990 C991 1.380 . S
C990 H1008 0.930 . S
C991 C990 1.380 . S
C991 C998 1.357 . S
C992 C983 1.511 . S
C992 C993 1.341 . S
C992 C994 1.371 . S
C993 C992 1.341 . S
C993 C997 1.394 . S
C993 H1009 0.930 . S
C994 C992 1.371 . S
C994 C995 1.392 . S
C994 H1010 0.931 . S
C995 C994 1.392 . S
C995 C996 1.331 . S
C995 H1013 0.932 . S
C996 C995 1.331 . S
C996 C997 1.336 . S
C997 C993 1.394 . S
C997 C996 1.336 . S
C997 H1012 0.929 . S
C998 C988 1.386 . S
C998 C991 1.357 . S
C998 H1011 0.928 . S
H999 C975 0.931 . S
H1000 C977 0.930 . S
H1001 C979 0.929 . S
H1002 C980 0.931 . S
H1003 C982 0.930 . S
H1004 C986 0.931 . S
H1005 C984 0.931 . S
H1006 C988 0.931 . S
H1007 C989 0.929 . S
H1008 C990 0.930 . S
H1009 C993 0.930 . S
H1010 C994 0.931 . S
H1011 C998 0.928 . S
H1012 C997 0.929 . S
H1013 C995 0.932 . S
C1014 C1015 1.386 . S
C1014 C1016 1.397 . S
C1014 H1038 0.931 . S
C1015 C1014 1.386 . S
C1015 C1019 1.397 . S
C1016 C1014 1.397 . S
C1016 C1017 1.384 . S
C1016 H1039 0.930 . S
C1017 C1016 1.384 . S
C1017 C1018 1.377 . S
C1017 C1020 1.481 . S
C1018 C1017 1.377 . S
C1018 C1019 1.389 . S
C1018 H1040 0.929 . S
C1019 C1015 1.397 . S
C1019 C1018 1.389 . S
C1019 H1041 0.931 . S
C1020 C1017 1.481 . S
C1020 C1021 1.387 . S
C1020 C1025 1.390 . S
C1021 C1020 1.387 . S
C1021 C1022 1.401 . S
C1021 H1042 0.930 . S
C1022 C1021 1.401 . S
C1022 C1023 1.376 . S
C1022 C1031 1.511 . S
C1023 C1022 1.376 . S
C1023 C1024 1.392 . S
C1023 H1044 0.931 . S
C1024 C1023 1.392 . S
C1024 C1025 1.361 . S
C1024 C1026 1.500 . S
C1025 C1020 1.390 . S
C1025 C1024 1.361 . S
C1025 H1043 0.931 . S
C1026 C1024 1.500 . S
C1026 C1027 1.371 . S
C1026 C1028 1.365 . S
C1027 C1026 1.371 . S
C1027 C1037 1.386 . S
C1027 H1045 0.931 . S
C1028 C1026 1.365 . S
C1028 C1029 1.409 . S
C1028 H1046 0.929 . S
C1029 C1028 1.409 . S
C1029 C1030 1.380 . S
C1029 H1047 0.930 . S
C1030 C1029 1.380 . S
C1030 C1037 1.357 . S
C1031 C1022 1.511 . S
C1031 C1032 1.341 . S
C1031 C1033 1.371 . S
C1032 C1031 1.341 . S
C1032 C1036 1.394 . S
C1032 H1048 0.930 . S
C1033 C1031 1.371 . S
C1033 C1034 1.392 . S
C1033 H1049 0.931 . S
C1034 C1033 1.392 . S
C1034 C1035 1.331 . S
C1034 H1052 0.932 . S
C1035 C1034 1.331 . S
C1035 C1036 1.336 . S
C1036 C1032 1.394 . S
C1036 C1035 1.336 . S
C1036 H1051 0.929 . S
C1037 C1027 1.386 . S
C1037 C1030 1.357 . S
C1037 H1050 0.928 . S
H1038 C1014 0.931 . S
H1039 C1016 0.930 . S
H1040 C1018 0.929 . S
H1041 C1019 0.931 . S
H1042 C1021 0.930 . S
H1043 C1025 0.931 . S
H1044 C1023 0.931 . S
H1045 C1027 0.931 . S
H1046 C1028 0.929 . S
H1047 C1029 0.930 . S
H1048 C1032 0.930 . S
H1049 C1033 0.931 . S
H1050 C1037 0.928 . S
H1051 C1036 0.929 . S
H1052 C1034 0.932 . S
C1053 C1054 1.386 . S
C1053 C1055 1.397 . S
C1053 H1077 0.931 . S
C1054 C1053 1.386 . S
C1054 C1058 1.397 . S
C1055 C1053 1.397 . S
C1055 C1056 1.384 . S
C1055 H1078 0.930 . S
C1056 C1055 1.384 . S
C1056 C1057 1.377 . S
C1056 C1059 1.481 . S
C1057 C1056 1.377 . S
C1057 C1058 1.389 . S
C1057 H1079 0.929 . S
C1058 C1054 1.397 . S
C1058 C1057 1.389 . S
C1058 H1080 0.931 . S
C1059 C1056 1.481 . S
C1059 C1060 1.387 . S
C1059 C1064 1.390 . S
C1060 C1059 1.387 . S
C1060 C1061 1.401 . S
C1060 H1081 0.930 . S
C1061 C1060 1.401 . S
C1061 C1062 1.376 . S
C1061 C1070 1.511 . S
C1062 C1061 1.376 . S
C1062 C1063 1.392 . S
C1062 H1083 0.931 . S
C1063 C1062 1.392 . S
C1063 C1064 1.361 . S
C1063 C1065 1.500 . S
C1064 C1059 1.390 . S
C1064 C1063 1.361 . S
C1064 H1082 0.931 . S
C1065 C1063 1.500 . S
C1065 C1066 1.371 . S
C1065 C1067 1.365 . S
C1066 C1065 1.371 . S
C1066 C1076 1.386 . S
C1066 H1084 0.931 . S
C1067 C1065 1.365 . S
C1067 C1068 1.409 . S
C1067 H1085 0.929 . S
C1068 C1067 1.409 . S
C1068 C1069 1.380 . S
C1068 H1086 0.930 . S
C1069 C1068 1.380 . S
C1069 C1076 1.357 . S
C1070 C1061 1.511 . S
C1070 C1071 1.341 . S
C1070 C1072 1.371 . S
C1071 C1070 1.341 . S
C1071 C1075 1.394 . S
C1071 H1087 0.930 . S
C1072 C1070 1.371 . S
C1072 C1073 1.392 . S
C1072 H1088 0.931 . S
C1073 C1072 1.392 . S
C1073 C1074 1.331 . S
C1073 H1091 0.932 . S
C1074 C1073 1.331 . S
C1074 C1075 1.336 . S
C1075 C1071 1.394 . S
C1075 C1074 1.336 . S
C1075 H1090 0.929 . S
C1076 C1066 1.386 . S
C1076 C1069 1.357 . S
C1076 H1089 0.928 . S
H1077 C1053 0.931 . S
H1078 C1055 0.930 . S
H1079 C1057 0.929 . S
H1080 C1058 0.931 . S
H1081 C1060 0.930 . S
H1082 C1064 0.931 . S
H1083 C1062 0.931 . S
H1084 C1066 0.931 . S
H1085 C1067 0.929 . S
H1086 C1068 0.930 . S
H1087 C1071 0.930 . S
H1088 C1072 0.931 . S
H1089 C1076 0.928 . S
H1090 C1075 0.929 . S
H1091 C1073 0.932 . S
C1092 C1093 1.386 . S
C1092 C1094 1.397 . S
C1092 H1116 0.931 . S
C1093 C1092 1.386 . S
C1093 C1097 1.397 . S
C1094 C1092 1.397 . S
C1094 C1095 1.384 . S
C1094 H1117 0.930 . S
C1095 C1094 1.384 . S
C1095 C1096 1.377 . S
C1095 C1098 1.481 . S
C1096 C1095 1.377 . S
C1096 C1097 1.389 . S
C1096 H1118 0.929 . S
C1097 C1093 1.397 . S
C1097 C1096 1.389 . S
C1097 H1119 0.931 . S
C1098 C1095 1.481 . S
C1098 C1099 1.387 . S
C1098 C1103 1.390 . S
C1099 C1098 1.387 . S
C1099 C1100 1.401 . S
C1099 H1120 0.930 . S
C1100 C1099 1.401 . S
C1100 C1101 1.376 . S
C1100 C1109 1.511 . S
C1101 C1100 1.376 . S
C1101 C1102 1.392 . S
C1101 H1122 0.931 . S
C1102 C1101 1.392 . S
C1102 C1103 1.361 . S
C1102 C1104 1.500 . S
C1103 C1098 1.390 . S
C1103 C1102 1.361 . S
C1103 H1121 0.931 . S
C1104 C1102 1.500 . S
C1104 C1105 1.371 . S
C1104 C1106 1.365 . S
C1105 C1104 1.371 . S
C1105 C1115 1.386 . S
C1105 H1123 0.931 . S
C1106 C1104 1.365 . S
C1106 C1107 1.409 . S
C1106 H1124 0.929 . S
C1107 C1106 1.409 . S
C1107 C1108 1.380 . S
C1107 H1125 0.930 . S
C1108 C1107 1.380 . S
C1108 C1115 1.357 . S
C1109 C1100 1.511 . S
C1109 C1110 1.341 . S
C1109 C1111 1.371 . S
C1110 C1109 1.341 . S
C1110 C1114 1.394 . S
C1110 H1126 0.930 . S
C1111 C1109 1.371 . S
C1111 C1112 1.392 . S
C1111 H1127 0.931 . S
C1112 C1111 1.392 . S
C1112 C1113 1.331 . S
C1112 H1130 0.932 . S
C1113 C1112 1.331 . S
C1113 C1114 1.336 . S
C1114 C1110 1.394 . S
C1114 C1113 1.336 . S
C1114 H1129 0.929 . S
C1115 C1105 1.386 . S
C1115 C1108 1.357 . S
C1115 H1128 0.928 . S
H1116 C1092 0.931 . S
H1117 C1094 0.930 . S
H1118 C1096 0.929 . S
H1119 C1097 0.931 . S
H1120 C1099 0.930 . S
H1121 C1103 0.931 . S
H1122 C1101 0.931 . S
H1123 C1105 0.931 . S
H1124 C1106 0.929 . S
H1125 C1107 0.930 . S
H1126 C1110 0.930 . S
H1127 C1111 0.931 . S
H1128 C1115 0.928 . S
H1129 C1114 0.929 . S
H1130 C1112 0.932 . S
C1131 C1132 1.386 . S
C1131 C1133 1.397 . S
C1131 H1155 0.931 . S
C1132 C1131 1.386 . S
C1132 C1136 1.397 . S
C1133 C1131 1.397 . S
C1133 C1134 1.384 . S
C1133 H1156 0.930 . S
C1134 C1133 1.384 . S
C1134 C1135 1.377 . S
C1134 C1137 1.481 . S
C1135 C1134 1.377 . S
C1135 C1136 1.389 . S
C1135 H1157 0.929 . S
C1136 C1132 1.397 . S
C1136 C1135 1.389 . S
C1136 H1158 0.931 . S
C1137 C1134 1.481 . S
C1137 C1138 1.387 . S
C1137 C1142 1.390 . S
C1138 C1137 1.387 . S
C1138 C1139 1.401 . S
C1138 H1159 0.930 . S
C1139 C1138 1.401 . S
C1139 C1140 1.376 . S
C1139 C1148 1.511 . S
C1140 C1139 1.376 . S
C1140 C1141 1.392 . S
C1140 H1161 0.931 . S
C1141 C1140 1.392 . S
C1141 C1142 1.361 . S
C1141 C1143 1.500 . S
C1142 C1137 1.390 . S
C1142 C1141 1.361 . S
C1142 H1160 0.931 . S
C1143 C1141 1.500 . S
C1143 C1144 1.371 . S
C1143 C1145 1.365 . S
C1144 C1143 1.371 . S
C1144 C1154 1.386 . S
C1144 H1162 0.931 . S
C1145 C1143 1.365 . S
C1145 C1146 1.409 . S
C1145 H1163 0.929 . S
C1146 C1145 1.409 . S
C1146 C1147 1.380 . S
C1146 H1164 0.930 . S
C1147 C1146 1.380 . S
C1147 C1154 1.357 . S
C1148 C1139 1.511 . S
C1148 C1149 1.341 . S
C1148 C1150 1.371 . S
C1149 C1148 1.341 . S
C1149 C1153 1.394 . S
C1149 H1165 0.930 . S
C1150 C1148 1.371 . S
C1150 C1151 1.392 . S
C1150 H1166 0.931 . S
C1151 C1150 1.392 . S
C1151 C1152 1.331 . S
C1151 H1169 0.932 . S
C1152 C1151 1.331 . S
C1152 C1153 1.336 . S
C1153 C1149 1.394 . S
C1153 C1152 1.336 . S
C1153 H1168 0.929 . S
C1154 C1144 1.386 . S
C1154 C1147 1.357 . S
C1154 H1167 0.928 . S
H1155 C1131 0.931 . S
H1156 C1133 0.930 . S
H1157 C1135 0.929 . S
H1158 C1136 0.931 . S
H1159 C1138 0.930 . S
H1160 C1142 0.931 . S
H1161 C1140 0.931 . S
H1162 C1144 0.931 . S
H1163 C1145 0.929 . S
H1164 C1146 0.930 . S
H1165 C1149 0.930 . S
H1166 C1150 0.931 . S
H1167 C1154 0.928 . S
H1168 C1153 0.929 . S
H1169 C1151 0.932 . S
C1170 C1171 1.386 . S
C1170 C1172 1.397 . S
C1170 H1194 0.931 . S
C1171 C1170 1.386 . S
C1171 C1175 1.397 . S
C1172 C1170 1.397 . S
C1172 C1173 1.384 . S
C1172 H1195 0.930 . S
C1173 C1172 1.384 . S
C1173 C1174 1.377 . S
C1173 C1176 1.481 . S
C1174 C1173 1.377 . S
C1174 C1175 1.389 . S
C1174 H1196 0.929 . S
C1175 C1171 1.397 . S
C1175 C1174 1.389 . S
C1175 H1197 0.931 . S
C1176 C1173 1.481 . S
C1176 C1177 1.387 . S
C1176 C1181 1.390 . S
C1177 C1176 1.387 . S
C1177 C1178 1.401 . S
C1177 H1198 0.930 . S
C1178 C1177 1.401 . S
C1178 C1179 1.376 . S
C1178 C1187 1.511 . S
C1179 C1178 1.376 . S
C1179 C1180 1.392 . S
C1179 H1200 0.931 . S
C1180 C1179 1.392 . S
C1180 C1181 1.361 . S
C1180 C1182 1.500 . S
C1181 C1176 1.390 . S
C1181 C1180 1.361 . S
C1181 H1199 0.931 . S
C1182 C1180 1.500 . S
C1182 C1183 1.371 . S
C1182 C1184 1.365 . S
C1183 C1182 1.371 . S
C1183 C1193 1.386 . S
C1183 H1201 0.931 . S
C1184 C1182 1.365 . S
C1184 C1185 1.409 . S
C1184 H1202 0.929 . S
C1185 C1184 1.409 . S
C1185 C1186 1.380 . S
C1185 H1203 0.930 . S
C1186 C1185 1.380 . S
C1186 C1193 1.357 . S
C1187 C1178 1.511 . S
C1187 C1188 1.341 . S
C1187 C1189 1.371 . S
C1188 C1187 1.341 . S
C1188 C1192 1.394 . S
C1188 H1204 0.930 . S
C1189 C1187 1.371 . S
C1189 C1190 1.392 . S
C1189 H1205 0.931 . S
C1190 C1189 1.392 . S
C1190 C1191 1.331 . S
C1190 H1208 0.932 . S
C1191 C1190 1.331 . S
C1191 C1192 1.336 . S
C1192 C1188 1.394 . S
C1192 C1191 1.336 . S
C1192 H1207 0.929 . S
C1193 C1183 1.386 . S
C1193 C1186 1.357 . S
C1193 H1206 0.928 . S
H1194 C1170 0.931 . S
H1195 C1172 0.930 . S
H1196 C1174 0.929 . S
H1197 C1175 0.931 . S
H1198 C1177 0.930 . S
H1199 C1181 0.931 . S
H1200 C1179 0.931 . S
H1201 C1183 0.931 . S
H1202 C1184 0.929 . S
H1203 C1185 0.930 . S
H1204 C1188 0.930 . S
H1205 C1189 0.931 . S
H1206 C1193 0.928 . S
H1207 C1192 0.929 . S
H1208 C1190 0.932 . S
C1209 C1210 1.386 . S
C1209 C1211 1.397 . S
C1209 H1233 0.931 . S
C1210 C1209 1.386 . S
C1210 C1214 1.397 . S
C1211 C1209 1.397 . S
C1211 C1212 1.384 . S
C1211 H1234 0.930 . S
C1212 C1211 1.384 . S
C1212 C1213 1.377 . S
C1212 C1215 1.481 . S
C1213 C1212 1.377 . S
C1213 C1214 1.389 . S
C1213 H1235 0.929 . S
C1214 C1210 1.397 . S
C1214 C1213 1.389 . S
C1214 H1236 0.931 . S
C1215 C1212 1.481 . S
C1215 C1216 1.387 . S
C1215 C1220 1.390 . S
C1216 C1215 1.387 . S
C1216 C1217 1.401 . S
C1216 H1237 0.930 . S
C1217 C1216 1.401 . S
C1217 C1218 1.376 . S
C1217 C1226 1.511 . S
C1218 C1217 1.376 . S
C1218 C1219 1.392 . S
C1218 H1239 0.931 . S
C1219 C1218 1.392 . S
C1219 C1220 1.361 . S
C1219 C1221 1.500 . S
C1220 C1215 1.390 . S
C1220 C1219 1.361 . S
C1220 H1238 0.931 . S
C1221 C1219 1.500 . S
C1221 C1222 1.371 . S
C1221 C1223 1.365 . S
C1222 C1221 1.371 . S
C1222 C1232 1.386 . S
C1222 H1240 0.931 . S
C1223 C1221 1.365 . S
C1223 C1224 1.409 . S
C1223 H1241 0.929 . S
C1224 C1223 1.409 . S
C1224 C1225 1.380 . S
C1224 H1242 0.930 . S
C1225 C1224 1.380 . S
C1225 C1232 1.357 . S
C1226 C1217 1.511 . S
C1226 C1227 1.341 . S
C1226 C1228 1.371 . S
C1227 C1226 1.341 . S
C1227 C1231 1.394 . S
C1227 H1243 0.930 . S
C1228 C1226 1.371 . S
C1228 C1229 1.392 . S
C1228 H1244 0.931 . S
C1229 C1228 1.392 . S
C1229 C1230 1.331 . S
C1229 H1247 0.932 . S
C1230 C1229 1.331 . S
C1230 C1231 1.336 . S
C1231 C1227 1.394 . S
C1231 C1230 1.336 . S
C1231 H1246 0.929 . S
C1232 C1222 1.386 . S
C1232 C1225 1.357 . S
C1232 H1245 0.928 . S
H1233 C1209 0.931 . S
H1234 C1211 0.930 . S
H1235 C1213 0.929 . S
H1236 C1214 0.931 . S
H1237 C1216 0.930 . S
H1238 C1220 0.931 . S
H1239 C1218 0.931 . S
H1240 C1222 0.931 . S
H1241 C1223 0.929 . S
H1242 C1224 0.930 . S
H1243 C1227 0.930 . S
H1244 C1228 0.931 . S
H1245 C1232 0.928 . S
H1246 C1231 0.929 . S
H1247 C1229 0.932 . S
Cu1248 N1249 1.999 . S
Cu1248 O1254 1.974 1_554 S
Cu1248 N1259 1.985 . S
Cu1248 O1268 1.959 . S
N1249 Cu1248 1.999 . S
N1249 C1251 1.263 1_554 S
N1249 C1253 1.389 . S
N1250 C1251 1.358 . S
N1250 C1252 1.400 . S
C1251 N1249 1.263 1_556 S
C1251 N1250 1.358 . S
C1251 H1257 0.930 . S
C1252 N1250 1.400 . S
C1252 C1253 1.351 1_556 S
C1252 H1269 0.930 . S
C1253 N1249 1.389 . S
C1253 C1252 1.351 1_554 S
C1253 H1258 0.930 . S
O1254 Cu1248 1.974 1_556 S
O1254 C1264 1.282 . S
C1255 O1256 1.261 . S
C1255 O1268 1.251 . S
O1256 C1255 1.261 . S
H1257 C1251 0.930 . S
H1258 C1253 0.930 . S
N1259 Cu1248 1.985 . S
N1259 C1261 1.335 . S
N1259 C1262 1.390 . S
N1260 C1261 1.345 . S
N1260 C1263 1.336 . S
C1261 N1259 1.335 . S
C1261 N1260 1.345 . S
C1261 H1266 0.930 . S
C1262 N1259 1.390 . S
C1262 C1263 1.346 . S
C1262 H1267 0.930 . S
C1263 N1260 1.336 . S
C1263 C1262 1.346 . S
C1263 H1270 0.929 . S
C1264 O1254 1.282 . S
C1264 O1265 1.216 . S
O1265 C1264 1.216 . S
H1266 C1261 0.930 . S
H1267 C1262 0.930 . S
O1268 Cu1248 1.959 . S
O1268 C1255 1.251 . S
H1269 C1252 0.930 . S
H1270 C1263 0.929 . S
Cu1271 N1272 1.999 . S
Cu1271 O1277 1.974 . S
Cu1271 N1282 1.985 1_554 S
Cu1271 O1291 1.959 1_554 S
N1272 Cu1271 1.999 . S
N1272 C1274 1.263 . S
N1272 C1276 1.389 . S
N1273 C1274 1.358 . S
N1273 C1275 1.400 . S
C1274 N1272 1.263 . S
C1274 N1273 1.358 . S
C1274 H1280 0.930 . S
C1275 N1273 1.400 . S
C1275 C1276 1.351 . S
C1275 H1292 0.930 . S
C1276 N1272 1.389 . S
C1276 C1275 1.351 . S
C1276 H1281 0.930 . S
O1277 Cu1271 1.974 . S
O1277 C1287 1.282 . S
C1278 O1279 1.261 . S
C1278 O1291 1.251 . S
O1279 C1278 1.261 . S
H1280 C1274 0.930 . S
H1281 C1276 0.930 . S
N1282 Cu1271 1.985 1_556 S
N1282 C1284 1.335 . S
N1282 C1285 1.390 . S
N1283 C1284 1.345 . S
N1283 C1286 1.336 . S
C1284 N1282 1.335 . S
C1284 N1283 1.345 . S
C1284 H1289 0.930 . S
C1285 N1282 1.390 . S
C1285 C1286 1.346 . S
C1285 H1290 0.930 1_556 S
C1286 N1283 1.336 . S
C1286 C1285 1.346 . S
C1286 H1293 0.929 . S
C1287 O1277 1.282 . S
C1287 O1288 1.216 . S
O1288 C1287 1.216 . S
H1289 C1284 0.930 . S
H1290 C1285 0.930 1_554 S
O1291 Cu1271 1.959 1_556 S
O1291 C1278 1.251 . S
H1292 C1275 0.930 . S
H1293 C1286 0.929 . S
Cu1294 N1295 1.965 1_554 S
Cu1294 O1300 1.932 1_554 S
Cu1294 N1305 2.019 . S
Cu1294 O1314 2.001 . S
N1295 Cu1294 1.965 1_556 S
N1295 C1297 1.263 . S
N1295 C1299 1.389 . S
N1296 C1297 1.358 . S
N1296 C1298 1.400 . S
C1297 N1295 1.263 . S
C1297 N1296 1.358 . S
C1297 H1303 0.930 . S
C1298 N1296 1.400 . S
C1298 C1299 1.351 . S
C1298 H1315 0.930 . S
C1299 N1295 1.389 . S
C1299 C1298 1.351 . S
C1299 H1304 0.930 . S
O1300 Cu1294 1.932 1_556 S
O1300 C1310 1.282 . S
C1301 O1302 1.261 . S
C1301 O1314 1.251 . S
O1302 C1301 1.261 . S
H1303 C1297 0.930 . S
H1304 C1299 0.930 . S
N1305 Cu1294 2.019 . S
N1305 C1307 1.335 . S
N1305 C1308 1.390 . S
N1306 C1307 1.345 . S
N1306 C1309 1.336 . S
C1307 N1305 1.335 . S
C1307 N1306 1.345 . S
C1307 H1312 0.930 . S
C1308 N1305 1.390 . S
C1308 C1309 1.346 . S
C1308 H1313 0.964 . S
C1309 N1306 1.336 . S
C1309 C1308 1.346 . S
C1309 H1316 0.929 . S
C1310 O1300 1.282 . S
C1310 O1311 1.216 . S
O1311 C1310 1.216 . S
H1312 C1307 0.930 . S
H1313 C1308 0.964 . S
O1314 Cu1294 2.001 . S
O1314 C1301 1.251 . S
H1315 C1298 0.930 . S
H1316 C1309 0.929 . S
Cu1317 N1318 2.045 . S
Cu1317 O1323 2.028 . S
Cu1317 N1328 1.942 1_554 S
Cu1317 O1337 1.907 1_554 S
N1318 Cu1317 2.045 . S
N1318 C1320 1.263 . S
N1318 C1322 1.389 . S
N1319 C1320 1.358 . S
N1319 C1321 1.400 . S
C1320 N1318 1.263 . S
C1320 N1319 1.358 . S
C1320 H1326 0.930 . S
C1321 N1319 1.400 . S
C1321 C1322 1.351 . S
C1321 H1338 0.930 . S
C1322 N1318 1.389 . S
C1322 C1321 1.351 . S
C1322 H1327 0.930 . S
O1323 Cu1317 2.028 . S
O1323 C1333 1.282 . S
C1324 O1325 1.261 . S
C1324 O1337 1.251 . S
O1325 C1324 1.261 . S
H1326 C1320 0.930 . S
H1327 C1322 0.930 . S
N1328 Cu1317 1.942 1_556 S
N1328 C1330 1.335 . S
N1328 C1331 1.390 . S
N1329 C1330 1.345 . S
N1329 C1332 1.336 . S
C1330 N1328 1.335 . S
C1330 N1329 1.345 . S
C1330 H1335 0.930 . S
C1331 N1328 1.390 . S
C1331 C1332 1.346 . S
C1331 H1336 0.882 1_556 S
C1332 N1329 1.336 . S
C1332 C1331 1.346 . S
C1332 H1339 0.929 . S
C1333 O1323 1.282 . S
C1333 O1334 1.216 . S
O1334 C1333 1.216 . S
H1335 C1330 0.930 . S
H1336 C1331 0.882 1_554 S
O1337 Cu1317 1.907 1_556 S
O1337 C1324 1.251 . S
H1338 C1321 0.930 . S
H1339 C1332 0.929 . S
Cu1340 N1341 1.999 . S
Cu1340 O1346 1.974 . S
Cu1340 N1351 1.985 1_455 S
Cu1340 O1360 1.959 1_455 S
N1341 Cu1340 1.999 . S
N1341 C1343 1.263 . S
N1341 C1345 1.389 . S
N1342 C1343 1.358 . S
N1342 C1344 1.400 . S
C1343 N1341 1.263 . S
C1343 N1342 1.358 . S
C1343 H1349 0.930 . S
C1344 N1342 1.400 . S
C1344 C1345 1.351 . S
C1344 H1361 0.930 . S
C1345 N1341 1.389 . S
C1345 C1344 1.351 . S
C1345 H1350 0.930 . S
O1346 Cu1340 1.974 . S
O1346 C1356 1.282 . S
C1347 O1348 1.261 . S
C1347 O1360 1.251 . S
O1348 C1347 1.261 . S
H1349 C1343 0.930 . S
H1350 C1345 0.930 . S
N1351 Cu1340 1.985 1_655 S
N1351 C1353 1.335 . S
N1351 C1354 1.388 1_655 S
N1352 C1353 1.345 . S
N1352 C1355 1.336 . S
C1353 N1351 1.335 . S
C1353 N1352 1.345 . S
C1353 H1358 0.930 . S
C1354 N1351 1.388 1_455 S
C1354 C1355 1.336 1_455 S
C1354 H1359 0.941 . S
C1355 N1352 1.336 . S
C1355 C1354 1.336 1_655 S
C1355 H1362 0.929 . S
C1356 O1346 1.282 . S
C1356 O1357 1.216 . S
O1357 C1356 1.216 . S
H1358 C1353 0.930 . S
H1359 C1354 0.941 . S
O1360 Cu1340 1.959 1_655 S
O1360 C1347 1.251 . S
H1361 C1344 0.930 . S
H1362 C1355 0.929 . S
Cu1363 N1364 1.999 . S
Cu1363 O1369 1.974 . S
Cu1363 N1374 1.985 1_545 S
Cu1363 O1383 1.959 1_545 S
N1364 Cu1363 1.999 . S
N1364 C1366 1.263 . S
N1364 C1368 1.389 . S
N1365 C1366 1.358 . S
N1365 C1367 1.400 . S
C1366 N1364 1.263 . S
C1366 N1365 1.358 . S
C1366 H1372 0.930 . S
C1367 N1365 1.400 . S
C1367 C1368 1.351 . S
C1367 H1384 0.930 . S
C1368 N1364 1.389 . S
C1368 C1367 1.351 . S
C1368 H1373 0.930 . S
O1369 Cu1363 1.974 . S
O1369 C1379 1.282 . S
C1370 O1371 1.261 . S
C1370 O1383 1.251 . S
O1371 C1370 1.261 . S
H1372 C1366 0.930 . S
H1373 C1368 0.930 . S
N1374 Cu1363 1.985 1_565 S
N1374 C1376 1.335 . S
N1374 C1377 1.390 . S
N1375 C1376 1.345 . S
N1375 C1378 1.336 . S
C1376 N1374 1.335 . S
C1376 N1375 1.345 . S
C1376 H1381 0.930 . S
C1377 N1374 1.390 . S
C1377 C1378 1.346 . S
C1377 H1382 0.930 1_565 S
C1378 N1375 1.336 . S
C1378 C1377 1.346 . S
C1378 H1385 0.929 . S
C1379 O1369 1.282 . S
C1379 O1380 1.216 . S
O1380 C1379 1.216 . S
H1381 C1376 0.930 . S
H1382 C1377 0.930 1_545 S
O1383 Cu1363 1.959 1_565 S
O1383 C1370 1.251 . S
H1384 C1367 0.930 . S
H1385 C1378 0.929 . S
Cu1386 N1387 2.003 1_455 S
Cu1386 O1392 1.978 1_455 S
Cu1386 N1397 1.982 . S
Cu1386 O1406 1.955 . S
N1387 Cu1386 2.003 1_655 S
N1387 C1389 1.263 . S
N1387 C1391 1.389 . S
N1388 C1389 1.358 . S
N1388 C1390 1.400 . S
C1389 N1387 1.263 . S
C1389 N1388 1.358 . S
C1389 H1395 0.930 . S
C1390 N1388 1.400 . S
C1390 C1391 1.351 . S
C1390 H1407 0.930 . S
C1391 N1387 1.389 . S
C1391 C1390 1.351 . S
C1391 H1396 0.930 . S
O1392 Cu1386 1.978 1_655 S
O1392 C1402 1.282 . S
C1393 O1394 1.261 . S
C1393 O1406 1.251 . S
O1394 C1393 1.261 . S
H1395 C1389 0.930 . S
H1396 C1391 0.930 . S
N1397 Cu1386 1.982 . S
N1397 C1399 1.335 . S
N1397 C1400 1.390 . S
N1398 C1399 1.345 . S
N1398 C1401 1.336 . S
C1399 N1397 1.335 . S
C1399 N1398 1.345 . S
C1399 H1404 0.930 . S
C1400 N1397 1.390 . S
C1400 C1401 1.346 . S
C1400 H1405 0.930 . S
C1401 N1398 1.336 . S
C1401 C1400 1.346 . S
C1401 H1408 0.929 . S
C1402 O1392 1.282 . S
C1402 O1403 1.216 . S
O1403 C1402 1.216 . S
H1404 C1399 0.930 . S
H1405 C1400 0.930 . S
O1406 Cu1386 1.955 . S
O1406 C1393 1.251 . S
H1407 C1390 0.930 . S
H1408 C1401 0.929 . S
Cu1409 N1410 1.985 1_565 S
Cu1409 O1415 1.956 1_565 S
Cu1409 N1420 1.998 . S
Cu1409 O1429 1.976 . S
N1410 Cu1409 1.985 1_545 S
N1410 C1412 1.263 . S
N1410 C1414 1.389 . S
N1411 C1412 1.358 . S
N1411 C1413 1.400 . S
C1412 N1410 1.263 . S
C1412 N1411 1.358 . S
C1412 H1418 0.930 . S
C1413 N1411 1.400 . S
C1413 C1414 1.351 . S
C1413 H1430 0.930 . S
C1414 N1410 1.389 . S
C1414 C1413 1.351 . S
C1414 H1419 0.930 . S
O1415 Cu1409 1.956 1_545 S
O1415 C1425 1.282 . S
C1416 O1417 1.261 . S
C1416 O1429 1.251 . S
O1417 C1416 1.261 . S
H1418 C1412 0.930 . S
H1419 C1414 0.930 . S
N1420 Cu1409 1.998 . S
N1420 C1422 1.335 . S
N1420 C1423 1.390 . S
N1421 C1422 1.345 . S
N1421 C1424 1.336 . S
C1422 N1420 1.335 . S
C1422 N1421 1.345 . S
C1422 H1427 0.930 . S
C1423 N1420 1.390 . S
C1423 C1424 1.346 . S
C1423 H1428 0.930 . S
C1424 N1421 1.336 . S
C1424 C1423 1.346 . S
C1424 H1431 0.929 . S
C1425 O1415 1.282 . S
C1425 O1426 1.216 . S
O1426 C1425 1.216 . S
H1427 C1422 0.930 . S
H1428 C1423 0.930 . S
O1429 Cu1409 1.976 . S
O1429 C1416 1.251 . S
H1430 C1413 0.930 . S
H1431 C1424 0.929 . S
Cu1432 N1433 1.999 . S
Cu1432 O1438 1.974 . S
Cu1432 N1443 1.985 1_455 S
Cu1432 O1452 1.959 1_455 S
N1433 Cu1432 1.999 . S
N1433 C1435 1.263 . S
N1433 C1437 1.389 . S
N1434 C1435 1.358 . S
N1434 C1436 1.400 . S
C1435 N1433 1.263 . S
C1435 N1434 1.358 . S
C1435 H1441 0.930 . S
C1436 N1434 1.400 . S
C1436 C1437 1.351 . S
C1436 H1453 0.930 . S
C1437 N1433 1.389 . S
C1437 C1436 1.351 . S
C1437 H1442 0.930 . S
O1438 Cu1432 1.974 . S
O1438 C1448 1.282 . S
C1439 O1440 1.261 . S
C1439 O1452 1.251 . S
O1440 C1439 1.261 . S
H1441 C1435 0.930 . S
H1442 C1437 0.930 . S
N1443 Cu1432 1.985 1_655 S
N1443 C1445 1.335 . S
N1443 C1446 1.395 . S
N1444 C1445 1.345 . S
N1444 C1447 1.336 . S
C1445 N1443 1.335 . S
C1445 N1444 1.345 . S
C1445 H1450 0.930 . S
C1446 N1443 1.395 . S
C1446 C1447 1.369 . S
C1446 H1451 0.907 1_655 S
C1447 N1444 1.336 . S
C1447 C1446 1.369 . S
C1447 H1454 0.929 . S
C1448 O1438 1.282 . S
C1448 O1449 1.216 . S
O1449 C1448 1.216 . S
H1450 C1445 0.930 . S
H1451 C1446 0.907 1_455 S
O1452 Cu1432 1.959 1_655 S
O1452 C1439 1.251 . S
H1453 C1436 0.930 . S
H1454 C1447 0.929 . S
Cu1455 N1456 1.999 . S
Cu1455 O1461 1.974 . S
Cu1455 N1466 1.985 1_545 S
Cu1455 O1475 1.959 1_545 S
N1456 Cu1455 1.999 . S
N1456 C1458 1.263 . S
N1456 C1460 1.389 . S
N1457 C1458 1.358 . S
N1457 C1459 1.400 . S
C1458 N1456 1.263 . S
C1458 N1457 1.358 . S
C1458 H1464 0.930 . S
C1459 N1457 1.400 . S
C1459 C1460 1.351 . S
C1459 H1476 0.930 . S
C1460 N1456 1.389 . S
C1460 C1459 1.351 . S
C1460 H1465 0.930 . S
O1461 Cu1455 1.974 . S
O1461 C1471 1.282 . S
C1462 O1463 1.261 . S
C1462 O1475 1.251 . S
O1463 C1462 1.261 . S
H1464 C1458 0.930 . S
H1465 C1460 0.930 . S
N1466 Cu1455 1.985 1_565 S
N1466 C1468 1.335 . S
N1466 C1469 1.378 1_565 S
N1467 C1468 1.345 . S
N1467 C1470 1.336 . S
C1468 N1466 1.335 . S
C1468 N1467 1.345 . S
C1468 H1473 0.930 . S
C1469 N1466 1.378 1_545 S
C1469 C1470 1.282 1_545 S
C1469 H1474 0.997 . S
C1470 N1467 1.336 . S
C1470 C1469 1.282 1_565 S
C1470 H1477 0.929 . S
C1471 O1461 1.282 . S
C1471 O1472 1.216 . S
O1472 C1471 1.216 . S
H1473 C1468 0.930 . S
H1474 C1469 0.997 . S
O1475 Cu1455 1.959 1_565 S
O1475 C1462 1.251 . S
H1476 C1459 0.930 . S
H1477 C1470 0.929 . S
Cu1478 N1479 1.999 . S
Cu1478 O1484 1.974 . S
Cu1478 N1489 1.985 . S
Cu1478 O1498 1.959 . S
N1479 Cu1478 1.999 . S
N1479 C1481 1.263 1_455 S
N1479 C1483 1.389 . S
N1480 C1481 1.358 . S
N1480 C1482 1.400 . S
C1481 N1479 1.263 1_655 S
C1481 N1480 1.358 . S
C1481 H1487 0.930 . S
C1482 N1480 1.400 . S
C1482 C1483 1.351 1_655 S
C1482 H1499 0.930 . S
C1483 N1479 1.389 . S
C1483 C1482 1.351 1_455 S
C1483 H1488 0.930 . S
O1484 Cu1478 1.974 . S
O1484 C1494 1.282 1_455 S
C1485 O1486 1.261 . S
C1485 O1498 1.251 . S
O1486 C1485 1.261 . S
H1487 C1481 0.930 . S
H1488 C1483 0.930 . S
N1489 Cu1478 1.985 . S
N1489 C1491 1.335 . S
N1489 C1492 1.390 . S
N1490 C1491 1.345 . S
N1490 C1493 1.336 . S
C1491 N1489 1.335 . S
C1491 N1490 1.345 . S
C1491 H1496 0.930 . S
C1492 N1489 1.390 . S
C1492 C1493 1.346 . S
C1492 H1497 0.930 . S
C1493 N1490 1.336 . S
C1493 C1492 1.346 . S
C1493 H1500 0.929 . S
C1494 O1484 1.282 1_655 S
C1494 O1495 1.216 1_655 S
O1495 C1494 1.216 1_455 S
H1496 C1491 0.930 . S
H1497 C1492 0.930 . S
O1498 Cu1478 1.959 . S
O1498 C1485 1.251 . S
H1499 C1482 0.930 . S
H1500 C1493 0.929 . S
Cu1501 N1502 1.999 . S
Cu1501 O1507 1.974 . S
Cu1501 N1512 2.018 . S
Cu1501 O1521 1.959 1_545 S
N1502 Cu1501 1.999 . S
N1502 C1504 1.263 . S
N1502 C1506 1.389 . S
N1503 C1504 1.358 . S
N1503 C1505 1.400 . S
C1504 N1502 1.263 . S
C1504 N1503 1.358 . S
C1504 H1510 0.930 . S
C1505 N1503 1.400 . S
C1505 C1506 1.351 . S
C1505 H1522 0.930 . S
C1506 N1502 1.389 . S
C1506 C1505 1.351 . S
C1506 H1511 0.930 . S
O1507 Cu1501 1.974 . S
O1507 C1517 1.282 . S
C1508 O1509 1.244 1_565 S
C1508 O1521 1.251 . S
O1509 C1508 1.244 1_545 S
H1510 C1504 0.930 . S
H1511 C1506 0.930 . S
N1512 Cu1501 2.018 . S
N1512 C1514 1.283 1_545 S
N1512 C1515 1.403 . S
N1513 C1514 1.345 . S
N1513 C1516 1.336 . S
C1514 N1512 1.283 1_565 S
C1514 N1513 1.345 . S
C1514 H1519 0.930 . S
C1515 N1512 1.403 . S
C1515 C1516 1.346 1_545 S
C1515 H1520 0.930 . S
C1516 N1513 1.336 . S
C1516 C1515 1.346 1_565 S
C1516 H1523 0.929 . S
C1517 O1507 1.282 . S
C1517 O1518 1.216 . S
O1518 C1517 1.216 . S
H1519 C1514 0.930 . S
H1520 C1515 0.930 . S
O1521 Cu1501 1.959 1_565 S
O1521 C1508 1.251 . S
H1522 C1505 0.930 . S
H1523 C1516 0.929 . S
Cu1524 N1525 1.999 . S
Cu1524 O1530 1.974 . S
Cu1524 N1535 1.985 . S
Cu1524 O1544 1.959 . S
N1525 Cu1524 1.999 . S
N1525 C1527 1.263 . S
N1525 C1529 1.389 . S
N1526 C1527 1.358 . S
N1526 C1528 1.400 . S
C1527 N1525 1.263 . S
C1527 N1526 1.358 . S
C1527 H1533 0.930 . S
C1528 N1526 1.400 . S
C1528 C1529 1.351 . S
C1528 H1545 0.930 . S
C1529 N1525 1.389 . S
C1529 C1528 1.351 . S
C1529 H1534 0.930 . S
O1530 Cu1524 1.974 . S
O1530 C1540 1.282 . S
C1531 O1532 1.261 . S
C1531 O1544 1.251 . S
O1532 C1531 1.261 . S
H1533 C1527 0.930 . S
H1534 C1529 0.930 . S
N1535 Cu1524 1.985 . S
N1535 C1537 1.335 . S
N1535 C1538 1.390 . S
N1536 C1537 1.345 . S
N1536 C1539 1.336 . S
C1537 N1535 1.335 . S
C1537 N1536 1.345 . S
C1537 H1542 0.930 . S
C1538 N1535 1.390 . S
C1538 C1539 1.346 . S
C1538 H1543 0.930 . S
C1539 N1536 1.336 . S
C1539 C1538 1.346 . S
C1539 H1546 0.929 . S
C1540 O1530 1.282 . S
C1540 O1541 1.216 . S
O1541 C1540 1.216 . S
H1542 C1537 0.930 . S
H1543 C1538 0.930 . S
O1544 Cu1524 1.959 . S
O1544 C1531 1.251 . S
H1545 C1528 0.930 . S
H1546 C1539 0.929 . S
Cu1547 N1548 1.999 . S
Cu1547 O1553 1.974 . S
Cu1547 N1558 1.985 . S
Cu1547 O1567 1.959 . S
N1548 Cu1547 1.999 . S
N1548 C1550 1.263 . S
N1548 C1552 1.389 . S
N1549 C1550 1.358 . S
N1549 C1551 1.400 . S
C1550 N1548 1.263 . S
C1550 N1549 1.358 . S
C1550 H1556 0.930 . S
C1551 N1549 1.400 . S
C1551 C1552 1.351 . S
C1551 H1568 0.930 . S
C1552 N1548 1.389 . S
C1552 C1551 1.351 . S
C1552 H1557 0.930 . S
O1553 Cu1547 1.974 . S
O1553 C1563 1.282 . S
C1554 O1555 1.261 . S
C1554 O1567 1.251 . S
O1555 C1554 1.261 . S
H1556 C1550 0.930 . S
H1557 C1552 0.930 . S
N1558 Cu1547 1.985 . S
N1558 C1560 1.335 . S
N1558 C1561 1.390 . S
N1559 C1560 1.345 . S
N1559 C1562 1.336 . S
C1560 N1558 1.335 . S
C1560 N1559 1.345 . S
C1560 H1565 0.930 . S
C1561 N1558 1.390 . S
C1561 C1562 1.346 . S
C1561 H1566 0.930 . S
C1562 N1559 1.336 . S
C1562 C1561 1.346 . S
C1562 H1569 0.929 . S
C1563 O1553 1.282 . S
C1563 O1564 1.216 . S
O1564 C1563 1.216 . S
H1565 C1560 0.930 . S
H1566 C1561 0.930 . S
O1567 Cu1547 1.959 . S
O1567 C1554 1.251 . S
H1568 C1551 0.930 . S
H1569 C1562 0.929 . S
Cu1570 N1571 1.999 . S
Cu1570 O1576 1.974 . S
Cu1570 N1581 1.985 . S
Cu1570 O1590 1.959 . S
N1571 Cu1570 1.999 . S
N1571 C1573 1.263 . S
N1571 C1575 1.389 . S
N1572 C1573 1.358 . S
N1572 C1574 1.400 . S
C1573 N1571 1.263 . S
C1573 N1572 1.358 . S
C1573 H1579 0.930 . S
C1574 N1572 1.400 . S
C1574 C1575 1.351 . S
C1574 H1591 0.930 . S
C1575 N1571 1.389 . S
C1575 C1574 1.351 . S
C1575 H1580 0.930 . S
O1576 Cu1570 1.974 . S
O1576 C1586 1.282 . S
C1577 O1578 1.261 . S
C1577 O1590 1.251 . S
O1578 C1577 1.261 . S
H1579 C1573 0.930 . S
H1580 C1575 0.930 . S
N1581 Cu1570 1.985 . S
N1581 C1583 1.335 . S
N1581 C1584 1.390 . S
N1582 C1583 1.345 . S
N1582 C1585 1.336 . S
C1583 N1581 1.335 . S
C1583 N1582 1.345 . S
C1583 H1588 0.930 . S
C1584 N1581 1.390 . S
C1584 C1585 1.346 . S
C1584 H1589 0.930 . S
C1585 N1582 1.336 . S
C1585 C1584 1.346 . S
C1585 H1592 0.929 . S
C1586 O1576 1.282 . S
C1586 O1587 1.216 . S
O1587 C1586 1.216 . S
H1588 C1583 0.930 . S
H1589 C1584 0.930 . S
O1590 Cu1570 1.959 . S
O1590 C1577 1.251 . S
H1591 C1574 0.930 . S
H1592 C1585 0.929 . S
Cu1593 N1594 1.999 . S
Cu1593 O1599 1.974 . S
Cu1593 N1604 1.985 . S
Cu1593 O1613 1.959 . S
N1594 Cu1593 1.999 . S
N1594 C1596 1.263 . S
N1594 C1598 1.389 . S
N1595 C1596 1.358 . S
N1595 C1597 1.400 . S
C1596 N1594 1.263 . S
C1596 N1595 1.358 . S
C1596 H1602 0.930 . S
C1597 N1595 1.400 . S
C1597 C1598 1.351 . S
C1597 H1614 0.930 . S
C1598 N1594 1.389 . S
C1598 C1597 1.351 . S
C1598 H1603 0.930 . S
O1599 Cu1593 1.974 . S
O1599 C1609 1.282 . S
C1600 O1601 1.261 . S
C1600 O1613 1.251 . S
O1601 C1600 1.261 . S
H1602 C1596 0.930 . S
H1603 C1598 0.930 . S
N1604 Cu1593 1.985 . S
N1604 C1606 1.335 . S
N1604 C1607 1.390 . S
N1605 C1606 1.345 . S
N1605 C1608 1.336 . S
C1606 N1604 1.335 . S
C1606 N1605 1.345 . S
C1606 H1611 0.930 . S
C1607 N1604 1.390 . S
C1607 C1608 1.346 . S
C1607 H1612 0.930 . S
C1608 N1605 1.336 . S
C1608 C1607 1.346 . S
C1608 H1615 0.929 . S
C1609 O1599 1.282 . S
C1609 O1610 1.216 . S
O1610 C1609 1.216 . S
H1611 C1606 0.930 . S
H1612 C1607 0.930 . S
O1613 Cu1593 1.959 . S
O1613 C1600 1.251 . S
H1614 C1597 0.930 . S
H1615 C1608 0.929 . S
Cu1616 N1617 1.999 . S
Cu1616 O1622 1.974 . S
Cu1616 N1627 1.985 . S
Cu1616 O1636 1.959 . S
N1617 Cu1616 1.999 . S
N1617 C1619 1.263 . S
N1617 C1621 1.389 . S
N1618 C1619 1.358 . S
N1618 C1620 1.400 . S
C1619 N1617 1.263 . S
C1619 N1618 1.358 . S
C1619 H1625 0.930 . S
C1620 N1618 1.400 . S
C1620 C1621 1.351 . S
C1620 H1637 0.930 . S
C1621 N1617 1.389 . S
C1621 C1620 1.351 . S
C1621 H1626 0.930 . S
O1622 Cu1616 1.974 . S
O1622 C1632 1.282 . S
C1623 O1624 1.261 . S
C1623 O1636 1.251 . S
O1624 C1623 1.261 . S
H1625 C1619 0.930 . S
H1626 C1621 0.930 . S
N1627 Cu1616 1.985 . S
N1627 C1629 1.335 . S
N1627 C1630 1.390 . S
N1628 C1629 1.345 . S
N1628 C1631 1.336 . S
C1629 N1627 1.335 . S
C1629 N1628 1.345 . S
C1629 H1634 0.930 . S
C1630 N1627 1.390 . S
C1630 C1631 1.346 . S
C1630 H1635 0.930 . S
C1631 N1628 1.336 . S
C1631 C1630 1.346 . S
C1631 H1638 0.929 . S
C1632 O1622 1.282 . S
C1632 O1633 1.216 . S
O1633 C1632 1.216 . S
H1634 C1629 0.930 . S
H1635 C1630 0.930 . S
O1636 Cu1616 1.959 . S
O1636 C1623 1.251 . S
H1637 C1620 0.930 . S
H1638 C1631 0.929 . S
Cu1639 N1640 1.999 . S
Cu1639 O1645 1.974 . S
Cu1639 N1650 1.985 . S
Cu1639 O1659 1.959 . S
N1640 Cu1639 1.999 . S
N1640 C1642 1.263 . S
N1640 C1644 1.389 . S
N1641 C1642 1.358 . S
N1641 C1643 1.400 . S
C1642 N1640 1.263 . S
C1642 N1641 1.358 . S
C1642 H1648 0.930 . S
C1643 N1641 1.400 . S
C1643 C1644 1.351 . S
C1643 H1660 0.930 . S
C1644 N1640 1.389 . S
C1644 C1643 1.351 . S
C1644 H1649 0.930 . S
O1645 Cu1639 1.974 . S
O1645 C1655 1.282 . S
C1646 O1647 1.261 . S
C1646 O1659 1.251 . S
O1647 C1646 1.261 . S
H1648 C1642 0.930 . S
H1649 C1644 0.930 . S
N1650 Cu1639 1.985 . S
N1650 C1652 1.335 . S
N1650 C1653 1.390 . S
N1651 C1652 1.345 . S
N1651 C1654 1.336 . S
C1652 N1650 1.335 . S
C1652 N1651 1.345 . S
C1652 H1657 0.930 . S
C1653 N1650 1.390 . S
C1653 C1654 1.346 . S
C1653 H1658 0.930 . S
C1654 N1651 1.336 . S
C1654 C1653 1.346 . S
C1654 H1661 0.929 . S
C1655 O1645 1.282 . S
C1655 O1656 1.216 . S
O1656 C1655 1.216 . S
H1657 C1652 0.930 . S
H1658 C1653 0.930 . S
O1659 Cu1639 1.959 . S
O1659 C1646 1.251 . S
H1660 C1643 0.930 . S
H1661 C1654 0.929 . S
Cu1662 N1663 1.999 . S
Cu1662 O1668 1.974 . S
Cu1662 N1673 1.985 . S
Cu1662 O1682 1.959 . S
N1663 Cu1662 1.999 . S
N1663 C1665 1.263 . S
N1663 C1667 1.389 . S
N1664 C1665 1.358 . S
N1664 C1666 1.400 . S
C1665 N1663 1.263 . S
C1665 N1664 1.358 . S
C1665 H1671 0.930 . S
C1666 N1664 1.400 . S
C1666 C1667 1.351 . S
C1666 H1683 0.930 . S
C1667 N1663 1.389 . S
C1667 C1666 1.351 . S
C1667 H1672 0.930 . S
O1668 Cu1662 1.974 . S
O1668 C1678 1.282 . S
C1669 O1670 1.261 . S
C1669 O1682 1.251 . S
O1670 C1669 1.261 . S
H1671 C1665 0.930 . S
H1672 C1667 0.930 . S
N1673 Cu1662 1.985 . S
N1673 C1675 1.335 . S
N1673 C1676 1.390 . S
N1674 C1675 1.345 . S
N1674 C1677 1.336 . S
C1675 N1673 1.335 . S
C1675 N1674 1.345 . S
C1675 H1680 0.930 . S
C1676 N1673 1.390 . S
C1676 C1677 1.346 . S
C1676 H1681 0.930 . S
C1677 N1674 1.336 . S
C1677 C1676 1.346 . S
C1677 H1684 0.929 . S
C1678 O1668 1.282 . S
C1678 O1679 1.216 . S
O1679 C1678 1.216 . S
H1680 C1675 0.930 . S
H1681 C1676 0.930 . S
O1682 Cu1662 1.959 . S
O1682 C1669 1.251 . S
H1683 C1666 0.930 . S
H1684 C1677 0.929 . S
Cu1685 N1686 1.999 . S
Cu1685 O1691 1.974 . S
Cu1685 N1696 1.985 . S
Cu1685 O1705 1.959 . S
N1686 Cu1685 1.999 . S
N1686 C1688 1.263 . S
N1686 C1690 1.389 . S
N1687 C1688 1.358 . S
N1687 C1689 1.400 . S
C1688 N1686 1.263 . S
C1688 N1687 1.358 . S
C1688 H1694 0.930 . S
C1689 N1687 1.400 . S
C1689 C1690 1.351 . S
C1689 H1706 0.930 . S
C1690 N1686 1.389 . S
C1690 C1689 1.351 . S
C1690 H1695 0.930 . S
O1691 Cu1685 1.974 . S
O1691 C1701 1.282 . S
C1692 O1693 1.261 . S
C1692 O1705 1.251 . S
O1693 C1692 1.261 . S
H1694 C1688 0.930 . S
H1695 C1690 0.930 . S
N1696 Cu1685 1.985 . S
N1696 C1698 1.335 . S
N1696 C1699 1.390 . S
N1697 C1698 1.345 . S
N1697 C1700 1.336 . S
C1698 N1696 1.335 . S
C1698 N1697 1.345 . S
C1698 H1703 0.930 . S
C1699 N1696 1.390 . S
C1699 C1700 1.346 . S
C1699 H1704 0.930 . S
C1700 N1697 1.336 . S
C1700 C1699 1.346 . S
C1700 H1707 0.929 . S
C1701 O1691 1.282 . S
C1701 O1702 1.216 . S
O1702 C1701 1.216 . S
H1703 C1698 0.930 . S
H1704 C1699 0.930 . S
O1705 Cu1685 1.959 . S
O1705 C1692 1.251 . S
H1706 C1689 0.930 . S
H1707 C1700 0.929 . S
Cu1708 N1709 1.999 . S
Cu1708 O1714 1.974 . S
Cu1708 N1719 1.985 . S
Cu1708 O1728 1.959 . S
N1709 Cu1708 1.999 . S
N1709 C1711 1.263 . S
N1709 C1713 1.389 . S
N1710 C1711 1.358 . S
N1710 C1712 1.400 . S
C1711 N1709 1.263 . S
C1711 N1710 1.358 . S
C1711 H1717 0.930 . S
C1712 N1710 1.400 . S
C1712 C1713 1.351 . S
C1712 H1729 0.930 . S
C1713 N1709 1.389 . S
C1713 C1712 1.351 . S
C1713 H1718 0.930 . S
O1714 Cu1708 1.974 . S
O1714 C1724 1.282 . S
C1715 O1716 1.261 . S
C1715 O1728 1.251 . S
O1716 C1715 1.261 . S
H1717 C1711 0.930 . S
H1718 C1713 0.930 . S
N1719 Cu1708 1.985 . S
N1719 C1721 1.335 . S
N1719 C1722 1.390 . S
N1720 C1721 1.345 . S
N1720 C1723 1.336 . S
C1721 N1719 1.335 . S
C1721 N1720 1.345 . S
C1721 H1726 0.930 . S
C1722 N1719 1.390 . S
C1722 C1723 1.346 . S
C1722 H1727 0.930 . S
C1723 N1720 1.336 . S
C1723 C1722 1.346 . S
C1723 H1730 0.929 . S
C1724 O1714 1.282 . S
C1724 O1725 1.216 . S
O1725 C1724 1.216 . S
H1726 C1721 0.930 . S
H1727 C1722 0.930 . S
O1728 Cu1708 1.959 . S
O1728 C1715 1.251 . S
H1729 C1712 0.930 . S
H1730 C1723 0.929 . S
Cu1731 N1732 1.999 . S
Cu1731 O1737 1.974 . S
Cu1731 N1742 1.985 . S
Cu1731 O1751 1.959 . S
N1732 Cu1731 1.999 . S
N1732 C1734 1.263 . S
N1732 C1736 1.389 . S
N1733 C1734 1.358 . S
N1733 C1735 1.400 . S
C1734 N1732 1.263 . S
C1734 N1733 1.358 . S
C1734 H1740 0.930 . S
C1735 N1733 1.400 . S
C1735 C1736 1.351 . S
C1735 H1752 0.930 . S
C1736 N1732 1.389 . S
C1736 C1735 1.351 . S
C1736 H1741 0.930 . S
O1737 Cu1731 1.974 . S
O1737 C1747 1.282 . S
C1738 O1739 1.261 . S
C1738 O1751 1.251 . S
O1739 C1738 1.261 . S
H1740 C1734 0.930 . S
H1741 C1736 0.930 . S
N1742 Cu1731 1.985 . S
N1742 C1744 1.335 . S
N1742 C1745 1.390 . S
N1743 C1744 1.345 . S
N1743 C1746 1.336 . S
C1744 N1742 1.335 . S
C1744 N1743 1.345 . S
C1744 H1749 0.930 . S
C1745 N1742 1.390 . S
C1745 C1746 1.346 . S
C1745 H1750 0.930 . S
C1746 N1743 1.336 . S
C1746 C1745 1.346 . S
C1746 H1753 0.929 . S
C1747 O1737 1.282 . S
C1747 O1748 1.216 . S
O1748 C1747 1.216 . S
H1749 C1744 0.930 . S
H1750 C1745 0.930 . S
O1751 Cu1731 1.959 . S
O1751 C1738 1.251 . S
H1752 C1735 0.930 . S
H1753 C1746 0.929 . S
Cu1754 N1755 1.999 . S
Cu1754 O1760 1.974 . S
Cu1754 N1765 1.985 . S
Cu1754 O1774 1.959 . S
N1755 Cu1754 1.999 . S
N1755 C1757 1.263 . S
N1755 C1759 1.389 . S
N1756 C1757 1.358 . S
N1756 C1758 1.400 . S
C1757 N1755 1.263 . S
C1757 N1756 1.358 . S
C1757 H1763 0.930 . S
C1758 N1756 1.400 . S
C1758 C1759 1.351 . S
C1758 H1775 0.930 . S
C1759 N1755 1.389 . S
C1759 C1758 1.351 . S
C1759 H1764 0.930 . S
O1760 Cu1754 1.974 . S
O1760 C1770 1.282 . S
C1761 O1762 1.261 . S
C1761 O1774 1.251 . S
O1762 C1761 1.261 . S
H1763 C1757 0.930 . S
H1764 C1759 0.930 . S
N1765 Cu1754 1.985 . S
N1765 C1767 1.335 . S
N1765 C1768 1.390 . S
N1766 C1767 1.345 . S
N1766 C1769 1.336 . S
C1767 N1765 1.335 . S
C1767 N1766 1.345 . S
C1767 H1772 0.930 . S
C1768 N1765 1.390 . S
C1768 C1769 1.346 . S
C1768 H1773 0.930 . S
C1769 N1766 1.336 . S
C1769 C1768 1.346 . S
C1769 H1776 0.929 . S
C1770 O1760 1.282 . S
C1770 O1771 1.216 . S
O1771 C1770 1.216 . S
H1772 C1767 0.930 . S
H1773 C1768 0.930 . S
O1774 Cu1754 1.959 . S
O1774 C1761 1.251 . S
H1775 C1758 0.930 . S
H1776 C1769 0.929 . S
Cu1777 N1778 1.999 . S
Cu1777 O1783 1.974 . S
Cu1777 N1788 1.985 . S
Cu1777 O1797 1.959 . S
N1778 Cu1777 1.999 . S
N1778 C1780 1.263 . S
N1778 C1782 1.389 . S
N1779 C1780 1.358 . S
N1779 C1781 1.400 . S
C1780 N1778 1.263 . S
C1780 N1779 1.358 . S
C1780 H1786 0.930 . S
C1781 N1779 1.400 . S
C1781 C1782 1.351 . S
C1781 H1798 0.930 . S
C1782 N1778 1.389 . S
C1782 C1781 1.351 . S
C1782 H1787 0.930 . S
O1783 Cu1777 1.974 . S
O1783 C1793 1.282 . S
C1784 O1785 1.261 . S
C1784 O1797 1.251 . S
O1785 C1784 1.261 . S
H1786 C1780 0.930 . S
H1787 C1782 0.930 . S
N1788 Cu1777 1.985 . S
N1788 C1790 1.335 . S
N1788 C1791 1.390 . S
N1789 C1790 1.345 . S
N1789 C1792 1.336 . S
C1790 N1788 1.335 . S
C1790 N1789 1.345 . S
C1790 H1795 0.930 . S
C1791 N1788 1.390 . S
C1791 C1792 1.346 . S
C1791 H1796 0.930 . S
C1792 N1789 1.336 . S
C1792 C1791 1.346 . S
C1792 H1799 0.929 . S
C1793 O1783 1.282 . S
C1793 O1794 1.216 . S
O1794 C1793 1.216 . S
H1795 C1790 0.930 . S
H1796 C1791 0.930 . S
O1797 Cu1777 1.959 . S
O1797 C1784 1.251 . S
H1798 C1781 0.930 . S
H1799 C1792 0.929 . S
C1800 C1801 1.391 . S
C1800 C1802 1.394 . S
C1800 H1816 0.931 . S
C1801 C1800 1.391 . S
C1801 C1805 1.376 . S
C1802 C1800 1.394 . S
C1802 C1803 1.369 . S
C1802 C1806 1.531 . S
C1803 C1802 1.369 . S
C1803 C1804 1.410 . S
C1803 C1811 1.503 . S
C1804 C1803 1.410 . S
C1804 C1805 1.392 . S
C1804 C1807 1.511 . S
C1805 C1801 1.376 . S
C1805 C1804 1.392 . S
C1805 H1817 0.929 . S
C1806 C1802 1.531 . S
C1806 H1818 0.960 . S
C1806 H1819 0.962 . S
C1806 H1820 0.960 . S
C1807 C1804 1.511 . S
C1807 H1821 0.961 . S
C1807 H1822 0.961 . S
C1807 H1823 0.961 . S
C1808 C1809 1.370 . S
C1808 C1810 1.363 . S
C1808 H1824 0.931 . S
C1809 C1808 1.370 . S
C1809 C1813 1.408 . S
C1810 C1808 1.363 . S
C1810 C1811 1.370 . S
C1810 C1814 1.524 . S
C1811 C1803 1.503 . S
C1811 C1810 1.370 . S
C1811 C1812 1.403 . S
C1812 C1811 1.403 . S
C1812 C1813 1.404 . S
C1812 C1815 1.539 . S
C1813 C1809 1.408 . S
C1813 C1812 1.404 . S
C1813 H1825 0.930 . S
C1814 C1810 1.524 . S
C1814 H1826 0.956 . S
C1814 H1827 0.961 . S
C1814 H1828 0.961 . S
C1815 C1812 1.539 . S
C1815 H1829 0.958 . S
C1815 H1830 0.961 . S
C1815 H1831 0.960 . S
H1816 C1800 0.931 . S
H1817 C1805 0.929 . S
H1818 C1806 0.960 . S
H1819 C1806 0.962 . S
H1820 C1806 0.960 . S
H1821 C1807 0.961 . S
H1822 C1807 0.961 . S
H1823 C1807 0.961 . S
H1824 C1808 0.931 . S
H1825 C1813 0.930 . S
H1826 C1814 0.956 . S
H1827 C1814 0.961 . S
H1828 C1814 0.961 . S
H1829 C1815 0.958 . S
H1830 C1815 0.961 . S
H1831 C1815 0.960 . S
C1832 C1833 1.391 . S
C1832 C1834 1.394 . S
C1832 H1848 0.931 . S
C1833 C1832 1.391 . S
C1833 C1837 1.376 . S
C1834 C1832 1.394 . S
C1834 C1835 1.369 . S
C1834 C1838 1.531 . S
C1835 C1834 1.369 . S
C1835 C1836 1.410 . S
C1835 C1843 1.503 . S
C1836 C1835 1.410 . S
C1836 C1837 1.392 . S
C1836 C1839 1.511 . S
C1837 C1833 1.376 . S
C1837 C1836 1.392 . S
C1837 H1849 0.929 . S
C1838 C1834 1.531 . S
C1838 H1850 0.960 . S
C1838 H1851 0.962 . S
C1838 H1852 0.960 . S
C1839 C1836 1.511 . S
C1839 H1853 0.961 . S
C1839 H1854 0.961 . S
C1839 H1855 0.961 . S
C1840 C1841 1.370 . S
C1840 C1842 1.363 . S
C1840 H1856 0.931 . S
C1841 C1840 1.370 . S
C1841 C1845 1.408 . S
C1842 C1840 1.363 . S
C1842 C1843 1.370 . S
C1842 C1846 1.524 . S
C1843 C1835 1.503 . S
C1843 C1842 1.370 . S
C1843 C1844 1.403 . S
C1844 C1843 1.403 . S
C1844 C1845 1.404 . S
C1844 C1847 1.539 . S
C1845 C1841 1.408 . S
C1845 C1844 1.404 . S
C1845 H1857 0.930 . S
C1846 C1842 1.524 . S
C1846 H1858 0.956 . S
C1846 H1859 0.961 . S
C1846 H1860 0.961 . S
C1847 C1844 1.539 . S
C1847 H1861 0.958 . S
C1847 H1862 0.961 . S
C1847 H1863 0.960 . S
H1848 C1832 0.931 . S
H1849 C1837 0.929 . S
H1850 C1838 0.960 . S
H1851 C1838 0.962 . S
H1852 C1838 0.960 . S
H1853 C1839 0.961 . S
H1854 C1839 0.961 . S
H1855 C1839 0.961 . S
H1856 C1840 0.931 . S
H1857 C1845 0.930 . S
H1858 C1846 0.956 . S
H1859 C1846 0.961 . S
H1860 C1846 0.961 . S
H1861 C1847 0.958 . S
H1862 C1847 0.961 . S
H1863 C1847 0.960 . S
C1864 C1865 1.391 . S
C1864 C1866 1.394 . S
C1864 H1880 0.931 . S
C1865 C1864 1.391 . S
C1865 C1869 1.376 . S
C1866 C1864 1.394 . S
C1866 C1867 1.369 . S
C1866 C1870 1.531 . S
C1867 C1866 1.369 . S
C1867 C1868 1.410 . S
C1867 C1875 1.503 . S
C1868 C1867 1.410 . S
C1868 C1869 1.392 . S
C1868 C1871 1.511 . S
C1869 C1865 1.376 . S
C1869 C1868 1.392 . S
C1869 H1881 0.929 . S
C1870 C1866 1.531 . S
C1870 H1882 0.960 . S
C1870 H1883 0.962 . S
C1870 H1884 0.960 . S
C1871 C1868 1.511 . S
C1871 H1885 0.961 . S
C1871 H1886 0.961 . S
C1871 H1887 0.961 . S
C1872 C1873 1.370 . S
C1872 C1874 1.363 . S
C1872 H1888 0.931 . S
C1873 C1872 1.370 . S
C1873 C1877 1.408 . S
C1874 C1872 1.363 . S
C1874 C1875 1.370 . S
C1874 C1878 1.524 . S
C1875 C1867 1.503 . S
C1875 C1874 1.370 . S
C1875 C1876 1.403 . S
C1876 C1875 1.403 . S
C1876 C1877 1.404 . S
C1876 C1879 1.539 . S
C1877 C1873 1.408 . S
C1877 C1876 1.404 . S
C1877 H1889 0.930 . S
C1878 C1874 1.524 . S
C1878 H1890 0.956 . S
C1878 H1891 0.961 . S
C1878 H1892 0.961 . S
C1879 C1876 1.539 . S
C1879 H1893 0.958 . S
C1879 H1894 0.961 . S
C1879 H1895 0.960 . S
H1880 C1864 0.931 . S
H1881 C1869 0.929 . S
H1882 C1870 0.960 . S
H1883 C1870 0.962 . S
H1884 C1870 0.960 . S
H1885 C1871 0.961 . S
H1886 C1871 0.961 . S
H1887 C1871 0.961 . S
H1888 C1872 0.931 . S
H1889 C1877 0.930 . S
H1890 C1878 0.956 . S
H1891 C1878 0.961 . S
H1892 C1878 0.961 . S
H1893 C1879 0.958 . S
H1894 C1879 0.961 . S
H1895 C1879 0.960 . S
C1896 C1897 1.391 . S
C1896 C1898 1.394 . S
C1896 H1912 0.931 . S
C1897 C1896 1.391 . S
C1897 C1901 1.376 . S
C1898 C1896 1.394 . S
C1898 C1899 1.369 . S
C1898 C1902 1.531 . S
C1899 C1898 1.369 . S
C1899 C1900 1.410 . S
C1899 C1907 1.503 . S
C1900 C1899 1.410 . S
C1900 C1901 1.392 . S
C1900 C1903 1.511 . S
C1901 C1897 1.376 . S
C1901 C1900 1.392 . S
C1901 H1913 0.929 . S
C1902 C1898 1.531 . S
C1902 H1914 0.960 . S
C1902 H1915 0.962 . S
C1902 H1916 0.960 . S
C1903 C1900 1.511 . S
C1903 H1917 0.961 . S
C1903 H1918 0.961 . S
C1903 H1919 0.961 . S
C1904 C1905 1.370 . S
C1904 C1906 1.363 . S
C1904 H1920 0.931 . S
C1905 C1904 1.370 . S
C1905 C1909 1.408 . S
C1906 C1904 1.363 . S
C1906 C1907 1.370 . S
C1906 C1910 1.524 . S
C1907 C1899 1.503 . S
C1907 C1906 1.370 . S
C1907 C1908 1.403 . S
C1908 C1907 1.403 . S
C1908 C1909 1.404 . S
C1908 C1911 1.539 . S
C1909 C1905 1.408 . S
C1909 C1908 1.404 . S
C1909 H1921 0.930 . S
C1910 C1906 1.524 . S
C1910 H1922 0.956 . S
C1910 H1923 0.961 . S
C1910 H1924 0.961 . S
C1911 C1908 1.539 . S
C1911 H1925 0.958 . S
C1911 H1926 0.961 . S
C1911 H1927 0.960 . S
H1912 C1896 0.931 . S
H1913 C1901 0.929 . S
H1914 C1902 0.960 . S
H1915 C1902 0.962 . S
H1916 C1902 0.960 . S
H1917 C1903 0.961 . S
H1918 C1903 0.961 . S
H1919 C1903 0.961 . S
H1920 C1904 0.931 . S
H1921 C1909 0.930 . S
H1922 C1910 0.956 . S
H1923 C1910 0.961 . S
H1924 C1910 0.961 . S
H1925 C1911 0.958 . S
H1926 C1911 0.961 . S
H1927 C1911 0.960 . S
C1928 C1929 1.391 . S
C1928 C1930 1.394 . S
C1928 H1944 0.931 . S
C1929 C1928 1.391 . S
C1929 C1933 1.376 . S
C1930 C1928 1.394 . S
C1930 C1931 1.369 . S
C1930 C1934 1.531 . S
C1931 C1930 1.369 . S
C1931 C1932 1.410 . S
C1931 C1939 1.503 . S
C1932 C1931 1.410 . S
C1932 C1933 1.392 . S
C1932 C1935 1.511 . S
C1933 C1929 1.376 . S
C1933 C1932 1.392 . S
C1933 H1945 0.929 . S
C1934 C1930 1.531 . S
C1934 H1946 0.960 . S
C1934 H1947 0.962 . S
C1934 H1948 0.960 . S
C1935 C1932 1.511 . S
C1935 H1949 0.961 . S
C1935 H1950 0.961 . S
C1935 H1951 0.961 . S
C1936 C1937 1.370 . S
C1936 C1938 1.363 . S
C1936 H1952 0.931 . S
C1937 C1936 1.370 . S
C1937 C1941 1.408 . S
C1938 C1936 1.363 . S
C1938 C1939 1.370 . S
C1938 C1942 1.524 . S
C1939 C1931 1.503 . S
C1939 C1938 1.370 . S
C1939 C1940 1.403 . S
C1940 C1939 1.403 . S
C1940 C1941 1.404 . S
C1940 C1943 1.539 . S
C1941 C1937 1.408 . S
C1941 C1940 1.404 . S
C1941 H1953 0.930 . S
C1942 C1938 1.524 . S
C1942 H1954 0.956 . S
C1942 H1955 0.961 . S
C1942 H1956 0.961 . S
C1943 C1940 1.539 . S
C1943 H1957 0.958 . S
C1943 H1958 0.961 . S
C1943 H1959 0.960 . S
H1944 C1928 0.931 . S
H1945 C1933 0.929 . S
H1946 C1934 0.960 . S
H1947 C1934 0.962 . S
H1948 C1934 0.960 . S
H1949 C1935 0.961 . S
H1950 C1935 0.961 . S
H1951 C1935 0.961 . S
H1952 C1936 0.931 . S
H1953 C1941 0.930 . S
H1954 C1942 0.956 . S
H1955 C1942 0.961 . S
H1956 C1942 0.961 . S
H1957 C1943 0.958 . S
H1958 C1943 0.961 . S
H1959 C1943 0.960 . S
C1960 C1961 1.391 . S
C1960 C1962 1.394 . S
C1960 H1976 0.931 . S
C1961 C1960 1.391 . S
C1961 C1965 1.376 . S
C1962 C1960 1.394 . S
C1962 C1963 1.369 . S
C1962 C1966 1.531 . S
C1963 C1962 1.369 . S
C1963 C1964 1.410 . S
C1963 C1971 1.503 . S
C1964 C1963 1.410 . S
C1964 C1965 1.392 . S
C1964 C1967 1.511 . S
C1965 C1961 1.376 . S
C1965 C1964 1.392 . S
C1965 H1977 0.929 . S
C1966 C1962 1.531 . S
C1966 H1978 0.960 . S
C1966 H1979 0.962 . S
C1966 H1980 0.960 . S
C1967 C1964 1.511 . S
C1967 H1981 0.961 . S
C1967 H1982 0.961 . S
C1967 H1983 0.961 . S
C1968 C1969 1.370 . S
C1968 C1970 1.363 . S
C1968 H1984 0.931 . S
C1969 C1968 1.370 . S
C1969 C1973 1.408 . S
C1970 C1968 1.363 . S
C1970 C1971 1.370 . S
C1970 C1974 1.524 . S
C1971 C1963 1.503 . S
C1971 C1970 1.370 . S
C1971 C1972 1.403 . S
C1972 C1971 1.403 . S
C1972 C1973 1.404 . S
C1972 C1975 1.539 . S
C1973 C1969 1.408 . S
C1973 C1972 1.404 . S
C1973 H1985 0.930 . S
C1974 C1970 1.524 . S
C1974 H1986 0.956 . S
C1974 H1987 0.961 . S
C1974 H1988 0.961 . S
C1975 C1972 1.539 . S
C1975 H1989 0.958 . S
C1975 H1990 0.961 . S
C1975 H1991 0.960 . S
H1976 C1960 0.931 . S
H1977 C1965 0.929 . S
H1978 C1966 0.960 . S
H1979 C1966 0.962 . S
H1980 C1966 0.960 . S
H1981 C1967 0.961 . S
H1982 C1967 0.961 . S
H1983 C1967 0.961 . S
H1984 C1968 0.931 . S
H1985 C1973 0.930 . S
H1986 C1974 0.956 . S
H1987 C1974 0.961 . S
H1988 C1974 0.961 . S
H1989 C1975 0.958 . S
H1990 C1975 0.961 . S
H1991 C1975 0.960 . S
C1992 C1993 1.391 . S
C1992 C1994 1.394 . S
C1992 H2008 0.931 . S
C1993 C1992 1.391 . S
C1993 C1997 1.376 . S
C1994 C1992 1.394 . S
C1994 C1995 1.369 . S
C1994 C1998 1.531 . S
C1995 C1994 1.369 . S
C1995 C1996 1.410 . S
C1995 C2003 1.503 . S
C1996 C1995 1.410 . S
C1996 C1997 1.392 . S
C1996 C1999 1.511 . S
C1997 C1993 1.376 . S
C1997 C1996 1.392 . S
C1997 H2009 0.929 . S
C1998 C1994 1.531 . S
C1998 H2010 0.960 . S
C1998 H2011 0.962 . S
C1998 H2012 0.960 . S
C1999 C1996 1.511 . S
C1999 H2013 0.961 . S
C1999 H2014 0.961 . S
C1999 H2015 0.961 . S
C2000 C2001 1.370 . S
C2000 C2002 1.363 . S
C2000 H2016 0.931 . S
C2001 C2000 1.370 . S
C2001 C2005 1.408 . S
C2002 C2000 1.363 . S
C2002 C2003 1.370 . S
C2002 C2006 1.524 . S
C2003 C1995 1.503 . S
C2003 C2002 1.370 . S
C2003 C2004 1.403 . S
C2004 C2003 1.403 . S
C2004 C2005 1.404 . S
C2004 C2007 1.539 . S
C2005 C2001 1.408 . S
C2005 C2004 1.404 . S
C2005 H2017 0.930 . S
C2006 C2002 1.524 . S
C2006 H2018 0.956 . S
C2006 H2019 0.961 . S
C2006 H2020 0.961 . S
C2007 C2004 1.539 . S
C2007 H2021 0.958 . S
C2007 H2022 0.961 . S
C2007 H2023 0.960 . S
H2008 C1992 0.931 . S
H2009 C1997 0.929 . S
H2010 C1998 0.960 . S
H2011 C1998 0.962 . S
H2012 C1998 0.960 . S
H2013 C1999 0.961 . S
H2014 C1999 0.961 . S
H2015 C1999 0.961 . S
H2016 C2000 0.931 . S
H2017 C2005 0.930 . S
H2018 C2006 0.956 . S
H2019 C2006 0.961 . S
H2020 C2006 0.961 . S
H2021 C2007 0.958 . S
H2022 C2007 0.961 . S
H2023 C2007 0.960 . S
C2024 C2025 1.391 . S
C2024 C2026 1.394 . S
C2024 H2040 0.931 . S
C2025 C2024 1.391 . S
C2025 C2029 1.376 . S
C2026 C2024 1.394 . S
C2026 C2027 1.369 . S
C2026 C2030 1.531 . S
C2027 C2026 1.369 . S
C2027 C2028 1.410 . S
C2027 C2035 1.503 . S
C2028 C2027 1.410 . S
C2028 C2029 1.392 . S
C2028 C2031 1.511 . S
C2029 C2025 1.376 . S
C2029 C2028 1.392 . S
C2029 H2041 0.929 . S
C2030 C2026 1.531 . S
C2030 H2042 0.960 . S
C2030 H2043 0.962 . S
C2030 H2044 0.960 . S
C2031 C2028 1.511 . S
C2031 H2045 0.961 . S
C2031 H2046 0.961 . S
C2031 H2047 0.961 . S
C2032 C2033 1.370 . S
C2032 C2034 1.363 . S
C2032 H2048 0.931 . S
C2033 C2032 1.370 . S
C2033 C2037 1.408 . S
C2034 C2032 1.363 . S
C2034 C2035 1.370 . S
C2034 C2038 1.524 . S
C2035 C2027 1.503 . S
C2035 C2034 1.370 . S
C2035 C2036 1.403 . S
C2036 C2035 1.403 . S
C2036 C2037 1.404 . S
C2036 C2039 1.539 . S
C2037 C2033 1.408 . S
C2037 C2036 1.404 . S
C2037 H2049 0.930 . S
C2038 C2034 1.524 . S
C2038 H2050 0.956 . S
C2038 H2051 0.961 . S
C2038 H2052 0.961 . S
C2039 C2036 1.539 . S
C2039 H2053 0.958 . S
C2039 H2054 0.961 . S
C2039 H2055 0.960 . S
H2040 C2024 0.931 . S
H2041 C2029 0.929 . S
H2042 C2030 0.960 . S
H2043 C2030 0.962 . S
H2044 C2030 0.960 . S
H2045 C2031 0.961 . S
H2046 C2031 0.961 . S
H2047 C2031 0.961 . S
H2048 C2032 0.931 . S
H2049 C2037 0.930 . S
H2050 C2038 0.956 . S
H2051 C2038 0.961 . S
H2052 C2038 0.961 . S
H2053 C2039 0.958 . S
H2054 C2039 0.961 . S
H2055 C2039 0.960 . S
C2056 C2057 1.391 . S
C2056 C2058 1.394 . S
C2056 H2072 0.931 . S
C2057 C2056 1.391 . S
C2057 C2061 1.376 . S
C2058 C2056 1.394 . S
C2058 C2059 1.369 . S
C2058 C2062 1.531 . S
C2059 C2058 1.369 . S
C2059 C2060 1.410 . S
C2059 C2067 1.503 . S
C2060 C2059 1.410 . S
C2060 C2061 1.392 . S
C2060 C2063 1.511 . S
C2061 C2057 1.376 . S
C2061 C2060 1.392 . S
C2061 H2073 0.929 . S
C2062 C2058 1.531 . S
C2062 H2074 0.960 . S
C2062 H2075 0.962 . S
C2062 H2076 0.960 . S
C2063 C2060 1.511 . S
C2063 H2077 0.961 . S
C2063 H2078 0.961 . S
C2063 H2079 0.961 . S
C2064 C2065 1.370 . S
C2064 C2066 1.363 . S
C2064 H2080 0.931 . S
C2065 C2064 1.370 . S
C2065 C2069 1.408 . S
C2066 C2064 1.363 . S
C2066 C2067 1.370 . S
C2066 C2070 1.524 . S
C2067 C2059 1.503 . S
C2067 C2066 1.370 . S
C2067 C2068 1.403 . S
C2068 C2067 1.403 . S
C2068 C2069 1.404 . S
C2068 C2071 1.539 . S
C2069 C2065 1.408 . S
C2069 C2068 1.404 . S
C2069 H2081 0.930 . S
C2070 C2066 1.524 . S
C2070 H2082 0.956 . S
C2070 H2083 0.961 . S
C2070 H2084 0.961 . S
C2071 C2068 1.539 . S
C2071 H2085 0.958 . S
C2071 H2086 0.961 . S
C2071 H2087 0.960 . S
H2072 C2056 0.931 . S
H2073 C2061 0.929 . S
H2074 C2062 0.960 . S
H2075 C2062 0.962 . S
H2076 C2062 0.960 . S
H2077 C2063 0.961 . S
H2078 C2063 0.961 . S
H2079 C2063 0.961 . S
H2080 C2064 0.931 . S
H2081 C2069 0.930 . S
H2082 C2070 0.956 . S
H2083 C2070 0.961 . S
H2084 C2070 0.961 . S
H2085 C2071 0.958 . S
H2086 C2071 0.961 . S
H2087 C2071 0.960 . S
C2088 C2089 1.391 . S
C2088 C2090 1.394 . S
C2088 H2104 0.931 . S
C2089 C2088 1.391 . S
C2089 C2093 1.376 . S
C2090 C2088 1.394 . S
C2090 C2091 1.369 . S
C2090 C2094 1.531 . S
C2091 C2090 1.369 . S
C2091 C2092 1.410 . S
C2091 C2099 1.503 . S
C2092 C2091 1.410 . S
C2092 C2093 1.392 . S
C2092 C2095 1.511 . S
C2093 C2089 1.376 . S
C2093 C2092 1.392 . S
C2093 H2105 0.929 . S
C2094 C2090 1.531 . S
C2094 H2106 0.960 . S
C2094 H2107 0.962 . S
C2094 H2108 0.960 . S
C2095 C2092 1.511 . S
C2095 H2109 0.961 . S
C2095 H2110 0.961 . S
C2095 H2111 0.961 . S
C2096 C2097 1.370 . S
C2096 C2098 1.363 . S
C2096 H2112 0.931 . S
C2097 C2096 1.370 . S
C2097 C2101 1.408 . S
C2098 C2096 1.363 . S
C2098 C2099 1.370 . S
C2098 C2102 1.524 . S
C2099 C2091 1.503 . S
C2099 C2098 1.370 . S
C2099 C2100 1.403 . S
C2100 C2099 1.403 . S
C2100 C2101 1.404 . S
C2100 C2103 1.539 . S
C2101 C2097 1.408 . S
C2101 C2100 1.404 . S
C2101 H2113 0.930 . S
C2102 C2098 1.524 . S
C2102 H2114 0.956 . S
C2102 H2115 0.961 . S
C2102 H2116 0.961 . S
C2103 C2100 1.539 . S
C2103 H2117 0.958 . S
C2103 H2118 0.961 . S
C2103 H2119 0.960 . S
H2104 C2088 0.931 . S
H2105 C2093 0.929 . S
H2106 C2094 0.960 . S
H2107 C2094 0.962 . S
H2108 C2094 0.960 . S
H2109 C2095 0.961 . S
H2110 C2095 0.961 . S
H2111 C2095 0.961 . S
H2112 C2096 0.931 . S
H2113 C2101 0.930 . S
H2114 C2102 0.956 . S
H2115 C2102 0.961 . S
H2116 C2102 0.961 . S
H2117 C2103 0.958 . S
H2118 C2103 0.961 . S
H2119 C2103 0.960 . S
C2120 C2121 1.391 . S
C2120 C2122 1.394 . S
C2120 H2136 0.931 . S
C2121 C2120 1.391 . S
C2121 C2125 1.376 . S
C2122 C2120 1.394 . S
C2122 C2123 1.369 . S
C2122 C2126 1.531 . S
C2123 C2122 1.369 . S
C2123 C2124 1.410 . S
C2123 C2131 1.503 . S
C2124 C2123 1.410 . S
C2124 C2125 1.392 . S
C2124 C2127 1.511 . S
C2125 C2121 1.376 . S
C2125 C2124 1.392 . S
C2125 H2137 0.929 . S
C2126 C2122 1.531 . S
C2126 H2138 0.960 . S
C2126 H2139 0.962 . S
C2126 H2140 0.960 . S
C2127 C2124 1.511 . S
C2127 H2141 0.961 . S
C2127 H2142 0.961 . S
C2127 H2143 0.961 . S
C2128 C2129 1.370 . S
C2128 C2130 1.363 . S
C2128 H2144 0.931 . S
C2129 C2128 1.370 . S
C2129 C2133 1.408 . S
C2130 C2128 1.363 . S
C2130 C2131 1.370 . S
C2130 C2134 1.524 . S
C2131 C2123 1.503 . S
C2131 C2130 1.370 . S
C2131 C2132 1.403 . S
C2132 C2131 1.403 . S
C2132 C2133 1.404 . S
C2132 C2135 1.539 . S
C2133 C2129 1.408 . S
C2133 C2132 1.404 . S
C2133 H2145 0.930 . S
C2134 C2130 1.524 . S
C2134 H2146 0.956 . S
C2134 H2147 0.961 . S
C2134 H2148 0.961 . S
C2135 C2132 1.539 . S
C2135 H2149 0.958 . S
C2135 H2150 0.961 . S
C2135 H2151 0.960 . S
H2136 C2120 0.931 . S
H2137 C2125 0.929 . S
H2138 C2126 0.960 . S
H2139 C2126 0.962 . S
H2140 C2126 0.960 . S
H2141 C2127 0.961 . S
H2142 C2127 0.961 . S
H2143 C2127 0.961 . S
H2144 C2128 0.931 . S
H2145 C2133 0.930 . S
H2146 C2134 0.956 . S
H2147 C2134 0.961 . S
H2148 C2134 0.961 . S
H2149 C2135 0.958 . S
H2150 C2135 0.961 . S
H2151 C2135 0.960 . S
C2152 C2153 1.391 . S
C2152 C2154 1.394 . S
C2152 H2168 0.931 . S
C2153 C2152 1.391 . S
C2153 C2157 1.376 . S
C2154 C2152 1.394 . S
C2154 C2155 1.369 . S
C2154 C2158 1.531 . S
C2155 C2154 1.369 . S
C2155 C2156 1.410 . S
C2155 C2163 1.503 . S
C2156 C2155 1.410 . S
C2156 C2157 1.392 . S
C2156 C2159 1.511 . S
C2157 C2153 1.376 . S
C2157 C2156 1.392 . S
C2157 H2169 0.929 . S
C2158 C2154 1.531 . S
C2158 H2170 0.960 . S
C2158 H2171 0.962 . S
C2158 H2172 0.960 . S
C2159 C2156 1.511 . S
C2159 H2173 0.961 . S
C2159 H2174 0.961 . S
C2159 H2175 0.961 . S
C2160 C2161 1.370 . S
C2160 C2162 1.363 . S
C2160 H2176 0.931 . S
C2161 C2160 1.370 . S
C2161 C2165 1.408 . S
C2162 C2160 1.363 . S
C2162 C2163 1.370 . S
C2162 C2166 1.524 . S
C2163 C2155 1.503 . S
C2163 C2162 1.370 . S
C2163 C2164 1.403 . S
C2164 C2163 1.403 . S
C2164 C2165 1.404 . S
C2164 C2167 1.539 . S
C2165 C2161 1.408 . S
C2165 C2164 1.404 . S
C2165 H2177 0.930 . S
C2166 C2162 1.524 . S
C2166 H2178 0.956 . S
C2166 H2179 0.961 . S
C2166 H2180 0.961 . S
C2167 C2164 1.539 . S
C2167 H2181 0.958 . S
C2167 H2182 0.961 . S
C2167 H2183 0.960 . S
H2168 C2152 0.931 . S
H2169 C2157 0.929 . S
H2170 C2158 0.960 . S
H2171 C2158 0.962 . S
H2172 C2158 0.960 . S
H2173 C2159 0.961 . S
H2174 C2159 0.961 . S
H2175 C2159 0.961 . S
H2176 C2160 0.931 . S
H2177 C2165 0.930 . S
H2178 C2166 0.956 . S
H2179 C2166 0.961 . S
H2180 C2166 0.961 . S
H2181 C2167 0.958 . S
H2182 C2167 0.961 . S
H2183 C2167 0.960 . S
C2184 C2185 1.391 . S
C2184 C2186 1.394 . S
C2184 H2200 0.931 . S
C2185 C2184 1.391 . S
C2185 C2189 1.376 . S
C2186 C2184 1.394 . S
C2186 C2187 1.369 . S
C2186 C2190 1.531 . S
C2187 C2186 1.369 . S
C2187 C2188 1.410 . S
C2187 C2195 1.503 . S
C2188 C2187 1.410 . S
C2188 C2189 1.392 . S
C2188 C2191 1.511 . S
C2189 C2185 1.376 . S
C2189 C2188 1.392 . S
C2189 H2201 0.929 . S
C2190 C2186 1.531 . S
C2190 H2202 0.960 . S
C2190 H2203 0.962 . S
C2190 H2204 0.960 . S
C2191 C2188 1.511 . S
C2191 H2205 0.961 . S
C2191 H2206 0.961 . S
C2191 H2207 0.961 . S
C2192 C2193 1.370 . S
C2192 C2194 1.363 . S
C2192 H2208 0.931 . S
C2193 C2192 1.370 . S
C2193 C2197 1.408 . S
C2194 C2192 1.363 . S
C2194 C2195 1.370 . S
C2194 C2198 1.524 . S
C2195 C2187 1.503 . S
C2195 C2194 1.370 . S
C2195 C2196 1.403 . S
C2196 C2195 1.403 . S
C2196 C2197 1.404 . S
C2196 C2199 1.539 . S
C2197 C2193 1.408 . S
C2197 C2196 1.404 . S
C2197 H2209 0.930 . S
C2198 C2194 1.524 . S
C2198 H2210 0.956 . S
C2198 H2211 0.961 . S
C2198 H2212 0.961 . S
C2199 C2196 1.539 . S
C2199 H2213 0.958 . S
C2199 H2214 0.961 . S
C2199 H2215 0.960 . S
H2200 C2184 0.931 . S
H2201 C2189 0.929 . S
H2202 C2190 0.960 . S
H2203 C2190 0.962 . S
H2204 C2190 0.960 . S
H2205 C2191 0.961 . S
H2206 C2191 0.961 . S
H2207 C2191 0.961 . S
H2208 C2192 0.931 . S
H2209 C2197 0.930 . S
H2210 C2198 0.956 . S
H2211 C2198 0.961 . S
H2212 C2198 0.961 . S
H2213 C2199 0.958 . S
H2214 C2199 0.961 . S
H2215 C2199 0.960 . S
C2216 C2217 1.391 . S
C2216 C2218 1.394 . S
C2216 H2232 0.931 . S
C2217 C2216 1.391 . S
C2217 C2221 1.376 . S
C2218 C2216 1.394 . S
C2218 C2219 1.369 . S
C2218 C2222 1.531 . S
C2219 C2218 1.369 . S
C2219 C2220 1.410 . S
C2219 C2227 1.503 . S
C2220 C2219 1.410 . S
C2220 C2221 1.392 . S
C2220 C2223 1.511 . S
C2221 C2217 1.376 . S
C2221 C2220 1.392 . S
C2221 H2233 0.929 . S
C2222 C2218 1.531 . S
C2222 H2234 0.960 . S
C2222 H2235 0.962 . S
C2222 H2236 0.960 . S
C2223 C2220 1.511 . S
C2223 H2237 0.961 . S
C2223 H2238 0.961 . S
C2223 H2239 0.961 . S
C2224 C2225 1.370 . S
C2224 C2226 1.363 . S
C2224 H2240 0.931 . S
C2225 C2224 1.370 . S
C2225 C2229 1.408 . S
C2226 C2224 1.363 . S
C2226 C2227 1.370 . S
C2226 C2230 1.524 . S
C2227 C2219 1.503 . S
C2227 C2226 1.370 . S
C2227 C2228 1.403 . S
C2228 C2227 1.403 . S
C2228 C2229 1.404 . S
C2228 C2231 1.539 . S
C2229 C2225 1.408 . S
C2229 C2228 1.404 . S
C2229 H2241 0.930 . S
C2230 C2226 1.524 . S
C2230 H2242 0.956 . S
C2230 H2243 0.961 . S
C2230 H2244 0.961 . S
C2231 C2228 1.539 . S
C2231 H2245 0.958 . S
C2231 H2246 0.961 . S
C2231 H2247 0.960 . S
H2232 C2216 0.931 . S
H2233 C2221 0.929 . S
H2234 C2222 0.960 . S
H2235 C2222 0.962 . S
H2236 C2222 0.960 . S
H2237 C2223 0.961 . S
H2238 C2223 0.961 . S
H2239 C2223 0.961 . S
H2240 C2224 0.931 . S
H2241 C2229 0.930 . S
H2242 C2230 0.956 . S
H2243 C2230 0.961 . S
H2244 C2230 0.961 . S
H2245 C2231 0.958 . S
H2246 C2231 0.961 . S
H2247 C2231 0.960 . S
C2248 C2249 1.391 . S
C2248 C2250 1.394 . S
C2248 H2264 0.931 . S
C2249 C2248 1.391 . S
C2249 C2253 1.376 . S
C2250 C2248 1.394 . S
C2250 C2251 1.369 . S
C2250 C2254 1.531 . S
C2251 C2250 1.369 . S
C2251 C2252 1.410 . S
C2251 C2259 1.503 . S
C2252 C2251 1.410 . S
C2252 C2253 1.392 . S
C2252 C2255 1.511 . S
C2253 C2249 1.376 . S
C2253 C2252 1.392 . S
C2253 H2265 0.929 . S
C2254 C2250 1.531 . S
C2254 H2266 0.960 . S
C2254 H2267 0.962 . S
C2254 H2268 0.960 . S
C2255 C2252 1.511 . S
C2255 H2269 0.961 . S
C2255 H2270 0.961 . S
C2255 H2271 0.961 . S
C2256 C2257 1.370 . S
C2256 C2258 1.363 . S
C2256 H2272 0.931 . S
C2257 C2256 1.370 . S
C2257 C2261 1.408 . S
C2258 C2256 1.363 . S
C2258 C2259 1.370 . S
C2258 C2262 1.524 . S
C2259 C2251 1.503 . S
C2259 C2258 1.370 . S
C2259 C2260 1.403 . S
C2260 C2259 1.403 . S
C2260 C2261 1.404 . S
C2260 C2263 1.539 . S
C2261 C2257 1.408 . S
C2261 C2260 1.404 . S
C2261 H2273 0.930 . S
C2262 C2258 1.524 . S
C2262 H2274 0.956 . S
C2262 H2275 0.961 . S
C2262 H2276 0.961 . S
C2263 C2260 1.539 . S
C2263 H2277 0.958 . S
C2263 H2278 0.961 . S
C2263 H2279 0.960 . S
H2264 C2248 0.931 . S
H2265 C2253 0.929 . S
H2266 C2254 0.960 . S
H2267 C2254 0.962 . S
H2268 C2254 0.960 . S
H2269 C2255 0.961 . S
H2270 C2255 0.961 . S
H2271 C2255 0.961 . S
H2272 C2256 0.931 . S
H2273 C2261 0.930 . S
H2274 C2262 0.956 . S
H2275 C2262 0.961 . S
H2276 C2262 0.961 . S
H2277 C2263 0.958 . S
H2278 C2263 0.961 . S
H2279 C2263 0.960 . S
C2280 C2281 1.391 . S
C2280 C2282 1.394 . S
C2280 H2296 0.931 . S
C2281 C2280 1.391 . S
C2281 C2285 1.376 . S
C2282 C2280 1.394 . S
C2282 C2283 1.369 . S
C2282 C2286 1.531 . S
C2283 C2282 1.369 . S
C2283 C2284 1.410 . S
C2283 C2291 1.503 . S
C2284 C2283 1.410 . S
C2284 C2285 1.392 . S
C2284 C2287 1.511 . S
C2285 C2281 1.376 . S
C2285 C2284 1.392 . S
C2285 H2297 0.929 . S
C2286 C2282 1.531 . S
C2286 H2298 0.960 . S
C2286 H2299 0.962 . S
C2286 H2300 0.960 . S
C2287 C2284 1.511 . S
C2287 H2301 0.961 . S
C2287 H2302 0.961 . S
C2287 H2303 0.961 . S
C2288 C2289 1.370 . S
C2288 C2290 1.363 . S
C2288 H2304 0.931 . S
C2289 C2288 1.370 . S
C2289 C2293 1.408 . S
C2290 C2288 1.363 . S
C2290 C2291 1.370 . S
C2290 C2294 1.524 . S
C2291 C2283 1.503 . S
C2291 C2290 1.370 . S
C2291 C2292 1.403 . S
C2292 C2291 1.403 . S
C2292 C2293 1.404 . S
C2292 C2295 1.539 . S
C2293 C2289 1.408 . S
C2293 C2292 1.404 . S
C2293 H2305 0.930 . S
C2294 C2290 1.524 . S
C2294 H2306 0.956 . S
C2294 H2307 0.961 . S
C2294 H2308 0.961 . S
C2295 C2292 1.539 . S
C2295 H2309 0.958 . S
C2295 H2310 0.961 . S
C2295 H2311 0.960 . S
H2296 C2280 0.931 . S
H2297 C2285 0.929 . S
H2298 C2286 0.960 . S
H2299 C2286 0.962 . S
H2300 C2286 0.960 . S
H2301 C2287 0.961 . S
H2302 C2287 0.961 . S
H2303 C2287 0.961 . S
H2304 C2288 0.931 . S
H2305 C2293 0.930 . S
H2306 C2294 0.956 . S
H2307 C2294 0.961 . S
H2308 C2294 0.961 . S
H2309 C2295 0.958 . S
H2310 C2295 0.961 . S
H2311 C2295 0.960 . S
C2312 C2313 1.391 . S
C2312 C2314 1.394 . S
C2312 H2328 0.931 . S
C2313 C2312 1.391 . S
C2313 C2317 1.376 . S
C2314 C2312 1.394 . S
C2314 C2315 1.369 . S
C2314 C2318 1.531 . S
C2315 C2314 1.369 . S
C2315 C2316 1.410 . S
C2315 C2323 1.503 . S
C2316 C2315 1.410 . S
C2316 C2317 1.392 . S
C2316 C2319 1.511 . S
C2317 C2313 1.376 . S
C2317 C2316 1.392 . S
C2317 H2329 0.929 . S
C2318 C2314 1.531 . S
C2318 H2330 0.960 . S
C2318 H2331 0.962 . S
C2318 H2332 0.960 . S
C2319 C2316 1.511 . S
C2319 H2333 0.961 . S
C2319 H2334 0.961 . S
C2319 H2335 0.961 . S
C2320 C2321 1.370 . S
C2320 C2322 1.363 . S
C2320 H2336 0.931 . S
C2321 C2320 1.370 . S
C2321 C2325 1.408 . S
C2322 C2320 1.363 . S
C2322 C2323 1.370 . S
C2322 C2326 1.524 . S
C2323 C2315 1.503 . S
C2323 C2322 1.370 . S
C2323 C2324 1.403 . S
C2324 C2323 1.403 . S
C2324 C2325 1.404 . S
C2324 C2327 1.539 . S
C2325 C2321 1.408 . S
C2325 C2324 1.404 . S
C2325 H2337 0.930 . S
C2326 C2322 1.524 . S
C2326 H2338 0.956 . S
C2326 H2339 0.961 . S
C2326 H2340 0.961 . S
C2327 C2324 1.539 . S
C2327 H2341 0.958 . S
C2327 H2342 0.961 . S
C2327 H2343 0.960 . S
H2328 C2312 0.931 . S
H2329 C2317 0.929 . S
H2330 C2318 0.960 . S
H2331 C2318 0.962 . S
H2332 C2318 0.960 . S
H2333 C2319 0.961 . S
H2334 C2319 0.961 . S
H2335 C2319 0.961 . S
H2336 C2320 0.931 . S
H2337 C2325 0.930 . S
H2338 C2326 0.956 . S
H2339 C2326 0.961 . S
H2340 C2326 0.961 . S
H2341 C2327 0.958 . S
H2342 C2327 0.961 . S
H2343 C2327 0.960 . S
C2344 C2345 1.391 . S
C2344 C2346 1.394 . S
C2344 H2360 0.931 . S
C2345 C2344 1.391 . S
C2345 C2349 1.376 . S
C2346 C2344 1.394 . S
C2346 C2347 1.369 . S
C2346 C2350 1.531 . S
C2347 C2346 1.369 . S
C2347 C2348 1.410 . S
C2347 C2355 1.503 . S
C2348 C2347 1.410 . S
C2348 C2349 1.392 . S
C2348 C2351 1.511 . S
C2349 C2345 1.376 . S
C2349 C2348 1.392 . S
C2349 H2361 0.929 . S
C2350 C2346 1.531 . S
C2350 H2362 0.960 . S
C2350 H2363 0.962 . S
C2350 H2364 0.960 . S
C2351 C2348 1.511 . S
C2351 H2365 0.961 . S
C2351 H2366 0.961 . S
C2351 H2367 0.961 . S
C2352 C2353 1.370 . S
C2352 C2354 1.363 . S
C2352 H2368 0.931 . S
C2353 C2352 1.370 . S
C2353 C2357 1.408 . S
C2354 C2352 1.363 . S
C2354 C2355 1.370 . S
C2354 C2358 1.524 . S
C2355 C2347 1.503 . S
C2355 C2354 1.370 . S
C2355 C2356 1.403 . S
C2356 C2355 1.403 . S
C2356 C2357 1.404 . S
C2356 C2359 1.539 . S
C2357 C2353 1.408 . S
C2357 C2356 1.404 . S
C2357 H2369 0.930 . S
C2358 C2354 1.524 . S
C2358 H2370 0.956 . S
C2358 H2371 0.961 . S
C2358 H2372 0.961 . S
C2359 C2356 1.539 . S
C2359 H2373 0.958 . S
C2359 H2374 0.961 . S
C2359 H2375 0.960 . S
H2360 C2344 0.931 . S
H2361 C2349 0.929 . S
H2362 C2350 0.960 . S
H2363 C2350 0.962 . S
H2364 C2350 0.960 . S
H2365 C2351 0.961 . S
H2366 C2351 0.961 . S
H2367 C2351 0.961 . S
H2368 C2352 0.931 . S
H2369 C2357 0.930 . S
H2370 C2358 0.956 . S
H2371 C2358 0.961 . S
H2372 C2358 0.961 . S
H2373 C2359 0.958 . S
H2374 C2359 0.961 . S
H2375 C2359 0.960 . S
C2376 C2377 1.391 . S
C2376 C2378 1.394 . S
C2376 H2392 0.931 . S
C2377 C2376 1.391 . S
C2377 C2381 1.376 . S
C2378 C2376 1.394 . S
C2378 C2379 1.369 . S
C2378 C2382 1.531 . S
C2379 C2378 1.369 . S
C2379 C2380 1.410 . S
C2379 C2387 1.503 . S
C2380 C2379 1.410 . S
C2380 C2381 1.392 . S
C2380 C2383 1.511 . S
C2381 C2377 1.376 . S
C2381 C2380 1.392 . S
C2381 H2393 0.929 . S
C2382 C2378 1.531 . S
C2382 H2394 0.960 . S
C2382 H2395 0.962 . S
C2382 H2396 0.960 . S
C2383 C2380 1.511 . S
C2383 H2397 0.961 . S
C2383 H2398 0.961 . S
C2383 H2399 0.961 . S
C2384 C2385 1.370 . S
C2384 C2386 1.363 . S
C2384 H2400 0.931 . S
C2385 C2384 1.370 . S
C2385 C2389 1.408 . S
C2386 C2384 1.363 . S
C2386 C2387 1.370 . S
C2386 C2390 1.524 . S
C2387 C2379 1.503 . S
C2387 C2386 1.370 . S
C2387 C2388 1.403 . S
C2388 C2387 1.403 . S
C2388 C2389 1.404 . S
C2388 C2391 1.539 . S
C2389 C2385 1.408 . S
C2389 C2388 1.404 . S
C2389 H2401 0.930 . S
C2390 C2386 1.524 . S
C2390 H2402 0.956 . S
C2390 H2403 0.961 . S
C2390 H2404 0.961 . S
C2391 C2388 1.539 . S
C2391 H2405 0.958 . S
C2391 H2406 0.961 . S
C2391 H2407 0.960 . S
H2392 C2376 0.931 . S
H2393 C2381 0.929 . S
H2394 C2382 0.960 . S
H2395 C2382 0.962 . S
H2396 C2382 0.960 . S
H2397 C2383 0.961 . S
H2398 C2383 0.961 . S
H2399 C2383 0.961 . S
H2400 C2384 0.931 . S
H2401 C2389 0.930 . S
H2402 C2390 0.956 . S
H2403 C2390 0.961 . S
H2404 C2390 0.961 . S
H2405 C2391 0.958 . S
H2406 C2391 0.961 . S
H2407 C2391 0.960 . S
C2408 C2409 1.391 . S
C2408 C2410 1.394 . S
C2408 H2424 0.931 . S
C2409 C2408 1.391 . S
C2409 C2413 1.376 . S
C2410 C2408 1.394 . S
C2410 C2411 1.369 . S
C2410 C2414 1.531 . S
C2411 C2410 1.369 . S
C2411 C2412 1.410 . S
C2411 C2419 1.503 . S
C2412 C2411 1.410 . S
C2412 C2413 1.392 . S
C2412 C2415 1.511 . S
C2413 C2409 1.376 . S
C2413 C2412 1.392 . S
C2413 H2425 0.929 . S
C2414 C2410 1.531 . S
C2414 H2426 0.960 . S
C2414 H2427 0.962 . S
C2414 H2428 0.960 . S
C2415 C2412 1.511 . S
C2415 H2429 0.961 . S
C2415 H2430 0.961 . S
C2415 H2431 0.961 . S
C2416 C2417 1.370 . S
C2416 C2418 1.363 . S
C2416 H2432 0.931 . S
C2417 C2416 1.370 . S
C2417 C2421 1.408 . S
C2418 C2416 1.363 . S
C2418 C2419 1.370 . S
C2418 C2422 1.524 . S
C2419 C2411 1.503 . S
C2419 C2418 1.370 . S
C2419 C2420 1.403 . S
C2420 C2419 1.403 . S
C2420 C2421 1.404 . S
C2420 C2423 1.539 . S
C2421 C2417 1.408 . S
C2421 C2420 1.404 . S
C2421 H2433 0.930 . S
C2422 C2418 1.524 . S
C2422 H2434 0.956 . S
C2422 H2435 0.961 . S
C2422 H2436 0.961 . S
C2423 C2420 1.539 . S
C2423 H2437 0.958 . S
C2423 H2438 0.961 . S
C2423 H2439 0.960 . S
H2424 C2408 0.931 . S
H2425 C2413 0.929 . S
H2426 C2414 0.960 . S
H2427 C2414 0.962 . S
H2428 C2414 0.960 . S
H2429 C2415 0.961 . S
H2430 C2415 0.961 . S
H2431 C2415 0.961 . S
H2432 C2416 0.931 . S
H2433 C2421 0.930 . S
H2434 C2422 0.956 . S
H2435 C2422 0.961 . S
H2436 C2422 0.961 . S
H2437 C2423 0.958 . S
H2438 C2423 0.961 . S
H2439 C2423 0.960 . S
C2440 C2441 1.391 . S
C2440 C2442 1.394 . S
C2440 H2456 0.931 . S
C2441 C2440 1.391 . S
C2441 C2445 1.376 . S
C2442 C2440 1.394 . S
C2442 C2443 1.369 . S
C2442 C2446 1.531 . S
C2443 C2442 1.369 . S
C2443 C2444 1.410 . S
C2443 C2451 1.503 . S
C2444 C2443 1.410 . S
C2444 C2445 1.392 . S
C2444 C2447 1.511 . S
C2445 C2441 1.376 . S
C2445 C2444 1.392 . S
C2445 H2457 0.929 . S
C2446 C2442 1.531 . S
C2446 H2458 0.960 . S
C2446 H2459 0.962 . S
C2446 H2460 0.960 . S
C2447 C2444 1.511 . S
C2447 H2461 0.961 . S
C2447 H2462 0.961 . S
C2447 H2463 0.961 . S
C2448 C2449 1.370 . S
C2448 C2450 1.363 . S
C2448 H2464 0.931 . S
C2449 C2448 1.370 . S
C2449 C2453 1.408 . S
C2450 C2448 1.363 . S
C2450 C2451 1.370 . S
C2450 C2454 1.524 . S
C2451 C2443 1.503 . S
C2451 C2450 1.370 . S
C2451 C2452 1.403 . S
C2452 C2451 1.403 . S
C2452 C2453 1.404 . S
C2452 C2455 1.539 . S
C2453 C2449 1.408 . S
C2453 C2452 1.404 . S
C2453 H2465 0.930 . S
C2454 C2450 1.524 . S
C2454 H2466 0.956 . S
C2454 H2467 0.961 . S
C2454 H2468 0.961 . S
C2455 C2452 1.539 . S
C2455 H2469 0.958 . S
C2455 H2470 0.961 . S
C2455 H2471 0.960 . S
H2456 C2440 0.931 . S
H2457 C2445 0.929 . S
H2458 C2446 0.960 . S
H2459 C2446 0.962 . S
H2460 C2446 0.960 . S
H2461 C2447 0.961 . S
H2462 C2447 0.961 . S
H2463 C2447 0.961 . S
H2464 C2448 0.931 . S
H2465 C2453 0.930 . S
H2466 C2454 0.956 . S
H2467 C2454 0.961 . S
H2468 C2454 0.961 . S
H2469 C2455 0.958 . S
H2470 C2455 0.961 . S
H2471 C2455 0.960 . S
C2472 C2473 1.391 . S
C2472 C2474 1.394 . S
C2472 H2488 0.931 . S
C2473 C2472 1.391 . S
C2473 C2477 1.376 . S
C2474 C2472 1.394 . S
C2474 C2475 1.369 . S
C2474 C2478 1.531 . S
C2475 C2474 1.369 . S
C2475 C2476 1.410 . S
C2475 C2483 1.503 . S
C2476 C2475 1.410 . S
C2476 C2477 1.392 . S
C2476 C2479 1.511 . S
C2477 C2473 1.376 . S
C2477 C2476 1.392 . S
C2477 H2489 0.929 . S
C2478 C2474 1.531 . S
C2478 H2490 0.960 . S
C2478 H2491 0.962 . S
C2478 H2492 0.960 . S
C2479 C2476 1.511 . S
C2479 H2493 0.961 . S
C2479 H2494 0.961 . S
C2479 H2495 0.961 . S
C2480 C2481 1.370 . S
C2480 C2482 1.363 . S
C2480 H2496 0.931 . S
C2481 C2480 1.370 . S
C2481 C2485 1.408 . S
C2482 C2480 1.363 . S
C2482 C2483 1.370 . S
C2482 C2486 1.524 . S
C2483 C2475 1.503 . S
C2483 C2482 1.370 . S
C2483 C2484 1.403 . S
C2484 C2483 1.403 . S
C2484 C2485 1.404 . S
C2484 C2487 1.539 . S
C2485 C2481 1.408 . S
C2485 C2484 1.404 . S
C2485 H2497 0.930 . S
C2486 C2482 1.524 . S
C2486 H2498 0.956 . S
C2486 H2499 0.961 . S
C2486 H2500 0.961 . S
C2487 C2484 1.539 . S
C2487 H2501 0.958 . S
C2487 H2502 0.961 . S
C2487 H2503 0.960 . S
H2488 C2472 0.931 . S
H2489 C2477 0.929 . S
H2490 C2478 0.960 . S
H2491 C2478 0.962 . S
H2492 C2478 0.960 . S
H2493 C2479 0.961 . S
H2494 C2479 0.961 . S
H2495 C2479 0.961 . S
H2496 C2480 0.931 . S
H2497 C2485 0.930 . S
H2498 C2486 0.956 . S
H2499 C2486 0.961 . S
H2500 C2486 0.961 . S
H2501 C2487 0.958 . S
H2502 C2487 0.961 . S
H2503 C2487 0.960 . S
C2504 C2505 1.391 . S
C2504 C2506 1.394 . S
C2504 H2520 0.931 . S
C2505 C2504 1.391 . S
C2505 C2509 1.376 . S
C2506 C2504 1.394 . S
C2506 C2507 1.369 . S
C2506 C2510 1.531 . S
C2507 C2506 1.369 . S
C2507 C2508 1.410 . S
C2507 C2515 1.503 . S
C2508 C2507 1.410 . S
C2508 C2509 1.392 . S
C2508 C2511 1.511 . S
C2509 C2505 1.376 . S
C2509 C2508 1.392 . S
C2509 H2521 0.929 . S
C2510 C2506 1.531 . S
C2510 H2522 0.960 . S
C2510 H2523 0.962 . S
C2510 H2524 0.960 . S
C2511 C2508 1.511 . S
C2511 H2525 0.961 . S
C2511 H2526 0.961 . S
C2511 H2527 0.961 . S
C2512 C2513 1.370 . S
C2512 C2514 1.363 . S
C2512 H2528 0.931 . S
C2513 C2512 1.370 . S
C2513 C2517 1.408 . S
C2514 C2512 1.363 . S
C2514 C2515 1.370 . S
C2514 C2518 1.524 . S
C2515 C2507 1.503 . S
C2515 C2514 1.370 . S
C2515 C2516 1.403 . S
C2516 C2515 1.403 . S
C2516 C2517 1.404 . S
C2516 C2519 1.539 . S
C2517 C2513 1.408 . S
C2517 C2516 1.404 . S
C2517 H2529 0.930 . S
C2518 C2514 1.524 . S
C2518 H2530 0.956 . S
C2518 H2531 0.961 . S
C2518 H2532 0.961 . S
C2519 C2516 1.539 . S
C2519 H2533 0.958 . S
C2519 H2534 0.961 . S
C2519 H2535 0.960 . S
H2520 C2504 0.931 . S
H2521 C2509 0.929 . S
H2522 C2510 0.960 . S
H2523 C2510 0.962 . S
H2524 C2510 0.960 . S
H2525 C2511 0.961 . S
H2526 C2511 0.961 . S
H2527 C2511 0.961 . S
H2528 C2512 0.931 . S
H2529 C2517 0.930 . S
H2530 C2518 0.956 . S
H2531 C2518 0.961 . S
H2532 C2518 0.961 . S
H2533 C2519 0.958 . S
H2534 C2519 0.961 . S
H2535 C2519 0.960 . S
C2536 C2537 1.391 . S
C2536 C2538 1.394 . S
C2536 H2552 0.931 . S
C2537 C2536 1.391 . S
C2537 C2541 1.376 . S
C2538 C2536 1.394 . S
C2538 C2539 1.369 . S
C2538 C2542 1.531 . S
C2539 C2538 1.369 . S
C2539 C2540 1.410 . S
C2539 C2547 1.503 . S
C2540 C2539 1.410 . S
C2540 C2541 1.392 . S
C2540 C2543 1.511 . S
C2541 C2537 1.376 . S
C2541 C2540 1.392 . S
C2541 H2553 0.929 . S
C2542 C2538 1.531 . S
C2542 H2554 0.960 . S
C2542 H2555 0.962 . S
C2542 H2556 0.960 . S
C2543 C2540 1.511 . S
C2543 H2557 0.961 . S
C2543 H2558 0.961 . S
C2543 H2559 0.961 . S
C2544 C2545 1.370 . S
C2544 C2546 1.363 . S
C2544 H2560 0.931 . S
C2545 C2544 1.370 . S
C2545 C2549 1.408 . S
C2546 C2544 1.363 . S
C2546 C2547 1.370 . S
C2546 C2550 1.524 . S
C2547 C2539 1.503 . S
C2547 C2546 1.370 . S
C2547 C2548 1.403 . S
C2548 C2547 1.403 . S
C2548 C2549 1.404 . S
C2548 C2551 1.539 . S
C2549 C2545 1.408 . S
C2549 C2548 1.404 . S
C2549 H2561 0.930 . S
C2550 C2546 1.524 . S
C2550 H2562 0.956 . S
C2550 H2563 0.961 . S
C2550 H2564 0.961 . S
C2551 C2548 1.539 . S
C2551 H2565 0.958 . S
C2551 H2566 0.961 . S
C2551 H2567 0.960 . S
H2552 C2536 0.931 . S
H2553 C2541 0.929 . S
H2554 C2542 0.960 . S
H2555 C2542 0.962 . S
H2556 C2542 0.960 . S
H2557 C2543 0.961 . S
H2558 C2543 0.961 . S
H2559 C2543 0.961 . S
H2560 C2544 0.931 . S
H2561 C2549 0.930 . S
H2562 C2550 0.956 . S
H2563 C2550 0.961 . S
H2564 C2550 0.961 . S
H2565 C2551 0.958 . S
H2566 C2551 0.961 . S
H2567 C2551 0.960 . S
C2568 C2569 1.391 . S
C2568 C2570 1.394 . S
C2568 H2584 0.931 . S
C2569 C2568 1.391 . S
C2569 C2573 1.376 . S
C2570 C2568 1.394 . S
C2570 C2571 1.369 . S
C2570 C2574 1.531 . S
C2571 C2570 1.369 . S
C2571 C2572 1.410 . S
C2571 C2579 1.503 . S
C2572 C2571 1.410 . S
C2572 C2573 1.392 . S
C2572 C2575 1.511 . S
C2573 C2569 1.376 . S
C2573 C2572 1.392 . S
C2573 H2585 0.929 . S
C2574 C2570 1.531 . S
C2574 H2586 0.960 . S
C2574 H2587 0.962 . S
C2574 H2588 0.960 . S
C2575 C2572 1.511 . S
C2575 H2589 0.961 . S
C2575 H2590 0.961 . S
C2575 H2591 0.961 . S
C2576 C2577 1.370 . S
C2576 C2578 1.363 . S
C2576 H2592 0.931 . S
C2577 C2576 1.370 . S
C2577 C2581 1.408 . S
C2578 C2576 1.363 . S
C2578 C2579 1.370 . S
C2578 C2582 1.524 . S
C2579 C2571 1.503 . S
C2579 C2578 1.370 . S
C2579 C2580 1.403 . S
C2580 C2579 1.403 . S
C2580 C2581 1.404 . S
C2580 C2583 1.539 . S
C2581 C2577 1.408 . S
C2581 C2580 1.404 . S
C2581 H2593 0.930 . S
C2582 C2578 1.524 . S
C2582 H2594 0.956 . S
C2582 H2595 0.961 . S
C2582 H2596 0.961 . S
C2583 C2580 1.539 . S
C2583 H2597 0.958 . S
C2583 H2598 0.961 . S
C2583 H2599 0.960 . S
H2584 C2568 0.931 . S
H2585 C2573 0.929 . S
H2586 C2574 0.960 . S
H2587 C2574 0.962 . S
H2588 C2574 0.960 . S
H2589 C2575 0.961 . S
H2590 C2575 0.961 . S
H2591 C2575 0.961 . S
H2592 C2576 0.931 . S
H2593 C2581 0.930 . S
H2594 C2582 0.956 . S
H2595 C2582 0.961 . S
H2596 C2582 0.961 . S
H2597 C2583 0.958 . S
H2598 C2583 0.961 . S
H2599 C2583 0.960 . S
C2600 C2601 1.391 . S
C2600 C2602 1.394 . S
C2600 H2616 0.931 . S
C2601 C2600 1.391 . S
C2601 C2605 1.376 . S
C2602 C2600 1.394 . S
C2602 C2603 1.369 . S
C2602 C2606 1.531 . S
C2603 C2602 1.369 . S
C2603 C2604 1.410 . S
C2603 C2611 1.503 . S
C2604 C2603 1.410 . S
C2604 C2605 1.392 . S
C2604 C2607 1.511 . S
C2605 C2601 1.376 . S
C2605 C2604 1.392 . S
C2605 H2617 0.929 . S
C2606 C2602 1.531 . S
C2606 H2618 0.960 . S
C2606 H2619 0.962 . S
C2606 H2620 0.960 . S
C2607 C2604 1.511 . S
C2607 H2621 0.961 . S
C2607 H2622 0.961 . S
C2607 H2623 0.961 . S
C2608 C2609 1.370 . S
C2608 C2610 1.363 . S
C2608 H2624 0.931 . S
C2609 C2608 1.370 . S
C2609 C2613 1.408 . S
C2610 C2608 1.363 . S
C2610 C2611 1.370 . S
C2610 C2614 1.524 . S
C2611 C2603 1.503 . S
C2611 C2610 1.370 . S
C2611 C2612 1.403 . S
C2612 C2611 1.403 . S
C2612 C2613 1.404 . S
C2612 C2615 1.539 . S
C2613 C2609 1.408 . S
C2613 C2612 1.404 . S
C2613 H2625 0.930 . S
C2614 C2610 1.524 . S
C2614 H2626 0.956 . S
C2614 H2627 0.961 . S
C2614 H2628 0.961 . S
C2615 C2612 1.539 . S
C2615 H2629 0.958 . S
C2615 H2630 0.961 . S
C2615 H2631 0.960 . S
H2616 C2600 0.931 . S
H2617 C2605 0.929 . S
H2618 C2606 0.960 . S
H2619 C2606 0.962 . S
H2620 C2606 0.960 . S
H2621 C2607 0.961 . S
H2622 C2607 0.961 . S
H2623 C2607 0.961 . S
H2624 C2608 0.931 . S
H2625 C2613 0.930 . S
H2626 C2614 0.956 . S
H2627 C2614 0.961 . S
H2628 C2614 0.961 . S
H2629 C2615 0.958 . S
H2630 C2615 0.961 . S
H2631 C2615 0.960 . S
C2632 C2633 1.391 . S
C2632 C2634 1.394 . S
C2632 H2648 0.931 . S
C2633 C2632 1.391 . S
C2633 C2637 1.376 . S
C2634 C2632 1.394 . S
C2634 C2635 1.369 . S
C2634 C2638 1.531 . S
C2635 C2634 1.369 . S
C2635 C2636 1.410 . S
C2635 C2643 1.503 . S
C2636 C2635 1.410 . S
C2636 C2637 1.392 . S
C2636 C2639 1.511 . S
C2637 C2633 1.376 . S
C2637 C2636 1.392 . S
C2637 H2649 0.929 . S
C2638 C2634 1.531 . S
C2638 H2650 0.960 . S
C2638 H2651 0.962 . S
C2638 H2652 0.960 . S
C2639 C2636 1.511 . S
C2639 H2653 0.961 . S
C2639 H2654 0.961 . S
C2639 H2655 0.961 . S
C2640 C2641 1.370 . S
C2640 C2642 1.363 . S
C2640 H2656 0.931 . S
C2641 C2640 1.370 . S
C2641 C2645 1.408 . S
C2642 C2640 1.363 . S
C2642 C2643 1.370 . S
C2642 C2646 1.524 . S
C2643 C2635 1.503 . S
C2643 C2642 1.370 . S
C2643 C2644 1.403 . S
C2644 C2643 1.403 . S
C2644 C2645 1.404 . S
C2644 C2647 1.539 . S
C2645 C2641 1.408 . S
C2645 C2644 1.404 . S
C2645 H2657 0.930 . S
C2646 C2642 1.524 . S
C2646 H2658 0.956 . S
C2646 H2659 0.961 . S
C2646 H2660 0.961 . S
C2647 C2644 1.539 . S
C2647 H2661 0.958 . S
C2647 H2662 0.961 . S
C2647 H2663 0.960 . S
H2648 C2632 0.931 . S
H2649 C2637 0.929 . S
H2650 C2638 0.960 . S
H2651 C2638 0.962 . S
H2652 C2638 0.960 . S
H2653 C2639 0.961 . S
H2654 C2639 0.961 . S
H2655 C2639 0.961 . S
H2656 C2640 0.931 . S
H2657 C2645 0.930 . S
H2658 C2646 0.956 . S
H2659 C2646 0.961 . S
H2660 C2646 0.961 . S
H2661 C2647 0.958 . S
H2662 C2647 0.961 . S
H2663 C2647 0.960 . S
C2664 C2665 1.391 . S
C2664 C2666 1.394 . S
C2664 H2680 0.931 . S
C2665 C2664 1.391 . S
C2665 C2669 1.376 . S
C2666 C2664 1.394 . S
C2666 C2667 1.369 . S
C2666 C2670 1.531 . S
C2667 C2666 1.369 . S
C2667 C2668 1.410 . S
C2667 C2675 1.503 . S
C2668 C2667 1.410 . S
C2668 C2669 1.392 . S
C2668 C2671 1.511 . S
C2669 C2665 1.376 . S
C2669 C2668 1.392 . S
C2669 H2681 0.929 . S
C2670 C2666 1.531 . S
C2670 H2682 0.960 . S
C2670 H2683 0.962 . S
C2670 H2684 0.960 . S
C2671 C2668 1.511 . S
C2671 H2685 0.961 . S
C2671 H2686 0.961 . S
C2671 H2687 0.961 . S
C2672 C2673 1.370 . S
C2672 C2674 1.363 . S
C2672 H2688 0.931 . S
C2673 C2672 1.370 . S
C2673 C2677 1.408 . S
C2674 C2672 1.363 . S
C2674 C2675 1.370 . S
C2674 C2678 1.524 . S
C2675 C2667 1.503 . S
C2675 C2674 1.370 . S
C2675 C2676 1.403 . S
C2676 C2675 1.403 . S
C2676 C2677 1.404 . S
C2676 C2679 1.539 . S
C2677 C2673 1.408 . S
C2677 C2676 1.404 . S
C2677 H2689 0.930 . S
C2678 C2674 1.524 . S
C2678 H2690 0.956 . S
C2678 H2691 0.961 . S
C2678 H2692 0.961 . S
C2679 C2676 1.539 . S
C2679 H2693 0.958 . S
C2679 H2694 0.961 . S
C2679 H2695 0.960 . S
H2680 C2664 0.931 . S
H2681 C2669 0.929 . S
H2682 C2670 0.960 . S
H2683 C2670 0.962 . S
H2684 C2670 0.960 . S
H2685 C2671 0.961 . S
H2686 C2671 0.961 . S
H2687 C2671 0.961 . S
H2688 C2672 0.931 . S
H2689 C2677 0.930 . S
H2690 C2678 0.956 . S
H2691 C2678 0.961 . S
H2692 C2678 0.961 . S
H2693 C2679 0.958 . S
H2694 C2679 0.961 . S
H2695 C2679 0.960 . S
C2696 C2697 1.391 . S
C2696 C2698 1.394 . S
C2696 H2712 0.931 . S
C2697 C2696 1.391 . S
C2697 C2701 1.376 . S
C2698 C2696 1.394 . S
C2698 C2699 1.369 . S
C2698 C2702 1.531 . S
C2699 C2698 1.369 . S
C2699 C2700 1.410 . S
C2699 C2707 1.503 . S
C2700 C2699 1.410 . S
C2700 C2701 1.392 . S
C2700 C2703 1.511 . S
C2701 C2697 1.376 . S
C2701 C2700 1.392 . S
C2701 H2713 0.929 . S
C2702 C2698 1.531 . S
C2702 H2714 0.960 . S
C2702 H2715 0.962 . S
C2702 H2716 0.960 . S
C2703 C2700 1.511 . S
C2703 H2717 0.961 . S
C2703 H2718 0.961 . S
C2703 H2719 0.961 . S
C2704 C2705 1.370 . S
C2704 C2706 1.363 . S
C2704 H2720 0.931 . S
C2705 C2704 1.370 . S
C2705 C2709 1.408 . S
C2706 C2704 1.363 . S
C2706 C2707 1.370 . S
C2706 C2710 1.524 . S
C2707 C2699 1.503 . S
C2707 C2706 1.370 . S
C2707 C2708 1.403 . S
C2708 C2707 1.403 . S
C2708 C2709 1.404 . S
C2708 C2711 1.539 . S
C2709 C2705 1.408 . S
C2709 C2708 1.404 . S
C2709 H2721 0.930 . S
C2710 C2706 1.524 . S
C2710 H2722 0.956 . S
C2710 H2723 0.961 . S
C2710 H2724 0.961 . S
C2711 C2708 1.539 . S
C2711 H2725 0.958 . S
C2711 H2726 0.961 . S
C2711 H2727 0.960 . S
H2712 C2696 0.931 . S
H2713 C2701 0.929 . S
H2714 C2702 0.960 . S
H2715 C2702 0.962 . S
H2716 C2702 0.960 . S
H2717 C2703 0.961 . S
H2718 C2703 0.961 . S
H2719 C2703 0.961 . S
H2720 C2704 0.931 . S
H2721 C2709 0.930 . S
H2722 C2710 0.956 . S
H2723 C2710 0.961 . S
H2724 C2710 0.961 . S
H2725 C2711 0.958 . S
H2726 C2711 0.961 . S
H2727 C2711 0.960 . S
C2728 C2729 1.391 . S
C2728 C2730 1.394 . S
C2728 H2744 0.931 . S
C2729 C2728 1.391 . S
C2729 C2733 1.376 . S
C2730 C2728 1.394 . S
C2730 C2731 1.369 . S
C2730 C2734 1.531 . S
C2731 C2730 1.369 . S
C2731 C2732 1.410 . S
C2731 C2739 1.503 . S
C2732 C2731 1.410 . S
C2732 C2733 1.392 . S
C2732 C2735 1.511 . S
C2733 C2729 1.376 . S
C2733 C2732 1.392 . S
C2733 H2745 0.929 . S
C2734 C2730 1.531 . S
C2734 H2746 0.960 . S
C2734 H2747 0.962 . S
C2734 H2748 0.960 . S
C2735 C2732 1.511 . S
C2735 H2749 0.961 . S
C2735 H2750 0.961 . S
C2735 H2751 0.961 . S
C2736 C2737 1.370 . S
C2736 C2738 1.363 . S
C2736 H2752 0.931 . S
C2737 C2736 1.370 . S
C2737 C2741 1.408 . S
C2738 C2736 1.363 . S
C2738 C2739 1.370 . S
C2738 C2742 1.524 . S
C2739 C2731 1.503 . S
C2739 C2738 1.370 . S
C2739 C2740 1.403 . S
C2740 C2739 1.403 . S
C2740 C2741 1.404 . S
C2740 C2743 1.539 . S
C2741 C2737 1.408 . S
C2741 C2740 1.404 . S
C2741 H2753 0.930 . S
C2742 C2738 1.524 . S
C2742 H2754 0.956 . S
C2742 H2755 0.961 . S
C2742 H2756 0.961 . S
C2743 C2740 1.539 . S
C2743 H2757 0.958 . S
C2743 H2758 0.961 . S
C2743 H2759 0.960 . S
H2744 C2728 0.931 . S
H2745 C2733 0.929 . S
H2746 C2734 0.960 . S
H2747 C2734 0.962 . S
H2748 C2734 0.960 . S
H2749 C2735 0.961 . S
H2750 C2735 0.961 . S
H2751 C2735 0.961 . S
H2752 C2736 0.931 . S
H2753 C2741 0.930 . S
H2754 C2742 0.956 . S
H2755 C2742 0.961 . S
H2756 C2742 0.961 . S
H2757 C2743 0.958 . S
H2758 C2743 0.961 . S
H2759 C2743 0.960 . S
C2760 C2761 1.391 . S
C2760 C2762 1.394 . S
C2760 H2776 0.931 . S
C2761 C2760 1.391 . S
C2761 C2765 1.376 . S
C2762 C2760 1.394 . S
C2762 C2763 1.369 . S
C2762 C2766 1.531 . S
C2763 C2762 1.369 . S
C2763 C2764 1.410 . S
C2763 C2771 1.503 . S
C2764 C2763 1.410 . S
C2764 C2765 1.392 . S
C2764 C2767 1.511 . S
C2765 C2761 1.376 . S
C2765 C2764 1.392 . S
C2765 H2777 0.929 . S
C2766 C2762 1.531 . S
C2766 H2778 0.960 . S
C2766 H2779 0.962 . S
C2766 H2780 0.960 . S
C2767 C2764 1.511 . S
C2767 H2781 0.961 . S
C2767 H2782 0.961 . S
C2767 H2783 0.961 . S
C2768 C2769 1.370 . S
C2768 C2770 1.363 . S
C2768 H2784 0.931 . S
C2769 C2768 1.370 . S
C2769 C2773 1.408 . S
C2770 C2768 1.363 . S
C2770 C2771 1.370 . S
C2770 C2774 1.524 . S
C2771 C2763 1.503 . S
C2771 C2770 1.370 . S
C2771 C2772 1.403 . S
C2772 C2771 1.403 . S
C2772 C2773 1.404 . S
C2772 C2775 1.539 . S
C2773 C2769 1.408 . S
C2773 C2772 1.404 . S
C2773 H2785 0.930 . S
C2774 C2770 1.524 . S
C2774 H2786 0.956 . S
C2774 H2787 0.961 . S
C2774 H2788 0.961 . S
C2775 C2772 1.539 . S
C2775 H2789 0.958 . S
C2775 H2790 0.961 . S
C2775 H2791 0.960 . S
H2776 C2760 0.931 . S
H2777 C2765 0.929 . S
H2778 C2766 0.960 . S
H2779 C2766 0.962 . S
H2780 C2766 0.960 . S
H2781 C2767 0.961 . S
H2782 C2767 0.961 . S
H2783 C2767 0.961 . S
H2784 C2768 0.931 . S
H2785 C2773 0.930 . S
H2786 C2774 0.956 . S
H2787 C2774 0.961 . S
H2788 C2774 0.961 . S
H2789 C2775 0.958 . S
H2790 C2775 0.961 . S
H2791 C2775 0.960 . S
C2792 C2793 1.391 . S
C2792 C2794 1.394 . S
C2792 H2808 0.931 . S
C2793 C2792 1.391 . S
C2793 C2797 1.376 . S
C2794 C2792 1.394 . S
C2794 C2795 1.369 . S
C2794 C2798 1.531 . S
C2795 C2794 1.369 . S
C2795 C2796 1.410 . S
C2795 C2803 1.503 . S
C2796 C2795 1.410 . S
C2796 C2797 1.392 . S
C2796 C2799 1.511 . S
C2797 C2793 1.376 . S
C2797 C2796 1.392 . S
C2797 H2809 0.929 . S
C2798 C2794 1.531 . S
C2798 H2810 0.960 . S
C2798 H2811 0.962 . S
C2798 H2812 0.960 . S
C2799 C2796 1.511 . S
C2799 H2813 0.961 . S
C2799 H2814 0.961 . S
C2799 H2815 0.961 . S
C2800 C2801 1.370 . S
C2800 C2802 1.363 . S
C2800 H2816 0.931 . S
C2801 C2800 1.370 . S
C2801 C2805 1.408 . S
C2802 C2800 1.363 . S
C2802 C2803 1.370 . S
C2802 C2806 1.524 . S
C2803 C2795 1.503 . S
C2803 C2802 1.370 . S
C2803 C2804 1.403 . S
C2804 C2803 1.403 . S
C2804 C2805 1.404 . S
C2804 C2807 1.539 . S
C2805 C2801 1.408 . S
C2805 C2804 1.404 . S
C2805 H2817 0.930 . S
C2806 C2802 1.524 . S
C2806 H2818 0.956 . S
C2806 H2819 0.961 . S
C2806 H2820 0.961 . S
C2807 C2804 1.539 . S
C2807 H2821 0.958 . S
C2807 H2822 0.961 . S
C2807 H2823 0.960 . S
H2808 C2792 0.931 . S
H2809 C2797 0.929 . S
H2810 C2798 0.960 . S
H2811 C2798 0.962 . S
H2812 C2798 0.960 . S
H2813 C2799 0.961 . S
H2814 C2799 0.961 . S
H2815 C2799 0.961 . S
H2816 C2800 0.931 . S
H2817 C2805 0.930 . S
H2818 C2806 0.956 . S
H2819 C2806 0.961 . S
H2820 C2806 0.961 . S
H2821 C2807 0.958 . S
H2822 C2807 0.961 . S
H2823 C2807 0.960 . S
C2824 C2825 1.391 . S
C2824 C2826 1.394 . S
C2824 H2840 0.931 . S
C2825 C2824 1.391 . S
C2825 C2829 1.376 . S
C2826 C2824 1.394 . S
C2826 C2827 1.369 . S
C2826 C2830 1.531 . S
C2827 C2826 1.369 . S
C2827 C2828 1.410 . S
C2827 C2835 1.503 . S
C2828 C2827 1.410 . S
C2828 C2829 1.392 . S
C2828 C2831 1.511 . S
C2829 C2825 1.376 . S
C2829 C2828 1.392 . S
C2829 H2841 0.929 . S
C2830 C2826 1.531 . S
C2830 H2842 0.960 . S
C2830 H2843 0.962 . S
C2830 H2844 0.960 . S
C2831 C2828 1.511 . S
C2831 H2845 0.961 . S
C2831 H2846 0.961 . S
C2831 H2847 0.961 . S
C2832 C2833 1.370 . S
C2832 C2834 1.363 . S
C2832 H2848 0.931 . S
C2833 C2832 1.370 . S
C2833 C2837 1.408 . S
C2834 C2832 1.363 . S
C2834 C2835 1.370 . S
C2834 C2838 1.524 . S
C2835 C2827 1.503 . S
C2835 C2834 1.370 . S
C2835 C2836 1.403 . S
C2836 C2835 1.403 . S
C2836 C2837 1.404 . S
C2836 C2839 1.539 . S
C2837 C2833 1.408 . S
C2837 C2836 1.404 . S
C2837 H2849 0.930 . S
C2838 C2834 1.524 . S
C2838 H2850 0.956 . S
C2838 H2851 0.961 . S
C2838 H2852 0.961 . S
C2839 C2836 1.539 . S
C2839 H2853 0.958 . S
C2839 H2854 0.961 . S
C2839 H2855 0.960 . S
H2840 C2824 0.931 . S
H2841 C2829 0.929 . S
H2842 C2830 0.960 . S
H2843 C2830 0.962 . S
H2844 C2830 0.960 . S
H2845 C2831 0.961 . S
H2846 C2831 0.961 . S
H2847 C2831 0.961 . S
H2848 C2832 0.931 . S
H2849 C2837 0.930 . S
H2850 C2838 0.956 . S
H2851 C2838 0.961 . S
H2852 C2838 0.961 . S
H2853 C2839 0.958 . S
H2854 C2839 0.961 . S
H2855 C2839 0.960 . S
C2856 C2857 1.391 . S
C2856 C2858 1.394 . S
C2856 H2872 0.931 . S
C2857 C2856 1.391 . S
C2857 C2861 1.376 . S
C2858 C2856 1.394 . S
C2858 C2859 1.369 . S
C2858 C2862 1.531 . S
C2859 C2858 1.369 . S
C2859 C2860 1.410 . S
C2859 C2867 1.503 . S
C2860 C2859 1.410 . S
C2860 C2861 1.392 . S
C2860 C2863 1.511 . S
C2861 C2857 1.376 . S
C2861 C2860 1.392 . S
C2861 H2873 0.929 . S
C2862 C2858 1.531 . S
C2862 H2874 0.960 . S
C2862 H2875 0.962 . S
C2862 H2876 0.960 . S
C2863 C2860 1.511 . S
C2863 H2877 0.961 . S
C2863 H2878 0.961 . S
C2863 H2879 0.961 . S
C2864 C2865 1.370 . S
C2864 C2866 1.363 . S
C2864 H2880 0.931 . S
C2865 C2864 1.370 . S
C2865 C2869 1.408 . S
C2866 C2864 1.363 . S
C2866 C2867 1.370 . S
C2866 C2870 1.524 . S
C2867 C2859 1.503 . S
C2867 C2866 1.370 . S
C2867 C2868 1.403 . S
C2868 C2867 1.403 . S
C2868 C2869 1.404 . S
C2868 C2871 1.539 . S
C2869 C2865 1.408 . S
C2869 C2868 1.404 . S
C2869 H2881 0.930 . S
C2870 C2866 1.524 . S
C2870 H2882 0.956 . S
C2870 H2883 0.961 . S
C2870 H2884 0.961 . S
C2871 C2868 1.539 . S
C2871 H2885 0.958 . S
C2871 H2886 0.961 . S
C2871 H2887 0.960 . S
H2872 C2856 0.931 . S
H2873 C2861 0.929 . S
H2874 C2862 0.960 . S
H2875 C2862 0.962 . S
H2876 C2862 0.960 . S
H2877 C2863 0.961 . S
H2878 C2863 0.961 . S
H2879 C2863 0.961 . S
H2880 C2864 0.931 . S
H2881 C2869 0.930 . S
H2882 C2870 0.956 . S
H2883 C2870 0.961 . S
H2884 C2870 0.961 . S
H2885 C2871 0.958 . S
H2886 C2871 0.961 . S
H2887 C2871 0.960 . S
C2888 C2889 1.391 . S
C2888 C2890 1.394 . S
C2888 H2904 0.931 . S
C2889 C2888 1.391 . S
C2889 C2893 1.376 . S
C2890 C2888 1.394 . S
C2890 C2891 1.369 . S
C2890 C2894 1.531 . S
C2891 C2890 1.369 . S
C2891 C2892 1.410 . S
C2891 C2899 1.503 . S
C2892 C2891 1.410 . S
C2892 C2893 1.392 . S
C2892 C2895 1.511 . S
C2893 C2889 1.376 . S
C2893 C2892 1.392 . S
C2893 H2905 0.929 . S
C2894 C2890 1.531 . S
C2894 H2906 0.960 . S
C2894 H2907 0.962 . S
C2894 H2908 0.960 . S
C2895 C2892 1.511 . S
C2895 H2909 0.961 . S
C2895 H2910 0.961 . S
C2895 H2911 0.961 . S
C2896 C2897 1.370 . S
C2896 C2898 1.363 . S
C2896 H2912 0.931 . S
C2897 C2896 1.370 . S
C2897 C2901 1.408 . S
C2898 C2896 1.363 . S
C2898 C2899 1.370 . S
C2898 C2902 1.524 . S
C2899 C2891 1.503 . S
C2899 C2898 1.370 . S
C2899 C2900 1.403 . S
C2900 C2899 1.403 . S
C2900 C2901 1.404 . S
C2900 C2903 1.539 . S
C2901 C2897 1.408 . S
C2901 C2900 1.404 . S
C2901 H2913 0.930 . S
C2902 C2898 1.524 . S
C2902 H2914 0.956 . S
C2902 H2915 0.961 . S
C2902 H2916 0.961 . S
C2903 C2900 1.539 . S
C2903 H2917 0.958 . S
C2903 H2918 0.961 . S
C2903 H2919 0.960 . S
H2904 C2888 0.931 . S
H2905 C2893 0.929 . S
H2906 C2894 0.960 . S
H2907 C2894 0.962 . S
H2908 C2894 0.960 . S
H2909 C2895 0.961 . S
H2910 C2895 0.961 . S
H2911 C2895 0.961 . S
H2912 C2896 0.931 . S
H2913 C2901 0.930 . S
H2914 C2902 0.956 . S
H2915 C2902 0.961 . S
H2916 C2902 0.961 . S
H2917 C2903 0.958 . S
H2918 C2903 0.961 . S
H2919 C2903 0.960 . S
C2920 C2921 1.391 . S
C2920 C2922 1.394 . S
C2920 H2936 0.931 . S
C2921 C2920 1.391 . S
C2921 C2925 1.376 . S
C2922 C2920 1.394 . S
C2922 C2923 1.369 . S
C2922 C2926 1.531 . S
C2923 C2922 1.369 . S
C2923 C2924 1.410 . S
C2923 C2931 1.503 . S
C2924 C2923 1.410 . S
C2924 C2925 1.392 . S
C2924 C2927 1.511 . S
C2925 C2921 1.376 . S
C2925 C2924 1.392 . S
C2925 H2937 0.929 . S
C2926 C2922 1.531 . S
C2926 H2938 0.960 . S
C2926 H2939 0.962 . S
C2926 H2940 0.960 . S
C2927 C2924 1.511 . S
C2927 H2941 0.961 . S
C2927 H2942 0.961 . S
C2927 H2943 0.961 . S
C2928 C2929 1.370 . S
C2928 C2930 1.363 . S
C2928 H2944 0.931 . S
C2929 C2928 1.370 . S
C2929 C2933 1.408 . S
C2930 C2928 1.363 . S
C2930 C2931 1.370 . S
C2930 C2934 1.524 . S
C2931 C2923 1.503 . S
C2931 C2930 1.370 . S
C2931 C2932 1.403 . S
C2932 C2931 1.403 . S
C2932 C2933 1.404 . S
C2932 C2935 1.539 . S
C2933 C2929 1.408 . S
C2933 C2932 1.404 . S
C2933 H2945 0.930 . S
C2934 C2930 1.524 . S
C2934 H2946 0.956 . S
C2934 H2947 0.961 . S
C2934 H2948 0.961 . S
C2935 C2932 1.539 . S
C2935 H2949 0.958 . S
C2935 H2950 0.961 . S
C2935 H2951 0.960 . S
H2936 C2920 0.931 . S
H2937 C2925 0.929 . S
H2938 C2926 0.960 . S
H2939 C2926 0.962 . S
H2940 C2926 0.960 . S
H2941 C2927 0.961 . S
H2942 C2927 0.961 . S
H2943 C2927 0.961 . S
H2944 C2928 0.931 . S
H2945 C2933 0.930 . S
H2946 C2934 0.956 . S
H2947 C2934 0.961 . S
H2948 C2934 0.961 . S
H2949 C2935 0.958 . S
H2950 C2935 0.961 . S
H2951 C2935 0.960 . S
C2952 C2953 1.391 . S
C2952 C2954 1.394 . S
C2952 H2968 0.931 . S
C2953 C2952 1.391 . S
C2953 C2957 1.376 . S
C2954 C2952 1.394 . S
C2954 C2955 1.369 . S
C2954 C2958 1.531 . S
C2955 C2954 1.369 . S
C2955 C2956 1.410 . S
C2955 C2963 1.503 . S
C2956 C2955 1.410 . S
C2956 C2957 1.392 . S
C2956 C2959 1.511 . S
C2957 C2953 1.376 . S
C2957 C2956 1.392 . S
C2957 H2969 0.929 . S
C2958 C2954 1.531 . S
C2958 H2970 0.960 . S
C2958 H2971 0.962 . S
C2958 H2972 0.960 . S
C2959 C2956 1.511 . S
C2959 H2973 0.961 . S
C2959 H2974 0.961 . S
C2959 H2975 0.961 . S
C2960 C2961 1.370 . S
C2960 C2962 1.363 . S
C2960 H2976 0.931 . S
C2961 C2960 1.370 . S
C2961 C2965 1.408 . S
C2962 C2960 1.363 . S
C2962 C2963 1.370 . S
C2962 C2966 1.524 . S
C2963 C2955 1.503 . S
C2963 C2962 1.370 . S
C2963 C2964 1.403 . S
C2964 C2963 1.403 . S
C2964 C2965 1.404 . S
C2964 C2967 1.539 . S
C2965 C2961 1.408 . S
C2965 C2964 1.404 . S
C2965 H2977 0.930 . S
C2966 C2962 1.524 . S
C2966 H2978 0.956 . S
C2966 H2979 0.961 . S
C2966 H2980 0.961 . S
C2967 C2964 1.539 . S
C2967 H2981 0.958 . S
C2967 H2982 0.961 . S
C2967 H2983 0.960 . S
H2968 C2952 0.931 . S
H2969 C2957 0.929 . S
H2970 C2958 0.960 . S
H2971 C2958 0.962 . S
H2972 C2958 0.960 . S
H2973 C2959 0.961 . S
H2974 C2959 0.961 . S
H2975 C2959 0.961 . S
H2976 C2960 0.931 . S
H2977 C2965 0.930 . S
H2978 C2966 0.956 . S
H2979 C2966 0.961 . S
H2980 C2966 0.961 . S
H2981 C2967 0.958 . S
H2982 C2967 0.961 . S
H2983 C2967 0.960 . S
C2984 C2985 1.391 . S
C2984 C2986 1.394 . S
C2984 H3000 0.931 . S
C2985 C2984 1.391 . S
C2985 C2989 1.376 . S
C2986 C2984 1.394 . S
C2986 C2987 1.369 . S
C2986 C2990 1.531 . S
C2987 C2986 1.369 . S
C2987 C2988 1.410 . S
C2987 C2995 1.503 . S
C2988 C2987 1.410 . S
C2988 C2989 1.392 . S
C2988 C2991 1.511 . S
C2989 C2985 1.376 . S
C2989 C2988 1.392 . S
C2989 H3001 0.929 . S
C2990 C2986 1.531 . S
C2990 H3002 0.960 . S
C2990 H3003 0.962 . S
C2990 H3004 0.960 . S
C2991 C2988 1.511 . S
C2991 H3005 0.961 . S
C2991 H3006 0.961 . S
C2991 H3007 0.961 . S
C2992 C2993 1.370 . S
C2992 C2994 1.363 . S
C2992 H3008 0.931 . S
C2993 C2992 1.370 . S
C2993 C2997 1.408 . S
C2994 C2992 1.363 . S
C2994 C2995 1.370 . S
C2994 C2998 1.524 . S
C2995 C2987 1.503 . S
C2995 C2994 1.370 . S
C2995 C2996 1.403 . S
C2996 C2995 1.403 . S
C2996 C2997 1.404 . S
C2996 C2999 1.539 . S
C2997 C2993 1.408 . S
C2997 C2996 1.404 . S
C2997 H3009 0.930 . S
C2998 C2994 1.524 . S
C2998 H3010 0.956 . S
C2998 H3011 0.961 . S
C2998 H3012 0.961 . S
C2999 C2996 1.539 . S
C2999 H3013 0.958 . S
C2999 H3014 0.961 . S
C2999 H3015 0.960 . S
H3000 C2984 0.931 . S
H3001 C2989 0.929 . S
H3002 C2990 0.960 . S
H3003 C2990 0.962 . S
H3004 C2990 0.960 . S
H3005 C2991 0.961 . S
H3006 C2991 0.961 . S
H3007 C2991 0.961 . S
H3008 C2992 0.931 . S
H3009 C2997 0.930 . S
H3010 C2998 0.956 . S
H3011 C2998 0.961 . S
H3012 C2998 0.961 . S
H3013 C2999 0.958 . S
H3014 C2999 0.961 . S
H3015 C2999 0.960 . S
C3016 C3017 1.391 . S
C3016 C3018 1.394 . S
C3016 H3032 0.931 . S
C3017 C3016 1.391 . S
C3017 C3021 1.376 . S
C3018 C3016 1.394 . S
C3018 C3019 1.369 . S
C3018 C3022 1.531 . S
C3019 C3018 1.369 . S
C3019 C3020 1.410 . S
C3019 C3027 1.503 . S
C3020 C3019 1.410 . S
C3020 C3021 1.392 . S
C3020 C3023 1.511 . S
C3021 C3017 1.376 . S
C3021 C3020 1.392 . S
C3021 H3033 0.929 . S
C3022 C3018 1.531 . S
C3022 H3034 0.960 . S
C3022 H3035 0.962 . S
C3022 H3036 0.960 . S
C3023 C3020 1.511 . S
C3023 H3037 0.961 . S
C3023 H3038 0.961 . S
C3023 H3039 0.961 . S
C3024 C3025 1.370 . S
C3024 C3026 1.363 . S
C3024 H3040 0.931 . S
C3025 C3024 1.370 . S
C3025 C3029 1.408 . S
C3026 C3024 1.363 . S
C3026 C3027 1.370 . S
C3026 C3030 1.524 . S
C3027 C3019 1.503 . S
C3027 C3026 1.370 . S
C3027 C3028 1.403 . S
C3028 C3027 1.403 . S
C3028 C3029 1.404 . S
C3028 C3031 1.539 . S
C3029 C3025 1.408 . S
C3029 C3028 1.404 . S
C3029 H3041 0.930 . S
C3030 C3026 1.524 . S
C3030 H3042 0.956 . S
C3030 H3043 0.961 . S
C3030 H3044 0.961 . S
C3031 C3028 1.539 . S
C3031 H3045 0.958 . S
C3031 H3046 0.961 . S
C3031 H3047 0.960 . S
H3032 C3016 0.931 . S
H3033 C3021 0.929 . S
H3034 C3022 0.960 . S
H3035 C3022 0.962 . S
H3036 C3022 0.960 . S
H3037 C3023 0.961 . S
H3038 C3023 0.961 . S
H3039 C3023 0.961 . S
H3040 C3024 0.931 . S
H3041 C3029 0.930 . S
H3042 C3030 0.956 . S
H3043 C3030 0.961 . S
H3044 C3030 0.961 . S
H3045 C3031 0.958 . S
H3046 C3031 0.961 . S
H3047 C3031 0.960 . S
C3048 C3049 1.391 . S
C3048 C3050 1.394 . S
C3048 H3064 0.931 . S
C3049 C3048 1.391 . S
C3049 C3053 1.376 . S
C3050 C3048 1.394 . S
C3050 C3051 1.369 . S
C3050 C3054 1.531 . S
C3051 C3050 1.369 . S
C3051 C3052 1.410 . S
C3051 C3059 1.503 . S
C3052 C3051 1.410 . S
C3052 C3053 1.392 . S
C3052 C3055 1.511 . S
C3053 C3049 1.376 . S
C3053 C3052 1.392 . S
C3053 H3065 0.929 . S
C3054 C3050 1.531 . S
C3054 H3066 0.960 . S
C3054 H3067 0.962 . S
C3054 H3068 0.960 . S
C3055 C3052 1.511 . S
C3055 H3069 0.961 . S
C3055 H3070 0.961 . S
C3055 H3071 0.961 . S
C3056 C3057 1.370 . S
C3056 C3058 1.363 . S
C3056 H3072 0.931 . S
C3057 C3056 1.370 . S
C3057 C3061 1.408 . S
C3058 C3056 1.363 . S
C3058 C3059 1.370 . S
C3058 C3062 1.524 . S
C3059 C3051 1.503 . S
C3059 C3058 1.370 . S
C3059 C3060 1.403 . S
C3060 C3059 1.403 . S
C3060 C3061 1.404 . S
C3060 C3063 1.539 . S
C3061 C3057 1.408 . S
C3061 C3060 1.404 . S
C3061 H3073 0.930 . S
C3062 C3058 1.524 . S
C3062 H3074 0.956 . S
C3062 H3075 0.961 . S
C3062 H3076 0.961 . S
C3063 C3060 1.539 . S
C3063 H3077 0.958 . S
C3063 H3078 0.961 . S
C3063 H3079 0.960 . S
H3064 C3048 0.931 . S
H3065 C3053 0.929 . S
H3066 C3054 0.960 . S
H3067 C3054 0.962 . S
H3068 C3054 0.960 . S
H3069 C3055 0.961 . S
H3070 C3055 0.961 . S
H3071 C3055 0.961 . S
H3072 C3056 0.931 . S
H3073 C3061 0.930 . S
H3074 C3062 0.956 . S
H3075 C3062 0.961 . S
H3076 C3062 0.961 . S
H3077 C3063 0.958 . S
H3078 C3063 0.961 . S
H3079 C3063 0.960 . S
C3080 C3081 1.391 . S
C3080 C3082 1.394 . S
C3080 H3096 0.931 . S
C3081 C3080 1.391 . S
C3081 C3085 1.376 . S
C3082 C3080 1.394 . S
C3082 C3083 1.369 . S
C3082 C3086 1.531 . S
C3083 C3082 1.369 . S
C3083 C3084 1.410 . S
C3083 C3091 1.503 . S
C3084 C3083 1.410 . S
C3084 C3085 1.392 . S
C3084 C3087 1.511 . S
C3085 C3081 1.376 . S
C3085 C3084 1.392 . S
C3085 H3097 0.929 . S
C3086 C3082 1.531 . S
C3086 H3098 0.960 . S
C3086 H3099 0.962 . S
C3086 H3100 0.960 . S
C3087 C3084 1.511 . S
C3087 H3101 0.961 . S
C3087 H3102 0.961 . S
C3087 H3103 0.961 . S
C3088 C3089 1.370 . S
C3088 C3090 1.363 . S
C3088 H3104 0.931 . S
C3089 C3088 1.370 . S
C3089 C3093 1.408 . S
C3090 C3088 1.363 . S
C3090 C3091 1.370 . S
C3090 C3094 1.524 . S
C3091 C3083 1.503 . S
C3091 C3090 1.370 . S
C3091 C3092 1.403 . S
C3092 C3091 1.403 . S
C3092 C3093 1.404 . S
C3092 C3095 1.539 . S
C3093 C3089 1.408 . S
C3093 C3092 1.404 . S
C3093 H3105 0.930 . S
C3094 C3090 1.524 . S
C3094 H3106 0.956 . S
C3094 H3107 0.961 . S
C3094 H3108 0.961 . S
C3095 C3092 1.539 . S
C3095 H3109 0.958 . S
C3095 H3110 0.961 . S
C3095 H3111 0.960 . S
H3096 C3080 0.931 . S
H3097 C3085 0.929 . S
H3098 C3086 0.960 . S
H3099 C3086 0.962 . S
H3100 C3086 0.960 . S
H3101 C3087 0.961 . S
H3102 C3087 0.961 . S
H3103 C3087 0.961 . S
H3104 C3088 0.931 . S
H3105 C3093 0.930 . S
H3106 C3094 0.956 . S
H3107 C3094 0.961 . S
H3108 C3094 0.961 . S
H3109 C3095 0.958 . S
H3110 C3095 0.961 . S
H3111 C3095 0.960 . S
C3112 C3113 1.391 . S
C3112 C3114 1.394 . S
C3112 H3128 0.931 . S
C3113 C3112 1.391 . S
C3113 C3117 1.376 . S
C3114 C3112 1.394 . S
C3114 C3115 1.369 . S
C3114 C3118 1.531 . S
C3115 C3114 1.369 . S
C3115 C3116 1.410 . S
C3115 C3123 1.503 . S
C3116 C3115 1.410 . S
C3116 C3117 1.392 . S
C3116 C3119 1.511 . S
C3117 C3113 1.376 . S
C3117 C3116 1.392 . S
C3117 H3129 0.929 . S
C3118 C3114 1.531 . S
C3118 H3130 0.960 . S
C3118 H3131 0.962 . S
C3118 H3132 0.960 . S
C3119 C3116 1.511 . S
C3119 H3133 0.961 . S
C3119 H3134 0.961 . S
C3119 H3135 0.961 . S
C3120 C3121 1.370 . S
C3120 C3122 1.363 . S
C3120 H3136 0.931 . S
C3121 C3120 1.370 . S
C3121 C3125 1.408 . S
C3122 C3120 1.363 . S
C3122 C3123 1.370 . S
C3122 C3126 1.524 . S
C3123 C3115 1.503 . S
C3123 C3122 1.370 . S
C3123 C3124 1.403 . S
C3124 C3123 1.403 . S
C3124 C3125 1.404 . S
C3124 C3127 1.539 . S
C3125 C3121 1.408 . S
C3125 C3124 1.404 . S
C3125 H3137 0.930 . S
C3126 C3122 1.524 . S
C3126 H3138 0.956 . S
C3126 H3139 0.961 . S
C3126 H3140 0.961 . S
C3127 C3124 1.539 . S
C3127 H3141 0.958 . S
C3127 H3142 0.961 . S
C3127 H3143 0.960 . S
H3128 C3112 0.931 . S
H3129 C3117 0.929 . S
H3130 C3118 0.960 . S
H3131 C3118 0.962 . S
H3132 C3118 0.960 . S
H3133 C3119 0.961 . S
H3134 C3119 0.961 . S
H3135 C3119 0.961 . S
H3136 C3120 0.931 . S
H3137 C3125 0.930 . S
H3138 C3126 0.956 . S
H3139 C3126 0.961 . S
H3140 C3126 0.961 . S
H3141 C3127 0.958 . S
H3142 C3127 0.961 . S
H3143 C3127 0.960 . S
C3144 C3145 1.391 . S
C3144 C3146 1.394 . S
C3144 H3160 0.931 . S
C3145 C3144 1.391 . S
C3145 C3149 1.376 . S
C3146 C3144 1.394 . S
C3146 C3147 1.369 . S
C3146 C3150 1.531 . S
C3147 C3146 1.369 . S
C3147 C3148 1.410 . S
C3147 C3155 1.503 . S
C3148 C3147 1.410 . S
C3148 C3149 1.392 . S
C3148 C3151 1.511 . S
C3149 C3145 1.376 . S
C3149 C3148 1.392 . S
C3149 H3161 0.929 . S
C3150 C3146 1.531 . S
C3150 H3162 0.960 . S
C3150 H3163 0.962 . S
C3150 H3164 0.960 . S
C3151 C3148 1.511 . S
C3151 H3165 0.961 . S
C3151 H3166 0.961 . S
C3151 H3167 0.961 . S
C3152 C3153 1.370 . S
C3152 C3154 1.363 . S
C3152 H3168 0.931 . S
C3153 C3152 1.370 . S
C3153 C3157 1.408 . S
C3154 C3152 1.363 . S
C3154 C3155 1.370 . S
C3154 C3158 1.524 . S
C3155 C3147 1.503 . S
C3155 C3154 1.370 . S
C3155 C3156 1.403 . S
C3156 C3155 1.403 . S
C3156 C3157 1.404 . S
C3156 C3159 1.539 . S
C3157 C3153 1.408 . S
C3157 C3156 1.404 . S
C3157 H3169 0.930 . S
C3158 C3154 1.524 . S
C3158 H3170 0.956 . S
C3158 H3171 0.961 . S
C3158 H3172 0.961 . S
C3159 C3156 1.539 . S
C3159 H3173 0.958 . S
C3159 H3174 0.961 . S
C3159 H3175 0.960 . S
H3160 C3144 0.931 . S
H3161 C3149 0.929 . S
H3162 C3150 0.960 . S
H3163 C3150 0.962 . S
H3164 C3150 0.960 . S
H3165 C3151 0.961 . S
H3166 C3151 0.961 . S
H3167 C3151 0.961 . S
H3168 C3152 0.931 . S
H3169 C3157 0.930 . S
H3170 C3158 0.956 . S
H3171 C3158 0.961 . S
H3172 C3158 0.961 . S
H3173 C3159 0.958 . S
H3174 C3159 0.961 . S
H3175 C3159 0.960 . S
C3176 C3177 1.391 . S
C3176 C3178 1.394 . S
C3176 H3192 0.931 . S
C3177 C3176 1.391 . S
C3177 C3181 1.376 . S
C3178 C3176 1.394 . S
C3178 C3179 1.369 . S
C3178 C3182 1.531 . S
C3179 C3178 1.369 . S
C3179 C3180 1.410 . S
C3179 C3187 1.503 . S
C3180 C3179 1.410 . S
C3180 C3181 1.392 . S
C3180 C3183 1.511 . S
C3181 C3177 1.376 . S
C3181 C3180 1.392 . S
C3181 H3193 0.929 . S
C3182 C3178 1.531 . S
C3182 H3194 0.960 . S
C3182 H3195 0.962 . S
C3182 H3196 0.960 . S
C3183 C3180 1.511 . S
C3183 H3197 0.961 . S
C3183 H3198 0.961 . S
C3183 H3199 0.961 . S
C3184 C3185 1.370 . S
C3184 C3186 1.363 . S
C3184 H3200 0.931 . S
C3185 C3184 1.370 . S
C3185 C3189 1.408 . S
C3186 C3184 1.363 . S
C3186 C3187 1.370 . S
C3186 C3190 1.524 . S
C3187 C3179 1.503 . S
C3187 C3186 1.370 . S
C3187 C3188 1.403 . S
C3188 C3187 1.403 . S
C3188 C3189 1.404 . S
C3188 C3191 1.539 . S
C3189 C3185 1.408 . S
C3189 C3188 1.404 . S
C3189 H3201 0.930 . S
C3190 C3186 1.524 . S
C3190 H3202 0.956 . S
C3190 H3203 0.961 . S
C3190 H3204 0.961 . S
C3191 C3188 1.539 . S
C3191 H3205 0.958 . S
C3191 H3206 0.961 . S
C3191 H3207 0.960 . S
H3192 C3176 0.931 . S
H3193 C3181 0.929 . S
H3194 C3182 0.960 . S
H3195 C3182 0.962 . S
H3196 C3182 0.960 . S
H3197 C3183 0.961 . S
H3198 C3183 0.961 . S
H3199 C3183 0.961 . S
H3200 C3184 0.931 . S
H3201 C3189 0.930 . S
H3202 C3190 0.956 . S
H3203 C3190 0.961 . S
H3204 C3190 0.961 . S
H3205 C3191 0.958 . S
H3206 C3191 0.961 . S
H3207 C3191 0.960 . S
C3208 C3209 1.391 . S
C3208 C3210 1.394 . S
C3208 H3224 0.931 . S
C3209 C3208 1.391 . S
C3209 C3213 1.376 . S
C3210 C3208 1.394 . S
C3210 C3211 1.369 . S
C3210 C3214 1.531 . S
C3211 C3210 1.369 . S
C3211 C3212 1.410 . S
C3211 C3219 1.503 . S
C3212 C3211 1.410 . S
C3212 C3213 1.392 . S
C3212 C3215 1.511 . S
C3213 C3209 1.376 . S
C3213 C3212 1.392 . S
C3213 H3225 0.929 . S
C3214 C3210 1.531 . S
C3214 H3226 0.960 . S
C3214 H3227 0.962 . S
C3214 H3228 0.960 . S
C3215 C3212 1.511 . S
C3215 H3229 0.961 . S
C3215 H3230 0.961 . S
C3215 H3231 0.961 . S
C3216 C3217 1.370 . S
C3216 C3218 1.363 . S
C3216 H3232 0.931 . S
C3217 C3216 1.370 . S
C3217 C3221 1.408 . S
C3218 C3216 1.363 . S
C3218 C3219 1.370 . S
C3218 C3222 1.524 . S
C3219 C3211 1.503 . S
C3219 C3218 1.370 . S
C3219 C3220 1.403 . S
C3220 C3219 1.403 . S
C3220 C3221 1.404 . S
C3220 C3223 1.539 . S
C3221 C3217 1.408 . S
C3221 C3220 1.404 . S
C3221 H3233 0.930 . S
C3222 C3218 1.524 . S
C3222 H3234 0.956 . S
C3222 H3235 0.961 . S
C3222 H3236 0.961 . S
C3223 C3220 1.539 . S
C3223 H3237 0.958 . S
C3223 H3238 0.961 . S
C3223 H3239 0.960 . S
H3224 C3208 0.931 . S
H3225 C3213 0.929 . S
H3226 C3214 0.960 . S
H3227 C3214 0.962 . S
H3228 C3214 0.960 . S
H3229 C3215 0.961 . S
H3230 C3215 0.961 . S
H3231 C3215 0.961 . S
H3232 C3216 0.931 . S
H3233 C3221 0.930 . S
H3234 C3222 0.956 . S
H3235 C3222 0.961 . S
H3236 C3222 0.961 . S
H3237 C3223 0.958 . S
H3238 C3223 0.961 . S
H3239 C3223 0.960 . S
C3240 C3241 1.391 . S
C3240 C3242 1.394 . S
C3240 H3256 0.931 . S
C3241 C3240 1.391 . S
C3241 C3245 1.376 . S
C3242 C3240 1.394 . S
C3242 C3243 1.369 . S
C3242 C3246 1.531 . S
C3243 C3242 1.369 . S
C3243 C3244 1.410 . S
C3243 C3251 1.503 . S
C3244 C3243 1.410 . S
C3244 C3245 1.392 . S
C3244 C3247 1.511 . S
C3245 C3241 1.376 . S
C3245 C3244 1.392 . S
C3245 H3257 0.929 . S
C3246 C3242 1.531 . S
C3246 H3258 0.960 . S
C3246 H3259 0.962 . S
C3246 H3260 0.960 . S
C3247 C3244 1.511 . S
C3247 H3261 0.961 . S
C3247 H3262 0.961 . S
C3247 H3263 0.961 . S
C3248 C3249 1.370 . S
C3248 C3250 1.363 . S
C3248 H3264 0.931 . S
C3249 C3248 1.370 . S
C3249 C3253 1.408 . S
C3250 C3248 1.363 . S
C3250 C3251 1.370 . S
C3250 C3254 1.524 . S
C3251 C3243 1.503 . S
C3251 C3250 1.370 . S
C3251 C3252 1.403 . S
C3252 C3251 1.403 . S
C3252 C3253 1.404 . S
C3252 C3255 1.539 . S
C3253 C3249 1.408 . S
C3253 C3252 1.404 . S
C3253 H3265 0.930 . S
C3254 C3250 1.524 . S
C3254 H3266 0.956 . S
C3254 H3267 0.961 . S
C3254 H3268 0.961 . S
C3255 C3252 1.539 . S
C3255 H3269 0.958 . S
C3255 H3270 0.961 . S
C3255 H3271 0.960 . S
H3256 C3240 0.931 . S
H3257 C3245 0.929 . S
H3258 C3246 0.960 . S
H3259 C3246 0.962 . S
H3260 C3246 0.960 . S
H3261 C3247 0.961 . S
H3262 C3247 0.961 . S
H3263 C3247 0.961 . S
H3264 C3248 0.931 . S
H3265 C3253 0.930 . S
H3266 C3254 0.956 . S
H3267 C3254 0.961 . S
H3268 C3254 0.961 . S
H3269 C3255 0.958 . S
H3270 C3255 0.961 . S
H3271 C3255 0.960 . S
C3272 C3273 1.391 . S
C3272 C3274 1.394 . S
C3272 H3288 0.931 . S
C3273 C3272 1.391 . S
C3273 C3277 1.376 . S
C3274 C3272 1.394 . S
C3274 C3275 1.369 . S
C3274 C3278 1.531 . S
C3275 C3274 1.369 . S
C3275 C3276 1.410 . S
C3275 C3283 1.503 . S
C3276 C3275 1.410 . S
C3276 C3277 1.392 . S
C3276 C3279 1.511 . S
C3277 C3273 1.376 . S
C3277 C3276 1.392 . S
C3277 H3289 0.929 . S
C3278 C3274 1.531 . S
C3278 H3290 0.960 . S
C3278 H3291 0.962 . S
C3278 H3292 0.960 . S
C3279 C3276 1.511 . S
C3279 H3293 0.961 . S
C3279 H3294 0.961 . S
C3279 H3295 0.961 . S
C3280 C3281 1.370 . S
C3280 C3282 1.363 . S
C3280 H3296 0.931 . S
C3281 C3280 1.370 . S
C3281 C3285 1.408 . S
C3282 C3280 1.363 . S
C3282 C3283 1.370 . S
C3282 C3286 1.524 . S
C3283 C3275 1.503 . S
C3283 C3282 1.370 . S
C3283 C3284 1.403 . S
C3284 C3283 1.403 . S
C3284 C3285 1.404 . S
C3284 C3287 1.539 . S
C3285 C3281 1.408 . S
C3285 C3284 1.404 . S
C3285 H3297 0.930 . S
C3286 C3282 1.524 . S
C3286 H3298 0.956 . S
C3286 H3299 0.961 . S
C3286 H3300 0.961 . S
C3287 C3284 1.539 . S
C3287 H3301 0.958 . S
C3287 H3302 0.961 . S
C3287 H3303 0.960 . S
H3288 C3272 0.931 . S
H3289 C3277 0.929 . S
H3290 C3278 0.960 . S
H3291 C3278 0.962 . S
H3292 C3278 0.960 . S
H3293 C3279 0.961 . S
H3294 C3279 0.961 . S
H3295 C3279 0.961 . S
H3296 C3280 0.931 . S
H3297 C3285 0.930 . S
H3298 C3286 0.956 . S
H3299 C3286 0.961 . S
H3300 C3286 0.961 . S
H3301 C3287 0.958 . S
H3302 C3287 0.961 . S
H3303 C3287 0.960 . S
C3304 C3305 1.391 . S
C3304 C3306 1.394 . S
C3304 H3320 0.931 . S
C3305 C3304 1.391 . S
C3305 C3309 1.376 . S
C3306 C3304 1.394 . S
C3306 C3307 1.369 . S
C3306 C3310 1.531 . S
C3307 C3306 1.369 . S
C3307 C3308 1.410 . S
C3307 C3315 1.503 . S
C3308 C3307 1.410 . S
C3308 C3309 1.392 . S
C3308 C3311 1.511 . S
C3309 C3305 1.376 . S
C3309 C3308 1.392 . S
C3309 H3321 0.929 . S
C3310 C3306 1.531 . S
C3310 H3322 0.960 . S
C3310 H3323 0.962 . S
C3310 H3324 0.960 . S
C3311 C3308 1.511 . S
C3311 H3325 0.961 . S
C3311 H3326 0.961 . S
C3311 H3327 0.961 . S
C3312 C3313 1.370 . S
C3312 C3314 1.363 . S
C3312 H3328 0.931 . S
C3313 C3312 1.370 . S
C3313 C3317 1.408 . S
C3314 C3312 1.363 . S
C3314 C3315 1.370 . S
C3314 C3318 1.524 . S
C3315 C3307 1.503 . S
C3315 C3314 1.370 . S
C3315 C3316 1.403 . S
C3316 C3315 1.403 . S
C3316 C3317 1.404 . S
C3316 C3319 1.539 . S
C3317 C3313 1.408 . S
C3317 C3316 1.404 . S
C3317 H3329 0.930 . S
C3318 C3314 1.524 . S
C3318 H3330 0.956 . S
C3318 H3331 0.961 . S
C3318 H3332 0.961 . S
C3319 C3316 1.539 . S
C3319 H3333 0.958 . S
C3319 H3334 0.961 . S
C3319 H3335 0.960 . S
H3320 C3304 0.931 . S
H3321 C3309 0.929 . S
H3322 C3310 0.960 . S
H3323 C3310 0.962 . S
H3324 C3310 0.960 . S
H3325 C3311 0.961 . S
H3326 C3311 0.961 . S
H3327 C3311 0.961 . S
H3328 C3312 0.931 . S
H3329 C3317 0.930 . S
H3330 C3318 0.956 . S
H3331 C3318 0.961 . S
H3332 C3318 0.961 . S
H3333 C3319 0.958 . S
H3334 C3319 0.961 . S
H3335 C3319 0.960 . S
C3336 C3337 1.391 . S
C3336 C3338 1.394 . S
C3336 H3352 0.931 . S
C3337 C3336 1.391 . S
C3337 C3341 1.376 . S
C3338 C3336 1.394 . S
C3338 C3339 1.369 . S
C3338 C3342 1.531 . S
C3339 C3338 1.369 . S
C3339 C3340 1.410 . S
C3339 C3347 1.503 . S
C3340 C3339 1.410 . S
C3340 C3341 1.392 . S
C3340 C3343 1.511 . S
C3341 C3337 1.376 . S
C3341 C3340 1.392 . S
C3341 H3353 0.929 . S
C3342 C3338 1.531 . S
C3342 H3354 0.960 . S
C3342 H3355 0.962 . S
C3342 H3356 0.960 . S
C3343 C3340 1.511 . S
C3343 H3357 0.961 . S
C3343 H3358 0.961 . S
C3343 H3359 0.961 . S
C3344 C3345 1.370 . S
C3344 C3346 1.363 . S
C3344 H3360 0.931 . S
C3345 C3344 1.370 . S
C3345 C3349 1.408 . S
C3346 C3344 1.363 . S
C3346 C3347 1.370 . S
C3346 C3350 1.524 . S
C3347 C3339 1.503 . S
C3347 C3346 1.370 . S
C3347 C3348 1.403 . S
C3348 C3347 1.403 . S
C3348 C3349 1.404 . S
C3348 C3351 1.539 . S
C3349 C3345 1.408 . S
C3349 C3348 1.404 . S
C3349 H3361 0.930 . S
C3350 C3346 1.524 . S
C3350 H3362 0.956 . S
C3350 H3363 0.961 . S
C3350 H3364 0.961 . S
C3351 C3348 1.539 . S
C3351 H3365 0.958 . S
C3351 H3366 0.961 . S
C3351 H3367 0.960 . S
H3352 C3336 0.931 . S
H3353 C3341 0.929 . S
H3354 C3342 0.960 . S
H3355 C3342 0.962 . S
H3356 C3342 0.960 . S
H3357 C3343 0.961 . S
H3358 C3343 0.961 . S
H3359 C3343 0.961 . S
H3360 C3344 0.931 . S
H3361 C3349 0.930 . S
H3362 C3350 0.956 . S
H3363 C3350 0.961 . S
H3364 C3350 0.961 . S
H3365 C3351 0.958 . S
H3366 C3351 0.961 . S
H3367 C3351 0.960 . S
C3368 C3369 1.391 . S
C3368 C3370 1.394 . S
C3368 H3384 0.931 . S
C3369 C3368 1.391 . S
C3369 C3373 1.376 . S
C3370 C3368 1.394 . S
C3370 C3371 1.369 . S
C3370 C3374 1.531 . S
C3371 C3370 1.369 . S
C3371 C3372 1.410 . S
C3371 C3379 1.503 . S
C3372 C3371 1.410 . S
C3372 C3373 1.392 . S
C3372 C3375 1.511 . S
C3373 C3369 1.376 . S
C3373 C3372 1.392 . S
C3373 H3385 0.929 . S
C3374 C3370 1.531 . S
C3374 H3386 0.960 . S
C3374 H3387 0.962 . S
C3374 H3388 0.960 . S
C3375 C3372 1.511 . S
C3375 H3389 0.961 . S
C3375 H3390 0.961 . S
C3375 H3391 0.961 . S
C3376 C3377 1.370 . S
C3376 C3378 1.363 . S
C3376 H3392 0.931 . S
C3377 C3376 1.370 . S
C3377 C3381 1.408 . S
C3378 C3376 1.363 . S
C3378 C3379 1.370 . S
C3378 C3382 1.524 . S
C3379 C3371 1.503 . S
C3379 C3378 1.370 . S
C3379 C3380 1.403 . S
C3380 C3379 1.403 . S
C3380 C3381 1.404 . S
C3380 C3383 1.539 . S
C3381 C3377 1.408 . S
C3381 C3380 1.404 . S
C3381 H3393 0.930 . S
C3382 C3378 1.524 . S
C3382 H3394 0.956 . S
C3382 H3395 0.961 . S
C3382 H3396 0.961 . S
C3383 C3380 1.539 . S
C3383 H3397 0.958 . S
C3383 H3398 0.961 . S
C3383 H3399 0.960 . S
H3384 C3368 0.931 . S
H3385 C3373 0.929 . S
H3386 C3374 0.960 . S
H3387 C3374 0.962 . S
H3388 C3374 0.960 . S
H3389 C3375 0.961 . S
H3390 C3375 0.961 . S
H3391 C3375 0.961 . S
H3392 C3376 0.931 . S
H3393 C3381 0.930 . S
H3394 C3382 0.956 . S
H3395 C3382 0.961 . S
H3396 C3382 0.961 . S
H3397 C3383 0.958 . S
H3398 C3383 0.961 . S
H3399 C3383 0.960 . S
C3400 C3401 1.391 . S
C3400 C3402 1.394 . S
C3400 H3416 0.931 . S
C3401 C3400 1.391 . S
C3401 C3405 1.376 . S
C3402 C3400 1.394 . S
C3402 C3403 1.369 . S
C3402 C3406 1.531 . S
C3403 C3402 1.369 . S
C3403 C3404 1.410 . S
C3403 C3411 1.503 . S
C3404 C3403 1.410 . S
C3404 C3405 1.392 . S
C3404 C3407 1.511 . S
C3405 C3401 1.376 . S
C3405 C3404 1.392 . S
C3405 H3417 0.929 . S
C3406 C3402 1.531 . S
C3406 H3418 0.960 . S
C3406 H3419 0.962 . S
C3406 H3420 0.960 . S
C3407 C3404 1.511 . S
C3407 H3421 0.961 . S
C3407 H3422 0.961 . S
C3407 H3423 0.961 . S
C3408 C3409 1.370 . S
C3408 C3410 1.363 . S
C3408 H3424 0.931 . S
C3409 C3408 1.370 . S
C3409 C3413 1.408 . S
C3410 C3408 1.363 . S
C3410 C3411 1.370 . S
C3410 C3414 1.524 . S
C3411 C3403 1.503 . S
C3411 C3410 1.370 . S
C3411 C3412 1.403 . S
C3412 C3411 1.403 . S
C3412 C3413 1.404 . S
C3412 C3415 1.539 . S
C3413 C3409 1.408 . S
C3413 C3412 1.404 . S
C3413 H3425 0.930 . S
C3414 C3410 1.524 . S
C3414 H3426 0.956 . S
C3414 H3427 0.961 . S
C3414 H3428 0.961 . S
C3415 C3412 1.539 . S
C3415 H3429 0.958 . S
C3415 H3430 0.961 . S
C3415 H3431 0.960 . S
H3416 C3400 0.931 . S
H3417 C3405 0.929 . S
H3418 C3406 0.960 . S
H3419 C3406 0.962 . S
H3420 C3406 0.960 . S
H3421 C3407 0.961 . S
H3422 C3407 0.961 . S
H3423 C3407 0.961 . S
H3424 C3408 0.931 . S
H3425 C3413 0.930 . S
H3426 C3414 0.956 . S
H3427 C3414 0.961 . S
H3428 C3414 0.961 . S
H3429 C3415 0.958 . S
H3430 C3415 0.961 . S
H3431 C3415 0.960 . S
C3432 C3433 1.391 . S
C3432 C3434 1.394 . S
C3432 H3448 0.931 . S
C3433 C3432 1.391 . S
C3433 C3437 1.376 . S
C3434 C3432 1.394 . S
C3434 C3435 1.369 . S
C3434 C3438 1.531 . S
C3435 C3434 1.369 . S
C3435 C3436 1.410 . S
C3435 C3443 1.503 . S
C3436 C3435 1.410 . S
C3436 C3437 1.392 . S
C3436 C3439 1.511 . S
C3437 C3433 1.376 . S
C3437 C3436 1.392 . S
C3437 H3449 0.929 . S
C3438 C3434 1.531 . S
C3438 H3450 0.960 . S
C3438 H3451 0.962 . S
C3438 H3452 0.960 . S
C3439 C3436 1.511 . S
C3439 H3453 0.961 . S
C3439 H3454 0.961 . S
C3439 H3455 0.961 . S
C3440 C3441 1.370 . S
C3440 C3442 1.363 . S
C3440 H3456 0.931 . S
C3441 C3440 1.370 . S
C3441 C3445 1.408 . S
C3442 C3440 1.363 . S
C3442 C3443 1.370 . S
C3442 C3446 1.524 . S
C3443 C3435 1.503 . S
C3443 C3442 1.370 . S
C3443 C3444 1.403 . S
C3444 C3443 1.403 . S
C3444 C3445 1.404 . S
C3444 C3447 1.539 . S
C3445 C3441 1.408 . S
C3445 C3444 1.404 . S
C3445 H3457 0.930 . S
C3446 C3442 1.524 . S
C3446 H3458 0.956 . S
C3446 H3459 0.961 . S
C3446 H3460 0.961 . S
C3447 C3444 1.539 . S
C3447 H3461 0.958 . S
C3447 H3462 0.961 . S
C3447 H3463 0.960 . S
H3448 C3432 0.931 . S
H3449 C3437 0.929 . S
H3450 C3438 0.960 . S
H3451 C3438 0.962 . S
H3452 C3438 0.960 . S
H3453 C3439 0.961 . S
H3454 C3439 0.961 . S
H3455 C3439 0.961 . S
H3456 C3440 0.931 . S
H3457 C3445 0.930 . S
H3458 C3446 0.956 . S
H3459 C3446 0.961 . S
H3460 C3446 0.961 . S
H3461 C3447 0.958 . S
H3462 C3447 0.961 . S
H3463 C3447 0.960 . S
C3464 C3465 1.391 . S
C3464 C3466 1.394 . S
C3464 H3480 0.931 . S
C3465 C3464 1.391 . S
C3465 C3469 1.376 . S
C3466 C3464 1.394 . S
C3466 C3467 1.369 . S
C3466 C3470 1.531 . S
C3467 C3466 1.369 . S
C3467 C3468 1.410 . S
C3467 C3475 1.503 . S
C3468 C3467 1.410 . S
C3468 C3469 1.392 . S
C3468 C3471 1.511 . S
C3469 C3465 1.376 . S
C3469 C3468 1.392 . S
C3469 H3481 0.929 . S
C3470 C3466 1.531 . S
C3470 H3482 0.960 . S
C3470 H3483 0.962 . S
C3470 H3484 0.960 . S
C3471 C3468 1.511 . S
C3471 H3485 0.961 . S
C3471 H3486 0.961 . S
C3471 H3487 0.961 . S
C3472 C3473 1.370 . S
C3472 C3474 1.363 . S
C3472 H3488 0.931 . S
C3473 C3472 1.370 . S
C3473 C3477 1.408 . S
C3474 C3472 1.363 . S
C3474 C3475 1.370 . S
C3474 C3478 1.524 . S
C3475 C3467 1.503 . S
C3475 C3474 1.370 . S
C3475 C3476 1.403 . S
C3476 C3475 1.403 . S
C3476 C3477 1.404 . S
C3476 C3479 1.539 . S
C3477 C3473 1.408 . S
C3477 C3476 1.404 . S
C3477 H3489 0.930 . S
C3478 C3474 1.524 . S
C3478 H3490 0.956 . S
C3478 H3491 0.961 . S
C3478 H3492 0.961 . S
C3479 C3476 1.539 . S
C3479 H3493 0.958 . S
C3479 H3494 0.961 . S
C3479 H3495 0.960 . S
H3480 C3464 0.931 . S
H3481 C3469 0.929 . S
H3482 C3470 0.960 . S
H3483 C3470 0.962 . S
H3484 C3470 0.960 . S
H3485 C3471 0.961 . S
H3486 C3471 0.961 . S
H3487 C3471 0.961 . S
H3488 C3472 0.931 . S
H3489 C3477 0.930 . S
H3490 C3478 0.956 . S
H3491 C3478 0.961 . S
H3492 C3478 0.961 . S
H3493 C3479 0.958 . S
H3494 C3479 0.961 . S
H3495 C3479 0.960 . S
C3496 C3497 1.391 . S
C3496 C3498 1.394 . S
C3496 H3512 0.931 . S
C3497 C3496 1.391 . S
C3497 C3501 1.376 . S
C3498 C3496 1.394 . S
C3498 C3499 1.369 . S
C3498 C3502 1.531 . S
C3499 C3498 1.369 . S
C3499 C3500 1.410 . S
C3499 C3507 1.503 . S
C3500 C3499 1.410 . S
C3500 C3501 1.392 . S
C3500 C3503 1.511 . S
C3501 C3497 1.376 . S
C3501 C3500 1.392 . S
C3501 H3513 0.929 . S
C3502 C3498 1.531 . S
C3502 H3514 0.960 . S
C3502 H3515 0.962 . S
C3502 H3516 0.960 . S
C3503 C3500 1.511 . S
C3503 H3517 0.961 . S
C3503 H3518 0.961 . S
C3503 H3519 0.961 . S
C3504 C3505 1.370 . S
C3504 C3506 1.363 . S
C3504 H3520 0.931 . S
C3505 C3504 1.370 . S
C3505 C3509 1.408 . S
C3506 C3504 1.363 . S
C3506 C3507 1.370 . S
C3506 C3510 1.524 . S
C3507 C3499 1.503 . S
C3507 C3506 1.370 . S
C3507 C3508 1.403 . S
C3508 C3507 1.403 . S
C3508 C3509 1.404 . S
C3508 C3511 1.539 . S
C3509 C3505 1.408 . S
C3509 C3508 1.404 . S
C3509 H3521 0.930 . S
C3510 C3506 1.524 . S
C3510 H3522 0.956 . S
C3510 H3523 0.961 . S
C3510 H3524 0.961 . S
C3511 C3508 1.539 . S
C3511 H3525 0.958 . S
C3511 H3526 0.961 . S
C3511 H3527 0.960 . S
H3512 C3496 0.931 . S
H3513 C3501 0.929 . S
H3514 C3502 0.960 . S
H3515 C3502 0.962 . S
H3516 C3502 0.960 . S
H3517 C3503 0.961 . S
H3518 C3503 0.961 . S
H3519 C3503 0.961 . S
H3520 C3504 0.931 . S
H3521 C3509 0.930 . S
H3522 C3510 0.956 . S
H3523 C3510 0.961 . S
H3524 C3510 0.961 . S
H3525 C3511 0.958 . S
H3526 C3511 0.961 . S
H3527 C3511 0.960 . S
C3528 C3529 1.391 . S
C3528 C3530 1.394 . S
C3528 H3544 0.931 . S
C3529 C3528 1.391 . S
C3529 C3533 1.376 . S
C3530 C3528 1.394 . S
C3530 C3531 1.369 . S
C3530 C3534 1.531 . S
C3531 C3530 1.369 . S
C3531 C3532 1.410 . S
C3531 C3539 1.503 . S
C3532 C3531 1.410 . S
C3532 C3533 1.392 . S
C3532 C3535 1.511 . S
C3533 C3529 1.376 . S
C3533 C3532 1.392 . S
C3533 H3545 0.929 . S
C3534 C3530 1.531 . S
C3534 H3546 0.960 . S
C3534 H3547 0.962 . S
C3534 H3548 0.960 . S
C3535 C3532 1.511 . S
C3535 H3549 0.961 . S
C3535 H3550 0.961 . S
C3535 H3551 0.961 . S
C3536 C3537 1.370 . S
C3536 C3538 1.363 . S
C3536 H3552 0.931 . S
C3537 C3536 1.370 . S
C3537 C3541 1.408 . S
C3538 C3536 1.363 . S
C3538 C3539 1.370 . S
C3538 C3542 1.524 . S
C3539 C3531 1.503 . S
C3539 C3538 1.370 . S
C3539 C3540 1.403 . S
C3540 C3539 1.403 . S
C3540 C3541 1.404 . S
C3540 C3543 1.539 . S
C3541 C3537 1.408 . S
C3541 C3540 1.404 . S
C3541 H3553 0.930 . S
C3542 C3538 1.524 . S
C3542 H3554 0.956 . S
C3542 H3555 0.961 . S
C3542 H3556 0.961 . S
C3543 C3540 1.539 . S
C3543 H3557 0.958 . S
C3543 H3558 0.961 . S
C3543 H3559 0.960 . S
H3544 C3528 0.931 . S
H3545 C3533 0.929 . S
H3546 C3534 0.960 . S
H3547 C3534 0.962 . S
H3548 C3534 0.960 . S
H3549 C3535 0.961 . S
H3550 C3535 0.961 . S
H3551 C3535 0.961 . S
H3552 C3536 0.931 . S
H3553 C3541 0.930 . S
H3554 C3542 0.956 . S
H3555 C3542 0.961 . S
H3556 C3542 0.961 . S
H3557 C3543 0.958 . S
H3558 C3543 0.961 . S
H3559 C3543 0.960 . S
C3560 C3561 1.391 . S
C3560 C3562 1.394 . S
C3560 H3576 0.931 . S
C3561 C3560 1.391 . S
C3561 C3565 1.376 . S
C3562 C3560 1.394 . S
C3562 C3563 1.369 . S
C3562 C3566 1.531 . S
C3563 C3562 1.369 . S
C3563 C3564 1.410 . S
C3563 C3571 1.503 . S
C3564 C3563 1.410 . S
C3564 C3565 1.392 . S
C3564 C3567 1.511 . S
C3565 C3561 1.376 . S
C3565 C3564 1.392 . S
C3565 H3577 0.929 . S
C3566 C3562 1.531 . S
C3566 H3578 0.960 . S
C3566 H3579 0.962 . S
C3566 H3580 0.960 . S
C3567 C3564 1.511 . S
C3567 H3581 0.961 . S
C3567 H3582 0.961 . S
C3567 H3583 0.961 . S
C3568 C3569 1.370 . S
C3568 C3570 1.363 . S
C3568 H3584 0.931 . S
C3569 C3568 1.370 . S
C3569 C3573 1.408 . S
C3570 C3568 1.363 . S
C3570 C3571 1.370 . S
C3570 C3574 1.524 . S
C3571 C3563 1.503 . S
C3571 C3570 1.370 . S
C3571 C3572 1.403 . S
C3572 C3571 1.403 . S
C3572 C3573 1.404 . S
C3572 C3575 1.539 . S
C3573 C3569 1.408 . S
C3573 C3572 1.404 . S
C3573 H3585 0.930 . S
C3574 C3570 1.524 . S
C3574 H3586 0.956 . S
C3574 H3587 0.961 . S
C3574 H3588 0.961 . S
C3575 C3572 1.539 . S
C3575 H3589 0.958 . S
C3575 H3590 0.961 . S
C3575 H3591 0.960 . S
H3576 C3560 0.931 . S
H3577 C3565 0.929 . S
H3578 C3566 0.960 . S
H3579 C3566 0.962 . S
H3580 C3566 0.960 . S
H3581 C3567 0.961 . S
H3582 C3567 0.961 . S
H3583 C3567 0.961 . S
H3584 C3568 0.931 . S
H3585 C3573 0.930 . S
H3586 C3574 0.956 . S
H3587 C3574 0.961 . S
H3588 C3574 0.961 . S
H3589 C3575 0.958 . S
H3590 C3575 0.961 . S
H3591 C3575 0.960 . S
C3592 C3593 1.391 . S
C3592 C3594 1.394 . S
C3592 H3608 0.931 . S
C3593 C3592 1.391 . S
C3593 C3597 1.376 . S
C3594 C3592 1.394 . S
C3594 C3595 1.369 . S
C3594 C3598 1.531 . S
C3595 C3594 1.369 . S
C3595 C3596 1.410 . S
C3595 C3603 1.503 . S
C3596 C3595 1.410 . S
C3596 C3597 1.392 . S
C3596 C3599 1.511 . S
C3597 C3593 1.376 . S
C3597 C3596 1.392 . S
C3597 H3609 0.929 . S
C3598 C3594 1.531 . S
C3598 H3610 0.960 . S
C3598 H3611 0.962 . S
C3598 H3612 0.960 . S
C3599 C3596 1.511 . S
C3599 H3613 0.961 . S
C3599 H3614 0.961 . S
C3599 H3615 0.961 . S
C3600 C3601 1.370 . S
C3600 C3602 1.363 . S
C3600 H3616 0.931 . S
C3601 C3600 1.370 . S
C3601 C3605 1.408 . S
C3602 C3600 1.363 . S
C3602 C3603 1.370 . S
C3602 C3606 1.524 . S
C3603 C3595 1.503 . S
C3603 C3602 1.370 . S
C3603 C3604 1.403 . S
C3604 C3603 1.403 . S
C3604 C3605 1.404 . S
C3604 C3607 1.539 . S
C3605 C3601 1.408 . S
C3605 C3604 1.404 . S
C3605 H3617 0.930 . S
C3606 C3602 1.524 . S
C3606 H3618 0.956 . S
C3606 H3619 0.961 . S
C3606 H3620 0.961 . S
C3607 C3604 1.539 . S
C3607 H3621 0.958 . S
C3607 H3622 0.961 . S
C3607 H3623 0.960 . S
H3608 C3592 0.931 . S
H3609 C3597 0.929 . S
H3610 C3598 0.960 . S
H3611 C3598 0.962 . S
H3612 C3598 0.960 . S
H3613 C3599 0.961 . S
H3614 C3599 0.961 . S
H3615 C3599 0.961 . S
H3616 C3600 0.931 . S
H3617 C3605 0.930 . S
H3618 C3606 0.956 . S
H3619 C3606 0.961 . S
H3620 C3606 0.961 . S
H3621 C3607 0.958 . S
H3622 C3607 0.961 . S
H3623 C3607 0.960 . S
C3624 C3625 1.391 . S
C3624 C3626 1.394 . S
C3624 H3640 0.931 . S
C3625 C3624 1.391 . S
C3625 C3629 1.376 . S
C3626 C3624 1.394 . S
C3626 C3627 1.369 . S
C3626 C3630 1.531 . S
C3627 C3626 1.369 . S
C3627 C3628 1.410 . S
C3627 C3635 1.503 . S
C3628 C3627 1.410 . S
C3628 C3629 1.392 . S
C3628 C3631 1.511 . S
C3629 C3625 1.376 . S
C3629 C3628 1.392 . S
C3629 H3641 0.929 . S
C3630 C3626 1.531 . S
C3630 H3642 0.960 . S
C3630 H3643 0.962 . S
C3630 H3644 0.960 . S
C3631 C3628 1.511 . S
C3631 H3645 0.961 . S
C3631 H3646 0.961 . S
C3631 H3647 0.961 . S
C3632 C3633 1.370 . S
C3632 C3634 1.363 . S
C3632 H3648 0.931 . S
C3633 C3632 1.370 . S
C3633 C3637 1.408 . S
C3634 C3632 1.363 . S
C3634 C3635 1.370 . S
C3634 C3638 1.524 . S
C3635 C3627 1.503 . S
C3635 C3634 1.370 . S
C3635 C3636 1.403 . S
C3636 C3635 1.403 . S
C3636 C3637 1.404 . S
C3636 C3639 1.539 . S
C3637 C3633 1.408 . S
C3637 C3636 1.404 . S
C3637 H3649 0.930 . S
C3638 C3634 1.524 . S
C3638 H3650 0.956 . S
C3638 H3651 0.961 . S
C3638 H3652 0.961 . S
C3639 C3636 1.539 . S
C3639 H3653 0.958 . S
C3639 H3654 0.961 . S
C3639 H3655 0.960 . S
H3640 C3624 0.931 . S
H3641 C3629 0.929 . S
H3642 C3630 0.960 . S
H3643 C3630 0.962 . S
H3644 C3630 0.960 . S
H3645 C3631 0.961 . S
H3646 C3631 0.961 . S
H3647 C3631 0.961 . S
H3648 C3632 0.931 . S
H3649 C3637 0.930 . S
H3650 C3638 0.956 . S
H3651 C3638 0.961 . S
H3652 C3638 0.961 . S
H3653 C3639 0.958 . S
H3654 C3639 0.961 . S
H3655 C3639 0.960 . S
C3656 C3657 1.391 . S
C3656 C3658 1.394 . S
C3656 H3672 0.931 . S
C3657 C3656 1.391 . S
C3657 C3661 1.376 . S
C3658 C3656 1.394 . S
C3658 C3659 1.369 . S
C3658 C3662 1.531 . S
C3659 C3658 1.369 . S
C3659 C3660 1.410 . S
C3659 C3667 1.503 . S
C3660 C3659 1.410 . S
C3660 C3661 1.392 . S
C3660 C3663 1.511 . S
C3661 C3657 1.376 . S
C3661 C3660 1.392 . S
C3661 H3673 0.929 . S
C3662 C3658 1.531 . S
C3662 H3674 0.960 . S
C3662 H3675 0.962 . S
C3662 H3676 0.960 . S
C3663 C3660 1.511 . S
C3663 H3677 0.961 . S
C3663 H3678 0.961 . S
C3663 H3679 0.961 . S
C3664 C3665 1.370 . S
C3664 C3666 1.363 . S
C3664 H3680 0.931 . S
C3665 C3664 1.370 . S
C3665 C3669 1.408 . S
C3666 C3664 1.363 . S
C3666 C3667 1.370 . S
C3666 C3670 1.524 . S
C3667 C3659 1.503 . S
C3667 C3666 1.370 . S
C3667 C3668 1.403 . S
C3668 C3667 1.403 . S
C3668 C3669 1.404 . S
C3668 C3671 1.539 . S
C3669 C3665 1.408 . S
C3669 C3668 1.404 . S
C3669 H3681 0.930 . S
C3670 C3666 1.524 . S
C3670 H3682 0.956 . S
C3670 H3683 0.961 . S
C3670 H3684 0.961 . S
C3671 C3668 1.539 . S
C3671 H3685 0.958 . S
C3671 H3686 0.961 . S
C3671 H3687 0.960 . S
H3672 C3656 0.931 . S
H3673 C3661 0.929 . S
H3674 C3662 0.960 . S
H3675 C3662 0.962 . S
H3676 C3662 0.960 . S
H3677 C3663 0.961 . S
H3678 C3663 0.961 . S
H3679 C3663 0.961 . S
H3680 C3664 0.931 . S
H3681 C3669 0.930 . S
H3682 C3670 0.956 . S
H3683 C3670 0.961 . S
H3684 C3670 0.961 . S
H3685 C3671 0.958 . S
H3686 C3671 0.961 . S
H3687 C3671 0.960 . S
C3688 C3689 1.391 . S
C3688 C3690 1.394 . S
C3688 H3704 0.931 . S
C3689 C3688 1.391 . S
C3689 C3693 1.376 . S
C3690 C3688 1.394 . S
C3690 C3691 1.369 . S
C3690 C3694 1.531 . S
C3691 C3690 1.369 . S
C3691 C3692 1.410 . S
C3691 C3699 1.503 . S
C3692 C3691 1.410 . S
C3692 C3693 1.392 . S
C3692 C3695 1.511 . S
C3693 C3689 1.376 . S
C3693 C3692 1.392 . S
C3693 H3705 0.929 . S
C3694 C3690 1.531 . S
C3694 H3706 0.960 . S
C3694 H3707 0.962 . S
C3694 H3708 0.960 . S
C3695 C3692 1.511 . S
C3695 H3709 0.961 . S
C3695 H3710 0.961 . S
C3695 H3711 0.961 . S
C3696 C3697 1.370 . S
C3696 C3698 1.363 . S
C3696 H3712 0.931 . S
C3697 C3696 1.370 . S
C3697 C3701 1.408 . S
C3698 C3696 1.363 . S
C3698 C3699 1.370 . S
C3698 C3702 1.524 . S
C3699 C3691 1.503 . S
C3699 C3698 1.370 . S
C3699 C3700 1.403 . S
C3700 C3699 1.403 . S
C3700 C3701 1.404 . S
C3700 C3703 1.539 . S
C3701 C3697 1.408 . S
C3701 C3700 1.404 . S
C3701 H3713 0.930 . S
C3702 C3698 1.524 . S
C3702 H3714 0.956 . S
C3702 H3715 0.961 . S
C3702 H3716 0.961 . S
C3703 C3700 1.539 . S
C3703 H3717 0.958 . S
C3703 H3718 0.961 . S
C3703 H3719 0.960 . S
H3704 C3688 0.931 . S
H3705 C3693 0.929 . S
H3706 C3694 0.960 . S
H3707 C3694 0.962 . S
H3708 C3694 0.960 . S
H3709 C3695 0.961 . S
H3710 C3695 0.961 . S
H3711 C3695 0.961 . S
H3712 C3696 0.931 . S
H3713 C3701 0.930 . S
H3714 C3702 0.956 . S
H3715 C3702 0.961 . S
H3716 C3702 0.961 . S
H3717 C3703 0.958 . S
H3718 C3703 0.961 . S
H3719 C3703 0.960 . S
C3720 C3721 1.391 . S
C3720 C3722 1.394 . S
C3720 H3736 0.931 . S
C3721 C3720 1.391 . S
C3721 C3725 1.376 . S
C3722 C3720 1.394 . S
C3722 C3723 1.369 . S
C3722 C3726 1.531 . S
C3723 C3722 1.369 . S
C3723 C3724 1.410 . S
C3723 C3731 1.503 . S
C3724 C3723 1.410 . S
C3724 C3725 1.392 . S
C3724 C3727 1.511 . S
C3725 C3721 1.376 . S
C3725 C3724 1.392 . S
C3725 H3737 0.929 . S
C3726 C3722 1.531 . S
C3726 H3738 0.960 . S
C3726 H3739 0.962 . S
C3726 H3740 0.960 . S
C3727 C3724 1.511 . S
C3727 H3741 0.961 . S
C3727 H3742 0.961 . S
C3727 H3743 0.961 . S
C3728 C3729 1.370 . S
C3728 C3730 1.363 . S
C3728 H3744 0.931 . S
C3729 C3728 1.370 . S
C3729 C3733 1.408 . S
C3730 C3728 1.363 . S
C3730 C3731 1.370 . S
C3730 C3734 1.524 . S
C3731 C3723 1.503 . S
C3731 C3730 1.370 . S
C3731 C3732 1.403 . S
C3732 C3731 1.403 . S
C3732 C3733 1.404 . S
C3732 C3735 1.539 . S
C3733 C3729 1.408 . S
C3733 C3732 1.404 . S
C3733 H3745 0.930 . S
C3734 C3730 1.524 . S
C3734 H3746 0.956 . S
C3734 H3747 0.961 . S
C3734 H3748 0.961 . S
C3735 C3732 1.539 . S
C3735 H3749 0.958 . S
C3735 H3750 0.961 . S
C3735 H3751 0.960 . S
H3736 C3720 0.931 . S
H3737 C3725 0.929 . S
H3738 C3726 0.960 . S
H3739 C3726 0.962 . S
H3740 C3726 0.960 . S
H3741 C3727 0.961 . S
H3742 C3727 0.961 . S
H3743 C3727 0.961 . S
H3744 C3728 0.931 . S
H3745 C3733 0.930 . S
H3746 C3734 0.956 . S
H3747 C3734 0.961 . S
H3748 C3734 0.961 . S
H3749 C3735 0.958 . S
H3750 C3735 0.961 . S
H3751 C3735 0.960 . S
C3752 C3753 1.391 . S
C3752 C3754 1.394 . S
C3752 H3768 0.931 . S
C3753 C3752 1.391 . S
C3753 C3757 1.376 . S
C3754 C3752 1.394 . S
C3754 C3755 1.369 . S
C3754 C3758 1.531 . S
C3755 C3754 1.369 . S
C3755 C3756 1.410 . S
C3755 C3763 1.503 . S
C3756 C3755 1.410 . S
C3756 C3757 1.392 . S
C3756 C3759 1.511 . S
C3757 C3753 1.376 . S
C3757 C3756 1.392 . S
C3757 H3769 0.929 . S
C3758 C3754 1.531 . S
C3758 H3770 0.960 . S
C3758 H3771 0.962 . S
C3758 H3772 0.960 . S
C3759 C3756 1.511 . S
C3759 H3773 0.961 . S
C3759 H3774 0.961 . S
C3759 H3775 0.961 . S
C3760 C3761 1.370 . S
C3760 C3762 1.363 . S
C3760 H3776 0.931 . S
C3761 C3760 1.370 . S
C3761 C3765 1.408 . S
C3762 C3760 1.363 . S
C3762 C3763 1.370 . S
C3762 C3766 1.524 . S
C3763 C3755 1.503 . S
C3763 C3762 1.370 . S
C3763 C3764 1.403 . S
C3764 C3763 1.403 . S
C3764 C3765 1.404 . S
C3764 C3767 1.539 . S
C3765 C3761 1.408 . S
C3765 C3764 1.404 . S
C3765 H3777 0.930 . S
C3766 C3762 1.524 . S
C3766 H3778 0.956 . S
C3766 H3779 0.961 . S
C3766 H3780 0.961 . S
C3767 C3764 1.539 . S
C3767 H3781 0.958 . S
C3767 H3782 0.961 . S
C3767 H3783 0.960 . S
H3768 C3752 0.931 . S
H3769 C3757 0.929 . S
H3770 C3758 0.960 . S
H3771 C3758 0.962 . S
H3772 C3758 0.960 . S
H3773 C3759 0.961 . S
H3774 C3759 0.961 . S
H3775 C3759 0.961 . S
H3776 C3760 0.931 . S
H3777 C3765 0.930 . S
H3778 C3766 0.956 . S
H3779 C3766 0.961 . S
H3780 C3766 0.961 . S
H3781 C3767 0.958 . S
H3782 C3767 0.961 . S
H3783 C3767 0.960 . S
C3784 C3785 1.391 . S
C3784 C3786 1.394 . S
C3784 H3800 0.931 . S
C3785 C3784 1.391 . S
C3785 C3789 1.376 . S
C3786 C3784 1.394 . S
C3786 C3787 1.369 . S
C3786 C3790 1.531 . S
C3787 C3786 1.369 . S
C3787 C3788 1.410 . S
C3787 C3795 1.503 . S
C3788 C3787 1.410 . S
C3788 C3789 1.392 . S
C3788 C3791 1.511 . S
C3789 C3785 1.376 . S
C3789 C3788 1.392 . S
C3789 H3801 0.929 . S
C3790 C3786 1.531 . S
C3790 H3802 0.960 . S
C3790 H3803 0.962 . S
C3790 H3804 0.960 . S
C3791 C3788 1.511 . S
C3791 H3805 0.961 . S
C3791 H3806 0.961 . S
C3791 H3807 0.961 . S
C3792 C3793 1.370 . S
C3792 C3794 1.363 . S
C3792 H3808 0.931 . S
C3793 C3792 1.370 . S
C3793 C3797 1.408 . S
C3794 C3792 1.363 . S
C3794 C3795 1.370 . S
C3794 C3798 1.524 . S
C3795 C3787 1.503 . S
C3795 C3794 1.370 . S
C3795 C3796 1.403 . S
C3796 C3795 1.403 . S
C3796 C3797 1.404 . S
C3796 C3799 1.539 . S
C3797 C3793 1.408 . S
C3797 C3796 1.404 . S
C3797 H3809 0.930 . S
C3798 C3794 1.524 . S
C3798 H3810 0.956 . S
C3798 H3811 0.961 . S
C3798 H3812 0.961 . S
C3799 C3796 1.539 . S
C3799 H3813 0.958 . S
C3799 H3814 0.961 . S
C3799 H3815 0.960 . S
H3800 C3784 0.931 . S
H3801 C3789 0.929 . S
H3802 C3790 0.960 . S
H3803 C3790 0.962 . S
H3804 C3790 0.960 . S
H3805 C3791 0.961 . S
H3806 C3791 0.961 . S
H3807 C3791 0.961 . S
H3808 C3792 0.931 . S
H3809 C3797 0.930 . S
H3810 C3798 0.956 . S
H3811 C3798 0.961 . S
H3812 C3798 0.961 . S
H3813 C3799 0.958 . S
H3814 C3799 0.961 . S
H3815 C3799 0.960 . S
C3816 C3817 1.391 . S
C3816 C3818 1.394 . S
C3816 H3832 0.931 . S
C3817 C3816 1.391 . S
C3817 C3821 1.376 . S
C3818 C3816 1.394 . S
C3818 C3819 1.369 . S
C3818 C3822 1.531 . S
C3819 C3818 1.369 . S
C3819 C3820 1.410 . S
C3819 C3827 1.503 . S
C3820 C3819 1.410 . S
C3820 C3821 1.392 . S
C3820 C3823 1.511 . S
C3821 C3817 1.376 . S
C3821 C3820 1.392 . S
C3821 H3833 0.929 . S
C3822 C3818 1.531 . S
C3822 H3834 0.960 . S
C3822 H3835 0.962 . S
C3822 H3836 0.960 . S
C3823 C3820 1.511 . S
C3823 H3837 0.961 . S
C3823 H3838 0.961 . S
C3823 H3839 0.961 . S
C3824 C3825 1.370 . S
C3824 C3826 1.363 . S
C3824 H3840 0.931 . S
C3825 C3824 1.370 . S
C3825 C3829 1.408 . S
C3826 C3824 1.363 . S
C3826 C3827 1.370 . S
C3826 C3830 1.524 . S
C3827 C3819 1.503 . S
C3827 C3826 1.370 . S
C3827 C3828 1.403 . S
C3828 C3827 1.403 . S
C3828 C3829 1.404 . S
C3828 C3831 1.539 . S
C3829 C3825 1.408 . S
C3829 C3828 1.404 . S
C3829 H3841 0.930 . S
C3830 C3826 1.524 . S
C3830 H3842 0.956 . S
C3830 H3843 0.961 . S
C3830 H3844 0.961 . S
C3831 C3828 1.539 . S
C3831 H3845 0.958 . S
C3831 H3846 0.961 . S
C3831 H3847 0.960 . S
H3832 C3816 0.931 . S
H3833 C3821 0.929 . S
H3834 C3822 0.960 . S
H3835 C3822 0.962 . S
H3836 C3822 0.960 . S
H3837 C3823 0.961 . S
H3838 C3823 0.961 . S
H3839 C3823 0.961 . S
H3840 C3824 0.931 . S
H3841 C3829 0.930 . S
H3842 C3830 0.956 . S
H3843 C3830 0.961 . S
H3844 C3830 0.961 . S
H3845 C3831 0.958 . S
H3846 C3831 0.961 . S
H3847 C3831 0.960 . S
C3848 C3849 1.391 . S
C3848 C3850 1.394 . S
C3848 H3864 0.931 . S
C3849 C3848 1.391 . S
C3849 C3853 1.376 . S
C3850 C3848 1.394 . S
C3850 C3851 1.369 . S
C3850 C3854 1.531 . S
C3851 C3850 1.369 . S
C3851 C3852 1.410 . S
C3851 C3859 1.503 . S
C3852 C3851 1.410 . S
C3852 C3853 1.392 . S
C3852 C3855 1.511 . S
C3853 C3849 1.376 . S
C3853 C3852 1.392 . S
C3853 H3865 0.929 . S
C3854 C3850 1.531 . S
C3854 H3866 0.960 . S
C3854 H3867 0.962 . S
C3854 H3868 0.960 . S
C3855 C3852 1.511 . S
C3855 H3869 0.961 . S
C3855 H3870 0.961 . S
C3855 H3871 0.961 . S
C3856 C3857 1.370 . S
C3856 C3858 1.363 . S
C3856 H3872 0.931 . S
C3857 C3856 1.370 . S
C3857 C3861 1.408 . S
C3858 C3856 1.363 . S
C3858 C3859 1.370 . S
C3858 C3862 1.524 . S
C3859 C3851 1.503 . S
C3859 C3858 1.370 . S
C3859 C3860 1.403 . S
C3860 C3859 1.403 . S
C3860 C3861 1.404 . S
C3860 C3863 1.539 . S
C3861 C3857 1.408 . S
C3861 C3860 1.404 . S
C3861 H3873 0.930 . S
C3862 C3858 1.524 . S
C3862 H3874 0.956 . S
C3862 H3875 0.961 . S
C3862 H3876 0.961 . S
C3863 C3860 1.539 . S
C3863 H3877 0.958 . S
C3863 H3878 0.961 . S
C3863 H3879 0.960 . S
H3864 C3848 0.931 . S
H3865 C3853 0.929 . S
H3866 C3854 0.960 . S
H3867 C3854 0.962 . S
H3868 C3854 0.960 . S
H3869 C3855 0.961 . S
H3870 C3855 0.961 . S
H3871 C3855 0.961 . S
H3872 C3856 0.931 . S
H3873 C3861 0.930 . S
H3874 C3862 0.956 . S
H3875 C3862 0.961 . S
H3876 C3862 0.961 . S
H3877 C3863 0.958 . S
H3878 C3863 0.961 . S
H3879 C3863 0.960 . S
C3880 C3881 1.391 . S
C3880 C3882 1.394 . S
C3880 H3896 0.931 . S
C3881 C3880 1.391 . S
C3881 C3885 1.376 . S
C3882 C3880 1.394 . S
C3882 C3883 1.369 . S
C3882 C3886 1.531 . S
C3883 C3882 1.369 . S
C3883 C3884 1.410 . S
C3883 C3891 1.503 . S
C3884 C3883 1.410 . S
C3884 C3885 1.392 . S
C3884 C3887 1.511 . S
C3885 C3881 1.376 . S
C3885 C3884 1.392 . S
C3885 H3897 0.929 . S
C3886 C3882 1.531 . S
C3886 H3898 0.960 . S
C3886 H3899 0.962 . S
C3886 H3900 0.960 . S
C3887 C3884 1.511 . S
C3887 H3901 0.961 . S
C3887 H3902 0.961 . S
C3887 H3903 0.961 . S
C3888 C3889 1.370 . S
C3888 C3890 1.363 . S
C3888 H3904 0.931 . S
C3889 C3888 1.370 . S
C3889 C3893 1.408 . S
C3890 C3888 1.363 . S
C3890 C3891 1.370 . S
C3890 C3894 1.524 . S
C3891 C3883 1.503 . S
C3891 C3890 1.370 . S
C3891 C3892 1.403 . S
C3892 C3891 1.403 . S
C3892 C3893 1.404 . S
C3892 C3895 1.539 . S
C3893 C3889 1.408 . S
C3893 C3892 1.404 . S
C3893 H3905 0.930 . S
C3894 C3890 1.524 . S
C3894 H3906 0.956 . S
C3894 H3907 0.961 . S
C3894 H3908 0.961 . S
C3895 C3892 1.539 . S
C3895 H3909 0.958 . S
C3895 H3910 0.961 . S
C3895 H3911 0.960 . S
H3896 C3880 0.931 . S
H3897 C3885 0.929 . S
H3898 C3886 0.960 . S
H3899 C3886 0.962 . S
H3900 C3886 0.960 . S
H3901 C3887 0.961 . S
H3902 C3887 0.961 . S
H3903 C3887 0.961 . S
H3904 C3888 0.931 . S
H3905 C3893 0.930 . S
H3906 C3894 0.956 . S
H3907 C3894 0.961 . S
H3908 C3894 0.961 . S
H3909 C3895 0.958 . S
H3910 C3895 0.961 . S
H3911 C3895 0.960 . S
C3912 C3913 1.391 . S
C3912 C3914 1.394 . S
C3912 H3928 0.931 . S
C3913 C3912 1.391 . S
C3913 C3917 1.376 . S
C3914 C3912 1.394 . S
C3914 C3915 1.369 . S
C3914 C3918 1.531 . S
C3915 C3914 1.369 . S
C3915 C3916 1.410 . S
C3915 C3923 1.503 . S
C3916 C3915 1.410 . S
C3916 C3917 1.392 . S
C3916 C3919 1.511 . S
C3917 C3913 1.376 . S
C3917 C3916 1.392 . S
C3917 H3929 0.929 . S
C3918 C3914 1.531 . S
C3918 H3930 0.960 . S
C3918 H3931 0.962 . S
C3918 H3932 0.960 . S
C3919 C3916 1.511 . S
C3919 H3933 0.961 . S
C3919 H3934 0.961 . S
C3919 H3935 0.961 . S
C3920 C3921 1.370 . S
C3920 C3922 1.363 . S
C3920 H3936 0.931 . S
C3921 C3920 1.370 . S
C3921 C3925 1.408 . S
C3922 C3920 1.363 . S
C3922 C3923 1.370 . S
C3922 C3926 1.524 . S
C3923 C3915 1.503 . S
C3923 C3922 1.370 . S
C3923 C3924 1.403 . S
C3924 C3923 1.403 . S
C3924 C3925 1.404 . S
C3924 C3927 1.539 . S
C3925 C3921 1.408 . S
C3925 C3924 1.404 . S
C3925 H3937 0.930 . S
C3926 C3922 1.524 . S
C3926 H3938 0.956 . S
C3926 H3939 0.961 . S
C3926 H3940 0.961 . S
C3927 C3924 1.539 . S
C3927 H3941 0.958 . S
C3927 H3942 0.961 . S
C3927 H3943 0.960 . S
H3928 C3912 0.931 . S
H3929 C3917 0.929 . S
H3930 C3918 0.960 . S
H3931 C3918 0.962 . S
H3932 C3918 0.960 . S
H3933 C3919 0.961 . S
H3934 C3919 0.961 . S
H3935 C3919 0.961 . S
H3936 C3920 0.931 . S
H3937 C3925 0.930 . S
H3938 C3926 0.956 . S
H3939 C3926 0.961 . S
H3940 C3926 0.961 . S
H3941 C3927 0.958 . S
H3942 C3927 0.961 . S
H3943 C3927 0.960 . S
C3944 C3945 1.391 . S
C3944 C3946 1.394 . S
C3944 H3960 0.931 . S
C3945 C3944 1.391 . S
C3945 C3949 1.376 . S
C3946 C3944 1.394 . S
C3946 C3947 1.369 . S
C3946 C3950 1.531 . S
C3947 C3946 1.369 . S
C3947 C3948 1.410 . S
C3947 C3955 1.503 . S
C3948 C3947 1.410 . S
C3948 C3949 1.392 . S
C3948 C3951 1.511 . S
C3949 C3945 1.376 . S
C3949 C3948 1.392 . S
C3949 H3961 0.929 . S
C3950 C3946 1.531 . S
C3950 H3962 0.960 . S
C3950 H3963 0.962 . S
C3950 H3964 0.960 . S
C3951 C3948 1.511 . S
C3951 H3965 0.961 . S
C3951 H3966 0.961 . S
C3951 H3967 0.961 . S
C3952 C3953 1.370 . S
C3952 C3954 1.363 . S
C3952 H3968 0.931 . S
C3953 C3952 1.370 . S
C3953 C3957 1.408 . S
C3954 C3952 1.363 . S
C3954 C3955 1.370 . S
C3954 C3958 1.524 . S
C3955 C3947 1.503 . S
C3955 C3954 1.370 . S
C3955 C3956 1.403 . S
C3956 C3955 1.403 . S
C3956 C3957 1.404 . S
C3956 C3959 1.539 . S
C3957 C3953 1.408 . S
C3957 C3956 1.404 . S
C3957 H3969 0.930 . S
C3958 C3954 1.524 . S
C3958 H3970 0.956 . S
C3958 H3971 0.961 . S
C3958 H3972 0.961 . S
C3959 C3956 1.539 . S
C3959 H3973 0.958 . S
C3959 H3974 0.961 . S
C3959 H3975 0.960 . S
H3960 C3944 0.931 . S
H3961 C3949 0.929 . S
H3962 C3950 0.960 . S
H3963 C3950 0.962 . S
H3964 C3950 0.960 . S
H3965 C3951 0.961 . S
H3966 C3951 0.961 . S
H3967 C3951 0.961 . S
H3968 C3952 0.931 . S
H3969 C3957 0.930 . S
H3970 C3958 0.956 . S
H3971 C3958 0.961 . S
H3972 C3958 0.961 . S
H3973 C3959 0.958 . S
H3974 C3959 0.961 . S
H3975 C3959 0.960 . S
C3976 C3977 1.391 . S
C3976 C3978 1.394 . S
C3976 H3992 0.931 . S
C3977 C3976 1.391 . S
C3977 C3981 1.376 . S
C3978 C3976 1.394 . S
C3978 C3979 1.369 . S
C3978 C3982 1.531 . S
C3979 C3978 1.369 . S
C3979 C3980 1.410 . S
C3979 C3987 1.503 . S
C3980 C3979 1.410 . S
C3980 C3981 1.392 . S
C3980 C3983 1.511 . S
C3981 C3977 1.376 . S
C3981 C3980 1.392 . S
C3981 H3993 0.929 . S
C3982 C3978 1.531 . S
C3982 H3994 0.960 . S
C3982 H3995 0.962 . S
C3982 H3996 0.960 . S
C3983 C3980 1.511 . S
C3983 H3997 0.961 . S
C3983 H3998 0.961 . S
C3983 H3999 0.961 . S
C3984 C3985 1.370 . S
C3984 C3986 1.363 . S
C3984 H4000 0.931 . S
C3985 C3984 1.370 . S
C3985 C3989 1.408 . S
C3986 C3984 1.363 . S
C3986 C3987 1.370 . S
C3986 C3990 1.524 . S
C3987 C3979 1.503 . S
C3987 C3986 1.370 . S
C3987 C3988 1.403 . S
C3988 C3987 1.403 . S
C3988 C3989 1.404 . S
C3988 C3991 1.539 . S
C3989 C3985 1.408 . S
C3989 C3988 1.404 . S
C3989 H4001 0.930 . S
C3990 C3986 1.524 . S
C3990 H4002 0.956 . S
C3990 H4003 0.961 . S
C3990 H4004 0.961 . S
C3991 C3988 1.539 . S
C3991 H4005 0.958 . S
C3991 H4006 0.961 . S
C3991 H4007 0.960 . S
H3992 C3976 0.931 . S
H3993 C3981 0.929 . S
H3994 C3982 0.960 . S
H3995 C3982 0.962 . S
H3996 C3982 0.960 . S
H3997 C3983 0.961 . S
H3998 C3983 0.961 . S
H3999 C3983 0.961 . S
H4000 C3984 0.931 . S
H4001 C3989 0.930 . S
H4002 C3990 0.956 . S
H4003 C3990 0.961 . S
H4004 C3990 0.961 . S
H4005 C3991 0.958 . S
H4006 C3991 0.961 . S
H4007 C3991 0.960 . S
C4008 C4009 1.391 . S
C4008 C4010 1.394 . S
C4008 H4024 0.931 . S
C4009 C4008 1.391 . S
C4009 C4013 1.376 . S
C4010 C4008 1.394 . S
C4010 C4011 1.369 . S
C4010 C4014 1.531 . S
C4011 C4010 1.369 . S
C4011 C4012 1.410 . S
C4011 C4019 1.503 . S
C4012 C4011 1.410 . S
C4012 C4013 1.392 . S
C4012 C4015 1.511 . S
C4013 C4009 1.376 . S
C4013 C4012 1.392 . S
C4013 H4025 0.929 . S
C4014 C4010 1.531 . S
C4014 H4026 0.960 . S
C4014 H4027 0.962 . S
C4014 H4028 0.960 . S
C4015 C4012 1.511 . S
C4015 H4029 0.961 . S
C4015 H4030 0.961 . S
C4015 H4031 0.961 . S
C4016 C4017 1.370 . S
C4016 C4018 1.363 . S
C4016 H4032 0.931 . S
C4017 C4016 1.370 . S
C4017 C4021 1.408 . S
C4018 C4016 1.363 . S
C4018 C4019 1.370 . S
C4018 C4022 1.524 . S
C4019 C4011 1.503 . S
C4019 C4018 1.370 . S
C4019 C4020 1.403 . S
C4020 C4019 1.403 . S
C4020 C4021 1.404 . S
C4020 C4023 1.539 . S
C4021 C4017 1.408 . S
C4021 C4020 1.404 . S
C4021 H4033 0.930 . S
C4022 C4018 1.524 . S
C4022 H4034 0.956 . S
C4022 H4035 0.961 . S
C4022 H4036 0.961 . S
C4023 C4020 1.539 . S
C4023 H4037 0.958 . S
C4023 H4038 0.961 . S
C4023 H4039 0.960 . S
H4024 C4008 0.931 . S
H4025 C4013 0.929 . S
H4026 C4014 0.960 . S
H4027 C4014 0.962 . S
H4028 C4014 0.960 . S
H4029 C4015 0.961 . S
H4030 C4015 0.961 . S
H4031 C4015 0.961 . S
H4032 C4016 0.931 . S
H4033 C4021 0.930 . S
H4034 C4022 0.956 . S
H4035 C4022 0.961 . S
H4036 C4022 0.961 . S
H4037 C4023 0.958 . S
H4038 C4023 0.961 . S
H4039 C4023 0.960 . S
C4040 C4041 1.391 . S
C4040 C4042 1.394 . S
C4040 H4056 0.931 . S
C4041 C4040 1.391 . S
C4041 C4045 1.376 . S
C4042 C4040 1.394 . S
C4042 C4043 1.369 . S
C4042 C4046 1.531 . S
C4043 C4042 1.369 . S
C4043 C4044 1.410 . S
C4043 C4051 1.503 . S
C4044 C4043 1.410 . S
C4044 C4045 1.392 . S
C4044 C4047 1.511 . S
C4045 C4041 1.376 . S
C4045 C4044 1.392 . S
C4045 H4057 0.929 . S
C4046 C4042 1.531 . S
C4046 H4058 0.960 . S
C4046 H4059 0.962 . S
C4046 H4060 0.960 . S
C4047 C4044 1.511 . S
C4047 H4061 0.961 . S
C4047 H4062 0.961 . S
C4047 H4063 0.961 . S
C4048 C4049 1.370 . S
C4048 C4050 1.363 . S
C4048 H4064 0.931 . S
C4049 C4048 1.370 . S
C4049 C4053 1.408 . S
C4050 C4048 1.363 . S
C4050 C4051 1.370 . S
C4050 C4054 1.524 . S
C4051 C4043 1.503 . S
C4051 C4050 1.370 . S
C4051 C4052 1.403 . S
C4052 C4051 1.403 . S
C4052 C4053 1.404 . S
C4052 C4055 1.539 . S
C4053 C4049 1.408 . S
C4053 C4052 1.404 . S
C4053 H4065 0.930 . S
C4054 C4050 1.524 . S
C4054 H4066 0.956 . S
C4054 H4067 0.961 . S
C4054 H4068 0.961 . S
C4055 C4052 1.539 . S
C4055 H4069 0.958 . S
C4055 H4070 0.961 . S
C4055 H4071 0.960 . S
H4056 C4040 0.931 . S
H4057 C4045 0.929 . S
H4058 C4046 0.960 . S
H4059 C4046 0.962 . S
H4060 C4046 0.960 . S
H4061 C4047 0.961 . S
H4062 C4047 0.961 . S
H4063 C4047 0.961 . S
H4064 C4048 0.931 . S
H4065 C4053 0.930 . S
H4066 C4054 0.956 . S
H4067 C4054 0.961 . S
H4068 C4054 0.961 . S
H4069 C4055 0.958 . S
H4070 C4055 0.961 . S
H4071 C4055 0.960 . S
C4072 C4073 1.391 . S
C4072 C4074 1.394 . S
C4072 H4088 0.931 . S
C4073 C4072 1.391 . S
C4073 C4077 1.376 . S
C4074 C4072 1.394 . S
C4074 C4075 1.369 . S
C4074 C4078 1.531 . S
C4075 C4074 1.369 . S
C4075 C4076 1.410 . S
C4075 C4083 1.503 . S
C4076 C4075 1.410 . S
C4076 C4077 1.392 . S
C4076 C4079 1.511 . S
C4077 C4073 1.376 . S
C4077 C4076 1.392 . S
C4077 H4089 0.929 . S
C4078 C4074 1.531 . S
C4078 H4090 0.960 . S
C4078 H4091 0.962 . S
C4078 H4092 0.960 . S
C4079 C4076 1.511 . S
C4079 H4093 0.961 . S
C4079 H4094 0.961 . S
C4079 H4095 0.961 . S
C4080 C4081 1.370 . S
C4080 C4082 1.363 . S
C4080 H4096 0.931 . S
C4081 C4080 1.370 . S
C4081 C4085 1.408 . S
C4082 C4080 1.363 . S
C4082 C4083 1.370 . S
C4082 C4086 1.524 . S
C4083 C4075 1.503 . S
C4083 C4082 1.370 . S
C4083 C4084 1.403 . S
C4084 C4083 1.403 . S
C4084 C4085 1.404 . S
C4084 C4087 1.539 . S
C4085 C4081 1.408 . S
C4085 C4084 1.404 . S
C4085 H4097 0.930 . S
C4086 C4082 1.524 . S
C4086 H4098 0.956 . S
C4086 H4099 0.961 . S
C4086 H4100 0.961 . S
C4087 C4084 1.539 . S
C4087 H4101 0.958 . S
C4087 H4102 0.961 . S
C4087 H4103 0.960 . S
H4088 C4072 0.931 . S
H4089 C4077 0.929 . S
H4090 C4078 0.960 . S
H4091 C4078 0.962 . S
H4092 C4078 0.960 . S
H4093 C4079 0.961 . S
H4094 C4079 0.961 . S
H4095 C4079 0.961 . S
H4096 C4080 0.931 . S
H4097 C4085 0.930 . S
H4098 C4086 0.956 . S
H4099 C4086 0.961 . S
H4100 C4086 0.961 . S
H4101 C4087 0.958 . S
H4102 C4087 0.961 . S
H4103 C4087 0.960 . S
C4104 C4105 1.391 . S
C4104 C4106 1.394 . S
C4104 H4120 0.931 . S
C4105 C4104 1.391 . S
C4105 C4109 1.376 . S
C4106 C4104 1.394 . S
C4106 C4107 1.369 . S
C4106 C4110 1.531 . S
C4107 C4106 1.369 . S
C4107 C4108 1.410 . S
C4107 C4115 1.503 . S
C4108 C4107 1.410 . S
C4108 C4109 1.392 . S
C4108 C4111 1.511 . S
C4109 C4105 1.376 . S
C4109 C4108 1.392 . S
C4109 H4121 0.929 . S
C4110 C4106 1.531 . S
C4110 H4122 0.960 . S
C4110 H4123 0.962 . S
C4110 H4124 0.960 . S
C4111 C4108 1.511 . S
C4111 H4125 0.961 . S
C4111 H4126 0.961 . S
C4111 H4127 0.961 . S
C4112 C4113 1.370 . S
C4112 C4114 1.363 . S
C4112 H4128 0.931 . S
C4113 C4112 1.370 . S
C4113 C4117 1.408 . S
C4114 C4112 1.363 . S
C4114 C4115 1.370 . S
C4114 C4118 1.524 . S
C4115 C4107 1.503 . S
C4115 C4114 1.370 . S
C4115 C4116 1.403 . S
C4116 C4115 1.403 . S
C4116 C4117 1.404 . S
C4116 C4119 1.539 . S
C4117 C4113 1.408 . S
C4117 C4116 1.404 . S
C4117 H4129 0.930 . S
C4118 C4114 1.524 . S
C4118 H4130 0.956 . S
C4118 H4131 0.961 . S
C4118 H4132 0.961 . S
C4119 C4116 1.539 . S
C4119 H4133 0.958 . S
C4119 H4134 0.961 . S
C4119 H4135 0.960 . S
H4120 C4104 0.931 . S
H4121 C4109 0.929 . S
H4122 C4110 0.960 . S
H4123 C4110 0.962 . S
H4124 C4110 0.960 . S
H4125 C4111 0.961 . S
H4126 C4111 0.961 . S
H4127 C4111 0.961 . S
H4128 C4112 0.931 . S
H4129 C4117 0.930 . S
H4130 C4118 0.956 . S
H4131 C4118 0.961 . S
H4132 C4118 0.961 . S
H4133 C4119 0.958 . S
H4134 C4119 0.961 . S
H4135 C4119 0.960 . S
C4136 C4137 1.391 . S
C4136 C4138 1.394 . S
C4136 H4152 0.931 . S
C4137 C4136 1.391 . S
C4137 C4141 1.376 . S
C4138 C4136 1.394 . S
C4138 C4139 1.369 . S
C4138 C4142 1.531 . S
C4139 C4138 1.369 . S
C4139 C4140 1.410 . S
C4139 C4147 1.503 . S
C4140 C4139 1.410 . S
C4140 C4141 1.392 . S
C4140 C4143 1.511 . S
C4141 C4137 1.376 . S
C4141 C4140 1.392 . S
C4141 H4153 0.929 . S
C4142 C4138 1.531 . S
C4142 H4154 0.960 . S
C4142 H4155 0.962 . S
C4142 H4156 0.960 . S
C4143 C4140 1.511 . S
C4143 H4157 0.961 . S
C4143 H4158 0.961 . S
C4143 H4159 0.961 . S
C4144 C4145 1.370 . S
C4144 C4146 1.363 . S
C4144 H4160 0.931 . S
C4145 C4144 1.370 . S
C4145 C4149 1.408 . S
C4146 C4144 1.363 . S
C4146 C4147 1.370 . S
C4146 C4150 1.524 . S
C4147 C4139 1.503 . S
C4147 C4146 1.370 . S
C4147 C4148 1.403 . S
C4148 C4147 1.403 . S
C4148 C4149 1.404 . S
C4148 C4151 1.539 . S
C4149 C4145 1.408 . S
C4149 C4148 1.404 . S
C4149 H4161 0.930 . S
C4150 C4146 1.524 . S
C4150 H4162 0.956 . S
C4150 H4163 0.961 . S
C4150 H4164 0.961 . S
C4151 C4148 1.539 . S
C4151 H4165 0.958 . S
C4151 H4166 0.961 . S
C4151 H4167 0.960 . S
H4152 C4136 0.931 . S
H4153 C4141 0.929 . S
H4154 C4142 0.960 . S
H4155 C4142 0.962 . S
H4156 C4142 0.960 . S
H4157 C4143 0.961 . S
H4158 C4143 0.961 . S
H4159 C4143 0.961 . S
H4160 C4144 0.931 . S
H4161 C4149 0.930 . S
H4162 C4150 0.956 . S
H4163 C4150 0.961 . S
H4164 C4150 0.961 . S
H4165 C4151 0.958 . S
H4166 C4151 0.961 . S
H4167 C4151 0.960 . S
C4168 C4169 1.391 . S
C4168 C4170 1.394 . S
C4168 H4184 0.931 . S
C4169 C4168 1.391 . S
C4169 C4173 1.376 . S
C4170 C4168 1.394 . S
C4170 C4171 1.369 . S
C4170 C4174 1.531 . S
C4171 C4170 1.369 . S
C4171 C4172 1.410 . S
C4171 C4179 1.503 . S
C4172 C4171 1.410 . S
C4172 C4173 1.392 . S
C4172 C4175 1.511 . S
C4173 C4169 1.376 . S
C4173 C4172 1.392 . S
C4173 H4185 0.929 . S
C4174 C4170 1.531 . S
C4174 H4186 0.960 . S
C4174 H4187 0.962 . S
C4174 H4188 0.960 . S
C4175 C4172 1.511 . S
C4175 H4189 0.961 . S
C4175 H4190 0.961 . S
C4175 H4191 0.961 . S
C4176 C4177 1.370 . S
C4176 C4178 1.363 . S
C4176 H4192 0.931 . S
C4177 C4176 1.370 . S
C4177 C4181 1.408 . S
C4178 C4176 1.363 . S
C4178 C4179 1.370 . S
C4178 C4182 1.524 . S
C4179 C4171 1.503 . S
C4179 C4178 1.370 . S
C4179 C4180 1.403 . S
C4180 C4179 1.403 . S
C4180 C4181 1.404 . S
C4180 C4183 1.539 . S
C4181 C4177 1.408 . S
C4181 C4180 1.404 . S
C4181 H4193 0.930 . S
C4182 C4178 1.524 . S
C4182 H4194 0.956 . S
C4182 H4195 0.961 . S
C4182 H4196 0.961 . S
C4183 C4180 1.539 . S
C4183 H4197 0.958 . S
C4183 H4198 0.961 . S
C4183 H4199 0.960 . S
H4184 C4168 0.931 . S
H4185 C4173 0.929 . S
H4186 C4174 0.960 . S
H4187 C4174 0.962 . S
H4188 C4174 0.960 . S
H4189 C4175 0.961 . S
H4190 C4175 0.961 . S
H4191 C4175 0.961 . S
H4192 C4176 0.931 . S
H4193 C4181 0.930 . S
H4194 C4182 0.956 . S
H4195 C4182 0.961 . S
H4196 C4182 0.961 . S
H4197 C4183 0.958 . S
H4198 C4183 0.961 . S
H4199 C4183 0.960 . S
C4200 C4201 1.391 . S
C4200 C4202 1.394 . S
C4200 H4216 0.931 . S
C4201 C4200 1.391 . S
C4201 C4205 1.376 . S
C4202 C4200 1.394 . S
C4202 C4203 1.369 . S
C4202 C4206 1.531 . S
C4203 C4202 1.369 . S
C4203 C4204 1.410 . S
C4203 C4211 1.503 . S
C4204 C4203 1.410 . S
C4204 C4205 1.392 . S
C4204 C4207 1.511 . S
C4205 C4201 1.376 . S
C4205 C4204 1.392 . S
C4205 H4217 0.929 . S
C4206 C4202 1.531 . S
C4206 H4218 0.960 . S
C4206 H4219 0.962 . S
C4206 H4220 0.960 . S
C4207 C4204 1.511 . S
C4207 H4221 0.961 . S
C4207 H4222 0.961 . S
C4207 H4223 0.961 . S
C4208 C4209 1.370 . S
C4208 C4210 1.363 . S
C4208 H4224 0.931 . S
C4209 C4208 1.370 . S
C4209 C4213 1.408 . S
C4210 C4208 1.363 . S
C4210 C4211 1.370 . S
C4210 C4214 1.524 . S
C4211 C4203 1.503 . S
C4211 C4210 1.370 . S
C4211 C4212 1.403 . S
C4212 C4211 1.403 . S
C4212 C4213 1.404 . S
C4212 C4215 1.539 . S
C4213 C4209 1.408 . S
C4213 C4212 1.404 . S
C4213 H4225 0.930 . S
C4214 C4210 1.524 . S
C4214 H4226 0.956 . S
C4214 H4227 0.961 . S
C4214 H4228 0.961 . S
C4215 C4212 1.539 . S
C4215 H4229 0.958 . S
C4215 H4230 0.961 . S
C4215 H4231 0.960 . S
H4216 C4200 0.931 . S
H4217 C4205 0.929 . S
H4218 C4206 0.960 . S
H4219 C4206 0.962 . S
H4220 C4206 0.960 . S
H4221 C4207 0.961 . S
H4222 C4207 0.961 . S
H4223 C4207 0.961 . S
H4224 C4208 0.931 . S
H4225 C4213 0.930 . S
H4226 C4214 0.956 . S
H4227 C4214 0.961 . S
H4228 C4214 0.961 . S
H4229 C4215 0.958 . S
H4230 C4215 0.961 . S
H4231 C4215 0.960 . S
C4232 C4233 1.391 . S
C4232 C4234 1.394 . S
C4232 H4248 0.931 . S
C4233 C4232 1.391 . S
C4233 C4237 1.376 . S
C4234 C4232 1.394 . S
C4234 C4235 1.369 . S
C4234 C4238 1.531 . S
C4235 C4234 1.369 . S
C4235 C4236 1.410 . S
C4235 C4243 1.503 . S
C4236 C4235 1.410 . S
C4236 C4237 1.392 . S
C4236 C4239 1.511 . S
C4237 C4233 1.376 . S
C4237 C4236 1.392 . S
C4237 H4249 0.929 . S
C4238 C4234 1.531 . S
C4238 H4250 0.960 . S
C4238 H4251 0.962 . S
C4238 H4252 0.960 . S
C4239 C4236 1.511 . S
C4239 H4253 0.961 . S
C4239 H4254 0.961 . S
C4239 H4255 0.961 . S
C4240 C4241 1.370 . S
C4240 C4242 1.363 . S
C4240 H4256 0.931 . S
C4241 C4240 1.370 . S
C4241 C4245 1.408 . S
C4242 C4240 1.363 . S
C4242 C4243 1.370 . S
C4242 C4246 1.524 . S
C4243 C4235 1.503 . S
C4243 C4242 1.370 . S
C4243 C4244 1.403 . S
C4244 C4243 1.403 . S
C4244 C4245 1.404 . S
C4244 C4247 1.539 . S
C4245 C4241 1.408 . S
C4245 C4244 1.404 . S
C4245 H4257 0.930 . S
C4246 C4242 1.524 . S
C4246 H4258 0.956 . S
C4246 H4259 0.961 . S
C4246 H4260 0.961 . S
C4247 C4244 1.539 . S
C4247 H4261 0.958 . S
C4247 H4262 0.961 . S
C4247 H4263 0.960 . S
H4248 C4232 0.931 . S
H4249 C4237 0.929 . S
H4250 C4238 0.960 . S
H4251 C4238 0.962 . S
H4252 C4238 0.960 . S
H4253 C4239 0.961 . S
H4254 C4239 0.961 . S
H4255 C4239 0.961 . S
H4256 C4240 0.931 . S
H4257 C4245 0.930 . S
H4258 C4246 0.956 . S
H4259 C4246 0.961 . S
H4260 C4246 0.961 . S
H4261 C4247 0.958 . S
H4262 C4247 0.961 . S
H4263 C4247 0.960 . S
C4264 C4265 1.391 . S
C4264 C4266 1.394 . S
C4264 H4280 0.931 . S
C4265 C4264 1.391 . S
C4265 C4269 1.376 . S
C4266 C4264 1.394 . S
C4266 C4267 1.369 . S
C4266 C4270 1.531 . S
C4267 C4266 1.369 . S
C4267 C4268 1.410 . S
C4267 C4275 1.503 . S
C4268 C4267 1.410 . S
C4268 C4269 1.392 . S
C4268 C4271 1.511 . S
C4269 C4265 1.376 . S
C4269 C4268 1.392 . S
C4269 H4281 0.929 . S
C4270 C4266 1.531 . S
C4270 H4282 0.960 . S
C4270 H4283 0.962 . S
C4270 H4284 0.960 . S
C4271 C4268 1.511 . S
C4271 H4285 0.961 . S
C4271 H4286 0.961 . S
C4271 H4287 0.961 . S
C4272 C4273 1.370 . S
C4272 C4274 1.363 . S
C4272 H4288 0.931 . S
C4273 C4272 1.370 . S
C4273 C4277 1.408 . S
C4274 C4272 1.363 . S
C4274 C4275 1.370 . S
C4274 C4278 1.524 . S
C4275 C4267 1.503 . S
C4275 C4274 1.370 . S
C4275 C4276 1.403 . S
C4276 C4275 1.403 . S
C4276 C4277 1.404 . S
C4276 C4279 1.539 . S
C4277 C4273 1.408 . S
C4277 C4276 1.404 . S
C4277 H4289 0.930 . S
C4278 C4274 1.524 . S
C4278 H4290 0.956 . S
C4278 H4291 0.961 . S
C4278 H4292 0.961 . S
C4279 C4276 1.539 . S
C4279 H4293 0.958 . S
C4279 H4294 0.961 . S
C4279 H4295 0.960 . S
H4280 C4264 0.931 . S
H4281 C4269 0.929 . S
H4282 C4270 0.960 . S
H4283 C4270 0.962 . S
H4284 C4270 0.960 . S
H4285 C4271 0.961 . S
H4286 C4271 0.961 . S
H4287 C4271 0.961 . S
H4288 C4272 0.931 . S
H4289 C4277 0.930 . S
H4290 C4278 0.956 . S
H4291 C4278 0.961 . S
H4292 C4278 0.961 . S
H4293 C4279 0.958 . S
H4294 C4279 0.961 . S
H4295 C4279 0.960 . S
C4296 C4297 1.391 . S
C4296 C4298 1.394 . S
C4296 H4312 0.931 . S
C4297 C4296 1.391 . S
C4297 C4301 1.376 . S
C4298 C4296 1.394 . S
C4298 C4299 1.369 . S
C4298 C4302 1.531 . S
C4299 C4298 1.369 . S
C4299 C4300 1.410 . S
C4299 C4307 1.503 . S
C4300 C4299 1.410 . S
C4300 C4301 1.392 . S
C4300 C4303 1.511 . S
C4301 C4297 1.376 . S
C4301 C4300 1.392 . S
C4301 H4313 0.929 . S
C4302 C4298 1.531 . S
C4302 H4314 0.960 . S
C4302 H4315 0.962 . S
C4302 H4316 0.960 . S
C4303 C4300 1.511 . S
C4303 H4317 0.961 . S
C4303 H4318 0.961 . S
C4303 H4319 0.961 . S
C4304 C4305 1.370 . S
C4304 C4306 1.363 . S
C4304 H4320 0.931 . S
C4305 C4304 1.370 . S
C4305 C4309 1.408 . S
C4306 C4304 1.363 . S
C4306 C4307 1.370 . S
C4306 C4310 1.524 . S
C4307 C4299 1.503 . S
C4307 C4306 1.370 . S
C4307 C4308 1.403 . S
C4308 C4307 1.403 . S
C4308 C4309 1.404 . S
C4308 C4311 1.539 . S
C4309 C4305 1.408 . S
C4309 C4308 1.404 . S
C4309 H4321 0.930 . S
C4310 C4306 1.524 . S
C4310 H4322 0.956 . S
C4310 H4323 0.961 . S
C4310 H4324 0.961 . S
C4311 C4308 1.539 . S
C4311 H4325 0.958 . S
C4311 H4326 0.961 . S
C4311 H4327 0.960 . S
H4312 C4296 0.931 . S
H4313 C4301 0.929 . S
H4314 C4302 0.960 . S
H4315 C4302 0.962 . S
H4316 C4302 0.960 . S
H4317 C4303 0.961 . S
H4318 C4303 0.961 . S
H4319 C4303 0.961 . S
H4320 C4304 0.931 . S
H4321 C4309 0.930 . S
H4322 C4310 0.956 . S
H4323 C4310 0.961 . S
H4324 C4310 0.961 . S
H4325 C4311 0.958 . S
H4326 C4311 0.961 . S
H4327 C4311 0.960 . S
C4328 C4329 1.391 . S
C4328 C4330 1.394 . S
C4328 H4344 0.931 . S
C4329 C4328 1.391 . S
C4329 C4333 1.376 . S
C4330 C4328 1.394 . S
C4330 C4331 1.369 . S
C4330 C4334 1.531 . S
C4331 C4330 1.369 . S
C4331 C4332 1.410 . S
C4331 C4339 1.503 . S
C4332 C4331 1.410 . S
C4332 C4333 1.392 . S
C4332 C4335 1.511 . S
C4333 C4329 1.376 . S
C4333 C4332 1.392 . S
C4333 H4345 0.929 . S
C4334 C4330 1.531 . S
C4334 H4346 0.960 . S
C4334 H4347 0.962 . S
C4334 H4348 0.960 . S
C4335 C4332 1.511 . S
C4335 H4349 0.961 . S
C4335 H4350 0.961 . S
C4335 H4351 0.961 . S
C4336 C4337 1.370 . S
C4336 C4338 1.363 . S
C4336 H4352 0.931 . S
C4337 C4336 1.370 . S
C4337 C4341 1.408 . S
C4338 C4336 1.363 . S
C4338 C4339 1.370 . S
C4338 C4342 1.524 . S
C4339 C4331 1.503 . S
C4339 C4338 1.370 . S
C4339 C4340 1.403 . S
C4340 C4339 1.403 . S
C4340 C4341 1.404 . S
C4340 C4343 1.539 . S
C4341 C4337 1.408 . S
C4341 C4340 1.404 . S
C4341 H4353 0.930 . S
C4342 C4338 1.524 . S
C4342 H4354 0.956 . S
C4342 H4355 0.961 . S
C4342 H4356 0.961 . S
C4343 C4340 1.539 . S
C4343 H4357 0.958 . S
C4343 H4358 0.961 . S
C4343 H4359 0.960 . S
H4344 C4328 0.931 . S
H4345 C4333 0.929 . S
H4346 C4334 0.960 . S
H4347 C4334 0.962 . S
H4348 C4334 0.960 . S
H4349 C4335 0.961 . S
H4350 C4335 0.961 . S
H4351 C4335 0.961 . S
H4352 C4336 0.931 . S
H4353 C4341 0.930 . S
H4354 C4342 0.956 . S
H4355 C4342 0.961 . S
H4356 C4342 0.961 . S
H4357 C4343 0.958 . S
H4358 C4343 0.961 . S
H4359 C4343 0.960 . S
C4360 C4361 1.391 . S
C4360 C4362 1.394 . S
C4360 H4376 0.931 . S
C4361 C4360 1.391 . S
C4361 C4365 1.376 . S
C4362 C4360 1.394 . S
C4362 C4363 1.369 . S
C4362 C4366 1.531 . S
C4363 C4362 1.369 . S
C4363 C4364 1.410 . S
C4363 C4371 1.503 . S
C4364 C4363 1.410 . S
C4364 C4365 1.392 . S
C4364 C4367 1.511 . S
C4365 C4361 1.376 . S
C4365 C4364 1.392 . S
C4365 H4377 0.929 . S
C4366 C4362 1.531 . S
C4366 H4378 0.960 . S
C4366 H4379 0.962 . S
C4366 H4380 0.960 . S
C4367 C4364 1.511 . S
C4367 H4381 0.961 . S
C4367 H4382 0.961 . S
C4367 H4383 0.961 . S
C4368 C4369 1.370 . S
C4368 C4370 1.363 . S
C4368 H4384 0.931 . S
C4369 C4368 1.370 . S
C4369 C4373 1.408 . S
C4370 C4368 1.363 . S
C4370 C4371 1.370 . S
C4370 C4374 1.524 . S
C4371 C4363 1.503 . S
C4371 C4370 1.370 . S
C4371 C4372 1.403 . S
C4372 C4371 1.403 . S
C4372 C4373 1.404 . S
C4372 C4375 1.539 . S
C4373 C4369 1.408 . S
C4373 C4372 1.404 . S
C4373 H4385 0.930 . S
C4374 C4370 1.524 . S
C4374 H4386 0.956 . S
C4374 H4387 0.961 . S
C4374 H4388 0.961 . S
C4375 C4372 1.539 . S
C4375 H4389 0.958 . S
C4375 H4390 0.961 . S
C4375 H4391 0.960 . S
H4376 C4360 0.931 . S
H4377 C4365 0.929 . S
H4378 C4366 0.960 . S
H4379 C4366 0.962 . S
H4380 C4366 0.960 . S
H4381 C4367 0.961 . S
H4382 C4367 0.961 . S
H4383 C4367 0.961 . S
H4384 C4368 0.931 . S
H4385 C4373 0.930 . S
H4386 C4374 0.956 . S
H4387 C4374 0.961 . S
H4388 C4374 0.961 . S
H4389 C4375 0.958 . S
H4390 C4375 0.961 . S
H4391 C4375 0.960 . S
C4392 C4393 1.391 . S
C4392 C4394 1.394 . S
C4392 H4408 0.931 . S
C4393 C4392 1.391 . S
C4393 C4397 1.376 . S
C4394 C4392 1.394 . S
C4394 C4395 1.369 . S
C4394 C4398 1.531 . S
C4395 C4394 1.369 . S
C4395 C4396 1.410 . S
C4395 C4403 1.503 . S
C4396 C4395 1.410 . S
C4396 C4397 1.392 . S
C4396 C4399 1.511 . S
C4397 C4393 1.376 . S
C4397 C4396 1.392 . S
C4397 H4409 0.929 . S
C4398 C4394 1.531 . S
C4398 H4410 0.960 . S
C4398 H4411 0.962 . S
C4398 H4412 0.960 . S
C4399 C4396 1.511 . S
C4399 H4413 0.961 . S
C4399 H4414 0.961 . S
C4399 H4415 0.961 . S
C4400 C4401 1.370 . S
C4400 C4402 1.363 . S
C4400 H4416 0.931 . S
C4401 C4400 1.370 . S
C4401 C4405 1.408 . S
C4402 C4400 1.363 . S
C4402 C4403 1.370 . S
C4402 C4406 1.524 . S
C4403 C4395 1.503 . S
C4403 C4402 1.370 . S
C4403 C4404 1.403 . S
C4404 C4403 1.403 . S
C4404 C4405 1.404 . S
C4404 C4407 1.539 . S
C4405 C4401 1.408 . S
C4405 C4404 1.404 . S
C4405 H4417 0.930 . S
C4406 C4402 1.524 . S
C4406 H4418 0.956 . S
C4406 H4419 0.961 . S
C4406 H4420 0.961 . S
C4407 C4404 1.539 . S
C4407 H4421 0.958 . S
C4407 H4422 0.961 . S
C4407 H4423 0.960 . S
H4408 C4392 0.931 . S
H4409 C4397 0.929 . S
H4410 C4398 0.960 . S
H4411 C4398 0.962 . S
H4412 C4398 0.960 . S
H4413 C4399 0.961 . S
H4414 C4399 0.961 . S
H4415 C4399 0.961 . S
H4416 C4400 0.931 . S
H4417 C4405 0.930 . S
H4418 C4406 0.956 . S
H4419 C4406 0.961 . S
H4420 C4406 0.961 . S
H4421 C4407 0.958 . S
H4422 C4407 0.961 . S
H4423 C4407 0.960 . S
C4424 C4425 1.391 . S
C4424 C4426 1.394 . S
C4424 H4440 0.931 . S
C4425 C4424 1.391 . S
C4425 C4429 1.376 . S
C4426 C4424 1.394 . S
C4426 C4427 1.369 . S
C4426 C4430 1.531 . S
C4427 C4426 1.369 . S
C4427 C4428 1.410 . S
C4427 C4435 1.503 . S
C4428 C4427 1.410 . S
C4428 C4429 1.392 . S
C4428 C4431 1.511 . S
C4429 C4425 1.376 . S
C4429 C4428 1.392 . S
C4429 H4441 0.929 . S
C4430 C4426 1.531 . S
C4430 H4442 0.960 . S
C4430 H4443 0.962 . S
C4430 H4444 0.960 . S
C4431 C4428 1.511 . S
C4431 H4445 0.961 . S
C4431 H4446 0.961 . S
C4431 H4447 0.961 . S
C4432 C4433 1.370 . S
C4432 C4434 1.363 . S
C4432 H4448 0.931 . S
C4433 C4432 1.370 . S
C4433 C4437 1.408 . S
C4434 C4432 1.363 . S
C4434 C4435 1.370 . S
C4434 C4438 1.524 . S
C4435 C4427 1.503 . S
C4435 C4434 1.370 . S
C4435 C4436 1.403 . S
C4436 C4435 1.403 . S
C4436 C4437 1.404 . S
C4436 C4439 1.539 . S
C4437 C4433 1.408 . S
C4437 C4436 1.404 . S
C4437 H4449 0.930 . S
C4438 C4434 1.524 . S
C4438 H4450 0.956 . S
C4438 H4451 0.961 . S
C4438 H4452 0.961 . S
C4439 C4436 1.539 . S
C4439 H4453 0.958 . S
C4439 H4454 0.961 . S
C4439 H4455 0.960 . S
H4440 C4424 0.931 . S
H4441 C4429 0.929 . S
H4442 C4430 0.960 . S
H4443 C4430 0.962 . S
H4444 C4430 0.960 . S
H4445 C4431 0.961 . S
H4446 C4431 0.961 . S
H4447 C4431 0.961 . S
H4448 C4432 0.931 . S
H4449 C4437 0.930 . S
H4450 C4438 0.956 . S
H4451 C4438 0.961 . S
H4452 C4438 0.961 . S
H4453 C4439 0.958 . S
H4454 C4439 0.961 . S
H4455 C4439 0.960 . S
C4456 C4457 1.391 . S
C4456 C4458 1.394 . S
C4456 H4472 0.931 . S
C4457 C4456 1.391 . S
C4457 C4461 1.376 . S
C4458 C4456 1.394 . S
C4458 C4459 1.369 . S
C4458 C4462 1.531 . S
C4459 C4458 1.369 . S
C4459 C4460 1.410 . S
C4459 C4467 1.503 . S
C4460 C4459 1.410 . S
C4460 C4461 1.392 . S
C4460 C4463 1.511 . S
C4461 C4457 1.376 . S
C4461 C4460 1.392 . S
C4461 H4473 0.929 . S
C4462 C4458 1.531 . S
C4462 H4474 0.960 . S
C4462 H4475 0.962 . S
C4462 H4476 0.960 . S
C4463 C4460 1.511 . S
C4463 H4477 0.961 . S
C4463 H4478 0.961 . S
C4463 H4479 0.961 . S
C4464 C4465 1.370 . S
C4464 C4466 1.363 . S
C4464 H4480 0.931 . S
C4465 C4464 1.370 . S
C4465 C4469 1.408 . S
C4466 C4464 1.363 . S
C4466 C4467 1.370 . S
C4466 C4470 1.524 . S
C4467 C4459 1.503 . S
C4467 C4466 1.370 . S
C4467 C4468 1.403 . S
C4468 C4467 1.403 . S
C4468 C4469 1.404 . S
C4468 C4471 1.539 . S
C4469 C4465 1.408 . S
C4469 C4468 1.404 . S
C4469 H4481 0.930 . S
C4470 C4466 1.524 . S
C4470 H4482 0.956 . S
C4470 H4483 0.961 . S
C4470 H4484 0.961 . S
C4471 C4468 1.539 . S
C4471 H4485 0.958 . S
C4471 H4486 0.961 . S
C4471 H4487 0.960 . S
H4472 C4456 0.931 . S
H4473 C4461 0.929 . S
H4474 C4462 0.960 . S
H4475 C4462 0.962 . S
H4476 C4462 0.960 . S
H4477 C4463 0.961 . S
H4478 C4463 0.961 . S
H4479 C4463 0.961 . S
H4480 C4464 0.931 . S
H4481 C4469 0.930 . S
H4482 C4470 0.956 . S
H4483 C4470 0.961 . S
H4484 C4470 0.961 . S
H4485 C4471 0.958 . S
H4486 C4471 0.961 . S
H4487 C4471 0.960 . S
C4488 C4489 1.391 . S
C4488 C4490 1.394 . S
C4488 H4504 0.931 . S
C4489 C4488 1.391 . S
C4489 C4493 1.376 . S
C4490 C4488 1.394 . S
C4490 C4491 1.369 . S
C4490 C4494 1.531 . S
C4491 C4490 1.369 . S
C4491 C4492 1.410 . S
C4491 C4499 1.503 . S
C4492 C4491 1.410 . S
C4492 C4493 1.392 . S
C4492 C4495 1.511 . S
C4493 C4489 1.376 . S
C4493 C4492 1.392 . S
C4493 H4505 0.929 . S
C4494 C4490 1.531 . S
C4494 H4506 0.960 . S
C4494 H4507 0.962 . S
C4494 H4508 0.960 . S
C4495 C4492 1.511 . S
C4495 H4509 0.961 . S
C4495 H4510 0.961 . S
C4495 H4511 0.961 . S
C4496 C4497 1.370 . S
C4496 C4498 1.363 . S
C4496 H4512 0.931 . S
C4497 C4496 1.370 . S
C4497 C4501 1.408 . S
C4498 C4496 1.363 . S
C4498 C4499 1.370 . S
C4498 C4502 1.524 . S
C4499 C4491 1.503 . S
C4499 C4498 1.370 . S
C4499 C4500 1.403 . S
C4500 C4499 1.403 . S
C4500 C4501 1.404 . S
C4500 C4503 1.539 . S
C4501 C4497 1.408 . S
C4501 C4500 1.404 . S
C4501 H4513 0.930 . S
C4502 C4498 1.524 . S
C4502 H4514 0.956 . S
C4502 H4515 0.961 . S
C4502 H4516 0.961 . S
C4503 C4500 1.539 . S
C4503 H4517 0.958 . S
C4503 H4518 0.961 . S
C4503 H4519 0.960 . S
H4504 C4488 0.931 . S
H4505 C4493 0.929 . S
H4506 C4494 0.960 . S
H4507 C4494 0.962 . S
H4508 C4494 0.960 . S
H4509 C4495 0.961 . S
H4510 C4495 0.961 . S
H4511 C4495 0.961 . S
H4512 C4496 0.931 . S
H4513 C4501 0.930 . S
H4514 C4502 0.956 . S
H4515 C4502 0.961 . S
H4516 C4502 0.961 . S
H4517 C4503 0.958 . S
H4518 C4503 0.961 . S
H4519 C4503 0.960 . S
C4520 C4521 1.391 . S
C4520 C4522 1.394 . S
C4520 H4536 0.931 . S
C4521 C4520 1.391 . S
C4521 C4525 1.376 . S
C4522 C4520 1.394 . S
C4522 C4523 1.369 . S
C4522 C4526 1.531 . S
C4523 C4522 1.369 . S
C4523 C4524 1.410 . S
C4523 C4531 1.503 . S
C4524 C4523 1.410 . S
C4524 C4525 1.392 . S
C4524 C4527 1.511 . S
C4525 C4521 1.376 . S
C4525 C4524 1.392 . S
C4525 H4537 0.929 . S
C4526 C4522 1.531 . S
C4526 H4538 0.960 . S
C4526 H4539 0.962 . S
C4526 H4540 0.960 . S
C4527 C4524 1.511 . S
C4527 H4541 0.961 . S
C4527 H4542 0.961 . S
C4527 H4543 0.961 . S
C4528 C4529 1.370 . S
C4528 C4530 1.363 . S
C4528 H4544 0.931 . S
C4529 C4528 1.370 . S
C4529 C4533 1.408 . S
C4530 C4528 1.363 . S
C4530 C4531 1.370 . S
C4530 C4534 1.524 . S
C4531 C4523 1.503 . S
C4531 C4530 1.370 . S
C4531 C4532 1.403 . S
C4532 C4531 1.403 . S
C4532 C4533 1.404 . S
C4532 C4535 1.539 . S
C4533 C4529 1.408 . S
C4533 C4532 1.404 . S
C4533 H4545 0.930 . S
C4534 C4530 1.524 . S
C4534 H4546 0.956 . S
C4534 H4547 0.961 . S
C4534 H4548 0.961 . S
C4535 C4532 1.539 . S
C4535 H4549 0.958 . S
C4535 H4550 0.961 . S
C4535 H4551 0.960 . S
H4536 C4520 0.931 . S
H4537 C4525 0.929 . S
H4538 C4526 0.960 . S
H4539 C4526 0.962 . S
H4540 C4526 0.960 . S
H4541 C4527 0.961 . S
H4542 C4527 0.961 . S
H4543 C4527 0.961 . S
H4544 C4528 0.931 . S
H4545 C4533 0.930 . S
H4546 C4534 0.956 . S
H4547 C4534 0.961 . S
H4548 C4534 0.961 . S
H4549 C4535 0.958 . S
H4550 C4535 0.961 . S
H4551 C4535 0.960 . S
C4552 C4553 1.391 . S
C4552 C4554 1.394 . S
C4552 H4568 0.931 . S
C4553 C4552 1.391 . S
C4553 C4557 1.376 . S
C4554 C4552 1.394 . S
C4554 C4555 1.369 . S
C4554 C4558 1.531 . S
C4555 C4554 1.369 . S
C4555 C4556 1.410 . S
C4555 C4563 1.503 . S
C4556 C4555 1.410 . S
C4556 C4557 1.392 . S
C4556 C4559 1.511 . S
C4557 C4553 1.376 . S
C4557 C4556 1.392 . S
C4557 H4569 0.929 . S
C4558 C4554 1.531 . S
C4558 H4570 0.960 . S
C4558 H4571 0.962 . S
C4558 H4572 0.960 . S
C4559 C4556 1.511 . S
C4559 H4573 0.961 . S
C4559 H4574 0.961 . S
C4559 H4575 0.961 . S
C4560 C4561 1.370 . S
C4560 C4562 1.363 . S
C4560 H4576 0.931 . S
C4561 C4560 1.370 . S
C4561 C4565 1.408 . S
C4562 C4560 1.363 . S
C4562 C4563 1.370 . S
C4562 C4566 1.524 . S
C4563 C4555 1.503 . S
C4563 C4562 1.370 . S
C4563 C4564 1.403 . S
C4564 C4563 1.403 . S
C4564 C4565 1.404 . S
C4564 C4567 1.539 . S
C4565 C4561 1.408 . S
C4565 C4564 1.404 . S
C4565 H4577 0.930 . S
C4566 C4562 1.524 . S
C4566 H4578 0.956 . S
C4566 H4579 0.961 . S
C4566 H4580 0.961 . S
C4567 C4564 1.539 . S
C4567 H4581 0.958 . S
C4567 H4582 0.961 . S
C4567 H4583 0.960 . S
H4568 C4552 0.931 . S
H4569 C4557 0.929 . S
H4570 C4558 0.960 . S
H4571 C4558 0.962 . S
H4572 C4558 0.960 . S
H4573 C4559 0.961 . S
H4574 C4559 0.961 . S
H4575 C4559 0.961 . S
H4576 C4560 0.931 . S
H4577 C4565 0.930 . S
H4578 C4566 0.956 . S
H4579 C4566 0.961 . S
H4580 C4566 0.961 . S
H4581 C4567 0.958 . S
H4582 C4567 0.961 . S
H4583 C4567 0.960 . S
C4584 C4585 1.391 . S
C4584 C4586 1.394 . S
C4584 H4600 0.931 . S
C4585 C4584 1.391 . S
C4585 C4589 1.376 . S
C4586 C4584 1.394 . S
C4586 C4587 1.369 . S
C4586 C4590 1.531 . S
C4587 C4586 1.369 . S
C4587 C4588 1.410 . S
C4587 C4595 1.503 . S
C4588 C4587 1.410 . S
C4588 C4589 1.392 . S
C4588 C4591 1.511 . S
C4589 C4585 1.376 . S
C4589 C4588 1.392 . S
C4589 H4601 0.929 . S
C4590 C4586 1.531 . S
C4590 H4602 0.960 . S
C4590 H4603 0.962 . S
C4590 H4604 0.960 . S
C4591 C4588 1.511 . S
C4591 H4605 0.961 . S
C4591 H4606 0.961 . S
C4591 H4607 0.961 . S
C4592 C4593 1.370 . S
C4592 C4594 1.363 . S
C4592 H4608 0.931 . S
C4593 C4592 1.370 . S
C4593 C4597 1.408 . S
C4594 C4592 1.363 . S
C4594 C4595 1.370 . S
C4594 C4598 1.524 . S
C4595 C4587 1.503 . S
C4595 C4594 1.370 . S
C4595 C4596 1.403 . S
C4596 C4595 1.403 . S
C4596 C4597 1.404 . S
C4596 C4599 1.539 . S
C4597 C4593 1.408 . S
C4597 C4596 1.404 . S
C4597 H4609 0.930 . S
C4598 C4594 1.524 . S
C4598 H4610 0.956 . S
C4598 H4611 0.961 . S
C4598 H4612 0.961 . S
C4599 C4596 1.539 . S
C4599 H4613 0.958 . S
C4599 H4614 0.961 . S
C4599 H4615 0.960 . S
H4600 C4584 0.931 . S
H4601 C4589 0.929 . S
H4602 C4590 0.960 . S
H4603 C4590 0.962 . S
H4604 C4590 0.960 . S
H4605 C4591 0.961 . S
H4606 C4591 0.961 . S
H4607 C4591 0.961 . S
H4608 C4592 0.931 . S
H4609 C4597 0.930 . S
H4610 C4598 0.956 . S
H4611 C4598 0.961 . S
H4612 C4598 0.961 . S
H4613 C4599 0.958 . S
H4614 C4599 0.961 . S
H4615 C4599 0.960 . S
C4616 C4617 1.391 . S
C4616 C4618 1.394 . S
C4616 H4632 0.931 . S
C4617 C4616 1.391 . S
C4617 C4621 1.376 . S
C4618 C4616 1.394 . S
C4618 C4619 1.369 . S
C4618 C4622 1.531 . S
C4619 C4618 1.369 . S
C4619 C4620 1.410 . S
C4619 C4627 1.503 . S
C4620 C4619 1.410 . S
C4620 C4621 1.392 . S
C4620 C4623 1.511 . S
C4621 C4617 1.376 . S
C4621 C4620 1.392 . S
C4621 H4633 0.929 . S
C4622 C4618 1.531 . S
C4622 H4634 0.960 . S
C4622 H4635 0.962 . S
C4622 H4636 0.960 . S
C4623 C4620 1.511 . S
C4623 H4637 0.961 . S
C4623 H4638 0.961 . S
C4623 H4639 0.961 . S
C4624 C4625 1.370 . S
C4624 C4626 1.363 . S
C4624 H4640 0.931 . S
C4625 C4624 1.370 . S
C4625 C4629 1.408 . S
C4626 C4624 1.363 . S
C4626 C4627 1.370 . S
C4626 C4630 1.524 . S
C4627 C4619 1.503 . S
C4627 C4626 1.370 . S
C4627 C4628 1.403 . S
C4628 C4627 1.403 . S
C4628 C4629 1.404 . S
C4628 C4631 1.539 . S
C4629 C4625 1.408 . S
C4629 C4628 1.404 . S
C4629 H4641 0.930 . S
C4630 C4626 1.524 . S
C4630 H4642 0.956 . S
C4630 H4643 0.961 . S
C4630 H4644 0.961 . S
C4631 C4628 1.539 . S
C4631 H4645 0.958 . S
C4631 H4646 0.961 . S
C4631 H4647 0.960 . S
H4632 C4616 0.931 . S
H4633 C4621 0.929 . S
H4634 C4622 0.960 . S
H4635 C4622 0.962 . S
H4636 C4622 0.960 . S
H4637 C4623 0.961 . S
H4638 C4623 0.961 . S
H4639 C4623 0.961 . S
H4640 C4624 0.931 . S
H4641 C4629 0.930 . S
H4642 C4630 0.956 . S
H4643 C4630 0.961 . S
H4644 C4630 0.961 . S
H4645 C4631 0.958 . S
H4646 C4631 0.961 . S
H4647 C4631 0.960 . S
C4648 C4649 1.391 . S
C4648 C4650 1.394 . S
C4648 H4664 0.931 . S
C4649 C4648 1.391 . S
C4649 C4653 1.376 . S
C4650 C4648 1.394 . S
C4650 C4651 1.369 . S
C4650 C4654 1.531 . S
C4651 C4650 1.369 . S
C4651 C4652 1.410 . S
C4651 C4659 1.503 . S
C4652 C4651 1.410 . S
C4652 C4653 1.392 . S
C4652 C4655 1.511 . S
C4653 C4649 1.376 . S
C4653 C4652 1.392 . S
C4653 H4665 0.929 . S
C4654 C4650 1.531 . S
C4654 H4666 0.960 . S
C4654 H4667 0.962 . S
C4654 H4668 0.960 . S
C4655 C4652 1.511 . S
C4655 H4669 0.961 . S
C4655 H4670 0.961 . S
C4655 H4671 0.961 . S
C4656 C4657 1.370 . S
C4656 C4658 1.363 . S
C4656 H4672 0.931 . S
C4657 C4656 1.370 . S
C4657 C4661 1.408 . S
C4658 C4656 1.363 . S
C4658 C4659 1.370 . S
C4658 C4662 1.524 . S
C4659 C4651 1.503 . S
C4659 C4658 1.370 . S
C4659 C4660 1.403 . S
C4660 C4659 1.403 . S
C4660 C4661 1.404 . S
C4660 C4663 1.539 . S
C4661 C4657 1.408 . S
C4661 C4660 1.404 . S
C4661 H4673 0.930 . S
C4662 C4658 1.524 . S
C4662 H4674 0.956 . S
C4662 H4675 0.961 . S
C4662 H4676 0.961 . S
C4663 C4660 1.539 . S
C4663 H4677 0.958 . S
C4663 H4678 0.961 . S
C4663 H4679 0.960 . S
H4664 C4648 0.931 . S
H4665 C4653 0.929 . S
H4666 C4654 0.960 . S
H4667 C4654 0.962 . S
H4668 C4654 0.960 . S
H4669 C4655 0.961 . S
H4670 C4655 0.961 . S
H4671 C4655 0.961 . S
H4672 C4656 0.931 . S
H4673 C4661 0.930 . S
H4674 C4662 0.956 . S
H4675 C4662 0.961 . S
H4676 C4662 0.961 . S
H4677 C4663 0.958 . S
H4678 C4663 0.961 . S
H4679 C4663 0.960 . S
C4680 C4681 1.391 . S
C4680 C4682 1.394 . S
C4680 H4696 0.931 . S
C4681 C4680 1.391 . S
C4681 C4685 1.376 . S
C4682 C4680 1.394 . S
C4682 C4683 1.369 . S
C4682 C4686 1.531 . S
C4683 C4682 1.369 . S
C4683 C4684 1.410 . S
C4683 C4691 1.503 . S
C4684 C4683 1.410 . S
C4684 C4685 1.392 . S
C4684 C4687 1.511 . S
C4685 C4681 1.376 . S
C4685 C4684 1.392 . S
C4685 H4697 0.929 . S
C4686 C4682 1.531 . S
C4686 H4698 0.960 . S
C4686 H4699 0.962 . S
C4686 H4700 0.960 . S
C4687 C4684 1.511 . S
C4687 H4701 0.961 . S
C4687 H4702 0.961 . S
C4687 H4703 0.961 . S
C4688 C4689 1.370 . S
C4688 C4690 1.363 . S
C4688 H4704 0.931 . S
C4689 C4688 1.370 . S
C4689 C4693 1.408 . S
C4690 C4688 1.363 . S
C4690 C4691 1.370 . S
C4690 C4694 1.524 . S
C4691 C4683 1.503 . S
C4691 C4690 1.370 . S
C4691 C4692 1.403 . S
C4692 C4691 1.403 . S
C4692 C4693 1.404 . S
C4692 C4695 1.539 . S
C4693 C4689 1.408 . S
C4693 C4692 1.404 . S
C4693 H4705 0.930 . S
C4694 C4690 1.524 . S
C4694 H4706 0.956 . S
C4694 H4707 0.961 . S
C4694 H4708 0.961 . S
C4695 C4692 1.539 . S
C4695 H4709 0.958 . S
C4695 H4710 0.961 . S
C4695 H4711 0.960 . S
H4696 C4680 0.931 . S
H4697 C4685 0.929 . S
H4698 C4686 0.960 . S
H4699 C4686 0.962 . S
H4700 C4686 0.960 . S
H4701 C4687 0.961 . S
H4702 C4687 0.961 . S
H4703 C4687 0.961 . S
H4704 C4688 0.931 . S
H4705 C4693 0.930 . S
H4706 C4694 0.956 . S
H4707 C4694 0.961 . S
H4708 C4694 0.961 . S
H4709 C4695 0.958 . S
H4710 C4695 0.961 . S
H4711 C4695 0.960 . S
C4712 C4713 1.391 . S
C4712 C4714 1.394 . S
C4712 H4728 0.931 . S
C4713 C4712 1.391 . S
C4713 C4717 1.376 . S
C4714 C4712 1.394 . S
C4714 C4715 1.369 . S
C4714 C4718 1.531 . S
C4715 C4714 1.369 . S
C4715 C4716 1.410 . S
C4715 C4723 1.503 . S
C4716 C4715 1.410 . S
C4716 C4717 1.392 . S
C4716 C4719 1.511 . S
C4717 C4713 1.376 . S
C4717 C4716 1.392 . S
C4717 H4729 0.929 . S
C4718 C4714 1.531 . S
C4718 H4730 0.960 . S
C4718 H4731 0.962 . S
C4718 H4732 0.960 . S
C4719 C4716 1.511 . S
C4719 H4733 0.961 . S
C4719 H4734 0.961 . S
C4719 H4735 0.961 . S
C4720 C4721 1.370 . S
C4720 C4722 1.363 . S
C4720 H4736 0.931 . S
C4721 C4720 1.370 . S
C4721 C4725 1.408 . S
C4722 C4720 1.363 . S
C4722 C4723 1.370 . S
C4722 C4726 1.524 . S
C4723 C4715 1.503 . S
C4723 C4722 1.370 . S
C4723 C4724 1.403 . S
C4724 C4723 1.403 . S
C4724 C4725 1.404 . S
C4724 C4727 1.539 . S
C4725 C4721 1.408 . S
C4725 C4724 1.404 . S
C4725 H4737 0.930 . S
C4726 C4722 1.524 . S
C4726 H4738 0.956 . S
C4726 H4739 0.961 . S
C4726 H4740 0.961 . S
C4727 C4724 1.539 . S
C4727 H4741 0.958 . S
C4727 H4742 0.961 . S
C4727 H4743 0.960 . S
H4728 C4712 0.931 . S
H4729 C4717 0.929 . S
H4730 C4718 0.960 . S
H4731 C4718 0.962 . S
H4732 C4718 0.960 . S
H4733 C4719 0.961 . S
H4734 C4719 0.961 . S
H4735 C4719 0.961 . S
H4736 C4720 0.931 . S
H4737 C4725 0.930 . S
H4738 C4726 0.956 . S
H4739 C4726 0.961 . S
H4740 C4726 0.961 . S
H4741 C4727 0.958 . S
H4742 C4727 0.961 . S
H4743 C4727 0.960 . S
C4744 C4745 1.391 . S
C4744 C4746 1.394 . S
C4744 H4760 0.931 . S
C4745 C4744 1.391 . S
C4745 C4749 1.376 . S
C4746 C4744 1.394 . S
C4746 C4747 1.369 . S
C4746 C4750 1.531 . S
C4747 C4746 1.369 . S
C4747 C4748 1.410 . S
C4747 C4755 1.503 . S
C4748 C4747 1.410 . S
C4748 C4749 1.392 . S
C4748 C4751 1.511 . S
C4749 C4745 1.376 . S
C4749 C4748 1.392 . S
C4749 H4761 0.929 . S
C4750 C4746 1.531 . S
C4750 H4762 0.960 . S
C4750 H4763 0.962 . S
C4750 H4764 0.960 . S
C4751 C4748 1.511 . S
C4751 H4765 0.961 . S
C4751 H4766 0.961 . S
C4751 H4767 0.961 . S
C4752 C4753 1.370 . S
C4752 C4754 1.363 . S
C4752 H4768 0.931 . S
C4753 C4752 1.370 . S
C4753 C4757 1.408 . S
C4754 C4752 1.363 . S
C4754 C4755 1.370 . S
C4754 C4758 1.524 . S
C4755 C4747 1.503 . S
C4755 C4754 1.370 . S
C4755 C4756 1.403 . S
C4756 C4755 1.403 . S
C4756 C4757 1.404 . S
C4756 C4759 1.539 . S
C4757 C4753 1.408 . S
C4757 C4756 1.404 . S
C4757 H4769 0.930 . S
C4758 C4754 1.524 . S
C4758 H4770 0.956 . S
C4758 H4771 0.961 . S
C4758 H4772 0.961 . S
C4759 C4756 1.539 . S
C4759 H4773 0.958 . S
C4759 H4774 0.961 . S
C4759 H4775 0.960 . S
H4760 C4744 0.931 . S
H4761 C4749 0.929 . S
H4762 C4750 0.960 . S
H4763 C4750 0.962 . S
H4764 C4750 0.960 . S
H4765 C4751 0.961 . S
H4766 C4751 0.961 . S
H4767 C4751 0.961 . S
H4768 C4752 0.931 . S
H4769 C4757 0.930 . S
H4770 C4758 0.956 . S
H4771 C4758 0.961 . S
H4772 C4758 0.961 . S
H4773 C4759 0.958 . S
H4774 C4759 0.961 . S
H4775 C4759 0.960 . S
C4776 C4777 1.391 . S
C4776 C4778 1.394 . S
C4776 H4792 0.931 . S
C4777 C4776 1.391 . S
C4777 C4781 1.376 . S
C4778 C4776 1.394 . S
C4778 C4779 1.369 . S
C4778 C4782 1.531 . S
C4779 C4778 1.369 . S
C4779 C4780 1.410 . S
C4779 C4787 1.503 . S
C4780 C4779 1.410 . S
C4780 C4781 1.392 . S
C4780 C4783 1.511 . S
C4781 C4777 1.376 . S
C4781 C4780 1.392 . S
C4781 H4793 0.929 . S
C4782 C4778 1.531 . S
C4782 H4794 0.960 . S
C4782 H4795 0.962 . S
C4782 H4796 0.960 . S
C4783 C4780 1.511 . S
C4783 H4797 0.961 . S
C4783 H4798 0.961 . S
C4783 H4799 0.961 . S
C4784 C4785 1.370 . S
C4784 C4786 1.363 . S
C4784 H4800 0.931 . S
C4785 C4784 1.370 . S
C4785 C4789 1.408 . S
C4786 C4784 1.363 . S
C4786 C4787 1.370 . S
C4786 C4790 1.524 . S
C4787 C4779 1.503 . S
C4787 C4786 1.370 . S
C4787 C4788 1.403 . S
C4788 C4787 1.403 . S
C4788 C4789 1.404 . S
C4788 C4791 1.539 . S
C4789 C4785 1.408 . S
C4789 C4788 1.404 . S
C4789 H4801 0.930 . S
C4790 C4786 1.524 . S
C4790 H4802 0.956 . S
C4790 H4803 0.961 . S
C4790 H4804 0.961 . S
C4791 C4788 1.539 . S
C4791 H4805 0.958 . S
C4791 H4806 0.961 . S
C4791 H4807 0.960 . S
H4792 C4776 0.931 . S
H4793 C4781 0.929 . S
H4794 C4782 0.960 . S
H4795 C4782 0.962 . S
H4796 C4782 0.960 . S
H4797 C4783 0.961 . S
H4798 C4783 0.961 . S
H4799 C4783 0.961 . S
H4800 C4784 0.931 . S
H4801 C4789 0.930 . S
H4802 C4790 0.956 . S
H4803 C4790 0.961 . S
H4804 C4790 0.961 . S
H4805 C4791 0.958 . S
H4806 C4791 0.961 . S
H4807 C4791 0.960 . S
C4808 C4809 1.391 . S
C4808 C4810 1.394 . S
C4808 H4824 0.931 . S
C4809 C4808 1.391 . S
C4809 C4813 1.376 . S
C4810 C4808 1.394 . S
C4810 C4811 1.369 . S
C4810 C4814 1.531 . S
C4811 C4810 1.369 . S
C4811 C4812 1.410 . S
C4811 C4819 1.503 . S
C4812 C4811 1.410 . S
C4812 C4813 1.392 . S
C4812 C4815 1.511 . S
C4813 C4809 1.376 . S
C4813 C4812 1.392 . S
C4813 H4825 0.929 . S
C4814 C4810 1.531 . S
C4814 H4826 0.960 . S
C4814 H4827 0.962 . S
C4814 H4828 0.960 . S
C4815 C4812 1.511 . S
C4815 H4829 0.961 . S
C4815 H4830 0.961 . S
C4815 H4831 0.961 . S
C4816 C4817 1.370 . S
C4816 C4818 1.363 . S
C4816 H4832 0.931 . S
C4817 C4816 1.370 . S
C4817 C4821 1.408 . S
C4818 C4816 1.363 . S
C4818 C4819 1.370 . S
C4818 C4822 1.524 . S
C4819 C4811 1.503 . S
C4819 C4818 1.370 . S
C4819 C4820 1.403 . S
C4820 C4819 1.403 . S
C4820 C4821 1.404 . S
C4820 C4823 1.539 . S
C4821 C4817 1.408 . S
C4821 C4820 1.404 . S
C4821 H4833 0.930 . S
C4822 C4818 1.524 . S
C4822 H4834 0.956 . S
C4822 H4835 0.961 . S
C4822 H4836 0.961 . S
C4823 C4820 1.539 . S
C4823 H4837 0.958 . S
C4823 H4838 0.961 . S
C4823 H4839 0.960 . S
H4824 C4808 0.931 . S
H4825 C4813 0.929 . S
H4826 C4814 0.960 . S
H4827 C4814 0.962 . S
H4828 C4814 0.960 . S
H4829 C4815 0.961 . S
H4830 C4815 0.961 . S
H4831 C4815 0.961 . S
H4832 C4816 0.931 . S
H4833 C4821 0.930 . S
H4834 C4822 0.956 . S
H4835 C4822 0.961 . S
H4836 C4822 0.961 . S
H4837 C4823 0.958 . S
H4838 C4823 0.961 . S
H4839 C4823 0.960 . S
C4840 C4841 1.391 . S
C4840 C4842 1.394 . S
C4840 H4856 0.931 . S
C4841 C4840 1.391 . S
C4841 C4845 1.376 . S
C4842 C4840 1.394 . S
C4842 C4843 1.369 . S
C4842 C4846 1.531 . S
C4843 C4842 1.369 . S
C4843 C4844 1.410 . S
C4843 C4851 1.503 . S
C4844 C4843 1.410 . S
C4844 C4845 1.392 . S
C4844 C4847 1.511 . S
C4845 C4841 1.376 . S
C4845 C4844 1.392 . S
C4845 H4857 0.929 . S
C4846 C4842 1.531 . S
C4846 H4858 0.960 . S
C4846 H4859 0.962 . S
C4846 H4860 0.960 . S
C4847 C4844 1.511 . S
C4847 H4861 0.961 . S
C4847 H4862 0.961 . S
C4847 H4863 0.961 . S
C4848 C4849 1.370 . S
C4848 C4850 1.363 . S
C4848 H4864 0.931 . S
C4849 C4848 1.370 . S
C4849 C4853 1.408 . S
C4850 C4848 1.363 . S
C4850 C4851 1.370 . S
C4850 C4854 1.524 . S
C4851 C4843 1.503 . S
C4851 C4850 1.370 . S
C4851 C4852 1.403 . S
C4852 C4851 1.403 . S
C4852 C4853 1.404 . S
C4852 C4855 1.539 . S
C4853 C4849 1.408 . S
C4853 C4852 1.404 . S
C4853 H4865 0.930 . S
C4854 C4850 1.524 . S
C4854 H4866 0.956 . S
C4854 H4867 0.961 . S
C4854 H4868 0.961 . S
C4855 C4852 1.539 . S
C4855 H4869 0.958 . S
C4855 H4870 0.961 . S
C4855 H4871 0.960 . S
H4856 C4840 0.931 . S
H4857 C4845 0.929 . S
H4858 C4846 0.960 . S
H4859 C4846 0.962 . S
H4860 C4846 0.960 . S
H4861 C4847 0.961 . S
H4862 C4847 0.961 . S
H4863 C4847 0.961 . S
H4864 C4848 0.931 . S
H4865 C4853 0.930 . S
H4866 C4854 0.956 . S
H4867 C4854 0.961 . S
H4868 C4854 0.961 . S
H4869 C4855 0.958 . S
H4870 C4855 0.961 . S
H4871 C4855 0.960 . S
C1809 N1260 1.480 . S
C1801 C1 1.520 . S
C1841 C1287 1.593 . S
C1833 C60 1.596 . S
C1865 C79 1.504 . S
C1873 C1301 1.506 . S
C1905 N1319 1.435 . S
C1897 C118 1.466 . S
C1929 C177 1.573 . S
C1937 C1324 1.582 . S
C1961 C196 1.491 . S
C1969 C1264 1.495 . S
C1993 C250 1.411 . S
C2001 N1283 1.360 . S
C2033 N1296 1.481 . S
C2025 C274 1.507 . S
C2065 N1342 1.408 . S
C2057 C16 1.459 . S
C2089 C55 1.542 . S
C2097 N1365 1.521 . S
C2121 C99 1.563 . S
C2129 N1388 1.536 . S
C2161 N1421 1.407 . S
C2153 C133 1.438 . S
C2185 C157 1.559 . S
C2193 C1448 1.558 . S
C2225 C1471 1.555 . S
C2217 C211 1.561 . S
C2249 C255 1.444 . S
C2257 C1494 1.452 . S
C2289 C1508 1.450 . S
C2281 C294 1.433 . S
C2313 C21 1.453 . S
C2321 C1425 1.440 . S
C2345 C172 1.504 . S
C2353 N1467 1.471 . S
C2385 N1490 1.440 . S
C2377 C216 1.468 . S
C2409 C235 1.449 . S
C2417 N1503 1.431 . S
C2449 N1444 1.440 . S
C2441 C289 1.461 . S
C2481 C1370 1.663 . S
C2473 C94 1.657 . S
C2505 C138 1.474 . S
C2513 C1393 1.462 . S
C2545 C1347 1.607 . S
C2537 C40 1.607 . S
C2577 C1540 1.474 . S
C2569 C313 1.483 . S
C2601 C372 1.613 . S
C2609 C1554 1.609 . S
C2633 C391 1.508 . S
C2641 N1582 1.450 . S
C2673 N1595 1.422 . S
C2665 C430 1.456 . S
C2697 C489 1.588 . S
C2705 C1600 1.593 . S
C2729 C508 1.480 . S
C2737 N1536 1.460 . S
C2761 C562 1.493 . S
C2769 N1549 1.476 . S
C2793 C586 1.472 . S
C2801 C1586 1.461 . S
C2833 N1434 1.433 . S
C2825 C328 1.452 . S
C2857 C367 1.536 . S
C2865 N1618 1.488 . S
C2897 N1480 1.435 . S
C2889 C411 1.464 . S
C2921 C445 1.476 . S
C2929 C1655 1.486 . S
C2953 C469 1.589 . S
C2961 C1356 1.594 . S
C2993 C1669 1.585 . S
C2985 C523 1.588 . S
C3017 C567 1.496 . S
C3025 C1402 1.494 . S
C3057 N1687 1.394 . S
C3049 C606 1.442 . S
C3081 C333 1.466 . S
C3089 N1651 1.432 . S
C3121 N1664 1.505 . S
C3113 C484 1.539 . S
C3145 C528 1.468 . S
C3153 N1398 1.430 . S
C3185 C1692 1.412 . S
C3177 C547 1.415 . S
C3209 C601 1.442 . S
C3217 N1352 1.408 . S
C3241 C406 1.556 . S
C3249 C1623 1.564 . S
C3273 C450 1.510 . S
C3281 C1485 1.513 . S
C3305 C352 1.616 . S
C3313 C1439 1.611 . S
C3337 C625 1.538 . S
C3345 C1577 1.547 . S
C3377 C1609 1.549 . S
C3369 C684 1.545 . S
C3401 C703 1.474 . S
C3409 N1526 1.427 . S
C3433 C742 1.437 . S
C3441 N1559 1.391 . S
C3465 C801 1.585 . S
C3473 C1563 1.584 . S
C3497 C820 1.545 . S
C3505 N1572 1.518 . S
C3537 N1605 1.357 . S
C3529 C874 1.379 . S
C3561 C898 1.524 . S
C3569 C1531 1.520 . S
C3601 N1720 1.442 . S
C3593 C640 1.484 . S
C3625 C679 1.482 . S
C3633 N1457 1.457 . S
C3665 N1743 1.374 . S
C3657 C723 1.420 . S
C3689 C757 1.454 . S
C3697 N1513 1.433 . S
C3721 C781 1.568 . S
C3729 C1761 1.570 . S
C3753 C835 1.644 . S
C3761 C1379 1.650 . S
C3793 N1779 1.345 . S
C3785 C879 1.391 . S
C3817 C918 1.481 . S
C3825 C1416 1.497 . S
C3857 C1517 1.491 . S
C3849 C645 1.488 . S
C3889 N1375 1.514 . S
C3881 C796 1.542 . S
C3913 C840 1.566 . S
C3921 C1784 1.565 . S
C3945 C859 1.382 . S
C3953 N1411 1.335 . S
C3985 N1756 1.490 . S
C3977 C913 1.509 . S
C4017 C1462 1.564 . S
C4009 C718 1.552 . S
C4049 C1747 1.509 . S
C4041 C762 1.514 . S
C4081 C1724 1.576 . S
C4073 C664 1.580 . S
C4105 C937 1.425 . S
C4113 N1306 1.399 . S
C4137 C996 1.566 . S
C4145 C1333 1.558 . S
C4177 C1255 1.544 . S
C4169 C1015 1.535 . S
C4209 N1273 1.359 . S
C4201 C1054 1.402 . S
C4241 C1278 1.592 . S
C4233 C1113 1.587 . S
C4273 C1310 1.503 . S
C4265 C1132 1.513 . S
C4305 N1329 1.455 . S
C4297 C1186 1.509 . S
C4329 C1210 1.538 . S
C4337 N1250 1.492 . S
C4361 C952 1.399 . S
C4369 N1766 1.347 . S
C4401 N1674 1.483 . S
C4393 C991 1.507 . S
C4433 C1793 1.579 . S
C4425 C1035 1.580 . S
C4465 C1701 1.355 . S
C4457 C1069 1.368 . S
C4489 C1093 1.596 . S
C4497 C1715 1.592 . S
C4529 C1632 1.571 . S
C4521 C1147 1.581 . S
C4561 C1738 1.591 . S
C4553 C1191 1.584 . S
C4585 C1230 1.495 . S
C4593 N1641 1.439 . S
C4625 N1697 1.372 . S
C4617 C957 1.389 . S
C4657 N1628 1.485 . S
C4649 C1108 1.505 . S
C4689 N1733 1.398 . S
C4681 C1152 1.419 . S
C4713 C1171 1.484 . S
C4721 C1646 1.484 . S
C4745 C1225 1.457 . S
C4753 N1710 1.433 . S
C4777 C1030 1.659 . S
C4785 C1678 1.660 . S
C4809 C1074 1.396 . S
C4817 N1789 1.373 . S
C4849 C1770 1.550 . S
C4841 C976 1.550 . S
