# Generated by pormake.
# Topology zzz, (3,6)-cn, num edge types: 1
# Building blocks:
#     Node 0, Type 0, BuildingBlock: ESEHIV_clean_linker_0, # of connection points: 3
#     Node 1, Type 0, BuildingBlock: ESEHIV_clean_linker_0, # of connection points: 3
#     Node 2, Type 0, BuildingBlock: ESEHIV_clean_linker_0, # of connection points: 3
#     Node 3, Type 0, BuildingBlock: ESEHIV_clean_linker_0, # of connection points: 3
#     Node 4, Type 0, BuildingBlock: ESEHIV_clean_linker_0, # of connection points: 3
#     Node 5, Type 0, BuildingBlock: ESEHIV_clean_linker_0, # of connection points: 3
#     Node 6, Type 0, BuildingBlock: ESEHIV_clean_linker_0, # of connection points: 3
#     Node 7, Type 0, BuildingBlock: ESEHIV_clean_linker_0, # of connection points: 3
#     Node 8, Type 1, BuildingBlock: JUFBIX_clean_sbu_0, # of connection points: 6
#     Node 9, Type 1, BuildingBlock: JUFBIX_clean_sbu_0, # of connection points: 6
#     Node 10, Type 1, BuildingBlock: JUFBIX_clean_sbu_0, # of connection points: 6
#     Node 11, Type 1, BuildingBlock: JUFBIX_clean_sbu_0, # of connection points: 6
#     Edge 12, Type (0, 1), BuildingBlock: TEMPAE_clean_linker_10, # of connection points: 2
#     Edge 13, Type (0, 1), BuildingBlock: TEMPAE_clean_linker_10, # of connection points: 2
#     Edge 14, Type (0, 1), BuildingBlock: TEMPAE_clean_linker_10, # of connection points: 2
#     Edge 15, Type (0, 1), BuildingBlock: TEMPAE_clean_linker_10, # of connection points: 2
#     Edge 16, Type (0, 1), BuildingBlock: TEMPAE_clean_linker_10, # of connection points: 2
#     Edge 17, Type (0, 1), BuildingBlock: TEMPAE_clean_linker_10, # of connection points: 2
#     Edge 18, Type (0, 1), BuildingBlock: TEMPAE_clean_linker_10, # of connection points: 2
#     Edge 19, Type (0, 1), BuildingBlock: TEMPAE_clean_linker_10, # of connection points: 2
#     Edge 20, Type (0, 1), BuildingBlock: TEMPAE_clean_linker_10, # of connection points: 2
#     Edge 21, Type (0, 1), BuildingBlock: TEMPAE_clean_linker_10, # of connection points: 2
#     Edge 22, Type (0, 1), BuildingBlock: TEMPAE_clean_linker_10, # of connection points: 2
#     Edge 23, Type (0, 1), BuildingBlock: TEMPAE_clean_linker_10, # of connection points: 2
#     Edge 24, Type (0, 1), BuildingBlock: TEMPAE_clean_linker_10, # of connection points: 2
#     Edge 25, Type (0, 1), BuildingBlock: TEMPAE_clean_linker_10, # of connection points: 2
#     Edge 26, Type (0, 1), BuildingBlock: TEMPAE_clean_linker_10, # of connection points: 2
#     Edge 27, Type (0, 1), BuildingBlock: TEMPAE_clean_linker_10, # of connection points: 2
#     Edge 28, Type (0, 1), BuildingBlock: TEMPAE_clean_linker_10, # of connection points: 2
#     Edge 29, Type (0, 1), BuildingBlock: TEMPAE_clean_linker_10, # of connection points: 2
#     Edge 30, Type (0, 1), BuildingBlock: TEMPAE_clean_linker_10, # of connection points: 2
#     Edge 31, Type (0, 1), BuildingBlock: TEMPAE_clean_linker_10, # of connection points: 2
#     Edge 32, Type (0, 1), BuildingBlock: TEMPAE_clean_linker_10, # of connection points: 2
#     Edge 33, Type (0, 1), BuildingBlock: TEMPAE_clean_linker_10, # of connection points: 2
#     Edge 34, Type (0, 1), BuildingBlock: TEMPAE_clean_linker_10, # of connection points: 2
#     Edge 35, Type (0, 1), BuildingBlock: TEMPAE_clean_linker_10, # of connection points: 2
# Relax obj value: 0.282
# Max RMSD: 0.229
# Mean RMSD: 0.186
data_MOF--net-zzz--node1-JUFBIX_clean_sbu_0--node2-ESEHIV_clean_linker_0--edge1-TEMPAE_clean_linker_10
_symmetry_space_group_name_H-M    P1
_symmetry_Int_Tables_number       1
_symmetry_cell_setting            triclinic
loop_
_symmetry_equiv_pos_as_xyz
'x, y, z'
_cell_length_a     45.452418
_cell_length_b     46.635639
_cell_length_c     18.021055
_cell_angle_alpha  81.153667
_cell_angle_beta   90.042885
_cell_angle_gamma 86.082964
loop_
_atom_site_label
_atom_site_type_symbol
_atom_site_fract_x
_atom_site_fract_y
_atom_site_fract_z
_atom_type_partial_charge
H0 H 0.83568 0.50798 0.34634 0.0
H1 H 0.76713 0.48527 0.2067 0.0
H2 H 0.74538 0.53568 0.38292 0.0
C3 C 0.81245 0.50781 0.33258 0.0
C4 C 0.79151 0.52256 0.37277 0.0
C5 C 0.80395 0.49436 0.27246 0.0
C6 C 0.77391 0.49498 0.25438 0.0
C7 C 0.75269 0.50983 0.2938 0.0
C8 C 0.76153 0.5236 0.35342 0.0
H9 H 0.02878 0.82808 0.30767 0.0
H10 H 0.03861 0.76684 0.15457 0.0
H11 H 0.00826 0.73928 0.38017 0.0
C12 C 0.02791 0.80587 0.29695 0.0
C13 C 0.01874 0.78441 0.35359 0.0
C14 C 0.03496 0.7996 0.22579 0.0
C15 C 0.03371 0.77127 0.21079 0.0
C16 C 0.0242 0.74911 0.26582 0.0
C17 C 0.01607 0.7559 0.33751 0.0
H18 H 0.69828 0.99938 0.26777 0.0
H19 H 0.76058 0.01372 0.09006 0.0
H20 H 0.79077 0.9972 0.32124 0.0
C21 C 0.72096 1.00083 0.24944 0.0
C22 C 0.74369 0.9976 0.30306 0.0
C23 C 0.72688 0.00675 0.17294 0.0
C24 C 0.756 0.00944 0.14966 0.0
C25 C 0.77932 0.00585 0.20248 0.0
C26 C 0.77311 0.99967 0.27985 0.0
H27 H 0.47642 0.6896 0.2571 0.0
H28 H 0.49186 0.77708 0.28504 0.0
H29 H 0.46831 0.75736 0.06678 0.0
C30 C 0.47717 0.71236 0.23307 0.0
C31 C 0.47186 0.72099 0.15631 0.0
C32 C 0.48519 0.73207 0.27915 0.0
C33 C 0.48572 0.76176 0.24925 0.0
C34 C 0.47844 0.77136 0.17254 0.0
C35 C 0.47193 0.75061 0.12655 0.0
H36 H 0.15665 0.52475 0.24155 0.0
H37 H 0.22268 0.55096 0.38198 0.0
H38 H 0.24833 0.5071 0.19538 0.0
C39 C 0.17968 0.52674 0.25438 0.0
C40 C 0.20158 0.51478 0.21123 0.0
C41 C 0.18711 0.53994 0.31574 0.0
C42 C 0.21693 0.54159 0.33292 0.0
C43 C 0.23929 0.5299 0.28997 0.0
C44 C 0.23144 0.51658 0.22843 0.0
H45 H 0.96646 0.2111 0.27219 0.0
H46 H 0.96219 0.27433 0.42072 0.0
H47 H 0.99329 0.29746 0.19425 0.0
C48 C 0.96875 0.23336 0.28098 0.0
C49 C 0.97921 0.25356 0.22298 0.0
C50 C 0.96276 0.24072 0.35168 0.0
C51 C 0.96629 0.26894 0.365 0.0
C52 C 0.97722 0.28965 0.30871 0.0
C53 C 0.98421 0.28185 0.23745 0.0
H54 H 0.29741 0.04031 0.29477 0.0
H55 H 0.23534 0.02597 0.47301 0.0
H56 H 0.20482 0.04259 0.24214 0.0
C57 C 0.27475 0.03889 0.31328 0.0
C58 C 0.25194 0.04216 0.25986 0.0
C59 C 0.26893 0.03294 0.38983 0.0
C60 C 0.23984 0.03028 0.41338 0.0
C61 C 0.21645 0.03391 0.36079 0.0
C62 C 0.22255 0.0401 0.28335 0.0
H63 H 0.52449 0.35131 0.3294 0.0
H64 H 0.50321 0.26688 0.28726 0.0
H65 H 0.54045 0.27759 0.50155 0.0
C66 C 0.52444 0.32804 0.34797 0.0
C67 C 0.53451 0.31637 0.42026 0.0
C68 C 0.51294 0.31062 0.30001 0.0
C69 C 0.51209 0.28046 0.3243 0.0
C70 C 0.52242 0.26812 0.39729 0.0
C71 C 0.53339 0.28646 0.4447 0.0
Co72 Co 0.01028 0.03316 0.81875 0.0
C73 C 0.95883 0.0125 0.88337 0.0
Co74 Co 0.98695 0.00576 0.7499 0.0
C75 C 0.01607 0.0845 0.88937 0.0
C76 C 0.05445 0.05505 0.90878 0.0
N77 N 0.02785 0.05861 0.87389 0.0
N78 N 0.03414 0.09706 0.93228 0.0
C79 C 0.05823 0.0785 0.94531 0.0
H80 H 0.99423 0.09366 0.87162 0.0
H81 H 0.07004 0.03648 0.90842 0.0
C82 C 0.03836 0.02645 0.68512 0.0
N83 N 0.96941 0.98025 0.69479 0.0
C84 C 0.98105 0.9541 0.68074 0.0
C85 C 0.94308 0.98393 0.6586 0.0
N86 N 0.96314 0.94149 0.63758 0.0
C87 C 0.93931 0.96028 0.62277 0.0
C88 C 0.96846 0.0631 0.71515 0.0
O89 O 0.04004 0.03823 0.74416 0.0
O90 O 0.01683 0.01112 0.67691 0.0
O91 O 0.96436 0.03839 0.69698 0.0
O92 O 0.98738 0.06492 0.7657 0.0
O93 O 0.95715 1.00079 0.82421 0.0
H94 H 0.92766 1.00271 0.65758 0.0
H95 H 0.0027 0.94474 0.69968 0.0
O96 O 0.98042 0.02772 0.89188 0.0
O97 O 0.03293 1.00057 0.87151 0.0
O98 O 0.00973 0.974 0.80336 0.0
C99 C 0.02865 0.97581 0.8539 0.0
H100 H 0.07717 0.08172 0.97879 0.0
H101 H 0.92057 0.95709 0.58858 0.0
Co102 Co 0.48548 0.03097 0.8223 0.0
C103 C 0.49281 0.97077 0.86523 0.0
Co104 Co 0.51031 0.00839 0.74026 0.0
C105 C 0.43337 0.04431 0.90378 0.0
C106 C 0.46803 0.07073 0.92611 0.0
N107 N 0.46173 0.04934 0.88724 0.0
N108 N 0.4217 0.06172 0.95079 0.0
C109 C 0.44347 0.07823 0.96582 0.0
H110 H 0.42147 0.02788 0.8826 0.0
H111 H 0.489 0.08042 0.9252 0.0
C112 C 0.50301 0.06858 0.6972 0.0
N113 N 0.53404 0.99001 0.67535 0.0
C114 C 0.5624 0.99501 0.6588 0.0
C115 C 0.52774 0.96854 0.63674 0.0
N116 N 0.57407 0.9775 0.61205 0.0
C117 C 0.55231 0.96096 0.59717 0.0
C118 C 0.45159 0.01315 0.70935 0.0
O119 O 0.48964 0.06748 0.75957 0.0
O120 O 0.51402 0.04503 0.67784 0.0
O121 O 0.47591 1.00314 0.68572 0.0
O122 O 0.45159 0.02577 0.7668 0.0
O123 O 0.5064 0.97196 0.80317 0.0
H124 H 0.50677 0.95884 0.6378 0.0
H125 H 0.5743 0.01146 0.67983 0.0
O126 O 0.48157 0.99426 0.88443 0.0
O127 O 0.51987 0.03603 0.87721 0.0
O128 O 0.54424 0.01379 0.79546 0.0
C129 C 0.54422 0.02621 0.85326 0.0
H130 H 0.44158 0.09478 0.00191 0.0
H131 H 0.55421 0.94432 0.56132 0.0
Co132 Co 0.52342 0.52146 0.79738 0.0
C133 C 0.49611 0.47637 0.88463 0.0
Co134 Co 0.47743 0.51799 0.76342 0.0
C135 C 0.57171 0.52274 0.89852 0.0
C136 C 0.58506 0.53094 0.78378 0.0
N137 N 0.56158 0.52483 0.82744 0.0
N138 N 0.60066 0.52737 0.90134 0.0
C139 C 0.6091 0.53257 0.82897 0.0
H140 H 0.55799 0.51771 0.94717 0.0
H141 H 0.58464 0.53431 0.72304 0.0
C142 C 0.50453 0.56323 0.67702 0.0
N143 N 0.4392 0.51484 0.73363 0.0
C144 C 0.4291 0.51442 0.66345 0.0
C145 C 0.41517 0.51324 0.77723 0.0
N146 N 0.39954 0.51276 0.66107 0.0
C147 C 0.3908 0.51209 0.73295 0.0
C148 C 0.48294 0.55609 0.86417 0.0
O149 O 0.52665 0.55353 0.71879 0.0
O150 O 0.48075 0.5503 0.68536 0.0
O151 O 0.46392 0.54456 0.82881 0.0
O152 O 0.51004 0.54822 0.85974 0.0
O153 O 0.47426 0.48554 0.84134 0.0
H154 H 0.41532 0.51336 0.83721 0.0
H155 H 0.44336 0.51538 0.61528 0.0
O156 O 0.51973 0.48959 0.87661 0.0
O157 O 0.53694 0.49463 0.73379 0.0
O158 O 0.49117 0.49191 0.69839 0.0
C159 C 0.51837 0.48395 0.695 0.0
H160 H 0.63093 0.53768 0.80962 0.0
H161 H 0.36834 0.51157 0.75256 0.0
Co162 Co 0.99438 0.53823 0.81193 0.0
C163 C 0.04337 0.50323 0.87242 0.0
Co164 Co 0.99748 0.49356 0.78243 0.0
C165 C 0.99559 0.58165 0.91206 0.0
C166 C 0.98852 0.60069 0.79714 0.0
N167 N 0.99254 0.57488 0.84207 0.0
N168 N 0.99368 0.61079 0.91279 0.0
C169 C 0.9893 0.62263 0.83993 0.0
H170 H -0.00078 0.56532 0.96126 0.0
H171 H 0.98556 0.6034 0.73684 0.0
C172 C 0.94849 0.52868 0.72189 0.0
N173 N -0.00056 0.45705 0.75165 0.0
C174 C 0.99537 0.45086 0.68146 0.0
C175 C 0.00552 0.43101 0.79452 0.0
N176 N 0.99859 0.42196 0.67879 0.0
C177 C 0.00501 0.40949 0.75014 0.0
C178 C 0.96609 0.49751 0.91146 0.0
O179 O 0.95877 0.54803 0.75521 0.0
O180 O 0.96218 0.50375 0.727 0.0
O181 O 0.97516 0.4796 0.86846 0.0
O182 O 0.97227 0.52393 0.8963 0.0
O183 O 0.03331 0.48391 0.83856 0.0
H184 H 0.01019 0.4279 0.8542 0.0
H185 H 0.98981 0.46731 0.63339 0.0
O186 O 0.02947 0.52803 0.86794 0.0
O187 O 0.01698 0.55205 0.72601 0.0
O188 O 0.01928 0.50784 0.69786 0.0
C189 C 0.0257 0.53415 0.68271 0.0
H190 H 0.98731 0.64558 0.81782 0.0
H191 H 0.0095 0.38643 0.76903 0.0
C192 C 0.1644 0.05423 0.37151 0.0
C193 C 0.18604 0.03132 0.38938 0.0
C194 C 0.13768 0.05449 0.41094 0.0
C195 C 0.13272 0.0313 0.46931 0.0
C196 C 0.15373 0.00722 0.48371 0.0
C197 C 0.18007 0.00752 0.44347 0.0
C198 C 0.11564 0.08036 0.39332 0.0
C199 C 0.14927 0.98194 0.54497 0.0
C200 C 0.08714 0.04358 0.63941 0.0
C201 C 0.06147 0.02989 0.62701 0.0
C202 C 0.11 0.04524 0.58689 0.0
C203 C 0.10706 0.03307 0.5201 0.0
C204 C 0.0807 0.0203 0.5058 0.0
C205 C 0.05827 0.01875 0.55954 0.0
C206 C 0.13781 0.059 0.60435 0.0
C207 C 0.07661 0.00734 0.43502 0.0
H208 H 0.16907 0.07271 0.32995 0.0
H209 H 0.19674 0.98967 0.45676 0.0
H210 H 0.09301 0.07315 0.38926 0.0
H211 H 0.11579 0.09358 0.43948 0.0
H212 H 0.12074 0.09443 0.34001 0.0
H213 H 0.16659 0.96393 0.54499 0.0
H214 H 0.14969 0.98943 0.60049 0.0
H215 H 0.12743 0.97332 0.53846 0.0
H216 H 0.08975 0.05236 0.69115 0.0
H217 H 0.03838 0.00836 0.54908 0.0
H218 H 0.1432 0.07589 0.55694 0.0
H219 H 0.15657 0.04224 0.61166 0.0
H220 H 0.13589 0.06911 0.65623 0.0
H221 H 0.08206 0.023 0.38498 0.0
H222 H 0.05371 1.00106 0.42854 0.0
H223 H 0.0919 0.98769 0.4361 0.0
C224 C 0.49485 0.22243 0.41924 0.0
C225 C 0.52068 0.23657 0.42735 0.0
C226 C 0.49157 0.19408 0.45731 0.0
C227 C 0.51463 0.17954 0.5048 0.0
C228 C 0.54126 0.1932 0.51016 0.0
C229 C 0.54399 0.22137 0.47121 0.0
C230 C 0.46295 0.18019 0.44929 0.0
C231 C 0.56647 0.17858 0.55977 0.0
C232 C 0.49634 0.12316 0.672 0.0
C233 C 0.50546 0.09689 0.64727 0.0
C234 C 0.49878 0.15009 0.62579 0.0
C235 C 0.51042 0.15091 0.55258 0.0
C236 C 0.51924 0.12445 0.5268 0.0
C237 C 0.51679 0.09782 0.57448 0.0
C238 C 0.48936 0.17773 0.65589 0.0
C239 C 0.53153 0.12429 0.44906 0.0
H240 H 0.47665 0.23402 0.38594 0.0
H241 H 0.56424 0.23191 0.47681 0.0
H242 H 0.46731 0.15787 0.43587 0.0
H243 H 0.45102 0.17829 0.50332 0.0
H244 H 0.44839 0.19298 0.40482 0.0
H245 H 0.5863 0.19138 0.5545 0.0
H246 H 0.5595 0.17562 0.61931 0.0
H247 H 0.57262 0.15666 0.54556 0.0
H248 H 0.48754 0.12275 0.72802 0.0
H249 H 0.52375 0.07768 0.55453 0.0
H250 H 0.47251 0.1908 0.61805 0.0
H251 H 0.50853 0.19114 0.65763 0.0
H252 H 0.4801 0.17341 0.71324 0.0
H253 H 0.51582 0.13641 0.4064 0.0
H254 H 0.53607 0.10189 0.43608 0.0
H255 H 0.55234 0.13552 0.44371 0.0
C256 C 0.28794 0.50281 0.32548 0.0
C257 C 0.27031 0.52902 0.31625 0.0
C258 C 0.31391 0.49953 0.36913 0.0
C259 C 0.32194 0.52284 0.40506 0.0
C260 C 0.30594 0.55022 0.38914 0.0
C261 C 0.28047 0.55305 0.34417 0.0
C262 C 0.33111 0.47034 0.38244 0.0
C263 C 0.31377 0.5757 0.42604 0.0
C264 C 0.35169 0.50544 0.60406 0.0
C265 C 0.38099 0.51303 0.59565 0.0
C266 C 0.3326 0.50786 0.54212 0.0
C267 C 0.34316 0.51737 0.46922 0.0
C268 C 0.37305 0.5235 0.45939 0.0
C269 C 0.39153 0.52163 0.52274 0.0
C270 C 0.30075 0.50118 0.55519 0.0
C271 C 0.38533 0.53297 0.38237 0.0
H272 H 0.28032 0.48416 0.30376 0.0
H273 H 0.26724 0.57355 0.33548 0.0
H274 H 0.35518 0.47299 0.38304 0.0
H275 H 0.32529 0.4584 0.43799 0.0
H276 H 0.32609 0.45686 0.33887 0.0
H277 H 0.30155 0.5963 0.40049 0.0
H278 H 0.30828 0.57141 0.48658 0.0
H279 H 0.33774 0.57861 0.42205 0.0
H280 H 0.34335 0.49795 0.65928 0.0
H281 H 0.41399 0.52765 0.5147 0.0
H282 H 0.29493 0.48403 0.52254 0.0
H283 H 0.28608 0.52089 0.53538 0.0
H284 H 0.29614 0.49377 0.61536 0.0
H285 H 0.37721 0.5198 0.34129 0.0
H286 H 0.40983 0.53111 0.38274 0.0
H287 H 0.37784 0.556 0.36251 0.0
C288 C 0.01089 0.32191 0.35942 0.0
C289 C 0.98307 0.31816 0.33035 0.0
C290 C 0.0146 0.34307 0.40599 0.0
C291 C 0.98984 0.36085 0.4239 0.0
C292 C 0.96232 0.359 0.38845 0.0
C293 C 0.95922 0.33747 0.34271 0.0
C294 C 0.04437 0.34429 0.442 0.0
C295 C 0.93542 0.37774 0.40459 0.0
C296 C 0.98791 0.37832 0.62356 0.0
C297 C 0.99573 0.40725 0.6141 0.0
C298 C 0.98578 0.36327 0.56217 0.0
C299 C 0.99153 0.37738 0.4887 0.0
C300 C -0.00095 0.40672 0.47831 0.0
C301 C 0.00104 0.4213 0.54103 0.0
C302 C 0.97746 0.33209 0.57617 0.0
C303 C 0.00526 0.42259 0.40109 0.0
H304 H 0.0292 0.30659 0.35127 0.0
H305 H 0.93757 0.33422 0.3214 0.0
H306 H 0.04983 0.36715 0.4413 0.0
H307 H 0.04387 0.33385 0.5016 0.0
H308 H 0.06217 0.3328 0.41336 0.0
H309 H 0.91746 0.37759 0.36282 0.0
H310 H 0.92706 0.36945 0.46113 0.0
H311 H 0.94095 0.40054 0.40474 0.0
H312 H 0.98319 0.36738 0.67925 0.0
H313 H 0.00733 0.44354 0.53292 0.0
H314 H 0.99523 0.31769 0.55636 0.0
H315 H 0.95714 0.32989 0.54396 0.0
H316 H 0.97359 0.32428 0.63654 0.0
H317 H 0.02413 0.41118 0.37624 0.0
H318 H 0.01045 0.44546 0.40218 0.0
H319 H 0.98592 0.42258 0.3635 0.0
C320 C 0.81588 0.03196 0.11974 0.0
C321 C 0.8098 0.00837 0.17437 0.0
C322 C 0.84246 0.03221 0.08048 0.0
C323 C 0.86357 0.00829 0.09644 0.0
C324 C 0.85847 0.98534 0.15531 0.0
C325 C 0.83153 0.98565 0.19374 0.0
C326 C 0.84706 0.05723 0.01862 0.0
C327 C 0.88062 0.95964 0.17456 0.0
C328 C 0.91006 0.99523 0.92852 0.0
C329 C 0.93556 0.00917 0.94105 0.0
C330 C 0.88698 0.99373 0.98037 0.0
C331 C 0.8895 0.00634 0.0466 0.0
C332 C 0.91569 0.01936 0.06112 0.0
C333 C 0.93837 0.02072 0.00805 0.0
C334 C 0.85936 0.97969 0.96272 0.0
C335 C 0.91933 0.0328 0.13134 0.0
H336 H 0.79917 0.0497 0.10534 0.0
H337 H 0.82679 0.96733 0.23575 0.0
H338 H 0.86879 0.06603 0.02549 0.0
H339 H 0.84702 0.04941 0.96348 0.0
H340 H 0.82961 0.07519 0.01742 0.0
H341 H 0.87533 0.94581 0.22808 0.0
H342 H 0.88086 0.94611 0.129 0.0
H343 H 0.90315 0.96703 0.17907 0.0
H344 H 0.90775 0.98613 0.87716 0.0
H345 H 0.95811 0.03132 0.01859 0.0
H346 H 0.84054 0.99635 0.95423 0.0
H347 H 0.85385 0.96302 0.01053 0.0
H348 H 0.86163 0.96923 0.91145 0.0
H349 H 0.90396 0.05246 0.129 0.0
H350 H 0.94216 0.03919 0.13826 0.0
H351 H 0.91367 0.01739 0.18169 0.0
C352 C 0.50254 0.81909 0.15136 0.0
C353 C 0.47899 0.80255 0.13788 0.0
C354 C 0.50479 0.84736 0.11174 0.0
C355 C 0.48295 0.85944 0.05745 0.0
C356 C 0.45854 0.84327 0.04596 0.0
C357 C 0.45685 0.81514 0.08623 0.0
C358 C 0.53113 0.86388 0.12591 0.0
C359 C 0.43463 0.85528 0.98915 0.0
C360 C 0.4761 0.94098 0.9843 0.0
C361 C 0.49051 0.94239 0.91501 0.0
C362 C 0.47387 0.91427 0.03179 0.0
C363 C 0.4863 0.88824 0.00962 0.0
C364 C 0.50105 0.88956 0.94003 0.0
C365 C 0.50298 0.91653 0.89373 0.0
C366 C 0.45797 0.91386 0.10541 0.0
C367 C 0.51455 0.86237 0.91401 0.0
H368 H 0.51986 0.80949 0.19064 0.0
H369 H 0.43835 0.80269 0.07625 0.0
H370 H 0.54495 0.86674 0.07493 0.0
H371 H 0.52384 0.88591 0.13766 0.0
H372 H 0.54497 0.85249 0.17377 0.0
H373 H 0.41629 0.84067 0.98988 0.0
H374 H 0.4255 0.87687 1.00017 0.0
H375 H 0.44408 0.85841 0.93195 0.0
H376 H 0.46645 0.96078 0.00151 0.0
H377 H 0.51422 0.91731 0.84051 0.0
H378 H 0.4727 0.90351 0.15253 0.0
H379 H 0.43857 0.90064 0.10592 0.0
H380 H 0.45033 0.93604 0.11565 0.0
H381 H 0.53067 0.85087 0.95653 0.0
H382 H 0.52593 0.86713 0.85942 0.0
H383 H 0.49714 0.84731 0.90793 0.0
C384 C 0.71125 0.54202 0.23182 0.0
C385 C 0.72226 0.51409 0.26384 0.0
C386 C 0.68706 0.54583 0.18208 0.0
C387 C 0.67359 0.52107 0.1651 0.0
C388 C 0.6826 0.49314 0.20416 0.0
C389 C 0.70712 0.48994 0.25263 0.0
C390 C 0.67818 0.57597 0.14157 0.0
C391 C 0.66838 0.46627 0.18898 0.0
C392 C 0.60603 0.53008 0.03696 0.0
C393 C 0.61878 0.52651 0.96759 0.0
C394 C 0.62348 0.5285 0.10202 0.0
C395 C 0.65441 0.52361 0.09736 0.0
C396 C 0.66745 0.52046 0.02748 0.0
C397 C 0.64949 0.52175 0.96376 0.0
C398 C 0.60885 0.53176 0.17572 0.0
C399 C 0.70046 0.51538 0.02003 0.0
H400 H 0.72321 0.56065 0.24013 0.0
H401 H 0.71574 0.46836 0.27767 0.0
H402 H 0.68724 0.57839 0.08393 0.0
H403 H 0.65385 0.57958 0.13632 0.0
H404 H 0.68673 0.59309 0.17065 0.0
H405 H 0.67403 0.44734 0.23327 0.0
H406 H 0.64404 0.4702 0.18519 0.0
H407 H 0.67613 0.46061 0.13433 0.0
H408 H 0.58241 0.53425 0.04062 0.0
H409 H 0.65961 0.51851 0.9111 0.0
H410 H 0.618 0.5498 0.19985 0.0
H411 H 0.61354 0.51162 0.21668 0.0
H412 H 0.58456 0.5361 0.16956 0.0
H413 H 0.71183 0.533 0.0406 0.0
H414 H 0.70716 0.51449 0.9611 0.0
H415 H 0.70829 0.49458 0.05512 0.0
C416 C 0.99424 0.70734 0.24649 0.0
C417 C 0.02144 0.71994 0.2432 0.0
C418 C 0.9892 0.68479 0.20498 0.0
C419 C 0.01175 0.67497 0.15852 0.0
C420 C 0.04006 0.68572 0.16113 0.0
C421 C 0.04459 0.70783 0.20383 0.0
C422 C 0.95899 0.67323 0.20602 0.0
C423 C 0.06484 0.67608 0.11284 0.0
C424 C 0.006 0.61169 0.04779 0.0
C425 C 0.9965 0.62627 0.97656 0.0
C426 C 0.00986 0.62692 0.10867 0.0
C427 C 0.00469 0.65759 0.09817 0.0
C428 C 0.99453 0.67233 0.02724 0.0
C429 C 0.99027 0.65658 0.9681 0.0
C430 C 0.0202 0.61022 0.18366 0.0
C431 C 0.98896 0.70506 0.01286 0.0
H432 H 0.97625 0.71657 0.2767 0.0
H433 H 0.06577 0.71731 0.20175 0.0
H434 H 0.94671 0.68312 0.15411 0.0
H435 H 0.96069 0.6493 0.20733 0.0
H436 H 0.94605 0.67844 0.2551 0.0
H437 H 0.08633 0.68373 0.12811 0.0
H438 H 0.06701 0.65205 0.11771 0.0
H439 H 0.05984 0.68496 0.05308 0.0
H440 H 0.01096 0.58841 0.05626 0.0
H441 H 0.98228 0.66841 0.91486 0.0
H442 H 0.00714 0.61775 0.22988 0.0
H443 H 0.04357 0.61415 0.19349 0.0
H444 H 0.01851 0.58642 0.18647 0.0
H445 H 0.97247 0.7121 0.05287 0.0
H446 H 0.98083 0.71327 0.95482 0.0
H447 H 0.00964 0.71545 0.02204 0.0
C448 C 0.9798 0.19573 0.43462 0.0
C449 C 0.95729 0.21738 0.41364 0.0
C450 C 0.97511 0.17178 0.48887 0.0
C451 C 0.94704 0.16936 0.52245 0.0
C452 C 0.92427 0.19151 0.50238 0.0
C453 C 0.92974 0.21551 0.44794 0.0
C454 C 0.0002 0.1489 0.50943 0.0
C455 C 0.89407 0.18945 0.53665 0.0
C456 C 0.94216 0.09059 0.60154 0.0
C457 C 0.95434 0.09017 0.67312 0.0
C458 C 0.936 0.11706 0.55377 0.0
C459 C 0.94235 0.14339 0.57855 0.0
C460 C 0.95108 0.14317 0.65393 0.0
C461 C 0.95691 0.1165 0.70044 0.0
C462 C 0.92601 0.11652 0.47416 0.0
C463 C 0.95785 0.17074 0.68294 0.0
H464 H 0.00108 0.19747 0.40767 0.0
H465 H 0.91238 0.23235 0.43072 0.0
H466 H 0.00488 0.14608 0.57065 0.0
H467 H 0.99397 0.12766 0.49608 0.0
H468 H 0.02078 0.15453 0.47903 0.0
H469 H 0.87998 0.20996 0.52164 0.0
H470 H 0.88298 0.17159 0.51649 0.0
H471 H 0.8958 0.18415 0.59871 0.0
H472 H 0.93967 0.07029 0.58058 0.0
H473 H 0.96558 0.11632 0.75657 0.0
H474 H 0.94524 0.11889 0.43635 0.0
H475 H 0.90959 0.13489 0.4551 0.0
H476 H 0.91622 0.09578 0.46838 0.0
H477 H 0.9797 0.1774 0.66194 0.0
H478 H 0.9586 0.16766 0.74532 0.0
H479 H 0.94126 0.18877 0.66242 0.0
C480 C 0.29694 1.00413 0.49884 0.0
C481 C 0.29367 0.02903 0.44431 0.0
C482 C 0.32187 0.99903 0.54616 0.0
C483 C 0.34369 0.01951 0.53887 0.0
C484 C 0.34002 0.04507 0.4852 0.0
C485 C 0.31506 0.04946 0.43834 0.0
C486 C 0.32522 0.97149 0.60263 0.0
C487 C 0.36262 0.06762 0.4766 0.0
C488 C 0.3973 0.02394 0.69615 0.0
C489 C 0.42353 0.01176 0.66928 0.0
C490 C 0.3708 0.02546 0.65579 0.0
C491 C 0.37052 0.01445 0.58702 0.0
C492 C 0.39657 1.00088 0.56126 0.0
C493 C 0.42286 0.99974 0.60273 0.0
C494 C 0.34349 0.04016 0.685 0.0
C495 C 0.39692 0.98866 0.48836 0.0
H496 H 0.28046 0.98823 0.50278 0.0
H497 H 0.31232 0.06883 0.39644 0.0
H498 H 0.34523 0.95818 0.58997 0.0
H499 H 0.32825 0.97684 0.65993 0.0
H500 H 0.30586 0.95819 0.60257 0.0
H501 H 0.35605 0.0866 0.43322 0.0
H502 H 0.36592 0.0755 0.53085 0.0
H503 H 0.38417 0.05776 0.46079 0.0
H504 H 0.39755 0.03312 0.74784 0.0
H505 H 0.44302 0.99014 0.58199 0.0
H506 H 0.32459 0.02633 0.68511 0.0
H507 H 0.33744 0.0609 0.64744 0.0
H508 H 0.34677 0.045 0.74278 0.0
H509 H 0.37876 0.97401 0.48689 0.0
H510 H 0.41816 0.9764 0.47985 0.0
H511 H 0.39325 0.00667 0.44064 0.0
C512 C 0.55979 0.36003 0.44425 0.0
C513 C 0.54303 0.33654 0.4714 0.0
C514 C 0.56134 0.3836 0.48346 0.0
C515 C 0.54611 0.38339 0.55192 0.0
C516 C 0.5319 0.35833 0.58354 0.0
C517 C 0.53039 0.33518 0.54264 0.0
C518 C 0.57686 0.40982 0.44797 0.0
C519 C 0.51593 0.35704 0.65728 0.0
C520 C 0.55361 0.44287 0.67167 0.0
C521 C 0.5276 0.46041 0.65223 0.0
C522 C 0.56042 0.41793 0.63843 0.0
C523 C 0.54093 0.41075 0.58396 0.0
C524 C 0.51538 0.42921 0.56164 0.0
C525 C 0.50893 0.45369 0.59649 0.0
C526 C 0.58769 0.39863 0.66403 0.0
C527 C 0.4943 0.4226 0.5026 0.0
H528 H 0.57008 0.36085 0.38976 0.0
H529 H 0.51739 0.31712 0.56391 0.0
H530 H 0.56018 0.42733 0.42427 0.0
H531 H 0.59004 0.41843 0.49036 0.0
H532 H 0.59162 0.40473 0.40193 0.0
H533 H 0.5102 0.3346 0.6798 0.0
H534 H 0.52956 0.36515 0.69968 0.0
H535 H 0.49523 0.37127 0.64907 0.0
H536 H 0.56799 0.44788 0.71527 0.0
H537 H 0.48889 0.4673 0.58106 0.0
H538 H 0.60054 0.39328 0.61508 0.0
H539 H 0.58112 0.37782 0.696 0.0
H540 H 0.60218 0.40888 0.70055 0.0
H541 H 0.50637 0.41974 0.45045 0.0
H542 H 0.47641 0.44007 0.4886 0.0
H543 H 0.48411 0.40192 0.52284 0.0
C544 C 0.13725 0.56352 0.33749 0.0
C545 C 0.16365 0.54866 0.36659 0.0
C546 C 0.11311 0.56747 0.38429 0.0
C547 C 0.11545 0.55595 0.46162 0.0
C548 C 0.1427 0.54269 0.49198 0.0
C549 C 0.16649 0.53926 0.44407 0.0
C550 C 0.0846 0.58219 0.34997 0.0
C551 C 0.1461 0.53 0.57412 0.0
C552 C 0.05916 0.56875 0.61054 0.0
C553 C 0.04501 0.54267 0.61829 0.0
C554 C 0.08098 0.57448 0.55601 0.0
C555 C 0.08872 0.55357 0.50885 0.0
C556 C 0.073 0.52821 0.51313 0.0
C557 C 0.05131 0.52313 0.56763 0.0
C558 C 0.09688 0.60202 0.55187 0.0
C559 C 0.08039 0.50542 0.46355 0.0
H560 H 0.13513 0.57113 0.27765 0.0
H561 H 0.18673 0.5275 0.46675 0.0
H562 H 0.06912 0.56545 0.34245 0.0
H563 H 0.0739 0.59655 0.38726 0.0
H564 H 0.08814 0.59529 0.29418 0.0
H565 H 0.16943 0.52318 0.59019 0.0
H566 H 0.13767 0.54602 0.60989 0.0
H567 H 0.1329 0.5107 0.58641 0.0
H568 H 0.05421 0.58404 0.64918 0.0
H569 H 0.04011 0.50314 0.57243 0.0
H570 H 0.09941 0.6122 0.4926 0.0
H571 H 0.11934 0.59675 0.57651 0.0
H572 H 0.08515 0.61807 0.58301 0.0
H573 H 0.08056 0.51555 0.40373 0.0
H574 H 0.06452 0.48813 0.46988 0.0
H575 H 0.1028 0.49507 0.47803 0.0
C576 C 0.01876 0.84656 0.14923 0.0
C577 C 0.04042 0.82368 0.16551 0.0
C578 C 0.02322 0.87033 0.09417 0.0
C579 C 0.05024 0.87137 0.05504 0.0
C580 C 0.0723 0.84828 0.07129 0.0
C581 C 0.06699 0.82441 0.12626 0.0
C582 C 0.99884 0.89423 0.07767 0.0
C583 C 0.10149 0.84901 0.03146 0.0
C584 C 0.03758 0.92203 0.87396 0.0
C585 C 0.04237 0.94875 0.89707 0.0
C586 C 0.04324 0.89584 0.92257 0.0
C587 C 0.05426 0.89646 0.99564 0.0
C588 C 0.06272 0.92295 0.01566 0.0
C589 C 0.05653 0.94896 0.96603 0.0
C590 C 0.03392 0.8681 0.89875 0.0
C591 C 0.07529 0.92431 0.09246 0.0
H592 H 0.99816 0.84571 0.17958 0.0
H593 H 0.08373 0.80665 0.13968 0.0
H594 H 0.00684 0.91522 0.08806 0.0
H595 H 0.99209 0.89687 0.01768 0.0
H596 H 0.97908 0.88977 0.1127 0.0
H597 H 0.11589 0.82886 0.04879 0.0
H598 H 0.09795 0.85193 0.96978 0.0
H599 H 0.11319 0.86789 0.04375 0.0
H600 H 0.0273 0.92163 0.81989 0.0
H601 H 0.06076 0.96951 0.98368 0.0
H602 H 0.01254 0.86266 0.92516 0.0
H603 H 0.05022 0.84964 0.91762 0.0
H604 H 0.03106 0.87028 0.83683 0.0
H605 H 0.05713 0.92371 0.13369 0.0
H606 H 0.08662 0.94462 0.0934 0.0
H607 H 0.09108 0.90535 0.11096 0.0
C608 C 0.6809 0.99003 0.12411 0.0
C609 C 0.70221 0.01054 0.11825 0.0
C610 C 0.65596 0.99433 0.07718 0.0
C611 C 0.6522 0.01991 0.02357 0.0
C612 C 0.67395 0.04047 0.01635 0.0
C613 C 0.69888 0.03544 0.06373 0.0
C614 C 0.63345 0.9717 0.08571 0.0
C615 C 0.67051 0.06801 0.95995 0.0
C616 C 0.59854 0.01549 0.86634 0.0
C617 C 0.57229 0.0276 0.89333 0.0
C618 C 0.62505 0.01398 0.90665 0.0
C619 C 0.62534 0.02493 0.97551 0.0
C620 C 0.59927 0.03841 0.00143 0.0
C621 C 0.57296 0.03954 0.96001 0.0
C622 C 0.65237 0.99937 0.87727 0.0
C623 C 0.59892 0.05055 0.07444 0.0
H624 H 0.68369 0.97066 0.166 0.0
H625 H 0.71528 0.05141 0.05987 0.0
H626 H 0.61188 0.98146 0.10169 0.0
H627 H 0.63015 0.96387 0.03139 0.0
H628 H 0.64011 0.95269 0.12893 0.0
H629 H 0.68985 0.08135 0.95995 0.0
H630 H 0.66746 0.06269 0.90265 0.0
H631 H 0.6505 0.08129 0.97275 0.0
H632 H 0.59829 0.00636 0.81457 0.0
H633 H 0.5528 0.04908 0.98086 0.0
H634 H 0.65847 0.9786 0.91469 0.0
H635 H 0.67125 0.01323 0.87722 0.0
H636 H 0.64909 0.99459 0.81943 0.0
H637 H 0.60268 0.03252 0.12205 0.0
H638 H 0.57764 0.06272 0.08312 0.0
H639 H 0.61702 0.06527 0.07589 0.0
C640 C 0.44847 0.70171 0.0486 0.0
C641 C 0.46914 0.69827 0.10769 0.0
C642 C 0.4461 0.67974 0.00384 0.0
C643 C 0.46466 0.65382 0.01923 0.0
C644 C 0.48537 0.65025 0.07907 0.0
C645 C 0.48763 0.67262 0.12162 0.0
C646 C 0.42418 0.68441 0.93948 0.0
C647 C 0.5057 0.62299 0.09736 0.0
C648 C 0.4525 0.5825 0.95126 0.0
C649 C 0.47486 0.58206 0.89817 0.0
C650 C 0.44741 0.60675 0.98841 0.0
C651 C 0.46459 0.63109 0.97 0.0
C652 C 0.48549 0.63143 0.91182 0.0
C653 C 0.49067 0.6067 0.87747 0.0
C654 C 0.42523 0.60548 0.05087 0.0
C655 C 0.50385 0.6571 0.88917 0.0
H656 H 0.4341 0.72145 0.03766 0.0
H657 H 0.50429 0.67008 0.16567 0.0
H658 H 0.43604 0.68463 0.88562 0.0
H659 H 0.40947 0.6662 0.94455 0.0
H660 H 0.41043 0.70517 0.93704 0.0
H661 H 0.51887 0.62274 0.14945 0.0
H662 H 0.49278 0.60343 0.10435 0.0
H663 H 0.52115 0.62128 0.05036 0.0
H664 H 0.44017 0.5634 0.96643 0.0
H665 H 0.50754 0.60643 0.83495 0.0
H666 H 0.41125 0.62613 0.04611 0.0
H667 H 0.43707 0.60256 0.10569 0.0
H668 H 0.41079 0.58719 0.05093 0.0
H669 H 0.48993 0.67781 0.88365 0.0
H670 H 0.51532 0.65588 0.83518 0.0
H671 H 0.52075 0.65767 0.93327 0.0
C672 C 0.85277 0.46827 0.25241 0.0
C673 C 0.8268 0.48379 0.22247 0.0
C674 C 0.87699 0.46361 0.20634 0.0
C675 C 0.87514 0.47501 0.12889 0.0
C676 C 0.84815 0.48853 0.09753 0.0
C677 C 0.82431 0.49273 0.14472 0.0
C678 C 0.90517 0.4485 0.24161 0.0
C679 C 0.84522 0.50101 0.01516 0.0
C680 C 0.93978 0.5082 0.02597 0.0
C681 C 0.94654 0.4888 0.97526 0.0
C682 C 0.91781 0.5029 0.07964 0.0
C683 C 0.90222 0.47748 0.08295 0.0
C684 C 0.91042 0.4567 0.03578 0.0
C685 C 0.93253 0.46264 0.98217 0.0
C686 C 0.90995 0.52557 0.12929 0.0
C687 C 0.89464 0.42913 0.03867 0.0
H688 H 0.85462 0.46093 0.31242 0.0
H689 H 0.80443 0.50496 0.12124 0.0
H690 H 0.91547 0.43351 0.20538 0.0
H691 H 0.92112 0.46496 0.24799 0.0
H692 H 0.90133 0.43601 0.298 0.0
H693 H 0.82195 0.50766 0.99811 0.0
H694 H 0.85832 0.5204 0.00321 0.0
H695 H 0.85404 0.48496 0.97995 0.0
H696 H 0.95085 0.52825 0.0218 0.0
H697 H 0.9378 0.44745 0.94345 0.0
H698 H 0.90944 0.51532 0.18899 0.0
H699 H 0.88759 0.53588 0.11399 0.0
H700 H 0.92577 0.5429 0.1239 0.0
H701 H 0.89106 0.41914 0.09764 0.0
H702 H 0.90707 0.41296 0.00924 0.0
H703 H 0.87265 0.43433 0.01128 0.0
C704 C 0.96549 0.22687 0.12034 0.0
C705 C 0.9864 0.24262 0.15122 0.0
C706 C 0.97396 0.20637 0.07362 0.0
C707 C 0.004 0.20234 0.05439 0.0
C708 C 0.02453 0.22101 0.07719 0.0
C709 C 0.01557 0.2407 0.12636 0.0
C710 C 0.95127 0.18675 0.05247 0.0
C711 C 0.05646 0.21848 0.05499 0.0
C712 C 0.03103 0.12437 0.03877 0.0
C713 C 0.02812 0.12386 0.96172 0.0
C714 C 0.02369 0.14988 0.06926 0.0
C715 C 0.01426 0.17593 0.02107 0.0
C716 C 0.01251 0.17575 0.94256 0.0
C717 C 0.01884 0.14954 0.91401 0.0
C718 C 0.02497 0.14864 0.15347 0.0
C719 C 0.00376 0.20315 0.88888 0.0
H720 H 0.94287 0.22838 0.13933 0.0
H721 H 0.03187 0.25271 0.15009 0.0
H722 H 0.95257 0.18477 0.99206 0.0
H723 H 0.95574 0.16461 0.08479 0.0
H724 H 0.92845 0.1947 0.06464 0.0
H725 H 0.06777 0.2383 0.06199 0.0
H726 H 0.06801 0.19961 0.09093 0.0
H727 H 0.0585 0.21479 0.99577 0.0
H728 H 0.03804 0.10441 0.07544 0.0
H729 H 0.01688 0.14909 0.85426 0.0
H730 H 0.00286 0.15491 0.17442 0.0
H731 H 0.04034 0.16437 0.16842 0.0
H732 H 0.03232 0.12663 0.18309 0.0
H733 H 0.98048 0.21038 0.898 0.0
H734 H 0.00619 0.2 0.82926 0.0
H735 H 0.01749 0.22092 0.89948 0.0
C736 C 0.26576 0.07438 0.14511 0.0
C737 C 0.26092 0.04625 0.18062 0.0
C738 C 0.28753 0.07885 0.08998 0.0
C739 C 0.30515 0.05466 0.07211 0.0
C740 C 0.29746 0.02616 0.10041 0.0
C741 C 0.27514 0.02232 0.15399 0.0
C742 C 0.29395 0.10953 0.05758 0.0
C743 C 0.31534 0.99973 0.08216 0.0
C744 C 0.36814 0.05996 0.93238 0.0
C745 C 0.39222 0.06196 0.9796 0.0
C746 C 0.33932 0.05903 0.96049 0.0
C747 C 0.33474 0.05892 0.03825 0.0
C748 C 0.35908 0.06122 0.08592 0.0
C749 C 0.38743 0.06319 0.05567 0.0
C750 C 0.31417 0.05739 0.90694 0.0
C751 C 0.3554 0.06057 0.16952 0.0
H752 H 0.25492 0.0929 0.16617 0.0
H753 H 0.27154 1.00058 0.18221 0.0
H754 H 0.31327 0.11597 0.08726 0.0
H755 H 0.29946 0.11105 0.99715 0.0
H756 H 0.27493 0.12521 0.0639 0.0
H757 H 0.30435 0.97933 0.1009 0.0
H758 H 0.31919 1.00169 0.02092 0.0
H759 H 0.33721 0.99806 0.11061 0.0
H760 H 0.37189 0.05927 0.87326 0.0
H761 H 0.40614 0.0645 0.09202 0.0
H762 H 0.31914 0.06811 0.84935 0.0
H763 H 0.29324 0.06768 0.92528 0.0
H764 H 0.31086 0.03424 0.90407 0.0
H765 H 0.33982 0.07878 0.18039 0.0
H766 H 0.37661 0.06226 0.19869 0.0
H767 H 0.34592 0.04002 0.19459 0.0
C768 C 0.51809 0.32433 0.16133 0.0
C769 C 0.50146 0.32576 0.22619 0.0
C770 C 0.51417 0.34628 0.09828 0.0
C771 C 0.49357 0.37037 0.10111 0.0
C772 C 0.47492 0.37036 0.16401 0.0
C773 C 0.47895 0.34793 0.22541 0.0
C774 C 0.53392 0.34497 0.03148 0.0
C775 C 0.45286 0.39558 0.17021 0.0
C776 C 0.51415 0.44443 0.00266 0.0
C777 C 0.49481 0.44959 0.9407 0.0
C778 C 0.5139 0.41877 0.05497 0.0
C779 C 0.49434 0.39729 0.04422 0.0
C780 C 0.47502 0.4022 0.98114 0.0
C781 C 0.47523 0.42844 0.93066 0.0
C782 C 0.53444 0.4148 0.12228 0.0
C783 C 0.45435 0.37963 0.96666 0.0
H784 H 0.53578 0.30746 0.16219 0.0
H785 H 0.46634 0.34922 0.27603 0.0
H786 H 0.52126 0.35166 0.97824 0.0
H787 H 0.55148 0.36029 0.03268 0.0
H788 H 0.54458 0.3228 0.03161 0.0
H789 H 0.4375 0.39052 0.21762 0.0
H790 H 0.4648 0.41474 0.17938 0.0
H791 H 0.43977 0.40179 0.11757 0.0
H792 H 0.52933 0.46067 0.01073 0.0
H793 H 0.4605 0.4321 0.88227 0.0
H794 H 0.54951 0.39506 0.12233 0.0
H795 H 0.52153 0.41156 0.1748 0.0
H796 H 0.54793 0.43373 0.1231 0.0
H797 H 0.46709 0.35873 0.96318 0.0
H798 H 0.44137 0.38635 0.91386 0.0
H799 H 0.43884 0.37555 0.01398 0.0
C800 C 0.19374 0.51415 0.07534 0.0
C801 C 0.19196 0.50019 0.14944 0.0
C802 C 0.17449 0.50784 0.02001 0.0
C803 C 0.15299 0.48751 0.04041 0.0
C804 C 0.15442 0.47027 0.1123 0.0
C805 C 0.17398 0.47688 0.16625 0.0
C806 C 0.17436 0.52589 0.94303 0.0
C807 C 0.13233 0.44799 0.13609 0.0
C808 C 0.07606 0.51468 0.97219 0.0
C809 C 0.07104 0.49762 0.9166 0.0
C810 C 0.10254 0.51125 0.01289 0.0
C811 C 0.1249 0.49041 0.99699 0.0
C812 C 0.11992 0.4728 0.94144 0.0
C813 C 0.09285 0.47652 0.90196 0.0
C814 C 0.10655 0.53014 0.07283 0.0
C815 C 0.14334 0.45072 0.92212 0.0
H816 H 0.20779 0.53211 0.06252 0.0
H817 H 0.17288 0.46599 0.22379 0.0
H818 H 0.16933 0.51265 0.89907 0.0
H819 H 0.15698 0.54395 0.94021 0.0
H820 H 0.19588 0.53545 0.93058 0.0
H821 H 0.14026 0.43233 0.18603 0.0
H822 H 0.11134 0.45928 0.15082 0.0
H823 H 0.12755 0.43575 0.08987 0.0
H824 H 0.05913 0.53085 0.98409 0.0
H825 H 0.08908 0.46349 0.85842 0.0
H826 H 0.12546 0.54374 0.05885 0.0
H827 H 0.11151 0.51634 0.12784 0.0
H828 H 0.08668 0.54479 0.0791 0.0
H829 H 0.16072 0.46221 0.8888 0.0
H830 H 0.13423 0.43525 0.88849 0.0
H831 H 0.15406 0.43823 0.97357 0.0
C832 C 0.032 0.80897 0.46018 0.0
C833 C 0.01108 0.79413 0.42643 0.0
C834 C 0.02337 0.82963 0.50634 0.0
C835 C 0.99309 0.83478 0.52181 0.0
C836 C 0.97236 0.81691 0.49638 0.0
C837 C 0.98154 0.79704 0.4479 0.0
C838 C 0.04632 0.84839 0.53036 0.0
C839 C 0.94008 0.82062 0.51455 0.0
C840 C 0.97686 0.88869 0.65881 0.0
C841 C 0.96913 0.91441 0.60952 0.0
C842 C 0.98317 0.86218 0.63168 0.0
C843 C 0.98299 0.8617 0.55319 0.0
C844 C 0.97517 0.88779 0.50338 0.0
C845 C 0.96778 0.91365 0.53232 0.0
C846 C 0.99017 0.83478 0.68687 0.0
C847 C 0.9756 0.88869 0.41924 0.0
H848 H 0.05485 0.80685 0.44328 0.0
H849 H 0.96523 0.78582 0.42164 0.0
H850 H 0.04339 0.87044 0.49671 0.0
H851 H 0.04377 0.85088 0.59021 0.0
H852 H 0.06912 0.83934 0.52205 0.0
H853 H 0.92831 0.80122 0.5063 0.0
H854 H 0.93711 0.82456 0.57336 0.0
H855 H 0.92971 0.83974 0.47709 0.0
H856 H 0.97763 0.88937 0.71863 0.0
H857 H 0.96196 0.93364 0.49449 0.0
H858 H 0.01339 0.82664 0.68071 0.0
H859 H 0.97602 0.81749 0.67505 0.0
H860 H 0.98685 0.83832 0.74595 0.0
H861 H 0.99792 0.88143 0.40154 0.0
H862 H 0.96958 0.91081 0.38832 0.0
H863 H 0.95997 0.87354 0.40245 0.0
C864 C 0.73004 0.96528 0.41781 0.0
C865 C 0.73466 0.99345 0.38223 0.0
C866 C 0.70834 0.96067 0.47307 0.0
C867 C 0.69058 0.98476 0.49097 0.0
C868 C 0.69806 0.01333 0.4626 0.0
C869 C 0.7203 0.01731 0.40886 0.0
C870 C 0.70215 0.92994 0.50559 0.0
C871 C 0.68003 0.03966 0.48096 0.0
C872 C 0.60838 0.97588 0.50735 0.0
C873 C 0.60356 0.97719 0.58337 0.0
C874 C 0.63673 0.97789 0.47716 0.0
C875 C 0.66104 0.98032 0.52484 0.0
C876 C 0.65643 0.98025 0.60257 0.0
C877 C 0.62761 0.97927 0.63062 0.0
C878 C 0.64045 0.97848 0.39359 0.0
C879 C 0.68154 0.98201 0.65614 0.0
H880 H 0.74101 0.94682 0.39674 0.0
H881 H 0.72374 0.03908 0.3806 0.0
H882 H 0.69667 0.92841 0.56603 0.0
H883 H 0.68289 0.92335 0.47602 0.0
H884 H 0.72128 0.91439 0.49924 0.0
H885 H 0.69085 0.06013 0.46205 0.0
H886 H 0.65813 0.04116 0.45274 0.0
H887 H 0.67627 0.03768 0.54224 0.0
H888 H 0.5897 0.9745 0.471 0.0
H889 H 0.62383 0.98001 0.6897 0.0
H890 H 0.65614 0.96035 0.38283 0.0
H891 H 0.64981 0.99909 0.36841 0.0
H892 H 0.61927 0.97665 0.36443 0.0
H893 H 0.67666 0.9711 0.71361 0.0
H894 H 0.68458 0.00518 0.65942 0.0
H895 H 0.70257 0.97199 0.63763 0.0
C896 C 0.52124 0.70117 0.36323 0.0
C897 C 0.49517 0.71932 0.35603 0.0
C898 C 0.52548 0.67817 0.42314 0.0
C899 C 0.5034 0.67369 0.4783 0.0
C900 C 0.4788 0.69426 0.47624 0.0
C901 C 0.47473 0.71665 0.41434 0.0
C902 C 0.55182 0.65668 0.42197 0.0
C903 C 0.4553 0.69097 0.5354 0.0
C904 C 0.48955 0.59527 0.55692 0.0
C905 C 0.50537 0.59093 0.62483 0.0
C906 C 0.48906 0.622 0.5086 0.0
C907 C 0.50377 0.64538 0.53013 0.0
C908 C 0.51929 0.64124 0.59954 0.0
C909 C 0.52036 0.61389 0.64542 0.0
C910 C 0.47289 0.62515 0.4342 0.0
C911 C 0.53431 0.66581 0.62589 0.0
H912 H 0.53675 0.7029 0.31728 0.0
H913 H 0.45433 0.73031 0.40823 0.0
H914 H 0.56196 0.65066 0.47865 0.0
H915 H 0.5445 0.63648 0.4044 0.0
H916 H 0.5689 0.66538 0.38223 0.0
H917 H 0.44126 0.71147 0.5348 0.0
H918 H 0.44094 0.67369 0.52482 0.0
H919 H 0.46531 0.6844 0.59217 0.0
H920 H 0.47784 0.57757 0.54118 0.0
H921 H 0.53213 0.61073 0.69873 0.0
H922 H 0.48804 0.63206 0.38758 0.0
H923 H 0.45457 0.64225 0.43186 0.0
H924 H 0.46362 0.60457 0.4246 0.0
H925 H 0.55184 0.67317 0.58609 0.0
H926 H 0.54433 0.6594 0.68279 0.0
H927 H 0.51816 0.68468 0.62703 0.0
C928 C 0.79805 0.52513 0.50819 0.0
C929 C 0.80225 0.53718 0.43332 0.0
C930 C 0.81721 0.53071 0.56463 0.0
C931 C 0.84102 0.54835 0.54467 0.0
C932 C 0.84236 0.56395 0.47105 0.0
C933 C 0.82288 0.5581 0.41598 0.0
C934 C 0.81445 0.51447 0.64312 0.0
C935 C 0.86705 0.58333 0.44748 0.0
C936 C 0.90057 0.55768 0.6863 0.0
C937 C 0.92099 0.53459 0.67693 0.0
C938 C 0.87405 0.56246 0.64448 0.0
C939 C 0.86819 0.54384 0.59196 0.0
C940 C 0.88897 0.52071 0.58201 0.0
C941 C 0.91494 0.51631 0.62488 0.0
C942 C 0.85221 0.58699 0.65746 0.0
C943 C 0.88394 0.50057 0.5256 0.0
H944 H 0.78195 0.50904 0.52138 0.0
H945 H 0.82584 0.56753 0.35781 0.0
H946 H 0.82989 0.49473 0.65044 0.0
H947 H 0.82034 0.52805 0.68558 0.0
H948 H 0.79174 0.50753 0.6539 0.0
H949 H 0.86144 0.59847 0.39477 0.0
H950 H 0.87233 0.5962 0.49201 0.0
H951 H 0.88717 0.56963 0.4376 0.0
H952 H 0.9051 0.5717 0.72706 0.0
H953 H 0.93073 0.49855 0.61703 0.0
H954 H 0.83278 0.57783 0.68711 0.0
H955 H 0.84417 0.59976 0.60334 0.0
H956 H 0.86182 0.6019 0.69193 0.0
H957 H 0.8635 0.48923 0.53916 0.0
H958 H 0.90252 0.48387 0.52445 0.0
H959 H 0.88107 0.51327 0.46842 0.0
loop_
_geom_bond_atom_site_label_1
_geom_bond_atom_site_label_2
_geom_bond_distance
_geom_bond_site_symmetry_2
_ccdc_geom_bond_type
H0 C3 0.931 . S
H1 C6 0.928 . S
H2 C8 0.930 . S
C3 H0 0.931 . S
C3 C4 1.413 . S
C3 C5 1.360 . S
C4 C3 1.413 . S
C4 C8 1.429 . S
C5 C3 1.360 . S
C5 C6 1.372 . S
C6 H1 0.928 . S
C6 C5 1.372 . S
C6 C7 1.404 . S
C7 C6 1.404 . S
C7 C8 1.391 . S
C8 H2 0.930 . S
C8 C4 1.429 . S
C8 C7 1.391 . S
H9 C12 0.931 . S
H10 C15 0.928 . S
H11 C17 0.931 . S
C12 H9 0.931 . S
C12 C13 1.414 . S
C12 C14 1.360 . S
C13 C12 1.414 . S
C13 C17 1.430 1_655 S
C14 C12 1.360 . S
C14 C15 1.374 . S
C15 H10 0.928 . S
C15 C14 1.374 . S
C15 C16 1.403 . S
C16 C15 1.403 . S
C16 C17 1.390 1_655 S
C17 H11 0.931 . S
C17 C13 1.430 1_455 S
C17 C16 1.390 1_455 S
H18 C21 0.931 . S
H19 C24 0.928 1_556 S
H20 C26 0.930 . S
C21 H18 0.931 . S
C21 C22 1.413 . S
C21 C23 1.360 . S
C22 C21 1.413 . S
C22 C26 1.429 . S
C23 C21 1.360 . S
C23 C24 1.372 . S
C24 H19 0.928 1_554 S
C24 C23 1.372 . S
C24 C25 1.404 . S
C25 C24 1.404 . S
C25 C26 1.391 . S
C26 H20 0.930 . S
C26 C22 1.429 . S
C26 C25 1.391 . S
H27 C30 0.931 . S
H28 C33 0.928 . S
H29 C35 0.930 . S
C30 H27 0.931 . S
C30 C31 1.413 . S
C30 C32 1.360 . S
C31 C30 1.413 . S
C31 C35 1.429 . S
C32 C30 1.360 . S
C32 C33 1.372 . S
C33 H28 0.928 . S
C33 C32 1.372 . S
C33 C34 1.404 . S
C34 C33 1.404 . S
C34 C35 1.391 . S
C35 H29 0.930 . S
C35 C31 1.429 . S
C35 C34 1.391 . S
H36 C39 0.931 . S
H37 C42 0.928 . S
H38 C44 0.930 . S
C39 H36 0.931 . S
C39 C40 1.413 . S
C39 C41 1.360 . S
C40 C39 1.413 . S
C40 C44 1.429 . S
C41 C39 1.360 . S
C41 C42 1.372 . S
C42 H37 0.928 . S
C42 C41 1.372 . S
C42 C43 1.404 . S
C43 C42 1.404 . S
C43 C44 1.391 . S
C44 H38 0.930 . S
C44 C40 1.429 . S
C44 C43 1.391 . S
H45 C48 0.930 . S
H46 C51 0.928 . S
H47 C53 0.928 . S
C48 H45 0.930 . S
C48 C49 1.413 . S
C48 C50 1.360 . S
C49 C48 1.413 . S
C49 C53 1.428 1_655 S
C50 C48 1.360 . S
C50 C51 1.371 . S
C51 H46 0.928 . S
C51 C50 1.371 . S
C51 C52 1.404 . S
C52 C51 1.404 . S
C52 C53 1.391 1_655 S
C53 H47 0.928 . S
C53 C49 1.428 1_455 S
C53 C52 1.391 1_455 S
H54 C57 0.931 . S
H55 C60 0.928 . S
H56 C62 0.930 . S
C57 H54 0.931 . S
C57 C58 1.413 . S
C57 C59 1.360 . S
C58 C57 1.413 . S
C58 C62 1.429 . S
C59 C57 1.360 . S
C59 C60 1.372 . S
C60 H55 0.928 . S
C60 C59 1.372 . S
C60 C61 1.404 . S
C61 C60 1.404 . S
C61 C62 1.391 . S
C62 H56 0.930 . S
C62 C58 1.429 . S
C62 C61 1.391 . S
H63 C66 0.931 . S
H64 C69 0.928 . S
H65 C71 0.930 . S
C66 H63 0.931 . S
C66 C67 1.413 . S
C66 C68 1.360 . S
C67 C66 1.413 . S
C67 C71 1.429 . S
C68 C66 1.360 . S
C68 C69 1.372 . S
C69 H64 0.928 . S
C69 C68 1.372 . S
C69 C70 1.404 . S
C70 C69 1.404 . S
C70 C71 1.391 . S
C71 H65 0.930 . S
C71 C67 1.429 . S
C71 C70 1.391 . S
Co72 N77 2.057 . S
Co72 O89 2.021 . S
Co72 O92 2.062 1_455 S
Co72 O96 2.117 1_455 S
Co72 O97 2.020 1_545 S
C73 O93 1.259 1_545 S
C73 O96 1.258 . S
Co74 N83 2.038 1_545 S
Co74 O90 2.126 1_655 S
Co74 O91 2.054 . S
Co74 O93 2.017 1_545 S
Co74 O98 2.035 1_645 S
C75 N77 1.316 . S
C75 N78 1.347 1_556 S
C75 H80 0.931 . S
C76 N77 1.375 1_655 S
C76 C79 1.350 1_556 S
C76 H81 0.930 . S
N77 Co72 2.057 . S
N77 C75 1.316 . S
N77 C76 1.375 1_455 S
N78 C75 1.347 1_554 S
N78 C79 1.373 1_455 S
C79 C76 1.350 1_554 S
C79 N78 1.373 1_655 S
C79 H100 0.931 . S
H80 C75 0.931 . S
H81 C76 0.930 . S
C82 O89 1.259 . S
C82 O90 1.258 . S
N83 Co74 2.038 1_565 S
N83 C84 1.345 . S
N83 C85 1.342 1_655 S
C84 N83 1.345 . S
C84 N86 1.347 . S
C84 H95 0.931 . S
C85 N83 1.342 1_455 S
C85 C87 1.350 . S
C85 H94 0.930 . S
N86 C84 1.347 . S
N86 C87 1.373 1_655 S
C87 C85 1.350 . S
C87 N86 1.373 1_455 S
C87 H101 0.931 . S
C88 O91 1.256 . S
C88 O92 1.255 . S
O89 Co72 2.021 . S
O89 C82 1.259 . S
O90 Co74 2.126 1_455 S
O90 C82 1.258 . S
O91 Co74 2.054 . S
O91 C88 1.256 . S
O92 Co72 2.062 1_655 S
O92 C88 1.255 . S
O93 C73 1.259 1_565 S
O93 Co74 2.017 1_565 S
H94 C85 0.930 . S
H95 C84 0.931 . S
O96 Co72 2.117 1_655 S
O96 C73 1.258 . S
O97 Co72 2.020 1_565 S
O97 C99 1.256 . S
O98 Co74 2.035 1_465 S
O98 C99 1.255 . S
C99 O97 1.256 . S
C99 O98 1.255 . S
H100 C79 0.931 . S
H101 C87 0.931 . S
Co102 N107 2.057 . S
Co102 O119 2.021 . S
Co102 O122 2.062 . S
Co102 O126 2.117 1_545 S
Co102 O127 2.020 . S
C103 O123 1.259 . S
C103 O126 1.258 . S
Co104 N113 2.057 . S
Co104 O120 2.117 . S
Co104 O121 2.020 . S
Co104 O123 2.021 1_545 S
Co104 O128 2.062 1_545 S
C105 N107 1.316 . S
C105 N108 1.347 1_556 S
C105 H110 0.931 . S
C106 N107 1.375 . S
C106 C109 1.350 1_556 S
C106 H111 0.930 1_545 S
N107 Co102 2.057 . S
N107 C105 1.316 . S
N107 C106 1.375 . S
N108 C105 1.347 1_554 S
N108 C109 1.373 . S
C109 C106 1.350 1_554 S
C109 N108 1.373 . S
C109 H130 0.931 . S
H110 C105 0.931 . S
H111 C106 0.930 1_565 S
C112 O119 1.259 . S
C112 O120 1.258 . S
N113 Co104 2.057 . S
N113 C114 1.316 1_545 S
N113 C115 1.375 . S
C114 N113 1.316 1_565 S
C114 N116 1.347 . S
C114 H125 0.931 . S
C115 N113 1.375 . S
C115 C117 1.350 . S
C115 H124 0.930 . S
N116 C114 1.347 . S
N116 C117 1.373 1_565 S
C117 C115 1.350 . S
C117 N116 1.373 1_545 S
C117 H131 0.931 . S
C118 O121 1.256 . S
C118 O122 1.255 . S
O119 Co102 2.021 . S
O119 C112 1.259 . S
O120 Co104 2.117 . S
O120 C112 1.258 . S
O121 Co104 2.020 . S
O121 C118 1.256 . S
O122 Co102 2.062 . S
O122 C118 1.255 . S
O123 C103 1.259 . S
O123 Co104 2.021 1_565 S
H124 C115 0.930 . S
H125 C114 0.931 . S
O126 Co102 2.117 1_565 S
O126 C103 1.258 . S
O127 Co102 2.020 . S
O127 C129 1.256 . S
O128 Co104 2.062 1_565 S
O128 C129 1.255 1_565 S
C129 O127 1.256 . S
C129 O128 1.255 1_545 S
H130 C109 0.931 . S
H131 C117 0.931 . S
Co132 N137 2.057 . S
Co132 O149 2.021 . S
Co132 O152 2.062 . S
Co132 O156 2.117 . S
Co132 O157 2.020 . S
C133 O153 1.259 . S
C133 O156 1.258 . S
Co134 N143 2.057 . S
Co134 O150 2.117 . S
Co134 O151 2.020 . S
Co134 O153 2.021 . S
Co134 O158 2.062 . S
C135 N137 1.316 . S
C135 N138 1.347 . S
C135 H140 0.931 . S
C136 N137 1.375 . S
C136 C139 1.350 . S
C136 H141 0.930 . S
N137 Co132 2.057 . S
N137 C135 1.316 . S
N137 C136 1.375 . S
N138 C135 1.347 . S
N138 C139 1.373 . S
C139 C136 1.350 . S
C139 N138 1.373 . S
C139 H160 0.931 . S
H140 C135 0.931 . S
H141 C136 0.930 . S
C142 O149 1.259 . S
C142 O150 1.258 . S
N143 Co134 2.057 . S
N143 C144 1.316 . S
N143 C145 1.375 . S
C144 N143 1.316 . S
C144 N146 1.347 . S
C144 H155 0.931 . S
C145 N143 1.375 . S
C145 C147 1.350 . S
C145 H154 0.930 . S
N146 C144 1.347 . S
N146 C147 1.373 . S
C147 C145 1.350 . S
C147 N146 1.373 . S
C147 H161 0.931 . S
C148 O151 1.256 . S
C148 O152 1.255 . S
O149 Co132 2.021 . S
O149 C142 1.259 . S
O150 Co134 2.117 . S
O150 C142 1.258 . S
O151 Co134 2.020 . S
O151 C148 1.256 . S
O152 Co132 2.062 . S
O152 C148 1.255 . S
O153 C133 1.259 . S
O153 Co134 2.021 . S
H154 C145 0.930 . S
H155 C144 0.931 . S
O156 Co132 2.117 . S
O156 C133 1.258 . S
O157 Co132 2.020 . S
O157 C159 1.256 . S
O158 Co134 2.062 . S
O158 C159 1.255 . S
C159 O157 1.256 . S
C159 O158 1.255 . S
H160 C139 0.931 . S
H161 C147 0.931 . S
Co162 N167 2.057 . S
Co162 O179 2.021 1_455 S
Co162 O182 2.062 1_455 S
Co162 O186 2.117 . S
Co162 O187 2.020 . S
C163 O183 1.259 . S
C163 O186 1.258 . S
Co164 N173 2.057 . S
Co164 O180 2.117 . S
Co164 O181 2.020 . S
Co164 O183 2.021 1_655 S
Co164 O188 2.062 1_655 S
C165 N167 1.316 . S
C165 N168 1.347 . S
C165 H170 0.931 1_455 S
C166 N167 1.375 . S
C166 C169 1.350 . S
C166 H171 0.930 . S
N167 Co162 2.057 . S
N167 C165 1.316 . S
N167 C166 1.375 . S
N168 C165 1.347 . S
N168 C169 1.373 . S
C169 C166 1.350 . S
C169 N168 1.373 . S
C169 H190 0.931 . S
H170 C165 0.931 1_655 S
H171 C166 0.930 . S
C172 O179 1.259 . S
C172 O180 1.258 . S
N173 Co164 2.057 . S
N173 C174 1.316 . S
N173 C175 1.375 . S
C174 N173 1.316 . S
C174 N176 1.347 . S
C174 H185 0.931 1_655 S
C175 N173 1.375 . S
C175 C177 1.350 . S
C175 H184 0.930 . S
N176 C174 1.347 . S
N176 C177 1.373 . S
C177 C175 1.350 . S
C177 N176 1.373 . S
C177 H191 0.931 . S
C178 O181 1.256 . S
C178 O182 1.255 . S
O179 Co162 2.021 1_655 S
O179 C172 1.259 . S
O180 Co164 2.117 . S
O180 C172 1.258 . S
O181 Co164 2.020 . S
O181 C178 1.256 . S
O182 Co162 2.062 1_655 S
O182 C178 1.255 . S
O183 C163 1.259 . S
O183 Co164 2.021 1_455 S
H184 C175 0.930 . S
H185 C174 0.931 1_455 S
O186 Co162 2.117 . S
O186 C163 1.258 . S
O187 Co162 2.020 . S
O187 C189 1.256 . S
O188 Co164 2.062 1_455 S
O188 C189 1.255 . S
C189 O187 1.256 . S
C189 O188 1.255 . S
H190 C169 0.931 . S
H191 C177 0.931 . S
C192 C193 1.391 . S
C192 C194 1.394 . S
C192 H208 0.931 . S
C193 C192 1.391 . S
C193 C197 1.376 . S
C194 C192 1.394 . S
C194 C195 1.369 . S
C194 C198 1.531 . S
C195 C194 1.369 . S
C195 C196 1.410 . S
C195 C203 1.503 . S
C196 C195 1.410 . S
C196 C197 1.392 . S
C196 C199 1.511 . S
C197 C193 1.376 . S
C197 C196 1.392 . S
C197 H209 0.929 . S
C198 C194 1.531 . S
C198 H210 0.960 . S
C198 H211 0.962 . S
C198 H212 0.960 . S
C199 C196 1.511 . S
C199 H213 0.961 . S
C199 H214 0.961 . S
C199 H215 0.961 . S
C200 C201 1.370 . S
C200 C202 1.363 . S
C200 H216 0.931 1_545 S
C201 C200 1.370 . S
C201 C205 1.408 . S
C202 C200 1.363 . S
C202 C203 1.370 . S
C202 C206 1.524 . S
C203 C195 1.503 . S
C203 C202 1.370 . S
C203 C204 1.403 . S
C204 C203 1.403 . S
C204 C205 1.404 . S
C204 C207 1.539 . S
C205 C201 1.408 . S
C205 C204 1.404 . S
C205 H217 0.930 . S
C206 C202 1.524 . S
C206 H218 0.956 . S
C206 H219 0.961 . S
C206 H220 0.961 1_545 S
C207 C204 1.539 . S
C207 H221 0.958 . S
C207 H222 0.961 . S
C207 H223 0.960 . S
H208 C192 0.931 . S
H209 C197 0.929 . S
H210 C198 0.960 . S
H211 C198 0.962 . S
H212 C198 0.960 . S
H213 C199 0.961 . S
H214 C199 0.961 . S
H215 C199 0.961 . S
H216 C200 0.931 1_565 S
H217 C205 0.930 . S
H218 C206 0.956 . S
H219 C206 0.961 . S
H220 C206 0.961 1_565 S
H221 C207 0.958 . S
H222 C207 0.961 . S
H223 C207 0.960 . S
C224 C225 1.391 . S
C224 C226 1.394 . S
C224 H240 0.931 . S
C225 C224 1.391 . S
C225 C229 1.376 . S
C226 C224 1.394 . S
C226 C227 1.369 . S
C226 C230 1.531 . S
C227 C226 1.369 . S
C227 C228 1.410 . S
C227 C235 1.503 . S
C228 C227 1.410 . S
C228 C229 1.392 . S
C228 C231 1.511 . S
C229 C225 1.376 . S
C229 C228 1.392 . S
C229 H241 0.929 . S
C230 C226 1.531 . S
C230 H242 0.960 . S
C230 H243 0.962 . S
C230 H244 0.960 . S
C231 C228 1.511 . S
C231 H245 0.961 . S
C231 H246 0.961 . S
C231 H247 0.961 . S
C232 C233 1.370 . S
C232 C234 1.363 . S
C232 H248 0.931 . S
C233 C232 1.370 . S
C233 C237 1.408 . S
C234 C232 1.363 . S
C234 C235 1.370 . S
C234 C238 1.524 . S
C235 C227 1.503 . S
C235 C234 1.370 . S
C235 C236 1.403 . S
C236 C235 1.403 . S
C236 C237 1.404 . S
C236 C239 1.539 . S
C237 C233 1.408 . S
C237 C236 1.404 . S
C237 H249 0.930 . S
C238 C234 1.524 . S
C238 H250 0.956 . S
C238 H251 0.961 . S
C238 H252 0.961 . S
C239 C236 1.539 . S
C239 H253 0.958 . S
C239 H254 0.961 . S
C239 H255 0.960 . S
H240 C224 0.931 . S
H241 C229 0.929 . S
H242 C230 0.960 . S
H243 C230 0.962 . S
H244 C230 0.960 . S
H245 C231 0.961 . S
H246 C231 0.961 . S
H247 C231 0.961 . S
H248 C232 0.931 . S
H249 C237 0.930 . S
H250 C238 0.956 . S
H251 C238 0.961 . S
H252 C238 0.961 . S
H253 C239 0.958 . S
H254 C239 0.961 . S
H255 C239 0.960 . S
C256 C257 1.391 . S
C256 C258 1.394 . S
C256 H272 0.931 . S
C257 C256 1.391 . S
C257 C261 1.376 . S
C258 C256 1.394 . S
C258 C259 1.369 . S
C258 C262 1.531 . S
C259 C258 1.369 . S
C259 C260 1.410 . S
C259 C267 1.503 . S
C260 C259 1.410 . S
C260 C261 1.392 . S
C260 C263 1.511 . S
C261 C257 1.376 . S
C261 C260 1.392 . S
C261 H273 0.929 . S
C262 C258 1.531 . S
C262 H274 0.960 . S
C262 H275 0.962 . S
C262 H276 0.960 . S
C263 C260 1.511 . S
C263 H277 0.961 . S
C263 H278 0.961 . S
C263 H279 0.961 . S
C264 C265 1.370 . S
C264 C266 1.363 . S
C264 H280 0.931 . S
C265 C264 1.370 . S
C265 C269 1.408 . S
C266 C264 1.363 . S
C266 C267 1.370 . S
C266 C270 1.524 . S
C267 C259 1.503 . S
C267 C266 1.370 . S
C267 C268 1.403 . S
C268 C267 1.403 . S
C268 C269 1.404 . S
C268 C271 1.539 . S
C269 C265 1.408 . S
C269 C268 1.404 . S
C269 H281 0.930 . S
C270 C266 1.524 . S
C270 H282 0.956 . S
C270 H283 0.961 . S
C270 H284 0.961 . S
C271 C268 1.539 . S
C271 H285 0.958 . S
C271 H286 0.961 . S
C271 H287 0.960 . S
H272 C256 0.931 . S
H273 C261 0.929 . S
H274 C262 0.960 . S
H275 C262 0.962 . S
H276 C262 0.960 . S
H277 C263 0.961 . S
H278 C263 0.961 . S
H279 C263 0.961 . S
H280 C264 0.931 . S
H281 C269 0.930 . S
H282 C270 0.956 . S
H283 C270 0.961 . S
H284 C270 0.961 . S
H285 C271 0.958 . S
H286 C271 0.961 . S
H287 C271 0.960 . S
C288 C289 1.391 1_455 S
C288 C290 1.394 . S
C288 H304 0.931 . S
C289 C288 1.391 1_655 S
C289 C293 1.376 . S
C290 C288 1.394 . S
C290 C291 1.369 1_455 S
C290 C294 1.531 . S
C291 C290 1.369 1_655 S
C291 C292 1.410 . S
C291 C299 1.503 . S
C292 C291 1.410 . S
C292 C293 1.392 . S
C292 C295 1.511 . S
C293 C289 1.376 . S
C293 C292 1.392 . S
C293 H305 0.929 . S
C294 C290 1.531 . S
C294 H306 0.960 . S
C294 H307 0.962 . S
C294 H308 0.960 . S
C295 C292 1.511 . S
C295 H309 0.961 . S
C295 H310 0.961 . S
C295 H311 0.961 . S
C296 C297 1.370 . S
C296 C298 1.363 . S
C296 H312 0.931 . S
C297 C296 1.370 . S
C297 C301 1.408 . S
C298 C296 1.363 . S
C298 C299 1.370 . S
C298 C302 1.524 1_655 S
C299 C291 1.503 . S
C299 C298 1.370 . S
C299 C300 1.403 . S
C300 C299 1.403 . S
C300 C301 1.404 . S
C300 C303 1.539 . S
C301 C297 1.408 . S
C301 C300 1.404 . S
C301 H313 0.930 . S
C302 C298 1.524 1_455 S
C302 H314 0.956 . S
C302 H315 0.961 1_455 S
C302 H316 0.961 . S
C303 C300 1.539 . S
C303 H317 0.958 . S
C303 H318 0.961 . S
C303 H319 0.960 . S
H304 C288 0.931 . S
H305 C293 0.929 . S
H306 C294 0.960 . S
H307 C294 0.962 . S
H308 C294 0.960 . S
H309 C295 0.961 . S
H310 C295 0.961 . S
H311 C295 0.961 . S
H312 C296 0.931 . S
H313 C301 0.930 . S
H314 C302 0.956 . S
H315 C302 0.961 1_655 S
H316 C302 0.961 . S
H317 C303 0.958 . S
H318 C303 0.961 . S
H319 C303 0.960 . S
C320 C321 1.391 . S
C320 C322 1.394 1_554 S
C320 H336 0.931 . S
C321 C320 1.391 . S
C321 C325 1.376 . S
C322 C320 1.394 1_556 S
C322 C323 1.369 . S
C322 C326 1.531 1_565 S
C323 C322 1.369 . S
C323 C324 1.410 1_556 S
C323 C331 1.503 . S
C324 C323 1.410 1_554 S
C324 C325 1.392 . S
C324 C327 1.511 . S
C325 C321 1.376 . S
C325 C324 1.392 . S
C325 H337 0.929 . S
C326 C322 1.531 1_545 S
C326 H338 0.960 . S
C326 H339 0.962 . S
C326 H340 0.960 . S
C327 C324 1.511 . S
C327 H341 0.961 . S
C327 H342 0.961 1_554 S
C327 H343 0.961 . S
C328 C329 1.370 . S
C328 C330 1.363 . S
C328 H344 0.931 . S
C329 C328 1.370 . S
C329 C333 1.408 1_565 S
C330 C328 1.363 . S
C330 C331 1.370 . S
C330 C334 1.524 . S
C331 C323 1.503 . S
C331 C330 1.370 . S
C331 C332 1.403 . S
C332 C331 1.403 . S
C332 C333 1.404 1_565 S
C332 C335 1.539 1_566 S
C333 C329 1.408 1_545 S
C333 C332 1.404 1_545 S
C333 H345 0.930 . S
C334 C330 1.524 . S
C334 H346 0.956 . S
C334 H347 0.961 . S
C334 H348 0.961 . S
C335 C332 1.539 1_544 S
C335 H349 0.958 . S
C335 H350 0.961 . S
C335 H351 0.960 1_545 S
H336 C320 0.931 . S
H337 C325 0.929 . S
H338 C326 0.960 . S
H339 C326 0.962 . S
H340 C326 0.960 . S
H341 C327 0.961 . S
H342 C327 0.961 1_556 S
H343 C327 0.961 . S
H344 C328 0.931 . S
H345 C333 0.930 . S
H346 C334 0.956 . S
H347 C334 0.961 . S
H348 C334 0.961 . S
H349 C335 0.958 . S
H350 C335 0.961 . S
H351 C335 0.960 1_565 S
C352 C353 1.391 . S
C352 C354 1.394 1_554 S
C352 H368 0.931 . S
C353 C352 1.391 . S
C353 C357 1.376 . S
C354 C352 1.394 1_556 S
C354 C355 1.369 . S
C354 C358 1.531 . S
C355 C354 1.369 . S
C355 C356 1.410 1_556 S
C355 C363 1.503 . S
C356 C355 1.410 1_554 S
C356 C357 1.392 . S
C356 C359 1.511 . S
C357 C353 1.376 . S
C357 C356 1.392 . S
C357 H369 0.929 . S
C358 C354 1.531 . S
C358 H370 0.960 . S
C358 H371 0.962 . S
C358 H372 0.960 . S
C359 C356 1.511 . S
C359 H373 0.961 . S
C359 H374 0.961 . S
C359 H375 0.961 . S
C360 C361 1.370 . S
C360 C362 1.363 . S
C360 H376 0.931 . S
C361 C360 1.370 . S
C361 C365 1.408 . S
C362 C360 1.363 . S
C362 C363 1.370 . S
C362 C366 1.524 1_556 S
C363 C355 1.503 . S
C363 C362 1.370 . S
C363 C364 1.403 . S
C364 C363 1.403 . S
C364 C365 1.404 . S
C364 C367 1.539 . S
C365 C361 1.408 . S
C365 C364 1.404 . S
C365 H377 0.930 . S
C366 C362 1.524 1_554 S
C366 H378 0.956 . S
C366 H379 0.961 . S
C366 H380 0.961 . S
C367 C364 1.539 . S
C367 H381 0.958 . S
C367 H382 0.961 . S
C367 H383 0.960 . S
H368 C352 0.931 . S
H369 C357 0.929 . S
H370 C358 0.960 . S
H371 C358 0.962 . S
H372 C358 0.960 . S
H373 C359 0.961 . S
H374 C359 0.961 . S
H375 C359 0.961 . S
H376 C360 0.931 . S
H377 C365 0.930 . S
H378 C366 0.956 . S
H379 C366 0.961 . S
H380 C366 0.961 . S
H381 C367 0.958 . S
H382 C367 0.961 . S
H383 C367 0.960 . S
C384 C385 1.391 . S
C384 C386 1.394 1_554 S
C384 H400 0.931 . S
C385 C384 1.391 . S
C385 C389 1.376 . S
C386 C384 1.394 1_556 S
C386 C387 1.369 . S
C386 C390 1.531 . S
C387 C386 1.369 . S
C387 C388 1.410 1_556 S
C387 C395 1.503 . S
C388 C387 1.410 1_554 S
C388 C389 1.392 . S
C388 C391 1.511 . S
C389 C385 1.376 . S
C389 C388 1.392 . S
C389 H401 0.929 . S
C390 C386 1.531 . S
C390 H402 0.960 . S
C390 H403 0.962 . S
C390 H404 0.960 . S
C391 C388 1.511 . S
C391 H405 0.961 . S
C391 H406 0.961 . S
C391 H407 0.961 . S
C392 C393 1.370 . S
C392 C394 1.363 . S
C392 H408 0.931 . S
C393 C392 1.370 . S
C393 C397 1.408 . S
C394 C392 1.363 . S
C394 C395 1.370 . S
C394 C398 1.524 1_556 S
C395 C387 1.503 . S
C395 C394 1.370 . S
C395 C396 1.403 . S
C396 C395 1.403 . S
C396 C397 1.404 . S
C396 C399 1.539 . S
C397 C393 1.408 . S
C397 C396 1.404 . S
C397 H409 0.930 . S
C398 C394 1.524 1_554 S
C398 H410 0.956 . S
C398 H411 0.961 . S
C398 H412 0.961 . S
C399 C396 1.539 . S
C399 H413 0.958 . S
C399 H414 0.961 . S
C399 H415 0.960 . S
H400 C384 0.931 . S
H401 C389 0.929 . S
H402 C390 0.960 . S
H403 C390 0.962 . S
H404 C390 0.960 . S
H405 C391 0.961 . S
H406 C391 0.961 . S
H407 C391 0.961 . S
H408 C392 0.931 . S
H409 C397 0.930 . S
H410 C398 0.956 . S
H411 C398 0.961 . S
H412 C398 0.961 . S
H413 C399 0.958 . S
H414 C399 0.961 . S
H415 C399 0.960 . S
C416 C417 1.391 1_455 S
C416 C418 1.394 . S
C416 H432 0.931 . S
C417 C416 1.391 1_655 S
C417 C421 1.376 . S
C418 C416 1.394 . S
C418 C419 1.369 1_554 S
C418 C422 1.531 . S
C419 C418 1.369 1_556 S
C419 C420 1.409 1_455 S
C419 C427 1.504 . S
C420 C419 1.409 1_655 S
C420 C421 1.392 1_556 S
C420 C423 1.511 . S
C421 C417 1.376 . S
C421 C420 1.392 1_554 S
C421 H433 0.929 1_554 S
C422 C418 1.531 . S
C422 H434 0.960 1_455 S
C422 H435 0.962 . S
C422 H436 0.960 1_455 S
C423 C420 1.511 . S
C423 H437 0.962 1_655 S
C423 H438 0.961 1_655 S
C423 H439 0.961 . S
C424 C425 1.370 . S
C424 C426 1.363 . S
C424 H440 0.931 . S
C425 C424 1.370 . S
C425 C429 1.408 1_455 S
C426 C424 1.363 . S
C426 C427 1.370 . S
C426 C430 1.524 . S
C427 C419 1.504 . S
C427 C426 1.370 . S
C427 C428 1.403 1_455 S
C428 C427 1.403 1_655 S
C428 C429 1.404 . S
C428 C431 1.539 . S
C429 C425 1.408 1_655 S
C429 C428 1.404 . S
C429 H441 0.930 . S
C430 C426 1.524 . S
C430 H442 0.956 1_556 S
C430 H443 0.961 . S
C430 H444 0.961 . S
C431 C428 1.539 . S
C431 H445 0.958 . S
C431 H446 0.961 . S
C431 H447 0.960 . S
H432 C416 0.931 . S
H433 C421 0.929 1_556 S
H434 C422 0.960 1_655 S
H435 C422 0.962 . S
H436 C422 0.960 1_655 S
H437 C423 0.962 1_455 S
H438 C423 0.961 1_455 S
H439 C423 0.961 . S
H440 C424 0.931 . S
H441 C429 0.930 . S
H442 C430 0.956 1_554 S
H443 C430 0.961 . S
H444 C430 0.961 . S
H445 C431 0.958 . S
H446 C431 0.961 . S
H447 C431 0.960 . S
C448 C449 1.402 . S
C448 C450 1.394 . S
C448 H464 0.931 . S
C449 C448 1.402 . S
C449 C453 1.358 1_455 S
C450 C448 1.394 . S
C450 C451 1.369 1_455 S
C450 C454 1.531 . S
C451 C450 1.369 1_655 S
C451 C452 1.410 . S
C451 C459 1.503 . S
C452 C451 1.410 . S
C452 C453 1.392 . S
C452 C455 1.511 . S
C453 C449 1.358 1_655 S
C453 C452 1.392 . S
C453 H465 0.929 . S
C454 C450 1.531 . S
C454 H466 0.960 . S
C454 H467 0.962 . S
C454 H468 0.960 . S
C455 C452 1.511 . S
C455 H469 0.961 . S
C455 H470 0.961 . S
C455 H471 0.961 . S
C456 C457 1.370 1_455 S
C456 C458 1.363 . S
C456 H472 0.931 . S
C457 C456 1.370 1_655 S
C457 C461 1.408 . S
C458 C456 1.363 . S
C458 C459 1.370 1_455 S
C458 C462 1.524 . S
C459 C451 1.503 . S
C459 C458 1.370 1_655 S
C459 C460 1.403 . S
C460 C459 1.403 . S
C460 C461 1.404 . S
C460 C463 1.539 . S
C461 C457 1.408 . S
C461 C460 1.404 . S
C461 H473 0.930 . S
C462 C458 1.524 . S
C462 H474 0.956 . S
C462 H475 0.961 . S
C462 H476 0.961 . S
C463 C460 1.539 . S
C463 H477 0.958 . S
C463 H478 0.961 . S
C463 H479 0.960 . S
H464 C448 0.931 . S
H465 C453 0.929 . S
H466 C454 0.960 . S
H467 C454 0.962 . S
H468 C454 0.960 . S
H469 C455 0.961 . S
H470 C455 0.961 . S
H471 C455 0.961 . S
H472 C456 0.931 . S
H473 C461 0.930 . S
H474 C462 0.956 . S
H475 C462 0.961 . S
H476 C462 0.961 . S
H477 C463 0.958 . S
H478 C463 0.961 . S
H479 C463 0.960 . S
C480 C481 1.391 . S
C480 C482 1.394 . S
C480 H496 0.931 . S
C481 C480 1.391 . S
C481 C485 1.376 . S
C482 C480 1.394 . S
C482 C483 1.369 . S
C482 C486 1.531 . S
C483 C482 1.369 . S
C483 C484 1.410 . S
C483 C491 1.503 . S
C484 C483 1.410 . S
C484 C485 1.392 . S
C484 C487 1.511 . S
C485 C481 1.376 . S
C485 C484 1.392 . S
C485 H497 0.929 . S
C486 C482 1.531 . S
C486 H498 0.960 . S
C486 H499 0.962 . S
C486 H500 0.960 . S
C487 C484 1.511 . S
C487 H501 0.961 . S
C487 H502 0.961 . S
C487 H503 0.961 . S
C488 C489 1.370 . S
C488 C490 1.363 . S
C488 H504 0.931 . S
C489 C488 1.370 . S
C489 C493 1.408 . S
C490 C488 1.363 . S
C490 C491 1.370 . S
C490 C494 1.524 . S
C491 C483 1.503 . S
C491 C490 1.370 . S
C491 C492 1.403 . S
C492 C491 1.403 . S
C492 C493 1.404 . S
C492 C495 1.539 . S
C493 C489 1.408 . S
C493 C492 1.404 . S
C493 H505 0.930 1_545 S
C494 C490 1.524 . S
C494 H506 0.956 . S
C494 H507 0.961 . S
C494 H508 0.961 . S
C495 C492 1.539 . S
C495 H509 0.958 1_545 S
C495 H510 0.961 . S
C495 H511 0.960 . S
H496 C480 0.931 . S
H497 C485 0.929 . S
H498 C486 0.960 . S
H499 C486 0.962 . S
H500 C486 0.960 . S
H501 C487 0.961 . S
H502 C487 0.961 . S
H503 C487 0.961 . S
H504 C488 0.931 . S
H505 C493 0.930 1_565 S
H506 C494 0.956 . S
H507 C494 0.961 . S
H508 C494 0.961 . S
H509 C495 0.958 1_565 S
H510 C495 0.961 . S
H511 C495 0.960 . S
C512 C513 1.391 . S
C512 C514 1.394 . S
C512 H528 0.931 . S
C513 C512 1.391 . S
C513 C517 1.376 . S
C514 C512 1.394 . S
C514 C515 1.369 . S
C514 C518 1.531 . S
C515 C514 1.369 . S
C515 C516 1.410 . S
C515 C523 1.503 . S
C516 C515 1.410 . S
C516 C517 1.392 . S
C516 C519 1.511 . S
C517 C513 1.376 . S
C517 C516 1.392 . S
C517 H529 0.929 . S
C518 C514 1.531 . S
C518 H530 0.960 . S
C518 H531 0.962 . S
C518 H532 0.960 . S
C519 C516 1.511 . S
C519 H533 0.961 . S
C519 H534 0.961 . S
C519 H535 0.961 . S
C520 C521 1.370 . S
C520 C522 1.363 . S
C520 H536 0.931 . S
C521 C520 1.370 . S
C521 C525 1.408 . S
C522 C520 1.363 . S
C522 C523 1.370 . S
C522 C526 1.524 . S
C523 C515 1.503 . S
C523 C522 1.370 . S
C523 C524 1.403 . S
C524 C523 1.403 . S
C524 C525 1.404 . S
C524 C527 1.539 . S
C525 C521 1.408 . S
C525 C524 1.404 . S
C525 H537 0.930 . S
C526 C522 1.524 . S
C526 H538 0.956 . S
C526 H539 0.961 . S
C526 H540 0.961 . S
C527 C524 1.539 . S
C527 H541 0.958 . S
C527 H542 0.961 . S
C527 H543 0.960 . S
H528 C512 0.931 . S
H529 C517 0.929 . S
H530 C518 0.960 . S
H531 C518 0.962 . S
H532 C518 0.960 . S
H533 C519 0.961 . S
H534 C519 0.961 . S
H535 C519 0.961 . S
H536 C520 0.931 . S
H537 C525 0.930 . S
H538 C526 0.956 . S
H539 C526 0.961 . S
H540 C526 0.961 . S
H541 C527 0.958 . S
H542 C527 0.961 . S
H543 C527 0.960 . S
C544 C545 1.391 . S
C544 C546 1.394 . S
C544 H560 0.931 . S
C545 C544 1.391 . S
C545 C549 1.376 . S
C546 C544 1.394 . S
C546 C547 1.369 . S
C546 C550 1.531 . S
C547 C546 1.369 . S
C547 C548 1.410 . S
C547 C555 1.503 . S
C548 C547 1.410 . S
C548 C549 1.392 . S
C548 C551 1.511 . S
C549 C545 1.376 . S
C549 C548 1.392 . S
C549 H561 0.929 . S
C550 C546 1.531 . S
C550 H562 0.960 . S
C550 H563 0.962 . S
C550 H564 0.960 . S
C551 C548 1.511 . S
C551 H565 0.961 . S
C551 H566 0.961 . S
C551 H567 0.961 . S
C552 C553 1.370 . S
C552 C554 1.363 . S
C552 H568 0.931 . S
C553 C552 1.370 . S
C553 C557 1.408 . S
C554 C552 1.363 . S
C554 C555 1.370 . S
C554 C558 1.524 . S
C555 C547 1.503 . S
C555 C554 1.370 . S
C555 C556 1.403 . S
C556 C555 1.403 . S
C556 C557 1.404 . S
C556 C559 1.539 . S
C557 C553 1.408 . S
C557 C556 1.404 . S
C557 H569 0.930 . S
C558 C554 1.524 . S
C558 H570 0.956 . S
C558 H571 0.961 . S
C558 H572 0.961 . S
C559 C556 1.539 . S
C559 H573 0.958 . S
C559 H574 0.961 . S
C559 H575 0.960 . S
H560 C544 0.931 . S
H561 C549 0.929 . S
H562 C550 0.960 . S
H563 C550 0.962 . S
H564 C550 0.960 . S
H565 C551 0.961 . S
H566 C551 0.961 . S
H567 C551 0.961 . S
H568 C552 0.931 . S
H569 C557 0.930 . S
H570 C558 0.956 . S
H571 C558 0.961 . S
H572 C558 0.961 . S
H573 C559 0.958 . S
H574 C559 0.961 . S
H575 C559 0.960 . S
C576 C577 1.399 . S
C576 C578 1.394 . S
C576 H592 0.931 . S
C577 C576 1.399 . S
C577 C581 1.362 1_655 S
C578 C576 1.394 . S
C578 C579 1.369 1_654 S
C578 C582 1.531 . S
C579 C578 1.369 1_456 S
C579 C580 1.410 . S
C579 C587 1.503 . S
C580 C579 1.410 . S
C580 C581 1.392 1_556 S
C580 C583 1.511 . S
C581 C577 1.362 1_455 S
C581 C580 1.392 1_554 S
C581 H593 0.929 1_554 S
C582 C578 1.531 . S
C582 H594 0.960 . S
C582 H595 0.962 . S
C582 H596 0.960 . S
C583 C580 1.511 . S
C583 H597 0.961 . S
C583 H598 0.961 . S
C583 H599 0.961 . S
C584 C585 1.370 1_655 S
C584 C586 1.363 . S
C584 H600 0.931 . S
C585 C584 1.370 1_455 S
C585 C589 1.408 . S
C586 C584 1.363 . S
C586 C587 1.370 1_655 S
C586 C590 1.524 . S
C587 C579 1.503 . S
C587 C586 1.370 1_455 S
C587 C588 1.403 . S
C588 C587 1.403 . S
C588 C589 1.404 . S
C588 C591 1.539 1_556 S
C589 C585 1.408 . S
C589 C588 1.404 . S
C589 H601 0.930 . S
C590 C586 1.524 . S
C590 H602 0.956 . S
C590 H603 0.961 . S
C590 H604 0.961 . S
C591 C588 1.539 1_554 S
C591 H605 0.958 . S
C591 H606 0.961 . S
C591 H607 0.960 . S
H592 C576 0.931 . S
H593 C581 0.929 1_556 S
H594 C582 0.960 . S
H595 C582 0.962 . S
H596 C582 0.960 . S
H597 C583 0.961 . S
H598 C583 0.961 . S
H599 C583 0.961 . S
H600 C584 0.931 . S
H601 C589 0.930 . S
H602 C590 0.956 . S
H603 C590 0.961 . S
H604 C590 0.961 . S
H605 C591 0.958 . S
H606 C591 0.961 . S
H607 C591 0.960 . S
C608 C609 1.391 . S
C608 C610 1.394 . S
C608 H624 0.931 . S
C609 C608 1.391 . S
C609 C613 1.376 1_554 S
C610 C608 1.394 . S
C610 C611 1.369 1_554 S
C610 C614 1.531 . S
C611 C610 1.369 1_556 S
C611 C612 1.410 . S
C611 C619 1.503 . S
C612 C611 1.410 . S
C612 C613 1.392 . S
C612 C615 1.511 1_565 S
C613 C609 1.376 1_556 S
C613 C612 1.392 . S
C613 H625 0.929 . S
C614 C610 1.531 . S
C614 H626 0.960 . S
C614 H627 0.962 . S
C614 H628 0.960 . S
C615 C612 1.511 1_545 S
C615 H629 0.961 . S
C615 H630 0.961 . S
C615 H631 0.961 . S
C616 C617 1.370 1_565 S
C616 C618 1.363 . S
C616 H632 0.931 . S
C617 C616 1.370 1_545 S
C617 C621 1.408 . S
C618 C616 1.363 . S
C618 C619 1.370 . S
C618 C622 1.524 . S
C619 C611 1.503 . S
C619 C618 1.370 . S
C619 C620 1.403 1_565 S
C620 C619 1.403 1_545 S
C620 C621 1.404 . S
C620 C623 1.539 1_556 S
C621 C617 1.408 . S
C621 C620 1.404 . S
C621 H633 0.930 . S
C622 C618 1.524 . S
C622 H634 0.956 . S
C622 H635 0.961 . S
C622 H636 0.961 . S
C623 C620 1.539 1_554 S
C623 H637 0.958 . S
C623 H638 0.961 . S
C623 H639 0.960 . S
H624 C608 0.931 . S
H625 C613 0.929 . S
H626 C614 0.960 . S
H627 C614 0.962 . S
H628 C614 0.960 . S
H629 C615 0.961 . S
H630 C615 0.961 . S
H631 C615 0.961 . S
H632 C616 0.931 . S
H633 C621 0.930 . S
H634 C622 0.956 . S
H635 C622 0.961 . S
H636 C622 0.961 . S
H637 C623 0.958 . S
H638 C623 0.961 . S
H639 C623 0.960 . S
C640 C641 1.391 1_556 S
C640 C642 1.394 . S
C640 H656 0.931 . S
C641 C640 1.391 1_554 S
C641 C645 1.376 . S
C642 C640 1.394 . S
C642 C643 1.369 . S
C642 C646 1.531 . S
C643 C642 1.369 . S
C643 C644 1.410 1_556 S
C643 C651 1.503 . S
C644 C643 1.410 1_554 S
C644 C645 1.392 . S
C644 C647 1.511 . S
C645 C641 1.376 . S
C645 C644 1.392 . S
C645 H657 0.929 . S
C646 C642 1.531 . S
C646 H658 0.960 . S
C646 H659 0.962 . S
C646 H660 0.960 . S
C647 C644 1.511 . S
C647 H661 0.961 . S
C647 H662 0.961 . S
C647 H663 0.961 . S
C648 C649 1.370 . S
C648 C650 1.363 . S
C648 H664 0.931 . S
C649 C648 1.370 . S
C649 C653 1.408 . S
C650 C648 1.363 . S
C650 C651 1.370 . S
C650 C654 1.524 1_556 S
C651 C643 1.503 . S
C651 C650 1.370 . S
C651 C652 1.403 . S
C652 C651 1.403 . S
C652 C653 1.404 . S
C652 C655 1.539 . S
C653 C649 1.408 . S
C653 C652 1.404 . S
C653 H665 0.930 . S
C654 C650 1.524 1_554 S
C654 H666 0.956 . S
C654 H667 0.961 . S
C654 H668 0.961 . S
C655 C652 1.539 . S
C655 H669 0.958 . S
C655 H670 0.961 . S
C655 H671 0.960 . S
H656 C640 0.931 . S
H657 C645 0.929 . S
H658 C646 0.960 . S
H659 C646 0.962 . S
H660 C646 0.960 . S
H661 C647 0.961 . S
H662 C647 0.961 . S
H663 C647 0.961 . S
H664 C648 0.931 . S
H665 C653 0.930 . S
H666 C654 0.956 . S
H667 C654 0.961 . S
H668 C654 0.961 . S
H669 C655 0.958 . S
H670 C655 0.961 . S
H671 C655 0.960 . S
C672 C673 1.391 . S
C672 C674 1.394 . S
C672 H688 0.931 . S
C673 C672 1.391 . S
C673 C677 1.376 1_554 S
C674 C672 1.394 . S
C674 C675 1.370 . S
C674 C678 1.531 . S
C675 C674 1.370 . S
C675 C676 1.409 1_554 S
C675 C683 1.503 1_554 S
C676 C675 1.409 1_556 S
C676 C677 1.392 . S
C676 C679 1.511 . S
C677 C673 1.376 1_556 S
C677 C676 1.392 . S
C677 H689 0.929 . S
C678 C674 1.531 . S
C678 H690 0.960 . S
C678 H691 0.962 . S
C678 H692 0.960 . S
C679 C676 1.511 . S
C679 H693 0.961 . S
C679 H694 0.961 . S
C679 H695 0.961 . S
C680 C681 1.370 . S
C680 C682 1.363 . S
C680 H696 0.931 . S
C681 C680 1.370 . S
C681 C685 1.408 . S
C682 C680 1.363 . S
C682 C683 1.370 . S
C682 C686 1.524 . S
C683 C675 1.503 1_556 S
C683 C682 1.370 . S
C683 C684 1.403 . S
C684 C683 1.403 . S
C684 C685 1.404 . S
C684 C687 1.539 . S
C685 C681 1.408 . S
C685 C684 1.404 . S
C685 H697 0.930 . S
C686 C682 1.524 . S
C686 H698 0.956 . S
C686 H699 0.961 . S
C686 H700 0.961 . S
C687 C684 1.539 . S
C687 H701 0.958 1_556 S
C687 H702 0.961 . S
C687 H703 0.960 . S
H688 C672 0.931 . S
H689 C677 0.929 . S
H690 C678 0.960 . S
H691 C678 0.962 . S
H692 C678 0.960 . S
H693 C679 0.961 . S
H694 C679 0.961 . S
H695 C679 0.961 . S
H696 C680 0.931 . S
H697 C685 0.930 . S
H698 C686 0.956 . S
H699 C686 0.961 . S
H700 C686 0.961 . S
H701 C687 0.958 1_554 S
H702 C687 0.961 . S
H703 C687 0.960 . S
C704 C705 1.391 . S
C704 C706 1.394 . S
C704 H720 0.931 . S
C705 C704 1.391 . S
C705 C709 1.376 1_655 S
C706 C704 1.394 . S
C706 C707 1.371 . S
C706 C710 1.531 . S
C707 C706 1.371 . S
C707 C708 1.407 1_655 S
C707 C715 1.503 1_655 S
C708 C707 1.407 1_455 S
C708 C709 1.392 . S
C708 C711 1.511 . S
C709 C705 1.376 1_455 S
C709 C708 1.392 . S
C709 H721 0.929 . S
C710 C706 1.531 . S
C710 H722 0.960 . S
C710 H723 0.962 . S
C710 H724 0.960 . S
C711 C708 1.511 . S
C711 H725 0.961 . S
C711 H726 0.961 . S
C711 H727 0.961 . S
C712 C713 1.370 . S
C712 C714 1.363 . S
C712 H728 0.931 . S
C713 C712 1.370 . S
C713 C717 1.408 1_455 S
C714 C712 1.363 . S
C714 C715 1.370 . S
C714 C718 1.524 . S
C715 C707 1.503 1_455 S
C715 C714 1.370 . S
C715 C716 1.403 1_455 S
C716 C715 1.403 1_655 S
C716 C717 1.404 . S
C716 C719 1.539 . S
C717 C713 1.408 1_655 S
C717 C716 1.404 . S
C717 H729 0.930 . S
C718 C714 1.524 . S
C718 H730 0.956 . S
C718 H731 0.961 . S
C718 H732 0.961 . S
C719 C716 1.539 . S
C719 H733 0.958 . S
C719 H734 0.961 . S
C719 H735 0.960 . S
H720 C704 0.931 . S
H721 C709 0.929 . S
H722 C710 0.960 . S
H723 C710 0.962 . S
H724 C710 0.960 . S
H725 C711 0.961 . S
H726 C711 0.961 . S
H727 C711 0.961 . S
H728 C712 0.931 . S
H729 C717 0.930 . S
H730 C718 0.956 . S
H731 C718 0.961 . S
H732 C718 0.961 . S
H733 C719 0.958 . S
H734 C719 0.961 . S
H735 C719 0.960 . S
C736 C737 1.391 . S
C736 C738 1.394 . S
C736 H752 0.931 . S
C737 C736 1.391 . S
C737 C741 1.376 . S
C738 C736 1.394 . S
C738 C739 1.369 . S
C738 C742 1.531 . S
C739 C738 1.369 . S
C739 C740 1.410 . S
C739 C747 1.503 . S
C740 C739 1.410 . S
C740 C741 1.392 . S
C740 C743 1.511 . S
C741 C737 1.376 . S
C741 C740 1.392 . S
C741 H753 0.929 . S
C742 C738 1.531 . S
C742 H754 0.960 . S
C742 H755 0.962 . S
C742 H756 0.960 . S
C743 C740 1.511 . S
C743 H757 0.961 . S
C743 H758 0.961 . S
C743 H759 0.961 . S
C744 C745 1.370 . S
C744 C746 1.363 . S
C744 H760 0.931 . S
C745 C744 1.370 . S
C745 C749 1.408 . S
C746 C744 1.363 . S
C746 C747 1.370 . S
C746 C750 1.524 . S
C747 C739 1.503 . S
C747 C746 1.370 . S
C747 C748 1.403 . S
C748 C747 1.403 . S
C748 C749 1.404 . S
C748 C751 1.539 . S
C749 C745 1.408 . S
C749 C748 1.404 . S
C749 H761 0.930 . S
C750 C746 1.524 . S
C750 H762 0.956 . S
C750 H763 0.961 . S
C750 H764 0.961 . S
C751 C748 1.539 . S
C751 H765 0.958 . S
C751 H766 0.961 . S
C751 H767 0.960 . S
H752 C736 0.931 . S
H753 C741 0.929 . S
H754 C742 0.960 . S
H755 C742 0.962 . S
H756 C742 0.960 . S
H757 C743 0.961 . S
H758 C743 0.961 . S
H759 C743 0.961 . S
H760 C744 0.931 . S
H761 C749 0.930 . S
H762 C750 0.956 . S
H763 C750 0.961 . S
H764 C750 0.961 . S
H765 C751 0.958 . S
H766 C751 0.961 . S
H767 C751 0.960 . S
C768 C769 1.391 . S
C768 C770 1.394 . S
C768 H784 0.931 . S
C769 C768 1.391 . S
C769 C773 1.376 . S
C770 C768 1.394 . S
C770 C771 1.369 . S
C770 C774 1.531 . S
C771 C770 1.369 . S
C771 C772 1.410 . S
C771 C779 1.503 . S
C772 C771 1.410 . S
C772 C773 1.392 . S
C772 C775 1.511 . S
C773 C769 1.376 . S
C773 C772 1.392 . S
C773 H785 0.929 . S
C774 C770 1.531 . S
C774 H786 0.960 . S
C774 H787 0.962 . S
C774 H788 0.960 . S
C775 C772 1.511 . S
C775 H789 0.961 . S
C775 H790 0.961 . S
C775 H791 0.961 . S
C776 C777 1.370 1_554 S
C776 C778 1.363 . S
C776 H792 0.931 . S
C777 C776 1.370 1_556 S
C777 C781 1.408 . S
C778 C776 1.363 . S
C778 C779 1.370 . S
C778 C782 1.524 . S
C779 C771 1.503 . S
C779 C778 1.370 . S
C779 C780 1.403 . S
C780 C779 1.403 . S
C780 C781 1.404 1_554 S
C780 C783 1.539 . S
C781 C777 1.408 . S
C781 C780 1.404 1_556 S
C781 H793 0.930 . S
C782 C778 1.524 . S
C782 H794 0.956 . S
C782 H795 0.961 . S
C782 H796 0.961 . S
C783 C780 1.539 . S
C783 H797 0.951 1_554 S
C783 H798 0.961 1_554 S
C783 H799 0.960 . S
H784 C768 0.931 . S
H785 C773 0.929 . S
H786 C774 0.960 . S
H787 C774 0.962 . S
H788 C774 0.960 . S
H789 C775 0.961 . S
H790 C775 0.961 . S
H791 C775 0.961 . S
H792 C776 0.931 . S
H793 C781 0.930 . S
H794 C782 0.956 . S
H795 C782 0.961 . S
H796 C782 0.961 . S
H797 C783 0.951 1_556 S
H798 C783 0.961 1_556 S
H799 C783 0.960 . S
C800 C801 1.391 . S
C800 C802 1.394 . S
C800 H816 0.931 . S
C801 C800 1.391 . S
C801 C805 1.376 . S
C802 C800 1.394 . S
C802 C803 1.369 . S
C802 C806 1.531 . S
C803 C802 1.369 . S
C803 C804 1.410 . S
C803 C811 1.503 . S
C804 C803 1.410 . S
C804 C805 1.392 . S
C804 C807 1.511 . S
C805 C801 1.376 . S
C805 C804 1.392 . S
C805 H817 0.929 . S
C806 C802 1.531 . S
C806 H818 0.960 . S
C806 H819 0.962 . S
C806 H820 0.960 . S
C807 C804 1.511 . S
C807 H821 0.961 . S
C807 H822 0.961 . S
C807 H823 0.961 . S
C808 C809 1.370 1_554 S
C808 C810 1.363 . S
C808 H824 0.931 . S
C809 C808 1.370 1_556 S
C809 C813 1.408 . S
C810 C808 1.363 . S
C810 C811 1.370 . S
C810 C814 1.524 . S
C811 C803 1.503 . S
C811 C810 1.370 . S
C811 C812 1.403 . S
C812 C811 1.403 . S
C812 C813 1.404 1_554 S
C812 C815 1.539 1_554 S
C813 C809 1.408 . S
C813 C812 1.404 1_556 S
C813 H825 0.930 . S
C814 C810 1.524 . S
C814 H826 0.956 . S
C814 H827 0.961 . S
C814 H828 0.961 . S
C815 C812 1.539 1_556 S
C815 H829 0.958 . S
C815 H830 0.961 . S
C815 H831 0.960 1_556 S
H816 C800 0.931 . S
H817 C805 0.929 . S
H818 C806 0.960 . S
H819 C806 0.962 . S
H820 C806 0.960 . S
H821 C807 0.961 . S
H822 C807 0.961 . S
H823 C807 0.961 . S
H824 C808 0.931 . S
H825 C813 0.930 . S
H826 C814 0.956 . S
H827 C814 0.961 . S
H828 C814 0.961 . S
H829 C815 0.958 . S
H830 C815 0.961 . S
H831 C815 0.960 1_554 S
C832 C833 1.391 . S
C832 C834 1.394 . S
C832 H848 0.931 . S
C833 C832 1.391 . S
C833 C837 1.376 1_455 S
C834 C832 1.394 . S
C834 C835 1.370 . S
C834 C838 1.531 . S
C835 C834 1.370 . S
C835 C836 1.408 1_455 S
C835 C843 1.503 1_455 S
C836 C835 1.408 1_655 S
C836 C837 1.392 . S
C836 C839 1.511 . S
C837 C833 1.376 1_655 S
C837 C836 1.392 . S
C837 H849 0.929 . S
C838 C834 1.531 . S
C838 H850 0.960 . S
C838 H851 0.962 . S
C838 H852 0.960 . S
C839 C836 1.511 . S
C839 H853 0.961 . S
C839 H854 0.961 . S
C839 H855 0.961 . S
C840 C841 1.370 . S
C840 C842 1.363 . S
C840 H856 0.931 . S
C841 C840 1.370 . S
C841 C845 1.408 1_655 S
C842 C840 1.363 . S
C842 C843 1.370 . S
C842 C846 1.524 . S
C843 C835 1.503 1_655 S
C843 C842 1.370 . S
C843 C844 1.403 1_655 S
C844 C843 1.403 1_455 S
C844 C845 1.404 . S
C844 C847 1.539 . S
C845 C841 1.408 1_455 S
C845 C844 1.404 . S
C845 H857 0.930 . S
C846 C842 1.524 . S
C846 H858 0.956 . S
C846 H859 0.961 . S
C846 H860 0.961 . S
C847 C844 1.539 . S
C847 H861 0.958 . S
C847 H862 0.961 . S
C847 H863 0.960 . S
H848 C832 0.931 . S
H849 C837 0.929 . S
H850 C838 0.960 . S
H851 C838 0.962 . S
H852 C838 0.960 . S
H853 C839 0.961 . S
H854 C839 0.961 . S
H855 C839 0.961 . S
H856 C840 0.931 . S
H857 C845 0.930 . S
H858 C846 0.956 . S
H859 C846 0.961 . S
H860 C846 0.961 . S
H861 C847 0.958 . S
H862 C847 0.961 . S
H863 C847 0.960 . S
C864 C865 1.391 . S
C864 C866 1.394 . S
C864 H880 0.931 . S
C865 C864 1.391 . S
C865 C869 1.376 . S
C866 C864 1.394 . S
C866 C867 1.369 . S
C866 C870 1.531 . S
C867 C866 1.369 . S
C867 C868 1.410 . S
C867 C875 1.503 . S
C868 C867 1.410 . S
C868 C869 1.392 . S
C868 C871 1.511 . S
C869 C865 1.376 . S
C869 C868 1.392 . S
C869 H881 0.929 . S
C870 C866 1.531 . S
C870 H882 0.960 . S
C870 H883 0.962 . S
C870 H884 0.960 . S
C871 C868 1.511 . S
C871 H885 0.961 1_565 S
C871 H886 0.961 . S
C871 H887 0.961 . S
C872 C873 1.370 . S
C872 C874 1.363 . S
C872 H888 0.931 . S
C873 C872 1.370 . S
C873 C877 1.408 . S
C874 C872 1.363 . S
C874 C875 1.370 . S
C874 C878 1.524 . S
C875 C867 1.503 . S
C875 C874 1.370 . S
C875 C876 1.403 . S
C876 C875 1.403 . S
C876 C877 1.404 . S
C876 C879 1.539 . S
C877 C873 1.408 . S
C877 C876 1.404 . S
C877 H889 0.930 . S
C878 C874 1.524 . S
C878 H890 0.956 . S
C878 H891 0.964 . S
C878 H892 0.961 1_565 S
C879 C876 1.539 . S
C879 H893 0.958 . S
C879 H894 0.961 . S
C879 H895 0.960 . S
H880 C864 0.931 . S
H881 C869 0.929 . S
H882 C870 0.960 . S
H883 C870 0.962 . S
H884 C870 0.960 . S
H885 C871 0.961 1_545 S
H886 C871 0.961 . S
H887 C871 0.961 . S
H888 C872 0.931 . S
H889 C877 0.930 . S
H890 C878 0.956 . S
H891 C878 0.964 . S
H892 C878 0.961 1_545 S
H893 C879 0.958 . S
H894 C879 0.961 . S
H895 C879 0.960 . S
C896 C897 1.391 . S
C896 C898 1.394 . S
C896 H912 0.931 . S
C897 C896 1.391 . S
C897 C901 1.376 . S
C898 C896 1.394 . S
C898 C899 1.369 . S
C898 C902 1.531 . S
C899 C898 1.369 . S
C899 C900 1.410 . S
C899 C907 1.503 . S
C900 C899 1.410 . S
C900 C901 1.392 . S
C900 C903 1.511 . S
C901 C897 1.376 . S
C901 C900 1.392 . S
C901 H913 0.929 . S
C902 C898 1.531 . S
C902 H914 0.960 . S
C902 H915 0.962 . S
C902 H916 0.960 . S
C903 C900 1.511 . S
C903 H917 0.961 . S
C903 H918 0.961 . S
C903 H919 0.961 . S
C904 C905 1.370 . S
C904 C906 1.363 . S
C904 H920 0.931 . S
C905 C904 1.370 . S
C905 C909 1.408 . S
C906 C904 1.363 . S
C906 C907 1.370 . S
C906 C910 1.524 . S
C907 C899 1.503 . S
C907 C906 1.370 . S
C907 C908 1.403 . S
C908 C907 1.403 . S
C908 C909 1.404 . S
C908 C911 1.539 . S
C909 C905 1.408 . S
C909 C908 1.404 . S
C909 H921 0.930 . S
C910 C906 1.524 . S
C910 H922 0.956 . S
C910 H923 0.961 . S
C910 H924 0.961 . S
C911 C908 1.539 . S
C911 H925 0.958 . S
C911 H926 0.961 . S
C911 H927 0.960 . S
H912 C896 0.931 . S
H913 C901 0.929 . S
H914 C902 0.960 . S
H915 C902 0.962 . S
H916 C902 0.960 . S
H917 C903 0.961 . S
H918 C903 0.961 . S
H919 C903 0.961 . S
H920 C904 0.931 . S
H921 C909 0.930 . S
H922 C910 0.956 . S
H923 C910 0.961 . S
H924 C910 0.961 . S
H925 C911 0.958 . S
H926 C911 0.961 . S
H927 C911 0.960 . S
C928 C929 1.391 . S
C928 C930 1.394 . S
C928 H944 0.931 . S
C929 C928 1.391 . S
C929 C933 1.376 . S
C930 C928 1.394 . S
C930 C931 1.369 . S
C930 C934 1.531 . S
C931 C930 1.369 . S
C931 C932 1.410 . S
C931 C939 1.503 . S
C932 C931 1.410 . S
C932 C933 1.392 . S
C932 C935 1.511 . S
C933 C929 1.376 . S
C933 C932 1.392 . S
C933 H945 0.929 . S
C934 C930 1.531 . S
C934 H946 0.960 . S
C934 H947 0.962 . S
C934 H948 0.960 . S
C935 C932 1.511 . S
C935 H949 0.961 . S
C935 H950 0.961 . S
C935 H951 0.961 . S
C936 C937 1.370 . S
C936 C938 1.363 . S
C936 H952 0.931 . S
C937 C936 1.370 . S
C937 C941 1.408 . S
C938 C936 1.363 . S
C938 C939 1.370 . S
C938 C942 1.524 . S
C939 C931 1.503 . S
C939 C938 1.370 . S
C939 C940 1.403 . S
C940 C939 1.403 . S
C940 C941 1.404 . S
C940 C943 1.539 . S
C941 C937 1.408 . S
C941 C940 1.404 . S
C941 H953 0.930 . S
C942 C938 1.524 . S
C942 H954 0.956 . S
C942 H955 0.961 . S
C942 H956 0.961 . S
C943 C940 1.539 . S
C943 H957 0.958 . S
C943 H958 0.961 . S
C943 H959 0.960 . S
H944 C928 0.931 . S
H945 C933 0.929 . S
H946 C934 0.960 . S
H947 C934 0.962 . S
H948 C934 0.960 . S
H949 C935 0.961 . S
H950 C935 0.961 . S
H951 C935 0.961 . S
H952 C936 0.931 . S
H953 C941 0.930 . S
H954 C942 0.956 . S
H955 C942 0.961 . S
H956 C942 0.961 . S
H957 C943 0.958 . S
H958 C943 0.961 . S
H959 C943 0.960 . S
C193 C61 1.694 . S
C201 C82 1.693 . S
C233 C112 1.705 . S
C225 C70 1.698 . S
C265 N146 1.469 . S
C257 C43 1.461 . S
C297 N176 1.223 . S
C289 C52 1.299 . S
C329 C73 1.701 1_565 S
C321 C25 1.687 . S
C353 C34 1.687 . S
C361 C103 1.710 . S
C385 C7 1.455 . S
C393 N138 1.482 . S
C417 C16 1.282 . S
C425 N168 1.249 . S
C457 C88 0.345 . S
C449 C50 0.366 1_455 S
C489 C118 0.578 . S
C481 C59 0.507 . S
C521 C159 0.762 . S
C513 C67 0.740 . S
C545 C41 0.655 . S
C553 C189 0.512 . S
C577 C14 0.237 . S
C585 C99 0.348 . S
C617 C129 0.580 . S
C609 C23 0.505 . S
C649 C148 0.756 . S
C641 C31 0.784 . S
C673 C5 0.483 . S
C681 C178 0.576 . S
C705 C49 1.363 . S
C713 N78 1.335 . S
C737 C58 1.426 . S
C745 N108 1.460 . S
C777 C133 1.653 . S
C769 C68 1.620 . S
C809 C163 1.767 . S
C801 C40 1.728 . S
C833 C13 1.331 1_455 S
C841 N86 1.328 . S
C873 N116 1.472 . S
C865 C22 1.486 . S
C905 C142 1.652 . S
C897 C32 1.633 . S
C929 C4 1.732 . S
C937 C172 1.769 . S
