# Generated by pormake.
# Topology anh, (6,3)-cn, num edge types: 1
# Building blocks:
#     Node 0, Type 0, BuildingBlock: BETDEL_clean_sbu_0, # of connection points: 6
#     Node 1, Type 0, BuildingBlock: BETDEL_clean_sbu_0, # of connection points: 6
#     Node 2, Type 0, BuildingBlock: BETDEL_clean_sbu_0, # of connection points: 6
#     Node 3, Type 1, BuildingBlock: BETDIP_clean_linker_0, # of connection points: 3
#     Node 4, Type 1, BuildingBlock: BETDIP_clean_linker_0, # of connection points: 3
#     Node 5, Type 1, BuildingBlock: BETDIP_clean_linker_0, # of connection points: 3
#     Node 6, Type 1, BuildingBlock: BETDIP_clean_linker_0, # of connection points: 3
#     Node 7, Type 1, BuildingBlock: BETDIP_clean_linker_0, # of connection points: 3
#     Node 8, Type 1, BuildingBlock: BETDIP_clean_linker_0, # of connection points: 3
#     Edge 9, Type (0, 1), BuildingBlock: UVAHIK_clean_linker_0, # of connection points: 2
#     Edge 10, Type (0, 1), BuildingBlock: UVAHIK_clean_linker_0, # of connection points: 2
#     Edge 11, Type (0, 1), BuildingBlock: UVAHIK_clean_linker_0, # of connection points: 2
#     Edge 12, Type (0, 1), BuildingBlock: UVAHIK_clean_linker_0, # of connection points: 2
#     Edge 13, Type (0, 1), BuildingBlock: UVAHIK_clean_linker_0, # of connection points: 2
#     Edge 14, Type (0, 1), BuildingBlock: UVAHIK_clean_linker_0, # of connection points: 2
#     Edge 15, Type (0, 1), BuildingBlock: UVAHIK_clean_linker_0, # of connection points: 2
#     Edge 16, Type (0, 1), BuildingBlock: UVAHIK_clean_linker_0, # of connection points: 2
#     Edge 17, Type (0, 1), BuildingBlock: UVAHIK_clean_linker_0, # of connection points: 2
#     Edge 18, Type (0, 1), BuildingBlock: UVAHIK_clean_linker_0, # of connection points: 2
#     Edge 19, Type (0, 1), BuildingBlock: UVAHIK_clean_linker_0, # of connection points: 2
#     Edge 20, Type (0, 1), BuildingBlock: UVAHIK_clean_linker_0, # of connection points: 2
#     Edge 21, Type (0, 1), BuildingBlock: UVAHIK_clean_linker_0, # of connection points: 2
#     Edge 22, Type (0, 1), BuildingBlock: UVAHIK_clean_linker_0, # of connection points: 2
#     Edge 23, Type (0, 1), BuildingBlock: UVAHIK_clean_linker_0, # of connection points: 2
#     Edge 24, Type (0, 1), BuildingBlock: UVAHIK_clean_linker_0, # of connection points: 2
#     Edge 25, Type (0, 1), BuildingBlock: UVAHIK_clean_linker_0, # of connection points: 2
#     Edge 26, Type (0, 1), BuildingBlock: UVAHIK_clean_linker_0, # of connection points: 2
# Relax obj value: 0.099
# Max RMSD: 0.162
# Mean RMSD: 0.118
data_MOF--net-anh--node1-BETDEL_clean_sbu_0--node2-BETDIP_clean_linker_0--edge1-UVAHIK_clean_linker_0
_symmetry_space_group_name_H-M    P1
_symmetry_Int_Tables_number       1
_symmetry_cell_setting            triclinic
loop_
_symmetry_equiv_pos_as_xyz
'x, y, z'
_cell_length_a     38.993176
_cell_length_b     39.006446
_cell_length_c     62.480569
_cell_angle_alpha  93.422178
_cell_angle_beta   90.070031
_cell_angle_gamma 119.97672
loop_
_atom_site_label
_atom_site_type_symbol
_atom_site_fract_x
_atom_site_fract_y
_atom_site_fract_z
_atom_type_partial_charge
Dy0 Dy 0.06918 0.49431 0.1634 0.0
C1 C 0.97909 0.56876 0.18542 0.0
C2 C 0.11657 0.46524 0.1495 0.0
Dy3 Dy 0.02755 0.54114 0.17101 0.0
O4 O 0.09842 0.45797 0.16746 0.0
O5 O 0.10838 0.48802 0.13887 0.0
O6 O 0.05177 0.46956 0.19551 0.0
O7 O 0.06353 0.5275 0.1913 0.0
C8 C 0.05109 0.50029 0.20408 0.0
C9 C 0.04456 0.53382 0.13003 0.0
O10 O 0.08915 0.59036 0.17954 0.0
O11 O 0.11985 0.55805 0.1637 0.0
O12 O 1.00003 0.57953 0.16842 0.0
O13 O 0.98516 0.5433 0.19472 0.0
O14 O 0.04492 0.56508 0.13864 0.0
O15 O 0.03216 0.50702 0.14307 0.0
O16 O 1.00707 0.44402 0.15636 0.0
O17 O 0.97724 0.47781 0.17146 0.0
C18 C 0.1213 0.59087 0.17221 0.0
C19 C 0.97533 0.44436 0.16377 0.0
Dy20 Dy 0.49198 0.0256 0.49971 0.0
C21 C 0.65777 0.12024 0.52852 0.0
C22 C 0.41568 0.97416 0.48611 0.0
Dy23 Dy 0.58534 0.07302 0.50878 0.0
O24 O 0.42666 0.99333 0.50479 0.0
O25 O 0.44647 0.98367 0.47452 0.0
O26 O 0.48514 0.04899 0.53202 0.0
O27 O 0.53279 0.0389 0.52705 0.0
C28 C 0.51757 0.05275 0.54022 0.0
C29 C 0.56749 0.06477 0.46637 0.0
O30 O 0.57328 0.01066 0.51173 0.0
O31 O 0.50583 0.97602 0.50158 0.0
O32 O 0.6498 0.09253 0.51343 0.0
O33 O 0.62569 0.12107 0.53323 0.0
O34 O 0.60363 0.08353 0.47422 0.0
O35 O 0.54466 0.05247 0.48169 0.0
O36 O 0.50608 0.08674 0.492 0.0
O37 O 0.56764 0.12009 0.51023 0.0
C38 C 0.53939 0.97697 0.50704 0.0
C39 C 0.53702 0.11989 0.50061 0.0
Dy40 Dy 0.59476 0.55434 0.8297 0.0
C41 C 0.52498 0.39589 0.85551 0.0
C42 C 0.61938 0.62614 0.8136 0.0
Dy43 Dy 0.54926 0.46696 0.83849 0.0
O44 O 0.62891 0.62097 0.83256 0.0
O45 O 0.59691 0.59201 0.80331 0.0
O46 O 0.62428 0.56916 0.86245 0.0
O47 O 0.56605 0.52146 0.8575 0.0
C48 C 0.59487 0.53922 0.8708 0.0
C49 C 0.54899 0.48097 0.79711 0.0
O50 O 0.50127 0.48141 0.84565 0.0
O51 O 0.53117 0.54133 0.82965 0.0
O52 O 0.50691 0.40157 0.83983 0.0
O53 O 0.55611 0.42913 0.862 0.0
O54 O 0.52067 0.45034 0.80555 0.0
O55 O 0.57775 0.49959 0.81042 0.0
O56 O 0.64406 0.54122 0.82392 0.0
O57 O 0.61288 0.48035 0.839 0.0
C58 C 0.49974 0.5117 0.83802 0.0
C59 C 0.64493 0.51047 0.83139 0.0
H60 H 0.51555 0.98687 0.17432 0.0
H61 H 0.57587 0.05784 0.23208 0.0
H62 H 0.46186 0.9528 0.23534 0.0
H63 H 0.57696 0.10538 0.2049 0.0
C64 C 0.59474 0.09683 0.19497 0.0
C65 C 0.51668 0.99195 0.19161 0.0
C66 C 0.48489 0.96539 0.20376 0.0
C67 C 0.54886 0.0264 0.20179 0.0
C68 C 0.55015 0.03246 0.22427 0.0
C69 C 0.51921 0.00592 0.23665 0.0
C70 C 0.48653 0.97293 0.22612 0.0
N71 N 0.57953 0.0555 0.18962 0.0
H72 H 0.5376 0.51815 0.50792 0.0
H73 H 0.5322 0.57352 0.56876 0.0
H74 H 0.53877 0.46677 0.56684 0.0
H75 H 0.48215 0.57636 0.54295 0.0
C76 C 0.50701 0.59459 0.53318 0.0
C77 C 0.53685 0.51865 0.52526 0.0
C78 C 0.53838 0.4886 0.53606 0.0
C79 C 0.53404 0.54925 0.537 0.0
C80 C 0.53365 0.54984 0.55957 0.0
C81 C 0.53515 0.52009 0.57036 0.0
C82 C 0.53738 0.48968 0.5585 0.0
N83 N 0.53228 0.5797 0.52626 0.0
H84 H 0.03863 0.51063 0.83815 0.0
H85 H 0.10387 0.51926 0.89587 0.0
H86 H 0.98623 0.50114 0.89988 0.0
H87 H 0.15432 0.57187 0.87044 0.0
C88 C 0.14775 0.54577 0.86006 0.0
C89 C 0.0404 0.51056 0.85545 0.0
C90 C 1.00796 0.50552 0.86778 0.0
C91 C 0.0753 0.51573 0.86555 0.0
C92 C 0.07747 0.5159 0.888 0.0
C93 C 0.04522 0.50997 0.90034 0.0
C94 C 0.0107 0.5047 0.89017 0.0
N95 N 0.10755 0.51917 0.85321 0.0
H96 H 0.03657 0.58865 0.48685 0.0
H97 H 0.95528 0.50727 0.43705 0.0
H98 H 0.05914 0.61344 0.42052 0.0
H99 H 0.91138 0.49879 0.46469 0.0
C100 C 0.92796 0.49377 0.47691 0.0
C101 C 0.02784 0.58084 0.46999 0.0
C102 C 0.05207 0.60544 0.45436 0.0
C103 C 0.99249 0.54578 0.46392 0.0
C104 C 0.98177 0.53494 0.44198 0.0
C105 C 1.00563 0.55934 0.42625 0.0
C106 C 0.04045 0.5946 0.43262 0.0
N107 N 0.96923 0.52069 0.47999 0.0
H108 H 0.56065 0.03483 0.82671 0.0
H109 H 0.57869 0.00707 0.76154 0.0
H110 H 0.55766 0.10383 0.77622 0.0
H111 H 0.53244 0.94333 0.77494 0.0
C112 C 0.553 0.94737 0.78794 0.0
C113 C 0.56396 0.04151 0.80999 0.0
C114 C 0.55959 0.07281 0.80323 0.0
C115 C 0.56984 0.01711 0.79489 0.0
C116 C 0.57327 0.0254 0.77318 0.0
C117 C 0.56902 0.05662 0.76627 0.0
C118 C 0.56239 0.08044 0.78144 0.0
N119 N 0.57021 0.98305 0.80137 0.0
H120 H 0.48989 0.45211 0.15104 0.0
H121 H 0.57817 0.47255 0.10451 0.0
H122 H 0.4675 0.46184 0.0848 0.0
H123 H 0.57928 0.42322 0.12914 0.0
C124 C 0.58718 0.44604 0.14212 0.0
C125 C 0.49933 0.45646 0.13463 0.0
C126 C 0.47391 0.45566 0.1184 0.0
C127 C 0.53639 0.46129 0.12957 0.0
C128 C 0.54885 0.46717 0.10831 0.0
C129 C 0.52439 0.46804 0.09215 0.0
C130 C 0.48678 0.46172 0.09729 0.0
N131 N 0.56157 0.46156 0.14606 0.0
C132 C 0.15311 0.42987 0.15689 0.0
C133 C 0.14678 0.45449 0.14392 0.0
C134 C 0.18514 0.42385 0.15354 0.0
C135 C 0.26222 0.43678 0.11488 0.0
H136 H 0.32169 0.44311 0.16624 0.0
C137 C 0.40119 0.42171 0.11002 0.0
C138 C 0.43394 0.44884 0.1232 0.0
C139 C 0.364 0.41772 0.11312 0.0
C140 C 0.30551 0.44146 0.15175 0.0
H141 H 0.16773 0.49089 0.11679 0.0
H142 H 0.22417 0.48098 0.11107 0.0
H143 H 0.26026 0.44465 0.16948 0.0
H144 H 0.45344 0.4923 0.15031 0.0
H145 H 0.38847 0.48589 0.15561 0.0
H146 H 0.30836 0.43538 0.09715 0.0
C147 C 0.20416 0.46582 0.12366 0.0
C148 C 0.27 0.44179 0.15359 0.0
C149 C 0.17193 0.47163 0.12695 0.0
C150 C 0.42856 0.47096 0.14004 0.0
C151 C 0.39135 0.4672 0.14307 0.0
C152 C 0.29781 0.43661 0.11304 0.0
C153 C 0.21162 0.44257 0.13723 0.0
C154 C 0.24809 0.43976 0.13517 0.0
C155 C 0.35879 0.44101 0.12939 0.0
C156 C 0.32003 0.43925 0.13145 0.0
H157 H 0.13395 0.41615 0.17004 0.0
H158 H 0.18958 0.40513 0.16399 0.0
H159 H 0.24589 0.43481 0.10038 0.0
H160 H 0.40448 0.40386 0.09711 0.0
H161 H 0.33939 0.39665 0.10262 0.0
C162 C 0.73072 0.15449 0.52409 0.0
C163 C 0.698 0.1534 0.53406 0.0
C164 C 0.76647 0.19029 0.52372 0.0
C165 C 0.81904 0.29809 0.54199 0.0
H166 H 0.84121 0.31121 0.48159 0.0
C167 C 0.92663 0.44838 0.50439 0.0
C168 C 0.9081 0.45607 0.48749 0.0
C169 C 0.90771 0.41133 0.51319 0.0
C170 C 0.83569 0.30792 0.49855 0.0
H171 H 0.67822 0.18739 0.55375 0.0
H172 H 0.74029 0.24988 0.5529 0.0
H173 H 0.7989 0.2452 0.49357 0.0
H174 H 0.85542 0.4318 0.46683 0.0
H175 H 0.82277 0.3671 0.4819 0.0
H176 H 0.85464 0.36157 0.54653 0.0
C177 C 0.73866 0.22333 0.54539 0.0
C178 C 0.81182 0.27005 0.50549 0.0
C179 C 0.70296 0.18749 0.54582 0.0
C180 C 0.87032 0.42655 0.47981 0.0
C181 C 0.85178 0.38953 0.48833 0.0
C182 C 0.84337 0.33614 0.53501 0.0
C183 C 0.76996 0.22555 0.53324 0.0
C184 C 0.8021 0.26474 0.52717 0.0
C185 C 0.87043 0.38141 0.50493 0.0
C186 C 0.85064 0.34137 0.51311 0.0
H187 H 0.72779 0.12849 0.51509 0.0
H188 H 0.79039 0.19094 0.51461 0.0
H189 H 0.81222 0.2949 0.5588 0.0
H190 H 0.95577 0.47075 0.51065 0.0
H191 H 0.92257 0.40571 0.52602 0.0
C192 C 0.60798 0.66538 0.78745 0.0
C193 C 0.62554 0.66418 0.80679 0.0
C194 C 0.60661 0.69932 0.78302 0.0
C195 C 0.64402 0.80513 0.79985 0.0
H196 H 0.53691 0.77869 0.78408 0.0
C197 C 0.59035 0.91962 0.80627 0.0
C198 C 0.56452 0.91697 0.78976 0.0
C199 C 0.6011 0.89045 0.80722 0.0
C200 C 0.56713 0.7867 0.78816 0.0
H201 H 0.65821 0.69818 0.83585 0.0
H202 H 0.65568 0.7575 0.82815 0.0
H203 H 0.55262 0.72608 0.78612 0.0
H204 H 0.53019 0.88265 0.7612 0.0
H205 H 0.54931 0.83221 0.7626 0.0
H206 H 0.6583 0.86592 0.80207 0.0
C207 C 0.64307 0.73238 0.81639 0.0
C208 C 0.57616 0.75652 0.78928 0.0
C209 C 0.6444 0.69839 0.82083 0.0
C210 C 0.54988 0.88508 0.7742 0.0
C211 C 0.56073 0.85616 0.77506 0.0
C212 C 0.635 0.83548 0.79863 0.0
C213 C 0.62278 0.73259 0.79784 0.0
C214 C 0.61462 0.76535 0.79519 0.0
C215 C 0.58626 0.85832 0.79164 0.0
C216 C 0.59639 0.82653 0.79283 0.0
H217 H 0.59345 0.63942 0.77629 0.0
H218 H 0.59141 0.69895 0.7684 0.0
H219 H 0.67394 0.81277 0.80441 0.0
H220 H 0.60209 0.944 0.81847 0.0
H221 H 0.62046 0.89271 0.82034 0.0
C222 C 0.94001 0.60132 0.1775 0.0
C223 C 0.94591 0.57569 0.18983 0.0
C224 C 0.90358 0.60002 0.17734 0.0
C225 C 0.80279 0.55223 0.20034 0.0
H226 H 0.76907 0.5367 0.1404 0.0
C227 C 0.64064 0.49654 0.16799 0.0
C228 C 0.62755 0.46543 0.15189 0.0
C229 C 0.68025 0.51666 0.17548 0.0
C230 C 0.7781 0.54121 0.15722 0.0
H231 H 0.92036 0.53187 0.21344 0.0
H232 H 0.85644 0.52882 0.2128 0.0
H233 H 0.83878 0.56482 0.14987 0.0
H234 H 0.64475 0.43007 0.13154 0.0
H235 H 0.71373 0.46523 0.14447 0.0
H236 H 0.74117 0.52651 0.20736 0.0
C237 C 0.87983 0.55022 0.2034 0.0
C238 C 0.81815 0.55785 0.16271 0.0
C239 C 0.91642 0.5518 0.2037 0.0
C240 C 0.65419 0.45403 0.1439 0.0
C241 C 0.69365 0.47429 0.15119 0.0
C242 C 0.76251 0.53573 0.1948 0.0
C243 C 0.87233 0.57273 0.18932 0.0
C244 C 0.83092 0.56249 0.18428 0.0
C245 C 0.70723 0.50622 0.16675 0.0
C246 C 0.74981 0.52887 0.17313 0.0
H247 H 0.96253 0.62038 0.16687 0.0
H248 H 0.89899 0.61841 0.16671 0.0
H249 H 0.81177 0.55569 0.2171 0.0
H250 H 0.6206 0.50584 0.17446 0.0
H251 H 0.69008 0.54115 0.18753 0.0
C252 C 0.36805 0.91426 0.46312 0.0
C253 C 0.37529 0.94137 0.4807 0.0
C254 C 0.33116 0.87968 0.46012 0.0
C255 C 0.24512 0.81344 0.49117 0.0
H256 H 0.19866 0.76435 0.4349 0.0
C257 C 0.09143 0.67008 0.47636 0.0
C258 C 0.08975 0.64251 0.46025 0.0
C259 C 0.12576 0.70722 0.47976 0.0
C260 C 0.21146 0.77763 0.45072 0.0
H261 H 0.34933 0.95512 0.50817 0.0
H262 H 0.28458 0.89543 0.50258 0.0
H263 H 0.25811 0.82966 0.43796 0.0
H264 H 0.12346 0.63091 0.43622 0.0
H265 H 0.18306 0.69559 0.44208 0.0
H266 H 0.19818 0.76124 0.50386 0.0
C267 C 0.30757 0.90014 0.49145 0.0
C268 C 0.24552 0.81502 0.45247 0.0
C269 C 0.34451 0.93451 0.49454 0.0
C270 C 0.12361 0.65193 0.44841 0.0
C271 C 0.15768 0.68895 0.45172 0.0
C272 C 0.21085 0.77612 0.48941 0.0
C273 C 0.30077 0.87178 0.47456 0.0
C274 C 0.26304 0.8332 0.4727 0.0
C275 C 0.15881 0.71732 0.46706 0.0
C276 C 0.19403 0.75764 0.46916 0.0
H277 H 0.39143 0.9188 0.4523 0.0
H278 H 0.32711 0.85834 0.44704 0.0
H279 H 0.25817 0.82625 0.507 0.0
H280 H 0.06571 0.66363 0.48565 0.0
H281 H 0.12588 0.72859 0.4917 0.0
C282 C 0.48075 0.3227 0.85475 0.0
C283 C 0.51661 0.35661 0.86144 0.0
C284 C 0.47611 0.28502 0.85614 0.0
C285 C 0.52698 0.23075 0.87399 0.0
H286 H 0.48275 0.17075 0.81955 0.0
C287 C 0.57608 0.12817 0.83084 0.0
C288 C 0.54765 0.09508 0.81823 0.0
C289 C 0.56534 0.15333 0.84204 0.0
C290 C 0.49445 0.18651 0.83507 0.0
H291 H 0.57454 0.37807 0.87643 0.0
H292 H 0.56731 0.31266 0.87798 0.0
H293 H 0.47501 0.22731 0.82912 0.0
H294 H 0.48578 0.06045 0.80823 0.0
H295 H 0.46672 0.10401 0.828 0.0
H296 H 0.5486 0.1908 0.87905 0.0
C297 C 0.54227 0.31465 0.87212 0.0
C298 C 0.48988 0.21905 0.84065 0.0
C299 C 0.54657 0.35228 0.87113 0.0
C300 C 0.50805 0.08595 0.81793 0.0
C301 C 0.49727 0.11092 0.82914 0.0
C302 C 0.53188 0.19823 0.86828 0.0
C303 C 0.50764 0.28066 0.86373 0.0
C304 C 0.50688 0.24225 0.85993 0.0
C305 C 0.52606 0.14566 0.84066 0.0
C306 C 0.51637 0.17635 0.84852 0.0
H307 H 0.45702 0.32536 0.84748 0.0
H308 H 0.44857 0.25945 0.85014 0.0
H309 H 0.53996 0.24756 0.88912 0.0
H310 H 0.60685 0.13568 0.83107 0.0
H311 H 0.58825 0.18007 0.85059 0.0
C312 C 0.50172 0.90291 0.5097 0.0
C313 C 0.53821 0.93831 0.50871 0.0
C314 C 0.50024 0.86659 0.51169 0.0
C315 C 0.55512 0.81308 0.5022 0.0
H316 H 0.48688 0.74528 0.54487 0.0
C317 C 0.54848 0.66432 0.52087 0.0
C318 C 0.51232 0.63354 0.5276 0.0
C319 C 0.55318 0.70195 0.51789 0.0
C320 C 0.50559 0.76329 0.53255 0.0
H321 H 0.60184 0.96274 0.50862 0.0
H322 H 0.59914 0.89905 0.51171 0.0
H323 H 0.49181 0.80909 0.54073 0.0
H324 H 0.45245 0.61756 0.53563 0.0
H325 H 0.45971 0.68171 0.5295 0.0
H326 H 0.56813 0.76681 0.49359 0.0
C327 C 0.57168 0.89963 0.51107 0.0
C328 C 0.50857 0.80019 0.5303 0.0
C329 C 0.57321 0.93618 0.50942 0.0
C330 C 0.48076 0.64076 0.53057 0.0
C331 C 0.48517 0.67791 0.52729 0.0
C332 C 0.5517 0.77576 0.50424 0.0
C333 C 0.53516 0.8644 0.51243 0.0
C334 C 0.53317 0.82553 0.51503 0.0
C335 C 0.52168 0.70953 0.52137 0.0
C336 C 0.52659 0.75004 0.51935 0.0
H337 H 0.4741 0.90321 0.50922 0.0
H338 H 0.4716 0.84003 0.5125 0.0
H339 H 0.57419 0.83178 0.49019 0.0
H340 H 0.57349 0.65976 0.51861 0.0
H341 H 0.58188 0.72536 0.5135 0.0
C342 C 0.68447 0.47795 0.84049 0.0
C343 C 0.68274 0.50936 0.83154 0.0
C344 C 0.71997 0.47714 0.84142 0.0
C345 C 0.82965 0.54191 0.83945 0.0
H346 H 0.8268 0.441 0.83366 0.0
C347 C 0.97326 0.53103 0.84479 0.0
C348 C 0.97128 0.50219 0.85802 0.0
C349 C 0.93868 0.53138 0.83869 0.0
C350 C 0.82819 0.46947 0.83543 0.0
H351 H 0.71756 0.5645 0.81634 0.0
H352 H 0.77936 0.5628 0.81766 0.0
H353 H 0.76593 0.44308 0.82861 0.0
H354 H 0.93121 0.45003 0.8743 0.0
H355 H 0.87124 0.4503 0.86356 0.0
H356 H 0.89203 0.56817 0.84638 0.0
C357 C 0.75325 0.53897 0.82427 0.0
C358 C 0.79313 0.47068 0.83259 0.0
C359 C 0.71764 0.53983 0.82338 0.0
C360 C 0.93378 0.47267 0.86411 0.0
C361 C 0.89932 0.47277 0.85786 0.0
C362 C 0.86481 0.5407 0.84219 0.0
C363 C 0.75502 0.50763 0.83337 0.0
C364 C 0.79311 0.50683 0.83491 0.0
C365 C 0.90125 0.50259 0.84544 0.0
C366 C 0.86449 0.50438 0.84056 0.0
H367 H 0.65842 0.45401 0.8471 0.0
H368 H 0.72001 0.45285 0.84893 0.0
H369 H 0.831 0.57031 0.84162 0.0
H370 H 1.00169 0.55438 0.83999 0.0
H371 H 0.94132 0.55456 0.82893 0.0
C372 C 0.16193 0.66445 0.18192 0.0
C373 C 0.15982 0.62913 0.1735 0.0
C374 C 0.19771 0.70065 0.18255 0.0
C375 C 0.30712 0.74445 0.18075 0.0
H376 H 0.30469 0.83984 0.1694 0.0
C377 C 0.45125 0.8989 0.18259 0.0
C378 C 0.44887 0.92987 0.19386 0.0
C379 C 0.41671 0.86242 0.17709 0.0
C380 C 0.30599 0.81358 0.17274 0.0
H381 H 0.19432 0.60461 0.15923 0.0
H382 H 0.2566 0.66771 0.16029 0.0
H383 H 0.2436 0.77593 0.16648 0.0
H384 H 0.40848 0.94759 0.20729 0.0
H385 H 0.34866 0.88471 0.19765 0.0
H386 H 0.36952 0.78231 0.18731 0.0
C387 C 0.23057 0.66735 0.16658 0.0
C388 C 0.2708 0.77681 0.17112 0.0
C389 C 0.1947 0.63108 0.1659 0.0
C390 C 0.41123 0.92432 0.19851 0.0
C391 C 0.37687 0.88818 0.19291 0.0
C392 C 0.34238 0.7813 0.18239 0.0
C393 C 0.23257 0.70275 0.17481 0.0
C394 C 0.27067 0.74171 0.17541 0.0
C395 C 0.37904 0.8563 0.18256 0.0
C396 C 0.34224 0.81653 0.17873 0.0
H397 H 0.13584 0.66427 0.18798 0.0
H398 H 0.19806 0.72702 0.18936 0.0
H399 H 0.30829 0.71824 0.18437 0.0
H400 H 0.47988 0.90219 0.179 0.0
H401 H 0.41957 0.83876 0.1689 0.0
C402 C 0.57109 0.19391 0.50815 0.0
C403 C 0.53735 0.15838 0.50042 0.0
C404 C 0.57126 0.22995 0.50929 0.0
C405 C 0.5192 0.28134 0.48997 0.0
H406 H 0.57164 0.35194 0.54042 0.0
C407 C 0.5081 0.42315 0.51427 0.0
C408 C 0.54141 0.45555 0.5248 0.0
C409 C 0.50799 0.38761 0.50864 0.0
C410 C 0.55738 0.33301 0.52602 0.0
H411 H 0.47743 0.13352 0.48735 0.0
H412 H 0.47759 0.1965 0.48956 0.0
H413 H 0.56994 0.28889 0.53609 0.0
H414 H 0.60119 0.47688 0.53681 0.0
H415 H 0.60173 0.41586 0.52639 0.0
H416 H 0.50631 0.32572 0.48012 0.0
C417 C 0.50414 0.19643 0.49457 0.0
C418 C 0.55635 0.29661 0.52355 0.0
C419 C 0.50399 0.1602 0.49338 0.0
C420 C 0.57528 0.4525 0.5285 0.0
C421 C 0.57528 0.41724 0.52281 0.0
C422 C 0.52019 0.31795 0.49248 0.0
C423 C 0.53764 0.23178 0.50284 0.0
C424 C 0.53757 0.27028 0.50542 0.0
C425 C 0.54118 0.38373 0.51352 0.0
C426 C 0.53965 0.3445 0.51047 0.0
H427 H 0.59755 0.19401 0.51354 0.0
H428 H 0.59796 0.25651 0.51529 0.0
H429 H 0.50466 0.26206 0.47573 0.0
H430 H 0.48131 0.42445 0.51165 0.0
H431 H 0.48112 0.36251 0.50161 0.0
C432 C 0.46261 0.54913 0.83743 0.0
C433 C 0.46228 0.51323 0.83931 0.0
C434 C 0.42747 0.5507 0.83841 0.0
C435 C 0.32085 0.49226 0.8539 0.0
H436 H 0.31247 0.57138 0.82318 0.0
C437 C 0.17571 0.5017 0.84794 0.0
C438 C 0.18127 0.53949 0.85406 0.0
C439 C 0.20854 0.4964 0.84467 0.0
C440 C 0.31434 0.5491 0.83185 0.0
H441 H 0.42425 0.45057 0.84342 0.0
H442 H 0.3629 0.45281 0.84426 0.0
H443 H 0.37177 0.56579 0.82027 0.0
H444 H 0.22531 0.60125 0.86107 0.0
H445 H 0.28224 0.59231 0.85459 0.0
H446 H 0.26263 0.47516 0.86497 0.0
C447 C 0.39042 0.48024 0.84271 0.0
C448 C 0.34863 0.54606 0.83037 0.0
C449 C 0.42573 0.47884 0.8421 0.0
C450 C 0.22011 0.57185 0.85622 0.0
C451 C 0.25273 0.56673 0.85249 0.0
C452 C 0.28622 0.49487 0.85504 0.0
C453 C 0.39061 0.51623 0.84089 0.0
C454 C 0.35286 0.51803 0.84165 0.0
C455 C 0.24747 0.5289 0.84696 0.0
C456 C 0.28278 0.52372 0.84429 0.0
H457 H 0.49021 0.57632 0.83545 0.0
H458 H 0.42951 0.57927 0.83749 0.0
H459 H 0.32277 0.47065 0.86313 0.0
H460 H 0.14615 0.47611 0.84638 0.0
H461 H 0.20351 0.46689 0.84037 0.0
C462 C 0.90342 0.40693 0.17281 0.0
C463 C 0.93661 0.40651 0.16427 0.0
C464 C 0.86765 0.37162 0.17482 0.0
C465 C 0.80917 0.26482 0.15618 0.0
H466 H 0.75405 0.25851 0.20867 0.0
C467 C 0.66252 0.12216 0.17867 0.0
C468 C 0.63416 0.12917 0.18878 0.0
C469 C 0.70035 0.15411 0.17468 0.0
C470 C 0.7687 0.25977 0.19378 0.0
H471 H 0.95741 0.36802 0.15064 0.0
H472 H 0.8947 0.30619 0.15415 0.0
H473 H 0.81745 0.31719 0.20342 0.0
H474 H 0.62283 0.175 0.20199 0.0
H475 H 0.68763 0.23005 0.19481 0.0
H476 H 0.75985 0.20718 0.14657 0.0
C477 C 0.89651 0.3341 0.15923 0.0
C478 C 0.80524 0.29359 0.19076 0.0
C479 C 0.93256 0.3696 0.15728 0.0
C480 C 0.64406 0.16856 0.19429 0.0
C481 C 0.68149 0.20021 0.19032 0.0
C482 C 0.77234 0.23081 0.15919 0.0
C483 C 0.86372 0.3346 0.16837 0.0
C484 C 0.82577 0.29703 0.17178 0.0
C485 C 0.71055 0.19361 0.18081 0.0
C486 C 0.75121 0.22813 0.1779 0.0
H487 H 0.90508 0.43461 0.17829 0.0
H488 H 0.84294 0.3734 0.18152 0.0
H489 H 0.82404 0.26639 0.14134 0.0
H490 H 0.65583 0.09212 0.17428 0.0
H491 H 0.72194 0.14781 0.16736 0.0
C492 C 0.07017 0.56103 0.09482 0.0
C493 C 0.04932 0.52796 0.10695 0.0
C494 C 0.07261 0.55606 0.07266 0.0
C495 C 0.01696 0.49278 0.02672 0.0
H496 H 0.11589 0.54217 0.99712 0.0
C497 C 0.01866 0.4769 0.93437 0.0
C498 C 0.04752 0.50931 0.92394 0.0
C499 C 0.02049 0.47643 0.95669 0.0
C500 C 0.08791 0.52864 0.00505 0.0
H501 H 0.01525 0.46375 0.10566 0.0
H502 H 0.01834 0.45508 0.06658 0.0
H503 H 0.11681 0.54673 0.03626 0.0
H504 H 0.10069 0.56673 0.92846 0.0
H505 H 0.10302 0.5671 0.96747 0.0
H506 H 0.98768 0.47659 0.99585 0.0
C507 C 0.03319 0.48476 0.07435 0.0
C508 C 0.08856 0.53099 0.02748 0.0
C509 C 0.03154 0.48971 0.09663 0.0
C510 C 0.07827 0.54126 0.93618 0.0
C511 C 0.07969 0.54122 0.95854 0.0
C512 C 0.01621 0.49112 0.0043 0.0
C513 C 0.05351 0.51794 0.06218 0.0
C514 C 0.05309 0.51321 0.03849 0.0
C515 C 0.05079 0.5088 0.96916 0.0
C516 C 0.05168 0.50923 0.9931 0.0
H517 H 0.08425 0.59081 0.10245 0.0
H518 H 0.08825 0.58208 0.06359 0.0
H519 H 0.98919 0.47928 0.03489 0.0
H520 H 0.99488 0.45172 0.92521 0.0
H521 H 0.99818 0.45052 0.96411 0.0
C522 C 0.58141 0.0903 0.43023 0.0
C523 C 0.55652 0.06056 0.44345 0.0
C524 C 0.57398 0.08557 0.4081 0.0
C525 C 0.49937 0.02114 0.36446 0.0
H526 H 0.59261 0.06732 0.32993 0.0
C527 C 0.50457 0.98028 0.27364 0.0
C528 C 0.52084 0.0126 0.26053 0.0
C529 C 0.50616 0.98648 0.29598 0.0
C530 C 0.56634 0.05451 0.33939 0.0
H531 H 0.50409 1.00277 0.44424 0.0
H532 H 0.49196 0.99321 0.40533 0.0
H533 H 0.60028 0.07673 0.36878 0.0
H534 H 0.55089 0.07695 0.26103 0.0
H535 H 0.55547 0.08752 0.30006 0.0
H536 H 0.46589 0.99716 0.33462 0.0
C537 C 0.51652 0.02095 0.41199 0.0
C538 C 0.57058 0.06012 0.36171 0.0
C539 C 0.52342 0.02626 0.4343 0.0
C540 C 0.5388 0.05129 0.27047 0.0
C541 C 0.54113 0.05744 0.29283 0.0
C542 C 0.49525 0.0148 0.34207 0.0
C543 C 0.54219 0.05032 0.39852 0.0
C544 C 0.53717 0.04386 0.37463 0.0
C545 C 0.52479 0.02509 0.30574 0.0
C546 C 0.52872 0.03168 0.32939 0.0
H547 H 0.6069 0.11725 0.43701 0.0
H548 H 0.59365 0.10954 0.39853 0.0
H549 H 0.47288 0.00855 0.37371 0.0
H550 H 0.49124 0.95007 0.26673 0.0
H551 H 0.4938 0.9611 0.30566 0.0
C552 C 0.51663 0.46256 0.76067 0.0
C553 C 0.54925 0.48859 0.77423 0.0
C554 C 0.51643 0.46864 0.73891 0.0
C555 C 0.55681 0.54292 0.69941 0.0
H556 H 0.5287 0.45245 0.6592 0.0
C557 C 0.56303 0.55364 0.60681 0.0
C558 C 0.53486 0.52042 0.59407 0.0
C559 C 0.56536 0.55202 0.62908 0.0
C560 C 0.53597 0.47792 0.67015 0.0
H561 H 0.60715 0.54162 0.77575 0.0
H562 H 0.60637 0.55288 0.73753 0.0
H563 H 0.53222 0.44573 0.69744 0.0
H564 H 0.48565 0.46041 0.59455 0.0
H565 H 0.48849 0.45793 0.63332 0.0
H566 H 0.55952 0.57489 0.67214 0.0
C567 C 0.58106 0.52771 0.74386 0.0
C568 C 0.53825 0.47407 0.69208 0.0
C569 C 0.58152 0.52127 0.76567 0.0
C570 C 0.50796 0.48624 0.60403 0.0
C571 C 0.50988 0.48479 0.62623 0.0
C572 C 0.55404 0.54668 0.67739 0.0
C573 C 0.54865 0.50115 0.73025 0.0
C574 C 0.54836 0.50638 0.70695 0.0
C575 C 0.53924 0.51726 0.63903 0.0
C576 C 0.54318 0.51407 0.66248 0.0
H577 H 0.49127 0.4372 0.76683 0.0
H578 H 0.4909 0.44794 0.72883 0.0
H579 H 0.56446 0.56823 0.71057 0.0
H580 H 0.58427 0.58025 0.59946 0.0
H581 H 0.58852 0.57751 0.63834 0.0
C582 C 0.56152 0.06114 0.57167 0.0
C583 C 0.52987 0.06401 0.56302 0.0
C584 C 0.56994 0.06753 0.5938 0.0
C585 C 0.51796 0.05733 0.64345 0.0
H586 H 0.62264 0.11081 0.67115 0.0
C587 C 0.58907 0.0995 0.73495 0.0
C588 C 0.56791 0.06181 0.74304 0.0
C589 C 0.5871 0.10383 0.71298 0.0
C590 C 0.59326 0.09609 0.6636 0.0
H591 H 0.48384 0.07817 0.57031 0.0
H592 H 0.49849 0.08929 0.60887 0.0
H593 H 0.61562 0.1134 0.63232 0.0
H594 H 0.5278 0.99928 0.73464 0.0
H595 H 0.5243 0.00686 0.69643 0.0
H596 H 0.49553 0.03941 0.67449 0.0
C597 C 0.51644 0.08161 0.59868 0.0
C598 C 0.58928 0.09732 0.64143 0.0
C599 C 0.50814 0.07535 0.57662 0.0
C600 C 0.54477 0.02863 0.72882 0.0
C601 C 0.54248 0.033 0.707 0.0
C602 C 0.52196 0.05578 0.66547 0.0
C603 C 0.54672 0.07674 0.60756 0.0
C604 C 0.55155 0.07774 0.63115 0.0
C605 C 0.56343 0.07061 0.69886 0.0
C606 C 0.55962 0.07476 0.67573 0.0
H607 H 0.57882 0.05258 0.56146 0.0
H608 H 0.59334 0.0634 0.60022 0.0
H609 H 0.48853 0.04154 0.63595 0.0
H610 H 0.60722 0.12551 0.7456 0.0
H611 H 0.60339 0.13316 0.70707 0.0
C612 C 0.55948 0.49809 0.90108 0.0
C613 C 0.59341 0.53031 0.89344 0.0
C614 C 0.55733 0.49067 0.92277 0.0
C615 C 0.56808 0.47102 0.9678 0.0
H616 H 0.59944 0.56164 0.00846 0.0
C617 C 0.55641 0.45712 0.05962 0.0
C618 C 0.53824 0.47653 0.07 0.0
C619 C 0.56794 0.46423 0.03841 0.0
C620 C 0.59064 0.53607 0.9973 0.0
H621 H 0.65213 0.57936 0.90217 0.0
H622 H 0.64837 0.56647 0.94016 0.0
H623 H 0.61028 0.57178 0.97037 0.0
H624 H 0.51918 0.51956 0.06669 0.0
H625 H 0.53903 0.53177 0.0297 0.0
H626 H 0.54725 0.43522 0.99471 0.0
C627 C 0.62332 0.54716 0.92943 0.0
C628 C 0.59719 0.5419 0.97552 0.0
C629 C 0.62553 0.55446 0.90771 0.0
C630 C 0.53269 0.50383 0.05898 0.0
C631 C 0.54446 0.51114 0.03789 0.0
C632 C 0.56171 0.46521 0.98962 0.0
C633 C 0.58903 0.51543 0.93722 0.0
C634 C 0.58535 0.50938 0.9605 0.0
C635 C 0.5619 0.4912 0.02731 0.0
C636 C 0.57225 0.49763 0.00453 0.0
H637 H 0.53432 0.47898 0.89038 0.0
H638 H 0.53034 0.46627 0.92833 0.0
H639 H 0.55902 0.44545 0.9566 0.0
H640 H 0.56091 0.43584 0.06774 0.0
H641 H 0.58155 0.44864 0.03067 0.0
C642 C 0.0242 0.47012 0.23848 0.0
C643 C 0.03873 0.50308 0.22606 0.0
C644 C 0.01322 0.47252 0.2595 0.0
C645 C 0.98718 0.53113 0.29786 0.0
H646 H 0.02514 0.48817 0.34032 0.0
C647 C 1.00149 0.57555 0.38847 0.0
C648 C 0.9961 0.54733 0.40306 0.0
C649 C 0.99885 0.56614 0.36641 0.0
C650 C 0.01356 0.49961 0.32866 0.0
H651 H 0.05241 0.56411 0.22554 0.0
H652 H 0.03363 0.56857 0.26253 0.0
H653 H 0.0365 0.48013 0.30262 0.0
H654 H 0.98125 0.48636 0.40596 0.0
H655 H 0.97569 0.46958 0.36738 0.0
H656 H 0.96494 0.55132 0.32408 0.0
C657 C 0.03034 0.54073 0.25593 0.0
C658 C 0.0202 0.4951 0.30702 0.0
C659 C 0.04135 0.53831 0.23484 0.0
C660 C 0.98546 0.50871 0.39512 0.0
C661 C 0.98274 0.49926 0.37303 0.0
C662 C 0.98046 0.5356 0.31956 0.0
C663 C 0.01658 0.50796 0.26856 0.0
C664 C 1.00748 0.51116 0.29139 0.0
C665 C 0.99063 0.52824 0.35844 0.0
C666 C 0.994 0.52027 0.33523 0.0
H667 H 0.02151 0.44246 0.232 0.0
H668 H 1.00215 0.44659 0.2687 0.0
H669 H 0.97656 0.54335 0.28614 0.0
H670 H 0.00918 0.60541 0.39414 0.0
H671 H 1.00531 0.58924 0.35565 0.0
loop_
_geom_bond_atom_site_label_1
_geom_bond_atom_site_label_2
_geom_bond_distance
_geom_bond_site_symmetry_2
_ccdc_geom_bond_type
Dy0 O4 2.398 . S
Dy0 O5 2.491 . S
Dy0 O6 2.403 . S
Dy0 O7 2.664 . S
Dy0 O11 2.326 . S
Dy0 O15 2.310 . S
Dy0 O16 2.351 . S
C1 O12 1.185 . S
C1 O13 1.355 . S
C2 O4 1.185 . S
C2 O5 1.355 . S
Dy3 O7 2.310 . S
Dy3 O10 2.351 . S
Dy3 O12 2.398 1_455 S
Dy3 O13 2.491 1_455 S
Dy3 O14 2.403 . S
Dy3 O15 2.664 . S
Dy3 O17 2.326 1_455 S
O4 Dy0 2.398 . S
O4 C2 1.185 . S
O5 Dy0 2.491 . S
O5 C2 1.355 . S
O6 Dy0 2.403 . S
O6 C8 1.254 . S
O7 Dy0 2.664 . S
O7 Dy3 2.310 . S
O7 C8 1.268 . S
C8 O6 1.254 . S
C8 O7 1.268 . S
C9 O14 1.254 . S
C9 O15 1.268 . S
O10 Dy3 2.351 . S
O10 C18 1.249 . S
O11 Dy0 2.326 . S
O11 C18 1.267 . S
O12 C1 1.185 . S
O12 Dy3 2.398 1_655 S
O13 C1 1.355 . S
O13 Dy3 2.491 1_655 S
O14 Dy3 2.403 . S
O14 C9 1.254 . S
O15 Dy0 2.310 . S
O15 Dy3 2.664 . S
O15 C9 1.268 . S
O16 Dy0 2.351 . S
O16 C19 1.249 1_455 S
O17 Dy3 2.326 1_655 S
O17 C19 1.267 . S
C18 O10 1.249 . S
C18 O11 1.267 . S
C19 O16 1.249 1_655 S
C19 O17 1.267 . S
Dy20 O24 2.398 . S
Dy20 O25 2.491 . S
Dy20 O26 2.403 . S
Dy20 O27 2.664 1_565 S
Dy20 O31 2.326 . S
Dy20 O35 2.310 1_565 S
Dy20 O36 2.351 1_565 S
C21 O32 1.185 . S
C21 O33 1.355 . S
C22 O24 1.185 . S
C22 O25 1.355 . S
Dy23 O27 2.310 . S
Dy23 O30 2.351 1_545 S
Dy23 O32 2.398 . S
Dy23 O33 2.491 . S
Dy23 O34 2.403 . S
Dy23 O35 2.664 . S
Dy23 O37 2.326 . S
O24 Dy20 2.398 . S
O24 C22 1.185 . S
O25 Dy20 2.491 . S
O25 C22 1.355 . S
O26 Dy20 2.403 . S
O26 C28 1.254 1_565 S
O27 Dy20 2.664 1_545 S
O27 Dy23 2.310 . S
O27 C28 1.268 . S
C28 O26 1.254 1_545 S
C28 O27 1.268 . S
C29 O34 1.254 . S
C29 O35 1.268 . S
O30 Dy23 2.351 1_565 S
O30 C38 1.249 . S
O31 Dy20 2.326 . S
O31 C38 1.267 . S
O32 C21 1.185 . S
O32 Dy23 2.398 . S
O33 C21 1.355 . S
O33 Dy23 2.491 . S
O34 Dy23 2.403 . S
O34 C29 1.254 . S
O35 Dy20 2.310 1_545 S
O35 Dy23 2.664 . S
O35 C29 1.268 . S
O36 Dy20 2.351 1_545 S
O36 C39 1.249 . S
O37 Dy23 2.326 . S
O37 C39 1.267 . S
C38 O30 1.249 . S
C38 O31 1.267 . S
C39 O36 1.249 . S
C39 O37 1.267 . S
Dy40 O44 2.398 . S
Dy40 O45 2.491 . S
Dy40 O46 2.403 . S
Dy40 O47 2.664 . S
Dy40 O51 2.326 . S
Dy40 O55 2.310 . S
Dy40 O56 2.351 . S
C41 O52 1.185 . S
C41 O53 1.355 . S
C42 O44 1.185 . S
C42 O45 1.355 . S
Dy43 O47 2.310 . S
Dy43 O50 2.351 . S
Dy43 O52 2.398 . S
Dy43 O53 2.491 . S
Dy43 O54 2.403 . S
Dy43 O55 2.664 . S
Dy43 O57 2.326 . S
O44 Dy40 2.398 . S
O44 C42 1.185 . S
O45 Dy40 2.491 . S
O45 C42 1.355 . S
O46 Dy40 2.403 . S
O46 C48 1.254 . S
O47 Dy40 2.664 . S
O47 Dy43 2.310 . S
O47 C48 1.268 . S
C48 O46 1.254 . S
C48 O47 1.268 . S
C49 O54 1.254 . S
C49 O55 1.268 . S
O50 Dy43 2.351 . S
O50 C58 1.249 . S
O51 Dy40 2.326 . S
O51 C58 1.267 . S
O52 C41 1.185 . S
O52 Dy43 2.398 . S
O53 C41 1.355 . S
O53 Dy43 2.491 . S
O54 Dy43 2.403 . S
O54 C49 1.254 . S
O55 Dy40 2.310 . S
O55 Dy43 2.664 . S
O55 C49 1.268 . S
O56 Dy40 2.351 . S
O56 C59 1.249 . S
O57 Dy43 2.326 . S
O57 C59 1.267 . S
C58 O50 1.249 . S
C58 O51 1.267 . S
C59 O56 1.249 . S
C59 O57 1.267 . S
H60 C65 0.930 . S
H61 C68 0.930 . S
H62 C70 0.930 . S
H63 C64 1.016 . S
C64 H63 1.016 . S
C64 N71 1.286 . S
C65 H60 0.930 . S
C65 C66 1.397 . S
C65 C67 1.361 1_565 S
C66 C65 1.397 . S
C66 C70 1.390 . S
C67 C65 1.361 1_545 S
C67 C68 1.393 . S
C67 N71 1.413 . S
C68 H61 0.930 . S
C68 C67 1.393 . S
C68 C69 1.399 . S
C69 C68 1.399 . S
C69 C70 1.381 1_545 S
C70 H62 0.930 . S
C70 C66 1.390 . S
C70 C69 1.381 1_565 S
N71 C64 1.286 . S
N71 C67 1.413 . S
H72 C77 0.930 . S
H73 C80 0.930 . S
H74 C82 0.930 . S
H75 C76 1.016 . S
C76 H75 1.016 . S
C76 N83 1.286 . S
C77 H72 0.930 . S
C77 C78 1.397 . S
C77 C79 1.361 . S
C78 C77 1.397 . S
C78 C82 1.390 . S
C79 C77 1.361 . S
C79 C80 1.393 . S
C79 N83 1.413 . S
C80 H73 0.930 . S
C80 C79 1.393 . S
C80 C81 1.399 . S
C81 C80 1.399 . S
C81 C82 1.381 . S
C82 H74 0.930 . S
C82 C78 1.390 . S
C82 C81 1.381 . S
N83 C76 1.286 . S
N83 C79 1.413 . S
H84 C89 0.930 . S
H85 C92 0.930 . S
H86 C94 0.930 . S
H87 C88 1.016 . S
C88 H87 1.016 . S
C88 N95 1.286 . S
C89 H84 0.930 . S
C89 C90 1.397 . S
C89 C91 1.361 . S
C90 C89 1.397 . S
C90 C94 1.390 . S
C91 C89 1.361 . S
C91 C92 1.393 . S
C91 N95 1.413 . S
C92 H85 0.930 . S
C92 C91 1.393 . S
C92 C93 1.399 . S
C93 C92 1.399 . S
C93 C94 1.381 . S
C94 H86 0.930 . S
C94 C90 1.390 . S
C94 C93 1.381 . S
N95 C88 1.286 . S
N95 C91 1.413 . S
H96 C101 0.930 . S
H97 C104 0.930 . S
H98 C106 0.930 . S
H99 C100 1.016 . S
C100 H99 1.016 . S
C100 N107 1.286 . S
C101 H96 0.930 . S
C101 C102 1.397 . S
C101 C103 1.361 1_455 S
C102 C101 1.397 . S
C102 C106 1.390 . S
C103 C101 1.361 1_655 S
C103 C104 1.393 . S
C103 N107 1.413 . S
C104 H97 0.930 . S
C104 C103 1.393 . S
C104 C105 1.399 1_655 S
C105 C104 1.399 1_455 S
C105 C106 1.381 . S
C106 H98 0.930 . S
C106 C102 1.390 . S
C106 C105 1.381 . S
N107 C100 1.286 . S
N107 C103 1.413 . S
H108 C113 0.930 . S
H109 C116 0.930 1_565 S
H110 C118 0.930 . S
H111 C112 1.016 . S
C112 H111 1.016 . S
C112 N119 1.286 . S
C113 H108 0.930 . S
C113 C114 1.397 . S
C113 C115 1.361 . S
C114 C113 1.397 . S
C114 C118 1.390 . S
C115 C113 1.361 . S
C115 C116 1.393 . S
C115 N119 1.413 1_545 S
C116 H109 0.930 1_545 S
C116 C115 1.393 . S
C116 C117 1.399 . S
C117 C116 1.399 . S
C117 C118 1.381 . S
C118 H110 0.930 . S
C118 C114 1.390 . S
C118 C117 1.381 . S
N119 C112 1.286 . S
N119 C115 1.413 1_565 S
H120 C125 0.930 . S
H121 C128 0.930 . S
H122 C130 0.930 . S
H123 C124 1.016 . S
C124 H123 1.016 . S
C124 N131 1.286 . S
C125 H120 0.930 . S
C125 C126 1.397 . S
C125 C127 1.361 . S
C126 C125 1.397 . S
C126 C130 1.390 . S
C127 C125 1.361 . S
C127 C128 1.393 . S
C127 N131 1.413 . S
C128 H121 0.930 . S
C128 C127 1.393 . S
C128 C129 1.399 . S
C129 C128 1.399 . S
C129 C130 1.381 . S
C130 H122 0.930 . S
C130 C126 1.390 . S
C130 C129 1.381 . S
N131 C124 1.286 . S
N131 C127 1.413 . S
C132 C133 1.349 . S
C132 C134 1.327 . S
C132 H157 0.950 . S
C133 C132 1.349 . S
C133 C149 1.349 . S
C134 C132 1.327 . S
C134 C153 1.429 . S
C134 H158 0.950 . S
C135 C152 1.574 . S
C135 C154 1.368 . S
C135 H159 0.949 . S
H136 C140 0.949 . S
C137 C138 1.349 . S
C137 C139 1.327 . S
C137 H160 0.950 . S
C138 C137 1.349 . S
C138 C150 1.349 . S
C139 C137 1.327 . S
C139 C155 1.429 . S
C139 H161 0.950 . S
C140 H136 0.949 . S
C140 C148 1.574 . S
C140 C156 1.368 . S
H141 C149 0.950 . S
H142 C147 0.950 . S
H143 C148 0.949 . S
H144 C150 0.950 . S
H145 C151 0.950 . S
H146 C152 0.949 . S
C147 H142 0.950 . S
C147 C149 1.327 . S
C147 C153 1.429 . S
C148 C140 1.574 . S
C148 H143 0.949 . S
C148 C154 1.368 . S
C149 C133 1.349 . S
C149 H141 0.950 . S
C149 C147 1.327 . S
C150 C138 1.349 . S
C150 H144 0.950 . S
C150 C151 1.327 . S
C151 H145 0.950 . S
C151 C150 1.327 . S
C151 C155 1.429 . S
C152 C135 1.574 . S
C152 H146 0.949 . S
C152 C156 1.368 . S
C153 C134 1.429 . S
C153 C147 1.429 . S
C153 C154 1.523 . S
C154 C135 1.368 . S
C154 C148 1.368 . S
C154 C153 1.523 . S
C155 C139 1.429 . S
C155 C151 1.429 . S
C155 C156 1.523 . S
C156 C140 1.368 . S
C156 C152 1.368 . S
C156 C155 1.523 . S
H157 C132 0.950 . S
H158 C134 0.950 . S
H159 C135 0.949 . S
H160 C137 0.950 . S
H161 C139 0.950 . S
C162 C163 1.349 . S
C162 C164 1.327 . S
C162 H187 0.950 . S
C163 C162 1.349 . S
C163 C179 1.349 . S
C164 C162 1.327 . S
C164 C183 1.429 . S
C164 H188 0.950 . S
C165 C182 1.574 . S
C165 C184 1.368 . S
C165 H189 0.949 . S
H166 C170 0.949 . S
C167 C168 1.349 . S
C167 C169 1.327 . S
C167 H190 0.950 . S
C168 C167 1.349 . S
C168 C180 1.349 . S
C169 C167 1.327 . S
C169 C185 1.429 . S
C169 H191 0.950 . S
C170 H166 0.949 . S
C170 C178 1.574 . S
C170 C186 1.368 . S
H171 C179 0.950 . S
H172 C177 0.950 . S
H173 C178 0.949 . S
H174 C180 0.950 . S
H175 C181 0.950 . S
H176 C182 0.949 . S
C177 H172 0.950 . S
C177 C179 1.327 . S
C177 C183 1.429 . S
C178 C170 1.574 . S
C178 H173 0.949 . S
C178 C184 1.368 . S
C179 C163 1.349 . S
C179 H171 0.950 . S
C179 C177 1.327 . S
C180 C168 1.349 . S
C180 H174 0.950 . S
C180 C181 1.327 . S
C181 H175 0.950 . S
C181 C180 1.327 . S
C181 C185 1.429 . S
C182 C165 1.574 . S
C182 H176 0.949 . S
C182 C186 1.368 . S
C183 C164 1.429 . S
C183 C177 1.429 . S
C183 C184 1.523 . S
C184 C165 1.368 . S
C184 C178 1.368 . S
C184 C183 1.523 . S
C185 C169 1.429 . S
C185 C181 1.429 . S
C185 C186 1.523 . S
C186 C170 1.368 . S
C186 C182 1.368 . S
C186 C185 1.523 . S
H187 C162 0.950 . S
H188 C164 0.950 . S
H189 C165 0.949 . S
H190 C167 0.950 . S
H191 C169 0.950 . S
C192 C193 1.349 . S
C192 C194 1.327 . S
C192 H217 0.950 . S
C193 C192 1.349 . S
C193 C209 1.349 . S
C194 C192 1.327 . S
C194 C213 1.429 . S
C194 H218 0.950 . S
C195 C212 1.574 . S
C195 C214 1.368 . S
C195 H219 0.949 . S
H196 C200 0.949 . S
C197 C198 1.349 . S
C197 C199 1.327 . S
C197 H220 0.950 . S
C198 C197 1.349 . S
C198 C210 1.349 . S
C199 C197 1.327 . S
C199 C215 1.429 . S
C199 H221 0.950 . S
C200 H196 0.949 . S
C200 C208 1.574 . S
C200 C216 1.368 . S
H201 C209 0.950 . S
H202 C207 0.950 . S
H203 C208 0.949 . S
H204 C210 0.950 . S
H205 C211 0.950 . S
H206 C212 0.949 . S
C207 H202 0.950 . S
C207 C209 1.327 . S
C207 C213 1.429 . S
C208 C200 1.574 . S
C208 H203 0.949 . S
C208 C214 1.368 . S
C209 C193 1.349 . S
C209 H201 0.950 . S
C209 C207 1.327 . S
C210 C198 1.349 . S
C210 H204 0.950 . S
C210 C211 1.327 . S
C211 H205 0.950 . S
C211 C210 1.327 . S
C211 C215 1.429 . S
C212 C195 1.574 . S
C212 H206 0.949 . S
C212 C216 1.368 . S
C213 C194 1.429 . S
C213 C207 1.429 . S
C213 C214 1.523 . S
C214 C195 1.368 . S
C214 C208 1.368 . S
C214 C213 1.523 . S
C215 C199 1.429 . S
C215 C211 1.429 . S
C215 C216 1.523 . S
C216 C200 1.368 . S
C216 C212 1.368 . S
C216 C215 1.523 . S
H217 C192 0.950 . S
H218 C194 0.950 . S
H219 C195 0.949 . S
H220 C197 0.950 . S
H221 C199 0.950 . S
C222 C223 1.349 . S
C222 C224 1.327 . S
C222 H247 0.950 . S
C223 C222 1.349 . S
C223 C239 1.349 . S
C224 C222 1.327 . S
C224 C243 1.429 . S
C224 H248 0.950 . S
C225 C242 1.574 . S
C225 C244 1.368 . S
C225 H249 0.949 . S
H226 C230 0.949 . S
C227 C228 1.349 . S
C227 C229 1.327 . S
C227 H250 0.950 . S
C228 C227 1.349 . S
C228 C240 1.349 . S
C229 C227 1.327 . S
C229 C245 1.429 . S
C229 H251 0.950 . S
C230 H226 0.949 . S
C230 C238 1.574 . S
C230 C246 1.368 . S
H231 C239 0.950 . S
H232 C237 0.950 . S
H233 C238 0.949 . S
H234 C240 0.950 . S
H235 C241 0.950 . S
H236 C242 0.949 . S
C237 H232 0.950 . S
C237 C239 1.327 . S
C237 C243 1.429 . S
C238 C230 1.574 . S
C238 H233 0.949 . S
C238 C244 1.368 . S
C239 C223 1.349 . S
C239 H231 0.950 . S
C239 C237 1.327 . S
C240 C228 1.349 . S
C240 H234 0.950 . S
C240 C241 1.327 . S
C241 H235 0.950 . S
C241 C240 1.327 . S
C241 C245 1.429 . S
C242 C225 1.574 . S
C242 H236 0.949 . S
C242 C246 1.368 . S
C243 C224 1.429 . S
C243 C237 1.429 . S
C243 C244 1.523 . S
C244 C225 1.368 . S
C244 C238 1.368 . S
C244 C243 1.523 . S
C245 C229 1.429 . S
C245 C241 1.429 . S
C245 C246 1.523 . S
C246 C230 1.368 . S
C246 C242 1.368 . S
C246 C245 1.523 . S
H247 C222 0.950 . S
H248 C224 0.950 . S
H249 C225 0.949 . S
H250 C227 0.950 . S
H251 C229 0.950 . S
C252 C253 1.349 . S
C252 C254 1.327 . S
C252 H277 0.950 . S
C253 C252 1.349 . S
C253 C269 1.349 . S
C254 C252 1.327 . S
C254 C273 1.429 . S
C254 H278 0.950 . S
C255 C272 1.574 . S
C255 C274 1.368 . S
C255 H279 0.949 . S
H256 C260 0.949 . S
C257 C258 1.349 . S
C257 C259 1.327 . S
C257 H280 0.950 . S
C258 C257 1.349 . S
C258 C270 1.349 . S
C259 C257 1.327 . S
C259 C275 1.429 . S
C259 H281 0.950 . S
C260 H256 0.949 . S
C260 C268 1.574 . S
C260 C276 1.368 . S
H261 C269 0.950 . S
H262 C267 0.950 . S
H263 C268 0.949 . S
H264 C270 0.950 . S
H265 C271 0.950 . S
H266 C272 0.949 . S
C267 H262 0.950 . S
C267 C269 1.327 . S
C267 C273 1.429 . S
C268 C260 1.574 . S
C268 H263 0.949 . S
C268 C274 1.368 . S
C269 C253 1.349 . S
C269 H261 0.950 . S
C269 C267 1.327 . S
C270 C258 1.349 . S
C270 H264 0.950 . S
C270 C271 1.327 . S
C271 H265 0.950 . S
C271 C270 1.327 . S
C271 C275 1.429 . S
C272 C255 1.574 . S
C272 H266 0.949 . S
C272 C276 1.368 . S
C273 C254 1.429 . S
C273 C267 1.429 . S
C273 C274 1.523 . S
C274 C255 1.368 . S
C274 C268 1.368 . S
C274 C273 1.523 . S
C275 C259 1.429 . S
C275 C271 1.429 . S
C275 C276 1.523 . S
C276 C260 1.368 . S
C276 C272 1.368 . S
C276 C275 1.523 . S
H277 C252 0.950 . S
H278 C254 0.950 . S
H279 C255 0.949 . S
H280 C257 0.950 . S
H281 C259 0.950 . S
C282 C283 1.349 . S
C282 C284 1.327 . S
C282 H307 0.950 . S
C283 C282 1.349 . S
C283 C299 1.349 . S
C284 C282 1.327 . S
C284 C303 1.429 . S
C284 H308 0.950 . S
C285 C302 1.574 . S
C285 C304 1.368 . S
C285 H309 0.949 . S
H286 C290 0.949 . S
C287 C288 1.349 . S
C287 C289 1.327 . S
C287 H310 0.950 . S
C288 C287 1.349 . S
C288 C300 1.349 . S
C289 C287 1.327 . S
C289 C305 1.429 . S
C289 H311 0.950 . S
C290 H286 0.949 . S
C290 C298 1.574 . S
C290 C306 1.368 . S
H291 C299 0.950 . S
H292 C297 0.950 . S
H293 C298 0.949 . S
H294 C300 0.950 . S
H295 C301 0.950 . S
H296 C302 0.949 . S
C297 H292 0.950 . S
C297 C299 1.327 . S
C297 C303 1.429 . S
C298 C290 1.574 . S
C298 H293 0.949 . S
C298 C304 1.368 . S
C299 C283 1.349 . S
C299 H291 0.950 . S
C299 C297 1.327 . S
C300 C288 1.349 . S
C300 H294 0.950 . S
C300 C301 1.327 . S
C301 H295 0.950 . S
C301 C300 1.327 . S
C301 C305 1.429 . S
C302 C285 1.574 . S
C302 H296 0.949 . S
C302 C306 1.368 . S
C303 C284 1.429 . S
C303 C297 1.429 . S
C303 C304 1.523 . S
C304 C285 1.368 . S
C304 C298 1.368 . S
C304 C303 1.523 . S
C305 C289 1.429 . S
C305 C301 1.429 . S
C305 C306 1.523 . S
C306 C290 1.368 . S
C306 C302 1.368 . S
C306 C305 1.523 . S
H307 C282 0.950 . S
H308 C284 0.950 . S
H309 C285 0.949 . S
H310 C287 0.950 . S
H311 C289 0.950 . S
C312 C313 1.349 . S
C312 C314 1.327 . S
C312 H337 0.950 . S
C313 C312 1.349 . S
C313 C329 1.349 . S
C314 C312 1.327 . S
C314 C333 1.429 . S
C314 H338 0.950 . S
C315 C332 1.574 . S
C315 C334 1.368 . S
C315 H339 0.949 . S
H316 C320 0.949 . S
C317 C318 1.349 . S
C317 C319 1.327 . S
C317 H340 0.950 . S
C318 C317 1.349 . S
C318 C330 1.349 . S
C319 C317 1.327 . S
C319 C335 1.429 . S
C319 H341 0.950 . S
C320 H316 0.949 . S
C320 C328 1.574 . S
C320 C336 1.368 . S
H321 C329 0.950 . S
H322 C327 0.950 . S
H323 C328 0.949 . S
H324 C330 0.950 . S
H325 C331 0.950 . S
H326 C332 0.949 . S
C327 H322 0.950 . S
C327 C329 1.327 . S
C327 C333 1.429 . S
C328 C320 1.574 . S
C328 H323 0.949 . S
C328 C334 1.368 . S
C329 C313 1.349 . S
C329 H321 0.950 . S
C329 C327 1.327 . S
C330 C318 1.349 . S
C330 H324 0.950 . S
C330 C331 1.327 . S
C331 H325 0.950 . S
C331 C330 1.327 . S
C331 C335 1.429 . S
C332 C315 1.574 . S
C332 H326 0.949 . S
C332 C336 1.368 . S
C333 C314 1.429 . S
C333 C327 1.429 . S
C333 C334 1.523 . S
C334 C315 1.368 . S
C334 C328 1.368 . S
C334 C333 1.523 . S
C335 C319 1.429 . S
C335 C331 1.429 . S
C335 C336 1.523 . S
C336 C320 1.368 . S
C336 C332 1.368 . S
C336 C335 1.523 . S
H337 C312 0.950 . S
H338 C314 0.950 . S
H339 C315 0.949 . S
H340 C317 0.950 . S
H341 C319 0.950 . S
C342 C343 1.349 . S
C342 C344 1.327 . S
C342 H367 0.950 . S
C343 C342 1.349 . S
C343 C359 1.349 . S
C344 C342 1.327 . S
C344 C363 1.429 . S
C344 H368 0.950 . S
C345 C362 1.574 . S
C345 C364 1.368 . S
C345 H369 0.949 . S
H346 C350 0.949 . S
C347 C348 1.349 . S
C347 C349 1.327 . S
C347 H370 0.950 . S
C348 C347 1.349 . S
C348 C360 1.349 . S
C349 C347 1.327 . S
C349 C365 1.429 . S
C349 H371 0.950 . S
C350 H346 0.949 . S
C350 C358 1.574 . S
C350 C366 1.368 . S
H351 C359 0.950 . S
H352 C357 0.950 . S
H353 C358 0.949 . S
H354 C360 0.950 . S
H355 C361 0.950 . S
H356 C362 0.949 . S
C357 H352 0.950 . S
C357 C359 1.327 . S
C357 C363 1.429 . S
C358 C350 1.574 . S
C358 H353 0.949 . S
C358 C364 1.368 . S
C359 C343 1.349 . S
C359 H351 0.950 . S
C359 C357 1.327 . S
C360 C348 1.349 . S
C360 H354 0.950 . S
C360 C361 1.327 . S
C361 H355 0.950 . S
C361 C360 1.327 . S
C361 C365 1.429 . S
C362 C345 1.574 . S
C362 H356 0.949 . S
C362 C366 1.368 . S
C363 C344 1.429 . S
C363 C357 1.429 . S
C363 C364 1.523 . S
C364 C345 1.368 . S
C364 C358 1.368 . S
C364 C363 1.523 . S
C365 C349 1.429 . S
C365 C361 1.429 . S
C365 C366 1.523 . S
C366 C350 1.368 . S
C366 C362 1.368 . S
C366 C365 1.523 . S
H367 C342 0.950 . S
H368 C344 0.950 . S
H369 C345 0.949 . S
H370 C347 0.950 . S
H371 C349 0.950 . S
C372 C373 1.349 . S
C372 C374 1.327 . S
C372 H397 0.950 . S
C373 C372 1.349 . S
C373 C389 1.349 . S
C374 C372 1.327 . S
C374 C393 1.429 . S
C374 H398 0.950 . S
C375 C392 1.574 . S
C375 C394 1.368 . S
C375 H399 0.949 . S
H376 C380 0.949 . S
C377 C378 1.349 . S
C377 C379 1.327 . S
C377 H400 0.950 . S
C378 C377 1.349 . S
C378 C390 1.349 . S
C379 C377 1.327 . S
C379 C395 1.429 . S
C379 H401 0.950 . S
C380 H376 0.949 . S
C380 C388 1.574 . S
C380 C396 1.368 . S
H381 C389 0.950 . S
H382 C387 0.950 . S
H383 C388 0.949 . S
H384 C390 0.950 . S
H385 C391 0.950 . S
H386 C392 0.949 . S
C387 H382 0.950 . S
C387 C389 1.327 . S
C387 C393 1.429 . S
C388 C380 1.574 . S
C388 H383 0.949 . S
C388 C394 1.368 . S
C389 C373 1.349 . S
C389 H381 0.950 . S
C389 C387 1.327 . S
C390 C378 1.349 . S
C390 H384 0.950 . S
C390 C391 1.327 . S
C391 H385 0.950 . S
C391 C390 1.327 . S
C391 C395 1.429 . S
C392 C375 1.574 . S
C392 H386 0.949 . S
C392 C396 1.368 . S
C393 C374 1.429 . S
C393 C387 1.429 . S
C393 C394 1.523 . S
C394 C375 1.368 . S
C394 C388 1.368 . S
C394 C393 1.523 . S
C395 C379 1.429 . S
C395 C391 1.429 . S
C395 C396 1.523 . S
C396 C380 1.368 . S
C396 C392 1.368 . S
C396 C395 1.523 . S
H397 C372 0.950 . S
H398 C374 0.950 . S
H399 C375 0.949 . S
H400 C377 0.950 . S
H401 C379 0.950 . S
C402 C403 1.349 . S
C402 C404 1.327 . S
C402 H427 0.950 . S
C403 C402 1.349 . S
C403 C419 1.349 . S
C404 C402 1.327 . S
C404 C423 1.429 . S
C404 H428 0.950 . S
C405 C422 1.574 . S
C405 C424 1.368 . S
C405 H429 0.949 . S
H406 C410 0.949 . S
C407 C408 1.349 . S
C407 C409 1.327 . S
C407 H430 0.950 . S
C408 C407 1.349 . S
C408 C420 1.349 . S
C409 C407 1.327 . S
C409 C425 1.429 . S
C409 H431 0.950 . S
C410 H406 0.949 . S
C410 C418 1.574 . S
C410 C426 1.368 . S
H411 C419 0.950 . S
H412 C417 0.950 . S
H413 C418 0.949 . S
H414 C420 0.950 . S
H415 C421 0.950 . S
H416 C422 0.949 . S
C417 H412 0.950 . S
C417 C419 1.327 . S
C417 C423 1.429 . S
C418 C410 1.574 . S
C418 H413 0.949 . S
C418 C424 1.368 . S
C419 C403 1.349 . S
C419 H411 0.950 . S
C419 C417 1.327 . S
C420 C408 1.349 . S
C420 H414 0.950 . S
C420 C421 1.327 . S
C421 H415 0.950 . S
C421 C420 1.327 . S
C421 C425 1.429 . S
C422 C405 1.574 . S
C422 H416 0.949 . S
C422 C426 1.368 . S
C423 C404 1.429 . S
C423 C417 1.429 . S
C423 C424 1.523 . S
C424 C405 1.368 . S
C424 C418 1.368 . S
C424 C423 1.523 . S
C425 C409 1.429 . S
C425 C421 1.429 . S
C425 C426 1.523 . S
C426 C410 1.368 . S
C426 C422 1.368 . S
C426 C425 1.523 . S
H427 C402 0.950 . S
H428 C404 0.950 . S
H429 C405 0.949 . S
H430 C407 0.950 . S
H431 C409 0.950 . S
C432 C433 1.349 . S
C432 C434 1.327 . S
C432 H457 0.950 . S
C433 C432 1.349 . S
C433 C449 1.349 . S
C434 C432 1.327 . S
C434 C453 1.429 . S
C434 H458 0.950 . S
C435 C452 1.574 . S
C435 C454 1.368 . S
C435 H459 0.949 . S
H436 C440 0.949 . S
C437 C438 1.349 . S
C437 C439 1.327 . S
C437 H460 0.950 . S
C438 C437 1.349 . S
C438 C450 1.349 . S
C439 C437 1.327 . S
C439 C455 1.429 . S
C439 H461 0.950 . S
C440 H436 0.949 . S
C440 C448 1.574 . S
C440 C456 1.368 . S
H441 C449 0.950 . S
H442 C447 0.950 . S
H443 C448 0.949 . S
H444 C450 0.950 . S
H445 C451 0.950 . S
H446 C452 0.949 . S
C447 H442 0.950 . S
C447 C449 1.327 . S
C447 C453 1.429 . S
C448 C440 1.574 . S
C448 H443 0.949 . S
C448 C454 1.368 . S
C449 C433 1.349 . S
C449 H441 0.950 . S
C449 C447 1.327 . S
C450 C438 1.349 . S
C450 H444 0.950 . S
C450 C451 1.327 . S
C451 H445 0.950 . S
C451 C450 1.327 . S
C451 C455 1.429 . S
C452 C435 1.574 . S
C452 H446 0.949 . S
C452 C456 1.368 . S
C453 C434 1.429 . S
C453 C447 1.429 . S
C453 C454 1.523 . S
C454 C435 1.368 . S
C454 C448 1.368 . S
C454 C453 1.523 . S
C455 C439 1.429 . S
C455 C451 1.429 . S
C455 C456 1.523 . S
C456 C440 1.368 . S
C456 C452 1.368 . S
C456 C455 1.523 . S
H457 C432 0.950 . S
H458 C434 0.950 . S
H459 C435 0.949 . S
H460 C437 0.950 . S
H461 C439 0.950 . S
C462 C463 1.349 . S
C462 C464 1.327 . S
C462 H487 0.950 . S
C463 C462 1.349 . S
C463 C479 1.349 . S
C464 C462 1.327 . S
C464 C483 1.429 . S
C464 H488 0.950 . S
C465 C482 1.574 . S
C465 C484 1.368 . S
C465 H489 0.949 . S
H466 C470 0.949 . S
C467 C468 1.349 . S
C467 C469 1.327 . S
C467 H490 0.950 . S
C468 C467 1.349 . S
C468 C480 1.349 . S
C469 C467 1.327 . S
C469 C485 1.429 . S
C469 H491 0.950 . S
C470 H466 0.949 . S
C470 C478 1.574 . S
C470 C486 1.368 . S
H471 C479 0.950 . S
H472 C477 0.950 . S
H473 C478 0.949 . S
H474 C480 0.950 . S
H475 C481 0.950 . S
H476 C482 0.949 . S
C477 H472 0.950 . S
C477 C479 1.327 . S
C477 C483 1.429 . S
C478 C470 1.574 . S
C478 H473 0.949 . S
C478 C484 1.368 . S
C479 C463 1.349 . S
C479 H471 0.950 . S
C479 C477 1.327 . S
C480 C468 1.349 . S
C480 H474 0.950 . S
C480 C481 1.327 . S
C481 H475 0.950 . S
C481 C480 1.327 . S
C481 C485 1.429 . S
C482 C465 1.574 . S
C482 H476 0.949 . S
C482 C486 1.368 . S
C483 C464 1.429 . S
C483 C477 1.429 . S
C483 C484 1.523 . S
C484 C465 1.368 . S
C484 C478 1.368 . S
C484 C483 1.523 . S
C485 C469 1.429 . S
C485 C481 1.429 . S
C485 C486 1.523 . S
C486 C470 1.368 . S
C486 C482 1.368 . S
C486 C485 1.523 . S
H487 C462 0.950 . S
H488 C464 0.950 . S
H489 C465 0.949 . S
H490 C467 0.950 . S
H491 C469 0.950 . S
C492 C493 1.349 . S
C492 C494 1.327 . S
C492 H517 0.950 . S
C493 C492 1.349 . S
C493 C509 1.349 . S
C494 C492 1.327 . S
C494 C513 1.429 . S
C494 H518 0.950 . S
C495 C512 1.574 . S
C495 C514 1.368 . S
C495 H519 0.949 . S
H496 C500 0.949 1_556 S
C497 C498 1.349 . S
C497 C499 1.327 . S
C497 H520 0.950 . S
C498 C497 1.349 . S
C498 C510 1.349 . S
C499 C497 1.327 . S
C499 C515 1.429 . S
C499 H521 0.950 . S
C500 H496 0.949 1_554 S
C500 C508 1.574 . S
C500 C516 1.368 1_554 S
H501 C509 0.950 . S
H502 C507 0.950 . S
H503 C508 0.949 . S
H504 C510 0.950 . S
H505 C511 0.950 . S
H506 C512 0.949 1_556 S
C507 H502 0.950 . S
C507 C509 1.327 . S
C507 C513 1.429 . S
C508 C500 1.574 . S
C508 H503 0.949 . S
C508 C514 1.368 . S
C509 C493 1.349 . S
C509 H501 0.950 . S
C509 C507 1.327 . S
C510 C498 1.349 . S
C510 H504 0.950 . S
C510 C511 1.327 . S
C511 H505 0.950 . S
C511 C510 1.327 . S
C511 C515 1.429 . S
C512 C495 1.574 . S
C512 H506 0.949 1_554 S
C512 C516 1.368 1_554 S
C513 C494 1.429 . S
C513 C507 1.429 . S
C513 C514 1.523 . S
C514 C495 1.368 . S
C514 C508 1.368 . S
C514 C513 1.523 . S
C515 C499 1.429 . S
C515 C511 1.429 . S
C515 C516 1.523 . S
C516 C500 1.368 1_556 S
C516 C512 1.368 1_556 S
C516 C515 1.523 . S
H517 C492 0.950 . S
H518 C494 0.950 . S
H519 C495 0.949 . S
H520 C497 0.950 . S
H521 C499 0.950 . S
C522 C523 1.349 . S
C522 C524 1.327 . S
C522 H547 0.950 . S
C523 C522 1.349 . S
C523 C539 1.349 1_545 S
C524 C522 1.327 . S
C524 C543 1.429 . S
C524 H548 0.950 . S
C525 C542 1.574 . S
C525 C544 1.368 1_565 S
C525 H549 0.949 . S
H526 C530 0.949 . S
C527 C528 1.349 1_565 S
C527 C529 1.327 . S
C527 H550 0.950 . S
C528 C527 1.349 1_545 S
C528 C540 1.349 . S
C529 C527 1.327 . S
C529 C545 1.429 1_565 S
C529 H551 0.950 . S
C530 H526 0.949 . S
C530 C538 1.574 . S
C530 C546 1.368 . S
H531 C539 0.950 . S
H532 C537 0.950 . S
H533 C538 0.949 . S
H534 C540 0.950 . S
H535 C541 0.950 . S
H536 C542 0.949 . S
C537 H532 0.950 . S
C537 C539 1.327 . S
C537 C543 1.429 1_565 S
C538 C530 1.574 . S
C538 H533 0.949 . S
C538 C544 1.368 . S
C539 C523 1.349 1_565 S
C539 H531 0.950 . S
C539 C537 1.327 . S
C540 C528 1.349 . S
C540 H534 0.950 . S
C540 C541 1.327 . S
C541 H535 0.950 . S
C541 C540 1.327 . S
C541 C545 1.429 . S
C542 C525 1.574 . S
C542 H536 0.949 . S
C542 C546 1.368 1_565 S
C543 C524 1.429 . S
C543 C537 1.429 1_545 S
C543 C544 1.523 . S
C544 C525 1.368 1_545 S
C544 C538 1.368 . S
C544 C543 1.523 . S
C545 C529 1.429 1_545 S
C545 C541 1.429 . S
C545 C546 1.523 . S
C546 C530 1.368 . S
C546 C542 1.368 1_545 S
C546 C545 1.523 . S
H547 C522 0.950 . S
H548 C524 0.950 . S
H549 C525 0.949 . S
H550 C527 0.950 . S
H551 C529 0.950 . S
C552 C553 1.349 . S
C552 C554 1.327 . S
C552 H577 0.950 . S
C553 C552 1.349 . S
C553 C569 1.349 . S
C554 C552 1.327 . S
C554 C573 1.429 . S
C554 H578 0.950 . S
C555 C572 1.574 . S
C555 C574 1.368 . S
C555 H579 0.949 . S
H556 C560 0.949 . S
C557 C558 1.349 . S
C557 C559 1.327 . S
C557 H580 0.950 . S
C558 C557 1.349 . S
C558 C570 1.349 . S
C559 C557 1.327 . S
C559 C575 1.429 . S
C559 H581 0.950 . S
C560 H556 0.949 . S
C560 C568 1.574 . S
C560 C576 1.368 . S
H561 C569 0.950 . S
H562 C567 0.950 . S
H563 C568 0.949 . S
H564 C570 0.950 . S
H565 C571 0.950 . S
H566 C572 0.949 . S
C567 H562 0.950 . S
C567 C569 1.327 . S
C567 C573 1.429 . S
C568 C560 1.574 . S
C568 H563 0.949 . S
C568 C574 1.368 . S
C569 C553 1.349 . S
C569 H561 0.950 . S
C569 C567 1.327 . S
C570 C558 1.349 . S
C570 H564 0.950 . S
C570 C571 1.327 . S
C571 H565 0.950 . S
C571 C570 1.327 . S
C571 C575 1.429 . S
C572 C555 1.574 . S
C572 H566 0.949 . S
C572 C576 1.368 . S
C573 C554 1.429 . S
C573 C567 1.429 . S
C573 C574 1.523 . S
C574 C555 1.368 . S
C574 C568 1.368 . S
C574 C573 1.523 . S
C575 C559 1.429 . S
C575 C571 1.429 . S
C575 C576 1.523 . S
C576 C560 1.368 . S
C576 C572 1.368 . S
C576 C575 1.523 . S
H577 C552 0.950 . S
H578 C554 0.950 . S
H579 C555 0.949 . S
H580 C557 0.950 . S
H581 C559 0.950 . S
C582 C583 1.335 1_565 S
C582 C584 1.330 . S
C582 H607 0.961 . S
C583 C582 1.335 1_545 S
C583 C599 1.349 . S
C584 C582 1.330 . S
C584 C603 1.429 1_565 S
C584 H608 0.950 . S
C585 C602 1.574 . S
C585 C604 1.368 . S
C585 H609 0.949 . S
H586 C590 0.949 . S
C587 C588 1.349 . S
C587 C589 1.327 . S
C587 H610 0.950 . S
C588 C587 1.349 . S
C588 C600 1.328 1_545 S
C589 C587 1.327 . S
C589 C605 1.429 . S
C589 H611 0.950 . S
C590 H586 0.949 . S
C590 C598 1.574 . S
C590 C606 1.368 1_565 S
H591 C599 0.950 . S
H592 C597 0.950 . S
H593 C598 0.949 . S
H594 C600 0.975 . S
H595 C601 0.950 . S
H596 C602 0.949 . S
C597 H592 0.950 . S
C597 C599 1.327 . S
C597 C603 1.429 . S
C598 C590 1.574 . S
C598 H593 0.949 . S
C598 C604 1.368 1_565 S
C599 C583 1.349 . S
C599 H591 0.950 . S
C599 C597 1.327 . S
C600 C588 1.328 1_565 S
C600 H594 0.975 . S
C600 C601 1.324 . S
C601 H595 0.950 . S
C601 C600 1.324 . S
C601 C605 1.429 1_565 S
C602 C585 1.574 . S
C602 H596 0.949 . S
C602 C606 1.368 . S
C603 C584 1.429 1_545 S
C603 C597 1.429 . S
C603 C604 1.523 . S
C604 C585 1.368 . S
C604 C598 1.368 1_545 S
C604 C603 1.523 . S
C605 C589 1.429 . S
C605 C601 1.429 1_545 S
C605 C606 1.523 . S
C606 C590 1.368 1_545 S
C606 C602 1.368 . S
C606 C605 1.523 . S
H607 C582 0.961 . S
H608 C584 0.950 . S
H609 C585 0.949 . S
H610 C587 0.950 . S
H611 C589 0.950 . S
C612 C613 1.349 . S
C612 C614 1.327 . S
C612 H637 0.950 . S
C613 C612 1.349 . S
C613 C629 1.349 . S
C614 C612 1.327 . S
C614 C633 1.429 . S
C614 H638 0.950 . S
C615 C632 1.574 1_556 S
C615 C634 1.368 . S
C615 H639 0.949 . S
H616 C620 0.949 . S
C617 C618 1.349 . S
C617 C619 1.327 . S
C617 H640 0.950 . S
C618 C617 1.349 . S
C618 C630 1.349 . S
C619 C617 1.327 . S
C619 C635 1.429 . S
C619 H641 0.950 . S
C620 H616 0.949 . S
C620 C628 1.574 1_554 S
C620 C636 1.368 . S
H621 C629 0.950 . S
H622 C627 0.950 . S
H623 C628 0.949 . S
H624 C630 0.950 . S
H625 C631 0.950 . S
H626 C632 0.949 . S
C627 H622 0.950 . S
C627 C629 1.327 . S
C627 C633 1.429 . S
C628 C620 1.574 1_556 S
C628 H623 0.949 . S
C628 C634 1.368 . S
C629 C613 1.349 . S
C629 H621 0.950 . S
C629 C627 1.327 . S
C630 C618 1.349 . S
C630 H624 0.950 . S
C630 C631 1.327 . S
C631 H625 0.950 . S
C631 C630 1.327 . S
C631 C635 1.429 . S
C632 C615 1.574 1_554 S
C632 H626 0.949 . S
C632 C636 1.368 . S
C633 C614 1.429 . S
C633 C627 1.429 . S
C633 C634 1.523 . S
C634 C615 1.368 . S
C634 C628 1.368 . S
C634 C633 1.523 . S
C635 C619 1.429 . S
C635 C631 1.429 . S
C635 C636 1.523 . S
C636 C620 1.368 . S
C636 C632 1.368 . S
C636 C635 1.523 . S
H637 C612 0.950 . S
H638 C614 0.950 . S
H639 C615 0.949 . S
H640 C617 0.950 . S
H641 C619 0.950 . S
C642 C643 1.349 . S
C642 C644 1.327 . S
C642 H667 0.950 . S
C643 C642 1.349 . S
C643 C659 1.349 . S
C644 C642 1.327 . S
C644 C663 1.429 . S
C644 H668 0.950 . S
C645 C662 1.574 . S
C645 C664 1.368 . S
C645 H669 0.949 . S
H646 C650 0.949 . S
C647 C648 1.349 . S
C647 C649 1.327 . S
C647 H670 0.950 . S
C648 C647 1.349 . S
C648 C660 1.349 . S
C649 C647 1.327 . S
C649 C665 1.429 . S
C649 H671 0.950 . S
C650 H646 0.949 . S
C650 C658 1.574 . S
C650 C666 1.368 . S
H651 C659 0.950 . S
H652 C657 0.950 . S
H653 C658 0.949 . S
H654 C660 0.950 . S
H655 C661 0.950 . S
H656 C662 0.949 . S
C657 H652 0.950 . S
C657 C659 1.327 . S
C657 C663 1.429 . S
C658 C650 1.574 . S
C658 H653 0.949 . S
C658 C664 1.368 . S
C659 C643 1.349 . S
C659 H651 0.950 . S
C659 C657 1.327 . S
C660 C648 1.349 . S
C660 H654 0.950 . S
C660 C661 1.327 . S
C661 H655 0.950 . S
C661 C660 1.327 . S
C661 C665 1.429 . S
C662 C645 1.574 . S
C662 H656 0.949 . S
C662 C666 1.368 . S
C663 C644 1.429 . S
C663 C657 1.429 . S
C663 C664 1.523 . S
C664 C645 1.368 . S
C664 C658 1.368 . S
C664 C663 1.523 . S
C665 C649 1.429 . S
C665 C661 1.429 . S
C665 C666 1.523 . S
C666 C650 1.368 . S
C666 C662 1.368 . S
C666 C665 1.523 . S
H667 C642 0.950 . S
H668 C644 0.950 . S
H669 C645 0.949 . S
H670 C647 0.950 . S
H671 C649 0.950 . S
C133 C2 1.340 . S
C138 C126 1.349 . S
C163 C21 1.028 . S
C168 C100 1.022 . S
C193 C42 1.121 . S
C198 C112 1.102 . S
C223 C1 0.689 . S
C228 C124 0.698 . S
C258 C102 0.955 . S
C253 C22 0.961 . S
C288 C114 0.862 . S
C283 C41 0.863 . S
C313 C38 1.892 . S
C318 C76 1.853 . S
C343 C59 2.221 . S
C348 C90 2.200 1_655 S
C373 C18 1.722 . S
C378 C66 1.708 . S
C408 C78 1.798 . S
C403 C39 1.826 . S
C438 C88 1.479 . S
C433 C58 1.542 . S
C463 C19 1.994 . S
C468 C64 1.926 . S
C498 C93 1.592 . S
C493 C9 1.532 . S
C523 C29 1.543 . S
C528 C69 1.633 . S
C553 C49 1.534 . S
C558 C81 1.568 . S
C588 C117 1.513 . S
C583 C28 1.492 . S
C618 C129 1.468 . S
C613 C48 1.427 . S
C643 C8 1.412 . S
C648 C105 1.448 . S
