# Generated by pormake.
# Topology zzz, (3,6)-cn, num edge types: 1
# Building blocks:
#     Node 0, Type 0, BuildingBlock: VETTIZ_charged_linker_0, # of connection points: 3
#     Node 1, Type 0, BuildingBlock: VETTIZ_charged_linker_0, # of connection points: 3
#     Node 2, Type 0, BuildingBlock: VETTIZ_charged_linker_0, # of connection points: 3
#     Node 3, Type 0, BuildingBlock: VETTIZ_charged_linker_0, # of connection points: 3
#     Node 4, Type 0, BuildingBlock: VETTIZ_charged_linker_0, # of connection points: 3
#     Node 5, Type 0, BuildingBlock: VETTIZ_charged_linker_0, # of connection points: 3
#     Node 6, Type 0, BuildingBlock: VETTIZ_charged_linker_0, # of connection points: 3
#     Node 7, Type 0, BuildingBlock: VETTIZ_charged_linker_0, # of connection points: 3
#     Node 8, Type 1, BuildingBlock: BETDEL_clean_sbu_0, # of connection points: 6
#     Node 9, Type 1, BuildingBlock: BETDEL_clean_sbu_0, # of connection points: 6
#     Node 10, Type 1, BuildingBlock: BETDEL_clean_sbu_0, # of connection points: 6
#     Node 11, Type 1, BuildingBlock: BETDEL_clean_sbu_0, # of connection points: 6
#     Edge 12, Type (0, 1), BuildingBlock: UVAHIK_clean_linker_0, # of connection points: 2
#     Edge 13, Type (0, 1), BuildingBlock: UVAHIK_clean_linker_0, # of connection points: 2
#     Edge 14, Type (0, 1), BuildingBlock: UVAHIK_clean_linker_0, # of connection points: 2
#     Edge 15, Type (0, 1), BuildingBlock: UVAHIK_clean_linker_0, # of connection points: 2
#     Edge 16, Type (0, 1), BuildingBlock: UVAHIK_clean_linker_0, # of connection points: 2
#     Edge 17, Type (0, 1), BuildingBlock: UVAHIK_clean_linker_0, # of connection points: 2
#     Edge 18, Type (0, 1), BuildingBlock: UVAHIK_clean_linker_0, # of connection points: 2
#     Edge 19, Type (0, 1), BuildingBlock: UVAHIK_clean_linker_0, # of connection points: 2
#     Edge 20, Type (0, 1), BuildingBlock: UVAHIK_clean_linker_0, # of connection points: 2
#     Edge 21, Type (0, 1), BuildingBlock: UVAHIK_clean_linker_0, # of connection points: 2
#     Edge 22, Type (0, 1), BuildingBlock: UVAHIK_clean_linker_0, # of connection points: 2
#     Edge 23, Type (0, 1), BuildingBlock: UVAHIK_clean_linker_0, # of connection points: 2
#     Edge 24, Type (0, 1), BuildingBlock: UVAHIK_clean_linker_0, # of connection points: 2
#     Edge 25, Type (0, 1), BuildingBlock: UVAHIK_clean_linker_0, # of connection points: 2
#     Edge 26, Type (0, 1), BuildingBlock: UVAHIK_clean_linker_0, # of connection points: 2
#     Edge 27, Type (0, 1), BuildingBlock: UVAHIK_clean_linker_0, # of connection points: 2
#     Edge 28, Type (0, 1), BuildingBlock: UVAHIK_clean_linker_0, # of connection points: 2
#     Edge 29, Type (0, 1), BuildingBlock: UVAHIK_clean_linker_0, # of connection points: 2
#     Edge 30, Type (0, 1), BuildingBlock: UVAHIK_clean_linker_0, # of connection points: 2
#     Edge 31, Type (0, 1), BuildingBlock: UVAHIK_clean_linker_0, # of connection points: 2
#     Edge 32, Type (0, 1), BuildingBlock: UVAHIK_clean_linker_0, # of connection points: 2
#     Edge 33, Type (0, 1), BuildingBlock: UVAHIK_clean_linker_0, # of connection points: 2
#     Edge 34, Type (0, 1), BuildingBlock: UVAHIK_clean_linker_0, # of connection points: 2
#     Edge 35, Type (0, 1), BuildingBlock: UVAHIK_clean_linker_0, # of connection points: 2
# Relax obj value: 0.331
# Max RMSD: 0.231
# Mean RMSD: 0.211
data_MOF--net-zzz--node1-BETDEL_clean_sbu_0--node2-VETTIZ_charged_linker_0--edge1-UVAHIK_clean_linker_0
_symmetry_space_group_name_H-M    P1
_symmetry_Int_Tables_number       1
_symmetry_cell_setting            triclinic
loop_
_symmetry_equiv_pos_as_xyz
'x, y, z'
_cell_length_a     70.0109
_cell_length_b     69.334763
_cell_length_c     24.677886
_cell_angle_alpha  91.14868
_cell_angle_beta   89.415637
_cell_angle_gamma 96.158556
loop_
_atom_site_label
_atom_site_type_symbol
_atom_site_fract_x
_atom_site_fract_y
_atom_site_fract_z
_atom_type_partial_charge
C0 C 0.79032 0.48693 0.16564 0.0
C1 C 0.80531 0.47933 0.1934 0.0
C2 C 0.80936 0.46027 0.18175 0.0
C3 C 0.78598 0.45749 0.11012 0.0
C4 C 0.78049 0.47545 0.1246 0.0
C5 C 0.76351 0.48006 0.09135 0.0
H6 H 0.7053 0.45467 0.87468 0.0
C7 C 0.77493 0.44999 0.06247 0.0
C8 C 0.76119 0.46274 0.05171 0.0
H9 H 0.70015 0.502 0.98858 0.0
H10 H 0.728 0.49343 0.03732 0.0
H11 H 0.7479 0.46192 0.85927 0.0
H12 H 0.71398 0.42231 0.96165 0.0
H13 H 0.73174 0.40967 0.92989 0.0
H14 H 0.71485 0.42063 0.88895 0.0
H15 H 0.73918 0.43807 0.83548 0.0
H16 H 0.76225 0.44301 0.86783 0.0
C17 C 0.76897 0.49936 0.06207 0.0
C18 C 0.74597 0.4804 0.12976 0.0
C19 C 0.80327 0.40024 0.9429 0.0
C20 C 0.79959 0.39433 0.88887 0.0
C21 C 0.78174 0.39731 0.86627 0.0
C22 C 0.76885 0.40798 0.89483 0.0
C23 C 0.77399 0.41597 0.94616 0.0
C24 C 0.79054 0.41132 0.97031 0.0
C25 C 0.79433 0.42183 0.02361 0.0
C26 C 0.77796 0.43461 0.02564 0.0
C27 C 0.76615 0.43111 0.98029 0.0
C28 C 0.8143 0.4339 0.01976 0.0
C29 C 0.79264 0.40662 0.06923 0.0
C30 C 0.70986 0.46303 0.9107 0.0
C31 C 0.70022 0.4788 0.92826 0.0
C32 C 0.70725 0.48973 0.9742 0.0
C33 C 0.72329 0.48462 0.00275 0.0
C34 C 0.73243 0.46845 0.98511 0.0
C35 C 0.72565 0.45811 0.93947 0.0
C36 C 0.73724 0.44179 0.92471 0.0
C37 C 0.75145 0.44317 0.97077 0.0
C38 C 0.74886 0.45894 0.00608 0.0
C39 C 0.74711 0.44624 0.86893 0.0
C40 C 0.72383 0.42251 0.92593 0.0
H41 H 0.80374 0.43506 0.1329 0.0
H42 H 0.78658 0.50137 0.1752 0.0
H43 H 0.74582 0.46884 0.16042 0.0
H44 H 0.73217 0.47745 0.1084 0.0
H45 H 0.74631 0.49455 0.15185 0.0
H46 H 0.78322 0.49928 0.04177 0.0
H47 H 0.76983 0.51182 0.09127 0.0
H48 H 0.75869 0.50194 0.03014 0.0
H49 H 0.81683 0.39824 0.96151 0.0
H50 H 0.77836 0.39256 0.82506 0.0
H51 H 0.75591 0.41054 0.87455 0.0
H52 H 0.81572 0.44188 0.98099 0.0
H53 H 0.82606 0.42439 0.02129 0.0
H54 H 0.81696 0.44499 0.05202 0.0
H55 H 0.78554 0.39229 0.05514 0.0
H56 H 0.7836 0.41101 0.10358 0.0
H57 H 0.80699 0.40413 0.08476 0.0
H58 H 0.8206 0.45411 0.20332 0.0
C59 C 0.79967 0.44929 0.14068 0.0
C60 C 0.91915 0.78284 0.91439 0.0
C61 C 0.91367 0.8015 0.92586 0.0
C62 C 0.90365 0.80465 0.97464 0.0
C63 C 0.91105 0.77374 0.00628 0.0
C64 C 0.91742 0.769 0.95531 0.0
C65 C 0.92392 0.74897 0.95351 0.0
H66 H 0.97022 0.68313 0.06476 0.0
C67 C 0.91688 0.75963 0.04454 0.0
C68 C 0.92252 0.74398 0.01385 0.0
H69 H 0.9285 0.67239 0.93615 0.0
H70 H 0.91509 0.70237 0.96157 0.0
H71 H 0.98008 0.73262 0.05456 0.0
H72 H 0.93609 0.69896 0.1486 0.0
H73 H 0.94893 0.71752 0.1881 0.0
H74 H 0.96123 0.69794 0.16103 0.0
H75 H 0.98619 0.71719 0.10803 0.0
H76 H 0.97936 0.74105 0.12254 0.0
C77 C 0.94481 0.74981 0.93224 0.0
C78 C 0.91006 0.73583 0.9169 0.0
C79 C 0.94023 0.78977 0.22327 0.0
C80 C 0.95515 0.78646 0.2581 0.0
C81 C 0.96471 0.76973 0.24945 0.0
C82 C 0.95939 0.75659 0.20636 0.0
C83 C 0.94481 0.7606 0.1706 0.0
C84 C 0.93577 0.7772 0.17922 0.0
C85 C 0.92235 0.78084 0.13453 0.0
C86 C 0.92431 0.7633 0.09769 0.0
C87 C 0.93724 0.75122 0.11935 0.0
C88 C 0.92961 0.80054 0.10795 0.0
C89 C 0.90182 0.78032 0.15845 0.0
C90 C 0.95884 0.68766 0.0402 0.0
C91 C 0.95105 0.6758 0.9967 0.0
C92 C 0.93528 0.68153 0.96815 0.0
C93 C 0.92815 0.69917 0.98025 0.0
C94 C 0.9374 0.71156 0.01916 0.0
C95 C 0.95125 0.70535 0.05179 0.0
C96 C 0.95521 0.71912 0.10004 0.0
C97 C 0.94124 0.73419 0.08975 0.0
C98 C 0.93222 0.73003 0.03993 0.0
C99 C 0.97636 0.72797 0.09661 0.0
C100 C 0.95022 0.70786 0.15251 0.0
H101 H 0.89479 0.79356 0.05198 0.0
H102 H 0.92593 0.77969 0.87608 0.0
H103 H 0.90542 0.7439 0.88174 0.0
H104 H 0.89696 0.7301 0.93968 0.0
H105 H 0.91715 0.72367 0.89879 0.0
H106 H 0.95453 0.76002 0.95737 0.0
H107 H 0.94586 0.75461 0.88955 0.0
H108 H 0.95008 0.73528 0.93329 0.0
H109 H 0.93298 0.80276 0.2279 0.0
H110 H 0.97637 0.76694 0.27569 0.0
H111 H 0.96713 0.74412 0.2016 0.0
H112 H 0.94016 0.80973 0.13321 0.0
H113 H 0.91778 0.80967 0.1018 0.0
H114 H 0.93708 0.79836 0.06873 0.0
H115 H 0.89876 0.76791 0.18624 0.0
H116 H 0.89071 0.77832 0.12675 0.0
H117 H 0.90006 0.7939 0.1818 0.0
H118 H 0.89865 0.81859 0.98407 0.0
C119 C 0.90202 0.79057 0.01468 0.0
C120 C 0.81192 0.98511 0.03211 0.0
C121 C 0.82138 0.97783 0.98601 0.0
C122 C 0.81108 0.96413 0.95137 0.0
C123 C 0.78193 0.96907 0.99884 0.0
C124 C 0.79196 0.97972 0.03878 0.0
C125 C 0.77866 0.983 0.0867 0.0
H126 H 0.68431 0.97272 0.1767 0.0
C127 C 0.7616 0.9677 0.01122 0.0
C128 C 0.75905 0.9744 0.06447 0.0
H129 H 0.73361 0.99422 0.27194 0.0
H130 H 0.75469 0.99019 0.19351 0.0
H131 H 0.69115 0.99608 0.09055 0.0
H132 H 0.70209 0.93823 0.10605 0.0
H133 H 0.69283 0.94121 0.04051 0.0
H134 H 0.67964 0.94835 0.09931 0.0
H135 H 0.67802 0.97822 0.04938 0.0
H136 H 0.69949 0.99209 0.02412 0.0
C137 C 0.77926 0.00492 0.09897 0.0
C138 C 0.78498 0.97148 0.13495 0.0
C139 C 0.71801 0.97782 0.8566 0.0
C140 C 0.69815 0.97906 0.85492 0.0
C141 C 0.6864 0.97165 0.89804 0.0
C142 C 0.69462 0.96511 0.9448 0.0
C143 C 0.71467 0.96636 0.94854 0.0
C144 C 0.72596 0.97116 0.90361 0.0
C145 C 0.74687 0.96975 0.9139 0.0
C146 C 0.74617 0.96542 0.97461 0.0
C147 C 0.72741 0.9647 0.99486 0.0
C148 C 0.75861 0.98942 0.90199 0.0
C149 C 0.7534 0.95315 0.87771 0.0
C150 C 0.6997 0.97618 0.1811 0.0
C151 C 0.70738 0.98325 0.23063 0.0
C152 C 0.72741 0.98842 0.2342 0.0
C153 C 0.7396 0.98592 0.18897 0.0
C154 C 0.73157 0.97849 0.13969 0.0
C155 C 0.71182 0.97426 0.13644 0.0
C156 C 0.70514 0.96864 0.08032 0.0
C157 C 0.72422 0.96855 0.05079 0.0
C158 C 0.73987 0.97418 0.08548 0.0
C159 C 0.69283 0.98443 0.05978 0.0
C160 C 0.69423 0.94803 0.08138 0.0
H161 H 0.78401 0.94806 0.93398 0.0
H162 H 0.81978 0.99463 0.0614 0.0
H163 H 0.78711 0.95641 0.12189 0.0
H164 H 0.7742 0.97019 0.16784 0.0
H165 H 0.79877 0.97842 0.1517 0.0
H166 H 0.77647 0.01279 0.06152 0.0
H167 H 0.79358 0.01082 0.11459 0.0
H168 H 0.76828 0.00821 0.12917 0.0
H169 H 0.72716 0.98277 0.82292 0.0
H170 H 0.67099 0.97211 0.89707 0.0
H171 H 0.6852 0.9599 0.97704 0.0
H172 H 0.75335 1.00125 0.92724 0.0
H173 H 0.75756 0.99316 0.85866 0.0
H174 H 0.77407 0.98903 0.91045 0.0
H175 H 0.74512 0.95127 0.83942 0.0
H176 H 0.75146 0.93908 0.89892 0.0
H177 H 0.76857 0.9563 0.86441 0.0
H178 H 0.81817 0.95752 0.91764 0.0
C179 C 0.7914 0.95941 0.95849 0.0
C180 C 0.5666 0.73691 0.22643 0.0
C181 C 0.57476 0.72018 0.24319 0.0
C182 C 0.59087 0.71449 0.21488 0.0
C183 C 0.58823 0.73914 0.1489 0.0
C184 C 0.57408 0.74658 0.17959 0.0
C185 C 0.56902 0.76546 0.15605 0.0
H186 H 0.5777 0.82534 0.93707 0.0
C187 C 0.59123 0.75017 0.099 0.0
C188 C 0.58069 0.7663 0.1031 0.0
H189 H 0.54961 0.8369 0.08902 0.0
H190 H 0.55737 0.80583 0.12304 0.0
H191 H 0.61515 0.80839 0.98364 0.0
H192 H 0.56026 0.7849 0.92457 0.0
H193 H 0.57429 0.76562 0.91485 0.0
H194 H 0.5806 0.7881 0.88004 0.0
H195 H 0.6073 0.80885 0.91463 0.0
H196 H 0.61869 0.78872 0.93946 0.0
C197 C 0.57612 0.78214 0.19573 0.0
C198 C 0.54722 0.7639 0.14573 0.0
C199 C 0.61262 0.71415 0.93359 0.0
C200 C 0.6111 0.71793 0.87817 0.0
C201 C 0.60961 0.73711 0.86228 0.0
C202 C 0.60739 0.75172 0.90121 0.0
C203 C 0.60616 0.74696 0.95639 0.0
C204 C 0.60965 0.72867 0.97193 0.0
C205 C 0.60692 0.7258 0.03186 0.0
C206 C 0.59962 0.74499 0.04897 0.0
C207 C 0.59919 0.75719 0.00463 0.0
C208 C 0.62672 0.72316 0.05686 0.0
C209 C 0.59153 0.70825 0.04033 0.0
C210 C 0.5736 0.82155 0.97827 0.0
C211 C 0.56355 0.83391 0.01084 0.0
C212 C 0.55762 0.82776 0.06325 0.0
C213 C 0.5623 0.80986 0.08312 0.0
C214 C 0.57294 0.79799 0.05013 0.0
C215 C 0.57816 0.80398 0.99842 0.0
C216 C 0.58842 0.7895 0.96702 0.0
C217 C 0.59007 0.77443 0.00963 0.0
C218 C 0.58077 0.77912 0.05838 0.0
C219 C 0.60844 0.7993 0.94982 0.0
C220 C 0.57539 0.78163 0.91899 0.0
H221 H 0.60986 0.71895 0.14824 0.0
H222 H 0.55477 0.74215 0.24887 0.0
H223 H 0.54255 0.75041 0.12216 0.0
H224 H 0.54309 0.77614 0.12218 0.0
H225 H 0.53906 0.76348 0.18461 0.0
H226 H 0.59048 0.77997 0.21197 0.0
H227 H 0.56606 0.78283 0.23066 0.0
H228 H 0.57802 0.79638 0.17619 0.0
H229 H 0.61387 0.69959 0.94704 0.0
H230 H 0.60881 0.74048 0.81974 0.0
H231 H 0.60557 0.76586 0.88665 0.0
H232 H 0.63871 0.72527 0.0269 0.0
H233 H 0.62697 0.70834 0.073 0.0
H234 H 0.63052 0.73394 0.08995 0.0
H235 H 0.57838 0.71003 0.01684 0.0
H236 H 0.587 0.70626 0.08279 0.0
H237 H 0.59701 0.69448 0.02682 0.0
H238 H 0.59766 0.70196 0.22717 0.0
C239 C 0.59777 0.72406 0.16848 0.0
C240 C 0.30554 0.52083 0.16257 0.0
C241 C 0.31541 0.5273 0.21022 0.0
C242 C 0.31049 0.54405 0.23758 0.0
C243 C 0.28553 0.5473 0.17253 0.0
C244 C 0.29057 0.53113 0.14436 0.0
C245 C 0.27784 0.52647 0.09551 0.0
H246 H 0.20262 0.55094 0.94629 0.0
C247 C 0.26935 0.55465 0.14476 0.0
C248 C 0.2649 0.54284 0.09857 0.0
H249 H 0.2332 0.50063 0.92032 0.0
H250 H 0.2546 0.51129 0.99505 0.0
H251 H 0.19651 0.54705 0.05642 0.0
H252 H 0.24042 0.58258 0.97407 0.0
H253 H 0.23256 0.59672 0.0283 0.0
H254 H 0.21552 0.58655 0.97825 0.0
H255 H 0.19369 0.57181 0.0431 0.0
H256 H 0.20353 0.56467 0.10602 0.0
C257 C 0.2664 0.5064 0.10385 0.0
C258 C 0.29054 0.52751 0.04395 0.0
C259 C 0.23142 0.6036 0.24055 0.0
C260 C 0.21388 0.61046 0.22707 0.0
C261 C 0.20809 0.6094 0.17241 0.0
C262 C 0.2181 0.59935 0.13371 0.0
C263 C 0.23384 0.58997 0.14991 0.0
C264 C 0.24103 0.59317 0.20152 0.0
C265 C 0.25796 0.582 0.21108 0.0
C266 C 0.25834 0.57011 0.15853 0.0
C267 C 0.24405 0.57474 0.12339 0.0
C268 C 0.25335 0.56895 0.26089 0.0
C269 C 0.27613 0.59677 0.21738 0.0
C270 C 0.21422 0.54238 0.95541 0.0
C271 C 0.21638 0.52511 0.92661 0.0
C272 C 0.23122 0.51405 0.94183 0.0
C273 C 0.24357 0.52023 0.98525 0.0
C274 C 0.24078 0.53742 0.01443 0.0
C275 C 0.22624 0.54808 0.99882 0.0
C276 C 0.22392 0.56504 0.03576 0.0
C277 C 0.2396 0.56313 0.07636 0.0
C278 C 0.24972 0.54707 0.06392 0.0
C279 C 0.20341 0.56218 0.06158 0.0
C280 C 0.22817 0.58379 0.00261 0.0
H281 H 0.29268 0.56669 0.24184 0.0
H282 H 0.30915 0.50798 0.14082 0.0
H283 H 0.30082 0.54091 0.04487 0.0
H284 H 0.28213 0.52808 0.00659 0.0
H285 H 0.29899 0.51485 0.04081 0.0
H286 H 0.2614 0.50485 0.14665 0.0
H287 H 0.27544 0.49453 0.09438 0.0
H288 H 0.25326 0.50419 0.07925 0.0
H289 H 0.23657 0.60474 0.28183 0.0
H290 H 0.19479 0.61464 0.16029 0.0
H291 H 0.21234 0.59809 0.09361 0.0
H292 H 0.23839 0.56174 0.25873 0.0
H293 H 0.25473 0.57764 0.29923 0.0
H294 H 0.26258 0.55711 0.26372 0.0
H295 H 0.27401 0.61117 0.20066 0.0
H296 H 0.28861 0.5921 0.19453 0.0
H297 H 0.2801 0.59918 0.26065 0.0
H298 H 0.31805 0.54928 0.27402 0.0
C299 C 0.29578 0.55415 0.2188 0.0
C300 C 0.10672 0.22711 0.22933 0.0
C301 C 0.10948 0.20759 0.21781 0.0
C302 C 0.11481 0.2024 0.16462 0.0
C303 C 0.10848 0.23383 0.13347 0.0
C304 C 0.10616 0.23999 0.18636 0.0
C305 C 0.10079 0.26048 0.18949 0.0
H306 H 0.05845 0.33163 0.07134 0.0
C307 C 0.1016 0.24828 0.09756 0.0
C308 C 0.09733 0.26412 0.12973 0.0
H309 H 0.08601 0.33239 0.22783 0.0
H310 H 0.09677 0.30134 0.20787 0.0
H311 H 0.09402 0.31241 0.00118 0.0
H312 H 0.04158 0.28512 0.07377 0.0
H313 H 0.04526 0.27465 0.00951 0.0
H314 H 0.04116 0.29986 0.01485 0.0
H315 H 0.07061 0.31765 0.98032 0.0
H316 H 0.08077 0.29654 0.95463 0.0
C317 C 0.1182 0.27384 0.21238 0.0
C318 C 0.08222 0.26082 0.22398 0.0
C319 C 0.08212 0.22473 0.90956 0.0
C320 C 0.06901 0.23033 0.87207 0.0
C321 C 0.06095 0.24794 0.88113 0.0
C322 C 0.06589 0.25963 0.9275 0.0
C323 C 0.07848 0.25327 0.96595 0.0
C324 C 0.08619 0.23596 0.95635 0.0
C325 C 0.09713 0.22973 0.00354 0.0
C326 C 0.09519 0.24637 0.04321 0.0
C327 C 0.08457 0.26041 0.02105 0.0
C328 C 0.11831 0.22909 0.98552 0.0
C329 C 0.08702 0.20997 0.02372 0.0
C330 C 0.06677 0.32504 0.10124 0.0
C331 C 0.07145 0.33465 0.1512 0.0
C332 C 0.08245 0.3256 0.18879 0.0
C333 C 0.08858 0.30745 0.1775 0.0
C334 C 0.08351 0.29789 0.12846 0.0
C335 C 0.07323 0.30675 0.09042 0.0
C336 C 0.07021 0.2943 0.03946 0.0
C337 C 0.08116 0.27713 0.05285 0.0
C338 C 0.08819 0.27916 0.10606 0.0
C339 C 0.07929 0.30578 0.991 0.0
C340 C 0.04842 0.28819 0.03351 0.0
H341 H 0.11794 0.21056 0.08265 0.0
H342 H 0.1035 0.23176 0.27023 0.0
H343 H 0.07102 0.2493 0.20964 0.0
H344 H 0.07593 0.27469 0.22191 0.0
H345 H 0.08504 0.25831 0.26733 0.0
H346 H 0.13139 0.26627 0.21489 0.0
H347 H 0.1152 0.27926 0.25394 0.0
H348 H 0.12222 0.28645 0.18604 0.0
H349 H 0.08802 0.21095 0.90481 0.0
H350 H 0.05067 0.25247 0.85283 0.0
H351 H 0.05933 0.27285 0.9325 0.0
H352 H 0.12323 0.24171 0.95987 0.0
H353 H 0.12003 0.21567 0.9614 0.0
H354 H 0.1283 0.23001 0.02012 0.0
H355 H 0.07332 0.20537 0.00241 0.0
H356 H 0.08277 0.21064 0.06704 0.0
H357 H 0.09623 0.19803 0.01738 0.0
H358 H 0.1174 0.18766 0.15416 0.0
C359 C 0.11459 0.21555 0.12258 0.0
C360 C 0.29309 0.00313 0.95625 0.0
C361 C 0.31006 0.99543 0.93843 0.0
C362 C 0.31663 0.98018 0.96721 0.0
C363 C 0.29015 0.98043 0.03063 0.0
C364 C 0.28315 0.99514 0.0023 0.0
C365 C 0.26442 1.00047 0.02714 0.0
H366 H 0.19674 0.98326 0.22928 0.0
C367 C 0.27724 0.97541 0.07692 0.0
C368 C 0.26181 0.98681 0.0753 0.0
H369 H 0.19563 0.02485 0.10223 0.0
H370 H 0.22591 0.0153 0.06544 0.0
H371 H 0.21187 0.94807 0.15786 0.0
H372 H 0.23826 0.99457 0.25788 0.0
H373 H 0.25295 0.97586 0.26452 0.0
H374 H 0.22815 0.97216 0.2864 0.0
H375 H 0.20912 0.94954 0.23021 0.0
H376 H 0.22869 0.93837 0.1992 0.0
C377 C 0.24837 0.99597 0.98495 0.0
C378 C 0.26725 0.02196 0.04565 0.0
C379 C 0.29859 0.93005 0.21727 0.0
C380 C 0.29145 0.92486 0.26892 0.0
C381 C 0.27313 0.92961 0.28474 0.0
C382 C 0.26251 0.94027 0.25057 0.0
C383 C 0.27048 0.94661 0.20056 0.0
C384 C 0.28805 0.9411 0.18427 0.0
C385 C 0.29488 0.95 0.13161 0.0
C386 C 0.27878 0.9623 0.11971 0.0
C387 C 0.26455 0.96018 0.15994 0.0
C388 C 0.29593 0.93333 0.08904 0.0
C389 C 0.31423 0.96262 0.14221 0.0
C390 C 0.2029 0.99013 0.19309 0.0
C391 C 0.19382 0.00453 0.16808 0.0
C392 C 0.20242 0.01355 0.1218 0.0
C393 C 0.21992 0.00798 0.10063 0.0
C394 C 0.22891 0.99343 0.12648 0.0
C395 C 0.22027 0.98495 0.17218 0.0
C396 C 0.2319 0.97067 0.19721 0.0
C397 C 0.24867 0.97117 0.15809 0.0
C398 C 0.24713 0.98452 0.1163 0.0
C399 C 0.21983 0.95057 0.1966 0.0
C400 C 0.2381 0.97852 0.25457 0.0
H401 H 0.31289 0.96122 0.03262 0.0
H402 H 0.28762 0.01477 0.93459 0.0
H403 H 0.28096 0.02513 0.06811 0.0
H404 H 0.25581 0.02585 0.07353 0.0
H405 H 0.26781 0.03167 0.01024 0.0
H406 H 0.24922 0.98142 0.96581 0.0
H407 H 0.24972 0.00687 0.95235 0.0
H408 H 0.23387 0.99557 0.00302 0.0
H409 H 0.31281 0.92695 0.2045 0.0
H410 H 0.26738 0.92573 0.32445 0.0
H411 H 0.24882 0.94378 0.26538 0.0
H412 H 0.2861 0.92023 0.09966 0.0
H413 H 0.31067 0.92886 0.08584 0.0
H414 H 0.29118 0.93724 0.0484 0.0
H415 H 0.31408 0.97 0.18266 0.0
H416 H 0.31731 0.97452 0.11337 0.0
H417 H 0.32644 0.95362 0.14143 0.0
H418 H 0.32969 0.97416 0.95479 0.0
C419 C 0.30684 0.97268 0.01274 0.0
C420 C 0.45638 0.27341 0.89207 0.0
C421 C 0.44817 0.28911 0.869 0.0
C422 C 0.43004 0.29359 0.88753 0.0
C423 C 0.43089 0.27074 0.95926 0.0
C424 C 0.44694 0.26389 0.93645 0.0
C425 C 0.45163 0.24582 0.96509 0.0
H426 H 0.43726 0.19075 0.19183 0.0
C427 C 0.42621 0.26073 0.00994 0.0
C428 C 0.43751 0.24524 0.01299 0.0
H429 H 0.47014 0.17719 0.04959 0.0
H430 H 0.46242 0.20689 0.00766 0.0
H431 H 0.45225 0.23114 0.20251 0.0
H432 H 0.40046 0.20515 0.1312 0.0
H433 H 0.39503 0.22536 0.17109 0.0
H434 H 0.40625 0.20619 0.20206 0.0
H435 H 0.43022 0.2298 0.23992 0.0
H436 H 0.43842 0.25078 0.20043 0.0
C437 C 0.47272 0.24867 0.98377 0.0
C438 C 0.44714 0.22827 0.92593 0.0
C439 C 0.40177 0.30109 0.16227 0.0
C440 C 0.40154 0.29849 0.21859 0.0
C441 C 0.40189 0.27962 0.2385 0.0
C442 C 0.4047 0.26409 0.20311 0.0
C443 C 0.40766 0.26759 0.14759 0.0
C444 C 0.40519 0.2856 0.12756 0.0
C445 C 0.40942 0.28692 0.06775 0.0
C446 C 0.41638 0.26708 0.05637 0.0
C447 C 0.4156 0.25606 0.10347 0.0
C448 C 0.42552 0.30374 0.05854 0.0
C449 C 0.39054 0.28972 0.0378 0.0
C450 C 0.44245 0.19379 0.15105 0.0
C451 C 0.45392 0.18128 0.12362 0.0
C452 C 0.46112 0.18646 0.07157 0.0
C453 C 0.45645 0.20356 0.04701 0.0
C454 C 0.44447 0.21557 0.07478 0.0
C455 C 0.43786 0.21058 0.12613 0.0
C456 C 0.42606 0.22521 0.15136 0.0
C457 C 0.42522 0.23908 0.10502 0.0
C458 C 0.43625 0.23365 0.06028 0.0
C459 C 0.43714 0.23472 0.20117 0.0
C460 C 0.40586 0.21502 0.16508 0.0
H461 H 0.4075 0.28803 0.94529 0.0
H462 H 0.46982 0.26902 0.87663 0.0
H463 H 0.43445 0.2301 0.90049 0.0
H464 H 0.44327 0.21458 0.94741 0.0
H465 H 0.45948 0.22657 0.89823 0.0
H466 H 0.47559 0.26254 0.00716 0.0
H467 H 0.48269 0.24916 0.94841 0.0
H468 H 0.47625 0.23697 0.01036 0.0
H469 H 0.40134 0.31538 0.1458 0.0
H470 H 0.40128 0.27715 0.28172 0.0
H471 H 0.40554 0.2502 0.22066 0.0
H472 H 0.43841 0.30164 0.08282 0.0
H473 H 0.42062 0.31794 0.07037 0.0
H474 H 0.4301 0.30502 0.01584 0.0
H475 H 0.37838 0.29156 0.06613 0.0
H476 H 0.3858 0.27697 0.01136 0.0
H477 H 0.3922 0.30292 0.0127 0.0
H478 H 0.42317 0.30512 0.86932 0.0
C479 C 0.42124 0.28422 0.93217 0.0
Dy480 Dy 0.01168 0.99898 0.62843 0.0
C481 C 1.00084 0.04247 0.43182 0.0
C482 C 1.00142 0.97811 0.71775 0.0
Dy483 Dy 0.99897 0.01892 0.51925 0.0
O484 O 0.01904 0.98528 0.70689 0.0
O485 O 0.98987 0.98248 0.68029 0.0
O486 O 0.04217 0.99462 0.6008 0.0
O487 O 0.02318 0.00652 0.55071 0.0
C488 C 0.04004 0.00191 0.55304 0.0
C489 C 0.97181 0.01105 0.59572 0.0
O490 O 0.99625 0.98788 0.4909 0.0
O491 O 0.99939 0.97393 0.57545 0.0
O492 O 0.99186 0.04556 0.47699 0.0
O493 O 0.00769 0.0258 0.43345 0.0
O494 O 0.96783 0.01142 0.54419 0.0
O495 O 0.9894 0.01629 0.60252 0.0
O496 O 0.01804 0.03022 0.65325 0.0
O497 O 0.01656 0.04282 0.56607 0.0
C498 C 0.99585 0.97255 0.52259 0.0
C499 C 0.02045 0.04487 0.61882 0.0
Dy500 Dy 0.49345 0.99249 0.5491 0.0
C501 C 0.5519 0.04826 0.63355 0.0
C502 C 0.46342 0.96772 0.51162 0.0
Dy503 Dy 0.51967 0.02527 0.60253 0.0
O504 O 0.47676 0.97653 0.48131 0.0
O505 O 0.46643 0.97254 0.56205 0.0
O506 O 0.5189 0.97707 0.52369 0.0
O507 O 0.52173 0.00738 0.52958 0.0
C508 C 0.53081 0.99277 0.52201 0.0
C509 C 0.48251 0.0251 0.63087 0.0
O510 O 0.51095 0.04106 0.53069 0.0
O511 O 0.48562 0.01855 0.50416 0.0
O512 O 0.53843 0.04115 0.66646 0.0
O513 O 0.54747 0.04299 0.58426 0.0
O514 O 0.4946 0.04076 0.63042 0.0
O515 O 0.49145 0.01042 0.62218 0.0
O516 O 0.5015 0.97687 0.62206 0.0
O517 O 0.52686 0.99924 0.64901 0.0
C518 C 0.49588 0.03573 0.49982 0.0
C519 C 0.51651 0.98211 0.65323 0.0
Dy520 Dy 0.50464 0.51649 0.61482 0.0
C521 C 0.50343 0.47106 0.4193 0.0
C522 C 0.51254 0.5407 0.70189 0.0
Dy523 Dy 0.51196 0.49495 0.5068 0.0
O524 O 0.49695 0.53983 0.67333 0.0
O525 O 0.52322 0.52776 0.6841 0.0
O526 O 0.4727 0.50971 0.6039 0.0
O527 O 0.49117 0.5138 0.53618 0.0
C528 C 0.47407 0.50896 0.55111 0.0
C529 C 0.54243 0.50163 0.57185 0.0
O530 O 0.51892 0.52506 0.47622 0.0
O531 O 0.51896 0.54006 0.56152 0.0
O532 O 0.51781 0.46997 0.45166 0.0
O533 O 0.49447 0.48582 0.43341 0.0
O534 O 0.54408 0.50056 0.51912 0.0
O535 O 0.52514 0.49737 0.58555 0.0
O536 O 0.49947 0.48636 0.64568 0.0
O537 O 0.49651 0.47175 0.55999 0.0
C538 C 0.52178 0.54071 0.50818 0.0
C539 C 0.4952 0.4709 0.61377 0.0
Dy540 Dy 0.99633 0.48972 0.61155 0.0
C541 C 0.0444 0.53758 0.4615 0.0
C542 C 0.97159 0.47398 0.68837 0.0
Dy543 Dy 0.01839 0.51836 0.52984 0.0
O544 O 0.98794 0.46772 0.67553 0.0
O545 O 0.96927 0.48937 0.6609 0.0
O546 O 0.99766 0.46177 0.56292 0.0
O547 O 0.0092 0.4879 0.53222 0.0
C548 C 0.00639 0.47006 0.52155 0.0
C549 C 1.001 0.53501 0.61397 0.0
O550 O 0.99115 0.51014 0.48434 0.0
O551 O 0.97329 0.50061 0.56095 0.0
O552 O 0.02924 0.54446 0.48128 0.0
O553 O 0.04499 0.51995 0.47764 0.0
O554 O 0.00323 0.54241 0.56618 0.0
O555 O 0.00944 0.51984 0.61557 0.0
O556 O 0.02521 0.49335 0.65135 0.0
O557 O 0.04237 0.51011 0.58203 0.0
C558 C 0.9744 0.50566 0.50925 0.0
C559 C 0.04161 0.50086 0.62884 0.0
C560 C 0.17658 0.02521 0.23177 0.0
C561 C 0.17581 0.01006 0.19303 0.0
C562 C 0.16089 0.02722 0.26644 0.0
C563 C 0.13329 0.01636 0.36027 0.0
H564 H 0.07975 0.00769 0.31863 0.0
C565 C 0.07211 0.99566 0.51473 0.0
C566 C 0.05519 0.00471 0.51051 0.0
C567 C 0.08644 0.99804 0.47461 0.0
C568 C 0.09463 0.01028 0.33089 0.0
H569 H 0.15801 0.98549 0.15891 0.0
H570 H 0.13039 0.98922 0.21841 0.0
H571 H 0.10492 0.00983 0.24863 0.0
H572 H 0.04058 0.02418 0.46254 0.0
H573 H 0.06522 0.02792 0.39131 0.0
H574 H 0.12309 0.01644 0.44245 0.0
C575 C 0.14299 0.99968 0.22189 0.0
C576 C 0.10905 0.01139 0.29079 0.0
C577 C 0.15875 0.99757 0.18762 0.0
C578 C 0.05306 0.01644 0.46573 0.0
C579 C 0.06728 0.0187 0.42522 0.0
C580 C 0.11891 0.01501 0.4003 0.0
C581 C 0.1441 0.01412 0.263 0.0
C582 C 0.12858 0.01434 0.30499 0.0
C583 C 0.08417 0.0095 0.42915 0.0
C584 C 0.0994 0.01179 0.3862 0.0
H585 H 0.18974 0.03475 0.23746 0.0
H586 H 0.16216 0.03861 0.29728 0.0
H587 H 0.14816 0.0184 0.37278 0.0
H588 H 0.07423 0.98657 0.54889 0.0
H589 H 0.09918 0.99063 0.47877 0.0
C590 C 0.4768 0.15714 0.14912 0.0
C591 C 0.45826 0.16317 0.15056 0.0
C592 C 0.48113 0.14145 0.18019 0.0
C593 C 0.45829 0.1002 0.26345 0.0
H594 H 0.50748 0.10587 0.3357 0.0
C595 C 0.4796 0.04266 0.41294 0.0
C596 C 0.49087 0.04931 0.45773 0.0
C597 C 0.47602 0.05535 0.37159 0.0
C598 C 0.49357 0.1041 0.31638 0.0
H599 H 0.42943 0.15653 0.18302 0.0
H600 H 0.43706 0.12998 0.23824 0.0
H601 H 0.50049 0.12961 0.26978 0.0
H602 H 0.50669 0.07467 0.49495 0.0
H603 H 0.49985 0.09685 0.42451 0.0
H604 H 0.45094 0.07534 0.31232 0.0
C605 C 0.44832 0.13705 0.21292 0.0
C606 C 0.48969 0.1176 0.27761 0.0
C607 C 0.44398 0.15255 0.18169 0.0
C608 C 0.4981 0.069 0.46079 0.0
C609 C 0.49431 0.08172 0.41994 0.0
C610 C 0.46208 0.08685 0.30271 0.0
C611 C 0.46704 0.13145 0.21351 0.0
C612 C 0.47187 0.11602 0.25107 0.0
C613 C 0.4834 0.07507 0.37434 0.0
C614 C 0.47969 0.08873 0.33034 0.0
H615 H 0.48815 0.16498 0.12567 0.0
H616 H 0.49563 0.13737 0.1787 0.0
H617 H 0.44454 0.09821 0.24329 0.0
H618 H 0.47395 0.02753 0.40906 0.0
H619 H 0.46777 0.04955 0.33697 0.0
C620 C 0.3496 0.52017 0.21446 0.0
C621 C 0.33065 0.51697 0.23388 0.0
C622 C 0.36486 0.51501 0.2456 0.0
C623 C 0.37608 0.50942 0.38957 0.0
H624 H 0.42355 0.49231 0.33411 0.0
C625 C 0.43912 0.49961 0.53228 0.0
C626 C 0.45758 0.50639 0.5136 0.0
C627 C 0.42345 0.49794 0.49696 0.0
C628 C 0.41043 0.49722 0.35023 0.0
H629 H 0.31254 0.50507 0.2992 0.0
H630 H 0.33898 0.49549 0.35285 0.0
H631 H 0.39652 0.49387 0.27298 0.0
H632 H 0.47412 0.5168 0.44336 0.0
H633 H 0.4469 0.51404 0.38196 0.0
H634 H 0.39 0.51331 0.4663 0.0
C635 C 0.34223 0.50224 0.31416 0.0
C636 C 0.39492 0.49808 0.31514 0.0
C637 C 0.32705 0.50746 0.28317 0.0
C638 C 0.4601 0.51125 0.45879 0.0
C639 C 0.44447 0.50961 0.42351 0.0
C640 C 0.39155 0.50862 0.42451 0.0
C641 C 0.36139 0.50665 0.29684 0.0
C642 C 0.37757 0.50432 0.33431 0.0
C643 C 0.42588 0.50311 0.44217 0.0
C644 C 0.40902 0.50269 0.40531 0.0
H645 H 0.35272 0.52787 0.17708 0.0
H646 H 0.37941 0.51875 0.23113 0.0
H647 H 0.36312 0.5147 0.40565 0.0
H648 H 0.43677 0.49568 0.57427 0.0
H649 H 0.40941 0.49263 0.51266 0.0
C650 C 0.07664 0.36771 0.19505 0.0
C651 C 0.06451 0.3536 0.16657 0.0
C652 C 0.06937 0.38371 0.21975 0.0
C653 C 0.02346 0.39699 0.27626 0.0
H654 H 0.05494 0.44466 0.31478 0.0
C655 C 0.00912 0.43929 0.47056 0.0
C656 C 0.01231 0.45961 0.47241 0.0
C657 C 0.01426 0.42882 0.42488 0.0
C658 C 0.04579 0.4316 0.30384 0.0
H659 H 0.0355 0.34624 0.13756 0.0
H660 H 0.02285 0.37461 0.17903 0.0
H661 H 0.06601 0.4231 0.2447 0.0
H662 H 0.02335 0.48503 0.42774 0.0
H663 H 0.03229 0.46664 0.34682 0.0
H664 H 0.00317 0.40552 0.33489 0.0
C665 C 0.03793 0.37295 0.18382 0.0
C666 C 0.05225 0.41907 0.26402 0.0
C667 C 0.04522 0.3568 0.15935 0.0
C668 C 0.0208 0.46934 0.42738 0.0
C669 C 0.02594 0.45879 0.38119 0.0
C670 C 0.01693 0.40957 0.31557 0.0
C671 C 0.04975 0.38623 0.2162 0.0
C672 C 0.04148 0.40125 0.251 0.0
C673 C 0.02263 0.43836 0.37934 0.0
C674 C 0.02831 0.42669 0.3314 0.0
H675 H 0.09167 0.36588 0.20053 0.0
H676 H 0.07899 0.39342 0.24439 0.0
H677 H 0.01473 0.38342 0.26792 0.0
H678 H 0.0027 0.43136 0.50475 0.0
H679 H 0.01194 0.41313 0.42578 0.0
C680 C 0.84519 0.00368 0.94904 0.0
C681 C 0.84131 0.98489 0.96944 0.0
C682 C 0.86129 0.00842 0.91566 0.0
C683 C 0.88459 0.00705 0.81058 0.0
H684 H 0.93453 0.98856 0.82671 0.0
C685 C 0.9381 0.00234 0.63045 0.0
C686 C 0.9575 0.00862 0.64063 0.0
C687 C 0.92469 1.00038 0.67322 0.0
C688 C 0.92069 0.99393 0.82169 0.0
H689 H 0.85189 0.95679 0.97414 0.0
H690 H 0.88021 0.96513 0.91735 0.0
H691 H 0.91106 0.98483 0.90092 0.0
H692 H 0.97794 0.01822 0.70355 0.0
H693 H 0.95471 0.01446 0.77797 0.0
H694 H 0.89412 0.01595 0.73119 0.0
C695 C 0.87089 0.97626 0.92682 0.0
C696 C 0.90721 0.9917 0.86416 0.0
C697 C 0.85472 0.97148 0.9597 0.0
C698 C 0.96316 0.01303 0.6944 0.0
C699 C 0.94984 0.01087 0.73712 0.0
C700 C 0.898 0.00911 0.76798 0.0
C701 C 0.87392 0.9945 0.90234 0.0
C702 C 0.88894 0.99818 0.85912 0.0
C703 C 0.93041 0.00456 0.72716 0.0
C704 C 0.9162 0.00251 0.77284 0.0
H705 H 0.83492 0.01417 0.95505 0.0
H706 H 0.86335 0.0227 0.89816 0.0
H707 H 0.87059 0.01194 0.80484 0.0
H708 H 0.93329 0.99892 0.58946 0.0
H709 H 0.90987 0.99536 0.66412 0.0
C710 C 0.57343 0.8636 0.95687 0.0
C711 C 0.55933 0.85278 0.98817 0.0
C712 C 0.56887 0.87921 0.92652 0.0
C713 C 0.53587 0.91561 0.9062 0.0
H714 H 0.54802 0.90886 0.75362 0.0
C715 C 0.53223 0.97467 0.74075 0.0
C716 C 0.52167 0.96825 0.69438 0.0
C717 C 0.53647 0.96145 0.78011 0.0
C718 C 0.54455 0.91096 0.79607 0.0
H719 H 0.52968 0.85102 0.01542 0.0
H720 H 0.5218 0.8789 0.96306 0.0
H721 H 0.55613 0.88492 0.81853 0.0
H722 H 0.50754 0.94286 0.65277 0.0
H723 H 0.51548 0.91985 0.72043 0.0
H724 H 0.52456 0.94192 0.8834 0.0
C725 C 0.53635 0.87493 0.96173 0.0
C726 C 0.54926 0.89731 0.83325 0.0
C727 C 0.54088 0.85904 0.99183 0.0
C728 C 0.51565 0.94832 0.68802 0.0
C729 C 0.52023 0.93512 0.72669 0.0
C730 C 0.5315 0.92954 0.86898 0.0
C731 C 0.55016 0.8847 0.92729 0.0
C732 C 0.54494 0.89944 0.88866 0.0
C733 C 0.53061 0.94152 0.77324 0.0
C734 C 0.53569 0.92725 0.81347 0.0
H735 H 0.58791 0.85948 0.95411 0.0
H736 H 0.57988 0.88669 0.9011 0.0
H737 H 0.53242 0.91761 0.94869 0.0
H738 H 0.53699 0.98993 0.747 0.0
H739 H 0.54461 0.96676 0.81546 0.0
C740 C 0.66955 0.46816 0.87931 0.0
C741 C 0.68289 0.48335 0.8983 0.0
C742 C 0.65413 0.4719 0.84715 0.0
C743 C 0.63756 0.50867 0.75659 0.0
H744 H 0.58925 0.47606 0.76919 0.0
C745 C 0.57779 0.50553 0.59299 0.0
C746 C 0.55858 0.50232 0.61053 0.0
C747 C 0.59287 0.505 0.62987 0.0
C748 C 0.6025 0.48554 0.76535 0.0
H749 H 0.69003 0.51454 0.89944 0.0
H750 H 0.66268 0.52118 0.84411 0.0
H751 H 0.61479 0.47248 0.8325 0.0
H752 H 0.54016 0.49607 0.6805 0.0
H753 H 0.56613 0.49609 0.74475 0.0
H754 H 0.62499 0.52202 0.68996 0.0
C755 C 0.66445 0.50628 0.85339 0.0
C756 C 0.61733 0.48327 0.80138 0.0
C757 C 0.67999 0.50251 0.88569 0.0
C758 C 0.55477 0.49891 0.6657 0.0
C759 C 0.56975 0.49861 0.70253 0.0
C760 C 0.62263 0.51104 0.7206 0.0
C761 C 0.6514 0.49098 0.83328 0.0
C762 C 0.63518 0.49459 0.79716 0.0
C763 C 0.58904 0.50131 0.68514 0.0
C764 C 0.60492 0.49939 0.72422 0.0
H765 H 0.67115 0.45324 0.88881 0.0
H766 H 0.64461 0.45968 0.83204 0.0
H767 H 0.65114 0.51756 0.75172 0.0
H768 H 0.58116 0.5081 0.55064 0.0
H769 H 0.6075 0.50693 0.6147 0.0
C770 C 0.94684 0.64084 0.96696 0.0
C771 C 0.95917 0.65772 0.97902 0.0
C772 C 0.95362 0.62526 0.93859 0.0
C773 C 0.97228 0.59161 0.8863 0.0
H774 H 0.00258 0.60921 0.76092 0.0
C775 C 0.9978 0.54003 0.71503 0.0
C776 C 0.99572 0.54651 0.662 0.0
C777 C 0.99448 0.55209 0.75982 0.0
C778 C 0.99414 0.60403 0.79575 0.0
H779 H 0.98857 0.67092 0.97444 0.0
H780 H 1.00056 0.64358 0.92525 0.0
H781 H 0.99571 0.63244 0.83171 0.0
H782 H 0.98778 0.57029 0.61434 0.0
H783 H 0.98201 0.59116 0.69184 0.0
H784 H 0.9702 0.56323 0.84882 0.0
C785 C 0.98555 0.64251 0.93712 0.0
C786 C 0.99041 0.61732 0.83679 0.0
C787 C 0.97876 0.65808 0.96583 0.0
C788 C 0.98967 0.56493 0.65466 0.0
C789 C 0.9865 0.57697 0.69912 0.0
C790 C 0.97613 0.57824 0.84524 0.0
C791 C 0.9729 0.62621 0.92139 0.0
C792 C 0.97908 0.6114 0.88207 0.0
C793 C 0.98918 0.57088 0.75222 0.0
C794 C 0.9867 0.58441 0.79882 0.0
H795 H 0.93169 0.6401 0.97701 0.0
H796 H 0.94343 0.61304 0.92708 0.0
H797 H 0.96364 0.58652 0.92084 0.0
H798 H 1.00243 0.52586 0.72185 0.0
H799 H 0.99663 0.54698 0.80025 0.0
C800 C 0.08561 0.19327 0.28579 0.0
C801 C 0.10281 0.19205 0.25648 0.0
C802 C 0.07606 0.17687 0.30975 0.0
C803 C 0.06885 0.12509 0.28323 0.0
H804 H 0.04017 0.12368 0.41849 0.0
C805 C 0.02515 0.05593 0.3647 0.0
C806 C 0.00883 0.05829 0.39668 0.0
C807 C 0.03645 0.07212 0.34478 0.0
C808 C 0.04784 0.12394 0.38014 0.0
H809 H 0.12457 0.17308 0.23517 0.0
H810 H 0.10761 0.14431 0.27633 0.0
H811 H 0.06239 0.15212 0.39758 0.0
H812 H 0.9904 0.07908 0.42844 0.0
H813 H 0.00966 0.10731 0.39173 0.0
H814 H 0.05401 0.09713 0.26505 0.0
C815 C 0.10143 0.15796 0.27977 0.0
C816 C 0.06072 0.14016 0.36853 0.0
C817 C 0.11113 0.17444 0.2563 0.0
C818 C 0.00296 0.07689 0.404 0.0
C819 C 0.01416 0.09306 0.3837 0.0
C820 C 0.05587 0.10891 0.29465 0.0
C821 C 0.08341 0.15887 0.30467 0.0
C822 C 0.07126 0.14094 0.31982 0.0
C823 C 0.03151 0.09093 0.35608 0.0
C824 C 0.04509 0.10821 0.34306 0.0
H825 H 0.07857 0.20643 0.28642 0.0
H826 H 0.06217 0.17801 0.32856 0.0
H827 H 0.07653 0.12545 0.24486 0.0
H828 H 0.03009 0.04175 0.35874 0.0
H829 H 0.04972 0.06992 0.32374 0.0
C830 C 0.31633 0.90332 0.29425 0.0
C831 C 0.30463 0.91785 0.30871 0.0
C832 C 0.3322 0.90041 0.32583 0.0
C833 C 0.35892 0.91856 0.45172 0.0
H834 H 0.40317 0.91572 0.35746 0.0
C835 C 0.43492 0.94377 0.5283 0.0
C836 C 0.44666 0.95504 0.49188 0.0
C837 C 0.41817 0.93285 0.51036 0.0
C838 C 0.39099 0.91662 0.38444 0.0
H839 H 0.29938 0.9397 0.36937 0.0
H840 H 0.32717 0.93522 0.42322 0.0
H841 H 0.37126 0.90749 0.32158 0.0
H842 H 0.45055 0.96344 0.40819 0.0
H843 H 0.42096 0.94524 0.37707 0.0
H844 H 0.37861 0.92959 0.51306 0.0
C845 C 0.32407 0.92561 0.3886 0.0
C846 C 0.37258 0.9115 0.36409 0.0
C847 C 0.30806 0.92825 0.35758 0.0
C848 C 0.44174 0.9548 0.437 0.0
C849 C 0.42483 0.94417 0.41917 0.0
C850 C 0.37732 0.92408 0.47176 0.0
C851 C 0.33688 0.9123 0.37176 0.0
C852 C 0.35624 0.91318 0.39684 0.0
C853 C 0.41264 0.93328 0.45576 0.0
C854 C 0.39355 0.92394 0.4377 0.0
H855 H 0.31384 0.89499 0.2569 0.0
H856 H 0.34141 0.88963 0.31243 0.0
H857 H 0.34673 0.91953 0.47863 0.0
H858 H 0.43856 0.9436 0.57085 0.0
H859 H 0.4094 0.92437 0.53953 0.0
C860 C 0.39735 0.333 0.24469 0.0
C861 C 0.40551 0.31576 0.25477 0.0
C862 C 0.40538 0.35064 0.26728 0.0
C863 C 0.44222 0.37279 0.36501 0.0
H864 H 0.45041 0.41279 0.25691 0.0
C865 C 0.50084 0.4363 0.39054 0.0
C866 C 0.49447 0.45472 0.38626 0.0
C867 C 0.48934 0.41982 0.37213 0.0
C868 C 0.44813 0.40179 0.28756 0.0
H869 H 0.42743 0.30334 0.30015 0.0
H870 H 0.44128 0.33384 0.33933 0.0
H871 H 0.42909 0.38336 0.23707 0.0
H872 H 0.47197 0.47061 0.35552 0.0
H873 H 0.45208 0.4418 0.32218 0.0
H874 H 0.46177 0.39103 0.41473 0.0
C875 C 0.42865 0.33387 0.31439 0.0
C876 C 0.43577 0.38501 0.27651 0.0
C877 C 0.42061 0.31627 0.29201 0.0
C878 C 0.47724 0.45656 0.35909 0.0
C879 C 0.46582 0.44008 0.34021 0.0
C880 C 0.4547 0.38947 0.37579 0.0
C881 C 0.42171 0.35137 0.30029 0.0
C882 C 0.43286 0.37018 0.31485 0.0
C883 C 0.47141 0.42152 0.34864 0.0
C884 C 0.45799 0.40399 0.33689 0.0
H885 H 0.38554 0.333 0.21666 0.0
H886 H 0.39937 0.36382 0.25675 0.0
H887 H 0.44008 0.36182 0.39576 0.0
H888 H 0.51403 0.43448 0.41146 0.0
H889 H 0.49412 0.40567 0.37818 0.0
C890 C 0.18575 0.62707 0.26192 0.0
C891 C 0.19957 0.6141 0.27001 0.0
C892 C 0.16885 0.62579 0.29307 0.0
C893 C 0.1436 0.59906 0.40852 0.0
H894 H 0.10027 0.5941 0.31055 0.0
C895 C 0.0788 0.54267 0.43436 0.0
C896 C 0.06062 0.54943 0.43609 0.0
C897 C 0.09492 0.55494 0.41872 0.0
C898 C 0.11218 0.59573 0.33857 0.0
H899 H 0.20728 0.59109 0.32135 0.0
H900 H 0.17833 0.58899 0.37504 0.0
H901 H 0.13111 0.6103 0.28052 0.0
H902 H 0.04477 0.57392 0.42063 0.0
H903 H 0.07309 0.59525 0.39092 0.0
H904 H 0.12491 0.58307 0.46487 0.0
C905 C 0.18034 0.60022 0.34501 0.0
C906 C 0.12982 0.60515 0.32166 0.0
C907 C 0.19714 0.60147 0.314 0.0
C908 C 0.05867 0.56838 0.41941 0.0
C909 C 0.07479 0.58057 0.40272 0.0
C910 C 0.12607 0.58938 0.425 0.0
C911 C 0.16553 0.61159 0.33298 0.0
C912 C 0.14596 0.60623 0.35568 0.0
C913 C 0.09309 0.57408 0.40368 0.0
C914 C 0.11045 0.58705 0.38944 0.0
H915 H 0.18737 0.63727 0.22911 0.0
H916 H 0.15792 0.63511 0.28369 0.0
H917 H 0.15559 0.60001 0.43618 0.0
H918 H 0.08072 0.52816 0.44727 0.0
H919 H 0.10888 0.54955 0.41891 0.0
C920 C 0.91114 0.83428 0.88641 0.0
C921 C 0.92167 0.81839 0.89377 0.0
C922 C 0.92028 0.85191 0.86816 0.0
C923 C 0.96541 0.87518 0.80649 0.0
H924 H 0.95189 0.92068 0.88598 0.0
C925 C 0.00732 0.94966 0.77291 0.0
C926 C 0.99527 0.96359 0.75853 0.0
C927 C 0.99955 0.93256 0.79771 0.0
C928 C 0.95583 0.90809 0.86355 0.0
H929 H 0.94987 0.80831 0.88489 0.0
H930 H 0.96566 0.83884 0.8529 0.0
H931 H 0.93475 0.88897 0.90473 0.0
H932 H 0.96626 0.97171 0.76297 0.0
H933 H 0.9528 0.94221 0.80714 0.0
H934 H 0.98644 0.89435 0.76519 0.0
C935 C 0.95034 0.83772 0.86076 0.0
C936 C 0.94589 0.88996 0.87383 0.0
C937 C 0.94122 0.82012 0.87885 0.0
C938 C 0.97582 0.96114 0.77389 0.0
C939 C 0.96812 0.94424 0.79917 0.0
C940 C 0.9754 0.8933 0.79639 0.0
C941 C 0.94013 0.854 0.85701 0.0
C942 C 0.95045 0.87331 0.84507 0.0
C943 C 0.97971 0.92938 0.80898 0.0
C944 C 0.97061 0.90997 0.8245 0.0
H945 H 0.89602 0.83333 0.89698 0.0
H946 H 0.91191 0.86407 0.86436 0.0
H947 H 0.96917 0.86269 0.7833 0.0
H948 H 0.02233 0.95121 0.76097 0.0
H949 H 0.00883 0.92142 0.80552 0.0
C950 C 0.6981 0.00962 0.8039 0.0
C951 C 0.69005 0.99047 0.81271 0.0
C952 C 0.68857 0.02191 0.77209 0.0
C953 C 0.65425 0.04503 0.75211 0.0
H954 H 0.62795 0.02918 0.61847 0.0
C955 C 0.57701 0.05492 0.70405 0.0
C956 C 0.57155 0.05549 0.64967 0.0
C957 C 0.5964 0.05527 0.71716 0.0
C958 C 0.63553 0.03419 0.65503 0.0
H959 H 0.66657 0.96869 0.79267 0.0
H960 H 0.65003 0.99007 0.73593 0.0
H961 H 0.65379 0.01133 0.64937 0.0
H962 H 0.5819 0.05969 0.56715 0.0
H963 H 0.61575 0.06024 0.59012 0.0
H964 H 0.63492 0.06693 0.75995 0.0
C965 C 0.66366 0.99558 0.75376 0.0
C966 C 0.6502 0.02384 0.67284 0.0
C967 C 0.67301 0.98339 0.78634 0.0
C968 C 0.58577 0.05899 0.60942 0.0
C969 C 0.60513 0.05927 0.62248 0.0
C970 C 0.63938 0.05525 0.73463 0.0
C971 C 0.67104 0.01511 0.74787 0.0
C972 C 0.65911 0.02868 0.72259 0.0
C973 C 0.61049 0.05614 0.67596 0.0
C974 C 0.62937 0.04939 0.68707 0.0
H975 H 0.71114 0.01547 0.82436 0.0
H976 H 0.69448 0.03692 0.76813 0.0
H977 H 0.66088 0.04896 0.79081 0.0
H978 H 0.5663 0.05232 0.73581 0.0
H979 H 0.60011 0.0528 0.75878 0.0
C980 C 0.61478 0.68402 0.84552 0.0
C981 C 0.60619 0.70131 0.84027 0.0
C982 C 0.60571 0.66651 0.82486 0.0
C983 C 0.55651 0.64552 0.8046 0.0
H984 H 0.57914 0.60131 0.74323 0.0
C985 C 0.51198 0.57517 0.73108 0.0
C986 C 0.52031 0.55771 0.73427 0.0
C987 C 0.52227 0.59263 0.74765 0.0
C988 C 0.57267 0.61344 0.76125 0.0
H989 H 0.5826 0.71413 0.80353 0.0
H990 H 0.56718 0.68374 0.76638 0.0
H991 H 0.59894 0.63228 0.75501 0.0
H992 H 0.54498 0.5444 0.76195 0.0
H993 H 0.56268 0.57478 0.79278 0.0
H994 H 0.53035 0.62673 0.81182 0.0
C995 C 0.58063 0.68365 0.78768 0.0
C996 C 0.58399 0.63119 0.76747 0.0
C997 C 0.58967 0.70112 0.80825 0.0
C998 C 0.53828 0.55771 0.75891 0.0
C999 C 0.54852 0.57513 0.77582 0.0
C1000 C 0.54523 0.62777 0.79873 0.0
C1001 C 0.58797 0.66608 0.79854 0.0
C1002 C 0.57598 0.64742 0.78896 0.0
C1003 C 0.541 0.59286 0.76806 0.0
C1004 C 0.55316 0.61152 0.77692 0.0
H1005 H 0.62763 0.68378 0.86946 0.0
H1006 H 0.61177 0.65319 0.83348 0.0
H1007 H 0.55005 0.65767 0.82257 0.0
H1008 H 0.49818 0.57556 0.71186 0.0
H1009 H 0.51606 0.60602 0.741 0.0
C1010 C 0.83061 0.37966 0.87414 0.0
C1011 C 0.81599 0.38987 0.85383 0.0
C1012 C 0.84888 0.3815 0.85007 0.0
C1013 C 0.88692 0.4053 0.82914 0.0
H1014 H 0.89743 0.42029 0.68041 0.0
C1015 C 0.93696 0.46702 0.71115 0.0
C1016 C 0.95585 0.46232 0.71654 0.0
C1017 C 0.92149 0.45401 0.72732 0.0
C1018 C 0.89472 0.41596 0.72198 0.0
H1019 H 0.80848 0.40803 0.78837 0.0
H1020 H 0.83989 0.41117 0.7468 0.0
H1021 H 0.8672 0.40111 0.70295 0.0
H1022 H 0.97349 0.44097 0.74604 0.0
H1023 H 0.94616 0.41844 0.77663 0.0
H1024 H 0.91447 0.42054 0.84782 0.0
C1025 C 0.8375 0.40171 0.78114 0.0
C1026 C 0.87743 0.40503 0.73496 0.0
C1027 C 0.8193 0.39985 0.80507 0.0
C1028 C 0.95904 0.44494 0.74166 0.0
C1029 C 0.94349 0.43204 0.75882 0.0
C1030 C 0.90438 0.41597 0.8159 0.0
C1031 C 0.85281 0.39354 0.80522 0.0
C1032 C 0.87291 0.40036 0.78912 0.0
C1033 C 0.92461 0.43624 0.75003 0.0
C1034 C 0.908 0.42206 0.76265 0.0
H1035 H 0.82837 0.37154 0.91111 0.0
H1036 H 0.86022 0.37456 0.86874 0.0
H1037 H 0.88391 0.40218 0.87137 0.0
H1038 H 0.93408 0.48027 0.69175 0.0
H1039 H 0.90701 0.45764 0.72097 0.0
C1040 C 0.07614 0.20703 0.79784 0.0
C1041 C 0.06251 0.21627 0.82812 0.0
C1042 C 0.07063 0.19018 0.7674 0.0
C1043 C 0.03314 0.14878 0.76873 0.0
H1044 H 0.05871 0.13352 0.63708 0.0
C1045 C 0.02883 0.06863 0.69579 0.0
C1046 C 0.02653 0.06481 0.63993 0.0
C1047 C 0.03297 0.0877 0.71554 0.0
C1048 C 0.05129 0.13757 0.67362 0.0
H1049 H 0.03223 0.21586 0.84723 0.0
H1050 H 0.02244 0.18659 0.79292 0.0
H1051 H 0.06491 0.16673 0.67195 0.0
H1052 H 0.02722 0.07823 0.56098 0.0
H1053 H 0.03426 0.11126 0.59539 0.0
H1054 H 0.01941 0.11967 0.77022 0.0
C1055 C 0.03748 0.19221 0.79351 0.0
C1056 C 0.05497 0.1566 0.69385 0.0
C1057 C 0.04302 0.20915 0.82391 0.0
C1058 C 0.02892 0.08052 0.60429 0.0
C1059 C 0.03305 0.09954 0.62401 0.0
C1060 C 0.02947 0.12975 0.74851 0.0
C1061 C 0.05132 0.18211 0.76655 0.0
C1062 C 0.04608 0.16242 0.74196 0.0
C1063 C 0.03493 0.10343 0.67994 0.0
C1064 C 0.03863 0.12382 0.70097 0.0
H1065 H 0.09128 0.21219 0.8005 0.0
H1066 H 0.08172 0.18281 0.74749 0.0
H1067 H 0.02623 0.15262 0.80628 0.0
H1068 H 0.02711 0.05694 0.72447 0.0
H1069 H 0.03464 0.09012 0.7588 0.0
C1070 C 0.32725 0.98947 0.85169 0.0
C1071 C 0.32173 0.0028 0.89095 0.0
C1072 C 0.3423 0.99465 0.81542 0.0
C1073 C 0.38619 0.0296 0.80554 0.0
H1074 H 0.39154 0.00319 0.66708 0.0
C1075 C 0.45536 0.04143 0.67213 0.0
C1076 C 0.46269 0.02437 0.65341 0.0
C1077 C 0.43703 0.04071 0.69594 0.0
C1078 C 0.39028 0.01066 0.70572 0.0
H1079 H 0.32675 0.03248 0.92037 0.0
H1080 H 0.35269 0.04191 0.85545 0.0
H1081 H 0.36066 0.9998 0.71445 0.0
H1082 H 0.4564 0.99321 0.64479 0.0
H1083 H 0.42423 0.99197 0.68495 0.0
H1084 H 0.41588 0.04051 0.7963 0.0
C1085 C 0.3457 0.02721 0.85363 0.0
C1086 C 0.37256 0.00869 0.7331 0.0
C1087 C 0.33059 0.02195 0.89027 0.0
C1088 C 0.45111 0.00662 0.65812 0.0
C1089 C 0.43266 0.00593 0.68117 0.0
C1090 C 0.40385 0.03178 0.77775 0.0
C1091 C 0.35226 0.0134 0.817 0.0
C1092 C 0.37033 0.01774 0.78413 0.0
C1093 C 0.42546 0.02294 0.70088 0.0
C1094 C 0.40623 0.02199 0.72807 0.0
H1095 H 0.32073 0.97457 0.85143 0.0
H1096 H 0.34688 0.98346 0.78858 0.0
H1097 H 0.38529 0.03659 0.84496 0.0
H1098 H 0.46392 0.05534 0.6691 0.0
H1099 H 0.43187 0.05408 0.71039 0.0
C1100 C 0.45029 0.30691 0.78163 0.0
C1101 C 0.45878 0.30265 0.83074 0.0
C1102 C 0.45693 0.32368 0.75345 0.0
C1103 C 0.47648 0.37291 0.78458 0.0
H1104 H 0.48446 0.37846 0.62985 0.0
C1105 C 0.49668 0.44831 0.69135 0.0
C1106 C 0.49055 0.45162 0.63864 0.0
C1107 C 0.49394 0.42972 0.71314 0.0
C1108 C 0.48197 0.37726 0.67306 0.0
H1109 H 0.4814 0.31199 0.88751 0.0
H1110 H 0.49294 0.34144 0.83852 0.0
H1111 H 0.47891 0.3461 0.6681 0.0
H1112 H 0.47623 0.43807 0.568 0.0
H1113 H 0.47051 0.40592 0.60682 0.0
H1114 H 0.47845 0.40382 0.78994 0.0
C1115 C 0.48126 0.33173 0.82162 0.0
C1116 C 0.47899 0.35866 0.69495 0.0
C1117 C 0.47484 0.31476 0.84925 0.0
C1118 C 0.48118 0.436 0.60871 0.0
C1119 C 0.4781 0.41746 0.63088 0.0
C1120 C 0.47908 0.39147 0.76269 0.0
C1121 C 0.47193 0.3367 0.77449 0.0
C1122 C 0.47626 0.3563 0.75098 0.0
C1123 C 0.48465 0.41394 0.68324 0.0
C1124 C 0.48188 0.394 0.70654 0.0
H1125 H 0.43769 0.29795 0.76703 0.0
H1126 H 0.44941 0.32717 0.7174 0.0
H1127 H 0.47402 0.37155 0.82782 0.0
H1128 H 0.50422 0.45996 0.71522 0.0
H1129 H 0.49958 0.4277 0.75306 0.0
C1130 C 0.19271 0.49955 0.88288 0.0
C1131 C 0.20203 0.51858 0.88398 0.0
C1132 C 0.17624 0.49487 0.85115 0.0
C1133 C 0.13503 0.51683 0.81065 0.0
H1134 H 0.12604 0.47888 0.69362 0.0
C1135 C 0.06014 0.49748 0.71432 0.0
C1136 C 0.05992 0.49967 0.65782 0.0
C1137 C 0.07758 0.49754 0.74173 0.0
C1138 C 0.12836 0.48944 0.72647 0.0
H1139 H 0.20246 0.54702 0.84858 0.0
H1140 H 0.17357 0.53895 0.7948 0.0
H1141 H 0.1573 0.48285 0.73972 0.0
H1142 H 0.07782 0.50288 0.5856 0.0
H1143 H 0.10819 0.50251 0.63343 0.0
H1144 H 0.10621 0.52342 0.798 0.0
C1145 C 0.17889 0.52775 0.81868 0.0
C1146 C 0.14616 0.49164 0.75283 0.0
C1147 C 0.19541 0.53233 0.84952 0.0
C1148 C 0.07749 0.50127 0.62919 0.0
C1149 C 0.09488 0.50093 0.65646 0.0
C1150 C 0.11716 0.51435 0.78521 0.0
C1151 C 0.16881 0.50918 0.82052 0.0
C1152 C 0.14971 0.50559 0.79456 0.0
C1153 C 0.09513 0.49936 0.71309 0.0
C1154 C 0.11371 0.50082 0.74237 0.0
H1155 H 0.19736 0.48866 0.90914 0.0
H1156 H 0.16867 0.48042 0.8531 0.0
H1157 H 0.13743 0.52764 0.84286 0.0
H1158 H 0.04687 0.49625 0.73757 0.0
H1159 H 0.07737 0.49627 0.78542 0.0
C1160 C 0.98058 0.81028 0.30012 0.0
C1161 C 0.96145 0.80175 0.29919 0.0
C1162 C 0.98554 0.82759 0.32954 0.0
C1163 C 0.96773 0.86097 0.43461 0.0
H1164 H 1.00009 0.90056 0.35788 0.0
C1165 C 0.99125 0.93632 0.53136 0.0
C1166 C 0.99183 0.9527 0.49832 0.0
C1167 C 0.98819 0.91756 0.50903 0.0
C1168 C 0.99092 0.88972 0.37973 0.0
H1169 H 0.93282 0.80391 0.33113 0.0
H1170 H 0.94138 0.8339 0.38238 0.0
H1171 H 0.99422 0.86791 0.31866 0.0
H1172 H 0.98945 0.96199 0.41548 0.0
H1173 H 0.98383 0.92921 0.37657 0.0
H1174 H 0.96392 0.8829 0.49483 0.0
C1175 C 0.95263 0.82735 0.36063 0.0
C1176 C 0.98779 0.87089 0.35762 0.0
C1177 C 0.94768 0.81016 0.33114 0.0
C1178 C 0.98911 0.94976 0.44223 0.0
C1179 C 0.98604 0.93093 0.41984 0.0
C1180 C 0.97086 0.87979 0.45672 0.0
C1181 C 0.9715 0.83665 0.3589 0.0
C1182 C 0.97603 0.85629 0.38456 0.0
C1183 C 0.98558 0.91457 0.45297 0.0
C1184 C 0.98241 0.89447 0.42944 0.0
H1185 H 0.99145 0.80424 0.27548 0.0
H1186 H 1.00027 0.83418 0.32801 0.0
H1187 H 0.95871 0.8501 0.45673 0.0
H1188 H 0.99334 0.9379 0.57471 0.0
H1189 H 0.9882 0.90537 0.53578 0.0
C1190 C 0.6907 0.00388 0.29723 0.0
C1191 C 0.69389 0.98543 0.27677 0.0
C1192 C 0.67508 0.00611 0.33226 0.0
C1193 C 0.63852 0.97913 0.42144 0.0
H1194 H 0.60598 0.01825 0.38107 0.0
C1195 C 0.5593 0.97604 0.49265 0.0
C1196 C 0.55095 0.99337 0.50179 0.0
C1197 C 0.57796 0.9763 0.4714 0.0
C1198 C 0.61499 0.00746 0.39378 0.0
H1199 H 0.68378 0.95485 0.27839 0.0
H1200 H 0.65695 0.9586 0.34027 0.0
H1201 H 0.63687 0.01675 0.3356 0.0
H1202 H 0.55577 0.02462 0.49571 0.0
H1203 H 0.58856 0.02521 0.46053 0.0
H1204 H 0.6167 0.96974 0.47941 0.0
C1205 C 0.6664 0.97138 0.32958 0.0
C1206 C 0.63278 0.0066 0.36754 0.0
C1207 C 0.68179 0.96921 0.29413 0.0
C1208 C 0.56184 0.01102 0.48983 0.0
C1209 C 0.5806 0.01132 0.46891 0.0
C1210 C 0.62082 0.98008 0.44797 0.0
C1211 C 0.6625 0.9899 0.34803 0.0
C1212 C 0.64462 0.9922 0.38028 0.0
C1213 C 0.58892 0.99393 0.4589 0.0
C1214 C 0.60858 0.99401 0.43384 0.0
H1215 H 0.69963 0.01665 0.28382 0.0
H1216 H 0.67259 0.02057 0.34601 0.0
H1217 H 0.64738 0.96802 0.43288 0.0
H1218 H 0.55128 0.96218 0.50122 0.0
H1219 H 0.58359 0.96256 0.46351 0.0
C1220 C 0.54727 0.69859 0.28286 0.0
C1221 C 0.56632 0.70726 0.28667 0.0
C1222 C 0.54113 0.682 0.31278 0.0
C1223 C 0.56182 0.64002 0.36478 0.0
H1224 H 0.5134 0.62772 0.44045 0.0
C1225 C 0.53369 0.56186 0.43008 0.0
C1226 C 0.52702 0.56007 0.48389 0.0
C1227 C 0.53797 0.58024 0.40737 0.0
C1228 C 0.52699 0.63097 0.41944 0.0
H1229 H 0.59324 0.70652 0.32866 0.0
H1230 H 0.58257 0.67773 0.3807 0.0
H1231 H 0.52122 0.66007 0.40232 0.0
H1232 H 0.51948 0.57633 0.55572 0.0
H1233 H 0.52669 0.60817 0.51582 0.0
H1234 H 0.56753 0.61093 0.3811 0.0
C1235 C 0.57246 0.68349 0.35403 0.0
C1236 C 0.53141 0.64945 0.39748 0.0
C1237 C 0.57851 0.70008 0.32461 0.0
C1238 C 0.52468 0.57709 0.51425 0.0
C1239 C 0.52866 0.59539 0.49129 0.0
C1240 C 0.55727 0.62149 0.38587 0.0
C1241 C 0.55399 0.67376 0.34671 0.0
C1242 C 0.54897 0.65423 0.37034 0.0
C1243 C 0.53536 0.59721 0.43763 0.0
C1244 C 0.53986 0.61677 0.41376 0.0
H1245 H 0.53762 0.70365 0.25353 0.0
H1246 H 0.52678 0.67484 0.30642 0.0
H1247 H 0.57536 0.64316 0.34343 0.0
H1248 H 0.53562 0.54909 0.40551 0.0
H1249 H 0.54306 0.58118 0.36581 0.0
C1250 C 0.83461 0.50182 0.2122 0.0
C1251 C 0.81809 0.49086 0.23204 0.0
C1252 C 0.85029 0.50711 0.2462 0.0
C1253 C 0.87144 0.48871 0.36912 0.0
H1254 H 0.90929 0.53333 0.35273 0.0
C1255 C 0.93842 0.50046 0.50446 0.0
C1256 C 0.95616 0.50623 0.47911 0.0
C1257 C 0.92118 0.50058 0.4765 0.0
C1258 C 0.8989 0.52073 0.3575 0.0
H1259 H 0.80443 0.47781 0.30329 0.0
H1260 H 0.83131 0.48785 0.36357 0.0
H1261 H 0.87913 0.53152 0.30277 0.0
H1262 H 0.9695 0.51695 0.4043 0.0
H1263 H 0.9393 0.51708 0.35532 0.0
H1264 H 0.89117 0.47783 0.42338 0.0
C1265 C 0.83247 0.49201 0.3215 0.0
C1266 C 0.88158 0.51969 0.32892 0.0
C1267 C 0.81689 0.48657 0.28734 0.0
C1268 C 0.95614 0.51239 0.42512 0.0
C1269 C 0.93881 0.51259 0.39713 0.0
C1270 C 0.88865 0.4898 0.3978 0.0
C1271 C 0.84975 0.50151 0.30081 0.0
C1272 C 0.86763 0.5036 0.33413 0.0
C1273 C 0.92111 0.50652 0.42237 0.0
C1274 C 0.90266 0.50575 0.39222 0.0
H1275 H 0.83603 0.50484 0.16935 0.0
H1276 H 0.86331 0.51427 0.22852 0.0
H1277 H 0.86138 0.47582 0.37324 0.0
H1278 H 0.93779 0.4957 0.54604 0.0
H1279 H 0.90783 0.49607 0.49747 0.0
loop_
_geom_bond_atom_site_label_1
_geom_bond_atom_site_label_2
_geom_bond_distance
_geom_bond_site_symmetry_2
_ccdc_geom_bond_type
C0 C1 1.391 . S
C0 C4 1.391 . S
C0 H42 0.948 . S
C1 C0 1.391 . S
C1 C2 1.391 . S
C2 C1 1.391 . S
C2 H58 0.947 . S
C2 C59 1.392 . S
C3 C4 1.391 . S
C3 C7 1.397 . S
C3 C59 1.419 . S
C4 C0 1.391 . S
C4 C3 1.391 . S
C4 C5 1.399 . S
C5 C4 1.399 . S
C5 C8 1.396 . S
C5 C17 1.453 . S
C5 C18 1.684 . S
H6 C30 0.948 . S
C7 C3 1.397 . S
C7 C8 1.394 . S
C7 C26 1.723 . S
C8 C5 1.396 . S
C8 C7 1.394 . S
C8 C38 1.723 . S
H9 C32 0.947 . S
H10 C33 0.948 . S
H11 C39 0.982 . S
H12 C40 0.979 . S
H13 C40 0.980 . S
H14 C40 0.983 . S
H15 C39 0.979 . S
H16 C39 0.977 . S
C17 C5 1.453 . S
C17 H46 0.982 . S
C17 H47 0.979 . S
C17 H48 0.977 . S
C18 C5 1.684 . S
C18 H43 0.979 . S
C18 H44 0.980 . S
C18 H45 0.983 . S
C19 C20 1.391 . S
C19 C24 1.391 . S
C19 H49 0.948 . S
C20 C19 1.391 . S
C20 C21 1.391 . S
C21 C20 1.391 . S
C21 C22 1.392 . S
C21 H50 0.947 . S
C22 C21 1.392 . S
C22 C23 1.419 . S
C22 H51 0.948 . S
C23 C22 1.419 . S
C23 C24 1.391 . S
C23 C27 1.397 . S
C24 C19 1.391 . S
C24 C23 1.391 . S
C24 C25 1.399 . S
C25 C24 1.399 . S
C25 C26 1.396 1_556 S
C25 C28 1.453 1_556 S
C25 C29 1.684 1_556 S
C26 C7 1.723 . S
C26 C25 1.396 1_554 S
C26 C27 1.394 1_554 S
C27 C23 1.397 . S
C27 C26 1.394 1_556 S
C27 C37 1.723 . S
C28 C25 1.453 1_554 S
C28 H52 0.982 . S
C28 H53 0.979 . S
C28 H54 0.977 . S
C29 C25 1.684 1_554 S
C29 H55 0.979 . S
C29 H56 0.980 . S
C29 H57 0.983 . S
C30 H6 0.948 . S
C30 C31 1.391 . S
C30 C35 1.391 . S
C31 C30 1.391 . S
C31 C32 1.391 1_556 S
C32 H9 0.947 . S
C32 C31 1.391 1_554 S
C32 C33 1.392 . S
C33 H10 0.948 . S
C33 C32 1.392 . S
C33 C34 1.419 . S
C34 C33 1.419 . S
C34 C35 1.391 1_554 S
C34 C38 1.397 . S
C35 C30 1.391 . S
C35 C34 1.391 1_556 S
C35 C36 1.399 . S
C36 C35 1.399 . S
C36 C37 1.396 . S
C36 C39 1.453 . S
C36 C40 1.684 . S
C37 C27 1.723 . S
C37 C36 1.396 . S
C37 C38 1.394 1_556 S
C38 C8 1.723 . S
C38 C34 1.397 . S
C38 C37 1.394 1_554 S
C39 H11 0.982 . S
C39 H15 0.979 . S
C39 H16 0.977 . S
C39 C36 1.453 . S
C40 H12 0.979 . S
C40 H13 0.980 . S
C40 H14 0.983 . S
C40 C36 1.684 . S
H41 C59 0.948 . S
H42 C0 0.948 . S
H43 C18 0.979 . S
H44 C18 0.980 . S
H45 C18 0.983 . S
H46 C17 0.982 . S
H47 C17 0.979 . S
H48 C17 0.977 . S
H49 C19 0.948 . S
H50 C21 0.947 . S
H51 C22 0.948 . S
H52 C28 0.982 . S
H53 C28 0.979 . S
H54 C28 0.977 . S
H55 C29 0.979 . S
H56 C29 0.980 . S
H57 C29 0.983 . S
H58 C2 0.947 . S
C59 C2 1.392 . S
C59 C3 1.419 . S
C59 H41 0.948 . S
C60 C61 1.391 . S
C60 C64 1.391 . S
C60 H102 0.948 . S
C61 C60 1.391 . S
C61 C62 1.391 . S
C62 C61 1.391 . S
C62 H118 0.947 . S
C62 C119 1.392 . S
C63 C64 1.391 . S
C63 C67 1.397 . S
C63 C119 1.419 . S
C64 C60 1.391 . S
C64 C63 1.391 . S
C64 C65 1.399 . S
C65 C64 1.399 . S
C65 C68 1.396 . S
C65 C77 1.453 . S
C65 C78 1.684 . S
H66 C90 0.948 1_554 S
C67 C63 1.397 . S
C67 C68 1.394 . S
C67 C86 1.723 1_556 S
C68 C65 1.396 . S
C68 C67 1.394 . S
C68 C98 1.723 . S
H69 C92 0.947 . S
H70 C93 0.948 . S
H71 C99 0.982 . S
H72 C100 0.979 . S
H73 C100 0.980 . S
H74 C100 0.983 . S
H75 C99 0.979 . S
H76 C99 0.977 . S
C77 C65 1.453 . S
C77 H106 0.982 . S
C77 H107 0.979 . S
C77 H108 0.977 . S
C78 C65 1.684 . S
C78 H103 0.979 . S
C78 H104 0.980 . S
C78 H105 0.983 . S
C79 C80 1.391 . S
C79 C84 1.391 . S
C79 H109 0.948 . S
C80 C79 1.391 . S
C80 C81 1.391 . S
C81 C80 1.391 . S
C81 C82 1.392 . S
C81 H110 0.947 . S
C82 C81 1.392 . S
C82 C83 1.419 . S
C82 H111 0.948 . S
C83 C82 1.419 . S
C83 C84 1.391 . S
C83 C87 1.397 . S
C84 C79 1.391 . S
C84 C83 1.391 . S
C84 C85 1.399 . S
C85 C84 1.399 . S
C85 C86 1.396 . S
C85 C88 1.453 . S
C85 C89 1.684 . S
C86 C67 1.723 1_554 S
C86 C85 1.396 . S
C86 C87 1.394 . S
C87 C83 1.397 . S
C87 C86 1.394 . S
C87 C97 1.723 . S
C88 C85 1.453 . S
C88 H112 0.982 . S
C88 H113 0.979 . S
C88 H114 0.977 . S
C89 C85 1.684 . S
C89 H115 0.979 . S
C89 H116 0.980 . S
C89 H117 0.983 . S
C90 H66 0.948 1_556 S
C90 C91 1.391 . S
C90 C95 1.391 1_556 S
C91 C90 1.391 . S
C91 C92 1.391 . S
C92 H69 0.947 . S
C92 C91 1.391 . S
C92 C93 1.392 . S
C93 H70 0.948 . S
C93 C92 1.392 . S
C93 C94 1.419 . S
C94 C93 1.419 . S
C94 C95 1.391 1_556 S
C94 C98 1.397 . S
C95 C90 1.391 1_554 S
C95 C94 1.391 1_554 S
C95 C96 1.399 . S
C96 C95 1.399 . S
C96 C97 1.396 . S
C96 C99 1.453 . S
C96 C100 1.684 . S
C97 C87 1.723 . S
C97 C96 1.396 . S
C97 C98 1.394 1_554 S
C98 C68 1.723 . S
C98 C94 1.397 . S
C98 C97 1.394 1_556 S
C99 H71 0.982 . S
C99 H75 0.979 . S
C99 H76 0.977 . S
C99 C96 1.453 . S
C100 H72 0.979 . S
C100 H73 0.980 . S
C100 H74 0.983 . S
C100 C96 1.684 . S
H101 C119 0.948 . S
H102 C60 0.948 . S
H103 C78 0.979 . S
H104 C78 0.980 . S
H105 C78 0.983 . S
H106 C77 0.982 . S
H107 C77 0.979 . S
H108 C77 0.977 . S
H109 C79 0.948 . S
H110 C81 0.947 . S
H111 C82 0.948 . S
H112 C88 0.982 . S
H113 C88 0.979 . S
H114 C88 0.977 . S
H115 C89 0.979 . S
H116 C89 0.980 . S
H117 C89 0.983 . S
H118 C62 0.947 . S
C119 C62 1.392 . S
C119 C63 1.419 . S
C119 H101 0.948 . S
C120 C121 1.391 1_554 S
C120 C124 1.391 . S
C120 H162 0.948 . S
C121 C120 1.391 1_556 S
C121 C122 1.391 . S
C122 C121 1.391 . S
C122 H178 0.947 . S
C122 C179 1.392 . S
C123 C124 1.391 1_556 S
C123 C127 1.398 1_566 S
C123 C179 1.419 . S
C124 C120 1.391 . S
C124 C123 1.391 1_554 S
C124 C125 1.399 . S
C125 C124 1.399 . S
C125 C128 1.382 1_565 S
C125 C137 1.453 1_565 S
C125 C138 1.684 . S
H126 C150 0.948 . S
C127 C123 1.398 1_544 S
C127 C128 1.395 . S
C127 C146 1.716 1_554 S
C128 C125 1.382 1_545 S
C128 C127 1.395 . S
C128 C158 1.727 . S
H129 C152 0.947 . S
H130 C153 0.948 . S
H131 C159 0.982 . S
H132 C160 0.979 . S
H133 C160 0.980 . S
H134 C160 0.983 . S
H135 C159 0.979 . S
H136 C159 0.977 . S
C137 C125 1.453 1_545 S
C137 H166 0.982 . S
C137 H167 0.979 . S
C137 H168 0.977 . S
C138 C125 1.684 . S
C138 H163 0.979 . S
C138 H164 0.980 . S
C138 H165 0.983 . S
C139 C140 1.391 . S
C139 C144 1.391 . S
C139 H169 0.948 . S
C140 C139 1.391 . S
C140 C141 1.391 . S
C141 C140 1.391 . S
C141 C142 1.392 . S
C141 H170 0.947 . S
C142 C141 1.392 . S
C142 C143 1.419 . S
C142 H171 0.948 1_556 S
C143 C142 1.419 . S
C143 C144 1.391 . S
C143 C147 1.397 1_565 S
C144 C139 1.391 . S
C144 C143 1.391 . S
C144 C145 1.399 . S
C145 C144 1.399 . S
C145 C146 1.391 1_565 S
C145 C148 1.453 1_565 S
C145 C149 1.684 . S
C146 C127 1.716 1_556 S
C146 C145 1.391 1_545 S
C146 C147 1.398 . S
C147 C143 1.397 1_545 S
C147 C146 1.398 . S
C147 C157 1.722 1_556 S
C148 C145 1.453 1_545 S
C148 H172 0.982 . S
C148 H173 0.979 . S
C148 H174 0.977 . S
C149 C145 1.684 . S
C149 H175 0.979 . S
C149 H176 0.980 . S
C149 H177 0.983 . S
C150 H126 0.948 . S
C150 C151 1.391 . S
C150 C155 1.391 . S
C151 C150 1.391 . S
C151 C152 1.391 . S
C152 H129 0.947 . S
C152 C151 1.391 . S
C152 C153 1.392 . S
C153 H130 0.948 . S
C153 C152 1.392 . S
C153 C154 1.419 . S
C154 C153 1.419 . S
C154 C155 1.391 . S
C154 C158 1.397 1_565 S
C155 C150 1.391 . S
C155 C154 1.391 . S
C155 C156 1.399 . S
C156 C155 1.399 . S
C156 C157 1.392 1_565 S
C156 C159 1.453 1_565 S
C156 C160 1.684 . S
C157 C147 1.722 1_554 S
C157 C156 1.392 1_545 S
C157 C158 1.386 . S
C158 C128 1.727 . S
C158 C154 1.397 1_545 S
C158 C157 1.386 . S
C159 H131 0.982 . S
C159 H135 0.979 . S
C159 H136 0.977 . S
C159 C156 1.453 1_545 S
C160 H132 0.979 . S
C160 H133 0.980 . S
C160 H134 0.983 . S
C160 C156 1.684 . S
H161 C179 0.948 . S
H162 C120 0.948 . S
H163 C138 0.979 . S
H164 C138 0.980 . S
H165 C138 0.983 . S
H166 C137 0.982 . S
H167 C137 0.979 . S
H168 C137 0.977 . S
H169 C139 0.948 . S
H170 C141 0.947 . S
H171 C142 0.948 1_554 S
H172 C148 0.982 . S
H173 C148 0.979 . S
H174 C148 0.977 . S
H175 C149 0.979 . S
H176 C149 0.980 . S
H177 C149 0.983 . S
H178 C122 0.947 . S
C179 C122 1.392 . S
C179 C123 1.419 . S
C179 H161 0.948 . S
C180 C181 1.391 . S
C180 C184 1.391 . S
C180 H222 0.948 . S
C181 C180 1.391 . S
C181 C182 1.391 . S
C182 C181 1.391 . S
C182 H238 0.947 . S
C182 C239 1.392 . S
C183 C184 1.391 . S
C183 C187 1.397 . S
C183 C239 1.419 . S
C184 C180 1.391 . S
C184 C183 1.391 . S
C184 C185 1.399 . S
C185 C184 1.399 . S
C185 C188 1.396 . S
C185 C197 1.453 . S
C185 C198 1.684 . S
H186 C210 0.948 . S
C187 C183 1.397 . S
C187 C188 1.394 . S
C187 C206 1.723 . S
C188 C185 1.396 . S
C188 C187 1.394 . S
C188 C218 1.723 . S
H189 C212 0.947 . S
H190 C213 0.948 . S
H191 C219 0.982 . S
H192 C220 0.979 . S
H193 C220 0.980 . S
H194 C220 0.983 . S
H195 C219 0.979 . S
H196 C219 0.977 . S
C197 C185 1.453 . S
C197 H226 0.982 . S
C197 H227 0.979 . S
C197 H228 0.977 . S
C198 C185 1.684 . S
C198 H223 0.979 . S
C198 H224 0.980 . S
C198 H225 0.983 . S
C199 C200 1.391 . S
C199 C204 1.391 . S
C199 H229 0.948 . S
C200 C199 1.391 . S
C200 C201 1.391 . S
C201 C200 1.391 . S
C201 C202 1.392 . S
C201 H230 0.947 . S
C202 C201 1.392 . S
C202 C203 1.419 . S
C202 H231 0.948 . S
C203 C202 1.419 . S
C203 C204 1.391 . S
C203 C207 1.397 1_556 S
C204 C199 1.391 . S
C204 C203 1.391 . S
C204 C205 1.399 1_556 S
C205 C204 1.399 1_554 S
C205 C206 1.396 . S
C205 C208 1.453 . S
C205 C209 1.684 . S
C206 C187 1.723 . S
C206 C205 1.396 . S
C206 C207 1.394 . S
C207 C203 1.397 1_554 S
C207 C206 1.394 . S
C207 C217 1.723 . S
C208 C205 1.453 . S
C208 H232 0.982 . S
C208 H233 0.979 . S
C208 H234 0.977 . S
C209 C205 1.684 . S
C209 H235 0.979 . S
C209 H236 0.980 . S
C209 H237 0.983 . S
C210 H186 0.948 . S
C210 C211 1.391 1_556 S
C210 C215 1.397 . S
C211 C210 1.391 1_554 S
C211 C212 1.391 . S
C212 H189 0.947 . S
C212 C211 1.391 . S
C212 C213 1.392 . S
C213 H190 0.948 . S
C213 C212 1.392 . S
C213 C214 1.419 . S
C214 C213 1.419 . S
C214 C215 1.375 1_554 S
C214 C218 1.397 . S
C215 C210 1.397 . S
C215 C214 1.375 1_556 S
C215 C216 1.408 . S
C216 C215 1.408 . S
C216 C217 1.396 1_556 S
C216 C219 1.453 . S
C216 C220 1.684 . S
C217 C207 1.723 . S
C217 C216 1.396 1_554 S
C217 C218 1.394 . S
C218 C188 1.723 . S
C218 C214 1.397 . S
C218 C217 1.394 . S
C219 H191 0.982 . S
C219 H195 0.979 . S
C219 H196 0.977 . S
C219 C216 1.453 . S
C220 H192 0.979 . S
C220 H193 0.980 . S
C220 H194 0.983 . S
C220 C216 1.684 . S
H221 C239 0.948 . S
H222 C180 0.948 . S
H223 C198 0.979 . S
H224 C198 0.980 . S
H225 C198 0.983 . S
H226 C197 0.982 . S
H227 C197 0.979 . S
H228 C197 0.977 . S
H229 C199 0.948 . S
H230 C201 0.947 . S
H231 C202 0.948 . S
H232 C208 0.982 . S
H233 C208 0.979 . S
H234 C208 0.977 . S
H235 C209 0.979 . S
H236 C209 0.980 . S
H237 C209 0.983 . S
H238 C182 0.947 . S
C239 C182 1.392 . S
C239 C183 1.419 . S
C239 H221 0.948 . S
C240 C241 1.391 . S
C240 C244 1.391 . S
C240 H282 0.948 . S
C241 C240 1.391 . S
C241 C242 1.391 . S
C242 C241 1.391 . S
C242 H298 0.947 . S
C242 C299 1.392 . S
C243 C244 1.391 . S
C243 C247 1.397 . S
C243 C299 1.419 . S
C244 C240 1.391 . S
C244 C243 1.391 . S
C244 C245 1.399 . S
C245 C244 1.399 . S
C245 C248 1.396 . S
C245 C257 1.453 . S
C245 C258 1.684 . S
H246 C270 0.948 . S
C247 C243 1.397 . S
C247 C248 1.394 . S
C247 C266 1.723 . S
C248 C245 1.396 . S
C248 C247 1.394 . S
C248 C278 1.723 . S
H249 C272 0.947 . S
H250 C273 0.948 . S
H251 C279 0.982 . S
H252 C280 0.979 . S
H253 C280 0.980 . S
H254 C280 0.983 . S
H255 C279 0.979 . S
H256 C279 0.977 . S
C257 C245 1.453 . S
C257 H286 0.982 . S
C257 H287 0.979 . S
C257 H288 0.977 1_554 S
C258 C245 1.684 . S
C258 H283 0.979 . S
C258 H284 0.980 1_554 S
C258 H285 0.983 . S
C259 C260 1.391 . S
C259 C264 1.391 . S
C259 H289 0.948 . S
C260 C259 1.391 . S
C260 C261 1.391 . S
C261 C260 1.391 . S
C261 C262 1.392 . S
C261 H290 0.947 . S
C262 C261 1.392 . S
C262 C263 1.419 . S
C262 H291 0.948 . S
C263 C262 1.419 . S
C263 C264 1.391 . S
C263 C267 1.397 . S
C264 C259 1.391 . S
C264 C263 1.391 . S
C264 C265 1.399 . S
C265 C264 1.399 . S
C265 C266 1.396 . S
C265 C268 1.453 . S
C265 C269 1.684 . S
C266 C247 1.723 . S
C266 C265 1.396 . S
C266 C267 1.394 . S
C267 C263 1.397 . S
C267 C266 1.394 . S
C267 C277 1.723 . S
C268 C265 1.453 . S
C268 H292 0.982 . S
C268 H293 0.979 . S
C268 H294 0.977 . S
C269 C265 1.684 . S
C269 H295 0.979 . S
C269 H296 0.980 . S
C269 H297 0.983 . S
C270 H246 0.948 . S
C270 C271 1.391 . S
C270 C275 1.391 . S
C271 C270 1.391 . S
C271 C272 1.391 . S
C272 H249 0.947 . S
C272 C271 1.391 . S
C272 C273 1.392 . S
C273 H250 0.948 . S
C273 C272 1.392 . S
C273 C274 1.419 1_556 S
C274 C273 1.419 1_554 S
C274 C275 1.391 1_554 S
C274 C278 1.397 . S
C275 C270 1.391 . S
C275 C274 1.391 1_556 S
C275 C276 1.399 1_556 S
C276 C275 1.399 1_554 S
C276 C277 1.396 . S
C276 C279 1.453 . S
C276 C280 1.684 . S
C277 C267 1.723 . S
C277 C276 1.396 . S
C277 C278 1.394 . S
C278 C248 1.723 . S
C278 C274 1.397 . S
C278 C277 1.394 . S
C279 H251 0.982 . S
C279 H255 0.979 . S
C279 H256 0.977 . S
C279 C276 1.453 . S
C280 H252 0.979 . S
C280 H253 0.980 . S
C280 H254 0.983 . S
C280 C276 1.684 . S
H281 C299 0.948 . S
H282 C240 0.948 . S
H283 C258 0.979 . S
H284 C258 0.980 1_556 S
H285 C258 0.983 . S
H286 C257 0.982 . S
H287 C257 0.979 . S
H288 C257 0.977 1_556 S
H289 C259 0.948 . S
H290 C261 0.947 . S
H291 C262 0.948 . S
H292 C268 0.982 . S
H293 C268 0.979 . S
H294 C268 0.977 . S
H295 C269 0.979 . S
H296 C269 0.980 . S
H297 C269 0.983 . S
H298 C242 0.947 . S
C299 C242 1.392 . S
C299 C243 1.419 . S
C299 H281 0.948 . S
C300 C301 1.391 . S
C300 C304 1.391 . S
C300 H342 0.948 . S
C301 C300 1.391 . S
C301 C302 1.391 . S
C302 C301 1.391 . S
C302 H358 0.947 . S
C302 C359 1.392 . S
C303 C304 1.391 . S
C303 C307 1.397 . S
C303 C359 1.419 . S
C304 C300 1.391 . S
C304 C303 1.391 . S
C304 C305 1.399 . S
C305 C304 1.399 . S
C305 C308 1.396 . S
C305 C317 1.453 . S
C305 C318 1.684 . S
H306 C330 0.948 . S
C307 C303 1.397 . S
C307 C308 1.394 . S
C307 C326 1.723 . S
C308 C305 1.396 . S
C308 C307 1.394 . S
C308 C338 1.723 . S
H309 C332 0.947 . S
H310 C333 0.948 . S
H311 C339 0.982 . S
H312 C340 0.979 . S
H313 C340 0.980 . S
H314 C340 0.983 . S
H315 C339 0.979 . S
H316 C339 0.977 . S
C317 C305 1.453 . S
C317 H346 0.982 . S
C317 H347 0.979 . S
C317 H348 0.977 . S
C318 C305 1.684 . S
C318 H343 0.979 . S
C318 H344 0.980 . S
C318 H345 0.983 . S
C319 C320 1.391 . S
C319 C324 1.391 1_556 S
C319 H349 0.948 . S
C320 C319 1.391 . S
C320 C321 1.391 . S
C321 C320 1.391 . S
C321 C322 1.392 . S
C321 H350 0.947 . S
C322 C321 1.392 . S
C322 C323 1.419 1_556 S
C322 H351 0.948 . S
C323 C322 1.419 1_554 S
C323 C324 1.391 . S
C323 C327 1.397 . S
C324 C319 1.391 1_554 S
C324 C323 1.391 . S
C324 C325 1.399 . S
C325 C324 1.399 . S
C325 C326 1.396 . S
C325 C328 1.453 . S
C325 C329 1.684 . S
C326 C307 1.723 . S
C326 C325 1.396 . S
C326 C327 1.394 . S
C327 C323 1.397 . S
C327 C326 1.394 . S
C327 C337 1.723 . S
C328 C325 1.453 . S
C328 H352 0.982 . S
C328 H353 0.979 . S
C328 H354 0.977 . S
C329 C325 1.684 . S
C329 H355 0.979 . S
C329 H356 0.980 . S
C329 H357 0.983 . S
C330 H306 0.948 . S
C330 C331 1.391 . S
C330 C335 1.391 . S
C331 C330 1.391 . S
C331 C332 1.391 . S
C332 H309 0.947 . S
C332 C331 1.391 . S
C332 C333 1.392 . S
C333 H310 0.948 . S
C333 C332 1.392 . S
C333 C334 1.419 . S
C334 C333 1.419 . S
C334 C335 1.391 . S
C334 C338 1.397 . S
C335 C330 1.391 . S
C335 C334 1.391 . S
C335 C336 1.399 . S
C336 C335 1.399 . S
C336 C337 1.396 . S
C336 C339 1.453 . S
C336 C340 1.684 . S
C337 C327 1.723 . S
C337 C336 1.396 . S
C337 C338 1.394 . S
C338 C308 1.723 . S
C338 C334 1.397 . S
C338 C337 1.394 . S
C339 H311 0.982 . S
C339 H315 0.979 . S
C339 H316 0.977 . S
C339 C336 1.453 . S
C340 H312 0.979 . S
C340 H313 0.980 . S
C340 H314 0.983 . S
C340 C336 1.684 . S
H341 C359 0.948 . S
H342 C300 0.948 . S
H343 C318 0.979 . S
H344 C318 0.980 . S
H345 C318 0.983 . S
H346 C317 0.982 . S
H347 C317 0.979 . S
H348 C317 0.977 . S
H349 C319 0.948 . S
H350 C321 0.947 . S
H351 C322 0.948 . S
H352 C328 0.982 . S
H353 C328 0.979 . S
H354 C328 0.977 . S
H355 C329 0.979 . S
H356 C329 0.980 . S
H357 C329 0.983 . S
H358 C302 0.947 . S
C359 C302 1.392 . S
C359 C303 1.419 . S
C359 H341 0.948 . S
C360 C361 1.391 . S
C360 C364 1.391 . S
C360 H402 0.948 . S
C361 C360 1.391 . S
C361 C362 1.391 . S
C362 C361 1.391 . S
C362 H418 0.947 . S
C362 C419 1.392 . S
C363 C364 1.391 . S
C363 C367 1.397 1_546 S
C363 C419 1.419 . S
C364 C360 1.391 . S
C364 C363 1.391 . S
C364 C365 1.399 . S
C365 C364 1.399 . S
C365 C368 1.386 1_546 S
C365 C377 1.453 1_545 S
C365 C378 1.684 . S
H366 C390 0.948 . S
C367 C363 1.397 1_564 S
C367 C368 1.400 . S
C367 C386 1.717 . S
C368 C365 1.386 1_564 S
C368 C367 1.400 . S
C368 C398 1.720 . S
H369 C392 0.947 . S
H370 C393 0.948 . S
H371 C399 0.982 . S
H372 C400 0.979 . S
H373 C400 0.980 . S
H374 C400 0.983 . S
H375 C399 0.979 . S
H376 C399 0.977 . S
C377 C365 1.453 1_565 S
C377 H406 0.982 . S
C377 H407 0.979 . S
C377 H408 0.977 . S
C378 C365 1.684 . S
C378 H403 0.979 . S
C378 H404 0.980 . S
C378 H405 0.983 . S
C379 C380 1.391 . S
C379 C384 1.391 . S
C379 H409 0.948 . S
C380 C379 1.391 . S
C380 C381 1.391 . S
C381 C380 1.391 . S
C381 C382 1.392 . S
C381 H410 0.947 . S
C382 C381 1.392 . S
C382 C383 1.419 . S
C382 H411 0.948 . S
C383 C382 1.419 . S
C383 C384 1.391 . S
C383 C387 1.397 1_545 S
C384 C379 1.391 . S
C384 C383 1.391 . S
C384 C385 1.399 . S
C385 C384 1.399 . S
C385 C386 1.394 1_545 S
C385 C388 1.453 1_545 S
C385 C389 1.684 . S
C386 C367 1.717 . S
C386 C385 1.394 1_565 S
C386 C387 1.390 . S
C387 C383 1.397 1_565 S
C387 C386 1.390 . S
C387 C397 1.728 . S
C388 C385 1.453 1_565 S
C388 H412 0.982 . S
C388 H413 0.979 . S
C388 H414 0.977 . S
C389 C385 1.684 . S
C389 H415 0.979 . S
C389 H416 0.980 . S
C389 H417 0.983 . S
C390 H366 0.948 . S
C390 C391 1.391 . S
C390 C395 1.391 . S
C391 C390 1.391 . S
C391 C392 1.391 . S
C392 H369 0.947 . S
C392 C391 1.391 . S
C392 C393 1.392 . S
C393 H370 0.948 . S
C393 C392 1.392 . S
C393 C394 1.419 . S
C394 C393 1.419 . S
C394 C395 1.391 . S
C394 C398 1.398 1_545 S
C395 C390 1.391 . S
C395 C394 1.391 . S
C395 C396 1.399 . S
C396 C395 1.399 . S
C396 C397 1.384 1_545 S
C396 C399 1.453 1_545 S
C396 C400 1.684 . S
C397 C387 1.728 . S
C397 C396 1.384 1_565 S
C397 C398 1.389 . S
C398 C368 1.720 . S
C398 C394 1.398 1_565 S
C398 C397 1.389 . S
C399 H371 0.982 . S
C399 H375 0.979 . S
C399 H376 0.977 . S
C399 C396 1.453 1_565 S
C400 H372 0.979 . S
C400 H373 0.980 . S
C400 H374 0.983 . S
C400 C396 1.684 . S
H401 C419 0.948 1_554 S
H402 C360 0.948 . S
H403 C378 0.979 . S
H404 C378 0.980 . S
H405 C378 0.983 . S
H406 C377 0.982 . S
H407 C377 0.979 . S
H408 C377 0.977 . S
H409 C379 0.948 . S
H410 C381 0.947 . S
H411 C382 0.948 . S
H412 C388 0.982 . S
H413 C388 0.979 . S
H414 C388 0.977 . S
H415 C389 0.979 . S
H416 C389 0.980 . S
H417 C389 0.983 . S
H418 C362 0.947 . S
C419 C362 1.392 . S
C419 C363 1.419 . S
C419 H401 0.948 1_556 S
C420 C421 1.391 . S
C420 C424 1.391 . S
C420 H462 0.948 . S
C421 C420 1.391 . S
C421 C422 1.391 . S
C422 C421 1.391 . S
C422 H478 0.947 . S
C422 C479 1.392 . S
C423 C424 1.391 . S
C423 C427 1.397 1_556 S
C423 C479 1.419 . S
C424 C420 1.391 . S
C424 C423 1.391 . S
C424 C425 1.399 . S
C425 C424 1.399 . S
C425 C428 1.396 1_556 S
C425 C437 1.453 . S
C425 C438 1.684 . S
H426 C450 0.948 . S
C427 C423 1.397 1_554 S
C427 C428 1.394 . S
C427 C446 1.723 . S
C428 C425 1.396 1_554 S
C428 C427 1.394 . S
C428 C458 1.723 . S
H429 C452 0.947 . S
H430 C453 0.948 . S
H431 C459 0.982 . S
H432 C460 0.979 . S
H433 C460 0.980 . S
H434 C460 0.983 . S
H435 C459 0.979 . S
H436 C459 0.977 . S
C437 C425 1.453 . S
C437 H466 0.982 . S
C437 H467 0.979 . S
C437 H468 0.977 . S
C438 C425 1.684 . S
C438 H463 0.979 . S
C438 H464 0.980 . S
C438 H465 0.983 . S
C439 C440 1.391 . S
C439 C444 1.391 . S
C439 H469 0.948 . S
C440 C439 1.391 . S
C440 C441 1.391 . S
C441 C440 1.391 . S
C441 C442 1.392 . S
C441 H470 0.947 . S
C442 C441 1.392 . S
C442 C443 1.419 . S
C442 H471 0.948 . S
C443 C442 1.419 . S
C443 C444 1.391 . S
C443 C447 1.397 . S
C444 C439 1.391 . S
C444 C443 1.391 . S
C444 C445 1.399 . S
C445 C444 1.399 . S
C445 C446 1.396 . S
C445 C448 1.453 . S
C445 C449 1.684 . S
C446 C427 1.723 . S
C446 C445 1.396 . S
C446 C447 1.394 . S
C447 C443 1.397 . S
C447 C446 1.394 . S
C447 C457 1.723 . S
C448 C445 1.453 . S
C448 H472 0.982 . S
C448 H473 0.979 . S
C448 H474 0.977 . S
C449 C445 1.684 . S
C449 H475 0.979 . S
C449 H476 0.980 . S
C449 H477 0.983 . S
C450 H426 0.948 . S
C450 C451 1.391 . S
C450 C455 1.391 . S
C451 C450 1.391 . S
C451 C452 1.391 . S
C452 H429 0.947 . S
C452 C451 1.391 . S
C452 C453 1.392 . S
C453 H430 0.948 . S
C453 C452 1.392 . S
C453 C454 1.419 . S
C454 C453 1.419 . S
C454 C455 1.391 . S
C454 C458 1.397 . S
C455 C450 1.391 . S
C455 C454 1.391 . S
C455 C456 1.399 . S
C456 C455 1.399 . S
C456 C457 1.396 . S
C456 C459 1.453 . S
C456 C460 1.684 . S
C457 C447 1.723 . S
C457 C456 1.396 . S
C457 C458 1.394 . S
C458 C428 1.723 . S
C458 C454 1.397 . S
C458 C457 1.394 . S
C459 H431 0.982 . S
C459 H435 0.979 . S
C459 H436 0.977 . S
C459 C456 1.453 . S
C460 H432 0.979 . S
C460 H433 0.980 . S
C460 H434 0.983 . S
C460 C456 1.684 . S
H461 C479 0.948 . S
H462 C420 0.948 . S
H463 C438 0.979 . S
H464 C438 0.980 . S
H465 C438 0.983 . S
H466 C437 0.982 . S
H467 C437 0.979 . S
H468 C437 0.977 . S
H469 C439 0.948 . S
H470 C441 0.947 . S
H471 C442 0.948 . S
H472 C448 0.982 . S
H473 C448 0.979 . S
H474 C448 0.977 . S
H475 C449 0.979 . S
H476 C449 0.980 . S
H477 C449 0.983 . S
H478 C422 0.947 . S
C479 C422 1.392 . S
C479 C423 1.419 . S
C479 H461 0.948 . S
Dy480 O484 2.398 . S
Dy480 O485 2.491 1_455 S
Dy480 O486 2.403 . S
Dy480 O487 2.664 1_565 S
Dy480 O491 2.326 . S
Dy480 O495 2.310 1_455 S
Dy480 O496 2.351 1_565 S
C481 O492 1.185 1_455 S
C481 O493 1.355 . S
C482 O484 1.185 . S
C482 O485 1.355 1_455 S
Dy483 O487 2.284 1_655 S
Dy483 O490 2.357 1_545 S
Dy483 O492 2.406 . S
Dy483 O493 2.473 1_655 S
Dy483 O494 2.430 . S
Dy483 O495 2.673 1_545 S
Dy483 O497 2.319 1_655 S
O484 Dy480 2.398 . S
O484 C482 1.185 . S
O485 Dy480 2.491 1_655 S
O485 C482 1.355 1_655 S
O486 Dy480 2.403 . S
O486 C488 1.254 . S
O487 Dy480 2.664 1_545 S
O487 Dy483 2.284 1_455 S
O487 C488 1.268 1_545 S
C488 O486 1.254 . S
C488 O487 1.268 1_565 S
C489 O494 1.254 . S
C489 O495 1.268 1_545 S
O490 Dy483 2.357 1_565 S
O490 C498 1.249 . S
O491 Dy480 2.326 . S
O491 C498 1.267 1_455 S
O492 C481 1.185 1_655 S
O492 Dy483 2.406 . S
O493 C481 1.355 . S
O493 Dy483 2.473 1_455 S
O494 Dy483 2.430 . S
O494 C489 1.254 . S
O495 Dy480 2.310 1_655 S
O495 Dy483 2.673 1_565 S
O495 C489 1.268 1_565 S
O496 Dy480 2.351 1_545 S
O496 C499 1.249 . S
O497 Dy483 2.319 1_455 S
O497 C499 1.267 . S
C498 O490 1.249 . S
C498 O491 1.267 1_655 S
C499 O496 1.249 . S
C499 O497 1.267 . S
Dy500 O504 2.398 . S
Dy500 O505 2.491 . S
Dy500 O506 2.403 . S
Dy500 O507 2.664 . S
Dy500 O511 2.326 1_565 S
Dy500 O515 2.310 1_565 S
Dy500 O516 2.351 . S
C501 O512 1.185 . S
C501 O513 1.355 . S
C502 O504 1.185 . S
C502 O505 1.355 . S
Dy503 O507 2.310 1_545 S
Dy503 O510 2.351 . S
Dy503 O512 2.398 . S
Dy503 O513 2.491 . S
Dy503 O514 2.403 . S
Dy503 O515 2.664 . S
Dy503 O517 2.326 1_545 S
O504 Dy500 2.398 . S
O504 C502 1.185 . S
O505 Dy500 2.491 . S
O505 C502 1.355 . S
O506 Dy500 2.403 . S
O506 C508 1.254 . S
O507 Dy500 2.664 . S
O507 Dy503 2.310 1_565 S
O507 C508 1.268 . S
C508 O506 1.254 . S
C508 O507 1.268 . S
C509 O514 1.254 . S
C509 O515 1.268 . S
O510 Dy503 2.351 . S
O510 C518 1.249 . S
O511 Dy500 2.326 1_545 S
O511 C518 1.267 . S
O512 C501 1.185 . S
O512 Dy503 2.398 . S
O513 C501 1.355 . S
O513 Dy503 2.491 . S
O514 Dy503 2.403 . S
O514 C509 1.254 . S
O515 Dy500 2.310 1_545 S
O515 Dy503 2.664 . S
O515 C509 1.268 . S
O516 Dy500 2.351 . S
O516 C519 1.249 . S
O517 Dy503 2.326 1_565 S
O517 C519 1.267 . S
C518 O510 1.249 . S
C518 O511 1.267 . S
C519 O516 1.249 . S
C519 O517 1.267 . S
Dy520 O524 2.398 . S
Dy520 O525 2.491 . S
Dy520 O526 2.403 . S
Dy520 O527 2.664 . S
Dy520 O531 2.326 . S
Dy520 O535 2.310 . S
Dy520 O536 2.351 . S
C521 O532 1.185 . S
C521 O533 1.355 . S
C522 O524 1.185 . S
C522 O525 1.355 . S
Dy523 O527 2.310 . S
Dy523 O530 2.351 . S
Dy523 O532 2.398 . S
Dy523 O533 2.491 . S
Dy523 O534 2.403 . S
Dy523 O535 2.664 . S
Dy523 O537 2.326 . S
O524 Dy520 2.398 . S
O524 C522 1.185 . S
O525 Dy520 2.491 . S
O525 C522 1.355 . S
O526 Dy520 2.403 . S
O526 C528 1.254 . S
O527 Dy520 2.664 . S
O527 Dy523 2.310 . S
O527 C528 1.268 . S
C528 O526 1.254 . S
C528 O527 1.268 . S
C529 O534 1.254 . S
C529 O535 1.268 . S
O530 Dy523 2.351 . S
O530 C538 1.249 . S
O531 Dy520 2.326 . S
O531 C538 1.267 . S
O532 C521 1.185 . S
O532 Dy523 2.398 . S
O533 C521 1.355 . S
O533 Dy523 2.491 . S
O534 Dy523 2.403 . S
O534 C529 1.254 . S
O535 Dy520 2.310 . S
O535 Dy523 2.664 . S
O535 C529 1.268 . S
O536 Dy520 2.351 . S
O536 C539 1.249 . S
O537 Dy523 2.326 . S
O537 C539 1.267 . S
C538 O530 1.249 . S
C538 O531 1.267 . S
C539 O536 1.249 . S
C539 O537 1.267 . S
Dy540 O544 2.398 . S
Dy540 O545 2.491 . S
Dy540 O546 2.403 1_655 S
Dy540 O547 2.664 1_655 S
Dy540 O551 2.326 . S
Dy540 O555 2.310 . S
Dy540 O556 2.351 1_655 S
C541 O552 1.185 . S
C541 O553 1.355 . S
C542 O544 1.185 . S
C542 O545 1.355 . S
Dy543 O547 2.310 . S
Dy543 O550 2.351 1_455 S
Dy543 O552 2.398 . S
Dy543 O553 2.491 . S
Dy543 O554 2.403 . S
Dy543 O555 2.664 1_455 S
Dy543 O557 2.326 . S
O544 Dy540 2.398 . S
O544 C542 1.185 . S
O545 Dy540 2.491 . S
O545 C542 1.355 . S
O546 Dy540 2.403 1_455 S
O546 C548 1.254 . S
O547 Dy540 2.664 1_455 S
O547 Dy543 2.310 . S
O547 C548 1.268 . S
C548 O546 1.254 . S
C548 O547 1.268 . S
C549 O554 1.254 1_655 S
C549 O555 1.268 . S
O550 Dy543 2.351 1_655 S
O550 C558 1.249 . S
O551 Dy540 2.326 . S
O551 C558 1.267 . S
O552 C541 1.185 . S
O552 Dy543 2.398 . S
O553 C541 1.355 . S
O553 Dy543 2.491 . S
O554 Dy543 2.403 . S
O554 C549 1.254 1_455 S
O555 Dy540 2.310 . S
O555 Dy543 2.664 1_655 S
O555 C549 1.268 . S
O556 Dy540 2.351 1_455 S
O556 C559 1.249 . S
O557 Dy543 2.326 . S
O557 C559 1.267 . S
C558 O550 1.249 . S
C558 O551 1.267 . S
C559 O556 1.249 . S
C559 O557 1.267 . S
C560 C561 1.346 1_545 S
C560 C562 1.327 . S
C560 H585 0.950 . S
C561 C560 1.346 1_565 S
C561 C577 1.352 . S
C562 C560 1.327 . S
C562 C581 1.429 1_545 S
C562 H586 0.950 . S
C563 C580 1.574 . S
C563 C582 1.368 . S
C563 H587 0.949 . S
H564 C568 0.949 . S
C565 C566 1.349 . S
C565 C567 1.327 . S
C565 H588 0.950 . S
C566 C565 1.349 . S
C566 C578 1.349 1_565 S
C567 C565 1.327 . S
C567 C583 1.429 . S
C567 H589 0.950 . S
C568 H564 0.949 . S
C568 C576 1.574 . S
C568 C584 1.368 1_545 S
H569 C577 0.950 . S
H570 C575 0.950 . S
H571 C576 0.949 . S
H572 C578 0.950 . S
H573 C579 0.950 . S
H574 C580 0.949 . S
C575 H570 0.950 . S
C575 C577 1.327 . S
C575 C581 1.429 . S
C576 C568 1.574 . S
C576 H571 0.949 . S
C576 C582 1.368 1_545 S
C577 C561 1.352 . S
C577 H569 0.950 . S
C577 C575 1.327 . S
C578 C566 1.349 1_545 S
C578 H572 0.950 . S
C578 C579 1.327 . S
C579 H573 0.950 . S
C579 C578 1.327 . S
C579 C583 1.429 1_545 S
C580 C563 1.574 . S
C580 H574 0.949 . S
C580 C584 1.368 . S
C581 C562 1.429 1_565 S
C581 C575 1.429 . S
C581 C582 1.523 . S
C582 C563 1.368 . S
C582 C576 1.368 1_565 S
C582 C581 1.523 . S
C583 C567 1.429 . S
C583 C579 1.429 1_565 S
C583 C584 1.523 . S
C584 C568 1.368 1_565 S
C584 C580 1.368 . S
C584 C583 1.523 . S
H585 C560 0.950 . S
H586 C562 0.950 . S
H587 C563 0.949 . S
H588 C565 0.950 . S
H589 C567 0.950 . S
C590 C591 1.349 . S
C590 C592 1.327 . S
C590 H615 0.950 . S
C591 C590 1.349 . S
C591 C607 1.349 . S
C592 C590 1.327 . S
C592 C611 1.429 . S
C592 H616 0.950 . S
C593 C610 1.574 . S
C593 C612 1.368 . S
C593 H617 0.949 . S
H594 C598 0.949 . S
C595 C596 1.349 . S
C595 C597 1.327 . S
C595 H618 0.950 . S
C596 C595 1.349 . S
C596 C608 1.349 . S
C597 C595 1.327 . S
C597 C613 1.429 . S
C597 H619 0.950 . S
C598 H594 0.949 . S
C598 C606 1.574 . S
C598 C614 1.368 . S
H599 C607 0.950 . S
H600 C605 0.950 . S
H601 C606 0.949 . S
H602 C608 0.950 . S
H603 C609 0.950 . S
H604 C610 0.949 . S
C605 H600 0.950 . S
C605 C607 1.327 . S
C605 C611 1.429 . S
C606 C598 1.574 . S
C606 H601 0.949 . S
C606 C612 1.368 . S
C607 C591 1.349 . S
C607 H599 0.950 . S
C607 C605 1.327 . S
C608 C596 1.349 . S
C608 H602 0.950 . S
C608 C609 1.327 . S
C609 H603 0.950 . S
C609 C608 1.327 . S
C609 C613 1.429 . S
C610 C593 1.574 . S
C610 H604 0.949 . S
C610 C614 1.368 . S
C611 C592 1.429 . S
C611 C605 1.429 . S
C611 C612 1.523 . S
C612 C593 1.368 . S
C612 C606 1.368 . S
C612 C611 1.523 . S
C613 C597 1.429 . S
C613 C609 1.429 . S
C613 C614 1.523 . S
C614 C598 1.368 . S
C614 C610 1.368 . S
C614 C613 1.523 . S
H615 C590 0.950 . S
H616 C592 0.950 . S
H617 C593 0.949 . S
H618 C595 0.950 . S
H619 C597 0.950 . S
C620 C621 1.349 . S
C620 C622 1.327 . S
C620 H645 0.950 . S
C621 C620 1.349 . S
C621 C637 1.349 . S
C622 C620 1.327 . S
C622 C641 1.429 . S
C622 H646 0.950 . S
C623 C640 1.574 . S
C623 C642 1.368 . S
C623 H647 0.949 . S
H624 C628 0.949 . S
C625 C626 1.349 . S
C625 C627 1.327 . S
C625 H648 0.950 . S
C626 C625 1.349 . S
C626 C638 1.349 . S
C627 C625 1.327 . S
C627 C643 1.429 . S
C627 H649 0.950 . S
C628 H624 0.949 . S
C628 C636 1.574 . S
C628 C644 1.368 . S
H629 C637 0.950 . S
H630 C635 0.950 . S
H631 C636 0.949 . S
H632 C638 0.950 . S
H633 C639 0.950 . S
H634 C640 0.949 . S
C635 H630 0.950 . S
C635 C637 1.327 . S
C635 C641 1.429 . S
C636 C628 1.574 . S
C636 H631 0.949 . S
C636 C642 1.368 . S
C637 C621 1.349 . S
C637 H629 0.950 . S
C637 C635 1.327 . S
C638 C626 1.349 . S
C638 H632 0.950 . S
C638 C639 1.327 . S
C639 H633 0.950 . S
C639 C638 1.327 . S
C639 C643 1.429 . S
C640 C623 1.574 . S
C640 H634 0.949 . S
C640 C644 1.368 . S
C641 C622 1.429 . S
C641 C635 1.429 . S
C641 C642 1.523 . S
C642 C623 1.368 . S
C642 C636 1.368 . S
C642 C641 1.523 . S
C643 C627 1.429 . S
C643 C639 1.429 . S
C643 C644 1.523 . S
C644 C628 1.368 . S
C644 C640 1.368 . S
C644 C643 1.523 . S
H645 C620 0.950 . S
H646 C622 0.950 . S
H647 C623 0.949 . S
H648 C625 0.950 . S
H649 C627 0.950 . S
C650 C651 1.349 . S
C650 C652 1.327 . S
C650 H675 0.950 . S
C651 C650 1.349 . S
C651 C667 1.349 . S
C652 C650 1.327 . S
C652 C671 1.429 . S
C652 H676 0.950 . S
C653 C670 1.574 . S
C653 C672 1.368 . S
C653 H677 0.949 . S
H654 C658 0.949 . S
C655 C656 1.349 . S
C655 C657 1.327 . S
C655 H678 0.950 . S
C656 C655 1.349 . S
C656 C668 1.349 . S
C657 C655 1.327 . S
C657 C673 1.429 . S
C657 H679 0.950 . S
C658 H654 0.949 . S
C658 C666 1.574 . S
C658 C674 1.368 . S
H659 C667 0.950 . S
H660 C665 0.950 . S
H661 C666 0.949 . S
H662 C668 0.950 . S
H663 C669 0.950 . S
H664 C670 0.949 . S
C665 H660 0.950 . S
C665 C667 1.327 . S
C665 C671 1.429 . S
C666 C658 1.574 . S
C666 H661 0.949 . S
C666 C672 1.368 . S
C667 C651 1.349 . S
C667 H659 0.950 . S
C667 C665 1.327 . S
C668 C656 1.349 . S
C668 H662 0.950 . S
C668 C669 1.327 . S
C669 H663 0.950 . S
C669 C668 1.327 . S
C669 C673 1.429 . S
C670 C653 1.574 . S
C670 H664 0.949 . S
C670 C674 1.368 . S
C671 C652 1.429 . S
C671 C665 1.429 . S
C671 C672 1.523 . S
C672 C653 1.368 . S
C672 C666 1.368 . S
C672 C671 1.523 . S
C673 C657 1.429 . S
C673 C669 1.429 . S
C673 C674 1.523 . S
C674 C658 1.368 . S
C674 C670 1.368 . S
C674 C673 1.523 . S
H675 C650 0.950 . S
H676 C652 0.950 . S
H677 C653 0.949 . S
H678 C655 0.950 . S
H679 C657 0.950 . S
C680 C681 1.361 . S
C680 C682 1.327 . S
C680 H705 0.950 . S
C681 C680 1.361 . S
C681 C697 1.336 1_545 S
C682 C680 1.327 . S
C682 C701 1.429 . S
C682 H706 0.950 . S
C683 C700 1.574 . S
C683 C702 1.368 1_565 S
C683 H707 0.949 . S
H684 C688 0.949 . S
C685 C686 1.349 1_565 S
C685 C687 1.327 . S
C685 H708 0.950 . S
C686 C685 1.349 1_545 S
C686 C698 1.349 . S
C687 C685 1.327 . S
C687 C703 1.429 1_565 S
C687 H709 0.950 . S
C688 H684 0.949 . S
C688 C696 1.574 . S
C688 C704 1.368 . S
H689 C697 0.950 . S
H690 C695 0.950 . S
H691 C696 0.949 . S
H692 C698 0.950 . S
H693 C699 0.950 . S
H694 C700 0.949 . S
C695 H690 0.950 . S
C695 C697 1.327 . S
C695 C701 1.429 1_565 S
C696 C688 1.574 . S
C696 H691 0.949 . S
C696 C702 1.368 . S
C697 C681 1.336 1_565 S
C697 H689 0.950 . S
C697 C695 1.327 . S
C698 C686 1.349 . S
C698 H692 0.950 . S
C698 C699 1.327 . S
C699 H693 0.950 . S
C699 C698 1.327 . S
C699 C703 1.429 . S
C700 C683 1.574 . S
C700 H694 0.949 . S
C700 C704 1.368 1_565 S
C701 C682 1.429 . S
C701 C695 1.429 1_545 S
C701 C702 1.523 . S
C702 C683 1.368 1_545 S
C702 C696 1.368 . S
C702 C701 1.523 . S
C703 C687 1.429 1_545 S
C703 C699 1.429 . S
C703 C704 1.523 . S
C704 C688 1.368 . S
C704 C700 1.368 1_545 S
C704 C703 1.523 . S
H705 C680 0.950 . S
H706 C682 0.950 . S
H707 C683 0.949 . S
H708 C685 0.950 . S
H709 C687 0.950 . S
C710 C711 1.349 . S
C710 C712 1.327 . S
C710 H735 0.950 . S
C711 C710 1.349 . S
C711 C727 1.349 . S
C712 C710 1.327 . S
C712 C731 1.429 . S
C712 H736 0.950 . S
C713 C730 1.574 . S
C713 C732 1.368 . S
C713 H737 0.949 . S
H714 C718 0.949 . S
C715 C716 1.349 . S
C715 C717 1.327 . S
C715 H738 0.950 . S
C716 C715 1.349 . S
C716 C728 1.349 . S
C717 C715 1.327 . S
C717 C733 1.429 . S
C717 H739 0.950 . S
C718 H714 0.949 . S
C718 C726 1.574 . S
C718 C734 1.368 . S
H719 C727 0.950 1_554 S
H720 C725 0.950 . S
H721 C726 0.949 . S
H722 C728 0.950 . S
H723 C729 0.950 . S
H724 C730 0.949 . S
C725 H720 0.950 . S
C725 C727 1.327 . S
C725 C731 1.429 . S
C726 C718 1.574 . S
C726 H721 0.949 . S
C726 C732 1.368 . S
C727 C711 1.349 . S
C727 H719 0.950 1_556 S
C727 C725 1.327 . S
C728 C716 1.349 . S
C728 H722 0.950 . S
C728 C729 1.327 . S
C729 H723 0.950 . S
C729 C728 1.327 . S
C729 C733 1.429 . S
C730 C713 1.574 . S
C730 H724 0.949 . S
C730 C734 1.368 . S
C731 C712 1.429 . S
C731 C725 1.429 . S
C731 C732 1.523 . S
C732 C713 1.368 . S
C732 C726 1.368 . S
C732 C731 1.523 . S
C733 C717 1.429 . S
C733 C729 1.429 . S
C733 C734 1.523 . S
C734 C718 1.368 . S
C734 C730 1.368 . S
C734 C733 1.523 . S
H735 C710 0.950 . S
H736 C712 0.950 . S
H737 C713 0.949 . S
H738 C715 0.950 . S
H739 C717 0.950 . S
C740 C741 1.349 . S
C740 C742 1.327 . S
C740 H765 0.950 . S
C741 C740 1.349 . S
C741 C757 1.349 . S
C742 C740 1.327 . S
C742 C761 1.429 . S
C742 H766 0.950 . S
C743 C760 1.574 . S
C743 C762 1.368 . S
C743 H767 0.949 . S
H744 C748 0.949 . S
C745 C746 1.349 . S
C745 C747 1.327 . S
C745 H768 0.950 . S
C746 C745 1.349 . S
C746 C758 1.349 . S
C747 C745 1.327 . S
C747 C763 1.429 . S
C747 H769 0.950 . S
C748 H744 0.949 . S
C748 C756 1.574 . S
C748 C764 1.368 . S
H749 C757 0.950 . S
H750 C755 0.950 . S
H751 C756 0.949 . S
H752 C758 0.950 . S
H753 C759 0.950 . S
H754 C760 0.949 . S
C755 H750 0.950 . S
C755 C757 1.327 . S
C755 C761 1.429 . S
C756 C748 1.574 . S
C756 H751 0.949 . S
C756 C762 1.368 . S
C757 C741 1.349 . S
C757 H749 0.950 . S
C757 C755 1.327 . S
C758 C746 1.349 . S
C758 H752 0.950 . S
C758 C759 1.327 . S
C759 H753 0.950 . S
C759 C758 1.327 . S
C759 C763 1.429 . S
C760 C743 1.574 . S
C760 H754 0.949 . S
C760 C764 1.368 . S
C761 C742 1.429 . S
C761 C755 1.429 . S
C761 C762 1.523 . S
C762 C743 1.368 . S
C762 C756 1.368 . S
C762 C761 1.523 . S
C763 C747 1.429 . S
C763 C759 1.429 . S
C763 C764 1.523 . S
C764 C748 1.368 . S
C764 C760 1.368 . S
C764 C763 1.523 . S
H765 C740 0.950 . S
H766 C742 0.950 . S
H767 C743 0.949 . S
H768 C745 0.950 . S
H769 C747 0.950 . S
C770 C771 1.349 . S
C770 C772 1.327 . S
C770 H795 0.950 . S
C771 C770 1.349 . S
C771 C787 1.349 . S
C772 C770 1.327 . S
C772 C791 1.429 . S
C772 H796 0.950 . S
C773 C790 1.574 . S
C773 C792 1.368 . S
C773 H797 0.949 . S
H774 C778 0.949 . S
C775 C776 1.349 . S
C775 C777 1.327 . S
C775 H798 0.950 1_655 S
C776 C775 1.349 . S
C776 C788 1.349 . S
C777 C775 1.327 . S
C777 C793 1.429 . S
C777 H799 0.950 . S
C778 H774 0.949 . S
C778 C786 1.574 . S
C778 C794 1.368 . S
H779 C787 0.950 . S
H780 C785 0.950 . S
H781 C786 0.949 . S
H782 C788 0.950 . S
H783 C789 0.950 . S
H784 C790 0.949 . S
C785 H780 0.950 . S
C785 C787 1.327 . S
C785 C791 1.429 . S
C786 C778 1.574 . S
C786 H781 0.949 . S
C786 C792 1.368 . S
C787 C771 1.349 . S
C787 H779 0.950 . S
C787 C785 1.327 . S
C788 C776 1.349 . S
C788 H782 0.950 . S
C788 C789 1.327 . S
C789 H783 0.950 . S
C789 C788 1.327 . S
C789 C793 1.429 . S
C790 C773 1.574 . S
C790 H784 0.949 . S
C790 C794 1.368 . S
C791 C772 1.429 . S
C791 C785 1.429 . S
C791 C792 1.523 . S
C792 C773 1.368 . S
C792 C786 1.368 . S
C792 C791 1.523 . S
C793 C777 1.429 . S
C793 C789 1.429 . S
C793 C794 1.523 . S
C794 C778 1.368 . S
C794 C790 1.368 . S
C794 C793 1.523 . S
H795 C770 0.950 . S
H796 C772 0.950 . S
H797 C773 0.949 . S
H798 C775 0.950 1_455 S
H799 C777 0.950 . S
C800 C801 1.349 . S
C800 C802 1.327 . S
C800 H825 0.950 . S
C801 C800 1.349 . S
C801 C817 1.349 . S
C802 C800 1.327 . S
C802 C821 1.429 . S
C802 H826 0.950 . S
C803 C820 1.574 . S
C803 C822 1.368 . S
C803 H827 0.949 . S
H804 C808 0.949 . S
C805 C806 1.349 . S
C805 C807 1.327 . S
C805 H828 0.950 . S
C806 C805 1.349 . S
C806 C818 1.349 . S
C807 C805 1.327 . S
C807 C823 1.429 . S
C807 H829 0.950 . S
C808 H804 0.949 . S
C808 C816 1.574 . S
C808 C824 1.368 . S
H809 C817 0.950 . S
H810 C815 0.950 . S
H811 C816 0.949 . S
H812 C818 0.950 . S
H813 C819 0.950 . S
H814 C820 0.949 . S
C815 H810 0.950 . S
C815 C817 1.327 . S
C815 C821 1.429 . S
C816 C808 1.574 . S
C816 H811 0.949 . S
C816 C822 1.368 . S
C817 C801 1.349 . S
C817 H809 0.950 . S
C817 C815 1.327 . S
C818 C806 1.349 . S
C818 H812 0.950 . S
C818 C819 1.327 . S
C819 H813 0.950 . S
C819 C818 1.327 . S
C819 C823 1.429 . S
C820 C803 1.574 . S
C820 H814 0.949 . S
C820 C824 1.368 . S
C821 C802 1.429 . S
C821 C815 1.429 . S
C821 C822 1.523 . S
C822 C803 1.368 . S
C822 C816 1.368 . S
C822 C821 1.523 . S
C823 C807 1.429 . S
C823 C819 1.429 . S
C823 C824 1.523 . S
C824 C808 1.368 . S
C824 C820 1.368 . S
C824 C823 1.523 . S
H825 C800 0.950 . S
H826 C802 0.950 . S
H827 C803 0.949 . S
H828 C805 0.950 . S
H829 C807 0.950 . S
C830 C831 1.349 1_565 S
C830 C832 1.327 . S
C830 H855 0.950 . S
C831 C830 1.349 1_545 S
C831 C847 1.349 . S
C832 C830 1.327 . S
C832 C851 1.429 . S
C832 H856 0.950 . S
C833 C850 1.574 . S
C833 C852 1.368 1_545 S
C833 H857 0.949 . S
H834 C838 0.949 . S
C835 C836 1.349 1_545 S
C835 C837 1.327 . S
C835 H858 0.950 . S
C836 C835 1.349 1_565 S
C836 C848 1.349 . S
C837 C835 1.327 . S
C837 C853 1.429 1_545 S
C837 H859 0.950 . S
C838 H834 0.949 . S
C838 C846 1.574 . S
C838 C854 1.368 . S
H839 C847 0.950 . S
H840 C845 0.950 . S
H841 C846 0.949 . S
H842 C848 0.950 . S
H843 C849 0.950 . S
H844 C850 0.949 . S
C845 H840 0.950 . S
C845 C847 1.327 . S
C845 C851 1.429 1_545 S
C846 C838 1.574 . S
C846 H841 0.949 . S
C846 C852 1.368 . S
C847 C831 1.349 . S
C847 H839 0.950 . S
C847 C845 1.327 . S
C848 C836 1.349 . S
C848 H842 0.950 . S
C848 C849 1.327 . S
C849 H843 0.950 . S
C849 C848 1.327 . S
C849 C853 1.429 . S
C850 C833 1.574 . S
C850 H844 0.949 . S
C850 C854 1.368 1_545 S
C851 C832 1.429 . S
C851 C845 1.429 1_565 S
C851 C852 1.523 . S
C852 C833 1.368 1_565 S
C852 C846 1.368 . S
C852 C851 1.523 . S
C853 C837 1.429 1_565 S
C853 C849 1.429 . S
C853 C854 1.523 . S
C854 C838 1.368 . S
C854 C850 1.368 1_565 S
C854 C853 1.523 . S
H855 C830 0.950 . S
H856 C832 0.950 . S
H857 C833 0.949 . S
H858 C835 0.950 . S
H859 C837 0.950 . S
C860 C861 1.349 . S
C860 C862 1.327 . S
C860 H885 0.950 . S
C861 C860 1.349 . S
C861 C877 1.349 . S
C862 C860 1.327 . S
C862 C881 1.429 . S
C862 H886 0.950 . S
C863 C880 1.574 . S
C863 C882 1.368 . S
C863 H887 0.949 . S
H864 C868 0.949 . S
C865 C866 1.349 . S
C865 C867 1.327 . S
C865 H888 0.950 . S
C866 C865 1.349 . S
C866 C878 1.349 . S
C867 C865 1.327 . S
C867 C883 1.429 . S
C867 H889 0.950 . S
C868 H864 0.949 . S
C868 C876 1.574 . S
C868 C884 1.368 . S
H869 C877 0.950 . S
H870 C875 0.950 . S
H871 C876 0.949 . S
H872 C878 0.950 . S
H873 C879 0.950 . S
H874 C880 0.949 . S
C875 H870 0.950 . S
C875 C877 1.327 . S
C875 C881 1.429 . S
C876 C868 1.574 . S
C876 H871 0.949 . S
C876 C882 1.368 . S
C877 C861 1.349 . S
C877 H869 0.950 . S
C877 C875 1.327 . S
C878 C866 1.349 . S
C878 H872 0.950 . S
C878 C879 1.327 . S
C879 H873 0.950 . S
C879 C878 1.327 . S
C879 C883 1.429 . S
C880 C863 1.574 . S
C880 H874 0.949 . S
C880 C884 1.368 . S
C881 C862 1.429 . S
C881 C875 1.429 . S
C881 C882 1.523 . S
C882 C863 1.368 . S
C882 C876 1.368 . S
C882 C881 1.523 . S
C883 C867 1.429 . S
C883 C879 1.429 . S
C883 C884 1.523 . S
C884 C868 1.368 . S
C884 C880 1.368 . S
C884 C883 1.523 . S
H885 C860 0.950 . S
H886 C862 0.950 . S
H887 C863 0.949 . S
H888 C865 0.950 . S
H889 C867 0.950 . S
C890 C891 1.349 . S
C890 C892 1.327 . S
C890 H915 0.950 . S
C891 C890 1.349 . S
C891 C907 1.349 . S
C892 C890 1.327 . S
C892 C911 1.429 . S
C892 H916 0.950 . S
C893 C910 1.574 . S
C893 C912 1.368 . S
C893 H917 0.949 . S
H894 C898 0.949 . S
C895 C896 1.349 . S
C895 C897 1.327 . S
C895 H918 0.950 . S
C896 C895 1.349 . S
C896 C908 1.349 . S
C897 C895 1.327 . S
C897 C913 1.429 . S
C897 H919 0.950 . S
C898 H894 0.949 . S
C898 C906 1.574 . S
C898 C914 1.368 . S
H899 C907 0.950 . S
H900 C905 0.950 . S
H901 C906 0.949 . S
H902 C908 0.950 . S
H903 C909 0.950 . S
H904 C910 0.949 . S
C905 H900 0.950 . S
C905 C907 1.327 . S
C905 C911 1.429 . S
C906 C898 1.574 . S
C906 H901 0.949 . S
C906 C912 1.368 . S
C907 C891 1.349 . S
C907 H899 0.950 . S
C907 C905 1.327 . S
C908 C896 1.349 . S
C908 H902 0.950 . S
C908 C909 1.327 . S
C909 H903 0.950 . S
C909 C908 1.327 . S
C909 C913 1.429 . S
C910 C893 1.574 . S
C910 H904 0.949 . S
C910 C914 1.368 . S
C911 C892 1.429 . S
C911 C905 1.429 . S
C911 C912 1.523 . S
C912 C893 1.368 . S
C912 C906 1.368 . S
C912 C911 1.523 . S
C913 C897 1.429 . S
C913 C909 1.429 . S
C913 C914 1.523 . S
C914 C898 1.368 . S
C914 C910 1.368 . S
C914 C913 1.523 . S
H915 C890 0.950 . S
H916 C892 0.950 . S
H917 C893 0.949 . S
H918 C895 0.950 . S
H919 C897 0.950 . S
C920 C921 1.349 . S
C920 C922 1.327 . S
C920 H945 0.950 . S
C921 C920 1.349 . S
C921 C937 1.349 . S
C922 C920 1.327 . S
C922 C941 1.429 . S
C922 H946 0.950 . S
C923 C940 1.574 . S
C923 C942 1.368 . S
C923 H947 0.949 . S
H924 C928 0.949 . S
C925 C926 1.357 . S
C925 C927 1.327 1_455 S
C925 H948 0.950 . S
C926 C925 1.357 . S
C926 C938 1.327 1_455 S
C927 C925 1.327 1_655 S
C927 C943 1.429 . S
C927 H949 0.950 . S
C928 H924 0.949 . S
C928 C936 1.574 . S
C928 C944 1.368 . S
H929 C937 0.950 . S
H930 C935 0.950 . S
H931 C936 0.949 . S
H932 C938 0.950 . S
H933 C939 0.950 . S
H934 C940 0.949 . S
C935 H930 0.950 . S
C935 C937 1.327 . S
C935 C941 1.429 . S
C936 C928 1.574 . S
C936 H931 0.949 . S
C936 C942 1.368 . S
C937 C921 1.349 . S
C937 H929 0.950 . S
C937 C935 1.327 . S
C938 C926 1.327 1_655 S
C938 H932 0.950 . S
C938 C939 1.327 . S
C939 H933 0.950 . S
C939 C938 1.327 . S
C939 C943 1.429 . S
C940 C923 1.574 . S
C940 H934 0.949 . S
C940 C944 1.368 . S
C941 C922 1.429 . S
C941 C935 1.429 . S
C941 C942 1.523 . S
C942 C923 1.368 . S
C942 C936 1.368 . S
C942 C941 1.523 . S
C943 C927 1.429 . S
C943 C939 1.429 . S
C943 C944 1.523 . S
C944 C928 1.368 . S
C944 C940 1.368 . S
C944 C943 1.523 . S
H945 C920 0.950 . S
H946 C922 0.950 . S
H947 C923 0.949 . S
H948 C925 0.950 . S
H949 C927 0.950 . S
C950 C951 1.299 1_545 S
C950 C952 1.327 . S
C950 H975 0.950 . S
C951 C950 1.299 1_565 S
C951 C967 1.390 . S
C952 C950 1.327 . S
C952 C971 1.429 . S
C952 H976 0.950 . S
C953 C970 1.574 . S
C953 C972 1.368 1_565 S
C953 H977 0.949 . S
H954 C958 0.949 . S
C955 C956 1.349 1_565 S
C955 C957 1.327 . S
C955 H978 0.950 . S
C956 C955 1.349 1_545 S
C956 C968 1.349 . S
C957 C955 1.327 . S
C957 C973 1.429 1_565 S
C957 H979 0.950 . S
C958 H954 0.949 . S
C958 C966 1.574 . S
C958 C974 1.368 . S
H959 C967 0.950 . S
H960 C965 0.950 . S
H961 C966 0.949 . S
H962 C968 0.950 . S
H963 C969 0.950 . S
H964 C970 0.949 . S
C965 H960 0.950 . S
C965 C967 1.327 . S
C965 C971 1.429 1_565 S
C966 C958 1.574 . S
C966 H961 0.949 . S
C966 C972 1.368 . S
C967 C951 1.390 . S
C967 H959 0.950 . S
C967 C965 1.327 . S
C968 C956 1.349 . S
C968 H962 0.950 . S
C968 C969 1.327 . S
C969 H963 0.950 . S
C969 C968 1.327 . S
C969 C973 1.429 . S
C970 C953 1.574 . S
C970 H964 0.949 . S
C970 C974 1.368 1_565 S
C971 C952 1.429 . S
C971 C965 1.429 1_545 S
C971 C972 1.523 . S
C972 C953 1.368 1_545 S
C972 C966 1.368 . S
C972 C971 1.523 . S
C973 C957 1.429 1_545 S
C973 C969 1.429 . S
C973 C974 1.523 . S
C974 C958 1.368 . S
C974 C970 1.368 1_545 S
C974 C973 1.523 . S
H975 C950 0.950 . S
H976 C952 0.950 . S
H977 C953 0.949 . S
H978 C955 0.950 . S
H979 C957 0.950 . S
C980 C981 1.349 . S
C980 C982 1.327 . S
C980 H1005 0.950 . S
C981 C980 1.349 . S
C981 C997 1.349 . S
C982 C980 1.327 . S
C982 C1001 1.429 . S
C982 H1006 0.950 . S
C983 C1000 1.574 . S
C983 C1002 1.368 . S
C983 H1007 0.949 . S
H984 C988 0.949 . S
C985 C986 1.349 . S
C985 C987 1.327 . S
C985 H1008 0.950 . S
C986 C985 1.349 . S
C986 C998 1.349 . S
C987 C985 1.327 . S
C987 C1003 1.429 . S
C987 H1009 0.950 . S
C988 H984 0.949 . S
C988 C996 1.574 . S
C988 C1004 1.368 . S
H989 C997 0.950 . S
H990 C995 0.950 . S
H991 C996 0.949 . S
H992 C998 0.950 . S
H993 C999 0.950 . S
H994 C1000 0.949 . S
C995 H990 0.950 . S
C995 C997 1.327 . S
C995 C1001 1.429 . S
C996 C988 1.574 . S
C996 H991 0.949 . S
C996 C1002 1.368 . S
C997 C981 1.349 . S
C997 H989 0.950 . S
C997 C995 1.327 . S
C998 C986 1.349 . S
C998 H992 0.950 . S
C998 C999 1.327 . S
C999 H993 0.950 . S
C999 C998 1.327 . S
C999 C1003 1.429 . S
C1000 C983 1.574 . S
C1000 H994 0.949 . S
C1000 C1004 1.368 . S
C1001 C982 1.429 . S
C1001 C995 1.429 . S
C1001 C1002 1.523 . S
C1002 C983 1.368 . S
C1002 C996 1.368 . S
C1002 C1001 1.523 . S
C1003 C987 1.429 . S
C1003 C999 1.429 . S
C1003 C1004 1.523 . S
C1004 C988 1.368 . S
C1004 C1000 1.368 . S
C1004 C1003 1.523 . S
H1005 C980 0.950 . S
H1006 C982 0.950 . S
H1007 C983 0.949 . S
H1008 C985 0.950 . S
H1009 C987 0.950 . S
C1010 C1011 1.349 . S
C1010 C1012 1.327 . S
C1010 H1035 0.950 . S
C1011 C1010 1.349 . S
C1011 C1027 1.349 . S
C1012 C1010 1.327 . S
C1012 C1031 1.429 . S
C1012 H1036 0.950 . S
C1013 C1030 1.574 . S
C1013 C1032 1.368 . S
C1013 H1037 0.949 . S
H1014 C1018 0.949 . S
C1015 C1016 1.349 . S
C1015 C1017 1.327 . S
C1015 H1038 0.950 . S
C1016 C1015 1.349 . S
C1016 C1028 1.349 . S
C1017 C1015 1.327 . S
C1017 C1033 1.429 . S
C1017 H1039 0.950 . S
C1018 H1014 0.949 . S
C1018 C1026 1.574 . S
C1018 C1034 1.368 . S
H1019 C1027 0.950 . S
H1020 C1025 0.950 . S
H1021 C1026 0.949 . S
H1022 C1028 0.950 . S
H1023 C1029 0.950 . S
H1024 C1030 0.949 . S
C1025 H1020 0.950 . S
C1025 C1027 1.327 . S
C1025 C1031 1.429 . S
C1026 C1018 1.574 . S
C1026 H1021 0.949 . S
C1026 C1032 1.368 . S
C1027 C1011 1.349 . S
C1027 H1019 0.950 . S
C1027 C1025 1.327 . S
C1028 C1016 1.349 . S
C1028 H1022 0.950 . S
C1028 C1029 1.327 . S
C1029 H1023 0.950 . S
C1029 C1028 1.327 . S
C1029 C1033 1.429 . S
C1030 C1013 1.574 . S
C1030 H1024 0.949 . S
C1030 C1034 1.368 . S
C1031 C1012 1.429 . S
C1031 C1025 1.429 . S
C1031 C1032 1.523 . S
C1032 C1013 1.368 . S
C1032 C1026 1.368 . S
C1032 C1031 1.523 . S
C1033 C1017 1.429 . S
C1033 C1029 1.429 . S
C1033 C1034 1.523 . S
C1034 C1018 1.368 . S
C1034 C1030 1.368 . S
C1034 C1033 1.523 . S
H1035 C1010 0.950 . S
H1036 C1012 0.950 . S
H1037 C1013 0.949 . S
H1038 C1015 0.950 . S
H1039 C1017 0.950 . S
C1040 C1041 1.349 . S
C1040 C1042 1.327 . S
C1040 H1065 0.950 . S
C1041 C1040 1.349 . S
C1041 C1057 1.349 . S
C1042 C1040 1.327 . S
C1042 C1061 1.429 . S
C1042 H1066 0.950 . S
C1043 C1060 1.574 . S
C1043 C1062 1.368 . S
C1043 H1067 0.949 . S
H1044 C1048 0.949 . S
C1045 C1046 1.349 . S
C1045 C1047 1.327 . S
C1045 H1068 0.950 . S
C1046 C1045 1.349 . S
C1046 C1058 1.349 . S
C1047 C1045 1.327 . S
C1047 C1063 1.429 . S
C1047 H1069 0.950 . S
C1048 H1044 0.949 . S
C1048 C1056 1.574 . S
C1048 C1064 1.368 . S
H1049 C1057 0.950 . S
H1050 C1055 0.950 . S
H1051 C1056 0.949 . S
H1052 C1058 0.950 . S
H1053 C1059 0.950 . S
H1054 C1060 0.949 . S
C1055 H1050 0.950 . S
C1055 C1057 1.327 . S
C1055 C1061 1.429 . S
C1056 C1048 1.574 . S
C1056 H1051 0.949 . S
C1056 C1062 1.368 . S
C1057 C1041 1.349 . S
C1057 H1049 0.950 . S
C1057 C1055 1.327 . S
C1058 C1046 1.349 . S
C1058 H1052 0.950 . S
C1058 C1059 1.327 . S
C1059 H1053 0.950 . S
C1059 C1058 1.327 . S
C1059 C1063 1.429 . S
C1060 C1043 1.574 . S
C1060 H1054 0.949 . S
C1060 C1064 1.368 . S
C1061 C1042 1.429 . S
C1061 C1055 1.429 . S
C1061 C1062 1.523 . S
C1062 C1043 1.368 . S
C1062 C1056 1.368 . S
C1062 C1061 1.523 . S
C1063 C1047 1.429 . S
C1063 C1059 1.429 . S
C1063 C1064 1.523 . S
C1064 C1048 1.368 . S
C1064 C1060 1.368 . S
C1064 C1063 1.523 . S
H1065 C1040 0.950 . S
H1066 C1042 0.950 . S
H1067 C1043 0.949 . S
H1068 C1045 0.950 . S
H1069 C1047 0.950 . S
C1070 C1071 1.335 1_565 S
C1070 C1072 1.327 . S
C1070 H1095 0.950 . S
C1071 C1070 1.335 1_545 S
C1071 C1087 1.362 . S
C1072 C1070 1.327 . S
C1072 C1091 1.429 1_565 S
C1072 H1096 0.950 . S
C1073 C1090 1.574 . S
C1073 C1092 1.368 . S
C1073 H1097 0.949 . S
H1074 C1078 0.949 . S
C1075 C1076 1.349 . S
C1075 C1077 1.327 . S
C1075 H1098 0.950 . S
C1076 C1075 1.349 . S
C1076 C1088 1.349 1_545 S
C1077 C1075 1.327 . S
C1077 C1093 1.429 . S
C1077 H1099 0.950 . S
C1078 H1074 0.949 . S
C1078 C1086 1.574 . S
C1078 C1094 1.368 1_565 S
H1079 C1087 0.950 . S
H1080 C1085 0.950 . S
H1081 C1086 0.949 . S
H1082 C1088 0.950 . S
H1083 C1089 0.950 . S
H1084 C1090 0.949 . S
C1085 H1080 0.950 . S
C1085 C1087 1.327 . S
C1085 C1091 1.429 . S
C1086 C1078 1.574 . S
C1086 H1081 0.949 . S
C1086 C1092 1.368 1_565 S
C1087 C1071 1.362 . S
C1087 H1079 0.950 . S
C1087 C1085 1.327 . S
C1088 C1076 1.349 1_565 S
C1088 H1082 0.950 . S
C1088 C1089 1.327 . S
C1089 H1083 0.950 . S
C1089 C1088 1.327 . S
C1089 C1093 1.429 1_565 S
C1090 C1073 1.574 . S
C1090 H1084 0.949 . S
C1090 C1094 1.368 . S
C1091 C1072 1.429 1_545 S
C1091 C1085 1.429 . S
C1091 C1092 1.523 . S
C1092 C1073 1.368 . S
C1092 C1086 1.368 1_545 S
C1092 C1091 1.523 . S
C1093 C1077 1.429 . S
C1093 C1089 1.429 1_545 S
C1093 C1094 1.523 . S
C1094 C1078 1.368 1_545 S
C1094 C1090 1.368 . S
C1094 C1093 1.523 . S
H1095 C1070 0.950 . S
H1096 C1072 0.950 . S
H1097 C1073 0.949 . S
H1098 C1075 0.950 . S
H1099 C1077 0.950 . S
C1100 C1101 1.349 . S
C1100 C1102 1.327 . S
C1100 H1125 0.950 . S
C1101 C1100 1.349 . S
C1101 C1117 1.349 . S
C1102 C1100 1.327 . S
C1102 C1121 1.429 . S
C1102 H1126 0.950 . S
C1103 C1120 1.574 . S
C1103 C1122 1.368 . S
C1103 H1127 0.949 . S
H1104 C1108 0.949 . S
C1105 C1106 1.349 . S
C1105 C1107 1.327 . S
C1105 H1128 0.950 . S
C1106 C1105 1.349 . S
C1106 C1118 1.349 . S
C1107 C1105 1.327 . S
C1107 C1123 1.429 . S
C1107 H1129 0.950 . S
C1108 H1104 0.949 . S
C1108 C1116 1.574 . S
C1108 C1124 1.368 . S
H1109 C1117 0.950 . S
H1110 C1115 0.950 . S
H1111 C1116 0.949 . S
H1112 C1118 0.950 . S
H1113 C1119 0.950 . S
H1114 C1120 0.949 . S
C1115 H1110 0.950 . S
C1115 C1117 1.327 . S
C1115 C1121 1.429 . S
C1116 C1108 1.574 . S
C1116 H1111 0.949 . S
C1116 C1122 1.368 . S
C1117 C1101 1.349 . S
C1117 H1109 0.950 . S
C1117 C1115 1.327 . S
C1118 C1106 1.349 . S
C1118 H1112 0.950 . S
C1118 C1119 1.327 . S
C1119 H1113 0.950 . S
C1119 C1118 1.327 . S
C1119 C1123 1.429 . S
C1120 C1103 1.574 . S
C1120 H1114 0.949 . S
C1120 C1124 1.368 . S
C1121 C1102 1.429 . S
C1121 C1115 1.429 . S
C1121 C1122 1.523 . S
C1122 C1103 1.368 . S
C1122 C1116 1.368 . S
C1122 C1121 1.523 . S
C1123 C1107 1.429 . S
C1123 C1119 1.429 . S
C1123 C1124 1.523 . S
C1124 C1108 1.368 . S
C1124 C1120 1.368 . S
C1124 C1123 1.523 . S
H1125 C1100 0.950 . S
H1126 C1102 0.950 . S
H1127 C1103 0.949 . S
H1128 C1105 0.950 . S
H1129 C1107 0.950 . S
C1130 C1131 1.349 . S
C1130 C1132 1.327 . S
C1130 H1155 0.950 . S
C1131 C1130 1.349 . S
C1131 C1147 1.349 . S
C1132 C1130 1.327 . S
C1132 C1151 1.429 . S
C1132 H1156 0.950 . S
C1133 C1150 1.574 . S
C1133 C1152 1.368 . S
C1133 H1157 0.949 . S
H1134 C1138 0.949 . S
C1135 C1136 1.349 . S
C1135 C1137 1.327 . S
C1135 H1158 0.950 . S
C1136 C1135 1.349 . S
C1136 C1148 1.349 . S
C1137 C1135 1.327 . S
C1137 C1153 1.429 . S
C1137 H1159 0.950 . S
C1138 H1134 0.949 . S
C1138 C1146 1.574 . S
C1138 C1154 1.368 . S
H1139 C1147 0.950 . S
H1140 C1145 0.950 . S
H1141 C1146 0.949 . S
H1142 C1148 0.950 . S
H1143 C1149 0.950 . S
H1144 C1150 0.949 . S
C1145 H1140 0.950 . S
C1145 C1147 1.327 . S
C1145 C1151 1.429 . S
C1146 C1138 1.574 . S
C1146 H1141 0.949 . S
C1146 C1152 1.368 . S
C1147 C1131 1.349 . S
C1147 H1139 0.950 . S
C1147 C1145 1.327 . S
C1148 C1136 1.349 . S
C1148 H1142 0.950 . S
C1148 C1149 1.327 . S
C1149 H1143 0.950 . S
C1149 C1148 1.327 . S
C1149 C1153 1.429 . S
C1150 C1133 1.574 . S
C1150 H1144 0.949 . S
C1150 C1154 1.368 . S
C1151 C1132 1.429 . S
C1151 C1145 1.429 . S
C1151 C1152 1.523 . S
C1152 C1133 1.368 . S
C1152 C1146 1.368 . S
C1152 C1151 1.523 . S
C1153 C1137 1.429 . S
C1153 C1149 1.429 . S
C1153 C1154 1.523 . S
C1154 C1138 1.368 . S
C1154 C1150 1.368 . S
C1154 C1153 1.523 . S
H1155 C1130 0.950 . S
H1156 C1132 0.950 . S
H1157 C1133 0.949 . S
H1158 C1135 0.950 . S
H1159 C1137 0.950 . S
C1160 C1161 1.349 . S
C1160 C1162 1.327 . S
C1160 H1185 0.950 . S
C1161 C1160 1.349 . S
C1161 C1177 1.349 . S
C1162 C1160 1.327 . S
C1162 C1181 1.429 . S
C1162 H1186 0.950 . S
C1163 C1180 1.574 . S
C1163 C1182 1.368 . S
C1163 H1187 0.949 . S
H1164 C1168 0.949 . S
C1165 C1166 1.349 . S
C1165 C1167 1.327 . S
C1165 H1188 0.950 . S
C1166 C1165 1.349 . S
C1166 C1178 1.349 . S
C1167 C1165 1.327 . S
C1167 C1183 1.429 . S
C1167 H1189 0.950 . S
C1168 H1164 0.949 . S
C1168 C1176 1.574 . S
C1168 C1184 1.368 . S
H1169 C1177 0.950 . S
H1170 C1175 0.950 . S
H1171 C1176 0.949 . S
H1172 C1178 0.997 . S
H1173 C1179 0.950 . S
H1174 C1180 0.949 . S
C1175 H1170 0.950 . S
C1175 C1177 1.327 . S
C1175 C1181 1.429 . S
C1176 C1168 1.574 . S
C1176 H1171 0.949 . S
C1176 C1182 1.368 . S
C1177 C1161 1.349 . S
C1177 H1169 0.950 . S
C1177 C1175 1.327 . S
C1178 C1166 1.349 . S
C1178 H1172 0.997 . S
C1178 C1179 1.327 . S
C1179 H1173 0.950 . S
C1179 C1178 1.327 . S
C1179 C1183 1.429 . S
C1180 C1163 1.574 . S
C1180 H1174 0.949 . S
C1180 C1184 1.368 . S
C1181 C1162 1.429 . S
C1181 C1175 1.429 . S
C1181 C1182 1.523 . S
C1182 C1163 1.368 . S
C1182 C1176 1.368 . S
C1182 C1181 1.523 . S
C1183 C1167 1.429 . S
C1183 C1179 1.429 . S
C1183 C1184 1.523 . S
C1184 C1168 1.368 . S
C1184 C1180 1.368 . S
C1184 C1183 1.523 . S
H1185 C1160 0.950 . S
H1186 C1162 0.950 . S
H1187 C1163 0.949 . S
H1188 C1165 0.950 . S
H1189 C1167 0.950 . S
C1190 C1191 1.348 1_545 S
C1190 C1192 1.327 . S
C1190 H1215 0.950 . S
C1191 C1190 1.348 1_565 S
C1191 C1207 1.350 . S
C1192 C1190 1.327 . S
C1192 C1211 1.423 1_545 S
C1192 H1216 0.950 . S
C1193 C1210 1.574 . S
C1193 C1212 1.368 . S
C1193 H1217 0.949 . S
H1194 C1198 0.952 . S
C1195 C1196 1.349 . S
C1195 C1197 1.327 . S
C1195 H1218 0.950 . S
C1196 C1195 1.349 . S
C1196 C1208 1.358 . S
C1197 C1195 1.327 . S
C1197 C1213 1.429 . S
C1197 H1219 0.950 . S
C1198 H1194 0.952 . S
C1198 C1206 1.576 . S
C1198 C1214 1.367 1_545 S
H1199 C1207 0.950 . S
H1200 C1205 0.950 . S
H1201 C1206 0.955 . S
H1202 C1208 0.938 1_545 S
H1203 C1209 0.946 1_545 S
H1204 C1210 0.949 . S
C1205 H1200 0.950 . S
C1205 C1207 1.327 . S
C1205 C1211 1.441 . S
C1206 C1198 1.576 . S
C1206 H1201 0.955 . S
C1206 C1212 1.361 1_545 S
C1207 C1191 1.350 . S
C1207 H1199 0.950 . S
C1207 C1205 1.327 . S
C1208 C1196 1.358 . S
C1208 H1202 0.938 1_565 S
C1208 C1209 1.329 . S
C1209 H1203 0.946 1_565 S
C1209 C1208 1.329 . S
C1209 C1213 1.435 . S
C1210 C1193 1.574 . S
C1210 H1204 0.949 . S
C1210 C1214 1.368 . S
C1211 C1192 1.423 1_565 S
C1211 C1205 1.441 . S
C1211 C1212 1.520 . S
C1212 C1193 1.368 . S
C1212 C1206 1.361 1_565 S
C1212 C1211 1.520 . S
C1213 C1197 1.429 . S
C1213 C1209 1.435 . S
C1213 C1214 1.523 . S
C1214 C1198 1.367 1_565 S
C1214 C1210 1.368 . S
C1214 C1213 1.523 . S
H1215 C1190 0.950 . S
H1216 C1192 0.950 . S
H1217 C1193 0.949 . S
H1218 C1195 0.950 . S
H1219 C1197 0.950 . S
C1220 C1221 1.349 . S
C1220 C1222 1.327 . S
C1220 H1245 0.950 . S
C1221 C1220 1.349 . S
C1221 C1237 1.349 . S
C1222 C1220 1.327 . S
C1222 C1241 1.429 . S
C1222 H1246 0.950 . S
C1223 C1240 1.574 . S
C1223 C1242 1.368 . S
C1223 H1247 0.949 . S
H1224 C1228 0.949 . S
C1225 C1226 1.349 . S
C1225 C1227 1.327 . S
C1225 H1248 0.950 . S
C1226 C1225 1.349 . S
C1226 C1238 1.349 . S
C1227 C1225 1.327 . S
C1227 C1243 1.429 . S
C1227 H1249 0.950 . S
C1228 H1224 0.949 . S
C1228 C1236 1.574 . S
C1228 C1244 1.368 . S
H1229 C1237 0.950 . S
H1230 C1235 0.950 . S
H1231 C1236 0.949 . S
H1232 C1238 0.950 . S
H1233 C1239 0.950 . S
H1234 C1240 0.949 . S
C1235 H1230 0.950 . S
C1235 C1237 1.327 . S
C1235 C1241 1.429 . S
C1236 C1228 1.574 . S
C1236 H1231 0.949 . S
C1236 C1242 1.368 . S
C1237 C1221 1.349 . S
C1237 H1229 0.950 . S
C1237 C1235 1.327 . S
C1238 C1226 1.349 . S
C1238 H1232 0.950 . S
C1238 C1239 1.327 . S
C1239 H1233 0.950 . S
C1239 C1238 1.327 . S
C1239 C1243 1.429 . S
C1240 C1223 1.574 . S
C1240 H1234 0.949 . S
C1240 C1244 1.368 . S
C1241 C1222 1.429 . S
C1241 C1235 1.429 . S
C1241 C1242 1.523 . S
C1242 C1223 1.368 . S
C1242 C1236 1.368 . S
C1242 C1241 1.523 . S
C1243 C1227 1.429 . S
C1243 C1239 1.429 . S
C1243 C1244 1.523 . S
C1244 C1228 1.368 . S
C1244 C1240 1.368 . S
C1244 C1243 1.523 . S
H1245 C1220 0.950 . S
H1246 C1222 0.950 . S
H1247 C1223 0.949 . S
H1248 C1225 0.950 . S
H1249 C1227 0.950 . S
C1250 C1251 1.349 . S
C1250 C1252 1.327 . S
C1250 H1275 0.950 . S
C1251 C1250 1.349 . S
C1251 C1267 1.349 . S
C1252 C1250 1.327 . S
C1252 C1271 1.429 . S
C1252 H1276 0.950 . S
C1253 C1270 1.574 . S
C1253 C1272 1.368 . S
C1253 H1277 0.949 . S
H1254 C1258 0.949 . S
C1255 C1256 1.349 . S
C1255 C1257 1.327 . S
C1255 H1278 0.950 . S
C1256 C1255 1.349 . S
C1256 C1268 1.349 . S
C1257 C1255 1.327 . S
C1257 C1273 1.429 . S
C1257 H1279 0.950 . S
C1258 H1254 0.949 . S
C1258 C1266 1.574 . S
C1258 C1274 1.368 . S
H1259 C1267 0.950 . S
H1260 C1265 0.950 . S
H1261 C1266 0.949 . S
H1262 C1268 0.950 . S
H1263 C1269 0.950 . S
H1264 C1270 0.949 . S
C1265 H1260 0.950 . S
C1265 C1267 1.327 . S
C1265 C1271 1.429 . S
C1266 C1258 1.574 . S
C1266 H1261 0.949 . S
C1266 C1272 1.368 . S
C1267 C1251 1.349 . S
C1267 H1259 0.950 . S
C1267 C1265 1.327 . S
C1268 C1256 1.349 . S
C1268 H1262 0.950 . S
C1268 C1269 1.327 . S
C1269 H1263 0.950 . S
C1269 C1268 1.327 . S
C1269 C1273 1.429 . S
C1270 C1253 1.574 . S
C1270 H1264 0.949 . S
C1270 C1274 1.368 . S
C1271 C1252 1.429 . S
C1271 C1265 1.429 . S
C1271 C1272 1.523 . S
C1272 C1253 1.368 . S
C1272 C1266 1.368 . S
C1272 C1271 1.523 . S
C1273 C1257 1.429 . S
C1273 C1269 1.429 . S
C1273 C1274 1.523 . S
C1274 C1258 1.368 . S
C1274 C1270 1.368 . S
C1274 C1273 1.523 . S
H1275 C1250 0.950 . S
H1276 C1252 0.950 . S
H1277 C1253 0.949 . S
H1278 C1255 0.950 . S
H1279 C1257 0.950 . S
C561 C391 1.643 1_565 S
C566 C488 1.653 . S
C596 C518 2.386 . S
C591 C451 2.384 . S
C626 C528 1.731 . S
C621 C241 1.612 . S
C656 C548 1.598 . S
C651 C331 1.400 . S
C686 C489 1.654 . S
C681 C121 1.514 1_545 S
C711 C211 2.303 1_556 S
C716 C519 2.390 . S
C741 C31 1.746 . S
C746 C529 1.732 . S
C771 C91 1.464 . S
C776 C549 1.597 . S
C806 C481 0.498 . S
C801 C301 0.632 . S
C836 C502 0.408 . S
C831 C380 0.342 . S
C866 C521 0.854 . S
C861 C440 0.850 . S
C891 C260 0.478 . S
C896 C541 0.312 . S
C921 C61 0.567 . S
C926 C482 0.506 . S
C956 C501 0.408 . S
C951 C140 0.716 . S
C986 C522 0.853 . S
C981 C200 0.830 . S
C1011 C20 0.289 . S
C1016 C542 0.312 . S
C1041 C320 2.284 . S
C1046 C499 2.391 . S
C1071 C361 1.450 . S
C1076 C509 1.742 . S
C1106 C539 2.563 . S
C1101 C421 2.244 . S
C1136 C559 2.438 . S
C1131 C271 2.400 . S
C1161 C80 2.347 . S
C1166 C498 2.400 . S
C1196 C508 1.742 . S
C1191 C151 1.675 . S
C1226 C538 2.563 . S
C1221 C181 2.156 . S
C1251 C1 2.159 . S
C1256 C558 2.438 . S
