# Generated by pormake.
# Topology llk, (3,12)-cn, num edge types: 1
# Building blocks:
#     Node 0, Type 0, BuildingBlock: QEWDON_clean_linker_0, # of connection points: 3
#     Node 1, Type 0, BuildingBlock: QEWDON_clean_linker_0, # of connection points: 3
#     Node 2, Type 0, BuildingBlock: QEWDON_clean_linker_0, # of connection points: 3
#     Node 3, Type 0, BuildingBlock: QEWDON_clean_linker_0, # of connection points: 3
#     Node 4, Type 0, BuildingBlock: QEWDON_clean_linker_0, # of connection points: 3
#     Node 5, Type 0, BuildingBlock: QEWDON_clean_linker_0, # of connection points: 3
#     Node 6, Type 0, BuildingBlock: QEWDON_clean_linker_0, # of connection points: 3
#     Node 7, Type 0, BuildingBlock: QEWDON_clean_linker_0, # of connection points: 3
#     Node 8, Type 0, BuildingBlock: QEWDON_clean_linker_0, # of connection points: 3
#     Node 9, Type 0, BuildingBlock: QEWDON_clean_linker_0, # of connection points: 3
#     Node 10, Type 0, BuildingBlock: QEWDON_clean_linker_0, # of connection points: 3
#     Node 11, Type 0, BuildingBlock: QEWDON_clean_linker_0, # of connection points: 3
#     Node 12, Type 0, BuildingBlock: QEWDON_clean_linker_0, # of connection points: 3
#     Node 13, Type 0, BuildingBlock: QEWDON_clean_linker_0, # of connection points: 3
#     Node 14, Type 0, BuildingBlock: QEWDON_clean_linker_0, # of connection points: 3
#     Node 15, Type 0, BuildingBlock: QEWDON_clean_linker_0, # of connection points: 3
#     Node 16, Type 0, BuildingBlock: QEWDON_clean_linker_0, # of connection points: 3
#     Node 17, Type 0, BuildingBlock: QEWDON_clean_linker_0, # of connection points: 3
#     Node 18, Type 0, BuildingBlock: QEWDON_clean_linker_0, # of connection points: 3
#     Node 19, Type 0, BuildingBlock: QEWDON_clean_linker_0, # of connection points: 3
#     Node 20, Type 0, BuildingBlock: QEWDON_clean_linker_0, # of connection points: 3
#     Node 21, Type 0, BuildingBlock: QEWDON_clean_linker_0, # of connection points: 3
#     Node 22, Type 0, BuildingBlock: QEWDON_clean_linker_0, # of connection points: 3
#     Node 23, Type 0, BuildingBlock: QEWDON_clean_linker_0, # of connection points: 3
#     Node 24, Type 1, BuildingBlock: EZIPEK_clean_sbu_0, # of connection points: 12
#     Node 25, Type 1, BuildingBlock: EZIPEK_clean_sbu_0, # of connection points: 12
#     Node 26, Type 1, BuildingBlock: EZIPEK_clean_sbu_0, # of connection points: 12
#     Node 27, Type 1, BuildingBlock: EZIPEK_clean_sbu_0, # of connection points: 12
#     Node 28, Type 1, BuildingBlock: EZIPEK_clean_sbu_0, # of connection points: 12
#     Node 29, Type 1, BuildingBlock: EZIPEK_clean_sbu_0, # of connection points: 12
#     Edge 30, Type (0, 1), BuildingBlock: AJUNOK_clean_linker_0, # of connection points: 2
#     Edge 31, Type (0, 1), BuildingBlock: AJUNOK_clean_linker_0, # of connection points: 2
#     Edge 32, Type (0, 1), BuildingBlock: AJUNOK_clean_linker_0, # of connection points: 2
#     Edge 33, Type (0, 1), BuildingBlock: AJUNOK_clean_linker_0, # of connection points: 2
#     Edge 34, Type (0, 1), BuildingBlock: AJUNOK_clean_linker_0, # of connection points: 2
#     Edge 35, Type (0, 1), BuildingBlock: AJUNOK_clean_linker_0, # of connection points: 2
#     Edge 36, Type (0, 1), BuildingBlock: AJUNOK_clean_linker_0, # of connection points: 2
#     Edge 37, Type (0, 1), BuildingBlock: AJUNOK_clean_linker_0, # of connection points: 2
#     Edge 38, Type (0, 1), BuildingBlock: AJUNOK_clean_linker_0, # of connection points: 2
#     Edge 39, Type (0, 1), BuildingBlock: AJUNOK_clean_linker_0, # of connection points: 2
#     Edge 40, Type (0, 1), BuildingBlock: AJUNOK_clean_linker_0, # of connection points: 2
#     Edge 41, Type (0, 1), BuildingBlock: AJUNOK_clean_linker_0, # of connection points: 2
#     Edge 42, Type (0, 1), BuildingBlock: AJUNOK_clean_linker_0, # of connection points: 2
#     Edge 43, Type (0, 1), BuildingBlock: AJUNOK_clean_linker_0, # of connection points: 2
#     Edge 44, Type (0, 1), BuildingBlock: AJUNOK_clean_linker_0, # of connection points: 2
#     Edge 45, Type (0, 1), BuildingBlock: AJUNOK_clean_linker_0, # of connection points: 2
#     Edge 46, Type (0, 1), BuildingBlock: AJUNOK_clean_linker_0, # of connection points: 2
#     Edge 47, Type (0, 1), BuildingBlock: AJUNOK_clean_linker_0, # of connection points: 2
#     Edge 48, Type (0, 1), BuildingBlock: AJUNOK_clean_linker_0, # of connection points: 2
#     Edge 49, Type (0, 1), BuildingBlock: AJUNOK_clean_linker_0, # of connection points: 2
#     Edge 50, Type (0, 1), BuildingBlock: AJUNOK_clean_linker_0, # of connection points: 2
#     Edge 51, Type (0, 1), BuildingBlock: AJUNOK_clean_linker_0, # of connection points: 2
#     Edge 52, Type (0, 1), BuildingBlock: AJUNOK_clean_linker_0, # of connection points: 2
#     Edge 53, Type (0, 1), BuildingBlock: AJUNOK_clean_linker_0, # of connection points: 2
#     Edge 54, Type (0, 1), BuildingBlock: AJUNOK_clean_linker_0, # of connection points: 2
#     Edge 55, Type (0, 1), BuildingBlock: AJUNOK_clean_linker_0, # of connection points: 2
#     Edge 56, Type (0, 1), BuildingBlock: AJUNOK_clean_linker_0, # of connection points: 2
#     Edge 57, Type (0, 1), BuildingBlock: AJUNOK_clean_linker_0, # of connection points: 2
#     Edge 58, Type (0, 1), BuildingBlock: AJUNOK_clean_linker_0, # of connection points: 2
#     Edge 59, Type (0, 1), BuildingBlock: AJUNOK_clean_linker_0, # of connection points: 2
#     Edge 60, Type (0, 1), BuildingBlock: AJUNOK_clean_linker_0, # of connection points: 2
#     Edge 61, Type (0, 1), BuildingBlock: AJUNOK_clean_linker_0, # of connection points: 2
#     Edge 62, Type (0, 1), BuildingBlock: AJUNOK_clean_linker_0, # of connection points: 2
#     Edge 63, Type (0, 1), BuildingBlock: AJUNOK_clean_linker_0, # of connection points: 2
#     Edge 64, Type (0, 1), BuildingBlock: AJUNOK_clean_linker_0, # of connection points: 2
#     Edge 65, Type (0, 1), BuildingBlock: AJUNOK_clean_linker_0, # of connection points: 2
#     Edge 66, Type (0, 1), BuildingBlock: AJUNOK_clean_linker_0, # of connection points: 2
#     Edge 67, Type (0, 1), BuildingBlock: AJUNOK_clean_linker_0, # of connection points: 2
#     Edge 68, Type (0, 1), BuildingBlock: AJUNOK_clean_linker_0, # of connection points: 2
#     Edge 69, Type (0, 1), BuildingBlock: AJUNOK_clean_linker_0, # of connection points: 2
#     Edge 70, Type (0, 1), BuildingBlock: AJUNOK_clean_linker_0, # of connection points: 2
#     Edge 71, Type (0, 1), BuildingBlock: AJUNOK_clean_linker_0, # of connection points: 2
#     Edge 72, Type (0, 1), BuildingBlock: AJUNOK_clean_linker_0, # of connection points: 2
#     Edge 73, Type (0, 1), BuildingBlock: AJUNOK_clean_linker_0, # of connection points: 2
#     Edge 74, Type (0, 1), BuildingBlock: AJUNOK_clean_linker_0, # of connection points: 2
#     Edge 75, Type (0, 1), BuildingBlock: AJUNOK_clean_linker_0, # of connection points: 2
#     Edge 76, Type (0, 1), BuildingBlock: AJUNOK_clean_linker_0, # of connection points: 2
#     Edge 77, Type (0, 1), BuildingBlock: AJUNOK_clean_linker_0, # of connection points: 2
#     Edge 78, Type (0, 1), BuildingBlock: AJUNOK_clean_linker_0, # of connection points: 2
#     Edge 79, Type (0, 1), BuildingBlock: AJUNOK_clean_linker_0, # of connection points: 2
#     Edge 80, Type (0, 1), BuildingBlock: AJUNOK_clean_linker_0, # of connection points: 2
#     Edge 81, Type (0, 1), BuildingBlock: AJUNOK_clean_linker_0, # of connection points: 2
#     Edge 82, Type (0, 1), BuildingBlock: AJUNOK_clean_linker_0, # of connection points: 2
#     Edge 83, Type (0, 1), BuildingBlock: AJUNOK_clean_linker_0, # of connection points: 2
#     Edge 84, Type (0, 1), BuildingBlock: AJUNOK_clean_linker_0, # of connection points: 2
#     Edge 85, Type (0, 1), BuildingBlock: AJUNOK_clean_linker_0, # of connection points: 2
#     Edge 86, Type (0, 1), BuildingBlock: AJUNOK_clean_linker_0, # of connection points: 2
#     Edge 87, Type (0, 1), BuildingBlock: AJUNOK_clean_linker_0, # of connection points: 2
#     Edge 88, Type (0, 1), BuildingBlock: AJUNOK_clean_linker_0, # of connection points: 2
#     Edge 89, Type (0, 1), BuildingBlock: AJUNOK_clean_linker_0, # of connection points: 2
#     Edge 90, Type (0, 1), BuildingBlock: AJUNOK_clean_linker_0, # of connection points: 2
#     Edge 91, Type (0, 1), BuildingBlock: AJUNOK_clean_linker_0, # of connection points: 2
#     Edge 92, Type (0, 1), BuildingBlock: AJUNOK_clean_linker_0, # of connection points: 2
#     Edge 93, Type (0, 1), BuildingBlock: AJUNOK_clean_linker_0, # of connection points: 2
#     Edge 94, Type (0, 1), BuildingBlock: AJUNOK_clean_linker_0, # of connection points: 2
#     Edge 95, Type (0, 1), BuildingBlock: AJUNOK_clean_linker_0, # of connection points: 2
#     Edge 96, Type (0, 1), BuildingBlock: AJUNOK_clean_linker_0, # of connection points: 2
#     Edge 97, Type (0, 1), BuildingBlock: AJUNOK_clean_linker_0, # of connection points: 2
#     Edge 98, Type (0, 1), BuildingBlock: AJUNOK_clean_linker_0, # of connection points: 2
#     Edge 99, Type (0, 1), BuildingBlock: AJUNOK_clean_linker_0, # of connection points: 2
#     Edge 100, Type (0, 1), BuildingBlock: AJUNOK_clean_linker_0, # of connection points: 2
#     Edge 101, Type (0, 1), BuildingBlock: AJUNOK_clean_linker_0, # of connection points: 2
# Relax obj value: 0.093
# Max RMSD: 0.249
# Mean RMSD: 0.190
data_MOF--net-llk--node1-EZIPEK_clean_sbu_0--node2-QEWDON_clean_linker_0--edge1-AJUNOK_clean_linker_0
_symmetry_space_group_name_H-M    P1
_symmetry_Int_Tables_number       1
_symmetry_cell_setting            triclinic
loop_
_symmetry_equiv_pos_as_xyz
'x, y, z'
_cell_length_a     37.699577
_cell_length_b     37.394568
_cell_length_c     37.153326
_cell_angle_alpha  90.004924
_cell_angle_beta   90.031468
_cell_angle_gamma 89.963855
loop_
_atom_site_label
_atom_site_type_symbol
_atom_site_fract_x
_atom_site_fract_y
_atom_site_fract_z
_atom_type_partial_charge
H0 H 1.00416 0.32062 0.29256 0.0
C1 C 1.01028 0.29545 0.30558 0.0
C2 C 0.01668 0.29516 0.34277 0.0
C3 C 1.01008 0.26344 0.2856 0.0
H4 H 0.02611 0.2621 0.38922 0.0
C5 C 0.02197 0.2624 0.36034 0.0
C6 C 0.02115 0.23002 0.34139 0.0
C7 C 0.01596 0.23078 0.30387 0.0
C8 C 1.00209 0.26413 0.24613 0.0
H9 H 0.01668 0.20588 0.28903 0.0
C10 C 1.0124 0.29336 0.22431 0.0
C11 C 1.00345 0.29451 0.18751 0.0
C12 C 0.9828 0.23604 0.23017 0.0
H13 H 0.97347 0.21364 0.24598 0.0
C14 C 0.97425 0.23695 0.19364 0.0
H15 H 0.02765 0.31515 0.23569 0.0
C16 C 0.98432 0.26597 0.17246 0.0
H17 H 0.97646 0.26647 0.14441 0.0
H18 H 0.95917 0.21529 0.18183 0.0
H19 H 0.74341 1.00008 0.32441 0.0
C20 C 0.73076 1.00627 0.29898 0.0
C21 C 0.69436 0.01369 0.29856 0.0
C22 C 0.75031 1.00451 0.26679 0.0
H23 H 0.64873 0.02324 0.2652 0.0
C24 C 0.67711 0.01863 0.26546 0.0
C25 C 0.69558 0.01626 0.23275 0.0
C26 C 0.73247 0.01011 0.23372 0.0
C27 C 0.78862 0.99418 0.26792 0.0
H28 H 0.74721 1.0096 0.20874 0.0
C29 C 0.81061 1.00431 0.29709 0.0
C30 C 0.84597 0.99235 0.29927 0.0
C31 C 0.80297 0.9722 0.24082 0.0
H32 H 0.78685 0.96303 0.21853 0.0
C33 C 0.83806 0.96055 0.24278 0.0
H34 H 0.80046 0.02169 0.31802 0.0
C35 C 0.85936 0.97029 0.27184 0.0
H36 H 0.88623 0.96008 0.27315 0.0
H37 H 0.84863 0.94333 0.22196 0.0
H38 H 1.01072 0.73442 0.32638 0.0
C39 C 0.01446 0.72095 0.3009 0.0
C40 C 0.02272 0.6844 0.30137 0.0
C41 C 1.0105 0.73956 0.26809 0.0
H42 H 0.03074 0.63719 0.2695 0.0
C43 C 0.02544 0.66569 0.26893 0.0
C44 C 0.02039 0.68286 0.23588 0.0
C45 C 0.01381 0.71996 0.23556 0.0
C46 C 1.00178 0.77885 0.26797 0.0
H47 H 1.01067 0.73316 0.20988 0.0
C48 C 1.01132 0.8014 0.29713 0.0
C49 C 1.00177 0.8379 0.29757 0.0
C50 C 0.98274 0.79407 0.2391 0.0
H51 H 0.97348 0.77803 0.21679 0.0
C52 C 0.97433 0.83038 0.23885 0.0
H53 H 0.02559 0.79065 0.31991 0.0
C54 C 0.98372 0.85213 0.26774 0.0
H55 H 0.97649 0.88016 0.26687 0.0
H56 H 0.95988 0.84161 0.21634 0.0
H57 H 0.30223 0.98639 0.3231 0.0
C58 C 0.31378 0.99223 0.29707 0.0
C59 C 0.35015 0.99905 0.2953 0.0
C60 C 0.29266 0.99165 0.26592 0.0
H61 H 0.39443 1.00951 0.25988 0.0
C62 C 0.36618 1.00439 0.26153 0.0
C63 C 0.34595 1.00256 0.22977 0.0
C64 C 0.30918 0.99656 0.23213 0.0
C65 C 0.2537 0.98521 0.26934 0.0
H66 H 0.29364 0.99625 0.20761 0.0
C67 C 0.23522 0.9963 0.30054 0.0
C68 C 0.1992 0.98827 0.30515 0.0
C69 C 0.23484 0.96681 0.24237 0.0
H70 H 0.24803 0.9571 0.21842 0.0
C71 C 0.19868 0.9598 0.24643 0.0
H72 H 0.24853 0.01152 0.32134 0.0
C73 C 0.18093 0.97037 0.27763 0.0
H74 H 0.15302 0.9641 0.28053 0.0
H75 H 0.18447 0.9456 0.22553 0.0
H76 H 1.00543 0.7045 0.73835 0.0
C77 C 1.00955 0.72978 0.72482 0.0
C78 C 0.01576 0.7297 0.68766 0.0
C79 C 1.00792 0.76204 0.74426 0.0
H80 H 0.02323 0.76212 0.64059 0.0
C81 C 0.0202 0.76222 0.66961 0.0
C82 C 0.01968 0.79479 0.68827 0.0
C83 C 0.01348 0.79456 0.72564 0.0
C84 C 0.99881 0.76149 0.78344 0.0
H85 H 0.01327 0.81971 0.74009 0.0
C86 C 1.00867 0.73236 0.80562 0.0
C87 C 0.99765 0.73059 0.84173 0.0
C88 C 0.97832 0.78917 0.79856 0.0
H89 H 0.96935 0.81151 0.78242 0.0
C90 C 0.96791 0.78779 0.83456 0.0
H91 H 0.02509 0.71102 0.79509 0.0
C92 C 0.97725 0.75865 0.85597 0.0
H93 H 0.96793 0.75772 0.88353 0.0
H94 H 0.95189 0.8091 0.84574 0.0
H95 H 0.29797 0.01693 0.70453 0.0
C96 C 0.31127 0.01273 0.73004 0.0
C97 C 0.34787 1.00672 0.72975 0.0
C98 C 0.29251 0.0159 0.76268 0.0
H99 H 0.39476 0.99986 0.76193 0.0
C100 C 0.3663 1.00406 0.76243 0.0
C101 C 0.34863 1.00746 0.79558 0.0
C102 C 0.31158 0.01278 0.79543 0.0
C103 C 0.25383 0.02539 0.76209 0.0
H104 H 0.29791 0.0156 0.82085 0.0
C105 C 0.23185 0.01519 0.73292 0.0
C106 C 0.1966 0.02745 0.73031 0.0
C107 C 0.23905 0.04685 0.78942 0.0
H108 H 0.25489 0.05628 0.81176 0.0
C109 C 0.20367 0.05773 0.7877 0.0
H110 H 0.242 0.99782 0.71202 0.0
C111 C 0.18263 0.04835 0.75832 0.0
H112 H 0.15564 0.05825 0.75705 0.0
H113 H 0.19277 0.07435 0.80883 0.0
H114 H 0.99491 0.28706 0.70624 0.0
C115 C 0.99914 0.30049 0.7317 0.0
C116 C 1.00349 0.33762 0.73163 0.0
C117 C 0.9986 0.28121 0.76434 0.0
H118 H 1.01204 0.38448 0.76375 0.0
C119 C 1.00753 0.35582 0.76411 0.0
C120 C 1.00464 0.33803 0.79701 0.0
C121 C 1.0014 0.3005 0.79715 0.0
C122 C 0.99312 0.2415 0.76379 0.0
H123 H 1.00053 0.28673 0.82274 0.0
C124 C 1.00476 0.22051 0.7343 0.0
C125 C 0.99765 0.1836 0.73274 0.0
C126 C 0.97474 0.22437 0.79193 0.0
H127 H 0.96435 0.23931 0.81451 0.0
C128 C 0.96834 0.18764 0.79079 0.0
H129 H 0.01954 0.2326 0.71249 0.0
C130 C 0.9795 0.16738 0.7614 0.0
H131 H 0.97319 0.13914 0.76066 0.0
H132 H 0.95397 0.17491 0.81251 0.0
H133 H 0.71059 1.00883 0.73504 0.0
C134 C 0.73594 1.00727 0.72148 0.0
C135 C 0.73638 1.00173 0.68417 0.0
C136 C 0.76749 0.01225 0.74108 0.0
H137 H 0.76969 0.99824 0.63712 0.0
C138 C 0.7692 1.00129 0.6661 0.0
C139 C 0.80143 1.00579 0.68484 0.0
C140 C 0.80025 0.01093 0.72245 0.0
C141 C 0.76542 0.02216 0.78014 0.0
H142 H 0.82482 0.01502 0.73696 0.0
C143 C 0.73749 1.00959 0.80234 0.0
C144 C 0.73254 0.02312 0.83746 0.0
C145 C 0.78954 0.04699 0.79468 0.0
H146 H 0.81077 0.05803 0.77857 0.0
C147 C 0.78566 0.05932 0.82987 0.0
H148 H 0.71944 0.98943 0.79228 0.0
C149 C 0.75727 0.0479 0.85095 0.0
H150 H 0.75423 0.05921 0.8776 0.0
H151 H 0.8042 0.07873 0.84052 0.0
H152 H 0.30316 0.32326 0.02187 0.0
C153 C 0.31534 0.29724 0.0187 0.0
C154 C 0.352 0.29551 0.01289 0.0
C155 C 0.29454 0.26609 0.02069 0.0
H156 H 0.39714 0.26056 0.00794 0.0
C157 C 0.36855 0.26183 0.0106 0.0
C158 C 0.3488 0.22987 0.01257 0.0
C159 C 0.31162 0.23242 0.01696 0.0
C160 C 0.25541 0.2691 0.02812 0.0
H161 H 0.29602 0.20816 0.01687 0.0
C162 C 0.23545 0.29959 0.01738 0.0
C163 C 0.19937 0.30325 0.02688 0.0
C164 C 0.23801 0.24221 0.0479 0.0
H165 H 0.25219 0.21899 0.05766 0.0
C166 C 0.20214 0.24535 0.05652 0.0
H167 H 0.24759 0.3204 1.00135 0.0
C168 C 0.18298 0.27557 0.04624 0.0
H169 H 0.15536 0.2776 0.05405 0.0
H170 H 0.18923 0.22448 0.07186 0.0
H171 H 0.30271 0.69999 1.00096 0.0
C172 C 0.31476 0.72585 0.0057 0.0
C173 C 0.35135 0.72748 0.01219 0.0
C174 C 0.2942 0.75707 1.00252 0.0
H175 H 0.39631 0.7628 0.0186 0.0
C176 C 0.36786 0.76122 0.01463 0.0
C177 C 0.34813 0.79304 0.0113 0.0
C178 C 0.31118 0.79073 0.00613 0.0
C179 C 0.25596 0.75404 0.99185 0.0
H180 H 0.29603 0.81522 1.00358 0.0
C181 C 0.23475 0.72463 1.00289 0.0
C182 C 0.19965 0.72075 0.99033 0.0
C183 C 0.24105 0.77937 0.96824 0.0
H184 H 0.2565 0.80163 0.95822 0.0
C185 C 0.20631 0.77564 0.95593 0.0
H186 H 0.24523 0.70496 0.02147 0.0
C187 C 0.18583 0.74654 0.96667 0.0
H188 H 0.15913 0.744 0.95616 0.0
H189 H 0.19536 0.79517 0.9375 0.0
H190 H 0.71277 0.28937 0.02748 0.0
C191 C 0.73814 0.30188 0.02227 0.0
C192 C 0.73925 0.33911 0.0193 0.0
C193 C 0.7692 0.28115 0.0201 0.0
H194 H 0.77295 0.38521 0.01381 0.0
C195 C 0.77219 0.35628 0.01532 0.0
C196 C 0.80403 0.33651 0.01355 0.0
C197 C 0.80206 0.29886 0.01511 0.0
C198 C 0.76705 0.24135 0.02459 0.0
H199 H 0.82613 0.28342 0.01191 0.0
C200 C 0.73598 0.2222 0.01502 0.0
C201 C 0.73314 0.1853 0.02169 0.0
C202 C 0.79535 0.22234 0.04034 0.0
H203 H 0.81921 0.23584 0.04913 0.0
C204 C 0.79287 0.18556 0.04617 0.0
H205 H 0.71392 0.23562 1.00214 0.0
C206 C 0.76199 0.16716 0.03711 0.0
H207 H 0.76037 0.13879 0.04282 0.0
H208 H 0.81478 0.17136 0.05847 0.0
H209 H 0.71305 0.73384 0.01568 0.0
C210 C 0.73794 0.72116 0.02245 0.0
C211 C 0.73821 0.68395 0.02607 0.0
C212 C 0.76927 0.74143 0.02567 0.0
H213 H 0.77098 0.63721 0.03131 0.0
C214 C 0.77072 0.66617 0.0306 0.0
C215 C 0.80276 0.68528 0.0335 0.0
C216 C 0.80162 0.72295 0.03177 0.0
C217 C 0.76797 0.78138 0.02079 0.0
H218 H 0.82611 0.73757 0.03529 0.0
C219 C 0.73607 0.8009 0.02619 0.0
C220 C 0.73376 0.8374 0.01727 0.0
C221 C 0.79798 0.80019 0.00839 0.0
H222 H 0.82273 0.78673 1.00273 0.0
C223 C 0.79633 0.83688 1.00182 0.0
H224 H 0.71251 0.78788 0.03632 0.0
C225 C 0.7645 0.85535 0.006 0.0
H226 H 0.76378 0.88368 0.99995 0.0
H227 H 0.81968 0.85092 0.99248 0.0
H228 H 0.51323 0.82006 0.79392 0.0
C229 C 0.52081 0.79475 0.80582 0.0
C230 C 0.533 0.79413 0.84147 0.0
C231 C 0.51572 0.76278 0.78641 0.0
H232 H 0.55025 0.76046 0.88504 0.0
C233 C 0.54047 0.76111 0.85759 0.0
C234 C 0.53255 0.72884 0.84021 0.0
C235 C 0.52127 0.72976 0.80414 0.0
C236 C 0.50198 0.76428 0.74873 0.0
H237 H 0.51561 0.70486 0.79046 0.0
C238 C 0.51182 0.79248 0.72547 0.0
C239 C 0.49777 0.79485 0.69049 0.0
C240 C 0.47793 0.73836 0.73606 0.0
H241 H 0.46886 0.71688 0.75326 0.0
C242 C 0.46429 0.74042 0.7012 0.0
H243 H 0.53065 0.81253 0.73432 0.0
C244 C 0.47401 0.76849 0.67856 0.0
H245 H 0.46239 0.76999 0.65193 0.0
H246 H 0.44565 0.72046 0.69188 0.0
H247 H 0.24253 0.53551 0.82449 0.0
C248 C 0.22968 0.5287 0.79932 0.0
C249 C 0.19273 0.52483 0.79881 0.0
C250 C 0.24965 0.52564 0.76741 0.0
H251 H 0.14684 0.51543 0.76594 0.0
C252 C 0.17549 0.51768 0.76622 0.0
C253 C 0.19454 0.51401 0.73403 0.0
C254 C 0.23169 0.51795 0.73482 0.0
C255 C 0.28875 0.53258 0.76802 0.0
H256 H 0.24647 0.51487 0.71003 0.0
C257 C 0.30967 0.52387 0.79845 0.0
C258 C 0.34594 0.53303 0.79993 0.0
C259 C 0.30518 0.54979 0.73874 0.0
H260 H 0.29008 0.55781 0.7153 0.0
C261 C 0.34123 0.55804 0.73971 0.0
H262 H 0.29793 0.50977 0.82093 0.0
C263 C 0.36145 0.54991 0.77005 0.0
H264 H 0.38917 0.55751 0.77041 0.0
H265 H 0.35343 0.57145 0.71707 0.0
H266 H 0.52161 0.23409 0.82549 0.0
C267 C 0.52544 0.22056 0.80002 0.0
C268 C 0.53546 0.18452 0.80044 0.0
C269 C 0.51906 0.23859 0.76735 0.0
H270 H 0.5469 0.13829 0.7684 0.0
C271 C 0.53897 0.16613 0.76788 0.0
C272 C 0.52947 0.18212 0.73506 0.0
C273 C 0.52091 0.21884 0.7348 0.0
C274 C 0.50803 0.27713 0.76803 0.0
H275 H 0.51482 0.23156 0.70939 0.0
C276 C 0.51968 0.3003 0.7958 0.0
C277 C 0.5073 0.33574 0.79808 0.0
C278 C 0.4843 0.29071 0.74211 0.0
H279 H 0.47377 0.27388 0.72098 0.0
C280 C 0.47266 0.32611 0.7438 0.0
H281 H 0.53845 0.29102 0.8158 0.0
C282 C 0.48384 0.34843 0.77165 0.0
H283 H 0.47341 0.3754 0.77302 0.0
H284 H 0.4542 0.33606 0.72385 0.0
H285 H 0.80161 0.48391 0.82572 0.0
C286 C 0.81376 0.4881 0.79967 0.0
C287 C 0.8496 0.49734 0.79838 0.0
C288 C 0.7934 0.48497 0.76816 0.0
H289 H 0.89435 0.50675 0.76366 0.0
C290 C 0.86617 0.50112 0.76468 0.0
C291 C 0.84676 0.49737 0.73238 0.0
C292 C 0.81017 0.48984 0.7345 0.0
C293 C 0.75471 0.47695 0.77113 0.0
H294 H 0.79463 0.48884 0.71002 0.0
C295 C 0.7351 0.48892 0.80124 0.0
C296 C 0.69952 0.47917 0.80587 0.0
C297 C 0.73733 0.4561 0.74498 0.0
H298 H 0.75149 0.44582 0.72185 0.0
C299 C 0.7015 0.4474 0.74891 0.0
H300 H 0.74719 0.50613 0.82121 0.0
C301 C 0.68267 0.45874 0.7792 0.0
H302 H 0.65509 0.45112 0.78209 0.0
H303 H 0.68841 0.43129 0.72867 0.0
H304 H 0.5067 0.20315 0.23944 0.0
C305 C 0.51008 0.22847 0.22601 0.0
C306 C 0.51375 0.22835 0.1884 0.0
C307 C 0.51086 0.26076 0.24579 0.0
H308 H 0.51776 0.26095 0.14091 0.0
C309 C 0.51681 0.26088 0.17009 0.0
C310 C 0.51818 0.29333 0.1887 0.0
C311 C 0.51619 0.29304 0.2265 0.0
C312 C 0.50527 0.26093 0.28603 0.0
H313 H 0.51922 0.31817 0.2405 0.0
C314 C 0.51029 0.22977 0.30729 0.0
C315 C 0.50277 0.22972 0.34448 0.0
C316 C 0.49329 0.29219 0.30358 0.0
H317 H 0.48728 0.3164 0.28893 0.0
C318 C 0.48797 0.29278 0.34069 0.0
H319 H 0.51952 0.20518 0.29532 0.0
C320 C 0.49284 0.26194 0.36104 0.0
H321 H 0.48849 0.2633 0.38982 0.0
H322 H 0.4794 0.31721 0.35368 0.0
H323 H 0.80076 0.5256 0.2044 0.0
C324 C 0.81338 0.52186 0.23034 0.0
C325 C 0.84957 0.51402 0.23115 0.0
C326 C 0.79413 0.52662 0.26242 0.0
H327 H 0.89536 0.50506 0.26405 0.0
C328 C 0.86723 0.51108 0.2641 0.0
C329 C 0.84927 0.51684 0.29678 0.0
C330 C 0.81252 0.52427 0.29564 0.0
C331 C 0.75551 0.53609 0.26064 0.0
H332 H 0.79846 0.529 0.32052 0.0
C333 C 0.73395 0.52397 0.23188 0.0
C334 C 0.69847 0.53533 0.22842 0.0
C335 C 0.74023 0.55882 0.28658 0.0
H336 H 0.75578 0.56962 0.30851 0.0
C337 C 0.70471 0.56903 0.28398 0.0
H338 H 0.74457 0.50564 0.21206 0.0
C339 C 0.684 0.55758 0.25509 0.0
H340 H 0.65684 0.56686 0.25314 0.0
H341 H 0.69339 0.58663 0.30406 0.0
H342 H 0.48834 0.78665 0.20663 0.0
C343 C 0.49514 0.79973 0.23167 0.0
C344 C 0.50014 0.83691 0.23146 0.0
C345 C 0.49807 0.77994 0.26389 0.0
H346 H 0.50928 0.88366 0.26382 0.0
C347 C 0.50625 0.85483 0.2639 0.0
C348 C 0.50858 0.83616 0.29641 0.0
C349 C 0.50545 0.79871 0.29615 0.0
C350 C 0.49295 0.7401 0.26399 0.0
H351 H 0.50927 0.78444 0.32117 0.0
C352 C 0.49967 0.71912 0.23294 0.0
C353 C 0.49367 0.68189 0.23299 0.0
C354 C 0.48051 0.72264 0.29516 0.0
H355 H 0.47356 0.73739 0.31919 0.0
C356 C 0.47626 0.68564 0.29583 0.0
H357 H 0.50925 0.7315 0.20851 0.0
C358 C 0.48302 0.66536 0.26517 0.0
H359 H 0.47972 0.63663 0.26667 0.0
H360 H 0.46729 0.67263 0.3202 0.0
H361 H 0.21015 0.51987 0.23335 0.0
C362 C 0.23584 0.5151 0.22122 0.0
C363 C 0.23749 0.50529 0.18494 0.0
C364 C 0.26681 0.52179 0.24115 0.0
H365 H 0.27191 0.49331 0.14053 0.0
C366 C 0.27085 0.50156 0.16847 0.0
C367 C 0.30254 0.50981 0.18693 0.0
C368 C 0.30012 0.51961 0.2236 0.0
C369 C 0.26337 0.53453 0.27916 0.0
H370 H 0.3239 0.52671 0.23822 0.0
C371 C 0.23602 0.52149 0.30176 0.0
C372 C 0.22975 0.53669 0.33594 0.0
C373 C 0.28548 0.56192 0.29213 0.0
H374 H 0.3062 0.57319 0.27548 0.0
C375 C 0.28016 0.57629 0.32633 0.0
H376 H 0.21957 0.49953 0.29267 0.0
C377 C 0.25241 0.56414 0.3479 0.0
H378 H 0.24828 0.57682 0.37377 0.0
H379 H 0.29712 0.59766 0.33584 0.0
H380 H 0.80137 0.82149 0.52321 0.0
C381 C 0.81383 0.7959 0.51838 0.0
C382 C 0.85073 0.79522 0.51349 0.0
C383 C 0.7936 0.76415 0.51905 0.0
H384 H 0.89669 0.76121 0.50814 0.0
C385 C 0.86812 0.76197 0.51129 0.0
C386 C 0.84918 0.72964 0.51354 0.0
C387 C 0.8119 0.73103 0.51571 0.0
C388 C 0.75404 0.76569 0.52559 0.0
H389 H 0.79762 0.70599 0.51581 0.0
C390 C 0.73379 0.79714 0.51873 0.0
C391 C 0.69743 0.799 0.52778 0.0
C392 C 0.73625 0.73601 0.54058 0.0
H393 H 0.75013 0.71182 0.54794 0.0
C394 C 0.69994 0.73712 0.54743 0.0
H395 H 0.746 0.82055 0.50703 0.0
C396 C 0.68066 0.7682 0.54105 0.0
H397 H 0.65251 0.76823 0.54691 0.0
H398 H 0.68676 0.71388 0.55849 0.0
H399 H 0.80078 0.20108 0.50023 0.0
C400 C 0.8133 0.22628 0.50666 0.0
C401 C 0.85046 0.22714 0.50834 0.0
C402 C 0.7928 0.25735 0.51208 0.0
H403 H 0.89645 0.26077 0.51412 0.0
C404 C 0.86774 0.26007 0.51365 0.0
C405 C 0.84844 0.29201 0.51835 0.0
C406 C 0.81102 0.28993 0.51904 0.0
C407 C 0.75278 0.256 0.50896 0.0
H408 H 0.79633 0.31388 0.52551 0.0
C409 C 0.73325 0.22352 0.5126 0.0
C410 C 0.69614 0.22257 0.50693 0.0
C411 C 0.73363 0.28733 0.50046 0.0
H412 H 0.74677 0.31255 0.49567 0.0
C413 C 0.69685 0.2868 0.49704 0.0
H414 H 0.7465 0.19876 0.51923 0.0
C415 C 0.67824 0.25487 0.50039 0.0
H416 H 0.64966 0.25544 0.49746 0.0
H417 H 0.68269 0.31128 0.49107 0.0
H418 H 0.21325 0.78997 0.52484 0.0
C419 C 0.23829 0.80195 0.51731 0.0
C420 C 0.23902 0.83871 0.5104 0.0
C421 C 0.2694 0.78118 0.51663 0.0
H422 H 0.27262 0.88431 0.50096 0.0
C423 C 0.27188 0.85557 0.50459 0.0
C424 C 0.30376 0.83586 0.50446 0.0
C425 C 0.30212 0.79856 0.50986 0.0
C426 C 0.26742 0.74198 0.5252 0.0
H427 H 0.32649 0.78328 0.50875 0.0
C428 C 0.236 0.72212 0.51869 0.0
C429 C 0.23253 0.68672 0.53101 0.0
C430 C 0.29597 0.72459 0.54236 0.0
H431 H 0.32021 0.73867 0.54879 0.0
C432 C 0.29323 0.68886 0.55281 0.0
H433 H 0.21368 0.73425 0.50502 0.0
C434 C 0.26172 0.67011 0.54748 0.0
H435 H 0.26002 0.64262 0.55654 0.0
H436 H 0.3154 0.67588 0.56596 0.0
H437 H 0.2128 0.23304 0.51796 0.0
C438 C 0.23816 0.22027 0.52248 0.0
C439 C 0.23879 0.18307 0.52626 0.0
C440 C 0.26964 0.24053 0.52213 0.0
H441 H 0.27234 0.13649 0.52988 0.0
C442 C 0.27167 0.16541 0.52792 0.0
C443 C 0.30375 0.18456 0.52601 0.0
C444 C 0.30253 0.22218 0.52452 0.0
C445 C 0.26758 0.28028 0.51659 0.0
H446 H 0.3273 0.23676 0.52398 0.0
C447 C 0.23689 0.29988 0.52662 0.0
C448 C 0.23366 0.33645 0.51851 0.0
C449 C 0.29528 0.29875 0.49917 0.0
H450 H 0.31879 0.28502 0.48986 0.0
C451 C 0.29255 0.33533 0.49219 0.0
H452 H 0.21531 0.28708 0.54082 0.0
C453 C 0.26194 0.35406 0.50158 0.0
H454 H 0.26001 0.38219 0.49488 0.0
H455 H 0.31399 0.34908 0.47864 0.0
C456 C 0.02249 0.91954 0.59544 0.0
C457 C 0.02318 0.9315 0.42102 0.0
C458 C 0.01856 0.09196 0.60796 0.0
C459 C 0.0264 0.1044 0.43352 0.0
C460 C 0.9387 0.09982 0.50925 0.0
C461 C 0.93932 0.92307 0.5102 0.0
C462 C 0.11071 0.09661 0.52092 0.0
C463 C 0.11153 0.92694 0.51441 0.0
C464 C 0.11105 0.01424 0.42998 0.0
C465 C 0.94087 0.01433 0.42159 0.0
C466 C 0.10293 1.00955 0.6062 0.0
C467 C 0.92995 1.00866 0.59555 0.0
Eu468 Eu 0.02455 0.944 0.50943 0.0
O469 O 0.99317 0.98187 0.47891 0.0
O470 O 0.05264 0.97818 0.54582 0.0
Eu471 Eu 0.95504 0.01157 0.51005 0.0
Eu472 Eu 0.08944 0.0117 0.51732 0.0
O473 O 0.98984 0.97767 0.5413 0.0
O474 O 0.05633 0.98215 0.48096 0.0
Eu475 Eu 0.01796 1.00693 0.582 0.0
Eu476 Eu 0.02528 0.01657 0.44667 0.0
O477 O 0.9891 0.04157 0.5461 0.0
O478 O 0.99286 0.04587 0.48365 0.0
O479 O 0.05572 0.04588 0.48591 0.0
O480 O 0.05217 0.0408 0.55013 0.0
Eu481 Eu 0.02357 0.07965 0.5193 0.0
O482 O 0.02628 0.91119 0.56071 0.0
O483 O 0.02417 0.91768 0.45417 0.0
O484 O 0.02017 0.10578 0.57476 0.0
O485 O 0.02773 0.11296 0.4684 0.0
O486 O 0.92671 0.06604 0.50774 0.0
O487 O 0.927 0.95681 0.50941 0.0
O488 O 0.1202 0.06256 0.5181 0.0
O489 O 0.12046 0.96095 0.51904 0.0
O490 O 0.07776 0.0176 0.41858 0.0
O491 O 0.97514 0.01755 0.41358 0.0
O492 O 0.06865 1.00659 0.61486 0.0
O493 O 0.96292 1.0055 0.60883 0.0
O494 O 0.07728 0.10871 0.52328 0.0
O495 O 0.97226 0.10984 0.51419 0.0
O496 O 0.07842 0.91498 0.50897 0.0
O497 O 0.97333 0.91338 0.51006 0.0
O498 O 0.02333 0.96621 0.41273 0.0
O499 O 0.02451 0.07132 0.4201 0.0
O500 O 0.01751 0.95233 0.60871 0.0
O501 O 0.01715 0.05717 0.61582 0.0
O502 O 0.92189 0.01185 0.56073 0.0
O503 O 0.92792 0.01116 0.45498 0.0
O504 O 0.11564 0.01194 0.57264 0.0
O505 O 0.12109 0.011 0.46447 0.0
C506 C 0.51179 0.92991 0.10771 0.0
C507 C 0.51772 0.10259 0.09731 0.0
C508 C 0.5269 0.91902 0.93479 0.0
C509 C 0.52895 0.09181 0.92438 0.0
C510 C 0.61119 1.00445 0.93355 0.0
C511 C 0.60226 0.01565 0.10751 0.0
C512 C 0.43885 1.00842 0.92387 0.0
C513 C 0.43087 0.01386 0.10033 0.0
C514 C 0.43557 0.09948 0.00884 0.0
C515 C 0.60825 0.09563 0.01184 0.0
C516 C 0.4343 0.92289 0.01314 0.0
C517 C 0.60632 0.92397 0.02324 0.0
Eu518 Eu 0.51706 0.01527 0.0837 0.0
O519 O 0.55094 0.04453 0.04766 0.0
O520 O 0.48706 0.98155 0.04786 0.0
Eu521 Eu 0.58739 0.01007 0.01972 0.0
Eu522 Eu 0.45202 0.01105 0.01282 0.0
O523 O 0.5504 0.98041 0.05219 0.0
O524 O 0.48731 0.04466 0.04393 0.0
Eu525 Eu 0.52008 0.94326 0.02037 0.0
Eu526 Eu 0.52135 0.07828 0.01171 0.0
O527 O 0.55316 0.97688 0.98789 0.0
O528 O 0.55377 0.03998 0.98399 0.0
O529 O 0.49049 0.04038 0.98085 0.0
O530 O 0.49002 0.97751 0.98482 0.0
Eu531 Eu 0.52396 1.00649 0.94819 0.0
O532 O 0.51225 0.96451 0.11657 0.0
O533 O 0.51493 0.0696 0.11061 0.0
O534 O 0.5262 0.95206 0.92121 0.0
O535 O 0.53015 0.05727 0.91552 0.0
O536 O 0.61977 1.00663 0.96838 0.0
O537 O 0.61485 0.01217 0.07411 0.0
O538 O 0.42556 1.0093 0.95732 0.0
O539 O 0.42073 0.01016 0.06592 0.0
O540 O 0.46968 0.10902 0.0075 0.0
O541 O 0.57477 0.10764 0.01073 0.0
O542 O 0.46823 0.91283 0.01548 0.0
O543 O 0.57265 0.9127 0.02437 0.0
O544 O 0.47328 1.00761 0.91534 0.0
O545 O 0.57802 1.00383 0.92078 0.0
O546 O 0.4641 0.0176 0.11193 0.0
O547 O 0.568 0.01776 0.11654 0.0
O548 O 0.52106 0.1112 0.06266 0.0
O549 O 0.52427 0.10509 0.95729 0.0
O550 O 0.51478 0.9166 0.07459 0.0
O551 O 0.52494 0.91072 0.96962 0.0
O552 O 0.61693 0.95784 0.0214 0.0
O553 O 0.61794 0.06159 0.01566 0.0
O554 O 0.4226 0.95685 0.01263 0.0
O555 O 0.4235 0.06574 0.0116 0.0
C556 C 0.02179 0.4175 0.09327 0.0
C557 C 0.01349 0.43327 0.92019 0.0
C558 C 0.02232 0.5904 0.10937 0.0
C559 C 0.01535 0.60715 0.93576 0.0
C560 C 0.92976 0.59626 0.02741 0.0
C561 C 0.93157 0.4252 0.00951 0.0
C562 C 0.10248 0.60128 0.01515 0.0
C563 C 0.10477 0.42553 0.00666 0.0
C564 C 0.10059 0.52189 0.9232 0.0
C565 C 0.93105 0.51794 0.92873 0.0
C566 C 0.11024 0.50677 0.09543 0.0
C567 C 0.93757 0.50619 0.10465 0.0
Eu568 Eu 0.01849 0.44449 0.00809 0.0
O569 O 0.98616 0.48316 0.98066 0.0
O570 O 0.05192 0.47798 0.04101 0.0
Eu571 Eu 0.95122 0.51107 0.01642 0.0
Eu572 Eu 0.08585 0.51314 0.01042 0.0
O573 O 0.98854 0.47723 0.04463 0.0
O574 O 0.04905 0.48329 0.97771 0.0
Eu575 Eu 0.02252 0.50568 0.08184 0.0
Eu576 Eu 0.01601 0.51867 0.94668 0.0
O577 O 0.98842 0.53961 0.04994 0.0
O578 O 0.98471 0.54681 0.98627 0.0
O579 O 0.0479 0.54742 0.98447 0.0
O580 O 0.05127 0.54149 0.0471 0.0
Eu581 Eu 0.01692 0.57979 0.02079 0.0
O582 O 0.02037 0.41004 0.05818 0.0
O583 O 0.01648 0.41907 0.95295 0.0
O584 O 0.02036 0.60475 0.0765 0.0
O585 O 0.01509 0.61442 0.97092 0.0
O586 O 0.92017 0.56217 0.02361 0.0
O587 O 0.92122 0.45913 0.01245 0.0
O588 O 0.11427 0.56758 0.01131 0.0
O589 O 0.11571 0.45963 0.00831 0.0
O590 O 0.06637 0.52298 0.91432 0.0
O591 O 0.9643 0.52188 0.91778 0.0
O592 O 0.07735 0.50336 0.10873 0.0
O593 O 0.9717 0.50559 0.11401 0.0
O594 O 0.06853 0.61049 0.01932 0.0
O595 O 0.96319 0.60851 0.02656 0.0
O596 O 0.07091 0.41504 0.00542 0.0
O597 O 0.96536 0.41398 0.00808 0.0
O598 O 1.01284 0.46822 0.91245 0.0
O599 O 0.01532 0.57431 0.92145 0.0
O600 O 0.02244 0.45036 0.10745 0.0
O601 O 0.0232 0.55545 0.1168 0.0
O602 O 0.92452 0.50723 0.07121 0.0
O603 O 0.92045 0.51285 0.96283 0.0
O604 O 0.11831 0.51121 0.06087 0.0
O605 O 0.11345 0.5171 0.95631 0.0
C606 C 0.52103 0.41819 0.0954 0.0
C607 C 0.51549 0.59101 0.10773 0.0
C608 C 0.52737 0.43103 0.92059 0.0
C609 C 0.52837 0.60362 0.93379 0.0
C610 C 0.61095 0.51133 0.9295 0.0
C611 C 0.60445 0.51018 0.1059 0.0
C612 C 0.44043 0.51657 0.92342 0.0
C613 C 0.43137 0.50872 0.09707 0.0
C614 C 0.43965 0.59952 0.01402 0.0
C615 C 0.61146 0.59585 0.01989 0.0
C616 C 0.43953 0.42314 0.00585 0.0
C617 C 0.61159 0.426 0.01799 0.0
Eu618 Eu 0.51914 0.50595 0.08247 0.0
O619 O 0.5534 0.54 0.05065 0.0
O620 O 0.49043 0.47655 0.04208 0.0
Eu621 Eu 0.59011 0.51088 0.01718 0.0
Eu622 Eu 0.45589 0.51119 0.01127 0.0
O623 O 0.55321 0.47732 0.04561 0.0
O624 O 0.49061 0.54056 0.04661 0.0
Eu625 Eu 0.52482 0.44307 0.00945 0.0
Eu626 Eu 0.52461 0.5787 0.01976 0.0
O627 O 0.55646 0.48146 0.98121 0.0
O628 O 0.5564 0.54511 0.98594 0.0
O629 O 0.49339 0.54537 0.98419 0.0
O630 O 0.49344 0.48135 0.97936 0.0
Eu631 Eu 0.52553 0.51599 0.94696 0.0
O632 O 0.51825 0.45119 0.10886 0.0
O633 O 0.51396 0.55629 0.11579 0.0
O634 O 0.52615 0.46586 0.91292 0.0
O635 O 0.52804 0.57055 0.92023 0.0
O636 O 0.62119 0.5082 0.96396 0.0
O637 O 0.6168 0.51219 0.0722 0.0
O638 O 0.428 0.51389 0.95699 0.0
O639 O 0.4233 0.51105 0.06219 0.0
O640 O 0.47349 0.60927 0.01692 0.0
O641 O 0.5781 0.60781 0.02317 0.0
O642 O 0.4734 0.41305 1.00478 0.0
O643 O 0.57863 0.41386 0.01196 0.0
O644 O 0.47468 0.51792 0.91444 0.0
O645 O 0.57771 0.51588 0.91846 0.0
O646 O 0.46442 0.50544 0.11012 0.0
O647 O 0.57024 0.50695 0.11492 0.0
O648 O 0.52058 0.60489 0.075 0.0
O649 O 0.52717 0.61186 0.96877 0.0
O650 O 0.52398 0.40978 0.06057 0.0
O651 O 0.52741 0.41719 0.95383 0.0
O652 O 0.6208 0.46011 0.02074 0.0
O653 O 0.62096 0.56182 0.0166 0.0
O654 O 0.42752 0.4568 0.00914 0.0
O655 O 0.42752 0.56579 0.01219 0.0
C656 C 0.0138 0.43021 0.60827 0.0
C657 C 0.0215 0.42015 0.43522 0.0
C658 C 0.02026 0.60291 0.59876 0.0
C659 C 0.02526 0.59282 0.42603 0.0
C660 C 0.93534 0.59924 0.51479 0.0
C661 C 0.93624 0.42218 0.52057 0.0
C662 C 0.10718 0.59815 0.51806 0.0
C663 C 0.10868 0.42624 0.52688 0.0
C664 C 0.11125 0.50913 0.43393 0.0
C665 C 0.93879 0.51123 0.42575 0.0
C666 C 0.10322 0.51127 0.60832 0.0
C667 C 0.93212 0.51299 0.60249 0.0
Eu668 Eu 0.02194 0.44395 0.52111 0.0
O669 O 0.99068 0.47782 0.48618 0.0
O670 O 0.05145 0.48186 0.55249 0.0
Eu671 Eu 0.95239 0.51073 0.51464 0.0
Eu672 Eu 0.08826 0.51193 0.52047 0.0
O673 O 0.9886 0.48182 0.54888 0.0
O674 O 0.05487 0.47774 0.48829 0.0
Eu675 Eu 0.01812 0.51551 0.58487 0.0
Eu676 Eu 0.02413 0.50741 0.4496 0.0
O677 O 0.98757 0.54463 0.54566 0.0
O678 O 0.99057 0.54053 0.48285 0.0
O679 O 0.05403 0.54143 0.48501 0.0
O680 O 0.05142 0.54541 0.54902 0.0
Eu681 Eu 0.02113 0.57873 0.51341 0.0
O682 O 0.019 0.41693 0.57542 0.0
O683 O 0.02089 0.41142 0.47 0.0
O684 O 0.0224 0.61164 0.56412 0.0
O685 O 0.02102 0.60584 0.4591 0.0
O686 O 0.92331 0.56535 0.51439 0.0
O687 O 0.92413 0.45574 0.51588 0.0
O688 O 0.11773 0.56438 0.52195 0.0
O689 O 0.1185 0.46037 0.52502 0.0
O690 O 0.07801 0.50666 0.42152 0.0
O691 O 0.97322 0.51005 0.41722 0.0
O692 O 0.06895 0.51207 0.61742 0.0
O693 O 0.96547 0.51754 0.61343 0.0
O694 O 0.07374 0.60918 0.51334 0.0
O695 O 0.96935 0.60896 0.51401 0.0
O696 O 0.07521 0.41431 0.52504 0.0
O697 O 0.97039 0.41309 0.52342 0.0
O698 O 0.02328 0.45329 0.422 0.0
O699 O 0.02792 0.5584 0.41706 0.0
O700 O 1.01241 0.46474 0.61702 0.0
O701 O 0.01781 0.56988 0.61211 0.0
O702 O 0.9216 0.50908 0.56818 0.0
O703 O 0.92559 0.51081 0.45926 0.0
O704 O 0.11597 0.51252 0.57483 0.0
O705 O 0.1201 0.51129 0.46871 0.0
C706 C 0.51854 0.91568 0.59386 0.0
C707 C 0.51943 0.92919 0.42088 0.0
C708 C 0.52267 0.08855 0.60862 0.0
C709 C 0.51403 0.10284 0.43442 0.0
C710 C 0.43074 0.09504 0.51882 0.0
C711 C 0.43165 0.92323 0.50583 0.0
C712 C 0.60398 0.09752 0.51494 0.0
C713 C 0.60477 0.9225 0.51057 0.0
C714 C 0.60384 0.01504 0.4247 0.0
C715 C 0.4351 1.00735 0.42509 0.0
C716 C 0.60828 1.00096 0.59735 0.0
C717 C 0.43513 1.00552 0.60168 0.0
Eu718 Eu 0.51862 0.94174 0.5086 0.0
O719 O 0.48773 0.98041 0.47985 0.0
O720 O 0.5513 0.97564 0.54171 0.0
Eu721 Eu 0.45163 1.00894 0.51383 0.0
Eu722 Eu 0.58674 0.00994 0.51191 0.0
O723 O 0.48774 0.97511 0.5437 0.0
O724 O 0.55069 0.97971 0.47886 0.0
Eu725 Eu 0.521 1.0038 0.58134 0.0
Eu726 Eu 0.51909 0.01481 0.44631 0.0
O727 O 0.48782 0.03787 0.54844 0.0
O728 O 0.48694 0.04363 0.48468 0.0
O729 O 0.55001 0.04453 0.4844 0.0
O730 O 0.55126 0.03897 0.54725 0.0
Eu731 Eu 0.51794 0.0774 0.51977 0.0
O732 O 0.5175 0.90799 0.55886 0.0
O733 O 0.51808 0.91558 0.45396 0.0
O734 O 0.52094 0.10291 0.57565 0.0
O735 O 0.51336 0.11092 0.46937 0.0
O736 O 0.42121 0.06099 0.5143 0.0
O737 O 0.42137 0.95715 0.50914 0.0
O738 O 0.61576 0.06372 0.51435 0.0
O739 O 0.6162 0.9564 0.51015 0.0
O740 O 0.56992 0.01693 0.4151 0.0
O741 O 0.46866 0.01154 0.4153 0.0
O742 O 0.57494 1.00039 0.60986 0.0
O743 O 0.46913 1.00521 0.61176 0.0
O744 O 0.57002 0.10774 0.51645 0.0
O745 O 0.46414 0.10664 0.52333 0.0
O746 O 0.57096 0.91189 0.51015 0.0
O747 O 0.46535 0.91172 0.50573 0.0
O748 O 0.52106 0.96395 0.41252 0.0
O749 O 0.51691 0.07005 0.42035 0.0
O750 O 0.51977 0.9487 0.60768 0.0
O751 O 0.52344 0.05358 0.61576 0.0
O752 O 0.42297 1.00585 0.56784 0.0
O753 O 0.42288 1.00712 0.45903 0.0
O754 O 0.61784 1.00485 0.56313 0.0
O755 O 0.61596 0.01254 0.45836 0.0
C756 C 0.20211 0.13314 0.50163 0.0
C757 C 0.20499 0.16252 0.52496 0.0
C758 C 0.17079 0.11328 0.49952 0.0
C759 C 0.14088 0.1219 0.52057 0.0
H760 H 0.22424 0.12543 0.48473 0.0
H761 H 0.17019 0.09052 0.48145 0.0
S762 S 0.13447 0.19635 0.58597 0.0
N763 N 0.1751 0.19952 0.56959 0.0
N764 N 0.11594 0.16198 0.56528 0.0
C765 C 0.14294 0.1517 0.5434 0.0
C766 C 0.17506 0.172 0.54572 0.0
C767 C 0.86168 0.16306 0.52585 0.0
C768 C 0.87114 0.19325 0.50513 0.0
C769 C 0.88242 0.13176 0.52559 0.0
C770 C 0.9134 0.12972 0.50475 0.0
H771 H 0.83881 0.16412 0.54346 0.0
H772 H 0.87515 0.1098 0.54311 0.0
S773 S 0.94688 0.19882 0.44161 0.0
N774 N 0.91134 0.21713 0.45997 0.0
N775 N 0.95059 0.15884 0.4601 0.0
C776 C 0.92211 0.15891 0.48253 0.0
C777 C 0.90095 0.19055 0.48259 0.0
C778 C 0.90267 0.83182 0.53392 0.0
C779 C 0.87154 0.82924 0.51323 0.0
C780 C 0.92346 0.86282 0.53355 0.0
C781 C 0.91401 0.89281 0.51269 0.0
H782 H 0.91116 0.80962 0.55058 0.0
H783 H 0.94747 0.86314 0.54961 0.0
S784 S 0.83513 0.90022 0.45366 0.0
N785 N 0.83223 0.85968 0.47111 0.0
N786 N 0.87128 0.91826 0.47106 0.0
C787 C 0.88252 0.89117 0.49258 0.0
C788 C 0.86134 0.85933 0.49268 0.0
C789 C 0.20412 0.89145 0.53181 0.0
C790 C 0.20546 0.85975 0.51167 0.0
C791 C 0.1731 0.91188 0.53357 0.0
C792 C 0.14193 0.90165 0.51519 0.0
H793 H 0.22723 0.90056 0.54652 0.0
H794 H 0.17381 0.93627 0.5493 0.0
S795 S 0.13119 0.8203 0.45926 0.0
N796 N 0.17272 0.81853 0.47332 0.0
N797 N 0.11417 0.85705 0.4769 0.0
C798 C 0.1425 0.86947 0.49571 0.0
C799 C 0.1743 0.84857 0.49382 0.0
C800 C 0.54088 0.19088 0.14011 0.0
C801 C 0.51535 0.19446 0.16756 0.0
C802 C 0.54172 0.16074 0.11794 0.0
C803 C 0.51766 0.13259 0.12289 0.0
H804 H 0.56018 0.21181 0.13539 0.0
H805 H 0.56136 0.15949 0.09667 0.0
S806 S 0.44597 0.128 0.19089 0.0
N807 N 0.46513 0.16705 0.19813 0.0
N808 N 0.46815 0.10936 0.15745 0.0
C809 C 0.49281 0.13499 0.15091 0.0
C810 C 0.49135 0.16617 0.17306 0.0
C811 C 0.87384 0.48009 0.17863 0.0
C812 C 0.86988 0.5125 0.19737 0.0
C813 C 0.89486 0.47826 0.14746 0.0
C814 C 0.91234 0.5088 0.13449 0.0
H815 H 0.86119 0.45601 0.18852 0.0
H816 H 0.89826 0.45276 0.13404 0.0
S817 S 0.90859 0.60011 0.17288 0.0
N818 N 0.88362 0.57582 0.20002 0.0
N819 N 0.92344 0.57233 0.14174 0.0
C820 C 0.9079 0.54138 0.15259 0.0
C821 C 0.88648 0.54327 0.18403 0.0
C822 C 0.48101 0.89006 0.19568 0.0
C823 C 0.5 0.85769 0.19752 0.0
C824 C 0.48462 0.913 0.16621 0.0
C825 C 0.50703 0.90422 0.13733 0.0
H826 H 0.46387 0.89812 0.21764 0.0
H827 H 0.46993 0.93794 0.16618 0.0
S828 S 0.56188 0.82234 0.12852 0.0
N829 N 0.54163 0.8178 0.16766 0.0
N830 N 0.54771 0.86065 0.11169 0.0
C831 C 0.52509 0.87134 0.13807 0.0
C832 C 0.5217 0.8481 0.1683 0.0
C833 C 0.20346 0.52244 0.13002 0.0
C834 C 0.20445 0.50395 0.16291 0.0
C835 C 0.17267 0.52357 0.10915 0.0
C836 C 0.14124 0.50635 0.12014 0.0
H837 H 0.22657 0.53682 0.1205 0.0
H838 H 0.17362 0.53841 0.08412 0.0
S839 S 0.12976 0.45365 0.2039 0.0
N840 N 0.17134 0.46749 0.20551 0.0
N841 N 0.11307 0.46991 0.16616 0.0
C842 C 0.14159 0.48794 0.15314 0.0
C843 C 0.17324 0.48665 0.1745 0.0
C844 C 0.51859 0.82493 0.89902 0.0
C845 C 0.53279 0.82695 0.86408 0.0
C846 C 0.5174 0.85473 0.92143 0.0
C847 C 0.52922 0.88838 0.90968 0.0
H848 H 0.50778 0.80009 0.90923 0.0
H849 H 0.50652 0.85125 0.94817 0.0
S850 S 0.57059 0.9081 0.82125 0.0
N851 N 0.56083 0.86507 0.81929 0.0
N852 N 0.55705 0.92192 0.86117 0.0
C853 C 0.54355 0.89108 0.87479 0.0
C854 C 0.54553 0.86026 0.85203 0.0
C855 C 0.18004 0.50694 0.86249 0.0
C856 C 0.17162 0.52803 0.83229 0.0
C857 C 0.15765 0.50608 0.89266 0.0
C858 C 0.12606 0.52609 0.89337 0.0
H859 H 0.20328 0.48987 0.86218 0.0
H860 H 0.16431 0.48848 0.91482 0.0
S861 S 0.09529 0.5901 0.8237 0.0
N862 N 0.13203 0.57277 0.80692 0.0
N863 N 0.08972 0.57077 0.86324 0.0
C864 C 0.11848 0.54881 0.86422 0.0
C865 C 0.14133 0.54989 0.83376 0.0
C866 C 0.5084 0.1661 0.85893 0.0
C867 C 0.53713 0.16435 0.83476 0.0
C868 C 0.5065 0.14326 0.88874 0.0
C869 C 0.53298 0.11763 0.89497 0.0
H870 H 0.48645 0.18415 0.85391 0.0
H871 H 0.48348 0.14464 0.90616 0.0
S872 S 0.6163 0.10608 0.84354 0.0
N873 N 0.59472 0.13796 0.82186 0.0
N874 N 0.5905 0.09424 0.87744 0.0
C875 C 0.56261 0.11668 0.8722 0.0
C876 C 0.56485 0.14027 0.84218 0.0
C877 C 0.86561 0.48035 0.86196 0.0
C878 C 0.86888 0.5042 0.83269 0.0
C879 C 0.88346 0.48647 0.89459 0.0
C880 C 0.9051 0.51666 0.89908 0.0
H881 H 0.8501 0.45613 0.85922 0.0
H882 H 0.882 0.46643 0.91554 0.0
S883 S 0.91918 0.58941 0.83276 0.0
N884 N 0.89278 0.56091 0.8119 0.0
N885 N 0.92677 0.57198 0.87288 0.0
C886 C 0.90734 0.54144 0.87071 0.0
C887 C 0.88919 0.53531 0.8376 0.0
C888 C 0.7025 0.63355 1.00084 0.0
C889 C 0.70448 0.6635 0.02351 0.0
C890 C 0.67163 0.61295 0.99887 0.0
C891 C 0.64136 0.62145 0.01942 0.0
H892 H 0.72508 0.6258 0.98457 0.0
H893 H 0.67171 0.58975 0.98138 0.0
S894 S 0.63262 0.69737 0.08284 0.0
N895 N 0.67335 0.70097 0.06684 0.0
N896 N 0.61504 0.66216 0.06277 0.0
C897 C 0.64249 0.6519 0.04144 0.0
C898 C 0.67413 0.67291 0.04361 0.0
C899 C 0.40391 0.69156 0.9924 0.0
C900 C 0.37267 0.69383 0.01289 0.0
C901 C 0.42435 0.66032 0.992 0.0
C902 C 0.41444 0.62983 0.01181 0.0
H903 H 0.41262 0.71408 0.97634 0.0
H904 H 0.44841 0.66012 0.97615 0.0
S905 S 0.33541 0.62166 0.07037 0.0
N906 N 0.33292 0.66269 0.05401 0.0
N907 N 0.37145 0.60373 0.05262 0.0
C908 C 0.38299 0.63128 0.0319 0.0
C909 C 0.36213 0.66333 0.03261 0.0
C910 C 0.36804 0.35763 0.03386 0.0
C911 C 0.37288 0.32921 0.00931 0.0
C912 C 0.38811 0.38924 0.03134 0.0
C913 C 0.41381 0.39339 1.00431 0.0
H914 H 0.34935 0.35503 0.05583 0.0
H915 H 0.38468 0.40977 0.05163 0.0
S916 S 0.43364 0.32934 0.93081 0.0
N917 N 0.40283 0.3092 0.95499 0.0
N918 N 0.44106 0.36802 0.9509 0.0
C919 C 0.41791 0.3659 0.97885 0.0
C920 C 0.39737 0.33395 0.9812 0.0
C921 C 0.67687 0.3511 0.99837 0.0
C922 C 0.70565 0.35988 0.02102 0.0
C923 C 0.6453 0.37121 0.99874 0.0
C924 C 0.64155 0.40068 0.02187 0.0
H925 H 0.6792 0.32916 0.97946 0.0
H926 H 0.62447 0.36466 0.97977 0.0
S927 S 0.70697 0.43139 0.09008 0.0
N928 N 0.72679 0.39766 0.06964 0.0
N929 N 0.6678 0.4353 0.07059 0.0
C930 C 0.66945 0.40846 0.04593 0.0
C931 C 0.70145 0.38818 0.04541 0.0
C932 C 0.04516 0.69032 0.64231 0.0
C933 C 0.01752 0.69575 0.66719 0.0
C934 C 0.04637 0.65958 0.62091 0.0
C935 C 0.02035 0.63296 0.62413 0.0
H936 H 0.0658 0.71021 0.63906 0.0
H937 H 0.06762 0.65675 0.60148 0.0
S938 S 0.94169 0.63475 0.68365 0.0
N939 N 0.96278 0.67239 0.69267 0.0
N940 N 0.96591 0.61402 0.65306 0.0
C941 C 0.99298 0.6376 0.64919 0.0
C942 C 0.99136 0.66916 0.67063 0.0
C943 C 0.39454 0.0324 0.69019 0.0
C944 C 0.36764 1.00698 0.6953 0.0
C945 C 0.41475 0.03271 0.65867 0.0
C946 C 0.40933 1.00736 0.63139 0.0
H947 H 0.40003 0.05215 0.71079 0.0
H948 H 0.43498 0.0529 0.65556 0.0
S949 S 0.34071 0.93656 0.63054 0.0
N950 N 0.33497 0.95709 0.66952 0.0
N951 N 0.37392 0.95731 0.61037 0.0
C952 C 0.38157 0.98269 0.63533 0.0
C953 C 0.36057 0.98255 0.66739 0.0
C954 C 0.02635 0.35067 0.66985 0.0
C955 C 1.00257 0.3584 0.69791 0.0
C956 C 0.02913 0.37347 0.64002 0.0
C957 C 1.00844 0.40468 0.63775 0.0
H958 H 0.04388 0.32777 0.6717 0.0
H959 H 0.04858 0.36745 0.61942 0.0
S960 S 0.93844 0.43358 0.70155 0.0
N961 N 0.95503 0.39681 0.71948 0.0
N962 N 0.96079 0.44002 0.6639 0.0
C963 C 0.98328 0.41157 0.6647 0.0
C964 C 0.98017 0.38827 0.69468 0.0
C965 C 0.67369 0.02195 0.67171 0.0
C966 C 0.70222 0.99863 0.66397 0.0
C967 C 0.64208 0.02107 0.65163 0.0
C968 C 0.63811 0.99719 0.6228 0.0
H969 H 0.67622 0.042 0.69259 0.0
H970 H 0.62147 0.04042 0.65747 0.0
S971 S 0.70248 0.9279 0.59385 0.0
N972 N 0.72234 0.9484 0.62768 0.0
N973 N 0.66383 0.94812 0.58893 0.0
C974 C 0.66569 0.97293 0.61558 0.0
C975 C 0.69752 0.97334 0.63636 0.0
C976 C 0.99758 0.32986 0.39677 0.0
C977 C 0.01638 0.32874 0.3641 0.0
C978 C 0.99905 0.35983 0.41915 0.0
C979 C 0.01902 0.39011 0.4096 0.0
H980 H 0.98183 0.30718 0.40535 0.0
H981 H 0.98443 0.35918 0.44426 0.0
S982 S 0.0725 0.40127 0.32663 0.0
N983 N 0.05539 0.36076 0.32308 0.0
N984 N 0.05737 0.41768 0.36495 0.0
C985 C 0.03703 0.38998 0.37649 0.0
C986 C 0.03587 0.35916 0.35377 0.0
C987 C 0.64115 0.99434 0.33306 0.0
C988 C 0.67334 0.01323 0.33234 0.0
C989 C 0.61945 0.99484 0.3634 0.0
C990 C 0.62925 0.01357 0.39463 0.0
H991 H 0.63242 0.9792 0.30984 0.0
H992 H 0.59454 0.98056 0.36227 0.0
S993 S 0.71092 0.06715 0.40711 0.0
N994 N 0.71408 0.05143 0.36566 0.0
N995 N 0.67337 0.05121 0.42348 0.0
C996 C 0.66181 0.03174 0.39493 0.0
C997 C 0.68385 0.03178 0.36361 0.0
C998 C 0.99919 0.6663 0.36161 0.0
C999 C 0.02631 0.6646 0.33565 0.0
C1000 C 0.99966 0.64379 0.39177 0.0
C1001 C 0.027 0.61871 0.3965 0.0
H1002 H 0.97674 0.684 0.35779 0.0
H1003 H 0.97778 0.64493 0.41064 0.0
S1004 S 0.10693 0.60784 0.33972 0.0
N1005 N 0.08345 0.63912 0.31925 0.0
N1006 N 0.08363 0.59604 0.37543 0.0
C1007 C 0.0551 0.61799 0.37186 0.0
C1008 C 0.05494 0.64119 0.34153 0.0
C1009 C 0.35966 0.02012 0.35886 0.0
C1010 C 0.37105 0.9995 0.32918 0.0
C1011 C 0.37917 0.02096 0.39111 0.0
C1012 C 0.41068 1.00137 0.39459 0.0
H1013 H 0.33593 0.03636 0.35681 0.0
H1014 H 0.37043 0.03809 0.41276 0.0
S1015 S 0.44858 0.93865 0.32721 0.0
N1016 N 0.4134 0.9558 0.30712 0.0
N1017 N 0.45015 0.95753 0.36735 0.0
C1018 C 0.42118 0.97915 0.36585 0.0
C1019 C 0.40142 0.97827 0.33319 0.0
C1020 C 0.05018 0.19232 0.38901 0.0
C1021 C 0.0244 0.19576 0.36171 0.0
C1022 C 0.051 0.1624 0.41175 0.0
C1023 C 0.02652 0.13441 0.40766 0.0
H1024 H 0.06949 0.21333 0.39333 0.0
H1025 H 0.07081 0.16126 0.43287 0.0
S1026 S 0.95288 0.13054 0.3417 0.0
N1027 N 0.97303 0.16875 0.33289 0.0
N1028 N 0.97546 0.11198 0.37492 0.0
C1029 C 1.00114 0.13693 0.38009 0.0
C1030 C 0.99991 0.16768 0.35724 0.0
C1031 C 0.85759 0.9955 0.36596 0.0
C1032 C 0.86895 1.00188 0.33045 0.0
C1033 C 0.88053 1.00065 0.39542 0.0
C1034 C 0.91572 0.01249 0.3905 0.0
H1035 H 0.83121 0.98515 0.37093 0.0
H1036 H 0.87086 0.99419 0.42208 0.0
S1037 S 0.95673 0.03691 0.30267 0.0
N1038 N 0.91634 0.02358 0.29214 0.0
N1039 N 0.95955 0.03312 0.34682 0.0
C1040 C 0.92673 0.02046 0.35502 0.0
C1041 C 0.90336 0.0152 0.32522 0.0
C1042 C 0.98133 0.88404 0.34203 0.0
C1043 C 1.00837 0.86096 0.32978 0.0
C1044 C 0.98649 0.90662 0.37167 0.0
C1045 C 0.01861 0.90655 0.39072 0.0
H1046 H 0.95578 0.88462 0.3287 0.0
H1047 H 0.96507 0.92417 0.37989 0.0
S1048 S 0.09857 0.85316 0.36937 0.0
N1049 N 0.06933 0.84109 0.33853 0.0
N1050 N 0.07823 0.88266 0.39527 0.0
C1051 C 0.04585 0.88371 0.37924 0.0
C1052 C 0.0409 0.86106 0.34858 0.0
C1053 C 0.14997 0.01994 0.3364 0.0
C1054 C 0.18038 0.9985 0.33862 0.0
C1055 C 0.1293 0.02688 0.36683 0.0
C1056 C 0.13785 0.0122 0.40076 0.0
H1057 H 0.14161 0.03075 0.31069 0.0
H1058 H 0.10557 0.04288 0.36334 0.0
S1059 S 0.2163 0.95572 0.42105 0.0
N1060 N 0.21957 0.96424 0.37752 0.0
N1061 N 0.18017 0.97664 0.43491 0.0
C1062 C 0.16927 0.9921 0.40371 0.0
C1063 C 0.19061 0.98531 0.37257 0.0
C1064 C 0.9995 0.85701 0.67251 0.0
C1065 C 0.02383 0.82878 0.66777 0.0
C1066 C 0.99992 0.88707 0.64979 0.0
C1067 C 0.02435 0.88961 0.62131 0.0
H1068 H 0.97905 0.8552 0.6929 0.0
H1069 H 0.98006 0.90768 0.65358 0.0
S1070 S 0.09705 0.82598 0.60094 0.0
N1071 N 0.07592 0.80779 0.63529 0.0
N1072 N 0.07575 0.86351 0.59196 0.0
C1073 C 0.04986 0.86254 0.6174 0.0
C1074 C 0.04986 0.83234 0.64081 0.0
C1075 C 0.1393 1.00827 0.70191 0.0
C1076 C 0.17452 0.01992 0.69789 0.0
C1077 C 0.11688 1.00408 0.6721 0.0
C1078 C 0.12859 0.0115 0.63681 0.0
H1079 H 0.1288 1.00272 0.72847 0.0
H1080 H 0.08991 0.99542 0.67702 0.0
S1081 S 0.2188 0.04305 0.61178 0.0
N1082 N 0.22027 0.03886 0.65599 0.0
N1083 N 0.1784 0.03087 0.59983 0.0
C1084 C 0.16412 0.0225 0.63235 0.0
C1085 C 0.18698 0.02672 0.66284 0.0
C1086 C 0.99606 0.17285 0.66597 0.0
C1087 C 1.00728 0.16207 0.70048 0.0
C1088 C 1.001 0.1507 0.63577 0.0
C1089 C 0.01726 0.11695 0.63905 0.0
H1090 H 0.98205 0.19792 0.66253 0.0
H1091 H 0.99069 0.15947 0.61002 0.0
S1092 S 0.05672 0.07912 0.72246 0.0
N1093 N 0.03906 0.11745 0.73538 0.0
N1094 N 0.04844 0.0759 0.67894 0.0
C1095 C 0.03042 0.10688 0.6731 0.0
C1096 C 0.0254 0.12939 0.70371 0.0
C1097 C 0.8375 0.02756 0.63226 0.0
C1098 C 0.83574 1.00747 0.66428 0.0
C1099 C 0.86825 0.02829 0.61102 0.0
C1100 C 0.89906 1.00925 0.62082 0.0
H1101 H 0.81473 0.04286 0.6233 0.0
H1102 H 0.86775 0.04393 0.58648 0.0
S1103 S 0.90897 0.95254 0.70215 0.0
N1104 N 0.86796 0.96796 0.7048 0.0
N1105 N 0.92603 0.96997 0.66516 0.0
C1106 C 0.8982 0.9898 0.65325 0.0
C1107 C 0.86657 0.98877 0.67487 0.0
C1108 C 0.37903 0.03882 0.18388 0.0
C1109 C 0.36362 1.00613 0.19415 0.0
C1110 C 0.39871 0.04176 0.15186 0.0
C1111 C 0.40379 0.01215 0.12908 0.0
H1112 H 0.37653 0.06203 0.20115 0.0
H1113 H 0.41093 0.06709 0.14533 0.0
S1114 S 0.37005 0.92043 0.14444 0.0
N1115 N 0.35491 0.94357 0.1791 0.0
N1116 N 0.39239 0.94908 0.11931 0.0
C1117 C 0.38797 0.97956 0.13868 0.0
C1118 C 0.36777 0.97656 0.17115 0.0
C1119 C 1.00239 0.36069 0.17603 0.0
C1120 C 1.01232 0.32612 0.16491 0.0
C1121 C 1.00669 0.39037 0.15323 0.0
C1122 C 0.02105 0.38656 0.11843 0.0
H1123 H 0.98991 0.36462 0.20199 0.0
H1124 H 0.99742 0.4162 0.16248 0.0
S1125 S 0.05629 0.30251 0.07882 0.0
N1126 N 0.04066 0.2904 0.11849 0.0
N1127 N 0.0488 0.3459 0.07567 0.0
C1128 C 0.03279 0.35237 0.1078 0.0
C1129 C 0.0284 0.32225 0.131 0.0
C1130 C 0.64715 0.04313 0.19465 0.0
C1131 C 0.67519 0.01833 0.19816 0.0
C1132 C 0.624 0.04231 0.16508 0.0
C1133 C 0.6284 0.01728 0.13726 0.0
H1134 H 0.64249 0.06292 0.21541 0.0
H1135 H 0.60235 0.06136 0.16408 0.0
S1136 S 0.69755 0.94693 0.13234 0.0
N1137 N 0.70571 0.96784 0.17062 0.0
N1138 N 0.66318 0.96765 0.11427 0.0
C1139 C 0.65704 0.9933 0.13944 0.0
C1140 C 0.68024 0.99355 0.16998 0.0
C1141 C 1.00255 0.6278 0.20197 0.0
C1142 C 0.02039 0.66092 0.20233 0.0
C1143 C 1.00387 0.60515 0.17202 0.0
C1144 C 0.02207 0.61508 0.1406 0.0
H1145 H 0.98749 0.6191 0.22521 0.0
H1146 H 0.99018 0.57974 0.17342 0.0
S1147 S 0.0752 0.69757 0.12828 0.0
N1148 N 0.05878 0.70137 0.16927 0.0
N1149 N 0.05969 0.65952 0.11207 0.0
C1150 C 0.03986 0.64814 0.14033 0.0
C1151 C 0.03927 0.67092 0.17131 0.0
C1152 C 0.40157 0.02802 0.831 0.0
C1153 C 0.36977 1.00824 0.82977 0.0
C1154 C 0.42319 0.02825 0.8617 0.0
C1155 C 0.41381 1.00919 0.89292 0.0
H1156 H 0.41002 0.0435 0.8079 0.0
H1157 H 0.44755 0.0436 0.86095 0.0
S1158 S 0.33375 0.95273 0.90415 0.0
N1159 N 0.33033 0.96853 0.86276 0.0
N1160 N 0.37061 0.96989 0.9209 0.0
C1161 C 0.38178 0.98991 0.89258 0.0
C1162 C 0.35986 0.98925 0.86098 0.0
C1163 C 0.02674 0.35247 0.85937 0.0
C1164 C 1.00378 0.35987 0.83047 0.0
C1165 C 0.02937 0.37605 0.88876 0.0
C1166 C 1.00954 0.408 0.88987 0.0
H1167 H 0.04365 0.32905 0.85866 0.0
H1168 H 0.04788 0.36983 0.91019 0.0
S1169 S 0.94189 0.43698 0.82354 0.0
N1170 N 0.95767 0.39918 0.80711 0.0
N1171 N 0.96376 0.44394 0.8614 0.0
C1172 C 0.98544 0.41486 0.86193 0.0
C1173 C 0.98223 0.39065 0.83253 0.0
C1174 C 0.70561 1.00721 0.89718 0.0
C1175 C 0.70116 0.0131 0.86004 0.0
C1176 C 0.67649 1.00304 0.92023 0.0
C1177 C 0.64133 1.00438 0.90732 0.0
H1178 H 0.73196 1.00672 0.90885 0.0
H1179 H 0.68184 0.99963 0.94866 0.0
S1180 S 0.61503 0.0142 0.81133 0.0
N1181 N 0.65872 0.01704 0.81082 0.0
N1182 N 0.60401 1.00806 0.85388 0.0
C1183 C 0.63648 1.0078 0.8698 0.0
C1184 C 0.66629 0.01238 0.84627 0.0
C1185 C 0.99783 0.66419 0.85253 0.0
C1186 C 1.00612 0.69894 0.86443 0.0
C1187 C 1.0021 0.63443 0.87525 0.0
C1188 C 0.01456 0.63834 0.91081 0.0
H1189 H 0.98679 0.66012 0.82592 0.0
H1190 H 0.9945 0.60837 0.86521 0.0
S1191 S 0.04584 0.72314 0.9523 0.0
N1192 N 0.03151 0.73506 0.9121 0.0
N1193 N 0.03944 0.67955 0.95494 0.0
C1194 C 0.02489 0.67281 0.92215 0.0
C1195 C 0.02064 0.70296 0.89897 0.0
C1196 C 0.14452 0.33195 1.00178 0.0
C1197 C 0.17826 0.33582 0.01747 0.0
C1198 C 0.12187 0.36134 0.99698 0.0
C1199 C 0.13173 0.39613 0.00779 0.0
H1200 H 0.13515 0.30571 0.99388 0.0
H1201 H 0.09593 0.35642 0.98543 0.0
S1202 S 0.21782 0.42088 0.04966 0.0
N1203 N 0.22097 0.37731 0.04303 0.0
N1204 N 0.17845 0.43266 0.03413 0.0
C1205 C 0.16602 0.40064 0.02234 0.0
C1206 C 0.18921 0.37053 0.02715 0.0
C1207 C 0.18731 0.65445 0.99525 0.0
C1208 C 0.17679 0.69007 1.0014 0.0
C1209 C 0.16369 0.62572 1.00092 0.0
C1210 C 0.12863 0.6315 0.01303 0.0
H1211 H 0.21346 0.64886 0.98456 0.0
H1212 H 0.17267 0.59895 0.99456 0.0
S1213 S 0.09014 0.72012 0.03732 0.0
N1214 N 0.13058 0.72941 0.02336 0.0
N1215 N 0.0862 0.67631 0.03397 0.0
C1216 C 0.11866 0.66715 0.02098 0.0
C1217 C 0.14269 0.69612 0.01519 0.0
C1218 C 0.39556 0.18995 0.98492 0.0
C1219 C 0.3676 0.1943 0.00978 0.0
C1220 C 0.41625 0.15866 0.98397 0.0
C1221 C 0.4097 0.12977 0.00735 0.0
H1222 H 0.40205 0.21126 0.96631 0.0
H1223 H 0.43807 0.15733 0.96505 0.0
S1224 S 0.33983 0.12659 0.07745 0.0
N1225 N 0.33466 0.16626 0.05857 0.0
N1226 N 0.37291 0.10717 0.05581 0.0
C1227 C 0.3811 0.13295 0.03145 0.0
C1228 C 0.36023 0.16517 0.03286 0.0
C1229 C 0.84154 0.38571 0.98723 0.0
C1230 C 0.83891 0.35572 0.01003 0.0
C1231 C 0.87224 0.40687 0.98623 0.0
C1232 C 0.90218 0.39872 0.00735 0.0
H1233 H 0.81932 0.3935 0.97048 0.0
H1234 H 0.87224 0.43041 0.96928 0.0
S1235 S 0.91017 0.32289 0.07101 0.0
N1236 N 0.86977 0.31885 0.0542 0.0
N1237 N 0.92787 0.3581 0.05107 0.0
C1238 C 0.9008 0.36802 0.02908 0.0
C1239 C 0.86916 0.34665 0.03067 0.0
C1240 C 0.67685 0.85581 0.04822 0.0
C1241 C 0.69902 0.85649 0.01763 0.0
C1242 C 0.64533 0.8761 0.0495 0.0
C1243 C 0.63505 0.89742 0.02013 0.0
H1244 H 0.68461 0.84062 0.07177 0.0
H1245 H 0.62983 0.87635 0.07405 0.0
S1246 S 0.68099 0.90503 0.93236 0.0
N1247 N 0.70617 0.87764 0.95612 0.0
N1248 N 0.64762 0.91598 0.95893 0.0
C1249 C 0.65601 0.89698 0.98897 0.0
C1250 C 0.6878 0.87644 0.98758 0.0
C1251 C 0.86654 0.675 0.0146 0.0
C1252 C 0.83732 0.66547 0.03639 0.0
C1253 C 0.89746 0.65372 0.01321 0.0
C1254 C 0.90007 0.62187 0.03319 0.0
H1255 H 0.86493 0.69818 0.9972 0.0
H1256 H 0.91858 0.66123 0.99497 0.0
S1257 S 0.83384 0.58778 0.09863 0.0
N1258 N 0.81559 0.62444 0.08217 0.0
N1259 N 0.87241 0.58375 0.07802 0.0
C1260 C 0.87193 0.61309 0.05642 0.0
C1261 C 0.84093 0.63502 0.05842 0.0
C1262 C 0.36186 0.85489 0.03619 0.0
C1263 C 0.36698 0.82828 0.00975 0.0
C1264 C 0.38222 0.88671 0.03621 0.0
C1265 C 0.40829 0.893 0.00977 0.0
H1266 H 0.34294 0.8505 0.05766 0.0
H1267 H 0.37861 0.90572 0.05786 0.0
S1268 S 0.42757 0.83455 0.93153 0.0
N1269 N 0.39712 0.81244 0.95438 0.0
N1270 N 0.43501 0.87172 0.95437 0.0
C1271 C 0.41209 0.86747 0.98224 0.0
C1272 C 0.39155 0.8353 0.98224 0.0
C1273 C 0.66753 0.17596 0.03017 0.0
C1274 C 0.69976 0.16552 0.01402 0.0
C1275 C 0.63704 0.15432 0.02772 0.0
C1276 C 0.63791 0.12156 0.00909 0.0
H1277 H 0.6664 0.20007 0.04629 0.0
H1278 H 0.61332 0.16232 0.04208 0.0
S1279 S 0.7139 0.08566 0.95677 0.0
N1280 N 0.72927 0.12279 0.97506 0.0
N1281 N 0.67232 0.08227 0.97028 0.0
C1282 C 0.66929 0.11224 0.99078 0.0
C1283 C 0.70012 0.13416 0.99331 0.0
C1284 C 0.51527 0.6968 0.89636 0.0
C1285 C 0.53127 0.69547 0.86213 0.0
C1286 C 0.51465 0.66704 0.919 0.0
C1287 C 0.52921 0.63415 0.90826 0.0
H1288 H 0.50307 0.72126 0.90595 0.0
H1289 H 0.50248 0.66997 0.9452 0.0
S1290 S 0.57411 0.61593 0.82122 0.0
N1291 N 0.56232 0.65842 0.81855 0.0
N1292 N 0.56007 0.60174 0.86084 0.0
C1293 C 0.54462 0.63195 0.87375 0.0
C1294 C 0.54579 0.6627 0.85074 0.0
C1295 C 0.40213 0.51137 0.82886 0.0
C1296 C 0.3679 0.52595 0.83261 0.0
C1297 C 0.42491 0.50776 0.85847 0.0
C1298 C 0.41446 0.51842 0.89326 0.0
H1299 H 0.41163 0.50309 0.80263 0.0
H1300 H 0.45112 0.49674 0.8539 0.0
S1301 S 0.32747 0.55819 0.91774 0.0
N1302 N 0.32458 0.55109 0.87396 0.0
N1303 N 0.36718 0.54384 0.92976 0.0
C1304 C 0.37992 0.53215 0.89764 0.0
C1305 C 0.35673 0.53601 0.86733 0.0
C1306 C 0.51195 0.34694 0.8646 0.0
C1307 C 0.51701 0.35902 0.82909 0.0
C1308 C 0.51686 0.3699 0.89416 0.0
C1309 C 0.52682 0.4059 0.88936 0.0
H1310 H 0.50277 0.31993 0.86953 0.0
H1311 H 0.51157 0.35959 0.92084 0.0
S1312 S 0.54952 0.44858 0.80189 0.0
N1313 N 0.53682 0.40776 0.79097 0.0
N1314 N 0.5461 0.45094 0.84612 0.0
C1315 C 0.53412 0.41756 0.85398 0.0
C1316 C 0.52912 0.39416 0.82398 0.0
C1317 C 0.64815 0.5096 0.83481 0.0
C1318 C 0.67981 0.49032 0.83852 0.0
C1319 C 0.62749 0.51818 0.86482 0.0
C1320 C 0.63724 0.5073 0.8999 0.0
H1321 H 0.63899 0.51766 0.80837 0.0
H1322 H 0.60297 0.53255 0.86012 0.0
S1323 S 0.71893 0.45724 0.92392 0.0
N1324 N 0.7212 0.46189 0.87975 0.0
N1325 N 0.68186 0.4773 0.93641 0.0
C1326 C 0.66969 0.48914 0.90411 0.0
C1327 C 0.69102 0.48074 0.87337 0.0
C1328 C 0.54471 0.3296 0.13869 0.0
C1329 C 0.52089 0.32723 0.16781 0.0
C1330 C 0.54478 0.3593 0.11569 0.0
C1331 C 0.52143 0.38809 0.12122 0.0
H1332 H 0.56306 0.30796 0.13321 0.0
H1333 H 0.56321 0.35967 0.09332 0.0
S1334 S 0.45343 0.39493 0.19287 0.0
N1335 N 0.47289 0.3561 0.20035 0.0
N1336 N 0.47384 0.41252 0.15776 0.0
C1337 C 0.49814 0.38662 0.1507 0.0
C1338 C 0.49771 0.35609 0.17387 0.0
C1339 C 0.64164 0.51315 0.20128 0.0
C1340 C 0.67659 0.52536 0.1965 0.0
C1341 C 0.61912 0.50718 0.17183 0.0
C1342 C 0.63043 0.51331 0.13617 0.0
H1343 H 0.63138 0.50868 0.22814 0.0
H1344 H 0.59233 0.49831 0.17733 0.0
S1345 S 0.72017 0.5447 0.10909 0.0
N1346 N 0.7219 0.54273 0.15345 0.0
N1347 N 0.67987 0.53142 0.098 0.0
C1348 C 0.66584 0.52448 0.13097 0.0
C1349 C 0.6888 0.53051 0.16109 0.0
C1350 C 0.5277 0.66483 0.17695 0.0
C1351 C 0.49796 0.66015 0.19954 0.0
C1352 C 0.53288 0.64317 0.14641 0.0
C1353 C 0.50877 0.61583 0.13781 0.0
H1354 H 0.54757 0.68472 0.1834 0.0
H1355 H 0.55643 0.64703 0.13016 0.0
S1356 S 0.42451 0.59546 0.18481 0.0
N1357 N 0.44213 0.62851 0.20825 0.0
N1358 N 0.45288 0.58704 0.15206 0.0
C1359 C 0.47849 0.61162 0.1593 0.0
C1360 C 0.47283 0.63395 0.18986 0.0
C1361 C 0.33693 0.52342 0.13052 0.0
C1362 C 0.33704 0.51095 0.16633 0.0
C1363 C 0.36746 0.52285 0.10912 0.0
C1364 C 0.40033 0.51052 0.12234 0.0
H1365 H 0.31284 0.53382 0.11854 0.0
H1366 H 0.36498 0.53229 0.08169 0.0
S1367 S 0.41693 0.47939 0.21575 0.0
N1368 N 0.37399 0.48802 0.21491 0.0
N1369 N 0.43189 0.48872 0.17505 0.0
C1370 C 0.40161 0.49988 0.15874 0.0
C1371 C 0.37002 0.49978 0.18057 0.0
C1372 C 0.88943 0.53084 0.69294 0.0
C1373 C 0.86483 0.50282 0.69683 0.0
C1374 C 0.90952 0.5348 0.6615 0.0
C1375 C 0.90555 0.51156 0.63203 0.0
H1376 H 0.8939 0.54953 0.71476 0.0
H1377 H 0.92922 0.55571 0.66066 0.0
S1378 S 0.8449 0.43378 0.62772 0.0
N1379 N 0.83768 0.45113 0.66797 0.0
N1380 N 0.87492 0.45958 0.6084 0.0
C1381 C 0.88012 0.48425 0.63471 0.0
C1382 C 0.85987 0.47972 0.66714 0.0
C1383 C 0.50167 0.86078 0.67859 0.0
C1384 C 0.50676 0.82543 0.66669 0.0
C1385 C 0.50658 0.88993 0.65525 0.0
C1386 C 0.51678 0.88479 0.61913 0.0
H1387 H 0.49261 0.86588 0.70578 0.0
H1388 H 0.50118 0.91655 0.66536 0.0
S1389 S 0.5383 0.79733 0.57656 0.0
N1390 N 0.52594 0.78696 0.61786 0.0
N1391 N 0.53513 0.84126 0.57386 0.0
C1392 C 0.52357 0.84947 0.60753 0.0
C1393 C 0.51857 0.81994 0.63132 0.0
C1394 C 0.18189 0.53018 0.66943 0.0
C1395 C 0.17472 0.50853 0.69964 0.0
C1396 C 0.15959 0.52976 0.63906 0.0
C1397 C 0.12898 0.50832 0.63821 0.0
H1398 H 0.20387 0.54881 0.66991 0.0
H1399 H 0.16541 0.54755 0.61684 0.0
S1400 S 0.10212 0.44174 0.70689 0.0
N1401 N 0.13791 0.46078 0.72391 0.0
N1402 N 0.09528 0.46146 0.66774 0.0
C1403 C 0.12278 0.48495 0.6671 0.0
C1404 C 0.14583 0.48471 0.69756 0.0
C1405 C 0.53827 0.17066 0.66824 0.0
C1406 C 0.52586 0.15923 0.70215 0.0
C1407 C 0.53662 0.14808 0.63785 0.0
C1408 C 0.5232 0.11297 0.64039 0.0
H1409 H 0.55001 0.19691 0.6653 0.0
H1410 H 0.54682 0.15787 0.61245 0.0
S1411 S 0.48406 0.07137 0.72213 0.0
N1412 N 0.49562 0.11187 0.73503 0.0
N1413 N 0.4961 0.0686 0.67957 0.0
C1414 C 0.51027 0.10156 0.67404 0.0
C1415 C 0.51061 0.12487 0.7044 0.0
C1416 C 0.90412 0.53224 0.33205 0.0
C1417 C 0.86996 0.51692 0.33134 0.0
C1418 C 0.92558 0.53062 0.36279 0.0
C1419 C 0.91382 0.51422 0.39473 0.0
H1420 H 0.91465 0.54556 0.30849 0.0
H1421 H 0.95177 0.54246 0.3614 0.0
S1422 S 0.82566 0.47241 0.40845 0.0
N1423 N 0.82496 0.48573 0.36613 0.0
N1424 N 0.86481 0.48418 0.42451 0.0
C1425 C 0.87915 0.50023 0.39516 0.0
C1426 C 0.85739 0.50127 0.36342 0.0
C1427 C 0.53863 0.88465 0.33152 0.0
C1428 C 0.51363 0.85667 0.33032 0.0
C1429 C 0.54061 0.90778 0.36108 0.0
C1430 C 0.51817 0.90344 0.39085 0.0
H1431 H 0.55633 0.88922 0.30901 0.0
H1432 H 0.55975 0.92927 0.36058 0.0
S1433 S 0.44781 0.835 0.40125 0.0
N1434 N 0.46554 0.82641 0.36152 0.0
N1435 N 0.47018 0.86928 0.41766 0.0
C1436 C 0.49377 0.87503 0.39062 0.0
C1437 C 0.49133 0.85174 0.36026 0.0
C1438 C 0.20457 0.52172 0.39665 0.0
C1439 C 0.19945 0.52509 0.35929 0.0
C1440 C 0.17618 0.51527 0.42009 0.0
C1441 C 0.14108 0.51166 0.40741 0.0
H1442 H 0.23082 0.52479 0.40814 0.0
H1443 H 0.18198 0.51399 0.4486 0.0
S1444 S 0.11364 0.51403 0.31125 0.0
N1445 N 0.15672 0.52186 0.31026 0.0
N1446 N 0.10347 0.50863 0.35412 0.0
C1447 C 0.13578 0.51289 0.3698 0.0
C1448 C 0.16484 0.51979 0.34584 0.0
C1449 C 0.53304 0.17201 0.36219 0.0
C1450 C 0.50438 0.19601 0.36602 0.0
C1451 C 0.53551 0.14096 0.38345 0.0
C1452 C 0.5097 0.13321 0.40954 0.0
H1453 H 0.55419 0.17771 0.34334 0.0
H1454 H 0.55837 0.12365 0.38037 0.0
S1455 S 0.42736 0.18425 0.4274 0.0
N1456 N 0.44768 0.20718 0.39551 0.0
N1457 N 0.4535 0.14996 0.43637 0.0
C1458 C 0.4805 0.15617 0.41295 0.0
C1459 C 0.47755 0.18728 0.39097 0.0
C1460 C 0.67717 0.85352 0.49274 0.0
C1461 C 0.67667 0.833 0.52462 0.0
C1462 C 0.65484 0.88356 0.48851 0.0
C1463 C 0.63125 0.89382 0.51595 0.0
H1464 H 0.69395 0.84559 0.47047 0.0
H1465 H 0.6551 0.898 0.46324 0.0
S1466 S 0.62325 0.85277 0.60628 0.0
N1467 N 0.65342 0.82825 0.58556 0.0
N1468 N 0.6108 0.8834 0.57687 0.0
C1469 C 0.63156 0.87456 0.54831 0.0
C1470 C 0.65448 0.84454 0.55286 0.0
C1471 C 0.67923 0.16294 0.5348 0.0
C1472 C 0.67555 0.18825 0.50686 0.0
C1473 C 0.65702 0.13258 0.53675 0.0
C1474 C 0.63025 0.12674 0.51098 0.0
H1475 H 0.69845 0.1673 0.55602 0.0
H1476 H 0.65985 0.1144 0.55926 0.0
S1477 S 0.61304 0.18147 0.42972 0.0
N1478 N 0.64574 0.20242 0.45046 0.0
N1479 N 0.60352 0.14653 0.45509 0.0
C1480 C 0.62743 0.15078 0.48216 0.0
C1481 C 0.6502 0.18118 0.47982 0.0
C1482 C 0.86038 0.66535 0.49366 0.0
C1483 C 0.86884 0.69473 0.516 0.0
C1484 C 0.88059 0.6334 0.49447 0.0
C1485 C 0.9099 0.62973 0.51773 0.0
H1486 H 0.8388 0.66752 0.47454 0.0
H1487 H 0.87421 0.61217 0.47572 0.0
S1488 S 0.93966 0.69626 0.58555 0.0
N1489 N 0.90614 0.71596 0.56492 0.0
N1490 N 0.94387 0.65676 0.56619 0.0
C1491 C 0.91729 0.65815 0.54145 0.0
C1492 C 0.89688 0.69037 0.54067 0.0
C1493 C 0.36672 0.84759 0.52514 0.0
C1494 C 0.33873 0.85476 0.50085 0.0
C1495 C 0.39802 0.8683 0.52531 0.0
C1496 C 0.40236 0.89704 0.50132 0.0
H1497 H 0.36375 0.82692 0.54534 0.0
H1498 H 0.41802 0.86302 0.54558 0.0
S1499 S 0.34011 0.92354 0.42871 0.0
N1500 N 0.31995 0.89003 0.4492 0.0
N1501 N 0.378 0.92923 0.45027 0.0
C1502 C 0.37562 0.90317 0.47566 0.0
C1503 C 0.34404 0.882 0.47522 0.0
C1504 C 0.16809 0.34559 0.50995 0.0
C1505 C 0.20028 0.35628 0.52599 0.0
C1506 C 0.13754 0.36724 0.51204 0.0
C1507 C 0.1383 0.40022 0.53028 0.0
H1508 H 0.16702 0.32127 0.49414 0.0
H1509 H 0.1139 0.35904 0.49768 0.0
S1510 S 0.2143 0.43684 0.58225 0.0
N1511 N 0.22977 0.39956 0.56431 0.0
N1512 N 0.17266 0.43991 0.56882 0.0
C1513 C 0.16967 0.40973 0.54862 0.0
C1514 C 0.20059 0.38788 0.54629 0.0
C1515 C 0.36692 0.17031 0.54562 0.0
C1516 C 0.33801 0.16461 0.52216 0.0
C1517 C 0.39792 0.14902 0.54354 0.0
C1518 C 0.40096 0.12136 0.51793 0.0
H1519 H 0.36504 0.19043 0.5665 0.0
H1520 H 0.41888 0.1532 0.56304 0.0
S1521 S 0.33539 0.10001 0.4465 0.0
N1522 N 0.31657 0.13241 0.46981 0.0
N1523 N 0.37405 0.09259 0.46604 0.0
C1524 C 0.37307 0.11702 0.49311 0.0
C1525 C 0.34185 0.13856 0.49517 0.0
C1526 C 0.89978 0.32917 0.54149 0.0
C1527 C 0.86783 0.32722 0.52186 0.0
C1528 C 0.92066 0.36032 0.54184 0.0
C1529 C 0.91064 0.39147 0.5229 0.0
H1530 H 0.90919 0.30617 0.55641 0.0
H1531 H 0.94532 0.35969 0.55682 0.0
S1532 S 0.82827 0.40177 0.4693 0.0
N1533 N 0.82656 0.36019 0.484 0.0
N1534 N 0.86526 0.41896 0.48569 0.0
C1535 C 0.87791 0.39068 0.50468 0.0
C1536 C 0.85672 0.35863 0.50392 0.0
C1537 C 0.18068 0.66345 0.49496 0.0
C1538 C 0.19809 0.66741 0.52832 0.0
C1539 C 0.14978 0.64247 0.49184 0.0
C1540 C 0.1353 0.62519 0.52204 0.0
H1541 H 0.19178 0.67545 0.47095 0.0
H1542 H 0.13805 0.63856 0.4655 0.0
S1543 S 0.16783 0.63079 0.61591 0.0
N1544 N 0.19629 0.65504 0.59256 0.0
N1545 N 0.13869 0.61555 0.58646 0.0
C1546 C 0.1514 0.63034 0.55564 0.0
C1547 C 0.18267 0.65152 0.55886 0.0
loop_
_geom_bond_atom_site_label_1
_geom_bond_atom_site_label_2
_geom_bond_distance
_geom_bond_site_symmetry_2
_ccdc_geom_bond_type
H0 C1 0.949 . S
C1 H0 0.949 . S
C1 C2 1.395 . S
C1 C3 1.389 1_455 S
C2 C1 1.395 . S
C2 C5 1.390 . S
C3 C1 1.389 1_655 S
C3 C7 1.385 1_655 S
C3 C8 1.497 . S
H4 C5 0.950 . S
C5 C2 1.390 . S
C5 H4 0.950 . S
C5 C6 1.378 . S
C6 C5 1.378 . S
C6 C7 1.409 . S
C7 C3 1.385 1_455 S
C7 C6 1.409 . S
C7 H9 0.953 . S
C8 C3 1.497 . S
C8 C10 1.382 1_655 S
C8 C12 1.404 . S
H9 C7 0.953 . S
C10 C8 1.382 1_455 S
C10 C11 1.390 1_455 S
C10 H15 0.949 . S
C11 C10 1.390 1_655 S
C11 C16 1.399 . S
C12 C8 1.404 . S
C12 H13 0.950 . S
C12 C14 1.375 . S
H13 C12 0.950 . S
C14 C12 1.375 . S
C14 C16 1.382 . S
C14 H18 0.950 . S
H15 C10 0.949 . S
C16 C11 1.399 . S
C16 C14 1.382 . S
C16 H17 0.952 . S
H17 C16 0.952 . S
H18 C14 0.950 . S
H19 C20 0.949 . S
C20 H19 0.949 . S
C20 C21 1.397 . S
C20 C22 1.391 . S
C21 C20 1.397 . S
C21 C24 1.389 1_545 S
C22 C20 1.391 . S
C22 C26 1.387 . S
C22 C27 1.491 . S
H23 C24 0.950 . S
C24 C21 1.389 1_565 S
C24 H23 0.950 . S
C24 C25 1.376 1_565 S
C25 C24 1.376 1_545 S
C25 C26 1.415 . S
C26 C22 1.387 . S
C26 C25 1.415 . S
C26 H28 0.951 . S
C27 C22 1.491 . S
C27 C29 1.382 . S
C27 C31 1.404 . S
H28 C26 0.951 . S
C29 C27 1.382 . S
C29 C30 1.390 . S
C29 H34 0.949 1_545 S
C30 C29 1.390 . S
C30 C35 1.399 . S
C31 C27 1.404 . S
C31 H32 0.950 . S
C31 C33 1.375 . S
H32 C31 0.950 . S
C33 C31 1.375 . S
C33 C35 1.382 . S
C33 H37 0.950 . S
H34 C29 0.949 1_565 S
C35 C30 1.399 . S
C35 C33 1.382 . S
C35 H36 0.952 . S
H36 C35 0.952 . S
H37 C33 0.950 . S
H38 C39 0.949 . S
C39 H38 0.949 . S
C39 C40 1.395 . S
C39 C41 1.389 1_455 S
C40 C39 1.395 . S
C40 C43 1.390 . S
C41 C39 1.389 1_655 S
C41 C45 1.386 1_655 S
C41 C46 1.494 . S
H42 C43 0.950 . S
C43 C40 1.390 . S
C43 H42 0.950 . S
C43 C44 1.378 . S
C44 C43 1.378 . S
C44 C45 1.409 . S
C45 C41 1.386 1_455 S
C45 C44 1.409 . S
C45 H47 0.950 1_455 S
C46 C41 1.494 . S
C46 C48 1.382 1_655 S
C46 C50 1.404 . S
H47 C45 0.950 1_655 S
C48 C46 1.382 1_455 S
C48 C49 1.390 . S
C48 H53 0.949 . S
C49 C48 1.390 . S
C49 C54 1.399 1_455 S
C50 C46 1.404 . S
C50 H51 0.950 . S
C50 C52 1.375 . S
H51 C50 0.950 . S
C52 C50 1.375 . S
C52 C54 1.382 . S
C52 H56 0.950 . S
H53 C48 0.949 . S
C54 C49 1.399 1_655 S
C54 C52 1.382 . S
C54 H55 0.952 . S
H55 C54 0.952 . S
H56 C52 0.950 . S
H57 C58 0.949 . S
C58 H57 0.949 . S
C58 C59 1.394 1_565 S
C58 C60 1.391 . S
C59 C58 1.394 1_545 S
C59 C62 1.391 . S
C60 C58 1.391 . S
C60 C64 1.387 . S
C60 C65 1.491 . S
H61 C62 0.950 . S
C62 C59 1.391 . S
C62 H61 0.950 . S
C62 C63 1.378 1_545 S
C63 C62 1.378 1_565 S
C63 C64 1.409 . S
C64 C60 1.387 . S
C64 C63 1.409 . S
C64 H66 0.951 . S
C65 C60 1.491 . S
C65 C67 1.382 . S
C65 C69 1.404 . S
H66 C64 0.951 . S
C67 C65 1.382 . S
C67 C68 1.390 . S
C67 H72 0.949 1_565 S
C68 C67 1.390 . S
C68 C73 1.399 . S
C69 C65 1.404 . S
C69 H70 0.950 . S
C69 C71 1.375 . S
H70 C69 0.950 . S
C71 C69 1.375 . S
C71 C73 1.382 . S
C71 H75 0.950 . S
H72 C67 0.949 1_545 S
C73 C68 1.399 . S
C73 C71 1.382 . S
C73 H74 0.952 . S
H74 C73 0.952 . S
H75 C71 0.950 . S
H76 C77 0.949 . S
C77 H76 0.949 . S
C77 C78 1.395 . S
C77 C79 1.389 1_455 S
C78 C77 1.395 . S
C78 C81 1.390 . S
C79 C77 1.389 1_655 S
C79 C83 1.386 1_655 S
C79 C84 1.496 . S
H80 C81 0.950 . S
C81 C78 1.390 . S
C81 H80 0.950 . S
C81 C82 1.378 . S
C82 C81 1.378 . S
C82 C83 1.409 . S
C83 C79 1.386 1_455 S
C83 C82 1.409 . S
C83 H85 0.953 . S
C84 C79 1.496 . S
C84 C86 1.382 1_655 S
C84 C88 1.404 . S
H85 C83 0.953 . S
C86 C84 1.382 1_455 S
C86 C87 1.390 1_455 S
C86 H91 0.949 . S
C87 C86 1.390 1_655 S
C87 C92 1.399 . S
C88 C84 1.404 . S
C88 H89 0.950 . S
C88 C90 1.375 . S
H89 C88 0.950 . S
C90 C88 1.375 . S
C90 C92 1.382 . S
C90 H94 0.950 . S
H91 C86 0.949 . S
C92 C87 1.399 . S
C92 C90 1.382 . S
C92 H93 0.952 . S
H93 C92 0.952 . S
H94 C90 0.950 . S
H95 C96 0.949 . S
C96 H95 0.949 . S
C96 C97 1.400 . S
C96 C98 1.391 . S
C97 C96 1.400 . S
C97 C100 1.388 1_545 S
C98 C96 1.391 . S
C98 C102 1.387 . S
C98 C103 1.491 . S
H99 C100 0.950 . S
C100 C97 1.388 1_565 S
C100 H99 0.950 . S
C100 C101 1.378 1_565 S
C101 C100 1.378 1_545 S
C101 C102 1.409 . S
C102 C98 1.387 . S
C102 C101 1.409 . S
C102 H104 0.951 . S
C103 C98 1.491 . S
C103 C105 1.382 . S
C103 C107 1.404 . S
H104 C102 0.951 . S
C105 C103 1.382 . S
C105 C106 1.390 . S
C105 H110 0.949 1_545 S
C106 C105 1.390 . S
C106 C111 1.399 . S
C107 C103 1.404 . S
C107 H108 0.950 . S
C107 C109 1.375 . S
H108 C107 0.950 . S
C109 C107 1.375 . S
C109 C111 1.382 . S
C109 H113 0.950 . S
H110 C105 0.949 1_565 S
C111 C106 1.399 . S
C111 C109 1.382 . S
C111 H112 0.952 . S
H112 C111 0.952 . S
H113 C109 0.950 . S
H114 C115 0.949 . S
C115 H114 0.949 . S
C115 C116 1.395 . S
C115 C117 1.391 1_455 S
C116 C115 1.395 . S
C116 C119 1.390 . S
C117 C115 1.391 1_655 S
C117 C121 1.387 1_655 S
C117 C122 1.492 . S
H118 C119 0.950 . S
C119 C116 1.390 . S
C119 H118 0.950 . S
C119 C120 1.378 . S
C120 C119 1.378 . S
C120 C121 1.409 . S
C121 C117 1.387 1_455 S
C121 C120 1.409 . S
C121 H123 0.951 1_455 S
C122 C117 1.492 . S
C122 C124 1.382 1_655 S
C122 C126 1.404 . S
H123 C121 0.951 1_655 S
C124 C122 1.382 1_455 S
C124 C125 1.390 . S
C124 H129 0.949 . S
C125 C124 1.390 . S
C125 C130 1.399 1_455 S
C126 C122 1.404 . S
C126 H127 0.950 . S
C126 C128 1.375 . S
H127 C126 0.950 . S
C128 C126 1.375 . S
C128 C130 1.382 . S
C128 H132 0.950 . S
H129 C124 0.949 . S
C130 C125 1.399 1_655 S
C130 C128 1.382 . S
C130 H131 0.952 . S
H131 C130 0.952 . S
H132 C128 0.950 . S
H133 C134 0.949 . S
C134 H133 0.949 . S
C134 C135 1.398 . S
C134 C136 1.391 . S
C135 C134 1.398 . S
C135 C138 1.389 1_545 S
C136 C134 1.391 . S
C136 C140 1.387 . S
C136 C141 1.491 . S
H137 C138 0.950 . S
C138 C135 1.389 1_565 S
C138 H137 0.950 . S
C138 C139 1.378 1_565 S
C139 C138 1.378 1_545 S
C139 C140 1.409 . S
C140 C136 1.387 . S
C140 C139 1.409 . S
C140 H142 0.951 . S
C141 C136 1.491 . S
C141 C143 1.382 . S
C141 C145 1.404 . S
H142 C140 0.951 . S
C143 C141 1.382 . S
C143 C144 1.390 . S
C143 H148 0.949 1_545 S
C144 C143 1.390 . S
C144 C149 1.399 . S
C145 C141 1.404 . S
C145 H146 0.950 . S
C145 C147 1.375 . S
H146 C145 0.950 . S
C147 C145 1.375 . S
C147 C149 1.382 . S
C147 H151 0.950 . S
H148 C143 0.949 1_565 S
C149 C144 1.399 . S
C149 C147 1.382 . S
C149 H150 0.952 . S
H150 C149 0.952 . S
H151 C147 0.950 . S
H152 C153 0.949 . S
C153 H152 0.949 . S
C153 C154 1.395 . S
C153 C155 1.391 . S
C154 C153 1.395 . S
C154 C157 1.390 . S
C155 C153 1.391 . S
C155 C159 1.387 . S
C155 C160 1.491 . S
H156 C157 0.950 . S
C157 C154 1.390 . S
C157 H156 0.950 . S
C157 C158 1.378 . S
C158 C157 1.378 . S
C158 C159 1.409 . S
C159 C155 1.387 . S
C159 C158 1.409 . S
C159 H161 0.951 . S
C160 C155 1.491 . S
C160 C162 1.382 . S
C160 C164 1.404 . S
H161 C159 0.951 . S
C162 C160 1.382 . S
C162 C163 1.390 . S
C162 H167 0.949 1_554 S
C163 C162 1.390 . S
C163 C168 1.399 . S
C164 C160 1.404 . S
C164 H165 0.950 . S
C164 C166 1.375 . S
H165 C164 0.950 . S
C166 C164 1.375 . S
C166 C168 1.382 . S
C166 H170 0.950 . S
H167 C162 0.949 1_556 S
C168 C163 1.399 . S
C168 C166 1.382 . S
C168 H169 0.952 . S
H169 C168 0.952 . S
H170 C166 0.950 . S
H171 C172 0.949 . S
C172 H171 0.949 . S
C172 C173 1.395 . S
C172 C174 1.390 1_554 S
C173 C172 1.395 . S
C173 C176 1.390 . S
C174 C172 1.390 1_556 S
C174 C178 1.386 1_556 S
C174 C179 1.494 . S
H175 C176 0.950 . S
C176 C173 1.390 . S
C176 H175 0.950 . S
C176 C177 1.378 . S
C177 C176 1.378 . S
C177 C178 1.409 . S
C178 C174 1.386 1_554 S
C178 C177 1.409 . S
C178 H180 0.954 . S
C179 C174 1.494 . S
C179 C181 1.382 1_556 S
C179 C183 1.404 . S
H180 C178 0.954 . S
C181 C179 1.382 1_554 S
C181 C182 1.390 1_554 S
C181 H186 0.949 . S
C182 C181 1.390 1_556 S
C182 C187 1.399 . S
C183 C179 1.404 . S
C183 H184 0.950 . S
C183 C185 1.375 . S
H184 C183 0.950 . S
C185 C183 1.375 . S
C185 C187 1.382 . S
C185 H189 0.950 . S
H186 C181 0.949 . S
C187 C182 1.399 . S
C187 C185 1.382 . S
C187 H188 0.952 . S
H188 C187 0.952 . S
H189 C185 0.950 . S
H190 C191 0.949 . S
C191 H190 0.949 . S
C191 C192 1.395 . S
C191 C193 1.391 . S
C192 C191 1.395 . S
C192 C195 1.390 . S
C193 C191 1.391 . S
C193 C197 1.387 . S
C193 C198 1.491 . S
H194 C195 0.950 . S
C195 C192 1.390 . S
C195 H194 0.950 . S
C195 C196 1.378 . S
C196 C195 1.378 . S
C196 C197 1.409 . S
C197 C193 1.387 . S
C197 C196 1.409 . S
C197 H199 0.951 . S
C198 C193 1.491 . S
C198 C200 1.382 . S
C198 C202 1.404 . S
H199 C197 0.951 . S
C200 C198 1.382 . S
C200 C201 1.390 . S
C200 H205 0.949 1_554 S
C201 C200 1.390 . S
C201 C206 1.399 . S
C202 C198 1.404 . S
C202 H203 0.950 . S
C202 C204 1.375 . S
H203 C202 0.950 . S
C204 C202 1.375 . S
C204 C206 1.382 . S
C204 H208 0.950 . S
H205 C200 0.949 1_556 S
C206 C201 1.399 . S
C206 C204 1.382 . S
C206 H207 0.952 . S
H207 C206 0.952 . S
H208 C204 0.950 . S
H209 C210 0.949 . S
C210 H209 0.949 . S
C210 C211 1.395 . S
C210 C212 1.391 1_554 S
C211 C210 1.395 . S
C211 C214 1.390 . S
C212 C210 1.391 1_556 S
C212 C216 1.387 1_556 S
C212 C217 1.492 . S
H213 C214 0.950 . S
C214 C211 1.390 . S
C214 H213 0.950 . S
C214 C215 1.378 . S
C215 C214 1.378 . S
C215 C216 1.409 . S
C216 C212 1.387 1_554 S
C216 C215 1.409 . S
C216 H218 0.951 1_554 S
C217 C212 1.492 . S
C217 C219 1.382 1_556 S
C217 C221 1.404 . S
H218 C216 0.951 1_556 S
C219 C217 1.382 1_554 S
C219 C220 1.390 . S
C219 H224 0.949 . S
C220 C219 1.390 . S
C220 C225 1.399 1_554 S
C221 C217 1.404 . S
C221 H222 0.950 . S
C221 C223 1.375 . S
H222 C221 0.950 . S
C223 C221 1.375 . S
C223 C225 1.382 . S
C223 H227 0.950 . S
H224 C219 0.949 . S
C225 C220 1.399 1_556 S
C225 C223 1.382 . S
C225 H226 0.952 . S
H226 C225 0.952 . S
H227 C223 0.950 . S
H228 C229 0.949 . S
C229 H228 0.949 . S
C229 C230 1.395 . S
C229 C231 1.391 . S
C230 C229 1.395 . S
C230 C233 1.390 . S
C231 C229 1.391 . S
C231 C235 1.387 . S
C231 C236 1.491 . S
H232 C233 0.950 . S
C233 C230 1.390 . S
C233 H232 0.950 . S
C233 C234 1.378 . S
C234 C233 1.378 . S
C234 C235 1.409 . S
C235 C231 1.387 . S
C235 C234 1.409 . S
C235 H237 0.951 . S
C236 C231 1.491 . S
C236 C238 1.382 . S
C236 C240 1.404 . S
H237 C235 0.951 . S
C238 C236 1.382 . S
C238 C239 1.390 . S
C238 H243 0.949 . S
C239 C238 1.390 . S
C239 C244 1.399 . S
C240 C236 1.404 . S
C240 H241 0.950 . S
C240 C242 1.375 . S
H241 C240 0.950 . S
C242 C240 1.375 . S
C242 C244 1.382 . S
C242 H246 0.950 . S
H243 C238 0.949 . S
C244 C239 1.399 . S
C244 C242 1.382 . S
C244 H245 0.952 . S
H245 C244 0.952 . S
H246 C242 0.950 . S
H247 C248 0.949 . S
C248 H247 0.949 . S
C248 C249 1.395 . S
C248 C250 1.391 . S
C249 C248 1.395 . S
C249 C252 1.390 . S
C250 C248 1.391 . S
C250 C254 1.387 . S
C250 C255 1.491 . S
H251 C252 0.950 . S
C252 C249 1.390 . S
C252 H251 0.950 . S
C252 C253 1.378 . S
C253 C252 1.378 . S
C253 C254 1.409 . S
C254 C250 1.387 . S
C254 C253 1.409 . S
C254 H256 0.951 . S
C255 C250 1.491 . S
C255 C257 1.382 . S
C255 C259 1.404 . S
H256 C254 0.951 . S
C257 C255 1.382 . S
C257 C258 1.390 . S
C257 H262 0.949 . S
C258 C257 1.390 . S
C258 C263 1.399 . S
C259 C255 1.404 . S
C259 H260 0.950 . S
C259 C261 1.375 . S
H260 C259 0.950 . S
C261 C259 1.375 . S
C261 C263 1.382 . S
C261 H265 0.950 . S
H262 C257 0.949 . S
C263 C258 1.399 . S
C263 C261 1.382 . S
C263 H264 0.952 . S
H264 C263 0.952 . S
H265 C261 0.950 . S
H266 C267 0.949 . S
C267 H266 0.949 . S
C267 C268 1.395 . S
C267 C269 1.391 . S
C268 C267 1.395 . S
C268 C271 1.390 . S
C269 C267 1.391 . S
C269 C273 1.387 . S
C269 C274 1.491 . S
H270 C271 0.950 . S
C271 C268 1.390 . S
C271 H270 0.950 . S
C271 C272 1.378 . S
C272 C271 1.378 . S
C272 C273 1.409 . S
C273 C269 1.387 . S
C273 C272 1.409 . S
C273 H275 0.951 . S
C274 C269 1.491 . S
C274 C276 1.382 . S
C274 C278 1.404 . S
H275 C273 0.951 . S
C276 C274 1.382 . S
C276 C277 1.390 . S
C276 H281 0.949 . S
C277 C276 1.390 . S
C277 C282 1.399 . S
C278 C274 1.404 . S
C278 H279 0.950 . S
C278 C280 1.375 . S
H279 C278 0.950 . S
C280 C278 1.375 . S
C280 C282 1.382 . S
C280 H284 0.950 . S
H281 C276 0.949 . S
C282 C277 1.399 . S
C282 C280 1.382 . S
C282 H283 0.952 . S
H283 C282 0.952 . S
H284 C280 0.950 . S
H285 C286 0.949 . S
C286 H285 0.949 . S
C286 C287 1.395 . S
C286 C288 1.391 . S
C287 C286 1.395 . S
C287 C290 1.390 . S
C288 C286 1.391 . S
C288 C292 1.387 . S
C288 C293 1.491 . S
H289 C290 0.950 . S
C290 C287 1.390 . S
C290 H289 0.950 . S
C290 C291 1.378 . S
C291 C290 1.378 . S
C291 C292 1.409 . S
C292 C288 1.387 . S
C292 C291 1.409 . S
C292 H294 0.951 . S
C293 C288 1.491 . S
C293 C295 1.382 . S
C293 C297 1.404 . S
H294 C292 0.951 . S
C295 C293 1.382 . S
C295 C296 1.390 . S
C295 H300 0.949 . S
C296 C295 1.390 . S
C296 C301 1.399 . S
C297 C293 1.404 . S
C297 H298 0.950 . S
C297 C299 1.375 . S
H298 C297 0.950 . S
C299 C297 1.375 . S
C299 C301 1.382 . S
C299 H303 0.950 . S
H300 C295 0.949 . S
C301 C296 1.399 . S
C301 C299 1.382 . S
C301 H302 0.952 . S
H302 C301 0.952 . S
H303 C299 0.950 . S
H304 C305 0.949 . S
C305 H304 0.949 . S
C305 C306 1.395 . S
C305 C307 1.391 . S
C306 C305 1.395 . S
C306 C309 1.390 . S
C307 C305 1.391 . S
C307 C311 1.387 . S
C307 C312 1.491 . S
H308 C309 0.950 . S
C309 C306 1.390 . S
C309 H308 0.950 . S
C309 C310 1.378 . S
C310 C309 1.378 . S
C310 C311 1.409 . S
C311 C307 1.387 . S
C311 C310 1.409 . S
C311 H313 0.951 . S
C312 C307 1.491 . S
C312 C314 1.382 . S
C312 C316 1.404 . S
H313 C311 0.951 . S
C314 C312 1.382 . S
C314 C315 1.390 . S
C314 H319 0.949 . S
C315 C314 1.390 . S
C315 C320 1.399 . S
C316 C312 1.404 . S
C316 H317 0.950 . S
C316 C318 1.375 . S
H317 C316 0.950 . S
C318 C316 1.375 . S
C318 C320 1.382 . S
C318 H322 0.950 . S
H319 C314 0.949 . S
C320 C315 1.399 . S
C320 C318 1.382 . S
C320 H321 0.952 . S
H321 C320 0.952 . S
H322 C318 0.950 . S
H323 C324 0.949 . S
C324 H323 0.949 . S
C324 C325 1.395 . S
C324 C326 1.391 . S
C325 C324 1.395 . S
C325 C328 1.390 . S
C326 C324 1.391 . S
C326 C330 1.387 . S
C326 C331 1.491 . S
H327 C328 0.950 . S
C328 C325 1.390 . S
C328 H327 0.950 . S
C328 C329 1.378 . S
C329 C328 1.378 . S
C329 C330 1.409 . S
C330 C326 1.387 . S
C330 C329 1.409 . S
C330 H332 0.951 . S
C331 C326 1.491 . S
C331 C333 1.382 . S
C331 C335 1.404 . S
H332 C330 0.951 . S
C333 C331 1.382 . S
C333 C334 1.390 . S
C333 H338 0.949 . S
C334 C333 1.390 . S
C334 C339 1.399 . S
C335 C331 1.404 . S
C335 H336 0.950 . S
C335 C337 1.375 . S
H336 C335 0.950 . S
C337 C335 1.375 . S
C337 C339 1.382 . S
C337 H341 0.950 . S
H338 C333 0.949 . S
C339 C334 1.399 . S
C339 C337 1.382 . S
C339 H340 0.952 . S
H340 C339 0.952 . S
H341 C337 0.950 . S
H342 C343 0.949 . S
C343 H342 0.949 . S
C343 C344 1.395 . S
C343 C345 1.391 . S
C344 C343 1.395 . S
C344 C347 1.390 . S
C345 C343 1.391 . S
C345 C349 1.387 . S
C345 C350 1.491 . S
H346 C347 0.950 . S
C347 C344 1.390 . S
C347 H346 0.950 . S
C347 C348 1.378 . S
C348 C347 1.378 . S
C348 C349 1.409 . S
C349 C345 1.387 . S
C349 C348 1.409 . S
C349 H351 0.951 . S
C350 C345 1.491 . S
C350 C352 1.382 . S
C350 C354 1.404 . S
H351 C349 0.951 . S
C352 C350 1.382 . S
C352 C353 1.390 . S
C352 H357 0.949 . S
C353 C352 1.390 . S
C353 C358 1.399 . S
C354 C350 1.404 . S
C354 H355 0.950 . S
C354 C356 1.375 . S
H355 C354 0.950 . S
C356 C354 1.375 . S
C356 C358 1.382 . S
C356 H360 0.950 . S
H357 C352 0.949 . S
C358 C353 1.399 . S
C358 C356 1.382 . S
C358 H359 0.952 . S
H359 C358 0.952 . S
H360 C356 0.950 . S
H361 C362 0.949 . S
C362 H361 0.949 . S
C362 C363 1.395 . S
C362 C364 1.391 . S
C363 C362 1.395 . S
C363 C366 1.390 . S
C364 C362 1.391 . S
C364 C368 1.387 . S
C364 C369 1.491 . S
H365 C366 0.950 . S
C366 C363 1.390 . S
C366 H365 0.950 . S
C366 C367 1.378 . S
C367 C366 1.378 . S
C367 C368 1.409 . S
C368 C364 1.387 . S
C368 C367 1.409 . S
C368 H370 0.951 . S
C369 C364 1.491 . S
C369 C371 1.382 . S
C369 C373 1.404 . S
H370 C368 0.951 . S
C371 C369 1.382 . S
C371 C372 1.390 . S
C371 H376 0.949 . S
C372 C371 1.390 . S
C372 C377 1.399 . S
C373 C369 1.404 . S
C373 H374 0.950 . S
C373 C375 1.375 . S
H374 C373 0.950 . S
C375 C373 1.375 . S
C375 C377 1.382 . S
C375 H379 0.950 . S
H376 C371 0.949 . S
C377 C372 1.399 . S
C377 C375 1.382 . S
C377 H378 0.952 . S
H378 C377 0.952 . S
H379 C375 0.950 . S
H380 C381 0.949 . S
C381 H380 0.949 . S
C381 C382 1.395 . S
C381 C383 1.391 . S
C382 C381 1.395 . S
C382 C385 1.390 . S
C383 C381 1.391 . S
C383 C387 1.387 . S
C383 C388 1.491 . S
H384 C385 0.950 . S
C385 C382 1.390 . S
C385 H384 0.950 . S
C385 C386 1.378 . S
C386 C385 1.378 . S
C386 C387 1.409 . S
C387 C383 1.387 . S
C387 C386 1.409 . S
C387 H389 0.951 . S
C388 C383 1.491 . S
C388 C390 1.382 . S
C388 C392 1.404 . S
H389 C387 0.951 . S
C390 C388 1.382 . S
C390 C391 1.390 . S
C390 H395 0.949 . S
C391 C390 1.390 . S
C391 C396 1.399 . S
C392 C388 1.404 . S
C392 H393 0.950 . S
C392 C394 1.375 . S
H393 C392 0.950 . S
C394 C392 1.375 . S
C394 C396 1.382 . S
C394 H398 0.950 . S
H395 C390 0.949 . S
C396 C391 1.399 . S
C396 C394 1.382 . S
C396 H397 0.952 . S
H397 C396 0.952 . S
H398 C394 0.950 . S
H399 C400 0.949 . S
C400 H399 0.949 . S
C400 C401 1.395 . S
C400 C402 1.391 . S
C401 C400 1.395 . S
C401 C404 1.390 . S
C402 C400 1.391 . S
C402 C406 1.387 . S
C402 C407 1.491 . S
H403 C404 0.950 . S
C404 C401 1.390 . S
C404 H403 0.950 . S
C404 C405 1.378 . S
C405 C404 1.378 . S
C405 C406 1.409 . S
C406 C402 1.387 . S
C406 C405 1.409 . S
C406 H408 0.951 . S
C407 C402 1.491 . S
C407 C409 1.382 . S
C407 C411 1.404 . S
H408 C406 0.951 . S
C409 C407 1.382 . S
C409 C410 1.390 . S
C409 H414 0.949 . S
C410 C409 1.390 . S
C410 C415 1.399 . S
C411 C407 1.404 . S
C411 H412 0.950 . S
C411 C413 1.375 . S
H412 C411 0.950 . S
C413 C411 1.375 . S
C413 C415 1.382 . S
C413 H417 0.950 . S
H414 C409 0.949 . S
C415 C410 1.399 . S
C415 C413 1.382 . S
C415 H416 0.952 . S
H416 C415 0.952 . S
H417 C413 0.950 . S
H418 C419 0.949 . S
C419 H418 0.949 . S
C419 C420 1.395 . S
C419 C421 1.391 . S
C420 C419 1.395 . S
C420 C423 1.390 . S
C421 C419 1.391 . S
C421 C425 1.387 . S
C421 C426 1.491 . S
H422 C423 0.950 . S
C423 C420 1.390 . S
C423 H422 0.950 . S
C423 C424 1.378 . S
C424 C423 1.378 . S
C424 C425 1.409 . S
C425 C421 1.387 . S
C425 C424 1.409 . S
C425 H427 0.951 . S
C426 C421 1.491 . S
C426 C428 1.382 . S
C426 C430 1.404 . S
H427 C425 0.951 . S
C428 C426 1.382 . S
C428 C429 1.390 . S
C428 H433 0.949 . S
C429 C428 1.390 . S
C429 C434 1.399 . S
C430 C426 1.404 . S
C430 H431 0.950 . S
C430 C432 1.375 . S
H431 C430 0.950 . S
C432 C430 1.375 . S
C432 C434 1.382 . S
C432 H436 0.950 . S
H433 C428 0.949 . S
C434 C429 1.399 . S
C434 C432 1.382 . S
C434 H435 0.952 . S
H435 C434 0.952 . S
H436 C432 0.950 . S
H437 C438 0.949 . S
C438 H437 0.949 . S
C438 C439 1.395 . S
C438 C440 1.391 . S
C439 C438 1.395 . S
C439 C442 1.390 . S
C440 C438 1.391 . S
C440 C444 1.387 . S
C440 C445 1.491 . S
H441 C442 0.950 . S
C442 C439 1.390 . S
C442 H441 0.950 . S
C442 C443 1.378 . S
C443 C442 1.378 . S
C443 C444 1.409 . S
C444 C440 1.387 . S
C444 C443 1.409 . S
C444 H446 0.951 . S
C445 C440 1.491 . S
C445 C447 1.382 . S
C445 C449 1.404 . S
H446 C444 0.951 . S
C447 C445 1.382 . S
C447 C448 1.390 . S
C447 H452 0.949 . S
C448 C447 1.390 . S
C448 C453 1.399 . S
C449 C445 1.404 . S
C449 H450 0.950 . S
C449 C451 1.375 . S
H450 C449 0.950 . S
C451 C449 1.375 . S
C451 C453 1.382 . S
C451 H455 0.950 . S
H452 C447 0.949 . S
C453 C448 1.399 . S
C453 C451 1.382 . S
C453 H454 0.952 . S
H454 C453 0.952 . S
H455 C451 0.950 . S
C456 O482 1.283 . S
C456 O500 1.283 . S
C457 O483 1.283 . S
C457 O498 1.283 . S
C458 O484 1.283 . S
C458 O501 1.283 . S
C459 O485 1.283 . S
C459 O499 1.283 . S
C460 O486 1.283 . S
C460 O495 1.283 . S
C461 O487 1.283 . S
C461 O497 1.283 . S
C462 O488 1.283 . S
C462 O494 1.283 . S
C463 O489 1.283 . S
C463 O496 1.283 . S
C464 O490 1.283 . S
C464 O505 1.283 . S
C465 O491 1.283 . S
C465 O503 1.283 . S
C466 O492 1.283 . S
C466 O504 1.283 . S
C467 O493 1.283 . S
C467 O502 1.283 . S
Eu468 O469 2.370 1_455 S
Eu468 O470 2.370 . S
Eu468 O473 2.370 1_455 S
Eu468 O474 2.370 . S
Eu468 O482 2.363 . S
Eu468 O483 2.363 . S
Eu468 O496 2.363 . S
Eu468 O497 2.363 1_455 S
O469 Eu468 2.370 1_655 S
O469 Eu471 2.359 1_565 S
O469 Eu476 2.359 1_665 S
O470 Eu468 2.370 . S
O470 Eu472 2.359 1_565 S
O470 Eu475 2.359 1_565 S
Eu471 O469 2.359 1_545 S
Eu471 O473 2.359 1_545 S
Eu471 O477 2.381 . S
Eu471 O478 2.381 . S
Eu471 O486 2.382 . S
Eu471 O487 2.344 1_545 S
Eu471 O502 2.363 . S
Eu471 O503 2.363 . S
Eu472 O470 2.359 1_545 S
Eu472 O474 2.359 1_545 S
Eu472 O479 2.381 . S
Eu472 O480 2.381 . S
Eu472 O488 2.381 . S
Eu472 O489 2.345 1_545 S
Eu472 O504 2.363 . S
Eu472 O505 2.363 . S
O473 Eu468 2.370 1_655 S
O473 Eu471 2.359 1_565 S
O473 Eu475 2.359 1_665 S
O474 Eu468 2.370 . S
O474 Eu472 2.359 1_565 S
O474 Eu476 2.359 1_565 S
Eu475 O470 2.359 1_545 S
Eu475 O473 2.359 1_445 S
Eu475 O477 2.381 1_455 S
Eu475 O480 2.381 . S
Eu475 O492 2.363 . S
Eu475 O493 2.363 1_455 S
Eu475 O500 2.345 1_545 S
Eu475 O501 2.381 . S
Eu476 O469 2.359 1_445 S
Eu476 O474 2.359 1_545 S
Eu476 O478 2.381 1_455 S
Eu476 O479 2.381 . S
Eu476 O490 2.363 . S
Eu476 O491 2.363 1_455 S
Eu476 O498 2.344 1_545 S
Eu476 O499 2.382 . S
O477 Eu471 2.381 . S
O477 Eu475 2.381 1_655 S
O477 Eu481 2.370 1_655 S
O478 Eu471 2.381 . S
O478 Eu476 2.381 1_655 S
O478 Eu481 2.370 1_655 S
O479 Eu472 2.381 . S
O479 Eu476 2.381 . S
O479 Eu481 2.370 . S
O480 Eu472 2.381 . S
O480 Eu475 2.381 . S
O480 Eu481 2.370 . S
Eu481 O477 2.370 1_455 S
Eu481 O478 2.370 1_455 S
Eu481 O479 2.370 . S
Eu481 O480 2.370 . S
Eu481 O484 2.363 . S
Eu481 O485 2.363 . S
Eu481 O494 2.363 . S
Eu481 O495 2.363 1_455 S
O482 C456 1.283 . S
O482 Eu468 2.363 . S
O483 C457 1.283 . S
O483 Eu468 2.363 . S
O484 C458 1.283 . S
O484 Eu481 2.363 . S
O485 C459 1.283 . S
O485 Eu481 2.363 . S
O486 C460 1.283 . S
O486 Eu471 2.382 . S
O487 C461 1.283 . S
O487 Eu471 2.344 1_565 S
O488 C462 1.283 . S
O488 Eu472 2.381 . S
O489 C463 1.283 . S
O489 Eu472 2.345 1_565 S
O490 C464 1.283 . S
O490 Eu476 2.363 . S
O491 C465 1.283 . S
O491 Eu476 2.363 1_655 S
O492 C466 1.283 . S
O492 Eu475 2.363 . S
O493 C467 1.283 . S
O493 Eu475 2.363 1_655 S
O494 C462 1.283 . S
O494 Eu481 2.363 . S
O495 C460 1.283 . S
O495 Eu481 2.363 1_655 S
O496 C463 1.283 . S
O496 Eu468 2.363 . S
O497 C461 1.283 . S
O497 Eu468 2.363 1_655 S
O498 C457 1.283 . S
O498 Eu476 2.344 1_565 S
O499 C459 1.283 . S
O499 Eu476 2.382 . S
O500 C456 1.283 . S
O500 Eu475 2.345 1_565 S
O501 C458 1.283 . S
O501 Eu475 2.381 . S
O502 C467 1.283 . S
O502 Eu471 2.363 . S
O503 C465 1.283 . S
O503 Eu471 2.363 . S
O504 C466 1.283 . S
O504 Eu472 2.363 . S
O505 C464 1.283 . S
O505 Eu472 2.363 . S
C506 O532 1.283 . S
C506 O550 1.283 . S
C507 O533 1.283 . S
C507 O548 1.283 . S
C508 O534 1.283 . S
C508 O551 1.283 . S
C509 O535 1.283 . S
C509 O549 1.283 . S
C510 O536 1.283 . S
C510 O545 1.283 . S
C511 O537 1.283 . S
C511 O547 1.283 . S
C512 O538 1.283 . S
C512 O544 1.283 . S
C513 O539 1.283 . S
C513 O546 1.283 . S
C514 O540 1.283 . S
C514 O555 1.283 . S
C515 O541 1.283 . S
C515 O553 1.283 . S
C516 O542 1.283 . S
C516 O554 1.283 . S
C517 O543 1.283 . S
C517 O552 1.283 . S
Eu518 O519 2.388 . S
Eu518 O520 2.353 1_545 S
Eu518 O523 2.353 1_545 S
Eu518 O524 2.388 . S
Eu518 O532 2.334 1_545 S
Eu518 O533 2.392 . S
Eu518 O546 2.363 . S
Eu518 O547 2.363 . S
O519 Eu518 2.388 . S
O519 Eu521 2.380 . S
O519 Eu526 2.370 . S
O520 Eu518 2.353 1_565 S
O520 Eu522 2.360 1_565 S
O520 Eu525 2.370 . S
Eu521 O519 2.380 . S
Eu521 O523 2.360 1_545 S
Eu521 O527 2.360 1_544 S
Eu521 O528 2.380 1_554 S
Eu521 O536 2.363 1_554 S
Eu521 O537 2.363 . S
Eu521 O552 2.346 1_545 S
Eu521 O553 2.380 . S
Eu522 O520 2.360 1_545 S
Eu522 O524 2.381 . S
Eu522 O529 2.381 1_554 S
Eu522 O530 2.360 1_544 S
Eu522 O538 2.363 1_554 S
Eu522 O539 2.363 . S
Eu522 O554 2.345 1_545 S
Eu522 O555 2.381 . S
O523 Eu518 2.353 1_565 S
O523 Eu521 2.360 1_565 S
O523 Eu525 2.370 . S
O524 Eu518 2.388 . S
O524 Eu522 2.381 . S
O524 Eu526 2.370 . S
Eu525 O520 2.370 . S
Eu525 O523 2.370 . S
Eu525 O527 2.370 1_554 S
Eu525 O530 2.370 1_554 S
Eu525 O542 2.363 . S
Eu525 O543 2.363 . S
Eu525 O550 2.363 . S
Eu525 O551 2.363 1_554 S
Eu526 O519 2.370 . S
Eu526 O524 2.370 . S
Eu526 O528 2.370 1_554 S
Eu526 O529 2.370 1_554 S
Eu526 O540 2.363 . S
Eu526 O541 2.363 . S
Eu526 O548 2.363 . S
Eu526 O549 2.363 1_554 S
O527 Eu521 2.360 1_566 S
O527 Eu525 2.370 1_556 S
O527 Eu531 2.367 1_565 S
O528 Eu521 2.380 1_556 S
O528 Eu526 2.370 1_556 S
O528 Eu531 2.374 . S
O529 Eu522 2.381 1_556 S
O529 Eu526 2.370 1_556 S
O529 Eu531 2.374 . S
O530 Eu522 2.360 1_566 S
O530 Eu525 2.370 1_556 S
O530 Eu531 2.367 1_565 S
Eu531 O527 2.367 1_545 S
Eu531 O528 2.374 . S
Eu531 O529 2.374 . S
Eu531 O530 2.367 1_545 S
Eu531 O534 2.357 1_545 S
Eu531 O535 2.369 . S
Eu531 O544 2.363 . S
Eu531 O545 2.363 . S
O532 C506 1.283 . S
O532 Eu518 2.334 1_565 S
O533 C507 1.283 . S
O533 Eu518 2.392 . S
O534 C508 1.283 . S
O534 Eu531 2.357 1_565 S
O535 C509 1.283 . S
O535 Eu531 2.369 . S
O536 C510 1.283 . S
O536 Eu521 2.363 1_556 S
O537 C511 1.283 . S
O537 Eu521 2.363 . S
O538 C512 1.283 . S
O538 Eu522 2.363 1_556 S
O539 C513 1.283 . S
O539 Eu522 2.363 . S
O540 C514 1.283 . S
O540 Eu526 2.363 . S
O541 C515 1.283 . S
O541 Eu526 2.363 . S
O542 C516 1.283 . S
O542 Eu525 2.363 . S
O543 C517 1.283 . S
O543 Eu525 2.363 . S
O544 C512 1.283 . S
O544 Eu531 2.363 . S
O545 C510 1.283 . S
O545 Eu531 2.363 . S
O546 C513 1.283 . S
O546 Eu518 2.363 . S
O547 C511 1.283 . S
O547 Eu518 2.363 . S
O548 C507 1.283 . S
O548 Eu526 2.363 . S
O549 C509 1.283 . S
O549 Eu526 2.363 1_556 S
O550 C506 1.283 . S
O550 Eu525 2.363 . S
O551 C508 1.283 . S
O551 Eu525 2.363 1_556 S
O552 C517 1.283 . S
O552 Eu521 2.346 1_565 S
O553 C515 1.283 . S
O553 Eu521 2.380 . S
O554 C516 1.283 . S
O554 Eu522 2.345 1_565 S
O555 C514 1.283 . S
O555 Eu522 2.381 . S
C556 O582 1.283 . S
C556 O600 1.283 . S
C557 O583 1.283 . S
C557 O598 1.283 . S
C558 O584 1.283 . S
C558 O601 1.283 . S
C559 O585 1.283 . S
C559 O599 1.283 . S
C560 O586 1.283 . S
C560 O595 1.283 . S
C561 O587 1.283 . S
C561 O597 1.283 . S
C562 O588 1.283 . S
C562 O594 1.283 . S
C563 O589 1.283 . S
C563 O596 1.283 . S
C564 O590 1.283 . S
C564 O605 1.283 . S
C565 O591 1.283 . S
C565 O603 1.283 . S
C566 O592 1.283 . S
C566 O604 1.283 . S
C567 O593 1.283 . S
C567 O602 1.283 . S
Eu568 O569 2.370 1_454 S
Eu568 O570 2.370 . S
Eu568 O573 2.370 1_455 S
Eu568 O574 2.370 1_554 S
Eu568 O582 2.363 . S
Eu568 O583 2.363 1_554 S
Eu568 O596 2.363 . S
Eu568 O597 2.363 1_455 S
O569 Eu568 2.370 1_656 S
O569 Eu571 2.370 1_556 S
O569 Eu576 2.370 1_655 S
O570 Eu568 2.370 . S
O570 Eu572 2.370 . S
O570 Eu575 2.370 . S
Eu571 O569 2.370 1_554 S
Eu571 O573 2.370 . S
Eu571 O577 2.370 . S
Eu571 O578 2.370 1_554 S
Eu571 O586 2.363 . S
Eu571 O587 2.363 . S
Eu571 O602 2.363 . S
Eu571 O603 2.363 1_554 S
Eu572 O570 2.370 . S
Eu572 O574 2.370 1_554 S
Eu572 O579 2.370 1_554 S
Eu572 O580 2.370 . S
Eu572 O588 2.363 . S
Eu572 O589 2.363 . S
Eu572 O604 2.363 . S
Eu572 O605 2.363 1_554 S
O573 Eu568 2.370 1_655 S
O573 Eu571 2.370 . S
O573 Eu575 2.370 1_655 S
O574 Eu568 2.370 1_556 S
O574 Eu572 2.370 1_556 S
O574 Eu576 2.370 . S
Eu575 O570 2.370 . S
Eu575 O573 2.370 1_455 S
Eu575 O577 2.370 1_455 S
Eu575 O580 2.370 . S
Eu575 O592 2.363 . S
Eu575 O593 2.363 1_455 S
Eu575 O600 2.363 . S
Eu575 O601 2.363 . S
Eu576 O569 2.370 1_455 S
Eu576 O574 2.370 . S
Eu576 O578 2.370 1_455 S
Eu576 O579 2.370 . S
Eu576 O590 2.363 . S
Eu576 O591 2.363 1_455 S
Eu576 O598 2.363 . S
Eu576 O599 2.363 . S
O577 Eu571 2.370 . S
O577 Eu575 2.370 1_655 S
O577 Eu581 2.370 1_655 S
O578 Eu571 2.370 1_556 S
O578 Eu576 2.370 1_655 S
O578 Eu581 2.370 1_656 S
O579 Eu572 2.370 1_556 S
O579 Eu576 2.370 . S
O579 Eu581 2.370 1_556 S
O580 Eu572 2.370 . S
O580 Eu575 2.370 . S
O580 Eu581 2.370 . S
Eu581 O577 2.370 1_455 S
Eu581 O578 2.370 1_454 S
Eu581 O579 2.370 1_554 S
Eu581 O580 2.370 . S
Eu581 O584 2.363 . S
Eu581 O585 2.363 1_554 S
Eu581 O594 2.363 . S
Eu581 O595 2.363 1_455 S
O582 C556 1.283 . S
O582 Eu568 2.363 . S
O583 C557 1.283 . S
O583 Eu568 2.363 1_556 S
O584 C558 1.283 . S
O584 Eu581 2.363 . S
O585 C559 1.283 . S
O585 Eu581 2.363 1_556 S
O586 C560 1.283 . S
O586 Eu571 2.363 . S
O587 C561 1.283 . S
O587 Eu571 2.363 . S
O588 C562 1.283 . S
O588 Eu572 2.363 . S
O589 C563 1.283 . S
O589 Eu572 2.363 . S
O590 C564 1.283 . S
O590 Eu576 2.363 . S
O591 C565 1.283 . S
O591 Eu576 2.363 1_655 S
O592 C566 1.283 . S
O592 Eu575 2.363 . S
O593 C567 1.283 . S
O593 Eu575 2.363 1_655 S
O594 C562 1.283 . S
O594 Eu581 2.363 . S
O595 C560 1.283 . S
O595 Eu581 2.363 1_655 S
O596 C563 1.283 . S
O596 Eu568 2.363 . S
O597 C561 1.283 . S
O597 Eu568 2.363 1_655 S
O598 C557 1.283 . S
O598 Eu576 2.363 . S
O599 C559 1.283 . S
O599 Eu576 2.363 . S
O600 C556 1.283 . S
O600 Eu575 2.363 . S
O601 C558 1.283 . S
O601 Eu575 2.363 . S
O602 C567 1.283 . S
O602 Eu571 2.363 . S
O603 C565 1.283 . S
O603 Eu571 2.363 1_556 S
O604 C566 1.283 . S
O604 Eu572 2.363 . S
O605 C564 1.283 . S
O605 Eu572 2.363 1_556 S
C606 O632 1.283 . S
C606 O650 1.283 . S
C607 O633 1.283 . S
C607 O648 1.283 . S
C608 O634 1.283 . S
C608 O651 1.283 . S
C609 O635 1.283 . S
C609 O649 1.283 . S
C610 O636 1.283 . S
C610 O645 1.283 . S
C611 O637 1.283 . S
C611 O647 1.283 . S
C612 O638 1.283 . S
C612 O644 1.283 . S
C613 O639 1.283 . S
C613 O646 1.283 . S
C614 O640 1.283 . S
C614 O655 1.283 . S
C615 O641 1.283 . S
C615 O653 1.283 . S
C616 O642 1.283 . S
C616 O654 1.283 . S
C617 O643 1.283 . S
C617 O652 1.283 . S
Eu618 O619 2.370 . S
Eu618 O620 2.370 . S
Eu618 O623 2.370 . S
Eu618 O624 2.370 . S
Eu618 O632 2.363 . S
Eu618 O633 2.363 . S
Eu618 O646 2.363 . S
Eu618 O647 2.363 . S
O619 Eu618 2.370 . S
O619 Eu621 2.370 . S
O619 Eu626 2.370 . S
O620 Eu618 2.370 . S
O620 Eu622 2.370 . S
O620 Eu625 2.370 . S
Eu621 O619 2.370 . S
Eu621 O623 2.370 . S
Eu621 O627 2.370 1_554 S
Eu621 O628 2.370 1_554 S
Eu621 O636 2.363 1_554 S
Eu621 O637 2.363 . S
Eu621 O652 2.363 . S
Eu621 O653 2.363 . S
Eu622 O620 2.370 . S
Eu622 O624 2.370 . S
Eu622 O629 2.370 1_554 S
Eu622 O630 2.370 1_554 S
Eu622 O638 2.363 1_554 S
Eu622 O639 2.363 . S
Eu622 O654 2.363 . S
Eu622 O655 2.363 . S
O623 Eu618 2.370 . S
O623 Eu621 2.370 . S
O623 Eu625 2.370 . S
O624 Eu618 2.370 . S
O624 Eu622 2.370 . S
O624 Eu626 2.370 . S
Eu625 O620 2.370 . S
Eu625 O623 2.370 . S
Eu625 O627 2.370 1_554 S
Eu625 O630 2.370 1_554 S
Eu625 O642 2.363 . S
Eu625 O643 2.363 . S
Eu625 O650 2.363 . S
Eu625 O651 2.363 1_554 S
Eu626 O619 2.370 . S
Eu626 O624 2.370 . S
Eu626 O628 2.370 1_554 S
Eu626 O629 2.370 1_554 S
Eu626 O640 2.363 . S
Eu626 O641 2.363 . S
Eu626 O648 2.363 . S
Eu626 O649 2.363 1_554 S
O627 Eu621 2.370 1_556 S
O627 Eu625 2.370 1_556 S
O627 Eu631 2.370 . S
O628 Eu621 2.370 1_556 S
O628 Eu626 2.370 1_556 S
O628 Eu631 2.370 . S
O629 Eu622 2.370 1_556 S
O629 Eu626 2.370 1_556 S
O629 Eu631 2.370 . S
O630 Eu622 2.370 1_556 S
O630 Eu625 2.370 1_556 S
O630 Eu631 2.370 . S
Eu631 O627 2.370 . S
Eu631 O628 2.370 . S
Eu631 O629 2.370 . S
Eu631 O630 2.370 . S
Eu631 O634 2.363 . S
Eu631 O635 2.363 . S
Eu631 O644 2.363 . S
Eu631 O645 2.363 . S
O632 C606 1.283 . S
O632 Eu618 2.363 . S
O633 C607 1.283 . S
O633 Eu618 2.363 . S
O634 C608 1.283 . S
O634 Eu631 2.363 . S
O635 C609 1.283 . S
O635 Eu631 2.363 . S
O636 C610 1.283 . S
O636 Eu621 2.363 1_556 S
O637 C611 1.283 . S
O637 Eu621 2.363 . S
O638 C612 1.283 . S
O638 Eu622 2.363 1_556 S
O639 C613 1.283 . S
O639 Eu622 2.363 . S
O640 C614 1.283 . S
O640 Eu626 2.363 . S
O641 C615 1.283 . S
O641 Eu626 2.363 . S
O642 C616 1.283 . S
O642 Eu625 2.363 . S
O643 C617 1.283 . S
O643 Eu625 2.363 . S
O644 C612 1.283 . S
O644 Eu631 2.363 . S
O645 C610 1.283 . S
O645 Eu631 2.363 . S
O646 C613 1.283 . S
O646 Eu618 2.363 . S
O647 C611 1.283 . S
O647 Eu618 2.363 . S
O648 C607 1.283 . S
O648 Eu626 2.363 . S
O649 C609 1.283 . S
O649 Eu626 2.363 1_556 S
O650 C606 1.283 . S
O650 Eu625 2.363 . S
O651 C608 1.283 . S
O651 Eu625 2.363 1_556 S
O652 C617 1.283 . S
O652 Eu621 2.363 . S
O653 C615 1.283 . S
O653 Eu621 2.363 . S
O654 C616 1.283 . S
O654 Eu622 2.363 . S
O655 C614 1.283 . S
O655 Eu622 2.363 . S
C656 O682 1.283 . S
C656 O700 1.283 . S
C657 O683 1.283 . S
C657 O698 1.283 . S
C658 O684 1.283 . S
C658 O701 1.283 . S
C659 O685 1.283 . S
C659 O699 1.283 . S
C660 O686 1.283 . S
C660 O695 1.283 . S
C661 O687 1.283 . S
C661 O697 1.283 . S
C662 O688 1.283 . S
C662 O694 1.283 . S
C663 O689 1.283 . S
C663 O696 1.283 . S
C664 O690 1.283 . S
C664 O705 1.283 . S
C665 O691 1.283 . S
C665 O703 1.283 . S
C666 O692 1.283 . S
C666 O704 1.283 . S
C667 O693 1.283 . S
C667 O702 1.283 . S
Eu668 O669 2.370 1_455 S
Eu668 O670 2.370 . S
Eu668 O673 2.370 1_455 S
Eu668 O674 2.370 . S
Eu668 O682 2.363 . S
Eu668 O683 2.363 . S
Eu668 O696 2.363 . S
Eu668 O697 2.363 1_455 S
O669 Eu668 2.370 1_655 S
O669 Eu671 2.370 . S
O669 Eu676 2.370 1_655 S
O670 Eu668 2.370 . S
O670 Eu672 2.370 . S
O670 Eu675 2.370 . S
Eu671 O669 2.370 . S
Eu671 O673 2.370 . S
Eu671 O677 2.370 . S
Eu671 O678 2.370 . S
Eu671 O686 2.363 . S
Eu671 O687 2.363 . S
Eu671 O702 2.363 . S
Eu671 O703 2.363 . S
Eu672 O670 2.370 . S
Eu672 O674 2.370 . S
Eu672 O679 2.370 . S
Eu672 O680 2.370 . S
Eu672 O688 2.363 . S
Eu672 O689 2.363 . S
Eu672 O704 2.363 . S
Eu672 O705 2.363 . S
O673 Eu668 2.370 1_655 S
O673 Eu671 2.370 . S
O673 Eu675 2.370 1_655 S
O674 Eu668 2.370 . S
O674 Eu672 2.370 . S
O674 Eu676 2.370 . S
Eu675 O670 2.370 . S
Eu675 O673 2.370 1_455 S
Eu675 O677 2.370 1_455 S
Eu675 O680 2.370 . S
Eu675 O692 2.363 . S
Eu675 O693 2.363 1_455 S
Eu675 O700 2.363 . S
Eu675 O701 2.363 . S
Eu676 O669 2.370 1_455 S
Eu676 O674 2.370 . S
Eu676 O678 2.370 1_455 S
Eu676 O679 2.370 . S
Eu676 O690 2.363 . S
Eu676 O691 2.363 1_455 S
Eu676 O698 2.363 . S
Eu676 O699 2.363 . S
O677 Eu671 2.370 . S
O677 Eu675 2.370 1_655 S
O677 Eu681 2.370 1_655 S
O678 Eu671 2.370 . S
O678 Eu676 2.370 1_655 S
O678 Eu681 2.370 1_655 S
O679 Eu672 2.370 . S
O679 Eu676 2.370 . S
O679 Eu681 2.370 . S
O680 Eu672 2.370 . S
O680 Eu675 2.370 . S
O680 Eu681 2.370 . S
Eu681 O677 2.370 1_455 S
Eu681 O678 2.370 1_455 S
Eu681 O679 2.370 . S
Eu681 O680 2.370 . S
Eu681 O684 2.363 . S
Eu681 O685 2.363 . S
Eu681 O694 2.363 . S
Eu681 O695 2.363 1_455 S
O682 C656 1.283 . S
O682 Eu668 2.363 . S
O683 C657 1.283 . S
O683 Eu668 2.363 . S
O684 C658 1.283 . S
O684 Eu681 2.363 . S
O685 C659 1.283 . S
O685 Eu681 2.363 . S
O686 C660 1.283 . S
O686 Eu671 2.363 . S
O687 C661 1.283 . S
O687 Eu671 2.363 . S
O688 C662 1.283 . S
O688 Eu672 2.363 . S
O689 C663 1.283 . S
O689 Eu672 2.363 . S
O690 C664 1.283 . S
O690 Eu676 2.363 . S
O691 C665 1.283 . S
O691 Eu676 2.363 1_655 S
O692 C666 1.283 . S
O692 Eu675 2.363 . S
O693 C667 1.283 . S
O693 Eu675 2.363 1_655 S
O694 C662 1.283 . S
O694 Eu681 2.363 . S
O695 C660 1.283 . S
O695 Eu681 2.363 1_655 S
O696 C663 1.283 . S
O696 Eu668 2.363 . S
O697 C661 1.283 . S
O697 Eu668 2.363 1_655 S
O698 C657 1.283 . S
O698 Eu676 2.363 . S
O699 C659 1.283 . S
O699 Eu676 2.363 . S
O700 C656 1.283 . S
O700 Eu675 2.363 . S
O701 C658 1.283 . S
O701 Eu675 2.363 . S
O702 C667 1.283 . S
O702 Eu671 2.363 . S
O703 C665 1.283 . S
O703 Eu671 2.363 . S
O704 C666 1.283 . S
O704 Eu672 2.363 . S
O705 C664 1.283 . S
O705 Eu672 2.363 . S
C706 O732 1.283 . S
C706 O750 1.283 . S
C707 O733 1.283 . S
C707 O748 1.283 . S
C708 O734 1.283 . S
C708 O751 1.283 . S
C709 O735 1.283 . S
C709 O749 1.283 . S
C710 O736 1.283 . S
C710 O745 1.283 . S
C711 O737 1.283 . S
C711 O747 1.283 . S
C712 O738 1.283 . S
C712 O744 1.283 . S
C713 O739 1.283 . S
C713 O746 1.283 . S
C714 O740 1.283 . S
C714 O755 1.283 . S
C715 O741 1.283 . S
C715 O753 1.283 . S
C716 O742 1.283 . S
C716 O754 1.283 . S
C717 O743 1.283 . S
C717 O752 1.283 . S
Eu718 O719 2.370 . S
Eu718 O720 2.370 . S
Eu718 O723 2.370 . S
Eu718 O724 2.370 . S
Eu718 O732 2.363 . S
Eu718 O733 2.363 . S
Eu718 O746 2.363 . S
Eu718 O747 2.363 . S
O719 Eu718 2.370 . S
O719 Eu721 2.360 1_565 S
O719 Eu726 2.360 1_565 S
O720 Eu718 2.370 . S
O720 Eu722 2.360 1_565 S
O720 Eu725 2.360 1_565 S
Eu721 O719 2.360 1_545 S
Eu721 O723 2.360 1_545 S
Eu721 O727 2.380 . S
Eu721 O728 2.380 . S
Eu721 O736 2.380 . S
Eu721 O737 2.346 1_545 S
Eu721 O752 2.363 . S
Eu721 O753 2.363 . S
Eu722 O720 2.360 1_545 S
Eu722 O724 2.360 1_545 S
Eu722 O729 2.380 . S
Eu722 O730 2.380 . S
Eu722 O738 2.380 . S
Eu722 O739 2.346 1_545 S
Eu722 O754 2.363 . S
Eu722 O755 2.363 . S
O723 Eu718 2.370 . S
O723 Eu721 2.360 1_565 S
O723 Eu725 2.360 1_565 S
O724 Eu718 2.370 . S
O724 Eu722 2.360 1_565 S
O724 Eu726 2.360 1_565 S
Eu725 O720 2.360 1_545 S
Eu725 O723 2.360 1_545 S
Eu725 O727 2.380 . S
Eu725 O730 2.380 . S
Eu725 O742 2.363 . S
Eu725 O743 2.363 . S
Eu725 O750 2.346 1_545 S
Eu725 O751 2.380 . S
Eu726 O719 2.360 1_545 S
Eu726 O724 2.360 1_545 S
Eu726 O728 2.380 . S
Eu726 O729 2.380 . S
Eu726 O740 2.363 . S
Eu726 O741 2.363 . S
Eu726 O748 2.346 1_545 S
Eu726 O749 2.379 . S
O727 Eu721 2.380 . S
O727 Eu725 2.380 . S
O727 Eu731 2.370 . S
O728 Eu721 2.380 . S
O728 Eu726 2.380 . S
O728 Eu731 2.370 . S
O729 Eu722 2.380 . S
O729 Eu726 2.380 . S
O729 Eu731 2.370 . S
O730 Eu722 2.380 . S
O730 Eu725 2.380 . S
O730 Eu731 2.370 . S
Eu731 O727 2.370 . S
Eu731 O728 2.370 . S
Eu731 O729 2.370 . S
Eu731 O730 2.370 . S
Eu731 O734 2.363 . S
Eu731 O735 2.363 . S
Eu731 O744 2.363 . S
Eu731 O745 2.363 . S
O732 C706 1.283 . S
O732 Eu718 2.363 . S
O733 C707 1.283 . S
O733 Eu718 2.363 . S
O734 C708 1.283 . S
O734 Eu731 2.363 . S
O735 C709 1.283 . S
O735 Eu731 2.363 . S
O736 C710 1.283 . S
O736 Eu721 2.380 . S
O737 C711 1.283 . S
O737 Eu721 2.346 1_565 S
O738 C712 1.283 . S
O738 Eu722 2.380 . S
O739 C713 1.283 . S
O739 Eu722 2.346 1_565 S
O740 C714 1.283 . S
O740 Eu726 2.363 . S
O741 C715 1.283 . S
O741 Eu726 2.363 . S
O742 C716 1.283 . S
O742 Eu725 2.363 . S
O743 C717 1.283 . S
O743 Eu725 2.363 . S
O744 C712 1.283 . S
O744 Eu731 2.363 . S
O745 C710 1.283 . S
O745 Eu731 2.363 . S
O746 C713 1.283 . S
O746 Eu718 2.363 . S
O747 C711 1.283 . S
O747 Eu718 2.363 . S
O748 C707 1.283 . S
O748 Eu726 2.346 1_565 S
O749 C709 1.283 . S
O749 Eu726 2.379 . S
O750 C706 1.283 . S
O750 Eu725 2.346 1_565 S
O751 C708 1.283 . S
O751 Eu725 2.380 . S
O752 C717 1.283 . S
O752 Eu721 2.363 . S
O753 C715 1.283 . S
O753 Eu721 2.363 . S
O754 C716 1.283 . S
O754 Eu722 2.363 . S
O755 C714 1.283 . S
O755 Eu722 2.363 . S
C756 C757 1.369 . S
C756 C758 1.419 . S
C756 H760 0.930 . S
C757 C756 1.369 . S
C757 C766 1.429 . S
C758 C756 1.419 . S
C758 C759 1.363 . S
C758 H761 0.929 . S
C759 C758 1.363 . S
C759 C765 1.428 . S
H760 C756 0.930 . S
H761 C758 0.929 . S
S762 N763 1.613 . S
S762 N764 1.610 . S
N763 S762 1.613 . S
N763 C766 1.350 . S
N764 S762 1.610 . S
N764 C765 1.351 . S
C765 C759 1.428 . S
C765 N764 1.351 . S
C765 C766 1.434 . S
C766 C757 1.429 . S
C766 N763 1.350 . S
C766 C765 1.434 . S
C767 C768 1.369 . S
C767 C769 1.419 . S
C767 H771 0.930 . S
C768 C767 1.369 . S
C768 C777 1.429 . S
C769 C767 1.419 . S
C769 C770 1.363 . S
C769 H772 0.929 . S
C770 C769 1.363 . S
C770 C776 1.428 . S
H771 C767 0.930 . S
H772 C769 0.929 . S
S773 N774 1.613 . S
S773 N775 1.610 . S
N774 S773 1.613 . S
N774 C777 1.350 . S
N775 S773 1.610 . S
N775 C776 1.351 . S
C776 C770 1.428 . S
C776 N775 1.351 . S
C776 C777 1.434 . S
C777 C768 1.429 . S
C777 N774 1.350 . S
C777 C776 1.434 . S
C778 C779 1.369 . S
C778 C780 1.419 . S
C778 H782 0.930 . S
C779 C778 1.369 . S
C779 C788 1.429 . S
C780 C778 1.419 . S
C780 C781 1.363 . S
C780 H783 0.929 . S
C781 C780 1.363 . S
C781 C787 1.428 . S
H782 C778 0.930 . S
H783 C780 0.929 . S
S784 N785 1.613 . S
S784 N786 1.610 . S
N785 S784 1.613 . S
N785 C788 1.350 . S
N786 S784 1.610 . S
N786 C787 1.351 . S
C787 C781 1.428 . S
C787 N786 1.351 . S
C787 C788 1.434 . S
C788 C779 1.429 . S
C788 N785 1.350 . S
C788 C787 1.434 . S
C789 C790 1.369 . S
C789 C791 1.419 . S
C789 H793 0.930 . S
C790 C789 1.369 . S
C790 C799 1.429 . S
C791 C789 1.419 . S
C791 C792 1.363 . S
C791 H794 0.929 . S
C792 C791 1.363 . S
C792 C798 1.428 . S
H793 C789 0.930 . S
H794 C791 0.929 . S
S795 N796 1.613 . S
S795 N797 1.610 . S
N796 S795 1.613 . S
N796 C799 1.350 . S
N797 S795 1.610 . S
N797 C798 1.351 . S
C798 C792 1.428 . S
C798 N797 1.351 . S
C798 C799 1.434 . S
C799 C790 1.429 . S
C799 N796 1.350 . S
C799 C798 1.434 . S
C800 C801 1.369 . S
C800 C802 1.419 . S
C800 H804 0.930 . S
C801 C800 1.369 . S
C801 C810 1.429 . S
C802 C800 1.419 . S
C802 C803 1.363 . S
C802 H805 0.929 . S
C803 C802 1.363 . S
C803 C809 1.428 . S
H804 C800 0.930 . S
H805 C802 0.929 . S
S806 N807 1.613 . S
S806 N808 1.610 . S
N807 S806 1.613 . S
N807 C810 1.350 . S
N808 S806 1.610 . S
N808 C809 1.351 . S
C809 C803 1.428 . S
C809 N808 1.351 . S
C809 C810 1.434 . S
C810 C801 1.429 . S
C810 N807 1.350 . S
C810 C809 1.434 . S
C811 C812 1.369 . S
C811 C813 1.419 . S
C811 H815 0.930 . S
C812 C811 1.369 . S
C812 C821 1.429 . S
C813 C811 1.419 . S
C813 C814 1.363 . S
C813 H816 0.929 . S
C814 C813 1.363 . S
C814 C820 1.428 . S
H815 C811 0.930 . S
H816 C813 0.929 . S
S817 N818 1.613 . S
S817 N819 1.610 . S
N818 S817 1.613 . S
N818 C821 1.350 . S
N819 S817 1.610 . S
N819 C820 1.351 . S
C820 C814 1.428 . S
C820 N819 1.351 . S
C820 C821 1.434 . S
C821 C812 1.429 . S
C821 N818 1.350 . S
C821 C820 1.434 . S
C822 C823 1.369 . S
C822 C824 1.419 . S
C822 H826 0.930 . S
C823 C822 1.369 . S
C823 C832 1.429 . S
C824 C822 1.419 . S
C824 C825 1.363 . S
C824 H827 0.929 . S
C825 C824 1.363 . S
C825 C831 1.428 . S
H826 C822 0.930 . S
H827 C824 0.929 . S
S828 N829 1.613 . S
S828 N830 1.610 . S
N829 S828 1.613 . S
N829 C832 1.350 . S
N830 S828 1.610 . S
N830 C831 1.351 . S
C831 C825 1.428 . S
C831 N830 1.351 . S
C831 C832 1.434 . S
C832 C823 1.429 . S
C832 N829 1.350 . S
C832 C831 1.434 . S
C833 C834 1.369 . S
C833 C835 1.419 . S
C833 H837 0.930 . S
C834 C833 1.369 . S
C834 C843 1.429 . S
C835 C833 1.419 . S
C835 C836 1.363 . S
C835 H838 0.929 . S
C836 C835 1.363 . S
C836 C842 1.428 . S
H837 C833 0.930 . S
H838 C835 0.929 . S
S839 N840 1.613 . S
S839 N841 1.610 . S
N840 S839 1.613 . S
N840 C843 1.350 . S
N841 S839 1.610 . S
N841 C842 1.351 . S
C842 C836 1.428 . S
C842 N841 1.351 . S
C842 C843 1.434 . S
C843 C834 1.429 . S
C843 N840 1.350 . S
C843 C842 1.434 . S
C844 C845 1.369 . S
C844 C846 1.419 . S
C844 H848 0.930 . S
C845 C844 1.369 . S
C845 C854 1.429 . S
C846 C844 1.419 . S
C846 C847 1.363 . S
C846 H849 0.929 . S
C847 C846 1.363 . S
C847 C853 1.428 . S
H848 C844 0.930 . S
H849 C846 0.929 . S
S850 N851 1.613 . S
S850 N852 1.610 . S
N851 S850 1.613 . S
N851 C854 1.350 . S
N852 S850 1.610 . S
N852 C853 1.351 . S
C853 C847 1.428 . S
C853 N852 1.351 . S
C853 C854 1.434 . S
C854 C845 1.429 . S
C854 N851 1.350 . S
C854 C853 1.434 . S
C855 C856 1.369 . S
C855 C857 1.419 . S
C855 H859 0.930 . S
C856 C855 1.369 . S
C856 C865 1.429 . S
C857 C855 1.419 . S
C857 C858 1.363 . S
C857 H860 0.929 . S
C858 C857 1.363 . S
C858 C864 1.428 . S
H859 C855 0.930 . S
H860 C857 0.929 . S
S861 N862 1.613 . S
S861 N863 1.610 . S
N862 S861 1.613 . S
N862 C865 1.350 . S
N863 S861 1.610 . S
N863 C864 1.351 . S
C864 C858 1.428 . S
C864 N863 1.351 . S
C864 C865 1.434 . S
C865 C856 1.429 . S
C865 N862 1.350 . S
C865 C864 1.434 . S
C866 C867 1.369 . S
C866 C868 1.419 . S
C866 H870 0.930 . S
C867 C866 1.369 . S
C867 C876 1.429 . S
C868 C866 1.419 . S
C868 C869 1.363 . S
C868 H871 0.929 . S
C869 C868 1.363 . S
C869 C875 1.428 . S
H870 C866 0.930 . S
H871 C868 0.929 . S
S872 N873 1.613 . S
S872 N874 1.610 . S
N873 S872 1.613 . S
N873 C876 1.350 . S
N874 S872 1.610 . S
N874 C875 1.351 . S
C875 C869 1.428 . S
C875 N874 1.351 . S
C875 C876 1.434 . S
C876 C867 1.429 . S
C876 N873 1.350 . S
C876 C875 1.434 . S
C877 C878 1.369 . S
C877 C879 1.419 . S
C877 H881 0.930 . S
C878 C877 1.369 . S
C878 C887 1.429 . S
C879 C877 1.419 . S
C879 C880 1.363 . S
C879 H882 0.929 . S
C880 C879 1.363 . S
C880 C886 1.428 . S
H881 C877 0.930 . S
H882 C879 0.929 . S
S883 N884 1.613 . S
S883 N885 1.610 . S
N884 S883 1.613 . S
N884 C887 1.350 . S
N885 S883 1.610 . S
N885 C886 1.351 . S
C886 C880 1.428 . S
C886 N885 1.351 . S
C886 C887 1.434 . S
C887 C878 1.429 . S
C887 N884 1.350 . S
C887 C886 1.434 . S
C888 C889 1.369 1_556 S
C888 C890 1.419 . S
C888 H892 0.930 . S
C889 C888 1.369 1_554 S
C889 C898 1.429 . S
C890 C888 1.419 . S
C890 C891 1.363 1_556 S
C890 H893 0.929 . S
C891 C890 1.363 1_554 S
C891 C897 1.428 . S
H892 C888 0.930 . S
H893 C890 0.929 . S
S894 N895 1.613 . S
S894 N896 1.610 . S
N895 S894 1.613 . S
N895 C898 1.350 . S
N896 S894 1.610 . S
N896 C897 1.351 . S
C897 C891 1.428 . S
C897 N896 1.351 . S
C897 C898 1.434 . S
C898 C889 1.429 . S
C898 N895 1.350 . S
C898 C897 1.434 . S
C899 C900 1.369 . S
C899 C901 1.419 . S
C899 H903 0.930 . S
C900 C899 1.369 . S
C900 C909 1.429 . S
C901 C899 1.419 . S
C901 C902 1.363 . S
C901 H904 0.929 . S
C902 C901 1.363 . S
C902 C908 1.428 . S
H903 C899 0.930 . S
H904 C901 0.929 . S
S905 N906 1.613 . S
S905 N907 1.610 . S
N906 S905 1.613 . S
N906 C909 1.350 . S
N907 S905 1.610 . S
N907 C908 1.351 . S
C908 C902 1.428 . S
C908 N907 1.351 . S
C908 C909 1.434 . S
C909 C900 1.429 . S
C909 N906 1.350 . S
C909 C908 1.434 . S
C910 C911 1.369 . S
C910 C912 1.419 . S
C910 H914 0.930 . S
C911 C910 1.369 . S
C911 C920 1.429 . S
C912 C910 1.419 . S
C912 C913 1.363 . S
C912 H915 0.929 . S
C913 C912 1.363 . S
C913 C919 1.428 . S
H914 C910 0.930 . S
H915 C912 0.929 . S
S916 N917 1.613 . S
S916 N918 1.610 . S
N917 S916 1.613 . S
N917 C920 1.350 . S
N918 S916 1.610 . S
N918 C919 1.351 . S
C919 C913 1.428 . S
C919 N918 1.351 . S
C919 C920 1.434 . S
C920 C911 1.429 . S
C920 N917 1.350 . S
C920 C919 1.434 . S
C921 C922 1.369 1_556 S
C921 C923 1.419 . S
C921 H925 0.930 . S
C922 C921 1.369 1_554 S
C922 C931 1.429 . S
C923 C921 1.419 . S
C923 C924 1.363 1_556 S
C923 H926 0.929 . S
C924 C923 1.363 1_554 S
C924 C930 1.428 . S
H925 C921 0.930 . S
H926 C923 0.929 . S
S927 N928 1.613 . S
S927 N929 1.610 . S
N928 S927 1.613 . S
N928 C931 1.350 . S
N929 S927 1.610 . S
N929 C930 1.351 . S
C930 C924 1.428 . S
C930 N929 1.351 . S
C930 C931 1.434 . S
C931 C922 1.429 . S
C931 N928 1.350 . S
C931 C930 1.434 . S
C932 C933 1.369 . S
C932 C934 1.419 . S
C932 H936 0.930 . S
C933 C932 1.369 . S
C933 C942 1.429 1_455 S
C934 C932 1.419 . S
C934 C935 1.363 . S
C934 H937 0.929 . S
C935 C934 1.363 . S
C935 C941 1.428 1_455 S
H936 C932 0.930 . S
H937 C934 0.929 . S
S938 N939 1.613 . S
S938 N940 1.610 . S
N939 S938 1.613 . S
N939 C942 1.350 . S
N940 S938 1.610 . S
N940 C941 1.351 . S
C941 C935 1.428 1_655 S
C941 N940 1.351 . S
C941 C942 1.434 . S
C942 C933 1.429 1_655 S
C942 N939 1.350 . S
C942 C941 1.434 . S
C943 C944 1.375 . S
C943 C945 1.419 . S
C943 H947 0.930 . S
C944 C943 1.375 . S
C944 C953 1.423 1_545 S
C945 C943 1.419 . S
C945 C946 1.368 . S
C945 H948 0.929 . S
C946 C945 1.368 . S
C946 C952 1.423 1_545 S
H947 C943 0.930 . S
H948 C945 0.929 . S
S949 N950 1.613 . S
S949 N951 1.610 . S
N950 S949 1.613 . S
N950 C953 1.350 . S
N951 S949 1.610 . S
N951 C952 1.351 . S
C952 C946 1.423 1_565 S
C952 N951 1.351 . S
C952 C953 1.434 . S
C953 C944 1.423 1_565 S
C953 N950 1.350 . S
C953 C952 1.434 . S
C954 C955 1.369 . S
C954 C956 1.419 . S
C954 H958 0.930 . S
C955 C954 1.369 . S
C955 C964 1.429 . S
C956 C954 1.419 . S
C956 C957 1.363 . S
C956 H959 0.929 . S
C957 C956 1.363 . S
C957 C963 1.428 . S
H958 C954 0.930 . S
H959 C956 0.929 . S
S960 N961 1.613 1_655 S
S960 N962 1.610 1_655 S
N961 S960 1.613 1_455 S
N961 C964 1.350 . S
N962 S960 1.610 1_455 S
N962 C963 1.351 . S
C963 C957 1.428 . S
C963 N962 1.351 . S
C963 C964 1.434 . S
C964 C955 1.429 . S
C964 N961 1.350 . S
C964 C963 1.434 . S
C965 C966 1.376 . S
C965 C967 1.419 . S
C965 H969 0.930 . S
C966 C965 1.376 . S
C966 C975 1.422 1_545 S
C967 C965 1.419 . S
C967 C968 1.371 . S
C967 H970 0.929 . S
C968 C967 1.371 . S
C968 C974 1.421 1_545 S
H969 C965 0.930 . S
H970 C967 0.929 . S
S971 N972 1.613 . S
S971 N973 1.610 . S
N972 S971 1.613 . S
N972 C975 1.350 . S
N973 S971 1.610 . S
N973 C974 1.351 . S
C974 C968 1.421 1_565 S
C974 N973 1.351 . S
C974 C975 1.434 . S
C975 C966 1.422 1_565 S
C975 N972 1.350 . S
C975 C974 1.434 . S
C976 C977 1.369 1_655 S
C976 C978 1.419 . S
C976 H980 0.930 . S
C977 C976 1.369 1_455 S
C977 C986 1.429 . S
C978 C976 1.419 . S
C978 C979 1.363 1_655 S
C978 H981 0.929 . S
C979 C978 1.363 1_455 S
C979 C985 1.428 . S
H980 C976 0.930 . S
H981 C978 0.929 . S
S982 N983 1.613 . S
S982 N984 1.610 . S
N983 S982 1.613 . S
N983 C986 1.350 . S
N984 S982 1.610 . S
N984 C985 1.351 . S
C985 C979 1.428 . S
C985 N984 1.351 . S
C985 C986 1.434 . S
C986 C977 1.429 . S
C986 N983 1.350 . S
C986 C985 1.434 . S
C987 C988 1.346 1_565 S
C987 C989 1.419 . S
C987 H991 0.930 . S
C988 C987 1.346 1_545 S
C988 C997 1.453 . S
C989 C987 1.419 . S
C989 C990 1.340 1_565 S
C989 H992 0.929 . S
C990 C989 1.340 1_545 S
C990 C996 1.453 . S
H991 C987 0.930 . S
H992 C989 0.929 . S
S993 N994 1.613 . S
S993 N995 1.610 . S
N994 S993 1.613 . S
N994 C997 1.350 . S
N995 S993 1.610 . S
N995 C996 1.351 . S
C996 C990 1.453 . S
C996 N995 1.351 . S
C996 C997 1.434 . S
C997 C988 1.453 . S
C997 N994 1.350 . S
C997 C996 1.434 . S
C998 C999 1.369 1_655 S
C998 C1000 1.419 . S
C998 H1002 0.930 . S
C999 C998 1.369 1_455 S
C999 C1008 1.429 . S
C1000 C998 1.419 . S
C1000 C1001 1.363 1_655 S
C1000 H1003 0.929 . S
C1001 C1000 1.363 1_455 S
C1001 C1007 1.428 . S
H1002 C998 0.930 . S
H1003 C1000 0.929 . S
S1004 N1005 1.613 . S
S1004 N1006 1.610 . S
N1005 S1004 1.613 . S
N1005 C1008 1.350 . S
N1006 S1004 1.610 . S
N1006 C1007 1.351 . S
C1007 C1001 1.428 . S
C1007 N1006 1.351 . S
C1007 C1008 1.434 . S
C1008 C999 1.429 . S
C1008 N1005 1.350 . S
C1008 C1007 1.434 . S
C1009 C1010 1.371 1_545 S
C1009 C1011 1.419 . S
C1009 H1013 0.930 . S
C1010 C1009 1.371 1_565 S
C1010 C1019 1.426 . S
C1011 C1009 1.419 . S
C1011 C1012 1.366 . S
C1011 H1014 0.929 . S
C1012 C1011 1.366 . S
C1012 C1018 1.426 1_545 S
H1013 C1009 0.930 . S
H1014 C1011 0.929 . S
S1015 N1016 1.613 . S
S1015 N1017 1.610 . S
N1016 S1015 1.613 . S
N1016 C1019 1.350 . S
N1017 S1015 1.610 . S
N1017 C1018 1.351 . S
C1018 C1012 1.426 1_565 S
C1018 N1017 1.351 . S
C1018 C1019 1.434 . S
C1019 C1010 1.426 . S
C1019 N1016 1.350 . S
C1019 C1018 1.434 . S
C1020 C1021 1.369 . S
C1020 C1022 1.419 . S
C1020 H1024 0.930 . S
C1021 C1020 1.369 . S
C1021 C1030 1.429 1_455 S
C1022 C1020 1.419 . S
C1022 C1023 1.363 . S
C1022 H1025 0.929 . S
C1023 C1022 1.363 . S
C1023 C1029 1.428 1_455 S
H1024 C1020 0.930 . S
H1025 C1022 0.929 . S
S1026 N1027 1.613 . S
S1026 N1028 1.610 . S
N1027 S1026 1.613 . S
N1027 C1030 1.350 . S
N1028 S1026 1.610 . S
N1028 C1029 1.351 . S
C1029 C1023 1.428 1_655 S
C1029 N1028 1.351 . S
C1029 C1030 1.434 . S
C1030 C1021 1.429 1_655 S
C1030 N1027 1.350 . S
C1030 C1029 1.434 . S
C1031 C1032 1.353 1_565 S
C1031 C1033 1.419 . S
C1031 H1035 0.930 . S
C1032 C1031 1.353 1_545 S
C1032 C1041 1.446 . S
C1033 C1031 1.419 . S
C1033 C1034 1.344 1_565 S
C1033 H1036 0.929 . S
C1034 C1033 1.344 1_545 S
C1034 C1040 1.448 . S
H1035 C1031 0.930 . S
H1036 C1033 0.929 . S
S1037 N1038 1.613 . S
S1037 N1039 1.610 . S
N1038 S1037 1.613 . S
N1038 C1041 1.350 . S
N1039 S1037 1.610 . S
N1039 C1040 1.351 . S
C1040 C1034 1.448 . S
C1040 N1039 1.351 . S
C1040 C1041 1.434 . S
C1041 C1032 1.446 . S
C1041 N1038 1.350 . S
C1041 C1040 1.434 . S
C1042 C1043 1.369 1_655 S
C1042 C1044 1.419 . S
C1042 H1046 0.930 . S
C1043 C1042 1.369 1_455 S
C1043 C1052 1.429 . S
C1044 C1042 1.419 . S
C1044 C1045 1.363 1_655 S
C1044 H1047 0.929 . S
C1045 C1044 1.363 1_455 S
C1045 C1051 1.428 . S
H1046 C1042 0.930 . S
H1047 C1044 0.929 . S
S1048 N1049 1.613 . S
S1048 N1050 1.610 . S
N1049 S1048 1.613 . S
N1049 C1052 1.350 . S
N1050 S1048 1.610 . S
N1050 C1051 1.351 . S
C1051 C1045 1.428 . S
C1051 N1050 1.351 . S
C1051 C1052 1.434 . S
C1052 C1043 1.429 . S
C1052 N1049 1.350 . S
C1052 C1051 1.434 . S
C1053 C1054 1.369 . S
C1053 C1055 1.419 . S
C1053 H1057 0.930 . S
C1054 C1053 1.369 . S
C1054 C1063 1.429 1_545 S
C1055 C1053 1.419 . S
C1055 C1056 1.367 . S
C1055 H1058 0.929 . S
C1056 C1055 1.367 . S
C1056 C1062 1.424 1_545 S
H1057 C1053 0.930 . S
H1058 C1055 0.929 . S
S1059 N1060 1.613 . S
S1059 N1061 1.610 . S
N1060 S1059 1.613 . S
N1060 C1063 1.350 . S
N1061 S1059 1.610 . S
N1061 C1062 1.351 . S
C1062 C1056 1.424 1_565 S
C1062 N1061 1.351 . S
C1062 C1063 1.434 . S
C1063 C1054 1.429 1_565 S
C1063 N1060 1.350 . S
C1063 C1062 1.434 . S
C1064 C1065 1.369 . S
C1064 C1066 1.419 . S
C1064 H1068 0.930 1_455 S
C1065 C1064 1.369 . S
C1065 C1074 1.429 . S
C1066 C1064 1.419 . S
C1066 C1067 1.363 . S
C1066 H1069 0.922 1_455 S
C1067 C1066 1.363 . S
C1067 C1073 1.428 . S
H1068 C1064 0.930 1_655 S
H1069 C1066 0.922 1_655 S
S1070 N1071 1.613 . S
S1070 N1072 1.610 . S
N1071 S1070 1.613 . S
N1071 C1074 1.350 . S
N1072 S1070 1.610 . S
N1072 C1073 1.351 . S
C1073 C1067 1.428 . S
C1073 N1072 1.351 . S
C1073 C1074 1.434 . S
C1074 C1065 1.429 . S
C1074 N1071 1.350 . S
C1074 C1073 1.434 . S
C1075 C1076 1.369 1_565 S
C1075 C1077 1.419 . S
C1075 H1079 0.930 . S
C1076 C1075 1.369 1_545 S
C1076 C1085 1.429 . S
C1077 C1075 1.419 . S
C1077 C1078 1.357 1_565 S
C1077 H1080 0.929 . S
C1078 C1077 1.357 1_545 S
C1078 C1084 1.435 . S
H1079 C1075 0.930 . S
H1080 C1077 0.929 . S
S1081 N1082 1.613 . S
S1081 N1083 1.610 . S
N1082 S1081 1.613 . S
N1082 C1085 1.350 . S
N1083 S1081 1.610 . S
N1083 C1084 1.351 . S
C1084 C1078 1.435 . S
C1084 N1083 1.351 . S
C1084 C1085 1.434 . S
C1085 C1076 1.429 . S
C1085 N1082 1.350 . S
C1085 C1084 1.434 . S
C1086 C1087 1.369 . S
C1086 C1088 1.419 . S
C1086 H1090 0.930 . S
C1087 C1086 1.369 . S
C1087 C1096 1.429 . S
C1088 C1086 1.419 . S
C1088 C1089 1.363 . S
C1088 H1091 0.929 . S
C1089 C1088 1.363 . S
C1089 C1095 1.428 . S
H1090 C1086 0.930 . S
H1091 C1088 0.929 . S
S1092 N1093 1.613 . S
S1092 N1094 1.610 . S
N1093 S1092 1.613 . S
N1093 C1096 1.350 . S
N1094 S1092 1.610 . S
N1094 C1095 1.351 . S
C1095 C1089 1.428 . S
C1095 N1094 1.351 . S
C1095 C1096 1.434 . S
C1096 C1087 1.429 . S
C1096 N1093 1.350 . S
C1096 C1095 1.434 . S
C1097 C1098 1.374 . S
C1097 C1099 1.419 . S
C1097 H1101 0.930 . S
C1098 C1097 1.374 . S
C1098 C1107 1.423 1_545 S
C1099 C1097 1.419 . S
C1099 C1100 1.371 . S
C1099 H1102 0.929 . S
C1100 C1099 1.371 . S
C1100 C1106 1.421 1_545 S
H1101 C1097 0.930 . S
H1102 C1099 0.929 . S
S1103 N1104 1.613 . S
S1103 N1105 1.610 . S
N1104 S1103 1.613 . S
N1104 C1107 1.350 . S
N1105 S1103 1.610 . S
N1105 C1106 1.351 . S
C1106 C1100 1.421 1_565 S
C1106 N1105 1.351 . S
C1106 C1107 1.434 . S
C1107 C1098 1.423 1_565 S
C1107 N1104 1.350 . S
C1107 C1106 1.434 . S
C1108 C1109 1.375 . S
C1108 C1110 1.419 . S
C1108 H1112 0.930 . S
C1109 C1108 1.375 . S
C1109 C1118 1.423 1_545 S
C1110 C1108 1.419 . S
C1110 C1111 1.376 . S
C1110 H1113 0.929 . S
C1111 C1110 1.376 . S
C1111 C1117 1.416 1_545 S
H1112 C1108 0.930 . S
H1113 C1110 0.929 . S
S1114 N1115 1.613 . S
S1114 N1116 1.610 . S
N1115 S1114 1.613 . S
N1115 C1118 1.350 . S
N1116 S1114 1.610 . S
N1116 C1117 1.351 . S
C1117 C1111 1.416 1_565 S
C1117 N1116 1.351 . S
C1117 C1118 1.434 . S
C1118 C1109 1.423 1_565 S
C1118 N1115 1.350 . S
C1118 C1117 1.434 . S
C1119 C1120 1.369 . S
C1119 C1121 1.419 . S
C1119 H1123 0.930 . S
C1120 C1119 1.369 . S
C1120 C1129 1.429 . S
C1121 C1119 1.419 . S
C1121 C1122 1.363 . S
C1121 H1124 0.929 . S
C1122 C1121 1.363 . S
C1122 C1128 1.428 . S
H1123 C1119 0.930 . S
H1124 C1121 0.929 . S
S1125 N1126 1.613 . S
S1125 N1127 1.610 . S
N1126 S1125 1.613 . S
N1126 C1129 1.350 . S
N1127 S1125 1.610 . S
N1127 C1128 1.351 . S
C1128 C1122 1.428 . S
C1128 N1127 1.351 . S
C1128 C1129 1.434 . S
C1129 C1120 1.429 . S
C1129 N1126 1.350 . S
C1129 C1128 1.434 . S
C1130 C1131 1.374 . S
C1130 C1132 1.419 . S
C1130 H1134 0.930 . S
C1131 C1130 1.374 . S
C1131 C1140 1.424 1_545 S
C1132 C1130 1.419 . S
C1132 C1133 1.381 . S
C1132 H1135 0.929 . S
C1133 C1132 1.381 . S
C1133 C1139 1.411 1_545 S
H1134 C1130 0.930 . S
H1135 C1132 0.929 . S
S1136 N1137 1.613 . S
S1136 N1138 1.610 . S
N1137 S1136 1.613 . S
N1137 C1140 1.350 . S
N1138 S1136 1.610 . S
N1138 C1139 1.351 . S
C1139 C1133 1.411 1_565 S
C1139 N1138 1.351 . S
C1139 C1140 1.434 . S
C1140 C1131 1.424 1_565 S
C1140 N1137 1.350 . S
C1140 C1139 1.434 . S
C1141 C1142 1.369 1_655 S
C1141 C1143 1.419 . S
C1141 H1145 0.930 . S
C1142 C1141 1.369 1_455 S
C1142 C1151 1.429 . S
C1143 C1141 1.419 . S
C1143 C1144 1.363 1_655 S
C1143 H1146 0.929 . S
C1144 C1143 1.363 1_455 S
C1144 C1150 1.428 . S
H1145 C1141 0.930 . S
H1146 C1143 0.929 . S
S1147 N1148 1.613 . S
S1147 N1149 1.610 . S
N1148 S1147 1.613 . S
N1148 C1151 1.350 . S
N1149 S1147 1.610 . S
N1149 C1150 1.351 . S
C1150 C1144 1.428 . S
C1150 N1149 1.351 . S
C1150 C1151 1.434 . S
C1151 C1142 1.429 . S
C1151 N1148 1.350 . S
C1151 C1150 1.434 . S
C1152 C1153 1.374 . S
C1152 C1154 1.419 . S
C1152 H1156 0.930 . S
C1153 C1152 1.374 . S
C1153 C1162 1.425 1_545 S
C1154 C1152 1.419 . S
C1154 C1155 1.365 . S
C1154 H1157 0.929 . S
C1155 C1154 1.365 . S
C1155 C1161 1.427 1_545 S
H1156 C1152 0.930 . S
H1157 C1154 0.929 . S
S1158 N1159 1.613 . S
S1158 N1160 1.610 . S
N1159 S1158 1.613 . S
N1159 C1162 1.350 . S
N1160 S1158 1.610 . S
N1160 C1161 1.351 . S
C1161 C1155 1.427 1_565 S
C1161 N1160 1.351 . S
C1161 C1162 1.434 . S
C1162 C1153 1.425 1_565 S
C1162 N1159 1.350 . S
C1162 C1161 1.434 . S
C1163 C1164 1.369 . S
C1163 C1165 1.419 . S
C1163 H1167 0.930 . S
C1164 C1163 1.369 . S
C1164 C1173 1.429 . S
C1165 C1163 1.419 . S
C1165 C1166 1.363 . S
C1165 H1168 0.929 . S
C1166 C1165 1.363 . S
C1166 C1172 1.430 . S
H1167 C1163 0.930 . S
H1168 C1165 0.929 . S
S1169 N1170 1.613 1_655 S
S1169 N1171 1.610 . S
N1170 S1169 1.613 1_455 S
N1170 C1173 1.350 . S
N1171 S1169 1.610 . S
N1171 C1172 1.350 1_655 S
C1172 C1166 1.430 . S
C1172 N1171 1.350 1_455 S
C1172 C1173 1.435 . S
C1173 C1164 1.429 . S
C1173 N1170 1.350 . S
C1173 C1172 1.435 . S
C1174 C1175 1.372 . S
C1174 C1176 1.419 . S
C1174 H1178 0.930 . S
C1175 C1174 1.372 . S
C1175 C1184 1.426 1_545 S
C1176 C1174 1.419 . S
C1176 C1177 1.364 . S
C1176 H1179 0.929 . S
C1177 C1176 1.364 . S
C1177 C1183 1.427 1_545 S
H1178 C1174 0.930 . S
H1179 C1176 0.929 . S
S1180 N1181 1.613 . S
S1180 N1182 1.610 . S
N1181 S1180 1.613 . S
N1181 C1184 1.350 . S
N1182 S1180 1.610 . S
N1182 C1183 1.351 . S
C1183 C1177 1.427 1_565 S
C1183 N1182 1.351 . S
C1183 C1184 1.434 . S
C1184 C1175 1.426 1_565 S
C1184 N1181 1.350 . S
C1184 C1183 1.434 . S
C1185 C1186 1.369 . S
C1185 C1187 1.419 . S
C1185 H1189 0.930 . S
C1186 C1185 1.369 . S
C1186 C1195 1.429 1_455 S
C1187 C1185 1.419 . S
C1187 C1188 1.363 . S
C1187 H1190 0.929 . S
C1188 C1187 1.363 . S
C1188 C1194 1.428 1_455 S
H1189 C1185 0.930 . S
H1190 C1187 0.929 . S
S1191 N1192 1.613 . S
S1191 N1193 1.610 . S
N1192 S1191 1.613 . S
N1192 C1195 1.350 . S
N1193 S1191 1.610 . S
N1193 C1194 1.351 . S
C1194 C1188 1.428 1_655 S
C1194 N1193 1.351 . S
C1194 C1195 1.434 . S
C1195 C1186 1.429 1_655 S
C1195 N1192 1.350 . S
C1195 C1194 1.434 . S
C1196 C1197 1.366 1_556 S
C1196 C1198 1.419 . S
C1196 H1200 0.933 . S
C1197 C1196 1.366 1_554 S
C1197 C1206 1.429 . S
C1198 C1196 1.419 . S
C1198 C1199 1.363 1_556 S
C1198 H1201 0.929 . S
C1199 C1198 1.363 1_554 S
C1199 C1205 1.428 . S
H1200 C1196 0.933 . S
H1201 C1198 0.929 . S
S1202 N1203 1.613 . S
S1202 N1204 1.610 . S
N1203 S1202 1.613 . S
N1203 C1206 1.350 . S
N1204 S1202 1.610 . S
N1204 C1205 1.351 . S
C1205 C1199 1.428 . S
C1205 N1204 1.351 . S
C1205 C1206 1.434 . S
C1206 C1197 1.429 . S
C1206 N1203 1.350 . S
C1206 C1205 1.434 . S
C1207 C1208 1.369 1_556 S
C1207 C1209 1.419 . S
C1207 H1211 0.930 . S
C1208 C1207 1.369 1_554 S
C1208 C1217 1.429 . S
C1209 C1207 1.419 . S
C1209 C1210 1.363 1_556 S
C1209 H1212 0.929 . S
C1210 C1209 1.363 1_554 S
C1210 C1216 1.428 . S
H1211 C1207 0.930 . S
H1212 C1209 0.929 . S
S1213 N1214 1.613 . S
S1213 N1215 1.610 . S
N1214 S1213 1.613 . S
N1214 C1217 1.350 . S
N1215 S1213 1.610 . S
N1215 C1216 1.351 . S
C1216 C1210 1.428 . S
C1216 N1215 1.351 . S
C1216 C1217 1.434 . S
C1217 C1208 1.429 . S
C1217 N1214 1.350 . S
C1217 C1216 1.434 . S
C1218 C1219 1.369 1_556 S
C1218 C1220 1.419 . S
C1218 H1222 0.930 . S
C1219 C1218 1.369 1_554 S
C1219 C1228 1.429 . S
C1220 C1218 1.419 . S
C1220 C1221 1.363 1_556 S
C1220 H1223 0.929 . S
C1221 C1220 1.363 1_554 S
C1221 C1227 1.428 . S
H1222 C1218 0.930 . S
H1223 C1220 0.929 . S
S1224 N1225 1.613 . S
S1224 N1226 1.610 . S
N1225 S1224 1.613 . S
N1225 C1228 1.350 . S
N1226 S1224 1.610 . S
N1226 C1227 1.351 . S
C1227 C1221 1.428 . S
C1227 N1226 1.351 . S
C1227 C1228 1.434 . S
C1228 C1219 1.429 . S
C1228 N1225 1.350 . S
C1228 C1227 1.434 . S
C1229 C1230 1.369 1_556 S
C1229 C1231 1.419 . S
C1229 H1233 0.930 . S
C1230 C1229 1.369 1_554 S
C1230 C1239 1.429 . S
C1231 C1229 1.419 . S
C1231 C1232 1.363 1_556 S
C1231 H1234 0.929 . S
C1232 C1231 1.363 1_554 S
C1232 C1238 1.428 . S
H1233 C1229 0.930 . S
H1234 C1231 0.929 . S
S1235 N1236 1.613 . S
S1235 N1237 1.610 . S
N1236 S1235 1.613 . S
N1236 C1239 1.350 . S
N1237 S1235 1.610 . S
N1237 C1238 1.351 . S
C1238 C1232 1.428 . S
C1238 N1237 1.351 . S
C1238 C1239 1.434 . S
C1239 C1230 1.429 . S
C1239 N1236 1.350 . S
C1239 C1238 1.434 . S
C1240 C1241 1.369 . S
C1240 C1242 1.419 . S
C1240 H1244 0.930 . S
C1241 C1240 1.369 . S
C1241 C1250 1.429 1_554 S
C1242 C1240 1.419 . S
C1242 C1243 1.363 . S
C1242 H1245 0.929 . S
C1243 C1242 1.363 . S
C1243 C1249 1.428 1_554 S
H1244 C1240 0.930 . S
H1245 C1242 0.929 . S
S1246 N1247 1.613 . S
S1246 N1248 1.610 . S
N1247 S1246 1.613 . S
N1247 C1250 1.350 . S
N1248 S1246 1.610 . S
N1248 C1249 1.351 . S
C1249 C1243 1.428 1_556 S
C1249 N1248 1.351 . S
C1249 C1250 1.434 . S
C1250 C1241 1.429 1_556 S
C1250 N1247 1.350 . S
C1250 C1249 1.434 . S
C1251 C1252 1.369 1_556 S
C1251 C1253 1.419 . S
C1251 H1255 0.930 . S
C1252 C1251 1.369 1_554 S
C1252 C1261 1.429 . S
C1253 C1251 1.419 . S
C1253 C1254 1.363 1_556 S
C1253 H1256 0.929 . S
C1254 C1253 1.363 1_554 S
C1254 C1260 1.428 . S
H1255 C1251 0.930 . S
H1256 C1253 0.929 . S
S1257 N1258 1.613 . S
S1257 N1259 1.610 . S
N1258 S1257 1.613 . S
N1258 C1261 1.350 . S
N1259 S1257 1.610 . S
N1259 C1260 1.351 . S
C1260 C1254 1.428 . S
C1260 N1259 1.351 . S
C1260 C1261 1.434 . S
C1261 C1252 1.429 . S
C1261 N1258 1.350 . S
C1261 C1260 1.434 . S
C1262 C1263 1.369 . S
C1262 C1264 1.419 . S
C1262 H1266 0.930 . S
C1263 C1262 1.369 . S
C1263 C1272 1.429 1_554 S
C1264 C1262 1.419 . S
C1264 C1265 1.363 . S
C1264 H1267 0.929 . S
C1265 C1264 1.363 . S
C1265 C1271 1.428 1_554 S
H1266 C1262 0.930 . S
H1267 C1264 0.929 . S
S1268 N1269 1.613 . S
S1268 N1270 1.610 . S
N1269 S1268 1.613 . S
N1269 C1272 1.350 . S
N1270 S1268 1.610 . S
N1270 C1271 1.351 . S
C1271 C1265 1.428 1_556 S
C1271 N1270 1.351 . S
C1271 C1272 1.434 . S
C1272 C1263 1.429 1_556 S
C1272 N1269 1.350 . S
C1272 C1271 1.434 . S
C1273 C1274 1.369 . S
C1273 C1275 1.419 . S
C1273 H1277 0.930 . S
C1274 C1273 1.369 . S
C1274 C1283 1.429 1_554 S
C1275 C1273 1.419 . S
C1275 C1276 1.363 . S
C1275 H1278 0.929 . S
C1276 C1275 1.363 . S
C1276 C1282 1.428 1_554 S
H1277 C1273 0.930 . S
H1278 C1275 0.929 . S
S1279 N1280 1.613 . S
S1279 N1281 1.610 . S
N1280 S1279 1.613 . S
N1280 C1283 1.350 . S
N1281 S1279 1.610 . S
N1281 C1282 1.351 . S
C1282 C1276 1.428 1_556 S
C1282 N1281 1.351 . S
C1282 C1283 1.434 . S
C1283 C1274 1.429 1_556 S
C1283 N1280 1.350 . S
C1283 C1282 1.434 . S
C1284 C1285 1.369 . S
C1284 C1286 1.419 . S
C1284 H1288 0.930 . S
C1285 C1284 1.369 . S
C1285 C1294 1.429 . S
C1286 C1284 1.419 . S
C1286 C1287 1.363 . S
C1286 H1289 0.929 . S
C1287 C1286 1.363 . S
C1287 C1293 1.428 . S
H1288 C1284 0.930 . S
H1289 C1286 0.929 . S
S1290 N1291 1.613 . S
S1290 N1292 1.610 . S
N1291 S1290 1.613 . S
N1291 C1294 1.350 . S
N1292 S1290 1.610 . S
N1292 C1293 1.351 . S
C1293 C1287 1.428 . S
C1293 N1292 1.351 . S
C1293 C1294 1.434 . S
C1294 C1285 1.429 . S
C1294 N1291 1.350 . S
C1294 C1293 1.434 . S
C1295 C1296 1.369 . S
C1295 C1297 1.419 . S
C1295 H1299 0.930 . S
C1296 C1295 1.369 . S
C1296 C1305 1.429 . S
C1297 C1295 1.419 . S
C1297 C1298 1.363 . S
C1297 H1300 0.929 . S
C1298 C1297 1.363 . S
C1298 C1304 1.428 . S
H1299 C1295 0.930 . S
H1300 C1297 0.929 . S
S1301 N1302 1.613 . S
S1301 N1303 1.610 . S
N1302 S1301 1.613 . S
N1302 C1305 1.350 . S
N1303 S1301 1.610 . S
N1303 C1304 1.351 . S
C1304 C1298 1.428 . S
C1304 N1303 1.351 . S
C1304 C1305 1.434 . S
C1305 C1296 1.429 . S
C1305 N1302 1.350 . S
C1305 C1304 1.434 . S
C1306 C1307 1.369 . S
C1306 C1308 1.419 . S
C1306 H1310 0.930 . S
C1307 C1306 1.369 . S
C1307 C1316 1.429 . S
C1308 C1306 1.419 . S
C1308 C1309 1.363 . S
C1308 H1311 0.929 . S
C1309 C1308 1.363 . S
C1309 C1315 1.428 . S
H1310 C1306 0.930 . S
H1311 C1308 0.929 . S
S1312 N1313 1.613 . S
S1312 N1314 1.610 . S
N1313 S1312 1.613 . S
N1313 C1316 1.350 . S
N1314 S1312 1.610 . S
N1314 C1315 1.351 . S
C1315 C1309 1.428 . S
C1315 N1314 1.351 . S
C1315 C1316 1.434 . S
C1316 C1307 1.429 . S
C1316 N1313 1.350 . S
C1316 C1315 1.434 . S
C1317 C1318 1.369 . S
C1317 C1319 1.419 . S
C1317 H1321 0.930 . S
C1318 C1317 1.369 . S
C1318 C1327 1.429 . S
C1319 C1317 1.419 . S
C1319 C1320 1.363 . S
C1319 H1322 0.929 . S
C1320 C1319 1.363 . S
C1320 C1326 1.428 . S
H1321 C1317 0.930 . S
H1322 C1319 0.929 . S
S1323 N1324 1.613 . S
S1323 N1325 1.610 . S
N1324 S1323 1.613 . S
N1324 C1327 1.350 . S
N1325 S1323 1.610 . S
N1325 C1326 1.351 . S
C1326 C1320 1.428 . S
C1326 N1325 1.351 . S
C1326 C1327 1.434 . S
C1327 C1318 1.429 . S
C1327 N1324 1.350 . S
C1327 C1326 1.434 . S
C1328 C1329 1.369 . S
C1328 C1330 1.419 . S
C1328 H1332 0.930 . S
C1329 C1328 1.369 . S
C1329 C1338 1.429 . S
C1330 C1328 1.419 . S
C1330 C1331 1.363 . S
C1330 H1333 0.929 . S
C1331 C1330 1.363 . S
C1331 C1337 1.428 . S
H1332 C1328 0.930 . S
H1333 C1330 0.929 . S
S1334 N1335 1.613 . S
S1334 N1336 1.610 . S
N1335 S1334 1.613 . S
N1335 C1338 1.350 . S
N1336 S1334 1.610 . S
N1336 C1337 1.351 . S
C1337 C1331 1.428 . S
C1337 N1336 1.351 . S
C1337 C1338 1.434 . S
C1338 C1329 1.429 . S
C1338 N1335 1.350 . S
C1338 C1337 1.434 . S
C1339 C1340 1.369 . S
C1339 C1341 1.419 . S
C1339 H1343 0.930 . S
C1340 C1339 1.369 . S
C1340 C1349 1.429 . S
C1341 C1339 1.419 . S
C1341 C1342 1.363 . S
C1341 H1344 0.929 . S
C1342 C1341 1.363 . S
C1342 C1348 1.428 . S
H1343 C1339 0.930 . S
H1344 C1341 0.929 . S
S1345 N1346 1.613 . S
S1345 N1347 1.610 . S
N1346 S1345 1.613 . S
N1346 C1349 1.350 . S
N1347 S1345 1.610 . S
N1347 C1348 1.351 . S
C1348 C1342 1.428 . S
C1348 N1347 1.351 . S
C1348 C1349 1.434 . S
C1349 C1340 1.429 . S
C1349 N1346 1.350 . S
C1349 C1348 1.434 . S
C1350 C1351 1.369 . S
C1350 C1352 1.419 . S
C1350 H1354 0.930 . S
C1351 C1350 1.369 . S
C1351 C1360 1.429 . S
C1352 C1350 1.419 . S
C1352 C1353 1.363 . S
C1352 H1355 0.929 . S
C1353 C1352 1.363 . S
C1353 C1359 1.428 . S
H1354 C1350 0.930 . S
H1355 C1352 0.929 . S
S1356 N1357 1.613 . S
S1356 N1358 1.610 . S
N1357 S1356 1.613 . S
N1357 C1360 1.350 . S
N1358 S1356 1.610 . S
N1358 C1359 1.351 . S
C1359 C1353 1.428 . S
C1359 N1358 1.351 . S
C1359 C1360 1.434 . S
C1360 C1351 1.429 . S
C1360 N1357 1.350 . S
C1360 C1359 1.434 . S
C1361 C1362 1.369 . S
C1361 C1363 1.419 . S
C1361 H1365 0.930 . S
C1362 C1361 1.369 . S
C1362 C1371 1.429 . S
C1363 C1361 1.419 . S
C1363 C1364 1.363 . S
C1363 H1366 0.929 . S
C1364 C1363 1.363 . S
C1364 C1370 1.428 . S
H1365 C1361 0.930 . S
H1366 C1363 0.929 . S
S1367 N1368 1.613 . S
S1367 N1369 1.610 . S
N1368 S1367 1.613 . S
N1368 C1371 1.350 . S
N1369 S1367 1.610 . S
N1369 C1370 1.351 . S
C1370 C1364 1.428 . S
C1370 N1369 1.351 . S
C1370 C1371 1.434 . S
C1371 C1362 1.429 . S
C1371 N1368 1.350 . S
C1371 C1370 1.434 . S
C1372 C1373 1.369 . S
C1372 C1374 1.419 . S
C1372 H1376 0.930 . S
C1373 C1372 1.369 . S
C1373 C1382 1.429 . S
C1374 C1372 1.419 . S
C1374 C1375 1.363 . S
C1374 H1377 0.929 . S
C1375 C1374 1.363 . S
C1375 C1381 1.428 . S
H1376 C1372 0.930 . S
H1377 C1374 0.929 . S
S1378 N1379 1.613 . S
S1378 N1380 1.610 . S
N1379 S1378 1.613 . S
N1379 C1382 1.350 . S
N1380 S1378 1.610 . S
N1380 C1381 1.351 . S
C1381 C1375 1.428 . S
C1381 N1380 1.351 . S
C1381 C1382 1.434 . S
C1382 C1373 1.429 . S
C1382 N1379 1.350 . S
C1382 C1381 1.434 . S
C1383 C1384 1.369 . S
C1383 C1385 1.419 . S
C1383 H1387 0.930 . S
C1384 C1383 1.369 . S
C1384 C1393 1.429 . S
C1385 C1383 1.419 . S
C1385 C1386 1.363 . S
C1385 H1388 0.929 . S
C1386 C1385 1.363 . S
C1386 C1392 1.428 . S
H1387 C1383 0.930 . S
H1388 C1385 0.929 . S
S1389 N1390 1.613 . S
S1389 N1391 1.610 . S
N1390 S1389 1.613 . S
N1390 C1393 1.350 . S
N1391 S1389 1.610 . S
N1391 C1392 1.351 . S
C1392 C1386 1.428 . S
C1392 N1391 1.351 . S
C1392 C1393 1.434 . S
C1393 C1384 1.429 . S
C1393 N1390 1.350 . S
C1393 C1392 1.434 . S
C1394 C1395 1.369 . S
C1394 C1396 1.419 . S
C1394 H1398 0.930 . S
C1395 C1394 1.369 . S
C1395 C1404 1.429 . S
C1396 C1394 1.419 . S
C1396 C1397 1.363 . S
C1396 H1399 0.929 . S
C1397 C1396 1.363 . S
C1397 C1403 1.428 . S
H1398 C1394 0.930 . S
H1399 C1396 0.929 . S
S1400 N1401 1.613 . S
S1400 N1402 1.610 . S
N1401 S1400 1.613 . S
N1401 C1404 1.350 . S
N1402 S1400 1.610 . S
N1402 C1403 1.351 . S
C1403 C1397 1.428 . S
C1403 N1402 1.351 . S
C1403 C1404 1.434 . S
C1404 C1395 1.429 . S
C1404 N1401 1.350 . S
C1404 C1403 1.434 . S
C1405 C1406 1.369 . S
C1405 C1407 1.419 . S
C1405 H1409 0.930 . S
C1406 C1405 1.369 . S
C1406 C1415 1.429 . S
C1407 C1405 1.419 . S
C1407 C1408 1.363 . S
C1407 H1410 0.929 . S
C1408 C1407 1.363 . S
C1408 C1414 1.428 . S
H1409 C1405 0.930 . S
H1410 C1407 0.929 . S
S1411 N1412 1.613 . S
S1411 N1413 1.610 . S
N1412 S1411 1.613 . S
N1412 C1415 1.350 . S
N1413 S1411 1.610 . S
N1413 C1414 1.351 . S
C1414 C1408 1.428 . S
C1414 N1413 1.351 . S
C1414 C1415 1.434 . S
C1415 C1406 1.429 . S
C1415 N1412 1.350 . S
C1415 C1414 1.434 . S
C1416 C1417 1.369 . S
C1416 C1418 1.419 . S
C1416 H1420 0.930 . S
C1417 C1416 1.369 . S
C1417 C1426 1.429 . S
C1418 C1416 1.419 . S
C1418 C1419 1.363 . S
C1418 H1421 0.929 . S
C1419 C1418 1.363 . S
C1419 C1425 1.428 . S
H1420 C1416 0.930 . S
H1421 C1418 0.929 . S
S1422 N1423 1.613 . S
S1422 N1424 1.610 . S
N1423 S1422 1.613 . S
N1423 C1426 1.350 . S
N1424 S1422 1.610 . S
N1424 C1425 1.351 . S
C1425 C1419 1.428 . S
C1425 N1424 1.351 . S
C1425 C1426 1.434 . S
C1426 C1417 1.429 . S
C1426 N1423 1.350 . S
C1426 C1425 1.434 . S
C1427 C1428 1.369 . S
C1427 C1429 1.419 . S
C1427 H1431 0.930 . S
C1428 C1427 1.369 . S
C1428 C1437 1.429 . S
C1429 C1427 1.419 . S
C1429 C1430 1.363 . S
C1429 H1432 0.929 . S
C1430 C1429 1.363 . S
C1430 C1436 1.428 . S
H1431 C1427 0.930 . S
H1432 C1429 0.929 . S
S1433 N1434 1.613 . S
S1433 N1435 1.610 . S
N1434 S1433 1.613 . S
N1434 C1437 1.350 . S
N1435 S1433 1.610 . S
N1435 C1436 1.351 . S
C1436 C1430 1.428 . S
C1436 N1435 1.351 . S
C1436 C1437 1.434 . S
C1437 C1428 1.429 . S
C1437 N1434 1.350 . S
C1437 C1436 1.434 . S
C1438 C1439 1.369 . S
C1438 C1440 1.419 . S
C1438 H1442 0.930 . S
C1439 C1438 1.369 . S
C1439 C1448 1.429 . S
C1440 C1438 1.419 . S
C1440 C1441 1.363 . S
C1440 H1443 0.929 . S
C1441 C1440 1.363 . S
C1441 C1447 1.428 . S
H1442 C1438 0.930 . S
H1443 C1440 0.929 . S
S1444 N1445 1.613 . S
S1444 N1446 1.610 . S
N1445 S1444 1.613 . S
N1445 C1448 1.350 . S
N1446 S1444 1.610 . S
N1446 C1447 1.351 . S
C1447 C1441 1.428 . S
C1447 N1446 1.351 . S
C1447 C1448 1.434 . S
C1448 C1439 1.429 . S
C1448 N1445 1.350 . S
C1448 C1447 1.434 . S
C1449 C1450 1.369 . S
C1449 C1451 1.419 . S
C1449 H1453 0.930 . S
C1450 C1449 1.369 . S
C1450 C1459 1.429 . S
C1451 C1449 1.419 . S
C1451 C1452 1.363 . S
C1451 H1454 0.929 . S
C1452 C1451 1.363 . S
C1452 C1458 1.428 . S
H1453 C1449 0.930 . S
H1454 C1451 0.929 . S
S1455 N1456 1.613 . S
S1455 N1457 1.610 . S
N1456 S1455 1.613 . S
N1456 C1459 1.350 . S
N1457 S1455 1.610 . S
N1457 C1458 1.351 . S
C1458 C1452 1.428 . S
C1458 N1457 1.351 . S
C1458 C1459 1.434 . S
C1459 C1450 1.429 . S
C1459 N1456 1.350 . S
C1459 C1458 1.434 . S
C1460 C1461 1.369 . S
C1460 C1462 1.419 . S
C1460 H1464 0.930 . S
C1461 C1460 1.369 . S
C1461 C1470 1.429 . S
C1462 C1460 1.419 . S
C1462 C1463 1.363 . S
C1462 H1465 0.929 . S
C1463 C1462 1.363 . S
C1463 C1469 1.428 . S
H1464 C1460 0.930 . S
H1465 C1462 0.929 . S
S1466 N1467 1.613 . S
S1466 N1468 1.610 . S
N1467 S1466 1.613 . S
N1467 C1470 1.350 . S
N1468 S1466 1.610 . S
N1468 C1469 1.351 . S
C1469 C1463 1.428 . S
C1469 N1468 1.351 . S
C1469 C1470 1.434 . S
C1470 C1461 1.429 . S
C1470 N1467 1.350 . S
C1470 C1469 1.434 . S
C1471 C1472 1.369 . S
C1471 C1473 1.419 . S
C1471 H1475 0.930 . S
C1472 C1471 1.369 . S
C1472 C1481 1.429 . S
C1473 C1471 1.419 . S
C1473 C1474 1.363 . S
C1473 H1476 0.929 . S
C1474 C1473 1.363 . S
C1474 C1480 1.428 . S
H1475 C1471 0.930 . S
H1476 C1473 0.929 . S
S1477 N1478 1.613 . S
S1477 N1479 1.610 . S
N1478 S1477 1.613 . S
N1478 C1481 1.350 . S
N1479 S1477 1.610 . S
N1479 C1480 1.351 . S
C1480 C1474 1.428 . S
C1480 N1479 1.351 . S
C1480 C1481 1.434 . S
C1481 C1472 1.429 . S
C1481 N1478 1.350 . S
C1481 C1480 1.434 . S
C1482 C1483 1.369 . S
C1482 C1484 1.419 . S
C1482 H1486 0.930 . S
C1483 C1482 1.369 . S
C1483 C1492 1.429 . S
C1484 C1482 1.419 . S
C1484 C1485 1.363 . S
C1484 H1487 0.929 . S
C1485 C1484 1.363 . S
C1485 C1491 1.428 . S
H1486 C1482 0.930 . S
H1487 C1484 0.929 . S
S1488 N1489 1.613 . S
S1488 N1490 1.610 . S
N1489 S1488 1.613 . S
N1489 C1492 1.350 . S
N1490 S1488 1.610 . S
N1490 C1491 1.351 . S
C1491 C1485 1.428 . S
C1491 N1490 1.351 . S
C1491 C1492 1.434 . S
C1492 C1483 1.429 . S
C1492 N1489 1.350 . S
C1492 C1491 1.434 . S
C1493 C1494 1.369 . S
C1493 C1495 1.419 . S
C1493 H1497 0.930 . S
C1494 C1493 1.369 . S
C1494 C1503 1.429 . S
C1495 C1493 1.419 . S
C1495 C1496 1.363 . S
C1495 H1498 0.929 . S
C1496 C1495 1.363 . S
C1496 C1502 1.428 . S
H1497 C1493 0.930 . S
H1498 C1495 0.929 . S
S1499 N1500 1.613 . S
S1499 N1501 1.610 . S
N1500 S1499 1.613 . S
N1500 C1503 1.350 . S
N1501 S1499 1.610 . S
N1501 C1502 1.351 . S
C1502 C1496 1.428 . S
C1502 N1501 1.351 . S
C1502 C1503 1.434 . S
C1503 C1494 1.429 . S
C1503 N1500 1.350 . S
C1503 C1502 1.434 . S
C1504 C1505 1.369 . S
C1504 C1506 1.419 . S
C1504 H1508 0.930 . S
C1505 C1504 1.369 . S
C1505 C1514 1.429 . S
C1506 C1504 1.419 . S
C1506 C1507 1.363 . S
C1506 H1509 0.929 . S
C1507 C1506 1.363 . S
C1507 C1513 1.428 . S
H1508 C1504 0.930 . S
H1509 C1506 0.929 . S
S1510 N1511 1.613 . S
S1510 N1512 1.610 . S
N1511 S1510 1.613 . S
N1511 C1514 1.350 . S
N1512 S1510 1.610 . S
N1512 C1513 1.351 . S
C1513 C1507 1.428 . S
C1513 N1512 1.351 . S
C1513 C1514 1.434 . S
C1514 C1505 1.429 . S
C1514 N1511 1.350 . S
C1514 C1513 1.434 . S
C1515 C1516 1.369 . S
C1515 C1517 1.419 . S
C1515 H1519 0.930 . S
C1516 C1515 1.369 . S
C1516 C1525 1.429 . S
C1517 C1515 1.419 . S
C1517 C1518 1.363 . S
C1517 H1520 0.929 . S
C1518 C1517 1.363 . S
C1518 C1524 1.428 . S
H1519 C1515 0.930 . S
H1520 C1517 0.929 . S
S1521 N1522 1.613 . S
S1521 N1523 1.610 . S
N1522 S1521 1.613 . S
N1522 C1525 1.350 . S
N1523 S1521 1.610 . S
N1523 C1524 1.351 . S
C1524 C1518 1.428 . S
C1524 N1523 1.351 . S
C1524 C1525 1.434 . S
C1525 C1516 1.429 . S
C1525 N1522 1.350 . S
C1525 C1524 1.434 . S
C1526 C1527 1.369 . S
C1526 C1528 1.419 . S
C1526 H1530 0.930 . S
C1527 C1526 1.369 . S
C1527 C1536 1.429 . S
C1528 C1526 1.419 . S
C1528 C1529 1.363 . S
C1528 H1531 0.929 . S
C1529 C1528 1.363 . S
C1529 C1535 1.428 . S
H1530 C1526 0.930 . S
H1531 C1528 0.929 . S
S1532 N1533 1.613 . S
S1532 N1534 1.610 . S
N1533 S1532 1.613 . S
N1533 C1536 1.350 . S
N1534 S1532 1.610 . S
N1534 C1535 1.351 . S
C1535 C1529 1.428 . S
C1535 N1534 1.351 . S
C1535 C1536 1.434 . S
C1536 C1527 1.429 . S
C1536 N1533 1.350 . S
C1536 C1535 1.434 . S
C1537 C1538 1.369 . S
C1537 C1539 1.419 . S
C1537 H1541 0.930 . S
C1538 C1537 1.369 . S
C1538 C1547 1.429 . S
C1539 C1537 1.419 . S
C1539 C1540 1.363 . S
C1539 H1542 0.929 . S
C1540 C1539 1.363 . S
C1540 C1546 1.428 . S
H1541 C1537 0.930 . S
H1542 C1539 0.929 . S
S1543 N1544 1.613 . S
S1543 N1545 1.610 . S
N1544 S1543 1.613 . S
N1544 C1547 1.350 . S
N1545 S1543 1.610 . S
N1545 C1546 1.351 . S
C1546 C1540 1.428 . S
C1546 N1545 1.351 . S
C1546 C1547 1.434 . S
C1547 C1538 1.429 . S
C1547 N1544 1.350 . S
C1547 C1546 1.434 . S
C759 C462 1.729 . S
C757 C439 1.733 . S
C768 C401 1.838 . S
C770 C460 1.835 . S
C781 C461 1.835 . S
C779 C382 1.839 . S
C790 C420 1.734 . S
C792 C463 1.729 . S
C803 C507 1.712 . S
C801 C306 1.721 . S
C814 C567 1.785 . S
C812 C325 1.795 . S
C823 C344 1.683 . S
C825 C506 1.679 . S
C836 C566 1.889 . S
C834 C363 1.896 . S
C845 C230 1.804 . S
C847 C508 1.800 . S
C858 C564 1.746 . S
C856 C249 1.748 . S
C867 C268 1.817 . S
C869 C509 1.807 . S
C878 C287 1.650 . S
C880 C565 1.644 . S
C891 C615 1.729 . S
C889 C211 1.733 . S
C900 C173 1.839 . S
C902 C614 1.836 . S
C911 C154 1.838 . S
C913 C616 1.834 . S
C924 C617 1.728 . S
C922 C192 1.734 . S
C933 C78 1.720 . S
C935 C658 1.712 . S
C944 C97 1.795 . S
C946 C717 1.785 . S
C955 C116 1.683 . S
C957 C656 1.678 . S
C966 C135 1.896 . S
C968 C716 1.888 . S
C979 C657 1.799 . S
C977 C2 1.805 . S
C990 C714 1.747 . S
C988 C21 1.748 . S
C999 C40 1.817 . S
C1001 C659 1.807 . S
C1012 C715 1.645 . S
C1010 C59 1.650 1_565 S
C1023 C459 1.608 . S
C1021 C6 1.588 . S
C1032 C30 1.441 . S
C1034 C465 1.470 . S
C1043 C49 1.374 . S
C1045 C457 1.400 . S
C1054 C68 1.317 1_545 S
C1056 C464 1.348 . S
C1065 C82 1.566 . S
C1067 C456 1.587 . S
C1078 C466 1.400 . S
C1076 C106 1.367 . S
C1087 C125 1.363 . S
C1089 C458 1.380 . S
C1100 C467 1.797 . S
C1098 C139 1.789 . S
C1111 C513 1.556 . S
C1109 C63 1.520 1_545 S
C1120 C11 1.382 1_455 S
C1122 C556 1.406 . S
C1133 C511 1.538 . S
C1131 C25 1.508 . S
C1144 C558 1.628 . S
C1142 C44 1.612 . S
C1153 C101 1.631 . S
C1155 C512 1.648 . S
C1166 C557 1.484 . S
C1164 C120 1.450 . S
C1177 C510 1.417 . S
C1175 C144 1.390 . S
C1188 C559 1.342 . S
C1186 C87 1.325 1_455 S
C1199 C563 1.468 . S
C1197 C163 1.435 . S
C1208 C182 1.436 1_554 S
C1210 C562 1.468 . S
C1221 C514 1.711 . S
C1219 C158 1.689 . S
C1232 C561 1.680 . S
C1230 C196 1.658 . S
C1241 C220 1.386 . S
C1243 C517 1.409 . S
C1252 C215 1.654 . S
C1254 C560 1.679 . S
C1265 C516 1.712 . S
C1263 C177 1.688 . S
C1276 C515 1.410 . S
C1274 C201 1.387 . S
C1287 C609 1.609 . S
C1285 C234 1.592 . S
C1298 C612 1.472 . S
C1296 C258 1.433 . S
C1307 C277 1.375 . S
C1309 C608 1.395 . S
C1320 C610 1.348 . S
C1318 C296 1.317 . S
C1331 C606 1.587 . S
C1329 C310 1.570 . S
C1340 C334 1.367 . S
C1342 C611 1.398 . S
C1351 C353 1.359 . S
C1353 C607 1.380 . S
C1364 C613 1.797 . S
C1362 C367 1.789 . S
C1375 C667 1.556 . S
C1373 C291 1.520 . S
C1384 C239 1.383 . S
C1386 C706 1.407 . S
C1397 C666 1.538 . S
C1395 C253 1.504 . S
C1408 C708 1.627 . S
C1406 C272 1.607 . S
C1419 C665 1.648 . S
C1417 C329 1.630 . S
C1428 C348 1.451 . S
C1430 C707 1.484 . S
C1441 C664 1.416 . S
C1439 C372 1.385 . S
C1452 C709 1.343 . S
C1450 C315 1.321 . S
C1463 C713 1.466 . S
C1461 C391 1.435 . S
C1472 C410 1.430 . S
C1474 C712 1.468 . S
C1485 C660 1.711 . S
C1483 C386 1.686 . S
C1494 C424 1.658 . S
C1496 C711 1.680 . S
C1507 C663 1.411 . S
C1505 C448 1.393 . S
C1518 C710 1.680 . S
C1516 C443 1.656 . S
C1529 C661 1.712 . S
C1527 C405 1.692 . S
C1538 C429 1.382 . S
C1540 C662 1.409 . S
