# Generated by pormake.
# Topology anh, (6,3)-cn, num edge types: 1
# Building blocks:
#     Node 0, Type 0, BuildingBlock: PAMTOO_clean_sbu_0, # of connection points: 6
#     Node 1, Type 0, BuildingBlock: PAMTOO_clean_sbu_0, # of connection points: 6
#     Node 2, Type 0, BuildingBlock: PAMTOO_clean_sbu_0, # of connection points: 6
#     Node 3, Type 1, BuildingBlock: KAKCAD_clean_linker_0, # of connection points: 3
#     Node 4, Type 1, BuildingBlock: KAKCAD_clean_linker_0, # of connection points: 3
#     Node 5, Type 1, BuildingBlock: KAKCAD_clean_linker_0, # of connection points: 3
#     Node 6, Type 1, BuildingBlock: KAKCAD_clean_linker_0, # of connection points: 3
#     Node 7, Type 1, BuildingBlock: KAKCAD_clean_linker_0, # of connection points: 3
#     Node 8, Type 1, BuildingBlock: KAKCAD_clean_linker_0, # of connection points: 3
#     Edge 9, Type (0, 1), BuildingBlock: KIFKEQ_clean_linker_1, # of connection points: 2
#     Edge 10, Type (0, 1), BuildingBlock: KIFKEQ_clean_linker_1, # of connection points: 2
#     Edge 11, Type (0, 1), BuildingBlock: KIFKEQ_clean_linker_1, # of connection points: 2
#     Edge 12, Type (0, 1), BuildingBlock: KIFKEQ_clean_linker_1, # of connection points: 2
#     Edge 13, Type (0, 1), BuildingBlock: KIFKEQ_clean_linker_1, # of connection points: 2
#     Edge 14, Type (0, 1), BuildingBlock: KIFKEQ_clean_linker_1, # of connection points: 2
#     Edge 15, Type (0, 1), BuildingBlock: KIFKEQ_clean_linker_1, # of connection points: 2
#     Edge 16, Type (0, 1), BuildingBlock: KIFKEQ_clean_linker_1, # of connection points: 2
#     Edge 17, Type (0, 1), BuildingBlock: KIFKEQ_clean_linker_1, # of connection points: 2
#     Edge 18, Type (0, 1), BuildingBlock: KIFKEQ_clean_linker_1, # of connection points: 2
#     Edge 19, Type (0, 1), BuildingBlock: KIFKEQ_clean_linker_1, # of connection points: 2
#     Edge 20, Type (0, 1), BuildingBlock: KIFKEQ_clean_linker_1, # of connection points: 2
#     Edge 21, Type (0, 1), BuildingBlock: KIFKEQ_clean_linker_1, # of connection points: 2
#     Edge 22, Type (0, 1), BuildingBlock: KIFKEQ_clean_linker_1, # of connection points: 2
#     Edge 23, Type (0, 1), BuildingBlock: KIFKEQ_clean_linker_1, # of connection points: 2
#     Edge 24, Type (0, 1), BuildingBlock: KIFKEQ_clean_linker_1, # of connection points: 2
#     Edge 25, Type (0, 1), BuildingBlock: KIFKEQ_clean_linker_1, # of connection points: 2
#     Edge 26, Type (0, 1), BuildingBlock: KIFKEQ_clean_linker_1, # of connection points: 2
# Relax obj value: 0.177
# Max RMSD: 0.194
# Mean RMSD: 0.155
data_MOF--net-anh--node1-PAMTOO_clean_sbu_0--node2-KAKCAD_clean_linker_0--edge1-KIFKEQ_clean_linker_1
_symmetry_space_group_name_H-M    P1
_symmetry_Int_Tables_number       1
_symmetry_cell_setting            triclinic
loop_
_symmetry_equiv_pos_as_xyz
'x, y, z'
_cell_length_a     36.564834
_cell_length_b     35.796819
_cell_length_c     68.355977
_cell_angle_alpha  90.723528
_cell_angle_beta   95.035612
_cell_angle_gamma 104.81869
loop_
_atom_site_label
_atom_site_type_symbol
_atom_site_fract_x
_atom_site_fract_y
_atom_site_fract_z
_atom_type_partial_charge
Dy0 Dy 0.07509 0.59537 0.15228 0.0
Dy1 Dy 1.04732 0.50239 0.13983 0.0
C2 C 0.07064 0.56668 0.10738 0.0
O3 O 1.01289 0.58468 0.14217 0.0
O4 O 0.99501 0.5195 0.14715 0.0
O5 O 0.08301 0.65614 0.14668 0.0
O6 O 0.09987 0.63805 0.17551 0.0
O7 O 1.06386 0.50869 0.17222 0.0
O8 O 1.04662 0.56448 0.17709 0.0
O9 O 0.1092 0.51922 0.13517 0.0
O10 O 0.12709 0.57225 0.15645 0.0
O11 O 1.04998 0.44359 0.14522 0.0
O12 O 1.01057 0.45501 0.12203 0.0
C13 C 0.98632 0.55256 0.14408 0.0
O14 O 0.08805 0.59246 0.12121 0.0
O15 O 1.04932 0.53256 0.11133 0.0
C16 C 0.13632 0.69772 0.1655 0.0
C17 C 0.2057 0.75583 0.16973 0.0
C18 C 0.19299 0.73511 0.1517 0.0
C19 C 0.15865 0.70623 0.14961 0.0
C20 C 0.14887 0.71836 0.18342 0.0
C21 C 0.18318 0.74691 0.18556 0.0
C22 C 0.10036 0.66709 0.16412 0.0
C23 C 1.05365 0.53279 0.18383 0.0
C24 C 0.13573 0.54542 0.1457 0.0
C25 C 0.98971 0.3994 0.14013 0.0
C26 C 0.92979 0.34334 0.15461 0.0
C27 C 0.93206 0.38305 0.15688 0.0
C28 C 0.96179 0.41074 0.14981 0.0
C29 C 0.98769 0.35997 0.13777 0.0
C30 C 0.95803 0.33215 0.14496 0.0
C31 C 1.02086 0.42871 0.1326 0.0
H32 H 0.20941 0.74135 0.13915 0.0
H33 H 0.14968 0.69056 0.13562 0.0
H34 H 0.13225 0.71207 0.19591 0.0
H35 H 0.19233 0.7615 0.19979 0.0
H36 H 0.91061 0.39282 0.16394 0.0
H37 H 0.96291 0.44108 0.15184 0.0
H38 H 1.00912 0.3507 0.13043 0.0
H39 H 0.95754 0.30192 0.1432 0.0
Dy40 Dy 0.55132 0.02226 0.51278 0.0
Dy41 Dy 0.64475 0.04909 0.51963 0.0
C42 C 0.59501 0.0321 0.55517 0.0
O43 O 0.56664 0.08567 0.50761 0.0
O44 O 0.62531 0.10242 0.5251 0.0
O45 O 0.4978 0.99876 0.5246 0.0
O46 O 0.49876 0.01739 0.49458 0.0
O47 O 0.6272 0.06033 0.48862 0.0
O48 O 0.57399 0.01023 0.48477 0.0
O49 O 0.63159 0.98493 0.51458 0.0
O50 O 0.56729 0.96683 0.5181 0.0
O51 O 0.69942 0.04883 0.51024 0.0
O52 O 0.69594 0.08107 0.53682 0.0
C53 C 0.59559 0.11184 0.51639 0.0
O54 O 0.56864 0.04282 0.54407 0.0
O55 O 0.62386 0.02422 0.54748 0.0
C56 C 0.45038 0.9631 0.50147 0.0
C57 C 0.39719 0.89203 0.49116 0.0
C58 C 0.43643 0.89515 0.49166 0.0
C59 C 0.46278 0.93042 0.49676 0.0
C60 C 0.41142 0.96037 0.50079 0.0
C61 C 0.38499 0.92514 0.49565 0.0
C62 C 0.47793 0.99959 0.50789 0.0
C63 C 0.60144 0.03528 0.47724 0.0
C64 C 0.59982 0.95833 0.51639 0.0
C65 C 0.74574 0.10819 0.51746 0.0
C66 C 0.7989 0.174 0.50577 0.0
C67 C 0.77063 0.15178 0.49202 0.0
C68 C 0.74414 0.11931 0.49782 0.0
C69 C 0.77392 0.13035 0.53121 0.0
C70 C 0.80019 0.1631 0.52544 0.0
C71 C 0.71787 0.07419 0.52391 0.0
H72 H 0.44681 0.87018 0.48852 0.0
H73 H 0.49286 0.93212 0.49728 0.0
H74 H 0.40143 0.9854 0.5044 0.0
H75 H 0.35501 0.92388 0.4951 0.0
H76 H 0.7687 0.15983 0.47681 0.0
H77 H 0.72237 0.10305 0.48694 0.0
H78 H 0.77556 0.12234 0.54643 0.0
H79 H 0.82185 0.17959 0.5363 0.0
Dy80 Dy 0.59118 0.50038 0.84296 0.0
Dy81 Dy 0.49925 0.48251 0.83481 0.0
C82 C 0.55249 0.49443 0.80044 0.0
O83 O 0.58003 0.55804 0.83661 0.0
O84 O 0.51819 0.54506 0.84395 0.0
O85 O 0.6469 0.52951 0.83533 0.0
O86 O 0.64073 0.49179 0.86012 0.0
O87 O 0.51208 0.46934 0.86624 0.0
O88 O 0.56955 0.51376 0.87088 0.0
O89 O 0.51089 0.42522 0.82925 0.0
O90 O 0.56941 0.43682 0.8468 0.0
O91 O 0.44359 0.47792 0.84434 0.0
O92 O 0.44978 0.46849 0.81359 0.0
C93 C 0.55001 0.56971 0.84041 0.0
O94 O 0.57575 0.47998 0.81175 0.0
O95 O 0.52618 0.50719 0.8081 0.0
C96 C 0.69121 0.49255 0.84091 0.0
C97 C 0.74733 0.46227 0.82596 0.0
C98 C 0.71269 0.45951 0.81465 0.0
C99 C 0.68468 0.47435 0.82213 0.0
C100 C 0.72489 0.49373 0.85255 0.0
C101 C 0.75271 0.47868 0.84517 0.0
C102 C 0.66386 0.5116 0.84829 0.0
C103 C 0.53976 0.49146 0.87799 0.0
C104 C 0.53905 0.41292 0.83776 0.0
C105 C 0.41047 0.50811 0.82099 0.0
C106 C 0.38376 0.57198 0.80852 0.0
C107 C 0.41018 0.57551 0.82508 0.0
C108 C 0.42334 0.54401 0.83123 0.0
C109 C 0.38411 0.50431 0.80442 0.0
C110 C 0.37067 0.53598 0.79828 0.0
C111 C 0.42807 0.4765 0.82631 0.0
H112 H 0.70776 0.44697 0.79984 0.0
H113 H 0.65849 0.47272 0.81301 0.0
H114 H 0.73025 0.5075 0.8671 0.0
H115 H 0.77934 0.48196 0.85415 0.0
H116 H 0.42015 0.60248 0.83362 0.0
H117 H 0.44389 0.54794 0.84397 0.0
H118 H 0.37435 0.47707 0.79611 0.0
H119 H 0.35027 0.53239 0.78547 0.0
C120 C 0.61729 0.07671 0.32015 0.0
C121 C 0.60436 0.04178 0.32956 0.0
C122 C 0.61558 0.07734 0.29964 0.0
C123 C 0.60136 0.04295 0.28811 0.0
C124 C 0.58941 0.00791 0.29767 0.0
C125 C 0.5906 0.00739 0.31814 0.0
C126 C 0.59808 0.04356 0.26622 0.0
C127 C 0.62572 0.06885 0.25627 0.0
C128 C 0.62233 0.06993 0.23562 0.0
C129 C 0.59115 0.04426 0.22481 0.0
C130 C 0.5635 0.01825 0.23452 0.0
C131 C 0.56694 0.0188 0.25517 0.0
C132 C 0.53047 0.99048 0.22353 0.0
C133 C 0.50966 1.00196 0.20745 0.0
C134 C 0.5179 0.95267 0.23011 0.0
C135 C 0.48414 0.92783 0.22174 0.0
C136 C 0.46228 0.93994 0.20639 0.0
C137 C 0.65173 0.0979 0.2256 0.0
C138 C 0.66727 0.13555 0.2337 0.0
C139 C 0.66553 0.08704 0.20841 0.0
C140 C 0.69491 0.11287 0.19988 0.0
C141 C 0.71121 0.15002 0.20842 0.0
C142 C 0.69669 0.16119 0.22527 0.0
C143 C 0.47587 0.97681 0.19891 0.0
H144 H 0.62778 0.10367 0.32866 0.0
H145 H 0.62454 0.10493 0.29283 0.0
H146 H 0.57916 0.98072 0.28936 0.0
H147 H 0.58097 0.98 0.32506 0.0
H148 H 0.65044 0.08726 0.26464 0.0
H149 H 0.54468 1.00027 0.26271 0.0
H150 H 0.58838 0.04452 0.20891 0.0
H151 H 0.51849 0.03091 0.20207 0.0
H152 H 0.53375 0.94253 0.24213 0.0
H153 H 0.47468 0.8993 0.22755 0.0
H154 H 0.65675 0.14525 0.24666 0.0
H155 H 0.65446 0.05819 0.20187 0.0
H156 H 0.45947 0.98684 0.18709 0.0
H157 H 0.70809 0.18988 0.23196 0.0
H158 H 0.70564 0.10336 0.18694 0.0
C159 C 0.56096 0.54471 0.64456 0.0
C160 C 0.58292 0.52399 0.65561 0.0
C161 C 0.56268 0.54751 0.62428 0.0
C162 C 0.58626 0.52951 0.61456 0.0
C163 C 0.60853 0.50913 0.62559 0.0
C164 C 0.60696 0.50647 0.6459 0.0
C165 C 0.58658 0.53101 0.59289 0.0
C166 C 0.5878 0.56567 0.58339 0.0
C167 C 0.58606 0.56716 0.56276 0.0
C168 C 0.58422 0.5331 0.55161 0.0
C169 C 0.58285 0.49799 0.56103 0.0
C170 C 0.58429 0.49745 0.58162 0.0
C171 C 0.57922 0.46111 0.54986 0.0
C172 C 0.55267 0.42745 0.55475 0.0
C173 C 0.60458 0.45814 0.53598 0.0
C174 C 0.60481 0.42181 0.52808 0.0
C175 C 0.57951 0.38784 0.53381 0.0
C176 C 0.58565 0.60452 0.55337 0.0
C177 C 0.56594 0.62914 0.56147 0.0
C178 C 0.60662 0.61722 0.5373 0.0
C179 C 0.60927 0.65441 0.5302 0.0
C180 C 0.5913 0.67947 0.5392 0.0
C181 C 0.56911 0.66626 0.55463 0.0
C182 C 0.55285 0.39135 0.54689 0.0
H183 H 0.54168 0.55801 0.65148 0.0
H184 H 0.54477 0.56294 0.61612 0.0
H185 H 0.62732 0.49537 0.61852 0.0
H186 H 0.62472 0.49084 0.65401 0.0
H187 H 0.59057 0.59177 0.59222 0.0
H188 H 0.58312 0.47053 0.58894 0.0
H189 H 0.58246 0.53353 0.53571 0.0
H190 H 0.53255 0.42889 0.56529 0.0
H191 H 0.62539 0.48361 0.53198 0.0
H192 H 0.62537 0.42026 0.51782 0.0
H193 H 0.54857 0.62003 0.57346 0.0
H194 H 0.6222 0.59912 0.53073 0.0
H195 H 0.53318 0.36601 0.55185 0.0
H196 H 0.55461 0.68496 0.56161 0.0
H197 H 0.62652 0.66413 0.51824 0.0
C198 C 0.07133 0.64305 0.95418 0.0
C199 C 0.10217 0.63646 0.96614 0.0
C200 C 0.07447 0.65048 0.93429 0.0
C201 C 0.10865 0.65195 0.92604 0.0
C202 C 0.13983 0.64647 0.93812 0.0
C203 C 0.13655 0.63855 0.95795 0.0
C204 C 0.11097 0.65642 0.90463 0.0
C205 C 0.14214 0.68241 0.89741 0.0
C206 C 0.1452 0.68467 0.8771 0.0
C207 C 0.11731 0.66004 0.86408 0.0
C208 C 0.0863 0.63355 0.871 0.0
C209 C 0.08296 0.63256 0.89133 0.0
C210 C 1.05849 0.60587 0.85706 0.0
C211 C 1.04759 0.61725 0.83827 0.0
C212 C 1.04272 0.56772 0.86238 0.0
C213 C 1.01522 0.54231 0.84972 0.0
C214 C 1.00316 0.55417 0.83125 0.0
C215 C 0.1797 0.70842 0.86918 0.0
C216 C 0.1766 0.72873 0.85191 0.0
C217 C 0.21551 0.70466 0.87659 0.0
C218 C 0.24658 0.71641 0.86561 0.0
C219 C 0.24241 0.73225 0.84702 0.0
C220 C 0.20777 0.74073 0.84095 0.0
C221 C 1.02057 0.59161 0.82547 0.0
H222 H 1.04444 0.64137 0.96007 0.0
H223 H 1.05004 0.65468 0.92529 0.0
H224 H 0.16639 0.64707 0.93207 0.0
H225 H 0.16085 0.63389 0.96689 0.0
H226 H 0.16411 0.7006 0.90758 0.0
H227 H 1.05907 0.61239 0.89693 0.0
H228 H 0.12108 0.65997 0.84853 0.0
H229 H 1.05905 0.64638 0.83363 0.0
H230 H 1.05118 0.55751 0.87647 0.0
H231 H 1.00224 0.51395 0.85487 0.0
H232 H 0.14933 0.73259 0.84608 0.0
H233 H 0.2187 0.68906 0.88985 0.0
H234 H 1.01245 0.6016 0.81125 0.0
H235 H 0.20383 0.75369 0.82695 0.0
H236 H 0.27265 0.70915 0.87081 0.0
C237 C 1.03424 0.51532 0.34174 0.0
C238 C 1.06353 0.5104 0.3308 0.0
C239 C 1.03886 0.51603 0.36227 0.0
C240 C 0.07316 0.51271 0.37211 0.0
C241 C 0.10244 0.50777 0.36117 0.0
C242 C 0.0975 0.5062 0.34065 0.0
C243 C 0.07868 0.51512 0.39379 0.0
C244 C 1.05335 0.48978 0.40483 0.0
C245 C 1.05877 0.49159 0.42545 0.0
C246 C 0.08944 0.51976 0.43498 0.0
C247 C 0.11463 0.54593 0.42407 0.0
C248 C 0.10923 0.543 0.40344 0.0
C249 C 0.14568 0.57729 0.43405 0.0
C250 C 0.139 0.59852 0.45019 0.0
C251 C 0.1816 0.58766 0.42682 0.0
C252 C 0.20974 0.61937 0.43508 0.0
C253 C 0.20266 0.64141 0.4508 0.0
C254 C 1.03286 0.46326 0.43689 0.0
C255 C 0.99334 0.45465 0.4322 0.0
C256 C 1.04756 0.44326 0.4519 0.0
C257 C 1.02328 0.41424 0.46157 0.0
C258 C 0.98382 0.40496 0.45654 0.0
C259 C 0.96904 0.4259 0.44199 0.0
C260 C 0.16718 0.63021 0.45848 0.0
H261 H 1.00781 0.51858 0.3344 0.0
H262 H 1.016 0.52 0.37046 0.0
H263 H 0.12907 0.50504 0.36852 0.0
H264 H 0.12052 0.50263 0.33247 0.0
H265 H 1.03006 0.46787 0.39731 0.0
H266 H 0.12803 0.56328 0.39479 0.0
H267 H 0.09358 0.52139 0.4509 0.0
H268 H 0.11155 0.59147 0.45602 0.0
H269 H 0.18781 0.57158 0.41456 0.0
H270 H 0.23662 0.62734 0.4287 0.0
H271 H 0.98126 0.46987 0.42079 0.0
H272 H 0.07793 0.44917 0.45572 0.0
H273 H 0.16099 0.64625 0.47076 0.0
H274 H 0.93877 0.41918 0.43772 0.0
H275 H 1.03538 0.39874 0.47283 0.0
C276 C 0.54993 0.97207 0.70815 0.0
C277 C 0.57497 0.00428 0.70081 0.0
C278 C 0.54675 0.96919 0.72835 0.0
C279 C 0.56876 0.99834 0.74163 0.0
C280 C 0.59445 0.03008 0.73424 0.0
C281 C 0.59737 0.0331 0.71407 0.0
C282 C 0.56428 0.99636 0.76305 0.0
C283 C 0.55916 0.96123 0.7726 0.0
C284 C 0.55447 0.95926 0.79282 0.0
C285 C 0.55566 0.99346 0.80365 0.0
C286 C 0.56115 0.02904 0.79426 0.0
C287 C 0.56486 0.02989 0.77398 0.0
C288 C 0.56227 0.06585 0.80493 0.0
C289 C 0.53382 0.06859 0.81704 0.0
C290 C 0.58942 0.09981 0.8009 0.0
C291 C 0.58639 0.13588 0.80737 0.0
C292 C 0.55645 0.13892 0.81827 0.0
C293 C 0.54903 0.92119 0.80224 0.0
C294 C 0.52487 0.88789 0.79258 0.0
C295 C 0.57004 0.91714 0.81996 0.0
C296 C 0.56827 0.88036 0.8273 0.0
C297 C 0.5453 0.84689 0.81713 0.0
C298 C 0.52308 0.85128 0.79988 0.0
C299 C 0.531 0.10493 0.82372 0.0
H300 H 0.53209 0.94958 0.69823 0.0
H301 H 0.52636 0.94461 0.7335 0.0
H302 H 0.61243 0.05265 0.74407 0.0
H303 H 0.61738 0.05792 0.70884 0.0
H304 H 0.55967 0.93536 0.76433 0.0
H305 H 0.56737 0.05687 0.76655 0.0
H306 H 0.5523 0.9924 0.81924 0.0
H307 H 0.51246 0.04295 0.82034 0.0
H308 H 0.61211 0.09859 0.79192 0.0
H309 H 0.60678 0.16161 0.80327 0.0
H310 H 0.50795 0.89006 0.77901 0.0
H311 H 0.589 0.94223 0.82771 0.0
H312 H 0.50768 0.10656 0.83215 0.0
H313 H 0.50534 0.82631 0.79152 0.0
H314 H 0.58537 0.87811 0.84078 0.0
C315 C 0.55664 0.48329 0.0383 0.0
C316 C 0.53797 0.50425 0.02542 0.0
C317 C 0.55969 0.49048 0.05861 0.0
C318 C 0.54414 0.51881 0.06649 0.0
C319 C 0.52505 0.5394 0.05361 0.0
C320 C 0.52197 0.53218 0.03333 0.0
C321 C 0.54845 0.52754 0.08801 0.0
C322 C 0.58315 0.53009 0.09909 0.0
C323 C 0.58813 0.53995 0.11926 0.0
C324 C 0.55736 0.54713 0.12861 0.0
C325 C 0.52205 0.54451 0.11756 0.0
C326 C 0.51817 0.53451 0.0974 0.0
C327 C 0.4883 0.55219 0.12611 0.0
C328 C 0.47094 0.52982 0.14117 0.0
C329 C 0.46934 0.57752 0.11663 0.0
C330 C 0.43295 0.57854 0.12103 0.0
C331 C 0.41428 0.5543 0.13511 0.0
C332 C 0.62659 0.54357 0.12953 0.0
C333 C 0.6401 0.51038 0.132 0.0
C334 C 0.65265 0.58001 0.13244 0.0
C335 C 0.69166 0.58314 0.13682 0.0
C336 C 0.70553 0.54987 0.13843 0.0
C337 C 0.67896 0.51346 0.13654 0.0
C338 C 0.4343 0.53093 0.14566 0.0
H339 H 0.56885 0.46123 0.03268 0.0
H340 H 0.57409 0.47373 0.06815 0.0
H341 H 0.51329 0.56186 0.05917 0.0
H342 H 0.50797 0.5493 0.0238 0.0
H343 H 0.607 0.52553 0.09187 0.0
H344 H 0.49103 0.53172 0.08894 0.0
H345 H 0.56099 0.55507 0.14413 0.0
H346 H 0.4846 0.50971 0.14858 0.0
H347 H 0.48199 0.59526 0.10502 0.0
H348 H 0.41889 0.59755 0.11293 0.0
H349 H 0.62079 0.48193 0.12932 0.0
H350 H 0.64316 0.60605 0.13013 0.0
H351 H 0.42083 0.51189 0.15661 0.0
H352 H 0.68838 0.48715 0.13743 0.0
H353 H 0.71111 0.61168 0.13837 0.0
H354 H 0.16592 0.50194 0.12139 0.0
H355 H 0.19834 0.5882 0.16882 0.0
H356 H 0.23248 0.50276 0.11974 0.0
H357 H 0.2651 0.58899 0.16711 0.0
H358 H 0.37888 0.55198 0.16938 0.0
H359 H 0.3118 0.54862 0.17275 0.0
H360 H 0.29016 0.54757 0.10963 0.0
H361 H 0.35658 0.55052 0.10629 0.0
C362 C 0.18716 0.521 0.13155 0.0
C363 C 0.17649 0.54507 0.14521 0.0
C364 C 0.22548 0.52161 0.13052 0.0
C365 C 0.25436 0.54605 0.14325 0.0
C366 C 0.24369 0.56957 0.15719 0.0
C367 C 0.20533 0.56926 0.15808 0.0
C368 C 0.35972 0.55086 0.15625 0.0
C369 C 0.37335 0.55182 0.13757 0.0
C370 C 0.32131 0.54922 0.15817 0.0
C371 C 0.2954 0.5478 0.14146 0.0
C372 C 0.30905 0.54827 0.12283 0.0
C373 C 0.34736 0.55038 0.12092 0.0
H374 H 0.83947 0.17917 0.47389 0.0
H375 H 0.82171 0.2461 0.52352 0.0
H376 H 0.88522 0.23581 0.46317 0.0
H377 H 0.8678 0.30283 0.51285 0.0
H378 H 0.91592 0.40283 0.47103 0.0
H379 H 0.87191 0.34711 0.48389 0.0
H380 H 0.95011 0.27746 0.47527 0.0
H381 H 0.99385 0.33292 0.46224 0.0
C382 C 0.84536 0.20604 0.48248 0.0
C383 C 0.82705 0.2083 0.49951 0.0
C384 C 0.87174 0.23833 0.47645 0.0
C385 C 0.8801 0.27365 0.48722 0.0
C386 C 0.86173 0.27599 0.50424 0.0
C387 C 0.83562 0.24352 0.5104 0.0
C388 C 0.92369 0.37562 0.47196 0.0
C389 C 0.95826 0.37217 0.46563 0.0
C390 C 0.89867 0.34387 0.47943 0.0
C391 C 0.90758 0.30798 0.48049 0.0
C392 C 0.94241 0.30472 0.47445 0.0
C393 C 0.96757 0.33653 0.46718 0.0
H394 H 0.60512 0.62861 0.82716 0.0
H395 H 0.49721 0.6055 0.85194 0.0
H396 H 0.60413 0.69598 0.8235 0.0
H397 H 0.49653 0.67288 0.84864 0.0
H398 H 0.48557 0.78208 0.81658 0.0
H399 H 0.48789 0.71624 0.82359 0.0
H400 H 0.60861 0.75628 0.84025 0.0
H401 H 0.60661 0.8219 0.83223 0.0
C402 C 0.58141 0.63796 0.83207 0.0
C403 C 0.55111 0.61145 0.83969 0.0
C404 C 0.58091 0.67672 0.83006 0.0
C405 C 0.55016 0.69001 0.83569 0.0
C406 C 0.52036 0.66364 0.84381 0.0
C407 C 0.52082 0.62492 0.84577 0.0
C408 C 0.51266 0.77689 0.8217 0.0
C409 C 0.54595 0.8074 0.82367 0.0
C410 C 0.51393 0.73909 0.82596 0.0
C411 C 0.5485 0.73074 0.83242 0.0
C412 C 0.58158 0.76146 0.83502 0.0
C413 C 0.58033 0.79927 0.83069 0.0
H414 H 0.956 0.61566 0.1415 0.0
H415 H 0.92367 0.49144 0.14549 0.0
H416 H 0.88941 0.61663 0.14128 0.0
H417 H 0.85732 0.49224 0.14473 0.0
H418 H 0.74403 0.50654 0.16114 0.0
H419 H 0.81138 0.50846 0.16305 0.0
H420 H 0.8296 0.60108 0.12222 0.0
H421 H 0.76235 0.59945 0.12056 0.0
C422 C 0.93475 0.5885 0.14223 0.0
C423 C 0.94552 0.5535 0.14355 0.0
C424 C 0.89637 0.58901 0.142 0.0
C425 C 0.86754 0.55452 0.14306 0.0
C426 C 0.87845 0.51955 0.14428 0.0
C427 C 0.91673 0.51905 0.14457 0.0
C428 C 0.76238 0.52736 0.15257 0.0
C429 C 0.74745 0.55281 0.14069 0.0
C430 C 0.80116 0.52839 0.1536 0.0
C431 C 0.82634 0.55475 0.14268 0.0
C432 C 0.8115 0.5807 0.13108 0.0
C433 C 0.77273 0.57979 0.13013 0.0
H434 H 0.39916 0.83802 0.46279 0.0
H435 H 0.33174 0.86069 0.50821 0.0
H436 H 0.35278 0.77649 0.4544 0.0
H437 H 0.28521 0.79929 0.49968 0.0
H438 H 0.19078 0.71098 0.46136 0.0
H439 H 0.23814 0.77051 0.47208 0.0
H440 H 0.32732 0.71242 0.46792 0.0
H441 H 0.27986 0.65261 0.45734 0.0
C442 C 0.37465 0.82973 0.47112 0.0
C443 C 0.36911 0.85436 0.48613 0.0
C444 C 0.34808 0.79445 0.46631 0.0
C445 C 0.31533 0.78305 0.47637 0.0
C446 C 0.30991 0.80752 0.49147 0.0
C447 C 0.33652 0.84274 0.49632 0.0
C448 C 0.22042 0.71066 0.46306 0.0
C449 C 0.23151 0.677 0.45848 0.0
C450 C 0.24758 0.74483 0.46917 0.0
C451 C 0.28648 0.7462 0.47078 0.0
C452 C 0.29758 0.71241 0.46653 0.0
C453 C 0.2704 0.67817 0.46047 0.0
H454 H 0.49229 0.35703 0.81281 0.0
H455 H 0.58228 0.3742 0.86004 0.0
H456 H 0.4931 0.28923 0.80926 0.0
H457 H 0.58273 0.30629 0.85653 0.0
H458 H 0.54713 0.17128 0.85355 0.0
H459 H 0.53957 0.23668 0.85963 0.0
H460 H 0.54379 0.25822 0.79777 0.0
H461 H 0.55168 0.19351 0.7918 0.0
C462 C 0.5119 0.34627 0.82259 0.0
C463 C 0.53738 0.37111 0.83662 0.0
C464 C 0.51244 0.30749 0.82051 0.0
C465 C 0.53803 0.29255 0.8326 0.0
C466 C 0.56252 0.31696 0.84712 0.0
C467 C 0.5624 0.35591 0.84902 0.0
C468 C 0.54621 0.19004 0.84131 0.0
C469 C 0.55025 0.17755 0.82225 0.0
C470 C 0.54205 0.22739 0.84477 0.0
C471 C 0.54099 0.25244 0.82915 0.0
C472 C 0.54414 0.23945 0.81005 0.0
C473 C 0.54896 0.20256 0.80667 0.0
H474 H 0.54046 0.89398 0.50909 0.0
H475 H 0.66143 0.92955 0.52563 0.0
H476 H 0.54151 0.82634 0.51236 0.0
H477 H 0.66222 0.86182 0.52915 0.0
H478 H 0.62735 0.74348 0.56142 0.0
H479 H 0.63197 0.81106 0.55377 0.0
H480 H 0.57094 0.77456 0.49693 0.0
H481 H 0.56705 0.7067 0.50455 0.0
C482 C 0.5673 0.88739 0.51331 0.0
C483 C 0.60085 0.9172 0.51718 0.0
C484 C 0.56791 0.84863 0.51504 0.0
C485 C 0.60193 0.83886 0.52101 0.0
C486 C 0.63558 0.86857 0.52458 0.0
C487 C 0.63511 0.90731 0.5225 0.0
C488 C 0.6155 0.75006 0.54718 0.0
C489 C 0.59698 0.72014 0.53352 0.0
C490 C 0.61821 0.78863 0.54278 0.0
C491 C 0.6018 0.79803 0.52477 0.0
C492 C 0.58373 0.76807 0.51095 0.0
C493 C 0.58167 0.7294 0.51522 0.0
H494 H 0.79837 0.42493 0.84236 0.0
H495 H 0.77086 0.48159 0.78977 0.0
H496 H 0.86308 0.43455 0.83387 0.0
H497 H 0.83532 0.48983 0.78078 0.0
H498 H 0.98139 0.47467 0.82601 0.0
H499 H 0.91737 0.43563 0.81529 0.0
H500 H 0.88426 0.53947 0.79914 0.0
H501 H 0.94691 0.57803 0.81013 0.0
C502 C 0.80576 0.43792 0.82853 0.0
C503 C 0.78009 0.45389 0.81714 0.0
C504 C 0.84282 0.44306 0.8235 0.0
C505 C 0.85469 0.46421 0.80696 0.0
C506 C 0.82719 0.4743 0.79388 0.0
C507 C 0.79014 0.46937 0.79899 0.0
C508 C 0.96059 0.48901 0.81976 0.0
C509 C 0.96907 0.52965 0.81953 0.0
C510 C 0.92404 0.46659 0.81347 0.0
C511 C 0.89549 0.48443 0.8067 0.0
C512 C 0.90548 0.52456 0.80412 0.0
C513 C 0.94174 0.5469 0.81054 0.0
H514 H 0.27314 0.75586 0.15464 0.0
H515 H 0.22194 0.82465 0.1908 0.0
H516 H 0.33465 0.80299 0.1616 0.0
H517 H 0.28354 0.87074 0.19818 0.0
H518 H 0.4063 0.90529 0.22868 0.0
H519 H 0.34388 0.86321 0.21784 0.0
H520 H 0.36951 0.87586 0.15744 0.0
H521 H 0.43243 0.91851 0.16838 0.0
C522 C 0.27477 0.78122 0.16381 0.0
C523 C 0.24255 0.78607 0.17237 0.0
C524 C 0.31006 0.80815 0.16781 0.0
C525 C 0.31389 0.84025 0.18059 0.0
C526 C 0.28149 0.84591 0.18852 0.0
C527 C 0.24624 0.81933 0.18436 0.0
C528 C 0.39865 0.89907 0.21308 0.0
C529 C 0.42423 0.91498 0.19937 0.0
C530 C 0.36283 0.87524 0.20687 0.0
C531 C 0.35183 0.86638 0.1868 0.0
C532 C 0.37737 0.88217 0.17301 0.0
C533 C 0.41317 0.90664 0.17924 0.0
H534 H 0.54432 0.14457 0.49611 0.0
H535 H 0.64426 0.17257 0.53768 0.0
H536 H 0.54169 0.21187 0.49743 0.0
H537 H 0.6409 0.23948 0.53954 0.0
H538 H 0.64397 0.36377 0.52948 0.0
H539 H 0.64881 0.29829 0.52286 0.0
H540 H 0.52641 0.25704 0.51872 0.0
H541 H 0.52155 0.32275 0.52416 0.0
C542 C 0.56568 0.16504 0.50559 0.0
C543 C 0.59442 0.15303 0.51684 0.0
C544 C 0.56408 0.20369 0.50642 0.0
C545 C 0.59101 0.23132 0.51864 0.0
C546 C 0.62001 0.21931 0.5297 0.0
C547 C 0.62178 0.18075 0.52876 0.0
C548 C 0.61803 0.34092 0.52666 0.0
C549 C 0.58236 0.34866 0.52751 0.0
C550 C 0.62083 0.30316 0.52317 0.0
C551 C 0.58804 0.27207 0.52051 0.0
C552 C 0.55233 0.2801 0.52057 0.0
C553 C 0.54954 0.31786 0.52393 0.0
H554 H 0.30965 0.56997 0.79821 0.0
H555 H 0.42138 0.64875 0.80767 0.0
H556 H 0.28121 0.62388 0.79882 0.0
H557 H 0.39276 0.70332 0.80829 0.0
H558 H 0.22773 0.71059 0.80799 0.0
H559 H 0.26823 0.68356 0.78893 0.0
H560 H 0.36016 0.72024 0.83486 0.0
H561 H 0.32036 0.74941 0.85342 0.0
C562 C 0.32823 0.59896 0.79961 0.0
C563 C 0.36766 0.60502 0.8034 0.0
C564 C 0.31191 0.63013 0.79989 0.0
C565 C 0.33469 0.66804 0.80397 0.0
C566 C 0.37441 0.67443 0.80551 0.0
C567 C 0.39075 0.64318 0.80522 0.0
C568 C 0.25719 0.71491 0.81362 0.0
C569 C 0.27038 0.73086 0.83266 0.0
C570 C 0.28033 0.69893 0.80271 0.0
C571 C 0.31681 0.69818 0.81075 0.0
C572 C 0.33199 0.71974 0.82828 0.0
C573 C 0.30899 0.73617 0.83909 0.0
H574 H 0.89728 0.34744 0.18895 0.0
H575 H 0.89053 0.2725 0.13797 0.0
H576 H 0.8445 0.3007 0.20124 0.0
H577 H 0.83899 0.22461 0.15087 0.0
H578 H 0.72039 0.16659 0.16979 0.0
H579 H 0.7733 0.21253 0.15663 0.0
H580 H 0.82913 0.23916 0.2154 0.0
H581 H 0.776 0.19398 0.22847 0.0
C582 C 0.88457 0.32098 0.18033 0.0
C583 C 0.89819 0.31393 0.1624 0.0
C584 C 0.85456 0.29384 0.18754 0.0
C585 C 0.83745 0.25869 0.17711 0.0
C586 C 0.85116 0.2515 0.15921 0.0
C587 C 0.88111 0.27879 0.15194 0.0
C588 C 0.74412 0.18214 0.17985 0.0
C589 C 0.74387 0.1769 0.20018 0.0
C590 C 0.77452 0.20841 0.17232 0.0
C591 C 0.80549 0.22983 0.18495 0.0
C592 C 0.80545 0.2239 0.20525 0.0
C593 C 0.775 0.1979 0.21276 0.0
H594 H 1.05303 0.51782 0.07478 0.0
H595 H 0.09921 0.63801 0.09301 0.0
H596 H 1.06099 0.53469 0.04058 0.0
H597 H 0.10701 0.65465 0.05888 0.0
H598 H 0.07155 0.67208 -0.00635 0.0
H599 H 1.06378 0.6547 0.02781 0.0
H600 H 0.11571 0.56069 0.01968 0.0
H601 H 0.12331 0.57795 0.98548 0.0
C602 C 0.06482 0.54779 0.07151 0.0
C603 C 0.07545 0.57656 0.08663 0.0
C604 C 0.06956 0.55738 0.05195 0.0
C605 C 0.08455 0.59598 0.0471 0.0
C606 C 0.09506 0.62472 0.06219 0.0
C607 C 0.09077 0.61511 0.08174 0.0
C608 C 0.08122 0.64767 -0.00083 0.0
C609 C 0.09811 0.62642 0.98695 0.0
C610 C 0.077 0.63789 0.01872 0.0
C611 C 0.08915 0.60636 0.02637 0.0
C612 C 0.10586 0.58497 0.01412 0.0
C613 C 0.11052 0.59506 -0.00537 0.0
H614 H 0.56524 0.97862 0.44993 0.0
H615 H 0.64071 0.09352 0.45588 0.0
H616 H 0.5672 0.97978 0.41445 0.0
H617 H 0.64125 0.09562 0.42033 0.0
H618 H 0.66294 0.07434 0.35713 0.0
H619 H 0.66331 0.07196 0.39282 0.0
H620 H 0.54538 0.00685 0.38632 0.0
H621 H 0.54587 0.0079 0.35074 0.0
C622 C 0.58201 0.00427 0.44362 0.0
C623 C 0.6028 0.03597 0.45569 0.0
C624 C 0.58295 0.00509 0.42324 0.0
C625 C 0.60423 0.0379 0.41438 0.0
C626 C 0.62505 0.06959 0.42655 0.0
C627 C 0.62457 0.06851 0.44697 0.0
C628 C 0.63717 0.05958 0.36343 0.0
C629 C 0.60444 0.04115 0.35123 0.0
C630 C 0.63725 0.05834 0.38388 0.0
C631 C 0.60437 0.03913 0.39258 0.0
C632 C 0.5715 0.02115 0.38025 0.0
C633 C 0.57165 0.0219 0.35983 0.0
H634 H 0.60226 0.46882 0.77948 0.0
H635 H 0.51348 0.52891 0.77344 0.0
H636 H 0.61075 0.47642 0.7446 0.0
H637 H 0.52183 0.53615 0.73858 0.0
H638 H 0.57736 0.579 0.68263 0.0
H639 H 0.57027 0.57165 0.71761 0.0
H640 H 0.57531 0.45277 0.71227 0.0
H641 H 0.58186 0.45986 0.67723 0.0
C642 C 0.58448 0.48353 0.77071 0.0
C643 C 0.55719 0.49827 0.77923 0.0
C644 C 0.58925 0.48773 0.75072 0.0
C645 C 0.56702 0.50695 0.73887 0.0
C646 C 0.53972 0.52163 0.7474 0.0
C647 C 0.53478 0.51725 0.76734 0.0
C648 C 0.57668 0.5512 0.68887 0.0
C649 C 0.58008 0.51999 0.67708 0.0
C650 C 0.57265 0.54702 0.70891 0.0
C651 C 0.57214 0.51161 0.71767 0.0
C652 C 0.57608 0.48056 0.70598 0.0
C653 C 0.57991 0.48467 0.68591 0.0
H654 H 0.54587 0.05619 0.57726 0.0
H655 H 0.63736 0.9996 0.58141 0.0
H656 H 0.54058 0.04917 0.61248 0.0
H657 H 0.63202 0.99274 0.61657 0.0
H658 H 0.58016 0.94925 0.67387 0.0
H659 H 0.58453 0.95601 0.63852 0.0
H660 H 0.58001 0.07501 0.64414 0.0
H661 H 0.5752 0.06813 0.67941 0.0
C662 C 0.56487 0.04232 0.58567 0.0
C663 C 0.59206 0.02849 0.57654 0.0
C664 C 0.56194 0.03846 0.60584 0.0
C665 C 0.58585 0.02035 0.61724 0.0
C666 C 0.61296 0.00646 0.60811 0.0
C667 C 0.61616 0.01065 0.58799 0.0
C668 C 0.57987 0.97675 0.6675 0.0
C669 C 0.57742 0.00818 0.67937 0.0
C670 C 0.58268 0.98071 0.64733 0.0
C671 C 0.58265 0.01606 0.63861 0.0
C672 C 0.57982 0.04736 0.65045 0.0
C673 C 0.57741 0.04352 0.67064 0.0
H674 H 0.59352 0.53159 0.906 0.0
H675 H 0.48223 0.45127 0.89884 0.0
H676 H 0.59162 0.53187 0.94139 0.0
H677 H 0.48066 0.45122 0.93457 0.0
H678 H 0.47787 0.50057 -0.00215 0.0
H679 H 0.47724 0.49559 0.96214 0.0
H680 H 0.5938 0.48841 0.96849 0.0
H681 H 0.59484 0.49465 0.00407 0.0
C682 C 0.56864 0.51384 0.91196 0.0
C683 C 0.53801 0.49135 0.89955 0.0
C684 C 0.56771 0.51381 0.93231 0.0
C685 C 0.53613 0.49134 0.9408 0.0
C686 C 0.5053 0.46901 0.92843 0.0
C687 C 0.50628 0.46892 0.90799 0.0
C688 C 0.50335 0.49797 0.9916 0.0
C689 C 0.53647 0.49822 0.0038 0.0
C690 C 0.50286 0.49471 0.97116 0.0
C691 C 0.53553 0.49183 0.96249 0.0
C692 C 0.56831 0.49109 0.97472 0.0
C693 C 0.56878 0.49423 -0.00488 0.0
H694 H 0.09361 0.49219 0.20669 0.0
H695 H 1.00915 0.55685 0.20843 0.0
H696 H 0.09455 0.4853 0.24212 0.0
H697 H 1.008 0.54795 0.2436 0.0
H698 H 1.04725 0.56719 0.30852 0.0
H699 H 1.04338 0.57048 0.27289 0.0
H700 H 0.06445 0.45713 0.26872 0.0
H701 H 0.07065 0.4554 0.30455 0.0
C702 C 0.07469 0.50425 0.21465 0.0
C703 C 1.05157 0.52533 0.20491 0.0
C704 C 0.075 0.50013 0.23497 0.0
C705 C 1.05156 0.51632 0.24592 0.0
C706 C 1.02726 0.53601 0.23587 0.0
C707 C 1.02763 0.54087 0.21566 0.0
C708 C 1.05087 0.54301 0.29989 0.0
C709 C 1.05924 0.51108 0.30915 0.0
C710 C 1.04839 0.54466 0.27944 0.0
C711 C 1.05341 0.51397 0.26774 0.0
C712 C 1.0611 0.48165 0.27715 0.0
C713 C 0.0644 0.48043 0.29765 0.0
loop_
_geom_bond_atom_site_label_1
_geom_bond_atom_site_label_2
_geom_bond_distance
_geom_bond_site_symmetry_2
_ccdc_geom_bond_type
Dy0 O3 2.307 1_455 S
Dy0 O5 2.395 . S
Dy0 O6 2.379 . S
Dy0 O8 2.339 . S
Dy0 O10 2.298 . S
Dy0 O14 2.275 . S
Dy0 C22 2.738 . S
Dy1 O4 2.298 . S
Dy1 O7 2.275 1_655 S
Dy1 O9 2.307 1_655 S
Dy1 O11 2.395 . S
Dy1 O12 2.379 . S
Dy1 O15 2.339 . S
Dy1 C31 2.738 . S
C2 O14 1.254 . S
C2 O15 1.257 1_455 S
O3 Dy0 2.307 1_655 S
O3 C13 1.266 . S
O4 Dy1 2.298 . S
O4 C13 1.236 . S
O5 Dy0 2.395 . S
O5 C22 1.255 . S
O6 Dy0 2.379 . S
O6 C22 1.249 . S
O7 Dy1 2.275 1_455 S
O7 C23 1.254 . S
O8 Dy0 2.339 . S
O8 C23 1.257 . S
O9 Dy1 2.307 1_455 S
O9 C24 1.266 . S
O10 Dy0 2.298 . S
O10 C24 1.236 . S
O11 Dy1 2.395 . S
O11 C31 1.255 . S
O12 Dy1 2.379 . S
O12 C31 1.249 . S
C13 O3 1.266 . S
C13 O4 1.236 . S
O14 Dy0 2.275 . S
O14 C2 1.254 . S
O15 Dy1 2.339 . S
O15 C2 1.257 1_655 S
C16 C19 1.344 . S
C16 C20 1.328 . S
C16 C22 1.516 . S
C17 C18 1.304 . S
C17 C21 1.323 . S
C18 C17 1.304 . S
C18 C19 1.371 . S
C18 H32 0.930 . S
C19 C16 1.344 . S
C19 C18 1.371 . S
C19 H33 0.931 . S
C20 C16 1.328 . S
C20 C21 1.433 . S
C20 H34 0.931 . S
C21 C17 1.323 . S
C21 C20 1.433 . S
C21 H35 0.933 . S
C22 Dy0 2.738 . S
C22 O5 1.255 . S
C22 O6 1.249 . S
C22 C16 1.516 . S
C23 O7 1.254 . S
C23 O8 1.257 . S
C24 O9 1.266 . S
C24 O10 1.236 . S
C25 C28 1.344 . S
C25 C29 1.328 . S
C25 C31 1.516 . S
C26 C27 1.304 . S
C26 C30 1.323 . S
C27 C26 1.304 . S
C27 C28 1.371 . S
C27 H36 0.930 . S
C28 C25 1.344 . S
C28 C27 1.371 . S
C28 H37 0.931 . S
C29 C25 1.328 . S
C29 C30 1.433 . S
C29 H38 0.931 . S
C30 C26 1.323 . S
C30 C29 1.433 . S
C30 H39 0.933 . S
C31 Dy1 2.738 . S
C31 O11 1.255 . S
C31 O12 1.249 . S
C31 C25 1.516 . S
H32 C18 0.930 . S
H33 C19 0.931 . S
H34 C20 0.931 . S
H35 C21 0.933 . S
H36 C27 0.930 . S
H37 C28 0.931 . S
H38 C29 0.931 . S
H39 C30 0.933 . S
Dy40 O43 2.307 . S
Dy40 O45 2.395 1_545 S
Dy40 O46 2.379 1_545 S
Dy40 O48 2.339 . S
Dy40 O50 2.298 1_545 S
Dy40 O54 2.275 . S
Dy40 C62 2.738 1_545 S
Dy41 O44 2.298 . S
Dy41 O47 2.275 . S
Dy41 O49 2.307 1_545 S
Dy41 O51 2.395 . S
Dy41 O52 2.379 . S
Dy41 O55 2.339 . S
Dy41 C71 2.738 . S
C42 O54 1.254 . S
C42 O55 1.257 . S
O43 Dy40 2.307 . S
O43 C53 1.266 . S
O44 Dy41 2.298 . S
O44 C53 1.236 . S
O45 Dy40 2.395 1_565 S
O45 C62 1.255 . S
O46 Dy40 2.379 1_565 S
O46 C62 1.249 . S
O47 Dy41 2.275 . S
O47 C63 1.254 . S
O48 Dy40 2.339 . S
O48 C63 1.257 . S
O49 Dy41 2.307 1_565 S
O49 C64 1.266 . S
O50 Dy40 2.298 1_565 S
O50 C64 1.236 . S
O51 Dy41 2.395 . S
O51 C71 1.255 . S
O52 Dy41 2.379 . S
O52 C71 1.249 . S
C53 O43 1.266 . S
C53 O44 1.236 . S
O54 Dy40 2.275 . S
O54 C42 1.254 . S
O55 Dy41 2.339 . S
O55 C42 1.257 . S
C56 C59 1.344 . S
C56 C60 1.328 . S
C56 C62 1.516 . S
C57 C58 1.304 . S
C57 C61 1.323 . S
C58 C57 1.304 . S
C58 C59 1.371 . S
C58 H72 0.930 . S
C59 C56 1.344 . S
C59 C58 1.371 . S
C59 H73 0.931 . S
C60 C56 1.328 . S
C60 C61 1.433 . S
C60 H74 0.931 . S
C61 C57 1.323 . S
C61 C60 1.433 . S
C61 H75 0.933 . S
C62 Dy40 2.738 1_565 S
C62 O45 1.255 . S
C62 O46 1.249 . S
C62 C56 1.516 . S
C63 O47 1.254 . S
C63 O48 1.257 . S
C64 O49 1.266 . S
C64 O50 1.236 . S
C65 C68 1.344 . S
C65 C69 1.328 . S
C65 C71 1.516 . S
C66 C67 1.304 . S
C66 C70 1.323 . S
C67 C66 1.304 . S
C67 C68 1.371 . S
C67 H76 0.930 . S
C68 C65 1.344 . S
C68 C67 1.371 . S
C68 H77 0.931 . S
C69 C65 1.328 . S
C69 C70 1.433 . S
C69 H78 0.931 . S
C70 C66 1.323 . S
C70 C69 1.433 . S
C70 H79 0.933 . S
C71 Dy41 2.738 . S
C71 O51 1.255 . S
C71 O52 1.249 . S
C71 C65 1.516 . S
H72 C58 0.930 . S
H73 C59 0.931 . S
H74 C60 0.931 . S
H75 C61 0.933 . S
H76 C67 0.930 . S
H77 C68 0.931 . S
H78 C69 0.931 . S
H79 C70 0.933 . S
Dy80 O83 2.307 . S
Dy80 O85 2.395 . S
Dy80 O86 2.379 . S
Dy80 O88 2.339 . S
Dy80 O90 2.298 . S
Dy80 O94 2.275 . S
Dy80 C102 2.738 . S
Dy81 O84 2.298 . S
Dy81 O87 2.275 . S
Dy81 O89 2.307 . S
Dy81 O91 2.395 . S
Dy81 O92 2.379 . S
Dy81 O95 2.339 . S
Dy81 C111 2.738 . S
C82 O94 1.254 . S
C82 O95 1.257 . S
O83 Dy80 2.307 . S
O83 C93 1.266 . S
O84 Dy81 2.298 . S
O84 C93 1.236 . S
O85 Dy80 2.395 . S
O85 C102 1.255 . S
O86 Dy80 2.379 . S
O86 C102 1.249 . S
O87 Dy81 2.275 . S
O87 C103 1.254 . S
O88 Dy80 2.339 . S
O88 C103 1.257 . S
O89 Dy81 2.307 . S
O89 C104 1.266 . S
O90 Dy80 2.298 . S
O90 C104 1.236 . S
O91 Dy81 2.395 . S
O91 C111 1.255 . S
O92 Dy81 2.379 . S
O92 C111 1.249 . S
C93 O83 1.266 . S
C93 O84 1.236 . S
O94 Dy80 2.275 . S
O94 C82 1.254 . S
O95 Dy81 2.339 . S
O95 C82 1.257 . S
C96 C99 1.344 . S
C96 C100 1.328 . S
C96 C102 1.516 . S
C97 C98 1.304 . S
C97 C101 1.323 . S
C98 C97 1.304 . S
C98 C99 1.371 . S
C98 H112 0.930 . S
C99 C96 1.344 . S
C99 C98 1.371 . S
C99 H113 0.931 . S
C100 C96 1.328 . S
C100 C101 1.433 . S
C100 H114 0.931 . S
C101 C97 1.323 . S
C101 C100 1.433 . S
C101 H115 0.933 . S
C102 Dy80 2.738 . S
C102 O85 1.255 . S
C102 O86 1.249 . S
C102 C96 1.516 . S
C103 O87 1.254 . S
C103 O88 1.257 . S
C104 O89 1.266 . S
C104 O90 1.236 . S
C105 C108 1.344 . S
C105 C109 1.328 . S
C105 C111 1.516 . S
C106 C107 1.304 . S
C106 C110 1.323 . S
C107 C106 1.304 . S
C107 C108 1.371 . S
C107 H116 0.930 . S
C108 C105 1.344 . S
C108 C107 1.371 . S
C108 H117 0.931 . S
C109 C105 1.328 . S
C109 C110 1.433 . S
C109 H118 0.931 . S
C110 C106 1.323 . S
C110 C109 1.433 . S
C110 H119 0.933 . S
C111 Dy81 2.738 . S
C111 O91 1.255 . S
C111 O92 1.249 . S
C111 C105 1.516 . S
H112 C98 0.930 . S
H113 C99 0.931 . S
H114 C100 0.931 . S
H115 C101 0.933 . S
H116 C107 0.930 . S
H117 C108 0.931 . S
H118 C109 0.931 . S
H119 C110 0.933 . S
C120 C121 1.386 . S
C120 C122 1.397 . S
C120 H144 0.931 . S
C121 C120 1.386 . S
C121 C125 1.397 . S
C122 C120 1.397 . S
C122 C123 1.384 . S
C122 H145 0.930 . S
C123 C122 1.384 . S
C123 C124 1.377 . S
C123 C126 1.481 . S
C124 C123 1.377 . S
C124 C125 1.389 . S
C124 H146 0.944 . S
C125 C121 1.397 . S
C125 C124 1.389 . S
C125 H147 0.905 1_545 S
C126 C123 1.481 . S
C126 C127 1.387 . S
C126 C131 1.390 . S
C127 C126 1.387 . S
C127 C128 1.401 . S
C127 H148 0.930 . S
C128 C127 1.401 . S
C128 C129 1.376 . S
C128 C137 1.511 . S
C129 C128 1.376 . S
C129 C130 1.392 . S
C129 H150 0.931 . S
C130 C129 1.392 . S
C130 C131 1.361 . S
C130 C132 1.513 . S
C131 C126 1.390 . S
C131 C130 1.361 . S
C131 H149 0.931 . S
C132 C130 1.513 . S
C132 C133 1.383 . S
C132 C134 1.340 1_545 S
C133 C132 1.383 . S
C133 C143 1.386 1_545 S
C133 H151 0.931 . S
C134 C132 1.340 1_565 S
C134 C135 1.409 . S
C134 H152 0.929 . S
C135 C134 1.409 . S
C135 C136 1.380 . S
C135 H153 0.930 . S
C136 C135 1.380 . S
C136 C143 1.357 . S
C137 C128 1.511 . S
C137 C138 1.341 . S
C137 C139 1.371 . S
C138 C137 1.341 . S
C138 C142 1.394 . S
C138 H154 0.930 . S
C139 C137 1.371 . S
C139 C140 1.392 . S
C139 H155 0.931 . S
C140 C139 1.392 . S
C140 C141 1.331 . S
C140 H158 0.932 . S
C141 C140 1.331 . S
C141 C142 1.336 . S
C142 C138 1.394 . S
C142 C141 1.336 . S
C142 H157 0.929 . S
C143 C133 1.386 1_565 S
C143 C136 1.357 . S
C143 H156 0.928 . S
H144 C120 0.931 . S
H145 C122 0.930 . S
H146 C124 0.944 . S
H147 C125 0.905 1_565 S
H148 C127 0.930 . S
H149 C131 0.931 . S
H150 C129 0.931 . S
H151 C133 0.931 . S
H152 C134 0.929 . S
H153 C135 0.930 . S
H154 C138 0.930 . S
H155 C139 0.931 . S
H156 C143 0.928 . S
H157 C142 0.929 . S
H158 C140 0.932 . S
C159 C160 1.386 . S
C159 C161 1.397 . S
C159 H183 0.931 . S
C160 C159 1.386 . S
C160 C164 1.397 . S
C161 C159 1.397 . S
C161 C162 1.384 . S
C161 H184 0.930 . S
C162 C161 1.384 . S
C162 C163 1.377 . S
C162 C165 1.481 . S
C163 C162 1.377 . S
C163 C164 1.389 . S
C163 H185 0.929 . S
C164 C160 1.397 . S
C164 C163 1.389 . S
C164 H186 0.931 . S
C165 C162 1.481 . S
C165 C166 1.387 . S
C165 C170 1.390 . S
C166 C165 1.387 . S
C166 C167 1.401 . S
C166 H187 0.930 . S
C167 C166 1.401 . S
C167 C168 1.376 . S
C167 C176 1.511 . S
C168 C167 1.376 . S
C168 C169 1.392 . S
C168 H189 0.931 . S
C169 C168 1.392 . S
C169 C170 1.361 . S
C169 C171 1.500 . S
C170 C165 1.390 . S
C170 C169 1.361 . S
C170 H188 0.931 . S
C171 C169 1.500 . S
C171 C172 1.371 . S
C171 C173 1.365 . S
C172 C171 1.371 . S
C172 C182 1.386 . S
C172 H190 0.931 . S
C173 C171 1.365 . S
C173 C174 1.409 . S
C173 H191 0.929 . S
C174 C173 1.409 . S
C174 C175 1.380 . S
C174 H192 0.930 . S
C175 C174 1.380 . S
C175 C182 1.357 . S
C176 C167 1.511 . S
C176 C177 1.341 . S
C176 C178 1.371 . S
C177 C176 1.341 . S
C177 C181 1.394 . S
C177 H193 0.930 . S
C178 C176 1.371 . S
C178 C179 1.392 . S
C178 H194 0.931 . S
C179 C178 1.392 . S
C179 C180 1.331 . S
C179 H197 0.932 . S
C180 C179 1.331 . S
C180 C181 1.336 . S
C181 C177 1.394 . S
C181 C180 1.336 . S
C181 H196 0.929 . S
C182 C172 1.386 . S
C182 C175 1.357 . S
C182 H195 0.928 . S
H183 C159 0.931 . S
H184 C161 0.930 . S
H185 C163 0.929 . S
H186 C164 0.931 . S
H187 C166 0.930 . S
H188 C170 0.931 . S
H189 C168 0.931 . S
H190 C172 0.931 . S
H191 C173 0.929 . S
H192 C174 0.930 . S
H193 C177 0.930 . S
H194 C178 0.931 . S
H195 C182 0.928 . S
H196 C181 0.929 . S
H197 C179 0.932 . S
C198 C199 1.386 . S
C198 C200 1.397 . S
C198 H222 0.931 . S
C199 C198 1.386 . S
C199 C203 1.398 1_455 S
C200 C198 1.397 . S
C200 C201 1.384 . S
C200 H223 0.930 . S
C201 C200 1.384 . S
C201 C202 1.377 1_455 S
C201 C204 1.481 . S
C202 C201 1.377 1_655 S
C202 C203 1.389 . S
C202 H224 0.929 . S
C203 C199 1.398 1_655 S
C203 C202 1.389 . S
C203 H225 0.930 . S
C204 C201 1.481 . S
C204 C205 1.387 . S
C204 C209 1.390 1_455 S
C205 C204 1.387 . S
C205 C206 1.401 . S
C205 H226 0.930 . S
C206 C205 1.401 . S
C206 C207 1.376 . S
C206 C215 1.511 . S
C207 C206 1.376 . S
C207 C208 1.392 1_455 S
C207 H228 0.931 . S
C208 C207 1.392 1_655 S
C208 C209 1.361 . S
C208 C210 1.500 . S
C209 C204 1.390 1_655 S
C209 C208 1.361 . S
C209 H227 0.931 . S
C210 C208 1.500 . S
C210 C211 1.371 . S
C210 C212 1.365 . S
C211 C210 1.371 . S
C211 C221 1.386 . S
C211 H229 0.931 . S
C212 C210 1.365 . S
C212 C213 1.409 . S
C212 H230 0.929 . S
C213 C212 1.409 . S
C213 C214 1.380 . S
C213 H231 0.930 . S
C214 C213 1.380 . S
C214 C221 1.357 . S
C215 C206 1.511 . S
C215 C216 1.341 . S
C215 C217 1.371 . S
C216 C215 1.341 . S
C216 C220 1.394 . S
C216 H232 0.930 . S
C217 C215 1.371 . S
C217 C218 1.392 . S
C217 H233 0.931 . S
C218 C217 1.392 . S
C218 C219 1.331 . S
C218 H236 0.932 . S
C219 C218 1.331 . S
C219 C220 1.336 . S
C220 C216 1.394 . S
C220 C219 1.336 . S
C220 H235 0.929 . S
C221 C211 1.386 . S
C221 C214 1.357 . S
C221 H234 0.928 . S
H222 C198 0.931 . S
H223 C200 0.930 . S
H224 C202 0.929 . S
H225 C203 0.930 . S
H226 C205 0.930 . S
H227 C209 0.931 . S
H228 C207 0.931 . S
H229 C211 0.931 . S
H230 C212 0.929 . S
H231 C213 0.930 . S
H232 C216 0.930 . S
H233 C217 0.931 . S
H234 C221 0.928 . S
H235 C220 0.929 . S
H236 C218 0.932 . S
C237 C238 1.386 . S
C237 C239 1.397 . S
C237 H261 0.931 . S
C238 C237 1.386 . S
C238 C242 1.397 1_655 S
C239 C237 1.397 . S
C239 C240 1.384 1_655 S
C239 H262 0.930 . S
C240 C239 1.384 1_455 S
C240 C241 1.377 . S
C240 C243 1.481 . S
C241 C240 1.377 . S
C241 C242 1.389 . S
C241 H263 0.929 . S
C242 C238 1.397 1_455 S
C242 C241 1.389 . S
C242 H264 0.931 . S
C243 C240 1.481 . S
C243 C244 1.387 1_455 S
C243 C248 1.390 . S
C244 C243 1.387 1_655 S
C244 C245 1.401 . S
C244 H265 0.930 . S
C245 C244 1.401 . S
C245 C246 1.376 1_655 S
C245 C254 1.511 . S
C246 C245 1.376 1_455 S
C246 C247 1.392 . S
C246 H267 0.931 . S
C247 C246 1.392 . S
C247 C248 1.361 . S
C247 C249 1.500 . S
C248 C243 1.390 . S
C248 C247 1.361 . S
C248 H266 0.931 . S
C249 C247 1.500 . S
C249 C250 1.371 . S
C249 C251 1.365 . S
C250 C249 1.371 . S
C250 C260 1.386 . S
C250 H268 0.931 . S
C251 C249 1.365 . S
C251 C252 1.409 . S
C251 H269 0.929 . S
C252 C251 1.409 . S
C252 C253 1.380 . S
C252 H270 0.930 . S
C253 C252 1.380 . S
C253 C260 1.357 . S
C254 C245 1.511 . S
C254 C255 1.341 . S
C254 C256 1.371 . S
C255 C254 1.341 . S
C255 C259 1.394 . S
C255 H271 0.930 . S
C256 C254 1.371 . S
C256 C257 1.392 . S
C256 H272 0.931 . S
C257 C256 1.392 . S
C257 C258 1.331 . S
C257 H275 0.932 . S
C258 C257 1.331 . S
C258 C259 1.336 . S
C259 C255 1.394 . S
C259 C258 1.336 . S
C259 H274 0.929 . S
C260 C250 1.386 . S
C260 C253 1.357 . S
C260 H273 0.928 . S
H261 C237 0.931 . S
H262 C239 0.930 . S
H263 C241 0.929 . S
H264 C242 0.931 . S
H265 C244 0.930 . S
H266 C248 0.931 . S
H267 C246 0.931 . S
H268 C250 0.931 . S
H269 C251 0.929 . S
H270 C252 0.930 . S
H271 C255 0.930 . S
H272 C256 0.931 . S
H273 C260 0.928 . S
H274 C259 0.929 . S
H275 C257 0.932 . S
C276 C277 1.386 1_565 S
C276 C278 1.397 . S
C276 H300 0.931 . S
C277 C276 1.386 1_545 S
C277 C281 1.397 . S
C278 C276 1.397 . S
C278 C279 1.384 1_565 S
C278 H301 0.930 . S
C279 C278 1.384 1_545 S
C279 C280 1.377 . S
C279 C282 1.481 . S
C280 C279 1.377 . S
C280 C281 1.389 . S
C280 H302 0.929 . S
C281 C277 1.397 . S
C281 C280 1.389 . S
C281 H303 0.931 . S
C282 C279 1.481 . S
C282 C283 1.387 1_545 S
C282 C287 1.390 . S
C283 C282 1.387 1_565 S
C283 C284 1.401 . S
C283 H304 0.930 . S
C284 C283 1.401 . S
C284 C285 1.376 1_565 S
C284 C293 1.511 . S
C285 C284 1.376 1_545 S
C285 C286 1.392 . S
C285 H306 0.931 . S
C286 C285 1.392 . S
C286 C287 1.361 . S
C286 C288 1.500 . S
C287 C282 1.390 . S
C287 C286 1.361 . S
C287 H305 0.931 . S
C288 C286 1.500 . S
C288 C289 1.371 . S
C288 C290 1.365 . S
C289 C288 1.371 . S
C289 C299 1.386 . S
C289 H307 0.931 . S
C290 C288 1.365 . S
C290 C291 1.409 . S
C290 H308 0.929 . S
C291 C290 1.409 . S
C291 C292 1.380 . S
C291 H309 0.930 . S
C292 C291 1.380 . S
C292 C299 1.357 . S
C293 C284 1.511 . S
C293 C294 1.341 . S
C293 C295 1.371 . S
C294 C293 1.341 . S
C294 C298 1.394 . S
C294 H310 0.930 . S
C295 C293 1.371 . S
C295 C296 1.392 . S
C295 H311 0.931 . S
C296 C295 1.392 . S
C296 C297 1.331 . S
C296 H314 0.932 . S
C297 C296 1.331 . S
C297 C298 1.336 . S
C298 C294 1.394 . S
C298 C297 1.336 . S
C298 H313 0.929 . S
C299 C289 1.386 . S
C299 C292 1.357 . S
C299 H312 0.928 . S
H300 C276 0.931 . S
H301 C278 0.930 . S
H302 C280 0.929 . S
H303 C281 0.931 . S
H304 C283 0.930 . S
H305 C287 0.931 . S
H306 C285 0.931 . S
H307 C289 0.931 . S
H308 C290 0.929 . S
H309 C291 0.930 . S
H310 C294 0.930 . S
H311 C295 0.931 . S
H312 C299 0.928 . S
H313 C298 0.929 . S
H314 C296 0.932 . S
C315 C316 1.386 . S
C315 C317 1.397 . S
C315 H339 0.931 . S
C316 C315 1.386 . S
C316 C320 1.397 . S
C317 C315 1.397 . S
C317 C318 1.384 . S
C317 H340 0.930 . S
C318 C317 1.384 . S
C318 C319 1.377 . S
C318 C321 1.481 . S
C319 C318 1.377 . S
C319 C320 1.389 . S
C319 H341 0.929 . S
C320 C316 1.397 . S
C320 C319 1.389 . S
C320 H342 0.931 . S
C321 C318 1.481 . S
C321 C322 1.387 . S
C321 C326 1.390 . S
C322 C321 1.387 . S
C322 C323 1.401 . S
C322 H343 0.930 . S
C323 C322 1.401 . S
C323 C324 1.376 . S
C323 C332 1.511 . S
C324 C323 1.376 . S
C324 C325 1.392 . S
C324 H345 0.931 . S
C325 C324 1.392 . S
C325 C326 1.361 . S
C325 C327 1.500 . S
C326 C321 1.390 . S
C326 C325 1.361 . S
C326 H344 0.931 . S
C327 C325 1.500 . S
C327 C328 1.371 . S
C327 C329 1.365 . S
C328 C327 1.371 . S
C328 C338 1.386 . S
C328 H346 0.931 . S
C329 C327 1.365 . S
C329 C330 1.409 . S
C329 H347 0.929 . S
C330 C329 1.409 . S
C330 C331 1.380 . S
C330 H348 0.930 . S
C331 C330 1.380 . S
C331 C338 1.357 . S
C332 C323 1.511 . S
C332 C333 1.341 . S
C332 C334 1.371 . S
C333 C332 1.341 . S
C333 C337 1.394 . S
C333 H349 0.930 . S
C334 C332 1.371 . S
C334 C335 1.392 . S
C334 H350 0.931 . S
C335 C334 1.392 . S
C335 C336 1.331 . S
C335 H353 0.932 . S
C336 C335 1.331 . S
C336 C337 1.336 . S
C337 C333 1.394 . S
C337 C336 1.336 . S
C337 H352 0.929 . S
C338 C328 1.386 . S
C338 C331 1.357 . S
C338 H351 0.928 . S
H339 C315 0.931 . S
H340 C317 0.930 . S
H341 C319 0.929 . S
H342 C320 0.931 . S
H343 C322 0.930 . S
H344 C326 0.931 . S
H345 C324 0.931 . S
H346 C328 0.931 . S
H347 C329 0.929 . S
H348 C330 0.930 . S
H349 C333 0.930 . S
H350 C334 0.931 . S
H351 C338 0.928 . S
H352 C337 0.929 . S
H353 C335 0.932 . S
H354 C362 0.950 . S
H355 C367 0.950 . S
H356 C364 0.950 . S
H357 C366 0.950 . S
H358 C368 0.950 . S
H359 C370 0.950 . S
H360 C372 0.950 . S
H361 C373 0.950 . S
C362 H354 0.950 . S
C362 C363 1.386 . S
C362 C364 1.391 . S
C363 C362 1.386 . S
C363 C367 1.393 . S
C364 H356 0.950 . S
C364 C362 1.391 . S
C364 C365 1.400 . S
C365 C364 1.400 . S
C365 C366 1.398 . S
C365 C371 1.491 . S
C366 H357 0.950 . S
C366 C365 1.398 . S
C366 C367 1.391 . S
C367 H355 0.950 . S
C367 C363 1.393 . S
C367 C366 1.391 . S
C368 H358 0.950 . S
C368 C369 1.386 . S
C368 C370 1.391 . S
C369 C368 1.386 . S
C369 C373 1.393 . S
C370 H359 0.950 . S
C370 C368 1.391 . S
C370 C371 1.400 . S
C371 C365 1.491 . S
C371 C370 1.400 . S
C371 C372 1.398 . S
C372 H360 0.950 . S
C372 C371 1.398 . S
C372 C373 1.391 . S
C373 H361 0.950 . S
C373 C369 1.393 . S
C373 C372 1.391 . S
H374 C382 0.950 . S
H375 C387 0.950 . S
H376 C384 0.950 . S
H377 C386 0.950 . S
H378 C388 0.950 . S
H379 C390 0.950 . S
H380 C392 0.950 . S
H381 C393 0.950 . S
C382 H374 0.950 . S
C382 C383 1.386 . S
C382 C384 1.391 . S
C383 C382 1.386 . S
C383 C387 1.393 . S
C384 H376 0.950 . S
C384 C382 1.391 . S
C384 C385 1.400 . S
C385 C384 1.400 . S
C385 C386 1.398 . S
C385 C391 1.491 . S
C386 H377 0.950 . S
C386 C385 1.398 . S
C386 C387 1.391 . S
C387 H375 0.950 . S
C387 C383 1.393 . S
C387 C386 1.391 . S
C388 H378 0.950 . S
C388 C389 1.386 . S
C388 C390 1.391 . S
C389 C388 1.386 . S
C389 C393 1.393 . S
C390 H379 0.950 . S
C390 C388 1.391 . S
C390 C391 1.400 . S
C391 C385 1.491 . S
C391 C390 1.400 . S
C391 C392 1.398 . S
C392 H380 0.950 . S
C392 C391 1.398 . S
C392 C393 1.391 . S
C393 H381 0.950 . S
C393 C389 1.393 . S
C393 C392 1.391 . S
H394 C402 0.950 . S
H395 C407 0.950 . S
H396 C404 0.950 . S
H397 C406 0.950 . S
H398 C408 0.950 . S
H399 C410 0.950 . S
H400 C412 0.950 . S
H401 C413 0.950 . S
C402 H394 0.950 . S
C402 C403 1.386 . S
C402 C404 1.391 . S
C403 C402 1.386 . S
C403 C407 1.393 . S
C404 H396 0.950 . S
C404 C402 1.391 . S
C404 C405 1.400 . S
C405 C404 1.400 . S
C405 C406 1.398 . S
C405 C411 1.491 . S
C406 H397 0.950 . S
C406 C405 1.398 . S
C406 C407 1.391 . S
C407 H395 0.950 . S
C407 C403 1.393 . S
C407 C406 1.391 . S
C408 H398 0.950 . S
C408 C409 1.386 . S
C408 C410 1.391 . S
C409 C408 1.386 . S
C409 C413 1.393 . S
C410 H399 0.950 . S
C410 C408 1.391 . S
C410 C411 1.400 . S
C411 C405 1.491 . S
C411 C410 1.400 . S
C411 C412 1.398 . S
C412 H400 0.950 . S
C412 C411 1.398 . S
C412 C413 1.391 . S
C413 H401 0.950 . S
C413 C409 1.393 . S
C413 C412 1.391 . S
H414 C422 0.950 . S
H415 C427 0.950 . S
H416 C424 0.950 . S
H417 C426 0.950 . S
H418 C428 0.950 . S
H419 C430 0.950 . S
H420 C432 0.950 . S
H421 C433 0.950 . S
C422 H414 0.950 . S
C422 C423 1.386 . S
C422 C424 1.391 . S
C423 C422 1.386 . S
C423 C427 1.393 . S
C424 H416 0.950 . S
C424 C422 1.391 . S
C424 C425 1.400 . S
C425 C424 1.400 . S
C425 C426 1.398 . S
C425 C431 1.491 . S
C426 H417 0.950 . S
C426 C425 1.398 . S
C426 C427 1.391 . S
C427 H415 0.950 . S
C427 C423 1.393 . S
C427 C426 1.391 . S
C428 H418 0.950 . S
C428 C429 1.386 . S
C428 C430 1.391 . S
C429 C428 1.386 . S
C429 C433 1.393 . S
C430 H419 0.950 . S
C430 C428 1.391 . S
C430 C431 1.400 . S
C431 C425 1.491 . S
C431 C430 1.400 . S
C431 C432 1.398 . S
C432 H420 0.950 . S
C432 C431 1.398 . S
C432 C433 1.391 . S
C433 H421 0.950 . S
C433 C429 1.393 . S
C433 C432 1.391 . S
H434 C442 0.950 . S
H435 C447 0.950 . S
H436 C444 0.950 . S
H437 C446 0.950 . S
H438 C448 0.950 . S
H439 C450 0.950 . S
H440 C452 0.950 . S
H441 C453 0.950 . S
C442 H434 0.950 . S
C442 C443 1.386 . S
C442 C444 1.391 . S
C443 C442 1.386 . S
C443 C447 1.393 . S
C444 H436 0.950 . S
C444 C442 1.391 . S
C444 C445 1.400 . S
C445 C444 1.400 . S
C445 C446 1.398 . S
C445 C451 1.491 . S
C446 H437 0.950 . S
C446 C445 1.398 . S
C446 C447 1.391 . S
C447 H435 0.950 . S
C447 C443 1.393 . S
C447 C446 1.391 . S
C448 H438 0.950 . S
C448 C449 1.386 . S
C448 C450 1.391 . S
C449 C448 1.386 . S
C449 C453 1.393 . S
C450 H439 0.950 . S
C450 C448 1.391 . S
C450 C451 1.400 . S
C451 C445 1.491 . S
C451 C450 1.400 . S
C451 C452 1.398 . S
C452 H440 0.950 . S
C452 C451 1.398 . S
C452 C453 1.391 . S
C453 H441 0.950 . S
C453 C449 1.393 . S
C453 C452 1.391 . S
H454 C462 0.950 . S
H455 C467 0.950 . S
H456 C464 0.950 . S
H457 C466 0.950 . S
H458 C468 0.950 . S
H459 C470 0.950 . S
H460 C472 0.950 . S
H461 C473 0.950 . S
C462 H454 0.950 . S
C462 C463 1.386 . S
C462 C464 1.391 . S
C463 C462 1.386 . S
C463 C467 1.393 . S
C464 H456 0.950 . S
C464 C462 1.391 . S
C464 C465 1.400 . S
C465 C464 1.400 . S
C465 C466 1.398 . S
C465 C471 1.491 . S
C466 H457 0.950 . S
C466 C465 1.398 . S
C466 C467 1.391 . S
C467 H455 0.950 . S
C467 C463 1.393 . S
C467 C466 1.391 . S
C468 H458 0.950 . S
C468 C469 1.386 . S
C468 C470 1.391 . S
C469 C468 1.386 . S
C469 C473 1.393 . S
C470 H459 0.950 . S
C470 C468 1.391 . S
C470 C471 1.400 . S
C471 C465 1.491 . S
C471 C470 1.400 . S
C471 C472 1.398 . S
C472 H460 0.950 . S
C472 C471 1.398 . S
C472 C473 1.391 . S
C473 H461 0.950 . S
C473 C469 1.393 . S
C473 C472 1.391 . S
H474 C482 0.950 . S
H475 C487 0.950 . S
H476 C484 0.950 . S
H477 C486 0.950 . S
H478 C488 0.950 . S
H479 C490 0.950 . S
H480 C492 0.950 . S
H481 C493 0.950 . S
C482 H474 0.950 . S
C482 C483 1.386 . S
C482 C484 1.391 . S
C483 C482 1.386 . S
C483 C487 1.393 . S
C484 H476 0.950 . S
C484 C482 1.391 . S
C484 C485 1.400 . S
C485 C484 1.400 . S
C485 C486 1.398 . S
C485 C491 1.491 . S
C486 H477 0.950 . S
C486 C485 1.398 . S
C486 C487 1.391 . S
C487 H475 0.950 . S
C487 C483 1.393 . S
C487 C486 1.391 . S
C488 H478 0.950 . S
C488 C489 1.386 . S
C488 C490 1.391 . S
C489 C488 1.386 . S
C489 C493 1.393 . S
C490 H479 0.950 . S
C490 C488 1.391 . S
C490 C491 1.400 . S
C491 C485 1.491 . S
C491 C490 1.400 . S
C491 C492 1.398 . S
C492 H480 0.950 . S
C492 C491 1.398 . S
C492 C493 1.391 . S
C493 H481 0.950 . S
C493 C489 1.393 . S
C493 C492 1.391 . S
H494 C502 0.950 . S
H495 C507 0.950 . S
H496 C504 0.950 . S
H497 C506 0.950 . S
H498 C508 0.950 . S
H499 C510 0.950 . S
H500 C512 0.950 . S
H501 C513 0.950 . S
C502 H494 0.950 . S
C502 C503 1.386 . S
C502 C504 1.391 . S
C503 C502 1.386 . S
C503 C507 1.393 . S
C504 H496 0.950 . S
C504 C502 1.391 . S
C504 C505 1.400 . S
C505 C504 1.400 . S
C505 C506 1.398 . S
C505 C511 1.491 . S
C506 H497 0.950 . S
C506 C505 1.398 . S
C506 C507 1.391 . S
C507 H495 0.950 . S
C507 C503 1.393 . S
C507 C506 1.391 . S
C508 H498 0.950 . S
C508 C509 1.386 . S
C508 C510 1.391 . S
C509 C508 1.386 . S
C509 C513 1.393 . S
C510 H499 0.950 . S
C510 C508 1.391 . S
C510 C511 1.400 . S
C511 C505 1.491 . S
C511 C510 1.400 . S
C511 C512 1.398 . S
C512 H500 0.950 . S
C512 C511 1.398 . S
C512 C513 1.391 . S
C513 H501 0.950 . S
C513 C509 1.393 . S
C513 C512 1.391 . S
H514 C522 0.950 . S
H515 C527 0.950 . S
H516 C524 0.950 . S
H517 C526 0.950 . S
H518 C528 0.950 . S
H519 C530 0.950 . S
H520 C532 0.950 . S
H521 C533 0.950 . S
C522 H514 0.950 . S
C522 C523 1.386 . S
C522 C524 1.391 . S
C523 C522 1.386 . S
C523 C527 1.393 . S
C524 H516 0.950 . S
C524 C522 1.391 . S
C524 C525 1.400 . S
C525 C524 1.400 . S
C525 C526 1.398 . S
C525 C531 1.491 . S
C526 H517 0.950 . S
C526 C525 1.398 . S
C526 C527 1.391 . S
C527 H515 0.950 . S
C527 C523 1.393 . S
C527 C526 1.391 . S
C528 H518 0.950 . S
C528 C529 1.386 . S
C528 C530 1.391 . S
C529 C528 1.386 . S
C529 C533 1.393 . S
C530 H519 0.950 . S
C530 C528 1.391 . S
C530 C531 1.400 . S
C531 C525 1.491 . S
C531 C530 1.400 . S
C531 C532 1.398 . S
C532 H520 0.950 . S
C532 C531 1.398 . S
C532 C533 1.391 . S
C533 H521 0.950 . S
C533 C529 1.393 . S
C533 C532 1.391 . S
H534 C542 0.950 . S
H535 C547 0.950 . S
H536 C544 0.950 . S
H537 C546 0.950 . S
H538 C548 0.950 . S
H539 C550 0.950 . S
H540 C552 0.950 . S
H541 C553 0.950 . S
C542 H534 0.950 . S
C542 C543 1.386 . S
C542 C544 1.391 . S
C543 C542 1.386 . S
C543 C547 1.393 . S
C544 H536 0.950 . S
C544 C542 1.391 . S
C544 C545 1.400 . S
C545 C544 1.400 . S
C545 C546 1.398 . S
C545 C551 1.491 . S
C546 H537 0.950 . S
C546 C545 1.398 . S
C546 C547 1.391 . S
C547 H535 0.950 . S
C547 C543 1.393 . S
C547 C546 1.391 . S
C548 H538 0.950 . S
C548 C549 1.386 . S
C548 C550 1.391 . S
C549 C548 1.386 . S
C549 C553 1.393 . S
C550 H539 0.950 . S
C550 C548 1.391 . S
C550 C551 1.400 . S
C551 C545 1.491 . S
C551 C550 1.400 . S
C551 C552 1.398 . S
C552 H540 0.950 . S
C552 C551 1.398 . S
C552 C553 1.391 . S
C553 H541 0.950 . S
C553 C549 1.393 . S
C553 C552 1.391 . S
H554 C562 0.950 . S
H555 C567 0.950 . S
H556 C564 0.950 . S
H557 C566 0.950 . S
H558 C568 0.950 . S
H559 C570 0.950 . S
H560 C572 0.950 . S
H561 C573 0.950 . S
C562 H554 0.950 . S
C562 C563 1.386 . S
C562 C564 1.391 . S
C563 C562 1.386 . S
C563 C567 1.393 . S
C564 H556 0.950 . S
C564 C562 1.391 . S
C564 C565 1.400 . S
C565 C564 1.400 . S
C565 C566 1.398 . S
C565 C571 1.491 . S
C566 H557 0.950 . S
C566 C565 1.398 . S
C566 C567 1.391 . S
C567 H555 0.950 . S
C567 C563 1.393 . S
C567 C566 1.391 . S
C568 H558 0.950 . S
C568 C569 1.386 . S
C568 C570 1.391 . S
C569 C568 1.386 . S
C569 C573 1.393 . S
C570 H559 0.950 . S
C570 C568 1.391 . S
C570 C571 1.400 . S
C571 C565 1.491 . S
C571 C570 1.400 . S
C571 C572 1.398 . S
C572 H560 0.950 . S
C572 C571 1.398 . S
C572 C573 1.391 . S
C573 H561 0.950 . S
C573 C569 1.393 . S
C573 C572 1.391 . S
H574 C582 0.950 . S
H575 C587 0.950 . S
H576 C584 0.950 . S
H577 C586 0.950 . S
H578 C588 0.950 . S
H579 C590 0.950 . S
H580 C592 0.950 . S
H581 C593 0.950 . S
C582 H574 0.950 . S
C582 C583 1.386 . S
C582 C584 1.391 . S
C583 C582 1.386 . S
C583 C587 1.393 . S
C584 H576 0.950 . S
C584 C582 1.391 . S
C584 C585 1.400 . S
C585 C584 1.400 . S
C585 C586 1.398 . S
C585 C591 1.491 . S
C586 H577 0.950 . S
C586 C585 1.398 . S
C586 C587 1.391 . S
C587 H575 0.950 . S
C587 C583 1.393 . S
C587 C586 1.391 . S
C588 H578 0.950 . S
C588 C589 1.386 . S
C588 C590 1.391 . S
C589 C588 1.386 . S
C589 C593 1.393 . S
C590 H579 0.950 . S
C590 C588 1.391 . S
C590 C591 1.400 . S
C591 C585 1.491 . S
C591 C590 1.400 . S
C591 C592 1.398 . S
C592 H580 0.950 . S
C592 C591 1.398 . S
C592 C593 1.391 . S
C593 H581 0.950 . S
C593 C589 1.393 . S
C593 C592 1.391 . S
H594 C602 0.950 . S
H595 C607 0.950 . S
H596 C604 0.950 . S
H597 C606 0.950 . S
H598 C608 0.950 . S
H599 C610 0.950 . S
H600 C612 0.950 . S
H601 C613 0.950 . S
C602 H594 0.950 . S
C602 C603 1.386 1_655 S
C602 C604 1.391 . S
C603 C602 1.386 1_455 S
C603 C607 1.393 . S
C604 H596 0.950 . S
C604 C602 1.391 . S
C604 C605 1.400 1_655 S
C605 C604 1.400 1_455 S
C605 C606 1.398 . S
C605 C611 1.491 . S
C606 H597 0.950 . S
C606 C605 1.398 . S
C606 C607 1.391 . S
C607 H595 0.950 . S
C607 C603 1.393 . S
C607 C606 1.391 . S
C608 H598 0.950 . S
C608 C609 1.386 . S
C608 C610 1.391 . S
C609 C608 1.386 . S
C609 C613 1.393 1_455 S
C610 H599 0.950 . S
C610 C608 1.391 . S
C610 C611 1.400 . S
C611 C605 1.491 . S
C611 C610 1.400 . S
C611 C612 1.398 1_455 S
C612 H600 0.950 . S
C612 C611 1.398 1_655 S
C612 C613 1.391 . S
C613 H601 0.950 . S
C613 C609 1.393 1_655 S
C613 C612 1.391 . S
H614 C622 0.950 1_565 S
H615 C627 0.950 . S
H616 C624 0.950 1_565 S
H617 C626 0.950 . S
H618 C628 0.950 . S
H619 C630 0.950 . S
H620 C632 0.950 1_565 S
H621 C633 0.932 1_565 S
C622 H614 0.950 1_545 S
C622 C623 1.386 . S
C622 C624 1.391 . S
C623 C622 1.386 . S
C623 C627 1.393 . S
C624 H616 0.950 1_545 S
C624 C622 1.391 . S
C624 C625 1.400 . S
C625 C624 1.400 . S
C625 C626 1.398 . S
C625 C631 1.491 . S
C626 H617 0.950 . S
C626 C625 1.398 . S
C626 C627 1.391 . S
C627 H615 0.950 . S
C627 C623 1.393 . S
C627 C626 1.391 . S
C628 H618 0.950 . S
C628 C629 1.386 . S
C628 C630 1.391 . S
C629 C628 1.386 . S
C629 C633 1.393 . S
C630 H619 0.950 . S
C630 C628 1.391 . S
C630 C631 1.400 . S
C631 C625 1.491 . S
C631 C630 1.400 . S
C631 C632 1.398 . S
C632 H620 0.950 1_545 S
C632 C631 1.398 . S
C632 C633 1.391 . S
C633 H621 0.932 1_545 S
C633 C629 1.393 . S
C633 C632 1.391 . S
H634 C642 0.950 . S
H635 C647 0.950 . S
H636 C644 0.950 . S
H637 C646 0.950 . S
H638 C648 0.950 . S
H639 C650 0.950 . S
H640 C652 0.950 . S
H641 C653 0.950 . S
C642 H634 0.950 . S
C642 C643 1.386 . S
C642 C644 1.391 . S
C643 C642 1.386 . S
C643 C647 1.393 . S
C644 H636 0.950 . S
C644 C642 1.391 . S
C644 C645 1.400 . S
C645 C644 1.400 . S
C645 C646 1.398 . S
C645 C651 1.491 . S
C646 H637 0.950 . S
C646 C645 1.398 . S
C646 C647 1.391 . S
C647 H635 0.950 . S
C647 C643 1.393 . S
C647 C646 1.391 . S
C648 H638 0.950 . S
C648 C649 1.386 . S
C648 C650 1.391 . S
C649 C648 1.386 . S
C649 C653 1.393 . S
C650 H639 0.950 . S
C650 C648 1.391 . S
C650 C651 1.400 . S
C651 C645 1.491 . S
C651 C650 1.400 . S
C651 C652 1.398 . S
C652 H640 0.950 . S
C652 C651 1.398 . S
C652 C653 1.391 . S
C653 H641 0.950 . S
C653 C649 1.393 . S
C653 C652 1.391 . S
H654 C662 0.950 . S
H655 C667 0.950 . S
H656 C664 0.950 . S
H657 C666 0.950 . S
H658 C668 0.950 . S
H659 C670 0.950 . S
H660 C672 0.950 . S
H661 C673 0.950 . S
C662 H654 0.950 . S
C662 C663 1.386 . S
C662 C664 1.391 . S
C663 C662 1.386 . S
C663 C667 1.393 1_545 S
C664 H656 0.950 . S
C664 C662 1.391 . S
C664 C665 1.400 . S
C665 C664 1.400 . S
C665 C666 1.398 1_545 S
C665 C671 1.491 . S
C666 H657 0.950 . S
C666 C665 1.398 1_565 S
C666 C667 1.391 . S
C667 H655 0.950 . S
C667 C663 1.393 1_565 S
C667 C666 1.391 . S
C668 H658 0.950 . S
C668 C669 1.386 1_565 S
C668 C670 1.391 . S
C669 C668 1.386 1_545 S
C669 C673 1.393 . S
C670 H659 0.950 . S
C670 C668 1.391 . S
C670 C671 1.400 1_565 S
C671 C665 1.491 . S
C671 C670 1.400 1_545 S
C671 C672 1.398 . S
C672 H660 0.950 . S
C672 C671 1.398 . S
C672 C673 1.391 . S
C673 H661 0.950 . S
C673 C669 1.393 . S
C673 C672 1.391 . S
H674 C682 0.950 . S
H675 C687 0.950 . S
H676 C684 0.950 . S
H677 C686 0.950 . S
H678 C688 0.950 . S
H679 C690 0.950 . S
H680 C692 0.950 . S
H681 C693 0.950 . S
C682 H674 0.950 . S
C682 C683 1.386 . S
C682 C684 1.391 . S
C683 C682 1.386 . S
C683 C687 1.393 . S
C684 H676 0.950 . S
C684 C682 1.391 . S
C684 C685 1.400 . S
C685 C684 1.400 . S
C685 C686 1.398 . S
C685 C691 1.491 . S
C686 H677 0.950 . S
C686 C685 1.398 . S
C686 C687 1.391 . S
C687 H675 0.950 . S
C687 C683 1.393 . S
C687 C686 1.391 . S
C688 H678 0.950 . S
C688 C689 1.386 . S
C688 C690 1.391 . S
C689 C688 1.386 . S
C689 C693 1.393 . S
C690 H679 0.950 . S
C690 C688 1.391 . S
C690 C691 1.400 . S
C691 C685 1.491 . S
C691 C690 1.400 . S
C691 C692 1.398 . S
C692 H680 0.950 . S
C692 C691 1.398 . S
C692 C693 1.391 . S
C693 H681 0.950 . S
C693 C689 1.393 . S
C693 C692 1.391 . S
H694 C702 0.950 . S
H695 C707 0.950 . S
H696 C704 0.950 . S
H697 C706 0.950 . S
H698 C708 0.950 . S
H699 C710 0.950 . S
H700 C712 0.950 . S
H701 C713 0.950 . S
C702 H694 0.950 . S
C702 C703 1.386 . S
C702 C704 1.391 . S
C703 C702 1.386 . S
C703 C707 1.393 1_455 S
C704 H696 0.950 . S
C704 C702 1.391 . S
C704 C705 1.400 . S
C705 C704 1.400 . S
C705 C706 1.398 1_455 S
C705 C711 1.488 1_455 S
C706 H697 0.950 . S
C706 C705 1.398 1_655 S
C706 C707 1.391 . S
C707 H695 0.950 . S
C707 C703 1.393 1_655 S
C707 C706 1.391 . S
C708 H698 0.950 . S
C708 C709 1.386 . S
C708 C710 1.391 . S
C709 C708 1.386 . S
C709 C713 1.393 1_655 S
C710 H699 0.950 . S
C710 C708 1.391 . S
C710 C711 1.419 . S
C711 C705 1.488 1_655 S
C711 C710 1.419 . S
C711 C712 1.383 1_655 S
C712 H700 0.950 . S
C712 C711 1.383 1_455 S
C712 C713 1.391 . S
C713 H701 0.950 . S
C713 C709 1.393 1_455 S
C713 C712 1.391 . S
C363 C24 2.949 . S
C369 C331 2.909 . S
C383 C66 1.108 . S
C389 C258 1.154 . S
C403 C93 1.841 . S
C409 C297 1.810 . S
C423 C13 3.076 . S
C429 C336 3.027 . S
C449 C253 1.270 . S
C443 C57 1.286 . S
C469 C292 1.928 . S
C463 C104 1.978 . S
C483 C64 1.966 . S
C489 C180 1.909 . S
C503 C97 0.562 . S
C509 C214 0.555 . S
C523 C17 1.289 . S
C529 C136 1.290 . S
C549 C175 1.802 . S
C543 C53 1.842 . S
C569 C219 0.149 . S
C563 C106 0.347 . S
C583 C26 1.134 . S
C589 C141 1.163 . S
C609 C199 1.079 1_554 S
C603 C2 1.077 . S
C623 C63 1.454 . S
C629 C121 1.501 . S
C643 C82 1.363 . S
C649 C160 1.389 . S
C669 C277 1.403 . S
C663 C42 1.392 . S
C689 C316 1.789 1_556 S
C683 C103 1.749 . S
C703 C23 1.464 . S
C709 C238 1.508 . S
