# Generated by pormake.
# Topology anh, (6,3)-cn, num edge types: 1
# Building blocks:
#     Node 0, Type 0, BuildingBlock: INOVEN_clean_sbu_0, # of connection points: 6
#     Node 1, Type 0, BuildingBlock: INOVEN_clean_sbu_0, # of connection points: 6
#     Node 2, Type 0, BuildingBlock: INOVEN_clean_sbu_0, # of connection points: 6
#     Node 3, Type 1, BuildingBlock: KAKCAD_clean_linker_0, # of connection points: 3
#     Node 4, Type 1, BuildingBlock: KAKCAD_clean_linker_0, # of connection points: 3
#     Node 5, Type 1, BuildingBlock: KAKCAD_clean_linker_0, # of connection points: 3
#     Node 6, Type 1, BuildingBlock: KAKCAD_clean_linker_0, # of connection points: 3
#     Node 7, Type 1, BuildingBlock: KAKCAD_clean_linker_0, # of connection points: 3
#     Node 8, Type 1, BuildingBlock: KAKCAD_clean_linker_0, # of connection points: 3
#     Edge 9, Type (0, 1), BuildingBlock: AJUNOK_clean_linker_0, # of connection points: 2
#     Edge 10, Type (0, 1), BuildingBlock: AJUNOK_clean_linker_0, # of connection points: 2
#     Edge 11, Type (0, 1), BuildingBlock: AJUNOK_clean_linker_0, # of connection points: 2
#     Edge 12, Type (0, 1), BuildingBlock: AJUNOK_clean_linker_0, # of connection points: 2
#     Edge 13, Type (0, 1), BuildingBlock: AJUNOK_clean_linker_0, # of connection points: 2
#     Edge 14, Type (0, 1), BuildingBlock: AJUNOK_clean_linker_0, # of connection points: 2
#     Edge 15, Type (0, 1), BuildingBlock: AJUNOK_clean_linker_0, # of connection points: 2
#     Edge 16, Type (0, 1), BuildingBlock: AJUNOK_clean_linker_0, # of connection points: 2
#     Edge 17, Type (0, 1), BuildingBlock: AJUNOK_clean_linker_0, # of connection points: 2
#     Edge 18, Type (0, 1), BuildingBlock: AJUNOK_clean_linker_0, # of connection points: 2
#     Edge 19, Type (0, 1), BuildingBlock: AJUNOK_clean_linker_0, # of connection points: 2
#     Edge 20, Type (0, 1), BuildingBlock: AJUNOK_clean_linker_0, # of connection points: 2
#     Edge 21, Type (0, 1), BuildingBlock: AJUNOK_clean_linker_0, # of connection points: 2
#     Edge 22, Type (0, 1), BuildingBlock: AJUNOK_clean_linker_0, # of connection points: 2
#     Edge 23, Type (0, 1), BuildingBlock: AJUNOK_clean_linker_0, # of connection points: 2
#     Edge 24, Type (0, 1), BuildingBlock: AJUNOK_clean_linker_0, # of connection points: 2
#     Edge 25, Type (0, 1), BuildingBlock: AJUNOK_clean_linker_0, # of connection points: 2
#     Edge 26, Type (0, 1), BuildingBlock: AJUNOK_clean_linker_0, # of connection points: 2
# Relax obj value: 0.207
# Max RMSD: 0.228
# Mean RMSD: 0.165
data_MOF--net-anh--node1-INOVEN_clean_sbu_0--node2-KAKCAD_clean_linker_0--edge1-AJUNOK_clean_linker_0
_symmetry_space_group_name_H-M    P1
_symmetry_Int_Tables_number       1
_symmetry_cell_setting            triclinic
loop_
_symmetry_equiv_pos_as_xyz
'x, y, z'
_cell_length_a     31.157248
_cell_length_b     35.894623
_cell_length_c     52.720472
_cell_angle_alpha  92.85442
_cell_angle_beta   89.487895
_cell_angle_gamma 130.4847
loop_
_atom_site_label
_atom_site_type_symbol
_atom_site_fract_x
_atom_site_fract_y
_atom_site_fract_z
_atom_type_partial_charge
Gd0 Gd 0.13069 0.54501 0.14746 0.0
Gd1 Gd 0.06717 0.57762 0.1561 0.0
C2 C 0.19971 0.66355 0.15397 0.0
C3 C 0.19218 0.5239 0.13269 0.0
C4 C 0.18636 0.48006 0.13355 0.0
C5 C 0.13329 0.43355 0.13622 0.0
C6 C 0.2346 0.4849 0.13231 0.0
C7 C 0.17674 0.39674 0.13501 0.0
C8 C 0.22988 0.4436 0.13306 0.0
C9 C 0.12847 0.39206 0.13685 0.0
C10 C 0.107 0.54621 0.19663 0.0
C11 C 0.9974 0.45813 0.15169 0.0
C12 C 0.99982 0.59056 0.17383 0.0
C13 C 0.93823 0.55929 0.17361 0.0
C14 C 0.90555 0.52182 0.15453 0.0
C15 C 0.91158 0.565 0.19308 0.0
C16 C 0.82002 0.49537 0.1745 0.0
C17 C 0.85256 0.53329 0.19344 0.0
C18 C 0.84694 0.49039 0.1549 0.0
C19 C 0.08908 0.57515 0.10631 0.0
O20 O 0.19939 0.62862 0.14401 0.0
O21 O 0.15316 0.65164 0.16348 0.0
O22 O 0.15654 0.52041 0.11752 0.0
O23 O 0.19959 0.5459 0.15474 0.0
O24 O 0.10377 0.51151 0.1854 0.0
O25 O 0.1238 0.57922 0.18152 0.0
O26 O 0.99593 0.494 0.15623 0.0
O27 O 1.04551 0.4684 0.14642 0.0
O28 O 1.02332 0.60518 0.15177 0.0
O29 O 1.02024 0.57544 0.18742 0.0
O30 O 0.091 0.6092 0.11754 0.0
O31 O 0.07348 0.54278 0.12173 0.0
H32 H 0.09562 0.42928 0.13757 0.0
H33 H 0.27587 0.52058 0.13048 0.0
H34 H 0.26767 0.4481 0.13128 0.0
H35 H 0.08715 0.35639 0.13849 0.0
H36 H 0.92537 0.51687 0.13934 0.0
H37 H 0.93636 0.59369 0.20801 0.0
H38 H 0.83236 0.53808 0.2085 0.0
H39 H 0.82242 0.46258 0.1396 0.0
Gd40 Gd 0.64369 0.0496 0.47114 0.0
Gd41 Gd 0.57546 0.07833 0.46612 0.0
C42 C 0.5066 0.96363 0.46223 0.0
C43 C 0.68773 0.01173 0.48411 0.0
C44 C 0.67127 0.96448 0.49051 0.0
C45 C 0.70232 0.95156 0.48071 0.0
C46 C 0.62667 0.93288 0.50671 0.0
C47 C 0.64597 0.87695 0.50383 0.0
C48 C 0.61435 0.88959 0.51342 0.0
C49 C 0.68983 0.90826 0.48728 0.0
C50 C 0.63623 0.06797 0.42298 0.0
C51 C 0.71435 0.16538 0.47019 0.0
C52 C 0.53251 0.11857 0.45656 0.0
C53 C 0.54194 0.16299 0.46621 0.0
C54 C 0.49973 0.15769 0.4801 0.0
C55 C 0.59273 0.21059 0.46235 0.0
C56 C 0.55983 0.24631 0.48729 0.0
C57 C 0.60145 0.25184 0.47271 0.0
C58 C 0.50861 0.19885 0.49059 0.0
C59 C 0.58469 0.06068 0.51439 0.0
O60 O 0.55304 0.97614 0.47299 0.0
O61 O 0.50791 0.99824 0.45343 0.0
O62 O 0.67902 0.01538 0.46053 0.0
O63 O 0.67642 0.03286 0.5004 0.0
O64 O 0.68154 0.08028 0.43356 0.0
O65 O 0.5957 0.04472 0.43804 0.0
O66 O 0.66468 0.15281 0.46513 0.0
O67 O 0.71729 0.1315 0.47573 0.0
O68 O 0.51116 0.08417 0.47255 0.0
O69 O 0.572 0.12485 0.44304 0.0
O70 O 0.53918 0.04816 0.50414 0.0
O71 O 0.62443 0.08425 0.49906 0.0
H72 H 0.73702 0.9755 0.46827 0.0
H73 H 0.60186 0.9419 0.51442 0.0
H74 H 0.58027 0.86606 0.52619 0.0
H75 H 0.71557 0.89996 0.47998 0.0
H76 H 0.45997 0.12153 0.48315 0.0
H77 H 0.62606 0.21605 0.45162 0.0
H78 H 0.64128 0.28805 0.46986 0.0
H79 H 0.47542 0.19358 0.50135 0.0
Gd80 Gd 0.6112 0.58027 0.85073 0.0
Gd81 Gd 0.53125 0.47259 0.84564 0.0
C82 C 0.46846 0.52199 0.85089 0.0
C83 C 0.6645 0.67145 0.84188 0.0
C84 C 0.65218 0.70346 0.83488 0.0
C85 C 0.68193 0.75004 0.8473 0.0
C86 C 0.61391 0.68969 0.81488 0.0
C87 C 0.63822 0.76976 0.81891 0.0
C88 C 0.60703 0.72241 0.80702 0.0
C89 C 0.67486 0.78266 0.83953 0.0
C90 C 0.58109 0.53557 0.89481 0.0
C91 C 0.67453 0.53153 0.8506 0.0
C92 C 0.48099 0.38059 0.84911 0.0
C93 C 0.49485 0.34883 0.84173 0.0
C94 C 0.46481 0.31329 0.82146 0.0
C95 C 0.53808 0.35372 0.85434 0.0
C96 C 0.52208 0.28946 0.8259 0.0
C97 C 0.55133 0.32429 0.84659 0.0
C98 C 0.47828 0.28414 0.81362 0.0
C99 C 0.55558 0.51445 0.80099 0.0
O100 O 0.52258 0.56369 0.84831 0.0
O101 O 0.46137 0.48071 0.85238 0.0
O102 O 0.65238 0.65526 0.86477 0.0
O103 O 0.65305 0.63843 0.82457 0.0
O104 O 0.63265 0.57481 0.8907 0.0
O105 O 0.5492 0.52387 0.87607 0.0
O106 O 0.61988 0.48945 0.84947 0.0
O107 O 0.68248 0.5733 0.85034 0.0
O108 O 0.4712 0.3971 0.83045 0.0
O109 O 0.5105 0.41365 0.86791 0.0
O110 O 0.5061 0.47503 0.80673 0.0
O111 O 0.59112 0.52871 0.81876 0.0
H112 H 0.71152 0.76159 0.86282 0.0
H113 H 0.59013 0.65399 0.80492 0.0
H114 H 0.57839 0.71109 0.79112 0.0
H115 H 0.69839 0.81817 0.84965 0.0
H116 H 0.43109 0.30835 0.81142 0.0
H117 H 0.56193 0.3804 0.87017 0.0
H118 H 0.58427 0.32863 0.85699 0.0
H119 H 0.4549 0.25787 0.79759 0.0
C120 C 0.61774 0.10456 0.30148 0.0
C121 C 0.61821 0.07061 0.31333 0.0
C122 C 0.61638 0.1046 0.2749 0.0
C123 C 0.61438 0.07007 0.25976 0.0
C124 C 0.61447 0.03598 0.2717 0.0
C125 C 0.61697 0.03659 0.29821 0.0
C126 C 0.61033 0.06832 0.23159 0.0
C127 C 0.64969 0.11019 0.21812 0.0
C128 C 0.6469 0.10861 0.1914 0.0
C129 C 0.60182 0.06332 0.17806 0.0
C130 C 0.56014 0.0209 0.19168 0.0
C131 C 0.56641 0.0243 0.2183 0.0
C132 C 0.50748 0.97282 0.17984 0.0
C133 C 0.4547 0.95216 0.19013 0.0
C134 C 0.50927 0.94336 0.16194 0.0
C135 C 0.46003 0.89431 0.15529 0.0
C136 C 0.40747 0.87334 0.16622 0.0
C137 C 0.69156 0.15584 0.17881 0.0
C138 C 0.69516 0.19679 0.18369 0.0
C139 C 0.73711 0.16376 0.16663 0.0
C140 C 0.78526 0.21135 0.16012 0.0
C141 C 0.78927 0.25254 0.16542 0.0
C142 C 0.74283 0.24408 0.17701 0.0
C143 C 0.40604 0.90357 0.18365 0.0
H144 H 0.61916 0.13138 0.31281 0.0
H145 H 0.61597 0.13104 0.26615 0.0
H146 H 0.61309 1.00908 0.26047 0.0
H147 H 0.61753 1.01022 0.30695 0.0
H148 H 0.68357 0.14422 0.22853 0.0
H149 H 0.53578 0.99233 0.22897 0.0
H150 H 0.5981 0.06165 0.15755 0.0
H151 H 0.45146 0.97319 0.20422 0.0
H152 H 0.54913 0.95741 0.15396 0.0
H153 H 0.46331 0.87255 0.14182 0.0
H154 H 0.6618 0.1925 0.19371 0.0
H155 H 0.73672 0.13354 0.16322 0.0
H156 H 0.36755 0.88916 0.19325 0.0
H157 H 0.74427 0.27451 0.18201 0.0
H158 H 0.81988 0.21602 0.15128 0.0
C159 C 0.58164 0.58106 0.68164 0.0
C160 C 0.60581 0.56602 0.69555 0.0
C161 C 0.58676 0.58403 0.65533 0.0
C162 C 0.61724 0.57302 0.64225 0.0
C163 C 0.64406 0.56058 0.65642 0.0
C164 C 0.63829 0.55702 0.68277 0.0
C165 C 0.61913 0.57283 0.61392 0.0
C166 C 0.62051 0.60674 0.60085 0.0
C167 C 0.61846 0.60495 0.57417 0.0
C168 C 0.61705 0.56959 0.56034 0.0
C169 C 0.61624 0.53546 0.573 0.0
C170 C 0.61683 0.53728 0.59976 0.0
C171 C 0.61272 0.49661 0.5586 0.0
C172 C 0.57739 0.47149 0.53674 0.0
C173 C 0.6428 0.48269 0.5674 0.0
C174 C 0.63608 0.44356 0.55532 0.0
C175 C 0.59927 0.41741 0.53407 0.0
C176 C 0.61684 0.63988 0.56114 0.0
C177 C 0.58138 0.64891 0.56986 0.0
C178 C 0.65222 0.66604 0.54086 0.0
C179 C 0.65356 0.70176 0.53017 0.0
C180 C 0.61906 0.71161 0.53937 0.0
C181 C 0.58247 0.6843 0.55911 0.0
C182 C 0.57091 0.43241 0.52456 0.0
H183 H 0.5574 0.58931 0.69105 0.0
H184 H 0.56509 0.59337 0.6452 0.0
H185 H 0.66891 0.5529 0.64713 0.0
H186 H 0.65757 0.5455 0.69301 0.0
H187 H 0.62361 0.63507 0.61148 0.0
H188 H 0.61333 0.50966 0.60959 0.0
H189 H 0.61598 0.56836 0.53976 0.0
H190 H 0.55321 0.48086 0.52954 0.0
H191 H 0.67135 0.50186 0.58381 0.0
H192 H 0.65945 0.43348 0.56271 0.0
H193 H 0.55299 0.6288 0.5852 0.0
H194 H 0.68037 0.66019 0.53391 0.0
H195 H 0.54227 0.41285 0.50819 0.0
H196 H 0.55497 0.69064 0.56642 0.0
H197 H 0.68301 0.72281 0.51531 0.0
C198 C 0.13538 0.58062 0.98091 0.0
C199 C 0.08643 0.55063 0.99521 0.0
C200 C 0.13238 0.5752 0.95425 0.0
C201 C 0.08028 0.53984 0.94109 0.0
C202 C 1.0314 0.50948 0.95544 0.0
C203 C 1.03451 0.51458 0.98213 0.0
C204 C 0.07698 0.535 0.91254 0.0
C205 C 0.11602 0.5342 0.89926 0.0
C206 C 0.11657 0.52978 0.87258 0.0
C207 C 0.07163 0.52709 0.85912 0.0
C208 C 1.02929 0.52829 0.8727 0.0
C209 C 1.0352 0.53176 0.89939 0.0
C210 C 0.97711 0.52554 0.863 0.0
C211 C 0.98293 0.5645 0.85203 0.0
C212 C 0.92 0.4887 0.87107 0.0
C213 C 0.87408 0.48988 0.86817 0.0
C214 C 0.87968 0.52893 0.8575 0.0
C215 C 0.16669 0.52953 0.86273 0.0
C216 C 0.22563 0.56967 0.86889 0.0
C217 C 0.15875 0.48671 0.854 0.0
C218 C 0.2044 0.4847 0.85142 0.0
C219 C 0.26353 0.52507 0.85765 0.0
C220 C 0.27121 0.56786 0.86615 0.0
C221 C 0.93694 0.56594 0.84928 0.0
H222 H 0.17615 0.60834 0.99036 0.0
H223 H 0.17086 0.59936 0.94389 0.0
H224 H 0.99066 0.48152 0.94601 0.0
H225 H 0.99603 0.49092 0.99256 0.0
H226 H 0.14669 0.53618 0.91032 0.0
H227 H 1.00689 0.53324 0.91056 0.0
H228 H 0.06961 0.52407 0.83858 0.0
H229 H 1.02445 0.5957 0.84612 0.0
H230 H 0.91048 0.45822 0.88066 0.0
H231 H 0.83349 0.45969 0.87535 0.0
H232 H 0.23709 0.60357 0.87684 0.0
H233 H 0.11595 0.45315 0.8498 0.0
H234 H 0.94747 0.59738 0.84048 0.0
H235 H 0.31343 0.60089 0.87173 0.0
H236 H 0.19209 0.4501 0.84438 0.0
C237 C 0.04906 0.53051 0.31999 0.0
C238 C 0.09955 0.55797 0.30676 0.0
C239 C 0.0501 0.53137 0.34658 0.0
C240 C 0.1017 0.55891 0.36054 0.0
C241 C 0.15218 0.58604 0.34704 0.0
C242 C 0.15108 0.58588 0.3205 0.0
C243 C 0.10301 0.55951 0.38898 0.0
C244 C 0.0605 0.51756 0.40182 0.0
C245 C 0.0601 0.51739 0.42858 0.0
C246 C 0.10581 0.56108 0.44272 0.0
C247 C 0.14976 0.60381 0.42993 0.0
C248 C 0.1469 0.60217 0.4033 0.0
C249 C 0.19998 0.65166 0.44284 0.0
C250 C 0.19551 0.6858 0.45339 0.0
C251 C 0.25467 0.66842 0.43869 0.0
C252 C 0.30313 0.7179 0.44399 0.0
C253 C 0.29876 0.75282 0.45326 0.0
C254 C 1.01063 0.47057 0.44035 0.0
C255 C 0.95538 0.44489 0.43042 0.0
C256 C 1.01764 0.44768 0.45883 0.0
C257 C 0.97138 0.39984 0.4661 0.0
C258 C 0.91657 0.37329 0.45513 0.0
C259 C 0.90956 0.39744 0.43757 0.0
C260 C 0.24409 0.73551 0.4586 0.0
H261 H 1.0088 0.50866 0.30973 0.0
H262 H 1.01035 0.51071 0.35614 0.0
H263 H 0.19273 0.60683 0.35688 0.0
H264 H 0.19054 0.60669 0.31065 0.0
H265 H 1.02761 0.48407 0.39082 0.0
H266 H 0.17923 0.63514 0.39368 0.0
H267 H 0.10696 0.56195 0.46327 0.0
H268 H 0.15422 0.67469 0.45624 0.0
H269 H 0.2598 0.64361 0.42994 0.0
H270 H 0.34402 0.72932 0.43952 0.0
H271 H 0.9477 0.46106 0.41632 0.0
H272 H 0.05925 0.46588 0.46693 0.0
H273 H 0.23861 0.76069 0.46626 0.0
H274 H 0.86867 0.37897 0.42854 0.0
H275 H 0.97883 0.38359 0.48023 0.0
C276 C 0.57568 1.00104 0.63451 0.0
C277 C 0.60479 0.0459 0.62292 0.0
C278 C 0.5765 0.99967 0.66102 0.0
C279 C 0.60654 0.04316 0.67666 0.0
C280 C 0.63734 0.08816 0.66496 0.0
C281 C 0.63658 0.0895 0.63845 0.0
C282 C 0.60415 0.0416 0.70501 0.0
C283 C 0.606 1.00896 0.7176 0.0
C284 C 0.60298 1.00686 0.74427 0.0
C285 C 0.59829 0.03857 0.75842 0.0
C286 C 0.59629 0.07163 0.7462 0.0
C287 C 0.59897 0.07238 0.71951 0.0
C288 C 0.59047 0.10509 0.76081 0.0
C289 C 0.55391 0.0888 0.78132 0.0
C290 C 0.61939 0.15317 0.75336 0.0
C291 C 0.61083 0.18344 0.76545 0.0
C292 C 0.57358 0.16695 0.78564 0.0
C293 C 0.60536 0.97175 0.75706 0.0
C294 C 0.57628 0.92383 0.74636 0.0
C295 C 0.63813 0.98611 0.77949 0.0
C296 C 0.64292 0.95399 0.79044 0.0
C297 C 0.61489 0.90653 0.77934 0.0
C298 C 0.58082 0.89169 0.75738 0.0
C299 C 0.54545 0.11926 0.7935 0.0
H300 H 0.55155 0.96683 0.62305 0.0
H301 H 0.55215 0.96435 0.66928 0.0
H302 H 0.66176 0.12247 0.67633 0.0
H303 H 0.6595 0.12464 0.63012 0.0
H304 H 0.61118 0.98587 0.7066 0.0
H305 H 0.59528 0.09616 0.70983 0.0
H306 H 0.59609 0.03745 0.77891 0.0
H307 H 0.53044 0.05195 0.78748 0.0
H308 H 0.64842 0.16741 0.73788 0.0
H309 H 0.63234 0.21941 0.75844 0.0
H310 H 0.54996 0.9111 0.72933 0.0
H311 H 0.66131 0.02268 0.78825 0.0
H312 H 0.51647 0.10531 0.80898 0.0
H313 H 0.55857 0.85544 0.74834 0.0
H314 H 0.66873 0.96637 0.80762 0.0
C315 C 0.52394 0.39075 0.98827 0.0
C316 C 0.50503 0.41561 0.98184 0.0
C317 C 0.5017 0.36106 0.00913 0.0
C318 C 0.46021 0.35586 0.02371 0.0
C319 C 0.44277 0.38198 0.01749 0.0
C320 C 0.46497 0.41151 -0.00312 0.0
C321 C 0.43742 0.32666 0.04661 0.0
C322 C 0.47409 0.33329 0.0651 0.0
C323 C 0.45521 0.31687 0.0896 0.0
C324 C 0.39942 0.29464 0.09562 0.0
C325 C 0.36162 0.28693 0.07711 0.0
C326 C 0.3804 0.2998 0.05216 0.0
C327 C 0.30777 0.27527 0.08471 0.0
C328 C 0.28005 0.25067 0.10695 0.0
C329 C 0.28841 0.29551 0.0717 0.0
C330 C 0.24628 0.29463 0.08149 0.0
C331 C 0.22298 0.27463 0.1049 0.0
C332 C 0.49662 0.32988 0.1096 0.0
C333 C 0.53525 0.32279 0.10464 0.0
C334 C 0.50201 0.35454 0.13253 0.0
C335 C 0.54747 0.37454 0.14942 0.0
C336 C 0.5879 0.36983 0.14372 0.0
C337 C 0.58046 0.34257 0.12153 0.0
C338 C 0.23879 0.25122 0.11722 0.0
H339 H 0.55499 0.39357 0.97692 0.0
H340 H 0.51643 0.34186 0.0137 0.0
H341 H 0.41251 0.38033 0.02888 0.0
H342 H 0.45075 0.43127 0.99267 0.0
H343 H 0.51849 0.35492 0.06116 0.0
H344 H 0.35194 0.29291 0.03727 0.0
H345 H 0.387 0.28616 0.11512 0.0
H346 H 0.29224 0.23333 0.11724 0.0
H347 H 0.30866 0.31607 0.055 0.0
H348 H 0.23601 0.31409 0.07189 0.0
H349 H 0.5319 0.30384 0.08712 0.0
H350 H 0.47315 0.36101 0.13669 0.0
H351 H 0.22148 0.23575 0.13541 0.0
H352 H 0.61163 0.33925 0.11636 0.0
H353 H 0.55252 0.39564 0.16633 0.0
C354 C 0.20971 0.35254 0.14721 0.0
C355 C 0.17259 0.35323 0.1327 0.0
C356 C 0.21977 0.32074 0.14015 0.0
C357 C 0.1934 0.28906 0.11824 0.0
H358 H 0.23468 0.37959 0.16279 0.0
H359 H 0.25307 0.32505 0.15021 0.0
S360 S 0.08391 0.26955 0.0771 0.0
N361 N 0.10255 0.31396 0.09802 0.0
N362 N 0.12152 0.25404 0.08484 0.0
C363 C 0.15095 0.28503 0.10559 0.0
C364 C 0.14058 0.31731 0.11278 0.0
C365 C 0.76393 0.2557 0.46691 0.0
C366 C 0.76751 0.2186 0.46847 0.0
C367 C 0.81199 0.30513 0.46343 0.0
C368 C 0.86669 0.32061 0.46117 0.0
H369 H 0.72333 0.24652 0.46816 0.0
H370 H 0.80594 0.33151 0.46235 0.0
S371 S 0.90011 0.23839 0.46356 0.0
N372 N 0.83133 0.20154 0.46759 0.0
N373 N 0.92075 0.29349 0.46061 0.0
C374 C 0.87109 0.28402 0.46308 0.0
C375 C 0.82202 0.23356 0.46679 0.0
C376 C 0.57982 0.79067 0.80332 0.0
C377 C 0.63319 0.80567 0.80948 0.0
C378 C 0.57423 0.82342 0.79388 0.0
C379 C 0.62172 0.87274 0.79023 0.0
H380 H 0.54189 0.75328 0.80595 0.0
H381 H 0.53225 0.81003 0.78952 0.0
S382 S 0.77122 0.92983 0.80142 0.0
N383 N 0.73471 0.87294 0.80983 0.0
N384 N 0.7241 0.93421 0.7924 0.0
C385 C 0.6753 0.88817 0.79616 0.0
C386 C 0.68104 0.85481 0.80568 0.0
C387 C 0.73138 0.48158 0.16947 0.0
C388 C 0.75792 0.46237 0.1737 0.0
C389 C 0.67429 0.45059 0.16186 0.0
C390 C 0.6422 0.39953 0.15829 0.0
H391 H 0.75585 0.52092 0.17011 0.0
H392 H 0.65653 0.46711 0.15681 0.0
S393 S 0.68984 0.33099 0.17221 0.0
N394 N 0.74654 0.38927 0.17764 0.0
N395 N 0.63889 0.33078 0.16349 0.0
C396 C 0.66708 0.37972 0.16489 0.0
C397 C 0.72513 0.41125 0.17256 0.0
C398 C 0.45137 0.87295 0.469 0.0
C399 C 0.45284 0.9102 0.45996 0.0
C400 C 0.40186 0.82281 0.467 0.0
C401 C 0.35077 0.80702 0.4561 0.0
H402 H 0.48897 0.88246 0.47767 0.0
H403 H 0.40363 0.79612 0.47426 0.0
S404 S 0.33144 0.88881 0.42856 0.0
N405 N 0.39777 0.92668 0.4391 0.0
N406 N 0.3059 0.83342 0.43534 0.0
C407 C 0.35161 0.84382 0.44697 0.0
C408 C 0.40207 0.89486 0.44888 0.0
C409 C 0.49372 0.20806 0.81078 0.0
C410 C 0.53676 0.25866 0.81695 0.0
C411 C 0.50606 0.17865 0.80134 0.0
C412 C 0.56204 0.19847 0.79749 0.0
H413 H 0.44989 0.19092 0.8132 0.0
H414 H 0.47124 0.14022 0.79642 0.0
S415 S 0.69067 0.32848 0.81144 0.0
N416 N 0.63803 0.32708 0.81875 0.0
N417 N 0.66119 0.27174 0.80176 0.0
C418 C 0.6056 0.24881 0.80407 0.0
C419 C 0.59303 0.2788 0.81365 0.0
C420 C 0.63383 0.82543 0.53824 0.0
C421 C 0.6356 0.8328 0.51218 0.0
C422 C 0.62791 0.78595 0.54676 0.0
C423 C 0.6233 0.7521 0.52956 0.0
H424 H 0.6386 0.85116 0.55222 0.0
H425 H 0.62827 0.78258 0.56705 0.0
S426 S 0.6197 0.75222 0.45924 0.0
N427 N 0.62853 0.80125 0.46915 0.0
N428 N 0.61687 0.72673 0.48515 0.0
C429 C 0.62345 0.7583 0.50341 0.0
C430 C 0.62968 0.79866 0.49473 0.0
C431 C 0.72139 0.48841 0.85434 0.0
C432 C 0.72744 0.53152 0.85218 0.0
C433 C 0.7683 0.48797 0.85601 0.0
C434 C 0.82772 0.5305 0.85545 0.0
H435 H 0.67894 0.45347 0.85487 0.0
H436 H 0.75696 0.45261 0.85753 0.0
S437 S 0.87171 0.65516 0.85064 0.0
N438 N 0.8022 0.61936 0.85007 0.0
N439 N 0.88645 0.61878 0.85296 0.0
C440 C 0.83426 0.57394 0.85329 0.0
C441 C 0.7864 0.57437 0.85178 0.0
C442 C 0.30717 0.73154 0.15662 0.0
C443 C 0.25285 0.71703 0.15496 0.0
C444 C 0.3568 0.78173 0.15948 0.0
C445 C 0.3547 0.82001 0.16058 0.0
H446 H 0.31137 0.70386 0.15653 0.0
H447 H 0.39704 0.79046 0.16165 0.0
S448 S 0.22366 0.80214 0.15299 0.0
N449 N 0.20093 0.74582 0.15222 0.0
N450 N 0.29297 0.83888 0.15667 0.0
C451 C 0.3007 0.8058 0.15759 0.0
C452 C 0.25036 0.75491 0.15503 0.0
C453 C 0.58666 0.32891 0.48493 0.0
C454 C 0.57012 0.28985 0.49948 0.0
C455 C 0.59553 0.36989 0.49615 0.0
C456 C 0.58919 0.37364 0.52239 0.0
H457 H 0.59205 0.32747 0.46468 0.0
H458 H 0.60804 0.39909 0.48427 0.0
S459 S 0.54721 0.28159 0.56885 0.0
N460 N 0.5483 0.25777 0.54149 0.0
N461 N 0.565 0.33458 0.56253 0.0
C462 C 0.57301 0.33494 0.53713 0.0
C463 C 0.56343 0.29312 0.52569 0.0
C464 C 0.42127 0.56522 0.85233 0.0
C465 C 0.41555 0.522 0.85252 0.0
C466 C 0.37443 0.56581 0.85398 0.0
C467 C 0.31536 0.52323 0.85575 0.0
H468 H 0.46341 0.60015 0.85094 0.0
H469 H 0.38546 0.60123 0.85358 0.0
S470 S 0.27258 0.3986 0.85797 0.0
N471 N 0.34168 0.43422 0.85536 0.0
N472 N 0.25748 0.43502 0.85821 0.0
C473 C 0.30915 0.47968 0.85601 0.0
C474 C 0.357 0.47918 0.85451 0.0
C475 C 0.94621 0.37049 0.16346 0.0
C476 C 0.9442 0.40522 0.15357 0.0
C477 C 0.89659 0.32141 0.16676 0.0
C478 C 0.84231 0.3043 0.16013 0.0
H479 H 0.98647 0.38165 0.16939 0.0
H480 H 0.9008 0.29699 0.1752 0.0
S481 S 0.81437 0.37761 0.12907 0.0
N482 N 0.88335 0.41695 0.13461 0.0
N483 N 0.79113 0.32537 0.1402 0.0
C484 C 0.84011 0.33814 0.14913 0.0
C485 C 0.89053 0.38818 0.14601 0.0
C486 C 0.06617 0.52368 0.06584 0.0
C487 C 0.09116 0.56968 0.07815 0.0
C488 C 0.06475 0.51772 0.03911 0.0
C489 C 0.08924 0.55768 0.02362 0.0
H490 H 1.0465 0.49181 0.0769 0.0
H491 H 1.04447 0.48154 0.03048 0.0
S492 S 0.16112 0.68599 0.04644 0.0
N493 N 0.14167 0.65598 0.07267 0.0
N494 N 0.13954 0.64489 0.02279 0.0
C495 C 0.11522 0.60395 0.03577 0.0
C496 C 0.11603 0.60989 0.06288 0.0
C497 C 0.67389 0.08139 0.37935 0.0
C498 C 0.63053 0.06978 0.39525 0.0
C499 C 0.66951 0.08174 0.35294 0.0
C500 C 0.62216 0.07152 0.34141 0.0
H501 H 0.71128 0.08949 0.38728 0.0
H502 H 0.7035 0.09013 0.34141 0.0
S503 S 0.49758 0.04016 0.37429 0.0
N504 N 0.53874 0.04811 0.39741 0.0
N505 N 0.53133 0.05013 0.34771 0.0
C506 C 0.57895 0.0608 0.35701 0.0
C507 C 0.58292 0.05956 0.38394 0.0
C508 C 0.625 0.56189 0.76651 0.0
C509 C 0.56913 0.53143 0.7748 0.0
C510 C 0.63692 0.57373 0.74092 0.0
C511 C 0.59345 0.55598 0.72288 0.0
H512 H 0.65951 0.57553 0.77967 0.0
H513 H 0.68038 0.5966 0.73517 0.0
S514 S 0.44031 0.4762 0.73525 0.0
N515 N 0.47026 0.48534 0.76315 0.0
N516 N 0.49249 0.50673 0.71529 0.0
C517 C 0.53765 0.5265 0.73117 0.0
C518 C 0.52557 0.51449 0.75707 0.0
C519 C 0.64311 0.08266 0.55416 0.0
C520 C 0.58998 0.05456 0.54159 0.0
C521 C 0.64779 0.07936 0.58038 0.0
C522 C 0.59956 0.04724 0.59489 0.0
H523 H 0.68127 0.10819 0.54382 0.0
H524 H 0.68945 0.10224 0.58938 0.0
S525 S 0.4508 0.96456 0.57078 0.0
N526 N 0.48829 0.9926 0.54557 0.0
N527 N 0.49711 0.98653 0.5945 0.0
C528 C 0.54637 0.01821 0.58235 0.0
C529 C 0.5416 0.02184 0.55582 0.0
C530 C 0.60096 0.51351 0.93495 0.0
C531 C 0.56196 0.50512 0.917 0.0
C532 C 0.58266 0.48355 0.95563 0.0
C533 C 0.52484 0.44458 0.959 0.0
H534 H 0.64578 0.54326 0.933 0.0
H535 H 0.61373 0.49152 0.96933 0.0
S536 S 0.40601 0.40597 0.91684 0.0
N537 N 0.46289 0.4542 0.90385 0.0
N538 N 0.42912 0.39784 0.94221 0.0
C539 C 0.4857 0.43541 0.94096 0.0
C540 C 0.50411 0.46575 0.9201 0.0
C541 C 0.07482 0.50806 0.23843 0.0
C542 C 0.10225 0.55017 0.22444 0.0
C543 C 0.07261 0.51069 0.265 0.0
C544 C 0.09859 0.55569 0.27857 0.0
H545 H 0.05534 0.47276 0.22881 0.0
H546 H 0.05184 0.47752 0.27505 0.0
S547 S 0.17343 0.67627 0.25102 0.0
N548 N 0.15362 0.63789 0.22615 0.0
N549 N 0.15061 0.64294 0.27617 0.0
C550 C 0.1252 0.59792 0.26485 0.0
C551 C 0.12663 0.59512 0.23774 0.0
loop_
_geom_bond_atom_site_label_1
_geom_bond_atom_site_label_2
_geom_bond_distance
_geom_bond_site_symmetry_2
_ccdc_geom_bond_type
Gd0 C3 2.818 . S
Gd0 O20 2.377 . S
Gd0 O22 2.448 . S
Gd0 O23 2.506 . S
Gd0 O24 2.435 . S
Gd0 O25 2.717 . S
Gd0 O27 2.395 1_455 S
Gd0 O31 2.327 . S
Gd1 C12 2.812 1_455 S
Gd1 O21 2.400 . S
Gd1 O25 2.331 . S
Gd1 O26 2.377 1_455 S
Gd1 O28 2.442 1_455 S
Gd1 O29 2.501 1_455 S
Gd1 O30 2.437 . S
Gd1 O31 2.723 . S
C2 O20 1.240 . S
C2 O21 1.240 . S
C3 Gd0 2.818 . S
C3 C4 1.510 . S
C3 O22 1.249 . S
C3 O23 1.252 . S
C4 C3 1.510 . S
C4 C5 1.404 . S
C4 C6 1.352 . S
C5 C4 1.404 . S
C5 C9 1.389 . S
C5 H32 0.930 . S
C6 C4 1.352 . S
C6 C8 1.374 . S
C6 H33 0.931 . S
C7 C8 1.359 . S
C7 C9 1.364 . S
C8 C6 1.374 . S
C8 C7 1.359 . S
C8 H34 0.931 . S
C9 C5 1.389 . S
C9 C7 1.364 . S
C9 H35 0.931 . S
C10 O24 1.256 . S
C10 O25 1.257 . S
C11 O26 1.240 . S
C11 O27 1.240 . S
C12 Gd1 2.812 1_655 S
C12 C13 1.510 . S
C12 O28 1.249 . S
C12 O29 1.252 . S
C13 C12 1.510 . S
C13 C14 1.404 . S
C13 C15 1.352 . S
C14 C13 1.404 . S
C14 C18 1.389 . S
C14 H36 0.930 . S
C15 C13 1.352 . S
C15 C17 1.374 . S
C15 H37 0.931 . S
C16 C17 1.359 . S
C16 C18 1.364 . S
C17 C15 1.374 . S
C17 C16 1.359 . S
C17 H38 0.931 . S
C18 C14 1.389 . S
C18 C16 1.364 . S
C18 H39 0.931 . S
C19 O30 1.256 . S
C19 O31 1.257 . S
O20 Gd0 2.377 . S
O20 C2 1.240 . S
O21 Gd1 2.400 . S
O21 C2 1.240 . S
O22 Gd0 2.448 . S
O22 C3 1.249 . S
O23 Gd0 2.506 . S
O23 C3 1.252 . S
O24 Gd0 2.435 . S
O24 C10 1.256 . S
O25 Gd0 2.717 . S
O25 Gd1 2.331 . S
O25 C10 1.257 . S
O26 Gd1 2.377 1_655 S
O26 C11 1.240 . S
O27 Gd0 2.395 1_655 S
O27 C11 1.240 . S
O28 Gd1 2.442 1_655 S
O28 C12 1.249 . S
O29 Gd1 2.501 1_655 S
O29 C12 1.252 . S
O30 Gd1 2.437 . S
O30 C19 1.256 . S
O31 Gd0 2.327 . S
O31 Gd1 2.723 . S
O31 C19 1.257 . S
H32 C5 0.930 . S
H33 C6 0.931 . S
H34 C8 0.931 . S
H35 C9 0.931 . S
H36 C14 0.930 . S
H37 C15 0.931 . S
H38 C17 0.931 . S
H39 C18 0.931 . S
Gd40 C43 2.818 . S
Gd40 O60 2.377 . S
Gd40 O62 2.448 . S
Gd40 O63 2.506 . S
Gd40 O64 2.435 . S
Gd40 O65 2.717 1_565 S
Gd40 O67 2.395 1_565 S
Gd40 O71 2.327 1_565 S
Gd41 C52 2.818 . S
Gd41 O61 2.395 1_545 S
Gd41 O65 2.327 . S
Gd41 O66 2.377 . S
Gd41 O68 2.448 . S
Gd41 O69 2.506 . S
Gd41 O70 2.435 . S
Gd41 O71 2.717 . S
C42 O60 1.240 . S
C42 O61 1.240 . S
C43 Gd40 2.818 . S
C43 C44 1.510 . S
C43 O62 1.249 . S
C43 O63 1.252 . S
C44 C43 1.510 . S
C44 C45 1.404 . S
C44 C46 1.352 . S
C45 C44 1.404 . S
C45 C49 1.389 . S
C45 H72 0.930 . S
C46 C44 1.352 . S
C46 C48 1.374 . S
C46 H73 0.931 . S
C47 C48 1.359 . S
C47 C49 1.364 . S
C48 C46 1.374 . S
C48 C47 1.359 . S
C48 H74 0.931 . S
C49 C45 1.389 . S
C49 C47 1.364 . S
C49 H75 0.931 . S
C50 O64 1.256 1_545 S
C50 O65 1.257 . S
C51 O66 1.240 . S
C51 O67 1.240 . S
C52 Gd41 2.818 . S
C52 C53 1.510 . S
C52 O68 1.249 . S
C52 O69 1.252 . S
C53 C52 1.510 . S
C53 C54 1.404 . S
C53 C55 1.352 . S
C54 C53 1.404 . S
C54 C58 1.389 . S
C54 H76 0.930 . S
C55 C53 1.352 . S
C55 C57 1.374 . S
C55 H77 0.931 . S
C56 C57 1.359 . S
C56 C58 1.364 . S
C57 C55 1.374 . S
C57 C56 1.359 . S
C57 H78 0.931 . S
C58 C54 1.389 . S
C58 C56 1.364 . S
C58 H79 0.931 . S
C59 O70 1.256 . S
C59 O71 1.257 . S
O60 Gd40 2.377 . S
O60 C42 1.240 . S
O61 Gd41 2.395 1_565 S
O61 C42 1.240 . S
O62 Gd40 2.448 . S
O62 C43 1.249 . S
O63 Gd40 2.506 . S
O63 C43 1.252 . S
O64 Gd40 2.435 . S
O64 C50 1.256 1_565 S
O65 Gd40 2.717 1_545 S
O65 Gd41 2.327 . S
O65 C50 1.257 . S
O66 Gd41 2.377 . S
O66 C51 1.240 . S
O67 Gd40 2.395 1_545 S
O67 C51 1.240 . S
O68 Gd41 2.448 . S
O68 C52 1.249 . S
O69 Gd41 2.506 . S
O69 C52 1.252 . S
O70 Gd41 2.435 . S
O70 C59 1.256 . S
O71 Gd40 2.327 1_545 S
O71 Gd41 2.717 . S
O71 C59 1.257 . S
H72 C45 0.930 . S
H73 C46 0.931 . S
H74 C48 0.931 . S
H75 C49 0.931 . S
H76 C54 0.930 . S
H77 C55 0.931 . S
H78 C57 0.931 . S
H79 C58 0.931 . S
Gd80 C83 2.818 . S
Gd80 O100 2.377 . S
Gd80 O102 2.448 . S
Gd80 O103 2.506 . S
Gd80 O104 2.435 . S
Gd80 O105 2.717 . S
Gd80 O107 2.395 . S
Gd80 O111 2.327 . S
Gd81 C92 2.818 . S
Gd81 O101 2.395 . S
Gd81 O105 2.327 . S
Gd81 O106 2.377 . S
Gd81 O108 2.448 . S
Gd81 O109 2.506 . S
Gd81 O110 2.435 . S
Gd81 O111 2.717 . S
C82 O100 1.240 . S
C82 O101 1.240 . S
C83 Gd80 2.818 . S
C83 C84 1.510 . S
C83 O102 1.249 . S
C83 O103 1.252 . S
C84 C83 1.510 . S
C84 C85 1.404 . S
C84 C86 1.352 . S
C85 C84 1.404 . S
C85 C89 1.389 . S
C85 H112 0.930 . S
C86 C84 1.352 . S
C86 C88 1.374 . S
C86 H113 0.931 . S
C87 C88 1.359 . S
C87 C89 1.364 . S
C88 C86 1.374 . S
C88 C87 1.359 . S
C88 H114 0.931 . S
C89 C85 1.389 . S
C89 C87 1.364 . S
C89 H115 0.931 . S
C90 O104 1.256 . S
C90 O105 1.257 . S
C91 O106 1.240 . S
C91 O107 1.240 . S
C92 Gd81 2.818 . S
C92 C93 1.510 . S
C92 O108 1.249 . S
C92 O109 1.252 . S
C93 C92 1.510 . S
C93 C94 1.404 . S
C93 C95 1.352 . S
C94 C93 1.404 . S
C94 C98 1.389 . S
C94 H116 0.930 . S
C95 C93 1.352 . S
C95 C97 1.374 . S
C95 H117 0.931 . S
C96 C97 1.359 . S
C96 C98 1.364 . S
C97 C95 1.374 . S
C97 C96 1.359 . S
C97 H118 0.931 . S
C98 C94 1.389 . S
C98 C96 1.364 . S
C98 H119 0.931 . S
C99 O110 1.256 . S
C99 O111 1.257 . S
O100 Gd80 2.377 . S
O100 C82 1.240 . S
O101 Gd81 2.395 . S
O101 C82 1.240 . S
O102 Gd80 2.448 . S
O102 C83 1.249 . S
O103 Gd80 2.506 . S
O103 C83 1.252 . S
O104 Gd80 2.435 . S
O104 C90 1.256 . S
O105 Gd80 2.717 . S
O105 Gd81 2.327 . S
O105 C90 1.257 . S
O106 Gd81 2.377 . S
O106 C91 1.240 . S
O107 Gd80 2.395 . S
O107 C91 1.240 . S
O108 Gd81 2.448 . S
O108 C92 1.249 . S
O109 Gd81 2.506 . S
O109 C92 1.252 . S
O110 Gd81 2.435 . S
O110 C99 1.256 . S
O111 Gd80 2.327 . S
O111 Gd81 2.717 . S
O111 C99 1.257 . S
H112 C85 0.930 . S
H113 C86 0.931 . S
H114 C88 0.931 . S
H115 C89 0.931 . S
H116 C94 0.930 . S
H117 C95 0.931 . S
H118 C97 0.931 . S
H119 C98 0.931 . S
C120 C121 1.386 . S
C120 C122 1.397 . S
C120 H144 0.931 . S
C121 C120 1.386 . S
C121 C125 1.397 1_545 S
C122 C120 1.397 . S
C122 C123 1.384 . S
C122 H145 0.930 . S
C123 C122 1.384 . S
C123 C124 1.377 1_545 S
C123 C126 1.481 . S
C124 C123 1.377 1_565 S
C124 C125 1.389 . S
C124 H146 0.929 . S
C125 C121 1.397 1_565 S
C125 C124 1.389 . S
C125 H147 0.931 . S
C126 C123 1.481 . S
C126 C127 1.387 . S
C126 C131 1.390 1_545 S
C127 C126 1.387 . S
C127 C128 1.401 . S
C127 H148 0.930 . S
C128 C127 1.401 . S
C128 C129 1.376 . S
C128 C137 1.511 . S
C129 C128 1.376 . S
C129 C130 1.392 1_545 S
C129 H150 0.931 . S
C130 C129 1.392 1_565 S
C130 C131 1.361 . S
C130 C132 1.500 . S
C131 C126 1.390 1_565 S
C131 C130 1.361 . S
C131 H149 0.931 . S
C132 C130 1.500 . S
C132 C133 1.371 . S
C132 C134 1.365 . S
C133 C132 1.371 . S
C133 C143 1.386 . S
C133 H151 0.931 . S
C134 C132 1.365 . S
C134 C135 1.409 . S
C134 H152 0.929 . S
C135 C134 1.409 . S
C135 C136 1.380 . S
C135 H153 0.930 . S
C136 C135 1.380 . S
C136 C143 1.357 . S
C137 C128 1.511 . S
C137 C138 1.341 . S
C137 C139 1.371 . S
C138 C137 1.341 . S
C138 C142 1.394 . S
C138 H154 0.930 . S
C139 C137 1.371 . S
C139 C140 1.392 . S
C139 H155 0.931 . S
C140 C139 1.392 . S
C140 C141 1.331 . S
C140 H158 0.932 . S
C141 C140 1.331 . S
C141 C142 1.336 . S
C142 C138 1.394 . S
C142 C141 1.336 . S
C142 H157 0.929 . S
C143 C133 1.386 . S
C143 C136 1.357 . S
C143 H156 0.928 . S
H144 C120 0.931 . S
H145 C122 0.930 . S
H146 C124 0.929 . S
H147 C125 0.931 . S
H148 C127 0.930 . S
H149 C131 0.931 . S
H150 C129 0.931 . S
H151 C133 0.931 . S
H152 C134 0.929 . S
H153 C135 0.930 . S
H154 C138 0.930 . S
H155 C139 0.931 . S
H156 C143 0.928 . S
H157 C142 0.929 . S
H158 C140 0.932 . S
C159 C160 1.386 . S
C159 C161 1.397 . S
C159 H183 0.931 . S
C160 C159 1.386 . S
C160 C164 1.397 . S
C161 C159 1.397 . S
C161 C162 1.384 . S
C161 H184 0.930 . S
C162 C161 1.384 . S
C162 C163 1.377 . S
C162 C165 1.481 . S
C163 C162 1.377 . S
C163 C164 1.389 . S
C163 H185 0.929 . S
C164 C160 1.397 . S
C164 C163 1.389 . S
C164 H186 0.931 . S
C165 C162 1.481 . S
C165 C166 1.387 . S
C165 C170 1.390 . S
C166 C165 1.387 . S
C166 C167 1.401 . S
C166 H187 0.930 . S
C167 C166 1.401 . S
C167 C168 1.376 . S
C167 C176 1.511 . S
C168 C167 1.376 . S
C168 C169 1.392 . S
C168 H189 0.931 . S
C169 C168 1.392 . S
C169 C170 1.361 . S
C169 C171 1.500 . S
C170 C165 1.390 . S
C170 C169 1.361 . S
C170 H188 0.931 . S
C171 C169 1.500 . S
C171 C172 1.371 . S
C171 C173 1.365 . S
C172 C171 1.371 . S
C172 C182 1.386 . S
C172 H190 0.931 . S
C173 C171 1.365 . S
C173 C174 1.409 . S
C173 H191 0.929 . S
C174 C173 1.409 . S
C174 C175 1.380 . S
C174 H192 0.930 . S
C175 C174 1.380 . S
C175 C182 1.357 . S
C176 C167 1.511 . S
C176 C177 1.341 . S
C176 C178 1.371 . S
C177 C176 1.341 . S
C177 C181 1.394 . S
C177 H193 0.930 . S
C178 C176 1.371 . S
C178 C179 1.392 . S
C178 H194 0.931 . S
C179 C178 1.392 . S
C179 C180 1.331 . S
C179 H197 0.932 . S
C180 C179 1.331 . S
C180 C181 1.336 . S
C181 C177 1.394 . S
C181 C180 1.336 . S
C181 H196 0.929 . S
C182 C172 1.386 . S
C182 C175 1.357 . S
C182 H195 0.928 . S
H183 C159 0.931 . S
H184 C161 0.930 . S
H185 C163 0.929 . S
H186 C164 0.931 . S
H187 C166 0.930 . S
H188 C170 0.931 . S
H189 C168 0.931 . S
H190 C172 0.931 . S
H191 C173 0.929 . S
H192 C174 0.930 . S
H193 C177 0.930 . S
H194 C178 0.931 . S
H195 C182 0.928 . S
H196 C181 0.929 . S
H197 C179 0.932 . S
C198 C199 1.401 . S
C198 C200 1.397 . S
C198 H222 0.931 . S
C199 C198 1.401 . S
C199 C203 1.415 . S
C200 C198 1.397 . S
C200 C201 1.384 . S
C200 H223 0.930 . S
C201 C200 1.384 . S
C201 C202 1.377 . S
C201 C204 1.481 . S
C202 C201 1.377 . S
C202 C203 1.389 . S
C202 H224 0.929 1_455 S
C203 C199 1.415 . S
C203 C202 1.389 . S
C203 H225 0.931 1_455 S
C204 C201 1.481 . S
C204 C205 1.387 . S
C204 C209 1.390 . S
C205 C204 1.387 . S
C205 C206 1.401 . S
C205 H226 0.930 . S
C206 C205 1.401 . S
C206 C207 1.376 . S
C206 C215 1.511 . S
C207 C206 1.376 . S
C207 C208 1.392 . S
C207 H228 0.931 . S
C208 C207 1.392 . S
C208 C209 1.361 . S
C208 C210 1.500 1_455 S
C209 C204 1.390 . S
C209 C208 1.361 . S
C209 H227 0.931 . S
C210 C208 1.500 1_655 S
C210 C211 1.371 1_655 S
C210 C212 1.365 . S
C211 C210 1.371 1_455 S
C211 C221 1.386 1_455 S
C211 H229 0.931 . S
C212 C210 1.365 . S
C212 C213 1.409 . S
C212 H230 0.929 . S
C213 C212 1.409 . S
C213 C214 1.380 . S
C213 H231 0.930 . S
C214 C213 1.380 . S
C214 C221 1.357 . S
C215 C206 1.511 . S
C215 C216 1.341 . S
C215 C217 1.371 . S
C216 C215 1.341 . S
C216 C220 1.394 . S
C216 H232 0.930 . S
C217 C215 1.371 . S
C217 C218 1.392 . S
C217 H233 0.931 . S
C218 C217 1.392 . S
C218 C219 1.331 . S
C218 H236 0.932 . S
C219 C218 1.331 . S
C219 C220 1.336 . S
C220 C216 1.394 . S
C220 C219 1.336 . S
C220 H235 0.929 . S
C221 C211 1.386 1_655 S
C221 C214 1.357 . S
C221 H234 0.928 . S
H222 C198 0.931 . S
H223 C200 0.930 . S
H224 C202 0.929 1_655 S
H225 C203 0.931 1_655 S
H226 C205 0.930 . S
H227 C209 0.931 . S
H228 C207 0.931 . S
H229 C211 0.931 . S
H230 C212 0.929 . S
H231 C213 0.930 . S
H232 C216 0.930 . S
H233 C217 0.931 . S
H234 C221 0.928 . S
H235 C220 0.929 . S
H236 C218 0.932 . S
C237 C238 1.406 . S
C237 C239 1.397 . S
C237 H261 0.931 . S
C238 C237 1.406 . S
C238 C242 1.378 1_655 S
C239 C237 1.397 . S
C239 C240 1.384 . S
C239 H262 0.930 . S
C240 C239 1.384 . S
C240 C241 1.377 1_655 S
C240 C243 1.481 . S
C241 C240 1.377 1_455 S
C241 C242 1.389 . S
C241 H263 0.929 . S
C242 C238 1.378 1_455 S
C242 C241 1.389 . S
C242 H264 0.931 . S
C243 C240 1.481 . S
C243 C244 1.387 . S
C243 C248 1.390 1_655 S
C244 C243 1.387 . S
C244 C245 1.401 . S
C244 H265 0.930 . S
C245 C244 1.401 . S
C245 C246 1.376 . S
C245 C254 1.511 . S
C246 C245 1.376 . S
C246 C247 1.392 1_655 S
C246 H267 0.931 . S
C247 C246 1.392 1_455 S
C247 C248 1.361 . S
C247 C249 1.500 . S
C248 C243 1.390 1_455 S
C248 C247 1.361 . S
C248 H266 0.931 . S
C249 C247 1.500 . S
C249 C250 1.371 . S
C249 C251 1.365 . S
C250 C249 1.371 . S
C250 C260 1.386 . S
C250 H268 0.931 . S
C251 C249 1.365 . S
C251 C252 1.409 . S
C251 H269 0.929 . S
C252 C251 1.409 . S
C252 C253 1.380 . S
C252 H270 0.930 . S
C253 C252 1.380 . S
C253 C260 1.357 . S
C254 C245 1.511 . S
C254 C255 1.341 . S
C254 C256 1.371 . S
C255 C254 1.341 . S
C255 C259 1.394 . S
C255 H271 0.930 . S
C256 C254 1.371 . S
C256 C257 1.392 . S
C256 H272 0.931 . S
C257 C256 1.392 . S
C257 C258 1.331 . S
C257 H275 0.932 . S
C258 C257 1.331 . S
C258 C259 1.336 . S
C259 C255 1.394 . S
C259 C258 1.336 . S
C259 H274 0.929 . S
C260 C250 1.386 . S
C260 C253 1.357 . S
C260 H273 0.928 . S
H261 C237 0.931 . S
H262 C239 0.930 . S
H263 C241 0.929 . S
H264 C242 0.931 . S
H265 C244 0.930 . S
H266 C248 0.931 . S
H267 C246 0.931 . S
H268 C250 0.931 . S
H269 C251 0.929 . S
H270 C252 0.930 . S
H271 C255 0.930 . S
H272 C256 0.931 . S
H273 C260 0.928 . S
H274 C259 0.929 . S
H275 C257 0.932 . S
C276 C277 1.386 . S
C276 C278 1.397 . S
C276 H300 0.931 . S
C277 C276 1.386 . S
C277 C281 1.397 1_565 S
C278 C276 1.397 . S
C278 C279 1.384 . S
C278 H301 0.930 . S
C279 C278 1.384 . S
C279 C280 1.377 1_565 S
C279 C282 1.481 . S
C280 C279 1.377 1_545 S
C280 C281 1.389 . S
C280 H302 0.929 . S
C281 C277 1.397 1_545 S
C281 C280 1.389 . S
C281 H303 0.931 . S
C282 C279 1.481 . S
C282 C283 1.387 . S
C282 C287 1.390 1_565 S
C283 C282 1.387 . S
C283 C284 1.401 . S
C283 H304 0.930 . S
C284 C283 1.401 . S
C284 C285 1.376 1_565 S
C284 C293 1.511 . S
C285 C284 1.376 1_545 S
C285 C286 1.392 . S
C285 H306 0.931 . S
C286 C285 1.392 . S
C286 C287 1.361 . S
C286 C288 1.500 . S
C287 C282 1.390 1_545 S
C287 C286 1.361 . S
C287 H305 0.931 . S
C288 C286 1.500 . S
C288 C289 1.371 . S
C288 C290 1.365 . S
C289 C288 1.371 . S
C289 C299 1.386 . S
C289 H307 0.931 . S
C290 C288 1.365 . S
C290 C291 1.409 . S
C290 H308 0.929 . S
C291 C290 1.409 . S
C291 C292 1.380 . S
C291 H309 0.930 . S
C292 C291 1.380 . S
C292 C299 1.357 . S
C293 C284 1.511 . S
C293 C294 1.341 . S
C293 C295 1.371 . S
C294 C293 1.341 . S
C294 C298 1.394 . S
C294 H310 0.930 . S
C295 C293 1.371 . S
C295 C296 1.392 . S
C295 H311 0.931 . S
C296 C295 1.392 . S
C296 C297 1.331 . S
C296 H314 0.932 . S
C297 C296 1.331 . S
C297 C298 1.336 . S
C298 C294 1.394 . S
C298 C297 1.336 . S
C298 H313 0.929 . S
C299 C289 1.386 . S
C299 C292 1.357 . S
C299 H312 0.928 . S
H300 C276 0.931 . S
H301 C278 0.930 . S
H302 C280 0.929 . S
H303 C281 0.931 . S
H304 C283 0.930 . S
H305 C287 0.931 . S
H306 C285 0.931 . S
H307 C289 0.931 . S
H308 C290 0.929 . S
H309 C291 0.930 . S
H310 C294 0.930 . S
H311 C295 0.931 . S
H312 C299 0.928 . S
H313 C298 0.929 . S
H314 C296 0.932 . S
C315 C316 1.386 . S
C315 C317 1.397 1_556 S
C315 H339 0.931 . S
C316 C315 1.386 . S
C316 C320 1.397 . S
C317 C315 1.397 1_554 S
C317 C318 1.384 . S
C317 H340 0.930 . S
C318 C317 1.384 . S
C318 C319 1.377 . S
C318 C321 1.481 . S
C319 C318 1.377 . S
C319 C320 1.389 1_554 S
C319 H341 0.929 . S
C320 C316 1.397 . S
C320 C319 1.389 1_556 S
C320 H342 0.931 . S
C321 C318 1.481 . S
C321 C322 1.387 . S
C321 C326 1.390 . S
C322 C321 1.387 . S
C322 C323 1.401 . S
C322 H343 0.930 . S
C323 C322 1.401 . S
C323 C324 1.376 . S
C323 C332 1.511 . S
C324 C323 1.376 . S
C324 C325 1.392 . S
C324 H345 0.931 . S
C325 C324 1.392 . S
C325 C326 1.361 . S
C325 C327 1.500 . S
C326 C321 1.390 . S
C326 C325 1.361 . S
C326 H344 0.931 . S
C327 C325 1.500 . S
C327 C328 1.371 . S
C327 C329 1.365 . S
C328 C327 1.371 . S
C328 C338 1.386 . S
C328 H346 0.931 . S
C329 C327 1.365 . S
C329 C330 1.409 . S
C329 H347 0.929 . S
C330 C329 1.409 . S
C330 C331 1.380 . S
C330 H348 0.930 . S
C331 C330 1.380 . S
C331 C338 1.357 . S
C332 C323 1.511 . S
C332 C333 1.341 . S
C332 C334 1.371 . S
C333 C332 1.341 . S
C333 C337 1.394 . S
C333 H349 0.930 . S
C334 C332 1.371 . S
C334 C335 1.392 . S
C334 H350 0.931 . S
C335 C334 1.392 . S
C335 C336 1.331 . S
C335 H353 0.932 . S
C336 C335 1.331 . S
C336 C337 1.336 . S
C337 C333 1.394 . S
C337 C336 1.336 . S
C337 H352 0.929 . S
C338 C328 1.386 . S
C338 C331 1.357 . S
C338 H351 0.928 . S
H339 C315 0.931 . S
H340 C317 0.930 . S
H341 C319 0.929 . S
H342 C320 0.931 . S
H343 C322 0.930 . S
H344 C326 0.931 . S
H345 C324 0.931 . S
H346 C328 0.931 . S
H347 C329 0.929 . S
H348 C330 0.930 . S
H349 C333 0.930 . S
H350 C334 0.931 . S
H351 C338 0.928 . S
H352 C337 0.929 . S
H353 C335 0.932 . S
C354 C355 1.369 . S
C354 C356 1.419 . S
C354 H358 0.930 . S
C355 C354 1.369 . S
C355 C364 1.429 . S
C356 C354 1.419 . S
C356 C357 1.363 . S
C356 H359 0.929 . S
C357 C356 1.363 . S
C357 C363 1.428 . S
H358 C354 0.930 . S
H359 C356 0.929 . S
S360 N361 1.613 . S
S360 N362 1.610 . S
N361 S360 1.613 . S
N361 C364 1.350 . S
N362 S360 1.610 . S
N362 C363 1.351 . S
C363 C357 1.428 . S
C363 N362 1.351 . S
C363 C364 1.434 . S
C364 C355 1.429 . S
C364 N361 1.350 . S
C364 C363 1.434 . S
C365 C366 1.369 . S
C365 C367 1.419 . S
C365 H369 0.930 . S
C366 C365 1.369 . S
C366 C375 1.429 . S
C367 C365 1.419 . S
C367 C368 1.363 . S
C367 H370 0.929 . S
C368 C367 1.363 . S
C368 C374 1.428 . S
H369 C365 0.930 . S
H370 C367 0.929 . S
S371 N372 1.613 . S
S371 N373 1.610 . S
N372 S371 1.613 . S
N372 C375 1.350 . S
N373 S371 1.610 . S
N373 C374 1.351 . S
C374 C368 1.428 . S
C374 N373 1.351 . S
C374 C375 1.434 . S
C375 C366 1.429 . S
C375 N372 1.350 . S
C375 C374 1.434 . S
C376 C377 1.369 . S
C376 C378 1.419 . S
C376 H380 0.930 . S
C377 C376 1.369 . S
C377 C386 1.429 . S
C378 C376 1.419 . S
C378 C379 1.363 . S
C378 H381 0.929 . S
C379 C378 1.363 . S
C379 C385 1.428 . S
H380 C376 0.930 . S
H381 C378 0.929 . S
S382 N383 1.613 . S
S382 N384 1.610 . S
N383 S382 1.613 . S
N383 C386 1.350 . S
N384 S382 1.610 . S
N384 C385 1.351 . S
C385 C379 1.428 . S
C385 N384 1.351 . S
C385 C386 1.434 . S
C386 C377 1.429 . S
C386 N383 1.350 . S
C386 C385 1.434 . S
C387 C388 1.369 . S
C387 C389 1.419 . S
C387 H391 0.930 . S
C388 C387 1.369 . S
C388 C397 1.429 . S
C389 C387 1.419 . S
C389 C390 1.363 . S
C389 H392 0.929 . S
C390 C389 1.363 . S
C390 C396 1.428 . S
H391 C387 0.930 . S
H392 C389 0.929 . S
S393 N394 1.613 . S
S393 N395 1.610 . S
N394 S393 1.613 . S
N394 C397 1.350 . S
N395 S393 1.610 . S
N395 C396 1.351 . S
C396 C390 1.428 . S
C396 N395 1.351 . S
C396 C397 1.434 . S
C397 C388 1.429 . S
C397 N394 1.350 . S
C397 C396 1.434 . S
C398 C399 1.369 . S
C398 C400 1.419 . S
C398 H402 0.930 . S
C399 C398 1.369 . S
C399 C408 1.429 . S
C400 C398 1.419 . S
C400 C401 1.363 . S
C400 H403 0.929 . S
C401 C400 1.363 . S
C401 C407 1.428 . S
H402 C398 0.930 . S
H403 C400 0.929 . S
S404 N405 1.613 . S
S404 N406 1.610 . S
N405 S404 1.613 . S
N405 C408 1.350 . S
N406 S404 1.610 . S
N406 C407 1.351 . S
C407 C401 1.428 . S
C407 N406 1.351 . S
C407 C408 1.434 . S
C408 C399 1.429 . S
C408 N405 1.350 . S
C408 C407 1.434 . S
C409 C410 1.369 . S
C409 C411 1.419 . S
C409 H413 0.930 . S
C410 C409 1.369 . S
C410 C419 1.429 . S
C411 C409 1.419 . S
C411 C412 1.363 . S
C411 H414 0.929 . S
C412 C411 1.363 . S
C412 C418 1.428 . S
H413 C409 0.930 . S
H414 C411 0.929 . S
S415 N416 1.613 . S
S415 N417 1.610 . S
N416 S415 1.613 . S
N416 C419 1.350 . S
N417 S415 1.610 . S
N417 C418 1.351 . S
C418 C412 1.428 . S
C418 N417 1.351 . S
C418 C419 1.434 . S
C419 C410 1.429 . S
C419 N416 1.350 . S
C419 C418 1.434 . S
C420 C421 1.369 . S
C420 C422 1.419 . S
C420 H424 0.930 . S
C421 C420 1.369 . S
C421 C430 1.429 . S
C422 C420 1.419 . S
C422 C423 1.363 . S
C422 H425 0.929 . S
C423 C422 1.363 . S
C423 C429 1.428 . S
H424 C420 0.930 . S
H425 C422 0.929 . S
S426 N427 1.613 . S
S426 N428 1.610 . S
N427 S426 1.613 . S
N427 C430 1.350 . S
N428 S426 1.610 . S
N428 C429 1.351 . S
C429 C423 1.428 . S
C429 N428 1.351 . S
C429 C430 1.434 . S
C430 C421 1.429 . S
C430 N427 1.350 . S
C430 C429 1.434 . S
C431 C432 1.369 . S
C431 C433 1.419 . S
C431 H435 0.930 . S
C432 C431 1.369 . S
C432 C441 1.429 . S
C433 C431 1.419 . S
C433 C434 1.363 . S
C433 H436 0.929 . S
C434 C433 1.363 . S
C434 C440 1.428 . S
H435 C431 0.930 . S
H436 C433 0.929 . S
S437 N438 1.613 . S
S437 N439 1.610 . S
N438 S437 1.613 . S
N438 C441 1.350 . S
N439 S437 1.610 . S
N439 C440 1.351 . S
C440 C434 1.428 . S
C440 N439 1.351 . S
C440 C441 1.434 . S
C441 C432 1.429 . S
C441 N438 1.350 . S
C441 C440 1.434 . S
C442 C443 1.369 . S
C442 C444 1.419 . S
C442 H446 0.930 . S
C443 C442 1.369 . S
C443 C452 1.429 . S
C444 C442 1.419 . S
C444 C445 1.363 . S
C444 H447 0.929 . S
C445 C444 1.363 . S
C445 C451 1.428 . S
H446 C442 0.930 . S
H447 C444 0.929 . S
S448 N449 1.613 . S
S448 N450 1.610 . S
N449 S448 1.613 . S
N449 C452 1.350 . S
N450 S448 1.610 . S
N450 C451 1.351 . S
C451 C445 1.428 . S
C451 N450 1.351 . S
C451 C452 1.434 . S
C452 C443 1.429 . S
C452 N449 1.350 . S
C452 C451 1.434 . S
C453 C454 1.369 . S
C453 C455 1.419 . S
C453 H457 0.930 . S
C454 C453 1.369 . S
C454 C463 1.429 . S
C455 C453 1.419 . S
C455 C456 1.363 . S
C455 H458 0.929 . S
C456 C455 1.363 . S
C456 C462 1.428 . S
H457 C453 0.930 . S
H458 C455 0.929 . S
S459 N460 1.613 . S
S459 N461 1.610 . S
N460 S459 1.613 . S
N460 C463 1.350 . S
N461 S459 1.610 . S
N461 C462 1.351 . S
C462 C456 1.428 . S
C462 N461 1.351 . S
C462 C463 1.434 . S
C463 C454 1.429 . S
C463 N460 1.350 . S
C463 C462 1.434 . S
C464 C465 1.369 . S
C464 C466 1.419 . S
C464 H468 0.930 . S
C465 C464 1.369 . S
C465 C474 1.429 . S
C466 C464 1.419 . S
C466 C467 1.363 . S
C466 H469 0.929 . S
C467 C466 1.363 . S
C467 C473 1.428 . S
H468 C464 0.930 . S
H469 C466 0.929 . S
S470 N471 1.613 . S
S470 N472 1.610 . S
N471 S470 1.613 . S
N471 C474 1.350 . S
N472 S470 1.610 . S
N472 C473 1.351 . S
C473 C467 1.428 . S
C473 N472 1.351 . S
C473 C474 1.434 . S
C474 C465 1.429 . S
C474 N471 1.350 . S
C474 C473 1.434 . S
C475 C476 1.369 . S
C475 C477 1.419 . S
C475 H479 0.930 . S
C476 C475 1.369 . S
C476 C485 1.429 . S
C477 C475 1.419 . S
C477 C478 1.363 . S
C477 H480 0.929 . S
C478 C477 1.363 . S
C478 C484 1.428 . S
H479 C475 0.930 . S
H480 C477 0.929 . S
S481 N482 1.613 . S
S481 N483 1.610 . S
N482 S481 1.613 . S
N482 C485 1.350 . S
N483 S481 1.610 . S
N483 C484 1.351 . S
C484 C478 1.428 . S
C484 N483 1.351 . S
C484 C485 1.434 . S
C485 C476 1.429 . S
C485 N482 1.350 . S
C485 C484 1.434 . S
C486 C487 1.369 . S
C486 C488 1.419 . S
C486 H490 0.930 . S
C487 C486 1.369 . S
C487 C496 1.429 1_455 S
C488 C486 1.419 . S
C488 C489 1.363 . S
C488 H491 0.929 . S
C489 C488 1.363 . S
C489 C495 1.442 . S
H490 C486 0.930 . S
H491 C488 0.929 . S
S492 N493 1.613 . S
S492 N494 1.610 . S
N493 S492 1.613 . S
N493 C496 1.350 . S
N494 S492 1.610 . S
N494 C495 1.337 1_655 S
C495 C489 1.442 . S
C495 N494 1.337 1_455 S
C495 C496 1.434 1_455 S
C496 C487 1.429 1_655 S
C496 N493 1.350 . S
C496 C495 1.434 1_655 S
C497 C498 1.369 . S
C497 C499 1.419 . S
C497 H501 0.930 1_545 S
C498 C497 1.369 . S
C498 C507 1.429 . S
C499 C497 1.419 . S
C499 C500 1.363 . S
C499 H502 0.929 1_545 S
C500 C499 1.363 . S
C500 C506 1.428 . S
H501 C497 0.930 1_565 S
H502 C499 0.929 1_565 S
S503 N504 1.613 . S
S503 N505 1.610 . S
N504 S503 1.613 . S
N504 C507 1.350 . S
N505 S503 1.610 . S
N505 C506 1.351 . S
C506 C500 1.428 . S
C506 N505 1.351 . S
C506 C507 1.434 . S
C507 C498 1.429 . S
C507 N504 1.350 . S
C507 C506 1.434 . S
C508 C509 1.369 . S
C508 C510 1.419 . S
C508 H512 0.930 . S
C509 C508 1.369 . S
C509 C518 1.429 . S
C510 C508 1.419 . S
C510 C511 1.363 . S
C510 H513 0.929 . S
C511 C510 1.363 . S
C511 C517 1.428 . S
H512 C508 0.930 . S
H513 C510 0.929 . S
S514 N515 1.613 . S
S514 N516 1.610 . S
N515 S514 1.613 . S
N515 C518 1.350 . S
N516 S514 1.610 . S
N516 C517 1.351 . S
C517 C511 1.428 . S
C517 N516 1.351 . S
C517 C518 1.434 . S
C518 C509 1.429 . S
C518 N515 1.350 . S
C518 C517 1.434 . S
C519 C520 1.369 . S
C519 C521 1.419 . S
C519 H523 0.930 . S
C520 C519 1.369 . S
C520 C529 1.429 1_545 S
C521 C519 1.419 . S
C521 C522 1.363 1_545 S
C521 H524 0.929 . S
C522 C521 1.363 1_565 S
C522 C528 1.428 . S
H523 C519 0.930 . S
H524 C521 0.929 . S
S525 N526 1.613 . S
S525 N527 1.610 . S
N526 S525 1.613 . S
N526 C529 1.350 . S
N527 S525 1.610 . S
N527 C528 1.351 . S
C528 C522 1.428 . S
C528 N527 1.351 . S
C528 C529 1.434 . S
C529 C520 1.429 1_565 S
C529 N526 1.350 . S
C529 C528 1.434 . S
C530 C531 1.369 . S
C530 C532 1.419 . S
C530 H534 0.930 . S
C531 C530 1.369 . S
C531 C540 1.429 . S
C532 C530 1.419 . S
C532 C533 1.363 . S
C532 H535 0.929 . S
C533 C532 1.363 . S
C533 C539 1.428 . S
H534 C530 0.930 . S
H535 C532 0.929 . S
S536 N537 1.613 . S
S536 N538 1.610 . S
N537 S536 1.613 . S
N537 C540 1.350 . S
N538 S536 1.610 . S
N538 C539 1.351 . S
C539 C533 1.428 . S
C539 N538 1.351 . S
C539 C540 1.434 . S
C540 C531 1.429 . S
C540 N537 1.350 . S
C540 C539 1.434 . S
C541 C542 1.369 . S
C541 C543 1.419 . S
C541 H545 0.930 . S
C542 C541 1.369 . S
C542 C551 1.429 1_455 S
C543 C541 1.419 . S
C543 C544 1.363 . S
C543 H546 0.929 . S
C544 C543 1.363 . S
C544 C550 1.428 1_455 S
H545 C541 0.930 . S
H546 C543 0.929 . S
S547 N548 1.613 . S
S547 N549 1.610 . S
N548 S547 1.613 . S
N548 C551 1.350 . S
N549 S547 1.610 . S
N549 C550 1.351 . S
C550 C544 1.428 1_655 S
C550 N549 1.351 . S
C550 C551 1.434 . S
C551 C542 1.429 1_655 S
C551 N548 1.350 . S
C551 C550 1.434 . S
C355 C7 0.968 . S
C357 C331 1.050 . S
C366 C51 2.020 . S
C368 C258 1.958 . S
C377 C87 1.361 . S
C379 C297 1.402 . S
C388 C16 0.639 . S
C390 C336 0.557 . S
C401 C253 2.073 . S
C399 C42 2.176 . S
C412 C292 1.401 . S
C410 C96 1.385 . S
C421 C47 1.283 . S
C423 C180 1.309 . S
C432 C91 3.202 . S
C434 C214 3.130 . S
C443 C2 2.214 . S
C445 C136 2.130 . S
C456 C175 1.408 . S
C454 C56 1.371 . S
C467 C219 3.031 . S
C465 C82 3.096 . S
C476 C11 2.018 . S
C478 C141 1.962 . S
C489 C199 1.760 1_554 S
C487 C19 1.720 . S
C498 C50 1.342 . S
C500 C121 1.376 . S
C509 C99 1.459 . S
C511 C160 1.513 . S
C522 C277 1.495 . S
C520 C59 1.455 . S
C533 C316 1.127 . S
C531 C90 1.136 . S
C542 C10 1.336 . S
C544 C238 1.360 1_455 S
