# Generated by pormake.
# Topology pth, (4,4)-cn, num edge types: 1
# Building blocks:
#     Node 0, Type 0, BuildingBlock: GALJAG_clean_sbu_0, # of connection points: 4
#     Node 1, Type 0, BuildingBlock: GALJAG_clean_sbu_0, # of connection points: 4
#     Node 2, Type 0, BuildingBlock: GALJAG_clean_sbu_0, # of connection points: 4
#     Node 3, Type 1, BuildingBlock: MIFKUJ_clean_linker_1, # of connection points: 4
#     Node 4, Type 1, BuildingBlock: MIFKUJ_clean_linker_1, # of connection points: 4
#     Node 5, Type 1, BuildingBlock: MIFKUJ_clean_linker_1, # of connection points: 4
#     Edge 6, Type (0, 1), BuildingBlock: KIFKEQ_clean_linker_1, # of connection points: 2
#     Edge 7, Type (0, 1), BuildingBlock: KIFKEQ_clean_linker_1, # of connection points: 2
#     Edge 8, Type (0, 1), BuildingBlock: KIFKEQ_clean_linker_1, # of connection points: 2
#     Edge 9, Type (0, 1), BuildingBlock: KIFKEQ_clean_linker_1, # of connection points: 2
#     Edge 10, Type (0, 1), BuildingBlock: KIFKEQ_clean_linker_1, # of connection points: 2
#     Edge 11, Type (0, 1), BuildingBlock: KIFKEQ_clean_linker_1, # of connection points: 2
#     Edge 12, Type (0, 1), BuildingBlock: KIFKEQ_clean_linker_1, # of connection points: 2
#     Edge 13, Type (0, 1), BuildingBlock: KIFKEQ_clean_linker_1, # of connection points: 2
#     Edge 14, Type (0, 1), BuildingBlock: KIFKEQ_clean_linker_1, # of connection points: 2
#     Edge 15, Type (0, 1), BuildingBlock: KIFKEQ_clean_linker_1, # of connection points: 2
#     Edge 16, Type (0, 1), BuildingBlock: KIFKEQ_clean_linker_1, # of connection points: 2
#     Edge 17, Type (0, 1), BuildingBlock: KIFKEQ_clean_linker_1, # of connection points: 2
# Relax obj value: 0.002
# Max RMSD: 0.043
# Mean RMSD: 0.028
data_MOF--net-pth--node1-GALJAG_clean_sbu_0--node2-MIFKUJ_clean_linker_1--edge1-KIFKEQ_clean_linker_1
_symmetry_space_group_name_H-M    P1
_symmetry_Int_Tables_number       1
_symmetry_cell_setting            triclinic
loop_
_symmetry_equiv_pos_as_xyz
'x, y, z'
_cell_length_a     30.476396
_cell_length_b     30.477409
_cell_length_c     62.845432
_cell_angle_alpha  90.177332
_cell_angle_beta   90.122851
_cell_angle_gamma 120.03602
loop_
_atom_site_label
_atom_site_type_symbol
_atom_site_fract_x
_atom_site_fract_y
_atom_site_fract_z
_atom_type_partial_charge
In0 In 0.00713 0.00423 0.04097 0.0
O1 O 0.96466 0.03788 0.05824 0.0
O2 O 0.04347 0.06958 0.06458 0.0
C3 C 0.93568 0.93912 0.01345 0.0
C4 C 0.0768 0.0707 0.01376 0.0
C5 C 0.01459 0.94023 0.06848 0.0
O6 O 0.92792 0.96719 0.02585 0.0
O7 O 0.97933 0.94443 0.01482 0.0
O8 O 0.05013 0.96819 0.05604 0.0
O9 O 0.976 0.94511 0.06716 0.0
C10 C 0.00339 0.07083 0.06818 0.0
O11 O 0.08315 0.03831 0.02371 0.0
O12 O 0.03524 0.06897 0.01735 0.0
In13 In 0.00312 0.00449 0.37427 0.0
O14 O 0.03957 0.08738 0.36389 0.0
O15 O 0.97802 0.03191 0.34556 0.0
C16 C 0.07617 0.01037 0.40045 0.0
C17 C 0.92923 0.99708 0.40027 0.0
C18 C 0.99758 0.93125 0.3483 0.0
O19 O 0.08478 0.04365 0.3866 0.0
O20 O 0.03087 0.97454 0.40111 0.0
O21 O 0.96357 0.92301 0.36176 0.0
O22 O 0.03396 0.97631 0.34793 0.0
C23 C 0.01032 0.07809 0.34816 0.0
O24 O 0.92035 0.9665 0.38508 0.0
O25 O 0.97509 0.03082 0.40235 0.0
In26 In 0.00232 0.0018 0.70818 0.0
O27 O 0.97557 0.9289 0.72738 0.0
O28 O 0.92743 0.96066 0.72583 0.0
C29 C 0.06984 0.99554 0.68234 0.0
C30 C 0.93835 0.00915 0.68066 0.0
C31 C 0.06313 0.07565 0.73595 0.0
O32 O 0.03725 0.95798 0.69276 0.0
O33 O 0.06802 0.0356 0.68494 0.0
O34 O 0.0462 0.08465 0.71921 0.0
O35 O 0.04851 0.02949 0.7389 0.0
C36 C 0.93413 0.92567 0.73274 0.0
O37 O 0.95661 0.03789 0.6967 0.0
O38 O 0.95282 0.97716 0.67841 0.0
H39 H 0.08245 0.47072 0.17065 0.0
H40 H 0.08129 0.40235 0.14988 0.0
H41 H 0.92907 0.29981 0.17185 0.0
H42 H 0.93193 0.36798 0.19342 0.0
H43 H 0.01536 0.50943 0.16832 0.0
H44 H 0.07265 0.43089 0.21703 0.0
H45 H 0.07405 0.36442 0.23816 0.0
H46 H 0.9384 0.33832 0.27064 0.0
H47 H 0.93618 0.40387 0.24902 0.0
H48 H 0.92959 0.53184 0.24634 0.0
H49 H 0.92565 0.59719 0.26753 0.0
H50 H 0.06909 0.71029 0.24135 0.0
H51 H 0.07272 0.64474 0.22017 0.0
H52 H 0.99757 0.50029 0.24687 0.0
H53 H 0.93862 0.5765 0.19534 0.0
H54 H 0.94156 0.64601 0.17488 0.0
H55 H 0.08565 0.679 0.14843 0.0
H56 H 0.08314 0.61032 0.16943 0.0
C57 C 0.00741 0.42428 0.18361 0.0
C58 C 0.04895 0.43341 0.17098 0.0
C59 C 0.04799 0.39425 0.159 0.0
C60 C 0.00496 0.34531 0.15903 0.0
C61 C 0.96323 0.33657 0.17166 0.0
C62 C 0.96459 0.3756 0.18391 0.0
C63 C 0.00848 0.46584 0.19629 0.0
C64 C 0.01208 0.50777 0.18552 0.0
C65 C 0.0036 0.46319 0.21869 0.0
C66 C 0.0038 0.42191 0.23115 0.0
C67 C 0.04254 0.41018 0.22836 0.0
C68 C 0.04349 0.37236 0.24051 0.0
C69 C 0.00631 0.34623 0.25601 0.0
C70 C 0.96775 0.35817 0.25891 0.0
C71 C 0.96643 0.39554 0.24655 0.0
C72 C 1.00119 0.58345 0.23153 0.0
C73 C 0.96021 0.57072 0.2452 0.0
C74 C 0.95808 0.60808 0.25733 0.0
C75 C 0.99702 0.65896 0.2561 0.0
C76 C 0.0381 0.67159 0.24241 0.0
C77 C 0.04026 0.63416 0.23032 0.0
C78 C 0.00335 0.54339 0.21888 0.0
C79 C 1.00061 0.50182 0.22965 0.0
C80 C 0.00933 0.54649 0.1965 0.0
C81 C 0.0109 0.58855 0.18407 0.0
C82 C 0.97106 0.59903 0.18529 0.0
C83 C 0.97259 0.63848 0.17344 0.0
C84 C 0.01387 0.66807 0.16003 0.0
C85 C 0.05365 0.65737 0.15882 0.0
C86 C 0.05207 0.61788 0.17066 0.0
H87 H 0.6 0.0674 0.49937 0.0
H88 H 0.66495 0.06496 0.47758 0.0
H89 H 0.63901 0.92925 0.51009 0.0
H90 H 0.57235 0.93055 0.53109 0.0
H91 H 0.50315 0.00614 0.50195 0.0
H92 H 0.6404 0.06805 0.55053 0.0
H93 H 0.71009 0.07077 0.57083 0.0
H94 H 0.60371 0.93381 0.60353 0.0
H95 H 0.53446 0.93013 0.58246 0.0
H96 H 0.39453 0.92181 0.57909 0.0
H97 H 0.32679 0.91996 0.60065 0.0
H98 H 0.36368 0.06687 0.57626 0.0
H99 H 0.43185 0.06882 0.55501 0.0
H100 H 0.49755 0.99135 0.58059 0.0
H101 H 0.35973 0.93421 0.52956 0.0
H102 H 0.29461 0.93895 0.50854 0.0
H103 H 0.4091 0.08099 0.48185 0.0
H104 H 0.474 0.07598 0.50288 0.0
C105 C 0.58158 0.99946 0.51702 0.0
C106 C 0.60815 0.03699 0.50174 0.0
C107 C 0.64565 0.03581 0.48943 0.0
C108 C 0.65744 0.99704 0.49214 0.0
C109 C 0.6306 0.95937 0.50742 0.0
C110 C 0.59287 0.96042 0.51964 0.0
C111 C 0.54121 1.00049 0.52985 0.0
C112 C 0.50237 0.00362 0.51918 0.0
C113 C 0.53988 0.99676 0.55232 0.0
C114 C 0.58223 0.99849 0.56475 0.0
C115 C 0.63216 0.03823 0.56187 0.0
C116 C 0.67193 0.04007 0.57368 0.0
C117 C 0.66256 0.00248 0.58882 0.0
C118 C 0.61242 0.96294 0.59179 0.0
C119 C 0.57269 0.96102 0.57989 0.0
C120 C 0.41797 0.99529 0.56537 0.0
C121 C 0.38797 0.95359 0.5784 0.0
C122 C 0.34908 0.95241 0.59058 0.0
C123 C 0.33988 0.99323 0.59012 0.0
C124 C 0.37013 0.03504 0.57708 0.0
C125 C 0.40882 0.03605 0.56482 0.0
C126 C 0.45943 0.99645 0.55265 0.0
C127 C 0.4985 0.99384 0.56337 0.0
C128 C 0.46163 0.00191 0.53027 0.0
C129 C 0.42169 0.00496 0.51793 0.0
C130 C 0.3707 0.96665 0.51937 0.0
C131 C 0.33352 0.96944 0.50736 0.0
C132 C 0.34669 0.01038 0.49353 0.0
C133 C 0.3978 0.04867 0.49215 0.0
C134 C 0.4349 0.04592 0.5042 0.0
H135 H 0.46902 0.40071 0.83237 0.0
H136 H 0.39893 0.33506 0.81141 0.0
H137 H 0.29374 0.36573 0.8451 0.0
H138 H 0.36389 0.43204 0.86565 0.0
H139 H 0.50604 0.49838 0.83475 0.0
H140 H 0.44193 0.36627 0.88798 0.0
H141 H 0.377 0.29846 0.90955 0.0
H142 H 0.32891 0.40179 0.93244 0.0
H143 H 0.39589 0.46983 0.91171 0.0
H144 H 0.5363 0.60823 0.91264 0.0
H145 H 0.60348 0.6769 0.93353 0.0
H146 H 0.71289 0.64224 0.90641 0.0
H147 H 0.64519 0.5727 0.88597 0.0
H148 H 0.50269 0.50715 0.9135 0.0
H149 H 0.58638 0.64432 0.86391 0.0
H150 H 0.65638 0.70825 0.84267 0.0
H151 H 0.66819 0.59011 0.80983 0.0
H152 H 0.6001 0.52622 0.83184 0.0
C153 C 0.42174 0.42089 0.85082 0.0
C154 C 0.43088 0.39335 0.83523 0.0
C155 C 0.39086 0.35593 0.82325 0.0
C156 C 0.34088 0.34519 0.82669 0.0
C157 C 0.33176 0.37266 0.84234 0.0
C158 C 0.37184 0.41044 0.85414 0.0
C159 C 0.46451 0.46172 0.8631 0.0
C160 C 0.50586 0.49991 0.852 0.0
C161 C 0.46379 0.46421 0.88555 0.0
C162 C 0.42359 0.42294 0.89828 0.0
C163 C 0.41733 0.37413 0.8977 0.0
C164 C 0.37986 0.33531 0.90995 0.0
C165 C 0.3474 0.34435 0.92283 0.0
C166 C 0.35369 0.39343 0.92314 0.0
C167 C 0.39176 0.43241 0.91117 0.0
C168 C 0.5858 0.5856 0.89765 0.0
C169 C 0.57475 0.61537 0.91125 0.0
C170 C 0.61325 0.65487 0.92303 0.0
C171 C 0.66356 0.66518 0.92155 0.0
C172 C 0.67446 0.63502 0.90802 0.0
C173 C 0.63591 0.59553 0.89621 0.0
C174 C 0.54458 0.54391 0.88517 0.0
C175 C 0.5033 0.50559 0.89626 0.0
C176 C 0.54612 0.54097 0.86268 0.0
C177 C 0.58842 0.58031 0.84982 0.0
C178 C 0.60469 0.63208 0.85252 0.0
C179 C 0.64447 0.66859 0.84031 0.0
C180 C 0.66759 0.65391 0.82474 0.0
C181 C 0.65082 0.60224 0.82174 0.0
C182 C 0.61188 0.56582 0.83427 0.0
H183 H 0.92097 0.07006 0.08574 0.0
H184 H 0.08425 0.15871 0.08218 0.0
H185 H 0.92046 0.13567 0.10828 0.0
H186 H 0.08351 0.22443 0.1043 0.0
H187 H 0.04684 0.35256 0.11962 0.0
H188 H 0.04641 0.28524 0.09847 0.0
H189 H 0.9572 0.17605 0.14645 0.0
H190 H 0.9596 0.24357 0.16832 0.0
C191 C 0.95666 0.10348 0.08979 0.0
C192 C 0.00264 0.10935 0.08224 0.0
C193 C 0.95635 0.14082 0.10272 0.0
C194 C 0.00194 0.18504 0.10791 0.0
C195 C 0.04785 0.19081 0.10038 0.0
C196 C 0.04824 0.15312 0.08783 0.0
C197 C 0.02782 0.31446 0.12593 0.0
C198 C 0.00354 0.30383 0.14584 0.0
C199 C 0.02734 0.27588 0.11371 0.0
C200 C 0.0018 0.22561 0.12087 0.0
C201 C 0.97678 0.21453 0.14052 0.0
C202 C 0.978 0.25327 0.15296 0.0
H203 H 0.82663 0.9358 0.39624 0.0
H204 H 0.94166 0.05309 0.43592 0.0
H205 H 0.76081 0.9351 0.41858 0.0
H206 H 0.87621 0.05136 0.45863 0.0
H207 H 0.74864 0.07719 0.48002 0.0
H208 H 0.81312 0.07578 0.45779 0.0
H209 H 0.72273 0.9126 0.4532 0.0
H210 H 0.65687 0.91429 0.4745 0.0
C211 C 0.83781 0.96106 0.40986 0.0
C212 C 0.88923 0.99465 0.41429 0.0
C213 C 0.80014 0.9605 0.42274 0.0
C214 C 0.81317 0.99335 0.44037 0.0
C215 C 0.86475 0.02624 0.44496 0.0
C216 C 0.90231 0.027 0.43203 0.0
C217 C 0.74219 0.04104 0.47408 0.0
C218 C 0.69743 0.99588 0.47902 0.0
C219 C 0.77953 0.04015 0.46155 0.0
C220 C 0.77327 0.99404 0.45374 0.0
C221 C 0.7286 0.94883 0.45875 0.0
C222 C 0.69111 0.94975 0.47121 0.0
H223 H 0.83361 0.89356 0.73511 0.0
H224 H 0.9488 0.86481 0.76026 0.0
H225 H 0.76999 0.82575 0.75725 0.0
H226 H 0.88505 0.79774 0.78294 0.0
H227 H 0.75644 0.73593 0.83756 0.0
H228 H 0.82304 0.80044 0.81494 0.0
H229 H 0.7356 0.72335 0.75901 0.0
H230 H 0.66973 0.65821 0.78155 0.0
C231 C 0.84529 0.8728 0.74542 0.0
C232 C 0.89604 0.8843 0.74599 0.0
C233 C 0.80891 0.834 0.75799 0.0
C234 C 0.82283 0.80678 0.77173 0.0
C235 C 0.87361 0.81843 0.77247 0.0
C236 C 0.90987 0.85652 0.75948 0.0
C237 C 0.75177 0.73279 0.82042 0.0
C238 C 0.70819 0.69232 0.81121 0.0
C239 C 0.7898 0.76937 0.80755 0.0
C240 C 0.7842 0.7666 0.78532 0.0
C241 C 0.7406 0.72617 0.77613 0.0
C242 C 0.70315 0.68901 0.78897 0.0
H243 H 0.09005 0.91682 0.07212 0.0
H244 H 0.94381 0.87972 0.09736 0.0
H245 H 0.09073 0.85187 0.09461 0.0
H246 H 0.94494 0.8158 0.12013 0.0
H247 H 0.93589 0.66633 0.13778 0.0
H248 H 0.93758 0.73352 0.11632 0.0
H249 H 0.09618 0.83056 0.13148 0.0
H250 H 0.09449 0.76306 0.15292 0.0
C251 C 0.05832 0.89513 0.08262 0.0
C252 C 0.01679 0.90317 0.08291 0.0
C253 C 0.05878 0.85809 0.09557 0.0
C254 C 0.01774 0.82841 0.10908 0.0
C255 C 0.97674 0.83733 0.10964 0.0
C256 C 0.97624 0.87421 0.09669 0.0
C257 C 0.971 0.70217 0.13671 0.0
C258 C 0.01501 0.70937 0.14711 0.0
C259 C 0.97198 0.74073 0.12441 0.0
C260 C 0.01699 0.78753 0.12223 0.0
C261 C 0.06106 0.79476 0.1326 0.0
C262 C 0.06009 0.7561 0.1449 0.0
H263 H 0.06554 0.94263 0.43103 0.0
H264 H 0.17658 0.0827 0.40183 0.0
H265 H 0.13121 0.94431 0.45377 0.0
H266 H 0.2423 0.08497 0.42491 0.0
H267 H 0.35311 0.03734 0.4517 0.0
H268 H 0.28818 0.03934 0.42971 0.0
H269 H 0.18652 0.99063 0.48342 0.0
H270 H 0.25149 0.98848 0.50541 0.0
C271 C 0.10396 0.97398 0.42958 0.0
C272 C 0.11595 0.01249 0.41462 0.0
C273 C 0.14155 0.97512 0.44271 0.0
C274 C 0.19201 0.0148 0.44119 0.0
C275 C 0.20391 0.05355 0.42631 0.0
C276 C 0.16624 0.05242 0.41317 0.0
C277 C 0.31711 0.02761 0.45888 0.0
C278 C 0.30744 0.01267 0.4803 0.0
C279 C 0.27989 0.0288 0.44628 0.0
C280 C 0.23213 0.01511 0.4548 0.0
C281 C 0.22264 1.00065 0.47628 0.0
C282 C 0.25985 0.99941 0.48888 0.0
H283 H 0.09647 0.06443 0.77473 0.0
H284 H 0.11324 0.17779 0.72927 0.0
H285 H 0.1621 0.13045 0.7971 0.0
H286 H 0.17896 0.24384 0.75167 0.0
H287 H 0.33755 0.33164 0.78365 0.0
H288 H 0.26782 0.26715 0.7623 0.0
H289 H 0.17847 0.20637 0.81916 0.0
H290 H 0.24849 0.27062 0.84057 0.0
C291 C 0.11386 0.10351 0.76963 0.0
C292 C 0.09984 0.11599 0.75025 0.0
C293 C 0.15128 0.14129 0.78247 0.0
C294 C 0.17578 0.19223 0.77607 0.0
C295 C 0.16107 0.2048 0.75688 0.0
C296 C 0.12326 0.16707 0.74414 0.0
C297 C 0.30309 0.30434 0.79158 0.0
C298 C 0.29846 0.30605 0.81376 0.0
C299 C 0.26302 0.26779 0.77935 0.0
C300 C 0.21767 0.23186 0.78906 0.0
C301 C 0.21308 0.23345 0.81126 0.0
C302 C 0.25298 0.27037 0.82348 0.0
H303 H 0.89414 0.06762 0.68457 0.0
H304 H 0.89785 0.95451 0.64426 0.0
H305 H 0.82861 0.06677 0.66194 0.0
H306 H 0.83337 0.95462 0.62127 0.0
H307 H 0.67685 0.92382 0.60019 0.0
H308 H 0.74452 0.92705 0.622 0.0
H309 H 0.81303 0.08971 0.62733 0.0
H310 H 0.74393 0.08616 0.60641 0.0
C311 C 0.88134 0.043 0.67073 0.0
C312 C 0.90098 0.01101 0.66623 0.0
C313 C 0.84395 0.04268 0.65769 0.0
C314 C 0.82554 0.01048 0.63981 0.0
C315 C 0.84603 0.97924 0.63511 0.0
C316 C 0.88325 0.97942 0.6482 0.0
C317 C 0.70606 0.96023 0.60619 0.0
C318 C 0.70479 0.00469 0.60159 0.0
C319 C 0.74529 0.96218 0.61846 0.0
C320 C 0.78435 0.00867 0.62639 0.0
C321 C 0.7833 0.0532 0.62167 0.0
C322 C 0.74397 0.05123 0.60944 0.0
H323 H 0.83671 0.91527 0.00955 0.0
H324 H 0.94617 0.87802 0.98472 0.0
H325 H 0.77123 0.84987 0.9869 0.0
H326 H 0.88124 0.81362 0.96177 0.0
H327 H 0.74032 0.66381 0.94356 0.0
H328 H 0.80618 0.73134 0.96511 0.0
H329 H 0.74487 0.82834 0.95 0.0
H330 H 0.67874 0.76054 0.92852 0.0
C331 C 0.84686 0.89344 0.99911 0.0
C332 C 0.89648 0.90161 0.99896 0.0
C333 C 0.80943 0.85613 0.98605 0.0
C334 C 0.82092 0.82631 0.97258 0.0
C335 C 0.87087 0.83527 0.97221 0.0
C336 C 0.90818 0.87243 0.98526 0.0
C337 C 0.74121 0.69972 0.94466 0.0
C338 C 0.70431 0.7068 0.93432 0.0
C339 C 0.77898 0.73847 0.95701 0.0
C340 C 0.78087 0.78533 0.95927 0.0
C341 C 0.74408 0.79248 0.94885 0.0
C342 C 0.70622 0.75366 0.93652 0.0
H343 H 0.92436 0.83121 0.34657 0.0
H344 H 0.06654 0.94107 0.31844 0.0
H345 H 0.92227 0.76513 0.32375 0.0
H346 H 0.06498 0.87503 0.29595 0.0
H347 H 0.021 0.75472 0.2442 0.0
H348 H 0.01928 0.82019 0.26601 0.0
H349 H 0.9672 0.71821 0.31959 0.0
H350 H 0.96884 0.65278 0.29778 0.0
C351 C 0.95515 0.84121 0.33552 0.0
C352 C 0.99561 0.89128 0.33429 0.0
C353 C 0.95411 0.80334 0.32254 0.0
C354 C 0.99349 0.81479 0.30804 0.0
C355 C 0.03372 0.86503 0.30673 0.0
C356 C 0.03477 0.90283 0.31971 0.0
C357 C 0.00947 0.7464 0.26067 0.0
C358 C 0.99513 0.69857 0.26926 0.0
C359 C 0.00846 0.7839 0.27317 0.0
C360 C 0.99315 0.77445 0.29456 0.0
C361 C 0.97843 0.72648 0.30309 0.0
C362 C 0.97941 0.68898 0.29059 0.0
H363 H 0.08803 0.91691 0.67673 0.0
H364 H 0.13721 0.06979 0.65635 0.0
H365 H 0.15305 0.91558 0.65447 0.0
H366 H 0.20094 0.06806 0.6337 0.0
H367 H 0.34552 0.0701 0.61453 0.0
H368 H 0.27971 0.06936 0.63669 0.0
H369 H 0.17677 0.91423 0.61796 0.0
H370 H 0.24314 0.91488 0.59602 0.0
C371 C 0.11247 0.95004 0.66737 0.0
C372 C 0.10771 0.99352 0.66835 0.0
C373 C 0.14954 0.94923 0.65453 0.0
C374 C 0.18246 0.99183 0.64236 0.0
C375 C 0.17696 0.03494 0.64316 0.0
C376 C 0.14017 0.03582 0.65604 0.0
C377 C 0.30871 0.03598 0.61503 0.0
C378 C 0.29946 0.99262 0.60348 0.0
C379 C 0.27092 0.03553 0.62771 0.0
C380 C 0.22279 0.99179 0.62905 0.0
C381 C 0.21358 0.94833 0.61753 0.0
C382 C 0.25155 0.94871 0.60492 0.0
H383 H 0.15854 0.07039 0.99607 0.0
H384 H 0.08278 0.15788 0.99983 0.0
H385 H 0.22396 0.13582 0.97346 0.0
H386 H 0.14858 0.22346 0.97767 0.0
H387 H 0.31357 0.35202 0.96242 0.0
H388 H 0.2471 0.28492 0.98354 0.0
H389 H 0.22592 0.17524 0.93519 0.0
H390 H 0.29051 0.24253 0.91331 0.0
C391 C 0.15589 0.10352 0.99205 0.0
C392 C 0.11565 0.10911 0.99968 0.0
C393 C 0.19312 0.14075 0.97909 0.0
C394 C 0.19124 0.1846 0.97394 0.0
C395 C 0.15099 0.19011 0.98155 0.0
C396 C 0.11329 0.15251 0.99413 0.0
C397 C 0.2943 0.31387 0.956 0.0
C398 C 0.30749 0.30304 0.936 0.0
C399 C 0.25645 0.27541 0.96823 0.0
C400 C 0.23154 0.22506 0.96095 0.0
C401 C 0.24498 0.21379 0.9412 0.0
C402 C 0.28221 0.2524 0.92875 0.0
H403 H 0.06393 0.18058 0.35447 0.0
H404 H 0.96133 0.0656 0.3104 0.0
H405 H 0.06446 0.2462 0.33194 0.0
H406 H 0.96208 0.13114 0.28789 0.0
H407 H 0.0207 0.26881 0.24299 0.0
H408 H 0.02412 0.20458 0.26507 0.0
H409 H 0.99974 0.27161 0.32119 0.0
H410 H 0.99658 0.33594 0.29912 0.0
C411 C 0.04176 0.16939 0.33992 0.0
C412 C 0.01254 0.11803 0.33419 0.0
C413 C 0.04185 0.20687 0.32711 0.0
C414 C 0.01326 0.1937 0.30819 0.0
C415 C 0.9848 0.14239 0.30229 0.0
C416 C 0.9842 0.10491 0.31522 0.0
C417 C 0.01632 0.26988 0.26005 0.0
C418 C 0.00826 0.30723 0.26936 0.0
C419 C 0.01796 0.23302 0.27265 0.0
C420 C 0.01226 0.2332 0.29483 0.0
C421 C 0.00468 0.27084 0.30415 0.0
C422 C 0.0024 0.30731 0.29152 0.0
loop_
_geom_bond_atom_site_label_1
_geom_bond_atom_site_label_2
_geom_bond_distance
_geom_bond_site_symmetry_2
_ccdc_geom_bond_type
In0 O1 2.294 1_455 S
In0 O2 2.326 . S
In0 O6 2.266 1_445 S
In0 O7 2.326 1_445 S
In0 O8 2.266 1_545 S
In0 O9 2.326 1_445 S
In0 O11 2.294 . S
In0 O12 2.326 . S
O1 In0 2.294 1_655 S
O1 C10 1.240 1_655 S
O2 In0 2.326 . S
O2 C10 1.252 . S
C3 O6 1.252 . S
C3 O7 1.260 . S
C4 O11 1.240 . S
C4 O12 1.252 . S
C5 O8 1.239 1_655 S
C5 O9 1.281 . S
O6 In0 2.266 1_665 S
O6 C3 1.252 . S
O7 In0 2.326 1_665 S
O7 C3 1.260 . S
O8 In0 2.266 1_565 S
O8 C5 1.239 1_455 S
O9 In0 2.326 1_665 S
O9 C5 1.281 . S
C10 O1 1.240 1_455 S
C10 O2 1.252 . S
O11 In0 2.294 . S
O11 C4 1.240 . S
O12 In0 2.326 . S
O12 C4 1.252 . S
In13 O14 2.294 . S
In13 O15 2.326 1_455 S
In13 O19 2.266 . S
In13 O20 2.326 1_545 S
In13 O21 2.266 1_445 S
In13 O22 2.326 1_545 S
In13 O24 2.294 1_445 S
In13 O25 2.326 1_455 S
O14 In13 2.294 . S
O14 C23 1.240 1_455 S
O15 In13 2.326 1_655 S
O15 C23 1.252 . S
C16 O19 1.252 1_565 S
C16 O20 1.260 . S
C17 O24 1.240 1_545 S
C17 O25 1.252 . S
C18 O21 1.252 1_455 S
C18 O22 1.260 . S
O19 In13 2.266 . S
O19 C16 1.252 1_545 S
O20 In13 2.326 1_565 S
O20 C16 1.260 . S
O21 In13 2.266 1_665 S
O21 C18 1.252 1_655 S
O22 In13 2.326 1_565 S
O22 C18 1.260 . S
C23 O14 1.240 1_655 S
C23 O15 1.252 . S
O24 In13 2.294 1_665 S
O24 C17 1.240 1_565 S
O25 In13 2.326 1_655 S
O25 C17 1.252 . S
In26 O27 2.283 1_445 S
In26 O28 2.328 1_445 S
In26 O32 2.256 1_545 S
In26 O33 2.327 . S
In26 O34 2.277 . S
In26 O35 2.324 . S
In26 O37 2.304 1_455 S
In26 O38 2.325 1_445 S
O27 In26 2.283 1_665 S
O27 C36 1.240 . S
O28 In26 2.328 1_665 S
O28 C36 1.252 . S
C29 O32 1.252 1_545 S
C29 O33 1.260 . S
C30 O37 1.240 1_565 S
C30 O38 1.252 . S
C31 O34 1.252 . S
C31 O35 1.260 . S
O32 In26 2.256 1_565 S
O32 C29 1.252 1_565 S
O33 In26 2.327 . S
O33 C29 1.260 . S
O34 In26 2.277 . S
O34 C31 1.252 . S
O35 In26 2.324 . S
O35 C31 1.260 . S
C36 O27 1.240 . S
C36 O28 1.252 . S
O37 In26 2.304 1_655 S
O37 C30 1.240 1_545 S
O38 In26 2.325 1_665 S
O38 C30 1.252 . S
H39 C58 0.949 . S
H40 C59 0.950 . S
H41 C61 0.950 . S
H42 C62 0.950 . S
H43 C64 0.950 . S
H44 C67 0.950 . S
H45 C68 0.950 . S
H46 C70 0.951 . S
H47 C71 0.949 . S
H48 C73 0.949 . S
H49 C74 0.950 . S
H50 C76 0.950 . S
H51 C77 0.950 . S
H52 C79 0.950 . S
H53 C82 0.950 . S
H54 C83 0.950 . S
H55 C85 0.951 . S
H56 C86 0.949 . S
C57 C58 1.376 . S
C57 C62 1.386 1_455 S
C57 C63 1.483 . S
C58 H39 0.949 . S
C58 C57 1.376 . S
C58 C59 1.397 . S
C59 H40 0.950 . S
C59 C58 1.397 . S
C59 C60 1.391 . S
C60 C59 1.391 . S
C60 C61 1.405 1_455 S
C61 H41 0.950 . S
C61 C60 1.405 1_655 S
C61 C62 1.367 . S
C62 H42 0.950 . S
C62 C57 1.386 1_655 S
C62 C61 1.367 . S
C63 C57 1.483 . S
C63 C64 1.382 . S
C63 C65 1.403 1_455 S
C64 H43 0.950 . S
C64 C63 1.382 . S
C64 C80 1.411 . S
C65 C63 1.403 1_655 S
C65 C66 1.489 . S
C65 C79 1.411 . S
C66 C65 1.489 . S
C66 C67 1.383 1_655 S
C66 C71 1.382 . S
C67 H44 0.950 . S
C67 C66 1.383 1_455 S
C67 C68 1.395 . S
C68 H45 0.950 . S
C68 C67 1.395 . S
C68 C69 1.288 1_455 S
C69 C68 1.288 1_655 S
C69 C70 1.392 . S
C70 H46 0.951 . S
C70 C69 1.392 . S
C70 C71 1.392 . S
C71 H47 0.949 . S
C71 C66 1.382 . S
C71 C70 1.392 . S
C72 C73 1.376 . S
C72 C77 1.386 1_655 S
C72 C78 1.493 . S
C73 H48 0.949 . S
C73 C72 1.376 . S
C73 C74 1.397 . S
C74 H49 0.950 . S
C74 C73 1.397 . S
C74 C75 1.383 1_655 S
C75 C74 1.383 1_455 S
C75 C76 1.421 . S
C76 H50 0.950 . S
C76 C75 1.421 . S
C76 C77 1.367 . S
C77 H51 0.950 . S
C77 C72 1.386 1_455 S
C77 C76 1.367 . S
C78 C72 1.493 . S
C78 C79 1.373 . S
C78 C80 1.400 1_655 S
C79 H52 0.950 . S
C79 C65 1.411 . S
C79 C78 1.373 . S
C80 C64 1.411 . S
C80 C78 1.400 1_455 S
C80 C81 1.489 . S
C81 C80 1.489 . S
C81 C82 1.383 1_455 S
C81 C86 1.382 . S
C82 H53 0.950 . S
C82 C81 1.383 1_655 S
C82 C83 1.395 . S
C83 H54 0.950 . S
C83 C82 1.395 . S
C83 C84 1.288 1_655 S
C84 C83 1.288 1_455 S
C84 C85 1.392 . S
C85 H55 0.951 . S
C85 C84 1.392 . S
C85 C86 1.392 . S
C86 H56 0.949 . S
C86 C81 1.382 . S
C86 C85 1.392 . S
H87 C106 0.949 . S
H88 C107 0.950 . S
H89 C109 0.950 . S
H90 C110 0.950 . S
H91 C112 0.950 . S
H92 C115 0.950 . S
H93 C116 0.950 . S
H94 C118 0.951 . S
H95 C119 0.949 . S
H96 C121 0.949 . S
H97 C122 0.950 . S
H98 C124 0.950 . S
H99 C125 0.950 . S
H100 C127 0.950 . S
H101 C130 0.950 . S
H102 C131 0.950 . S
H103 C133 0.951 . S
H104 C134 0.949 . S
C105 C106 1.376 . S
C105 C110 1.386 1_545 S
C105 C111 1.483 . S
C106 H87 0.949 . S
C106 C105 1.376 . S
C106 C107 1.397 . S
C107 H88 0.950 . S
C107 C106 1.397 . S
C107 C108 1.391 . S
C108 C107 1.391 . S
C108 C109 1.405 1_545 S
C109 H89 0.950 . S
C109 C108 1.405 1_565 S
C109 C110 1.367 . S
C110 H90 0.950 . S
C110 C105 1.386 1_565 S
C110 C109 1.367 . S
C111 C105 1.483 . S
C111 C112 1.382 . S
C111 C113 1.403 1_545 S
C112 H91 0.950 . S
C112 C111 1.382 . S
C112 C128 1.411 . S
C113 C111 1.403 1_565 S
C113 C114 1.489 . S
C113 C127 1.411 . S
C114 C113 1.489 . S
C114 C115 1.383 1_565 S
C114 C119 1.382 . S
C115 H92 0.950 . S
C115 C114 1.383 1_545 S
C115 C116 1.395 . S
C116 H93 0.950 . S
C116 C115 1.395 . S
C116 C117 1.288 1_545 S
C117 C116 1.288 1_565 S
C117 C118 1.392 . S
C118 H94 0.951 . S
C118 C117 1.392 . S
C118 C119 1.392 . S
C119 H95 0.949 . S
C119 C114 1.382 . S
C119 C118 1.392 . S
C120 C121 1.376 . S
C120 C125 1.386 1_565 S
C120 C126 1.483 . S
C121 H96 0.949 . S
C121 C120 1.376 . S
C121 C122 1.397 . S
C122 H97 0.950 . S
C122 C121 1.397 . S
C122 C123 1.388 . S
C123 C122 1.388 . S
C123 C124 1.407 1_565 S
C124 H98 0.950 . S
C124 C123 1.407 1_545 S
C124 C125 1.367 . S
C125 H99 0.950 . S
C125 C120 1.386 1_545 S
C125 C124 1.367 . S
C126 C120 1.483 . S
C126 C127 1.382 . S
C126 C128 1.403 1_565 S
C127 H100 0.950 . S
C127 C113 1.411 . S
C127 C126 1.382 . S
C128 C112 1.411 . S
C128 C126 1.403 1_545 S
C128 C129 1.489 . S
C129 C128 1.489 . S
C129 C130 1.383 1_545 S
C129 C134 1.382 . S
C130 H101 0.950 . S
C130 C129 1.383 1_565 S
C130 C131 1.395 . S
C131 H102 0.950 . S
C131 C130 1.395 . S
C131 C132 1.288 1_565 S
C132 C131 1.288 1_545 S
C132 C133 1.392 . S
C133 H103 0.951 . S
C133 C132 1.392 . S
C133 C134 1.392 . S
C134 H104 0.949 . S
C134 C129 1.382 . S
C134 C133 1.392 . S
H135 C154 0.949 . S
H136 C155 0.950 . S
H137 C157 0.950 . S
H138 C158 0.950 . S
H139 C160 0.950 . S
H140 C163 0.950 . S
H141 C164 0.950 . S
H142 C166 0.951 . S
H143 C167 0.949 . S
H144 C169 0.949 . S
H145 C170 0.950 . S
H146 C172 0.950 . S
H147 C173 0.950 . S
H148 C175 0.950 . S
H149 C178 0.950 . S
H150 C179 0.950 . S
H151 C181 0.951 . S
H152 C182 0.949 . S
C153 C154 1.376 . S
C153 C158 1.386 . S
C153 C159 1.483 . S
C154 H135 0.949 . S
C154 C153 1.376 . S
C154 C155 1.397 . S
C155 H136 0.950 . S
C155 C154 1.397 . S
C155 C156 1.391 . S
C156 C155 1.391 . S
C156 C157 1.405 . S
C157 H137 0.950 . S
C157 C156 1.405 . S
C157 C158 1.367 . S
C158 H138 0.950 . S
C158 C153 1.386 . S
C158 C157 1.367 . S
C159 C153 1.483 . S
C159 C160 1.382 . S
C159 C161 1.403 . S
C160 H139 0.950 . S
C160 C159 1.382 . S
C160 C176 1.411 . S
C161 C159 1.403 . S
C161 C162 1.489 . S
C161 C175 1.411 . S
C162 C161 1.489 . S
C162 C163 1.383 . S
C162 C167 1.382 . S
C163 H140 0.950 . S
C163 C162 1.383 . S
C163 C164 1.395 . S
C164 H141 0.950 . S
C164 C163 1.395 . S
C164 C165 1.288 . S
C165 C164 1.288 . S
C165 C166 1.392 . S
C166 H142 0.951 . S
C166 C165 1.392 . S
C166 C167 1.392 . S
C167 H143 0.949 . S
C167 C162 1.382 . S
C167 C166 1.392 . S
C168 C169 1.376 . S
C168 C173 1.386 . S
C168 C174 1.483 . S
C169 H144 0.949 . S
C169 C168 1.376 . S
C169 C170 1.397 . S
C170 H145 0.950 . S
C170 C169 1.397 . S
C170 C171 1.391 . S
C171 C170 1.391 . S
C171 C172 1.405 . S
C172 H146 0.950 . S
C172 C171 1.405 . S
C172 C173 1.367 . S
C173 H147 0.950 . S
C173 C168 1.386 . S
C173 C172 1.367 . S
C174 C168 1.483 . S
C174 C175 1.382 . S
C174 C176 1.403 . S
C175 H148 0.950 . S
C175 C161 1.411 . S
C175 C174 1.382 . S
C176 C160 1.411 . S
C176 C174 1.403 . S
C176 C177 1.489 . S
C177 C176 1.489 . S
C177 C178 1.383 . S
C177 C182 1.382 . S
C178 H149 0.950 . S
C178 C177 1.383 . S
C178 C179 1.395 . S
C179 H150 0.950 . S
C179 C178 1.395 . S
C179 C180 1.288 . S
C180 C179 1.288 . S
C180 C181 1.392 . S
C181 H151 0.951 . S
C181 C180 1.392 . S
C181 C182 1.392 . S
C182 H152 0.949 . S
C182 C177 1.382 . S
C182 C181 1.392 . S
H183 C191 0.950 . S
H184 C196 0.950 . S
H185 C193 0.950 . S
H186 C195 0.950 . S
H187 C197 0.950 . S
H188 C199 0.950 . S
H189 C201 0.950 . S
H190 C202 0.950 . S
C191 H183 0.950 . S
C191 C192 1.386 1_655 S
C191 C193 1.391 . S
C192 C191 1.386 1_455 S
C192 C196 1.393 . S
C193 H185 0.950 . S
C193 C191 1.391 . S
C193 C194 1.400 1_655 S
C194 C193 1.400 1_455 S
C194 C195 1.398 . S
C194 C200 1.491 . S
C195 H186 0.950 . S
C195 C194 1.398 . S
C195 C196 1.391 . S
C196 H184 0.950 . S
C196 C192 1.393 . S
C196 C195 1.391 . S
C197 H187 0.950 . S
C197 C198 1.386 . S
C197 C199 1.391 . S
C198 C197 1.386 . S
C198 C202 1.393 1_455 S
C199 H188 0.950 . S
C199 C197 1.391 . S
C199 C200 1.400 . S
C200 C194 1.491 . S
C200 C199 1.400 . S
C200 C201 1.398 1_455 S
C201 H189 0.950 . S
C201 C200 1.398 1_655 S
C201 C202 1.391 . S
C202 H190 0.950 . S
C202 C198 1.393 1_655 S
C202 C201 1.391 . S
H203 C211 0.950 . S
H204 C216 0.950 . S
H205 C213 0.950 . S
H206 C215 0.950 . S
H207 C217 0.950 . S
H208 C219 0.950 . S
H209 C221 0.950 . S
H210 C222 0.950 . S
C211 H203 0.950 . S
C211 C212 1.386 1_565 S
C211 C213 1.391 . S
C212 C211 1.386 1_545 S
C212 C216 1.393 . S
C213 H205 0.950 . S
C213 C211 1.391 . S
C213 C214 1.400 1_565 S
C214 C213 1.400 1_545 S
C214 C215 1.398 . S
C214 C220 1.491 . S
C215 H206 0.950 . S
C215 C214 1.398 . S
C215 C216 1.391 . S
C216 H204 0.950 . S
C216 C212 1.393 . S
C216 C215 1.391 . S
C217 H207 0.950 . S
C217 C218 1.386 . S
C217 C219 1.391 . S
C218 C217 1.386 . S
C218 C222 1.393 1_545 S
C219 H208 0.950 . S
C219 C217 1.391 . S
C219 C220 1.400 . S
C220 C214 1.491 . S
C220 C219 1.400 . S
C220 C221 1.398 1_545 S
C221 H209 0.950 . S
C221 C220 1.398 1_565 S
C221 C222 1.391 . S
C222 H210 0.950 . S
C222 C218 1.393 1_565 S
C222 C221 1.391 . S
H223 C231 0.950 . S
H224 C236 0.950 . S
H225 C233 0.950 . S
H226 C235 0.950 . S
H227 C237 0.950 . S
H228 C239 0.950 . S
H229 C241 0.950 . S
H230 C242 0.950 . S
C231 H223 0.950 . S
C231 C232 1.386 . S
C231 C233 1.391 . S
C232 C231 1.386 . S
C232 C236 1.393 . S
C233 H225 0.950 . S
C233 C231 1.391 . S
C233 C234 1.400 . S
C234 C233 1.400 . S
C234 C235 1.398 . S
C234 C240 1.491 . S
C235 H226 0.950 . S
C235 C234 1.398 . S
C235 C236 1.391 . S
C236 H224 0.950 . S
C236 C232 1.393 . S
C236 C235 1.391 . S
C237 H227 0.950 . S
C237 C238 1.386 . S
C237 C239 1.391 . S
C238 C237 1.386 . S
C238 C242 1.393 . S
C239 H228 0.950 . S
C239 C237 1.391 . S
C239 C240 1.400 . S
C240 C234 1.491 . S
C240 C239 1.400 . S
C240 C241 1.398 . S
C241 H229 0.950 . S
C241 C240 1.398 . S
C241 C242 1.391 . S
C242 H230 0.950 . S
C242 C238 1.393 . S
C242 C241 1.391 . S
H243 C251 0.950 . S
H244 C256 0.950 . S
H245 C253 0.950 . S
H246 C255 0.950 . S
H247 C257 0.950 . S
H248 C259 0.950 . S
H249 C261 0.950 . S
H250 C262 0.950 . S
C251 H243 0.950 . S
C251 C252 1.383 1_455 S
C251 C253 1.391 . S
C252 C251 1.383 1_655 S
C252 C256 1.394 . S
C253 H245 0.950 . S
C253 C251 1.391 . S
C253 C254 1.400 . S
C254 C253 1.400 . S
C254 C255 1.398 1_455 S
C254 C260 1.491 . S
C255 H246 0.950 . S
C255 C254 1.398 1_655 S
C255 C256 1.391 . S
C256 H244 0.950 . S
C256 C252 1.394 . S
C256 C255 1.391 . S
C257 H247 0.950 . S
C257 C258 1.386 1_655 S
C257 C259 1.391 . S
C258 C257 1.386 1_455 S
C258 C262 1.393 . S
C259 H248 0.950 . S
C259 C257 1.391 . S
C259 C260 1.400 1_655 S
C260 C254 1.491 . S
C260 C259 1.400 1_455 S
C260 C261 1.398 . S
C261 H249 0.950 . S
C261 C260 1.398 . S
C261 C262 1.391 . S
C262 H250 0.950 . S
C262 C258 1.393 . S
C262 C261 1.391 . S
H263 C271 0.950 . S
H264 C276 0.950 . S
H265 C273 0.950 . S
H266 C275 0.950 . S
H267 C277 0.950 . S
H268 C279 0.950 . S
H269 C281 0.950 . S
H270 C282 0.950 . S
C271 H263 0.950 . S
C271 C272 1.386 1_545 S
C271 C273 1.391 . S
C272 C271 1.386 1_565 S
C272 C276 1.393 . S
C273 H265 0.950 . S
C273 C271 1.391 . S
C273 C274 1.387 1_545 S
C274 C273 1.387 1_565 S
C274 C275 1.404 . S
C274 C280 1.499 1_565 S
C275 H266 0.950 . S
C275 C274 1.404 . S
C275 C276 1.391 . S
C276 H264 0.950 . S
C276 C272 1.393 . S
C276 C275 1.391 . S
C277 H267 0.950 . S
C277 C278 1.386 1_565 S
C277 C279 1.391 . S
C278 C277 1.386 1_545 S
C278 C282 1.393 . S
C279 H268 0.950 . S
C279 C277 1.391 . S
C279 C280 1.400 1_565 S
C280 C274 1.499 1_545 S
C280 C279 1.400 1_545 S
C280 C281 1.398 . S
C281 H269 0.950 . S
C281 C280 1.398 . S
C281 C282 1.391 . S
C282 H270 0.950 . S
C282 C278 1.393 . S
C282 C281 1.391 . S
H283 C291 0.950 . S
H284 C296 0.950 . S
H285 C293 0.950 . S
H286 C295 0.950 . S
H287 C297 0.950 . S
H288 C299 0.950 . S
H289 C301 0.950 . S
H290 C302 0.950 . S
C291 H283 0.950 . S
C291 C292 1.386 . S
C291 C293 1.391 . S
C292 C291 1.386 . S
C292 C296 1.393 . S
C293 H285 0.950 . S
C293 C291 1.391 . S
C293 C294 1.400 . S
C294 C293 1.400 . S
C294 C295 1.398 . S
C294 C300 1.491 . S
C295 H286 0.950 . S
C295 C294 1.398 . S
C295 C296 1.391 . S
C296 H284 0.950 . S
C296 C292 1.393 . S
C296 C295 1.391 . S
C297 H287 0.950 . S
C297 C298 1.386 . S
C297 C299 1.391 . S
C298 C297 1.386 . S
C298 C302 1.393 . S
C299 H288 0.950 . S
C299 C297 1.391 . S
C299 C300 1.400 . S
C300 C294 1.491 . S
C300 C299 1.400 . S
C300 C301 1.398 . S
C301 H289 0.950 . S
C301 C300 1.398 . S
C301 C302 1.391 . S
C302 H290 0.950 . S
C302 C298 1.393 . S
C302 C301 1.391 . S
H303 C311 0.950 . S
H304 C316 0.950 . S
H305 C313 0.950 . S
H306 C315 0.950 . S
H307 C317 0.950 . S
H308 C319 0.950 . S
H309 C321 0.950 . S
H310 C322 0.950 . S
C311 H303 0.950 . S
C311 C312 1.386 1_545 S
C311 C313 1.391 . S
C312 C311 1.386 1_565 S
C312 C316 1.393 . S
C313 H305 0.950 . S
C313 C311 1.391 . S
C313 C314 1.400 1_545 S
C314 C313 1.400 1_565 S
C314 C315 1.398 . S
C314 C320 1.491 . S
C315 H306 0.950 . S
C315 C314 1.398 . S
C315 C316 1.391 . S
C316 H304 0.950 . S
C316 C312 1.393 . S
C316 C315 1.391 . S
C317 H307 0.950 . S
C317 C318 1.381 1_565 S
C317 C319 1.391 . S
C318 C317 1.381 1_545 S
C318 C322 1.396 . S
C319 H308 0.950 . S
C319 C317 1.391 . S
C319 C320 1.400 . S
C320 C314 1.491 . S
C320 C319 1.400 . S
C320 C321 1.398 1_565 S
C321 H309 0.950 . S
C321 C320 1.398 1_545 S
C321 C322 1.391 . S
C322 H310 0.950 . S
C322 C318 1.396 . S
C322 C321 1.391 . S
H323 C331 0.950 1_554 S
H324 C336 0.950 . S
H325 C333 0.950 . S
H326 C335 0.950 . S
H327 C337 0.950 . S
H328 C339 0.950 . S
H329 C341 0.950 . S
H330 C342 0.950 . S
C331 H323 0.950 1_556 S
C331 C332 1.385 1_556 S
C331 C333 1.391 . S
C332 C331 1.385 1_554 S
C332 C336 1.391 1_554 S
C333 H325 0.950 . S
C333 C331 1.391 . S
C333 C334 1.400 . S
C334 C333 1.400 . S
C334 C335 1.398 . S
C334 C340 1.491 . S
C335 H326 0.950 . S
C335 C334 1.398 . S
C335 C336 1.391 . S
C336 H324 0.950 . S
C336 C332 1.391 1_556 S
C336 C335 1.391 . S
C337 H327 0.950 . S
C337 C338 1.386 . S
C337 C339 1.391 . S
C338 C337 1.386 . S
C338 C342 1.393 . S
C339 H328 0.950 . S
C339 C337 1.391 . S
C339 C340 1.400 . S
C340 C334 1.491 . S
C340 C339 1.400 . S
C340 C341 1.398 . S
C341 H329 0.950 . S
C341 C340 1.398 . S
C341 C342 1.391 . S
C342 H330 0.950 . S
C342 C338 1.393 . S
C342 C341 1.391 . S
H343 C351 0.950 . S
H344 C356 0.950 . S
H345 C353 0.950 . S
H346 C355 0.950 . S
H347 C357 0.950 . S
H348 C359 0.950 . S
H349 C361 0.950 . S
H350 C362 0.950 . S
C351 H343 0.950 . S
C351 C352 1.386 1_655 S
C351 C353 1.391 . S
C352 C351 1.386 1_455 S
C352 C356 1.393 . S
C353 H345 0.950 . S
C353 C351 1.391 . S
C353 C354 1.400 1_655 S
C354 C353 1.400 1_455 S
C354 C355 1.398 . S
C354 C360 1.491 . S
C355 H346 0.950 . S
C355 C354 1.398 . S
C355 C356 1.391 . S
C356 H344 0.950 . S
C356 C352 1.393 . S
C356 C355 1.391 . S
C357 H347 0.950 . S
C357 C358 1.386 . S
C357 C359 1.391 . S
C358 C357 1.386 . S
C358 C362 1.393 1_455 S
C359 H348 0.950 . S
C359 C357 1.391 . S
C359 C360 1.400 . S
C360 C354 1.491 . S
C360 C359 1.400 . S
C360 C361 1.398 1_455 S
C361 H349 0.950 . S
C361 C360 1.398 1_655 S
C361 C362 1.391 . S
C362 H350 0.950 . S
C362 C358 1.393 1_655 S
C362 C361 1.391 . S
H363 C371 0.950 . S
H364 C376 0.950 . S
H365 C373 0.950 . S
H366 C375 0.950 . S
H367 C377 0.950 . S
H368 C379 0.950 . S
H369 C381 0.950 . S
H370 C382 0.950 . S
C371 H363 0.950 . S
C371 C372 1.386 1_565 S
C371 C373 1.391 . S
C372 C371 1.386 1_545 S
C372 C376 1.393 . S
C373 H365 0.950 . S
C373 C371 1.391 . S
C373 C374 1.400 1_565 S
C374 C373 1.400 1_545 S
C374 C375 1.398 . S
C374 C380 1.491 . S
C375 H366 0.950 . S
C375 C374 1.398 . S
C375 C376 1.391 . S
C376 H364 0.950 . S
C376 C372 1.393 . S
C376 C375 1.391 . S
C377 H367 0.950 . S
C377 C378 1.396 . S
C377 C379 1.391 . S
C378 C377 1.396 . S
C378 C382 1.389 1_545 S
C379 H368 0.950 . S
C379 C377 1.391 . S
C379 C380 1.400 . S
C380 C374 1.491 . S
C380 C379 1.400 . S
C380 C381 1.398 1_545 S
C381 H369 0.950 . S
C381 C380 1.398 1_565 S
C381 C382 1.391 . S
C382 H370 0.950 . S
C382 C378 1.389 1_565 S
C382 C381 1.391 . S
H383 C391 0.950 . S
H384 C396 0.950 . S
H385 C393 0.950 . S
H386 C395 0.950 . S
H387 C397 0.950 . S
H388 C399 0.950 . S
H389 C401 0.950 . S
H390 C402 0.950 . S
C391 H383 0.950 . S
C391 C392 1.382 1_556 S
C391 C393 1.391 . S
C392 C391 1.382 1_554 S
C392 C396 1.393 . S
C393 H385 0.950 . S
C393 C391 1.391 . S
C393 C394 1.400 . S
C394 C393 1.400 . S
C394 C395 1.398 . S
C394 C400 1.491 . S
C395 H386 0.950 . S
C395 C394 1.398 . S
C395 C396 1.391 1_556 S
C396 H384 0.950 . S
C396 C392 1.393 . S
C396 C395 1.391 1_554 S
C397 H387 0.950 . S
C397 C398 1.386 . S
C397 C399 1.391 . S
C398 C397 1.386 . S
C398 C402 1.393 . S
C399 H388 0.950 . S
C399 C397 1.391 . S
C399 C400 1.400 . S
C400 C394 1.491 . S
C400 C399 1.400 . S
C400 C401 1.398 . S
C401 H389 0.950 . S
C401 C400 1.398 . S
C401 C402 1.391 . S
C402 H390 0.950 . S
C402 C398 1.393 . S
C402 C401 1.391 . S
H403 C411 0.950 . S
H404 C416 0.950 . S
H405 C413 0.950 . S
H406 C415 0.950 . S
H407 C417 0.950 . S
H408 C419 0.950 . S
H409 C421 0.950 . S
H410 C422 0.950 . S
C411 H403 0.950 . S
C411 C412 1.389 1_455 S
C411 C413 1.391 . S
C412 C411 1.389 1_655 S
C412 C416 1.398 . S
C413 H405 0.950 . S
C413 C411 1.391 . S
C413 C414 1.400 . S
C414 C413 1.400 . S
C414 C415 1.398 1_455 S
C414 C420 1.483 1_455 S
C415 H406 0.950 . S
C415 C414 1.398 1_655 S
C415 C416 1.391 . S
C416 H404 0.950 . S
C416 C412 1.398 . S
C416 C415 1.391 . S
C417 H407 0.950 . S
C417 C418 1.386 1_655 S
C417 C419 1.391 . S
C418 C417 1.386 1_455 S
C418 C422 1.394 . S
C419 H408 0.950 . S
C419 C417 1.391 . S
C419 C420 1.405 . S
C420 C414 1.483 1_655 S
C420 C419 1.405 . S
C420 C421 1.402 1_655 S
C421 H409 0.950 . S
C421 C420 1.402 1_455 S
C421 C422 1.391 . S
C422 H410 0.950 . S
C422 C418 1.394 . S
C422 C421 1.391 . S
C198 C60 1.535 . S
C192 C10 1.535 . S
C212 C17 1.535 . S
C218 C108 1.533 . S
C232 C36 1.534 . S
C238 C180 1.535 . S
C252 C5 1.529 . S
C258 C84 1.530 . S
C278 C132 1.527 . S
C272 C16 1.536 . S
C292 C31 1.535 . S
C298 C156 1.535 . S
C318 C117 1.527 1_545 S
C312 C30 1.535 . S
C332 C3 1.538 . S
C338 C171 1.535 . S
C358 C75 1.529 . S
C352 C18 1.536 . S
C378 C123 1.529 1_545 S
C372 C29 1.536 . S
C398 C165 1.531 . S
C392 C4 1.539 . S
C412 C23 1.526 . S
C418 C69 1.522 1_455 S
