# Generated by pormake.
# Topology tbo, (3,4)-cn, num edge types: 1
# Building blocks:
#     Node 0, Type 0, BuildingBlock: BELTOD_clean_linker_0, # of connection points: 3
#     Node 1, Type 0, BuildingBlock: BELTOD_clean_linker_0, # of connection points: 3
#     Node 2, Type 0, BuildingBlock: BELTOD_clean_linker_0, # of connection points: 3
#     Node 3, Type 0, BuildingBlock: BELTOD_clean_linker_0, # of connection points: 3
#     Node 4, Type 0, BuildingBlock: BELTOD_clean_linker_0, # of connection points: 3
#     Node 5, Type 0, BuildingBlock: BELTOD_clean_linker_0, # of connection points: 3
#     Node 6, Type 0, BuildingBlock: BELTOD_clean_linker_0, # of connection points: 3
#     Node 7, Type 0, BuildingBlock: BELTOD_clean_linker_0, # of connection points: 3
#     Node 8, Type 0, BuildingBlock: BELTOD_clean_linker_0, # of connection points: 3
#     Node 9, Type 0, BuildingBlock: BELTOD_clean_linker_0, # of connection points: 3
#     Node 10, Type 0, BuildingBlock: BELTOD_clean_linker_0, # of connection points: 3
#     Node 11, Type 0, BuildingBlock: BELTOD_clean_linker_0, # of connection points: 3
#     Node 12, Type 0, BuildingBlock: BELTOD_clean_linker_0, # of connection points: 3
#     Node 13, Type 0, BuildingBlock: BELTOD_clean_linker_0, # of connection points: 3
#     Node 14, Type 0, BuildingBlock: BELTOD_clean_linker_0, # of connection points: 3
#     Node 15, Type 0, BuildingBlock: BELTOD_clean_linker_0, # of connection points: 3
#     Node 16, Type 0, BuildingBlock: BELTOD_clean_linker_0, # of connection points: 3
#     Node 17, Type 0, BuildingBlock: BELTOD_clean_linker_0, # of connection points: 3
#     Node 18, Type 0, BuildingBlock: BELTOD_clean_linker_0, # of connection points: 3
#     Node 19, Type 0, BuildingBlock: BELTOD_clean_linker_0, # of connection points: 3
#     Node 20, Type 0, BuildingBlock: BELTOD_clean_linker_0, # of connection points: 3
#     Node 21, Type 0, BuildingBlock: BELTOD_clean_linker_0, # of connection points: 3
#     Node 22, Type 0, BuildingBlock: BELTOD_clean_linker_0, # of connection points: 3
#     Node 23, Type 0, BuildingBlock: BELTOD_clean_linker_0, # of connection points: 3
#     Node 24, Type 0, BuildingBlock: BELTOD_clean_linker_0, # of connection points: 3
#     Node 25, Type 0, BuildingBlock: BELTOD_clean_linker_0, # of connection points: 3
#     Node 26, Type 0, BuildingBlock: BELTOD_clean_linker_0, # of connection points: 3
#     Node 27, Type 0, BuildingBlock: BELTOD_clean_linker_0, # of connection points: 3
#     Node 28, Type 0, BuildingBlock: BELTOD_clean_linker_0, # of connection points: 3
#     Node 29, Type 0, BuildingBlock: BELTOD_clean_linker_0, # of connection points: 3
#     Node 30, Type 0, BuildingBlock: BELTOD_clean_linker_0, # of connection points: 3
#     Node 31, Type 0, BuildingBlock: BELTOD_clean_linker_0, # of connection points: 3
#     Node 32, Type 1, BuildingBlock: ESEHIV_clean_sbu_0, # of connection points: 4
#     Node 33, Type 1, BuildingBlock: ESEHIV_clean_sbu_0, # of connection points: 4
#     Node 34, Type 1, BuildingBlock: ESEHIV_clean_sbu_0, # of connection points: 4
#     Node 35, Type 1, BuildingBlock: ESEHIV_clean_sbu_0, # of connection points: 4
#     Node 36, Type 1, BuildingBlock: ESEHIV_clean_sbu_0, # of connection points: 4
#     Node 37, Type 1, BuildingBlock: ESEHIV_clean_sbu_0, # of connection points: 4
#     Node 38, Type 1, BuildingBlock: ESEHIV_clean_sbu_0, # of connection points: 4
#     Node 39, Type 1, BuildingBlock: ESEHIV_clean_sbu_0, # of connection points: 4
#     Node 40, Type 1, BuildingBlock: ESEHIV_clean_sbu_0, # of connection points: 4
#     Node 41, Type 1, BuildingBlock: ESEHIV_clean_sbu_0, # of connection points: 4
#     Node 42, Type 1, BuildingBlock: ESEHIV_clean_sbu_0, # of connection points: 4
#     Node 43, Type 1, BuildingBlock: ESEHIV_clean_sbu_0, # of connection points: 4
#     Node 44, Type 1, BuildingBlock: ESEHIV_clean_sbu_0, # of connection points: 4
#     Node 45, Type 1, BuildingBlock: ESEHIV_clean_sbu_0, # of connection points: 4
#     Node 46, Type 1, BuildingBlock: ESEHIV_clean_sbu_0, # of connection points: 4
#     Node 47, Type 1, BuildingBlock: ESEHIV_clean_sbu_0, # of connection points: 4
#     Node 48, Type 1, BuildingBlock: ESEHIV_clean_sbu_0, # of connection points: 4
#     Node 49, Type 1, BuildingBlock: ESEHIV_clean_sbu_0, # of connection points: 4
#     Node 50, Type 1, BuildingBlock: ESEHIV_clean_sbu_0, # of connection points: 4
#     Node 51, Type 1, BuildingBlock: ESEHIV_clean_sbu_0, # of connection points: 4
#     Node 52, Type 1, BuildingBlock: ESEHIV_clean_sbu_0, # of connection points: 4
#     Node 53, Type 1, BuildingBlock: ESEHIV_clean_sbu_0, # of connection points: 4
#     Node 54, Type 1, BuildingBlock: ESEHIV_clean_sbu_0, # of connection points: 4
#     Node 55, Type 1, BuildingBlock: ESEHIV_clean_sbu_0, # of connection points: 4
#     Edge 56, Type (0, 1), BuildingBlock: KIFKEQ_clean_linker_1, # of connection points: 2
#     Edge 57, Type (0, 1), BuildingBlock: KIFKEQ_clean_linker_1, # of connection points: 2
#     Edge 58, Type (0, 1), BuildingBlock: KIFKEQ_clean_linker_1, # of connection points: 2
#     Edge 59, Type (0, 1), BuildingBlock: KIFKEQ_clean_linker_1, # of connection points: 2
#     Edge 60, Type (0, 1), BuildingBlock: KIFKEQ_clean_linker_1, # of connection points: 2
#     Edge 61, Type (0, 1), BuildingBlock: KIFKEQ_clean_linker_1, # of connection points: 2
#     Edge 62, Type (0, 1), BuildingBlock: KIFKEQ_clean_linker_1, # of connection points: 2
#     Edge 63, Type (0, 1), BuildingBlock: KIFKEQ_clean_linker_1, # of connection points: 2
#     Edge 64, Type (0, 1), BuildingBlock: KIFKEQ_clean_linker_1, # of connection points: 2
#     Edge 65, Type (0, 1), BuildingBlock: KIFKEQ_clean_linker_1, # of connection points: 2
#     Edge 66, Type (0, 1), BuildingBlock: KIFKEQ_clean_linker_1, # of connection points: 2
#     Edge 67, Type (0, 1), BuildingBlock: KIFKEQ_clean_linker_1, # of connection points: 2
#     Edge 68, Type (0, 1), BuildingBlock: KIFKEQ_clean_linker_1, # of connection points: 2
#     Edge 69, Type (0, 1), BuildingBlock: KIFKEQ_clean_linker_1, # of connection points: 2
#     Edge 70, Type (0, 1), BuildingBlock: KIFKEQ_clean_linker_1, # of connection points: 2
#     Edge 71, Type (0, 1), BuildingBlock: KIFKEQ_clean_linker_1, # of connection points: 2
#     Edge 72, Type (0, 1), BuildingBlock: KIFKEQ_clean_linker_1, # of connection points: 2
#     Edge 73, Type (0, 1), BuildingBlock: KIFKEQ_clean_linker_1, # of connection points: 2
#     Edge 74, Type (0, 1), BuildingBlock: KIFKEQ_clean_linker_1, # of connection points: 2
#     Edge 75, Type (0, 1), BuildingBlock: KIFKEQ_clean_linker_1, # of connection points: 2
#     Edge 76, Type (0, 1), BuildingBlock: KIFKEQ_clean_linker_1, # of connection points: 2
#     Edge 77, Type (0, 1), BuildingBlock: KIFKEQ_clean_linker_1, # of connection points: 2
#     Edge 78, Type (0, 1), BuildingBlock: KIFKEQ_clean_linker_1, # of connection points: 2
#     Edge 79, Type (0, 1), BuildingBlock: KIFKEQ_clean_linker_1, # of connection points: 2
#     Edge 80, Type (0, 1), BuildingBlock: KIFKEQ_clean_linker_1, # of connection points: 2
#     Edge 81, Type (0, 1), BuildingBlock: KIFKEQ_clean_linker_1, # of connection points: 2
#     Edge 82, Type (0, 1), BuildingBlock: KIFKEQ_clean_linker_1, # of connection points: 2
#     Edge 83, Type (0, 1), BuildingBlock: KIFKEQ_clean_linker_1, # of connection points: 2
#     Edge 84, Type (0, 1), BuildingBlock: KIFKEQ_clean_linker_1, # of connection points: 2
#     Edge 85, Type (0, 1), BuildingBlock: KIFKEQ_clean_linker_1, # of connection points: 2
#     Edge 86, Type (0, 1), BuildingBlock: KIFKEQ_clean_linker_1, # of connection points: 2
#     Edge 87, Type (0, 1), BuildingBlock: KIFKEQ_clean_linker_1, # of connection points: 2
#     Edge 88, Type (0, 1), BuildingBlock: KIFKEQ_clean_linker_1, # of connection points: 2
#     Edge 89, Type (0, 1), BuildingBlock: KIFKEQ_clean_linker_1, # of connection points: 2
#     Edge 90, Type (0, 1), BuildingBlock: KIFKEQ_clean_linker_1, # of connection points: 2
#     Edge 91, Type (0, 1), BuildingBlock: KIFKEQ_clean_linker_1, # of connection points: 2
#     Edge 92, Type (0, 1), BuildingBlock: KIFKEQ_clean_linker_1, # of connection points: 2
#     Edge 93, Type (0, 1), BuildingBlock: KIFKEQ_clean_linker_1, # of connection points: 2
#     Edge 94, Type (0, 1), BuildingBlock: KIFKEQ_clean_linker_1, # of connection points: 2
#     Edge 95, Type (0, 1), BuildingBlock: KIFKEQ_clean_linker_1, # of connection points: 2
#     Edge 96, Type (0, 1), BuildingBlock: KIFKEQ_clean_linker_1, # of connection points: 2
#     Edge 97, Type (0, 1), BuildingBlock: KIFKEQ_clean_linker_1, # of connection points: 2
#     Edge 98, Type (0, 1), BuildingBlock: KIFKEQ_clean_linker_1, # of connection points: 2
#     Edge 99, Type (0, 1), BuildingBlock: KIFKEQ_clean_linker_1, # of connection points: 2
#     Edge 100, Type (0, 1), BuildingBlock: KIFKEQ_clean_linker_1, # of connection points: 2
#     Edge 101, Type (0, 1), BuildingBlock: KIFKEQ_clean_linker_1, # of connection points: 2
#     Edge 102, Type (0, 1), BuildingBlock: KIFKEQ_clean_linker_1, # of connection points: 2
#     Edge 103, Type (0, 1), BuildingBlock: KIFKEQ_clean_linker_1, # of connection points: 2
#     Edge 104, Type (0, 1), BuildingBlock: KIFKEQ_clean_linker_1, # of connection points: 2
#     Edge 105, Type (0, 1), BuildingBlock: KIFKEQ_clean_linker_1, # of connection points: 2
#     Edge 106, Type (0, 1), BuildingBlock: KIFKEQ_clean_linker_1, # of connection points: 2
#     Edge 107, Type (0, 1), BuildingBlock: KIFKEQ_clean_linker_1, # of connection points: 2
#     Edge 108, Type (0, 1), BuildingBlock: KIFKEQ_clean_linker_1, # of connection points: 2
#     Edge 109, Type (0, 1), BuildingBlock: KIFKEQ_clean_linker_1, # of connection points: 2
#     Edge 110, Type (0, 1), BuildingBlock: KIFKEQ_clean_linker_1, # of connection points: 2
#     Edge 111, Type (0, 1), BuildingBlock: KIFKEQ_clean_linker_1, # of connection points: 2
#     Edge 112, Type (0, 1), BuildingBlock: KIFKEQ_clean_linker_1, # of connection points: 2
#     Edge 113, Type (0, 1), BuildingBlock: KIFKEQ_clean_linker_1, # of connection points: 2
#     Edge 114, Type (0, 1), BuildingBlock: KIFKEQ_clean_linker_1, # of connection points: 2
#     Edge 115, Type (0, 1), BuildingBlock: KIFKEQ_clean_linker_1, # of connection points: 2
#     Edge 116, Type (0, 1), BuildingBlock: KIFKEQ_clean_linker_1, # of connection points: 2
#     Edge 117, Type (0, 1), BuildingBlock: KIFKEQ_clean_linker_1, # of connection points: 2
#     Edge 118, Type (0, 1), BuildingBlock: KIFKEQ_clean_linker_1, # of connection points: 2
#     Edge 119, Type (0, 1), BuildingBlock: KIFKEQ_clean_linker_1, # of connection points: 2
#     Edge 120, Type (0, 1), BuildingBlock: KIFKEQ_clean_linker_1, # of connection points: 2
#     Edge 121, Type (0, 1), BuildingBlock: KIFKEQ_clean_linker_1, # of connection points: 2
#     Edge 122, Type (0, 1), BuildingBlock: KIFKEQ_clean_linker_1, # of connection points: 2
#     Edge 123, Type (0, 1), BuildingBlock: KIFKEQ_clean_linker_1, # of connection points: 2
#     Edge 124, Type (0, 1), BuildingBlock: KIFKEQ_clean_linker_1, # of connection points: 2
#     Edge 125, Type (0, 1), BuildingBlock: KIFKEQ_clean_linker_1, # of connection points: 2
#     Edge 126, Type (0, 1), BuildingBlock: KIFKEQ_clean_linker_1, # of connection points: 2
#     Edge 127, Type (0, 1), BuildingBlock: KIFKEQ_clean_linker_1, # of connection points: 2
#     Edge 128, Type (0, 1), BuildingBlock: KIFKEQ_clean_linker_1, # of connection points: 2
#     Edge 129, Type (0, 1), BuildingBlock: KIFKEQ_clean_linker_1, # of connection points: 2
#     Edge 130, Type (0, 1), BuildingBlock: KIFKEQ_clean_linker_1, # of connection points: 2
#     Edge 131, Type (0, 1), BuildingBlock: KIFKEQ_clean_linker_1, # of connection points: 2
#     Edge 132, Type (0, 1), BuildingBlock: KIFKEQ_clean_linker_1, # of connection points: 2
#     Edge 133, Type (0, 1), BuildingBlock: KIFKEQ_clean_linker_1, # of connection points: 2
#     Edge 134, Type (0, 1), BuildingBlock: KIFKEQ_clean_linker_1, # of connection points: 2
#     Edge 135, Type (0, 1), BuildingBlock: KIFKEQ_clean_linker_1, # of connection points: 2
#     Edge 136, Type (0, 1), BuildingBlock: KIFKEQ_clean_linker_1, # of connection points: 2
#     Edge 137, Type (0, 1), BuildingBlock: KIFKEQ_clean_linker_1, # of connection points: 2
#     Edge 138, Type (0, 1), BuildingBlock: KIFKEQ_clean_linker_1, # of connection points: 2
#     Edge 139, Type (0, 1), BuildingBlock: KIFKEQ_clean_linker_1, # of connection points: 2
#     Edge 140, Type (0, 1), BuildingBlock: KIFKEQ_clean_linker_1, # of connection points: 2
#     Edge 141, Type (0, 1), BuildingBlock: KIFKEQ_clean_linker_1, # of connection points: 2
#     Edge 142, Type (0, 1), BuildingBlock: KIFKEQ_clean_linker_1, # of connection points: 2
#     Edge 143, Type (0, 1), BuildingBlock: KIFKEQ_clean_linker_1, # of connection points: 2
#     Edge 144, Type (0, 1), BuildingBlock: KIFKEQ_clean_linker_1, # of connection points: 2
#     Edge 145, Type (0, 1), BuildingBlock: KIFKEQ_clean_linker_1, # of connection points: 2
#     Edge 146, Type (0, 1), BuildingBlock: KIFKEQ_clean_linker_1, # of connection points: 2
#     Edge 147, Type (0, 1), BuildingBlock: KIFKEQ_clean_linker_1, # of connection points: 2
#     Edge 148, Type (0, 1), BuildingBlock: KIFKEQ_clean_linker_1, # of connection points: 2
#     Edge 149, Type (0, 1), BuildingBlock: KIFKEQ_clean_linker_1, # of connection points: 2
#     Edge 150, Type (0, 1), BuildingBlock: KIFKEQ_clean_linker_1, # of connection points: 2
#     Edge 151, Type (0, 1), BuildingBlock: KIFKEQ_clean_linker_1, # of connection points: 2
# Relax obj value: 0.003
# Max RMSD: 0.120
# Mean RMSD: 0.051
data_MOF--net-tbo--node1-ESEHIV_clean_sbu_0--node2-BELTOD_clean_linker_0--edge1-KIFKEQ_clean_linker_1
_symmetry_space_group_name_H-M    P1
_symmetry_Int_Tables_number       1
_symmetry_cell_setting            triclinic
loop_
_symmetry_equiv_pos_as_xyz
'x, y, z'
_cell_length_a     85.598474
_cell_length_b     86.455332
_cell_length_c     84.560338
_cell_angle_alpha  89.943155
_cell_angle_beta   92.229567
_cell_angle_gamma 90.847472
loop_
_atom_site_label
_atom_site_type_symbol
_atom_site_fract_x
_atom_site_fract_y
_atom_site_fract_z
_atom_type_partial_charge
P0 P 0.19766 0.19168 0.19113 0.0
H1 H 0.1881 0.2089 0.21889 0.0
H2 H 0.16285 0.21846 0.22666 0.0
H3 H 0.14037 0.19514 0.18649 0.0
H4 H 0.16572 0.18525 0.17908 0.0
H5 H 0.2125 0.17513 0.21743 0.0
H6 H 0.2178 0.14795 0.2224 0.0
H7 H 0.19625 0.13617 0.17681 0.0
H8 H 0.19048 0.16355 0.17221 0.0
H9 H 0.18299 0.21701 0.17356 0.0
H10 H 0.21594 0.18113 0.16445 0.0
O11 O 0.21137 0.20181 0.20137 0.0
H12 H 0.18636 0.22749 0.14722 0.0
H13 H 0.21914 0.19142 0.13777 0.0
C14 C 0.17879 0.19651 0.1983 0.0
C15 C 0.17772 0.20566 0.21187 0.0
C16 C 0.16326 0.21124 0.21623 0.0
C17 C 0.14957 0.20781 0.20706 0.0
C18 C 0.15063 0.19797 0.19389 0.0
C19 C 0.16511 0.19232 0.1896 0.0
C20 C 0.20144 0.17141 0.19429 0.0
C21 C 0.209 0.16672 0.20844 0.0
C22 C 0.21214 0.15113 0.21122 0.0
C23 C 0.20773 0.13979 0.1999 0.0
C24 C 0.19983 0.14453 0.18581 0.0
C25 C 0.1966 0.1602 0.1831 0.0
C26 C 0.19877 0.19791 0.17082 0.0
C27 C 0.19061 0.21107 0.16572 0.0
C28 C 0.19255 0.2171 0.15059 0.0
C29 C 0.2029 0.21023 0.14027 0.0
C30 C 0.2111 0.19702 0.14542 0.0
C31 C 0.20914 0.191 0.16061 0.0
P32 P 0.86368 0.15856 0.17424 0.0
H33 H 0.88978 0.147 0.19338 0.0
H34 H 0.91007 0.15941 0.21019 0.0
H35 H 0.89082 0.20414 0.19848 0.0
H36 H 0.87016 0.19148 0.18212 0.0
H37 H 0.84022 0.13468 0.16662 0.0
H38 H 0.82635 0.11602 0.18301 0.0
H39 H 0.84535 0.13875 0.22511 0.0
H40 H 0.85906 0.15738 0.20872 0.0
H41 H 0.87371 0.17427 0.14601 0.0
H42 H 0.83167 0.17129 0.17235 0.0
O43 O 0.87291 0.14586 0.16322 0.0
H44 H 0.86024 0.19008 0.12595 0.0
H45 H 0.81798 0.18708 0.15217 0.0
C46 C 0.8786 0.16831 0.18635 0.0
C47 C 0.88996 0.15949 0.19441 0.0
C48 C 0.90162 0.16663 0.20397 0.0
C49 C 0.90224 0.18283 0.20563 0.0
C50 C 0.89067 0.19164 0.19762 0.0
C51 C 0.8789 0.18443 0.18813 0.0
C52 C 0.85083 0.14731 0.1864 0.0
C53 C 0.84112 0.13584 0.17938 0.0
C54 C 0.8332 0.12518 0.18877 0.0
C55 C 0.83493 0.12577 0.20538 0.0
C56 C 0.84401 0.13781 0.21236 0.0
C57 C 0.85182 0.14853 0.20296 0.0
C58 C 0.85364 0.17144 0.16055 0.0
C59 C 0.86156 0.17707 0.14749 0.0
C60 C 0.85381 0.18604 0.13597 0.0
C61 C 0.83795 0.18969 0.13731 0.0
C62 C 0.83019 0.18451 0.15078 0.0
C63 C 0.83798 0.17543 0.1623 0.0
P64 P 0.85632 0.86563 0.16847 0.0
H65 H 0.83692 0.89054 0.15603 0.0
H66 H 0.81895 0.90835 0.16814 0.0
H67 H 0.82729 0.88583 0.21328 0.0
H68 H 0.84495 0.86786 0.20095 0.0
H69 H 0.88159 0.8776 0.18921 0.0
H70 H 0.9012 0.86519 0.20654 0.0
H71 H 0.87924 0.82072 0.19668 0.0
H72 H 0.85982 0.83323 0.17917 0.0
H73 H 0.82358 0.8547 0.16389 0.0
H74 H 0.86807 0.8462 0.14362 0.0
O75 O 0.86743 0.87706 0.15747 0.0
H76 H 0.81066 0.83784 0.14409 0.0
H77 H 0.85532 0.82895 0.12399 0.0
C78 C 0.84244 0.87802 0.17762 0.0
C79 C 0.83482 0.88942 0.16853 0.0
C80 C 0.8246 0.89965 0.1755 0.0
C81 C 0.82172 0.89865 0.19174 0.0
C82 C 0.82908 0.88688 0.20072 0.0
C83 C 0.83931 0.87664 0.19371 0.0
C84 C 0.86937 0.85634 0.18273 0.0
C85 C 0.88093 0.86518 0.19089 0.0
C86 C 0.8921 0.85806 0.20088 0.0
C87 C 0.89193 0.8419 0.20294 0.0
C88 C 0.87993 0.83314 0.19515 0.0
C89 C 0.86873 0.8403 0.18518 0.0
C90 C 0.84677 0.85188 0.15508 0.0
C91 C 0.83061 0.84908 0.15528 0.0
C92 C 0.82324 0.83931 0.14398 0.0
C93 C 0.83192 0.83207 0.13232 0.0
C94 C 0.84822 0.83452 0.13258 0.0
C95 C 0.85555 0.84432 0.14385 0.0
P96 P 0.13889 0.8512 0.15257 0.0
H97 H 0.15525 0.88027 0.14752 0.0
H98 H 0.16583 0.90037 0.16535 0.0
H99 H 0.15239 0.87301 0.20554 0.0
H100 H 0.14164 0.85301 0.18756 0.0
H101 H 0.13743 0.83701 0.12135 0.0
H102 H 0.15751 0.82813 0.10384 0.0
H103 H 0.193 0.83785 0.14037 0.0
H104 H 0.17276 0.84645 0.15792 0.0
H105 H 0.10827 0.85335 0.16577 0.0
H106 H 0.1431 0.8183 0.16131 0.0
O107 O 0.12706 0.86098 0.14014 0.0
H108 H 0.0914 0.83494 0.1791 0.0
H109 H 0.12609 0.79957 0.17444 0.0
C110 C 0.14754 0.86523 0.16619 0.0
C111 C 0.15465 0.87858 0.16018 0.0
C112 C 0.16078 0.89002 0.17041 0.0
C113 C 0.15993 0.88834 0.18691 0.0
C114 C 0.15304 0.87477 0.1929 0.0
C115 C 0.14694 0.86328 0.18263 0.0
C116 C 0.15363 0.84264 0.14081 0.0
C117 C 0.14952 0.83708 0.12564 0.0
C118 C 0.16104 0.83212 0.1156 0.0
C119 C 0.17692 0.83253 0.12058 0.0
C120 C 0.1809 0.83737 0.13614 0.0
C121 C 0.16933 0.84236 0.14618 0.0
C122 C 0.12683 0.83715 0.16238 0.0
C123 C 0.11221 0.84161 0.16753 0.0
C124 C 0.10252 0.83101 0.17506 0.0
C125 C 0.10725 0.81567 0.17767 0.0
C126 C 0.12207 0.81128 0.17265 0.0
C127 C 0.13179 0.82195 0.16508 0.0
P128 P 0.19265 0.84719 0.84016 0.0
H129 H 0.18152 0.84705 0.80722 0.0
H130 H 0.15599 0.84174 0.79428 0.0
H131 H 0.13562 0.83727 0.84005 0.0
H132 H 0.16124 0.84287 0.85292 0.0
H133 H 0.222 0.86156 0.85135 0.0
H134 H 0.23306 0.88761 0.84851 0.0
H135 H 0.18948 0.90263 0.82652 0.0
H136 H 0.17849 0.87657 0.82943 0.0
H137 H 0.18881 0.81492 0.8486 0.0
H138 H 0.19941 0.85764 0.87323 0.0
O139 O 0.20481 0.83804 0.82852 0.0
H140 H 0.19369 0.80045 0.87308 0.0
H141 H 0.20483 0.84323 0.8977 0.0
C142 C 0.17333 0.84501 0.83101 0.0
C143 C 0.17153 0.84504 0.81447 0.0
C144 C 0.15693 0.84196 0.80709 0.0
C145 C 0.14378 0.83887 0.81611 0.0
C146 C 0.14548 0.83967 0.83273 0.0
C147 C 0.16015 0.84275 0.84012 0.0
C148 C 0.19937 0.86711 0.84078 0.0
C149 C 0.2147 0.87056 0.84627 0.0
C150 C 0.22101 0.88547 0.84462 0.0
C151 C 0.21218 0.89721 0.83721 0.0
C152 C 0.19665 0.89381 0.83212 0.0
C153 C 0.19031 0.87891 0.8339 0.0
C154 C 0.19399 0.83732 0.85901 0.0
C155 C 0.19208 0.8212 0.85933 0.0
C156 C 0.19498 0.81293 0.87333 0.0
C157 C 0.19991 0.82062 0.88736 0.0
C158 C 0.201 0.83691 0.88717 0.0
C159 C 0.19803 0.84518 0.87311 0.0
P160 P 0.19701 0.19999 0.8352 0.0
H161 H 0.22923 0.2045 0.84704 0.0
H162 H 0.24099 0.20935 0.87343 0.0
H163 H 0.1953 0.20539 0.89324 0.0
H164 H 0.18373 0.20024 0.86683 0.0
H165 H 0.20192 0.18655 0.80413 0.0
H166 H 0.20759 0.16037 0.79547 0.0
H167 H 0.20102 0.14358 0.84296 0.0
H168 H 0.19577 0.16995 0.85158 0.0
H169 H 0.1844 0.22998 0.8423 0.0
H170 H 0.16634 0.1861 0.82505 0.0
O171 O 0.20741 0.21114 0.82324 0.0
H172 H 0.15851 0.24116 0.83879 0.0
H173 H 0.14018 0.19708 0.82186 0.0
C174 C 0.20557 0.20236 0.85493 0.0
C175 C 0.22177 0.20462 0.85709 0.0
C176 C 0.22847 0.20745 0.87219 0.0
C177 C 0.2191 0.20794 0.88549 0.0
C178 C 0.20291 0.20501 0.88331 0.0
C179 C 0.19623 0.20219 0.86818 0.0
C180 C 0.19877 0.18025 0.82857 0.0
C181 C 0.20159 0.17721 0.81266 0.0
C182 C 0.20472 0.16217 0.80769 0.0
C183 C 0.20499 0.14982 0.81854 0.0
C184 C 0.20128 0.15284 0.83434 0.0
C185 C 0.19817 0.16791 0.83929 0.0
C186 C 0.17731 0.20722 0.834 0.0
C187 C 0.17477 0.22268 0.83797 0.0
C188 C 0.15989 0.22904 0.83603 0.0
C189 C 0.14715 0.22006 0.83004 0.0
C190 C 0.14972 0.20442 0.82631 0.0
C191 C 0.16467 0.19807 0.82825 0.0
P192 P 0.86485 0.16192 0.85454 0.0
H193 H 0.87683 0.13454 0.84012 0.0
H194 H 0.86591 0.11576 0.82115 0.0
H195 H 0.82255 0.14078 0.81861 0.0
H196 H 0.8338 0.15983 0.83763 0.0
H197 H 0.89241 0.17858 0.86671 0.0
H198 H 0.91233 0.19441 0.85429 0.0
H199 H 0.88846 0.18786 0.80877 0.0
H200 H 0.8685 0.17189 0.82136 0.0
H201 H 0.83923 0.15329 0.87472 0.0
H202 H 0.86142 0.19551 0.85937 0.0
O203 O 0.87473 0.15138 0.86799 0.0
H204 H 0.82524 0.16784 0.89446 0.0
H205 H 0.84751 0.21005 0.87894 0.0
C206 C 0.85601 0.14836 0.84055 0.0
C207 C 0.86493 0.13595 0.83558 0.0
C208 C 0.85864 0.12518 0.82474 0.0
C209 C 0.84326 0.1266 0.81851 0.0
C210 C 0.83443 0.13934 0.82318 0.0
C211 C 0.84079 0.15017 0.83413 0.0
C212 C 0.87909 0.17392 0.84495 0.0
C213 C 0.89146 0.18053 0.85406 0.0
C214 C 0.90279 0.18966 0.84694 0.0
C215 C 0.90199 0.19241 0.83052 0.0
C216 C 0.8895 0.18582 0.82141 0.0
C217 C 0.87806 0.17674 0.8286 0.0
C218 C 0.85139 0.17325 0.86555 0.0
C219 C 0.84075 0.16574 0.87527 0.0
C220 C 0.83278 0.17408 0.88659 0.0
C221 C 0.83543 0.1901 0.88846 0.0
C222 C 0.84541 0.19769 0.87803 0.0
C223 C 0.85331 0.18936 0.8667 0.0
P224 P 0.86393 0.88061 0.86472 0.0
H225 H 0.89435 0.88686 0.85178 0.0
H226 H 0.91378 0.87029 0.84022 0.0
H227 H 0.88175 0.83133 0.84256 0.0
H228 H 0.86226 0.84809 0.85397 0.0
H229 H 0.84775 0.90871 0.87188 0.0
H230 H 0.83106 0.92597 0.85628 0.0
H231 H 0.83848 0.89851 0.81457 0.0
H232 H 0.85472 0.88086 0.83059 0.0
H233 H 0.87041 0.85838 0.88986 0.0
H234 H 0.82954 0.87807 0.86672 0.0
O235 O 0.87508 0.89152 0.87705 0.0
H236 H 0.85385 0.84542 0.90887 0.0
H237 H 0.81305 0.86584 0.88601 0.0
C238 C 0.87699 0.86865 0.85399 0.0
C239 C 0.89145 0.87478 0.84966 0.0
C240 C 0.90259 0.86526 0.84315 0.0
C241 C 0.89944 0.84941 0.84072 0.0
C242 C 0.88456 0.84348 0.84428 0.0
C243 C 0.87342 0.85304 0.85086 0.0
C244 C 0.85268 0.89368 0.85234 0.0
C245 C 0.8459 0.9065 0.85933 0.0
C246 C 0.83638 0.9164 0.85035 0.0
C247 C 0.83348 0.91379 0.83407 0.0
C248 C 0.84031 0.90084 0.82708 0.0
C249 C 0.84976 0.89081 0.83618 0.0
C250 C 0.85128 0.86929 0.87694 0.0
C251 C 0.85787 0.85982 0.8888 0.0
C252 C 0.84838 0.85256 0.89976 0.0
C253 C 0.83209 0.85475 0.89916 0.0
C254 C 0.8255 0.86377 0.88682 0.0
C255 C 0.83499 0.87091 0.87579 0.0
P256 P 0.19004 0.70214 0.67772 0.0
H257 H 0.17517 0.73044 0.6873 0.0
H258 H 0.15051 0.7356 0.6997 0.0
H259 H 0.13756 0.68725 0.69556 0.0
H260 H 0.16228 0.6822 0.68289 0.0
H261 H 0.20418 0.68824 0.70607 0.0
H262 H 0.21407 0.66252 0.71205 0.0
H263 H 0.19826 0.64696 0.66549 0.0
H264 H 0.18789 0.67276 0.65981 0.0
H265 H 0.1745 0.72385 0.65533 0.0
H266 H 0.21311 0.69237 0.65553 0.0
O267 O 0.20228 0.71374 0.68819 0.0
H268 H 0.182 0.73383 0.62953 0.0
H269 H 0.22016 0.70165 0.62963 0.0
C270 C 0.17067 0.70592 0.68437 0.0
C271 C 0.16696 0.72097 0.68888 0.0
C272 C 0.15289 0.72388 0.69609 0.0
C273 C 0.14217 0.71179 0.69891 0.0
C274 C 0.14555 0.69682 0.69358 0.0
C275 C 0.15971 0.69391 0.68637 0.0
C276 C 0.19574 0.68254 0.68233 0.0
C277 C 0.20279 0.67929 0.69716 0.0
C278 C 0.20854 0.66456 0.70052 0.0
C279 C 0.20733 0.65271 0.68912 0.0
C280 C 0.19945 0.6558 0.67454 0.0
C281 C 0.19361 0.67057 0.67122 0.0
C282 C 0.19297 0.70704 0.65725 0.0
C283 C 0.18428 0.71872 0.64964 0.0
C284 C 0.1886 0.72445 0.63486 0.0
C285 C 0.20181 0.71869 0.62752 0.0
C286 C 0.21011 0.70661 0.63501 0.0
C287 C 0.20589 0.70104 0.64976 0.0
P288 P 0.87597 0.68 0.65588 0.0
H289 H 0.90683 0.69118 0.64784 0.0
H290 H 0.92488 0.71034 0.6596 0.0
H291 H 0.89127 0.72047 0.69493 0.0
H292 H 0.87291 0.70186 0.68238 0.0
H293 H 0.84751 0.66116 0.65186 0.0
H294 H 0.83459 0.64275 0.66936 0.0
H295 H 0.8666 0.65615 0.70775 0.0
H296 H 0.87985 0.67402 0.69013 0.0
H297 H 0.88103 0.68324 0.62224 0.0
H298 H 0.84649 0.69727 0.65487 0.0
O299 O 0.88721 0.66675 0.64784 0.0
H300 H 0.86666 0.69604 0.60067 0.0
H301 H 0.83176 0.71006 0.63313 0.0
C302 C 0.88879 0.69463 0.66465 0.0
C303 C 0.90335 0.69752 0.65814 0.0
C304 C 0.91372 0.70847 0.66494 0.0
C305 C 0.90977 0.71679 0.67849 0.0
C306 C 0.89479 0.71436 0.68451 0.0
C307 C 0.88432 0.70354 0.6775 0.0
C308 C 0.8643 0.66947 0.66978 0.0
C309 C 0.85148 0.66047 0.66415 0.0
C310 C 0.84419 0.64986 0.67412 0.0
C311 C 0.84953 0.64812 0.68994 0.0
C312 C 0.86206 0.65746 0.69569 0.0
C313 C 0.86956 0.66781 0.68562 0.0
C314 C 0.8646 0.68894 0.64007 0.0
C315 C 0.87019 0.68889 0.62472 0.0
C316 C 0.86193 0.69623 0.61236 0.0
C317 C 0.84793 0.70393 0.61509 0.0
C318 C 0.84251 0.70425 0.63061 0.0
C319 C 0.85082 0.69685 0.64302 0.0
P320 P 0.84783 0.3745 0.66585 0.0
H321 H 0.85734 0.40648 0.67158 0.0
H322 H 0.8446 0.42843 0.68335 0.0
H323 H 0.8052 0.39904 0.69432 0.0
H324 H 0.8183 0.37691 0.6827 0.0
H325 H 0.87896 0.36218 0.6618 0.0
H326 H 0.89844 0.35105 0.68011 0.0
H327 H 0.86586 0.35332 0.71774 0.0
H328 H 0.84628 0.36454 0.69921 0.0
H329 H 0.8182 0.38078 0.6491 0.0
H330 H 0.8473 0.34125 0.65823 0.0
O331 O 0.85843 0.38257 0.65179 0.0
H332 H 0.80147 0.36545 0.63097 0.0
H333 H 0.8305 0.32571 0.64007 0.0
C334 C 0.8386 0.39016 0.67589 0.0
C335 C 0.84596 0.40473 0.6765 0.0
C336 C 0.83859 0.41732 0.68316 0.0
C337 C 0.82369 0.41561 0.68947 0.0
C338 C 0.81663 0.40079 0.6895 0.0
C339 C 0.82407 0.38814 0.68281 0.0
C340 C 0.86125 0.36446 0.67919 0.0
C341 C 0.87593 0.36025 0.67396 0.0
C342 C 0.88712 0.35393 0.68448 0.0
C343 C 0.88382 0.35152 0.70046 0.0
C344 C 0.86878 0.35504 0.70551 0.0
C345 C 0.85759 0.36149 0.69495 0.0
C346 C 0.83376 0.36207 0.65543 0.0
C347 C 0.8207 0.36863 0.64763 0.0
C348 C 0.81114 0.35984 0.63719 0.0
C349 C 0.81459 0.34431 0.63405 0.0
C350 C 0.82754 0.33766 0.64213 0.0
C351 C 0.83707 0.34648 0.65267 0.0
P352 P 0.14694 0.37776 0.67368 0.0
H353 H 0.15994 0.40829 0.66735 0.0
H354 H 0.17606 0.42647 0.68305 0.0
H355 H 0.17808 0.39373 0.72169 0.0
H356 H 0.16187 0.37543 0.70572 0.0
H357 H 0.13657 0.35095 0.65542 0.0
H358 H 0.14948 0.33376 0.63747 0.0
H359 H 0.19296 0.35896 0.64618 0.0
H360 H 0.17996 0.37587 0.66468 0.0
H361 H 0.11553 0.38459 0.68355 0.0
H362 H 0.14835 0.34753 0.68976 0.0
O363 O 0.13642 0.38868 0.66108 0.0
H364 H 0.09546 0.36888 0.69587 0.0
H365 H 0.12815 0.33149 0.70178 0.0
C366 C 0.15946 0.39062 0.68546 0.0
C367 C 0.16376 0.40501 0.67923 0.0
C368 C 0.17292 0.41546 0.68827 0.0
C369 C 0.17815 0.41169 0.70375 0.0
C370 C 0.17421 0.39702 0.70983 0.0
C371 C 0.16492 0.38656 0.70074 0.0
C372 C 0.15736 0.36449 0.66165 0.0
C373 C 0.14895 0.35263 0.6537 0.0
C374 C 0.15633 0.34291 0.64325 0.0
C375 C 0.17227 0.34501 0.64025 0.0
C376 C 0.18073 0.35689 0.64834 0.0
C377 C 0.1733 0.36659 0.65891 0.0
C378 C 0.13331 0.3671 0.68543 0.0
C379 C 0.11845 0.37308 0.68766 0.0
C380 C 0.10693 0.36401 0.69458 0.0
C381 C 0.11006 0.34875 0.69945 0.0
C382 C 0.12531 0.34315 0.6981 0.0
C383 C 0.13686 0.35229 0.6912 0.0
P384 P 0.18655 0.31794 0.34642 0.0
H385 H 0.16523 0.32126 0.31908 0.0
H386 H 0.13899 0.31117 0.31269 0.0
H387 H 0.13732 0.29094 0.35934 0.0
H388 H 0.1637 0.30106 0.36564 0.0
H389 H 0.21442 0.33222 0.33377 0.0
H390 H 0.21959 0.35732 0.32167 0.0
H391 H 0.17253 0.37128 0.33084 0.0
H392 H 0.16741 0.34597 0.34286 0.0
H393 H 0.19776 0.29177 0.36501 0.0
H394 H 0.18956 0.34017 0.37294 0.0
O395 O 0.19698 0.30569 0.33601 0.0
H396 H 0.20771 0.28904 0.39228 0.0
H397 H 0.19984 0.33763 0.40029 0.0
C398 C 0.16632 0.31225 0.34296 0.0
C399 C 0.1591 0.31495 0.32807 0.0
C400 C 0.14406 0.30915 0.32443 0.0
C401 C 0.13598 0.30029 0.33553 0.0
C402 C 0.14324 0.29765 0.3505 0.0
C403 C 0.15829 0.30356 0.35416 0.0
C404 C 0.19044 0.3371 0.33888 0.0
C405 C 0.20522 0.34069 0.33323 0.0
C406 C 0.2082 0.35511 0.32639 0.0
C407 C 0.19643 0.3663 0.32515 0.0
C408 C 0.18175 0.36283 0.33135 0.0
C409 C 0.17883 0.34839 0.33827 0.0
C410 C 0.19315 0.31621 0.36688 0.0
C411 C 0.1982 0.30185 0.37262 0.0
C412 C 0.204 0.30034 0.38821 0.0
C413 C 0.20483 0.31317 0.39846 0.0
C414 C 0.19936 0.3275 0.39275 0.0
C415 C 0.19353 0.32899 0.37709 0.0
P416 P 0.19763 0.66805 0.32688 0.0
H417 H 0.22866 0.67959 0.33656 0.0
H418 H 0.24005 0.68957 0.36143 0.0
H419 H 0.19578 0.68255 0.38344 0.0
H420 H 0.18451 0.6723 0.35851 0.0
H421 H 0.18942 0.64588 0.30188 0.0
H422 H 0.19857 0.61982 0.29658 0.0
H423 H 0.22207 0.61892 0.34273 0.0
H424 H 0.2132 0.64506 0.34775 0.0
H425 H 0.18389 0.69145 0.30591 0.0
H426 H 0.16727 0.65821 0.33967 0.0
O427 O 0.20826 0.67592 0.31273 0.0
H428 H 0.15744 0.70096 0.30151 0.0
H429 H 0.14059 0.66825 0.33568 0.0
C430 C 0.2056 0.67555 0.3455 0.0
C431 C 0.22133 0.68031 0.34668 0.0
C432 C 0.22784 0.68606 0.36093 0.0
C433 C 0.21879 0.68706 0.37441 0.0
C434 C 0.2031 0.68191 0.3733 0.0
C435 C 0.19658 0.67616 0.35898 0.0
C436 C 0.2005 0.64744 0.32523 0.0
C437 C 0.19618 0.63989 0.31103 0.0
C438 C 0.20146 0.62496 0.30801 0.0
C439 C 0.21125 0.61725 0.31915 0.0
C440 C 0.21483 0.62457 0.33374 0.0
C441 C 0.20957 0.63952 0.33671 0.0
C442 C 0.17763 0.67405 0.32311 0.0
C443 C 0.17455 0.68608 0.31233 0.0
C444 C 0.15938 0.69156 0.3098 0.0
C445 C 0.14694 0.68536 0.31824 0.0
C446 C 0.14999 0.67329 0.32907 0.0
C447 C 0.1652 0.66755 0.33134 0.0
P448 P 0.86363 0.65013 0.35661 0.0
H449 H 0.85238 0.62082 0.3688 0.0
H450 H 0.83602 0.6 0.35735 0.0
H451 H 0.83175 0.62538 0.31339 0.0
H452 H 0.84802 0.64635 0.32508 0.0
H453 H 0.88636 0.64082 0.33397 0.0
H454 H 0.90429 0.65539 0.31756 0.0
H455 H 0.88276 0.69794 0.33143 0.0
H456 H 0.86518 0.68328 0.34813 0.0
H457 H 0.82983 0.65646 0.35634 0.0
H458 H 0.87127 0.66967 0.38397 0.0
O459 O 0.87691 0.64168 0.36858 0.0
H460 H 0.81359 0.66903 0.37551 0.0
H461 H 0.85514 0.68265 0.40301 0.0
C462 C 0.85175 0.6349 0.34764 0.0
C463 C 0.84801 0.62186 0.35666 0.0
C464 C 0.83865 0.60996 0.3501 0.0
C465 C 0.8327 0.61095 0.3344 0.0
C466 C 0.83609 0.6243 0.32553 0.0
C467 C 0.84552 0.63621 0.33213 0.0
C468 C 0.87448 0.66095 0.34231 0.0
C469 C 0.88535 0.65328 0.33326 0.0
C470 C 0.89557 0.66164 0.32382 0.0
C471 C 0.89514 0.67789 0.32326 0.0
C472 C 0.88366 0.68547 0.3318 0.0
C473 C 0.87348 0.67708 0.34128 0.0
C474 C 0.85175 0.66186 0.36891 0.0
C475 C 0.83547 0.66227 0.36641 0.0
C476 C 0.82618 0.66956 0.37736 0.0
C477 C 0.83302 0.67666 0.39097 0.0
C478 C 0.84944 0.67699 0.39288 0.0
C479 C 0.8587 0.66968 0.38194 0.0
P480 P 0.85822 0.35416 0.36985 0.0
H481 H 0.88801 0.36693 0.3604 0.0
H482 H 0.90855 0.35719 0.34405 0.0
H483 H 0.88263 0.31422 0.33757 0.0
H484 H 0.86189 0.32429 0.35368 0.0
H485 H 0.84354 0.38419 0.3737 0.0
H486 H 0.83066 0.40181 0.35498 0.0
H487 H 0.83337 0.36748 0.31811 0.0
H488 H 0.84652 0.34999 0.33693 0.0
H489 H 0.86829 0.32704 0.38773 0.0
H490 H 0.8249 0.34998 0.37659 0.0
O491 O 0.86663 0.36581 0.38352 0.0
H492 H 0.85496 0.30966 0.40574 0.0
H493 H 0.81135 0.33246 0.39441 0.0
C494 C 0.87364 0.34618 0.3586 0.0
C495 C 0.88684 0.35534 0.35562 0.0
C496 C 0.8986 0.34973 0.34628 0.0
C497 C 0.89736 0.33484 0.33959 0.0
C498 C 0.88396 0.32575 0.34246 0.0
C499 C 0.87216 0.33142 0.35181 0.0
C500 C 0.84623 0.36587 0.35666 0.0
C501 C 0.84121 0.38037 0.36164 0.0
C502 C 0.83377 0.39043 0.3509 0.0
C503 C 0.83112 0.38616 0.33495 0.0
C504 C 0.8355 0.37128 0.33021 0.0
C505 C 0.84292 0.36121 0.34099 0.0
C506 C 0.84755 0.33959 0.38052 0.0
C507 C 0.85579 0.32805 0.38882 0.0
C508 C 0.84813 0.3181 0.39915 0.0
C509 C 0.83205 0.31962 0.40159 0.0
C510 C 0.82376 0.33103 0.39297 0.0
C511 C 0.83146 0.34097 0.38261 0.0
P512 P 0.70762 0.18518 0.68796 0.0
H513 H 0.69778 0.21603 0.69709 0.0
H514 H 0.67359 0.22564 0.70749 0.0
H515 H 0.65196 0.18055 0.7002 0.0
H516 H 0.67595 0.17137 0.68893 0.0
H517 H 0.72387 0.15796 0.67596 0.0
H518 H 0.72835 0.13221 0.68702 0.0
H519 H 0.69946 0.14332 0.72618 0.0
H520 H 0.69606 0.16922 0.71565 0.0
H521 H 0.73663 0.19067 0.67175 0.0
H522 H 0.6877 0.18524 0.65866 0.0
O523 O 0.72116 0.19527 0.69848 0.0
H524 H 0.74237 0.19666 0.64437 0.0
H525 H 0.69337 0.19083 0.63103 0.0
C526 C 0.68882 0.19285 0.6927 0.0
C527 C 0.68774 0.20829 0.6975 0.0
C528 C 0.67391 0.21372 0.70363 0.0
C529 C 0.66086 0.20378 0.70518 0.0
C530 C 0.66169 0.18859 0.69926 0.0
C531 C 0.67548 0.18325 0.6929 0.0
C532 C 0.70922 0.16541 0.69469 0.0
C533 C 0.71835 0.15476 0.68682 0.0
C534 C 0.72085 0.13997 0.69317 0.0
C535 C 0.71425 0.13553 0.70755 0.0
C536 C 0.70497 0.14627 0.71525 0.0
C537 C 0.70274 0.16108 0.70905 0.0
C538 C 0.7117 0.1878 0.66731 0.0
C539 C 0.72712 0.19062 0.66292 0.0
C540 C 0.73041 0.19393 0.64718 0.0
C541 C 0.71834 0.1944 0.63541 0.0
C542 C 0.70294 0.1909 0.63979 0.0
C543 C 0.69967 0.1876 0.65559 0.0
P544 P 0.37606 0.1855 0.671 0.0
H545 H 0.40188 0.17501 0.69113 0.0
H546 H 0.4233 0.18837 0.70558 0.0
H547 H 0.4038 0.2324 0.69178 0.0
H548 H 0.3823 0.21891 0.67736 0.0
H549 H 0.36077 0.15587 0.66387 0.0
H550 H 0.34816 0.13641 0.68025 0.0
H551 H 0.354 0.16661 0.72079 0.0
H552 H 0.36651 0.18614 0.70421 0.0
H553 H 0.38415 0.20731 0.6465 0.0
H554 H 0.34202 0.19117 0.6679 0.0
O555 O 0.38604 0.17465 0.6587 0.0
H556 H 0.36871 0.2232 0.62806 0.0
H557 H 0.32637 0.20663 0.64909 0.0
C558 C 0.39055 0.19591 0.68308 0.0
C559 C 0.40211 0.18754 0.69136 0.0
C560 C 0.41433 0.19522 0.69966 0.0
C561 C 0.4153 0.21148 0.69981 0.0
C562 C 0.4035 0.21988 0.69174 0.0
C563 C 0.39116 0.21215 0.68352 0.0
C564 C 0.36484 0.17232 0.68287 0.0
C565 C 0.35923 0.15836 0.67625 0.0
C566 C 0.3521 0.1472 0.68566 0.0
C567 C 0.35029 0.14982 0.70191 0.0
C568 C 0.35519 0.16421 0.70833 0.0
C569 C 0.3624 0.17537 0.69888 0.0
C570 C 0.36426 0.19812 0.65861 0.0
C571 C 0.37154 0.20726 0.64726 0.0
C572 C 0.36267 0.21623 0.63661 0.0
C573 C 0.34625 0.21613 0.63694 0.0
C574 C 0.33899 0.20714 0.64857 0.0
C575 C 0.34793 0.19822 0.65931 0.0
P576 P 0.35609 0.88378 0.6708 0.0
H577 H 0.35722 0.89536 0.70344 0.0
H578 H 0.34111 0.91342 0.71726 0.0
H579 H 0.3093 0.91565 0.67645 0.0
H580 H 0.32553 0.89732 0.6626 0.0
H581 H 0.39034 0.88545 0.67198 0.0
H582 H 0.41038 0.87375 0.6893 0.0
H583 H 0.37455 0.84991 0.7148 0.0
H584 H 0.35436 0.86216 0.69773 0.0
H585 H 0.34172 0.88742 0.63922 0.0
H586 H 0.34975 0.8499 0.67205 0.0
O587 O 0.36522 0.89691 0.65984 0.0
H588 H 0.33138 0.86908 0.61939 0.0
H589 H 0.33928 0.83156 0.65237 0.0
C590 C 0.34239 0.89452 0.6821 0.0
C591 C 0.34653 0.89925 0.69758 0.0
C592 C 0.33729 0.90969 0.7055 0.0
C593 C 0.32383 0.91595 0.69802 0.0
C594 C 0.31958 0.91107 0.68255 0.0
C595 C 0.32879 0.90045 0.67468 0.0
C596 C 0.3708 0.87463 0.68348 0.0
C597 C 0.38671 0.87776 0.6813 0.0
C598 C 0.39819 0.8711 0.69123 0.0
C599 C 0.39401 0.86094 0.70338 0.0
C600 C 0.37808 0.85764 0.70545 0.0
C601 C 0.36657 0.86458 0.69569 0.0
C602 C 0.34672 0.87011 0.65712 0.0
C603 C 0.3411 0.87527 0.64226 0.0
C604 C 0.33511 0.86475 0.63093 0.0
C605 C 0.33461 0.8488 0.63421 0.0
C606 C 0.33975 0.84372 0.64933 0.0
C607 C 0.34568 0.85428 0.66069 0.0
P608 P 0.64272 0.85638 0.65007 0.0
H609 H 0.65408 0.88604 0.63892 0.0
H610 H 0.67221 0.90549 0.65011 0.0
H611 H 0.67931 0.87723 0.69189 0.0
H612 H 0.66116 0.85762 0.68039 0.0
H613 H 0.63845 0.84985 0.61622 0.0
H614 H 0.6523 0.83346 0.59815 0.0
H615 H 0.68396 0.81987 0.63652 0.0
H616 H 0.66996 0.83643 0.65467 0.0
H617 H 0.6231 0.86507 0.67586 0.0
H618 H 0.6382 0.82271 0.65474 0.0
O619 O 0.62922 0.86607 0.63946 0.0
H620 H 0.60545 0.85022 0.69245 0.0
H621 H 0.62073 0.80786 0.67132 0.0
C622 C 0.656 0.87056 0.65897 0.0
C623 C 0.65943 0.88407 0.65055 0.0
C624 C 0.66978 0.89523 0.65701 0.0
C625 C 0.67709 0.89306 0.67201 0.0
C626 C 0.6739 0.87928 0.6803 0.0
C627 C 0.66345 0.8681 0.67381 0.0
C628 C 0.65323 0.84442 0.63678 0.0
C629 C 0.64841 0.84343 0.62078 0.0
C630 C 0.65637 0.83408 0.61042 0.0
C631 C 0.66926 0.82541 0.61589 0.0
C632 C 0.67402 0.82633 0.63199 0.0
C633 C 0.6661 0.83584 0.64233 0.0
C634 C 0.63215 0.84505 0.6642 0.0
C635 C 0.62286 0.85257 0.67501 0.0
C636 C 0.61266 0.84408 0.68435 0.0
C637 C 0.61161 0.82786 0.68311 0.0
C638 C 0.62134 0.82032 0.67264 0.0
C639 C 0.63141 0.82884 0.66317 0.0
P640 P 0.67387 0.81753 0.33475 0.0
H641 H 0.65031 0.82716 0.31104 0.0
H642 H 0.62354 0.81829 0.30508 0.0
H643 H 0.62473 0.79125 0.34813 0.0
H644 H 0.6517 0.79976 0.35363 0.0
H645 H 0.70306 0.82871 0.32263 0.0
H646 H 0.71364 0.85437 0.3173 0.0
H647 H 0.67045 0.87462 0.33138 0.0
H648 H 0.66006 0.84864 0.33713 0.0
H649 H 0.69979 0.79793 0.34513 0.0
H650 H 0.66706 0.82798 0.36679 0.0
O651 O 0.6813 0.80543 0.32173 0.0
H652 H 0.71249 0.79302 0.37083 0.0
H653 H 0.67957 0.82283 0.39286 0.0
C654 C 0.65294 0.81446 0.33298 0.0
C655 C 0.64465 0.81969 0.31943 0.0
C656 C 0.62928 0.81455 0.31603 0.0
C657 C 0.62187 0.80394 0.32607 0.0
C658 C 0.63006 0.79922 0.33998 0.0
C659 C 0.64547 0.8043 0.3433 0.0
C660 C 0.68062 0.83674 0.32983 0.0
C661 C 0.69576 0.83864 0.32437 0.0
C662 C 0.7018 0.85338 0.32128 0.0
C663 C 0.69284 0.86663 0.32366 0.0
C664 C 0.67769 0.86469 0.32942 0.0
C665 C 0.67166 0.84985 0.33256 0.0
C666 C 0.68225 0.81306 0.35409 0.0
C667 C 0.69514 0.80328 0.35548 0.0
C668 C 0.70241 0.80045 0.37024 0.0
C669 C 0.697 0.80741 0.38399 0.0
C670 C 0.68412 0.81734 0.38253 0.0
C671 C 0.67685 0.82018 0.36768 0.0
P672 P 0.67466 0.17614 0.3212 0.0
H673 H 0.70433 0.18223 0.33814 0.0
H674 H 0.71115 0.19169 0.36483 0.0
H675 H 0.66243 0.18954 0.37623 0.0
H676 H 0.65572 0.17977 0.34959 0.0
H677 H 0.70075 0.16371 0.30413 0.0
H678 H 0.70806 0.13769 0.29689 0.0
H679 H 0.66792 0.11922 0.3205 0.0
H680 H 0.66106 0.1455 0.32829 0.0
H681 H 0.65481 0.20233 0.32748 0.0
H682 H 0.65065 0.15973 0.30107 0.0
O683 O 0.68532 0.18819 0.31041 0.0
H684 H 0.62863 0.20948 0.31801 0.0
H685 H 0.6243 0.16662 0.29185 0.0
C686 C 0.67949 0.18065 0.34172 0.0
C687 C 0.69513 0.18359 0.34645 0.0
C688 C 0.69902 0.18896 0.36174 0.0
C689 C 0.68731 0.19158 0.37259 0.0
C690 C 0.67169 0.18791 0.36804 0.0
C691 C 0.66784 0.18231 0.3528 0.0
C692 C 0.68019 0.1566 0.31654 0.0
C693 C 0.69348 0.1541 0.30777 0.0
C694 C 0.69759 0.13913 0.30348 0.0
C695 C 0.68846 0.12624 0.30782 0.0
C696 C 0.6753 0.12879 0.31696 0.0
C697 C 0.67129 0.14383 0.32139 0.0
C698 C 0.65452 0.18019 0.31556 0.0
C699 C 0.6481 0.19429 0.32 0.0
C700 C 0.63309 0.19838 0.31455 0.0
C701 C 0.62423 0.18856 0.30428 0.0
C702 C 0.63077 0.17448 0.29972 0.0
C703 C 0.64581 0.1704 0.30521 0.0
P704 P 0.34779 0.15353 0.37819 0.0
H705 H 0.35265 0.12324 0.36422 0.0
H706 H 0.33528 0.1055 0.34921 0.0
H707 H 0.29955 0.14034 0.3472 0.0
H708 H 0.31721 0.15816 0.36183 0.0
H709 H 0.38103 0.15932 0.38481 0.0
H710 H 0.40053 0.17546 0.37228 0.0
H711 H 0.36545 0.19075 0.33786 0.0
H712 H 0.34579 0.17446 0.35066 0.0
H713 H 0.32125 0.14439 0.39644 0.0
H714 H 0.34694 0.18656 0.38738 0.0
O715 O 0.35741 0.1414 0.39031 0.0
H716 H 0.30492 0.15817 0.41458 0.0
H717 H 0.33044 0.20053 0.40538 0.0
C718 C 0.33609 0.14188 0.36444 0.0
C719 C 0.34117 0.12714 0.36033 0.0
C720 C 0.33116 0.11696 0.35186 0.0
C721 C 0.31586 0.12135 0.34729 0.0
C722 C 0.31122 0.13654 0.35052 0.0
C723 C 0.32129 0.14674 0.35896 0.0
C724 C 0.36201 0.16546 0.36849 0.0
C725 C 0.37749 0.16602 0.3745 0.0
C726 C 0.38868 0.17525 0.36728 0.0
C727 C 0.38461 0.18428 0.35396 0.0
C728 C 0.36896 0.18396 0.34813 0.0
C729 C 0.35774 0.17459 0.35534 0.0
C730 C 0.33518 0.16446 0.39043 0.0
C731 C 0.32321 0.15669 0.39818 0.0
C732 C 0.31383 0.16461 0.40851 0.0
C733 C 0.31631 0.18049 0.4114 0.0
C734 C 0.32829 0.18828 0.4035 0.0
C735 C 0.33767 0.18032 0.39312 0.0
P736 P 0.34978 0.8739 0.35651 0.0
H737 H 0.36963 0.88479 0.33174 0.0
H738 H 0.38821 0.87217 0.31503 0.0
H739 H 0.37685 0.82815 0.33637 0.0
H740 H 0.35772 0.84079 0.35246 0.0
H741 H 0.33809 0.90489 0.36215 0.0
H742 H 0.32224 0.9226 0.34601 0.0
H743 H 0.31739 0.88798 0.30924 0.0
H744 H 0.33309 0.87019 0.32565 0.0
H745 H 0.36072 0.85311 0.38132 0.0
H746 H 0.31613 0.86789 0.36178 0.0
O747 O 0.36154 0.88527 0.36777 0.0
H748 H 0.34755 0.83779 0.40119 0.0
H749 H 0.30277 0.85253 0.38177 0.0
C750 C 0.3623 0.86379 0.3434 0.0
C751 C 0.37101 0.87238 0.33268 0.0
C752 C 0.38177 0.86515 0.32324 0.0
C753 C 0.38425 0.84912 0.32444 0.0
C754 C 0.37522 0.84047 0.33499 0.0
C755 C 0.36432 0.84774 0.34435 0.0
C756 C 0.33696 0.88633 0.34499 0.0
C757 C 0.3336 0.90109 0.35062 0.0
C758 C 0.32463 0.91126 0.34131 0.0
C759 C 0.31875 0.90683 0.32619 0.0
C760 C 0.32173 0.89178 0.32081 0.0
C761 C 0.33073 0.88161 0.33016 0.0
C762 C 0.33945 0.86147 0.36991 0.0
C763 C 0.34806 0.85286 0.38116 0.0
C764 C 0.34049 0.84409 0.39252 0.0
C765 C 0.32407 0.84385 0.39304 0.0
C766 C 0.31542 0.85251 0.38173 0.0
C767 C 0.32305 0.86121 0.37022 0.0
P768 P 0.68275 0.69094 0.18964 0.0
H769 H 0.66954 0.70305 0.21842 0.0
H770 H 0.64338 0.71162 0.2242 0.0
H771 H 0.62585 0.69323 0.1793 0.0
H772 H 0.65228 0.68499 0.17347 0.0
H773 H 0.71419 0.67916 0.19028 0.0
H774 H 0.72521 0.65365 0.19477 0.0
H775 H 0.67873 0.6346 0.20013 0.0
H776 H 0.66774 0.66031 0.19514 0.0
H777 H 0.67312 0.71932 0.17408 0.0
H778 H 0.69584 0.67728 0.16093 0.0
O779 O 0.69422 0.70274 0.20073 0.0
H780 H 0.67654 0.7297 0.14753 0.0
H781 H 0.69937 0.68765 0.13438 0.0
C782 C 0.66289 0.69358 0.19542 0.0
C783 C 0.66003 0.7006 0.20994 0.0
C784 C 0.645 0.70547 0.21325 0.0
C785 C 0.63249 0.70333 0.20212 0.0
C786 C 0.63526 0.69536 0.188 0.0
C787 C 0.65033 0.6905 0.18471 0.0
C788 C 0.69018 0.67167 0.19255 0.0
C789 C 0.70636 0.66949 0.19241 0.0
C790 C 0.71265 0.65488 0.19508 0.0
C791 C 0.7029 0.64204 0.19804 0.0
C792 C 0.68659 0.6442 0.19782 0.0
C793 C 0.68028 0.65891 0.19506 0.0
C794 C 0.6842 0.69754 0.16951 0.0
C795 C 0.67868 0.71225 0.16542 0.0
C796 C 0.68059 0.71815 0.15022 0.0
C797 C 0.68824 0.7095 0.13887 0.0
C798 C 0.69355 0.69464 0.14293 0.0
C799 C 0.69151 0.68868 0.15812 0.0
P800 P 0.35392 0.65739 0.16027 0.0
H801 H 0.37505 0.64665 0.18554 0.0
H802 H 0.39363 0.65982 0.20378 0.0
H803 H 0.37888 0.70393 0.1848 0.0
H804 H 0.36 0.69062 0.16689 0.0
H805 H 0.33461 0.63305 0.1459 0.0
H806 H 0.31766 0.61293 0.15657 0.0
H807 H 0.32685 0.63098 0.20369 0.0
H808 H 0.34378 0.65117 0.19289 0.0
H809 H 0.36135 0.67134 0.12995 0.0
H810 H 0.3226 0.67096 0.16101 0.0
O811 O 0.36615 0.64731 0.14952 0.0
H812 H 0.34603 0.68616 0.11044 0.0
H813 H 0.30704 0.68566 0.1414 0.0
C814 C 0.36599 0.66762 0.17498 0.0
C815 C 0.37563 0.65918 0.1855 0.0
C816 C 0.38639 0.66674 0.19582 0.0
C817 C 0.3879 0.68297 0.19574 0.0
C818 C 0.37795 0.69143 0.18536 0.0
C819 C 0.36714 0.68382 0.17505 0.0
C820 C 0.34066 0.64344 0.1686 0.0
C821 C 0.33291 0.63273 0.15852 0.0
C822 C 0.32314 0.62128 0.16463 0.0
C823 C 0.32096 0.62029 0.181 0.0
C824 C 0.32847 0.6313 0.19105 0.0
C825 C 0.33815 0.64286 0.18488 0.0
C826 C 0.34304 0.66985 0.14683 0.0
C827 C 0.34953 0.67447 0.13259 0.0
C828 C 0.34069 0.68284 0.12136 0.0
C829 C 0.32518 0.68689 0.1242 0.0
C830 C 0.31893 0.68274 0.13881 0.0
C831 C 0.3278 0.67432 0.15003 0.0
P832 P 0.36707 0.36206 0.16648 0.0
H833 H 0.37457 0.3935 0.17659 0.0
H834 H 0.36197 0.41185 0.19351 0.0
H835 H 0.32671 0.37733 0.20377 0.0
H836 H 0.33929 0.35908 0.18619 0.0
H837 H 0.40083 0.35864 0.16398 0.0
H838 H 0.41964 0.34112 0.17633 0.0
H839 H 0.38316 0.32096 0.20403 0.0
H840 H 0.3643 0.33888 0.19169 0.0
H841 H 0.33594 0.3675 0.15203 0.0
H842 H 0.36971 0.33096 0.15313 0.0
O843 O 0.37661 0.37308 0.15369 0.0
H844 H 0.32029 0.35342 0.13182 0.0
H845 H 0.35402 0.3167 0.13321 0.0
C846 C 0.35771 0.37501 0.17985 0.0
C847 C 0.3641 0.38985 0.18243 0.0
C848 C 0.35694 0.40033 0.19231 0.0
C849 C 0.34325 0.39617 0.2001 0.0
C850 C 0.33708 0.38107 0.1978 0.0
C851 C 0.34429 0.37057 0.18781 0.0
C852 C 0.38116 0.35014 0.17699 0.0
C853 C 0.39685 0.35059 0.17282 0.0
C854 C 0.40761 0.34042 0.17979 0.0
C855 C 0.40291 0.32949 0.19106 0.0
C856 C 0.3872 0.32929 0.19547 0.0
C857 C 0.37641 0.33951 0.18845 0.0
C858 C 0.35379 0.35014 0.15446 0.0
C859 C 0.33973 0.35622 0.14832 0.0
C860 C 0.33081 0.34814 0.13671 0.0
C861 C 0.33588 0.33388 0.13083 0.0
C862 C 0.34981 0.32768 0.13732 0.0
C863 C 0.3587 0.33577 0.14892 0.0
P864 P 0.654 0.36068 0.16907 0.0
H865 H 0.68454 0.37663 0.16685 0.0
H866 H 0.69726 0.39721 0.18281 0.0
H867 H 0.65982 0.39451 0.21555 0.0
H868 H 0.64711 0.3743 0.1995 0.0
H869 H 0.64731 0.34909 0.13737 0.0
H870 H 0.66168 0.33324 0.1193 0.0
H871 H 0.69954 0.32962 0.15435 0.0
H872 H 0.68497 0.34576 0.17249 0.0
H873 H 0.62078 0.35272 0.16487 0.0
H874 H 0.65879 0.34194 0.19779 0.0
O875 O 0.643 0.37225 0.15757 0.0
H876 H 0.60251 0.33901 0.18152 0.0
H877 H 0.6405 0.328 0.21457 0.0
C878 C 0.66514 0.37348 0.18224 0.0
C879 C 0.67932 0.38015 0.17771 0.0
C880 C 0.68656 0.39196 0.18683 0.0
C881 C 0.67955 0.39752 0.20047 0.0
C882 C 0.66548 0.3906 0.20507 0.0
C883 C 0.65831 0.37883 0.19599 0.0
C884 C 0.66521 0.34891 0.15614 0.0
C885 C 0.65875 0.34499 0.14118 0.0
C886 C 0.66694 0.33579 0.13087 0.0
C887 C 0.6818 0.33014 0.13533 0.0
C888 C 0.68822 0.33396 0.15046 0.0
C889 C 0.67991 0.34314 0.16085 0.0
C890 C 0.64109 0.34857 0.18024 0.0
C891 C 0.62523 0.34724 0.17561 0.0
C892 C 0.61479 0.33932 0.18513 0.0
C893 C 0.62001 0.33252 0.19947 0.0
C894 C 0.63607 0.33332 0.20373 0.0
C895 C 0.64654 0.34118 0.19411 0.0
P896 P 0.70522 0.3441 0.8426 0.0
H897 H 0.68347 0.36215 0.82226 0.0
H898 H 0.65657 0.35724 0.81276 0.0
H899 H 0.65453 0.31658 0.84236 0.0
H900 H 0.68147 0.32154 0.85181 0.0
H901 H 0.71415 0.35947 0.81367 0.0
H902 H 0.72521 0.38497 0.80803 0.0
H903 H 0.724 0.39675 0.8576 0.0
H904 H 0.7129 0.37108 0.86317 0.0
H905 H 0.7319 0.32695 0.85537 0.0
H906 H 0.69065 0.34744 0.87352 0.0
O907 O 0.71363 0.33217 0.83008 0.0
H908 H 0.73908 0.31713 0.88166 0.0
H909 H 0.69772 0.3375 0.90004 0.0
C910 C 0.68445 0.34243 0.83808 0.0
C911 C 0.67718 0.35236 0.827 0.0
C912 C 0.6618 0.34946 0.82143 0.0
C913 C 0.65337 0.3365 0.82677 0.0
C914 C 0.66057 0.32679 0.83816 0.0
C915 C 0.67599 0.32965 0.84363 0.0
C916 C 0.71285 0.36329 0.83885 0.0
C917 C 0.71624 0.36753 0.82334 0.0
C918 C 0.72247 0.38217 0.82012 0.0
C919 C 0.72551 0.39292 0.83237 0.0
C920 C 0.72195 0.38869 0.84793 0.0
C921 C 0.71556 0.37403 0.85112 0.0
C922 C 0.71056 0.33763 0.8624 0.0
C923 C 0.72432 0.32928 0.86502 0.0
C924 C 0.7284 0.32361 0.88008 0.0
C925 C 0.71886 0.32631 0.89294 0.0
C926 C 0.70532 0.3352 0.8904 0.0
C927 C 0.70122 0.34082 0.87524 0.0
P928 P 0.69496 0.6909 0.83892 0.0
H929 H 0.72742 0.69358 0.85026 0.0
H930 H 0.73974 0.70073 0.87584 0.0
H931 H 0.69421 0.70249 0.89606 0.0
H932 H 0.68202 0.69498 0.87051 0.0
H933 H 0.68944 0.6764 0.80815 0.0
H934 H 0.69519 0.65074 0.79787 0.0
H935 H 0.71116 0.63661 0.84473 0.0
H936 H 0.70503 0.66213 0.85493 0.0
H937 H 0.6821 0.72149 0.84193 0.0
H938 H 0.66415 0.67529 0.83336 0.0
O939 O 0.70495 0.70192 0.82649 0.0
H940 H 0.65575 0.7317 0.83858 0.0
H941 H 0.6376 0.68538 0.8302 0.0
C942 C 0.7038 0.69408 0.8584 0.0
C943 C 0.72011 0.69534 0.86026 0.0
C944 C 0.72713 0.69949 0.87488 0.0
C945 C 0.71797 0.70241 0.88798 0.0
C946 C 0.70164 0.70026 0.88627 0.0
C947 C 0.69463 0.69609 0.87161 0.0
C948 C 0.69689 0.67121 0.83226 0.0
C949 C 0.69394 0.66767 0.81624 0.0
C950 C 0.69735 0.65303 0.81036 0.0
C951 C 0.7038 0.64162 0.82042 0.0
C952 C 0.70608 0.64504 0.83665 0.0
C953 C 0.70265 0.6597 0.84251 0.0
C954 C 0.67511 0.69768 0.83775 0.0
C955 C 0.67243 0.71352 0.83947 0.0
C956 C 0.65732 0.71933 0.83765 0.0
C957 C 0.64451 0.70938 0.83407 0.0
C958 C 0.64721 0.6934 0.83273 0.0
C959 C 0.66239 0.6876 0.8346 0.0
P960 P 0.36841 0.6618 0.85984 0.0
H961 H 0.37165 0.62993 0.84972 0.0
H962 H 0.35404 0.61154 0.83598 0.0
H963 H 0.31838 0.6464 0.83254 0.0
H964 H 0.33633 0.66489 0.84609 0.0
H965 H 0.40222 0.66696 0.86067 0.0
H966 H 0.41966 0.68123 0.84368 0.0
H967 H 0.38031 0.69293 0.8126 0.0
H968 H 0.36279 0.6787 0.82997 0.0
H969 H 0.34183 0.65818 0.88015 0.0
H970 H 0.37374 0.69476 0.86744 0.0
O971 O 0.3794 0.65111 0.87225 0.0
H972 H 0.33053 0.6751 0.89967 0.0
H973 H 0.36274 0.71165 0.88714 0.0
C974 C 0.3552 0.64868 0.8492 0.0
C975 C 0.36002 0.63361 0.84607 0.0
C976 C 0.34987 0.62305 0.8383 0.0
C977 C 0.33466 0.62736 0.83336 0.0
C978 C 0.32999 0.64266 0.83618 0.0
C979 C 0.34021 0.65324 0.84398 0.0
C980 C 0.38122 0.67159 0.84648 0.0
C981 C 0.39733 0.67241 0.85011 0.0
C982 C 0.40734 0.68053 0.84029 0.0
C983 C 0.40145 0.68814 0.82665 0.0
C984 C 0.38525 0.68726 0.82303 0.0
C985 C 0.37522 0.67907 0.83289 0.0
C986 C 0.35839 0.67528 0.87206 0.0
C987 C 0.3462 0.66996 0.88134 0.0
C988 C 0.33988 0.6796 0.89265 0.0
C989 C 0.34577 0.69474 0.89507 0.0
C990 C 0.35777 0.70015 0.88547 0.0
C991 C 0.36408 0.69047 0.87416 0.0
P992 P 0.37745 0.37363 0.86094 0.0
H993 H 0.40966 0.37717 0.85193 0.0
H994 H 0.42862 0.35932 0.84156 0.0
H995 H 0.39353 0.3229 0.84025 0.0
H996 H 0.37441 0.34101 0.85028 0.0
H997 H 0.3894 0.40239 0.84796 0.0
H998 H 0.37904 0.42062 0.82842 0.0
H999 H 0.33821 0.39111 0.82063 0.0
H1000 H 0.34926 0.37245 0.83957 0.0
H1001 H 0.37746 0.34583 0.88074 0.0
H1002 H 0.34531 0.38215 0.86814 0.0
O1003 O 0.38793 0.38451 0.87386 0.0
H1004 H 0.35861 0.33488 0.89871 0.0
H1005 H 0.32645 0.37133 0.88618 0.0
C1006 C 0.39076 0.36031 0.85233 0.0
C1007 C 0.406 0.36537 0.84937 0.0
C1008 C 0.41682 0.35517 0.84338 0.0
C1009 C 0.4126 0.33967 0.84026 0.0
C1010 C 0.39716 0.33472 0.84279 0.0
C1011 C 0.38625 0.34505 0.84854 0.0
C1012 C 0.36982 0.38635 0.84566 0.0
C1013 C 0.37822 0.39983 0.84202 0.0
C1014 C 0.3722 0.41033 0.83088 0.0
C1015 C 0.35754 0.40763 0.82316 0.0
C1016 C 0.34951 0.39366 0.82629 0.0
C1017 C 0.35572 0.38302 0.83728 0.0
C1018 C 0.36253 0.36435 0.87237 0.0
C1019 C 0.36617 0.3512 0.88143 0.0
C1020 C 0.35545 0.34507 0.89192 0.0
C1021 C 0.34095 0.35216 0.89381 0.0
C1022 C 0.33735 0.36538 0.88475 0.0
C1023 C 0.34812 0.37152 0.87431 0.0
Cu1024 Cu 0.25936 0.2801 0.00969 0.0
N1025 N 0.25945 0.29703 0.99591 0.0
N1026 N 0.26867 0.31206 0.97668 0.0
C1027 C 0.26972 0.29837 0.98432 0.0
C1028 C 0.25709 0.31959 0.98372 0.0
C1029 C 0.25145 0.3103 0.9956 0.0
O1030 O 0.26039 0.26193 0.99599 0.0
C1031 C 0.27415 0.29555 0.03389 0.0
O1032 O 0.26184 0.30396 0.03036 0.0
H1033 H 0.27797 0.28943 0.98179 0.0
H1034 H 0.24258 0.31331 1.00378 0.0
N1035 N 0.24141 0.2779 0.02152 0.0
N1036 N 0.22665 0.26811 0.04046 0.0
C1037 C 0.24051 0.26767 0.03343 0.0
C1038 C 0.22761 0.28518 0.0209 0.0
C1039 C 0.21847 0.27918 0.03263 0.0
C1040 C 0.24756 0.25885 0.98834 0.0
O1041 O 0.23536 0.26742 0.99085 0.0
H1042 H 0.25008 0.26025 0.03705 0.0
H1043 H 0.22435 0.29411 0.0125 0.0
O1044 O 0.27631 0.28349 0.02559 0.0
H1045 H 0.25335 0.33122 0.98096 0.0
H1046 H 0.20669 0.28259 0.03508 0.0
Cu1047 Cu 0.7655 0.25531 0.01915 0.0
N1048 N 0.7478 0.25826 0.03282 0.0
N1049 N 0.73257 0.26676 0.05181 0.0
C1050 C 0.74606 0.26899 0.04419 0.0
C1051 C 0.72564 0.25426 0.0448 0.0
C1052 C 0.73504 0.24906 0.03314 0.0
O1053 O 0.77702 0.2436 0.03701 0.0
C1054 C 0.75675 0.28049 0.9976 0.0
O1055 O 0.767 0.28834 0.00649 0.0
H1056 H 0.75464 0.27797 0.04705 0.0
H1057 H 0.73284 0.23916 0.02551 0.0
N1058 N 0.78304 0.25221 1.00534 0.0
N1059 N 0.79691 0.24477 0.98487 0.0
C1060 C 0.78338 0.24299 0.99249 0.0
C1061 C 0.79672 0.26004 0.00593 0.0
C1062 C 0.80531 0.25548 0.99333 0.0
C1063 C 0.78412 0.25048 0.04856 0.0
O1064 O 0.78441 0.26567 0.04891 0.0
H1065 H 0.77373 0.23556 0.98853 0.0
H1066 H 0.80006 0.26868 0.01472 0.0
O1067 O 0.75385 0.26642 1.00103 0.0
H1068 H 0.71448 0.24923 0.04779 0.0
H1069 H 0.81685 0.25974 0.9906 0.0
Cu1070 Cu 0.75362 0.77778 0.01348 0.0
N1071 N 0.75533 0.79652 1.00261 0.0
N1072 N 0.76485 0.81329 0.9852 0.0
C1073 C 0.76613 0.79913 0.99176 0.0
C1074 C 0.75274 0.81991 0.99224 0.0
C1075 C 0.74693 0.80954 1.00309 0.0
O1076 O 0.75539 0.76151 0.99765 0.0
C1077 C 0.76634 0.78813 0.04165 0.0
O1078 O 0.75335 0.796 0.04017 0.0
H1079 H 0.77456 0.79061 0.98851 0.0
H1080 H 0.73734 0.81142 0.01077 0.0
N1081 N 0.73433 0.77471 0.0227 0.0
N1082 N 0.71738 0.76475 0.0395 0.0
C1083 C 0.73206 0.76439 0.03431 0.0
C1084 C 0.72054 0.78179 0.02027 0.0
C1085 C 0.71005 0.77573 0.03075 0.0
C1086 C 0.746 0.76327 0.98571 0.0
O1087 O 0.73642 0.775 0.98559 0.0
H1088 H 0.74121 0.7571 0.03921 0.0
H1089 H 0.71826 0.79077 0.01162 0.0
O1090 O 0.76948 0.77859 0.03075 0.0
H1091 H 0.74852 0.83146 0.98987 0.0
H1092 H 0.69802 0.7791 0.03184 0.0
Cu1093 Cu 0.26919 0.76907 0.01138 0.0
N1094 N 0.26633 0.78721 0.02292 0.0
N1095 N 0.25566 0.80244 0.04083 0.0
C1096 C 0.25646 0.78801 0.03489 0.0
C1097 C 0.26542 0.81112 0.03216 0.0
C1098 C 0.27202 0.80166 0.02112 0.0
O1099 O 0.26986 0.75222 0.02686 0.0
C1100 C 0.25493 0.77864 0.98389 0.0
O1101 O 0.26727 0.78781 0.98521 0.0
H1102 H 0.24962 0.7782 0.0388 0.0
H1103 H 0.28013 0.80515 0.01225 0.0
N1104 N 0.28807 0.76822 1.00096 0.0
N1105 N 0.30485 0.75954 0.98345 0.0
C1106 C 0.29056 0.75785 0.9895 0.0
C1107 C 0.30125 0.77685 1.00232 0.0
C1108 C 0.31163 0.77154 0.99148 0.0
C1109 C 0.27988 0.75477 0.03818 0.0
O1110 O 0.2882 0.76765 0.03799 0.0
H1111 H 0.28181 0.74943 0.98549 0.0
H1112 H 0.30319 0.7863 0.01056 0.0
O1113 O 0.25268 0.76861 0.9947 0.0
H1114 H 0.2676 0.8234 0.03363 0.0
H1115 H 0.32331 0.77606 0.9898 0.0
Cu1116 Cu 0.01356 0.26225 0.26292 0.0
N1117 N 0.02643 0.26257 0.24553 0.0
N1118 N 0.04687 0.2568 0.23098 0.0
C1119 C 0.04176 0.25917 0.24569 0.0
C1120 C 0.03428 0.25902 0.22116 0.0
C1121 C 0.02171 0.2625 0.23017 0.0
O1122 O 0.02678 0.26395 0.28209 0.0
C1123 C 0.98792 0.24105 0.2672 0.0
O1124 O 0.98398 0.25016 0.27875 0.0
H1125 H 0.04875 0.2573 0.2564 0.0
H1126 H 0.00973 0.26378 0.22588 0.0
N1127 N 1.00016 0.27915 0.26259 0.0
N1128 N 0.98184 0.29519 0.2708 0.0
C1129 C 0.99203 0.28396 0.27494 0.0
C1130 C 0.99519 0.28781 0.25022 0.0
C1131 C 0.98388 0.2977 0.25523 0.0
C1132 C 0.037 0.25425 0.28676 0.0
O1133 O 0.03762 0.24081 0.27958 0.0
H1134 H 0.99305 0.27873 0.28655 0.0
H1135 H 0.99912 0.28671 0.23829 0.0
O1136 O 1.00076 0.24354 0.26047 0.0
H1137 H 0.03396 0.25754 0.20845 0.0
H1138 H 0.97748 0.30588 0.24789 0.0
Cu1139 Cu 0.75846 1.00337 0.27247 0.0
N1140 N 0.77646 0.01594 0.27386 0.0
N1141 N 0.79245 0.03536 0.26707 0.0
C1142 C 0.77885 0.02773 0.26379 0.0
C1143 C 0.79892 0.02806 0.27978 0.0
C1144 C 0.78906 0.01601 0.2839 0.0
O1145 O 0.74112 0.01793 0.27191 0.0
C1146 C 0.77193 0.97997 0.25709 0.0
O1147 O 0.77999 0.98096 0.2706 0.0
H1148 H 0.77056 0.03078 0.25434 0.0
H1149 H 0.79103 0.00787 0.29345 0.0
N1150 N 0.75559 0.99005 0.28973 0.0
N1151 N 0.74618 0.96939 0.30256 0.0
C1152 C 0.74592 0.97762 0.28895 0.0
C1153 C 0.7622 0.98982 0.30443 0.0
C1154 C 0.75642 0.97711 0.31236 0.0
C1155 C 0.74072 0.02568 0.28475 0.0
O1156 O 0.75112 0.02262 0.29611 0.0
H1157 H 0.73885 0.97475 0.27846 0.0
H1158 H 0.77067 0.99821 0.30906 0.0
O1159 O 0.76099 0.98962 0.25436 0.0
H1160 H 0.81008 0.03103 0.28553 0.0
H1161 H 0.75981 0.97369 0.3243 0.0
Cu1162 Cu 0.00987 0.75417 0.26844 0.0
N1163 N 0.99992 0.77333 0.26929 0.0
N1164 N 0.98199 0.79118 0.26298 0.0
C1165 C 0.98725 0.77684 0.26011 0.0
C1166 C 0.99189 0.79698 0.27441 0.0
C1167 C 1.00291 0.78591 0.27832 0.0
O1168 O 0.99303 0.73852 0.26867 0.0
C1169 C 0.03394 0.76511 0.25154 0.0
O1170 O 0.03533 0.77291 0.26486 0.0
H1171 H 0.98207 0.76896 0.25139 0.0
H1172 H 0.01236 0.78693 0.28715 0.0
N1173 N 0.02367 0.75009 0.28575 0.0
N1174 N 0.04429 0.73999 0.29902 0.0
C1175 C 0.03711 0.74226 0.28473 0.0
C1176 C 0.02227 0.75288 0.30129 0.0
C1177 C 0.03496 0.7466 0.30952 0.0
C1178 C 0.98327 0.74088 0.27944 0.0
O1179 O 0.98573 0.75266 0.28905 0.0
H1180 H 0.04134 0.73795 0.27369 0.0
H1181 H 0.01263 0.75886 0.30632 0.0
O1182 O 0.02269 0.75531 0.2498 0.0
H1183 H 0.99109 0.80829 0.27976 0.0
H1184 H 0.03718 0.74695 0.32221 0.0
Cu1185 Cu 0.23133 0.01069 0.26549 0.0
N1186 N 0.23192 0.02259 0.28392 0.0
N1187 N 0.24087 0.04078 0.30092 0.0
C1188 C 0.24175 0.03472 0.28628 0.0
C1189 C 0.22997 0.03204 0.30806 0.0
C1190 C 0.22447 0.02082 0.29754 0.0
O1191 O 0.23218 0.02563 0.24818 0.0
C1192 C 0.24632 0.98586 0.27825 0.0
O1193 O 0.23342 0.98631 0.28616 0.0
H1194 H 0.24987 0.03859 0.27756 0.0
H1195 H 0.21599 0.01178 0.29983 0.0
N1196 N 0.21304 0.99863 0.26262 0.0
N1197 N 0.19752 0.97928 0.25352 0.0
C1198 C 0.21177 0.98616 0.25311 0.0
C1199 C 0.19909 0.99975 0.26932 0.0
C1200 C 0.18947 0.98785 0.26369 0.0
C1201 C 0.22011 0.03408 0.24689 0.0
O1202 O 0.20863 0.03142 0.25644 0.0
H1203 H 0.22118 0.9823 0.24597 0.0
H1204 H 0.19612 0.00854 0.27773 0.0
O1205 O 0.24855 0.99618 0.26774 0.0
H1206 H 0.22634 0.03351 0.32008 0.0
H1207 H 0.17759 0.98557 0.26703 0.0
Cu1208 Cu 0.01638 0.77389 0.76801 0.0
N1209 N 0.02716 0.75539 0.7658 0.0
N1210 N 0.04587 0.73999 0.75722 0.0
C1211 C 0.04017 0.75446 0.75744 0.0
C1212 C 0.03588 0.73139 0.76571 0.0
C1213 C 0.02433 0.74095 0.77102 0.0
O1214 O 0.0326 0.79003 0.76947 0.0
C1215 C 0.98938 0.76619 0.75125 0.0
O1216 O 0.98801 0.75782 0.76411 0.0
H1217 H 0.04521 0.76428 0.75144 0.0
H1218 H 0.01459 0.73761 0.77811 0.0
N1219 N 1.00491 0.77511 0.78639 0.0
N1220 N 0.98652 0.78333 0.80237 0.0
C1221 C 0.99295 0.78484 0.78812 0.0
C1222 C 0.0062 0.76717 0.80006 0.0
C1223 C 0.99488 0.77226 0.80998 0.0
C1224 C 0.04301 0.78729 0.78029 0.0
O1225 O 0.04126 0.77502 0.78927 0.0
H1226 H 0.98913 0.79294 0.77906 0.0
H1227 H 0.0147 0.75828 0.8026 0.0
O1228 O 1.00148 0.77483 0.74996 0.0
H1229 H 0.03692 0.71914 0.7681 0.0
H1230 H 0.99282 0.76797 0.82176 0.0
Cu1231 Cu 0.27627 0.03017 0.77726 0.0
N1232 N 0.29392 0.04335 0.77732 0.0
N1233 N 0.30956 0.06266 0.7694 0.0
C1234 C 0.29521 0.05594 0.768 0.0
C1235 C 0.31759 0.05394 0.78009 0.0
C1236 C 0.30794 0.04207 0.78495 0.0
O1237 O 0.25824 0.04393 0.77702 0.0
C1238 C 0.28962 0.00694 0.76136 0.0
O1239 O 0.29908 0.00926 0.77376 0.0
H1240 H 0.28595 0.05971 0.75987 0.0
H1241 H 0.31114 0.03289 0.79307 0.0
N1242 N 0.27524 0.01727 0.79514 0.0
N1243 N 0.26731 0.99729 0.80985 0.0
C1244 C 0.26532 1.00509 0.79609 0.0
C1245 C 0.28381 0.01725 0.80884 0.0
C1246 C 0.27898 1.0049 0.81791 0.0
C1247 C 0.25548 0.04998 0.79038 0.0
O1248 O 0.26416 0.04602 0.80283 0.0
H1249 H 0.25705 1.00181 0.78663 0.0
H1250 H 0.29288 0.02561 0.81207 0.0
O1251 O 0.27783 0.01574 0.75952 0.0
H1252 H 0.32965 0.05587 0.78401 0.0
H1253 H 0.2836 1.00186 0.82958 0.0
Cu1254 Cu 0.00698 0.28204 0.7782 0.0
N1255 N 0.99249 0.2981 0.77943 0.0
N1256 N 0.97199 0.31262 0.772 0.0
C1257 C 0.97979 0.2994 0.7696 0.0
C1258 C 0.98011 0.3199 0.78389 0.0
C1259 C 0.99271 0.31091 0.78848 0.0
O1260 O 0.99459 0.26299 0.77964 0.0
C1261 C 0.0233 0.29871 0.75663 0.0
O1262 O 0.01974 0.3095 0.76672 0.0
H1263 H 0.97674 0.29108 0.76039 0.0
H1264 H 1.00169 0.31386 0.79734 0.0
N1265 N 0.02262 0.28178 0.79443 0.0
N1266 N 0.04471 0.27431 0.80718 0.0
C1267 C 0.03578 0.27347 0.79366 0.0
C1268 C 0.02325 0.28819 0.80894 0.0
C1269 C 0.03684 0.28359 0.81683 0.0
C1270 C 0.98912 0.26086 0.7933 0.0
O1271 O 0.99266 0.271 0.80447 0.0
H1272 H 0.03846 0.26652 0.78351 0.0
H1273 H 0.01428 0.29532 0.81368 0.0
O1274 O 0.01837 0.28491 0.75884 0.0
H1275 H 0.97729 0.33103 0.78879 0.0
H1276 H 0.04056 0.28677 0.82878 0.0
Cu1277 Cu 0.76866 0.00932 0.74175 0.0
N1278 N 0.78643 0.02197 0.7392 0.0
N1279 N 0.80325 0.04138 0.74554 0.0
C1280 C 0.78817 0.03649 0.74491 0.0
C1281 C 0.81131 0.0295 0.73968 0.0
C1282 C 0.80096 0.01755 0.73592 0.0
O1283 O 0.75083 0.02297 0.74158 0.0
C1284 C 0.76722 0.98538 0.76554 0.0
O1285 O 0.75521 0.97955 0.75733 0.0
H1286 H 0.7788 0.04281 0.74991 0.0
H1287 H 0.80406 1.006 0.73246 0.0
N1288 N 0.76538 0.99493 0.72527 0.0
N1289 N 0.75386 0.97591 0.71081 0.0
C1290 C 0.75229 0.98629 0.72258 0.0
C1291 C 0.77549 0.99007 0.7146 0.0
C1292 C 0.76845 0.97835 0.70571 0.0
C1293 C 0.74846 0.03274 0.75242 0.0
O1294 O 0.75663 0.03188 0.76586 0.0
H1295 H 0.74203 0.98723 0.72956 0.0
H1296 H 0.78724 0.99452 0.71347 0.0
O1297 O 0.77315 0.99829 0.76144 0.0
H1298 H 0.82389 0.02901 0.73908 0.0
H1299 H 0.77375 0.97208 0.69629 0.0
Cu1300 Cu 0.27329 0.76455 0.5081 0.0
N1301 N 0.28996 0.76694 0.52303 0.0
N1302 N 0.30351 0.77683 0.54397 0.0
C1303 C 0.28998 0.77701 0.53518 0.0
C1304 C 0.31234 0.76616 0.53702 0.0
C1305 C 0.30397 0.76009 0.52413 0.0
O1306 O 0.25463 0.76263 0.5207 0.0
C1307 C 0.28761 0.78228 0.48636 0.0
O1308 O 0.2981 0.77192 0.49042 0.0
H1309 H 0.28033 0.7846 0.53723 0.0
H1310 H 0.30799 0.75151 0.516 0.0
N1311 N 0.27438 0.74666 0.49563 0.0
N1312 N 0.26848 0.73048 0.47553 0.0
C1313 C 0.26596 0.74445 0.48202 0.0
C1314 C 0.28259 0.73362 0.49788 0.0
C1315 C 0.27896 0.72362 0.48552 0.0
C1316 C 0.25465 0.7503 0.52902 0.0
O1317 O 0.26633 0.74076 0.52773 0.0
H1318 H 0.25786 0.75288 0.47718 0.0
H1319 H 0.29043 0.73138 0.50791 0.0
O1320 O 0.27452 0.78179 0.49311 0.0
H1321 H 0.32403 0.76292 0.54093 0.0
H1322 H 0.28373 0.71222 0.484 0.0
Cu1323 Cu 0.75669 0.75126 0.50708 0.0
N1324 N 0.75884 0.7325 0.49654 0.0
N1325 N 0.76733 0.71583 0.47867 0.0
C1326 C 0.76603 0.73084 0.48278 0.0
C1327 C 0.76053 0.70775 0.49031 0.0
C1328 C 0.7553 0.71807 0.50132 0.0
O1329 O 0.75557 0.76696 0.49049 0.0
C1330 C 0.78739 0.74795 0.52099 0.0
O1331 O 0.791 0.74274 0.50703 0.0
H1332 H 0.77096 0.74047 0.47638 0.0
H1333 H 0.74976 0.71526 0.51226 0.0
N1334 N 0.73844 0.75137 0.51845 0.0
N1335 N 0.7215 0.75907 0.5362 0.0
C1336 C 0.73608 0.76068 0.53085 0.0
C1337 C 0.72497 0.74338 0.51595 0.0
C1338 C 0.71448 0.74809 0.52694 0.0
C1339 C 0.7458 0.77795 0.48998 0.0
O1340 O 0.73772 0.78086 0.50248 0.0
H1341 H 0.74485 0.76875 0.53558 0.0
H1342 H 0.72281 0.73504 0.50657 0.0
O1343 O 0.77386 0.75345 0.52276 0.0
H1344 H 0.75961 0.69528 0.49101 0.0
H1345 H 0.70246 0.74418 0.52763 0.0
Cu1346 Cu 0.75184 0.26117 0.50784 0.0
N1347 N 0.73496 0.25875 0.49299 0.0
N1348 N 0.7201 0.24927 0.4727 0.0
C1349 C 0.73331 0.24765 0.4818 0.0
C1350 C 0.71301 0.26175 0.47855 0.0
C1351 C 0.72219 0.26757 0.49102 0.0
O1352 O 0.77071 0.26543 0.49617 0.0
C1353 C 0.73891 0.2401 0.52822 0.0
O1354 O 0.72639 0.24703 0.52243 0.0
H1355 H 0.74147 0.23838 0.48049 0.0
H1356 H 0.7197 0.27755 0.49813 0.0
N1357 N 0.74997 0.27869 0.52056 0.0
N1358 N 0.75605 0.29479 0.54075 0.0
C1359 C 0.75632 0.28007 0.53534 0.0
C1360 C 0.74549 0.29301 0.51639 0.0
C1361 C 0.7491 0.30293 0.52884 0.0
C1362 C 0.7759 0.25785 0.48463 0.0
O1363 O 0.76998 0.24411 0.48125 0.0
H1364 H 0.7617 0.27051 0.54164 0.0
H1365 H 0.74092 0.29624 0.50477 0.0
O1366 O 0.75215 0.24379 0.52274 0.0
H1367 H 0.70216 0.26656 0.47392 0.0
H1368 H 0.74765 0.31534 0.52865 0.0
Cu1369 Cu 0.25216 0.26183 0.53058 0.0
N1370 N 0.23584 0.26313 0.54469 0.0
N1371 N 0.21997 0.27307 0.56235 0.0
C1372 C 0.23178 0.27591 0.55257 0.0
C1373 C 0.21627 0.25795 0.56034 0.0
C1374 C 0.22606 0.25186 0.54945 0.0
O1375 O 0.27203 0.2613 0.54268 0.0
C1376 C 0.23623 0.2794 0.50831 0.0
O1377 O 0.22483 0.27092 0.51389 0.0
H1378 H 0.23737 0.28709 0.5511 0.0
H1379 H 0.22608 0.24002 0.54541 0.0
N1380 N 0.25142 0.24329 0.51932 0.0
N1381 N 0.2577 0.22692 0.50016 0.0
C1382 C 0.25612 0.24187 0.50438 0.0
C1383 C 0.24998 0.22875 0.5248 0.0
C1384 C 0.25369 0.21863 0.51297 0.0
C1385 C 0.27523 0.26846 0.55558 0.0
O1386 O 0.26577 0.27918 0.56029 0.0
H1387 H 0.25916 0.25169 0.49713 0.0
H1388 H 0.24762 0.22573 0.53689 0.0
O1389 O 0.24995 0.27804 0.51458 0.0
H1390 H 0.20739 0.25164 0.56657 0.0
H1391 H 0.25454 0.2062 0.51416 0.0
Cu1392 Cu 0.78089 0.52875 0.77067 0.0
N1393 N 0.79805 0.54241 0.76928 0.0
N1394 N 0.81278 0.56167 0.75987 0.0
C1395 C 0.79845 0.55494 0.75977 0.0
C1396 C 0.82174 0.55312 0.76991 0.0
C1397 C 0.81261 0.54131 0.77578 0.0
O1398 O 0.76269 0.54166 0.77364 0.0
C1399 C 0.7927 0.50964 0.74808 0.0
O1400 O 0.80553 0.51357 0.75618 0.0
H1401 H 0.78859 0.5586 0.75235 0.0
H1402 H 0.8165 0.53218 0.78366 0.0
N1403 N 0.78265 0.51491 0.78771 0.0
N1404 N 0.77727 0.49389 0.80214 0.0
C1405 C 0.77453 0.50148 0.78836 0.0
C1406 C 0.79093 0.51588 0.80155 0.0
C1407 C 0.78759 0.50294 0.8105 0.0
C1408 C 0.7628 0.54876 0.78686 0.0
O1409 O 0.77452 0.5465 0.79704 0.0
H1410 H 0.76641 0.49758 0.77902 0.0
H1411 H 0.79861 0.52542 0.80503 0.0
O1412 O 0.77978 0.51551 0.75189 0.0
H1413 H 0.83408 0.5551 0.77257 0.0
H1414 H 0.79241 0.50041 0.82222 0.0
Cu1415 Cu 0.27099 0.51964 0.74974 0.0
N1416 N 0.28972 0.50877 0.74917 0.0
N1417 N 0.30767 0.49122 0.75606 0.0
C1418 C 0.29309 0.49633 0.75819 0.0
C1419 C 0.31377 0.50089 0.74528 0.0
C1420 C 0.30262 0.51168 0.74099 0.0
O1421 O 0.25413 0.50422 0.75128 0.0
C1422 C 0.28374 0.5453 0.76421 0.0
O1423 O 0.2909 0.54489 0.75075 0.0
H1424 H 0.2851 0.49138 0.76649 0.0
H1425 H 0.30391 0.52109 0.73268 0.0
N1426 N 0.26673 0.53118 0.73136 0.0
N1427 N 0.25746 0.55061 0.71639 0.0
C1428 C 0.25888 0.54456 0.73109 0.0
C1429 C 0.27035 0.52853 0.71627 0.0
C1430 C 0.26461 0.54051 0.70698 0.0
C1431 C 0.25479 0.49317 0.74132 0.0
O1432 O 0.26618 0.49332 0.73134 0.0
H1433 H 0.25425 0.54971 0.74155 0.0
H1434 H 0.2768 0.51868 0.71232 0.0
O1435 O 0.27374 0.53464 0.76703 0.0
H1436 H 0.32542 0.50021 0.74083 0.0
H1437 H 0.26589 0.54183 0.69437 0.0
Cu1438 Cu 0.25613 0.49552 0.2559 0.0
N1439 N 0.23902 0.48194 0.25575 0.0
N1440 N 0.22395 0.46233 0.26386 0.0
C1441 C 0.23686 0.47115 0.26696 0.0
C1442 C 0.21776 0.46783 0.25006 0.0
C1443 C 0.22708 0.47997 0.2451 0.0
O1444 O 0.2742 0.48198 0.25778 0.0
C1445 C 0.26193 0.52119 0.27756 0.0
O1446 O 0.27598 0.52232 0.27191 0.0
H1447 H 0.24493 0.46955 0.27698 0.0
H1448 H 0.22538 0.48674 0.23442 0.0
N1449 N 0.25702 0.50665 0.23691 0.0
N1450 N 0.26381 0.52579 0.22049 0.0
C1451 C 0.26071 0.52178 0.23552 0.0
C1452 C 0.25745 0.50086 0.22219 0.0
C1453 C 0.26159 0.51261 0.21204 0.0
C1454 C 0.28669 0.48401 0.25027 0.0
O1455 O 0.28924 0.4974 0.24341 0.0
H1456 H 0.26174 0.52954 0.2455 0.0
H1457 H 0.25591 0.48875 0.21924 0.0
O1458 O 0.25292 0.51006 0.2731 0.0
H1459 H 0.20726 0.46344 0.24398 0.0
H1460 H 0.26381 0.51123 0.19962 0.0
Cu1461 Cu 0.76147 0.50502 0.25468 0.0
N1462 N 0.77728 0.49042 0.25354 0.0
N1463 N 0.7914 0.46996 0.26125 0.0
C1464 C 0.77899 0.47886 0.2641 0.0
C1465 C 0.79779 0.47624 0.24832 0.0
C1466 C 0.789 0.48884 0.24353 0.0
O1467 O 0.74266 0.49233 0.2567 0.0
C1468 C 0.78065 0.52461 0.27177 0.0
O1469 O 0.78924 0.521 0.25981 0.0
H1470 H 0.77143 0.47729 0.27395 0.0
H1471 H 0.79112 0.4964 0.23362 0.0
N1472 N 0.75946 0.51784 0.23689 0.0
N1473 N 0.75196 0.53857 0.22277 0.0
C1474 C 0.75366 0.53221 0.23733 0.0
C1475 C 0.76162 0.5149 0.22152 0.0
C1476 C 0.75701 0.52769 0.21277 0.0
C1477 C 0.73062 0.49328 0.24744 0.0
O1478 O 0.72893 0.50551 0.23835 0.0
H1479 H 0.75007 0.53757 0.24813 0.0
H1480 H 0.76579 0.5041 0.21697 0.0
O1481 O 0.767 0.5186 0.27246 0.0
H1482 H 0.80802 0.47202 0.24268 0.0
H1483 H 0.7572 0.52877 0.20003 0.0
Cu1484 Cu 0.53464 0.2672 0.77528 0.0
N1485 N 0.52221 0.26747 0.793 0.0
N1486 N 0.502 0.27415 0.80751 0.0
C1487 C 0.50856 0.27499 0.79325 0.0
C1488 C 0.51199 0.26561 0.81657 0.0
C1489 C 0.52444 0.26151 0.80759 0.0
O1490 O 0.5198 0.26443 0.75729 0.0
C1491 C 0.54868 0.29576 0.786 0.0
O1492 O 0.53751 0.29583 0.7962 0.0
H1493 H 0.50396 0.28146 0.78323 0.0
H1494 H 0.53452 0.25493 0.81151 0.0
N1495 N 0.54853 0.25066 0.7752 0.0
N1496 N 0.56832 0.23649 0.76699 0.0
C1497 C 0.56067 0.24999 0.76558 0.0
C1498 C 0.54853 0.23713 0.78311 0.0
C1499 C 0.56069 0.22832 0.778 0.0
C1500 C 0.51267 0.25137 0.75755 0.0
O1501 O 0.51632 0.24167 0.76901 0.0
H1502 H 0.56353 0.25909 0.75734 0.0
H1503 H 0.54008 0.23375 0.7917 0.0
O1504 O 0.54825 0.28561 0.77504 0.0
H1505 H 0.51055 0.2626 0.82885 0.0
H1506 H 0.56369 0.21682 0.78204 0.0
Cu1507 Cu 0.50933 0.77423 0.77384 0.0
N1508 N 0.52235 0.77104 0.79184 0.0
N1509 N 0.54241 0.76175 0.80657 0.0
C1510 C 0.5343 0.76107 0.79255 0.0
C1511 C 0.53508 0.77248 0.81509 0.0
C1512 C 0.52273 0.77821 0.80595 0.0
O1513 O 0.52266 0.77431 0.75553 0.0
C1514 C 0.48332 0.76014 0.7853 0.0
O1515 O 0.48561 0.7719 0.79499 0.0
H1516 H 0.53709 0.75364 0.7828 0.0
H1517 H 0.51483 0.78721 0.80923 0.0
N1518 N 0.49967 0.79352 0.77376 0.0
N1519 N 0.48272 0.81185 0.7664 0.0
C1520 C 0.48579 0.79659 0.76646 0.0
C1521 C 0.5056 0.80732 0.77854 0.0
C1522 C 0.49517 0.81867 0.77397 0.0
C1523 C 0.53532 0.78222 0.75732 0.0
O1524 O 0.53836 0.78927 0.77086 0.0
H1525 H 0.47846 0.78787 0.76056 0.0
H1526 H 0.51695 0.80906 0.78438 0.0
O1527 O 0.49279 0.75841 0.77416 0.0
H1528 H 0.53868 0.77631 0.82687 0.0
H1529 H 0.49676 0.831 0.77578 0.0
Cu1530 Cu 0.49792 0.76411 0.25483 0.0
N1531 N 0.48498 0.78143 0.2539 0.0
N1532 N 0.46723 0.79848 0.2613 0.0
C1533 C 0.47636 0.78652 0.26579 0.0
C1534 C 0.47048 0.80124 0.24606 0.0
C1535 C 0.48141 0.79069 0.24152 0.0
O1536 O 0.48464 0.74552 0.25275 0.0
C1537 C 0.52169 0.75692 0.27885 0.0
O1538 O 0.52201 0.74308 0.27249 0.0
H1539 H 0.47666 0.7814 0.27748 0.0
H1540 H 0.48612 0.78966 0.2299 0.0
N1541 N 0.51088 0.76354 0.23746 0.0
N1542 N 0.53114 0.75656 0.22315 0.0
C1543 C 0.526 0.75936 0.23777 0.0
C1544 C 0.50631 0.76355 0.22206 0.0
C1545 C 0.51876 0.75935 0.21321 0.0
C1546 C 0.47119 0.74381 0.25853 0.0
O1547 O 0.46668 0.75371 0.26913 0.0
H1548 H 0.5328 0.7573 0.24856 0.0
H1549 H 0.49446 0.76544 0.21764 0.0
O1550 O 0.51139 0.76642 0.27389 0.0
H1551 H 0.46493 0.80986 0.23854 0.0
H1552 H 0.51846 0.7578 0.2005 0.0
Cu1553 Cu 0.50146 0.25851 0.27427 0.0
N1554 N 0.48936 0.25762 0.29214 0.0
N1555 N 0.47072 0.2493 0.30808 0.0
C1556 C 0.47782 0.24717 0.29427 0.0
C1557 C 0.47813 0.26165 0.31488 0.0
C1558 C 0.48965 0.26675 0.30502 0.0
O1559 O 0.48654 0.25996 0.25637 0.0
C1560 C 0.52357 0.23608 0.26416 0.0
O1561 O 0.52283 0.24305 0.25033 0.0
H1562 H 0.47456 0.23832 0.28566 0.0
H1563 H 0.49764 0.2764 0.30709 0.0
N1564 N 0.51453 0.27611 0.27439 0.0
N1565 N 0.53423 0.29147 0.26691 0.0
C1566 C 0.52899 0.27678 0.26866 0.0
C1567 C 0.51056 0.2909 0.2767 0.0
C1568 C 0.5227 0.30041 0.27217 0.0
C1569 C 0.48909 0.26789 0.24402 0.0
O1570 O 0.5033 0.27315 0.24173 0.0
H1571 H 0.53521 0.2667 0.26503 0.0
H1572 H 0.49921 0.29455 0.28033 0.0
O1573 O 0.51459 0.24034 0.27492 0.0
H1574 H 0.47559 0.26655 0.32625 0.0
H1575 H 0.52253 0.31291 0.27167 0.0
H1576 H 0.23075 0.21392 0.12572 0.0
H1577 H 0.18141 0.22303 0.11936 0.0
H1578 H 0.23561 0.22716 0.10092 0.0
H1579 H 0.18632 0.23642 0.09457 0.0
H1580 H 0.20546 0.27541 0.06229 0.0
H1581 H 0.199 0.26049 0.08575 0.0
H1582 H 0.23084 0.22494 0.07235 0.0
H1583 H 0.23722 0.23976 0.04895 0.0
C1584 C 0.2209 0.21852 0.11891 0.0
C1585 C 0.20569 0.2174 0.12457 0.0
C1586 C 0.22369 0.22616 0.1047 0.0
C1587 C 0.21135 0.2329 0.09578 0.0
C1588 C 0.19611 0.23156 0.10128 0.0
C1589 C 0.1933 0.22387 0.11548 0.0
C1590 C 0.21092 0.26433 0.06423 0.0
C1591 C 0.222 0.2589 0.05379 0.0
C1592 C 0.20722 0.25576 0.07768 0.0
C1593 C 0.21451 0.24158 0.081 0.0
C1594 C 0.22525 0.23596 0.07032 0.0
C1595 C 0.22892 0.2445 0.0569 0.0
H1596 H 0.81714 0.21338 0.14011 0.0
H1597 H 0.83971 0.18585 0.10533 0.0
H1598 H 0.80374 0.22786 0.11886 0.0
H1599 H 0.82663 0.20049 0.08416 0.0
H1600 H 0.78805 0.21909 0.05046 0.0
H1601 H 0.80047 0.20437 0.07203 0.0
H1602 H 0.80992 0.24672 0.09793 0.0
H1603 H 0.7974 0.26144 0.07643 0.0
C1604 C 0.81921 0.21039 0.12795 0.0
C1605 C 0.82956 0.19849 0.12445 0.0
C1606 C 0.81164 0.21878 0.11576 0.0
C1607 C 0.81411 0.21537 0.09978 0.0
C1608 C 0.82433 0.20335 0.09631 0.0
C1609 C 0.83197 0.19506 0.10847 0.0
C1610 C 0.79277 0.22528 0.06075 0.0
C1611 C 0.79174 0.24147 0.06166 0.0
C1612 C 0.79995 0.21683 0.0731 0.0
C1613 C 0.80621 0.22435 0.08674 0.0
C1614 C 0.80508 0.24053 0.08769 0.0
C1615 C 0.79799 0.24899 0.0753 0.0
H1616 H 0.80721 0.8117 0.13488 0.0
H1617 H 0.83835 0.83097 0.10077 0.0
H1618 H 0.79252 0.79825 0.11363 0.0
H1619 H 0.82374 0.81739 0.07956 0.0
H1620 H 0.7982 0.78374 0.04513 0.0
H1621 H 0.8154 0.79187 0.06768 0.0
H1622 H 0.77516 0.80752 0.09212 0.0
H1623 H 0.75822 0.79944 0.0699 0.0
C1624 C 0.81097 0.81304 0.12288 0.0
C1625 C 0.82389 0.82259 0.11957 0.0
C1626 C 0.80258 0.80527 0.11069 0.0
C1627 C 0.80689 0.80681 0.09486 0.0
C1628 C 0.82021 0.81579 0.09163 0.0
C1629 C 0.82859 0.8236 0.10382 0.0
C1630 C 0.79308 0.78867 0.05546 0.0
C1631 C 0.77688 0.79103 0.0557 0.0
C1632 C 0.80291 0.79343 0.06831 0.0
C1633 C 0.79666 0.80036 0.08172 0.0
C1634 C 0.78039 0.80206 0.08212 0.0
C1635 C 0.77067 0.79752 0.06929 0.0
H1636 H 0.20351 0.81567 0.12644 0.0
H1637 H 0.17835 0.84039 0.08933 0.0
H1638 H 0.22366 0.80924 0.10792 0.0
H1639 H 0.19816 0.83358 0.07075 0.0
H1640 H 0.24345 0.83097 0.04467 0.0
H1641 H 0.22533 0.83883 0.06467 0.0
H1642 H 0.22671 0.79291 0.08479 0.0
H1643 H 0.24515 0.78523 0.06514 0.0
C1644 C 0.20229 0.81976 0.11435 0.0
C1645 C 0.18925 0.82848 0.10937 0.0
C1646 C 0.21377 0.81597 0.1037 0.0
C1647 C 0.21255 0.82089 0.08782 0.0
C1648 C 0.19959 0.82974 0.08291 0.0
C1649 C 0.1881 0.83347 0.09353 0.0
C1650 C 0.24007 0.82263 0.0535 0.0
C1651 C 0.24569 0.80743 0.0532 0.0
C1652 C 0.22955 0.82708 0.06487 0.0
C1653 C 0.22445 0.81647 0.07629 0.0
C1654 C 0.23043 0.80141 0.07626 0.0
C1655 C 0.24089 0.79695 0.06486 0.0
H1656 H 0.21689 0.79407 0.88845 0.0
H1657 H 0.19495 0.82686 0.91874 0.0
H1658 H 0.22759 0.78064 0.91162 0.0
H1659 H 0.20611 0.81355 0.94202 0.0
H1660 H 0.22282 0.78043 0.98168 0.0
H1661 H 0.20703 0.78847 0.95816 0.0
H1662 H 0.24858 0.789 0.93075 0.0
H1663 H 0.26409 0.78121 0.95402 0.0
C1664 C 0.21408 0.79827 0.90005 0.0
C1665 C 0.20509 0.81164 0.90167 0.0
C1666 C 0.22034 0.79061 0.91335 0.0
C1667 C 0.21779 0.79606 0.92867 0.0
C1668 C 0.2082 0.80898 0.93039 0.0
C1669 C 0.20197 0.81672 0.91703 0.0
C1670 C 0.22839 0.78185 0.97048 0.0
C1671 C 0.24462 0.78012 0.96958 0.0
C1672 C 0.21943 0.78661 0.95709 0.0
C1673 C 0.22656 0.78939 0.94258 0.0
C1674 C 0.24266 0.7868 0.94163 0.0
C1675 C 0.25157 0.78236 0.95498 0.0
H1676 H 0.21236 0.19557 0.91443 0.0
H1677 H 0.24146 0.23014 0.89266 0.0
H1678 H 0.2217 0.20448 0.94054 0.0
H1679 H 0.25077 0.23904 0.91872 0.0
H1680 H 0.26997 0.24921 0.96813 0.0
H1681 H 0.26532 0.23395 0.94384 0.0
H1682 H 0.21692 0.22761 0.95542 0.0
H1683 H 0.22161 0.24254 0.97944 0.0
C1684 C 0.2208 0.20502 0.91519 0.0
C1685 C 0.22601 0.21223 0.9014 0.0
C1686 C 0.2262 0.2101 0.93017 0.0
C1687 C 0.23693 0.22255 0.93177 0.0
C1688 C 0.24269 0.22928 0.91797 0.0
C1689 C 0.2373 0.22419 0.90299 0.0
C1690 C 0.25849 0.24413 0.96566 0.0
C1691 C 0.24614 0.2471 0.97563 0.0
C1692 C 0.25577 0.23555 0.95168 0.0
C1693 C 0.2407 0.22963 0.94759 0.0
C1694 C 0.22869 0.2318 0.95819 0.0
C1695 C 0.23136 0.24046 0.97197 0.0
H1696 H 0.80577 0.18809 0.89992 0.0
H1697 H 0.85044 0.21114 0.90795 0.0
H1698 H 0.79562 0.2016 0.92267 0.0
H1699 H 0.84053 0.22432 0.93074 0.0
H1700 H 0.81539 0.25659 0.96244 0.0
H1701 H 0.82372 0.24386 0.93863 0.0
H1702 H 0.79713 0.20296 0.95084 0.0
H1703 H 0.78849 0.216 0.97452 0.0
C1704 C 0.81343 0.19601 0.90656 0.0
C1705 C 0.82888 0.19862 0.902 0.0
C1706 C 0.80764 0.20372 0.91966 0.0
C1707 C 0.8172 0.21416 0.92861 0.0
C1708 C 0.83266 0.21669 0.924 0.0
C1709 C 0.83838 0.20909 0.91088 0.0
C1710 C 0.81136 0.24487 0.96008 0.0
C1711 C 0.80138 0.23728 0.97048 0.0
C1712 C 0.81617 0.23751 0.9464 0.0
C1713 C 0.81127 0.22226 0.94278 0.0
C1714 C 0.80103 0.21476 0.95307 0.0
C1715 C 0.79609 0.2222 0.9667 0.0
H1716 H 0.8393 0.85261 0.93093 0.0
H1717 H 0.80221 0.84262 0.89611 0.0
H1718 H 0.82295 0.8428 0.95171 0.0
H1719 H 0.78571 0.83315 0.91708 0.0
H1720 H 0.75609 0.83339 0.96199 0.0
H1721 H 0.77231 0.84351 0.94096 0.0
H1722 H 0.81144 0.8175 0.95995 0.0
H1723 H 0.79534 0.80762 0.98097 0.0
C1724 C 0.82774 0.84816 0.92764 0.0
C1725 C 0.82215 0.84835 0.91177 0.0
C1726 C 0.81833 0.84262 0.9396 0.0
C1727 C 0.80304 0.83723 0.93603 0.0
C1728 C 0.79738 0.83743 0.92021 0.0
C1729 C 0.80685 0.84286 0.90821 0.0
C1730 C 0.76819 0.82997 0.96171 0.0
C1731 C 0.77443 0.8197 0.9731 0.0
C1732 C 0.77742 0.83562 0.94961 0.0
C1733 C 0.79314 0.83127 0.9488 0.0
C1734 C 0.79941 0.82115 0.96031 0.0
C1735 C 0.79015 0.81539 0.97228 0.0
H1736 H 0.14478 0.23746 0.21695 0.0
H1737 H 0.12006 0.19475 0.20543 0.0
H1738 H 0.12013 0.24963 0.22254 0.0
H1739 H 0.09535 0.20703 0.21089 0.0
H1740 H 0.05314 0.23874 0.20579 0.0
H1741 H 0.07803 0.22714 0.19997 0.0
H1742 H 0.09938 0.24861 0.24171 0.0
H1743 H 0.07456 0.26059 0.24729 0.0
C1744 C 0.13411 0.23059 0.21579 0.0
C1745 C 0.13446 0.21507 0.2108 0.0
C1746 C 0.11996 0.23761 0.21896 0.0
C1747 C 0.10576 0.22933 0.21715 0.0
C1748 C 0.10607 0.21381 0.21218 0.0
C1749 C 0.12024 0.20677 0.20906 0.0
C1750 C 0.06318 0.2412 0.2136 0.0
C1751 C 0.06182 0.25064 0.22701 0.0
C1752 C 0.07741 0.23437 0.21037 0.0
C1753 C 0.09068 0.23686 0.22042 0.0
C1754 C 0.08942 0.24652 0.23367 0.0
C1755 C 0.07515 0.2533 0.23694 0.0
H1756 H 0.849 0.11067 0.23039 0.0
H1757 H 0.80564 0.11246 0.20267 0.0
H1758 H 0.83875 0.0891 0.24556 0.0
H1759 H 0.79516 0.0911 0.21809 0.0
H1760 H 0.78784 0.04191 0.23594 0.0
H1761 H 0.79778 0.06413 0.2216 0.0
H1762 H 0.82078 0.08115 0.26469 0.0
H1763 H 0.81105 0.05862 0.27893 0.0
C1764 C 0.83715 0.10663 0.22772 0.0
C1765 C 0.82814 0.1133 0.2153 0.0
C1766 C 0.83124 0.09424 0.23645 0.0
C1767 C 0.81611 0.08823 0.23307 0.0
C1768 C 0.80698 0.09516 0.22086 0.0
C1769 C 0.81295 0.10747 0.21204 0.0
C1770 C 0.79493 0.05044 0.24238 0.0
C1771 C 0.7986 0.04849 0.25861 0.0
C1772 C 0.80061 0.06326 0.23416 0.0
C1773 C 0.81004 0.07458 0.24195 0.0
C1774 C 0.81374 0.0726 0.25821 0.0
C1775 C 0.80816 0.05968 0.26641 0.0
H1776 H 0.90595 0.85154 0.23115 0.0
H1777 H 0.9068 0.81488 0.19654 0.0
H1778 H 0.92734 0.8394 0.24628 0.0
H1779 H 0.92813 0.80279 0.21161 0.0
H1780 H 0.9562 0.77707 0.24962 0.0
H1781 H 0.93413 0.78922 0.23585 0.0
H1782 H 0.95504 0.83423 0.24518 0.0
H1783 H 0.97717 0.82201 0.25906 0.0
C1784 C 0.91072 0.84092 0.22672 0.0
C1785 C 0.90458 0.8342 0.21261 0.0
C1786 C 0.92302 0.83397 0.2354 0.0
C1787 C 0.92951 0.82009 0.23021 0.0
C1788 C 0.92328 0.81332 0.21615 0.0
C1789 C 0.911 0.82026 0.20749 0.0
C1790 C 0.95619 0.78955 0.24866 0.0
C1791 C 0.9686 0.79853 0.25536 0.0
C1792 C 0.94349 0.79654 0.24074 0.0
C1793 C 0.9428 0.81273 0.23926 0.0
C1794 C 0.95506 0.82174 0.24622 0.0
C1795 C 0.96778 0.81473 0.25418 0.0
H1796 H 0.14658 0.89948 0.2135 0.0
H1797 H 0.18677 0.90576 0.1847 0.0
H1798 H 0.15584 0.92078 0.2305 0.0
H1799 H 0.19571 0.92738 0.20131 0.0
H1800 H 0.21525 0.95605 0.24275 0.0
H1801 H 0.20639 0.9335 0.22749 0.0
H1802 H 0.1587 0.9488 0.22945 0.0
H1803 H 0.16759 0.97138 0.24475 0.0
C1804 C 0.15744 0.90532 0.21085 0.0
C1805 C 0.16591 0.9009 0.1977 0.0
C1806 C 0.16266 0.91767 0.22049 0.0
C1807 C 0.17649 0.92586 0.21725 0.0
C1808 C 0.18509 0.92126 0.20426 0.0
C1809 C 0.17986 0.90895 0.19462 0.0
C1810 C 0.20289 0.95469 0.23985 0.0
C1811 C 0.19216 0.96564 0.24491 0.0
C1812 C 0.1978 0.94173 0.23109 0.0
C1813 C 0.18183 0.93934 0.22716 0.0
C1814 C 0.17106 0.95015 0.23244 0.0
C1815 C 0.17616 0.96313 0.24121 0.0
H1816 H 0.11382 0.84718 0.82291 0.0
H1817 H 0.13965 0.8185 0.79163 0.0
H1818 H 0.08923 0.83636 0.81155 0.0
H1819 H 0.1152 0.80796 0.78022 0.0
H1820 H 0.07164 0.77606 0.78675 0.0
H1821 H 0.09573 0.7903 0.7932 0.0
H1822 H 0.07183 0.83343 0.78532 0.0
H1823 H 0.04742 0.81893 0.77856 0.0
C1824 C 0.11425 0.83872 0.81351 0.0
C1825 C 0.12872 0.83365 0.80825 0.0
C1826 C 0.10018 0.83267 0.80688 0.0
C1827 C 0.10031 0.82129 0.79502 0.0
C1828 C 0.11474 0.81667 0.78939 0.0
C1829 C 0.12875 0.82279 0.79588 0.0
C1830 C 0.07154 0.78859 0.78617 0.0
C1831 C 0.05768 0.79642 0.78218 0.0
C1832 C 0.08537 0.79674 0.78979 0.0
C1833 C 0.08568 0.81298 0.78977 0.0
C1834 C 0.07189 0.8209 0.78547 0.0
C1835 C 0.058 0.81265 0.7815 0.0
H1836 H 0.19838 0.13433 0.79045 0.0
H1837 H 0.22364 0.12983 0.8354 0.0
H1838 H 0.20808 0.10918 0.78229 0.0
H1839 H 0.23319 0.1049 0.82734 0.0
H1840 H 0.23894 0.05566 0.8162 0.0
H1841 H 0.22454 0.07882 0.82215 0.0
H1842 H 0.23254 0.09642 0.77528 0.0
H1843 H 0.2467 0.07279 0.76917 0.0
C1844 C 0.20597 0.128 0.7986 0.0
C1845 C 0.21011 0.13412 0.81366 0.0
C1846 C 0.21154 0.11358 0.79391 0.0
C1847 C 0.22132 0.10491 0.80418 0.0
C1848 C 0.22538 0.11104 0.81923 0.0
C1849 C 0.21986 0.12539 0.82389 0.0
C1850 C 0.23734 0.06432 0.80703 0.0
C1851 C 0.24404 0.06246 0.79226 0.0
C1852 C 0.2292 0.07768 0.81049 0.0
C1853 C 0.2277 0.0897 0.79935 0.0
C1854 C 0.23347 0.0874 0.78414 0.0
C1855 C 0.24154 0.07386 0.78061 0.0
H1856 H 0.91716 0.18727 0.80292 0.0
H1857 H 0.91434 0.21973 0.84145 0.0
H1858 H 0.93888 0.20245 0.7924 0.0
H1859 H 0.93581 0.23478 0.83101 0.0
H1860 H 0.9848 0.24782 0.82177 0.0
H1861 H 0.96378 0.23055 0.82932 0.0
H1862 H 0.94656 0.22831 0.78068 0.0
H1863 H 0.96807 0.2456 0.77299 0.0
C1864 C 0.92104 0.19773 0.80902 0.0
C1865 C 0.9142 0.20217 0.82317 0.0
C1866 C 0.93348 0.2064 0.803 0.0
C1867 C 0.93928 0.21964 0.81104 0.0
C1868 C 0.93193 0.2244 0.82477 0.0
C1869 C 0.9196 0.21578 0.83076 0.0
C1870 C 0.97668 0.24349 0.81261 0.0
C1871 C 0.97798 0.2482 0.79681 0.0
C1872 C 0.96455 0.23367 0.81696 0.0
C1873 C 0.95325 0.22838 0.80568 0.0
C1874 C 0.95506 0.23225 0.78966 0.0
C1875 C 0.96738 0.24209 0.78524 0.0
H1876 H 0.8315 0.94532 0.83685 0.0
H1877 H 0.81227 0.90667 0.80977 0.0
H1878 H 0.81429 0.96273 0.8222 0.0
H1879 H 0.79579 0.92428 0.79434 0.0
H1880 H 0.75818 0.95735 0.77768 0.0
H1881 H 0.77351 0.94032 0.79505 0.0
H1882 H 0.81105 0.97435 0.79722 0.0
H1883 H 0.79553 0.99152 0.78044 0.0
C1884 C 0.8236 0.94049 0.82778 0.0
C1885 C 0.82329 0.92451 0.82458 0.0
C1886 C 0.81384 0.95055 0.8192 0.0
C1887 C 0.8036 0.94498 0.80702 0.0
C1888 C 0.80332 0.92901 0.80377 0.0
C1889 C 0.813 0.9189 0.81246 0.0
C1890 C 0.76961 0.96129 0.78208 0.0
C1891 C 0.77561 0.97581 0.77763 0.0
C1892 C 0.77849 0.95145 0.79192 0.0
C1893 C 0.79363 0.95584 0.79746 0.0
C1894 C 0.79939 0.97059 0.79339 0.0
C1895 C 0.79047 0.98046 0.78369 0.0
H1896 H 0.23367 0.1272 0.21482 0.0
H1897 H 0.1891 0.11446 0.19243 0.0
H1898 H 0.23736 0.10053 0.22324 0.0
H1899 H 0.19324 0.08764 0.20003 0.0
H1900 H 0.19404 0.04986 0.23834 0.0
H1901 H 0.19211 0.0742 0.22436 0.0
H1902 H 0.24177 0.07376 0.2169 0.0
H1903 H 0.24376 0.04927 0.23149 0.0
C1904 C 0.22472 0.11869 0.21153 0.0
C1905 C 0.21093 0.12312 0.20319 0.0
C1906 C 0.22697 0.10331 0.21615 0.0
C1907 C 0.21554 0.09189 0.21248 0.0
C1908 C 0.20218 0.09615 0.20334 0.0
C1909 C 0.19988 0.11155 0.19881 0.0
C1910 C 0.20457 0.05481 0.23357 0.0
C1911 C 0.21909 0.04766 0.23616 0.0
C1912 C 0.20343 0.06877 0.22538 0.0
C1913 C 0.21678 0.07605 0.21947 0.0
C1914 C 0.23126 0.06858 0.22145 0.0
C1915 C 0.2324 0.05448 0.22968 0.0
H1916 H 0.2098 0.91415 0.80994 0.0
H1917 H 0.23127 0.91498 0.85697 0.0
H1918 H 0.22281 0.93854 0.80389 0.0
H1919 H 0.24409 0.93962 0.85108 0.0
H1920 H 0.27817 0.97429 0.82897 0.0
H1921 H 0.26444 0.95052 0.8361 0.0
H1922 H 0.22357 0.96542 0.80892 0.0
H1923 H 0.23747 0.98896 0.80157 0.0
C1924 C 0.2171 0.91969 0.8191 0.0
C1925 C 0.21946 0.91261 0.83396 0.0
C1926 C 0.22457 0.93372 0.81564 0.0
C1927 C 0.23456 0.94115 0.82698 0.0
C1928 C 0.23673 0.93415 0.84194 0.0
C1929 C 0.22933 0.92004 0.84536 0.0
C1930 C 0.26621 0.97254 0.82464 0.0
C1931 C 0.25897 0.9835 0.81462 0.0
C1932 C 0.25829 0.9589 0.82876 0.0
C1933 C 0.24285 0.95594 0.82306 0.0
C1934 C 0.23553 0.96709 0.81328 0.0
C1935 C 0.2435 0.98064 0.80907 0.0
H1936 H 0.1328 0.24146 0.84838 0.0
H1937 H 0.12587 0.21499 0.80531 0.0
H1938 H 0.10821 0.25452 0.84285 0.0
H1939 H 0.10085 0.22747 0.80021 0.0
H1940 H 0.06613 0.26534 0.78633 0.0
H1941 H 0.09042 0.25178 0.79213 0.0
H1942 H 0.08052 0.25143 0.84184 0.0
H1943 H 0.05632 0.2652 0.83601 0.0
C1944 C 0.12602 0.23836 0.83775 0.0
C1945 C 0.13146 0.2272 0.82725 0.0
C1946 C 0.11176 0.24574 0.83467 0.0
C1947 C 0.10247 0.24214 0.82103 0.0
C1948 C 0.10776 0.23075 0.8107 0.0
C1949 C 0.12205 0.2234 0.81376 0.0
C1950 C 0.06907 0.26229 0.79849 0.0
C1951 C 0.05922 0.26639 0.81069 0.0
C1952 C 0.08302 0.25445 0.80183 0.0
C1953 C 0.0875 0.25042 0.81747 0.0
C1954 C 0.07763 0.25453 0.82968 0.0
C1955 C 0.06371 0.26244 0.82634 0.0
H1956 H 0.84622 0.09527 0.82059 0.0
H1957 H 0.82522 0.13079 0.79119 0.0
H1958 H 0.83681 0.07563 0.80188 0.0
H1959 H 0.81577 0.11101 0.77229 0.0
H1960 H 0.7882 0.06814 0.7516 0.0
H1961 H 0.79748 0.0892 0.76886 0.0
H1962 H 0.84188 0.06658 0.77568 0.0
H1963 H 0.83245 0.0453 0.75906 0.0
C1964 C 0.83968 0.09891 0.81005 0.0
C1965 C 0.83662 0.11465 0.80733 0.0
C1966 C 0.83431 0.08763 0.79927 0.0
C1967 C 0.82571 0.09172 0.78542 0.0
C1968 C 0.8223 0.10743 0.78285 0.0
C1969 C 0.82769 0.11877 0.7937 0.0
C1970 C 0.79994 0.06764 0.75677 0.0
C1971 C 0.80946 0.05482 0.75402 0.0
C1972 C 0.80532 0.07982 0.76657 0.0
C1973 C 0.82036 0.07951 0.77387 0.0
C1974 C 0.83011 0.06706 0.77053 0.0
C1975 C 0.82475 0.0549 0.76077 0.0
H1976 H 0.89677 0.82604 0.8187 0.0
H1977 H 0.93029 0.84926 0.8503 0.0
H1978 H 0.91736 0.80914 0.8098 0.0
H1979 H 0.95087 0.83267 0.84117 0.0
H1980 H 0.98084 0.79046 0.83285 0.0
H1981 H 0.95926 0.80563 0.84236 0.0
H1982 H 0.94114 0.81096 0.79432 0.0
H1983 H 0.96248 0.79551 0.78488 0.0
C1984 C 0.90851 0.82752 0.82377 0.0
C1985 C 0.91188 0.83906 0.83515 0.0
C1986 C 0.92034 0.81792 0.81858 0.0
C1987 C 0.93578 0.81954 0.82478 0.0
C1988 C 0.93909 0.83099 0.83627 0.0
C1989 C 0.92731 0.84063 0.84136 0.0
C1990 C 0.97216 0.79473 0.82435 0.0
C1991 C 0.97347 0.79184 0.8081 0.0
C1992 C 0.95986 0.80355 0.82977 0.0
C1993 C 0.94849 0.80959 0.81909 0.0
C1994 C 0.94962 0.80641 0.80288 0.0
C1995 C 0.96197 0.79769 0.79745 0.0
H1996 H 0.80039 0.89342 0.21466 0.0
H1997 H 0.81984 0.92994 0.18622 0.0
H1998 H 0.7855 0.91245 0.2288 0.0
H1999 H 0.80484 0.94894 0.20033 0.0
H2000 H 0.76873 0.97913 0.22437 0.0
H2001 H 0.77838 0.9589 0.20686 0.0
H2002 H 0.79352 0.93244 0.24786 0.0
H2003 H 0.78398 0.95231 0.26504 0.0
C2004 C 0.80148 0.90549 0.21138 0.0
C2005 C 0.81151 0.91011 0.19941 0.0
C2006 C 0.79288 0.91641 0.21945 0.0
C2007 C 0.79405 0.93226 0.21578 0.0
C2008 C 0.80351 0.93683 0.20334 0.0
C2009 C 0.81215 0.9259 0.19527 0.0
C2010 C 0.77387 0.96883 0.22954 0.0
C2011 C 0.77567 0.96734 0.24606 0.0
C2012 C 0.7795 0.95732 0.21956 0.0
C2013 C 0.78674 0.94402 0.22596 0.0
C2014 C 0.78787 0.94237 0.24248 0.0
C2015 C 0.78248 0.95387 0.25235 0.0
H2016 H 0.1157 0.79412 0.20016 0.0
H2017 H 0.07535 0.81215 0.17443 0.0
H2018 H 0.09859 0.77819 0.21607 0.0
H2019 H 0.05822 0.79669 0.19079 0.0
H2020 H 0.03032 0.7619 0.21907 0.0
H2021 H 0.04863 0.77104 0.19925 0.0
H2022 H 0.08147 0.78498 0.23684 0.0
H2023 H 0.06349 0.77582 0.2563 0.0
C2024 C 0.1032 0.79453 0.19771 0.0
C2025 C 0.09693 0.80461 0.18614 0.0
C2026 C 0.09336 0.78548 0.20694 0.0
C2027 C 0.07699 0.78629 0.20486 0.0
C2028 C 0.07075 0.7957 0.19268 0.0
C2029 C 0.08059 0.80474 0.18345 0.0
C2030 C 0.0416 0.76662 0.22299 0.0
C2031 C 0.04542 0.76825 0.23922 0.0
C2032 C 0.05203 0.77196 0.21168 0.0
C2033 C 0.06653 0.7788 0.21644 0.0
C2034 C 0.07055 0.77964 0.23268 0.0
C2035 C 0.06014 0.77448 0.24388 0.0
H2036 H 0.93309 0.17471 0.20871 0.0
H2037 H 0.90036 0.20813 0.22512 0.0
H2038 H 0.95382 0.18677 0.22508 0.0
H2039 H 0.92133 0.22076 0.24079 0.0
H2040 H 0.95886 0.23341 0.2776 0.0
H2041 H 0.93837 0.21828 0.26369 0.0
H2042 H 0.9697 0.20945 0.22598 0.0
H2043 H 0.99027 0.22412 0.24009 0.0
C2044 C 0.93027 0.18461 0.21584 0.0
C2045 C 0.91497 0.1904 0.21556 0.0
C2046 C 0.94225 0.19166 0.22511 0.0
C2047 C 0.93932 0.20479 0.23429 0.0
C2048 C 0.92401 0.21055 0.23407 0.0
C2049 C 0.912 0.20344 0.22486 0.0
C2050 C 0.96146 0.22802 0.26647 0.0
C2051 C 0.97622 0.23004 0.25996 0.0
C2052 C 0.94964 0.21946 0.2584 0.0
C2053 C 0.95226 0.21276 0.24359 0.0
C2054 C 0.96725 0.21428 0.23741 0.0
C2055 C 0.97907 0.22276 0.24551 0.0
H2056 H 0.18465 0.72897 0.60124 0.0
H2057 H 0.23208 0.72441 0.61996 0.0
H2058 H 0.19475 0.73851 0.57612 0.0
H2059 H 0.24192 0.73335 0.59488 0.0
H2060 H 0.24837 0.72238 0.54178 0.0
H2061 H 0.23351 0.71666 0.56504 0.0
H2062 H 0.21963 0.7643 0.56746 0.0
H2063 H 0.23487 0.77027 0.54395 0.0
C2064 C 0.19717 0.73016 0.60011 0.0
C2065 C 0.20754 0.7256 0.61256 0.0
C2066 C 0.20291 0.73563 0.58576 0.0
C2067 C 0.21908 0.7366 0.58365 0.0
C2068 C 0.22939 0.73264 0.59624 0.0
C2069 C 0.22372 0.72733 0.61053 0.0
C2070 C 0.24197 0.73166 0.54703 0.0
C2071 C 0.24297 0.74684 0.54111 0.0
C2072 C 0.23344 0.72833 0.56034 0.0
C2073 C 0.22555 0.74005 0.56803 0.0
C2074 C 0.22559 0.75507 0.56162 0.0
C2075 C 0.23427 0.75846 0.5482 0.0
H2076 H 0.8334 0.73213 0.61464 0.0
H2077 H 0.8425 0.69279 0.58513 0.0
H2078 H 0.81984 0.74468 0.59221 0.0
H2079 H 0.82899 0.70522 0.56285 0.0
H2080 H 0.81669 0.73572 0.52168 0.0
H2081 H 0.83182 0.72644 0.54467 0.0
H2082 H 0.79627 0.74258 0.57529 0.0
H2083 H 0.78129 0.7522 0.5523 0.0
C2084 C 0.83241 0.72611 0.60342 0.0
C2085 C 0.83914 0.71149 0.60168 0.0
C2086 C 0.82466 0.73332 0.59054 0.0
C2087 C 0.82347 0.72606 0.57564 0.0
C2088 C 0.83002 0.71135 0.57401 0.0
C2089 C 0.83774 0.70418 0.58683 0.0
C2090 C 0.81221 0.73753 0.53332 0.0
C2091 C 0.7977 0.7446 0.53509 0.0
C2092 C 0.82082 0.73208 0.54652 0.0
C2093 C 0.81515 0.7335 0.56184 0.0
C2094 C 0.80104 0.74132 0.56369 0.0
C2095 C 0.79242 0.74682 0.55048 0.0
H2096 H 0.78278 0.34396 0.62824 0.0
H2097 H 0.82546 0.32501 0.61141 0.0
H2098 H 0.76796 0.3312 0.60659 0.0
H2099 H 0.81073 0.31239 0.58974 0.0
H2100 H 0.77905 0.28156 0.55926 0.0
H2101 H 0.79222 0.29234 0.58276 0.0
H2102 H 0.76385 0.33313 0.57844 0.0
H2103 H 0.75011 0.32203 0.55531 0.0
C2104 C 0.78901 0.33706 0.61993 0.0
C2105 C 0.80533 0.33553 0.6216 0.0
C2106 C 0.78051 0.32977 0.60747 0.0
C2107 C 0.78811 0.32078 0.59632 0.0
C2108 C 0.8044 0.319 0.5982 0.0
C2109 C 0.81288 0.32624 0.61068 0.0
C2110 C 0.77536 0.2927 0.56339 0.0
C2111 C 0.76345 0.30089 0.5552 0.0
C2112 C 0.78311 0.299 0.57683 0.0
C2113 C 0.77922 0.31369 0.5825 0.0
C2114 C 0.7671 0.32174 0.57454 0.0
C2115 C 0.75932 0.31543 0.56111 0.0
H2116 H 0.20176 0.33275 0.64187 0.0
H2117 H 0.15986 0.33472 0.61179 0.0
H2118 H 0.21355 0.31566 0.6228 0.0
H2119 H 0.17154 0.31752 0.59294 0.0
H2120 H 0.19046 0.27253 0.5728 0.0
H2121 H 0.17931 0.29019 0.59168 0.0
H2122 H 0.22311 0.3156 0.5954 0.0
H2123 H 0.23436 0.29772 0.57678 0.0
C2124 C 0.19511 0.32966 0.63116 0.0
C2125 C 0.17979 0.33502 0.62847 0.0
C2126 C 0.20186 0.31985 0.62024 0.0
C2127 C 0.19342 0.31513 0.60642 0.0
C2128 C 0.17823 0.32069 0.60362 0.0
C2129 C 0.17153 0.33054 0.61446 0.0
C2130 C 0.19772 0.28183 0.5777 0.0
C2131 C 0.21328 0.28373 0.57324 0.0
C2132 C 0.1913 0.29204 0.58841 0.0
C2133 C 0.20032 0.30432 0.59502 0.0
C2134 C 0.21589 0.30619 0.59061 0.0
C2135 C 0.22228 0.29605 0.5798 0.0
H2136 H 0.19404 0.32595 0.42562 0.0
H2137 H 0.23013 0.29638 0.40891 0.0
H2138 H 0.20325 0.32133 0.45286 0.0
H2139 H 0.23892 0.29127 0.43612 0.0
H2140 H 0.25724 0.29007 0.4868 0.0
H2141 H 0.25106 0.30118 0.46065 0.0
H2142 H 0.2019 0.29956 0.47046 0.0
H2143 H 0.20807 0.28884 0.49644 0.0
C2144 C 0.20404 0.31861 0.42772 0.0
C2145 C 0.2112 0.3114 0.41504 0.0
C2146 C 0.20925 0.31585 0.44337 0.0
C2147 C 0.22176 0.30581 0.44674 0.0
C2148 C 0.22935 0.29915 0.43402 0.0
C2149 C 0.22414 0.30191 0.41839 0.0
C2150 C 0.24517 0.29245 0.48348 0.0
C2151 C 0.23315 0.28849 0.49366 0.0
C2152 C 0.2416 0.29867 0.46844 0.0
C2153 C 0.22595 0.30117 0.46337 0.0
C2154 C 0.21407 0.29797 0.47396 0.0
C2155 C 0.21762 0.2917 0.48887 0.0
H2156 H 0.23848 0.71212 0.37822 0.0
H2157 H 0.21493 0.67665 0.40475 0.0
H2158 H 0.25056 0.72232 0.40265 0.0
H2159 H 0.22661 0.68722 0.42932 0.0
H2160 H 0.26399 0.70016 0.46787 0.0
H2161 H 0.25191 0.68965 0.4435 0.0
H2162 H 0.24395 0.73604 0.4263 0.0
H2163 H 0.25652 0.74651 0.45036 0.0
C2164 C 0.23588 0.70648 0.38927 0.0
C2165 C 0.22577 0.69351 0.38948 0.0
C2166 C 0.24268 0.71245 0.40332 0.0
C2167 C 0.23956 0.70562 0.41798 0.0
C2168 C 0.2294 0.69268 0.41823 0.0
C2169 C 0.22255 0.68672 0.40415 0.0
C2170 C 0.25981 0.70812 0.45884 0.0
C2171 C 0.26127 0.7242 0.46113 0.0
C2172 C 0.2527 0.70209 0.44493 0.0
C2173 C 0.24693 0.71199 0.43292 0.0
C2174 C 0.2484 0.72806 0.43521 0.0
C2175 C 0.25546 0.73408 0.44912 0.0
H2176 H 0.8058 0.69308 0.38748 0.0
H2177 H 0.83765 0.67405 0.42304 0.0
H2178 H 0.78908 0.70206 0.40826 0.0
H2179 H 0.82132 0.68352 0.44374 0.0
H2180 H 0.78099 0.68777 0.47648 0.0
H2181 H 0.79619 0.67828 0.45487 0.0
H2182 H 0.78847 0.72102 0.42947 0.0
H2183 H 0.77275 0.73029 0.45083 0.0
C2184 C 0.80927 0.69084 0.39972 0.0
C2185 C 0.82311 0.68286 0.40356 0.0
C2186 C 0.79975 0.69612 0.41164 0.0
C2187 C 0.80381 0.69347 0.4277 0.0
C2188 C 0.8177 0.68558 0.43151 0.0
C2189 C 0.82721 0.68035 0.41962 0.0
C2190 C 0.78231 0.69507 0.46621 0.0
C2191 C 0.77566 0.70985 0.46549 0.0
C2192 C 0.79121 0.68969 0.45387 0.0
C2193 C 0.7937 0.69893 0.44047 0.0
C2194 C 0.78674 0.71356 0.43956 0.0
C2195 C 0.77785 0.71894 0.45191 0.0
H2196 H 0.8103 0.32853 0.42258 0.0
H2197 H 0.83616 0.28873 0.40824 0.0
H2198 H 0.798 0.31304 0.4428 0.0
H2199 H 0.82428 0.27334 0.42894 0.0
H2200 H 0.78559 0.24729 0.45607 0.0
H2201 H 0.79959 0.26177 0.43615 0.0
H2202 H 0.80404 0.30084 0.46788 0.0
H2203 H 0.7898 0.2865 0.48765 0.0
C2204 C 0.81331 0.31645 0.42366 0.0
C2205 C 0.82421 0.30991 0.41368 0.0
C2206 C 0.80642 0.3076 0.43546 0.0
C2207 C 0.81022 0.29193 0.43765 0.0
C2208 C 0.821 0.28533 0.42757 0.0
C2209 C 0.82793 0.29421 0.41577 0.0
C2210 C 0.78975 0.25889 0.4589 0.0
C2211 C 0.78646 0.26573 0.47347 0.0
C2212 C 0.79781 0.2672 0.44746 0.0
C2213 C 0.80279 0.28258 0.45028 0.0
C2214 C 0.80009 0.28916 0.46513 0.0
C2215 C 0.79203 0.28086 0.47656 0.0
H2216 H 0.14017 0.72926 0.72557 0.0
H2217 H 0.11207 0.70092 0.69312 0.0
H2218 H 0.1171 0.73507 0.74021 0.0
H2219 H 0.08878 0.7069 0.70774 0.0
H2220 H 0.05224 0.71124 0.74622 0.0
H2221 H 0.0756 0.70341 0.73266 0.0
H2222 H 0.09407 0.75007 0.73673 0.0
H2223 H 0.07123 0.75765 0.75075 0.0
C2224 C 0.12901 0.72437 0.72146 0.0
C2225 C 0.12795 0.7148 0.70802 0.0
C2226 C 0.11575 0.7277 0.72988 0.0
C2227 C 0.10099 0.72162 0.72508 0.0
C2228 C 0.09996 0.7117 0.71186 0.0
C2229 C 0.1133 0.7083 0.70345 0.0
C2230 C 0.06138 0.71976 0.74437 0.0
C2231 C 0.05977 0.7351 0.74953 0.0
C2232 C 0.0747 0.71532 0.73643 0.0
C2233 C 0.08676 0.72609 0.73357 0.0
C2234 C 0.08515 0.74138 0.73887 0.0
C2235 C 0.0719 0.7458 0.74676 0.0
H2236 H 0.83849 0.65083 0.71978 0.0
H2237 H 0.84606 0.61748 0.68304 0.0
H2238 H 0.82895 0.63002 0.7369 0.0
H2239 H 0.8369 0.59669 0.70025 0.0
H2240 H 0.84018 0.56461 0.74526 0.0
H2241 H 0.84837 0.58585 0.7281 0.0
H2242 H 0.80494 0.60897 0.73549 0.0
H2243 H 0.79659 0.58749 0.75242 0.0
C2244 C 0.83805 0.63907 0.71537 0.0
C2245 C 0.84294 0.63576 0.70007 0.0
C2246 C 0.83257 0.6272 0.72512 0.0
C2247 C 0.83225 0.61176 0.71989 0.0
C2248 C 0.83709 0.60848 0.70458 0.0
C2249 C 0.84223 0.62037 0.69472 0.0
C2250 C 0.83243 0.57427 0.74328 0.0
C2251 C 0.81776 0.57443 0.75017 0.0
C2252 C 0.83707 0.58635 0.73339 0.0
C2253 C 0.82727 0.59903 0.73047 0.0
C2254 C 0.81272 0.59935 0.73759 0.0
C2255 C 0.80792 0.58707 0.74719 0.0
H2256 H 0.88154 0.32922 0.72354 0.0
H2257 H 0.91431 0.36119 0.7031 0.0
H2258 H 0.90233 0.3199 0.74174 0.0
H2259 H 0.93503 0.3518 0.72107 0.0
H2260 H 0.96459 0.34254 0.76603 0.0
H2261 H 0.94267 0.35203 0.74962 0.0
H2262 H 0.92719 0.30503 0.74045 0.0
H2263 H 0.94902 0.29554 0.75708 0.0
C2264 C 0.89315 0.3343 0.72297 0.0
C2265 C 0.89627 0.3459 0.71181 0.0
C2266 C 0.90508 0.32888 0.73331 0.0
C2267 C 0.92035 0.3351 0.73287 0.0
C2268 C 0.92339 0.34685 0.72184 0.0
C2269 C 0.91153 0.35212 0.71143 0.0
C2270 C 0.95641 0.33422 0.76069 0.0
C2271 C 0.95861 0.31826 0.76285 0.0
C2272 C 0.94392 0.33966 0.75115 0.0
C2273 C 0.93319 0.3293 0.74366 0.0
C2274 C 0.93516 0.31334 0.74613 0.0
C2275 C 0.94776 0.30789 0.75554 0.0
H2276 H 0.17414 0.44294 0.70644 0.0
H2277 H 0.20442 0.40611 0.72241 0.0
H2278 H 0.19195 0.46192 0.71901 0.0
H2279 H 0.22204 0.42508 0.73538 0.0
H2280 H 0.25927 0.46438 0.73018 0.0
H2281 H 0.23988 0.44422 0.72443 0.0
H2282 H 0.20423 0.47259 0.7439 0.0
H2283 H 0.22391 0.49304 0.74965 0.0
C2284 C 0.18452 0.43888 0.7128 0.0
C2285 C 0.18797 0.42301 0.71319 0.0
C2286 C 0.19463 0.44976 0.72019 0.0
C2287 C 0.20849 0.44506 0.72812 0.0
C2288 C 0.21154 0.42912 0.72921 0.0
C2289 C 0.20139 0.41822 0.72187 0.0
C2290 C 0.24734 0.46627 0.73347 0.0
C2291 C 0.2431 0.48036 0.74025 0.0
C2292 C 0.23622 0.45462 0.73028 0.0
C2293 C 0.22047 0.45676 0.73365 0.0
C2294 C 0.21627 0.47063 0.74105 0.0
C2295 C 0.22752 0.48229 0.74444 0.0
H2296 H 0.12495 0.27104 0.34189 0.0
H2297 H 0.11164 0.31385 0.31909 0.0
H2298 H 0.10002 0.25923 0.33299 0.0
H2299 H 0.08703 0.30195 0.30979 0.0
H2300 H 0.03916 0.28113 0.3038 0.0
H2301 H 0.06214 0.29185 0.31799 0.0
H2302 H 0.08765 0.25047 0.30805 0.0
H2303 H 0.06456 0.2396 0.2941 0.0
C2304 C 0.11664 0.27799 0.33514 0.0
C2305 C 0.12034 0.29339 0.33116 0.0
C2306 C 0.10241 0.27117 0.3299 0.0
C2307 C 0.0915 0.2796 0.32063 0.0
C2308 C 0.09504 0.29513 0.31705 0.0
C2309 C 0.10926 0.30192 0.32223 0.0
C2310 C 0.04958 0.27418 0.30487 0.0
C2311 C 0.05003 0.25954 0.29767 0.0
C2312 C 0.06281 0.28039 0.31292 0.0
C2313 C 0.07685 0.27214 0.31397 0.0
C2314 C 0.07703 0.25712 0.30756 0.0
C2315 C 0.06377 0.25089 0.29952 0.0
H2316 H 0.24114 0.60773 0.32643 0.0
H2317 H 0.19809 0.59268 0.30247 0.0
H2318 H 0.25357 0.5839 0.3187 0.0
H2319 H 0.21075 0.56915 0.29412 0.0
H2320 H 0.23344 0.52253 0.29116 0.0
H2321 H 0.22135 0.54493 0.30284 0.0
H2322 H 0.26319 0.57209 0.29542 0.0
H2323 H 0.27541 0.54959 0.28407 0.0
C2324 C 0.23424 0.59928 0.31965 0.0
C2325 C 0.21855 0.6022 0.31512 0.0
C2326 C 0.24147 0.58567 0.31502 0.0
C2327 C 0.23324 0.57455 0.3057 0.0
C2328 C 0.21745 0.57732 0.30143 0.0
C2329 C 0.21022 0.59094 0.30607 0.0
C2330 C 0.24016 0.53322 0.29222 0.0
C2331 C 0.25541 0.53423 0.28661 0.0
C2332 C 0.23316 0.54613 0.29881 0.0
C2333 C 0.24118 0.56043 0.29995 0.0
C2334 C 0.25667 0.56126 0.2949 0.0
C2335 C 0.26369 0.54833 0.28834 0.0
H2336 H 0.90825 0.67147 0.29466 0.0
H2337 H 0.90994 0.70465 0.33288 0.0
H2338 H 0.92882 0.68611 0.2816 0.0
H2339 H 0.93022 0.71916 0.3199 0.0
H2340 H 0.95533 0.75069 0.28845 0.0
H2341 H 0.93327 0.73525 0.29694 0.0
H2342 H 0.95715 0.69353 0.28464 0.0
H2343 H 0.97932 0.70927 0.27565 0.0
C2344 C 0.91298 0.68186 0.30029 0.0
C2345 C 0.90725 0.68695 0.31477 0.0
C2346 C 0.92478 0.69023 0.29279 0.0
C2347 C 0.93108 0.70392 0.29958 0.0
C2348 C 0.9254 0.7089 0.31409 0.0
C2349 C 0.91368 0.70057 0.32156 0.0
C2350 C 0.95579 0.73822 0.2873 0.0
C2351 C 0.96912 0.73117 0.28156 0.0
C2352 C 0.94318 0.72935 0.29228 0.0
C2353 C 0.94358 0.71312 0.29187 0.0
C2354 C 0.95648 0.70602 0.28514 0.0
C2355 C 0.96916 0.71499 0.27997 0.0
H2356 H 0.80742 0.40668 0.33887 0.0
H2357 H 0.83991 0.39143 0.30453 0.0
H2358 H 0.79787 0.42636 0.32043 0.0
H2359 H 0.82992 0.41073 0.28581 0.0
H2360 H 0.82113 0.45951 0.2648 0.0
H2361 H 0.83034 0.43852 0.28195 0.0
H2362 H 0.78303 0.42973 0.29595 0.0
H2363 H 0.77389 0.4507 0.27892 0.0
C2364 C 0.81248 0.40746 0.32735 0.0
C2365 C 0.82447 0.39746 0.32324 0.0
C2366 C 0.80688 0.41866 0.31669 0.0
C2367 C 0.81312 0.42017 0.30159 0.0
C2368 C 0.82496 0.41002 0.29738 0.0
C2369 C 0.83055 0.3988 0.30805 0.0
C2370 C 0.81268 0.45298 0.27139 0.0
C2371 C 0.79679 0.45692 0.27058 0.0
C2372 C 0.81795 0.44092 0.28123 0.0
C2373 C 0.80745 0.43248 0.29046 0.0
C2374 C 0.7915 0.43618 0.2893 0.0
C2375 C 0.78625 0.44822 0.27951 0.0
H2376 H 0.2355 0.64724 0.70431 0.0
H2377 H 0.19618 0.62356 0.68108 0.0
H2378 H 0.24751 0.62252 0.71037 0.0
H2379 H 0.20838 0.5987 0.68703 0.0
H2380 H 0.24353 0.55811 0.68804 0.0
H2381 H 0.23139 0.58272 0.68075 0.0
H2382 H 0.24273 0.60037 0.72762 0.0
H2383 H 0.25513 0.57606 0.73472 0.0
C2384 C 0.22932 0.63676 0.7006 0.0
C2385 C 0.21474 0.63744 0.69236 0.0
C2386 C 0.23625 0.62256 0.70405 0.0
C2387 C 0.22886 0.60861 0.6993 0.0
C2388 C 0.21445 0.60924 0.69076 0.0
C2389 C 0.20745 0.6235 0.68735 0.0
C2390 C 0.24351 0.5673 0.69672 0.0
C2391 C 0.25028 0.56508 0.71197 0.0
C2392 C 0.23642 0.58134 0.6926 0.0
C2393 C 0.2361 0.59353 0.70359 0.0
C2394 C 0.2429 0.59129 0.71881 0.0
C2395 C 0.24987 0.57727 0.72295 0.0
H2396 H 0.22276 0.38467 0.32753 0.0
H2397 H 0.177 0.38184 0.30426 0.0
H2398 H 0.22846 0.40823 0.3129 0.0
H2399 H 0.18251 0.40576 0.28997 0.0
H2400 H 0.20662 0.43748 0.25346 0.0
H2401 H 0.19903 0.41487 0.26884 0.0
H2402 H 0.22137 0.43516 0.31071 0.0
H2403 H 0.22894 0.45769 0.29536 0.0
C2404 C 0.21388 0.38911 0.31934 0.0
C2405 C 0.19945 0.38131 0.31703 0.0
C2406 C 0.21708 0.40273 0.31106 0.0
C2407 C 0.20594 0.40892 0.30023 0.0
C2408 C 0.19141 0.40125 0.29809 0.0
C2409 C 0.18818 0.38763 0.30643 0.0
C2410 C 0.20974 0.43722 0.26597 0.0
C2411 C 0.21854 0.44937 0.2731 0.0
C2412 C 0.20537 0.42424 0.27482 0.0
C2413 C 0.20969 0.42312 0.291 0.0
C2414 C 0.21812 0.43548 0.2982 0.0
C2415 C 0.22247 0.44842 0.28938 0.0
H2416 H 0.1274 0.69577 0.34067 0.0
H2417 H 0.13066 0.68982 0.2903 0.0
H2418 H 0.10253 0.70893 0.3364 0.0
H2419 H 0.1055 0.7022 0.28593 0.0
H2420 H 0.06953 0.73974 0.28084 0.0
H2421 H 0.09387 0.7261 0.28585 0.0
H2422 H 0.07597 0.70775 0.32929 0.0
H2423 H 0.05187 0.72209 0.32446 0.0
C2424 C 0.12261 0.69701 0.32869 0.0
C2425 C 0.131 0.69185 0.31582 0.0
C2426 C 0.1083 0.70454 0.32621 0.0
C2427 C 0.10191 0.70688 0.31077 0.0
C2428 C 0.11013 0.7011 0.29797 0.0
C2429 C 0.12453 0.69384 0.30045 0.0
C2430 C 0.07081 0.73276 0.29143 0.0
C2431 C 0.05876 0.73197 0.30223 0.0
C2432 C 0.08476 0.72481 0.2943 0.0
C2433 C 0.087 0.71558 0.30794 0.0
C2434 C 0.07489 0.71486 0.31877 0.0
C2435 C 0.06101 0.72304 0.31601 0.0
H2436 H 0.80604 0.61198 0.31524 0.0
H2437 H 0.83869 0.58014 0.33722 0.0
H2438 H 0.79212 0.59024 0.30218 0.0
H2439 H 0.82465 0.55853 0.32449 0.0
H2440 H 0.81108 0.53028 0.27943 0.0
H2441 H 0.82234 0.55067 0.2962 0.0
H2442 H 0.77603 0.56544 0.30724 0.0
H2443 H 0.76463 0.54472 0.29028 0.0
C2444 C 0.81017 0.60036 0.31736 0.0
C2445 C 0.82353 0.59781 0.3272 0.0
C2446 C 0.80209 0.58791 0.31005 0.0
C2447 C 0.80731 0.57269 0.3123 0.0
C2448 C 0.8204 0.57014 0.32246 0.0
C2449 C 0.82839 0.58252 0.32983 0.0
C2450 C 0.80326 0.53773 0.28558 0.0
C2451 C 0.78698 0.53592 0.28355 0.0
C2452 C 0.80973 0.54938 0.29526 0.0
C2453 C 0.80008 0.55966 0.30304 0.0
C2454 C 0.78374 0.55771 0.30131 0.0
C2455 C 0.77723 0.54581 0.29174 0.0
H2456 H 0.89416 0.31796 0.31215 0.0
H2457 H 0.92906 0.33852 0.34423 0.0
H2458 H 0.91476 0.30862 0.29565 0.0
H2459 H 0.9496 0.32981 0.32736 0.0
H2460 H 0.98274 0.29733 0.30286 0.0
H2461 H 0.96229 0.30664 0.31945 0.0
H2462 H 0.93404 0.31787 0.27768 0.0
H2463 H 0.95421 0.3079 0.26109 0.0
C2464 C 0.90622 0.32046 0.31572 0.0
C2465 C 0.90992 0.32899 0.32955 0.0
C2466 C 0.91804 0.31528 0.30613 0.0
C2467 C 0.93386 0.31851 0.31012 0.0
C2468 C 0.93756 0.32698 0.32399 0.0
C2469 C 0.92575 0.33213 0.33358 0.0
C2470 C 0.97215 0.30168 0.29718 0.0
C2471 C 0.97015 0.30176 0.28059 0.0
C2472 C 0.96046 0.3072 0.30672 0.0
C2473 C 0.94647 0.31297 0.29993 0.0
C2474 C 0.94457 0.3133 0.28333 0.0
C2475 C 0.95626 0.30777 0.27379 0.0
H2476 H 0.82252 0.44476 0.67698 0.0
H2477 H 0.80666 0.41766 0.71635 0.0
H2478 H 0.81207 0.46797 0.68867 0.0
H2479 H 0.79605 0.44099 0.72801 0.0
H2480 H 0.77179 0.48589 0.74129 0.0
H2481 H 0.7766 0.46288 0.72517 0.0
H2482 H 0.82104 0.48259 0.71246 0.0
H2483 H 0.81628 0.50526 0.72846 0.0
C2484 C 0.81676 0.44374 0.68812 0.0
C2485 C 0.81571 0.42937 0.69587 0.0
C2486 C 0.81069 0.45704 0.69477 0.0
C2487 C 0.80335 0.45636 0.70934 0.0
C2488 C 0.80151 0.44188 0.7167 0.0
C2489 C 0.80764 0.42852 0.71003 0.0
C2490 C 0.78235 0.48543 0.73465 0.0
C2491 C 0.79364 0.49736 0.73604 0.0
C2492 C 0.78519 0.47221 0.7256 0.0
C2493 C 0.79922 0.47089 0.71757 0.0
C2494 C 0.81005 0.48327 0.71833 0.0
C2495 C 0.80734 0.49627 0.72753 0.0
H2496 H 0.11131 0.3281 0.72426 0.0
H2497 H 0.07985 0.34646 0.68796 0.0
H2498 H 0.08965 0.3132 0.73503 0.0
H2499 H 0.05828 0.33172 0.6988 0.0
H2500 H 0.0238 0.32515 0.73985 0.0
H2501 H 0.04471 0.33499 0.72381 0.0
H2502 H 0.06918 0.29194 0.73009 0.0
H2503 H 0.04793 0.282 0.74624 0.0
C2504 C 0.09985 0.32879 0.71843 0.0
C2505 C 0.09727 0.33872 0.70543 0.0
C2506 C 0.08745 0.32019 0.72456 0.0
C2507 C 0.07223 0.32137 0.71782 0.0
C2508 C 0.06982 0.33075 0.70439 0.0
C2509 C 0.08218 0.33928 0.69826 0.0
C2510 C 0.03343 0.31762 0.73743 0.0
C2511 C 0.03423 0.30281 0.74419 0.0
C2512 C 0.04542 0.32324 0.72823 0.0
C2513 C 0.05865 0.31427 0.72573 0.0
C2514 C 0.05916 0.29914 0.7319 0.0
C2515 C 0.04695 0.29338 0.74095 0.0
H2516 H 0.90473 0.74431 0.69387 0.0
H2517 H 0.94153 0.71316 0.68188 0.0
H2518 H 0.92373 0.75996 0.70938 0.0
H2519 H 0.96043 0.72911 0.69685 0.0
H2520 H 0.99328 0.76479 0.71922 0.0
H2521 H 0.97369 0.75571 0.69916 0.0
H2522 H 0.93888 0.75376 0.73476 0.0
H2523 H 0.95836 0.76258 0.75463 0.0
C2524 C 0.91684 0.74083 0.69441 0.0
C2525 C 0.92149 0.72733 0.68667 0.0
C2526 C 0.92774 0.74989 0.70319 0.0
C2527 C 0.94358 0.7458 0.70428 0.0
C2528 C 0.94836 0.73274 0.696 0.0
C2529 C 0.93746 0.72357 0.6874 0.0
C2530 C 0.98132 0.76286 0.72258 0.0
C2531 C 0.9773 0.76432 0.73844 0.0
C2532 C 0.97016 0.75755 0.71117 0.0
C2533 C 0.95477 0.75394 0.71542 0.0
C2534 C 0.95057 0.75655 0.73107 0.0
C2535 C 0.96174 0.76155 0.74246 0.0
H2536 H 0.70069 0.21275 0.6155 0.0
H2537 H 0.74381 0.18736 0.61785 0.0
H2538 H 0.70648 0.22164 0.58909 0.0
H2539 H 0.74969 0.19643 0.59129 0.0
H2540 H 0.76125 0.23279 0.55135 0.0
H2541 H 0.75668 0.22026 0.57684 0.0
H2542 H 0.70828 0.21235 0.56237 0.0
H2543 H 0.71276 0.22501 0.53726 0.0
C2544 C 0.7113 0.20883 0.61031 0.0
C2545 C 0.72171 0.19923 0.61887 0.0
C2546 C 0.71465 0.21398 0.59511 0.0
C2547 C 0.72853 0.2097 0.58796 0.0
C2548 C 0.73897 0.20008 0.59647 0.0
C2549 C 0.73558 0.19488 0.61171 0.0
C2550 C 0.74974 0.22806 0.55352 0.0
C2551 C 0.73734 0.23002 0.54233 0.0
C2552 C 0.7471 0.22091 0.56814 0.0
C2553 C 0.73202 0.21555 0.57181 0.0
C2554 C 0.71993 0.21669 0.56016 0.0
C2555 C 0.72254 0.22385 0.54567 0.0
H2556 H 0.3517 0.21989 0.60541 0.0
H2557 H 0.3193 0.23236 0.64101 0.0
H2558 H 0.33635 0.23413 0.58563 0.0
H2559 H 0.30347 0.24596 0.62101 0.0
H2560 H 0.28448 0.27992 0.58473 0.0
H2561 H 0.30259 0.26837 0.60417 0.0
H2562 H 0.312 0.23195 0.57107 0.0
H2563 H 0.29426 0.24369 0.55153 0.0
C2564 C 0.34135 0.22574 0.60907 0.0
C2565 C 0.3368 0.22497 0.62488 0.0
C2566 C 0.33241 0.23377 0.59764 0.0
C2567 C 0.31862 0.2412 0.60166 0.0
C2568 C 0.31412 0.24055 0.61749 0.0
C2569 C 0.32309 0.23256 0.62895 0.0
C2570 C 0.2906 0.26958 0.5815 0.0
C2571 C 0.28785 0.26273 0.56656 0.0
C2572 C 0.30089 0.26287 0.59273 0.0
C2573 C 0.30866 0.24911 0.5893 0.0
C2574 C 0.30636 0.24261 0.57412 0.0
C2575 C 0.29612 0.24935 0.56289 0.0
H2576 H 0.34746 0.82087 0.62732 0.0
H2577 H 0.30995 0.85119 0.61264 0.0
H2578 H 0.33957 0.80286 0.60621 0.0
H2579 H 0.30237 0.83341 0.5912 0.0
H2580 H 0.28388 0.79092 0.5638 0.0
H2581 H 0.29099 0.80778 0.58607 0.0
H2582 H 0.33987 0.80149 0.57743 0.0
H2583 H 0.33279 0.7847 0.55511 0.0
C2584 C 0.33745 0.82364 0.61967 0.0
C2585 C 0.32934 0.8375 0.62171 0.0
C2586 C 0.33304 0.81339 0.60744 0.0
C2587 C 0.32037 0.81669 0.59694 0.0
C2588 C 0.3121 0.83042 0.59914 0.0
C2589 C 0.31655 0.8407 0.61134 0.0
C2590 C 0.29615 0.79319 0.56654 0.0
C2591 C 0.30774 0.78644 0.55753 0.0
C2592 C 0.30023 0.80287 0.57936 0.0
C2593 C 0.31601 0.80604 0.58356 0.0
C2594 C 0.3276 0.79914 0.57469 0.0
C2595 C 0.32353 0.78949 0.56185 0.0
H2596 H 0.67838 0.83288 0.58624 0.0
H2597 H 0.679 0.79558 0.62026 0.0
H2598 H 0.69121 0.81646 0.5674 0.0
H2599 H 0.6921 0.77916 0.60141 0.0
H2600 H 0.6982 0.75037 0.55533 0.0
H2601 H 0.68592 0.76628 0.57518 0.0
H2602 H 0.71693 0.80435 0.56432 0.0
H2603 H 0.72892 0.78863 0.54437 0.0
C2604 C 0.68127 0.82116 0.58969 0.0
C2605 C 0.67764 0.81551 0.60472 0.0
C2606 C 0.68874 0.8118 0.57894 0.0
C2607 C 0.69268 0.79651 0.58292 0.0
C2608 C 0.6891 0.79085 0.59797 0.0
C2609 C 0.68175 0.80029 0.6088 0.0
C2610 C 0.70235 0.76214 0.55718 0.0
C2611 C 0.71455 0.76821 0.54828 0.0
C2612 C 0.69543 0.7712 0.56864 0.0
C2613 C 0.70044 0.78658 0.5713 0.0
C2614 C 0.7127 0.79259 0.56247 0.0
C2615 C 0.71969 0.78352 0.55114 0.0
H2616 H 0.70371 0.8278 0.40838 0.0
H2617 H 0.70817 0.77984 0.39521 0.0
H2618 H 0.71716 0.82251 0.43381 0.0
H2619 H 0.72163 0.77463 0.42045 0.0
H2620 H 0.75693 0.77159 0.46076 0.0
H2621 H 0.74618 0.78002 0.43512 0.0
H2622 H 0.71298 0.80841 0.45848 0.0
H2623 H 0.72389 0.80021 0.48413 0.0
C2624 C 0.70746 0.81612 0.41093 0.0
C2625 C 0.70489 0.80426 0.39969 0.0
C2626 C 0.71522 0.8131 0.42549 0.0
C2627 C 0.72063 0.79818 0.42913 0.0
C2628 C 0.71797 0.78634 0.41791 0.0
C2629 C 0.7102 0.78933 0.40342 0.0
C2630 C 0.74754 0.77987 0.46046 0.0
C2631 C 0.7412 0.78511 0.47454 0.0
C2632 C 0.74127 0.78459 0.44573 0.0
C2633 C 0.72854 0.7947 0.44472 0.0
C2634 C 0.72281 0.80066 0.4588 0.0
C2635 C 0.72906 0.79591 0.47353 0.0
H2636 H 0.71129 0.18443 0.39367 0.0
H2637 H 0.67257 0.21542 0.38676 0.0
H2638 H 0.71872 0.19739 0.41851 0.0
H2639 H 0.68023 0.22877 0.41126 0.0
H2640 H 0.69032 0.24305 0.46224 0.0
H2641 H 0.68185 0.22808 0.43894 0.0
H2642 H 0.73017 0.22023 0.4286 0.0
H2643 H 0.73848 0.23476 0.45217 0.0
C2644 C 0.70439 0.19406 0.39745 0.0
C2645 C 0.69133 0.19887 0.38824 0.0
C2646 C 0.70869 0.20158 0.41168 0.0
C2647 C 0.70018 0.21427 0.41698 0.0
C2648 C 0.68697 0.21892 0.40781 0.0
C2649 C 0.68256 0.21127 0.39369 0.0
C2650 C 0.6991 0.2381 0.45498 0.0
C2651 C 0.71507 0.24009 0.4591 0.0
C2652 C 0.69426 0.22954 0.44154 0.0
C2653 C 0.70528 0.22289 0.43173 0.0
C2654 C 0.72127 0.22486 0.43595 0.0
C2655 C 0.72608 0.23326 0.44948 0.0
H2656 H 0.32638 0.20164 0.43375 0.0
H2657 H 0.28482 0.1776 0.41575 0.0
H2658 H 0.31128 0.21355 0.45418 0.0
H2659 H 0.26969 0.18952 0.43622 0.0
H2660 H 0.25387 0.19836 0.48717 0.0
H2661 H 0.26746 0.18789 0.46483 0.0
H2662 H 0.2908 0.23198 0.45857 0.0
H2663 H 0.27774 0.24225 0.4812 0.0
C2664 C 0.31396 0.1991 0.43397 0.0
C2665 C 0.30683 0.18862 0.42313 0.0
C2666 C 0.30529 0.20592 0.44571 0.0
C2667 C 0.28927 0.20245 0.44688 0.0
C2668 C 0.28206 0.19225 0.43581 0.0
C2669 C 0.29073 0.18542 0.42407 0.0
C2670 C 0.26191 0.20582 0.48105 0.0
C2671 C 0.26472 0.22113 0.4861 0.0
C2672 C 0.26959 0.19987 0.46812 0.0
C2673 C 0.28029 0.20908 0.45994 0.0
C2674 C 0.28279 0.22451 0.46473 0.0
C2675 C 0.27511 0.23046 0.47763 0.0
H2676 H 0.33079 0.81466 0.40317 0.0
H2677 H 0.29969 0.85245 0.41133 0.0
H2678 H 0.32042 0.80082 0.4256 0.0
H2679 H 0.28925 0.83848 0.434 0.0
H2680 H 0.26742 0.79903 0.46664 0.0
H2681 H 0.27454 0.81426 0.44325 0.0
H2682 H 0.32332 0.80555 0.45415 0.0
H2683 H 0.31633 0.79048 0.47702 0.0
C2684 C 0.3217 0.82001 0.40975 0.0
C2685 C 0.31627 0.83478 0.4056 0.0
C2686 C 0.31575 0.81208 0.42263 0.0
C2687 C 0.30421 0.81868 0.43181 0.0
C2688 C 0.29812 0.83309 0.42718 0.0
C2689 C 0.30411 0.84107 0.4142 0.0
C2690 C 0.27965 0.8006 0.4641 0.0
C2691 C 0.29129 0.79338 0.47357 0.0
C2692 C 0.28372 0.80928 0.45072 0.0
C2693 C 0.29949 0.8108 0.44662 0.0
C2694 C 0.31105 0.80424 0.45665 0.0
C2695 C 0.30702 0.79566 0.46986 0.0
H2696 H 0.66022 0.22308 0.73091 0.0
H2697 H 0.62973 0.19607 0.69928 0.0
H2698 H 0.63775 0.23106 0.74543 0.0
H2699 H 0.60729 0.2037 0.71432 0.0
H2700 H 0.57504 0.20745 0.75753 0.0
H2701 H 0.59723 0.19961 0.7421 0.0
H2702 H 0.61357 0.24705 0.74084 0.0
H2703 H 0.59148 0.25484 0.75629 0.0
C2704 C 0.64874 0.21898 0.72687 0.0
C2705 C 0.64689 0.20897 0.71376 0.0
C2706 C 0.63584 0.2235 0.73531 0.0
C2707 C 0.62075 0.21801 0.73104 0.0
C2708 C 0.61882 0.20799 0.718 0.0
C2709 C 0.63171 0.2036 0.70941 0.0
C2710 C 0.58343 0.21617 0.75403 0.0
C2711 C 0.58152 0.23176 0.75814 0.0
C2712 C 0.59604 0.21171 0.74507 0.0
C2713 C 0.60713 0.22272 0.74023 0.0
C2714 C 0.60527 0.23829 0.74446 0.0
C2715 C 0.59257 0.24277 0.75321 0.0
H2716 H 0.32927 0.15217 0.72559 0.0
H2717 H 0.35725 0.11908 0.70154 0.0
H2718 H 0.31944 0.13147 0.7425 0.0
H2719 H 0.34723 0.09845 0.71814 0.0
H2720 H 0.33954 0.06843 0.76153 0.0
H2721 H 0.34925 0.0899 0.74582 0.0
H2722 H 0.30252 0.10784 0.74079 0.0
H2723 H 0.29283 0.08648 0.75685 0.0
C2724 C 0.33333 0.1405 0.72391 0.0
C2725 C 0.34401 0.1373 0.71216 0.0
C2726 C 0.3276 0.12861 0.73352 0.0
C2727 C 0.33257 0.11329 0.73171 0.0
C2728 C 0.34328 0.11013 0.71998 0.0
C2729 C 0.34889 0.12195 0.71033 0.0
C2730 C 0.33134 0.07703 0.75725 0.0
C2731 C 0.31538 0.07567 0.76046 0.0
C2732 C 0.3369 0.08927 0.74809 0.0
C2733 C 0.32666 0.10057 0.74196 0.0
C2734 C 0.31074 0.0994 0.7454 0.0
C2735 C 0.30516 0.08707 0.75448 0.0
H2736 H 0.39812 0.83032 0.71002 0.0
H2737 H 0.41768 0.87564 0.72007 0.0
H2738 H 0.41937 0.81859 0.72566 0.0
H2739 H 0.43846 0.86415 0.73649 0.0
H2740 H 0.48311 0.83889 0.75035 0.0
H2741 H 0.46141 0.8507 0.7356 0.0
H2742 H 0.43072 0.81363 0.75034 0.0
H2743 H 0.45279 0.80151 0.76436 0.0
C2744 C 0.40686 0.83777 0.71583 0.0
C2745 C 0.40632 0.85386 0.71378 0.0
C2746 C 0.41904 0.83107 0.7249 0.0
C2747 C 0.43082 0.84035 0.7324 0.0
C2748 C 0.42992 0.85653 0.73064 0.0
C2749 C 0.41793 0.86317 0.72132 0.0
C2750 C 0.47168 0.83337 0.75051 0.0
C2751 C 0.46963 0.81929 0.75849 0.0
C2752 C 0.45915 0.84016 0.74209 0.0
C2753 C 0.44414 0.83321 0.74169 0.0
C2754 C 0.44209 0.81923 0.75001 0.0
C2755 C 0.45471 0.8123 0.75817 0.0
H2756 H 0.70524 0.88905 0.68815 0.0
H2757 H 0.67379 0.92451 0.67116 0.0
H2758 H 0.72356 0.90898 0.6982 0.0
H2759 H 0.69228 0.94439 0.6807 0.0
H2760 H 0.72226 0.97621 0.71292 0.0
H2761 H 0.70357 0.95597 0.70465 0.0
H2762 H 0.74135 0.92849 0.68808 0.0
H2763 H 0.76006 0.94847 0.69685 0.0
C2764 C 0.70218 0.90108 0.68664 0.0
C2765 C 0.68805 0.90515 0.67878 0.0
C2766 C 0.71277 0.91252 0.69224 0.0
C2767 C 0.70946 0.92833 0.6902 0.0
C2768 C 0.69519 0.93236 0.68261 0.0
C2769 C 0.68464 0.92094 0.67697 0.0
C2770 C 0.72661 0.96581 0.70764 0.0
C2771 C 0.74272 0.96405 0.70556 0.0
C2772 C 0.71586 0.95424 0.70275 0.0
C2773 C 0.72093 0.94056 0.69568 0.0
C2774 C 0.73703 0.93878 0.69364 0.0
C2775 C 0.74777 0.95036 0.69849 0.0
H2776 H 0.5967 0.81804 0.31109 0.0
H2777 H 0.61137 0.77406 0.33037 0.0
H2778 H 0.57216 0.80621 0.30154 0.0
H2779 H 0.58647 0.76245 0.32164 0.0
H2780 H 0.54977 0.74291 0.28516 0.0
H2781 H 0.57319 0.75417 0.29799 0.0
H2782 H 0.54766 0.79547 0.30837 0.0
H2783 H 0.52435 0.78435 0.29506 0.0
C2784 C 0.59468 0.80588 0.31343 0.0
C2785 C 0.60617 0.79706 0.32147 0.0
C2786 C 0.58045 0.7991 0.30812 0.0
C2787 C 0.57723 0.7833 0.31076 0.0
C2788 C 0.58855 0.77458 0.31917 0.0
C2789 C 0.60281 0.78134 0.32441 0.0
C2790 C 0.54905 0.75428 0.29041 0.0
C2791 C 0.53514 0.76272 0.28899 0.0
C2792 C 0.56253 0.76077 0.29783 0.0
C2793 C 0.56246 0.77585 0.30414 0.0
C2794 C 0.54832 0.78398 0.30337 0.0
C2795 C 0.53487 0.77753 0.29586 0.0
H2796 H 0.68601 0.09922 0.32483 0.0
H2797 H 0.70114 0.11686 0.28002 0.0
H2798 H 0.69517 0.0737 0.31801 0.0
H2799 H 0.71125 0.09154 0.27366 0.0
H2800 H 0.72229 0.0414 0.26253 0.0
H2801 H 0.70685 0.06462 0.26711 0.0
H2802 H 0.71997 0.06254 0.31693 0.0
H2803 H 0.7347 0.03948 0.31248 0.0
C2804 C 0.69115 0.09768 0.31345 0.0
C2805 C 0.69299 0.11027 0.30311 0.0
C2806 C 0.6966 0.08302 0.3096 0.0
C2807 C 0.70422 0.08053 0.29537 0.0
C2808 C 0.70542 0.09294 0.2847 0.0
C2809 C 0.69983 0.10757 0.28849 0.0
C2810 C 0.72157 0.0458 0.27447 0.0
C2811 C 0.7298 0.03861 0.28711 0.0
C2812 C 0.71285 0.05917 0.2771 0.0
C2813 C 0.71213 0.06554 0.29242 0.0
C2814 C 0.71995 0.05794 0.30503 0.0
C2815 C 0.72859 0.0447 0.30242 0.0
H2816 H 0.38238 0.21416 0.34306 0.0
H2817 H 0.41442 0.17615 0.34755 0.0
H2818 H 0.40284 0.23008 0.3314 0.0
H2819 H 0.4349 0.19211 0.33636 0.0
H2820 H 0.46337 0.21932 0.30137 0.0
H2821 H 0.44195 0.20391 0.31151 0.0
H2822 H 0.42791 0.24284 0.3393 0.0
H2823 H 0.44911 0.25846 0.32873 0.0
C2824 C 0.39375 0.20917 0.34147 0.0
C2825 C 0.39677 0.19389 0.34628 0.0
C2826 C 0.40552 0.21834 0.33496 0.0
C2827 C 0.42054 0.21239 0.33297 0.0
C2828 C 0.42345 0.19703 0.33757 0.0
C2829 C 0.41174 0.18792 0.34414 0.0
C2830 C 0.45564 0.22469 0.3095 0.0
C2831 C 0.45801 0.24017 0.3142 0.0
C2832 C 0.44343 0.21578 0.31545 0.0
C2833 C 0.43321 0.22211 0.32627 0.0
C2834 C 0.43547 0.23764 0.33088 0.0
C2835 C 0.44774 0.24655 0.32496 0.0
H2836 H 0.29224 0.90071 0.30789 0.0
H2837 H 0.32406 0.93789 0.32195 0.0
H2838 H 0.27589 0.91907 0.29322 0.0
H2839 H 0.30739 0.95634 0.30771 0.0
H2840 H 0.27785 0.98503 0.27244 0.0
H2841 H 0.29648 0.96521 0.28153 0.0
H2842 H 0.25872 0.93927 0.30193 0.0
H2843 H 0.24037 0.95872 0.29285 0.0
C2844 C 0.29586 0.91277 0.3077 0.0
C2845 C 0.30938 0.91783 0.31626 0.0
C2846 C 0.28642 0.92332 0.29939 0.0
C2847 C 0.29026 0.93921 0.29939 0.0
C2848 C 0.30414 0.94419 0.30736 0.0
C2849 C 0.31357 0.93363 0.31572 0.0
C2850 C 0.27357 0.97496 0.27865 0.0
C2851 C 0.25767 0.97349 0.28202 0.0
C2852 C 0.28422 0.96367 0.28394 0.0
C2853 C 0.27908 0.95065 0.29246 0.0
C2854 C 0.26309 0.94901 0.29524 0.0
C2855 C 0.25256 0.96027 0.29014 0.0
H2856 H 0.71815 0.10762 0.69256 0.0
H2857 H 0.71776 0.12814 0.73915 0.0
H2858 H 0.72469 0.08284 0.70441 0.0
H2859 H 0.72293 0.10313 0.751 0.0
H2860 H 0.75241 0.06128 0.76584 0.0
H2861 H 0.74299 0.08575 0.75544 0.0
H2862 H 0.71615 0.06139 0.71865 0.0
H2863 H 0.72631 0.03691 0.72868 0.0
C2864 C 0.71935 0.10688 0.70533 0.0
C2865 C 0.71745 0.12004 0.71481 0.0
C2866 C 0.72283 0.09253 0.71218 0.0
C2867 C 0.72433 0.09084 0.72875 0.0
C2868 C 0.72211 0.10392 0.73822 0.0
C2869 C 0.71886 0.11831 0.73137 0.0
C2870 C 0.74423 0.06111 0.75574 0.0
C2871 C 0.74013 0.04714 0.74808 0.0
C2872 C 0.73878 0.07521 0.74973 0.0
C2873 C 0.72888 0.07569 0.73603 0.0
C2874 C 0.72406 0.06158 0.72895 0.0
C2875 C 0.72972 0.0475 0.73482 0.0
H2876 H 0.68995 0.89364 0.34052 0.0
H2877 H 0.71098 0.87518 0.29907 0.0
H2878 H 0.70188 0.91889 0.33533 0.0
H2879 H 0.72351 0.90003 0.29439 0.0
H2880 H 0.73278 0.94944 0.2809 0.0
H2881 H 0.71867 0.92559 0.28594 0.0
H2882 H 0.72678 0.93212 0.33624 0.0
H2883 H 0.74022 0.95656 0.33124 0.0
C2884 C 0.69705 0.89496 0.33026 0.0
C2885 C 0.69952 0.8823 0.32026 0.0
C2886 C 0.70407 0.9094 0.3274 0.0
C2887 C 0.71374 0.91156 0.31446 0.0
C2888 C 0.71601 0.89894 0.30436 0.0
C2889 C 0.70897 0.88456 0.30718 0.0
C2890 C 0.73141 0.94602 0.29307 0.0
C2891 C 0.73772 0.95511 0.30564 0.0
C2892 C 0.72344 0.93214 0.29596 0.0
C2893 C 0.72162 0.92679 0.31151 0.0
C2894 C 0.72779 0.93591 0.32411 0.0
C2895 C 0.73571 0.94988 0.32122 0.0
H2896 H 0.60132 0.20308 0.32015 0.0
H2897 H 0.61142 0.18485 0.27418 0.0
H2898 H 0.57639 0.21247 0.30959 0.0
H2899 H 0.5861 0.19367 0.26374 0.0
H2900 H 0.54986 0.23083 0.24756 0.0
H2901 H 0.57344 0.21762 0.25688 0.0
H2902 H 0.55084 0.20475 0.29987 0.0
H2903 H 0.52743 0.2183 0.29073 0.0
C2904 C 0.59819 0.20099 0.3078 0.0
C2905 C 0.60847 0.19328 0.29802 0.0
C2906 C 0.58376 0.2062 0.30177 0.0
C2907 C 0.57916 0.20382 0.28579 0.0
C2908 C 0.5893 0.19583 0.27606 0.0
C2909 C 0.60376 0.19062 0.28211 0.0
C2910 C 0.54981 0.22494 0.25887 0.0
C2911 C 0.53679 0.22576 0.26845 0.0
C2912 C 0.56336 0.21732 0.26422 0.0
C2913 C 0.56416 0.21028 0.27925 0.0
C2914 C 0.55079 0.21035 0.2884 0.0
C2915 C 0.5373 0.21802 0.28309 0.0
H2916 H 0.29379 0.12569 0.32321 0.0
H2917 H 0.31211 0.09091 0.35532 0.0
H2918 H 0.27467 0.10689 0.31237 0.0
H2919 H 0.29352 0.07203 0.34407 0.0
H2920 H 0.24855 0.04571 0.33203 0.0
H2921 H 0.26595 0.06577 0.3432 0.0
H2922 H 0.27305 0.08373 0.29629 0.0
H2923 H 0.25517 0.06408 0.2852 0.0
C2924 C 0.29377 0.11404 0.32793 0.0
C2925 C 0.30455 0.10983 0.34011 0.0
C2926 C 0.2829 0.10322 0.32162 0.0
C2927 C 0.2825 0.08793 0.32737 0.0
C2928 C 0.29332 0.08374 0.3395 0.0
C2929 C 0.30417 0.09453 0.34579 0.0
C2930 C 0.25362 0.05406 0.32411 0.0
C2931 C 0.2505 0.05316 0.30768 0.0
C2932 C 0.26376 0.06548 0.3305 0.0
C2933 C 0.27104 0.07631 0.32064 0.0
C2934 C 0.26761 0.07566 0.30426 0.0
C2935 C 0.25747 0.06425 0.29787 0.0
H2936 H 0.41307 0.86079 0.31703 0.0
H2937 H 0.38325 0.82032 0.31049 0.0
H2938 H 0.43295 0.84868 0.30158 0.0
H2939 H 0.40339 0.80809 0.29535 0.0
H2940 H 0.45032 0.7855 0.28444 0.0
H2941 H 0.43027 0.79775 0.29966 0.0
H2942 H 0.4371 0.84029 0.27388 0.0
H2943 H 0.45737 0.82807 0.2588 0.0
C2944 C 0.41064 0.84937 0.31218 0.0
C2945 C 0.39644 0.8416 0.315 0.0
C2946 C 0.42211 0.84242 0.30336 0.0
C2947 C 0.41976 0.82743 0.29722 0.0
C2948 C 0.40564 0.81959 0.30008 0.0
C2949 C 0.3941 0.8266 0.3088 0.0
C2950 C 0.44767 0.79751 0.28212 0.0
C2951 C 0.45552 0.80583 0.27045 0.0
C2952 C 0.43604 0.80448 0.29073 0.0
C2953 C 0.43207 0.81999 0.28797 0.0
C2954 C 0.43998 0.82835 0.27637 0.0
C2955 C 0.4515 0.82133 0.26765 0.0
H2956 H 0.31231 0.94309 0.68556 0.0
H2957 H 0.31548 0.91661 0.72886 0.0
H2958 H 0.30159 0.96481 0.70001 0.0
H2959 H 0.30481 0.93822 0.74321 0.0
H2960 H 0.31222 0.98564 0.76562 0.0
H2961 H 0.31758 0.96338 0.74966 0.0
H2962 H 0.2795 0.97506 0.71707 0.0
H2963 H 0.27396 0.99785 0.73336 0.0
C2964 C 0.31038 0.94176 0.69807 0.0
C2965 C 0.315 0.92819 0.70612 0.0
C2966 C 0.30422 0.95421 0.70634 0.0
C2967 C 0.30259 0.95334 0.7228 0.0
C2968 C 0.30623 0.93938 0.73059 0.0
C2969 C 0.31237 0.927 0.72237 0.0
C2970 C 0.30488 0.9836 0.75509 0.0
C2971 C 0.29259 0.9936 0.75084 0.0
C2972 C 0.30792 0.97067 0.74597 0.0
C2973 C 0.29884 0.96728 0.73221 0.0
C2974 C 0.28668 0.97737 0.72766 0.0
C2975 C 0.28349 0.99038 0.73697 0.0
H2976 H 0.5809 0.83443 0.68725 0.0
H2977 H 0.61626 0.80099 0.69973 0.0
H2978 H 0.56222 0.82038 0.70327 0.0
H2979 H 0.59753 0.78685 0.71567 0.0
H2980 H 0.56671 0.78465 0.76059 0.0
H2981 H 0.58495 0.79349 0.74101 0.0
H2982 H 0.54722 0.79484 0.70564 0.0
H2983 H 0.52885 0.78576 0.72543 0.0
C2984 C 0.58466 0.82405 0.69339 0.0
C2985 C 0.60011 0.81892 0.69236 0.0
C2986 C 0.5739 0.81588 0.70238 0.0
C2987 C 0.57838 0.80248 0.7107 0.0
C2988 C 0.59374 0.79717 0.70942 0.0
C2989 C 0.60445 0.80523 0.70027 0.0
C2990 C 0.56237 0.78648 0.74854 0.0
C2991 C 0.54638 0.78454 0.74451 0.0
C2992 C 0.57283 0.7915 0.7373 0.0
C2993 C 0.56752 0.79496 0.7218 0.0
C2994 C 0.55162 0.79236 0.71754 0.0
C2995 C 0.54114 0.78703 0.72879 0.0
H2996 H 0.42847 0.20471 0.72883 0.0
H2997 H 0.43274 0.23628 0.68957 0.0
H2998 H 0.45218 0.21569 0.74131 0.0
H2999 H 0.45667 0.24734 0.70216 0.0
H3000 H 0.49226 0.27035 0.74071 0.0
H3001 H 0.46807 0.26211 0.72614 0.0
H3002 H 0.47979 0.21435 0.7348 0.0
H3003 H 0.50348 0.22247 0.7493 0.0
C3004 C 0.43448 0.21402 0.72285 0.0
C3005 C 0.42883 0.21945 0.70809 0.0
C3006 C 0.44809 0.22031 0.73 0.0
C3007 C 0.45649 0.2322 0.72257 0.0
C3008 C 0.45047 0.2382 0.70817 0.0
C3009 C 0.43676 0.23187 0.70098 0.0
C3010 C 0.48975 0.25811 0.73918 0.0
C3011 C 0.49965 0.24706 0.74629 0.0
C3012 C 0.4759 0.25339 0.73091 0.0
C3013 C 0.47183 0.23757 0.72967 0.0
C3014 C 0.48232 0.22662 0.73594 0.0
C3015 C 0.49598 0.23129 0.74416 0.0
H3016 H 0.66816 0.72565 0.11921 0.0
H3017 H 0.71545 0.709 0.12316 0.0
H3018 H 0.67386 0.73808 0.09408 0.0
H3019 H 0.72129 0.72164 0.09834 0.0
H3020 H 0.72492 0.73551 0.04755 0.0
H3021 H 0.71663 0.72105 0.07056 0.0
H3022 H 0.68828 0.75952 0.08395 0.0
H3023 H 0.69633 0.77376 0.06061 0.0
C3024 C 0.67978 0.72467 0.1147 0.0
C3025 C 0.69135 0.71632 0.12314 0.0
C3026 C 0.68307 0.73183 0.10033 0.0
C3027 C 0.69805 0.7309 0.09414 0.0
C3028 C 0.70954 0.72237 0.10254 0.0
C3029 C 0.70621 0.71513 0.11682 0.0
C3030 C 0.71687 0.74083 0.05539 0.0
C3031 C 0.71137 0.75581 0.05236 0.0
C3032 C 0.71214 0.73257 0.06862 0.0
C3033 C 0.70192 0.73916 0.07927 0.0
C3034 C 0.69602 0.75398 0.07594 0.0
C3035 C 0.70064 0.76218 0.06258 0.0
H3036 H 0.30516 0.71089 0.12849 0.0
H3037 H 0.32361 0.68213 0.09211 0.0
H3038 H 0.29098 0.72587 0.10826 0.0
H3039 H 0.3098 0.6974 0.07186 0.0
H3040 H 0.27549 0.72303 0.03871 0.0
H3041 H 0.28397 0.70528 0.06003 0.0
H3042 H 0.29961 0.74436 0.08855 0.0
H3043 H 0.29117 0.76182 0.06757 0.0
C3044 C 0.30606 0.70764 0.1162 0.0
C3045 C 0.31568 0.69541 0.11195 0.0
C3046 C 0.29801 0.7163 0.10458 0.0
C3047 C 0.29933 0.71291 0.0884 0.0
C3048 C 0.30842 0.70027 0.08418 0.0
C3049 C 0.31652 0.69165 0.0958 0.0
C3050 C 0.28047 0.72776 0.04967 0.0
C3051 C 0.28275 0.7438 0.05143 0.0
C3052 C 0.28543 0.71762 0.06182 0.0
C3053 C 0.29251 0.72339 0.07601 0.0
C3054 C 0.29406 0.73948 0.07792 0.0
C3055 C 0.28931 0.74951 0.0658 0.0
H3056 H 0.34782 0.31928 0.10518 0.0
H3057 H 0.30415 0.3307 0.12596 0.0
H3058 H 0.3335 0.30848 0.08209 0.0
H3059 H 0.28989 0.31999 0.10289 0.0
H3060 H 0.27171 0.32121 0.0519 0.0
H3061 H 0.28674 0.32866 0.07551 0.0
H3062 H 0.31473 0.28777 0.07179 0.0
H3063 H 0.29949 0.28019 0.04767 0.0
C3064 C 0.33517 0.31925 0.10498 0.0
C3065 C 0.32715 0.32603 0.1174 0.0
C3066 C 0.32696 0.31305 0.09172 0.0
C3067 C 0.31056 0.31353 0.09054 0.0
C3068 C 0.30255 0.31971 0.10326 0.0
C3069 C 0.31072 0.32589 0.11649 0.0
C3070 C 0.28105 0.31371 0.05601 0.0
C3071 C 0.28431 0.30001 0.04786 0.0
C3072 C 0.28962 0.31797 0.06969 0.0
C3073 C 0.30178 0.30871 0.07573 0.0
C3074 C 0.3054 0.29515 0.06744 0.0
C3075 C 0.29669 0.29081 0.05364 0.0
H3076 H 0.71299 0.3312 0.12851 0.0
H3077 H 0.66981 0.30665 0.11675 0.0
H3078 H 0.72639 0.3156 0.10916 0.0
H3079 H 0.68298 0.2915 0.09722 0.0
H3080 H 0.71316 0.25649 0.07425 0.0
H3081 H 0.70197 0.2714 0.09523 0.0
H3082 H 0.72746 0.312 0.08032 0.0
H3083 H 0.73874 0.29696 0.05921 0.0
C3084 C 0.70638 0.32242 0.12188 0.0
C3085 C 0.6903 0.32023 0.12416 0.0
C3086 C 0.71402 0.3136 0.11067 0.0
C3087 C 0.70578 0.30228 0.10159 0.0
C3088 C 0.68977 0.29997 0.10409 0.0
C3089 C 0.68215 0.30879 0.1152 0.0
C3090 C 0.71634 0.26861 0.07534 0.0
C3091 C 0.72671 0.27554 0.06484 0.0
C3092 C 0.70992 0.27718 0.08742 0.0
C3093 C 0.71364 0.29298 0.0894 0.0
C3094 C 0.7244 0.29984 0.07923 0.0
C3095 C 0.73087 0.29122 0.0671 0.0
H3096 H 0.72945 0.29728 0.89969 0.0
H3097 H 0.71774 0.3402 0.92212 0.0
H3098 H 0.73752 0.28659 0.92533 0.0
H3099 H 0.72549 0.32933 0.94794 0.0
H3100 H 0.75985 0.31038 0.98721 0.0
H3101 H 0.7496 0.32151 0.96245 0.0
H3102 H 0.7271 0.27785 0.95031 0.0
H3103 H 0.73749 0.26666 0.97497 0.0
C3104 C 0.72858 0.30444 0.91011 0.0
C3105 C 0.72305 0.31965 0.90881 0.0
C3106 C 0.73304 0.29824 0.92486 0.0
C3107 C 0.73216 0.30708 0.93873 0.0
C3108 C 0.72645 0.32224 0.93748 0.0
C3109 C 0.72188 0.32843 0.9227 0.0
C3110 C 0.75262 0.30317 0.97932 0.0
C3111 C 0.74957 0.28758 0.98308 0.0
C3112 C 0.74667 0.30959 0.96515 0.0
C3113 C 0.73758 0.30057 0.95433 0.0
C3114 C 0.73424 0.28508 0.95826 0.0
C3115 C 0.74012 0.27868 0.97246 0.0
H3116 H 0.71128 0.69538 0.91881 0.0
H3117 H 0.741 0.72454 0.8909 0.0
H3118 H 0.72111 0.70864 0.94288 0.0
H3119 H 0.75098 0.73744 0.91486 0.0
H3120 H 0.74088 0.77182 0.9554 0.0
H3121 H 0.73672 0.7554 0.93229 0.0
H3122 H 0.74562 0.71496 0.96107 0.0
H3123 H 0.75002 0.73167 0.98449 0.0
C3124 C 0.72005 0.70445 0.91782 0.0
C3125 C 0.72525 0.70895 0.90289 0.0
C3126 C 0.72581 0.71191 0.93162 0.0
C3127 C 0.73676 0.72413 0.93074 0.0
C3128 C 0.74247 0.72813 0.9159 0.0
C3129 C 0.73681 0.72064 0.90217 0.0
C3130 C 0.74221 0.75944 0.95679 0.0
C3131 C 0.74577 0.75301 0.97173 0.0
C3132 C 0.7399 0.75003 0.94351 0.0
C3133 C 0.74085 0.73388 0.94484 0.0
C3134 C 0.74478 0.72738 0.95973 0.0
C3135 C 0.74742 0.73691 0.97307 0.0
H3136 H 0.33973 0.72592 0.89464 0.0
H3137 H 0.3389 0.6858 0.92508 0.0
H3138 H 0.33034 0.74179 0.9161 0.0
H3139 H 0.3296 0.70159 0.94646 0.0
H3140 H 0.29674 0.73011 0.97519 0.0
H3141 H 0.30656 0.71496 0.95368 0.0
H3142 H 0.33783 0.75258 0.94202 0.0
H3143 H 0.32748 0.76807 0.96329 0.0
C3144 C 0.33764 0.7205 0.90593 0.0
C3145 C 0.33995 0.70454 0.90806 0.0
C3146 C 0.33229 0.72961 0.91825 0.0
C3147 C 0.32913 0.72298 0.93303 0.0
C3148 C 0.3316 0.70705 0.93517 0.0
C3149 C 0.33692 0.69797 0.92287 0.0
C3150 C 0.30559 0.73527 0.96799 0.0
C3151 C 0.31123 0.7504 0.97098 0.0
C3152 C 0.31139 0.72647 0.95572 0.0
C3153 C 0.32304 0.7325 0.94609 0.0
C3154 C 0.32875 0.74761 0.94909 0.0
C3155 C 0.32295 0.75644 0.96142 0.0
H3156 H 0.34808 0.34252 0.92397 0.0
H3157 H 0.30903 0.34868 0.89081 0.0
H3158 H 0.33036 0.3331 0.94372 0.0
H3159 H 0.29121 0.33901 0.91057 0.0
H3160 H 0.26269 0.33528 0.95558 0.0
H3161 H 0.27994 0.34524 0.93552 0.0
H3162 H 0.31432 0.31124 0.94941 0.0
H3163 H 0.29757 0.30187 0.96983 0.0
C3164 C 0.33571 0.34167 0.92082 0.0
C3165 C 0.33 0.34625 0.90575 0.0
C3166 C 0.32552 0.33626 0.93217 0.0
C3167 C 0.30932 0.33518 0.92875 0.0
C3168 C 0.30358 0.33985 0.91369 0.0
C3169 C 0.31379 0.34535 0.90234 0.0
C3170 C 0.27397 0.33001 0.95446 0.0
C3171 C 0.27864 0.31774 0.96443 0.0
C3172 C 0.28381 0.33561 0.94281 0.0
C3173 C 0.29858 0.32909 0.94084 0.0
C3174 C 0.30315 0.31673 0.9507 0.0
C3175 C 0.29338 0.31118 0.96234 0.0
H3176 H 0.61303 0.71789 0.18052 0.0
H3177 H 0.61689 0.70494 0.22987 0.0
H3178 H 0.58862 0.73097 0.18522 0.0
H3179 H 0.59252 0.71814 0.23457 0.0
H3180 H 0.55848 0.75783 0.24057 0.0
H3181 H 0.58263 0.74455 0.23531 0.0
H3182 H 0.5615 0.72612 0.19198 0.0
H3183 H 0.53732 0.73928 0.19727 0.0
C3184 C 0.60856 0.7176 0.19233 0.0
C3185 C 0.61698 0.71033 0.20481 0.0
C3186 C 0.59457 0.72517 0.19503 0.0
C3187 C 0.58864 0.72571 0.21029 0.0
C3188 C 0.5969 0.7182 0.22272 0.0
C3189 C 0.61087 0.7106 0.22002 0.0
C3190 C 0.55892 0.75091 0.22995 0.0
C3191 C 0.54584 0.74963 0.2194 0.0
C3192 C 0.57279 0.74326 0.22694 0.0
C3193 C 0.57399 0.73416 0.21328 0.0
C3194 C 0.56104 0.73315 0.20255 0.0
C3195 C 0.54715 0.74076 0.20557 0.0
H3196 H 0.29261 0.60898 0.16963 0.0
H3197 H 0.3277 0.60239 0.20698 0.0
H3198 H 0.27765 0.58698 0.17946 0.0
H3199 H 0.31297 0.58025 0.21665 0.0
H3200 H 0.27771 0.54874 0.23853 0.0
H3201 H 0.29001 0.57231 0.22943 0.0
H3202 H 0.27839 0.55945 0.18099 0.0
H3203 H 0.26524 0.53618 0.19013 0.0
C3204 C 0.29715 0.6028 0.17992 0.0
C3205 C 0.31136 0.60744 0.18751 0.0
C3206 C 0.28859 0.59014 0.18554 0.0
C3207 C 0.29408 0.58174 0.19884 0.0
C3208 C 0.3082 0.58656 0.20655 0.0
C3209 C 0.31669 0.59927 0.20099 0.0
C3210 C 0.27744 0.55095 0.22594 0.0
C3211 C 0.27042 0.54032 0.2151 0.0
C3212 C 0.28475 0.56447 0.22069 0.0
C3213 C 0.28538 0.56779 0.20445 0.0
C3214 C 0.27806 0.55739 0.19361 0.0
C3215 C 0.27064 0.54389 0.19886 0.0
H3216 H 0.40646 0.31988 0.22194 0.0
H3217 H 0.42543 0.31379 0.1758 0.0
H3218 H 0.42644 0.30292 0.23341 0.0
H3219 H 0.44536 0.29684 0.18725 0.0
H3220 H 0.49017 0.2863 0.21776 0.0
H3221 H 0.46856 0.29957 0.20435 0.0
H3222 H 0.43604 0.27649 0.2346 0.0
H3223 H 0.45772 0.26337 0.24825 0.0
C3224 C 0.41475 0.31475 0.2142 0.0
C3225 C 0.41443 0.31835 0.19798 0.0
C3226 C 0.4262 0.30499 0.22078 0.0
C3227 C 0.43759 0.29856 0.21127 0.0
C3228 C 0.43696 0.3018 0.19497 0.0
C3229 C 0.42553 0.31155 0.18841 0.0
C3230 C 0.4784 0.28383 0.2214 0.0
C3231 C 0.47573 0.27383 0.23416 0.0
C3232 C 0.46597 0.29143 0.21366 0.0
C3233 C 0.45054 0.28923 0.21848 0.0
C3234 C 0.44779 0.27866 0.23076 0.0
C3235 C 0.46023 0.27102 0.23849 0.0
H3236 H 0.71035 0.40366 0.20874 0.0
H3237 H 0.66402 0.42218 0.21214 0.0
H3238 H 0.72136 0.42653 0.22228 0.0
H3239 H 0.67496 0.44481 0.226 0.0
H3240 H 0.70391 0.491 0.22875 0.0
H3241 H 0.69094 0.46742 0.21898 0.0
H3242 H 0.72251 0.44006 0.24816 0.0
H3243 H 0.73561 0.46365 0.25787 0.0
C3244 C 0.70252 0.41256 0.21245 0.0
C3245 C 0.68631 0.41107 0.20935 0.0
C3246 C 0.70879 0.42559 0.22037 0.0
C3247 C 0.69902 0.43749 0.22526 0.0
C3248 C 0.68281 0.4359 0.22231 0.0
C3249 C 0.67654 0.42285 0.21449 0.0
C3250 C 0.7079 0.47998 0.23334 0.0
C3251 C 0.72087 0.47925 0.24403 0.0
C3252 C 0.70044 0.46644 0.22774 0.0
C3253 C 0.70581 0.45184 0.23264 0.0
C3254 C 0.71826 0.45112 0.24396 0.0
C3255 C 0.72565 0.46467 0.24965 0.0
H3256 H 0.62768 0.32658 0.84247 0.0
H3257 H 0.64304 0.33761 0.79569 0.0
H3258 H 0.60209 0.31882 0.83121 0.0
H3259 H 0.61728 0.33015 0.78444 0.0
H3260 H 0.57673 0.2945 0.77128 0.0
H3261 H 0.60166 0.30609 0.78041 0.0
H3262 H 0.57854 0.32929 0.81796 0.0
H3263 H 0.55369 0.31766 0.80897 0.0
C3264 C 0.62556 0.32743 0.82978 0.0
C3265 C 0.63743 0.3327 0.81999 0.0
C3266 C 0.61083 0.32314 0.82333 0.0
C3267 C 0.6076 0.3239 0.8069 0.0
C3268 C 0.6194 0.32933 0.79712 0.0
C3269 C 0.63412 0.33375 0.80359 0.0
C3270 C 0.57689 0.30234 0.78127 0.0
C3271 C 0.56319 0.30502 0.78946 0.0
C3272 C 0.59121 0.30899 0.78652 0.0
C3273 C 0.59215 0.31844 0.80008 0.0
C3274 C 0.57829 0.32182 0.80768 0.0
C3275 C 0.564 0.31523 0.80242 0.0
H3276 H 0.70114 0.61259 0.83339 0.0
H3277 H 0.71863 0.63663 0.79275 0.0
H3278 H 0.71245 0.58864 0.82417 0.0
H3279 H 0.72987 0.6127 0.78355 0.0
H3280 H 0.74272 0.56469 0.76662 0.0
H3281 H 0.72557 0.58597 0.77358 0.0
H3282 H 0.73926 0.58006 0.8229 0.0
H3283 H 0.75606 0.55896 0.81602 0.0
C3284 C 0.70731 0.61276 0.82245 0.0
C3285 C 0.70909 0.62661 0.81392 0.0
C3286 C 0.71377 0.59902 0.81714 0.0
C3287 C 0.72219 0.59875 0.80317 0.0
C3288 C 0.72331 0.61242 0.79424 0.0
C3289 C 0.71686 0.62617 0.79956 0.0
C3290 C 0.74179 0.56779 0.77895 0.0
C3291 C 0.75081 0.56021 0.79075 0.0
C3292 C 0.73208 0.58003 0.78293 0.0
C3293 C 0.73106 0.58476 0.79881 0.0
C3294 C 0.73957 0.57665 0.81059 0.0
C3295 C 0.74933 0.5646 0.80662 0.0
H3296 H 0.43118 0.68124 0.81805 0.0
H3297 H 0.39611 0.71651 0.81314 0.0
H3298 H 0.44992 0.69821 0.80527 0.0
H3299 H 0.41465 0.73322 0.79984 0.0
H3300 H 0.4581 0.76542 0.80275 0.0
H3301 H 0.43753 0.74746 0.80978 0.0
H3302 H 0.45763 0.71214 0.7811 0.0
H3303 H 0.47861 0.73034 0.77411 0.0
C3304 C 0.4274 0.69254 0.81407 0.0
C3305 C 0.41218 0.69757 0.81685 0.0
C3306 C 0.4381 0.7022 0.80655 0.0
C3307 C 0.43386 0.71715 0.80166 0.0
C3308 C 0.41838 0.72186 0.80367 0.0
C3309 C 0.40769 0.7122 0.81116 0.0
C3310 C 0.45812 0.75388 0.79778 0.0
C3311 C 0.47008 0.74929 0.78794 0.0
C3312 C 0.44619 0.74358 0.80172 0.0
C3313 C 0.44587 0.72833 0.796 0.0
C3314 C 0.4576 0.72379 0.78579 0.0
C3315 C 0.46955 0.73421 0.78171 0.0
H3316 H 0.33921 0.40332 0.79585 0.0
H3317 H 0.35976 0.43924 0.82592 0.0
H3318 H 0.32735 0.42309 0.77877 0.0
H3319 H 0.34844 0.45881 0.80849 0.0
H3320 H 0.33833 0.48924 0.76489 0.0
H3321 H 0.35083 0.4685 0.78025 0.0
H3322 H 0.30663 0.4439 0.78133 0.0
H3323 H 0.29416 0.46463 0.76594 0.0
C3324 C 0.34121 0.41537 0.79888 0.0
C3325 C 0.35055 0.41959 0.81232 0.0
C3326 C 0.33446 0.42669 0.78902 0.0
C3327 C 0.33705 0.44249 0.79224 0.0
C3328 C 0.34645 0.44673 0.80555 0.0
C3329 C 0.35301 0.43545 0.81551 0.0
C3330 C 0.33134 0.47932 0.76825 0.0
C3331 C 0.31526 0.47859 0.76428 0.0
C3332 C 0.33846 0.46751 0.77714 0.0
C3333 C 0.32969 0.4546 0.78204 0.0
C3334 C 0.3137 0.45366 0.77766 0.0
C3335 C 0.30654 0.46557 0.76897 0.0
H3336 H 0.7294 0.63591 0.21599 0.0
H3337 H 0.6923 0.61319 0.18832 0.0
H3338 H 0.74148 0.6111 0.22122 0.0
H3339 H 0.70405 0.58815 0.19423 0.0
H3340 H 0.73813 0.54751 0.19471 0.0
H3341 H 0.72631 0.57241 0.18854 0.0
H3342 H 0.73791 0.58807 0.23611 0.0
H3343 H 0.75032 0.56357 0.24202 0.0
C3344 C 0.7238 0.62562 0.21098 0.0
C3345 C 0.70989 0.62663 0.20163 0.0
C3346 C 0.73065 0.61131 0.21417 0.0
C3347 C 0.72376 0.59754 0.20819 0.0
C3348 C 0.7098 0.59851 0.19889 0.0
C3349 C 0.70294 0.61287 0.19567 0.0
C3350 C 0.73835 0.55632 0.2038 0.0
C3351 C 0.74521 0.55343 0.21889 0.0
C3352 C 0.73137 0.57056 0.20031 0.0
C3353 C 0.7311 0.5823 0.21182 0.0
C3354 C 0.73803 0.57941 0.22687 0.0
C3355 C 0.74501 0.56522 0.23033 0.0
H3356 H 0.74919 0.40836 0.84882 0.0
H3357 H 0.71786 0.41234 0.80782 0.0
H3358 H 0.76188 0.4328 0.8419 0.0
H3359 H 0.73031 0.43683 0.80101 0.0
H3360 H 0.7668 0.47047 0.7831 0.0
H3361 H 0.75419 0.44642 0.79094 0.0
H3362 H 0.75886 0.46034 0.83998 0.0
H3363 H 0.77171 0.48437 0.83207 0.0
C3364 C 0.74486 0.41457 0.83845 0.0
C3365 C 0.73258 0.40834 0.82881 0.0
C3366 C 0.75214 0.4286 0.83447 0.0
C3367 C 0.74725 0.43678 0.82079 0.0
C3368 C 0.73467 0.43071 0.81141 0.0
C3369 C 0.72747 0.41667 0.81535 0.0
C3370 C 0.76506 0.46846 0.79554 0.0
C3371 C 0.77021 0.47942 0.80693 0.0
C3372 C 0.75778 0.45465 0.80006 0.0
C3373 C 0.75534 0.45142 0.8161 0.0
C3374 C 0.76067 0.46232 0.82753 0.0
C3375 C 0.76804 0.47612 0.823 0.0
H3376 H 0.6305 0.73266 0.85016 0.0
H3377 H 0.62243 0.70084 0.81124 0.0
H3378 H 0.60548 0.74474 0.84385 0.0
H3379 H 0.59712 0.71252 0.80532 0.0
H3380 H 0.56366 0.75006 0.78695 0.0
H3381 H 0.58751 0.73651 0.7943 0.0
H3382 H 0.57733 0.7411 0.84369 0.0
H3383 H 0.55335 0.75472 0.83629 0.0
C3384 C 0.62335 0.72816 0.84031 0.0
C3385 C 0.62857 0.71583 0.83115 0.0
C3386 C 0.6089 0.735 0.8368 0.0
C3387 C 0.59928 0.72968 0.82401 0.0
C3388 C 0.60431 0.71707 0.81512 0.0
C3389 C 0.61876 0.71023 0.81864 0.0
C3390 C 0.56633 0.74801 0.79937 0.0
C3391 C 0.55648 0.75347 0.81101 0.0
C3392 C 0.58007 0.74021 0.8036 0.0
C3393 C 0.58436 0.73763 0.8196 0.0
C3394 C 0.5745 0.74303 0.83126 0.0
C3395 C 0.56073 0.75086 0.82702 0.0
H3396 H 0.33055 0.59644 0.83974 0.0
H3397 H 0.31456 0.63245 0.80786 0.0
H3398 H 0.31552 0.5773 0.82412 0.0
H3399 H 0.29904 0.61341 0.79262 0.0
H3400 H 0.29668 0.57299 0.75705 0.0
H3401 H 0.3063 0.59316 0.77488 0.0
H3402 H 0.28964 0.56718 0.81467 0.0
H3403 H 0.28004 0.5466 0.79655 0.0
C3404 C 0.32371 0.60031 0.82949 0.0
C3405 C 0.324 0.61599 0.82493 0.0
C3406 C 0.3149 0.58934 0.82066 0.0
C3407 C 0.30616 0.59376 0.80702 0.0
C3408 C 0.30582 0.60955 0.80293 0.0
C3409 C 0.31462 0.62052 0.81176 0.0
C3410 C 0.29489 0.57158 0.76959 0.0
C3411 C 0.2877 0.55811 0.77539 0.0
C3412 C 0.30031 0.58326 0.77983 0.0
C3413 C 0.29877 0.58185 0.79625 0.0
C3414 C 0.29112 0.56858 0.80209 0.0
C3415 C 0.28552 0.55685 0.79173 0.0
H3416 H 0.43276 0.34396 0.81638 0.0
H3417 H 0.41938 0.31085 0.85179 0.0
H3418 H 0.4535 0.32684 0.80838 0.0
H3419 H 0.44021 0.29367 0.84379 0.0
H3420 H 0.49292 0.2802 0.83747 0.0
H3421 H 0.4702 0.29477 0.84499 0.0
H3422 H 0.45638 0.30049 0.79577 0.0
H3423 H 0.47871 0.2856 0.78816 0.0
C3424 C 0.43422 0.33298 0.82239 0.0
C3425 C 0.42446 0.32874 0.8347 0.0
C3426 C 0.44603 0.32314 0.81775 0.0
C3427 C 0.4485 0.30892 0.82547 0.0
C3428 C 0.43864 0.3046 0.8377 0.0
C3429 C 0.42665 0.31436 0.84218 0.0
C3430 C 0.48496 0.2843 0.82821 0.0
C3431 C 0.48793 0.28182 0.81214 0.0
C3432 C 0.47191 0.29269 0.83256 0.0
C3433 C 0.46159 0.29891 0.82097 0.0
C3434 C 0.46427 0.29607 0.80496 0.0
C3435 C 0.47718 0.28755 0.80061 0.0
H3436 H 0.35684 0.41834 0.21977 0.0
H3437 H 0.3117 0.40053 0.20319 0.0
H3438 H 0.34408 0.43886 0.23394 0.0
H3439 H 0.29898 0.42087 0.2177 0.0
H3440 H 0.28023 0.45316 0.25483 0.0
H3441 H 0.29428 0.43111 0.24466 0.0
H3442 H 0.32907 0.46222 0.22628 0.0
H3443 H 0.31507 0.48426 0.23642 0.0
C3444 C 0.3442 0.41875 0.21913 0.0
C3445 C 0.33536 0.40779 0.21011 0.0
C3446 C 0.33688 0.43052 0.22732 0.0
C3447 C 0.3205 0.43159 0.22691 0.0
C3448 C 0.31161 0.42031 0.21843 0.0
C3449 C 0.31894 0.40859 0.21011 0.0
C3450 C 0.29104 0.4553 0.24888 0.0
C3451 C 0.29649 0.47053 0.24643 0.0
C3452 C 0.29901 0.44265 0.24292 0.0
C3453 C 0.31274 0.44487 0.23453 0.0
C3454 C 0.31859 0.46005 0.23277 0.0
C3455 C 0.31054 0.47271 0.23856 0.0
H3456 H 0.6189 0.33518 0.23171 0.0
H3457 H 0.5951 0.31353 0.19136 0.0
H3458 H 0.59917 0.32451 0.24897 0.0
H3459 H 0.57519 0.30327 0.20849 0.0
H3460 H 0.54951 0.27553 0.24465 0.0
H3461 H 0.5713 0.28454 0.22943 0.0
H3462 H 0.5714 0.32825 0.2541 0.0
H3463 H 0.54982 0.319 0.26984 0.0
C3464 C 0.60955 0.32802 0.22654 0.0
C3465 C 0.60858 0.32522 0.21014 0.0
C3466 C 0.59815 0.32206 0.23641 0.0
C3467 C 0.58556 0.31307 0.23013 0.0
C3468 C 0.58479 0.31001 0.21377 0.0
C3469 C 0.59614 0.31602 0.20391 0.0
C3470 C 0.55431 0.28695 0.24712 0.0
C3471 C 0.54783 0.29652 0.25855 0.0
C3472 C 0.56673 0.2922 0.2382 0.0
C3473 C 0.57305 0.30716 0.24043 0.0
C3474 C 0.56689 0.31661 0.25214 0.0
C3475 C 0.55441 0.31137 0.26106 0.0
H3476 H 0.41794 0.67375 0.20278 0.0
H3477 H 0.38573 0.71036 0.212 0.0
H3478 H 0.438 0.68678 0.21931 0.0
H3479 H 0.40603 0.72373 0.22799 0.0
H3480 H 0.441 0.7382 0.26682 0.0
H3481 H 0.42103 0.72265 0.25266 0.0
H3482 H 0.45494 0.70915 0.21897 0.0
H3483 H 0.47499 0.72442 0.23332 0.0
C3484 C 0.41507 0.68454 0.2084 0.0
C3485 C 0.40013 0.69095 0.20604 0.0
C3486 C 0.42668 0.69212 0.21775 0.0
C3487 C 0.42371 0.70635 0.22503 0.0
C3488 C 0.40873 0.71271 0.22277 0.0
C3489 C 0.39711 0.70513 0.21341 0.0
C3490 C 0.44428 0.73173 0.25654 0.0
C3491 C 0.45964 0.73263 0.25122 0.0
C3492 C 0.43276 0.72291 0.24831 0.0
C3493 C 0.43627 0.71475 0.23453 0.0
C3494 C 0.45179 0.71516 0.22959 0.0
C3495 C 0.46332 0.72396 0.23783 0.0
loop_
_geom_bond_atom_site_label_1
_geom_bond_atom_site_label_2
_geom_bond_distance
_geom_bond_site_symmetry_2
_ccdc_geom_bond_type
P0 O11 1.490 . S
P0 C14 1.812 . S
P0 C20 1.803 . S
P0 C26 1.819 . S
H1 C15 0.941 . S
H2 C16 0.939 . S
H3 C18 0.940 . S
H4 C19 0.940 . S
H5 C21 0.939 . S
H6 C22 0.942 . S
H7 C24 0.940 . S
H8 C25 0.939 . S
H9 C27 0.941 . S
H10 C31 0.939 . S
O11 P0 1.490 . S
H12 C28 0.939 . S
H13 C30 0.940 . S
C14 P0 1.812 . S
C14 C15 1.389 . S
C14 C19 1.391 . S
C15 H1 0.941 . S
C15 C14 1.389 . S
C15 C16 1.397 . S
C16 H2 0.939 . S
C16 C15 1.397 . S
C16 C17 1.378 . S
C17 C16 1.378 . S
C17 C18 1.378 . S
C18 H3 0.940 . S
C18 C17 1.378 . S
C18 C19 1.396 . S
C19 H4 0.940 . S
C19 C14 1.391 . S
C19 C18 1.396 . S
C20 P0 1.803 . S
C20 C21 1.378 . S
C20 C25 1.400 . S
C21 H5 0.939 . S
C21 C20 1.378 . S
C21 C22 1.361 . S
C22 H6 0.942 . S
C22 C21 1.361 . S
C22 C23 1.369 . S
C23 C22 1.369 . S
C23 C24 1.404 . S
C24 H7 0.940 . S
C24 C23 1.404 . S
C24 C25 1.389 . S
C25 H8 0.939 . S
C25 C20 1.400 . S
C25 C24 1.389 . S
C26 P0 1.819 . S
C26 C27 1.391 . S
C26 C31 1.391 . S
C27 H9 0.941 . S
C27 C26 1.391 . S
C27 C28 1.396 . S
C28 H12 0.939 . S
C28 C27 1.396 . S
C28 C29 1.397 . S
C29 C28 1.397 . S
C29 C30 1.385 . S
C30 H13 0.940 . S
C30 C29 1.385 . S
C30 C31 1.388 . S
C31 H10 0.939 . S
C31 C26 1.391 . S
C31 C30 1.388 . S
P32 O43 1.490 . S
P32 C46 1.812 . S
P32 C52 1.803 . S
P32 C58 1.819 . S
H33 C47 0.941 . S
H34 C48 0.939 . S
H35 C50 0.940 . S
H36 C51 0.940 . S
H37 C53 0.939 . S
H38 C54 0.942 . S
H39 C56 0.940 . S
H40 C57 0.939 . S
H41 C59 0.941 . S
H42 C63 0.939 . S
O43 P32 1.490 . S
H44 C60 0.939 . S
H45 C62 0.940 . S
C46 P32 1.812 . S
C46 C47 1.389 . S
C46 C51 1.391 . S
C47 H33 0.941 . S
C47 C46 1.389 . S
C47 C48 1.397 . S
C48 H34 0.939 . S
C48 C47 1.397 . S
C48 C49 1.378 . S
C49 C48 1.378 . S
C49 C50 1.378 . S
C50 H35 0.940 . S
C50 C49 1.378 . S
C50 C51 1.396 . S
C51 H36 0.940 . S
C51 C46 1.391 . S
C51 C50 1.396 . S
C52 P32 1.803 . S
C52 C53 1.378 . S
C52 C57 1.400 . S
C53 H37 0.939 . S
C53 C52 1.378 . S
C53 C54 1.361 . S
C54 H38 0.942 . S
C54 C53 1.361 . S
C54 C55 1.369 . S
C55 C54 1.369 . S
C55 C56 1.404 . S
C56 H39 0.940 . S
C56 C55 1.404 . S
C56 C57 1.389 . S
C57 H40 0.939 . S
C57 C52 1.400 . S
C57 C56 1.389 . S
C58 P32 1.819 . S
C58 C59 1.391 . S
C58 C63 1.391 . S
C59 H41 0.941 . S
C59 C58 1.391 . S
C59 C60 1.396 . S
C60 H44 0.939 . S
C60 C59 1.396 . S
C60 C61 1.397 . S
C61 C60 1.397 . S
C61 C62 1.385 . S
C62 H45 0.940 . S
C62 C61 1.385 . S
C62 C63 1.388 . S
C63 H42 0.939 . S
C63 C58 1.391 . S
C63 C62 1.388 . S
P64 O75 1.490 . S
P64 C78 1.812 . S
P64 C84 1.803 . S
P64 C90 1.819 . S
H65 C79 0.941 . S
H66 C80 0.939 . S
H67 C82 0.940 . S
H68 C83 0.940 . S
H69 C85 0.939 . S
H70 C86 0.942 . S
H71 C88 0.940 . S
H72 C89 0.939 . S
H73 C91 0.941 . S
H74 C95 0.939 . S
O75 P64 1.490 . S
H76 C92 0.939 . S
H77 C94 0.940 . S
C78 P64 1.812 . S
C78 C79 1.389 . S
C78 C83 1.391 . S
C79 H65 0.941 . S
C79 C78 1.389 . S
C79 C80 1.397 . S
C80 H66 0.939 . S
C80 C79 1.397 . S
C80 C81 1.378 . S
C81 C80 1.378 . S
C81 C82 1.378 . S
C82 H67 0.940 . S
C82 C81 1.378 . S
C82 C83 1.396 . S
C83 H68 0.940 . S
C83 C78 1.391 . S
C83 C82 1.396 . S
C84 P64 1.803 . S
C84 C85 1.378 . S
C84 C89 1.400 . S
C85 H69 0.939 . S
C85 C84 1.378 . S
C85 C86 1.361 . S
C86 H70 0.942 . S
C86 C85 1.361 . S
C86 C87 1.369 . S
C87 C86 1.369 . S
C87 C88 1.404 . S
C88 H71 0.940 . S
C88 C87 1.404 . S
C88 C89 1.389 . S
C89 H72 0.939 . S
C89 C84 1.400 . S
C89 C88 1.389 . S
C90 P64 1.819 . S
C90 C91 1.391 . S
C90 C95 1.391 . S
C91 H73 0.941 . S
C91 C90 1.391 . S
C91 C92 1.396 . S
C92 H76 0.939 . S
C92 C91 1.396 . S
C92 C93 1.397 . S
C93 C92 1.397 . S
C93 C94 1.385 . S
C94 H77 0.940 . S
C94 C93 1.385 . S
C94 C95 1.388 . S
C95 H74 0.939 . S
C95 C90 1.391 . S
C95 C94 1.388 . S
P96 O107 1.490 . S
P96 C110 1.812 . S
P96 C116 1.803 . S
P96 C122 1.819 . S
H97 C111 0.941 . S
H98 C112 0.939 . S
H99 C114 0.940 . S
H100 C115 0.940 . S
H101 C117 0.939 . S
H102 C118 0.942 . S
H103 C120 0.940 . S
H104 C121 0.939 . S
H105 C123 0.941 . S
H106 C127 0.939 . S
O107 P96 1.490 . S
H108 C124 0.939 . S
H109 C126 0.940 . S
C110 P96 1.812 . S
C110 C111 1.389 . S
C110 C115 1.391 . S
C111 H97 0.941 . S
C111 C110 1.389 . S
C111 C112 1.397 . S
C112 H98 0.939 . S
C112 C111 1.397 . S
C112 C113 1.378 . S
C113 C112 1.378 . S
C113 C114 1.378 . S
C114 H99 0.940 . S
C114 C113 1.378 . S
C114 C115 1.396 . S
C115 H100 0.940 . S
C115 C110 1.391 . S
C115 C114 1.396 . S
C116 P96 1.803 . S
C116 C117 1.378 . S
C116 C121 1.400 . S
C117 H101 0.939 . S
C117 C116 1.378 . S
C117 C118 1.361 . S
C118 H102 0.942 . S
C118 C117 1.361 . S
C118 C119 1.369 . S
C119 C118 1.369 . S
C119 C120 1.404 . S
C120 H103 0.940 . S
C120 C119 1.404 . S
C120 C121 1.389 . S
C121 H104 0.939 . S
C121 C116 1.400 . S
C121 C120 1.389 . S
C122 P96 1.819 . S
C122 C123 1.391 . S
C122 C127 1.391 . S
C123 H105 0.941 . S
C123 C122 1.391 . S
C123 C124 1.396 . S
C124 H108 0.939 . S
C124 C123 1.396 . S
C124 C125 1.397 . S
C125 C124 1.397 . S
C125 C126 1.385 . S
C126 H109 0.940 . S
C126 C125 1.385 . S
C126 C127 1.388 . S
C127 H106 0.939 . S
C127 C122 1.391 . S
C127 C126 1.388 . S
P128 O139 1.490 . S
P128 C142 1.812 . S
P128 C148 1.803 . S
P128 C154 1.819 . S
H129 C143 0.941 . S
H130 C144 0.939 . S
H131 C146 0.940 . S
H132 C147 0.940 . S
H133 C149 0.939 . S
H134 C150 0.942 . S
H135 C152 0.940 . S
H136 C153 0.939 . S
H137 C155 0.941 . S
H138 C159 0.939 . S
O139 P128 1.490 . S
H140 C156 0.939 . S
H141 C158 0.940 . S
C142 P128 1.812 . S
C142 C143 1.389 . S
C142 C147 1.391 . S
C143 H129 0.941 . S
C143 C142 1.389 . S
C143 C144 1.397 . S
C144 H130 0.939 . S
C144 C143 1.397 . S
C144 C145 1.378 . S
C145 C144 1.378 . S
C145 C146 1.378 . S
C146 H131 0.940 . S
C146 C145 1.378 . S
C146 C147 1.396 . S
C147 H132 0.940 . S
C147 C142 1.391 . S
C147 C146 1.396 . S
C148 P128 1.803 . S
C148 C149 1.378 . S
C148 C153 1.400 . S
C149 H133 0.939 . S
C149 C148 1.378 . S
C149 C150 1.361 . S
C150 H134 0.942 . S
C150 C149 1.361 . S
C150 C151 1.369 . S
C151 C150 1.369 . S
C151 C152 1.404 . S
C152 H135 0.940 . S
C152 C151 1.404 . S
C152 C153 1.389 . S
C153 H136 0.939 . S
C153 C148 1.400 . S
C153 C152 1.389 . S
C154 P128 1.819 . S
C154 C155 1.391 . S
C154 C159 1.391 . S
C155 H137 0.941 . S
C155 C154 1.391 . S
C155 C156 1.396 . S
C156 H140 0.939 . S
C156 C155 1.396 . S
C156 C157 1.397 . S
C157 C156 1.397 . S
C157 C158 1.385 . S
C158 H141 0.940 . S
C158 C157 1.385 . S
C158 C159 1.388 . S
C159 H138 0.939 . S
C159 C154 1.391 . S
C159 C158 1.388 . S
P160 O171 1.490 . S
P160 C174 1.812 . S
P160 C180 1.803 . S
P160 C186 1.819 . S
H161 C175 0.941 . S
H162 C176 0.939 . S
H163 C178 0.940 . S
H164 C179 0.940 . S
H165 C181 0.939 . S
H166 C182 0.942 . S
H167 C184 0.940 . S
H168 C185 0.939 . S
H169 C187 0.941 . S
H170 C191 0.939 . S
O171 P160 1.490 . S
H172 C188 0.939 . S
H173 C190 0.940 . S
C174 P160 1.812 . S
C174 C175 1.389 . S
C174 C179 1.391 . S
C175 H161 0.941 . S
C175 C174 1.389 . S
C175 C176 1.397 . S
C176 H162 0.939 . S
C176 C175 1.397 . S
C176 C177 1.378 . S
C177 C176 1.378 . S
C177 C178 1.378 . S
C178 H163 0.940 . S
C178 C177 1.378 . S
C178 C179 1.396 . S
C179 H164 0.940 . S
C179 C174 1.391 . S
C179 C178 1.396 . S
C180 P160 1.803 . S
C180 C181 1.378 . S
C180 C185 1.400 . S
C181 H165 0.939 . S
C181 C180 1.378 . S
C181 C182 1.361 . S
C182 H166 0.942 . S
C182 C181 1.361 . S
C182 C183 1.369 . S
C183 C182 1.369 . S
C183 C184 1.404 . S
C184 H167 0.940 . S
C184 C183 1.404 . S
C184 C185 1.389 . S
C185 H168 0.939 . S
C185 C180 1.400 . S
C185 C184 1.389 . S
C186 P160 1.819 . S
C186 C187 1.391 . S
C186 C191 1.391 . S
C187 H169 0.941 . S
C187 C186 1.391 . S
C187 C188 1.396 . S
C188 H172 0.939 . S
C188 C187 1.396 . S
C188 C189 1.397 . S
C189 C188 1.397 . S
C189 C190 1.385 . S
C190 H173 0.940 . S
C190 C189 1.385 . S
C190 C191 1.388 . S
C191 H170 0.939 . S
C191 C186 1.391 . S
C191 C190 1.388 . S
P192 O203 1.490 . S
P192 C206 1.812 . S
P192 C212 1.803 . S
P192 C218 1.819 . S
H193 C207 0.941 . S
H194 C208 0.939 . S
H195 C210 0.940 . S
H196 C211 0.940 . S
H197 C213 0.939 . S
H198 C214 0.942 . S
H199 C216 0.940 . S
H200 C217 0.939 . S
H201 C219 0.941 . S
H202 C223 0.939 . S
O203 P192 1.490 . S
H204 C220 0.939 . S
H205 C222 0.940 . S
C206 P192 1.812 . S
C206 C207 1.389 . S
C206 C211 1.391 . S
C207 H193 0.941 . S
C207 C206 1.389 . S
C207 C208 1.397 . S
C208 H194 0.939 . S
C208 C207 1.397 . S
C208 C209 1.378 . S
C209 C208 1.378 . S
C209 C210 1.378 . S
C210 H195 0.940 . S
C210 C209 1.378 . S
C210 C211 1.396 . S
C211 H196 0.940 . S
C211 C206 1.391 . S
C211 C210 1.396 . S
C212 P192 1.803 . S
C212 C213 1.378 . S
C212 C217 1.400 . S
C213 H197 0.939 . S
C213 C212 1.378 . S
C213 C214 1.361 . S
C214 H198 0.942 . S
C214 C213 1.361 . S
C214 C215 1.369 . S
C215 C214 1.369 . S
C215 C216 1.404 . S
C216 H199 0.940 . S
C216 C215 1.404 . S
C216 C217 1.389 . S
C217 H200 0.939 . S
C217 C212 1.400 . S
C217 C216 1.389 . S
C218 P192 1.819 . S
C218 C219 1.391 . S
C218 C223 1.391 . S
C219 H201 0.941 . S
C219 C218 1.391 . S
C219 C220 1.396 . S
C220 H204 0.939 . S
C220 C219 1.396 . S
C220 C221 1.397 . S
C221 C220 1.397 . S
C221 C222 1.385 . S
C222 H205 0.940 . S
C222 C221 1.385 . S
C222 C223 1.388 . S
C223 H202 0.939 . S
C223 C218 1.391 . S
C223 C222 1.388 . S
P224 O235 1.490 . S
P224 C238 1.812 . S
P224 C244 1.803 . S
P224 C250 1.819 . S
H225 C239 0.941 . S
H226 C240 0.939 . S
H227 C242 0.940 . S
H228 C243 0.940 . S
H229 C245 0.939 . S
H230 C246 0.942 . S
H231 C248 0.940 . S
H232 C249 0.939 . S
H233 C251 0.941 . S
H234 C255 0.939 . S
O235 P224 1.490 . S
H236 C252 0.939 . S
H237 C254 0.940 . S
C238 P224 1.812 . S
C238 C239 1.389 . S
C238 C243 1.391 . S
C239 H225 0.941 . S
C239 C238 1.389 . S
C239 C240 1.397 . S
C240 H226 0.939 . S
C240 C239 1.397 . S
C240 C241 1.378 . S
C241 C240 1.378 . S
C241 C242 1.378 . S
C242 H227 0.940 . S
C242 C241 1.378 . S
C242 C243 1.396 . S
C243 H228 0.940 . S
C243 C238 1.391 . S
C243 C242 1.396 . S
C244 P224 1.803 . S
C244 C245 1.378 . S
C244 C249 1.400 . S
C245 H229 0.939 . S
C245 C244 1.378 . S
C245 C246 1.361 . S
C246 H230 0.942 . S
C246 C245 1.361 . S
C246 C247 1.369 . S
C247 C246 1.369 . S
C247 C248 1.404 . S
C248 H231 0.940 . S
C248 C247 1.404 . S
C248 C249 1.389 . S
C249 H232 0.939 . S
C249 C244 1.400 . S
C249 C248 1.389 . S
C250 P224 1.819 . S
C250 C251 1.391 . S
C250 C255 1.391 . S
C251 H233 0.941 . S
C251 C250 1.391 . S
C251 C252 1.396 . S
C252 H236 0.939 . S
C252 C251 1.396 . S
C252 C253 1.397 . S
C253 C252 1.397 . S
C253 C254 1.385 . S
C254 H237 0.940 . S
C254 C253 1.385 . S
C254 C255 1.388 . S
C255 H234 0.939 . S
C255 C250 1.391 . S
C255 C254 1.388 . S
P256 O267 1.490 . S
P256 C270 1.812 . S
P256 C276 1.803 . S
P256 C282 1.819 . S
H257 C271 0.941 . S
H258 C272 0.939 . S
H259 C274 0.940 . S
H260 C275 0.940 . S
H261 C277 0.939 . S
H262 C278 0.942 . S
H263 C280 0.940 . S
H264 C281 0.939 . S
H265 C283 0.941 . S
H266 C287 0.939 . S
O267 P256 1.490 . S
H268 C284 0.939 . S
H269 C286 0.940 . S
C270 P256 1.812 . S
C270 C271 1.389 . S
C270 C275 1.391 . S
C271 H257 0.941 . S
C271 C270 1.389 . S
C271 C272 1.397 . S
C272 H258 0.939 . S
C272 C271 1.397 . S
C272 C273 1.378 . S
C273 C272 1.378 . S
C273 C274 1.378 . S
C274 H259 0.940 . S
C274 C273 1.378 . S
C274 C275 1.396 . S
C275 H260 0.940 . S
C275 C270 1.391 . S
C275 C274 1.396 . S
C276 P256 1.803 . S
C276 C277 1.378 . S
C276 C281 1.400 . S
C277 H261 0.939 . S
C277 C276 1.378 . S
C277 C278 1.361 . S
C278 H262 0.942 . S
C278 C277 1.361 . S
C278 C279 1.369 . S
C279 C278 1.369 . S
C279 C280 1.404 . S
C280 H263 0.940 . S
C280 C279 1.404 . S
C280 C281 1.389 . S
C281 H264 0.939 . S
C281 C276 1.400 . S
C281 C280 1.389 . S
C282 P256 1.819 . S
C282 C283 1.391 . S
C282 C287 1.391 . S
C283 H265 0.941 . S
C283 C282 1.391 . S
C283 C284 1.396 . S
C284 H268 0.939 . S
C284 C283 1.396 . S
C284 C285 1.397 . S
C285 C284 1.397 . S
C285 C286 1.385 . S
C286 H269 0.940 . S
C286 C285 1.385 . S
C286 C287 1.388 . S
C287 H266 0.939 . S
C287 C282 1.391 . S
C287 C286 1.388 . S
P288 O299 1.490 . S
P288 C302 1.812 . S
P288 C308 1.803 . S
P288 C314 1.819 . S
H289 C303 0.941 . S
H290 C304 0.939 . S
H291 C306 0.940 . S
H292 C307 0.940 . S
H293 C309 0.939 . S
H294 C310 0.942 . S
H295 C312 0.940 . S
H296 C313 0.939 . S
H297 C315 0.941 . S
H298 C319 0.939 . S
O299 P288 1.490 . S
H300 C316 0.939 . S
H301 C318 0.940 . S
C302 P288 1.812 . S
C302 C303 1.389 . S
C302 C307 1.391 . S
C303 H289 0.941 . S
C303 C302 1.389 . S
C303 C304 1.397 . S
C304 H290 0.939 . S
C304 C303 1.397 . S
C304 C305 1.378 . S
C305 C304 1.378 . S
C305 C306 1.378 . S
C306 H291 0.940 . S
C306 C305 1.378 . S
C306 C307 1.396 . S
C307 H292 0.940 . S
C307 C302 1.391 . S
C307 C306 1.396 . S
C308 P288 1.803 . S
C308 C309 1.378 . S
C308 C313 1.400 . S
C309 H293 0.939 . S
C309 C308 1.378 . S
C309 C310 1.361 . S
C310 H294 0.942 . S
C310 C309 1.361 . S
C310 C311 1.369 . S
C311 C310 1.369 . S
C311 C312 1.404 . S
C312 H295 0.940 . S
C312 C311 1.404 . S
C312 C313 1.389 . S
C313 H296 0.939 . S
C313 C308 1.400 . S
C313 C312 1.389 . S
C314 P288 1.819 . S
C314 C315 1.391 . S
C314 C319 1.391 . S
C315 H297 0.941 . S
C315 C314 1.391 . S
C315 C316 1.396 . S
C316 H300 0.939 . S
C316 C315 1.396 . S
C316 C317 1.397 . S
C317 C316 1.397 . S
C317 C318 1.385 . S
C318 H301 0.940 . S
C318 C317 1.385 . S
C318 C319 1.388 . S
C319 H298 0.939 . S
C319 C314 1.391 . S
C319 C318 1.388 . S
P320 O331 1.490 . S
P320 C334 1.812 . S
P320 C340 1.803 . S
P320 C346 1.819 . S
H321 C335 0.941 . S
H322 C336 0.939 . S
H323 C338 0.940 . S
H324 C339 0.940 . S
H325 C341 0.939 . S
H326 C342 0.942 . S
H327 C344 0.940 . S
H328 C345 0.939 . S
H329 C347 0.941 . S
H330 C351 0.939 . S
O331 P320 1.490 . S
H332 C348 0.939 . S
H333 C350 0.940 . S
C334 P320 1.812 . S
C334 C335 1.389 . S
C334 C339 1.391 . S
C335 H321 0.941 . S
C335 C334 1.389 . S
C335 C336 1.397 . S
C336 H322 0.939 . S
C336 C335 1.397 . S
C336 C337 1.378 . S
C337 C336 1.378 . S
C337 C338 1.378 . S
C338 H323 0.940 . S
C338 C337 1.378 . S
C338 C339 1.396 . S
C339 H324 0.940 . S
C339 C334 1.391 . S
C339 C338 1.396 . S
C340 P320 1.803 . S
C340 C341 1.378 . S
C340 C345 1.400 . S
C341 H325 0.939 . S
C341 C340 1.378 . S
C341 C342 1.361 . S
C342 H326 0.942 . S
C342 C341 1.361 . S
C342 C343 1.369 . S
C343 C342 1.369 . S
C343 C344 1.404 . S
C344 H327 0.940 . S
C344 C343 1.404 . S
C344 C345 1.389 . S
C345 H328 0.939 . S
C345 C340 1.400 . S
C345 C344 1.389 . S
C346 P320 1.819 . S
C346 C347 1.391 . S
C346 C351 1.391 . S
C347 H329 0.941 . S
C347 C346 1.391 . S
C347 C348 1.396 . S
C348 H332 0.939 . S
C348 C347 1.396 . S
C348 C349 1.397 . S
C349 C348 1.397 . S
C349 C350 1.385 . S
C350 H333 0.940 . S
C350 C349 1.385 . S
C350 C351 1.388 . S
C351 H330 0.939 . S
C351 C346 1.391 . S
C351 C350 1.388 . S
P352 O363 1.490 . S
P352 C366 1.812 . S
P352 C372 1.803 . S
P352 C378 1.819 . S
H353 C367 0.941 . S
H354 C368 0.939 . S
H355 C370 0.940 . S
H356 C371 0.940 . S
H357 C373 0.939 . S
H358 C374 0.942 . S
H359 C376 0.940 . S
H360 C377 0.939 . S
H361 C379 0.941 . S
H362 C383 0.939 . S
O363 P352 1.490 . S
H364 C380 0.939 . S
H365 C382 0.940 . S
C366 P352 1.812 . S
C366 C367 1.389 . S
C366 C371 1.391 . S
C367 H353 0.941 . S
C367 C366 1.389 . S
C367 C368 1.397 . S
C368 H354 0.939 . S
C368 C367 1.397 . S
C368 C369 1.378 . S
C369 C368 1.378 . S
C369 C370 1.378 . S
C370 H355 0.940 . S
C370 C369 1.378 . S
C370 C371 1.396 . S
C371 H356 0.940 . S
C371 C366 1.391 . S
C371 C370 1.396 . S
C372 P352 1.803 . S
C372 C373 1.378 . S
C372 C377 1.400 . S
C373 H357 0.939 . S
C373 C372 1.378 . S
C373 C374 1.361 . S
C374 H358 0.942 . S
C374 C373 1.361 . S
C374 C375 1.369 . S
C375 C374 1.369 . S
C375 C376 1.404 . S
C376 H359 0.940 . S
C376 C375 1.404 . S
C376 C377 1.389 . S
C377 H360 0.939 . S
C377 C372 1.400 . S
C377 C376 1.389 . S
C378 P352 1.819 . S
C378 C379 1.391 . S
C378 C383 1.391 . S
C379 H361 0.941 . S
C379 C378 1.391 . S
C379 C380 1.396 . S
C380 H364 0.939 . S
C380 C379 1.396 . S
C380 C381 1.397 . S
C381 C380 1.397 . S
C381 C382 1.385 . S
C382 H365 0.940 . S
C382 C381 1.385 . S
C382 C383 1.388 . S
C383 H362 0.939 . S
C383 C378 1.391 . S
C383 C382 1.388 . S
P384 O395 1.490 . S
P384 C398 1.812 . S
P384 C404 1.803 . S
P384 C410 1.819 . S
H385 C399 0.941 . S
H386 C400 0.939 . S
H387 C402 0.940 . S
H388 C403 0.940 . S
H389 C405 0.939 . S
H390 C406 0.942 . S
H391 C408 0.940 . S
H392 C409 0.939 . S
H393 C411 0.941 . S
H394 C415 0.939 . S
O395 P384 1.490 . S
H396 C412 0.939 . S
H397 C414 0.940 . S
C398 P384 1.812 . S
C398 C399 1.389 . S
C398 C403 1.391 . S
C399 H385 0.941 . S
C399 C398 1.389 . S
C399 C400 1.397 . S
C400 H386 0.939 . S
C400 C399 1.397 . S
C400 C401 1.378 . S
C401 C400 1.378 . S
C401 C402 1.378 . S
C402 H387 0.940 . S
C402 C401 1.378 . S
C402 C403 1.396 . S
C403 H388 0.940 . S
C403 C398 1.391 . S
C403 C402 1.396 . S
C404 P384 1.803 . S
C404 C405 1.378 . S
C404 C409 1.400 . S
C405 H389 0.939 . S
C405 C404 1.378 . S
C405 C406 1.361 . S
C406 H390 0.942 . S
C406 C405 1.361 . S
C406 C407 1.369 . S
C407 C406 1.369 . S
C407 C408 1.404 . S
C408 H391 0.940 . S
C408 C407 1.404 . S
C408 C409 1.389 . S
C409 H392 0.939 . S
C409 C404 1.400 . S
C409 C408 1.389 . S
C410 P384 1.819 . S
C410 C411 1.391 . S
C410 C415 1.391 . S
C411 H393 0.941 . S
C411 C410 1.391 . S
C411 C412 1.396 . S
C412 H396 0.939 . S
C412 C411 1.396 . S
C412 C413 1.397 . S
C413 C412 1.397 . S
C413 C414 1.385 . S
C414 H397 0.940 . S
C414 C413 1.385 . S
C414 C415 1.388 . S
C415 H394 0.939 . S
C415 C410 1.391 . S
C415 C414 1.388 . S
P416 O427 1.490 . S
P416 C430 1.812 . S
P416 C436 1.803 . S
P416 C442 1.819 . S
H417 C431 0.941 . S
H418 C432 0.939 . S
H419 C434 0.940 . S
H420 C435 0.940 . S
H421 C437 0.939 . S
H422 C438 0.942 . S
H423 C440 0.940 . S
H424 C441 0.939 . S
H425 C443 0.941 . S
H426 C447 0.939 . S
O427 P416 1.490 . S
H428 C444 0.939 . S
H429 C446 0.940 . S
C430 P416 1.812 . S
C430 C431 1.389 . S
C430 C435 1.391 . S
C431 H417 0.941 . S
C431 C430 1.389 . S
C431 C432 1.397 . S
C432 H418 0.939 . S
C432 C431 1.397 . S
C432 C433 1.378 . S
C433 C432 1.378 . S
C433 C434 1.378 . S
C434 H419 0.940 . S
C434 C433 1.378 . S
C434 C435 1.396 . S
C435 H420 0.940 . S
C435 C430 1.391 . S
C435 C434 1.396 . S
C436 P416 1.803 . S
C436 C437 1.378 . S
C436 C441 1.400 . S
C437 H421 0.939 . S
C437 C436 1.378 . S
C437 C438 1.361 . S
C438 H422 0.942 . S
C438 C437 1.361 . S
C438 C439 1.369 . S
C439 C438 1.369 . S
C439 C440 1.404 . S
C440 H423 0.940 . S
C440 C439 1.404 . S
C440 C441 1.389 . S
C441 H424 0.939 . S
C441 C436 1.400 . S
C441 C440 1.389 . S
C442 P416 1.819 . S
C442 C443 1.391 . S
C442 C447 1.391 . S
C443 H425 0.941 . S
C443 C442 1.391 . S
C443 C444 1.396 . S
C444 H428 0.939 . S
C444 C443 1.396 . S
C444 C445 1.397 . S
C445 C444 1.397 . S
C445 C446 1.385 . S
C446 H429 0.940 . S
C446 C445 1.385 . S
C446 C447 1.388 . S
C447 H426 0.939 . S
C447 C442 1.391 . S
C447 C446 1.388 . S
P448 O459 1.490 . S
P448 C462 1.812 . S
P448 C468 1.803 . S
P448 C474 1.819 . S
H449 C463 0.941 . S
H450 C464 0.939 . S
H451 C466 0.940 . S
H452 C467 0.940 . S
H453 C469 0.939 . S
H454 C470 0.942 . S
H455 C472 0.940 . S
H456 C473 0.939 . S
H457 C475 0.941 . S
H458 C479 0.939 . S
O459 P448 1.490 . S
H460 C476 0.939 . S
H461 C478 0.940 . S
C462 P448 1.812 . S
C462 C463 1.389 . S
C462 C467 1.391 . S
C463 H449 0.941 . S
C463 C462 1.389 . S
C463 C464 1.397 . S
C464 H450 0.939 . S
C464 C463 1.397 . S
C464 C465 1.378 . S
C465 C464 1.378 . S
C465 C466 1.378 . S
C466 H451 0.940 . S
C466 C465 1.378 . S
C466 C467 1.396 . S
C467 H452 0.940 . S
C467 C462 1.391 . S
C467 C466 1.396 . S
C468 P448 1.803 . S
C468 C469 1.378 . S
C468 C473 1.400 . S
C469 H453 0.939 . S
C469 C468 1.378 . S
C469 C470 1.361 . S
C470 H454 0.942 . S
C470 C469 1.361 . S
C470 C471 1.369 . S
C471 C470 1.369 . S
C471 C472 1.404 . S
C472 H455 0.940 . S
C472 C471 1.404 . S
C472 C473 1.389 . S
C473 H456 0.939 . S
C473 C468 1.400 . S
C473 C472 1.389 . S
C474 P448 1.819 . S
C474 C475 1.391 . S
C474 C479 1.391 . S
C475 H457 0.941 . S
C475 C474 1.391 . S
C475 C476 1.396 . S
C476 H460 0.939 . S
C476 C475 1.396 . S
C476 C477 1.397 . S
C477 C476 1.397 . S
C477 C478 1.385 . S
C478 H461 0.940 . S
C478 C477 1.385 . S
C478 C479 1.388 . S
C479 H458 0.939 . S
C479 C474 1.391 . S
C479 C478 1.388 . S
P480 O491 1.490 . S
P480 C494 1.812 . S
P480 C500 1.803 . S
P480 C506 1.819 . S
H481 C495 0.941 . S
H482 C496 0.939 . S
H483 C498 0.940 . S
H484 C499 0.940 . S
H485 C501 0.939 . S
H486 C502 0.942 . S
H487 C504 0.940 . S
H488 C505 0.939 . S
H489 C507 0.941 . S
H490 C511 0.939 . S
O491 P480 1.490 . S
H492 C508 0.939 . S
H493 C510 0.940 . S
C494 P480 1.812 . S
C494 C495 1.389 . S
C494 C499 1.391 . S
C495 H481 0.941 . S
C495 C494 1.389 . S
C495 C496 1.397 . S
C496 H482 0.939 . S
C496 C495 1.397 . S
C496 C497 1.378 . S
C497 C496 1.378 . S
C497 C498 1.378 . S
C498 H483 0.940 . S
C498 C497 1.378 . S
C498 C499 1.396 . S
C499 H484 0.940 . S
C499 C494 1.391 . S
C499 C498 1.396 . S
C500 P480 1.803 . S
C500 C501 1.378 . S
C500 C505 1.400 . S
C501 H485 0.939 . S
C501 C500 1.378 . S
C501 C502 1.361 . S
C502 H486 0.942 . S
C502 C501 1.361 . S
C502 C503 1.369 . S
C503 C502 1.369 . S
C503 C504 1.404 . S
C504 H487 0.940 . S
C504 C503 1.404 . S
C504 C505 1.389 . S
C505 H488 0.939 . S
C505 C500 1.400 . S
C505 C504 1.389 . S
C506 P480 1.819 . S
C506 C507 1.391 . S
C506 C511 1.391 . S
C507 H489 0.941 . S
C507 C506 1.391 . S
C507 C508 1.396 . S
C508 H492 0.939 . S
C508 C507 1.396 . S
C508 C509 1.397 . S
C509 C508 1.397 . S
C509 C510 1.385 . S
C510 H493 0.940 . S
C510 C509 1.385 . S
C510 C511 1.388 . S
C511 H490 0.939 . S
C511 C506 1.391 . S
C511 C510 1.388 . S
P512 O523 1.490 . S
P512 C526 1.812 . S
P512 C532 1.803 . S
P512 C538 1.819 . S
H513 C527 0.941 . S
H514 C528 0.939 . S
H515 C530 0.940 . S
H516 C531 0.940 . S
H517 C533 0.939 . S
H518 C534 0.942 . S
H519 C536 0.940 . S
H520 C537 0.939 . S
H521 C539 0.941 . S
H522 C543 0.939 . S
O523 P512 1.490 . S
H524 C540 0.939 . S
H525 C542 0.940 . S
C526 P512 1.812 . S
C526 C527 1.389 . S
C526 C531 1.391 . S
C527 H513 0.941 . S
C527 C526 1.389 . S
C527 C528 1.397 . S
C528 H514 0.939 . S
C528 C527 1.397 . S
C528 C529 1.378 . S
C529 C528 1.378 . S
C529 C530 1.378 . S
C530 H515 0.940 . S
C530 C529 1.378 . S
C530 C531 1.396 . S
C531 H516 0.940 . S
C531 C526 1.391 . S
C531 C530 1.396 . S
C532 P512 1.803 . S
C532 C533 1.378 . S
C532 C537 1.400 . S
C533 H517 0.939 . S
C533 C532 1.378 . S
C533 C534 1.361 . S
C534 H518 0.942 . S
C534 C533 1.361 . S
C534 C535 1.369 . S
C535 C534 1.369 . S
C535 C536 1.404 . S
C536 H519 0.940 . S
C536 C535 1.404 . S
C536 C537 1.389 . S
C537 H520 0.939 . S
C537 C532 1.400 . S
C537 C536 1.389 . S
C538 P512 1.819 . S
C538 C539 1.391 . S
C538 C543 1.391 . S
C539 H521 0.941 . S
C539 C538 1.391 . S
C539 C540 1.396 . S
C540 H524 0.939 . S
C540 C539 1.396 . S
C540 C541 1.397 . S
C541 C540 1.397 . S
C541 C542 1.385 . S
C542 H525 0.940 . S
C542 C541 1.385 . S
C542 C543 1.388 . S
C543 H522 0.939 . S
C543 C538 1.391 . S
C543 C542 1.388 . S
P544 O555 1.490 . S
P544 C558 1.812 . S
P544 C564 1.803 . S
P544 C570 1.819 . S
H545 C559 0.941 . S
H546 C560 0.939 . S
H547 C562 0.940 . S
H548 C563 0.940 . S
H549 C565 0.939 . S
H550 C566 0.942 . S
H551 C568 0.940 . S
H552 C569 0.939 . S
H553 C571 0.941 . S
H554 C575 0.939 . S
O555 P544 1.490 . S
H556 C572 0.939 . S
H557 C574 0.940 . S
C558 P544 1.812 . S
C558 C559 1.389 . S
C558 C563 1.391 . S
C559 H545 0.941 . S
C559 C558 1.389 . S
C559 C560 1.397 . S
C560 H546 0.939 . S
C560 C559 1.397 . S
C560 C561 1.378 . S
C561 C560 1.378 . S
C561 C562 1.378 . S
C562 H547 0.940 . S
C562 C561 1.378 . S
C562 C563 1.396 . S
C563 H548 0.940 . S
C563 C558 1.391 . S
C563 C562 1.396 . S
C564 P544 1.803 . S
C564 C565 1.378 . S
C564 C569 1.400 . S
C565 H549 0.939 . S
C565 C564 1.378 . S
C565 C566 1.361 . S
C566 H550 0.942 . S
C566 C565 1.361 . S
C566 C567 1.369 . S
C567 C566 1.369 . S
C567 C568 1.404 . S
C568 H551 0.940 . S
C568 C567 1.404 . S
C568 C569 1.389 . S
C569 H552 0.939 . S
C569 C564 1.400 . S
C569 C568 1.389 . S
C570 P544 1.819 . S
C570 C571 1.391 . S
C570 C575 1.391 . S
C571 H553 0.941 . S
C571 C570 1.391 . S
C571 C572 1.396 . S
C572 H556 0.939 . S
C572 C571 1.396 . S
C572 C573 1.397 . S
C573 C572 1.397 . S
C573 C574 1.385 . S
C574 H557 0.940 . S
C574 C573 1.385 . S
C574 C575 1.388 . S
C575 H554 0.939 . S
C575 C570 1.391 . S
C575 C574 1.388 . S
P576 O587 1.490 . S
P576 C590 1.812 . S
P576 C596 1.803 . S
P576 C602 1.819 . S
H577 C591 0.941 . S
H578 C592 0.939 . S
H579 C594 0.940 . S
H580 C595 0.940 . S
H581 C597 0.939 . S
H582 C598 0.942 . S
H583 C600 0.940 . S
H584 C601 0.939 . S
H585 C603 0.941 . S
H586 C607 0.939 . S
O587 P576 1.490 . S
H588 C604 0.939 . S
H589 C606 0.940 . S
C590 P576 1.812 . S
C590 C591 1.389 . S
C590 C595 1.391 . S
C591 H577 0.941 . S
C591 C590 1.389 . S
C591 C592 1.397 . S
C592 H578 0.939 . S
C592 C591 1.397 . S
C592 C593 1.378 . S
C593 C592 1.378 . S
C593 C594 1.378 . S
C594 H579 0.940 . S
C594 C593 1.378 . S
C594 C595 1.396 . S
C595 H580 0.940 . S
C595 C590 1.391 . S
C595 C594 1.396 . S
C596 P576 1.803 . S
C596 C597 1.378 . S
C596 C601 1.400 . S
C597 H581 0.939 . S
C597 C596 1.378 . S
C597 C598 1.361 . S
C598 H582 0.942 . S
C598 C597 1.361 . S
C598 C599 1.369 . S
C599 C598 1.369 . S
C599 C600 1.404 . S
C600 H583 0.940 . S
C600 C599 1.404 . S
C600 C601 1.389 . S
C601 H584 0.939 . S
C601 C596 1.400 . S
C601 C600 1.389 . S
C602 P576 1.819 . S
C602 C603 1.391 . S
C602 C607 1.391 . S
C603 H585 0.941 . S
C603 C602 1.391 . S
C603 C604 1.396 . S
C604 H588 0.939 . S
C604 C603 1.396 . S
C604 C605 1.397 . S
C605 C604 1.397 . S
C605 C606 1.385 . S
C606 H589 0.940 . S
C606 C605 1.385 . S
C606 C607 1.388 . S
C607 H586 0.939 . S
C607 C602 1.391 . S
C607 C606 1.388 . S
P608 O619 1.490 . S
P608 C622 1.812 . S
P608 C628 1.803 . S
P608 C634 1.819 . S
H609 C623 0.941 . S
H610 C624 0.939 . S
H611 C626 0.940 . S
H612 C627 0.940 . S
H613 C629 0.939 . S
H614 C630 0.942 . S
H615 C632 0.940 . S
H616 C633 0.939 . S
H617 C635 0.941 . S
H618 C639 0.939 . S
O619 P608 1.490 . S
H620 C636 0.939 . S
H621 C638 0.940 . S
C622 P608 1.812 . S
C622 C623 1.389 . S
C622 C627 1.391 . S
C623 H609 0.941 . S
C623 C622 1.389 . S
C623 C624 1.397 . S
C624 H610 0.939 . S
C624 C623 1.397 . S
C624 C625 1.378 . S
C625 C624 1.378 . S
C625 C626 1.378 . S
C626 H611 0.940 . S
C626 C625 1.378 . S
C626 C627 1.396 . S
C627 H612 0.940 . S
C627 C622 1.391 . S
C627 C626 1.396 . S
C628 P608 1.803 . S
C628 C629 1.378 . S
C628 C633 1.400 . S
C629 H613 0.939 . S
C629 C628 1.378 . S
C629 C630 1.361 . S
C630 H614 0.942 . S
C630 C629 1.361 . S
C630 C631 1.369 . S
C631 C630 1.369 . S
C631 C632 1.404 . S
C632 H615 0.940 . S
C632 C631 1.404 . S
C632 C633 1.389 . S
C633 H616 0.939 . S
C633 C628 1.400 . S
C633 C632 1.389 . S
C634 P608 1.819 . S
C634 C635 1.391 . S
C634 C639 1.391 . S
C635 H617 0.941 . S
C635 C634 1.391 . S
C635 C636 1.396 . S
C636 H620 0.939 . S
C636 C635 1.396 . S
C636 C637 1.397 . S
C637 C636 1.397 . S
C637 C638 1.385 . S
C638 H621 0.940 . S
C638 C637 1.385 . S
C638 C639 1.388 . S
C639 H618 0.939 . S
C639 C634 1.391 . S
C639 C638 1.388 . S
P640 O651 1.490 . S
P640 C654 1.812 . S
P640 C660 1.803 . S
P640 C666 1.819 . S
H641 C655 0.941 . S
H642 C656 0.939 . S
H643 C658 0.940 . S
H644 C659 0.940 . S
H645 C661 0.939 . S
H646 C662 0.942 . S
H647 C664 0.940 . S
H648 C665 0.939 . S
H649 C667 0.941 . S
H650 C671 0.939 . S
O651 P640 1.490 . S
H652 C668 0.939 . S
H653 C670 0.940 . S
C654 P640 1.812 . S
C654 C655 1.389 . S
C654 C659 1.391 . S
C655 H641 0.941 . S
C655 C654 1.389 . S
C655 C656 1.397 . S
C656 H642 0.939 . S
C656 C655 1.397 . S
C656 C657 1.378 . S
C657 C656 1.378 . S
C657 C658 1.378 . S
C658 H643 0.940 . S
C658 C657 1.378 . S
C658 C659 1.396 . S
C659 H644 0.940 . S
C659 C654 1.391 . S
C659 C658 1.396 . S
C660 P640 1.803 . S
C660 C661 1.378 . S
C660 C665 1.400 . S
C661 H645 0.939 . S
C661 C660 1.378 . S
C661 C662 1.361 . S
C662 H646 0.942 . S
C662 C661 1.361 . S
C662 C663 1.369 . S
C663 C662 1.369 . S
C663 C664 1.404 . S
C664 H647 0.940 . S
C664 C663 1.404 . S
C664 C665 1.389 . S
C665 H648 0.939 . S
C665 C660 1.400 . S
C665 C664 1.389 . S
C666 P640 1.819 . S
C666 C667 1.391 . S
C666 C671 1.391 . S
C667 H649 0.941 . S
C667 C666 1.391 . S
C667 C668 1.396 . S
C668 H652 0.939 . S
C668 C667 1.396 . S
C668 C669 1.397 . S
C669 C668 1.397 . S
C669 C670 1.385 . S
C670 H653 0.940 . S
C670 C669 1.385 . S
C670 C671 1.388 . S
C671 H650 0.939 . S
C671 C666 1.391 . S
C671 C670 1.388 . S
P672 O683 1.490 . S
P672 C686 1.812 . S
P672 C692 1.803 . S
P672 C698 1.819 . S
H673 C687 0.941 . S
H674 C688 0.939 . S
H675 C690 0.940 . S
H676 C691 0.940 . S
H677 C693 0.939 . S
H678 C694 0.942 . S
H679 C696 0.940 . S
H680 C697 0.939 . S
H681 C699 0.941 . S
H682 C703 0.939 . S
O683 P672 1.490 . S
H684 C700 0.939 . S
H685 C702 0.940 . S
C686 P672 1.812 . S
C686 C687 1.389 . S
C686 C691 1.391 . S
C687 H673 0.941 . S
C687 C686 1.389 . S
C687 C688 1.397 . S
C688 H674 0.939 . S
C688 C687 1.397 . S
C688 C689 1.378 . S
C689 C688 1.378 . S
C689 C690 1.378 . S
C690 H675 0.940 . S
C690 C689 1.378 . S
C690 C691 1.396 . S
C691 H676 0.940 . S
C691 C686 1.391 . S
C691 C690 1.396 . S
C692 P672 1.803 . S
C692 C693 1.378 . S
C692 C697 1.400 . S
C693 H677 0.939 . S
C693 C692 1.378 . S
C693 C694 1.361 . S
C694 H678 0.942 . S
C694 C693 1.361 . S
C694 C695 1.369 . S
C695 C694 1.369 . S
C695 C696 1.404 . S
C696 H679 0.940 . S
C696 C695 1.404 . S
C696 C697 1.389 . S
C697 H680 0.939 . S
C697 C692 1.400 . S
C697 C696 1.389 . S
C698 P672 1.819 . S
C698 C699 1.391 . S
C698 C703 1.391 . S
C699 H681 0.941 . S
C699 C698 1.391 . S
C699 C700 1.396 . S
C700 H684 0.939 . S
C700 C699 1.396 . S
C700 C701 1.397 . S
C701 C700 1.397 . S
C701 C702 1.385 . S
C702 H685 0.940 . S
C702 C701 1.385 . S
C702 C703 1.388 . S
C703 H682 0.939 . S
C703 C698 1.391 . S
C703 C702 1.388 . S
P704 O715 1.490 . S
P704 C718 1.812 . S
P704 C724 1.803 . S
P704 C730 1.819 . S
H705 C719 0.941 . S
H706 C720 0.939 . S
H707 C722 0.940 . S
H708 C723 0.940 . S
H709 C725 0.939 . S
H710 C726 0.942 . S
H711 C728 0.940 . S
H712 C729 0.939 . S
H713 C731 0.941 . S
H714 C735 0.939 . S
O715 P704 1.490 . S
H716 C732 0.939 . S
H717 C734 0.940 . S
C718 P704 1.812 . S
C718 C719 1.389 . S
C718 C723 1.391 . S
C719 H705 0.941 . S
C719 C718 1.389 . S
C719 C720 1.397 . S
C720 H706 0.939 . S
C720 C719 1.397 . S
C720 C721 1.378 . S
C721 C720 1.378 . S
C721 C722 1.378 . S
C722 H707 0.940 . S
C722 C721 1.378 . S
C722 C723 1.396 . S
C723 H708 0.940 . S
C723 C718 1.391 . S
C723 C722 1.396 . S
C724 P704 1.803 . S
C724 C725 1.378 . S
C724 C729 1.400 . S
C725 H709 0.939 . S
C725 C724 1.378 . S
C725 C726 1.361 . S
C726 H710 0.942 . S
C726 C725 1.361 . S
C726 C727 1.369 . S
C727 C726 1.369 . S
C727 C728 1.404 . S
C728 H711 0.940 . S
C728 C727 1.404 . S
C728 C729 1.389 . S
C729 H712 0.939 . S
C729 C724 1.400 . S
C729 C728 1.389 . S
C730 P704 1.819 . S
C730 C731 1.391 . S
C730 C735 1.391 . S
C731 H713 0.941 . S
C731 C730 1.391 . S
C731 C732 1.396 . S
C732 H716 0.939 . S
C732 C731 1.396 . S
C732 C733 1.397 . S
C733 C732 1.397 . S
C733 C734 1.385 . S
C734 H717 0.940 . S
C734 C733 1.385 . S
C734 C735 1.388 . S
C735 H714 0.939 . S
C735 C730 1.391 . S
C735 C734 1.388 . S
P736 O747 1.490 . S
P736 C750 1.812 . S
P736 C756 1.803 . S
P736 C762 1.819 . S
H737 C751 0.941 . S
H738 C752 0.939 . S
H739 C754 0.940 . S
H740 C755 0.940 . S
H741 C757 0.939 . S
H742 C758 0.942 . S
H743 C760 0.940 . S
H744 C761 0.939 . S
H745 C763 0.941 . S
H746 C767 0.939 . S
O747 P736 1.490 . S
H748 C764 0.939 . S
H749 C766 0.940 . S
C750 P736 1.812 . S
C750 C751 1.389 . S
C750 C755 1.391 . S
C751 H737 0.941 . S
C751 C750 1.389 . S
C751 C752 1.397 . S
C752 H738 0.939 . S
C752 C751 1.397 . S
C752 C753 1.378 . S
C753 C752 1.378 . S
C753 C754 1.378 . S
C754 H739 0.940 . S
C754 C753 1.378 . S
C754 C755 1.396 . S
C755 H740 0.940 . S
C755 C750 1.391 . S
C755 C754 1.396 . S
C756 P736 1.803 . S
C756 C757 1.378 . S
C756 C761 1.400 . S
C757 H741 0.939 . S
C757 C756 1.378 . S
C757 C758 1.361 . S
C758 H742 0.942 . S
C758 C757 1.361 . S
C758 C759 1.369 . S
C759 C758 1.369 . S
C759 C760 1.404 . S
C760 H743 0.940 . S
C760 C759 1.404 . S
C760 C761 1.389 . S
C761 H744 0.939 . S
C761 C756 1.400 . S
C761 C760 1.389 . S
C762 P736 1.819 . S
C762 C763 1.391 . S
C762 C767 1.391 . S
C763 H745 0.941 . S
C763 C762 1.391 . S
C763 C764 1.396 . S
C764 H748 0.939 . S
C764 C763 1.396 . S
C764 C765 1.397 . S
C765 C764 1.397 . S
C765 C766 1.385 . S
C766 H749 0.940 . S
C766 C765 1.385 . S
C766 C767 1.388 . S
C767 H746 0.939 . S
C767 C762 1.391 . S
C767 C766 1.388 . S
P768 O779 1.490 . S
P768 C782 1.812 . S
P768 C788 1.803 . S
P768 C794 1.819 . S
H769 C783 0.941 . S
H770 C784 0.939 . S
H771 C786 0.940 . S
H772 C787 0.940 . S
H773 C789 0.939 . S
H774 C790 0.942 . S
H775 C792 0.940 . S
H776 C793 0.939 . S
H777 C795 0.941 . S
H778 C799 0.939 . S
O779 P768 1.490 . S
H780 C796 0.939 . S
H781 C798 0.940 . S
C782 P768 1.812 . S
C782 C783 1.389 . S
C782 C787 1.391 . S
C783 H769 0.941 . S
C783 C782 1.389 . S
C783 C784 1.397 . S
C784 H770 0.939 . S
C784 C783 1.397 . S
C784 C785 1.378 . S
C785 C784 1.378 . S
C785 C786 1.378 . S
C786 H771 0.940 . S
C786 C785 1.378 . S
C786 C787 1.396 . S
C787 H772 0.940 . S
C787 C782 1.391 . S
C787 C786 1.396 . S
C788 P768 1.803 . S
C788 C789 1.378 . S
C788 C793 1.400 . S
C789 H773 0.939 . S
C789 C788 1.378 . S
C789 C790 1.361 . S
C790 H774 0.942 . S
C790 C789 1.361 . S
C790 C791 1.369 . S
C791 C790 1.369 . S
C791 C792 1.404 . S
C792 H775 0.940 . S
C792 C791 1.404 . S
C792 C793 1.389 . S
C793 H776 0.939 . S
C793 C788 1.400 . S
C793 C792 1.389 . S
C794 P768 1.819 . S
C794 C795 1.391 . S
C794 C799 1.391 . S
C795 H777 0.941 . S
C795 C794 1.391 . S
C795 C796 1.396 . S
C796 H780 0.939 . S
C796 C795 1.396 . S
C796 C797 1.397 . S
C797 C796 1.397 . S
C797 C798 1.385 . S
C798 H781 0.940 . S
C798 C797 1.385 . S
C798 C799 1.388 . S
C799 H778 0.939 . S
C799 C794 1.391 . S
C799 C798 1.388 . S
P800 O811 1.490 . S
P800 C814 1.812 . S
P800 C820 1.803 . S
P800 C826 1.819 . S
H801 C815 0.941 . S
H802 C816 0.939 . S
H803 C818 0.940 . S
H804 C819 0.940 . S
H805 C821 0.939 . S
H806 C822 0.942 . S
H807 C824 0.940 . S
H808 C825 0.939 . S
H809 C827 0.941 . S
H810 C831 0.939 . S
O811 P800 1.490 . S
H812 C828 0.939 . S
H813 C830 0.940 . S
C814 P800 1.812 . S
C814 C815 1.389 . S
C814 C819 1.391 . S
C815 H801 0.941 . S
C815 C814 1.389 . S
C815 C816 1.397 . S
C816 H802 0.939 . S
C816 C815 1.397 . S
C816 C817 1.378 . S
C817 C816 1.378 . S
C817 C818 1.378 . S
C818 H803 0.940 . S
C818 C817 1.378 . S
C818 C819 1.396 . S
C819 H804 0.940 . S
C819 C814 1.391 . S
C819 C818 1.396 . S
C820 P800 1.803 . S
C820 C821 1.378 . S
C820 C825 1.400 . S
C821 H805 0.939 . S
C821 C820 1.378 . S
C821 C822 1.361 . S
C822 H806 0.942 . S
C822 C821 1.361 . S
C822 C823 1.369 . S
C823 C822 1.369 . S
C823 C824 1.404 . S
C824 H807 0.940 . S
C824 C823 1.404 . S
C824 C825 1.389 . S
C825 H808 0.939 . S
C825 C820 1.400 . S
C825 C824 1.389 . S
C826 P800 1.819 . S
C826 C827 1.391 . S
C826 C831 1.391 . S
C827 H809 0.941 . S
C827 C826 1.391 . S
C827 C828 1.396 . S
C828 H812 0.939 . S
C828 C827 1.396 . S
C828 C829 1.397 . S
C829 C828 1.397 . S
C829 C830 1.385 . S
C830 H813 0.940 . S
C830 C829 1.385 . S
C830 C831 1.388 . S
C831 H810 0.939 . S
C831 C826 1.391 . S
C831 C830 1.388 . S
P832 O843 1.490 . S
P832 C846 1.812 . S
P832 C852 1.803 . S
P832 C858 1.819 . S
H833 C847 0.941 . S
H834 C848 0.939 . S
H835 C850 0.940 . S
H836 C851 0.940 . S
H837 C853 0.939 . S
H838 C854 0.942 . S
H839 C856 0.940 . S
H840 C857 0.939 . S
H841 C859 0.941 . S
H842 C863 0.939 . S
O843 P832 1.490 . S
H844 C860 0.939 . S
H845 C862 0.940 . S
C846 P832 1.812 . S
C846 C847 1.389 . S
C846 C851 1.391 . S
C847 H833 0.941 . S
C847 C846 1.389 . S
C847 C848 1.397 . S
C848 H834 0.939 . S
C848 C847 1.397 . S
C848 C849 1.378 . S
C849 C848 1.378 . S
C849 C850 1.378 . S
C850 H835 0.940 . S
C850 C849 1.378 . S
C850 C851 1.396 . S
C851 H836 0.940 . S
C851 C846 1.391 . S
C851 C850 1.396 . S
C852 P832 1.803 . S
C852 C853 1.378 . S
C852 C857 1.400 . S
C853 H837 0.939 . S
C853 C852 1.378 . S
C853 C854 1.361 . S
C854 H838 0.942 . S
C854 C853 1.361 . S
C854 C855 1.369 . S
C855 C854 1.369 . S
C855 C856 1.404 . S
C856 H839 0.940 . S
C856 C855 1.404 . S
C856 C857 1.389 . S
C857 H840 0.939 . S
C857 C852 1.400 . S
C857 C856 1.389 . S
C858 P832 1.819 . S
C858 C859 1.391 . S
C858 C863 1.391 . S
C859 H841 0.941 . S
C859 C858 1.391 . S
C859 C860 1.396 . S
C860 H844 0.939 . S
C860 C859 1.396 . S
C860 C861 1.397 . S
C861 C860 1.397 . S
C861 C862 1.385 . S
C862 H845 0.940 . S
C862 C861 1.385 . S
C862 C863 1.388 . S
C863 H842 0.939 . S
C863 C858 1.391 . S
C863 C862 1.388 . S
P864 O875 1.490 . S
P864 C878 1.812 . S
P864 C884 1.803 . S
P864 C890 1.819 . S
H865 C879 0.941 . S
H866 C880 0.939 . S
H867 C882 0.940 . S
H868 C883 0.940 . S
H869 C885 0.939 . S
H870 C886 0.942 . S
H871 C888 0.940 . S
H872 C889 0.939 . S
H873 C891 0.941 . S
H874 C895 0.939 . S
O875 P864 1.490 . S
H876 C892 0.939 . S
H877 C894 0.940 . S
C878 P864 1.812 . S
C878 C879 1.389 . S
C878 C883 1.391 . S
C879 H865 0.941 . S
C879 C878 1.389 . S
C879 C880 1.397 . S
C880 H866 0.939 . S
C880 C879 1.397 . S
C880 C881 1.378 . S
C881 C880 1.378 . S
C881 C882 1.378 . S
C882 H867 0.940 . S
C882 C881 1.378 . S
C882 C883 1.396 . S
C883 H868 0.940 . S
C883 C878 1.391 . S
C883 C882 1.396 . S
C884 P864 1.803 . S
C884 C885 1.378 . S
C884 C889 1.400 . S
C885 H869 0.939 . S
C885 C884 1.378 . S
C885 C886 1.361 . S
C886 H870 0.942 . S
C886 C885 1.361 . S
C886 C887 1.369 . S
C887 C886 1.369 . S
C887 C888 1.404 . S
C888 H871 0.940 . S
C888 C887 1.404 . S
C888 C889 1.389 . S
C889 H872 0.939 . S
C889 C884 1.400 . S
C889 C888 1.389 . S
C890 P864 1.819 . S
C890 C891 1.391 . S
C890 C895 1.391 . S
C891 H873 0.941 . S
C891 C890 1.391 . S
C891 C892 1.396 . S
C892 H876 0.939 . S
C892 C891 1.396 . S
C892 C893 1.397 . S
C893 C892 1.397 . S
C893 C894 1.385 . S
C894 H877 0.940 . S
C894 C893 1.385 . S
C894 C895 1.388 . S
C895 H874 0.939 . S
C895 C890 1.391 . S
C895 C894 1.388 . S
P896 O907 1.490 . S
P896 C910 1.812 . S
P896 C916 1.803 . S
P896 C922 1.819 . S
H897 C911 0.941 . S
H898 C912 0.939 . S
H899 C914 0.940 . S
H900 C915 0.940 . S
H901 C917 0.939 . S
H902 C918 0.942 . S
H903 C920 0.940 . S
H904 C921 0.939 . S
H905 C923 0.941 . S
H906 C927 0.939 . S
O907 P896 1.490 . S
H908 C924 0.939 . S
H909 C926 0.940 . S
C910 P896 1.812 . S
C910 C911 1.389 . S
C910 C915 1.391 . S
C911 H897 0.941 . S
C911 C910 1.389 . S
C911 C912 1.397 . S
C912 H898 0.939 . S
C912 C911 1.397 . S
C912 C913 1.378 . S
C913 C912 1.378 . S
C913 C914 1.378 . S
C914 H899 0.940 . S
C914 C913 1.378 . S
C914 C915 1.396 . S
C915 H900 0.940 . S
C915 C910 1.391 . S
C915 C914 1.396 . S
C916 P896 1.803 . S
C916 C917 1.378 . S
C916 C921 1.400 . S
C917 H901 0.939 . S
C917 C916 1.378 . S
C917 C918 1.361 . S
C918 H902 0.942 . S
C918 C917 1.361 . S
C918 C919 1.369 . S
C919 C918 1.369 . S
C919 C920 1.404 . S
C920 H903 0.940 . S
C920 C919 1.404 . S
C920 C921 1.389 . S
C921 H904 0.939 . S
C921 C916 1.400 . S
C921 C920 1.389 . S
C922 P896 1.819 . S
C922 C923 1.391 . S
C922 C927 1.391 . S
C923 H905 0.941 . S
C923 C922 1.391 . S
C923 C924 1.396 . S
C924 H908 0.939 . S
C924 C923 1.396 . S
C924 C925 1.397 . S
C925 C924 1.397 . S
C925 C926 1.385 . S
C926 H909 0.940 . S
C926 C925 1.385 . S
C926 C927 1.388 . S
C927 H906 0.939 . S
C927 C922 1.391 . S
C927 C926 1.388 . S
P928 O939 1.490 . S
P928 C942 1.812 . S
P928 C948 1.803 . S
P928 C954 1.819 . S
H929 C943 0.941 . S
H930 C944 0.939 . S
H931 C946 0.940 . S
H932 C947 0.940 . S
H933 C949 0.939 . S
H934 C950 0.942 . S
H935 C952 0.940 . S
H936 C953 0.939 . S
H937 C955 0.941 . S
H938 C959 0.939 . S
O939 P928 1.490 . S
H940 C956 0.939 . S
H941 C958 0.940 . S
C942 P928 1.812 . S
C942 C943 1.389 . S
C942 C947 1.391 . S
C943 H929 0.941 . S
C943 C942 1.389 . S
C943 C944 1.397 . S
C944 H930 0.939 . S
C944 C943 1.397 . S
C944 C945 1.378 . S
C945 C944 1.378 . S
C945 C946 1.378 . S
C946 H931 0.940 . S
C946 C945 1.378 . S
C946 C947 1.396 . S
C947 H932 0.940 . S
C947 C942 1.391 . S
C947 C946 1.396 . S
C948 P928 1.803 . S
C948 C949 1.378 . S
C948 C953 1.400 . S
C949 H933 0.939 . S
C949 C948 1.378 . S
C949 C950 1.361 . S
C950 H934 0.942 . S
C950 C949 1.361 . S
C950 C951 1.369 . S
C951 C950 1.369 . S
C951 C952 1.404 . S
C952 H935 0.940 . S
C952 C951 1.404 . S
C952 C953 1.389 . S
C953 H936 0.939 . S
C953 C948 1.400 . S
C953 C952 1.389 . S
C954 P928 1.819 . S
C954 C955 1.391 . S
C954 C959 1.391 . S
C955 H937 0.941 . S
C955 C954 1.391 . S
C955 C956 1.396 . S
C956 H940 0.939 . S
C956 C955 1.396 . S
C956 C957 1.397 . S
C957 C956 1.397 . S
C957 C958 1.385 . S
C958 H941 0.940 . S
C958 C957 1.385 . S
C958 C959 1.388 . S
C959 H938 0.939 . S
C959 C954 1.391 . S
C959 C958 1.388 . S
P960 O971 1.490 . S
P960 C974 1.812 . S
P960 C980 1.803 . S
P960 C986 1.819 . S
H961 C975 0.941 . S
H962 C976 0.939 . S
H963 C978 0.940 . S
H964 C979 0.940 . S
H965 C981 0.939 . S
H966 C982 0.942 . S
H967 C984 0.940 . S
H968 C985 0.939 . S
H969 C987 0.941 . S
H970 C991 0.939 . S
O971 P960 1.490 . S
H972 C988 0.939 . S
H973 C990 0.940 . S
C974 P960 1.812 . S
C974 C975 1.389 . S
C974 C979 1.391 . S
C975 H961 0.941 . S
C975 C974 1.389 . S
C975 C976 1.397 . S
C976 H962 0.939 . S
C976 C975 1.397 . S
C976 C977 1.378 . S
C977 C976 1.378 . S
C977 C978 1.378 . S
C978 H963 0.940 . S
C978 C977 1.378 . S
C978 C979 1.396 . S
C979 H964 0.940 . S
C979 C974 1.391 . S
C979 C978 1.396 . S
C980 P960 1.803 . S
C980 C981 1.378 . S
C980 C985 1.400 . S
C981 H965 0.939 . S
C981 C980 1.378 . S
C981 C982 1.361 . S
C982 H966 0.942 . S
C982 C981 1.361 . S
C982 C983 1.369 . S
C983 C982 1.369 . S
C983 C984 1.404 . S
C984 H967 0.940 . S
C984 C983 1.404 . S
C984 C985 1.389 . S
C985 H968 0.939 . S
C985 C980 1.400 . S
C985 C984 1.389 . S
C986 P960 1.819 . S
C986 C987 1.391 . S
C986 C991 1.391 . S
C987 H969 0.941 . S
C987 C986 1.391 . S
C987 C988 1.396 . S
C988 H972 0.939 . S
C988 C987 1.396 . S
C988 C989 1.397 . S
C989 C988 1.397 . S
C989 C990 1.385 . S
C990 H973 0.940 . S
C990 C989 1.385 . S
C990 C991 1.388 . S
C991 H970 0.939 . S
C991 C986 1.391 . S
C991 C990 1.388 . S
P992 O1003 1.490 . S
P992 C1006 1.812 . S
P992 C1012 1.803 . S
P992 C1018 1.819 . S
H993 C1007 0.941 . S
H994 C1008 0.939 . S
H995 C1010 0.940 . S
H996 C1011 0.940 . S
H997 C1013 0.939 . S
H998 C1014 0.942 . S
H999 C1016 0.940 . S
H1000 C1017 0.939 . S
H1001 C1019 0.941 . S
H1002 C1023 0.939 . S
O1003 P992 1.490 . S
H1004 C1020 0.939 . S
H1005 C1022 0.940 . S
C1006 P992 1.812 . S
C1006 C1007 1.389 . S
C1006 C1011 1.391 . S
C1007 H993 0.941 . S
C1007 C1006 1.389 . S
C1007 C1008 1.397 . S
C1008 H994 0.939 . S
C1008 C1007 1.397 . S
C1008 C1009 1.378 . S
C1009 C1008 1.378 . S
C1009 C1010 1.378 . S
C1010 H995 0.940 . S
C1010 C1009 1.378 . S
C1010 C1011 1.396 . S
C1011 H996 0.940 . S
C1011 C1006 1.391 . S
C1011 C1010 1.396 . S
C1012 P992 1.803 . S
C1012 C1013 1.378 . S
C1012 C1017 1.400 . S
C1013 H997 0.939 . S
C1013 C1012 1.378 . S
C1013 C1014 1.361 . S
C1014 H998 0.942 . S
C1014 C1013 1.361 . S
C1014 C1015 1.369 . S
C1015 C1014 1.369 . S
C1015 C1016 1.404 . S
C1016 H999 0.940 . S
C1016 C1015 1.404 . S
C1016 C1017 1.389 . S
C1017 H1000 0.939 . S
C1017 C1012 1.400 . S
C1017 C1016 1.389 . S
C1018 P992 1.819 . S
C1018 C1019 1.391 . S
C1018 C1023 1.391 . S
C1019 H1001 0.941 . S
C1019 C1018 1.391 . S
C1019 C1020 1.396 . S
C1020 H1004 0.939 . S
C1020 C1019 1.396 . S
C1020 C1021 1.397 . S
C1021 C1020 1.397 . S
C1021 C1022 1.385 . S
C1022 H1005 0.940 . S
C1022 C1021 1.385 . S
C1022 C1023 1.388 . S
C1023 H1002 0.939 . S
C1023 C1018 1.391 . S
C1023 C1022 1.388 . S
Cu1024 N1025 1.999 . S
Cu1024 O1030 1.974 . S
Cu1024 N1035 1.985 . S
Cu1024 O1044 1.959 . S
N1025 Cu1024 1.999 . S
N1025 C1027 1.263 1_554 S
N1025 C1029 1.389 . S
N1026 C1027 1.358 . S
N1026 C1028 1.400 . S
C1027 N1025 1.263 1_556 S
C1027 N1026 1.358 . S
C1027 H1033 0.930 . S
C1028 N1026 1.400 . S
C1028 C1029 1.351 1_556 S
C1028 H1045 0.930 . S
C1029 N1025 1.389 . S
C1029 C1028 1.351 1_554 S
C1029 H1034 0.930 . S
O1030 Cu1024 1.974 . S
O1030 C1040 1.282 1_554 S
C1031 O1032 1.261 . S
C1031 O1044 1.251 . S
O1032 C1031 1.261 . S
H1033 C1027 0.930 . S
H1034 C1029 0.930 . S
N1035 Cu1024 1.985 . S
N1035 C1037 1.335 . S
N1035 C1038 1.390 . S
N1036 C1037 1.345 . S
N1036 C1039 1.336 . S
C1037 N1035 1.335 . S
C1037 N1036 1.345 . S
C1037 H1042 0.930 . S
C1038 N1035 1.390 . S
C1038 C1039 1.346 . S
C1038 H1043 0.930 . S
C1039 N1036 1.336 . S
C1039 C1038 1.346 . S
C1039 H1046 0.929 . S
C1040 O1030 1.282 1_556 S
C1040 O1041 1.216 . S
O1041 C1040 1.216 . S
H1042 C1037 0.930 . S
H1043 C1038 0.930 . S
O1044 Cu1024 1.959 . S
O1044 C1031 1.251 . S
H1045 C1028 0.930 . S
H1046 C1039 0.929 . S
Cu1047 N1048 1.999 . S
Cu1047 O1053 1.974 . S
Cu1047 N1058 1.985 1_554 S
Cu1047 O1067 1.959 1_554 S
N1048 Cu1047 1.999 . S
N1048 C1050 1.263 . S
N1048 C1052 1.389 . S
N1049 C1050 1.358 . S
N1049 C1051 1.400 . S
C1050 N1048 1.263 . S
C1050 N1049 1.358 . S
C1050 H1056 0.930 . S
C1051 N1049 1.400 . S
C1051 C1052 1.351 . S
C1051 H1068 0.930 . S
C1052 N1048 1.389 . S
C1052 C1051 1.351 . S
C1052 H1057 0.930 . S
O1053 Cu1047 1.974 . S
O1053 C1063 1.282 . S
C1054 O1055 1.261 . S
C1054 O1067 1.251 . S
O1055 C1054 1.261 . S
H1056 C1050 0.930 . S
H1057 C1052 0.930 . S
N1058 Cu1047 1.985 1_556 S
N1058 C1060 1.335 . S
N1058 C1061 1.390 . S
N1059 C1060 1.345 . S
N1059 C1062 1.336 . S
C1060 N1058 1.335 . S
C1060 N1059 1.345 . S
C1060 H1065 0.930 . S
C1061 N1058 1.390 . S
C1061 C1062 1.346 . S
C1061 H1066 0.930 1_556 S
C1062 N1059 1.336 . S
C1062 C1061 1.346 . S
C1062 H1069 0.929 . S
C1063 O1053 1.282 . S
C1063 O1064 1.216 . S
O1064 C1063 1.216 . S
H1065 C1060 0.930 . S
H1066 C1061 0.930 1_554 S
O1067 Cu1047 1.959 1_556 S
O1067 C1054 1.251 . S
H1068 C1051 0.930 . S
H1069 C1062 0.929 . S
Cu1070 N1071 1.999 1_554 S
Cu1070 O1076 1.974 1_554 S
Cu1070 N1081 1.985 . S
Cu1070 O1090 1.959 . S
N1071 Cu1070 1.999 1_556 S
N1071 C1073 1.263 . S
N1071 C1075 1.389 . S
N1072 C1073 1.358 . S
N1072 C1074 1.400 . S
C1073 N1071 1.263 . S
C1073 N1072 1.358 . S
C1073 H1079 0.930 . S
C1074 N1072 1.400 . S
C1074 C1075 1.351 . S
C1074 H1091 0.930 . S
C1075 N1071 1.389 . S
C1075 C1074 1.351 . S
C1075 H1080 0.930 1_556 S
O1076 Cu1070 1.974 1_556 S
O1076 C1086 1.282 . S
C1077 O1078 1.261 . S
C1077 O1090 1.251 . S
O1078 C1077 1.261 . S
H1079 C1073 0.930 . S
H1080 C1075 0.930 1_554 S
N1081 Cu1070 1.985 . S
N1081 C1083 1.335 . S
N1081 C1084 1.390 . S
N1082 C1083 1.345 . S
N1082 C1085 1.336 . S
C1083 N1081 1.335 . S
C1083 N1082 1.345 . S
C1083 H1088 0.930 . S
C1084 N1081 1.390 . S
C1084 C1085 1.346 . S
C1084 H1089 0.930 . S
C1085 N1082 1.336 . S
C1085 C1084 1.346 . S
C1085 H1092 0.929 . S
C1086 O1076 1.282 . S
C1086 O1087 1.216 . S
O1087 C1086 1.216 . S
H1088 C1083 0.930 . S
H1089 C1084 0.930 . S
O1090 Cu1070 1.959 . S
O1090 C1077 1.251 . S
H1091 C1074 0.930 . S
H1092 C1085 0.929 . S
Cu1093 N1094 1.996 1_556 S
Cu1093 O1099 1.969 1_556 S
Cu1093 N1104 1.988 . S
Cu1093 O1113 1.964 . S
N1094 Cu1093 1.996 1_554 S
N1094 C1096 1.263 . S
N1094 C1098 1.389 . S
N1095 C1096 1.358 . S
N1095 C1097 1.400 . S
C1096 N1094 1.263 . S
C1096 N1095 1.358 . S
C1096 H1102 0.930 . S
C1097 N1095 1.400 . S
C1097 C1098 1.351 . S
C1097 H1114 0.930 . S
C1098 N1094 1.389 . S
C1098 C1097 1.351 . S
C1098 H1103 0.930 . S
O1099 Cu1093 1.969 1_554 S
O1099 C1109 1.282 . S
C1100 O1101 1.261 . S
C1100 O1113 1.251 . S
O1101 C1100 1.261 . S
H1102 C1096 0.930 . S
H1103 C1098 0.930 . S
N1104 Cu1093 1.988 . S
N1104 C1106 1.335 . S
N1104 C1107 1.390 . S
N1105 C1106 1.345 . S
N1105 C1108 1.336 . S
C1106 N1104 1.335 . S
C1106 N1105 1.345 . S
C1106 H1111 0.930 . S
C1107 N1104 1.390 . S
C1107 C1108 1.346 . S
C1107 H1112 0.933 1_556 S
C1108 N1105 1.336 . S
C1108 C1107 1.346 . S
C1108 H1115 0.929 . S
C1109 O1099 1.282 . S
C1109 O1110 1.216 . S
O1110 C1109 1.216 . S
H1111 C1106 0.930 . S
H1112 C1107 0.933 1_554 S
O1113 Cu1093 1.964 . S
O1113 C1100 1.251 . S
H1114 C1097 0.930 . S
H1115 C1108 0.929 . S
Cu1116 N1117 1.999 . S
Cu1116 O1122 1.974 . S
Cu1116 N1127 1.985 1_455 S
Cu1116 O1136 1.959 1_455 S
N1117 Cu1116 1.999 . S
N1117 C1119 1.263 . S
N1117 C1121 1.389 . S
N1118 C1119 1.358 . S
N1118 C1120 1.400 . S
C1119 N1117 1.263 . S
C1119 N1118 1.358 . S
C1119 H1125 0.930 . S
C1120 N1118 1.400 . S
C1120 C1121 1.351 . S
C1120 H1137 0.930 . S
C1121 N1117 1.389 . S
C1121 C1120 1.351 . S
C1121 H1126 0.930 . S
O1122 Cu1116 1.974 . S
O1122 C1132 1.282 . S
C1123 O1124 1.261 . S
C1123 O1136 1.251 . S
O1124 C1123 1.261 . S
H1125 C1119 0.930 . S
H1126 C1121 0.930 . S
N1127 Cu1116 1.985 1_655 S
N1127 C1129 1.335 . S
N1127 C1130 1.390 . S
N1128 C1129 1.345 . S
N1128 C1131 1.336 . S
C1129 N1127 1.335 . S
C1129 N1128 1.345 . S
C1129 H1134 0.930 . S
C1130 N1127 1.390 . S
C1130 C1131 1.346 . S
C1130 H1135 0.930 1_655 S
C1131 N1128 1.336 . S
C1131 C1130 1.346 . S
C1131 H1138 0.929 . S
C1132 O1122 1.282 . S
C1132 O1133 1.216 . S
O1133 C1132 1.216 . S
H1134 C1129 0.930 . S
H1135 C1130 0.930 1_455 S
O1136 Cu1116 1.959 1_655 S
O1136 C1123 1.251 . S
H1137 C1120 0.930 . S
H1138 C1131 0.929 . S
Cu1139 N1140 1.999 . S
Cu1139 O1145 1.974 . S
Cu1139 N1150 1.985 1_545 S
Cu1139 O1159 1.959 1_545 S
N1140 Cu1139 1.999 . S
N1140 C1142 1.263 . S
N1140 C1144 1.389 . S
N1141 C1142 1.358 . S
N1141 C1143 1.400 . S
C1142 N1140 1.263 . S
C1142 N1141 1.358 . S
C1142 H1148 0.930 . S
C1143 N1141 1.400 . S
C1143 C1144 1.351 . S
C1143 H1160 0.930 . S
C1144 N1140 1.389 . S
C1144 C1143 1.351 . S
C1144 H1149 0.930 . S
O1145 Cu1139 1.974 . S
O1145 C1155 1.282 . S
C1146 O1147 1.261 . S
C1146 O1159 1.251 . S
O1147 C1146 1.261 . S
H1148 C1142 0.930 . S
H1149 C1144 0.930 . S
N1150 Cu1139 1.985 1_565 S
N1150 C1152 1.335 . S
N1150 C1153 1.390 . S
N1151 C1152 1.345 . S
N1151 C1154 1.336 . S
C1152 N1150 1.335 . S
C1152 N1151 1.345 . S
C1152 H1157 0.930 . S
C1153 N1150 1.390 . S
C1153 C1154 1.346 . S
C1153 H1158 0.930 1_565 S
C1154 N1151 1.336 . S
C1154 C1153 1.346 . S
C1154 H1161 0.929 . S
C1155 O1145 1.282 . S
C1155 O1156 1.216 . S
O1156 C1155 1.216 . S
H1157 C1152 0.930 . S
H1158 C1153 0.930 1_545 S
O1159 Cu1139 1.959 1_565 S
O1159 C1146 1.251 . S
H1160 C1143 0.930 . S
H1161 C1154 0.929 . S
Cu1162 N1163 1.994 1_455 S
Cu1162 O1168 1.968 1_455 S
Cu1162 N1173 1.990 . S
Cu1162 O1182 1.965 . S
N1163 Cu1162 1.994 1_655 S
N1163 C1165 1.263 . S
N1163 C1167 1.389 . S
N1164 C1165 1.358 . S
N1164 C1166 1.400 . S
C1165 N1163 1.263 . S
C1165 N1164 1.358 . S
C1165 H1171 0.930 . S
C1166 N1164 1.400 . S
C1166 C1167 1.351 . S
C1166 H1183 0.930 . S
C1167 N1163 1.389 . S
C1167 C1166 1.351 . S
C1167 H1172 0.930 . S
O1168 Cu1162 1.968 1_655 S
O1168 C1178 1.282 . S
C1169 O1170 1.261 . S
C1169 O1182 1.251 . S
O1170 C1169 1.261 . S
H1171 C1165 0.930 . S
H1172 C1167 0.930 . S
N1173 Cu1162 1.990 . S
N1173 C1175 1.335 . S
N1173 C1176 1.390 . S
N1174 C1175 1.345 . S
N1174 C1177 1.336 . S
C1175 N1173 1.335 . S
C1175 N1174 1.345 . S
C1175 H1180 0.930 . S
C1176 N1173 1.390 . S
C1176 C1177 1.346 . S
C1176 H1181 0.930 . S
C1177 N1174 1.336 . S
C1177 C1176 1.346 . S
C1177 H1184 0.929 . S
C1178 O1168 1.282 . S
C1178 O1179 1.216 . S
O1179 C1178 1.216 . S
H1180 C1175 0.930 . S
H1181 C1176 0.930 . S
O1182 Cu1162 1.965 . S
O1182 C1169 1.251 . S
H1183 C1166 0.930 . S
H1184 C1177 0.929 . S
Cu1185 N1186 1.987 1_565 S
Cu1185 O1191 1.959 1_565 S
Cu1185 N1196 1.997 . S
Cu1185 O1205 1.974 . S
N1186 Cu1185 1.987 1_545 S
N1186 C1188 1.263 . S
N1186 C1190 1.389 . S
N1187 C1188 1.358 . S
N1187 C1189 1.400 . S
C1188 N1186 1.263 . S
C1188 N1187 1.358 . S
C1188 H1194 0.930 . S
C1189 N1187 1.400 . S
C1189 C1190 1.351 . S
C1189 H1206 0.930 . S
C1190 N1186 1.389 . S
C1190 C1189 1.351 . S
C1190 H1195 0.930 . S
O1191 Cu1185 1.959 1_545 S
O1191 C1201 1.282 . S
C1192 O1193 1.261 . S
C1192 O1205 1.251 . S
O1193 C1192 1.261 . S
H1194 C1188 0.930 . S
H1195 C1190 0.930 . S
N1196 Cu1185 1.997 . S
N1196 C1198 1.335 . S
N1196 C1199 1.390 . S
N1197 C1198 1.345 . S
N1197 C1200 1.336 . S
C1198 N1196 1.335 . S
C1198 N1197 1.345 . S
C1198 H1203 0.930 . S
C1199 N1196 1.390 . S
C1199 C1200 1.346 . S
C1199 H1204 0.930 . S
C1200 N1197 1.336 . S
C1200 C1199 1.346 . S
C1200 H1207 0.929 . S
C1201 O1191 1.282 . S
C1201 O1202 1.216 . S
O1202 C1201 1.216 . S
H1203 C1198 0.930 . S
H1204 C1199 0.930 . S
O1205 Cu1185 1.974 . S
O1205 C1192 1.251 . S
H1206 C1189 0.930 . S
H1207 C1200 0.929 . S
Cu1208 N1209 1.999 . S
Cu1208 O1214 1.974 . S
Cu1208 N1219 1.985 1_455 S
Cu1208 O1228 1.959 1_455 S
N1209 Cu1208 1.999 . S
N1209 C1211 1.263 . S
N1209 C1213 1.389 . S
N1210 C1211 1.358 . S
N1210 C1212 1.400 . S
C1211 N1209 1.263 . S
C1211 N1210 1.358 . S
C1211 H1217 0.930 . S
C1212 N1210 1.400 . S
C1212 C1213 1.351 . S
C1212 H1229 0.930 . S
C1213 N1209 1.389 . S
C1213 C1212 1.351 . S
C1213 H1218 0.930 . S
O1214 Cu1208 1.974 . S
O1214 C1224 1.282 . S
C1215 O1216 1.261 . S
C1215 O1228 1.251 . S
O1216 C1215 1.261 . S
H1217 C1211 0.930 . S
H1218 C1213 0.930 . S
N1219 Cu1208 1.985 1_655 S
N1219 C1221 1.335 . S
N1219 C1222 1.390 . S
N1220 C1221 1.345 . S
N1220 C1223 1.336 . S
C1221 N1219 1.335 . S
C1221 N1220 1.345 . S
C1221 H1226 0.930 . S
C1222 N1219 1.390 . S
C1222 C1223 1.346 . S
C1222 H1227 0.930 1_655 S
C1223 N1220 1.336 . S
C1223 C1222 1.346 . S
C1223 H1230 0.929 . S
C1224 O1214 1.282 . S
C1224 O1225 1.216 . S
O1225 C1224 1.216 . S
H1226 C1221 0.930 . S
H1227 C1222 0.930 1_455 S
O1228 Cu1208 1.959 1_655 S
O1228 C1215 1.251 . S
H1229 C1212 0.930 . S
H1230 C1223 0.929 . S
Cu1231 N1232 1.999 . S
Cu1231 O1237 1.974 . S
Cu1231 N1242 1.985 1_545 S
Cu1231 O1251 1.959 1_545 S
N1232 Cu1231 1.999 . S
N1232 C1234 1.263 . S
N1232 C1236 1.389 . S
N1233 C1234 1.358 . S
N1233 C1235 1.400 . S
C1234 N1232 1.263 . S
C1234 N1233 1.358 . S
C1234 H1240 0.930 . S
C1235 N1233 1.400 . S
C1235 C1236 1.351 . S
C1235 H1252 0.930 . S
C1236 N1232 1.389 . S
C1236 C1235 1.351 . S
C1236 H1241 0.930 . S
O1237 Cu1231 1.974 . S
O1237 C1247 1.282 . S
C1238 O1239 1.261 . S
C1238 O1251 1.251 . S
O1239 C1238 1.261 . S
H1240 C1234 0.930 . S
H1241 C1236 0.930 . S
N1242 Cu1231 1.985 1_565 S
N1242 C1244 1.335 . S
N1242 C1245 1.395 . S
N1243 C1244 1.345 . S
N1243 C1246 1.336 . S
C1244 N1242 1.335 . S
C1244 N1243 1.345 . S
C1244 H1249 0.930 . S
C1245 N1242 1.395 . S
C1245 C1246 1.367 . S
C1245 H1250 0.909 1_565 S
C1246 N1243 1.336 . S
C1246 C1245 1.367 . S
C1246 H1253 0.929 . S
C1247 O1237 1.282 . S
C1247 O1248 1.216 . S
O1248 C1247 1.216 . S
H1249 C1244 0.930 . S
H1250 C1245 0.909 1_545 S
O1251 Cu1231 1.959 1_565 S
O1251 C1238 1.251 . S
H1252 C1235 0.930 . S
H1253 C1246 0.929 . S
Cu1254 N1255 1.999 . S
Cu1254 O1260 1.974 . S
Cu1254 N1265 1.985 . S
Cu1254 O1274 1.959 . S
N1255 Cu1254 1.999 . S
N1255 C1257 1.263 1_455 S
N1255 C1259 1.389 . S
N1256 C1257 1.358 . S
N1256 C1258 1.400 . S
C1257 N1255 1.263 1_655 S
C1257 N1256 1.358 . S
C1257 H1263 0.930 . S
C1258 N1256 1.400 . S
C1258 C1259 1.351 1_655 S
C1258 H1275 0.930 . S
C1259 N1255 1.389 . S
C1259 C1258 1.351 1_455 S
C1259 H1264 0.930 . S
O1260 Cu1254 1.974 . S
O1260 C1270 1.282 1_455 S
C1261 O1262 1.261 . S
C1261 O1274 1.251 . S
O1262 C1261 1.261 . S
H1263 C1257 0.930 . S
H1264 C1259 0.930 . S
N1265 Cu1254 1.985 . S
N1265 C1267 1.335 . S
N1265 C1268 1.390 . S
N1266 C1267 1.345 . S
N1266 C1269 1.336 . S
C1267 N1265 1.335 . S
C1267 N1266 1.345 . S
C1267 H1272 0.930 . S
C1268 N1265 1.390 . S
C1268 C1269 1.346 . S
C1268 H1273 0.930 . S
C1269 N1266 1.336 . S
C1269 C1268 1.346 . S
C1269 H1276 0.929 . S
C1270 O1260 1.282 1_655 S
C1270 O1271 1.216 1_655 S
O1271 C1270 1.216 1_455 S
H1272 C1267 0.930 . S
H1273 C1268 0.930 . S
O1274 Cu1254 1.959 . S
O1274 C1261 1.251 . S
H1275 C1258 0.930 . S
H1276 C1269 0.929 . S
Cu1277 N1278 1.999 . S
Cu1277 O1283 1.974 . S
Cu1277 N1288 2.034 . S
Cu1277 O1297 1.959 1_545 S
N1278 Cu1277 1.999 . S
N1278 C1280 1.263 . S
N1278 C1282 1.389 . S
N1279 C1280 1.358 . S
N1279 C1281 1.400 . S
C1280 N1278 1.263 . S
C1280 N1279 1.358 . S
C1280 H1286 0.930 . S
C1281 N1279 1.400 . S
C1281 C1282 1.351 . S
C1281 H1298 0.930 . S
C1282 N1278 1.389 . S
C1282 C1281 1.351 . S
C1282 H1287 0.930 . S
O1283 Cu1277 1.974 . S
O1283 C1293 1.282 . S
C1284 O1285 1.248 1_565 S
C1284 O1297 1.251 . S
O1285 C1284 1.248 1_545 S
H1286 C1280 0.930 . S
H1287 C1282 0.930 . S
N1288 Cu1277 2.034 . S
N1288 C1290 1.259 1_545 S
N1288 C1291 1.410 . S
N1289 C1290 1.345 . S
N1289 C1292 1.336 . S
C1290 N1288 1.259 1_565 S
C1290 N1289 1.345 . S
C1290 H1295 0.930 . S
C1291 N1288 1.410 . S
C1291 C1292 1.346 1_545 S
C1291 H1296 0.930 . S
C1292 N1289 1.336 . S
C1292 C1291 1.346 1_565 S
C1292 H1299 0.929 . S
C1293 O1283 1.282 . S
C1293 O1294 1.216 . S
O1294 C1293 1.216 . S
H1295 C1290 0.930 . S
H1296 C1291 0.930 . S
O1297 Cu1277 1.959 1_565 S
O1297 C1284 1.251 . S
H1298 C1281 0.930 . S
H1299 C1292 0.929 . S
Cu1300 N1301 1.999 . S
Cu1300 O1306 1.974 . S
Cu1300 N1311 1.985 . S
Cu1300 O1320 1.959 . S
N1301 Cu1300 1.999 . S
N1301 C1303 1.263 . S
N1301 C1305 1.389 . S
N1302 C1303 1.358 . S
N1302 C1304 1.400 . S
C1303 N1301 1.263 . S
C1303 N1302 1.358 . S
C1303 H1309 0.930 . S
C1304 N1302 1.400 . S
C1304 C1305 1.351 . S
C1304 H1321 0.930 . S
C1305 N1301 1.389 . S
C1305 C1304 1.351 . S
C1305 H1310 0.930 . S
O1306 Cu1300 1.974 . S
O1306 C1316 1.282 . S
C1307 O1308 1.261 . S
C1307 O1320 1.251 . S
O1308 C1307 1.261 . S
H1309 C1303 0.930 . S
H1310 C1305 0.930 . S
N1311 Cu1300 1.985 . S
N1311 C1313 1.335 . S
N1311 C1314 1.390 . S
N1312 C1313 1.345 . S
N1312 C1315 1.336 . S
C1313 N1311 1.335 . S
C1313 N1312 1.345 . S
C1313 H1318 0.930 . S
C1314 N1311 1.390 . S
C1314 C1315 1.346 . S
C1314 H1319 0.930 . S
C1315 N1312 1.336 . S
C1315 C1314 1.346 . S
C1315 H1322 0.929 . S
C1316 O1306 1.282 . S
C1316 O1317 1.216 . S
O1317 C1316 1.216 . S
H1318 C1313 0.930 . S
H1319 C1314 0.930 . S
O1320 Cu1300 1.959 . S
O1320 C1307 1.251 . S
H1321 C1304 0.930 . S
H1322 C1315 0.929 . S
Cu1323 N1324 1.999 . S
Cu1323 O1329 1.974 . S
Cu1323 N1334 1.985 . S
Cu1323 O1343 1.959 . S
N1324 Cu1323 1.999 . S
N1324 C1326 1.263 . S
N1324 C1328 1.389 . S
N1325 C1326 1.358 . S
N1325 C1327 1.400 . S
C1326 N1324 1.263 . S
C1326 N1325 1.358 . S
C1326 H1332 0.930 . S
C1327 N1325 1.400 . S
C1327 C1328 1.351 . S
C1327 H1344 0.930 . S
C1328 N1324 1.389 . S
C1328 C1327 1.351 . S
C1328 H1333 0.930 . S
O1329 Cu1323 1.974 . S
O1329 C1339 1.282 . S
C1330 O1331 1.261 . S
C1330 O1343 1.251 . S
O1331 C1330 1.261 . S
H1332 C1326 0.930 . S
H1333 C1328 0.930 . S
N1334 Cu1323 1.985 . S
N1334 C1336 1.335 . S
N1334 C1337 1.390 . S
N1335 C1336 1.345 . S
N1335 C1338 1.336 . S
C1336 N1334 1.335 . S
C1336 N1335 1.345 . S
C1336 H1341 0.930 . S
C1337 N1334 1.390 . S
C1337 C1338 1.346 . S
C1337 H1342 0.930 . S
C1338 N1335 1.336 . S
C1338 C1337 1.346 . S
C1338 H1345 0.929 . S
C1339 O1329 1.282 . S
C1339 O1340 1.216 . S
O1340 C1339 1.216 . S
H1341 C1336 0.930 . S
H1342 C1337 0.930 . S
O1343 Cu1323 1.959 . S
O1343 C1330 1.251 . S
H1344 C1327 0.930 . S
H1345 C1338 0.929 . S
Cu1346 N1347 1.999 . S
Cu1346 O1352 1.974 . S
Cu1346 N1357 1.985 . S
Cu1346 O1366 1.959 . S
N1347 Cu1346 1.999 . S
N1347 C1349 1.263 . S
N1347 C1351 1.389 . S
N1348 C1349 1.358 . S
N1348 C1350 1.400 . S
C1349 N1347 1.263 . S
C1349 N1348 1.358 . S
C1349 H1355 0.930 . S
C1350 N1348 1.400 . S
C1350 C1351 1.351 . S
C1350 H1367 0.930 . S
C1351 N1347 1.389 . S
C1351 C1350 1.351 . S
C1351 H1356 0.930 . S
O1352 Cu1346 1.974 . S
O1352 C1362 1.282 . S
C1353 O1354 1.261 . S
C1353 O1366 1.251 . S
O1354 C1353 1.261 . S
H1355 C1349 0.930 . S
H1356 C1351 0.930 . S
N1357 Cu1346 1.985 . S
N1357 C1359 1.335 . S
N1357 C1360 1.390 . S
N1358 C1359 1.345 . S
N1358 C1361 1.336 . S
C1359 N1357 1.335 . S
C1359 N1358 1.345 . S
C1359 H1364 0.930 . S
C1360 N1357 1.390 . S
C1360 C1361 1.346 . S
C1360 H1365 0.930 . S
C1361 N1358 1.336 . S
C1361 C1360 1.346 . S
C1361 H1368 0.929 . S
C1362 O1352 1.282 . S
C1362 O1363 1.216 . S
O1363 C1362 1.216 . S
H1364 C1359 0.930 . S
H1365 C1360 0.930 . S
O1366 Cu1346 1.959 . S
O1366 C1353 1.251 . S
H1367 C1350 0.930 . S
H1368 C1361 0.929 . S
Cu1369 N1370 1.999 . S
Cu1369 O1375 1.974 . S
Cu1369 N1380 1.985 . S
Cu1369 O1389 1.959 . S
N1370 Cu1369 1.999 . S
N1370 C1372 1.263 . S
N1370 C1374 1.389 . S
N1371 C1372 1.358 . S
N1371 C1373 1.400 . S
C1372 N1370 1.263 . S
C1372 N1371 1.358 . S
C1372 H1378 0.930 . S
C1373 N1371 1.400 . S
C1373 C1374 1.351 . S
C1373 H1390 0.930 . S
C1374 N1370 1.389 . S
C1374 C1373 1.351 . S
C1374 H1379 0.930 . S
O1375 Cu1369 1.974 . S
O1375 C1385 1.282 . S
C1376 O1377 1.261 . S
C1376 O1389 1.251 . S
O1377 C1376 1.261 . S
H1378 C1372 0.930 . S
H1379 C1374 0.930 . S
N1380 Cu1369 1.985 . S
N1380 C1382 1.335 . S
N1380 C1383 1.390 . S
N1381 C1382 1.345 . S
N1381 C1384 1.336 . S
C1382 N1380 1.335 . S
C1382 N1381 1.345 . S
C1382 H1387 0.930 . S
C1383 N1380 1.390 . S
C1383 C1384 1.346 . S
C1383 H1388 0.930 . S
C1384 N1381 1.336 . S
C1384 C1383 1.346 . S
C1384 H1391 0.929 . S
C1385 O1375 1.282 . S
C1385 O1386 1.216 . S
O1386 C1385 1.216 . S
H1387 C1382 0.930 . S
H1388 C1383 0.930 . S
O1389 Cu1369 1.959 . S
O1389 C1376 1.251 . S
H1390 C1373 0.930 . S
H1391 C1384 0.929 . S
Cu1392 N1393 1.999 . S
Cu1392 O1398 1.974 . S
Cu1392 N1403 1.985 . S
Cu1392 O1412 1.959 . S
N1393 Cu1392 1.999 . S
N1393 C1395 1.263 . S
N1393 C1397 1.389 . S
N1394 C1395 1.358 . S
N1394 C1396 1.400 . S
C1395 N1393 1.263 . S
C1395 N1394 1.358 . S
C1395 H1401 0.930 . S
C1396 N1394 1.400 . S
C1396 C1397 1.351 . S
C1396 H1413 0.930 . S
C1397 N1393 1.389 . S
C1397 C1396 1.351 . S
C1397 H1402 0.930 . S
O1398 Cu1392 1.974 . S
O1398 C1408 1.282 . S
C1399 O1400 1.261 . S
C1399 O1412 1.251 . S
O1400 C1399 1.261 . S
H1401 C1395 0.930 . S
H1402 C1397 0.930 . S
N1403 Cu1392 1.985 . S
N1403 C1405 1.335 . S
N1403 C1406 1.390 . S
N1404 C1405 1.345 . S
N1404 C1407 1.336 . S
C1405 N1403 1.335 . S
C1405 N1404 1.345 . S
C1405 H1410 0.930 . S
C1406 N1403 1.390 . S
C1406 C1407 1.346 . S
C1406 H1411 0.930 . S
C1407 N1404 1.336 . S
C1407 C1406 1.346 . S
C1407 H1414 0.929 . S
C1408 O1398 1.282 . S
C1408 O1409 1.216 . S
O1409 C1408 1.216 . S
H1410 C1405 0.930 . S
H1411 C1406 0.930 . S
O1412 Cu1392 1.959 . S
O1412 C1399 1.251 . S
H1413 C1396 0.930 . S
H1414 C1407 0.929 . S
Cu1415 N1416 1.999 . S
Cu1415 O1421 1.974 . S
Cu1415 N1426 1.985 . S
Cu1415 O1435 1.959 . S
N1416 Cu1415 1.999 . S
N1416 C1418 1.263 . S
N1416 C1420 1.389 . S
N1417 C1418 1.358 . S
N1417 C1419 1.400 . S
C1418 N1416 1.263 . S
C1418 N1417 1.358 . S
C1418 H1424 0.930 . S
C1419 N1417 1.400 . S
C1419 C1420 1.351 . S
C1419 H1436 0.930 . S
C1420 N1416 1.389 . S
C1420 C1419 1.351 . S
C1420 H1425 0.930 . S
O1421 Cu1415 1.974 . S
O1421 C1431 1.282 . S
C1422 O1423 1.261 . S
C1422 O1435 1.251 . S
O1423 C1422 1.261 . S
H1424 C1418 0.930 . S
H1425 C1420 0.930 . S
N1426 Cu1415 1.985 . S
N1426 C1428 1.335 . S
N1426 C1429 1.390 . S
N1427 C1428 1.345 . S
N1427 C1430 1.336 . S
C1428 N1426 1.335 . S
C1428 N1427 1.345 . S
C1428 H1433 0.930 . S
C1429 N1426 1.390 . S
C1429 C1430 1.346 . S
C1429 H1434 0.930 . S
C1430 N1427 1.336 . S
C1430 C1429 1.346 . S
C1430 H1437 0.929 . S
C1431 O1421 1.282 . S
C1431 O1432 1.216 . S
O1432 C1431 1.216 . S
H1433 C1428 0.930 . S
H1434 C1429 0.930 . S
O1435 Cu1415 1.959 . S
O1435 C1422 1.251 . S
H1436 C1419 0.930 . S
H1437 C1430 0.929 . S
Cu1438 N1439 1.999 . S
Cu1438 O1444 1.974 . S
Cu1438 N1449 1.985 . S
Cu1438 O1458 1.959 . S
N1439 Cu1438 1.999 . S
N1439 C1441 1.263 . S
N1439 C1443 1.389 . S
N1440 C1441 1.358 . S
N1440 C1442 1.400 . S
C1441 N1439 1.263 . S
C1441 N1440 1.358 . S
C1441 H1447 0.930 . S
C1442 N1440 1.400 . S
C1442 C1443 1.351 . S
C1442 H1459 0.930 . S
C1443 N1439 1.389 . S
C1443 C1442 1.351 . S
C1443 H1448 0.930 . S
O1444 Cu1438 1.974 . S
O1444 C1454 1.282 . S
C1445 O1446 1.261 . S
C1445 O1458 1.251 . S
O1446 C1445 1.261 . S
H1447 C1441 0.930 . S
H1448 C1443 0.930 . S
N1449 Cu1438 1.985 . S
N1449 C1451 1.335 . S
N1449 C1452 1.390 . S
N1450 C1451 1.345 . S
N1450 C1453 1.336 . S
C1451 N1449 1.335 . S
C1451 N1450 1.345 . S
C1451 H1456 0.930 . S
C1452 N1449 1.390 . S
C1452 C1453 1.346 . S
C1452 H1457 0.930 . S
C1453 N1450 1.336 . S
C1453 C1452 1.346 . S
C1453 H1460 0.929 . S
C1454 O1444 1.282 . S
C1454 O1455 1.216 . S
O1455 C1454 1.216 . S
H1456 C1451 0.930 . S
H1457 C1452 0.930 . S
O1458 Cu1438 1.959 . S
O1458 C1445 1.251 . S
H1459 C1442 0.930 . S
H1460 C1453 0.929 . S
Cu1461 N1462 1.999 . S
Cu1461 O1467 1.974 . S
Cu1461 N1472 1.985 . S
Cu1461 O1481 1.959 . S
N1462 Cu1461 1.999 . S
N1462 C1464 1.263 . S
N1462 C1466 1.389 . S
N1463 C1464 1.358 . S
N1463 C1465 1.400 . S
C1464 N1462 1.263 . S
C1464 N1463 1.358 . S
C1464 H1470 0.930 . S
C1465 N1463 1.400 . S
C1465 C1466 1.351 . S
C1465 H1482 0.930 . S
C1466 N1462 1.389 . S
C1466 C1465 1.351 . S
C1466 H1471 0.930 . S
O1467 Cu1461 1.974 . S
O1467 C1477 1.282 . S
C1468 O1469 1.261 . S
C1468 O1481 1.251 . S
O1469 C1468 1.261 . S
H1470 C1464 0.930 . S
H1471 C1466 0.930 . S
N1472 Cu1461 1.985 . S
N1472 C1474 1.335 . S
N1472 C1475 1.390 . S
N1473 C1474 1.345 . S
N1473 C1476 1.336 . S
C1474 N1472 1.335 . S
C1474 N1473 1.345 . S
C1474 H1479 0.930 . S
C1475 N1472 1.390 . S
C1475 C1476 1.346 . S
C1475 H1480 0.930 . S
C1476 N1473 1.336 . S
C1476 C1475 1.346 . S
C1476 H1483 0.929 . S
C1477 O1467 1.282 . S
C1477 O1478 1.216 . S
O1478 C1477 1.216 . S
H1479 C1474 0.930 . S
H1480 C1475 0.930 . S
O1481 Cu1461 1.959 . S
O1481 C1468 1.251 . S
H1482 C1465 0.930 . S
H1483 C1476 0.929 . S
Cu1484 N1485 1.999 . S
Cu1484 O1490 1.974 . S
Cu1484 N1495 1.985 . S
Cu1484 O1504 1.959 . S
N1485 Cu1484 1.999 . S
N1485 C1487 1.263 . S
N1485 C1489 1.389 . S
N1486 C1487 1.358 . S
N1486 C1488 1.400 . S
C1487 N1485 1.263 . S
C1487 N1486 1.358 . S
C1487 H1493 0.930 . S
C1488 N1486 1.400 . S
C1488 C1489 1.351 . S
C1488 H1505 0.930 . S
C1489 N1485 1.389 . S
C1489 C1488 1.351 . S
C1489 H1494 0.930 . S
O1490 Cu1484 1.974 . S
O1490 C1500 1.282 . S
C1491 O1492 1.261 . S
C1491 O1504 1.251 . S
O1492 C1491 1.261 . S
H1493 C1487 0.930 . S
H1494 C1489 0.930 . S
N1495 Cu1484 1.985 . S
N1495 C1497 1.335 . S
N1495 C1498 1.390 . S
N1496 C1497 1.345 . S
N1496 C1499 1.336 . S
C1497 N1495 1.335 . S
C1497 N1496 1.345 . S
C1497 H1502 0.930 . S
C1498 N1495 1.390 . S
C1498 C1499 1.346 . S
C1498 H1503 0.930 . S
C1499 N1496 1.336 . S
C1499 C1498 1.346 . S
C1499 H1506 0.929 . S
C1500 O1490 1.282 . S
C1500 O1501 1.216 . S
O1501 C1500 1.216 . S
H1502 C1497 0.930 . S
H1503 C1498 0.930 . S
O1504 Cu1484 1.959 . S
O1504 C1491 1.251 . S
H1505 C1488 0.930 . S
H1506 C1499 0.929 . S
Cu1507 N1508 1.999 . S
Cu1507 O1513 1.974 . S
Cu1507 N1518 1.985 . S
Cu1507 O1527 1.959 . S
N1508 Cu1507 1.999 . S
N1508 C1510 1.263 . S
N1508 C1512 1.389 . S
N1509 C1510 1.358 . S
N1509 C1511 1.400 . S
C1510 N1508 1.263 . S
C1510 N1509 1.358 . S
C1510 H1516 0.930 . S
C1511 N1509 1.400 . S
C1511 C1512 1.351 . S
C1511 H1528 0.930 . S
C1512 N1508 1.389 . S
C1512 C1511 1.351 . S
C1512 H1517 0.930 . S
O1513 Cu1507 1.974 . S
O1513 C1523 1.282 . S
C1514 O1515 1.261 . S
C1514 O1527 1.251 . S
O1515 C1514 1.261 . S
H1516 C1510 0.930 . S
H1517 C1512 0.930 . S
N1518 Cu1507 1.985 . S
N1518 C1520 1.335 . S
N1518 C1521 1.390 . S
N1519 C1520 1.345 . S
N1519 C1522 1.336 . S
C1520 N1518 1.335 . S
C1520 N1519 1.345 . S
C1520 H1525 0.930 . S
C1521 N1518 1.390 . S
C1521 C1522 1.346 . S
C1521 H1526 0.930 . S
C1522 N1519 1.336 . S
C1522 C1521 1.346 . S
C1522 H1529 0.929 . S
C1523 O1513 1.282 . S
C1523 O1524 1.216 . S
O1524 C1523 1.216 . S
H1525 C1520 0.930 . S
H1526 C1521 0.930 . S
O1527 Cu1507 1.959 . S
O1527 C1514 1.251 . S
H1528 C1511 0.930 . S
H1529 C1522 0.929 . S
Cu1530 N1531 1.999 . S
Cu1530 O1536 1.974 . S
Cu1530 N1541 1.985 . S
Cu1530 O1550 1.959 . S
N1531 Cu1530 1.999 . S
N1531 C1533 1.263 . S
N1531 C1535 1.389 . S
N1532 C1533 1.358 . S
N1532 C1534 1.400 . S
C1533 N1531 1.263 . S
C1533 N1532 1.358 . S
C1533 H1539 0.930 . S
C1534 N1532 1.400 . S
C1534 C1535 1.351 . S
C1534 H1551 0.930 . S
C1535 N1531 1.389 . S
C1535 C1534 1.351 . S
C1535 H1540 0.930 . S
O1536 Cu1530 1.974 . S
O1536 C1546 1.282 . S
C1537 O1538 1.261 . S
C1537 O1550 1.251 . S
O1538 C1537 1.261 . S
H1539 C1533 0.930 . S
H1540 C1535 0.930 . S
N1541 Cu1530 1.985 . S
N1541 C1543 1.335 . S
N1541 C1544 1.390 . S
N1542 C1543 1.345 . S
N1542 C1545 1.336 . S
C1543 N1541 1.335 . S
C1543 N1542 1.345 . S
C1543 H1548 0.930 . S
C1544 N1541 1.390 . S
C1544 C1545 1.346 . S
C1544 H1549 0.930 . S
C1545 N1542 1.336 . S
C1545 C1544 1.346 . S
C1545 H1552 0.929 . S
C1546 O1536 1.282 . S
C1546 O1547 1.216 . S
O1547 C1546 1.216 . S
H1548 C1543 0.930 . S
H1549 C1544 0.930 . S
O1550 Cu1530 1.959 . S
O1550 C1537 1.251 . S
H1551 C1534 0.930 . S
H1552 C1545 0.929 . S
Cu1553 N1554 1.999 . S
Cu1553 O1559 1.974 . S
Cu1553 N1564 1.985 . S
Cu1553 O1573 1.959 . S
N1554 Cu1553 1.999 . S
N1554 C1556 1.263 . S
N1554 C1558 1.389 . S
N1555 C1556 1.358 . S
N1555 C1557 1.400 . S
C1556 N1554 1.263 . S
C1556 N1555 1.358 . S
C1556 H1562 0.930 . S
C1557 N1555 1.400 . S
C1557 C1558 1.351 . S
C1557 H1574 0.930 . S
C1558 N1554 1.389 . S
C1558 C1557 1.351 . S
C1558 H1563 0.930 . S
O1559 Cu1553 1.974 . S
O1559 C1569 1.282 . S
C1560 O1561 1.261 . S
C1560 O1573 1.251 . S
O1561 C1560 1.261 . S
H1562 C1556 0.930 . S
H1563 C1558 0.930 . S
N1564 Cu1553 1.985 . S
N1564 C1566 1.335 . S
N1564 C1567 1.390 . S
N1565 C1566 1.345 . S
N1565 C1568 1.336 . S
C1566 N1564 1.335 . S
C1566 N1565 1.345 . S
C1566 H1571 0.930 . S
C1567 N1564 1.390 . S
C1567 C1568 1.346 . S
C1567 H1572 0.930 . S
C1568 N1565 1.336 . S
C1568 C1567 1.346 . S
C1568 H1575 0.929 . S
C1569 O1559 1.282 . S
C1569 O1570 1.216 . S
O1570 C1569 1.216 . S
H1571 C1566 0.930 . S
H1572 C1567 0.930 . S
O1573 Cu1553 1.959 . S
O1573 C1560 1.251 . S
H1574 C1557 0.930 . S
H1575 C1568 0.929 . S
H1576 C1584 0.950 . S
H1577 C1589 0.950 . S
H1578 C1586 0.950 . S
H1579 C1588 0.950 . S
H1580 C1590 0.950 . S
H1581 C1592 0.950 . S
H1582 C1594 0.950 . S
H1583 C1595 0.950 . S
C1584 H1576 0.950 . S
C1584 C1585 1.386 . S
C1584 C1586 1.391 . S
C1585 C1584 1.386 . S
C1585 C1589 1.393 . S
C1586 H1578 0.950 . S
C1586 C1584 1.391 . S
C1586 C1587 1.400 . S
C1587 C1586 1.400 . S
C1587 C1588 1.398 . S
C1587 C1593 1.491 . S
C1588 H1579 0.950 . S
C1588 C1587 1.398 . S
C1588 C1589 1.391 . S
C1589 H1577 0.950 . S
C1589 C1585 1.393 . S
C1589 C1588 1.391 . S
C1590 H1580 0.950 . S
C1590 C1591 1.386 . S
C1590 C1592 1.391 . S
C1591 C1590 1.386 . S
C1591 C1595 1.393 . S
C1592 H1581 0.950 . S
C1592 C1590 1.391 . S
C1592 C1593 1.400 . S
C1593 C1587 1.491 . S
C1593 C1592 1.400 . S
C1593 C1594 1.398 . S
C1594 H1582 0.950 . S
C1594 C1593 1.398 . S
C1594 C1595 1.391 . S
C1595 H1583 0.950 . S
C1595 C1591 1.393 . S
C1595 C1594 1.391 . S
H1596 C1604 0.950 . S
H1597 C1609 0.950 . S
H1598 C1606 0.950 . S
H1599 C1608 0.950 . S
H1600 C1610 0.950 . S
H1601 C1612 0.950 . S
H1602 C1614 0.950 . S
H1603 C1615 0.950 . S
C1604 H1596 0.950 . S
C1604 C1605 1.386 . S
C1604 C1606 1.391 . S
C1605 C1604 1.386 . S
C1605 C1609 1.393 . S
C1606 H1598 0.950 . S
C1606 C1604 1.391 . S
C1606 C1607 1.400 . S
C1607 C1606 1.400 . S
C1607 C1608 1.398 . S
C1607 C1613 1.491 . S
C1608 H1599 0.950 . S
C1608 C1607 1.398 . S
C1608 C1609 1.391 . S
C1609 H1597 0.950 . S
C1609 C1605 1.393 . S
C1609 C1608 1.391 . S
C1610 H1600 0.950 . S
C1610 C1611 1.386 . S
C1610 C1612 1.391 . S
C1611 C1610 1.386 . S
C1611 C1615 1.393 . S
C1612 H1601 0.950 . S
C1612 C1610 1.391 . S
C1612 C1613 1.400 . S
C1613 C1607 1.491 . S
C1613 C1612 1.400 . S
C1613 C1614 1.398 . S
C1614 H1602 0.950 . S
C1614 C1613 1.398 . S
C1614 C1615 1.391 . S
C1615 H1603 0.950 . S
C1615 C1611 1.393 . S
C1615 C1614 1.391 . S
H1616 C1624 0.950 . S
H1617 C1629 0.950 . S
H1618 C1626 0.950 . S
H1619 C1628 0.950 . S
H1620 C1630 0.950 . S
H1621 C1632 0.950 . S
H1622 C1634 0.950 . S
H1623 C1635 0.950 . S
C1624 H1616 0.950 . S
C1624 C1625 1.386 . S
C1624 C1626 1.391 . S
C1625 C1624 1.386 . S
C1625 C1629 1.393 . S
C1626 H1618 0.950 . S
C1626 C1624 1.391 . S
C1626 C1627 1.400 . S
C1627 C1626 1.400 . S
C1627 C1628 1.398 . S
C1627 C1633 1.491 . S
C1628 H1619 0.950 . S
C1628 C1627 1.398 . S
C1628 C1629 1.391 . S
C1629 H1617 0.950 . S
C1629 C1625 1.393 . S
C1629 C1628 1.391 . S
C1630 H1620 0.950 . S
C1630 C1631 1.386 . S
C1630 C1632 1.391 . S
C1631 C1630 1.386 . S
C1631 C1635 1.393 . S
C1632 H1621 0.950 . S
C1632 C1630 1.391 . S
C1632 C1633 1.400 . S
C1633 C1627 1.491 . S
C1633 C1632 1.400 . S
C1633 C1634 1.398 . S
C1634 H1622 0.950 . S
C1634 C1633 1.398 . S
C1634 C1635 1.391 . S
C1635 H1623 0.950 . S
C1635 C1631 1.393 . S
C1635 C1634 1.391 . S
H1636 C1644 0.950 . S
H1637 C1649 0.950 . S
H1638 C1646 0.950 . S
H1639 C1648 0.950 . S
H1640 C1650 0.950 . S
H1641 C1652 0.950 . S
H1642 C1654 0.950 . S
H1643 C1655 0.950 . S
C1644 H1636 0.950 . S
C1644 C1645 1.386 . S
C1644 C1646 1.391 . S
C1645 C1644 1.386 . S
C1645 C1649 1.393 . S
C1646 H1638 0.950 . S
C1646 C1644 1.391 . S
C1646 C1647 1.400 . S
C1647 C1646 1.400 . S
C1647 C1648 1.398 . S
C1647 C1653 1.491 . S
C1648 H1639 0.950 . S
C1648 C1647 1.398 . S
C1648 C1649 1.391 . S
C1649 H1637 0.950 . S
C1649 C1645 1.393 . S
C1649 C1648 1.391 . S
C1650 H1640 0.950 . S
C1650 C1651 1.386 . S
C1650 C1652 1.391 . S
C1651 C1650 1.386 . S
C1651 C1655 1.393 . S
C1652 H1641 0.950 . S
C1652 C1650 1.391 . S
C1652 C1653 1.400 . S
C1653 C1647 1.491 . S
C1653 C1652 1.400 . S
C1653 C1654 1.398 . S
C1654 H1642 0.950 . S
C1654 C1653 1.398 . S
C1654 C1655 1.391 . S
C1655 H1643 0.950 . S
C1655 C1651 1.393 . S
C1655 C1654 1.391 . S
H1656 C1664 0.950 . S
H1657 C1669 0.950 . S
H1658 C1666 0.950 . S
H1659 C1668 0.950 . S
H1660 C1670 0.950 . S
H1661 C1672 0.950 . S
H1662 C1674 0.950 . S
H1663 C1675 0.950 . S
C1664 H1656 0.950 . S
C1664 C1665 1.386 . S
C1664 C1666 1.391 . S
C1665 C1664 1.386 . S
C1665 C1669 1.393 . S
C1666 H1658 0.950 . S
C1666 C1664 1.391 . S
C1666 C1667 1.400 . S
C1667 C1666 1.400 . S
C1667 C1668 1.398 . S
C1667 C1673 1.491 . S
C1668 H1659 0.950 . S
C1668 C1667 1.398 . S
C1668 C1669 1.391 . S
C1669 H1657 0.950 . S
C1669 C1665 1.393 . S
C1669 C1668 1.391 . S
C1670 H1660 0.950 . S
C1670 C1671 1.386 . S
C1670 C1672 1.391 . S
C1671 C1670 1.386 . S
C1671 C1675 1.393 . S
C1672 H1661 0.950 . S
C1672 C1670 1.391 . S
C1672 C1673 1.400 . S
C1673 C1667 1.491 . S
C1673 C1672 1.400 . S
C1673 C1674 1.398 . S
C1674 H1662 0.950 . S
C1674 C1673 1.398 . S
C1674 C1675 1.391 . S
C1675 H1663 0.950 . S
C1675 C1671 1.393 . S
C1675 C1674 1.391 . S
H1676 C1684 0.950 . S
H1677 C1689 0.950 . S
H1678 C1686 0.950 . S
H1679 C1688 0.950 . S
H1680 C1690 0.950 . S
H1681 C1692 0.950 . S
H1682 C1694 0.950 . S
H1683 C1695 0.950 . S
C1684 H1676 0.950 . S
C1684 C1685 1.386 . S
C1684 C1686 1.391 . S
C1685 C1684 1.386 . S
C1685 C1689 1.393 . S
C1686 H1678 0.950 . S
C1686 C1684 1.391 . S
C1686 C1687 1.400 . S
C1687 C1686 1.400 . S
C1687 C1688 1.398 . S
C1687 C1693 1.491 . S
C1688 H1679 0.950 . S
C1688 C1687 1.398 . S
C1688 C1689 1.391 . S
C1689 H1677 0.950 . S
C1689 C1685 1.393 . S
C1689 C1688 1.391 . S
C1690 H1680 0.950 . S
C1690 C1691 1.386 . S
C1690 C1692 1.391 . S
C1691 C1690 1.386 . S
C1691 C1695 1.393 . S
C1692 H1681 0.950 . S
C1692 C1690 1.391 . S
C1692 C1693 1.400 . S
C1693 C1687 1.491 . S
C1693 C1692 1.400 . S
C1693 C1694 1.398 . S
C1694 H1682 0.950 . S
C1694 C1693 1.398 . S
C1694 C1695 1.391 . S
C1695 H1683 0.950 . S
C1695 C1691 1.393 . S
C1695 C1694 1.391 . S
H1696 C1704 0.950 . S
H1697 C1709 0.950 . S
H1698 C1706 0.950 . S
H1699 C1708 0.950 . S
H1700 C1710 0.950 . S
H1701 C1712 0.950 . S
H1702 C1714 0.950 . S
H1703 C1715 0.950 . S
C1704 H1696 0.950 . S
C1704 C1705 1.386 . S
C1704 C1706 1.391 . S
C1705 C1704 1.386 . S
C1705 C1709 1.393 . S
C1706 H1698 0.950 . S
C1706 C1704 1.391 . S
C1706 C1707 1.400 . S
C1707 C1706 1.400 . S
C1707 C1708 1.398 . S
C1707 C1713 1.491 . S
C1708 H1699 0.950 . S
C1708 C1707 1.398 . S
C1708 C1709 1.391 . S
C1709 H1697 0.950 . S
C1709 C1705 1.393 . S
C1709 C1708 1.391 . S
C1710 H1700 0.950 . S
C1710 C1711 1.386 . S
C1710 C1712 1.391 . S
C1711 C1710 1.386 . S
C1711 C1715 1.393 . S
C1712 H1701 0.950 . S
C1712 C1710 1.391 . S
C1712 C1713 1.400 . S
C1713 C1707 1.491 . S
C1713 C1712 1.400 . S
C1713 C1714 1.398 . S
C1714 H1702 0.950 . S
C1714 C1713 1.398 . S
C1714 C1715 1.391 . S
C1715 H1703 0.950 . S
C1715 C1711 1.393 . S
C1715 C1714 1.391 . S
H1716 C1724 0.950 . S
H1717 C1729 0.950 . S
H1718 C1726 0.950 . S
H1719 C1728 0.950 . S
H1720 C1730 0.950 . S
H1721 C1732 0.950 . S
H1722 C1734 0.950 . S
H1723 C1735 0.950 . S
C1724 H1716 0.950 . S
C1724 C1725 1.386 . S
C1724 C1726 1.391 . S
C1725 C1724 1.386 . S
C1725 C1729 1.393 . S
C1726 H1718 0.950 . S
C1726 C1724 1.391 . S
C1726 C1727 1.400 . S
C1727 C1726 1.400 . S
C1727 C1728 1.398 . S
C1727 C1733 1.491 . S
C1728 H1719 0.950 . S
C1728 C1727 1.398 . S
C1728 C1729 1.391 . S
C1729 H1717 0.950 . S
C1729 C1725 1.393 . S
C1729 C1728 1.391 . S
C1730 H1720 0.950 . S
C1730 C1731 1.386 . S
C1730 C1732 1.391 . S
C1731 C1730 1.386 . S
C1731 C1735 1.393 . S
C1732 H1721 0.950 . S
C1732 C1730 1.391 . S
C1732 C1733 1.400 . S
C1733 C1727 1.491 . S
C1733 C1732 1.400 . S
C1733 C1734 1.398 . S
C1734 H1722 0.950 . S
C1734 C1733 1.398 . S
C1734 C1735 1.391 . S
C1735 H1723 0.950 . S
C1735 C1731 1.393 . S
C1735 C1734 1.391 . S
H1736 C1744 0.950 . S
H1737 C1749 0.950 . S
H1738 C1746 0.950 . S
H1739 C1748 0.950 . S
H1740 C1750 0.950 . S
H1741 C1752 0.950 . S
H1742 C1754 0.950 . S
H1743 C1755 0.950 . S
C1744 H1736 0.950 . S
C1744 C1745 1.386 . S
C1744 C1746 1.391 . S
C1745 C1744 1.386 . S
C1745 C1749 1.393 . S
C1746 H1738 0.950 . S
C1746 C1744 1.391 . S
C1746 C1747 1.400 . S
C1747 C1746 1.400 . S
C1747 C1748 1.398 . S
C1747 C1753 1.491 . S
C1748 H1739 0.950 . S
C1748 C1747 1.398 . S
C1748 C1749 1.391 . S
C1749 H1737 0.950 . S
C1749 C1745 1.393 . S
C1749 C1748 1.391 . S
C1750 H1740 0.950 . S
C1750 C1751 1.386 . S
C1750 C1752 1.391 . S
C1751 C1750 1.386 . S
C1751 C1755 1.393 . S
C1752 H1741 0.950 . S
C1752 C1750 1.391 . S
C1752 C1753 1.400 . S
C1753 C1747 1.491 . S
C1753 C1752 1.400 . S
C1753 C1754 1.398 . S
C1754 H1742 0.950 . S
C1754 C1753 1.398 . S
C1754 C1755 1.391 . S
C1755 H1743 0.950 . S
C1755 C1751 1.393 . S
C1755 C1754 1.391 . S
H1756 C1764 0.950 . S
H1757 C1769 0.950 . S
H1758 C1766 0.950 . S
H1759 C1768 0.950 . S
H1760 C1770 0.950 . S
H1761 C1772 0.950 . S
H1762 C1774 0.950 . S
H1763 C1775 0.950 . S
C1764 H1756 0.950 . S
C1764 C1765 1.386 . S
C1764 C1766 1.391 . S
C1765 C1764 1.386 . S
C1765 C1769 1.393 . S
C1766 H1758 0.950 . S
C1766 C1764 1.391 . S
C1766 C1767 1.400 . S
C1767 C1766 1.400 . S
C1767 C1768 1.398 . S
C1767 C1773 1.491 . S
C1768 H1759 0.950 . S
C1768 C1767 1.398 . S
C1768 C1769 1.391 . S
C1769 H1757 0.950 . S
C1769 C1765 1.393 . S
C1769 C1768 1.391 . S
C1770 H1760 0.950 . S
C1770 C1771 1.386 . S
C1770 C1772 1.391 . S
C1771 C1770 1.386 . S
C1771 C1775 1.393 . S
C1772 H1761 0.950 . S
C1772 C1770 1.391 . S
C1772 C1773 1.400 . S
C1773 C1767 1.491 . S
C1773 C1772 1.400 . S
C1773 C1774 1.398 . S
C1774 H1762 0.950 . S
C1774 C1773 1.398 . S
C1774 C1775 1.391 . S
C1775 H1763 0.950 . S
C1775 C1771 1.393 . S
C1775 C1774 1.391 . S
H1776 C1784 0.950 . S
H1777 C1789 0.950 . S
H1778 C1786 0.950 . S
H1779 C1788 0.950 . S
H1780 C1790 0.950 . S
H1781 C1792 0.950 . S
H1782 C1794 0.950 . S
H1783 C1795 0.950 . S
C1784 H1776 0.950 . S
C1784 C1785 1.386 . S
C1784 C1786 1.391 . S
C1785 C1784 1.386 . S
C1785 C1789 1.393 . S
C1786 H1778 0.950 . S
C1786 C1784 1.391 . S
C1786 C1787 1.400 . S
C1787 C1786 1.400 . S
C1787 C1788 1.398 . S
C1787 C1793 1.491 . S
C1788 H1779 0.950 . S
C1788 C1787 1.398 . S
C1788 C1789 1.391 . S
C1789 H1777 0.950 . S
C1789 C1785 1.393 . S
C1789 C1788 1.391 . S
C1790 H1780 0.950 . S
C1790 C1791 1.386 . S
C1790 C1792 1.391 . S
C1791 C1790 1.386 . S
C1791 C1795 1.393 . S
C1792 H1781 0.950 . S
C1792 C1790 1.391 . S
C1792 C1793 1.400 . S
C1793 C1787 1.491 . S
C1793 C1792 1.400 . S
C1793 C1794 1.398 . S
C1794 H1782 0.950 . S
C1794 C1793 1.398 . S
C1794 C1795 1.391 . S
C1795 H1783 0.950 . S
C1795 C1791 1.393 . S
C1795 C1794 1.391 . S
H1796 C1804 0.950 . S
H1797 C1809 0.950 . S
H1798 C1806 0.950 . S
H1799 C1808 0.950 . S
H1800 C1810 0.950 . S
H1801 C1812 0.950 . S
H1802 C1814 0.950 . S
H1803 C1815 0.950 . S
C1804 H1796 0.950 . S
C1804 C1805 1.386 . S
C1804 C1806 1.391 . S
C1805 C1804 1.386 . S
C1805 C1809 1.393 . S
C1806 H1798 0.950 . S
C1806 C1804 1.391 . S
C1806 C1807 1.400 . S
C1807 C1806 1.400 . S
C1807 C1808 1.398 . S
C1807 C1813 1.491 . S
C1808 H1799 0.950 . S
C1808 C1807 1.398 . S
C1808 C1809 1.391 . S
C1809 H1797 0.950 . S
C1809 C1805 1.393 . S
C1809 C1808 1.391 . S
C1810 H1800 0.950 . S
C1810 C1811 1.386 . S
C1810 C1812 1.391 . S
C1811 C1810 1.386 . S
C1811 C1815 1.393 . S
C1812 H1801 0.950 . S
C1812 C1810 1.391 . S
C1812 C1813 1.400 . S
C1813 C1807 1.491 . S
C1813 C1812 1.400 . S
C1813 C1814 1.398 . S
C1814 H1802 0.950 . S
C1814 C1813 1.398 . S
C1814 C1815 1.391 . S
C1815 H1803 0.950 . S
C1815 C1811 1.393 . S
C1815 C1814 1.391 . S
H1816 C1824 0.950 . S
H1817 C1829 0.950 . S
H1818 C1826 0.950 . S
H1819 C1828 0.950 . S
H1820 C1830 0.950 . S
H1821 C1832 0.950 . S
H1822 C1834 0.950 . S
H1823 C1835 0.950 . S
C1824 H1816 0.950 . S
C1824 C1825 1.386 . S
C1824 C1826 1.391 . S
C1825 C1824 1.386 . S
C1825 C1829 1.393 . S
C1826 H1818 0.950 . S
C1826 C1824 1.391 . S
C1826 C1827 1.400 . S
C1827 C1826 1.400 . S
C1827 C1828 1.398 . S
C1827 C1833 1.491 . S
C1828 H1819 0.950 . S
C1828 C1827 1.398 . S
C1828 C1829 1.391 . S
C1829 H1817 0.950 . S
C1829 C1825 1.393 . S
C1829 C1828 1.391 . S
C1830 H1820 0.950 . S
C1830 C1831 1.386 . S
C1830 C1832 1.391 . S
C1831 C1830 1.386 . S
C1831 C1835 1.393 . S
C1832 H1821 0.950 . S
C1832 C1830 1.391 . S
C1832 C1833 1.400 . S
C1833 C1827 1.491 . S
C1833 C1832 1.400 . S
C1833 C1834 1.398 . S
C1834 H1822 0.950 . S
C1834 C1833 1.398 . S
C1834 C1835 1.391 . S
C1835 H1823 0.950 . S
C1835 C1831 1.393 . S
C1835 C1834 1.391 . S
H1836 C1844 0.950 . S
H1837 C1849 0.950 . S
H1838 C1846 0.950 . S
H1839 C1848 0.950 . S
H1840 C1850 0.950 . S
H1841 C1852 0.950 . S
H1842 C1854 0.950 . S
H1843 C1855 0.950 . S
C1844 H1836 0.950 . S
C1844 C1845 1.386 . S
C1844 C1846 1.391 . S
C1845 C1844 1.386 . S
C1845 C1849 1.393 . S
C1846 H1838 0.950 . S
C1846 C1844 1.391 . S
C1846 C1847 1.400 . S
C1847 C1846 1.400 . S
C1847 C1848 1.398 . S
C1847 C1853 1.491 . S
C1848 H1839 0.950 . S
C1848 C1847 1.398 . S
C1848 C1849 1.391 . S
C1849 H1837 0.950 . S
C1849 C1845 1.393 . S
C1849 C1848 1.391 . S
C1850 H1840 0.950 . S
C1850 C1851 1.386 . S
C1850 C1852 1.391 . S
C1851 C1850 1.386 . S
C1851 C1855 1.393 . S
C1852 H1841 0.950 . S
C1852 C1850 1.391 . S
C1852 C1853 1.400 . S
C1853 C1847 1.491 . S
C1853 C1852 1.400 . S
C1853 C1854 1.398 . S
C1854 H1842 0.950 . S
C1854 C1853 1.398 . S
C1854 C1855 1.391 . S
C1855 H1843 0.950 . S
C1855 C1851 1.393 . S
C1855 C1854 1.391 . S
H1856 C1864 0.950 . S
H1857 C1869 0.950 . S
H1858 C1866 0.950 . S
H1859 C1868 0.950 . S
H1860 C1870 0.950 . S
H1861 C1872 0.950 . S
H1862 C1874 0.950 . S
H1863 C1875 0.950 . S
C1864 H1856 0.950 . S
C1864 C1865 1.386 . S
C1864 C1866 1.391 . S
C1865 C1864 1.386 . S
C1865 C1869 1.393 . S
C1866 H1858 0.950 . S
C1866 C1864 1.391 . S
C1866 C1867 1.400 . S
C1867 C1866 1.400 . S
C1867 C1868 1.398 . S
C1867 C1873 1.491 . S
C1868 H1859 0.950 . S
C1868 C1867 1.398 . S
C1868 C1869 1.391 . S
C1869 H1857 0.950 . S
C1869 C1865 1.393 . S
C1869 C1868 1.391 . S
C1870 H1860 0.950 . S
C1870 C1871 1.386 . S
C1870 C1872 1.391 . S
C1871 C1870 1.386 . S
C1871 C1875 1.393 . S
C1872 H1861 0.950 . S
C1872 C1870 1.391 . S
C1872 C1873 1.400 . S
C1873 C1867 1.491 . S
C1873 C1872 1.400 . S
C1873 C1874 1.398 . S
C1874 H1862 0.950 . S
C1874 C1873 1.398 . S
C1874 C1875 1.391 . S
C1875 H1863 0.950 . S
C1875 C1871 1.393 . S
C1875 C1874 1.391 . S
H1876 C1884 0.950 . S
H1877 C1889 0.950 . S
H1878 C1886 0.950 . S
H1879 C1888 0.950 . S
H1880 C1890 0.950 . S
H1881 C1892 0.950 . S
H1882 C1894 0.950 . S
H1883 C1895 0.950 . S
C1884 H1876 0.950 . S
C1884 C1885 1.386 . S
C1884 C1886 1.391 . S
C1885 C1884 1.386 . S
C1885 C1889 1.393 . S
C1886 H1878 0.950 . S
C1886 C1884 1.391 . S
C1886 C1887 1.400 . S
C1887 C1886 1.400 . S
C1887 C1888 1.398 . S
C1887 C1893 1.491 . S
C1888 H1879 0.950 . S
C1888 C1887 1.398 . S
C1888 C1889 1.391 . S
C1889 H1877 0.950 . S
C1889 C1885 1.393 . S
C1889 C1888 1.391 . S
C1890 H1880 0.950 . S
C1890 C1891 1.386 . S
C1890 C1892 1.391 . S
C1891 C1890 1.386 . S
C1891 C1895 1.393 . S
C1892 H1881 0.950 . S
C1892 C1890 1.391 . S
C1892 C1893 1.400 . S
C1893 C1887 1.491 . S
C1893 C1892 1.400 . S
C1893 C1894 1.398 . S
C1894 H1882 0.950 . S
C1894 C1893 1.398 . S
C1894 C1895 1.391 . S
C1895 H1883 0.950 . S
C1895 C1891 1.393 . S
C1895 C1894 1.391 . S
H1896 C1904 0.950 . S
H1897 C1909 0.950 . S
H1898 C1906 0.950 . S
H1899 C1908 0.950 . S
H1900 C1910 0.950 . S
H1901 C1912 0.950 . S
H1902 C1914 0.950 . S
H1903 C1915 0.950 . S
C1904 H1896 0.950 . S
C1904 C1905 1.386 . S
C1904 C1906 1.391 . S
C1905 C1904 1.386 . S
C1905 C1909 1.393 . S
C1906 H1898 0.950 . S
C1906 C1904 1.391 . S
C1906 C1907 1.400 . S
C1907 C1906 1.400 . S
C1907 C1908 1.398 . S
C1907 C1913 1.491 . S
C1908 H1899 0.950 . S
C1908 C1907 1.398 . S
C1908 C1909 1.391 . S
C1909 H1897 0.950 . S
C1909 C1905 1.393 . S
C1909 C1908 1.391 . S
C1910 H1900 0.950 . S
C1910 C1911 1.386 . S
C1910 C1912 1.391 . S
C1911 C1910 1.386 . S
C1911 C1915 1.393 . S
C1912 H1901 0.950 . S
C1912 C1910 1.391 . S
C1912 C1913 1.400 . S
C1913 C1907 1.491 . S
C1913 C1912 1.400 . S
C1913 C1914 1.398 . S
C1914 H1902 0.950 . S
C1914 C1913 1.398 . S
C1914 C1915 1.391 . S
C1915 H1903 0.950 . S
C1915 C1911 1.393 . S
C1915 C1914 1.391 . S
H1916 C1924 0.950 . S
H1917 C1929 0.950 . S
H1918 C1926 0.950 . S
H1919 C1928 0.950 . S
H1920 C1930 0.950 . S
H1921 C1932 0.950 . S
H1922 C1934 0.950 . S
H1923 C1935 0.950 . S
C1924 H1916 0.950 . S
C1924 C1925 1.386 . S
C1924 C1926 1.391 . S
C1925 C1924 1.386 . S
C1925 C1929 1.393 . S
C1926 H1918 0.950 . S
C1926 C1924 1.391 . S
C1926 C1927 1.400 . S
C1927 C1926 1.400 . S
C1927 C1928 1.398 . S
C1927 C1933 1.491 . S
C1928 H1919 0.950 . S
C1928 C1927 1.398 . S
C1928 C1929 1.391 . S
C1929 H1917 0.950 . S
C1929 C1925 1.393 . S
C1929 C1928 1.391 . S
C1930 H1920 0.950 . S
C1930 C1931 1.386 . S
C1930 C1932 1.391 . S
C1931 C1930 1.386 . S
C1931 C1935 1.393 . S
C1932 H1921 0.950 . S
C1932 C1930 1.391 . S
C1932 C1933 1.400 . S
C1933 C1927 1.491 . S
C1933 C1932 1.400 . S
C1933 C1934 1.398 . S
C1934 H1922 0.950 . S
C1934 C1933 1.398 . S
C1934 C1935 1.391 . S
C1935 H1923 0.950 . S
C1935 C1931 1.393 . S
C1935 C1934 1.391 . S
H1936 C1944 0.950 . S
H1937 C1949 0.950 . S
H1938 C1946 0.950 . S
H1939 C1948 0.950 . S
H1940 C1950 0.950 . S
H1941 C1952 0.950 . S
H1942 C1954 0.950 . S
H1943 C1955 0.950 . S
C1944 H1936 0.950 . S
C1944 C1945 1.386 . S
C1944 C1946 1.391 . S
C1945 C1944 1.386 . S
C1945 C1949 1.393 . S
C1946 H1938 0.950 . S
C1946 C1944 1.391 . S
C1946 C1947 1.400 . S
C1947 C1946 1.400 . S
C1947 C1948 1.398 . S
C1947 C1953 1.491 . S
C1948 H1939 0.950 . S
C1948 C1947 1.398 . S
C1948 C1949 1.391 . S
C1949 H1937 0.950 . S
C1949 C1945 1.393 . S
C1949 C1948 1.391 . S
C1950 H1940 0.950 . S
C1950 C1951 1.386 . S
C1950 C1952 1.391 . S
C1951 C1950 1.386 . S
C1951 C1955 1.393 . S
C1952 H1941 0.950 . S
C1952 C1950 1.391 . S
C1952 C1953 1.400 . S
C1953 C1947 1.491 . S
C1953 C1952 1.400 . S
C1953 C1954 1.398 . S
C1954 H1942 0.950 . S
C1954 C1953 1.398 . S
C1954 C1955 1.391 . S
C1955 H1943 0.950 . S
C1955 C1951 1.393 . S
C1955 C1954 1.391 . S
H1956 C1964 0.950 . S
H1957 C1969 0.950 . S
H1958 C1966 0.950 . S
H1959 C1968 0.950 . S
H1960 C1970 0.950 . S
H1961 C1972 0.950 . S
H1962 C1974 0.950 . S
H1963 C1975 0.950 . S
C1964 H1956 0.950 . S
C1964 C1965 1.386 . S
C1964 C1966 1.391 . S
C1965 C1964 1.386 . S
C1965 C1969 1.393 . S
C1966 H1958 0.950 . S
C1966 C1964 1.391 . S
C1966 C1967 1.400 . S
C1967 C1966 1.400 . S
C1967 C1968 1.398 . S
C1967 C1973 1.491 . S
C1968 H1959 0.950 . S
C1968 C1967 1.398 . S
C1968 C1969 1.391 . S
C1969 H1957 0.950 . S
C1969 C1965 1.393 . S
C1969 C1968 1.391 . S
C1970 H1960 0.950 . S
C1970 C1971 1.386 . S
C1970 C1972 1.391 . S
C1971 C1970 1.386 . S
C1971 C1975 1.393 . S
C1972 H1961 0.950 . S
C1972 C1970 1.391 . S
C1972 C1973 1.400 . S
C1973 C1967 1.491 . S
C1973 C1972 1.400 . S
C1973 C1974 1.398 . S
C1974 H1962 0.950 . S
C1974 C1973 1.398 . S
C1974 C1975 1.391 . S
C1975 H1963 0.950 . S
C1975 C1971 1.393 . S
C1975 C1974 1.391 . S
H1976 C1984 0.950 . S
H1977 C1989 0.950 . S
H1978 C1986 0.950 . S
H1979 C1988 0.950 . S
H1980 C1990 0.950 . S
H1981 C1992 0.950 . S
H1982 C1994 0.950 . S
H1983 C1995 0.950 . S
C1984 H1976 0.950 . S
C1984 C1985 1.386 . S
C1984 C1986 1.391 . S
C1985 C1984 1.386 . S
C1985 C1989 1.393 . S
C1986 H1978 0.950 . S
C1986 C1984 1.391 . S
C1986 C1987 1.400 . S
C1987 C1986 1.400 . S
C1987 C1988 1.398 . S
C1987 C1993 1.491 . S
C1988 H1979 0.950 . S
C1988 C1987 1.398 . S
C1988 C1989 1.391 . S
C1989 H1977 0.950 . S
C1989 C1985 1.393 . S
C1989 C1988 1.391 . S
C1990 H1980 0.950 . S
C1990 C1991 1.386 . S
C1990 C1992 1.391 . S
C1991 C1990 1.386 . S
C1991 C1995 1.393 . S
C1992 H1981 0.950 . S
C1992 C1990 1.391 . S
C1992 C1993 1.400 . S
C1993 C1987 1.491 . S
C1993 C1992 1.400 . S
C1993 C1994 1.398 . S
C1994 H1982 0.950 . S
C1994 C1993 1.398 . S
C1994 C1995 1.391 . S
C1995 H1983 0.950 . S
C1995 C1991 1.393 . S
C1995 C1994 1.391 . S
H1996 C2004 0.950 . S
H1997 C2009 0.950 . S
H1998 C2006 0.950 . S
H1999 C2008 0.950 . S
H2000 C2010 0.950 . S
H2001 C2012 0.950 . S
H2002 C2014 0.950 . S
H2003 C2015 0.950 . S
C2004 H1996 0.950 . S
C2004 C2005 1.386 . S
C2004 C2006 1.391 . S
C2005 C2004 1.386 . S
C2005 C2009 1.393 . S
C2006 H1998 0.950 . S
C2006 C2004 1.391 . S
C2006 C2007 1.400 . S
C2007 C2006 1.400 . S
C2007 C2008 1.398 . S
C2007 C2013 1.491 . S
C2008 H1999 0.950 . S
C2008 C2007 1.398 . S
C2008 C2009 1.391 . S
C2009 H1997 0.950 . S
C2009 C2005 1.393 . S
C2009 C2008 1.391 . S
C2010 H2000 0.950 . S
C2010 C2011 1.386 . S
C2010 C2012 1.391 . S
C2011 C2010 1.386 . S
C2011 C2015 1.393 . S
C2012 H2001 0.950 . S
C2012 C2010 1.391 . S
C2012 C2013 1.400 . S
C2013 C2007 1.491 . S
C2013 C2012 1.400 . S
C2013 C2014 1.398 . S
C2014 H2002 0.950 . S
C2014 C2013 1.398 . S
C2014 C2015 1.391 . S
C2015 H2003 0.950 . S
C2015 C2011 1.393 . S
C2015 C2014 1.391 . S
H2016 C2024 0.950 . S
H2017 C2029 0.950 . S
H2018 C2026 0.950 . S
H2019 C2028 0.950 . S
H2020 C2030 0.950 . S
H2021 C2032 0.950 . S
H2022 C2034 0.950 . S
H2023 C2035 0.950 . S
C2024 H2016 0.950 . S
C2024 C2025 1.386 . S
C2024 C2026 1.391 . S
C2025 C2024 1.386 . S
C2025 C2029 1.393 . S
C2026 H2018 0.950 . S
C2026 C2024 1.391 . S
C2026 C2027 1.400 . S
C2027 C2026 1.400 . S
C2027 C2028 1.398 . S
C2027 C2033 1.491 . S
C2028 H2019 0.950 . S
C2028 C2027 1.398 . S
C2028 C2029 1.391 . S
C2029 H2017 0.950 . S
C2029 C2025 1.393 . S
C2029 C2028 1.391 . S
C2030 H2020 0.950 . S
C2030 C2031 1.386 . S
C2030 C2032 1.391 . S
C2031 C2030 1.386 . S
C2031 C2035 1.393 . S
C2032 H2021 0.950 . S
C2032 C2030 1.391 . S
C2032 C2033 1.400 . S
C2033 C2027 1.491 . S
C2033 C2032 1.400 . S
C2033 C2034 1.398 . S
C2034 H2022 0.950 . S
C2034 C2033 1.398 . S
C2034 C2035 1.391 . S
C2035 H2023 0.950 . S
C2035 C2031 1.393 . S
C2035 C2034 1.391 . S
H2036 C2044 0.950 . S
H2037 C2049 0.950 . S
H2038 C2046 0.950 . S
H2039 C2048 0.950 . S
H2040 C2050 0.950 . S
H2041 C2052 0.950 . S
H2042 C2054 0.950 . S
H2043 C2055 0.950 . S
C2044 H2036 0.950 . S
C2044 C2045 1.386 . S
C2044 C2046 1.391 . S
C2045 C2044 1.386 . S
C2045 C2049 1.393 . S
C2046 H2038 0.950 . S
C2046 C2044 1.391 . S
C2046 C2047 1.400 . S
C2047 C2046 1.400 . S
C2047 C2048 1.398 . S
C2047 C2053 1.491 . S
C2048 H2039 0.950 . S
C2048 C2047 1.398 . S
C2048 C2049 1.391 . S
C2049 H2037 0.950 . S
C2049 C2045 1.393 . S
C2049 C2048 1.391 . S
C2050 H2040 0.950 . S
C2050 C2051 1.386 . S
C2050 C2052 1.391 . S
C2051 C2050 1.386 . S
C2051 C2055 1.393 . S
C2052 H2041 0.950 . S
C2052 C2050 1.391 . S
C2052 C2053 1.400 . S
C2053 C2047 1.491 . S
C2053 C2052 1.400 . S
C2053 C2054 1.398 . S
C2054 H2042 0.950 . S
C2054 C2053 1.398 . S
C2054 C2055 1.391 . S
C2055 H2043 0.950 . S
C2055 C2051 1.393 . S
C2055 C2054 1.391 . S
H2056 C2064 0.950 . S
H2057 C2069 0.950 . S
H2058 C2066 0.950 . S
H2059 C2068 0.950 . S
H2060 C2070 0.950 . S
H2061 C2072 0.950 . S
H2062 C2074 0.950 . S
H2063 C2075 0.950 . S
C2064 H2056 0.950 . S
C2064 C2065 1.386 . S
C2064 C2066 1.391 . S
C2065 C2064 1.386 . S
C2065 C2069 1.393 . S
C2066 H2058 0.950 . S
C2066 C2064 1.391 . S
C2066 C2067 1.400 . S
C2067 C2066 1.400 . S
C2067 C2068 1.398 . S
C2067 C2073 1.491 . S
C2068 H2059 0.950 . S
C2068 C2067 1.398 . S
C2068 C2069 1.391 . S
C2069 H2057 0.950 . S
C2069 C2065 1.393 . S
C2069 C2068 1.391 . S
C2070 H2060 0.950 . S
C2070 C2071 1.386 . S
C2070 C2072 1.391 . S
C2071 C2070 1.386 . S
C2071 C2075 1.393 . S
C2072 H2061 0.950 . S
C2072 C2070 1.391 . S
C2072 C2073 1.400 . S
C2073 C2067 1.491 . S
C2073 C2072 1.400 . S
C2073 C2074 1.398 . S
C2074 H2062 0.950 . S
C2074 C2073 1.398 . S
C2074 C2075 1.391 . S
C2075 H2063 0.950 . S
C2075 C2071 1.393 . S
C2075 C2074 1.391 . S
H2076 C2084 0.950 . S
H2077 C2089 0.950 . S
H2078 C2086 0.950 . S
H2079 C2088 0.950 . S
H2080 C2090 0.950 . S
H2081 C2092 0.950 . S
H2082 C2094 0.950 . S
H2083 C2095 0.950 . S
C2084 H2076 0.950 . S
C2084 C2085 1.386 . S
C2084 C2086 1.391 . S
C2085 C2084 1.386 . S
C2085 C2089 1.393 . S
C2086 H2078 0.950 . S
C2086 C2084 1.391 . S
C2086 C2087 1.400 . S
C2087 C2086 1.400 . S
C2087 C2088 1.398 . S
C2087 C2093 1.491 . S
C2088 H2079 0.950 . S
C2088 C2087 1.398 . S
C2088 C2089 1.391 . S
C2089 H2077 0.950 . S
C2089 C2085 1.393 . S
C2089 C2088 1.391 . S
C2090 H2080 0.950 . S
C2090 C2091 1.386 . S
C2090 C2092 1.391 . S
C2091 C2090 1.386 . S
C2091 C2095 1.393 . S
C2092 H2081 0.950 . S
C2092 C2090 1.391 . S
C2092 C2093 1.400 . S
C2093 C2087 1.491 . S
C2093 C2092 1.400 . S
C2093 C2094 1.398 . S
C2094 H2082 0.950 . S
C2094 C2093 1.398 . S
C2094 C2095 1.391 . S
C2095 H2083 0.950 . S
C2095 C2091 1.393 . S
C2095 C2094 1.391 . S
H2096 C2104 0.950 . S
H2097 C2109 0.950 . S
H2098 C2106 0.950 . S
H2099 C2108 0.950 . S
H2100 C2110 0.950 . S
H2101 C2112 0.950 . S
H2102 C2114 0.950 . S
H2103 C2115 0.950 . S
C2104 H2096 0.950 . S
C2104 C2105 1.386 . S
C2104 C2106 1.391 . S
C2105 C2104 1.386 . S
C2105 C2109 1.393 . S
C2106 H2098 0.950 . S
C2106 C2104 1.391 . S
C2106 C2107 1.400 . S
C2107 C2106 1.400 . S
C2107 C2108 1.398 . S
C2107 C2113 1.491 . S
C2108 H2099 0.950 . S
C2108 C2107 1.398 . S
C2108 C2109 1.391 . S
C2109 H2097 0.950 . S
C2109 C2105 1.393 . S
C2109 C2108 1.391 . S
C2110 H2100 0.950 . S
C2110 C2111 1.386 . S
C2110 C2112 1.391 . S
C2111 C2110 1.386 . S
C2111 C2115 1.393 . S
C2112 H2101 0.950 . S
C2112 C2110 1.391 . S
C2112 C2113 1.400 . S
C2113 C2107 1.491 . S
C2113 C2112 1.400 . S
C2113 C2114 1.398 . S
C2114 H2102 0.950 . S
C2114 C2113 1.398 . S
C2114 C2115 1.391 . S
C2115 H2103 0.950 . S
C2115 C2111 1.393 . S
C2115 C2114 1.391 . S
H2116 C2124 0.950 . S
H2117 C2129 0.950 . S
H2118 C2126 0.950 . S
H2119 C2128 0.950 . S
H2120 C2130 0.950 . S
H2121 C2132 0.950 . S
H2122 C2134 0.950 . S
H2123 C2135 0.950 . S
C2124 H2116 0.950 . S
C2124 C2125 1.386 . S
C2124 C2126 1.391 . S
C2125 C2124 1.386 . S
C2125 C2129 1.393 . S
C2126 H2118 0.950 . S
C2126 C2124 1.391 . S
C2126 C2127 1.400 . S
C2127 C2126 1.400 . S
C2127 C2128 1.398 . S
C2127 C2133 1.491 . S
C2128 H2119 0.950 . S
C2128 C2127 1.398 . S
C2128 C2129 1.391 . S
C2129 H2117 0.950 . S
C2129 C2125 1.393 . S
C2129 C2128 1.391 . S
C2130 H2120 0.950 . S
C2130 C2131 1.386 . S
C2130 C2132 1.391 . S
C2131 C2130 1.386 . S
C2131 C2135 1.393 . S
C2132 H2121 0.950 . S
C2132 C2130 1.391 . S
C2132 C2133 1.400 . S
C2133 C2127 1.491 . S
C2133 C2132 1.400 . S
C2133 C2134 1.398 . S
C2134 H2122 0.950 . S
C2134 C2133 1.398 . S
C2134 C2135 1.391 . S
C2135 H2123 0.950 . S
C2135 C2131 1.393 . S
C2135 C2134 1.391 . S
H2136 C2144 0.950 . S
H2137 C2149 0.950 . S
H2138 C2146 0.950 . S
H2139 C2148 0.950 . S
H2140 C2150 0.950 . S
H2141 C2152 0.950 . S
H2142 C2154 0.950 . S
H2143 C2155 0.950 . S
C2144 H2136 0.950 . S
C2144 C2145 1.386 . S
C2144 C2146 1.391 . S
C2145 C2144 1.386 . S
C2145 C2149 1.393 . S
C2146 H2138 0.950 . S
C2146 C2144 1.391 . S
C2146 C2147 1.400 . S
C2147 C2146 1.400 . S
C2147 C2148 1.398 . S
C2147 C2153 1.491 . S
C2148 H2139 0.950 . S
C2148 C2147 1.398 . S
C2148 C2149 1.391 . S
C2149 H2137 0.950 . S
C2149 C2145 1.393 . S
C2149 C2148 1.391 . S
C2150 H2140 0.950 . S
C2150 C2151 1.386 . S
C2150 C2152 1.391 . S
C2151 C2150 1.386 . S
C2151 C2155 1.393 . S
C2152 H2141 0.950 . S
C2152 C2150 1.391 . S
C2152 C2153 1.400 . S
C2153 C2147 1.491 . S
C2153 C2152 1.400 . S
C2153 C2154 1.398 . S
C2154 H2142 0.950 . S
C2154 C2153 1.398 . S
C2154 C2155 1.391 . S
C2155 H2143 0.950 . S
C2155 C2151 1.393 . S
C2155 C2154 1.391 . S
H2156 C2164 0.950 . S
H2157 C2169 0.950 . S
H2158 C2166 0.950 . S
H2159 C2168 0.950 . S
H2160 C2170 0.950 . S
H2161 C2172 0.950 . S
H2162 C2174 0.950 . S
H2163 C2175 0.950 . S
C2164 H2156 0.950 . S
C2164 C2165 1.386 . S
C2164 C2166 1.391 . S
C2165 C2164 1.386 . S
C2165 C2169 1.393 . S
C2166 H2158 0.950 . S
C2166 C2164 1.391 . S
C2166 C2167 1.400 . S
C2167 C2166 1.400 . S
C2167 C2168 1.398 . S
C2167 C2173 1.491 . S
C2168 H2159 0.950 . S
C2168 C2167 1.398 . S
C2168 C2169 1.391 . S
C2169 H2157 0.950 . S
C2169 C2165 1.393 . S
C2169 C2168 1.391 . S
C2170 H2160 0.950 . S
C2170 C2171 1.386 . S
C2170 C2172 1.391 . S
C2171 C2170 1.386 . S
C2171 C2175 1.393 . S
C2172 H2161 0.950 . S
C2172 C2170 1.391 . S
C2172 C2173 1.400 . S
C2173 C2167 1.491 . S
C2173 C2172 1.400 . S
C2173 C2174 1.398 . S
C2174 H2162 0.950 . S
C2174 C2173 1.398 . S
C2174 C2175 1.391 . S
C2175 H2163 0.950 . S
C2175 C2171 1.393 . S
C2175 C2174 1.391 . S
H2176 C2184 0.950 . S
H2177 C2189 0.950 . S
H2178 C2186 0.950 . S
H2179 C2188 0.950 . S
H2180 C2190 0.950 . S
H2181 C2192 0.950 . S
H2182 C2194 0.950 . S
H2183 C2195 0.950 . S
C2184 H2176 0.950 . S
C2184 C2185 1.386 . S
C2184 C2186 1.391 . S
C2185 C2184 1.386 . S
C2185 C2189 1.393 . S
C2186 H2178 0.950 . S
C2186 C2184 1.391 . S
C2186 C2187 1.400 . S
C2187 C2186 1.400 . S
C2187 C2188 1.398 . S
C2187 C2193 1.491 . S
C2188 H2179 0.950 . S
C2188 C2187 1.398 . S
C2188 C2189 1.391 . S
C2189 H2177 0.950 . S
C2189 C2185 1.393 . S
C2189 C2188 1.391 . S
C2190 H2180 0.950 . S
C2190 C2191 1.386 . S
C2190 C2192 1.391 . S
C2191 C2190 1.386 . S
C2191 C2195 1.393 . S
C2192 H2181 0.950 . S
C2192 C2190 1.391 . S
C2192 C2193 1.400 . S
C2193 C2187 1.491 . S
C2193 C2192 1.400 . S
C2193 C2194 1.398 . S
C2194 H2182 0.950 . S
C2194 C2193 1.398 . S
C2194 C2195 1.391 . S
C2195 H2183 0.950 . S
C2195 C2191 1.393 . S
C2195 C2194 1.391 . S
H2196 C2204 0.950 . S
H2197 C2209 0.950 . S
H2198 C2206 0.950 . S
H2199 C2208 0.950 . S
H2200 C2210 0.950 . S
H2201 C2212 0.950 . S
H2202 C2214 0.950 . S
H2203 C2215 0.950 . S
C2204 H2196 0.950 . S
C2204 C2205 1.386 . S
C2204 C2206 1.391 . S
C2205 C2204 1.386 . S
C2205 C2209 1.393 . S
C2206 H2198 0.950 . S
C2206 C2204 1.391 . S
C2206 C2207 1.400 . S
C2207 C2206 1.400 . S
C2207 C2208 1.398 . S
C2207 C2213 1.491 . S
C2208 H2199 0.950 . S
C2208 C2207 1.398 . S
C2208 C2209 1.391 . S
C2209 H2197 0.950 . S
C2209 C2205 1.393 . S
C2209 C2208 1.391 . S
C2210 H2200 0.950 . S
C2210 C2211 1.386 . S
C2210 C2212 1.391 . S
C2211 C2210 1.386 . S
C2211 C2215 1.393 . S
C2212 H2201 0.950 . S
C2212 C2210 1.391 . S
C2212 C2213 1.400 . S
C2213 C2207 1.491 . S
C2213 C2212 1.400 . S
C2213 C2214 1.398 . S
C2214 H2202 0.950 . S
C2214 C2213 1.398 . S
C2214 C2215 1.391 . S
C2215 H2203 0.950 . S
C2215 C2211 1.393 . S
C2215 C2214 1.391 . S
H2216 C2224 0.950 . S
H2217 C2229 0.950 . S
H2218 C2226 0.950 . S
H2219 C2228 0.950 . S
H2220 C2230 0.950 . S
H2221 C2232 0.950 . S
H2222 C2234 0.950 . S
H2223 C2235 0.950 . S
C2224 H2216 0.950 . S
C2224 C2225 1.386 . S
C2224 C2226 1.391 . S
C2225 C2224 1.386 . S
C2225 C2229 1.393 . S
C2226 H2218 0.950 . S
C2226 C2224 1.391 . S
C2226 C2227 1.400 . S
C2227 C2226 1.400 . S
C2227 C2228 1.398 . S
C2227 C2233 1.491 . S
C2228 H2219 0.950 . S
C2228 C2227 1.398 . S
C2228 C2229 1.391 . S
C2229 H2217 0.950 . S
C2229 C2225 1.393 . S
C2229 C2228 1.391 . S
C2230 H2220 0.950 . S
C2230 C2231 1.386 . S
C2230 C2232 1.391 . S
C2231 C2230 1.386 . S
C2231 C2235 1.393 . S
C2232 H2221 0.950 . S
C2232 C2230 1.391 . S
C2232 C2233 1.400 . S
C2233 C2227 1.491 . S
C2233 C2232 1.400 . S
C2233 C2234 1.398 . S
C2234 H2222 0.950 . S
C2234 C2233 1.398 . S
C2234 C2235 1.391 . S
C2235 H2223 0.950 . S
C2235 C2231 1.393 . S
C2235 C2234 1.391 . S
H2236 C2244 0.950 . S
H2237 C2249 0.950 . S
H2238 C2246 0.950 . S
H2239 C2248 0.950 . S
H2240 C2250 0.950 . S
H2241 C2252 0.950 . S
H2242 C2254 0.950 . S
H2243 C2255 0.950 . S
C2244 H2236 0.950 . S
C2244 C2245 1.386 . S
C2244 C2246 1.391 . S
C2245 C2244 1.386 . S
C2245 C2249 1.393 . S
C2246 H2238 0.950 . S
C2246 C2244 1.391 . S
C2246 C2247 1.400 . S
C2247 C2246 1.400 . S
C2247 C2248 1.398 . S
C2247 C2253 1.491 . S
C2248 H2239 0.950 . S
C2248 C2247 1.398 . S
C2248 C2249 1.391 . S
C2249 H2237 0.950 . S
C2249 C2245 1.393 . S
C2249 C2248 1.391 . S
C2250 H2240 0.950 . S
C2250 C2251 1.386 . S
C2250 C2252 1.391 . S
C2251 C2250 1.386 . S
C2251 C2255 1.393 . S
C2252 H2241 0.950 . S
C2252 C2250 1.391 . S
C2252 C2253 1.400 . S
C2253 C2247 1.491 . S
C2253 C2252 1.400 . S
C2253 C2254 1.398 . S
C2254 H2242 0.950 . S
C2254 C2253 1.398 . S
C2254 C2255 1.391 . S
C2255 H2243 0.950 . S
C2255 C2251 1.393 . S
C2255 C2254 1.391 . S
H2256 C2264 0.950 . S
H2257 C2269 0.950 . S
H2258 C2266 0.950 . S
H2259 C2268 0.950 . S
H2260 C2270 0.950 . S
H2261 C2272 0.950 . S
H2262 C2274 0.950 . S
H2263 C2275 0.950 . S
C2264 H2256 0.950 . S
C2264 C2265 1.386 . S
C2264 C2266 1.391 . S
C2265 C2264 1.386 . S
C2265 C2269 1.393 . S
C2266 H2258 0.950 . S
C2266 C2264 1.391 . S
C2266 C2267 1.400 . S
C2267 C2266 1.400 . S
C2267 C2268 1.398 . S
C2267 C2273 1.491 . S
C2268 H2259 0.950 . S
C2268 C2267 1.398 . S
C2268 C2269 1.391 . S
C2269 H2257 0.950 . S
C2269 C2265 1.393 . S
C2269 C2268 1.391 . S
C2270 H2260 0.950 . S
C2270 C2271 1.386 . S
C2270 C2272 1.391 . S
C2271 C2270 1.386 . S
C2271 C2275 1.393 . S
C2272 H2261 0.950 . S
C2272 C2270 1.391 . S
C2272 C2273 1.400 . S
C2273 C2267 1.491 . S
C2273 C2272 1.400 . S
C2273 C2274 1.398 . S
C2274 H2262 0.950 . S
C2274 C2273 1.398 . S
C2274 C2275 1.391 . S
C2275 H2263 0.950 . S
C2275 C2271 1.393 . S
C2275 C2274 1.391 . S
H2276 C2284 0.950 . S
H2277 C2289 0.950 . S
H2278 C2286 0.950 . S
H2279 C2288 0.950 . S
H2280 C2290 0.950 . S
H2281 C2292 0.950 . S
H2282 C2294 0.950 . S
H2283 C2295 0.950 . S
C2284 H2276 0.950 . S
C2284 C2285 1.386 . S
C2284 C2286 1.391 . S
C2285 C2284 1.386 . S
C2285 C2289 1.393 . S
C2286 H2278 0.950 . S
C2286 C2284 1.391 . S
C2286 C2287 1.400 . S
C2287 C2286 1.400 . S
C2287 C2288 1.398 . S
C2287 C2293 1.491 . S
C2288 H2279 0.950 . S
C2288 C2287 1.398 . S
C2288 C2289 1.391 . S
C2289 H2277 0.950 . S
C2289 C2285 1.393 . S
C2289 C2288 1.391 . S
C2290 H2280 0.950 . S
C2290 C2291 1.386 . S
C2290 C2292 1.391 . S
C2291 C2290 1.386 . S
C2291 C2295 1.393 . S
C2292 H2281 0.950 . S
C2292 C2290 1.391 . S
C2292 C2293 1.400 . S
C2293 C2287 1.491 . S
C2293 C2292 1.400 . S
C2293 C2294 1.398 . S
C2294 H2282 0.950 . S
C2294 C2293 1.398 . S
C2294 C2295 1.391 . S
C2295 H2283 0.950 . S
C2295 C2291 1.393 . S
C2295 C2294 1.391 . S
H2296 C2304 0.950 . S
H2297 C2309 0.950 . S
H2298 C2306 0.950 . S
H2299 C2308 0.950 . S
H2300 C2310 0.950 . S
H2301 C2312 0.950 . S
H2302 C2314 0.950 . S
H2303 C2315 0.950 . S
C2304 H2296 0.950 . S
C2304 C2305 1.386 . S
C2304 C2306 1.391 . S
C2305 C2304 1.386 . S
C2305 C2309 1.393 . S
C2306 H2298 0.950 . S
C2306 C2304 1.391 . S
C2306 C2307 1.400 . S
C2307 C2306 1.400 . S
C2307 C2308 1.398 . S
C2307 C2313 1.491 . S
C2308 H2299 0.950 . S
C2308 C2307 1.398 . S
C2308 C2309 1.391 . S
C2309 H2297 0.950 . S
C2309 C2305 1.393 . S
C2309 C2308 1.391 . S
C2310 H2300 0.950 . S
C2310 C2311 1.386 . S
C2310 C2312 1.391 . S
C2311 C2310 1.386 . S
C2311 C2315 1.393 . S
C2312 H2301 0.950 . S
C2312 C2310 1.391 . S
C2312 C2313 1.400 . S
C2313 C2307 1.491 . S
C2313 C2312 1.400 . S
C2313 C2314 1.398 . S
C2314 H2302 0.950 . S
C2314 C2313 1.398 . S
C2314 C2315 1.391 . S
C2315 H2303 0.950 . S
C2315 C2311 1.393 . S
C2315 C2314 1.391 . S
H2316 C2324 0.950 . S
H2317 C2329 0.950 . S
H2318 C2326 0.950 . S
H2319 C2328 0.950 . S
H2320 C2330 0.950 . S
H2321 C2332 0.950 . S
H2322 C2334 0.950 . S
H2323 C2335 0.950 . S
C2324 H2316 0.950 . S
C2324 C2325 1.386 . S
C2324 C2326 1.391 . S
C2325 C2324 1.386 . S
C2325 C2329 1.393 . S
C2326 H2318 0.950 . S
C2326 C2324 1.391 . S
C2326 C2327 1.400 . S
C2327 C2326 1.400 . S
C2327 C2328 1.398 . S
C2327 C2333 1.491 . S
C2328 H2319 0.950 . S
C2328 C2327 1.398 . S
C2328 C2329 1.391 . S
C2329 H2317 0.950 . S
C2329 C2325 1.393 . S
C2329 C2328 1.391 . S
C2330 H2320 0.950 . S
C2330 C2331 1.386 . S
C2330 C2332 1.391 . S
C2331 C2330 1.386 . S
C2331 C2335 1.393 . S
C2332 H2321 0.950 . S
C2332 C2330 1.391 . S
C2332 C2333 1.400 . S
C2333 C2327 1.491 . S
C2333 C2332 1.400 . S
C2333 C2334 1.398 . S
C2334 H2322 0.950 . S
C2334 C2333 1.398 . S
C2334 C2335 1.391 . S
C2335 H2323 0.950 . S
C2335 C2331 1.393 . S
C2335 C2334 1.391 . S
H2336 C2344 0.950 . S
H2337 C2349 0.950 . S
H2338 C2346 0.950 . S
H2339 C2348 0.950 . S
H2340 C2350 0.950 . S
H2341 C2352 0.950 . S
H2342 C2354 0.950 . S
H2343 C2355 0.950 . S
C2344 H2336 0.950 . S
C2344 C2345 1.386 . S
C2344 C2346 1.391 . S
C2345 C2344 1.386 . S
C2345 C2349 1.393 . S
C2346 H2338 0.950 . S
C2346 C2344 1.391 . S
C2346 C2347 1.400 . S
C2347 C2346 1.400 . S
C2347 C2348 1.398 . S
C2347 C2353 1.491 . S
C2348 H2339 0.950 . S
C2348 C2347 1.398 . S
C2348 C2349 1.391 . S
C2349 H2337 0.950 . S
C2349 C2345 1.393 . S
C2349 C2348 1.391 . S
C2350 H2340 0.950 . S
C2350 C2351 1.386 . S
C2350 C2352 1.391 . S
C2351 C2350 1.386 . S
C2351 C2355 1.393 . S
C2352 H2341 0.950 . S
C2352 C2350 1.391 . S
C2352 C2353 1.400 . S
C2353 C2347 1.491 . S
C2353 C2352 1.400 . S
C2353 C2354 1.398 . S
C2354 H2342 0.950 . S
C2354 C2353 1.398 . S
C2354 C2355 1.391 . S
C2355 H2343 0.950 . S
C2355 C2351 1.393 . S
C2355 C2354 1.391 . S
H2356 C2364 0.950 . S
H2357 C2369 0.950 . S
H2358 C2366 0.950 . S
H2359 C2368 0.950 . S
H2360 C2370 0.950 . S
H2361 C2372 0.950 . S
H2362 C2374 0.950 . S
H2363 C2375 0.950 . S
C2364 H2356 0.950 . S
C2364 C2365 1.386 . S
C2364 C2366 1.391 . S
C2365 C2364 1.386 . S
C2365 C2369 1.393 . S
C2366 H2358 0.950 . S
C2366 C2364 1.391 . S
C2366 C2367 1.400 . S
C2367 C2366 1.400 . S
C2367 C2368 1.398 . S
C2367 C2373 1.491 . S
C2368 H2359 0.950 . S
C2368 C2367 1.398 . S
C2368 C2369 1.391 . S
C2369 H2357 0.950 . S
C2369 C2365 1.393 . S
C2369 C2368 1.391 . S
C2370 H2360 0.950 . S
C2370 C2371 1.386 . S
C2370 C2372 1.391 . S
C2371 C2370 1.386 . S
C2371 C2375 1.393 . S
C2372 H2361 0.950 . S
C2372 C2370 1.391 . S
C2372 C2373 1.400 . S
C2373 C2367 1.491 . S
C2373 C2372 1.400 . S
C2373 C2374 1.398 . S
C2374 H2362 0.950 . S
C2374 C2373 1.398 . S
C2374 C2375 1.391 . S
C2375 H2363 0.950 . S
C2375 C2371 1.393 . S
C2375 C2374 1.391 . S
H2376 C2384 0.950 . S
H2377 C2389 0.950 . S
H2378 C2386 0.950 . S
H2379 C2388 0.950 . S
H2380 C2390 0.950 . S
H2381 C2392 0.950 . S
H2382 C2394 0.950 . S
H2383 C2395 0.950 . S
C2384 H2376 0.950 . S
C2384 C2385 1.386 . S
C2384 C2386 1.391 . S
C2385 C2384 1.386 . S
C2385 C2389 1.393 . S
C2386 H2378 0.950 . S
C2386 C2384 1.391 . S
C2386 C2387 1.400 . S
C2387 C2386 1.400 . S
C2387 C2388 1.398 . S
C2387 C2393 1.491 . S
C2388 H2379 0.950 . S
C2388 C2387 1.398 . S
C2388 C2389 1.391 . S
C2389 H2377 0.950 . S
C2389 C2385 1.393 . S
C2389 C2388 1.391 . S
C2390 H2380 0.950 . S
C2390 C2391 1.386 . S
C2390 C2392 1.391 . S
C2391 C2390 1.386 . S
C2391 C2395 1.393 . S
C2392 H2381 0.950 . S
C2392 C2390 1.391 . S
C2392 C2393 1.400 . S
C2393 C2387 1.491 . S
C2393 C2392 1.400 . S
C2393 C2394 1.398 . S
C2394 H2382 0.950 . S
C2394 C2393 1.398 . S
C2394 C2395 1.391 . S
C2395 H2383 0.950 . S
C2395 C2391 1.393 . S
C2395 C2394 1.391 . S
H2396 C2404 0.950 . S
H2397 C2409 0.950 . S
H2398 C2406 0.950 . S
H2399 C2408 0.950 . S
H2400 C2410 0.950 . S
H2401 C2412 0.950 . S
H2402 C2414 0.950 . S
H2403 C2415 0.950 . S
C2404 H2396 0.950 . S
C2404 C2405 1.386 . S
C2404 C2406 1.391 . S
C2405 C2404 1.386 . S
C2405 C2409 1.393 . S
C2406 H2398 0.950 . S
C2406 C2404 1.391 . S
C2406 C2407 1.400 . S
C2407 C2406 1.400 . S
C2407 C2408 1.398 . S
C2407 C2413 1.491 . S
C2408 H2399 0.950 . S
C2408 C2407 1.398 . S
C2408 C2409 1.391 . S
C2409 H2397 0.950 . S
C2409 C2405 1.393 . S
C2409 C2408 1.391 . S
C2410 H2400 0.950 . S
C2410 C2411 1.386 . S
C2410 C2412 1.391 . S
C2411 C2410 1.386 . S
C2411 C2415 1.393 . S
C2412 H2401 0.950 . S
C2412 C2410 1.391 . S
C2412 C2413 1.400 . S
C2413 C2407 1.491 . S
C2413 C2412 1.400 . S
C2413 C2414 1.398 . S
C2414 H2402 0.950 . S
C2414 C2413 1.398 . S
C2414 C2415 1.391 . S
C2415 H2403 0.950 . S
C2415 C2411 1.393 . S
C2415 C2414 1.391 . S
H2416 C2424 0.950 . S
H2417 C2429 0.950 . S
H2418 C2426 0.950 . S
H2419 C2428 0.950 . S
H2420 C2430 0.950 . S
H2421 C2432 0.950 . S
H2422 C2434 0.950 . S
H2423 C2435 0.950 . S
C2424 H2416 0.950 . S
C2424 C2425 1.386 . S
C2424 C2426 1.391 . S
C2425 C2424 1.386 . S
C2425 C2429 1.393 . S
C2426 H2418 0.950 . S
C2426 C2424 1.391 . S
C2426 C2427 1.400 . S
C2427 C2426 1.400 . S
C2427 C2428 1.398 . S
C2427 C2433 1.491 . S
C2428 H2419 0.950 . S
C2428 C2427 1.398 . S
C2428 C2429 1.391 . S
C2429 H2417 0.950 . S
C2429 C2425 1.393 . S
C2429 C2428 1.391 . S
C2430 H2420 0.950 . S
C2430 C2431 1.386 . S
C2430 C2432 1.391 . S
C2431 C2430 1.386 . S
C2431 C2435 1.393 . S
C2432 H2421 0.950 . S
C2432 C2430 1.391 . S
C2432 C2433 1.400 . S
C2433 C2427 1.491 . S
C2433 C2432 1.400 . S
C2433 C2434 1.398 . S
C2434 H2422 0.950 . S
C2434 C2433 1.398 . S
C2434 C2435 1.391 . S
C2435 H2423 0.950 . S
C2435 C2431 1.393 . S
C2435 C2434 1.391 . S
H2436 C2444 0.950 . S
H2437 C2449 0.950 . S
H2438 C2446 0.950 . S
H2439 C2448 0.950 . S
H2440 C2450 0.950 . S
H2441 C2452 0.950 . S
H2442 C2454 0.950 . S
H2443 C2455 0.950 . S
C2444 H2436 0.950 . S
C2444 C2445 1.386 . S
C2444 C2446 1.391 . S
C2445 C2444 1.386 . S
C2445 C2449 1.393 . S
C2446 H2438 0.950 . S
C2446 C2444 1.391 . S
C2446 C2447 1.400 . S
C2447 C2446 1.400 . S
C2447 C2448 1.398 . S
C2447 C2453 1.491 . S
C2448 H2439 0.950 . S
C2448 C2447 1.398 . S
C2448 C2449 1.391 . S
C2449 H2437 0.950 . S
C2449 C2445 1.393 . S
C2449 C2448 1.391 . S
C2450 H2440 0.950 . S
C2450 C2451 1.386 . S
C2450 C2452 1.391 . S
C2451 C2450 1.386 . S
C2451 C2455 1.393 . S
C2452 H2441 0.950 . S
C2452 C2450 1.391 . S
C2452 C2453 1.400 . S
C2453 C2447 1.491 . S
C2453 C2452 1.400 . S
C2453 C2454 1.398 . S
C2454 H2442 0.950 . S
C2454 C2453 1.398 . S
C2454 C2455 1.391 . S
C2455 H2443 0.950 . S
C2455 C2451 1.393 . S
C2455 C2454 1.391 . S
H2456 C2464 0.950 . S
H2457 C2469 0.950 . S
H2458 C2466 0.950 . S
H2459 C2468 0.950 . S
H2460 C2470 0.950 . S
H2461 C2472 0.950 . S
H2462 C2474 0.950 . S
H2463 C2475 0.950 . S
C2464 H2456 0.950 . S
C2464 C2465 1.386 . S
C2464 C2466 1.391 . S
C2465 C2464 1.386 . S
C2465 C2469 1.393 . S
C2466 H2458 0.950 . S
C2466 C2464 1.391 . S
C2466 C2467 1.400 . S
C2467 C2466 1.400 . S
C2467 C2468 1.398 . S
C2467 C2473 1.491 . S
C2468 H2459 0.950 . S
C2468 C2467 1.398 . S
C2468 C2469 1.391 . S
C2469 H2457 0.950 . S
C2469 C2465 1.393 . S
C2469 C2468 1.391 . S
C2470 H2460 0.950 . S
C2470 C2471 1.386 . S
C2470 C2472 1.391 . S
C2471 C2470 1.386 . S
C2471 C2475 1.393 . S
C2472 H2461 0.950 . S
C2472 C2470 1.391 . S
C2472 C2473 1.400 . S
C2473 C2467 1.491 . S
C2473 C2472 1.400 . S
C2473 C2474 1.398 . S
C2474 H2462 0.950 . S
C2474 C2473 1.398 . S
C2474 C2475 1.391 . S
C2475 H2463 0.950 . S
C2475 C2471 1.393 . S
C2475 C2474 1.391 . S
H2476 C2484 0.950 . S
H2477 C2489 0.950 . S
H2478 C2486 0.950 . S
H2479 C2488 0.950 . S
H2480 C2490 0.950 . S
H2481 C2492 0.950 . S
H2482 C2494 0.950 . S
H2483 C2495 0.950 . S
C2484 H2476 0.950 . S
C2484 C2485 1.386 . S
C2484 C2486 1.391 . S
C2485 C2484 1.386 . S
C2485 C2489 1.393 . S
C2486 H2478 0.950 . S
C2486 C2484 1.391 . S
C2486 C2487 1.400 . S
C2487 C2486 1.400 . S
C2487 C2488 1.398 . S
C2487 C2493 1.491 . S
C2488 H2479 0.950 . S
C2488 C2487 1.398 . S
C2488 C2489 1.391 . S
C2489 H2477 0.950 . S
C2489 C2485 1.393 . S
C2489 C2488 1.391 . S
C2490 H2480 0.950 . S
C2490 C2491 1.386 . S
C2490 C2492 1.391 . S
C2491 C2490 1.386 . S
C2491 C2495 1.393 . S
C2492 H2481 0.950 . S
C2492 C2490 1.391 . S
C2492 C2493 1.400 . S
C2493 C2487 1.491 . S
C2493 C2492 1.400 . S
C2493 C2494 1.398 . S
C2494 H2482 0.950 . S
C2494 C2493 1.398 . S
C2494 C2495 1.391 . S
C2495 H2483 0.950 . S
C2495 C2491 1.393 . S
C2495 C2494 1.391 . S
H2496 C2504 0.950 . S
H2497 C2509 0.950 . S
H2498 C2506 0.950 . S
H2499 C2508 0.950 . S
H2500 C2510 0.950 . S
H2501 C2512 0.950 . S
H2502 C2514 0.950 . S
H2503 C2515 0.950 . S
C2504 H2496 0.950 . S
C2504 C2505 1.386 . S
C2504 C2506 1.391 . S
C2505 C2504 1.386 . S
C2505 C2509 1.393 . S
C2506 H2498 0.950 . S
C2506 C2504 1.391 . S
C2506 C2507 1.400 . S
C2507 C2506 1.400 . S
C2507 C2508 1.398 . S
C2507 C2513 1.491 . S
C2508 H2499 0.950 . S
C2508 C2507 1.398 . S
C2508 C2509 1.391 . S
C2509 H2497 0.950 . S
C2509 C2505 1.393 . S
C2509 C2508 1.391 . S
C2510 H2500 0.950 . S
C2510 C2511 1.386 . S
C2510 C2512 1.391 . S
C2511 C2510 1.386 . S
C2511 C2515 1.393 . S
C2512 H2501 0.950 . S
C2512 C2510 1.391 . S
C2512 C2513 1.400 . S
C2513 C2507 1.491 . S
C2513 C2512 1.400 . S
C2513 C2514 1.398 . S
C2514 H2502 0.950 . S
C2514 C2513 1.398 . S
C2514 C2515 1.391 . S
C2515 H2503 0.950 . S
C2515 C2511 1.393 . S
C2515 C2514 1.391 . S
H2516 C2524 0.950 . S
H2517 C2529 0.950 . S
H2518 C2526 0.950 . S
H2519 C2528 0.950 . S
H2520 C2530 0.950 . S
H2521 C2532 0.950 . S
H2522 C2534 0.950 . S
H2523 C2535 0.950 . S
C2524 H2516 0.950 . S
C2524 C2525 1.386 . S
C2524 C2526 1.391 . S
C2525 C2524 1.386 . S
C2525 C2529 1.393 . S
C2526 H2518 0.950 . S
C2526 C2524 1.391 . S
C2526 C2527 1.400 . S
C2527 C2526 1.400 . S
C2527 C2528 1.398 . S
C2527 C2533 1.491 . S
C2528 H2519 0.950 . S
C2528 C2527 1.398 . S
C2528 C2529 1.391 . S
C2529 H2517 0.950 . S
C2529 C2525 1.393 . S
C2529 C2528 1.391 . S
C2530 H2520 0.950 . S
C2530 C2531 1.386 . S
C2530 C2532 1.391 . S
C2531 C2530 1.386 . S
C2531 C2535 1.393 . S
C2532 H2521 0.950 . S
C2532 C2530 1.391 . S
C2532 C2533 1.400 . S
C2533 C2527 1.491 . S
C2533 C2532 1.400 . S
C2533 C2534 1.398 . S
C2534 H2522 0.950 . S
C2534 C2533 1.398 . S
C2534 C2535 1.391 . S
C2535 H2523 0.950 . S
C2535 C2531 1.393 . S
C2535 C2534 1.391 . S
H2536 C2544 0.950 . S
H2537 C2549 0.950 . S
H2538 C2546 0.950 . S
H2539 C2548 0.950 . S
H2540 C2550 0.950 . S
H2541 C2552 0.950 . S
H2542 C2554 0.950 . S
H2543 C2555 0.950 . S
C2544 H2536 0.950 . S
C2544 C2545 1.386 . S
C2544 C2546 1.391 . S
C2545 C2544 1.386 . S
C2545 C2549 1.393 . S
C2546 H2538 0.950 . S
C2546 C2544 1.391 . S
C2546 C2547 1.400 . S
C2547 C2546 1.400 . S
C2547 C2548 1.398 . S
C2547 C2553 1.491 . S
C2548 H2539 0.950 . S
C2548 C2547 1.398 . S
C2548 C2549 1.391 . S
C2549 H2537 0.950 . S
C2549 C2545 1.393 . S
C2549 C2548 1.391 . S
C2550 H2540 0.950 . S
C2550 C2551 1.386 . S
C2550 C2552 1.391 . S
C2551 C2550 1.386 . S
C2551 C2555 1.393 . S
C2552 H2541 0.950 . S
C2552 C2550 1.391 . S
C2552 C2553 1.400 . S
C2553 C2547 1.491 . S
C2553 C2552 1.400 . S
C2553 C2554 1.398 . S
C2554 H2542 0.950 . S
C2554 C2553 1.398 . S
C2554 C2555 1.391 . S
C2555 H2543 0.950 . S
C2555 C2551 1.393 . S
C2555 C2554 1.391 . S
H2556 C2564 0.950 . S
H2557 C2569 0.950 . S
H2558 C2566 0.950 . S
H2559 C2568 0.950 . S
H2560 C2570 0.950 . S
H2561 C2572 0.950 . S
H2562 C2574 0.950 . S
H2563 C2575 0.950 . S
C2564 H2556 0.950 . S
C2564 C2565 1.386 . S
C2564 C2566 1.391 . S
C2565 C2564 1.386 . S
C2565 C2569 1.393 . S
C2566 H2558 0.950 . S
C2566 C2564 1.391 . S
C2566 C2567 1.400 . S
C2567 C2566 1.400 . S
C2567 C2568 1.398 . S
C2567 C2573 1.491 . S
C2568 H2559 0.950 . S
C2568 C2567 1.398 . S
C2568 C2569 1.391 . S
C2569 H2557 0.950 . S
C2569 C2565 1.393 . S
C2569 C2568 1.391 . S
C2570 H2560 0.950 . S
C2570 C2571 1.386 . S
C2570 C2572 1.391 . S
C2571 C2570 1.386 . S
C2571 C2575 1.393 . S
C2572 H2561 0.950 . S
C2572 C2570 1.391 . S
C2572 C2573 1.400 . S
C2573 C2567 1.491 . S
C2573 C2572 1.400 . S
C2573 C2574 1.398 . S
C2574 H2562 0.950 . S
C2574 C2573 1.398 . S
C2574 C2575 1.391 . S
C2575 H2563 0.950 . S
C2575 C2571 1.393 . S
C2575 C2574 1.391 . S
H2576 C2584 0.950 . S
H2577 C2589 0.950 . S
H2578 C2586 0.950 . S
H2579 C2588 0.950 . S
H2580 C2590 0.950 . S
H2581 C2592 0.950 . S
H2582 C2594 0.950 . S
H2583 C2595 0.950 . S
C2584 H2576 0.950 . S
C2584 C2585 1.386 . S
C2584 C2586 1.391 . S
C2585 C2584 1.386 . S
C2585 C2589 1.393 . S
C2586 H2578 0.950 . S
C2586 C2584 1.391 . S
C2586 C2587 1.400 . S
C2587 C2586 1.400 . S
C2587 C2588 1.398 . S
C2587 C2593 1.491 . S
C2588 H2579 0.950 . S
C2588 C2587 1.398 . S
C2588 C2589 1.391 . S
C2589 H2577 0.950 . S
C2589 C2585 1.393 . S
C2589 C2588 1.391 . S
C2590 H2580 0.950 . S
C2590 C2591 1.386 . S
C2590 C2592 1.391 . S
C2591 C2590 1.386 . S
C2591 C2595 1.393 . S
C2592 H2581 0.950 . S
C2592 C2590 1.391 . S
C2592 C2593 1.400 . S
C2593 C2587 1.491 . S
C2593 C2592 1.400 . S
C2593 C2594 1.398 . S
C2594 H2582 0.950 . S
C2594 C2593 1.398 . S
C2594 C2595 1.391 . S
C2595 H2583 0.950 . S
C2595 C2591 1.393 . S
C2595 C2594 1.391 . S
H2596 C2604 0.950 . S
H2597 C2609 0.950 . S
H2598 C2606 0.950 . S
H2599 C2608 0.950 . S
H2600 C2610 0.950 . S
H2601 C2612 0.950 . S
H2602 C2614 0.950 . S
H2603 C2615 0.950 . S
C2604 H2596 0.950 . S
C2604 C2605 1.386 . S
C2604 C2606 1.391 . S
C2605 C2604 1.386 . S
C2605 C2609 1.393 . S
C2606 H2598 0.950 . S
C2606 C2604 1.391 . S
C2606 C2607 1.400 . S
C2607 C2606 1.400 . S
C2607 C2608 1.398 . S
C2607 C2613 1.491 . S
C2608 H2599 0.950 . S
C2608 C2607 1.398 . S
C2608 C2609 1.391 . S
C2609 H2597 0.950 . S
C2609 C2605 1.393 . S
C2609 C2608 1.391 . S
C2610 H2600 0.950 . S
C2610 C2611 1.386 . S
C2610 C2612 1.391 . S
C2611 C2610 1.386 . S
C2611 C2615 1.393 . S
C2612 H2601 0.950 . S
C2612 C2610 1.391 . S
C2612 C2613 1.400 . S
C2613 C2607 1.491 . S
C2613 C2612 1.400 . S
C2613 C2614 1.398 . S
C2614 H2602 0.950 . S
C2614 C2613 1.398 . S
C2614 C2615 1.391 . S
C2615 H2603 0.950 . S
C2615 C2611 1.393 . S
C2615 C2614 1.391 . S
H2616 C2624 0.950 . S
H2617 C2629 0.950 . S
H2618 C2626 0.950 . S
H2619 C2628 0.950 . S
H2620 C2630 0.950 . S
H2621 C2632 0.950 . S
H2622 C2634 0.950 . S
H2623 C2635 0.950 . S
C2624 H2616 0.950 . S
C2624 C2625 1.386 . S
C2624 C2626 1.391 . S
C2625 C2624 1.386 . S
C2625 C2629 1.393 . S
C2626 H2618 0.950 . S
C2626 C2624 1.391 . S
C2626 C2627 1.400 . S
C2627 C2626 1.400 . S
C2627 C2628 1.398 . S
C2627 C2633 1.491 . S
C2628 H2619 0.950 . S
C2628 C2627 1.398 . S
C2628 C2629 1.391 . S
C2629 H2617 0.950 . S
C2629 C2625 1.393 . S
C2629 C2628 1.391 . S
C2630 H2620 0.950 . S
C2630 C2631 1.386 . S
C2630 C2632 1.391 . S
C2631 C2630 1.386 . S
C2631 C2635 1.393 . S
C2632 H2621 0.950 . S
C2632 C2630 1.391 . S
C2632 C2633 1.400 . S
C2633 C2627 1.491 . S
C2633 C2632 1.400 . S
C2633 C2634 1.398 . S
C2634 H2622 0.950 . S
C2634 C2633 1.398 . S
C2634 C2635 1.391 . S
C2635 H2623 0.950 . S
C2635 C2631 1.393 . S
C2635 C2634 1.391 . S
H2636 C2644 0.950 . S
H2637 C2649 0.950 . S
H2638 C2646 0.950 . S
H2639 C2648 0.950 . S
H2640 C2650 0.950 . S
H2641 C2652 0.950 . S
H2642 C2654 0.950 . S
H2643 C2655 0.950 . S
C2644 H2636 0.950 . S
C2644 C2645 1.386 . S
C2644 C2646 1.391 . S
C2645 C2644 1.386 . S
C2645 C2649 1.393 . S
C2646 H2638 0.950 . S
C2646 C2644 1.391 . S
C2646 C2647 1.400 . S
C2647 C2646 1.400 . S
C2647 C2648 1.398 . S
C2647 C2653 1.491 . S
C2648 H2639 0.950 . S
C2648 C2647 1.398 . S
C2648 C2649 1.391 . S
C2649 H2637 0.950 . S
C2649 C2645 1.393 . S
C2649 C2648 1.391 . S
C2650 H2640 0.950 . S
C2650 C2651 1.386 . S
C2650 C2652 1.391 . S
C2651 C2650 1.386 . S
C2651 C2655 1.393 . S
C2652 H2641 0.950 . S
C2652 C2650 1.391 . S
C2652 C2653 1.400 . S
C2653 C2647 1.491 . S
C2653 C2652 1.400 . S
C2653 C2654 1.398 . S
C2654 H2642 0.950 . S
C2654 C2653 1.398 . S
C2654 C2655 1.391 . S
C2655 H2643 0.950 . S
C2655 C2651 1.393 . S
C2655 C2654 1.391 . S
H2656 C2664 0.950 . S
H2657 C2669 0.950 . S
H2658 C2666 0.950 . S
H2659 C2668 0.950 . S
H2660 C2670 0.950 . S
H2661 C2672 0.950 . S
H2662 C2674 0.950 . S
H2663 C2675 0.950 . S
C2664 H2656 0.950 . S
C2664 C2665 1.386 . S
C2664 C2666 1.391 . S
C2665 C2664 1.386 . S
C2665 C2669 1.393 . S
C2666 H2658 0.950 . S
C2666 C2664 1.391 . S
C2666 C2667 1.400 . S
C2667 C2666 1.400 . S
C2667 C2668 1.398 . S
C2667 C2673 1.491 . S
C2668 H2659 0.950 . S
C2668 C2667 1.398 . S
C2668 C2669 1.391 . S
C2669 H2657 0.950 . S
C2669 C2665 1.393 . S
C2669 C2668 1.391 . S
C2670 H2660 0.950 . S
C2670 C2671 1.386 . S
C2670 C2672 1.391 . S
C2671 C2670 1.386 . S
C2671 C2675 1.393 . S
C2672 H2661 0.950 . S
C2672 C2670 1.391 . S
C2672 C2673 1.400 . S
C2673 C2667 1.491 . S
C2673 C2672 1.400 . S
C2673 C2674 1.398 . S
C2674 H2662 0.950 . S
C2674 C2673 1.398 . S
C2674 C2675 1.391 . S
C2675 H2663 0.950 . S
C2675 C2671 1.393 . S
C2675 C2674 1.391 . S
H2676 C2684 0.950 . S
H2677 C2689 0.950 . S
H2678 C2686 0.950 . S
H2679 C2688 0.950 . S
H2680 C2690 0.950 . S
H2681 C2692 0.950 . S
H2682 C2694 0.950 . S
H2683 C2695 0.950 . S
C2684 H2676 0.950 . S
C2684 C2685 1.386 . S
C2684 C2686 1.391 . S
C2685 C2684 1.386 . S
C2685 C2689 1.393 . S
C2686 H2678 0.950 . S
C2686 C2684 1.391 . S
C2686 C2687 1.400 . S
C2687 C2686 1.400 . S
C2687 C2688 1.398 . S
C2687 C2693 1.491 . S
C2688 H2679 0.950 . S
C2688 C2687 1.398 . S
C2688 C2689 1.391 . S
C2689 H2677 0.950 . S
C2689 C2685 1.393 . S
C2689 C2688 1.391 . S
C2690 H2680 0.950 . S
C2690 C2691 1.386 . S
C2690 C2692 1.391 . S
C2691 C2690 1.386 . S
C2691 C2695 1.393 . S
C2692 H2681 0.950 . S
C2692 C2690 1.391 . S
C2692 C2693 1.400 . S
C2693 C2687 1.491 . S
C2693 C2692 1.400 . S
C2693 C2694 1.398 . S
C2694 H2682 0.950 . S
C2694 C2693 1.398 . S
C2694 C2695 1.391 . S
C2695 H2683 0.950 . S
C2695 C2691 1.393 . S
C2695 C2694 1.391 . S
H2696 C2704 0.950 . S
H2697 C2709 0.950 . S
H2698 C2706 0.950 . S
H2699 C2708 0.950 . S
H2700 C2710 0.950 . S
H2701 C2712 0.950 . S
H2702 C2714 0.950 . S
H2703 C2715 0.950 . S
C2704 H2696 0.950 . S
C2704 C2705 1.386 . S
C2704 C2706 1.391 . S
C2705 C2704 1.386 . S
C2705 C2709 1.393 . S
C2706 H2698 0.950 . S
C2706 C2704 1.391 . S
C2706 C2707 1.400 . S
C2707 C2706 1.400 . S
C2707 C2708 1.398 . S
C2707 C2713 1.491 . S
C2708 H2699 0.950 . S
C2708 C2707 1.398 . S
C2708 C2709 1.391 . S
C2709 H2697 0.950 . S
C2709 C2705 1.393 . S
C2709 C2708 1.391 . S
C2710 H2700 0.950 . S
C2710 C2711 1.386 . S
C2710 C2712 1.391 . S
C2711 C2710 1.386 . S
C2711 C2715 1.393 . S
C2712 H2701 0.950 . S
C2712 C2710 1.391 . S
C2712 C2713 1.400 . S
C2713 C2707 1.491 . S
C2713 C2712 1.400 . S
C2713 C2714 1.398 . S
C2714 H2702 0.950 . S
C2714 C2713 1.398 . S
C2714 C2715 1.391 . S
C2715 H2703 0.950 . S
C2715 C2711 1.393 . S
C2715 C2714 1.391 . S
H2716 C2724 0.950 . S
H2717 C2729 0.950 . S
H2718 C2726 0.950 . S
H2719 C2728 0.950 . S
H2720 C2730 0.950 . S
H2721 C2732 0.950 . S
H2722 C2734 0.950 . S
H2723 C2735 0.950 . S
C2724 H2716 0.950 . S
C2724 C2725 1.386 . S
C2724 C2726 1.391 . S
C2725 C2724 1.386 . S
C2725 C2729 1.393 . S
C2726 H2718 0.950 . S
C2726 C2724 1.391 . S
C2726 C2727 1.400 . S
C2727 C2726 1.400 . S
C2727 C2728 1.398 . S
C2727 C2733 1.491 . S
C2728 H2719 0.950 . S
C2728 C2727 1.398 . S
C2728 C2729 1.391 . S
C2729 H2717 0.950 . S
C2729 C2725 1.393 . S
C2729 C2728 1.391 . S
C2730 H2720 0.950 . S
C2730 C2731 1.386 . S
C2730 C2732 1.391 . S
C2731 C2730 1.386 . S
C2731 C2735 1.393 . S
C2732 H2721 0.950 . S
C2732 C2730 1.391 . S
C2732 C2733 1.400 . S
C2733 C2727 1.491 . S
C2733 C2732 1.400 . S
C2733 C2734 1.398 . S
C2734 H2722 0.950 . S
C2734 C2733 1.398 . S
C2734 C2735 1.391 . S
C2735 H2723 0.950 . S
C2735 C2731 1.393 . S
C2735 C2734 1.391 . S
H2736 C2744 0.950 . S
H2737 C2749 0.950 . S
H2738 C2746 0.950 . S
H2739 C2748 0.950 . S
H2740 C2750 0.950 . S
H2741 C2752 0.950 . S
H2742 C2754 0.950 . S
H2743 C2755 0.950 . S
C2744 H2736 0.950 . S
C2744 C2745 1.386 . S
C2744 C2746 1.391 . S
C2745 C2744 1.386 . S
C2745 C2749 1.393 . S
C2746 H2738 0.950 . S
C2746 C2744 1.391 . S
C2746 C2747 1.400 . S
C2747 C2746 1.400 . S
C2747 C2748 1.398 . S
C2747 C2753 1.491 . S
C2748 H2739 0.950 . S
C2748 C2747 1.398 . S
C2748 C2749 1.391 . S
C2749 H2737 0.950 . S
C2749 C2745 1.393 . S
C2749 C2748 1.391 . S
C2750 H2740 0.950 . S
C2750 C2751 1.386 . S
C2750 C2752 1.391 . S
C2751 C2750 1.386 . S
C2751 C2755 1.393 . S
C2752 H2741 0.950 . S
C2752 C2750 1.391 . S
C2752 C2753 1.400 . S
C2753 C2747 1.491 . S
C2753 C2752 1.400 . S
C2753 C2754 1.398 . S
C2754 H2742 0.950 . S
C2754 C2753 1.398 . S
C2754 C2755 1.391 . S
C2755 H2743 0.950 . S
C2755 C2751 1.393 . S
C2755 C2754 1.391 . S
H2756 C2764 0.950 . S
H2757 C2769 0.950 . S
H2758 C2766 0.950 . S
H2759 C2768 0.950 . S
H2760 C2770 0.950 . S
H2761 C2772 0.950 . S
H2762 C2774 0.950 . S
H2763 C2775 0.950 . S
C2764 H2756 0.950 . S
C2764 C2765 1.386 . S
C2764 C2766 1.391 . S
C2765 C2764 1.386 . S
C2765 C2769 1.393 . S
C2766 H2758 0.950 . S
C2766 C2764 1.391 . S
C2766 C2767 1.400 . S
C2767 C2766 1.400 . S
C2767 C2768 1.398 . S
C2767 C2773 1.491 . S
C2768 H2759 0.950 . S
C2768 C2767 1.398 . S
C2768 C2769 1.391 . S
C2769 H2757 0.950 . S
C2769 C2765 1.393 . S
C2769 C2768 1.391 . S
C2770 H2760 0.950 . S
C2770 C2771 1.386 . S
C2770 C2772 1.391 . S
C2771 C2770 1.386 . S
C2771 C2775 1.393 . S
C2772 H2761 0.950 . S
C2772 C2770 1.391 . S
C2772 C2773 1.400 . S
C2773 C2767 1.491 . S
C2773 C2772 1.400 . S
C2773 C2774 1.398 . S
C2774 H2762 0.950 . S
C2774 C2773 1.398 . S
C2774 C2775 1.391 . S
C2775 H2763 0.950 . S
C2775 C2771 1.393 . S
C2775 C2774 1.391 . S
H2776 C2784 0.950 . S
H2777 C2789 0.950 . S
H2778 C2786 0.950 . S
H2779 C2788 0.950 . S
H2780 C2790 0.950 . S
H2781 C2792 0.950 . S
H2782 C2794 0.950 . S
H2783 C2795 0.950 . S
C2784 H2776 0.950 . S
C2784 C2785 1.386 . S
C2784 C2786 1.391 . S
C2785 C2784 1.386 . S
C2785 C2789 1.393 . S
C2786 H2778 0.950 . S
C2786 C2784 1.391 . S
C2786 C2787 1.400 . S
C2787 C2786 1.400 . S
C2787 C2788 1.398 . S
C2787 C2793 1.491 . S
C2788 H2779 0.950 . S
C2788 C2787 1.398 . S
C2788 C2789 1.391 . S
C2789 H2777 0.950 . S
C2789 C2785 1.393 . S
C2789 C2788 1.391 . S
C2790 H2780 0.950 . S
C2790 C2791 1.386 . S
C2790 C2792 1.391 . S
C2791 C2790 1.386 . S
C2791 C2795 1.393 . S
C2792 H2781 0.950 . S
C2792 C2790 1.391 . S
C2792 C2793 1.400 . S
C2793 C2787 1.491 . S
C2793 C2792 1.400 . S
C2793 C2794 1.398 . S
C2794 H2782 0.950 . S
C2794 C2793 1.398 . S
C2794 C2795 1.391 . S
C2795 H2783 0.950 . S
C2795 C2791 1.393 . S
C2795 C2794 1.391 . S
H2796 C2804 0.950 . S
H2797 C2809 0.950 . S
H2798 C2806 0.950 . S
H2799 C2808 0.950 . S
H2800 C2810 0.950 . S
H2801 C2812 0.950 . S
H2802 C2814 0.950 . S
H2803 C2815 0.950 . S
C2804 H2796 0.950 . S
C2804 C2805 1.386 . S
C2804 C2806 1.391 . S
C2805 C2804 1.386 . S
C2805 C2809 1.393 . S
C2806 H2798 0.950 . S
C2806 C2804 1.391 . S
C2806 C2807 1.400 . S
C2807 C2806 1.400 . S
C2807 C2808 1.398 . S
C2807 C2813 1.491 . S
C2808 H2799 0.950 . S
C2808 C2807 1.398 . S
C2808 C2809 1.391 . S
C2809 H2797 0.950 . S
C2809 C2805 1.393 . S
C2809 C2808 1.391 . S
C2810 H2800 0.950 . S
C2810 C2811 1.386 . S
C2810 C2812 1.391 . S
C2811 C2810 1.386 . S
C2811 C2815 1.393 . S
C2812 H2801 0.950 . S
C2812 C2810 1.391 . S
C2812 C2813 1.400 . S
C2813 C2807 1.491 . S
C2813 C2812 1.400 . S
C2813 C2814 1.398 . S
C2814 H2802 0.950 . S
C2814 C2813 1.398 . S
C2814 C2815 1.391 . S
C2815 H2803 0.950 . S
C2815 C2811 1.393 . S
C2815 C2814 1.391 . S
H2816 C2824 0.950 . S
H2817 C2829 0.950 . S
H2818 C2826 0.950 . S
H2819 C2828 0.950 . S
H2820 C2830 0.950 . S
H2821 C2832 0.950 . S
H2822 C2834 0.950 . S
H2823 C2835 0.950 . S
C2824 H2816 0.950 . S
C2824 C2825 1.386 . S
C2824 C2826 1.391 . S
C2825 C2824 1.386 . S
C2825 C2829 1.393 . S
C2826 H2818 0.950 . S
C2826 C2824 1.391 . S
C2826 C2827 1.400 . S
C2827 C2826 1.400 . S
C2827 C2828 1.398 . S
C2827 C2833 1.491 . S
C2828 H2819 0.950 . S
C2828 C2827 1.398 . S
C2828 C2829 1.391 . S
C2829 H2817 0.950 . S
C2829 C2825 1.393 . S
C2829 C2828 1.391 . S
C2830 H2820 0.950 . S
C2830 C2831 1.386 . S
C2830 C2832 1.391 . S
C2831 C2830 1.386 . S
C2831 C2835 1.393 . S
C2832 H2821 0.950 . S
C2832 C2830 1.391 . S
C2832 C2833 1.400 . S
C2833 C2827 1.491 . S
C2833 C2832 1.400 . S
C2833 C2834 1.398 . S
C2834 H2822 0.950 . S
C2834 C2833 1.398 . S
C2834 C2835 1.391 . S
C2835 H2823 0.950 . S
C2835 C2831 1.393 . S
C2835 C2834 1.391 . S
H2836 C2844 0.950 . S
H2837 C2849 0.950 . S
H2838 C2846 0.950 . S
H2839 C2848 0.950 . S
H2840 C2850 0.950 . S
H2841 C2852 0.950 . S
H2842 C2854 0.950 . S
H2843 C2855 0.950 . S
C2844 H2836 0.950 . S
C2844 C2845 1.386 . S
C2844 C2846 1.391 . S
C2845 C2844 1.386 . S
C2845 C2849 1.393 . S
C2846 H2838 0.950 . S
C2846 C2844 1.391 . S
C2846 C2847 1.400 . S
C2847 C2846 1.400 . S
C2847 C2848 1.398 . S
C2847 C2853 1.491 . S
C2848 H2839 0.950 . S
C2848 C2847 1.398 . S
C2848 C2849 1.391 . S
C2849 H2837 0.950 . S
C2849 C2845 1.393 . S
C2849 C2848 1.391 . S
C2850 H2840 0.950 . S
C2850 C2851 1.386 . S
C2850 C2852 1.391 . S
C2851 C2850 1.386 . S
C2851 C2855 1.393 . S
C2852 H2841 0.950 . S
C2852 C2850 1.391 . S
C2852 C2853 1.400 . S
C2853 C2847 1.491 . S
C2853 C2852 1.400 . S
C2853 C2854 1.398 . S
C2854 H2842 0.950 . S
C2854 C2853 1.398 . S
C2854 C2855 1.391 . S
C2855 H2843 0.950 . S
C2855 C2851 1.393 . S
C2855 C2854 1.391 . S
H2856 C2864 0.950 . S
H2857 C2869 0.950 . S
H2858 C2866 0.950 . S
H2859 C2868 0.950 . S
H2860 C2870 0.950 . S
H2861 C2872 0.950 . S
H2862 C2874 0.950 . S
H2863 C2875 0.950 . S
C2864 H2856 0.950 . S
C2864 C2865 1.386 . S
C2864 C2866 1.391 . S
C2865 C2864 1.386 . S
C2865 C2869 1.393 . S
C2866 H2858 0.950 . S
C2866 C2864 1.391 . S
C2866 C2867 1.400 . S
C2867 C2866 1.400 . S
C2867 C2868 1.398 . S
C2867 C2873 1.491 . S
C2868 H2859 0.950 . S
C2868 C2867 1.398 . S
C2868 C2869 1.391 . S
C2869 H2857 0.950 . S
C2869 C2865 1.393 . S
C2869 C2868 1.391 . S
C2870 H2860 0.950 . S
C2870 C2871 1.386 . S
C2870 C2872 1.391 . S
C2871 C2870 1.386 . S
C2871 C2875 1.393 . S
C2872 H2861 0.950 . S
C2872 C2870 1.391 . S
C2872 C2873 1.400 . S
C2873 C2867 1.491 . S
C2873 C2872 1.400 . S
C2873 C2874 1.398 . S
C2874 H2862 0.950 . S
C2874 C2873 1.398 . S
C2874 C2875 1.391 . S
C2875 H2863 0.950 . S
C2875 C2871 1.393 . S
C2875 C2874 1.391 . S
H2876 C2884 0.950 . S
H2877 C2889 0.950 . S
H2878 C2886 0.950 . S
H2879 C2888 0.950 . S
H2880 C2890 0.950 . S
H2881 C2892 0.950 . S
H2882 C2894 0.950 . S
H2883 C2895 0.950 . S
C2884 H2876 0.950 . S
C2884 C2885 1.386 . S
C2884 C2886 1.391 . S
C2885 C2884 1.386 . S
C2885 C2889 1.393 . S
C2886 H2878 0.950 . S
C2886 C2884 1.391 . S
C2886 C2887 1.400 . S
C2887 C2886 1.400 . S
C2887 C2888 1.398 . S
C2887 C2893 1.491 . S
C2888 H2879 0.950 . S
C2888 C2887 1.398 . S
C2888 C2889 1.391 . S
C2889 H2877 0.950 . S
C2889 C2885 1.393 . S
C2889 C2888 1.391 . S
C2890 H2880 0.950 . S
C2890 C2891 1.386 . S
C2890 C2892 1.391 . S
C2891 C2890 1.386 . S
C2891 C2895 1.393 . S
C2892 H2881 0.950 . S
C2892 C2890 1.391 . S
C2892 C2893 1.400 . S
C2893 C2887 1.491 . S
C2893 C2892 1.400 . S
C2893 C2894 1.398 . S
C2894 H2882 0.950 . S
C2894 C2893 1.398 . S
C2894 C2895 1.391 . S
C2895 H2883 0.950 . S
C2895 C2891 1.393 . S
C2895 C2894 1.391 . S
H2896 C2904 0.950 . S
H2897 C2909 0.950 . S
H2898 C2906 0.950 . S
H2899 C2908 0.950 . S
H2900 C2910 0.950 . S
H2901 C2912 0.950 . S
H2902 C2914 0.950 . S
H2903 C2915 0.950 . S
C2904 H2896 0.950 . S
C2904 C2905 1.386 . S
C2904 C2906 1.391 . S
C2905 C2904 1.386 . S
C2905 C2909 1.393 . S
C2906 H2898 0.950 . S
C2906 C2904 1.391 . S
C2906 C2907 1.400 . S
C2907 C2906 1.400 . S
C2907 C2908 1.398 . S
C2907 C2913 1.491 . S
C2908 H2899 0.950 . S
C2908 C2907 1.398 . S
C2908 C2909 1.391 . S
C2909 H2897 0.950 . S
C2909 C2905 1.393 . S
C2909 C2908 1.391 . S
C2910 H2900 0.950 . S
C2910 C2911 1.386 . S
C2910 C2912 1.391 . S
C2911 C2910 1.386 . S
C2911 C2915 1.393 . S
C2912 H2901 0.950 . S
C2912 C2910 1.391 . S
C2912 C2913 1.400 . S
C2913 C2907 1.491 . S
C2913 C2912 1.400 . S
C2913 C2914 1.398 . S
C2914 H2902 0.950 . S
C2914 C2913 1.398 . S
C2914 C2915 1.391 . S
C2915 H2903 0.950 . S
C2915 C2911 1.393 . S
C2915 C2914 1.391 . S
H2916 C2924 0.950 . S
H2917 C2929 0.950 . S
H2918 C2926 0.950 . S
H2919 C2928 0.950 . S
H2920 C2930 0.950 . S
H2921 C2932 0.950 . S
H2922 C2934 0.950 . S
H2923 C2935 0.950 . S
C2924 H2916 0.950 . S
C2924 C2925 1.386 . S
C2924 C2926 1.391 . S
C2925 C2924 1.386 . S
C2925 C2929 1.393 . S
C2926 H2918 0.950 . S
C2926 C2924 1.391 . S
C2926 C2927 1.400 . S
C2927 C2926 1.400 . S
C2927 C2928 1.398 . S
C2927 C2933 1.491 . S
C2928 H2919 0.950 . S
C2928 C2927 1.398 . S
C2928 C2929 1.391 . S
C2929 H2917 0.950 . S
C2929 C2925 1.393 . S
C2929 C2928 1.391 . S
C2930 H2920 0.950 . S
C2930 C2931 1.386 . S
C2930 C2932 1.391 . S
C2931 C2930 1.386 . S
C2931 C2935 1.393 . S
C2932 H2921 0.950 . S
C2932 C2930 1.391 . S
C2932 C2933 1.400 . S
C2933 C2927 1.491 . S
C2933 C2932 1.400 . S
C2933 C2934 1.398 . S
C2934 H2922 0.950 . S
C2934 C2933 1.398 . S
C2934 C2935 1.391 . S
C2935 H2923 0.950 . S
C2935 C2931 1.393 . S
C2935 C2934 1.391 . S
H2936 C2944 0.950 . S
H2937 C2949 0.950 . S
H2938 C2946 0.950 . S
H2939 C2948 0.950 . S
H2940 C2950 0.950 . S
H2941 C2952 0.950 . S
H2942 C2954 0.950 . S
H2943 C2955 0.950 . S
C2944 H2936 0.950 . S
C2944 C2945 1.386 . S
C2944 C2946 1.391 . S
C2945 C2944 1.386 . S
C2945 C2949 1.393 . S
C2946 H2938 0.950 . S
C2946 C2944 1.391 . S
C2946 C2947 1.400 . S
C2947 C2946 1.400 . S
C2947 C2948 1.398 . S
C2947 C2953 1.491 . S
C2948 H2939 0.950 . S
C2948 C2947 1.398 . S
C2948 C2949 1.391 . S
C2949 H2937 0.950 . S
C2949 C2945 1.393 . S
C2949 C2948 1.391 . S
C2950 H2940 0.950 . S
C2950 C2951 1.386 . S
C2950 C2952 1.391 . S
C2951 C2950 1.386 . S
C2951 C2955 1.393 . S
C2952 H2941 0.950 . S
C2952 C2950 1.391 . S
C2952 C2953 1.400 . S
C2953 C2947 1.491 . S
C2953 C2952 1.400 . S
C2953 C2954 1.398 . S
C2954 H2942 0.950 . S
C2954 C2953 1.398 . S
C2954 C2955 1.391 . S
C2955 H2943 0.950 . S
C2955 C2951 1.393 . S
C2955 C2954 1.391 . S
H2956 C2964 0.950 . S
H2957 C2969 0.950 . S
H2958 C2966 0.950 . S
H2959 C2968 0.950 . S
H2960 C2970 0.950 . S
H2961 C2972 0.950 . S
H2962 C2974 0.950 . S
H2963 C2975 0.950 . S
C2964 H2956 0.950 . S
C2964 C2965 1.386 . S
C2964 C2966 1.391 . S
C2965 C2964 1.386 . S
C2965 C2969 1.393 . S
C2966 H2958 0.950 . S
C2966 C2964 1.391 . S
C2966 C2967 1.400 . S
C2967 C2966 1.400 . S
C2967 C2968 1.398 . S
C2967 C2973 1.491 . S
C2968 H2959 0.950 . S
C2968 C2967 1.398 . S
C2968 C2969 1.391 . S
C2969 H2957 0.950 . S
C2969 C2965 1.393 . S
C2969 C2968 1.391 . S
C2970 H2960 0.950 . S
C2970 C2971 1.386 . S
C2970 C2972 1.391 . S
C2971 C2970 1.386 . S
C2971 C2975 1.393 . S
C2972 H2961 0.950 . S
C2972 C2970 1.391 . S
C2972 C2973 1.400 . S
C2973 C2967 1.491 . S
C2973 C2972 1.400 . S
C2973 C2974 1.398 . S
C2974 H2962 0.950 . S
C2974 C2973 1.398 . S
C2974 C2975 1.391 . S
C2975 H2963 0.950 . S
C2975 C2971 1.393 . S
C2975 C2974 1.391 . S
H2976 C2984 0.950 . S
H2977 C2989 0.950 . S
H2978 C2986 0.950 . S
H2979 C2988 0.950 . S
H2980 C2990 0.950 . S
H2981 C2992 0.950 . S
H2982 C2994 0.950 . S
H2983 C2995 0.950 . S
C2984 H2976 0.950 . S
C2984 C2985 1.386 . S
C2984 C2986 1.391 . S
C2985 C2984 1.386 . S
C2985 C2989 1.393 . S
C2986 H2978 0.950 . S
C2986 C2984 1.391 . S
C2986 C2987 1.400 . S
C2987 C2986 1.400 . S
C2987 C2988 1.398 . S
C2987 C2993 1.491 . S
C2988 H2979 0.950 . S
C2988 C2987 1.398 . S
C2988 C2989 1.391 . S
C2989 H2977 0.950 . S
C2989 C2985 1.393 . S
C2989 C2988 1.391 . S
C2990 H2980 0.950 . S
C2990 C2991 1.386 . S
C2990 C2992 1.391 . S
C2991 C2990 1.386 . S
C2991 C2995 1.393 . S
C2992 H2981 0.950 . S
C2992 C2990 1.391 . S
C2992 C2993 1.400 . S
C2993 C2987 1.491 . S
C2993 C2992 1.400 . S
C2993 C2994 1.398 . S
C2994 H2982 0.950 . S
C2994 C2993 1.398 . S
C2994 C2995 1.391 . S
C2995 H2983 0.950 . S
C2995 C2991 1.393 . S
C2995 C2994 1.391 . S
H2996 C3004 0.950 . S
H2997 C3009 0.950 . S
H2998 C3006 0.950 . S
H2999 C3008 0.950 . S
H3000 C3010 0.950 . S
H3001 C3012 0.950 . S
H3002 C3014 0.950 . S
H3003 C3015 0.950 . S
C3004 H2996 0.950 . S
C3004 C3005 1.386 . S
C3004 C3006 1.391 . S
C3005 C3004 1.386 . S
C3005 C3009 1.393 . S
C3006 H2998 0.950 . S
C3006 C3004 1.391 . S
C3006 C3007 1.400 . S
C3007 C3006 1.400 . S
C3007 C3008 1.398 . S
C3007 C3013 1.491 . S
C3008 H2999 0.950 . S
C3008 C3007 1.398 . S
C3008 C3009 1.391 . S
C3009 H2997 0.950 . S
C3009 C3005 1.393 . S
C3009 C3008 1.391 . S
C3010 H3000 0.950 . S
C3010 C3011 1.386 . S
C3010 C3012 1.391 . S
C3011 C3010 1.386 . S
C3011 C3015 1.393 . S
C3012 H3001 0.950 . S
C3012 C3010 1.391 . S
C3012 C3013 1.400 . S
C3013 C3007 1.491 . S
C3013 C3012 1.400 . S
C3013 C3014 1.398 . S
C3014 H3002 0.950 . S
C3014 C3013 1.398 . S
C3014 C3015 1.391 . S
C3015 H3003 0.950 . S
C3015 C3011 1.393 . S
C3015 C3014 1.391 . S
H3016 C3024 0.950 . S
H3017 C3029 0.950 . S
H3018 C3026 0.950 . S
H3019 C3028 0.950 . S
H3020 C3030 0.950 . S
H3021 C3032 0.950 . S
H3022 C3034 0.950 . S
H3023 C3035 0.950 . S
C3024 H3016 0.950 . S
C3024 C3025 1.386 . S
C3024 C3026 1.391 . S
C3025 C3024 1.386 . S
C3025 C3029 1.393 . S
C3026 H3018 0.950 . S
C3026 C3024 1.391 . S
C3026 C3027 1.400 . S
C3027 C3026 1.400 . S
C3027 C3028 1.398 . S
C3027 C3033 1.491 . S
C3028 H3019 0.950 . S
C3028 C3027 1.398 . S
C3028 C3029 1.391 . S
C3029 H3017 0.950 . S
C3029 C3025 1.393 . S
C3029 C3028 1.391 . S
C3030 H3020 0.950 . S
C3030 C3031 1.386 . S
C3030 C3032 1.391 . S
C3031 C3030 1.386 . S
C3031 C3035 1.393 . S
C3032 H3021 0.950 . S
C3032 C3030 1.391 . S
C3032 C3033 1.400 . S
C3033 C3027 1.491 . S
C3033 C3032 1.400 . S
C3033 C3034 1.398 . S
C3034 H3022 0.950 . S
C3034 C3033 1.398 . S
C3034 C3035 1.391 . S
C3035 H3023 0.950 . S
C3035 C3031 1.393 . S
C3035 C3034 1.391 . S
H3036 C3044 0.950 . S
H3037 C3049 0.950 . S
H3038 C3046 0.950 . S
H3039 C3048 0.950 . S
H3040 C3050 0.950 . S
H3041 C3052 0.950 . S
H3042 C3054 0.950 . S
H3043 C3055 0.950 . S
C3044 H3036 0.950 . S
C3044 C3045 1.386 . S
C3044 C3046 1.391 . S
C3045 C3044 1.386 . S
C3045 C3049 1.393 . S
C3046 H3038 0.950 . S
C3046 C3044 1.391 . S
C3046 C3047 1.400 . S
C3047 C3046 1.400 . S
C3047 C3048 1.398 . S
C3047 C3053 1.491 . S
C3048 H3039 0.950 . S
C3048 C3047 1.398 . S
C3048 C3049 1.391 . S
C3049 H3037 0.950 . S
C3049 C3045 1.393 . S
C3049 C3048 1.391 . S
C3050 H3040 0.950 . S
C3050 C3051 1.386 . S
C3050 C3052 1.391 . S
C3051 C3050 1.386 . S
C3051 C3055 1.393 . S
C3052 H3041 0.950 . S
C3052 C3050 1.391 . S
C3052 C3053 1.400 . S
C3053 C3047 1.491 . S
C3053 C3052 1.400 . S
C3053 C3054 1.398 . S
C3054 H3042 0.950 . S
C3054 C3053 1.398 . S
C3054 C3055 1.391 . S
C3055 H3043 0.950 . S
C3055 C3051 1.393 . S
C3055 C3054 1.391 . S
H3056 C3064 0.950 . S
H3057 C3069 0.950 . S
H3058 C3066 0.950 . S
H3059 C3068 0.950 . S
H3060 C3070 0.950 . S
H3061 C3072 0.950 . S
H3062 C3074 0.950 . S
H3063 C3075 0.950 . S
C3064 H3056 0.950 . S
C3064 C3065 1.386 . S
C3064 C3066 1.391 . S
C3065 C3064 1.386 . S
C3065 C3069 1.393 . S
C3066 H3058 0.950 . S
C3066 C3064 1.391 . S
C3066 C3067 1.400 . S
C3067 C3066 1.400 . S
C3067 C3068 1.398 . S
C3067 C3073 1.491 . S
C3068 H3059 0.950 . S
C3068 C3067 1.398 . S
C3068 C3069 1.391 . S
C3069 H3057 0.950 . S
C3069 C3065 1.393 . S
C3069 C3068 1.391 . S
C3070 H3060 0.950 . S
C3070 C3071 1.386 . S
C3070 C3072 1.391 . S
C3071 C3070 1.386 . S
C3071 C3075 1.393 . S
C3072 H3061 0.950 . S
C3072 C3070 1.391 . S
C3072 C3073 1.400 . S
C3073 C3067 1.491 . S
C3073 C3072 1.400 . S
C3073 C3074 1.398 . S
C3074 H3062 0.950 . S
C3074 C3073 1.398 . S
C3074 C3075 1.391 . S
C3075 H3063 0.950 . S
C3075 C3071 1.393 . S
C3075 C3074 1.391 . S
H3076 C3084 0.950 . S
H3077 C3089 0.950 . S
H3078 C3086 0.950 . S
H3079 C3088 0.950 . S
H3080 C3090 0.950 . S
H3081 C3092 0.950 . S
H3082 C3094 0.950 . S
H3083 C3095 0.950 . S
C3084 H3076 0.950 . S
C3084 C3085 1.386 . S
C3084 C3086 1.391 . S
C3085 C3084 1.386 . S
C3085 C3089 1.393 . S
C3086 H3078 0.950 . S
C3086 C3084 1.391 . S
C3086 C3087 1.400 . S
C3087 C3086 1.400 . S
C3087 C3088 1.398 . S
C3087 C3093 1.491 . S
C3088 H3079 0.950 . S
C3088 C3087 1.398 . S
C3088 C3089 1.391 . S
C3089 H3077 0.950 . S
C3089 C3085 1.393 . S
C3089 C3088 1.391 . S
C3090 H3080 0.950 . S
C3090 C3091 1.386 . S
C3090 C3092 1.391 . S
C3091 C3090 1.386 . S
C3091 C3095 1.393 . S
C3092 H3081 0.950 . S
C3092 C3090 1.391 . S
C3092 C3093 1.400 . S
C3093 C3087 1.491 . S
C3093 C3092 1.400 . S
C3093 C3094 1.398 . S
C3094 H3082 0.950 . S
C3094 C3093 1.398 . S
C3094 C3095 1.391 . S
C3095 H3083 0.950 . S
C3095 C3091 1.393 . S
C3095 C3094 1.391 . S
H3096 C3104 0.950 . S
H3097 C3109 0.950 . S
H3098 C3106 0.950 . S
H3099 C3108 0.950 . S
H3100 C3110 0.950 . S
H3101 C3112 0.950 . S
H3102 C3114 0.950 . S
H3103 C3115 0.950 . S
C3104 H3096 0.950 . S
C3104 C3105 1.386 . S
C3104 C3106 1.391 . S
C3105 C3104 1.386 . S
C3105 C3109 1.393 . S
C3106 H3098 0.950 . S
C3106 C3104 1.391 . S
C3106 C3107 1.400 . S
C3107 C3106 1.400 . S
C3107 C3108 1.398 . S
C3107 C3113 1.491 . S
C3108 H3099 0.950 . S
C3108 C3107 1.398 . S
C3108 C3109 1.391 . S
C3109 H3097 0.950 . S
C3109 C3105 1.393 . S
C3109 C3108 1.391 . S
C3110 H3100 0.950 . S
C3110 C3111 1.386 . S
C3110 C3112 1.391 . S
C3111 C3110 1.386 . S
C3111 C3115 1.393 . S
C3112 H3101 0.950 . S
C3112 C3110 1.391 . S
C3112 C3113 1.400 . S
C3113 C3107 1.491 . S
C3113 C3112 1.400 . S
C3113 C3114 1.398 . S
C3114 H3102 0.950 . S
C3114 C3113 1.398 . S
C3114 C3115 1.391 . S
C3115 H3103 0.950 . S
C3115 C3111 1.393 . S
C3115 C3114 1.391 . S
H3116 C3124 0.950 . S
H3117 C3129 0.950 . S
H3118 C3126 0.950 . S
H3119 C3128 0.950 . S
H3120 C3130 0.950 . S
H3121 C3132 0.950 . S
H3122 C3134 0.950 . S
H3123 C3135 0.950 . S
C3124 H3116 0.950 . S
C3124 C3125 1.386 . S
C3124 C3126 1.391 . S
C3125 C3124 1.386 . S
C3125 C3129 1.393 . S
C3126 H3118 0.950 . S
C3126 C3124 1.391 . S
C3126 C3127 1.400 . S
C3127 C3126 1.400 . S
C3127 C3128 1.398 . S
C3127 C3133 1.491 . S
C3128 H3119 0.950 . S
C3128 C3127 1.398 . S
C3128 C3129 1.391 . S
C3129 H3117 0.950 . S
C3129 C3125 1.393 . S
C3129 C3128 1.391 . S
C3130 H3120 0.950 . S
C3130 C3131 1.386 . S
C3130 C3132 1.391 . S
C3131 C3130 1.386 . S
C3131 C3135 1.393 . S
C3132 H3121 0.950 . S
C3132 C3130 1.391 . S
C3132 C3133 1.400 . S
C3133 C3127 1.491 . S
C3133 C3132 1.400 . S
C3133 C3134 1.398 . S
C3134 H3122 0.950 . S
C3134 C3133 1.398 . S
C3134 C3135 1.391 . S
C3135 H3123 0.950 . S
C3135 C3131 1.393 . S
C3135 C3134 1.391 . S
H3136 C3144 0.950 . S
H3137 C3149 0.950 . S
H3138 C3146 0.950 . S
H3139 C3148 0.950 . S
H3140 C3150 0.950 . S
H3141 C3152 0.950 . S
H3142 C3154 0.950 . S
H3143 C3155 0.950 . S
C3144 H3136 0.950 . S
C3144 C3145 1.386 . S
C3144 C3146 1.391 . S
C3145 C3144 1.386 . S
C3145 C3149 1.393 . S
C3146 H3138 0.950 . S
C3146 C3144 1.391 . S
C3146 C3147 1.400 . S
C3147 C3146 1.400 . S
C3147 C3148 1.398 . S
C3147 C3153 1.491 . S
C3148 H3139 0.950 . S
C3148 C3147 1.398 . S
C3148 C3149 1.391 . S
C3149 H3137 0.950 . S
C3149 C3145 1.393 . S
C3149 C3148 1.391 . S
C3150 H3140 0.950 . S
C3150 C3151 1.386 . S
C3150 C3152 1.391 . S
C3151 C3150 1.386 . S
C3151 C3155 1.393 . S
C3152 H3141 0.950 . S
C3152 C3150 1.391 . S
C3152 C3153 1.400 . S
C3153 C3147 1.491 . S
C3153 C3152 1.400 . S
C3153 C3154 1.398 . S
C3154 H3142 0.950 . S
C3154 C3153 1.398 . S
C3154 C3155 1.391 . S
C3155 H3143 0.950 . S
C3155 C3151 1.393 . S
C3155 C3154 1.391 . S
H3156 C3164 0.950 . S
H3157 C3169 0.950 . S
H3158 C3166 0.950 . S
H3159 C3168 0.950 . S
H3160 C3170 0.950 . S
H3161 C3172 0.950 . S
H3162 C3174 0.950 . S
H3163 C3175 0.950 . S
C3164 H3156 0.950 . S
C3164 C3165 1.386 . S
C3164 C3166 1.391 . S
C3165 C3164 1.386 . S
C3165 C3169 1.393 . S
C3166 H3158 0.950 . S
C3166 C3164 1.391 . S
C3166 C3167 1.400 . S
C3167 C3166 1.400 . S
C3167 C3168 1.398 . S
C3167 C3173 1.491 . S
C3168 H3159 0.950 . S
C3168 C3167 1.398 . S
C3168 C3169 1.391 . S
C3169 H3157 0.950 . S
C3169 C3165 1.393 . S
C3169 C3168 1.391 . S
C3170 H3160 0.950 . S
C3170 C3171 1.386 . S
C3170 C3172 1.391 . S
C3171 C3170 1.386 . S
C3171 C3175 1.393 . S
C3172 H3161 0.950 . S
C3172 C3170 1.391 . S
C3172 C3173 1.400 . S
C3173 C3167 1.491 . S
C3173 C3172 1.400 . S
C3173 C3174 1.398 . S
C3174 H3162 0.950 . S
C3174 C3173 1.398 . S
C3174 C3175 1.391 . S
C3175 H3163 0.950 . S
C3175 C3171 1.393 . S
C3175 C3174 1.391 . S
H3176 C3184 0.950 . S
H3177 C3189 0.950 . S
H3178 C3186 0.950 . S
H3179 C3188 0.950 . S
H3180 C3190 0.950 . S
H3181 C3192 0.950 . S
H3182 C3194 0.950 . S
H3183 C3195 0.950 . S
C3184 H3176 0.950 . S
C3184 C3185 1.386 . S
C3184 C3186 1.391 . S
C3185 C3184 1.386 . S
C3185 C3189 1.393 . S
C3186 H3178 0.950 . S
C3186 C3184 1.391 . S
C3186 C3187 1.400 . S
C3187 C3186 1.400 . S
C3187 C3188 1.398 . S
C3187 C3193 1.491 . S
C3188 H3179 0.950 . S
C3188 C3187 1.398 . S
C3188 C3189 1.391 . S
C3189 H3177 0.950 . S
C3189 C3185 1.393 . S
C3189 C3188 1.391 . S
C3190 H3180 0.950 . S
C3190 C3191 1.386 . S
C3190 C3192 1.391 . S
C3191 C3190 1.386 . S
C3191 C3195 1.393 . S
C3192 H3181 0.950 . S
C3192 C3190 1.391 . S
C3192 C3193 1.400 . S
C3193 C3187 1.491 . S
C3193 C3192 1.400 . S
C3193 C3194 1.398 . S
C3194 H3182 0.950 . S
C3194 C3193 1.398 . S
C3194 C3195 1.391 . S
C3195 H3183 0.950 . S
C3195 C3191 1.393 . S
C3195 C3194 1.391 . S
H3196 C3204 0.950 . S
H3197 C3209 0.950 . S
H3198 C3206 0.950 . S
H3199 C3208 0.950 . S
H3200 C3210 0.950 . S
H3201 C3212 0.950 . S
H3202 C3214 0.950 . S
H3203 C3215 0.950 . S
C3204 H3196 0.950 . S
C3204 C3205 1.386 . S
C3204 C3206 1.391 . S
C3205 C3204 1.386 . S
C3205 C3209 1.393 . S
C3206 H3198 0.950 . S
C3206 C3204 1.391 . S
C3206 C3207 1.400 . S
C3207 C3206 1.400 . S
C3207 C3208 1.398 . S
C3207 C3213 1.491 . S
C3208 H3199 0.950 . S
C3208 C3207 1.398 . S
C3208 C3209 1.391 . S
C3209 H3197 0.950 . S
C3209 C3205 1.393 . S
C3209 C3208 1.391 . S
C3210 H3200 0.950 . S
C3210 C3211 1.386 . S
C3210 C3212 1.391 . S
C3211 C3210 1.386 . S
C3211 C3215 1.393 . S
C3212 H3201 0.950 . S
C3212 C3210 1.391 . S
C3212 C3213 1.400 . S
C3213 C3207 1.491 . S
C3213 C3212 1.400 . S
C3213 C3214 1.398 . S
C3214 H3202 0.950 . S
C3214 C3213 1.398 . S
C3214 C3215 1.391 . S
C3215 H3203 0.950 . S
C3215 C3211 1.393 . S
C3215 C3214 1.391 . S
H3216 C3224 0.950 . S
H3217 C3229 0.950 . S
H3218 C3226 0.950 . S
H3219 C3228 0.950 . S
H3220 C3230 0.950 . S
H3221 C3232 0.950 . S
H3222 C3234 0.950 . S
H3223 C3235 0.950 . S
C3224 H3216 0.950 . S
C3224 C3225 1.386 . S
C3224 C3226 1.391 . S
C3225 C3224 1.386 . S
C3225 C3229 1.393 . S
C3226 H3218 0.950 . S
C3226 C3224 1.391 . S
C3226 C3227 1.400 . S
C3227 C3226 1.400 . S
C3227 C3228 1.398 . S
C3227 C3233 1.491 . S
C3228 H3219 0.950 . S
C3228 C3227 1.398 . S
C3228 C3229 1.391 . S
C3229 H3217 0.950 . S
C3229 C3225 1.393 . S
C3229 C3228 1.391 . S
C3230 H3220 0.950 . S
C3230 C3231 1.386 . S
C3230 C3232 1.391 . S
C3231 C3230 1.386 . S
C3231 C3235 1.393 . S
C3232 H3221 0.950 . S
C3232 C3230 1.391 . S
C3232 C3233 1.400 . S
C3233 C3227 1.491 . S
C3233 C3232 1.400 . S
C3233 C3234 1.398 . S
C3234 H3222 0.950 . S
C3234 C3233 1.398 . S
C3234 C3235 1.391 . S
C3235 H3223 0.950 . S
C3235 C3231 1.393 . S
C3235 C3234 1.391 . S
H3236 C3244 0.950 . S
H3237 C3249 0.950 . S
H3238 C3246 0.950 . S
H3239 C3248 0.950 . S
H3240 C3250 0.950 . S
H3241 C3252 0.950 . S
H3242 C3254 0.950 . S
H3243 C3255 0.950 . S
C3244 H3236 0.950 . S
C3244 C3245 1.386 . S
C3244 C3246 1.391 . S
C3245 C3244 1.386 . S
C3245 C3249 1.393 . S
C3246 H3238 0.950 . S
C3246 C3244 1.391 . S
C3246 C3247 1.400 . S
C3247 C3246 1.400 . S
C3247 C3248 1.398 . S
C3247 C3253 1.491 . S
C3248 H3239 0.950 . S
C3248 C3247 1.398 . S
C3248 C3249 1.391 . S
C3249 H3237 0.950 . S
C3249 C3245 1.393 . S
C3249 C3248 1.391 . S
C3250 H3240 0.950 . S
C3250 C3251 1.386 . S
C3250 C3252 1.391 . S
C3251 C3250 1.386 . S
C3251 C3255 1.393 . S
C3252 H3241 0.950 . S
C3252 C3250 1.391 . S
C3252 C3253 1.400 . S
C3253 C3247 1.491 . S
C3253 C3252 1.400 . S
C3253 C3254 1.398 . S
C3254 H3242 0.950 . S
C3254 C3253 1.398 . S
C3254 C3255 1.391 . S
C3255 H3243 0.950 . S
C3255 C3251 1.393 . S
C3255 C3254 1.391 . S
H3256 C3264 0.950 . S
H3257 C3269 0.950 . S
H3258 C3266 0.950 . S
H3259 C3268 0.950 . S
H3260 C3270 0.950 . S
H3261 C3272 0.950 . S
H3262 C3274 0.950 . S
H3263 C3275 0.950 . S
C3264 H3256 0.950 . S
C3264 C3265 1.386 . S
C3264 C3266 1.391 . S
C3265 C3264 1.386 . S
C3265 C3269 1.393 . S
C3266 H3258 0.950 . S
C3266 C3264 1.391 . S
C3266 C3267 1.400 . S
C3267 C3266 1.400 . S
C3267 C3268 1.398 . S
C3267 C3273 1.491 . S
C3268 H3259 0.950 . S
C3268 C3267 1.398 . S
C3268 C3269 1.391 . S
C3269 H3257 0.950 . S
C3269 C3265 1.393 . S
C3269 C3268 1.391 . S
C3270 H3260 0.950 . S
C3270 C3271 1.386 . S
C3270 C3272 1.391 . S
C3271 C3270 1.386 . S
C3271 C3275 1.393 . S
C3272 H3261 0.950 . S
C3272 C3270 1.391 . S
C3272 C3273 1.400 . S
C3273 C3267 1.491 . S
C3273 C3272 1.400 . S
C3273 C3274 1.398 . S
C3274 H3262 0.950 . S
C3274 C3273 1.398 . S
C3274 C3275 1.391 . S
C3275 H3263 0.950 . S
C3275 C3271 1.393 . S
C3275 C3274 1.391 . S
H3276 C3284 0.950 . S
H3277 C3289 0.950 . S
H3278 C3286 0.950 . S
H3279 C3288 0.950 . S
H3280 C3290 0.950 . S
H3281 C3292 0.950 . S
H3282 C3294 0.950 . S
H3283 C3295 0.950 . S
C3284 H3276 0.950 . S
C3284 C3285 1.386 . S
C3284 C3286 1.391 . S
C3285 C3284 1.386 . S
C3285 C3289 1.393 . S
C3286 H3278 0.950 . S
C3286 C3284 1.391 . S
C3286 C3287 1.400 . S
C3287 C3286 1.400 . S
C3287 C3288 1.398 . S
C3287 C3293 1.491 . S
C3288 H3279 0.950 . S
C3288 C3287 1.398 . S
C3288 C3289 1.391 . S
C3289 H3277 0.950 . S
C3289 C3285 1.393 . S
C3289 C3288 1.391 . S
C3290 H3280 0.950 . S
C3290 C3291 1.386 . S
C3290 C3292 1.391 . S
C3291 C3290 1.386 . S
C3291 C3295 1.393 . S
C3292 H3281 0.950 . S
C3292 C3290 1.391 . S
C3292 C3293 1.400 . S
C3293 C3287 1.491 . S
C3293 C3292 1.400 . S
C3293 C3294 1.398 . S
C3294 H3282 0.950 . S
C3294 C3293 1.398 . S
C3294 C3295 1.391 . S
C3295 H3283 0.950 . S
C3295 C3291 1.393 . S
C3295 C3294 1.391 . S
H3296 C3304 0.950 . S
H3297 C3309 0.950 . S
H3298 C3306 0.950 . S
H3299 C3308 0.950 . S
H3300 C3310 0.950 . S
H3301 C3312 0.950 . S
H3302 C3314 0.950 . S
H3303 C3315 0.950 . S
C3304 H3296 0.950 . S
C3304 C3305 1.386 . S
C3304 C3306 1.391 . S
C3305 C3304 1.386 . S
C3305 C3309 1.393 . S
C3306 H3298 0.950 . S
C3306 C3304 1.391 . S
C3306 C3307 1.400 . S
C3307 C3306 1.400 . S
C3307 C3308 1.398 . S
C3307 C3313 1.491 . S
C3308 H3299 0.950 . S
C3308 C3307 1.398 . S
C3308 C3309 1.391 . S
C3309 H3297 0.950 . S
C3309 C3305 1.393 . S
C3309 C3308 1.391 . S
C3310 H3300 0.950 . S
C3310 C3311 1.386 . S
C3310 C3312 1.391 . S
C3311 C3310 1.386 . S
C3311 C3315 1.393 . S
C3312 H3301 0.950 . S
C3312 C3310 1.391 . S
C3312 C3313 1.400 . S
C3313 C3307 1.491 . S
C3313 C3312 1.400 . S
C3313 C3314 1.398 . S
C3314 H3302 0.950 . S
C3314 C3313 1.398 . S
C3314 C3315 1.391 . S
C3315 H3303 0.950 . S
C3315 C3311 1.393 . S
C3315 C3314 1.391 . S
H3316 C3324 0.950 . S
H3317 C3329 0.950 . S
H3318 C3326 0.950 . S
H3319 C3328 0.950 . S
H3320 C3330 0.950 . S
H3321 C3332 0.950 . S
H3322 C3334 0.950 . S
H3323 C3335 0.950 . S
C3324 H3316 0.950 . S
C3324 C3325 1.386 . S
C3324 C3326 1.391 . S
C3325 C3324 1.386 . S
C3325 C3329 1.393 . S
C3326 H3318 0.950 . S
C3326 C3324 1.391 . S
C3326 C3327 1.400 . S
C3327 C3326 1.400 . S
C3327 C3328 1.398 . S
C3327 C3333 1.491 . S
C3328 H3319 0.950 . S
C3328 C3327 1.398 . S
C3328 C3329 1.391 . S
C3329 H3317 0.950 . S
C3329 C3325 1.393 . S
C3329 C3328 1.391 . S
C3330 H3320 0.950 . S
C3330 C3331 1.386 . S
C3330 C3332 1.391 . S
C3331 C3330 1.386 . S
C3331 C3335 1.393 . S
C3332 H3321 0.950 . S
C3332 C3330 1.391 . S
C3332 C3333 1.400 . S
C3333 C3327 1.491 . S
C3333 C3332 1.400 . S
C3333 C3334 1.398 . S
C3334 H3322 0.950 . S
C3334 C3333 1.398 . S
C3334 C3335 1.391 . S
C3335 H3323 0.950 . S
C3335 C3331 1.393 . S
C3335 C3334 1.391 . S
H3336 C3344 0.950 . S
H3337 C3349 0.950 . S
H3338 C3346 0.950 . S
H3339 C3348 0.950 . S
H3340 C3350 0.950 . S
H3341 C3352 0.950 . S
H3342 C3354 0.950 . S
H3343 C3355 0.950 . S
C3344 H3336 0.950 . S
C3344 C3345 1.386 . S
C3344 C3346 1.391 . S
C3345 C3344 1.386 . S
C3345 C3349 1.393 . S
C3346 H3338 0.950 . S
C3346 C3344 1.391 . S
C3346 C3347 1.400 . S
C3347 C3346 1.400 . S
C3347 C3348 1.398 . S
C3347 C3353 1.491 . S
C3348 H3339 0.950 . S
C3348 C3347 1.398 . S
C3348 C3349 1.391 . S
C3349 H3337 0.950 . S
C3349 C3345 1.393 . S
C3349 C3348 1.391 . S
C3350 H3340 0.950 . S
C3350 C3351 1.386 . S
C3350 C3352 1.391 . S
C3351 C3350 1.386 . S
C3351 C3355 1.393 . S
C3352 H3341 0.950 . S
C3352 C3350 1.391 . S
C3352 C3353 1.400 . S
C3353 C3347 1.491 . S
C3353 C3352 1.400 . S
C3353 C3354 1.398 . S
C3354 H3342 0.950 . S
C3354 C3353 1.398 . S
C3354 C3355 1.391 . S
C3355 H3343 0.950 . S
C3355 C3351 1.393 . S
C3355 C3354 1.391 . S
H3356 C3364 0.950 . S
H3357 C3369 0.950 . S
H3358 C3366 0.950 . S
H3359 C3368 0.950 . S
H3360 C3370 0.950 . S
H3361 C3372 0.950 . S
H3362 C3374 0.950 . S
H3363 C3375 0.950 . S
C3364 H3356 0.950 . S
C3364 C3365 1.386 . S
C3364 C3366 1.391 . S
C3365 C3364 1.386 . S
C3365 C3369 1.393 . S
C3366 H3358 0.950 . S
C3366 C3364 1.391 . S
C3366 C3367 1.400 . S
C3367 C3366 1.400 . S
C3367 C3368 1.398 . S
C3367 C3373 1.491 . S
C3368 H3359 0.950 . S
C3368 C3367 1.398 . S
C3368 C3369 1.391 . S
C3369 H3357 0.950 . S
C3369 C3365 1.393 . S
C3369 C3368 1.391 . S
C3370 H3360 0.950 . S
C3370 C3371 1.386 . S
C3370 C3372 1.391 . S
C3371 C3370 1.386 . S
C3371 C3375 1.393 . S
C3372 H3361 0.950 . S
C3372 C3370 1.391 . S
C3372 C3373 1.400 . S
C3373 C3367 1.491 . S
C3373 C3372 1.400 . S
C3373 C3374 1.398 . S
C3374 H3362 0.950 . S
C3374 C3373 1.398 . S
C3374 C3375 1.391 . S
C3375 H3363 0.950 . S
C3375 C3371 1.393 . S
C3375 C3374 1.391 . S
H3376 C3384 0.950 . S
H3377 C3389 0.950 . S
H3378 C3386 0.950 . S
H3379 C3388 0.950 . S
H3380 C3390 0.950 . S
H3381 C3392 0.950 . S
H3382 C3394 0.950 . S
H3383 C3395 0.950 . S
C3384 H3376 0.950 . S
C3384 C3385 1.386 . S
C3384 C3386 1.391 . S
C3385 C3384 1.386 . S
C3385 C3389 1.393 . S
C3386 H3378 0.950 . S
C3386 C3384 1.391 . S
C3386 C3387 1.400 . S
C3387 C3386 1.400 . S
C3387 C3388 1.398 . S
C3387 C3393 1.491 . S
C3388 H3379 0.950 . S
C3388 C3387 1.398 . S
C3388 C3389 1.391 . S
C3389 H3377 0.950 . S
C3389 C3385 1.393 . S
C3389 C3388 1.391 . S
C3390 H3380 0.950 . S
C3390 C3391 1.386 . S
C3390 C3392 1.391 . S
C3391 C3390 1.386 . S
C3391 C3395 1.393 . S
C3392 H3381 0.950 . S
C3392 C3390 1.391 . S
C3392 C3393 1.400 . S
C3393 C3387 1.491 . S
C3393 C3392 1.400 . S
C3393 C3394 1.398 . S
C3394 H3382 0.950 . S
C3394 C3393 1.398 . S
C3394 C3395 1.391 . S
C3395 H3383 0.950 . S
C3395 C3391 1.393 . S
C3395 C3394 1.391 . S
H3396 C3404 0.950 . S
H3397 C3409 0.950 . S
H3398 C3406 0.950 . S
H3399 C3408 0.950 . S
H3400 C3410 0.950 . S
H3401 C3412 0.950 . S
H3402 C3414 0.950 . S
H3403 C3415 0.950 . S
C3404 H3396 0.950 . S
C3404 C3405 1.386 . S
C3404 C3406 1.391 . S
C3405 C3404 1.386 . S
C3405 C3409 1.393 . S
C3406 H3398 0.950 . S
C3406 C3404 1.391 . S
C3406 C3407 1.400 . S
C3407 C3406 1.400 . S
C3407 C3408 1.398 . S
C3407 C3413 1.491 . S
C3408 H3399 0.950 . S
C3408 C3407 1.398 . S
C3408 C3409 1.391 . S
C3409 H3397 0.950 . S
C3409 C3405 1.393 . S
C3409 C3408 1.391 . S
C3410 H3400 0.950 . S
C3410 C3411 1.386 . S
C3410 C3412 1.391 . S
C3411 C3410 1.386 . S
C3411 C3415 1.393 . S
C3412 H3401 0.950 . S
C3412 C3410 1.391 . S
C3412 C3413 1.400 . S
C3413 C3407 1.491 . S
C3413 C3412 1.400 . S
C3413 C3414 1.398 . S
C3414 H3402 0.950 . S
C3414 C3413 1.398 . S
C3414 C3415 1.391 . S
C3415 H3403 0.950 . S
C3415 C3411 1.393 . S
C3415 C3414 1.391 . S
H3416 C3424 0.950 . S
H3417 C3429 0.950 . S
H3418 C3426 0.950 . S
H3419 C3428 0.950 . S
H3420 C3430 0.950 . S
H3421 C3432 0.950 . S
H3422 C3434 0.950 . S
H3423 C3435 0.950 . S
C3424 H3416 0.950 . S
C3424 C3425 1.386 . S
C3424 C3426 1.391 . S
C3425 C3424 1.386 . S
C3425 C3429 1.393 . S
C3426 H3418 0.950 . S
C3426 C3424 1.391 . S
C3426 C3427 1.400 . S
C3427 C3426 1.400 . S
C3427 C3428 1.398 . S
C3427 C3433 1.491 . S
C3428 H3419 0.950 . S
C3428 C3427 1.398 . S
C3428 C3429 1.391 . S
C3429 H3417 0.950 . S
C3429 C3425 1.393 . S
C3429 C3428 1.391 . S
C3430 H3420 0.950 . S
C3430 C3431 1.386 . S
C3430 C3432 1.391 . S
C3431 C3430 1.386 . S
C3431 C3435 1.393 . S
C3432 H3421 0.950 . S
C3432 C3430 1.391 . S
C3432 C3433 1.400 . S
C3433 C3427 1.491 . S
C3433 C3432 1.400 . S
C3433 C3434 1.398 . S
C3434 H3422 0.950 . S
C3434 C3433 1.398 . S
C3434 C3435 1.391 . S
C3435 H3423 0.950 . S
C3435 C3431 1.393 . S
C3435 C3434 1.391 . S
H3436 C3444 0.950 . S
H3437 C3449 0.950 . S
H3438 C3446 0.950 . S
H3439 C3448 0.950 . S
H3440 C3450 0.950 . S
H3441 C3452 0.950 . S
H3442 C3454 0.950 . S
H3443 C3455 0.950 . S
C3444 H3436 0.950 . S
C3444 C3445 1.386 . S
C3444 C3446 1.391 . S
C3445 C3444 1.386 . S
C3445 C3449 1.393 . S
C3446 H3438 0.950 . S
C3446 C3444 1.391 . S
C3446 C3447 1.400 . S
C3447 C3446 1.400 . S
C3447 C3448 1.398 . S
C3447 C3453 1.491 . S
C3448 H3439 0.950 . S
C3448 C3447 1.398 . S
C3448 C3449 1.391 . S
C3449 H3437 0.950 . S
C3449 C3445 1.393 . S
C3449 C3448 1.391 . S
C3450 H3440 0.950 . S
C3450 C3451 1.386 . S
C3450 C3452 1.391 . S
C3451 C3450 1.386 . S
C3451 C3455 1.393 . S
C3452 H3441 0.950 . S
C3452 C3450 1.391 . S
C3452 C3453 1.400 . S
C3453 C3447 1.491 . S
C3453 C3452 1.400 . S
C3453 C3454 1.398 . S
C3454 H3442 0.950 . S
C3454 C3453 1.398 . S
C3454 C3455 1.391 . S
C3455 H3443 0.950 . S
C3455 C3451 1.393 . S
C3455 C3454 1.391 . S
H3456 C3464 0.950 . S
H3457 C3469 0.950 . S
H3458 C3466 0.950 . S
H3459 C3468 0.950 . S
H3460 C3470 0.950 . S
H3461 C3472 0.950 . S
H3462 C3474 0.950 . S
H3463 C3475 0.950 . S
C3464 H3456 0.950 . S
C3464 C3465 1.386 . S
C3464 C3466 1.391 . S
C3465 C3464 1.386 . S
C3465 C3469 1.393 . S
C3466 H3458 0.950 . S
C3466 C3464 1.391 . S
C3466 C3467 1.400 . S
C3467 C3466 1.400 . S
C3467 C3468 1.398 . S
C3467 C3473 1.491 . S
C3468 H3459 0.950 . S
C3468 C3467 1.398 . S
C3468 C3469 1.391 . S
C3469 H3457 0.950 . S
C3469 C3465 1.393 . S
C3469 C3468 1.391 . S
C3470 H3460 0.950 . S
C3470 C3471 1.386 . S
C3470 C3472 1.391 . S
C3471 C3470 1.386 . S
C3471 C3475 1.393 . S
C3472 H3461 0.950 . S
C3472 C3470 1.391 . S
C3472 C3473 1.400 . S
C3473 C3467 1.491 . S
C3473 C3472 1.400 . S
C3473 C3474 1.398 . S
C3474 H3462 0.950 . S
C3474 C3473 1.398 . S
C3474 C3475 1.391 . S
C3475 H3463 0.950 . S
C3475 C3471 1.393 . S
C3475 C3474 1.391 . S
H3476 C3484 0.950 . S
H3477 C3489 0.950 . S
H3478 C3486 0.950 . S
H3479 C3488 0.950 . S
H3480 C3490 0.950 . S
H3481 C3492 0.950 . S
H3482 C3494 0.950 . S
H3483 C3495 0.950 . S
C3484 H3476 0.950 . S
C3484 C3485 1.386 . S
C3484 C3486 1.391 . S
C3485 C3484 1.386 . S
C3485 C3489 1.393 . S
C3486 H3478 0.950 . S
C3486 C3484 1.391 . S
C3486 C3487 1.400 . S
C3487 C3486 1.400 . S
C3487 C3488 1.398 . S
C3487 C3493 1.491 . S
C3488 H3479 0.950 . S
C3488 C3487 1.398 . S
C3488 C3489 1.391 . S
C3489 H3477 0.950 . S
C3489 C3485 1.393 . S
C3489 C3488 1.391 . S
C3490 H3480 0.950 . S
C3490 C3491 1.386 . S
C3490 C3492 1.391 . S
C3491 C3490 1.386 . S
C3491 C3495 1.393 . S
C3492 H3481 0.950 . S
C3492 C3490 1.391 . S
C3492 C3493 1.400 . S
C3493 C3487 1.491 . S
C3493 C3492 1.400 . S
C3493 C3494 1.398 . S
C3494 H3482 0.950 . S
C3494 C3493 1.398 . S
C3494 C3495 1.391 . S
C3495 H3483 0.950 . S
C3495 C3491 1.393 . S
C3495 C3494 1.391 . S
C1591 N1036 1.519 . S
C1585 C29 1.517 . S
C1611 C1063 1.610 . S
C1605 C61 1.581 . S
C1625 C93 1.508 . S
C1631 C1077 1.540 . S
C1651 N1095 1.449 . S
C1645 C119 1.460 . S
C1665 C157 1.575 . S
C1671 C1100 1.616 . S
C1685 C177 1.477 . S
C1691 C1040 1.498 . S
C1705 C221 1.415 . S
C1711 N1059 1.412 . S
C1731 N1072 1.479 . S
C1725 C253 1.491 . S
C1751 N1118 1.407 . S
C1745 C17 1.406 . S
C1765 C55 1.481 . S
C1771 N1141 1.456 . S
C1785 C87 1.524 . S
C1791 N1164 1.508 . S
C1811 N1197 1.413 . S
C1805 C113 1.451 . S
C1825 C145 1.480 . S
C1831 C1224 1.506 . S
C1851 C1247 1.545 . S
C1845 C183 1.511 . S
C1865 C215 1.482 . S
C1871 C1270 1.495 . S
C1891 C1284 1.401 . S
C1885 C247 1.393 . S
C1905 C23 1.372 . S
C1911 C1201 1.419 . S
C1925 C151 1.432 . S
C1931 N1243 1.431 . S
C1951 N1266 1.452 . S
C1945 C189 1.452 . S
C1965 C209 1.457 . S
C1971 N1279 1.427 . S
C1991 N1220 1.440 . S
C1985 C241 1.461 . S
C2011 C1146 1.648 . S
C2005 C81 1.634 . S
C2025 C125 1.506 . S
C2031 C1169 1.531 . S
C2051 C1123 1.595 . S
C2045 C49 1.585 . S
C2071 C1316 1.507 . S
C2065 C285 1.453 . S
C2085 C317 1.601 . S
C2091 C1330 1.620 . S
C2105 C349 1.503 . S
C2111 N1358 1.491 . S
C2131 N1371 1.442 . S
C2125 C375 1.448 . S
C2145 C413 1.577 . S
C2151 C1376 1.624 . S
C2165 C433 1.462 . S
C2171 N1312 1.439 . S
C2185 C477 1.505 . S
C2191 N1325 1.506 . S
C2205 C509 1.473 . S
C2211 C1362 1.471 . S
C2231 N1210 1.398 . S
C2225 C273 1.396 . S
C2245 C311 1.449 . S
C2251 N1394 1.445 . S
C2271 N1256 1.444 . S
C2265 C343 1.443 . S
C2285 C369 1.496 . S
C2291 C1431 1.499 . S
C2305 C401 1.522 . S
C2311 C1132 1.549 . S
C2331 C1445 1.577 . S
C2325 C439 1.548 . S
C2345 C471 1.520 . S
C2351 C1178 1.522 . S
C2371 N1463 1.377 . S
C2365 C503 1.379 . S
C2385 C279 1.399 . S
C2391 N1427 1.398 . S
C2411 N1440 1.445 . S
C2405 C407 1.444 . S
C2425 C445 1.449 . S
C2431 N1174 1.454 . S
C2451 C1468 1.443 . S
C2445 C465 1.437 . S
C2465 C497 1.436 . S
C2471 N1128 1.423 . S
C2485 C337 1.541 . S
C2491 C1399 1.555 . S
C2505 C381 1.561 . S
C2511 C1261 1.576 . S
C2525 C305 1.574 . S
C2531 C1215 1.591 . S
C2545 C541 1.536 . S
C2551 C1353 1.576 . S
C2571 C1385 1.552 . S
C2565 C573 1.537 . S
C2585 C605 1.485 . S
C2591 N1302 1.455 . S
C2605 C631 1.438 . S
C2611 N1335 1.400 . S
C2625 C669 1.597 . S
C2631 C1339 1.628 . S
C2645 C689 1.520 . S
C2651 N1348 1.522 . S
C2671 N1381 1.367 . S
C2665 C733 1.415 . S
C2685 C765 1.502 . S
C2691 C1307 1.534 . S
C2711 N1496 1.419 . S
C2705 C529 1.427 . S
C2725 C567 1.397 . S
C2731 N1233 1.404 . S
C2751 N1519 1.367 . S
C2745 C599 1.392 . S
C2765 C625 1.444 . S
C2771 N1289 1.449 . S
C2785 C657 1.488 . S
C2791 C1537 1.527 . S
C2805 C695 1.608 . S
C2811 C1155 1.634 . S
C2831 N1555 1.392 . S
C2825 C727 1.401 . S
C2845 C759 1.429 . S
C2851 C1192 1.451 . S
C2871 C1293 1.459 . S
C2865 C535 1.415 . S
C2891 N1151 1.456 . S
C2885 C663 1.463 . S
C2905 C701 1.538 . S
C2911 C1560 1.587 . S
C2925 C721 1.389 . S
C2931 N1187 1.376 . S
C2951 N1532 1.486 . S
C2945 C753 1.516 . S
C2971 C1238 1.547 . S
C2965 C593 1.534 . S
C2991 C1523 1.575 . S
C2985 C637 1.561 . S
C3011 C1500 1.564 . S
C3005 C561 1.534 . S
C3025 C797 1.409 . S
C3031 N1082 1.414 . S
C3045 C829 1.552 . S
C3051 C1109 1.579 . S
C3071 C1031 1.564 . S
C3065 C861 1.551 . S
C3091 N1049 1.371 . S
C3085 C887 1.408 . S
C3111 C1054 1.623 . S
C3105 C925 1.573 . S
C3131 C1086 1.503 . S
C3125 C945 1.473 . S
C3151 N1105 1.487 . S
C3145 C989 1.521 . S
C3165 C1021 1.521 . S
C3171 N1026 1.506 . S
C3185 C785 1.359 . S
C3191 N1542 1.356 . S
C3211 N1450 1.434 . S
C3205 C823 1.427 . S
C3231 C1569 1.570 . S
C3225 C855 1.552 . S
C3251 C1477 1.387 . S
C3245 C881 1.371 . S
C3265 C913 1.508 . S
C3271 C1491 1.547 . S
C3291 C1408 1.553 . S
C3285 C951 1.530 . S
C3311 C1514 1.633 . S
C3305 C983 1.620 . S
C3325 C1015 1.443 . S
C3331 N1417 1.413 . S
C3351 N1473 1.338 . S
C3345 C791 1.339 . S
C3371 N1404 1.429 . S
C3365 C919 1.429 . S
C3391 N1509 1.398 . S
C3385 C957 1.396 . S
C3405 C977 1.500 . S
C3411 C1422 1.506 . S
C3425 C1009 1.454 . S
C3431 N1486 1.436 . S
C3445 C849 1.627 . S
C3451 C1454 1.645 . S
C3465 C893 1.430 . S
C3471 N1565 1.419 . S
C3491 C1546 1.535 . S
C3485 C817 1.532 . S
