# Generated by pormake.
# Topology anh, (6,3)-cn, num edge types: 1
# Building blocks:
#     Node 0, Type 0, BuildingBlock: BETFEN_clean_sbu_0, # of connection points: 6
#     Node 1, Type 0, BuildingBlock: BETFEN_clean_sbu_0, # of connection points: 6
#     Node 2, Type 0, BuildingBlock: BETFEN_clean_sbu_0, # of connection points: 6
#     Node 3, Type 1, BuildingBlock: ESEHIV_clean_linker_0, # of connection points: 3
#     Node 4, Type 1, BuildingBlock: ESEHIV_clean_linker_0, # of connection points: 3
#     Node 5, Type 1, BuildingBlock: ESEHIV_clean_linker_0, # of connection points: 3
#     Node 6, Type 1, BuildingBlock: ESEHIV_clean_linker_0, # of connection points: 3
#     Node 7, Type 1, BuildingBlock: ESEHIV_clean_linker_0, # of connection points: 3
#     Node 8, Type 1, BuildingBlock: ESEHIV_clean_linker_0, # of connection points: 3
#     Edge 9, Type (0, 1), BuildingBlock: CIFDUS_clean_linker_0, # of connection points: 2
#     Edge 10, Type (0, 1), BuildingBlock: CIFDUS_clean_linker_0, # of connection points: 2
#     Edge 11, Type (0, 1), BuildingBlock: CIFDUS_clean_linker_0, # of connection points: 2
#     Edge 12, Type (0, 1), BuildingBlock: CIFDUS_clean_linker_0, # of connection points: 2
#     Edge 13, Type (0, 1), BuildingBlock: CIFDUS_clean_linker_0, # of connection points: 2
#     Edge 14, Type (0, 1), BuildingBlock: CIFDUS_clean_linker_0, # of connection points: 2
#     Edge 15, Type (0, 1), BuildingBlock: CIFDUS_clean_linker_0, # of connection points: 2
#     Edge 16, Type (0, 1), BuildingBlock: CIFDUS_clean_linker_0, # of connection points: 2
#     Edge 17, Type (0, 1), BuildingBlock: CIFDUS_clean_linker_0, # of connection points: 2
#     Edge 18, Type (0, 1), BuildingBlock: CIFDUS_clean_linker_0, # of connection points: 2
#     Edge 19, Type (0, 1), BuildingBlock: CIFDUS_clean_linker_0, # of connection points: 2
#     Edge 20, Type (0, 1), BuildingBlock: CIFDUS_clean_linker_0, # of connection points: 2
#     Edge 21, Type (0, 1), BuildingBlock: CIFDUS_clean_linker_0, # of connection points: 2
#     Edge 22, Type (0, 1), BuildingBlock: CIFDUS_clean_linker_0, # of connection points: 2
#     Edge 23, Type (0, 1), BuildingBlock: CIFDUS_clean_linker_0, # of connection points: 2
#     Edge 24, Type (0, 1), BuildingBlock: CIFDUS_clean_linker_0, # of connection points: 2
#     Edge 25, Type (0, 1), BuildingBlock: CIFDUS_clean_linker_0, # of connection points: 2
#     Edge 26, Type (0, 1), BuildingBlock: CIFDUS_clean_linker_0, # of connection points: 2
# Relax obj value: 0.242
# Max RMSD: 0.237
# Mean RMSD: 0.171
data_MOF--net-anh--node1-BETFEN_clean_sbu_0--node2-ESEHIV_clean_linker_0--edge1-CIFDUS_clean_linker_0
_symmetry_space_group_name_H-M    P1
_symmetry_Int_Tables_number       1
_symmetry_cell_setting            triclinic
loop_
_symmetry_equiv_pos_as_xyz
'x, y, z'
_cell_length_a     23.919838
_cell_length_b     24.825687
_cell_length_c     45.577806
_cell_angle_alpha  91.371821
_cell_angle_beta   91.43698
_cell_angle_gamma 100.42376
loop_
_atom_site_label
_atom_site_type_symbol
_atom_site_fract_x
_atom_site_fract_y
_atom_site_fract_z
_atom_type_partial_charge
Pr0 Pr 1.03457 0.55333 0.14396 0.0
Pr1 Pr 0.0791 0.67433 0.13775 0.0
C2 C 1.00163 0.44819 0.1573 0.0
C3 C 0.94581 0.41316 0.15931 0.0
C4 C 0.93836 0.35842 0.14962 0.0
C5 C 0.886 0.32405 0.1524 0.0
C6 C 0.84053 0.34396 0.16514 0.0
C7 C 0.84714 0.39971 0.17327 0.0
C8 C 0.89946 0.4342 0.17026 0.0
C9 C 1.03919 0.58843 0.08632 0.0
C10 C 0.93903 0.6298 0.13627 0.0
C11 C 0.12393 0.77211 0.11694 0.0
C12 C 0.17148 0.81327 0.12876 0.0
C13 C 0.17937 0.82212 0.15922 0.0
C14 C 0.22841 0.85543 0.17079 0.0
C15 C 0.2706 0.88066 0.15214 0.0
C16 C 0.26263 0.87189 0.1216 0.0
C17 C 0.21337 0.83834 0.11001 0.0
C18 C 0.06791 0.65965 0.19816 0.0
C19 C 0.17628 0.5969 0.14626 0.0
O20 O 1.01451 0.48752 0.17729 0.0
O21 O 1.01603 0.46335 0.1309 0.0
O22 O 0.07733 0.60148 0.106 0.0
O23 O 0.99547 0.55584 0.09621 0.0
O24 O 0.98114 0.66494 0.12528 0.0
O25 O 0.94942 0.586 0.14964 0.0
O26 O 0.13841 0.72653 0.10764 0.0
O27 O 0.07754 0.76432 0.13217 0.0
O28 O 0.05598 0.62165 0.17888 0.0
O29 O 0.08642 0.70615 0.18643 0.0
O30 O 0.13369 0.5546 0.14634 0.0
O31 O 0.16708 0.64752 0.14471 0.0
H32 H 0.97338 0.34201 0.14047 0.0
H33 H 0.8816 0.28136 0.14555 0.0
H34 H 0.81289 0.41601 0.18329 0.0
H35 H 0.9041 0.47686 0.17722 0.0
H36 H 0.14838 0.80219 0.17423 0.0
H37 H 0.23386 0.86035 0.19443 0.0
H38 H 0.29441 0.89093 0.10672 0.0
H39 H 0.20853 0.83094 0.08648 0.0
Pr40 Pr 0.63527 0.10761 0.51968 0.0
Pr41 Pr 0.51092 1.07769 0.51979 0.0
C42 C 0.74567 0.13327 0.50704 0.0
C43 C 0.7793 0.18434 0.49658 0.0
C44 C 0.83689 0.1995 0.50496 0.0
C45 C 0.86882 0.24827 0.49518 0.0
C46 C 0.84334 0.28243 0.47707 0.0
C47 C 0.78536 0.26816 0.46938 0.0
C48 C 0.7534 0.21956 0.47923 0.0
C49 C 0.59373 0.10451 0.57601 0.0
C50 C 0.56937 0.21404 0.52371 0.0
C51 C 0.39753 1.04998 0.52464 0.0
C52 C 0.359 0.99706 0.51932 0.0
C53 C 0.30294 0.99571 0.50936 0.0
C54 C 0.26803 0.94578 0.50132 0.0
C55 C 0.28882 0.8962 0.50268 0.0
C56 C 0.34479 0.89775 0.51334 0.0
C57 C 0.37944 0.94765 0.5216 0.0
C58 C 0.55506 1.07809 0.46368 0.0
C59 C 0.57986 0.97134 0.52172 0.0
O60 O 0.70715 0.10642 0.48853 0.0
O61 O 0.72751 0.1361 0.53371 0.0
O62 O 0.5762 1.06942 0.55588 0.0
O63 O 0.63521 0.14171 0.5678 0.0
O64 O 0.52353 0.17665 0.5293 0.0
O65 O 0.61633 0.1972 0.51589 0.0
O66 O 0.43313 1.05303 0.5471 0.0
O67 O 0.4212 1.07234 0.5013 0.0
O68 O 0.56962 0.11531 0.48318 0.0
O69 O 0.51795 1.03855 0.47346 0.0
O70 O 0.62576 1.00942 0.51786 0.0
O71 O 0.52993 0.98664 0.52468 0.0
H72 H 0.85726 0.17332 0.51875 0.0
H73 H 0.91372 0.25864 0.50106 0.0
H74 H 0.76526 0.29391 0.45518 0.0
H75 H 0.70866 0.20913 0.47298 0.0
H76 H 0.28651 1.03338 0.50723 0.0
H77 H 0.22489 0.94617 0.49368 0.0
H78 H 0.36264 0.86071 0.51433 0.0
H79 H 0.42272 0.94766 0.52905 0.0
Pr80 Pr 0.54541 0.54974 0.82713 0.0
Pr81 Pr 0.58886 0.65713 0.83019 0.0
C82 C 0.54036 0.44443 0.81799 0.0
C83 C 0.58777 0.41851 0.82788 0.0
C84 C 0.60239 0.41658 0.85798 0.0
C85 C 0.64475 0.38774 0.86678 0.0
C86 C 0.66665 0.35581 0.84553 0.0
C87 C 0.66673 0.3741 0.81648 0.0
C88 C 0.62403 0.40179 0.80725 0.0
C89 C 0.5551 0.58629 0.88566 0.0
C90 C 0.68822 0.58945 0.8303 0.0
C91 C 0.59907 0.76207 0.84441 0.0
C92 C 0.54793 0.78461 0.85028 0.0
C93 C 0.504 0.77838 0.82878 0.0
C94 C 0.45209 0.79224 0.83517 0.0
C95 C 0.44308 0.81388 0.86306 0.0
C96 C 0.48508 0.81535 0.88538 0.0
C97 C 0.53743 0.80131 0.87893 0.0
C98 C 0.58036 0.61982 0.77152 0.0
C99 C 0.44654 0.61595 0.83129 0.0
O100 O 0.5522 0.47851 0.79663 0.0
O101 O 0.51065 0.46229 0.83862 0.0
O102 O 0.59389 0.59682 0.86722 0.0
O103 O 0.50887 0.55793 0.87387 0.0
O104 O 0.67964 0.63927 0.83519 0.0
O105 O 0.64463 0.54929 0.82521 0.0
O106 O 0.60975 0.72689 0.86363 0.0
O107 O 0.60447 0.74583 0.81728 0.0
O108 O 0.54118 0.60912 0.78979 0.0
O109 O 0.62592 0.64919 0.78356 0.0
O110 O 0.45528 0.56991 0.81922 0.0
O111 O 0.4909 0.65267 0.84056 0.0
H112 H 0.57909 0.43413 0.87468 0.0
H113 H 0.64895 0.37936 0.88987 0.0
H114 H 0.68953 0.35629 0.79966 0.0
H115 H 0.61773 0.40772 0.78401 0.0
H116 H 0.50946 0.76293 0.8068 0.0
H117 H 0.42107 0.79076 0.8173 0.0
H118 H 0.4793 0.83219 0.90701 0.0
H119 H 0.56984 0.80384 0.89621 0.0
H120 H 0.49125 1.04689 0.28821 0.0
H121 H 0.65813 0.14588 0.28496 0.0
H122 H 0.55767 0.10453 0.20545 0.0
C123 C 0.52487 1.07031 0.27578 0.0
C124 C 0.51844 1.07254 0.24513 0.0
C125 C 0.57536 0.09638 0.29033 0.0
C126 C 0.61928 0.12491 0.27392 0.0
C127 C 0.61281 0.12811 0.24341 0.0
C128 C 0.56241 0.10211 0.22908 0.0
H129 H 0.58789 0.68628 0.59161 0.0
H130 H 0.57727 0.51259 0.59438 0.0
H131 H 0.54935 0.58744 0.51167 0.0
C132 C 0.58155 0.64695 0.57993 0.0
C133 C 0.56899 0.64441 0.54959 0.0
C134 C 0.58325 0.5998 0.59597 0.0
C135 C 0.57509 0.5484 0.58152 0.0
C136 C 0.56413 0.54213 0.551 0.0
C137 C 0.5592 0.59089 0.53502 0.0
H138 H 0.97138 0.60359 0.90451 0.0
H139 H 0.15246 0.61586 0.91347 0.0
H140 H 0.06978 0.59664 0.82748 0.0
C141 C 1.0124 0.60458 0.8947 0.0
C142 C 1.01481 0.59949 0.86417 0.0
C143 C 0.06162 0.61153 0.91269 0.0
C144 C 0.11431 0.61144 0.89965 0.0
C145 C 0.11809 0.60549 0.86888 0.0
C146 C 0.06778 0.60012 0.85116 0.0
H147 H 0.99335 0.52388 0.3738 0.0
H148 H 0.11821 0.6712 0.37303 0.0
H149 H 0.06178 0.60458 0.45534 0.0
C150 C 1.02254 0.55598 0.38561 0.0
C151 C 1.02544 0.5571 0.41665 0.0
C152 C 0.05551 0.59708 0.36961 0.0
C153 C 0.09113 0.64007 0.38506 0.0
C154 C 0.09171 0.64448 0.41582 0.0
C155 C 0.06003 0.60204 0.43158 0.0
H156 H 0.48463 0.17025 0.73057 0.0
H157 H 0.41706 0.99898 0.73818 0.0
H158 H 0.40291 0.11176 0.80899 0.0
C159 C 0.45891 0.13751 0.7422 0.0
C160 C 0.44601 0.14666 0.77144 0.0
C161 C 0.44474 0.08469 0.72922 0.0
C162 C 0.41981 1.0408 0.74633 0.0
C163 C 0.40622 1.0511 0.7755 0.0
C164 C 0.41164 0.10507 0.78604 0.0
H165 H 0.45493 0.59841 0.06819 0.0
H166 H 0.63722 0.62081 0.06313 0.0
H167 H 0.55885 0.61412 0.14718 0.0
C168 C 0.4969 0.60423 0.07853 0.0
C169 C 0.50118 0.6072 0.10933 0.0
C170 C 0.54552 0.60996 0.06126 0.0
C171 C 0.59909 0.61604 0.07578 0.0
C172 C 0.60466 0.61591 0.10662 0.0
C173 C 0.55525 0.61237 0.12342 0.0
H174 H 0.27574 0.67059 0.15599 0.0
H175 H 0.21139 0.50114 0.13179 0.0
H176 H 0.30751 0.48747 0.12141 0.0
H177 H 0.40869 0.52618 0.11383 0.0
H178 H 0.47389 0.69439 0.1392 0.0
H179 H 0.37925 0.70589 0.15476 0.0
C180 C 0.2828 0.63041 0.1489 0.0
C181 C 0.23593 0.5871 0.14448 0.0
C182 C 0.33858 0.62263 0.14308 0.0
C183 C 0.24628 0.53528 0.13545 0.0
C184 C 0.3014 0.52743 0.12935 0.0
C185 C 0.40239 0.56479 0.12364 0.0
C186 C 0.44833 0.60925 0.12565 0.0
C187 C 0.34771 0.57108 0.13241 0.0
C188 C 0.43948 0.65935 0.13794 0.0
C189 C 0.38517 0.66606 0.14651 0.0
H190 H 0.87118 0.3884 0.49731 0.0
H191 H 0.89367 0.27917 0.42546 0.0
H192 H 0.95399 0.35401 0.40109 0.0
H193 H 1.00113 0.44905 0.40059 0.0
H194 H 0.97339 0.56194 0.47004 0.0
H195 H 0.91655 0.48675 0.49566 0.0
C196 C 0.88951 0.38145 0.47633 0.0
C197 C 0.87873 0.3288 0.46306 0.0
C198 C 0.92376 0.42491 0.46233 0.0
C199 C 0.90202 0.31961 0.43591 0.0
C200 C 0.93641 0.36225 0.42207 0.0
C201 C 0.98189 0.45783 0.42103 0.0
C202 C 0.9915 0.51156 0.43305 0.0
C203 C 0.94759 0.41496 0.43508 0.0
C204 C 0.9676 0.52111 0.46023 0.0
C205 C 0.93447 0.47814 0.47482 0.0
H206 H 0.4709 0.91783 0.8805 0.0
H207 H 0.32888 0.79999 0.8459 0.0
H208 H 0.30075 0.86932 0.81404 0.0
H209 H 0.33289 0.95553 0.78702 0.0
H210 H 0.49203 1.05818 0.81452 0.0
H211 H 0.5007 1.00115 0.85611 0.0
C212 C 0.43233 0.90773 0.86688 0.0
C213 C 0.40405 0.85335 0.86406 0.0
C214 C 0.42253 0.94425 0.84554 0.0
C215 C 0.35241 0.84161 0.84767 0.0
C216 C 0.33768 0.88059 0.82864 0.0
C217 C 0.36917 0.9649 0.8022 0.0
C218 C 0.41127 1.01101 0.79812 0.0
C219 C 0.37531 0.93043 0.82565 0.0
C220 C 0.45876 1.02298 0.81761 0.0
C221 C 0.46351 0.99089 0.84156 0.0
H222 H 0.84027 0.57062 0.15797 0.0
H223 H 0.90199 0.70755 0.10354 0.0
H224 H 0.80483 0.71858 0.09227 0.0
H225 H 0.70213 0.68626 0.09486 0.0
H226 H 0.63816 0.54949 0.14852 0.0
H227 H 0.7358 0.54257 0.16368 0.0
C228 C 0.83253 0.60315 0.14382 0.0
C229 C 0.87899 0.63792 0.13147 0.0
C230 C 0.77589 0.60953 0.13735 0.0
C231 C 0.86764 0.67999 0.11334 0.0
C232 C 0.81184 0.68641 0.10683 0.0
C233 C 0.70948 0.65525 0.11013 0.0
C234 C 0.66273 0.61815 0.1203 0.0
C235 C 0.76566 0.65099 0.1183 0.0
C236 C 0.67316 0.57878 0.14044 0.0
C237 C 0.72913 0.57448 0.14887 0.0
H238 H 0.21683 0.88117 0.45508 0.0
H239 H 0.28174 0.79267 0.52468 0.0
H240 H 0.22601 0.70668 0.50457 0.0
H241 H 0.15974 0.65632 0.46616 0.0
H242 H 0.0921 0.74832 0.3989 0.0
H243 H 0.14716 0.8331 0.41955 0.0
C244 C 0.21806 0.84339 0.46633 0.0
C245 C 0.25335 0.84374 0.49147 0.0
C246 C 0.18542 0.79442 0.45497 0.0
C247 C 0.25544 0.79376 0.5051 0.0
C248 C 0.22329 0.74452 0.49371 0.0
C249 C 0.15666 0.69501 0.45628 0.0
C250 C 0.12268 0.69569 0.43063 0.0
C251 C 0.18824 0.74429 0.46851 0.0
C252 C 0.11907 0.7463 0.41815 0.0
C253 C 0.15031 0.79498 0.43003 0.0
H254 H 0.57367 0.29852 0.87178 0.0
H255 H 0.71885 0.27302 0.82285 0.0
H256 H 0.65756 0.20345 0.79189 0.0
H257 H 0.56074 0.16829 0.77165 0.0
H258 H 0.416 0.21233 0.81478 0.0
H259 H 0.47899 0.26238 0.85319 0.0
C260 C 0.59262 0.27731 0.85466 0.0
C261 C 0.64983 0.29533 0.84744 0.0
C262 C 0.55623 0.2448 0.83428 0.0
C263 C 0.6742 0.26225 0.82778 0.0
C264 C 0.6388 0.2242 0.80925 0.0
C265 C 0.54308 0.19023 0.78896 0.0
C266 C 0.48387 0.18797 0.79001 0.0
C267 C 0.57946 0.21905 0.81078 0.0
C268 C 0.4615 0.21471 0.81323 0.0
C269 C 0.49731 0.24219 0.83545 0.0
H270 H 0.49827 0.87348 0.51481 0.0
H271 H 0.67624 0.93142 0.53568 0.0
H272 H 0.68963 0.83762 0.54322 0.0
H273 H 0.65094 0.73818 0.54692 0.0
H274 H 0.47491 0.67744 0.52393 0.0
H275 H 0.46135 0.77125 0.51386 0.0
C276 C 0.54016 0.86574 0.52082 0.0
C277 C 0.58612 0.91115 0.52473 0.0
C278 C 0.54824 0.81021 0.52459 0.0
C279 C 0.63981 0.89871 0.53236 0.0
C280 C 0.64764 0.84446 0.53675 0.0
C281 C 0.60986 0.74499 0.53883 0.0
C282 C 0.56434 0.69926 0.53567 0.0
C283 C 0.60229 0.79971 0.53316 0.0
C284 C 0.51133 0.71045 0.52586 0.0
C285 C 0.50337 0.76474 0.5205 0.0
H286 H 0.78623 0.65547 0.81538 0.0
H287 H 0.72112 0.4976 0.85063 0.0
H288 H 0.81815 0.48292 0.86059 0.0
H289 H 0.92118 0.51986 0.86432 0.0
H290 H 0.98667 0.67637 0.82793 0.0
H291 H 0.89018 0.68624 0.81251 0.0
C292 C 0.79346 0.61756 0.82484 0.0
C293 C 0.74671 0.5779 0.83257 0.0
C294 C 0.84945 0.60908 0.83008 0.0
C295 C 0.75645 0.52866 0.84448 0.0
C296 C 0.81193 0.52034 0.85025 0.0
C297 C 0.91434 0.55515 0.85206 0.0
C298 C 0.96085 0.59716 0.84699 0.0
C299 C 0.85871 0.56078 0.84372 0.0
C300 C 0.95162 0.64316 0.83156 0.0
C301 C 0.89637 0.64911 0.82316 0.0
H302 H 0.27738 0.95551 0.19676 0.0
H303 H 0.38067 0.88395 0.13601 0.0
H304 H 0.46666 0.93928 0.15863 0.0
H305 H 0.51234 1.00495 0.19716 0.0
H306 H 0.40861 1.07311 0.25902 0.0
H307 H 0.32258 1.02112 0.23479 0.0
C308 C 0.31873 0.95175 0.18858 0.0
C309 C 0.3227 0.91566 0.16482 0.0
C310 C 0.36775 0.98273 0.20199 0.0
C311 C 0.37648 0.91196 0.15407 0.0
C312 C 0.42563 0.94325 0.16712 0.0
C313 C 0.4708 1.00876 0.20509 0.0
C314 C 0.46654 1.04264 0.22979 0.0
C315 C 0.42172 0.97844 0.19123 0.0
C316 C 0.41271 1.04682 0.24018 0.0
C317 C 0.36366 1.01732 0.2263 0.0
H318 H 0.48916 0.28529 0.51318 0.0
H319 H 0.66011 0.28538 0.54582 0.0
H320 H 0.67497 0.38397 0.55434 0.0
H321 H 0.64042 0.47173 0.55459 0.0
H322 H 0.47226 0.47706 0.52057 0.0
H323 H 0.45631 0.37741 0.51019 0.0
C324 C 0.52957 0.30673 0.52229 0.0
C325 C 0.57322 0.27606 0.52908 0.0
C326 C 0.53891 0.36559 0.52664 0.0
C327 C 0.62538 0.30629 0.54035 0.0
C328 C 0.63416 0.3634 0.54525 0.0
C329 C 0.60051 0.45154 0.5443 0.0
C330 C 0.55803 0.48341 0.53812 0.0
C331 C 0.5915 0.39373 0.53858 0.0
C332 C 0.50652 0.45505 0.52512 0.0
C333 C 0.4971 0.39737 0.51954 0.0
H334 H 0.34361 0.5555 0.81147 0.0
H335 H 0.41702 0.69363 0.86785 0.0
H336 H 0.32269 0.70523 0.88247 0.0
H337 H 0.21936 0.67314 0.88188 0.0
H338 H 0.14438 0.53413 0.82666 0.0
H339 H 0.23854 0.52609 0.80898 0.0
C340 C 0.33892 0.5884 0.82677 0.0
C341 C 0.38781 0.62406 0.83822 0.0
C342 C 0.28398 0.59446 0.83553 0.0
C343 C 0.38055 0.66627 0.85813 0.0
C344 C 0.32641 0.67265 0.86678 0.0
C345 C 0.22354 0.64113 0.86591 0.0
C346 C 0.17469 0.60405 0.85583 0.0
C347 C 0.27787 0.63658 0.85598 0.0
C348 C 0.18103 0.56345 0.83472 0.0
C349 C 0.23503 0.55861 0.82474 0.0
H350 H 0.83954 0.24915 0.192 0.0
H351 H 0.72823 0.35359 0.15868 0.0
H352 H 0.64596 0.2926 0.17811 0.0
H353 H 0.60747 0.21265 0.20765 0.0
H354 H 0.72144 0.11232 0.24255 0.0
H355 H 0.80138 0.16822 0.21882 0.0
C356 C 0.79712 0.25788 0.18833 0.0
C357 C 0.78967 0.30526 0.17372 0.0
C358 C 0.75081 0.22354 0.19994 0.0
C359 C 0.73475 0.31714 0.1699 0.0
C360 C 0.68789 0.28237 0.18097 0.0
C361 C 0.64978 0.20283 0.20958 0.0
C362 C 0.65917 0.15889 0.22673 0.0
C363 C 0.69563 0.23593 0.19646 0.0
C364 C 0.71384 0.14637 0.22952 0.0
C365 C 0.75932 0.17819 0.21601 0.0
H366 H 0.99037 0.6406 0.04403 0.0
H367 H 0.11777 0.54131 0.05921 0.0
H368 H 0.13857 0.54142 0.00683 0.0
H369 H 0.11695 0.56627 0.95637 0.0
H370 H 0.99471 0.67202 0.94193 0.0
H371 H 0.97573 0.67323 -0.00582 0.0
C372 C 1.02267 0.61919 0.0357 0.0
C373 C 0.05207 0.5904 0.05502 0.0
C374 C 1.0353 0.62059 0.00573 0.0
C375 C 0.09451 0.56341 0.04441 0.0
C376 C 0.1064 0.56354 0.01456 0.0
C377 C 0.08697 0.59042 0.96469 0.0
C378 C 0.05651 0.61802 0.94506 0.0
C379 C 0.07674 0.59166 -0.00506 0.0
C380 C 1.01768 0.64906 0.95637 0.0
C381 C 1.00687 0.65001 0.98631 0.0
H382 H 0.63756 1.07214 0.42458 0.0
H383 H 0.46928 0.10857 0.43315 0.0
H384 H 0.46091 0.11889 0.38006 0.0
H385 H 0.49963 0.11326 0.33111 0.0
H386 H 0.66711 1.07478 0.32179 0.0
H387 H 0.678 1.06976 0.37513 0.0
C388 C 0.59956 0.08302 0.41468 0.0
C389 C 0.55412 0.08986 0.43237 0.0
C390 C 0.59478 0.08802 0.38408 0.0
C391 C 0.5047 0.10342 0.41965 0.0
C392 C 0.49985 0.10907 0.38939 0.0
C393 C 0.53836 0.1035 0.34079 0.0
C394 C 0.58228 0.094 0.32263 0.0
C395 C 0.54421 0.10057 0.37136 0.0
C396 C 0.63275 0.08245 0.33541 0.0
C397 C 0.63895 1.07944 0.36587 0.0
H398 H 0.65494 0.6551 0.72919 0.0
H399 H 0.4891 0.55794 0.74167 0.0
H400 H 0.47661 0.5404 0.68852 0.0
H401 H 0.51199 0.55522 0.63812 0.0
H402 H 0.67558 0.65658 0.62603 0.0
H403 H 0.69016 0.66964 0.6793 0.0
C404 C 0.61609 0.62995 0.72031 0.0
C405 C 0.57296 0.60798 0.73939 0.0
C406 C 0.60894 0.62073 0.68974 0.0
C407 C 0.52289 0.57549 0.72748 0.0
C408 C 0.51576 0.56542 0.69708 0.0
C409 C 0.55095 0.57971 0.64729 0.0
C410 C 0.59286 0.60474 0.62832 0.0
C411 C 0.55836 0.5881 0.67796 0.0
C412 C 0.64287 0.63699 0.64029 0.0
C413 C 0.65112 0.64448 0.6707 0.0
H414 H 0.49121 1.05647 0.59511 0.0
H415 H 0.65791 0.13851 0.62508 0.0
H416 H 0.62795 0.13275 0.67598 0.0
H417 H 0.55225 0.11159 0.71128 0.0
H418 H 0.38303 1.03688 0.68138 0.0
H419 H 0.41562 1.03252 0.63085 0.0
C420 C 0.52076 1.07295 0.61283 0.0
C421 C 0.57625 0.0985 0.60654 0.0
C422 C 0.50261 1.07111 0.64185 0.0
C423 C 0.61465 0.11945 0.62954 0.0
C424 C 0.59762 0.11603 0.65856 0.0
C425 C 0.52271 0.09403 0.69366 0.0
C426 C 0.46536 1.075 0.6997 0.0
C427 C 0.54139 0.09312 0.66487 0.0
C428 C 0.42742 1.05153 0.67701 0.0
C429 C 0.44597 1.0494 0.64823 0.0
H430 H 0.48383 0.61767 0.92495 0.0
H431 H 0.64697 0.56885 0.91797 0.0
H432 H 0.65769 0.56979 0.97164 0.0
H433 H 0.61794 0.57935 0.02006 0.0
H434 H 0.46169 0.64322 0.02682 0.0
H435 H 0.45024 0.63948 0.97383 0.0
C436 C 0.52191 0.60777 0.9353 0.0
C437 C 0.56441 0.59285 0.91775 0.0
C438 C 0.52848 0.60999 0.96609 0.0
C439 C 0.61387 0.58066 0.93117 0.0
C440 C 0.61979 0.58088 0.96181 0.0
C441 C 0.58193 0.59392 0.01032 0.0
C442 C 0.54029 0.61044 0.02826 0.0
C443 C 0.57704 0.59495 0.97951 0.0
C444 C 0.4936 0.62795 0.01429 0.0
C445 C 0.48726 0.62672 0.9837 0.0
H446 H 0.05113 0.56562 0.23045 0.0
H447 H 0.07135 0.74184 0.23798 0.0
H448 H 0.06548 0.73732 0.291 0.0
H449 H 0.05682 0.68488 0.33523 0.0
H450 H 0.04421 0.50932 0.33004 0.0
H451 H 0.04285 0.51184 0.27629 0.0
C452 C 0.05389 0.60283 0.24378 0.0
C453 C 0.0617 0.65402 0.23025 0.0
C454 C 0.05154 0.60013 0.27468 0.0
C455 C 0.06551 0.70195 0.24778 0.0
C456 C 0.0621 0.69948 0.27816 0.0
C457 C 0.05466 0.64705 0.3225 0.0
C458 C 0.05161 0.59714 0.33685 0.0
C459 C 0.05572 0.64899 0.29183 0.0
C460 C 0.04652 0.54844 0.31969 0.0
C461 C 0.04616 0.5499 0.28891 0.0
loop_
_geom_bond_atom_site_label_1
_geom_bond_atom_site_label_2
_geom_bond_distance
_geom_bond_site_symmetry_2
_ccdc_geom_bond_type
Pr0 C2 2.880 . S
Pr0 O20 2.562 . S
Pr0 O21 2.490 . S
Pr0 O22 2.695 1_655 S
Pr0 O23 2.512 . S
Pr0 O25 2.437 . S
Pr0 O28 2.436 . S
Pr0 O30 2.438 1_655 S
Pr1 C11 2.880 . S
Pr1 O22 2.436 . S
Pr1 O24 2.438 1_455 S
Pr1 O26 2.562 . S
Pr1 O27 2.490 . S
Pr1 O28 2.695 1_455 S
Pr1 O29 2.512 . S
Pr1 O31 2.437 . S
C2 Pr0 2.880 . S
C2 C3 1.491 . S
C2 O20 1.254 . S
C2 O21 1.225 . S
C3 C2 1.491 . S
C3 C4 1.392 . S
C3 C8 1.356 . S
C4 C3 1.392 . S
C4 C5 1.368 . S
C4 H32 0.929 . S
C5 C4 1.368 . S
C5 C6 1.386 . S
C5 H33 0.929 . S
C6 C5 1.386 . S
C6 C7 1.373 . S
C7 C6 1.373 . S
C7 C8 1.409 . S
C7 H34 0.931 . S
C8 C3 1.356 . S
C8 C7 1.409 . S
C8 H35 0.930 . S
C9 O22 1.270 . S
C9 O23 1.248 1_455 S
C10 O24 1.267 . S
C10 O25 1.278 . S
C11 Pr1 2.880 . S
C11 C12 1.491 . S
C11 O26 1.254 . S
C11 O27 1.225 . S
C12 C11 1.491 . S
C12 C13 1.392 . S
C12 C17 1.356 . S
C13 C12 1.392 . S
C13 C14 1.368 . S
C13 H36 0.929 . S
C14 C13 1.368 . S
C14 C15 1.386 . S
C14 H37 0.929 . S
C15 C14 1.386 . S
C15 C16 1.373 . S
C16 C15 1.373 . S
C16 C17 1.409 . S
C16 H38 0.931 . S
C17 C12 1.356 . S
C17 C16 1.409 . S
C17 H39 0.930 . S
C18 O28 1.270 1_455 S
C18 O29 1.248 . S
C19 O30 1.267 . S
C19 O31 1.278 . S
O20 Pr0 2.562 . S
O20 C2 1.254 . S
O21 Pr0 2.490 . S
O21 C2 1.225 . S
O22 Pr0 2.695 1_455 S
O22 Pr1 2.436 . S
O22 C9 1.270 . S
O23 Pr0 2.512 . S
O23 C9 1.248 1_655 S
O24 Pr1 2.438 1_655 S
O24 C10 1.267 . S
O25 Pr0 2.437 . S
O25 C10 1.278 . S
O26 Pr1 2.562 . S
O26 C11 1.254 . S
O27 Pr1 2.490 . S
O27 C11 1.225 . S
O28 Pr0 2.436 . S
O28 Pr1 2.695 1_655 S
O28 C18 1.270 1_655 S
O29 Pr1 2.512 . S
O29 C18 1.248 . S
O30 Pr0 2.438 1_455 S
O30 C19 1.267 . S
O31 Pr1 2.437 . S
O31 C19 1.278 . S
H32 C4 0.929 . S
H33 C5 0.929 . S
H34 C7 0.931 . S
H35 C8 0.930 . S
H36 C13 0.929 . S
H37 C14 0.929 . S
H38 C16 0.931 . S
H39 C17 0.930 . S
Pr40 C42 2.880 . S
Pr40 O60 2.562 . S
Pr40 O61 2.490 . S
Pr40 O62 2.695 1_545 S
Pr40 O63 2.512 . S
Pr40 O65 2.437 . S
Pr40 O68 2.436 . S
Pr40 O70 2.438 1_545 S
Pr41 C51 2.880 . S
Pr41 O62 2.436 . S
Pr41 O64 2.438 1_565 S
Pr41 O66 2.562 . S
Pr41 O67 2.490 . S
Pr41 O68 2.695 1_565 S
Pr41 O69 2.512 . S
Pr41 O71 2.437 . S
C42 Pr40 2.880 . S
C42 C43 1.491 . S
C42 O60 1.254 . S
C42 O61 1.225 . S
C43 C42 1.491 . S
C43 C44 1.392 . S
C43 C48 1.356 . S
C44 C43 1.392 . S
C44 C45 1.368 . S
C44 H72 0.929 . S
C45 C44 1.368 . S
C45 C46 1.386 . S
C45 H73 0.929 . S
C46 C45 1.386 . S
C46 C47 1.373 . S
C47 C46 1.373 . S
C47 C48 1.409 . S
C47 H74 0.931 . S
C48 C43 1.356 . S
C48 C47 1.409 . S
C48 H75 0.930 . S
C49 O62 1.270 1_545 S
C49 O63 1.248 . S
C50 O64 1.267 . S
C50 O65 1.278 . S
C51 Pr41 2.880 . S
C51 C52 1.491 . S
C51 O66 1.254 . S
C51 O67 1.225 . S
C52 C51 1.491 . S
C52 C53 1.392 . S
C52 C57 1.356 . S
C53 C52 1.392 . S
C53 C54 1.368 . S
C53 H76 0.929 . S
C54 C53 1.368 . S
C54 C55 1.386 . S
C54 H77 0.929 . S
C55 C54 1.386 . S
C55 C56 1.373 . S
C56 C55 1.373 . S
C56 C57 1.409 . S
C56 H78 0.931 . S
C57 C52 1.356 . S
C57 C56 1.409 . S
C57 H79 0.930 . S
C58 O68 1.270 . S
C58 O69 1.248 1_545 S
C59 O70 1.267 . S
C59 O71 1.278 . S
O60 Pr40 2.562 . S
O60 C42 1.254 . S
O61 Pr40 2.490 . S
O61 C42 1.225 . S
O62 Pr40 2.695 1_565 S
O62 Pr41 2.436 . S
O62 C49 1.270 1_565 S
O63 Pr40 2.512 . S
O63 C49 1.248 . S
O64 Pr41 2.438 1_545 S
O64 C50 1.267 . S
O65 Pr40 2.437 . S
O65 C50 1.278 . S
O66 Pr41 2.562 . S
O66 C51 1.254 . S
O67 Pr41 2.490 . S
O67 C51 1.225 . S
O68 Pr40 2.436 . S
O68 Pr41 2.695 1_545 S
O68 C58 1.270 . S
O69 Pr41 2.512 . S
O69 C58 1.248 1_565 S
O70 Pr40 2.438 1_565 S
O70 C59 1.267 . S
O71 Pr41 2.437 . S
O71 C59 1.278 . S
H72 C44 0.929 . S
H73 C45 0.929 . S
H74 C47 0.931 . S
H75 C48 0.930 . S
H76 C53 0.929 . S
H77 C54 0.929 . S
H78 C56 0.931 . S
H79 C57 0.930 . S
Pr80 C82 2.880 . S
Pr80 O100 2.562 . S
Pr80 O101 2.490 . S
Pr80 O102 2.695 . S
Pr80 O103 2.512 . S
Pr80 O105 2.437 . S
Pr80 O108 2.436 . S
Pr80 O110 2.438 . S
Pr81 C91 2.880 . S
Pr81 O102 2.436 . S
Pr81 O104 2.438 . S
Pr81 O106 2.562 . S
Pr81 O107 2.490 . S
Pr81 O108 2.695 . S
Pr81 O109 2.512 . S
Pr81 O111 2.437 . S
C82 Pr80 2.880 . S
C82 C83 1.491 . S
C82 O100 1.254 . S
C82 O101 1.225 . S
C83 C82 1.491 . S
C83 C84 1.392 . S
C83 C88 1.356 . S
C84 C83 1.392 . S
C84 C85 1.368 . S
C84 H112 0.929 . S
C85 C84 1.368 . S
C85 C86 1.386 . S
C85 H113 0.929 . S
C86 C85 1.386 . S
C86 C87 1.373 . S
C87 C86 1.373 . S
C87 C88 1.409 . S
C87 H114 0.931 . S
C88 C83 1.356 . S
C88 C87 1.409 . S
C88 H115 0.930 . S
C89 O102 1.270 . S
C89 O103 1.248 . S
C90 O104 1.267 . S
C90 O105 1.278 . S
C91 Pr81 2.880 . S
C91 C92 1.491 . S
C91 O106 1.254 . S
C91 O107 1.225 . S
C92 C91 1.491 . S
C92 C93 1.392 . S
C92 C97 1.356 . S
C93 C92 1.392 . S
C93 C94 1.368 . S
C93 H116 0.929 . S
C94 C93 1.368 . S
C94 C95 1.386 . S
C94 H117 0.929 . S
C95 C94 1.386 . S
C95 C96 1.373 . S
C96 C95 1.373 . S
C96 C97 1.409 . S
C96 H118 0.931 . S
C97 C92 1.356 . S
C97 C96 1.409 . S
C97 H119 0.930 . S
C98 O108 1.270 . S
C98 O109 1.248 . S
C99 O110 1.267 . S
C99 O111 1.278 . S
O100 Pr80 2.562 . S
O100 C82 1.254 . S
O101 Pr80 2.490 . S
O101 C82 1.225 . S
O102 Pr80 2.695 . S
O102 Pr81 2.436 . S
O102 C89 1.270 . S
O103 Pr80 2.512 . S
O103 C89 1.248 . S
O104 Pr81 2.438 . S
O104 C90 1.267 . S
O105 Pr80 2.437 . S
O105 C90 1.278 . S
O106 Pr81 2.562 . S
O106 C91 1.254 . S
O107 Pr81 2.490 . S
O107 C91 1.225 . S
O108 Pr80 2.436 . S
O108 Pr81 2.695 . S
O108 C98 1.270 . S
O109 Pr81 2.512 . S
O109 C98 1.248 . S
O110 Pr80 2.438 . S
O110 C99 1.267 . S
O111 Pr81 2.437 . S
O111 C99 1.278 . S
H112 C84 0.929 . S
H113 C85 0.929 . S
H114 C87 0.931 . S
H115 C88 0.930 . S
H116 C93 0.929 . S
H117 C94 0.929 . S
H118 C96 0.931 . S
H119 C97 0.930 . S
H120 C123 0.931 . S
H121 C126 0.928 . S
H122 C128 0.930 . S
C123 H120 0.931 . S
C123 C124 1.413 . S
C123 C125 1.360 1_565 S
C124 C123 1.413 . S
C124 C128 1.429 1_565 S
C125 C123 1.360 1_545 S
C125 C126 1.372 . S
C126 H121 0.928 . S
C126 C125 1.372 . S
C126 C127 1.404 . S
C127 C126 1.404 . S
C127 C128 1.391 . S
C128 H122 0.930 . S
C128 C124 1.429 1_545 S
C128 C127 1.391 . S
H129 C132 0.931 . S
H130 C135 0.928 . S
H131 C137 0.930 . S
C132 H129 0.931 . S
C132 C133 1.413 . S
C132 C134 1.360 . S
C133 C132 1.413 . S
C133 C137 1.429 . S
C134 C132 1.360 . S
C134 C135 1.372 . S
C135 H130 0.928 . S
C135 C134 1.372 . S
C135 C136 1.404 . S
C136 C135 1.404 . S
C136 C137 1.391 . S
C137 H131 0.930 . S
C137 C133 1.429 . S
C137 C136 1.391 . S
H138 C141 0.931 . S
H139 C144 0.928 . S
H140 C146 0.930 . S
C141 H138 0.931 . S
C141 C142 1.413 . S
C141 C143 1.360 1_655 S
C142 C141 1.413 . S
C142 C146 1.429 1_655 S
C143 C141 1.360 1_455 S
C143 C144 1.372 . S
C144 H139 0.928 . S
C144 C143 1.372 . S
C144 C145 1.404 . S
C145 C144 1.404 . S
C145 C146 1.391 . S
C146 H140 0.930 . S
C146 C142 1.429 1_455 S
C146 C145 1.391 . S
H147 C150 0.931 . S
H148 C153 0.928 . S
H149 C155 0.930 . S
C150 H147 0.931 . S
C150 C151 1.413 . S
C150 C152 1.367 . S
C151 C150 1.413 . S
C151 C155 1.429 1_655 S
C152 C150 1.367 . S
C152 C153 1.364 1_655 S
C153 H148 0.928 . S
C153 C152 1.364 1_455 S
C153 C154 1.404 . S
C154 C153 1.404 . S
C154 C155 1.391 . S
C155 H149 0.930 . S
C155 C151 1.429 1_455 S
C155 C154 1.391 . S
H156 C159 0.931 . S
H157 C162 0.928 . S
H158 C164 0.930 . S
C159 H156 0.931 . S
C159 C160 1.413 . S
C159 C161 1.360 . S
C160 C159 1.413 . S
C160 C164 1.429 . S
C161 C159 1.360 . S
C161 C162 1.372 1_545 S
C162 H157 0.928 . S
C162 C161 1.372 1_565 S
C162 C163 1.404 . S
C163 C162 1.404 . S
C163 C164 1.391 1_565 S
C164 H158 0.930 . S
C164 C160 1.429 . S
C164 C163 1.391 1_545 S
H165 C168 0.931 . S
H166 C171 0.928 . S
H167 C173 0.930 . S
C168 H165 0.931 . S
C168 C169 1.413 . S
C168 C170 1.360 . S
C169 C168 1.413 . S
C169 C173 1.429 . S
C170 C168 1.360 . S
C170 C171 1.372 . S
C171 H166 0.928 . S
C171 C170 1.372 . S
C171 C172 1.404 . S
C172 C171 1.404 . S
C172 C173 1.391 . S
C173 H167 0.930 . S
C173 C169 1.429 . S
C173 C172 1.391 . S
H174 C180 0.930 . S
H175 C183 0.930 . S
H176 C184 0.930 . S
H177 C185 0.930 . S
H178 C188 0.930 . S
H179 C189 0.930 . S
C180 H174 0.930 . S
C180 C181 1.355 . S
C180 C182 1.415 . S
C181 C180 1.355 . S
C181 C183 1.419 . S
C182 C180 1.415 . S
C182 C187 1.425 . S
C182 C189 1.409 . S
C183 H175 0.930 . S
C183 C181 1.419 . S
C183 C184 1.362 . S
C184 H176 0.930 . S
C184 C183 1.362 . S
C184 C187 1.409 . S
C185 H177 0.930 . S
C185 C186 1.355 . S
C185 C187 1.415 . S
C186 C185 1.355 . S
C186 C188 1.419 . S
C187 C182 1.425 . S
C187 C184 1.409 . S
C187 C185 1.415 . S
C188 H178 0.930 . S
C188 C186 1.419 . S
C188 C189 1.362 . S
C189 H179 0.930 . S
C189 C182 1.409 . S
C189 C188 1.362 . S
H190 C196 0.930 . S
H191 C199 0.930 . S
H192 C200 0.930 . S
H193 C201 0.930 . S
H194 C204 0.930 . S
H195 C205 0.930 . S
C196 H190 0.930 . S
C196 C197 1.355 . S
C196 C198 1.415 . S
C197 C196 1.355 . S
C197 C199 1.419 . S
C198 C196 1.415 . S
C198 C203 1.425 . S
C198 C205 1.409 . S
C199 H191 0.930 . S
C199 C197 1.419 . S
C199 C200 1.362 . S
C200 H192 0.930 . S
C200 C199 1.362 . S
C200 C203 1.409 . S
C201 H193 0.930 . S
C201 C202 1.355 . S
C201 C203 1.415 . S
C202 C201 1.355 . S
C202 C204 1.419 . S
C203 C198 1.425 . S
C203 C200 1.409 . S
C203 C201 1.415 . S
C204 H194 0.930 . S
C204 C202 1.419 . S
C204 C205 1.362 . S
C205 H195 0.930 . S
C205 C198 1.409 . S
C205 C204 1.362 . S
H206 C212 0.930 . S
H207 C215 0.930 . S
H208 C216 0.930 . S
H209 C217 0.930 . S
H210 C220 0.930 . S
H211 C221 0.930 . S
C212 H206 0.930 . S
C212 C213 1.355 . S
C212 C214 1.415 . S
C213 C212 1.355 . S
C213 C215 1.419 . S
C214 C212 1.415 . S
C214 C219 1.425 . S
C214 C221 1.409 . S
C215 H207 0.930 . S
C215 C213 1.419 . S
C215 C216 1.362 . S
C216 H208 0.930 . S
C216 C215 1.362 . S
C216 C219 1.409 . S
C217 H209 0.930 . S
C217 C218 1.355 . S
C217 C219 1.415 . S
C218 C217 1.355 . S
C218 C220 1.419 . S
C219 C214 1.425 . S
C219 C216 1.409 . S
C219 C217 1.415 . S
C220 H210 0.930 . S
C220 C218 1.419 . S
C220 C221 1.362 . S
C221 H211 0.930 . S
C221 C214 1.409 . S
C221 C220 1.362 . S
H222 C228 0.930 . S
H223 C231 0.930 . S
H224 C232 0.930 . S
H225 C233 0.930 . S
H226 C236 0.930 . S
H227 C237 0.930 . S
C228 H222 0.930 . S
C228 C229 1.355 . S
C228 C230 1.415 . S
C229 C228 1.355 . S
C229 C231 1.419 . S
C230 C228 1.415 . S
C230 C235 1.425 . S
C230 C237 1.409 . S
C231 H223 0.930 . S
C231 C229 1.419 . S
C231 C232 1.362 . S
C232 H224 0.930 . S
C232 C231 1.362 . S
C232 C235 1.409 . S
C233 H225 0.930 . S
C233 C234 1.355 . S
C233 C235 1.415 . S
C234 C233 1.355 . S
C234 C236 1.419 . S
C235 C230 1.425 . S
C235 C232 1.409 . S
C235 C233 1.415 . S
C236 H226 0.930 . S
C236 C234 1.419 . S
C236 C237 1.362 . S
C237 H227 0.930 . S
C237 C230 1.409 . S
C237 C236 1.362 . S
H238 C244 0.930 . S
H239 C247 0.930 . S
H240 C248 0.930 . S
H241 C249 0.930 . S
H242 C252 0.930 . S
H243 C253 0.930 . S
C244 H238 0.930 . S
C244 C245 1.355 . S
C244 C246 1.415 . S
C245 C244 1.355 . S
C245 C247 1.419 . S
C246 C244 1.415 . S
C246 C251 1.425 . S
C246 C253 1.409 . S
C247 H239 0.930 . S
C247 C245 1.419 . S
C247 C248 1.362 . S
C248 H240 0.930 . S
C248 C247 1.362 . S
C248 C251 1.409 . S
C249 H241 0.930 . S
C249 C250 1.355 . S
C249 C251 1.415 . S
C250 C249 1.355 . S
C250 C252 1.419 . S
C251 C246 1.425 . S
C251 C248 1.409 . S
C251 C249 1.415 . S
C252 H242 0.930 . S
C252 C250 1.419 . S
C252 C253 1.362 . S
C253 H243 0.930 . S
C253 C246 1.409 . S
C253 C252 1.362 . S
H254 C260 0.930 . S
H255 C263 0.930 . S
H256 C264 0.930 . S
H257 C265 0.930 . S
H258 C268 0.930 . S
H259 C269 0.930 . S
C260 H254 0.930 . S
C260 C261 1.355 . S
C260 C262 1.415 . S
C261 C260 1.355 . S
C261 C263 1.419 . S
C262 C260 1.415 . S
C262 C267 1.425 . S
C262 C269 1.409 . S
C263 H255 0.930 . S
C263 C261 1.419 . S
C263 C264 1.362 . S
C264 H256 0.930 . S
C264 C263 1.362 . S
C264 C267 1.409 . S
C265 H257 0.930 . S
C265 C266 1.355 . S
C265 C267 1.415 . S
C266 C265 1.355 . S
C266 C268 1.419 . S
C267 C262 1.425 . S
C267 C264 1.409 . S
C267 C265 1.415 . S
C268 H258 0.930 . S
C268 C266 1.419 . S
C268 C269 1.362 . S
C269 H259 0.930 . S
C269 C262 1.409 . S
C269 C268 1.362 . S
H270 C276 0.930 . S
H271 C279 0.930 . S
H272 C280 0.930 . S
H273 C281 0.930 . S
H274 C284 0.930 . S
H275 C285 0.930 . S
C276 H270 0.930 . S
C276 C277 1.355 . S
C276 C278 1.415 . S
C277 C276 1.355 . S
C277 C279 1.419 . S
C278 C276 1.415 . S
C278 C283 1.425 . S
C278 C285 1.409 . S
C279 H271 0.930 . S
C279 C277 1.419 . S
C279 C280 1.362 . S
C280 H272 0.930 . S
C280 C279 1.362 . S
C280 C283 1.409 . S
C281 H273 0.930 . S
C281 C282 1.355 . S
C281 C283 1.415 . S
C282 C281 1.355 . S
C282 C284 1.419 . S
C283 C278 1.425 . S
C283 C280 1.409 . S
C283 C281 1.415 . S
C284 H274 0.930 . S
C284 C282 1.419 . S
C284 C285 1.362 . S
C285 H275 0.930 . S
C285 C278 1.409 . S
C285 C284 1.362 . S
H286 C292 0.930 . S
H287 C295 0.930 . S
H288 C296 0.930 . S
H289 C297 0.930 . S
H290 C300 0.930 . S
H291 C301 0.930 . S
C292 H286 0.930 . S
C292 C293 1.355 . S
C292 C294 1.415 . S
C293 C292 1.355 . S
C293 C295 1.419 . S
C294 C292 1.415 . S
C294 C299 1.425 . S
C294 C301 1.409 . S
C295 H287 0.930 . S
C295 C293 1.419 . S
C295 C296 1.362 . S
C296 H288 0.930 . S
C296 C295 1.362 . S
C296 C299 1.409 . S
C297 H289 0.930 . S
C297 C298 1.355 . S
C297 C299 1.415 . S
C298 C297 1.355 . S
C298 C300 1.419 . S
C299 C294 1.425 . S
C299 C296 1.409 . S
C299 C297 1.415 . S
C300 H290 0.930 . S
C300 C298 1.419 . S
C300 C301 1.362 . S
C301 H291 0.930 . S
C301 C294 1.409 . S
C301 C300 1.362 . S
H302 C308 0.930 . S
H303 C311 0.930 . S
H304 C312 0.930 . S
H305 C313 0.930 . S
H306 C316 0.930 . S
H307 C317 0.930 . S
C308 H302 0.930 . S
C308 C309 1.355 . S
C308 C310 1.415 . S
C309 C308 1.355 . S
C309 C311 1.419 . S
C310 C308 1.415 . S
C310 C315 1.425 . S
C310 C317 1.409 . S
C311 H303 0.930 . S
C311 C309 1.419 . S
C311 C312 1.362 . S
C312 H304 0.930 . S
C312 C311 1.362 . S
C312 C315 1.409 . S
C313 H305 0.930 . S
C313 C314 1.355 . S
C313 C315 1.415 . S
C314 C313 1.355 . S
C314 C316 1.419 . S
C315 C310 1.425 . S
C315 C312 1.409 . S
C315 C313 1.415 . S
C316 H306 0.930 . S
C316 C314 1.419 . S
C316 C317 1.362 . S
C317 H307 0.930 . S
C317 C310 1.409 . S
C317 C316 1.362 . S
H318 C324 0.930 . S
H319 C327 0.930 . S
H320 C328 0.930 . S
H321 C329 0.930 . S
H322 C332 0.930 . S
H323 C333 0.930 . S
C324 H318 0.930 . S
C324 C325 1.355 . S
C324 C326 1.415 . S
C325 C324 1.355 . S
C325 C327 1.419 . S
C326 C324 1.415 . S
C326 C331 1.425 . S
C326 C333 1.409 . S
C327 H319 0.930 . S
C327 C325 1.419 . S
C327 C328 1.362 . S
C328 H320 0.930 . S
C328 C327 1.362 . S
C328 C331 1.409 . S
C329 H321 0.930 . S
C329 C330 1.355 . S
C329 C331 1.415 . S
C330 C329 1.355 . S
C330 C332 1.419 . S
C331 C326 1.425 . S
C331 C328 1.409 . S
C331 C329 1.415 . S
C332 H322 0.930 . S
C332 C330 1.419 . S
C332 C333 1.362 . S
C333 H323 0.930 . S
C333 C326 1.409 . S
C333 C332 1.362 . S
H334 C340 0.930 . S
H335 C343 0.930 . S
H336 C344 0.930 . S
H337 C345 0.930 . S
H338 C348 0.930 . S
H339 C349 0.930 . S
C340 H334 0.930 . S
C340 C341 1.355 . S
C340 C342 1.415 . S
C341 C340 1.355 . S
C341 C343 1.419 . S
C342 C340 1.415 . S
C342 C347 1.425 . S
C342 C349 1.409 . S
C343 H335 0.930 . S
C343 C341 1.419 . S
C343 C344 1.362 . S
C344 H336 0.930 . S
C344 C343 1.362 . S
C344 C347 1.409 . S
C345 H337 0.930 . S
C345 C346 1.355 . S
C345 C347 1.415 . S
C346 C345 1.355 . S
C346 C348 1.419 . S
C347 C342 1.425 . S
C347 C344 1.409 . S
C347 C345 1.415 . S
C348 H338 0.930 . S
C348 C346 1.419 . S
C348 C349 1.362 . S
C349 H339 0.930 . S
C349 C342 1.409 . S
C349 C348 1.362 . S
H350 C356 0.930 . S
H351 C359 0.930 . S
H352 C360 0.930 . S
H353 C361 0.930 . S
H354 C364 0.930 . S
H355 C365 0.930 . S
C356 H350 0.930 . S
C356 C357 1.355 . S
C356 C358 1.415 . S
C357 C356 1.355 . S
C357 C359 1.419 . S
C358 C356 1.415 . S
C358 C363 1.425 . S
C358 C365 1.409 . S
C359 H351 0.930 . S
C359 C357 1.419 . S
C359 C360 1.362 . S
C360 H352 0.930 . S
C360 C359 1.362 . S
C360 C363 1.409 . S
C361 H353 0.930 . S
C361 C362 1.355 . S
C361 C363 1.415 . S
C362 C361 1.355 . S
C362 C364 1.419 . S
C363 C358 1.425 . S
C363 C360 1.409 . S
C363 C361 1.415 . S
C364 H354 0.930 . S
C364 C362 1.419 . S
C364 C365 1.362 . S
C365 H355 0.930 . S
C365 C358 1.409 . S
C365 C364 1.362 . S
H366 C372 0.930 . S
H367 C375 0.930 . S
H368 C376 0.930 . S
H369 C377 0.930 . S
H370 C380 0.930 . S
H371 C381 0.930 . S
C372 H366 0.930 . S
C372 C373 1.355 1_655 S
C372 C374 1.418 . S
C373 C372 1.355 1_455 S
C373 C375 1.419 . S
C374 C372 1.418 . S
C374 C379 1.413 1_655 S
C374 C381 1.418 1_554 S
C375 H367 0.930 . S
C375 C373 1.419 . S
C375 C376 1.362 . S
C376 H368 0.930 . S
C376 C375 1.362 . S
C376 C379 1.409 . S
C377 H369 0.930 . S
C377 C378 1.355 . S
C377 C379 1.415 1_556 S
C378 C377 1.355 . S
C378 C380 1.419 1_455 S
C379 C374 1.413 1_455 S
C379 C376 1.409 . S
C379 C377 1.415 1_554 S
C380 H370 0.930 . S
C380 C378 1.419 1_655 S
C380 C381 1.362 . S
C381 H371 0.930 . S
C381 C374 1.418 1_556 S
C381 C380 1.362 . S
H382 C388 0.930 1_565 S
H383 C391 0.930 . S
H384 C392 0.930 . S
H385 C393 0.930 . S
H386 C396 0.935 . S
H387 C397 0.930 . S
C388 H382 0.930 1_545 S
C388 C389 1.355 . S
C388 C390 1.415 . S
C389 C388 1.355 . S
C389 C391 1.419 . S
C390 C388 1.415 . S
C390 C395 1.425 . S
C390 C397 1.409 1_545 S
C391 H383 0.930 . S
C391 C389 1.419 . S
C391 C392 1.362 . S
C392 H384 0.930 . S
C392 C391 1.362 . S
C392 C395 1.409 . S
C393 H385 0.930 . S
C393 C394 1.355 . S
C393 C395 1.415 . S
C394 C393 1.355 . S
C394 C396 1.412 1_545 S
C395 C390 1.425 . S
C395 C392 1.409 . S
C395 C393 1.415 . S
C396 H386 0.935 . S
C396 C394 1.412 1_565 S
C396 C397 1.364 . S
C397 H387 0.930 . S
C397 C390 1.409 1_565 S
C397 C396 1.364 . S
H398 C404 0.930 . S
H399 C407 0.930 . S
H400 C408 0.930 . S
H401 C409 0.930 . S
H402 C412 0.930 . S
H403 C413 0.930 . S
C404 H398 0.930 . S
C404 C405 1.355 . S
C404 C406 1.415 . S
C405 C404 1.355 . S
C405 C407 1.419 . S
C406 C404 1.415 . S
C406 C411 1.425 . S
C406 C413 1.409 . S
C407 H399 0.930 . S
C407 C405 1.419 . S
C407 C408 1.362 . S
C408 H400 0.930 . S
C408 C407 1.362 . S
C408 C411 1.409 . S
C409 H401 0.930 . S
C409 C410 1.355 . S
C409 C411 1.415 . S
C410 C409 1.355 . S
C410 C412 1.419 . S
C411 C406 1.425 . S
C411 C408 1.409 . S
C411 C409 1.415 . S
C412 H402 0.930 . S
C412 C410 1.419 . S
C412 C413 1.362 . S
C413 H403 0.930 . S
C413 C406 1.409 . S
C413 C412 1.362 . S
H414 C420 0.930 . S
H415 C423 0.939 . S
H416 C424 0.930 . S
H417 C425 0.930 . S
H418 C428 0.930 . S
H419 C429 0.930 . S
C420 H414 0.930 . S
C420 C421 1.355 . S
C420 C422 1.415 . S
C421 C420 1.355 . S
C421 C423 1.410 1_545 S
C422 C420 1.415 . S
C422 C427 1.430 . S
C422 C429 1.409 . S
C423 H415 0.939 . S
C423 C421 1.410 1_565 S
C423 C424 1.363 . S
C424 H416 0.930 . S
C424 C423 1.363 . S
C424 C427 1.405 1_565 S
C425 H417 0.930 . S
C425 C426 1.355 1_565 S
C425 C427 1.414 1_565 S
C426 C425 1.355 1_545 S
C426 C428 1.419 . S
C427 C422 1.430 . S
C427 C424 1.405 1_545 S
C427 C425 1.414 1_545 S
C428 H418 0.930 . S
C428 C426 1.419 . S
C428 C429 1.362 . S
C429 H419 0.930 . S
C429 C422 1.409 . S
C429 C428 1.362 . S
H430 C436 0.930 . S
H431 C439 0.930 . S
H432 C440 0.930 . S
H433 C441 0.930 . S
H434 C444 0.930 . S
H435 C445 0.930 1_556 S
C436 H430 0.930 . S
C436 C437 1.355 . S
C436 C438 1.415 . S
C437 C436 1.355 . S
C437 C439 1.419 . S
C438 C436 1.415 . S
C438 C443 1.425 . S
C438 C445 1.409 1_556 S
C439 H431 0.930 . S
C439 C437 1.419 . S
C439 C440 1.362 . S
C440 H432 0.930 . S
C440 C439 1.362 . S
C440 C443 1.409 . S
C441 H433 0.930 . S
C441 C442 1.355 . S
C441 C443 1.415 1_554 S
C442 C441 1.355 . S
C442 C444 1.419 . S
C443 C438 1.425 . S
C443 C440 1.409 . S
C443 C441 1.415 1_556 S
C444 H434 0.930 . S
C444 C442 1.419 . S
C444 C445 1.362 . S
C445 H435 0.930 1_554 S
C445 C438 1.409 1_554 S
C445 C444 1.362 . S
H446 C452 0.930 . S
H447 C455 0.930 . S
H448 C456 0.930 . S
H449 C457 0.930 . S
H450 C460 0.930 . S
H451 C461 0.930 . S
C452 H446 0.930 . S
C452 C453 1.355 1_655 S
C452 C454 1.415 . S
C453 C452 1.355 1_455 S
C453 C455 1.419 . S
C454 C452 1.415 . S
C454 C459 1.425 1_655 S
C454 C461 1.409 . S
C455 H447 0.930 . S
C455 C453 1.419 . S
C455 C456 1.362 . S
C456 H448 0.930 . S
C456 C455 1.362 . S
C456 C459 1.409 . S
C457 H449 0.930 . S
C457 C458 1.355 1_455 S
C457 C459 1.415 . S
C458 C457 1.355 1_655 S
C458 C460 1.419 . S
C459 C454 1.425 1_455 S
C459 C456 1.409 . S
C459 C457 1.415 . S
C460 H450 0.930 . S
C460 C458 1.419 . S
C460 C461 1.362 . S
C461 H451 0.930 . S
C461 C454 1.409 . S
C461 C460 1.362 . S
C181 C19 1.831 . S
C186 C169 1.809 . S
C197 C46 1.395 . S
C202 C151 1.485 . S
C213 C95 0.740 . S
C218 C163 0.744 . S
C229 C10 1.834 . S
C234 C172 1.841 . S
C250 C154 1.451 . S
C245 C55 1.431 . S
C266 C160 0.973 . S
C261 C86 0.930 . S
C277 C59 3.006 . S
C282 C133 2.970 . S
C293 C90 1.900 . S
C298 C142 1.909 . S
C309 C15 1.446 . S
C314 C124 1.492 . S
C330 C136 2.924 . S
C325 C50 2.931 . S
C346 C145 1.836 . S
C341 C99 1.851 . S
C357 C6 1.366 . S
C362 C127 1.388 . S
C378 C143 1.347 . S
C373 C9 1.266 . S
C389 C58 1.412 . S
C394 C125 1.497 . S
C405 C98 1.729 . S
C410 C134 1.794 . S
C426 C161 1.024 . S
C421 C49 0.963 . S
C442 C170 1.334 . S
C437 C89 1.308 . S
C453 C18 1.382 . S
C458 C152 1.465 . S
