# Generated by pormake.
# Topology anh, (6,3)-cn, num edge types: 1
# Building blocks:
#     Node 0, Type 0, BuildingBlock: BETFEN_clean_sbu_0, # of connection points: 6
#     Node 1, Type 0, BuildingBlock: BETFEN_clean_sbu_0, # of connection points: 6
#     Node 2, Type 0, BuildingBlock: BETFEN_clean_sbu_0, # of connection points: 6
#     Node 3, Type 1, BuildingBlock: MIDCAF_clean_linker_0, # of connection points: 3
#     Node 4, Type 1, BuildingBlock: MIDCAF_clean_linker_0, # of connection points: 3
#     Node 5, Type 1, BuildingBlock: MIDCAF_clean_linker_0, # of connection points: 3
#     Node 6, Type 1, BuildingBlock: MIDCAF_clean_linker_0, # of connection points: 3
#     Node 7, Type 1, BuildingBlock: MIDCAF_clean_linker_0, # of connection points: 3
#     Node 8, Type 1, BuildingBlock: MIDCAF_clean_linker_0, # of connection points: 3
#     Edge 9, Type (0, 1), BuildingBlock: OJICUG_clean_linker_0, # of connection points: 2
#     Edge 10, Type (0, 1), BuildingBlock: OJICUG_clean_linker_0, # of connection points: 2
#     Edge 11, Type (0, 1), BuildingBlock: OJICUG_clean_linker_0, # of connection points: 2
#     Edge 12, Type (0, 1), BuildingBlock: OJICUG_clean_linker_0, # of connection points: 2
#     Edge 13, Type (0, 1), BuildingBlock: OJICUG_clean_linker_0, # of connection points: 2
#     Edge 14, Type (0, 1), BuildingBlock: OJICUG_clean_linker_0, # of connection points: 2
#     Edge 15, Type (0, 1), BuildingBlock: OJICUG_clean_linker_0, # of connection points: 2
#     Edge 16, Type (0, 1), BuildingBlock: OJICUG_clean_linker_0, # of connection points: 2
#     Edge 17, Type (0, 1), BuildingBlock: OJICUG_clean_linker_0, # of connection points: 2
#     Edge 18, Type (0, 1), BuildingBlock: OJICUG_clean_linker_0, # of connection points: 2
#     Edge 19, Type (0, 1), BuildingBlock: OJICUG_clean_linker_0, # of connection points: 2
#     Edge 20, Type (0, 1), BuildingBlock: OJICUG_clean_linker_0, # of connection points: 2
#     Edge 21, Type (0, 1), BuildingBlock: OJICUG_clean_linker_0, # of connection points: 2
#     Edge 22, Type (0, 1), BuildingBlock: OJICUG_clean_linker_0, # of connection points: 2
#     Edge 23, Type (0, 1), BuildingBlock: OJICUG_clean_linker_0, # of connection points: 2
#     Edge 24, Type (0, 1), BuildingBlock: OJICUG_clean_linker_0, # of connection points: 2
#     Edge 25, Type (0, 1), BuildingBlock: OJICUG_clean_linker_0, # of connection points: 2
#     Edge 26, Type (0, 1), BuildingBlock: OJICUG_clean_linker_0, # of connection points: 2
# Relax obj value: 0.216
# Max RMSD: 0.224
# Mean RMSD: 0.165
data_MOF--net-anh--node1-BETFEN_clean_sbu_0--node2-MIDCAF_clean_linker_0--edge1-OJICUG_clean_linker_0
_symmetry_space_group_name_H-M    P1
_symmetry_Int_Tables_number       1
_symmetry_cell_setting            triclinic
loop_
_symmetry_equiv_pos_as_xyz
'x, y, z'
_cell_length_a     27.90531
_cell_length_b     29.967102
_cell_length_c     52.359443
_cell_angle_alpha  90.679467
_cell_angle_beta   91.901727
_cell_angle_gamma 103.3606
loop_
_atom_site_label
_atom_site_type_symbol
_atom_site_fract_x
_atom_site_fract_y
_atom_site_fract_z
_atom_type_partial_charge
Pr0 Pr 1.02559 0.52446 0.15284 0.0
Pr1 Pr 0.05107 0.62401 0.14892 0.0
C2 C 0.98343 0.43625 0.16173 0.0
C3 C 0.93231 0.40826 0.16158 0.0
C4 C 0.91023 0.38439 0.1393 0.0
C5 C 0.86256 0.35657 0.13959 0.0
C6 C 0.83616 0.35203 0.16215 0.0
C7 C 0.85777 0.377 0.18417 0.0
C8 C 0.90528 0.40471 0.18389 0.0
C9 C 0.04073 0.55431 0.10301 0.0
C10 C 0.93418 0.58032 0.14882 0.0
C11 C 0.09459 0.71028 0.13672 0.0
C12 C 0.14399 0.73971 0.14247 0.0
C13 C 0.16201 0.74863 0.16783 0.0
C14 C 0.20951 0.77496 0.17302 0.0
C15 C 0.24014 0.79273 0.15301 0.0
C16 C 0.22232 0.78355 0.12763 0.0
C17 C 0.17463 0.75714 0.12241 0.0
C18 C 0.03802 0.59647 0.19938 0.0
C19 C 0.14301 0.56848 0.15371 0.0
O20 O 0.99646 0.46734 0.17996 0.0
O21 O 1.00093 0.45033 0.13966 0.0
O22 O 1.01511 0.57002 0.11868 0.0
O23 O 0.05921 0.52214 0.11274 0.0
O24 O 0.96703 0.61535 0.14028 0.0
O25 O 0.94817 0.54381 0.15741 0.0
O26 O 0.09315 0.67509 0.12149 0.0
O27 O 0.06506 0.70058 0.1558 0.0
O28 O 0.06113 0.57836 0.18338 0.0
O29 O 1.02332 0.631 0.18988 0.0
O30 O 0.11046 0.53186 0.16084 0.0
O31 O 0.12842 0.60526 0.14622 0.0
H32 H 0.93003 0.38658 0.12174 0.0
H33 H 0.84672 0.33796 0.1223 0.0
H34 H 0.83887 0.37362 0.20202 0.0
H35 H 0.92116 0.42256 0.20139 0.0
H36 H 0.13954 0.73524 0.18373 0.0
H37 H 0.22199 0.78206 0.19279 0.0
H38 H 0.24535 0.79655 0.11186 0.0
H39 H 0.16174 0.75008 0.10271 0.0
Pr40 Pr 0.61225 0.06644 0.50535 0.0
Pr41 Pr 0.50408 1.04296 0.50755 0.0
C42 C 0.70626 0.10532 0.49538 0.0
C43 C 0.73468 0.15331 0.49431 0.0
C44 C 0.77729 0.16809 0.50999 0.0
C45 C 0.80422 0.2136 0.50955 0.0
C46 C 0.7893 0.24522 0.49321 0.0
C47 C 0.74589 0.23047 0.47794 0.0
C48 C 0.71873 0.18512 0.47859 0.0
C49 C 0.57724 0.05522 0.55399 0.0
C50 C 0.55396 0.15738 0.51062 0.0
C51 C 0.41036 1.00391 0.51832 0.0
C52 C 0.37725 0.95852 0.51264 0.0
C53 C 0.36799 0.94154 0.48739 0.0
C54 C 0.33828 0.89783 0.48235 0.0
C55 C 0.31731 0.87003 0.50243 0.0
C56 C 0.32654 0.88698 0.52768 0.0
C57 C 0.35637 0.93081 0.53273 0.0
C58 C 0.5358 0.0563 0.4579 0.0
C59 C 0.56377 0.95181 0.50858 0.0
O60 O 0.67223 0.09103 0.47737 0.0
O61 O 0.69245 0.09095 0.51803 0.0
O62 O 0.56195 0.07767 0.53676 0.0
O63 O 0.61338 1.03805 0.54675 0.0
O64 O 0.51457 0.12482 0.51655 0.0
O65 O 0.59372 0.14328 0.50321 0.0
O66 O 0.44756 1.00422 0.53426 0.0
O67 O 0.42213 1.03133 0.49908 0.0
O68 O 0.55422 1.03381 0.47435 0.0
O69 O 0.49917 0.07095 0.46668 0.0
O70 O 0.60516 0.98373 0.50505 0.0
O71 O 0.52189 0.96614 0.5104 0.0
H72 H 0.78978 0.14436 0.52261 0.0
H73 H 0.83689 0.22391 0.52192 0.0
H74 H 0.7335 0.25355 0.46487 0.0
H75 H 0.6855 0.17498 0.46659 0.0
H76 H 0.38385 0.96184 0.47147 0.0
H77 H 0.33126 0.88598 0.46266 0.0
H78 H 0.31122 0.86613 0.54352 0.0
H79 H 0.36348 0.94297 0.55238 0.0
Pr80 Pr 0.53203 0.51554 0.82424 0.0
Pr81 Pr 0.55756 0.6176 0.82616 0.0
C82 C 0.53399 0.43058 0.81325 0.0
C83 C 0.55939 0.405 0.83057 0.0
C84 C 0.55073 0.40416 0.85697 0.0
C85 C 0.57138 0.37618 0.87286 0.0
C86 C 0.59204 0.34334 0.8611 0.0
C87 C 0.61436 0.35472 0.8376 0.0
C88 C 0.59568 0.38406 0.82157 0.0
C89 C 0.53457 0.53855 0.87642 0.0
C90 C 0.65152 0.56896 0.8294 0.0
C91 C 0.56861 0.69943 0.84768 0.0
C92 C 0.52824 0.71669 0.85795 0.0
C93 C 0.48724 0.71858 0.84214 0.0
C94 C 0.45165 0.73975 0.85096 0.0
C95 C 0.45795 0.76117 0.87539 0.0
C96 C 0.49184 0.74879 0.89289 0.0
C97 C 0.52817 0.72811 0.88396 0.0
C98 C 0.55128 0.59573 0.77394 0.0
C99 C 0.43771 0.56304 0.82236 0.0
O100 O 0.56337 0.46461 0.80214 0.0
O101 O 0.49378 0.44051 0.82167 0.0
O102 O 0.54279 0.56683 0.85849 0.0
O103 O 0.52195 0.49738 0.86728 0.0
O104 O 0.6381 0.60811 0.8278 0.0
O105 O 0.61848 0.52971 0.8295 0.0
O106 O 0.5797 0.66556 0.86023 0.0
O107 O 0.56762 0.6939 0.82281 0.0
O108 O 0.54415 0.56607 0.79139 0.0
O109 O 0.56252 0.63716 0.7834 0.0
O110 O 0.45172 0.52477 0.81743 0.0
O111 O 0.47032 0.60212 0.8274 0.0
H112 H 0.52375 0.42019 0.86494 0.0
H113 H 0.55777 0.37063 0.89199 0.0
H114 H 0.63613 0.33314 0.82919 0.0
H115 H 0.60652 0.38751 0.80188 0.0
H116 H 0.48408 0.70647 0.82243 0.0
H117 H 0.42416 0.74535 0.83706 0.0
H118 H 0.49535 0.76179 0.91242 0.0
H119 H 0.55758 0.72349 0.89696 0.0
C120 C 0.41743 0.92547 0.2162 0.0
C121 C 0.41511 0.92145 0.18942 0.0
C122 C 0.44921 0.95266 0.17533 0.0
C123 C 0.48534 0.98686 0.18791 0.0
H124 H 0.59602 0.10602 0.1771 0.0
H125 H 0.64733 0.17092 0.15533 0.0
H126 H 0.69878 0.23552 0.22843 0.0
H127 H 0.64829 0.17152 0.25015 0.0
H128 H 0.62347 0.11993 0.301 0.0
H129 H 0.62378 0.12002 0.34782 0.0
H130 H 0.51247 0.99349 0.34544 0.0
H131 H 0.51167 0.99274 0.29886 0.0
H132 H 0.45351 0.96126 0.24937 0.0
H133 H 0.39082 0.90286 0.2276 0.0
H134 H 0.44821 0.95039 0.15465 0.0
H135 H 0.51132 1.01031 0.1766 0.0
N136 N 0.55425 0.06114 0.21591 0.0
N137 N 0.59207 0.09262 0.25488 0.0
N138 N 0.53056 1.02486 0.25443 0.0
C139 C 0.58762 0.09455 0.22899 0.0
C140 C 0.56378 0.05776 0.26775 0.0
C141 C 0.52551 1.02617 0.22859 0.0
C142 C 0.618 0.13351 0.21541 0.0
C143 C 0.6181 0.1342 0.18851 0.0
C144 C 0.64735 0.17124 0.17602 0.0
C145 C 0.67628 0.20839 0.19023 0.0
C146 C 0.67591 0.20775 0.21701 0.0
C147 C 0.64727 0.17076 0.22945 0.0
C148 C 0.56731 0.05646 0.29606 0.0
C149 C 0.59949 0.09176 0.31039 0.0
C150 C 0.59995 0.09182 0.33714 0.0
C151 C 0.56848 0.05654 0.34993 0.0
C152 C 0.53738 1.02072 0.33581 0.0
C153 C 0.53687 1.02056 0.30915 0.0
C154 C 0.48783 0.99037 0.21478 0.0
C155 C 0.45333 0.9593 0.2287 0.0
C156 C 0.53989 0.37986 0.54611 0.0
C157 C 0.55405 0.36331 0.52275 0.0
C158 C 0.56809 0.3988 0.50431 0.0
C159 C 0.56778 0.44684 0.50918 0.0
H160 H 0.50589 0.63434 0.50028 0.0
H161 H 0.5066 0.71572 0.49207 0.0
H162 H 0.62233 0.75766 0.54968 0.0
H163 H 0.62194 0.67781 0.55735 0.0
H164 H 0.53409 0.62826 0.60973 0.0
H165 H 0.53039 0.63317 0.65582 0.0
H166 H 0.56307 0.4996 0.66221 0.0
H167 H 0.56483 0.4939 0.61562 0.0
H168 H 0.52806 0.43465 0.56962 0.0
H169 H 0.52962 0.35647 0.56162 0.0
H170 H 0.57933 0.38956 0.48578 0.0
H171 H 0.57947 0.47139 0.49434 0.0
N172 N 0.55874 0.55473 0.52795 0.0
N173 N 0.55634 0.59707 0.56634 0.0
N174 N 0.55315 0.51861 0.5681 0.0
C175 C 0.55917 0.59724 0.54046 0.0
C176 C 0.55325 0.55875 0.58026 0.0
C177 C 0.55553 0.5142 0.54227 0.0
C178 C 0.56527 0.64693 0.52903 0.0
C179 C 0.5329 0.66064 0.51063 0.0
C180 C 0.53272 0.70848 0.50625 0.0
C181 C 0.56472 0.74622 0.51995 0.0
C182 C 0.59729 0.73204 0.5379 0.0
C183 C 0.59725 0.68481 0.54231 0.0
C184 C 0.55025 0.56089 0.60873 0.0
C185 C 0.54049 0.5998 0.62084 0.0
C186 C 0.53865 0.60271 0.64748 0.0
C187 C 0.54726 0.56714 0.66311 0.0
C188 C 0.55597 0.52765 0.651 0.0
C189 C 0.55729 0.52452 0.62418 0.0
C190 C 0.55364 0.46284 0.53296 0.0
C191 C 0.53954 0.42682 0.55088 0.0
C192 C 0.88533 0.60201 0.86268 0.0
C193 C 0.86094 0.57315 0.84264 0.0
C194 C 0.88755 0.54556 0.82966 0.0
C195 C 0.93683 0.54604 0.83721 0.0
H196 H 0.11704 0.5643 0.82193 0.0
H197 H 0.19912 0.56307 0.80583 0.0
H198 H 0.25585 0.56111 0.88324 0.0
H199 H 0.17642 0.56286 0.89924 0.0
H200 H 0.12338 0.56842 0.94603 0.0
H201 H 0.1207 0.56959 0.99246 0.0
H202 H 0.96565 0.56883 0.98697 0.0
H203 H 0.96789 0.56644 0.94067 0.0
H204 H 0.95028 0.6242 0.88627 0.0
H205 H 0.86624 0.62305 0.87356 0.0
H206 H 0.87003 0.5231 0.814 0.0
H207 H 0.95565 0.52302 0.82777 0.0
N208 N 0.04878 0.56617 0.85893 0.0
N209 N 0.08862 0.56412 0.89921 0.0
N210 N 1.00642 0.56794 0.89702 0.0
C211 C 0.09052 0.56417 0.87326 0.0
C212 C 0.04697 0.56588 0.91122 0.0
C213 C 1.00641 0.56819 0.87113 0.0
C214 C 0.13925 0.5634 0.86196 0.0
C215 C 0.14706 0.56371 0.83547 0.0
C216 C 0.19408 0.56314 0.82625 0.0
C217 C 0.23388 0.56164 0.84332 0.0
C218 C 0.22595 0.56164 0.86958 0.0
C219 C 0.17984 0.5627 0.87871 0.0
C220 C 0.04582 0.56703 0.93952 0.0
C221 C 0.08867 0.5684 0.95469 0.0
C222 C 0.08724 0.56952 0.98136 0.0
C223 C 0.04293 0.56928 0.9935 0.0
C224 C 1.00025 0.5684 0.9783 0.0
C225 C 1.00164 0.56725 0.95168 0.0
C226 C 0.96004 0.57388 0.85798 0.0
C227 C 0.93385 0.60255 0.87006 0.0
C228 C 0.17828 0.6986 0.44152 0.0
C229 C 0.18149 0.70312 0.46826 0.0
C230 C 0.14808 0.67177 0.48271 0.0
C231 C 0.11267 0.63622 0.47051 0.0
H232 H 1.0027 0.51264 0.48069 0.0
H233 H 0.94824 0.44839 0.50164 0.0
H234 H 0.87874 0.39936 0.42868 0.0
H235 H 0.93288 0.46234 0.40753 0.0
H236 H 0.97488 0.50597 0.35553 0.0
H237 H 0.97479 0.51082 0.30875 0.0
H238 H 0.1058 0.62051 0.31455 0.0
H239 H 0.10643 0.6159 0.36075 0.0
H240 H 0.14246 0.66169 0.40877 0.0
H241 H 0.20245 0.72279 0.42974 0.0
H242 H 0.14963 0.67448 0.50338 0.0
H243 H 0.08754 0.61244 0.48206 0.0
N244 N 0.04063 0.56232 0.44245 0.0
N245 N 1.0073 0.52851 0.40297 0.0
N246 N 0.07229 0.59346 0.40402 0.0
C247 C 1.00745 0.529 0.42901 0.0
C248 C 0.0398 0.56067 0.39034 0.0
C249 C 0.07319 0.59484 0.42991 0.0
C250 C 0.97251 0.49258 0.44235 0.0
C251 C 0.97559 0.48841 0.46911 0.0
C252 C 0.94451 0.45184 0.48114 0.0
C253 C 0.90945 0.41955 0.46665 0.0
C254 C 0.90527 0.42437 0.44017 0.0
C255 C 0.93654 0.46036 0.42812 0.0
C256 C 0.04031 0.56088 0.362 0.0
C257 C 1.0039 0.53082 0.34681 0.0
C258 C 1.0039 0.53342 0.32006 0.0
C259 C 0.04008 0.5663 0.30815 0.0
C260 C 0.07712 0.59527 0.32329 0.0
C261 C 0.07735 0.59255 0.34982 0.0
C262 C 0.10999 0.63174 0.44367 0.0
C263 C 0.14328 0.66352 0.42945 0.0
C264 C 0.48761 0.18827 0.7924 0.0
C265 C 0.48575 0.17966 0.8187 0.0
C266 C 0.47096 0.13512 0.82744 0.0
C267 C 0.4632 0.09878 0.81011 0.0
H268 H 0.56922 1.01779 0.81394 0.0
H269 H 0.54402 0.96685 0.84905 0.0
H270 H 0.4695 0.86075 0.79525 0.0
H271 H 0.49176 0.91335 0.76019 0.0
H272 H 0.47638 0.95348 0.70078 0.0
H273 H 0.48113 0.95033 0.65436 0.0
H274 H 0.48841 0.09589 0.65166 0.0
H275 H 0.48256 0.09888 0.69766 0.0
H276 H 0.48741 0.15852 0.75495 0.0
H277 H 0.49903 0.22301 0.7856 0.0
H278 H 0.46927 0.12842 0.84773 0.0
H279 H 0.4555 0.06427 0.81744 0.0
N280 N 0.50551 1.04068 0.78115 0.0
N281 N 0.50763 0.9998 0.74331 0.0
N282 N 0.47565 0.06616 0.74329 0.0
C283 C 0.51779 1.00566 0.76876 0.0
C284 C 0.48734 1.03059 0.73046 0.0
C285 C 0.4839 0.07037 0.76887 0.0
C286 C 0.53023 0.96996 0.78464 0.0
C287 C 0.54913 0.98288 0.80956 0.0
C288 C 0.53407 0.95394 0.82973 0.0
C289 C 0.5021 0.91098 0.82494 0.0
C290 C 0.49157 0.89495 0.79951 0.0
C291 C 0.50574 0.9244 0.77934 0.0
C292 C 0.48026 1.02661 0.70269 0.0
C293 C 0.47785 0.9845 0.69012 0.0
C294 C 0.48035 0.98263 0.66366 0.0
C295 C 0.48581 1.02293 0.64961 0.0
C296 C 0.48368 0.06418 0.66201 0.0
C297 C 0.48073 0.06597 0.6884 0.0
C298 C 0.4719 0.10694 0.78408 0.0
C299 C 0.48067 0.15168 0.77495 0.0
C300 C 0.71647 0.6144 0.11808 0.0
C301 C 0.72692 0.58709 0.13821 0.0
C302 C 0.68664 0.56014 0.15094 0.0
C303 C 0.63748 0.55944 0.14297 0.0
H304 H 0.46738 0.57693 0.15875 0.0
H305 H 0.38493 0.57615 0.17514 0.0
H306 H 0.3217 0.55164 0.09868 0.0
H307 H 0.40141 0.55133 0.08245 0.0
H308 H 0.45491 0.55348 0.03526 0.0
H309 H 0.45474 0.54967 0.9887 0.0
H310 H 0.61357 0.59035 0.99117 0.0
H311 H 0.61411 0.59397 0.03787 0.0
H312 H 0.66222 0.6342 0.09404 0.0
H313 H 0.74578 0.63498 0.10733 0.0
H314 H 0.69305 0.53895 0.16671 0.0
H315 H 0.60738 0.53691 0.1523 0.0
N316 N 0.53477 0.57339 0.12131 0.0
N317 N 0.49213 0.56885 0.08138 0.0
N318 N 0.57731 0.57887 0.08281 0.0
C319 C 0.49114 0.56863 0.10737 0.0
C320 C 0.53467 0.57389 0.06893 0.0
C321 C 0.57823 0.57861 0.10879 0.0
C322 C 0.44187 0.56466 0.11914 0.0
C323 C 0.43578 0.57074 0.14553 0.0
C324 C 0.38862 0.57025 0.15493 0.0
C325 C 0.34699 0.56397 0.13807 0.0
C326 C 0.35303 0.55668 0.11207 0.0
C327 C 0.39929 0.55671 0.10282 0.0
C328 C 0.53454 0.5737 0.04046 0.0
C329 C 0.48989 0.56188 0.02598 0.0
C330 C 0.48974 0.55963 -0.00075 0.0
C331 C 0.53415 0.56969 0.98625 0.0
C332 C 0.57876 0.58281 0.00062 0.0
C333 C 0.57899 0.58454 0.02741 0.0
C334 C 0.62779 0.58539 0.12198 0.0
C335 C 0.66806 0.61371 0.11026 0.0
C336 C 0.22869 0.60491 0.14049 0.0
C337 C 0.19664 0.56873 0.15262 0.0
H338 H 0.30102 0.63167 0.12673 0.0
C339 C 0.21631 0.53288 0.16249 0.0
H340 H 0.21527 0.63319 0.1326 0.0
C341 C 0.2663 0.53259 0.15943 0.0
C342 C 0.29742 0.56793 0.1463 0.0
H343 H 0.19288 0.50457 0.17204 0.0
H344 H 0.28003 0.50376 0.16628 0.0
C345 C 0.27812 0.60431 0.13722 0.0
C346 C 0.79909 0.32967 0.48564 0.0
C347 C 0.82054 0.29234 0.49062 0.0
H348 H 0.81097 0.3998 0.47411 0.0
C349 C 0.87224 0.29959 0.49089 0.0
H350 H 0.75952 0.32564 0.48582 0.0
C351 C 0.90151 0.34234 0.48491 0.0
C352 C 0.87963 0.37843 0.47832 0.0
H353 H 0.89011 0.27164 0.49425 0.0
H354 H 0.941 0.34642 0.48388 0.0
C355 C 0.82839 0.37222 0.47925 0.0
C356 C 0.41477 0.81974 0.85972 0.0
C357 C 0.44909 0.80816 0.8772 0.0
H358 H 0.40699 0.86052 0.82723 0.0
C359 C 0.4905 0.84308 0.8848 0.0
H360 H 0.38028 0.79547 0.85495 0.0
C361 C 0.50682 0.87934 0.86854 0.0
C362 C 0.47917 0.88297 0.84617 0.0
H363 H 0.51612 0.83791 0.89982 0.0
H364 H 0.5434 0.90087 0.87204 0.0
C365 C 0.43069 0.85618 0.84337 0.0
C366 C 0.84334 0.54282 0.15266 0.0
C367 C 0.88102 0.58209 0.14847 0.0
H368 H 0.7654 0.51325 0.1527 0.0
C369 C 0.8674 0.62352 0.14344 0.0
H370 H 0.85239 0.51033 0.15678 0.0
C371 C 0.81774 0.62542 0.14166 0.0
C372 C 0.77971 0.58578 0.14437 0.0
H373 H 0.89518 0.6547 0.14058 0.0
H374 H 0.80921 0.65815 0.13764 0.0
C375 C 0.79332 0.5446 0.15055 0.0
C376 C 0.23947 0.80961 0.50813 0.0
C377 C 0.28522 0.82393 0.49667 0.0
H378 H 0.17039 0.75997 0.50808 0.0
C379 C 0.2988 0.79519 0.47825 0.0
H380 H 0.22806 0.8311 0.5224 0.0
C381 C 0.26616 0.75446 0.47028 0.0
C382 C 0.21892 0.74168 0.48033 0.0
H383 H 0.33428 0.8048 0.46952 0.0
H384 H 0.27734 0.73368 0.45556 0.0
C385 C 0.20652 0.76883 0.5 0.0
C386 C 0.58203 0.25898 0.85887 0.0
C387 C 0.56057 0.29665 0.86067 0.0
H388 H 0.57349 0.19072 0.84389 0.0
C389 C 0.51028 0.29141 0.85319 0.0
H390 H 0.62062 0.26244 0.86411 0.0
C391 C 0.48452 0.25178 0.84076 0.0
C392 C 0.50774 0.21618 0.83677 0.0
H393 H 0.49223 0.31966 0.85393 0.0
H394 H 0.44786 0.25019 0.83269 0.0
C395 C 0.55539 0.21853 0.84707 0.0
C396 C 0.60623 0.88358 0.51949 0.0
C397 C 0.56402 0.89909 0.51094 0.0
H398 H 0.64022 0.82762 0.52911 0.0
C399 C 0.5219 0.86272 0.50515 0.0
H400 H 0.63984 0.90883 0.52451 0.0
C401 C 0.52222 0.81468 0.50742 0.0
C402 C 0.56433 0.79905 0.51633 0.0
H403 H 0.48806 0.87134 0.49851 0.0
H404 H 0.48844 0.78961 0.50253 0.0
C405 C 0.60624 0.8357 0.52234 0.0
C406 C 0.72217 0.52875 0.82923 0.0
C407 C 0.70513 0.56939 0.83132 0.0
H408 H 0.78458 0.4979 0.83076 0.0
C409 C 0.74009 0.61108 0.83535 0.0
H410 H 0.69635 0.49599 0.82592 0.0
C411 C 0.79039 0.61218 0.83786 0.0
C412 C 0.80763 0.57162 0.83655 0.0
H413 H 0.72862 0.64311 0.83698 0.0
H414 H 0.81588 0.64509 0.84119 0.0
C415 C 0.77286 0.52987 0.83171 0.0
C416 C 0.30511 0.86465 0.14689 0.0
C417 C 0.28959 0.82239 0.15898 0.0
H418 H 0.35725 0.92956 0.14716 0.0
C419 C 0.31955 0.81061 0.17863 0.0
H420 H 0.28267 0.87457 0.13168 0.0
C421 C 0.36221 0.84182 0.18734 0.0
C422 C 0.37565 0.88561 0.17673 0.0
H423 H 0.30903 0.77783 0.18789 0.0
H424 H 0.38369 0.83232 0.20312 0.0
C425 C 0.34782 0.89609 0.15573 0.0
C426 C 0.58362 0.2451 0.49832 0.0
C427 C 0.55404 0.21015 0.5131 0.0
H428 H 0.60663 0.3172 0.4887 0.0
C429 C 0.52423 0.22703 0.53058 0.0
H430 H 0.6073 0.23524 0.48441 0.0
C431 C 0.52438 0.27494 0.5334 0.0
C432 C 0.55374 0.31028 0.51867 0.0
H433 H 0.50072 0.20292 0.54267 0.0
H434 H 0.50023 0.28388 0.54731 0.0
C435 C 0.58303 0.29319 0.50077 0.0
C436 C 0.35489 0.52467 0.83833 0.0
C437 C 0.38414 0.56094 0.82504 0.0
H438 H 0.28495 0.49684 0.85463 0.0
C439 C 0.36233 0.596 0.81605 0.0
H440 H 0.37071 0.49753 0.84587 0.0
C441 C 0.31246 0.59487 0.82044 0.0
C442 C 0.28391 0.55947 0.83465 0.0
H443 H 0.38396 0.62446 0.80582 0.0
H444 H 0.2969 0.62274 0.81376 0.0
C445 C 0.30574 0.52427 0.84336 0.0
C446 C 0.78327 0.27327 0.15364 0.0
C447 C 0.7887 0.31783 0.16391 0.0
H448 H 0.74261 0.20326 0.15391 0.0
C449 C 0.75143 0.32733 0.17902 0.0
H450 H 0.81141 0.26481 0.142 0.0
C451 C 0.71237 0.29203 0.18597 0.0
C452 C 0.70967 0.24673 0.17775 0.0
H453 H 0.75399 0.36157 0.18669 0.0
H454 H 0.68579 0.29969 0.19895 0.0
C455 C 0.74392 0.23796 0.16048 0.0
C456 C 0.9993 0.53757 0.06023 0.0
C457 C 0.03914 0.56195 0.07547 0.0
H458 H 0.96964 0.52003 0.02231 0.0
C459 C 0.07937 0.59034 0.064 0.0
H460 H 0.96825 0.515 0.06886 0.0
C461 C 0.08012 0.59378 0.03739 0.0
C462 C 0.04085 0.56835 0.02185 0.0
H463 H 0.11052 0.60926 0.07559 0.0
H464 H 0.11163 0.61602 0.02898 0.0
C465 C 1.00015 0.54063 0.03364 0.0
C466 C 0.58495 1.03966 0.42096 0.0
C467 C 0.54718 0.05838 0.43053 0.0
H468 H 0.62168 1.02474 0.38746 0.0
C469 C 0.51875 0.07852 0.4135 0.0
H470 H 0.60753 1.02414 0.4337 0.0
C471 C 0.52684 0.07881 0.38737 0.0
C472 C 0.56371 0.05929 0.37777 0.0
H473 H 0.48949 0.09335 0.42027 0.0
H474 H 0.50366 0.09353 0.37453 0.0
C475 C 0.59315 1.04011 0.39467 0.0
C476 C 0.53245 0.5422 0.73483 0.0
C477 C 0.55058 0.58619 0.74587 0.0
H478 H 0.51632 0.50147 0.7001 0.0
C479 C 0.5685 0.62281 0.72963 0.0
H480 H 0.51841 0.51321 0.7468 0.0
C481 C 0.56805 0.61615 0.70317 0.0
C482 C 0.5489 0.57264 0.69177 0.0
H483 H 0.58332 0.65708 0.73738 0.0
H484 H 0.58323 0.64545 0.69165 0.0
C485 C 0.53152 0.53551 0.70804 0.0
C486 C 0.50985 0.06113 0.58244 0.0
C487 C 0.55105 1.04338 0.57748 0.0
H488 H 0.4551 0.06677 0.60911 0.0
C489 C 0.56641 1.01405 0.59491 0.0
H490 H 0.49688 0.08332 0.569 0.0
C491 C 0.54249 1.00457 0.61776 0.0
C492 C 0.5029 1.0243 0.62338 0.0
H493 H 0.59773 0.99957 0.59124 0.0
H494 H 0.55689 0.98403 0.63163 0.0
C495 C 0.48577 0.05147 0.60522 0.0
C496 C 0.50645 0.51541 0.92 0.0
C497 C 0.53364 0.54903 0.90422 0.0
H498 H 0.48503 0.49582 0.9579 0.0
C499 C 0.56083 0.59026 0.91559 0.0
H500 H 0.48526 0.48312 0.91192 0.0
C501 C 0.56133 0.59722 0.94227 0.0
C502 C 0.53378 0.56348 0.95792 0.0
H503 H 0.58259 0.61653 0.90401 0.0
H504 H 0.58302 0.62902 0.95065 0.0
C505 C 0.50614 0.52269 0.94639 0.0
C506 C 0.04035 0.62416 0.24442 0.0
C507 C 0.03844 0.58774 0.22705 0.0
H508 H 0.04289 0.64579 0.28362 0.0
C509 C 0.03614 0.54356 0.23641 0.0
H510 H 0.04229 0.65858 0.23772 0.0
C511 C 0.03528 0.53598 0.26281 0.0
C512 C 0.03821 0.57278 0.28015 0.0
H513 H 0.0344 0.51491 0.22335 0.0
H514 H 0.03337 0.50169 0.26969 0.0
C515 C 0.04081 0.61688 0.27066 0.0
loop_
_geom_bond_atom_site_label_1
_geom_bond_atom_site_label_2
_geom_bond_distance
_geom_bond_site_symmetry_2
_ccdc_geom_bond_type
Pr0 C2 2.880 . S
Pr0 O20 2.562 . S
Pr0 O21 2.490 . S
Pr0 O22 2.695 1_655 S
Pr0 O23 2.512 . S
Pr0 O25 2.437 . S
Pr0 O28 2.436 . S
Pr0 O30 2.438 1_655 S
Pr1 C11 2.880 . S
Pr1 O22 2.436 . S
Pr1 O24 2.438 1_455 S
Pr1 O26 2.562 . S
Pr1 O27 2.490 . S
Pr1 O28 2.695 1_455 S
Pr1 O29 2.512 . S
Pr1 O31 2.437 . S
C2 Pr0 2.880 . S
C2 C3 1.491 . S
C2 O20 1.254 . S
C2 O21 1.225 . S
C3 C2 1.491 . S
C3 C4 1.392 . S
C3 C8 1.356 . S
C4 C3 1.392 . S
C4 C5 1.368 . S
C4 H32 0.929 . S
C5 C4 1.368 . S
C5 C6 1.386 . S
C5 H33 0.929 . S
C6 C5 1.386 . S
C6 C7 1.373 . S
C7 C6 1.373 . S
C7 C8 1.409 . S
C7 H34 0.931 . S
C8 C3 1.356 . S
C8 C7 1.409 . S
C8 H35 0.930 . S
C9 O22 1.270 . S
C9 O23 1.248 1_455 S
C10 O24 1.267 . S
C10 O25 1.278 . S
C11 Pr1 2.880 . S
C11 C12 1.491 . S
C11 O26 1.254 . S
C11 O27 1.225 . S
C12 C11 1.491 . S
C12 C13 1.392 . S
C12 C17 1.356 . S
C13 C12 1.392 . S
C13 C14 1.368 . S
C13 H36 0.929 . S
C14 C13 1.368 . S
C14 C15 1.386 . S
C14 H37 0.929 . S
C15 C14 1.386 . S
C15 C16 1.373 . S
C16 C15 1.373 . S
C16 C17 1.409 . S
C16 H38 0.931 . S
C17 C12 1.356 . S
C17 C16 1.409 . S
C17 H39 0.930 . S
C18 O28 1.270 1_455 S
C18 O29 1.248 . S
C19 O30 1.267 . S
C19 O31 1.278 . S
O20 Pr0 2.562 . S
O20 C2 1.254 . S
O21 Pr0 2.490 . S
O21 C2 1.225 . S
O22 Pr0 2.695 1_455 S
O22 Pr1 2.436 . S
O22 C9 1.270 . S
O23 Pr0 2.512 . S
O23 C9 1.248 1_655 S
O24 Pr1 2.438 1_655 S
O24 C10 1.267 . S
O25 Pr0 2.437 . S
O25 C10 1.278 . S
O26 Pr1 2.562 . S
O26 C11 1.254 . S
O27 Pr1 2.490 . S
O27 C11 1.225 . S
O28 Pr0 2.436 . S
O28 Pr1 2.695 1_655 S
O28 C18 1.270 1_655 S
O29 Pr1 2.512 . S
O29 C18 1.248 . S
O30 Pr0 2.438 1_455 S
O30 C19 1.267 . S
O31 Pr1 2.437 . S
O31 C19 1.278 . S
H32 C4 0.929 . S
H33 C5 0.929 . S
H34 C7 0.931 . S
H35 C8 0.930 . S
H36 C13 0.929 . S
H37 C14 0.929 . S
H38 C16 0.931 . S
H39 C17 0.930 . S
Pr40 C42 2.880 . S
Pr40 O60 2.562 . S
Pr40 O61 2.490 . S
Pr40 O62 2.695 1_545 S
Pr40 O63 2.512 . S
Pr40 O65 2.437 . S
Pr40 O68 2.436 . S
Pr40 O70 2.438 1_545 S
Pr41 C51 2.880 . S
Pr41 O62 2.436 . S
Pr41 O64 2.438 1_565 S
Pr41 O66 2.562 . S
Pr41 O67 2.490 . S
Pr41 O68 2.695 1_565 S
Pr41 O69 2.512 . S
Pr41 O71 2.437 . S
C42 Pr40 2.880 . S
C42 C43 1.491 . S
C42 O60 1.254 . S
C42 O61 1.225 . S
C43 C42 1.491 . S
C43 C44 1.392 . S
C43 C48 1.356 . S
C44 C43 1.392 . S
C44 C45 1.368 . S
C44 H72 0.929 . S
C45 C44 1.368 . S
C45 C46 1.386 . S
C45 H73 0.929 . S
C46 C45 1.386 . S
C46 C47 1.373 . S
C47 C46 1.373 . S
C47 C48 1.409 . S
C47 H74 0.931 . S
C48 C43 1.356 . S
C48 C47 1.409 . S
C48 H75 0.930 . S
C49 O62 1.270 1_545 S
C49 O63 1.248 . S
C50 O64 1.267 . S
C50 O65 1.278 . S
C51 Pr41 2.880 . S
C51 C52 1.491 . S
C51 O66 1.254 . S
C51 O67 1.225 . S
C52 C51 1.491 . S
C52 C53 1.392 . S
C52 C57 1.356 . S
C53 C52 1.392 . S
C53 C54 1.368 . S
C53 H76 0.929 . S
C54 C53 1.368 . S
C54 C55 1.386 . S
C54 H77 0.929 . S
C55 C54 1.386 . S
C55 C56 1.373 . S
C56 C55 1.373 . S
C56 C57 1.409 . S
C56 H78 0.931 . S
C57 C52 1.356 . S
C57 C56 1.409 . S
C57 H79 0.930 . S
C58 O68 1.270 . S
C58 O69 1.248 1_545 S
C59 O70 1.267 . S
C59 O71 1.278 . S
O60 Pr40 2.562 . S
O60 C42 1.254 . S
O61 Pr40 2.490 . S
O61 C42 1.225 . S
O62 Pr40 2.695 1_565 S
O62 Pr41 2.436 . S
O62 C49 1.270 1_565 S
O63 Pr40 2.512 . S
O63 C49 1.248 . S
O64 Pr41 2.438 1_545 S
O64 C50 1.267 . S
O65 Pr40 2.437 . S
O65 C50 1.278 . S
O66 Pr41 2.562 . S
O66 C51 1.254 . S
O67 Pr41 2.490 . S
O67 C51 1.225 . S
O68 Pr40 2.436 . S
O68 Pr41 2.695 1_545 S
O68 C58 1.270 . S
O69 Pr41 2.512 . S
O69 C58 1.248 1_565 S
O70 Pr40 2.438 1_565 S
O70 C59 1.267 . S
O71 Pr41 2.437 . S
O71 C59 1.278 . S
H72 C44 0.929 . S
H73 C45 0.929 . S
H74 C47 0.931 . S
H75 C48 0.930 . S
H76 C53 0.929 . S
H77 C54 0.929 . S
H78 C56 0.931 . S
H79 C57 0.930 . S
Pr80 C82 2.880 . S
Pr80 O100 2.562 . S
Pr80 O101 2.490 . S
Pr80 O102 2.695 . S
Pr80 O103 2.512 . S
Pr80 O105 2.437 . S
Pr80 O108 2.436 . S
Pr80 O110 2.438 . S
Pr81 C91 2.880 . S
Pr81 O102 2.436 . S
Pr81 O104 2.438 . S
Pr81 O106 2.562 . S
Pr81 O107 2.490 . S
Pr81 O108 2.695 . S
Pr81 O109 2.512 . S
Pr81 O111 2.437 . S
C82 Pr80 2.880 . S
C82 C83 1.491 . S
C82 O100 1.254 . S
C82 O101 1.225 . S
C83 C82 1.491 . S
C83 C84 1.392 . S
C83 C88 1.356 . S
C84 C83 1.392 . S
C84 C85 1.368 . S
C84 H112 0.929 . S
C85 C84 1.368 . S
C85 C86 1.386 . S
C85 H113 0.929 . S
C86 C85 1.386 . S
C86 C87 1.373 . S
C87 C86 1.373 . S
C87 C88 1.409 . S
C87 H114 0.931 . S
C88 C83 1.356 . S
C88 C87 1.409 . S
C88 H115 0.930 . S
C89 O102 1.270 . S
C89 O103 1.248 . S
C90 O104 1.267 . S
C90 O105 1.278 . S
C91 Pr81 2.880 . S
C91 C92 1.491 . S
C91 O106 1.254 . S
C91 O107 1.225 . S
C92 C91 1.491 . S
C92 C93 1.392 . S
C92 C97 1.356 . S
C93 C92 1.392 . S
C93 C94 1.368 . S
C93 H116 0.929 . S
C94 C93 1.368 . S
C94 C95 1.386 . S
C94 H117 0.929 . S
C95 C94 1.386 . S
C95 C96 1.373 . S
C96 C95 1.373 . S
C96 C97 1.409 . S
C96 H118 0.931 . S
C97 C92 1.356 . S
C97 C96 1.409 . S
C97 H119 0.930 . S
C98 O108 1.270 . S
C98 O109 1.248 . S
C99 O110 1.267 . S
C99 O111 1.278 . S
O100 Pr80 2.562 . S
O100 C82 1.254 . S
O101 Pr80 2.490 . S
O101 C82 1.225 . S
O102 Pr80 2.695 . S
O102 Pr81 2.436 . S
O102 C89 1.270 . S
O103 Pr80 2.512 . S
O103 C89 1.248 . S
O104 Pr81 2.438 . S
O104 C90 1.267 . S
O105 Pr80 2.437 . S
O105 C90 1.278 . S
O106 Pr81 2.562 . S
O106 C91 1.254 . S
O107 Pr81 2.490 . S
O107 C91 1.225 . S
O108 Pr80 2.436 . S
O108 Pr81 2.695 . S
O108 C98 1.270 . S
O109 Pr81 2.512 . S
O109 C98 1.248 . S
O110 Pr80 2.438 . S
O110 C99 1.267 . S
O111 Pr81 2.437 . S
O111 C99 1.278 . S
H112 C84 0.929 . S
H113 C85 0.929 . S
H114 C87 0.931 . S
H115 C88 0.930 . S
H116 C93 0.929 . S
H117 C94 0.929 . S
H118 C96 0.931 . S
H119 C97 0.930 . S
C120 C121 1.384 . S
C120 H133 0.947 . S
C120 C155 1.382 . S
C121 C120 1.384 . S
C121 C122 1.378 . S
C122 C121 1.378 . S
C122 C123 1.378 . S
C122 H134 0.952 . S
C123 C122 1.378 . S
C123 H135 0.950 . S
C123 C154 1.383 . S
H124 C143 0.947 . S
H125 C144 0.946 . S
H126 C146 0.953 . S
H127 C147 0.945 . S
H128 C149 0.952 . S
H129 C150 0.949 . S
H130 C152 0.950 . S
H131 C153 0.948 . S
H132 C155 0.951 . S
H133 C120 0.947 . S
H134 C122 0.952 . S
H135 C123 0.950 . S
N136 C139 1.382 . S
N136 C141 1.363 1_545 S
N137 C139 1.371 . S
N137 C140 1.372 . S
N138 C140 1.361 1_565 S
N138 C141 1.377 . S
C139 N136 1.382 . S
C139 N137 1.371 . S
C139 C142 1.480 . S
C140 N137 1.372 . S
C140 N138 1.361 1_545 S
C140 C148 1.457 . S
C141 N136 1.363 1_565 S
C141 N138 1.377 . S
C141 C154 1.479 . S
C142 C139 1.480 . S
C142 C143 1.383 . S
C142 C147 1.385 . S
C143 H124 0.947 . S
C143 C142 1.383 . S
C143 C144 1.388 . S
C144 H125 0.946 . S
C144 C143 1.388 . S
C144 C145 1.384 . S
C145 C144 1.384 . S
C145 C146 1.377 . S
C146 H126 0.953 . S
C146 C145 1.377 . S
C146 C147 1.369 . S
C147 H127 0.945 . S
C147 C142 1.385 . S
C147 C146 1.369 . S
C148 C140 1.457 . S
C148 C149 1.372 . S
C148 C153 1.364 1_545 S
C149 H128 0.952 . S
C149 C148 1.372 . S
C149 C150 1.389 . S
C150 H129 0.949 . S
C150 C149 1.389 . S
C150 C151 1.387 . S
C151 C150 1.387 . S
C151 C152 1.372 1_545 S
C152 H130 0.950 . S
C152 C151 1.372 1_565 S
C152 C153 1.379 . S
C153 H131 0.948 . S
C153 C148 1.364 1_565 S
C153 C152 1.379 . S
C154 C123 1.383 . S
C154 C141 1.479 . S
C154 C155 1.398 . S
C155 C120 1.382 . S
C155 H132 0.951 . S
C155 C154 1.398 . S
C156 C157 1.384 . S
C156 H169 0.947 . S
C156 C191 1.382 . S
C157 C156 1.384 . S
C157 C158 1.378 . S
C158 C157 1.378 . S
C158 C159 1.378 . S
C158 H170 0.952 . S
C159 C158 1.378 . S
C159 H171 0.950 . S
C159 C190 1.383 . S
H160 C179 0.947 . S
H161 C180 0.946 . S
H162 C182 0.953 . S
H163 C183 0.945 . S
H164 C185 0.952 . S
H165 C186 0.949 . S
H166 C188 0.950 . S
H167 C189 0.948 . S
H168 C191 0.951 . S
H169 C156 0.947 . S
H170 C158 0.952 . S
H171 C159 0.950 . S
N172 C175 1.382 . S
N172 C177 1.363 . S
N173 C175 1.371 . S
N173 C176 1.372 . S
N174 C176 1.361 . S
N174 C177 1.377 . S
C175 N172 1.382 . S
C175 N173 1.371 . S
C175 C178 1.480 . S
C176 N173 1.372 . S
C176 N174 1.361 . S
C176 C184 1.457 . S
C177 N172 1.363 . S
C177 N174 1.377 . S
C177 C190 1.479 . S
C178 C175 1.480 . S
C178 C179 1.383 . S
C178 C183 1.385 . S
C179 H160 0.947 . S
C179 C178 1.383 . S
C179 C180 1.388 . S
C180 H161 0.946 . S
C180 C179 1.388 . S
C180 C181 1.384 . S
C181 C180 1.384 . S
C181 C182 1.377 . S
C182 H162 0.953 . S
C182 C181 1.377 . S
C182 C183 1.369 . S
C183 H163 0.945 . S
C183 C178 1.385 . S
C183 C182 1.369 . S
C184 C176 1.457 . S
C184 C185 1.372 . S
C184 C189 1.364 . S
C185 H164 0.952 . S
C185 C184 1.372 . S
C185 C186 1.389 . S
C186 H165 0.949 . S
C186 C185 1.389 . S
C186 C187 1.387 . S
C187 C186 1.387 . S
C187 C188 1.372 . S
C188 H166 0.950 . S
C188 C187 1.372 . S
C188 C189 1.379 . S
C189 H167 0.948 . S
C189 C184 1.364 . S
C189 C188 1.379 . S
C190 C159 1.383 . S
C190 C177 1.479 . S
C190 C191 1.398 . S
C191 C156 1.382 . S
C191 H168 0.951 . S
C191 C190 1.398 . S
C192 C193 1.384 . S
C192 H205 0.947 . S
C192 C227 1.382 . S
C193 C192 1.384 . S
C193 C194 1.378 . S
C194 C193 1.378 . S
C194 C195 1.378 . S
C194 H206 0.952 . S
C195 C194 1.378 . S
C195 H207 0.950 . S
C195 C226 1.383 . S
H196 C215 0.947 . S
H197 C216 0.946 . S
H198 C218 0.953 . S
H199 C219 0.945 . S
H200 C221 0.952 . S
H201 C222 0.949 . S
H202 C224 0.950 . S
H203 C225 0.948 . S
H204 C227 0.951 . S
H205 C192 0.947 . S
H206 C194 0.952 . S
H207 C195 0.950 . S
N208 C211 1.382 . S
N208 C213 1.363 1_455 S
N209 C211 1.371 . S
N209 C212 1.372 . S
N210 C212 1.361 1_655 S
N210 C213 1.377 . S
C211 N208 1.382 . S
C211 N209 1.371 . S
C211 C214 1.480 . S
C212 N209 1.372 . S
C212 N210 1.361 1_455 S
C212 C220 1.457 . S
C213 N208 1.363 1_655 S
C213 N210 1.377 . S
C213 C226 1.479 . S
C214 C211 1.480 . S
C214 C215 1.383 . S
C214 C219 1.385 . S
C215 H196 0.947 . S
C215 C214 1.383 . S
C215 C216 1.388 . S
C216 H197 0.946 . S
C216 C215 1.388 . S
C216 C217 1.384 . S
C217 C216 1.384 . S
C217 C218 1.377 . S
C218 H198 0.953 . S
C218 C217 1.377 . S
C218 C219 1.369 . S
C219 H199 0.945 . S
C219 C214 1.385 . S
C219 C218 1.369 . S
C220 C212 1.457 . S
C220 C221 1.372 . S
C220 C225 1.364 1_455 S
C221 H200 0.952 . S
C221 C220 1.372 . S
C221 C222 1.389 . S
C222 H201 0.949 . S
C222 C221 1.389 . S
C222 C223 1.388 . S
C223 C222 1.388 . S
C223 C224 1.373 1_455 S
C224 H202 0.950 . S
C224 C223 1.373 1_655 S
C224 C225 1.379 . S
C225 H203 0.948 . S
C225 C220 1.364 1_655 S
C225 C224 1.379 . S
C226 C195 1.383 . S
C226 C213 1.479 . S
C226 C227 1.398 . S
C227 C192 1.382 . S
C227 H204 0.951 . S
C227 C226 1.398 . S
C228 C229 1.384 . S
C228 H241 0.947 . S
C228 C263 1.382 . S
C229 C228 1.384 . S
C229 C230 1.378 . S
C230 C229 1.378 . S
C230 C231 1.378 . S
C230 H242 0.952 . S
C231 C230 1.378 . S
C231 H243 0.950 . S
C231 C262 1.383 . S
H232 C251 0.947 . S
H233 C252 0.946 . S
H234 C254 0.953 . S
H235 C255 0.945 . S
H236 C257 0.952 . S
H237 C258 0.949 . S
H238 C260 0.950 . S
H239 C261 0.948 . S
H240 C263 0.951 . S
H241 C228 0.947 . S
H242 C230 0.952 . S
H243 C231 0.950 . S
N244 C247 1.382 1_455 S
N244 C249 1.363 . S
N245 C247 1.371 . S
N245 C248 1.372 1_655 S
N246 C248 1.361 . S
N246 C249 1.377 . S
C247 N244 1.382 1_655 S
C247 N245 1.371 . S
C247 C250 1.480 . S
C248 N245 1.372 1_455 S
C248 N246 1.361 . S
C248 C256 1.457 . S
C249 N244 1.363 . S
C249 N246 1.377 . S
C249 C262 1.479 . S
C250 C247 1.480 . S
C250 C251 1.383 . S
C250 C255 1.385 . S
C251 H232 0.947 . S
C251 C250 1.383 . S
C251 C252 1.388 . S
C252 H233 0.946 . S
C252 C251 1.388 . S
C252 C253 1.384 . S
C253 C252 1.384 . S
C253 C254 1.377 . S
C254 H234 0.953 . S
C254 C253 1.377 . S
C254 C255 1.369 . S
C255 H235 0.945 . S
C255 C250 1.385 . S
C255 C254 1.369 . S
C256 C248 1.457 . S
C256 C257 1.372 1_455 S
C256 C261 1.364 . S
C257 H236 0.952 . S
C257 C256 1.372 1_655 S
C257 C258 1.389 . S
C258 H237 0.949 . S
C258 C257 1.389 . S
C258 C259 1.387 . S
C259 C258 1.387 . S
C259 C260 1.372 1_655 S
C260 H238 0.950 . S
C260 C259 1.372 1_455 S
C260 C261 1.379 . S
C261 H239 0.948 . S
C261 C256 1.364 . S
C261 C260 1.379 . S
C262 C231 1.383 . S
C262 C249 1.479 . S
C262 C263 1.398 . S
C263 C228 1.382 . S
C263 H240 0.951 . S
C263 C262 1.398 . S
C264 C265 1.384 . S
C264 H277 0.947 . S
C264 C299 1.382 . S
C265 C264 1.384 . S
C265 C266 1.378 . S
C266 C265 1.378 . S
C266 C267 1.378 . S
C266 H278 0.952 . S
C267 C266 1.378 . S
C267 H279 0.950 . S
C267 C298 1.383 . S
H268 C287 0.947 . S
H269 C288 0.946 . S
H270 C290 0.953 . S
H271 C291 0.945 . S
H272 C293 0.952 . S
H273 C294 0.949 . S
H274 C296 0.950 . S
H275 C297 0.948 . S
H276 C299 0.951 . S
H277 C264 0.947 . S
H278 C266 0.952 . S
H279 C267 0.950 . S
N280 C283 1.382 1_545 S
N280 C285 1.363 . S
N281 C283 1.371 . S
N281 C284 1.372 1_565 S
N282 C284 1.361 . S
N282 C285 1.377 . S
C283 N280 1.382 1_565 S
C283 N281 1.371 . S
C283 C286 1.480 . S
C284 N281 1.372 1_545 S
C284 N282 1.361 . S
C284 C292 1.457 . S
C285 N280 1.363 . S
C285 N282 1.377 . S
C285 C298 1.479 . S
C286 C283 1.480 . S
C286 C287 1.383 . S
C286 C291 1.385 . S
C287 H268 0.947 . S
C287 C286 1.383 . S
C287 C288 1.388 . S
C288 H269 0.946 . S
C288 C287 1.388 . S
C288 C289 1.384 . S
C289 C288 1.384 . S
C289 C290 1.377 . S
C290 H270 0.953 . S
C290 C289 1.377 . S
C290 C291 1.369 . S
C291 H271 0.945 . S
C291 C286 1.385 . S
C291 C290 1.369 . S
C292 C284 1.457 . S
C292 C293 1.372 1_545 S
C292 C297 1.364 . S
C293 H272 0.952 . S
C293 C292 1.372 1_565 S
C293 C294 1.389 . S
C294 H273 0.949 . S
C294 C293 1.389 . S
C294 C295 1.387 1_565 S
C295 C294 1.387 1_545 S
C295 C296 1.372 . S
C296 H274 0.950 . S
C296 C295 1.372 . S
C296 C297 1.379 . S
C297 H275 0.948 . S
C297 C292 1.364 . S
C297 C296 1.379 . S
C298 C267 1.383 . S
C298 C285 1.479 . S
C298 C299 1.398 . S
C299 C264 1.382 . S
C299 H276 0.951 . S
C299 C298 1.398 . S
C300 C301 1.384 . S
C300 H313 0.947 . S
C300 C335 1.382 . S
C301 C300 1.384 . S
C301 C302 1.378 . S
C302 C301 1.378 . S
C302 C303 1.378 . S
C302 H314 0.952 . S
C303 C302 1.378 . S
C303 H315 0.950 . S
C303 C334 1.383 . S
H304 C323 0.947 . S
H305 C324 0.946 . S
H306 C326 0.953 . S
H307 C327 0.945 . S
H308 C329 0.952 . S
H309 C330 0.949 . S
H310 C332 0.950 . S
H311 C333 0.948 . S
H312 C335 0.951 . S
H313 C300 0.947 . S
H314 C302 0.952 . S
H315 C303 0.950 . S
N316 C319 1.382 . S
N316 C321 1.363 . S
N317 C319 1.371 . S
N317 C320 1.372 . S
N318 C320 1.361 . S
N318 C321 1.377 . S
C319 N316 1.382 . S
C319 N317 1.371 . S
C319 C322 1.480 . S
C320 N317 1.372 . S
C320 N318 1.361 . S
C320 C328 1.457 . S
C321 N316 1.363 . S
C321 N318 1.377 . S
C321 C334 1.479 . S
C322 C319 1.480 . S
C322 C323 1.383 . S
C322 C327 1.385 . S
C323 H304 0.947 . S
C323 C322 1.383 . S
C323 C324 1.388 . S
C324 H305 0.946 . S
C324 C323 1.388 . S
C324 C325 1.384 . S
C325 C324 1.384 . S
C325 C326 1.377 . S
C326 H306 0.953 . S
C326 C325 1.377 . S
C326 C327 1.369 . S
C327 H307 0.945 . S
C327 C322 1.385 . S
C327 C326 1.369 . S
C328 C320 1.457 . S
C328 C329 1.372 . S
C328 C333 1.364 . S
C329 H308 0.952 . S
C329 C328 1.372 . S
C329 C330 1.389 . S
C330 H309 0.949 . S
C330 C329 1.389 . S
C330 C331 1.387 . S
C331 C330 1.387 . S
C331 C332 1.372 . S
C332 H310 0.950 . S
C332 C331 1.372 . S
C332 C333 1.379 . S
C333 H311 0.948 . S
C333 C328 1.364 . S
C333 C332 1.379 . S
C334 C303 1.383 . S
C334 C321 1.479 . S
C334 C335 1.398 . S
C335 C300 1.382 . S
C335 H312 0.951 . S
C335 C334 1.398 . S
C336 C337 1.387 . S
C336 H340 0.950 . S
C336 C345 1.390 . S
C337 C336 1.387 . S
C337 C339 1.387 . S
H338 C345 0.950 . S
C339 C337 1.387 . S
C339 C341 1.390 . S
C339 H343 0.950 . S
H340 C336 0.950 . S
C341 C339 1.390 . S
C341 C342 1.387 . S
C341 H344 0.950 . S
C342 C341 1.387 . S
C342 C345 1.387 . S
H343 C339 0.950 . S
H344 C341 0.950 . S
C345 C336 1.390 . S
C345 H338 0.950 . S
C345 C342 1.387 . S
C346 C347 1.387 . S
C346 H350 0.950 . S
C346 C355 1.390 . S
C347 C346 1.387 . S
C347 C349 1.387 . S
H348 C355 0.950 . S
C349 C347 1.387 . S
C349 C351 1.390 . S
C349 H353 0.950 . S
H350 C346 0.950 . S
C351 C349 1.390 . S
C351 C352 1.387 . S
C351 H354 0.950 . S
C352 C351 1.387 . S
C352 C355 1.387 . S
H353 C349 0.950 . S
H354 C351 0.950 . S
C355 C346 1.390 . S
C355 H348 0.950 . S
C355 C352 1.387 . S
C356 C357 1.387 . S
C356 H360 0.950 . S
C356 C365 1.390 . S
C357 C356 1.387 . S
C357 C359 1.387 . S
H358 C365 0.950 . S
C359 C357 1.387 . S
C359 C361 1.390 . S
C359 H363 0.950 . S
H360 C356 0.950 . S
C361 C359 1.390 . S
C361 C362 1.387 . S
C361 H364 0.950 . S
C362 C361 1.387 . S
C362 C365 1.387 . S
H363 C359 0.950 . S
H364 C361 0.950 . S
C365 C356 1.390 . S
C365 H358 0.950 . S
C365 C362 1.387 . S
C366 C367 1.387 . S
C366 H370 0.950 . S
C366 C375 1.390 . S
C367 C366 1.387 . S
C367 C369 1.387 . S
H368 C375 0.950 . S
C369 C367 1.387 . S
C369 C371 1.390 . S
C369 H373 0.950 . S
H370 C366 0.950 . S
C371 C369 1.390 . S
C371 C372 1.387 . S
C371 H374 0.950 . S
C372 C371 1.387 . S
C372 C375 1.387 . S
H373 C369 0.950 . S
H374 C371 0.950 . S
C375 C366 1.390 . S
C375 H368 0.950 . S
C375 C372 1.387 . S
C376 C377 1.387 . S
C376 H380 0.950 . S
C376 C385 1.390 . S
C377 C376 1.387 . S
C377 C379 1.387 . S
H378 C385 0.950 . S
C379 C377 1.387 . S
C379 C381 1.390 . S
C379 H383 0.950 . S
H380 C376 0.950 . S
C381 C379 1.390 . S
C381 C382 1.387 . S
C381 H384 0.950 . S
C382 C381 1.387 . S
C382 C385 1.387 . S
H383 C379 0.950 . S
H384 C381 0.950 . S
C385 C376 1.390 . S
C385 H378 0.950 . S
C385 C382 1.387 . S
C386 C387 1.387 . S
C386 H390 0.950 . S
C386 C395 1.390 . S
C387 C386 1.387 . S
C387 C389 1.387 . S
H388 C395 0.950 . S
C389 C387 1.387 . S
C389 C391 1.390 . S
C389 H393 0.950 . S
H390 C386 0.950 . S
C391 C389 1.390 . S
C391 C392 1.387 . S
C391 H394 0.950 . S
C392 C391 1.387 . S
C392 C395 1.387 . S
H393 C389 0.950 . S
H394 C391 0.950 . S
C395 C386 1.390 . S
C395 H388 0.950 . S
C395 C392 1.387 . S
C396 C397 1.387 . S
C396 H400 0.950 . S
C396 C405 1.390 . S
C397 C396 1.387 . S
C397 C399 1.387 . S
H398 C405 0.950 . S
C399 C397 1.387 . S
C399 C401 1.390 . S
C399 H403 0.950 . S
H400 C396 0.950 . S
C401 C399 1.390 . S
C401 C402 1.387 . S
C401 H404 0.950 . S
C402 C401 1.387 . S
C402 C405 1.387 . S
H403 C399 0.950 . S
H404 C401 0.950 . S
C405 C396 1.390 . S
C405 H398 0.950 . S
C405 C402 1.387 . S
C406 C407 1.387 . S
C406 H410 0.950 . S
C406 C415 1.390 . S
C407 C406 1.387 . S
C407 C409 1.387 . S
H408 C415 0.950 . S
C409 C407 1.387 . S
C409 C411 1.390 . S
C409 H413 0.950 . S
H410 C406 0.950 . S
C411 C409 1.390 . S
C411 C412 1.387 . S
C411 H414 0.950 . S
C412 C411 1.387 . S
C412 C415 1.387 . S
H413 C409 0.950 . S
H414 C411 0.950 . S
C415 C406 1.390 . S
C415 H408 0.950 . S
C415 C412 1.387 . S
C416 C417 1.387 . S
C416 H420 0.950 . S
C416 C425 1.390 . S
C417 C416 1.387 . S
C417 C419 1.387 . S
H418 C425 0.950 . S
C419 C417 1.387 . S
C419 C421 1.390 . S
C419 H423 0.950 . S
H420 C416 0.950 . S
C421 C419 1.390 . S
C421 C422 1.387 . S
C421 H424 0.950 . S
C422 C421 1.387 . S
C422 C425 1.387 . S
H423 C419 0.950 . S
H424 C421 0.950 . S
C425 C416 1.390 . S
C425 H418 0.950 . S
C425 C422 1.387 . S
C426 C427 1.387 . S
C426 H430 0.950 . S
C426 C435 1.390 . S
C427 C426 1.387 . S
C427 C429 1.387 . S
H428 C435 0.950 . S
C429 C427 1.387 . S
C429 C431 1.390 . S
C429 H433 0.950 . S
H430 C426 0.950 . S
C431 C429 1.390 . S
C431 C432 1.387 . S
C431 H434 0.950 . S
C432 C431 1.387 . S
C432 C435 1.387 . S
H433 C429 0.950 . S
H434 C431 0.950 . S
C435 C426 1.390 . S
C435 H428 0.950 . S
C435 C432 1.387 . S
C436 C437 1.387 . S
C436 H440 0.950 . S
C436 C445 1.390 . S
C437 C436 1.387 . S
C437 C439 1.387 . S
H438 C445 0.950 . S
C439 C437 1.387 . S
C439 C441 1.390 . S
C439 H443 0.950 . S
H440 C436 0.950 . S
C441 C439 1.390 . S
C441 C442 1.387 . S
C441 H444 0.950 . S
C442 C441 1.387 . S
C442 C445 1.387 . S
H443 C439 0.950 . S
H444 C441 0.950 . S
C445 C436 1.390 . S
C445 H438 0.950 . S
C445 C442 1.387 . S
C446 C447 1.387 . S
C446 H450 0.950 . S
C446 C455 1.390 . S
C447 C446 1.387 . S
C447 C449 1.387 . S
H448 C455 0.950 . S
C449 C447 1.387 . S
C449 C451 1.390 . S
C449 H453 0.950 . S
H450 C446 0.950 . S
C451 C449 1.390 . S
C451 C452 1.387 . S
C451 H454 0.950 . S
C452 C451 1.387 . S
C452 C455 1.387 . S
H453 C449 0.950 . S
H454 C451 0.950 . S
C455 C446 1.390 . S
C455 H448 0.950 . S
C455 C452 1.387 . S
C456 C457 1.387 1_655 S
C456 H460 0.950 . S
C456 C465 1.390 . S
C457 C456 1.387 1_455 S
C457 C459 1.387 . S
H458 C465 0.950 . S
C459 C457 1.387 . S
C459 C461 1.390 . S
C459 H463 0.950 . S
H460 C456 0.950 . S
C461 C459 1.390 . S
C461 C462 1.387 . S
C461 H464 0.950 . S
C462 C461 1.387 . S
C462 C465 1.387 1_455 S
H463 C459 0.950 . S
H464 C461 0.950 . S
C465 C456 1.390 . S
C465 H458 0.950 . S
C465 C462 1.387 1_655 S
C466 C467 1.387 . S
C466 H470 0.950 . S
C466 C475 1.390 . S
C467 C466 1.387 . S
C467 C469 1.387 . S
H468 C475 0.950 . S
C469 C467 1.387 . S
C469 C471 1.390 . S
C469 H473 0.950 . S
H470 C466 0.950 . S
C471 C469 1.390 . S
C471 C472 1.387 . S
C471 H474 0.950 . S
C472 C471 1.387 . S
C472 C475 1.387 . S
H473 C469 0.950 . S
H474 C471 0.950 . S
C475 C466 1.390 . S
C475 H468 0.950 . S
C475 C472 1.387 . S
C476 C477 1.387 . S
C476 H480 0.950 . S
C476 C485 1.390 . S
C477 C476 1.387 . S
C477 C479 1.387 . S
H478 C485 0.950 . S
C479 C477 1.387 . S
C479 C481 1.390 . S
C479 H483 0.950 . S
H480 C476 0.950 . S
C481 C479 1.390 . S
C481 C482 1.387 . S
C481 H484 0.950 . S
C482 C481 1.387 . S
C482 C485 1.387 . S
H483 C479 0.950 . S
H484 C481 0.950 . S
C485 C476 1.390 . S
C485 H478 0.950 . S
C485 C482 1.387 . S
C486 C487 1.387 . S
C486 H490 0.950 . S
C486 C495 1.390 . S
C487 C486 1.387 . S
C487 C489 1.387 1_545 S
H488 C495 0.950 . S
C489 C487 1.387 1_565 S
C489 C491 1.390 . S
C489 H493 0.950 . S
H490 C486 0.950 . S
C491 C489 1.390 . S
C491 C492 1.387 1_565 S
C491 H494 0.950 . S
C492 C491 1.387 1_545 S
C492 C495 1.387 . S
H493 C489 0.950 . S
H494 C491 0.950 . S
C495 C486 1.390 . S
C495 H488 0.950 . S
C495 C492 1.387 . S
C496 C497 1.387 . S
C496 H500 0.950 . S
C496 C505 1.390 . S
C497 C496 1.387 . S
C497 C499 1.387 . S
H498 C505 0.950 . S
C499 C497 1.387 . S
C499 C501 1.390 . S
C499 H503 0.950 . S
H500 C496 0.950 . S
C501 C499 1.390 . S
C501 C502 1.387 . S
C501 H504 0.950 . S
C502 C501 1.387 . S
C502 C505 1.387 . S
H503 C499 0.950 . S
H504 C501 0.950 . S
C505 C496 1.390 . S
C505 H498 0.950 . S
C505 C502 1.387 . S
C506 C507 1.387 . S
C506 H510 0.950 . S
C506 C515 1.390 . S
C507 C506 1.387 . S
C507 C509 1.387 1_455 S
H508 C515 0.950 . S
C509 C507 1.387 1_655 S
C509 C511 1.390 . S
C509 H513 0.950 . S
H510 C506 0.950 . S
C511 C509 1.390 . S
C511 C512 1.387 . S
C511 H514 0.950 . S
C512 C511 1.387 . S
C512 C515 1.387 1_655 S
H513 C509 0.950 . S
H514 C511 0.950 . S
C515 C506 1.390 . S
C515 H508 0.950 . S
C515 C512 1.387 1_455 S
C337 C19 2.022 . S
C342 C325 1.930 . S
C347 C46 1.358 . S
C352 C253 1.379 . S
C357 C95 0.664 . S
C362 C289 0.590 . S
C367 C10 2.149 . S
C372 C301 2.060 . S
C382 C229 1.390 . S
C377 C55 1.362 . S
C392 C265 0.936 . S
C387 C86 0.901 . S
C397 C59 3.181 . S
C402 C181 3.081 . S
C407 C90 2.178 . S
C412 C193 2.107 . S
C417 C15 1.353 . S
C422 C121 1.395 . S
C432 C157 3.072 . S
C427 C50 3.119 . S
C442 C217 1.950 . S
C437 C99 2.019 . S
C447 C6 1.294 . S
C452 C145 1.322 . S
C462 C223 1.358 1_554 S
C457 C9 1.321 . S
C467 C58 1.450 . S
C472 C151 1.501 . S
C477 C98 1.720 . S
C482 C187 1.792 . S
C492 C295 1.060 . S
C487 C49 1.068 . S
C502 C331 1.345 1_556 S
C497 C89 1.314 . S
C507 C18 1.440 . S
C512 C259 1.475 . S
