# Generated by pormake.
# Topology ctn, (3,4)-cn, num edge types: 1
# Building blocks:
#     Node 0, Type 0, BuildingBlock: CUQRIR_clean_linker_1, # of connection points: 3
#     Node 1, Type 0, BuildingBlock: CUQRIR_clean_linker_1, # of connection points: 3
#     Node 2, Type 0, BuildingBlock: CUQRIR_clean_linker_1, # of connection points: 3
#     Node 3, Type 0, BuildingBlock: CUQRIR_clean_linker_1, # of connection points: 3
#     Node 4, Type 0, BuildingBlock: CUQRIR_clean_linker_1, # of connection points: 3
#     Node 5, Type 0, BuildingBlock: CUQRIR_clean_linker_1, # of connection points: 3
#     Node 6, Type 0, BuildingBlock: CUQRIR_clean_linker_1, # of connection points: 3
#     Node 7, Type 0, BuildingBlock: CUQRIR_clean_linker_1, # of connection points: 3
#     Node 8, Type 0, BuildingBlock: CUQRIR_clean_linker_1, # of connection points: 3
#     Node 9, Type 0, BuildingBlock: CUQRIR_clean_linker_1, # of connection points: 3
#     Node 10, Type 0, BuildingBlock: CUQRIR_clean_linker_1, # of connection points: 3
#     Node 11, Type 0, BuildingBlock: CUQRIR_clean_linker_1, # of connection points: 3
#     Node 12, Type 0, BuildingBlock: CUQRIR_clean_linker_1, # of connection points: 3
#     Node 13, Type 0, BuildingBlock: CUQRIR_clean_linker_1, # of connection points: 3
#     Node 14, Type 0, BuildingBlock: CUQRIR_clean_linker_1, # of connection points: 3
#     Node 15, Type 0, BuildingBlock: CUQRIR_clean_linker_1, # of connection points: 3
#     Node 16, Type 1, BuildingBlock: UXUYUI_clean_sbu_0, # of connection points: 4
#     Node 17, Type 1, BuildingBlock: UXUYUI_clean_sbu_0, # of connection points: 4
#     Node 18, Type 1, BuildingBlock: UXUYUI_clean_sbu_0, # of connection points: 4
#     Node 19, Type 1, BuildingBlock: UXUYUI_clean_sbu_0, # of connection points: 4
#     Node 20, Type 1, BuildingBlock: UXUYUI_clean_sbu_0, # of connection points: 4
#     Node 21, Type 1, BuildingBlock: UXUYUI_clean_sbu_0, # of connection points: 4
#     Node 22, Type 1, BuildingBlock: UXUYUI_clean_sbu_0, # of connection points: 4
#     Node 23, Type 1, BuildingBlock: UXUYUI_clean_sbu_0, # of connection points: 4
#     Node 24, Type 1, BuildingBlock: UXUYUI_clean_sbu_0, # of connection points: 4
#     Node 25, Type 1, BuildingBlock: UXUYUI_clean_sbu_0, # of connection points: 4
#     Node 26, Type 1, BuildingBlock: UXUYUI_clean_sbu_0, # of connection points: 4
#     Node 27, Type 1, BuildingBlock: UXUYUI_clean_sbu_0, # of connection points: 4
#     Edge 28, Type (0, 1), BuildingBlock: XUDNAN_clean_linker_2, # of connection points: 2
#     Edge 29, Type (0, 1), BuildingBlock: XUDNAN_clean_linker_2, # of connection points: 2
#     Edge 30, Type (0, 1), BuildingBlock: XUDNAN_clean_linker_2, # of connection points: 2
#     Edge 31, Type (0, 1), BuildingBlock: XUDNAN_clean_linker_2, # of connection points: 2
#     Edge 32, Type (0, 1), BuildingBlock: XUDNAN_clean_linker_2, # of connection points: 2
#     Edge 33, Type (0, 1), BuildingBlock: XUDNAN_clean_linker_2, # of connection points: 2
#     Edge 34, Type (0, 1), BuildingBlock: XUDNAN_clean_linker_2, # of connection points: 2
#     Edge 35, Type (0, 1), BuildingBlock: XUDNAN_clean_linker_2, # of connection points: 2
#     Edge 36, Type (0, 1), BuildingBlock: XUDNAN_clean_linker_2, # of connection points: 2
#     Edge 37, Type (0, 1), BuildingBlock: XUDNAN_clean_linker_2, # of connection points: 2
#     Edge 38, Type (0, 1), BuildingBlock: XUDNAN_clean_linker_2, # of connection points: 2
#     Edge 39, Type (0, 1), BuildingBlock: XUDNAN_clean_linker_2, # of connection points: 2
#     Edge 40, Type (0, 1), BuildingBlock: XUDNAN_clean_linker_2, # of connection points: 2
#     Edge 41, Type (0, 1), BuildingBlock: XUDNAN_clean_linker_2, # of connection points: 2
#     Edge 42, Type (0, 1), BuildingBlock: XUDNAN_clean_linker_2, # of connection points: 2
#     Edge 43, Type (0, 1), BuildingBlock: XUDNAN_clean_linker_2, # of connection points: 2
#     Edge 44, Type (0, 1), BuildingBlock: XUDNAN_clean_linker_2, # of connection points: 2
#     Edge 45, Type (0, 1), BuildingBlock: XUDNAN_clean_linker_2, # of connection points: 2
#     Edge 46, Type (0, 1), BuildingBlock: XUDNAN_clean_linker_2, # of connection points: 2
#     Edge 47, Type (0, 1), BuildingBlock: XUDNAN_clean_linker_2, # of connection points: 2
#     Edge 48, Type (0, 1), BuildingBlock: XUDNAN_clean_linker_2, # of connection points: 2
#     Edge 49, Type (0, 1), BuildingBlock: XUDNAN_clean_linker_2, # of connection points: 2
#     Edge 50, Type (0, 1), BuildingBlock: XUDNAN_clean_linker_2, # of connection points: 2
#     Edge 51, Type (0, 1), BuildingBlock: XUDNAN_clean_linker_2, # of connection points: 2
#     Edge 52, Type (0, 1), BuildingBlock: XUDNAN_clean_linker_2, # of connection points: 2
#     Edge 53, Type (0, 1), BuildingBlock: XUDNAN_clean_linker_2, # of connection points: 2
#     Edge 54, Type (0, 1), BuildingBlock: XUDNAN_clean_linker_2, # of connection points: 2
#     Edge 55, Type (0, 1), BuildingBlock: XUDNAN_clean_linker_2, # of connection points: 2
#     Edge 56, Type (0, 1), BuildingBlock: XUDNAN_clean_linker_2, # of connection points: 2
#     Edge 57, Type (0, 1), BuildingBlock: XUDNAN_clean_linker_2, # of connection points: 2
#     Edge 58, Type (0, 1), BuildingBlock: XUDNAN_clean_linker_2, # of connection points: 2
#     Edge 59, Type (0, 1), BuildingBlock: XUDNAN_clean_linker_2, # of connection points: 2
#     Edge 60, Type (0, 1), BuildingBlock: XUDNAN_clean_linker_2, # of connection points: 2
#     Edge 61, Type (0, 1), BuildingBlock: XUDNAN_clean_linker_2, # of connection points: 2
#     Edge 62, Type (0, 1), BuildingBlock: XUDNAN_clean_linker_2, # of connection points: 2
#     Edge 63, Type (0, 1), BuildingBlock: XUDNAN_clean_linker_2, # of connection points: 2
#     Edge 64, Type (0, 1), BuildingBlock: XUDNAN_clean_linker_2, # of connection points: 2
#     Edge 65, Type (0, 1), BuildingBlock: XUDNAN_clean_linker_2, # of connection points: 2
#     Edge 66, Type (0, 1), BuildingBlock: XUDNAN_clean_linker_2, # of connection points: 2
#     Edge 67, Type (0, 1), BuildingBlock: XUDNAN_clean_linker_2, # of connection points: 2
#     Edge 68, Type (0, 1), BuildingBlock: XUDNAN_clean_linker_2, # of connection points: 2
#     Edge 69, Type (0, 1), BuildingBlock: XUDNAN_clean_linker_2, # of connection points: 2
#     Edge 70, Type (0, 1), BuildingBlock: XUDNAN_clean_linker_2, # of connection points: 2
#     Edge 71, Type (0, 1), BuildingBlock: XUDNAN_clean_linker_2, # of connection points: 2
#     Edge 72, Type (0, 1), BuildingBlock: XUDNAN_clean_linker_2, # of connection points: 2
#     Edge 73, Type (0, 1), BuildingBlock: XUDNAN_clean_linker_2, # of connection points: 2
#     Edge 74, Type (0, 1), BuildingBlock: XUDNAN_clean_linker_2, # of connection points: 2
#     Edge 75, Type (0, 1), BuildingBlock: XUDNAN_clean_linker_2, # of connection points: 2
# Relax obj value: 0.078
# Max RMSD: 0.211
# Mean RMSD: 0.130
data_MOF--net-ctn--node1-UXUYUI_clean_sbu_0--node2-CUQRIR_clean_linker_1--edge1-XUDNAN_clean_linker_2
_symmetry_space_group_name_H-M    P1
_symmetry_Int_Tables_number       1
_symmetry_cell_setting            triclinic
loop_
_symmetry_equiv_pos_as_xyz
'x, y, z'
_cell_length_a     65.285237
_cell_length_b     61.019215
_cell_length_c     62.503481
_cell_angle_alpha  96.285188
_cell_angle_beta   88.867038
_cell_angle_gamma 92.591684
loop_
_atom_site_label
_atom_site_type_symbol
_atom_site_fract_x
_atom_site_fract_y
_atom_site_fract_z
_atom_type_partial_charge
C0 C 0.05536 0.03441 0.07792 0.0
N1 N 0.06358 0.0388 0.05865 0.0
N2 N 0.03871 0.04649 0.08292 0.0
C3 C 0.06385 0.01862 0.09202 0.0
C4 C 0.03696 0.05828 0.06595 0.0
N5 N 0.05187 0.05335 0.05097 0.0
C6 C 0.02114 0.07524 0.06434 0.0
H7 H 0.06941 1.00381 0.08208 0.0
H8 H 0.05229 0.01337 0.10385 0.0
H9 H 0.07705 0.02689 0.10101 0.0
H10 H 0.02856 0.09058 0.05922 0.0
H11 H 0.01268 0.07921 0.0797 0.0
H12 H 0.00984 0.06876 0.05195 0.0
C13 C 0.29163 0.72917 0.22911 0.0
N14 N 0.29945 0.71831 0.24473 0.0
N15 N 0.30387 0.74696 0.22549 0.0
C16 C 0.27173 0.72274 0.21779 0.0
C17 C 0.31952 0.74641 0.23936 0.0
N18 N 0.31703 0.72882 0.25083 0.0
C19 C 0.33674 0.76363 0.24254 0.0
H20 H 0.27141 0.72884 0.20178 0.0
H21 H 0.25893 0.73008 0.22763 0.0
H22 H 0.26911 0.70455 0.21576 0.0
H23 H 0.33598 0.77189 0.25924 0.0
H24 H 0.33613 0.77614 0.231 0.0
H25 H 0.35167 0.75565 0.24045 0.0
C26 C 0.97693 0.49477 0.07924 0.0
N27 N 0.98744 0.47599 0.07892 0.0
N28 N 0.96266 0.49269 0.06362 0.0
C29 C 0.98139 0.51568 0.09382 0.0
C30 C 0.96508 0.47225 0.05346 0.0
N31 N 0.98024 0.46212 0.06255 0.0
C32 C 0.95272 0.46234 0.03444 0.0
H33 H 0.97607 0.53032 0.08683 0.0
H34 H 0.99806 0.51797 0.09699 0.0
H35 H 0.97318 0.51457 0.1094 0.0
H36 H 0.961 0.46582 0.01943 0.0
H37 H 0.93747 0.46964 0.03449 0.0
H38 H 0.95067 0.44419 0.03442 0.0
C39 C 0.69962 0.78608 0.22759 0.0
N40 N 0.717 0.79397 0.21841 0.0
N41 N 0.69617 0.79723 0.24715 0.0
C42 C 0.68506 0.76878 0.21669 0.0
C43 C 0.71204 0.81235 0.24951 0.0
N44 N 0.7249 0.81027 0.23211 0.0
C45 C 0.71407 0.83027 0.26804 0.0
H46 H 0.67381 0.77699 0.20752 0.0
H47 H 0.67652 0.75965 0.22868 0.0
H48 H 0.6934 0.75699 0.20526 0.0
H49 H 0.72602 0.82596 0.27904 0.0
H50 H 0.69959 0.83224 0.27746 0.0
H51 H 0.7189 0.84622 0.2621 0.0
C52 C 0.03788 0.97499 0.48439 0.0
N53 N 0.05573 0.97579 0.4953 0.0
N54 N 0.03844 0.99022 0.47018 0.0
C55 C 0.01987 0.95932 0.48749 0.0
C56 C 0.05727 1.0003 0.47269 0.0
N57 N 0.06802 0.99126 0.48766 0.0
C58 C 0.06478 0.0196 0.46113 0.0
H59 H 0.02511 0.94315 0.49129 0.0
H60 H 0.01021 0.95672 0.47297 0.0
H61 H 0.01027 0.96639 0.50116 0.0
H62 H 0.05197 0.02801 0.4546 0.0
H63 H 0.07483 0.01358 0.44742 0.0
H64 H 0.07385 0.03172 0.47208 0.0
C65 C 0.20576 0.73253 0.80868 0.0
N66 N 0.22165 0.72458 0.81871 0.0
N67 N 0.19975 0.71838 0.79156 0.0
C68 C 0.19582 0.75402 0.81569 0.0
C69 C 0.21259 0.70153 0.79137 0.0
N70 N 0.2262 0.70542 0.80767 0.0
C71 C 0.21126 0.68089 0.77578 0.0
H72 H 0.18257 0.75085 0.82647 0.0
H73 H 0.19 0.76142 0.80171 0.0
H74 H 0.20677 0.76607 0.82444 0.0
H75 H 0.22232 0.6827 0.76232 0.0
H76 H 0.19578 0.67795 0.76881 0.0
H77 H 0.21524 0.66631 0.78377 0.0
C78 C 0.96513 0.53966 0.46186 0.0
N79 N 0.98125 0.55436 0.4649 0.0
N80 N 0.94876 0.54668 0.47388 0.0
C81 C 0.96529 0.51858 0.44696 0.0
C82 C 0.9555 0.56614 0.48444 0.0
N83 N 0.97525 0.57099 0.47884 0.0
C84 C 0.94346 0.57906 0.50196 0.0
H85 H 0.97535 0.5206 0.43272 0.0
H86 H 0.94957 0.51327 0.44157 0.0
H87 H 0.97144 0.50546 0.45567 0.0
H88 H 0.95364 0.58628 0.51515 0.0
H89 H 0.93126 0.56854 0.50881 0.0
H90 H 0.93612 0.59273 0.49511 0.0
C91 C 0.79565 0.80606 0.82299 0.0
N92 N 0.81137 0.79226 0.81897 0.0
N93 N 0.79559 0.82089 0.80842 0.0
C94 C 0.77955 0.80448 0.84041 0.0
C95 C 0.81173 0.81564 0.79523 0.0
N96 N 0.8212 0.798 0.80138 0.0
C97 C 0.81946 0.82912 0.77771 0.0
H98 H 0.77623 0.78705 0.84332 0.0
H99 H 0.76514 0.81175 0.83603 0.0
H100 H 0.78518 0.81381 0.85554 0.0
H101 H 0.83645 0.83076 0.7777 0.0
H102 H 0.81318 0.84582 0.77957 0.0
H103 H 0.81468 0.82057 0.7619 0.0
C104 C 0.29444 0.30376 0.31871 0.0
N105 N 0.31017 0.28988 0.31514 0.0
N106 N 0.29535 0.31914 0.30466 0.0
C107 C 0.27792 0.30234 0.33569 0.0
C108 C 0.31212 0.31423 0.29234 0.0
N109 N 0.32095 0.29615 0.29832 0.0
C110 C 0.32071 0.32807 0.27545 0.0
H111 H 0.27442 0.28494 0.33862 0.0
H112 H 0.2637 0.30968 0.3309 0.0
H113 H 0.28323 0.31173 0.35093 0.0
H114 H 0.33765 0.33004 0.27664 0.0
H115 H 0.3141 0.3446 0.27688 0.0
H116 H 0.31703 0.31961 0.25928 0.0
C117 C 0.47575 0.99254 0.58434 0.0
N118 N 0.48837 0.97536 0.58135 0.0
N119 N 0.4607 0.99031 0.56953 0.0
C120 C 0.47893 0.01234 0.60073 0.0
C121 C 0.46465 0.97117 0.55732 0.0
N122 N 0.48163 0.96221 0.56429 0.0
C123 C 0.45074 0.96018 0.54002 0.0
H124 H 0.47145 0.00882 0.61615 0.0
H125 H 0.47206 0.02707 0.59536 0.0
H126 H 0.49551 0.01601 0.60363 0.0
H127 H 0.45621 0.96499 0.5242 0.0
H128 H 0.43474 0.96534 0.54272 0.0
H129 H 0.45088 0.94194 0.53941 0.0
C130 C 0.20034 0.27796 0.72509 0.0
N131 N 0.21893 0.28656 0.71932 0.0
N132 N 0.19307 0.28944 0.74325 0.0
C133 C 0.18902 0.25872 0.71269 0.0
C134 C 0.20774 0.3055 0.74819 0.0
N135 N 0.22335 0.30392 0.73354 0.0
C136 C 0.20662 0.32303 0.76704 0.0
H137 H 0.19097 0.25954 0.69511 0.0
H138 H 0.17245 0.25804 0.71681 0.0
H139 H 0.19546 0.24317 0.71663 0.0
H140 H 0.19627 0.31776 0.77995 0.0
H141 H 0.2006 0.33812 0.7615 0.0
H142 H 0.2221 0.32726 0.77371 0.0
C143 C 0.7911 0.23567 0.72837 0.0
N144 N 0.79943 0.2235 0.74267 0.0
N145 N 0.80418 0.25252 0.7239 0.0
C146 C 0.76934 0.23263 0.72063 0.0
C147 C 0.82068 0.25032 0.73623 0.0
N148 N 0.81774 0.23289 0.74788 0.0
C149 C 0.84039 0.26405 0.73545 0.0
H150 H 0.76899 0.22142 0.7054 0.0
H151 H 0.76321 0.24861 0.71748 0.0
H152 H 0.75921 0.22524 0.73262 0.0
H153 H 0.83991 0.27823 0.74814 0.0
H154 H 0.8425 0.27053 0.71962 0.0
H155 H 0.85373 0.25422 0.73841 0.0
C156 C 0.54757 0.52575 0.57219 0.0
N157 N 0.5585 0.53504 0.55651 0.0
N158 N 0.52976 0.53595 0.57644 0.0
C159 C 0.55364 0.50591 0.58259 0.0
C160 C 0.5299 0.55147 0.5626 0.0
N161 N 0.54722 0.55079 0.5502 0.0
C162 C 0.51317 0.56746 0.56146 0.0
H163 H 0.54011 0.49705 0.58908 0.0
H164 H 0.56396 0.51144 0.59619 0.0
H165 H 0.56191 0.49431 0.57091 0.0
H166 H 0.51962 0.58368 0.55746 0.0
H167 H 0.50445 0.56982 0.57689 0.0
H168 H 0.50235 0.56079 0.54865 0.0
C169 C 0.54296 0.47022 0.97768 0.0
N170 N 0.55922 0.47151 0.99102 0.0
N171 N 0.54386 0.48707 0.96523 0.0
C172 C 0.5276 0.45101 0.97491 0.0
C173 C 0.56128 0.49875 0.97159 0.0
N174 N 0.57068 0.48936 0.98728 0.0
C175 C 0.57007 0.51832 0.96116 0.0
H176 H 0.5325 0.43934 0.96108 0.0
H177 H 0.51224 0.45662 0.97138 0.0
H178 H 0.52647 0.44216 0.9895 0.0
H179 H 0.56021 0.52282 0.94824 0.0
H180 H 0.58559 0.5147 0.95449 0.0
H181 H 0.57168 0.53285 0.97339 0.0
C182 C 0.70204 0.229 0.31855 0.0
N183 N 0.72078 0.22208 0.32305 0.0
N184 N 0.6957 0.21951 0.29906 0.0
C185 C 0.69089 0.24685 0.33202 0.0
C186 C 0.71134 0.20677 0.29172 0.0
N187 N 0.72667 0.20844 0.30622 0.0
C188 C 0.71122 0.19197 0.27084 0.0
H189 H 0.68173 0.23936 0.3447 0.0
H190 H 0.68036 0.25519 0.32214 0.0
H191 H 0.70187 0.25943 0.33998 0.0
H192 H 0.71858 0.20107 0.2581 0.0
H193 H 0.6953 0.18692 0.26594 0.0
H194 H 0.71998 0.17703 0.27221 0.0
C195 C 0.46828 0.03595 0.96661 0.0
N196 N 0.48306 0.0522 0.96585 0.0
N197 N 0.45327 0.04231 0.98086 0.0
C198 C 0.46934 0.01315 0.95486 0.0
C199 C 0.4594 0.06309 0.98874 0.0
N200 N 0.47747 0.06924 0.97951 0.0
C201 C 0.44869 0.07659 1.00694 0.0
H202 H 0.45375 1.00599 0.95105 0.0
H203 H 0.47674 1.00236 0.96533 0.0
H204 H 0.47849 0.01342 0.93973 0.0
H205 H 0.4598 0.08251 0.01974 0.0
H206 H 0.43576 0.06726 0.01396 0.0
H207 H 0.44238 0.09124 1.00084 0.0
Li208 Li 0.27665 0.90282 0.0288 0.0
Li209 Li 0.25927 0.87777 0.05332 0.0
Li210 Li 0.25553 0.8705 0.01234 0.0
Li211 Li 0.2384 0.90101 0.03306 0.0
C212 C 0.29984 0.86294 0.0292 0.0
N213 N 0.33883 0.8467 0.02706 0.0
C214 C 0.31043 0.86082 0.04804 0.0
C215 C 0.30906 0.85642 0.00924 0.0
C216 C 0.33013 0.8527 0.04664 0.0
C217 C 0.32878 0.84835 0.0085 0.0
C218 C 0.26096 0.9206 0.0754 0.0
C219 C 0.24801 0.92603 0.11191 0.0
N220 N 0.26429 0.94012 0.11728 0.0
C221 C 0.27758 0.93511 0.08127 0.0
C222 C 0.24605 0.916 0.09083 0.0
C223 C 0.27898 0.94483 0.10252 0.0
C224 C 0.3 0.93936 0.0143 0.0
N225 N 0.30066 0.92188 0.02601 0.0
C226 C 0.33598 0.93061 0.03385 0.0
C227 C 0.31809 0.91759 0.03601 0.0
C228 C 0.33594 0.94863 0.02161 0.0
C229 C 0.31754 0.95297 0.01183 0.0
H230 H 0.28584 0.94273 1.00684 0.0
H231 H 0.31814 0.90413 0.04581 0.0
C232 C 0.25412 0.84361 0.08118 0.0
N233 N 0.26298 0.86398 0.07941 0.0
C234 C 0.25762 0.83265 0.09928 0.0
C235 C 0.27908 0.86389 0.11354 0.0
C236 C 0.27538 0.87409 0.09512 0.0
C237 C 0.27024 0.84283 0.1158 0.0
H238 H 0.24452 0.83575 0.0684 0.0
H239 H 0.28293 0.88986 0.09314 0.0
C240 C 0.26288 0.90335 0.98541 0.0
N241 N 0.27834 0.90567 0.94413 0.0
C242 C 0.25069 0.91047 0.96958 0.0
C243 C 0.28298 0.8976 0.98019 0.0
C244 C 0.25876 0.91147 0.94882 0.0
C245 C 0.29052 0.89884 0.95928 0.0
C246 C 0.21356 0.86765 0.03865 0.0
C247 C 0.20077 0.86573 0.02081 0.0
C248 C 0.20499 0.86934 0.05939 0.0
C249 C 0.17954 0.86584 0.02405 0.0
C250 C 0.18368 0.86937 0.06196 0.0
N251 N 0.17151 0.86767 0.04439 0.0
C252 C 0.26485 0.82984 0.98801 0.0
C253 C 0.24125 0.85101 0.97168 0.0
C254 C 0.26479 0.81415 0.96993 0.0
N255 N 0.25357 0.84809 0.98835 0.0
C256 C 0.24036 0.83548 0.95349 0.0
C257 C 0.2525 0.81696 0.95236 0.0
H258 H 0.2741 0.82757 1.00168 0.0
H259 H 0.23225 0.86553 0.97243 0.0
C260 C 0.20608 0.92867 0.05209 0.0
N261 N 0.21407 0.91837 0.03359 0.0
C262 C 0.18885 0.94152 0.05158 0.0
C263 C 0.18838 0.93309 0.01299 0.0
C264 C 0.20537 0.92015 0.01431 0.0
C265 C 0.17978 0.94412 0.03179 0.0
H266 H 0.213 0.92697 0.0673 0.0
H267 H 0.21165 0.91145 0.99989 0.0
O268 O 0.28039 0.8707 0.03036 0.0
O269 O 0.25955 0.91072 0.05473 0.0
O270 O 0.25513 0.90184 1.00578 0.0
O271 O 0.23437 0.86832 0.03582 0.0
H272 H 0.30367 0.86567 0.06361 0.0
H273 H 0.30107 0.85728 0.99441 0.0
H274 H 0.3385 0.85118 0.06113 0.0
H275 H 0.33605 0.84331 0.99316 0.0
H276 H 0.23663 0.92253 0.12404 0.0
H277 H 0.28927 0.93884 0.06954 0.0
H278 H 0.2333 0.90452 0.08665 0.0
H279 H 0.29175 0.95609 0.1073 0.0
H280 H 0.34975 0.92639 0.04156 0.0
H281 H 0.3166 0.9669 1.00261 0.0
H282 H 0.25043 0.81647 0.1004 0.0
H283 H 0.28922 0.87219 0.12565 0.0
H284 H 0.23514 0.91514 0.97317 0.0
H285 H 0.29274 0.89252 0.99225 0.0
H286 H 0.24944 0.91687 0.93643 0.0
H287 H 0.30607 0.89444 0.95511 0.0
H288 H 0.2072 0.86447 1.00466 0.0
H289 H 0.21469 0.87067 0.07335 0.0
H290 H 0.16946 0.86455 0.01041 0.0
H291 H 0.17682 0.87077 0.07792 0.0
H292 H 0.27415 0.79991 0.96972 0.0
H293 H 0.23069 0.83818 0.94022 0.0
H294 H 0.18266 0.94914 0.06663 0.0
H295 H 0.18231 0.93461 0.99727 0.0
Li296 Li 0.1319 0.51879 0.29439 0.0
Li297 Li 0.15824 0.49453 0.27685 0.0
Li298 Li 0.15942 0.53211 0.27085 0.0
Li299 Li 0.13263 0.506 0.25279 0.0
C300 C 0.17387 0.53484 0.31139 0.0
N301 N 0.19858 0.56501 0.33645 0.0
C302 C 0.1951 0.53263 0.31139 0.0
C303 C 0.16521 0.55229 0.32432 0.0
C304 C 0.20732 0.5481 0.32409 0.0
C305 C 0.17796 0.56739 0.33684 0.0
C306 C 0.1273 0.46764 0.28377 0.0
C307 C 0.12576 0.4282 0.27446 0.0
N308 N 0.12816 0.42535 0.29553 0.0
C309 C 0.12965 0.46433 0.30534 0.0
C310 C 0.12527 0.44945 0.26819 0.0
C311 C 0.13009 0.44282 0.31096 0.0
C312 C 0.09503 0.53119 0.31771 0.0
N313 N 0.11454 0.52469 0.31942 0.0
C314 C 0.11029 0.52508 0.35758 0.0
C315 C 0.12226 0.52161 0.33885 0.0
C316 C 0.08991 0.53142 0.35642 0.0
C317 C 0.08239 0.53464 0.33608 0.0
H318 H 0.08919 0.53341 0.30205 0.0
H319 H 0.13779 0.51636 0.3398 0.0
C320 C 0.18349 0.47193 0.30222 0.0
N321 N 0.1748 0.47023 0.2825 0.0
C322 C 0.19716 0.45638 0.30725 0.0
C323 C 0.19213 0.43684 0.2719 0.0
C324 C 0.17835 0.45273 0.26762 0.0
C325 C 0.20213 0.43881 0.29181 0.0
H326 H 0.18002 0.48561 0.31403 0.0
H327 H 0.17097 0.45142 0.25218 0.0
C328 C 0.12846 0.55765 0.26549 0.0
N329 N 0.12841 0.60133 0.25775 0.0
C330 C 0.13341 0.56357 0.24499 0.0
C331 C 0.12334 0.57387 0.28203 0.0
C332 C 0.13335 0.58577 0.24141 0.0
C333 C 0.12343 0.59589 0.27779 0.0
C334 C 0.17933 0.49591 0.23972 0.0
C335 C 0.19817 0.49835 0.25015 0.0
C336 C 0.17763 0.48253 0.22016 0.0
C337 C 0.21488 0.48696 0.2411 0.0
C338 C 0.1947 0.47141 0.2116 0.0
N339 N 0.21281 0.47381 0.22219 0.0
C340 C 0.17735 0.57662 0.2805 0.0
C341 C 0.19253 0.5551 0.25117 0.0
C342 C 0.19255 0.59342 0.27932 0.0
N343 N 0.17794 0.55754 0.267 0.0
C344 C 0.20804 0.5714 0.24945 0.0
C345 C 0.20851 0.59069 0.26398 0.0
H346 H 0.16539 0.57868 0.29261 0.0
H347 H 0.1924 0.54032 0.24001 0.0
C348 C 0.10046 0.51242 0.22399 0.0
N349 N 0.11533 0.49855 0.22802 0.0
C350 C 0.08779 0.50749 0.2061 0.0
C351 C 0.10586 0.47404 0.19681 0.0
C352 C 0.11806 0.47953 0.21496 0.0
C353 C 0.09048 0.48813 0.19209 0.0
H354 H 0.09846 0.5274 0.23465 0.0
H355 H 0.12971 0.46854 0.21862 0.0
O356 O 0.16163 0.51986 0.29902 0.0
O357 O 0.12751 0.48859 0.2779 0.0
O358 O 0.12875 0.53608 0.2694 0.0
O359 O 0.16274 0.50682 0.24846 0.0
H360 H 0.20209 0.51907 0.30179 0.0
H361 H 0.14888 0.55451 0.32431 0.0
H362 H 0.22377 0.54661 0.32418 0.0
H363 H 0.17146 0.58107 0.34676 0.0
H364 H 0.1243 0.41397 0.26256 0.0
H365 H 0.13143 0.47823 0.31756 0.0
H366 H 0.12348 0.45172 0.25143 0.0
H367 H 0.13204 0.44002 0.32758 0.0
H368 H 0.117 0.52277 0.37282 0.0
H369 H 0.06675 0.53922 0.33423 0.0
H370 H 0.20393 0.45829 0.32305 0.0
H371 H 0.19542 0.42363 0.25947 0.0
H372 H 0.13744 0.55115 0.23205 0.0
H373 H 0.11952 0.56951 0.298 0.0
H374 H 0.13727 0.59063 0.22566 0.0
H375 H 0.1196 0.60865 0.29045 0.0
H376 H 0.19982 0.50886 0.26513 0.0
H377 H 0.16335 0.48082 0.21158 0.0
H378 H 0.22949 0.48858 0.24912 0.0
H379 H 0.19357 0.46093 0.19652 0.0
H380 H 0.19217 0.60805 0.29079 0.0
H381 H 0.21964 0.56883 0.23691 0.0
H382 H 0.07626 0.51893 0.20305 0.0
H383 H 0.10832 0.45879 0.18668 0.0
Li384 Li 0.75797 0.6232 1.00472 0.0
Li385 Li 0.77312 0.65498 0.0267 0.0
Li386 Li 0.78024 0.65109 0.98788 0.0
Li387 Li 0.79591 0.62607 0.01242 0.0
C388 C 0.73418 0.66067 0.01035 0.0
N389 N 0.69563 0.67175 0.02575 0.0
C390 C 0.7265 0.65298 0.02931 0.0
C391 C 0.72229 0.67404 0.99925 0.0
C392 C 0.70697 0.65875 0.03683 0.0
C393 C 0.70283 0.67944 0.00728 0.0
C394 C 0.77241 0.61669 0.05216 0.0
C395 C 0.79038 0.61029 0.0841 0.0
N396 N 0.77258 0.60228 0.09255 0.0
C397 C 0.75432 0.60827 0.06112 0.0
C398 C 0.79063 0.61762 0.06369 0.0
C399 C 0.75471 0.60112 0.08158 0.0
C400 C 0.73757 0.58207 0.00883 0.0
N401 N 0.73486 0.60204 1.00178 0.0
C402 C 0.69983 0.5915 0.99341 0.0
C403 C 0.7165 0.60687 0.9939 0.0
C404 C 0.70211 0.5708 1.00084 0.0
C405 C 0.72139 0.56617 0.00848 0.0
H406 H 0.75229 0.5786 0.01505 0.0
H407 H 0.71468 0.62271 0.9881 0.0
C408 C 0.76324 0.69739 0.04594 0.0
N409 N 0.76767 0.67697 0.05087 0.0
C410 C 0.75847 0.71408 0.0622 0.0
C411 C 0.76279 0.68857 0.08847 0.0
C412 C 0.76768 0.67243 0.07171 0.0
C413 C 0.75791 0.70976 0.08387 0.0
H414 H 0.76328 0.70067 0.02928 0.0
H415 H 0.77115 0.65624 0.07549 0.0
C416 C 0.77439 0.60923 0.96438 0.0
N417 N 0.75965 0.59193 0.92467 0.0
C418 C 0.78359 0.59119 0.95297 0.0
C419 C 0.75768 0.61848 0.95562 0.0
C420 C 0.77591 0.58268 0.93291 0.0
C421 C 0.75046 0.60949 0.93552 0.0
C422 C 0.80794 0.6772 0.02297 0.0
C423 C 0.80701 0.69751 0.01474 0.0
C424 C 0.81624 0.67629 0.04328 0.0
C425 C 0.81424 0.71666 0.02709 0.0
C426 C 0.82327 0.69582 0.05515 0.0
N427 N 0.82213 0.71543 0.04689 0.0
C428 C 0.77702 0.68544 0.96025 0.0
C429 C 0.79955 0.65744 0.9475 0.0
C430 C 0.78183 0.69692 0.94241 0.0
N431 N 0.78594 0.66612 0.96251 0.0
C432 C 0.80467 0.66825 0.92934 0.0
C433 C 0.79587 0.68838 0.9266 0.0
H434 H 0.76632 0.6921 0.97244 0.0
H435 H 0.80662 0.64217 0.94973 0.0
C436 C 0.81803 0.58786 0.01858 0.0
N437 N 0.81964 0.61 0.0174 0.0
C438 C 0.83539 0.57627 0.02245 0.0
C439 C 0.85564 0.61051 0.02401 0.0
C440 C 0.83795 0.62139 0.02002 0.0
C441 C 0.85461 0.58758 0.02517 0.0
H442 H 0.80325 0.5792 0.01647 0.0
H443 H 0.83883 0.63899 0.01906 0.0
O444 O 0.75328 0.65534 1.0027 0.0
O445 O 0.77234 0.62354 0.03204 0.0
O446 O 0.78173 0.61771 0.98404 0.0
O447 O 0.80044 0.65834 0.01136 0.0
H448 H 0.73552 0.64273 0.03815 0.0
H449 H 0.72805 0.68014 0.98455 0.0
H450 H 0.70084 0.65291 0.05148 0.0
H451 H 0.69344 0.68975 0.99884 0.0
H452 H 0.80435 0.61099 0.09322 0.0
H453 H 0.74011 0.60727 0.05238 0.0
H454 H 0.80477 0.62406 0.05705 0.0
H455 H 0.74081 0.59463 0.08872 0.0
H456 H 0.68538 0.59569 0.98705 0.0
H457 H 0.72388 0.55055 0.01452 0.0
H458 H 0.7552 0.7302 0.05775 0.0
H459 H 0.76228 0.68421 0.10481 0.0
H460 H 0.79653 0.58385 0.95957 0.0
H461 H 0.75037 0.63244 0.96422 0.0
H462 H 0.78288 0.56872 0.92388 0.0
H463 H 0.73755 0.61648 0.92855 0.0
H464 H 0.80061 0.6985 0.99906 0.0
H465 H 0.81702 0.66071 0.04991 0.0
H466 H 0.81352 0.73252 0.02097 0.0
H467 H 0.82959 0.69538 0.07096 0.0
H468 H 0.77447 0.71222 0.94093 0.0
H469 H 0.81573 0.66112 0.91777 0.0
H470 H 0.83381 0.55859 0.02296 0.0
H471 H 0.86994 0.62007 0.02637 0.0
Li472 Li 0.86973 0.03384 0.28367 0.0
Li473 Li 0.89428 0.01155 0.30092 0.0
Li474 Li 0.89831 0.01768 0.26136 0.0
Li475 Li 0.87102 0.99236 0.27354 0.0
C476 C 0.90301 0.06139 0.29455 0.0
N477 N 0.90911 0.10566 0.30881 0.0
C478 C 0.90277 0.06847 0.31658 0.0
C479 C 0.90667 0.0768 0.27978 0.0
C480 C 0.9058 0.09093 0.32347 0.0
C481 C 0.90963 0.09911 0.2873 0.0
C482 C 0.85751 1.00367 0.32161 0.0
C483 C 0.85639 0.97808 0.34845 0.0
N484 N 0.84586 0.99271 0.36197 0.0
C485 C 0.84656 0.01839 0.3357 0.0
C486 C 0.86236 0.9833 0.32797 0.0
C487 C 0.84085 0.01256 0.35606 0.0
C488 C 0.84089 0.06327 0.27099 0.0
N489 N 0.85227 0.05891 0.2879 0.0
C490 C 0.83993 0.09094 0.30918 0.0
C491 C 0.85167 0.0721 0.30694 0.0
C492 C 0.82888 0.09632 0.29157 0.0
C493 C 0.82926 0.08203 0.27239 0.0
H494 H 0.84086 0.05226 0.25628 0.0
H495 H 0.86044 0.06815 0.32038 0.0
C496 C 0.9288 1.00063 0.32352 0.0
N497 N 0.90995 0.00921 0.32642 0.0
C498 C 0.94167 0.99982 0.34105 0.0
C499 C 0.91537 0.01631 0.36438 0.0
C500 C 0.9031 0.01696 0.3464 0.0
C501 C 0.93512 1.00794 0.36188 0.0
H502 H 0.93406 0.99485 0.30745 0.0
H503 H 0.88829 0.02415 0.34841 0.0
C504 C 0.86681 0.02248 0.23427 0.0
N505 N 0.8639 0.03469 0.19317 0.0
C506 C 0.85781 1.00789 0.21797 0.0
C507 C 0.87409 0.04339 0.22971 0.0
C508 C 0.85654 0.01434 0.19728 0.0
C509 C 0.87255 0.04923 0.20883 0.0
C510 C 0.90543 0.96867 0.27031 0.0
C511 C 0.90992 0.96076 0.24898 0.0
C512 C 0.9053 0.95432 0.28626 0.0
C513 C 0.91377 0.93844 0.24388 0.0
C514 C 0.90926 0.93212 0.28053 0.0
N515 N 0.91334 0.9247 0.25963 0.0
C516 C 0.9351 0.03552 0.24483 0.0
C517 C 0.91541 0.01386 0.21828 0.0
C518 C 0.94984 0.04054 0.22938 0.0
N519 N 0.91815 0.02267 0.23904 0.0
C520 C 0.92965 0.01866 0.20224 0.0
C521 C 0.94712 0.03236 0.20763 0.0
H522 H 0.93715 0.04198 0.2615 0.0
H523 H 0.90204 1.00331 0.21407 0.0
C524 C 0.84008 0.95808 0.27796 0.0
N525 N 0.85491 0.96567 0.26469 0.0
C526 C 0.82763 0.93945 0.27108 0.0
C527 C 0.84573 0.93685 0.23691 0.0
C528 C 0.85799 0.95534 0.24454 0.0
C529 C 0.8302 0.92874 0.25019 0.0
H530 H 0.83752 0.96676 0.2937 0.0
H531 H 0.86969 0.96177 0.23415 0.0
O532 O 0.89995 0.03946 0.28752 0.0
O533 O 0.86343 0.00922 0.30172 0.0
O534 O 0.86846 0.01636 0.25458 0.0
O535 O 0.90146 0.99043 0.27557 0.0
H536 H 0.89999 0.05681 0.32823 0.0
H537 H 0.90737 0.07161 0.2627 0.0
H538 H 0.90547 0.09665 0.34047 0.0
H539 H 0.9124 0.11121 0.27604 0.0
H540 H 0.86012 0.9624 0.3536 0.0
H541 H 0.84251 0.03414 0.33098 0.0
H542 H 0.87063 0.97165 0.31718 0.0
H543 H 0.83243 0.02383 0.36715 0.0
H544 H 0.83996 0.1015 0.32428 0.0
H545 H 0.82061 0.08535 0.25857 0.0
H546 H 0.95684 0.99353 0.33816 0.0
H547 H 0.90945 0.02249 0.38008 0.0
H548 H 0.85177 0.9918 0.22124 0.0
H549 H 0.88082 0.05496 0.24218 0.0
H550 H 0.84967 1.00318 0.18451 0.0
H551 H 0.87821 0.06532 0.20508 0.0
H552 H 0.91021 0.97168 0.23647 0.0
H553 H 0.90232 0.96026 0.30292 0.0
H554 H 0.9171 0.93205 0.22741 0.0
H555 H 0.90914 0.9208 0.2927 0.0
H556 H 0.96325 0.05069 0.2345 0.0
H557 H 0.92672 0.01206 0.18575 0.0
H558 H 0.81563 0.93398 0.28173 0.0
H559 H 0.84829 0.92905 0.22072 0.0
Li560 Li 0.27483 0.15483 0.52432 0.0
Li561 Li 0.25766 0.12298 0.50259 0.0
Li562 Li 0.29597 0.12345 0.51004 0.0
Li563 Li 0.28238 0.14704 0.48388 0.0
C564 C 0.27166 0.12263 0.55212 0.0
N565 N 0.27085 0.12121 0.59617 0.0
C566 C 0.25371 0.11573 0.56246 0.0
C567 C 0.28926 0.12853 0.56414 0.0
C568 C 0.25359 0.11521 0.58476 0.0
C569 C 0.28853 0.12777 0.58639 0.0
C570 C 0.23681 0.15803 0.49269 0.0
C571 C 0.21159 0.15452 0.46474 0.0
N572 N 0.19749 0.16327 0.47916 0.0
C573 C 0.22216 0.16718 0.5072 0.0
C574 C 0.23157 0.1518 0.47126 0.0
C575 C 0.20233 0.16961 0.50006 0.0
C576 C 0.2839 0.19474 0.5518 0.0
N577 N 0.27072 0.17685 0.54831 0.0
C578 C 0.25139 0.18881 0.58007 0.0
C579 C 0.25449 0.17386 0.56183 0.0
C580 C 0.2649 0.20729 0.58431 0.0
C581 C 0.28124 0.21027 0.56977 0.0
H582 H 0.29654 0.19694 0.54069 0.0
H583 H 0.24393 0.15981 0.55845 0.0
C584 C 0.23116 0.08502 0.48893 0.0
N585 N 0.2326 0.10471 0.50146 0.0
C586 C 0.21355 0.07106 0.48997 0.0
C587 C 0.19916 0.098 0.51653 0.0
C588 C 0.21699 0.11136 0.51502 0.0
C589 C 0.1973 0.07733 0.50415 0.0
H590 H 0.24389 0.07984 0.47856 0.0
H591 H 0.2186 0.12685 0.52515 0.0
C592 C 0.32196 0.16125 0.51111 0.0
N593 N 0.36317 0.17232 0.51673 0.0
C594 C 0.33495 0.16286 0.49326 0.0
C595 C 0.32989 0.16558 0.53183 0.0
C596 C 0.35575 0.16841 0.49643 0.0
C597 C 0.35077 0.17105 0.53434 0.0
C598 C 0.28527 0.10475 0.4624 0.0
C599 C 0.3047 0.09682 0.45726 0.0
C600 C 0.27024 0.1031 0.44663 0.0
C601 C 0.30889 0.08766 0.43624 0.0
C602 C 0.27503 0.09385 0.42579 0.0
N603 N 0.2941 0.0864 0.42107 0.0
C604 C 0.31192 0.08911 0.53023 0.0
C605 C 0.33758 0.10798 0.51118 0.0
C606 C 0.32654 0.0761 0.53806 0.0
N607 N 0.31765 0.1051 0.5175 0.0
C608 C 0.35276 0.09524 0.51859 0.0
C609 C 0.34736 0.07932 0.5326 0.0
H610 H 0.29595 0.08665 0.53462 0.0
H611 H 0.34183 0.12029 0.50058 0.0
C612 C 0.27887 0.18058 0.4559 0.0
N613 N 0.28826 0.16144 0.45786 0.0
C614 C 0.28305 0.19232 0.43811 0.0
C615 C 0.30649 0.16451 0.42449 0.0
C616 C 0.30194 0.15338 0.44258 0.0
C617 C 0.29707 0.18436 0.42203 0.0
H618 H 0.2682 0.18689 0.46828 0.0
H619 H 0.30976 0.13857 0.4446 0.0
O620 O 0.272 0.12355 0.53033 0.0
O621 O 0.25623 0.15529 0.49943 0.0
O622 O 0.30154 0.15589 0.50829 0.0
O623 O 0.28091 0.11377 0.48288 0.0
H624 H 0.23999 0.11092 0.55341 0.0
H625 H 0.30335 0.13351 0.55634 0.0
H626 H 0.23977 0.11002 0.59299 0.0
H627 H 0.30204 0.13236 0.59589 0.0
H628 H 0.20729 0.1497 0.44821 0.0
H629 H 0.22602 0.17219 0.52383 0.0
H630 H 0.24284 0.145 0.45979 0.0
H631 H 0.19078 0.17653 0.51114 0.0
H632 H 0.23836 0.18608 0.5906 0.0
H633 H 0.29203 0.22427 0.57241 0.0
H634 H 0.213 0.05522 0.48027 0.0
H635 H 0.187 0.1038 0.52745 0.0
H636 H 0.32909 0.15969 0.47713 0.0
H637 H 0.32002 0.16488 0.54585 0.0
H638 H 0.36599 0.16958 0.48274 0.0
H639 H 0.35712 0.17436 0.55028 0.0
H640 H 0.31646 0.09788 0.46932 0.0
H641 H 0.25503 0.10885 0.45045 0.0
H642 H 0.3239 0.08156 0.43198 0.0
H643 H 0.26358 0.09255 0.41339 0.0
H644 H 0.32155 0.06368 0.54838 0.0
H645 H 0.3686 0.09827 0.51389 0.0
H646 H 0.27522 0.2074 0.4369 0.0
H647 H 0.31766 0.15787 0.41278 0.0
Li648 Li 0.39554 0.50706 0.79824 0.0
Li649 Li 0.36828 0.52996 0.7863 0.0
Li650 Li 0.3677 0.48931 0.77639 0.0
Li651 Li 0.39283 0.51264 0.75854 0.0
C652 C 0.36474 0.50349 0.8269 0.0
N653 N 0.36371 0.49875 0.87038 0.0
C654 C 0.35696 0.52006 0.84163 0.0
C655 C 0.37192 0.48446 0.83427 0.0
C656 C 0.35658 0.51737 0.86355 0.0
C657 C 0.3713 0.4824 0.85631 0.0
C658 C 0.40838 0.55472 0.78946 0.0
C659 C 0.42662 0.58749 0.77955 0.0
N660 N 0.42865 0.59498 0.80074 0.0
C661 C 0.41077 0.56271 0.81111 0.0
C662 C 0.41647 0.56717 0.77352 0.0
C663 C 0.421 0.58311 0.8165 0.0
C664 C 0.43148 0.49082 0.81344 0.0
N665 N 0.41574 0.50392 0.81996 0.0
C666 C 0.43062 0.51211 0.8549 0.0
C667 C 0.415 0.5144 0.84034 0.0
C668 C 0.44719 0.49877 0.84855 0.0
C669 C 0.44722 0.48781 0.82752 0.0
H670 H 0.43193 0.48279 0.79716 0.0
H671 H 0.4024 0.52475 0.84533 0.0
C672 C 0.33343 0.55611 0.78367 0.0
N673 N 0.35131 0.55508 0.79432 0.0
C674 C 0.32081 0.57396 0.78845 0.0
C675 C 0.34432 0.58883 0.8162 0.0
C676 C 0.35677 0.57092 0.81052 0.0
C677 C 0.3262 0.5906 0.8049 0.0
H678 H 0.32879 0.54298 0.77151 0.0
H679 H 0.37058 0.56952 0.81934 0.0
C680 C 0.39783 0.46369 0.76415 0.0
N681 N 0.39666 0.41963 0.74813 0.0
C682 C 0.39347 0.45741 0.74248 0.0
C683 C 0.40166 0.44759 0.77766 0.0
C684 C 0.39293 0.43504 0.7347 0.0
C685 C 0.401 0.42539 0.76925 0.0
C686 C 0.35722 0.52711 0.74274 0.0
C687 C 0.34233 0.52093 0.72717 0.0
C688 C 0.36697 0.54805 0.74355 0.0
C689 C 0.33755 0.53575 0.71268 0.0
C690 C 0.36176 0.56241 0.7288 0.0
N691 N 0.34728 0.55601 0.71378 0.0
C692 C 0.35092 0.44629 0.784 0.0
C693 C 0.33855 0.46043 0.75316 0.0
C694 C 0.33949 0.42649 0.77908 0.0
N695 N 0.35043 0.46272 0.77097 0.0
C696 C 0.32659 0.44106 0.74783 0.0
C697 C 0.32712 0.42368 0.76076 0.0
H698 H 0.36051 0.44831 0.79799 0.0
H699 H 0.33862 0.47351 0.74288 0.0
C700 C 0.42907 0.52076 0.73409 0.0
N701 N 0.40865 0.51545 0.73266 0.0
C702 C 0.44118 0.52167 0.71543 0.0
C703 C 0.41101 0.51165 0.69419 0.0
C704 C 0.39953 0.51088 0.71321 0.0
C705 C 0.4322 0.51688 0.69508 0.0
H706 H 0.43603 0.52396 0.74975 0.0
H707 H 0.3834 0.50619 0.71239 0.0
O708 O 0.36525 0.50588 0.80539 0.0
O709 O 0.39869 0.53458 0.78384 0.0
O710 O 0.39782 0.48546 0.77218 0.0
O711 O 0.36223 0.51269 0.75697 0.0
H712 H 0.35121 0.53482 0.83621 0.0
H713 H 0.37839 0.4717 0.82316 0.0
H714 H 0.35061 0.53007 0.87514 0.0
H715 H 0.37699 0.46785 0.86225 0.0
H716 H 0.43291 0.5973 0.76738 0.0
H717 H 0.4045 0.55344 0.82363 0.0
H718 H 0.41495 0.56125 0.75666 0.0
H719 H 0.42282 0.58952 0.83322 0.0
H720 H 0.4299 0.52113 0.87078 0.0
H721 H 0.4593 0.47694 0.82186 0.0
H722 H 0.30673 0.5745 0.77968 0.0
H723 H 0.34889 0.60125 0.82914 0.0
H724 H 0.39025 0.46965 0.73188 0.0
H725 H 0.4048 0.45213 0.79453 0.0
H726 H 0.38945 0.42993 0.718 0.0
H727 H 0.40382 0.41274 0.77953 0.0
H728 H 0.33452 0.50487 0.72622 0.0
H729 H 0.37826 0.55327 0.75558 0.0
H730 H 0.32609 0.53115 0.70055 0.0
H731 H 0.3692 0.57866 0.72933 0.0
H732 H 0.34023 0.41355 0.78956 0.0
H733 H 0.31741 0.43949 0.73345 0.0
H734 H 0.45748 0.52545 0.71696 0.0
H735 H 0.40333 0.50807 0.67893 0.0
Li736 Li 0.77462 0.40549 0.52477 0.0
Li737 Li 0.75915 0.37982 0.54909 0.0
Li738 Li 0.75519 0.37301 0.5096 0.0
Li739 Li 0.73697 0.40312 0.53087 0.0
C740 C 0.78983 0.35578 0.51781 0.0
N741 N 0.80619 0.31715 0.49909 0.0
C742 C 0.78848 0.33679 0.52849 0.0
C743 C 0.79956 0.35513 0.49762 0.0
C744 C 0.79686 0.31743 0.51876 0.0
C745 C 0.80768 0.33543 0.48841 0.0
C746 C 0.76228 0.41886 0.57296 0.0
C747 C 0.75093 0.42198 0.61007 0.0
N748 N 0.77005 0.42964 0.6162 0.0
C749 C 0.78178 0.42689 0.57959 0.0
C750 C 0.74668 0.41651 0.58827 0.0
C751 C 0.78542 0.43221 0.60154 0.0
C752 C 0.79426 0.44764 0.52479 0.0
N753 N 0.79719 0.4257 0.52026 0.0
C754 C 0.83058 0.4332 0.50563 0.0
C755 C 0.81507 0.41827 0.5113 0.0
C756 C 0.82773 0.45601 0.50938 0.0
C757 C 0.80939 0.46314 0.5195 0.0
H758 H 0.7799 0.45308 0.532 0.0
H759 H 0.81706 0.40076 0.50795 0.0
C760 C 0.75024 0.35134 0.58233 0.0
N761 N 0.76402 0.36622 0.57487 0.0
C762 C 0.75461 0.34094 0.60055 0.0
C763 C 0.78711 0.36151 0.60315 0.0
C764 C 0.7823 0.37116 0.58471 0.0
C765 C 0.7732 0.34613 0.61129 0.0
H766 H 0.73596 0.34737 0.57402 0.0
H767 H 0.79328 0.38248 0.57809 0.0
C768 C 0.75864 0.42042 0.49143 0.0
N769 N 0.77268 0.45516 0.46939 0.0
C770 C 0.74922 0.44067 0.49465 0.0
C771 C 0.77515 0.41783 0.4769 0.0
C772 C 0.75654 0.45802 0.48335 0.0
C773 C 0.78205 0.4356 0.46597 0.0
C774 C 0.71341 0.36645 0.53364 0.0
C775 C 0.70294 0.35724 0.5153 0.0
C776 C 0.70253 0.37199 0.5528 0.0
C777 C 0.68165 0.35393 0.51638 0.0
C778 C 0.68124 0.36846 0.55322 0.0
N779 N 0.67133 0.35959 0.53516 0.0
C780 C 0.75052 0.32894 0.48857 0.0
C781 C 0.75667 0.35686 0.46542 0.0
C782 C 0.7511 0.31255 0.47105 0.0
N783 N 0.75357 0.35059 0.48547 0.0
C784 C 0.75758 0.34107 0.44753 0.0
C785 C 0.75501 0.31856 0.45023 0.0
H786 H 0.74805 0.32439 0.50469 0.0
H787 H 0.75869 0.37413 0.46329 0.0
C788 C 0.71183 0.43872 0.54682 0.0
N789 N 0.71274 0.42037 0.53242 0.0
C790 C 0.69553 0.45286 0.54654 0.0
C791 C 0.6811 0.42873 0.51697 0.0
C792 C 0.69782 0.41527 0.5176 0.0
C793 C 0.67985 0.44811 0.53135 0.0
H794 H 0.72414 0.44281 0.55808 0.0
H795 H 0.69912 0.40099 0.50588 0.0
O796 O 0.78129 0.37476 0.52684 0.0
O797 O 0.75852 0.4132 0.5516 0.0
O798 O 0.75205 0.4034 0.50278 0.0
O799 O 0.73421 0.37001 0.53285 0.0
H800 H 0.7809 0.3369 0.54403 0.0
H801 H 0.8004 0.36953 0.48892 0.0
H802 H 0.79587 0.3026 0.52682 0.0
H803 H 0.81507 0.33465 0.47272 0.0
H804 H 0.73904 0.42013 0.62211 0.0
H805 H 0.79404 0.42876 0.56793 0.0
H806 H 0.73149 0.4104 0.58337 0.0
H807 H 0.80047 0.43832 0.60693 0.0
H808 H 0.84435 0.42688 0.49773 0.0
H809 H 0.80663 0.48052 0.52312 0.0
H810 H 0.74347 0.32918 0.60633 0.0
H811 H 0.80175 0.36572 0.61074 0.0
H812 H 0.73651 0.44308 0.50587 0.0
H813 H 0.78293 0.40246 0.47451 0.0
H814 H 0.74943 0.47379 0.48576 0.0
H815 H 0.79495 0.43389 0.45487 0.0
H816 H 0.71115 0.35288 0.50034 0.0
H817 H 0.71044 0.37903 0.56716 0.0
H818 H 0.67332 0.34693 0.50229 0.0
H819 H 0.6726 0.37277 0.56791 0.0
H820 H 0.74902 0.29538 0.47381 0.0
H821 H 0.76018 0.34645 0.43172 0.0
H822 H 0.69562 0.46772 0.55773 0.0
H823 H 0.66936 0.42399 0.50517 0.0
Li824 Li 0.6603 0.99696 0.77673 0.0
Li825 Li 0.63372 0.01998 0.79381 0.0
Li826 Li 0.63524 0.00973 0.75283 0.0
Li827 Li 0.6617 0.03533 0.77161 0.0
C828 C 0.62949 0.96891 0.77939 0.0
N829 N 0.63044 0.9248 0.78536 0.0
C830 C 0.62705 0.96231 0.80003 0.0
C831 C 0.63228 0.95312 0.76176 0.0
C832 C 0.62761 0.93992 0.80272 0.0
C833 C 0.63276 0.93088 0.76512 0.0
C834 C 0.66733 0.03794 0.81619 0.0
C835 C 0.66183 0.0741 0.83455 0.0
N836 N 0.67487 0.06999 0.85021 0.0
C837 C 0.68067 0.03407 0.83244 0.0
C838 C 0.65782 0.05811 0.81723 0.0
C839 C 0.68428 0.05049 0.84952 0.0
C840 C 0.67909 0.96926 0.80275 0.0
N841 N 0.67678 0.97263 0.78182 0.0
C842 C 0.69976 0.94392 0.77048 0.0
C843 C 0.68647 0.96007 0.7657 0.0
C844 C 0.70295 0.94048 0.79207 0.0
C845 C 0.69193 0.95312 0.80822 0.0
H846 H 0.67108 0.97934 0.81525 0.0
H847 H 0.68432 0.96298 0.74915 0.0
C848 C 0.59673 0.03257 0.81704 0.0
N849 N 0.61589 0.02507 0.81863 0.0
C850 C 0.58388 0.03557 0.83531 0.0
C851 C 0.61098 0.02377 0.85652 0.0
C852 C 0.62307 0.02057 0.83786 0.0
C853 C 0.59089 0.03103 0.85549 0.0
H854 H 0.5913 0.03592 0.80153 0.0
H855 H 0.63822 0.01433 0.83874 0.0
C856 C 0.68539 0.01028 0.74189 0.0
N857 N 0.72558 0.01164 0.72728 0.0
C858 C 0.70145 0.01103 0.75645 0.0
C859 C 0.68975 0.01025 0.71992 0.0
C860 C 0.72167 0.0117 0.74874 0.0
C861 C 0.71018 0.01093 0.71284 0.0
C862 C 0.62584 0.0573 0.76089 0.0
C863 C 0.62814 0.05798 0.73868 0.0
C864 C 0.61721 0.07494 0.77356 0.0
C865 C 0.62196 0.07646 0.72954 0.0
C866 C 0.61126 0.09314 0.76381 0.0
N867 N 0.61373 0.09351 0.74219 0.0
C868 C 0.59961 0.01055 0.72718 0.0
C869 C 0.62593 0.98882 0.71077 0.0
C870 C 0.58729 1.00549 0.70906 0.0
N871 N 0.61861 1.00235 0.72766 0.0
C872 C 0.61403 0.98312 0.69242 0.0
C873 C 0.59438 0.99156 0.69125 0.0
H874 H 0.59408 0.02122 0.74084 0.0
H875 H 0.64102 0.98234 0.71161 0.0
C876 C 0.69778 0.06179 0.78246 0.0
N877 N 0.68109 0.06054 0.76955 0.0
C878 C 0.71218 0.07945 0.78262 0.0
C879 C 0.6929 0.09391 0.75523 0.0
C880 C 0.67869 0.07603 0.75578 0.0
C881 C 0.70979 0.09594 0.76902 0.0
H882 H 0.7001 0.04899 0.79266 0.0
H883 H 0.66584 0.07462 0.74512 0.0
O884 O 0.62963 0.99079 0.77651 0.0
O885 O 0.66367 0.02195 0.79941 0.0
O886 O 0.66546 0.00984 0.74904 0.0
O887 O 0.63127 0.03913 0.7701 0.0
H888 H 0.62497 0.97439 0.81384 0.0
H889 H 0.63431 0.95802 0.7457 0.0
H890 H 0.62586 0.93456 0.81862 0.0
H891 H 0.63503 0.91847 0.75165 0.0
H892 H 0.65459 0.08978 0.83555 0.0
H893 H 0.68816 0.01854 0.83186 0.0
H894 H 0.64752 0.06142 0.80479 0.0
H895 H 0.69457 0.04772 0.86221 0.0
H896 H 0.70794 0.93479 0.75743 0.0
H897 H 0.69331 0.95077 0.82504 0.0
H898 H 0.56848 0.04089 0.83346 0.0
H899 H 0.61745 0.0205 0.8716 0.0
H900 H 0.69835 0.01111 0.77352 0.0
H901 H 0.67746 0.00974 0.70847 0.0
H902 H 0.73425 0.0123 0.75983 0.0
H903 H 0.71379 0.01091 0.69588 0.0
H904 H 0.63491 0.04454 0.72866 0.0
H905 H 0.61506 0.07453 0.79073 0.0
H906 H 0.62375 0.07726 0.7124 0.0
H907 H 0.60461 0.10693 0.77343 0.0
H908 H 0.57248 0.01276 0.70895 0.0
H909 H 0.62014 0.97202 0.67939 0.0
H910 H 0.72521 0.08004 0.79316 0.0
H911 H 0.69049 0.10621 0.7444 0.0
Li912 Li 0.02422 0.24687 0.88976 0.0
Li913 Li 1.00622 0.26206 0.92132 0.0
Li914 Li 0.01387 0.22102 0.91588 0.0
Li915 Li 0.98766 0.23839 0.89335 0.0
C916 C 0.05384 0.25097 0.91824 0.0
N917 N 0.09581 0.25788 0.91395 0.0
C918 C 0.06208 0.27138 0.91324 0.0
C919 C 0.06699 0.23407 0.92103 0.0
C920 C 0.08332 0.27454 0.91112 0.0
C921 C 0.08815 0.2379 0.91883 0.0
C922 C 0.99638 0.28902 0.89477 0.0
C923 C 0.97144 0.31616 0.90585 0.0
N924 N 0.98599 0.33251 0.90388 0.0
C925 C 0.01108 0.30611 0.89283 0.0
C926 C 0.97638 0.29409 0.9013 0.0
C927 C 1.00552 0.32798 0.8975 0.0
C928 C 0.04154 0.26799 0.85504 0.0
N929 N 0.04507 0.25223 0.86812 0.0
C930 C 0.07698 0.24457 0.84975 0.0
C931 C 0.06229 0.24036 0.86557 0.0
C932 C 0.07393 0.26111 0.83626 0.0
C933 C 0.05586 0.27288 0.83915 0.0
H934 H 0.02749 0.27674 0.85682 0.0
H935 H 0.06459 0.22747 0.87571 0.0
C936 C 0.98858 0.28607 0.95865 0.0
N937 N 1.00403 0.28659 0.94374 0.0
C938 C 0.9867 0.30344 0.9751 0.0
C939 C 0.01663 0.32166 0.96065 0.0
C940 C 0.01804 0.30386 0.94465 0.0
C941 C 1.00081 0.32162 0.97622 0.0
H942 H 0.97772 0.27212 0.95783 0.0
H943 H 0.03034 0.30396 0.9329 0.0
C944 C 0.0175 0.20884 0.86528 0.0
N945 N 0.03479 0.19317 0.82623 0.0
C946 C 0.01087 0.21614 0.84626 0.0
C947 C 0.0328 0.19346 0.86447 0.0
C948 C 0.01986 0.20806 0.82667 0.0
C949 C 0.04137 0.18575 0.84455 0.0
C950 C 0.96832 0.22685 0.92877 0.0
C951 C 0.96558 0.20433 0.93086 0.0
C952 C 0.95131 0.24006 0.92995 0.0
C953 C 0.9458 0.19535 0.9339 0.0
C954 C 0.93178 0.23046 0.93295 0.0
N955 N 0.92945 0.20848 0.93484 0.0
C956 C 0.02994 0.2016 0.95023 0.0
C957 C 0.01871 0.17502 0.92193 0.0
C958 C 0.03706 0.18507 0.96163 0.0
N959 N 0.02127 0.19641 0.93062 0.0
C960 C 0.02532 0.15787 0.93301 0.0
C961 C 0.03494 0.16286 0.95299 0.0
H962 H 0.03172 0.21872 0.95682 0.0
H963 H 0.01171 0.17129 0.90634 0.0
C964 C 0.9574 0.24853 0.86429 0.0
N965 N 0.96266 0.23284 0.87682 0.0
C966 C 0.94031 0.24514 0.85098 0.0
C967 C 0.93434 0.20924 0.86325 0.0
C968 C 0.95159 0.21334 0.87636 0.0
C969 C 0.92847 0.22524 0.85022 0.0
H970 H 0.96678 0.26356 0.86419 0.0
H971 H 0.95633 0.20078 0.88591 0.0
O972 O 0.03306 0.24752 0.92032 0.0
O973 O 1.0016 0.26745 0.89074 0.0
O974 O 0.00926 0.21698 0.88462 0.0
O975 O 0.98755 0.23588 0.92555 0.0
H976 H 0.05219 0.28444 0.91043 0.0
H977 H 0.06096 0.21807 0.92459 0.0
H978 H 0.08986 0.29019 0.90708 0.0
H979 H 0.09848 0.22495 0.92089 0.0
H980 H 0.95603 0.32029 0.91098 0.0
H981 H 0.02673 0.30258 0.88817 0.0
H982 H 0.96483 0.28112 0.90293 0.0
H983 H 0.01678 0.34135 0.89619 0.0
H984 H 0.09039 0.23469 0.8479 0.0
H985 H 0.0528 0.2859 0.82937 0.0
H986 H 0.97417 0.30276 0.98665 0.0
H987 H 0.02801 0.33516 0.96102 0.0
H988 H 0.9991 0.22812 0.84667 0.0
H989 H 0.03817 0.18778 0.87909 0.0
H990 H 0.01499 0.21366 0.81182 0.0
H991 H 0.05331 0.17395 0.84367 0.0
H992 H 0.97855 0.19385 0.93 0.0
H993 H 0.95314 0.25753 0.9285 0.0
H994 H 0.94345 0.17793 0.93545 0.0
H995 H 0.91847 0.24047 0.93379 0.0
H996 H 0.04412 0.18964 0.97711 0.0
H997 H 0.02341 0.14096 0.92579 0.0
H998 H 0.9368 0.25777 0.84089 0.0
H999 H 0.92573 0.19366 0.8633 0.0
Li1000 Li 0.52626 0.7481 0.38937 0.0
Li1001 Li 0.50681 0.7622 0.42219 0.0
Li1002 Li 0.51617 0.72327 0.41588 0.0
Li1003 Li 0.48931 0.73767 0.39378 0.0
C1004 C 0.55367 0.75994 0.41874 0.0
N1005 N 0.59184 0.78067 0.41427 0.0
C1006 C 0.55672 0.78243 0.42556 0.0
C1007 C 0.57006 0.74804 0.40953 0.0
C1008 C 0.57613 0.79259 0.42322 0.0
C1009 C 0.58922 0.75881 0.40741 0.0
C1010 C 0.49041 0.77774 0.37909 0.0
C1011 C 0.45825 0.79348 0.37224 0.0
N1012 N 0.46508 0.79676 0.35209 0.0
C1013 C 0.49712 0.78128 0.35832 0.0
C1014 C 0.47083 0.78392 0.38613 0.0
C1015 C 0.48409 0.79093 0.34492 0.0
C1016 C 0.55603 0.74097 0.35497 0.0
N1017 N 0.54696 0.75634 0.36903 0.0
C1018 C 0.56769 0.78526 0.3555 0.0
C1019 C 0.55246 0.77814 0.36949 0.0
C1020 C 0.57739 0.76981 0.34078 0.0
C1021 C 0.57141 0.74737 0.34069 0.0
H1022 H 0.55132 0.72376 0.35481 0.0
H1023 H 0.54501 0.79003 0.38082 0.0
C1024 C 0.51356 0.78572 0.4634 0.0
N1025 N 0.50418 0.78676 0.44432 0.0
C1026 C 0.51285 0.80332 0.47972 0.0
C1027 C 0.49268 0.82278 0.45661 0.0
C1028 C 0.4939 0.80485 0.44068 0.0
C1029 C 0.50233 0.82229 0.47649 0.0
H1030 H 0.52192 0.7713 0.46582 0.0
H1031 H 0.48676 0.80551 0.42536 0.0
C1032 C 0.51309 0.69608 0.38136 0.0
N1033 N 0.51432 0.65067 0.37877 0.0
C1034 C 0.49491 0.68317 0.38214 0.0
C1035 C 0.53189 0.68591 0.37926 0.0
C1036 C 0.49586 0.66023 0.38079 0.0
C1037 C 0.53219 0.66293 0.37798 0.0
C1038 C 0.47919 0.74158 0.44407 0.0
C1039 C 0.48741 0.73704 0.4635 0.0
C1040 C 0.46153 0.75371 0.44426 0.0
C1041 C 0.47783 0.7448 0.48287 0.0
C1042 C 0.45241 0.76121 0.46396 0.0
N1043 N 0.46069 0.75664 0.48269 0.0
C1044 C 0.54443 0.69468 0.43178 0.0
C1045 C 0.50972 0.6856 0.43972 0.0
C1046 C 0.55093 0.67783 0.44317 0.0
N1047 N 0.52415 0.69842 0.43037 0.0
C1048 C 0.51556 0.6687 0.45156 0.0
C1049 C 0.53649 0.66474 0.45368 0.0
H1050 H 0.55566 0.70489 0.4242 0.0
H1051 H 0.49367 0.68885 0.43844 0.0
C1052 C 0.46432 0.73412 0.35648 0.0
N1053 N 0.46401 0.73149 0.37782 0.0
C1054 C 0.44622 0.73189 0.34465 0.0
C1055 C 0.42791 0.7223 0.37643 0.0
C1056 C 0.44632 0.72531 0.3878 0.0
C1057 C 0.42747 0.72607 0.35455 0.0
H1058 H 0.47862 0.73856 0.34871 0.0
H1059 H 0.44645 0.72279 0.40465 0.0
O1060 O 0.53466 0.74977 0.42053 0.0
O1061 O 0.50284 0.76803 0.39234 0.0
O1062 O 0.51251 0.71858 0.3834 0.0
O1063 O 0.48868 0.73465 0.42498 0.0
H1064 H 0.54424 0.79208 0.43233 0.0
H1065 H 0.56791 0.73085 0.40345 0.0
H1066 H 0.57867 0.80998 0.42841 0.0
H1067 H 0.60195 0.74983 0.40015 0.0
H1068 H 0.44302 0.7982 0.37744 0.0
H1069 H 0.51212 0.77642 0.35249 0.0
H1070 H 0.46527 0.78104 0.40203 0.0
H1071 H 0.48906 0.7937 0.32878 0.0
H1072 H 0.57196 0.80268 0.35639 0.0
H1073 H 0.57827 0.73491 0.32946 0.0
H1074 H 0.52085 0.8022 0.49454 0.0
H1075 H 0.48412 0.83681 0.45337 0.0
H1076 H 0.48025 0.69078 0.384 0.0
H1077 H 0.54613 0.69568 0.37902 0.0
H1078 H 0.48192 0.65003 0.38144 0.0
H1079 H 0.54664 0.65484 0.37649 0.0
H1080 H 0.50124 0.72793 0.46366 0.0
H1081 H 0.45501 0.75745 0.42938 0.0
H1082 H 0.48409 0.74153 0.49803 0.0
H1083 H 0.43878 0.7707 0.46436 0.0
H1084 H 0.56718 0.67522 0.44378 0.0
H1085 H 0.50377 0.65933 0.45948 0.0
H1086 H 0.447 0.73531 0.32803 0.0
H1087 H 0.41421 0.7171 0.38484 0.0
Li1088 Li 0.02356 0.80235 0.63279 0.0
Li1089 Li 0.99824 0.78425 0.65908 0.0
Li1090 Li 0.03618 0.77867 0.65849 0.0
Li1091 Li 0.01564 0.7629 0.62795 0.0
C1092 C 0.0319 0.81656 0.68302 0.0
N1093 N 0.0531 0.83491 0.71895 0.0
C1094 C 0.02641 0.81057 0.70338 0.0
C1095 C 0.04806 0.83205 0.68098 0.0
C1096 C 0.03734 0.81998 0.72134 0.0
C1097 C 0.05861 0.8411 0.69932 0.0
C1098 C 0.98263 0.77995 0.61126 0.0
C1099 C 0.94863 0.7682 0.59914 0.0
N1100 N 0.95592 0.76507 0.57855 0.0
C1101 C 0.98976 0.77674 0.58996 0.0
C1102 C 0.96189 0.77574 0.6159 0.0
C1103 C 0.97602 0.76915 0.57366 0.0
C1104 C 0.03309 0.82325 0.5953 0.0
N1105 N 0.02953 0.82775 0.61682 0.0
C1106 C 0.03709 0.86632 0.61437 0.0
C1107 C 0.031 0.84891 0.62641 0.0
C1108 C 0.04192 0.86181 0.59234 0.0
C1109 C 0.03957 0.83996 0.58282 0.0
H1110 H 0.03142 0.80652 0.58781 0.0
H1111 H 0.02774 0.85229 0.64345 0.0
C1112 C 0.95992 0.7693 0.67695 0.0
N1113 N 0.97418 0.78637 0.6779 0.0
C1114 C 0.94382 0.76916 0.69216 0.0
C1115 C 0.95713 0.80428 0.70892 0.0
C1116 C 0.97271 0.80396 0.69316 0.0
C1117 C 0.94257 0.78657 0.70876 0.0
H1118 H 0.96132 0.7555 0.66466 0.0
H1119 H 0.98401 0.81749 0.69352 0.0
C1120 C 0.05918 0.78708 0.61675 0.0
N1121 N 0.0909 0.80677 0.59474 0.0
C1122 C 0.06281 0.78031 0.59494 0.0
C1123 C 0.07172 0.80387 0.62731 0.0
C1124 C 0.07892 0.79046 0.58412 0.0
C1125 C 0.08766 0.81362 0.61592 0.0
C1126 C 0.01582 0.73472 0.65891 0.0
C1127 C 0.03481 0.72618 0.65271 0.0
C1128 C 0.99982 0.72059 0.66499 0.0
C1129 C 0.03748 0.7036 0.6527 0.0
C1130 C 1.00311 0.6981 0.66477 0.0
N1131 N 0.02171 0.69014 0.65867 0.0
C1132 C 0.05121 0.76511 0.69659 0.0
C1133 C 0.07757 0.77109 0.67108 0.0
C1134 C 0.06526 0.75769 0.71043 0.0
N1135 N 0.05751 0.77177 0.67737 0.0
C1136 C 0.09217 0.76366 0.6844 0.0
C1137 C 0.08606 0.75659 0.70432 0.0
H1138 H 0.0351 0.76499 0.70094 0.0
H1139 H 0.08222 0.77544 0.65539 0.0
C1140 C 0.99481 0.72633 0.60201 0.0
N1141 N 0.01313 0.73679 0.60749 0.0
C1142 C 0.99406 0.70752 0.58698 0.0
C1143 C 0.03102 0.70985 0.58441 0.0
C1144 C 0.03104 0.72865 0.5993 0.0
C1145 C 0.01236 0.69907 0.57791 0.0
H1146 H 0.98078 0.73252 0.60932 0.0
H1147 H 0.04545 0.73662 0.60456 0.0
O1148 O 0.02149 0.8073 0.66521 0.0
O1149 O 0.9958 0.78732 0.62749 0.0
O1150 O 0.04311 0.7778 0.62755 0.0
O1151 O 0.01275 0.75671 0.65856 0.0
H1152 H 0.01406 0.79849 0.70529 0.0
H1153 H 0.05243 0.8371 0.66543 0.0
H1154 H 0.03335 0.81534 0.73715 0.0
H1155 H 0.07119 0.85305 0.69794 0.0
H1156 H 0.93254 0.76485 0.60251 0.0
H1157 H 1.00579 0.77954 0.58611 0.0
H1158 H 0.95607 0.77834 0.63226 0.0
H1159 H 0.98138 0.76638 0.55713 0.0
H1160 H 0.03858 0.88299 0.6223 0.0
H1161 H 0.04276 0.8358 0.56582 0.0
H1162 H 0.93294 0.75517 0.69144 0.0
H1163 H 0.95658 0.81818 0.72125 0.0
H1164 H 0.05302 0.76775 0.58628 0.0
H1165 H 0.06914 0.80933 0.64412 0.0
H1166 H 0.0818 0.78547 0.56722 0.0
H1167 H 0.09744 0.82666 0.62393 0.0
H1168 H 0.04727 0.73681 0.64765 0.0
H1169 H 0.98502 0.7269 0.66979 0.0
H1170 H 0.05207 0.69676 0.64785 0.0
H1171 H 0.99086 0.68697 0.66941 0.0
H1172 H 0.05978 0.75261 0.72567 0.0
H1173 H 0.10792 0.76267 0.67876 0.0
H1174 H 0.97934 0.69945 0.58281 0.0
H1175 H 0.04551 0.70392 0.57794 0.0
Li1176 Li 0.5265 0.30031 0.13266 0.0
Li1177 Li 0.49926 0.28114 0.15772 0.0
Li1178 Li 0.53605 0.27501 0.1586 0.0
Li1179 Li 0.51783 0.26028 0.12771 0.0
C1180 C 0.53411 0.31483 0.18074 0.0
N1181 N 0.55832 0.33613 0.21301 0.0
C1182 C 0.531 0.31023 0.20201 0.0
C1183 C 0.54938 0.33038 0.17588 0.0
C1184 C 0.54347 0.32112 0.21809 0.0
C1185 C 0.56148 0.34096 0.19244 0.0
C1186 C 0.48758 0.27805 0.10835 0.0
C1187 C 0.45689 0.26125 0.09174 0.0
N1188 N 0.46568 0.26275 0.072 0.0
C1189 C 0.49628 0.2796 0.08793 0.0
C1190 C 0.46771 0.26892 0.11033 0.0
C1191 C 0.48497 0.27169 0.06974 0.0
C1192 C 0.54915 0.32051 0.10136 0.0
N1193 N 0.53375 0.32467 0.11597 0.0
C1194 C 0.52917 0.35969 0.1028 0.0
C1195 C 0.52379 0.34391 0.11703 0.0
C1196 C 0.54509 0.35573 0.08743 0.0
C1197 C 0.55538 0.33593 0.08739 0.0
H1198 H 0.55644 0.30489 0.10017 0.0
H1199 H 0.51131 0.34678 0.12849 0.0
C1200 C 0.47859 0.27373 0.19541 0.0
N1201 N 0.47574 0.28328 0.1771 0.0
C1202 C 0.46315 0.27337 0.21117 0.0
C1203 C 0.4418 0.29277 0.18915 0.0
C1204 C 0.45775 0.29269 0.17365 0.0
C1205 C 0.44441 0.28308 0.20835 0.0
H1206 H 0.49293 0.26614 0.1977 0.0
H1207 H 0.45576 0.30016 0.15895 0.0
C1208 C 0.5653 0.27089 0.13029 0.0
N1209 N 0.60585 0.26155 0.1354 0.0
C1210 C 0.57075 0.24919 0.13165 0.0
C1211 C 0.58052 0.28785 0.13159 0.0
C1212 C 0.59131 0.24481 0.13426 0.0
C1213 C 0.60093 0.28278 0.13411 0.0
C1214 C 0.50474 0.23202 0.15473 0.0
C1215 C 0.51758 0.21421 0.15118 0.0
C1216 C 0.48348 0.22808 0.15526 0.0
C1217 C 0.50893 0.19277 0.14806 0.0
C1218 C 0.47542 0.20639 0.15213 0.0
N1219 N 0.48821 0.18933 0.1486 0.0
C1220 C 0.55152 0.25083 0.18998 0.0
C1221 C 0.57381 0.28116 0.18359 0.0
C1222 C 0.56485 0.24452 0.20513 0.0
N1223 N 0.55618 0.26876 0.17938 0.0
C1224 C 0.58768 0.27537 0.19861 0.0
C1225 C 0.58325 0.25682 0.20965 0.0
H1226 H 0.53735 0.24136 0.18676 0.0
H1227 H 0.57713 0.29562 0.17542 0.0
C1228 C 0.49796 0.22348 0.10109 0.0
N1229 N 0.51553 0.23614 0.1047 0.0
C1230 C 0.49728 0.20578 0.08482 0.0
C1231 C 0.53262 0.21461 0.07591 0.0
C1232 C 0.53251 0.2323 0.0921 0.0
C1233 C 0.5149 0.20095 0.07222 0.0
H1234 H 0.48448 0.22695 0.11091 0.0
H1235 H 0.54611 0.24293 0.09465 0.0
O1236 O 0.52225 0.3042 0.16471 0.0
O1237 O 0.49853 0.28533 0.12632 0.0
O1238 O 0.54516 0.27548 0.12794 0.0
O1239 O 0.51296 0.25315 0.15771 0.0
H1240 H 0.51924 0.29822 0.20601 0.0
H1241 H 0.55195 0.33409 0.15947 0.0
H1242 H 0.54135 0.31762 0.23461 0.0
H1243 H 0.57343 0.35296 0.18892 0.0
H1244 H 0.44154 0.25402 0.093 0.0
H1245 H 0.51167 0.28662 0.08619 0.0
H1246 H 0.46082 0.26758 0.12605 0.0
H1247 H 0.49153 0.27263 0.05382 0.0
H1248 H 0.5205 0.37445 0.10347 0.0
H1249 H 0.56809 0.33206 0.07647 0.0
H1250 H 0.46586 0.26526 0.22536 0.0
H1251 H 0.42773 0.30063 0.18625 0.0
H1252 H 0.5592 0.23588 0.13081 0.0
H1253 H 0.57661 0.30483 0.13119 0.0
H1254 H 0.5957 0.2281 0.13539 0.0
H1255 H 0.61283 0.29576 0.13525 0.0
H1256 H 0.53406 0.21691 0.15082 0.0
H1257 H 0.47325 0.2416 0.15768 0.0
H1258 H 0.51869 0.17885 0.14522 0.0
H1259 H 0.459 0.20312 0.15238 0.0
H1260 H 0.56085 0.22998 0.21309 0.0
H1261 H 0.60154 0.28554 0.20182 0.0
H1262 H 0.4833 0.19562 0.08251 0.0
H1263 H 0.54641 0.21167 0.06631 0.0
H1264 H 0.20202 0.73797 0.85591 0.0
H1265 H 0.26216 0.73394 0.82576 0.0
H1266 H 0.27747 0.75457 0.85852 0.0
H1267 H 0.20887 0.7933 0.87729 0.0
H1268 H 0.19399 0.79034 0.90149 0.0
H1269 H 0.18853 0.77232 0.87734 0.0
H1270 H 0.19333 0.73821 0.89777 0.0
H1271 H 0.19873 0.75613 0.92206 0.0
H1272 H 0.21685 0.73597 0.91186 0.0
H1273 H 0.28554 0.77784 0.89407 0.0
H1274 H 0.28561 0.80309 0.92798 0.0
H1275 H 0.21947 0.79479 0.93264 0.0
C1276 C 0.21844 0.74132 0.85631 0.0
C1277 C 0.23098 0.73447 0.8384 0.0
C1278 C 0.2524 0.73891 0.83947 0.0
C1279 C 0.26114 0.75065 0.85795 0.0
C1280 C 0.24817 0.75792 0.87507 0.0
C1281 C 0.22724 0.75345 0.87431 0.0
C1282 C 0.21633 0.76478 0.89377 0.0
C1283 C 0.20104 0.78116 0.88707 0.0
C1284 C 0.20569 0.74775 0.90716 0.0
C1285 C 0.23432 0.77663 0.90557 0.0
C1286 C 0.25262 0.77215 0.89478 0.0
C1287 C 0.2713 0.78138 0.90264 0.0
C1288 C 0.27121 0.79565 0.92188 0.0
C1289 C 0.25255 0.80087 0.93279 0.0
C1290 C 0.23393 0.79113 0.92453 0.0
H1291 H 0.99639 0.576 0.43216 0.0
H1292 H 0.00956 0.52622 0.47346 0.0
H1293 H 0.04064 0.5168 0.45156 0.0
H1294 H 0.00901 0.54514 0.38408 0.0
H1295 H 0.02041 0.56757 0.3708 0.0
H1296 H 1.00114 0.57293 0.39147 0.0
H1297 H 0.02593 0.60118 0.41286 0.0
H1298 H 0.04521 0.59619 0.39206 0.0
H1299 H 0.05096 0.59292 0.41959 0.0
H1300 H 0.06747 0.50983 0.42295 0.0
H1301 H 0.08945 0.50652 0.39048 0.0
H1302 H 0.05945 0.56124 0.36714 0.0
C1303 C 1.00637 0.56375 0.43693 0.0
C1304 C 1.00111 0.55215 0.45472 0.0
C1305 C 0.01381 0.53552 0.46014 0.0
C1306 C 0.03135 0.53005 0.44775 0.0
C1307 C 0.0359 0.54134 0.42989 0.0
C1308 C 0.0239 0.558 0.42455 0.0
C1309 C 0.0313 0.56624 0.40355 0.0
C1310 C 0.01446 0.56276 0.38647 0.0
C1311 C 0.0388 0.59058 0.40724 0.0
C1312 C 0.04898 0.55128 0.39768 0.0
C1313 C 0.05142 0.53718 0.4132 0.0
C1314 C 0.066 0.5211 0.41091 0.0
C1315 C 0.07852 0.51944 0.39237 0.0
C1316 C 0.07653 0.5338 0.3762 0.0
C1317 C 0.06147 0.54995 0.37906 0.0
H1318 H 0.81569 0.79383 0.86209 0.0
H1319 H 0.81539 0.74952 0.80316 0.0
H1320 H 0.81454 0.71744 0.8245 0.0
H1321 H 0.84473 0.75967 0.89596 0.0
H1322 H 0.82893 0.76736 0.91932 0.0
H1323 H 0.83354 0.78632 0.8994 0.0
H1324 H 0.79435 0.78894 0.89529 0.0
H1325 H 0.78958 0.76974 0.91489 0.0
H1326 H 0.77879 0.7641 0.88843 0.0
H1327 H 0.8092 0.69031 0.85267 0.0
H1328 H 0.801 0.67067 0.88453 0.0
H1329 H 0.80281 0.73317 0.92503 0.0
C1330 C 0.81595 0.77735 0.85374 0.0
C1331 C 0.81563 0.77406 0.831 0.0
C1332 C 0.81595 0.75233 0.82055 0.0
C1333 C 0.81529 0.73406 0.83258 0.0
C1334 C 0.81438 0.73787 0.85505 0.0
C1335 C 0.81492 0.75905 0.8655 0.0
C1336 C 0.81177 0.75887 0.8896 0.0
C1337 C 0.83089 0.76863 0.90179 0.0
C1338 C 0.79248 0.77113 0.89751 0.0
C1339 C 0.80891 0.7343 0.89113 0.0
C1340 C 0.81073 0.72242 0.87108 0.0
C1341 C 0.80802 0.69948 0.86844 0.0
C1342 C 0.80339 0.68845 0.88668 0.0
C1343 C 0.80127 0.70029 0.9074 0.0
C1344 C 0.80417 0.72357 0.90948 0.0
H1345 H 0.02434 0.96744 0.43338 0.0
H1346 H 0.01572 0.02594 0.47774 0.0
H1347 H 0.98786 0.03676 0.45507 0.0
H1348 H 0.01582 0.99191 0.3848 0.0
H1349 H 1.00225 0.96799 0.37155 0.0
H1350 H 0.02116 0.96474 0.39142 0.0
H1351 H 0.9942 0.94338 0.41306 0.0
H1352 H 0.97521 0.94649 0.39321 0.0
H1353 H 0.97036 0.95588 0.42113 0.0
H1354 H 0.96186 0.04161 0.42704 0.0
H1355 H 0.93889 0.04013 0.39612 0.0
H1356 H 0.96336 0.97746 0.37025 0.0
C1357 C 0.01643 0.98244 0.43822 0.0
C1358 C 0.022 0.996 0.45715 0.0
C1359 C 0.01151 0.01552 0.46321 0.0
C1360 C 0.99576 0.02171 0.45046 0.0
C1361 C 0.99063 1.00808 0.43177 0.0
C1362 C 1.00058 0.98879 0.42569 0.0
C1363 C 0.99211 0.97718 0.4048 0.0
C1364 C 0.00883 0.97535 0.3871 0.0
C1365 C 0.98239 0.95438 0.40826 0.0
C1366 C 0.97597 0.99302 0.4 0.0
C1367 C 0.97539 0.01072 0.41577 0.0
C1368 C 0.96203 0.02771 0.41471 0.0
C1369 C 0.94889 0.02661 0.3971 0.0
C1370 C 0.94903 0.00857 0.3807 0.0
C1371 C 0.96285 0.99157 0.38233 0.0
H1372 H 0.23067 0.2453 0.70554 0.0
H1373 H 0.23256 0.31241 0.68903 0.0
H1374 H 0.24797 0.29992 0.65347 0.0
H1375 H 0.27726 0.22659 0.67556 0.0
H1376 H 0.2656 0.19975 0.6672 0.0
H1377 H 0.25805 0.21462 0.69243 0.0
H1378 H 0.22015 0.21131 0.68049 0.0
H1379 H 0.22757 0.1966 0.6552 0.0
H1380 H 0.2134 0.22133 0.65559 0.0
H1381 H 0.25999 0.27927 0.61833 0.0
H1382 H 0.26713 0.25252 0.58667 0.0
H1383 H 0.25519 0.19855 0.6256 0.0
C1384 C 0.23459 0.25735 0.6945 0.0
C1385 C 0.23052 0.27981 0.69998 0.0
C1386 C 0.23592 0.2952 0.68524 0.0
C1387 C 0.24455 0.2882 0.66498 0.0
C1388 C 0.24761 0.26575 0.65973 0.0
C1389 C 0.24284 0.25056 0.67414 0.0
C1390 C 0.24581 0.22719 0.66399 0.0
C1391 C 0.26269 0.21641 0.67548 0.0
C1392 C 0.22553 0.2133 0.66381 0.0
C1393 C 0.25257 0.2315 0.64146 0.0
C1394 C 0.25384 0.25385 0.63939 0.0
C1395 C 0.25923 0.26175 0.61985 0.0
C1396 C 0.26332 0.24644 0.60196 0.0
C1397 C 0.26172 0.22344 0.60363 0.0
C1398 C 0.25642 0.21601 0.62375 0.0
H1399 H 0.522 0.55625 0.61622 0.0
H1400 H 0.50141 0.50286 0.56929 0.0
H1401 H 0.47383 0.49212 0.59454 0.0
H1402 H 0.51337 0.52754 0.66307 0.0
H1403 H 0.50463 0.55127 0.67992 0.0
H1404 H 0.5224 0.55489 0.65805 0.0
H1405 H 0.49754 0.58074 0.64239 0.0
H1406 H 0.47972 0.57727 0.66426 0.0
H1407 H 0.47147 0.57111 0.63682 0.0
H1408 H 0.44922 0.48691 0.62513 0.0
H1409 H 0.42865 0.4876 0.65865 0.0
H1410 H 0.4647 0.54516 0.68582 0.0
C1411 C 0.51154 0.54239 0.61141 0.0
C1412 C 0.51357 0.53026 0.591 0.0
C1413 C 0.49985 0.51219 0.58495 0.0
C1414 C 0.48426 0.50605 0.59916 0.0
C1415 C 0.48264 0.51825 0.6193 0.0
C1416 C 0.49586 0.53608 0.62542 0.0
C1417 C 0.49081 0.54632 0.64802 0.0
C1418 C 0.50888 0.54492 0.66316 0.0
C1419 C 0.4845 0.57028 0.64785 0.0
C1420 C 0.47276 0.5314 0.65369 0.0
C1421 C 0.46832 0.51534 0.63688 0.0
C1422 C 0.45245 0.49952 0.63834 0.0
C1423 C 0.44074 0.50015 0.65743 0.0
C1424 C 0.44486 0.51654 0.67491 0.0
C1425 C 0.46119 0.53232 0.67289 0.0
H1426 H 0.79047 0.24707 0.68272 0.0
H1427 H 0.80978 0.29658 0.73419 0.0
H1428 H 0.80406 0.32598 0.71094 0.0
H1429 H 0.81187 0.27397 0.63851 0.0
H1430 H 0.79061 0.26606 0.62094 0.0
H1431 H 0.79679 0.24895 0.64143 0.0
H1432 H 0.75972 0.25146 0.65679 0.0
H1433 H 0.75343 0.26858 0.63633 0.0
H1434 H 0.74945 0.27818 0.66436 0.0
H1435 H 0.79681 0.3499 0.68182 0.0
H1436 H 0.78739 0.36682 0.64941 0.0
H1437 H 0.77063 0.302 0.61737 0.0
C1438 C 0.79336 0.26412 0.68907 0.0
C1439 C 0.80078 0.26959 0.71018 0.0
C1440 C 0.80451 0.29206 0.71794 0.0
C1441 C 0.80115 0.30884 0.70489 0.0
C1442 C 0.79381 0.30291 0.68417 0.0
C1443 C 0.78982 0.2811 0.67633 0.0
C1444 C 0.78163 0.27924 0.65361 0.0
C1445 C 0.79609 0.26629 0.63768 0.0
C1446 C 0.75976 0.26875 0.65273 0.0
C1447 C 0.78175 0.3034 0.64984 0.0
C1448 C 0.78895 0.31675 0.66765 0.0
C1449 C 0.79105 0.33961 0.66783 0.0
C1450 C 0.78573 0.34907 0.64934 0.0
C1451 C 0.7782 0.33576 0.63092 0.0
C1452 C 0.77608 0.31262 0.63131 0.0
H1453 H 0.4902 0.97532 0.62455 0.0
H1454 H 0.52709 0.97005 0.56613 0.0
H1455 H 0.55865 0.9711 0.58785 0.0
H1456 H 0.52227 0.01407 0.65425 0.0
H1457 H 0.51821 1.00298 0.67964 0.0
H1458 H 0.49866 0.99898 0.65951 0.0
H1459 H 0.49889 0.95664 0.6604 0.0
H1460 H 0.5183 0.9605 0.68074 0.0
H1461 H 0.5227 0.94283 0.65618 0.0
H1462 H 0.58618 0.97707 0.6164 0.0
H1463 H 0.6073 0.98526 0.64879 0.0
H1464 H 0.5521 0.98589 0.68878 0.0
C1465 C 0.50495 0.97399 0.6164 0.0
C1466 C 0.50635 0.97257 0.59372 0.0
C1467 C 0.5258 0.97088 0.58349 0.0
C1468 C 0.54374 0.9716 0.59572 0.0
C1469 C 0.54189 0.97382 0.61815 0.0
C1470 C 0.52293 0.9747 0.62838 0.0
C1471 C 0.52507 0.97822 0.65264 0.0
C1472 C 0.51548 0.99985 0.66205 0.0
C1473 C 0.51568 0.95836 0.6631 0.0
C1474 C 0.54822 0.97972 0.65453 0.0
C1475 C 0.55766 0.97704 0.63449 0.0
C1476 C 0.57893 0.9788 0.63218 0.0
C1477 C 0.59083 0.98335 0.65077 0.0
C1478 C 0.58154 0.98611 0.67157 0.0
C1479 C 0.55986 0.98409 0.67327 0.0
H1480 H 0.83487 0.25863 0.78133 0.0
H1481 H 0.8327 0.19221 0.74892 0.0
H1482 H 0.85939 0.18191 0.77335 0.0
H1483 H 0.88852 0.26355 0.78674 0.0
H1484 H 0.88799 0.27964 0.8127 0.0
H1485 H 0.8673 0.28082 0.7943 0.0
H1486 H 0.84118 0.26953 0.8233 0.0
H1487 H 0.86178 0.2684 0.84186 0.0
H1488 H 0.84462 0.24466 0.83571 0.0
H1489 H 0.88839 0.18005 0.79996 0.0
H1490 H 0.91668 0.18645 0.82589 0.0
H1491 H 0.90001 0.25459 0.84038 0.0
C1492 C 0.83993 0.24188 0.77955 0.0
C1493 C 0.83177 0.22616 0.76331 0.0
C1494 C 0.83863 0.20436 0.76144 0.0
C1495 C 0.85382 0.19846 0.77519 0.0
C1496 C 0.86195 0.21456 0.79072 0.0
C1497 C 0.85513 0.23582 0.79299 0.0
C1498 C 0.86701 0.25043 0.81008 0.0
C1499 C 0.87838 0.26975 0.80037 0.0
C1500 C 0.8528 0.25874 0.82885 0.0
C1501 C 0.88186 0.23422 0.81691 0.0
C1502 C 0.87862 0.21357 0.80572 0.0
C1503 C 0.89088 0.19611 0.80894 0.0
C1504 C 0.90689 0.1999 0.82384 0.0
C1505 C 0.91066 0.22102 0.83534 0.0
C1506 C 0.89774 0.23828 0.83181 0.0
H1507 H 0.49254 0.94891 0.52319 0.0
H1508 H 0.48698 0.92761 0.58687 0.0
H1509 H 0.49423 0.88937 0.57171 0.0
H1510 H 0.46654 0.90348 0.49651 0.0
H1511 H 0.48223 0.90195 0.47238 0.0
H1512 H 0.47971 0.92798 0.48856 0.0
H1513 H 0.51918 0.93253 0.49215 0.0
H1514 H 0.52188 0.90664 0.47569 0.0
H1515 H 0.53307 0.91092 0.50203 0.0
H1516 H 0.49781 0.85276 0.54869 0.0
H1517 H 0.49946 0.8213 0.52044 0.0
H1518 H 0.50302 0.8668 0.47158 0.0
C1519 C 0.49339 0.93623 0.53392 0.0
C1520 C 0.48939 0.94107 0.55617 0.0
C1521 C 0.49036 0.92417 0.56984 0.0
C1522 C 0.49432 0.90245 0.56132 0.0
C1523 C 0.4974 0.898 0.53911 0.0
C1524 C 0.49725 0.91452 0.52564 0.0
C1525 C 0.49966 0.90528 0.50226 0.0
C1526 C 0.48092 0.90995 0.48916 0.0
C1527 C 0.51964 0.91438 0.49246 0.0
C1528 C 0.50068 0.88089 0.50456 0.0
C1529 C 0.49948 0.87702 0.52594 0.0
C1530 C 0.49915 0.85567 0.53193 0.0
C1531 C 0.50017 0.83786 0.51572 0.0
C1532 C 0.50151 0.8414 0.49364 0.0
C1533 C 0.50185 0.86334 0.48818 0.0
H1534 H 0.186 0.27624 0.78282 0.0
H1535 H 0.1562 0.29624 0.72734 0.0
H1536 H 0.1222 0.29058 0.74484 0.0
H1537 H 0.14849 0.23418 0.79509 0.0
H1538 H 0.15019 0.2406 0.82386 0.0
H1539 H 0.17205 0.24593 0.80686 0.0
H1540 H 0.17387 0.28689 0.82312 0.0
H1541 H 0.15208 0.28165 0.84025 0.0
H1542 H 0.1515 0.30309 0.82262 0.0
H1543 H 0.09167 0.28184 0.76803 0.0
H1544 H 0.06651 0.27261 0.79588 0.0
H1545 H 0.11626 0.26038 0.83759 0.0
C1546 C 0.17223 0.27942 0.77451 0.0
C1547 C 0.17347 0.28649 0.75374 0.0
C1548 C 0.15533 0.29065 0.7432 0.0
C1549 C 0.13606 0.28749 0.75301 0.0
C1550 C 0.13528 0.28038 0.77349 0.0
C1551 C 0.15288 0.27657 0.78421 0.0
C1552 C 0.14776 0.26949 0.80629 0.0
C1553 C 0.15506 0.24616 0.80812 0.0
C1554 C 0.15684 0.28628 0.82412 0.0
C1555 C 0.12454 0.26976 0.80624 0.0
C1556 C 0.11768 0.27599 0.78713 0.0
C1557 C 0.09687 0.27717 0.78316 0.0
C1558 C 0.08268 0.27203 0.7992 0.0
C1559 C 0.08928 0.26596 0.81915 0.0
C1560 C 0.11058 0.26475 0.82254 0.0
H1561 H 0.52489 0.5565 0.51551 0.0
H1562 H 0.58069 0.5784 0.54901 0.0
H1563 H 0.58581 0.60861 0.52556 0.0
H1564 H 0.54135 0.57138 0.46111 0.0
H1565 H 0.51616 0.58016 0.45565 0.0
H1566 H 0.51898 0.55847 0.47264 0.0
H1567 H 0.49826 0.5805 0.50285 0.0
H1568 H 0.49564 0.6024 0.48616 0.0
H1569 H 0.5068 0.60828 0.51242 0.0
H1570 H 0.58188 0.63936 0.50194 0.0
H1571 H 0.57087 0.66666 0.47882 0.0
H1572 H 0.5174 0.62439 0.46027 0.0
C1573 C 0.53846 0.56734 0.51743 0.0
C1574 C 0.5525 0.56519 0.53391 0.0
C1575 C 0.57 0.57969 0.53622 0.0
C1576 C 0.57289 0.59692 0.52308 0.0
C1577 C 0.5582 0.59925 0.5076 0.0
C1578 C 0.54147 0.58462 0.50452 0.0
C1579 C 0.52708 0.59163 0.48801 0.0
C1580 C 0.52582 0.57438 0.46817 0.0
C1581 C 0.50569 0.59596 0.49796 0.0
C1582 C 0.538 0.61284 0.48265 0.0
C1583 C 0.55598 0.61687 0.494 0.0
C1584 C 0.56806 0.63609 0.49263 0.0
C1585 C 0.56167 0.6515 0.47929 0.0
C1586 C 0.54332 0.64775 0.46733 0.0
C1587 C 0.53146 0.62798 0.46911 0.0
H1588 H 0.82934 0.78228 0.76012 0.0
H1589 H 0.85676 0.7978 0.82264 0.0
H1590 H 0.89136 0.79353 0.80595 0.0
H1591 H 0.86821 0.74222 0.7368 0.0
H1592 H 0.867 0.75192 0.71064 0.0
H1593 H 0.84466 0.75254 0.7281 0.0
H1594 H 0.8423 0.79432 0.72501 0.0
H1595 H 0.8648 0.79398 0.70791 0.0
H1596 H 0.86403 0.81272 0.73227 0.0
H1597 H 0.92282 0.79355 0.78156 0.0
H1598 H 0.94868 0.79397 0.75213 0.0
H1599 H 0.90083 0.77796 0.70516 0.0
C1600 C 0.84267 0.78393 0.7703 0.0
C1601 C 0.8405 0.79007 0.79268 0.0
C1602 C 0.85817 0.79262 0.80557 0.0
C1603 C 0.87784 0.79043 0.79615 0.0
C1604 C 0.87952 0.78543 0.77384 0.0
C1605 C 0.86236 0.78178 0.76113 0.0
C1606 C 0.86829 0.77823 0.73742 0.0
C1607 C 0.86165 0.75483 0.72767 0.0
C1608 C 0.85932 0.79586 0.72493 0.0
C1609 C 0.89146 0.78106 0.73868 0.0
C1610 C 0.89763 0.78519 0.75984 0.0
C1611 C 0.91816 0.78992 0.76498 0.0
C1612 C 0.93273 0.79031 0.74815 0.0
C1613 C 0.92682 0.78588 0.72635 0.0
C1614 C 0.90587 0.78104 0.72166 0.0
H1615 H 0.03439 0.96985 0.53194 0.0
H1616 H 0.08753 0.94884 0.49406 0.0
H1617 H 0.09209 0.91922 0.51759 0.0
H1618 H 0.05248 0.95629 0.5852 0.0
H1619 H 0.02713 0.94688 0.59301 0.0
H1620 H 0.03026 0.96837 0.57543 0.0
H1621 H 1.00713 0.94537 0.54733 0.0
H1622 H 1.00408 0.92374 0.56466 0.0
H1623 H 0.01377 0.91766 0.53755 0.0
H1624 H 0.08755 0.88873 0.54181 0.0
H1625 H 0.07578 0.86114 0.56605 0.0
H1626 H 0.02532 0.9019 0.58836 0.0
C1627 C 0.04727 0.95931 0.52901 0.0
C1628 C 0.0607 0.96155 0.51129 0.0
C1629 C 0.07732 0.94749 0.50775 0.0
C1630 C 0.0799 0.93059 0.52096 0.0
C1631 C 0.06582 0.92817 0.53777 0.0
C1632 C 0.04998 0.94237 0.54201 0.0
C1633 C 0.03598 0.93524 0.5599 0.0
C1634 C 0.0365 0.95274 0.57955 0.0
C1635 C 0.01394 0.9302 0.55187 0.0
C1636 C 0.04602 0.91442 0.56469 0.0
C1637 C 0.06329 0.91071 0.55183 0.0
C1638 C 0.07428 0.8917 0.5522 0.0
C1639 C 0.06742 0.87606 0.56593 0.0
C1640 C 0.04974 0.87945 0.5792 0.0
C1641 C 0.03911 0.89908 0.57873 0.0
H1642 H 0.19362 0.74665 0.76202 0.0
H1643 H 0.1651 0.69315 0.79347 0.0
H1644 H 0.133 0.69624 0.77361 0.0
H1645 H 0.1494 0.77928 0.76409 0.0
H1646 H 0.15426 0.78929 0.7383 0.0
H1647 H 0.1753 0.7818 0.75383 0.0
H1648 H 0.18705 0.75458 0.72166 0.0
H1649 H 0.16606 0.76202 0.706 0.0
H1650 H 0.16916 0.73352 0.70986 0.0
H1651 H 0.10399 0.70589 0.75111 0.0
H1652 H 0.07966 0.72139 0.72782 0.0
H1653 H 0.1265 0.77015 0.71208 0.0
C1654 C 0.1806 0.73551 0.76444 0.0
C1655 C 0.18168 0.71947 0.77897 0.0
C1656 C 0.16445 0.70528 0.78212 0.0
C1657 C 0.14624 0.70699 0.77098 0.0
C1658 C 0.14554 0.72312 0.75687 0.0
C1659 C 0.16225 0.73717 0.75357 0.0
C1660 C 0.15716 0.75365 0.73818 0.0
C1661 C 0.15915 0.77741 0.74927 0.0
C1662 C 0.17066 0.75076 0.71771 0.0
C1663 C 0.13498 0.74673 0.7334 0.0
C1664 C 0.12863 0.72904 0.74429 0.0
C1665 C 0.10876 0.7198 0.74257 0.0
C1666 C 0.09498 0.72888 0.72941 0.0
C1667 C 0.10101 0.74716 0.71819 0.0
C1668 C 0.12138 0.75608 0.72024 0.0
H1669 H 0.96703 0.61414 0.48268 0.0
H1670 H 0.01111 0.56811 0.49905 0.0
H1671 H 0.02819 0.59763 0.52364 0.0
H1672 H 1.00104 0.66579 0.48899 0.0
H1673 H 0.98044 0.6818 0.50106 0.0
H1674 H 0.97492 0.65861 0.48128 0.0
H1675 H 0.94979 0.64189 0.50834 0.0
H1676 H 0.9555 0.66471 0.52837 0.0
H1677 H 0.95893 0.63687 0.53432 0.0
H1678 H 0.037 0.63055 0.55043 0.0
H1679 H 0.03768 0.66424 0.57625 0.0
H1680 H 0.9863 0.68821 0.54394 0.0
C1681 C 0.98074 0.6106 0.4909 0.0
C1682 C 0.98801 0.58902 0.48879 0.0
C1683 C 1.0057 0.58469 0.50003 0.0
C1684 C 0.01533 0.60132 0.51418 0.0
C1685 C 1.00702 0.62215 0.51687 0.0
C1686 C 0.99021 0.62689 0.50536 0.0
C1687 C 0.98268 0.6496 0.513 0.0
C1688 C 0.98491 0.66485 0.49501 0.0
C1689 C 0.96041 0.64817 0.52151 0.0
C1690 C 0.9975 0.65671 0.53103 0.0
C1691 C 0.01162 0.64081 0.5328 0.0
C1692 C 0.02624 0.64326 0.54893 0.0
C1693 C 0.02651 0.66247 0.56352 0.0
C1694 C 0.01211 0.67895 0.56209 0.0
C1695 C 0.99747 0.67593 0.54553 0.0
H1696 H 0.75711 0.82122 0.25828 0.0
H1697 H 0.73103 0.83375 0.19792 0.0
H1698 H 0.75797 0.86285 0.19392 0.0
H1699 H 0.76485 0.87676 0.2771 0.0
H1700 H 0.7882 0.87362 0.29117 0.0
H1701 H 0.7696 0.85093 0.28721 0.0
H1702 H 0.79728 0.82601 0.26857 0.0
H1703 H 0.81606 0.84859 0.27263 0.0
H1704 H 0.81169 0.83493 0.24595 0.0
H1705 H 0.78574 0.89311 0.19839 0.0
H1706 H 0.81101 0.92273 0.21134 0.0
H1707 H 0.81702 0.89275 0.27057 0.0
C1708 C 0.75737 0.82984 0.24404 0.0
C1709 C 0.74226 0.82491 0.22816 0.0
C1710 C 0.74288 0.83666 0.20985 0.0
C1711 C 0.75802 0.8534 0.20759 0.0
C1712 C 0.7723 0.85836 0.22394 0.0
C1713 C 0.77206 0.84693 0.24185 0.0
C1714 C 0.78755 0.85703 0.25825 0.0
C1715 C 0.77691 0.86506 0.27969 0.0
C1716 C 0.80413 0.84066 0.26153 0.0
C1717 C 0.79628 0.87622 0.24698 0.0
C1718 C 0.78755 0.87646 0.22704 0.0
C1719 C 0.7928 0.89294 0.21389 0.0
C1720 C 0.80722 0.90967 0.22136 0.0
C1721 C 0.81604 0.91003 0.24194 0.0
C1722 C 0.81052 0.89295 0.2548 0.0
H1723 H 0.74029 0.17866 0.33116 0.0
H1724 H 0.75522 0.2125 0.27523 0.0
H1725 H 0.78532 0.1895 0.26737 0.0
H1726 H 0.79448 0.16973 0.3462 0.0
H1727 H 0.78786 0.14276 0.35417 0.0
H1728 H 0.76927 0.16391 0.35704 0.0
H1729 H 0.74364 0.13782 0.33435 0.0
H1730 H 0.76216 0.11669 0.33123 0.0
H1731 H 0.75119 0.12609 0.30779 0.0
H1732 H 0.8108 0.16015 0.26304 0.0
H1733 H 0.8312 0.12707 0.26314 0.0
H1734 H 0.80044 0.11179 0.32217 0.0
C1735 C 0.75036 0.18156 0.31771 0.0
C1736 C 0.74573 0.19735 0.30382 0.0
C1737 C 0.75875 0.20049 0.28599 0.0
C1738 C 0.77582 0.18754 0.28148 0.0
C1739 C 0.7797 0.17158 0.29505 0.0
C1740 C 0.76749 0.16865 0.31294 0.0
C1741 C 0.77419 0.14919 0.3239 0.0
C1742 C 0.78191 0.15686 0.34668 0.0
C1743 C 0.75676 0.1314 0.32433 0.0
C1744 C 0.79163 0.14125 0.309 0.0
C1745 C 0.79461 0.15456 0.29257 0.0
C1746 C 0.80884 0.14981 0.276 0.0
C1747 C 0.82027 0.13093 0.27612 0.0
C1748 C 0.81746 0.11696 0.29269 0.0
C1749 C 0.80314 0.1224 0.30951 0.0
H1750 H 0.41853 0.02386 0.96219 0.0
H1751 H 0.45417 0.02887 0.02028 0.0
H1752 H 0.42777 1.00564 0.03729 0.0
H1753 H 0.36873 0.0256 0.98754 0.0
H1754 H 0.3567 1.00557 0.96785 0.0
H1755 H 0.37839 0.02247 0.9602 0.0
H1756 H 0.39768 0.98742 0.94623 0.0
H1757 H 0.376 0.97042 0.95369 0.0
H1758 H 0.40103 0.96649 0.96395 0.0
H1759 H 0.39711 0.98329 0.04828 0.0
H1760 H 0.36508 0.96115 0.05217 0.0
H1761 H 0.34985 0.9686 0.98606 0.0
C1762 C 0.42067 0.01988 0.97843 0.0
C1763 C 0.43813 0.02816 0.99015 0.0
C1764 C 0.4407 0.02271 0.0113 0.0
C1765 C 0.42584 0.00959 0.02101 0.0
C1766 C 0.40862 1.00186 0.00918 0.0
C1767 C 0.40602 1.00659 0.98829 0.0
C1768 C 0.38618 0.99591 0.97913 0.0
C1769 C 0.37164 0.01344 0.97334 0.0
C1770 C 0.39049 0.97906 0.9596 0.0
C1771 C 0.37798 0.98462 0.99819 0.0
C1772 C 0.39115 0.98836 0.01535 0.0
C1773 C 0.38679 0.98001 0.03486 0.0
C1774 C 0.36857 0.9673 0.03685 0.0
C1775 C 0.35493 0.96281 0.01937 0.0
C1776 C 0.35978 0.97178 0.99982 0.0
H1777 H 0.25828 0.32347 0.28716 0.0
H1778 H 0.30691 0.3589 0.32423 0.0
H1779 H 0.28813 0.39349 0.3253 0.0
H1780 H 0.2475 0.36676 0.25489 0.0
H1781 H 0.22014 0.36122 0.25481 0.0
H1782 H 0.23714 0.33924 0.25738 0.0
H1783 H 0.21853 0.33091 0.29276 0.0
H1784 H 0.20141 0.3528 0.29026 0.0
H1785 H 0.21604 0.35275 0.31441 0.0
H1786 H 0.26472 0.42407 0.32137 0.0
H1787 H 0.23791 0.449 0.31361 0.0
H1788 H 0.2034 0.39372 0.2797 0.0
C1789 C 0.26477 0.33858 0.29555 0.0
C1790 C 0.28392 0.33882 0.30567 0.0
C1791 C 0.2922 0.35868 0.31649 0.0
C1792 C 0.28167 0.37827 0.31713 0.0
C1793 C 0.26282 0.37763 0.30689 0.0
C1794 C 0.25437 0.35831 0.29637 0.0
C1795 C 0.23394 0.36228 0.28658 0.0
C1796 C 0.23474 0.35707 0.26195 0.0
C1797 C 0.21644 0.34889 0.29661 0.0
C1798 C 0.2323 0.38685 0.29315 0.0
C1799 C 0.24914 0.39532 0.30484 0.0
C1800 C 0.25134 0.41759 0.31242 0.0
C1801 C 0.2359 0.43161 0.30804 0.0
C1802 C 0.2183 0.4234 0.29625 0.0
C1803 C 0.21662 0.40063 0.28867 0.0
H1804 H 0.10248 0.99659 0.46362 0.0
H1805 H 0.07856 1.00434 0.52892 0.0
H1806 H 0.1109 0.02433 0.5411 0.0
H1807 H 0.15764 0.9926 0.47623 0.0
H1808 H 0.16587 0.0087 0.45487 0.0
H1809 H 0.14259 0.99165 0.45225 0.0
H1810 H 0.12246 0.02572 0.44524 0.0
H1811 H 0.14558 0.04292 0.44805 0.0
H1812 H 0.12342 0.04984 0.46468 0.0
H1813 H 0.14417 0.04737 0.54514 0.0
H1814 H 0.17565 0.07056 0.54123 0.0
H1815 H 0.17676 0.05002 0.4725 0.0
C1816 C 0.1043 1.00211 0.48055 0.0
C1817 C 0.08811 0.99889 0.4954 0.0
C1818 C 0.09093 1.00632 0.51741 0.0
C1819 C 0.10919 0.01782 0.52439 0.0
C1820 C 0.12447 0.02171 0.50912 0.0
C1821 C 0.12226 0.0139 0.48765 0.0
C1822 C 0.14 0.02201 0.47412 0.0
C1823 C 0.15225 1.00258 0.46376 0.0
C1824 C 0.13241 0.03595 0.45702 0.0
C1825 C 0.15237 0.03606 0.49121 0.0
C1826 C 0.14328 0.03546 0.51132 0.0
C1827 C 0.15145 0.04783 0.52947 0.0
C1828 C 0.16927 0.06117 0.52703 0.0
C1829 C 0.17876 0.06234 0.50652 0.0
C1830 C 0.17016 0.04935 0.48846 0.0
H1831 H 0.78232 0.18756 0.71953 0.0
H1832 H 0.794 0.2167 0.78466 0.0
H1833 H 0.7739 0.18577 0.79879 0.0
H1834 H 0.73056 0.17236 0.72886 0.0
H1835 H 0.73051 0.14715 0.71089 0.0
H1836 H 0.74801 0.16981 0.7061 0.0
H1837 H 0.77872 0.1444 0.70643 0.0
H1838 H 0.7613 0.12158 0.71104 0.0
H1839 H 0.7821 0.12932 0.72926 0.0
H1840 H 0.7505 0.15273 0.80549 0.0
H1841 H 0.72576 0.12075 0.80445 0.0
H1842 H 0.72766 0.11462 0.73465 0.0
C1843 C 0.78082 0.18722 0.73677 0.0
C1844 C 0.7898 0.20436 0.75106 0.0
C1845 C 0.78754 0.20349 0.77351 0.0
C1846 C 0.77604 0.18608 0.78162 0.0
C1847 C 0.76683 0.16977 0.76703 0.0
C1848 C 0.76913 0.17022 0.74506 0.0
C1849 C 0.75656 0.15166 0.73275 0.0
C1850 C 0.74046 0.1608 0.71883 0.0
C1851 C 0.77051 0.1358 0.71907 0.0
C1852 C 0.74657 0.14078 0.7512 0.0
C1853 C 0.75287 0.15131 0.77084 0.0
C1854 C 0.74558 0.14431 0.79019 0.0
C1855 C 0.73156 0.1261 0.78943 0.0
C1856 C 0.72476 0.11516 0.76948 0.0
C1857 C 0.73242 0.12272 0.75015 0.0
H1858 H 0.44816 0.00853 0.53449 0.0
H1859 H 0.43404 1.00262 0.60163 0.0
H1860 H 0.40386 0.02547 0.59968 0.0
H1861 H 0.43307 0.06506 0.53436 0.0
H1862 H 0.42218 0.06043 0.50788 0.0
H1863 H 0.44293 0.04412 0.51473 0.0
H1864 H 0.4209 1.00833 0.50416 0.0
H1865 H 0.4001 0.02453 0.49726 0.0
H1866 H 0.39597 1.0048 0.51654 0.0
H1867 H 0.37494 0.04813 0.59021 0.0
H1868 H 0.34923 0.0695 0.57415 0.0
H1869 H 0.38158 0.06049 0.51268 0.0
C1870 C 0.43867 0.01214 0.54872 0.0
C1871 C 0.4434 1.00402 0.56828 0.0
C1872 C 0.43075 0.009 0.58664 0.0
C1873 C 0.41357 0.02185 0.58562 0.0
C1874 C 0.40925 0.02958 0.56609 0.0
C1875 C 0.42143 0.02496 0.54795 0.0
C1876 C 0.41319 0.03509 0.52891 0.0
C1877 C 0.42877 0.05219 0.52101 0.0
C1878 C 0.40718 0.01712 0.51064 0.0
C1879 C 0.39444 0.04606 0.53914 0.0
C1880 C 0.39249 0.04264 0.5606 0.0
C1881 C 0.3763 0.05088 0.57342 0.0
C1882 C 0.36168 0.0629 0.56409 0.0
C1883 C 0.36325 0.06662 0.5421 0.0
C1884 C 0.37999 0.05812 0.52956 0.0
H1885 H 0.59265 0.52886 0.57841 0.0
H1886 H 0.56771 0.5236 0.51437 0.0
H1887 H 0.59829 0.50382 0.5 0.0
H1888 H 0.64814 0.53216 0.56377 0.0
H1889 H 0.65457 0.51493 0.58409 0.0
H1890 H 0.63305 0.53247 0.58826 0.0
H1891 H 0.60941 0.49851 0.59474 0.0
H1892 H 0.63074 0.48082 0.59037 0.0
H1893 H 0.608 0.47513 0.57445 0.0
H1894 H 0.6299 0.48088 0.4936 0.0
H1895 H 0.65925 0.45719 0.49533 0.0
H1896 H 0.66107 0.47399 0.56466 0.0
C1897 C 0.59391 0.52396 0.56129 0.0
C1898 C 0.57791 0.5278 0.54744 0.0
C1899 C 0.57998 0.52116 0.52514 0.0
C1900 C 0.59722 0.50977 0.51692 0.0
C1901 C 0.6122 0.50513 0.53127 0.0
C1902 C 0.61071 0.51214 0.553 0.0
C1903 C 0.62749 0.50302 0.56545 0.0
C1904 C 0.64166 0.52177 0.57601 0.0
C1905 C 0.61836 0.48851 0.58223 0.0
C1906 C 0.63849 0.48937 0.54743 0.0
C1907 C 0.62967 0.49108 0.52779 0.0
C1908 C 0.63691 0.47949 0.50892 0.0
C1909 C 0.6535 0.46579 0.51014 0.0
C1910 C 0.66259 0.46336 0.53018 0.0
C1911 C 0.65488 0.47556 0.549 0.0
H1912 H 0.71003 0.22349 0.365 0.0
H1913 H 0.75857 0.2418 0.3215 0.0
H1914 H 0.77586 0.26471 0.35159 0.0
H1915 H 0.70478 0.27482 0.39028 0.0
H1916 H 0.69916 0.26713 0.41689 0.0
H1917 H 0.6934 0.24792 0.39368 0.0
H1918 H 0.71544 0.21878 0.40829 0.0
H1919 H 0.72106 0.23778 0.43182 0.0
H1920 H 0.74169 0.22588 0.41554 0.0
H1921 H 0.78412 0.29081 0.38442 0.0
H1922 H 0.7837 0.31673 0.41766 0.0
H1923 H 0.72887 0.28261 0.43968 0.0
C1924 C 0.72473 0.23168 0.36213 0.0
C1925 C 0.73318 0.23075 0.34112 0.0
C1926 C 0.75217 0.24195 0.33762 0.0
C1927 C 0.76197 0.2551 0.3546 0.0
C1928 C 0.7526 0.25672 0.37495 0.0
C1929 C 0.7345 0.24506 0.37885 0.0
C1930 C 0.72614 0.25179 0.40129 0.0
C1931 C 0.70461 0.26096 0.40047 0.0
C1932 C 0.72609 0.2324 0.41505 0.0
C1933 C 0.74189 0.26971 0.40915 0.0
C1934 C 0.75718 0.27207 0.39384 0.0
C1935 C 0.77245 0.28881 0.39667 0.0
C1936 C 0.77199 0.30357 0.41552 0.0
C1937 C 0.7563 0.30163 0.43129 0.0
C1938 C 0.74129 0.28421 0.42814 0.0
H1939 H 0.49682 0.07359 0.93212 0.0
H1940 H 0.51233 0.02489 0.97377 0.0
H1941 H 0.54291 0.01576 0.95107 0.0
H1942 H 0.50958 0.04307 0.88358 0.0
H1943 H 0.52045 0.06578 0.87032 0.0
H1944 H 0.50124 0.07065 0.89116 0.0
H1945 H 0.52571 0.09931 0.91245 0.0
H1946 H 0.54493 0.09479 0.89151 0.0
H1947 H 0.55097 0.09154 0.91897 0.0
H1948 H 0.56866 1.00852 0.92173 0.0
H1949 H 0.5903 1.0055 0.88916 0.0
H1950 H 0.55988 0.06039 0.86651 0.0
C1951 C 0.50711 0.06154 0.93669 0.0
C1952 C 0.5025 0.04998 0.95469 0.0
C1953 C 0.51585 0.0339 0.96007 0.0
C1954 C 0.53316 0.02863 0.94727 0.0
C1955 C 0.53698 0.03973 0.92917 0.0
C1956 C 0.52456 0.05609 0.924 0.0
C1957 C 0.53164 0.06454 0.90296 0.0
C1958 C 0.51472 0.06078 0.88601 0.0
C1959 C 0.53874 0.089 0.9067 0.0
C1960 C 0.54959 0.04995 0.8969 0.0
C1961 C 0.55235 0.03584 0.91232 0.0
C1962 C 0.56702 0.01988 0.90981 0.0
C1963 C 0.5794 0.01843 0.89119 0.0
C1964 C 0.57732 0.033 0.8752 0.0
C1965 C 0.56206 0.04896 0.87825 0.0
H1966 H 0.31311 0.29103 0.35841 0.0
H1967 H 0.31488 0.24727 0.29916 0.0
H1968 H 0.31449 0.21499 0.32021 0.0
H1969 H 0.34297 0.25787 0.39206 0.0
H1970 H 0.32689 0.26468 0.4154 0.0
H1971 H 0.33078 0.28397 0.39567 0.0
H1972 H 0.29146 0.28493 0.39139 0.0
H1973 H 0.28742 0.26545 0.41085 0.0
H1974 H 0.2768 0.25951 0.38434 0.0
H1975 H 0.3099 0.18743 0.34814 0.0
H1976 H 0.30261 0.16723 0.37981 0.0
H1977 H 0.30224 0.22941 0.42078 0.0
C1978 C 0.31381 0.27464 0.34992 0.0
C1979 C 0.31401 0.27156 0.32717 0.0
C1980 C 0.31498 0.24993 0.31657 0.0
C1981 C 0.31461 0.23155 0.32843 0.0
C1982 C 0.31332 0.23513 0.35089 0.0
C1983 C 0.31313 0.25621 0.36151 0.0
C1984 C 0.31 0.25571 0.38558 0.0
C1985 C 0.32878 0.26617 0.3979 0.0
C1986 C 0.29025 0.26707 0.39349 0.0
C1987 C 0.30804 0.23105 0.3869 0.0
C1988 C 0.31023 0.21942 0.36678 0.0
C1989 C 0.30841 0.19642 0.36397 0.0
C1990 C 0.30432 0.18506 0.38211 0.0
C1991 C 0.30186 0.19663 0.40291 0.0
C1992 C 0.30385 0.21998 0.40517 0.0
H1993 H 0.50313 0.4934 0.96157 0.0
H1994 H 0.55943 0.48288 0.92491 0.0
H1995 H 0.5409 0.48529 0.8911 0.0
H1996 H 0.4703 0.46024 0.92299 0.0
H1997 H 0.44895 0.47798 0.92753 0.0
H1998 H 0.46675 0.47599 0.94882 0.0
H1999 H 0.47337 0.5184 0.95247 0.0
H2000 H 0.45568 0.52051 0.93111 0.0
H2001 H 0.48161 0.53164 0.92916 0.0
H2002 H 0.51666 0.49005 0.86165 0.0
H2003 H 0.48799 0.49444 0.83784 0.0
H2004 H 0.44627 0.4989 0.89309 0.0
C2005 C 0.51142 0.49154 0.94636 0.0
C2006 C 0.53271 0.48823 0.94571 0.0
C2007 C 0.54317 0.48576 0.92561 0.0
C2008 C 0.53277 0.48705 0.90641 0.0
C2009 C 0.5118 0.4905 0.90755 0.0
C2010 C 0.50116 0.49249 0.92695 0.0
C2011 C 0.47854 0.49554 0.92351 0.0
C2012 C 0.46536 0.47629 0.93117 0.0
C2013 C 0.47192 0.51785 0.93473 0.0
C2014 C 0.4782 0.49513 0.89918 0.0
C2015 C 0.4976 0.49233 0.89037 0.0
C2016 C 0.50134 0.49193 0.86833 0.0
C2017 C 0.48482 0.49426 0.85489 0.0
C2018 C 0.46461 0.49669 0.86336 0.0
C2019 C 0.46142 0.4972 0.88593 0.0
H2020 H 0.7483 0.7679 0.20508 0.0
H2021 H 0.69944 0.80482 0.18293 0.0
H2022 H 0.7067 0.78965 0.14527 0.0
H2023 H 0.78334 0.7711 0.15714 0.0
H2024 H 0.79121 0.74323 0.15771 0.0
H2025 H 0.78412 0.75944 0.18238 0.0
H2026 H 0.75727 0.72879 0.19052 0.0
H2027 H 0.76408 0.71261 0.1658 0.0
H2028 H 0.73783 0.71979 0.171 0.0
H2029 H 0.71657 0.7675 0.11102 0.0
H2030 H 0.72863 0.74041 0.08201 0.0
H2031 H 0.77177 0.71752 0.12584 0.0
C2032 C 0.73972 0.77327 0.1921 0.0
C2033 C 0.72369 0.7879 0.19657 0.0
C2034 C 0.71206 0.79399 0.17951 0.0
C2035 C 0.71606 0.78541 0.15819 0.0
C2036 C 0.7317 0.77063 0.15424 0.0
C2037 C 0.74347 0.76467 0.17067 0.0
C2038 C 0.75818 0.74707 0.16217 0.0
C2039 C 0.78054 0.75573 0.16502 0.0
C2040 C 0.75408 0.72581 0.17302 0.0
C2041 C 0.75248 0.74371 0.13856 0.0
C2042 C 0.73731 0.75762 0.13434 0.0
C2043 C 0.72874 0.75682 0.11403 0.0
C2044 C 0.73582 0.74139 0.09757 0.0
C2045 C 0.75137 0.72684 0.10139 0.0
C2046 C 0.75985 0.72826 0.12225 0.0
H2047 H 0.0127 0.01535 0.09733 0.0
H2048 H 0.03853 0.08156 0.11296 0.0
H2049 H 0.01787 0.08531 0.14684 0.0
H2050 H 0.96182 0.02524 0.11782 0.0
H2051 H 0.95827 0.99905 0.1285 0.0
H2052 H 0.97508 1.00164 0.10563 0.0
H2053 H 1.00488 0.98687 0.12594 0.0
H2054 H 0.98813 0.98413 0.14883 0.0
H2055 H 0.0119 1.00028 0.15207 0.0
H2056 H 0.99364 0.08209 0.17819 0.0
H2057 H 0.96856 0.07196 0.20576 0.0
H2058 H 0.95978 1.00672 0.17081 0.0
C2059 C 0.01396 0.03053 0.10804 0.0
C2060 C 0.02701 0.04826 0.10274 0.0
C2061 C 0.02846 0.06794 0.11692 0.0
C2062 C 0.01683 0.07016 0.13609 0.0
C2063 C 1.00398 0.05241 0.14088 0.0
C2064 C 1.00258 0.03291 0.12735 0.0
C2065 C 0.98774 0.0163 0.1364 0.0
C2066 C 0.96966 0.01021 0.12118 0.0
C2067 C 0.99883 0.99568 0.14109 0.0
C2068 C 0.98089 0.02958 0.15703 0.0
C2069 C 0.99041 0.05036 0.15926 0.0
C2070 C 0.98626 0.06576 0.17675 0.0
C2071 C 0.97207 0.05975 0.19245 0.0
C2072 C 0.96222 0.03842 0.19073 0.0
C2073 C 0.96681 0.02321 0.17266 0.0
H2074 H 0.30131 0.74384 0.18194 0.0
H2075 H 0.2961 0.78897 0.23999 0.0
H2076 H 0.28699 0.81869 0.21824 0.0
H2077 H 0.32255 0.78333 0.14728 0.0
H2078 H 0.30828 0.77163 0.12407 0.0
H2079 H 0.31511 0.75436 0.14418 0.0
H2080 H 0.27688 0.74224 0.14882 0.0
H2081 H 0.26992 0.75955 0.12879 0.0
H2082 H 0.2582 0.76292 0.15523 0.0
H2083 H 0.27819 0.84322 0.19013 0.0
H2084 H 0.27016 0.86099 0.15782 0.0
H2085 H 0.27989 0.79952 0.1178 0.0
C2086 C 0.29825 0.76003 0.18994 0.0
C2087 C 0.29939 0.7643 0.21257 0.0
C2088 C 0.29539 0.78559 0.22264 0.0
C2089 C 0.29016 0.80246 0.21043 0.0
C2090 C 0.28889 0.79768 0.18814 0.0
C2091 C 0.2928 0.77698 0.17796 0.0
C2092 C 0.28996 0.77609 0.15383 0.0
C2093 C 0.31018 0.77106 0.14162 0.0
C2094 C 0.27271 0.7592 0.14623 0.0
C2095 C 0.28386 0.79951 0.15201 0.0
C2096 C 0.28342 0.8117 0.17198 0.0
C2097 C 0.27849 0.83383 0.17441 0.0
C2098 C 0.27402 0.8438 0.15595 0.0
C2099 C 0.27437 0.83169 0.13526 0.0
C2100 C 0.27924 0.80917 0.13339 0.0
H2101 H 0.9882 0.48274 0.12249 0.0
H2102 H 0.02519 0.46231 0.06621 0.0
H2103 H 0.05533 0.46067 0.08941 0.0
H2104 H 0.02586 0.51944 0.14759 0.0
H2105 H 0.0191 0.51391 0.17464 0.0
H2106 H 0.99998 0.51053 0.15404 0.0
H2107 H 0.99238 0.47008 0.16176 0.0
H2108 H 0.01139 0.47336 0.18252 0.0
H2109 H 0.01308 0.4514 0.16087 0.0
H2110 H 0.08203 0.46398 0.1188 0.0
H2111 H 0.103 0.47202 0.15143 0.0
H2112 H 0.04881 0.4924 0.18833 0.0
C2113 C 1.00262 0.47771 0.11512 0.0
C2114 C 1.00437 0.4725 0.09258 0.0
C2115 C 0.02344 0.46592 0.08348 0.0
C2116 C 0.04065 0.46513 0.09653 0.0
C2117 C 0.03855 0.47106 0.11867 0.0
C2118 C 0.01997 0.47719 0.12788 0.0
C2119 C 0.02201 0.48426 0.1518 0.0
C2120 C 0.01641 0.50847 0.15734 0.0
C2121 C 0.00894 0.46885 0.16502 0.0
C2122 C 0.04472 0.48145 0.15463 0.0
C2123 C 0.05395 0.47358 0.13539 0.0
C2124 C 0.0749 0.46998 0.13396 0.0
C2125 C 0.08669 0.47454 0.15263 0.0
C2126 C 0.07761 0.48282 0.17252 0.0
C2127 C 0.05629 0.48625 0.1734 0.0
H2128 H 0.35675 0.71755 0.24983 0.0
H2129 H 0.30495 0.7318 0.29243 0.0
H2130 H 0.32711 0.73049 0.32408 0.0
H2131 H 0.38135 0.67988 0.28357 0.0
H2132 H 0.40684 0.68967 0.27669 0.0
H2133 H 0.38639 0.68973 0.25774 0.0
H2134 H 0.39388 0.73149 0.2556 0.0
H2135 H 0.41418 0.73164 0.27471 0.0
H2136 H 0.39357 0.75027 0.27996 0.0
H2137 H 0.35604 0.73226 0.35074 0.0
H2138 H 0.38828 0.73383 0.37054 0.0
H2139 H 0.42119 0.71557 0.3105 0.0
C2140 C 0.3501 0.71994 0.26587 0.0
C2141 C 0.32921 0.72471 0.26888 0.0
C2142 C 0.32089 0.7279 0.28997 0.0
C2143 C 0.3334 0.72729 0.30795 0.0
C2144 C 0.35414 0.72318 0.3045 0.0
C2145 C 0.36236 0.71917 0.28396 0.0
C2146 C 0.38523 0.71587 0.28464 0.0
C2147 C 0.39024 0.69239 0.2751 0.0
C2148 C 0.39743 0.73336 0.27304 0.0
C2149 C 0.38873 0.71921 0.30874 0.0
C2150 C 0.37062 0.72343 0.31989 0.0
C2151 C 0.37023 0.72844 0.34218 0.0
C2152 C 0.38877 0.72911 0.35336 0.0
C2153 C 0.40764 0.72454 0.34239 0.0
C2154 C 0.40734 0.71935 0.31967 0.0
H2155 H 0.99545 0.44836 0.02325 0.0
H2156 H 0.97964 0.42692 0.08536 0.0
H2157 H 0.98543 0.38808 0.07073 0.0
H2158 H 0.96962 0.40541 0.99259 0.0
H2159 H 0.98813 0.40292 0.97077 0.0
H2160 H 0.98566 0.42897 0.98692 0.0
H2161 H 0.0243 0.43019 0.9959 0.0
H2162 H 0.02699 0.40424 0.97953 0.0
H2163 H 0.03479 0.40728 0.00724 0.0
H2164 H 0.98889 0.35123 0.04766 0.0
H2165 H 0.99219 0.31993 0.01927 0.0
H2166 H 1.00529 0.36597 0.9721 0.0
C2167 C 0.99373 0.43546 0.03382 0.0
C2168 C 0.98721 0.44041 0.0554 0.0
C2169 C 0.98489 0.4233 0.06887 0.0
C2170 C 0.98802 0.40127 0.06063 0.0
C2171 C 0.99364 0.39679 0.03894 0.0
C2172 C 0.99676 0.41351 0.02583 0.0
C2173 C 1.00149 0.40438 1.00282 0.0
C2174 C 0.98526 0.4108 0.98737 0.0
C2175 C 0.02318 0.41197 0.99598 0.0
C2176 C 1.00015 0.37986 1.00485 0.0
C2177 C 0.99567 0.37577 0.0258 0.0
C2178 C 0.99265 0.35429 0.03128 0.0
C2179 C 0.99439 0.33661 0.015 0.0
C2180 C 0.9991 0.34045 0.99345 0.0
C2181 C 1.00206 0.36243 0.98846 0.0
H2182 H 0.68359 0.76657 0.27336 0.0
H2183 H 0.6667 0.82664 0.2487 0.0
H2184 H 0.63412 0.8261 0.26984 0.0
H2185 H 0.63267 0.74051 0.27307 0.0
H2186 H 0.63592 0.72823 0.29766 0.0
H2187 H 0.65783 0.73343 0.28068 0.0
H2188 H 0.67583 0.75646 0.3128 0.0
H2189 H 0.65399 0.7513 0.32989 0.0
H2190 H 0.66295 0.77925 0.32718 0.0
H2191 H 0.60369 0.819 0.29362 0.0
H2192 H 0.57715 0.80602 0.31847 0.0
H2193 H 0.61375 0.75038 0.32819 0.0
C2194 C 0.67294 0.77954 0.27256 0.0
C2195 C 0.67746 0.79676 0.25966 0.0
C2196 C 0.66333 0.81348 0.2587 0.0
C2197 C 0.64489 0.81324 0.27058 0.0
C2198 C 0.64082 0.79607 0.28327 0.0
C2199 C 0.65442 0.77951 0.28435 0.0
C2200 C 0.64629 0.763 0.29926 0.0
C2201 C 0.64298 0.73993 0.28693 0.0
C2202 C 0.66062 0.76248 0.31842 0.0
C2203 C 0.62603 0.77289 0.30641 0.0
C2204 C 0.62321 0.79196 0.29698 0.0
C2205 C 0.60576 0.80412 0.30116 0.0
C2206 C 0.59081 0.79668 0.31542 0.0
C2207 C 0.59335 0.77723 0.32542 0.0
C2208 C 0.61122 0.76518 0.32069 0.0
H2209 H 0.02646 0.05741 0.01809 0.0
H2210 H 0.08656 0.07698 0.04315 0.0
H2211 H 0.09063 0.10477 0.01708 0.0
H2212 H 0.03711 0.06838 0.9605 0.0
H2213 H 0.01195 0.07882 0.95818 0.0
H2214 H 0.01576 0.05761 0.97547 0.0
H2215 H 0.99996 0.08214 0.00745 0.0
H2216 H 0.99639 0.10356 0.99045 0.0
H2217 H 0.01091 0.10952 0.0148 0.0
H2218 H 0.0854 0.1346 0.9931 0.0
H2219 H 0.07259 0.16233 0.97124 0.0
H2220 H 0.01535 0.1239 0.962 0.0
C2221 C 0.04072 0.06709 0.01749 0.0
C2222 C 0.05629 0.06505 0.03244 0.0
C2223 C 0.07468 0.07807 0.03151 0.0
C2224 C 0.077 0.09398 0.01687 0.0
C2225 C 0.06083 0.09648 1.00316 0.0
C2226 C 0.04316 0.08312 1.00309 0.0
C2227 C 0.02722 0.09058 0.9884 0.0
C2228 C 0.02275 0.07279 0.96951 0.0
C2229 C 1.00746 0.09682 1.00103 0.0
C2230 C 0.03837 0.11071 0.98077 0.0
C2231 C 0.05781 0.11371 0.98933 0.0
C2232 C 0.07038 0.13215 0.98599 0.0
C2233 C 0.06292 0.1479 0.97368 0.0
C2234 C 0.04303 0.14522 0.9648 0.0
C2235 C 0.03076 0.12617 0.9682 0.0
H2236 H 0.32969 0.28206 0.25684 0.0
H2237 H 0.3558 0.2933 0.32032 0.0
H2238 H 0.39061 0.28845 0.30428 0.0
H2239 H 0.36763 0.24219 0.23192 0.0
H2240 H 0.36744 0.25383 0.20664 0.0
H2241 H 0.34475 0.25414 0.22355 0.0
H2242 H 0.34397 0.29648 0.22317 0.0
H2243 H 0.36688 0.29644 0.20668 0.0
H2244 H 0.36608 0.3136 0.23204 0.0
H2245 H 0.42267 0.28779 0.28071 0.0
H2246 H 0.44926 0.28848 0.25225 0.0
H2247 H 0.4022 0.27828 0.20361 0.0
C2248 C 0.34274 0.28275 0.26733 0.0
C2249 C 0.34016 0.2878 0.28982 0.0
C2250 C 0.3575 0.28896 0.30314 0.0
C2251 C 0.37729 0.28646 0.2941 0.0
C2252 C 0.37942 0.2827 0.27171 0.0
C2253 C 0.36255 0.28051 0.25852 0.0
C2254 C 0.36897 0.27837 0.23493 0.0
C2255 C 0.36177 0.25578 0.22359 0.0
C2256 C 0.361 0.29735 0.22354 0.0
C2257 C 0.39212 0.28019 0.23682 0.0
C2258 C 0.39783 0.28253 0.25816 0.0
C2259 C 0.41834 0.28551 0.26396 0.0
C2260 C 0.43339 0.28581 0.24759 0.0
C2261 C 0.428 0.28316 0.22551 0.0
C2262 C 0.40697 0.2804 0.22022 0.0
H2263 H 0.55207 0.47047 0.03379 0.0
H2264 H 0.57566 0.43324 0.97649 0.0
H2265 H 0.57663 0.40007 0.99588 0.0
H2266 H 0.58091 0.44171 0.07384 0.0
H2267 H 0.55954 0.44253 0.09258 0.0
H2268 H 0.56365 0.46408 0.07519 0.0
H2269 H 0.52669 0.45659 0.06116 0.0
H2270 H 0.52257 0.43474 0.07812 0.0
H2271 H 0.51885 0.42923 0.04951 0.0
H2272 H 0.56978 0.37008 0.01912 0.0
H2273 H 0.55959 0.34533 0.04602 0.0
H2274 H 0.54208 0.40166 0.09031 0.0
C2275 C 0.55832 0.45555 0.02579 0.0
C2276 C 0.5645 0.45445 1.0039 0.0
C2277 C 0.57159 0.43445 0.99345 0.0
C2278 C 0.57198 0.41554 1.00429 0.0
C2279 C 0.5652 0.4169 0.02567 0.0
C2280 C 0.55884 0.43644 0.03651 0.0
C2281 C 0.55108 0.43285 0.05905 0.0
C2282 C 0.5646 0.44608 0.07618 0.0
C2283 C 0.52845 0.4387 0.06213 0.0
C2284 C 0.55355 0.40816 0.05891 0.0
C2285 C 0.5617 0.3994 0.03945 0.0
C2286 C 0.56403 0.37685 0.0347 0.0
C2287 C 0.55829 0.36287 0.05033 0.0
C2288 C 0.55055 0.37131 0.07088 0.0
C2289 C 0.54805 0.39442 0.07501 0.0
H2290 H 0.69143 0.23341 0.25968 0.0
H2291 H 0.65756 0.21335 0.31502 0.0
H2292 H 0.6249 0.22074 0.29813 0.0
H2293 H 0.6599 0.27777 0.25041 0.0
H2294 H 0.66156 0.27295 0.22147 0.0
H2295 H 0.68217 0.26541 0.23755 0.0
H2296 H 0.67911 0.22525 0.21916 0.0
H2297 H 0.65859 0.23272 0.2029 0.0
H2298 H 0.65468 0.21025 0.21922 0.0
H2299 H 0.59623 0.23103 0.27563 0.0
H2300 H 0.5731 0.24293 0.24882 0.0
H2301 H 0.6255 0.25618 0.2076 0.0
C2302 C 0.67706 0.23034 0.26801 0.0
C2303 C 0.67681 0.22275 0.28856 0.0
C2304 C 0.65788 0.2192 0.29927 0.0
C2305 C 0.63935 0.22333 0.2898 0.0
C2306 C 0.64007 0.23103 0.26959 0.0
C2307 C 0.65841 0.23445 0.25877 0.0
C2308 C 0.65487 0.24313 0.23736 0.0
C2309 C 0.66524 0.26618 0.23667 0.0
C2310 C 0.66225 0.22686 0.21855 0.0
C2311 C 0.6317 0.24413 0.23789 0.0
C2312 C 0.62349 0.23704 0.25662 0.0
C2313 C 0.60246 0.23649 0.26085 0.0
C2314 C 0.58944 0.2432 0.24546 0.0
C2315 C 0.59743 0.25038 0.22603 0.0
C2316 C 0.6189 0.25095 0.22235 0.0
H2317 H 0.46684 0.11169 0.98248 0.0
H2318 H 0.51575 0.06975 0.99548 0.0
H2319 H 0.53349 0.10129 0.01673 0.0
H2320 H 0.49702 0.16588 0.98437 0.0
H2321 H 0.47654 0.18034 0.99864 0.0
H2322 H 0.47075 0.15642 0.9798 0.0
H2323 H 0.45024 0.13842 0.00967 0.0
H2324 H 0.45624 0.16198 0.02873 0.0
H2325 H 0.46271 0.13482 0.03445 0.0
H2326 H 0.54312 0.13573 0.04105 0.0
H2327 H 0.54368 0.16963 0.06665 0.0
H2328 H 0.4863 0.18782 0.04117 0.0
C2329 C 0.48161 0.10943 0.98927 0.0
C2330 C 0.49012 0.08843 0.98706 0.0
C2331 C 0.50932 0.08586 0.99637 0.0
C2332 C 0.51937 0.10367 0.00867 0.0
C2333 C 0.5099 0.12385 0.01167 0.0
C2334 C 0.49143 0.12683 1.00215 0.0
C2335 C 0.48286 0.1489 0.01045 0.0
C2336 C 0.48173 0.16377 0.99222 0.0
C2337 C 0.46177 0.14583 0.02148 0.0
C2338 C 0.49905 0.15763 0.02659 0.0
C2339 C 0.51476 0.14318 0.02669 0.0
C2340 C 0.53104 0.14728 0.04088 0.0
C2341 C 0.53123 0.16657 0.05536 0.0
C2342 C 0.51506 0.18135 0.05586 0.0
C2343 C 0.49885 0.17681 0.04115 0.0
H2344 H 0.22596 0.34814 0.73258 0.0
H2345 H 0.26212 0.29101 0.736 0.0
H2346 H 0.29351 0.31542 0.74152 0.0
H2347 H 0.26511 0.38103 0.70503 0.0
H2348 H 0.25794 0.40658 0.71995 0.0
H2349 H 0.239 0.38439 0.71433 0.0
H2350 H 0.23047 0.38545 0.75509 0.0
H2351 H 0.24947 0.40751 0.76087 0.0
H2352 H 0.25072 0.38252 0.77363 0.0
H2353 H 0.32006 0.34655 0.75053 0.0
H2354 H 0.34025 0.38157 0.75945 0.0
H2355 H 0.28662 0.4184 0.74951 0.0
C2356 C 0.24059 0.34087 0.7342 0.0
C2357 C 0.24182 0.31782 0.73394 0.0
C2358 C 0.26108 0.30867 0.73602 0.0
C2359 C 0.27888 0.32241 0.73924 0.0
C2360 C 0.27708 0.34521 0.74008 0.0
C2361 C 0.25844 0.35434 0.73731 0.0
C2362 C 0.26045 0.37932 0.73967 0.0
C2363 C 0.25532 0.38836 0.71848 0.0
C2364 C 0.24698 0.38928 0.75843 0.0
C2365 C 0.28304 0.3829 0.74466 0.0
C2366 C 0.29238 0.36303 0.74483 0.0
C2367 C 0.31295 0.36218 0.75016 0.0
C2368 C 0.32426 0.38214 0.75534 0.0
C2369 C 0.31503 0.40268 0.75506 0.0
C2370 C 0.29417 0.40296 0.74952 0.0
H2371 H 0.25483 0.68732 0.78013 0.0
H2372 H 0.23291 0.69033 0.84616 0.0
H2373 H 0.25848 0.66344 0.8537 0.0
H2374 H 0.25908 0.62942 0.77355 0.0
H2375 H 0.28135 0.62983 0.75606 0.0
H2376 H 0.26348 0.65153 0.75688 0.0
H2377 H 0.29297 0.6807 0.76612 0.0
H2378 H 0.31096 0.65907 0.76533 0.0
H2379 H 0.30876 0.6785 0.78906 0.0
H2380 H 0.28573 0.63471 0.85328 0.0
H2381 H 0.31023 0.60503 0.84449 0.0
H2382 H 0.31147 0.61826 0.77775 0.0
C2383 C 0.25549 0.68235 0.79619 0.0
C2384 C 0.24203 0.69101 0.81263 0.0
C2385 C 0.24339 0.68425 0.83348 0.0
C2386 C 0.25778 0.6689 0.83784 0.0
C2387 C 0.27052 0.66027 0.82108 0.0
C2388 C 0.26936 0.66668 0.80062 0.0
C2389 C 0.28341 0.65364 0.78493 0.0
C2390 C 0.27109 0.64032 0.76679 0.0
C2391 C 0.30001 0.66889 0.77583 0.0
C2392 C 0.29254 0.63868 0.79966 0.0
C2393 C 0.28523 0.64301 0.82054 0.0
C2394 C 0.29154 0.63122 0.83698 0.0
C2395 C 0.30548 0.61446 0.83188 0.0
C2396 C 0.31265 0.60937 0.81046 0.0
C2397 C 0.30614 0.62176 0.79423 0.0
H2398 H 0.94087 0.50671 0.48791 0.0
H2399 H 0.91235 0.5623 0.46525 0.0
H2400 H 0.87796 0.54467 0.47097 0.0
H2401 H 0.90408 0.46385 0.46514 0.0
H2402 H 0.9048 0.44829 0.48801 0.0
H2403 H 0.927 0.46474 0.48089 0.0
H2404 H 0.92725 0.4854 0.51939 0.0
H2405 H 0.90501 0.4691 0.52659 0.0
H2406 H 0.90454 0.49879 0.52989 0.0
H2407 H 0.84694 0.52139 0.47997 0.0
H2408 H 0.82116 0.49435 0.49183 0.0
H2409 H 0.86993 0.45438 0.51023 0.0
C2410 C 0.92731 0.51487 0.48387 0.0
C2411 C 0.929 0.53566 0.47595 0.0
C2412 C 0.91111 0.54628 0.47121 0.0
C2413 C 0.89164 0.5364 0.4744 0.0
C2414 C 0.8904 0.51594 0.48245 0.0
C2415 C 0.90775 0.50528 0.48713 0.0
C2416 C 0.90213 0.48385 0.49643 0.0
C2417 C 0.90997 0.46401 0.48174 0.0
C2418 C 0.91021 0.48433 0.51944 0.0
C2419 C 0.87893 0.48417 0.49635 0.0
C2420 C 0.8725 0.50277 0.48812 0.0
C2421 C 0.85179 0.50679 0.48651 0.0
C2422 C 0.83725 0.4914 0.49349 0.0
C2423 C 0.84343 0.47225 0.50216 0.0
C2424 C 0.86463 0.46868 0.50352 0.0
H2425 H 0.76832 0.83069 0.77898 0.0
H2426 H 0.79582 0.85435 0.84006 0.0
H2427 H 0.77537 0.88781 0.84232 0.0
H2428 H 0.76541 0.88377 0.75858 0.0
H2429 H 0.74083 0.87743 0.7462 0.0
H2430 H 0.75792 0.85562 0.74916 0.0
H2431 H 0.72946 0.83516 0.76973 0.0
H2432 H 0.71228 0.85689 0.7668 0.0
H2433 H 0.71745 0.84934 0.79319 0.0
H2434 H 0.75266 0.91874 0.83755 0.0
H2435 H 0.72798 0.94477 0.82723 0.0
H2436 H 0.71312 0.90026 0.76996 0.0
C2437 C 0.76996 0.84305 0.79272 0.0
C2438 C 0.78357 0.8402 0.80938 0.0
C2439 C 0.78538 0.85643 0.82726 0.0
C2440 C 0.77389 0.87541 0.82861 0.0
C2441 C 0.76053 0.87779 0.81197 0.0
C2442 C 0.75837 0.86202 0.79442 0.0
C2443 C 0.7425 0.86847 0.77908 0.0
C2444 C 0.75225 0.8715 0.75694 0.0
C2445 C 0.72435 0.85145 0.77709 0.0
C2446 C 0.73617 0.89035 0.79071 0.0
C2447 C 0.74687 0.89541 0.80958 0.0
C2448 C 0.744 0.91484 0.82294 0.0
C2449 C 0.72973 0.92946 0.81698 0.0
C2450 C 0.71819 0.92459 0.7979 0.0
C2451 C 0.72164 0.90469 0.78459 0.0
H2452 H 0.5845 0.52836 0.00778 0.0
H2453 H 0.60371 0.4641 0.98091 0.0
H2454 H 0.64003 0.477 0.985 0.0
H2455 H 0.61952 0.55741 0.97863 0.0
H2456 H 0.62435 0.58012 0.99914 0.0
H2457 H 0.60018 0.56473 0.99881 0.0
H2458 H 0.60535 0.55621 0.03797 0.0
H2459 H 0.62942 0.57195 0.03864 0.0
H2460 H 0.62852 0.54374 0.04479 0.0
H2461 H 0.67416 0.49849 0.98757 0.0
H2462 H 0.70303 0.52618 0.98891 0.0
H2463 H 0.66146 0.57748 0.01166 0.0
C2464 C 0.59643 0.51687 1.00345 0.0
C2465 C 0.59133 0.49507 0.9945 0.0
C2466 C 0.60726 0.48057 0.98853 0.0
C2467 C 0.62795 0.48789 0.99055 0.0
C2468 C 0.63245 0.50986 0.99843 0.0
C2469 C 0.6171 0.52411 1.00492 0.0
C2470 C 0.62581 0.54749 0.01048 0.0
C2471 C 0.61694 0.56337 0.99589 0.0
C2472 C 0.62205 0.5553 0.03439 0.0
C2473 C 0.64841 0.54431 1.00566 0.0
C2474 C 0.65197 0.52243 0.99903 0.0
C2475 C 0.67155 0.5156 0.99302 0.0
C2476 C 0.68789 0.53148 0.99387 0.0
C2477 C 0.68462 0.55406 1.00045 0.0
C2478 C 0.66452 0.56041 1.00645 0.0
H2479 H 0.26095 0.71131 0.26034 0.0
H2480 H 0.31843 0.68004 0.24544 0.0
H2481 H 0.302 0.64386 0.25197 0.0
H2482 H 0.2415 0.67529 0.30138 0.0
H2483 H 0.21553 0.67528 0.2921 0.0
H2484 H 0.23271 0.6989 0.28978 0.0
H2485 H 0.22582 0.69595 0.24886 0.0
H2486 H 0.20882 0.67222 0.25097 0.0
H2487 H 0.23031 0.67043 0.23239 0.0
H2488 H 0.27811 0.61066 0.25557 0.0
H2489 H 0.2494 0.58323 0.25776 0.0
H2490 H 0.20692 0.63613 0.26875 0.0
C2491 C 0.27011 0.69686 0.2589 0.0
C2492 C 0.29092 0.69831 0.25237 0.0
C2493 C 0.30254 0.67919 0.25067 0.0
C2494 C 0.29327 0.65862 0.25422 0.0
C2495 C 0.27241 0.65755 0.25959 0.0
C2496 C 0.26102 0.67624 0.26217 0.0
C2497 C 0.23855 0.67047 0.26627 0.0
C2498 C 0.23167 0.68058 0.28872 0.0
C2499 C 0.22509 0.67769 0.24857 0.0
C2500 C 0.23893 0.64555 0.26508 0.0
C2501 C 0.25863 0.63844 0.2614 0.0
C2502 C 0.26267 0.61608 0.25867 0.0
C2503 C 0.24621 0.6006 0.25973 0.0
C2504 C 0.22584 0.60745 0.26338 0.0
C2505 C 0.22229 0.63031 0.26625 0.0
H2506 H 0.92217 0.49715 0.07208 0.0
H2507 H 0.97471 0.52513 0.03985 0.0
H2508 H 0.95279 0.55283 0.02652 0.0
H2509 H 0.88556 0.50303 0.03131 0.0
H2510 H 0.86484 0.51008 0.04993 0.0
H2511 H 0.88475 0.49301 0.05742 0.0
H2512 H 0.89211 0.52034 0.09139 0.0
H2513 H 0.87214 0.53742 0.08408 0.0
H2514 H 0.89776 0.54908 0.08854 0.0
H2515 H 0.92494 0.57644 0.01586 0.0
H2516 H 0.89347 0.5953 0.00925 0.0
H2517 H 0.85873 0.55258 0.04929 0.0
C2518 C 0.92893 0.50932 0.06238 0.0
C2519 C 0.95002 0.50936 0.05701 0.0
C2520 C 0.95856 0.52519 0.04414 0.0
C2521 C 0.94623 0.54084 0.03652 0.0
C2522 C 0.9254 0.54036 0.04196 0.0
C2523 C 0.9168 0.52509 0.05468 0.0
C2524 C 0.89396 0.52806 0.05797 0.0
C2525 C 0.88155 0.50731 0.04859 0.0
C2526 C 0.88869 0.53409 0.08192 0.0
C2527 C 0.89103 0.5473 0.04505 0.0
C2528 C 0.90936 0.55411 0.03594 0.0
C2529 C 0.91053 0.57139 0.02308 0.0
C2530 C 0.89254 0.58211 0.01954 0.0
C2531 C 0.87352 0.57566 0.02888 0.0
C2532 C 0.87289 0.5579 0.04175 0.0
H2533 H 0.10234 0.03853 0.07303 0.0
H2534 H 0.06266 0.01343 0.02059 0.0
H2535 H 0.08933 0.9878 1.00612 0.0
H2536 H 0.15213 0.03322 0.0422 0.0
H2537 H 0.1651 0.02514 0.0651 0.0
H2538 H 0.14418 0.04353 0.06908 0.0
H2539 H 0.12571 0.01694 0.09348 0.0
H2540 H 0.14631 0.99825 0.08928 0.0
H2541 H 0.12038 0.98857 0.08305 0.0
H2542 H 0.11809 0.96112 1.00101 0.0
H2543 H 0.14781 0.93811 1.00308 0.0
H2544 H 0.16972 0.98177 0.05831 0.0
C2545 C 0.09964 0.02808 0.05813 0.0
C2546 C 0.08061 0.02791 0.04775 0.0
C2547 C 0.07732 0.01393 0.02847 0.0
C2548 C 0.09231 0.99926 0.02031 0.0
C2549 C 0.11059 0.99904 0.03152 0.0
C2550 C 0.11447 0.01343 0.04979 0.0
C2551 C 0.13474 0.009 0.05962 0.0
C2552 C 0.14994 0.02891 0.05895 0.0
C2553 C 0.13158 1.00282 0.08272 0.0
C2554 C 0.1414 0.98944 0.04442 0.0
C2555 C 0.1273 0.98398 0.0283 0.0
C2556 C 0.12948 0.96562 0.01324 0.0
C2557 C 0.14658 0.95266 0.01452 0.0
C2558 C 0.16154 0.95809 0.03068 0.0
C2559 C 0.15873 0.97688 0.04576 0.0
loop_
_geom_bond_atom_site_label_1
_geom_bond_atom_site_label_2
_geom_bond_distance
_geom_bond_site_symmetry_2
_ccdc_geom_bond_type
C0 N1 1.317 1_565 S
C0 N2 1.348 1_565 S
C0 C3 1.485 . S
N1 C0 1.317 1_545 S
N1 N5 1.370 . S
N2 C0 1.348 1_545 S
N2 C4 1.348 . S
C3 C0 1.485 . S
C3 H7 0.960 . S
C3 H8 0.961 . S
C3 H9 0.960 . S
C4 N2 1.348 . S
C4 N5 1.323 . S
C4 C6 1.470 1_455 S
N5 N1 1.370 . S
N5 C4 1.323 . S
C6 C4 1.470 1_655 S
C6 H10 0.960 . S
C6 H11 0.960 . S
C6 H12 0.959 . S
H7 C3 0.960 . S
H8 C3 0.961 . S
H9 C3 0.960 . S
H10 C6 0.960 . S
H11 C6 0.960 . S
H12 C6 0.959 . S
C13 N14 1.317 . S
C13 N15 1.348 . S
C13 C16 1.485 . S
N14 C13 1.317 . S
N14 N18 1.370 . S
N15 C13 1.348 . S
N15 C17 1.346 . S
C16 C13 1.485 . S
C16 H20 0.960 . S
C16 H21 0.961 . S
C16 H22 0.960 . S
C17 N15 1.346 . S
C17 N18 1.307 . S
C17 C19 1.486 . S
N18 N14 1.370 . S
N18 C17 1.307 . S
C19 C17 1.486 . S
C19 H23 0.960 . S
C19 H24 0.960 . S
C19 H25 0.959 . S
H20 C16 0.960 . S
H21 C16 0.961 . S
H22 C16 0.960 . S
H23 C19 0.960 . S
H24 C19 0.960 . S
H25 C19 0.959 . S
C26 N27 1.317 . S
C26 N28 1.348 . S
C26 C29 1.485 . S
N27 C26 1.317 . S
N27 N31 1.370 . S
N28 C26 1.348 . S
N28 C30 1.346 . S
C29 C26 1.485 . S
C29 H33 0.960 . S
C29 H34 0.961 . S
C29 H35 0.960 . S
C30 N28 1.346 . S
C30 N31 1.307 . S
C30 C32 1.486 . S
N31 N27 1.370 . S
N31 C30 1.307 . S
C32 C30 1.486 . S
C32 H36 0.960 . S
C32 H37 0.960 . S
C32 H38 0.959 . S
H33 C29 0.960 . S
H34 C29 0.961 . S
H35 C29 0.960 . S
H36 C32 0.960 . S
H37 C32 0.960 . S
H38 C32 0.959 . S
C39 N40 1.317 . S
C39 N41 1.348 . S
C39 C42 1.485 . S
N40 C39 1.317 . S
N40 N44 1.370 . S
N41 C39 1.348 . S
N41 C43 1.346 . S
C42 C39 1.485 . S
C42 H46 0.960 . S
C42 H47 0.961 . S
C42 H48 0.960 . S
C43 N41 1.346 . S
C43 N44 1.307 . S
C43 C45 1.486 . S
N44 N40 1.370 . S
N44 C43 1.307 . S
C45 C43 1.486 . S
C45 H49 0.960 . S
C45 H50 0.960 . S
C45 H51 0.959 . S
H46 C42 0.960 . S
H47 C42 0.961 . S
H48 C42 0.960 . S
H49 C45 0.960 . S
H50 C45 0.960 . S
H51 C45 0.959 . S
C52 N53 1.317 . S
C52 N54 1.348 . S
C52 C55 1.485 . S
N53 C52 1.317 . S
N53 N57 1.370 . S
N54 C52 1.348 . S
N54 C56 1.347 1_565 S
C55 C52 1.485 . S
C55 H59 0.960 . S
C55 H60 0.961 1_455 S
C55 H61 0.960 . S
C56 N54 1.347 1_545 S
C56 N57 1.308 1_545 S
C56 C58 1.485 . S
N57 N53 1.370 . S
N57 C56 1.308 1_565 S
C58 C56 1.485 . S
C58 H62 0.960 . S
C58 H63 0.960 . S
C58 H64 0.959 . S
H59 C55 0.960 . S
H60 C55 0.961 1_655 S
H61 C55 0.960 . S
H62 C58 0.960 . S
H63 C58 0.960 . S
H64 C58 0.959 . S
C65 N66 1.317 . S
C65 N67 1.348 . S
C65 C68 1.485 . S
N66 C65 1.317 . S
N66 N70 1.370 . S
N67 C65 1.348 . S
N67 C69 1.346 . S
C68 C65 1.485 . S
C68 H72 0.960 . S
C68 H73 0.961 . S
C68 H74 0.960 . S
C69 N67 1.346 . S
C69 N70 1.307 . S
C69 C71 1.486 . S
N70 N66 1.370 . S
N70 C69 1.307 . S
C71 C69 1.486 . S
C71 H75 0.960 . S
C71 H76 0.960 . S
C71 H77 0.959 . S
H72 C68 0.960 . S
H73 C68 0.961 . S
H74 C68 0.960 . S
H75 C71 0.960 . S
H76 C71 0.960 . S
H77 C71 0.959 . S
C78 N79 1.317 . S
C78 N80 1.348 . S
C78 C81 1.485 . S
N79 C78 1.317 . S
N79 N83 1.370 . S
N80 C78 1.348 . S
N80 C82 1.346 . S
C81 C78 1.485 . S
C81 H85 0.960 . S
C81 H86 0.961 . S
C81 H87 0.960 . S
C82 N80 1.346 . S
C82 N83 1.307 . S
C82 C84 1.486 . S
N83 N79 1.370 . S
N83 C82 1.307 . S
C84 C82 1.486 . S
C84 H88 0.960 . S
C84 H89 0.960 . S
C84 H90 0.959 . S
H85 C81 0.960 . S
H86 C81 0.961 . S
H87 C81 0.960 . S
H88 C84 0.960 . S
H89 C84 0.960 . S
H90 C84 0.959 . S
C91 N92 1.317 . S
C91 N93 1.348 . S
C91 C94 1.485 . S
N92 C91 1.317 . S
N92 N96 1.370 . S
N93 C91 1.348 . S
N93 C95 1.346 . S
C94 C91 1.485 . S
C94 H98 0.960 . S
C94 H99 0.961 . S
C94 H100 0.960 . S
C95 N93 1.346 . S
C95 N96 1.307 . S
C95 C97 1.486 . S
N96 N92 1.370 . S
N96 C95 1.307 . S
C97 C95 1.486 . S
C97 H101 0.960 . S
C97 H102 0.960 . S
C97 H103 0.959 . S
H98 C94 0.960 . S
H99 C94 0.961 . S
H100 C94 0.960 . S
H101 C97 0.960 . S
H102 C97 0.960 . S
H103 C97 0.959 . S
C104 N105 1.317 . S
C104 N106 1.348 . S
C104 C107 1.485 . S
N105 C104 1.317 . S
N105 N109 1.370 . S
N106 C104 1.348 . S
N106 C108 1.346 . S
C107 C104 1.485 . S
C107 H111 0.960 . S
C107 H112 0.961 . S
C107 H113 0.960 . S
C108 N106 1.346 . S
C108 N109 1.307 . S
C108 C110 1.486 . S
N109 N105 1.370 . S
N109 C108 1.307 . S
C110 C108 1.486 . S
C110 H114 0.960 . S
C110 H115 0.960 . S
C110 H116 0.959 . S
H111 C107 0.960 . S
H112 C107 0.961 . S
H113 C107 0.960 . S
H114 C110 0.960 . S
H115 C110 0.960 . S
H116 C110 0.959 . S
C117 N118 1.317 . S
C117 N119 1.348 . S
C117 C120 1.485 1_565 S
N118 C117 1.317 . S
N118 N122 1.370 . S
N119 C117 1.348 . S
N119 C121 1.346 . S
C120 C117 1.485 1_545 S
C120 H124 0.960 . S
C120 H125 0.961 . S
C120 H126 0.960 . S
C121 N119 1.346 . S
C121 N122 1.307 . S
C121 C123 1.486 . S
N122 N118 1.370 . S
N122 C121 1.307 . S
C123 C121 1.486 . S
C123 H127 0.960 . S
C123 H128 0.960 . S
C123 H129 0.959 . S
H124 C120 0.960 . S
H125 C120 0.961 . S
H126 C120 0.960 . S
H127 C123 0.960 . S
H128 C123 0.960 . S
H129 C123 0.959 . S
C130 N131 1.317 . S
C130 N132 1.348 . S
C130 C133 1.485 . S
N131 C130 1.317 . S
N131 N135 1.370 . S
N132 C130 1.348 . S
N132 C134 1.346 . S
C133 C130 1.485 . S
C133 H137 0.960 . S
C133 H138 0.961 . S
C133 H139 0.960 . S
C134 N132 1.346 . S
C134 N135 1.307 . S
C134 C136 1.486 . S
N135 N131 1.370 . S
N135 C134 1.307 . S
C136 C134 1.486 . S
C136 H140 0.960 . S
C136 H141 0.960 . S
C136 H142 0.959 . S
H137 C133 0.960 . S
H138 C133 0.961 . S
H139 C133 0.960 . S
H140 C136 0.960 . S
H141 C136 0.960 . S
H142 C136 0.959 . S
C143 N144 1.317 . S
C143 N145 1.348 . S
C143 C146 1.485 . S
N144 C143 1.317 . S
N144 N148 1.370 . S
N145 C143 1.348 . S
N145 C147 1.346 . S
C146 C143 1.485 . S
C146 H150 0.960 . S
C146 H151 0.961 . S
C146 H152 0.960 . S
C147 N145 1.346 . S
C147 N148 1.307 . S
C147 C149 1.486 . S
N148 N144 1.370 . S
N148 C147 1.307 . S
C149 C147 1.486 . S
C149 H153 0.960 . S
C149 H154 0.960 . S
C149 H155 0.959 . S
H150 C146 0.960 . S
H151 C146 0.961 . S
H152 C146 0.960 . S
H153 C149 0.960 . S
H154 C149 0.960 . S
H155 C149 0.959 . S
C156 N157 1.317 . S
C156 N158 1.348 . S
C156 C159 1.485 . S
N157 C156 1.317 . S
N157 N161 1.370 . S
N158 C156 1.348 . S
N158 C160 1.346 . S
C159 C156 1.485 . S
C159 H163 0.960 . S
C159 H164 0.961 . S
C159 H165 0.960 . S
C160 N158 1.346 . S
C160 N161 1.307 . S
C160 C162 1.486 . S
N161 N157 1.370 . S
N161 C160 1.307 . S
C162 C160 1.486 . S
C162 H166 0.960 . S
C162 H167 0.960 . S
C162 H168 0.959 . S
H163 C159 0.960 . S
H164 C159 0.961 . S
H165 C159 0.960 . S
H166 C162 0.960 . S
H167 C162 0.960 . S
H168 C162 0.959 . S
C169 N170 1.317 . S
C169 N171 1.348 . S
C169 C172 1.485 . S
N170 C169 1.317 . S
N170 N174 1.370 . S
N171 C169 1.348 . S
N171 C173 1.346 . S
C172 C169 1.485 . S
C172 H176 0.960 . S
C172 H177 0.961 . S
C172 H178 0.960 . S
C173 N171 1.346 . S
C173 N174 1.307 . S
C173 C175 1.486 . S
N174 N170 1.370 . S
N174 C173 1.307 . S
C175 C173 1.486 . S
C175 H179 0.960 . S
C175 H180 0.960 . S
C175 H181 0.959 . S
H176 C172 0.960 . S
H177 C172 0.961 . S
H178 C172 0.960 . S
H179 C175 0.960 . S
H180 C175 0.960 . S
H181 C175 0.959 . S
C182 N183 1.317 . S
C182 N184 1.348 . S
C182 C185 1.485 . S
N183 C182 1.317 . S
N183 N187 1.370 . S
N184 C182 1.348 . S
N184 C186 1.346 . S
C185 C182 1.485 . S
C185 H189 0.960 . S
C185 H190 0.961 . S
C185 H191 0.960 . S
C186 N184 1.346 . S
C186 N187 1.307 . S
C186 C188 1.486 . S
N187 N183 1.370 . S
N187 C186 1.307 . S
C188 C186 1.486 . S
C188 H192 0.960 . S
C188 H193 0.960 . S
C188 H194 0.959 . S
H189 C185 0.960 . S
H190 C185 0.961 . S
H191 C185 0.960 . S
H192 C188 0.960 . S
H193 C188 0.960 . S
H194 C188 0.959 . S
C195 N196 1.317 . S
C195 N197 1.348 . S
C195 C198 1.485 . S
N196 C195 1.317 . S
N196 N200 1.370 . S
N197 C195 1.348 . S
N197 C199 1.346 . S
C198 C195 1.485 . S
C198 H202 0.960 . S
C198 H203 0.961 1_545 S
C198 H204 0.960 . S
C199 N197 1.346 . S
C199 N200 1.307 . S
C199 C201 1.486 1_556 S
N200 N196 1.370 . S
N200 C199 1.307 . S
C201 C199 1.486 1_554 S
C201 H205 0.960 . S
C201 H206 0.960 . S
C201 H207 0.959 . S
H202 C198 0.960 . S
H203 C198 0.961 1_565 S
H204 C198 0.960 . S
H205 C201 0.960 . S
H206 C201 0.960 . S
H207 C201 0.959 . S
Li208 N225 1.990 . S
Li208 O268 1.956 . S
Li208 O269 1.970 . S
Li208 O270 1.961 1_554 S
Li209 N233 1.990 . S
Li209 O268 1.970 . S
Li209 O269 1.956 . S
Li209 O271 1.961 . S
Li210 N255 1.990 . S
Li210 O268 1.961 1_556 S
Li210 O270 1.956 . S
Li210 O271 1.970 1_556 S
Li211 N261 1.990 . S
Li211 O269 1.961 . S
Li211 O270 1.970 1_554 S
Li211 O271 1.956 . S
C212 C214 1.350 . S
C212 C215 1.354 1_554 S
C212 O268 1.325 . S
N213 C216 1.314 1_556 S
N213 C217 1.279 . S
C214 C212 1.350 . S
C214 C216 1.353 . S
C214 H272 0.929 . S
C215 C212 1.354 1_556 S
C215 C217 1.358 . S
C215 H273 0.930 . S
C216 N213 1.314 1_554 S
C216 C214 1.353 . S
C216 H274 0.930 . S
C217 N213 1.279 . S
C217 C215 1.358 . S
C217 H275 0.930 . S
C218 C221 1.348 . S
C218 C222 1.356 . S
C218 O269 1.325 . S
C219 N220 1.279 . S
C219 C222 1.358 . S
C219 H276 0.930 . S
N220 C219 1.279 . S
N220 C223 1.314 . S
C221 C218 1.348 . S
C221 C223 1.353 . S
C221 H277 0.929 . S
C222 C218 1.356 . S
C222 C219 1.358 . S
C222 H278 0.930 . S
C223 N220 1.314 . S
C223 C221 1.353 . S
C223 H279 0.930 . S
C224 N225 1.307 1_556 S
C224 C229 1.358 . S
C224 H230 0.934 . S
N225 Li208 1.990 . S
N225 C224 1.307 1_554 S
N225 C227 1.279 . S
C226 C227 1.358 . S
C226 C228 1.355 . S
C226 H280 0.930 . S
C227 N225 1.279 . S
C227 C226 1.358 . S
C227 H231 0.930 . S
C228 C226 1.355 . S
C228 C229 1.348 1_554 S
C229 C224 1.358 . S
C229 C228 1.348 1_556 S
C229 H281 0.929 . S
H230 C224 0.934 . S
H231 C227 0.930 . S
C232 N233 1.314 . S
C232 C234 1.353 . S
C232 H238 0.930 . S
N233 Li209 1.990 . S
N233 C232 1.314 . S
N233 C236 1.279 . S
C234 C232 1.353 . S
C234 C237 1.348 . S
C234 H282 0.929 . S
C235 C236 1.358 . S
C235 C237 1.356 . S
C235 H283 0.930 . S
C236 N233 1.279 . S
C236 C235 1.358 . S
C236 H239 0.930 . S
C237 C234 1.348 . S
C237 C235 1.356 . S
H238 C232 0.930 . S
H239 C236 0.930 . S
C240 C242 1.348 . S
C240 C243 1.356 . S
C240 O270 1.325 . S
N241 C244 1.314 . S
N241 C245 1.279 . S
C242 C240 1.348 . S
C242 C244 1.353 . S
C242 H284 0.929 . S
C243 C240 1.356 . S
C243 C245 1.358 . S
C243 H285 0.930 . S
C244 N241 1.314 . S
C244 C242 1.353 . S
C244 H286 0.930 . S
C245 N241 1.279 . S
C245 C243 1.358 . S
C245 H287 0.930 . S
C246 C247 1.348 1_554 S
C246 C248 1.356 . S
C246 O271 1.325 . S
C247 C246 1.348 1_556 S
C247 C249 1.347 1_556 S
C247 H288 0.929 . S
C248 C246 1.356 . S
C248 C250 1.358 . S
C248 H289 0.930 . S
C249 C247 1.347 1_554 S
C249 N251 1.340 . S
C249 H290 0.908 1_554 S
C250 C248 1.358 . S
C250 N251 1.279 . S
C250 H291 0.930 . S
N251 C249 1.340 . S
N251 C250 1.279 . S
C252 C254 1.353 . S
C252 N255 1.314 . S
C252 H258 0.930 . S
C253 N255 1.279 . S
C253 C256 1.358 . S
C253 H259 0.930 . S
C254 C252 1.353 . S
C254 C257 1.348 . S
C254 H292 0.929 . S
N255 Li210 1.990 . S
N255 C252 1.314 . S
N255 C253 1.279 . S
C256 C253 1.358 . S
C256 C257 1.356 . S
C256 H293 0.930 . S
C257 C254 1.348 . S
C257 C256 1.356 . S
H258 C252 0.930 . S
H259 C253 0.930 . S
C260 N261 1.314 . S
C260 C262 1.353 . S
C260 H266 0.930 . S
N261 Li211 1.990 . S
N261 C260 1.314 . S
N261 C264 1.279 . S
C262 C260 1.353 . S
C262 C265 1.348 . S
C262 H294 0.929 . S
C263 C264 1.358 . S
C263 C265 1.356 . S
C263 H295 0.930 . S
C264 N261 1.279 . S
C264 C263 1.358 . S
C264 H267 0.930 . S
C265 C262 1.348 . S
C265 C263 1.356 . S
H266 C260 0.930 . S
H267 C264 0.930 . S
O268 Li208 1.956 . S
O268 Li209 1.970 . S
O268 Li210 1.961 1_554 S
O268 C212 1.325 . S
O269 Li208 1.970 . S
O269 Li209 1.956 . S
O269 Li211 1.961 . S
O269 C218 1.325 . S
O270 Li208 1.961 1_556 S
O270 Li210 1.956 . S
O270 Li211 1.970 1_556 S
O270 C240 1.325 . S
O271 Li209 1.961 . S
O271 Li210 1.970 1_554 S
O271 Li211 1.956 . S
O271 C246 1.325 . S
H272 C214 0.929 . S
H273 C215 0.930 . S
H274 C216 0.930 . S
H275 C217 0.930 . S
H276 C219 0.930 . S
H277 C221 0.929 . S
H278 C222 0.930 . S
H279 C223 0.930 . S
H280 C226 0.930 . S
H281 C229 0.929 . S
H282 C234 0.929 . S
H283 C235 0.930 . S
H284 C242 0.929 . S
H285 C243 0.930 . S
H286 C244 0.930 . S
H287 C245 0.930 . S
H288 C247 0.929 . S
H289 C248 0.930 . S
H290 C249 0.908 1_556 S
H291 C250 0.930 . S
H292 C254 0.929 . S
H293 C256 0.930 . S
H294 C262 0.929 . S
H295 C263 0.930 . S
Li296 N313 1.990 . S
Li296 O356 1.956 . S
Li296 O357 1.970 . S
Li296 O358 1.961 . S
Li297 N321 1.990 . S
Li297 O356 1.970 . S
Li297 O357 1.956 . S
Li297 O359 1.961 . S
Li298 N343 1.990 . S
Li298 O356 1.961 . S
Li298 O358 1.956 . S
Li298 O359 1.970 . S
Li299 N349 1.990 . S
Li299 O357 1.961 . S
Li299 O358 1.970 . S
Li299 O359 1.956 . S
C300 C302 1.348 . S
C300 C303 1.356 . S
C300 O356 1.325 . S
N301 C304 1.314 . S
N301 C305 1.279 . S
C302 C300 1.348 . S
C302 C304 1.353 . S
C302 H360 0.929 . S
C303 C300 1.356 . S
C303 C305 1.358 . S
C303 H361 0.930 . S
C304 N301 1.314 . S
C304 C302 1.353 . S
C304 H362 0.930 . S
C305 N301 1.279 . S
C305 C303 1.358 . S
C305 H363 0.930 . S
C306 C309 1.348 . S
C306 C310 1.356 . S
C306 O357 1.325 . S
C307 N308 1.279 . S
C307 C310 1.358 . S
C307 H364 0.930 . S
N308 C307 1.279 . S
N308 C311 1.314 . S
C309 C306 1.348 . S
C309 C311 1.353 . S
C309 H365 0.929 . S
C310 C306 1.356 . S
C310 C307 1.358 . S
C310 H366 0.930 . S
C311 N308 1.314 . S
C311 C309 1.353 . S
C311 H367 0.930 . S
C312 N313 1.314 . S
C312 C317 1.353 . S
C312 H318 0.930 . S
N313 Li296 1.990 . S
N313 C312 1.314 . S
N313 C315 1.279 . S
C314 C315 1.358 . S
C314 C316 1.356 . S
C314 H368 0.930 . S
C315 N313 1.279 . S
C315 C314 1.358 . S
C315 H319 0.930 . S
C316 C314 1.356 . S
C316 C317 1.348 . S
C317 C312 1.353 . S
C317 C316 1.348 . S
C317 H369 0.929 . S
H318 C312 0.930 . S
H319 C315 0.930 . S
C320 N321 1.314 . S
C320 C322 1.353 . S
C320 H326 0.930 . S
N321 Li297 1.990 . S
N321 C320 1.314 . S
N321 C324 1.279 . S
C322 C320 1.353 . S
C322 C325 1.348 . S
C322 H370 0.929 . S
C323 C324 1.358 . S
C323 C325 1.356 . S
C323 H371 0.930 . S
C324 N321 1.279 . S
C324 C323 1.358 . S
C324 H327 0.930 . S
C325 C322 1.348 . S
C325 C323 1.356 . S
H326 C320 0.930 . S
H327 C324 0.930 . S
C328 C330 1.348 . S
C328 C331 1.356 . S
C328 O358 1.325 . S
N329 C332 1.314 . S
N329 C333 1.279 . S
C330 C328 1.348 . S
C330 C332 1.353 . S
C330 H372 0.929 . S
C331 C328 1.356 . S
C331 C333 1.358 . S
C331 H373 0.930 . S
C332 N329 1.314 . S
C332 C330 1.353 . S
C332 H374 0.930 . S
C333 N329 1.279 . S
C333 C331 1.358 . S
C333 H375 0.930 . S
C334 C335 1.348 . S
C334 C336 1.356 . S
C334 O359 1.325 . S
C335 C334 1.348 . S
C335 C337 1.353 . S
C335 H376 0.929 . S
C336 C334 1.356 . S
C336 C338 1.358 . S
C336 H377 0.930 . S
C337 C335 1.353 . S
C337 N339 1.314 . S
C337 H378 0.930 . S
C338 C336 1.358 . S
C338 N339 1.279 . S
C338 H379 0.930 . S
N339 C337 1.314 . S
N339 C338 1.279 . S
C340 C342 1.353 . S
C340 N343 1.314 . S
C340 H346 0.930 . S
C341 N343 1.279 . S
C341 C344 1.358 . S
C341 H347 0.930 . S
C342 C340 1.353 . S
C342 C345 1.348 . S
C342 H380 0.929 . S
N343 Li298 1.990 . S
N343 C340 1.314 . S
N343 C341 1.279 . S
C344 C341 1.358 . S
C344 C345 1.356 . S
C344 H381 0.930 . S
C345 C342 1.348 . S
C345 C344 1.356 . S
H346 C340 0.930 . S
H347 C341 0.930 . S
C348 N349 1.314 . S
C348 C350 1.353 . S
C348 H354 0.930 . S
N349 Li299 1.990 . S
N349 C348 1.314 . S
N349 C352 1.279 . S
C350 C348 1.353 . S
C350 C353 1.348 . S
C350 H382 0.929 . S
C351 C352 1.358 . S
C351 C353 1.356 . S
C351 H383 0.930 . S
C352 N349 1.279 . S
C352 C351 1.358 . S
C352 H355 0.930 . S
C353 C350 1.348 . S
C353 C351 1.356 . S
H354 C348 0.930 . S
H355 C352 0.930 . S
O356 Li296 1.956 . S
O356 Li297 1.970 . S
O356 Li298 1.961 . S
O356 C300 1.325 . S
O357 Li296 1.970 . S
O357 Li297 1.956 . S
O357 Li299 1.961 . S
O357 C306 1.325 . S
O358 Li296 1.961 . S
O358 Li298 1.956 . S
O358 Li299 1.970 . S
O358 C328 1.325 . S
O359 Li297 1.961 . S
O359 Li298 1.970 . S
O359 Li299 1.956 . S
O359 C334 1.325 . S
H360 C302 0.929 . S
H361 C303 0.930 . S
H362 C304 0.930 . S
H363 C305 0.930 . S
H364 C307 0.930 . S
H365 C309 0.929 . S
H366 C310 0.930 . S
H367 C311 0.930 . S
H368 C314 0.930 . S
H369 C317 0.929 . S
H370 C322 0.929 . S
H371 C323 0.930 . S
H372 C330 0.929 . S
H373 C331 0.930 . S
H374 C332 0.930 . S
H375 C333 0.930 . S
H376 C335 0.929 . S
H377 C336 0.930 . S
H378 C337 0.930 . S
H379 C338 0.930 . S
H380 C342 0.929 . S
H381 C344 0.930 . S
H382 C350 0.929 . S
H383 C351 0.930 . S
Li384 N401 1.990 1_554 S
Li384 O444 1.956 . S
Li384 O445 1.970 . S
Li384 O446 1.961 1_554 S
Li385 N409 1.990 . S
Li385 O444 1.970 . S
Li385 O445 1.956 . S
Li385 O447 1.961 . S
Li386 N431 1.990 . S
Li386 O444 1.961 1_556 S
Li386 O446 1.956 . S
Li386 O447 1.970 1_556 S
Li387 N437 1.990 . S
Li387 O445 1.961 . S
Li387 O446 1.970 1_554 S
Li387 O447 1.956 . S
C388 C390 1.348 . S
C388 C391 1.356 1_554 S
C388 O444 1.325 . S
N389 C392 1.350 . S
N389 C393 1.251 1_554 S
C390 C388 1.348 . S
C390 C392 1.353 . S
C390 H448 0.929 . S
C391 C388 1.356 1_556 S
C391 C393 1.358 . S
C391 H449 0.930 . S
C392 N389 1.350 . S
C392 C390 1.353 . S
C392 H450 0.930 . S
C393 N389 1.251 1_556 S
C393 C391 1.358 . S
C393 H451 0.930 . S
C394 C397 1.348 . S
C394 C398 1.356 . S
C394 O445 1.325 . S
C395 N396 1.279 . S
C395 C398 1.358 . S
C395 H452 0.930 . S
N396 C395 1.279 . S
N396 C399 1.314 . S
C397 C394 1.348 . S
C397 C399 1.353 . S
C397 H453 0.929 . S
C398 C394 1.356 . S
C398 C395 1.358 . S
C398 H454 0.930 . S
C399 N396 1.314 . S
C399 C397 1.353 . S
C399 H455 0.930 . S
C400 N401 1.314 . S
C400 C405 1.353 . S
C400 H406 0.930 . S
N401 Li384 1.990 1_556 S
N401 C400 1.314 . S
N401 C403 1.279 . S
C402 C403 1.358 . S
C402 C404 1.356 . S
C402 H456 0.930 . S
C403 N401 1.279 . S
C403 C402 1.358 . S
C403 H407 0.922 1_556 S
C404 C402 1.356 . S
C404 C405 1.348 . S
C405 C400 1.353 . S
C405 C404 1.348 . S
C405 H457 0.929 . S
H406 C400 0.930 . S
H407 C403 0.922 1_554 S
C408 N409 1.314 . S
C408 C410 1.353 . S
C408 H414 0.930 . S
N409 Li385 1.990 . S
N409 C408 1.314 . S
N409 C412 1.279 . S
C410 C408 1.353 . S
C410 C413 1.348 . S
C410 H458 0.929 . S
C411 C412 1.358 . S
C411 C413 1.356 . S
C411 H459 0.930 . S
C412 N409 1.279 . S
C412 C411 1.358 . S
C412 H415 0.930 . S
C413 C410 1.348 . S
C413 C411 1.356 . S
H414 C408 0.930 . S
H415 C412 0.930 . S
C416 C418 1.348 . S
C416 C419 1.356 . S
C416 O446 1.325 . S
N417 C420 1.314 . S
N417 C421 1.279 . S
C418 C416 1.348 . S
C418 C420 1.353 . S
C418 H460 0.929 . S
C419 C416 1.356 . S
C419 C421 1.358 . S
C419 H461 0.930 . S
C420 N417 1.314 . S
C420 C418 1.353 . S
C420 H462 0.930 . S
C421 N417 1.279 . S
C421 C419 1.358 . S
C421 H463 0.930 . S
C422 C423 1.348 . S
C422 C424 1.356 . S
C422 O447 1.325 . S
C423 C422 1.348 . S
C423 C425 1.353 . S
C423 H464 0.929 1_554 S
C424 C422 1.356 . S
C424 C426 1.358 . S
C424 H465 0.930 . S
C425 C423 1.353 . S
C425 N427 1.314 . S
C425 H466 0.933 . S
C426 C424 1.358 . S
C426 N427 1.279 . S
C426 H467 0.930 . S
N427 C425 1.314 . S
N427 C426 1.279 . S
C428 C430 1.353 . S
C428 N431 1.314 . S
C428 H434 0.930 . S
C429 N431 1.279 . S
C429 C432 1.358 . S
C429 H435 0.930 . S
C430 C428 1.353 . S
C430 C433 1.348 . S
C430 H468 0.929 . S
N431 Li386 1.990 . S
N431 C428 1.314 . S
N431 C429 1.279 . S
C432 C429 1.358 . S
C432 C433 1.356 . S
C432 H469 0.930 . S
C433 C430 1.348 . S
C433 C432 1.356 . S
H434 C428 0.930 . S
H435 C429 0.930 . S
C436 N437 1.314 . S
C436 C438 1.353 . S
C436 H442 0.930 . S
N437 Li387 1.990 . S
N437 C436 1.314 . S
N437 C440 1.279 . S
C438 C436 1.353 . S
C438 C441 1.348 . S
C438 H470 0.929 . S
C439 C440 1.358 . S
C439 C441 1.356 . S
C439 H471 0.930 . S
C440 N437 1.279 . S
C440 C439 1.358 . S
C440 H443 0.930 . S
C441 C438 1.348 . S
C441 C439 1.356 . S
H442 C436 0.930 . S
H443 C440 0.930 . S
O444 Li384 1.956 . S
O444 Li385 1.970 . S
O444 Li386 1.961 1_554 S
O444 C388 1.325 . S
O445 Li384 1.970 . S
O445 Li385 1.956 . S
O445 Li387 1.961 . S
O445 C394 1.325 . S
O446 Li384 1.961 1_556 S
O446 Li386 1.956 . S
O446 Li387 1.970 1_556 S
O446 C416 1.325 . S
O447 Li385 1.961 . S
O447 Li386 1.970 1_554 S
O447 Li387 1.956 . S
O447 C422 1.325 . S
H448 C390 0.929 . S
H449 C391 0.930 . S
H450 C392 0.930 . S
H451 C393 0.930 . S
H452 C395 0.930 . S
H453 C397 0.929 . S
H454 C398 0.930 . S
H455 C399 0.930 . S
H456 C402 0.930 . S
H457 C405 0.929 . S
H458 C410 0.929 . S
H459 C411 0.930 . S
H460 C418 0.929 . S
H461 C419 0.930 . S
H462 C420 0.930 . S
H463 C421 0.930 . S
H464 C423 0.929 1_556 S
H465 C424 0.930 . S
H466 C425 0.933 . S
H467 C426 0.930 . S
H468 C430 0.929 . S
H469 C432 0.930 . S
H470 C438 0.929 . S
H471 C439 0.930 . S
Li472 N489 1.990 . S
Li472 O532 1.956 . S
Li472 O533 1.970 . S
Li472 O534 1.961 . S
Li473 N497 1.990 . S
Li473 O532 1.970 . S
Li473 O533 1.956 . S
Li473 O535 1.961 1_545 S
Li474 N519 1.990 . S
Li474 O532 1.961 . S
Li474 O534 1.956 . S
Li474 O535 1.970 1_545 S
Li475 N525 1.990 . S
Li475 O533 1.961 1_565 S
Li475 O534 1.970 1_565 S
Li475 O535 1.956 . S
C476 C478 1.348 . S
C476 C479 1.356 . S
C476 O532 1.325 . S
N477 C480 1.314 . S
N477 C481 1.279 . S
C478 C476 1.348 . S
C478 C480 1.353 . S
C478 H536 0.929 . S
C479 C476 1.356 . S
C479 C481 1.358 . S
C479 H537 0.930 . S
C480 N477 1.314 . S
C480 C478 1.353 . S
C480 H538 0.930 . S
C481 N477 1.279 . S
C481 C479 1.358 . S
C481 H539 0.930 . S
C482 C485 1.348 . S
C482 C486 1.356 1_545 S
C482 O533 1.325 . S
C483 N484 1.277 1_565 S
C483 C486 1.358 . S
C483 H540 0.930 . S
N484 C483 1.277 1_545 S
N484 C487 1.317 . S
C485 C482 1.348 . S
C485 C487 1.353 . S
C485 H541 0.929 . S
C486 C482 1.356 1_565 S
C486 C483 1.358 . S
C486 H542 0.930 . S
C487 N484 1.317 . S
C487 C485 1.353 . S
C487 H543 0.930 . S
C488 N489 1.314 . S
C488 C493 1.353 . S
C488 H494 0.930 . S
N489 Li472 1.990 . S
N489 C488 1.314 . S
N489 C491 1.279 . S
C490 C491 1.358 . S
C490 C492 1.356 . S
C490 H544 0.930 . S
C491 N489 1.279 . S
C491 C490 1.358 . S
C491 H495 0.930 . S
C492 C490 1.356 . S
C492 C493 1.348 . S
C493 C488 1.353 . S
C493 C492 1.348 . S
C493 H545 0.929 . S
H494 C488 0.930 . S
H495 C491 0.930 . S
C496 N497 1.314 1_565 S
C496 C498 1.353 . S
C496 H502 0.930 . S
N497 Li473 1.990 . S
N497 C496 1.314 1_545 S
N497 C500 1.279 . S
C498 C496 1.353 . S
C498 C501 1.348 1_565 S
C498 H546 0.929 . S
C499 C500 1.358 . S
C499 C501 1.356 . S
C499 H547 0.930 . S
C500 N497 1.279 . S
C500 C499 1.358 . S
C500 H503 0.930 . S
C501 C498 1.348 1_545 S
C501 C499 1.356 . S
H502 C496 0.930 . S
H503 C500 0.930 . S
C504 C506 1.348 1_545 S
C504 C507 1.356 . S
C504 O534 1.325 . S
N505 C508 1.314 1_545 S
N505 C509 1.279 . S
C506 C504 1.348 1_565 S
C506 C508 1.353 . S
C506 H548 0.929 . S
C507 C504 1.356 . S
C507 C509 1.358 . S
C507 H549 0.930 . S
C508 N505 1.314 1_565 S
C508 C506 1.353 . S
C508 H550 0.930 . S
C509 N505 1.279 . S
C509 C507 1.358 . S
C509 H551 0.930 . S
C510 C511 1.348 . S
C510 C512 1.356 . S
C510 O535 1.325 . S
C511 C510 1.348 . S
C511 C513 1.353 . S
C511 H552 0.929 . S
C512 C510 1.356 . S
C512 C514 1.358 . S
C512 H553 0.930 . S
C513 C511 1.353 . S
C513 N515 1.314 . S
C513 H554 0.930 . S
C514 C512 1.358 . S
C514 N515 1.279 . S
C514 H555 0.930 . S
N515 C513 1.314 . S
N515 C514 1.279 . S
C516 C518 1.353 . S
C516 N519 1.314 . S
C516 H522 0.930 . S
C517 N519 1.273 1_565 S
C517 C520 1.356 . S
C517 H523 0.943 . S
C518 C516 1.353 . S
C518 C521 1.348 . S
C518 H556 0.929 . S
N519 Li474 1.990 . S
N519 C516 1.314 . S
N519 C517 1.273 1_545 S
C520 C517 1.356 . S
C520 C521 1.356 1_565 S
C520 H557 0.930 . S
C521 C518 1.348 . S
C521 C520 1.356 1_545 S
H522 C516 0.930 . S
H523 C517 0.943 . S
C524 N525 1.314 . S
C524 C526 1.353 . S
C524 H530 0.930 . S
N525 Li475 1.990 . S
N525 C524 1.314 . S
N525 C528 1.279 . S
C526 C524 1.353 . S
C526 C529 1.348 . S
C526 H558 0.929 . S
C527 C528 1.358 . S
C527 C529 1.356 . S
C527 H559 0.930 . S
C528 N525 1.279 . S
C528 C527 1.358 . S
C528 H531 0.930 . S
C529 C526 1.348 . S
C529 C527 1.356 . S
H530 C524 0.930 . S
H531 C528 0.930 . S
O532 Li472 1.956 . S
O532 Li473 1.970 . S
O532 Li474 1.961 . S
O532 C476 1.325 . S
O533 Li472 1.970 . S
O533 Li473 1.956 . S
O533 Li475 1.961 1_545 S
O533 C482 1.325 . S
O534 Li472 1.961 . S
O534 Li474 1.956 . S
O534 Li475 1.970 1_545 S
O534 C504 1.325 . S
O535 Li473 1.961 1_565 S
O535 Li474 1.970 1_565 S
O535 Li475 1.956 . S
O535 C510 1.325 . S
H536 C478 0.929 . S
H537 C479 0.930 . S
H538 C480 0.930 . S
H539 C481 0.930 . S
H540 C483 0.930 . S
H541 C485 0.929 . S
H542 C486 0.930 . S
H543 C487 0.930 . S
H544 C490 0.930 . S
H545 C493 0.929 . S
H546 C498 0.929 . S
H547 C499 0.930 . S
H548 C506 0.929 . S
H549 C507 0.930 . S
H550 C508 0.930 . S
H551 C509 0.930 . S
H552 C511 0.929 . S
H553 C512 0.930 . S
H554 C513 0.930 . S
H555 C514 0.930 . S
H556 C518 0.929 . S
H557 C520 0.930 . S
H558 C526 0.929 . S
H559 C527 0.930 . S
Li560 N577 1.990 . S
Li560 O620 1.956 . S
Li560 O621 1.970 . S
Li560 O622 1.961 . S
Li561 N585 1.990 . S
Li561 O620 1.970 . S
Li561 O621 1.956 . S
Li561 O623 1.961 . S
Li562 N607 1.990 . S
Li562 O620 1.961 . S
Li562 O622 1.956 . S
Li562 O623 1.970 . S
Li563 N613 1.990 . S
Li563 O621 1.961 . S
Li563 O622 1.970 . S
Li563 O623 1.956 . S
C564 C566 1.348 . S
C564 C567 1.356 . S
C564 O620 1.325 . S
N565 C568 1.314 . S
N565 C569 1.279 . S
C566 C564 1.348 . S
C566 C568 1.353 . S
C566 H624 0.929 . S
C567 C564 1.356 . S
C567 C569 1.358 . S
C567 H625 0.930 . S
C568 N565 1.314 . S
C568 C566 1.353 . S
C568 H626 0.930 . S
C569 N565 1.279 . S
C569 C567 1.358 . S
C569 H627 0.930 . S
C570 C573 1.348 . S
C570 C574 1.356 . S
C570 O621 1.325 . S
C571 N572 1.279 . S
C571 C574 1.358 . S
C571 H628 0.930 . S
N572 C571 1.279 . S
N572 C575 1.314 . S
C573 C570 1.348 . S
C573 C575 1.353 . S
C573 H629 0.929 . S
C574 C570 1.356 . S
C574 C571 1.358 . S
C574 H630 0.930 . S
C575 N572 1.314 . S
C575 C573 1.353 . S
C575 H631 0.930 . S
C576 N577 1.314 . S
C576 C581 1.353 . S
C576 H582 0.930 . S
N577 Li560 1.990 . S
N577 C576 1.314 . S
N577 C579 1.279 . S
C578 C579 1.358 . S
C578 C580 1.356 . S
C578 H632 0.930 . S
C579 N577 1.279 . S
C579 C578 1.358 . S
C579 H583 0.930 . S
C580 C578 1.356 . S
C580 C581 1.348 . S
C581 C576 1.353 . S
C581 C580 1.348 . S
C581 H633 0.929 . S
H582 C576 0.930 . S
H583 C579 0.930 . S
C584 N585 1.314 . S
C584 C586 1.353 . S
C584 H590 0.930 . S
N585 Li561 1.990 . S
N585 C584 1.314 . S
N585 C588 1.279 . S
C586 C584 1.353 . S
C586 C589 1.348 . S
C586 H634 0.929 . S
C587 C588 1.358 . S
C587 C589 1.356 . S
C587 H635 0.930 . S
C588 N585 1.279 . S
C588 C587 1.358 . S
C588 H591 0.930 . S
C589 C586 1.348 . S
C589 C587 1.356 . S
H590 C584 0.930 . S
H591 C588 0.930 . S
C592 C594 1.348 . S
C592 C595 1.356 . S
C592 O622 1.325 . S
N593 C596 1.314 . S
N593 C597 1.279 . S
C594 C592 1.348 . S
C594 C596 1.353 . S
C594 H636 0.929 . S
C595 C592 1.356 . S
C595 C597 1.358 . S
C595 H637 0.930 . S
C596 N593 1.314 . S
C596 C594 1.353 . S
C596 H638 0.930 . S
C597 N593 1.279 . S
C597 C595 1.358 . S
C597 H639 0.930 . S
C598 C599 1.348 . S
C598 C600 1.356 . S
C598 O623 1.325 . S
C599 C598 1.348 . S
C599 C601 1.353 . S
C599 H640 0.929 . S
C600 C598 1.356 . S
C600 C602 1.358 . S
C600 H641 0.930 . S
C601 C599 1.353 . S
C601 N603 1.314 . S
C601 H642 0.930 . S
C602 C600 1.358 . S
C602 N603 1.279 . S
C602 H643 0.930 . S
N603 C601 1.314 . S
N603 C602 1.279 . S
C604 C606 1.353 . S
C604 N607 1.314 . S
C604 H610 0.930 . S
C605 N607 1.279 . S
C605 C608 1.358 . S
C605 H611 0.930 . S
C606 C604 1.353 . S
C606 C609 1.348 . S
C606 H644 0.929 . S
N607 Li562 1.990 . S
N607 C604 1.314 . S
N607 C605 1.279 . S
C608 C605 1.358 . S
C608 C609 1.356 . S
C608 H645 0.930 . S
C609 C606 1.348 . S
C609 C608 1.356 . S
H610 C604 0.930 . S
H611 C605 0.930 . S
C612 N613 1.314 . S
C612 C614 1.353 . S
C612 H618 0.930 . S
N613 Li563 1.990 . S
N613 C612 1.314 . S
N613 C616 1.279 . S
C614 C612 1.353 . S
C614 C617 1.348 . S
C614 H646 0.929 . S
C615 C616 1.358 . S
C615 C617 1.356 . S
C615 H647 0.930 . S
C616 N613 1.279 . S
C616 C615 1.358 . S
C616 H619 0.930 . S
C617 C614 1.348 . S
C617 C615 1.356 . S
H618 C612 0.930 . S
H619 C616 0.930 . S
O620 Li560 1.956 . S
O620 Li561 1.970 . S
O620 Li562 1.961 . S
O620 C564 1.325 . S
O621 Li560 1.970 . S
O621 Li561 1.956 . S
O621 Li563 1.961 . S
O621 C570 1.325 . S
O622 Li560 1.961 . S
O622 Li562 1.956 . S
O622 Li563 1.970 . S
O622 C592 1.325 . S
O623 Li561 1.961 . S
O623 Li562 1.970 . S
O623 Li563 1.956 . S
O623 C598 1.325 . S
H624 C566 0.929 . S
H625 C567 0.930 . S
H626 C568 0.930 . S
H627 C569 0.930 . S
H628 C571 0.930 . S
H629 C573 0.929 . S
H630 C574 0.930 . S
H631 C575 0.930 . S
H632 C578 0.930 . S
H633 C581 0.929 . S
H634 C586 0.929 . S
H635 C587 0.930 . S
H636 C594 0.929 . S
H637 C595 0.930 . S
H638 C596 0.930 . S
H639 C597 0.930 . S
H640 C599 0.929 . S
H641 C600 0.930 . S
H642 C601 0.930 . S
H643 C602 0.930 . S
H644 C606 0.929 . S
H645 C608 0.930 . S
H646 C614 0.929 . S
H647 C615 0.930 . S
Li648 N665 1.990 . S
Li648 O708 1.956 . S
Li648 O709 1.970 . S
Li648 O710 1.961 . S
Li649 N673 1.990 . S
Li649 O708 1.970 . S
Li649 O709 1.956 . S
Li649 O711 1.961 . S
Li650 N695 1.990 . S
Li650 O708 1.961 . S
Li650 O710 1.956 . S
Li650 O711 1.970 . S
Li651 N701 1.990 . S
Li651 O709 1.961 . S
Li651 O710 1.970 . S
Li651 O711 1.956 . S
C652 C654 1.348 . S
C652 C655 1.356 . S
C652 O708 1.325 . S
N653 C656 1.314 . S
N653 C657 1.279 . S
C654 C652 1.348 . S
C654 C656 1.353 . S
C654 H712 0.929 . S
C655 C652 1.356 . S
C655 C657 1.358 . S
C655 H713 0.930 . S
C656 N653 1.314 . S
C656 C654 1.353 . S
C656 H714 0.930 . S
C657 N653 1.279 . S
C657 C655 1.358 . S
C657 H715 0.930 . S
C658 C661 1.348 . S
C658 C662 1.356 . S
C658 O709 1.325 . S
C659 N660 1.279 . S
C659 C662 1.358 . S
C659 H716 0.930 . S
N660 C659 1.279 . S
N660 C663 1.314 . S
C661 C658 1.348 . S
C661 C663 1.353 . S
C661 H717 0.929 . S
C662 C658 1.356 . S
C662 C659 1.358 . S
C662 H718 0.930 . S
C663 N660 1.314 . S
C663 C661 1.353 . S
C663 H719 0.930 . S
C664 N665 1.314 . S
C664 C669 1.353 . S
C664 H670 0.930 . S
N665 Li648 1.990 . S
N665 C664 1.314 . S
N665 C667 1.279 . S
C666 C667 1.358 . S
C666 C668 1.356 . S
C666 H720 0.930 . S
C667 N665 1.279 . S
C667 C666 1.358 . S
C667 H671 0.930 . S
C668 C666 1.356 . S
C668 C669 1.348 . S
C669 C664 1.353 . S
C669 C668 1.348 . S
C669 H721 0.929 . S
H670 C664 0.930 . S
H671 C667 0.930 . S
C672 N673 1.314 . S
C672 C674 1.353 . S
C672 H678 0.930 . S
N673 Li649 1.990 . S
N673 C672 1.314 . S
N673 C676 1.279 . S
C674 C672 1.353 . S
C674 C677 1.348 . S
C674 H722 0.929 . S
C675 C676 1.358 . S
C675 C677 1.356 . S
C675 H723 0.930 . S
C676 N673 1.279 . S
C676 C675 1.358 . S
C676 H679 0.930 . S
C677 C674 1.348 . S
C677 C675 1.356 . S
H678 C672 0.930 . S
H679 C676 0.930 . S
C680 C682 1.348 . S
C680 C683 1.356 . S
C680 O710 1.325 . S
N681 C684 1.314 . S
N681 C685 1.279 . S
C682 C680 1.348 . S
C682 C684 1.353 . S
C682 H724 0.929 . S
C683 C680 1.356 . S
C683 C685 1.358 . S
C683 H725 0.930 . S
C684 N681 1.314 . S
C684 C682 1.353 . S
C684 H726 0.930 . S
C685 N681 1.279 . S
C685 C683 1.358 . S
C685 H727 0.930 . S
C686 C687 1.348 . S
C686 C688 1.356 . S
C686 O711 1.325 . S
C687 C686 1.348 . S
C687 C689 1.353 . S
C687 H728 0.929 . S
C688 C686 1.356 . S
C688 C690 1.358 . S
C688 H729 0.930 . S
C689 C687 1.353 . S
C689 N691 1.314 . S
C689 H730 0.930 . S
C690 C688 1.358 . S
C690 N691 1.279 . S
C690 H731 0.930 . S
N691 C689 1.314 . S
N691 C690 1.279 . S
C692 C694 1.353 . S
C692 N695 1.314 . S
C692 H698 0.930 . S
C693 N695 1.279 . S
C693 C696 1.358 . S
C693 H699 0.930 . S
C694 C692 1.353 . S
C694 C697 1.348 . S
C694 H732 0.929 . S
N695 Li650 1.990 . S
N695 C692 1.314 . S
N695 C693 1.279 . S
C696 C693 1.358 . S
C696 C697 1.356 . S
C696 H733 0.930 . S
C697 C694 1.348 . S
C697 C696 1.356 . S
H698 C692 0.930 . S
H699 C693 0.930 . S
C700 N701 1.314 . S
C700 C702 1.353 . S
C700 H706 0.930 . S
N701 Li651 1.990 . S
N701 C700 1.314 . S
N701 C704 1.279 . S
C702 C700 1.353 . S
C702 C705 1.348 . S
C702 H734 0.929 . S
C703 C704 1.358 . S
C703 C705 1.356 . S
C703 H735 0.930 . S
C704 N701 1.279 . S
C704 C703 1.358 . S
C704 H707 0.930 . S
C705 C702 1.348 . S
C705 C703 1.356 . S
H706 C700 0.930 . S
H707 C704 0.930 . S
O708 Li648 1.956 . S
O708 Li649 1.970 . S
O708 Li650 1.961 . S
O708 C652 1.325 . S
O709 Li648 1.970 . S
O709 Li649 1.956 . S
O709 Li651 1.961 . S
O709 C658 1.325 . S
O710 Li648 1.961 . S
O710 Li650 1.956 . S
O710 Li651 1.970 . S
O710 C680 1.325 . S
O711 Li649 1.961 . S
O711 Li650 1.970 . S
O711 Li651 1.956 . S
O711 C686 1.325 . S
H712 C654 0.929 . S
H713 C655 0.930 . S
H714 C656 0.930 . S
H715 C657 0.930 . S
H716 C659 0.930 . S
H717 C661 0.929 . S
H718 C662 0.930 . S
H719 C663 0.930 . S
H720 C666 0.930 . S
H721 C669 0.929 . S
H722 C674 0.929 . S
H723 C675 0.930 . S
H724 C682 0.929 . S
H725 C683 0.930 . S
H726 C684 0.930 . S
H727 C685 0.930 . S
H728 C687 0.929 . S
H729 C688 0.930 . S
H730 C689 0.930 . S
H731 C690 0.930 . S
H732 C694 0.929 . S
H733 C696 0.930 . S
H734 C702 0.929 . S
H735 C703 0.930 . S
Li736 N753 1.990 . S
Li736 O796 1.956 . S
Li736 O797 1.970 . S
Li736 O798 1.961 . S
Li737 N761 1.990 . S
Li737 O796 1.970 . S
Li737 O797 1.956 . S
Li737 O799 1.961 . S
Li738 N783 1.990 . S
Li738 O796 1.961 . S
Li738 O798 1.956 . S
Li738 O799 1.970 . S
Li739 N789 1.990 . S
Li739 O797 1.961 . S
Li739 O798 1.970 . S
Li739 O799 1.956 . S
C740 C742 1.348 . S
C740 C743 1.356 . S
C740 O796 1.325 . S
N741 C744 1.314 . S
N741 C745 1.279 . S
C742 C740 1.348 . S
C742 C744 1.353 . S
C742 H800 0.929 . S
C743 C740 1.356 . S
C743 C745 1.358 . S
C743 H801 0.930 . S
C744 N741 1.314 . S
C744 C742 1.353 . S
C744 H802 0.930 . S
C745 N741 1.279 . S
C745 C743 1.358 . S
C745 H803 0.930 . S
C746 C749 1.348 . S
C746 C750 1.356 . S
C746 O797 1.325 . S
C747 N748 1.279 . S
C747 C750 1.358 . S
C747 H804 0.930 . S
N748 C747 1.279 . S
N748 C751 1.314 . S
C749 C746 1.348 . S
C749 C751 1.353 . S
C749 H805 0.929 . S
C750 C746 1.356 . S
C750 C747 1.358 . S
C750 H806 0.930 . S
C751 N748 1.314 . S
C751 C749 1.353 . S
C751 H807 0.930 . S
C752 N753 1.314 . S
C752 C757 1.353 . S
C752 H758 0.930 . S
N753 Li736 1.990 . S
N753 C752 1.314 . S
N753 C755 1.279 . S
C754 C755 1.358 . S
C754 C756 1.356 . S
C754 H808 0.930 . S
C755 N753 1.279 . S
C755 C754 1.358 . S
C755 H759 0.930 . S
C756 C754 1.356 . S
C756 C757 1.348 . S
C757 C752 1.353 . S
C757 C756 1.348 . S
C757 H809 0.929 . S
H758 C752 0.930 . S
H759 C755 0.930 . S
C760 N761 1.314 . S
C760 C762 1.353 . S
C760 H766 0.930 . S
N761 Li737 1.990 . S
N761 C760 1.314 . S
N761 C764 1.279 . S
C762 C760 1.353 . S
C762 C765 1.348 . S
C762 H810 0.929 . S
C763 C764 1.358 . S
C763 C765 1.356 . S
C763 H811 0.930 . S
C764 N761 1.279 . S
C764 C763 1.358 . S
C764 H767 0.930 . S
C765 C762 1.348 . S
C765 C763 1.356 . S
H766 C760 0.930 . S
H767 C764 0.930 . S
C768 C770 1.348 . S
C768 C771 1.356 . S
C768 O798 1.325 . S
N769 C772 1.314 . S
N769 C773 1.279 . S
C770 C768 1.348 . S
C770 C772 1.353 . S
C770 H812 0.929 . S
C771 C768 1.356 . S
C771 C773 1.358 . S
C771 H813 0.930 . S
C772 N769 1.314 . S
C772 C770 1.353 . S
C772 H814 0.930 . S
C773 N769 1.279 . S
C773 C771 1.358 . S
C773 H815 0.930 . S
C774 C775 1.348 . S
C774 C776 1.356 . S
C774 O799 1.325 . S
C775 C774 1.348 . S
C775 C777 1.353 . S
C775 H816 0.929 . S
C776 C774 1.356 . S
C776 C778 1.358 . S
C776 H817 0.930 . S
C777 C775 1.353 . S
C777 N779 1.314 . S
C777 H818 0.930 . S
C778 C776 1.358 . S
C778 N779 1.279 . S
C778 H819 0.930 . S
N779 C777 1.314 . S
N779 C778 1.279 . S
C780 C782 1.353 . S
C780 N783 1.314 . S
C780 H786 0.930 . S
C781 N783 1.279 . S
C781 C784 1.358 . S
C781 H787 0.930 . S
C782 C780 1.353 . S
C782 C785 1.348 . S
C782 H820 0.929 . S
N783 Li738 1.990 . S
N783 C780 1.314 . S
N783 C781 1.279 . S
C784 C781 1.358 . S
C784 C785 1.356 . S
C784 H821 0.930 . S
C785 C782 1.348 . S
C785 C784 1.356 . S
H786 C780 0.930 . S
H787 C781 0.930 . S
C788 N789 1.314 . S
C788 C790 1.353 . S
C788 H794 0.930 . S
N789 Li739 1.990 . S
N789 C788 1.314 . S
N789 C792 1.279 . S
C790 C788 1.353 . S
C790 C793 1.348 . S
C790 H822 0.929 . S
C791 C792 1.358 . S
C791 C793 1.356 . S
C791 H823 0.930 . S
C792 N789 1.279 . S
C792 C791 1.358 . S
C792 H795 0.930 . S
C793 C790 1.348 . S
C793 C791 1.356 . S
H794 C788 0.930 . S
H795 C792 0.930 . S
O796 Li736 1.956 . S
O796 Li737 1.970 . S
O796 Li738 1.961 . S
O796 C740 1.325 . S
O797 Li736 1.970 . S
O797 Li737 1.956 . S
O797 Li739 1.961 . S
O797 C746 1.325 . S
O798 Li736 1.961 . S
O798 Li738 1.956 . S
O798 Li739 1.970 . S
O798 C768 1.325 . S
O799 Li737 1.961 . S
O799 Li738 1.970 . S
O799 Li739 1.956 . S
O799 C774 1.325 . S
H800 C742 0.929 . S
H801 C743 0.930 . S
H802 C744 0.930 . S
H803 C745 0.930 . S
H804 C747 0.930 . S
H805 C749 0.929 . S
H806 C750 0.930 . S
H807 C751 0.930 . S
H808 C754 0.930 . S
H809 C757 0.929 . S
H810 C762 0.929 . S
H811 C763 0.930 . S
H812 C770 0.929 . S
H813 C771 0.930 . S
H814 C772 0.930 . S
H815 C773 0.930 . S
H816 C775 0.929 . S
H817 C776 0.930 . S
H818 C777 0.930 . S
H819 C778 0.930 . S
H820 C782 0.929 . S
H821 C784 0.930 . S
H822 C790 0.929 . S
H823 C791 0.930 . S
Li824 N841 1.990 . S
Li824 O884 1.956 . S
Li824 O885 1.970 1_565 S
Li824 O886 1.961 1_565 S
Li825 N849 1.990 . S
Li825 O884 1.970 1_545 S
Li825 O885 1.956 . S
Li825 O887 1.961 . S
Li826 N871 1.987 1_545 S
Li826 O884 1.961 1_545 S
Li826 O886 1.956 . S
Li826 O887 1.970 . S
Li827 N877 1.990 . S
Li827 O885 1.961 . S
Li827 O886 1.970 . S
Li827 O887 1.956 . S
C828 C830 1.348 . S
C828 C831 1.356 . S
C828 O884 1.325 . S
N829 C832 1.314 . S
N829 C833 1.279 . S
C830 C828 1.348 . S
C830 C832 1.353 . S
C830 H888 0.929 . S
C831 C828 1.356 . S
C831 C833 1.358 . S
C831 H889 0.930 . S
C832 N829 1.314 . S
C832 C830 1.353 . S
C832 H890 0.930 . S
C833 N829 1.279 . S
C833 C831 1.358 . S
C833 H891 0.930 . S
C834 C837 1.348 . S
C834 C838 1.356 . S
C834 O885 1.325 . S
C835 N836 1.279 . S
C835 C838 1.358 . S
C835 H892 0.930 . S
N836 C835 1.279 . S
N836 C839 1.314 . S
C837 C834 1.348 . S
C837 C839 1.353 . S
C837 H893 0.929 1_545 S
C838 C834 1.356 . S
C838 C835 1.358 . S
C838 H894 0.930 . S
C839 N836 1.314 . S
C839 C837 1.353 . S
C839 H895 0.930 . S
C840 N841 1.314 . S
C840 C845 1.353 . S
C840 H846 0.930 . S
N841 Li824 1.990 . S
N841 C840 1.314 . S
N841 C843 1.279 . S
C842 C843 1.358 . S
C842 C844 1.356 . S
C842 H896 0.930 . S
C843 N841 1.279 . S
C843 C842 1.358 . S
C843 H847 0.930 . S
C844 C842 1.356 . S
C844 C845 1.348 . S
C845 C840 1.353 . S
C845 C844 1.348 . S
C845 H897 0.929 . S
H846 C840 0.930 . S
H847 C843 0.930 . S
C848 N849 1.314 . S
C848 C850 1.353 . S
C848 H854 0.930 . S
N849 Li825 1.990 . S
N849 C848 1.314 . S
N849 C852 1.279 . S
C850 C848 1.353 . S
C850 C853 1.348 . S
C850 H898 0.929 . S
C851 C852 1.358 . S
C851 C853 1.356 . S
C851 H899 0.930 . S
C852 N849 1.279 . S
C852 C851 1.358 . S
C852 H855 0.930 . S
C853 C850 1.348 . S
C853 C851 1.356 . S
H854 C848 0.930 . S
H855 C852 0.930 . S
C856 C858 1.348 . S
C856 C859 1.356 1_545 S
C856 O886 1.325 . S
N857 C860 1.314 1_565 S
N857 C861 1.279 . S
C858 C856 1.348 . S
C858 C860 1.353 . S
C858 H900 0.929 . S
C859 C856 1.356 1_565 S
C859 C861 1.358 . S
C859 H901 0.930 . S
C860 N857 1.314 1_545 S
C860 C858 1.353 . S
C860 H902 0.930 . S
C861 N857 1.279 . S
C861 C859 1.358 . S
C861 H903 0.930 . S
C862 C863 1.348 . S
C862 C864 1.356 . S
C862 O887 1.325 . S
C863 C862 1.348 . S
C863 C865 1.353 . S
C863 H904 0.929 . S
C864 C862 1.356 . S
C864 C866 1.358 . S
C864 H905 0.930 . S
C865 C863 1.353 . S
C865 N867 1.314 . S
C865 H906 0.930 . S
C866 C864 1.358 . S
C866 N867 1.279 . S
C866 H907 0.930 . S
N867 C865 1.314 . S
N867 C866 1.279 . S
C868 C870 1.353 . S
C868 N871 1.320 . S
C868 H874 0.930 . S
C869 N871 1.275 1_545 S
C869 C872 1.358 1_545 S
C869 H875 0.932 . S
C870 C868 1.353 . S
C870 C873 1.348 . S
C870 H908 0.929 . S
N871 Li826 1.987 1_565 S
N871 C868 1.320 . S
N871 C869 1.275 1_565 S
C872 C869 1.358 1_565 S
C872 C873 1.356 . S
C872 H909 0.930 . S
C873 C870 1.348 . S
C873 C872 1.356 . S
H874 C868 0.930 . S
H875 C869 0.932 . S
C876 N877 1.314 . S
C876 C878 1.353 . S
C876 H882 0.930 . S
N877 Li827 1.990 . S
N877 C876 1.314 . S
N877 C880 1.279 . S
C878 C876 1.353 . S
C878 C881 1.348 . S
C878 H910 0.929 . S
C879 C880 1.358 . S
C879 C881 1.356 . S
C879 H911 0.930 . S
C880 N877 1.279 . S
C880 C879 1.358 . S
C880 H883 0.930 . S
C881 C878 1.348 . S
C881 C879 1.356 . S
H882 C876 0.930 . S
H883 C880 0.930 . S
O884 Li824 1.956 . S
O884 Li825 1.970 1_565 S
O884 Li826 1.961 1_565 S
O884 C828 1.325 . S
O885 Li824 1.970 1_545 S
O885 Li825 1.956 . S
O885 Li827 1.961 . S
O885 C834 1.325 . S
O886 Li824 1.961 1_545 S
O886 Li826 1.956 . S
O886 Li827 1.970 . S
O886 C856 1.325 . S
O887 Li825 1.961 . S
O887 Li826 1.970 . S
O887 Li827 1.956 . S
O887 C862 1.325 . S
H888 C830 0.929 . S
H889 C831 0.930 . S
H890 C832 0.930 . S
H891 C833 0.930 . S
H892 C835 0.930 . S
H893 C837 0.929 1_565 S
H894 C838 0.930 . S
H895 C839 0.930 . S
H896 C842 0.930 . S
H897 C845 0.929 . S
H898 C850 0.929 . S
H899 C851 0.930 . S
H900 C858 0.929 . S
H901 C859 0.930 . S
H902 C860 0.930 . S
H903 C861 0.930 . S
H904 C863 0.929 . S
H905 C864 0.930 . S
H906 C865 0.930 . S
H907 C866 0.930 . S
H908 C870 0.929 . S
H909 C872 0.930 . S
H910 C878 0.929 . S
H911 C879 0.930 . S
Li912 N929 1.990 . S
Li912 O972 1.956 . S
Li912 O973 1.970 . S
Li912 O974 1.961 . S
Li913 N937 1.990 1_455 S
Li913 O972 1.970 . S
Li913 O973 1.956 . S
Li913 O975 1.961 1_455 S
Li914 N959 1.990 . S
Li914 O972 1.961 . S
Li914 O974 1.956 . S
Li914 O975 1.970 1_455 S
Li915 N965 1.990 . S
Li915 O973 1.961 1_655 S
Li915 O974 1.970 1_655 S
Li915 O975 1.956 . S
C916 C918 1.348 . S
C916 C919 1.356 . S
C916 O972 1.325 . S
N917 C920 1.314 . S
N917 C921 1.279 . S
C918 C916 1.348 . S
C918 C920 1.353 . S
C918 H976 0.929 . S
C919 C916 1.356 . S
C919 C921 1.358 . S
C919 H977 0.930 . S
C920 N917 1.314 . S
C920 C918 1.353 . S
C920 H978 0.930 . S
C921 N917 1.279 . S
C921 C919 1.358 . S
C921 H979 0.930 . S
C922 C925 1.348 . S
C922 C926 1.356 1_455 S
C922 O973 1.325 . S
C923 N924 1.279 1_655 S
C923 C926 1.358 . S
C923 H980 0.930 . S
N924 C923 1.279 1_455 S
N924 C927 1.314 . S
C925 C922 1.348 . S
C925 C927 1.353 . S
C925 H981 0.929 . S
C926 C922 1.356 1_655 S
C926 C923 1.358 . S
C926 H982 0.930 . S
C927 N924 1.314 . S
C927 C925 1.353 . S
C927 H983 0.930 . S
C928 N929 1.314 . S
C928 C933 1.353 . S
C928 H934 0.930 . S
N929 Li912 1.990 . S
N929 C928 1.314 . S
N929 C931 1.279 . S
C930 C931 1.358 . S
C930 C932 1.356 . S
C930 H984 0.930 . S
C931 N929 1.279 . S
C931 C930 1.358 . S
C931 H935 0.930 . S
C932 C930 1.356 . S
C932 C933 1.348 . S
C933 C928 1.353 . S
C933 C932 1.348 . S
C933 H985 0.929 . S
H934 C928 0.930 . S
H935 C931 0.930 . S
C936 N937 1.314 . S
C936 C938 1.353 . S
C936 H942 0.930 . S
N937 Li913 1.990 1_655 S
N937 C936 1.314 . S
N937 C940 1.279 1_655 S
C938 C936 1.353 . S
C938 C941 1.348 . S
C938 H986 0.929 . S
C939 C940 1.365 . S
C939 C941 1.345 1_455 S
C939 H987 0.938 . S
C940 N937 1.279 1_455 S
C940 C939 1.365 . S
C940 H943 0.930 . S
C941 C938 1.348 . S
C941 C939 1.345 1_655 S
H942 C936 0.930 . S
H943 C940 0.930 . S
C944 C946 1.348 1_455 S
C944 C947 1.356 . S
C944 O974 1.325 . S
N945 C948 1.314 1_455 S
N945 C949 1.279 . S
C946 C944 1.348 1_655 S
C946 C948 1.353 . S
C946 H988 0.929 . S
C947 C944 1.356 . S
C947 C949 1.358 . S
C947 H989 0.930 . S
C948 N945 1.314 1_655 S
C948 C946 1.353 . S
C948 H990 0.930 . S
C949 N945 1.279 . S
C949 C947 1.358 . S
C949 H991 0.930 . S
C950 C951 1.348 . S
C950 C952 1.356 . S
C950 O975 1.325 . S
C951 C950 1.348 . S
C951 C953 1.353 . S
C951 H992 0.929 . S
C952 C950 1.356 . S
C952 C954 1.358 . S
C952 H993 0.930 . S
C953 C951 1.353 . S
C953 N955 1.314 . S
C953 H994 0.930 . S
C954 C952 1.358 . S
C954 N955 1.279 . S
C954 H995 0.930 . S
N955 C953 1.314 . S
N955 C954 1.279 . S
C956 C958 1.353 . S
C956 N959 1.314 . S
C956 H962 0.930 . S
C957 N959 1.279 . S
C957 C960 1.358 . S
C957 H963 0.930 . S
C958 C956 1.353 . S
C958 C961 1.348 . S
C958 H996 0.929 . S
N959 Li914 1.990 . S
N959 C956 1.314 . S
N959 C957 1.279 . S
C960 C957 1.358 . S
C960 C961 1.356 . S
C960 H997 0.930 . S
C961 C958 1.348 . S
C961 C960 1.356 . S
H962 C956 0.930 . S
H963 C957 0.930 . S
C964 N965 1.314 . S
C964 C966 1.353 . S
C964 H970 0.930 . S
N965 Li915 1.990 . S
N965 C964 1.314 . S
N965 C968 1.279 . S
C966 C964 1.353 . S
C966 C969 1.348 . S
C966 H998 0.929 . S
C967 C968 1.358 . S
C967 C969 1.356 . S
C967 H999 0.930 . S
C968 N965 1.279 . S
C968 C967 1.358 . S
C968 H971 0.930 . S
C969 C966 1.348 . S
C969 C967 1.356 . S
H970 C964 0.930 . S
H971 C968 0.930 . S
O972 Li912 1.956 . S
O972 Li913 1.970 . S
O972 Li914 1.961 . S
O972 C916 1.325 . S
O973 Li912 1.970 . S
O973 Li913 1.956 . S
O973 Li915 1.961 1_455 S
O973 C922 1.325 . S
O974 Li912 1.961 . S
O974 Li914 1.956 . S
O974 Li915 1.970 1_455 S
O974 C944 1.325 . S
O975 Li913 1.961 1_655 S
O975 Li914 1.970 1_655 S
O975 Li915 1.956 . S
O975 C950 1.325 . S
H976 C918 0.929 . S
H977 C919 0.930 . S
H978 C920 0.930 . S
H979 C921 0.930 . S
H980 C923 0.930 . S
H981 C925 0.929 . S
H982 C926 0.930 . S
H983 C927 0.930 . S
H984 C930 0.930 . S
H985 C933 0.929 . S
H986 C938 0.929 . S
H987 C939 0.938 . S
H988 C946 0.929 . S
H989 C947 0.930 . S
H990 C948 0.930 . S
H991 C949 0.930 . S
H992 C951 0.929 . S
H993 C952 0.930 . S
H994 C953 0.930 . S
H995 C954 0.930 . S
H996 C958 0.929 . S
H997 C960 0.930 . S
H998 C966 0.929 . S
H999 C967 0.930 . S
Li1000 N1017 1.990 . S
Li1000 O1060 1.956 . S
Li1000 O1061 1.970 . S
Li1000 O1062 1.961 . S
Li1001 N1025 1.990 . S
Li1001 O1060 1.970 . S
Li1001 O1061 1.956 . S
Li1001 O1063 1.961 . S
Li1002 N1047 1.990 . S
Li1002 O1060 1.961 . S
Li1002 O1062 1.956 . S
Li1002 O1063 1.970 . S
Li1003 N1053 1.990 . S
Li1003 O1061 1.961 . S
Li1003 O1062 1.970 . S
Li1003 O1063 1.956 . S
C1004 C1006 1.348 . S
C1004 C1007 1.356 . S
C1004 O1060 1.325 . S
N1005 C1008 1.314 . S
N1005 C1009 1.279 . S
C1006 C1004 1.348 . S
C1006 C1008 1.353 . S
C1006 H1064 0.929 . S
C1007 C1004 1.356 . S
C1007 C1009 1.358 . S
C1007 H1065 0.930 . S
C1008 N1005 1.314 . S
C1008 C1006 1.353 . S
C1008 H1066 0.930 . S
C1009 N1005 1.279 . S
C1009 C1007 1.358 . S
C1009 H1067 0.930 . S
C1010 C1013 1.348 . S
C1010 C1014 1.356 . S
C1010 O1061 1.325 . S
C1011 N1012 1.279 . S
C1011 C1014 1.358 . S
C1011 H1068 0.930 . S
N1012 C1011 1.279 . S
N1012 C1015 1.314 . S
C1013 C1010 1.348 . S
C1013 C1015 1.353 . S
C1013 H1069 0.929 . S
C1014 C1010 1.356 . S
C1014 C1011 1.358 . S
C1014 H1070 0.930 . S
C1015 N1012 1.314 . S
C1015 C1013 1.353 . S
C1015 H1071 0.930 . S
C1016 N1017 1.314 . S
C1016 C1021 1.353 . S
C1016 H1022 0.930 . S
N1017 Li1000 1.990 . S
N1017 C1016 1.314 . S
N1017 C1019 1.279 . S
C1018 C1019 1.358 . S
C1018 C1020 1.356 . S
C1018 H1072 0.930 . S
C1019 N1017 1.279 . S
C1019 C1018 1.358 . S
C1019 H1023 0.930 . S
C1020 C1018 1.356 . S
C1020 C1021 1.348 . S
C1021 C1016 1.353 . S
C1021 C1020 1.348 . S
C1021 H1073 0.929 . S
H1022 C1016 0.930 . S
H1023 C1019 0.930 . S
C1024 N1025 1.314 . S
C1024 C1026 1.353 . S
C1024 H1030 0.930 . S
N1025 Li1001 1.990 . S
N1025 C1024 1.314 . S
N1025 C1028 1.279 . S
C1026 C1024 1.353 . S
C1026 C1029 1.348 . S
C1026 H1074 0.929 . S
C1027 C1028 1.358 . S
C1027 C1029 1.356 . S
C1027 H1075 0.930 . S
C1028 N1025 1.279 . S
C1028 C1027 1.358 . S
C1028 H1031 0.930 . S
C1029 C1026 1.348 . S
C1029 C1027 1.356 . S
H1030 C1024 0.930 . S
H1031 C1028 0.930 . S
C1032 C1034 1.348 . S
C1032 C1035 1.356 . S
C1032 O1062 1.325 . S
N1033 C1036 1.314 . S
N1033 C1037 1.279 . S
C1034 C1032 1.348 . S
C1034 C1036 1.353 . S
C1034 H1076 0.929 . S
C1035 C1032 1.356 . S
C1035 C1037 1.358 . S
C1035 H1077 0.930 . S
C1036 N1033 1.314 . S
C1036 C1034 1.353 . S
C1036 H1078 0.930 . S
C1037 N1033 1.279 . S
C1037 C1035 1.358 . S
C1037 H1079 0.930 . S
C1038 C1039 1.348 . S
C1038 C1040 1.356 . S
C1038 O1063 1.325 . S
C1039 C1038 1.348 . S
C1039 C1041 1.353 . S
C1039 H1080 0.929 . S
C1040 C1038 1.356 . S
C1040 C1042 1.358 . S
C1040 H1081 0.930 . S
C1041 C1039 1.353 . S
C1041 N1043 1.314 . S
C1041 H1082 0.930 . S
C1042 C1040 1.358 . S
C1042 N1043 1.279 . S
C1042 H1083 0.930 . S
N1043 C1041 1.314 . S
N1043 C1042 1.279 . S
C1044 C1046 1.353 . S
C1044 N1047 1.314 . S
C1044 H1050 0.930 . S
C1045 N1047 1.279 . S
C1045 C1048 1.358 . S
C1045 H1051 0.930 . S
C1046 C1044 1.353 . S
C1046 C1049 1.348 . S
C1046 H1084 0.929 . S
N1047 Li1002 1.990 . S
N1047 C1044 1.314 . S
N1047 C1045 1.279 . S
C1048 C1045 1.358 . S
C1048 C1049 1.356 . S
C1048 H1085 0.930 . S
C1049 C1046 1.348 . S
C1049 C1048 1.356 . S
H1050 C1044 0.930 . S
H1051 C1045 0.930 . S
C1052 N1053 1.314 . S
C1052 C1054 1.353 . S
C1052 H1058 0.930 . S
N1053 Li1003 1.990 . S
N1053 C1052 1.314 . S
N1053 C1056 1.279 . S
C1054 C1052 1.353 . S
C1054 C1057 1.348 . S
C1054 H1086 0.929 . S
C1055 C1056 1.358 . S
C1055 C1057 1.356 . S
C1055 H1087 0.930 . S
C1056 N1053 1.279 . S
C1056 C1055 1.358 . S
C1056 H1059 0.930 . S
C1057 C1054 1.348 . S
C1057 C1055 1.356 . S
H1058 C1052 0.930 . S
H1059 C1056 0.930 . S
O1060 Li1000 1.956 . S
O1060 Li1001 1.970 . S
O1060 Li1002 1.961 . S
O1060 C1004 1.325 . S
O1061 Li1000 1.970 . S
O1061 Li1001 1.956 . S
O1061 Li1003 1.961 . S
O1061 C1010 1.325 . S
O1062 Li1000 1.961 . S
O1062 Li1002 1.956 . S
O1062 Li1003 1.970 . S
O1062 C1032 1.325 . S
O1063 Li1001 1.961 . S
O1063 Li1002 1.970 . S
O1063 Li1003 1.956 . S
O1063 C1038 1.325 . S
H1064 C1006 0.929 . S
H1065 C1007 0.930 . S
H1066 C1008 0.930 . S
H1067 C1009 0.930 . S
H1068 C1011 0.930 . S
H1069 C1013 0.929 . S
H1070 C1014 0.930 . S
H1071 C1015 0.930 . S
H1072 C1018 0.930 . S
H1073 C1021 0.929 . S
H1074 C1026 0.929 . S
H1075 C1027 0.930 . S
H1076 C1034 0.929 . S
H1077 C1035 0.930 . S
H1078 C1036 0.930 . S
H1079 C1037 0.930 . S
H1080 C1039 0.929 . S
H1081 C1040 0.930 . S
H1082 C1041 0.930 . S
H1083 C1042 0.930 . S
H1084 C1046 0.929 . S
H1085 C1048 0.930 . S
H1086 C1054 0.929 . S
H1087 C1055 0.930 . S
Li1088 N1105 1.990 . S
Li1088 O1148 1.956 . S
Li1088 O1149 1.966 . S
Li1088 O1150 1.961 . S
Li1089 N1113 1.990 1_455 S
Li1089 O1148 1.970 . S
Li1089 O1149 1.956 . S
Li1089 O1151 1.961 . S
Li1090 N1135 1.990 . S
Li1090 O1148 1.961 . S
Li1090 O1150 1.956 . S
Li1090 O1151 1.970 . S
Li1091 N1141 1.990 . S
Li1091 O1149 1.958 . S
Li1091 O1150 1.970 . S
Li1091 O1151 1.956 . S
C1092 C1094 1.348 . S
C1092 C1095 1.356 . S
C1092 O1148 1.325 . S
N1093 C1096 1.314 . S
N1093 C1097 1.279 . S
C1094 C1092 1.348 . S
C1094 C1096 1.353 . S
C1094 H1152 0.929 . S
C1095 C1092 1.356 . S
C1095 C1097 1.358 . S
C1095 H1153 0.930 . S
C1096 N1093 1.314 . S
C1096 C1094 1.353 . S
C1096 H1154 0.930 . S
C1097 N1093 1.279 . S
C1097 C1095 1.358 . S
C1097 H1155 0.930 . S
C1098 C1101 1.348 . S
C1098 C1102 1.356 . S
C1098 O1149 1.329 1_655 S
C1099 N1100 1.279 . S
C1099 C1102 1.358 . S
C1099 H1156 0.930 . S
N1100 C1099 1.279 . S
N1100 C1103 1.314 . S
C1101 C1098 1.348 . S
C1101 C1103 1.353 . S
C1101 H1157 0.929 . S
C1102 C1098 1.356 . S
C1102 C1099 1.358 . S
C1102 H1158 0.930 . S
C1103 N1100 1.314 . S
C1103 C1101 1.353 . S
C1103 H1159 0.930 . S
C1104 N1105 1.314 . S
C1104 C1109 1.353 . S
C1104 H1110 0.930 . S
N1105 Li1088 1.990 . S
N1105 C1104 1.314 . S
N1105 C1107 1.279 . S
C1106 C1107 1.358 . S
C1106 C1108 1.356 . S
C1106 H1160 0.930 . S
C1107 N1105 1.279 . S
C1107 C1106 1.358 . S
C1107 H1111 0.930 . S
C1108 C1106 1.356 . S
C1108 C1109 1.348 . S
C1109 C1104 1.353 . S
C1109 C1108 1.348 . S
C1109 H1161 0.929 . S
H1110 C1104 0.930 . S
H1111 C1107 0.930 . S
C1112 N1113 1.314 . S
C1112 C1114 1.353 . S
C1112 H1118 0.930 . S
N1113 Li1089 1.990 1_655 S
N1113 C1112 1.314 . S
N1113 C1116 1.279 . S
C1114 C1112 1.353 . S
C1114 C1117 1.348 . S
C1114 H1162 0.929 . S
C1115 C1116 1.358 . S
C1115 C1117 1.356 . S
C1115 H1163 0.930 . S
C1116 N1113 1.279 . S
C1116 C1115 1.358 . S
C1116 H1119 0.930 . S
C1117 C1114 1.348 . S
C1117 C1115 1.356 . S
H1118 C1112 0.930 . S
H1119 C1116 0.930 . S
C1120 C1122 1.348 . S
C1120 C1123 1.356 . S
C1120 O1150 1.325 . S
N1121 C1124 1.314 . S
N1121 C1125 1.279 . S
C1122 C1120 1.348 . S
C1122 C1124 1.353 . S
C1122 H1164 0.929 . S
C1123 C1120 1.356 . S
C1123 C1125 1.358 . S
C1123 H1165 0.930 . S
C1124 N1121 1.314 . S
C1124 C1122 1.353 . S
C1124 H1166 0.930 . S
C1125 N1121 1.279 . S
C1125 C1123 1.358 . S
C1125 H1167 0.930 . S
C1126 C1127 1.348 . S
C1126 C1128 1.356 1_455 S
C1126 O1151 1.325 . S
C1127 C1126 1.348 . S
C1127 C1129 1.353 . S
C1127 H1168 0.929 . S
C1128 C1126 1.356 1_655 S
C1128 C1130 1.358 . S
C1128 H1169 0.930 . S
C1129 C1127 1.353 . S
C1129 N1131 1.314 . S
C1129 H1170 0.930 . S
C1130 C1128 1.358 . S
C1130 N1131 1.279 1_655 S
C1130 H1171 0.930 . S
N1131 C1129 1.314 . S
N1131 C1130 1.279 1_455 S
C1132 C1134 1.353 . S
C1132 N1135 1.314 . S
C1132 H1138 0.930 . S
C1133 N1135 1.279 . S
C1133 C1136 1.358 . S
C1133 H1139 0.930 . S
C1134 C1132 1.353 . S
C1134 C1137 1.348 . S
C1134 H1172 0.929 . S
N1135 Li1090 1.990 . S
N1135 C1132 1.314 . S
N1135 C1133 1.279 . S
C1136 C1133 1.358 . S
C1136 C1137 1.356 . S
C1136 H1173 0.930 . S
C1137 C1134 1.348 . S
C1137 C1136 1.356 . S
H1138 C1132 0.930 . S
H1139 C1133 0.930 . S
C1140 N1141 1.314 . S
C1140 C1142 1.353 . S
C1140 H1146 0.930 . S
N1141 Li1091 1.990 . S
N1141 C1140 1.314 . S
N1141 C1144 1.279 . S
C1142 C1140 1.353 . S
C1142 C1145 1.348 . S
C1142 H1174 0.930 1_455 S
C1143 C1144 1.358 . S
C1143 C1145 1.356 . S
C1143 H1175 0.930 . S
C1144 N1141 1.279 . S
C1144 C1143 1.358 . S
C1144 H1147 0.930 . S
C1145 C1142 1.348 . S
C1145 C1143 1.356 . S
H1146 C1140 0.930 . S
H1147 C1144 0.930 . S
O1148 Li1088 1.956 . S
O1148 Li1089 1.970 . S
O1148 Li1090 1.961 . S
O1148 C1092 1.325 . S
O1149 Li1088 1.966 . S
O1149 Li1089 1.956 . S
O1149 Li1091 1.958 . S
O1149 C1098 1.329 1_455 S
O1150 Li1088 1.961 . S
O1150 Li1090 1.956 . S
O1150 Li1091 1.970 . S
O1150 C1120 1.325 . S
O1151 Li1089 1.961 . S
O1151 Li1090 1.970 . S
O1151 Li1091 1.956 . S
O1151 C1126 1.325 . S
H1152 C1094 0.929 . S
H1153 C1095 0.930 . S
H1154 C1096 0.930 . S
H1155 C1097 0.930 . S
H1156 C1099 0.930 . S
H1157 C1101 0.929 . S
H1158 C1102 0.930 . S
H1159 C1103 0.930 . S
H1160 C1106 0.930 . S
H1161 C1109 0.929 . S
H1162 C1114 0.929 . S
H1163 C1115 0.930 . S
H1164 C1122 0.929 . S
H1165 C1123 0.930 . S
H1166 C1124 0.930 . S
H1167 C1125 0.930 . S
H1168 C1127 0.929 . S
H1169 C1128 0.930 . S
H1170 C1129 0.930 . S
H1171 C1130 0.930 . S
H1172 C1134 0.929 . S
H1173 C1136 0.930 . S
H1174 C1142 0.930 1_655 S
H1175 C1143 0.930 . S
Li1176 N1193 1.990 . S
Li1176 O1236 1.956 . S
Li1176 O1237 1.970 . S
Li1176 O1238 1.961 . S
Li1177 N1201 1.990 . S
Li1177 O1236 1.970 . S
Li1177 O1237 1.956 . S
Li1177 O1239 1.961 . S
Li1178 N1223 1.990 . S
Li1178 O1236 1.961 . S
Li1178 O1238 1.956 . S
Li1178 O1239 1.970 . S
Li1179 N1229 1.990 . S
Li1179 O1237 1.961 . S
Li1179 O1238 1.970 . S
Li1179 O1239 1.956 . S
C1180 C1182 1.348 . S
C1180 C1183 1.356 . S
C1180 O1236 1.325 . S
N1181 C1184 1.314 . S
N1181 C1185 1.279 . S
C1182 C1180 1.348 . S
C1182 C1184 1.353 . S
C1182 H1240 0.929 . S
C1183 C1180 1.356 . S
C1183 C1185 1.358 . S
C1183 H1241 0.930 . S
C1184 N1181 1.314 . S
C1184 C1182 1.353 . S
C1184 H1242 0.930 . S
C1185 N1181 1.279 . S
C1185 C1183 1.358 . S
C1185 H1243 0.930 . S
C1186 C1189 1.348 . S
C1186 C1190 1.356 . S
C1186 O1237 1.325 . S
C1187 N1188 1.279 . S
C1187 C1190 1.358 . S
C1187 H1244 0.930 . S
N1188 C1187 1.279 . S
N1188 C1191 1.314 . S
C1189 C1186 1.348 . S
C1189 C1191 1.353 . S
C1189 H1245 0.929 . S
C1190 C1186 1.356 . S
C1190 C1187 1.358 . S
C1190 H1246 0.930 . S
C1191 N1188 1.314 . S
C1191 C1189 1.353 . S
C1191 H1247 0.930 . S
C1192 N1193 1.314 . S
C1192 C1197 1.353 . S
C1192 H1198 0.930 . S
N1193 Li1176 1.990 . S
N1193 C1192 1.314 . S
N1193 C1195 1.279 . S
C1194 C1195 1.358 . S
C1194 C1196 1.356 . S
C1194 H1248 0.930 . S
C1195 N1193 1.279 . S
C1195 C1194 1.358 . S
C1195 H1199 0.930 . S
C1196 C1194 1.356 . S
C1196 C1197 1.348 . S
C1197 C1192 1.353 . S
C1197 C1196 1.348 . S
C1197 H1249 0.929 . S
H1198 C1192 0.930 . S
H1199 C1195 0.930 . S
C1200 N1201 1.314 . S
C1200 C1202 1.353 . S
C1200 H1206 0.930 . S
N1201 Li1177 1.990 . S
N1201 C1200 1.314 . S
N1201 C1204 1.279 . S
C1202 C1200 1.353 . S
C1202 C1205 1.348 . S
C1202 H1250 0.929 . S
C1203 C1204 1.358 . S
C1203 C1205 1.356 . S
C1203 H1251 0.930 . S
C1204 N1201 1.279 . S
C1204 C1203 1.358 . S
C1204 H1207 0.930 . S
C1205 C1202 1.348 . S
C1205 C1203 1.356 . S
H1206 C1200 0.930 . S
H1207 C1204 0.930 . S
C1208 C1210 1.348 . S
C1208 C1211 1.356 . S
C1208 O1238 1.325 . S
N1209 C1212 1.314 . S
N1209 C1213 1.279 . S
C1210 C1208 1.348 . S
C1210 C1212 1.353 . S
C1210 H1252 0.929 . S
C1211 C1208 1.356 . S
C1211 C1213 1.358 . S
C1211 H1253 0.930 . S
C1212 N1209 1.314 . S
C1212 C1210 1.353 . S
C1212 H1254 0.930 . S
C1213 N1209 1.279 . S
C1213 C1211 1.358 . S
C1213 H1255 0.930 . S
C1214 C1215 1.348 . S
C1214 C1216 1.356 . S
C1214 O1239 1.325 . S
C1215 C1214 1.348 . S
C1215 C1217 1.353 . S
C1215 H1256 0.929 . S
C1216 C1214 1.356 . S
C1216 C1218 1.358 . S
C1216 H1257 0.930 . S
C1217 C1215 1.353 . S
C1217 N1219 1.314 . S
C1217 H1258 0.930 . S
C1218 C1216 1.358 . S
C1218 N1219 1.279 . S
C1218 H1259 0.930 . S
N1219 C1217 1.314 . S
N1219 C1218 1.279 . S
C1220 C1222 1.353 . S
C1220 N1223 1.314 . S
C1220 H1226 0.930 . S
C1221 N1223 1.279 . S
C1221 C1224 1.358 . S
C1221 H1227 0.930 . S
C1222 C1220 1.353 . S
C1222 C1225 1.348 . S
C1222 H1260 0.929 . S
N1223 Li1178 1.990 . S
N1223 C1220 1.314 . S
N1223 C1221 1.279 . S
C1224 C1221 1.358 . S
C1224 C1225 1.356 . S
C1224 H1261 0.930 . S
C1225 C1222 1.348 . S
C1225 C1224 1.356 . S
H1226 C1220 0.930 . S
H1227 C1221 0.930 . S
C1228 N1229 1.314 . S
C1228 C1230 1.353 . S
C1228 H1234 0.930 . S
N1229 Li1179 1.990 . S
N1229 C1228 1.314 . S
N1229 C1232 1.279 . S
C1230 C1228 1.353 . S
C1230 C1233 1.348 . S
C1230 H1262 0.929 . S
C1231 C1232 1.358 . S
C1231 C1233 1.356 . S
C1231 H1263 0.930 . S
C1232 N1229 1.279 . S
C1232 C1231 1.358 . S
C1232 H1235 0.930 . S
C1233 C1230 1.348 . S
C1233 C1231 1.356 . S
H1234 C1228 0.930 . S
H1235 C1232 0.930 . S
O1236 Li1176 1.956 . S
O1236 Li1177 1.970 . S
O1236 Li1178 1.961 . S
O1236 C1180 1.325 . S
O1237 Li1176 1.970 . S
O1237 Li1177 1.956 . S
O1237 Li1179 1.961 . S
O1237 C1186 1.325 . S
O1238 Li1176 1.961 . S
O1238 Li1178 1.956 . S
O1238 Li1179 1.970 . S
O1238 C1208 1.325 . S
O1239 Li1177 1.961 . S
O1239 Li1178 1.970 . S
O1239 Li1179 1.956 . S
O1239 C1214 1.325 . S
H1240 C1182 0.929 . S
H1241 C1183 0.930 . S
H1242 C1184 0.930 . S
H1243 C1185 0.930 . S
H1244 C1187 0.930 . S
H1245 C1189 0.929 . S
H1246 C1190 0.930 . S
H1247 C1191 0.930 . S
H1248 C1194 0.930 . S
H1249 C1197 0.929 . S
H1250 C1202 0.929 . S
H1251 C1203 0.930 . S
H1252 C1210 0.929 . S
H1253 C1211 0.930 . S
H1254 C1212 0.930 . S
H1255 C1213 0.930 . S
H1256 C1215 0.929 . S
H1257 C1216 0.930 . S
H1258 C1217 0.930 . S
H1259 C1218 0.930 . S
H1260 C1222 0.929 . S
H1261 C1224 0.930 . S
H1262 C1230 0.929 . S
H1263 C1231 0.930 . S
H1264 C1276 0.930 . S
H1265 C1278 0.930 . S
H1266 C1279 0.930 . S
H1267 C1283 0.959 . S
H1268 C1283 0.959 . S
H1269 C1283 0.961 . S
H1270 C1284 0.960 . S
H1271 C1284 0.961 . S
H1272 C1284 0.959 . S
H1273 C1287 0.929 . S
H1274 C1288 0.931 . S
H1275 C1290 0.930 . S
C1276 H1264 0.930 . S
C1276 C1277 1.399 . S
C1276 C1281 1.399 . S
C1277 C1276 1.399 . S
C1277 C1278 1.376 . S
C1278 H1265 0.930 . S
C1278 C1277 1.376 . S
C1278 C1279 1.388 . S
C1279 H1266 0.930 . S
C1279 C1278 1.388 . S
C1279 C1280 1.390 . S
C1280 C1279 1.390 . S
C1280 C1281 1.394 . S
C1280 C1286 1.465 . S
C1281 C1276 1.399 . S
C1281 C1280 1.394 . S
C1281 C1282 1.516 . S
C1282 C1281 1.516 . S
C1282 C1283 1.502 . S
C1282 C1284 1.561 . S
C1282 C1285 1.526 . S
C1283 H1267 0.959 . S
C1283 H1268 0.959 . S
C1283 H1269 0.961 . S
C1283 C1282 1.502 . S
C1284 H1270 0.960 . S
C1284 H1271 0.961 . S
C1284 H1272 0.959 . S
C1284 C1282 1.561 . S
C1285 C1282 1.526 . S
C1285 C1286 1.396 . S
C1285 C1290 1.390 . S
C1286 C1280 1.465 . S
C1286 C1285 1.396 . S
C1286 C1287 1.399 . S
C1287 H1273 0.929 . S
C1287 C1286 1.399 . S
C1287 C1288 1.385 . S
C1288 H1274 0.931 . S
C1288 C1287 1.385 . S
C1288 C1289 1.389 . S
C1289 C1288 1.389 . S
C1289 C1290 1.387 . S
C1290 H1275 0.930 . S
C1290 C1285 1.390 . S
C1290 C1289 1.387 . S
H1291 C1303 0.930 . S
H1292 C1305 0.930 . S
H1293 C1306 0.930 . S
H1294 C1310 0.959 . S
H1295 C1310 0.959 . S
H1296 C1310 0.944 1_655 S
H1297 C1311 0.960 . S
H1298 C1311 0.961 . S
H1299 C1311 0.959 . S
H1300 C1314 0.929 . S
H1301 C1315 0.931 . S
H1302 C1317 0.930 . S
C1303 H1291 0.930 . S
C1303 C1304 1.399 . S
C1303 C1308 1.399 1_655 S
C1304 C1303 1.399 . S
C1304 C1305 1.376 . S
C1305 H1292 0.930 . S
C1305 C1304 1.376 . S
C1305 C1306 1.388 1_655 S
C1306 H1293 0.930 . S
C1306 C1305 1.388 1_455 S
C1306 C1307 1.390 . S
C1307 C1306 1.390 . S
C1307 C1308 1.394 . S
C1307 C1313 1.465 . S
C1308 C1303 1.399 1_455 S
C1308 C1307 1.394 . S
C1308 C1309 1.516 . S
C1309 C1308 1.516 . S
C1309 C1310 1.502 . S
C1309 C1311 1.561 . S
C1309 C1312 1.526 . S
C1310 H1294 0.959 . S
C1310 H1295 0.959 . S
C1310 H1296 0.944 1_455 S
C1310 C1309 1.502 . S
C1311 H1297 0.960 . S
C1311 H1298 0.961 . S
C1311 H1299 0.959 . S
C1311 C1309 1.561 . S
C1312 C1309 1.526 . S
C1312 C1313 1.396 . S
C1312 C1317 1.390 . S
C1313 C1307 1.465 . S
C1313 C1312 1.396 . S
C1313 C1314 1.399 . S
C1314 H1300 0.929 . S
C1314 C1313 1.399 . S
C1314 C1315 1.385 . S
C1315 H1301 0.931 . S
C1315 C1314 1.385 . S
C1315 C1316 1.389 . S
C1316 C1315 1.389 . S
C1316 C1317 1.387 . S
C1317 H1302 0.930 . S
C1317 C1312 1.390 . S
C1317 C1316 1.387 . S
H1318 C1330 0.930 . S
H1319 C1332 0.930 . S
H1320 C1333 0.930 . S
H1321 C1337 0.959 . S
H1322 C1337 0.959 . S
H1323 C1337 0.961 . S
H1324 C1338 0.960 . S
H1325 C1338 0.961 . S
H1326 C1338 0.959 . S
H1327 C1341 0.929 . S
H1328 C1342 0.931 . S
H1329 C1344 0.930 . S
C1330 H1318 0.930 . S
C1330 C1331 1.399 . S
C1330 C1335 1.399 . S
C1331 C1330 1.399 . S
C1331 C1332 1.376 . S
C1332 H1319 0.930 . S
C1332 C1331 1.376 . S
C1332 C1333 1.388 . S
C1333 H1320 0.930 . S
C1333 C1332 1.388 . S
C1333 C1334 1.390 . S
C1334 C1333 1.390 . S
C1334 C1335 1.394 . S
C1334 C1340 1.465 . S
C1335 C1330 1.399 . S
C1335 C1334 1.394 . S
C1335 C1336 1.516 . S
C1336 C1335 1.516 . S
C1336 C1337 1.502 . S
C1336 C1338 1.561 . S
C1336 C1339 1.526 . S
C1337 H1321 0.959 . S
C1337 H1322 0.959 . S
C1337 H1323 0.961 . S
C1337 C1336 1.502 . S
C1338 H1324 0.960 . S
C1338 H1325 0.961 . S
C1338 H1326 0.959 . S
C1338 C1336 1.561 . S
C1339 C1336 1.526 . S
C1339 C1340 1.396 . S
C1339 C1344 1.390 . S
C1340 C1334 1.465 . S
C1340 C1339 1.396 . S
C1340 C1341 1.399 . S
C1341 H1327 0.929 . S
C1341 C1340 1.399 . S
C1341 C1342 1.385 . S
C1342 H1328 0.931 . S
C1342 C1341 1.385 . S
C1342 C1343 1.389 . S
C1343 C1342 1.389 . S
C1343 C1344 1.387 . S
C1344 H1329 0.930 . S
C1344 C1339 1.390 . S
C1344 C1343 1.387 . S
H1345 C1357 0.930 . S
H1346 C1359 0.930 . S
H1347 C1360 0.930 . S
H1348 C1364 0.959 . S
H1349 C1364 0.959 . S
H1350 C1364 0.961 . S
H1351 C1365 0.960 . S
H1352 C1365 0.961 . S
H1353 C1365 0.959 . S
H1354 C1368 0.929 . S
H1355 C1369 0.931 . S
H1356 C1371 0.930 . S
C1357 H1345 0.930 . S
C1357 C1358 1.399 . S
C1357 C1362 1.399 1_455 S
C1358 C1357 1.399 . S
C1358 C1359 1.376 1_565 S
C1359 H1346 0.930 . S
C1359 C1358 1.376 1_545 S
C1359 C1360 1.388 1_455 S
C1360 H1347 0.930 . S
C1360 C1359 1.388 1_655 S
C1360 C1361 1.390 . S
C1361 C1360 1.390 . S
C1361 C1362 1.394 1_545 S
C1361 C1367 1.465 . S
C1362 C1357 1.399 1_655 S
C1362 C1361 1.394 1_565 S
C1362 C1363 1.516 . S
C1363 C1362 1.516 . S
C1363 C1364 1.502 . S
C1363 C1365 1.561 . S
C1363 C1366 1.526 . S
C1364 H1348 0.959 . S
C1364 H1349 0.959 . S
C1364 H1350 0.961 . S
C1364 C1363 1.502 . S
C1365 H1351 0.960 . S
C1365 H1352 0.961 . S
C1365 H1353 0.959 . S
C1365 C1363 1.561 . S
C1366 C1363 1.526 . S
C1366 C1367 1.396 1_565 S
C1366 C1371 1.390 . S
C1367 C1361 1.465 . S
C1367 C1366 1.396 1_545 S
C1367 C1368 1.399 . S
C1368 H1354 0.929 . S
C1368 C1367 1.399 . S
C1368 C1369 1.385 . S
C1369 H1355 0.931 . S
C1369 C1368 1.385 . S
C1369 C1370 1.389 . S
C1370 C1369 1.389 . S
C1370 C1371 1.387 1_545 S
C1371 H1356 0.930 . S
C1371 C1366 1.390 . S
C1371 C1370 1.387 1_565 S
H1372 C1384 0.930 . S
H1373 C1386 0.930 . S
H1374 C1387 0.930 . S
H1375 C1391 0.959 . S
H1376 C1391 0.959 . S
H1377 C1391 0.961 . S
H1378 C1392 0.960 . S
H1379 C1392 0.961 . S
H1380 C1392 0.959 . S
H1381 C1395 0.929 . S
H1382 C1396 0.931 . S
H1383 C1398 0.930 . S
C1384 H1372 0.930 . S
C1384 C1385 1.399 . S
C1384 C1389 1.399 . S
C1385 C1384 1.399 . S
C1385 C1386 1.376 . S
C1386 H1373 0.930 . S
C1386 C1385 1.376 . S
C1386 C1387 1.388 . S
C1387 H1374 0.930 . S
C1387 C1386 1.388 . S
C1387 C1388 1.390 . S
C1388 C1387 1.390 . S
C1388 C1389 1.394 . S
C1388 C1394 1.465 . S
C1389 C1384 1.399 . S
C1389 C1388 1.394 . S
C1389 C1390 1.516 . S
C1390 C1389 1.516 . S
C1390 C1391 1.502 . S
C1390 C1392 1.561 . S
C1390 C1393 1.526 . S
C1391 H1375 0.959 . S
C1391 H1376 0.959 . S
C1391 H1377 0.961 . S
C1391 C1390 1.502 . S
C1392 H1378 0.960 . S
C1392 H1379 0.961 . S
C1392 H1380 0.959 . S
C1392 C1390 1.561 . S
C1393 C1390 1.526 . S
C1393 C1394 1.396 . S
C1393 C1398 1.390 . S
C1394 C1388 1.465 . S
C1394 C1393 1.396 . S
C1394 C1395 1.399 . S
C1395 H1381 0.929 . S
C1395 C1394 1.399 . S
C1395 C1396 1.385 . S
C1396 H1382 0.931 . S
C1396 C1395 1.385 . S
C1396 C1397 1.389 . S
C1397 C1396 1.389 . S
C1397 C1398 1.387 . S
C1398 H1383 0.930 . S
C1398 C1393 1.390 . S
C1398 C1397 1.387 . S
H1399 C1411 0.930 . S
H1400 C1413 0.930 . S
H1401 C1414 0.930 . S
H1402 C1418 0.959 . S
H1403 C1418 0.959 . S
H1404 C1418 0.961 . S
H1405 C1419 0.960 . S
H1406 C1419 0.961 . S
H1407 C1419 0.959 . S
H1408 C1422 0.929 . S
H1409 C1423 0.931 . S
H1410 C1425 0.930 . S
C1411 H1399 0.930 . S
C1411 C1412 1.399 . S
C1411 C1416 1.399 . S
C1412 C1411 1.399 . S
C1412 C1413 1.376 . S
C1413 H1400 0.930 . S
C1413 C1412 1.376 . S
C1413 C1414 1.388 . S
C1414 H1401 0.930 . S
C1414 C1413 1.388 . S
C1414 C1415 1.390 . S
C1415 C1414 1.390 . S
C1415 C1416 1.394 . S
C1415 C1421 1.465 . S
C1416 C1411 1.399 . S
C1416 C1415 1.394 . S
C1416 C1417 1.516 . S
C1417 C1416 1.516 . S
C1417 C1418 1.502 . S
C1417 C1419 1.561 . S
C1417 C1420 1.526 . S
C1418 H1402 0.959 . S
C1418 H1403 0.959 . S
C1418 H1404 0.961 . S
C1418 C1417 1.502 . S
C1419 H1405 0.960 . S
C1419 H1406 0.961 . S
C1419 H1407 0.959 . S
C1419 C1417 1.561 . S
C1420 C1417 1.526 . S
C1420 C1421 1.396 . S
C1420 C1425 1.390 . S
C1421 C1415 1.465 . S
C1421 C1420 1.396 . S
C1421 C1422 1.399 . S
C1422 H1408 0.929 . S
C1422 C1421 1.399 . S
C1422 C1423 1.385 . S
C1423 H1409 0.931 . S
C1423 C1422 1.385 . S
C1423 C1424 1.389 . S
C1424 C1423 1.389 . S
C1424 C1425 1.387 . S
C1425 H1410 0.930 . S
C1425 C1420 1.390 . S
C1425 C1424 1.387 . S
H1426 C1438 0.930 . S
H1427 C1440 0.930 . S
H1428 C1441 0.930 . S
H1429 C1445 0.959 . S
H1430 C1445 0.959 . S
H1431 C1445 0.961 . S
H1432 C1446 0.960 . S
H1433 C1446 0.961 . S
H1434 C1446 0.959 . S
H1435 C1449 0.929 . S
H1436 C1450 0.931 . S
H1437 C1452 0.930 . S
C1438 H1426 0.930 . S
C1438 C1439 1.399 . S
C1438 C1443 1.399 . S
C1439 C1438 1.399 . S
C1439 C1440 1.376 . S
C1440 H1427 0.930 . S
C1440 C1439 1.376 . S
C1440 C1441 1.388 . S
C1441 H1428 0.930 . S
C1441 C1440 1.388 . S
C1441 C1442 1.390 . S
C1442 C1441 1.390 . S
C1442 C1443 1.394 . S
C1442 C1448 1.465 . S
C1443 C1438 1.399 . S
C1443 C1442 1.394 . S
C1443 C1444 1.516 . S
C1444 C1443 1.516 . S
C1444 C1445 1.502 . S
C1444 C1446 1.561 . S
C1444 C1447 1.526 . S
C1445 H1429 0.959 . S
C1445 H1430 0.959 . S
C1445 H1431 0.961 . S
C1445 C1444 1.502 . S
C1446 H1432 0.960 . S
C1446 H1433 0.961 . S
C1446 H1434 0.959 . S
C1446 C1444 1.561 . S
C1447 C1444 1.526 . S
C1447 C1448 1.396 . S
C1447 C1452 1.390 . S
C1448 C1442 1.465 . S
C1448 C1447 1.396 . S
C1448 C1449 1.399 . S
C1449 H1435 0.929 . S
C1449 C1448 1.399 . S
C1449 C1450 1.385 . S
C1450 H1436 0.931 . S
C1450 C1449 1.385 . S
C1450 C1451 1.389 . S
C1451 C1450 1.389 . S
C1451 C1452 1.387 . S
C1452 H1437 0.930 . S
C1452 C1447 1.390 . S
C1452 C1451 1.387 . S
H1453 C1465 0.930 . S
H1454 C1467 0.930 1_545 S
H1455 C1468 0.930 . S
H1456 C1472 0.959 . S
H1457 C1472 0.959 . S
H1458 C1472 0.961 . S
H1459 C1473 0.960 . S
H1460 C1473 0.961 . S
H1461 C1473 0.959 . S
H1462 C1476 0.929 . S
H1463 C1477 0.931 . S
H1464 C1479 0.930 . S
C1465 H1453 0.930 . S
C1465 C1466 1.399 . S
C1465 C1470 1.399 . S
C1466 C1465 1.399 . S
C1466 C1467 1.376 . S
C1467 H1454 0.930 1_565 S
C1467 C1466 1.376 . S
C1467 C1468 1.388 1_565 S
C1468 H1455 0.930 . S
C1468 C1467 1.388 1_545 S
C1468 C1469 1.390 1_545 S
C1469 C1468 1.390 1_565 S
C1469 C1470 1.394 . S
C1469 C1475 1.465 . S
C1470 C1465 1.399 . S
C1470 C1469 1.394 . S
C1470 C1471 1.516 . S
C1471 C1470 1.516 . S
C1471 C1472 1.502 . S
C1471 C1473 1.561 . S
C1471 C1474 1.526 . S
C1472 H1456 0.959 . S
C1472 H1457 0.959 . S
C1472 H1458 0.961 . S
C1472 C1471 1.502 . S
C1473 H1459 0.960 . S
C1473 H1460 0.961 . S
C1473 H1461 0.959 . S
C1473 C1471 1.561 . S
C1474 C1471 1.526 . S
C1474 C1475 1.396 . S
C1474 C1479 1.390 . S
C1475 C1469 1.465 . S
C1475 C1474 1.396 . S
C1475 C1476 1.399 1_565 S
C1476 H1462 0.929 . S
C1476 C1475 1.399 1_545 S
C1476 C1477 1.385 . S
C1477 H1463 0.931 . S
C1477 C1476 1.385 . S
C1477 C1478 1.389 1_545 S
C1478 C1477 1.389 1_565 S
C1478 C1479 1.387 . S
C1479 H1464 0.930 . S
C1479 C1474 1.390 . S
C1479 C1478 1.387 . S
H1480 C1492 0.930 . S
H1481 C1494 0.930 . S
H1482 C1495 0.930 . S
H1483 C1499 0.959 . S
H1484 C1499 0.959 . S
H1485 C1499 0.961 . S
H1486 C1500 0.960 . S
H1487 C1500 0.961 . S
H1488 C1500 0.959 . S
H1489 C1503 0.929 . S
H1490 C1504 0.931 . S
H1491 C1506 0.930 . S
C1492 H1480 0.930 . S
C1492 C1493 1.399 . S
C1492 C1497 1.399 . S
C1493 C1492 1.399 . S
C1493 C1494 1.376 . S
C1494 H1481 0.930 . S
C1494 C1493 1.376 . S
C1494 C1495 1.388 . S
C1495 H1482 0.930 . S
C1495 C1494 1.388 . S
C1495 C1496 1.390 . S
C1496 C1495 1.390 . S
C1496 C1497 1.394 . S
C1496 C1502 1.465 . S
C1497 C1492 1.399 . S
C1497 C1496 1.394 . S
C1497 C1498 1.516 . S
C1498 C1497 1.516 . S
C1498 C1499 1.502 . S
C1498 C1500 1.561 . S
C1498 C1501 1.526 . S
C1499 H1483 0.959 . S
C1499 H1484 0.959 . S
C1499 H1485 0.961 . S
C1499 C1498 1.502 . S
C1500 H1486 0.960 . S
C1500 H1487 0.961 . S
C1500 H1488 0.959 . S
C1500 C1498 1.561 . S
C1501 C1498 1.526 . S
C1501 C1502 1.396 . S
C1501 C1506 1.390 . S
C1502 C1496 1.465 . S
C1502 C1501 1.396 . S
C1502 C1503 1.399 . S
C1503 H1489 0.929 . S
C1503 C1502 1.399 . S
C1503 C1504 1.385 . S
C1504 H1490 0.931 . S
C1504 C1503 1.385 . S
C1504 C1505 1.389 . S
C1505 C1504 1.389 . S
C1505 C1506 1.387 . S
C1506 H1491 0.930 . S
C1506 C1501 1.390 . S
C1506 C1505 1.387 . S
H1507 C1519 0.930 . S
H1508 C1521 0.930 . S
H1509 C1522 0.930 . S
H1510 C1526 0.959 . S
H1511 C1526 0.959 . S
H1512 C1526 0.961 . S
H1513 C1527 0.960 . S
H1514 C1527 0.961 . S
H1515 C1527 0.959 . S
H1516 C1530 0.929 . S
H1517 C1531 0.931 . S
H1518 C1533 0.930 . S
C1519 H1507 0.930 . S
C1519 C1520 1.399 . S
C1519 C1524 1.399 . S
C1520 C1519 1.399 . S
C1520 C1521 1.376 . S
C1521 H1508 0.930 . S
C1521 C1520 1.376 . S
C1521 C1522 1.388 . S
C1522 H1509 0.930 . S
C1522 C1521 1.388 . S
C1522 C1523 1.390 . S
C1523 C1522 1.390 . S
C1523 C1524 1.394 . S
C1523 C1529 1.465 . S
C1524 C1519 1.399 . S
C1524 C1523 1.394 . S
C1524 C1525 1.516 . S
C1525 C1524 1.516 . S
C1525 C1526 1.502 . S
C1525 C1527 1.561 . S
C1525 C1528 1.526 . S
C1526 H1510 0.959 . S
C1526 H1511 0.959 . S
C1526 H1512 0.961 . S
C1526 C1525 1.502 . S
C1527 H1513 0.960 . S
C1527 H1514 0.961 . S
C1527 H1515 0.959 . S
C1527 C1525 1.561 . S
C1528 C1525 1.526 . S
C1528 C1529 1.396 . S
C1528 C1533 1.390 . S
C1529 C1523 1.465 . S
C1529 C1528 1.396 . S
C1529 C1530 1.399 . S
C1530 H1516 0.929 . S
C1530 C1529 1.399 . S
C1530 C1531 1.385 . S
C1531 H1517 0.931 . S
C1531 C1530 1.385 . S
C1531 C1532 1.389 . S
C1532 C1531 1.389 . S
C1532 C1533 1.387 . S
C1533 H1518 0.930 . S
C1533 C1528 1.390 . S
C1533 C1532 1.387 . S
H1534 C1546 0.930 . S
H1535 C1548 0.930 . S
H1536 C1549 0.930 . S
H1537 C1553 0.959 . S
H1538 C1553 0.959 . S
H1539 C1553 0.961 . S
H1540 C1554 0.960 . S
H1541 C1554 0.961 . S
H1542 C1554 0.959 . S
H1543 C1557 0.929 . S
H1544 C1558 0.931 . S
H1545 C1560 0.930 . S
C1546 H1534 0.930 . S
C1546 C1547 1.399 . S
C1546 C1551 1.399 . S
C1547 C1546 1.399 . S
C1547 C1548 1.376 . S
C1548 H1535 0.930 . S
C1548 C1547 1.376 . S
C1548 C1549 1.388 . S
C1549 H1536 0.930 . S
C1549 C1548 1.388 . S
C1549 C1550 1.390 . S
C1550 C1549 1.390 . S
C1550 C1551 1.394 . S
C1550 C1556 1.465 . S
C1551 C1546 1.399 . S
C1551 C1550 1.394 . S
C1551 C1552 1.516 . S
C1552 C1551 1.516 . S
C1552 C1553 1.502 . S
C1552 C1554 1.561 . S
C1552 C1555 1.526 . S
C1553 H1537 0.959 . S
C1553 H1538 0.959 . S
C1553 H1539 0.961 . S
C1553 C1552 1.502 . S
C1554 H1540 0.960 . S
C1554 H1541 0.961 . S
C1554 H1542 0.959 . S
C1554 C1552 1.561 . S
C1555 C1552 1.526 . S
C1555 C1556 1.396 . S
C1555 C1560 1.390 . S
C1556 C1550 1.465 . S
C1556 C1555 1.396 . S
C1556 C1557 1.399 . S
C1557 H1543 0.929 . S
C1557 C1556 1.399 . S
C1557 C1558 1.385 . S
C1558 H1544 0.931 . S
C1558 C1557 1.385 . S
C1558 C1559 1.389 . S
C1559 C1558 1.389 . S
C1559 C1560 1.387 . S
C1560 H1545 0.930 . S
C1560 C1555 1.390 . S
C1560 C1559 1.387 . S
H1561 C1573 0.930 . S
H1562 C1575 0.930 . S
H1563 C1576 0.930 . S
H1564 C1580 0.959 . S
H1565 C1580 0.959 . S
H1566 C1580 0.961 . S
H1567 C1581 0.960 . S
H1568 C1581 0.961 . S
H1569 C1581 0.959 . S
H1570 C1584 0.929 . S
H1571 C1585 0.931 . S
H1572 C1587 0.930 . S
C1573 H1561 0.930 . S
C1573 C1574 1.399 . S
C1573 C1578 1.399 . S
C1574 C1573 1.399 . S
C1574 C1575 1.376 . S
C1575 H1562 0.930 . S
C1575 C1574 1.376 . S
C1575 C1576 1.388 . S
C1576 H1563 0.930 . S
C1576 C1575 1.388 . S
C1576 C1577 1.390 . S
C1577 C1576 1.390 . S
C1577 C1578 1.394 . S
C1577 C1583 1.465 . S
C1578 C1573 1.399 . S
C1578 C1577 1.394 . S
C1578 C1579 1.516 . S
C1579 C1578 1.516 . S
C1579 C1580 1.502 . S
C1579 C1581 1.561 . S
C1579 C1582 1.526 . S
C1580 H1564 0.959 . S
C1580 H1565 0.959 . S
C1580 H1566 0.961 . S
C1580 C1579 1.502 . S
C1581 H1567 0.960 . S
C1581 H1568 0.961 . S
C1581 H1569 0.959 . S
C1581 C1579 1.561 . S
C1582 C1579 1.526 . S
C1582 C1583 1.396 . S
C1582 C1587 1.390 . S
C1583 C1577 1.465 . S
C1583 C1582 1.396 . S
C1583 C1584 1.399 . S
C1584 H1570 0.929 . S
C1584 C1583 1.399 . S
C1584 C1585 1.385 . S
C1585 H1571 0.931 . S
C1585 C1584 1.385 . S
C1585 C1586 1.389 . S
C1586 C1585 1.389 . S
C1586 C1587 1.387 . S
C1587 H1572 0.930 . S
C1587 C1582 1.390 . S
C1587 C1586 1.387 . S
H1588 C1600 0.930 . S
H1589 C1602 0.930 . S
H1590 C1603 0.930 . S
H1591 C1607 0.959 . S
H1592 C1607 0.959 . S
H1593 C1607 0.961 . S
H1594 C1608 0.960 . S
H1595 C1608 0.961 . S
H1596 C1608 0.959 . S
H1597 C1611 0.929 . S
H1598 C1612 0.931 . S
H1599 C1614 0.930 . S
C1600 H1588 0.930 . S
C1600 C1601 1.399 . S
C1600 C1605 1.399 . S
C1601 C1600 1.399 . S
C1601 C1602 1.376 . S
C1602 H1589 0.930 . S
C1602 C1601 1.376 . S
C1602 C1603 1.388 . S
C1603 H1590 0.930 . S
C1603 C1602 1.388 . S
C1603 C1604 1.390 . S
C1604 C1603 1.390 . S
C1604 C1605 1.394 . S
C1604 C1610 1.465 . S
C1605 C1600 1.399 . S
C1605 C1604 1.394 . S
C1605 C1606 1.516 . S
C1606 C1605 1.516 . S
C1606 C1607 1.502 . S
C1606 C1608 1.561 . S
C1606 C1609 1.526 . S
C1607 H1591 0.959 . S
C1607 H1592 0.959 . S
C1607 H1593 0.961 . S
C1607 C1606 1.502 . S
C1608 H1594 0.960 . S
C1608 H1595 0.961 . S
C1608 H1596 0.959 . S
C1608 C1606 1.561 . S
C1609 C1606 1.526 . S
C1609 C1610 1.396 . S
C1609 C1614 1.390 . S
C1610 C1604 1.465 . S
C1610 C1609 1.396 . S
C1610 C1611 1.399 . S
C1611 H1597 0.929 . S
C1611 C1610 1.399 . S
C1611 C1612 1.385 . S
C1612 H1598 0.931 . S
C1612 C1611 1.385 . S
C1612 C1613 1.389 . S
C1613 C1612 1.389 . S
C1613 C1614 1.387 . S
C1614 H1599 0.930 . S
C1614 C1609 1.390 . S
C1614 C1613 1.387 . S
H1615 C1627 0.930 . S
H1616 C1629 0.930 . S
H1617 C1630 0.930 . S
H1618 C1634 0.959 . S
H1619 C1634 0.959 . S
H1620 C1634 0.961 . S
H1621 C1635 0.960 . S
H1622 C1635 0.961 . S
H1623 C1635 0.959 . S
H1624 C1638 0.929 . S
H1625 C1639 0.931 . S
H1626 C1641 0.930 . S
C1627 H1615 0.930 . S
C1627 C1628 1.399 . S
C1627 C1632 1.399 . S
C1628 C1627 1.399 . S
C1628 C1629 1.376 . S
C1629 H1616 0.930 . S
C1629 C1628 1.376 . S
C1629 C1630 1.388 . S
C1630 H1617 0.930 . S
C1630 C1629 1.388 . S
C1630 C1631 1.390 . S
C1631 C1630 1.390 . S
C1631 C1632 1.394 . S
C1631 C1637 1.465 . S
C1632 C1627 1.399 . S
C1632 C1631 1.394 . S
C1632 C1633 1.516 . S
C1633 C1632 1.516 . S
C1633 C1634 1.502 . S
C1633 C1635 1.561 . S
C1633 C1636 1.526 . S
C1634 H1618 0.959 . S
C1634 H1619 0.959 . S
C1634 H1620 0.961 . S
C1634 C1633 1.502 . S
C1635 H1621 0.960 . S
C1635 H1622 0.961 . S
C1635 H1623 0.959 . S
C1635 C1633 1.561 . S
C1636 C1633 1.526 . S
C1636 C1637 1.396 . S
C1636 C1641 1.390 . S
C1637 C1631 1.465 . S
C1637 C1636 1.396 . S
C1637 C1638 1.399 . S
C1638 H1624 0.929 . S
C1638 C1637 1.399 . S
C1638 C1639 1.385 . S
C1639 H1625 0.931 . S
C1639 C1638 1.385 . S
C1639 C1640 1.389 . S
C1640 C1639 1.389 . S
C1640 C1641 1.387 . S
C1641 H1626 0.930 . S
C1641 C1636 1.390 . S
C1641 C1640 1.387 . S
H1642 C1654 0.930 . S
H1643 C1656 0.930 . S
H1644 C1657 0.930 . S
H1645 C1661 0.959 . S
H1646 C1661 0.959 . S
H1647 C1661 0.961 . S
H1648 C1662 0.960 . S
H1649 C1662 0.961 . S
H1650 C1662 0.959 . S
H1651 C1665 0.929 . S
H1652 C1666 0.931 . S
H1653 C1668 0.930 . S
C1654 H1642 0.930 . S
C1654 C1655 1.399 . S
C1654 C1659 1.399 . S
C1655 C1654 1.399 . S
C1655 C1656 1.376 . S
C1656 H1643 0.930 . S
C1656 C1655 1.376 . S
C1656 C1657 1.388 . S
C1657 H1644 0.930 . S
C1657 C1656 1.388 . S
C1657 C1658 1.390 . S
C1658 C1657 1.390 . S
C1658 C1659 1.394 . S
C1658 C1664 1.465 . S
C1659 C1654 1.399 . S
C1659 C1658 1.394 . S
C1659 C1660 1.516 . S
C1660 C1659 1.516 . S
C1660 C1661 1.502 . S
C1660 C1662 1.561 . S
C1660 C1663 1.526 . S
C1661 H1645 0.959 . S
C1661 H1646 0.959 . S
C1661 H1647 0.961 . S
C1661 C1660 1.502 . S
C1662 H1648 0.960 . S
C1662 H1649 0.961 . S
C1662 H1650 0.959 . S
C1662 C1660 1.561 . S
C1663 C1660 1.526 . S
C1663 C1664 1.396 . S
C1663 C1668 1.390 . S
C1664 C1658 1.465 . S
C1664 C1663 1.396 . S
C1664 C1665 1.399 . S
C1665 H1651 0.929 . S
C1665 C1664 1.399 . S
C1665 C1666 1.385 . S
C1666 H1652 0.931 . S
C1666 C1665 1.385 . S
C1666 C1667 1.389 . S
C1667 C1666 1.389 . S
C1667 C1668 1.387 . S
C1668 H1653 0.930 . S
C1668 C1663 1.390 . S
C1668 C1667 1.387 . S
H1669 C1681 0.930 . S
H1670 C1683 0.930 . S
H1671 C1684 0.930 . S
H1672 C1688 0.959 . S
H1673 C1688 0.959 . S
H1674 C1688 0.961 . S
H1675 C1689 0.960 . S
H1676 C1689 0.961 . S
H1677 C1689 0.959 . S
H1678 C1692 0.929 . S
H1679 C1693 0.931 . S
H1680 C1695 0.910 1_455 S
C1681 H1669 0.930 . S
C1681 C1682 1.399 . S
C1681 C1686 1.399 . S
C1682 C1681 1.399 . S
C1682 C1683 1.376 . S
C1683 H1670 0.930 . S
C1683 C1682 1.376 . S
C1683 C1684 1.388 . S
C1684 H1671 0.930 . S
C1684 C1683 1.388 . S
C1684 C1685 1.390 . S
C1685 C1684 1.390 . S
C1685 C1686 1.394 . S
C1685 C1691 1.465 . S
C1686 C1681 1.399 . S
C1686 C1685 1.394 . S
C1686 C1687 1.516 . S
C1687 C1686 1.516 . S
C1687 C1688 1.502 1_655 S
C1687 C1689 1.561 . S
C1687 C1690 1.526 . S
C1688 H1672 0.959 . S
C1688 H1673 0.959 . S
C1688 H1674 0.961 . S
C1688 C1687 1.502 1_455 S
C1689 H1675 0.960 . S
C1689 H1676 0.961 . S
C1689 H1677 0.959 . S
C1689 C1687 1.561 . S
C1690 C1687 1.526 . S
C1690 C1691 1.396 . S
C1690 C1695 1.406 . S
C1691 C1685 1.465 . S
C1691 C1690 1.396 . S
C1691 C1692 1.399 . S
C1692 H1678 0.929 . S
C1692 C1691 1.399 . S
C1692 C1693 1.385 . S
C1693 H1679 0.931 . S
C1693 C1692 1.385 . S
C1693 C1694 1.389 . S
C1694 C1693 1.389 . S
C1694 C1695 1.392 . S
C1695 H1680 0.910 1_655 S
C1695 C1690 1.406 . S
C1695 C1694 1.392 . S
H1696 C1708 0.930 . S
H1697 C1710 0.930 . S
H1698 C1711 0.930 . S
H1699 C1715 0.959 . S
H1700 C1715 0.959 . S
H1701 C1715 0.961 . S
H1702 C1716 0.960 . S
H1703 C1716 0.961 . S
H1704 C1716 0.959 . S
H1705 C1719 0.929 . S
H1706 C1720 0.931 . S
H1707 C1722 0.930 . S
C1708 H1696 0.930 . S
C1708 C1709 1.399 . S
C1708 C1713 1.399 . S
C1709 C1708 1.399 . S
C1709 C1710 1.376 . S
C1710 H1697 0.930 . S
C1710 C1709 1.376 . S
C1710 C1711 1.388 . S
C1711 H1698 0.930 . S
C1711 C1710 1.388 . S
C1711 C1712 1.390 . S
C1712 C1711 1.390 . S
C1712 C1713 1.394 . S
C1712 C1718 1.465 . S
C1713 C1708 1.399 . S
C1713 C1712 1.394 . S
C1713 C1714 1.516 . S
C1714 C1713 1.516 . S
C1714 C1715 1.502 . S
C1714 C1716 1.561 . S
C1714 C1717 1.526 . S
C1715 H1699 0.959 . S
C1715 H1700 0.959 . S
C1715 H1701 0.961 . S
C1715 C1714 1.502 . S
C1716 H1702 0.960 . S
C1716 H1703 0.961 . S
C1716 H1704 0.959 . S
C1716 C1714 1.561 . S
C1717 C1714 1.526 . S
C1717 C1718 1.396 . S
C1717 C1722 1.390 . S
C1718 C1712 1.465 . S
C1718 C1717 1.396 . S
C1718 C1719 1.399 . S
C1719 H1705 0.929 . S
C1719 C1718 1.399 . S
C1719 C1720 1.385 . S
C1720 H1706 0.931 . S
C1720 C1719 1.385 . S
C1720 C1721 1.389 . S
C1721 C1720 1.389 . S
C1721 C1722 1.387 . S
C1722 H1707 0.930 . S
C1722 C1717 1.390 . S
C1722 C1721 1.387 . S
H1723 C1735 0.930 . S
H1724 C1737 0.930 . S
H1725 C1738 0.930 . S
H1726 C1742 0.959 . S
H1727 C1742 0.959 . S
H1728 C1742 0.961 . S
H1729 C1743 0.960 . S
H1730 C1743 0.961 . S
H1731 C1743 0.959 . S
H1732 C1746 0.929 . S
H1733 C1747 0.931 . S
H1734 C1749 0.930 . S
C1735 H1723 0.930 . S
C1735 C1736 1.399 . S
C1735 C1740 1.399 . S
C1736 C1735 1.399 . S
C1736 C1737 1.376 . S
C1737 H1724 0.930 . S
C1737 C1736 1.376 . S
C1737 C1738 1.388 . S
C1738 H1725 0.930 . S
C1738 C1737 1.388 . S
C1738 C1739 1.390 . S
C1739 C1738 1.390 . S
C1739 C1740 1.394 . S
C1739 C1745 1.465 . S
C1740 C1735 1.399 . S
C1740 C1739 1.394 . S
C1740 C1741 1.516 . S
C1741 C1740 1.516 . S
C1741 C1742 1.502 . S
C1741 C1743 1.561 . S
C1741 C1744 1.526 . S
C1742 H1726 0.959 . S
C1742 H1727 0.959 . S
C1742 H1728 0.961 . S
C1742 C1741 1.502 . S
C1743 H1729 0.960 . S
C1743 H1730 0.961 . S
C1743 H1731 0.959 . S
C1743 C1741 1.561 . S
C1744 C1741 1.526 . S
C1744 C1745 1.396 . S
C1744 C1749 1.390 . S
C1745 C1739 1.465 . S
C1745 C1744 1.396 . S
C1745 C1746 1.399 . S
C1746 H1732 0.929 . S
C1746 C1745 1.399 . S
C1746 C1747 1.385 . S
C1747 H1733 0.931 . S
C1747 C1746 1.385 . S
C1747 C1748 1.389 . S
C1748 C1747 1.389 . S
C1748 C1749 1.387 . S
C1749 H1734 0.930 . S
C1749 C1744 1.390 . S
C1749 C1748 1.387 . S
H1750 C1762 0.930 . S
H1751 C1764 0.930 . S
H1752 C1765 0.930 . S
H1753 C1769 0.977 . S
H1754 C1769 0.959 . S
H1755 C1769 0.961 . S
H1756 C1770 0.960 . S
H1757 C1770 0.961 . S
H1758 C1770 0.959 . S
H1759 C1773 0.929 . S
H1760 C1774 0.931 . S
H1761 C1776 0.930 . S
C1762 H1750 0.930 . S
C1762 C1763 1.399 . S
C1762 C1767 1.399 1_545 S
C1763 C1762 1.399 . S
C1763 C1764 1.376 1_556 S
C1764 H1751 0.930 . S
C1764 C1763 1.376 1_554 S
C1764 C1765 1.388 . S
C1765 H1752 0.930 . S
C1765 C1764 1.388 . S
C1765 C1766 1.369 1_544 S
C1766 C1765 1.369 1_566 S
C1766 C1767 1.429 . S
C1766 C1772 1.459 1_556 S
C1767 C1762 1.399 1_565 S
C1767 C1766 1.429 . S
C1767 C1768 1.516 . S
C1768 C1767 1.516 . S
C1768 C1769 1.502 . S
C1768 C1770 1.561 . S
C1768 C1771 1.526 . S
C1769 H1753 0.977 . S
C1769 H1754 0.959 . S
C1769 H1755 0.961 . S
C1769 C1768 1.502 . S
C1770 H1756 0.960 . S
C1770 H1757 0.961 . S
C1770 H1758 0.959 . S
C1770 C1768 1.561 . S
C1771 C1768 1.526 . S
C1771 C1772 1.396 1_556 S
C1771 C1776 1.390 . S
C1772 C1766 1.459 1_554 S
C1772 C1771 1.396 1_554 S
C1772 C1773 1.399 . S
C1773 H1759 0.929 . S
C1773 C1772 1.399 . S
C1773 C1774 1.385 . S
C1774 H1760 0.931 . S
C1774 C1773 1.385 . S
C1774 C1775 1.421 . S
C1775 C1774 1.421 . S
C1775 C1776 1.355 1_554 S
C1776 H1761 0.930 . S
C1776 C1771 1.390 . S
C1776 C1775 1.355 1_556 S
H1777 C1789 0.930 . S
H1778 C1791 0.930 . S
H1779 C1792 0.930 . S
H1780 C1796 0.959 . S
H1781 C1796 0.959 . S
H1782 C1796 0.961 . S
H1783 C1797 0.960 . S
H1784 C1797 0.961 . S
H1785 C1797 0.959 . S
H1786 C1800 0.929 . S
H1787 C1801 0.931 . S
H1788 C1803 0.930 . S
C1789 H1777 0.930 . S
C1789 C1790 1.399 . S
C1789 C1794 1.399 . S
C1790 C1789 1.399 . S
C1790 C1791 1.376 . S
C1791 H1778 0.930 . S
C1791 C1790 1.376 . S
C1791 C1792 1.388 . S
C1792 H1779 0.930 . S
C1792 C1791 1.388 . S
C1792 C1793 1.390 . S
C1793 C1792 1.390 . S
C1793 C1794 1.394 . S
C1793 C1799 1.465 . S
C1794 C1789 1.399 . S
C1794 C1793 1.394 . S
C1794 C1795 1.516 . S
C1795 C1794 1.516 . S
C1795 C1796 1.502 . S
C1795 C1797 1.561 . S
C1795 C1798 1.526 . S
C1796 H1780 0.959 . S
C1796 H1781 0.959 . S
C1796 H1782 0.961 . S
C1796 C1795 1.502 . S
C1797 H1783 0.960 . S
C1797 H1784 0.961 . S
C1797 H1785 0.959 . S
C1797 C1795 1.561 . S
C1798 C1795 1.526 . S
C1798 C1799 1.396 . S
C1798 C1803 1.390 . S
C1799 C1793 1.465 . S
C1799 C1798 1.396 . S
C1799 C1800 1.399 . S
C1800 H1786 0.929 . S
C1800 C1799 1.399 . S
C1800 C1801 1.385 . S
C1801 H1787 0.931 . S
C1801 C1800 1.385 . S
C1801 C1802 1.389 . S
C1802 C1801 1.389 . S
C1802 C1803 1.387 . S
C1803 H1788 0.930 . S
C1803 C1798 1.390 . S
C1803 C1802 1.387 . S
H1804 C1816 0.930 . S
H1805 C1818 0.930 . S
H1806 C1819 0.930 . S
H1807 C1823 0.959 . S
H1808 C1823 0.959 . S
H1809 C1823 0.961 . S
H1810 C1824 0.960 . S
H1811 C1824 0.961 . S
H1812 C1824 0.959 . S
H1813 C1827 0.929 . S
H1814 C1828 0.931 . S
H1815 C1830 0.930 . S
C1816 H1804 0.930 . S
C1816 C1817 1.399 . S
C1816 C1821 1.399 . S
C1817 C1816 1.399 . S
C1817 C1818 1.376 . S
C1818 H1805 0.930 . S
C1818 C1817 1.376 . S
C1818 C1819 1.388 . S
C1819 H1806 0.930 . S
C1819 C1818 1.388 . S
C1819 C1820 1.390 . S
C1820 C1819 1.390 . S
C1820 C1821 1.394 . S
C1820 C1826 1.465 . S
C1821 C1816 1.399 . S
C1821 C1820 1.394 . S
C1821 C1822 1.516 . S
C1822 C1821 1.516 . S
C1822 C1823 1.502 . S
C1822 C1824 1.561 . S
C1822 C1825 1.526 . S
C1823 H1807 0.959 . S
C1823 H1808 0.959 . S
C1823 H1809 0.961 . S
C1823 C1822 1.502 . S
C1824 H1810 0.960 . S
C1824 H1811 0.961 . S
C1824 H1812 0.959 . S
C1824 C1822 1.561 . S
C1825 C1822 1.526 . S
C1825 C1826 1.396 . S
C1825 C1830 1.390 . S
C1826 C1820 1.465 . S
C1826 C1825 1.396 . S
C1826 C1827 1.399 . S
C1827 H1813 0.929 . S
C1827 C1826 1.399 . S
C1827 C1828 1.385 . S
C1828 H1814 0.931 . S
C1828 C1827 1.385 . S
C1828 C1829 1.389 . S
C1829 C1828 1.389 . S
C1829 C1830 1.387 . S
C1830 H1815 0.930 . S
C1830 C1825 1.390 . S
C1830 C1829 1.387 . S
H1831 C1843 0.930 . S
H1832 C1845 0.930 . S
H1833 C1846 0.930 . S
H1834 C1850 0.959 . S
H1835 C1850 0.959 . S
H1836 C1850 0.961 . S
H1837 C1851 0.960 . S
H1838 C1851 0.961 . S
H1839 C1851 0.959 . S
H1840 C1854 0.929 . S
H1841 C1855 0.931 . S
H1842 C1857 0.930 . S
C1843 H1831 0.930 . S
C1843 C1844 1.399 . S
C1843 C1848 1.399 . S
C1844 C1843 1.399 . S
C1844 C1845 1.376 . S
C1845 H1832 0.930 . S
C1845 C1844 1.376 . S
C1845 C1846 1.388 . S
C1846 H1833 0.930 . S
C1846 C1845 1.388 . S
C1846 C1847 1.390 . S
C1847 C1846 1.390 . S
C1847 C1848 1.394 . S
C1847 C1853 1.465 . S
C1848 C1843 1.399 . S
C1848 C1847 1.394 . S
C1848 C1849 1.516 . S
C1849 C1848 1.516 . S
C1849 C1850 1.502 . S
C1849 C1851 1.561 . S
C1849 C1852 1.526 . S
C1850 H1834 0.959 . S
C1850 H1835 0.959 . S
C1850 H1836 0.961 . S
C1850 C1849 1.502 . S
C1851 H1837 0.960 . S
C1851 H1838 0.961 . S
C1851 H1839 0.959 . S
C1851 C1849 1.561 . S
C1852 C1849 1.526 . S
C1852 C1853 1.396 . S
C1852 C1857 1.390 . S
C1853 C1847 1.465 . S
C1853 C1852 1.396 . S
C1853 C1854 1.399 . S
C1854 H1840 0.929 . S
C1854 C1853 1.399 . S
C1854 C1855 1.385 . S
C1855 H1841 0.931 . S
C1855 C1854 1.385 . S
C1855 C1856 1.389 . S
C1856 C1855 1.389 . S
C1856 C1857 1.387 . S
C1857 H1842 0.930 . S
C1857 C1852 1.390 . S
C1857 C1856 1.387 . S
H1858 C1870 0.930 1_565 S
H1859 C1872 0.930 . S
H1860 C1873 0.930 . S
H1861 C1877 0.959 . S
H1862 C1877 0.959 . S
H1863 C1877 0.961 . S
H1864 C1878 0.960 . S
H1865 C1878 0.961 . S
H1866 C1878 0.959 . S
H1867 C1881 0.929 . S
H1868 C1882 0.931 . S
H1869 C1884 0.930 . S
C1870 H1858 0.930 1_545 S
C1870 C1871 1.399 . S
C1870 C1875 1.399 . S
C1871 C1870 1.399 . S
C1871 C1872 1.376 . S
C1872 H1859 0.930 . S
C1872 C1871 1.376 . S
C1872 C1873 1.388 . S
C1873 H1860 0.930 . S
C1873 C1872 1.388 . S
C1873 C1874 1.390 . S
C1874 C1873 1.390 . S
C1874 C1875 1.394 . S
C1874 C1880 1.465 . S
C1875 C1870 1.399 . S
C1875 C1874 1.394 . S
C1875 C1876 1.516 . S
C1876 C1875 1.516 . S
C1876 C1877 1.502 . S
C1876 C1878 1.561 1_545 S
C1876 C1879 1.526 . S
C1877 H1861 0.959 . S
C1877 H1862 0.959 . S
C1877 H1863 0.961 . S
C1877 C1876 1.502 . S
C1878 H1864 0.960 . S
C1878 H1865 0.961 . S
C1878 H1866 0.959 . S
C1878 C1876 1.561 1_565 S
C1879 C1876 1.526 . S
C1879 C1880 1.396 . S
C1879 C1884 1.390 . S
C1880 C1874 1.465 . S
C1880 C1879 1.396 . S
C1880 C1881 1.399 . S
C1881 H1867 0.929 . S
C1881 C1880 1.399 . S
C1881 C1882 1.385 . S
C1882 H1868 0.931 . S
C1882 C1881 1.385 . S
C1882 C1883 1.389 . S
C1883 C1882 1.389 . S
C1883 C1884 1.387 . S
C1884 H1869 0.930 . S
C1884 C1879 1.390 . S
C1884 C1883 1.387 . S
H1885 C1897 0.930 . S
H1886 C1899 0.930 . S
H1887 C1900 0.930 . S
H1888 C1904 0.959 . S
H1889 C1904 0.959 . S
H1890 C1904 0.961 . S
H1891 C1905 0.960 . S
H1892 C1905 0.961 . S
H1893 C1905 0.959 . S
H1894 C1908 0.929 . S
H1895 C1909 0.931 . S
H1896 C1911 0.930 . S
C1897 H1885 0.930 . S
C1897 C1898 1.399 . S
C1897 C1902 1.399 . S
C1898 C1897 1.399 . S
C1898 C1899 1.376 . S
C1899 H1886 0.930 . S
C1899 C1898 1.376 . S
C1899 C1900 1.388 . S
C1900 H1887 0.930 . S
C1900 C1899 1.388 . S
C1900 C1901 1.390 . S
C1901 C1900 1.390 . S
C1901 C1902 1.394 . S
C1901 C1907 1.465 . S
C1902 C1897 1.399 . S
C1902 C1901 1.394 . S
C1902 C1903 1.516 . S
C1903 C1902 1.516 . S
C1903 C1904 1.502 . S
C1903 C1905 1.561 . S
C1903 C1906 1.526 . S
C1904 H1888 0.959 . S
C1904 H1889 0.959 . S
C1904 H1890 0.961 . S
C1904 C1903 1.502 . S
C1905 H1891 0.960 . S
C1905 H1892 0.961 . S
C1905 H1893 0.959 . S
C1905 C1903 1.561 . S
C1906 C1903 1.526 . S
C1906 C1907 1.396 . S
C1906 C1911 1.390 . S
C1907 C1901 1.465 . S
C1907 C1906 1.396 . S
C1907 C1908 1.399 . S
C1908 H1894 0.929 . S
C1908 C1907 1.399 . S
C1908 C1909 1.385 . S
C1909 H1895 0.931 . S
C1909 C1908 1.385 . S
C1909 C1910 1.389 . S
C1910 C1909 1.389 . S
C1910 C1911 1.387 . S
C1911 H1896 0.930 . S
C1911 C1906 1.390 . S
C1911 C1910 1.387 . S
H1912 C1924 0.930 . S
H1913 C1926 0.930 . S
H1914 C1927 0.930 . S
H1915 C1931 0.959 . S
H1916 C1931 0.959 . S
H1917 C1931 0.961 . S
H1918 C1932 0.960 . S
H1919 C1932 0.961 . S
H1920 C1932 0.959 . S
H1921 C1935 0.929 . S
H1922 C1936 0.931 . S
H1923 C1938 0.930 . S
C1924 H1912 0.930 . S
C1924 C1925 1.399 . S
C1924 C1929 1.399 . S
C1925 C1924 1.399 . S
C1925 C1926 1.376 . S
C1926 H1913 0.930 . S
C1926 C1925 1.376 . S
C1926 C1927 1.388 . S
C1927 H1914 0.930 . S
C1927 C1926 1.388 . S
C1927 C1928 1.390 . S
C1928 C1927 1.390 . S
C1928 C1929 1.394 . S
C1928 C1934 1.465 . S
C1929 C1924 1.399 . S
C1929 C1928 1.394 . S
C1929 C1930 1.516 . S
C1930 C1929 1.516 . S
C1930 C1931 1.502 . S
C1930 C1932 1.561 . S
C1930 C1933 1.526 . S
C1931 H1915 0.959 . S
C1931 H1916 0.959 . S
C1931 H1917 0.961 . S
C1931 C1930 1.502 . S
C1932 H1918 0.960 . S
C1932 H1919 0.961 . S
C1932 H1920 0.959 . S
C1932 C1930 1.561 . S
C1933 C1930 1.526 . S
C1933 C1934 1.396 . S
C1933 C1938 1.390 . S
C1934 C1928 1.465 . S
C1934 C1933 1.396 . S
C1934 C1935 1.399 . S
C1935 H1921 0.929 . S
C1935 C1934 1.399 . S
C1935 C1936 1.385 . S
C1936 H1922 0.931 . S
C1936 C1935 1.385 . S
C1936 C1937 1.389 . S
C1937 C1936 1.389 . S
C1937 C1938 1.387 . S
C1938 H1923 0.930 . S
C1938 C1933 1.390 . S
C1938 C1937 1.387 . S
H1939 C1951 0.930 . S
H1940 C1953 0.930 . S
H1941 C1954 0.930 . S
H1942 C1958 0.959 . S
H1943 C1958 0.959 . S
H1944 C1958 0.961 . S
H1945 C1959 0.960 . S
H1946 C1959 0.961 . S
H1947 C1959 0.959 . S
H1948 C1962 0.929 1_565 S
H1949 C1963 0.971 . S
H1950 C1965 0.930 . S
C1951 H1939 0.930 . S
C1951 C1952 1.399 . S
C1951 C1956 1.399 . S
C1952 C1951 1.399 . S
C1952 C1953 1.376 . S
C1953 H1940 0.930 . S
C1953 C1952 1.376 . S
C1953 C1954 1.388 . S
C1954 H1941 0.930 . S
C1954 C1953 1.388 . S
C1954 C1955 1.390 . S
C1955 C1954 1.390 . S
C1955 C1956 1.394 . S
C1955 C1961 1.465 . S
C1956 C1951 1.399 . S
C1956 C1955 1.394 . S
C1956 C1957 1.516 . S
C1957 C1956 1.516 . S
C1957 C1958 1.502 . S
C1957 C1959 1.561 . S
C1957 C1960 1.526 . S
C1958 H1942 0.959 . S
C1958 H1943 0.959 . S
C1958 H1944 0.961 . S
C1958 C1957 1.502 . S
C1959 H1945 0.960 . S
C1959 H1946 0.961 . S
C1959 H1947 0.959 . S
C1959 C1957 1.561 . S
C1960 C1957 1.526 . S
C1960 C1961 1.396 . S
C1960 C1965 1.390 . S
C1961 C1955 1.465 . S
C1961 C1960 1.396 . S
C1961 C1962 1.399 . S
C1962 H1948 0.929 1_545 S
C1962 C1961 1.399 . S
C1962 C1963 1.385 . S
C1963 H1949 0.971 . S
C1963 C1962 1.385 . S
C1963 C1964 1.389 . S
C1964 C1963 1.389 . S
C1964 C1965 1.387 . S
C1965 H1950 0.930 . S
C1965 C1960 1.390 . S
C1965 C1964 1.387 . S
H1966 C1978 0.930 . S
H1967 C1980 0.930 . S
H1968 C1981 0.930 . S
H1969 C1985 0.959 . S
H1970 C1985 0.959 . S
H1971 C1985 0.961 . S
H1972 C1986 0.960 . S
H1973 C1986 0.961 . S
H1974 C1986 0.959 . S
H1975 C1989 0.929 . S
H1976 C1990 0.931 . S
H1977 C1992 0.930 . S
C1978 H1966 0.930 . S
C1978 C1979 1.399 . S
C1978 C1983 1.399 . S
C1979 C1978 1.399 . S
C1979 C1980 1.376 . S
C1980 H1967 0.930 . S
C1980 C1979 1.376 . S
C1980 C1981 1.388 . S
C1981 H1968 0.930 . S
C1981 C1980 1.388 . S
C1981 C1982 1.390 . S
C1982 C1981 1.390 . S
C1982 C1983 1.394 . S
C1982 C1988 1.465 . S
C1983 C1978 1.399 . S
C1983 C1982 1.394 . S
C1983 C1984 1.516 . S
C1984 C1983 1.516 . S
C1984 C1985 1.502 . S
C1984 C1986 1.561 . S
C1984 C1987 1.526 . S
C1985 H1969 0.959 . S
C1985 H1970 0.959 . S
C1985 H1971 0.961 . S
C1985 C1984 1.502 . S
C1986 H1972 0.960 . S
C1986 H1973 0.961 . S
C1986 H1974 0.959 . S
C1986 C1984 1.561 . S
C1987 C1984 1.526 . S
C1987 C1988 1.396 . S
C1987 C1992 1.390 . S
C1988 C1982 1.465 . S
C1988 C1987 1.396 . S
C1988 C1989 1.399 . S
C1989 H1975 0.929 . S
C1989 C1988 1.399 . S
C1989 C1990 1.385 . S
C1990 H1976 0.931 . S
C1990 C1989 1.385 . S
C1990 C1991 1.389 . S
C1991 C1990 1.389 . S
C1991 C1992 1.387 . S
C1992 H1977 0.930 . S
C1992 C1987 1.390 . S
C1992 C1991 1.387 . S
H1993 C2005 0.930 . S
H1994 C2007 0.930 . S
H1995 C2008 0.930 . S
H1996 C2012 0.959 . S
H1997 C2012 0.959 . S
H1998 C2012 0.961 . S
H1999 C2013 0.960 . S
H2000 C2013 0.961 . S
H2001 C2013 0.959 . S
H2002 C2016 0.929 . S
H2003 C2017 0.931 . S
H2004 C2019 0.930 . S
C2005 H1993 0.930 . S
C2005 C2006 1.399 . S
C2005 C2010 1.399 . S
C2006 C2005 1.399 . S
C2006 C2007 1.376 . S
C2007 H1994 0.930 . S
C2007 C2006 1.376 . S
C2007 C2008 1.388 . S
C2008 H1995 0.930 . S
C2008 C2007 1.388 . S
C2008 C2009 1.390 . S
C2009 C2008 1.390 . S
C2009 C2010 1.394 . S
C2009 C2015 1.465 . S
C2010 C2005 1.399 . S
C2010 C2009 1.394 . S
C2010 C2011 1.516 . S
C2011 C2010 1.516 . S
C2011 C2012 1.502 . S
C2011 C2013 1.561 . S
C2011 C2014 1.526 . S
C2012 H1996 0.959 . S
C2012 H1997 0.959 . S
C2012 H1998 0.961 . S
C2012 C2011 1.502 . S
C2013 H1999 0.960 . S
C2013 H2000 0.961 . S
C2013 H2001 0.959 . S
C2013 C2011 1.561 . S
C2014 C2011 1.526 . S
C2014 C2015 1.396 . S
C2014 C2019 1.390 . S
C2015 C2009 1.465 . S
C2015 C2014 1.396 . S
C2015 C2016 1.399 . S
C2016 H2002 0.929 . S
C2016 C2015 1.399 . S
C2016 C2017 1.385 . S
C2017 H2003 0.931 . S
C2017 C2016 1.385 . S
C2017 C2018 1.389 . S
C2018 C2017 1.389 . S
C2018 C2019 1.387 . S
C2019 H2004 0.930 . S
C2019 C2014 1.390 . S
C2019 C2018 1.387 . S
H2020 C2032 0.930 . S
H2021 C2034 0.930 . S
H2022 C2035 0.930 . S
H2023 C2039 0.959 . S
H2024 C2039 0.959 . S
H2025 C2039 0.961 . S
H2026 C2040 0.960 . S
H2027 C2040 0.961 . S
H2028 C2040 0.959 . S
H2029 C2043 0.929 . S
H2030 C2044 0.931 . S
H2031 C2046 0.930 . S
C2032 H2020 0.930 . S
C2032 C2033 1.399 . S
C2032 C2037 1.399 . S
C2033 C2032 1.399 . S
C2033 C2034 1.376 . S
C2034 H2021 0.930 . S
C2034 C2033 1.376 . S
C2034 C2035 1.388 . S
C2035 H2022 0.930 . S
C2035 C2034 1.388 . S
C2035 C2036 1.390 . S
C2036 C2035 1.390 . S
C2036 C2037 1.394 . S
C2036 C2042 1.465 . S
C2037 C2032 1.399 . S
C2037 C2036 1.394 . S
C2037 C2038 1.516 . S
C2038 C2037 1.516 . S
C2038 C2039 1.502 . S
C2038 C2040 1.561 . S
C2038 C2041 1.526 . S
C2039 H2023 0.959 . S
C2039 H2024 0.959 . S
C2039 H2025 0.961 . S
C2039 C2038 1.502 . S
C2040 H2026 0.960 . S
C2040 H2027 0.961 . S
C2040 H2028 0.959 . S
C2040 C2038 1.561 . S
C2041 C2038 1.526 . S
C2041 C2042 1.396 . S
C2041 C2046 1.390 . S
C2042 C2036 1.465 . S
C2042 C2041 1.396 . S
C2042 C2043 1.399 . S
C2043 H2029 0.929 . S
C2043 C2042 1.399 . S
C2043 C2044 1.385 . S
C2044 H2030 0.931 . S
C2044 C2043 1.385 . S
C2044 C2045 1.389 . S
C2045 C2044 1.389 . S
C2045 C2046 1.387 . S
C2046 H2031 0.930 . S
C2046 C2041 1.390 . S
C2046 C2045 1.387 . S
H2047 C2059 0.930 . S
H2048 C2061 0.956 . S
H2049 C2062 0.930 . S
H2050 C2066 0.959 . S
H2051 C2066 0.959 . S
H2052 C2066 0.961 . S
H2053 C2067 0.960 . S
H2054 C2067 0.961 . S
H2055 C2067 0.959 . S
H2056 C2070 0.929 . S
H2057 C2071 0.931 . S
H2058 C2073 0.930 . S
C2059 H2047 0.930 . S
C2059 C2060 1.399 1_565 S
C2059 C2064 1.399 . S
C2060 C2059 1.399 1_545 S
C2060 C2061 1.376 . S
C2061 H2048 0.956 . S
C2061 C2060 1.376 . S
C2061 C2062 1.388 . S
C2062 H2049 0.930 . S
C2062 C2061 1.388 . S
C2062 C2063 1.390 . S
C2063 C2062 1.390 . S
C2063 C2064 1.394 1_545 S
C2063 C2069 1.465 . S
C2064 C2059 1.399 . S
C2064 C2063 1.394 1_565 S
C2064 C2065 1.516 . S
C2065 C2064 1.516 . S
C2065 C2066 1.502 . S
C2065 C2067 1.561 . S
C2065 C2068 1.526 . S
C2066 H2050 0.959 . S
C2066 H2051 0.959 . S
C2066 H2052 0.961 . S
C2066 C2065 1.502 . S
C2067 H2053 0.960 . S
C2067 H2054 0.961 . S
C2067 H2055 0.959 . S
C2067 C2065 1.561 . S
C2068 C2065 1.526 . S
C2068 C2069 1.396 1_565 S
C2068 C2073 1.390 . S
C2069 C2063 1.465 . S
C2069 C2068 1.396 1_545 S
C2069 C2070 1.399 . S
C2070 H2056 0.929 . S
C2070 C2069 1.399 . S
C2070 C2071 1.385 . S
C2071 H2057 0.931 . S
C2071 C2070 1.385 . S
C2071 C2072 1.389 . S
C2072 C2071 1.389 . S
C2072 C2073 1.387 1_545 S
C2073 H2058 0.930 . S
C2073 C2068 1.390 . S
C2073 C2072 1.387 1_565 S
H2074 C2086 0.930 . S
H2075 C2088 0.930 . S
H2076 C2089 0.930 . S
H2077 C2093 0.959 . S
H2078 C2093 0.959 . S
H2079 C2093 0.961 . S
H2080 C2094 0.960 . S
H2081 C2094 0.961 . S
H2082 C2094 0.959 . S
H2083 C2097 0.929 . S
H2084 C2098 0.931 . S
H2085 C2100 0.930 . S
C2086 H2074 0.930 . S
C2086 C2087 1.399 . S
C2086 C2091 1.399 . S
C2087 C2086 1.399 . S
C2087 C2088 1.376 . S
C2088 H2075 0.930 . S
C2088 C2087 1.376 . S
C2088 C2089 1.388 . S
C2089 H2076 0.930 . S
C2089 C2088 1.388 . S
C2089 C2090 1.390 . S
C2090 C2089 1.390 . S
C2090 C2091 1.394 . S
C2090 C2096 1.465 . S
C2091 C2086 1.399 . S
C2091 C2090 1.394 . S
C2091 C2092 1.516 . S
C2092 C2091 1.516 . S
C2092 C2093 1.502 . S
C2092 C2094 1.561 . S
C2092 C2095 1.526 . S
C2093 H2077 0.959 . S
C2093 H2078 0.959 . S
C2093 H2079 0.961 . S
C2093 C2092 1.502 . S
C2094 H2080 0.960 . S
C2094 H2081 0.961 . S
C2094 H2082 0.959 . S
C2094 C2092 1.561 . S
C2095 C2092 1.526 . S
C2095 C2096 1.396 . S
C2095 C2100 1.390 . S
C2096 C2090 1.465 . S
C2096 C2095 1.396 . S
C2096 C2097 1.399 . S
C2097 H2083 0.929 . S
C2097 C2096 1.399 . S
C2097 C2098 1.385 . S
C2098 H2084 0.931 . S
C2098 C2097 1.385 . S
C2098 C2099 1.389 . S
C2099 C2098 1.389 . S
C2099 C2100 1.387 . S
C2100 H2085 0.930 . S
C2100 C2095 1.390 . S
C2100 C2099 1.387 . S
H2101 C2113 0.930 1_655 S
H2102 C2115 0.930 . S
H2103 C2116 0.930 . S
H2104 C2120 0.959 . S
H2105 C2120 0.959 . S
H2106 C2120 0.961 1_655 S
H2107 C2121 0.960 . S
H2108 C2121 0.961 . S
H2109 C2121 0.959 . S
H2110 C2124 0.929 . S
H2111 C2125 0.931 . S
H2112 C2127 0.930 . S
C2113 H2101 0.930 1_455 S
C2113 C2114 1.399 . S
C2113 C2118 1.399 . S
C2114 C2113 1.399 . S
C2114 C2115 1.376 . S
C2115 H2102 0.930 . S
C2115 C2114 1.376 . S
C2115 C2116 1.388 . S
C2116 H2103 0.930 . S
C2116 C2115 1.388 . S
C2116 C2117 1.390 . S
C2117 C2116 1.390 . S
C2117 C2118 1.394 . S
C2117 C2123 1.465 . S
C2118 C2113 1.399 . S
C2118 C2117 1.394 . S
C2118 C2119 1.516 . S
C2119 C2118 1.516 . S
C2119 C2120 1.502 . S
C2119 C2121 1.561 . S
C2119 C2122 1.526 . S
C2120 H2104 0.959 . S
C2120 H2105 0.959 . S
C2120 H2106 0.961 1_455 S
C2120 C2119 1.502 . S
C2121 H2107 0.960 . S
C2121 H2108 0.961 . S
C2121 H2109 0.959 . S
C2121 C2119 1.561 . S
C2122 C2119 1.526 . S
C2122 C2123 1.396 . S
C2122 C2127 1.390 . S
C2123 C2117 1.465 . S
C2123 C2122 1.396 . S
C2123 C2124 1.399 . S
C2124 H2110 0.929 . S
C2124 C2123 1.399 . S
C2124 C2125 1.385 . S
C2125 H2111 0.931 . S
C2125 C2124 1.385 . S
C2125 C2126 1.389 . S
C2126 C2125 1.389 . S
C2126 C2127 1.387 . S
C2127 H2112 0.930 . S
C2127 C2122 1.390 . S
C2127 C2126 1.387 . S
H2128 C2140 0.930 . S
H2129 C2142 0.930 . S
H2130 C2143 0.930 . S
H2131 C2147 0.959 . S
H2132 C2147 0.959 . S
H2133 C2147 0.961 . S
H2134 C2148 0.960 . S
H2135 C2148 0.961 . S
H2136 C2148 0.959 . S
H2137 C2151 0.929 . S
H2138 C2152 0.931 . S
H2139 C2154 0.930 . S
C2140 H2128 0.930 . S
C2140 C2141 1.399 . S
C2140 C2145 1.399 . S
C2141 C2140 1.399 . S
C2141 C2142 1.376 . S
C2142 H2129 0.930 . S
C2142 C2141 1.376 . S
C2142 C2143 1.388 . S
C2143 H2130 0.930 . S
C2143 C2142 1.388 . S
C2143 C2144 1.390 . S
C2144 C2143 1.390 . S
C2144 C2145 1.394 . S
C2144 C2150 1.465 . S
C2145 C2140 1.399 . S
C2145 C2144 1.394 . S
C2145 C2146 1.516 . S
C2146 C2145 1.516 . S
C2146 C2147 1.502 . S
C2146 C2148 1.561 . S
C2146 C2149 1.526 . S
C2147 H2131 0.959 . S
C2147 H2132 0.959 . S
C2147 H2133 0.961 . S
C2147 C2146 1.502 . S
C2148 H2134 0.960 . S
C2148 H2135 0.961 . S
C2148 H2136 0.959 . S
C2148 C2146 1.561 . S
C2149 C2146 1.526 . S
C2149 C2150 1.396 . S
C2149 C2154 1.390 . S
C2150 C2144 1.465 . S
C2150 C2149 1.396 . S
C2150 C2151 1.399 . S
C2151 H2137 0.929 . S
C2151 C2150 1.399 . S
C2151 C2152 1.385 . S
C2152 H2138 0.931 . S
C2152 C2151 1.385 . S
C2152 C2153 1.389 . S
C2153 C2152 1.389 . S
C2153 C2154 1.387 . S
C2154 H2139 0.930 . S
C2154 C2149 1.390 . S
C2154 C2153 1.387 . S
H2155 C2167 0.930 . S
H2156 C2169 0.930 . S
H2157 C2170 0.930 . S
H2158 C2174 0.959 . S
H2159 C2174 0.959 . S
H2160 C2174 0.961 . S
H2161 C2175 0.960 . S
H2162 C2175 0.961 . S
H2163 C2175 0.959 . S
H2164 C2178 0.929 . S
H2165 C2179 0.931 . S
H2166 C2181 0.930 . S
C2167 H2155 0.930 . S
C2167 C2168 1.399 . S
C2167 C2172 1.399 . S
C2168 C2167 1.399 . S
C2168 C2169 1.376 . S
C2169 H2156 0.930 . S
C2169 C2168 1.376 . S
C2169 C2170 1.388 . S
C2170 H2157 0.930 . S
C2170 C2169 1.388 . S
C2170 C2171 1.390 . S
C2171 C2170 1.390 . S
C2171 C2172 1.394 . S
C2171 C2177 1.465 . S
C2172 C2167 1.399 . S
C2172 C2171 1.394 . S
C2172 C2173 1.516 1_554 S
C2173 C2172 1.516 1_556 S
C2173 C2174 1.502 . S
C2173 C2175 1.561 1_655 S
C2173 C2176 1.526 . S
C2174 H2158 0.959 . S
C2174 H2159 0.959 . S
C2174 H2160 0.961 . S
C2174 C2173 1.502 . S
C2175 H2161 0.960 . S
C2175 H2162 0.961 . S
C2175 H2163 0.959 . S
C2175 C2173 1.561 1_455 S
C2176 C2173 1.526 . S
C2176 C2177 1.396 1_556 S
C2176 C2181 1.390 . S
C2177 C2171 1.465 . S
C2177 C2176 1.396 1_554 S
C2177 C2178 1.399 . S
C2178 H2164 0.929 . S
C2178 C2177 1.399 . S
C2178 C2179 1.385 . S
C2179 H2165 0.931 . S
C2179 C2178 1.385 . S
C2179 C2180 1.389 1_554 S
C2180 C2179 1.389 1_556 S
C2180 C2181 1.387 . S
C2181 H2166 0.930 . S
C2181 C2176 1.390 . S
C2181 C2180 1.387 . S
H2182 C2194 0.930 . S
H2183 C2196 0.930 . S
H2184 C2197 0.930 . S
H2185 C2201 0.959 . S
H2186 C2201 0.959 . S
H2187 C2201 0.961 . S
H2188 C2202 0.960 . S
H2189 C2202 0.961 . S
H2190 C2202 0.959 . S
H2191 C2205 0.929 . S
H2192 C2206 0.931 . S
H2193 C2208 0.930 . S
C2194 H2182 0.930 . S
C2194 C2195 1.399 . S
C2194 C2199 1.399 . S
C2195 C2194 1.399 . S
C2195 C2196 1.376 . S
C2196 H2183 0.930 . S
C2196 C2195 1.376 . S
C2196 C2197 1.388 . S
C2197 H2184 0.930 . S
C2197 C2196 1.388 . S
C2197 C2198 1.390 . S
C2198 C2197 1.390 . S
C2198 C2199 1.394 . S
C2198 C2204 1.465 . S
C2199 C2194 1.399 . S
C2199 C2198 1.394 . S
C2199 C2200 1.516 . S
C2200 C2199 1.516 . S
C2200 C2201 1.502 . S
C2200 C2202 1.561 . S
C2200 C2203 1.526 . S
C2201 H2185 0.959 . S
C2201 H2186 0.959 . S
C2201 H2187 0.961 . S
C2201 C2200 1.502 . S
C2202 H2188 0.960 . S
C2202 H2189 0.961 . S
C2202 H2190 0.959 . S
C2202 C2200 1.561 . S
C2203 C2200 1.526 . S
C2203 C2204 1.396 . S
C2203 C2208 1.390 . S
C2204 C2198 1.465 . S
C2204 C2203 1.396 . S
C2204 C2205 1.399 . S
C2205 H2191 0.929 . S
C2205 C2204 1.399 . S
C2205 C2206 1.385 . S
C2206 H2192 0.931 . S
C2206 C2205 1.385 . S
C2206 C2207 1.389 . S
C2207 C2206 1.389 . S
C2207 C2208 1.387 . S
C2208 H2193 0.930 . S
C2208 C2203 1.390 . S
C2208 C2207 1.387 . S
H2209 C2221 0.930 1_556 S
H2210 C2223 0.930 . S
H2211 C2224 0.930 . S
H2212 C2228 0.959 . S
H2213 C2228 0.959 . S
H2214 C2228 0.961 . S
H2215 C2229 0.960 . S
H2216 C2229 0.961 . S
H2217 C2229 0.959 . S
H2218 C2232 0.929 . S
H2219 C2233 0.931 . S
H2220 C2235 0.914 1_655 S
C2221 H2209 0.930 1_554 S
C2221 C2222 1.399 . S
C2221 C2226 1.398 1_554 S
C2222 C2221 1.399 . S
C2222 C2223 1.376 . S
C2223 H2210 0.930 . S
C2223 C2222 1.376 . S
C2223 C2224 1.388 . S
C2224 H2211 0.930 . S
C2224 C2223 1.388 . S
C2224 C2225 1.390 . S
C2225 C2224 1.390 . S
C2225 C2226 1.393 1_554 S
C2225 C2231 1.496 . S
C2226 C2221 1.398 1_556 S
C2226 C2225 1.393 1_556 S
C2226 C2227 1.518 . S
C2227 C2226 1.518 . S
C2227 C2228 1.502 . S
C2227 C2229 1.561 1_455 S
C2227 C2230 1.526 . S
C2228 H2212 0.959 . S
C2228 H2213 0.959 . S
C2228 H2214 0.961 . S
C2228 C2227 1.502 . S
C2229 H2215 0.960 . S
C2229 H2216 0.961 . S
C2229 H2217 0.959 . S
C2229 C2227 1.561 1_655 S
C2230 C2227 1.526 . S
C2230 C2231 1.353 1_556 S
C2230 C2235 1.390 . S
C2231 C2225 1.496 . S
C2231 C2230 1.353 1_554 S
C2231 C2232 1.407 . S
C2232 H2218 0.929 . S
C2232 C2231 1.407 . S
C2232 C2233 1.385 1_554 S
C2233 H2219 0.931 . S
C2233 C2232 1.385 1_556 S
C2233 C2234 1.389 . S
C2234 C2233 1.389 . S
C2234 C2235 1.387 . S
C2235 H2220 0.914 1_455 S
C2235 C2230 1.390 . S
C2235 C2234 1.387 . S
H2236 C2248 0.930 . S
H2237 C2250 0.930 . S
H2238 C2251 0.930 . S
H2239 C2255 0.959 . S
H2240 C2255 0.959 . S
H2241 C2255 0.961 . S
H2242 C2256 0.960 . S
H2243 C2256 0.961 . S
H2244 C2256 0.959 . S
H2245 C2259 0.929 . S
H2246 C2260 0.931 . S
H2247 C2262 0.930 . S
C2248 H2236 0.930 . S
C2248 C2249 1.399 . S
C2248 C2253 1.399 . S
C2249 C2248 1.399 . S
C2249 C2250 1.376 . S
C2250 H2237 0.930 . S
C2250 C2249 1.376 . S
C2250 C2251 1.388 . S
C2251 H2238 0.930 . S
C2251 C2250 1.388 . S
C2251 C2252 1.390 . S
C2252 C2251 1.390 . S
C2252 C2253 1.394 . S
C2252 C2258 1.465 . S
C2253 C2248 1.399 . S
C2253 C2252 1.394 . S
C2253 C2254 1.516 . S
C2254 C2253 1.516 . S
C2254 C2255 1.502 . S
C2254 C2256 1.561 . S
C2254 C2257 1.526 . S
C2255 H2239 0.959 . S
C2255 H2240 0.959 . S
C2255 H2241 0.961 . S
C2255 C2254 1.502 . S
C2256 H2242 0.960 . S
C2256 H2243 0.961 . S
C2256 H2244 0.959 . S
C2256 C2254 1.561 . S
C2257 C2254 1.526 . S
C2257 C2258 1.396 . S
C2257 C2262 1.390 . S
C2258 C2252 1.465 . S
C2258 C2257 1.396 . S
C2258 C2259 1.399 . S
C2259 H2245 0.929 . S
C2259 C2258 1.399 . S
C2259 C2260 1.385 . S
C2260 H2246 0.931 . S
C2260 C2259 1.385 . S
C2260 C2261 1.389 . S
C2261 C2260 1.389 . S
C2261 C2262 1.387 . S
C2262 H2247 0.930 . S
C2262 C2257 1.390 . S
C2262 C2261 1.387 . S
H2263 C2275 0.930 . S
H2264 C2277 0.930 . S
H2265 C2278 0.930 . S
H2266 C2282 0.959 . S
H2267 C2282 0.959 . S
H2268 C2282 0.961 . S
H2269 C2283 0.960 . S
H2270 C2283 0.961 . S
H2271 C2283 0.959 . S
H2272 C2286 0.929 . S
H2273 C2287 0.931 . S
H2274 C2289 0.930 . S
C2275 H2263 0.930 . S
C2275 C2276 1.399 1_554 S
C2275 C2280 1.399 . S
C2276 C2275 1.399 1_556 S
C2276 C2277 1.376 . S
C2277 H2264 0.930 . S
C2277 C2276 1.376 . S
C2277 C2278 1.388 . S
C2278 H2265 0.930 . S
C2278 C2277 1.388 . S
C2278 C2279 1.390 1_556 S
C2279 C2278 1.390 1_554 S
C2279 C2280 1.394 . S
C2279 C2285 1.465 . S
C2280 C2275 1.399 . S
C2280 C2279 1.394 . S
C2280 C2281 1.516 . S
C2281 C2280 1.516 . S
C2281 C2282 1.502 . S
C2281 C2283 1.561 . S
C2281 C2284 1.526 . S
C2282 H2266 0.959 . S
C2282 H2267 0.959 . S
C2282 H2268 0.961 . S
C2282 C2281 1.502 . S
C2283 H2269 0.960 . S
C2283 H2270 0.961 . S
C2283 H2271 0.959 . S
C2283 C2281 1.561 . S
C2284 C2281 1.526 . S
C2284 C2285 1.396 . S
C2284 C2289 1.390 . S
C2285 C2279 1.465 . S
C2285 C2284 1.396 . S
C2285 C2286 1.399 . S
C2286 H2272 0.929 . S
C2286 C2285 1.399 . S
C2286 C2287 1.385 . S
C2287 H2273 0.931 . S
C2287 C2286 1.385 . S
C2287 C2288 1.389 . S
C2288 C2287 1.389 . S
C2288 C2289 1.387 . S
C2289 H2274 0.930 . S
C2289 C2284 1.390 . S
C2289 C2288 1.387 . S
H2290 C2302 0.930 . S
H2291 C2304 0.930 . S
H2292 C2305 0.930 . S
H2293 C2309 0.959 . S
H2294 C2309 0.959 . S
H2295 C2309 0.961 . S
H2296 C2310 0.960 . S
H2297 C2310 0.961 . S
H2298 C2310 0.959 . S
H2299 C2313 0.929 . S
H2300 C2314 0.931 . S
H2301 C2316 0.930 . S
C2302 H2290 0.930 . S
C2302 C2303 1.399 . S
C2302 C2307 1.399 . S
C2303 C2302 1.399 . S
C2303 C2304 1.376 . S
C2304 H2291 0.930 . S
C2304 C2303 1.376 . S
C2304 C2305 1.388 . S
C2305 H2292 0.930 . S
C2305 C2304 1.388 . S
C2305 C2306 1.390 . S
C2306 C2305 1.390 . S
C2306 C2307 1.394 . S
C2306 C2312 1.465 . S
C2307 C2302 1.399 . S
C2307 C2306 1.394 . S
C2307 C2308 1.516 . S
C2308 C2307 1.516 . S
C2308 C2309 1.502 . S
C2308 C2310 1.561 . S
C2308 C2311 1.526 . S
C2309 H2293 0.959 . S
C2309 H2294 0.959 . S
C2309 H2295 0.961 . S
C2309 C2308 1.502 . S
C2310 H2296 0.960 . S
C2310 H2297 0.961 . S
C2310 H2298 0.959 . S
C2310 C2308 1.561 . S
C2311 C2308 1.526 . S
C2311 C2312 1.396 . S
C2311 C2316 1.390 . S
C2312 C2306 1.465 . S
C2312 C2311 1.396 . S
C2312 C2313 1.399 . S
C2313 H2299 0.929 . S
C2313 C2312 1.399 . S
C2313 C2314 1.385 . S
C2314 H2300 0.931 . S
C2314 C2313 1.385 . S
C2314 C2315 1.389 . S
C2315 C2314 1.389 . S
C2315 C2316 1.387 . S
C2316 H2301 0.930 . S
C2316 C2311 1.390 . S
C2316 C2315 1.387 . S
H2317 C2329 0.930 . S
H2318 C2331 0.930 . S
H2319 C2332 0.930 . S
H2320 C2336 0.959 1_554 S
H2321 C2336 0.959 . S
H2322 C2336 0.961 . S
H2323 C2337 0.960 . S
H2324 C2337 0.961 . S
H2325 C2337 0.964 . S
H2326 C2340 0.929 . S
H2327 C2341 0.931 . S
H2328 C2343 0.930 . S
C2329 H2317 0.930 . S
C2329 C2330 1.399 . S
C2329 C2334 1.399 1_556 S
C2330 C2329 1.399 . S
C2330 C2331 1.376 1_556 S
C2331 H2318 0.930 . S
C2331 C2330 1.376 1_554 S
C2331 C2332 1.388 . S
C2332 H2319 0.930 . S
C2332 C2331 1.388 . S
C2332 C2333 1.390 . S
C2333 C2332 1.390 . S
C2333 C2334 1.394 . S
C2333 C2339 1.465 . S
C2334 C2329 1.399 1_554 S
C2334 C2333 1.394 . S
C2334 C2335 1.516 . S
C2335 C2334 1.516 . S
C2335 C2336 1.502 1_554 S
C2335 C2337 1.561 1_554 S
C2335 C2338 1.526 . S
C2336 H2320 0.959 1_556 S
C2336 H2321 0.959 . S
C2336 H2322 0.961 . S
C2336 C2335 1.502 1_556 S
C2337 H2323 0.960 . S
C2337 H2324 0.961 . S
C2337 H2325 0.964 . S
C2337 C2335 1.561 1_556 S
C2338 C2335 1.526 . S
C2338 C2339 1.396 . S
C2338 C2343 1.390 . S
C2339 C2333 1.465 . S
C2339 C2338 1.396 . S
C2339 C2340 1.399 . S
C2340 H2326 0.929 . S
C2340 C2339 1.399 . S
C2340 C2341 1.385 . S
C2341 H2327 0.931 . S
C2341 C2340 1.385 . S
C2341 C2342 1.389 . S
C2342 C2341 1.389 . S
C2342 C2343 1.387 . S
C2343 H2328 0.930 . S
C2343 C2338 1.390 . S
C2343 C2342 1.387 . S
H2344 C2356 0.930 . S
H2345 C2358 0.930 . S
H2346 C2359 0.930 . S
H2347 C2363 0.959 . S
H2348 C2363 0.959 . S
H2349 C2363 0.961 . S
H2350 C2364 0.960 . S
H2351 C2364 0.961 . S
H2352 C2364 0.959 . S
H2353 C2367 0.929 . S
H2354 C2368 0.931 . S
H2355 C2370 0.930 . S
C2356 H2344 0.930 . S
C2356 C2357 1.399 . S
C2356 C2361 1.399 . S
C2357 C2356 1.399 . S
C2357 C2358 1.376 . S
C2358 H2345 0.930 . S
C2358 C2357 1.376 . S
C2358 C2359 1.388 . S
C2359 H2346 0.930 . S
C2359 C2358 1.388 . S
C2359 C2360 1.390 . S
C2360 C2359 1.390 . S
C2360 C2361 1.394 . S
C2360 C2366 1.465 . S
C2361 C2356 1.399 . S
C2361 C2360 1.394 . S
C2361 C2362 1.516 . S
C2362 C2361 1.516 . S
C2362 C2363 1.502 . S
C2362 C2364 1.561 . S
C2362 C2365 1.526 . S
C2363 H2347 0.959 . S
C2363 H2348 0.959 . S
C2363 H2349 0.961 . S
C2363 C2362 1.502 . S
C2364 H2350 0.960 . S
C2364 H2351 0.961 . S
C2364 H2352 0.959 . S
C2364 C2362 1.561 . S
C2365 C2362 1.526 . S
C2365 C2366 1.396 . S
C2365 C2370 1.390 . S
C2366 C2360 1.465 . S
C2366 C2365 1.396 . S
C2366 C2367 1.399 . S
C2367 H2353 0.929 . S
C2367 C2366 1.399 . S
C2367 C2368 1.385 . S
C2368 H2354 0.931 . S
C2368 C2367 1.385 . S
C2368 C2369 1.389 . S
C2369 C2368 1.389 . S
C2369 C2370 1.387 . S
C2370 H2355 0.930 . S
C2370 C2365 1.390 . S
C2370 C2369 1.387 . S
H2371 C2383 0.930 . S
H2372 C2385 0.930 . S
H2373 C2386 0.930 . S
H2374 C2390 0.959 . S
H2375 C2390 0.959 . S
H2376 C2390 0.961 . S
H2377 C2391 0.960 . S
H2378 C2391 0.961 . S
H2379 C2391 0.959 . S
H2380 C2394 0.929 . S
H2381 C2395 0.931 . S
H2382 C2397 0.930 . S
C2383 H2371 0.930 . S
C2383 C2384 1.399 . S
C2383 C2388 1.399 . S
C2384 C2383 1.399 . S
C2384 C2385 1.376 . S
C2385 H2372 0.930 . S
C2385 C2384 1.376 . S
C2385 C2386 1.388 . S
C2386 H2373 0.930 . S
C2386 C2385 1.388 . S
C2386 C2387 1.390 . S
C2387 C2386 1.390 . S
C2387 C2388 1.394 . S
C2387 C2393 1.465 . S
C2388 C2383 1.399 . S
C2388 C2387 1.394 . S
C2388 C2389 1.516 . S
C2389 C2388 1.516 . S
C2389 C2390 1.502 . S
C2389 C2391 1.561 . S
C2389 C2392 1.526 . S
C2390 H2374 0.959 . S
C2390 H2375 0.959 . S
C2390 H2376 0.961 . S
C2390 C2389 1.502 . S
C2391 H2377 0.960 . S
C2391 H2378 0.961 . S
C2391 H2379 0.959 . S
C2391 C2389 1.561 . S
C2392 C2389 1.526 . S
C2392 C2393 1.396 . S
C2392 C2397 1.390 . S
C2393 C2387 1.465 . S
C2393 C2392 1.396 . S
C2393 C2394 1.399 . S
C2394 H2380 0.929 . S
C2394 C2393 1.399 . S
C2394 C2395 1.385 . S
C2395 H2381 0.931 . S
C2395 C2394 1.385 . S
C2395 C2396 1.389 . S
C2396 C2395 1.389 . S
C2396 C2397 1.387 . S
C2397 H2382 0.930 . S
C2397 C2392 1.390 . S
C2397 C2396 1.387 . S
H2398 C2410 0.930 . S
H2399 C2412 0.930 . S
H2400 C2413 0.930 . S
H2401 C2417 0.959 . S
H2402 C2417 0.959 . S
H2403 C2417 0.961 . S
H2404 C2418 0.960 . S
H2405 C2418 0.961 . S
H2406 C2418 0.959 . S
H2407 C2421 0.929 . S
H2408 C2422 0.931 . S
H2409 C2424 0.930 . S
C2410 H2398 0.930 . S
C2410 C2411 1.399 . S
C2410 C2415 1.399 . S
C2411 C2410 1.399 . S
C2411 C2412 1.376 . S
C2412 H2399 0.930 . S
C2412 C2411 1.376 . S
C2412 C2413 1.388 . S
C2413 H2400 0.930 . S
C2413 C2412 1.388 . S
C2413 C2414 1.390 . S
C2414 C2413 1.390 . S
C2414 C2415 1.394 . S
C2414 C2420 1.465 . S
C2415 C2410 1.399 . S
C2415 C2414 1.394 . S
C2415 C2416 1.516 . S
C2416 C2415 1.516 . S
C2416 C2417 1.502 . S
C2416 C2418 1.561 . S
C2416 C2419 1.526 . S
C2417 H2401 0.959 . S
C2417 H2402 0.959 . S
C2417 H2403 0.961 . S
C2417 C2416 1.502 . S
C2418 H2404 0.960 . S
C2418 H2405 0.961 . S
C2418 H2406 0.959 . S
C2418 C2416 1.561 . S
C2419 C2416 1.526 . S
C2419 C2420 1.396 . S
C2419 C2424 1.390 . S
C2420 C2414 1.465 . S
C2420 C2419 1.396 . S
C2420 C2421 1.399 . S
C2421 H2407 0.929 . S
C2421 C2420 1.399 . S
C2421 C2422 1.385 . S
C2422 H2408 0.931 . S
C2422 C2421 1.385 . S
C2422 C2423 1.389 . S
C2423 C2422 1.389 . S
C2423 C2424 1.387 . S
C2424 H2409 0.930 . S
C2424 C2419 1.390 . S
C2424 C2423 1.387 . S
H2425 C2437 0.930 . S
H2426 C2439 0.930 . S
H2427 C2440 0.930 . S
H2428 C2444 0.959 . S
H2429 C2444 0.959 . S
H2430 C2444 0.961 . S
H2431 C2445 0.960 . S
H2432 C2445 0.961 . S
H2433 C2445 0.959 . S
H2434 C2448 0.929 . S
H2435 C2449 0.931 . S
H2436 C2451 0.930 . S
C2437 H2425 0.930 . S
C2437 C2438 1.399 . S
C2437 C2442 1.399 . S
C2438 C2437 1.399 . S
C2438 C2439 1.376 . S
C2439 H2426 0.930 . S
C2439 C2438 1.376 . S
C2439 C2440 1.388 . S
C2440 H2427 0.930 . S
C2440 C2439 1.388 . S
C2440 C2441 1.390 . S
C2441 C2440 1.390 . S
C2441 C2442 1.394 . S
C2441 C2447 1.465 . S
C2442 C2437 1.399 . S
C2442 C2441 1.394 . S
C2442 C2443 1.516 . S
C2443 C2442 1.516 . S
C2443 C2444 1.502 . S
C2443 C2445 1.561 . S
C2443 C2446 1.526 . S
C2444 H2428 0.959 . S
C2444 H2429 0.959 . S
C2444 H2430 0.961 . S
C2444 C2443 1.502 . S
C2445 H2431 0.960 . S
C2445 H2432 0.961 . S
C2445 H2433 0.959 . S
C2445 C2443 1.561 . S
C2446 C2443 1.526 . S
C2446 C2447 1.396 . S
C2446 C2451 1.390 . S
C2447 C2441 1.465 . S
C2447 C2446 1.396 . S
C2447 C2448 1.399 . S
C2448 H2434 0.929 . S
C2448 C2447 1.399 . S
C2448 C2449 1.385 . S
C2449 H2435 0.931 . S
C2449 C2448 1.385 . S
C2449 C2450 1.389 . S
C2450 C2449 1.389 . S
C2450 C2451 1.387 . S
C2451 H2436 0.930 . S
C2451 C2446 1.390 . S
C2451 C2450 1.387 . S
H2452 C2464 0.930 1_554 S
H2453 C2466 0.930 . S
H2454 C2467 0.930 . S
H2455 C2471 0.959 . S
H2456 C2471 0.959 . S
H2457 C2471 0.961 . S
H2458 C2472 0.960 . S
H2459 C2472 0.961 . S
H2460 C2472 0.959 . S
H2461 C2475 0.929 . S
H2462 C2476 0.931 . S
H2463 C2478 0.930 1_554 S
C2464 H2452 0.930 1_556 S
C2464 C2465 1.399 . S
C2464 C2469 1.399 . S
C2465 C2464 1.399 . S
C2465 C2466 1.376 . S
C2466 H2453 0.930 . S
C2466 C2465 1.376 . S
C2466 C2467 1.388 . S
C2467 H2454 0.930 . S
C2467 C2466 1.388 . S
C2467 C2468 1.390 . S
C2468 C2467 1.390 . S
C2468 C2469 1.394 . S
C2468 C2474 1.465 . S
C2469 C2464 1.399 . S
C2469 C2468 1.394 . S
C2469 C2470 1.516 1_556 S
C2470 C2469 1.516 1_554 S
C2470 C2471 1.502 . S
C2470 C2472 1.561 . S
C2470 C2473 1.526 1_554 S
C2471 H2455 0.959 . S
C2471 H2456 0.959 . S
C2471 H2457 0.961 . S
C2471 C2470 1.502 . S
C2472 H2458 0.960 . S
C2472 H2459 0.961 . S
C2472 H2460 0.959 . S
C2472 C2470 1.561 . S
C2473 C2470 1.526 1_556 S
C2473 C2474 1.396 . S
C2473 C2478 1.390 . S
C2474 C2468 1.465 . S
C2474 C2473 1.396 . S
C2474 C2475 1.399 . S
C2475 H2461 0.929 . S
C2475 C2474 1.399 . S
C2475 C2476 1.385 . S
C2476 H2462 0.931 . S
C2476 C2475 1.385 . S
C2476 C2477 1.389 . S
C2477 C2476 1.389 . S
C2477 C2478 1.387 . S
C2478 H2463 0.930 1_556 S
C2478 C2473 1.390 . S
C2478 C2477 1.387 . S
H2479 C2491 0.930 . S
H2480 C2493 0.930 . S
H2481 C2494 0.930 . S
H2482 C2498 0.959 . S
H2483 C2498 0.959 . S
H2484 C2498 0.961 . S
H2485 C2499 0.960 . S
H2486 C2499 0.961 . S
H2487 C2499 0.959 . S
H2488 C2502 0.929 . S
H2489 C2503 0.931 . S
H2490 C2505 0.930 . S
C2491 H2479 0.930 . S
C2491 C2492 1.399 . S
C2491 C2496 1.399 . S
C2492 C2491 1.399 . S
C2492 C2493 1.376 . S
C2493 H2480 0.930 . S
C2493 C2492 1.376 . S
C2493 C2494 1.388 . S
C2494 H2481 0.930 . S
C2494 C2493 1.388 . S
C2494 C2495 1.390 . S
C2495 C2494 1.390 . S
C2495 C2496 1.394 . S
C2495 C2501 1.465 . S
C2496 C2491 1.399 . S
C2496 C2495 1.394 . S
C2496 C2497 1.516 . S
C2497 C2496 1.516 . S
C2497 C2498 1.502 . S
C2497 C2499 1.561 . S
C2497 C2500 1.526 . S
C2498 H2482 0.959 . S
C2498 H2483 0.959 . S
C2498 H2484 0.961 . S
C2498 C2497 1.502 . S
C2499 H2485 0.960 . S
C2499 H2486 0.961 . S
C2499 H2487 0.959 . S
C2499 C2497 1.561 . S
C2500 C2497 1.526 . S
C2500 C2501 1.396 . S
C2500 C2505 1.390 . S
C2501 C2495 1.465 . S
C2501 C2500 1.396 . S
C2501 C2502 1.399 . S
C2502 H2488 0.929 . S
C2502 C2501 1.399 . S
C2502 C2503 1.385 . S
C2503 H2489 0.931 . S
C2503 C2502 1.385 . S
C2503 C2504 1.389 . S
C2504 C2503 1.389 . S
C2504 C2505 1.387 . S
C2505 H2490 0.930 . S
C2505 C2500 1.390 . S
C2505 C2504 1.387 . S
H2506 C2518 0.930 . S
H2507 C2520 0.930 . S
H2508 C2521 0.930 . S
H2509 C2525 0.959 . S
H2510 C2525 0.959 . S
H2511 C2525 0.961 . S
H2512 C2526 0.960 . S
H2513 C2526 0.961 . S
H2514 C2526 0.959 . S
H2515 C2529 0.929 . S
H2516 C2530 0.929 . S
H2517 C2532 0.930 . S
C2518 H2506 0.930 . S
C2518 C2519 1.399 . S
C2518 C2523 1.399 . S
C2519 C2518 1.399 . S
C2519 C2520 1.376 . S
C2520 H2507 0.930 . S
C2520 C2519 1.376 . S
C2520 C2521 1.388 . S
C2521 H2508 0.930 . S
C2521 C2520 1.388 . S
C2521 C2522 1.390 . S
C2522 C2521 1.390 . S
C2522 C2523 1.394 . S
C2522 C2528 1.465 . S
C2523 C2518 1.399 . S
C2523 C2522 1.394 . S
C2523 C2524 1.516 . S
C2524 C2523 1.516 . S
C2524 C2525 1.502 . S
C2524 C2526 1.561 . S
C2524 C2527 1.526 . S
C2525 H2509 0.959 . S
C2525 H2510 0.959 . S
C2525 H2511 0.961 . S
C2525 C2524 1.502 . S
C2526 H2512 0.960 . S
C2526 H2513 0.961 . S
C2526 H2514 0.959 . S
C2526 C2524 1.561 . S
C2527 C2524 1.526 . S
C2527 C2528 1.396 . S
C2527 C2532 1.390 . S
C2528 C2522 1.465 . S
C2528 C2527 1.396 . S
C2528 C2529 1.399 . S
C2529 H2515 0.929 . S
C2529 C2528 1.399 . S
C2529 C2530 1.385 . S
C2530 H2516 0.929 . S
C2530 C2529 1.385 . S
C2530 C2531 1.389 . S
C2531 C2530 1.389 . S
C2531 C2532 1.387 . S
C2532 H2517 0.930 . S
C2532 C2527 1.390 . S
C2532 C2531 1.387 . S
H2533 C2545 0.930 1_545 S
H2534 C2547 0.930 . S
H2535 C2548 0.930 . S
H2536 C2552 0.959 . S
H2537 C2552 0.959 . S
H2538 C2552 0.961 . S
H2539 C2553 0.960 . S
H2540 C2553 0.961 . S
H2541 C2553 0.959 . S
H2542 C2556 0.929 . S
H2543 C2557 0.931 . S
H2544 C2559 0.930 . S
C2545 H2533 0.930 1_565 S
C2545 C2546 1.399 . S
C2545 C2550 1.399 . S
C2546 C2545 1.399 . S
C2546 C2547 1.376 . S
C2547 H2534 0.930 . S
C2547 C2546 1.376 . S
C2547 C2548 1.388 . S
C2548 H2535 0.930 . S
C2548 C2547 1.388 . S
C2548 C2549 1.390 . S
C2549 C2548 1.390 . S
C2549 C2550 1.394 . S
C2549 C2555 1.465 . S
C2550 C2545 1.399 . S
C2550 C2549 1.394 . S
C2550 C2551 1.516 . S
C2551 C2550 1.516 . S
C2551 C2552 1.502 1_554 S
C2551 C2553 1.561 1_565 S
C2551 C2554 1.526 . S
C2552 H2536 0.959 . S
C2552 H2537 0.959 . S
C2552 H2538 0.961 . S
C2552 C2551 1.502 1_556 S
C2553 H2539 0.960 . S
C2553 H2540 0.961 . S
C2553 H2541 0.959 . S
C2553 C2551 1.561 1_545 S
C2554 C2551 1.526 . S
C2554 C2555 1.396 . S
C2554 C2559 1.390 . S
C2555 C2549 1.465 . S
C2555 C2554 1.396 . S
C2555 C2556 1.399 . S
C2556 H2542 0.929 . S
C2556 C2555 1.399 . S
C2556 C2557 1.385 . S
C2557 H2543 0.931 . S
C2557 C2556 1.385 . S
C2557 C2558 1.389 . S
C2558 C2557 1.389 . S
C2558 C2559 1.387 . S
C2559 H2544 0.930 . S
C2559 C2554 1.390 . S
C2559 C2558 1.387 . S
C1289 C257 1.233 . S
C1277 N66 1.236 . S
C1316 C316 1.581 . S
C1304 N79 1.556 . S
C1331 N92 1.815 . S
C1343 C433 1.846 . S
C1370 C501 1.353 . S
C1358 N54 1.337 . S
C1397 C580 1.552 . S
C1385 N131 1.539 . S
C1424 C705 1.148 . S
C1412 N158 1.156 . S
C1439 N145 1.542 . S
C1451 C765 1.537 . S
C1478 C873 1.826 . S
C1466 N118 1.802 . S
C1493 N148 2.042 . S
C1505 C969 2.039 . S
C1532 C1029 1.619 . S
C1520 N122 1.589 . S
C1547 N132 1.215 . S
C1559 C932 1.231 . S
C1586 C1049 1.503 . S
C1574 N161 1.434 . S
C1601 N96 1.894 . S
C1613 C1117 1.961 . S
C1628 N53 1.753 . S
C1640 C1108 1.790 . S
C1655 N67 1.016 . S
C1667 C1137 0.987 . S
C1682 N83 1.278 . S
C1694 C1145 1.309 1_655 S
C1709 N44 1.462 . S
C1721 C529 1.452 . S
C1736 N187 1.505 . S
C1748 C492 1.520 . S
C1775 C228 1.144 . S
C1763 N197 1.136 . S
C1802 C325 1.237 . S
C1790 N106 1.248 . S
C1817 N57 1.883 1_545 S
C1829 C589 1.880 . S
C1856 C881 1.428 . S
C1844 N144 1.431 . S
C1883 C609 1.343 . S
C1871 N119 1.372 1_545 S
C1910 C793 1.853 . S
C1898 N157 1.842 . S
C1937 C785 1.234 . S
C1925 N183 1.241 . S
C1952 N196 1.556 . S
C1964 C853 1.581 . S
C1979 N105 1.827 . S
C1991 C617 1.847 . S
C2018 C668 1.332 . S
C2006 N171 1.351 . S
C2033 N40 1.543 . S
C2045 C413 1.556 . S
C2072 C521 1.143 . S
C2060 N2 1.124 1_655 S
C2099 C237 1.538 . S
C2087 N15 1.538 . S
C2126 C353 1.827 . S
C2114 N27 1.810 1_455 S
C2141 N18 2.022 . S
C2153 C1057 2.015 . S
C2168 N31 1.621 . S
C2180 C941 1.634 . S
C2195 N41 1.230 . S
C2207 C1020 1.209 . S
C2222 N5 1.436 . S
C2234 C961 1.497 . S
C2261 C1205 1.964 . S
C2249 N109 1.894 . S
C2288 C1196 1.788 . S
C2276 N170 1.751 . S
C2315 C1225 1.007 . S
C2303 N184 0.985 . S
C2330 N200 1.278 . S
C2342 C1233 1.309 . S
C2357 N135 1.409 . S
C2369 C697 1.460 . S
C2396 C677 1.543 . S
C2384 N70 1.539 . S
C2423 C756 1.122 . S
C2411 N80 1.142 . S
C2450 C844 1.240 . S
C2438 N93 1.249 . S
C2465 N174 1.855 . S
C2477 C404 1.902 . S
C2504 C345 1.420 . S
C2492 N14 1.380 . S
C2519 N28 1.366 . S
C2531 C441 1.366 . S
C2558 C265 1.854 . S
C2546 N1 1.790 1_565 S
