# Generated by pormake.
# Topology ptr, (4,4)-cn, num edge types: 1
# Building blocks:
#     Node 0, Type 0, BuildingBlock: KUFVIS_clean_sbu_0, # of connection points: 4
#     Node 1, Type 0, BuildingBlock: KUFVIS_clean_sbu_0, # of connection points: 4
#     Node 2, Type 0, BuildingBlock: KUFVIS_clean_sbu_0, # of connection points: 4
#     Node 3, Type 0, BuildingBlock: KUFVIS_clean_sbu_0, # of connection points: 4
#     Node 4, Type 0, BuildingBlock: KUFVIS_clean_sbu_0, # of connection points: 4
#     Node 5, Type 0, BuildingBlock: KUFVIS_clean_sbu_0, # of connection points: 4
#     Node 6, Type 0, BuildingBlock: KUFVIS_clean_sbu_0, # of connection points: 4
#     Node 7, Type 0, BuildingBlock: KUFVIS_clean_sbu_0, # of connection points: 4
#     Node 8, Type 0, BuildingBlock: KUFVIS_clean_sbu_0, # of connection points: 4
#     Node 9, Type 0, BuildingBlock: KUFVIS_clean_sbu_0, # of connection points: 4
#     Node 10, Type 0, BuildingBlock: KUFVIS_clean_sbu_0, # of connection points: 4
#     Node 11, Type 0, BuildingBlock: KUFVIS_clean_sbu_0, # of connection points: 4
#     Node 12, Type 0, BuildingBlock: KUFVIS_clean_sbu_0, # of connection points: 4
#     Node 13, Type 0, BuildingBlock: KUFVIS_clean_sbu_0, # of connection points: 4
#     Node 14, Type 0, BuildingBlock: KUFVIS_clean_sbu_0, # of connection points: 4
#     Node 15, Type 0, BuildingBlock: KUFVIS_clean_sbu_0, # of connection points: 4
#     Node 16, Type 0, BuildingBlock: KUFVIS_clean_sbu_0, # of connection points: 4
#     Node 17, Type 0, BuildingBlock: KUFVIS_clean_sbu_0, # of connection points: 4
#     Node 18, Type 1, BuildingBlock: MIFKUJ_clean_linker_1, # of connection points: 4
#     Node 19, Type 1, BuildingBlock: MIFKUJ_clean_linker_1, # of connection points: 4
#     Node 20, Type 1, BuildingBlock: MIFKUJ_clean_linker_1, # of connection points: 4
#     Node 21, Type 1, BuildingBlock: MIFKUJ_clean_linker_1, # of connection points: 4
#     Node 22, Type 1, BuildingBlock: MIFKUJ_clean_linker_1, # of connection points: 4
#     Node 23, Type 1, BuildingBlock: MIFKUJ_clean_linker_1, # of connection points: 4
#     Node 24, Type 1, BuildingBlock: MIFKUJ_clean_linker_1, # of connection points: 4
#     Node 25, Type 1, BuildingBlock: MIFKUJ_clean_linker_1, # of connection points: 4
#     Node 26, Type 1, BuildingBlock: MIFKUJ_clean_linker_1, # of connection points: 4
#     Node 27, Type 1, BuildingBlock: MIFKUJ_clean_linker_1, # of connection points: 4
#     Node 28, Type 1, BuildingBlock: MIFKUJ_clean_linker_1, # of connection points: 4
#     Node 29, Type 1, BuildingBlock: MIFKUJ_clean_linker_1, # of connection points: 4
#     Node 30, Type 1, BuildingBlock: MIFKUJ_clean_linker_1, # of connection points: 4
#     Node 31, Type 1, BuildingBlock: MIFKUJ_clean_linker_1, # of connection points: 4
#     Node 32, Type 1, BuildingBlock: MIFKUJ_clean_linker_1, # of connection points: 4
#     Node 33, Type 1, BuildingBlock: MIFKUJ_clean_linker_1, # of connection points: 4
#     Node 34, Type 1, BuildingBlock: MIFKUJ_clean_linker_1, # of connection points: 4
#     Node 35, Type 1, BuildingBlock: MIFKUJ_clean_linker_1, # of connection points: 4
#     Edge 36, Type (0, 1), BuildingBlock: AJUNOK_clean_linker_0, # of connection points: 2
#     Edge 37, Type (0, 1), BuildingBlock: AJUNOK_clean_linker_0, # of connection points: 2
#     Edge 38, Type (0, 1), BuildingBlock: AJUNOK_clean_linker_0, # of connection points: 2
#     Edge 39, Type (0, 1), BuildingBlock: AJUNOK_clean_linker_0, # of connection points: 2
#     Edge 40, Type (0, 1), BuildingBlock: AJUNOK_clean_linker_0, # of connection points: 2
#     Edge 41, Type (0, 1), BuildingBlock: AJUNOK_clean_linker_0, # of connection points: 2
#     Edge 42, Type (0, 1), BuildingBlock: AJUNOK_clean_linker_0, # of connection points: 2
#     Edge 43, Type (0, 1), BuildingBlock: AJUNOK_clean_linker_0, # of connection points: 2
#     Edge 44, Type (0, 1), BuildingBlock: AJUNOK_clean_linker_0, # of connection points: 2
#     Edge 45, Type (0, 1), BuildingBlock: AJUNOK_clean_linker_0, # of connection points: 2
#     Edge 46, Type (0, 1), BuildingBlock: AJUNOK_clean_linker_0, # of connection points: 2
#     Edge 47, Type (0, 1), BuildingBlock: AJUNOK_clean_linker_0, # of connection points: 2
#     Edge 48, Type (0, 1), BuildingBlock: AJUNOK_clean_linker_0, # of connection points: 2
#     Edge 49, Type (0, 1), BuildingBlock: AJUNOK_clean_linker_0, # of connection points: 2
#     Edge 50, Type (0, 1), BuildingBlock: AJUNOK_clean_linker_0, # of connection points: 2
#     Edge 51, Type (0, 1), BuildingBlock: AJUNOK_clean_linker_0, # of connection points: 2
#     Edge 52, Type (0, 1), BuildingBlock: AJUNOK_clean_linker_0, # of connection points: 2
#     Edge 53, Type (0, 1), BuildingBlock: AJUNOK_clean_linker_0, # of connection points: 2
#     Edge 54, Type (0, 1), BuildingBlock: AJUNOK_clean_linker_0, # of connection points: 2
#     Edge 55, Type (0, 1), BuildingBlock: AJUNOK_clean_linker_0, # of connection points: 2
#     Edge 56, Type (0, 1), BuildingBlock: AJUNOK_clean_linker_0, # of connection points: 2
#     Edge 57, Type (0, 1), BuildingBlock: AJUNOK_clean_linker_0, # of connection points: 2
#     Edge 58, Type (0, 1), BuildingBlock: AJUNOK_clean_linker_0, # of connection points: 2
#     Edge 59, Type (0, 1), BuildingBlock: AJUNOK_clean_linker_0, # of connection points: 2
#     Edge 60, Type (0, 1), BuildingBlock: AJUNOK_clean_linker_0, # of connection points: 2
#     Edge 61, Type (0, 1), BuildingBlock: AJUNOK_clean_linker_0, # of connection points: 2
#     Edge 62, Type (0, 1), BuildingBlock: AJUNOK_clean_linker_0, # of connection points: 2
#     Edge 63, Type (0, 1), BuildingBlock: AJUNOK_clean_linker_0, # of connection points: 2
#     Edge 64, Type (0, 1), BuildingBlock: AJUNOK_clean_linker_0, # of connection points: 2
#     Edge 65, Type (0, 1), BuildingBlock: AJUNOK_clean_linker_0, # of connection points: 2
#     Edge 66, Type (0, 1), BuildingBlock: AJUNOK_clean_linker_0, # of connection points: 2
#     Edge 67, Type (0, 1), BuildingBlock: AJUNOK_clean_linker_0, # of connection points: 2
#     Edge 68, Type (0, 1), BuildingBlock: AJUNOK_clean_linker_0, # of connection points: 2
#     Edge 69, Type (0, 1), BuildingBlock: AJUNOK_clean_linker_0, # of connection points: 2
#     Edge 70, Type (0, 1), BuildingBlock: AJUNOK_clean_linker_0, # of connection points: 2
#     Edge 71, Type (0, 1), BuildingBlock: AJUNOK_clean_linker_0, # of connection points: 2
#     Edge 72, Type (0, 1), BuildingBlock: AJUNOK_clean_linker_0, # of connection points: 2
#     Edge 73, Type (0, 1), BuildingBlock: AJUNOK_clean_linker_0, # of connection points: 2
#     Edge 74, Type (0, 1), BuildingBlock: AJUNOK_clean_linker_0, # of connection points: 2
#     Edge 75, Type (0, 1), BuildingBlock: AJUNOK_clean_linker_0, # of connection points: 2
#     Edge 76, Type (0, 1), BuildingBlock: AJUNOK_clean_linker_0, # of connection points: 2
#     Edge 77, Type (0, 1), BuildingBlock: AJUNOK_clean_linker_0, # of connection points: 2
#     Edge 78, Type (0, 1), BuildingBlock: AJUNOK_clean_linker_0, # of connection points: 2
#     Edge 79, Type (0, 1), BuildingBlock: AJUNOK_clean_linker_0, # of connection points: 2
#     Edge 80, Type (0, 1), BuildingBlock: AJUNOK_clean_linker_0, # of connection points: 2
#     Edge 81, Type (0, 1), BuildingBlock: AJUNOK_clean_linker_0, # of connection points: 2
#     Edge 82, Type (0, 1), BuildingBlock: AJUNOK_clean_linker_0, # of connection points: 2
#     Edge 83, Type (0, 1), BuildingBlock: AJUNOK_clean_linker_0, # of connection points: 2
#     Edge 84, Type (0, 1), BuildingBlock: AJUNOK_clean_linker_0, # of connection points: 2
#     Edge 85, Type (0, 1), BuildingBlock: AJUNOK_clean_linker_0, # of connection points: 2
#     Edge 86, Type (0, 1), BuildingBlock: AJUNOK_clean_linker_0, # of connection points: 2
#     Edge 87, Type (0, 1), BuildingBlock: AJUNOK_clean_linker_0, # of connection points: 2
#     Edge 88, Type (0, 1), BuildingBlock: AJUNOK_clean_linker_0, # of connection points: 2
#     Edge 89, Type (0, 1), BuildingBlock: AJUNOK_clean_linker_0, # of connection points: 2
#     Edge 90, Type (0, 1), BuildingBlock: AJUNOK_clean_linker_0, # of connection points: 2
#     Edge 91, Type (0, 1), BuildingBlock: AJUNOK_clean_linker_0, # of connection points: 2
#     Edge 92, Type (0, 1), BuildingBlock: AJUNOK_clean_linker_0, # of connection points: 2
#     Edge 93, Type (0, 1), BuildingBlock: AJUNOK_clean_linker_0, # of connection points: 2
#     Edge 94, Type (0, 1), BuildingBlock: AJUNOK_clean_linker_0, # of connection points: 2
#     Edge 95, Type (0, 1), BuildingBlock: AJUNOK_clean_linker_0, # of connection points: 2
#     Edge 96, Type (0, 1), BuildingBlock: AJUNOK_clean_linker_0, # of connection points: 2
#     Edge 97, Type (0, 1), BuildingBlock: AJUNOK_clean_linker_0, # of connection points: 2
#     Edge 98, Type (0, 1), BuildingBlock: AJUNOK_clean_linker_0, # of connection points: 2
#     Edge 99, Type (0, 1), BuildingBlock: AJUNOK_clean_linker_0, # of connection points: 2
#     Edge 100, Type (0, 1), BuildingBlock: AJUNOK_clean_linker_0, # of connection points: 2
#     Edge 101, Type (0, 1), BuildingBlock: AJUNOK_clean_linker_0, # of connection points: 2
#     Edge 102, Type (0, 1), BuildingBlock: AJUNOK_clean_linker_0, # of connection points: 2
#     Edge 103, Type (0, 1), BuildingBlock: AJUNOK_clean_linker_0, # of connection points: 2
#     Edge 104, Type (0, 1), BuildingBlock: AJUNOK_clean_linker_0, # of connection points: 2
#     Edge 105, Type (0, 1), BuildingBlock: AJUNOK_clean_linker_0, # of connection points: 2
#     Edge 106, Type (0, 1), BuildingBlock: AJUNOK_clean_linker_0, # of connection points: 2
#     Edge 107, Type (0, 1), BuildingBlock: AJUNOK_clean_linker_0, # of connection points: 2
# Relax obj value: 0.041
# Max RMSD: 0.154
# Mean RMSD: 0.069
data_MOF--net-ptr--node1-KUFVIS_clean_sbu_0--node2-MIFKUJ_clean_linker_1--edge1-AJUNOK_clean_linker_0
_symmetry_space_group_name_H-M    P1
_symmetry_Int_Tables_number       1
_symmetry_cell_setting            triclinic
loop_
_symmetry_equiv_pos_as_xyz
'x, y, z'
_cell_length_a     69.683012
_cell_length_b     69.369402
_cell_length_c     48.193187
_cell_angle_alpha  89.759915
_cell_angle_beta   90.53004
_cell_angle_gamma 119.46998
loop_
_atom_site_label
_atom_site_type_symbol
_atom_site_fract_x
_atom_site_fract_y
_atom_site_fract_z
_atom_type_partial_charge
Mn0 Mn 0.9994 0.35445 0.00568 0.0
Mn1 Mn 0.04935 0.40056 1.00398 0.0
C2 C 0.0059 0.38204 0.97388 0.0
C3 C 0.97587 0.31813 0.99185 0.0
C4 C 0.01497 0.39179 0.04783 0.0
O5 O 0.01892 0.34591 0.02867 0.0
O6 O 0.05212 0.37585 0.02075 0.0
C7 C 0.07072 0.38544 0.96333 0.0
N8 N 0.06487 0.40059 0.9715 0.0
C9 C 0.08228 0.42346 0.93174 0.0
C10 C 0.08886 0.40831 0.92316 0.0
C11 C 0.08291 0.38913 0.93893 0.0
C12 C 0.07011 0.41885 0.95619 0.0
H13 H 0.066 0.37061 0.97527 0.0
C14 C 0.03994 0.35643 0.03064 0.0
O15 O 0.97231 0.32608 0.01434 0.0
O16 O 0.99347 0.33093 0.97793 0.0
N17 N 0.04941 0.42591 0.98803 0.0
C18 C 0.04067 0.43818 0.99828 0.0
C19 C 0.04435 0.4575 0.98432 0.0
C20 C 0.0573 0.46423 0.96029 0.0
C21 C 0.06637 0.45151 0.95035 0.0
C22 C 0.06209 0.43238 0.96509 0.0
H23 H 0.03091 0.43323 0.01689 0.0
O24 O 0.98593 0.3673 0.98016 0.0
O25 O 0.02155 0.37979 0.98568 0.0
O26 O 0.99948 0.37406 0.0373 0.0
O27 O 0.03441 0.40237 0.03791 0.0
C28 C 0.07932 0.45692 0.92625 0.0
C29 C 0.0871 0.4428 0.91681 0.0
H30 H 0.09825 0.4111 0.90434 0.0
H31 H 0.0877 0.37723 0.93229 0.0
H32 H 0.03728 0.46722 0.99212 0.0
H33 H 0.06008 0.47913 0.9496 0.0
H34 H 0.08323 0.47178 0.91463 0.0
H35 H 0.09666 0.44692 0.89795 0.0
Mn36 Mn 0.65027 0.6506 0.02222 0.0
Mn37 Mn 0.65248 0.60298 0.02322 0.0
C38 C 0.62832 0.62266 0.05279 0.0
C39 C 0.66331 0.68692 0.03708 0.0
C40 C 0.62752 0.61356 0.97914 0.0
O41 O 0.67831 0.65868 1.00061 0.0
O42 O 0.67963 0.62699 0.00582 0.0
C43 C 0.6896 0.61661 0.06291 0.0
N44 N 0.66839 0.60229 0.05537 0.0
C45 C 0.66333 0.5794 0.0953 0.0
C46 C 0.68519 0.59381 0.10339 0.0
C47 C 0.69836 0.61255 0.08717 0.0
C48 C 0.6555 0.58436 0.07097 0.0
H49 H 0.69972 0.63099 0.0505 0.0
C50 C 0.68764 0.64698 0.99731 0.0
O51 O 0.65233 0.67974 0.01401 0.0
O52 O 0.66743 0.67334 0.05107 0.0
N53 N 0.62756 0.57814 0.03941 0.0
C54 C 0.60658 0.56637 0.0293 0.0
C55 C 0.59114 0.54735 0.04345 0.0
C56 C 0.59752 0.5404 0.06751 0.0
C57 C 0.61929 0.55258 0.07728 0.0
C58 C 0.63395 0.57141 0.06234 0.0
H59 H 0.60161 0.57151 0.01069 0.0
O60 O 0.62377 0.63812 0.0463 0.0
O61 O 0.64614 0.62433 0.04191 0.0
O62 O 0.63133 0.6321 0.98927 0.0
O63 O 0.63525 0.60186 0.98984 0.0
C64 C 0.62699 0.54693 0.10142 0.0
C65 C 0.64894 0.56041 0.11054 0.0
H66 H 0.692 0.59071 0.12208 0.0
H67 H 0.71522 0.62382 0.09334 0.0
H68 H 0.57436 0.53805 0.03578 0.0
H69 H 0.58554 0.52574 0.07836 0.0
H70 H 0.61613 0.53235 0.11329 0.0
H71 H 0.65456 0.55607 0.12935 0.0
Mn72 Mn 0.35118 0.99888 0.02244 0.0
Mn73 Mn 0.39841 0.04774 0.02497 0.0
C74 C 0.37971 0.00284 0.05118 0.0
C75 C 0.31557 0.97635 0.03987 0.0
C76 C 0.38612 0.01484 0.9774 0.0
O77 O 0.34312 0.02039 1.00322 0.0
O78 O 0.37388 0.0528 0.01254 0.0
C79 C 0.38704 0.06758 0.07185 0.0
N80 N 0.40106 0.06172 0.05997 0.0
C81 C 0.42561 0.0751 0.0994 0.0
C82 C 0.41177 0.08194 0.11166 0.0
C83 C 0.3923 0.07799 0.09791 0.0
C84 C 0.41952 0.06488 0.07336 0.0
H85 H 0.37182 0.06402 0.06166 0.0
C86 C 0.35416 0.04156 1.00301 0.0
O87 O 0.32109 0.97283 0.01548 0.0
O88 O 0.33032 0.99355 0.0531 0.0
N89 N 0.42362 0.04556 0.03665 0.0
C90 C 0.43457 0.03691 0.0227 0.0
C91 C 0.45393 0.03859 0.0342 0.0
C92 C 0.46199 0.04937 0.05974 0.0
C93 C 0.4507 0.05854 0.07345 0.0
C94 C 0.43157 0.05648 0.06089 0.0
H95 H 0.42857 0.02869 1.00299 0.0
O96 O 0.36406 0.98331 0.0443 0.0
O97 O 0.37785 0.01938 0.04164 0.0
O98 O 0.36859 0.99917 0.98804 0.0
O99 O 0.39735 0.03395 0.98864 0.0
C100 C 0.45755 0.06944 0.09921 0.0
C101 C 0.44493 0.07759 0.11228 0.0
H102 H 0.41572 0.08986 0.13183 0.0
H103 H 0.3813 0.08281 0.10746 0.0
H104 H 0.46259 0.03154 0.02343 0.0
H105 H 0.47681 0.05046 0.06867 0.0
H106 H 0.47231 0.07133 0.10938 0.0
H107 H 0.45012 0.08551 0.13238 0.0
Mn108 Mn 0.00467 0.65176 1.00052 0.0
Mn109 Mn 0.05288 0.65147 0.99673 0.0
C110 C 0.00825 0.6281 0.96969 0.0
C111 C 0.98173 0.66587 0.98655 0.0
C112 C 0.01984 0.62904 0.04311 0.0
O113 O 0.02624 0.68027 0.02085 0.0
O114 O 0.05785 0.6797 0.0136 0.0
C115 C 0.07372 0.68684 0.95458 0.0
N116 N 0.06788 0.66607 0.96358 0.0
C117 C 0.08478 0.65952 0.92415 0.0
C118 C 0.09185 0.68121 0.91507 0.0
C119 C 0.08601 0.69482 0.93015 0.0
C120 C 0.0725 0.65249 0.94857 0.0
H121 H 0.06874 0.69705 0.96576 0.0
C122 C 0.04716 0.68891 0.02288 0.0
O123 O 0.9791 0.65583 0.01016 0.0
O124 O 0.99826 0.6685 0.97164 0.0
N125 N 0.05122 0.62545 0.98082 0.0
C126 C 0.04206 0.60462 0.99158 0.0
C127 C 0.04498 0.58841 0.97791 0.0
C128 C 0.05771 0.59392 0.95372 0.0
C129 C 0.06735 0.61559 0.94336 0.0
C130 C 0.06371 0.63097 0.95773 0.0
H131 H 0.03255 0.60038 0.01041 0.0
O132 O 0.98893 0.62434 0.97737 0.0
O133 O 0.02494 0.64587 0.97977 0.0
O134 O 0.00525 0.63346 0.03372 0.0
O135 O 0.03835 0.6355 0.03121 0.0
C136 C 0.08046 0.62256 0.91934 0.0
C137 C 0.089 0.64444 0.9096 0.0
H138 H 0.10129 0.68739 0.89621 0.0
H139 H 0.09089 0.71138 0.92291 0.0
H140 H 0.03757 0.57175 0.98611 0.0
H141 H 0.05997 0.58139 0.94329 0.0
H142 H 0.08394 0.61118 0.90805 0.0
H143 H 0.09861 0.64944 0.89077 0.0
Mn144 Mn 0.35093 0.35664 0.02217 0.0
Mn145 Mn 0.39988 0.35737 0.02162 0.0
C146 C 0.37874 0.37886 0.05315 0.0
C147 C 0.31482 0.3431 0.03816 0.0
C148 C 0.38825 0.38294 0.98059 0.0
O149 O 0.34327 0.32859 1.00001 0.0
O150 O 0.37714 0.33209 0.99975 0.0
C151 C 0.38558 0.31628 0.05413 0.0
N152 N 0.39966 0.33831 0.05051 0.0
C153 C 0.42135 0.33945 0.09024 0.0
C154 C 0.40714 0.31674 0.09434 0.0
C155 C 0.38911 0.30514 0.07628 0.0
C156 C 0.41685 0.34971 0.06801 0.0
H157 H 0.3718 0.30727 0.04018 0.0
C158 C 0.3568 0.32222 0.99248 0.0
O159 O 0.32133 0.35377 0.01487 0.0
O160 O 0.32892 0.33929 0.05137 0.0
N161 N 0.42377 0.38066 0.04175 0.0
C162 C 0.43607 0.40243 0.03473 0.0
C163 C 0.45461 0.41643 0.05088 0.0
C164 C 0.46062 0.4078 0.07366 0.0
C165 C 0.44805 0.38522 0.08006 0.0
C166 C 0.42971 0.3721 0.06326 0.0
H167 H 0.43173 0.40908 0.01699 0.0
O168 O 0.3632 0.38323 0.04669 0.0
O169 O 0.37761 0.36139 0.04156 0.0
O170 O 0.36856 0.37595 0.98892 0.0
O171 O 0.40169 0.37768 0.99182 0.0
C172 C 0.45307 0.37519 0.10234 0.0
C173 C 0.43968 0.35234 0.1075 0.0
H174 H 0.40985 0.30808 0.11134 0.0
H175 H 0.37803 0.28763 0.07935 0.0
H176 H 0.46432 0.4338 0.04569 0.0
H177 H 0.47501 0.41864 0.08595 0.0
H178 H 0.46718 0.38489 0.11566 0.0
H179 H 0.4436 0.34486 0.12484 0.0
Mn180 Mn 0.65382 0.00868 0.00697 0.0
Mn181 Mn 0.60494 0.96147 1.00173 0.0
C182 C 0.62731 0.00657 0.9762 0.0
C183 C 0.69033 0.03068 0.99284 0.0
C184 C 0.61589 0.99455 0.04842 0.0
O185 O 0.66023 0.9862 0.02609 0.0
O186 O 0.62702 0.95573 0.02078 0.0
C187 C 0.61912 0.93829 0.96248 0.0
N188 N 0.60532 0.94624 0.96896 0.0
C189 C 0.58534 0.93279 0.92596 0.0
C190 C 0.59924 0.92432 0.91889 0.0
C191 C 0.61626 0.92717 0.93719 0.0
C192 C 0.58909 0.94386 0.95135 0.0
H193 H 0.63221 0.94044 0.97648 0.0
C194 C 0.64704 0.96555 0.02944 0.0
O195 O 0.6837 0.03367 0.01675 0.0
O196 O 0.676 0.01431 0.97795 0.0
N197 N 0.58177 0.96416 0.98372 0.0
C198 C 0.56956 0.97296 0.99387 0.0
C199 C 0.55191 0.97159 0.97802 0.0
C200 C 0.54676 0.96085 0.95216 0.0
C201 C 0.55913 0.95132 0.94255 0.0
C202 C 0.5765 0.95317 0.95928 0.0
H203 H 0.57335 0.98109 0.01382 0.0
O204 O 0.64291 0.02564 0.98465 0.0
O205 O 0.62779 0.98923 0.9857 0.0
O206 O 0.63541 0.00828 0.04044 0.0
O207 O 0.60322 0.97661 0.03541 0.0
C208 C 0.55486 0.93999 0.91708 0.0
C209 C 0.56804 0.93085 0.9087 0.0
H210 H 0.59708 0.91572 0.89941 0.0
H211 H 0.62712 0.92078 0.93182 0.0
H212 H 0.54232 0.97882 0.9857 0.0
H213 H 0.53321 0.95993 0.93992 0.0
H214 H 0.5415 0.93824 0.90374 0.0
H215 H 0.56473 0.92237 0.88895 0.0
Mn216 Mn 0.66401 0.68653 0.33813 0.0
Mn217 Mn 0.71392 0.73258 0.33604 0.0
C218 C 0.67015 0.71467 0.30732 0.0
C219 C 0.64016 0.65055 0.32325 0.0
C220 C 0.68029 0.7235 0.38133 0.0
O221 O 0.68375 0.67738 0.35945 0.0
O222 O 0.71678 0.7077 0.35208 0.0
C223 C 0.73483 0.71769 0.29441 0.0
N224 N 0.72895 0.73272 0.30302 0.0
C225 C 0.74603 0.75588 0.26336 0.0
C226 C 0.75265 0.74086 0.25434 0.0
C227 C 0.74685 0.72159 0.26982 0.0
C228 C 0.73393 0.75101 0.28791 0.0
H229 H 0.73029 0.70281 0.30616 0.0
C230 C 0.70477 0.68802 0.36133 0.0
O231 O 0.63696 0.65796 0.34644 0.0
O232 O 0.65757 0.66366 0.30923 0.0
N233 N 0.71394 0.75811 0.32079 0.0
C234 C 0.70603 0.77075 0.33214 0.0
C235 C 0.71003 0.79045 0.31892 0.0
C236 C 0.72242 0.79713 0.29445 0.0
C237 C 0.73062 0.78399 0.28331 0.0
C238 C 0.72612 0.76455 0.29742 0.0
H239 H 0.69675 0.76588 0.35114 0.0
O240 O 0.65025 0.70005 0.31406 0.0
O241 O 0.68586 0.7121 0.31824 0.0
O242 O 0.66486 0.70555 0.37106 0.0
O243 O 0.69939 0.73425 0.37041 0.0
C244 C 0.7432 0.78948 0.25888 0.0
C245 C 0.75074 0.77535 0.24879 0.0
H246 H 0.76193 0.74383 0.23539 0.0
H247 H 0.75165 0.70978 0.26282 0.0
H248 H 0.70371 0.80053 0.32768 0.0
H249 H 0.72561 0.81242 0.28448 0.0
H250 H 0.74713 0.8045 0.24762 0.0
H251 H 0.76013 0.7796 0.22979 0.0
Mn252 Mn 0.31805 0.98398 0.35836 0.0
Mn253 Mn 0.31635 0.93438 0.36019 0.0
C254 C 0.2951 0.95705 0.38943 0.0
C255 C 0.33287 0.02085 0.37267 0.0
C256 C 0.29234 0.94635 0.31678 0.0
O257 O 0.34579 0.99026 0.33713 0.0
O258 O 0.34303 0.95665 0.34029 0.0
C259 C 0.35538 0.94758 0.39647 0.0
N260 N 0.33352 0.93403 0.39113 0.0
C261 C 0.32961 0.91238 0.43198 0.0
C262 C 0.3521 0.92601 0.43783 0.0
C263 C 0.36501 0.94376 0.42006 0.0
C264 C 0.32088 0.91713 0.40831 0.0
H265 H 0.3654 0.96118 0.38281 0.0
C266 C 0.35298 0.97687 0.33225 0.0
O267 O 0.32225 0.01389 0.34932 0.0
O268 O 0.33569 0.00659 0.38711 0.0
N269 N 0.29174 0.911 0.37889 0.0
C270 C 0.27035 0.89928 0.37022 0.0
C271 C 0.25512 0.88128 0.38608 0.0
C272 C 0.26215 0.87515 0.41029 0.0
C273 C 0.2844 0.88699 0.4183 0.0
C274 C 0.29878 0.90487 0.40177 0.0
H275 H 0.26493 0.90366 0.35139 0.0
O276 O 0.29151 0.97304 0.38229 0.0
O277 O 0.31236 0.9574 0.37863 0.0
O278 O 0.29861 0.96592 0.32548 0.0
O279 O 0.29783 0.93309 0.32815 0.0
C280 C 0.29289 0.88168 0.44198 0.0
C281 C 0.31545 0.89443 0.44889 0.0
H282 H 0.3596 0.92309 0.45598 0.0
H283 H 0.38236 0.95442 0.4245 0.0
H284 H 0.23802 0.8721 0.37958 0.0
H285 H 0.25036 0.86126 0.42247 0.0
H286 H 0.28222 0.86784 0.45504 0.0
H287 H 0.32173 0.89032 0.4673 0.0
Mn288 Mn 0.01859 0.33277 0.35567 0.0
Mn289 Mn 0.06751 0.38036 0.35801 0.0
C290 C 0.04501 0.33733 0.38862 0.0
C291 C 0.98188 0.3106 0.36912 0.0
C292 C 0.05734 0.34412 0.31611 0.0
O293 O 0.01202 0.35377 0.33253 0.0
O294 O 0.04563 0.38404 0.33536 0.0
C295 C 0.05259 0.40669 0.39032 0.0
N296 N 0.06662 0.39848 0.38714 0.0
C297 C 0.08733 0.41772 0.42785 0.0
C298 C 0.07316 0.42646 0.4315 0.0
C299 C 0.05564 0.42081 0.41273 0.0
C300 C 0.0833 0.40351 0.40533 0.0
H301 H 0.03921 0.40252 0.37581 0.0
C302 C 0.0257 0.37389 0.32646 0.0
O303 O 0.98937 0.30655 0.34663 0.0
O304 O 0.99532 0.32811 0.38309 0.0
N305 N 0.09064 0.37983 0.37908 0.0
C306 C 0.1029 0.37012 0.3725 0.0
C307 C 0.12087 0.37377 0.3895 0.0
C308 C 0.12637 0.3878 0.41265 0.0
C309 C 0.11391 0.39813 0.41853 0.0
C310 C 0.09611 0.39374 0.40096 0.0
H311 H 0.09893 0.35957 0.35449 0.0
O312 O 0.02963 0.31775 0.38145 0.0
O313 O 0.04445 0.35393 0.37663 0.0
O314 O 0.03756 0.33125 0.32396 0.0
O315 O 0.07001 0.36264 0.32787 0.0
C316 C 0.11853 0.41271 0.44105 0.0
C317 C 0.10517 0.42239 0.4458 0.0
H318 H 0.07552 0.43743 0.4487 0.0
H319 H 0.04459 0.42743 0.41546 0.0
H320 H 0.13051 0.36588 0.38469 0.0
H321 H 0.14027 0.39061 0.42567 0.0
H322 H 0.13229 0.41658 0.45487 0.0
H323 H 0.10875 0.43339 0.46334 0.0
Mn324 Mn 0.66942 0.98436 0.33553 0.0
Mn325 Mn 0.71663 0.98182 0.33649 0.0
C326 C 0.67388 0.96109 0.3052 0.0
C327 C 0.64776 0.99929 0.31918 0.0
C328 C 0.68026 0.95767 0.37783 0.0
O329 O 0.69022 0.01234 0.35682 0.0
O330 O 0.7201 0.00793 0.35784 0.0
C331 C 0.7432 0.02233 0.30335 0.0
N332 N 0.73496 1.00019 0.30727 0.0
C333 C 0.7539 0.99771 0.26712 0.0
C334 C 0.76269 0.0205 0.26275 0.0
C335 C 0.75723 0.03283 0.28087 0.0
C336 C 0.73986 0.98811 0.28973 0.0
H337 H 0.73915 0.03192 0.31728 0.0
C338 C 0.71003 0.01855 0.36425 0.0
O339 O 0.64376 0.98893 0.34276 0.0
O340 O 0.66492 1.00181 0.30585 0.0
N341 N 0.71633 0.95782 0.31667 0.0
C342 C 0.7066 0.93602 0.32384 0.0
C343 C 0.71005 0.92131 0.30749 0.0
C344 C 0.72387 0.92924 0.2843 0.0
C345 C 0.73423 0.95184 0.27778 0.0
C346 C 0.73009 0.9657 0.29479 0.0
H347 H 0.69619 0.92989 0.34182 0.0
O348 O 0.65437 0.95747 0.31169 0.0
O349 O 0.69043 0.97841 0.31647 0.0
O350 O 0.66791 0.96532 0.36929 0.0
O351 O 0.69849 0.96209 0.36661 0.0
C352 C 0.74855 0.9612 0.25514 0.0
C353 C 0.75832 0.98409 0.24975 0.0
H354 H 0.77354 0.02867 0.24546 0.0
H355 H 0.76387 0.05042 0.27757 0.0
H356 H 0.70213 0.90391 0.31279 0.0
H357 H 0.72649 0.91784 0.27175 0.0
H358 H 0.75215 0.95093 0.24169 0.0
H359 H 0.76914 0.99105 0.23213 0.0
Mn360 Mn 0.01901 0.69092 0.35842 0.0
Mn361 Mn 0.06674 0.68936 0.35842 0.0
C362 C 0.04749 0.71373 0.38814 0.0
C363 C 0.98339 0.67805 0.37562 0.0
C364 C 0.05446 0.71279 0.31419 0.0
O365 O 0.01083 0.6623 0.33716 0.0
O366 O 0.0427 0.66155 0.34219 0.0
C367 C 0.05466 0.6532 0.39914 0.0
N368 N 0.06848 0.67438 0.39089 0.0
C369 C 0.09255 0.68072 0.43002 0.0
C370 C 0.07876 0.65886 0.43871 0.0
C371 C 0.05964 0.6451 0.42331 0.0
C372 C 0.08665 0.68791 0.40587 0.0
H373 H 0.03993 0.64263 0.38742 0.0
C374 C 0.02266 0.65309 0.33387 0.0
O375 O 0.98922 0.68786 0.35168 0.0
O376 O 0.99776 0.67453 0.38852 0.0
N377 N 0.09159 0.71503 0.37367 0.0
C378 C 0.10292 0.73579 0.36274 0.0
C379 C 0.12215 0.75182 0.37613 0.0
C380 C 0.12974 0.74624 0.40029 0.0
C381 C 0.11802 0.72466 0.41089 0.0
C382 C 0.09894 0.70941 0.39669 0.0
H383 H 0.09732 0.74011 0.34399 0.0
O384 O 0.03194 0.71816 0.38195 0.0
O385 O 0.04572 0.69579 0.37722 0.0
O386 O 0.03632 0.70933 0.32477 0.0
O387 O 0.06668 0.70558 0.32455 0.0
C388 C 0.12454 0.71765 0.43491 0.0
C389 C 0.11174 0.69575 0.44457 0.0
H390 H 0.08256 0.65256 0.45733 0.0
H391 H 0.04879 0.62828 0.43003 0.0
H392 H 0.13115 0.76841 0.36777 0.0
H393 H 0.14462 0.75864 0.41049 0.0
H394 H 0.13935 0.72898 0.44619 0.0
H395 H 0.11678 0.69065 0.46327 0.0
Mn396 Mn 0.32147 0.34243 0.34046 0.0
Mn397 Mn 0.27222 0.29517 0.33906 0.0
C398 C 0.29505 0.33825 0.30812 0.0
C399 C 0.3578 0.36406 0.32625 0.0
C400 C 0.28455 0.33112 0.38221 0.0
O401 O 0.32774 0.32096 0.3626 0.0
O402 O 0.29458 0.29005 0.35839 0.0
C403 C 0.28266 0.26704 0.3033 0.0
N404 N 0.27024 0.27681 0.30852 0.0
C405 C 0.24599 0.2579 0.27007 0.0
C406 C 0.25846 0.24756 0.26433 0.0
C407 C 0.27695 0.25225 0.28092 0.0
C408 C 0.25252 0.27254 0.29258 0.0
H409 H 0.2967 0.27038 0.31624 0.0
C410 C 0.31466 0.30036 0.3669 0.0
O411 O 0.35088 0.36817 0.34918 0.0
O412 O 0.34405 0.34666 0.31234 0.0
N413 N 0.24904 0.29771 0.32088 0.0
C414 C 0.23918 0.30958 0.32872 0.0
C415 C 0.22114 0.30775 0.31332 0.0
C416 C 0.21319 0.29343 0.29036 0.0
C417 C 0.22335 0.28107 0.28302 0.0
C418 C 0.24138 0.28373 0.29901 0.0
H419 H 0.24515 0.3205 0.34647 0.0
O420 O 0.31055 0.35779 0.31531 0.0
O421 O 0.2953 0.32149 0.32008 0.0
O422 O 0.30355 0.34468 0.3728 0.0
O423 O 0.27189 0.31235 0.37118 0.0
C424 C 0.21645 0.26639 0.2603 0.0
C425 C 0.22769 0.25473 0.25391 0.0
H426 H 0.25415 0.23618 0.24706 0.0
H427 H 0.2867 0.2444 0.27656 0.0
H428 H 0.21337 0.31732 0.31914 0.0
H429 H 0.19931 0.2921 0.27849 0.0
H430 H 0.20261 0.26405 0.24749 0.0
H431 H 0.22233 0.24362 0.23627 0.0
Mn432 Mn 0.33285 0.02243 0.67269 0.0
Mn433 Mn 0.38326 0.06784 0.67021 0.0
C434 C 0.33939 0.05065 0.64187 0.0
C435 C 0.3086 0.98633 0.65772 0.0
C436 C 0.34999 0.05962 0.71572 0.0
O437 O 0.35227 0.01287 0.69386 0.0
O438 O 0.38568 0.04266 0.68634 0.0
C439 C 0.40331 0.05228 0.62826 0.0
N440 N 0.39807 0.0677 0.63712 0.0
C441 C 0.41548 0.09081 0.59753 0.0
C442 C 0.42142 0.07535 0.58823 0.0
C443 C 0.41516 0.05592 0.60358 0.0
C444 C 0.40358 0.08622 0.62223 0.0
H445 H 0.39836 0.03731 0.63989 0.0
C446 C 0.37326 0.02308 0.69562 0.0
O447 O 0.30571 0.9938 0.68109 0.0
O448 O 0.32595 0.99959 0.6437 0.0
N449 N 0.38375 0.09362 0.65499 0.0
C450 C 0.37559 0.10618 0.66592 0.0
C451 C 0.37973 0.12588 0.65258 0.0
C452 C 0.3925 0.13263 0.62841 0.0
C453 C 0.40088 0.11953 0.61766 0.0
C454 C 0.39619 0.10007 0.63185 0.0
H455 H 0.3659 0.10118 0.68459 0.0
O456 O 0.31941 0.03631 0.64874 0.0
O457 O 0.35493 0.04774 0.65267 0.0
O458 O 0.33422 0.04171 0.70575 0.0
O459 O 0.36902 0.06986 0.70459 0.0
C460 C 0.41357 0.12493 0.59333 0.0
C461 C 0.42068 0.11047 0.58313 0.0
H462 H 0.43057 0.07812 0.5692 0.0
H463 H 0.41946 0.04378 0.5964 0.0
H464 H 0.37316 0.13586 0.66096 0.0
H465 H 0.39567 0.14786 0.61822 0.0
H466 H 0.41779 0.14004 0.58212 0.0
H467 H 0.43004 0.11459 0.56411 0.0
Mn468 Mn 0.98328 0.31568 0.68931 0.0
Mn469 Mn 0.98183 0.26628 0.69202 0.0
C470 C 0.95967 0.28859 0.71973 0.0
C471 C 0.99734 0.35241 0.7038 0.0
C472 C 0.95863 0.27794 0.64713 0.0
O473 O 0.01166 0.32233 0.66942 0.0
O474 O 0.00865 0.28858 0.67252 0.0
C475 C 0.02016 0.27992 0.72968 0.0
N476 N 0.9985 0.26608 0.72358 0.0
C477 C 0.99402 0.24432 0.76449 0.0
C478 C 0.01631 0.25827 0.77115 0.0
C479 C 0.02941 0.27621 0.75373 0.0
C480 C 0.98569 0.24894 0.74036 0.0
H481 H 0.03029 0.29367 0.71627 0.0
C482 C 0.01862 0.30877 0.66446 0.0
O483 O 0.98742 0.34554 0.68001 0.0
O484 O 0.99998 0.33817 0.71853 0.0
N485 N 0.957 0.24275 0.71011 0.0
C486 C 0.93568 0.23123 0.70107 0.0
C487 C 0.92032 0.2129 0.71634 0.0
C488 C 0.92713 0.20633 0.74037 0.0
C489 C 0.94923 0.21824 0.74903 0.0
C490 C 0.96377 0.23639 0.73301 0.0
H491 H 0.93043 0.23604 0.6824 0.0
O492 O 0.95611 0.30447 0.712 0.0
O493 O 0.97728 0.28913 0.70986 0.0
O494 O 0.96487 0.29758 0.65566 0.0
O495 O 0.96394 0.26487 0.6594 0.0
C496 C 0.95739 0.21292 0.77303 0.0
C497 C 0.97972 0.22606 0.78087 0.0
H498 H 0.02352 0.25542 0.78964 0.0
H499 H 0.0466 0.28709 0.75878 0.0
H500 H 0.9033 0.2038 0.70952 0.0
H501 H 0.91523 0.19213 0.75202 0.0
H502 H 0.94662 0.19886 0.78573 0.0
H503 H 0.98571 0.22198 0.79956 0.0
Mn504 Mn 0.68495 0.66434 0.68828 0.0
Mn505 Mn 0.73327 0.71234 0.69002 0.0
C506 C 0.71299 0.66792 0.7177 0.0
C507 C 0.64906 0.64275 0.70522 0.0
C508 C 0.72063 0.67802 0.64407 0.0
O509 O 0.67761 0.68595 0.66814 0.0
O510 O 0.70969 0.71765 0.6746 0.0
C511 C 0.72146 0.73515 0.73275 0.0
N512 N 0.73513 0.72777 0.72357 0.0
C513 C 0.75829 0.74204 0.76411 0.0
C514 C 0.74463 0.75006 0.77384 0.0
C515 C 0.72608 0.7465 0.75814 0.0
C516 C 0.75281 0.73078 0.73872 0.0
H517 H 0.7071 0.73229 0.72086 0.0
C518 C 0.68972 0.70692 0.66586 0.0
O519 O 0.65466 0.63877 0.68115 0.0
O520 O 0.66396 0.65985 0.71849 0.0
N521 N 0.75778 0.71011 0.70449 0.0
C522 C 0.76913 0.70108 0.69237 0.0
C523 C 0.788 0.70293 0.70561 0.0
C524 C 0.79521 0.71432 0.73094 0.0
C525 C 0.7836 0.72396 0.74264 0.0
C526 C 0.76496 0.72166 0.72845 0.0
H527 H 0.76378 0.69243 0.67283 0.0
O528 O 0.69705 0.64851 0.71097 0.0
O529 O 0.71178 0.6847 0.70758 0.0
O530 O 0.70217 0.66358 0.65422 0.0
O531 O 0.73286 0.69694 0.65535 0.0
C532 C 0.78975 0.73571 0.7679 0.0
C533 C 0.777 0.74459 0.77875 0.0
H534 H 0.74814 0.75882 0.79341 0.0
H535 H 0.71535 0.75247 0.76562 0.0
H536 H 0.79695 0.69555 0.69635 0.0
H537 H 0.80968 0.71557 0.74119 0.0
H538 H 0.80415 0.73785 0.77927 0.0
H539 H 0.78171 0.7533 0.79839 0.0
Mn540 Mn 0.3359 0.3173 0.66799 0.0
Mn541 Mn 0.3839 0.3163 0.66773 0.0
C542 C 0.34075 0.29449 0.63727 0.0
C543 C 0.31337 0.33146 0.65231 0.0
C544 C 0.34835 0.2917 0.71025 0.0
O545 O 0.35649 0.34548 0.68941 0.0
O546 O 0.38718 0.34247 0.68842 0.0
C547 C 0.4092 0.35617 0.6331 0.0
N548 N 0.40146 0.3342 0.63776 0.0
C549 C 0.42041 0.33137 0.59785 0.0
C550 C 0.42869 0.35399 0.59269 0.0
C551 C 0.42295 0.36641 0.61031 0.0
C552 C 0.40659 0.32202 0.6207 0.0
H553 H 0.40496 0.36581 0.6467 0.0
C554 C 0.37666 0.35239 0.69579 0.0
O555 O 0.30983 0.3211 0.67583 0.0
O556 O 0.33056 0.33445 0.63862 0.0
N557 N 0.38373 0.2921 0.6486 0.0
C558 C 0.37437 0.27048 0.65647 0.0
C559 C 0.3781 0.25568 0.64067 0.0
C560 C 0.3918 0.26337 0.61735 0.0
C561 C 0.40171 0.28582 0.61008 0.0
C562 C 0.39729 0.29975 0.62651 0.0
H563 H 0.36406 0.26454 0.67459 0.0
O564 O 0.32115 0.29043 0.64403 0.0
O565 O 0.35714 0.31201 0.6484 0.0
O566 O 0.33515 0.29825 0.70142 0.0
O567 O 0.36679 0.29721 0.69877 0.0
C568 C 0.41589 0.29495 0.58725 0.0
C569 C 0.42515 0.31768 0.58106 0.0
H570 H 0.43935 0.36197 0.57518 0.0
H571 H 0.42921 0.38386 0.60641 0.0
H572 H 0.3705 0.23841 0.64652 0.0
H573 H 0.39465 0.25192 0.60525 0.0
H574 H 0.41978 0.28465 0.57428 0.0
H575 H 0.43584 0.32445 0.56329 0.0
Mn576 Mn 0.68681 0.02406 0.6898 0.0
Mn577 Mn 0.73531 0.02404 0.69165 0.0
C578 C 0.71433 0.04682 0.72072 0.0
C579 C 0.65069 0.01072 0.70597 0.0
C580 C 0.7245 0.04883 0.64794 0.0
O581 O 0.67921 0.99551 0.66889 0.0
O582 O 0.7126 0.99793 0.671 0.0
C583 C 0.72083 0.98436 0.72704 0.0
N584 N 0.73494 0.00622 0.7222 0.0
C585 C 0.7563 0.00902 0.76302 0.0
C586 C 0.74207 0.98651 0.76837 0.0
C587 C 0.72419 0.97416 0.75038 0.0
C588 C 0.75199 0.01833 0.73959 0.0
H589 H 0.70715 0.97478 0.71317 0.0
C590 C 0.69238 0.98824 0.66318 0.0
O591 O 0.65689 0.02066 0.68214 0.0
O592 O 0.66502 0.00742 0.71932 0.0
N593 N 0.75911 0.04814 0.71088 0.0
C594 C 0.77131 0.06966 0.70275 0.0
C595 C 0.78954 0.08439 0.71888 0.0
C596 C 0.79534 0.07673 0.74281 0.0
C597 C 0.78292 0.05437 0.75032 0.0
C598 C 0.76486 0.04051 0.73353 0.0
H599 H 0.76707 0.07557 0.68419 0.0
O600 O 0.69894 0.05119 0.7134 0.0
O601 O 0.71316 0.02907 0.70998 0.0
O602 O 0.7049 0.04276 0.6562 0.0
O603 O 0.7372 0.043 0.66014 0.0
C604 C 0.78779 0.04527 0.77374 0.0
C605 C 0.77443 0.02264 0.78016 0.0
H606 H 0.74464 0.97857 0.78631 0.0
H607 H 0.71309 0.9568 0.75443 0.0
H608 H 0.79914 0.10158 0.71283 0.0
H609 H 0.8094 0.08814 0.7552 0.0
H610 H 0.80176 0.05553 0.787 0.0
H611 H 0.77822 0.0159 0.79838 0.0
Mn612 Mn 0.98631 0.67346 0.67241 0.0
Mn613 Mn 0.93652 0.6269 0.66812 0.0
C614 C 0.96046 0.67131 0.6402 0.0
C615 C 0.02294 0.69555 0.65922 0.0
C616 C 0.94824 0.66126 0.71317 0.0
O617 O 0.99192 0.65094 0.69308 0.0
O618 O 0.95812 0.6211 0.68832 0.0
C619 C 0.949 0.60092 0.63127 0.0
N620 N 0.93564 0.60951 0.63703 0.0
C621 C 0.91302 0.59208 0.59682 0.0
C622 C 0.92647 0.58292 0.59051 0.0
C623 C 0.94459 0.58743 0.60776 0.0
C624 C 0.9182 0.60533 0.62056 0.0
H625 H 0.96289 0.60432 0.64455 0.0
C626 C 0.97802 0.63057 0.69737 0.0
O627 O 0.01578 0.69862 0.68261 0.0
O628 O 0.00928 0.67879 0.64429 0.0
N629 N 0.91366 0.6296 0.64935 0.0
C630 C 0.9036 0.64132 0.65697 0.0
C631 C 0.88572 0.63948 0.64119 0.0
C632 C 0.87815 0.62532 0.61806 0.0
C633 C 0.88863 0.61324 0.6108 0.0
C634 C 0.90637 0.61576 0.6273 0.0
H635 H 0.90928 0.65211 0.67485 0.0
O636 O 0.97621 0.69026 0.64872 0.0
O637 O 0.96016 0.65378 0.65066 0.0
O638 O 0.9679 0.67435 0.7052 0.0
O639 O 0.93528 0.64336 0.70047 0.0
C640 C 0.88273 0.59946 0.58723 0.0
C641 C 0.89495 0.58894 0.58021 0.0
H642 H 0.92318 0.57258 0.57235 0.0
H643 H 0.9551 0.5805 0.60296 0.0
H644 H 0.8778 0.64895 0.64683 0.0
H645 H 0.8645 0.62412 0.60577 0.0
H646 H 0.86914 0.59727 0.57399 0.0
H647 H 0.89052 0.57874 0.56174 0.0
H648 H 0.13094 0.34873 0.16899 0.0
H649 H 0.10769 0.35383 0.20239 0.0
H650 H 0.08931 0.29 0.23827 0.0
H651 H 0.11203 0.28457 0.20407 0.0
H652 H 0.15493 0.30953 0.20274 0.0
H653 H 0.1495 0.35409 0.10605 0.0
H654 H 0.12271 0.36036 0.08052 0.0
H655 H 0.07044 0.29663 0.10729 0.0
H656 H 0.09743 0.29071 0.13363 0.0
H657 H 0.18065 0.29124 0.10342 0.0
H658 H 0.21306 0.29574 0.07807 0.0
H659 H 0.25122 0.36203 0.11038 0.0
H660 H 0.2189 0.3573 0.13638 0.0
H661 H 0.16192 0.32348 0.10159 0.0
H662 H 0.20862 0.3043 0.15879 0.0
H663 H 0.24086 0.314 0.18601 0.0
H664 H 0.21524 0.33857 0.25035 0.0
H665 H 0.18752 0.33584 0.21909 0.0
C666 C 0.12304 0.3161 0.18364 0.0
C667 C 0.12128 0.33542 0.18329 0.0
C668 C 0.10817 0.33845 0.20265 0.0
C669 C 0.09665 0.32232 0.22297 0.0
C670 C 0.09767 0.30257 0.22261 0.0
C671 C 0.11076 0.29951 0.20315 0.0
C672 C 0.14015 0.31485 0.1666 0.0
C673 C 0.15681 0.31289 0.18066 0.0
C674 C 0.14205 0.31879 0.13771 0.0
C675 C 0.12549 0.32193 0.12172 0.0
C676 C 0.13229 0.34141 0.10636 0.0
C677 C 0.11694 0.34496 0.09177 0.0
C678 C 0.09441 0.32902 0.09192 0.0
C679 C 0.08759 0.3094 0.10717 0.0
C680 C 0.10301 0.30593 0.12205 0.0
C681 C 0.19746 0.32386 0.12198 0.0
C682 C 0.19597 0.30677 0.10496 0.0
C683 C 0.21445 0.3093 0.0906 0.0
C684 C 0.23456 0.32918 0.09244 0.0
C685 C 0.23586 0.34657 0.10869 0.0
C686 C 0.21747 0.34388 0.1235 0.0
C687 C 0.17806 0.3204 0.13831 0.0
C688 C 0.16062 0.32077 0.12385 0.0
C689 C 0.17654 0.31707 0.16756 0.0
C690 C 0.19547 0.31997 0.18574 0.0
C691 C 0.21062 0.31317 0.17789 0.0
C692 C 0.22892 0.31776 0.1947 0.0
C693 C 0.23145 0.32715 0.22139 0.0
C694 C 0.21524 0.33242 0.2298 0.0
C695 C 0.19839 0.32993 0.21195 0.0
H696 H 0.71932 0.89801 0.18798 0.0
H697 H 0.71628 0.92369 0.22016 0.0
H698 H 0.64568 0.88883 0.20891 0.0
H699 H 0.64885 0.86359 0.17592 0.0
H700 H 0.68797 0.84598 0.19998 0.0
H701 H 0.70906 0.9064 0.13416 0.0
H702 H 0.70143 0.93283 0.10954 0.0
H703 H 0.64518 0.87853 0.06951 0.0
H704 H 0.65193 0.85224 0.09559 0.0
H705 H 0.65803 0.80398 0.09035 0.0
H706 H 0.65561 0.77301 0.06427 0.0
H707 H 0.70482 0.7717 0.11837 0.0
H708 H 0.70957 0.80476 0.14162 0.0
H709 H 0.68327 0.84257 0.09733 0.0
H710 H 0.65396 0.78345 0.16505 0.0
H711 H 0.65054 0.75498 0.19843 0.0
H712 H 0.7119 0.80211 0.23684 0.0
H713 H 0.71572 0.83033 0.20337 0.0
C714 C 0.68434 0.87915 0.17934 0.0
C715 C 0.70326 0.89625 0.19195 0.0
C716 C 0.70151 0.91085 0.21032 0.0
C717 C 0.68076 0.90817 0.21697 0.0
C718 C 0.66185 0.89121 0.20404 0.0
C719 C 0.66365 0.87691 0.18517 0.0
C720 C 0.68589 0.86202 0.16287 0.0
C721 C 0.68731 0.84531 0.17746 0.0
C722 C 0.68409 0.86091 0.13365 0.0
C723 C 0.6808 0.87727 0.11723 0.0
C724 C 0.69492 0.90017 0.12037 0.0
C725 C 0.69079 0.9153 0.10586 0.0
C726 C 0.67273 0.90778 0.08749 0.0
C727 C 0.6591 0.88486 0.08372 0.0
C728 C 0.66305 0.8698 0.09847 0.0
C729 C 0.68377 0.80678 0.11847 0.0
C730 C 0.6688 0.79749 0.09621 0.0
C731 C 0.66717 0.77942 0.08147 0.0
C732 C 0.67999 0.76961 0.089 0.0
C733 C 0.69506 0.77899 0.11122 0.0
C734 C 0.69734 0.79767 0.12522 0.0
C735 C 0.68493 0.82582 0.13443 0.0
C736 C 0.6841 0.84306 0.11982 0.0
C737 C 0.68632 0.82699 0.16384 0.0
C738 C 0.68521 0.80896 0.18157 0.0
C739 C 0.66695 0.78748 0.18024 0.0
C740 C 0.66494 0.77132 0.1993 0.0
C741 C 0.68106 0.77653 0.21996 0.0
C742 C 0.69945 0.79778 0.22093 0.0
C743 C 0.70156 0.81386 0.20187 0.0
H744 H 0.11293 0.82461 0.19895 0.0
H745 H 0.08699 0.79621 0.23065 0.0
H746 H 0.11447 0.75426 0.20992 0.0
H747 H 0.13954 0.78225 0.17744 0.0
H748 H 0.16 0.84349 0.2057 0.0
H749 H 0.10426 0.80745 0.13084 0.0
H750 H 0.07864 0.7763 0.10146 0.0
H751 H 0.13009 0.76014 0.08613 0.0
H752 H 0.15571 0.79176 0.11422 0.0
H753 H 0.21132 0.8533 0.10699 0.0
H754 H 0.24229 0.88265 0.08157 0.0
H755 H 0.22531 0.93055 0.11284 0.0
H756 H 0.19481 0.90129 0.13875 0.0
H757 H 0.16786 0.83721 0.10447 0.0
H758 H 0.22184 0.86635 0.17632 0.0
H759 H 0.24937 0.89033 0.21043 0.0
H760 H 0.20599 0.91474 0.23623 0.0
H761 H 0.17809 0.88986 0.20291 0.0
C762 C 0.12798 0.80543 0.1856 0.0
C763 C 0.11294 0.80904 0.20077 0.0
C764 C 0.09822 0.79284 0.21898 0.0
C765 C 0.09846 0.77282 0.22275 0.0
C766 C 0.11328 0.76912 0.20701 0.0
C767 C 0.12776 0.78519 0.18851 0.0
C768 C 0.1455 0.82364 0.16919 0.0
C769 C 0.16141 0.84244 0.18342 0.0
C770 C 0.14797 0.82165 0.14046 0.0
C771 C 0.13194 0.80204 0.12438 0.0
C772 C 0.10995 0.79716 0.12107 0.0
C773 C 0.09533 0.77935 0.10436 0.0
C774 C 0.10248 0.76609 0.09084 0.0
C775 C 0.12427 0.77052 0.09533 0.0
C776 C 0.1389 0.78846 0.11159 0.0
C777 C 0.20093 0.87511 0.12517 0.0
C778 C 0.21429 0.87013 0.10839 0.0
C779 C 0.23193 0.88691 0.09377 0.0
C780 C 0.23649 0.90901 0.09547 0.0
C781 C 0.22266 0.91382 0.11166 0.0
C782 C 0.20517 0.89709 0.12645 0.0
C783 C 0.18228 0.85735 0.14092 0.0
C784 C 0.16623 0.83859 0.12663 0.0
C785 C 0.18001 0.85903 0.16983 0.0
C786 C 0.1979 0.87628 0.18714 0.0
C787 C 0.21841 0.87713 0.18902 0.0
C788 C 0.23415 0.89087 0.20855 0.0
C789 C 0.22972 0.90413 0.22651 0.0
C790 C 0.20966 0.90422 0.22337 0.0
C791 C 0.19379 0.89021 0.20413 0.0
H792 H 0.28998 0.1779 0.82141 0.0
H793 H 0.29556 0.20637 0.78723 0.0
H794 H 0.35782 0.25123 0.82617 0.0
H795 H 0.35259 0.22251 0.85961 0.0
H796 H 0.31656 0.16028 0.82505 0.0
H797 H 0.2948 0.20018 0.88978 0.0
H798 H 0.3014 0.23441 0.9132 0.0
H799 H 0.36142 0.24124 0.94896 0.0
H800 H 0.35502 0.20742 0.92548 0.0
H801 H 0.35591 0.15385 0.92602 0.0
H802 H 0.36111 0.12721 0.95357 0.0
H803 H 0.29905 0.07435 0.92287 0.0
H804 H 0.29432 0.10119 0.89433 0.0
H805 H 0.32468 0.16571 0.92738 0.0
H806 H 0.35281 0.13425 0.86471 0.0
H807 H 0.35929 0.11067 0.8332 0.0
H808 H 0.29934 0.09501 0.7886 0.0
H809 H 0.29216 0.11759 0.82128 0.0
C810 C 0.32073 0.19809 0.84332 0.0
C811 C 0.30462 0.19402 0.82293 0.0
C812 C 0.30774 0.21036 0.80353 0.0
C813 C 0.32706 0.23109 0.80413 0.0
C814 C 0.34276 0.23541 0.82521 0.0
C815 C 0.33968 0.21906 0.84452 0.0
C816 C 0.31908 0.17969 0.86098 0.0
C817 C 0.31756 0.16104 0.84753 0.0
C818 C 0.32167 0.18144 0.89021 0.0
C819 C 0.32452 0.20128 0.90563 0.0
C820 C 0.30935 0.20904 0.90271 0.0
C821 C 0.31305 0.22849 0.91618 0.0
C822 C 0.33205 0.24058 0.93258 0.0
C823 C 0.3468 0.23241 0.93612 0.0
C824 C 0.34306 0.21299 0.92286 0.0
C825 C 0.32466 0.12958 0.90824 0.0
C826 C 0.34332 0.13656 0.92534 0.0
C827 C 0.34619 0.12129 0.94126 0.0
C828 C 0.33021 0.09869 0.94102 0.0
C829 C 0.3116 0.09164 0.92363 0.0
C830 C 0.30887 0.10696 0.90737 0.0
C831 C 0.322 0.14615 0.89139 0.0
C832 C 0.32279 0.16447 0.90499 0.0
C833 C 0.31957 0.14452 0.86214 0.0
C834 C 0.32184 0.12762 0.84566 0.0
C835 C 0.34059 0.12515 0.84883 0.0
C836 C 0.34452 0.11195 0.83043 0.0
C837 C 0.33009 0.10137 0.80801 0.0
C838 C 0.31078 0.10295 0.80564 0.0
C839 C 0.30672 0.11594 0.82426 0.0
H840 H 0.82124 0.10717 0.84134 0.0
H841 H 0.79255 0.08172 0.80905 0.0
H842 H 0.76004 0.12079 0.81426 0.0
H843 H 0.78841 0.14586 0.84722 0.0
H844 H 0.8431 0.16127 0.82635 0.0
H845 H 0.8112 0.10186 0.89506 0.0
H846 H 0.78051 0.07345 0.9218 0.0
H847 H 0.76655 0.12335 0.95358 0.0
H848 H 0.79739 0.15169 0.92705 0.0
H849 H 0.8542 0.20373 0.9349 0.0
H850 H 0.88224 0.23423 0.96197 0.0
H851 H 0.93284 0.23414 0.91079 0.0
H852 H 0.90503 0.20159 0.88666 0.0
H853 H 0.84186 0.16458 0.92901 0.0
H854 H 0.86505 0.22099 0.85274 0.0
H855 H 0.89006 0.2486 0.81917 0.0
H856 H 0.91771 0.20664 0.8004 0.0
H857 H 0.89224 0.17876 0.83298 0.0
C858 C 0.80671 0.12815 0.84689 0.0
C859 C 0.80762 0.1099 0.83605 0.0
C860 C 0.7913 0.09543 0.81761 0.0
C861 C 0.77415 0.09934 0.80921 0.0
C862 C 0.7731 0.11744 0.82046 0.0
C863 C 0.78918 0.13165 0.83932 0.0
C864 C 0.82536 0.14512 0.86331 0.0
C865 C 0.84307 0.1619 0.84885 0.0
C866 C 0.82489 0.1461 0.89252 0.0
C867 C 0.80642 0.12885 0.90881 0.0
C868 C 0.80147 0.10665 0.90769 0.0
C869 C 0.78402 0.09047 0.92309 0.0
C870 C 0.77127 0.09619 0.94006 0.0
C871 C 0.77639 0.11848 0.94127 0.0
C872 C 0.79388 0.13466 0.92593 0.0
C873 C 0.87725 0.2004 0.90814 0.0
C874 C 0.87136 0.2099 0.92984 0.0
C875 C 0.88749 0.22763 0.94517 0.0
C876 C 0.90998 0.23679 0.9388 0.0
C877 C 0.91585 0.22728 0.91703 0.0
C878 C 0.89975 0.20898 0.90243 0.0
C879 C 0.8598 0.18135 0.89207 0.0
C880 C 0.84217 0.1641 0.90653 0.0
C881 C 0.8601 0.18009 0.86272 0.0
C882 C 0.87694 0.19794 0.84538 0.0
C883 C 0.87671 0.2179 0.84161 0.0
C884 C 0.89089 0.23357 0.82246 0.0
C885 C 0.9057 0.2296 0.80723 0.0
C886 C 0.90647 0.21003 0.81189 0.0
C887 C 0.89196 0.19415 0.83047 0.0
H888 H 0.79474 0.64255 0.83418 0.0
H889 H 0.76626 0.63891 0.80128 0.0
H890 H 0.78516 0.70758 0.81469 0.0
H891 H 0.8129 0.71068 0.84875 0.0
H892 H 0.84324 0.68141 0.82494 0.0
H893 H 0.78218 0.64447 0.88805 0.0
H894 H 0.74993 0.63966 0.91348 0.0
H895 H 0.78971 0.70296 0.95331 0.0
H896 H 0.82205 0.70767 0.92778 0.0
H897 H 0.90493 0.71315 0.89065 0.0
H898 H 0.93491 0.7118 0.91601 0.0
H899 H 0.88755 0.65076 0.955 0.0
H900 H 0.8577 0.65234 0.92998 0.0
H901 H 0.84195 0.68065 0.92781 0.0
H902 H 0.88602 0.71245 0.82233 0.0
H903 H 0.91073 0.7091 0.78945 0.0
H904 H 0.9016 0.65024 0.83183 0.0
H905 H 0.8763 0.65325 0.86415 0.0
C906 C 0.80587 0.67688 0.84378 0.0
C907 C 0.79251 0.65672 0.83023 0.0
C908 C 0.77649 0.65479 0.81111 0.0
C909 C 0.77401 0.67322 0.80443 0.0
C910 C 0.78683 0.69316 0.819 0.0
C911 C 0.80264 0.69497 0.83852 0.0
C912 C 0.8246 0.67946 0.8611 0.0
C913 C 0.84319 0.68158 0.84746 0.0
C914 C 0.82413 0.67934 0.89039 0.0
C915 C 0.80451 0.67656 0.90572 0.0
C916 C 0.78394 0.65746 0.90196 0.0
C917 C 0.76551 0.65471 0.91656 0.0
C918 C 0.76726 0.6709 0.93547 0.0
C919 C 0.78788 0.69005 0.9392 0.0
C920 C 0.80635 0.69279 0.92456 0.0
C921 C 0.87904 0.6828 0.90832 0.0
C922 C 0.901 0.69958 0.90484 0.0
C923 C 0.91811 0.69879 0.91933 0.0
C924 C 0.9136 0.6813 0.93774 0.0
C925 C 0.89156 0.66476 0.94154 0.0
C926 C 0.87447 0.66558 0.92712 0.0
C927 C 0.86087 0.68255 0.8916 0.0
C928 C 0.84237 0.68103 0.90531 0.0
C929 C 0.8613 0.683 0.8622 0.0
C930 C 0.87936 0.68318 0.84583 0.0
C931 C 0.88973 0.6991 0.82493 0.0
C932 C 0.90401 0.69729 0.80628 0.0
C933 C 0.90821 0.67948 0.80815 0.0
C934 C 0.89866 0.66415 0.82991 0.0
C935 C 0.88434 0.66595 0.84853 0.0
H936 H 0.79571 0.68314 0.4974 0.0
H937 H 0.77114 0.68805 0.52868 0.0
H938 H 0.75464 0.62603 0.56864 0.0
H939 H 0.77845 0.62061 0.53629 0.0
H940 H 0.82089 0.6458 0.53509 0.0
H941 H 0.81528 0.68813 0.43655 0.0
H942 H 0.78806 0.69325 0.4103 0.0
H943 H 0.73697 0.62869 0.43656 0.0
H944 H 0.76435 0.62403 0.46378 0.0
H945 H 0.84743 0.63158 0.42882 0.0
H946 H 0.88047 0.63679 0.40456 0.0
H947 H 0.92055 0.69468 0.45435 0.0
H948 H 0.88741 0.68988 0.47804 0.0
H949 H 0.82912 0.65833 0.43368 0.0
H950 H 0.87321 0.63769 0.4939 0.0
H951 H 0.90529 0.64668 0.52264 0.0
H952 H 0.8817 0.67601 0.58304 0.0
H953 H 0.85392 0.6728 0.55111 0.0
C954 C 0.78873 0.65129 0.51407 0.0
C955 C 0.78615 0.67012 0.51209 0.0
C956 C 0.77229 0.67307 0.53027 0.0
C957 C 0.76087 0.65742 0.55112 0.0
C958 C 0.76282 0.63819 0.55247 0.0
C959 C 0.77658 0.63515 0.53411 0.0
C960 C 0.80633 0.65014 0.498 0.0
C961 C 0.82296 0.6487 0.51293 0.0
C962 C 0.80854 0.65347 0.46902 0.0
C963 C 0.79186 0.65572 0.45212 0.0
C964 C 0.79824 0.67502 0.43655 0.0
C965 C 0.78264 0.6779 0.42153 0.0
C966 C 0.7603 0.66141 0.42141 0.0
C967 C 0.75395 0.64189 0.43667 0.0
C968 C 0.76959 0.63912 0.45204 0.0
C969 C 0.86498 0.66006 0.4557 0.0
C970 C 0.8633 0.64554 0.43434 0.0
C971 C 0.88213 0.6485 0.42049 0.0
C972 C 0.90301 0.66593 0.42789 0.0
C973 C 0.90463 0.68092 0.44857 0.0
C974 C 0.88575 0.67818 0.4621 0.0
C975 C 0.84494 0.65597 0.4712 0.0
C976 C 0.82751 0.65576 0.45596 0.0
C977 C 0.84284 0.65272 0.50046 0.0
C978 C 0.86133 0.6554 0.51922 0.0
C979 C 0.87572 0.64732 0.51252 0.0
C980 C 0.89392 0.65199 0.52959 0.0
C981 C 0.89723 0.66329 0.55502 0.0
C982 C 0.88142 0.66922 0.56281 0.0
C983 C 0.86454 0.66636 0.54476 0.0
H984 H 0.38798 0.23197 0.52184 0.0
H985 H 0.38432 0.25746 0.55372 0.0
H986 H 0.31385 0.22205 0.54144 0.0
H987 H 0.31761 0.19703 0.50869 0.0
H988 H 0.35891 0.18068 0.53272 0.0
H989 H 0.37794 0.23982 0.46699 0.0
H990 H 0.37039 0.26682 0.44375 0.0
H991 H 0.31211 0.21337 0.40593 0.0
H992 H 0.31896 0.18649 0.43054 0.0
H993 H 0.32172 0.13267 0.43082 0.0
H994 H 0.31887 0.10059 0.40627 0.0
H995 H 0.38046 0.11255 0.44319 0.0
H996 H 0.38318 0.14459 0.46796 0.0
H997 H 0.34966 0.17549 0.43041 0.0
H998 H 0.32413 0.11822 0.49852 0.0
H999 H 0.32082 0.09029 0.53255 0.0
H1000 H 0.38344 0.1372 0.56837 0.0
H1001 H 0.3871 0.16498 0.5342 0.0
C1002 C 0.35309 0.21283 0.51275 0.0
C1003 C 0.37181 0.23001 0.52558 0.0
C1004 C 0.36972 0.24451 0.54376 0.0
C1005 C 0.34883 0.24163 0.54999 0.0
C1006 C 0.33012 0.22457 0.53689 0.0
C1007 C 0.33226 0.21039 0.51818 0.0
C1008 C 0.35498 0.19602 0.496 0.0
C1009 C 0.35747 0.17978 0.51025 0.0
C1010 C 0.35213 0.19456 0.46688 0.0
C1011 C 0.34878 0.21108 0.45098 0.0
C1012 C 0.36342 0.23391 0.4539 0.0
C1013 C 0.3593 0.24935 0.44023 0.0
C1014 C 0.34067 0.24223 0.42295 0.0
C1015 C 0.32649 0.21937 0.41933 0.0
C1016 C 0.33048 0.20398 0.43321 0.0
C1017 C 0.3526 0.14103 0.45138 0.0
C1018 C 0.33476 0.12857 0.4334 0.0
C1019 C 0.33321 0.11029 0.41925 0.0
C1020 C 0.34958 0.10418 0.42252 0.0
C1021 C 0.36757 0.11681 0.4403 0.0
C1022 C 0.36911 0.1351 0.45449 0.0
C1023 C 0.35368 0.15994 0.46718 0.0
C1024 C 0.35166 0.17657 0.4528 0.0
C1025 C 0.35643 0.16155 0.49638 0.0
C1026 C 0.356 0.14362 0.51363 0.0
C1027 C 0.3375 0.12228 0.5131 0.0
C1028 C 0.33554 0.10641 0.53256 0.0
C1029 C 0.35202 0.11172 0.55273 0.0
C1030 C 0.37079 0.13273 0.55268 0.0
C1031 C 0.3728 0.14857 0.53326 0.0
H1032 H 0.78257 0.1631 0.53744 0.0
H1033 H 0.75911 0.13473 0.57079 0.0
H1034 H 0.776 0.08867 0.53335 0.0
H1035 H 0.80009 0.11734 0.50071 0.0
H1036 H 0.82649 0.17935 0.53552 0.0
H1037 H 0.76516 0.13839 0.47061 0.0
H1038 H 0.73935 0.10425 0.44624 0.0
H1039 H 0.79416 0.10271 0.40731 0.0
H1040 H 0.8198 0.13602 0.4326 0.0
H1041 H 0.8661 0.18972 0.42459 0.0
H1042 H 0.89622 0.21772 0.39763 0.0
H1043 H 0.89896 0.26849 0.45195 0.0
H1044 H 0.86667 0.24079 0.47611 0.0
H1045 H 0.82815 0.17651 0.43298 0.0
H1046 H 0.8875 0.20476 0.49838 0.0
H1047 H 0.91706 0.22803 0.53092 0.0
H1048 H 0.87304 0.2456 0.5721 0.0
H1049 H 0.84377 0.22288 0.53904 0.0
C1050 C 0.79298 0.14236 0.51632 0.0
C1051 C 0.78091 0.14676 0.53607 0.0
C1052 C 0.76733 0.13046 0.55499 0.0
C1053 C 0.76552 0.10936 0.5546 0.0
C1054 C 0.77703 0.10475 0.53418 0.0
C1055 C 0.79067 0.12109 0.51533 0.0
C1056 C 0.80978 0.16069 0.49907 0.0
C1057 C 0.82664 0.17901 0.51301 0.0
C1058 C 0.81063 0.15954 0.46979 0.0
C1059 C 0.7945 0.13974 0.45372 0.0
C1060 C 0.77161 0.13066 0.4569 0.0
C1061 C 0.75685 0.11128 0.44269 0.0
C1062 C 0.76471 0.10079 0.42477 0.0
C1063 C 0.78758 0.11026 0.42114 0.0
C1064 C 0.80227 0.12945 0.43543 0.0
C1065 C 0.86398 0.21281 0.45291 0.0
C1066 C 0.87269 0.20692 0.43032 0.0
C1067 C 0.89031 0.22306 0.41506 0.0
C1068 C 0.90029 0.24562 0.42233 0.0
C1069 C 0.89151 0.25152 0.44491 0.0
C1070 C 0.87328 0.23544 0.45945 0.0
C1071 C 0.84536 0.19526 0.46946 0.0
C1072 C 0.82803 0.17714 0.45545 0.0
C1073 C 0.84472 0.19585 0.49888 0.0
C1074 C 0.86345 0.21222 0.51609 0.0
C1075 C 0.8844 0.21412 0.5139 0.0
C1076 C 0.90123 0.2273 0.53262 0.0
C1077 C 0.89741 0.23874 0.55396 0.0
C1078 C 0.87665 0.23738 0.55556 0.0
C1079 C 0.85984 0.22424 0.53682 0.0
H1080 H 0.96334 0.51644 0.15456 0.0
H1081 H 0.96919 0.54534 0.12098 0.0
H1082 H 0.03204 0.58907 0.15939 0.0
H1083 H 0.02641 0.55993 0.1925 0.0
H1084 H 0.98921 0.49805 0.1568 0.0
H1085 H 0.96662 0.53503 0.22389 0.0
H1086 H 0.97011 0.56639 0.25113 0.0
H1087 H 0.03246 0.57698 0.28401 0.0
H1088 H 0.02851 0.54529 0.25753 0.0
H1089 H 0.0281 0.48935 0.25818 0.0
H1090 H 0.03357 0.46133 0.2823 0.0
H1091 H 0.97314 0.40975 0.24642 0.0
H1092 H 0.96739 0.43794 0.22264 0.0
H1093 H 0.99835 0.50223 0.25911 0.0
H1094 H 0.02777 0.47605 0.18719 0.0
H1095 H 0.03218 0.452 0.15404 0.0
H1096 H 0.96422 0.42525 0.12818 0.0
H1097 H 0.96035 0.45028 0.16047 0.0
C1098 C 0.99431 0.53604 0.17628 0.0
C1099 C 0.97817 0.53241 0.15614 0.0
C1100 C 0.98147 0.54899 0.13705 0.0
C1101 C 1.00102 0.56953 0.13766 0.0
C1102 C 0.01681 0.57342 0.15845 0.0
C1103 C 0.01349 0.55684 0.17756 0.0
C1104 C 0.9925 0.51729 0.19331 0.0
C1105 C 0.99053 0.49868 0.17928 0.0
C1106 C 0.99522 0.51856 0.22252 0.0
C1107 C 0.99732 0.53779 0.23863 0.0
C1108 C 0.98107 0.54418 0.23691 0.0
C1109 C 0.98316 0.56221 0.25237 0.0
C1110 C 1.00165 0.57434 0.26966 0.0
C1111 C 0.01788 0.56789 0.27118 0.0
C1112 C 0.01568 0.54978 0.25599 0.0
C1113 C 0.99748 0.46581 0.23828 0.0
C1114 C 0.01588 0.47205 0.25566 0.0
C1115 C 0.01908 0.45601 0.26927 0.0
C1116 C 1.00395 0.43335 0.26585 0.0
C1117 C 0.98509 0.42709 0.24931 0.0
C1118 C 0.98191 0.44318 0.23558 0.0
C1119 C 0.99503 0.48301 0.22249 0.0
C1120 C 0.99634 0.50133 0.23673 0.0
C1121 C 0.99222 0.48183 0.19334 0.0
C1122 C 0.9937 0.46482 0.17639 0.0
C1123 C 0.01371 0.46467 0.17476 0.0
C1124 C 0.01614 0.45076 0.1559 0.0
C1125 C 0.99848 0.43647 0.13857 0.0
C1126 C 0.9782 0.43613 0.14106 0.0
C1127 C 0.9759 0.45031 0.15961 0.0
H1128 H 0.49046 0.44018 0.16601 0.0
H1129 H 0.46073 0.41491 0.13476 0.0
H1130 H 0.42581 0.45074 0.14948 0.0
H1131 H 0.45509 0.47535 0.1819 0.0
H1132 H 0.51182 0.49175 0.15641 0.0
H1133 H 0.47175 0.43111 0.21885 0.0
H1134 H 0.43924 0.40442 0.24402 0.0
H1135 H 0.44142 0.4577 0.29259 0.0
H1136 H 0.47194 0.48445 0.26492 0.0
H1137 H 0.52044 0.53365 0.26381 0.0
H1138 H 0.54692 0.56511 0.29084 0.0
H1139 H 0.59999 0.56748 0.24255 0.0
H1140 H 0.57362 0.53406 0.21802 0.0
H1141 H 0.51046 0.49511 0.25897 0.0
H1142 H 0.53466 0.5521 0.18443 0.0
H1143 H 0.55993 0.58005 0.1514 0.0
H1144 H 0.58557 0.53698 0.12921 0.0
H1145 H 0.56 0.50886 0.16159 0.0
C1146 C 0.47478 0.45941 0.17645 0.0
C1147 C 0.47619 0.44229 0.16291 0.0
C1148 C 0.45927 0.42793 0.14507 0.0
C1149 C 0.44111 0.43099 0.13969 0.0
C1150 C 0.43967 0.44807 0.15338 0.0
C1151 C 0.45629 0.46204 0.17187 0.0
C1152 C 0.49358 0.47588 0.19322 0.0
C1153 C 0.51165 0.49239 0.17891 0.0
C1154 C 0.49299 0.47676 0.22253 0.0
C1155 C 0.47397 0.46003 0.23902 0.0
C1156 C 0.46476 0.43718 0.23415 0.0
C1157 C 0.44639 0.42181 0.24908 0.0
C1158 C 0.43721 0.42886 0.26992 0.0
C1159 C 0.4473 0.45164 0.27588 0.0
C1160 C 0.46514 0.46701 0.26033 0.0
C1161 C 0.54478 0.53155 0.23819 0.0
C1162 C 0.53779 0.54067 0.25917 0.0
C1163 C 0.55299 0.55907 0.27433 0.0
C1164 C 0.57561 0.56947 0.26828 0.0
C1165 C 0.5827 0.56007 0.24771 0.0
C1166 C 0.56751 0.54114 0.23317 0.0
C1167 C 0.52811 0.51196 0.22209 0.0
C1168 C 0.51058 0.49458 0.23649 0.0
C1169 C 0.52867 0.5106 0.1928 0.0
C1170 C 0.54559 0.5285 0.17552 0.0
C1171 C 0.54597 0.54884 0.17273 0.0
C1172 C 0.56031 0.56471 0.15391 0.0
C1173 C 0.57465 0.56056 0.13794 0.0
C1174 C 0.57477 0.54055 0.14145 0.0
C1175 C 0.56018 0.52453 0.15986 0.0
H1176 H 0.55315 0.04649 0.15524 0.0
H1177 H 0.5778 0.04243 0.12293 0.0
H1178 H 0.56712 0.98329 0.16598 0.0
H1179 H 0.54195 0.98705 0.19777 0.0
H1180 H 0.51008 0.01629 0.158 0.0
H1181 H 0.57117 0.04844 0.22441 0.0
H1182 H 0.6015 0.04727 0.24904 0.0
H1183 H 0.55501 0.98509 0.28652 0.0
H1184 H 0.52474 0.98662 0.26239 0.0
H1185 H 0.45069 0.97662 0.223 0.0
H1186 H 0.41773 0.9695 0.24875 0.0
H1187 H 0.45291 0.03508 0.28419 0.0
H1188 H 0.48597 0.0422 0.25813 0.0
H1189 H 0.50838 0.01491 0.26089 0.0
H1190 H 0.4615 0.97747 0.16704 0.0
H1191 H 0.43328 0.97413 0.13386 0.0
H1192 H 0.45213 0.04269 0.14804 0.0
H1193 H 0.47975 0.04556 0.18215 0.0
C1194 C 0.5458 0.01718 0.17908 0.0
C1195 C 0.5565 0.03292 0.1581 0.0
C1196 C 0.57072 0.03068 0.13978 0.0
C1197 C 0.57451 0.01262 0.14204 0.0
C1198 C 0.56452 0.99739 0.16378 0.0
C1199 C 0.55028 0.99963 0.1821 0.0
C1200 C 0.52794 0.01754 0.19532 0.0
C1201 C 0.50998 0.01639 0.18052 0.0
C1202 C 0.52747 0.01713 0.22471 0.0
C1203 C 0.5457 0.01751 0.24135 0.0
C1204 C 0.56752 0.03463 0.23808 0.0
C1205 C 0.58484 0.03388 0.25203 0.0
C1206 C 0.58069 0.01588 0.26935 0.0
C1207 C 0.55874 0.9992 0.2734 0.0
C1208 C 0.54143 1.00004 0.2596 0.0
C1209 C 0.47071 0.00999 0.2385 0.0
C1210 C 0.45125 0.98957 0.23605 0.0
C1211 C 0.43247 0.98549 0.25085 0.0
C1212 C 0.43272 1.00179 0.26833 0.0
C1213 C 0.45217 0.02235 0.27057 0.0
C1214 C 0.47106 0.02636 0.25588 0.0
C1215 C 0.49075 0.01383 0.22339 0.0
C1216 C 0.50893 0.0155 0.2384 0.0
C1217 C 0.49138 0.01427 0.19414 0.0
C1218 C 0.47266 0.01175 0.17689 0.0
C1219 C 0.45932 0.99167 0.1632 0.0
C1220 C 0.44344 0.98991 0.14396 0.0
C1221 C 0.44103 0.0084 0.13746 0.0
C1222 C 0.45378 0.02824 0.15223 0.0
C1223 C 0.4695 0.0299 0.17179 0.0
H1224 H 0.49043 0.03332 0.87186 0.0
H1225 H 0.46394 0.03502 0.903 0.0
H1226 H 0.41203 0.97435 0.86774 0.0
H1227 H 0.43893 0.97226 0.83712 0.0
H1228 H 0.50344 0.00419 0.87077 0.0
H1229 H 0.46976 0.03048 0.80713 0.0
H1230 H 0.44004 0.03159 0.78123 0.0
H1231 H 0.42391 0.96966 0.74167 0.0
H1232 H 0.45361 0.96839 0.76805 0.0
H1233 H 0.51561 0.97054 0.76444 0.0
H1234 H 0.54642 0.97145 0.7387 0.0
H1235 H 0.59189 0.03147 0.78136 0.0
H1236 H 0.56127 0.03125 0.80596 0.0
H1237 H 0.49766 0.99624 0.76838 0.0
H1238 H 0.53138 0.97058 0.84122 0.0
H1239 H 0.55924 0.97205 0.87375 0.0
H1240 H 0.57724 0.03941 0.89487 0.0
H1241 H 0.54869 0.03738 0.86331 0.0
C1242 C 0.46676 1.00265 0.8521 0.0
C1243 C 0.47335 0.02034 0.87076 0.0
C1244 C 0.45814 0.02139 0.88844 0.0
C1245 C 0.43588 0.00476 0.888 0.0
C1246 C 0.42911 0.98725 0.8689 0.0
C1247 C 0.44443 0.98617 0.85117 0.0
C1248 C 0.48364 1.00117 0.83482 0.0
C1249 C 0.50218 1.00262 0.84834 0.0
C1250 C 0.48191 0.99871 0.80557 0.0
C1251 C 0.46374 0.99919 0.78983 0.0
C1252 C 0.45964 0.01693 0.79324 0.0
C1253 C 0.44265 0.01756 0.77844 0.0
C1254 C 0.42966 1.00067 0.75956 0.0
C1255 C 0.43378 0.98294 0.75602 0.0
C1256 C 0.45072 0.98222 0.77102 0.0
C1257 C 0.53607 1.00048 0.78784 0.0
C1258 C 0.53217 0.98403 0.76808 0.0
C1259 C 0.54973 0.98452 0.75339 0.0
C1260 C 0.57147 1.00137 0.75839 0.0
C1261 C 0.57529 0.01814 0.77747 0.0
C1262 C 0.55778 0.01786 0.79173 0.0
C1263 C 0.51764 0.9996 0.80444 0.0
C1264 C 0.49874 0.99755 0.79082 0.0
C1265 C 0.51914 1.00203 0.83366 0.0
C1266 C 0.53802 0.00385 0.84998 0.0
C1267 C 0.5416 0.98574 0.85258 0.0
C1268 C 0.55761 0.98667 0.87111 0.0
C1269 C 0.57044 0.00584 0.88705 0.0
C1270 C 0.56742 0.02429 0.88327 0.0
C1271 C 0.55123 0.02322 0.86514 0.0
H1272 H 0.05082 0.55912 0.85843 0.0
H1273 H 0.04834 0.58498 0.89075 0.0
H1274 H 0.97923 0.55697 0.87161 0.0
H1275 H 0.98174 0.53131 0.8386 0.0
H1276 H 0.02273 0.51131 0.86529 0.0
H1277 H 0.03974 0.56971 0.79898 0.0
H1278 H 0.03202 0.59652 0.77515 0.0
H1279 H 0.97249 0.54269 0.7404 0.0
H1280 H 0.97971 0.51605 0.76504 0.0
H1281 H 0.98329 0.4621 0.7644 0.0
H1282 H 0.98085 0.43036 0.73936 0.0
H1283 H 0.04368 0.44406 0.77402 0.0
H1284 H 0.04599 0.47573 0.79923 0.0
H1285 H 0.01047 0.50512 0.76346 0.0
H1286 H 0.98688 0.44885 0.83288 0.0
H1287 H 0.98466 0.4213 0.86682 0.0
H1288 H 0.04909 0.46804 0.89824 0.0
H1289 H 0.05148 0.49555 0.86434 0.0
C1290 C 0.01652 0.54347 0.84597 0.0
C1291 C 0.03523 0.55882 0.86078 0.0
C1292 C 0.03384 0.57356 0.87921 0.0
C1293 C 0.01366 0.57289 0.88355 0.0
C1294 C 0.99497 0.55775 0.86848 0.0
C1295 C 0.99642 0.54323 0.84961 0.0
C1296 C 0.01752 0.52625 0.82897 0.0
C1297 C 0.02057 0.51021 0.84291 0.0
C1298 C 0.01377 0.52445 0.79998 0.0
C1299 C 0.01006 0.54084 0.78428 0.0
C1300 C 0.02491 0.56369 0.78644 0.0
C1301 C 0.02063 0.57899 0.77263 0.0
C1302 C 1.00147 0.57168 0.75636 0.0
C1303 C 0.98712 0.54881 0.75335 0.0
C1304 C 0.99134 0.53356 0.76722 0.0
C1305 C 0.01475 0.47126 0.78387 0.0
C1306 C 0.99666 0.45843 0.76639 0.0
C1307 C 0.99535 0.44036 0.75196 0.0
C1308 C 0.0122 0.43485 0.75446 0.0
C1309 C 0.03041 0.44785 0.77174 0.0
C1310 C 0.03172 0.46592 0.78619 0.0
C1311 C 0.01573 0.49005 0.79985 0.0
C1312 C 0.01305 0.5064 0.78575 0.0
C1313 C 0.01929 0.49193 0.8289 0.0
C1314 C 0.01945 0.47418 0.84593 0.0
C1315 C 1.00083 0.45295 0.8465 0.0
C1316 C 0.9995 0.4373 0.86589 0.0
C1317 C 0.01682 0.44266 0.88481 0.0
C1318 C 0.03576 0.46353 0.88354 0.0
C1319 C 0.03707 0.47921 0.86428 0.0
H1320 H 0.44985 0.49714 0.86984 0.0
H1321 H 0.4248 0.46979 0.90317 0.0
H1322 H 0.44082 0.42161 0.87058 0.0
H1323 H 0.46595 0.44903 0.83734 0.0
H1324 H 0.49346 0.51207 0.86991 0.0
H1325 H 0.43301 0.47134 0.8042 0.0
H1326 H 0.40665 0.43782 0.77914 0.0
H1327 H 0.46078 0.43374 0.74225 0.0
H1328 H 0.4869 0.46631 0.7683 0.0
H1329 H 0.5404 0.52135 0.76814 0.0
H1330 H 0.57188 0.55028 0.74305 0.0
H1331 H 0.5582 0.59964 0.77734 0.0
H1332 H 0.52716 0.57074 0.803 0.0
H1333 H 0.49711 0.50702 0.76776 0.0
H1334 H 0.55534 0.53774 0.83245 0.0
H1335 H 0.58494 0.56181 0.86431 0.0
H1336 H 0.54035 0.57845 0.90577 0.0
H1337 H 0.51098 0.55502 0.87318 0.0
C1338 C 0.45967 0.47514 0.85087 0.0
C1339 C 0.44767 0.48057 0.86951 0.0
C1340 C 0.43339 0.46495 0.88856 0.0
C1341 C 0.43075 0.44353 0.88937 0.0
C1342 C 0.44217 0.43784 0.87008 0.0
C1343 C 0.45655 0.45352 0.85107 0.0
C1344 C 0.47713 0.49278 0.8336 0.0
C1345 C 0.49394 0.51125 0.84746 0.0
C1346 C 0.47842 0.49098 0.80446 0.0
C1347 C 0.46202 0.47128 0.78847 0.0
C1348 C 0.43919 0.46313 0.79087 0.0
C1349 C 0.42412 0.44414 0.77623 0.0
C1350 C 0.43162 0.43314 0.75863 0.0
C1351 C 0.45445 0.44168 0.75582 0.0
C1352 C 0.46943 0.46045 0.77057 0.0
C1353 C 0.53159 0.54388 0.78778 0.0
C1354 C 0.54413 0.53839 0.77016 0.0
C1355 C 0.56208 0.55494 0.75577 0.0
C1356 C 0.56778 0.57731 0.75852 0.0
C1357 C 0.55466 0.58265 0.77536 0.0
C1358 C 0.53684 0.56613 0.78995 0.0
C1359 C 0.51319 0.5264 0.80411 0.0
C1360 C 0.4963 0.50804 0.79013 0.0
C1361 C 0.51222 0.52777 0.83332 0.0
C1362 C 0.53092 0.54472 0.85013 0.0
C1363 C 0.55208 0.54713 0.84777 0.0
C1364 C 0.56895 0.56073 0.86618 0.0
C1365 C 0.56502 0.57211 0.88748 0.0
C1366 C 0.54405 0.57027 0.88927 0.0
C1367 C 0.52719 0.55672 0.87078 0.0
H1368 H 0.62463 0.84356 0.48876 0.0
H1369 H 0.62807 0.8712 0.45446 0.0
H1370 H 0.69017 0.9187 0.49131 0.0
H1371 H 0.687 0.89091 0.52521 0.0
H1372 H 0.65176 0.8276 0.49118 0.0
H1373 H 0.63201 0.86854 0.55576 0.0
H1374 H 0.63833 0.90206 0.58042 0.0
H1375 H 0.6965 0.90641 0.61904 0.0
H1376 H 0.69084 0.87382 0.59343 0.0
H1377 H 0.69404 0.82033 0.58807 0.0
H1378 H 0.6992 0.79298 0.61419 0.0
H1379 H 0.63375 0.74222 0.59 0.0
H1380 H 0.62927 0.76959 0.56255 0.0
H1381 H 0.66213 0.83327 0.59323 0.0
H1382 H 0.68923 0.80248 0.52721 0.0
H1383 H 0.694 0.77788 0.49532 0.0
H1384 H 0.63115 0.75995 0.45706 0.0
H1385 H 0.62604 0.78394 0.48971 0.0
C1386 C 0.65545 0.86513 0.50979 0.0
C1387 C 0.6388 0.86004 0.48982 0.0
C1388 C 0.64075 0.87582 0.47025 0.0
C1389 C 0.65931 0.89708 0.47036 0.0
C1390 C 0.6755 0.90254 0.49108 0.0
C1391 C 0.67367 0.88666 0.5105 0.0
C1392 C 0.65503 0.8472 0.52731 0.0
C1393 C 0.65336 0.82856 0.51362 0.0
C1394 C 0.65831 0.84905 0.55649 0.0
C1395 C 0.66108 0.86869 0.57241 0.0
C1396 C 0.64619 0.87679 0.56942 0.0
C1397 C 0.64964 0.89579 0.58383 0.0
C1398 C 0.66789 0.9069 0.60177 0.0
C1399 C 0.68239 0.89839 0.60521 0.0
C1400 C 0.67906 0.8796 0.5907 0.0
C1401 C 0.66132 0.79699 0.57328 0.0
C1402 C 0.68083 0.80329 0.58834 0.0
C1403 C 0.6837 0.78761 0.60337 0.0
C1404 C 0.66695 0.76528 0.60414 0.0
C1405 C 0.64724 0.75909 0.58933 0.0
C1406 C 0.64455 0.77476 0.57383 0.0
C1407 C 0.65869 0.81378 0.55698 0.0
C1408 C 0.65984 0.83211 0.57088 0.0
C1409 C 0.65562 0.81209 0.52788 0.0
C1410 C 0.6571 0.79485 0.51121 0.0
C1411 C 0.6761 0.79268 0.51264 0.0
C1412 C 0.67894 0.77879 0.49418 0.0
C1413 C 0.66291 0.76687 0.47376 0.0
C1414 C 0.64359 0.76854 0.4729 0.0
C1415 C 0.64073 0.78238 0.49143 0.0
H1416 H 0.16233 0.78478 0.4939 0.0
H1417 H 0.13441 0.75951 0.46091 0.0
H1418 H 0.0879 0.7777 0.49254 0.0
H1419 H 0.11591 0.80318 0.52576 0.0
H1420 H 0.17788 0.82943 0.49367 0.0
H1421 H 0.13776 0.76805 0.55417 0.0
H1422 H 0.10548 0.7401 0.57856 0.0
H1423 H 0.10522 0.79138 0.62888 0.0
H1424 H 0.13553 0.81937 0.60208 0.0
H1425 H 0.18692 0.87729 0.59241 0.0
H1426 H 0.21503 0.90929 0.61804 0.0
H1427 H 0.26494 0.89451 0.5894 0.0
H1428 H 0.23676 0.86268 0.5635 0.0
H1429 H 0.17427 0.83233 0.59612 0.0
H1430 H 0.19439 0.88528 0.51341 0.0
H1431 H 0.22009 0.913 0.48061 0.0
H1432 H 0.2572 0.87838 0.47736 0.0
H1433 H 0.23116 0.85038 0.50953 0.0
C1434 C 0.14114 0.79573 0.51243 0.0
C1435 C 0.14603 0.78311 0.49406 0.0
C1436 C 0.13013 0.76867 0.47528 0.0
C1437 C 0.10916 0.76671 0.47441 0.0
C1438 C 0.10402 0.77895 0.49307 0.0
C1439 C 0.11992 0.79336 0.51204 0.0
C1440 C 0.15893 0.81286 0.52993 0.0
C1441 C 0.17715 0.82976 0.51615 0.0
C1442 C 0.15767 0.81358 0.55927 0.0
C1443 C 0.13882 0.79609 0.57537 0.0
C1444 C 0.13035 0.77341 0.56979 0.0
C1445 C 0.11207 0.75732 0.58423 0.0
C1446 C 0.10222 0.76341 0.60529 0.0
C1447 C 0.1116 0.78601 0.61199 0.0
C1448 C 0.12935 0.80211 0.59694 0.0
C1449 C 0.20977 0.86774 0.5758 0.0
C1450 C 0.2039 0.88086 0.59181 0.0
C1451 C 0.21996 0.89904 0.60663 0.0
C1452 C 0.24219 0.90429 0.606 0.0
C1453 C 0.24797 0.89094 0.59019 0.0
C1454 C 0.23191 0.87281 0.57531 0.0
C1455 C 0.19271 0.84877 0.55967 0.0
C1456 C 0.17478 0.83162 0.57368 0.0
C1457 C 0.19384 0.84774 0.53055 0.0
C1458 C 0.21108 0.86598 0.51407 0.0
C1459 C 0.20829 0.8839 0.50596 0.0
C1460 C 0.22286 0.89961 0.48718 0.0
C1461 C 0.24062 0.89779 0.47655 0.0
C1462 C 0.24378 0.88023 0.48544 0.0
C1463 C 0.22896 0.86429 0.5038 0.0
H1464 H 0.12156 0.31431 0.51584 0.0
H1465 H 0.092 0.31 0.48392 0.0
H1466 H 0.12243 0.38103 0.47692 0.0
H1467 H 0.15227 0.38524 0.5081 0.0
H1468 H 0.1751 0.35482 0.49172 0.0
H1469 H 0.13692 0.31721 0.59547 0.0
H1470 H 0.10376 0.30855 0.62153 0.0
H1471 H 0.10401 0.36625 0.58719 0.0
H1472 H 0.13795 0.37552 0.56207 0.0
H1473 H 0.22101 0.37763 0.59835 0.0
H1474 H 0.25029 0.37439 0.62301 0.0
H1475 H 0.23804 0.31874 0.57142 0.0
H1476 H 0.20836 0.32147 0.54747 0.0
H1477 H 0.17781 0.34966 0.59415 0.0
H1478 H 0.23907 0.37982 0.52456 0.0
H1479 H 0.26455 0.37633 0.49254 0.0
H1480 H 0.20945 0.31972 0.4543 0.0
H1481 H 0.18443 0.3228 0.4865 0.0
C1482 C 0.1389 0.35009 0.5145 0.0
C1483 C 0.12159 0.32894 0.50781 0.0
C1484 C 0.10482 0.3265 0.48953 0.0
C1485 C 0.10497 0.34521 0.47797 0.0
C1486 C 0.12185 0.36638 0.48566 0.0
C1487 C 0.13885 0.3688 0.50348 0.0
C1488 C 0.15843 0.35246 0.52986 0.0
C1489 C 0.17594 0.35402 0.51417 0.0
C1490 C 0.15898 0.35081 0.55905 0.0
C1491 C 0.13975 0.34678 0.57631 0.0
C1492 C 0.13005 0.32819 0.59376 0.0
C1493 C 0.11095 0.32313 0.60844 0.0
C1494 C 0.10098 0.33643 0.60584 0.0
C1495 C 0.11123 0.3556 0.58939 0.0
C1496 C 0.13048 0.36076 0.5748 0.0
C1497 C 0.21272 0.3501 0.5706 0.0
C1498 C 0.22457 0.36468 0.59238 0.0
C1499 C 0.24125 0.36282 0.60649 0.0
C1500 C 0.24643 0.34637 0.59902 0.0
C1501 C 0.23452 0.33172 0.57736 0.0
C1502 C 0.21765 0.33338 0.56355 0.0
C1503 C 0.19476 0.35196 0.55595 0.0
C1504 C 0.17743 0.35112 0.57176 0.0
C1505 C 0.1938 0.35317 0.52662 0.0
C1506 C 0.20982 0.35155 0.50796 0.0
C1507 C 0.23257 0.3666 0.50937 0.0
C1508 C 0.24707 0.36472 0.49094 0.0
C1509 C 0.23897 0.34778 0.47087 0.0
C1510 C 0.21623 0.33282 0.46967 0.0
C1511 C 0.20187 0.33467 0.48796 0.0
C1512 C 0.99729 0.41216 0.06747 0.0
C1513 C 0.00983 0.4016 0.07162 0.0
C1514 C 0.99339 0.423 0.08936 0.0
C1515 C 1.00169 0.42345 0.11631 0.0
H1516 H 0.99098 0.41258 0.04696 0.0
H1517 H 0.98432 0.43164 0.08489 0.0
S1518 S 0.0338 0.39614 0.13804 0.0
N1519 N 0.02968 0.39113 0.1044 0.0
N1520 N 0.0217 0.41073 0.14602 0.0
C1521 C 0.01368 0.41221 0.12077 0.0
C1522 C 0.0179 0.40147 0.09831 0.0
C1523 C 0.62444 0.60298 0.09784 0.0
C1524 C 0.61475 0.60598 0.07366 0.0
C1525 C 0.61142 0.5881 0.11862 0.0
C1526 C 0.5883 0.57634 0.11617 0.0
H1527 H 0.64215 0.61225 0.10074 0.0
H1528 H 0.61942 0.58593 0.1368 0.0
S1529 S 0.55504 0.57892 0.05737 0.0
N1530 N 0.58078 0.59637 0.04876 0.0
N1531 N 0.55632 0.56874 0.08794 0.0
C1532 C 0.57847 0.57957 0.09238 0.0
C1533 C 0.59169 0.59446 0.07119 0.0
C1534 C 0.39728 0.01532 0.09772 0.0
C1535 C 0.39614 0.00513 0.07218 0.0
C1536 C 0.41188 0.01641 0.1187 0.0
C1537 C 0.42571 0.00716 0.11489 0.0
H1538 H 0.38665 0.0223 0.10159 0.0
H1539 H 0.41211 0.02428 0.13815 0.0
S1540 S 0.42886 0.97889 0.05116 0.0
N1541 N 0.40945 0.98532 0.04415 0.0
N1542 N 0.43768 0.98814 0.08286 0.0
C1543 C 0.42461 0.99692 0.08925 0.0
C1544 C 0.40952 0.99557 0.06815 0.0
C1545 C 0.40854 0.02836 0.93423 0.0
C1546 C 0.39539 0.01061 0.95197 0.0
C1547 C 0.42061 0.02596 0.91273 0.0
C1548 C 0.42025 0.00575 0.90815 0.0
H1549 H 0.41004 0.0445 0.93749 0.0
H1550 H 0.43086 0.04027 0.90007 0.0
S1551 S 0.38815 0.95398 0.9484 0.0
N1552 N 0.38216 0.97187 0.96293 0.0
N1553 N 0.40518 0.96745 0.92282 0.0
C1554 C 0.40649 0.98759 0.92502 0.0
C1555 C 0.39401 0.99 0.94684 0.0
C1556 C 0.02173 0.39955 0.92824 0.0
C1557 C 0.00961 0.39833 0.95201 0.0
C1558 C 0.02422 0.41411 0.90646 0.0
C1559 C 0.01422 0.4274 0.90765 0.0
H1560 H 0.02919 0.38912 0.92644 0.0
H1561 H 0.03386 0.41487 0.88856 0.0
S1562 S 0.98032 0.42974 0.96485 0.0
N1563 N 0.98716 0.41116 0.97512 0.0
N1564 N 0.99172 0.43838 0.93412 0.0
C1565 C 1.00181 0.42603 0.93105 0.0
C1566 C 0.99937 0.41136 0.95318 0.0
C1567 C 0.60733 0.58322 0.94431 0.0
C1568 C 0.61261 0.60433 0.95447 0.0
C1569 C 0.59242 0.57331 0.9223 0.0
C1570 C 0.58202 0.58397 0.90937 0.0
H1571 H 0.61444 0.57394 0.95374 0.0
H1572 H 0.58852 0.55682 0.91589 0.0
S1573 S 0.59105 0.63998 0.92613 0.0
N1574 N 0.60684 0.63603 0.94857 0.0
N1575 N 0.57889 0.61729 0.90705 0.0
C1576 C 0.58746 0.60527 0.91866 0.0
C1577 C 0.60273 0.61546 0.94115 0.0
C1578 C 0.99979 0.59133 0.95078 0.0
C1579 C 0.01018 0.61445 0.94771 0.0
C1580 C 1.00085 0.57793 0.92978 0.0
C1581 C 0.012 0.58722 0.90489 0.0
H1582 H 0.99114 0.58362 0.96975 0.0
H1583 H 0.99313 0.56022 0.93312 0.0
S1584 S 0.03809 0.64623 0.8846 0.0
N1585 N 0.02929 0.64566 0.91648 0.0
N1586 N 0.03161 0.62049 0.87717 0.0
C1587 C 0.02161 0.61017 0.9011 0.0
C1588 C 0.02051 0.62379 0.92244 0.0
C1589 C 0.41205 0.42073 0.96192 0.0
C1590 C 0.39655 0.39843 0.95707 0.0
C1591 C 0.42241 0.43532 0.93982 0.0
C1592 C 0.41792 0.42802 0.91207 0.0
H1593 H 0.41654 0.42683 0.98298 0.0
H1594 H 0.43466 0.45227 0.94455 0.0
S1595 S 0.37805 0.37112 0.88861 0.0
N1596 N 0.37668 0.36969 0.92284 0.0
N1597 N 0.39625 0.39704 0.8811 0.0
C1598 C 0.40209 0.40577 0.90701 0.0
C1599 C 0.39137 0.39099 0.92957 0.0
C1600 C 0.59957 0.01557 0.95684 0.0
C1601 C 0.61272 0.00566 0.95349 0.0
C1602 C 0.58595 0.01545 0.93526 0.0
C1603 C 0.58563 0.00616 0.90916 0.0
H1604 H 0.59938 0.02293 0.97655 0.0
H1605 H 0.5753 0.02238 0.93927 0.0
S1606 S 0.62068 0.98217 0.88858 0.0
N1607 N 0.62681 0.98868 0.92164 0.0
N1608 N 0.60185 0.98919 0.88047 0.0
C1609 C 0.59972 0.99727 0.90519 0.0
C1610 C 0.61325 0.99701 0.92744 0.0
C1611 C 0.58665 0.98306 0.0846 0.0
C1612 C 0.60686 0.99952 0.07368 0.0
C1613 C 0.57682 0.9873 0.1072 0.0
C1614 C 0.58664 0.00823 0.11993 0.0
H1615 H 0.57806 0.9667 0.07539 0.0
H1616 H 0.56097 0.97423 0.11419 0.0
S1617 S 0.64013 0.05679 0.10102 0.0
N1618 N 0.63686 0.03749 0.07852 0.0
N1619 N 0.61824 0.04533 0.12114 0.0
C1620 C 0.60708 0.02473 0.10988 0.0
C1621 C 0.61723 0.0204 0.08682 0.0
C1622 C 0.03036 0.6088 0.07802 0.0
C1623 C 0.01496 0.615 0.0685 0.0
C1624 C 0.02592 0.59465 0.1008 0.0
C1625 C 0.00587 0.58598 0.1151 0.0
H1626 H 0.04591 0.61456 0.06751 0.0
H1627 H 0.03808 0.58993 0.10675 0.0
S1628 S 0.96059 0.59817 0.10049 0.0
N1629 N 0.97914 0.61212 0.07656 0.0
N1630 N 0.97098 0.58555 0.11939 0.0
C1631 C 0.99054 0.59242 0.10645 0.0
C1632 C 0.99504 0.60692 0.08323 0.0
C1633 C 0.40642 0.4149 0.07383 0.0
C1634 C 0.39461 0.39167 0.07533 0.0
C1635 C 0.42127 0.42753 0.09494 0.0
C1636 C 0.4245 0.41733 0.11843 0.0
H1637 H 0.40451 0.42332 0.05592 0.0
H1638 H 0.43057 0.44536 0.09265 0.0
S1639 S 0.39413 0.35744 0.13482 0.0
N1640 N 0.38466 0.35924 0.10391 0.0
N1641 N 0.41286 0.38294 0.14345 0.0
C1642 C 0.41197 0.39421 0.1208 0.0
C1643 C 0.39683 0.38137 0.09934 0.0
C1644 C 0.69166 0.75451 0.41556 0.0
C1645 C 0.67576 0.73323 0.40634 0.0
C1646 C 0.68752 0.7649 0.43774 0.0
C1647 C 0.66731 0.75453 0.45181 0.0
H1648 H 0.70736 0.76357 0.40519 0.0
H1649 H 0.70007 0.78152 0.44337 0.0
S1650 S 0.62081 0.69813 0.43805 0.0
N1651 N 0.63933 0.70162 0.41453 0.0
N1652 N 0.63176 0.72124 0.45635 0.0
C1653 C 0.65149 0.73304 0.44354 0.0
C1654 C 0.65567 0.72238 0.42086 0.0
C1655 C 0.25866 0.93004 0.40901 0.0
C1656 C 0.28174 0.94164 0.41153 0.0
C1657 C 0.24548 0.91597 0.43022 0.0
C1658 C 0.25493 0.91333 0.45486 0.0
H1659 H 0.25077 0.93158 0.3903 0.0
H1660 H 0.22777 0.90684 0.42717 0.0
S1661 S 0.31426 0.94347 0.47371 0.0
N1662 N 0.31331 0.952 0.44191 0.0
N1663 N 0.28857 0.92533 0.48174 0.0
C1664 C 0.27795 0.92562 0.4581 0.0
C1665 C 0.29134 0.93995 0.4365 0.0
C1666 C 0.07197 0.32818 0.41069 0.0
C1667 C 0.06014 0.33972 0.4116 0.0
C1668 C 0.0862 0.3298 0.43246 0.0
C1669 C 0.08872 0.34268 0.45614 0.0
H1670 H 0.07064 0.31827 0.39268 0.0
H1671 H 0.09564 0.3213 0.43048 0.0
S1672 S 0.05772 0.37211 0.47106 0.0
N1673 N 0.04927 0.36166 0.43968 0.0
N1674 N 0.07615 0.36491 0.48062 0.0
C1675 C 0.07604 0.3533 0.45793 0.0
C1676 C 0.06158 0.35165 0.43572 0.0
C1677 C 0.08794 0.35256 0.28281 0.0
C1678 C 0.06646 0.33773 0.29207 0.0
C1679 C 0.09727 0.34746 0.26038 0.0
C1680 C 0.08567 0.32725 0.24611 0.0
H1681 H 0.09784 0.36838 0.29296 0.0
H1682 H 0.11395 0.35938 0.25446 0.0
S1683 S 0.02883 0.28265 0.26107 0.0
N1684 N 0.03371 0.30184 0.28456 0.0
N1685 N 0.05141 0.29238 0.24229 0.0
C1686 C 0.0642 0.3122 0.25491 0.0
C1687 C 0.05457 0.31742 0.27782 0.0
C1688 C 0.66556 0.74549 0.28808 0.0
C1689 C 0.67369 0.73067 0.28517 0.0
C1690 C 0.66808 0.76038 0.26679 0.0
C1691 C 0.67815 0.76035 0.24169 0.0
H1692 H 0.65758 0.74582 0.30712 0.0
H1693 H 0.66213 0.77199 0.26994 0.0
S1694 S 0.69908 0.72255 0.22229 0.0
N1695 N 0.6902 0.71535 0.25439 0.0
N1696 N 0.69475 0.74329 0.21422 0.0
C1697 C 0.68553 0.74505 0.2381 0.0
C1698 C 0.68322 0.73009 0.25987 0.0
C1699 C 0.28359 0.93863 0.26634 0.0
C1700 C 0.2764 0.9377 0.29366 0.0
C1701 C 0.26838 0.92836 0.24455 0.0
C1702 C 0.24548 0.91665 0.24944 0.0
H1703 H 0.30106 0.94697 0.26188 0.0
H1704 H 0.27461 0.92933 0.22379 0.0
S1705 S 0.21872 0.90929 0.31801 0.0
N1706 N 0.24532 0.92465 0.3247 0.0
N1707 N 0.21667 0.90461 0.28424 0.0
C1708 C 0.23823 0.91592 0.27685 0.0
C1709 C 0.25372 0.92659 0.29886 0.0
C1710 C 0.66468 0.92483 0.28401 0.0
C1711 C 0.67626 0.94807 0.28275 0.0
C1712 C 0.66606 0.91203 0.26248 0.0
C1713 C 0.67877 0.92206 0.23878 0.0
H1714 H 0.65483 0.91652 0.30202 0.0
H1715 H 0.65741 0.89417 0.26457 0.0
S1716 S 0.70847 0.98209 0.22308 0.0
N1717 N 0.6982 0.98047 0.25433 0.0
N1718 N 0.7011 0.95642 0.21397 0.0
C1719 C 0.68958 0.94524 0.23672 0.0
C1720 C 0.68813 0.95825 0.25862 0.0
C1721 C 0.07298 0.75039 0.29338 0.0
C1722 C 0.06296 0.72738 0.28985 0.0
C1723 C 0.08379 0.76488 0.27133 0.0
C1724 C 0.08488 0.75688 0.24486 0.0
H1725 H 0.07319 0.75724 0.31363 0.0
H1726 H 0.09211 0.78251 0.27542 0.0
S1727 S 0.05901 0.69762 0.22463 0.0
N1728 N 0.05355 0.69701 0.25801 0.0
N1729 N 0.07313 0.72409 0.21611 0.0
C1730 C 0.07402 0.73374 0.24091 0.0
C1731 C 0.06326 0.71903 0.26353 0.0
C1732 C 0.27025 0.34915 0.28415 0.0
C1733 C 0.2803 0.33601 0.28483 0.0
C1734 C 0.25583 0.34714 0.26261 0.0
C1735 C 0.25014 0.33131 0.24109 0.0
H1736 H 0.27326 0.36087 0.3007 0.0
H1737 H 0.24906 0.35818 0.26328 0.0
S1738 S 0.27928 0.29914 0.22893 0.0
N1739 N 0.28936 0.31187 0.25875 0.0
N1740 N 0.26058 0.30592 0.21942 0.0
C1741 C 0.26218 0.31973 0.24028 0.0
C1742 C 0.27757 0.32254 0.26192 0.0
C1743 C 0.26188 0.31989 0.42497 0.0
C1744 C 0.2761 0.33695 0.40707 0.0
C1745 C 0.25103 0.32392 0.44653 0.0
C1746 C 0.25371 0.34514 0.45097 0.0
H1747 H 0.25866 0.30309 0.42188 0.0
H1748 H 0.23983 0.3101 0.4593 0.0
S1749 S 0.28994 0.39578 0.41081 0.0
N1750 N 0.29326 0.37616 0.3961 0.0
N1751 N 0.27242 0.38369 0.43644 0.0
C1752 C 0.26868 0.36261 0.43409 0.0
C1753 C 0.27996 0.35852 0.41217 0.0
C1754 C 0.66767 0.92016 0.39728 0.0
C1755 C 0.67296 0.94225 0.40148 0.0
C1756 C 0.66256 0.90552 0.41967 0.0
C1757 C 0.66293 0.91258 0.44711 0.0
H1758 H 0.66767 0.91419 0.37656 0.0
H1759 H 0.65897 0.88873 0.41555 0.0
S1760 S 0.67519 0.96874 0.46888 0.0
N1761 N 0.67764 0.97043 0.43474 0.0
N1762 N 0.66841 0.94301 0.47708 0.0
C1763 C 0.66787 0.93459 0.45151 0.0
C1764 C 0.67275 0.9494 0.4286 0.0
C1765 C 0.07673 0.74976 0.40699 0.0
C1766 C 0.0637 0.72669 0.40987 0.0
C1767 C 0.09146 0.76263 0.42805 0.0
C1768 C 0.09317 0.75287 0.45287 0.0
H1769 H 0.07572 0.75782 0.38816 0.0
H1770 H 0.10162 0.78031 0.42492 0.0
S1771 S 0.06007 0.69384 0.47239 0.0
N1772 N 0.05162 0.69504 0.4406 0.0
N1773 N 0.07947 0.71928 0.48017 0.0
C1774 C 0.07967 0.73 0.45644 0.0
C1775 C 0.06476 0.71689 0.43496 0.0
C1776 C 0.325 0.05932 0.75349 0.0
C1777 C 0.34581 0.06979 0.74062 0.0
C1778 C 0.32017 0.06935 0.77561 0.0
C1779 C 0.33593 0.09023 0.78588 0.0
H1780 H 0.31215 0.04337 0.7462 0.0
H1781 H 0.30387 0.06074 0.78461 0.0
S1782 S 0.3928 0.12499 0.75965 0.0
N1783 N 0.38242 0.10244 0.74038 0.0
N1784 N 0.37305 0.12126 0.78127 0.0
C1785 C 0.35685 0.10079 0.77352 0.0
C1786 C 0.36185 0.0906 0.75111 0.0
C1787 C 0.95553 0.27 0.76561 0.0
C1788 C 0.94584 0.27311 0.74151 0.0
C1789 C 0.94247 0.25591 0.78694 0.0
C1790 C 0.91933 0.24507 0.78518 0.0
H1791 H 0.9733 0.27847 0.76793 0.0
H1792 H 0.95049 0.25352 0.80495 0.0
S1793 S 0.88606 0.24844 0.72688 0.0
N1794 N 0.91187 0.26473 0.71743 0.0
N1795 N 0.88732 0.23855 0.75768 0.0
C1796 C 0.9095 0.24854 0.76154 0.0
C1797 C 0.92277 0.26265 0.73976 0.0
C1798 C 0.73068 0.68062 0.7642 0.0
C1799 C 0.72918 0.66994 0.73894 0.0
C1800 C 0.74516 0.68159 0.7853 0.0
C1801 C 0.75858 0.67183 0.78186 0.0
H1802 H 0.72045 0.68811 0.76775 0.0
H1803 H 0.74567 0.68987 0.80452 0.0
S1804 S 0.76068 0.64217 0.71887 0.0
N1805 N 0.74163 0.64904 0.7116 0.0
N1806 N 0.76976 0.65179 0.75038 0.0
C1807 C 0.75708 0.66106 0.7565 0.0
C1808 C 0.74204 0.65976 0.73533 0.0
C1809 C 0.75006 0.68823 0.60839 0.0
C1810 C 0.7293 0.67253 0.61882 0.0
C1811 C 0.75972 0.6833 0.58617 0.0
C1812 C 0.74913 0.66244 0.57321 0.0
H1813 H 0.75933 0.70445 0.6178 0.0
H1814 H 0.77601 0.69579 0.57966 0.0
S1815 S 0.69385 0.61589 0.59055 0.0
N1816 N 0.69791 0.63542 0.61313 0.0
N1817 N 0.71614 0.62635 0.57113 0.0
C1818 C 0.72811 0.64674 0.58271 0.0
C1819 C 0.71818 0.65174 0.60546 0.0
C1820 C 0.35482 0.06737 0.59585 0.0
C1821 C 0.34318 0.06681 0.6198 0.0
C1822 C 0.35773 0.08202 0.57404 0.0
C1823 C 0.34871 0.09616 0.57545 0.0
H1824 H 0.36164 0.05638 0.59395 0.0
H1825 H 0.36702 0.08228 0.55601 0.0
S1826 S 0.31625 0.1004 0.63312 0.0
N1827 N 0.32208 0.08107 0.64326 0.0
N1828 N 0.32754 0.10861 0.60225 0.0
C1829 C 0.33674 0.09545 0.59902 0.0
C1830 C 0.3338 0.08061 0.62114 0.0
C1831 C 0.93837 0.24813 0.6118 0.0
C1832 C 0.94403 0.26929 0.62215 0.0
C1833 C 0.92384 0.23879 0.58933 0.0
C1834 C 0.91421 0.25009 0.57616 0.0
H1835 H 0.94495 0.23841 0.62134 0.0
H1836 H 0.91961 0.22224 0.58274 0.0
S1837 S 0.92436 0.3064 0.59351 0.0
N1838 N 0.93939 0.30168 0.61634 0.0
N1839 N 0.91212 0.284 0.57394 0.0
C1840 C 0.92002 0.27143 0.58568 0.0
C1841 C 0.93493 0.28106 0.60863 0.0
C1842 C 0.33226 0.25827 0.61663 0.0
C1843 C 0.34334 0.2815 0.61497 0.0
C1844 C 0.33396 0.24547 0.59535 0.0
C1845 C 0.34649 0.25548 0.57152 0.0
H1846 H 0.3226 0.24999 0.63478 0.0
H1847 H 0.32572 0.22764 0.59773 0.0
S1848 S 0.37474 0.31531 0.55473 0.0
N1849 N 0.3645 0.31375 0.58598 0.0
N1850 N 0.36801 0.28971 0.5461 0.0
C1851 C 0.35674 0.27861 0.56904 0.0
C1852 C 0.35496 0.29162 0.59068 0.0
C1853 C 0.75469 0.06877 0.61343 0.0
C1854 C 0.73365 0.06361 0.62321 0.0
C1855 C 0.76446 0.0831 0.59101 0.0
C1856 C 0.75376 0.09307 0.57717 0.0
H1857 H 0.764 0.06189 0.62333 0.0
H1858 H 0.78086 0.08683 0.58491 0.0
S1859 S 0.69809 0.08452 0.59305 0.0
N1860 N 0.70211 0.06927 0.61631 0.0
N1861 N 0.72056 0.09617 0.57395 0.0
C1862 C 0.73259 0.08789 0.58623 0.0
C1863 C 0.72252 0.07316 0.60918 0.0
C1864 C 0.94034 0.65541 0.59554 0.0
C1865 C 0.94594 0.67065 0.61729 0.0
C1866 C 0.92525 0.65356 0.5748 0.0
C1867 C 0.91614 0.6678 0.57419 0.0
H1868 H 0.94706 0.64429 0.59508 0.0
H1869 H 0.92007 0.64015 0.56011 0.0
S1870 S 0.93347 0.71669 0.62031 0.0
N1871 N 0.9457 0.70355 0.63362 0.0
N1872 N 0.91986 0.70224 0.59274 0.0
C1873 C 0.92465 0.68546 0.5935 0.0
C1874 C 0.93906 0.6865 0.61538 0.0
C1875 C 0.91966 0.64999 0.75004 0.0
C1876 C 0.93951 0.66654 0.73844 0.0
C1877 C 0.91019 0.65424 0.773 0.0
C1878 C 0.92004 0.67526 0.78548 0.0
H1879 H 0.91108 0.63351 0.74117 0.0
H1880 H 0.89461 0.64106 0.78052 0.0
S1881 S 0.97265 0.72415 0.76459 0.0
N1882 N 0.96917 0.70473 0.74216 0.0
N1883 N 0.95126 0.71263 0.78553 0.0
C1884 C 0.94012 0.6919 0.77466 0.0
C1885 C 0.94989 0.68755 0.7512 0.0
C1886 C 0.35748 0.27052 0.74519 0.0
C1887 C 0.34231 0.27676 0.73489 0.0
C1888 C 0.35248 0.25616 0.76779 0.0
C1889 C 0.33205 0.24726 0.78119 0.0
H1890 H 0.37344 0.2766 0.73563 0.0
H1891 H 0.3646 0.2516 0.77444 0.0
S1892 S 0.28669 0.25874 0.76366 0.0
N1893 N 0.30598 0.27318 0.7407 0.0
N1894 N 0.29672 0.24618 0.78334 0.0
C1895 C 0.31674 0.25345 0.77152 0.0
C1896 C 0.32185 0.26821 0.74842 0.0
C1897 C 0.7419 0.08288 0.74139 0.0
C1898 C 0.72971 0.05969 0.74327 0.0
C1899 C 0.75615 0.09558 0.76293 0.0
C1900 C 0.75834 0.08554 0.78727 0.0
H1901 H 0.74074 0.09119 0.7229 0.0
H1902 H 0.76576 0.11337 0.76036 0.0
S1903 S 0.72651 0.02586 0.80458 0.0
N1904 N 0.71826 0.02749 0.77283 0.0
N1905 N 0.74526 0.05134 0.81327 0.0
C1906 C 0.74542 0.06246 0.78992 0.0
C1907 C 0.73091 0.04954 0.76799 0.0
C1908 C 0.07091 0.34841 0.03388 0.0
C1909 C 0.05141 0.34618 0.04519 0.0
C1910 C 0.08406 0.34181 0.04867 0.0
C1911 C 0.07849 0.3331 0.07566 0.0
H1912 H 0.07636 0.35576 0.0136 0.0
H1913 H 0.09904 0.34409 0.03911 0.0
S1914 S 0.02896 0.32383 0.11465 0.0
N1915 N 0.02672 0.33411 0.08457 0.0
N1916 N 0.05184 0.32229 0.11297 0.0
C1917 C 0.05863 0.33014 0.08695 0.0
C1918 C 0.04502 0.33658 0.07159 0.0
C1919 C 0.65128 0.71318 0.05329 0.0
C1920 C 0.66846 0.70859 0.04866 0.0
C1921 C 0.65522 0.73284 0.06631 0.0
C1922 C 0.67665 0.74906 0.07455 0.0
H1923 H 0.63449 0.70111 0.04767 0.0
H1924 H 0.64116 0.73502 0.07047 0.0
S1925 S 0.72766 0.74553 0.06403 0.0
N1926 N 0.70767 0.72172 0.0521 0.0
N1927 N 0.7156 0.75953 0.07469 0.0
C1928 C 0.69413 0.74485 0.06901 0.0
C1929 C 0.68992 0.72444 0.05651 0.0
C1930 C 0.27928 0.94077 0.03969 0.0
C1931 C 0.29446 0.96038 0.0534 0.0
C1932 C 0.26044 0.92442 0.05322 0.0
C1933 C 0.25596 0.92701 0.08099 0.0
H1934 H 0.28218 0.93778 0.01851 0.0
H1935 H 0.24934 0.90955 0.04187 0.0
S1936 S 0.29043 0.97513 0.12642 0.0
N1937 N 0.30342 0.98145 0.09647 0.0
N1938 N 0.26843 0.95063 0.1218 0.0
C1939 C 0.27081 0.94666 0.09481 0.0
C1940 C 0.28992 0.96333 0.08106 0.0
C1941 C 0.33562 0.04849 0.96242 0.0
C1942 C 0.34464 0.05417 0.98935 0.0
C1943 C 0.33018 0.06253 0.9472 0.0
C1944 C 0.33339 0.08264 0.95849 0.0
H1945 H 0.33389 0.03373 0.95248 0.0
H1946 H 0.32438 0.05808 0.92602 0.0
S1947 S 0.35282 0.10293 0.03004 0.0
N1948 N 0.35426 0.07995 0.02769 0.0
N1949 N 0.3433 0.1058 0.99972 0.0
C1950 C 0.34094 0.08762 0.98612 0.0
C1951 C 0.34676 0.07354 1.00137 0.0
C1952 C 0.93791 0.29302 0.97481 0.0
C1953 C 0.95918 0.29661 0.98055 0.0
C1954 C 0.9222 0.27366 0.96148 0.0
C1955 C 0.92696 0.25681 0.954 0.0
H1956 H 0.93364 0.30567 0.9797 0.0
H1957 H 0.90639 0.27223 0.95638 0.0
S1958 S 0.97993 0.25757 0.96784 0.0
N1959 N 0.98422 0.28181 0.97922 0.0
N1960 N 0.9543 0.24455 0.95602 0.0
C1961 C 0.94808 0.25997 0.96081 0.0
C1962 C 0.96427 0.28006 0.97364 0.0
C1963 C 0.70798 0.65468 0.95284 0.0
C1964 C 0.70849 0.65635 0.98188 0.0
C1965 C 0.7272 0.66009 0.93791 0.0
C1966 C 0.7476 0.66735 0.95153 0.0
H1967 H 0.69248 0.64841 0.94167 0.0
H1968 H 0.726 0.65817 0.91556 0.0
S1969 S 0.75746 0.67492 0.02755 0.0
N1970 N 0.73088 0.66631 0.02375 0.0
N1971 N 0.76699 0.67622 0.99594 0.0
C1972 C 0.74834 0.66968 0.9806 0.0
C1973 C 0.72876 0.66417 0.99573 0.0
C1974 C 0.9664 0.67849 0.94774 0.0
C1975 C 0.96547 0.67212 0.97571 0.0
C1976 C 0.94994 0.68208 0.93592 0.0
C1977 C 0.93188 0.6795 0.95157 0.0
H1978 H 0.97955 0.68002 0.9345 0.0
H1979 H 0.95099 0.68612 0.91405 0.0
S1980 S 0.92298 0.66572 0.02651 0.0
N1981 N 0.94581 0.66514 0.01933 0.0
N1982 N 0.9151 0.6722 0.99717 0.0
C1983 C 0.93125 0.67413 0.97987 0.0
C1984 C 0.94798 0.6704 0.99192 0.0
C1985 C 0.32824 0.2836 0.97788 0.0
C1986 C 0.34919 0.30236 0.97455 0.0
C1987 C 0.32234 0.26377 0.96348 0.0
C1988 C 0.3372 0.26211 0.94533 0.0
H1989 H 0.31673 0.28394 0.99256 0.0
H1990 H 0.30642 0.24941 0.96741 0.0
S1991 S 0.39247 0.30752 0.92584 0.0
N1992 N 0.38369 0.31868 0.94917 0.0
N1993 N 0.37258 0.28163 0.92234 0.0
C1994 C 0.3576 0.28113 0.94062 0.0
C1995 C 0.36359 0.30119 0.95517 0.0
C1996 C 0.71723 0.04369 0.95387 0.0
C1997 C 0.71232 0.0464 0.98139 0.0
C1998 C 0.73659 0.05954 0.94102 0.0
C1999 C 0.7519 0.07879 0.95514 0.0
H2000 H 0.7057 0.02954 0.9417 0.0
H2001 H 0.73917 0.05705 0.9195 0.0
S2002 S 0.74831 0.09269 0.02849 0.0
N2003 N 0.72533 0.0691 0.02306 0.0
N2004 N 0.76189 0.09875 0.99895 0.0
C2005 C 0.74774 0.08127 0.98305 0.0
C2006 C 0.72796 0.06511 0.99618 0.0
C2007 C 0.63903 0.93282 0.05876 0.0
C2008 C 0.65463 0.95193 0.04477 0.0
C2009 C 0.64518 0.919 0.07277 0.0
C2010 C 0.66719 0.9235 0.07322 0.0
H2011 H 0.62182 0.92849 0.05905 0.0
H2012 H 0.63253 0.90463 0.08341 0.0
S2013 S 0.71443 0.97114 0.03929 0.0
N2014 N 0.69314 0.97469 0.0322 0.0
N2015 N 0.70468 0.94832 0.05808 0.0
C2016 C 0.68307 0.94264 0.05951 0.0
C2017 C 0.6768 0.95692 0.04539 0.0
C2018 C 0.05222 0.71413 0.06292 0.0
C2019 C 0.06009 0.71014 0.03802 0.0
C2020 C 0.06573 0.73259 0.07962 0.0
C2021 C 0.08751 0.74781 0.07184 0.0
H2022 H 0.03591 0.70236 0.07022 0.0
H2023 H 0.05938 0.73448 0.09924 0.0
S2024 S 0.11452 0.7468 0.00626 0.0
N2025 N 0.09024 0.72411 0.00519 0.0
N2026 N 0.1151 0.75914 0.0357 0.0
C2027 C 0.09496 0.74472 0.04609 0.0
C2028 C 0.0814 0.72582 0.02943 0.0
C2029 C 0.28288 0.35002 0.0428 0.0
C2030 C 0.29331 0.33779 0.05063 0.0
C2031 C 0.26387 0.34714 0.05636 0.0
C2032 C 0.25431 0.33161 0.07785 0.0
H2033 H 0.28986 0.36245 0.02667 0.0
H2034 H 0.25664 0.3572 0.05008 0.0
S2035 S 0.27439 0.29477 0.1056 0.0
N2036 N 0.29218 0.30918 0.08108 0.0
N2037 N 0.25618 0.30347 0.10595 0.0
C2038 C 0.26413 0.31885 0.0854 0.0
C2039 C 0.28369 0.32202 0.07195 0.0
C2040 C 0.73623 0.6807 0.36394 0.0
C2041 C 0.71644 0.67771 0.37526 0.0
C2042 C 0.74963 0.67427 0.37844 0.0
C2043 C 0.74404 0.66499 0.40516 0.0
H2044 H 0.74175 0.6886 0.34395 0.0
H2045 H 0.76486 0.6772 0.36893 0.0
S2046 S 0.69361 0.65334 0.44386 0.0
N2047 N 0.69133 0.66407 0.41418 0.0
N2048 N 0.71693 0.65264 0.44211 0.0
C2049 C 0.72384 0.66116 0.41636 0.0
C2050 C 0.70996 0.6674 0.40126 0.0
C2051 C 0.3462 0.04826 0.41172 0.0
C2052 C 0.33945 0.04325 0.3838 0.0
C2053 C 0.35005 0.06824 0.42382 0.0
C2054 C 0.34732 0.08405 0.40849 0.0
H2055 H 0.34783 0.03636 0.42471 0.0
H2056 H 0.35443 0.07096 0.44564 0.0
S2057 S 0.3326 0.08033 0.33376 0.0
N2058 N 0.332 0.05669 0.34054 0.0
N2059 N 0.33949 0.09428 0.36323 0.0
C2060 C 0.34157 0.07973 0.38023 0.0
C2061 C 0.3376 0.05936 0.3679 0.0
C2062 C 0.95557 0.27239 0.38474 0.0
C2063 C 0.96027 0.29431 0.38057 0.0
C2064 C 0.93624 0.25693 0.39812 0.0
C2065 C 0.9204 0.26253 0.40725 0.0
H2066 H 0.96737 0.26735 0.37858 0.0
H2067 H 0.93407 0.24059 0.40192 0.0
S2068 S 0.92414 0.31757 0.398 0.0
N2069 N 0.9475 0.32089 0.38527 0.0
N2070 N 0.91029 0.29157 0.40848 0.0
C2071 C 0.92465 0.28436 0.40206 0.0
C2072 C 0.94475 0.30028 0.38919 0.0
C2073 C 0.99798 0.38513 0.31063 0.0
C2074 C 0.01887 0.38681 0.30826 0.0
C2075 C 0.99286 0.39976 0.29616 0.0
C2076 C 0.00846 0.41648 0.27888 0.0
H2077 H 0.98591 0.37314 0.32465 0.0
H2078 H 0.97693 0.39855 0.29934 0.0
S2079 S 0.06401 0.42525 0.26204 0.0
N2080 N 0.0542 0.4048 0.28475 0.0
N2081 N 0.04452 0.43198 0.25767 0.0
C2082 C 0.02884 0.41736 0.27511 0.0
C2083 C 0.03404 0.40261 0.28976 0.0
C2084 C 0.62824 0.61271 0.30462 0.0
C2085 C 0.62326 0.62943 0.31125 0.0
C2086 C 0.61264 0.59322 0.29122 0.0
C2087 C 0.59173 0.59006 0.28326 0.0
H2088 H 0.64427 0.61471 0.30987 0.0
H2089 H 0.61704 0.58057 0.28707 0.0
S2090 S 0.57203 0.63055 0.2935 0.0
N2091 N 0.59671 0.64233 0.30816 0.0
N2092 N 0.56787 0.60655 0.28143 0.0
C2093 C 0.5869 0.60709 0.28937 0.0
C2094 C 0.60256 0.62658 0.3037 0.0
C2095 C 0.38415 0.97139 0.31664 0.0
C2096 C 0.37389 0.98457 0.3166 0.0
C2097 C 0.4032 0.97728 0.30126 0.0
C2098 C 0.41298 0.99667 0.28519 0.0
H2099 H 0.37741 0.95622 0.3286 0.0
H2100 H 0.41036 0.96651 0.30199 0.0
S2101 S 0.39296 0.03703 0.27742 0.0
N2102 N 0.37521 0.01812 0.29881 0.0
N2103 N 0.41112 0.02912 0.26991 0.0
C2104 C 0.40324 0.01025 0.28514 0.0
C2105 C 0.3837 0.00423 0.30082 0.0
C2106 C 0.61429 0.00383 0.32241 0.0
C2107 C 0.63227 0.006 0.30689 0.0
C2108 C 0.59805 0.00768 0.31038 0.0
C2109 C 0.59911 0.01385 0.28233 0.0
H2110 H 0.61244 0.99865 0.34391 0.0
H2111 H 0.58437 0.0055 0.32306 0.0
S2112 S 0.64276 0.02188 0.23252 0.0
N2113 N 0.65033 0.01518 0.26194 0.0
N2114 N 0.61963 0.02195 0.23933 0.0
C2115 C 0.61725 0.01657 0.26672 0.0
C2116 C 0.63385 0.01276 0.27898 0.0
C2117 C 0.01649 0.61468 0.32985 0.0
C2118 C 0.0136 0.63184 0.31872 0.0
C2119 C 0.01167 0.59581 0.31422 0.0
C2120 C 1.00417 0.59349 0.28654 0.0
H2121 H 0.02306 0.61606 0.35064 0.0
H2122 H 0.01435 0.58315 0.32375 0.0
S2123 S 0.99428 0.63415 0.24756 0.0
N2124 N 1.0025 0.64536 0.27862 0.0
N2125 N 0.99406 0.61023 0.24873 0.0
C2126 C 1.00068 0.61035 0.27536 0.0
C2127 C 0.00528 0.62945 0.29155 0.0
C2128 C 0.39526 0.37605 0.30686 0.0
C2129 C 0.37851 0.38084 0.31363 0.0
C2130 C 0.41437 0.39178 0.29318 0.0
C2131 C 0.41707 0.41257 0.28513 0.0
H2132 H 0.39362 0.36014 0.31228 0.0
H2133 H 0.4271 0.38758 0.2889 0.0
S2134 S 0.37619 0.43158 0.29552 0.0
N2135 N 0.36504 0.407 0.31043 0.0
N2136 N 0.40005 0.43598 0.28323 0.0
C2137 C 0.39996 0.41713 0.29131 0.0
C2138 C 0.38089 0.40139 0.30587 0.0
C2139 C 0.30725 0.26855 0.3976 0.0
C2140 C 0.32255 0.28716 0.38258 0.0
C2141 C 0.31345 0.25451 0.41096 0.0
C2142 C 0.33519 0.25834 0.4097 0.0
H2143 H 0.2902 0.26465 0.39897 0.0
H2144 H 0.30102 0.24044 0.42229 0.0
S2145 S 0.38166 0.30473 0.37298 0.0
N2146 N 0.36055 0.3089 0.36749 0.0
N2147 N 0.37218 0.28217 0.39223 0.0
C2148 C 0.35084 0.27712 0.39519 0.0
C2149 C 0.34453 0.2916 0.38172 0.0
C2150 C 0.74124 0.04247 0.39615 0.0
C2151 C 0.72254 0.03919 0.38084 0.0
C2152 C 0.75433 0.06217 0.41069 0.0
C2153 C 0.74945 0.07958 0.41052 0.0
H2154 H 0.74594 0.02974 0.39687 0.0
H2155 H 0.76853 0.0638 0.4221 0.0
S2156 S 0.70246 0.07963 0.37369 0.0
N2157 N 0.69967 0.05509 0.36669 0.0
N2158 N 0.72457 0.0923 0.39375 0.0
C2159 C 0.7306 0.07646 0.39575 0.0
C2160 C 0.71712 0.05626 0.38098 0.0
C2161 C 0.94527 0.67345 0.37317 0.0
C2162 C 0.9623 0.67325 0.38894 0.0
C2163 C 0.92594 0.67067 0.38577 0.0
C2164 C 0.92314 0.66807 0.41467 0.0
H2165 H 0.94694 0.67595 0.35093 0.0
H2166 H 0.9133 0.67107 0.37291 0.0
S2167 S 0.96219 0.66564 0.46538 0.0
N2168 N 0.97455 0.66946 0.43517 0.0
N2169 N 0.93846 0.66466 0.45862 0.0
C2170 C 0.93982 0.66754 0.43064 0.0
C2171 C 0.95931 0.67 0.41784 0.0
C2172 C 0.38316 0.01188 0.74009 0.0
C2173 C 0.38423 0.0128 0.71101 0.0
C2174 C 0.39724 0.00689 0.75573 0.0
C2175 C 0.41268 1.00246 0.74273 0.0
H2176 H 0.37227 0.01628 0.75085 0.0
H2177 H 0.39659 0.00725 0.77816 0.0
S2178 S 0.42053 1.00107 0.66691 0.0
N2179 N 0.40074 0.00749 0.66973 0.0
N2180 N 0.42725 0.99812 0.69898 0.0
C2181 C 0.413 1.00216 0.71358 0.0
C2182 C 0.39879 0.0074 0.69774 0.0
C2183 C 0.01042 0.37977 0.74287 0.0
C2184 C 1.00335 0.37463 0.71505 0.0
C2185 C 0.0138 0.39952 0.75516 0.0
C2186 C 0.01027 0.41496 0.74018 0.0
H2187 H 0.01271 0.36816 0.75561 0.0
H2188 H 0.01851 0.40234 0.77688 0.0
S2189 S 0.99422 0.41077 0.66589 0.0
N2190 N 0.99459 0.38755 0.67228 0.0
N2191 N 1.00119 0.42472 0.69537 0.0
C2192 C 1.00412 0.41051 0.71205 0.0
C2193 C 1.00065 0.39038 0.69949 0.0
C2194 C 0.61166 0.6086 0.7038 0.0
C2195 C 0.62753 0.62739 0.71829 0.0
C2196 C 0.59221 0.59274 0.71672 0.0
C2197 C 0.58782 0.595 0.74464 0.0
H2198 H 0.61443 0.60587 0.68246 0.0
H2199 H 0.58058 0.57848 0.70479 0.0
S2200 S 0.62405 0.64096 0.792 0.0
N2201 N 0.6373 0.64735 0.76223 0.0
N2202 N 0.60113 0.61739 0.78644 0.0
C2203 C 0.60339 0.61385 0.75924 0.0
C2204 C 0.62311 0.63005 0.7461 0.0
C2205 C 0.68618 0.74088 0.66175 0.0
C2206 C 0.68095 0.71991 0.65148 0.0
C2207 C 0.68075 0.75494 0.64683 0.0
C2208 C 0.67031 0.74886 0.62064 0.0
H2209 H 0.69488 0.74666 0.68133 0.0
H2210 H 0.68518 0.77092 0.65573 0.0
S2211 S 0.65346 0.69568 0.58431 0.0
N2212 N 0.66442 0.69345 0.61386 0.0
N2213 N 0.655 0.7202 0.5851 0.0
C2214 C 0.66458 0.72767 0.61036 0.0
C2215 C 0.66974 0.71315 0.62592 0.0
C2216 C 0.29473 0.95877 0.61899 0.0
C2217 C 0.29218 0.96443 0.64622 0.0
C2218 C 0.27873 0.93914 0.60645 0.0
C2219 C 0.25948 0.92428 0.6206 0.0
H2220 H 0.30898 0.96985 0.60687 0.0
H2221 H 0.28119 0.9359 0.58518 0.0
S2222 S 0.24569 0.93008 0.69317 0.0
N2223 N 0.26941 0.95277 0.68755 0.0
N2224 N 0.23948 0.9157 0.66405 0.0
C2225 C 0.25701 0.9293 0.64815 0.0
C2226 C 0.27331 0.94937 0.66094 0.0
C2227 C 0.05651 0.33819 0.64975 0.0
C2228 C 0.03906 0.31621 0.64815 0.0
C2229 C 0.07643 0.3448 0.6357 0.0
C2230 C 0.07952 0.3297 0.61951 0.0
H2231 H 0.055 0.35018 0.66252 0.0
H2232 H 0.08967 0.3617 0.63807 0.0
S2233 S 0.03779 0.27123 0.60523 0.0
N2234 N 0.02551 0.28 0.62686 0.0
N2235 N 0.06263 0.29252 0.60036 0.0
C2236 C 0.06184 0.308 0.61678 0.0
C2237 C 0.04171 0.30125 0.63111 0.0
C2238 C 0.29771 0.34131 0.61124 0.0
C2239 C 0.29735 0.33743 0.64001 0.0
C2240 C 0.28139 0.3445 0.59827 0.0
C2241 C 0.26424 0.34434 0.6136 0.0
H2242 H 0.3103 0.34115 0.59838 0.0
H2243 H 0.28206 0.34692 0.576 0.0
S2244 S 0.25623 0.33607 0.68956 0.0
N2245 N 0.27865 0.33438 0.68354 0.0
N2246 N 0.24818 0.34074 0.65914 0.0
C2247 C 0.26404 0.34125 0.64246 0.0
C2248 C 0.28051 0.33769 0.65567 0.0
C2249 C 0.70027 0.96525 0.63057 0.0
C2250 C 0.6847 0.96786 0.64616 0.0
C2251 C 0.69444 0.9458 0.61581 0.0
C2252 C 0.67278 0.9279 0.61604 0.0
H2253 H 0.7173 0.97836 0.62986 0.0
H2254 H 0.70715 0.94473 0.60425 0.0
S2255 S 0.62553 0.9262 0.65318 0.0
N2256 N 0.64641 0.951 0.66035 0.0
N2257 N 0.63547 0.91412 0.63289 0.0
C2258 C 0.65681 0.93039 0.63093 0.0
C2259 C 0.66276 0.95041 0.64591 0.0
C2260 C 0.0609 0.70912 0.64024 0.0
C2261 C 0.04362 0.71306 0.64723 0.0
C2262 C 0.07995 0.72557 0.62714 0.0
C2263 C 0.08211 0.74632 0.61992 0.0
H2264 H 0.0597 0.69329 0.645 0.0
H2265 H 0.09307 0.72198 0.62267 0.0
S2266 S 0.03979 0.76331 0.63115 0.0
N2267 N 0.02911 0.7384 0.64508 0.0
N2268 N 0.06402 0.76876 0.61902 0.0
C2269 C 0.06448 0.75004 0.62632 0.0
C2270 C 0.04546 0.73354 0.64027 0.0
C2271 C 0.00598 0.6196 0.71248 0.0
C2272 C 0.98462 0.61683 0.71417 0.0
C2273 C 0.01157 0.60524 0.72663 0.0
C2274 C 0.996 0.58774 0.74301 0.0
H2275 H 0.01821 0.63246 0.69944 0.0
H2276 H 0.02796 0.60744 0.72411 0.0
S2277 S 0.93902 0.57573 0.75773 0.0
N2278 N 0.94862 0.59673 0.73583 0.0
N2279 N 0.95923 0.57011 0.76258 0.0
C2280 C 0.97499 0.58558 0.74595 0.0
C2281 C 0.96928 0.60002 0.7315 0.0
C2282 C 0.40702 0.37507 0.72912 0.0
C2283 C 0.38899 0.37264 0.71302 0.0
C2284 C 0.42016 0.39437 0.74429 0.0
C2285 C 0.41603 0.41228 0.74393 0.0
H2286 H 0.41118 0.36194 0.72996 0.0
H2287 H 0.43384 0.39533 0.75625 0.0
S2288 S 0.37073 0.41442 0.70542 0.0
N2289 N 0.36734 0.38967 0.69817 0.0
N2290 N 0.39239 0.42629 0.72635 0.0
C2291 C 0.39775 0.40997 0.72849 0.0
C2292 C 0.38417 0.3901 0.71311 0.0
C2293 C 0.61297 0.00736 0.70331 0.0
C2294 C 0.62934 0.0057 0.7189 0.0
C2295 C 0.59378 0.00503 0.71592 0.0
C2296 C 0.59045 1.00133 0.74462 0.0
H2297 H 0.6152 0.01093 0.68131 0.0
H2298 H 0.58186 0.00693 0.70332 0.0
S2299 S 0.62731 0.9945 0.79469 0.0
N2300 N 0.64005 0.99895 0.76467 0.0
N2301 N 0.60433 0.9951 0.78806 0.0
C2302 C 0.60627 0.99904 0.76029 0.0
C2303 C 0.6256 1.00106 0.74751 0.0
loop_
_geom_bond_atom_site_label_1
_geom_bond_atom_site_label_2
_geom_bond_distance
_geom_bond_site_symmetry_2
_ccdc_geom_bond_type
Mn0 O5 2.095 1_655 S
Mn0 O15 2.162 . S
Mn0 O16 2.297 1_554 S
Mn0 O24 2.385 1_554 S
Mn0 O25 2.209 1_654 S
Mn0 O26 2.094 . S
Mn1 O6 2.121 . S
Mn1 N8 2.257 1_554 S
Mn1 N17 2.293 . S
Mn1 O25 2.215 1_554 S
Mn1 O27 2.117 . S
C2 O24 1.234 1_455 S
C2 O25 1.283 . S
C3 O15 1.281 1_556 S
C3 O16 1.236 . S
C4 O26 1.255 . S
C4 O27 1.228 1_655 S
O5 Mn0 2.095 1_455 S
O5 C14 1.250 . S
O6 Mn1 2.121 . S
O6 C14 1.258 . S
C7 N8 1.326 . S
C7 C11 1.460 . S
C7 H13 0.929 . S
N8 Mn1 2.257 1_556 S
N8 C7 1.326 . S
N8 C12 1.362 . S
C9 C10 1.258 . S
C9 C12 1.431 . S
C9 C29 1.449 . S
C10 C9 1.258 . S
C10 C11 1.477 . S
C10 H30 0.931 . S
C11 C7 1.460 . S
C11 C10 1.477 . S
C11 H31 0.930 . S
C12 N8 1.362 . S
C12 C9 1.431 . S
C12 C22 1.476 . S
H13 C7 0.929 . S
C14 O5 1.250 . S
C14 O6 1.258 . S
O15 Mn0 2.162 . S
O15 C3 1.281 1_554 S
O16 Mn0 2.297 1_556 S
O16 C3 1.236 . S
N17 Mn1 2.293 . S
N17 C18 1.336 . S
N17 C22 1.296 1_554 S
C18 N17 1.336 . S
C18 C19 1.457 1_554 S
C18 H23 0.929 . S
C19 C18 1.457 1_556 S
C19 C20 1.291 . S
C19 H32 0.931 . S
C20 C19 1.291 . S
C20 C21 1.373 . S
C20 H33 0.929 . S
C21 C20 1.373 . S
C21 C22 1.396 . S
C21 C28 1.403 . S
C22 C12 1.476 . S
C22 N17 1.296 1_556 S
C22 C21 1.396 . S
H23 C18 0.929 . S
O24 Mn0 2.385 1_556 S
O24 C2 1.234 1_655 S
O25 Mn0 2.209 1_456 S
O25 Mn1 2.215 1_556 S
O25 C2 1.283 . S
O26 Mn0 2.094 . S
O26 C4 1.255 . S
O27 Mn1 2.117 . S
O27 C4 1.228 1_455 S
C28 C21 1.403 . S
C28 C29 1.399 . S
C28 H34 0.929 . S
C29 C9 1.449 . S
C29 C28 1.399 . S
C29 H35 0.930 . S
H30 C10 0.931 . S
H31 C11 0.930 . S
H32 C19 0.931 . S
H33 C20 0.929 . S
H34 C28 0.929 . S
H35 C29 0.930 . S
Mn36 O41 2.095 1_554 S
Mn36 O51 2.162 . S
Mn36 O52 2.297 . S
Mn36 O60 2.385 . S
Mn36 O61 2.209 . S
Mn36 O62 2.094 1_554 S
Mn37 O42 2.121 . S
Mn37 N44 2.257 1_556 S
Mn37 N53 2.282 1_556 S
Mn37 O61 2.215 1_556 S
Mn37 O63 2.117 . S
C38 O60 1.234 . S
C38 O61 1.283 . S
C39 O51 1.281 . S
C39 O52 1.236 . S
C40 O62 1.240 . S
C40 O63 1.264 . S
O41 Mn36 2.095 1_556 S
O41 C50 1.250 . S
O42 Mn37 2.121 . S
O42 C50 1.258 . S
C43 N44 1.326 . S
C43 C47 1.460 . S
C43 H49 0.929 . S
N44 Mn37 2.257 1_554 S
N44 C43 1.326 . S
N44 C48 1.362 . S
C45 C46 1.258 . S
C45 C48 1.431 . S
C45 C65 1.449 . S
C46 C45 1.258 . S
C46 C47 1.477 . S
C46 H66 0.931 . S
C47 C43 1.460 . S
C47 C46 1.477 . S
C47 H67 0.930 . S
C48 N44 1.362 . S
C48 C45 1.431 . S
C48 C58 1.476 . S
H49 C43 0.929 . S
C50 O41 1.250 . S
C50 O42 1.258 . S
O51 Mn36 2.162 . S
O51 C39 1.281 . S
O52 Mn36 2.297 . S
O52 C39 1.236 . S
N53 Mn37 2.282 1_554 S
N53 C54 1.328 . S
N53 C58 1.318 . S
C54 N53 1.328 . S
C54 C55 1.457 . S
C54 H59 0.929 1_554 S
C55 C54 1.457 . S
C55 C56 1.291 . S
C55 H68 0.931 . S
C56 C55 1.291 . S
C56 C57 1.373 . S
C56 H69 0.929 . S
C57 C56 1.373 . S
C57 C58 1.396 . S
C57 C64 1.403 . S
C58 C48 1.476 . S
C58 N53 1.318 . S
C58 C57 1.396 . S
H59 C54 0.929 1_556 S
O60 Mn36 2.385 . S
O60 C38 1.234 . S
O61 Mn36 2.209 . S
O61 Mn37 2.215 1_554 S
O61 C38 1.283 . S
O62 Mn36 2.094 1_556 S
O62 C40 1.240 . S
O63 Mn37 2.117 . S
O63 C40 1.264 . S
C64 C57 1.403 . S
C64 C65 1.399 . S
C64 H70 0.929 . S
C65 C45 1.449 . S
C65 C64 1.399 . S
C65 H71 0.930 . S
H66 C46 0.931 . S
H67 C47 0.930 . S
H68 C55 0.931 . S
H69 C56 0.929 . S
H70 C64 0.929 . S
H71 C65 0.930 . S
Mn72 O77 2.095 1_564 S
Mn72 O87 2.162 . S
Mn72 O88 2.297 . S
Mn72 O96 2.385 . S
Mn72 O97 2.209 1_565 S
Mn72 O98 2.094 1_554 S
Mn73 O78 2.121 1_554 S
Mn73 N80 2.257 . S
Mn73 N89 2.282 . S
Mn73 O97 2.215 . S
Mn73 O99 2.117 1_554 S
C74 O96 1.234 1_545 S
C74 O97 1.283 . S
C75 O87 1.281 . S
C75 O88 1.236 . S
C76 O98 1.240 . S
C76 O99 1.264 1_565 S
O77 Mn72 2.095 1_546 S
O77 C86 1.250 . S
O78 Mn73 2.121 1_556 S
O78 C86 1.258 . S
C79 N80 1.326 . S
C79 C83 1.460 . S
C79 H85 0.929 . S
N80 Mn73 2.257 . S
N80 C79 1.326 . S
N80 C84 1.362 . S
C81 C82 1.258 . S
C81 C84 1.431 . S
C81 C101 1.449 . S
C82 C81 1.258 . S
C82 C83 1.477 . S
C82 H102 0.931 . S
C83 C79 1.460 . S
C83 C82 1.477 . S
C83 H103 0.930 . S
C84 N80 1.362 . S
C84 C81 1.431 . S
C84 C94 1.476 . S
H85 C79 0.929 . S
C86 O77 1.250 . S
C86 O78 1.258 . S
O87 Mn72 2.162 . S
O87 C75 1.281 . S
O88 Mn72 2.297 . S
O88 C75 1.236 . S
N89 Mn73 2.282 . S
N89 C90 1.328 . S
N89 C94 1.318 . S
C90 N89 1.328 . S
C90 C91 1.457 . S
C90 H95 0.929 . S
C91 C90 1.457 . S
C91 C92 1.291 . S
C91 H104 0.931 . S
C92 C91 1.291 . S
C92 C93 1.373 . S
C92 H105 0.929 . S
C93 C92 1.373 . S
C93 C94 1.396 . S
C93 C100 1.403 . S
C94 C84 1.476 . S
C94 N89 1.318 . S
C94 C93 1.396 . S
H95 C90 0.929 . S
O96 Mn72 2.385 . S
O96 C74 1.234 1_565 S
O97 Mn72 2.209 1_545 S
O97 Mn73 2.215 . S
O97 C74 1.283 . S
O98 Mn72 2.094 1_556 S
O98 C76 1.240 . S
O99 Mn73 2.117 1_556 S
O99 C76 1.264 1_545 S
C100 C93 1.403 . S
C100 C101 1.399 . S
C100 H106 0.929 . S
C101 C81 1.449 . S
C101 C100 1.399 . S
C101 H107 0.930 . S
H102 C82 0.931 . S
H103 C83 0.930 . S
H104 C91 0.931 . S
H105 C92 0.929 . S
H106 C100 0.929 . S
H107 C101 0.930 . S
Mn108 O113 2.095 1_655 S
Mn108 O123 2.162 . S
Mn108 O124 2.297 1_554 S
Mn108 O132 2.385 1_554 S
Mn108 O133 2.209 1_654 S
Mn108 O134 2.094 . S
Mn109 O114 2.121 . S
Mn109 N116 2.257 1_554 S
Mn109 N125 2.288 . S
Mn109 O133 2.215 1_554 S
Mn109 O135 2.117 . S
C110 O132 1.234 1_455 S
C110 O133 1.283 . S
C111 O123 1.281 1_556 S
C111 O124 1.236 . S
C112 O134 1.240 . S
C112 O135 1.264 1_655 S
O113 Mn108 2.095 1_455 S
O113 C122 1.250 . S
O114 Mn109 2.121 . S
O114 C122 1.258 . S
C115 N116 1.326 . S
C115 C119 1.460 . S
C115 H121 0.929 . S
N116 Mn109 2.257 1_556 S
N116 C115 1.326 . S
N116 C120 1.362 . S
C117 C118 1.258 . S
C117 C120 1.431 . S
C117 C137 1.449 . S
C118 C117 1.258 . S
C118 C119 1.477 . S
C118 H138 0.931 . S
C119 C115 1.460 . S
C119 C118 1.477 . S
C119 H139 0.930 . S
C120 N116 1.362 . S
C120 C117 1.431 . S
C120 C130 1.476 . S
H121 C115 0.929 . S
C122 O113 1.250 . S
C122 O114 1.258 . S
O123 Mn108 2.162 . S
O123 C111 1.281 1_554 S
O124 Mn108 2.297 1_556 S
O124 C111 1.236 . S
N125 Mn109 2.288 . S
N125 C126 1.331 . S
N125 C130 1.307 1_554 S
C126 N125 1.331 . S
C126 C127 1.457 1_554 S
C126 H131 0.929 . S
C127 C126 1.457 1_556 S
C127 C128 1.291 . S
C127 H140 0.931 . S
C128 C127 1.291 . S
C128 C129 1.373 . S
C128 H141 0.929 . S
C129 C128 1.373 . S
C129 C130 1.396 . S
C129 C136 1.403 . S
C130 C120 1.476 . S
C130 N125 1.307 1_556 S
C130 C129 1.396 . S
H131 C126 0.929 . S
O132 Mn108 2.385 1_556 S
O132 C110 1.234 1_655 S
O133 Mn108 2.209 1_456 S
O133 Mn109 2.215 1_556 S
O133 C110 1.283 . S
O134 Mn108 2.094 . S
O134 C112 1.240 . S
O135 Mn109 2.117 . S
O135 C112 1.264 1_455 S
C136 C129 1.403 . S
C136 C137 1.399 . S
C136 H142 0.929 . S
C137 C117 1.449 . S
C137 C136 1.399 . S
C137 H143 0.930 . S
H138 C118 0.931 . S
H139 C119 0.930 . S
H140 C127 0.931 . S
H141 C128 0.929 . S
H142 C136 0.929 . S
H143 C137 0.930 . S
Mn144 O149 2.095 1_554 S
Mn144 O159 2.162 . S
Mn144 O160 2.297 . S
Mn144 O168 2.385 . S
Mn144 O169 2.209 . S
Mn144 O170 2.094 1_554 S
Mn145 O150 2.121 . S
Mn145 N152 2.257 1_556 S
Mn145 N161 2.282 1_556 S
Mn145 O169 2.215 1_556 S
Mn145 O171 2.117 . S
C146 O168 1.234 . S
C146 O169 1.283 . S
C147 O159 1.281 . S
C147 O160 1.236 . S
C148 O170 1.240 . S
C148 O171 1.264 . S
O149 Mn144 2.095 1_556 S
O149 C158 1.250 . S
O150 Mn145 2.121 . S
O150 C158 1.258 . S
C151 N152 1.326 . S
C151 C155 1.460 . S
C151 H157 0.929 . S
N152 Mn145 2.257 1_554 S
N152 C151 1.326 . S
N152 C156 1.362 . S
C153 C154 1.258 . S
C153 C156 1.431 . S
C153 C173 1.449 . S
C154 C153 1.258 . S
C154 C155 1.477 . S
C154 H174 0.931 . S
C155 C151 1.460 . S
C155 C154 1.477 . S
C155 H175 0.930 . S
C156 N152 1.362 . S
C156 C153 1.431 . S
C156 C166 1.476 . S
H157 C151 0.929 . S
C158 O149 1.250 . S
C158 O150 1.258 . S
O159 Mn144 2.162 . S
O159 C147 1.281 . S
O160 Mn144 2.297 . S
O160 C147 1.236 . S
N161 Mn145 2.282 1_554 S
N161 C162 1.328 . S
N161 C166 1.318 . S
C162 N161 1.328 . S
C162 C163 1.457 . S
C162 H167 0.929 1_554 S
C163 C162 1.457 . S
C163 C164 1.291 . S
C163 H176 0.931 . S
C164 C163 1.291 . S
C164 C165 1.373 . S
C164 H177 0.929 . S
C165 C164 1.373 . S
C165 C166 1.396 . S
C165 C172 1.403 . S
C166 C156 1.476 . S
C166 N161 1.318 . S
C166 C165 1.396 . S
H167 C162 0.929 1_556 S
O168 Mn144 2.385 . S
O168 C146 1.234 . S
O169 Mn144 2.209 . S
O169 Mn145 2.215 1_554 S
O169 C146 1.283 . S
O170 Mn144 2.094 1_556 S
O170 C148 1.240 . S
O171 Mn145 2.117 . S
O171 C148 1.264 . S
C172 C165 1.403 . S
C172 C173 1.399 . S
C172 H178 0.929 . S
C173 C153 1.449 . S
C173 C172 1.399 . S
C173 H179 0.930 . S
H174 C154 0.931 . S
H175 C155 0.930 . S
H176 C163 0.931 . S
H177 C164 0.929 . S
H178 C172 0.929 . S
H179 C173 0.930 . S
Mn180 O185 2.095 1_545 S
Mn180 O195 2.162 . S
Mn180 O196 2.297 1_554 S
Mn180 O204 2.385 1_554 S
Mn180 O205 2.209 1_544 S
Mn180 O206 2.094 . S
Mn181 O186 2.121 . S
Mn181 N188 2.257 1_554 S
Mn181 N197 2.298 . S
Mn181 O205 2.215 1_554 S
Mn181 O207 2.117 . S
C182 O204 1.234 1_565 S
C182 O205 1.283 . S
C183 O195 1.281 1_556 S
C183 O196 1.236 . S
C184 O206 1.240 . S
C184 O207 1.264 1_545 S
O185 Mn180 2.095 1_565 S
O185 C194 1.250 . S
O186 Mn181 2.121 . S
O186 C194 1.258 . S
C187 N188 1.326 . S
C187 C191 1.460 . S
C187 H193 0.929 . S
N188 Mn181 2.257 1_556 S
N188 C187 1.326 . S
N188 C192 1.362 . S
C189 C190 1.258 . S
C189 C192 1.431 . S
C189 C209 1.449 . S
C190 C189 1.258 . S
C190 C191 1.477 . S
C190 H210 0.931 . S
C191 C187 1.460 . S
C191 C190 1.477 . S
C191 H211 0.930 . S
C192 N188 1.362 . S
C192 C189 1.431 . S
C192 C202 1.476 . S
H193 C187 0.929 . S
C194 O185 1.250 . S
C194 O186 1.258 . S
O195 Mn180 2.162 . S
O195 C183 1.281 1_554 S
O196 Mn180 2.297 1_556 S
O196 C183 1.236 . S
N197 Mn181 2.298 . S
N197 C198 1.337 . S
N197 C202 1.289 1_554 S
C198 N197 1.337 . S
C198 C199 1.457 1_554 S
C198 H203 0.929 . S
C199 C198 1.457 1_556 S
C199 C200 1.291 . S
C199 H212 0.931 . S
C200 C199 1.291 . S
C200 C201 1.373 . S
C200 H213 0.929 . S
C201 C200 1.373 . S
C201 C202 1.396 . S
C201 C208 1.403 . S
C202 C192 1.476 . S
C202 N197 1.289 1_556 S
C202 C201 1.396 . S
H203 C198 0.929 . S
O204 Mn180 2.385 1_556 S
O204 C182 1.234 1_545 S
O205 Mn180 2.209 1_566 S
O205 Mn181 2.215 1_556 S
O205 C182 1.283 . S
O206 Mn180 2.094 . S
O206 C184 1.240 . S
O207 Mn181 2.117 . S
O207 C184 1.264 1_565 S
C208 C201 1.403 . S
C208 C209 1.399 . S
C208 H214 0.929 . S
C209 C189 1.449 . S
C209 C208 1.399 . S
C209 H215 0.930 . S
H210 C190 0.931 . S
H211 C191 0.930 . S
H212 C199 0.931 . S
H213 C200 0.929 . S
H214 C208 0.929 . S
H215 C209 0.930 . S
Mn216 O221 2.095 . S
Mn216 O231 2.162 . S
Mn216 O232 2.297 . S
Mn216 O240 2.385 . S
Mn216 O241 2.209 . S
Mn216 O242 2.094 . S
Mn217 O222 2.121 . S
Mn217 N224 2.257 . S
Mn217 N233 2.282 . S
Mn217 O241 2.215 . S
Mn217 O243 2.117 . S
C218 O240 1.234 . S
C218 O241 1.283 . S
C219 O231 1.281 . S
C219 O232 1.236 . S
C220 O242 1.240 . S
C220 O243 1.264 . S
O221 Mn216 2.095 . S
O221 C230 1.250 . S
O222 Mn217 2.121 . S
O222 C230 1.258 . S
C223 N224 1.326 . S
C223 C227 1.460 . S
C223 H229 0.929 . S
N224 Mn217 2.257 . S
N224 C223 1.326 . S
N224 C228 1.362 . S
C225 C226 1.258 . S
C225 C228 1.431 . S
C225 C245 1.449 . S
C226 C225 1.258 . S
C226 C227 1.477 . S
C226 H246 0.931 . S
C227 C223 1.460 . S
C227 C226 1.477 . S
C227 H247 0.930 . S
C228 N224 1.362 . S
C228 C225 1.431 . S
C228 C238 1.476 . S
H229 C223 0.929 . S
C230 O221 1.250 . S
C230 O222 1.258 . S
O231 Mn216 2.162 . S
O231 C219 1.281 . S
O232 Mn216 2.297 . S
O232 C219 1.236 . S
N233 Mn217 2.282 . S
N233 C234 1.328 . S
N233 C238 1.318 . S
C234 N233 1.328 . S
C234 C235 1.457 . S
C234 H239 0.929 . S
C235 C234 1.457 . S
C235 C236 1.291 . S
C235 H248 0.931 . S
C236 C235 1.291 . S
C236 C237 1.373 . S
C236 H249 0.929 . S
C237 C236 1.373 . S
C237 C238 1.396 . S
C237 C244 1.403 . S
C238 C228 1.476 . S
C238 N233 1.318 . S
C238 C237 1.396 . S
H239 C234 0.929 . S
O240 Mn216 2.385 . S
O240 C218 1.234 . S
O241 Mn216 2.209 . S
O241 Mn217 2.215 . S
O241 C218 1.283 . S
O242 Mn216 2.094 . S
O242 C220 1.240 . S
O243 Mn217 2.117 . S
O243 C220 1.264 . S
C244 C237 1.403 . S
C244 C245 1.399 . S
C244 H250 0.929 . S
C245 C225 1.449 . S
C245 C244 1.399 . S
C245 H251 0.930 . S
H246 C226 0.931 . S
H247 C227 0.930 . S
H248 C235 0.931 . S
H249 C236 0.929 . S
H250 C244 0.929 . S
H251 C245 0.930 . S
Mn252 O257 2.095 . S
Mn252 O267 2.162 1_565 S
Mn252 O268 2.297 1_565 S
Mn252 O276 2.385 . S
Mn252 O277 2.209 . S
Mn252 O278 2.094 . S
Mn253 O258 2.121 . S
Mn253 N260 2.257 . S
Mn253 N269 2.282 . S
Mn253 O277 2.215 . S
Mn253 O279 2.117 . S
C254 O276 1.234 . S
C254 O277 1.283 . S
C255 O267 1.281 . S
C255 O268 1.236 . S
C256 O278 1.240 . S
C256 O279 1.264 . S
O257 Mn252 2.095 . S
O257 C266 1.250 . S
O258 Mn253 2.121 . S
O258 C266 1.258 . S
C259 N260 1.326 . S
C259 C263 1.460 . S
C259 H265 0.929 . S
N260 Mn253 2.257 . S
N260 C259 1.326 . S
N260 C264 1.362 . S
C261 C262 1.258 . S
C261 C264 1.431 . S
C261 C281 1.449 . S
C262 C261 1.258 . S
C262 C263 1.477 . S
C262 H282 0.931 . S
C263 C259 1.460 . S
C263 C262 1.477 . S
C263 H283 0.930 . S
C264 N260 1.362 . S
C264 C261 1.431 . S
C264 C274 1.476 . S
H265 C259 0.929 . S
C266 O257 1.250 . S
C266 O258 1.258 . S
O267 Mn252 2.162 1_545 S
O267 C255 1.281 . S
O268 Mn252 2.297 1_545 S
O268 C255 1.236 . S
N269 Mn253 2.282 . S
N269 C270 1.328 . S
N269 C274 1.318 . S
C270 N269 1.328 . S
C270 C271 1.457 . S
C270 H275 0.929 . S
C271 C270 1.457 . S
C271 C272 1.291 . S
C271 H284 0.931 . S
C272 C271 1.291 . S
C272 C273 1.373 . S
C272 H285 0.929 . S
C273 C272 1.373 . S
C273 C274 1.396 . S
C273 C280 1.403 . S
C274 C264 1.476 . S
C274 N269 1.318 . S
C274 C273 1.396 . S
H275 C270 0.929 . S
O276 Mn252 2.385 . S
O276 C254 1.234 . S
O277 Mn252 2.209 . S
O277 Mn253 2.215 . S
O277 C254 1.283 . S
O278 Mn252 2.094 . S
O278 C256 1.240 . S
O279 Mn253 2.117 . S
O279 C256 1.264 . S
C280 C273 1.403 . S
C280 C281 1.399 . S
C280 H286 0.929 . S
C281 C261 1.449 . S
C281 C280 1.399 . S
C281 H287 0.930 . S
H282 C262 0.931 . S
H283 C263 0.930 . S
H284 C271 0.931 . S
H285 C272 0.929 . S
H286 C280 0.929 . S
H287 C281 0.930 . S
Mn288 O293 2.095 . S
Mn288 O303 2.162 1_455 S
Mn288 O304 2.297 1_455 S
Mn288 O312 2.385 . S
Mn288 O313 2.209 . S
Mn288 O314 2.094 . S
Mn289 O294 2.121 . S
Mn289 N296 2.257 . S
Mn289 N305 2.282 . S
Mn289 O313 2.215 . S
Mn289 O315 2.117 . S
C290 O312 1.234 . S
C290 O313 1.283 . S
C291 O303 1.281 . S
C291 O304 1.236 . S
C292 O314 1.240 . S
C292 O315 1.264 . S
O293 Mn288 2.095 . S
O293 C302 1.250 . S
O294 Mn289 2.121 . S
O294 C302 1.258 . S
C295 N296 1.326 . S
C295 C299 1.460 . S
C295 H301 0.929 . S
N296 Mn289 2.257 . S
N296 C295 1.326 . S
N296 C300 1.362 . S
C297 C298 1.258 . S
C297 C300 1.431 . S
C297 C317 1.449 . S
C298 C297 1.258 . S
C298 C299 1.477 . S
C298 H318 0.931 . S
C299 C295 1.460 . S
C299 C298 1.477 . S
C299 H319 0.930 . S
C300 N296 1.362 . S
C300 C297 1.431 . S
C300 C310 1.476 . S
H301 C295 0.929 . S
C302 O293 1.250 . S
C302 O294 1.258 . S
O303 Mn288 2.162 1_655 S
O303 C291 1.281 . S
O304 Mn288 2.297 1_655 S
O304 C291 1.236 . S
N305 Mn289 2.282 . S
N305 C306 1.328 . S
N305 C310 1.318 . S
C306 N305 1.328 . S
C306 C307 1.457 . S
C306 H311 0.929 . S
C307 C306 1.457 . S
C307 C308 1.291 . S
C307 H320 0.931 . S
C308 C307 1.291 . S
C308 C309 1.373 . S
C308 H321 0.929 . S
C309 C308 1.373 . S
C309 C310 1.396 . S
C309 C316 1.403 . S
C310 C300 1.476 . S
C310 N305 1.318 . S
C310 C309 1.396 . S
H311 C306 0.929 . S
O312 Mn288 2.385 . S
O312 C290 1.234 . S
O313 Mn288 2.209 . S
O313 Mn289 2.215 . S
O313 C290 1.283 . S
O314 Mn288 2.094 . S
O314 C292 1.240 . S
O315 Mn289 2.117 . S
O315 C292 1.264 . S
C316 C309 1.403 . S
C316 C317 1.399 . S
C316 H322 0.929 . S
C317 C297 1.449 . S
C317 C316 1.399 . S
C317 H323 0.930 . S
H318 C298 0.931 . S
H319 C299 0.930 . S
H320 C307 0.931 . S
H321 C308 0.929 . S
H322 C316 0.929 . S
H323 C317 0.930 . S
Mn324 O329 2.095 1_565 S
Mn324 O339 2.162 . S
Mn324 O340 2.297 . S
Mn324 O348 2.385 . S
Mn324 O349 2.209 . S
Mn324 O350 2.094 . S
Mn325 O330 2.121 1_565 S
Mn325 N332 2.257 . S
Mn325 N341 2.282 . S
Mn325 O349 2.215 . S
Mn325 O351 2.117 . S
C326 O348 1.234 . S
C326 O349 1.283 . S
C327 O339 1.281 . S
C327 O340 1.236 . S
C328 O350 1.240 . S
C328 O351 1.264 . S
O329 Mn324 2.095 1_545 S
O329 C338 1.250 . S
O330 Mn325 2.121 1_545 S
O330 C338 1.258 . S
C331 N332 1.326 1_545 S
C331 C335 1.460 . S
C331 H337 0.929 . S
N332 Mn325 2.257 . S
N332 C331 1.326 1_565 S
N332 C336 1.362 . S
C333 C334 1.258 1_565 S
C333 C336 1.431 . S
C333 C353 1.449 . S
C334 C333 1.258 1_545 S
C334 C335 1.477 . S
C334 H354 0.931 . S
C335 C331 1.460 . S
C335 C334 1.477 . S
C335 H355 0.930 . S
C336 N332 1.362 . S
C336 C333 1.431 . S
C336 C346 1.476 . S
H337 C331 0.929 . S
C338 O329 1.250 . S
C338 O330 1.258 . S
O339 Mn324 2.162 . S
O339 C327 1.281 . S
O340 Mn324 2.297 . S
O340 C327 1.236 . S
N341 Mn325 2.282 . S
N341 C342 1.328 . S
N341 C346 1.318 . S
C342 N341 1.328 . S
C342 C343 1.457 . S
C342 H347 0.929 . S
C343 C342 1.457 . S
C343 C344 1.291 . S
C343 H356 0.931 . S
C344 C343 1.291 . S
C344 C345 1.373 . S
C344 H357 0.929 . S
C345 C344 1.373 . S
C345 C346 1.396 . S
C345 C352 1.403 . S
C346 C336 1.476 . S
C346 N341 1.318 . S
C346 C345 1.396 . S
H347 C342 0.929 . S
O348 Mn324 2.385 . S
O348 C326 1.234 . S
O349 Mn324 2.209 . S
O349 Mn325 2.215 . S
O349 C326 1.283 . S
O350 Mn324 2.094 . S
O350 C328 1.240 . S
O351 Mn325 2.117 . S
O351 C328 1.264 . S
C352 C345 1.403 . S
C352 C353 1.399 . S
C352 H358 0.929 . S
C353 C333 1.449 . S
C353 C352 1.399 . S
C353 H359 0.930 . S
H354 C334 0.931 . S
H355 C335 0.930 . S
H356 C343 0.931 . S
H357 C344 0.929 . S
H358 C352 0.929 . S
H359 C353 0.930 . S
Mn360 O365 2.095 . S
Mn360 O375 2.162 1_455 S
Mn360 O376 2.297 1_455 S
Mn360 O384 2.385 . S
Mn360 O385 2.209 . S
Mn360 O386 2.094 . S
Mn361 O366 2.121 . S
Mn361 N368 2.257 . S
Mn361 N377 2.282 . S
Mn361 O385 2.215 . S
Mn361 O387 2.117 . S
C362 O384 1.234 . S
C362 O385 1.283 . S
C363 O375 1.281 . S
C363 O376 1.236 . S
C364 O386 1.240 . S
C364 O387 1.264 . S
O365 Mn360 2.095 . S
O365 C374 1.250 . S
O366 Mn361 2.121 . S
O366 C374 1.258 . S
C367 N368 1.326 . S
C367 C371 1.460 . S
C367 H373 0.929 . S
N368 Mn361 2.257 . S
N368 C367 1.326 . S
N368 C372 1.362 . S
C369 C370 1.258 . S
C369 C372 1.431 . S
C369 C389 1.449 . S
C370 C369 1.258 . S
C370 C371 1.477 . S
C370 H390 0.931 . S
C371 C367 1.460 . S
C371 C370 1.477 . S
C371 H391 0.930 . S
C372 N368 1.362 . S
C372 C369 1.431 . S
C372 C382 1.476 . S
H373 C367 0.929 . S
C374 O365 1.250 . S
C374 O366 1.258 . S
O375 Mn360 2.162 1_655 S
O375 C363 1.281 . S
O376 Mn360 2.297 1_655 S
O376 C363 1.236 . S
N377 Mn361 2.282 . S
N377 C378 1.328 . S
N377 C382 1.318 . S
C378 N377 1.328 . S
C378 C379 1.457 . S
C378 H383 0.929 . S
C379 C378 1.457 . S
C379 C380 1.291 . S
C379 H392 0.931 . S
C380 C379 1.291 . S
C380 C381 1.373 . S
C380 H393 0.929 . S
C381 C380 1.373 . S
C381 C382 1.396 . S
C381 C388 1.403 . S
C382 C372 1.476 . S
C382 N377 1.318 . S
C382 C381 1.396 . S
H383 C378 0.929 . S
O384 Mn360 2.385 . S
O384 C362 1.234 . S
O385 Mn360 2.209 . S
O385 Mn361 2.215 . S
O385 C362 1.283 . S
O386 Mn360 2.094 . S
O386 C364 1.240 . S
O387 Mn361 2.117 . S
O387 C364 1.264 . S
C388 C381 1.403 . S
C388 C389 1.399 . S
C388 H394 0.929 . S
C389 C369 1.449 . S
C389 C388 1.399 . S
C389 H395 0.930 . S
H390 C370 0.931 . S
H391 C371 0.930 . S
H392 C379 0.931 . S
H393 C380 0.929 . S
H394 C388 0.929 . S
H395 C389 0.930 . S
Mn396 O401 2.095 . S
Mn396 O411 2.162 . S
Mn396 O412 2.297 . S
Mn396 O420 2.385 . S
Mn396 O421 2.209 . S
Mn396 O422 2.094 . S
Mn397 O402 2.121 . S
Mn397 N404 2.257 . S
Mn397 N413 2.282 . S
Mn397 O421 2.215 . S
Mn397 O423 2.117 . S
C398 O420 1.234 . S
C398 O421 1.283 . S
C399 O411 1.281 . S
C399 O412 1.236 . S
C400 O422 1.240 . S
C400 O423 1.264 . S
O401 Mn396 2.095 . S
O401 C410 1.250 . S
O402 Mn397 2.121 . S
O402 C410 1.258 . S
C403 N404 1.326 . S
C403 C407 1.460 . S
C403 H409 0.929 . S
N404 Mn397 2.257 . S
N404 C403 1.326 . S
N404 C408 1.362 . S
C405 C406 1.258 . S
C405 C408 1.431 . S
C405 C425 1.449 . S
C406 C405 1.258 . S
C406 C407 1.477 . S
C406 H426 0.931 . S
C407 C403 1.460 . S
C407 C406 1.477 . S
C407 H427 0.930 . S
C408 N404 1.362 . S
C408 C405 1.431 . S
C408 C418 1.476 . S
H409 C403 0.929 . S
C410 O401 1.250 . S
C410 O402 1.258 . S
O411 Mn396 2.162 . S
O411 C399 1.281 . S
O412 Mn396 2.297 . S
O412 C399 1.236 . S
N413 Mn397 2.282 . S
N413 C414 1.328 . S
N413 C418 1.318 . S
C414 N413 1.328 . S
C414 C415 1.457 . S
C414 H419 0.929 . S
C415 C414 1.457 . S
C415 C416 1.291 . S
C415 H428 0.931 . S
C416 C415 1.291 . S
C416 C417 1.373 . S
C416 H429 0.929 . S
C417 C416 1.373 . S
C417 C418 1.396 . S
C417 C424 1.403 . S
C418 C408 1.476 . S
C418 N413 1.318 . S
C418 C417 1.396 . S
H419 C414 0.929 . S
O420 Mn396 2.385 . S
O420 C398 1.234 . S
O421 Mn396 2.209 . S
O421 Mn397 2.215 . S
O421 C398 1.283 . S
O422 Mn396 2.094 . S
O422 C400 1.240 . S
O423 Mn397 2.117 . S
O423 C400 1.264 . S
C424 C417 1.403 . S
C424 C425 1.399 . S
C424 H430 0.929 . S
C425 C405 1.449 . S
C425 C424 1.399 . S
C425 H431 0.930 . S
H426 C406 0.931 . S
H427 C407 0.930 . S
H428 C415 0.931 . S
H429 C416 0.929 . S
H430 C424 0.929 . S
H431 C425 0.930 . S
Mn432 O437 2.095 . S
Mn432 O447 2.162 1_545 S
Mn432 O448 2.297 1_545 S
Mn432 O456 2.385 . S
Mn432 O457 2.209 . S
Mn432 O458 2.094 . S
Mn433 O438 2.121 . S
Mn433 N440 2.257 . S
Mn433 N449 2.282 . S
Mn433 O457 2.215 . S
Mn433 O459 2.117 . S
C434 O456 1.234 . S
C434 O457 1.283 . S
C435 O447 1.281 . S
C435 O448 1.236 . S
C436 O458 1.240 . S
C436 O459 1.264 . S
O437 Mn432 2.095 . S
O437 C446 1.250 . S
O438 Mn433 2.121 . S
O438 C446 1.258 . S
C439 N440 1.326 . S
C439 C443 1.460 . S
C439 H445 0.929 . S
N440 Mn433 2.257 . S
N440 C439 1.326 . S
N440 C444 1.362 . S
C441 C442 1.258 . S
C441 C444 1.431 . S
C441 C461 1.449 . S
C442 C441 1.258 . S
C442 C443 1.477 . S
C442 H462 0.931 . S
C443 C439 1.460 . S
C443 C442 1.477 . S
C443 H463 0.930 . S
C444 N440 1.362 . S
C444 C441 1.431 . S
C444 C454 1.476 . S
H445 C439 0.929 . S
C446 O437 1.250 . S
C446 O438 1.258 . S
O447 Mn432 2.162 1_565 S
O447 C435 1.281 . S
O448 Mn432 2.297 1_565 S
O448 C435 1.236 . S
N449 Mn433 2.282 . S
N449 C450 1.328 . S
N449 C454 1.318 . S
C450 N449 1.328 . S
C450 C451 1.457 . S
C450 H455 0.929 . S
C451 C450 1.457 . S
C451 C452 1.291 . S
C451 H464 0.931 . S
C452 C451 1.291 . S
C452 C453 1.373 . S
C452 H465 0.929 . S
C453 C452 1.373 . S
C453 C454 1.396 . S
C453 C460 1.403 . S
C454 C444 1.476 . S
C454 N449 1.318 . S
C454 C453 1.396 . S
H455 C450 0.929 . S
O456 Mn432 2.385 . S
O456 C434 1.234 . S
O457 Mn432 2.209 . S
O457 Mn433 2.215 . S
O457 C434 1.283 . S
O458 Mn432 2.094 . S
O458 C436 1.240 . S
O459 Mn433 2.117 . S
O459 C436 1.264 . S
C460 C453 1.403 . S
C460 C461 1.399 . S
C460 H466 0.929 . S
C461 C441 1.449 . S
C461 C460 1.399 . S
C461 H467 0.930 . S
H462 C442 0.931 . S
H463 C443 0.930 . S
H464 C451 0.931 . S
H465 C452 0.929 . S
H466 C460 0.929 . S
H467 C461 0.930 . S
Mn468 O473 2.095 1_655 S
Mn468 O483 2.162 . S
Mn468 O484 2.297 . S
Mn468 O492 2.385 . S
Mn468 O493 2.209 . S
Mn468 O494 2.094 . S
Mn469 O474 2.121 1_655 S
Mn469 N476 2.257 . S
Mn469 N485 2.282 . S
Mn469 O493 2.215 . S
Mn469 O495 2.117 . S
C470 O492 1.234 . S
C470 O493 1.283 . S
C471 O483 1.281 . S
C471 O484 1.236 . S
C472 O494 1.240 . S
C472 O495 1.264 . S
O473 Mn468 2.095 1_455 S
O473 C482 1.250 . S
O474 Mn469 2.121 1_455 S
O474 C482 1.258 . S
C475 N476 1.326 1_455 S
C475 C479 1.460 . S
C475 H481 0.929 . S
N476 Mn469 2.257 . S
N476 C475 1.326 1_655 S
N476 C480 1.362 . S
C477 C478 1.258 1_655 S
C477 C480 1.431 . S
C477 C497 1.449 . S
C478 C477 1.258 1_455 S
C478 C479 1.477 . S
C478 H498 0.931 . S
C479 C475 1.460 . S
C479 C478 1.477 . S
C479 H499 0.930 . S
C480 N476 1.362 . S
C480 C477 1.431 . S
C480 C490 1.476 . S
H481 C475 0.929 . S
C482 O473 1.250 . S
C482 O474 1.258 . S
O483 Mn468 2.162 . S
O483 C471 1.281 . S
O484 Mn468 2.297 . S
O484 C471 1.236 . S
N485 Mn469 2.282 . S
N485 C486 1.328 . S
N485 C490 1.318 . S
C486 N485 1.328 . S
C486 C487 1.457 . S
C486 H491 0.929 . S
C487 C486 1.457 . S
C487 C488 1.291 . S
C487 H500 0.931 . S
C488 C487 1.291 . S
C488 C489 1.373 . S
C488 H501 0.929 . S
C489 C488 1.373 . S
C489 C490 1.396 . S
C489 C496 1.403 . S
C490 C480 1.476 . S
C490 N485 1.318 . S
C490 C489 1.396 . S
H491 C486 0.929 . S
O492 Mn468 2.385 . S
O492 C470 1.234 . S
O493 Mn468 2.209 . S
O493 Mn469 2.215 . S
O493 C470 1.283 . S
O494 Mn468 2.094 . S
O494 C472 1.240 . S
O495 Mn469 2.117 . S
O495 C472 1.264 . S
C496 C489 1.403 . S
C496 C497 1.399 . S
C496 H502 0.929 . S
C497 C477 1.449 . S
C497 C496 1.399 . S
C497 H503 0.930 . S
H498 C478 0.931 . S
H499 C479 0.930 . S
H500 C487 0.931 . S
H501 C488 0.929 . S
H502 C496 0.929 . S
H503 C497 0.930 . S
Mn504 O509 2.095 . S
Mn504 O519 2.162 . S
Mn504 O520 2.297 . S
Mn504 O528 2.385 . S
Mn504 O529 2.209 . S
Mn504 O530 2.094 . S
Mn505 O510 2.121 . S
Mn505 N512 2.257 . S
Mn505 N521 2.282 . S
Mn505 O529 2.215 . S
Mn505 O531 2.117 . S
C506 O528 1.234 . S
C506 O529 1.283 . S
C507 O519 1.281 . S
C507 O520 1.236 . S
C508 O530 1.240 . S
C508 O531 1.264 . S
O509 Mn504 2.095 . S
O509 C518 1.250 . S
O510 Mn505 2.121 . S
O510 C518 1.258 . S
C511 N512 1.326 . S
C511 C515 1.460 . S
C511 H517 0.929 . S
N512 Mn505 2.257 . S
N512 C511 1.326 . S
N512 C516 1.362 . S
C513 C514 1.258 . S
C513 C516 1.431 . S
C513 C533 1.449 . S
C514 C513 1.258 . S
C514 C515 1.477 . S
C514 H534 0.931 . S
C515 C511 1.460 . S
C515 C514 1.477 . S
C515 H535 0.930 . S
C516 N512 1.362 . S
C516 C513 1.431 . S
C516 C526 1.476 . S
H517 C511 0.929 . S
C518 O509 1.250 . S
C518 O510 1.258 . S
O519 Mn504 2.162 . S
O519 C507 1.281 . S
O520 Mn504 2.297 . S
O520 C507 1.236 . S
N521 Mn505 2.282 . S
N521 C522 1.328 . S
N521 C526 1.318 . S
C522 N521 1.328 . S
C522 C523 1.457 . S
C522 H527 0.929 . S
C523 C522 1.457 . S
C523 C524 1.291 . S
C523 H536 0.931 . S
C524 C523 1.291 . S
C524 C525 1.373 . S
C524 H537 0.929 . S
C525 C524 1.373 . S
C525 C526 1.396 . S
C525 C532 1.403 . S
C526 C516 1.476 . S
C526 N521 1.318 . S
C526 C525 1.396 . S
H527 C522 0.929 . S
O528 Mn504 2.385 . S
O528 C506 1.234 . S
O529 Mn504 2.209 . S
O529 Mn505 2.215 . S
O529 C506 1.283 . S
O530 Mn504 2.094 . S
O530 C508 1.240 . S
O531 Mn505 2.117 . S
O531 C508 1.264 . S
C532 C525 1.403 . S
C532 C533 1.399 . S
C532 H538 0.929 . S
C533 C513 1.449 . S
C533 C532 1.399 . S
C533 H539 0.930 . S
H534 C514 0.931 . S
H535 C515 0.930 . S
H536 C523 0.931 . S
H537 C524 0.929 . S
H538 C532 0.929 . S
H539 C533 0.930 . S
Mn540 O545 2.095 . S
Mn540 O555 2.162 . S
Mn540 O556 2.297 . S
Mn540 O564 2.385 . S
Mn540 O565 2.209 . S
Mn540 O566 2.094 . S
Mn541 O546 2.121 . S
Mn541 N548 2.257 . S
Mn541 N557 2.282 . S
Mn541 O565 2.215 . S
Mn541 O567 2.117 . S
C542 O564 1.234 . S
C542 O565 1.283 . S
C543 O555 1.281 . S
C543 O556 1.236 . S
C544 O566 1.240 . S
C544 O567 1.264 . S
O545 Mn540 2.095 . S
O545 C554 1.250 . S
O546 Mn541 2.121 . S
O546 C554 1.258 . S
C547 N548 1.326 . S
C547 C551 1.460 . S
C547 H553 0.929 . S
N548 Mn541 2.257 . S
N548 C547 1.326 . S
N548 C552 1.362 . S
C549 C550 1.258 . S
C549 C552 1.431 . S
C549 C569 1.449 . S
C550 C549 1.258 . S
C550 C551 1.477 . S
C550 H570 0.931 . S
C551 C547 1.460 . S
C551 C550 1.477 . S
C551 H571 0.930 . S
C552 N548 1.362 . S
C552 C549 1.431 . S
C552 C562 1.476 . S
H553 C547 0.929 . S
C554 O545 1.250 . S
C554 O546 1.258 . S
O555 Mn540 2.162 . S
O555 C543 1.281 . S
O556 Mn540 2.297 . S
O556 C543 1.236 . S
N557 Mn541 2.282 . S
N557 C558 1.328 . S
N557 C562 1.318 . S
C558 N557 1.328 . S
C558 C559 1.457 . S
C558 H563 0.929 . S
C559 C558 1.457 . S
C559 C560 1.291 . S
C559 H572 0.931 . S
C560 C559 1.291 . S
C560 C561 1.373 . S
C560 H573 0.929 . S
C561 C560 1.373 . S
C561 C562 1.396 . S
C561 C568 1.403 . S
C562 C552 1.476 . S
C562 N557 1.318 . S
C562 C561 1.396 . S
H563 C558 0.929 . S
O564 Mn540 2.385 . S
O564 C542 1.234 . S
O565 Mn540 2.209 . S
O565 Mn541 2.215 . S
O565 C542 1.283 . S
O566 Mn540 2.094 . S
O566 C544 1.240 . S
O567 Mn541 2.117 . S
O567 C544 1.264 . S
C568 C561 1.403 . S
C568 C569 1.399 . S
C568 H574 0.929 . S
C569 C549 1.449 . S
C569 C568 1.399 . S
C569 H575 0.930 . S
H570 C550 0.931 . S
H571 C551 0.930 . S
H572 C559 0.931 . S
H573 C560 0.929 . S
H574 C568 0.929 . S
H575 C569 0.930 . S
Mn576 O581 2.095 1_545 S
Mn576 O591 2.162 . S
Mn576 O592 2.297 . S
Mn576 O600 2.385 . S
Mn576 O601 2.209 . S
Mn576 O602 2.094 . S
Mn577 O582 2.121 1_545 S
Mn577 N584 2.257 . S
Mn577 N593 2.282 . S
Mn577 O601 2.215 . S
Mn577 O603 2.117 . S
C578 O600 1.234 . S
C578 O601 1.283 . S
C579 O591 1.281 . S
C579 O592 1.236 . S
C580 O602 1.240 . S
C580 O603 1.264 . S
O581 Mn576 2.095 1_565 S
O581 C590 1.250 . S
O582 Mn577 2.121 1_565 S
O582 C590 1.258 . S
C583 N584 1.326 1_565 S
C583 C587 1.460 . S
C583 H589 0.929 . S
N584 Mn577 2.257 . S
N584 C583 1.326 1_545 S
N584 C588 1.362 . S
C585 C586 1.258 1_545 S
C585 C588 1.431 . S
C585 C605 1.449 . S
C586 C585 1.258 1_565 S
C586 C587 1.477 . S
C586 H606 0.931 . S
C587 C583 1.460 . S
C587 C586 1.477 . S
C587 H607 0.930 . S
C588 N584 1.362 . S
C588 C585 1.431 . S
C588 C598 1.476 . S
H589 C583 0.929 . S
C590 O581 1.250 . S
C590 O582 1.258 . S
O591 Mn576 2.162 . S
O591 C579 1.281 . S
O592 Mn576 2.297 . S
O592 C579 1.236 . S
N593 Mn577 2.282 . S
N593 C594 1.328 . S
N593 C598 1.318 . S
C594 N593 1.328 . S
C594 C595 1.457 . S
C594 H599 0.929 . S
C595 C594 1.457 . S
C595 C596 1.291 . S
C595 H608 0.931 . S
C596 C595 1.291 . S
C596 C597 1.373 . S
C596 H609 0.929 . S
C597 C596 1.373 . S
C597 C598 1.396 . S
C597 C604 1.403 . S
C598 C588 1.476 . S
C598 N593 1.318 . S
C598 C597 1.396 . S
H599 C594 0.929 . S
O600 Mn576 2.385 . S
O600 C578 1.234 . S
O601 Mn576 2.209 . S
O601 Mn577 2.215 . S
O601 C578 1.283 . S
O602 Mn576 2.094 . S
O602 C580 1.240 . S
O603 Mn577 2.117 . S
O603 C580 1.264 . S
C604 C597 1.403 . S
C604 C605 1.399 . S
C604 H610 0.929 . S
C605 C585 1.449 . S
C605 C604 1.399 . S
C605 H611 0.930 . S
H606 C586 0.931 . S
H607 C587 0.930 . S
H608 C595 0.931 . S
H609 C596 0.929 . S
H610 C604 0.929 . S
H611 C605 0.930 . S
Mn612 O617 2.095 . S
Mn612 O627 2.162 1_655 S
Mn612 O628 2.297 1_655 S
Mn612 O636 2.385 . S
Mn612 O637 2.209 . S
Mn612 O638 2.094 . S
Mn613 O618 2.121 . S
Mn613 N620 2.257 . S
Mn613 N629 2.282 . S
Mn613 O637 2.215 . S
Mn613 O639 2.117 . S
C614 O636 1.234 . S
C614 O637 1.283 . S
C615 O627 1.281 . S
C615 O628 1.236 . S
C616 O638 1.240 . S
C616 O639 1.264 . S
O617 Mn612 2.095 . S
O617 C626 1.250 . S
O618 Mn613 2.121 . S
O618 C626 1.258 . S
C619 N620 1.326 . S
C619 C623 1.460 . S
C619 H625 0.929 . S
N620 Mn613 2.257 . S
N620 C619 1.326 . S
N620 C624 1.362 . S
C621 C622 1.258 . S
C621 C624 1.431 . S
C621 C641 1.449 . S
C622 C621 1.258 . S
C622 C623 1.477 . S
C622 H642 0.931 . S
C623 C619 1.460 . S
C623 C622 1.477 . S
C623 H643 0.930 . S
C624 N620 1.362 . S
C624 C621 1.431 . S
C624 C634 1.476 . S
H625 C619 0.929 . S
C626 O617 1.250 . S
C626 O618 1.258 . S
O627 Mn612 2.162 1_455 S
O627 C615 1.281 . S
O628 Mn612 2.297 1_455 S
O628 C615 1.236 . S
N629 Mn613 2.282 . S
N629 C630 1.328 . S
N629 C634 1.318 . S
C630 N629 1.328 . S
C630 C631 1.457 . S
C630 H635 0.929 . S
C631 C630 1.457 . S
C631 C632 1.291 . S
C631 H644 0.931 . S
C632 C631 1.291 . S
C632 C633 1.373 . S
C632 H645 0.929 . S
C633 C632 1.373 . S
C633 C634 1.396 . S
C633 C640 1.403 . S
C634 C624 1.476 . S
C634 N629 1.318 . S
C634 C633 1.396 . S
H635 C630 0.929 . S
O636 Mn612 2.385 . S
O636 C614 1.234 . S
O637 Mn612 2.209 . S
O637 Mn613 2.215 . S
O637 C614 1.283 . S
O638 Mn612 2.094 . S
O638 C616 1.240 . S
O639 Mn613 2.117 . S
O639 C616 1.264 . S
C640 C633 1.403 . S
C640 C641 1.399 . S
C640 H646 0.929 . S
C641 C621 1.449 . S
C641 C640 1.399 . S
C641 H647 0.930 . S
H642 C622 0.931 . S
H643 C623 0.930 . S
H644 C631 0.931 . S
H645 C632 0.929 . S
H646 C640 0.929 . S
H647 C641 0.930 . S
H648 C667 0.949 . S
H649 C668 0.950 . S
H650 C670 0.950 . S
H651 C671 0.950 . S
H652 C673 0.950 . S
H653 C676 0.950 . S
H654 C677 0.950 . S
H655 C679 0.951 . S
H656 C680 0.949 . S
H657 C682 0.949 . S
H658 C683 0.950 . S
H659 C685 0.950 . S
H660 C686 0.950 . S
H661 C688 0.950 . S
H662 C691 0.950 . S
H663 C692 0.950 . S
H664 C694 0.951 . S
H665 C695 0.949 . S
C666 C667 1.376 . S
C666 C671 1.386 . S
C666 C672 1.483 . S
C667 H648 0.949 . S
C667 C666 1.376 . S
C667 C668 1.397 . S
C668 H649 0.950 . S
C668 C667 1.397 . S
C668 C669 1.391 . S
C669 C668 1.391 . S
C669 C670 1.405 . S
C670 H650 0.950 . S
C670 C669 1.405 . S
C670 C671 1.367 . S
C671 H651 0.950 . S
C671 C666 1.386 . S
C671 C670 1.367 . S
C672 C666 1.483 . S
C672 C673 1.382 . S
C672 C674 1.403 . S
C673 H652 0.950 . S
C673 C672 1.382 . S
C673 C689 1.411 . S
C674 C672 1.403 . S
C674 C675 1.489 . S
C674 C688 1.411 . S
C675 C674 1.489 . S
C675 C676 1.383 . S
C675 C680 1.382 . S
C676 H653 0.950 . S
C676 C675 1.383 . S
C676 C677 1.395 . S
C677 H654 0.950 . S
C677 C676 1.395 . S
C677 C678 1.288 . S
C678 C677 1.288 . S
C678 C679 1.392 . S
C679 H655 0.951 . S
C679 C678 1.392 . S
C679 C680 1.392 . S
C680 H656 0.949 . S
C680 C675 1.382 . S
C680 C679 1.392 . S
C681 C682 1.376 . S
C681 C686 1.386 . S
C681 C687 1.483 . S
C682 H657 0.949 . S
C682 C681 1.376 . S
C682 C683 1.397 . S
C683 H658 0.950 . S
C683 C682 1.397 . S
C683 C684 1.391 . S
C684 C683 1.391 . S
C684 C685 1.405 . S
C685 H659 0.950 . S
C685 C684 1.405 . S
C685 C686 1.367 . S
C686 H660 0.950 . S
C686 C681 1.386 . S
C686 C685 1.367 . S
C687 C681 1.483 . S
C687 C688 1.382 . S
C687 C689 1.403 . S
C688 H661 0.950 . S
C688 C674 1.411 . S
C688 C687 1.382 . S
C689 C673 1.411 . S
C689 C687 1.403 . S
C689 C690 1.489 . S
C690 C689 1.489 . S
C690 C691 1.383 . S
C690 C695 1.382 . S
C691 H662 0.950 . S
C691 C690 1.383 . S
C691 C692 1.395 . S
C692 H663 0.950 . S
C692 C691 1.395 . S
C692 C693 1.288 . S
C693 C692 1.288 . S
C693 C694 1.392 . S
C694 H664 0.951 . S
C694 C693 1.392 . S
C694 C695 1.392 . S
C695 H665 0.949 . S
C695 C690 1.382 . S
C695 C694 1.392 . S
H696 C715 0.949 . S
H697 C716 0.950 . S
H698 C718 0.950 . S
H699 C719 0.950 . S
H700 C721 0.950 . S
H701 C724 0.950 . S
H702 C725 0.950 . S
H703 C727 0.951 . S
H704 C728 0.949 . S
H705 C730 0.949 . S
H706 C731 0.950 . S
H707 C733 0.950 . S
H708 C734 0.950 . S
H709 C736 0.950 . S
H710 C739 0.950 . S
H711 C740 0.950 . S
H712 C742 0.951 . S
H713 C743 0.949 . S
C714 C715 1.376 . S
C714 C719 1.386 . S
C714 C720 1.483 . S
C715 H696 0.949 . S
C715 C714 1.376 . S
C715 C716 1.397 . S
C716 H697 0.950 . S
C716 C715 1.397 . S
C716 C717 1.391 . S
C717 C716 1.391 . S
C717 C718 1.405 . S
C718 H698 0.950 . S
C718 C717 1.405 . S
C718 C719 1.367 . S
C719 H699 0.950 . S
C719 C714 1.386 . S
C719 C718 1.367 . S
C720 C714 1.483 . S
C720 C721 1.382 . S
C720 C722 1.403 . S
C721 H700 0.950 . S
C721 C720 1.382 . S
C721 C737 1.411 . S
C722 C720 1.403 . S
C722 C723 1.489 . S
C722 C736 1.411 . S
C723 C722 1.489 . S
C723 C724 1.383 . S
C723 C728 1.382 . S
C724 H701 0.950 . S
C724 C723 1.383 . S
C724 C725 1.395 . S
C725 H702 0.950 . S
C725 C724 1.395 . S
C725 C726 1.288 . S
C726 C725 1.288 . S
C726 C727 1.392 . S
C727 H703 0.951 . S
C727 C726 1.392 . S
C727 C728 1.392 . S
C728 H704 0.949 . S
C728 C723 1.382 . S
C728 C727 1.392 . S
C729 C730 1.376 . S
C729 C734 1.386 . S
C729 C735 1.483 . S
C730 H705 0.949 . S
C730 C729 1.376 . S
C730 C731 1.397 . S
C731 H706 0.950 . S
C731 C730 1.397 . S
C731 C732 1.391 . S
C732 C731 1.391 . S
C732 C733 1.405 . S
C733 H707 0.950 . S
C733 C732 1.405 . S
C733 C734 1.367 . S
C734 H708 0.950 . S
C734 C729 1.386 . S
C734 C733 1.367 . S
C735 C729 1.483 . S
C735 C736 1.382 . S
C735 C737 1.403 . S
C736 H709 0.950 . S
C736 C722 1.411 . S
C736 C735 1.382 . S
C737 C721 1.411 . S
C737 C735 1.403 . S
C737 C738 1.489 . S
C738 C737 1.489 . S
C738 C739 1.383 . S
C738 C743 1.382 . S
C739 H710 0.950 . S
C739 C738 1.383 . S
C739 C740 1.395 . S
C740 H711 0.950 . S
C740 C739 1.395 . S
C740 C741 1.288 . S
C741 C740 1.288 . S
C741 C742 1.392 . S
C742 H712 0.951 . S
C742 C741 1.392 . S
C742 C743 1.392 . S
C743 H713 0.949 . S
C743 C738 1.382 . S
C743 C742 1.392 . S
H744 C763 0.949 . S
H745 C764 0.950 . S
H746 C766 0.950 . S
H747 C767 0.950 . S
H748 C769 0.950 . S
H749 C772 0.950 . S
H750 C773 0.950 . S
H751 C775 0.951 . S
H752 C776 0.949 . S
H753 C778 0.949 . S
H754 C779 0.950 . S
H755 C781 0.950 . S
H756 C782 0.950 . S
H757 C784 0.950 . S
H758 C787 0.950 . S
H759 C788 0.950 . S
H760 C790 0.951 . S
H761 C791 0.949 . S
C762 C763 1.376 . S
C762 C767 1.386 . S
C762 C768 1.483 . S
C763 H744 0.949 . S
C763 C762 1.376 . S
C763 C764 1.397 . S
C764 H745 0.950 . S
C764 C763 1.397 . S
C764 C765 1.391 . S
C765 C764 1.391 . S
C765 C766 1.405 . S
C766 H746 0.950 . S
C766 C765 1.405 . S
C766 C767 1.367 . S
C767 H747 0.950 . S
C767 C762 1.386 . S
C767 C766 1.367 . S
C768 C762 1.483 . S
C768 C769 1.382 . S
C768 C770 1.403 . S
C769 H748 0.950 . S
C769 C768 1.382 . S
C769 C785 1.411 . S
C770 C768 1.403 . S
C770 C771 1.489 . S
C770 C784 1.411 . S
C771 C770 1.489 . S
C771 C772 1.383 . S
C771 C776 1.382 . S
C772 H749 0.950 . S
C772 C771 1.383 . S
C772 C773 1.395 . S
C773 H750 0.950 . S
C773 C772 1.395 . S
C773 C774 1.288 . S
C774 C773 1.288 . S
C774 C775 1.392 . S
C775 H751 0.951 . S
C775 C774 1.392 . S
C775 C776 1.392 . S
C776 H752 0.949 . S
C776 C771 1.382 . S
C776 C775 1.392 . S
C777 C778 1.376 . S
C777 C782 1.386 . S
C777 C783 1.483 . S
C778 H753 0.949 . S
C778 C777 1.376 . S
C778 C779 1.397 . S
C779 H754 0.950 . S
C779 C778 1.397 . S
C779 C780 1.391 . S
C780 C779 1.391 . S
C780 C781 1.405 . S
C781 H755 0.950 . S
C781 C780 1.405 . S
C781 C782 1.367 . S
C782 H756 0.950 . S
C782 C777 1.386 . S
C782 C781 1.367 . S
C783 C777 1.483 . S
C783 C784 1.382 . S
C783 C785 1.403 . S
C784 H757 0.950 . S
C784 C770 1.411 . S
C784 C783 1.382 . S
C785 C769 1.411 . S
C785 C783 1.403 . S
C785 C786 1.489 . S
C786 C785 1.489 . S
C786 C787 1.383 . S
C786 C791 1.382 . S
C787 H758 0.950 . S
C787 C786 1.383 . S
C787 C788 1.395 . S
C788 H759 0.950 . S
C788 C787 1.395 . S
C788 C789 1.288 . S
C789 C788 1.288 . S
C789 C790 1.392 . S
C790 H760 0.951 . S
C790 C789 1.392 . S
C790 C791 1.392 . S
C791 H761 0.949 . S
C791 C786 1.382 . S
C791 C790 1.392 . S
H792 C811 0.949 . S
H793 C812 0.950 . S
H794 C814 0.950 . S
H795 C815 0.950 . S
H796 C817 0.950 . S
H797 C820 0.950 . S
H798 C821 0.950 . S
H799 C823 0.951 . S
H800 C824 0.949 . S
H801 C826 0.949 . S
H802 C827 0.950 . S
H803 C829 0.950 . S
H804 C830 0.950 . S
H805 C832 0.950 . S
H806 C835 0.950 . S
H807 C836 0.950 . S
H808 C838 0.951 . S
H809 C839 0.949 . S
C810 C811 1.376 . S
C810 C815 1.386 . S
C810 C816 1.483 . S
C811 H792 0.949 . S
C811 C810 1.376 . S
C811 C812 1.397 . S
C812 H793 0.950 . S
C812 C811 1.397 . S
C812 C813 1.391 . S
C813 C812 1.391 . S
C813 C814 1.405 . S
C814 H794 0.950 . S
C814 C813 1.405 . S
C814 C815 1.367 . S
C815 H795 0.950 . S
C815 C810 1.386 . S
C815 C814 1.367 . S
C816 C810 1.483 . S
C816 C817 1.382 . S
C816 C818 1.403 . S
C817 H796 0.950 . S
C817 C816 1.382 . S
C817 C833 1.411 . S
C818 C816 1.403 . S
C818 C819 1.489 . S
C818 C832 1.411 . S
C819 C818 1.489 . S
C819 C820 1.383 . S
C819 C824 1.382 . S
C820 H797 0.950 . S
C820 C819 1.383 . S
C820 C821 1.395 . S
C821 H798 0.950 . S
C821 C820 1.395 . S
C821 C822 1.288 . S
C822 C821 1.288 . S
C822 C823 1.392 . S
C823 H799 0.951 . S
C823 C822 1.392 . S
C823 C824 1.392 . S
C824 H800 0.949 . S
C824 C819 1.382 . S
C824 C823 1.392 . S
C825 C826 1.376 . S
C825 C830 1.386 . S
C825 C831 1.483 . S
C826 H801 0.949 . S
C826 C825 1.376 . S
C826 C827 1.397 . S
C827 H802 0.950 . S
C827 C826 1.397 . S
C827 C828 1.391 . S
C828 C827 1.391 . S
C828 C829 1.405 . S
C829 H803 0.950 . S
C829 C828 1.405 . S
C829 C830 1.367 . S
C830 H804 0.950 . S
C830 C825 1.386 . S
C830 C829 1.367 . S
C831 C825 1.483 . S
C831 C832 1.382 . S
C831 C833 1.403 . S
C832 H805 0.950 . S
C832 C818 1.411 . S
C832 C831 1.382 . S
C833 C817 1.411 . S
C833 C831 1.403 . S
C833 C834 1.489 . S
C834 C833 1.489 . S
C834 C835 1.383 . S
C834 C839 1.382 . S
C835 H806 0.950 . S
C835 C834 1.383 . S
C835 C836 1.395 . S
C836 H807 0.950 . S
C836 C835 1.395 . S
C836 C837 1.288 . S
C837 C836 1.288 . S
C837 C838 1.392 . S
C838 H808 0.951 . S
C838 C837 1.392 . S
C838 C839 1.392 . S
C839 H809 0.949 . S
C839 C834 1.382 . S
C839 C838 1.392 . S
H840 C859 0.949 . S
H841 C860 0.950 . S
H842 C862 0.950 . S
H843 C863 0.950 . S
H844 C865 0.950 . S
H845 C868 0.950 . S
H846 C869 0.950 . S
H847 C871 0.951 . S
H848 C872 0.949 . S
H849 C874 0.949 . S
H850 C875 0.950 . S
H851 C877 0.950 . S
H852 C878 0.950 . S
H853 C880 0.950 . S
H854 C883 0.950 . S
H855 C884 0.950 . S
H856 C886 0.951 . S
H857 C887 0.949 . S
C858 C859 1.376 . S
C858 C863 1.386 . S
C858 C864 1.483 . S
C859 H840 0.949 . S
C859 C858 1.376 . S
C859 C860 1.397 . S
C860 H841 0.950 . S
C860 C859 1.397 . S
C860 C861 1.391 . S
C861 C860 1.391 . S
C861 C862 1.405 . S
C862 H842 0.950 . S
C862 C861 1.405 . S
C862 C863 1.367 . S
C863 H843 0.950 . S
C863 C858 1.386 . S
C863 C862 1.367 . S
C864 C858 1.483 . S
C864 C865 1.382 . S
C864 C866 1.403 . S
C865 H844 0.950 . S
C865 C864 1.382 . S
C865 C881 1.411 . S
C866 C864 1.403 . S
C866 C867 1.489 . S
C866 C880 1.411 . S
C867 C866 1.489 . S
C867 C868 1.383 . S
C867 C872 1.382 . S
C868 H845 0.950 . S
C868 C867 1.383 . S
C868 C869 1.395 . S
C869 H846 0.950 . S
C869 C868 1.395 . S
C869 C870 1.288 . S
C870 C869 1.288 . S
C870 C871 1.392 . S
C871 H847 0.951 . S
C871 C870 1.392 . S
C871 C872 1.392 . S
C872 H848 0.949 . S
C872 C867 1.382 . S
C872 C871 1.392 . S
C873 C874 1.376 . S
C873 C878 1.386 . S
C873 C879 1.483 . S
C874 H849 0.949 . S
C874 C873 1.376 . S
C874 C875 1.397 . S
C875 H850 0.950 . S
C875 C874 1.397 . S
C875 C876 1.391 . S
C876 C875 1.391 . S
C876 C877 1.405 . S
C877 H851 0.950 . S
C877 C876 1.405 . S
C877 C878 1.367 . S
C878 H852 0.950 . S
C878 C873 1.386 . S
C878 C877 1.367 . S
C879 C873 1.483 . S
C879 C880 1.382 . S
C879 C881 1.403 . S
C880 H853 0.950 . S
C880 C866 1.411 . S
C880 C879 1.382 . S
C881 C865 1.411 . S
C881 C879 1.403 . S
C881 C882 1.489 . S
C882 C881 1.489 . S
C882 C883 1.383 . S
C882 C887 1.382 . S
C883 H854 0.950 . S
C883 C882 1.383 . S
C883 C884 1.395 . S
C884 H855 0.950 . S
C884 C883 1.395 . S
C884 C885 1.288 . S
C885 C884 1.288 . S
C885 C886 1.392 . S
C886 H856 0.951 . S
C886 C885 1.392 . S
C886 C887 1.392 . S
C887 H857 0.949 . S
C887 C882 1.382 . S
C887 C886 1.392 . S
H888 C907 0.949 . S
H889 C908 0.950 . S
H890 C910 0.950 . S
H891 C911 0.950 . S
H892 C913 0.950 . S
H893 C916 0.950 . S
H894 C917 0.950 . S
H895 C919 0.951 . S
H896 C920 0.949 . S
H897 C922 0.949 . S
H898 C923 0.950 . S
H899 C925 0.950 . S
H900 C926 0.950 . S
H901 C928 0.950 . S
H902 C931 0.950 . S
H903 C932 0.950 . S
H904 C934 0.951 . S
H905 C935 0.949 . S
C906 C907 1.376 . S
C906 C911 1.386 . S
C906 C912 1.483 . S
C907 H888 0.949 . S
C907 C906 1.376 . S
C907 C908 1.397 . S
C908 H889 0.950 . S
C908 C907 1.397 . S
C908 C909 1.391 . S
C909 C908 1.391 . S
C909 C910 1.405 . S
C910 H890 0.950 . S
C910 C909 1.405 . S
C910 C911 1.367 . S
C911 H891 0.950 . S
C911 C906 1.386 . S
C911 C910 1.367 . S
C912 C906 1.483 . S
C912 C913 1.382 . S
C912 C914 1.403 . S
C913 H892 0.950 . S
C913 C912 1.382 . S
C913 C929 1.411 . S
C914 C912 1.403 . S
C914 C915 1.489 . S
C914 C928 1.411 . S
C915 C914 1.489 . S
C915 C916 1.383 . S
C915 C920 1.382 . S
C916 H893 0.950 . S
C916 C915 1.383 . S
C916 C917 1.395 . S
C917 H894 0.950 . S
C917 C916 1.395 . S
C917 C918 1.288 . S
C918 C917 1.288 . S
C918 C919 1.392 . S
C919 H895 0.951 . S
C919 C918 1.392 . S
C919 C920 1.392 . S
C920 H896 0.949 . S
C920 C915 1.382 . S
C920 C919 1.392 . S
C921 C922 1.376 . S
C921 C926 1.386 . S
C921 C927 1.483 . S
C922 H897 0.949 . S
C922 C921 1.376 . S
C922 C923 1.397 . S
C923 H898 0.950 . S
C923 C922 1.397 . S
C923 C924 1.391 . S
C924 C923 1.391 . S
C924 C925 1.405 . S
C925 H899 0.950 . S
C925 C924 1.405 . S
C925 C926 1.367 . S
C926 H900 0.950 . S
C926 C921 1.386 . S
C926 C925 1.367 . S
C927 C921 1.483 . S
C927 C928 1.382 . S
C927 C929 1.403 . S
C928 H901 0.950 . S
C928 C914 1.411 . S
C928 C927 1.382 . S
C929 C913 1.411 . S
C929 C927 1.403 . S
C929 C930 1.489 . S
C930 C929 1.489 . S
C930 C931 1.383 . S
C930 C935 1.382 . S
C931 H902 0.950 . S
C931 C930 1.383 . S
C931 C932 1.395 . S
C932 H903 0.950 . S
C932 C931 1.395 . S
C932 C933 1.288 . S
C933 C932 1.288 . S
C933 C934 1.392 . S
C934 H904 0.951 . S
C934 C933 1.392 . S
C934 C935 1.392 . S
C935 H905 0.949 . S
C935 C930 1.382 . S
C935 C934 1.392 . S
H936 C955 0.949 . S
H937 C956 0.950 . S
H938 C958 0.950 . S
H939 C959 0.950 . S
H940 C961 0.950 . S
H941 C964 0.950 . S
H942 C965 0.950 . S
H943 C967 0.951 . S
H944 C968 0.949 . S
H945 C970 0.949 . S
H946 C971 0.950 . S
H947 C973 0.950 . S
H948 C974 0.950 . S
H949 C976 0.950 . S
H950 C979 0.950 . S
H951 C980 0.950 . S
H952 C982 0.951 . S
H953 C983 0.949 . S
C954 C955 1.376 . S
C954 C959 1.386 . S
C954 C960 1.483 . S
C955 H936 0.949 . S
C955 C954 1.376 . S
C955 C956 1.397 . S
C956 H937 0.950 . S
C956 C955 1.397 . S
C956 C957 1.391 . S
C957 C956 1.391 . S
C957 C958 1.405 . S
C958 H938 0.950 . S
C958 C957 1.405 . S
C958 C959 1.367 . S
C959 H939 0.950 . S
C959 C954 1.386 . S
C959 C958 1.367 . S
C960 C954 1.483 . S
C960 C961 1.382 . S
C960 C962 1.403 . S
C961 H940 0.950 . S
C961 C960 1.382 . S
C961 C977 1.411 . S
C962 C960 1.403 . S
C962 C963 1.489 . S
C962 C976 1.411 . S
C963 C962 1.489 . S
C963 C964 1.383 . S
C963 C968 1.382 . S
C964 H941 0.950 . S
C964 C963 1.383 . S
C964 C965 1.395 . S
C965 H942 0.950 . S
C965 C964 1.395 . S
C965 C966 1.288 . S
C966 C965 1.288 . S
C966 C967 1.392 . S
C967 H943 0.951 . S
C967 C966 1.392 . S
C967 C968 1.392 . S
C968 H944 0.949 . S
C968 C963 1.382 . S
C968 C967 1.392 . S
C969 C970 1.376 . S
C969 C974 1.386 . S
C969 C975 1.483 . S
C970 H945 0.949 . S
C970 C969 1.376 . S
C970 C971 1.397 . S
C971 H946 0.950 . S
C971 C970 1.397 . S
C971 C972 1.391 . S
C972 C971 1.391 . S
C972 C973 1.405 . S
C973 H947 0.950 . S
C973 C972 1.405 . S
C973 C974 1.367 . S
C974 H948 0.950 . S
C974 C969 1.386 . S
C974 C973 1.367 . S
C975 C969 1.483 . S
C975 C976 1.382 . S
C975 C977 1.403 . S
C976 H949 0.950 . S
C976 C962 1.411 . S
C976 C975 1.382 . S
C977 C961 1.411 . S
C977 C975 1.403 . S
C977 C978 1.489 . S
C978 C977 1.489 . S
C978 C979 1.383 . S
C978 C983 1.382 . S
C979 H950 0.950 . S
C979 C978 1.383 . S
C979 C980 1.395 . S
C980 H951 0.950 . S
C980 C979 1.395 . S
C980 C981 1.288 . S
C981 C980 1.288 . S
C981 C982 1.392 . S
C982 H952 0.951 . S
C982 C981 1.392 . S
C982 C983 1.392 . S
C983 H953 0.949 . S
C983 C978 1.382 . S
C983 C982 1.392 . S
H984 C1003 0.949 . S
H985 C1004 0.950 . S
H986 C1006 0.950 . S
H987 C1007 0.950 . S
H988 C1009 0.950 . S
H989 C1012 0.950 . S
H990 C1013 0.950 . S
H991 C1015 0.951 . S
H992 C1016 0.949 . S
H993 C1018 0.949 . S
H994 C1019 0.950 . S
H995 C1021 0.950 . S
H996 C1022 0.950 . S
H997 C1024 0.950 . S
H998 C1027 0.950 . S
H999 C1028 0.950 . S
H1000 C1030 0.951 . S
H1001 C1031 0.949 . S
C1002 C1003 1.376 . S
C1002 C1007 1.386 . S
C1002 C1008 1.483 . S
C1003 H984 0.949 . S
C1003 C1002 1.376 . S
C1003 C1004 1.397 . S
C1004 H985 0.950 . S
C1004 C1003 1.397 . S
C1004 C1005 1.391 . S
C1005 C1004 1.391 . S
C1005 C1006 1.405 . S
C1006 H986 0.950 . S
C1006 C1005 1.405 . S
C1006 C1007 1.367 . S
C1007 H987 0.950 . S
C1007 C1002 1.386 . S
C1007 C1006 1.367 . S
C1008 C1002 1.483 . S
C1008 C1009 1.382 . S
C1008 C1010 1.403 . S
C1009 H988 0.950 . S
C1009 C1008 1.382 . S
C1009 C1025 1.411 . S
C1010 C1008 1.403 . S
C1010 C1011 1.489 . S
C1010 C1024 1.411 . S
C1011 C1010 1.489 . S
C1011 C1012 1.383 . S
C1011 C1016 1.382 . S
C1012 H989 0.950 . S
C1012 C1011 1.383 . S
C1012 C1013 1.395 . S
C1013 H990 0.950 . S
C1013 C1012 1.395 . S
C1013 C1014 1.288 . S
C1014 C1013 1.288 . S
C1014 C1015 1.392 . S
C1015 H991 0.951 . S
C1015 C1014 1.392 . S
C1015 C1016 1.392 . S
C1016 H992 0.949 . S
C1016 C1011 1.382 . S
C1016 C1015 1.392 . S
C1017 C1018 1.376 . S
C1017 C1022 1.386 . S
C1017 C1023 1.483 . S
C1018 H993 0.949 . S
C1018 C1017 1.376 . S
C1018 C1019 1.397 . S
C1019 H994 0.950 . S
C1019 C1018 1.397 . S
C1019 C1020 1.391 . S
C1020 C1019 1.391 . S
C1020 C1021 1.405 . S
C1021 H995 0.950 . S
C1021 C1020 1.405 . S
C1021 C1022 1.367 . S
C1022 H996 0.950 . S
C1022 C1017 1.386 . S
C1022 C1021 1.367 . S
C1023 C1017 1.483 . S
C1023 C1024 1.382 . S
C1023 C1025 1.403 . S
C1024 H997 0.950 . S
C1024 C1010 1.411 . S
C1024 C1023 1.382 . S
C1025 C1009 1.411 . S
C1025 C1023 1.403 . S
C1025 C1026 1.489 . S
C1026 C1025 1.489 . S
C1026 C1027 1.383 . S
C1026 C1031 1.382 . S
C1027 H998 0.950 . S
C1027 C1026 1.383 . S
C1027 C1028 1.395 . S
C1028 H999 0.950 . S
C1028 C1027 1.395 . S
C1028 C1029 1.288 . S
C1029 C1028 1.288 . S
C1029 C1030 1.392 . S
C1030 H1000 0.951 . S
C1030 C1029 1.392 . S
C1030 C1031 1.392 . S
C1031 H1001 0.949 . S
C1031 C1026 1.382 . S
C1031 C1030 1.392 . S
H1032 C1051 0.949 . S
H1033 C1052 0.950 . S
H1034 C1054 0.950 . S
H1035 C1055 0.950 . S
H1036 C1057 0.950 . S
H1037 C1060 0.950 . S
H1038 C1061 0.950 . S
H1039 C1063 0.951 . S
H1040 C1064 0.949 . S
H1041 C1066 0.949 . S
H1042 C1067 0.950 . S
H1043 C1069 0.950 . S
H1044 C1070 0.950 . S
H1045 C1072 0.950 . S
H1046 C1075 0.950 . S
H1047 C1076 0.950 . S
H1048 C1078 0.951 . S
H1049 C1079 0.949 . S
C1050 C1051 1.376 . S
C1050 C1055 1.386 . S
C1050 C1056 1.483 . S
C1051 H1032 0.949 . S
C1051 C1050 1.376 . S
C1051 C1052 1.397 . S
C1052 H1033 0.950 . S
C1052 C1051 1.397 . S
C1052 C1053 1.391 . S
C1053 C1052 1.391 . S
C1053 C1054 1.405 . S
C1054 H1034 0.950 . S
C1054 C1053 1.405 . S
C1054 C1055 1.367 . S
C1055 H1035 0.950 . S
C1055 C1050 1.386 . S
C1055 C1054 1.367 . S
C1056 C1050 1.483 . S
C1056 C1057 1.382 . S
C1056 C1058 1.403 . S
C1057 H1036 0.950 . S
C1057 C1056 1.382 . S
C1057 C1073 1.411 . S
C1058 C1056 1.403 . S
C1058 C1059 1.489 . S
C1058 C1072 1.411 . S
C1059 C1058 1.489 . S
C1059 C1060 1.383 . S
C1059 C1064 1.382 . S
C1060 H1037 0.950 . S
C1060 C1059 1.383 . S
C1060 C1061 1.395 . S
C1061 H1038 0.950 . S
C1061 C1060 1.395 . S
C1061 C1062 1.288 . S
C1062 C1061 1.288 . S
C1062 C1063 1.392 . S
C1063 H1039 0.951 . S
C1063 C1062 1.392 . S
C1063 C1064 1.392 . S
C1064 H1040 0.949 . S
C1064 C1059 1.382 . S
C1064 C1063 1.392 . S
C1065 C1066 1.376 . S
C1065 C1070 1.386 . S
C1065 C1071 1.483 . S
C1066 H1041 0.949 . S
C1066 C1065 1.376 . S
C1066 C1067 1.397 . S
C1067 H1042 0.950 . S
C1067 C1066 1.397 . S
C1067 C1068 1.391 . S
C1068 C1067 1.391 . S
C1068 C1069 1.405 . S
C1069 H1043 0.950 . S
C1069 C1068 1.405 . S
C1069 C1070 1.367 . S
C1070 H1044 0.950 . S
C1070 C1065 1.386 . S
C1070 C1069 1.367 . S
C1071 C1065 1.483 . S
C1071 C1072 1.382 . S
C1071 C1073 1.403 . S
C1072 H1045 0.950 . S
C1072 C1058 1.411 . S
C1072 C1071 1.382 . S
C1073 C1057 1.411 . S
C1073 C1071 1.403 . S
C1073 C1074 1.489 . S
C1074 C1073 1.489 . S
C1074 C1075 1.383 . S
C1074 C1079 1.382 . S
C1075 H1046 0.950 . S
C1075 C1074 1.383 . S
C1075 C1076 1.395 . S
C1076 H1047 0.950 . S
C1076 C1075 1.395 . S
C1076 C1077 1.288 . S
C1077 C1076 1.288 . S
C1077 C1078 1.392 . S
C1078 H1048 0.951 . S
C1078 C1077 1.392 . S
C1078 C1079 1.392 . S
C1079 H1049 0.949 . S
C1079 C1074 1.382 . S
C1079 C1078 1.392 . S
H1080 C1099 0.949 . S
H1081 C1100 0.950 . S
H1082 C1102 0.950 . S
H1083 C1103 0.950 . S
H1084 C1105 0.950 . S
H1085 C1108 0.950 . S
H1086 C1109 0.950 . S
H1087 C1111 0.951 . S
H1088 C1112 0.949 . S
H1089 C1114 0.949 . S
H1090 C1115 0.950 . S
H1091 C1117 0.950 . S
H1092 C1118 0.950 . S
H1093 C1120 0.950 . S
H1094 C1123 0.950 . S
H1095 C1124 0.950 . S
H1096 C1126 0.951 . S
H1097 C1127 0.949 . S
C1098 C1099 1.376 . S
C1098 C1103 1.386 1_655 S
C1098 C1104 1.483 . S
C1099 H1080 0.949 . S
C1099 C1098 1.376 . S
C1099 C1100 1.397 . S
C1100 H1081 0.950 . S
C1100 C1099 1.397 . S
C1100 C1101 1.391 . S
C1101 C1100 1.391 . S
C1101 C1102 1.405 1_655 S
C1102 H1082 0.950 . S
C1102 C1101 1.405 1_455 S
C1102 C1103 1.367 . S
C1103 H1083 0.950 . S
C1103 C1098 1.386 1_455 S
C1103 C1102 1.367 . S
C1104 C1098 1.483 . S
C1104 C1105 1.382 . S
C1104 C1106 1.403 1_655 S
C1105 H1084 0.950 . S
C1105 C1104 1.382 . S
C1105 C1121 1.411 . S
C1106 C1104 1.403 1_455 S
C1106 C1107 1.489 . S
C1106 C1120 1.411 . S
C1107 C1106 1.489 . S
C1107 C1108 1.383 1_455 S
C1107 C1112 1.382 . S
C1108 H1085 0.950 . S
C1108 C1107 1.383 1_655 S
C1108 C1109 1.395 . S
C1109 H1086 0.950 . S
C1109 C1108 1.395 . S
C1109 C1110 1.288 1_655 S
C1110 C1109 1.288 1_455 S
C1110 C1111 1.392 . S
C1111 H1087 0.951 . S
C1111 C1110 1.392 . S
C1111 C1112 1.392 . S
C1112 H1088 0.949 . S
C1112 C1107 1.382 . S
C1112 C1111 1.392 . S
C1113 C1114 1.376 . S
C1113 C1118 1.386 1_455 S
C1113 C1119 1.483 . S
C1114 H1089 0.949 . S
C1114 C1113 1.376 . S
C1114 C1115 1.397 . S
C1115 H1090 0.950 . S
C1115 C1114 1.397 . S
C1115 C1116 1.391 . S
C1116 C1115 1.391 . S
C1116 C1117 1.405 1_455 S
C1117 H1091 0.950 . S
C1117 C1116 1.405 1_655 S
C1117 C1118 1.367 . S
C1118 H1092 0.950 . S
C1118 C1113 1.386 1_655 S
C1118 C1117 1.367 . S
C1119 C1113 1.483 . S
C1119 C1120 1.382 . S
C1119 C1121 1.403 1_455 S
C1120 H1093 0.950 . S
C1120 C1106 1.411 . S
C1120 C1119 1.382 . S
C1121 C1105 1.411 . S
C1121 C1119 1.403 1_655 S
C1121 C1122 1.489 . S
C1122 C1121 1.489 . S
C1122 C1123 1.383 1_655 S
C1122 C1127 1.382 . S
C1123 H1094 0.950 . S
C1123 C1122 1.383 1_455 S
C1123 C1124 1.395 . S
C1124 H1095 0.950 . S
C1124 C1123 1.395 . S
C1124 C1125 1.288 1_455 S
C1125 C1124 1.288 1_655 S
C1125 C1126 1.392 . S
C1126 H1096 0.951 . S
C1126 C1125 1.392 . S
C1126 C1127 1.392 . S
C1127 H1097 0.949 . S
C1127 C1122 1.382 . S
C1127 C1126 1.392 . S
H1128 C1147 0.949 . S
H1129 C1148 0.950 . S
H1130 C1150 0.950 . S
H1131 C1151 0.950 . S
H1132 C1153 0.950 . S
H1133 C1156 0.950 . S
H1134 C1157 0.950 . S
H1135 C1159 0.951 . S
H1136 C1160 0.949 . S
H1137 C1162 0.949 . S
H1138 C1163 0.950 . S
H1139 C1165 0.950 . S
H1140 C1166 0.950 . S
H1141 C1168 0.950 . S
H1142 C1171 0.950 . S
H1143 C1172 0.950 . S
H1144 C1174 0.951 . S
H1145 C1175 0.949 . S
C1146 C1147 1.376 . S
C1146 C1151 1.386 . S
C1146 C1152 1.483 . S
C1147 H1128 0.949 . S
C1147 C1146 1.376 . S
C1147 C1148 1.397 . S
C1148 H1129 0.950 . S
C1148 C1147 1.397 . S
C1148 C1149 1.391 . S
C1149 C1148 1.391 . S
C1149 C1150 1.405 . S
C1150 H1130 0.950 . S
C1150 C1149 1.405 . S
C1150 C1151 1.367 . S
C1151 H1131 0.950 . S
C1151 C1146 1.386 . S
C1151 C1150 1.367 . S
C1152 C1146 1.483 . S
C1152 C1153 1.382 . S
C1152 C1154 1.403 . S
C1153 H1132 0.950 . S
C1153 C1152 1.382 . S
C1153 C1169 1.411 . S
C1154 C1152 1.403 . S
C1154 C1155 1.489 . S
C1154 C1168 1.411 . S
C1155 C1154 1.489 . S
C1155 C1156 1.383 . S
C1155 C1160 1.382 . S
C1156 H1133 0.950 . S
C1156 C1155 1.383 . S
C1156 C1157 1.395 . S
C1157 H1134 0.950 . S
C1157 C1156 1.395 . S
C1157 C1158 1.288 . S
C1158 C1157 1.288 . S
C1158 C1159 1.392 . S
C1159 H1135 0.951 . S
C1159 C1158 1.392 . S
C1159 C1160 1.392 . S
C1160 H1136 0.949 . S
C1160 C1155 1.382 . S
C1160 C1159 1.392 . S
C1161 C1162 1.376 . S
C1161 C1166 1.386 . S
C1161 C1167 1.483 . S
C1162 H1137 0.949 . S
C1162 C1161 1.376 . S
C1162 C1163 1.397 . S
C1163 H1138 0.950 . S
C1163 C1162 1.397 . S
C1163 C1164 1.391 . S
C1164 C1163 1.391 . S
C1164 C1165 1.405 . S
C1165 H1139 0.950 . S
C1165 C1164 1.405 . S
C1165 C1166 1.367 . S
C1166 H1140 0.950 . S
C1166 C1161 1.386 . S
C1166 C1165 1.367 . S
C1167 C1161 1.483 . S
C1167 C1168 1.382 . S
C1167 C1169 1.403 . S
C1168 H1141 0.950 . S
C1168 C1154 1.411 . S
C1168 C1167 1.382 . S
C1169 C1153 1.411 . S
C1169 C1167 1.403 . S
C1169 C1170 1.489 . S
C1170 C1169 1.489 . S
C1170 C1171 1.383 . S
C1170 C1175 1.382 . S
C1171 H1142 0.950 . S
C1171 C1170 1.383 . S
C1171 C1172 1.395 . S
C1172 H1143 0.950 . S
C1172 C1171 1.395 . S
C1172 C1173 1.288 . S
C1173 C1172 1.288 . S
C1173 C1174 1.392 . S
C1174 H1144 0.951 . S
C1174 C1173 1.392 . S
C1174 C1175 1.392 . S
C1175 H1145 0.949 . S
C1175 C1170 1.382 . S
C1175 C1174 1.392 . S
H1176 C1195 0.949 . S
H1177 C1196 0.950 . S
H1178 C1198 0.950 . S
H1179 C1199 0.950 . S
H1180 C1201 0.950 . S
H1181 C1204 0.950 . S
H1182 C1205 0.950 . S
H1183 C1207 0.951 . S
H1184 C1208 0.949 . S
H1185 C1210 0.949 . S
H1186 C1211 0.950 . S
H1187 C1213 0.950 . S
H1188 C1214 0.950 . S
H1189 C1216 0.950 . S
H1190 C1219 0.950 . S
H1191 C1220 0.950 . S
H1192 C1222 0.951 . S
H1193 C1223 0.949 . S
C1194 C1195 1.376 . S
C1194 C1199 1.386 1_545 S
C1194 C1200 1.483 . S
C1195 H1176 0.949 . S
C1195 C1194 1.376 . S
C1195 C1196 1.397 . S
C1196 H1177 0.950 . S
C1196 C1195 1.397 . S
C1196 C1197 1.391 . S
C1197 C1196 1.391 . S
C1197 C1198 1.405 1_545 S
C1198 H1178 0.950 . S
C1198 C1197 1.405 1_565 S
C1198 C1199 1.367 . S
C1199 H1179 0.950 . S
C1199 C1194 1.386 1_565 S
C1199 C1198 1.367 . S
C1200 C1194 1.483 . S
C1200 C1201 1.382 . S
C1200 C1202 1.403 1_545 S
C1201 H1180 0.950 . S
C1201 C1200 1.382 . S
C1201 C1217 1.411 . S
C1202 C1200 1.403 1_565 S
C1202 C1203 1.489 . S
C1202 C1216 1.411 . S
C1203 C1202 1.489 . S
C1203 C1204 1.383 1_565 S
C1203 C1208 1.382 . S
C1204 H1181 0.950 . S
C1204 C1203 1.383 1_545 S
C1204 C1205 1.395 . S
C1205 H1182 0.950 . S
C1205 C1204 1.395 . S
C1205 C1206 1.288 1_545 S
C1206 C1205 1.288 1_565 S
C1206 C1207 1.392 . S
C1207 H1183 0.951 . S
C1207 C1206 1.392 . S
C1207 C1208 1.392 . S
C1208 H1184 0.949 . S
C1208 C1203 1.382 . S
C1208 C1207 1.392 . S
C1209 C1210 1.376 . S
C1209 C1214 1.386 1_565 S
C1209 C1215 1.483 . S
C1210 H1185 0.949 . S
C1210 C1209 1.376 . S
C1210 C1211 1.397 . S
C1211 H1186 0.950 . S
C1211 C1210 1.397 . S
C1211 C1212 1.391 . S
C1212 C1211 1.391 . S
C1212 C1213 1.405 1_565 S
C1213 H1187 0.950 . S
C1213 C1212 1.405 1_545 S
C1213 C1214 1.367 . S
C1214 H1188 0.950 . S
C1214 C1209 1.386 1_545 S
C1214 C1213 1.367 . S
C1215 C1209 1.483 . S
C1215 C1216 1.382 . S
C1215 C1217 1.403 1_565 S
C1216 H1189 0.950 . S
C1216 C1202 1.411 . S
C1216 C1215 1.382 . S
C1217 C1201 1.411 . S
C1217 C1215 1.403 1_545 S
C1217 C1218 1.489 . S
C1218 C1217 1.489 . S
C1218 C1219 1.383 1_545 S
C1218 C1223 1.382 . S
C1219 H1190 0.950 . S
C1219 C1218 1.383 1_565 S
C1219 C1220 1.395 . S
C1220 H1191 0.950 . S
C1220 C1219 1.395 . S
C1220 C1221 1.288 1_565 S
C1221 C1220 1.288 1_545 S
C1221 C1222 1.392 . S
C1222 H1192 0.951 . S
C1222 C1221 1.392 . S
C1222 C1223 1.392 . S
C1223 H1193 0.949 . S
C1223 C1218 1.382 . S
C1223 C1222 1.392 . S
H1224 C1243 0.949 . S
H1225 C1244 0.950 . S
H1226 C1246 0.950 . S
H1227 C1247 0.950 . S
H1228 C1249 0.950 . S
H1229 C1252 0.950 . S
H1230 C1253 0.950 . S
H1231 C1255 0.951 . S
H1232 C1256 0.949 . S
H1233 C1258 0.949 . S
H1234 C1259 0.950 . S
H1235 C1261 0.950 . S
H1236 C1262 0.950 . S
H1237 C1264 0.950 . S
H1238 C1267 0.950 . S
H1239 C1268 0.950 . S
H1240 C1270 0.951 . S
H1241 C1271 0.949 . S
C1242 C1243 1.380 . S
C1242 C1247 1.384 1_545 S
C1242 C1248 1.505 . S
C1243 H1224 0.949 . S
C1243 C1242 1.380 . S
C1243 C1244 1.397 . S
C1244 H1225 0.950 . S
C1244 C1243 1.397 . S
C1244 C1245 1.391 1_545 S
C1245 C1244 1.391 1_565 S
C1245 C1246 1.405 . S
C1246 H1226 0.950 . S
C1246 C1245 1.405 . S
C1246 C1247 1.367 . S
C1247 H1227 0.950 . S
C1247 C1242 1.384 1_565 S
C1247 C1246 1.367 . S
C1248 C1242 1.505 . S
C1248 C1249 1.360 . S
C1248 C1250 1.398 1_545 S
C1249 H1228 0.950 . S
C1249 C1248 1.360 . S
C1249 C1265 1.411 . S
C1250 C1248 1.398 1_565 S
C1250 C1251 1.485 . S
C1250 C1264 1.438 . S
C1251 C1250 1.485 . S
C1251 C1252 1.341 1_565 S
C1251 C1256 1.405 . S
C1252 H1229 0.950 . S
C1252 C1251 1.341 1_545 S
C1252 C1253 1.395 . S
C1253 H1230 0.950 . S
C1253 C1252 1.395 . S
C1253 C1254 1.288 . S
C1254 C1253 1.288 . S
C1254 C1255 1.392 1_545 S
C1255 H1231 0.951 . S
C1255 C1254 1.392 1_565 S
C1255 C1256 1.392 . S
C1256 H1232 0.949 . S
C1256 C1251 1.405 . S
C1256 C1255 1.392 . S
C1257 C1258 1.380 1_545 S
C1257 C1262 1.384 . S
C1257 C1263 1.499 1_545 S
C1258 H1233 0.949 . S
C1258 C1257 1.380 1_565 S
C1258 C1259 1.397 . S
C1259 H1234 0.950 . S
C1259 C1258 1.397 . S
C1259 C1260 1.391 1_565 S
C1260 C1259 1.391 1_545 S
C1260 C1261 1.405 . S
C1261 H1235 0.950 . S
C1261 C1260 1.405 . S
C1261 C1262 1.367 . S
C1262 H1236 0.950 . S
C1262 C1257 1.384 . S
C1262 C1261 1.367 . S
C1263 C1257 1.499 1_565 S
C1263 C1264 1.365 . S
C1263 C1265 1.400 1_565 S
C1264 H1237 0.950 . S
C1264 C1250 1.438 . S
C1264 C1263 1.365 . S
C1265 C1249 1.411 . S
C1265 C1263 1.400 1_545 S
C1265 C1266 1.513 . S
C1266 C1265 1.513 . S
C1266 C1267 1.328 1_545 S
C1266 C1271 1.413 . S
C1267 H1238 0.950 . S
C1267 C1266 1.328 1_565 S
C1267 C1268 1.395 . S
C1268 H1239 0.950 . S
C1268 C1267 1.395 . S
C1268 C1269 1.288 . S
C1269 C1268 1.288 . S
C1269 C1270 1.392 1_565 S
C1270 H1240 0.951 . S
C1270 C1269 1.392 1_545 S
C1270 C1271 1.392 . S
C1271 H1241 0.949 . S
C1271 C1266 1.413 . S
C1271 C1270 1.392 . S
H1272 C1291 0.949 . S
H1273 C1292 0.950 . S
H1274 C1294 0.950 . S
H1275 C1295 0.950 . S
H1276 C1297 0.950 . S
H1277 C1300 0.950 . S
H1278 C1301 0.950 . S
H1279 C1303 0.951 . S
H1280 C1304 0.949 . S
H1281 C1306 0.949 . S
H1282 C1307 0.950 . S
H1283 C1309 0.950 . S
H1284 C1310 0.950 . S
H1285 C1312 0.950 . S
H1286 C1315 0.950 . S
H1287 C1316 0.950 . S
H1288 C1318 0.951 . S
H1289 C1319 0.949 . S
C1290 C1291 1.376 . S
C1290 C1295 1.386 1_455 S
C1290 C1296 1.483 . S
C1291 H1272 0.949 . S
C1291 C1290 1.376 . S
C1291 C1292 1.397 . S
C1292 H1273 0.950 . S
C1292 C1291 1.397 . S
C1292 C1293 1.391 . S
C1293 C1292 1.391 . S
C1293 C1294 1.405 1_455 S
C1294 H1274 0.950 . S
C1294 C1293 1.405 1_655 S
C1294 C1295 1.367 . S
C1295 H1275 0.950 . S
C1295 C1290 1.386 1_655 S
C1295 C1294 1.367 . S
C1296 C1290 1.483 . S
C1296 C1297 1.382 . S
C1296 C1298 1.403 1_455 S
C1297 H1276 0.950 . S
C1297 C1296 1.382 . S
C1297 C1313 1.411 . S
C1298 C1296 1.403 1_655 S
C1298 C1299 1.489 . S
C1298 C1312 1.411 . S
C1299 C1298 1.489 . S
C1299 C1300 1.383 1_655 S
C1299 C1304 1.382 . S
C1300 H1277 0.950 . S
C1300 C1299 1.383 1_455 S
C1300 C1301 1.395 . S
C1301 H1278 0.950 . S
C1301 C1300 1.395 . S
C1301 C1302 1.288 1_455 S
C1302 C1301 1.288 1_655 S
C1302 C1303 1.392 . S
C1303 H1279 0.951 . S
C1303 C1302 1.392 . S
C1303 C1304 1.392 . S
C1304 H1280 0.949 . S
C1304 C1299 1.382 . S
C1304 C1303 1.392 . S
C1305 C1306 1.376 . S
C1305 C1310 1.386 1_655 S
C1305 C1311 1.483 . S
C1306 H1281 0.949 . S
C1306 C1305 1.376 . S
C1306 C1307 1.397 . S
C1307 H1282 0.950 . S
C1307 C1306 1.397 . S
C1307 C1308 1.391 . S
C1308 C1307 1.391 . S
C1308 C1309 1.405 1_655 S
C1309 H1283 0.950 . S
C1309 C1308 1.405 1_455 S
C1309 C1310 1.367 . S
C1310 H1284 0.950 . S
C1310 C1305 1.386 1_455 S
C1310 C1309 1.367 . S
C1311 C1305 1.483 . S
C1311 C1312 1.382 . S
C1311 C1313 1.403 1_655 S
C1312 H1285 0.950 . S
C1312 C1298 1.411 . S
C1312 C1311 1.382 . S
C1313 C1297 1.411 . S
C1313 C1311 1.403 1_455 S
C1313 C1314 1.489 . S
C1314 C1313 1.489 . S
C1314 C1315 1.383 1_455 S
C1314 C1319 1.382 . S
C1315 H1286 0.950 . S
C1315 C1314 1.383 1_655 S
C1315 C1316 1.395 . S
C1316 H1287 0.950 . S
C1316 C1315 1.395 . S
C1316 C1317 1.288 1_655 S
C1317 C1316 1.288 1_455 S
C1317 C1318 1.392 . S
C1318 H1288 0.951 . S
C1318 C1317 1.392 . S
C1318 C1319 1.392 . S
C1319 H1289 0.949 . S
C1319 C1314 1.382 . S
C1319 C1318 1.392 . S
H1320 C1339 0.949 . S
H1321 C1340 0.950 . S
H1322 C1342 0.950 . S
H1323 C1343 0.950 . S
H1324 C1345 0.950 . S
H1325 C1348 0.950 . S
H1326 C1349 0.950 . S
H1327 C1351 0.951 . S
H1328 C1352 0.949 . S
H1329 C1354 0.949 . S
H1330 C1355 0.950 . S
H1331 C1357 0.950 . S
H1332 C1358 0.950 . S
H1333 C1360 0.950 . S
H1334 C1363 0.950 . S
H1335 C1364 0.950 . S
H1336 C1366 0.951 . S
H1337 C1367 0.949 . S
C1338 C1339 1.376 . S
C1338 C1343 1.386 . S
C1338 C1344 1.483 . S
C1339 H1320 0.949 . S
C1339 C1338 1.376 . S
C1339 C1340 1.397 . S
C1340 H1321 0.950 . S
C1340 C1339 1.397 . S
C1340 C1341 1.391 . S
C1341 C1340 1.391 . S
C1341 C1342 1.405 . S
C1342 H1322 0.950 . S
C1342 C1341 1.405 . S
C1342 C1343 1.367 . S
C1343 H1323 0.950 . S
C1343 C1338 1.386 . S
C1343 C1342 1.367 . S
C1344 C1338 1.483 . S
C1344 C1345 1.382 . S
C1344 C1346 1.403 . S
C1345 H1324 0.950 . S
C1345 C1344 1.382 . S
C1345 C1361 1.411 . S
C1346 C1344 1.403 . S
C1346 C1347 1.489 . S
C1346 C1360 1.411 . S
C1347 C1346 1.489 . S
C1347 C1348 1.383 . S
C1347 C1352 1.382 . S
C1348 H1325 0.950 . S
C1348 C1347 1.383 . S
C1348 C1349 1.395 . S
C1349 H1326 0.950 . S
C1349 C1348 1.395 . S
C1349 C1350 1.288 . S
C1350 C1349 1.288 . S
C1350 C1351 1.392 . S
C1351 H1327 0.951 . S
C1351 C1350 1.392 . S
C1351 C1352 1.392 . S
C1352 H1328 0.949 . S
C1352 C1347 1.382 . S
C1352 C1351 1.392 . S
C1353 C1354 1.376 . S
C1353 C1358 1.386 . S
C1353 C1359 1.483 . S
C1354 H1329 0.949 . S
C1354 C1353 1.376 . S
C1354 C1355 1.397 . S
C1355 H1330 0.950 . S
C1355 C1354 1.397 . S
C1355 C1356 1.391 . S
C1356 C1355 1.391 . S
C1356 C1357 1.405 . S
C1357 H1331 0.950 . S
C1357 C1356 1.405 . S
C1357 C1358 1.367 . S
C1358 H1332 0.950 . S
C1358 C1353 1.386 . S
C1358 C1357 1.367 . S
C1359 C1353 1.483 . S
C1359 C1360 1.382 . S
C1359 C1361 1.403 . S
C1360 H1333 0.950 . S
C1360 C1346 1.411 . S
C1360 C1359 1.382 . S
C1361 C1345 1.411 . S
C1361 C1359 1.403 . S
C1361 C1362 1.489 . S
C1362 C1361 1.489 . S
C1362 C1363 1.383 . S
C1362 C1367 1.382 . S
C1363 H1334 0.950 . S
C1363 C1362 1.383 . S
C1363 C1364 1.395 . S
C1364 H1335 0.950 . S
C1364 C1363 1.395 . S
C1364 C1365 1.288 . S
C1365 C1364 1.288 . S
C1365 C1366 1.392 . S
C1366 H1336 0.951 . S
C1366 C1365 1.392 . S
C1366 C1367 1.392 . S
C1367 H1337 0.949 . S
C1367 C1362 1.382 . S
C1367 C1366 1.392 . S
H1368 C1387 0.949 . S
H1369 C1388 0.950 . S
H1370 C1390 0.950 . S
H1371 C1391 0.950 . S
H1372 C1393 0.950 . S
H1373 C1396 0.950 . S
H1374 C1397 0.950 . S
H1375 C1399 0.951 . S
H1376 C1400 0.949 . S
H1377 C1402 0.949 . S
H1378 C1403 0.950 . S
H1379 C1405 0.950 . S
H1380 C1406 0.950 . S
H1381 C1408 0.950 . S
H1382 C1411 0.950 . S
H1383 C1412 0.950 . S
H1384 C1414 0.951 . S
H1385 C1415 0.949 . S
C1386 C1387 1.376 . S
C1386 C1391 1.386 . S
C1386 C1392 1.483 . S
C1387 H1368 0.949 . S
C1387 C1386 1.376 . S
C1387 C1388 1.397 . S
C1388 H1369 0.950 . S
C1388 C1387 1.397 . S
C1388 C1389 1.391 . S
C1389 C1388 1.391 . S
C1389 C1390 1.405 . S
C1390 H1370 0.950 . S
C1390 C1389 1.405 . S
C1390 C1391 1.367 . S
C1391 H1371 0.950 . S
C1391 C1386 1.386 . S
C1391 C1390 1.367 . S
C1392 C1386 1.483 . S
C1392 C1393 1.382 . S
C1392 C1394 1.403 . S
C1393 H1372 0.950 . S
C1393 C1392 1.382 . S
C1393 C1409 1.411 . S
C1394 C1392 1.403 . S
C1394 C1395 1.489 . S
C1394 C1408 1.411 . S
C1395 C1394 1.489 . S
C1395 C1396 1.383 . S
C1395 C1400 1.382 . S
C1396 H1373 0.950 . S
C1396 C1395 1.383 . S
C1396 C1397 1.395 . S
C1397 H1374 0.950 . S
C1397 C1396 1.395 . S
C1397 C1398 1.288 . S
C1398 C1397 1.288 . S
C1398 C1399 1.392 . S
C1399 H1375 0.951 . S
C1399 C1398 1.392 . S
C1399 C1400 1.392 . S
C1400 H1376 0.949 . S
C1400 C1395 1.382 . S
C1400 C1399 1.392 . S
C1401 C1402 1.376 . S
C1401 C1406 1.386 . S
C1401 C1407 1.483 . S
C1402 H1377 0.949 . S
C1402 C1401 1.376 . S
C1402 C1403 1.397 . S
C1403 H1378 0.950 . S
C1403 C1402 1.397 . S
C1403 C1404 1.391 . S
C1404 C1403 1.391 . S
C1404 C1405 1.405 . S
C1405 H1379 0.950 . S
C1405 C1404 1.405 . S
C1405 C1406 1.367 . S
C1406 H1380 0.950 . S
C1406 C1401 1.386 . S
C1406 C1405 1.367 . S
C1407 C1401 1.483 . S
C1407 C1408 1.382 . S
C1407 C1409 1.403 . S
C1408 H1381 0.950 . S
C1408 C1394 1.411 . S
C1408 C1407 1.382 . S
C1409 C1393 1.411 . S
C1409 C1407 1.403 . S
C1409 C1410 1.489 . S
C1410 C1409 1.489 . S
C1410 C1411 1.383 . S
C1410 C1415 1.382 . S
C1411 H1382 0.950 . S
C1411 C1410 1.383 . S
C1411 C1412 1.395 . S
C1412 H1383 0.950 . S
C1412 C1411 1.395 . S
C1412 C1413 1.288 . S
C1413 C1412 1.288 . S
C1413 C1414 1.392 . S
C1414 H1384 0.951 . S
C1414 C1413 1.392 . S
C1414 C1415 1.392 . S
C1415 H1385 0.949 . S
C1415 C1410 1.382 . S
C1415 C1414 1.392 . S
H1416 C1435 0.949 . S
H1417 C1436 0.950 . S
H1418 C1438 0.950 . S
H1419 C1439 0.950 . S
H1420 C1441 0.950 . S
H1421 C1444 0.950 . S
H1422 C1445 0.950 . S
H1423 C1447 0.951 . S
H1424 C1448 0.949 . S
H1425 C1450 0.949 . S
H1426 C1451 0.950 . S
H1427 C1453 0.950 . S
H1428 C1454 0.950 . S
H1429 C1456 0.950 . S
H1430 C1459 0.950 . S
H1431 C1460 0.950 . S
H1432 C1462 0.951 . S
H1433 C1463 0.949 . S
C1434 C1435 1.376 . S
C1434 C1439 1.386 . S
C1434 C1440 1.483 . S
C1435 H1416 0.949 . S
C1435 C1434 1.376 . S
C1435 C1436 1.397 . S
C1436 H1417 0.950 . S
C1436 C1435 1.397 . S
C1436 C1437 1.391 . S
C1437 C1436 1.391 . S
C1437 C1438 1.405 . S
C1438 H1418 0.950 . S
C1438 C1437 1.405 . S
C1438 C1439 1.367 . S
C1439 H1419 0.950 . S
C1439 C1434 1.386 . S
C1439 C1438 1.367 . S
C1440 C1434 1.483 . S
C1440 C1441 1.382 . S
C1440 C1442 1.403 . S
C1441 H1420 0.950 . S
C1441 C1440 1.382 . S
C1441 C1457 1.411 . S
C1442 C1440 1.403 . S
C1442 C1443 1.489 . S
C1442 C1456 1.411 . S
C1443 C1442 1.489 . S
C1443 C1444 1.383 . S
C1443 C1448 1.382 . S
C1444 H1421 0.950 . S
C1444 C1443 1.383 . S
C1444 C1445 1.395 . S
C1445 H1422 0.950 . S
C1445 C1444 1.395 . S
C1445 C1446 1.288 . S
C1446 C1445 1.288 . S
C1446 C1447 1.392 . S
C1447 H1423 0.951 . S
C1447 C1446 1.392 . S
C1447 C1448 1.392 . S
C1448 H1424 0.949 . S
C1448 C1443 1.382 . S
C1448 C1447 1.392 . S
C1449 C1450 1.376 . S
C1449 C1454 1.386 . S
C1449 C1455 1.483 . S
C1450 H1425 0.949 . S
C1450 C1449 1.376 . S
C1450 C1451 1.397 . S
C1451 H1426 0.950 . S
C1451 C1450 1.397 . S
C1451 C1452 1.391 . S
C1452 C1451 1.391 . S
C1452 C1453 1.405 . S
C1453 H1427 0.950 . S
C1453 C1452 1.405 . S
C1453 C1454 1.367 . S
C1454 H1428 0.950 . S
C1454 C1449 1.386 . S
C1454 C1453 1.367 . S
C1455 C1449 1.483 . S
C1455 C1456 1.382 . S
C1455 C1457 1.403 . S
C1456 H1429 0.950 . S
C1456 C1442 1.411 . S
C1456 C1455 1.382 . S
C1457 C1441 1.411 . S
C1457 C1455 1.403 . S
C1457 C1458 1.489 . S
C1458 C1457 1.489 . S
C1458 C1459 1.383 . S
C1458 C1463 1.382 . S
C1459 H1430 0.950 . S
C1459 C1458 1.383 . S
C1459 C1460 1.395 . S
C1460 H1431 0.950 . S
C1460 C1459 1.395 . S
C1460 C1461 1.288 . S
C1461 C1460 1.288 . S
C1461 C1462 1.392 . S
C1462 H1432 0.951 . S
C1462 C1461 1.392 . S
C1462 C1463 1.392 . S
C1463 H1433 0.949 . S
C1463 C1458 1.382 . S
C1463 C1462 1.392 . S
H1464 C1483 0.949 . S
H1465 C1484 0.950 . S
H1466 C1486 0.950 . S
H1467 C1487 0.950 . S
H1468 C1489 0.950 . S
H1469 C1492 0.950 . S
H1470 C1493 0.950 . S
H1471 C1495 0.951 . S
H1472 C1496 0.949 . S
H1473 C1498 0.949 . S
H1474 C1499 0.950 . S
H1475 C1501 0.950 . S
H1476 C1502 0.950 . S
H1477 C1504 0.950 . S
H1478 C1507 0.950 . S
H1479 C1508 0.950 . S
H1480 C1510 0.951 . S
H1481 C1511 0.949 . S
C1482 C1483 1.376 . S
C1482 C1487 1.386 . S
C1482 C1488 1.483 . S
C1483 H1464 0.949 . S
C1483 C1482 1.376 . S
C1483 C1484 1.397 . S
C1484 H1465 0.950 . S
C1484 C1483 1.397 . S
C1484 C1485 1.391 . S
C1485 C1484 1.391 . S
C1485 C1486 1.405 . S
C1486 H1466 0.950 . S
C1486 C1485 1.405 . S
C1486 C1487 1.367 . S
C1487 H1467 0.950 . S
C1487 C1482 1.386 . S
C1487 C1486 1.367 . S
C1488 C1482 1.483 . S
C1488 C1489 1.382 . S
C1488 C1490 1.403 . S
C1489 H1468 0.950 . S
C1489 C1488 1.382 . S
C1489 C1505 1.411 . S
C1490 C1488 1.403 . S
C1490 C1491 1.489 . S
C1490 C1504 1.411 . S
C1491 C1490 1.489 . S
C1491 C1492 1.383 . S
C1491 C1496 1.382 . S
C1492 H1469 0.950 . S
C1492 C1491 1.383 . S
C1492 C1493 1.395 . S
C1493 H1470 0.950 . S
C1493 C1492 1.395 . S
C1493 C1494 1.288 . S
C1494 C1493 1.288 . S
C1494 C1495 1.392 . S
C1495 H1471 0.951 . S
C1495 C1494 1.392 . S
C1495 C1496 1.392 . S
C1496 H1472 0.949 . S
C1496 C1491 1.382 . S
C1496 C1495 1.392 . S
C1497 C1498 1.376 . S
C1497 C1502 1.386 . S
C1497 C1503 1.483 . S
C1498 H1473 0.949 . S
C1498 C1497 1.376 . S
C1498 C1499 1.397 . S
C1499 H1474 0.950 . S
C1499 C1498 1.397 . S
C1499 C1500 1.391 . S
C1500 C1499 1.391 . S
C1500 C1501 1.405 . S
C1501 H1475 0.950 . S
C1501 C1500 1.405 . S
C1501 C1502 1.367 . S
C1502 H1476 0.950 . S
C1502 C1497 1.386 . S
C1502 C1501 1.367 . S
C1503 C1497 1.483 . S
C1503 C1504 1.382 . S
C1503 C1505 1.403 . S
C1504 H1477 0.950 . S
C1504 C1490 1.411 . S
C1504 C1503 1.382 . S
C1505 C1489 1.411 . S
C1505 C1503 1.403 . S
C1505 C1506 1.489 . S
C1506 C1505 1.489 . S
C1506 C1507 1.383 . S
C1506 C1511 1.382 . S
C1507 H1478 0.950 . S
C1507 C1506 1.383 . S
C1507 C1508 1.395 . S
C1508 H1479 0.950 . S
C1508 C1507 1.395 . S
C1508 C1509 1.288 . S
C1509 C1508 1.288 . S
C1509 C1510 1.392 . S
C1510 H1480 0.951 . S
C1510 C1509 1.392 . S
C1510 C1511 1.392 . S
C1511 H1481 0.949 . S
C1511 C1506 1.382 . S
C1511 C1510 1.392 . S
C1512 C1513 1.369 . S
C1512 C1514 1.419 . S
C1512 H1516 0.930 . S
C1513 C1512 1.369 . S
C1513 C1522 1.429 1_655 S
C1514 C1512 1.419 . S
C1514 C1515 1.363 . S
C1514 H1517 0.929 . S
C1515 C1514 1.363 . S
C1515 C1521 1.428 1_655 S
H1516 C1512 0.930 . S
H1517 C1514 0.929 . S
S1518 N1519 1.613 . S
S1518 N1520 1.610 . S
N1519 S1518 1.613 . S
N1519 C1522 1.350 . S
N1520 S1518 1.610 . S
N1520 C1521 1.351 . S
C1521 C1515 1.428 1_455 S
C1521 N1520 1.351 . S
C1521 C1522 1.434 . S
C1522 C1513 1.429 1_455 S
C1522 N1519 1.350 . S
C1522 C1521 1.434 . S
C1523 C1524 1.369 . S
C1523 C1525 1.419 . S
C1523 H1527 0.930 . S
C1524 C1523 1.369 . S
C1524 C1533 1.429 . S
C1525 C1523 1.419 . S
C1525 C1526 1.363 . S
C1525 H1528 0.929 . S
C1526 C1525 1.363 . S
C1526 C1532 1.428 . S
H1527 C1523 0.930 . S
H1528 C1525 0.929 . S
S1529 N1530 1.613 . S
S1529 N1531 1.610 . S
N1530 S1529 1.613 . S
N1530 C1533 1.350 . S
N1531 S1529 1.610 . S
N1531 C1532 1.351 . S
C1532 C1526 1.428 . S
C1532 N1531 1.351 . S
C1532 C1533 1.434 . S
C1533 C1524 1.429 . S
C1533 N1530 1.350 . S
C1533 C1532 1.434 . S
C1534 C1535 1.369 . S
C1534 C1536 1.419 . S
C1534 H1538 0.930 . S
C1535 C1534 1.369 . S
C1535 C1544 1.429 1_545 S
C1536 C1534 1.419 . S
C1536 C1537 1.363 . S
C1536 H1539 0.929 . S
C1537 C1536 1.363 . S
C1537 C1543 1.428 1_545 S
H1538 C1534 0.930 . S
H1539 C1536 0.929 . S
S1540 N1541 1.613 . S
S1540 N1542 1.610 . S
N1541 S1540 1.613 . S
N1541 C1544 1.350 . S
N1542 S1540 1.610 . S
N1542 C1543 1.351 . S
C1543 C1537 1.428 1_565 S
C1543 N1542 1.351 . S
C1543 C1544 1.434 . S
C1544 C1535 1.429 1_565 S
C1544 N1541 1.350 . S
C1544 C1543 1.434 . S
C1545 C1546 1.369 1_545 S
C1545 C1547 1.419 . S
C1545 H1549 0.930 . S
C1546 C1545 1.369 1_565 S
C1546 C1555 1.429 . S
C1547 C1545 1.419 . S
C1547 C1548 1.363 1_545 S
C1547 H1550 0.929 . S
C1548 C1547 1.363 1_565 S
C1548 C1554 1.428 . S
H1549 C1545 0.930 . S
H1550 C1547 0.929 . S
S1551 N1552 1.613 . S
S1551 N1553 1.610 . S
N1552 S1551 1.613 . S
N1552 C1555 1.350 . S
N1553 S1551 1.610 . S
N1553 C1554 1.351 . S
C1554 C1548 1.428 . S
C1554 N1553 1.351 . S
C1554 C1555 1.434 . S
C1555 C1546 1.429 . S
C1555 N1552 1.350 . S
C1555 C1554 1.434 . S
C1556 C1557 1.369 . S
C1556 C1558 1.419 . S
C1556 H1560 0.930 . S
C1557 C1556 1.369 . S
C1557 C1566 1.429 1_455 S
C1558 C1556 1.419 . S
C1558 C1559 1.363 . S
C1558 H1561 0.929 . S
C1559 C1558 1.363 . S
C1559 C1565 1.428 1_455 S
H1560 C1556 0.930 . S
H1561 C1558 0.929 . S
S1562 N1563 1.613 . S
S1562 N1564 1.610 . S
N1563 S1562 1.613 . S
N1563 C1566 1.350 . S
N1564 S1562 1.610 . S
N1564 C1565 1.351 . S
C1565 C1559 1.428 1_655 S
C1565 N1564 1.351 . S
C1565 C1566 1.434 . S
C1566 C1557 1.429 1_655 S
C1566 N1563 1.350 . S
C1566 C1565 1.434 . S
C1567 C1568 1.369 . S
C1567 C1569 1.419 . S
C1567 H1571 0.930 . S
C1568 C1567 1.369 . S
C1568 C1577 1.429 . S
C1569 C1567 1.419 . S
C1569 C1570 1.363 . S
C1569 H1572 0.929 . S
C1570 C1569 1.363 . S
C1570 C1576 1.428 . S
H1571 C1567 0.930 . S
H1572 C1569 0.929 . S
S1573 N1574 1.613 . S
S1573 N1575 1.610 . S
N1574 S1573 1.613 . S
N1574 C1577 1.350 . S
N1575 S1573 1.610 . S
N1575 C1576 1.351 . S
C1576 C1570 1.428 . S
C1576 N1575 1.351 . S
C1576 C1577 1.434 . S
C1577 C1568 1.429 . S
C1577 N1574 1.350 . S
C1577 C1576 1.434 . S
C1578 C1579 1.369 1_655 S
C1578 C1580 1.419 . S
C1578 H1582 0.930 . S
C1579 C1578 1.369 1_455 S
C1579 C1588 1.429 . S
C1580 C1578 1.419 . S
C1580 C1581 1.363 1_655 S
C1580 H1583 0.929 . S
C1581 C1580 1.363 1_455 S
C1581 C1587 1.428 . S
H1582 C1578 0.930 . S
H1583 C1580 0.929 . S
S1584 N1585 1.613 . S
S1584 N1586 1.610 . S
N1585 S1584 1.613 . S
N1585 C1588 1.350 . S
N1586 S1584 1.610 . S
N1586 C1587 1.351 . S
C1587 C1581 1.428 . S
C1587 N1586 1.351 . S
C1587 C1588 1.434 . S
C1588 C1579 1.429 . S
C1588 N1585 1.350 . S
C1588 C1587 1.434 . S
C1589 C1590 1.369 . S
C1589 C1591 1.419 . S
C1589 H1593 0.930 . S
C1590 C1589 1.369 . S
C1590 C1599 1.429 . S
C1591 C1589 1.419 . S
C1591 C1592 1.363 . S
C1591 H1594 0.929 . S
C1592 C1591 1.363 . S
C1592 C1598 1.428 . S
H1593 C1589 0.930 . S
H1594 C1591 0.929 . S
S1595 N1596 1.613 . S
S1595 N1597 1.610 . S
N1596 S1595 1.613 . S
N1596 C1599 1.350 . S
N1597 S1595 1.610 . S
N1597 C1598 1.351 . S
C1598 C1592 1.428 . S
C1598 N1597 1.351 . S
C1598 C1599 1.434 . S
C1599 C1590 1.429 . S
C1599 N1596 1.350 . S
C1599 C1598 1.434 . S
C1600 C1601 1.369 1_545 S
C1600 C1602 1.419 . S
C1600 H1604 0.930 . S
C1601 C1600 1.369 1_565 S
C1601 C1610 1.429 . S
C1602 C1600 1.419 . S
C1602 C1603 1.363 1_545 S
C1602 H1605 0.929 . S
C1603 C1602 1.363 1_565 S
C1603 C1609 1.428 . S
H1604 C1600 0.930 . S
H1605 C1602 0.929 . S
S1606 N1607 1.613 . S
S1606 N1608 1.610 . S
N1607 S1606 1.613 . S
N1607 C1610 1.350 . S
N1608 S1606 1.610 . S
N1608 C1609 1.351 . S
C1609 C1603 1.428 . S
C1609 N1608 1.351 . S
C1609 C1610 1.434 . S
C1610 C1601 1.429 . S
C1610 N1607 1.350 . S
C1610 C1609 1.434 . S
C1611 C1612 1.369 1_565 S
C1611 C1613 1.419 . S
C1611 H1615 0.930 . S
C1612 C1611 1.369 1_545 S
C1612 C1621 1.429 . S
C1613 C1611 1.419 . S
C1613 C1614 1.363 1_565 S
C1613 H1616 0.929 . S
C1614 C1613 1.363 1_545 S
C1614 C1620 1.428 . S
H1615 C1611 0.930 . S
H1616 C1613 0.929 . S
S1617 N1618 1.613 . S
S1617 N1619 1.610 . S
N1618 S1617 1.613 . S
N1618 C1621 1.350 . S
N1619 S1617 1.610 . S
N1619 C1620 1.351 . S
C1620 C1614 1.428 . S
C1620 N1619 1.351 . S
C1620 C1621 1.434 . S
C1621 C1612 1.429 . S
C1621 N1618 1.350 . S
C1621 C1620 1.434 . S
C1622 C1623 1.369 1_455 S
C1622 C1624 1.419 . S
C1622 H1626 0.930 . S
C1623 C1622 1.369 1_655 S
C1623 C1632 1.429 . S
C1624 C1622 1.419 . S
C1624 C1625 1.363 1_455 S
C1624 H1627 0.929 . S
C1625 C1624 1.363 1_655 S
C1625 C1631 1.428 . S
H1626 C1622 0.930 . S
H1627 C1624 0.929 . S
S1628 N1629 1.613 . S
S1628 N1630 1.610 . S
N1629 S1628 1.613 . S
N1629 C1632 1.350 . S
N1630 S1628 1.610 . S
N1630 C1631 1.351 . S
C1631 C1625 1.428 . S
C1631 N1630 1.351 . S
C1631 C1632 1.434 . S
C1632 C1623 1.429 . S
C1632 N1629 1.350 . S
C1632 C1631 1.434 . S
C1633 C1634 1.369 . S
C1633 C1635 1.419 . S
C1633 H1637 0.930 . S
C1634 C1633 1.369 . S
C1634 C1643 1.429 . S
C1635 C1633 1.419 . S
C1635 C1636 1.363 . S
C1635 H1638 0.929 . S
C1636 C1635 1.363 . S
C1636 C1642 1.428 . S
H1637 C1633 0.930 . S
H1638 C1635 0.929 . S
S1639 N1640 1.613 . S
S1639 N1641 1.610 . S
N1640 S1639 1.613 . S
N1640 C1643 1.350 . S
N1641 S1639 1.610 . S
N1641 C1642 1.351 . S
C1642 C1636 1.428 . S
C1642 N1641 1.351 . S
C1642 C1643 1.434 . S
C1643 C1634 1.429 . S
C1643 N1640 1.350 . S
C1643 C1642 1.434 . S
C1644 C1645 1.369 . S
C1644 C1646 1.419 . S
C1644 H1648 0.930 . S
C1645 C1644 1.369 . S
C1645 C1654 1.429 . S
C1646 C1644 1.419 . S
C1646 C1647 1.363 . S
C1646 H1649 0.929 . S
C1647 C1646 1.363 . S
C1647 C1653 1.428 . S
H1648 C1644 0.930 . S
H1649 C1646 0.929 . S
S1650 N1651 1.613 . S
S1650 N1652 1.610 . S
N1651 S1650 1.613 . S
N1651 C1654 1.350 . S
N1652 S1650 1.610 . S
N1652 C1653 1.351 . S
C1653 C1647 1.428 . S
C1653 N1652 1.351 . S
C1653 C1654 1.434 . S
C1654 C1645 1.429 . S
C1654 N1651 1.350 . S
C1654 C1653 1.434 . S
C1655 C1656 1.369 . S
C1655 C1657 1.419 . S
C1655 H1659 0.930 . S
C1656 C1655 1.369 . S
C1656 C1665 1.429 . S
C1657 C1655 1.419 . S
C1657 C1658 1.363 . S
C1657 H1660 0.929 . S
C1658 C1657 1.363 . S
C1658 C1664 1.428 . S
H1659 C1655 0.930 . S
H1660 C1657 0.929 . S
S1661 N1662 1.613 . S
S1661 N1663 1.610 . S
N1662 S1661 1.613 . S
N1662 C1665 1.350 . S
N1663 S1661 1.610 . S
N1663 C1664 1.351 . S
C1664 C1658 1.428 . S
C1664 N1663 1.351 . S
C1664 C1665 1.434 . S
C1665 C1656 1.429 . S
C1665 N1662 1.350 . S
C1665 C1664 1.434 . S
C1666 C1667 1.369 . S
C1666 C1668 1.419 . S
C1666 H1670 0.930 . S
C1667 C1666 1.369 . S
C1667 C1676 1.429 . S
C1668 C1666 1.419 . S
C1668 C1669 1.363 . S
C1668 H1671 0.929 . S
C1669 C1668 1.363 . S
C1669 C1675 1.428 . S
H1670 C1666 0.930 . S
H1671 C1668 0.929 . S
S1672 N1673 1.613 . S
S1672 N1674 1.610 . S
N1673 S1672 1.613 . S
N1673 C1676 1.350 . S
N1674 S1672 1.610 . S
N1674 C1675 1.351 . S
C1675 C1669 1.428 . S
C1675 N1674 1.351 . S
C1675 C1676 1.434 . S
C1676 C1667 1.429 . S
C1676 N1673 1.350 . S
C1676 C1675 1.434 . S
C1677 C1678 1.369 . S
C1677 C1679 1.419 . S
C1677 H1681 0.930 . S
C1678 C1677 1.369 . S
C1678 C1687 1.429 . S
C1679 C1677 1.419 . S
C1679 C1680 1.363 . S
C1679 H1682 0.929 . S
C1680 C1679 1.363 . S
C1680 C1686 1.428 . S
H1681 C1677 0.930 . S
H1682 C1679 0.929 . S
S1683 N1684 1.613 . S
S1683 N1685 1.610 . S
N1684 S1683 1.613 . S
N1684 C1687 1.350 . S
N1685 S1683 1.610 . S
N1685 C1686 1.351 . S
C1686 C1680 1.428 . S
C1686 N1685 1.351 . S
C1686 C1687 1.434 . S
C1687 C1678 1.429 . S
C1687 N1684 1.350 . S
C1687 C1686 1.434 . S
C1688 C1689 1.369 . S
C1688 C1690 1.419 . S
C1688 H1692 0.930 . S
C1689 C1688 1.369 . S
C1689 C1698 1.429 . S
C1690 C1688 1.419 . S
C1690 C1691 1.363 . S
C1690 H1693 0.929 . S
C1691 C1690 1.363 . S
C1691 C1697 1.428 . S
H1692 C1688 0.930 . S
H1693 C1690 0.929 . S
S1694 N1695 1.613 . S
S1694 N1696 1.610 . S
N1695 S1694 1.613 . S
N1695 C1698 1.350 . S
N1696 S1694 1.610 . S
N1696 C1697 1.351 . S
C1697 C1691 1.428 . S
C1697 N1696 1.351 . S
C1697 C1698 1.434 . S
C1698 C1689 1.429 . S
C1698 N1695 1.350 . S
C1698 C1697 1.434 . S
C1699 C1700 1.369 . S
C1699 C1701 1.419 . S
C1699 H1703 0.930 . S
C1700 C1699 1.369 . S
C1700 C1709 1.429 . S
C1701 C1699 1.419 . S
C1701 C1702 1.363 . S
C1701 H1704 0.929 . S
C1702 C1701 1.363 . S
C1702 C1708 1.428 . S
H1703 C1699 0.930 . S
H1704 C1701 0.929 . S
S1705 N1706 1.613 . S
S1705 N1707 1.610 . S
N1706 S1705 1.613 . S
N1706 C1709 1.350 . S
N1707 S1705 1.610 . S
N1707 C1708 1.351 . S
C1708 C1702 1.428 . S
C1708 N1707 1.351 . S
C1708 C1709 1.434 . S
C1709 C1700 1.429 . S
C1709 N1706 1.350 . S
C1709 C1708 1.434 . S
C1710 C1711 1.369 . S
C1710 C1712 1.419 . S
C1710 H1714 0.930 . S
C1711 C1710 1.369 . S
C1711 C1720 1.429 . S
C1712 C1710 1.419 . S
C1712 C1713 1.363 . S
C1712 H1715 0.929 . S
C1713 C1712 1.363 . S
C1713 C1719 1.428 . S
H1714 C1710 0.930 . S
H1715 C1712 0.929 . S
S1716 N1717 1.613 . S
S1716 N1718 1.610 . S
N1717 S1716 1.613 . S
N1717 C1720 1.350 . S
N1718 S1716 1.610 . S
N1718 C1719 1.351 . S
C1719 C1713 1.428 . S
C1719 N1718 1.351 . S
C1719 C1720 1.434 . S
C1720 C1711 1.429 . S
C1720 N1717 1.350 . S
C1720 C1719 1.434 . S
C1721 C1722 1.369 . S
C1721 C1723 1.419 . S
C1721 H1725 0.930 . S
C1722 C1721 1.369 . S
C1722 C1731 1.429 . S
C1723 C1721 1.419 . S
C1723 C1724 1.363 . S
C1723 H1726 0.929 . S
C1724 C1723 1.363 . S
C1724 C1730 1.428 . S
H1725 C1721 0.930 . S
H1726 C1723 0.929 . S
S1727 N1728 1.613 . S
S1727 N1729 1.610 . S
N1728 S1727 1.613 . S
N1728 C1731 1.350 . S
N1729 S1727 1.610 . S
N1729 C1730 1.351 . S
C1730 C1724 1.428 . S
C1730 N1729 1.351 . S
C1730 C1731 1.434 . S
C1731 C1722 1.429 . S
C1731 N1728 1.350 . S
C1731 C1730 1.434 . S
C1732 C1733 1.369 . S
C1732 C1734 1.419 . S
C1732 H1736 0.930 . S
C1733 C1732 1.369 . S
C1733 C1742 1.429 . S
C1734 C1732 1.419 . S
C1734 C1735 1.363 . S
C1734 H1737 0.929 . S
C1735 C1734 1.363 . S
C1735 C1741 1.428 . S
H1736 C1732 0.930 . S
H1737 C1734 0.929 . S
S1738 N1739 1.613 . S
S1738 N1740 1.610 . S
N1739 S1738 1.613 . S
N1739 C1742 1.350 . S
N1740 S1738 1.610 . S
N1740 C1741 1.351 . S
C1741 C1735 1.428 . S
C1741 N1740 1.351 . S
C1741 C1742 1.434 . S
C1742 C1733 1.429 . S
C1742 N1739 1.350 . S
C1742 C1741 1.434 . S
C1743 C1744 1.369 . S
C1743 C1745 1.419 . S
C1743 H1747 0.930 . S
C1744 C1743 1.369 . S
C1744 C1753 1.429 . S
C1745 C1743 1.419 . S
C1745 C1746 1.363 . S
C1745 H1748 0.929 . S
C1746 C1745 1.363 . S
C1746 C1752 1.428 . S
H1747 C1743 0.930 . S
H1748 C1745 0.929 . S
S1749 N1750 1.613 . S
S1749 N1751 1.610 . S
N1750 S1749 1.613 . S
N1750 C1753 1.350 . S
N1751 S1749 1.610 . S
N1751 C1752 1.351 . S
C1752 C1746 1.428 . S
C1752 N1751 1.351 . S
C1752 C1753 1.434 . S
C1753 C1744 1.429 . S
C1753 N1750 1.350 . S
C1753 C1752 1.434 . S
C1754 C1755 1.369 . S
C1754 C1756 1.419 . S
C1754 H1758 0.930 . S
C1755 C1754 1.369 . S
C1755 C1764 1.429 . S
C1756 C1754 1.419 . S
C1756 C1757 1.363 . S
C1756 H1759 0.929 . S
C1757 C1756 1.363 . S
C1757 C1763 1.428 . S
H1758 C1754 0.930 . S
H1759 C1756 0.929 . S
S1760 N1761 1.613 . S
S1760 N1762 1.610 . S
N1761 S1760 1.613 . S
N1761 C1764 1.350 . S
N1762 S1760 1.610 . S
N1762 C1763 1.351 . S
C1763 C1757 1.428 . S
C1763 N1762 1.351 . S
C1763 C1764 1.434 . S
C1764 C1755 1.429 . S
C1764 N1761 1.350 . S
C1764 C1763 1.434 . S
C1765 C1766 1.369 . S
C1765 C1767 1.419 . S
C1765 H1769 0.930 . S
C1766 C1765 1.369 . S
C1766 C1775 1.429 . S
C1767 C1765 1.419 . S
C1767 C1768 1.363 . S
C1767 H1770 0.929 . S
C1768 C1767 1.363 . S
C1768 C1774 1.428 . S
H1769 C1765 0.930 . S
H1770 C1767 0.929 . S
S1771 N1772 1.613 . S
S1771 N1773 1.610 . S
N1772 S1771 1.613 . S
N1772 C1775 1.350 . S
N1773 S1771 1.610 . S
N1773 C1774 1.351 . S
C1774 C1768 1.428 . S
C1774 N1773 1.351 . S
C1774 C1775 1.434 . S
C1775 C1766 1.429 . S
C1775 N1772 1.350 . S
C1775 C1774 1.434 . S
C1776 C1777 1.369 . S
C1776 C1778 1.419 . S
C1776 H1780 0.930 . S
C1777 C1776 1.369 . S
C1777 C1786 1.429 . S
C1778 C1776 1.419 . S
C1778 C1779 1.363 . S
C1778 H1781 0.929 . S
C1779 C1778 1.363 . S
C1779 C1785 1.428 . S
H1780 C1776 0.930 . S
H1781 C1778 0.929 . S
S1782 N1783 1.613 . S
S1782 N1784 1.610 . S
N1783 S1782 1.613 . S
N1783 C1786 1.350 . S
N1784 S1782 1.610 . S
N1784 C1785 1.351 . S
C1785 C1779 1.428 . S
C1785 N1784 1.351 . S
C1785 C1786 1.434 . S
C1786 C1777 1.429 . S
C1786 N1783 1.350 . S
C1786 C1785 1.434 . S
C1787 C1788 1.369 . S
C1787 C1789 1.419 . S
C1787 H1791 0.930 . S
C1788 C1787 1.369 . S
C1788 C1797 1.429 . S
C1789 C1787 1.419 . S
C1789 C1790 1.363 . S
C1789 H1792 0.929 . S
C1790 C1789 1.363 . S
C1790 C1796 1.428 . S
H1791 C1787 0.930 . S
H1792 C1789 0.929 . S
S1793 N1794 1.613 . S
S1793 N1795 1.610 . S
N1794 S1793 1.613 . S
N1794 C1797 1.350 . S
N1795 S1793 1.610 . S
N1795 C1796 1.351 . S
C1796 C1790 1.428 . S
C1796 N1795 1.351 . S
C1796 C1797 1.434 . S
C1797 C1788 1.429 . S
C1797 N1794 1.350 . S
C1797 C1796 1.434 . S
C1798 C1799 1.369 . S
C1798 C1800 1.419 . S
C1798 H1802 0.930 . S
C1799 C1798 1.369 . S
C1799 C1808 1.429 . S
C1800 C1798 1.419 . S
C1800 C1801 1.363 . S
C1800 H1803 0.929 . S
C1801 C1800 1.363 . S
C1801 C1807 1.428 . S
H1802 C1798 0.930 . S
H1803 C1800 0.929 . S
S1804 N1805 1.613 . S
S1804 N1806 1.610 . S
N1805 S1804 1.613 . S
N1805 C1808 1.350 . S
N1806 S1804 1.610 . S
N1806 C1807 1.351 . S
C1807 C1801 1.428 . S
C1807 N1806 1.351 . S
C1807 C1808 1.434 . S
C1808 C1799 1.429 . S
C1808 N1805 1.350 . S
C1808 C1807 1.434 . S
C1809 C1810 1.369 . S
C1809 C1811 1.419 . S
C1809 H1813 0.930 . S
C1810 C1809 1.369 . S
C1810 C1819 1.429 . S
C1811 C1809 1.419 . S
C1811 C1812 1.363 . S
C1811 H1814 0.929 . S
C1812 C1811 1.363 . S
C1812 C1818 1.428 . S
H1813 C1809 0.930 . S
H1814 C1811 0.929 . S
S1815 N1816 1.613 . S
S1815 N1817 1.610 . S
N1816 S1815 1.613 . S
N1816 C1819 1.350 . S
N1817 S1815 1.610 . S
N1817 C1818 1.351 . S
C1818 C1812 1.428 . S
C1818 N1817 1.351 . S
C1818 C1819 1.434 . S
C1819 C1810 1.429 . S
C1819 N1816 1.350 . S
C1819 C1818 1.434 . S
C1820 C1821 1.369 . S
C1820 C1822 1.419 . S
C1820 H1824 0.930 . S
C1821 C1820 1.369 . S
C1821 C1830 1.429 . S
C1822 C1820 1.419 . S
C1822 C1823 1.363 . S
C1822 H1825 0.929 . S
C1823 C1822 1.363 . S
C1823 C1829 1.428 . S
H1824 C1820 0.930 . S
H1825 C1822 0.929 . S
S1826 N1827 1.613 . S
S1826 N1828 1.610 . S
N1827 S1826 1.613 . S
N1827 C1830 1.350 . S
N1828 S1826 1.610 . S
N1828 C1829 1.351 . S
C1829 C1823 1.428 . S
C1829 N1828 1.351 . S
C1829 C1830 1.434 . S
C1830 C1821 1.429 . S
C1830 N1827 1.350 . S
C1830 C1829 1.434 . S
C1831 C1832 1.369 . S
C1831 C1833 1.419 . S
C1831 H1835 0.930 . S
C1832 C1831 1.369 . S
C1832 C1841 1.429 . S
C1833 C1831 1.419 . S
C1833 C1834 1.363 . S
C1833 H1836 0.929 . S
C1834 C1833 1.363 . S
C1834 C1840 1.428 . S
H1835 C1831 0.930 . S
H1836 C1833 0.929 . S
S1837 N1838 1.613 . S
S1837 N1839 1.610 . S
N1838 S1837 1.613 . S
N1838 C1841 1.350 . S
N1839 S1837 1.610 . S
N1839 C1840 1.351 . S
C1840 C1834 1.428 . S
C1840 N1839 1.351 . S
C1840 C1841 1.434 . S
C1841 C1832 1.429 . S
C1841 N1838 1.350 . S
C1841 C1840 1.434 . S
C1842 C1843 1.369 . S
C1842 C1844 1.419 . S
C1842 H1846 0.930 . S
C1843 C1842 1.369 . S
C1843 C1852 1.429 . S
C1844 C1842 1.419 . S
C1844 C1845 1.363 . S
C1844 H1847 0.929 . S
C1845 C1844 1.363 . S
C1845 C1851 1.428 . S
H1846 C1842 0.930 . S
H1847 C1844 0.929 . S
S1848 N1849 1.613 . S
S1848 N1850 1.610 . S
N1849 S1848 1.613 . S
N1849 C1852 1.350 . S
N1850 S1848 1.610 . S
N1850 C1851 1.351 . S
C1851 C1845 1.428 . S
C1851 N1850 1.351 . S
C1851 C1852 1.434 . S
C1852 C1843 1.429 . S
C1852 N1849 1.350 . S
C1852 C1851 1.434 . S
C1853 C1854 1.369 . S
C1853 C1855 1.419 . S
C1853 H1857 0.930 . S
C1854 C1853 1.369 . S
C1854 C1863 1.429 . S
C1855 C1853 1.419 . S
C1855 C1856 1.363 . S
C1855 H1858 0.929 . S
C1856 C1855 1.363 . S
C1856 C1862 1.428 . S
H1857 C1853 0.930 . S
H1858 C1855 0.929 . S
S1859 N1860 1.613 . S
S1859 N1861 1.610 . S
N1860 S1859 1.613 . S
N1860 C1863 1.350 . S
N1861 S1859 1.610 . S
N1861 C1862 1.351 . S
C1862 C1856 1.428 . S
C1862 N1861 1.351 . S
C1862 C1863 1.434 . S
C1863 C1854 1.429 . S
C1863 N1860 1.350 . S
C1863 C1862 1.434 . S
C1864 C1865 1.369 . S
C1864 C1866 1.419 . S
C1864 H1868 0.930 . S
C1865 C1864 1.369 . S
C1865 C1874 1.429 . S
C1866 C1864 1.419 . S
C1866 C1867 1.363 . S
C1866 H1869 0.929 . S
C1867 C1866 1.363 . S
C1867 C1873 1.428 . S
H1868 C1864 0.930 . S
H1869 C1866 0.929 . S
S1870 N1871 1.613 . S
S1870 N1872 1.610 . S
N1871 S1870 1.613 . S
N1871 C1874 1.350 . S
N1872 S1870 1.610 . S
N1872 C1873 1.351 . S
C1873 C1867 1.428 . S
C1873 N1872 1.351 . S
C1873 C1874 1.434 . S
C1874 C1865 1.429 . S
C1874 N1871 1.350 . S
C1874 C1873 1.434 . S
C1875 C1876 1.369 . S
C1875 C1877 1.419 . S
C1875 H1879 0.930 . S
C1876 C1875 1.369 . S
C1876 C1885 1.429 . S
C1877 C1875 1.419 . S
C1877 C1878 1.363 . S
C1877 H1880 0.929 . S
C1878 C1877 1.363 . S
C1878 C1884 1.428 . S
H1879 C1875 0.930 . S
H1880 C1877 0.929 . S
S1881 N1882 1.613 . S
S1881 N1883 1.610 . S
N1882 S1881 1.613 . S
N1882 C1885 1.350 . S
N1883 S1881 1.610 . S
N1883 C1884 1.351 . S
C1884 C1878 1.428 . S
C1884 N1883 1.351 . S
C1884 C1885 1.434 . S
C1885 C1876 1.429 . S
C1885 N1882 1.350 . S
C1885 C1884 1.434 . S
C1886 C1887 1.369 . S
C1886 C1888 1.419 . S
C1886 H1890 0.930 . S
C1887 C1886 1.369 . S
C1887 C1896 1.429 . S
C1888 C1886 1.419 . S
C1888 C1889 1.363 . S
C1888 H1891 0.929 . S
C1889 C1888 1.363 . S
C1889 C1895 1.428 . S
H1890 C1886 0.930 . S
H1891 C1888 0.929 . S
S1892 N1893 1.613 . S
S1892 N1894 1.610 . S
N1893 S1892 1.613 . S
N1893 C1896 1.350 . S
N1894 S1892 1.610 . S
N1894 C1895 1.351 . S
C1895 C1889 1.428 . S
C1895 N1894 1.351 . S
C1895 C1896 1.434 . S
C1896 C1887 1.429 . S
C1896 N1893 1.350 . S
C1896 C1895 1.434 . S
C1897 C1898 1.369 . S
C1897 C1899 1.419 . S
C1897 H1901 0.930 . S
C1898 C1897 1.369 . S
C1898 C1907 1.429 . S
C1899 C1897 1.419 . S
C1899 C1900 1.363 . S
C1899 H1902 0.929 . S
C1900 C1899 1.363 . S
C1900 C1906 1.428 . S
H1901 C1897 0.930 . S
H1902 C1899 0.929 . S
S1903 N1904 1.613 . S
S1903 N1905 1.610 . S
N1904 S1903 1.613 . S
N1904 C1907 1.350 . S
N1905 S1903 1.610 . S
N1905 C1906 1.351 . S
C1906 C1900 1.428 . S
C1906 N1905 1.351 . S
C1906 C1907 1.434 . S
C1907 C1898 1.429 . S
C1907 N1904 1.350 . S
C1907 C1906 1.434 . S
C1908 C1909 1.369 . S
C1908 C1910 1.419 . S
C1908 H1912 0.930 . S
C1909 C1908 1.369 . S
C1909 C1918 1.429 . S
C1910 C1908 1.419 . S
C1910 C1911 1.363 . S
C1910 H1913 0.929 . S
C1911 C1910 1.363 . S
C1911 C1917 1.428 . S
H1912 C1908 0.930 . S
H1913 C1910 0.929 . S
S1914 N1915 1.613 . S
S1914 N1916 1.610 . S
N1915 S1914 1.613 . S
N1915 C1918 1.350 . S
N1916 S1914 1.610 . S
N1916 C1917 1.351 . S
C1917 C1911 1.428 . S
C1917 N1916 1.351 . S
C1917 C1918 1.434 . S
C1918 C1909 1.429 . S
C1918 N1915 1.350 . S
C1918 C1917 1.434 . S
C1919 C1920 1.369 . S
C1919 C1921 1.419 . S
C1919 H1923 0.930 . S
C1920 C1919 1.369 . S
C1920 C1929 1.429 . S
C1921 C1919 1.419 . S
C1921 C1922 1.363 . S
C1921 H1924 0.929 . S
C1922 C1921 1.363 . S
C1922 C1928 1.428 . S
H1923 C1919 0.930 . S
H1924 C1921 0.929 . S
S1925 N1926 1.613 . S
S1925 N1927 1.610 . S
N1926 S1925 1.613 . S
N1926 C1929 1.350 . S
N1927 S1925 1.610 . S
N1927 C1928 1.351 . S
C1928 C1922 1.428 . S
C1928 N1927 1.351 . S
C1928 C1929 1.434 . S
C1929 C1920 1.429 . S
C1929 N1926 1.350 . S
C1929 C1928 1.434 . S
C1930 C1931 1.369 . S
C1930 C1932 1.419 . S
C1930 H1934 0.930 . S
C1931 C1930 1.369 . S
C1931 C1940 1.429 . S
C1932 C1930 1.419 . S
C1932 C1933 1.363 . S
C1932 H1935 0.929 . S
C1933 C1932 1.363 . S
C1933 C1939 1.428 . S
H1934 C1930 0.930 . S
H1935 C1932 0.929 . S
S1936 N1937 1.613 . S
S1936 N1938 1.610 . S
N1937 S1936 1.613 . S
N1937 C1940 1.350 . S
N1938 S1936 1.610 . S
N1938 C1939 1.351 . S
C1939 C1933 1.428 . S
C1939 N1938 1.351 . S
C1939 C1940 1.434 . S
C1940 C1931 1.429 . S
C1940 N1937 1.350 . S
C1940 C1939 1.434 . S
C1941 C1942 1.369 . S
C1941 C1943 1.419 . S
C1941 H1945 0.930 . S
C1942 C1941 1.369 . S
C1942 C1951 1.429 . S
C1943 C1941 1.419 . S
C1943 C1944 1.363 . S
C1943 H1946 0.929 . S
C1944 C1943 1.363 . S
C1944 C1950 1.428 . S
H1945 C1941 0.930 . S
H1946 C1943 0.929 . S
S1947 N1948 1.613 . S
S1947 N1949 1.610 1_554 S
N1948 S1947 1.613 . S
N1948 C1951 1.350 1_554 S
N1949 S1947 1.610 1_556 S
N1949 C1950 1.351 . S
C1950 C1944 1.428 . S
C1950 N1949 1.351 . S
C1950 C1951 1.434 . S
C1951 C1942 1.429 . S
C1951 N1948 1.350 1_556 S
C1951 C1950 1.434 . S
C1952 C1953 1.369 . S
C1952 C1954 1.419 . S
C1952 H1956 0.930 . S
C1953 C1952 1.369 . S
C1953 C1962 1.429 . S
C1954 C1952 1.419 . S
C1954 C1955 1.363 . S
C1954 H1957 0.929 . S
C1955 C1954 1.363 . S
C1955 C1961 1.428 . S
H1956 C1952 0.930 . S
H1957 C1954 0.929 . S
S1958 N1959 1.613 . S
S1958 N1960 1.610 . S
N1959 S1958 1.613 . S
N1959 C1962 1.350 . S
N1960 S1958 1.610 . S
N1960 C1961 1.351 . S
C1961 C1955 1.428 . S
C1961 N1960 1.351 . S
C1961 C1962 1.434 . S
C1962 C1953 1.429 . S
C1962 N1959 1.350 . S
C1962 C1961 1.434 . S
C1963 C1964 1.369 . S
C1963 C1965 1.419 . S
C1963 H1967 0.930 . S
C1964 C1963 1.369 . S
C1964 C1973 1.429 . S
C1965 C1963 1.419 . S
C1965 C1966 1.363 . S
C1965 H1968 0.929 . S
C1966 C1965 1.363 . S
C1966 C1972 1.428 . S
H1967 C1963 0.930 . S
H1968 C1965 0.929 . S
S1969 N1970 1.613 . S
S1969 N1971 1.610 1_554 S
N1970 S1969 1.613 . S
N1970 C1973 1.350 1_554 S
N1971 S1969 1.610 1_556 S
N1971 C1972 1.351 . S
C1972 C1966 1.428 . S
C1972 N1971 1.351 . S
C1972 C1973 1.434 . S
C1973 C1964 1.429 . S
C1973 N1970 1.350 1_556 S
C1973 C1972 1.434 . S
C1974 C1975 1.369 . S
C1974 C1976 1.419 . S
C1974 H1978 0.930 . S
C1975 C1974 1.369 . S
C1975 C1984 1.429 . S
C1976 C1974 1.419 . S
C1976 C1977 1.363 . S
C1976 H1979 0.929 . S
C1977 C1976 1.363 . S
C1977 C1983 1.428 . S
H1978 C1974 0.930 . S
H1979 C1976 0.929 . S
S1980 N1981 1.613 . S
S1980 N1982 1.610 . S
N1981 S1980 1.613 . S
N1981 C1984 1.350 . S
N1982 S1980 1.610 . S
N1982 C1983 1.351 . S
C1983 C1977 1.428 . S
C1983 N1982 1.351 . S
C1983 C1984 1.434 . S
C1984 C1975 1.429 . S
C1984 N1981 1.350 . S
C1984 C1983 1.434 . S
C1985 C1986 1.369 . S
C1985 C1987 1.419 . S
C1985 H1989 0.930 1_556 S
C1986 C1985 1.369 . S
C1986 C1995 1.429 . S
C1987 C1985 1.419 . S
C1987 C1988 1.363 . S
C1987 H1990 0.929 . S
C1988 C1987 1.363 . S
C1988 C1994 1.428 . S
H1989 C1985 0.930 1_554 S
H1990 C1987 0.929 . S
S1991 N1992 1.613 . S
S1991 N1993 1.610 . S
N1992 S1991 1.613 . S
N1992 C1995 1.350 . S
N1993 S1991 1.610 . S
N1993 C1994 1.351 . S
C1994 C1988 1.428 . S
C1994 N1993 1.351 . S
C1994 C1995 1.434 . S
C1995 C1986 1.429 . S
C1995 N1992 1.350 . S
C1995 C1994 1.434 . S
C1996 C1997 1.369 . S
C1996 C1998 1.419 . S
C1996 H2000 0.930 . S
C1997 C1996 1.369 . S
C1997 C2006 1.429 . S
C1998 C1996 1.419 . S
C1998 C1999 1.363 . S
C1998 H2001 0.929 . S
C1999 C1998 1.363 . S
C1999 C2005 1.428 . S
H2000 C1996 0.930 . S
H2001 C1998 0.929 . S
S2002 N2003 1.613 . S
S2002 N2004 1.610 1_554 S
N2003 S2002 1.613 . S
N2003 C2006 1.350 1_554 S
N2004 S2002 1.610 1_556 S
N2004 C2005 1.351 . S
C2005 C1999 1.428 . S
C2005 N2004 1.351 . S
C2005 C2006 1.434 . S
C2006 C1997 1.429 . S
C2006 N2003 1.350 1_556 S
C2006 C2005 1.434 . S
C2007 C2008 1.369 . S
C2007 C2009 1.419 . S
C2007 H2011 0.930 . S
C2008 C2007 1.369 . S
C2008 C2017 1.429 . S
C2009 C2007 1.419 . S
C2009 C2010 1.363 . S
C2009 H2012 0.929 . S
C2010 C2009 1.363 . S
C2010 C2016 1.428 . S
H2011 C2007 0.930 . S
H2012 C2009 0.929 . S
S2013 N2014 1.613 . S
S2013 N2015 1.610 . S
N2014 S2013 1.613 . S
N2014 C2017 1.350 . S
N2015 S2013 1.610 . S
N2015 C2016 1.351 . S
C2016 C2010 1.428 . S
C2016 N2015 1.351 . S
C2016 C2017 1.434 . S
C2017 C2008 1.429 . S
C2017 N2014 1.350 . S
C2017 C2016 1.434 . S
C2018 C2019 1.369 . S
C2018 C2020 1.419 . S
C2018 H2022 0.930 . S
C2019 C2018 1.369 . S
C2019 C2028 1.429 . S
C2020 C2018 1.419 . S
C2020 C2021 1.363 . S
C2020 H2023 0.929 . S
C2021 C2020 1.363 . S
C2021 C2027 1.428 . S
H2022 C2018 0.930 . S
H2023 C2020 0.929 . S
S2024 N2025 1.613 . S
S2024 N2026 1.610 1_556 S
N2025 S2024 1.613 . S
N2025 C2028 1.350 1_556 S
N2026 S2024 1.610 1_554 S
N2026 C2027 1.351 . S
C2027 C2021 1.428 . S
C2027 N2026 1.351 . S
C2027 C2028 1.434 . S
C2028 C2019 1.429 . S
C2028 N2025 1.350 1_554 S
C2028 C2027 1.434 . S
C2029 C2030 1.369 . S
C2029 C2031 1.419 . S
C2029 H2033 0.930 . S
C2030 C2029 1.369 . S
C2030 C2039 1.429 . S
C2031 C2029 1.419 . S
C2031 C2032 1.363 . S
C2031 H2034 0.929 . S
C2032 C2031 1.363 . S
C2032 C2038 1.428 . S
H2033 C2029 0.930 . S
H2034 C2031 0.929 . S
S2035 N2036 1.613 . S
S2035 N2037 1.610 . S
N2036 S2035 1.613 . S
N2036 C2039 1.350 . S
N2037 S2035 1.610 . S
N2037 C2038 1.351 . S
C2038 C2032 1.428 . S
C2038 N2037 1.351 . S
C2038 C2039 1.434 . S
C2039 C2030 1.429 . S
C2039 N2036 1.350 . S
C2039 C2038 1.434 . S
C2040 C2041 1.369 . S
C2040 C2042 1.419 . S
C2040 H2044 0.930 . S
C2041 C2040 1.369 . S
C2041 C2050 1.429 . S
C2042 C2040 1.419 . S
C2042 C2043 1.363 . S
C2042 H2045 0.929 . S
C2043 C2042 1.363 . S
C2043 C2049 1.428 . S
H2044 C2040 0.930 . S
H2045 C2042 0.929 . S
S2046 N2047 1.613 . S
S2046 N2048 1.610 . S
N2047 S2046 1.613 . S
N2047 C2050 1.350 . S
N2048 S2046 1.610 . S
N2048 C2049 1.351 . S
C2049 C2043 1.428 . S
C2049 N2048 1.351 . S
C2049 C2050 1.434 . S
C2050 C2041 1.429 . S
C2050 N2047 1.350 . S
C2050 C2049 1.434 . S
C2051 C2052 1.369 . S
C2051 C2053 1.419 . S
C2051 H2055 0.930 . S
C2052 C2051 1.369 . S
C2052 C2061 1.429 . S
C2053 C2051 1.419 . S
C2053 C2054 1.363 . S
C2053 H2056 0.929 . S
C2054 C2053 1.363 . S
C2054 C2060 1.428 . S
H2055 C2051 0.930 . S
H2056 C2053 0.929 . S
S2057 N2058 1.613 . S
S2057 N2059 1.610 . S
N2058 S2057 1.613 . S
N2058 C2061 1.350 . S
N2059 S2057 1.610 . S
N2059 C2060 1.351 . S
C2060 C2054 1.428 . S
C2060 N2059 1.351 . S
C2060 C2061 1.434 . S
C2061 C2052 1.429 . S
C2061 N2058 1.350 . S
C2061 C2060 1.434 . S
C2062 C2063 1.369 . S
C2062 C2064 1.419 . S
C2062 H2066 0.930 . S
C2063 C2062 1.369 . S
C2063 C2072 1.429 . S
C2064 C2062 1.419 . S
C2064 C2065 1.363 . S
C2064 H2067 0.929 . S
C2065 C2064 1.363 . S
C2065 C2071 1.428 . S
H2066 C2062 0.930 . S
H2067 C2064 0.929 . S
S2068 N2069 1.613 . S
S2068 N2070 1.610 . S
N2069 S2068 1.613 . S
N2069 C2072 1.350 . S
N2070 S2068 1.610 . S
N2070 C2071 1.351 . S
C2071 C2065 1.428 . S
C2071 N2070 1.351 . S
C2071 C2072 1.434 . S
C2072 C2063 1.429 . S
C2072 N2069 1.350 . S
C2072 C2071 1.434 . S
C2073 C2074 1.369 1_655 S
C2073 C2075 1.419 . S
C2073 H2077 0.930 . S
C2074 C2073 1.369 1_455 S
C2074 C2083 1.429 . S
C2075 C2073 1.419 . S
C2075 C2076 1.363 1_655 S
C2075 H2078 0.929 . S
C2076 C2075 1.363 1_455 S
C2076 C2082 1.428 . S
H2077 C2073 0.930 . S
H2078 C2075 0.929 . S
S2079 N2080 1.613 . S
S2079 N2081 1.610 . S
N2080 S2079 1.613 . S
N2080 C2083 1.350 . S
N2081 S2079 1.610 . S
N2081 C2082 1.351 . S
C2082 C2076 1.428 . S
C2082 N2081 1.351 . S
C2082 C2083 1.434 . S
C2083 C2074 1.429 . S
C2083 N2080 1.350 . S
C2083 C2082 1.434 . S
C2084 C2085 1.369 . S
C2084 C2086 1.419 . S
C2084 H2088 0.930 . S
C2085 C2084 1.369 . S
C2085 C2094 1.429 . S
C2086 C2084 1.419 . S
C2086 C2087 1.363 . S
C2086 H2089 0.929 . S
C2087 C2086 1.363 . S
C2087 C2093 1.428 . S
H2088 C2084 0.930 . S
H2089 C2086 0.929 . S
S2090 N2091 1.613 . S
S2090 N2092 1.610 . S
N2091 S2090 1.613 . S
N2091 C2094 1.350 . S
N2092 S2090 1.610 . S
N2092 C2093 1.351 . S
C2093 C2087 1.428 . S
C2093 N2092 1.351 . S
C2093 C2094 1.434 . S
C2094 C2085 1.429 . S
C2094 N2091 1.350 . S
C2094 C2093 1.434 . S
C2095 C2096 1.369 . S
C2095 C2097 1.419 . S
C2095 H2099 0.930 . S
C2096 C2095 1.369 . S
C2096 C2105 1.429 1_565 S
C2097 C2095 1.419 . S
C2097 C2098 1.363 . S
C2097 H2100 0.929 . S
C2098 C2097 1.363 . S
C2098 C2104 1.428 1_565 S
H2099 C2095 0.930 . S
H2100 C2097 0.929 . S
S2101 N2102 1.613 . S
S2101 N2103 1.610 . S
N2102 S2101 1.613 . S
N2102 C2105 1.350 . S
N2103 S2101 1.610 . S
N2103 C2104 1.351 . S
C2104 C2098 1.428 1_545 S
C2104 N2103 1.351 . S
C2104 C2105 1.434 . S
C2105 C2096 1.429 1_545 S
C2105 N2102 1.350 . S
C2105 C2104 1.434 . S
C2106 C2107 1.369 1_545 S
C2106 C2108 1.419 . S
C2106 H2110 0.930 . S
C2107 C2106 1.369 1_565 S
C2107 C2116 1.429 . S
C2108 C2106 1.419 . S
C2108 C2109 1.363 1_545 S
C2108 H2111 0.929 . S
C2109 C2108 1.363 1_565 S
C2109 C2115 1.428 . S
H2110 C2106 0.930 . S
H2111 C2108 0.929 . S
S2112 N2113 1.613 . S
S2112 N2114 1.610 . S
N2113 S2112 1.613 . S
N2113 C2116 1.350 . S
N2114 S2112 1.610 . S
N2114 C2115 1.351 . S
C2115 C2109 1.428 . S
C2115 N2114 1.351 . S
C2115 C2116 1.434 . S
C2116 C2107 1.429 . S
C2116 N2113 1.350 . S
C2116 C2115 1.434 . S
C2117 C2118 1.369 . S
C2117 C2119 1.419 . S
C2117 H2121 0.930 . S
C2118 C2117 1.369 . S
C2118 C2127 1.429 . S
C2119 C2117 1.419 . S
C2119 C2120 1.363 . S
C2119 H2122 0.929 1_455 S
C2120 C2119 1.363 . S
C2120 C2126 1.428 . S
H2121 C2117 0.930 . S
H2122 C2119 0.929 1_655 S
S2123 N2124 1.613 . S
S2123 N2125 1.610 . S
N2124 S2123 1.613 . S
N2124 C2127 1.350 . S
N2125 S2123 1.610 . S
N2125 C2126 1.351 . S
C2126 C2120 1.428 . S
C2126 N2125 1.351 . S
C2126 C2127 1.434 . S
C2127 C2118 1.429 . S
C2127 N2124 1.350 . S
C2127 C2126 1.434 . S
C2128 C2129 1.369 . S
C2128 C2130 1.419 . S
C2128 H2132 0.930 . S
C2129 C2128 1.369 . S
C2129 C2138 1.429 . S
C2130 C2128 1.419 . S
C2130 C2131 1.363 . S
C2130 H2133 0.929 . S
C2131 C2130 1.363 . S
C2131 C2137 1.428 . S
H2132 C2128 0.930 . S
H2133 C2130 0.929 . S
S2134 N2135 1.613 . S
S2134 N2136 1.610 . S
N2135 S2134 1.613 . S
N2135 C2138 1.350 . S
N2136 S2134 1.610 . S
N2136 C2137 1.351 . S
C2137 C2131 1.428 . S
C2137 N2136 1.351 . S
C2137 C2138 1.434 . S
C2138 C2129 1.429 . S
C2138 N2135 1.350 . S
C2138 C2137 1.434 . S
C2139 C2140 1.369 . S
C2139 C2141 1.419 . S
C2139 H2143 0.930 . S
C2140 C2139 1.369 . S
C2140 C2149 1.429 . S
C2141 C2139 1.419 . S
C2141 C2142 1.363 . S
C2141 H2144 0.929 . S
C2142 C2141 1.363 . S
C2142 C2148 1.428 . S
H2143 C2139 0.930 . S
H2144 C2141 0.929 . S
S2145 N2146 1.613 . S
S2145 N2147 1.610 . S
N2146 S2145 1.613 . S
N2146 C2149 1.350 . S
N2147 S2145 1.610 . S
N2147 C2148 1.351 . S
C2148 C2142 1.428 . S
C2148 N2147 1.351 . S
C2148 C2149 1.434 . S
C2149 C2140 1.429 . S
C2149 N2146 1.350 . S
C2149 C2148 1.434 . S
C2150 C2151 1.369 . S
C2150 C2152 1.419 . S
C2150 H2154 0.930 . S
C2151 C2150 1.369 . S
C2151 C2160 1.429 . S
C2152 C2150 1.419 . S
C2152 C2153 1.363 . S
C2152 H2155 0.929 . S
C2153 C2152 1.363 . S
C2153 C2159 1.428 . S
H2154 C2150 0.930 . S
H2155 C2152 0.929 . S
S2156 N2157 1.613 . S
S2156 N2158 1.610 . S
N2157 S2156 1.613 . S
N2157 C2160 1.350 . S
N2158 S2156 1.610 . S
N2158 C2159 1.351 . S
C2159 C2153 1.428 . S
C2159 N2158 1.351 . S
C2159 C2160 1.434 . S
C2160 C2151 1.429 . S
C2160 N2157 1.350 . S
C2160 C2159 1.434 . S
C2161 C2162 1.369 . S
C2161 C2163 1.419 . S
C2161 H2165 0.930 . S
C2162 C2161 1.369 . S
C2162 C2171 1.429 . S
C2163 C2161 1.419 . S
C2163 C2164 1.363 . S
C2163 H2166 0.929 . S
C2164 C2163 1.363 . S
C2164 C2170 1.428 . S
H2165 C2161 0.930 . S
H2166 C2163 0.929 . S
S2167 N2168 1.613 . S
S2167 N2169 1.610 . S
N2168 S2167 1.613 . S
N2168 C2171 1.350 . S
N2169 S2167 1.610 . S
N2169 C2170 1.351 . S
C2170 C2164 1.428 . S
C2170 N2169 1.351 . S
C2170 C2171 1.434 . S
C2171 C2162 1.429 . S
C2171 N2168 1.350 . S
C2171 C2170 1.434 . S
C2172 C2173 1.369 1_565 S
C2172 C2174 1.419 . S
C2172 H2176 0.930 . S
C2173 C2172 1.369 1_545 S
C2173 C2182 1.429 . S
C2174 C2172 1.419 . S
C2174 C2175 1.363 1_565 S
C2174 H2177 0.929 . S
C2175 C2174 1.363 1_545 S
C2175 C2181 1.428 . S
H2176 C2172 0.930 . S
H2177 C2174 0.929 . S
S2178 N2179 1.613 . S
S2178 N2180 1.610 . S
N2179 S2178 1.613 . S
N2179 C2182 1.350 . S
N2180 S2178 1.610 . S
N2180 C2181 1.351 . S
C2181 C2175 1.428 . S
C2181 N2180 1.351 . S
C2181 C2182 1.434 . S
C2182 C2173 1.429 . S
C2182 N2179 1.350 . S
C2182 C2181 1.434 . S
C2183 C2184 1.369 1_455 S
C2183 C2185 1.419 . S
C2183 H2187 0.930 . S
C2184 C2183 1.369 1_655 S
C2184 C2193 1.429 . S
C2185 C2183 1.419 . S
C2185 C2186 1.363 1_455 S
C2185 H2188 0.929 . S
C2186 C2185 1.363 1_655 S
C2186 C2192 1.428 . S
H2187 C2183 0.930 . S
H2188 C2185 0.929 . S
S2189 N2190 1.613 . S
S2189 N2191 1.610 . S
N2190 S2189 1.613 . S
N2190 C2193 1.350 . S
N2191 S2189 1.610 . S
N2191 C2192 1.351 . S
C2192 C2186 1.428 . S
C2192 N2191 1.351 . S
C2192 C2193 1.434 . S
C2193 C2184 1.429 . S
C2193 N2190 1.350 . S
C2193 C2192 1.434 . S
C2194 C2195 1.369 . S
C2194 C2196 1.419 . S
C2194 H2198 0.930 . S
C2195 C2194 1.369 . S
C2195 C2204 1.429 . S
C2196 C2194 1.419 . S
C2196 C2197 1.363 . S
C2196 H2199 0.929 . S
C2197 C2196 1.363 . S
C2197 C2203 1.428 . S
H2198 C2194 0.930 . S
H2199 C2196 0.929 . S
S2200 N2201 1.613 . S
S2200 N2202 1.610 . S
N2201 S2200 1.613 . S
N2201 C2204 1.350 . S
N2202 S2200 1.610 . S
N2202 C2203 1.351 . S
C2203 C2197 1.428 . S
C2203 N2202 1.351 . S
C2203 C2204 1.434 . S
C2204 C2195 1.429 . S
C2204 N2201 1.350 . S
C2204 C2203 1.434 . S
C2205 C2206 1.369 . S
C2205 C2207 1.419 . S
C2205 H2209 0.930 . S
C2206 C2205 1.369 . S
C2206 C2215 1.429 . S
C2207 C2205 1.419 . S
C2207 C2208 1.363 . S
C2207 H2210 0.929 . S
C2208 C2207 1.363 . S
C2208 C2214 1.428 . S
H2209 C2205 0.930 . S
H2210 C2207 0.929 . S
S2211 N2212 1.613 . S
S2211 N2213 1.610 . S
N2212 S2211 1.613 . S
N2212 C2215 1.350 . S
N2213 S2211 1.610 . S
N2213 C2214 1.351 . S
C2214 C2208 1.428 . S
C2214 N2213 1.351 . S
C2214 C2215 1.434 . S
C2215 C2206 1.429 . S
C2215 N2212 1.350 . S
C2215 C2214 1.434 . S
C2216 C2217 1.369 . S
C2216 C2218 1.419 . S
C2216 H2220 0.930 . S
C2217 C2216 1.369 . S
C2217 C2226 1.429 . S
C2218 C2216 1.419 . S
C2218 C2219 1.363 . S
C2218 H2221 0.929 . S
C2219 C2218 1.363 . S
C2219 C2225 1.428 . S
H2220 C2216 0.930 . S
H2221 C2218 0.929 . S
S2222 N2223 1.613 . S
S2222 N2224 1.610 . S
N2223 S2222 1.613 . S
N2223 C2226 1.350 . S
N2224 S2222 1.610 . S
N2224 C2225 1.351 . S
C2225 C2219 1.428 . S
C2225 N2224 1.351 . S
C2225 C2226 1.434 . S
C2226 C2217 1.429 . S
C2226 N2223 1.350 . S
C2226 C2225 1.434 . S
C2227 C2228 1.369 . S
C2227 C2229 1.419 . S
C2227 H2231 0.930 . S
C2228 C2227 1.369 . S
C2228 C2237 1.429 . S
C2229 C2227 1.419 . S
C2229 C2230 1.363 . S
C2229 H2232 0.929 . S
C2230 C2229 1.363 . S
C2230 C2236 1.428 . S
H2231 C2227 0.930 . S
H2232 C2229 0.929 . S
S2233 N2234 1.613 . S
S2233 N2235 1.610 . S
N2234 S2233 1.613 . S
N2234 C2237 1.350 . S
N2235 S2233 1.610 . S
N2235 C2236 1.351 . S
C2236 C2230 1.428 . S
C2236 N2235 1.351 . S
C2236 C2237 1.434 . S
C2237 C2228 1.429 . S
C2237 N2234 1.350 . S
C2237 C2236 1.434 . S
C2238 C2239 1.369 . S
C2238 C2240 1.419 . S
C2238 H2242 0.930 . S
C2239 C2238 1.369 . S
C2239 C2248 1.429 . S
C2240 C2238 1.419 . S
C2240 C2241 1.363 . S
C2240 H2243 0.929 . S
C2241 C2240 1.363 . S
C2241 C2247 1.428 . S
H2242 C2238 0.930 . S
H2243 C2240 0.929 . S
S2244 N2245 1.613 . S
S2244 N2246 1.610 . S
N2245 S2244 1.613 . S
N2245 C2248 1.350 . S
N2246 S2244 1.610 . S
N2246 C2247 1.351 . S
C2247 C2241 1.428 . S
C2247 N2246 1.351 . S
C2247 C2248 1.434 . S
C2248 C2239 1.429 . S
C2248 N2245 1.350 . S
C2248 C2247 1.434 . S
C2249 C2250 1.369 . S
C2249 C2251 1.419 . S
C2249 H2253 0.930 . S
C2250 C2249 1.369 . S
C2250 C2259 1.429 . S
C2251 C2249 1.419 . S
C2251 C2252 1.363 . S
C2251 H2254 0.929 . S
C2252 C2251 1.363 . S
C2252 C2258 1.428 . S
H2253 C2249 0.930 . S
H2254 C2251 0.929 . S
S2255 N2256 1.613 . S
S2255 N2257 1.610 . S
N2256 S2255 1.613 . S
N2256 C2259 1.350 . S
N2257 S2255 1.610 . S
N2257 C2258 1.351 . S
C2258 C2252 1.428 . S
C2258 N2257 1.351 . S
C2258 C2259 1.434 . S
C2259 C2250 1.429 . S
C2259 N2256 1.350 . S
C2259 C2258 1.434 . S
C2260 C2261 1.369 . S
C2260 C2262 1.419 . S
C2260 H2264 0.930 . S
C2261 C2260 1.369 . S
C2261 C2270 1.429 . S
C2262 C2260 1.419 . S
C2262 C2263 1.363 . S
C2262 H2265 0.929 . S
C2263 C2262 1.363 . S
C2263 C2269 1.428 . S
H2264 C2260 0.930 . S
H2265 C2262 0.929 . S
S2266 N2267 1.613 . S
S2266 N2268 1.610 . S
N2267 S2266 1.613 . S
N2267 C2270 1.350 . S
N2268 S2266 1.610 . S
N2268 C2269 1.351 . S
C2269 C2263 1.428 . S
C2269 N2268 1.351 . S
C2269 C2270 1.434 . S
C2270 C2261 1.429 . S
C2270 N2267 1.350 . S
C2270 C2269 1.434 . S
C2271 C2272 1.369 1_455 S
C2271 C2273 1.419 . S
C2271 H2275 0.930 . S
C2272 C2271 1.369 1_655 S
C2272 C2281 1.429 . S
C2273 C2271 1.419 . S
C2273 C2274 1.363 1_455 S
C2273 H2276 0.929 . S
C2274 C2273 1.363 1_655 S
C2274 C2280 1.428 . S
H2275 C2271 0.930 . S
H2276 C2273 0.929 . S
S2277 N2278 1.613 . S
S2277 N2279 1.610 . S
N2278 S2277 1.613 . S
N2278 C2281 1.350 . S
N2279 S2277 1.610 . S
N2279 C2280 1.351 . S
C2280 C2274 1.428 . S
C2280 N2279 1.351 . S
C2280 C2281 1.434 . S
C2281 C2272 1.429 . S
C2281 N2278 1.350 . S
C2281 C2280 1.434 . S
C2282 C2283 1.369 . S
C2282 C2284 1.419 . S
C2282 H2286 0.930 . S
C2283 C2282 1.369 . S
C2283 C2292 1.429 . S
C2284 C2282 1.419 . S
C2284 C2285 1.363 . S
C2284 H2287 0.929 . S
C2285 C2284 1.363 . S
C2285 C2291 1.428 . S
H2286 C2282 0.930 . S
H2287 C2284 0.929 . S
S2288 N2289 1.613 . S
S2288 N2290 1.610 . S
N2289 S2288 1.613 . S
N2289 C2292 1.350 . S
N2290 S2288 1.610 . S
N2290 C2291 1.351 . S
C2291 C2285 1.428 . S
C2291 N2290 1.351 . S
C2291 C2292 1.434 . S
C2292 C2283 1.429 . S
C2292 N2289 1.350 . S
C2292 C2291 1.434 . S
C2293 C2294 1.369 . S
C2293 C2295 1.419 . S
C2293 H2297 0.930 . S
C2294 C2293 1.369 . S
C2294 C2303 1.429 . S
C2295 C2293 1.419 . S
C2295 C2296 1.363 . S
C2295 H2298 0.929 . S
C2296 C2295 1.363 . S
C2296 C2302 1.425 . S
H2297 C2293 0.930 . S
H2298 C2295 0.929 . S
S2299 N2300 1.613 . S
S2299 N2301 1.610 . S
N2300 S2299 1.613 . S
N2300 C2303 1.350 1_565 S
N2301 S2299 1.610 . S
N2301 C2302 1.353 1_565 S
C2302 C2296 1.425 . S
C2302 N2301 1.353 1_545 S
C2302 C2303 1.436 . S
C2303 C2294 1.429 . S
C2303 N2300 1.350 1_545 S
C2303 C2302 1.436 . S
C1513 C4 1.489 . S
C1515 C1125 1.474 . S
C1524 C38 1.723 . S
C1526 C1173 1.716 . S
C1537 C1221 1.496 . S
C1535 C74 1.476 . S
C1546 C76 1.446 . S
C1548 C1245 1.473 . S
C1557 C2 1.550 . S
C1559 C1317 1.588 . S
C1568 C40 1.571 . S
C1570 C1365 1.560 . S
C1579 C110 1.530 . S
C1581 C1293 1.561 . S
C1592 C1341 1.563 . S
C1590 C148 1.585 . S
C1603 C1269 1.548 . S
C1601 C182 1.531 . S
C1612 C184 1.494 . S
C1614 C1197 1.521 . S
C1625 C1101 1.471 . S
C1623 C112 1.457 . S
C1634 C146 1.670 . S
C1636 C1149 1.661 . S
C1645 C220 1.657 . S
C1647 C1413 1.640 . S
C1656 C254 1.797 . S
C1658 C1461 1.777 . S
C1669 C1485 1.641 . S
C1667 C290 1.686 . S
C1678 C292 1.580 . S
C1680 C669 1.552 . S
C1689 C218 1.710 . S
C1691 C741 1.704 . S
C1700 C256 1.606 . S
C1702 C789 1.584 . S
C1711 C326 1.706 . S
C1713 C717 1.689 . S
C1722 C364 1.642 . S
C1724 C765 1.612 . S
C1735 C693 1.648 . S
C1733 C398 1.713 . S
C1746 C1509 1.623 . S
C1744 C400 1.673 . S
C1757 C1389 1.550 . S
C1755 C328 1.569 . S
C1768 C1437 1.722 . S
C1766 C362 1.743 . S
C1777 C436 1.598 . S
C1779 C837 1.579 . S
C1788 C470 1.773 . S
C1790 C885 1.756 . S
C1799 C506 1.680 . S
C1801 C909 1.639 . S
C1810 C508 1.638 . S
C1812 C957 1.609 . S
C1823 C1029 1.699 . S
C1821 C434 1.709 . S
C1834 C1077 1.610 . S
C1832 C472 1.631 . S
C1845 C1005 1.753 . S
C1843 C542 1.771 . S
C1856 C1053 1.631 . S
C1854 C580 1.661 . S
C1865 C614 1.707 . S
C1867 C981 1.631 . S
C1878 C933 1.559 . S
C1876 C616 1.609 . S
C1887 C544 1.574 . S
C1889 C813 1.559 . S
C1900 C861 1.689 . S
C1898 C578 1.709 . S
C1911 C678 1.656 . S
C1909 C14 1.654 . S
C1920 C39 1.577 . S
C1922 C732 1.539 . S
C1933 C780 1.540 . S
C1931 C75 1.592 . S
C1944 C828 1.488 . S
C1942 C86 1.512 . S
C1955 C876 1.582 . S
C1953 C3 1.617 . S
C1966 C918 1.585 . S
C1964 C50 1.584 . S
C1975 C111 1.606 . S
C1977 C924 1.584 . S
C1986 C158 1.546 . S
C1988 C822 1.485 . S
C1997 C183 1.692 . S
C1999 C870 1.627 . S
C2008 C194 1.629 . S
C2010 C726 1.589 . S
C2021 C774 1.515 . S
C2019 C122 1.579 . S
C2030 C147 1.505 . S
C2032 C684 1.490 . S
C2043 C966 1.619 . S
C2041 C230 1.619 . S
C2052 C255 1.656 . S
C2054 C1020 1.617 . S
C2063 C291 1.609 . S
C2065 C1068 1.567 . S
C2076 C1116 1.373 . S
C2074 C302 1.318 . S
C2085 C219 1.590 . S
C2087 C1164 1.552 . S
C2096 C266 1.393 . S
C2098 C1212 1.453 . S
C2107 C327 1.391 . S
C2109 C1206 1.380 . S
C2118 C374 1.370 . S
C2120 C1110 1.411 . S
C2131 C1158 1.591 . S
C2129 C399 1.654 . S
C2140 C410 1.603 . S
C2142 C1014 1.562 . S
C2151 C338 1.605 . S
C2153 C1062 1.563 . S
C2164 C972 1.567 . S
C2162 C363 1.588 . S
C2175 C1254 1.456 . S
C2173 C446 1.396 . S
C2184 C471 1.437 . S
C2186 C1308 1.435 . S
C2195 C507 1.554 . S
C2197 C1356 1.510 . S
C2208 C1404 1.468 . S
C2206 C518 1.501 . S
C2219 C1452 1.613 . S
C2217 C435 1.653 . S
C2228 C482 1.636 . S
C2230 C1494 1.653 . S
C2239 C543 1.560 . S
C2241 C1500 1.540 . S
C2250 C590 1.611 . S
C2252 C1398 1.570 . S
C2263 C1446 1.639 . S
C2261 C615 1.706 . S
C2274 C1302 1.450 . S
C2272 C626 1.383 . S
C2285 C1350 1.519 . S
C2283 C554 1.563 . S
C2294 C579 1.393 . S
C2296 C1260 1.389 . S
