# Generated by pormake.
# Topology anh, (6,3)-cn, num edge types: 1
# Building blocks:
#     Node 0, Type 0, BuildingBlock: VOLQOD_clean_sbu_1, # of connection points: 6
#     Node 1, Type 0, BuildingBlock: VOLQOD_clean_sbu_1, # of connection points: 6
#     Node 2, Type 0, BuildingBlock: VOLQOD_clean_sbu_1, # of connection points: 6
#     Node 3, Type 1, BuildingBlock: BETDAH_clean_linker_0, # of connection points: 3
#     Node 4, Type 1, BuildingBlock: BETDAH_clean_linker_0, # of connection points: 3
#     Node 5, Type 1, BuildingBlock: BETDAH_clean_linker_0, # of connection points: 3
#     Node 6, Type 1, BuildingBlock: BETDAH_clean_linker_0, # of connection points: 3
#     Node 7, Type 1, BuildingBlock: BETDAH_clean_linker_0, # of connection points: 3
#     Node 8, Type 1, BuildingBlock: BETDAH_clean_linker_0, # of connection points: 3
#     Edge 9, Type (0, 1), BuildingBlock: ZUJKAS_clean_linker_0, # of connection points: 2
#     Edge 10, Type (0, 1), BuildingBlock: ZUJKAS_clean_linker_0, # of connection points: 2
#     Edge 11, Type (0, 1), BuildingBlock: ZUJKAS_clean_linker_0, # of connection points: 2
#     Edge 12, Type (0, 1), BuildingBlock: ZUJKAS_clean_linker_0, # of connection points: 2
#     Edge 13, Type (0, 1), BuildingBlock: ZUJKAS_clean_linker_0, # of connection points: 2
#     Edge 14, Type (0, 1), BuildingBlock: ZUJKAS_clean_linker_0, # of connection points: 2
#     Edge 15, Type (0, 1), BuildingBlock: ZUJKAS_clean_linker_0, # of connection points: 2
#     Edge 16, Type (0, 1), BuildingBlock: ZUJKAS_clean_linker_0, # of connection points: 2
#     Edge 17, Type (0, 1), BuildingBlock: ZUJKAS_clean_linker_0, # of connection points: 2
#     Edge 18, Type (0, 1), BuildingBlock: ZUJKAS_clean_linker_0, # of connection points: 2
#     Edge 19, Type (0, 1), BuildingBlock: ZUJKAS_clean_linker_0, # of connection points: 2
#     Edge 20, Type (0, 1), BuildingBlock: ZUJKAS_clean_linker_0, # of connection points: 2
#     Edge 21, Type (0, 1), BuildingBlock: ZUJKAS_clean_linker_0, # of connection points: 2
#     Edge 22, Type (0, 1), BuildingBlock: ZUJKAS_clean_linker_0, # of connection points: 2
#     Edge 23, Type (0, 1), BuildingBlock: ZUJKAS_clean_linker_0, # of connection points: 2
#     Edge 24, Type (0, 1), BuildingBlock: ZUJKAS_clean_linker_0, # of connection points: 2
#     Edge 25, Type (0, 1), BuildingBlock: ZUJKAS_clean_linker_0, # of connection points: 2
#     Edge 26, Type (0, 1), BuildingBlock: ZUJKAS_clean_linker_0, # of connection points: 2
# Relax obj value: 0.156
# Max RMSD: 0.216
# Mean RMSD: 0.138
data_MOF--net-anh--node1-VOLQOD_clean_sbu_1--node2-BETDAH_clean_linker_0--edge1-ZUJKAS_clean_linker_0
_symmetry_space_group_name_H-M    P1
_symmetry_Int_Tables_number       1
_symmetry_cell_setting            triclinic
loop_
_symmetry_equiv_pos_as_xyz
'x, y, z'
_cell_length_a     37.684051
_cell_length_b     37.617872
_cell_length_c     73.164325
_cell_angle_alpha  92.616519
_cell_angle_beta   92.449305
_cell_angle_gamma 120.00547
loop_
_atom_site_label
_atom_site_type_symbol
_atom_site_fract_x
_atom_site_fract_y
_atom_site_fract_z
_atom_type_partial_charge
O0 O 0.02561 0.59961 0.20875 0.0
Zn1 Zn 0.02793 0.61171 0.18203 0.0
O2 O 0.03722 0.57298 0.16704 0.0
Zn3 Zn 0.98986 0.53924 0.14988 0.0
Zn4 Zn 0.04618 0.53782 0.18306 0.0
Zn5 Zn 0.08468 0.60233 0.15289 0.0
O6 O 0.00562 0.5387 0.124 0.0
O7 O 0.06985 0.5907 0.12558 0.0
O8 O 0.97488 0.60908 0.1735 0.0
O9 O 0.95242 0.56241 0.14964 0.0
O10 O 0.95765 0.48104 0.15732 0.0
O11 O -0.0013 0.4801 0.17971 0.0
O12 O 0.09776 0.5368 0.1781 0.0
O13 O 0.07449 0.66987 0.18034 0.0
O14 O 0.12525 0.58358 0.1578 0.0
O15 O 0.11281 0.66295 0.15977 0.0
C16 C 0.03613 0.57764 0.21771 0.0
C17 C 0.0379 0.56262 0.11626 0.0
C18 C 0.96548 0.4621 0.16941 0.0
C19 C 0.94922 0.58878 0.15987 0.0
C20 C 0.12634 0.55716 0.16772 0.0
C21 C 0.10573 0.68537 0.17087 0.0
O22 O 0.04767 0.55489 0.20961 0.0
O23 O 0.5106 0.07185 0.45796 0.0
Zn24 Zn 0.49876 0.06995 0.48473 0.0
O25 O 0.53788 0.06154 0.49979 0.0
Zn26 Zn 0.57147 0.10998 0.51666 0.0
Zn27 Zn 0.57308 0.05205 0.48383 0.0
Zn28 Zn 0.50851 0.01408 0.51405 0.0
O29 O 0.5703 0.09508 0.54287 0.0
O30 O 0.52161 0.02926 0.54123 0.0
O31 O 0.50071 0.12288 0.49303 0.0
O32 O 0.55048 0.14954 0.51549 0.0
O33 O 0.63012 0.13999 0.50989 0.0
O34 O 0.63158 0.09791 0.48806 0.0
O35 O 0.57087 0.99827 0.48766 0.0
O36 O 0.441 0.0233 0.48655 0.0
O37 O 0.52476 0.97165 0.50828 0.0
O38 O 0.4477 0.9869 0.5081 0.0
C39 C 0.53389 0.06295 0.4491 0.0
C40 C 0.54796 0.06215 0.55059 0.0
C41 C 0.64955 0.13117 0.49841 0.0
C42 C 0.52285 0.15117 0.50553 0.0
C43 C 0.54979 0.96941 0.4978 0.0
C44 C 0.42537 0.99319 0.49666 0.0
O45 O 0.55762 0.05284 0.45731 0.0
O46 O 0.53288 0.52887 0.79276 0.0
Zn47 Zn 0.51882 0.51458 0.8187 0.0
O48 O 0.56227 0.55511 0.83646 0.0
Zn49 Zn 0.54235 0.58635 0.85029 0.0
Zn50 Zn 0.60992 0.59203 0.82351 0.0
Zn51 Zn 0.57819 0.52687 0.85362 0.0
O52 O 0.54561 0.58063 0.87764 0.0
O53 O 0.56344 0.53281 0.8791 0.0
O54 O 0.46461 0.51119 0.82271 0.0
O55 O 0.48245 0.56385 0.84321 0.0
O56 O 0.57349 0.64627 0.84517 0.0
O57 O 0.62206 0.65036 0.82773 0.0
O58 O 0.66046 0.58899 0.83136 0.0
O59 O 0.5125 0.45846 0.82062 0.0
O60 O 0.63883 0.54906 0.85458 0.0
O61 O 0.55252 0.46691 0.84549 0.0
C62 C 0.56615 0.55403 0.78598 0.0
C63 C 0.55247 0.55641 0.88682 0.0
C64 C 0.60464 0.66719 0.83612 0.0
C65 C 0.45534 0.53363 0.83266 0.0
C66 C 0.66719 0.57168 0.84456 0.0
C67 C 0.52776 0.44419 0.83201 0.0
O68 O 0.59824 0.57863 0.79623 0.0
H69 H 0.46732 0.03157 0.25427 0.0
H70 H 0.59608 0.07801 0.24847 0.0
H71 H 0.50867 0.01509 0.20233 0.0
C72 C 0.49209 0.03731 0.24568 0.0
C73 C 0.4828 0.02175 0.22722 0.0
C74 C 0.53279 0.05761 0.25354 0.0
C75 C 0.56463 0.06291 0.24257 0.0
C76 C 0.55555 0.04715 0.22412 0.0
C77 C 0.51494 0.02676 0.21662 0.0
N78 N 0.58623 0.04921 0.213 0.0
C79 C 0.62511 0.08359 0.21327 0.0
H80 H 0.54967 0.50315 0.58378 0.0
H81 H 0.64027 0.63204 0.59269 0.0
H82 H 0.60958 0.57266 0.5383 0.0
C83 C 0.57096 0.53213 0.57846 0.0
C84 C 0.57686 0.53346 0.55961 0.0
C85 C 0.59352 0.56747 0.59061 0.0
C86 C 0.62177 0.6046 0.58357 0.0
C87 C 0.62689 0.60654 0.56475 0.0
C88 C 0.60453 0.57108 0.55279 0.0
N89 N 0.65609 0.64401 0.55808 0.0
C90 C 0.64361 0.66566 0.54727 0.0
H91 H 0.98214 0.51353 0.91853 0.0
H92 H 0.0352 0.43555 0.92038 0.0
H93 H 0.97873 0.4428 0.86974 0.0
C94 C 0.99056 0.49317 0.9115 0.0
C95 C 0.97854 0.4812 0.89272 0.0
C96 C 0.01127 0.47724 0.92164 0.0
C97 C 0.01962 0.44855 0.91282 0.0
C98 C 0.00753 0.43616 0.89418 0.0
C99 C 0.98742 0.4526 0.88418 0.0
N100 N 0.0138 0.40559 0.88559 0.0
C101 C 0.05143 0.41577 0.87906 0.0
H102 H 0.05684 0.62951 0.40974 0.0
H103 H 0.01516 0.50196 0.41714 0.0
H104 H 0.09206 0.59506 0.45958 0.0
C105 C 0.05486 0.60586 0.41826 0.0
C106 C 0.07603 0.61737 0.43569 0.0
C107 C 0.03327 0.56441 0.41129 0.0
C108 C 0.03136 0.534 0.42238 0.0
C109 C 0.05221 0.54528 0.43993 0.0
C110 C 0.07478 0.58675 0.44634 0.0
N111 N 0.0532 0.51586 0.451 0.0
C112 C 0.01899 0.47763 0.45265 0.0
H113 H 0.5796 0.12236 0.74601 0.0
H114 H 0.65767 0.06944 0.75069 0.0
H115 H 0.65292 0.14256 0.79623 0.0
C116 C 0.60055 0.11644 0.75415 0.0
C117 C 0.61328 0.13426 0.77221 0.0
C118 C 0.6167 0.09343 0.74611 0.0
C119 C 0.64495 0.08717 0.75664 0.0
C120 C 0.65791 0.105 0.77471 0.0
C121 C 0.64257 0.12891 0.78229 0.0
N122 N 0.68735 0.10033 0.78533 0.0
C123 C 0.68258 0.06186 0.78767 0.0
H124 H 0.56948 0.52995 0.07992 0.0
H125 H 0.43832 0.45062 0.0779 0.0
H126 H 0.51321 0.45735 0.12518 0.0
C127 C 0.54227 0.50902 0.08652 0.0
C128 C 0.54642 0.49674 0.10396 0.0
C129 C 0.50353 0.49261 0.07695 0.0
C130 C 0.46845 0.46372 0.08509 0.0
C131 C 0.47231 0.45095 0.10242 0.0
C132 C 0.51104 0.46727 0.11172 0.0
N133 N 0.43748 0.42114 0.1106 0.0
C134 C 0.40596 0.42841 0.11453 0.0
H135 H 0.13557 0.49774 0.18396 0.0
H136 H 0.1861 0.47685 0.17777 0.0
H137 H 0.2419 0.5728 0.1407 0.0
H138 H 0.19211 0.59428 0.14692 0.0
H139 H 0.19409 0.44921 0.14312 0.0
H140 H 0.34124 0.5848 0.17104 0.0
H141 H 0.29191 0.57647 0.17725 0.0
H142 H 0.31128 0.59764 0.1559 0.0
C143 C 0.15908 0.51493 0.17476 0.0
C144 C 0.1597 0.54761 0.16588 0.0
C145 C 0.18785 0.50288 0.17123 0.0
C146 C 0.2179 0.52353 0.15893 0.0
C147 C 0.21944 0.55697 0.15052 0.0
H148 H 0.39562 0.48917 0.10245 0.0
H149 H 0.34807 0.51071 0.11359 0.0
C150 C 0.19074 0.56904 0.15402 0.0
C151 C 0.24527 0.50792 0.15353 0.0
H152 H 0.34599 0.53634 0.15046 0.0
C153 C 0.22731 0.46802 0.14492 0.0
C154 C 0.28854 0.5327 0.15583 0.0
C155 C 0.30943 0.57515 0.16566 0.0
C156 C 0.25153 0.45265 0.13798 0.0
C157 C 0.29478 0.47771 0.13999 0.0
C158 C 0.31277 0.51735 0.14888 0.0
C159 C 0.32199 0.46353 0.13279 0.0
C160 C 0.23068 0.41029 0.12805 0.0
C161 C 0.32287 0.42993 0.13991 0.0
C162 C 0.34975 0.41762 0.13351 0.0
C163 C 0.376 0.43886 0.11999 0.0
C164 C 0.3751 0.47225 0.11277 0.0
C165 C 0.34823 0.48459 0.11917 0.0
H166 H 0.19781 0.39905 0.12399 0.0
H167 H 0.24639 0.41017 0.11557 0.0
H168 H 0.23215 0.38831 0.13723 0.0
H169 H 0.30338 0.4138 0.15066 0.0
H170 H 0.35062 0.39209 0.13936 0.0
H171 H 0.69641 0.2085 0.51558 0.0
H172 H 0.7638 0.2624 0.50775 0.0
H173 H 0.76795 0.17782 0.46729 0.0
H174 H 0.70037 0.12372 0.47484 0.0
H175 H 0.84194 0.26685 0.50673 0.0
H176 H 0.77752 0.2731 0.43782 0.0
H177 H 0.74537 0.24711 0.45596 0.0
H178 H 0.76902 0.22349 0.44333 0.0
C179 C 0.71181 0.20111 0.50518 0.0
C180 C 0.69271 0.16191 0.49567 0.0
C181 C 0.75033 0.23197 0.50074 0.0
C182 C 0.77034 0.2242 0.48671 0.0
C183 C 0.75254 0.18454 0.47792 0.0
H184 H 0.98924 0.40236 0.43494 0.0
H185 H 0.93021 0.33754 0.44312 0.0
C186 C 0.714 0.15365 0.48233 0.0
C187 C 0.80875 0.25828 0.4807 0.0
H188 H 0.84814 0.31867 0.44508 0.0
C189 C 0.84345 0.27807 0.49322 0.0
C190 C 0.81048 0.27267 0.46304 0.0
C191 C 0.77359 0.2533 0.44926 0.0
C192 C 0.87988 0.31228 0.48861 0.0
C193 C 0.88122 0.32739 0.47115 0.0
C194 C 0.84691 0.30689 0.45844 0.0
C195 C 0.91698 0.36597 0.46623 0.0
C196 C 0.91657 0.33199 0.50247 0.0
C197 C 0.92833 0.40325 0.47628 0.0
C198 C 0.96165 0.43992 0.47159 0.0
C199 C 0.98379 0.43977 0.45674 0.0
C200 C 0.97229 0.4028 0.44646 0.0
C201 C 0.93883 0.36599 0.45114 0.0
H202 H 0.91475 0.31018 0.51264 0.0
H203 H 0.94568 0.34321 0.49565 0.0
H204 H 0.91752 0.35872 0.51005 0.0
H205 H 0.91125 0.404 0.48769 0.0
H206 H 0.97022 0.46836 0.47961 0.0
H207 H 0.66837 0.72087 0.81701 0.0
H208 H 0.68535 0.79014 0.80988 0.0
H209 H 0.58953 0.78228 0.84259 0.0
H210 H 0.57189 0.71271 0.84968 0.0
H211 H 0.58518 0.80369 0.80654 0.0
H212 H 0.74203 0.90104 0.84077 0.0
H213 H 0.73509 0.85777 0.82633 0.0
H214 H 0.70764 0.84922 0.84666 0.0
C215 C 0.65131 0.73405 0.82297 0.0
C216 C 0.61861 0.71109 0.83387 0.0
C217 C 0.66124 0.77378 0.81894 0.0
C218 C 0.6389 0.79139 0.82582 0.0
C219 C 0.6072 0.76919 0.8372 0.0
H220 H 0.62605 0.01066 0.80902 0.0
H221 H 0.61549 0.94408 0.81781 0.0
C222 C 0.59724 0.72947 0.84126 0.0
C223 C 0.64615 0.8314 0.81988 0.0
H224 H 0.71812 0.93343 0.82052 0.0
C225 C 0.61416 0.83212 0.80968 0.0
C226 C 0.68415 0.86824 0.82382 0.0
C227 C 0.71914 0.8693 0.83512 0.0
C228 C 0.61921 0.86874 0.80319 0.0
C229 C 0.65702 0.90571 0.80732 0.0
C230 C 0.68918 0.90497 0.81738 0.0
C231 C 0.66327 0.94569 0.80182 0.0
C232 C 0.58424 0.86737 0.79171 0.0
C233 C 0.69415 0.96895 0.79022 0.0
C234 C 0.70027 0.00702 0.78528 0.0
C235 C 0.67568 0.02211 0.79198 0.0
C236 C 0.645 -0.00091 0.8036 0.0
C237 C 0.6389 0.96115 0.80855 0.0
H238 H 0.56237 0.83578 0.78555 0.0
H239 H 0.56703 0.87726 0.80054 0.0
H240 H 0.59582 0.88846 0.78052 0.0
H241 H 0.7134 0.9576 0.78499 0.0
H242 H 0.7243 0.02472 0.77638 0.0
H243 H 0.91763 0.59185 0.12656 0.0
H244 H 0.85229 0.58885 0.11936 0.0
H245 H 0.83371 0.59096 0.17715 0.0
H246 H 0.90046 0.59638 0.18439 0.0
H247 H 0.78374 0.52535 0.12591 0.0
H248 H 0.7898 0.6624 0.16063 0.0
H249 H 0.83532 0.65892 0.15771 0.0
H250 H 0.80335 0.63467 0.17608 0.0
C251 C 0.90009 0.59291 0.13772 0.0
C252 C 0.91374 0.59418 0.15599 0.0
C253 C 0.86282 0.59119 0.13362 0.0
C254 C 0.83805 0.58972 0.1477 0.0
C255 C 0.85262 0.59299 0.16606 0.0
H256 H 0.574 0.45562 0.12504 0.0
H257 H 0.64361 0.48056 0.13816 0.0
C258 C 0.8906 0.59582 0.1702 0.0
C259 C 0.79501 0.57885 0.14291 0.0
H260 H 0.72289 0.60662 0.15004 0.0
C261 C 0.77064 0.54341 0.13109 0.0
C262 C 0.7779 0.60241 0.14962 0.0
C263 C 0.80308 0.64194 0.16156 0.0
C264 C 0.72979 0.5309 0.12571 0.0
C265 C 0.7121 0.55342 0.13299 0.0
C266 C 0.7364 0.58905 0.14474 0.0
C267 C 0.6688 0.54095 0.12791 0.0
C268 C 0.70644 0.49425 0.11187 0.0
C269 C 0.65938 0.5676 0.11888 0.0
C270 C 0.61924 0.55385 0.11181 0.0
C271 C 0.58789 0.51303 0.11348 0.0
C272 C 0.59714 0.48725 0.1235 0.0
C273 C 0.6371 0.50128 0.13083 0.0
H274 H 0.72752 0.48822 0.10385 0.0
H275 H 0.68728 0.46642 0.11917 0.0
H276 H 0.68596 0.49888 0.10212 0.0
H277 H 0.68336 0.59852 0.11667 0.0
H278 H 0.61302 0.57495 0.10465 0.0
H279 H 0.38112 0.92632 0.51612 0.0
H280 H 0.31241 0.86825 0.5074 0.0
H281 H 0.30065 0.93102 0.46174 0.0
H282 H 0.36946 0.98952 0.4703 0.0
H283 H 0.22282 0.87517 0.48537 0.0
H284 H 0.31032 0.80716 0.45442 0.0
H285 H 0.32644 0.83064 0.4775 0.0
H286 H 0.33222 0.86203 0.45887 0.0
C287 C 0.36364 0.92834 0.50448 0.0
C288 C 0.38111 0.96225 0.49369 0.0
C289 C 0.32431 0.8952 0.4996 0.0
C290 C 0.30184 0.8955 0.48392 0.0
C291 C 0.31766 0.93052 0.47395 0.0
H292 H 0.12739 0.68024 0.41573 0.0
H293 H 0.17712 0.7509 0.42698 0.0
C294 C 0.35705 0.96378 0.47883 0.0
C295 C 0.26541 0.85698 0.4763 0.0
H296 H 0.23854 0.76536 0.45317 0.0
C297 C 0.22601 0.85108 0.47828 0.0
C298 C 0.27008 0.82609 0.46692 0.0
C299 C 0.31197 0.8316 0.46414 0.0
C300 C 0.19081 0.81434 0.47126 0.0
C301 C 0.19556 0.78309 0.46222 0.0
C302 C 0.23507 0.78946 0.46008 0.0
C303 C 0.16032 0.74298 0.45503 0.0
C304 C 0.14897 0.80934 0.47338 0.0
C305 C 0.13385 0.7154 0.46704 0.0
C306 C 0.10506 0.67496 0.46061 0.0
C307 C 0.10258 0.66145 0.4421 0.0
C308 C 0.12804 0.68975 0.42999 0.0
C309 C 0.15663 0.73012 0.43641 0.0
H310 H 0.15082 0.83945 0.47644 0.0
H311 H 0.12834 0.79377 0.46077 0.0
H312 H 0.13497 0.78998 0.48492 0.0
H313 H 0.13674 0.72453 0.48153 0.0
H314 H 0.08559 0.65394 0.47022 0.0
H315 H 0.55602 0.40379 0.85296 0.0
H316 H 0.55797 0.34175 0.84352 0.0
H317 H 0.48728 0.3275 0.79303 0.0
H318 H 0.48533 0.38979 0.80222 0.0
H319 H 0.49677 0.25625 0.83003 0.0
H320 H 0.60288 0.35014 0.77853 0.0
H321 H 0.58974 0.37292 0.79737 0.0
H322 H 0.55358 0.34689 0.77787 0.0
C323 C 0.54007 0.38704 0.84002 0.0
C324 C 0.52118 0.40224 0.82819 0.0
C325 C 0.54112 0.35149 0.83469 0.0
C326 C 0.52335 0.33059 0.81748 0.0
C327 C 0.50156 0.34362 0.80629 0.0
H328 H 0.53383 0.11814 0.77034 0.0
H329 H 0.5086 0.16307 0.78185 0.0
C330 C 0.50045 0.37918 0.8116 0.0
C331 C 0.53221 0.29866 0.8104 0.0
H332 H 0.58955 0.28237 0.77989 0.0
C333 C 0.5167 0.26164 0.81896 0.0
C334 C 0.55876 0.3063 0.79615 0.0
C335 C 0.57755 0.34628 0.78698 0.0
C336 C 0.52728 0.23199 0.81361 0.0
C337 C 0.55391 0.23978 0.7994 0.0
C338 C 0.56904 0.27659 0.79076 0.0
C339 C 0.56808 0.21108 0.79368 0.0
C340 C 0.51106 0.19316 0.82352 0.0
C341 C 0.60983 0.22343 0.79648 0.0
C342 C 0.62434 0.19806 0.78987 0.0
C343 C 0.59735 0.16 0.78019 0.0
C344 C 0.55537 0.14745 0.77763 0.0
C345 C 0.54084 0.17282 0.78433 0.0
H346 H 0.4963 0.19482 0.83611 0.0
H347 H 0.48789 0.16668 0.81426 0.0
H348 H 0.53628 0.1871 0.82736 0.0
H349 H 0.63132 0.25306 0.80355 0.0
H350 H 0.6569 0.20881 0.79184 0.0
H351 H 0.60409 0.95562 0.47928 0.0
H352 H 0.61712 0.89842 0.48183 0.0
H353 H 0.5228 0.84511 0.5198 0.0
H354 H 0.50918 0.90163 0.51721 0.0
H355 H 0.6431 0.88019 0.51407 0.0
H356 H 0.49658 0.74578 0.4851 0.0
H357 H 0.51051 0.79812 0.48121 0.0
H358 H 0.48935 0.77669 0.50229 0.0
C359 C 0.58567 0.93141 0.48795 0.0
C360 C 0.55565 0.93331 0.49808 0.0
C361 C 0.59315 0.89875 0.48938 0.0
C362 C 0.57052 0.86725 0.50079 0.0
C363 C 0.53997 0.86859 0.51058 0.0
H364 H 0.5815 0.6778 0.55509 0.0
H365 H 0.56373 0.72541 0.541 0.0
C366 C 0.53248 0.90118 0.50919 0.0
C367 C 0.58135 0.83511 0.50392 0.0
H368 H 0.5405 0.73115 0.50424 0.0
C369 C 0.62095 0.84758 0.51162 0.0
C370 C 0.5523 0.79264 0.50074 0.0
C371 C 0.50993 0.77746 0.49171 0.0
C372 C 0.63168 0.81874 0.51711 0.0
C373 C 0.60218 0.77628 0.5145 0.0
C374 C 0.56301 0.76374 0.50622 0.0
C375 C 0.61054 0.74475 0.52157 0.0
C376 C 0.6738 0.83404 0.5265 0.0
C377 C 0.64202 0.73917 0.51497 0.0
C378 C 0.65221 0.71214 0.52305 0.0
C379 C 0.63074 0.69026 0.53765 0.0
C380 C 0.59827 0.69451 0.54377 0.0
C381 C 0.58814 0.72155 0.53574 0.0
H382 H 0.6897 0.86751 0.53074 0.0
H383 H 0.67171 0.81712 0.53883 0.0
H384 H 0.69298 0.82867 0.51692 0.0
H385 H 0.65924 0.75636 0.50386 0.0
H386 H 0.67738 0.70907 0.51819 0.0
H387 H 0.72278 0.58354 0.8192 0.0
H388 H 0.78243 0.57398 0.82314 0.0
H389 H 0.76212 0.55676 0.88044 0.0
H390 H 0.70198 0.56487 0.87649 0.0
H391 H 0.8555 0.60881 0.84535 0.0
H392 H 0.75028 0.44814 0.86093 0.0
H393 H 0.73196 0.48041 0.85196 0.0
H394 H 0.74597 0.48434 0.87613 0.0
C395 C 0.73157 0.57849 0.8327 0.0
C396 C 0.70742 0.57426 0.84748 0.0
C397 C 0.76555 0.57296 0.83492 0.0
C398 C 0.7759 0.56352 0.85196 0.0
C399 C 0.75389 0.56284 0.86705 0.0
H400 H 0.98575 0.55768 0.8967 0.0
H401 H 0.93903 0.57844 0.88368 0.0
C402 C 0.71968 0.56768 0.8648 0.0
C403 C 0.80756 0.55134 0.85386 0.0
H404 H 0.8217 0.47446 0.86865 0.0
C405 C 0.84818 0.57928 0.85024 0.0
C406 C 0.79767 0.51229 0.85967 0.0
C407 C 0.75402 0.47941 0.86219 0.0
C408 C 0.87964 0.56994 0.85323 0.0
C409 C 0.87022 0.53217 0.86049 0.0
C410 C 0.82919 0.5036 0.86325 0.0
C411 C 0.90214 0.52204 0.86637 0.0
C412 C 0.92243 0.60056 0.84847 0.0
C413 C 0.89694 0.48322 0.86119 0.0
C414 C 0.92255 0.47048 0.86924 0.0
C415 C 0.95441 0.49654 0.88251 0.0
C416 C 0.96104 0.53637 0.88685 0.0
C417 C 0.93482 0.54873 0.87908 0.0
H418 H 0.92152 0.61871 0.83708 0.0
H419 H 0.93926 0.62253 0.86058 0.0
H420 H 0.9398 0.58514 0.84443 0.0
H421 H 0.87185 0.46198 0.85146 0.0
H422 H 0.91596 0.43942 0.86567 0.0
H423 H 0.18137 0.72597 0.15756 0.0
H424 H 0.23575 0.79637 0.16593 0.0
H425 H 0.15435 0.81677 0.19884 0.0
H426 H 0.09974 0.74539 0.19102 0.0
H427 H 0.24642 0.87277 0.16289 0.0
H428 H 0.24625 0.83964 0.23644 0.0
H429 H 0.21693 0.79956 0.2185 0.0
H430 H 0.19937 0.83383 0.22613 0.0
C431 C 0.17471 0.74541 0.16643 0.0
C432 C 0.13639 0.72978 0.17389 0.0
C433 C 0.20587 0.7858 0.17115 0.0
C434 C 0.19936 0.81156 0.1833 0.0
C435 C 0.16031 0.79706 0.1898 0.0
H436 H 0.41926 0.03578 0.23379 0.0
H437 H 0.34674 0.9926 0.22269 0.0
C438 C 0.12911 0.75634 0.18525 0.0
C439 C 0.23486 0.85201 0.19012 0.0
H440 H 0.30081 0.90121 0.22809 0.0
C441 C 0.25787 0.87946 0.17722 0.0
C442 C 0.24972 0.86073 0.20885 0.0
C443 C 0.22706 0.83188 0.22331 0.0
C444 C 0.29663 0.91382 0.18233 0.0
C445 C 0.3125 0.92084 0.20078 0.0
C446 C 0.28823 0.89551 0.21395 0.0
C447 C 0.35636 0.94954 0.20612 0.0
C448 C 0.32136 0.94116 0.16786 0.0
C449 C 0.38537 0.93921 0.20055 0.0
C450 C 0.42642 0.96302 0.20716 0.0
C451 C 0.43941 0.99796 0.21939 0.0
C452 C 0.41026 0.0088 0.22459 0.0
C453 C 0.36894 0.98449 0.21814 0.0
H454 H 0.30144 0.93834 0.15559 0.0
H455 H 0.33892 0.97388 0.17339 0.0
H456 H 0.3437 0.93204 0.16347 0.0
H457 H 0.37593 0.91175 0.19158 0.0
H458 H 0.4476 0.95306 0.20317 0.0
H459 H 0.56396 0.21625 0.53112 0.0
H460 H 0.55548 0.27591 0.53591 0.0
H461 H 0.45997 0.22765 0.49182 0.0
H462 H 0.46852 0.16754 0.48669 0.0
H463 H 0.51783 0.31078 0.49004 0.0
H464 H 0.46203 0.28163 0.55939 0.0
H465 H 0.50813 0.27912 0.558 0.0
H466 H 0.46217 0.24232 0.54431 0.0
C467 C 0.54093 0.21801 0.52246 0.0
C468 C 0.51681 0.18694 0.50856 0.0
C469 C 0.53594 0.25208 0.52532 0.0
C470 C 0.50655 0.25577 0.51446 0.0
C471 C 0.48255 0.22511 0.50046 0.0
H472 H 0.49672 0.4708 0.55731 0.0
H473 H 0.46902 0.40162 0.5422 0.0
C474 C 0.4875 0.19083 0.49757 0.0
C475 C 0.50269 0.29283 0.51746 0.0
H476 H 0.49546 0.35263 0.55178 0.0
C477 C 0.51203 0.31964 0.5034 0.0
C478 C 0.49403 0.30386 0.53472 0.0
C479 C 0.48057 0.27496 0.54989 0.0
C480 C 0.5164 0.35876 0.50668 0.0
C481 C 0.51214 0.37151 0.52456 0.0
C482 C 0.49933 0.34323 0.53812 0.0
C483 C 0.5256 0.41504 0.53025 0.0
C484 C 0.52654 0.38634 0.49108 0.0
C485 C 0.56621 0.44588 0.52815 0.0
C486 C 0.58193 0.48536 0.53664 0.0
C487 C 0.55755 0.49458 0.54767 0.0
C488 C 0.51624 0.46439 0.54897 0.0
C489 C 0.50039 0.42495 0.54032 0.0
H490 H 0.51274 0.3679 0.47777 0.0
H491 H 0.51545 0.40852 0.49299 0.0
H492 H 0.56036 0.40386 0.49028 0.0
H493 H 0.58669 0.4388 0.52094 0.0
H494 H 0.61405 0.50777 0.53564 0.0
H495 H 0.38767 0.46937 0.81349 0.0
H496 H 0.31551 0.44857 0.81645 0.0
H497 H 0.35248 0.55191 0.8559 0.0
H498 H 0.42439 0.57333 0.85285 0.0
H499 H 0.27617 0.4262 0.84795 0.0
H500 H 0.26705 0.55798 0.82268 0.0
H501 H 0.30911 0.54942 0.8183 0.0
H502 H 0.30864 0.57413 0.83988 0.0
C503 C 0.38048 0.48809 0.82256 0.0
C504 C 0.41187 0.523 0.83295 0.0
C505 C 0.33924 0.47613 0.82423 0.0
C506 C 0.32868 0.49901 0.8362 0.0
C507 C 0.35994 0.53435 0.84625 0.0
H508 H 0.11882 0.42574 0.89807 0.0
H509 H 0.18504 0.44377 0.88589 0.0
C510 C 0.40109 0.54636 0.84458 0.0
C511 C 0.28517 0.48413 0.83954 0.0
H512 H 0.21403 0.51472 0.84186 0.0
C513 C 0.26235 0.44528 0.84636 0.0
C514 C 0.26702 0.50885 0.83725 0.0
C515 C 0.2891 0.54973 0.82894 0.0
C516 C 0.22253 0.43131 0.85177 0.0
C517 C 0.20548 0.45722 0.85063 0.0
C518 C 0.22747 0.49518 0.84298 0.0
C519 C 0.16548 0.44608 0.85791 0.0
C520 C 0.19921 0.38906 0.85877 0.0
C521 C 0.13303 0.4425 0.8463 0.0
C522 C 0.09545 0.43248 0.85328 0.0
C523 C 0.09013 0.42624 0.87192 0.0
C524 C 0.12252 0.43023 0.8836 0.0
C525 C 0.16008 0.44024 0.87664 0.0
H526 H 0.21104 0.36889 0.85377 0.0
H527 H 0.20292 0.39196 0.87399 0.0
H528 H 0.1659 0.37393 0.85448 0.0
H529 H 0.13673 0.4472 0.83185 0.0
H530 H 0.07061 0.42961 0.84413 0.0
H531 H 0.88932 0.41385 0.15138 0.0
H532 H 0.83471 0.34704 0.15958 0.0
H533 H 0.91508 0.34783 0.20355 0.0
H534 H 0.97006 0.41414 0.19533 0.0
H535 H 0.86866 0.27134 0.18432 0.0
H536 H 0.77156 0.33643 0.20516 0.0
H537 H 0.78626 0.34506 0.18204 0.0
H538 H 0.82493 0.36832 0.20089 0.0
C539 C 0.89557 0.39964 0.16266 0.0
C540 C 0.93396 0.4196 0.17281 0.0
C541 C 0.86424 0.3616 0.1674 0.0
C542 C 0.87066 0.34305 0.18242 0.0
C543 C 0.90946 0.36186 0.19201 0.0
H544 H 0.66931 0.15056 0.23707 0.0
H545 H 0.73297 0.21362 0.23111 0.0
C546 C 0.94084 0.39979 0.18726 0.0
C547 C 0.83659 0.30466 0.18853 0.0
H548 H 0.74076 0.26366 0.20398 0.0
C549 C 0.84073 0.26963 0.18869 0.0
C550 C 0.80066 0.30288 0.19463 0.0
C551 C 0.79561 0.34026 0.19587 0.0
C552 C 0.80924 0.23237 0.19427 0.0
C553 C 0.77248 0.23007 0.19951 0.0
C554 C 0.76888 0.26545 0.19985 0.0
C555 C 0.73657 0.19092 0.20389 0.0
C556 C 0.81577 0.19597 0.19463 0.0
C557 C 0.71772 0.15745 0.19061 0.0
C558 C 0.68178 0.12168 0.19406 0.0
C559 C 0.66412 0.11908 0.21075 0.0
C560 C 0.68295 0.15212 0.22417 0.0
C561 C 0.71907 0.18796 0.22075 0.0
H562 H 0.849 0.20591 0.19592 0.0
H563 H 0.80078 0.17698 0.20616 0.0
H564 H 0.8022 0.17639 0.1816 0.0
H565 H 0.73004 0.15945 0.17735 0.0
H566 H 0.66717 0.0965 0.18348 0.0
H567 H 0.10266 0.60357 0.09502 0.0
H568 H 0.1033 0.59338 0.06177 0.0
H569 H 0.97555 0.49883 0.05866 0.0
H570 H 0.97438 0.50886 0.09179 0.0
H571 H 0.08434 0.51956 0.04071 0.0
H572 H 0.98029 0.57775 0.02018 0.0
H573 H 0.00513 0.58801 0.04301 0.0
H574 H 0.96013 0.53902 0.03635 0.0
C575 C 0.07461 0.58076 0.08727 0.0
C576 C 0.0384 0.55716 0.09609 0.0
C577 C 0.07509 0.57493 0.06828 0.0
C578 C 0.03936 0.54572 0.05777 0.0
C579 C 0.00327 0.52202 0.0665 0.0
H580 H 0.00168 0.42727 0.94933 0.0
H581 H 0.01322 0.44619 0.98238 0.0
C582 C 0.00275 0.52771 0.08546 0.0
C583 C 0.03985 0.53928 0.03769 0.0
H584 H 0.99491 0.54207 0.99671 0.0
C585 C 0.06504 0.52475 0.03105 0.0
C586 C 0.01502 0.54658 0.02515 0.0
C587 C 0.98887 0.56407 0.03147 0.0
C588 C 0.06512 0.51612 0.01218 0.0
C589 C 0.03896 0.52176 0.9997 0.0
C590 C 0.0147 0.53746 0.00632 0.0
C591 C 0.03556 0.51093 0.97972 0.0
C592 C 0.09329 0.50123 0.00575 0.0
C593 C 0.04417 0.54102 0.96728 0.0
C594 C 0.03759 0.5303 0.94841 0.0
C595 C 0.02198 0.48919 0.94161 0.0
C596 C 0.01431 0.45928 0.95411 0.0
C597 C 0.02089 0.47005 0.97301 0.0
H598 H 0.11893 0.50924 0.01621 0.0
H599 H 0.07554 0.46721 0.00318 0.0
H600 H 0.10638 0.51455 0.99276 0.0
H601 H 0.05545 0.57274 0.97219 0.0
H602 H 0.04422 0.55412 0.93912 0.0
H603 H 0.57882 0.04522 0.42585 0.0
H604 H 0.58187 0.05178 0.39286 0.0
H605 H 0.49474 0.09426 0.3936 0.0
H606 H 0.49097 0.08729 0.42667 0.0
H607 H 0.47654 0.03407 0.36559 0.0
H608 H 0.63959 0.15775 0.36671 0.0
H609 H 0.63236 0.11408 0.37852 0.0
H610 H 0.61148 0.14485 0.38706 0.0
C611 C 0.56029 0.05602 0.41906 0.0
C612 C 0.53474 0.06587 0.42896 0.0
C613 C 0.56236 0.06009 0.4002 0.0
C614 C 0.53923 0.07436 0.39086 0.0
C615 C 0.51316 0.08358 0.4006 0.0
H616 H 0.50151 0.09632 0.27427 0.0
H617 H 0.5052 0.10497 0.3078 0.0
C618 C 0.511 0.07949 0.41949 0.0
C619 C 0.54104 0.07801 0.3708 0.0
H620 H 0.60694 0.12312 0.33746 0.0
C621 C 0.50492 0.05387 0.35944 0.0
C622 C 0.57818 0.10386 0.36284 0.0
C623 C 0.61754 0.13192 0.37441 0.0
C624 C 0.50517 0.05383 0.34027 0.0
C625 C 0.54243 0.07915 0.33229 0.0
C626 C 0.57846 0.10376 0.34365 0.0
C627 C 0.54461 0.07916 0.31214 0.0
C628 C 0.46582 0.02561 0.32869 0.0
C629 C 0.56725 0.06373 0.30353 0.0
C630 C 0.56532 0.05888 0.28438 0.0
C631 C 0.54074 0.06946 0.27356 0.0
C632 C 0.52018 0.08731 0.28226 0.0
C633 C 0.5222 0.0922 0.30139 0.0
H634 H 0.44231 0.00185 0.33677 0.0
H635 H 0.45293 0.04405 0.32307 0.0
H636 H 0.47165 0.00992 0.31696 0.0
H637 H 0.58487 0.05366 0.31162 0.0
H638 H 0.58124 0.04477 0.2781 0.0
H639 H 0.50719 0.50091 0.75953 0.0
H640 H 0.51074 0.50162 0.72623 0.0
H641 H 0.63142 0.60971 0.73343 0.0
H642 H 0.6286 0.60885 0.76668 0.0
H643 H 0.51965 0.56083 0.70333 0.0
H644 H 0.65028 0.5326 0.69992 0.0
H645 H 0.62269 0.52566 0.72024 0.0
H646 H 0.66153 0.57634 0.71513 0.0
C647 C 0.53456 0.52479 0.75404 0.0
C648 C 0.56774 0.55466 0.76579 0.0
C649 C 0.5365 0.52515 0.73501 0.0
C650 C 0.57162 0.55529 0.72738 0.0
C651 C 0.60444 0.58558 0.73904 0.0
H652 H 0.59131 0.62386 0.61493 0.0
H653 H 0.58518 0.62044 0.64804 0.0
C654 C 0.60265 0.58515 0.75806 0.0
C655 C 0.5737 0.55547 0.70721 0.0
H656 H 0.63059 0.55274 0.67269 0.0
C657 C 0.54376 0.55886 0.6966 0.0
C658 C 0.60487 0.5523 0.69846 0.0
C659 C 0.63643 0.5461 0.70899 0.0
C660 C 0.5446 0.55995 0.67746 0.0
C661 C 0.57675 0.55848 0.6688 0.0
C662 C 0.60623 0.55432 0.67939 0.0
C663 C 0.58018 0.56064 0.64874 0.0
C664 C 0.51067 0.56196 0.66669 0.0
C665 C 0.5806 0.52873 0.63824 0.0
C666 C 0.58485 0.53093 0.6194 0.0
C667 C 0.58875 0.56513 0.61065 0.0
C668 C 0.58856 0.59719 0.62125 0.0
C669 C 0.58452 0.59504 0.64013 0.0
H670 H 0.4829 0.55122 0.67451 0.0
H671 H 0.5215 0.59434 0.66375 0.0
H672 H 0.50189 0.54302 0.65343 0.0
H673 H 0.57769 0.50207 0.64464 0.0
H674 H 0.58572 0.50608 0.61174 0.0
H675 H 0.60147 0.12595 0.57512 0.0
H676 H 0.61102 0.12484 0.60829 0.0
H677 H 0.51595 0.99709 0.60508 0.0
H678 H 0.50643 0.99763 0.57186 0.0
H679 H 0.55366 0.10694 0.63426 0.0
H680 H 0.61228 0.99764 0.63385 0.0
H681 H 0.60973 0.02263 0.61375 0.0
H682 H 0.56409 0.97924 0.62075 0.0
C683 C 0.58261 0.09753 0.58142 0.0
C684 C 0.55327 0.06182 0.57078 0.0
C685 C 0.58814 0.09698 0.60039 0.0
C686 C 0.56464 0.06073 0.60909 0.0
C687 C 0.535 0.02516 0.59858 0.0
H688 H 0.54122 0.05651 0.72709 0.0
H689 H 0.52658 0.04429 0.69375 0.0
C690 C 0.52943 0.02564 0.5796 0.0
C691 C 0.57046 0.06066 0.62924 0.0
H692 H 0.59921 0.01784 0.66281 0.0
C693 C 0.56355 0.08743 0.64051 0.0
C694 C 0.58375 0.03542 0.63732 0.0
C695 C 0.59328 0.00733 0.62583 0.0
C696 C 0.56948 0.08963 0.65968 0.0
C697 C 0.582 0.06383 0.66779 0.0
C698 C 0.58912 0.03718 0.65653 0.0
C699 C 0.58964 0.06572 0.68793 0.0
C700 C 0.5633 0.12033 0.67106 0.0
C701 C 0.62956 0.0798 0.69569 0.0
C702 C 0.63798 0.08664 0.71473 0.0
C703 C 0.60657 0.07946 0.7263 0.0
C704 C 0.56614 0.06293 0.7185 0.0
C705 C 0.55775 0.056 0.69948 0.0
H706 H 0.5629 0.14402 0.66266 0.0
H707 H 0.53342 0.10394 0.67729 0.0
H708 H 0.58793 0.13609 0.68234 0.0
H709 H 0.65455 0.08733 0.68699 0.0
H710 H 0.66947 0.09967 0.72031 0.0
H711 H 0.56433 0.50844 0.91038 0.0
H712 H 0.55226 0.50309 0.94285 0.0
H713 H 0.51546 0.59462 0.94112 0.0
H714 H 0.52694 0.59989 0.90839 0.0
H715 H 0.58879 0.56417 0.97147 0.0
H716 H 0.41947 0.4986 0.9641 0.0
H717 H 0.44877 0.5001 0.94496 0.0
H718 H 0.44946 0.54594 0.95355 0.0
C719 C 0.55364 0.52749 0.91683 0.0
C720 C 0.54646 0.5545 0.90672 0.0
C721 C 0.54677 0.52437 0.93542 0.0
C722 C 0.53244 0.54803 0.94432 0.0
C723 C 0.52579 0.57552 0.93441 0.0
H724 H 0.54137 0.56925 0.06418 0.0
H725 H 0.54584 0.58608 0.0321 0.0
C726 C 0.53264 0.57867 0.91575 0.0
C727 C 0.52532 0.5441 0.96407 0.0
H728 H 0.45043 0.51182 0.99428 0.0
C729 C 0.55861 0.55301 0.97649 0.0
C730 C 0.48579 0.52909 0.9705 0.0
C731 C 0.44867 0.51751 0.95761 0.0
C732 C 0.55343 0.54683 0.99517 0.0
C733 C 0.51397 0.53209 0.00165 0.0
C734 C 0.48069 0.52353 0.98927 0.0
C735 C 0.50648 0.52304 0.02105 0.0
C736 C 0.58998 0.55467 0.00766 0.0
C737 C 0.48112 0.48234 0.02547 0.0
C738 C 0.47828 0.47269 0.04378 0.0
C739 C 0.50082 0.50363 0.05794 0.0
C740 C 0.52417 0.54472 0.05351 0.0
C741 C 0.52681 0.55436 0.03522 0.0
H742 H 0.61552 0.55686 -0.00018 0.0
H743 H 0.60158 0.58421 0.01604 0.0
H744 H 0.58123 0.52983 0.01714 0.0
H745 H 0.46508 0.45775 0.01471 0.0
H746 H 0.46026 0.44074 0.04676 0.0
H747 H 0.00465 0.61476 0.23957 0.0
H748 H 0.99484 0.60862 0.27236 0.0
H749 H 0.04925 0.53151 0.27409 0.0
H750 H 0.05864 0.53687 0.24134 0.0
H751 H 0.97569 0.5 0.29139 0.0
H752 H 0.08343 0.66413 0.31486 0.0
H753 H 0.04465 0.65567 0.29729 0.0
H754 H 0.0832 0.64262 0.29227 0.0
C755 C 0.01489 0.59679 0.24694 0.0
C756 C 0.03259 0.57644 0.2378 0.0
C757 C 0.0093 0.59339 0.26569 0.0
C758 C 0.02164 0.5699 0.27567 0.0
C759 C 0.03951 0.54978 0.26663 0.0
H760 H 0.04362 0.51522 0.38614 0.0
H761 H 0.0326 0.51172 0.35282 0.0
C762 C 0.045 0.55304 0.24791 0.0
C763 C 0.01559 0.56574 0.29549 0.0
H764 H 0.04538 0.62021 0.33726 0.0
C765 C 0.99079 0.52627 0.30144 0.0
C766 C 0.03522 0.6001 0.30853 0.0
C767 C 0.06341 0.64301 0.303 0.0
C768 C 0.98531 0.52021 0.32014 0.0
C769 C 0.00559 0.55447 0.33319 0.0
C770 C 0.02965 0.59402 0.3272 0.0
C771 C 0.00486 0.5501 0.35321 0.0
C772 C 0.95782 0.47726 0.32575 0.0
C773 C 0.99215 0.57213 0.36452 0.0
C774 C -0.0016 0.57415 0.38358 0.0
C775 C 0.01779 0.55444 0.39167 0.0
C776 C 0.02805 0.53022 0.38035 0.0
C777 C 0.02181 0.52823 0.36128 0.0
H778 H 0.93532 0.45705 0.31431 0.0
H779 H 0.97694 0.46361 0.32968 0.0
H780 H 0.94082 0.47762 0.33772 0.0
H781 H 0.97904 0.58924 0.35856 0.0
H782 H 0.98989 0.59278 0.39198 0.0
loop_
_geom_bond_atom_site_label_1
_geom_bond_atom_site_label_2
_geom_bond_distance
_geom_bond_site_symmetry_2
_ccdc_geom_bond_type
O0 Zn1 1.953 . S
O0 C16 1.225 . S
Zn1 O0 1.953 . S
Zn1 O2 1.949 . S
Zn1 O8 1.919 1_455 S
Zn1 O13 1.924 . S
O2 Zn1 1.949 . S
O2 Zn3 1.923 . S
O2 Zn4 1.950 . S
O2 Zn5 1.945 . S
Zn3 O2 1.923 . S
Zn3 O6 1.933 . S
Zn3 O9 1.941 1_455 S
Zn3 O10 1.965 1_455 S
Zn4 O2 1.950 . S
Zn4 O11 1.938 . S
Zn4 O12 1.906 . S
Zn4 O22 1.953 . S
Zn5 O2 1.945 . S
Zn5 O7 1.932 . S
Zn5 O14 1.977 . S
Zn5 O15 1.910 . S
O6 Zn3 1.933 . S
O6 C17 1.226 . S
O7 Zn5 1.932 . S
O7 C17 1.307 . S
O8 Zn1 1.919 1_655 S
O8 C19 1.253 . S
O9 Zn3 1.941 1_655 S
O9 C19 1.283 . S
O10 Zn3 1.965 1_655 S
O10 C18 1.303 . S
O11 Zn4 1.938 . S
O11 C18 1.247 1_455 S
O12 Zn4 1.906 . S
O12 C20 1.304 . S
O13 Zn1 1.924 . S
O13 C21 1.311 . S
O14 Zn5 1.977 . S
O14 C20 1.272 . S
O15 Zn5 1.910 . S
O15 C21 1.231 . S
C16 O0 1.225 . S
C16 O22 1.298 . S
C17 O6 1.226 . S
C17 O7 1.307 . S
C18 O10 1.303 . S
C18 O11 1.247 1_655 S
C19 O8 1.253 . S
C19 O9 1.283 . S
C20 O12 1.304 . S
C20 O14 1.272 . S
C21 O13 1.311 . S
C21 O15 1.231 . S
O22 Zn4 1.953 . S
O22 C16 1.298 . S
O23 Zn24 1.953 . S
O23 C39 1.225 . S
Zn24 O23 1.953 . S
Zn24 O25 1.949 . S
Zn24 O31 1.919 . S
Zn24 O36 1.924 . S
O25 Zn24 1.949 . S
O25 Zn26 1.923 . S
O25 Zn27 1.950 . S
O25 Zn28 1.945 . S
Zn26 O25 1.923 . S
Zn26 O29 1.933 . S
Zn26 O32 1.941 . S
Zn26 O33 1.965 . S
Zn27 O25 1.950 . S
Zn27 O34 1.938 . S
Zn27 O35 1.906 . S
Zn27 O45 1.953 . S
Zn28 O25 1.945 . S
Zn28 O30 1.932 . S
Zn28 O37 1.977 1_545 S
Zn28 O38 1.910 1_545 S
O29 Zn26 1.933 . S
O29 C40 1.226 . S
O30 Zn28 1.932 . S
O30 C40 1.307 . S
O31 Zn24 1.919 . S
O31 C42 1.253 . S
O32 Zn26 1.941 . S
O32 C42 1.283 . S
O33 Zn26 1.965 . S
O33 C41 1.303 . S
O34 Zn27 1.938 . S
O34 C41 1.247 . S
O35 Zn27 1.906 . S
O35 C43 1.304 1_545 S
O36 Zn24 1.924 . S
O36 C44 1.311 1_545 S
O37 Zn28 1.977 1_565 S
O37 C43 1.272 . S
O38 Zn28 1.910 1_565 S
O38 C44 1.231 . S
C39 O23 1.225 . S
C39 O45 1.298 . S
C40 O29 1.226 . S
C40 O30 1.307 . S
C41 O33 1.303 . S
C41 O34 1.247 . S
C42 O31 1.253 . S
C42 O32 1.283 . S
C43 O35 1.304 1_565 S
C43 O37 1.272 . S
C44 O36 1.311 1_565 S
C44 O38 1.231 . S
O45 Zn27 1.953 . S
O45 C39 1.298 . S
O46 Zn47 1.953 . S
O46 C62 1.225 . S
Zn47 O46 1.953 . S
Zn47 O48 1.949 . S
Zn47 O54 1.919 . S
Zn47 O59 1.924 . S
O48 Zn47 1.949 . S
O48 Zn49 1.923 . S
O48 Zn50 1.950 . S
O48 Zn51 1.945 . S
Zn49 O48 1.923 . S
Zn49 O52 1.933 . S
Zn49 O55 1.941 . S
Zn49 O56 1.965 . S
Zn50 O48 1.950 . S
Zn50 O57 1.938 . S
Zn50 O58 1.906 . S
Zn50 O68 1.953 . S
Zn51 O48 1.945 . S
Zn51 O53 1.932 . S
Zn51 O60 1.977 . S
Zn51 O61 1.910 . S
O52 Zn49 1.933 . S
O52 C63 1.226 . S
O53 Zn51 1.932 . S
O53 C63 1.307 . S
O54 Zn47 1.919 . S
O54 C65 1.253 . S
O55 Zn49 1.941 . S
O55 C65 1.283 . S
O56 Zn49 1.965 . S
O56 C64 1.303 . S
O57 Zn50 1.938 . S
O57 C64 1.247 . S
O58 Zn50 1.906 . S
O58 C66 1.304 . S
O59 Zn47 1.924 . S
O59 C67 1.311 . S
O60 Zn51 1.977 . S
O60 C66 1.272 . S
O61 Zn51 1.910 . S
O61 C67 1.231 . S
C62 O46 1.225 . S
C62 O68 1.298 . S
C63 O52 1.226 . S
C63 O53 1.307 . S
C64 O56 1.303 . S
C64 O57 1.247 . S
C65 O54 1.253 . S
C65 O55 1.283 . S
C66 O58 1.304 . S
C66 O60 1.272 . S
C67 O59 1.311 . S
C67 O61 1.231 . S
O68 Zn50 1.953 . S
O68 C62 1.298 . S
H69 C72 0.929 . S
H70 C75 0.929 . S
H71 C77 0.930 . S
C72 H69 0.929 . S
C72 C73 1.398 . S
C72 C74 1.396 . S
C73 C72 1.398 . S
C73 C77 1.407 . S
C74 C72 1.396 . S
C74 C75 1.394 . S
C75 H70 0.929 . S
C75 C74 1.394 . S
C75 C76 1.382 . S
C76 C75 1.382 . S
C76 C77 1.392 . S
C76 N78 1.420 . S
C77 H71 0.930 . S
C77 C73 1.407 . S
C77 C76 1.392 . S
N78 C76 1.420 . S
N78 C79 1.244 . S
C79 N78 1.244 . S
H80 C83 0.929 . S
H81 C86 0.929 . S
H82 C88 0.930 . S
C83 H80 0.929 . S
C83 C84 1.398 . S
C83 C85 1.396 . S
C84 C83 1.398 . S
C84 C88 1.407 . S
C85 C83 1.396 . S
C85 C86 1.394 . S
C86 H81 0.929 . S
C86 C85 1.394 . S
C86 C87 1.382 . S
C87 C86 1.382 . S
C87 C88 1.392 . S
C87 N89 1.420 . S
C88 H82 0.930 . S
C88 C84 1.407 . S
C88 C87 1.392 . S
N89 C87 1.420 . S
N89 C90 1.244 . S
C90 N89 1.244 . S
H91 C94 0.929 . S
H92 C97 0.929 . S
H93 C99 0.930 . S
C94 H91 0.929 . S
C94 C95 1.398 . S
C94 C96 1.396 . S
C95 C94 1.398 . S
C95 C99 1.407 . S
C96 C94 1.396 . S
C96 C97 1.394 . S
C97 H92 0.929 . S
C97 C96 1.394 . S
C97 C98 1.382 . S
C98 C97 1.382 . S
C98 C99 1.392 . S
C98 N100 1.420 . S
C99 H93 0.930 . S
C99 C95 1.407 . S
C99 C98 1.392 . S
N100 C98 1.420 . S
N100 C101 1.244 . S
C101 N100 1.244 . S
H102 C105 0.929 . S
H103 C108 0.929 1_655 S
H104 C110 0.930 . S
C105 H102 0.929 . S
C105 C106 1.398 . S
C105 C107 1.396 . S
C106 C105 1.398 . S
C106 C110 1.407 . S
C107 C105 1.396 . S
C107 C108 1.394 . S
C108 H103 0.929 1_455 S
C108 C107 1.394 . S
C108 C109 1.382 . S
C109 C108 1.382 . S
C109 C110 1.392 . S
C109 N111 1.420 1_455 S
C110 H104 0.930 . S
C110 C106 1.407 . S
C110 C109 1.392 . S
N111 C109 1.420 1_655 S
N111 C112 1.244 . S
C112 N111 1.244 . S
H113 C116 0.929 . S
H114 C119 0.929 1_565 S
H115 C121 0.930 . S
C116 H113 0.929 . S
C116 C117 1.398 . S
C116 C118 1.396 . S
C117 C116 1.398 . S
C117 C121 1.407 . S
C118 C116 1.396 . S
C118 C119 1.394 . S
C119 H114 0.929 1_545 S
C119 C118 1.394 . S
C119 C120 1.382 . S
C120 C119 1.382 . S
C120 C121 1.392 . S
C120 N122 1.420 1_545 S
C121 H115 0.930 . S
C121 C117 1.407 . S
C121 C120 1.392 . S
N122 C120 1.420 1_565 S
N122 C123 1.244 . S
C123 N122 1.244 . S
H124 C127 0.929 . S
H125 C130 0.929 . S
H126 C132 0.930 . S
C127 H124 0.929 . S
C127 C128 1.398 . S
C127 C129 1.396 . S
C128 C127 1.398 . S
C128 C132 1.407 . S
C129 C127 1.396 . S
C129 C130 1.394 . S
C130 H125 0.929 . S
C130 C129 1.394 . S
C130 C131 1.382 . S
C131 C130 1.382 . S
C131 C132 1.392 . S
C131 N133 1.420 . S
C132 H126 0.930 . S
C132 C128 1.407 . S
C132 C131 1.392 . S
N133 C131 1.420 . S
N133 C134 1.244 . S
C134 N133 1.244 . S
H135 C143 0.929 . S
H136 C145 0.930 . S
H137 C147 0.930 . S
H138 C150 0.929 . S
H139 C153 0.930 . S
H140 C155 0.960 . S
H141 C155 0.960 . S
H142 C155 0.960 . S
C143 H135 0.929 . S
C143 C144 1.377 . S
C143 C145 1.384 . S
C144 C143 1.377 . S
C144 C150 1.390 . S
C145 H136 0.930 . S
C145 C143 1.384 . S
C145 C146 1.372 . S
C146 C145 1.372 . S
C146 C147 1.400 . S
C146 C151 1.490 . S
C147 H137 0.930 . S
C147 C146 1.400 . S
C147 C150 1.386 . S
H148 C164 0.930 . S
H149 C165 0.931 . S
C150 H138 0.929 . S
C150 C144 1.390 . S
C150 C147 1.386 . S
C151 C146 1.490 . S
C151 C153 1.395 . S
C151 C154 1.403 . S
H152 C158 0.930 . S
C153 H139 0.930 . S
C153 C151 1.395 . S
C153 C156 1.403 . S
C154 C151 1.403 . S
C154 C155 1.524 . S
C154 C158 1.400 . S
C155 H140 0.960 . S
C155 H141 0.960 . S
C155 H142 0.960 . S
C155 C154 1.524 . S
C156 C153 1.403 . S
C156 C157 1.392 . S
C156 C160 1.495 . S
C157 C156 1.392 . S
C157 C158 1.385 . S
C157 C159 1.478 . S
C158 H152 0.930 . S
C158 C154 1.400 . S
C158 C157 1.385 . S
C159 C157 1.478 . S
C159 C161 1.381 . S
C159 C165 1.383 . S
C160 C156 1.495 . S
C160 H166 0.959 . S
C160 H167 0.961 . S
C160 H168 0.960 . S
C161 C159 1.381 . S
C161 C162 1.394 . S
C161 H169 0.930 . S
C162 C161 1.394 . S
C162 C163 1.383 . S
C162 H170 0.929 . S
C163 C162 1.383 . S
C163 C164 1.377 . S
C164 H148 0.930 . S
C164 C163 1.377 . S
C164 C165 1.379 . S
C165 H149 0.931 . S
C165 C159 1.383 . S
C165 C164 1.379 . S
H166 C160 0.959 . S
H167 C160 0.961 . S
H168 C160 0.960 . S
H169 C161 0.930 . S
H170 C162 0.929 . S
H171 C179 0.929 . S
H172 C181 0.930 . S
H173 C183 0.930 . S
H174 C186 0.929 . S
H175 C189 0.930 . S
H176 C191 0.960 . S
H177 C191 0.960 . S
H178 C191 0.960 . S
C179 H171 0.929 . S
C179 C180 1.377 . S
C179 C181 1.384 . S
C180 C179 1.377 . S
C180 C186 1.390 . S
C181 H172 0.930 . S
C181 C179 1.384 . S
C181 C182 1.372 . S
C182 C181 1.372 . S
C182 C183 1.400 . S
C182 C187 1.490 . S
C183 H173 0.930 . S
C183 C182 1.400 . S
C183 C186 1.386 . S
H184 C200 0.930 . S
H185 C201 0.931 . S
C186 H174 0.929 . S
C186 C180 1.390 . S
C186 C183 1.386 . S
C187 C182 1.490 . S
C187 C189 1.395 . S
C187 C190 1.403 . S
H188 C194 0.930 . S
C189 H175 0.930 . S
C189 C187 1.395 . S
C189 C192 1.403 . S
C190 C187 1.403 . S
C190 C191 1.524 . S
C190 C194 1.400 . S
C191 H176 0.960 . S
C191 H177 0.960 . S
C191 H178 0.960 . S
C191 C190 1.524 . S
C192 C189 1.403 . S
C192 C193 1.392 . S
C192 C196 1.495 . S
C193 C192 1.392 . S
C193 C194 1.385 . S
C193 C195 1.478 . S
C194 H188 0.930 . S
C194 C190 1.400 . S
C194 C193 1.385 . S
C195 C193 1.478 . S
C195 C197 1.381 . S
C195 C201 1.383 . S
C196 C192 1.495 . S
C196 H202 0.959 . S
C196 H203 0.961 . S
C196 H204 0.960 . S
C197 C195 1.381 . S
C197 C198 1.394 . S
C197 H205 0.930 . S
C198 C197 1.394 . S
C198 C199 1.383 . S
C198 H206 0.929 . S
C199 C198 1.383 . S
C199 C200 1.377 . S
C200 H184 0.930 . S
C200 C199 1.377 . S
C200 C201 1.379 . S
C201 H185 0.931 . S
C201 C195 1.383 . S
C201 C200 1.379 . S
H202 C196 0.959 . S
H203 C196 0.961 . S
H204 C196 0.960 . S
H205 C197 0.930 . S
H206 C198 0.929 . S
H207 C215 0.929 . S
H208 C217 0.930 . S
H209 C219 0.930 . S
H210 C222 0.929 . S
H211 C225 0.930 . S
H212 C227 0.960 . S
H213 C227 0.960 . S
H214 C227 0.960 . S
C215 H207 0.929 . S
C215 C216 1.377 . S
C215 C217 1.384 . S
C216 C215 1.377 . S
C216 C222 1.390 . S
C217 H208 0.930 . S
C217 C215 1.384 . S
C217 C218 1.372 . S
C218 C217 1.372 . S
C218 C219 1.400 . S
C218 C223 1.490 . S
C219 H209 0.930 . S
C219 C218 1.400 . S
C219 C222 1.386 . S
H220 C236 0.930 . S
H221 C237 0.931 . S
C222 H210 0.929 . S
C222 C216 1.390 . S
C222 C219 1.386 . S
C223 C218 1.490 . S
C223 C225 1.395 . S
C223 C226 1.403 . S
H224 C230 0.930 . S
C225 H211 0.930 . S
C225 C223 1.395 . S
C225 C228 1.403 . S
C226 C223 1.403 . S
C226 C227 1.524 . S
C226 C230 1.400 . S
C227 H212 0.960 . S
C227 H213 0.960 . S
C227 H214 0.960 . S
C227 C226 1.524 . S
C228 C225 1.403 . S
C228 C229 1.392 . S
C228 C232 1.495 . S
C229 C228 1.392 . S
C229 C230 1.385 . S
C229 C231 1.478 . S
C230 H224 0.930 . S
C230 C226 1.400 . S
C230 C229 1.385 . S
C231 C229 1.478 . S
C231 C233 1.381 . S
C231 C237 1.383 . S
C232 C228 1.495 . S
C232 H238 0.959 . S
C232 H239 0.961 . S
C232 H240 0.960 . S
C233 C231 1.381 . S
C233 C234 1.394 . S
C233 H241 0.930 . S
C234 C233 1.394 . S
C234 C235 1.383 . S
C234 H242 0.929 . S
C235 C234 1.383 . S
C235 C236 1.377 . S
C236 H220 0.930 . S
C236 C235 1.377 . S
C236 C237 1.379 . S
C237 H221 0.931 . S
C237 C231 1.383 . S
C237 C236 1.379 . S
H238 C232 0.959 . S
H239 C232 0.961 . S
H240 C232 0.960 . S
H241 C233 0.930 . S
H242 C234 0.929 . S
H243 C251 0.929 . S
H244 C253 0.930 . S
H245 C255 0.930 . S
H246 C258 0.929 . S
H247 C261 0.930 . S
H248 C263 0.960 . S
H249 C263 0.960 . S
H250 C263 0.960 . S
C251 H243 0.929 . S
C251 C252 1.377 . S
C251 C253 1.384 . S
C252 C251 1.377 . S
C252 C258 1.390 . S
C253 H244 0.930 . S
C253 C251 1.384 . S
C253 C254 1.372 . S
C254 C253 1.372 . S
C254 C255 1.400 . S
C254 C259 1.490 . S
C255 H245 0.930 . S
C255 C254 1.400 . S
C255 C258 1.386 . S
H256 C272 0.930 . S
H257 C273 0.931 . S
C258 H246 0.929 . S
C258 C252 1.390 . S
C258 C255 1.386 . S
C259 C254 1.490 . S
C259 C261 1.395 . S
C259 C262 1.403 . S
H260 C266 0.930 . S
C261 H247 0.930 . S
C261 C259 1.395 . S
C261 C264 1.403 . S
C262 C259 1.403 . S
C262 C263 1.524 . S
C262 C266 1.400 . S
C263 H248 0.960 . S
C263 H249 0.960 . S
C263 H250 0.960 . S
C263 C262 1.524 . S
C264 C261 1.403 . S
C264 C265 1.392 . S
C264 C268 1.495 . S
C265 C264 1.392 . S
C265 C266 1.385 . S
C265 C267 1.478 . S
C266 H260 0.930 . S
C266 C262 1.400 . S
C266 C265 1.385 . S
C267 C265 1.478 . S
C267 C269 1.381 . S
C267 C273 1.383 . S
C268 C264 1.495 . S
C268 H274 0.959 . S
C268 H275 0.961 . S
C268 H276 0.960 . S
C269 C267 1.381 . S
C269 C270 1.394 . S
C269 H277 0.930 . S
C270 C269 1.394 . S
C270 C271 1.383 . S
C270 H278 0.929 . S
C271 C270 1.383 . S
C271 C272 1.377 . S
C272 H256 0.930 . S
C272 C271 1.377 . S
C272 C273 1.379 . S
C273 H257 0.931 . S
C273 C267 1.383 . S
C273 C272 1.379 . S
H274 C268 0.959 . S
H275 C268 0.961 . S
H276 C268 0.960 . S
H277 C269 0.930 . S
H278 C270 0.929 . S
H279 C287 0.929 . S
H280 C289 0.930 . S
H281 C291 0.930 . S
H282 C294 0.929 . S
H283 C297 0.930 . S
H284 C299 0.960 . S
H285 C299 0.960 . S
H286 C299 0.960 . S
C287 H279 0.929 . S
C287 C288 1.377 . S
C287 C289 1.384 . S
C288 C287 1.377 . S
C288 C294 1.390 . S
C289 H280 0.930 . S
C289 C287 1.384 . S
C289 C290 1.372 . S
C290 C289 1.372 . S
C290 C291 1.400 . S
C290 C295 1.490 . S
C291 H281 0.930 . S
C291 C290 1.400 . S
C291 C294 1.386 . S
H292 C308 0.930 . S
H293 C309 0.931 . S
C294 H282 0.929 . S
C294 C288 1.390 . S
C294 C291 1.386 . S
C295 C290 1.490 . S
C295 C297 1.395 . S
C295 C298 1.403 . S
H296 C302 0.930 . S
C297 H283 0.930 . S
C297 C295 1.395 . S
C297 C300 1.403 . S
C298 C295 1.403 . S
C298 C299 1.524 . S
C298 C302 1.400 . S
C299 H284 0.960 . S
C299 H285 0.960 . S
C299 H286 0.960 . S
C299 C298 1.524 . S
C300 C297 1.403 . S
C300 C301 1.392 . S
C300 C304 1.495 . S
C301 C300 1.392 . S
C301 C302 1.385 . S
C301 C303 1.478 . S
C302 H296 0.930 . S
C302 C298 1.400 . S
C302 C301 1.385 . S
C303 C301 1.478 . S
C303 C305 1.381 . S
C303 C309 1.383 . S
C304 C300 1.495 . S
C304 H310 0.959 . S
C304 H311 0.961 . S
C304 H312 0.960 . S
C305 C303 1.381 . S
C305 C306 1.394 . S
C305 H313 0.930 . S
C306 C305 1.394 . S
C306 C307 1.383 . S
C306 H314 0.929 . S
C307 C306 1.383 . S
C307 C308 1.377 . S
C308 H292 0.930 . S
C308 C307 1.377 . S
C308 C309 1.379 . S
C309 H293 0.931 . S
C309 C303 1.383 . S
C309 C308 1.379 . S
H310 C304 0.959 . S
H311 C304 0.961 . S
H312 C304 0.960 . S
H313 C305 0.930 . S
H314 C306 0.929 . S
H315 C323 0.929 . S
H316 C325 0.930 . S
H317 C327 0.930 . S
H318 C330 0.929 . S
H319 C333 0.930 . S
H320 C335 0.960 . S
H321 C335 0.960 . S
H322 C335 0.960 . S
C323 H315 0.929 . S
C323 C324 1.377 . S
C323 C325 1.384 . S
C324 C323 1.377 . S
C324 C330 1.390 . S
C325 H316 0.930 . S
C325 C323 1.384 . S
C325 C326 1.372 . S
C326 C325 1.372 . S
C326 C327 1.400 . S
C326 C331 1.490 . S
C327 H317 0.930 . S
C327 C326 1.400 . S
C327 C330 1.386 . S
H328 C344 0.930 . S
H329 C345 0.931 . S
C330 H318 0.929 . S
C330 C324 1.390 . S
C330 C327 1.386 . S
C331 C326 1.490 . S
C331 C333 1.395 . S
C331 C334 1.403 . S
H332 C338 0.930 . S
C333 H319 0.930 . S
C333 C331 1.395 . S
C333 C336 1.403 . S
C334 C331 1.403 . S
C334 C335 1.524 . S
C334 C338 1.400 . S
C335 H320 0.960 . S
C335 H321 0.960 . S
C335 H322 0.960 . S
C335 C334 1.524 . S
C336 C333 1.403 . S
C336 C337 1.392 . S
C336 C340 1.495 . S
C337 C336 1.392 . S
C337 C338 1.385 . S
C337 C339 1.478 . S
C338 H332 0.930 . S
C338 C334 1.400 . S
C338 C337 1.385 . S
C339 C337 1.478 . S
C339 C341 1.381 . S
C339 C345 1.383 . S
C340 C336 1.495 . S
C340 H346 0.959 . S
C340 H347 0.961 . S
C340 H348 0.960 . S
C341 C339 1.381 . S
C341 C342 1.394 . S
C341 H349 0.930 . S
C342 C341 1.394 . S
C342 C343 1.383 . S
C342 H350 0.929 . S
C343 C342 1.383 . S
C343 C344 1.377 . S
C344 H328 0.930 . S
C344 C343 1.377 . S
C344 C345 1.379 . S
C345 H329 0.931 . S
C345 C339 1.383 . S
C345 C344 1.379 . S
H346 C340 0.959 . S
H347 C340 0.961 . S
H348 C340 0.960 . S
H349 C341 0.930 . S
H350 C342 0.929 . S
H351 C359 0.929 . S
H352 C361 0.930 . S
H353 C363 0.930 . S
H354 C366 0.929 . S
H355 C369 0.930 . S
H356 C371 0.960 . S
H357 C371 0.960 . S
H358 C371 0.960 . S
C359 H351 0.929 . S
C359 C360 1.377 . S
C359 C361 1.384 . S
C360 C359 1.377 . S
C360 C366 1.390 . S
C361 H352 0.930 . S
C361 C359 1.384 . S
C361 C362 1.372 . S
C362 C361 1.372 . S
C362 C363 1.400 . S
C362 C367 1.490 . S
C363 H353 0.930 . S
C363 C362 1.400 . S
C363 C366 1.386 . S
H364 C380 0.930 . S
H365 C381 0.931 . S
C366 H354 0.929 . S
C366 C360 1.390 . S
C366 C363 1.386 . S
C367 C362 1.490 . S
C367 C369 1.395 . S
C367 C370 1.403 . S
H368 C374 0.930 . S
C369 H355 0.930 . S
C369 C367 1.395 . S
C369 C372 1.403 . S
C370 C367 1.403 . S
C370 C371 1.524 . S
C370 C374 1.400 . S
C371 H356 0.960 . S
C371 H357 0.960 . S
C371 H358 0.960 . S
C371 C370 1.524 . S
C372 C369 1.403 . S
C372 C373 1.392 . S
C372 C376 1.495 . S
C373 C372 1.392 . S
C373 C374 1.385 . S
C373 C375 1.478 . S
C374 H368 0.930 . S
C374 C370 1.400 . S
C374 C373 1.385 . S
C375 C373 1.478 . S
C375 C377 1.381 . S
C375 C381 1.383 . S
C376 C372 1.495 . S
C376 H382 0.959 . S
C376 H383 0.961 . S
C376 H384 0.960 . S
C377 C375 1.381 . S
C377 C378 1.394 . S
C377 H385 0.930 . S
C378 C377 1.394 . S
C378 C379 1.383 . S
C378 H386 0.929 . S
C379 C378 1.383 . S
C379 C380 1.377 . S
C380 H364 0.930 . S
C380 C379 1.377 . S
C380 C381 1.379 . S
C381 H365 0.931 . S
C381 C375 1.383 . S
C381 C380 1.379 . S
H382 C376 0.959 . S
H383 C376 0.961 . S
H384 C376 0.960 . S
H385 C377 0.930 . S
H386 C378 0.929 . S
H387 C395 0.929 . S
H388 C397 0.930 . S
H389 C399 0.930 . S
H390 C402 0.929 . S
H391 C405 0.930 . S
H392 C407 0.960 . S
H393 C407 0.960 . S
H394 C407 0.960 . S
C395 H387 0.929 . S
C395 C396 1.377 . S
C395 C397 1.384 . S
C396 C395 1.377 . S
C396 C402 1.390 . S
C397 H388 0.930 . S
C397 C395 1.384 . S
C397 C398 1.372 . S
C398 C397 1.372 . S
C398 C399 1.400 . S
C398 C403 1.490 . S
C399 H389 0.930 . S
C399 C398 1.400 . S
C399 C402 1.386 . S
H400 C416 0.926 1_455 S
H401 C417 0.931 . S
C402 H390 0.929 . S
C402 C396 1.390 . S
C402 C399 1.386 . S
C403 C398 1.490 . S
C403 C405 1.395 . S
C403 C406 1.403 . S
H404 C410 0.930 . S
C405 H391 0.930 . S
C405 C403 1.395 . S
C405 C408 1.403 . S
C406 C403 1.403 . S
C406 C407 1.524 . S
C406 C410 1.400 . S
C407 H392 0.960 . S
C407 H393 0.960 . S
C407 H394 0.960 . S
C407 C406 1.524 . S
C408 C405 1.403 . S
C408 C409 1.392 . S
C408 C412 1.495 . S
C409 C408 1.392 . S
C409 C410 1.385 . S
C409 C411 1.478 . S
C410 H404 0.930 . S
C410 C406 1.400 . S
C410 C409 1.385 . S
C411 C409 1.478 . S
C411 C413 1.381 . S
C411 C417 1.383 . S
C412 C408 1.495 . S
C412 H418 0.959 . S
C412 H419 0.961 . S
C412 H420 0.960 . S
C413 C411 1.381 . S
C413 C414 1.394 . S
C413 H421 0.930 . S
C414 C413 1.394 . S
C414 C415 1.385 . S
C414 H422 0.929 . S
C415 C414 1.385 . S
C415 C416 1.380 . S
C416 H400 0.926 1_655 S
C416 C415 1.380 . S
C416 C417 1.379 . S
C417 H401 0.931 . S
C417 C411 1.383 . S
C417 C416 1.379 . S
H418 C412 0.959 . S
H419 C412 0.961 . S
H420 C412 0.960 . S
H421 C413 0.930 . S
H422 C414 0.929 . S
H423 C431 0.929 . S
H424 C433 0.930 . S
H425 C435 0.930 . S
H426 C438 0.929 . S
H427 C441 0.930 . S
H428 C443 0.960 . S
H429 C443 0.960 . S
H430 C443 0.960 . S
C431 H423 0.929 . S
C431 C432 1.377 . S
C431 C433 1.384 . S
C432 C431 1.377 . S
C432 C438 1.390 . S
C433 H424 0.930 . S
C433 C431 1.384 . S
C433 C434 1.372 . S
C434 C433 1.372 . S
C434 C435 1.400 . S
C434 C439 1.490 . S
C435 H425 0.930 . S
C435 C434 1.400 . S
C435 C438 1.386 . S
H436 C452 0.930 . S
H437 C453 0.931 . S
C438 H426 0.929 . S
C438 C432 1.390 . S
C438 C435 1.386 . S
C439 C434 1.490 . S
C439 C441 1.395 . S
C439 C442 1.403 . S
H440 C446 0.930 . S
C441 H427 0.930 . S
C441 C439 1.395 . S
C441 C444 1.403 . S
C442 C439 1.403 . S
C442 C443 1.524 . S
C442 C446 1.400 . S
C443 H428 0.960 . S
C443 H429 0.960 . S
C443 H430 0.960 . S
C443 C442 1.524 . S
C444 C441 1.403 . S
C444 C445 1.392 . S
C444 C448 1.495 . S
C445 C444 1.392 . S
C445 C446 1.385 . S
C445 C447 1.478 . S
C446 H440 0.930 . S
C446 C442 1.400 . S
C446 C445 1.385 . S
C447 C445 1.478 . S
C447 C449 1.381 . S
C447 C453 1.383 . S
C448 C444 1.495 . S
C448 H454 0.959 . S
C448 H455 0.961 . S
C448 H456 0.960 . S
C449 C447 1.381 . S
C449 C450 1.394 . S
C449 H457 0.930 . S
C450 C449 1.394 . S
C450 C451 1.383 . S
C450 H458 0.929 . S
C451 C450 1.383 . S
C451 C452 1.377 1_565 S
C452 H436 0.930 . S
C452 C451 1.377 1_545 S
C452 C453 1.379 1_545 S
C453 H437 0.931 . S
C453 C447 1.383 . S
C453 C452 1.379 1_565 S
H454 C448 0.959 . S
H455 C448 0.961 . S
H456 C448 0.960 . S
H457 C449 0.930 . S
H458 C450 0.929 . S
H459 C467 0.929 . S
H460 C469 0.930 . S
H461 C471 0.930 . S
H462 C474 0.929 . S
H463 C477 0.930 . S
H464 C479 0.960 . S
H465 C479 0.960 . S
H466 C479 0.960 . S
C467 H459 0.929 . S
C467 C468 1.377 . S
C467 C469 1.384 . S
C468 C467 1.377 . S
C468 C474 1.390 . S
C469 H460 0.930 . S
C469 C467 1.384 . S
C469 C470 1.372 . S
C470 C469 1.372 . S
C470 C471 1.400 . S
C470 C475 1.490 . S
C471 H461 0.930 . S
C471 C470 1.400 . S
C471 C474 1.386 . S
H472 C488 0.930 . S
H473 C489 0.931 . S
C474 H462 0.929 . S
C474 C468 1.390 . S
C474 C471 1.386 . S
C475 C470 1.490 . S
C475 C477 1.395 . S
C475 C478 1.403 . S
H476 C482 0.930 . S
C477 H463 0.930 . S
C477 C475 1.395 . S
C477 C480 1.403 . S
C478 C475 1.403 . S
C478 C479 1.524 . S
C478 C482 1.400 . S
C479 H464 0.960 . S
C479 H465 0.960 . S
C479 H466 0.960 . S
C479 C478 1.524 . S
C480 C477 1.403 . S
C480 C481 1.392 . S
C480 C484 1.495 . S
C481 C480 1.392 . S
C481 C482 1.385 . S
C481 C483 1.478 . S
C482 H476 0.930 . S
C482 C478 1.400 . S
C482 C481 1.385 . S
C483 C481 1.478 . S
C483 C485 1.381 . S
C483 C489 1.383 . S
C484 C480 1.495 . S
C484 H490 0.959 . S
C484 H491 0.961 . S
C484 H492 0.960 . S
C485 C483 1.381 . S
C485 C486 1.394 . S
C485 H493 0.930 . S
C486 C485 1.394 . S
C486 C487 1.383 . S
C486 H494 0.929 . S
C487 C486 1.383 . S
C487 C488 1.377 . S
C488 H472 0.930 . S
C488 C487 1.377 . S
C488 C489 1.379 . S
C489 H473 0.931 . S
C489 C483 1.383 . S
C489 C488 1.379 . S
H490 C484 0.959 . S
H491 C484 0.961 . S
H492 C484 0.960 . S
H493 C485 0.930 . S
H494 C486 0.929 . S
H495 C503 0.929 . S
H496 C505 0.930 . S
H497 C507 0.930 . S
H498 C510 0.929 . S
H499 C513 0.930 . S
H500 C515 0.960 . S
H501 C515 0.960 . S
H502 C515 0.960 . S
C503 H495 0.929 . S
C503 C504 1.377 . S
C503 C505 1.384 . S
C504 C503 1.377 . S
C504 C510 1.390 . S
C505 H496 0.930 . S
C505 C503 1.384 . S
C505 C506 1.372 . S
C506 C505 1.372 . S
C506 C507 1.400 . S
C506 C511 1.490 . S
C507 H497 0.930 . S
C507 C506 1.400 . S
C507 C510 1.386 . S
H508 C524 0.930 . S
H509 C525 0.931 . S
C510 H498 0.929 . S
C510 C504 1.390 . S
C510 C507 1.386 . S
C511 C506 1.490 . S
C511 C513 1.395 . S
C511 C514 1.403 . S
H512 C518 0.930 . S
C513 H499 0.930 . S
C513 C511 1.395 . S
C513 C516 1.403 . S
C514 C511 1.403 . S
C514 C515 1.524 . S
C514 C518 1.400 . S
C515 H500 0.960 . S
C515 H501 0.960 . S
C515 H502 0.960 . S
C515 C514 1.524 . S
C516 C513 1.403 . S
C516 C517 1.392 . S
C516 C520 1.495 . S
C517 C516 1.392 . S
C517 C518 1.385 . S
C517 C519 1.478 . S
C518 H512 0.930 . S
C518 C514 1.400 . S
C518 C517 1.385 . S
C519 C517 1.478 . S
C519 C521 1.381 . S
C519 C525 1.383 . S
C520 C516 1.495 . S
C520 H526 0.959 . S
C520 H527 0.961 . S
C520 H528 0.960 . S
C521 C519 1.381 . S
C521 C522 1.394 . S
C521 H529 0.930 . S
C522 C521 1.394 . S
C522 C523 1.383 . S
C522 H530 0.929 . S
C523 C522 1.383 . S
C523 C524 1.377 . S
C524 H508 0.930 . S
C524 C523 1.377 . S
C524 C525 1.379 . S
C525 H509 0.931 . S
C525 C519 1.383 . S
C525 C524 1.379 . S
H526 C520 0.959 . S
H527 C520 0.961 . S
H528 C520 0.960 . S
H529 C521 0.930 . S
H530 C522 0.929 . S
H531 C539 0.929 . S
H532 C541 0.930 . S
H533 C543 0.930 . S
H534 C546 0.929 . S
H535 C549 0.930 . S
H536 C551 0.960 . S
H537 C551 0.960 . S
H538 C551 0.960 . S
C539 H531 0.929 . S
C539 C540 1.377 . S
C539 C541 1.384 . S
C540 C539 1.377 . S
C540 C546 1.390 . S
C541 H532 0.930 . S
C541 C539 1.384 . S
C541 C542 1.372 . S
C542 C541 1.372 . S
C542 C543 1.400 . S
C542 C547 1.490 . S
C543 H533 0.930 . S
C543 C542 1.400 . S
C543 C546 1.386 . S
H544 C560 0.930 . S
H545 C561 0.931 . S
C546 H534 0.929 . S
C546 C540 1.390 . S
C546 C543 1.386 . S
C547 C542 1.490 . S
C547 C549 1.395 . S
C547 C550 1.403 . S
H548 C554 0.930 . S
C549 H535 0.930 . S
C549 C547 1.395 . S
C549 C552 1.403 . S
C550 C547 1.403 . S
C550 C551 1.524 . S
C550 C554 1.400 . S
C551 H536 0.960 . S
C551 H537 0.960 . S
C551 H538 0.960 . S
C551 C550 1.524 . S
C552 C549 1.403 . S
C552 C553 1.392 . S
C552 C556 1.495 . S
C553 C552 1.392 . S
C553 C554 1.385 . S
C553 C555 1.478 . S
C554 H548 0.930 . S
C554 C550 1.400 . S
C554 C553 1.385 . S
C555 C553 1.478 . S
C555 C557 1.381 . S
C555 C561 1.383 . S
C556 C552 1.495 . S
C556 H562 0.959 . S
C556 H563 0.961 . S
C556 H564 0.960 . S
C557 C555 1.381 . S
C557 C558 1.394 . S
C557 H565 0.930 . S
C558 C557 1.394 . S
C558 C559 1.383 . S
C558 H566 0.929 . S
C559 C558 1.383 . S
C559 C560 1.377 . S
C560 H544 0.930 . S
C560 C559 1.377 . S
C560 C561 1.379 . S
C561 H545 0.931 . S
C561 C555 1.383 . S
C561 C560 1.379 . S
H562 C556 0.959 . S
H563 C556 0.961 . S
H564 C556 0.960 . S
H565 C557 0.930 . S
H566 C558 0.929 . S
H567 C575 0.929 . S
H568 C577 0.930 . S
H569 C579 0.930 . S
H570 C582 0.929 . S
H571 C585 0.930 . S
H572 C587 0.960 . S
H573 C587 0.960 . S
H574 C587 0.960 . S
C575 H567 0.929 . S
C575 C576 1.377 . S
C575 C577 1.384 . S
C576 C575 1.377 . S
C576 C582 1.390 . S
C577 H568 0.930 . S
C577 C575 1.384 . S
C577 C578 1.372 . S
C578 C577 1.372 . S
C578 C579 1.400 . S
C578 C583 1.490 . S
C579 H569 0.930 . S
C579 C578 1.400 . S
C579 C582 1.386 . S
H580 C596 0.930 . S
H581 C597 0.931 . S
C582 H570 0.929 . S
C582 C576 1.390 . S
C582 C579 1.386 . S
C583 C578 1.490 . S
C583 C585 1.395 . S
C583 C586 1.403 . S
H584 C590 0.912 1_556 S
C585 H571 0.930 . S
C585 C583 1.395 . S
C585 C588 1.403 . S
C586 C583 1.403 . S
C586 C587 1.524 1_455 S
C586 C590 1.400 . S
C587 H572 0.960 . S
C587 H573 0.960 . S
C587 H574 0.960 . S
C587 C586 1.524 1_655 S
C588 C585 1.403 . S
C588 C589 1.409 . S
C588 C592 1.495 . S
C589 C588 1.409 . S
C589 C590 1.399 . S
C589 C591 1.448 1_554 S
C590 H584 0.912 1_554 S
C590 C586 1.400 . S
C590 C589 1.399 . S
C591 C589 1.448 1_556 S
C591 C593 1.381 . S
C591 C597 1.383 . S
C592 C588 1.495 . S
C592 H598 0.959 . S
C592 H599 0.968 . S
C592 H600 0.960 1_554 S
C593 C591 1.381 . S
C593 C594 1.394 . S
C593 H601 0.930 . S
C594 C593 1.394 . S
C594 C595 1.383 . S
C594 H602 0.929 . S
C595 C594 1.383 . S
C595 C596 1.377 . S
C596 H580 0.930 . S
C596 C595 1.377 . S
C596 C597 1.379 . S
C597 H581 0.931 . S
C597 C591 1.383 . S
C597 C596 1.379 . S
H598 C592 0.959 . S
H599 C592 0.968 . S
H600 C592 0.960 1_556 S
H601 C593 0.930 . S
H602 C594 0.929 . S
H603 C611 0.929 1_565 S
H604 C613 0.930 1_565 S
H605 C615 0.930 . S
H606 C618 0.929 . S
H607 C621 0.930 . S
H608 C623 0.960 . S
H609 C623 0.960 . S
H610 C623 0.960 . S
C611 H603 0.929 1_545 S
C611 C612 1.377 . S
C611 C613 1.384 . S
C612 C611 1.377 . S
C612 C618 1.390 . S
C613 H604 0.930 1_545 S
C613 C611 1.384 . S
C613 C614 1.372 . S
C614 C613 1.372 . S
C614 C615 1.400 . S
C614 C619 1.490 . S
C615 H605 0.930 . S
C615 C614 1.400 . S
C615 C618 1.386 . S
H616 C632 0.930 . S
H617 C633 0.931 . S
C618 H606 0.929 . S
C618 C612 1.390 . S
C618 C615 1.386 . S
C619 C614 1.490 . S
C619 C621 1.395 . S
C619 C622 1.403 . S
H620 C626 0.930 . S
C621 H607 0.930 . S
C621 C619 1.395 . S
C621 C624 1.403 . S
C622 C619 1.403 . S
C622 C623 1.524 . S
C622 C626 1.400 . S
C623 H608 0.960 . S
C623 H609 0.960 . S
C623 H610 0.960 . S
C623 C622 1.524 . S
C624 C621 1.403 . S
C624 C625 1.392 . S
C624 C628 1.495 1_545 S
C625 C624 1.392 . S
C625 C626 1.385 . S
C625 C627 1.478 . S
C626 H620 0.930 . S
C626 C622 1.400 . S
C626 C625 1.385 . S
C627 C625 1.478 . S
C627 C629 1.381 . S
C627 C633 1.383 . S
C628 C624 1.495 1_565 S
C628 H634 0.959 . S
C628 H635 0.961 1_565 S
C628 H636 0.960 . S
C629 C627 1.381 . S
C629 C630 1.394 . S
C629 H637 0.930 . S
C630 C629 1.394 . S
C630 C631 1.383 . S
C630 H638 0.929 . S
C631 C630 1.383 . S
C631 C632 1.377 . S
C632 H616 0.930 . S
C632 C631 1.377 . S
C632 C633 1.379 . S
C633 H617 0.931 . S
C633 C627 1.383 . S
C633 C632 1.379 . S
H634 C628 0.959 . S
H635 C628 0.961 1_545 S
H636 C628 0.960 . S
H637 C629 0.930 . S
H638 C630 0.929 . S
H639 C647 0.929 . S
H640 C649 0.930 . S
H641 C651 0.930 . S
H642 C654 0.929 . S
H643 C657 0.930 . S
H644 C659 0.960 . S
H645 C659 0.960 . S
H646 C659 0.960 . S
C647 H639 0.929 . S
C647 C648 1.377 . S
C647 C649 1.384 . S
C648 C647 1.377 . S
C648 C654 1.390 . S
C649 H640 0.930 . S
C649 C647 1.384 . S
C649 C650 1.372 . S
C650 C649 1.372 . S
C650 C651 1.400 . S
C650 C655 1.490 . S
C651 H641 0.930 . S
C651 C650 1.400 . S
C651 C654 1.386 . S
H652 C668 0.930 . S
H653 C669 0.931 . S
C654 H642 0.929 . S
C654 C648 1.390 . S
C654 C651 1.386 . S
C655 C650 1.490 . S
C655 C657 1.395 . S
C655 C658 1.403 . S
H656 C662 0.930 . S
C657 H643 0.930 . S
C657 C655 1.395 . S
C657 C660 1.403 . S
C658 C655 1.403 . S
C658 C659 1.524 . S
C658 C662 1.400 . S
C659 H644 0.960 . S
C659 H645 0.960 . S
C659 H646 0.960 . S
C659 C658 1.524 . S
C660 C657 1.403 . S
C660 C661 1.392 . S
C660 C664 1.495 . S
C661 C660 1.392 . S
C661 C662 1.385 . S
C661 C663 1.478 . S
C662 H656 0.930 . S
C662 C658 1.400 . S
C662 C661 1.385 . S
C663 C661 1.478 . S
C663 C665 1.381 . S
C663 C669 1.383 . S
C664 C660 1.495 . S
C664 H670 0.959 . S
C664 H671 0.961 . S
C664 H672 0.960 . S
C665 C663 1.381 . S
C665 C666 1.394 . S
C665 H673 0.930 . S
C666 C665 1.394 . S
C666 C667 1.383 . S
C666 H674 0.929 . S
C667 C666 1.383 . S
C667 C668 1.377 . S
C668 H652 0.930 . S
C668 C667 1.377 . S
C668 C669 1.379 . S
C669 H653 0.931 . S
C669 C663 1.383 . S
C669 C668 1.379 . S
H670 C664 0.959 . S
H671 C664 0.961 . S
H672 C664 0.960 . S
H673 C665 0.930 . S
H674 C666 0.929 . S
H675 C683 0.929 . S
H676 C685 0.930 . S
H677 C687 0.928 . S
H678 C690 0.929 . S
H679 C693 0.930 . S
H680 C695 0.960 . S
H681 C695 0.960 1_545 S
H682 C695 0.960 . S
C683 H675 0.929 . S
C683 C684 1.377 . S
C683 C685 1.384 . S
C684 C683 1.377 . S
C684 C690 1.390 . S
C685 H676 0.930 . S
C685 C683 1.384 . S
C685 C686 1.372 . S
C686 C685 1.372 . S
C686 C687 1.400 . S
C686 C691 1.490 . S
C687 H677 0.928 . S
C687 C686 1.400 . S
C687 C690 1.386 . S
H688 C704 0.930 1_565 S
H689 C705 0.938 . S
C690 H678 0.929 . S
C690 C684 1.390 . S
C690 C687 1.386 . S
C691 C686 1.490 . S
C691 C693 1.395 . S
C691 C694 1.403 . S
H692 C698 0.930 . S
C693 H679 0.930 . S
C693 C691 1.395 . S
C693 C696 1.403 . S
C694 C691 1.403 . S
C694 C695 1.524 1_545 S
C694 C698 1.400 . S
C695 H680 0.960 . S
C695 H681 0.960 1_565 S
C695 H682 0.960 . S
C695 C694 1.524 1_565 S
C696 C693 1.403 . S
C696 C697 1.392 . S
C696 C700 1.495 . S
C697 C696 1.392 . S
C697 C698 1.385 . S
C697 C699 1.478 . S
C698 H692 0.930 . S
C698 C694 1.400 . S
C698 C697 1.385 . S
C699 C697 1.478 . S
C699 C701 1.381 . S
C699 C705 1.383 . S
C700 C696 1.495 . S
C700 H706 0.959 . S
C700 H707 0.961 . S
C700 H708 0.960 . S
C701 C699 1.381 . S
C701 C702 1.394 . S
C701 H709 0.930 . S
C702 C701 1.394 . S
C702 C703 1.383 . S
C702 H710 0.929 . S
C703 C702 1.383 . S
C703 C704 1.377 . S
C704 H688 0.930 1_545 S
C704 C703 1.377 . S
C704 C705 1.379 . S
C705 H689 0.938 . S
C705 C699 1.383 . S
C705 C704 1.379 . S
H706 C700 0.959 . S
H707 C700 0.961 . S
H708 C700 0.960 . S
H709 C701 0.930 . S
H710 C702 0.929 . S
H711 C719 0.929 . S
H712 C721 0.930 . S
H713 C723 0.930 . S
H714 C726 0.929 . S
H715 C729 0.930 . S
H716 C731 0.960 . S
H717 C731 0.960 . S
H718 C731 0.960 . S
C719 H711 0.929 . S
C719 C720 1.377 . S
C719 C721 1.384 . S
C720 C719 1.377 . S
C720 C726 1.390 . S
C721 H712 0.930 . S
C721 C719 1.384 . S
C721 C722 1.372 . S
C722 C721 1.372 . S
C722 C723 1.400 . S
C722 C727 1.490 . S
C723 H713 0.930 . S
C723 C722 1.400 . S
C723 C726 1.386 . S
H724 C740 0.930 . S
H725 C741 0.931 . S
C726 H714 0.929 . S
C726 C720 1.390 . S
C726 C723 1.386 . S
C727 C722 1.490 . S
C727 C729 1.395 . S
C727 C730 1.403 . S
H728 C734 0.930 . S
C729 H715 0.930 . S
C729 C727 1.395 . S
C729 C732 1.403 . S
C730 C727 1.403 . S
C730 C731 1.524 . S
C730 C734 1.400 . S
C731 H716 0.960 . S
C731 H717 0.960 . S
C731 H718 0.960 . S
C731 C730 1.524 . S
C732 C729 1.403 . S
C732 C733 1.392 . S
C732 C736 1.495 . S
C733 C732 1.392 . S
C733 C734 1.385 . S
C733 C735 1.478 1_556 S
C734 H728 0.930 . S
C734 C730 1.400 . S
C734 C733 1.385 . S
C735 C733 1.478 1_554 S
C735 C737 1.381 . S
C735 C741 1.383 . S
C736 C732 1.495 . S
C736 H742 0.959 . S
C736 H743 0.961 1_556 S
C736 H744 0.960 1_556 S
C737 C735 1.381 . S
C737 C738 1.394 . S
C737 H745 0.930 . S
C738 C737 1.394 . S
C738 C739 1.383 . S
C738 H746 0.929 . S
C739 C738 1.383 . S
C739 C740 1.377 . S
C740 H724 0.930 . S
C740 C739 1.377 . S
C740 C741 1.379 . S
C741 H725 0.931 . S
C741 C735 1.383 . S
C741 C740 1.379 . S
H742 C736 0.959 . S
H743 C736 0.961 1_554 S
H744 C736 0.960 1_554 S
H745 C737 0.930 . S
H746 C738 0.929 . S
H747 C755 0.929 1_655 S
H748 C757 0.930 1_655 S
H749 C759 0.930 . S
H750 C762 0.929 . S
H751 C765 0.930 1_655 S
H752 C767 0.960 . S
H753 C767 0.960 . S
H754 C767 0.960 . S
C755 H747 0.929 1_455 S
C755 C756 1.377 . S
C755 C757 1.384 . S
C756 C755 1.377 . S
C756 C762 1.390 . S
C757 H748 0.930 1_455 S
C757 C755 1.384 . S
C757 C758 1.372 . S
C758 C757 1.372 . S
C758 C759 1.400 . S
C758 C763 1.490 . S
C759 H749 0.930 . S
C759 C758 1.400 . S
C759 C762 1.386 . S
H760 C776 0.930 . S
H761 C777 0.931 . S
C762 H750 0.929 . S
C762 C756 1.390 . S
C762 C759 1.386 . S
C763 C758 1.490 . S
C763 C765 1.395 . S
C763 C766 1.403 . S
H764 C770 0.930 . S
C765 H751 0.930 1_455 S
C765 C763 1.395 . S
C765 C768 1.403 . S
C766 C763 1.403 . S
C766 C767 1.524 . S
C766 C770 1.400 . S
C767 H752 0.960 . S
C767 H753 0.960 . S
C767 H754 0.960 . S
C767 C766 1.524 . S
C768 C765 1.403 . S
C768 C769 1.392 . S
C768 C772 1.495 1_455 S
C769 C768 1.392 . S
C769 C770 1.385 . S
C769 C771 1.478 . S
C770 H764 0.930 . S
C770 C766 1.400 . S
C770 C769 1.385 . S
C771 C769 1.478 . S
C771 C773 1.383 1_455 S
C771 C777 1.383 . S
C772 C768 1.495 1_655 S
C772 H778 0.959 . S
C772 H779 0.961 . S
C772 H780 0.960 . S
C773 C771 1.383 1_655 S
C773 C774 1.394 1_655 S
C773 H781 0.928 . S
C774 C773 1.394 1_455 S
C774 C775 1.394 . S
C774 H782 0.918 1_455 S
C775 C774 1.394 . S
C775 C776 1.377 . S
C776 H760 0.930 . S
C776 C775 1.377 . S
C776 C777 1.379 . S
C777 H761 0.931 . S
C777 C771 1.383 . S
C777 C776 1.379 . S
H778 C772 0.959 . S
H779 C772 0.961 . S
H780 C772 0.960 . S
H781 C773 0.928 . S
H782 C774 0.918 1_655 S
C144 C20 1.204 . S
C163 C134 1.234 . S
C180 C41 1.232 . S
C199 C112 1.224 . S
C216 C64 1.249 . S
C235 C123 1.243 . S
C252 C19 1.173 . S
C271 C128 1.199 . S
C307 C106 1.173 . S
C288 C44 1.166 . S
C343 C117 1.144 . S
C324 C67 1.136 . S
C360 C43 1.194 . S
C379 C90 1.218 . S
C396 C66 1.086 . S
C415 C95 1.123 1_655 S
C432 C21 1.169 . S
C451 C73 1.187 1_565 S
C487 C84 1.211 . S
C468 C42 1.151 . S
C523 C101 1.245 . S
C504 C65 1.205 . S
C540 C18 1.233 . S
C559 C79 1.214 . S
C595 C96 1.522 . S
C576 C17 1.520 . S
C612 C39 1.527 . S
C631 C74 1.507 . S
C648 C62 1.536 . S
C667 C85 1.521 . S
C703 C118 1.493 . S
C684 C40 1.505 . S
C739 C129 1.509 . S
C720 C63 1.520 . S
C756 C16 1.526 . S
C775 C107 1.526 . S
