# Generated by pormake.
# Topology zzz, (3,6)-cn, num edge types: 1
# Building blocks:
#     Node 0, Type 0, BuildingBlock: MIDCAF_clean_linker_0, # of connection points: 3
#     Node 1, Type 0, BuildingBlock: MIDCAF_clean_linker_0, # of connection points: 3
#     Node 2, Type 0, BuildingBlock: MIDCAF_clean_linker_0, # of connection points: 3
#     Node 3, Type 0, BuildingBlock: MIDCAF_clean_linker_0, # of connection points: 3
#     Node 4, Type 0, BuildingBlock: MIDCAF_clean_linker_0, # of connection points: 3
#     Node 5, Type 0, BuildingBlock: MIDCAF_clean_linker_0, # of connection points: 3
#     Node 6, Type 0, BuildingBlock: MIDCAF_clean_linker_0, # of connection points: 3
#     Node 7, Type 0, BuildingBlock: MIDCAF_clean_linker_0, # of connection points: 3
#     Node 8, Type 1, BuildingBlock: JUFBIX_clean_sbu_0, # of connection points: 6
#     Node 9, Type 1, BuildingBlock: JUFBIX_clean_sbu_0, # of connection points: 6
#     Node 10, Type 1, BuildingBlock: JUFBIX_clean_sbu_0, # of connection points: 6
#     Node 11, Type 1, BuildingBlock: JUFBIX_clean_sbu_0, # of connection points: 6
#     Edge 12, Type (0, 1), BuildingBlock: TEMPAE_clean_linker_10, # of connection points: 2
#     Edge 13, Type (0, 1), BuildingBlock: TEMPAE_clean_linker_10, # of connection points: 2
#     Edge 14, Type (0, 1), BuildingBlock: TEMPAE_clean_linker_10, # of connection points: 2
#     Edge 15, Type (0, 1), BuildingBlock: TEMPAE_clean_linker_10, # of connection points: 2
#     Edge 16, Type (0, 1), BuildingBlock: TEMPAE_clean_linker_10, # of connection points: 2
#     Edge 17, Type (0, 1), BuildingBlock: TEMPAE_clean_linker_10, # of connection points: 2
#     Edge 18, Type (0, 1), BuildingBlock: TEMPAE_clean_linker_10, # of connection points: 2
#     Edge 19, Type (0, 1), BuildingBlock: TEMPAE_clean_linker_10, # of connection points: 2
#     Edge 20, Type (0, 1), BuildingBlock: TEMPAE_clean_linker_10, # of connection points: 2
#     Edge 21, Type (0, 1), BuildingBlock: TEMPAE_clean_linker_10, # of connection points: 2
#     Edge 22, Type (0, 1), BuildingBlock: TEMPAE_clean_linker_10, # of connection points: 2
#     Edge 23, Type (0, 1), BuildingBlock: TEMPAE_clean_linker_10, # of connection points: 2
#     Edge 24, Type (0, 1), BuildingBlock: TEMPAE_clean_linker_10, # of connection points: 2
#     Edge 25, Type (0, 1), BuildingBlock: TEMPAE_clean_linker_10, # of connection points: 2
#     Edge 26, Type (0, 1), BuildingBlock: TEMPAE_clean_linker_10, # of connection points: 2
#     Edge 27, Type (0, 1), BuildingBlock: TEMPAE_clean_linker_10, # of connection points: 2
#     Edge 28, Type (0, 1), BuildingBlock: TEMPAE_clean_linker_10, # of connection points: 2
#     Edge 29, Type (0, 1), BuildingBlock: TEMPAE_clean_linker_10, # of connection points: 2
#     Edge 30, Type (0, 1), BuildingBlock: TEMPAE_clean_linker_10, # of connection points: 2
#     Edge 31, Type (0, 1), BuildingBlock: TEMPAE_clean_linker_10, # of connection points: 2
#     Edge 32, Type (0, 1), BuildingBlock: TEMPAE_clean_linker_10, # of connection points: 2
#     Edge 33, Type (0, 1), BuildingBlock: TEMPAE_clean_linker_10, # of connection points: 2
#     Edge 34, Type (0, 1), BuildingBlock: TEMPAE_clean_linker_10, # of connection points: 2
#     Edge 35, Type (0, 1), BuildingBlock: TEMPAE_clean_linker_10, # of connection points: 2
# Relax obj value: 0.292
# Max RMSD: 0.226
# Mean RMSD: 0.189
data_MOF--net-zzz--node1-JUFBIX_clean_sbu_0--node2-MIDCAF_clean_linker_0--edge1-TEMPAE_clean_linker_10
_symmetry_space_group_name_H-M    P1
_symmetry_Int_Tables_number       1
_symmetry_cell_setting            triclinic
loop_
_symmetry_equiv_pos_as_xyz
'x, y, z'
_cell_length_a     57.775678
_cell_length_b     59.518633
_cell_length_c     22.980577
_cell_angle_alpha  82.637431
_cell_angle_beta   90.216853
_cell_angle_gamma 86.502425
loop_
_atom_site_label
_atom_site_type_symbol
_atom_site_fract_x
_atom_site_fract_y
_atom_site_fract_z
_atom_type_partial_charge
C0 C 0.81938 0.5819 0.40209 0.0
C1 C 0.82037 0.56708 0.45504 0.0
C2 C 0.80343 0.551 0.46512 0.0
C3 C 0.78758 0.54818 0.42076 0.0
H4 H 0.73169 0.50273 0.21772 0.0
H5 H 0.69268 0.50075 0.17987 0.0
H6 H 0.67165 0.56325 0.24737 0.0
H7 H 0.71112 0.5652 0.28556 0.0
H8 H 0.78638 0.50081 0.1639 0.0
H9 H 0.81587 0.48892 0.09549 0.0
H10 H 0.85518 0.54609 0.12269 0.0
H11 H 0.82623 0.55769 0.19205 0.0
H12 H 0.80503 0.58893 0.31511 0.0
H13 H 0.83168 0.5949 0.39343 0.0
H14 H 0.80367 0.53922 0.50516 0.0
H15 H 0.77619 0.5343 0.42761 0.0
N16 N 0.75643 0.54806 0.30959 0.0
N17 N 0.76467 0.53202 0.22291 0.0
N18 N 0.79426 0.54717 0.27215 0.0
C19 C 0.74913 0.53789 0.26346 0.0
C20 C 0.7872 0.53673 0.22686 0.0
C21 C 0.77914 0.55268 0.3138 0.0
C22 C 0.72444 0.53421 0.25408 0.0
C23 C 0.71858 0.51572 0.22597 0.0
C24 C 0.69616 0.51451 0.20461 0.0
C25 C 0.67909 0.53193 0.21029 0.0
C26 C 0.6845 0.54966 0.24207 0.0
C27 C 0.707 0.5507 0.26428 0.0
C28 C 0.80409 0.53014 0.18326 0.0
C29 C 0.80126 0.51088 0.15495 0.0
C30 C 0.81808 0.50402 0.11618 0.0
C31 C 0.83759 0.51667 0.10417 0.0
C32 C 0.84016 0.53618 0.13135 0.0
C33 C 0.82368 0.54273 0.17105 0.0
C34 C 0.78865 0.56119 0.3656 0.0
C35 C 0.8039 0.57874 0.35749 0.0
C36 C 0.9862 0.80189 0.41216 0.0
C37 C 0.00126 0.81045 0.45119 0.0
C38 C 0.02493 0.80338 0.45148 0.0
C39 C 0.03363 0.7897 0.41051 0.0
H40 H 0.06748 0.72216 0.20157 0.0
H41 H 0.06194 0.68963 0.15014 0.0
H42 H 0.98846 0.69529 0.18504 0.0
H43 H 0.99448 0.7273 0.23968 0.0
H44 H 0.06075 0.78542 0.11399 0.0
H45 H 0.06865 0.81866 0.04508 0.0
H46 H 0.07361 0.85827 0.1889 0.0
H47 H 0.06552 0.82522 0.25792 0.0
H48 H 0.98327 0.78289 0.33917 0.0
H49 H 0.96786 0.80693 0.41114 0.0
H50 H 0.03705 0.80982 0.48041 0.0
H51 H 0.0522 0.78609 0.40858 0.0
N52 N 0.02492 0.75468 0.29699 0.0
N53 N 0.04764 0.7644 0.21355 0.0
N54 N 0.04208 0.78977 0.28237 0.0
C55 C 0.03478 0.74917 0.24629 0.0
C56 C 0.05123 0.7848 0.2311 0.0
C57 C 0.02907 0.77497 0.31554 0.0
C58 C 0.03139 0.72728 0.22433 0.0
C59 C 0.05021 0.71614 0.19925 0.0
C60 C 0.04695 0.69762 0.16917 0.0
C61 C 0.02464 0.69007 0.16187 0.0
C62 C 0.00592 0.7005 0.1898 0.0
C63 C 0.00931 0.71886 0.22113 0.0
C64 C 0.06189 0.8028 0.19137 0.0
C65 C 0.06419 0.80102 0.13119 0.0
C66 C 0.06882 0.82005 0.09163 0.0
C67 C 0.07128 0.84113 0.11163 0.0
C68 C 0.07133 0.8423 0.17226 0.0
C69 C 0.06669 0.82334 0.21174 0.0
C70 C 0.01884 0.78241 0.36908 0.0
C71 C 0.99493 0.78788 0.37157 0.0
C72 C 0.73251 0.95955 0.45663 0.0
C73 C 0.7146 0.97673 0.45699 0.0
C74 C 0.71332 0.99473 0.41076 0.0
C75 C 0.72795 0.99439 0.36285 0.0
H76 H 0.81435 0.99602 0.26341 0.0
H77 H 0.85204 0.00213 0.21677 0.0
H78 H 0.84114 0.94879 0.11073 0.0
H79 H 0.80348 0.94305 0.1561 0.0
H80 H 0.74505 0.97801 0.08638 0.0
H81 H 0.71271 0.98316 0.01579 0.0
H82 H 0.66598 0.96015 0.15395 0.0
H83 H 0.69805 0.9549 0.22412 0.0
H84 H 0.75947 0.94483 0.40647 0.0
H85 H 0.73423 0.94562 0.49194 0.0
H86 H 0.69967 0.00811 0.40877 0.0
H87 H 0.72515 0.00742 0.32556 0.0
N88 N 0.77537 0.97147 0.28754 0.0
N89 N 0.76512 0.96607 0.19107 0.0
N90 N 0.73633 0.96964 0.26079 0.0
C91 C 0.78169 0.96832 0.23183 0.0
C92 C 0.74239 0.96663 0.20547 0.0
C93 C 0.75253 0.97195 0.30189 0.0
C94 C 0.80605 0.96912 0.21311 0.0
C95 C 0.82033 0.98525 0.23122 0.0
C96 C 0.84177 0.98884 0.20438 0.0
C97 C 0.8494 0.97594 0.16019 0.0
C98 C 0.83574 0.95883 0.14501 0.0
C99 C 0.81418 0.95561 0.17078 0.0
C100 C 0.72403 0.96625 0.16084 0.0
C101 C 0.72796 0.9736 0.10133 0.0
C102 C 0.70946 0.97672 0.06107 0.0
C103 C 0.68686 0.97223 0.0796 0.0
C104 C 0.68323 0.96363 0.13839 0.0
C105 C 0.7016 0.96075 0.17861 0.0
C106 C 0.74425 0.97616 0.36001 0.0
C107 C 0.74723 0.95925 0.40829 0.0
C108 C 0.41783 0.66548 0.1096 0.0
C109 C 0.42618 0.66566 0.05211 0.0
C110 C 0.43658 0.68516 0.02563 0.0
C111 C 0.43985 0.70334 0.05701 0.0
H112 H 0.44882 0.7719 0.04484 0.0
H113 H 0.45512 0.80957 0.99674 0.0
H114 H 0.47884 0.82888 0.16058 0.0
H115 H 0.47279 0.79065 0.2095 0.0
H116 H 0.49764 0.72451 0.29583 0.0
H117 H 0.50976 0.69927 0.38528 0.0
H118 H 0.4386 0.68312 0.41553 0.0
H119 H 0.42674 0.70788 0.32614 0.0
H120 H 0.41591 0.68234 0.18651 0.0
H121 H 0.40919 0.65107 0.13095 0.0
H122 H 0.44355 0.68591 0.98181 0.0
H123 H 0.44898 0.71754 0.03626 0.0
N124 N 0.44607 0.74016 0.12775 0.0
N125 N 0.46032 0.74821 0.21837 0.0
N126 N 0.44519 0.71292 0.2103 0.0
C127 C 0.45544 0.75496 0.16027 0.0
C128 C 0.45494 0.72717 0.24345 0.0
C129 C 0.44086 0.71919 0.15244 0.0
C130 C 0.46018 0.77809 0.13144 0.0
C131 C 0.4554 0.78403 0.07109 0.0
C132 C 0.45887 0.80579 0.04331 0.0
C133 C 0.46722 0.82237 0.07484 0.0
C134 C 0.47244 0.81646 0.13497 0.0
C135 C 0.46891 0.79456 0.16304 0.0
C136 C 0.46126 0.71824 0.30462 0.0
C137 C 0.48457 0.71625 0.32304 0.0
C138 C 0.4915 0.70162 0.37373 0.0
C139 C 0.47514 0.68912 0.40718 0.0
C140 C 0.45159 0.69265 0.39107 0.0
C141 C 0.44477 0.70686 0.33999 0.0
C142 C 0.4332 0.70226 0.11592 0.0
C143 C 0.42153 0.68348 0.14136 0.0
C144 C 0.17338 0.45033 0.12688 0.0
C145 C 0.17977 0.4578 0.06895 0.0
C146 C 0.20182 0.4665 0.05947 0.0
C147 C 0.21603 0.46969 0.10707 0.0
H148 H 0.26999 0.52283 0.30032 0.0
H149 H 0.30887 0.52322 0.34025 0.0
H150 H 0.32623 0.45752 0.28542 0.0
H151 H 0.28682 0.45718 0.24538 0.0
H152 H 0.21475 0.52638 0.36292 0.0
H153 H 0.18615 0.53846 0.43359 0.0
H154 H 0.14679 0.48069 0.41245 0.0
H155 H 0.17471 0.46894 0.34106 0.0
H156 H 0.1813 0.44866 0.21801 0.0
H157 H 0.15658 0.44376 0.13666 0.0
H158 H 0.20759 0.47196 0.01544 0.0
H159 H 0.23206 0.47802 0.09868 0.0
N160 N 0.2421 0.47697 0.21727 0.0
N161 N 0.23565 0.49398 0.30347 0.0
N162 N 0.2048 0.47971 0.25708 0.0
C163 C 0.25041 0.48727 0.26218 0.0
C164 C 0.21287 0.49007 0.30131 0.0
C165 C 0.21906 0.47331 0.21465 0.0
C166 C 0.27539 0.4899 0.27025 0.0
C167 C 0.28234 0.5088 0.29506 0.0
C168 C 0.30471 0.50905 0.31768 0.0
C169 C 0.32063 0.49029 0.31654 0.0
C170 C 0.31427 0.47214 0.28738 0.0
C171 C 0.29182 0.47201 0.26399 0.0
C172 C 0.19683 0.4968 0.3465 0.0
C173 C 0.20005 0.51623 0.37379 0.0
C174 C 0.18377 0.52317 0.41385 0.0
C175 C 0.16451 0.51039 0.42807 0.0
C176 C 0.16164 0.49068 0.40205 0.0
C177 C 0.17753 0.48406 0.36118 0.0
C178 C 0.20839 0.46417 0.16477 0.0
C179 C 0.18755 0.45335 0.17397 0.0
C180 C 0.01229 0.22001 0.10936 0.0
C181 C 0.99539 0.21076 0.07673 0.0
C182 C 0.97201 0.21809 0.08225 0.0
C183 C 0.96544 0.23241 0.12369 0.0
H184 H 0.00642 0.30013 0.26755 0.0
H185 H 0.01281 0.33427 0.31428 0.0
H186 H 0.94765 0.32707 0.40403 0.0
H187 H 0.94141 0.29336 0.35818 0.0
H188 H 0.9462 0.23491 0.4236 0.0
H189 H 0.9382 0.20179 0.49331 0.0
H190 H 0.93597 0.16105 0.35126 0.0
H191 H 0.94389 0.19387 0.28152 0.0
H192 H 0.01876 0.23954 0.1797 0.0
H193 H 0.03044 0.21461 0.10617 0.0
H194 H 0.95862 0.21155 0.05713 0.0
H195 H 0.94713 0.23612 0.13054 0.0
N196 N 0.97833 0.26704 0.23477 0.0
N197 N 0.95932 0.25584 0.3235 0.0
N198 N 0.96312 0.23107 0.25285 0.0
C199 C 0.97036 0.27183 0.28811 0.0
C200 C 0.95574 0.23538 0.30628 0.0
C201 C 0.9743 0.24659 0.21694 0.0
C202 C 0.97348 0.29399 0.30939 0.0
C203 C 0.99334 0.30614 0.29648 0.0
C204 C 0.99705 0.32556 0.32349 0.0
C205 C 0.9807 0.3334 0.36281 0.0
C206 C 0.96045 0.32171 0.37351 0.0
C207 C 0.95696 0.30224 0.34749 0.0
C208 C 0.94623 0.21696 0.34707 0.0
C209 C 0.94344 0.21905 0.40698 0.0
C210 C 0.93874 0.20013 0.44693 0.0
C211 C 0.93681 0.17886 0.42758 0.0
C212 C 0.9377 0.17722 0.36729 0.0
C213 C 0.94229 0.19606 0.32743 0.0
C214 C 0.98207 0.23991 0.16024 0.0
C215 C 0.00566 0.23445 0.15105 0.0
C216 C 0.28751 0.0292 0.13117 0.0
C217 C 0.29121 0.05024 0.09785 0.0
C218 C 0.27712 0.06941 0.1089 0.0
C219 C 0.26185 0.06806 0.1563 0.0
H220 H 0.18269 0.04628 0.27273 0.0
H221 H 0.14468 0.03842 0.31595 0.0
H222 H 0.17887 0.00639 0.47549 0.0
H223 H 0.21618 0.01371 0.43267 0.0
H224 H 0.27003 0.01684 0.45222 0.0
H225 H 0.30352 0.01271 0.51762 0.0
H226 H 0.33201 0.07088 0.41656 0.0
H227 H 0.2992 0.07366 0.3485 0.0
H228 H 0.27103 0.01181 0.20554 0.0
H229 H 0.29807 0.01404 0.12523 0.0
H230 H 0.27889 0.08579 0.08336 0.0
H231 H 0.25299 0.08346 0.16759 0.0
N232 N 0.23043 0.04114 0.26971 0.0
N233 N 0.24217 0.03964 0.36834 0.0
N234 N 0.26836 0.04941 0.29372 0.0
C235 C 0.22541 0.03762 0.32806 0.0
C236 C 0.26354 0.04571 0.35152 0.0
C237 C 0.25201 0.0472 0.25273 0.0
C238 C 0.20241 0.0308 0.34943 0.0
C239 C 0.18196 0.03717 0.31656 0.0
C240 C 0.16025 0.03282 0.34142 0.0
C241 C 0.15875 0.02175 0.39915 0.0
C242 C 0.17931 0.01461 0.43068 0.0
C243 C 0.20079 0.01906 0.40621 0.0
C244 C 0.28218 0.04548 0.39531 0.0
C245 C 0.28338 0.02887 0.44451 0.0
C246 C 0.30258 0.02661 0.48221 0.0
C247 C 0.32073 0.04135 0.47244 0.0
C248 C 0.31879 0.05878 0.4247 0.0
C249 C 0.29989 0.06058 0.38599 0.0
C250 C 0.25982 0.04739 0.19208 0.0
C251 C 0.2719 0.02782 0.17746 0.0
C252 C 0.55784 0.36211 0.41906 0.0
C253 C 0.56254 0.35738 0.47957 0.0
C254 C 0.56522 0.33457 0.50512 0.0
C255 C 0.56188 0.31698 0.47157 0.0
H256 H 0.55097 0.25042 0.4871 0.0
H257 H 0.54731 0.21301 0.53989 0.0
H258 H 0.51805 0.19085 0.38533 0.0
H259 H 0.52133 0.22887 0.33181 0.0
H260 H 0.49111 0.30011 0.2451 0.0
H261 H 0.4793 0.32588 0.15654 0.0
H262 H 0.55127 0.33189 0.11051 0.0
H263 H 0.56283 0.30633 0.19877 0.0
H264 H 0.55027 0.34906 0.33949 0.0
H265 H 0.55533 0.37943 0.39791 0.0
H266 H 0.56924 0.33031 0.55143 0.0
H267 H 0.56324 0.29965 0.49305 0.0
N268 N 0.54692 0.2823 0.4038 0.0
N269 N 0.53243 0.27181 0.3159 0.0
N270 N 0.54334 0.30899 0.32011 0.0
C271 C 0.53872 0.26614 0.37361 0.0
C272 C 0.53504 0.29331 0.28911 0.0
C273 C 0.54923 0.30374 0.37745 0.0
C274 C 0.53647 0.24283 0.40481 0.0
C275 C 0.54375 0.23771 0.46384 0.0
C276 C 0.54182 0.21609 0.4943 0.0
C277 C 0.53257 0.19881 0.46685 0.0
C278 C 0.52514 0.20383 0.40789 0.0
C279 C 0.52712 0.22559 0.37714 0.0
C280 C 0.52783 0.30098 0.22798 0.0
C281 C 0.50425 0.30609 0.21438 0.0
C282 C 0.49755 0.3211 0.16424 0.0
C283 C 0.51436 0.33113 0.12681 0.0
C284 C 0.53786 0.32434 0.13799 0.0
C285 C 0.54452 0.30959 0.18835 0.0
C286 C 0.55595 0.32185 0.41169 0.0
C287 C 0.55471 0.34459 0.38552 0.0
Co288 Co 0.00948 0.02068 0.79402 0.0
C289 C 0.97016 0.00562 0.85199 0.0
Co290 Co 0.98992 0.99768 0.74621 0.0
C291 C 0.01569 0.06063 0.85045 0.0
C292 C 0.04736 0.0401 0.8492 0.0
N293 N 0.02485 0.04122 0.83267 0.0
N294 N 0.03153 0.07163 0.87748 0.0
C295 C 0.05148 0.05869 0.87703 0.0
H296 H 0.9976 0.06641 0.84455 0.0
H297 H 0.05997 0.02664 0.84149 0.0
C298 C 0.02925 0.01263 0.68826 0.0
N299 N 0.97452 0.97717 0.70777 0.0
C300 C 0.98404 0.95934 0.68332 0.0
C301 C 0.95145 0.9761 0.70074 0.0
N302 N 0.96786 0.94707 0.66164 0.0
C303 C 0.94731 0.95761 0.67258 0.0
C304 C 0.97559 0.04241 0.71551 0.0
O305 O 0.0316 0.02312 0.73264 0.0
O306 O 0.01212 1.00036 0.68561 0.0
O307 O 0.97175 0.02247 0.70516 0.0
O308 O 0.99117 0.04502 0.75278 0.0
O309 O 0.96784 0.99533 0.80732 0.0
H310 H 0.93848 0.98785 0.71577 0.0
H311 H 0.00252 0.95511 0.68286 0.0
O312 O 0.98728 0.01788 0.85507 0.0
O313 O 0.02765 0.99596 0.83464 0.0
O314 O 0.00822 0.97316 0.78778 0.0
C315 C 0.02385 0.97598 0.82478 0.0
H316 H 0.06793 0.06253 0.89488 0.0
H317 H 0.93047 0.95242 0.66081 0.0
Co318 Co 0.49531 0.02092 0.81229 0.0
C319 C 0.49382 0.97366 0.83637 0.0
Co320 Co 0.51202 1.00189 0.74552 0.0
C321 C 0.45566 0.03578 0.87546 0.0
C322 C 0.48654 0.0487 0.90634 0.0
N323 N 0.47875 0.03604 0.86649 0.0
N324 N 0.44878 0.04768 0.91893 0.0
C325 C 0.46811 0.05573 0.93909 0.0
H326 H 0.44405 0.0265 0.85177 0.0
H327 H 0.50445 0.05244 0.91171 0.0
C328 C 0.51338 0.04913 0.72113 0.0
N329 N 0.52856 0.98676 0.69166 0.0
C330 C 0.55132 0.98841 0.68015 0.0
C331 C 0.52149 0.97173 0.65709 0.0
N332 N 0.5588 0.97494 0.64049 0.0
C333 C 0.54009 0.96454 0.62512 0.0
C334 C 0.4668 0.01323 0.7183 0.0
O335 O 0.50321 0.04909 0.77022 0.0
O336 O 0.51892 0.03027 0.70272 0.0
O337 O 0.48441 0.00232 0.70066 0.0
O338 O 0.46823 0.0223 0.76506 0.0
O339 O 0.50496 0.97374 0.78868 0.0
H340 H 0.50403 0.96618 0.65565 0.0
H341 H 0.56231 0.99946 0.70004 0.0
O342 O 0.48749 0.99252 0.85385 0.0
O343 O 0.52288 0.0195 0.85856 0.0
O344 O 0.53935 1.00152 0.79089 0.0
C345 C 0.54082 0.00977 0.83882 0.0
H346 H 0.4688 0.06599 0.97461 0.0
H347 H 0.54003 0.9523 0.59409 0.0
Co348 Co 0.51418 0.51482 0.78582 0.0
C349 C 0.49618 0.47622 0.84594 0.0
Co350 Co 0.47991 0.50764 0.75266 0.0
C351 C 0.54893 0.52102 0.87151 0.0
C352 C 0.56145 0.52709 0.78367 0.0
N353 N 0.54258 0.52116 0.81487 0.0
N354 N 0.57107 0.52658 0.877 0.0
C355 C 0.57899 0.53042 0.8217 0.0
H356 H 0.53757 0.51661 0.908 0.0
H357 H 0.56235 0.52894 0.7363 0.0
C358 C 0.49784 0.54617 0.69237 0.0
N359 N 0.45157 0.50132 0.72318 0.0
C360 C 0.44584 0.50084 0.66637 0.0
C361 C 0.43228 0.49601 0.75335 0.0
N362 N 0.42371 0.49547 0.65975 0.0
C363 C 0.4151 0.49245 0.71448 0.0
C364 C 0.47716 0.53617 0.83821 0.0
O365 O 0.51487 0.54081 0.72768 0.0
O366 O 0.48069 0.53369 0.69542 0.0
O367 O 0.46485 0.52596 0.80522 0.0
O368 O 0.4991 0.53325 0.83685 0.0
O369 O 0.47934 0.4815 0.81001 0.0
H370 H 0.43085 0.49472 0.80057 0.0
H371 H 0.45764 0.50468 0.63049 0.0
O372 O 0.5132 0.48888 0.84374 0.0
O373 O 0.5292 0.49624 0.73434 0.0
O374 O 0.49511 0.48958 0.70059 0.0
C375 C 0.51704 0.4865 0.70008 0.0
H376 H 0.59613 0.53555 0.80943 0.0
H377 H 0.39773 0.48771 0.72573 0.0
Co378 Co 0.00147 0.52811 0.77895 0.0
C379 C 0.03543 0.49686 0.82679 0.0
Co380 Co 0.99874 0.49443 0.74844 0.0
C381 C 0.00471 0.56262 0.85753 0.0
C382 C -8e-05 0.57666 0.76744 0.0
N383 N 0.00262 0.55677 0.80281 0.0
N384 N 0.00314 0.5854 0.85757 0.0
C385 C 0.00017 0.59423 0.80085 0.0
H386 H 0.00669 0.55041 0.89668 0.0
H387 H 0.99754 0.57829 0.72034 0.0
C388 C 0.96479 0.52562 0.70014 0.0
N389 N 0.99748 0.46578 0.72447 0.0
C390 C 0.99532 0.4599 0.66979 0.0
C391 C 0.99929 0.44592 0.76009 0.0
N392 N 0.99565 0.43711 0.67 0.0
C393 C 0.99818 0.42836 0.72695 0.0
C394 C 0.97308 0.50019 0.84755 0.0
O395 O 0.97518 0.53869 0.7298 0.0
O396 O 0.9725 0.5051 0.70155 0.0
O397 O 0.97864 0.48604 0.81217 0.0
O398 O 0.98138 0.5196 0.84094 0.0
O399 O 0.02542 0.48403 0.79572 0.0
H400 H 0.00156 0.44431 0.80722 0.0
H401 H 0.99341 0.47215 0.63072 0.0
O402 O 0.02737 0.51718 0.82746 0.0
O403 O 0.02196 0.53628 0.71646 0.0
O404 O 0.01844 0.50322 0.68546 0.0
C405 C 0.02722 0.52243 0.68015 0.0
H406 H 0.99842 0.61215 0.7846 0.0
H407 H 0.99962 0.41048 0.74363 0.0
C408 C 0.11934 0.03718 0.42574 0.0
C409 C 0.13614 0.019 0.42916 0.0
C410 C 0.09993 0.03624 0.46248 0.0
C411 C 0.09745 0.01678 0.50388 0.0
C412 C 0.11357 0.99785 0.50487 0.0
C413 C 0.13259 0.99913 0.46718 0.0
C414 C 0.08284 0.05659 0.45934 0.0
C415 C 0.11157 0.97677 0.54829 0.0
C416 C 0.06761 0.02384 0.6479 0.0
C417 C 0.04629 0.0145 0.6402 0.0
C418 C 0.08424 0.02497 0.60345 0.0
C419 C 0.07931 0.01687 0.54967 0.0
C420 C 0.0576 0.00794 0.54107 0.0
C421 C 0.04141 0.0067 0.58661 0.0
C422 C 0.10732 0.03437 0.6146 0.0
C423 C 0.05159 0.99945 0.48407 0.0
H424 H 0.12199 0.05263 0.39673 0.0
H425 H 0.14528 0.98485 0.46919 0.0
H426 H 0.06479 0.05124 0.45876 0.0
H427 H 0.08488 0.06523 0.49891 0.0
H428 H 0.08543 0.06903 0.4199 0.0
H429 H 0.12449 0.96292 0.54037 0.0
H430 H 0.11426 0.98091 0.59347 0.0
H431 H 0.09396 0.97045 0.54623 0.0
H432 H 0.07151 0.02986 0.68919 0.0
H433 H 0.02489 0.99961 0.58017 0.0
H434 H 0.11051 0.04875 0.58046 0.0
H435 H 0.12149 0.02111 0.61186 0.0
H436 H 0.10826 0.04036 0.65835 0.0
H437 H 0.05397 0.01284 0.44667 0.0
H438 H 0.03346 0.99426 0.4831 0.0
H439 H 0.06346 0.98467 0.47732 0.0
C440 C 0.54857 0.16612 0.5387 0.0
C441 C 0.5306 0.17584 0.50047 0.0
C442 C 0.54644 0.14528 0.57397 0.0
C443 C 0.52586 0.13372 0.57095 0.0
C444 C 0.50787 0.14312 0.53143 0.0
C445 C 0.51046 0.16405 0.49667 0.0
C446 C 0.56609 0.13581 0.61519 0.0
C447 C 0.48568 0.13129 0.52677 0.0
C448 C 0.52749 0.07068 0.62836 0.0
C449 C 0.5175 0.07083 0.68395 0.0
C450 C 0.53032 0.09098 0.59119 0.0
C451 C 0.52303 0.112 0.60996 0.0
C452 C 0.51318 0.1123 0.66626 0.0
C453 C 0.51052 0.09174 0.70252 0.0
C454 C 0.54091 0.0899 0.53157 0.0
C455 C 0.50529 0.13436 0.68806 0.0
H456 H 0.56437 0.1749 0.54122 0.0
H457 H 0.49641 0.1715 0.46772 0.0
H458 H 0.55999 0.13427 0.66117 0.0
H459 H 0.57198 0.11853 0.60608 0.0
H460 H 0.58115 0.14664 0.61137 0.0
H461 H 0.47371 0.14039 0.49247 0.0
H462 H 0.48962 0.11376 0.51647 0.0
H463 H 0.47666 0.12993 0.56949 0.0
H464 H 0.53291 0.05464 0.61345 0.0
H465 H 0.50274 0.09206 0.74527 0.0
H466 H 0.55658 0.09984 0.52724 0.0
H467 H 0.52845 0.09764 0.49677 0.0
H468 H 0.54585 0.07222 0.52368 0.0
H469 H 0.52004 0.14545 0.68824 0.0
H470 H 0.49811 0.13172 0.73303 0.0
H471 H 0.49179 0.14355 0.65803 0.0
C472 C 0.34751 0.46871 0.39227 0.0
C473 C 0.342 0.48854 0.35354 0.0
C474 C 0.36391 0.46846 0.4376 0.0
C475 C 0.375 0.48855 0.44443 0.0
C476 C 0.37104 0.50798 0.40236 0.0
C477 C 0.35461 0.50773 0.35733 0.0
C478 C 0.36782 0.4473 0.48113 0.0
C479 C 0.38267 0.52968 0.40767 0.0
C480 C 0.38771 0.49876 0.60064 0.0
C481 C 0.41169 0.49367 0.6056 0.0
C482 C 0.37569 0.49719 0.54837 0.0
C483 C 0.38791 0.49025 0.49972 0.0
C484 C 0.41213 0.48504 0.50434 0.0
C485 C 0.42376 0.48688 0.55723 0.0
C486 C 0.34986 0.50305 0.5452 0.0
C487 C 0.42571 0.47742 0.45363 0.0
H488 H 0.33777 0.45384 0.39002 0.0
H489 H 0.3507 0.52299 0.32695 0.0
H490 H 0.38657 0.44369 0.49132 0.0
H491 H 0.35899 0.4499 0.52276 0.0
H492 H 0.36091 0.43224 0.4647 0.0
H493 H 0.38041 0.54204 0.36722 0.0
H494 H 0.37507 0.53766 0.44489 0.0
H495 H 0.40148 0.52614 0.41703 0.0
H496 H 0.37837 0.50433 0.63749 0.0
H497 H 0.44225 0.48265 0.56103 0.0
H498 H 0.34061 0.48821 0.53493 0.0
H499 H 0.3458 0.5171 0.50935 0.0
H500 H 0.34298 0.50824 0.58687 0.0
H501 H 0.41877 0.46173 0.441 0.0
H502 H 0.44447 0.47404 0.46429 0.0
H503 H 0.42373 0.49057 0.41483 0.0
C504 C 0.00624 0.35332 0.42584 0.0
C505 C 0.98506 0.35265 0.39621 0.0
C506 C 0.00915 0.36908 0.46563 0.0
C507 C 0.99049 0.38464 0.47581 0.0
C508 C 0.96962 0.38501 0.44307 0.0
C509 C 0.96714 0.36899 0.40389 0.0
C510 C 0.03168 0.36806 0.49958 0.0
C511 C 0.94938 0.40144 0.45191 0.0
C512 C 0.98553 0.40262 0.62847 0.0
C513 C 0.99391 0.42444 0.62055 0.0
C514 C 0.98443 0.38961 0.58184 0.0
C515 C 0.99176 0.39859 0.52532 0.0
C516 C -1e-05 0.42071 0.51662 0.0
C517 C 0.00097 0.43337 0.5643 0.0
C518 C 0.97542 0.36616 0.59322 0.0
C519 C 0.0079 0.43092 0.45706 0.0
H520 H 0.02011 0.34067 0.42049 0.0
H521 H 0.95084 0.36877 0.38054 0.0
H522 H 0.03805 0.3853 0.49893 0.0
H523 H 0.02879 0.36134 0.54611 0.0
H524 H 0.04536 0.35698 0.48179 0.0
H525 H 0.93551 0.40143 0.41829 0.0
H526 H 0.94187 0.39677 0.49585 0.0
H527 H 0.95519 0.41893 0.45043 0.0
H528 H 0.9796 0.39569 0.67128 0.0
H529 H 0.00767 0.45009 0.55772 0.0
H530 H 0.98877 0.35335 0.58147 0.0
H531 H 0.95992 0.36517 0.56523 0.0
H532 H 0.97064 0.36156 0.63981 0.0
H533 H 0.02253 0.4202 0.44224 0.0
H534 H 0.01355 0.44842 0.45728 0.0
H535 H 0.99363 0.43138 0.42439 0.0
C536 C 0.87186 0.00384 0.09685 0.0
C537 C 0.87018 0.98171 0.12517 0.0
C538 C 0.88924 0.00886 0.05554 0.0
C539 C 0.90551 0.99139 0.04308 0.0
C540 C 0.90469 0.96932 0.07423 0.0
C541 C 0.88686 0.96468 0.11448 0.0
C542 C 0.8893 0.03251 0.02268 0.0
C543 C 0.92202 0.95036 0.06311 0.0
C544 C 0.93159 0.99478 0.8911 0.0
C545 C 0.95343 0.00278 0.90054 0.0
C546 C 0.91573 0.99139 0.93697 0.0
C547 C 0.92204 0.99567 0.99397 0.0
C548 C 0.94407 0.00375 0.00382 0.0
C549 C 0.95944 0.00743 0.95681 0.0
C550 C 0.89224 0.98313 0.92442 0.0
C551 C 0.95155 0.00811 0.06417 0.0
H552 H 0.85877 0.01694 0.10457 0.0
H553 H 0.88557 0.94759 0.13658 0.0
H554 H 0.90684 0.03904 0.02393 0.0
H555 H 0.88474 0.03206 0.97591 0.0
H556 H 0.87674 0.04458 0.04091 0.0
H557 H 0.92061 0.93496 0.09547 0.0
H558 H 0.91912 0.94572 0.01853 0.0
H559 H 0.93995 0.95597 0.0648 0.0
H560 H 0.92682 0.99128 0.84763 0.0
H561 H 0.97638 0.01346 0.96442 0.0
H562 H 0.87834 0.99506 0.93775 0.0
H563 H 0.89014 0.96637 0.95049 0.0
H564 H 0.88972 0.98144 0.87726 0.0
H565 H 0.93913 0.02064 0.08099 0.0
H566 H 0.96918 0.01458 0.0644 0.0
H567 H 0.95145 0.99219 0.09509 0.0
C568 C 0.49037 0.85697 0.05365 0.0
C569 C 0.47034 0.84565 0.04434 0.0
C570 C 0.49409 0.87824 0.02182 0.0
C571 C 0.47736 0.88848 0.97975 0.0
C572 C 0.45684 0.87742 0.97135 0.0
C573 C 0.45357 0.85621 0.00371 0.0
C574 C 0.51619 0.88951 0.03214 0.0
C575 C 0.43849 0.88778 0.92729 0.0
C576 C 0.47777 0.95179 0.92642 0.0
C577 C 0.48911 0.95188 0.87244 0.0
C578 C 0.47394 0.93133 0.96193 0.0
C579 C 0.4816 0.9104 0.9431 0.0
C580 C 0.49296 0.91038 0.88858 0.0
C581 C 0.49658 0.93108 0.85398 0.0
C582 C 0.46173 0.9321 0.01968 0.0
C583 C 0.50132 0.88845 0.86677 0.0
H584 H 0.50348 0.84888 0.08459 0.0
H585 H 0.43785 0.84779 0.99698 0.0
H586 H 0.52658 0.89105 0.99147 0.0
H587 H 0.5121 0.90694 0.04298 0.0
H588 H 0.52695 0.87987 0.06822 0.0
H589 H 0.42317 0.87737 0.92739 0.0
H590 H 0.43263 0.90502 0.93675 0.0
H591 H 0.44588 0.88962 0.88256 0.0
H592 H 0.47198 0.96775 0.94122 0.0
H593 H 0.50539 0.93094 0.81245 0.0
H594 H 0.47304 0.92364 0.05617 0.0
H595 H 0.44574 0.92267 0.02014 0.0
H596 H 0.45695 0.94974 0.02818 0.0
H597 H 0.51368 0.87869 0.89899 0.0
H598 H 0.51 0.89133 0.82364 0.0
H599 H 0.48647 0.87779 0.86241 0.0
C600 C 0.64994 0.55294 0.13959 0.0
C601 C 0.65719 0.53292 0.17572 0.0
C602 C 0.63282 0.55289 0.0961 0.0
C603 C 0.62274 0.53233 0.08868 0.0
C604 C 0.62851 0.51256 0.12844 0.0
C605 C 0.64569 0.51309 0.1715 0.0
C606 C 0.62707 0.57438 0.05487 0.0
C607 C 0.61795 0.49037 0.12254 0.0
C608 C 0.57228 0.53326 0.98109 0.0
C609 C 0.58379 0.52785 0.93051 0.0
C610 C 0.58463 0.53474 0.03316 0.0
C611 C 0.60904 0.5307 0.03459 0.0
C612 C 0.62069 0.52511 0.98378 0.0
C613 C 0.60794 0.52375 0.9325 0.0
C614 C 0.57164 0.5408 0.08641 0.0
C615 C 0.64671 0.52056 0.98348 0.0
H616 H 0.65885 0.56829 0.14225 0.0
H617 H 0.65101 0.49765 0.1999 0.0
H618 H 0.63517 0.57284 0.01173 0.0
H619 H 0.60808 0.5771 0.04741 0.0
H620 H 0.63353 0.58953 0.07181 0.0
H621 H 0.62151 0.47763 0.16178 0.0
H622 H 0.59892 0.49298 0.11561 0.0
H623 H 0.62529 0.48333 0.08363 0.0
H624 H 0.55365 0.53671 0.97971 0.0
H625 H 0.61691 0.51919 0.89402 0.0
H626 H 0.57769 0.55683 0.0992 0.0
H627 H 0.57525 0.52741 0.12411 0.0
H628 H 0.5526 0.54293 0.07852 0.0
H629 H 0.65539 0.53565 0.99428 0.0
H630 H 0.6531 0.5164 0.94035 0.0
H631 H 0.65201 0.50621 0.01755 0.0
C632 C 0.00436 0.65634 0.134 0.0
C633 C 0.02094 0.67257 0.1219 0.0
C634 C 0.00044 0.64045 0.09507 0.0
C635 C 0.01352 0.64064 0.04297 0.0
C636 C 0.0305 0.65672 0.03101 0.0
C637 C 0.03383 0.67253 0.07013 0.0
C638 C 0.98204 0.6237 0.10915 0.0
C639 C 0.04488 0.65756 0.97608 0.0
C640 C 0.01877 0.59033 0.95531 0.0
C641 C 0.00412 0.598 0.90712 0.0
C642 C 0.02139 0.60361 0.00114 0.0
C643 C 0.00884 0.62494 0.99905 0.0
C644 C 0.9932 0.63221 0.95184 0.0
C645 C 0.99115 0.61874 0.90642 0.0
C646 C 0.03839 0.59531 0.05035 0.0
C647 C 0.97922 0.65464 0.94813 0.0
H648 H 0.99443 0.65601 0.17397 0.0
H649 H 0.04627 0.68527 0.05921 0.0
H650 H 0.96831 0.62648 0.07464 0.0
H651 H 0.98964 0.60611 0.10944 0.0
H652 H 0.97389 0.62521 0.1523 0.0
H653 H 0.05833 0.67017 0.97496 0.0
H654 H 0.05357 0.64063 0.9728 0.0
H655 H 0.03349 0.66204 0.93684 0.0
H656 H 0.02891 0.57437 0.95593 0.0
H657 H 0.97947 0.62454 0.86987 0.0
H658 H 0.0301 0.59627 0.09348 0.0
H659 H 0.0532 0.60642 0.04783 0.0
H660 H 0.04523 0.57757 0.04844 0.0
H661 H 0.96991 0.65604 0.98978 0.0
H662 H 0.96636 0.6569 0.91147 0.0
H663 H 0.99101 0.66876 0.94155 0.0
C664 C 0.92244 0.15609 0.51846 0.0
C665 C 0.93728 0.15799 0.47023 0.0
C666 C 0.92442 0.13692 0.56122 0.0
C667 C 0.94206 0.1197 0.55612 0.0
C668 C 0.95674 0.1214 0.50677 0.0
C669 C 0.95404 0.14043 0.46428 0.0
C670 C 0.90816 0.13539 0.61259 0.0
C671 C 0.97606 0.10364 0.50014 0.0
C672 C 0.97107 0.08426 0.68718 0.0
C673 C 0.96379 0.0626 0.68115 0.0
C674 C 0.9629 0.10334 0.64899 0.0
C675 C 0.94678 0.10077 0.60418 0.0
C676 C 0.93792 0.0793 0.60086 0.0
C677 C 0.94668 0.06037 0.63916 0.0
C678 C 0.97297 0.12588 0.65383 0.0
C679 C 0.92027 0.07605 0.55457 0.0
H680 H 0.90944 0.16967 0.52289 0.0
H681 H 0.96577 0.14206 0.42746 0.0
H682 H 0.90091 0.11842 0.61959 0.0
H683 H 0.91781 0.13753 0.65313 0.0
H684 H 0.89361 0.1486 0.60624 0.0
H685 H 0.98544 0.10717 0.45816 0.0
H686 H 0.98872 0.10293 0.53688 0.0
H687 H 0.96904 0.08663 0.50214 0.0
H688 H 0.98412 0.08621 0.7199 0.0
H689 H 0.94075 0.04374 0.63476 0.0
H690 H 0.95902 0.13958 0.65257 0.0
H691 H 0.98439 0.13027 0.61585 0.0
H692 H 0.98333 0.12556 0.6948 0.0
H693 H 0.9122 0.05952 0.56416 0.0
H694 H 0.92883 0.07659 0.51132 0.0
H695 H 0.90642 0.08993 0.55088 0.0
C696 C 0.36383 0.04224 0.4858 0.0
C697 C 0.34203 0.0378 0.51007 0.0
C698 C 0.38411 0.0384 0.52012 0.0
C699 C 0.38273 0.02907 0.57967 0.0
C700 C 0.36093 0.02433 0.60451 0.0
C701 C 0.34081 0.02916 0.56974 0.0
C702 C 0.40703 0.0443 0.4926 0.0
C703 C 0.35887 0.01397 0.66768 0.0
C704 C 0.43828 1.00037 0.64975 0.0
C705 C 0.44522 0.01679 0.68346 0.0
C706 C 0.41758 0.00388 0.61681 0.0
C707 C 0.40412 0.02463 0.61618 0.0
C708 C 0.41128 0.04136 0.64967 0.0
C709 C 0.43158 0.03707 0.68371 0.0
C710 C 0.41003 0.98539 0.58302 0.0
C711 C 0.3978 0.06398 0.64864 0.0
H712 H 0.36519 0.04842 0.4396 0.0
H713 H 0.32413 0.02609 0.58951 0.0
H714 H 0.41578 0.05593 0.51841 0.0
H715 H 0.41864 0.02874 0.49313 0.0
H716 H 0.40496 0.05254 0.44654 0.0
H717 H 0.34075 0.01021 0.67941 0.0
H718 H 0.36998 0.99798 0.67589 0.0
H719 H 0.3651 0.02567 0.69737 0.0
H720 H 0.44882 0.98464 0.65 0.0
H721 H 0.43712 0.04987 0.70944 0.0
H722 H 0.40945 0.99153 0.53536 0.0
H723 H 0.39225 0.98087 0.59598 0.0
H724 H 0.42185 0.96983 0.59054 0.0
H725 H 0.39641 0.07269 0.60296 0.0
H726 H 0.40603 0.0753 0.67642 0.0
H727 H 0.37991 0.06142 0.66429 0.0
C728 C 0.55069 0.37409 0.57029 0.0
C729 C 0.56211 0.37625 0.51628 0.0
C730 C 0.54667 0.3928 0.60104 0.0
C731 C 0.55397 0.41425 0.57685 0.0
C732 C 0.56672 0.41629 0.52421 0.0
C733 C 0.57078 0.39721 0.49474 0.0
C734 C 0.53328 0.38987 0.65758 0.0
C735 C 0.57481 0.43889 0.49712 0.0
C736 C 0.51519 0.46315 0.61793 0.0
C737 C 0.52793 0.47021 0.66356 0.0
C738 C 0.52404 0.44566 0.58743 0.0
C739 C 0.54603 0.43478 0.6035 0.0
C740 C 0.55942 0.44248 0.64785 0.0
C741 C 0.55024 0.46025 0.67719 0.0
C742 C 0.50937 0.43819 0.53971 0.0
C743 C 0.58285 0.43117 0.66645 0.0
H744 H 0.54369 0.35809 0.58713 0.0
H745 H 0.58005 0.39892 0.45365 0.0
H746 H 0.54213 0.39774 0.69209 0.0
H747 H 0.51578 0.39859 0.65048 0.0
H748 H 0.53121 0.37171 0.67389 0.0
H749 H 0.58685 0.43712 0.46017 0.0
H750 H 0.55958 0.45015 0.48033 0.0
H751 H 0.58362 0.4474 0.53045 0.0
H752 H 0.49802 0.47095 0.60691 0.0
H753 H 0.56012 0.46561 0.71261 0.0
H754 H 0.50396 0.42076 0.55368 0.0
H755 H 0.51958 0.43767 0.49906 0.0
H756 H 0.49355 0.4496 0.52933 0.0
H757 H 0.58059 0.41384 0.68908 0.0
H758 H 0.59214 0.44077 0.6967 0.0
H759 H 0.59382 0.42937 0.62763 0.0
C760 C 0.1318 0.5368 0.45087 0.0
C761 C 0.14669 0.51767 0.46835 0.0
C762 C 0.11212 0.54154 0.48386 0.0
C763 C 0.10762 0.52692 0.53561 0.0
C764 C 0.12354 0.50842 0.55523 0.0
C765 C 0.14279 0.50386 0.52086 0.0
C766 C 0.09542 0.56125 0.46131 0.0
C767 C 0.11958 0.4927 0.61082 0.0
C768 C 0.0632 0.54127 0.64808 0.0
C769 C 0.04558 0.52717 0.63685 0.0
C770 C 0.08317 0.54234 0.61354 0.0
C771 C 0.08523 0.52931 0.56626 0.0
C772 C 0.06667 0.51643 0.55212 0.0
C773 C 0.04714 0.51533 0.588 0.0
C774 C 0.10271 0.55604 0.63036 0.0
C775 C 0.06801 0.50266 0.50126 0.0
H776 H 0.13486 0.54727 0.40975 0.0
H777 H 0.15442 0.48906 0.53394 0.0
H778 H 0.07934 0.55469 0.44515 0.0
H779 H 0.09042 0.57139 0.49705 0.0
H780 H 0.10284 0.57258 0.42482 0.0
H781 H 0.1157 0.5026 0.64775 0.0
H782 H 0.10436 0.48269 0.60474 0.0
H783 H 0.13481 0.4807 0.62315 0.0
H784 H 0.06209 0.55033 0.68611 0.0
H785 H 0.03343 0.50455 0.57904 0.0
H786 H 0.09716 0.56769 0.66248 0.0
H787 H 0.10965 0.56615 0.5911 0.0
H788 H 0.11711 0.54435 0.65032 0.0
H789 H 0.07365 0.51317 0.46103 0.0
H790 H 0.05112 0.49577 0.49207 0.0
H791 H 0.08109 0.48822 0.51127 0.0
C792 C 0.08266 0.86395 0.01749 0.0
C793 C 0.06997 0.86225 0.06959 0.0
C794 C 0.07906 0.88293 0.97456 0.0
C795 C 0.06204 0.90025 0.98368 0.0
C796 C 0.0498 0.89893 0.0371 0.0
C797 C 0.05401 0.88003 0.07945 0.0
C798 C 0.09277 0.88402 0.91863 0.0
C799 C 0.03126 0.91687 0.04829 0.0
C800 C 0.05486 0.95872 0.89614 0.0
C801 C 0.03609 0.95606 0.85925 0.0
C802 C 0.06472 0.94023 0.93416 0.0
C803 C 0.05529 0.91876 0.93592 0.0
C804 C 0.03717 0.91575 0.89654 0.0
C805 C 0.02792 0.9344 0.85836 0.0
C806 C 0.08438 0.94396 0.97459 0.0
C807 C 0.02644 0.89319 0.89741 0.0
H808 H 0.09507 0.85025 0.00991 0.0
H809 H 0.04386 0.87861 0.11919 0.0
H810 H 0.08126 0.88134 0.88173 0.0
H811 H 0.0997 0.90102 0.90787 0.0
H812 H 0.10744 0.87093 0.92168 0.0
H813 H 0.02418 0.91387 0.0933 0.0
H814 H 0.03831 0.93391 0.04199 0.0
H815 H 0.01678 0.91709 0.01631 0.0
H816 H 0.06145 0.97537 0.89652 0.0
H817 H 0.01349 0.93218 0.82978 0.0
H818 H 0.09818 0.93012 0.97516 0.0
H819 H 0.07788 0.94371 0.02001 0.0
H820 H 0.0921 0.96048 0.96152 0.0
H821 H 0.04006 0.87941 0.89487 0.0
H822 H 0.01389 0.89317 0.86067 0.0
H823 H 0.01721 0.88918 0.93938 0.0
C824 C 0.66428 0.9994 0.00553 0.0
C825 C 0.66674 0.97802 0.03929 0.0
C826 C 0.64424 0.00602 0.97149 0.0
C827 C 0.62637 0.99082 0.97107 0.0
C828 C 0.629 0.96901 0.00398 0.0
C829 C 0.64915 0.96289 0.03787 0.0
C830 C 0.64202 0.02939 0.93677 0.0
C831 C 0.61042 0.95222 0.00389 0.0
C832 C 0.5646 0.01237 0.9289 0.0
C833 C 0.56307 0.00689 0.87156 0.0
C834 C 0.58536 0.00777 0.96145 0.0
C835 C 0.60493 0.99756 0.93582 0.0
C836 C 0.6037 0.99279 0.87727 0.0
C837 C 0.58279 0.99745 0.84594 0.0
C838 C 0.58615 0.01322 0.02377 0.0
C839 C 0.62418 0.98198 0.84823 0.0
H840 H 0.67773 0.01124 0.00723 0.0
H841 H 0.65112 0.94629 0.06365 0.0
H842 H 0.63913 0.02803 0.88962 0.0
H843 H 0.62674 0.03918 0.95184 0.0
H844 H 0.65766 0.03905 0.94117 0.0
H845 H 0.61526 0.93588 0.03147 0.0
H846 H 0.59396 0.9595 0.02043 0.0
H847 H 0.60705 0.94876 0.95841 0.0
H848 H 0.54945 0.01969 0.94888 0.0
H849 H 0.58182 0.99326 0.80151 0.0
H850 H 0.60094 0.02378 0.02983 0.0
H851 H 0.58894 0.99729 0.05442 0.0
H852 H 0.56991 0.02237 0.036 0.0
H853 H 0.62124 0.9821 0.80042 0.0
H854 H 0.6274 0.96412 0.86858 0.0
H855 H 0.6401 0.99092 0.85471 0.0
C856 C 0.43138 0.62335 0.05473 0.0
C857 C 0.42657 0.64481 0.0223 0.0
C858 C 0.43583 0.60398 0.02668 0.0
C859 C 0.43604 0.60617 0.96469 0.0
C860 C 0.42966 0.62741 0.9317 0.0
C861 C 0.42472 0.64641 0.96094 0.0
C862 C 0.44205 0.58152 0.06346 0.0
C863 C 0.42982 0.63048 0.86546 0.0
C864 C 0.48034 0.56827 0.8966 0.0
C865 C 0.46644 0.55285 0.87402 0.0
C866 C 0.47058 0.58558 0.92628 0.0
C867 C 0.44631 0.5873 0.93471 0.0
C868 C 0.4322 0.57136 0.91375 0.0
C869 C 0.44242 0.55442 0.88302 0.0
C870 C 0.48625 0.60237 0.9474 0.0
C871 C 0.40634 0.57238 0.92324 0.0
H872 H 0.43309 0.62176 0.10205 0.0
H873 H 0.4204 0.66275 0.93546 0.0
H874 H 0.43347 0.56758 0.04594 0.0
H875 H 0.46106 0.57765 0.06199 0.0
H876 H 0.43706 0.58172 0.11004 0.0
H877 H 0.42184 0.64728 0.84641 0.0
H878 H 0.44799 0.62903 0.85019 0.0
H879 H 0.42043 0.617 0.84814 0.0
H880 H 0.4989 0.56727 0.88959 0.0
H881 H 0.43161 0.54249 0.86581 0.0
H882 H 0.48479 0.60209 0.99559 0.0
H883 H 0.48082 0.61982 0.92692 0.0
H884 H 0.50474 0.59874 0.93684 0.0
H885 H 0.40259 0.57238 0.97056 0.0
H886 H 0.39803 0.55789 0.90749 0.0
H887 H 0.39827 0.5884 0.89976 0.0
C888 C 0.86087 0.524 0.01398 0.0
C889 C 0.8557 0.50949 0.06437 0.0
C890 C 0.87972 0.51871 0.97902 0.0
C891 C 0.89401 0.49871 0.99593 0.0
C892 C 0.88833 0.4836 0.0458 0.0
C893 C 0.86903 0.48911 0.0793 0.0
C894 C 0.88492 0.53504 0.92544 0.0
C895 C 0.90335 0.46234 0.06561 0.0
C896 C 0.9361 0.48326 0.87923 0.0
C897 C 0.95504 0.49554 0.89167 0.0
C898 C 0.91637 0.48304 0.91474 0.0
C899 C 0.91596 0.49497 0.96424 0.0
C900 C 0.93587 0.50577 0.97954 0.0
C901 C 0.95508 0.50617 0.94258 0.0
C902 C 0.89537 0.47162 0.89655 0.0
C903 C 0.93632 0.51824 0.03276 0.0
H904 H 0.85039 0.53971 0.00265 0.0
H905 H 0.86498 0.47805 0.11871 0.0
H906 H 0.90123 0.54325 0.93278 0.0
H907 H 0.88751 0.52581 0.88674 0.0
H908 H 0.87083 0.54853 0.91512 0.0
H909 H 0.89521 0.45121 0.10129 0.0
H910 H 0.90698 0.45256 0.02835 0.0
H911 H 0.92027 0.46705 0.08189 0.0
H912 H 0.93601 0.47521 0.8395 0.0
H913 H 0.96982 0.51556 0.9523 0.0
H914 H 0.88191 0.48477 0.87837 0.0
H915 H 0.88777 0.4615 0.93486 0.0
H916 H 0.89958 0.46034 0.86258 0.0
H917 H 0.92475 0.53393 0.02497 0.0
H918 H 0.95404 0.52307 0.04278 0.0
H919 H 0.9298 0.50762 0.07176 0.0
C920 C 0.9888 0.1719 0.05245 0.0
C921 C 0.00148 0.1914 0.04331 0.0
C922 C 0.99442 0.15294 0.02353 0.0
C923 C 0.01308 0.15347 0.98375 0.0
C924 C 0.02589 0.17317 0.97386 0.0
C925 C 0.02009 0.19184 0.00424 0.0
C926 C 0.98055 0.1322 0.03631 0.0
C927 C 0.04569 0.17452 0.9312 0.0
C928 C 0.0396 0.09595 0.95372 0.0
C929 C 0.02778 0.09262 0.90239 0.0
C930 C 0.0354 0.11588 0.9799 0.0
C931 C 0.01926 0.13314 0.9536 0.0
C932 C 0.00782 0.13016 0.90071 0.0
C933 C 0.01206 0.10986 0.87608 0.0
C934 C 0.04765 0.11813 0.03683 0.0
C935 C 0.99078 0.14823 0.87067 0.0
H936 H 0.97469 0.17125 0.08348 0.0
H937 H 0.02993 0.20686 0.99703 0.0
H938 H 0.97249 0.12821 0.99527 0.0
H939 H 0.99219 0.11731 0.05369 0.0
H940 H 0.96664 0.13447 0.06866 0.0
H941 H 0.05346 0.19126 0.92701 0.0
H942 H 0.05941 0.16109 0.9457 0.0
H943 H 0.03955 0.17144 0.88726 0.0
H944 H 0.05161 0.0826 0.97446 0.0
H945 H 0.00315 0.10751 0.83593 0.0
H946 H 0.03474 0.11897 0.07223 0.0
H947 H 0.05676 0.13412 0.0328 0.0
H948 H 0.06046 0.10369 0.05021 0.0
H949 H 0.97544 0.15019 0.89887 0.0
H950 H 0.98479 0.14413 0.82748 0.0
H951 H 0.99878 0.16484 0.86401 0.0
C952 C 0.32443 0.07206 0.05436 0.0
C953 C 0.31174 0.05249 0.05836 0.0
C954 C 0.34584 0.073 0.02572 0.0
C955 C 0.3553 0.05366 0.00218 0.0
C956 C 0.3422 0.03427 0.00346 0.0
C957 C 0.32041 0.03412 0.03035 0.0
C958 C 0.35889 0.09432 0.02338 0.0
C959 C 0.35179 0.01315 0.97966 0.0
C960 C 0.40713 0.0568 0.90048 0.0
C961 C 0.42556 0.05035 0.94007 0.0
C962 C 0.38418 0.05862 0.92012 0.0
C963 C 0.37958 0.05303 0.98056 0.0
C964 C 0.39823 0.04643 0.02065 0.0
C965 C 0.42106 0.04555 0.99995 0.0
C966 C 0.36493 0.06653 0.87632 0.0
C967 C 0.39403 0.03974 0.08519 0.0
H968 H 0.31833 0.08636 0.07612 0.0
H969 H 0.31058 0.01915 0.03133 0.0
H970 H 0.37387 0.09133 0.0543 0.0
H971 H 0.36582 0.09899 0.97879 0.0
H972 H 0.34778 0.10888 0.0354 0.0
H973 H 0.33899 0.99989 0.9814 0.0
H974 H 0.35731 0.01728 0.93358 0.0
H975 H 0.36738 0.006 0.00563 0.0
H976 H 0.4108 0.06061 0.85416 0.0
H977 H 0.4354 0.04033 0.03018 0.0
H978 H 0.35492 0.08143 0.89006 0.0
H979 H 0.35269 0.05296 0.87486 0.0
H980 H 0.37157 0.07125 0.83138 0.0
H981 H 0.3853 0.05417 0.10426 0.0
H982 H 0.41037 0.03442 0.11021 0.0
H983 H 0.38233 0.02552 0.09113 0.0
C984 C 0.51859 0.35275 0.02629 0.0
C985 C 0.50794 0.35073 0.08133 0.0
C986 C 0.51512 0.37266 0.98633 0.0
C987 C 0.50085 0.39111 0.00198 0.0
C988 C 0.48936 0.38884 0.05656 0.0
C989 C 0.49299 0.36868 0.09543 0.0
C990 C 0.52743 0.37426 0.92825 0.0
C991 C 0.47412 0.40812 0.07516 0.0
C992 C 0.51404 0.45024 0.93093 0.0
C993 C 0.49661 0.45494 0.88765 0.0
C994 C 0.51542 0.42967 0.96874 0.0
C995 C 0.4991 0.41325 0.96293 0.0
C996 C 0.48132 0.41796 0.91971 0.0
C997 C 0.48022 0.43877 0.88279 0.0
C998 C 0.53451 0.42544 0.01462 0.0
C999 C 0.46368 0.40086 0.91186 0.0
H1000 H 0.53005 0.3389 0.01496 0.0
H1001 H 0.48498 0.36742 0.13821 0.0
H1002 H 0.51492 0.37975 0.89171 0.0
H1003 H 0.54048 0.38724 0.92682 0.0
H1004 H 0.53639 0.35785 0.92072 0.0
H1005 H 0.4651 0.4031 0.11699 0.0
H1006 H 0.48483 0.42255 0.08091 0.0
H1007 H 0.46092 0.41428 0.04069 0.0
H1008 H 0.52676 0.46262 0.93513 0.0
H1009 H 0.46675 0.44219 0.84932 0.0
H1010 H 0.54578 0.41037 0.00689 0.0
H1011 H 0.52695 0.42173 0.05887 0.0
H1012 H 0.54546 0.44016 0.01446 0.0
H1013 H 0.47258 0.38497 0.9006 0.0
H1014 H 0.45073 0.40724 0.87682 0.0
H1015 H 0.45438 0.39647 0.95353 0.0
C1016 C 0.14475 0.44369 0.02285 0.0
C1017 C 0.16203 0.4594 0.02084 0.0
C1018 C 0.12475 0.44802 0.98737 0.0
C1019 C 0.12236 0.46811 0.94707 0.0
C1020 C 0.14077 0.48283 0.9404 0.0
C1021 C 0.16022 0.47849 0.97787 0.0
C1022 C 0.10543 0.43198 0.99635 0.0
C1023 C 0.13926 0.50401 0.89636 0.0
C1024 C 0.07323 0.47407 0.83436 0.0
C1025 C 0.05712 0.48869 0.85873 0.0
C1026 C 0.09469 0.46739 0.86215 0.0
C1027 C 0.09976 0.47491 0.91653 0.0
C1028 C 0.08324 0.48923 0.94195 0.0
C1029 C 0.06228 0.49628 0.91216 0.0
C1030 C 0.11217 0.45285 0.8326 0.0
C1031 C 0.08771 0.49715 0.00061 0.0
H1032 H 0.14624 0.4285 0.05446 0.0
H1033 H 0.17327 0.49088 0.9757 0.0
H1034 H 0.09042 0.4405 0.01646 0.0
H1035 H 0.0994 0.42744 0.95376 0.0
H1036 H 0.11081 0.41612 0.02541 0.0
H1037 H 0.15633 0.51156 0.88982 0.0
H1038 H 0.13273 0.50026 0.85339 0.0
H1039 H 0.12685 0.51684 0.91195 0.0
H1040 H 0.06935 0.46849 0.79249 0.0
H1041 H 0.04979 0.50757 0.93095 0.0
H1042 H 0.11715 0.43701 0.86196 0.0
H1043 H 0.12818 0.46204 0.82362 0.0
H1044 H 0.10546 0.44829 0.79057 0.0
H1045 H 0.09197 0.48233 0.03419 0.0
H1046 H 0.07256 0.50717 0.01578 0.0
H1047 H 0.10284 0.50782 0.99764 0.0
C1048 C 0.00085 0.82846 0.54454 0.0
C1049 C 0.99314 0.82871 0.48645 0.0
C1050 C 0.99574 0.84702 0.57555 0.0
C1051 C 0.9828 0.86646 0.54765 0.0
C1052 C 0.97435 0.86652 0.48968 0.0
C1053 C 0.97953 0.84764 0.45992 0.0
C1054 C 0.00478 0.84611 0.63757 0.0
C1055 C 0.96065 0.88692 0.45812 0.0
C1056 C 0.95542 0.91006 0.63883 0.0
C1057 C 0.9717 0.92677 0.63365 0.0
C1058 C 0.9589 0.89026 0.61169 0.0
C1059 C 0.97904 0.88713 0.57798 0.0
C1060 C 0.99553 0.90394 0.57259 0.0
C1061 C 0.99172 0.92346 0.60069 0.0
C1062 C 0.94103 0.87266 0.61915 0.0
C1063 C 0.01712 0.90142 0.53658 0.0
H1064 H 0.01125 0.81384 0.56543 0.0
H1065 H 0.97381 0.84815 0.41477 0.0
H1066 H 0.01772 0.85905 0.63929 0.0
H1067 H 0.99046 0.85019 0.66723 0.0
H1068 H 0.01311 0.8292 0.65445 0.0
H1069 H 0.95429 0.88385 0.41431 0.0
H1070 H 0.94554 0.89164 0.48465 0.0
H1071 H 0.97167 0.90166 0.45224 0.0
H1072 H 0.94008 0.91233 0.66488 0.0
H1073 H 0.00422 0.93639 0.5959 0.0
H1074 H 0.94928 0.85607 0.63866 0.0
H1075 H 0.93382 0.87027 0.57572 0.0
H1076 H 0.92652 0.87744 0.64758 0.0
H1077 H 0.02745 0.88564 0.55383 0.0
H1078 H 0.02823 0.91601 0.53672 0.0
H1079 H 0.01226 0.89994 0.49052 0.0
C1080 C 0.6858 0.95329 0.51473 0.0
C1081 C 0.6952 0.97445 0.4995 0.0
C1082 C 0.66465 0.95156 0.5444 0.0
C1083 C 0.65236 0.97147 0.55804 0.0
C1084 C 0.66247 0.99263 0.54647 0.0
C1085 C 0.68389 0.99381 0.51801 0.0
C1086 C 0.65491 0.92856 0.55867 0.0
C1087 C 0.65006 0.01421 0.56117 0.0
C1088 C 0.58655 0.97292 0.56025 0.0
C1089 C 0.58215 0.97228 0.62018 0.0
C1090 C 0.60939 0.97241 0.53955 0.0
C1091 C 0.62821 0.97051 0.58009 0.0
C1092 C 0.62377 0.96875 0.641 0.0
C1093 C 0.60077 0.97011 0.6602 0.0
C1094 C 0.61336 0.97473 0.4742 0.0
C1095 C 0.64313 0.9661 0.68613 0.0
H1096 H 0.69422 0.93819 0.50057 0.0
H1097 H 0.69128 0.01014 0.50785 0.0
H1098 H 0.64929 0.92605 0.60506 0.0
H1099 H 0.63942 0.92753 0.5307 0.0
H1100 H 0.66773 0.91453 0.55144 0.0
H1101 H 0.66054 0.02921 0.55076 0.0
H1102 H 0.63345 0.01735 0.53613 0.0
H1103 H 0.64579 0.01247 0.60848 0.0
H1104 H 0.57208 0.97477 0.52953 0.0
H1105 H 0.59726 0.96944 0.70668 0.0
H1106 H 0.62432 0.95999 0.46289 0.0
H1107 H 0.62279 0.99019 0.46045 0.0
H1108 H 0.59687 0.97588 0.44864 0.0
H1109 H 0.65873 0.95668 0.67137 0.0
H1110 H 0.63749 0.95705 0.7285 0.0
H1111 H 0.64811 0.98316 0.69416 0.0
C1112 C 0.47072 0.66758 0.50743 0.0
C1113 C 0.48253 0.67041 0.45405 0.0
C1114 C 0.47516 0.64808 0.54828 0.0
C1115 C 0.49155 0.63082 0.53503 0.0
C1116 C 0.50421 0.63404 0.48226 0.0
C1117 C 0.49965 0.65385 0.44259 0.0
C1118 C 0.46158 0.64553 0.60449 0.0
C1119 C 0.52164 0.61599 0.46612 0.0
C1120 C 0.51233 0.58443 0.65731 0.0
C1121 C 0.4973 0.56729 0.65021 0.0
C1122 C 0.51079 0.60517 0.62004 0.0
C1123 C 0.49405 0.60872 0.57406 0.0
C1124 C 0.47925 0.59124 0.56581 0.0
C1125 C 0.48094 0.57084 0.60419 0.0
C1126 C 0.52669 0.62346 0.6307 0.0
C1127 C 0.4614 0.59417 0.51682 0.0
H1128 H 0.45756 0.6804 0.51657 0.0
H1129 H 0.5086 0.65579 0.40104 0.0
H1130 H 0.44959 0.63169 0.60381 0.0
H1131 H 0.47345 0.64076 0.64272 0.0
H1132 H 0.45122 0.66135 0.6109 0.0
H1133 H 0.53143 0.62186 0.42608 0.0
H1134 H 0.53416 0.61068 0.50273 0.0
H1135 H 0.51254 0.60076 0.45817 0.0
H1136 H 0.52493 0.58188 0.69299 0.0
H1137 H 0.46934 0.55765 0.59822 0.0
H1138 H 0.51627 0.63867 0.64122 0.0
H1139 H 0.53656 0.62872 0.59045 0.0
H1140 H 0.53918 0.61783 0.6673 0.0
H1141 H 0.44864 0.60836 0.5229 0.0
H1142 H 0.45189 0.57861 0.51486 0.0
H1143 H 0.46989 0.59862 0.47401 0.0
C1144 C 0.83893 0.56046 0.55585 0.0
C1145 C 0.84095 0.56596 0.4949 0.0
C1146 C 0.85873 0.55595 0.59225 0.0
C1147 C 0.88105 0.55707 0.56713 0.0
C1148 C 0.88319 0.56383 0.50623 0.0
C1149 C 0.86318 0.56805 0.47091 0.0
C1150 C 0.85576 0.54886 0.65711 0.0
C1151 C 0.90665 0.56532 0.47768 0.0
C1152 C 0.93508 0.55668 0.66259 0.0
C1153 C 0.94342 0.53388 0.66615 0.0
C1154 C 0.91459 0.56447 0.63126 0.0
C1155 C 0.90214 0.54909 0.6031 0.0
C1156 C 0.91038 0.52604 0.60698 0.0
C1157 C 0.93092 0.51874 0.63828 0.0
C1158 C 0.90642 0.58919 0.62771 0.0
C1159 C 0.8976 0.50908 0.57758 0.0
H1160 H 0.82188 0.55907 0.57494 0.0
H1161 H 0.86511 0.57182 0.42385 0.0
H1162 H 0.86175 0.53074 0.66826 0.0
H1163 H 0.86657 0.55886 0.68299 0.0
H1164 H 0.83742 0.55103 0.67072 0.0
H1165 H 0.90537 0.57315 0.43113 0.0
H1166 H 0.91802 0.57539 0.50187 0.0
H1167 H 0.91519 0.54803 0.47919 0.0
H1168 H 0.94461 0.56848 0.68412 0.0
H1169 H 0.93714 0.50108 0.64103 0.0
H1170 H 0.88839 0.59079 0.6438 0.0
H1171 H 0.90625 0.59715 0.58133 0.0
H1172 H 0.91763 0.5988 0.65374 0.0
H1173 H 0.87944 0.50876 0.59301 0.0
H1174 H 0.9059 0.49163 0.58643 0.0
H1175 H 0.89696 0.5142 0.52943 0.0
loop_
_geom_bond_atom_site_label_1
_geom_bond_atom_site_label_2
_geom_bond_distance
_geom_bond_site_symmetry_2
_ccdc_geom_bond_type
C0 C1 1.384 . S
C0 H13 0.947 . S
C0 C35 1.382 . S
C1 C0 1.384 . S
C1 C2 1.378 . S
C2 C1 1.378 . S
C2 C3 1.378 . S
C2 H14 0.952 . S
C3 C2 1.378 . S
C3 H15 0.950 . S
C3 C34 1.383 . S
H4 C23 0.947 . S
H5 C24 0.946 . S
H6 C26 0.953 1_556 S
H7 C27 0.945 . S
H8 C29 0.952 . S
H9 C30 0.949 . S
H10 C32 0.950 . S
H11 C33 0.948 . S
H12 C35 0.951 . S
H13 C0 0.947 . S
H14 C2 0.952 . S
H15 C3 0.950 . S
N16 C19 1.382 . S
N16 C21 1.363 . S
N17 C19 1.371 . S
N17 C20 1.372 . S
N18 C20 1.361 . S
N18 C21 1.377 . S
C19 N16 1.382 . S
C19 N17 1.371 . S
C19 C22 1.480 . S
C20 N17 1.372 . S
C20 N18 1.361 . S
C20 C28 1.457 . S
C21 N16 1.363 . S
C21 N18 1.377 . S
C21 C34 1.479 . S
C22 C19 1.480 . S
C22 C23 1.383 . S
C22 C27 1.385 . S
C23 H4 0.947 . S
C23 C22 1.383 . S
C23 C24 1.388 . S
C24 H5 0.946 . S
C24 C23 1.388 . S
C24 C25 1.384 . S
C25 C24 1.384 . S
C25 C26 1.377 . S
C26 H6 0.953 1_554 S
C26 C25 1.377 . S
C26 C27 1.369 . S
C27 H7 0.945 . S
C27 C22 1.385 . S
C27 C26 1.369 . S
C28 C20 1.457 . S
C28 C29 1.372 1_554 S
C28 C33 1.364 . S
C29 H8 0.952 . S
C29 C28 1.372 1_556 S
C29 C30 1.389 . S
C30 H9 0.949 . S
C30 C29 1.389 . S
C30 C31 1.387 . S
C31 C30 1.387 . S
C31 C32 1.372 1_556 S
C32 H10 0.950 . S
C32 C31 1.372 1_554 S
C32 C33 1.379 . S
C33 H11 0.948 . S
C33 C28 1.364 . S
C33 C32 1.379 . S
C34 C3 1.383 . S
C34 C21 1.479 . S
C34 C35 1.398 . S
C35 C0 1.382 . S
C35 H12 0.951 . S
C35 C34 1.398 . S
C36 C37 1.384 1_655 S
C36 H49 0.947 . S
C36 C71 1.382 1_655 S
C37 C36 1.384 1_455 S
C37 C38 1.378 . S
C38 C37 1.378 . S
C38 C39 1.378 . S
C38 H50 0.952 . S
C39 C38 1.378 . S
C39 H51 0.950 . S
C39 C70 1.383 . S
H40 C59 0.947 . S
H41 C60 0.953 . S
H42 C62 0.953 1_556 S
H43 C63 0.945 . S
H44 C65 0.948 1_655 S
H45 C66 0.957 . S
H46 C68 0.950 . S
H47 C69 0.948 . S
H48 C71 0.951 1_655 S
H49 C36 0.947 . S
H50 C38 0.952 . S
H51 C39 0.950 . S
N52 C55 1.382 . S
N52 C57 1.363 . S
N53 C55 1.371 . S
N53 C56 1.372 . S
N54 C56 1.361 . S
N54 C57 1.377 . S
C55 N52 1.382 . S
C55 N53 1.371 . S
C55 C58 1.480 . S
C56 N53 1.372 . S
C56 N54 1.361 . S
C56 C64 1.457 . S
C57 N52 1.363 . S
C57 N54 1.377 . S
C57 C70 1.479 . S
C58 C55 1.480 . S
C58 C59 1.383 . S
C58 C63 1.385 . S
C59 H40 0.947 . S
C59 C58 1.383 . S
C59 C60 1.384 1_455 S
C60 H41 0.953 . S
C60 C59 1.384 1_655 S
C60 C61 1.382 1_655 S
C61 C60 1.382 1_455 S
C61 C62 1.377 . S
C62 H42 0.953 1_554 S
C62 C61 1.377 . S
C62 C63 1.369 . S
C63 H43 0.945 . S
C63 C58 1.385 . S
C63 C62 1.369 . S
C64 C56 1.457 . S
C64 C65 1.376 1_554 S
C64 C69 1.364 . S
C65 H44 0.948 1_455 S
C65 C64 1.376 1_556 S
C65 C66 1.390 1_455 S
C66 H45 0.957 . S
C66 C65 1.390 1_655 S
C66 C67 1.380 1_655 S
C67 C66 1.380 1_455 S
C67 C68 1.372 1_556 S
C68 H46 0.950 . S
C68 C67 1.372 1_554 S
C68 C69 1.379 . S
C69 H47 0.948 . S
C69 C64 1.364 . S
C69 C68 1.379 . S
C70 C39 1.383 . S
C70 C57 1.479 . S
C70 C71 1.398 . S
C71 C36 1.382 1_455 S
C71 H48 0.951 1_455 S
C71 C70 1.398 . S
C72 C73 1.384 . S
C72 H85 0.947 . S
C72 C107 1.382 . S
C73 C72 1.384 . S
C73 C74 1.378 . S
C74 C73 1.378 . S
C74 C75 1.378 . S
C74 H86 0.952 . S
C75 C74 1.378 . S
C75 H87 0.950 . S
C75 C106 1.383 . S
H76 C95 0.947 . S
H77 C96 0.946 . S
H78 C98 0.953 . S
H79 C99 0.945 1_556 S
H80 C101 0.952 . S
H81 C102 0.949 . S
H82 C104 0.950 . S
H83 C105 0.948 . S
H84 C107 0.951 . S
H85 C72 0.947 . S
H86 C74 0.952 . S
H87 C75 0.950 . S
N88 C91 1.382 . S
N88 C93 1.363 . S
N89 C91 1.371 . S
N89 C92 1.372 . S
N90 C92 1.361 . S
N90 C93 1.377 . S
C91 N88 1.382 . S
C91 N89 1.371 . S
C91 C94 1.480 . S
C92 N89 1.372 . S
C92 N90 1.361 . S
C92 C100 1.457 . S
C93 N88 1.363 . S
C93 N90 1.377 . S
C93 C106 1.479 . S
C94 C91 1.480 . S
C94 C95 1.383 . S
C94 C99 1.385 . S
C95 H76 0.947 . S
C95 C94 1.383 . S
C95 C96 1.388 . S
C96 H77 0.946 . S
C96 C95 1.388 . S
C96 C97 1.384 . S
C97 C96 1.384 . S
C97 C98 1.377 1_554 S
C98 H78 0.953 . S
C98 C97 1.377 1_556 S
C98 C99 1.369 1_556 S
C99 H79 0.945 1_554 S
C99 C94 1.385 . S
C99 C98 1.369 1_554 S
C100 C92 1.457 . S
C100 C101 1.372 1_554 S
C100 C105 1.364 . S
C101 H80 0.952 . S
C101 C100 1.372 1_556 S
C101 C102 1.389 . S
C102 H81 0.949 . S
C102 C101 1.389 . S
C102 C103 1.387 . S
C103 C102 1.387 . S
C103 C104 1.372 . S
C104 H82 0.950 . S
C104 C103 1.372 . S
C104 C105 1.379 1_556 S
C105 H83 0.948 . S
C105 C100 1.364 . S
C105 C104 1.379 1_554 S
C106 C75 1.383 . S
C106 C93 1.479 . S
C106 C107 1.398 . S
C107 C72 1.382 . S
C107 H84 0.951 . S
C107 C106 1.398 . S
C108 C109 1.384 1_554 S
C108 H121 0.947 . S
C108 C143 1.382 . S
C109 C108 1.384 1_556 S
C109 C110 1.378 . S
C110 C109 1.378 . S
C110 C111 1.378 . S
C110 H122 0.952 . S
C111 C110 1.378 . S
C111 H123 0.950 . S
C111 C142 1.383 1_556 S
H112 C131 0.947 . S
H113 C132 0.946 1_556 S
H114 C134 0.953 . S
H115 C135 0.945 . S
H116 C137 0.952 . S
H117 C138 0.949 . S
H118 C140 0.950 . S
H119 C141 0.948 . S
H120 C143 0.951 . S
H121 C108 0.947 . S
H122 C110 0.952 . S
H123 C111 0.950 . S
N124 C127 1.382 . S
N124 C129 1.363 . S
N125 C127 1.371 . S
N125 C128 1.372 . S
N126 C128 1.361 . S
N126 C129 1.377 . S
C127 N124 1.382 . S
C127 N125 1.371 . S
C127 C130 1.480 . S
C128 N125 1.372 . S
C128 N126 1.361 . S
C128 C136 1.457 . S
C129 N124 1.363 . S
C129 N126 1.377 . S
C129 C142 1.479 . S
C130 C127 1.480 . S
C130 C131 1.383 . S
C130 C135 1.385 . S
C131 H112 0.947 . S
C131 C130 1.383 . S
C131 C132 1.388 . S
C132 H113 0.946 1_554 S
C132 C131 1.388 . S
C132 C133 1.384 . S
C133 C132 1.384 . S
C133 C134 1.377 . S
C134 H114 0.953 . S
C134 C133 1.377 . S
C134 C135 1.369 . S
C135 H115 0.945 . S
C135 C130 1.385 . S
C135 C134 1.369 . S
C136 C128 1.457 . S
C136 C137 1.372 . S
C136 C141 1.364 . S
C137 H116 0.952 . S
C137 C136 1.372 . S
C137 C138 1.389 . S
C138 H117 0.949 . S
C138 C137 1.389 . S
C138 C139 1.387 . S
C139 C138 1.387 . S
C139 C140 1.372 . S
C140 H118 0.950 . S
C140 C139 1.372 . S
C140 C141 1.379 . S
C141 H119 0.948 . S
C141 C136 1.364 . S
C141 C140 1.379 . S
C142 C111 1.383 1_554 S
C142 C129 1.479 . S
C142 C143 1.398 . S
C143 C108 1.382 . S
C143 H120 0.951 . S
C143 C142 1.398 . S
C144 C145 1.384 . S
C144 H157 0.947 . S
C144 C179 1.382 . S
C145 C144 1.384 . S
C145 C146 1.378 . S
C146 C145 1.378 . S
C146 C147 1.378 . S
C146 H158 0.952 . S
C147 C146 1.378 . S
C147 H159 0.950 . S
C147 C178 1.383 . S
H148 C167 0.947 . S
H149 C168 0.946 . S
H150 C170 0.953 . S
H151 C171 0.945 . S
H152 C173 0.952 . S
H153 C174 0.949 . S
H154 C176 0.950 . S
H155 C177 0.948 . S
H156 C179 0.951 . S
H157 C144 0.947 . S
H158 C146 0.952 . S
H159 C147 0.950 . S
N160 C163 1.382 . S
N160 C165 1.363 . S
N161 C163 1.371 . S
N161 C164 1.372 . S
N162 C164 1.361 . S
N162 C165 1.377 . S
C163 N160 1.382 . S
C163 N161 1.371 . S
C163 C166 1.480 . S
C164 N161 1.372 . S
C164 N162 1.361 . S
C164 C172 1.457 . S
C165 N160 1.363 . S
C165 N162 1.377 . S
C165 C178 1.479 . S
C166 C163 1.480 . S
C166 C167 1.383 . S
C166 C171 1.385 . S
C167 H148 0.947 . S
C167 C166 1.383 . S
C167 C168 1.388 . S
C168 H149 0.946 . S
C168 C167 1.388 . S
C168 C169 1.384 . S
C169 C168 1.384 . S
C169 C170 1.377 . S
C170 H150 0.953 . S
C170 C169 1.377 . S
C170 C171 1.369 . S
C171 H151 0.945 . S
C171 C166 1.385 . S
C171 C170 1.369 . S
C172 C164 1.457 . S
C172 C173 1.372 . S
C172 C177 1.364 . S
C173 H152 0.952 . S
C173 C172 1.372 . S
C173 C174 1.389 . S
C174 H153 0.949 . S
C174 C173 1.389 . S
C174 C175 1.387 . S
C175 C174 1.387 . S
C175 C176 1.372 . S
C176 H154 0.950 . S
C176 C175 1.372 . S
C176 C177 1.379 . S
C177 H155 0.948 . S
C177 C172 1.364 . S
C177 C176 1.379 . S
C178 C147 1.383 . S
C178 C165 1.479 . S
C178 C179 1.398 . S
C179 C144 1.382 . S
C179 H156 0.951 . S
C179 C178 1.398 . S
C180 C181 1.383 . S
C180 H193 0.948 1_455 S
C180 C215 1.382 . S
C181 C180 1.383 . S
C181 C182 1.378 . S
C182 C181 1.378 . S
C182 C183 1.378 . S
C182 H194 0.952 . S
C183 C182 1.378 . S
C183 H195 0.950 . S
C183 C214 1.383 . S
H184 C203 0.947 . S
H185 C204 0.948 . S
H186 C206 0.953 . S
H187 C207 0.945 . S
H188 C209 0.949 1_655 S
H189 C210 0.954 . S
H190 C212 0.950 . S
H191 C213 0.948 . S
H192 C215 0.950 1_655 S
H193 C180 0.948 1_655 S
H194 C182 0.952 . S
H195 C183 0.950 . S
N196 C199 1.382 . S
N196 C201 1.363 . S
N197 C199 1.371 . S
N197 C200 1.372 . S
N198 C200 1.361 . S
N198 C201 1.377 . S
C199 N196 1.382 . S
C199 N197 1.371 . S
C199 C202 1.480 . S
C200 N197 1.372 . S
C200 N198 1.361 . S
C200 C208 1.457 . S
C201 N196 1.363 . S
C201 N198 1.377 . S
C201 C214 1.479 . S
C202 C199 1.480 . S
C202 C203 1.383 . S
C202 C207 1.385 . S
C203 H184 0.947 . S
C203 C202 1.383 . S
C203 C204 1.388 1_455 S
C204 H185 0.948 . S
C204 C203 1.388 1_655 S
C204 C205 1.382 1_655 S
C205 C204 1.382 1_455 S
C205 C206 1.377 . S
C206 H186 0.953 . S
C206 C205 1.377 . S
C206 C207 1.369 . S
C207 H187 0.945 . S
C207 C202 1.385 . S
C207 C206 1.369 . S
C208 C200 1.457 . S
C208 C209 1.379 . S
C208 C213 1.364 . S
C209 H188 0.949 1_455 S
C209 C208 1.379 . S
C209 C210 1.383 1_455 S
C210 H189 0.954 . S
C210 C209 1.383 1_655 S
C210 C211 1.385 1_655 S
C211 C210 1.385 1_455 S
C211 C212 1.372 . S
C212 H190 0.950 . S
C212 C211 1.372 . S
C212 C213 1.379 . S
C213 H191 0.948 . S
C213 C208 1.364 . S
C213 C212 1.379 . S
C214 C183 1.383 . S
C214 C201 1.479 . S
C214 C215 1.400 . S
C215 C180 1.382 . S
C215 H192 0.950 1_455 S
C215 C214 1.400 . S
C216 C217 1.384 . S
C216 H229 0.947 . S
C216 C251 1.382 . S
C217 C216 1.384 . S
C217 C218 1.378 . S
C218 C217 1.378 . S
C218 C219 1.378 . S
C218 H230 0.952 . S
C219 C218 1.378 . S
C219 H231 0.950 . S
C219 C250 1.383 . S
H220 C239 0.947 . S
H221 C240 0.946 . S
H222 C242 0.953 . S
H223 C243 0.945 . S
H224 C245 0.952 . S
H225 C246 0.949 . S
H226 C248 0.950 . S
H227 C249 0.948 . S
H228 C251 0.951 . S
H229 C216 0.947 . S
H230 C218 0.952 . S
H231 C219 0.950 . S
N232 C235 1.382 . S
N232 C237 1.363 . S
N233 C235 1.371 . S
N233 C236 1.372 . S
N234 C236 1.361 . S
N234 C237 1.377 . S
C235 N232 1.382 . S
C235 N233 1.371 . S
C235 C238 1.480 . S
C236 N233 1.372 . S
C236 N234 1.361 . S
C236 C244 1.457 . S
C237 N232 1.363 . S
C237 N234 1.377 . S
C237 C250 1.479 . S
C238 C235 1.480 . S
C238 C239 1.383 . S
C238 C243 1.385 . S
C239 H220 0.947 . S
C239 C238 1.383 . S
C239 C240 1.388 . S
C240 H221 0.946 . S
C240 C239 1.388 . S
C240 C241 1.384 . S
C241 C240 1.384 . S
C241 C242 1.377 . S
C242 H222 0.953 . S
C242 C241 1.377 . S
C242 C243 1.369 . S
C243 H223 0.945 . S
C243 C238 1.385 . S
C243 C242 1.369 . S
C244 C236 1.457 . S
C244 C245 1.372 . S
C244 C249 1.364 . S
C245 H224 0.952 . S
C245 C244 1.372 . S
C245 C246 1.389 . S
C246 H225 0.949 . S
C246 C245 1.389 . S
C246 C247 1.387 . S
C247 C246 1.387 . S
C247 C248 1.372 . S
C248 H226 0.950 . S
C248 C247 1.372 . S
C248 C249 1.379 . S
C249 H227 0.948 . S
C249 C244 1.364 . S
C249 C248 1.379 . S
C250 C219 1.383 . S
C250 C237 1.479 . S
C250 C251 1.398 . S
C251 C216 1.382 . S
C251 H228 0.951 . S
C251 C250 1.398 . S
C252 C253 1.384 . S
C252 H265 0.947 . S
C252 C287 1.382 . S
C253 C252 1.384 . S
C253 C254 1.378 . S
C254 C253 1.378 . S
C254 C255 1.378 . S
C254 H266 0.952 . S
C255 C254 1.378 . S
C255 H267 0.950 . S
C255 C286 1.383 . S
H256 C275 0.947 . S
H257 C276 0.946 . S
H258 C278 0.953 . S
H259 C279 0.945 . S
H260 C281 0.952 . S
H261 C282 0.949 . S
H262 C284 0.950 . S
H263 C285 0.948 . S
H264 C287 0.951 . S
H265 C252 0.947 . S
H266 C254 0.952 . S
H267 C255 0.950 . S
N268 C271 1.382 . S
N268 C273 1.363 . S
N269 C271 1.371 . S
N269 C272 1.372 . S
N270 C272 1.361 . S
N270 C273 1.377 . S
C271 N268 1.382 . S
C271 N269 1.371 . S
C271 C274 1.480 . S
C272 N269 1.372 . S
C272 N270 1.361 . S
C272 C280 1.457 . S
C273 N268 1.363 . S
C273 N270 1.377 . S
C273 C286 1.479 . S
C274 C271 1.480 . S
C274 C275 1.383 . S
C274 C279 1.385 . S
C275 H256 0.947 . S
C275 C274 1.383 . S
C275 C276 1.388 . S
C276 H257 0.946 . S
C276 C275 1.388 . S
C276 C277 1.384 . S
C277 C276 1.384 . S
C277 C278 1.377 . S
C278 H258 0.953 . S
C278 C277 1.377 . S
C278 C279 1.369 . S
C279 H259 0.945 . S
C279 C274 1.385 . S
C279 C278 1.369 . S
C280 C272 1.457 . S
C280 C281 1.372 . S
C280 C285 1.364 . S
C281 H260 0.952 . S
C281 C280 1.372 . S
C281 C282 1.389 . S
C282 H261 0.949 . S
C282 C281 1.389 . S
C282 C283 1.387 . S
C283 C282 1.387 . S
C283 C284 1.372 . S
C284 H262 0.950 . S
C284 C283 1.372 . S
C284 C285 1.379 . S
C285 H263 0.948 . S
C285 C280 1.364 . S
C285 C284 1.379 . S
C286 C255 1.383 . S
C286 C273 1.479 . S
C286 C287 1.398 . S
C287 C252 1.382 . S
C287 H264 0.951 . S
C287 C286 1.398 . S
Co288 N293 2.057 . S
Co288 O305 2.021 . S
Co288 O308 2.062 1_455 S
Co288 O312 2.117 1_455 S
Co288 O313 2.020 1_545 S
C289 O309 1.259 1_545 S
C289 O312 1.258 . S
Co290 N299 2.057 . S
Co290 O306 2.117 1_665 S
Co290 O307 2.020 1_565 S
Co290 O309 2.021 . S
Co290 O314 2.062 1_655 S
C291 N293 1.316 . S
C291 N294 1.347 . S
C291 H296 0.931 . S
C292 N293 1.375 1_655 S
C292 C295 1.350 . S
C292 H297 0.930 . S
N293 Co288 2.057 . S
N293 C291 1.316 . S
N293 C292 1.375 1_455 S
N294 C291 1.347 . S
N294 C295 1.373 1_455 S
C295 C292 1.350 . S
C295 N294 1.373 1_655 S
C295 H316 0.931 . S
H296 C291 0.931 . S
H297 C292 0.930 . S
C298 O305 1.259 . S
C298 O306 1.258 . S
N299 Co290 2.057 . S
N299 C300 1.316 . S
N299 C301 1.375 1_655 S
C300 N299 1.316 . S
C300 N302 1.347 . S
C300 H311 0.931 . S
C301 N299 1.375 1_455 S
C301 C303 1.350 . S
C301 H310 0.930 . S
N302 C300 1.347 . S
N302 C303 1.373 1_655 S
C303 C301 1.350 . S
C303 N302 1.373 1_455 S
C303 H317 0.931 . S
C304 O307 1.256 . S
C304 O308 1.255 . S
O305 Co288 2.021 . S
O305 C298 1.259 . S
O306 Co290 2.117 1_445 S
O306 C298 1.258 . S
O307 Co290 2.020 1_545 S
O307 C304 1.256 . S
O308 Co288 2.062 1_655 S
O308 C304 1.255 . S
O309 C289 1.259 1_565 S
O309 Co290 2.021 . S
H310 C301 0.930 . S
H311 C300 0.931 . S
O312 Co288 2.117 1_655 S
O312 C289 1.258 . S
O313 Co288 2.020 1_565 S
O313 C315 1.256 . S
O314 Co290 2.062 1_455 S
O314 C315 1.255 . S
C315 O313 1.256 . S
C315 O314 1.255 . S
H316 C295 0.931 . S
H317 C303 0.931 . S
Co318 N323 2.057 . S
Co318 O335 2.021 . S
Co318 O338 2.062 . S
Co318 O342 2.117 1_545 S
Co318 O343 2.020 . S
C319 O339 1.259 . S
C319 O342 1.258 . S
Co320 N329 2.056 1_545 S
Co320 O336 2.125 . S
Co320 O337 2.021 . S
Co320 O339 2.013 1_545 S
Co320 O344 2.062 1_545 S
C321 N323 1.316 . S
C321 N324 1.347 . S
C321 H326 0.931 . S
C322 N323 1.375 . S
C322 C325 1.350 . S
C322 H327 0.930 1_545 S
N323 Co318 2.057 . S
N323 C321 1.316 . S
N323 C322 1.375 . S
N324 C321 1.347 . S
N324 C325 1.373 . S
C325 C322 1.350 . S
C325 N324 1.373 . S
C325 H346 0.931 . S
H326 C321 0.931 . S
H327 C322 0.930 1_565 S
C328 O335 1.259 . S
C328 O336 1.258 . S
N329 Co320 2.056 1_565 S
N329 C330 1.316 . S
N329 C331 1.375 1_565 S
C330 N329 1.316 . S
C330 N332 1.347 . S
C330 H341 0.931 . S
C331 N329 1.375 1_545 S
C331 C333 1.350 . S
C331 H340 0.930 . S
N332 C330 1.347 . S
N332 C333 1.373 1_565 S
C333 C331 1.350 . S
C333 N332 1.373 1_545 S
C333 H347 0.931 . S
C334 O337 1.256 . S
C334 O338 1.255 . S
O335 Co318 2.021 . S
O335 C328 1.259 . S
O336 Co320 2.125 . S
O336 C328 1.258 . S
O337 Co320 2.021 . S
O337 C334 1.256 . S
O338 Co318 2.062 . S
O338 C334 1.255 . S
O339 C319 1.259 . S
O339 Co320 2.013 1_565 S
H340 C331 0.930 . S
H341 C330 0.931 . S
O342 Co318 2.117 1_565 S
O342 C319 1.258 . S
O343 Co318 2.020 . S
O343 C345 1.256 . S
O344 Co320 2.062 1_565 S
O344 C345 1.255 1_565 S
C345 O343 1.256 . S
C345 O344 1.255 1_545 S
H346 C325 0.931 . S
H347 C333 0.931 . S
Co348 N353 2.057 . S
Co348 O365 2.021 . S
Co348 O368 2.062 . S
Co348 O372 2.117 . S
Co348 O373 2.020 . S
C349 O369 1.259 . S
C349 O372 1.258 . S
Co350 N359 2.057 . S
Co350 O366 2.117 . S
Co350 O367 2.020 . S
Co350 O369 2.021 . S
Co350 O374 2.062 . S
C351 N353 1.316 . S
C351 N354 1.347 . S
C351 H356 0.931 . S
C352 N353 1.375 . S
C352 C355 1.350 . S
C352 H357 0.930 . S
N353 Co348 2.057 . S
N353 C351 1.316 . S
N353 C352 1.375 . S
N354 C351 1.347 . S
N354 C355 1.373 . S
C355 C352 1.350 . S
C355 N354 1.373 . S
C355 H376 0.931 . S
H356 C351 0.931 . S
H357 C352 0.930 . S
C358 O365 1.259 . S
C358 O366 1.258 . S
N359 Co350 2.057 . S
N359 C360 1.316 . S
N359 C361 1.375 . S
C360 N359 1.316 . S
C360 N362 1.347 . S
C360 H371 0.931 . S
C361 N359 1.375 . S
C361 C363 1.350 . S
C361 H370 0.930 . S
N362 C360 1.347 . S
N362 C363 1.373 . S
C363 C361 1.350 . S
C363 N362 1.373 . S
C363 H377 0.931 . S
C364 O367 1.256 . S
C364 O368 1.255 . S
O365 Co348 2.021 . S
O365 C358 1.259 . S
O366 Co350 2.117 . S
O366 C358 1.258 . S
O367 Co350 2.020 . S
O367 C364 1.256 . S
O368 Co348 2.062 . S
O368 C364 1.255 . S
O369 C349 1.259 . S
O369 Co350 2.021 . S
H370 C361 0.930 . S
H371 C360 0.931 . S
O372 Co348 2.117 . S
O372 C349 1.258 . S
O373 Co348 2.020 . S
O373 C375 1.256 . S
O374 Co350 2.062 . S
O374 C375 1.255 . S
C375 O373 1.256 . S
C375 O374 1.255 . S
H376 C355 0.931 . S
H377 C363 0.931 . S
Co378 N383 2.057 . S
Co378 O395 2.021 1_455 S
Co378 O398 2.062 1_455 S
Co378 O402 2.117 . S
Co378 O403 2.020 . S
C379 O399 1.259 . S
C379 O402 1.258 . S
Co380 N389 2.057 . S
Co380 O396 2.117 . S
Co380 O397 2.020 . S
Co380 O399 2.021 1_655 S
Co380 O404 2.062 1_655 S
C381 N383 1.316 . S
C381 N384 1.347 . S
C381 H386 0.931 1_455 S
C382 N383 1.375 . S
C382 C385 1.350 . S
C382 H387 0.930 . S
N383 Co378 2.057 . S
N383 C381 1.316 . S
N383 C382 1.375 . S
N384 C381 1.347 . S
N384 C385 1.373 . S
C385 C382 1.350 . S
C385 N384 1.373 . S
C385 H406 0.931 . S
H386 C381 0.931 1_655 S
H387 C382 0.930 . S
C388 O395 1.259 . S
C388 O396 1.258 . S
N389 Co380 2.057 . S
N389 C390 1.316 . S
N389 C391 1.375 . S
C390 N389 1.316 . S
C390 N392 1.347 . S
C390 H401 0.931 1_655 S
C391 N389 1.375 . S
C391 C393 1.350 . S
C391 H400 0.930 . S
N392 C390 1.347 . S
N392 C393 1.373 . S
C393 C391 1.350 . S
C393 N392 1.373 . S
C393 H407 0.931 . S
C394 O397 1.256 . S
C394 O398 1.255 . S
O395 Co378 2.021 1_655 S
O395 C388 1.259 . S
O396 Co380 2.117 . S
O396 C388 1.258 . S
O397 Co380 2.020 . S
O397 C394 1.256 . S
O398 Co378 2.062 1_655 S
O398 C394 1.255 . S
O399 C379 1.259 . S
O399 Co380 2.021 1_455 S
H400 C391 0.930 . S
H401 C390 0.931 1_455 S
O402 Co378 2.117 . S
O402 C379 1.258 . S
O403 Co378 2.020 . S
O403 C405 1.256 . S
O404 Co380 2.062 1_455 S
O404 C405 1.255 . S
C405 O403 1.256 . S
C405 O404 1.255 . S
H406 C385 0.931 . S
H407 C393 0.931 . S
C408 C409 1.391 . S
C408 C410 1.394 . S
C408 H424 0.931 . S
C409 C408 1.391 . S
C409 C413 1.376 . S
C410 C408 1.394 . S
C410 C411 1.369 . S
C410 C414 1.531 . S
C411 C410 1.369 . S
C411 C412 1.410 . S
C411 C419 1.503 . S
C412 C411 1.410 . S
C412 C413 1.392 . S
C412 C415 1.511 . S
C413 C409 1.376 . S
C413 C412 1.392 . S
C413 H425 0.929 . S
C414 C410 1.531 . S
C414 H426 0.960 . S
C414 H427 0.962 . S
C414 H428 0.960 . S
C415 C412 1.511 . S
C415 H429 0.961 . S
C415 H430 0.961 . S
C415 H431 0.961 . S
C416 C417 1.370 . S
C416 C418 1.363 . S
C416 H432 0.931 . S
C417 C416 1.370 . S
C417 C421 1.408 . S
C418 C416 1.363 . S
C418 C419 1.370 . S
C418 C422 1.524 . S
C419 C411 1.503 . S
C419 C418 1.370 . S
C419 C420 1.403 . S
C420 C419 1.403 . S
C420 C421 1.404 . S
C420 C423 1.572 . S
C421 C417 1.408 . S
C421 C420 1.404 . S
C421 H433 0.930 1_545 S
C422 C418 1.524 . S
C422 H434 0.956 . S
C422 H435 0.961 . S
C422 H436 0.961 . S
C423 C420 1.572 . S
C423 H437 0.943 1_545 S
C423 H438 0.924 1_545 S
C423 H439 0.982 . S
H424 C408 0.931 . S
H425 C413 0.929 . S
H426 C414 0.960 . S
H427 C414 0.962 . S
H428 C414 0.960 . S
H429 C415 0.961 . S
H430 C415 0.961 . S
H431 C415 0.961 . S
H432 C416 0.931 . S
H433 C421 0.930 1_565 S
H434 C422 0.956 . S
H435 C422 0.961 . S
H436 C422 0.961 . S
H437 C423 0.943 1_565 S
H438 C423 0.924 1_565 S
H439 C423 0.982 . S
C440 C441 1.391 . S
C440 C442 1.394 . S
C440 H456 0.931 . S
C441 C440 1.391 . S
C441 C445 1.376 . S
C442 C440 1.394 . S
C442 C443 1.369 . S
C442 C446 1.531 . S
C443 C442 1.369 . S
C443 C444 1.410 . S
C443 C451 1.503 . S
C444 C443 1.410 . S
C444 C445 1.392 . S
C444 C447 1.511 . S
C445 C441 1.376 . S
C445 C444 1.392 . S
C445 H457 0.929 . S
C446 C442 1.531 . S
C446 H458 0.960 . S
C446 H459 0.962 . S
C446 H460 0.960 . S
C447 C444 1.511 . S
C447 H461 0.961 . S
C447 H462 0.961 . S
C447 H463 0.961 . S
C448 C449 1.370 . S
C448 C450 1.363 . S
C448 H464 0.931 . S
C449 C448 1.370 . S
C449 C453 1.408 . S
C450 C448 1.363 . S
C450 C451 1.370 . S
C450 C454 1.524 . S
C451 C443 1.503 . S
C451 C450 1.370 . S
C451 C452 1.403 . S
C452 C451 1.403 . S
C452 C453 1.404 . S
C452 C455 1.539 . S
C453 C449 1.408 . S
C453 C452 1.404 . S
C453 H465 0.930 . S
C454 C450 1.524 . S
C454 H466 0.956 . S
C454 H467 0.961 . S
C454 H468 0.961 . S
C455 C452 1.539 . S
C455 H469 0.958 . S
C455 H470 0.961 . S
C455 H471 0.960 . S
H456 C440 0.931 . S
H457 C445 0.929 . S
H458 C446 0.960 . S
H459 C446 0.962 . S
H460 C446 0.960 . S
H461 C447 0.961 . S
H462 C447 0.961 . S
H463 C447 0.961 . S
H464 C448 0.931 . S
H465 C453 0.930 . S
H466 C454 0.956 . S
H467 C454 0.961 . S
H468 C454 0.961 . S
H469 C455 0.958 . S
H470 C455 0.961 . S
H471 C455 0.960 . S
C472 C473 1.391 . S
C472 C474 1.394 . S
C472 H488 0.931 . S
C473 C472 1.391 . S
C473 C477 1.376 . S
C474 C472 1.394 . S
C474 C475 1.369 . S
C474 C478 1.531 . S
C475 C474 1.369 . S
C475 C476 1.410 . S
C475 C483 1.503 . S
C476 C475 1.410 . S
C476 C477 1.392 . S
C476 C479 1.511 . S
C477 C473 1.376 . S
C477 C476 1.392 . S
C477 H489 0.929 . S
C478 C474 1.531 . S
C478 H490 0.960 . S
C478 H491 0.962 . S
C478 H492 0.960 . S
C479 C476 1.511 . S
C479 H493 0.961 . S
C479 H494 0.961 . S
C479 H495 0.961 . S
C480 C481 1.370 . S
C480 C482 1.363 . S
C480 H496 0.931 . S
C481 C480 1.370 . S
C481 C485 1.408 . S
C482 C480 1.363 . S
C482 C483 1.370 . S
C482 C486 1.524 . S
C483 C475 1.503 . S
C483 C482 1.370 . S
C483 C484 1.403 . S
C484 C483 1.403 . S
C484 C485 1.404 . S
C484 C487 1.539 . S
C485 C481 1.408 . S
C485 C484 1.404 . S
C485 H497 0.930 . S
C486 C482 1.524 . S
C486 H498 0.956 . S
C486 H499 0.961 . S
C486 H500 0.961 . S
C487 C484 1.539 . S
C487 H501 0.958 . S
C487 H502 0.961 . S
C487 H503 0.960 . S
H488 C472 0.931 . S
H489 C477 0.929 . S
H490 C478 0.960 . S
H491 C478 0.962 . S
H492 C478 0.960 . S
H493 C479 0.961 . S
H494 C479 0.961 . S
H495 C479 0.961 . S
H496 C480 0.931 . S
H497 C485 0.930 . S
H498 C486 0.956 . S
H499 C486 0.961 . S
H500 C486 0.961 . S
H501 C487 0.958 . S
H502 C487 0.961 . S
H503 C487 0.960 . S
C504 C505 1.399 . S
C504 C506 1.394 . S
C504 H520 0.931 . S
C505 C504 1.399 . S
C505 C509 1.372 1_455 S
C506 C504 1.394 . S
C506 C507 1.369 1_455 S
C506 C510 1.531 . S
C507 C506 1.369 1_655 S
C507 C508 1.409 . S
C507 C515 1.503 . S
C508 C507 1.409 . S
C508 C509 1.392 . S
C508 C511 1.511 . S
C509 C505 1.372 1_655 S
C509 C508 1.392 . S
C509 H521 0.929 . S
C510 C506 1.531 . S
C510 H522 0.960 . S
C510 H523 0.962 1_455 S
C510 H524 0.960 . S
C511 C508 1.511 . S
C511 H525 0.961 . S
C511 H526 0.961 . S
C511 H527 0.961 1_655 S
C512 C513 1.370 . S
C512 C514 1.363 . S
C512 H528 0.931 . S
C513 C512 1.370 . S
C513 C517 1.408 1_655 S
C514 C512 1.363 . S
C514 C515 1.370 . S
C514 C518 1.524 . S
C515 C507 1.503 . S
C515 C514 1.370 . S
C515 C516 1.403 1_655 S
C516 C515 1.403 1_455 S
C516 C517 1.404 . S
C516 C519 1.539 . S
C517 C513 1.408 1_455 S
C517 C516 1.404 . S
C517 H529 0.930 . S
C518 C514 1.524 . S
C518 H530 0.956 . S
C518 H531 0.961 . S
C518 H532 0.961 . S
C519 C516 1.539 . S
C519 H533 0.958 . S
C519 H534 0.961 . S
C519 H535 0.960 . S
H520 C504 0.931 . S
H521 C509 0.929 . S
H522 C510 0.960 . S
H523 C510 0.962 1_655 S
H524 C510 0.960 . S
H525 C511 0.961 . S
H526 C511 0.961 . S
H527 C511 0.961 1_455 S
H528 C512 0.931 . S
H529 C517 0.930 . S
H530 C518 0.956 . S
H531 C518 0.961 . S
H532 C518 0.961 . S
H533 C519 0.958 . S
H534 C519 0.961 . S
H535 C519 0.960 . S
C536 C537 1.391 1_556 S
C536 C538 1.394 . S
C536 H552 0.931 . S
C537 C536 1.391 1_554 S
C537 C541 1.376 . S
C538 C536 1.394 . S
C538 C539 1.369 . S
C538 C542 1.531 . S
C539 C538 1.369 . S
C539 C540 1.410 . S
C539 C547 1.503 . S
C540 C539 1.410 . S
C540 C541 1.392 1_556 S
C540 C543 1.511 . S
C541 C537 1.376 . S
C541 C540 1.392 1_554 S
C541 H553 0.929 . S
C542 C538 1.531 . S
C542 H554 0.960 1_565 S
C542 H555 0.962 . S
C542 H556 0.960 1_565 S
C543 C540 1.511 . S
C543 H557 0.961 1_556 S
C543 H558 0.961 . S
C543 H559 0.961 1_556 S
C544 C545 1.370 . S
C544 C546 1.363 . S
C544 H560 0.931 . S
C545 C544 1.370 . S
C545 C549 1.408 1_565 S
C546 C544 1.363 . S
C546 C547 1.370 . S
C546 C550 1.524 . S
C547 C539 1.503 . S
C547 C546 1.370 . S
C547 C548 1.403 . S
C548 C547 1.403 . S
C548 C549 1.404 1_565 S
C548 C551 1.539 1_565 S
C549 C545 1.408 1_545 S
C549 C548 1.404 1_545 S
C549 H561 0.930 . S
C550 C546 1.524 . S
C550 H562 0.956 . S
C550 H563 0.961 . S
C550 H564 0.961 . S
C551 C548 1.539 1_545 S
C551 H565 0.958 . S
C551 H566 0.961 . S
C551 H567 0.960 1_546 S
H552 C536 0.931 . S
H553 C541 0.929 . S
H554 C542 0.960 1_545 S
H555 C542 0.962 . S
H556 C542 0.960 1_545 S
H557 C543 0.961 1_554 S
H558 C543 0.961 . S
H559 C543 0.961 1_554 S
H560 C544 0.931 . S
H561 C549 0.930 . S
H562 C550 0.956 . S
H563 C550 0.961 . S
H564 C550 0.961 . S
H565 C551 0.958 . S
H566 C551 0.961 . S
H567 C551 0.960 1_564 S
C568 C569 1.391 1_556 S
C568 C570 1.394 . S
C568 H584 0.931 . S
C569 C568 1.391 1_554 S
C569 C573 1.376 . S
C570 C568 1.394 . S
C570 C571 1.369 . S
C570 C574 1.531 . S
C571 C570 1.369 . S
C571 C572 1.410 . S
C571 C579 1.503 . S
C572 C571 1.410 . S
C572 C573 1.392 1_556 S
C572 C575 1.511 . S
C573 C569 1.376 . S
C573 C572 1.392 1_554 S
C573 H585 0.929 . S
C574 C570 1.531 . S
C574 H586 0.960 . S
C574 H587 0.962 . S
C574 H588 0.960 . S
C575 C572 1.511 . S
C575 H589 0.961 1_556 S
C575 H590 0.961 . S
C575 H591 0.961 . S
C576 C577 1.370 . S
C576 C578 1.363 . S
C576 H592 0.931 . S
C577 C576 1.370 . S
C577 C581 1.408 . S
C578 C576 1.363 . S
C578 C579 1.370 . S
C578 C582 1.524 . S
C579 C571 1.503 . S
C579 C578 1.370 . S
C579 C580 1.403 . S
C580 C579 1.403 . S
C580 C581 1.404 . S
C580 C583 1.539 . S
C581 C577 1.408 . S
C581 C580 1.404 . S
C581 H593 0.930 . S
C582 C578 1.524 . S
C582 H594 0.956 . S
C582 H595 0.961 1_556 S
C582 H596 0.961 . S
C583 C580 1.539 . S
C583 H597 0.958 . S
C583 H598 0.961 . S
C583 H599 0.960 . S
H584 C568 0.931 . S
H585 C573 0.929 . S
H586 C574 0.960 . S
H587 C574 0.962 . S
H588 C574 0.960 . S
H589 C575 0.961 1_554 S
H590 C575 0.961 . S
H591 C575 0.961 . S
H592 C576 0.931 . S
H593 C581 0.930 . S
H594 C582 0.956 . S
H595 C582 0.961 1_554 S
H596 C582 0.961 . S
H597 C583 0.958 . S
H598 C583 0.961 . S
H599 C583 0.960 . S
C600 C601 1.391 . S
C600 C602 1.394 1_554 S
C600 H616 0.931 . S
C601 C600 1.391 . S
C601 C605 1.376 . S
C602 C600 1.394 1_556 S
C602 C603 1.369 . S
C602 C606 1.531 . S
C603 C602 1.369 . S
C603 C604 1.410 1_556 S
C603 C611 1.503 . S
C604 C603 1.410 1_554 S
C604 C605 1.392 . S
C604 C607 1.511 . S
C605 C601 1.376 . S
C605 C604 1.392 . S
C605 H617 0.929 . S
C606 C602 1.531 . S
C606 H618 0.960 . S
C606 H619 0.962 . S
C606 H620 0.960 . S
C607 C604 1.511 . S
C607 H621 0.961 . S
C607 H622 0.961 1_554 S
C607 H623 0.961 . S
C608 C609 1.370 . S
C608 C610 1.363 . S
C608 H624 0.931 . S
C609 C608 1.370 . S
C609 C613 1.408 . S
C610 C608 1.363 . S
C610 C611 1.370 . S
C610 C614 1.524 . S
C611 C603 1.503 . S
C611 C610 1.370 . S
C611 C612 1.403 . S
C612 C611 1.403 . S
C612 C613 1.404 . S
C612 C615 1.539 1_556 S
C613 C609 1.408 . S
C613 C612 1.404 . S
C613 H625 0.930 . S
C614 C610 1.524 . S
C614 H626 0.956 . S
C614 H627 0.961 . S
C614 H628 0.961 . S
C615 C612 1.539 1_554 S
C615 H629 0.958 . S
C615 H630 0.961 . S
C615 H631 0.960 . S
H616 C600 0.931 . S
H617 C605 0.929 . S
H618 C606 0.960 . S
H619 C606 0.962 . S
H620 C606 0.960 . S
H621 C607 0.961 . S
H622 C607 0.961 1_556 S
H623 C607 0.961 . S
H624 C608 0.931 . S
H625 C613 0.930 . S
H626 C614 0.956 . S
H627 C614 0.961 . S
H628 C614 0.961 . S
H629 C615 0.958 . S
H630 C615 0.961 . S
H631 C615 0.960 . S
C632 C633 1.371 1_655 S
C632 C634 1.394 1_554 S
C632 H648 0.931 . S
C633 C632 1.371 1_455 S
C633 C637 1.396 . S
C634 C632 1.394 1_556 S
C634 C635 1.369 1_655 S
C634 C638 1.531 . S
C635 C634 1.369 1_455 S
C635 C636 1.410 . S
C635 C643 1.503 . S
C636 C635 1.410 . S
C636 C637 1.392 1_556 S
C636 C639 1.511 . S
C637 C633 1.396 . S
C637 C636 1.392 1_554 S
C637 H649 0.929 . S
C638 C634 1.531 . S
C638 H650 0.960 . S
C638 H651 0.962 . S
C638 H652 0.960 . S
C639 C636 1.511 . S
C639 H653 0.961 . S
C639 H654 0.961 . S
C639 H655 0.961 . S
C640 C641 1.370 . S
C640 C642 1.363 . S
C640 H656 0.931 . S
C641 C640 1.370 . S
C641 C645 1.408 . S
C642 C640 1.363 . S
C642 C643 1.370 . S
C642 C646 1.524 1_556 S
C643 C635 1.503 . S
C643 C642 1.370 . S
C643 C644 1.403 . S
C644 C643 1.403 . S
C644 C645 1.404 . S
C644 C647 1.539 1_455 S
C645 C641 1.408 . S
C645 C644 1.404 . S
C645 H657 0.930 . S
C646 C642 1.524 1_554 S
C646 H658 0.956 . S
C646 H659 0.961 . S
C646 H660 0.961 . S
C647 C644 1.539 1_655 S
C647 H661 0.958 . S
C647 H662 0.961 1_655 S
C647 H663 0.960 1_655 S
H648 C632 0.931 . S
H649 C637 0.929 . S
H650 C638 0.960 . S
H651 C638 0.962 . S
H652 C638 0.960 . S
H653 C639 0.961 . S
H654 C639 0.961 . S
H655 C639 0.961 . S
H656 C640 0.931 . S
H657 C645 0.930 . S
H658 C646 0.956 . S
H659 C646 0.961 . S
H660 C646 0.961 . S
H661 C647 0.958 . S
H662 C647 0.961 1_455 S
H663 C647 0.960 1_455 S
C664 C665 1.391 1_655 S
C664 C666 1.394 . S
C664 H680 0.931 . S
C665 C664 1.391 1_455 S
C665 C669 1.376 . S
C666 C664 1.394 . S
C666 C667 1.369 . S
C666 C670 1.531 . S
C667 C666 1.369 . S
C667 C668 1.410 1_655 S
C667 C675 1.503 . S
C668 C667 1.410 1_455 S
C668 C669 1.392 . S
C668 C671 1.511 . S
C669 C665 1.376 . S
C669 C668 1.392 . S
C669 H681 0.929 . S
C670 C666 1.531 . S
C670 H682 0.960 . S
C670 H683 0.962 . S
C670 H684 0.960 . S
C671 C668 1.511 . S
C671 H685 0.961 . S
C671 H686 0.961 . S
C671 H687 0.961 . S
C672 C673 1.370 . S
C672 C674 1.363 . S
C672 H688 0.931 . S
C673 C672 1.370 . S
C673 C677 1.433 . S
C674 C672 1.363 . S
C674 C675 1.370 . S
C674 C678 1.524 . S
C675 C667 1.503 . S
C675 C674 1.370 . S
C675 C676 1.403 1_655 S
C676 C675 1.403 1_455 S
C676 C677 1.395 1_455 S
C676 C679 1.539 . S
C677 C673 1.433 . S
C677 C676 1.395 1_655 S
C677 H689 0.916 1_655 S
C678 C674 1.524 . S
C678 H690 0.956 . S
C678 H691 0.961 . S
C678 H692 0.961 . S
C679 C676 1.539 . S
C679 H693 0.958 . S
C679 H694 0.961 . S
C679 H695 0.960 . S
H680 C664 0.931 . S
H681 C669 0.929 . S
H682 C670 0.960 . S
H683 C670 0.962 . S
H684 C670 0.960 . S
H685 C671 0.961 . S
H686 C671 0.961 . S
H687 C671 0.961 . S
H688 C672 0.931 . S
H689 C677 0.916 1_455 S
H690 C678 0.956 . S
H691 C678 0.961 . S
H692 C678 0.961 . S
H693 C679 0.958 . S
H694 C679 0.961 . S
H695 C679 0.960 . S
C696 C697 1.391 . S
C696 C698 1.394 . S
C696 H712 0.931 . S
C697 C696 1.391 . S
C697 C701 1.376 . S
C698 C696 1.394 . S
C698 C699 1.369 . S
C698 C702 1.531 . S
C699 C698 1.369 . S
C699 C700 1.410 . S
C699 C707 1.503 . S
C700 C699 1.410 . S
C700 C701 1.392 . S
C700 C703 1.511 . S
C701 C697 1.376 . S
C701 C700 1.392 . S
C701 H713 0.929 . S
C702 C698 1.531 . S
C702 H714 0.960 . S
C702 H715 0.962 . S
C702 H716 0.960 . S
C703 C700 1.511 . S
C703 H717 0.961 . S
C703 H718 0.961 . S
C703 H719 0.961 . S
C704 C705 1.370 . S
C704 C706 1.363 . S
C704 H720 0.931 1_545 S
C705 C704 1.370 . S
C705 C709 1.408 . S
C706 C704 1.363 . S
C706 C707 1.370 . S
C706 C710 1.524 . S
C707 C699 1.503 . S
C707 C706 1.370 . S
C707 C708 1.403 . S
C708 C707 1.403 . S
C708 C709 1.404 . S
C708 C711 1.539 . S
C709 C705 1.408 . S
C709 C708 1.404 . S
C709 H721 0.930 . S
C710 C706 1.524 . S
C710 H722 0.956 . S
C710 H723 0.961 . S
C710 H724 0.961 1_545 S
C711 C708 1.539 . S
C711 H725 0.958 . S
C711 H726 0.961 . S
C711 H727 0.960 . S
H712 C696 0.931 . S
H713 C701 0.929 . S
H714 C702 0.960 . S
H715 C702 0.962 . S
H716 C702 0.960 . S
H717 C703 0.961 . S
H718 C703 0.961 . S
H719 C703 0.961 . S
H720 C704 0.931 1_565 S
H721 C709 0.930 . S
H722 C710 0.956 . S
H723 C710 0.961 . S
H724 C710 0.961 1_565 S
H725 C711 0.958 . S
H726 C711 0.961 . S
H727 C711 0.960 . S
C728 C729 1.391 . S
C728 C730 1.394 . S
C728 H744 0.931 . S
C729 C728 1.391 . S
C729 C733 1.376 . S
C730 C728 1.394 . S
C730 C731 1.369 . S
C730 C734 1.531 . S
C731 C730 1.369 . S
C731 C732 1.410 . S
C731 C739 1.503 . S
C732 C731 1.410 . S
C732 C733 1.392 . S
C732 C735 1.511 . S
C733 C729 1.376 . S
C733 C732 1.392 . S
C733 H745 0.929 . S
C734 C730 1.531 . S
C734 H746 0.960 . S
C734 H747 0.962 . S
C734 H748 0.960 . S
C735 C732 1.511 . S
C735 H749 0.961 . S
C735 H750 0.961 . S
C735 H751 0.961 . S
C736 C737 1.370 . S
C736 C738 1.363 . S
C736 H752 0.931 . S
C737 C736 1.370 . S
C737 C741 1.408 . S
C738 C736 1.363 . S
C738 C739 1.370 . S
C738 C742 1.524 . S
C739 C731 1.503 . S
C739 C738 1.370 . S
C739 C740 1.403 . S
C740 C739 1.403 . S
C740 C741 1.404 . S
C740 C743 1.539 . S
C741 C737 1.408 . S
C741 C740 1.404 . S
C741 H753 0.930 . S
C742 C738 1.524 . S
C742 H754 0.956 . S
C742 H755 0.961 . S
C742 H756 0.961 . S
C743 C740 1.539 . S
C743 H757 0.958 . S
C743 H758 0.961 . S
C743 H759 0.960 . S
H744 C728 0.931 . S
H745 C733 0.929 . S
H746 C734 0.960 . S
H747 C734 0.962 . S
H748 C734 0.960 . S
H749 C735 0.961 . S
H750 C735 0.961 . S
H751 C735 0.961 . S
H752 C736 0.931 . S
H753 C741 0.930 . S
H754 C742 0.956 . S
H755 C742 0.961 . S
H756 C742 0.961 . S
H757 C743 0.958 . S
H758 C743 0.961 . S
H759 C743 0.960 . S
C760 C761 1.391 . S
C760 C762 1.394 . S
C760 H776 0.931 . S
C761 C760 1.391 . S
C761 C765 1.376 . S
C762 C760 1.394 . S
C762 C763 1.369 . S
C762 C766 1.531 . S
C763 C762 1.369 . S
C763 C764 1.410 . S
C763 C771 1.503 . S
C764 C763 1.410 . S
C764 C765 1.392 . S
C764 C767 1.511 . S
C765 C761 1.376 . S
C765 C764 1.392 . S
C765 H777 0.929 . S
C766 C762 1.531 . S
C766 H778 0.960 . S
C766 H779 0.962 . S
C766 H780 0.960 . S
C767 C764 1.511 . S
C767 H781 0.961 . S
C767 H782 0.961 . S
C767 H783 0.961 . S
C768 C769 1.370 . S
C768 C770 1.363 . S
C768 H784 0.931 . S
C769 C768 1.370 . S
C769 C773 1.408 . S
C770 C768 1.363 . S
C770 C771 1.370 . S
C770 C774 1.524 . S
C771 C763 1.503 . S
C771 C770 1.370 . S
C771 C772 1.403 . S
C772 C771 1.403 . S
C772 C773 1.404 . S
C772 C775 1.539 . S
C773 C769 1.408 . S
C773 C772 1.404 . S
C773 H785 0.930 . S
C774 C770 1.524 . S
C774 H786 0.956 . S
C774 H787 0.961 . S
C774 H788 0.961 . S
C775 C772 1.539 . S
C775 H789 0.958 . S
C775 H790 0.961 . S
C775 H791 0.960 . S
H776 C760 0.931 . S
H777 C765 0.929 . S
H778 C766 0.960 . S
H779 C766 0.962 . S
H780 C766 0.960 . S
H781 C767 0.961 . S
H782 C767 0.961 . S
H783 C767 0.961 . S
H784 C768 0.931 . S
H785 C773 0.930 . S
H786 C774 0.956 . S
H787 C774 0.961 . S
H788 C774 0.961 . S
H789 C775 0.958 . S
H790 C775 0.961 . S
H791 C775 0.960 . S
C792 C793 1.391 1_455 S
C792 C794 1.394 . S
C792 H808 0.931 . S
C793 C792 1.391 1_655 S
C793 C797 1.376 . S
C794 C792 1.394 . S
C794 C795 1.377 . S
C794 C798 1.531 . S
C795 C794 1.377 . S
C795 C796 1.399 1_455 S
C795 C803 1.507 . S
C796 C795 1.399 1_655 S
C796 C797 1.392 . S
C796 C799 1.511 . S
C797 C793 1.376 . S
C797 C796 1.392 . S
C797 H809 0.929 . S
C798 C794 1.531 . S
C798 H810 0.960 . S
C798 H811 0.962 . S
C798 H812 0.960 . S
C799 C796 1.511 . S
C799 H813 0.952 1_556 S
C799 H814 0.961 . S
C799 H815 0.961 . S
C800 C801 1.370 . S
C800 C802 1.363 . S
C800 H816 0.931 . S
C801 C800 1.370 . S
C801 C805 1.408 1_455 S
C802 C800 1.363 . S
C802 C803 1.370 . S
C802 C806 1.524 . S
C803 C795 1.507 . S
C803 C802 1.370 . S
C803 C804 1.403 1_455 S
C804 C803 1.403 1_655 S
C804 C805 1.404 . S
C804 C807 1.539 . S
C805 C801 1.408 1_655 S
C805 C804 1.404 . S
C805 H817 0.930 . S
C806 C802 1.524 . S
C806 H818 0.956 . S
C806 H819 0.961 . S
C806 H820 0.961 . S
C807 C804 1.539 . S
C807 H821 0.958 . S
C807 H822 0.961 . S
C807 H823 0.960 . S
H808 C792 0.931 . S
H809 C797 0.929 . S
H810 C798 0.960 . S
H811 C798 0.962 . S
H812 C798 0.960 . S
H813 C799 0.952 1_554 S
H814 C799 0.961 . S
H815 C799 0.961 . S
H816 C800 0.931 . S
H817 C805 0.930 . S
H818 C806 0.956 . S
H819 C806 0.961 . S
H820 C806 0.961 . S
H821 C807 0.958 . S
H822 C807 0.961 . S
H823 C807 0.960 . S
C824 C825 1.391 . S
C824 C826 1.394 . S
C824 H840 0.931 . S
C825 C824 1.391 . S
C825 C829 1.376 . S
C826 C824 1.394 . S
C826 C827 1.369 . S
C826 C830 1.531 . S
C827 C826 1.369 . S
C827 C828 1.410 . S
C827 C835 1.503 . S
C828 C827 1.410 . S
C828 C829 1.392 . S
C828 C831 1.511 . S
C829 C825 1.376 . S
C829 C828 1.392 . S
C829 H841 0.929 . S
C830 C826 1.531 . S
C830 H842 0.960 . S
C830 H843 0.962 . S
C830 H844 0.960 . S
C831 C828 1.511 . S
C831 H845 0.961 1_556 S
C831 H846 0.961 . S
C831 H847 0.961 . S
C832 C833 1.370 . S
C832 C834 1.363 1_545 S
C832 H848 0.931 . S
C833 C832 1.370 . S
C833 C837 1.408 1_545 S
C834 C832 1.363 1_565 S
C834 C835 1.370 . S
C834 C838 1.526 . S
C835 C827 1.503 . S
C835 C834 1.370 . S
C835 C836 1.403 . S
C836 C835 1.403 . S
C836 C837 1.404 . S
C836 C839 1.539 . S
C837 C833 1.408 1_565 S
C837 C836 1.404 . S
C837 H849 0.930 . S
C838 C834 1.526 . S
C838 H850 0.956 1_565 S
C838 H851 0.963 . S
C838 H852 0.957 1_565 S
C839 C836 1.539 . S
C839 H853 0.958 . S
C839 H854 0.961 . S
C839 H855 0.960 . S
H840 C824 0.931 . S
H841 C829 0.929 . S
H842 C830 0.960 . S
H843 C830 0.962 . S
H844 C830 0.960 . S
H845 C831 0.961 1_554 S
H846 C831 0.961 . S
H847 C831 0.961 . S
H848 C832 0.931 . S
H849 C837 0.930 . S
H850 C838 0.956 1_545 S
H851 C838 0.963 . S
H852 C838 0.957 1_545 S
H853 C839 0.958 . S
H854 C839 0.961 . S
H855 C839 0.960 . S
C856 C857 1.391 . S
C856 C858 1.394 . S
C856 H872 0.931 . S
C857 C856 1.391 . S
C857 C861 1.376 . S
C858 C856 1.394 . S
C858 C859 1.369 . S
C858 C862 1.531 . S
C859 C858 1.369 . S
C859 C860 1.410 . S
C859 C867 1.503 . S
C860 C859 1.410 . S
C860 C861 1.392 . S
C860 C863 1.511 . S
C861 C857 1.376 . S
C861 C860 1.392 . S
C861 H873 0.929 . S
C862 C858 1.531 . S
C862 H874 0.960 . S
C862 H875 0.962 . S
C862 H876 0.960 1_556 S
C863 C860 1.511 . S
C863 H877 0.961 . S
C863 H878 0.961 . S
C863 H879 0.961 . S
C864 C865 1.370 . S
C864 C866 1.363 . S
C864 H880 0.931 . S
C865 C864 1.370 . S
C865 C869 1.408 . S
C866 C864 1.363 . S
C866 C867 1.370 . S
C866 C870 1.524 . S
C867 C859 1.503 . S
C867 C866 1.370 . S
C867 C868 1.403 . S
C868 C867 1.403 . S
C868 C869 1.404 . S
C868 C871 1.539 . S
C869 C865 1.408 . S
C869 C868 1.404 . S
C869 H881 0.930 . S
C870 C866 1.524 . S
C870 H882 0.956 . S
C870 H883 0.961 . S
C870 H884 0.961 . S
C871 C868 1.539 . S
C871 H885 0.958 1_556 S
C871 H886 0.961 . S
C871 H887 0.960 . S
H872 C856 0.931 . S
H873 C861 0.929 . S
H874 C862 0.960 . S
H875 C862 0.962 . S
H876 C862 0.960 1_554 S
H877 C863 0.961 . S
H878 C863 0.961 . S
H879 C863 0.961 . S
H880 C864 0.931 . S
H881 C869 0.930 . S
H882 C870 0.956 . S
H883 C870 0.961 . S
H884 C870 0.961 . S
H885 C871 0.958 1_554 S
H886 C871 0.961 . S
H887 C871 0.960 . S
C888 C889 1.391 . S
C888 C890 1.394 . S
C888 H904 0.931 . S
C889 C888 1.391 . S
C889 C893 1.376 . S
C890 C888 1.394 . S
C890 C891 1.369 . S
C890 C894 1.531 . S
C891 C890 1.369 . S
C891 C892 1.410 . S
C891 C899 1.503 . S
C892 C891 1.410 . S
C892 C893 1.392 . S
C892 C895 1.511 . S
C893 C889 1.376 . S
C893 C892 1.392 . S
C893 H905 0.929 . S
C894 C890 1.531 . S
C894 H906 0.960 . S
C894 H907 0.962 . S
C894 H908 0.960 . S
C895 C892 1.511 . S
C895 H909 0.961 . S
C895 H910 0.961 . S
C895 H911 0.961 . S
C896 C897 1.370 . S
C896 C898 1.363 . S
C896 H912 0.931 . S
C897 C896 1.370 . S
C897 C901 1.408 . S
C898 C896 1.363 . S
C898 C899 1.370 . S
C898 C902 1.524 . S
C899 C891 1.503 . S
C899 C898 1.370 . S
C899 C900 1.403 . S
C900 C899 1.403 . S
C900 C901 1.404 . S
C900 C903 1.539 . S
C901 C897 1.408 . S
C901 C900 1.404 . S
C901 H913 0.930 . S
C902 C898 1.524 . S
C902 H914 0.956 . S
C902 H915 0.961 . S
C902 H916 0.961 . S
C903 C900 1.539 . S
C903 H917 0.958 1_556 S
C903 H918 0.961 1_556 S
C903 H919 0.960 1_556 S
H904 C888 0.931 . S
H905 C893 0.929 . S
H906 C894 0.960 . S
H907 C894 0.962 . S
H908 C894 0.960 . S
H909 C895 0.961 . S
H910 C895 0.961 . S
H911 C895 0.961 . S
H912 C896 0.931 . S
H913 C901 0.930 . S
H914 C902 0.956 . S
H915 C902 0.961 . S
H916 C902 0.961 . S
H917 C903 0.958 1_554 S
H918 C903 0.961 1_554 S
H919 C903 0.960 1_554 S
C920 C921 1.391 1_655 S
C920 C922 1.394 . S
C920 H936 0.931 . S
C921 C920 1.391 1_455 S
C921 C925 1.376 . S
C922 C920 1.394 . S
C922 C923 1.369 1_655 S
C922 C926 1.531 1_554 S
C923 C922 1.369 1_455 S
C923 C924 1.410 . S
C923 C931 1.503 . S
C924 C923 1.410 . S
C924 C925 1.392 . S
C924 C927 1.511 . S
C925 C921 1.376 . S
C925 C924 1.392 . S
C925 H937 0.929 . S
C926 C922 1.531 1_556 S
C926 H938 0.960 . S
C926 H939 0.962 1_556 S
C926 H940 0.960 . S
C927 C924 1.511 . S
C927 H941 0.961 . S
C927 H942 0.961 . S
C927 H943 0.961 . S
C928 C929 1.370 1_654 S
C928 C930 1.363 . S
C928 H944 0.931 . S
C929 C928 1.370 1_456 S
C929 C933 1.408 . S
C930 C928 1.363 . S
C930 C931 1.370 1_655 S
C930 C934 1.524 . S
C931 C923 1.503 . S
C931 C930 1.370 1_455 S
C931 C932 1.403 1_554 S
C932 C931 1.403 1_556 S
C932 C933 1.404 . S
C932 C935 1.539 . S
C933 C929 1.408 . S
C933 C932 1.404 . S
C933 H945 0.930 . S
C934 C930 1.524 . S
C934 H946 0.956 . S
C934 H947 0.961 . S
C934 H948 0.961 . S
C935 C932 1.539 . S
C935 H949 0.958 . S
C935 H950 0.961 . S
C935 H951 0.960 . S
H936 C920 0.931 . S
H937 C925 0.929 . S
H938 C926 0.960 . S
H939 C926 0.962 1_554 S
H940 C926 0.960 . S
H941 C927 0.961 . S
H942 C927 0.961 . S
H943 C927 0.961 . S
H944 C928 0.931 . S
H945 C933 0.930 . S
H946 C934 0.956 . S
H947 C934 0.961 . S
H948 C934 0.961 . S
H949 C935 0.958 . S
H950 C935 0.961 . S
H951 C935 0.960 . S
C952 C953 1.391 . S
C952 C954 1.394 . S
C952 H968 0.931 . S
C953 C952 1.391 . S
C953 C957 1.376 . S
C954 C952 1.394 . S
C954 C955 1.369 . S
C954 C958 1.531 . S
C955 C954 1.369 . S
C955 C956 1.410 . S
C955 C963 1.503 . S
C956 C955 1.410 . S
C956 C957 1.392 . S
C956 C959 1.511 . S
C957 C953 1.376 . S
C957 C956 1.392 . S
C957 H969 0.929 . S
C958 C954 1.531 . S
C958 H970 0.960 . S
C958 H971 0.962 . S
C958 H972 0.960 . S
C959 C956 1.511 . S
C959 H973 0.961 1_554 S
C959 H974 0.961 1_554 S
C959 H975 0.961 . S
C960 C961 1.370 . S
C960 C962 1.363 1_556 S
C960 H976 0.931 . S
C961 C960 1.370 . S
C961 C965 1.408 1_556 S
C962 C960 1.363 1_554 S
C962 C963 1.370 . S
C962 C966 1.524 . S
C963 C955 1.503 . S
C963 C962 1.370 . S
C963 C964 1.403 . S
C964 C963 1.403 . S
C964 C965 1.404 . S
C964 C967 1.539 . S
C965 C961 1.408 1_554 S
C965 C964 1.404 . S
C965 H977 0.930 . S
C966 C962 1.524 . S
C966 H978 0.956 . S
C966 H979 0.961 1_554 S
C966 H980 0.961 1_554 S
C967 C964 1.539 . S
C967 H981 0.958 . S
C967 H982 0.961 . S
C967 H983 0.960 . S
H968 C952 0.931 . S
H969 C957 0.929 . S
H970 C958 0.960 . S
H971 C958 0.962 . S
H972 C958 0.960 . S
H973 C959 0.961 1_556 S
H974 C959 0.961 1_556 S
H975 C959 0.961 . S
H976 C960 0.931 . S
H977 C965 0.930 . S
H978 C966 0.956 . S
H979 C966 0.961 1_556 S
H980 C966 0.961 1_556 S
H981 C967 0.958 . S
H982 C967 0.961 . S
H983 C967 0.960 . S
C984 C985 1.391 . S
C984 C986 1.394 . S
C984 H1000 0.931 . S
C985 C984 1.391 . S
C985 C989 1.376 . S
C986 C984 1.394 . S
C986 C987 1.369 . S
C986 C990 1.531 1_554 S
C987 C986 1.369 . S
C987 C988 1.410 . S
C987 C995 1.503 1_554 S
C988 C987 1.410 . S
C988 C989 1.392 . S
C988 C991 1.511 . S
C989 C985 1.376 . S
C989 C988 1.392 . S
C989 H1001 0.929 . S
C990 C986 1.531 1_556 S
C990 H1002 0.960 . S
C990 H1003 0.962 1_556 S
C990 H1004 0.960 . S
C991 C988 1.511 . S
C991 H1005 0.961 . S
C991 H1006 0.961 . S
C991 H1007 0.961 . S
C992 C993 1.370 . S
C992 C994 1.363 1_556 S
C992 H1008 0.931 . S
C993 C992 1.370 . S
C993 C997 1.408 . S
C994 C992 1.363 1_554 S
C994 C995 1.370 1_554 S
C994 C998 1.524 . S
C995 C987 1.503 1_556 S
C995 C994 1.370 1_556 S
C995 C996 1.403 . S
C996 C995 1.403 . S
C996 C997 1.404 . S
C996 C999 1.539 . S
C997 C993 1.408 . S
C997 C996 1.404 . S
C997 H1009 0.930 . S
C998 C994 1.524 . S
C998 H1010 0.956 . S
C998 H1011 0.961 . S
C998 H1012 0.961 . S
C999 C996 1.539 . S
C999 H1013 0.958 . S
C999 H1014 0.961 . S
C999 H1015 0.960 . S
H1000 C984 0.931 . S
H1001 C989 0.929 . S
H1002 C990 0.960 . S
H1003 C990 0.962 1_554 S
H1004 C990 0.960 . S
H1005 C991 0.961 . S
H1006 C991 0.961 . S
H1007 C991 0.961 . S
H1008 C992 0.931 . S
H1009 C997 0.930 . S
H1010 C998 0.956 . S
H1011 C998 0.961 . S
H1012 C998 0.961 . S
H1013 C999 0.958 . S
H1014 C999 0.961 . S
H1015 C999 0.960 . S
C1016 C1017 1.391 . S
C1016 C1018 1.394 . S
C1016 H1032 0.931 . S
C1017 C1016 1.391 . S
C1017 C1021 1.376 . S
C1018 C1016 1.394 . S
C1018 C1019 1.369 . S
C1018 C1022 1.531 . S
C1019 C1018 1.369 . S
C1019 C1020 1.410 . S
C1019 C1027 1.503 . S
C1020 C1019 1.410 . S
C1020 C1021 1.392 . S
C1020 C1023 1.511 . S
C1021 C1017 1.376 . S
C1021 C1020 1.392 . S
C1021 H1033 0.929 . S
C1022 C1018 1.531 . S
C1022 H1034 0.960 . S
C1022 H1035 0.962 . S
C1022 H1036 0.960 . S
C1023 C1020 1.511 . S
C1023 H1037 0.961 . S
C1023 H1038 0.961 1_554 S
C1023 H1039 0.961 . S
C1024 C1025 1.370 . S
C1024 C1026 1.363 . S
C1024 H1040 0.931 . S
C1025 C1024 1.370 . S
C1025 C1029 1.408 . S
C1026 C1024 1.363 . S
C1026 C1027 1.370 1_556 S
C1026 C1030 1.524 . S
C1027 C1019 1.503 . S
C1027 C1026 1.370 1_554 S
C1027 C1028 1.403 . S
C1028 C1027 1.403 . S
C1028 C1029 1.404 1_554 S
C1028 C1031 1.539 . S
C1029 C1025 1.408 . S
C1029 C1028 1.404 1_556 S
C1029 H1041 0.930 . S
C1030 C1026 1.524 . S
C1030 H1042 0.956 . S
C1030 H1043 0.961 . S
C1030 H1044 0.961 . S
C1031 C1028 1.539 . S
C1031 H1045 0.958 . S
C1031 H1046 0.961 . S
C1031 H1047 0.960 . S
H1032 C1016 0.931 . S
H1033 C1021 0.929 . S
H1034 C1022 0.960 . S
H1035 C1022 0.962 . S
H1036 C1022 0.960 . S
H1037 C1023 0.961 . S
H1038 C1023 0.961 1_556 S
H1039 C1023 0.961 . S
H1040 C1024 0.931 . S
H1041 C1029 0.930 . S
H1042 C1030 0.956 . S
H1043 C1030 0.961 . S
H1044 C1030 0.961 . S
H1045 C1031 0.958 . S
H1046 C1031 0.961 . S
H1047 C1031 0.960 . S
C1048 C1049 1.388 1_655 S
C1048 C1050 1.394 . S
C1048 H1064 0.934 . S
C1049 C1048 1.388 1_455 S
C1049 C1053 1.381 . S
C1050 C1048 1.394 . S
C1050 C1051 1.363 1_655 S
C1050 C1054 1.535 . S
C1051 C1050 1.363 1_455 S
C1051 C1052 1.411 . S
C1051 C1059 1.502 1_455 S
C1052 C1051 1.411 . S
C1052 C1053 1.392 . S
C1052 C1055 1.511 . S
C1053 C1049 1.381 . S
C1053 C1052 1.392 . S
C1053 H1065 0.929 . S
C1054 C1050 1.535 . S
C1054 H1066 0.960 1_655 S
C1054 H1067 0.962 . S
C1054 H1068 0.960 1_655 S
C1055 C1052 1.511 . S
C1055 H1069 0.961 1_455 S
C1055 H1070 0.961 1_455 S
C1055 H1071 0.961 . S
C1056 C1057 1.370 . S
C1056 C1058 1.363 . S
C1056 H1072 0.931 . S
C1057 C1056 1.370 . S
C1057 C1061 1.408 1_655 S
C1058 C1056 1.363 . S
C1058 C1059 1.370 . S
C1058 C1062 1.524 . S
C1059 C1051 1.502 1_655 S
C1059 C1058 1.370 . S
C1059 C1060 1.403 1_655 S
C1060 C1059 1.403 1_455 S
C1060 C1061 1.404 . S
C1060 C1063 1.539 . S
C1061 C1057 1.408 1_455 S
C1061 C1060 1.404 . S
C1061 H1073 0.930 . S
C1062 C1058 1.524 . S
C1062 H1074 0.956 . S
C1062 H1075 0.961 . S
C1062 H1076 0.961 . S
C1063 C1060 1.539 . S
C1063 H1077 0.958 . S
C1063 H1078 0.961 . S
C1063 H1079 0.960 . S
H1064 C1048 0.934 . S
H1065 C1053 0.929 . S
H1066 C1054 0.960 1_455 S
H1067 C1054 0.962 . S
H1068 C1054 0.960 1_455 S
H1069 C1055 0.961 1_655 S
H1070 C1055 0.961 1_655 S
H1071 C1055 0.961 . S
H1072 C1056 0.931 . S
H1073 C1061 0.930 . S
H1074 C1062 0.956 . S
H1075 C1062 0.961 . S
H1076 C1062 0.961 . S
H1077 C1063 0.958 . S
H1078 C1063 0.961 . S
H1079 C1063 0.960 . S
C1080 C1081 1.391 . S
C1080 C1082 1.394 . S
C1080 H1096 0.931 . S
C1081 C1080 1.391 . S
C1081 C1085 1.376 . S
C1082 C1080 1.394 . S
C1082 C1083 1.369 . S
C1082 C1086 1.531 . S
C1083 C1082 1.369 . S
C1083 C1084 1.410 . S
C1083 C1091 1.503 . S
C1084 C1083 1.410 . S
C1084 C1085 1.392 . S
C1084 C1087 1.511 . S
C1085 C1081 1.376 . S
C1085 C1084 1.392 . S
C1085 H1097 0.929 . S
C1086 C1082 1.531 . S
C1086 H1098 0.960 . S
C1086 H1099 0.962 . S
C1086 H1100 0.960 . S
C1087 C1084 1.511 . S
C1087 H1101 0.961 . S
C1087 H1102 0.961 . S
C1087 H1103 0.961 . S
C1088 C1089 1.370 . S
C1088 C1090 1.363 . S
C1088 H1104 0.916 1_565 S
C1089 C1088 1.370 . S
C1089 C1093 1.408 . S
C1090 C1088 1.363 . S
C1090 C1091 1.370 . S
C1090 C1094 1.524 . S
C1091 C1083 1.503 . S
C1091 C1090 1.370 . S
C1091 C1092 1.403 . S
C1092 C1091 1.403 . S
C1092 C1093 1.404 . S
C1092 C1095 1.539 . S
C1093 C1089 1.408 . S
C1093 C1092 1.404 . S
C1093 H1105 0.930 . S
C1094 C1090 1.524 . S
C1094 H1106 0.956 . S
C1094 H1107 0.961 . S
C1094 H1108 0.961 1_565 S
C1095 C1092 1.539 . S
C1095 H1109 0.958 . S
C1095 H1110 0.961 . S
C1095 H1111 0.960 . S
H1096 C1080 0.931 . S
H1097 C1085 0.929 . S
H1098 C1086 0.960 . S
H1099 C1086 0.962 . S
H1100 C1086 0.960 . S
H1101 C1087 0.961 . S
H1102 C1087 0.961 . S
H1103 C1087 0.961 . S
H1104 C1088 0.916 1_545 S
H1105 C1093 0.930 . S
H1106 C1094 0.956 . S
H1107 C1094 0.961 . S
H1108 C1094 0.961 1_545 S
H1109 C1095 0.958 . S
H1110 C1095 0.961 . S
H1111 C1095 0.960 . S
C1112 C1113 1.391 . S
C1112 C1114 1.394 . S
C1112 H1128 0.931 . S
C1113 C1112 1.391 . S
C1113 C1117 1.376 . S
C1114 C1112 1.394 . S
C1114 C1115 1.369 . S
C1114 C1118 1.531 . S
C1115 C1114 1.369 . S
C1115 C1116 1.410 . S
C1115 C1123 1.503 . S
C1116 C1115 1.410 . S
C1116 C1117 1.392 . S
C1116 C1119 1.511 . S
C1117 C1113 1.376 . S
C1117 C1116 1.392 . S
C1117 H1129 0.929 . S
C1118 C1114 1.531 . S
C1118 H1130 0.960 . S
C1118 H1131 0.962 . S
C1118 H1132 0.960 . S
C1119 C1116 1.511 . S
C1119 H1133 0.961 . S
C1119 H1134 0.961 . S
C1119 H1135 0.961 . S
C1120 C1121 1.370 . S
C1120 C1122 1.363 . S
C1120 H1136 0.931 . S
C1121 C1120 1.370 . S
C1121 C1125 1.408 . S
C1122 C1120 1.363 . S
C1122 C1123 1.370 . S
C1122 C1126 1.524 . S
C1123 C1115 1.503 . S
C1123 C1122 1.370 . S
C1123 C1124 1.403 . S
C1124 C1123 1.403 . S
C1124 C1125 1.404 . S
C1124 C1127 1.539 . S
C1125 C1121 1.408 . S
C1125 C1124 1.404 . S
C1125 H1137 0.930 . S
C1126 C1122 1.524 . S
C1126 H1138 0.956 . S
C1126 H1139 0.961 . S
C1126 H1140 0.961 . S
C1127 C1124 1.539 . S
C1127 H1141 0.958 . S
C1127 H1142 0.961 . S
C1127 H1143 0.960 . S
H1128 C1112 0.931 . S
H1129 C1117 0.929 . S
H1130 C1118 0.960 . S
H1131 C1118 0.962 . S
H1132 C1118 0.960 . S
H1133 C1119 0.961 . S
H1134 C1119 0.961 . S
H1135 C1119 0.961 . S
H1136 C1120 0.931 . S
H1137 C1125 0.930 . S
H1138 C1126 0.956 . S
H1139 C1126 0.961 . S
H1140 C1126 0.961 . S
H1141 C1127 0.958 . S
H1142 C1127 0.961 . S
H1143 C1127 0.960 . S
C1144 C1145 1.391 . S
C1144 C1146 1.394 . S
C1144 H1160 0.931 . S
C1145 C1144 1.391 . S
C1145 C1149 1.376 . S
C1146 C1144 1.394 . S
C1146 C1147 1.369 . S
C1146 C1150 1.531 . S
C1147 C1146 1.369 . S
C1147 C1148 1.410 . S
C1147 C1155 1.503 . S
C1148 C1147 1.410 . S
C1148 C1149 1.392 . S
C1148 C1151 1.511 . S
C1149 C1145 1.376 . S
C1149 C1148 1.392 . S
C1149 H1161 0.929 . S
C1150 C1146 1.531 . S
C1150 H1162 0.960 . S
C1150 H1163 0.962 . S
C1150 H1164 0.960 . S
C1151 C1148 1.511 . S
C1151 H1165 0.961 . S
C1151 H1166 0.961 . S
C1151 H1167 0.961 . S
C1152 C1153 1.370 . S
C1152 C1154 1.363 . S
C1152 H1168 0.931 . S
C1153 C1152 1.370 . S
C1153 C1157 1.408 . S
C1154 C1152 1.363 . S
C1154 C1155 1.370 . S
C1154 C1158 1.524 . S
C1155 C1147 1.503 . S
C1155 C1154 1.370 . S
C1155 C1156 1.403 . S
C1156 C1155 1.403 . S
C1156 C1157 1.404 . S
C1156 C1159 1.539 . S
C1157 C1153 1.408 . S
C1157 C1156 1.404 . S
C1157 H1169 0.930 . S
C1158 C1154 1.524 . S
C1158 H1170 0.956 . S
C1158 H1171 0.961 . S
C1158 H1172 0.961 . S
C1159 C1156 1.539 . S
C1159 H1173 0.958 . S
C1159 H1174 0.961 . S
C1159 H1175 0.960 . S
H1160 C1144 0.931 . S
H1161 C1149 0.929 . S
H1162 C1150 0.960 . S
H1163 C1150 0.962 . S
H1164 C1150 0.960 . S
H1165 C1151 0.961 . S
H1166 C1151 0.961 . S
H1167 C1151 0.961 . S
H1168 C1152 0.931 . S
H1169 C1157 0.930 . S
H1170 C1158 0.956 . S
H1171 C1158 0.961 . S
H1172 C1158 0.961 . S
H1173 C1159 0.958 . S
H1174 C1159 0.961 . S
H1175 C1159 0.960 . S
C409 C241 1.821 . S
C417 C298 1.861 . S
C449 C328 1.747 . S
C441 C277 1.715 . S
C481 N362 1.752 . S
C473 C169 1.747 . S
C513 N392 1.353 . S
C505 C205 1.387 . S
C545 C289 1.857 1_565 S
C537 C97 1.778 . S
C569 C133 1.714 . S
C577 C319 1.746 . S
C601 C25 1.676 . S
C609 N354 1.737 . S
C633 C61 1.341 . S
C641 N384 1.375 . S
C673 C304 0.464 . S
C665 C211 0.484 . S
C705 C334 0.624 . S
C697 C247 0.721 . S
C737 C375 0.528 . S
C729 C253 0.589 . S
C761 C175 0.539 . S
C769 C405 0.637 . S
C793 C67 0.687 1_655 S
C801 C315 0.424 . S
C833 C345 0.622 . S
C825 C103 0.792 . S
C865 C364 0.555 . S
C857 C109 0.521 . S
C889 C31 0.595 . S
C897 C394 0.646 . S
C921 C181 1.660 . S
C929 N294 1.702 . S
C953 C217 1.771 . S
C961 N324 1.826 . S
C993 C349 1.890 . S
C985 C283 1.828 . S
C1025 C379 2.141 . S
C1017 C145 2.026 . S
C1049 C37 1.648 . S
C1057 N302 1.685 . S
C1089 N332 1.842 . S
C1081 C73 1.777 . S
C1121 C358 1.898 . S
C1113 C139 1.741 . S
C1145 C1 1.989 . S
C1153 C388 2.144 . S
