# Generated by pormake.
# Topology zzz, (3,6)-cn, num edge types: 1
# Building blocks:
#     Node 0, Type 0, BuildingBlock: KAKCAD_clean_linker_0, # of connection points: 3
#     Node 1, Type 0, BuildingBlock: KAKCAD_clean_linker_0, # of connection points: 3
#     Node 2, Type 0, BuildingBlock: KAKCAD_clean_linker_0, # of connection points: 3
#     Node 3, Type 0, BuildingBlock: KAKCAD_clean_linker_0, # of connection points: 3
#     Node 4, Type 0, BuildingBlock: KAKCAD_clean_linker_0, # of connection points: 3
#     Node 5, Type 0, BuildingBlock: KAKCAD_clean_linker_0, # of connection points: 3
#     Node 6, Type 0, BuildingBlock: KAKCAD_clean_linker_0, # of connection points: 3
#     Node 7, Type 0, BuildingBlock: KAKCAD_clean_linker_0, # of connection points: 3
#     Node 8, Type 1, BuildingBlock: LEVNOQ01_clean_sbu_1, # of connection points: 6
#     Node 9, Type 1, BuildingBlock: LEVNOQ01_clean_sbu_1, # of connection points: 6
#     Node 10, Type 1, BuildingBlock: LEVNOQ01_clean_sbu_1, # of connection points: 6
#     Node 11, Type 1, BuildingBlock: LEVNOQ01_clean_sbu_1, # of connection points: 6
#     Edge 12, Type (0, 1), None
#     Edge 13, Type (0, 1), None
#     Edge 14, Type (0, 1), None
#     Edge 15, Type (0, 1), None
#     Edge 16, Type (0, 1), None
#     Edge 17, Type (0, 1), None
#     Edge 18, Type (0, 1), None
#     Edge 19, Type (0, 1), None
#     Edge 20, Type (0, 1), None
#     Edge 21, Type (0, 1), None
#     Edge 22, Type (0, 1), None
#     Edge 23, Type (0, 1), None
#     Edge 24, Type (0, 1), None
#     Edge 25, Type (0, 1), None
#     Edge 26, Type (0, 1), None
#     Edge 27, Type (0, 1), None
#     Edge 28, Type (0, 1), None
#     Edge 29, Type (0, 1), None
#     Edge 30, Type (0, 1), None
#     Edge 31, Type (0, 1), None
#     Edge 32, Type (0, 1), None
#     Edge 33, Type (0, 1), None
#     Edge 34, Type (0, 1), None
#     Edge 35, Type (0, 1), None
# Relax obj value: 0.306
# Max RMSD: 0.219
# Mean RMSD: 0.206
data_MOF--net-zzz--node1-LEVNOQ01_clean_sbu_1--node2-KAKCAD_clean_linker_0--edge1-none
_symmetry_space_group_name_H-M    P1
_symmetry_Int_Tables_number       1
_symmetry_cell_setting            triclinic
loop_
_symmetry_equiv_pos_as_xyz
'x, y, z'
_cell_length_a     28.695451
_cell_length_b     31.596235
_cell_length_c     11.748506
_cell_angle_alpha  90.070507
_cell_angle_beta   90.184837
_cell_angle_gamma 86.65937
loop_
_atom_site_label
_atom_site_type_symbol
_atom_site_fract_x
_atom_site_fract_y
_atom_site_fract_z
_atom_type_partial_charge
C0 C 0.91256 0.56515 0.92731 0.0
C1 C 0.92637 0.5273 0.98608 0.0
C2 C 0.87935 0.59419 0.97263 0.0
C3 C 0.8601 0.58635 0.07847 0.0
C4 C 0.87425 0.54905 0.13852 0.0
C5 C 0.90685 0.51943 0.09201 0.0
C6 C 0.82344 0.61525 0.12706 0.0
C7 C 0.77785 0.61273 0.08727 0.0
C8 C 0.74009 0.61635 0.16338 0.0
C9 C 0.7496 0.62193 0.28068 0.0
C10 C 0.79592 0.62704 0.31828 0.0
C11 C 0.83113 0.62956 0.23673 0.0
C12 C 0.81287 0.61164 0.43148 0.0
C13 C 0.8525 0.6291 0.48025 0.0
C14 C 0.80276 0.57024 0.46237 0.0
C15 C 0.83513 0.5448 0.52432 0.0
C16 C 0.87824 0.56018 0.55688 0.0
C17 C 0.69526 0.60053 0.12216 0.0
C18 C 0.67612 0.61513 0.01764 0.0
C19 C 0.68029 0.56262 0.16772 0.0
C20 C 0.65249 0.53687 0.10274 0.0
C21 C 0.63839 0.54893 -0.00782 0.0
C22 C 0.64756 0.58954 0.95319 0.0
C23 C 0.88555 0.60325 0.5399 0.0
H24 H 0.92622 0.57181 0.84376 0.0
H25 H 0.86847 0.62241 0.92491 0.0
H26 H 0.85911 0.5424 0.22053 0.0
H27 H 0.91647 0.49052 0.13797 0.0
H28 H 0.77251 0.60095 0.00167 0.0
H29 H 0.86727 0.63075 0.26358 0.0
H30 H 0.72229 0.61796 0.34261 0.0
H31 H 0.86105 0.66107 0.45881 0.0
H32 H 0.7728 0.55558 0.42659 0.0
H33 H 0.82779 0.51201 0.53889 0.0
H34 H 0.68728 0.6442 0.98042 0.0
H35 H 0.69468 0.5503 0.24721 0.0
H36 H 0.91766 0.61645 0.56793 0.0
H37 H 0.63724 0.59947 0.86809 0.0
H38 H 0.64563 0.50569 0.13481 0.0
C39 C 0.04077 0.89203 0.92017 0.0
C40 C 0.07821 0.91612 0.95444 0.0
C41 C 0.03388 0.85324 0.96926 0.0
C42 C 0.0635 0.83777 0.05585 0.0
C43 C 0.10128 0.86125 0.0908 0.0
C44 C 0.10927 0.90001 0.03825 0.0
C45 C 0.04799 0.8021 0.12255 0.0
C46 C 0.03787 0.76409 0.06981 0.0
C47 C 1.01156 0.73422 0.12558 0.0
C48 C 0.99427 0.74373 0.23694 0.0
C49 C 1.0041 0.78298 0.28884 0.0
C50 C 0.0324 0.81056 0.23203 0.0
C51 C 0.98603 0.79952 0.39986 0.0
C52 C 0.95591 0.83659 0.3965 0.0
C53 C 1.01603 0.79397 0.49381 0.0
C54 C 1.02262 0.82777 0.56849 0.0
C55 C 0.99893 0.86771 0.55168 0.0
C56 C 1.00359 0.69446 0.0607 0.0
C57 C 0.98266 0.69785 0.95197 0.0
C58 C 0.03001 0.65688 0.08714 0.0
C59 C 0.03988 0.62595 0.00273 0.0
C60 C 1.02355 0.63198 0.89036 0.0
C61 C 0.99289 0.66719 0.86753 0.0
C62 C 0.96269 0.87068 0.47096 0.0
H63 H 1.01664 0.90286 0.85381 0.0
H64 H 1.00384 0.83625 0.94323 0.0
H65 H 0.12384 0.84996 0.15976 0.0
H66 H 0.13878 0.91762 0.06426 0.0
H67 H 0.0496 0.75832 0.98314 0.0
H68 H 0.03932 0.8409 0.27041 0.0
H69 H 0.97295 0.72174 0.28059 0.0
H70 H 0.93258 0.84202 0.3246 0.0
H71 H 0.03983 0.76612 0.49902 0.0
H72 H 0.04999 0.82393 0.63204 0.0
H73 H 0.96276 0.72671 0.92822 0.0
H74 H 0.04745 0.65361 0.16884 0.0
H75 H 0.94337 0.90067 0.45634 0.0
H76 H 0.98055 0.67321 0.78148 0.0
H77 H 0.06445 0.59961 0.02227 0.0
C78 C 0.62309 0.94229 0.95953 0.0
C79 C 0.61802 0.98473 -0.00075 0.0
C80 C 0.6583 0.91424 0.00117 0.0
C81 C 0.68858 0.92796 0.08424 0.0
C82 C 0.68227 0.96933 0.12884 0.0
C83 C 0.64743 0.99765 0.08613 0.0
C84 C 0.72716 0.90014 0.12837 0.0
C85 C 0.77142 0.905 0.08329 0.0
C86 C 0.81029 0.9069 0.15577 0.0
C87 C 0.80335 0.90393 0.27473 0.0
C88 C 0.75871 0.8958 0.31811 0.0
C89 C 0.72283 0.888 0.24098 0.0
C90 C 0.74228 0.9124 0.43047 0.0
C91 C 0.70581 0.89273 0.4863 0.0
C92 C 0.74887 0.9552 0.45483 0.0
C93 C 0.71582 0.97919 0.51837 0.0
C94 C 0.67544 0.96096 0.55849 0.0
C95 C 0.85192 0.92585 0.10676 0.0
C96 C 0.87231 0.90891 0.00624 0.0
C97 C 0.86126 0.96729 0.13895 0.0
C98 C 0.88499 0.99305 0.06503 0.0
C99 C 0.90077 0.9776 0.9589 0.0
C100 C 0.897 0.93459 0.93304 0.0
C101 C 0.67195 0.91704 0.54719 0.0
H102 H 0.6018 0.93123 0.89067 0.0
H103 H 0.66254 0.88241 0.96678 0.0
H104 H 0.70535 0.98004 0.19478 0.0
H105 H 0.64472 0.02993 0.11766 0.0
H106 H 0.77408 0.91503 -0.00469 0.0
H107 H 0.68757 0.8849 0.2719 0.0
H108 H 0.83088 0.91214 0.33265 0.0
H109 H 0.70005 0.85967 0.47004 0.0
H110 H 0.77628 0.97158 0.41339 0.0
H111 H 0.72015 0.01283 0.52832 0.0
H112 H 0.86518 0.87716 0.97899 0.0
H113 H 0.84549 0.98143 0.21469 0.0
H114 H 0.64209 0.90182 0.581 0.0
H115 H 0.90871 0.92206 0.85146 0.0
H116 H 0.88762 0.02618 0.08677 0.0
C117 C 0.53881 0.68852 0.55955 0.0
C118 C 0.56054 0.64775 0.54316 0.0
C119 C 0.54663 0.72167 0.484 0.0
C120 C 0.57523 0.71432 0.38846 0.0
C121 C 0.60453 0.67668 0.38736 0.0
C122 C 0.59662 0.64323 0.46285 0.0
C123 C 0.55428 0.72769 0.2772 0.0
C124 C 0.56336 0.76459 0.21398 0.0
C125 C 0.54276 0.77077 0.10421 0.0
C126 C 0.51453 0.73941 0.06024 0.0
C127 C 0.50512 0.70348 0.12419 0.0
C128 C 0.52322 0.69939 0.23354 0.0
C129 C 0.48117 0.66739 0.07445 0.0
C130 C 0.44383 0.67372 -0.00238 0.0
C131 C 0.4983 0.62565 0.09858 0.0
C132 C 0.48137 0.59153 0.04034 0.0
C133 C 0.44818 0.5984 0.95372 0.0
C134 C 0.54883 0.80893 0.03098 0.0
C135 C 0.52927 0.84905 0.0631 0.0
C136 C 0.56278 0.80305 0.91682 0.0
C137 C 0.55239 0.83441 0.8346 0.0
C138 C 0.52862 0.87288 0.86448 0.0
C139 C 0.51924 0.88072 0.98053 0.0
C140 C 0.42727 0.63933 0.93774 0.0
H141 H 0.51161 0.69349 0.62277 0.0
H142 H 0.5238 0.75018 0.48852 0.0
H143 H 0.62723 0.67 0.3152 0.0
H144 H 0.61451 0.61255 0.44866 0.0
H145 H 0.5863 0.7875 0.24827 0.0
H146 H 0.51456 0.67239 0.28481 0.0
H147 H 0.50036 0.7428 0.97489 0.0
H148 H 0.42924 0.70535 0.97917 0.0
H149 H 0.52751 0.61928 0.15589 0.0
H150 H 0.49829 0.56032 0.05359 0.0
H151 H 0.51743 0.85447 0.14964 0.0
H152 H 0.5777 0.7725 0.889 0.0
H153 H 0.40184 0.64553 0.87057 0.0
H154 H 0.5 0.90971 0.00588 0.0
H155 H 0.55936 0.82711 0.74592 0.0
C156 C 0.16722 0.51324 0.35965 0.0
C157 C 0.12692 0.49674 0.40487 0.0
C158 C 0.20487 0.48598 0.32744 0.0
C159 C 0.20298 0.44184 0.34012 0.0
C160 C 0.16223 0.4251 0.38039 0.0
C161 C 0.12451 0.45226 0.41192 0.0
C162 C 0.23936 0.41426 0.28586 0.0
C163 C 0.28585 0.41801 0.31676 0.0
C164 C 0.32123 0.41458 0.23438 0.0
C165 C 0.30844 0.40863 0.11908 0.0
C166 C 0.26129 0.40218 0.09003 0.0
C167 C 0.22857 0.40001 0.17775 0.0
C168 C 0.24087 0.41413 0.97695 0.0
C169 C 0.24968 0.45428 0.93406 0.0
C170 C 0.2006 0.3947 0.9381 0.0
C171 C 0.16628 0.4178 0.8747 0.0
C172 C 0.17259 0.46008 0.84482 0.0
C173 C 0.36686 0.43048 0.26897 0.0
C174 C 0.39008 0.4131 0.36565 0.0
C175 C 0.37759 0.47098 0.23234 0.0
C176 C 0.4051 0.496 0.30037 0.0
C177 C 0.42314 0.48067 0.40497 0.0
C178 C 0.41836 0.438 0.433 0.0
C179 C 0.21599 0.47694 0.86891 0.0
H180 H 0.17037 0.54714 0.35297 0.0
H181 H 0.2353 0.49933 0.29043 0.0
H182 H 0.15951 0.39111 0.38641 0.0
H183 H 0.09408 0.43833 0.44655 0.0
H184 H 0.29351 0.42989 0.4011 0.0
H185 H 0.19185 0.39826 0.15697 0.0
H186 H 0.33387 0.41258 0.05252 0.0
H187 H 0.27999 0.47043 0.96197 0.0
H188 H 0.19295 0.36357 0.96898 0.0
H189 H 0.13398 0.40331 0.85442 0.0
H190 H 0.3821 0.38199 0.39607 0.0
H191 H 0.35993 0.48536 0.15911 0.0
H192 H 0.22286 0.50904 0.84467 0.0
H193 H 0.432 0.42536 0.51288 0.0
H194 H 0.40881 0.5287 0.27602 0.0
C195 C 0.92748 0.1283 0.41654 0.0
C196 C 0.95075 0.08796 0.41166 0.0
C197 C 0.94862 0.16342 0.37266 0.0
C198 C 0.99303 0.15847 0.32311 0.0
C199 C 1.01409 0.11752 0.30919 0.0
C200 C 0.99247 0.08252 0.34991 0.0
C201 C 1.01563 0.19519 0.27538 0.0
C202 C 1.01479 0.23453 0.33021 0.0
C203 C 0.03062 0.27047 0.27484 0.0
C204 C 0.04717 0.26626 0.16068 0.0
C205 C 0.04969 0.22565 0.10753 0.0
C206 C 0.03443 0.19105 0.16735 0.0
C207 C 0.05753 0.21636 0.98439 0.0
C208 C 1.01754 0.22138 0.91559 0.0
C209 C 0.09005 0.18231 0.95804 0.0
C210 C 0.07705 0.14864 0.88804 0.0
C211 C 0.03237 0.14973 0.83842 0.0
C212 C 1.02286 0.31183 0.33628 0.0
C213 C 0.97665 0.32712 0.3556 0.0
C214 C 0.05864 0.32953 0.40034 0.0
C215 C 0.04793 0.36051 0.48509 0.0
C216 C 1.00121 0.37377 0.5083 0.0
C217 C 0.96602 0.35736 0.44016 0.0
C218 C 1.00472 0.18817 0.84483 0.0
H219 H 0.89535 0.13347 0.46402 0.0
H220 H 0.93084 0.19448 0.38019 0.0
H221 H 0.04822 0.1126 0.27049 0.0
H222 H 1.01122 0.05176 0.34527 0.0
H223 H 1.00028 0.23756 0.41519 0.0
H224 H 0.0329 0.16079 0.12399 0.0
H225 H 0.05634 0.29397 0.11346 0.0
H226 H 0.99196 0.24727 0.93178 0.0
H227 H 0.12159 0.17764 0.00854 0.0
H228 H 0.09998 0.12026 0.88249 0.0
H229 H 0.94821 0.31345 0.31016 0.0
H230 H 0.09448 0.3175 0.38996 0.0
H231 H 0.97079 0.19119 0.80398 0.0
H232 H 0.92965 0.36687 0.455 0.0
H233 H 0.07581 0.37198 0.53692 0.0
C234 C 0.38446 0.00246 0.36289 0.0
C235 C 0.42828 0.01693 0.39146 0.0
C236 C 0.34768 0.03122 0.33468 0.0
C237 C 0.35391 0.07504 0.33317 0.0
C238 C 0.39828 0.08953 0.35458 0.0
C239 C 0.43516 0.06074 0.38354 0.0
C240 C 0.31663 0.10309 0.2828 0.0
C241 C 0.2709 0.09979 0.32077 0.0
C242 C 0.23398 0.09832 0.24232 0.0
C243 C 0.24428 0.10033 0.12459 0.0
C244 C 0.29021 0.1078 0.08823 0.0
C245 C 0.32429 0.11468 0.17081 0.0
C246 C 0.309 0.09278 0.97621 0.0
C247 C 0.30223 0.05072 0.94455 0.0
C248 C 0.34647 0.11316 0.92664 0.0
C249 C 0.38033 0.09008 0.86236 0.0
C250 C 0.37626 0.04664 0.84224 0.0
C251 C 0.19019 0.08139 0.28604 0.0
C252 C 0.16732 0.10084 0.38031 0.0
C253 C 0.18058 0.03959 0.25832 0.0
C254 C 0.15391 0.01599 0.33159 0.0
C255 C 0.13548 0.03397 0.4326 0.0
C256 C 0.13973 0.07734 0.45269 0.0
C257 C 0.3354 0.02797 0.87818 0.0
H258 H 0.37772 0.96915 0.36836 0.0
H259 H 0.31432 0.01907 0.31207 0.0
H260 H 0.40431 0.123 0.34875 0.0
H261 H 0.46852 0.07302 0.4053 0.0
H262 H 0.26549 0.0906 0.40853 0.0
H263 H 0.3603 0.11706 0.14474 0.0
H264 H 0.21805 0.09264 0.06255 0.0
H265 H 0.27422 0.03378 0.98148 0.0
H266 H 0.35256 0.14566 0.94905 0.0
H267 H 0.41061 0.10577 0.8329 0.0
H268 H 0.17457 0.13292 0.40423 0.0
H269 H 0.19816 0.02356 0.18753 0.0
H270 H 0.33052 0.99475 0.86215 0.0
H271 H 0.12598 0.09189 0.53008 0.0
H272 H 0.15089 0.98258 0.31399 0.0
C273 C 0.4637 0.38452 0.94947 0.0
C274 C 0.50223 0.37803 0.8767 0.0
C275 C 0.45327 0.35315 0.0293 0.0
C276 C 0.48179 0.31521 0.03916 0.0
C277 C 0.51441 0.306 0.95254 0.0
C278 C 0.52483 0.33716 0.87306 0.0
C279 C 0.49496 0.29958 0.15565 0.0
C280 C 0.49488 0.25681 0.19358 0.0
C281 C 0.51827 0.24473 0.29667 0.0
C282 C 0.54499 0.27442 0.35251 0.0
C283 C 0.54578 0.31645 0.31437 0.0
C284 C 0.51776 0.32891 0.22164 0.0
C285 C 0.57531 0.34796 0.36995 0.0
C286 C 0.58621 0.34488 0.48639 0.0
C287 C 0.58999 0.38343 0.30886 0.0
C288 C 0.60811 0.41761 0.36593 0.0
C289 C 0.6152 0.41542 0.48331 0.0
C290 C 0.5192 0.20136 0.34842 0.0
C291 C 0.48522 0.19129 0.42916 0.0
C292 C 0.56137 0.17642 0.34667 0.0
C293 C 0.57101 0.14495 0.42895 0.0
C294 C 0.53868 0.13705 0.51512 0.0
C295 C 0.49477 0.15928 0.51151 0.0
C296 C 0.60703 0.37786 0.54163 0.0
H297 H 0.44524 0.41536 0.95421 0.0
H298 H 0.42789 0.36144 0.09494 0.0
H299 H 0.53714 0.27742 0.95717 0.0
H300 H 0.55412 0.33066 0.8164 0.0
H301 H 0.47778 0.23345 0.14339 0.0
H302 H 0.51599 0.36174 0.19484 0.0
H303 H 0.56587 0.26401 0.42525 0.0
H304 H 0.57571 0.31872 0.5377 0.0
H305 H 0.5851 0.38619 0.21777 0.0
H306 H 0.61382 0.44653 0.31981 0.0
H307 H 0.45293 0.21068 0.43506 0.0
H308 H 0.58879 0.18406 0.28826 0.0
H309 H 0.6116 0.37595 0.63312 0.0
H310 H 0.46939 0.15439 0.5775 0.0
H311 H 0.60535 0.12876 0.43008 0.0
O312 O 0.12381 0.95654 0.83707 0.0
Mg313 Mg 0.10228 0.95585 0.66499 0.0
O314 O 0.04892 0.97174 0.84506 0.0
Mg315 Mg 1.0157 0.0082 0.69678 0.0
O316 O 0.08229 0.01145 0.57966 0.0
O317 O 0.14877 0.97237 0.54609 0.0
O318 O 0.98093 0.0426 0.54961 0.0
O319 O 0.03528 0.07553 0.77639 0.0
Mg320 Mg 0.92563 0.06189 0.73451 0.0
O321 O 0.94947 0.00581 0.81085 0.0
O322 O 0.90635 0.06072 0.56094 0.0
O323 O 0.96721 0.11262 0.77977 0.0
O324 O 0.88146 0.04034 0.854 0.0
C325 C 1.01923 0.90629 0.60083 0.0
C326 C 0.08575 0.9549 0.88992 0.0
C327 C 0.12154 0.00537 0.5245 0.0
C328 C 0.94364 0.05795 0.50378 0.0
C329 C 1.01119 0.11067 0.79351 0.0
C330 C 0.91096 0.00842 0.86937 0.0
O331 O 0.06279 0.9039 0.62024 0.0
O332 O 0.99538 0.94165 0.61477 0.0
O333 O 0.40373 0.98455 0.74536 0.0
Mg334 Mg 0.44825 0.9393 0.65798 0.0
O335 O 0.45589 0.03266 0.78017 0.0
Mg336 Mg 0.52566 0.00514 0.69358 0.0
O337 O 0.5102 0.93596 0.74594 0.0
O338 O 0.46553 0.88096 0.73269 0.0
O339 O 0.59518 0.97717 0.6091 0.0
O340 O 0.56443 0.0002 0.85604 0.0
Mg341 Mg 0.60232 0.06685 0.74259 0.0
O342 O 0.54327 0.0744 0.63991 0.0
O343 O 0.64853 0.02252 0.6578 0.0
O344 O 0.60087 0.05354 0.9216 0.0
O345 O 0.59134 0.12619 0.6708 0.0
C346 C 0.46113 0.98952 0.45944 0.0
C347 C 0.41408 0.02018 0.78594 0.0
C348 C 0.50177 0.89742 0.77546 0.0
C349 C 0.6376 0.98812 0.61121 0.0
C350 C 0.58872 0.01587 0.93302 0.0
C351 C 0.55578 0.11258 0.6173 0.0
O352 O 0.45126 0.95171 0.48039 0.0
O353 O 0.48575 0.00901 0.52939 0.0
O354 O 0.57016 0.41106 0.82296 0.0
Mg355 Mg 0.61134 0.46179 0.78066 0.0
O356 O 0.50426 0.449 0.79293 0.0
Mg357 Mg 0.53156 0.5118 0.70155 0.0
O358 O 0.59033 0.5213 0.84073 0.0
O359 O 0.65032 0.48042 0.91212 0.0
O360 O 0.55917 0.57465 0.61232 0.0
O361 O 0.48919 0.55193 0.83173 0.0
Mg362 Mg 0.45276 0.56205 0.63226 0.0
O363 O 0.47224 0.50313 0.56169 0.0
O364 O 0.49334 0.61376 0.59668 0.0
O365 O 0.41642 0.56873 0.78708 0.0
O366 O 0.41346 0.54727 0.49768 0.0
C367 C 0.61502 0.45383 0.55181 0.0
C368 C 0.52602 0.41431 0.82515 0.0
C369 C 0.62532 0.51571 0.9116 0.0
C370 C 0.53733 0.61027 0.58925 0.0
C371 C 0.44921 0.56819 0.85896 0.0
C372 C 0.43738 0.51148 0.49168 0.0
O373 O 0.64684 0.45624 0.62532 0.0
O374 O 0.57434 0.46986 0.5738 0.0
O375 O 0.94555 0.4584 0.91392 0.0
Mg376 Mg 0.94768 0.45133 0.73281 0.0
O377 O 0.98332 0.51139 0.85386 0.0
Mg378 Mg 1.02443 0.50651 0.69503 0.0
O379 O 1.00533 0.43779 0.62772 0.0
O380 O 0.94919 0.39282 0.66029 0.0
O381 O 0.06733 0.50465 0.5367 0.0
O382 O 0.09254 0.4759 0.78464 0.0
Mg383 Mg 0.10438 0.57223 0.67197 0.0
O384 O 0.04214 0.57342 0.75692 0.0
O385 O 0.10257 0.562 0.49281 0.0
O386 O 0.14584 0.52339 0.75374 0.0
O387 O 0.08652 0.62855 0.75847 0.0
C388 C 0.91473 0.53091 0.60795 0.0
C389 C 0.95778 0.49585 0.92793 0.0
C390 C 0.98666 0.40167 0.60679 0.0
C391 C 0.09309 0.52419 0.46997 0.0
C392 C 0.13475 0.48755 0.79119 0.0
C393 C 0.0501 0.61091 0.79545 0.0
O394 O 0.9019 0.49721 0.65393 0.0
O395 O 0.95796 0.53923 0.60577 0.0
loop_
_geom_bond_atom_site_label_1
_geom_bond_atom_site_label_2
_geom_bond_distance
_geom_bond_site_symmetry_2
_ccdc_geom_bond_type
C0 C1 1.386 . S
C0 C2 1.397 . S
C0 H24 0.931 . S
C1 C0 1.386 . S
C1 C5 1.397 . S
C2 C0 1.397 . S
C2 C3 1.384 . S
C2 H25 0.930 . S
C3 C2 1.384 . S
C3 C4 1.377 . S
C3 C6 1.481 1_556 S
C4 C3 1.377 . S
C4 C5 1.389 . S
C4 H26 0.929 . S
C5 C1 1.397 . S
C5 C4 1.389 . S
C5 H27 0.931 . S
C6 C3 1.481 1_554 S
C6 C7 1.387 1_554 S
C6 C11 1.390 . S
C7 C6 1.387 1_556 S
C7 C8 1.401 1_556 S
C7 H28 0.930 . S
C8 C7 1.401 1_554 S
C8 C9 1.376 . S
C8 C17 1.511 . S
C9 C8 1.376 . S
C9 C10 1.392 . S
C9 H30 0.931 . S
C10 C9 1.392 . S
C10 C11 1.361 . S
C10 C12 1.500 . S
C11 C6 1.390 . S
C11 C10 1.361 . S
C11 H29 0.931 . S
C12 C10 1.500 . S
C12 C13 1.371 . S
C12 C14 1.365 . S
C13 C12 1.371 . S
C13 C23 1.386 . S
C13 H31 0.931 . S
C14 C12 1.365 . S
C14 C15 1.409 . S
C14 H32 0.929 . S
C15 C14 1.409 . S
C15 C16 1.380 . S
C15 H33 0.930 . S
C16 C15 1.380 . S
C16 C23 1.357 . S
C17 C8 1.511 . S
C17 C18 1.341 1_554 S
C17 C19 1.371 . S
C18 C17 1.341 1_556 S
C18 C22 1.394 . S
C18 H34 0.930 . S
C19 C17 1.371 . S
C19 C20 1.392 . S
C19 H35 0.931 . S
C20 C19 1.392 . S
C20 C21 1.331 1_554 S
C20 H38 0.932 . S
C21 C20 1.331 1_556 S
C21 C22 1.336 . S
C22 C18 1.394 . S
C22 C21 1.336 . S
C22 H37 0.929 . S
C23 C13 1.386 . S
C23 C16 1.357 . S
C23 H36 0.928 . S
H24 C0 0.931 . S
H25 C2 0.930 . S
H26 C4 0.929 . S
H27 C5 0.931 . S
H28 C7 0.930 . S
H29 C11 0.931 . S
H30 C9 0.931 . S
H31 C13 0.931 . S
H32 C14 0.929 . S
H33 C15 0.930 . S
H34 C18 0.930 . S
H35 C19 0.931 . S
H36 C23 0.928 . S
H37 C22 0.929 . S
H38 C20 0.932 . S
C39 C40 1.390 . S
C39 C41 1.397 . S
C39 H63 0.931 . S
C40 C39 1.390 . S
C40 C44 1.393 1_655 S
C41 C39 1.397 . S
C41 C42 1.387 . S
C41 H64 0.930 . S
C42 C41 1.387 . S
C42 C43 1.374 1_655 S
C42 C45 1.481 1_556 S
C43 C42 1.374 1_455 S
C43 C44 1.389 . S
C43 H65 0.929 1_556 S
C44 C40 1.393 1_455 S
C44 C43 1.389 . S
C44 H66 0.931 . S
C45 C42 1.481 1_554 S
C45 C46 1.387 1_554 S
C45 C50 1.391 . S
C46 C45 1.387 1_556 S
C46 C47 1.401 1_556 S
C46 H67 0.930 . S
C47 C46 1.401 1_554 S
C47 C48 1.376 . S
C47 C56 1.511 . S
C48 C47 1.376 . S
C48 C49 1.392 . S
C48 H69 0.931 . S
C49 C48 1.392 . S
C49 C50 1.361 . S
C49 C51 1.499 1_655 S
C50 C45 1.391 . S
C50 C49 1.361 . S
C50 H68 0.931 . S
C51 C49 1.499 1_455 S
C51 C52 1.371 1_455 S
C51 C53 1.365 . S
C52 C51 1.371 1_655 S
C52 C62 1.386 . S
C52 H70 0.931 . S
C53 C51 1.365 . S
C53 C54 1.409 . S
C53 H71 0.929 . S
C54 C53 1.409 . S
C54 C55 1.383 . S
C54 H72 0.930 . S
C55 C54 1.383 . S
C55 C62 1.354 1_455 S
C56 C47 1.511 . S
C56 C57 1.341 1_554 S
C56 C58 1.371 1_655 S
C57 C56 1.341 1_556 S
C57 C61 1.394 . S
C57 H73 0.930 . S
C58 C56 1.371 1_455 S
C58 C59 1.392 . S
C58 H74 0.931 . S
C59 C58 1.392 . S
C59 C60 1.331 1_454 S
C59 H77 0.932 . S
C60 C59 1.331 1_656 S
C60 C61 1.336 . S
C61 C57 1.394 . S
C61 C60 1.336 . S
C61 H76 0.929 . S
C62 C52 1.386 . S
C62 C55 1.354 1_655 S
C62 H75 0.928 . S
H63 C39 0.931 . S
H64 C41 0.930 . S
H65 C43 0.929 1_554 S
H66 C44 0.931 . S
H67 C46 0.930 . S
H68 C50 0.931 . S
H69 C48 0.931 . S
H70 C52 0.931 . S
H71 C53 0.929 . S
H72 C54 0.930 . S
H73 C57 0.930 . S
H74 C58 0.931 . S
H75 C62 0.928 . S
H76 C61 0.929 . S
H77 C59 0.932 . S
C78 C79 1.386 . S
C78 C80 1.397 . S
C78 H102 0.931 . S
C79 C78 1.386 . S
C79 C83 1.397 . S
C80 C78 1.397 . S
C80 C81 1.384 . S
C80 H103 0.930 . S
C81 C80 1.384 . S
C81 C82 1.377 . S
C81 C84 1.481 1_556 S
C82 C81 1.377 . S
C82 C83 1.389 . S
C82 H104 0.929 . S
C83 C79 1.397 . S
C83 C82 1.389 . S
C83 H105 0.931 . S
C84 C81 1.481 1_554 S
C84 C85 1.387 1_554 S
C84 C89 1.390 . S
C85 C84 1.387 1_556 S
C85 C86 1.401 1_556 S
C85 H106 0.930 . S
C86 C85 1.401 1_554 S
C86 C87 1.376 . S
C86 C95 1.511 . S
C87 C86 1.376 . S
C87 C88 1.392 . S
C87 H108 0.931 . S
C88 C87 1.392 . S
C88 C89 1.361 . S
C88 C90 1.500 . S
C89 C84 1.390 . S
C89 C88 1.361 . S
C89 H107 0.931 . S
C90 C88 1.500 . S
C90 C91 1.371 . S
C90 C92 1.365 . S
C91 C90 1.371 . S
C91 C101 1.386 . S
C91 H109 0.931 . S
C92 C90 1.365 . S
C92 C93 1.409 . S
C92 H110 0.929 . S
C93 C92 1.409 . S
C93 C94 1.380 . S
C93 H111 0.930 . S
C94 C93 1.380 . S
C94 C101 1.357 . S
C95 C86 1.511 . S
C95 C96 1.341 1_554 S
C95 C97 1.371 . S
C96 C95 1.341 1_556 S
C96 C100 1.394 . S
C96 H112 0.930 . S
C97 C95 1.371 . S
C97 C98 1.392 . S
C97 H113 0.931 . S
C98 C97 1.392 . S
C98 C99 1.331 1_554 S
C98 H116 0.932 . S
C99 C98 1.331 1_556 S
C99 C100 1.336 . S
C100 C96 1.394 . S
C100 C99 1.336 . S
C100 H115 0.929 . S
C101 C91 1.386 . S
C101 C94 1.357 . S
C101 H114 0.928 . S
H102 C78 0.931 . S
H103 C80 0.930 . S
H104 C82 0.929 . S
H105 C83 0.931 . S
H106 C85 0.930 . S
H107 C89 0.931 . S
H108 C87 0.931 . S
H109 C91 0.931 . S
H110 C92 0.929 . S
H111 C93 0.930 . S
H112 C96 0.930 . S
H113 C97 0.931 . S
H114 C101 0.928 . S
H115 C100 0.929 . S
H116 C98 0.932 . S
C117 C118 1.386 . S
C117 C119 1.397 . S
C117 H141 0.931 . S
C118 C117 1.386 . S
C118 C122 1.397 . S
C119 C117 1.397 . S
C119 C120 1.384 . S
C119 H142 0.930 . S
C120 C119 1.384 . S
C120 C121 1.377 . S
C120 C123 1.481 . S
C121 C120 1.377 . S
C121 C122 1.389 . S
C121 H143 0.929 . S
C122 C118 1.397 . S
C122 C121 1.389 . S
C122 H144 0.931 . S
C123 C120 1.481 . S
C123 C124 1.387 . S
C123 C128 1.390 . S
C124 C123 1.387 . S
C124 C125 1.401 . S
C124 H145 0.930 . S
C125 C124 1.401 . S
C125 C126 1.376 1_554 S
C125 C134 1.511 . S
C126 C125 1.376 1_556 S
C126 C127 1.392 1_556 S
C126 H147 0.931 . S
C127 C126 1.392 1_554 S
C127 C128 1.361 . S
C127 C129 1.500 1_554 S
C128 C123 1.390 . S
C128 C127 1.361 . S
C128 H146 0.931 . S
C129 C127 1.500 1_556 S
C129 C130 1.371 . S
C129 C131 1.365 . S
C130 C129 1.371 . S
C130 C140 1.386 . S
C130 H148 0.931 . S
C131 C129 1.365 . S
C131 C132 1.409 . S
C131 H149 0.929 1_556 S
C132 C131 1.409 . S
C132 C133 1.380 . S
C132 H150 0.930 . S
C133 C132 1.380 . S
C133 C140 1.357 . S
C134 C125 1.511 . S
C134 C135 1.341 . S
C134 C136 1.371 1_554 S
C135 C134 1.341 . S
C135 C139 1.394 . S
C135 H151 0.930 . S
C136 C134 1.371 1_556 S
C136 C137 1.392 . S
C136 H152 0.931 . S
C137 C136 1.392 . S
C137 C138 1.336 . S
C137 H155 0.932 . S
C138 C137 1.336 . S
C138 C139 1.329 1_556 S
C139 C135 1.394 . S
C139 C138 1.329 1_554 S
C139 H154 0.929 . S
C140 C130 1.386 . S
C140 C133 1.357 . S
C140 H153 0.928 . S
H141 C117 0.931 . S
H142 C119 0.930 . S
H143 C121 0.929 . S
H144 C122 0.931 . S
H145 C124 0.930 . S
H146 C128 0.931 . S
H147 C126 0.931 . S
H148 C130 0.931 . S
H149 C131 0.929 1_554 S
H150 C132 0.930 . S
H151 C135 0.930 . S
H152 C136 0.931 . S
H153 C140 0.928 . S
H154 C139 0.929 . S
H155 C137 0.932 . S
C156 C157 1.386 . S
C156 C158 1.397 . S
C156 H180 0.931 . S
C157 C156 1.386 . S
C157 C161 1.397 . S
C158 C156 1.397 . S
C158 C159 1.384 . S
C158 H181 0.930 . S
C159 C158 1.384 . S
C159 C160 1.377 . S
C159 C162 1.481 . S
C160 C159 1.377 . S
C160 C161 1.389 . S
C160 H182 0.929 . S
C161 C157 1.397 . S
C161 C160 1.389 . S
C161 H183 0.931 . S
C162 C159 1.481 . S
C162 C163 1.387 . S
C162 C167 1.390 . S
C163 C162 1.387 . S
C163 C164 1.401 . S
C163 H184 0.930 . S
C164 C163 1.401 . S
C164 C165 1.376 . S
C164 C173 1.511 . S
C165 C164 1.376 . S
C165 C166 1.392 . S
C165 H186 0.931 . S
C166 C165 1.392 . S
C166 C167 1.361 . S
C166 C168 1.500 . S
C167 C162 1.390 . S
C167 C166 1.361 . S
C167 H185 0.931 . S
C168 C166 1.500 . S
C168 C169 1.371 . S
C168 C170 1.365 . S
C169 C168 1.371 . S
C169 C179 1.386 1_554 S
C169 H187 0.931 . S
C170 C168 1.365 . S
C170 C171 1.409 1_554 S
C170 H188 0.929 . S
C171 C170 1.409 1_556 S
C171 C172 1.380 . S
C171 H189 0.930 . S
C172 C171 1.380 . S
C172 C179 1.357 . S
C173 C164 1.511 . S
C173 C174 1.341 . S
C173 C175 1.371 . S
C174 C173 1.341 . S
C174 C178 1.394 . S
C174 H190 0.930 . S
C175 C173 1.371 . S
C175 C176 1.392 . S
C175 H191 0.931 . S
C176 C175 1.392 . S
C176 C177 1.331 . S
C176 H194 0.932 . S
C177 C176 1.331 . S
C177 C178 1.336 . S
C178 C174 1.394 . S
C178 C177 1.336 . S
C178 H193 0.929 . S
C179 C169 1.386 1_556 S
C179 C172 1.357 . S
C179 H192 0.928 . S
H180 C156 0.931 . S
H181 C158 0.930 . S
H182 C160 0.929 . S
H183 C161 0.931 . S
H184 C163 0.930 . S
H185 C167 0.931 . S
H186 C165 0.931 . S
H187 C169 0.931 . S
H188 C170 0.929 . S
H189 C171 0.930 . S
H190 C174 0.930 . S
H191 C175 0.931 . S
H192 C179 0.928 . S
H193 C178 0.929 . S
H194 C176 0.932 . S
C195 C196 1.387 . S
C195 C197 1.397 . S
C195 H219 0.931 . S
C196 C195 1.387 . S
C196 C200 1.396 1_655 S
C197 C195 1.397 . S
C197 C198 1.383 . S
C197 H220 0.930 . S
C198 C197 1.383 . S
C198 C199 1.378 1_655 S
C198 C201 1.481 . S
C199 C198 1.378 1_455 S
C199 C200 1.389 . S
C199 H221 0.929 . S
C200 C196 1.396 1_455 S
C200 C199 1.389 . S
C200 H222 0.931 . S
C201 C198 1.481 . S
C201 C202 1.387 . S
C201 C206 1.390 . S
C202 C201 1.387 . S
C202 C203 1.401 . S
C202 H223 0.930 . S
C203 C202 1.401 . S
C203 C204 1.376 . S
C203 C212 1.511 . S
C204 C203 1.376 . S
C204 C205 1.392 . S
C204 H225 0.931 . S
C205 C204 1.392 . S
C205 C206 1.361 . S
C205 C207 1.500 1_655 S
C206 C201 1.390 . S
C206 C205 1.361 . S
C206 H224 0.931 1_655 S
C207 C205 1.500 1_455 S
C207 C208 1.371 1_454 S
C207 C209 1.365 . S
C208 C207 1.371 1_656 S
C208 C218 1.386 . S
C208 H226 0.931 1_556 S
C209 C207 1.365 . S
C209 C210 1.409 1_554 S
C209 H227 0.929 . S
C210 C209 1.409 1_556 S
C210 C211 1.386 . S
C210 H228 0.930 . S
C211 C210 1.386 . S
C211 C218 1.352 1_455 S
C212 C203 1.511 . S
C212 C213 1.341 . S
C212 C214 1.371 1_655 S
C213 C212 1.341 . S
C213 C217 1.394 . S
C213 H229 0.930 . S
C214 C212 1.371 1_455 S
C214 C215 1.392 . S
C214 H230 0.931 . S
C215 C214 1.392 . S
C215 C216 1.331 1_455 S
C215 H233 0.932 . S
C216 C215 1.331 1_655 S
C216 C217 1.336 . S
C217 C213 1.394 . S
C217 C216 1.336 . S
C217 H232 0.929 . S
C218 C208 1.386 . S
C218 C211 1.352 1_655 S
C218 H231 0.928 . S
H219 C195 0.931 . S
H220 C197 0.930 . S
H221 C199 0.929 . S
H222 C200 0.931 . S
H223 C202 0.930 . S
H224 C206 0.931 1_455 S
H225 C204 0.931 . S
H226 C208 0.931 1_554 S
H227 C209 0.929 . S
H228 C210 0.930 . S
H229 C213 0.930 . S
H230 C214 0.931 . S
H231 C218 0.928 . S
H232 C217 0.929 . S
H233 C215 0.932 . S
C234 C235 1.386 . S
C234 C236 1.397 . S
C234 H258 0.931 . S
C235 C234 1.386 . S
C235 C239 1.397 . S
C236 C234 1.397 . S
C236 C237 1.384 . S
C236 H259 0.930 . S
C237 C236 1.384 . S
C237 C238 1.377 . S
C237 C240 1.481 . S
C238 C237 1.377 . S
C238 C239 1.389 . S
C238 H260 0.929 . S
C239 C235 1.397 . S
C239 C238 1.389 . S
C239 H261 0.931 . S
C240 C237 1.481 . S
C240 C241 1.387 . S
C240 C245 1.390 . S
C241 C240 1.387 . S
C241 C242 1.401 . S
C241 H262 0.930 . S
C242 C241 1.401 . S
C242 C243 1.376 . S
C242 C251 1.511 . S
C243 C242 1.376 . S
C243 C244 1.392 . S
C243 H264 0.931 . S
C244 C243 1.392 . S
C244 C245 1.361 . S
C244 C246 1.500 . S
C245 C240 1.390 . S
C245 C244 1.361 . S
C245 H263 0.931 . S
C246 C244 1.500 . S
C246 C247 1.371 1_554 S
C246 C248 1.365 . S
C247 C246 1.371 1_556 S
C247 C257 1.386 . S
C247 H265 0.931 1_556 S
C248 C246 1.365 . S
C248 C249 1.409 1_554 S
C248 H266 0.929 . S
C249 C248 1.409 1_556 S
C249 C250 1.380 . S
C249 H267 0.930 . S
C250 C249 1.380 . S
C250 C257 1.357 . S
C251 C242 1.511 . S
C251 C252 1.341 . S
C251 C253 1.371 . S
C252 C251 1.341 . S
C252 C256 1.394 . S
C252 H268 0.930 . S
C253 C251 1.371 . S
C253 C254 1.392 . S
C253 H269 0.931 . S
C254 C253 1.392 . S
C254 C255 1.331 . S
C254 H272 0.932 . S
C255 C254 1.331 . S
C255 C256 1.336 . S
C256 C252 1.394 . S
C256 C255 1.336 . S
C256 H271 0.929 . S
C257 C247 1.386 . S
C257 C250 1.357 . S
C257 H270 0.928 . S
H258 C234 0.931 . S
H259 C236 0.930 . S
H260 C238 0.929 . S
H261 C239 0.931 . S
H262 C241 0.930 . S
H263 C245 0.931 . S
H264 C243 0.931 . S
H265 C247 0.931 1_554 S
H266 C248 0.929 . S
H267 C249 0.930 . S
H268 C252 0.930 . S
H269 C253 0.931 . S
H270 C257 0.928 . S
H271 C256 0.929 . S
H272 C254 0.932 . S
C273 C274 1.386 . S
C273 C275 1.397 . S
C273 H297 0.931 . S
C274 C273 1.386 . S
C274 C278 1.397 . S
C275 C273 1.397 . S
C275 C276 1.384 1_556 S
C275 H298 0.930 1_556 S
C276 C275 1.384 1_554 S
C276 C277 1.377 . S
C276 C279 1.481 . S
C277 C276 1.377 . S
C277 C278 1.389 1_554 S
C277 H299 0.929 . S
C278 C274 1.397 . S
C278 C277 1.389 1_556 S
C278 H300 0.931 . S
C279 C276 1.481 . S
C279 C280 1.387 . S
C279 C284 1.390 . S
C280 C279 1.387 . S
C280 C281 1.401 . S
C280 H301 0.930 . S
C281 C280 1.401 . S
C281 C282 1.376 . S
C281 C290 1.511 . S
C282 C281 1.376 . S
C282 C283 1.392 . S
C282 H303 0.931 . S
C283 C282 1.392 . S
C283 C284 1.361 . S
C283 C285 1.500 . S
C284 C279 1.390 . S
C284 C283 1.361 . S
C284 H302 0.931 . S
C285 C283 1.500 . S
C285 C286 1.371 . S
C285 C287 1.365 . S
C286 C285 1.371 . S
C286 C296 1.386 . S
C286 H304 0.931 . S
C287 C285 1.365 . S
C287 C288 1.409 . S
C287 H305 0.929 . S
C288 C287 1.409 . S
C288 C289 1.380 . S
C288 H306 0.930 . S
C289 C288 1.380 . S
C289 C296 1.357 . S
C290 C281 1.511 . S
C290 C291 1.341 . S
C290 C292 1.371 . S
C291 C290 1.341 . S
C291 C295 1.394 . S
C291 H307 0.930 . S
C292 C290 1.371 . S
C292 C293 1.392 . S
C292 H308 0.931 . S
C293 C292 1.392 . S
C293 C294 1.331 . S
C293 H311 0.932 . S
C294 C293 1.331 . S
C294 C295 1.336 . S
C295 C291 1.394 . S
C295 C294 1.336 . S
C295 H310 0.929 . S
C296 C286 1.386 . S
C296 C289 1.357 . S
C296 H309 0.928 . S
H297 C273 0.931 . S
H298 C275 0.930 1_554 S
H299 C277 0.929 . S
H300 C278 0.931 . S
H301 C280 0.930 . S
H302 C284 0.931 . S
H303 C282 0.931 . S
H304 C286 0.931 . S
H305 C287 0.929 . S
H306 C288 0.930 . S
H307 C291 0.930 . S
H308 C292 0.931 . S
H309 C296 0.928 . S
H310 C295 0.929 . S
H311 C293 0.932 . S
O312 Mg313 1.990 . S
O312 C326 1.253 . S
Mg313 O312 1.990 . S
Mg313 O316 2.180 1_565 S
Mg313 O317 2.117 . S
Mg313 O331 2.030 . S
O314 Mg315 2.072 1_465 S
O314 C326 1.260 . S
Mg315 O314 2.072 1_645 S
Mg315 O316 2.099 1_655 S
Mg315 O318 2.079 . S
Mg315 O319 2.072 1_655 S
Mg315 O321 2.099 . S
Mg315 O332 2.079 1_545 S
O316 Mg313 2.180 1_545 S
O316 Mg315 2.099 1_455 S
O316 C327 1.279 . S
O317 Mg313 2.117 . S
O317 C327 1.250 1_565 S
O318 Mg315 2.079 . S
O318 C328 1.264 . S
O319 Mg315 2.072 1_455 S
O319 C329 1.260 . S
Mg320 O321 2.180 . S
Mg320 O322 2.030 . S
Mg320 O323 1.990 . S
Mg320 O324 2.117 . S
O321 Mg315 2.099 . S
O321 Mg320 2.180 . S
O321 C330 1.279 . S
O322 Mg320 2.030 . S
O322 C328 1.248 . S
O323 Mg320 1.990 . S
O323 C329 1.253 1_655 S
O324 Mg320 2.117 . S
O324 C330 1.250 . S
C325 O331 1.248 1_655 S
C325 O332 1.264 . S
C326 O312 1.253 . S
C326 O314 1.260 . S
C327 O316 1.279 . S
C327 O317 1.250 1_545 S
C328 O318 1.264 . S
C328 O322 1.248 . S
C329 O319 1.260 . S
C329 O323 1.253 1_455 S
C330 O321 1.279 . S
C330 O324 1.250 . S
O331 Mg313 2.030 . S
O331 C325 1.248 1_455 S
O332 Mg315 2.079 1_565 S
O332 C325 1.264 . S
O333 Mg334 1.990 1_545 S
O333 C347 1.253 . S
Mg334 O333 1.990 1_565 S
Mg334 O337 2.180 . S
Mg334 O338 2.117 . S
Mg334 O352 2.030 1_565 S
O335 Mg336 2.072 . S
O335 C347 1.260 . S
Mg336 O335 2.072 . S
Mg336 O337 2.099 1_545 S
Mg336 O339 2.079 1_545 S
Mg336 O340 2.072 1_545 S
Mg336 O342 2.099 . S
Mg336 O353 2.079 . S
O337 Mg334 2.180 . S
O337 Mg336 2.099 1_565 S
O337 C348 1.279 . S
O338 Mg334 2.117 . S
O338 C348 1.250 . S
O339 Mg336 2.079 1_565 S
O339 C349 1.264 . S
O340 Mg336 2.072 1_565 S
O340 C350 1.260 1_565 S
Mg341 O342 2.180 . S
Mg341 O343 2.030 1_545 S
Mg341 O344 1.990 . S
Mg341 O345 2.117 . S
O342 Mg336 2.099 . S
O342 Mg341 2.180 . S
O342 C351 1.279 . S
O343 Mg341 2.030 1_565 S
O343 C349 1.248 . S
O344 Mg341 1.990 . S
O344 C350 1.253 . S
O345 Mg341 2.117 . S
O345 C351 1.250 . S
C346 O352 1.248 . S
C346 O353 1.264 . S
C347 O333 1.253 . S
C347 O335 1.260 . S
C348 O337 1.279 . S
C348 O338 1.250 . S
C349 O339 1.264 . S
C349 O343 1.248 . S
C350 O340 1.260 1_545 S
C350 O344 1.253 . S
C351 O342 1.279 . S
C351 O345 1.250 . S
O352 Mg334 2.030 1_545 S
O352 C346 1.248 . S
O353 Mg336 2.079 . S
O353 C346 1.264 . S
O354 Mg355 1.990 . S
O354 C368 1.253 . S
Mg355 O354 1.990 . S
Mg355 O358 2.180 . S
Mg355 O359 2.117 . S
Mg355 O373 2.030 . S
O356 Mg357 2.072 . S
O356 C368 1.260 . S
Mg357 O356 2.072 . S
Mg357 O358 2.099 . S
Mg357 O360 2.079 . S
Mg357 O361 2.072 . S
Mg357 O363 2.099 . S
Mg357 O374 2.079 . S
O358 Mg355 2.180 . S
O358 Mg357 2.099 . S
O358 C369 1.279 . S
O359 Mg355 2.117 . S
O359 C369 1.250 . S
O360 Mg357 2.079 . S
O360 C370 1.264 . S
O361 Mg357 2.072 . S
O361 C371 1.260 . S
Mg362 O363 2.180 . S
Mg362 O364 2.030 . S
Mg362 O365 1.990 . S
Mg362 O366 2.117 . S
O363 Mg357 2.099 . S
O363 Mg362 2.180 . S
O363 C372 1.279 . S
O364 Mg362 2.030 . S
O364 C370 1.248 . S
O365 Mg362 1.990 . S
O365 C371 1.253 . S
O366 Mg362 2.117 . S
O366 C372 1.250 . S
C367 O373 1.248 . S
C367 O374 1.264 . S
C368 O354 1.253 . S
C368 O356 1.260 . S
C369 O358 1.279 . S
C369 O359 1.250 . S
C370 O360 1.264 . S
C370 O364 1.248 . S
C371 O361 1.260 . S
C371 O365 1.253 . S
C372 O363 1.279 . S
C372 O366 1.250 . S
O373 Mg355 2.030 . S
O373 C367 1.248 . S
O374 Mg357 2.079 . S
O374 C367 1.264 . S
O375 Mg376 1.990 . S
O375 C389 1.253 . S
Mg376 O375 1.990 . S
Mg376 O379 2.180 . S
Mg376 O380 2.117 . S
Mg376 O394 2.030 . S
O377 Mg378 2.072 1_655 S
O377 C389 1.260 . S
Mg378 O377 2.072 1_455 S
Mg378 O379 2.099 1_455 S
Mg378 O381 2.079 . S
Mg378 O382 2.072 . S
Mg378 O384 2.099 . S
Mg378 O395 2.079 1_455 S
O379 Mg376 2.180 . S
O379 Mg378 2.099 1_655 S
O379 C390 1.279 . S
O380 Mg376 2.117 . S
O380 C390 1.250 . S
O381 Mg378 2.079 . S
O381 C391 1.264 . S
O382 Mg378 2.072 . S
O382 C392 1.260 . S
Mg383 O384 2.180 . S
Mg383 O385 2.030 . S
Mg383 O386 1.990 . S
Mg383 O387 2.117 . S
O384 Mg378 2.099 . S
O384 Mg383 2.180 . S
O384 C393 1.279 . S
O385 Mg383 2.030 . S
O385 C391 1.248 . S
O386 Mg383 1.990 . S
O386 C392 1.253 . S
O387 Mg383 2.117 . S
O387 C393 1.250 . S
C388 O394 1.248 . S
C388 O395 1.264 . S
C389 O375 1.253 . S
C389 O377 1.260 . S
C390 O379 1.279 . S
C390 O380 1.250 . S
C391 O381 1.264 . S
C391 O385 1.248 . S
C392 O382 1.260 . S
C392 O386 1.253 . S
C393 O384 1.279 . S
C393 O387 1.250 . S
O394 Mg376 2.030 . S
O394 C388 1.248 . S
O395 Mg378 2.079 1_655 S
O395 C388 1.264 . S
C255 C327 3.854 . S
C351 C294 2.785 . S
C372 C177 3.765 . S
C390 C216 2.867 . S
C330 C99 3.478 1_545 S
C138 C348 2.142 . S
C21 C369 3.391 . S
C60 C393 2.281 1_655 S
C328 C196 1.504 . S
C346 C235 2.976 . S
C367 C289 1.326 . S
C157 C391 3.041 . S
C40 C326 1.552 1_655 S
C350 C79 3.027 1_545 S
C371 C133 1.378 . S
C1 C389 3.086 . S
C211 C329 3.335 . S
C250 C347 3.652 . S
C368 C274 3.339 . S
C392 C172 3.654 . S
C55 C325 3.134 1_455 S
C349 C94 3.446 . S
C370 C118 3.139 . S
C16 C388 3.453 . S
