# Generated by pormake.
# Topology anh, (6,3)-cn, num edge types: 1
# Building blocks:
#     Node 0, Type 0, BuildingBlock: BETDEL_clean_sbu_0, # of connection points: 6
#     Node 1, Type 0, BuildingBlock: BETDEL_clean_sbu_0, # of connection points: 6
#     Node 2, Type 0, BuildingBlock: BETDEL_clean_sbu_0, # of connection points: 6
#     Node 3, Type 1, BuildingBlock: BETDIP_clean_linker_0, # of connection points: 3
#     Node 4, Type 1, BuildingBlock: BETDIP_clean_linker_0, # of connection points: 3
#     Node 5, Type 1, BuildingBlock: BETDIP_clean_linker_0, # of connection points: 3
#     Node 6, Type 1, BuildingBlock: BETDIP_clean_linker_0, # of connection points: 3
#     Node 7, Type 1, BuildingBlock: BETDIP_clean_linker_0, # of connection points: 3
#     Node 8, Type 1, BuildingBlock: BETDIP_clean_linker_0, # of connection points: 3
#     Edge 9, Type (0, 1), BuildingBlock: ZUJKAS_clean_linker_0, # of connection points: 2
#     Edge 10, Type (0, 1), BuildingBlock: ZUJKAS_clean_linker_0, # of connection points: 2
#     Edge 11, Type (0, 1), BuildingBlock: ZUJKAS_clean_linker_0, # of connection points: 2
#     Edge 12, Type (0, 1), BuildingBlock: ZUJKAS_clean_linker_0, # of connection points: 2
#     Edge 13, Type (0, 1), BuildingBlock: ZUJKAS_clean_linker_0, # of connection points: 2
#     Edge 14, Type (0, 1), BuildingBlock: ZUJKAS_clean_linker_0, # of connection points: 2
#     Edge 15, Type (0, 1), BuildingBlock: ZUJKAS_clean_linker_0, # of connection points: 2
#     Edge 16, Type (0, 1), BuildingBlock: ZUJKAS_clean_linker_0, # of connection points: 2
#     Edge 17, Type (0, 1), BuildingBlock: ZUJKAS_clean_linker_0, # of connection points: 2
#     Edge 18, Type (0, 1), BuildingBlock: ZUJKAS_clean_linker_0, # of connection points: 2
#     Edge 19, Type (0, 1), BuildingBlock: ZUJKAS_clean_linker_0, # of connection points: 2
#     Edge 20, Type (0, 1), BuildingBlock: ZUJKAS_clean_linker_0, # of connection points: 2
#     Edge 21, Type (0, 1), BuildingBlock: ZUJKAS_clean_linker_0, # of connection points: 2
#     Edge 22, Type (0, 1), BuildingBlock: ZUJKAS_clean_linker_0, # of connection points: 2
#     Edge 23, Type (0, 1), BuildingBlock: ZUJKAS_clean_linker_0, # of connection points: 2
#     Edge 24, Type (0, 1), BuildingBlock: ZUJKAS_clean_linker_0, # of connection points: 2
#     Edge 25, Type (0, 1), BuildingBlock: ZUJKAS_clean_linker_0, # of connection points: 2
#     Edge 26, Type (0, 1), BuildingBlock: ZUJKAS_clean_linker_0, # of connection points: 2
# Relax obj value: 0.099
# Max RMSD: 0.162
# Mean RMSD: 0.118
data_MOF--net-anh--node1-BETDEL_clean_sbu_0--node2-BETDIP_clean_linker_0--edge1-ZUJKAS_clean_linker_0
_symmetry_space_group_name_H-M    P1
_symmetry_Int_Tables_number       1
_symmetry_cell_setting            triclinic
loop_
_symmetry_equiv_pos_as_xyz
'x, y, z'
_cell_length_a     38.889024
_cell_length_b     38.923436
_cell_length_c     62.884894
_cell_angle_alpha  93.369787
_cell_angle_beta   90.037126
_cell_angle_gamma 120.1409
loop_
_atom_site_label
_atom_site_type_symbol
_atom_site_fract_x
_atom_site_fract_y
_atom_site_fract_z
_atom_type_partial_charge
Dy0 Dy 0.07539 0.50109 0.16165 0.0
C1 C 0.98513 0.57484 0.19308 0.0
C2 C 0.12635 0.47534 0.14967 0.0
Dy3 Dy 0.0288 0.54767 0.17197 0.0
O4 O 0.11884 0.48149 0.16915 0.0
O5 O 0.10556 0.48284 0.13645 0.0
O6 O 0.05473 0.47292 0.19264 0.0
O7 O 0.06591 0.53119 0.1895 0.0
C8 C 0.05329 0.50303 0.20167 0.0
C9 C 0.03224 0.53565 0.12951 0.0
O10 O 0.09169 0.59823 0.17638 0.0
O11 O 0.124 0.56576 0.16188 0.0
O12 O 1.01082 0.59371 0.17873 0.0
O13 O 0.98415 0.54163 0.19617 0.0
O14 O 1.01464 0.55385 0.13787 0.0
O15 O 0.04593 0.52552 0.14443 0.0
O16 O 1.01281 0.45172 0.15388 0.0
O17 O 0.9817 0.48266 0.17161 0.0
C18 C 0.12419 0.59856 0.16947 0.0
C19 C 0.98073 0.45069 0.16206 0.0
Dy20 Dy 0.48751 0.02145 0.49616 0.0
C21 C 0.65428 0.12084 0.52609 0.0
C22 C 0.41011 0.98115 0.4821 0.0
Dy23 Dy 0.5812 0.07294 0.5066 0.0
O24 O 0.42374 1.00496 0.49923 0.0
O25 O 0.43915 0.98034 0.47223 0.0
O26 O 0.47931 0.99657 0.52832 0.0
O27 O 0.5266 0.05378 0.52387 0.0
C28 C 0.51128 0.02704 0.53683 0.0
C29 C 0.56484 0.0604 0.4641 0.0
O30 O 0.56667 1.0101 0.51176 0.0
O31 O 0.50715 0.97613 0.49152 0.0
O32 O 0.64683 0.09553 0.50989 0.0
O33 O 0.62143 0.11894 0.532 0.0
O34 O 0.60077 0.0806 0.47233 0.0
O35 O 0.54139 0.04912 0.47916 0.0
O36 O 0.49929 0.08408 0.49278 0.0
O37 O 0.56603 0.1213 0.50471 0.0
C38 C 0.53748 0.97691 0.50184 0.0
C39 C 0.53215 0.11872 0.49824 0.0
Dy40 Dy 0.60637 0.55722 0.82949 0.0
C41 C 0.53226 0.39431 0.84829 0.0
C42 C 0.63437 0.63212 0.81677 0.0
Dy43 Dy 0.56009 0.46887 0.835 0.0
O44 O 0.64151 0.62364 0.8353 0.0
O45 O 0.61214 0.59957 0.80505 0.0
O46 O 0.63458 0.56775 0.86208 0.0
O47 O 0.57579 0.52112 0.85596 0.0
C48 C 0.60422 0.53722 0.86955 0.0
C49 C 0.56172 0.48883 0.79488 0.0
O50 O 0.51086 0.4815 0.84184 0.0
O51 O 0.54247 0.54421 0.82869 0.0
O52 O 0.52639 0.40242 0.82938 0.0
O53 O 0.5532 0.42706 0.86009 0.0
O54 O 0.53157 0.45831 0.80252 0.0
O55 O 0.59043 0.50497 0.80836 0.0
O56 O 0.65571 0.54448 0.823 0.0
O57 O 0.62391 0.4823 0.83671 0.0
C58 C 0.51009 0.51312 0.83563 0.0
C59 C 0.6564 0.51319 0.8298 0.0
H60 H 0.52022 0.99661 0.1743 0.0
H61 H 0.57754 0.0667 0.23266 0.0
H62 H 0.46574 0.95771 0.23439 0.0
H63 H 0.58772 0.11619 0.20801 0.0
C64 C 0.60265 0.10634 0.19669 0.0
C65 C 0.52077 1.00103 0.19149 0.0
C66 C 0.48882 0.97335 0.20318 0.0
C67 C 0.55253 0.03552 0.20203 0.0
C68 C 0.5529 0.04076 0.22441 0.0
C69 C 0.52176 0.01291 0.23624 0.0
C70 C 0.48981 0.97959 0.22542 0.0
N71 N 0.58384 0.0649 0.1902 0.0
H72 H 0.53001 0.51514 0.50889 0.0
H73 H 0.54189 0.57835 0.56971 0.0
H74 H 0.54844 0.47154 0.56672 0.0
H75 H 0.49586 0.58887 0.55238 0.0
C76 C 0.51254 0.60055 0.53814 0.0
C77 C 0.53433 0.51797 0.52606 0.0
C78 C 0.53958 0.48949 0.53641 0.0
C79 C 0.53469 0.55017 0.538 0.0
C80 C 0.5408 0.55358 0.56032 0.0
C81 C 0.54517 0.52508 0.57077 0.0
C82 C 0.54475 0.49345 0.55869 0.0
N83 N 0.5295 0.5792 0.52762 0.0
H84 H 0.05126 0.51472 0.83972 0.0
H85 H 0.11051 0.51679 0.89805 0.0
H86 H 0.99488 0.50538 0.89974 0.0
H87 H 0.16378 0.56878 0.87751 0.0
C88 C 0.15853 0.5463 0.86481 0.0
C89 C 0.05157 0.51358 0.85689 0.0
C90 C 0.01845 0.5088 0.86846 0.0
C91 C 0.08531 0.51723 0.86759 0.0
C92 C 0.08529 0.51541 0.88986 0.0
C93 C 0.05275 0.51085 0.90161 0.0
C94 C 0.01961 0.50763 0.89074 0.0
N95 N 0.11897 0.52208 0.85605 0.0
H96 H 0.03334 0.59358 0.48593 0.0
H97 H 0.97573 0.50512 0.43382 0.0
H98 H 0.07648 0.61894 0.42256 0.0
H99 H 0.92135 0.49082 0.45437 0.0
C100 C 0.9341 0.49004 0.4696 0.0
C101 C 0.0311 0.58454 0.46912 0.0
C102 C 0.0589 0.61038 0.45512 0.0
C103 C 1.00042 0.54685 0.46148 0.0
C104 C 0.99813 0.53485 0.43969 0.0
C105 C 0.02557 0.56057 0.42551 0.0
C106 C 0.05571 0.59835 0.43341 0.0
N107 N 0.97309 0.52087 0.47603 0.0
H108 H 0.5768 0.0426 0.82411 0.0
H109 H 0.57377 0.99459 0.76059 0.0
H110 H 0.56238 0.09844 0.77017 0.0
H111 H 0.53315 0.93526 0.78053 0.0
C112 C 0.55798 0.94427 0.79176 0.0
C113 C 0.57413 0.04399 0.80707 0.0
C114 C 0.56977 0.0745 0.79893 0.0
C115 C 0.57422 0.01453 0.79332 0.0
C116 C 0.57189 0.01648 0.77122 0.0
C117 C 0.56824 0.04702 0.76273 0.0
C118 C 0.5669 0.07578 0.77668 0.0
N119 N 0.57715 0.98323 0.80189 0.0
H120 H 0.51522 0.49683 0.14963 0.0
H121 H 0.59468 0.48981 0.10448 0.0
H122 H 0.48522 0.47963 0.08242 0.0
H123 H 0.59909 0.45434 0.13495 0.0
C124 C 0.60775 0.48055 0.14567 0.0
C125 C 0.52195 0.4928 0.13327 0.0
C126 C 0.49548 0.48765 0.11651 0.0
C127 C 0.55724 0.49272 0.12905 0.0
C128 C 0.56687 0.48877 0.10784 0.0
C129 C 0.54113 0.48433 0.0909 0.0
C130 C 0.50532 0.4833 0.09542 0.0
N131 N 0.58366 0.4984 0.14623 0.0
H132 H 0.16445 0.48694 0.11204 0.0
H133 H 0.22529 0.48439 0.10543 0.0
H134 H 0.22083 0.44284 0.16807 0.0
H135 H 0.16104 0.44674 0.17497 0.0
H136 H 0.29149 0.50598 0.16174 0.0
H137 H 0.24943 0.39637 0.09229 0.0
H138 H 0.23956 0.43573 0.08772 0.0
H139 H 0.21298 0.40155 0.10773 0.0
C140 C 0.17602 0.47637 0.12415 0.0
C141 C 0.15827 0.46708 0.144 0.0
C142 C 0.21066 0.47478 0.12035 0.0
C143 C 0.22743 0.4631 0.13621 0.0
C144 C 0.20842 0.45194 0.15563 0.0
H145 H 0.44327 0.44996 0.14782 0.0
H146 H 0.37848 0.44476 0.1533 0.0
C147 C 0.17424 0.45406 0.15952 0.0
C148 C 0.26671 0.46619 0.13352 0.0
H149 H 0.31885 0.43624 0.10139 0.0
C150 C 0.29732 0.49041 0.14864 0.0
C151 C 0.27432 0.446 0.11639 0.0
C152 C 0.24223 0.41815 0.10022 0.0
C153 C 0.33545 0.49535 0.14694 0.0
C154 C 0.34309 0.47556 0.12971 0.0
C155 C 0.31267 0.45138 0.11457 0.0
C156 C 0.38275 0.47999 0.12702 0.0
C157 C 0.36759 0.52223 0.16333 0.0
C158 C 0.40645 0.50179 0.11056 0.0
C159 C 0.44356 0.50524 0.10755 0.0
C160 C 0.45738 0.48648 0.1208 0.0
C161 C 0.43369 0.46512 0.13751 0.0
C162 C 0.39663 0.46192 0.14059 0.0
H163 H 0.35842 0.53987 0.17392 0.0
H164 H 0.37467 0.50389 0.17334 0.0
H165 H 0.3952 0.543 0.15537 0.0
H166 H 0.39618 0.51611 0.10005 0.0
H167 H 0.46138 0.52249 0.09478 0.0
H168 H 0.67519 0.17606 0.55964 0.0
H169 H 0.73417 0.24285 0.56205 0.0
H170 H 0.77991 0.21097 0.50651 0.0
H171 H 0.72232 0.14389 0.50476 0.0
H172 H 0.83987 0.26695 0.53222 0.0
H173 H 0.72556 0.31041 0.51886 0.0
H174 H 0.72284 0.2885 0.54355 0.0
H175 H 0.71295 0.25915 0.51873 0.0
C176 C 0.69866 0.18292 0.5485 0.0
C177 C 0.69394 0.15523 0.53175 0.0
C178 C 0.73214 0.22115 0.54977 0.0
C179 C 0.76061 0.23234 0.53395 0.0
C180 C 0.7581 0.20318 0.51876 0.0
H181 H 0.86445 0.42463 0.45791 0.0
H182 H 0.82603 0.36537 0.47754 0.0
C183 C 0.72511 0.16477 0.51775 0.0
C184 C 0.78901 0.27488 0.53082 0.0
H185 H 0.79177 0.35903 0.51569 0.0
C186 C 0.82957 0.28741 0.52896 0.0
C187 C 0.77531 0.30136 0.52632 0.0
C188 C 0.73181 0.28924 0.52677 0.0
C189 C 0.85638 0.32482 0.52159 0.0
C190 C 0.84232 0.35064 0.51648 0.0
C191 C 0.80237 0.3391 0.51965 0.0
C192 C 0.86664 0.38712 0.50508 0.0
C193 C 0.89882 0.33527 0.51801 0.0
C194 C 0.90219 0.41919 0.51408 0.0
C195 C 0.92446 0.45309 0.50273 0.0
C196 C 0.9111 0.45541 0.48236 0.0
C197 C 0.8753 0.42357 0.4736 0.0
C198 C 0.85336 0.38975 0.4848 0.0
H199 H 0.90302 0.30924 0.51921 0.0
H200 H 0.90817 0.34702 0.50207 0.0
H201 H 0.91871 0.3588 0.53021 0.0
H202 H 0.91259 0.4181 0.52987 0.0
H203 H 0.95193 0.47736 0.50989 0.0
H204 H 0.67299 0.70057 0.84209 0.0
H205 H 0.67252 0.76233 0.83741 0.0
H206 H 0.61284 0.71467 0.77595 0.0
H207 H 0.61307 0.65268 0.78051 0.0
H208 H 0.67977 0.80728 0.78406 0.0
H209 H 0.55058 0.74087 0.83736 0.0
H210 H 0.59533 0.74106 0.84502 0.0
H211 H 0.56621 0.71064 0.8221 0.0
C212 C 0.66086 0.70373 0.82731 0.0
C213 C 0.64259 0.67184 0.81176 0.0
C214 C 0.66069 0.73897 0.82467 0.0
C215 C 0.64242 0.74265 0.80643 0.0
C216 C 0.62717 0.71218 0.79008 0.0
H217 H 0.52403 0.86793 0.77617 0.0
H218 H 0.54808 0.82128 0.78037 0.0
C219 C 0.62724 0.67687 0.79273 0.0
C220 C 0.63352 0.7751 0.80588 0.0
H221 H 0.56727 0.80216 0.82395 0.0
C222 C 0.65551 0.80656 0.79291 0.0
C223 C 0.60159 0.77349 0.81737 0.0
C224 C 0.57679 0.7397 0.83122 0.0
C225 C 0.64594 0.83656 0.79099 0.0
C226 C 0.61369 0.83461 0.80228 0.0
C227 C 0.59209 0.80341 0.81543 0.0
C228 C 0.60013 0.86325 0.79965 0.0
C229 C 0.66938 0.8695 0.77647 0.0
C230 C 0.62135 0.9019 0.80938 0.0
C231 C 0.60749 0.92843 0.80718 0.0
C232 C 0.57232 0.91646 0.79516 0.0
C233 C 0.55115 0.87769 0.78554 0.0
C234 C 0.56486 0.85118 0.78786 0.0
H235 H 0.69143 0.86487 0.76743 0.0
H236 H 0.64892 0.87163 0.76499 0.0
H237 H 0.68544 0.89836 0.78608 0.0
H238 H 0.64845 0.9114 0.81871 0.0
H239 H 0.62447 0.95825 0.8147 0.0
H240 H 0.97911 0.63983 0.18523 0.0
H241 H 0.9185 0.64407 0.18717 0.0
H242 H 0.85929 0.53198 0.21662 0.0
H243 H 0.92 0.52854 0.21548 0.0
H244 H 0.85838 0.59227 0.16358 0.0
H245 H 0.80413 0.58386 0.24493 0.0
H246 H 0.85513 0.59787 0.23991 0.0
H247 H 0.81713 0.54609 0.24003 0.0
C248 C 0.95365 0.61705 0.19297 0.0
C249 C 0.95394 0.58358 0.19992 0.0
C250 C 0.91901 0.61947 0.19407 0.0
C251 C 0.88417 0.58834 0.20202 0.0
C252 C 0.88581 0.55684 0.21083 0.0
H253 H 0.65878 0.45294 0.1459 0.0
H254 H 0.72607 0.4857 0.16191 0.0
C255 C 0.92055 0.55468 0.20998 0.0
C256 C 0.84486 0.58397 0.19683 0.0
H257 H 0.75208 0.55047 0.21625 0.0
C258 C 0.83556 0.58438 0.17528 0.0
C259 C 0.81488 0.57382 0.21197 0.0
C260 C 0.82357 0.57584 0.23552 0.0
C261 C 0.79662 0.57181 0.16827 0.0
C262 C 0.76604 0.55788 0.18311 0.0
C263 C 0.7756 0.56049 0.20487 0.0
C264 C 0.72388 0.53677 0.17574 0.0
C265 C 0.78811 0.57162 0.14483 0.0
C266 C 0.70012 0.5542 0.17882 0.0
C267 C 0.66156 0.53547 0.16966 0.0
C268 C 0.64647 0.49906 0.15743 0.0
C269 C 0.66981 0.48102 0.1552 0.0
C270 C 0.70816 0.49968 0.1643 0.0
H271 H 0.8153 0.59252 0.13659 0.0
H272 H 0.77699 0.54123 0.13728 0.0
H273 H 0.76492 0.57982 0.14238 0.0
H274 H 0.71187 0.58283 0.18764 0.0
H275 H 0.64414 0.55002 0.17166 0.0
H276 H 0.34765 0.97148 0.50572 0.0
H277 H 0.28017 0.91367 0.50347 0.0
H278 H 0.30963 0.86642 0.44717 0.0
H279 H 0.37727 0.92403 0.44935 0.0
H280 H 0.22611 0.85818 0.44934 0.0
H281 H 0.27464 0.80386 0.51689 0.0
H282 H 0.28342 0.85399 0.51936 0.0
H283 H 0.30992 0.84106 0.50024 0.0
C284 C 0.3394 0.94932 0.49252 0.0
C285 C 0.36769 0.95193 0.4778 0.0
C286 C 0.30094 0.91634 0.49131 0.0
C287 C 0.29029 0.88577 0.47531 0.0
C288 C 0.31748 0.88983 0.45963 0.0
H289 H 0.13758 0.64147 0.4486 0.0
H290 H 0.19088 0.71031 0.45656 0.0
C291 C 0.35602 0.9227 0.46088 0.0
C292 C 0.25278 0.84754 0.47627 0.0
H293 H 0.21145 0.76049 0.5011 0.0
C294 C 0.22246 0.83703 0.46087 0.0
C295 C 0.24853 0.8201 0.49128 0.0
C296 C 0.2808 0.82996 0.50788 0.0
C297 C 0.18822 0.7991 0.45976 0.0
C298 C 0.18459 0.7713 0.47435 0.0
C299 C 0.21436 0.78221 0.49012 0.0
C300 C 0.15267 0.7293 0.47165 0.0
C301 C 0.15691 0.78813 0.44242 0.0
C302 C 0.11392 0.71724 0.47809 0.0
C303 C 0.08345 0.67778 0.47372 0.0
C304 C 0.09151 0.65029 0.46268 0.0
C305 C 0.13068 0.66225 0.45702 0.0
C306 C 0.16104 0.70141 0.46156 0.0
H307 H 0.16457 0.81298 0.43205 0.0
H308 H 0.1531 0.76192 0.43238 0.0
H309 H 0.12793 0.77964 0.44968 0.0
H310 H 0.10714 0.73853 0.48596 0.0
H311 H 0.05339 0.66921 0.47809 0.0
H312 H 0.54855 0.37315 0.88611 0.0
H313 H 0.54677 0.3105 0.89212 0.0
H314 H 0.49705 0.2651 0.82841 0.0
H315 H 0.49726 0.32646 0.82274 0.0
H316 H 0.46833 0.20657 0.8556 0.0
H317 H 0.63373 0.29788 0.86475 0.0
H318 H 0.60523 0.30729 0.88425 0.0
H319 H 0.60417 0.31921 0.85716 0.0
C320 C 0.53625 0.34925 0.87367 0.0
C321 C 0.5237 0.3547 0.85383 0.0
C322 C 0.53551 0.31367 0.87706 0.0
C323 C 0.52284 0.28362 0.8605 0.0
C324 C 0.50714 0.28794 0.84139 0.0
H325 H 0.60182 0.15409 0.79437 0.0
H326 H 0.58997 0.20099 0.81583 0.0
C327 C 0.50742 0.32311 0.83812 0.0
C328 C 0.53023 0.24995 0.86141 0.0
H329 H 0.60591 0.22984 0.85702 0.0
C330 C 0.49829 0.21133 0.85643 0.0
C331 C 0.56946 0.25644 0.86256 0.0
C332 C 0.60523 0.29739 0.86735 0.0
C333 C 0.50476 0.17983 0.85035 0.0
C334 C 0.54424 0.18705 0.85003 0.0
C335 C 0.57577 0.22462 0.8572 0.0
C336 C 0.55407 0.15882 0.83872 0.0
C337 C 0.46964 0.14025 0.84248 0.0
C338 C 0.53862 0.11977 0.84474 0.0
C339 C 0.54456 0.0925 0.83213 0.0
C340 C 0.56658 0.10411 0.8135 0.0
C341 C 0.58392 0.14391 0.8083 0.0
C342 C 0.57755 0.17089 0.82071 0.0
H343 H 0.44199 0.14171 0.84066 0.0
H344 H 0.47572 0.12989 0.82686 0.0
H345 H 0.4642 0.11772 0.85403 0.0
H346 H 0.52113 0.11008 0.85882 0.0
H347 H 0.53068 0.06204 0.83658 0.0
H348 H 0.49197 0.9062 0.47814 0.0
H349 H 0.49018 0.84298 0.48102 0.0
H350 H 0.5806 0.89683 0.53135 0.0
H351 H 0.58349 0.96062 0.52809 0.0
H352 H 0.5941 0.84815 0.5054 0.0
H353 H 0.43545 0.76738 0.52617 0.0
H354 H 0.44307 0.78876 0.5009 0.0
H355 H 0.46318 0.8207 0.52494 0.0
C356 C 0.5116 0.90474 0.48982 0.0
C357 C 0.53768 0.93869 0.50299 0.0
C358 C 0.51033 0.86832 0.49155 0.0
C359 C 0.53454 0.86453 0.50677 0.0
C360 C 0.5614 0.89866 0.51954 0.0
H361 H 0.49008 0.64711 0.55989 0.0
H362 H 0.49722 0.71039 0.55096 0.0
C363 C 0.563 0.93525 0.51767 0.0
C364 C 0.53152 0.82504 0.50961 0.0
H365 H 0.46599 0.72848 0.52001 0.0
C366 C 0.56606 0.82199 0.5086 0.0
C367 C 0.49508 0.79074 0.51403 0.0
C368 C 0.45718 0.79203 0.5168 0.0
C369 C 0.56522 0.78598 0.51192 0.0
C370 C 0.52861 0.7515 0.51592 0.0
C371 C 0.49407 0.75456 0.51675 0.0
C372 C 0.52558 0.71284 0.52104 0.0
C373 C 0.60387 0.78572 0.51189 0.0
C374 C 0.53901 0.69242 0.50725 0.0
C375 C 0.53531 0.65598 0.51252 0.0
C376 C 0.51754 0.63901 0.53155 0.0
C377 C 0.50385 0.6593 0.5451 0.0
C378 C 0.50788 0.6956 0.53997 0.0
H379 H 0.63 0.8163 0.5141 0.0
H380 H 0.60509 0.76784 0.52469 0.0
H381 H 0.60638 0.77226 0.49635 0.0
H382 H 0.55193 0.70434 0.49228 0.0
H383 H 0.54594 0.641 0.50167 0.0
H384 H 0.67053 0.4565 0.84486 0.0
H385 H 0.73358 0.45713 0.84699 0.0
H386 H 0.79204 0.56872 0.81723 0.0
H387 H 0.72916 0.56877 0.81542 0.0
H388 H 0.78362 0.4574 0.81658 0.0
H389 H 0.86282 0.59535 0.86989 0.0
H390 H 0.80976 0.56994 0.86471 0.0
H391 H 0.84318 0.60149 0.84548 0.0
C392 C 0.69672 0.48124 0.83873 0.0
C393 C 0.69459 0.51273 0.83008 0.0
C394 C 0.73287 0.48152 0.83995 0.0
C395 C 0.76793 0.5133 0.83263 0.0
C396 C 0.76574 0.5443 0.82348 0.0
H397 H 1.01471 0.55969 0.84121 0.0
H398 H 0.95483 0.56077 0.82949 0.0
C399 C 0.72958 0.54414 0.82232 0.0
C400 C 0.80652 0.51373 0.83465 0.0
H401 H 0.90042 0.56635 0.85751 0.0
C402 C 0.80916 0.48132 0.82548 0.0
C403 C 0.8401 0.54493 0.84623 0.0
C404 C 0.83889 0.57974 0.85732 0.0
C405 C 0.84407 0.47915 0.82766 0.0
C406 C 0.87733 0.50996 0.83954 0.0
C407 C 0.87509 0.54282 0.84828 0.0
C408 C 0.91348 0.50728 0.84452 0.0
C409 C 0.84507 0.44383 0.81716 0.0
C410 C 0.91029 0.47668 0.85662 0.0
C411 C 0.94432 0.47608 0.8633 0.0
C412 C 0.98251 0.50605 0.85806 0.0
C413 C 0.98571 0.53589 0.84525 0.0
C414 C 0.95152 0.53669 0.8387 0.0
H415 H 0.82277 0.42945 0.80373 0.0
H416 H 0.87501 0.45267 0.81109 0.0
H417 H 0.83794 0.42139 0.82904 0.0
H418 H 0.8815 0.45403 0.86166 0.0
H419 H 0.94086 0.45279 0.87323 0.0
H420 H 0.13769 0.67277 0.18327 0.0
H421 H 0.20066 0.73591 0.18526 0.0
H422 H 0.26125 0.67568 0.1606 0.0
H423 H 0.19829 0.6124 0.15824 0.0
H424 H 0.26862 0.75653 0.20864 0.0
H425 H 0.30195 0.76864 0.1227 0.0
H426 H 0.25353 0.73377 0.13203 0.0
H427 H 0.29338 0.72305 0.13304 0.0
C428 C 0.16428 0.67283 0.17813 0.0
C429 C 0.16263 0.63724 0.17054 0.0
C430 C 0.20038 0.70909 0.17928 0.0
C431 C 0.23577 0.71086 0.17277 0.0
C432 C 0.23431 0.67541 0.16525 0.0
H433 H 0.48423 0.90762 0.18166 0.0
H434 H 0.42317 0.84339 0.17269 0.0
C435 C 0.1982 0.63908 0.16407 0.0
C436 C 0.27428 0.74949 0.17486 0.0
H437 H 0.35233 0.81686 0.14686 0.0
C438 C 0.28679 0.76971 0.19509 0.0
C439 C 0.29836 0.76669 0.15724 0.0
C440 C 0.28607 0.74716 0.13498 0.0
C441 C 0.32249 0.80634 0.19823 0.0
C442 C 0.34621 0.82396 0.18058 0.0
C443 C 0.33414 0.80351 0.16037 0.0
C444 C 0.38306 0.86396 0.18296 0.0
C445 C 0.33478 0.82557 0.22058 0.0
C446 C 0.38085 0.89735 0.19072 0.0
C447 C 0.4155 0.93378 0.19582 0.0
C448 C 0.45321 0.93791 0.19294 0.0
C449 C 0.45554 0.90536 0.18376 0.0
C450 C 0.42068 0.86864 0.17878 0.0
H451 H 0.31981 0.80362 0.23277 0.0
H452 H 0.36748 0.83999 0.22335 0.0
H453 H 0.32627 0.84878 0.22291 0.0
H454 H 0.35225 0.89481 0.19366 0.0
H455 H 0.4129 0.95837 0.20295 0.0
H456 H 0.46933 0.12906 0.48699 0.0
H457 H 0.46791 0.19145 0.48779 0.0
H458 H 0.59053 0.25653 0.51015 0.0
H459 H 0.59249 0.1949 0.50905 0.0
H460 H 0.47921 0.24436 0.52108 0.0
H461 H 0.59405 0.32245 0.46234 0.0
H462 H 0.57216 0.26979 0.4654 0.0
H463 H 0.61208 0.30551 0.48322 0.0
C464 C 0.49616 0.15668 0.49185 0.0
C465 C 0.5311 0.15664 0.49781 0.0
C466 C 0.49527 0.19243 0.49235 0.0
C467 C 0.52933 0.22908 0.49865 0.0
C468 C 0.56412 0.22902 0.50465 0.0
H469 H 0.59762 0.47005 0.53729 0.0
H470 H 0.59246 0.4066 0.52533 0.0
C471 C 0.56507 0.19345 0.50414 0.0
C472 C 0.52826 0.26716 0.49997 0.0
H473 H 0.57781 0.36336 0.48536 0.0
C474 C 0.50036 0.27017 0.51298 0.0
C475 C 0.55576 0.30105 0.48941 0.0
C476 C 0.58492 0.29949 0.47414 0.0
C477 C 0.50048 0.30638 0.51652 0.0
C478 C 0.5289 0.34061 0.50655 0.0
C479 C 0.55602 0.33729 0.49304 0.0
C480 C 0.53307 0.38072 0.51136 0.0
C481 C 0.47133 0.30817 0.53173 0.0
C482 C 0.50209 0.38824 0.50674 0.0
C483 C 0.5052 0.42492 0.51341 0.0
C484 C 0.53932 0.45469 0.52486 0.0
C485 C 0.57103 0.44779 0.52841 0.0
C486 C 0.56804 0.41142 0.52164 0.0
H487 H 0.45657 0.28148 0.54115 0.0
H488 H 0.4865 0.33511 0.5429 0.0
H489 H 0.44795 0.3099 0.52254 0.0
H490 H 0.47503 0.36535 0.49851 0.0
H491 H 0.48013 0.42916 0.51065 0.0
H492 H 0.49646 0.57313 0.82535 0.0
H493 H 0.43477 0.57524 0.82842 0.0
H494 H 0.37598 0.45769 0.85162 0.0
H495 H 0.43756 0.45548 0.84889 0.0
H496 H 0.35872 0.52636 0.8098 0.0
H497 H 0.35459 0.52185 0.89785 0.0
H498 H 0.39815 0.53146 0.88328 0.0
H499 H 0.3572 0.48141 0.88423 0.0
C500 C 0.47048 0.54769 0.83115 0.0
C501 C 0.47231 0.51426 0.83705 0.0
C502 C 0.4351 0.54891 0.83283 0.0
C503 C 0.40071 0.51687 0.84055 0.0
C504 C 0.40221 0.48314 0.84603 0.0
H505 H 0.16007 0.48936 0.83654 0.0
H506 H 0.21743 0.48033 0.82937 0.0
C507 C 0.43755 0.48189 0.84437 0.0
C508 C 0.36357 0.51902 0.84312 0.0
H509 H 0.29891 0.51799 0.88029 0.0
C510 C 0.34558 0.52444 0.8252 0.0
C511 C 0.34649 0.51687 0.86325 0.0
C512 C 0.36522 0.51294 0.88331 0.0
C513 C 0.31113 0.52773 0.82687 0.0
C514 C 0.29385 0.52514 0.84696 0.0
C515 C 0.31183 0.51963 0.86484 0.0
C516 C 0.25886 0.53082 0.85023 0.0
C517 C 0.29423 0.53517 0.80722 0.0
C518 C 0.26273 0.56187 0.86442 0.0
C519 C 0.23014 0.56689 0.86856 0.0
C520 C 0.19266 0.54097 0.85869 0.0
C521 C 0.18862 0.51002 0.84427 0.0
C522 C 0.22146 0.50495 0.84011 0.0
H523 H 0.31564 0.54493 0.79414 0.0
H524 H 0.26705 0.50723 0.80144 0.0
H525 H 0.2858 0.55817 0.81089 0.0
H526 H 0.29109 0.58222 0.87246 0.0
H527 H 0.23419 0.59094 0.87979 0.0
H528 H 0.96433 0.37578 0.14654 0.0
H529 H 0.90098 0.31271 0.14738 0.0
H530 H 0.84707 0.37506 0.17807 0.0
H531 H 0.90942 0.43774 0.17705 0.0
H532 H 0.85669 0.27439 0.18191 0.0
H533 H 0.76712 0.31144 0.1298 0.0
H534 H 0.82078 0.34022 0.13146 0.0
H535 H 0.7919 0.34864 0.15127 0.0
C536 C 0.93888 0.37614 0.15326 0.0
C537 C 0.94218 0.41214 0.16157 0.0
C538 C 0.90265 0.33998 0.15378 0.0
C539 C 0.86887 0.33906 0.16244 0.0
C540 C 0.87225 0.37492 0.17081 0.0
H541 H 0.63697 0.18556 0.20481 0.0
H542 H 0.70171 0.23818 0.1942 0.0
C543 C 0.90824 0.41089 0.17031 0.0
C544 C 0.83035 0.30081 0.16357 0.0
H545 H 0.73048 0.25767 0.15238 0.0
C546 C 0.82917 0.27039 0.17512 0.0
C547 C 0.79433 0.29533 0.15464 0.0
C548 C 0.79357 0.32548 0.14091 0.0
C549 C 0.79284 0.2359 0.17901 0.0
C550 C 0.7567 0.23144 0.17096 0.0
C551 C 0.75809 0.26107 0.15865 0.0
C552 C 0.71699 0.19841 0.17678 0.0
C553 C 0.79317 0.20544 0.19263 0.0
C554 C 0.70351 0.15826 0.17031 0.0
C555 C 0.66606 0.12786 0.17631 0.0
C556 C 0.64159 0.13722 0.1889 0.0
C557 C 0.65509 0.17739 0.19509 0.0
C558 C 0.69214 0.20756 0.18903 0.0
H559 H 0.82289 0.21614 0.20031 0.0
H560 H 0.77095 0.19768 0.20524 0.0
H561 H 0.78493 0.17785 0.18256 0.0
H562 H 0.7219 0.15045 0.16062 0.0
H563 H 0.65654 0.09719 0.17132 0.0
H564 H 0.9932 0.54725 0.09771 0.0
H565 H 0.99953 0.53962 0.05934 0.0
H566 H 0.08606 0.50373 0.07067 0.0
H567 H 0.07914 0.51074 0.10925 0.0
H568 H 0.06554 0.57989 0.03652 0.0
H569 H 1.01024 0.41748 0.02662 0.0
H570 H 1.00331 0.44085 0.05059 0.0
H571 H 0.0506 0.44457 0.04588 0.0
C572 C 1.01331 0.53736 0.09202 0.0
C573 C 0.03551 0.52925 0.10642 0.0
C574 C 0.01693 0.53306 0.0701 0.0
C575 C 0.04292 0.52067 0.06209 0.0
C576 C 0.06516 0.51248 0.07646 0.0
H577 H 0.11573 0.55643 0.92973 0.0
H578 H 0.11622 0.55751 0.96862 0.0
C579 C 0.06131 0.51655 0.09848 0.0
C580 C 0.04763 0.51817 0.03873 0.0
H581 H 0.0354 0.45408 0.99606 0.0
C582 C 0.05907 0.55241 0.02767 0.0
C583 C 0.03881 0.48219 0.02721 0.0
C584 C 0.02471 0.44405 0.0381 0.0
C585 C 0.06149 0.55161 0.00541 0.0
C586 C 0.05321 0.51579 0.99389 0.0
C587 C 0.04208 0.48158 0.00495 0.0
C588 C 0.05403 0.51283 0.97028 0.0
C589 C 0.07152 0.58882 0.9944 0.0
C590 C 0.01935 0.48615 0.95826 0.0
C591 C 0.01913 0.48492 0.936 0.0
C592 C 0.05363 0.5104 0.92528 0.0
C593 C 0.08868 0.53623 0.9374 0.0
C594 C 0.08891 0.53724 0.95967 0.0
H595 H 0.06699 0.61017 0.00483 0.0
H596 H 0.10327 0.60392 0.99016 0.0
H597 H 0.05311 0.58154 0.97952 0.0
H598 H 0.99216 0.46683 0.96612 0.0
H599 H 0.99184 0.4641 0.92719 0.0
H600 H 0.49122 0.02696 0.44392 0.0
H601 H 0.47642 0.01443 0.40519 0.0
H602 H 0.60143 0.06397 0.39401 0.0
H603 H 0.61622 0.07638 0.43234 0.0
H604 H 0.51145 0.07445 0.37256 0.0
H605 H 0.54478 0.95187 0.36079 0.0
H606 H 0.53311 0.96619 0.38643 0.0
H607 H 0.58203 0.99503 0.37626 0.0
C608 C 0.51535 0.03482 0.43314 0.0
C609 C 0.55477 0.05229 0.44106 0.0
C610 C 0.50694 0.02782 0.4111 0.0
C611 C 0.53783 0.03781 0.39682 0.0
C612 C 0.57714 0.0555 0.40479 0.0
H613 H 0.58521 0.0372 0.26406 0.0
H614 H 0.58589 0.04313 0.30301 0.0
C615 C 0.58553 0.0627 0.42668 0.0
C616 C 0.5298 0.03081 0.37349 0.0
H617 H 0.54177 0.98241 0.32963 0.0
C618 C 0.51744 0.05392 0.36312 0.0
C619 C 0.53785 1.00411 0.36131 0.0
C620 C 0.54985 0.97758 0.37173 0.0
C621 C 0.51469 0.05235 0.34076 0.0
C622 C 0.5239 0.02646 0.32855 0.0
C623 C 0.53501 1.00244 0.339 0.0
C624 C 0.52344 0.02459 0.30491 0.0
C625 C 0.50367 0.07965 0.33038 0.0
C626 C 0.48812 0.01226 0.29306 0.0
C627 C 0.48773 1.00922 0.27078 0.0
C628 C 0.52261 0.01812 0.25991 0.0
C629 C 0.55798 0.03068 0.27188 0.0
C630 C 0.55835 0.03378 0.29415 0.0
H631 H 0.50676 0.10408 0.34175 0.0
H632 H 0.5225 0.09294 0.31656 0.0
H633 H 0.4722 0.06225 0.3245 0.0
H634 H 0.4607 1.00439 0.30102 0.0
H635 H 0.46006 0.99979 0.26205 0.0
H636 H 0.50323 0.45229 0.76416 0.0
H637 H 0.50599 0.46751 0.72686 0.0
H638 H 0.62619 0.56505 0.73797 0.0
H639 H 0.62396 0.5491 0.77533 0.0
H640 H 0.51793 0.5346 0.70875 0.0
H641 H 0.63808 0.50212 0.68752 0.0
H642 H 0.61259 0.48862 0.71226 0.0
H643 H 0.6505 0.53927 0.70905 0.0
C644 C 0.5303 0.47694 0.75866 0.0
C645 C 0.56349 0.49935 0.77258 0.0
C646 C 0.53179 0.48569 0.73735 0.0
C647 C 0.56646 0.51706 0.72952 0.0
C648 C 0.59941 0.54019 0.74354 0.0
H649 H 0.59337 0.59055 0.59757 0.0
H650 H 0.60075 0.59349 0.63659 0.0
C651 C 0.59802 0.53124 0.7649 0.0
C652 C 0.56771 0.52484 0.70662 0.0
H653 H 0.61244 0.5227 0.66016 0.0
C654 C 0.53886 0.53238 0.69818 0.0
C655 C 0.59495 0.52176 0.6928 0.0
C656 C 0.6256 0.51218 0.70075 0.0
C657 C 0.536 0.53607 0.67626 0.0
C658 C 0.56267 0.53221 0.6625 0.0
C659 C 0.59225 0.52587 0.6709 0.0
C660 C 0.55795 0.53115 0.63911 0.0
C661 C 0.50386 0.54295 0.66774 0.0
C662 C 0.53142 0.49516 0.62781 0.0
C663 C 0.52717 0.49336 0.60566 0.0
C664 C 0.54936 0.52759 0.5944 0.0
C665 C 0.57568 0.56378 0.60583 0.0
C666 C 0.58007 0.56549 0.62805 0.0
H667 H 0.48782 0.549 0.6807 0.0
H668 H 0.51693 0.56842 0.65742 0.0
H669 H 0.48205 0.5162 0.65777 0.0
H670 H 0.51408 0.46841 0.63616 0.0
H671 H 0.50629 0.46519 0.59734 0.0
H672 H 0.48494 0.96978 0.56511 0.0
H673 H 0.50151 0.9785 0.60335 0.0
H674 H 0.58185 0.10394 0.59773 0.0
H675 H 0.56459 0.09553 0.55955 0.0
H676 H 0.57648 1.00956 0.62521 0.0
H677 H 0.50502 0.1004 0.64392 0.0
H678 H 0.4962 0.07176 0.61883 0.0
H679 H 0.54183 0.11816 0.62385 0.0
C680 C 0.50625 0.99917 0.57204 0.0
C681 C 0.52358 0.032 0.55945 0.0
C682 C 0.51574 1.00408 0.59382 0.0
C683 C 0.5425 0.04192 0.60335 0.0
C684 C 0.56072 0.0746 0.59069 0.0
H685 H 0.60546 0.11213 0.739 0.0
H686 H 0.60255 0.11338 0.70011 0.0
C687 C 0.5512 0.06969 0.56888 0.0
C688 C 0.5504 0.04704 0.62665 0.0
H689 H 0.53542 0.08814 0.67262 0.0
C690 C 0.56772 0.0269 0.6356 0.0
C691 C 0.53902 0.06981 0.64007 0.0
C692 C 0.5192 0.09108 0.63128 0.0
C693 C 0.5736 0.02857 0.65772 0.0
C694 C 0.56114 0.05037 0.67118 0.0
C695 C 0.54487 0.07144 0.66221 0.0
C696 C 0.56277 0.04988 0.69463 0.0
C697 C 0.59305 1.00696 0.66649 0.0
C698 C 0.5406 0.01392 0.70435 0.0
C699 C 0.54201 0.01314 0.72646 0.0
C700 C 0.56548 0.04838 0.7393 0.0
C701 C 0.58694 0.08456 0.72954 0.0
C702 C 0.5855 0.0853 0.70736 0.0
H703 H 0.61083 1.00159 0.65432 0.0
H704 H 0.61275 0.02402 0.68059 0.0
H705 H 0.56967 0.97761 0.67151 0.0
H706 H 0.52204 0.98644 0.69482 0.0
H707 H 0.5245 0.98494 0.73354 0.0
H708 H 0.53912 0.48083 0.88888 0.0
H709 H 0.53323 0.46766 0.92676 0.0
H710 H 0.65657 0.55735 0.93836 0.0
H711 H 0.66255 0.57092 0.9006 0.0
H712 H 0.57722 0.44573 0.95429 0.0
H713 H 0.59539 0.59379 0.9786 0.0
H714 H 0.58471 0.5732 0.95135 0.0
H715 H 0.63429 0.59506 0.96268 0.0
C716 C 0.56501 0.49753 0.89951 0.0
C717 C 0.60118 0.5272 0.89193 0.0
C718 C 0.56163 0.48993 0.92108 0.0
C719 C 0.59431 0.51197 0.93534 0.0
C720 C 0.63085 0.54053 0.92763 0.0
H721 H 0.61331 0.53099 0.07368 0.0
H722 H 0.62934 0.53427 0.03598 0.0
C723 C 0.63423 0.54817 0.90609 0.0
C724 C 0.58973 0.50629 0.95842 0.0
H725 H 0.59119 0.55348 0.00615 0.0
C726 C 0.58033 0.46924 0.96568 0.0
C727 C 0.5938 0.53708 0.97316 0.0
C728 C 0.60226 0.57694 0.96612 0.0
C729 C 0.57515 0.46226 0.98742 0.0
C730 C 0.57888 0.49297 0.00212 0.0
C731 C 0.58865 0.53009 0.99484 0.0
C732 C 0.57085 0.48697 0.02501 0.0
C733 C 0.56612 0.42228 0.99448 0.0
C734 C 0.53284 0.45888 0.03134 0.0
C735 C 0.52369 0.45676 0.05286 0.0
C736 C 0.55229 0.48296 0.06843 0.0
C737 C 0.59078 0.5101 0.06211 0.0
C738 C 0.59992 0.51216 0.04057 0.0
H739 H 0.57578 0.40672 0.98268 0.0
H740 H 0.5809 0.4254 0.01017 0.0
H741 H 0.53353 0.40328 0.99608 0.0
H742 H 0.50974 0.43968 0.01957 0.0
H743 H 0.49389 0.4353 0.05727 0.0
H744 H 1.01491 0.44145 0.22692 0.0
H745 H 0.99953 0.4447 0.26444 0.0
H746 H 0.05132 0.57209 0.26377 0.0
H747 H 0.0652 0.56864 0.22599 0.0
H748 H 0.05078 0.48035 0.29621 0.0
H749 H 0.95259 0.54485 0.29516 0.0
H750 H 0.96459 0.52591 0.27115 0.0
H751 H 0.99835 0.5755 0.28245 0.0
C752 C 0.02238 0.47002 0.23473 0.0
C753 C 0.04131 0.50482 0.22369 0.0
C754 C 1.01359 0.47186 0.25613 0.0
C755 C 0.02384 0.50856 0.26689 0.0
C756 C 0.04214 0.54329 0.2557 0.0
H757 H 0.08674 0.57492 0.39924 0.0
H758 H 0.08294 0.55903 0.36095 0.0
C759 C 0.0504 0.54137 0.23418 0.0
C760 C 0.01875 0.51091 0.29019 0.0
H761 H 0.98426 0.54963 0.32906 0.0
C762 C 0.03572 0.49502 0.30335 0.0
C763 C 0.99858 0.52946 0.29955 0.0
C764 C 0.97713 0.54449 0.2863 0.0
C765 C 0.03441 0.49847 0.3256 0.0
C766 C 0.01673 0.51951 0.33498 0.0
C767 C 0.99831 0.53399 0.32185 0.0
C768 C 0.01861 0.52833 0.35832 0.0
C769 C 0.05196 0.47948 0.33878 0.0
C770 C 0.98375 0.5173 0.3695 0.0
C771 C 0.98586 0.52716 0.3914 0.0
C772 C 0.02293 0.54834 0.40246 0.0
C773 C 0.05773 0.559 0.39119 0.0
C774 C 0.05559 0.54943 0.36933 0.0
H775 H 0.05163 0.45396 0.32967 0.0
H776 H 0.08343 0.50173 0.34318 0.0
H777 H 0.03555 0.46878 0.35364 0.0
H778 H 0.95492 0.50128 0.36126 0.0
H779 H 0.95854 0.51899 0.39954 0.0
loop_
_geom_bond_atom_site_label_1
_geom_bond_atom_site_label_2
_geom_bond_distance
_geom_bond_site_symmetry_2
_ccdc_geom_bond_type
Dy0 O4 2.398 . S
Dy0 O5 2.491 . S
Dy0 O6 2.403 . S
Dy0 O7 2.664 . S
Dy0 O11 2.326 . S
Dy0 O15 2.310 . S
Dy0 O16 2.351 . S
C1 O12 1.185 . S
C1 O13 1.355 . S
C2 O4 1.185 . S
C2 O5 1.355 . S
Dy3 O7 2.310 . S
Dy3 O10 2.351 . S
Dy3 O12 2.398 1_455 S
Dy3 O13 2.491 1_455 S
Dy3 O14 2.403 . S
Dy3 O15 2.664 . S
Dy3 O17 2.326 1_455 S
O4 Dy0 2.398 . S
O4 C2 1.185 . S
O5 Dy0 2.491 . S
O5 C2 1.355 . S
O6 Dy0 2.403 . S
O6 C8 1.254 . S
O7 Dy0 2.664 . S
O7 Dy3 2.310 . S
O7 C8 1.268 . S
C8 O6 1.254 . S
C8 O7 1.268 . S
C9 O14 1.254 . S
C9 O15 1.268 . S
O10 Dy3 2.351 . S
O10 C18 1.249 . S
O11 Dy0 2.326 . S
O11 C18 1.267 . S
O12 C1 1.185 . S
O12 Dy3 2.398 1_655 S
O13 C1 1.355 . S
O13 Dy3 2.491 1_655 S
O14 Dy3 2.403 . S
O14 C9 1.254 . S
O15 Dy0 2.310 . S
O15 Dy3 2.664 . S
O15 C9 1.268 . S
O16 Dy0 2.351 . S
O16 C19 1.249 1_455 S
O17 Dy3 2.326 1_655 S
O17 C19 1.267 . S
C18 O10 1.249 . S
C18 O11 1.267 . S
C19 O16 1.249 1_655 S
C19 O17 1.267 . S
Dy20 O24 2.398 . S
Dy20 O25 2.491 . S
Dy20 O26 2.403 . S
Dy20 O27 2.664 1_565 S
Dy20 O31 2.326 . S
Dy20 O35 2.310 1_565 S
Dy20 O36 2.351 1_565 S
C21 O32 1.185 . S
C21 O33 1.355 . S
C22 O24 1.185 . S
C22 O25 1.355 . S
Dy23 O27 2.310 . S
Dy23 O30 2.351 1_545 S
Dy23 O32 2.398 . S
Dy23 O33 2.491 . S
Dy23 O34 2.403 . S
Dy23 O35 2.664 . S
Dy23 O37 2.326 . S
O24 Dy20 2.398 . S
O24 C22 1.185 . S
O25 Dy20 2.491 . S
O25 C22 1.355 . S
O26 Dy20 2.403 . S
O26 C28 1.254 1_565 S
O27 Dy20 2.664 1_545 S
O27 Dy23 2.310 . S
O27 C28 1.268 . S
C28 O26 1.254 1_545 S
C28 O27 1.268 . S
C29 O34 1.254 . S
C29 O35 1.268 . S
O30 Dy23 2.351 1_565 S
O30 C38 1.249 . S
O31 Dy20 2.326 . S
O31 C38 1.267 . S
O32 C21 1.185 . S
O32 Dy23 2.398 . S
O33 C21 1.355 . S
O33 Dy23 2.491 . S
O34 Dy23 2.403 . S
O34 C29 1.254 . S
O35 Dy20 2.310 1_545 S
O35 Dy23 2.664 . S
O35 C29 1.268 . S
O36 Dy20 2.351 1_545 S
O36 C39 1.249 . S
O37 Dy23 2.326 . S
O37 C39 1.267 . S
C38 O30 1.249 . S
C38 O31 1.267 . S
C39 O36 1.249 . S
C39 O37 1.267 . S
Dy40 O44 2.398 . S
Dy40 O45 2.491 . S
Dy40 O46 2.403 . S
Dy40 O47 2.664 . S
Dy40 O51 2.326 . S
Dy40 O55 2.310 . S
Dy40 O56 2.351 . S
C41 O52 1.185 . S
C41 O53 1.355 . S
C42 O44 1.185 . S
C42 O45 1.355 . S
Dy43 O47 2.310 . S
Dy43 O50 2.351 . S
Dy43 O52 2.398 . S
Dy43 O53 2.491 . S
Dy43 O54 2.403 . S
Dy43 O55 2.664 . S
Dy43 O57 2.326 . S
O44 Dy40 2.398 . S
O44 C42 1.185 . S
O45 Dy40 2.491 . S
O45 C42 1.355 . S
O46 Dy40 2.403 . S
O46 C48 1.254 . S
O47 Dy40 2.664 . S
O47 Dy43 2.310 . S
O47 C48 1.268 . S
C48 O46 1.254 . S
C48 O47 1.268 . S
C49 O54 1.254 . S
C49 O55 1.268 . S
O50 Dy43 2.351 . S
O50 C58 1.249 . S
O51 Dy40 2.326 . S
O51 C58 1.267 . S
O52 C41 1.185 . S
O52 Dy43 2.398 . S
O53 C41 1.355 . S
O53 Dy43 2.491 . S
O54 Dy43 2.403 . S
O54 C49 1.254 . S
O55 Dy40 2.310 . S
O55 Dy43 2.664 . S
O55 C49 1.268 . S
O56 Dy40 2.351 . S
O56 C59 1.249 . S
O57 Dy43 2.326 . S
O57 C59 1.267 . S
C58 O50 1.249 . S
C58 O51 1.267 . S
C59 O56 1.249 . S
C59 O57 1.267 . S
H60 C65 0.930 . S
H61 C68 0.930 . S
H62 C70 0.930 . S
H63 C64 1.016 . S
C64 H63 1.016 . S
C64 N71 1.286 . S
C65 H60 0.930 . S
C65 C66 1.397 . S
C65 C67 1.361 1_565 S
C66 C65 1.397 . S
C66 C70 1.390 . S
C67 C65 1.361 1_545 S
C67 C68 1.393 . S
C67 N71 1.413 . S
C68 H61 0.930 . S
C68 C67 1.393 . S
C68 C69 1.399 . S
C69 C68 1.399 . S
C69 C70 1.381 1_545 S
C70 H62 0.930 . S
C70 C66 1.390 . S
C70 C69 1.381 1_565 S
N71 C64 1.286 . S
N71 C67 1.413 . S
H72 C77 0.930 . S
H73 C80 0.930 . S
H74 C82 0.930 . S
H75 C76 1.016 . S
C76 H75 1.016 . S
C76 N83 1.286 . S
C77 H72 0.930 . S
C77 C78 1.397 . S
C77 C79 1.361 . S
C78 C77 1.397 . S
C78 C82 1.390 . S
C79 C77 1.361 . S
C79 C80 1.393 . S
C79 N83 1.413 . S
C80 H73 0.930 . S
C80 C79 1.393 . S
C80 C81 1.399 . S
C81 C80 1.399 . S
C81 C82 1.381 . S
C82 H74 0.930 . S
C82 C78 1.390 . S
C82 C81 1.381 . S
N83 C76 1.286 . S
N83 C79 1.413 . S
H84 C89 0.930 . S
H85 C92 0.930 . S
H86 C94 0.930 . S
H87 C88 1.016 . S
C88 H87 1.016 . S
C88 N95 1.286 . S
C89 H84 0.930 . S
C89 C90 1.397 . S
C89 C91 1.361 . S
C90 C89 1.397 . S
C90 C94 1.390 . S
C91 C89 1.361 . S
C91 C92 1.393 . S
C91 N95 1.413 . S
C92 H85 0.930 . S
C92 C91 1.393 . S
C92 C93 1.399 . S
C93 C92 1.399 . S
C93 C94 1.381 . S
C94 H86 0.930 . S
C94 C90 1.390 . S
C94 C93 1.381 . S
N95 C88 1.286 . S
N95 C91 1.413 . S
H96 C101 0.930 . S
H97 C104 0.930 . S
H98 C106 0.930 . S
H99 C100 1.016 . S
C100 H99 1.016 . S
C100 N107 1.286 . S
C101 H96 0.930 . S
C101 C102 1.397 . S
C101 C103 1.361 1_455 S
C102 C101 1.397 . S
C102 C106 1.390 . S
C103 C101 1.361 1_655 S
C103 C104 1.393 . S
C103 N107 1.413 . S
C104 H97 0.930 . S
C104 C103 1.393 . S
C104 C105 1.399 1_655 S
C105 C104 1.399 1_455 S
C105 C106 1.381 . S
C106 H98 0.930 . S
C106 C102 1.390 . S
C106 C105 1.381 . S
N107 C100 1.286 . S
N107 C103 1.413 . S
H108 C113 0.930 . S
H109 C116 0.930 1_565 S
H110 C118 0.930 . S
H111 C112 1.016 . S
C112 H111 1.016 . S
C112 N119 1.286 . S
C113 H108 0.930 . S
C113 C114 1.397 . S
C113 C115 1.361 . S
C114 C113 1.397 . S
C114 C118 1.390 . S
C115 C113 1.361 . S
C115 C116 1.393 . S
C115 N119 1.413 1_545 S
C116 H109 0.930 1_545 S
C116 C115 1.393 . S
C116 C117 1.399 . S
C117 C116 1.399 . S
C117 C118 1.381 . S
C118 H110 0.930 . S
C118 C114 1.390 . S
C118 C117 1.381 . S
N119 C112 1.286 . S
N119 C115 1.413 1_565 S
H120 C125 0.930 . S
H121 C128 0.930 . S
H122 C130 0.930 . S
H123 C124 1.016 . S
C124 H123 1.016 . S
C124 N131 1.286 . S
C125 H120 0.930 . S
C125 C126 1.397 . S
C125 C127 1.361 . S
C126 C125 1.397 . S
C126 C130 1.390 . S
C127 C125 1.361 . S
C127 C128 1.393 . S
C127 N131 1.413 . S
C128 H121 0.930 . S
C128 C127 1.393 . S
C128 C129 1.399 . S
C129 C128 1.399 . S
C129 C130 1.381 . S
C130 H122 0.930 . S
C130 C126 1.390 . S
C130 C129 1.381 . S
N131 C124 1.286 . S
N131 C127 1.413 . S
H132 C140 0.929 . S
H133 C142 0.930 . S
H134 C144 0.930 . S
H135 C147 0.929 . S
H136 C150 0.930 . S
H137 C152 0.960 . S
H138 C152 0.960 . S
H139 C152 0.960 . S
C140 H132 0.929 . S
C140 C141 1.377 . S
C140 C142 1.384 . S
C141 C140 1.377 . S
C141 C147 1.390 . S
C142 H133 0.930 . S
C142 C140 1.384 . S
C142 C143 1.372 . S
C143 C142 1.372 . S
C143 C144 1.400 . S
C143 C148 1.490 . S
C144 H134 0.930 . S
C144 C143 1.400 . S
C144 C147 1.386 . S
H145 C161 0.930 . S
H146 C162 0.931 . S
C147 H135 0.929 . S
C147 C141 1.390 . S
C147 C144 1.386 . S
C148 C143 1.490 . S
C148 C150 1.395 . S
C148 C151 1.403 . S
H149 C155 0.930 . S
C150 H136 0.930 . S
C150 C148 1.395 . S
C150 C153 1.403 . S
C151 C148 1.403 . S
C151 C152 1.524 . S
C151 C155 1.400 . S
C152 H137 0.960 . S
C152 H138 0.960 . S
C152 H139 0.960 . S
C152 C151 1.524 . S
C153 C150 1.403 . S
C153 C154 1.392 . S
C153 C157 1.495 . S
C154 C153 1.392 . S
C154 C155 1.385 . S
C154 C156 1.478 . S
C155 H149 0.930 . S
C155 C151 1.400 . S
C155 C154 1.385 . S
C156 C154 1.478 . S
C156 C158 1.381 . S
C156 C162 1.383 . S
C157 C153 1.495 . S
C157 H163 0.959 . S
C157 H164 0.961 . S
C157 H165 0.960 . S
C158 C156 1.381 . S
C158 C159 1.394 . S
C158 H166 0.930 . S
C159 C158 1.394 . S
C159 C160 1.383 . S
C159 H167 0.929 . S
C160 C159 1.383 . S
C160 C161 1.377 . S
C161 H145 0.930 . S
C161 C160 1.377 . S
C161 C162 1.379 . S
C162 H146 0.931 . S
C162 C156 1.383 . S
C162 C161 1.379 . S
H163 C157 0.959 . S
H164 C157 0.961 . S
H165 C157 0.960 . S
H166 C158 0.930 . S
H167 C159 0.929 . S
H168 C176 0.929 . S
H169 C178 0.930 . S
H170 C180 0.930 . S
H171 C183 0.929 . S
H172 C186 0.930 . S
H173 C188 0.960 . S
H174 C188 0.960 . S
H175 C188 0.960 . S
C176 H168 0.929 . S
C176 C177 1.377 . S
C176 C178 1.384 . S
C177 C176 1.377 . S
C177 C183 1.390 . S
C178 H169 0.930 . S
C178 C176 1.384 . S
C178 C179 1.372 . S
C179 C178 1.372 . S
C179 C180 1.400 . S
C179 C184 1.490 . S
C180 H170 0.930 . S
C180 C179 1.400 . S
C180 C183 1.386 . S
H181 C197 0.930 . S
H182 C198 0.931 . S
C183 H171 0.929 . S
C183 C177 1.390 . S
C183 C180 1.386 . S
C184 C179 1.490 . S
C184 C186 1.395 . S
C184 C187 1.403 . S
H185 C191 0.930 . S
C186 H172 0.930 . S
C186 C184 1.395 . S
C186 C189 1.403 . S
C187 C184 1.403 . S
C187 C188 1.524 . S
C187 C191 1.400 . S
C188 H173 0.960 . S
C188 H174 0.960 . S
C188 H175 0.960 . S
C188 C187 1.524 . S
C189 C186 1.403 . S
C189 C190 1.392 . S
C189 C193 1.495 . S
C190 C189 1.392 . S
C190 C191 1.385 . S
C190 C192 1.478 . S
C191 H185 0.930 . S
C191 C187 1.400 . S
C191 C190 1.385 . S
C192 C190 1.478 . S
C192 C194 1.381 . S
C192 C198 1.383 . S
C193 C189 1.495 . S
C193 H199 0.959 . S
C193 H200 0.961 . S
C193 H201 0.960 . S
C194 C192 1.381 . S
C194 C195 1.394 . S
C194 H202 0.930 . S
C195 C194 1.394 . S
C195 C196 1.383 . S
C195 H203 0.929 . S
C196 C195 1.383 . S
C196 C197 1.377 . S
C197 H181 0.930 . S
C197 C196 1.377 . S
C197 C198 1.379 . S
C198 H182 0.931 . S
C198 C192 1.383 . S
C198 C197 1.379 . S
H199 C193 0.959 . S
H200 C193 0.961 . S
H201 C193 0.960 . S
H202 C194 0.930 . S
H203 C195 0.929 . S
H204 C212 0.929 . S
H205 C214 0.930 . S
H206 C216 0.930 . S
H207 C219 0.929 . S
H208 C222 0.930 . S
H209 C224 0.960 . S
H210 C224 0.960 . S
H211 C224 0.960 . S
C212 H204 0.929 . S
C212 C213 1.377 . S
C212 C214 1.384 . S
C213 C212 1.377 . S
C213 C219 1.390 . S
C214 H205 0.930 . S
C214 C212 1.384 . S
C214 C215 1.372 . S
C215 C214 1.372 . S
C215 C216 1.400 . S
C215 C220 1.490 . S
C216 H206 0.930 . S
C216 C215 1.400 . S
C216 C219 1.386 . S
H217 C233 0.930 . S
H218 C234 0.931 . S
C219 H207 0.929 . S
C219 C213 1.390 . S
C219 C216 1.386 . S
C220 C215 1.490 . S
C220 C222 1.395 . S
C220 C223 1.403 . S
H221 C227 0.930 . S
C222 H208 0.930 . S
C222 C220 1.395 . S
C222 C225 1.403 . S
C223 C220 1.403 . S
C223 C224 1.524 . S
C223 C227 1.400 . S
C224 H209 0.960 . S
C224 H210 0.960 . S
C224 H211 0.960 . S
C224 C223 1.524 . S
C225 C222 1.403 . S
C225 C226 1.392 . S
C225 C229 1.495 . S
C226 C225 1.392 . S
C226 C227 1.385 . S
C226 C228 1.478 . S
C227 H221 0.930 . S
C227 C223 1.400 . S
C227 C226 1.385 . S
C228 C226 1.478 . S
C228 C230 1.381 . S
C228 C234 1.383 . S
C229 C225 1.495 . S
C229 H235 0.959 . S
C229 H236 0.961 . S
C229 H237 0.960 . S
C230 C228 1.381 . S
C230 C231 1.394 . S
C230 H238 0.930 . S
C231 C230 1.394 . S
C231 C232 1.383 . S
C231 H239 0.929 . S
C232 C231 1.383 . S
C232 C233 1.377 . S
C233 H217 0.930 . S
C233 C232 1.377 . S
C233 C234 1.379 . S
C234 H218 0.931 . S
C234 C228 1.383 . S
C234 C233 1.379 . S
H235 C229 0.959 . S
H236 C229 0.961 . S
H237 C229 0.960 . S
H238 C230 0.930 . S
H239 C231 0.929 . S
H240 C248 0.929 . S
H241 C250 0.930 . S
H242 C252 0.930 . S
H243 C255 0.929 . S
H244 C258 0.930 . S
H245 C260 0.960 . S
H246 C260 0.960 . S
H247 C260 0.960 . S
C248 H240 0.929 . S
C248 C249 1.377 . S
C248 C250 1.384 . S
C249 C248 1.377 . S
C249 C255 1.390 . S
C250 H241 0.930 . S
C250 C248 1.384 . S
C250 C251 1.372 . S
C251 C250 1.372 . S
C251 C252 1.400 . S
C251 C256 1.490 . S
C252 H242 0.930 . S
C252 C251 1.400 . S
C252 C255 1.386 . S
H253 C269 0.930 . S
H254 C270 0.931 . S
C255 H243 0.929 . S
C255 C249 1.390 . S
C255 C252 1.386 . S
C256 C251 1.490 . S
C256 C258 1.395 . S
C256 C259 1.403 . S
H257 C263 0.930 . S
C258 H244 0.930 . S
C258 C256 1.395 . S
C258 C261 1.403 . S
C259 C256 1.403 . S
C259 C260 1.524 . S
C259 C263 1.400 . S
C260 H245 0.960 . S
C260 H246 0.960 . S
C260 H247 0.960 . S
C260 C259 1.524 . S
C261 C258 1.403 . S
C261 C262 1.392 . S
C261 C265 1.495 . S
C262 C261 1.392 . S
C262 C263 1.385 . S
C262 C264 1.478 . S
C263 H257 0.930 . S
C263 C259 1.400 . S
C263 C262 1.385 . S
C264 C262 1.478 . S
C264 C266 1.381 . S
C264 C270 1.383 . S
C265 C261 1.495 . S
C265 H271 0.959 . S
C265 H272 0.961 . S
C265 H273 0.960 . S
C266 C264 1.381 . S
C266 C267 1.394 . S
C266 H274 0.930 . S
C267 C266 1.394 . S
C267 C268 1.383 . S
C267 H275 0.929 . S
C268 C267 1.383 . S
C268 C269 1.377 . S
C269 H253 0.930 . S
C269 C268 1.377 . S
C269 C270 1.379 . S
C270 H254 0.931 . S
C270 C264 1.383 . S
C270 C269 1.379 . S
H271 C265 0.959 . S
H272 C265 0.961 . S
H273 C265 0.960 . S
H274 C266 0.930 . S
H275 C267 0.929 . S
H276 C284 0.929 . S
H277 C286 0.930 . S
H278 C288 0.930 . S
H279 C291 0.929 . S
H280 C294 0.930 . S
H281 C296 0.960 . S
H282 C296 0.960 . S
H283 C296 0.960 . S
C284 H276 0.929 . S
C284 C285 1.377 . S
C284 C286 1.384 . S
C285 C284 1.377 . S
C285 C291 1.390 . S
C286 H277 0.930 . S
C286 C284 1.384 . S
C286 C287 1.372 . S
C287 C286 1.372 . S
C287 C288 1.400 . S
C287 C292 1.490 . S
C288 H278 0.930 . S
C288 C287 1.400 . S
C288 C291 1.386 . S
H289 C305 0.930 . S
H290 C306 0.931 . S
C291 H279 0.929 . S
C291 C285 1.390 . S
C291 C288 1.386 . S
C292 C287 1.490 . S
C292 C294 1.395 . S
C292 C295 1.403 . S
H293 C299 0.930 . S
C294 H280 0.930 . S
C294 C292 1.395 . S
C294 C297 1.403 . S
C295 C292 1.403 . S
C295 C296 1.524 . S
C295 C299 1.400 . S
C296 H281 0.960 . S
C296 H282 0.960 . S
C296 H283 0.960 . S
C296 C295 1.524 . S
C297 C294 1.403 . S
C297 C298 1.392 . S
C297 C301 1.495 . S
C298 C297 1.392 . S
C298 C299 1.385 . S
C298 C300 1.478 . S
C299 H293 0.930 . S
C299 C295 1.400 . S
C299 C298 1.385 . S
C300 C298 1.478 . S
C300 C302 1.381 . S
C300 C306 1.383 . S
C301 C297 1.495 . S
C301 H307 0.959 . S
C301 H308 0.961 . S
C301 H309 0.960 . S
C302 C300 1.381 . S
C302 C303 1.394 . S
C302 H310 0.930 . S
C303 C302 1.394 . S
C303 C304 1.383 . S
C303 H311 0.929 . S
C304 C303 1.383 . S
C304 C305 1.377 . S
C305 H289 0.930 . S
C305 C304 1.377 . S
C305 C306 1.379 . S
C306 H290 0.931 . S
C306 C300 1.383 . S
C306 C305 1.379 . S
H307 C301 0.959 . S
H308 C301 0.961 . S
H309 C301 0.960 . S
H310 C302 0.930 . S
H311 C303 0.929 . S
H312 C320 0.929 . S
H313 C322 0.930 . S
H314 C324 0.930 . S
H315 C327 0.929 . S
H316 C330 0.930 . S
H317 C332 0.960 . S
H318 C332 0.960 . S
H319 C332 0.960 . S
C320 H312 0.929 . S
C320 C321 1.377 . S
C320 C322 1.384 . S
C321 C320 1.377 . S
C321 C327 1.390 . S
C322 H313 0.930 . S
C322 C320 1.384 . S
C322 C323 1.372 . S
C323 C322 1.372 . S
C323 C324 1.400 . S
C323 C328 1.490 . S
C324 H314 0.930 . S
C324 C323 1.400 . S
C324 C327 1.386 . S
H325 C341 0.930 . S
H326 C342 0.931 . S
C327 H315 0.929 . S
C327 C321 1.390 . S
C327 C324 1.386 . S
C328 C323 1.490 . S
C328 C330 1.395 . S
C328 C331 1.403 . S
H329 C335 0.930 . S
C330 H316 0.930 . S
C330 C328 1.395 . S
C330 C333 1.403 . S
C331 C328 1.403 . S
C331 C332 1.524 . S
C331 C335 1.400 . S
C332 H317 0.960 . S
C332 H318 0.960 . S
C332 H319 0.960 . S
C332 C331 1.524 . S
C333 C330 1.403 . S
C333 C334 1.392 . S
C333 C337 1.495 . S
C334 C333 1.392 . S
C334 C335 1.385 . S
C334 C336 1.478 . S
C335 H329 0.930 . S
C335 C331 1.400 . S
C335 C334 1.385 . S
C336 C334 1.478 . S
C336 C338 1.381 . S
C336 C342 1.383 . S
C337 C333 1.495 . S
C337 H343 0.959 . S
C337 H344 0.961 . S
C337 H345 0.960 . S
C338 C336 1.381 . S
C338 C339 1.394 . S
C338 H346 0.930 . S
C339 C338 1.394 . S
C339 C340 1.383 . S
C339 H347 0.929 . S
C340 C339 1.383 . S
C340 C341 1.377 . S
C341 H325 0.930 . S
C341 C340 1.377 . S
C341 C342 1.379 . S
C342 H326 0.931 . S
C342 C336 1.383 . S
C342 C341 1.379 . S
H343 C337 0.959 . S
H344 C337 0.961 . S
H345 C337 0.960 . S
H346 C338 0.930 . S
H347 C339 0.929 . S
H348 C356 0.929 . S
H349 C358 0.930 . S
H350 C360 0.930 . S
H351 C363 0.929 . S
H352 C366 0.930 . S
H353 C368 0.960 . S
H354 C368 0.960 . S
H355 C368 0.960 . S
C356 H348 0.929 . S
C356 C357 1.377 . S
C356 C358 1.384 . S
C357 C356 1.377 . S
C357 C363 1.390 . S
C358 H349 0.930 . S
C358 C356 1.384 . S
C358 C359 1.372 . S
C359 C358 1.372 . S
C359 C360 1.400 . S
C359 C364 1.490 . S
C360 H350 0.930 . S
C360 C359 1.400 . S
C360 C363 1.386 . S
H361 C377 0.930 . S
H362 C378 0.931 . S
C363 H351 0.929 . S
C363 C357 1.390 . S
C363 C360 1.386 . S
C364 C359 1.490 . S
C364 C366 1.395 . S
C364 C367 1.403 . S
H365 C371 0.930 . S
C366 H352 0.930 . S
C366 C364 1.395 . S
C366 C369 1.403 . S
C367 C364 1.403 . S
C367 C368 1.524 . S
C367 C371 1.400 . S
C368 H353 0.960 . S
C368 H354 0.960 . S
C368 H355 0.960 . S
C368 C367 1.524 . S
C369 C366 1.403 . S
C369 C370 1.392 . S
C369 C373 1.495 . S
C370 C369 1.392 . S
C370 C371 1.385 . S
C370 C372 1.478 . S
C371 H365 0.930 . S
C371 C367 1.400 . S
C371 C370 1.385 . S
C372 C370 1.478 . S
C372 C374 1.381 . S
C372 C378 1.383 . S
C373 C369 1.495 . S
C373 H379 0.959 . S
C373 H380 0.961 . S
C373 H381 0.960 . S
C374 C372 1.381 . S
C374 C375 1.394 . S
C374 H382 0.930 . S
C375 C374 1.394 . S
C375 C376 1.383 . S
C375 H383 0.929 . S
C376 C375 1.383 . S
C376 C377 1.377 . S
C377 H361 0.930 . S
C377 C376 1.377 . S
C377 C378 1.379 . S
C378 H362 0.931 . S
C378 C372 1.383 . S
C378 C377 1.379 . S
H379 C373 0.959 . S
H380 C373 0.961 . S
H381 C373 0.960 . S
H382 C374 0.930 . S
H383 C375 0.929 . S
H384 C392 0.929 . S
H385 C394 0.930 . S
H386 C396 0.930 . S
H387 C399 0.929 . S
H388 C402 0.930 . S
H389 C404 0.960 . S
H390 C404 0.960 . S
H391 C404 0.960 . S
C392 H384 0.929 . S
C392 C393 1.377 . S
C392 C394 1.384 . S
C393 C392 1.377 . S
C393 C399 1.390 . S
C394 H385 0.930 . S
C394 C392 1.384 . S
C394 C395 1.372 . S
C395 C394 1.372 . S
C395 C396 1.400 . S
C395 C400 1.490 . S
C396 H386 0.930 . S
C396 C395 1.400 . S
C396 C399 1.386 . S
H397 C413 0.930 . S
H398 C414 0.931 . S
C399 H387 0.929 . S
C399 C393 1.390 . S
C399 C396 1.386 . S
C400 C395 1.490 . S
C400 C402 1.395 . S
C400 C403 1.403 . S
H401 C407 0.930 . S
C402 H388 0.930 . S
C402 C400 1.395 . S
C402 C405 1.403 . S
C403 C400 1.403 . S
C403 C404 1.524 . S
C403 C407 1.400 . S
C404 H389 0.960 . S
C404 H390 0.960 . S
C404 H391 0.960 . S
C404 C403 1.524 . S
C405 C402 1.403 . S
C405 C406 1.392 . S
C405 C409 1.495 . S
C406 C405 1.392 . S
C406 C407 1.385 . S
C406 C408 1.478 . S
C407 H401 0.930 . S
C407 C403 1.400 . S
C407 C406 1.385 . S
C408 C406 1.478 . S
C408 C410 1.381 . S
C408 C414 1.383 . S
C409 C405 1.495 . S
C409 H415 0.959 . S
C409 H416 0.961 . S
C409 H417 0.960 . S
C410 C408 1.381 . S
C410 C411 1.394 . S
C410 H418 0.930 . S
C411 C410 1.394 . S
C411 C412 1.383 . S
C411 H419 0.929 . S
C412 C411 1.383 . S
C412 C413 1.377 . S
C413 H397 0.930 . S
C413 C412 1.377 . S
C413 C414 1.379 . S
C414 H398 0.931 . S
C414 C408 1.383 . S
C414 C413 1.379 . S
H415 C409 0.959 . S
H416 C409 0.961 . S
H417 C409 0.960 . S
H418 C410 0.930 . S
H419 C411 0.929 . S
H420 C428 0.929 . S
H421 C430 0.930 . S
H422 C432 0.930 . S
H423 C435 0.929 . S
H424 C438 0.930 . S
H425 C440 0.960 . S
H426 C440 0.960 . S
H427 C440 0.960 . S
C428 H420 0.929 . S
C428 C429 1.377 . S
C428 C430 1.384 . S
C429 C428 1.377 . S
C429 C435 1.390 . S
C430 H421 0.930 . S
C430 C428 1.384 . S
C430 C431 1.372 . S
C431 C430 1.372 . S
C431 C432 1.400 . S
C431 C436 1.490 . S
C432 H422 0.930 . S
C432 C431 1.400 . S
C432 C435 1.386 . S
H433 C449 0.930 . S
H434 C450 0.931 . S
C435 H423 0.929 . S
C435 C429 1.390 . S
C435 C432 1.386 . S
C436 C431 1.490 . S
C436 C438 1.395 . S
C436 C439 1.403 . S
H437 C443 0.930 . S
C438 H424 0.930 . S
C438 C436 1.395 . S
C438 C441 1.403 . S
C439 C436 1.403 . S
C439 C440 1.524 . S
C439 C443 1.400 . S
C440 H425 0.960 . S
C440 H426 0.960 . S
C440 H427 0.960 . S
C440 C439 1.524 . S
C441 C438 1.403 . S
C441 C442 1.392 . S
C441 C445 1.495 . S
C442 C441 1.392 . S
C442 C443 1.385 . S
C442 C444 1.478 . S
C443 H437 0.930 . S
C443 C439 1.400 . S
C443 C442 1.385 . S
C444 C442 1.478 . S
C444 C446 1.381 . S
C444 C450 1.383 . S
C445 C441 1.495 . S
C445 H451 0.959 . S
C445 H452 0.961 . S
C445 H453 0.960 . S
C446 C444 1.381 . S
C446 C447 1.394 . S
C446 H454 0.930 . S
C447 C446 1.394 . S
C447 C448 1.383 . S
C447 H455 0.929 . S
C448 C447 1.383 . S
C448 C449 1.377 . S
C449 H433 0.930 . S
C449 C448 1.377 . S
C449 C450 1.379 . S
C450 H434 0.931 . S
C450 C444 1.383 . S
C450 C449 1.379 . S
H451 C445 0.959 . S
H452 C445 0.961 . S
H453 C445 0.960 . S
H454 C446 0.930 . S
H455 C447 0.929 . S
H456 C464 0.929 . S
H457 C466 0.930 . S
H458 C468 0.930 . S
H459 C471 0.929 . S
H460 C474 0.930 . S
H461 C476 0.960 . S
H462 C476 0.960 . S
H463 C476 0.960 . S
C464 H456 0.929 . S
C464 C465 1.377 . S
C464 C466 1.384 . S
C465 C464 1.377 . S
C465 C471 1.390 . S
C466 H457 0.930 . S
C466 C464 1.384 . S
C466 C467 1.372 . S
C467 C466 1.372 . S
C467 C468 1.400 . S
C467 C472 1.490 . S
C468 H458 0.930 . S
C468 C467 1.400 . S
C468 C471 1.386 . S
H469 C485 0.930 . S
H470 C486 0.931 . S
C471 H459 0.929 . S
C471 C465 1.390 . S
C471 C468 1.386 . S
C472 C467 1.490 . S
C472 C474 1.395 . S
C472 C475 1.403 . S
H473 C479 0.930 . S
C474 H460 0.930 . S
C474 C472 1.395 . S
C474 C477 1.403 . S
C475 C472 1.403 . S
C475 C476 1.524 . S
C475 C479 1.400 . S
C476 H461 0.960 . S
C476 H462 0.960 . S
C476 H463 0.960 . S
C476 C475 1.524 . S
C477 C474 1.403 . S
C477 C478 1.392 . S
C477 C481 1.495 . S
C478 C477 1.392 . S
C478 C479 1.385 . S
C478 C480 1.478 . S
C479 H473 0.930 . S
C479 C475 1.400 . S
C479 C478 1.385 . S
C480 C478 1.478 . S
C480 C482 1.381 . S
C480 C486 1.383 . S
C481 C477 1.495 . S
C481 H487 0.959 . S
C481 H488 0.961 . S
C481 H489 0.960 . S
C482 C480 1.381 . S
C482 C483 1.394 . S
C482 H490 0.930 . S
C483 C482 1.394 . S
C483 C484 1.383 . S
C483 H491 0.929 . S
C484 C483 1.383 . S
C484 C485 1.377 . S
C485 H469 0.930 . S
C485 C484 1.377 . S
C485 C486 1.379 . S
C486 H470 0.931 . S
C486 C480 1.383 . S
C486 C485 1.379 . S
H487 C481 0.959 . S
H488 C481 0.961 . S
H489 C481 0.960 . S
H490 C482 0.930 . S
H491 C483 0.929 . S
H492 C500 0.929 . S
H493 C502 0.930 . S
H494 C504 0.930 . S
H495 C507 0.929 . S
H496 C510 0.930 . S
H497 C512 0.960 . S
H498 C512 0.960 . S
H499 C512 0.960 . S
C500 H492 0.929 . S
C500 C501 1.377 . S
C500 C502 1.384 . S
C501 C500 1.377 . S
C501 C507 1.390 . S
C502 H493 0.930 . S
C502 C500 1.384 . S
C502 C503 1.372 . S
C503 C502 1.372 . S
C503 C504 1.400 . S
C503 C508 1.490 . S
C504 H494 0.930 . S
C504 C503 1.400 . S
C504 C507 1.386 . S
H505 C521 0.930 . S
H506 C522 0.931 . S
C507 H495 0.929 . S
C507 C501 1.390 . S
C507 C504 1.386 . S
C508 C503 1.490 . S
C508 C510 1.395 . S
C508 C511 1.403 . S
H509 C515 0.930 . S
C510 H496 0.930 . S
C510 C508 1.395 . S
C510 C513 1.403 . S
C511 C508 1.403 . S
C511 C512 1.524 . S
C511 C515 1.400 . S
C512 H497 0.960 . S
C512 H498 0.960 . S
C512 H499 0.960 . S
C512 C511 1.524 . S
C513 C510 1.403 . S
C513 C514 1.392 . S
C513 C517 1.495 . S
C514 C513 1.392 . S
C514 C515 1.385 . S
C514 C516 1.478 . S
C515 H509 0.930 . S
C515 C511 1.400 . S
C515 C514 1.385 . S
C516 C514 1.478 . S
C516 C518 1.381 . S
C516 C522 1.383 . S
C517 C513 1.495 . S
C517 H523 0.959 . S
C517 H524 0.961 . S
C517 H525 0.960 . S
C518 C516 1.381 . S
C518 C519 1.394 . S
C518 H526 0.930 . S
C519 C518 1.394 . S
C519 C520 1.383 . S
C519 H527 0.929 . S
C520 C519 1.383 . S
C520 C521 1.377 . S
C521 H505 0.930 . S
C521 C520 1.377 . S
C521 C522 1.379 . S
C522 H506 0.931 . S
C522 C516 1.383 . S
C522 C521 1.379 . S
H523 C517 0.959 . S
H524 C517 0.961 . S
H525 C517 0.960 . S
H526 C518 0.930 . S
H527 C519 0.929 . S
H528 C536 0.929 . S
H529 C538 0.930 . S
H530 C540 0.930 . S
H531 C543 0.929 . S
H532 C546 0.930 . S
H533 C548 0.960 . S
H534 C548 0.960 . S
H535 C548 0.960 . S
C536 H528 0.929 . S
C536 C537 1.377 . S
C536 C538 1.384 . S
C537 C536 1.377 . S
C537 C543 1.390 . S
C538 H529 0.930 . S
C538 C536 1.384 . S
C538 C539 1.372 . S
C539 C538 1.372 . S
C539 C540 1.400 . S
C539 C544 1.490 . S
C540 H530 0.930 . S
C540 C539 1.400 . S
C540 C543 1.386 . S
H541 C557 0.930 . S
H542 C558 0.931 . S
C543 H531 0.929 . S
C543 C537 1.390 . S
C543 C540 1.386 . S
C544 C539 1.490 . S
C544 C546 1.395 . S
C544 C547 1.403 . S
H545 C551 0.930 . S
C546 H532 0.930 . S
C546 C544 1.395 . S
C546 C549 1.403 . S
C547 C544 1.403 . S
C547 C548 1.524 . S
C547 C551 1.400 . S
C548 H533 0.960 . S
C548 H534 0.960 . S
C548 H535 0.960 . S
C548 C547 1.524 . S
C549 C546 1.403 . S
C549 C550 1.392 . S
C549 C553 1.495 . S
C550 C549 1.392 . S
C550 C551 1.385 . S
C550 C552 1.478 . S
C551 H545 0.930 . S
C551 C547 1.400 . S
C551 C550 1.385 . S
C552 C550 1.478 . S
C552 C554 1.381 . S
C552 C558 1.383 . S
C553 C549 1.495 . S
C553 H559 0.959 . S
C553 H560 0.961 . S
C553 H561 0.960 . S
C554 C552 1.381 . S
C554 C555 1.394 . S
C554 H562 0.930 . S
C555 C554 1.394 . S
C555 C556 1.383 . S
C555 H563 0.929 . S
C556 C555 1.383 . S
C556 C557 1.377 . S
C557 H541 0.930 . S
C557 C556 1.377 . S
C557 C558 1.379 . S
C558 H542 0.931 . S
C558 C552 1.383 . S
C558 C557 1.379 . S
H559 C553 0.959 . S
H560 C553 0.961 . S
H561 C553 0.960 . S
H562 C554 0.930 . S
H563 C555 0.929 . S
H564 C572 0.929 . S
H565 C574 0.930 . S
H566 C576 0.930 . S
H567 C579 0.929 . S
H568 C582 0.930 . S
H569 C584 0.960 . S
H570 C584 0.960 . S
H571 C584 0.960 . S
C572 H564 0.929 . S
C572 C573 1.377 . S
C572 C574 1.384 . S
C573 C572 1.377 . S
C573 C579 1.390 . S
C574 H565 0.930 . S
C574 C572 1.384 . S
C574 C575 1.372 . S
C575 C574 1.372 . S
C575 C576 1.400 . S
C575 C580 1.490 . S
C576 H566 0.930 . S
C576 C575 1.400 . S
C576 C579 1.386 . S
H577 C593 0.930 . S
H578 C594 0.931 . S
C579 H567 0.929 . S
C579 C573 1.390 . S
C579 C576 1.386 . S
C580 C575 1.490 . S
C580 C582 1.395 . S
C580 C583 1.403 . S
H581 C587 0.930 1_556 S
C582 H568 0.930 . S
C582 C580 1.395 . S
C582 C585 1.403 . S
C583 C580 1.403 . S
C583 C584 1.524 . S
C583 C587 1.400 . S
C584 H569 0.960 . S
C584 H570 0.960 . S
C584 H571 0.960 . S
C584 C583 1.524 . S
C585 C582 1.403 . S
C585 C586 1.392 1_554 S
C585 C589 1.495 1_554 S
C586 C585 1.392 1_556 S
C586 C587 1.385 1_556 S
C586 C588 1.478 . S
C587 H581 0.930 1_554 S
C587 C583 1.400 . S
C587 C586 1.385 1_554 S
C588 C586 1.478 . S
C588 C590 1.381 . S
C588 C594 1.383 . S
C589 C585 1.495 1_556 S
C589 H595 0.959 1_556 S
C589 H596 0.961 . S
C589 H597 0.960 . S
C590 C588 1.381 . S
C590 C591 1.394 . S
C590 H598 0.930 . S
C591 C590 1.394 . S
C591 C592 1.383 . S
C591 H599 0.929 . S
C592 C591 1.383 . S
C592 C593 1.377 . S
C593 H577 0.930 . S
C593 C592 1.377 . S
C593 C594 1.379 . S
C594 H578 0.931 . S
C594 C588 1.383 . S
C594 C593 1.379 . S
H595 C589 0.959 1_554 S
H596 C589 0.961 . S
H597 C589 0.960 . S
H598 C590 0.930 . S
H599 C591 0.929 . S
H600 C608 0.929 . S
H601 C610 0.930 . S
H602 C612 0.930 . S
H603 C615 0.929 . S
H604 C618 0.930 . S
H605 C620 0.960 . S
H606 C620 0.960 . S
H607 C620 0.960 . S
C608 H600 0.929 . S
C608 C609 1.377 1_565 S
C608 C610 1.384 . S
C609 C608 1.377 1_545 S
C609 C615 1.390 . S
C610 H601 0.930 . S
C610 C608 1.384 . S
C610 C611 1.372 1_565 S
C611 C610 1.372 1_545 S
C611 C612 1.400 . S
C611 C616 1.490 . S
C612 H602 0.930 . S
C612 C611 1.400 . S
C612 C615 1.386 . S
H613 C629 0.930 . S
H614 C630 0.931 . S
C615 H603 0.929 . S
C615 C609 1.390 . S
C615 C612 1.386 . S
C616 C611 1.490 . S
C616 C618 1.395 . S
C616 C619 1.403 1_545 S
H617 C623 0.930 . S
C618 H604 0.930 . S
C618 C616 1.395 . S
C618 C621 1.403 . S
C619 C616 1.403 1_565 S
C619 C620 1.524 . S
C619 C623 1.400 . S
C620 H605 0.960 . S
C620 H606 0.960 . S
C620 H607 0.960 . S
C620 C619 1.524 . S
C621 C618 1.403 . S
C621 C622 1.392 . S
C621 C625 1.495 . S
C622 C621 1.392 . S
C622 C623 1.385 1_545 S
C622 C624 1.478 . S
C623 H617 0.930 . S
C623 C619 1.400 . S
C623 C622 1.385 1_565 S
C624 C622 1.478 . S
C624 C626 1.381 1_545 S
C624 C630 1.383 . S
C625 C621 1.495 . S
C625 H631 0.959 . S
C625 H632 0.961 . S
C625 H633 0.960 . S
C626 C624 1.381 1_565 S
C626 C627 1.394 . S
C626 H634 0.930 . S
C627 C626 1.394 . S
C627 C628 1.383 1_565 S
C627 H635 0.929 . S
C628 C627 1.383 1_545 S
C628 C629 1.377 . S
C629 H613 0.930 . S
C629 C628 1.377 . S
C629 C630 1.379 . S
C630 H614 0.931 . S
C630 C624 1.383 . S
C630 C629 1.379 . S
H631 C625 0.959 . S
H632 C625 0.961 . S
H633 C625 0.960 . S
H634 C626 0.930 . S
H635 C627 0.929 . S
H636 C644 0.929 . S
H637 C646 0.930 . S
H638 C648 0.930 . S
H639 C651 0.929 . S
H640 C654 0.930 . S
H641 C656 0.960 . S
H642 C656 0.960 . S
H643 C656 0.960 . S
C644 H636 0.929 . S
C644 C645 1.377 . S
C644 C646 1.384 . S
C645 C644 1.377 . S
C645 C651 1.390 . S
C646 H637 0.930 . S
C646 C644 1.384 . S
C646 C647 1.372 . S
C647 C646 1.372 . S
C647 C648 1.400 . S
C647 C652 1.490 . S
C648 H638 0.930 . S
C648 C647 1.400 . S
C648 C651 1.386 . S
H649 C665 0.930 . S
H650 C666 0.931 . S
C651 H639 0.929 . S
C651 C645 1.390 . S
C651 C648 1.386 . S
C652 C647 1.490 . S
C652 C654 1.395 . S
C652 C655 1.403 . S
H653 C659 0.930 . S
C654 H640 0.930 . S
C654 C652 1.395 . S
C654 C657 1.403 . S
C655 C652 1.403 . S
C655 C656 1.524 . S
C655 C659 1.400 . S
C656 H641 0.960 . S
C656 H642 0.960 . S
C656 H643 0.960 . S
C656 C655 1.524 . S
C657 C654 1.403 . S
C657 C658 1.392 . S
C657 C661 1.495 . S
C658 C657 1.392 . S
C658 C659 1.385 . S
C658 C660 1.478 . S
C659 H653 0.930 . S
C659 C655 1.400 . S
C659 C658 1.385 . S
C660 C658 1.478 . S
C660 C662 1.381 . S
C660 C666 1.383 . S
C661 C657 1.495 . S
C661 H667 0.959 . S
C661 H668 0.961 . S
C661 H669 0.960 . S
C662 C660 1.381 . S
C662 C663 1.394 . S
C662 H670 0.930 . S
C663 C662 1.394 . S
C663 C664 1.383 . S
C663 H671 0.929 . S
C664 C663 1.383 . S
C664 C665 1.377 . S
C665 H649 0.930 . S
C665 C664 1.377 . S
C665 C666 1.379 . S
C666 H650 0.931 . S
C666 C660 1.383 . S
C666 C665 1.379 . S
H667 C661 0.959 . S
H668 C661 0.961 . S
H669 C661 0.960 . S
H670 C662 0.930 . S
H671 C663 0.929 . S
H672 C680 0.929 . S
H673 C682 0.930 . S
H674 C684 0.930 . S
H675 C687 0.929 . S
H676 C690 0.930 1_565 S
H677 C692 0.960 . S
H678 C692 0.960 . S
H679 C692 0.960 . S
C680 H672 0.929 . S
C680 C681 1.377 1_565 S
C680 C682 1.384 . S
C681 C680 1.377 1_545 S
C681 C687 1.390 . S
C682 H673 0.930 . S
C682 C680 1.384 . S
C682 C683 1.372 1_565 S
C683 C682 1.372 1_545 S
C683 C684 1.400 . S
C683 C688 1.490 . S
C684 H674 0.930 . S
C684 C683 1.400 . S
C684 C687 1.386 . S
H685 C701 0.930 . S
H686 C702 0.931 . S
C687 H675 0.929 . S
C687 C681 1.390 . S
C687 C684 1.386 . S
C688 C683 1.490 . S
C688 C690 1.395 . S
C688 C691 1.403 . S
H689 C695 0.930 . S
C690 H676 0.930 1_545 S
C690 C688 1.395 . S
C690 C693 1.403 . S
C691 C688 1.403 . S
C691 C692 1.524 . S
C691 C695 1.400 . S
C692 H677 0.960 . S
C692 H678 0.960 . S
C692 H679 0.960 . S
C692 C691 1.524 . S
C693 C690 1.403 . S
C693 C694 1.392 . S
C693 C697 1.495 1_545 S
C694 C693 1.392 . S
C694 C695 1.385 . S
C694 C696 1.478 . S
C695 H689 0.930 . S
C695 C691 1.400 . S
C695 C694 1.385 . S
C696 C694 1.478 . S
C696 C698 1.381 1_545 S
C696 C702 1.383 . S
C697 C693 1.495 1_565 S
C697 H703 0.959 . S
C697 H704 0.961 . S
C697 H705 0.960 . S
C698 C696 1.381 1_565 S
C698 C699 1.394 . S
C698 H706 0.930 . S
C699 C698 1.394 . S
C699 C700 1.383 1_565 S
C699 H707 0.929 . S
C700 C699 1.383 1_545 S
C700 C701 1.377 . S
C701 H685 0.930 . S
C701 C700 1.377 . S
C701 C702 1.379 . S
C702 H686 0.931 . S
C702 C696 1.383 . S
C702 C701 1.379 . S
H703 C697 0.959 . S
H704 C697 0.961 . S
H705 C697 0.960 . S
H706 C698 0.930 . S
H707 C699 0.929 . S
H708 C716 0.929 . S
H709 C718 0.930 . S
H710 C720 0.930 . S
H711 C723 0.929 . S
H712 C726 0.930 . S
H713 C728 0.960 . S
H714 C728 0.960 . S
H715 C728 0.960 . S
C716 H708 0.929 . S
C716 C717 1.377 . S
C716 C718 1.384 . S
C717 C716 1.377 . S
C717 C723 1.390 . S
C718 H709 0.930 . S
C718 C716 1.384 . S
C718 C719 1.372 . S
C719 C718 1.372 . S
C719 C720 1.400 . S
C719 C724 1.490 . S
C720 H710 0.930 . S
C720 C719 1.400 . S
C720 C723 1.386 . S
H721 C737 0.930 . S
H722 C738 0.931 . S
C723 H711 0.929 . S
C723 C717 1.390 . S
C723 C720 1.386 . S
C724 C719 1.490 . S
C724 C726 1.395 . S
C724 C727 1.403 . S
H725 C731 0.930 . S
C726 H712 0.930 . S
C726 C724 1.395 . S
C726 C729 1.403 . S
C727 C724 1.403 . S
C727 C728 1.524 . S
C727 C731 1.400 1_556 S
C728 H713 0.960 . S
C728 H714 0.960 . S
C728 H715 0.960 . S
C728 C727 1.524 . S
C729 C726 1.403 . S
C729 C730 1.392 1_556 S
C729 C733 1.495 1_556 S
C730 C729 1.392 1_554 S
C730 C731 1.385 . S
C730 C732 1.478 . S
C731 H725 0.930 . S
C731 C727 1.400 1_554 S
C731 C730 1.385 . S
C732 C730 1.478 . S
C732 C734 1.381 . S
C732 C738 1.383 . S
C733 C729 1.495 1_554 S
C733 H739 0.959 1_554 S
C733 H740 0.961 . S
C733 H741 0.960 . S
C734 C732 1.381 . S
C734 C735 1.394 . S
C734 H742 0.930 . S
C735 C734 1.394 . S
C735 C736 1.383 . S
C735 H743 0.929 . S
C736 C735 1.383 . S
C736 C737 1.377 . S
C737 H721 0.930 . S
C737 C736 1.377 . S
C737 C738 1.379 . S
C738 H722 0.931 . S
C738 C732 1.383 . S
C738 C737 1.379 . S
H739 C733 0.959 1_556 S
H740 C733 0.961 . S
H741 C733 0.960 . S
H742 C734 0.930 . S
H743 C735 0.929 . S
H744 C752 0.921 1_655 S
H745 C754 0.930 1_655 S
H746 C756 0.930 . S
H747 C759 0.929 . S
H748 C762 0.930 . S
H749 C764 0.960 . S
H750 C764 0.960 . S
H751 C764 0.960 . S
C752 H744 0.921 1_455 S
C752 C753 1.377 . S
C752 C754 1.384 . S
C753 C752 1.377 . S
C753 C759 1.390 . S
C754 H745 0.930 1_455 S
C754 C752 1.384 . S
C754 C755 1.372 . S
C755 C754 1.372 . S
C755 C756 1.400 . S
C755 C760 1.490 . S
C756 H746 0.930 . S
C756 C755 1.400 . S
C756 C759 1.386 . S
H757 C773 0.930 . S
H758 C774 0.931 . S
C759 H747 0.929 . S
C759 C753 1.390 . S
C759 C756 1.386 . S
C760 C755 1.490 . S
C760 C762 1.395 . S
C760 C763 1.403 . S
H761 C767 0.930 . S
C762 H748 0.930 . S
C762 C760 1.395 . S
C762 C765 1.403 . S
C763 C760 1.403 . S
C763 C764 1.524 . S
C763 C767 1.400 . S
C764 H749 0.960 . S
C764 H750 0.960 . S
C764 H751 0.960 . S
C764 C763 1.524 . S
C765 C762 1.403 . S
C765 C766 1.392 . S
C765 C769 1.495 1_455 S
C766 C765 1.392 . S
C766 C767 1.385 . S
C766 C768 1.478 . S
C767 H761 0.930 . S
C767 C763 1.400 . S
C767 C766 1.385 . S
C768 C766 1.478 . S
C768 C770 1.381 1_455 S
C768 C774 1.383 . S
C769 C765 1.495 1_655 S
C769 H775 0.959 . S
C769 H776 0.961 1_655 S
C769 H777 0.960 . S
C770 C768 1.381 1_655 S
C770 C771 1.394 . S
C770 H778 0.930 . S
C771 C770 1.394 . S
C771 C772 1.383 1_655 S
C771 H779 0.929 . S
C772 C771 1.383 1_455 S
C772 C773 1.377 . S
C773 H757 0.930 . S
C773 C772 1.377 . S
C773 C774 1.379 . S
C774 H758 0.931 . S
C774 C768 1.383 . S
C774 C773 1.379 . S
H775 C769 0.959 . S
H776 C769 0.961 1_455 S
H777 C769 0.960 . S
H778 C770 0.930 . S
H779 C771 0.929 . S
C141 C2 1.343 . S
C160 C126 1.356 . S
C177 C21 1.033 . S
C196 C100 1.040 . S
C213 C42 1.120 . S
C232 C112 1.080 . S
C249 C1 0.686 . S
C268 C124 0.639 . S
C304 C102 0.947 . S
C285 C22 0.960 . S
C340 C114 0.856 . S
C321 C41 0.867 . S
C357 C38 1.893 . S
C376 C76 1.863 . S
C393 C59 2.223 . S
C412 C90 2.205 1_655 S
C429 C18 1.722 . S
C448 C66 1.696 . S
C484 C78 1.797 . S
C465 C39 1.824 . S
C520 C88 1.501 . S
C501 C58 1.539 . S
C537 C19 1.992 . S
C556 C64 1.912 . S
C592 C93 1.591 . S
C573 C9 1.530 . S
C609 C29 1.546 . S
C628 C69 1.630 . S
C645 C49 1.531 . S
C664 C81 1.568 . S
C700 C117 1.518 . S
C681 C28 1.488 . S
C736 C129 1.470 . S
C717 C48 1.424 . S
C753 C8 1.417 . S
C772 C105 1.452 . S
