# Generated by pormake.
# Topology pto, (3,4)-cn, num edge types: 1
# Building blocks:
#     Node 0, Type 0, BuildingBlock: WUSLED_clean_sbu_0, # of connection points: 3
#     Node 1, Type 0, BuildingBlock: WUSLED_clean_sbu_0, # of connection points: 3
#     Node 2, Type 0, BuildingBlock: WUSLED_clean_sbu_0, # of connection points: 3
#     Node 3, Type 0, BuildingBlock: WUSLED_clean_sbu_0, # of connection points: 3
#     Node 4, Type 0, BuildingBlock: WUSLED_clean_sbu_0, # of connection points: 3
#     Node 5, Type 0, BuildingBlock: WUSLED_clean_sbu_0, # of connection points: 3
#     Node 6, Type 0, BuildingBlock: WUSLED_clean_sbu_0, # of connection points: 3
#     Node 7, Type 0, BuildingBlock: WUSLED_clean_sbu_0, # of connection points: 3
#     Node 8, Type 1, BuildingBlock: NAWXER_clean_linker_0, # of connection points: 4
#     Node 9, Type 1, BuildingBlock: NAWXER_clean_linker_0, # of connection points: 4
#     Node 10, Type 1, BuildingBlock: NAWXER_clean_linker_0, # of connection points: 4
#     Node 11, Type 1, BuildingBlock: NAWXER_clean_linker_0, # of connection points: 4
#     Node 12, Type 1, BuildingBlock: NAWXER_clean_linker_0, # of connection points: 4
#     Node 13, Type 1, BuildingBlock: NAWXER_clean_linker_0, # of connection points: 4
#     Edge 14, Type (0, 1), BuildingBlock: XUDNAN_clean_linker_2, # of connection points: 2
#     Edge 15, Type (0, 1), BuildingBlock: XUDNAN_clean_linker_2, # of connection points: 2
#     Edge 16, Type (0, 1), BuildingBlock: XUDNAN_clean_linker_2, # of connection points: 2
#     Edge 17, Type (0, 1), BuildingBlock: XUDNAN_clean_linker_2, # of connection points: 2
#     Edge 18, Type (0, 1), BuildingBlock: XUDNAN_clean_linker_2, # of connection points: 2
#     Edge 19, Type (0, 1), BuildingBlock: XUDNAN_clean_linker_2, # of connection points: 2
#     Edge 20, Type (0, 1), BuildingBlock: XUDNAN_clean_linker_2, # of connection points: 2
#     Edge 21, Type (0, 1), BuildingBlock: XUDNAN_clean_linker_2, # of connection points: 2
#     Edge 22, Type (0, 1), BuildingBlock: XUDNAN_clean_linker_2, # of connection points: 2
#     Edge 23, Type (0, 1), BuildingBlock: XUDNAN_clean_linker_2, # of connection points: 2
#     Edge 24, Type (0, 1), BuildingBlock: XUDNAN_clean_linker_2, # of connection points: 2
#     Edge 25, Type (0, 1), BuildingBlock: XUDNAN_clean_linker_2, # of connection points: 2
#     Edge 26, Type (0, 1), BuildingBlock: XUDNAN_clean_linker_2, # of connection points: 2
#     Edge 27, Type (0, 1), BuildingBlock: XUDNAN_clean_linker_2, # of connection points: 2
#     Edge 28, Type (0, 1), BuildingBlock: XUDNAN_clean_linker_2, # of connection points: 2
#     Edge 29, Type (0, 1), BuildingBlock: XUDNAN_clean_linker_2, # of connection points: 2
#     Edge 30, Type (0, 1), BuildingBlock: XUDNAN_clean_linker_2, # of connection points: 2
#     Edge 31, Type (0, 1), BuildingBlock: XUDNAN_clean_linker_2, # of connection points: 2
#     Edge 32, Type (0, 1), BuildingBlock: XUDNAN_clean_linker_2, # of connection points: 2
#     Edge 33, Type (0, 1), BuildingBlock: XUDNAN_clean_linker_2, # of connection points: 2
#     Edge 34, Type (0, 1), BuildingBlock: XUDNAN_clean_linker_2, # of connection points: 2
#     Edge 35, Type (0, 1), BuildingBlock: XUDNAN_clean_linker_2, # of connection points: 2
#     Edge 36, Type (0, 1), BuildingBlock: XUDNAN_clean_linker_2, # of connection points: 2
#     Edge 37, Type (0, 1), BuildingBlock: XUDNAN_clean_linker_2, # of connection points: 2
# Relax obj value: 0.000
# Max RMSD: 0.010
# Mean RMSD: 0.005
data_MOF--net-pto--node1-WUSLED_clean_sbu_0--node2-NAWXER_clean_linker_0--edge1-XUDNAN_clean_linker_2
_symmetry_space_group_name_H-M    P1
_symmetry_Int_Tables_number       1
_symmetry_cell_setting            triclinic
loop_
_symmetry_equiv_pos_as_xyz
'x, y, z'
_cell_length_a     51.49433
_cell_length_b     70.50838
_cell_length_c     61.202258
_cell_angle_alpha  89.893255
_cell_angle_beta   90.761987
_cell_angle_gamma 90.730008
loop_
_atom_site_label
_atom_site_type_symbol
_atom_site_fract_x
_atom_site_fract_y
_atom_site_fract_z
_atom_type_partial_charge
C0 C 0.23936 0.23315 0.34819 0.0
C1 C 0.25668 0.21817 0.34535 0.0
C2 C 0.23463 0.19987 0.37364 0.0
C3 C 0.25438 0.20165 0.35803 0.0
C4 C 0.21764 0.21511 0.37655 0.0
C5 C 0.21999 0.23155 0.36394 0.0
U6 U 0.26813 0.26374 0.3021 0.0
O7 O 0.24804 0.28133 0.27769 0.0
O8 O 0.2751 0.29464 0.30125 0.0
C9 C 0.25827 0.29722 0.28521 0.0
C10 C 0.24073 0.25045 0.33477 0.0
C11 C 0.24015 0.31299 0.28759 0.0
C12 C 0.20217 0.32737 0.30362 0.0
C13 C 0.22024 0.31264 0.30304 0.0
C14 C 0.22418 0.34293 0.27363 0.0
C15 C 0.20371 0.34249 0.28861 0.0
C16 C 0.24219 0.32833 0.27315 0.0
C17 C 0.32289 0.24824 0.26596 0.0
C18 C 0.35061 0.27004 0.24569 0.0
C19 C 0.34078 0.23887 0.23102 0.0
C20 C 0.32587 0.2347 0.24944 0.0
C21 C 0.35311 0.2567 0.22879 0.0
C22 C 0.33554 0.26593 0.26396 0.0
C23 C 0.30535 0.24422 0.28438 0.0
O24 O 0.26171 0.26107 0.33745 0.0
O25 O 0.23367 0.24847 0.31418 0.0
O26 O 0.28074 0.24193 0.27893 0.0
O27 O 0.30885 0.25469 0.30198 0.0
H28 H 0.27176 0.21918 0.33321 0.0
H29 H 0.26766 0.19014 0.35528 0.0
H30 H 0.20252 0.21436 0.38866 0.0
H31 H 0.20654 0.24302 0.36642 0.0
H32 H 0.18655 0.32663 0.31528 0.0
H33 H 0.21837 0.30083 0.31429 0.0
H34 H 0.22616 0.35453 0.26212 0.0
H35 H 0.25749 0.32885 0.26116 0.0
H36 H 0.36019 0.28377 0.24479 0.0
H37 H 0.34198 0.22832 0.21826 0.0
H38 H 0.31614 0.22102 0.25055 0.0
H39 H 0.33352 0.27673 0.27637 0.0
C40 C 0.25615 0.79733 0.67327 0.0
C41 C 0.26929 0.81396 0.67989 0.0
C42 C 0.26172 0.82803 0.64395 0.0
C43 C 0.27197 0.82924 0.66536 0.0
C44 C 0.24837 0.81136 0.63757 0.0
C45 C 0.24563 0.79618 0.6521 0.0
U46 U 0.27364 0.76979 0.72543 0.0
O47 O 0.24857 0.75334 0.74744 0.0
O48 O 0.27983 0.73915 0.72994 0.0
C49 C 0.25993 0.73723 0.74301 0.0
C50 C 0.25347 0.78091 0.68798 0.0
C51 C 0.24285 0.7206 0.73925 0.0
C52 C 0.2017 0.7061 0.72785 0.0
C53 C 0.2184 0.72197 0.72894 0.0
C54 C 0.23417 0.6873 0.7466 0.0
C55 C 0.20921 0.68871 0.73719 0.0
C56 C 0.25076 0.70307 0.74763 0.0
C57 C 0.32214 0.78777 0.76739 0.0
C58 C 0.32898 0.76925 0.80041 0.0
C59 C 0.35312 0.79858 0.79512 0.0
C60 C 0.34061 0.80111 0.77487 0.0
C61 C 0.34723 0.78271 0.80823 0.0
C62 C 0.31657 0.77175 0.78019 0.0
C63 C 0.30832 0.79064 0.74648 0.0
O64 O 0.27386 0.76994 0.68947 0.0
O65 O 0.24275 0.78425 0.70695 0.0
O66 O 0.28317 0.79309 0.74812 0.0
O67 O 0.31433 0.77873 0.73089 0.0
H68 H 0.27762 0.81506 0.69619 0.0
H69 H 0.28253 0.84181 0.67071 0.0
H70 H 0.23991 0.81007 0.62134 0.0
H71 H 0.23536 0.78347 0.64674 0.0
H72 H 0.18257 0.70762 0.72055 0.0
H73 H 0.21195 0.73539 0.72229 0.0
H74 H 0.2407 0.67403 0.75359 0.0
H75 H 0.26959 0.7017 0.75556 0.0
H76 H 0.3243 0.75672 0.80992 0.0
H77 H 0.36693 0.80928 0.80075 0.0
H78 H 0.34513 0.81356 0.76517 0.0
H79 H 0.30245 0.76125 0.77461 0.0
C80 C 0.73163 0.77919 0.26043 0.0
C81 C 0.71914 0.76151 0.25766 0.0
C82 C 0.70248 0.77127 0.22192 0.0
C83 C 0.70462 0.75764 0.23869 0.0
C84 C 0.71513 0.78893 0.22475 0.0
C85 C 0.72948 0.79284 0.24384 0.0
U86 U 0.78097 0.7654 0.30463 0.0
O87 O 0.81271 0.78192 0.32005 0.0
O88 O 0.78108 0.77059 0.34009 0.0
C89 C 0.8019 0.78153 0.33939 0.0
C90 C 0.747 0.78359 0.28038 0.0
C91 C 0.79969 0.80004 0.3502 0.0
C92 C 0.78468 0.83255 0.35037 0.0
C93 C 0.78591 0.81482 0.34024 0.0
C94 C 0.81051 0.82076 0.38074 0.0
C95 C 0.79716 0.83579 0.37067 0.0
C96 C 0.81179 0.80305 0.37056 0.0
C97 C 0.81185 0.71633 0.30192 0.0
C98 C 0.84571 0.70606 0.32715 0.0
C99 C 0.82956 0.68471 0.29898 0.0
C100 C 0.81243 0.69862 0.29163 0.0
C101 C 0.8465 0.68826 0.31678 0.0
C102 C 0.82853 0.71999 0.31976 0.0
C103 C 0.79407 0.73087 0.29356 0.0
O104 O 0.74076 0.77403 0.29807 0.0
O105 O 0.77221 0.78525 0.27772 0.0
O106 O 0.80528 0.74621 0.28567 0.0
O107 O 0.77407 0.73454 0.30593 0.0
H108 H 0.72053 0.75066 0.27017 0.0
H109 H 0.69483 0.74401 0.2373 0.0
H110 H 0.71429 0.79967 0.2121 0.0
H111 H 0.73906 0.80654 0.24559 0.0
H112 H 0.77395 0.84374 0.34231 0.0
H113 H 0.7763 0.81269 0.32456 0.0
H114 H 0.82056 0.82283 0.39623 0.0
H115 H 0.8225 0.79177 0.37847 0.0
H116 H 0.85866 0.70935 0.34075 0.0
H117 H 0.82934 0.67108 0.29083 0.0
H118 H 0.79962 0.69556 0.27785 0.0
H119 H 0.82837 0.73364 0.32786 0.0
C120 C 0.77089 0.21226 0.70845 0.0
C121 C 0.75991 0.21229 0.68726 0.0
C122 C 0.785 0.18454 0.6775 0.0
C123 C 0.76691 0.19859 0.67196 0.0
C124 C 0.79572 0.1844 0.69874 0.0
C125 C 0.78867 0.19802 0.71404 0.0
U126 U 0.77766 0.26085 0.73661 0.0
O127 O 0.74796 0.27962 0.74994 0.0
O128 O 0.77792 0.2678 0.77163 0.0
C129 C 0.75635 0.2775 0.77017 0.0
C130 C 0.76318 0.22642 0.72502 0.0
C131 C 0.73653 0.27251 0.78634 0.0
C132 C 0.70274 0.25135 0.79987 0.0
C133 C 0.72091 0.25619 0.78391 0.0
C134 C 0.71558 0.27915 0.82077 0.0
C135 C 0.69994 0.26273 0.81857 0.0
C136 C 0.73368 0.28398 0.8048 0.0
C137 C 0.82862 0.29665 0.71749 0.0
C138 C 0.83787 0.32555 0.73782 0.0
C139 C 0.86205 0.31865 0.70515 0.0
C140 C 0.84774 0.30179 0.70244 0.0
C141 C 0.85752 0.33061 0.72304 0.0
C142 C 0.82355 0.30872 0.73507 0.0
C143 C 0.81486 0.27835 0.71524 0.0
O144 O 0.78026 0.22997 0.74069 0.0
O145 O 0.75159 0.24178 0.71779 0.0
O146 O 0.79022 0.27925 0.70949 0.0
O147 O 0.8192 0.26622 0.73116 0.0
H148 H 0.74589 0.22288 0.68246 0.0
H149 H 0.75838 0.19913 0.6557 0.0
H150 H 0.80932 0.17356 0.70368 0.0
H151 H 0.79709 0.19731 0.73033 0.0
H152 H 0.69082 0.23874 0.7975 0.0
H153 H 0.7229 0.24714 0.76975 0.0
H154 H 0.71428 0.28808 0.83508 0.0
H155 H 0.74571 0.29657 0.80699 0.0
H156 H 0.83363 0.33458 0.75159 0.0
H157 H 0.87719 0.32202 0.6936 0.0
H158 H 0.85194 0.29259 0.68881 0.0
H159 H 0.80877 0.30498 0.74682 0.0
C160 C 0.80629 0.72061 0.74834 0.0
C161 C 0.82369 0.72014 0.73087 0.0
C162 C 0.84473 0.69247 0.74689 0.0
C163 C 0.84273 0.70609 0.7301 0.0
C164 C 0.82685 0.69289 0.76405 0.0
C165 C 0.80787 0.70681 0.76475 0.0
U166 U 0.77371 0.76777 0.73193 0.0
O167 O 0.73207 0.77477 0.7322 0.0
O168 O 0.75972 0.79021 0.75345 0.0
C169 C 0.73526 0.78735 0.74786 0.0
C170 C 0.78677 0.73553 0.75037 0.0
C171 C 0.71676 0.78631 0.76599 0.0
C172 C 0.70539 0.77709 0.80303 0.0
C173 C 0.72226 0.7762 0.78527 0.0
C174 C 0.67699 0.79758 0.78207 0.0
C175 C 0.68283 0.78815 0.80178 0.0
C176 C 0.69381 0.79669 0.7644 0.0
C177 C 0.79578 0.79963 0.68601 0.0
C178 C 0.77329 0.82929 0.67994 0.0
C179 C 0.81195 0.82241 0.65942 0.0
C180 C 0.81396 0.80492 0.6702 0.0
C181 C 0.79177 0.83492 0.66439 0.0
C182 C 0.77531 0.81185 0.69067 0.0
C183 C 0.79872 0.78183 0.69835 0.0
O184 O 0.79563 0.75212 0.75704 0.0
O185 O 0.76942 0.73674 0.73448 0.0
O186 O 0.77929 0.76963 0.69637 0.0
O187 O 0.80671 0.78401 0.71868 0.0
H188 H 0.82274 0.73074 0.71806 0.0
H189 H 0.85629 0.70617 0.71672 0.0
H190 H 0.82755 0.68243 0.77702 0.0
H191 H 0.79453 0.70692 0.7783 0.0
H192 H 0.71051 0.76973 0.81799 0.0
H193 H 0.7399 0.76807 0.78679 0.0
H194 H 0.65955 0.80591 0.7804 0.0
H195 H 0.68918 0.80451 0.74962 0.0
H196 H 0.75727 0.83842 0.68392 0.0
H197 H 0.82662 0.82637 0.64769 0.0
H198 H 0.82995 0.79568 0.66648 0.0
H199 H 0.76107 0.80799 0.70283 0.0
C200 C 0.72256 0.25014 0.26491 0.0
C201 C 0.72808 0.2663 0.25234 0.0
C202 C 0.69094 0.25933 0.22844 0.0
C203 C 0.71249 0.27083 0.23425 0.0
C204 C 0.68557 0.24307 0.24109 0.0
C205 C 0.70126 0.23853 0.25917 0.0
U206 U 0.77534 0.26456 0.30526 0.0
O207 O 0.77885 0.26019 0.34083 0.0
O208 O 0.80838 0.2489 0.31904 0.0
C209 C 0.79935 0.24941 0.33902 0.0
C210 C 0.73877 0.24555 0.28414 0.0
C211 C 0.79777 0.23093 0.35019 0.0
C212 C 0.78289 0.19811 0.35118 0.0
C213 C 0.7833 0.21588 0.34101 0.0
C214 C 0.81083 0.21034 0.38018 0.0
C215 C 0.79687 0.19506 0.37078 0.0
C216 C 0.81131 0.22811 0.36993 0.0
C217 C 0.80461 0.31501 0.29487 0.0
C218 C 0.84648 0.32854 0.3059 0.0
C219 C 0.8148 0.348 0.28708 0.0
C220 C 0.79745 0.33266 0.28637 0.0
C221 C 0.83974 0.34601 0.29635 0.0
C222 C 0.82904 0.31308 0.30508 0.0
C223 C 0.78699 0.29874 0.29099 0.0
O224 O 0.76364 0.24367 0.28025 0.0
O225 O 0.73433 0.25575 0.30161 0.0
O226 O 0.76908 0.29545 0.30567 0.0
O227 O 0.79761 0.28324 0.28351 0.0
H228 H 0.74448 0.27544 0.25653 0.0
H229 H 0.71747 0.28328 0.22472 0.0
H230 H 0.66898 0.23403 0.23726 0.0
H231 H 0.69666 0.22604 0.26877 0.0
H232 H 0.77164 0.18672 0.34368 0.0
H233 H 0.77258 0.21784 0.32583 0.0
H234 H 0.82198 0.20843 0.39513 0.0
H235 H 0.82258 0.23959 0.37724 0.0
H236 H 0.86559 0.32661 0.31311 0.0
H237 H 0.80892 0.36136 0.27991 0.0
H238 H 0.77866 0.33443 0.27848 0.0
H239 H 0.83491 0.29952 0.31173 0.0
C240 C 0.25213 0.23499 0.67987 0.0
C241 C 0.26966 0.22175 0.68842 0.0
C242 C 0.25679 0.19903 0.66018 0.0
C243 C 0.27198 0.20395 0.67866 0.0
C244 C 0.23967 0.21255 0.65139 0.0
C245 C 0.23733 0.23037 0.66121 0.0
U246 U 0.26927 0.26845 0.72632 0.0
O247 O 0.27486 0.29941 0.7274 0.0
O248 O 0.24425 0.28593 0.74692 0.0
C249 C 0.25441 0.30192 0.73969 0.0
C250 C 0.24857 0.25329 0.6909 0.0
C251 C 0.23562 0.31637 0.73226 0.0
C252 C 0.21787 0.33735 0.70431 0.0
C253 C 0.23558 0.32345 0.71078 0.0
C254 C 0.19967 0.33715 0.74057 0.0
C255 C 0.19965 0.3444 0.71911 0.0
C256 C 0.21751 0.32336 0.74706 0.0
C257 C 0.32151 0.24945 0.76719 0.0
C258 C 0.33117 0.25879 0.80474 0.0
C259 C 0.35895 0.2366 0.78633 0.0
C260 C 0.34353 0.238 0.7675 0.0
C261 C 0.35268 0.24665 0.80533 0.0
C262 C 0.31561 0.26013 0.7858 0.0
C263 C 0.30445 0.24882 0.74771 0.0
O264 O 0.23785 0.25209 0.71022 0.0
O265 O 0.26869 0.26494 0.69056 0.0
O266 O 0.31016 0.26061 0.73177 0.0
O267 O 0.27938 0.24714 0.75115 0.0
H268 H 0.28129 0.22511 0.70281 0.0
H269 H 0.28563 0.194 0.68566 0.0
H270 H 0.22752 0.20917 0.63732 0.0
H271 H 0.22364 0.24042 0.65444 0.0
H272 H 0.21875 0.34275 0.68777 0.0
H273 H 0.2493 0.31835 0.69896 0.0
H274 H 0.18571 0.34197 0.75234 0.0
H275 H 0.21711 0.3181 0.7637 0.0
H276 H 0.32583 0.26666 0.81914 0.0
H277 H 0.37563 0.2274 0.78612 0.0
H278 H 0.34845 0.22971 0.75328 0.0
H279 H 0.29867 0.26909 0.78585 0.0
C280 C 0.22116 0.73706 0.32819 0.0
C281 C 0.22348 0.72214 0.31321 0.0
C282 C 0.19421 0.70248 0.33496 0.0
C283 C 0.21002 0.70497 0.31654 0.0
C284 C 0.1917 0.71766 0.34963 0.0
C285 C 0.20505 0.73475 0.34626 0.0
U286 U 0.2699 0.77062 0.29958 0.0
O287 O 0.26771 0.80156 0.29526 0.0
O288 O 0.29945 0.78939 0.31472 0.0
C289 C 0.28755 0.8049 0.3085 0.0
C290 C 0.23572 0.75499 0.32579 0.0
C291 C 0.28299 0.81868 0.326 0.0
C292 C 0.2605 0.82802 0.35884 0.0
C293 C 0.26409 0.81513 0.34183 0.0
C294 C 0.29453 0.84823 0.34427 0.0
C295 C 0.2758 0.84468 0.36037 0.0
C296 C 0.29808 0.83533 0.32725 0.0
C297 C 0.30576 0.7572 0.24808 0.0
C298 C 0.34072 0.777 0.23401 0.0
C299 C 0.32397 0.75066 0.21248 0.0
C300 C 0.30635 0.74624 0.22902 0.0
C301 C 0.34136 0.76613 0.21474 0.0
C302 C 0.32304 0.77261 0.25048 0.0
C303 C 0.28695 0.75258 0.26524 0.0
O304 O 0.26095 0.75402 0.32903 0.0
O305 O 0.22926 0.76563 0.30897 0.0
O306 O 0.2657 0.76271 0.26491 0.0
O307 O 0.29688 0.75048 0.28499 0.0
H308 H 0.23591 0.7237 0.29916 0.0
H309 H 0.21247 0.69352 0.30501 0.0
H310 H 0.17935 0.71635 0.36375 0.0
H311 H 0.20296 0.74615 0.35794 0.0
H312 H 0.24566 0.82495 0.37077 0.0
H313 H 0.25225 0.80232 0.3411 0.0
H314 H 0.30686 0.86077 0.34508 0.0
H315 H 0.31284 0.83824 0.3152 0.0
H316 H 0.35404 0.78884 0.23648 0.0
H317 H 0.32364 0.74214 0.19777 0.0
H318 H 0.29305 0.73434 0.22686 0.0
H319 H 0.32286 0.78125 0.26511 0.0
C320 C 0.98709 0.45637 0.29651 0.0
C321 C 0.96708 0.451 0.31076 0.0
C322 C 1.00332 0.47186 0.30134 0.0
C323 C 1.00021 0.48218 0.32072 0.0
C324 C 0.96417 0.46119 0.33029 0.0
C325 C 0.98047 0.47672 0.33513 0.0
C326 C 0.01597 0.49956 0.32504 0.0
C327 C 0.07115 0.45066 0.32519 0.0
C328 C 0.08848 0.45128 0.30763 0.0
C329 C 0.05659 0.46663 0.33046 0.0
C330 C 0.05915 0.48346 0.31828 0.0
C331 C 0.09155 0.46833 0.29594 0.0
C332 C 0.07717 0.48428 0.30131 0.0
C333 C 0.04329 0.50034 0.32298 0.0
C334 C 0.07035 0.57954 0.35329 0.0
C335 C 0.08982 0.58431 0.33825 0.0
C336 C 0.05497 0.56324 0.35036 0.0
C337 C 0.05853 0.55144 0.33221 0.0
C338 C 0.09338 0.57245 0.32011 0.0
C339 C 0.07801 0.55612 0.31722 0.0
C340 C 0.04291 0.53377 0.32929 0.0
C341 C 0.98649 0.58155 0.32142 0.0
C342 C 0.96682 0.58194 0.33715 0.0
C343 C 1.00252 0.56579 0.31961 0.0
C344 C 0.99941 0.55014 0.33363 0.0
C345 C 0.96365 0.56619 0.35105 0.0
C346 C 0.97967 0.55041 0.3492 0.0
C347 C 0.01556 0.53302 0.33122 0.0
H348 H 0.98998 0.44875 0.2814 0.0
H349 H 0.01787 0.47606 0.2896 0.0
H350 H 0.94874 0.45759 0.34147 0.0
H351 H 0.97746 0.48463 0.35003 0.0
H352 H 0.06841 0.43773 0.33449 0.0
H353 H 0.04321 0.46578 0.34394 0.0
H354 H 0.10508 0.46933 0.28257 0.0
H355 H 0.0797 0.49716 0.29185 0.0
H356 H 0.06698 0.58843 0.36736 0.0
H357 H 0.04051 0.55974 0.36247 0.0
H358 H 0.10843 0.57557 0.30839 0.0
H359 H 0.08131 0.54713 0.30321 0.0
H360 H 0.98954 0.59347 0.31052 0.0
H361 H 0.01711 0.56575 0.30703 0.0
H362 H 0.94842 0.56588 0.36309 0.0
H363 H 0.97664 0.53839 0.35997 0.0
N364 N 1.00323 0.51592 0.32919 0.0
N365 N 0.05564 0.51742 0.32509 0.0
C366 C 0.97816 0.45079 0.70168 0.0
C367 C 0.96239 0.44858 0.72015 0.0
C368 C 0.99204 0.46774 0.69823 0.0
C369 C 0.99055 0.48273 0.71327 0.0
C370 C 0.96032 0.46387 0.73472 0.0
C371 C 0.97416 0.48073 0.73128 0.0
C372 C 1.00556 0.50067 0.71057 0.0
C373 C 0.06506 0.45481 0.71994 0.0
C374 C 0.08033 0.45192 0.70138 0.0
C375 C 0.04936 0.47079 0.72147 0.0
C376 C 0.04855 0.48418 0.70444 0.0
C377 C 0.07966 0.46546 0.68446 0.0
C378 C 0.0641 0.48152 0.68608 0.0
C379 C 0.03247 0.50137 0.70619 0.0
C380 C 0.06276 0.57841 0.73617 0.0
C381 C 0.0825 0.58333 0.72149 0.0
C382 C 0.04597 0.56316 0.73184 0.0
C383 C 0.04815 0.55263 0.7125 0.0
C384 C 0.08441 0.57305 0.7019 0.0
C385 C 0.06751 0.55772 0.69755 0.0
C386 C 0.03217 0.53518 0.70921 0.0
C387 C 0.97681 0.58399 0.70846 0.0
C388 C 0.96095 0.5844 0.72697 0.0
C389 C 0.99106 0.56776 0.70362 0.0
C390 C 0.9895 0.55163 0.71713 0.0
C391 C 0.95893 0.56808 0.74008 0.0
C392 C 0.97287 0.55182 0.7351 0.0
C393 C 1.00511 0.53451 0.7129 0.0
H394 H 0.98017 0.4393 0.69013 0.0
H395 H 1.00398 0.46909 0.68386 0.0
H396 H 0.94792 0.46282 0.74884 0.0
H397 H 0.97239 0.49214 0.74299 0.0
H398 H 0.06505 0.44462 0.7332 0.0
H399 H 0.03796 0.47275 0.73602 0.0
H400 H 0.09147 0.46377 0.6701 0.0
H401 H 0.06404 0.4918 0.67291 0.0
H402 H 0.06065 0.58611 0.75133 0.0
H403 H 0.03184 0.55922 0.74404 0.0
H404 H 0.09959 0.57637 0.69038 0.0
H405 H 0.06985 0.54962 0.6827 0.0
H406 H 0.9787 0.59638 0.69808 0.0
H407 H 1.0034 0.56783 0.68942 0.0
H408 H 0.94658 0.5679 0.75427 0.0
H409 H 0.97117 0.53953 0.74566 0.0
N410 N 0.993 0.51728 0.71369 0.0
N411 N 0.0447 0.5186 0.70568 0.0
C412 C 0.22892 0.08148 0.48527 0.0
C413 C 0.24425 0.08588 0.46704 0.0
C414 C 0.2339 0.06535 0.49791 0.0
C415 C 0.25454 0.05338 0.49277 0.0
C416 C 0.26503 0.07395 0.46203 0.0
C417 C 0.26998 0.0578 0.47468 0.0
C418 C 0.25883 0.0355 0.50505 0.0
C419 C 0.27383 0.08255 0.55406 0.0
C420 C 0.25827 0.08167 0.57277 0.0
C421 C 0.27409 0.06738 0.5393 0.0
C422 C 0.25842 0.05119 0.54277 0.0
C423 C 0.24255 0.0655 0.57609 0.0
C424 C 0.2427 0.05044 0.56131 0.0
C425 C 0.25945 0.03441 0.52818 0.0
C426 C 0.28834 0.95244 0.54277 0.0
C427 C 0.27026 0.94675 0.55861 0.0
C428 C 0.28653 0.97015 0.53265 0.0
C429 C 0.26647 0.98255 0.538 0.0
C430 C 0.25091 0.95958 0.56468 0.0
C431 C 0.24912 0.97734 0.55453 0.0
C432 C 0.26322 1.00072 0.52606 0.0
C433 C 0.24397 0.95333 0.48054 0.0
C434 C 0.26224 0.95106 0.46389 0.0
C435 C 0.24357 0.96998 0.49284 0.0
C436 C 0.26163 0.98466 0.48897 0.0
C437 C 0.27957 0.96613 0.4594 0.0
C438 C 0.27918 0.98281 0.47179 0.0
C439 C 0.2623 1.00179 0.503 0.0
H440 H 0.21289 0.09042 0.4897 0.0
H441 H 0.22122 0.06203 0.5114 0.0
H442 H 0.27699 0.07677 0.44794 0.0
H443 H 0.2858 0.04865 0.47021 0.0
H444 H 0.28643 0.09469 0.55121 0.0
H445 H 0.28701 0.06814 0.52551 0.0
H446 H 0.23011 0.06447 0.59019 0.0
H447 H 0.23052 0.03811 0.56443 0.0
H448 H 0.30388 0.94313 0.53809 0.0
H449 H 0.3006 0.97407 0.52039 0.0
H450 H 0.23659 0.95565 0.57673 0.0
H451 H 0.23362 0.98675 0.55904 0.0
H452 H 0.22993 0.94221 0.48407 0.0
H453 H 0.22929 0.9713 0.50556 0.0
H454 H 0.29393 0.96482 0.44674 0.0
H455 H 0.29312 0.99404 0.46839 0.0
N456 N 0.26039 0.01913 0.49339 0.0
N457 N 0.26154 0.01702 0.53773 0.0
C458 C 0.47549 0.78646 0.9434 0.0
C459 C 0.45661 0.77196 0.94113 0.0
C460 C 0.49328 0.7863 0.96092 0.0
C461 C 0.4927 0.77151 0.97636 0.0
C462 C 0.45647 0.75704 0.95642 0.0
C463 C 0.47418 0.7569 0.97389 0.0
C464 C 0.50965 0.77183 0.99612 0.0
C465 C 0.5628 0.76776 0.93827 0.0
C466 C 0.5795 0.7836 0.93632 0.0
C467 C 0.54894 0.76464 0.95753 0.0
C468 C 0.55156 0.77731 0.97516 0.0
C469 C 0.58254 0.79594 0.95423 0.0
C470 C 0.56886 0.79275 0.97346 0.0
C471 C 0.5369 0.77454 0.99562 0.0
C472 C 0.56882 0.75319 0.08686 0.0
C473 C 0.58912 0.76629 0.09086 0.0
C474 C 0.55221 0.75536 0.06882 0.0
C475 C 0.55554 0.77068 0.05438 0.0
C476 C 0.59232 0.78172 0.07652 0.0
C477 C 0.57584 0.78377 0.0583 0.0
C478 C 0.5388 0.77243 0.0346 0.0
C479 C 0.48616 0.78605 0.09023 0.0
C480 C 0.46434 0.77407 0.0927 0.0
C481 C 0.50189 0.78461 0.07189 0.0
C482 C 0.49639 0.77099 0.05568 0.0
C483 C 0.45905 0.76026 0.07663 0.0
C484 C 0.47482 0.75883 0.05825 0.0
C485 C 0.51144 0.77064 0.03515 0.0
H486 H 0.47593 0.79829 0.93209 0.0
H487 H 0.50693 0.79802 0.96277 0.0
H488 H 0.44248 0.74549 0.955 0.0
H489 H 0.47328 0.74539 0.98563 0.0
H490 H 0.56005 0.75801 0.92476 0.0
H491 H 0.53617 0.75236 0.95863 0.0
H492 H 0.59559 0.80808 0.95338 0.0
H493 H 0.57146 0.80257 0.98694 0.0
H494 H 0.56582 0.74121 0.09769 0.0
H495 H 0.53704 0.74484 0.06593 0.0
H496 H 0.60796 0.79192 0.07908 0.0
H497 H 0.57893 0.7956 0.04727 0.0
H498 H 0.49092 0.79675 0.10236 0.0
H499 H 0.51787 0.79459 0.07009 0.0
H500 H 0.44222 0.75097 0.07786 0.0
H501 H 0.46994 0.74838 0.04586 0.0
N502 N 0.49804 0.7701 0.01587 0.0
N503 N 0.55041 0.77463 0.01489 0.0
C504 C 0.78533 0.0792 0.47895 0.0
C505 C 0.80359 0.0797 0.46206 0.0
C506 C 0.78467 0.06399 0.49371 0.0
C507 C 0.80254 0.04914 0.49208 0.0
C508 C 0.82173 0.06503 0.46075 0.0
C509 C 0.82114 0.04992 0.47553 0.0
C510 C 0.80058 0.0319 0.50599 0.0
C511 C 0.81941 0.07876 0.55369 0.0
C512 C 0.80091 0.0816 0.57004 0.0
C513 C 0.81759 0.06299 0.53992 0.0
C514 C 0.79707 0.04981 0.542 0.0
C515 C 0.78025 0.06849 0.57196 0.0
C516 C 0.77846 0.0527 0.55818 0.0
C517 C 0.79619 0.03222 0.52873 0.0
C518 C 0.80869 0.95127 0.55727 0.0
C519 C 0.78878 0.95031 0.57278 0.0
C520 C 0.8102 0.96652 0.54259 0.0
C521 C 0.79164 0.98098 0.54297 0.0
C522 C 0.76996 0.9646 0.57275 0.0
C523 C 0.77148 0.97979 0.55813 0.0
C524 C 0.79425 0.99824 0.52924 0.0
C525 C 0.78213 0.95079 0.47953 0.0
C526 C 0.80129 0.94992 0.46341 0.0
C527 C 0.78179 0.96601 0.49424 0.0
C528 C 0.8009 0.98041 0.49331 0.0
C529 C 0.82074 0.96406 0.46295 0.0
C530 C 0.82049 0.97913 0.47767 0.0
C531 C 0.79929 0.99793 0.50659 0.0
H532 H 0.77088 0.09016 0.48021 0.0
H533 H 0.76959 0.06353 0.50587 0.0
H534 H 0.83625 0.06511 0.44811 0.0
H535 H 0.83508 0.03864 0.47383 0.0
H536 H 0.83547 0.08864 0.55167 0.0
H537 H 0.83265 0.06087 0.52801 0.0
H538 H 0.76589 0.07009 0.58458 0.0
H539 H 0.76265 0.0426 0.56031 0.0
H540 H 0.82368 0.94065 0.55703 0.0
H541 H 0.82637 0.96733 0.53148 0.0
H542 H 0.75413 0.96416 0.58422 0.0
H543 H 0.757 0.99078 0.55882 0.0
H544 H 0.76674 0.94019 0.48012 0.0
H545 H 0.76601 0.96688 0.5057 0.0
H546 H 0.83597 0.96364 0.45092 0.0
H547 H 0.83541 0.99006 0.47655 0.0
N548 N 0.80217 0.01477 0.49598 0.0
N549 N 0.79293 0.01539 0.53935 0.0
C550 C 0.47553 0.26346 0.94253 0.0
C551 C 0.45709 0.24858 0.94165 0.0
C552 C 0.49093 0.2663 0.96131 0.0
C553 C 0.48826 0.25427 0.97951 0.0
C554 C 0.45396 0.23695 0.96016 0.0
C555 C 0.46926 0.23983 0.9789 0.0
C556 C 0.50458 0.25682 0.99947 0.0
C557 C 0.55933 0.23979 0.94632 0.0
C558 C 0.57928 0.25304 0.94195 0.0
C559 C 0.54375 0.24176 0.96471 0.0
C560 C 0.54747 0.25719 0.97896 0.0
C561 C 0.58303 0.26842 0.95632 0.0
C562 C 0.56738 0.27041 0.97467 0.0
C563 C 0.53195 0.25897 0.9991 0.0
C564 C 0.56165 0.25384 0.09453 0.0
C565 C 0.58042 0.26845 0.09606 0.0
C566 C 0.54617 0.2518 0.0757 0.0
C567 C 0.54904 0.26441 0.05805 0.0
C568 C 0.58358 0.28082 0.07819 0.0
C569 C 0.56817 0.27872 0.05933 0.0
C570 C 0.53282 0.26237 0.03796 0.0
C571 C 0.47816 0.27957 0.09092 0.0
C572 C 0.4594 0.26567 0.09614 0.0
C573 C 0.49334 0.27774 0.07229 0.0
C574 C 0.49017 0.26194 0.05854 0.0
C575 C 0.45629 0.24984 0.08237 0.0
C576 C 0.47138 0.24809 0.06364 0.0
C577 C 0.5055 0.26025 0.03832 0.0
H578 H 0.47844 0.27265 0.92856 0.0
H579 H 0.50497 0.27787 0.96157 0.0
H580 H 0.4396 0.22558 0.96016 0.0
H581 H 0.46656 0.23055 0.99284 0.0
H582 H 0.55576 0.22784 0.93556 0.0
H583 H 0.52907 0.23102 0.96794 0.0
H584 H 0.59848 0.2787 0.9537 0.0
H585 H 0.5709 0.28227 0.98559 0.0
H586 H 0.55867 0.24411 0.10802 0.0
H587 H 0.53203 0.24032 0.07491 0.0
H588 H 0.59815 0.29203 0.07869 0.0
H589 H 0.57099 0.28845 0.04582 0.0
H590 H 0.48111 0.29188 0.10126 0.0
H591 H 0.50732 0.28883 0.06848 0.0
H592 H 0.44178 0.23902 0.0858 0.0
H593 H 0.46841 0.23587 0.05314 0.0
N594 N 0.49249 0.25743 0.01909 0.0
N595 N 0.54493 0.26178 0.01836 0.0
H596 H 0.18261 0.36234 0.32282 0.0
H597 H 0.17957 0.35647 0.25225 0.0
H598 H 0.14831 0.38258 0.24984 0.0
H599 H 0.11369 0.37414 0.32953 0.0
H600 H 0.12042 0.39107 0.35096 0.0
H601 H 0.14143 0.37108 0.34742 0.0
H602 H 0.18101 0.39391 0.34414 0.0
H603 H 0.16014 0.41394 0.34761 0.0
H604 H 0.1804 0.41251 0.3239 0.0
H605 H 0.11956 0.41022 0.25457 0.0
H606 H 0.09429 0.43779 0.26631 0.0
H607 H 0.11525 0.42614 0.33389 0.0
C608 C 0.17501 0.36638 0.30692 0.0
C609 C 0.18363 0.35743 0.2877 0.0
C610 C 0.17351 0.36328 0.26716 0.0
C611 C 0.15562 0.37802 0.26562 0.0
C612 C 0.14789 0.38677 0.28479 0.0
C613 C 0.15711 0.38116 0.30507 0.0
C614 C 0.14631 0.39354 0.32299 0.0
C615 C 0.12946 0.38175 0.33865 0.0
C616 C 0.16828 0.4041 0.33538 0.0
C617 C 0.12994 0.4071 0.30953 0.0
C618 C 0.13108 0.40283 0.28754 0.0
C619 C 0.11838 0.41366 0.27175 0.0
C620 C 0.10422 0.42936 0.27856 0.0
C621 C 0.10286 0.43414 0.30098 0.0
C622 C 0.11571 0.4227 0.31666 0.0
H623 H 0.1764 0.6741 0.705 0.0
H624 H 0.20006 0.66657 0.77278 0.0
H625 H 0.17042 0.63905 0.77578 0.0
H626 H 0.10849 0.66127 0.71226 0.0
H627 H 0.10558 0.64891 0.68657 0.0
H628 H 0.1285 0.66828 0.68961 0.0
H629 H 0.16562 0.64637 0.67746 0.0
H630 H 0.14282 0.62693 0.67446 0.0
H631 H 0.17108 0.62443 0.69187 0.0
H632 H 0.13886 0.61249 0.77179 0.0
H633 H 0.1068 0.58797 0.76094 0.0
H634 H 0.10269 0.61209 0.69567 0.0
C635 C 0.17517 0.66671 0.72048 0.0
C636 C 0.19072 0.6724 0.73862 0.0
C637 C 0.18869 0.66229 0.75857 0.0
C638 C 0.1718 0.6467 0.76049 0.0
C639 C 0.15699 0.64132 0.7423 0.0
C640 C 0.15842 0.65096 0.72267 0.0
C641 C 0.14045 0.64193 0.70565 0.0
C642 C 0.11951 0.65594 0.69808 0.0
C643 C 0.15592 0.63447 0.68621 0.0
C644 C 0.12878 0.62576 0.71884 0.0
C645 C 0.1386 0.62578 0.73996 0.0
C646 C 0.1309 0.61236 0.75534 0.0
C647 C 0.11256 0.59855 0.74904 0.0
C648 C 0.10203 0.5982 0.72752 0.0
C649 C 0.11044 0.61196 0.7122 0.0
H650 H 0.8752 0.66412 0.29177 0.0
H651 H 0.85925 0.67872 0.3591 0.0
H652 H 0.8891 0.65368 0.37172 0.0
H653 H 0.87724 0.61387 0.29985 0.0
H654 H 0.90306 0.61039 0.28073 0.0
H655 H 0.88116 0.62988 0.2771 0.0
H656 H 0.92023 0.65341 0.27691 0.0
H657 H 0.94227 0.63399 0.28059 0.0
H658 H 0.94299 0.65352 0.29955 0.0
H659 H 0.91986 0.62633 0.37694 0.0
H660 H 0.94955 0.59918 0.37433 0.0
H661 H 0.94446 0.60217 0.30356 0.0
C662 C 0.87785 0.66201 0.30918 0.0
C663 C 0.86484 0.67342 0.32444 0.0
C664 C 0.86922 0.67034 0.34708 0.0
C665 C 0.88603 0.65608 0.35441 0.0
C666 C 0.89839 0.64504 0.33891 0.0
C667 C 0.89454 0.64787 0.31677 0.0
C668 C 0.90991 0.63395 0.30346 0.0
C669 C 0.89176 0.62127 0.28946 0.0
C670 C 0.93005 0.64435 0.28929 0.0
C671 C 0.92291 0.62274 0.32157 0.0
C672 C 0.91605 0.62936 0.3419 0.0
C673 C 0.92537 0.62105 0.3611 0.0
C674 C 0.94211 0.60557 0.35945 0.0
C675 C 0.94938 0.59853 0.33875 0.0
C676 C 0.93961 0.60735 0.31963 0.0
H677 H 0.87433 0.35687 0.69268 0.0
H678 H 0.87801 0.34331 0.76188 0.0
H679 H 0.90552 0.37167 0.7684 0.0
H680 H 0.94056 0.3739 0.68828 0.0
H681 H 0.9326 0.3926 0.66931 0.0
H682 H 0.91307 0.37123 0.66995 0.0
H683 H 0.8719 0.39113 0.67626 0.0
H684 H 0.89129 0.41256 0.67558 0.0
H685 H 0.87128 0.40747 0.69886 0.0
H686 H 0.93279 0.40119 0.76753 0.0
H687 H 0.95729 0.43058 0.7595 0.0
H688 H 0.93594 0.42538 0.69087 0.0
C689 C 0.88106 0.3598 0.70919 0.0
C690 C 0.87389 0.34788 0.7268 0.0
C691 C 0.88288 0.35236 0.74818 0.0
C692 C 0.89868 0.36837 0.75203 0.0
C693 C 0.90537 0.37979 0.73434 0.0
C694 C 0.89683 0.37577 0.71335 0.0
C695 C 0.90665 0.39055 0.6973 0.0
C696 C 0.92427 0.38153 0.6802 0.0
C697 C 0.88392 0.40105 0.68636 0.0
C698 C 0.92204 0.40348 0.71258 0.0
C699 C 0.92106 0.39696 0.73386 0.0
C700 C 0.93361 0.40649 0.75095 0.0
C701 C 0.94735 0.42325 0.74623 0.0
C702 C 0.94841 0.4304 0.72458 0.0
C703 C 0.9357 0.42022 0.70755 0.0
H704 H 0.27241 0.17792 0.3933 0.0
H705 H 0.18901 0.18161 0.38321 0.0
H706 H 0.18263 0.15298 0.40576 0.0
H707 H 0.27545 0.1264 0.39129 0.0
H708 H 0.30029 0.12497 0.41224 0.0
H709 H 0.29846 0.14565 0.39498 0.0
H710 H 0.29557 0.16701 0.42924 0.0
H711 H 0.29731 0.1464 0.44659 0.0
H712 H 0.2705 0.16243 0.44892 0.0
H713 H 0.18499 0.12439 0.42982 0.0
H714 H 0.19605 0.09722 0.45343 0.0
H715 H 0.27793 0.11174 0.44816 0.0
C716 C 0.25283 0.17258 0.39564 0.0
C717 C 0.23119 0.18212 0.38657 0.0
C718 C 0.20587 0.17476 0.39025 0.0
C719 C 0.20204 0.15843 0.40294 0.0
C720 C 0.22372 0.14951 0.41183 0.0
C721 C 0.24863 0.15625 0.40832 0.0
C722 C 0.26852 0.14406 0.42004 0.0
C723 C 0.28675 0.13471 0.40366 0.0
C724 C 0.28387 0.15567 0.43722 0.0
C725 C 0.25084 0.12948 0.43073 0.0
C726 C 0.22509 0.13292 0.42576 0.0
C727 C 0.2051 0.12156 0.43386 0.0
C728 C 0.21157 0.10623 0.44741 0.0
C729 C 0.23784 0.10237 0.45279 0.0
C730 C 0.25769 0.1142 0.44423 0.0
H731 H 0.39846 0.78881 0.82046 0.0
H732 H 0.3235 0.77144 0.84586 0.0
H733 H 0.34336 0.76697 0.88235 0.0
H734 H 0.43662 0.75607 0.8519 0.0
H735 H 0.46327 0.77247 0.85645 0.0
H736 H 0.44321 0.77454 0.83225 0.0
H737 H 0.43348 0.80944 0.84206 0.0
H738 H 0.45353 0.80748 0.86629 0.0
H739 H 0.42027 0.81485 0.86843 0.0
H740 H 0.37101 0.76432 0.91597 0.0
H741 H 0.40486 0.76354 0.94476 0.0
H742 H 0.46231 0.78238 0.89787 0.0
C743 C 0.3862 0.78422 0.83375 0.0
C744 C 0.35941 0.78039 0.83025 0.0
C745 C 0.34411 0.77419 0.84804 0.0
C746 C 0.35518 0.77172 0.86887 0.0
C747 C 0.38161 0.7755 0.87172 0.0
C748 C 0.39696 0.78162 0.85469 0.0
C749 C 0.42494 0.78447 0.8622 0.0
C750 C 0.44307 0.77109 0.84997 0.0
C751 C 0.43356 0.8053 0.85959 0.0
C752 C 0.42286 0.779 0.8861 0.0
C753 C 0.39767 0.77389 0.8912 0.0
C754 C 0.39084 0.76822 0.91217 0.0
C755 C 0.41027 0.76769 0.92838 0.0
C756 C 0.43633 0.77274 0.92359 0.0
C757 C 0.44257 0.77855 0.90212 0.0
H758 H 0.79077 0.84482 0.4141 0.0
H759 H 0.8038 0.87006 0.35035 0.0
H760 H 0.80496 0.90185 0.36709 0.0
H761 H 0.74964 0.88195 0.43486 0.0
H762 H 0.76295 0.88074 0.46221 0.0
H763 H 0.76231 0.85991 0.44518 0.0
H764 H 0.81199 0.85639 0.45073 0.0
H765 H 0.81277 0.87719 0.46777 0.0
H766 H 0.83329 0.87602 0.44418 0.0
H767 H 0.80643 0.93068 0.39066 0.0
H768 H 0.80707 0.955 0.41958 0.0
H769 H 0.79317 0.91138 0.46832 0.0
C770 C 0.79389 0.85703 0.40367 0.0
C771 C 0.79708 0.85493 0.38086 0.0
C772 C 0.8009 0.87131 0.36778 0.0
C773 C 0.80174 0.88942 0.37716 0.0
C774 C 0.79863 0.89098 0.39965 0.0
C775 C 0.79468 0.87527 0.41276 0.0
C776 C 0.79217 0.88092 0.43654 0.0
C777 C 0.76516 0.87556 0.4452 0.0
C778 C 0.81385 0.87211 0.45063 0.0
C779 C 0.79561 0.90226 0.43476 0.0
C780 C 0.79931 0.90772 0.41331 0.0
C781 C 0.8035 0.92659 0.40751 0.0
C782 C 0.80398 0.94028 0.42407 0.0
C783 C 0.80029 0.93507 0.4462 0.0
C784 C 0.79585 0.91579 0.45153 0.0
H785 H 0.66859 0.28608 0.84251 0.0
H786 H 0.6894 0.22704 0.83444 0.0
H787 H 0.65965 0.21804 0.86409 0.0
H788 H 0.66603 0.28513 0.90074 0.0
H789 H 0.63884 0.30091 0.90231 0.0
H790 H 0.66072 0.30262 0.87967 0.0
H791 H 0.62203 0.29828 0.85256 0.0
H792 H 0.60001 0.29658 0.87513 0.0
H793 H 0.60083 0.27787 0.85513 0.0
H794 H 0.62897 0.21559 0.89565 0.0
H795 H 0.59953 0.21985 0.92668 0.0
H796 H 0.59871 0.2805 0.91425 0.0
C797 C 0.66697 0.27125 0.84698 0.0
C798 C 0.68133 0.25727 0.83601 0.0
C799 C 0.67833 0.238 0.84228 0.0
C800 C 0.66159 0.23275 0.85922 0.0
C801 C 0.64791 0.24691 0.86975 0.0
C802 C 0.65037 0.26576 0.86386 0.0
C803 C 0.63389 0.27825 0.87811 0.0
C804 C 0.65089 0.29257 0.89097 0.0
C805 C 0.61295 0.28834 0.86441 0.0
C806 C 0.62199 0.2635 0.8931 0.0
C807 C 0.63024 0.2455 0.88794 0.0
C808 C 0.6222 0.2296 0.89972 0.0
C809 C 0.60533 0.23216 0.91726 0.0
C810 C 0.59663 0.25049 0.92291 0.0
C811 C 0.60511 0.26631 0.91052 0.0
H812 H 0.25684 0.86647 0.65104 0.0
H813 H 0.2747 0.82535 0.6009 0.0
H814 H 0.27927 0.8512 0.57399 0.0
H815 H 0.21922 0.89718 0.61695 0.0
H816 H 0.23105 0.91876 0.62953 0.0
H817 H 0.22979 0.89711 0.64516 0.0
H818 H 0.27883 0.90062 0.65447 0.0
H819 H 0.28023 0.92234 0.63895 0.0
H820 H 0.3018 0.90323 0.63265 0.0
H821 H 0.28098 0.88123 0.55229 0.0
H822 H 0.27989 0.91362 0.53715 0.0
H823 H 0.26191 0.93566 0.60134 0.0
C824 C 0.26199 0.86294 0.63446 0.0
C825 C 0.26529 0.84384 0.62807 0.0
C826 C 0.2717 0.83982 0.60612 0.0
C827 C 0.27449 0.85442 0.59073 0.0
C828 C 0.27086 0.87303 0.5975 0.0
C829 C 0.2648 0.87737 0.61882 0.0
C830 C 0.26151 0.89857 0.62166 0.0
C831 C 0.23374 0.90317 0.62874 0.0
C832 C 0.28181 0.90667 0.6379 0.0
C833 C 0.26656 0.90543 0.59858 0.0
C834 C 0.27197 0.89044 0.58494 0.0
C835 C 0.27698 0.89311 0.56285 0.0
C836 C 0.27648 0.9116 0.55443 0.0
C837 C 0.27105 0.92727 0.56805 0.0
C838 C 0.266 0.92403 0.59045 0.0
H839 H 0.6715 0.79539 0.19766 0.0
H840 H 0.69905 0.73742 0.1998 0.0
H841 H 0.673 0.72995 0.16681 0.0
H842 H 0.60692 0.78501 0.1792 0.0
H843 H 0.60487 0.80533 0.16136 0.0
H844 H 0.62558 0.8062 0.1853 0.0
H845 H 0.66494 0.8151 0.16124 0.0
H846 H 0.64434 0.81431 0.13723 0.0
H847 H 0.67312 0.80005 0.13863 0.0
H848 H 0.64325 0.72848 0.13408 0.0
H849 H 0.61307 0.7335 0.10295 0.0
H850 H 0.60628 0.79269 0.12098 0.0
C851 C 0.67236 0.78117 0.19109 0.0
C852 C 0.68727 0.76697 0.20156 0.0
C853 C 0.68743 0.74848 0.19246 0.0
C854 C 0.67283 0.74411 0.17359 0.0
C855 C 0.65828 0.7584 0.16382 0.0
C856 C 0.65806 0.77659 0.17215 0.0
C857 C 0.64086 0.78936 0.1584 0.0
C858 C 0.61822 0.79691 0.17187 0.0
C859 C 0.65677 0.80567 0.14827 0.0
C860 C 0.63136 0.77546 0.14111 0.0
C861 C 0.64157 0.75767 0.14461 0.0
C862 C 0.6352 0.74236 0.13112 0.0
C863 C 0.61795 0.74532 0.11356 0.0
C864 C 0.60736 0.76347 0.10956 0.0
C865 C 0.61429 0.77872 0.12352 0.0
H866 H 0.75356 0.16463 0.64863 0.0
H867 H 0.83389 0.17151 0.66984 0.0
H868 H 0.84675 0.14659 0.64401 0.0
H869 H 0.75427 0.1145 0.64281 0.0
H870 H 0.73363 0.11398 0.6188 0.0
H871 H 0.73078 0.13289 0.63831 0.0
H872 H 0.7384 0.15767 0.60765 0.0
H873 H 0.74118 0.13882 0.58802 0.0
H874 H 0.767 0.15614 0.59111 0.0
H875 H 0.85079 0.12043 0.61664 0.0
H876 H 0.8457 0.09449 0.58989 0.0
H877 H 0.76282 0.10479 0.58595 0.0
C878 C 0.7739 0.16108 0.64763 0.0
C879 C 0.79272 0.17002 0.6613 0.0
C880 C 0.81909 0.16472 0.65972 0.0
C881 C 0.82661 0.15066 0.64501 0.0
C882 C 0.80755 0.14202 0.63193 0.0
C883 C 0.78175 0.14702 0.63306 0.0
C884 C 0.76506 0.13517 0.61756 0.0
C885 C 0.74474 0.12344 0.63013 0.0
C886 C 0.75215 0.1477 0.60005 0.0
C887 C 0.78549 0.12259 0.60773 0.0
C888 C 0.80988 0.12688 0.61615 0.0
C889 C 0.83181 0.11704 0.60981 0.0
C890 C 0.82873 0.10239 0.59449 0.0
C891 C 0.80389 0.09764 0.58569 0.0
C892 C 0.78204 0.10798 0.59244 0.0
H893 H 0.3846 0.23368 0.20428 0.0
H894 H 0.35463 0.29092 0.20736 0.0
H895 H 0.37906 0.29943 0.17438 0.0
H896 H 0.44826 0.24596 0.18523 0.0
H897 H 0.4503 0.22589 0.16718 0.0
H898 H 0.4309 0.22428 0.1914 0.0
H899 H 0.39073 0.21461 0.16782 0.0
H900 H 0.41002 0.21616 0.14353 0.0
H901 H 0.38066 0.22966 0.1455 0.0
H902 H 0.40675 0.30191 0.14113 0.0
H903 H 0.4349 0.29783 0.10918 0.0
H904 H 0.44586 0.23879 0.12678 0.0
C905 C 0.38298 0.24797 0.19797 0.0
C906 C 0.36781 0.26166 0.20867 0.0
C907 C 0.36652 0.28025 0.19985 0.0
C908 C 0.38019 0.28521 0.18099 0.0
C909 C 0.39498 0.27142 0.17095 0.0
C910 C 0.39638 0.25315 0.17904 0.0
C911 C 0.41344 0.24097 0.16491 0.0
C912 C 0.43713 0.23386 0.17796 0.0
C913 C 0.39777 0.22437 0.15484 0.0
C914 C 0.42139 0.25526 0.14763 0.0
C915 C 0.41061 0.27275 0.15149 0.0
C916 C 0.41532 0.28827 0.13793 0.0
C917 C 0.43145 0.28585 0.1199 0.0
C918 C 0.44261 0.26801 0.1155 0.0
C919 C 0.43742 0.25254 0.1296 0.0
H920 H 0.8619 0.67051 0.71272 0.0
H921 H 0.87485 0.68193 0.78171 0.0
H922 H 0.90743 0.65667 0.7834 0.0
H923 H 0.8664 0.62063 0.7162 0.0
H924 H 0.88321 0.61771 0.6908 0.0
H925 H 0.8621 0.63759 0.69441 0.0
H926 H 0.89983 0.66071 0.68497 0.0
H927 H 0.92105 0.64087 0.68126 0.0
H928 H 0.92999 0.65947 0.70018 0.0
H929 H 0.93618 0.62904 0.77856 0.0
H930 H 0.96048 0.60089 0.7671 0.0
H931 H 0.93014 0.60724 0.70105 0.0
C932 C 0.87194 0.6679 0.72807 0.0
C933 C 0.86569 0.67813 0.74713 0.0
C934 C 0.87902 0.67411 0.76698 0.0
C935 C 0.89769 0.65986 0.76808 0.0
C936 C 0.90303 0.6498 0.74916 0.0
C937 C 0.89072 0.65366 0.72948 0.0
C938 C 0.89946 0.64013 0.71182 0.0
C939 C 0.87642 0.62832 0.70278 0.0
C940 C 0.91342 0.65094 0.69347 0.0
C941 C 0.91822 0.62791 0.7248 0.0
C942 C 0.92 0.63383 0.74628 0.0
C943 C 0.93514 0.62436 0.76174 0.0
C944 C 0.94874 0.60833 0.75511 0.0
C945 C 0.94719 0.60191 0.73322 0.0
C946 C 0.93193 0.61199 0.71783 0.0
H947 H 0.87245 0.36088 0.32837 0.0
H948 H 0.85052 0.36669 0.25999 0.0
H949 H 0.88125 0.39354 0.2563 0.0
H950 H 0.8785 0.41064 0.33945 0.0
H951 H 0.9062 0.40845 0.35756 0.0
H952 H 0.88321 0.38911 0.35486 0.0
H953 H 0.92034 0.36655 0.34441 0.0
H954 H 0.94347 0.38582 0.34714 0.0
H955 H 0.94113 0.37269 0.32193 0.0
H956 H 0.91331 0.41993 0.25986 0.0
H957 H 0.94478 0.4449 0.27064 0.0
H958 H 0.94662 0.42254 0.3368 0.0
C959 C 0.87435 0.36773 0.31261 0.0
C960 C 0.859 0.36177 0.29448 0.0
C961 C 0.86182 0.37118 0.27415 0.0
C962 C 0.87933 0.38637 0.27186 0.0
C963 C 0.89392 0.39205 0.29004 0.0
C964 C 0.89168 0.38309 0.31005 0.0
C965 C 0.90927 0.39248 0.32706 0.0
C966 C 0.89334 0.40066 0.34584 0.0
C967 C 0.92977 0.37855 0.33563 0.0
C968 C 0.92158 0.40814 0.31347 0.0
C969 C 0.9125 0.40751 0.29215 0.0
C970 C 0.92073 0.42051 0.27648 0.0
C971 C 0.93874 0.43458 0.28274 0.0
C972 C 0.94838 0.43562 0.30451 0.0
C973 C 0.93957 0.42218 0.32006 0.0
H974 H 0.18182 0.37453 0.74317 0.0
H975 H 0.17436 0.34787 0.67943 0.0
H976 H 0.14362 0.37259 0.66784 0.0
H977 H 0.11428 0.38695 0.74764 0.0
H978 H 0.12125 0.40909 0.76131 0.0
H979 H 0.14314 0.38952 0.76443 0.0
H980 H 0.18116 0.41076 0.75099 0.0
H981 H 0.15939 0.43039 0.74779 0.0
H982 H 0.17832 0.42266 0.72498 0.0
H983 H 0.11375 0.40045 0.66306 0.0
H984 H 0.0862 0.42879 0.6659 0.0
H985 H 0.11206 0.43656 0.73309 0.0
C986 C 0.17356 0.37371 0.72684 0.0
C987 C 0.18073 0.35921 0.71221 0.0
C988 C 0.16965 0.35897 0.69086 0.0
C989 C 0.15199 0.37289 0.68415 0.0
C990 C 0.14542 0.38695 0.69898 0.0
C991 C 0.15577 0.38741 0.71991 0.0
C992 C 0.14534 0.40396 0.73275 0.0
C993 C 0.13009 0.39696 0.75271 0.0
C994 C 0.16737 0.41776 0.73952 0.0
C995 C 0.1275 0.41274 0.71577 0.0
C996 C 0.1279 0.40277 0.69636 0.0
C997 C 0.11327 0.40835 0.67819 0.0
C998 C 0.09778 0.42451 0.67992 0.0
C999 C 0.09693 0.43488 0.69971 0.0
C1000 C 0.11203 0.42882 0.71782 0.0
H1001 H 0.16774 0.67924 0.30576 0.0
H1002 H 0.19032 0.68407 0.37413 0.0
H1003 H 0.16658 0.65434 0.38218 0.0
H1004 H 0.10373 0.66107 0.31457 0.0
H1005 H 0.10385 0.64499 0.29172 0.0
H1006 H 0.12325 0.66641 0.29106 0.0
H1007 H 0.16438 0.64668 0.2839 0.0
H1008 H 0.14507 0.6252 0.28448 0.0
H1009 H 0.1729 0.6278 0.30245 0.0
H1010 H 0.13967 0.62463 0.38314 0.0
H1011 H 0.11179 0.59642 0.37681 0.0
H1012 H 0.10643 0.61057 0.30783 0.0
C1013 C 0.16795 0.67391 0.32236 0.0
C1014 C 0.18079 0.68407 0.33934 0.0
C1015 C 0.18031 0.67672 0.36091 0.0
C1016 C 0.167 0.65978 0.36563 0.0
C1017 C 0.15429 0.65026 0.34861 0.0
C1018 C 0.15469 0.65698 0.32739 0.0
C1019 C 0.139 0.64412 0.31223 0.0
C1020 C 0.1161 0.65479 0.30179 0.0
C1021 C 0.15638 0.63543 0.29473 0.0
C1022 C 0.12965 0.62919 0.32828 0.0
C1023 C 0.13873 0.63302 0.34917 0.0
C1024 C 0.13244 0.62147 0.36685 0.0
C1025 C 0.11643 0.60555 0.36311 0.0
C1026 C 0.10681 0.60129 0.34185 0.0
C1027 C 0.11366 0.61331 0.32423 0.0
H1028 H 0.80037 0.84481 0.62132 0.0
H1029 H 0.78042 0.86845 0.68428 0.0
H1030 H 0.77755 0.90021 0.66764 0.0
H1031 H 0.84041 0.88445 0.60363 0.0
H1032 H 0.82975 0.88296 0.57551 0.0
H1033 H 0.83023 0.86193 0.59228 0.0
H1034 H 0.7815 0.85583 0.58346 0.0
H1035 H 0.78086 0.87683 0.56667 0.0
H1036 H 0.75835 0.87416 0.5888 0.0
H1037 H 0.7768 0.92934 0.6445 0.0
H1038 H 0.77818 0.95419 0.61619 0.0
H1039 H 0.79858 0.91206 0.56788 0.0
C1040 C 0.79559 0.85669 0.63163 0.0
C1041 C 0.79044 0.85407 0.65412 0.0
C1042 C 0.784 0.87 0.66697 0.0
C1043 C 0.78249 0.88814 0.6577 0.0
C1044 C 0.78752 0.89021 0.63552 0.0
C1045 C 0.79397 0.87496 0.62262 0.0
C1046 C 0.79826 0.88115 0.59916 0.0
C1047 C 0.82633 0.8774 0.59225 0.0
C1048 C 0.77857 0.87141 0.58361 0.0
C1049 C 0.79322 0.90224 0.60094 0.0
C1050 C 0.78706 0.90712 0.62208 0.0
C1051 C 0.78149 0.9257 0.62786 0.0
C1052 C 0.78215 0.93969 0.6116 0.0
C1053 C 0.78827 0.93511 0.58972 0.0
C1054 C 0.79399 0.91608 0.58444 0.0
H1055 H 0.6684 0.23548 0.19771 0.0
H1056 H 0.67501 0.29482 0.21613 0.0
H1057 H 0.64778 0.30354 0.18431 0.0
H1058 H 0.67047 0.24251 0.13982 0.0
H1059 H 0.64694 0.22408 0.13366 0.0
H1060 H 0.66702 0.22244 0.15789 0.0
H1061 H 0.62591 0.21924 0.18164 0.0
H1062 H 0.60569 0.22084 0.15748 0.0
H1063 H 0.60122 0.23709 0.17977 0.0
H1064 H 0.62008 0.30591 0.15035 0.0
H1065 H 0.59323 0.30166 0.11695 0.0
H1066 H 0.60402 0.24079 0.12086 0.0
C1067 C 0.66393 0.2503 0.1952 0.0
C1068 C 0.67403 0.26446 0.20943 0.0
C1069 C 0.66793 0.28371 0.20531 0.0
C1070 C 0.65232 0.28881 0.18734 0.0
C1071 C 0.64282 0.27451 0.17363 0.0
C1072 C 0.64831 0.25564 0.17737 0.0
C1073 C 0.63567 0.24306 0.16009 0.0
C1074 C 0.65626 0.2324 0.1471 0.0
C1075 C 0.61595 0.22925 0.17037 0.0
C1076 C 0.62224 0.25781 0.14607 0.0
C1077 C 0.62666 0.27587 0.15415 0.0
C1078 C 0.61649 0.29184 0.14387 0.0
C1079 C 0.60139 0.28929 0.12483 0.0
C1080 C 0.59653 0.27091 0.11625 0.0
C1081 C 0.60713 0.255 0.12712 0.0
H1082 H 0.25692 0.18875 0.61666 0.0
H1083 H 0.25921 0.16535 0.68232 0.0
H1084 H 0.26084 0.13307 0.66704 0.0
H1085 H 0.21567 0.15251 0.59313 0.0
H1086 H 0.23214 0.15226 0.56732 0.0
H1087 H 0.23184 0.17365 0.58336 0.0
H1088 H 0.28213 0.17511 0.58296 0.0
H1089 H 0.28259 0.1537 0.56695 0.0
H1090 H 0.30035 0.15498 0.59249 0.0
H1091 H 0.26113 0.10334 0.6449 0.0
H1092 H 0.26067 0.07798 0.61719 0.0
H1093 H 0.25779 0.12034 0.56568 0.0
C1094 C 0.25769 0.17683 0.62782 0.0
C1095 C 0.2581 0.17963 0.65072 0.0
C1096 C 0.25933 0.16363 0.66474 0.0
C1097 C 0.2601 0.14521 0.65622 0.0
C1098 C 0.25968 0.14297 0.63362 0.0
C1099 C 0.25856 0.15831 0.61958 0.0
C1100 C 0.25816 0.15189 0.59592 0.0
C1101 C 0.23295 0.15794 0.58425 0.0
C1102 C 0.28225 0.15937 0.58388 0.0
C1103 C 0.25905 0.13055 0.59889 0.0
C1104 C 0.25991 0.12574 0.62078 0.0
C1105 C 0.26045 0.10693 0.6277 0.0
C1106 C 0.26003 0.09262 0.61183 0.0
C1107 C 0.25907 0.09715 0.58926 0.0
C1108 C 0.25874 0.11642 0.58279 0.0
H1109 H 0.36904 0.7419 0.18871 0.0
H1110 H 0.35527 0.80166 0.20032 0.0
H1111 H 0.38583 0.81007 0.17108 0.0
H1112 H 0.43707 0.74632 0.17674 0.0
H1113 H 0.43608 0.72861 0.15554 0.0
H1114 H 0.41351 0.72721 0.17774 0.0
H1115 H 0.375 0.7267 0.15005 0.0
H1116 H 0.39745 0.72806 0.12776 0.0
H1117 H 0.37226 0.74544 0.1301 0.0
H1118 H 0.41743 0.81207 0.14033 0.0
H1119 H 0.44746 0.80752 0.10978 0.0
H1120 H 0.44047 0.74647 0.11771 0.0
C1121 C 0.37228 0.75676 0.18503 0.0
C1122 C 0.35978 0.77112 0.19698 0.0
C1123 C 0.36489 0.79039 0.19173 0.0
C1124 C 0.38212 0.79532 0.17503 0.0
C1125 C 0.39408 0.78083 0.16364 0.0
C1126 C 0.38937 0.76195 0.16836 0.0
C1127 C 0.40459 0.74915 0.15346 0.0
C1128 C 0.42396 0.73711 0.16666 0.0
C1129 C 0.38622 0.7366 0.13952 0.0
C1130 C 0.41851 0.7638 0.13957 0.0
C1131 C 0.41223 0.78199 0.14578 0.0
C1132 C 0.42258 0.79789 0.13538 0.0
C1133 C 0.43978 0.79515 0.11813 0.0
C1134 C 0.4465 0.77664 0.11138 0.0
C1135 C 0.43562 0.76079 0.12234 0.0
H1136 H 0.79349 0.18548 0.41442 0.0
H1137 H 0.80251 0.16114 0.34991 0.0
H1138 H 0.80466 0.12919 0.36626 0.0
H1139 H 0.8375 0.15432 0.44258 0.0
H1140 H 0.81823 0.15265 0.4669 0.0
H1141 H 0.81691 0.17366 0.45016 0.0
H1142 H 0.76696 0.16972 0.44643 0.0
H1143 H 0.76813 0.14869 0.46315 0.0
H1144 H 0.75339 0.14769 0.43629 0.0
H1145 H 0.80684 0.10004 0.38942 0.0
H1146 H 0.80781 0.0753 0.41794 0.0
H1147 H 0.79755 0.11825 0.46771 0.0
C1148 C 0.796 0.17343 0.40375 0.0
C1149 C 0.79771 0.17583 0.38084 0.0
C1150 C 0.80075 0.15966 0.36744 0.0
C1151 C 0.80215 0.14145 0.37659 0.0
C1152 C 0.80042 0.13959 0.39918 0.0
C1153 C 0.79732 0.15511 0.41261 0.0
C1154 C 0.79596 0.14911 0.43641 0.0
C1155 C 0.8185 0.15796 0.4498 0.0
C1156 C 0.76953 0.1541 0.44614 0.0
C1157 C 0.79894 0.12783 0.43423 0.0
C1158 C 0.80154 0.12268 0.4126 0.0
C1159 C 0.80485 0.10389 0.40642 0.0
C1160 C 0.80554 0.08995 0.42276 0.0
C1161 C 0.8029 0.09482 0.44507 0.0
C1162 C 0.79944 0.11406 0.4508 0.0
H1163 H 0.37132 0.27326 0.83497 0.0
H1164 H 0.36808 0.21274 0.82213 0.0
H1165 H 0.39416 0.20687 0.85544 0.0
H1166 H 0.43705 0.27467 0.85534 0.0
H1167 H 0.43104 0.29205 0.87616 0.0
H1168 H 0.41154 0.29169 0.85151 0.0
H1169 H 0.36977 0.28872 0.87446 0.0
H1170 H 0.38915 0.28916 0.89919 0.0
H1171 H 0.36678 0.26974 0.89409 0.0
H1172 H 0.42073 0.20733 0.88966 0.0
H1173 H 0.44654 0.21414 0.923 0.0
H1174 H 0.43289 0.27434 0.91433 0.0
C1175 C 0.37595 0.25878 0.8393 0.0
C1176 C 0.3678 0.24346 0.82586 0.0
C1177 C 0.37443 0.22472 0.83198 0.0
C1178 C 0.38912 0.22122 0.85094 0.0
C1179 C 0.3971 0.2366 0.86368 0.0
C1180 C 0.39079 0.25502 0.85819 0.0
C1181 C 0.40225 0.26895 0.87468 0.0
C1182 C 0.42162 0.28264 0.86376 0.0
C1183 C 0.3807 0.27978 0.88629 0.0
C1184 C 0.41599 0.25545 0.89021 0.0
C1185 C 0.41265 0.23687 0.88354 0.0
C1186 C 0.4234 0.22181 0.89513 0.0
C1187 C 0.43792 0.22583 0.91412 0.0
C1188 C 0.44164 0.24475 0.92138 0.0
C1189 C 0.43056 0.25974 0.90914 0.0
H1190 H 0.27694 0.8838 0.35953 0.0
H1191 H 0.26791 0.83578 0.40343 0.0
H1192 H 0.26307 0.85772 0.43441 0.0
H1193 H 0.31492 0.91292 0.39652 0.0
H1194 H 0.30005 0.93476 0.38794 0.0
H1195 H 0.30226 0.9153 0.36906 0.0
H1196 H 0.25245 0.91605 0.36256 0.0
H1197 H 0.25009 0.93553 0.3814 0.0
H1198 H 0.23107 0.91422 0.38557 0.0
H1199 H 0.25986 0.88477 0.46073 0.0
H1200 H 0.2582 0.91512 0.48061 0.0
H1201 H 0.26945 0.94569 0.41974 0.0
C1202 C 0.2741 0.87788 0.37567 0.0
C1203 C 0.27269 0.85802 0.37898 0.0
C1204 C 0.26864 0.85091 0.40037 0.0
C1205 C 0.26604 0.86326 0.41811 0.0
C1206 C 0.26756 0.88272 0.41427 0.0
C1207 C 0.27148 0.89001 0.39359 0.0
C1208 C 0.27241 0.91152 0.39394 0.0
C1209 C 0.29899 0.91906 0.38642 0.0
C1210 C 0.25018 0.91981 0.38005 0.0
C1211 C 0.26851 0.91516 0.41807 0.0
C1212 C 0.26571 0.89835 0.42948 0.0
C1213 C 0.26189 0.89803 0.45196 0.0
C1214 C 0.26082 0.91536 0.46308 0.0
C1215 C 0.26353 0.93283 0.45175 0.0
C1216 C 0.26751 0.93262 0.42892 0.0
H1217 H 0.66665 0.76131 0.8319 0.0
H1218 H 0.66165 0.82118 0.81586 0.0
H1219 H 0.6341 0.82617 0.84786 0.0
H1220 H 0.60086 0.75561 0.85099 0.0
H1221 H 0.60949 0.73963 0.87286 0.0
H1222 H 0.62867 0.74053 0.84846 0.0
H1223 H 0.67001 0.74754 0.8718 0.0
H1224 H 0.65097 0.74661 0.89627 0.0
H1225 H 0.67044 0.76737 0.89035 0.0
H1226 H 0.60789 0.82504 0.88175 0.0
H1227 H 0.5842 0.81772 0.91556 0.0
H1228 H 0.60596 0.75865 0.91027 0.0
C1229 C 0.65981 0.77547 0.83518 0.0
C1230 C 0.66616 0.79083 0.82121 0.0
C1231 C 0.65668 0.80912 0.82603 0.0
C1232 C 0.64113 0.81214 0.84427 0.0
C1233 C 0.63515 0.79673 0.8576 0.0
C1234 C 0.64413 0.77874 0.85334 0.0
C1235 C 0.63484 0.7647 0.87045 0.0
C1236 C 0.61743 0.7492 0.86006 0.0
C1237 C 0.65794 0.75605 0.88296 0.0
C1238 C 0.61935 0.77764 0.885 0.0
C1239 C 0.61985 0.79606 0.87726 0.0
C1240 C 0.60735 0.81067 0.888 0.0
C1241 C 0.59406 0.80639 0.90725 0.0
C1242 C 0.59329 0.78764 0.9156 0.0
C1243 C 0.606 0.77308 0.90418 0.0
loop_
_geom_bond_atom_site_label_1
_geom_bond_atom_site_label_2
_geom_bond_distance
_geom_bond_site_symmetry_2
_ccdc_geom_bond_type
C0 C1 1.264 . S
C0 C5 1.479 . S
C0 C10 1.465 . S
C1 C0 1.264 . S
C1 C3 1.339 . S
C1 H28 0.931 . S
C2 C3 1.395 . S
C2 C4 1.320 . S
C3 C1 1.339 . S
C3 C2 1.395 . S
C3 H29 0.929 . S
C4 C2 1.320 . S
C4 C5 1.405 . S
C4 H30 0.930 . S
C5 C0 1.479 . S
C5 C4 1.405 . S
C5 H31 0.931 . S
U6 O7 2.454 . S
U6 O8 2.458 . S
U6 C9 2.984 . S
U6 C10 2.847 . S
U6 C23 2.882 . S
U6 O24 2.441 . S
U6 O25 2.420 . S
U6 O26 2.455 . S
U6 O27 2.449 . S
O7 U6 2.454 . S
O7 C9 1.353 . S
O8 U6 2.458 . S
O8 C9 1.286 . S
C9 U6 2.984 . S
C9 O7 1.353 . S
C9 O8 1.286 . S
C9 C11 1.363 . S
C10 C0 1.465 . S
C10 U6 2.847 . S
C10 O24 1.249 . S
C10 O25 1.202 . S
C11 C9 1.363 . S
C11 C13 1.408 . S
C11 C16 1.342 . S
C12 C13 1.310 . S
C12 C15 1.461 . S
C12 H32 0.932 . S
C13 C11 1.408 . S
C13 C12 1.310 . S
C13 H33 0.930 . S
C14 C15 1.474 . S
C14 C16 1.285 . S
C14 H34 0.929 . S
C15 C12 1.461 . S
C15 C14 1.474 . S
C16 C11 1.342 . S
C16 C14 1.285 . S
C16 H35 0.930 . S
C17 C20 1.424 . S
C17 C22 1.245 . S
C17 C23 1.428 . S
C18 C21 1.260 . S
C18 C22 1.477 . S
C18 H36 0.932 . S
C19 C20 1.384 . S
C19 C21 1.479 . S
C19 H37 0.929 . S
C20 C17 1.424 . S
C20 C19 1.384 . S
C20 H38 0.928 . S
C21 C18 1.260 . S
C21 C19 1.479 . S
C22 C17 1.245 . S
C22 C18 1.477 . S
C22 H39 0.932 . S
C23 U6 2.882 . S
C23 C17 1.428 . S
C23 O26 1.301 . S
C23 O27 1.282 . S
O24 U6 2.441 . S
O24 C10 1.249 . S
O25 U6 2.420 . S
O25 C10 1.202 . S
O26 U6 2.455 . S
O26 C23 1.301 . S
O27 U6 2.449 . S
O27 C23 1.282 . S
H28 C1 0.931 . S
H29 C3 0.929 . S
H30 C4 0.930 . S
H31 C5 0.931 . S
H32 C12 0.932 . S
H33 C13 0.930 . S
H34 C14 0.929 . S
H35 C16 0.930 . S
H36 C18 0.932 . S
H37 C19 0.929 . S
H38 C20 0.928 . S
H39 C22 0.932 . S
C40 C41 1.264 . S
C40 C45 1.479 . S
C40 C50 1.465 . S
C41 C40 1.264 . S
C41 C43 1.339 . S
C41 H68 0.931 . S
C42 C43 1.395 . S
C42 C44 1.320 . S
C43 C41 1.339 . S
C43 C42 1.395 . S
C43 H69 0.929 . S
C44 C42 1.320 . S
C44 C45 1.405 . S
C44 H70 0.930 . S
C45 C40 1.479 . S
C45 C44 1.405 . S
C45 H71 0.931 . S
U46 O47 2.454 . S
U46 O48 2.458 . S
U46 C49 2.984 . S
U46 C50 2.847 . S
U46 C63 2.882 . S
U46 O64 2.441 . S
U46 O65 2.420 . S
U46 O66 2.455 . S
U46 O67 2.449 . S
O47 U46 2.454 . S
O47 C49 1.353 . S
O48 U46 2.458 . S
O48 C49 1.286 . S
C49 U46 2.984 . S
C49 O47 1.353 . S
C49 O48 1.286 . S
C49 C51 1.363 . S
C50 C40 1.465 . S
C50 U46 2.847 . S
C50 O64 1.249 . S
C50 O65 1.202 . S
C51 C49 1.363 . S
C51 C53 1.408 . S
C51 C56 1.342 . S
C52 C53 1.310 . S
C52 C55 1.461 . S
C52 H72 0.932 . S
C53 C51 1.408 . S
C53 C52 1.310 . S
C53 H73 0.930 . S
C54 C55 1.474 . S
C54 C56 1.285 . S
C54 H74 0.929 . S
C55 C52 1.461 . S
C55 C54 1.474 . S
C56 C51 1.342 . S
C56 C54 1.285 . S
C56 H75 0.930 . S
C57 C60 1.424 . S
C57 C62 1.245 . S
C57 C63 1.428 . S
C58 C61 1.260 . S
C58 C62 1.477 . S
C58 H76 0.932 . S
C59 C60 1.384 . S
C59 C61 1.479 . S
C59 H77 0.929 . S
C60 C57 1.424 . S
C60 C59 1.384 . S
C60 H78 0.928 . S
C61 C58 1.260 . S
C61 C59 1.479 . S
C62 C57 1.245 . S
C62 C58 1.477 . S
C62 H79 0.932 . S
C63 U46 2.882 . S
C63 C57 1.428 . S
C63 O66 1.301 . S
C63 O67 1.282 . S
O64 U46 2.441 . S
O64 C50 1.249 . S
O65 U46 2.420 . S
O65 C50 1.202 . S
O66 U46 2.455 . S
O66 C63 1.301 . S
O67 U46 2.449 . S
O67 C63 1.282 . S
H68 C41 0.931 . S
H69 C43 0.929 . S
H70 C44 0.930 . S
H71 C45 0.931 . S
H72 C52 0.932 . S
H73 C53 0.930 . S
H74 C54 0.929 . S
H75 C56 0.930 . S
H76 C58 0.932 . S
H77 C59 0.929 . S
H78 C60 0.928 . S
H79 C62 0.932 . S
C80 C81 1.264 . S
C80 C85 1.479 . S
C80 C90 1.465 . S
C81 C80 1.264 . S
C81 C83 1.339 . S
C81 H108 0.931 . S
C82 C83 1.395 . S
C82 C84 1.320 . S
C83 C81 1.339 . S
C83 C82 1.395 . S
C83 H109 0.929 . S
C84 C82 1.320 . S
C84 C85 1.405 . S
C84 H110 0.930 . S
C85 C80 1.479 . S
C85 C84 1.405 . S
C85 H111 0.931 . S
U86 O87 2.454 . S
U86 O88 2.458 . S
U86 C89 2.984 . S
U86 C90 2.847 . S
U86 C103 2.882 . S
U86 O104 2.441 . S
U86 O105 2.420 . S
U86 O106 2.455 . S
U86 O107 2.449 . S
O87 U86 2.454 . S
O87 C89 1.353 . S
O88 U86 2.458 . S
O88 C89 1.286 . S
C89 U86 2.984 . S
C89 O87 1.353 . S
C89 O88 1.286 . S
C89 C91 1.363 . S
C90 C80 1.465 . S
C90 U86 2.847 . S
C90 O104 1.249 . S
C90 O105 1.202 . S
C91 C89 1.363 . S
C91 C93 1.408 . S
C91 C96 1.342 . S
C92 C93 1.310 . S
C92 C95 1.461 . S
C92 H112 0.932 . S
C93 C91 1.408 . S
C93 C92 1.310 . S
C93 H113 0.930 . S
C94 C95 1.474 . S
C94 C96 1.285 . S
C94 H114 0.929 . S
C95 C92 1.461 . S
C95 C94 1.474 . S
C96 C91 1.342 . S
C96 C94 1.285 . S
C96 H115 0.930 . S
C97 C100 1.424 . S
C97 C102 1.245 . S
C97 C103 1.428 . S
C98 C101 1.260 . S
C98 C102 1.477 . S
C98 H116 0.932 . S
C99 C100 1.384 . S
C99 C101 1.479 . S
C99 H117 0.929 . S
C100 C97 1.424 . S
C100 C99 1.384 . S
C100 H118 0.928 . S
C101 C98 1.260 . S
C101 C99 1.479 . S
C102 C97 1.245 . S
C102 C98 1.477 . S
C102 H119 0.932 . S
C103 U86 2.882 . S
C103 C97 1.428 . S
C103 O106 1.301 . S
C103 O107 1.282 . S
O104 U86 2.441 . S
O104 C90 1.249 . S
O105 U86 2.420 . S
O105 C90 1.202 . S
O106 U86 2.455 . S
O106 C103 1.301 . S
O107 U86 2.449 . S
O107 C103 1.282 . S
H108 C81 0.931 . S
H109 C83 0.929 . S
H110 C84 0.930 . S
H111 C85 0.931 . S
H112 C92 0.932 . S
H113 C93 0.930 . S
H114 C94 0.929 . S
H115 C96 0.930 . S
H116 C98 0.932 . S
H117 C99 0.929 . S
H118 C100 0.928 . S
H119 C102 0.932 . S
C120 C121 1.264 . S
C120 C125 1.479 . S
C120 C130 1.465 . S
C121 C120 1.264 . S
C121 C123 1.339 . S
C121 H148 0.931 . S
C122 C123 1.395 . S
C122 C124 1.320 . S
C123 C121 1.339 . S
C123 C122 1.395 . S
C123 H149 0.929 . S
C124 C122 1.320 . S
C124 C125 1.405 . S
C124 H150 0.930 . S
C125 C120 1.479 . S
C125 C124 1.405 . S
C125 H151 0.931 . S
U126 O127 2.454 . S
U126 O128 2.458 . S
U126 C129 2.984 . S
U126 C130 2.847 . S
U126 C143 2.882 . S
U126 O144 2.441 . S
U126 O145 2.420 . S
U126 O146 2.455 . S
U126 O147 2.449 . S
O127 U126 2.454 . S
O127 C129 1.353 . S
O128 U126 2.458 . S
O128 C129 1.286 . S
C129 U126 2.984 . S
C129 O127 1.353 . S
C129 O128 1.286 . S
C129 C131 1.363 . S
C130 C120 1.465 . S
C130 U126 2.847 . S
C130 O144 1.249 . S
C130 O145 1.202 . S
C131 C129 1.363 . S
C131 C133 1.408 . S
C131 C136 1.342 . S
C132 C133 1.310 . S
C132 C135 1.461 . S
C132 H152 0.932 . S
C133 C131 1.408 . S
C133 C132 1.310 . S
C133 H153 0.930 . S
C134 C135 1.474 . S
C134 C136 1.285 . S
C134 H154 0.929 . S
C135 C132 1.461 . S
C135 C134 1.474 . S
C136 C131 1.342 . S
C136 C134 1.285 . S
C136 H155 0.930 . S
C137 C140 1.424 . S
C137 C142 1.245 . S
C137 C143 1.428 . S
C138 C141 1.260 . S
C138 C142 1.477 . S
C138 H156 0.932 . S
C139 C140 1.384 . S
C139 C141 1.479 . S
C139 H157 0.929 . S
C140 C137 1.424 . S
C140 C139 1.384 . S
C140 H158 0.928 . S
C141 C138 1.260 . S
C141 C139 1.479 . S
C142 C137 1.245 . S
C142 C138 1.477 . S
C142 H159 0.932 . S
C143 U126 2.882 . S
C143 C137 1.428 . S
C143 O146 1.301 . S
C143 O147 1.282 . S
O144 U126 2.441 . S
O144 C130 1.249 . S
O145 U126 2.420 . S
O145 C130 1.202 . S
O146 U126 2.455 . S
O146 C143 1.301 . S
O147 U126 2.449 . S
O147 C143 1.282 . S
H148 C121 0.931 . S
H149 C123 0.929 . S
H150 C124 0.930 . S
H151 C125 0.931 . S
H152 C132 0.932 . S
H153 C133 0.930 . S
H154 C134 0.929 . S
H155 C136 0.930 . S
H156 C138 0.932 . S
H157 C139 0.929 . S
H158 C140 0.928 . S
H159 C142 0.932 . S
C160 C161 1.264 . S
C160 C165 1.479 . S
C160 C170 1.465 . S
C161 C160 1.264 . S
C161 C163 1.339 . S
C161 H188 0.931 . S
C162 C163 1.395 . S
C162 C164 1.320 . S
C163 C161 1.339 . S
C163 C162 1.395 . S
C163 H189 0.929 . S
C164 C162 1.320 . S
C164 C165 1.405 . S
C164 H190 0.930 . S
C165 C160 1.479 . S
C165 C164 1.405 . S
C165 H191 0.931 . S
U166 O167 2.454 . S
U166 O168 2.458 . S
U166 C169 2.984 . S
U166 C170 2.847 . S
U166 C183 2.882 . S
U166 O184 2.441 . S
U166 O185 2.420 . S
U166 O186 2.455 . S
U166 O187 2.449 . S
O167 U166 2.454 . S
O167 C169 1.353 . S
O168 U166 2.458 . S
O168 C169 1.286 . S
C169 U166 2.984 . S
C169 O167 1.353 . S
C169 O168 1.286 . S
C169 C171 1.363 . S
C170 C160 1.465 . S
C170 U166 2.847 . S
C170 O184 1.249 . S
C170 O185 1.202 . S
C171 C169 1.363 . S
C171 C173 1.408 . S
C171 C176 1.342 . S
C172 C173 1.310 . S
C172 C175 1.461 . S
C172 H192 0.932 . S
C173 C171 1.408 . S
C173 C172 1.310 . S
C173 H193 0.930 . S
C174 C175 1.474 . S
C174 C176 1.285 . S
C174 H194 0.929 . S
C175 C172 1.461 . S
C175 C174 1.474 . S
C176 C171 1.342 . S
C176 C174 1.285 . S
C176 H195 0.930 . S
C177 C180 1.424 . S
C177 C182 1.245 . S
C177 C183 1.428 . S
C178 C181 1.260 . S
C178 C182 1.477 . S
C178 H196 0.932 . S
C179 C180 1.384 . S
C179 C181 1.479 . S
C179 H197 0.929 . S
C180 C177 1.424 . S
C180 C179 1.384 . S
C180 H198 0.928 . S
C181 C178 1.260 . S
C181 C179 1.479 . S
C182 C177 1.245 . S
C182 C178 1.477 . S
C182 H199 0.932 . S
C183 U166 2.882 . S
C183 C177 1.428 . S
C183 O186 1.301 . S
C183 O187 1.282 . S
O184 U166 2.441 . S
O184 C170 1.249 . S
O185 U166 2.420 . S
O185 C170 1.202 . S
O186 U166 2.455 . S
O186 C183 1.301 . S
O187 U166 2.449 . S
O187 C183 1.282 . S
H188 C161 0.931 . S
H189 C163 0.929 . S
H190 C164 0.930 . S
H191 C165 0.931 . S
H192 C172 0.932 . S
H193 C173 0.930 . S
H194 C174 0.929 . S
H195 C176 0.930 . S
H196 C178 0.932 . S
H197 C179 0.929 . S
H198 C180 0.928 . S
H199 C182 0.932 . S
C200 C201 1.264 . S
C200 C205 1.479 . S
C200 C210 1.465 . S
C201 C200 1.264 . S
C201 C203 1.339 . S
C201 H228 0.931 . S
C202 C203 1.395 . S
C202 C204 1.320 . S
C203 C201 1.339 . S
C203 C202 1.395 . S
C203 H229 0.929 . S
C204 C202 1.320 . S
C204 C205 1.405 . S
C204 H230 0.930 . S
C205 C200 1.479 . S
C205 C204 1.405 . S
C205 H231 0.931 . S
U206 O207 2.454 . S
U206 O208 2.458 . S
U206 C209 2.984 . S
U206 C210 2.847 . S
U206 C223 2.882 . S
U206 O224 2.441 . S
U206 O225 2.420 . S
U206 O226 2.455 . S
U206 O227 2.449 . S
O207 U206 2.454 . S
O207 C209 1.353 . S
O208 U206 2.458 . S
O208 C209 1.286 . S
C209 U206 2.984 . S
C209 O207 1.353 . S
C209 O208 1.286 . S
C209 C211 1.363 . S
C210 C200 1.465 . S
C210 U206 2.847 . S
C210 O224 1.249 . S
C210 O225 1.202 . S
C211 C209 1.363 . S
C211 C213 1.408 . S
C211 C216 1.342 . S
C212 C213 1.310 . S
C212 C215 1.461 . S
C212 H232 0.932 . S
C213 C211 1.408 . S
C213 C212 1.310 . S
C213 H233 0.930 . S
C214 C215 1.474 . S
C214 C216 1.285 . S
C214 H234 0.929 . S
C215 C212 1.461 . S
C215 C214 1.474 . S
C216 C211 1.342 . S
C216 C214 1.285 . S
C216 H235 0.930 . S
C217 C220 1.424 . S
C217 C222 1.245 . S
C217 C223 1.428 . S
C218 C221 1.260 . S
C218 C222 1.477 . S
C218 H236 0.932 . S
C219 C220 1.384 . S
C219 C221 1.479 . S
C219 H237 0.929 . S
C220 C217 1.424 . S
C220 C219 1.384 . S
C220 H238 0.928 . S
C221 C218 1.260 . S
C221 C219 1.479 . S
C222 C217 1.245 . S
C222 C218 1.477 . S
C222 H239 0.932 . S
C223 U206 2.882 . S
C223 C217 1.428 . S
C223 O226 1.301 . S
C223 O227 1.282 . S
O224 U206 2.441 . S
O224 C210 1.249 . S
O225 U206 2.420 . S
O225 C210 1.202 . S
O226 U206 2.455 . S
O226 C223 1.301 . S
O227 U206 2.449 . S
O227 C223 1.282 . S
H228 C201 0.931 . S
H229 C203 0.929 . S
H230 C204 0.930 . S
H231 C205 0.931 . S
H232 C212 0.932 . S
H233 C213 0.930 . S
H234 C214 0.929 . S
H235 C216 0.930 . S
H236 C218 0.932 . S
H237 C219 0.929 . S
H238 C220 0.928 . S
H239 C222 0.932 . S
C240 C241 1.264 . S
C240 C245 1.479 . S
C240 C250 1.465 . S
C241 C240 1.264 . S
C241 C243 1.339 . S
C241 H268 0.931 . S
C242 C243 1.395 . S
C242 C244 1.320 . S
C243 C241 1.339 . S
C243 C242 1.395 . S
C243 H269 0.929 . S
C244 C242 1.320 . S
C244 C245 1.405 . S
C244 H270 0.930 . S
C245 C240 1.479 . S
C245 C244 1.405 . S
C245 H271 0.931 . S
U246 O247 2.454 . S
U246 O248 2.458 . S
U246 C249 2.984 . S
U246 C250 2.847 . S
U246 C263 2.882 . S
U246 O264 2.441 . S
U246 O265 2.420 . S
U246 O266 2.455 . S
U246 O267 2.449 . S
O247 U246 2.454 . S
O247 C249 1.353 . S
O248 U246 2.458 . S
O248 C249 1.286 . S
C249 U246 2.984 . S
C249 O247 1.353 . S
C249 O248 1.286 . S
C249 C251 1.363 . S
C250 C240 1.465 . S
C250 U246 2.847 . S
C250 O264 1.249 . S
C250 O265 1.202 . S
C251 C249 1.363 . S
C251 C253 1.408 . S
C251 C256 1.342 . S
C252 C253 1.310 . S
C252 C255 1.461 . S
C252 H272 0.932 . S
C253 C251 1.408 . S
C253 C252 1.310 . S
C253 H273 0.930 . S
C254 C255 1.474 . S
C254 C256 1.285 . S
C254 H274 0.929 . S
C255 C252 1.461 . S
C255 C254 1.474 . S
C256 C251 1.342 . S
C256 C254 1.285 . S
C256 H275 0.930 . S
C257 C260 1.424 . S
C257 C262 1.245 . S
C257 C263 1.428 . S
C258 C261 1.260 . S
C258 C262 1.477 . S
C258 H276 0.932 . S
C259 C260 1.384 . S
C259 C261 1.479 . S
C259 H277 0.929 . S
C260 C257 1.424 . S
C260 C259 1.384 . S
C260 H278 0.928 . S
C261 C258 1.260 . S
C261 C259 1.479 . S
C262 C257 1.245 . S
C262 C258 1.477 . S
C262 H279 0.932 . S
C263 U246 2.882 . S
C263 C257 1.428 . S
C263 O266 1.301 . S
C263 O267 1.282 . S
O264 U246 2.441 . S
O264 C250 1.249 . S
O265 U246 2.420 . S
O265 C250 1.202 . S
O266 U246 2.455 . S
O266 C263 1.301 . S
O267 U246 2.449 . S
O267 C263 1.282 . S
H268 C241 0.931 . S
H269 C243 0.929 . S
H270 C244 0.930 . S
H271 C245 0.931 . S
H272 C252 0.932 . S
H273 C253 0.930 . S
H274 C254 0.929 . S
H275 C256 0.930 . S
H276 C258 0.932 . S
H277 C259 0.929 . S
H278 C260 0.928 . S
H279 C262 0.932 . S
C280 C281 1.264 . S
C280 C285 1.479 . S
C280 C290 1.465 . S
C281 C280 1.264 . S
C281 C283 1.339 . S
C281 H308 0.931 . S
C282 C283 1.395 . S
C282 C284 1.320 . S
C283 C281 1.339 . S
C283 C282 1.395 . S
C283 H309 0.929 . S
C284 C282 1.320 . S
C284 C285 1.405 . S
C284 H310 0.930 . S
C285 C280 1.479 . S
C285 C284 1.405 . S
C285 H311 0.931 . S
U286 O287 2.454 . S
U286 O288 2.458 . S
U286 C289 2.984 . S
U286 C290 2.847 . S
U286 C303 2.882 . S
U286 O304 2.441 . S
U286 O305 2.420 . S
U286 O306 2.455 . S
U286 O307 2.449 . S
O287 U286 2.454 . S
O287 C289 1.353 . S
O288 U286 2.458 . S
O288 C289 1.286 . S
C289 U286 2.984 . S
C289 O287 1.353 . S
C289 O288 1.286 . S
C289 C291 1.363 . S
C290 C280 1.465 . S
C290 U286 2.847 . S
C290 O304 1.249 . S
C290 O305 1.202 . S
C291 C289 1.363 . S
C291 C293 1.408 . S
C291 C296 1.342 . S
C292 C293 1.310 . S
C292 C295 1.461 . S
C292 H312 0.932 . S
C293 C291 1.408 . S
C293 C292 1.310 . S
C293 H313 0.930 . S
C294 C295 1.474 . S
C294 C296 1.285 . S
C294 H314 0.929 . S
C295 C292 1.461 . S
C295 C294 1.474 . S
C296 C291 1.342 . S
C296 C294 1.285 . S
C296 H315 0.930 . S
C297 C300 1.424 . S
C297 C302 1.245 . S
C297 C303 1.428 . S
C298 C301 1.260 . S
C298 C302 1.477 . S
C298 H316 0.932 . S
C299 C300 1.384 . S
C299 C301 1.479 . S
C299 H317 0.929 . S
C300 C297 1.424 . S
C300 C299 1.384 . S
C300 H318 0.928 . S
C301 C298 1.260 . S
C301 C299 1.479 . S
C302 C297 1.245 . S
C302 C298 1.477 . S
C302 H319 0.932 . S
C303 U286 2.882 . S
C303 C297 1.428 . S
C303 O306 1.301 . S
C303 O307 1.282 . S
O304 U286 2.441 . S
O304 C290 1.249 . S
O305 U286 2.420 . S
O305 C290 1.202 . S
O306 U286 2.455 . S
O306 C303 1.301 . S
O307 U286 2.449 . S
O307 C303 1.282 . S
H308 C281 0.931 . S
H309 C283 0.929 . S
H310 C284 0.930 . S
H311 C285 0.931 . S
H312 C292 0.932 . S
H313 C293 0.930 . S
H314 C294 0.929 . S
H315 C296 0.930 . S
H316 C298 0.932 . S
H317 C299 0.929 . S
H318 C300 0.928 . S
H319 C302 0.932 . S
C320 C321 1.384 . S
C320 C322 1.384 . S
C320 H348 0.931 . S
C321 C320 1.384 . S
C321 C324 1.382 . S
C322 C320 1.384 . S
C322 C323 1.381 . S
C322 H349 0.930 . S
C323 C322 1.381 . S
C323 C325 1.381 . S
C323 C326 1.487 . S
C324 C321 1.382 . S
C324 C325 1.387 . S
C324 H350 0.930 . S
C325 C323 1.381 . S
C325 C324 1.387 . S
C325 H351 0.931 . S
C326 C323 1.487 . S
C326 C333 1.399 1_655 S
C326 N364 1.343 . S
C327 C328 1.384 . S
C327 C329 1.384 . S
C327 H352 0.931 . S
C328 C327 1.384 . S
C328 C331 1.382 . S
C329 C327 1.384 . S
C329 C330 1.381 . S
C329 H353 0.930 . S
C330 C329 1.381 . S
C330 C332 1.381 . S
C330 C333 1.487 . S
C331 C328 1.382 . S
C331 C332 1.387 . S
C331 H354 0.930 . S
C332 C330 1.381 . S
C332 C331 1.387 . S
C332 H355 0.931 . S
C333 C326 1.399 1_455 S
C333 C330 1.487 . S
C333 N365 1.343 . S
C334 C335 1.384 . S
C334 C336 1.384 . S
C334 H356 0.931 . S
C335 C334 1.384 . S
C335 C338 1.382 . S
C336 C334 1.384 . S
C336 C337 1.381 . S
C336 H357 0.930 . S
C337 C336 1.381 . S
C337 C339 1.381 . S
C337 C340 1.487 . S
C338 C335 1.382 . S
C338 C339 1.387 . S
C338 H358 0.930 . S
C339 C337 1.381 . S
C339 C338 1.387 . S
C339 H359 0.931 . S
C340 C337 1.487 . S
C340 C347 1.399 1_455 S
C340 N365 1.343 . S
C341 C342 1.384 . S
C341 C343 1.384 . S
C341 H360 0.931 . S
C342 C341 1.384 . S
C342 C345 1.382 . S
C343 C341 1.384 . S
C343 C344 1.381 . S
C343 H361 0.930 . S
C344 C343 1.381 . S
C344 C346 1.381 . S
C344 C347 1.487 . S
C345 C342 1.382 . S
C345 C346 1.387 . S
C345 H362 0.930 . S
C346 C344 1.381 . S
C346 C345 1.387 . S
C346 H363 0.931 . S
C347 C340 1.399 1_655 S
C347 C344 1.487 . S
C347 N364 1.343 . S
H348 C320 0.931 . S
H349 C322 0.930 . S
H350 C324 0.930 . S
H351 C325 0.931 . S
H352 C327 0.931 . S
H353 C329 0.930 . S
H354 C331 0.930 . S
H355 C332 0.931 . S
H356 C334 0.931 . S
H357 C336 0.930 . S
H358 C338 0.930 . S
H359 C339 0.931 . S
H360 C341 0.931 . S
H361 C343 0.930 . S
H362 C345 0.930 . S
H363 C346 0.931 . S
N364 C326 1.343 . S
N364 C347 1.343 . S
N365 C333 1.343 . S
N365 C340 1.343 . S
C366 C367 1.384 . S
C366 C368 1.384 . S
C366 H394 0.931 . S
C367 C366 1.384 . S
C367 C370 1.382 . S
C368 C366 1.384 . S
C368 C369 1.381 . S
C368 H395 0.930 . S
C369 C368 1.381 . S
C369 C371 1.381 . S
C369 C372 1.487 . S
C370 C367 1.382 . S
C370 C371 1.387 . S
C370 H396 0.930 . S
C371 C369 1.381 . S
C371 C370 1.387 . S
C371 H397 0.931 . S
C372 C369 1.487 . S
C372 C379 1.399 1_655 S
C372 N410 1.343 . S
C373 C374 1.384 . S
C373 C375 1.384 . S
C373 H398 0.931 . S
C374 C373 1.384 . S
C374 C377 1.382 . S
C375 C373 1.384 . S
C375 C376 1.381 . S
C375 H399 0.930 . S
C376 C375 1.381 . S
C376 C378 1.381 . S
C376 C379 1.487 . S
C377 C374 1.382 . S
C377 C378 1.387 . S
C377 H400 0.930 . S
C378 C376 1.381 . S
C378 C377 1.387 . S
C378 H401 0.931 . S
C379 C372 1.399 1_455 S
C379 C376 1.487 . S
C379 N411 1.343 . S
C380 C381 1.384 . S
C380 C382 1.384 . S
C380 H402 0.931 . S
C381 C380 1.384 . S
C381 C384 1.382 . S
C382 C380 1.384 . S
C382 C383 1.381 . S
C382 H403 0.930 . S
C383 C382 1.381 . S
C383 C385 1.381 . S
C383 C386 1.487 . S
C384 C381 1.382 . S
C384 C385 1.387 . S
C384 H404 0.930 . S
C385 C383 1.381 . S
C385 C384 1.387 . S
C385 H405 0.931 . S
C386 C383 1.487 . S
C386 C393 1.399 1_455 S
C386 N411 1.343 . S
C387 C388 1.384 . S
C387 C389 1.384 . S
C387 H406 0.931 . S
C388 C387 1.384 . S
C388 C391 1.382 . S
C389 C387 1.384 . S
C389 C390 1.381 . S
C389 H407 0.930 . S
C390 C389 1.381 . S
C390 C392 1.381 . S
C390 C393 1.487 . S
C391 C388 1.382 . S
C391 C392 1.387 . S
C391 H408 0.930 . S
C392 C390 1.381 . S
C392 C391 1.387 . S
C392 H409 0.931 . S
C393 C386 1.399 1_655 S
C393 C390 1.487 . S
C393 N410 1.343 . S
H394 C366 0.931 . S
H395 C368 0.930 . S
H396 C370 0.930 . S
H397 C371 0.931 . S
H398 C373 0.931 . S
H399 C375 0.930 . S
H400 C377 0.930 . S
H401 C378 0.931 . S
H402 C380 0.931 . S
H403 C382 0.930 . S
H404 C384 0.930 . S
H405 C385 0.931 . S
H406 C387 0.931 . S
H407 C389 0.930 . S
H408 C391 0.930 . S
H409 C392 0.931 . S
N410 C372 1.343 . S
N410 C393 1.343 . S
N411 C379 1.343 . S
N411 C386 1.343 . S
C412 C413 1.384 . S
C412 C414 1.384 . S
C412 H440 0.931 . S
C413 C412 1.384 . S
C413 C416 1.382 . S
C414 C412 1.384 . S
C414 C415 1.381 . S
C414 H441 0.930 . S
C415 C414 1.381 . S
C415 C417 1.381 . S
C415 C418 1.487 . S
C416 C413 1.382 . S
C416 C417 1.387 . S
C416 H442 0.930 . S
C417 C415 1.381 . S
C417 C416 1.387 . S
C417 H443 0.931 . S
C418 C415 1.487 . S
C418 C425 1.399 . S
C418 N456 1.343 . S
C419 C420 1.384 . S
C419 C421 1.384 . S
C419 H444 0.931 . S
C420 C419 1.384 . S
C420 C423 1.382 . S
C421 C419 1.384 . S
C421 C422 1.381 . S
C421 H445 0.930 . S
C422 C421 1.381 . S
C422 C424 1.381 . S
C422 C425 1.487 . S
C423 C420 1.382 . S
C423 C424 1.387 . S
C423 H446 0.930 . S
C424 C422 1.381 . S
C424 C423 1.387 . S
C424 H447 0.931 . S
C425 C418 1.399 . S
C425 C422 1.487 . S
C425 N457 1.343 . S
C426 C427 1.384 . S
C426 C428 1.384 . S
C426 H448 0.931 . S
C427 C426 1.384 . S
C427 C430 1.382 . S
C428 C426 1.384 . S
C428 C429 1.381 . S
C428 H449 0.930 . S
C429 C428 1.381 . S
C429 C431 1.381 . S
C429 C432 1.487 . S
C430 C427 1.382 . S
C430 C431 1.387 . S
C430 H450 0.930 . S
C431 C429 1.381 . S
C431 C430 1.387 . S
C431 H451 0.931 . S
C432 C429 1.487 . S
C432 C439 1.399 . S
C432 N457 1.343 1_565 S
C433 C434 1.384 . S
C433 C435 1.384 . S
C433 H452 0.931 . S
C434 C433 1.384 . S
C434 C437 1.382 . S
C435 C433 1.384 . S
C435 C436 1.381 . S
C435 H453 0.930 . S
C436 C435 1.381 . S
C436 C438 1.381 . S
C436 C439 1.487 . S
C437 C434 1.382 . S
C437 C438 1.387 . S
C437 H454 0.930 . S
C438 C436 1.381 . S
C438 C437 1.387 . S
C438 H455 0.931 . S
C439 C432 1.399 . S
C439 C436 1.487 . S
C439 N456 1.343 1_565 S
H440 C412 0.931 . S
H441 C414 0.930 . S
H442 C416 0.930 . S
H443 C417 0.931 . S
H444 C419 0.931 . S
H445 C421 0.930 . S
H446 C423 0.930 . S
H447 C424 0.931 . S
H448 C426 0.931 . S
H449 C428 0.930 . S
H450 C430 0.930 . S
H451 C431 0.931 . S
H452 C433 0.931 . S
H453 C435 0.930 . S
H454 C437 0.930 . S
H455 C438 0.931 . S
N456 C418 1.343 . S
N456 C439 1.343 1_545 S
N457 C425 1.343 . S
N457 C432 1.343 1_545 S
C458 C459 1.384 . S
C458 C460 1.384 . S
C458 H486 0.931 . S
C459 C458 1.384 . S
C459 C462 1.382 . S
C460 C458 1.384 . S
C460 C461 1.381 . S
C460 H487 0.930 . S
C461 C460 1.381 . S
C461 C463 1.381 . S
C461 C464 1.487 . S
C462 C459 1.382 . S
C462 C463 1.387 . S
C462 H488 0.930 . S
C463 C461 1.381 . S
C463 C462 1.387 . S
C463 H489 0.931 . S
C464 C461 1.487 . S
C464 C471 1.399 . S
C464 N502 1.343 1_556 S
C465 C466 1.384 . S
C465 C467 1.384 . S
C465 H490 0.931 . S
C466 C465 1.384 . S
C466 C469 1.382 . S
C467 C465 1.384 . S
C467 C468 1.381 . S
C467 H491 0.930 . S
C468 C467 1.381 . S
C468 C470 1.381 . S
C468 C471 1.487 . S
C469 C466 1.382 . S
C469 C470 1.387 . S
C469 H492 0.930 . S
C470 C468 1.381 . S
C470 C469 1.387 . S
C470 H493 0.931 . S
C471 C464 1.399 . S
C471 C468 1.487 . S
C471 N503 1.343 1_556 S
C472 C473 1.384 . S
C472 C474 1.384 . S
C472 H494 0.931 . S
C473 C472 1.384 . S
C473 C476 1.382 . S
C474 C472 1.384 . S
C474 C475 1.381 . S
C474 H495 0.930 . S
C475 C474 1.381 . S
C475 C477 1.381 . S
C475 C478 1.487 . S
C476 C473 1.382 . S
C476 C477 1.387 . S
C476 H496 0.930 . S
C477 C475 1.381 . S
C477 C476 1.387 . S
C477 H497 0.931 . S
C478 C475 1.487 . S
C478 C485 1.399 . S
C478 N503 1.343 . S
C479 C480 1.384 . S
C479 C481 1.384 . S
C479 H498 0.931 . S
C480 C479 1.384 . S
C480 C483 1.382 . S
C481 C479 1.384 . S
C481 C482 1.381 . S
C481 H499 0.930 . S
C482 C481 1.381 . S
C482 C484 1.381 . S
C482 C485 1.487 . S
C483 C480 1.382 . S
C483 C484 1.387 . S
C483 H500 0.930 . S
C484 C482 1.381 . S
C484 C483 1.387 . S
C484 H501 0.931 . S
C485 C478 1.399 . S
C485 C482 1.487 . S
C485 N502 1.343 . S
H486 C458 0.931 . S
H487 C460 0.930 . S
H488 C462 0.930 . S
H489 C463 0.931 . S
H490 C465 0.931 . S
H491 C467 0.930 . S
H492 C469 0.930 . S
H493 C470 0.931 . S
H494 C472 0.931 . S
H495 C474 0.930 . S
H496 C476 0.930 . S
H497 C477 0.931 . S
H498 C479 0.931 . S
H499 C481 0.930 . S
H500 C483 0.930 . S
H501 C484 0.931 . S
N502 C464 1.343 1_554 S
N502 C485 1.343 . S
N503 C471 1.343 1_554 S
N503 C478 1.343 . S
C504 C505 1.384 . S
C504 C506 1.384 . S
C504 H532 0.931 . S
C505 C504 1.384 . S
C505 C508 1.382 . S
C506 C504 1.384 . S
C506 C507 1.381 . S
C506 H533 0.930 . S
C507 C506 1.381 . S
C507 C509 1.381 . S
C507 C510 1.487 . S
C508 C505 1.382 . S
C508 C509 1.387 . S
C508 H534 0.930 . S
C509 C507 1.381 . S
C509 C508 1.387 . S
C509 H535 0.931 . S
C510 C507 1.487 . S
C510 C517 1.399 . S
C510 N548 1.343 . S
C511 C512 1.384 . S
C511 C513 1.384 . S
C511 H536 0.931 . S
C512 C511 1.384 . S
C512 C515 1.382 . S
C513 C511 1.384 . S
C513 C514 1.381 . S
C513 H537 0.930 . S
C514 C513 1.381 . S
C514 C516 1.381 . S
C514 C517 1.487 . S
C515 C512 1.382 . S
C515 C516 1.387 . S
C515 H538 0.930 . S
C516 C514 1.381 . S
C516 C515 1.387 . S
C516 H539 0.931 . S
C517 C510 1.399 . S
C517 C514 1.487 . S
C517 N549 1.398 . S
C518 C519 1.384 . S
C518 C520 1.384 . S
C518 H540 0.931 . S
C519 C518 1.384 . S
C519 C522 1.382 . S
C520 C518 1.384 . S
C520 C521 1.381 . S
C520 H541 0.930 . S
C521 C520 1.381 . S
C521 C523 1.381 . S
C521 C524 1.487 . S
C522 C519 1.382 . S
C522 C523 1.387 . S
C522 H542 0.930 . S
C523 C521 1.381 . S
C523 C522 1.387 . S
C523 H543 0.931 . S
C524 C521 1.487 . S
C524 C531 1.399 . S
C524 N549 1.289 1_565 S
C525 C526 1.384 . S
C525 C527 1.384 . S
C525 H544 0.931 . S
C526 C525 1.384 . S
C526 C529 1.382 . S
C527 C525 1.384 . S
C527 C528 1.381 . S
C527 H545 0.930 . S
C528 C527 1.381 . S
C528 C530 1.381 . S
C528 C531 1.487 . S
C529 C526 1.382 . S
C529 C530 1.387 . S
C529 H546 0.930 . S
C530 C528 1.381 . S
C530 C529 1.387 . S
C530 H547 0.931 . S
C531 C524 1.399 . S
C531 C528 1.487 . S
C531 N548 1.343 1_565 S
H532 C504 0.931 . S
H533 C506 0.930 . S
H534 C508 0.930 . S
H535 C509 0.931 . S
H536 C511 0.931 . S
H537 C513 0.930 . S
H538 C515 0.930 . S
H539 C516 0.931 . S
H540 C518 0.931 . S
H541 C520 0.930 . S
H542 C522 0.930 . S
H543 C523 0.931 . S
H544 C525 0.931 . S
H545 C527 0.930 . S
H546 C529 0.930 . S
H547 C530 0.931 . S
N548 C510 1.343 . S
N548 C531 1.343 1_545 S
N549 C517 1.398 . S
N549 C524 1.289 1_545 S
C550 C551 1.384 . S
C550 C552 1.384 . S
C550 H578 0.931 . S
C551 C550 1.384 . S
C551 C554 1.382 . S
C552 C550 1.384 . S
C552 C553 1.381 . S
C552 H579 0.930 . S
C553 C552 1.381 . S
C553 C555 1.381 . S
C553 C556 1.487 . S
C554 C551 1.382 . S
C554 C555 1.387 . S
C554 H580 0.930 . S
C555 C553 1.381 . S
C555 C554 1.387 . S
C555 H581 0.931 . S
C556 C553 1.487 . S
C556 C563 1.399 . S
C556 N594 1.343 1_556 S
C557 C558 1.384 . S
C557 C559 1.384 . S
C557 H582 0.931 . S
C558 C557 1.384 . S
C558 C561 1.382 . S
C559 C557 1.384 . S
C559 C560 1.381 . S
C559 H583 0.930 . S
C560 C559 1.381 . S
C560 C562 1.381 . S
C560 C563 1.487 . S
C561 C558 1.382 . S
C561 C562 1.387 . S
C561 H584 0.930 . S
C562 C560 1.381 . S
C562 C561 1.387 . S
C562 H585 0.931 . S
C563 C556 1.399 . S
C563 C560 1.487 . S
C563 N595 1.343 1_556 S
C564 C565 1.384 . S
C564 C566 1.384 . S
C564 H586 0.931 . S
C565 C564 1.384 . S
C565 C568 1.382 . S
C566 C564 1.384 . S
C566 C567 1.381 . S
C566 H587 0.930 . S
C567 C566 1.381 . S
C567 C569 1.381 . S
C567 C570 1.487 . S
C568 C565 1.382 . S
C568 C569 1.387 . S
C568 H588 0.930 . S
C569 C567 1.381 . S
C569 C568 1.387 . S
C569 H589 0.931 . S
C570 C567 1.487 . S
C570 C577 1.399 . S
C570 N595 1.343 . S
C571 C572 1.384 . S
C571 C573 1.384 . S
C571 H590 0.931 . S
C572 C571 1.384 . S
C572 C575 1.382 . S
C573 C571 1.384 . S
C573 C574 1.381 . S
C573 H591 0.930 . S
C574 C573 1.381 . S
C574 C576 1.381 . S
C574 C577 1.487 . S
C575 C572 1.382 . S
C575 C576 1.387 . S
C575 H592 0.930 . S
C576 C574 1.381 . S
C576 C575 1.387 . S
C576 H593 0.931 . S
C577 C570 1.399 . S
C577 C574 1.487 . S
C577 N594 1.343 . S
H578 C550 0.931 . S
H579 C552 0.930 . S
H580 C554 0.930 . S
H581 C555 0.931 . S
H582 C557 0.931 . S
H583 C559 0.930 . S
H584 C561 0.930 . S
H585 C562 0.931 . S
H586 C564 0.931 . S
H587 C566 0.930 . S
H588 C568 0.930 . S
H589 C569 0.931 . S
H590 C571 0.931 . S
H591 C573 0.930 . S
H592 C575 0.930 . S
H593 C576 0.931 . S
N594 C556 1.343 1_554 S
N594 C577 1.343 . S
N595 C563 1.343 1_554 S
N595 C570 1.343 . S
H596 C608 0.930 . S
H597 C610 0.930 . S
H598 C611 0.930 . S
H599 C615 0.959 . S
H600 C615 0.959 . S
H601 C615 0.961 . S
H602 C616 0.960 . S
H603 C616 0.961 . S
H604 C616 0.959 . S
H605 C619 0.929 . S
H606 C620 0.931 . S
H607 C622 0.930 . S
C608 H596 0.930 . S
C608 C609 1.399 . S
C608 C613 1.399 . S
C609 C608 1.399 . S
C609 C610 1.376 . S
C610 H597 0.930 . S
C610 C609 1.376 . S
C610 C611 1.388 . S
C611 H598 0.930 . S
C611 C610 1.388 . S
C611 C612 1.390 . S
C612 C611 1.390 . S
C612 C613 1.394 . S
C612 C618 1.465 . S
C613 C608 1.399 . S
C613 C612 1.394 . S
C613 C614 1.516 . S
C614 C613 1.516 . S
C614 C615 1.502 . S
C614 C616 1.561 . S
C614 C617 1.526 . S
C615 H599 0.959 . S
C615 H600 0.959 . S
C615 H601 0.961 . S
C615 C614 1.502 . S
C616 H602 0.960 . S
C616 H603 0.961 . S
C616 H604 0.959 . S
C616 C614 1.561 . S
C617 C614 1.526 . S
C617 C618 1.396 . S
C617 C622 1.390 . S
C618 C612 1.465 . S
C618 C617 1.396 . S
C618 C619 1.399 . S
C619 H605 0.929 . S
C619 C618 1.399 . S
C619 C620 1.385 . S
C620 H606 0.931 . S
C620 C619 1.385 . S
C620 C621 1.389 . S
C621 C620 1.389 . S
C621 C622 1.387 . S
C622 H607 0.930 . S
C622 C617 1.390 . S
C622 C621 1.387 . S
H623 C635 0.930 . S
H624 C637 0.930 . S
H625 C638 0.930 . S
H626 C642 0.959 . S
H627 C642 0.959 . S
H628 C642 0.961 . S
H629 C643 0.960 . S
H630 C643 0.961 . S
H631 C643 0.959 . S
H632 C646 0.929 . S
H633 C647 0.931 . S
H634 C649 0.930 . S
C635 H623 0.930 . S
C635 C636 1.399 . S
C635 C640 1.399 . S
C636 C635 1.399 . S
C636 C637 1.376 . S
C637 H624 0.930 . S
C637 C636 1.376 . S
C637 C638 1.388 . S
C638 H625 0.930 . S
C638 C637 1.388 . S
C638 C639 1.390 . S
C639 C638 1.390 . S
C639 C640 1.394 . S
C639 C645 1.465 . S
C640 C635 1.399 . S
C640 C639 1.394 . S
C640 C641 1.516 . S
C641 C640 1.516 . S
C641 C642 1.502 . S
C641 C643 1.561 . S
C641 C644 1.526 . S
C642 H626 0.959 . S
C642 H627 0.959 . S
C642 H628 0.961 . S
C642 C641 1.502 . S
C643 H629 0.960 . S
C643 H630 0.961 . S
C643 H631 0.959 . S
C643 C641 1.561 . S
C644 C641 1.526 . S
C644 C645 1.396 . S
C644 C649 1.390 . S
C645 C639 1.465 . S
C645 C644 1.396 . S
C645 C646 1.399 . S
C646 H632 0.929 . S
C646 C645 1.399 . S
C646 C647 1.385 . S
C647 H633 0.931 . S
C647 C646 1.385 . S
C647 C648 1.389 . S
C648 C647 1.389 . S
C648 C649 1.387 . S
C649 H634 0.930 . S
C649 C644 1.390 . S
C649 C648 1.387 . S
H650 C662 0.930 . S
H651 C664 0.930 . S
H652 C665 0.930 . S
H653 C669 0.959 . S
H654 C669 0.959 . S
H655 C669 0.961 . S
H656 C670 0.960 . S
H657 C670 0.961 . S
H658 C670 0.959 . S
H659 C673 0.929 . S
H660 C674 0.931 . S
H661 C676 0.930 . S
C662 H650 0.930 . S
C662 C663 1.399 . S
C662 C667 1.399 . S
C663 C662 1.399 . S
C663 C664 1.376 . S
C664 H651 0.930 . S
C664 C663 1.376 . S
C664 C665 1.388 . S
C665 H652 0.930 . S
C665 C664 1.388 . S
C665 C666 1.390 . S
C666 C665 1.390 . S
C666 C667 1.394 . S
C666 C672 1.465 . S
C667 C662 1.399 . S
C667 C666 1.394 . S
C667 C668 1.516 . S
C668 C667 1.516 . S
C668 C669 1.502 . S
C668 C670 1.561 . S
C668 C671 1.526 . S
C669 H653 0.959 . S
C669 H654 0.959 . S
C669 H655 0.961 . S
C669 C668 1.502 . S
C670 H656 0.960 . S
C670 H657 0.961 . S
C670 H658 0.959 . S
C670 C668 1.561 . S
C671 C668 1.526 . S
C671 C672 1.396 . S
C671 C676 1.390 . S
C672 C666 1.465 . S
C672 C671 1.396 . S
C672 C673 1.399 . S
C673 H659 0.929 . S
C673 C672 1.399 . S
C673 C674 1.385 . S
C674 H660 0.931 . S
C674 C673 1.385 . S
C674 C675 1.389 . S
C675 C674 1.389 . S
C675 C676 1.387 . S
C676 H661 0.930 . S
C676 C671 1.390 . S
C676 C675 1.387 . S
H677 C689 0.930 . S
H678 C691 0.930 . S
H679 C692 0.930 . S
H680 C696 0.959 . S
H681 C696 0.959 . S
H682 C696 0.961 . S
H683 C697 0.960 . S
H684 C697 0.961 . S
H685 C697 0.959 . S
H686 C700 0.929 . S
H687 C701 0.931 . S
H688 C703 0.930 . S
C689 H677 0.930 . S
C689 C690 1.399 . S
C689 C694 1.399 . S
C690 C689 1.399 . S
C690 C691 1.376 . S
C691 H678 0.930 . S
C691 C690 1.376 . S
C691 C692 1.388 . S
C692 H679 0.930 . S
C692 C691 1.388 . S
C692 C693 1.390 . S
C693 C692 1.390 . S
C693 C694 1.394 . S
C693 C699 1.465 . S
C694 C689 1.399 . S
C694 C693 1.394 . S
C694 C695 1.516 . S
C695 C694 1.516 . S
C695 C696 1.502 . S
C695 C697 1.561 . S
C695 C698 1.526 . S
C696 H680 0.959 . S
C696 H681 0.959 . S
C696 H682 0.961 . S
C696 C695 1.502 . S
C697 H683 0.960 . S
C697 H684 0.961 . S
C697 H685 0.959 . S
C697 C695 1.561 . S
C698 C695 1.526 . S
C698 C699 1.396 . S
C698 C703 1.390 . S
C699 C693 1.465 . S
C699 C698 1.396 . S
C699 C700 1.399 . S
C700 H686 0.929 . S
C700 C699 1.399 . S
C700 C701 1.385 . S
C701 H687 0.931 . S
C701 C700 1.385 . S
C701 C702 1.389 . S
C702 C701 1.389 . S
C702 C703 1.387 . S
C703 H688 0.930 . S
C703 C698 1.390 . S
C703 C702 1.387 . S
H704 C716 0.930 . S
H705 C718 0.930 . S
H706 C719 0.930 . S
H707 C723 0.959 . S
H708 C723 0.959 . S
H709 C723 0.961 . S
H710 C724 0.960 . S
H711 C724 0.961 . S
H712 C724 0.959 . S
H713 C727 0.929 . S
H714 C728 0.931 . S
H715 C730 0.930 . S
C716 H704 0.930 . S
C716 C717 1.399 . S
C716 C721 1.399 . S
C717 C716 1.399 . S
C717 C718 1.376 . S
C718 H705 0.930 . S
C718 C717 1.376 . S
C718 C719 1.388 . S
C719 H706 0.930 . S
C719 C718 1.388 . S
C719 C720 1.390 . S
C720 C719 1.390 . S
C720 C721 1.394 . S
C720 C726 1.465 . S
C721 C716 1.399 . S
C721 C720 1.394 . S
C721 C722 1.516 . S
C722 C721 1.516 . S
C722 C723 1.502 . S
C722 C724 1.561 . S
C722 C725 1.526 . S
C723 H707 0.959 . S
C723 H708 0.959 . S
C723 H709 0.961 . S
C723 C722 1.502 . S
C724 H710 0.960 . S
C724 H711 0.961 . S
C724 H712 0.959 . S
C724 C722 1.561 . S
C725 C722 1.526 . S
C725 C726 1.396 . S
C725 C730 1.390 . S
C726 C720 1.465 . S
C726 C725 1.396 . S
C726 C727 1.399 . S
C727 H713 0.929 . S
C727 C726 1.399 . S
C727 C728 1.385 . S
C728 H714 0.931 . S
C728 C727 1.385 . S
C728 C729 1.389 . S
C729 C728 1.389 . S
C729 C730 1.387 . S
C730 H715 0.930 . S
C730 C725 1.390 . S
C730 C729 1.387 . S
H731 C743 0.930 . S
H732 C745 0.930 . S
H733 C746 0.930 . S
H734 C750 0.959 . S
H735 C750 0.959 . S
H736 C750 0.961 . S
H737 C751 0.960 . S
H738 C751 0.961 . S
H739 C751 0.959 . S
H740 C754 0.929 . S
H741 C755 0.931 . S
H742 C757 0.930 . S
C743 H731 0.930 . S
C743 C744 1.399 . S
C743 C748 1.399 . S
C744 C743 1.399 . S
C744 C745 1.376 . S
C745 H732 0.930 . S
C745 C744 1.376 . S
C745 C746 1.388 . S
C746 H733 0.930 . S
C746 C745 1.388 . S
C746 C747 1.390 . S
C747 C746 1.390 . S
C747 C748 1.394 . S
C747 C753 1.465 . S
C748 C743 1.399 . S
C748 C747 1.394 . S
C748 C749 1.516 . S
C749 C748 1.516 . S
C749 C750 1.502 . S
C749 C751 1.561 . S
C749 C752 1.526 . S
C750 H734 0.959 . S
C750 H735 0.959 . S
C750 H736 0.961 . S
C750 C749 1.502 . S
C751 H737 0.960 . S
C751 H738 0.961 . S
C751 H739 0.959 . S
C751 C749 1.561 . S
C752 C749 1.526 . S
C752 C753 1.396 . S
C752 C757 1.390 . S
C753 C747 1.465 . S
C753 C752 1.396 . S
C753 C754 1.399 . S
C754 H740 0.929 . S
C754 C753 1.399 . S
C754 C755 1.385 . S
C755 H741 0.931 . S
C755 C754 1.385 . S
C755 C756 1.389 . S
C756 C755 1.389 . S
C756 C757 1.387 . S
C757 H742 0.930 . S
C757 C752 1.390 . S
C757 C756 1.387 . S
H758 C770 0.930 . S
H759 C772 0.930 . S
H760 C773 0.930 . S
H761 C777 0.959 . S
H762 C777 0.959 . S
H763 C777 0.961 . S
H764 C778 0.960 . S
H765 C778 0.961 . S
H766 C778 0.959 . S
H767 C781 0.929 . S
H768 C782 0.931 . S
H769 C784 0.930 . S
C770 H758 0.930 . S
C770 C771 1.399 . S
C770 C775 1.399 . S
C771 C770 1.399 . S
C771 C772 1.376 . S
C772 H759 0.930 . S
C772 C771 1.376 . S
C772 C773 1.388 . S
C773 H760 0.930 . S
C773 C772 1.388 . S
C773 C774 1.390 . S
C774 C773 1.390 . S
C774 C775 1.394 . S
C774 C780 1.465 . S
C775 C770 1.399 . S
C775 C774 1.394 . S
C775 C776 1.516 . S
C776 C775 1.516 . S
C776 C777 1.502 . S
C776 C778 1.561 . S
C776 C779 1.526 . S
C777 H761 0.959 . S
C777 H762 0.959 . S
C777 H763 0.961 . S
C777 C776 1.502 . S
C778 H764 0.960 . S
C778 H765 0.961 . S
C778 H766 0.959 . S
C778 C776 1.561 . S
C779 C776 1.526 . S
C779 C780 1.396 . S
C779 C784 1.390 . S
C780 C774 1.465 . S
C780 C779 1.396 . S
C780 C781 1.399 . S
C781 H767 0.929 . S
C781 C780 1.399 . S
C781 C782 1.385 . S
C782 H768 0.931 . S
C782 C781 1.385 . S
C782 C783 1.389 . S
C783 C782 1.389 . S
C783 C784 1.387 . S
C784 H769 0.930 . S
C784 C779 1.390 . S
C784 C783 1.387 . S
H785 C797 0.930 . S
H786 C799 0.930 . S
H787 C800 0.930 . S
H788 C804 0.959 . S
H789 C804 0.959 . S
H790 C804 0.961 . S
H791 C805 0.960 . S
H792 C805 0.961 . S
H793 C805 0.959 . S
H794 C808 0.929 . S
H795 C809 0.931 . S
H796 C811 0.930 . S
C797 H785 0.930 . S
C797 C798 1.399 . S
C797 C802 1.399 . S
C798 C797 1.399 . S
C798 C799 1.376 . S
C799 H786 0.930 . S
C799 C798 1.376 . S
C799 C800 1.388 . S
C800 H787 0.930 . S
C800 C799 1.388 . S
C800 C801 1.390 . S
C801 C800 1.390 . S
C801 C802 1.394 . S
C801 C807 1.465 . S
C802 C797 1.399 . S
C802 C801 1.394 . S
C802 C803 1.516 . S
C803 C802 1.516 . S
C803 C804 1.502 . S
C803 C805 1.561 . S
C803 C806 1.526 . S
C804 H788 0.959 . S
C804 H789 0.959 . S
C804 H790 0.961 . S
C804 C803 1.502 . S
C805 H791 0.960 . S
C805 H792 0.961 . S
C805 H793 0.959 . S
C805 C803 1.561 . S
C806 C803 1.526 . S
C806 C807 1.396 . S
C806 C811 1.390 . S
C807 C801 1.465 . S
C807 C806 1.396 . S
C807 C808 1.399 . S
C808 H794 0.929 . S
C808 C807 1.399 . S
C808 C809 1.385 . S
C809 H795 0.931 . S
C809 C808 1.385 . S
C809 C810 1.389 . S
C810 C809 1.389 . S
C810 C811 1.387 . S
C811 H796 0.930 . S
C811 C806 1.390 . S
C811 C810 1.387 . S
H812 C824 0.930 . S
H813 C826 0.930 . S
H814 C827 0.930 . S
H815 C831 0.959 . S
H816 C831 0.959 . S
H817 C831 0.961 . S
H818 C832 0.960 . S
H819 C832 0.961 . S
H820 C832 0.959 . S
H821 C835 0.929 . S
H822 C836 0.931 . S
H823 C838 0.930 . S
C824 H812 0.930 . S
C824 C825 1.399 . S
C824 C829 1.399 . S
C825 C824 1.399 . S
C825 C826 1.376 . S
C826 H813 0.930 . S
C826 C825 1.376 . S
C826 C827 1.388 . S
C827 H814 0.930 . S
C827 C826 1.388 . S
C827 C828 1.390 . S
C828 C827 1.390 . S
C828 C829 1.394 . S
C828 C834 1.465 . S
C829 C824 1.399 . S
C829 C828 1.394 . S
C829 C830 1.516 . S
C830 C829 1.516 . S
C830 C831 1.502 . S
C830 C832 1.561 . S
C830 C833 1.526 . S
C831 H815 0.959 . S
C831 H816 0.959 . S
C831 H817 0.961 . S
C831 C830 1.502 . S
C832 H818 0.960 . S
C832 H819 0.961 . S
C832 H820 0.959 . S
C832 C830 1.561 . S
C833 C830 1.526 . S
C833 C834 1.396 . S
C833 C838 1.390 . S
C834 C828 1.465 . S
C834 C833 1.396 . S
C834 C835 1.399 . S
C835 H821 0.929 . S
C835 C834 1.399 . S
C835 C836 1.385 . S
C836 H822 0.931 . S
C836 C835 1.385 . S
C836 C837 1.389 . S
C837 C836 1.389 . S
C837 C838 1.387 . S
C838 H823 0.930 . S
C838 C833 1.390 . S
C838 C837 1.387 . S
H839 C851 0.930 . S
H840 C853 0.930 . S
H841 C854 0.930 . S
H842 C858 0.959 . S
H843 C858 0.959 . S
H844 C858 0.961 . S
H845 C859 0.960 . S
H846 C859 0.961 . S
H847 C859 0.959 . S
H848 C862 0.929 . S
H849 C863 0.931 . S
H850 C865 0.930 . S
C851 H839 0.930 . S
C851 C852 1.399 . S
C851 C856 1.399 . S
C852 C851 1.399 . S
C852 C853 1.376 . S
C853 H840 0.930 . S
C853 C852 1.376 . S
C853 C854 1.388 . S
C854 H841 0.930 . S
C854 C853 1.388 . S
C854 C855 1.390 . S
C855 C854 1.390 . S
C855 C856 1.394 . S
C855 C861 1.465 . S
C856 C851 1.399 . S
C856 C855 1.394 . S
C856 C857 1.516 . S
C857 C856 1.516 . S
C857 C858 1.502 . S
C857 C859 1.561 . S
C857 C860 1.526 . S
C858 H842 0.959 . S
C858 H843 0.959 . S
C858 H844 0.961 . S
C858 C857 1.502 . S
C859 H845 0.960 . S
C859 H846 0.961 . S
C859 H847 0.959 . S
C859 C857 1.561 . S
C860 C857 1.526 . S
C860 C861 1.396 . S
C860 C865 1.390 . S
C861 C855 1.465 . S
C861 C860 1.396 . S
C861 C862 1.399 . S
C862 H848 0.929 . S
C862 C861 1.399 . S
C862 C863 1.385 . S
C863 H849 0.931 . S
C863 C862 1.385 . S
C863 C864 1.389 . S
C864 C863 1.389 . S
C864 C865 1.387 . S
C865 H850 0.930 . S
C865 C860 1.390 . S
C865 C864 1.387 . S
H866 C878 0.930 . S
H867 C880 0.930 . S
H868 C881 0.930 . S
H869 C885 0.959 . S
H870 C885 0.959 . S
H871 C885 0.961 . S
H872 C886 0.960 . S
H873 C886 0.961 . S
H874 C886 0.959 . S
H875 C889 0.929 . S
H876 C890 0.931 . S
H877 C892 0.930 . S
C878 H866 0.930 . S
C878 C879 1.399 . S
C878 C883 1.399 . S
C879 C878 1.399 . S
C879 C880 1.376 . S
C880 H867 0.930 . S
C880 C879 1.376 . S
C880 C881 1.388 . S
C881 H868 0.930 . S
C881 C880 1.388 . S
C881 C882 1.390 . S
C882 C881 1.390 . S
C882 C883 1.394 . S
C882 C888 1.465 . S
C883 C878 1.399 . S
C883 C882 1.394 . S
C883 C884 1.516 . S
C884 C883 1.516 . S
C884 C885 1.502 . S
C884 C886 1.561 . S
C884 C887 1.526 . S
C885 H869 0.959 . S
C885 H870 0.959 . S
C885 H871 0.961 . S
C885 C884 1.502 . S
C886 H872 0.960 . S
C886 H873 0.961 . S
C886 H874 0.959 . S
C886 C884 1.561 . S
C887 C884 1.526 . S
C887 C888 1.396 . S
C887 C892 1.390 . S
C888 C882 1.465 . S
C888 C887 1.396 . S
C888 C889 1.399 . S
C889 H875 0.929 . S
C889 C888 1.399 . S
C889 C890 1.385 . S
C890 H876 0.931 . S
C890 C889 1.385 . S
C890 C891 1.389 . S
C891 C890 1.389 . S
C891 C892 1.387 . S
C892 H877 0.930 . S
C892 C887 1.390 . S
C892 C891 1.387 . S
H893 C905 0.930 . S
H894 C907 0.930 . S
H895 C908 0.930 . S
H896 C912 0.959 . S
H897 C912 0.959 . S
H898 C912 0.961 . S
H899 C913 0.960 . S
H900 C913 0.961 . S
H901 C913 0.959 . S
H902 C916 0.929 . S
H903 C917 0.931 . S
H904 C919 0.930 . S
C905 H893 0.930 . S
C905 C906 1.399 . S
C905 C910 1.399 . S
C906 C905 1.399 . S
C906 C907 1.376 . S
C907 H894 0.930 . S
C907 C906 1.376 . S
C907 C908 1.388 . S
C908 H895 0.930 . S
C908 C907 1.388 . S
C908 C909 1.390 . S
C909 C908 1.390 . S
C909 C910 1.394 . S
C909 C915 1.465 . S
C910 C905 1.399 . S
C910 C909 1.394 . S
C910 C911 1.516 . S
C911 C910 1.516 . S
C911 C912 1.502 . S
C911 C913 1.561 . S
C911 C914 1.526 . S
C912 H896 0.959 . S
C912 H897 0.959 . S
C912 H898 0.961 . S
C912 C911 1.502 . S
C913 H899 0.960 . S
C913 H900 0.961 . S
C913 H901 0.959 . S
C913 C911 1.561 . S
C914 C911 1.526 . S
C914 C915 1.396 . S
C914 C919 1.390 . S
C915 C909 1.465 . S
C915 C914 1.396 . S
C915 C916 1.399 . S
C916 H902 0.929 . S
C916 C915 1.399 . S
C916 C917 1.385 . S
C917 H903 0.931 . S
C917 C916 1.385 . S
C917 C918 1.389 . S
C918 C917 1.389 . S
C918 C919 1.387 . S
C919 H904 0.930 . S
C919 C914 1.390 . S
C919 C918 1.387 . S
H920 C932 0.930 . S
H921 C934 0.930 . S
H922 C935 0.930 . S
H923 C939 0.959 . S
H924 C939 0.959 . S
H925 C939 0.961 . S
H926 C940 0.960 . S
H927 C940 0.961 . S
H928 C940 0.959 . S
H929 C943 0.929 . S
H930 C944 0.931 . S
H931 C946 0.930 . S
C932 H920 0.930 . S
C932 C933 1.399 . S
C932 C937 1.399 . S
C933 C932 1.399 . S
C933 C934 1.376 . S
C934 H921 0.930 . S
C934 C933 1.376 . S
C934 C935 1.388 . S
C935 H922 0.930 . S
C935 C934 1.388 . S
C935 C936 1.390 . S
C936 C935 1.390 . S
C936 C937 1.394 . S
C936 C942 1.465 . S
C937 C932 1.399 . S
C937 C936 1.394 . S
C937 C938 1.516 . S
C938 C937 1.516 . S
C938 C939 1.502 . S
C938 C940 1.561 . S
C938 C941 1.526 . S
C939 H923 0.959 . S
C939 H924 0.959 . S
C939 H925 0.961 . S
C939 C938 1.502 . S
C940 H926 0.960 . S
C940 H927 0.961 . S
C940 H928 0.959 . S
C940 C938 1.561 . S
C941 C938 1.526 . S
C941 C942 1.396 . S
C941 C946 1.390 . S
C942 C936 1.465 . S
C942 C941 1.396 . S
C942 C943 1.399 . S
C943 H929 0.929 . S
C943 C942 1.399 . S
C943 C944 1.385 . S
C944 H930 0.931 . S
C944 C943 1.385 . S
C944 C945 1.389 . S
C945 C944 1.389 . S
C945 C946 1.387 . S
C946 H931 0.930 . S
C946 C941 1.390 . S
C946 C945 1.387 . S
H947 C959 0.930 . S
H948 C961 0.930 . S
H949 C962 0.930 . S
H950 C966 0.959 . S
H951 C966 0.959 . S
H952 C966 0.961 . S
H953 C967 0.960 . S
H954 C967 0.961 . S
H955 C967 0.959 . S
H956 C970 0.929 . S
H957 C971 0.931 . S
H958 C973 0.930 . S
C959 H947 0.930 . S
C959 C960 1.399 . S
C959 C964 1.399 . S
C960 C959 1.399 . S
C960 C961 1.376 . S
C961 H948 0.930 . S
C961 C960 1.376 . S
C961 C962 1.388 . S
C962 H949 0.930 . S
C962 C961 1.388 . S
C962 C963 1.390 . S
C963 C962 1.390 . S
C963 C964 1.394 . S
C963 C969 1.465 . S
C964 C959 1.399 . S
C964 C963 1.394 . S
C964 C965 1.516 . S
C965 C964 1.516 . S
C965 C966 1.502 . S
C965 C967 1.561 . S
C965 C968 1.526 . S
C966 H950 0.959 . S
C966 H951 0.959 . S
C966 H952 0.961 . S
C966 C965 1.502 . S
C967 H953 0.960 . S
C967 H954 0.961 . S
C967 H955 0.959 . S
C967 C965 1.561 . S
C968 C965 1.526 . S
C968 C969 1.396 . S
C968 C973 1.390 . S
C969 C963 1.465 . S
C969 C968 1.396 . S
C969 C970 1.399 . S
C970 H956 0.929 . S
C970 C969 1.399 . S
C970 C971 1.385 . S
C971 H957 0.931 . S
C971 C970 1.385 . S
C971 C972 1.389 . S
C972 C971 1.389 . S
C972 C973 1.387 . S
C973 H958 0.930 . S
C973 C968 1.390 . S
C973 C972 1.387 . S
H974 C986 0.930 . S
H975 C988 0.930 . S
H976 C989 0.930 . S
H977 C993 0.959 . S
H978 C993 0.959 . S
H979 C993 0.961 . S
H980 C994 0.960 . S
H981 C994 0.961 . S
H982 C994 0.959 . S
H983 C997 0.929 . S
H984 C998 0.931 . S
H985 C1000 0.930 . S
C986 H974 0.930 . S
C986 C987 1.399 . S
C986 C991 1.399 . S
C987 C986 1.399 . S
C987 C988 1.376 . S
C988 H975 0.930 . S
C988 C987 1.376 . S
C988 C989 1.388 . S
C989 H976 0.930 . S
C989 C988 1.388 . S
C989 C990 1.390 . S
C990 C989 1.390 . S
C990 C991 1.394 . S
C990 C996 1.465 . S
C991 C986 1.399 . S
C991 C990 1.394 . S
C991 C992 1.516 . S
C992 C991 1.516 . S
C992 C993 1.502 . S
C992 C994 1.561 . S
C992 C995 1.526 . S
C993 H977 0.959 . S
C993 H978 0.959 . S
C993 H979 0.961 . S
C993 C992 1.502 . S
C994 H980 0.960 . S
C994 H981 0.961 . S
C994 H982 0.959 . S
C994 C992 1.561 . S
C995 C992 1.526 . S
C995 C996 1.396 . S
C995 C1000 1.390 . S
C996 C990 1.465 . S
C996 C995 1.396 . S
C996 C997 1.399 . S
C997 H983 0.929 . S
C997 C996 1.399 . S
C997 C998 1.385 . S
C998 H984 0.931 . S
C998 C997 1.385 . S
C998 C999 1.389 . S
C999 C998 1.389 . S
C999 C1000 1.387 . S
C1000 H985 0.930 . S
C1000 C995 1.390 . S
C1000 C999 1.387 . S
H1001 C1013 0.930 . S
H1002 C1015 0.930 . S
H1003 C1016 0.930 . S
H1004 C1020 0.959 . S
H1005 C1020 0.959 . S
H1006 C1020 0.961 . S
H1007 C1021 0.960 . S
H1008 C1021 0.961 . S
H1009 C1021 0.959 . S
H1010 C1024 0.929 . S
H1011 C1025 0.931 . S
H1012 C1027 0.930 . S
C1013 H1001 0.930 . S
C1013 C1014 1.399 . S
C1013 C1018 1.399 . S
C1014 C1013 1.399 . S
C1014 C1015 1.376 . S
C1015 H1002 0.930 . S
C1015 C1014 1.376 . S
C1015 C1016 1.388 . S
C1016 H1003 0.930 . S
C1016 C1015 1.388 . S
C1016 C1017 1.390 . S
C1017 C1016 1.390 . S
C1017 C1018 1.394 . S
C1017 C1023 1.465 . S
C1018 C1013 1.399 . S
C1018 C1017 1.394 . S
C1018 C1019 1.516 . S
C1019 C1018 1.516 . S
C1019 C1020 1.502 . S
C1019 C1021 1.561 . S
C1019 C1022 1.526 . S
C1020 H1004 0.959 . S
C1020 H1005 0.959 . S
C1020 H1006 0.961 . S
C1020 C1019 1.502 . S
C1021 H1007 0.960 . S
C1021 H1008 0.961 . S
C1021 H1009 0.959 . S
C1021 C1019 1.561 . S
C1022 C1019 1.526 . S
C1022 C1023 1.396 . S
C1022 C1027 1.390 . S
C1023 C1017 1.465 . S
C1023 C1022 1.396 . S
C1023 C1024 1.399 . S
C1024 H1010 0.929 . S
C1024 C1023 1.399 . S
C1024 C1025 1.385 . S
C1025 H1011 0.931 . S
C1025 C1024 1.385 . S
C1025 C1026 1.389 . S
C1026 C1025 1.389 . S
C1026 C1027 1.387 . S
C1027 H1012 0.930 . S
C1027 C1022 1.390 . S
C1027 C1026 1.387 . S
H1028 C1040 0.930 . S
H1029 C1042 0.930 . S
H1030 C1043 0.930 . S
H1031 C1047 0.959 . S
H1032 C1047 0.959 . S
H1033 C1047 0.961 . S
H1034 C1048 0.960 . S
H1035 C1048 0.961 . S
H1036 C1048 0.959 . S
H1037 C1051 0.929 . S
H1038 C1052 0.931 . S
H1039 C1054 0.930 . S
C1040 H1028 0.930 . S
C1040 C1041 1.399 . S
C1040 C1045 1.399 . S
C1041 C1040 1.399 . S
C1041 C1042 1.376 . S
C1042 H1029 0.930 . S
C1042 C1041 1.376 . S
C1042 C1043 1.388 . S
C1043 H1030 0.930 . S
C1043 C1042 1.388 . S
C1043 C1044 1.390 . S
C1044 C1043 1.390 . S
C1044 C1045 1.394 . S
C1044 C1050 1.465 . S
C1045 C1040 1.399 . S
C1045 C1044 1.394 . S
C1045 C1046 1.516 . S
C1046 C1045 1.516 . S
C1046 C1047 1.502 . S
C1046 C1048 1.561 . S
C1046 C1049 1.526 . S
C1047 H1031 0.959 . S
C1047 H1032 0.959 . S
C1047 H1033 0.961 . S
C1047 C1046 1.502 . S
C1048 H1034 0.960 . S
C1048 H1035 0.961 . S
C1048 H1036 0.959 . S
C1048 C1046 1.561 . S
C1049 C1046 1.526 . S
C1049 C1050 1.396 . S
C1049 C1054 1.390 . S
C1050 C1044 1.465 . S
C1050 C1049 1.396 . S
C1050 C1051 1.399 . S
C1051 H1037 0.929 . S
C1051 C1050 1.399 . S
C1051 C1052 1.385 . S
C1052 H1038 0.931 . S
C1052 C1051 1.385 . S
C1052 C1053 1.389 . S
C1053 C1052 1.389 . S
C1053 C1054 1.387 . S
C1054 H1039 0.930 . S
C1054 C1049 1.390 . S
C1054 C1053 1.387 . S
H1055 C1067 0.930 . S
H1056 C1069 0.930 . S
H1057 C1070 0.930 . S
H1058 C1074 0.959 . S
H1059 C1074 0.959 . S
H1060 C1074 0.961 . S
H1061 C1075 0.960 . S
H1062 C1075 0.961 . S
H1063 C1075 0.959 . S
H1064 C1078 0.929 . S
H1065 C1079 0.931 . S
H1066 C1081 0.930 . S
C1067 H1055 0.930 . S
C1067 C1068 1.399 . S
C1067 C1072 1.399 . S
C1068 C1067 1.399 . S
C1068 C1069 1.376 . S
C1069 H1056 0.930 . S
C1069 C1068 1.376 . S
C1069 C1070 1.388 . S
C1070 H1057 0.930 . S
C1070 C1069 1.388 . S
C1070 C1071 1.390 . S
C1071 C1070 1.390 . S
C1071 C1072 1.394 . S
C1071 C1077 1.465 . S
C1072 C1067 1.399 . S
C1072 C1071 1.394 . S
C1072 C1073 1.516 . S
C1073 C1072 1.516 . S
C1073 C1074 1.502 . S
C1073 C1075 1.561 . S
C1073 C1076 1.526 . S
C1074 H1058 0.959 . S
C1074 H1059 0.959 . S
C1074 H1060 0.961 . S
C1074 C1073 1.502 . S
C1075 H1061 0.960 . S
C1075 H1062 0.961 . S
C1075 H1063 0.959 . S
C1075 C1073 1.561 . S
C1076 C1073 1.526 . S
C1076 C1077 1.396 . S
C1076 C1081 1.390 . S
C1077 C1071 1.465 . S
C1077 C1076 1.396 . S
C1077 C1078 1.399 . S
C1078 H1064 0.929 . S
C1078 C1077 1.399 . S
C1078 C1079 1.385 . S
C1079 H1065 0.931 . S
C1079 C1078 1.385 . S
C1079 C1080 1.389 . S
C1080 C1079 1.389 . S
C1080 C1081 1.387 . S
C1081 H1066 0.930 . S
C1081 C1076 1.390 . S
C1081 C1080 1.387 . S
H1082 C1094 0.930 . S
H1083 C1096 0.930 . S
H1084 C1097 0.930 . S
H1085 C1101 0.959 . S
H1086 C1101 0.959 . S
H1087 C1101 0.961 . S
H1088 C1102 0.960 . S
H1089 C1102 0.961 . S
H1090 C1102 0.959 . S
H1091 C1105 0.929 . S
H1092 C1106 0.931 . S
H1093 C1108 0.930 . S
C1094 H1082 0.930 . S
C1094 C1095 1.399 . S
C1094 C1099 1.399 . S
C1095 C1094 1.399 . S
C1095 C1096 1.376 . S
C1096 H1083 0.930 . S
C1096 C1095 1.376 . S
C1096 C1097 1.388 . S
C1097 H1084 0.930 . S
C1097 C1096 1.388 . S
C1097 C1098 1.390 . S
C1098 C1097 1.390 . S
C1098 C1099 1.394 . S
C1098 C1104 1.465 . S
C1099 C1094 1.399 . S
C1099 C1098 1.394 . S
C1099 C1100 1.516 . S
C1100 C1099 1.516 . S
C1100 C1101 1.502 . S
C1100 C1102 1.561 . S
C1100 C1103 1.526 . S
C1101 H1085 0.959 . S
C1101 H1086 0.959 . S
C1101 H1087 0.961 . S
C1101 C1100 1.502 . S
C1102 H1088 0.960 . S
C1102 H1089 0.961 . S
C1102 H1090 0.959 . S
C1102 C1100 1.561 . S
C1103 C1100 1.526 . S
C1103 C1104 1.396 . S
C1103 C1108 1.390 . S
C1104 C1098 1.465 . S
C1104 C1103 1.396 . S
C1104 C1105 1.399 . S
C1105 H1091 0.929 . S
C1105 C1104 1.399 . S
C1105 C1106 1.385 . S
C1106 H1092 0.931 . S
C1106 C1105 1.385 . S
C1106 C1107 1.389 . S
C1107 C1106 1.389 . S
C1107 C1108 1.387 . S
C1108 H1093 0.930 . S
C1108 C1103 1.390 . S
C1108 C1107 1.387 . S
H1109 C1121 0.930 . S
H1110 C1123 0.930 . S
H1111 C1124 0.930 . S
H1112 C1128 0.959 . S
H1113 C1128 0.959 . S
H1114 C1128 0.961 . S
H1115 C1129 0.960 . S
H1116 C1129 0.961 . S
H1117 C1129 0.959 . S
H1118 C1132 0.929 . S
H1119 C1133 0.931 . S
H1120 C1135 0.930 . S
C1121 H1109 0.930 . S
C1121 C1122 1.399 . S
C1121 C1126 1.399 . S
C1122 C1121 1.399 . S
C1122 C1123 1.376 . S
C1123 H1110 0.930 . S
C1123 C1122 1.376 . S
C1123 C1124 1.388 . S
C1124 H1111 0.930 . S
C1124 C1123 1.388 . S
C1124 C1125 1.390 . S
C1125 C1124 1.390 . S
C1125 C1126 1.394 . S
C1125 C1131 1.465 . S
C1126 C1121 1.399 . S
C1126 C1125 1.394 . S
C1126 C1127 1.516 . S
C1127 C1126 1.516 . S
C1127 C1128 1.502 . S
C1127 C1129 1.561 . S
C1127 C1130 1.526 . S
C1128 H1112 0.959 . S
C1128 H1113 0.959 . S
C1128 H1114 0.961 . S
C1128 C1127 1.502 . S
C1129 H1115 0.960 . S
C1129 H1116 0.961 . S
C1129 H1117 0.959 . S
C1129 C1127 1.561 . S
C1130 C1127 1.526 . S
C1130 C1131 1.396 . S
C1130 C1135 1.390 . S
C1131 C1125 1.465 . S
C1131 C1130 1.396 . S
C1131 C1132 1.399 . S
C1132 H1118 0.929 . S
C1132 C1131 1.399 . S
C1132 C1133 1.385 . S
C1133 H1119 0.931 . S
C1133 C1132 1.385 . S
C1133 C1134 1.389 . S
C1134 C1133 1.389 . S
C1134 C1135 1.387 . S
C1135 H1120 0.930 . S
C1135 C1130 1.390 . S
C1135 C1134 1.387 . S
H1136 C1148 0.930 . S
H1137 C1150 0.930 . S
H1138 C1151 0.930 . S
H1139 C1155 0.959 . S
H1140 C1155 0.959 . S
H1141 C1155 0.961 . S
H1142 C1156 0.960 . S
H1143 C1156 0.961 . S
H1144 C1156 0.959 . S
H1145 C1159 0.929 . S
H1146 C1160 0.931 . S
H1147 C1162 0.930 . S
C1148 H1136 0.930 . S
C1148 C1149 1.399 . S
C1148 C1153 1.399 . S
C1149 C1148 1.399 . S
C1149 C1150 1.376 . S
C1150 H1137 0.930 . S
C1150 C1149 1.376 . S
C1150 C1151 1.388 . S
C1151 H1138 0.930 . S
C1151 C1150 1.388 . S
C1151 C1152 1.390 . S
C1152 C1151 1.390 . S
C1152 C1153 1.394 . S
C1152 C1158 1.465 . S
C1153 C1148 1.399 . S
C1153 C1152 1.394 . S
C1153 C1154 1.516 . S
C1154 C1153 1.516 . S
C1154 C1155 1.502 . S
C1154 C1156 1.561 . S
C1154 C1157 1.526 . S
C1155 H1139 0.959 . S
C1155 H1140 0.959 . S
C1155 H1141 0.961 . S
C1155 C1154 1.502 . S
C1156 H1142 0.960 . S
C1156 H1143 0.961 . S
C1156 H1144 0.959 . S
C1156 C1154 1.561 . S
C1157 C1154 1.526 . S
C1157 C1158 1.396 . S
C1157 C1162 1.390 . S
C1158 C1152 1.465 . S
C1158 C1157 1.396 . S
C1158 C1159 1.399 . S
C1159 H1145 0.929 . S
C1159 C1158 1.399 . S
C1159 C1160 1.385 . S
C1160 H1146 0.931 . S
C1160 C1159 1.385 . S
C1160 C1161 1.389 . S
C1161 C1160 1.389 . S
C1161 C1162 1.387 . S
C1162 H1147 0.930 . S
C1162 C1157 1.390 . S
C1162 C1161 1.387 . S
H1163 C1175 0.930 . S
H1164 C1177 0.930 . S
H1165 C1178 0.930 . S
H1166 C1182 0.959 . S
H1167 C1182 0.959 . S
H1168 C1182 0.961 . S
H1169 C1183 0.960 . S
H1170 C1183 0.961 . S
H1171 C1183 0.959 . S
H1172 C1186 0.929 . S
H1173 C1187 0.931 . S
H1174 C1189 0.930 . S
C1175 H1163 0.930 . S
C1175 C1176 1.399 . S
C1175 C1180 1.399 . S
C1176 C1175 1.399 . S
C1176 C1177 1.376 . S
C1177 H1164 0.930 . S
C1177 C1176 1.376 . S
C1177 C1178 1.388 . S
C1178 H1165 0.930 . S
C1178 C1177 1.388 . S
C1178 C1179 1.390 . S
C1179 C1178 1.390 . S
C1179 C1180 1.394 . S
C1179 C1185 1.465 . S
C1180 C1175 1.399 . S
C1180 C1179 1.394 . S
C1180 C1181 1.516 . S
C1181 C1180 1.516 . S
C1181 C1182 1.502 . S
C1181 C1183 1.561 . S
C1181 C1184 1.526 . S
C1182 H1166 0.959 . S
C1182 H1167 0.959 . S
C1182 H1168 0.961 . S
C1182 C1181 1.502 . S
C1183 H1169 0.960 . S
C1183 H1170 0.961 . S
C1183 H1171 0.959 . S
C1183 C1181 1.561 . S
C1184 C1181 1.526 . S
C1184 C1185 1.396 . S
C1184 C1189 1.390 . S
C1185 C1179 1.465 . S
C1185 C1184 1.396 . S
C1185 C1186 1.399 . S
C1186 H1172 0.929 . S
C1186 C1185 1.399 . S
C1186 C1187 1.385 . S
C1187 H1173 0.931 . S
C1187 C1186 1.385 . S
C1187 C1188 1.389 . S
C1188 C1187 1.389 . S
C1188 C1189 1.387 . S
C1189 H1174 0.930 . S
C1189 C1184 1.390 . S
C1189 C1188 1.387 . S
H1190 C1202 0.930 . S
H1191 C1204 0.930 . S
H1192 C1205 0.930 . S
H1193 C1209 0.959 . S
H1194 C1209 0.959 . S
H1195 C1209 0.961 . S
H1196 C1210 0.960 . S
H1197 C1210 0.961 . S
H1198 C1210 0.959 . S
H1199 C1213 0.929 . S
H1200 C1214 0.931 . S
H1201 C1216 0.930 . S
C1202 H1190 0.930 . S
C1202 C1203 1.399 . S
C1202 C1207 1.399 . S
C1203 C1202 1.399 . S
C1203 C1204 1.376 . S
C1204 H1191 0.930 . S
C1204 C1203 1.376 . S
C1204 C1205 1.388 . S
C1205 H1192 0.930 . S
C1205 C1204 1.388 . S
C1205 C1206 1.390 . S
C1206 C1205 1.390 . S
C1206 C1207 1.394 . S
C1206 C1212 1.465 . S
C1207 C1202 1.399 . S
C1207 C1206 1.394 . S
C1207 C1208 1.516 . S
C1208 C1207 1.516 . S
C1208 C1209 1.502 . S
C1208 C1210 1.561 . S
C1208 C1211 1.526 . S
C1209 H1193 0.959 . S
C1209 H1194 0.959 . S
C1209 H1195 0.961 . S
C1209 C1208 1.502 . S
C1210 H1196 0.960 . S
C1210 H1197 0.961 . S
C1210 H1198 0.959 . S
C1210 C1208 1.561 . S
C1211 C1208 1.526 . S
C1211 C1212 1.396 . S
C1211 C1216 1.390 . S
C1212 C1206 1.465 . S
C1212 C1211 1.396 . S
C1212 C1213 1.399 . S
C1213 H1199 0.929 . S
C1213 C1212 1.399 . S
C1213 C1214 1.385 . S
C1214 H1200 0.931 . S
C1214 C1213 1.385 . S
C1214 C1215 1.389 . S
C1215 C1214 1.389 . S
C1215 C1216 1.387 . S
C1216 H1201 0.930 . S
C1216 C1211 1.390 . S
C1216 C1215 1.387 . S
H1217 C1229 0.930 . S
H1218 C1231 0.930 . S
H1219 C1232 0.930 . S
H1220 C1236 0.959 . S
H1221 C1236 0.959 . S
H1222 C1236 0.961 . S
H1223 C1237 0.960 . S
H1224 C1237 0.961 . S
H1225 C1237 0.959 . S
H1226 C1240 0.929 . S
H1227 C1241 0.931 . S
H1228 C1243 0.930 . S
C1229 H1217 0.930 . S
C1229 C1230 1.399 . S
C1229 C1234 1.399 . S
C1230 C1229 1.399 . S
C1230 C1231 1.376 . S
C1231 H1218 0.930 . S
C1231 C1230 1.376 . S
C1231 C1232 1.388 . S
C1232 H1219 0.930 . S
C1232 C1231 1.388 . S
C1232 C1233 1.390 . S
C1233 C1232 1.390 . S
C1233 C1234 1.394 . S
C1233 C1239 1.465 . S
C1234 C1229 1.399 . S
C1234 C1233 1.394 . S
C1234 C1235 1.516 . S
C1235 C1234 1.516 . S
C1235 C1236 1.502 . S
C1235 C1237 1.561 . S
C1235 C1238 1.526 . S
C1236 H1220 0.959 . S
C1236 H1221 0.959 . S
C1236 H1222 0.961 . S
C1236 C1235 1.502 . S
C1237 H1223 0.960 . S
C1237 H1224 0.961 . S
C1237 H1225 0.959 . S
C1237 C1235 1.561 . S
C1238 C1235 1.526 . S
C1238 C1239 1.396 . S
C1238 C1243 1.390 . S
C1239 C1233 1.465 . S
C1239 C1238 1.396 . S
C1239 C1240 1.399 . S
C1240 H1226 0.929 . S
C1240 C1239 1.399 . S
C1240 C1241 1.385 . S
C1241 H1227 0.931 . S
C1241 C1240 1.385 . S
C1241 C1242 1.389 . S
C1242 C1241 1.389 . S
C1242 C1243 1.387 . S
C1243 H1228 0.930 . S
C1243 C1238 1.390 . S
C1243 C1242 1.387 . S
C621 C328 1.517 . S
C609 C15 1.542 . S
C648 C381 1.539 . S
C636 C55 1.559 . S
C675 C342 1.580 . S
C663 C101 1.553 . S
C702 C367 1.568 . S
C690 C141 1.598 . S
C729 C413 1.517 . S
C717 C2 1.483 . S
C756 C459 1.517 . S
C744 C61 1.473 . S
C771 C95 1.601 . S
C783 C526 1.623 . S
C810 C558 1.517 . S
C798 C135 1.511 . S
C837 C427 1.498 . S
C825 C42 1.510 . S
C852 C82 1.496 . S
C864 C473 1.537 . S
C891 C512 1.613 . S
C879 C122 1.619 . S
C918 C572 1.527 . S
C906 C21 1.495 . S
C933 C162 1.592 . S
C945 C388 1.564 . S
C972 C321 1.562 . S
C960 C221 1.578 . S
C987 C255 1.549 . S
C999 C374 1.559 . S
C1014 C282 1.522 . S
C1026 C335 1.544 . S
C1053 C519 1.603 . S
C1041 C181 1.633 . S
C1080 C565 1.509 . S
C1068 C202 1.519 . S
C1107 C420 1.521 . S
C1095 C242 1.520 . S
C1122 C301 1.482 . S
C1134 C480 1.533 . S
C1161 C505 1.607 . S
C1149 C215 1.623 . S
C1188 C551 1.526 . S
C1176 C261 1.525 . S
C1215 C434 1.512 . S
C1203 C295 1.506 . S
C1230 C175 1.512 . S
C1242 C466 1.520 . S
