# Generated by pormake.
# Topology ptr, (4,4)-cn, num edge types: 1
# Building blocks:
#     Node 0, Type 0, BuildingBlock: AZAVOO_clean_sbu_0, # of connection points: 4
#     Node 1, Type 0, BuildingBlock: AZAVOO_clean_sbu_0, # of connection points: 4
#     Node 2, Type 0, BuildingBlock: AZAVOO_clean_sbu_0, # of connection points: 4
#     Node 3, Type 0, BuildingBlock: AZAVOO_clean_sbu_0, # of connection points: 4
#     Node 4, Type 0, BuildingBlock: AZAVOO_clean_sbu_0, # of connection points: 4
#     Node 5, Type 0, BuildingBlock: AZAVOO_clean_sbu_0, # of connection points: 4
#     Node 6, Type 0, BuildingBlock: AZAVOO_clean_sbu_0, # of connection points: 4
#     Node 7, Type 0, BuildingBlock: AZAVOO_clean_sbu_0, # of connection points: 4
#     Node 8, Type 0, BuildingBlock: AZAVOO_clean_sbu_0, # of connection points: 4
#     Node 9, Type 0, BuildingBlock: AZAVOO_clean_sbu_0, # of connection points: 4
#     Node 10, Type 0, BuildingBlock: AZAVOO_clean_sbu_0, # of connection points: 4
#     Node 11, Type 0, BuildingBlock: AZAVOO_clean_sbu_0, # of connection points: 4
#     Node 12, Type 0, BuildingBlock: AZAVOO_clean_sbu_0, # of connection points: 4
#     Node 13, Type 0, BuildingBlock: AZAVOO_clean_sbu_0, # of connection points: 4
#     Node 14, Type 0, BuildingBlock: AZAVOO_clean_sbu_0, # of connection points: 4
#     Node 15, Type 0, BuildingBlock: AZAVOO_clean_sbu_0, # of connection points: 4
#     Node 16, Type 0, BuildingBlock: AZAVOO_clean_sbu_0, # of connection points: 4
#     Node 17, Type 0, BuildingBlock: AZAVOO_clean_sbu_0, # of connection points: 4
#     Node 18, Type 1, BuildingBlock: MIFKUJ_clean_linker_1, # of connection points: 4
#     Node 19, Type 1, BuildingBlock: MIFKUJ_clean_linker_1, # of connection points: 4
#     Node 20, Type 1, BuildingBlock: MIFKUJ_clean_linker_1, # of connection points: 4
#     Node 21, Type 1, BuildingBlock: MIFKUJ_clean_linker_1, # of connection points: 4
#     Node 22, Type 1, BuildingBlock: MIFKUJ_clean_linker_1, # of connection points: 4
#     Node 23, Type 1, BuildingBlock: MIFKUJ_clean_linker_1, # of connection points: 4
#     Node 24, Type 1, BuildingBlock: MIFKUJ_clean_linker_1, # of connection points: 4
#     Node 25, Type 1, BuildingBlock: MIFKUJ_clean_linker_1, # of connection points: 4
#     Node 26, Type 1, BuildingBlock: MIFKUJ_clean_linker_1, # of connection points: 4
#     Node 27, Type 1, BuildingBlock: MIFKUJ_clean_linker_1, # of connection points: 4
#     Node 28, Type 1, BuildingBlock: MIFKUJ_clean_linker_1, # of connection points: 4
#     Node 29, Type 1, BuildingBlock: MIFKUJ_clean_linker_1, # of connection points: 4
#     Node 30, Type 1, BuildingBlock: MIFKUJ_clean_linker_1, # of connection points: 4
#     Node 31, Type 1, BuildingBlock: MIFKUJ_clean_linker_1, # of connection points: 4
#     Node 32, Type 1, BuildingBlock: MIFKUJ_clean_linker_1, # of connection points: 4
#     Node 33, Type 1, BuildingBlock: MIFKUJ_clean_linker_1, # of connection points: 4
#     Node 34, Type 1, BuildingBlock: MIFKUJ_clean_linker_1, # of connection points: 4
#     Node 35, Type 1, BuildingBlock: MIFKUJ_clean_linker_1, # of connection points: 4
#     Edge 36, Type (0, 1), BuildingBlock: EZIPEK_clean_linker_0, # of connection points: 2
#     Edge 37, Type (0, 1), BuildingBlock: EZIPEK_clean_linker_0, # of connection points: 2
#     Edge 38, Type (0, 1), BuildingBlock: EZIPEK_clean_linker_0, # of connection points: 2
#     Edge 39, Type (0, 1), BuildingBlock: EZIPEK_clean_linker_0, # of connection points: 2
#     Edge 40, Type (0, 1), BuildingBlock: EZIPEK_clean_linker_0, # of connection points: 2
#     Edge 41, Type (0, 1), BuildingBlock: EZIPEK_clean_linker_0, # of connection points: 2
#     Edge 42, Type (0, 1), BuildingBlock: EZIPEK_clean_linker_0, # of connection points: 2
#     Edge 43, Type (0, 1), BuildingBlock: EZIPEK_clean_linker_0, # of connection points: 2
#     Edge 44, Type (0, 1), BuildingBlock: EZIPEK_clean_linker_0, # of connection points: 2
#     Edge 45, Type (0, 1), BuildingBlock: EZIPEK_clean_linker_0, # of connection points: 2
#     Edge 46, Type (0, 1), BuildingBlock: EZIPEK_clean_linker_0, # of connection points: 2
#     Edge 47, Type (0, 1), BuildingBlock: EZIPEK_clean_linker_0, # of connection points: 2
#     Edge 48, Type (0, 1), BuildingBlock: EZIPEK_clean_linker_0, # of connection points: 2
#     Edge 49, Type (0, 1), BuildingBlock: EZIPEK_clean_linker_0, # of connection points: 2
#     Edge 50, Type (0, 1), BuildingBlock: EZIPEK_clean_linker_0, # of connection points: 2
#     Edge 51, Type (0, 1), BuildingBlock: EZIPEK_clean_linker_0, # of connection points: 2
#     Edge 52, Type (0, 1), BuildingBlock: EZIPEK_clean_linker_0, # of connection points: 2
#     Edge 53, Type (0, 1), BuildingBlock: EZIPEK_clean_linker_0, # of connection points: 2
#     Edge 54, Type (0, 1), BuildingBlock: EZIPEK_clean_linker_0, # of connection points: 2
#     Edge 55, Type (0, 1), BuildingBlock: EZIPEK_clean_linker_0, # of connection points: 2
#     Edge 56, Type (0, 1), BuildingBlock: EZIPEK_clean_linker_0, # of connection points: 2
#     Edge 57, Type (0, 1), BuildingBlock: EZIPEK_clean_linker_0, # of connection points: 2
#     Edge 58, Type (0, 1), BuildingBlock: EZIPEK_clean_linker_0, # of connection points: 2
#     Edge 59, Type (0, 1), BuildingBlock: EZIPEK_clean_linker_0, # of connection points: 2
#     Edge 60, Type (0, 1), BuildingBlock: EZIPEK_clean_linker_0, # of connection points: 2
#     Edge 61, Type (0, 1), BuildingBlock: EZIPEK_clean_linker_0, # of connection points: 2
#     Edge 62, Type (0, 1), BuildingBlock: EZIPEK_clean_linker_0, # of connection points: 2
#     Edge 63, Type (0, 1), BuildingBlock: EZIPEK_clean_linker_0, # of connection points: 2
#     Edge 64, Type (0, 1), BuildingBlock: EZIPEK_clean_linker_0, # of connection points: 2
#     Edge 65, Type (0, 1), BuildingBlock: EZIPEK_clean_linker_0, # of connection points: 2
#     Edge 66, Type (0, 1), BuildingBlock: EZIPEK_clean_linker_0, # of connection points: 2
#     Edge 67, Type (0, 1), BuildingBlock: EZIPEK_clean_linker_0, # of connection points: 2
#     Edge 68, Type (0, 1), BuildingBlock: EZIPEK_clean_linker_0, # of connection points: 2
#     Edge 69, Type (0, 1), BuildingBlock: EZIPEK_clean_linker_0, # of connection points: 2
#     Edge 70, Type (0, 1), BuildingBlock: EZIPEK_clean_linker_0, # of connection points: 2
#     Edge 71, Type (0, 1), BuildingBlock: EZIPEK_clean_linker_0, # of connection points: 2
#     Edge 72, Type (0, 1), BuildingBlock: EZIPEK_clean_linker_0, # of connection points: 2
#     Edge 73, Type (0, 1), BuildingBlock: EZIPEK_clean_linker_0, # of connection points: 2
#     Edge 74, Type (0, 1), BuildingBlock: EZIPEK_clean_linker_0, # of connection points: 2
#     Edge 75, Type (0, 1), BuildingBlock: EZIPEK_clean_linker_0, # of connection points: 2
#     Edge 76, Type (0, 1), BuildingBlock: EZIPEK_clean_linker_0, # of connection points: 2
#     Edge 77, Type (0, 1), BuildingBlock: EZIPEK_clean_linker_0, # of connection points: 2
#     Edge 78, Type (0, 1), BuildingBlock: EZIPEK_clean_linker_0, # of connection points: 2
#     Edge 79, Type (0, 1), BuildingBlock: EZIPEK_clean_linker_0, # of connection points: 2
#     Edge 80, Type (0, 1), BuildingBlock: EZIPEK_clean_linker_0, # of connection points: 2
#     Edge 81, Type (0, 1), BuildingBlock: EZIPEK_clean_linker_0, # of connection points: 2
#     Edge 82, Type (0, 1), BuildingBlock: EZIPEK_clean_linker_0, # of connection points: 2
#     Edge 83, Type (0, 1), BuildingBlock: EZIPEK_clean_linker_0, # of connection points: 2
#     Edge 84, Type (0, 1), BuildingBlock: EZIPEK_clean_linker_0, # of connection points: 2
#     Edge 85, Type (0, 1), BuildingBlock: EZIPEK_clean_linker_0, # of connection points: 2
#     Edge 86, Type (0, 1), BuildingBlock: EZIPEK_clean_linker_0, # of connection points: 2
#     Edge 87, Type (0, 1), BuildingBlock: EZIPEK_clean_linker_0, # of connection points: 2
#     Edge 88, Type (0, 1), BuildingBlock: EZIPEK_clean_linker_0, # of connection points: 2
#     Edge 89, Type (0, 1), BuildingBlock: EZIPEK_clean_linker_0, # of connection points: 2
#     Edge 90, Type (0, 1), BuildingBlock: EZIPEK_clean_linker_0, # of connection points: 2
#     Edge 91, Type (0, 1), BuildingBlock: EZIPEK_clean_linker_0, # of connection points: 2
#     Edge 92, Type (0, 1), BuildingBlock: EZIPEK_clean_linker_0, # of connection points: 2
#     Edge 93, Type (0, 1), BuildingBlock: EZIPEK_clean_linker_0, # of connection points: 2
#     Edge 94, Type (0, 1), BuildingBlock: EZIPEK_clean_linker_0, # of connection points: 2
#     Edge 95, Type (0, 1), BuildingBlock: EZIPEK_clean_linker_0, # of connection points: 2
#     Edge 96, Type (0, 1), BuildingBlock: EZIPEK_clean_linker_0, # of connection points: 2
#     Edge 97, Type (0, 1), BuildingBlock: EZIPEK_clean_linker_0, # of connection points: 2
#     Edge 98, Type (0, 1), BuildingBlock: EZIPEK_clean_linker_0, # of connection points: 2
#     Edge 99, Type (0, 1), BuildingBlock: EZIPEK_clean_linker_0, # of connection points: 2
#     Edge 100, Type (0, 1), BuildingBlock: EZIPEK_clean_linker_0, # of connection points: 2
#     Edge 101, Type (0, 1), BuildingBlock: EZIPEK_clean_linker_0, # of connection points: 2
#     Edge 102, Type (0, 1), BuildingBlock: EZIPEK_clean_linker_0, # of connection points: 2
#     Edge 103, Type (0, 1), BuildingBlock: EZIPEK_clean_linker_0, # of connection points: 2
#     Edge 104, Type (0, 1), BuildingBlock: EZIPEK_clean_linker_0, # of connection points: 2
#     Edge 105, Type (0, 1), BuildingBlock: EZIPEK_clean_linker_0, # of connection points: 2
#     Edge 106, Type (0, 1), BuildingBlock: EZIPEK_clean_linker_0, # of connection points: 2
#     Edge 107, Type (0, 1), BuildingBlock: EZIPEK_clean_linker_0, # of connection points: 2
# Relax obj value: 0.079
# Max RMSD: 0.280
# Mean RMSD: 0.122
data_MOF--net-ptr--node1-AZAVOO_clean_sbu_0--node2-MIFKUJ_clean_linker_1--edge1-EZIPEK_clean_linker_0
_symmetry_space_group_name_H-M    P1
_symmetry_Int_Tables_number       1
_symmetry_cell_setting            triclinic
loop_
_symmetry_equiv_pos_as_xyz
'x, y, z'
_cell_length_a     70.942225
_cell_length_b     69.649921
_cell_length_c     46.193984
_cell_angle_alpha  91.298815
_cell_angle_beta   91.07072
_cell_angle_gamma 120.03065
loop_
_atom_site_label
_atom_site_type_symbol
_atom_site_fract_x
_atom_site_fract_y
_atom_site_fract_z
_atom_type_partial_charge
Mg0 Mg 0.01511 0.34274 0.98894 0.0
O1 O 0.99619 0.35005 0.02329 0.0
O2 O 0.97068 0.35401 1.00026 0.0
Mg3 Mg 0.97308 0.34975 0.95133 0.0
C4 C 0.98013 0.35349 0.0238 0.0
C5 C 0.04444 0.32635 0.01618 0.0
O6 O 0.04865 0.32654 0.98858 0.0
O7 O 0.98709 0.3071 0.98039 0.0
O8 O 0.96363 0.31312 0.95448 0.0
O9 O 0.03762 0.37941 0.9849 0.0
O10 O 0.00738 0.35944 0.95831 0.0
C11 C 0.96939 0.30005 0.96537 0.0
C12 C 0.02382 0.3785 0.96541 0.0
O13 O 0.03083 0.33207 0.0241 0.0
Mg14 Mg 0.65867 0.64834 0.03818 0.0
O15 O 0.63286 0.63767 0.00143 0.0
O16 O 0.60131 0.62939 0.02132 0.0
Mg17 Mg 0.60672 0.63363 0.07079 0.0
C18 C 0.61259 0.63121 0.99928 0.0
C19 C 0.70451 0.66952 0.0128 0.0
O20 O 0.70936 0.66926 0.04032 0.0
O21 O 0.66033 0.68164 0.04552 0.0
O22 O 0.62962 0.67135 0.06926 0.0
O23 O 0.65056 0.61306 0.04328 0.0
O24 O 0.63514 0.62906 0.06744 0.0
C25 C 0.64768 0.68627 0.05954 0.0
C26 C 0.6365 0.61166 0.06182 0.0
O27 O 0.68483 0.66222 0.00469 0.0
Mg28 Mg 0.33243 0.97426 0.97697 0.0
O29 O 0.3605 0.98846 0.01131 0.0
O30 O 0.39127 0.00972 0.98824 0.0
Mg31 Mg 0.38351 0.00726 0.93954 0.0
C32 C 0.38112 0.00144 0.01133 0.0
C33 C 0.29303 0.97038 0.01114 0.0
O34 O 0.29294 0.98285 0.99031 0.0
O35 O 0.33495 0.00785 0.97181 0.0
O36 O 0.36441 0.02554 0.94491 0.0
O37 O 0.33622 0.94443 0.96872 0.0
O38 O 0.35339 0.9758 0.94569 0.0
C39 C 0.34782 0.02432 0.95703 0.0
C40 C 0.35039 0.95634 0.94999 0.0
O41 O 0.30746 0.96466 0.01208 0.0
Mg42 Mg 0.97828 0.65468 0.03733 0.0
O43 O 0.99242 0.64355 0.00037 0.0
O44 O 0.01718 0.63647 0.02006 0.0
Mg45 Mg 0.02015 0.64438 0.06901 0.0
C46 C 0.00613 0.63686 0.99818 0.0
C47 C 0.94783 0.6708 0.01128 0.0
O48 O 0.94247 0.66915 0.03855 0.0
O49 O 0.00858 0.68924 0.04154 0.0
O50 O 0.03211 0.68153 0.06414 0.0
O51 O 0.95406 0.61887 0.04557 0.0
O52 O 0.98651 0.63782 0.06739 0.0
C53 C 0.02703 0.69534 0.05406 0.0
C54 C 0.96874 0.61929 0.06309 0.0
O55 O 0.96211 0.66596 0.00357 0.0
Mg56 Mg 0.33784 0.35354 0.98154 0.0
O57 O 0.36749 0.36667 0.01332 0.0
O58 O 0.39546 0.37014 0.9877 0.0
Mg59 Mg 0.38492 0.36324 0.93952 0.0
C60 C 0.38738 0.3716 0.01158 0.0
C61 C 0.3067 0.3542 0.02748 0.0
O62 O 0.31354 0.37364 0.01622 0.0
O63 O 0.33487 0.31941 0.97644 0.0
O64 O 0.36167 0.32615 0.94621 0.0
O65 O 0.34584 0.38839 0.97359 0.0
O66 O 0.35859 0.37025 0.94843 0.0
C67 C 0.34499 0.31282 0.96009 0.0
C68 C 0.35844 0.38838 0.95371 0.0
O69 O 0.31417 0.34199 0.01861 0.0
Mg70 Mg 0.66451 0.02523 0.03951 0.0
O71 O 0.63799 0.00619 0.00437 0.0
O72 O 0.60673 0.98499 0.02605 0.0
Mg73 Mg 0.61386 0.98827 0.07519 0.0
C74 C 0.61752 0.99272 0.00321 0.0
C75 C 0.7091 0.04176 0.01135 0.0
O76 O 0.71456 0.04069 0.03835 0.0
O77 O 0.66733 0.99475 0.04772 0.0
O78 O 0.63709 0.97422 0.07233 0.0
O79 O 0.6547 0.05131 0.04309 0.0
O80 O 0.64164 0.02153 0.06961 0.0
C81 C 0.65514 0.97773 0.06216 0.0
C82 C 0.64145 0.03913 0.06252 0.0
O83 O 0.68962 0.03642 0.00467 0.0
Mg84 Mg 0.68159 0.67591 0.31919 0.0
O85 O 0.66523 0.6896 0.34974 0.0
O86 O 0.63705 0.68788 0.32466 0.0
Mg87 Mg 0.63778 0.67724 0.27755 0.0
C88 C 0.64891 0.69267 0.34782 0.0
C89 C 0.70478 0.65534 0.35371 0.0
O90 O 0.7 0.64392 0.32901 0.0
O91 O 0.65269 0.64044 0.31997 0.0
O92 O 0.62813 0.64179 0.29023 0.0
O93 O 0.70466 0.71059 0.30643 0.0
O94 O 0.67266 0.6887 0.28455 0.0
C95 C 0.63452 0.631 0.30563 0.0
C96 C 0.6897 0.70811 0.28774 0.0
O97 O 0.69895 0.66977 0.3573 0.0
Mg98 Mg 0.32083 0.98168 0.37336 0.0
O99 O 0.29494 0.97134 0.33684 0.0
O100 O 0.2638 0.9645 0.35672 0.0
Mg101 Mg 0.26959 0.96948 0.40615 0.0
C102 C 0.27483 0.96553 0.3347 0.0
C103 C 0.36236 0.99016 0.34299 0.0
O104 O 0.36367 0.98066 0.36658 0.0
O105 O 0.32396 0.01575 0.37972 0.0
O106 O 0.29371 0.00692 0.40386 0.0
O107 O 0.3114 0.94615 0.37945 0.0
O108 O 0.29719 0.96353 0.40325 0.0
C109 C 0.3119 0.02122 0.39373 0.0
C110 C 0.29775 0.94563 0.39806 0.0
O111 O 0.34666 0.9938 0.33934 0.0
Mg112 Mg 0.00346 0.31034 0.31588 0.0
O113 O 0.03357 0.3272 0.34656 0.0
O114 O 0.06266 0.34624 0.31952 0.0
Mg115 Mg 0.05141 0.3394 0.27159 0.0
C116 C 0.05402 0.33998 0.34406 0.0
C117 C 0.9614 0.29115 0.34858 0.0
O118 O 0.95469 0.28227 0.32236 0.0
O119 O 0.00544 0.34327 0.3072 0.0
O120 O 0.03259 0.3581 0.27599 0.0
O121 O 0.00684 0.27998 0.31116 0.0
O122 O 0.02203 0.30885 0.28314 0.0
C123 C 0.01709 0.35816 0.28954 0.0
C124 C 0.01954 0.29001 0.29012 0.0
O125 O 0.98153 0.30455 0.35367 0.0
Mg126 Mg 0.64797 0.98479 0.37018 0.0
O127 O 0.6646 0.97142 0.33968 0.0
O128 O 0.69011 0.96941 0.36651 0.0
Mg129 Mg 0.68697 0.97702 0.41415 0.0
C130 C 0.67988 0.96681 0.34237 0.0
C131 C 0.61632 0.99436 0.33635 0.0
O132 O 0.60725 0.98809 0.36153 0.0
O133 O 0.6782 0.01952 0.37501 0.0
O134 O 0.69929 0.01376 0.40616 0.0
O135 O 0.62249 0.94974 0.37801 0.0
O136 O 0.65326 0.96865 0.40395 0.0
C137 C 0.69515 0.02666 0.39164 0.0
C138 C 0.63574 0.95008 0.39794 0.0
O139 O 0.63431 0.99509 0.33207 0.0
Mg140 Mg 0.01066 0.68524 0.31301 0.0
O141 O 0.03651 0.69577 0.34965 0.0
O142 O 0.06803 0.70397 0.32978 0.0
Mg143 Mg 0.0626 0.70032 0.2802 0.0
C144 C 0.05674 0.70209 0.35183 0.0
C145 C 0.96527 0.6687 0.34136 0.0
O146 O 0.98392 0.67032 0.34875 0.0
O147 O 0.00909 0.65202 0.30501 0.0
O148 O 0.03964 0.66256 0.28076 0.0
O149 O 0.01875 0.72059 0.30853 0.0
O150 O 0.03412 0.70487 0.28371 0.0
C151 C 0.02166 0.64754 0.29053 0.0
C152 C 0.03271 0.72219 0.2897 0.0
O153 O 0.98369 0.67057 0.34764 0.0
Mg154 Mg 0.33426 0.36304 0.37605 0.0
O155 O 0.30666 0.3465 0.34158 0.0
O156 O 0.27556 0.32659 0.36439 0.0
Mg157 Mg 0.28315 0.33009 0.41337 0.0
C158 C 0.28603 0.33383 0.34121 0.0
C159 C 0.37313 0.3663 0.3403 0.0
O160 O 0.37358 0.35349 0.36039 0.0
O161 O 0.33272 0.33017 0.38308 0.0
O162 O 0.30307 0.31241 0.40975 0.0
O163 O 0.32885 0.39213 0.38182 0.0
O164 O 0.31293 0.36162 0.40678 0.0
C165 C 0.31991 0.31386 0.39816 0.0
C166 C 0.3151 0.38055 0.40116 0.0
O167 O 0.35899 0.37241 0.34078 0.0
Mg168 Mg 0.34911 0.01307 0.65328 0.0
O169 O 0.33657 0.02415 0.69233 0.0
O170 O 0.31086 0.03083 0.67501 0.0
Mg171 Mg 0.30644 0.02379 0.62582 0.0
C172 C 0.32268 0.03048 0.69594 0.0
C173 C 0.38508 0.01384 0.69519 0.0
O174 O 0.39478 0.03505 0.68973 0.0
O175 O 0.3186 0.97867 0.64974 0.0
O176 O 0.29455 0.98655 0.62908 0.0
O177 O 0.37326 0.04888 0.6445 0.0
O178 O 0.34002 0.03027 0.62489 0.0
C179 C 0.29989 0.97265 0.63811 0.0
C180 C 0.35815 0.04856 0.62802 0.0
O181 O 0.36626 0.00074 0.68401 0.0
Mg182 Mg 0.99352 0.31491 0.70904 0.0
O183 O 0.96813 0.30472 0.67197 0.0
O184 O 0.93597 0.29455 0.69126 0.0
Mg185 Mg 0.94075 0.29759 0.74088 0.0
C186 C 0.94774 0.29752 0.66939 0.0
C187 C 0.0362 0.32789 0.67796 0.0
O188 O 0.03837 0.3176 0.70014 0.0
O189 O 0.99405 0.34744 0.71827 0.0
O190 O 0.96285 0.33553 0.74148 0.0
O191 O 0.98613 0.27968 0.71215 0.0
O192 O 0.96991 0.2943 0.73742 0.0
C193 C 0.98089 0.35112 0.73259 0.0
C194 C 0.97174 0.27733 0.73071 0.0
O195 O 0.01968 0.33032 0.67572 0.0
Mg196 Mg 0.67547 0.64717 0.65273 0.0
O197 O 0.70249 0.66658 0.6871 0.0
O198 O 0.73376 0.68659 0.66477 0.0
Mg199 Mg 0.72657 0.68011 0.61573 0.0
C200 C 0.72296 0.68008 0.68782 0.0
C201 C 0.6312 0.62427 0.68127 0.0
O202 O 0.62608 0.61451 0.65537 0.0
O203 O 0.67465 0.67811 0.64085 0.0
O204 O 0.7049 0.69594 0.61528 0.0
O205 O 0.68275 0.61912 0.65114 0.0
O206 O 0.6974 0.64813 0.62331 0.0
C207 C 0.6873 0.69397 0.62503 0.0
C208 C 0.69593 0.62985 0.63083 0.0
O209 O 0.6507 0.63924 0.68729 0.0
Mg210 Mg 0.31059 0.31864 0.70731 0.0
O211 O 0.32584 0.30503 0.67465 0.0
O212 O 0.35117 0.30154 0.69982 0.0
Mg213 Mg 0.34982 0.30892 0.748 0.0
C214 C 0.3407 0.29974 0.67617 0.0
C215 C 0.27827 0.31764 0.65891 0.0
O216 O 0.26763 0.29666 0.66559 0.0
O217 O 0.34136 0.35296 0.71229 0.0
O218 O 0.36263 0.34578 0.74114 0.0
O219 O 0.28485 0.28351 0.71572 0.0
O220 O 0.3164 0.30195 0.73984 0.0
C221 C 0.35868 0.35933 0.7279 0.0
C222 C 0.29851 0.28361 0.73479 0.0
O223 O 0.29672 0.33059 0.67119 0.0
Mg224 Mg 0.67528 0.01476 0.65356 0.0
O225 O 0.7026 0.02118 0.68639 0.0
O226 O 0.73114 0.02566 0.66226 0.0
Mg227 Mg 0.72299 0.02405 0.61357 0.0
C228 C 0.72179 0.02399 0.68618 0.0
C229 C 0.63278 0.0014 0.68375 0.0
O230 O 0.62846 0.00492 0.65726 0.0
O231 O 0.66873 0.97972 0.64288 0.0
O232 O 0.69703 0.98718 0.61503 0.0
O233 O 0.68733 0.05118 0.65087 0.0
O234 O 0.6976 0.0323 0.62256 0.0
C235 C 0.67906 0.97352 0.62629 0.0
C236 C 0.69912 0.05091 0.62997 0.0
O237 O 0.65126 0.0035 0.68983 0.0
Mg238 Mg 0.99347 0.68697 0.7067 0.0
O239 O 0.96806 0.67015 0.66957 0.0
O240 O 0.93705 0.64485 0.68884 0.0
Mg241 Mg 0.94181 0.64831 0.73857 0.0
C242 C 0.94821 0.65471 0.66706 0.0
C243 C 0.03646 0.69614 0.67707 0.0
O244 O 0.03753 0.68499 0.69898 0.0
O245 O 0.9956 0.65586 0.71407 0.0
O246 O 0.96537 0.63501 0.73831 0.0
O247 O 0.9846 0.7136 0.71144 0.0
O248 O 0.96946 0.68261 0.73544 0.0
C249 C 0.98353 0.63877 0.72839 0.0
C250 C 0.97069 0.70128 0.73018 0.0
O251 O 0.02044 0.6994 0.67418 0.0
H252 H 0.13499 0.31633 0.22318 0.0
H253 H 0.10265 0.30949 0.24939 0.0
H254 H 0.06348 0.24986 0.19682 0.0
H255 H 0.09595 0.25693 0.17003 0.0
H256 H 0.15389 0.29137 0.21853 0.0
H257 H 0.12421 0.32334 0.15937 0.0
H258 H 0.0994 0.32963 0.12871 0.0
H259 H 0.09293 0.2787 0.06785 0.0
H260 H 0.11766 0.27212 0.09873 0.0
H261 H 0.18272 0.27823 0.10863 0.0
H262 H 0.21548 0.29047 0.08022 0.0
H263 H 0.24866 0.3511 0.13253 0.0
H264 H 0.21588 0.33895 0.16095 0.0
H265 H 0.15991 0.30131 0.11257 0.0
H266 H 0.2022 0.28134 0.17997 0.0
H267 H 0.23218 0.28868 0.21453 0.0
H268 H 0.2193 0.3339 0.26393 0.0
H269 H 0.19019 0.32739 0.22918 0.0
C270 C 0.11778 0.28721 0.19458 0.0
C271 C 0.11947 0.30176 0.2173 0.0
C272 C 0.10109 0.29786 0.23225 0.0
C273 C 0.08078 0.27923 0.22493 0.0
C274 C 0.07908 0.26434 0.20263 0.0
C275 C 0.09749 0.26844 0.18733 0.0
C276 C 0.13751 0.29161 0.17907 0.0
C277 C 0.15529 0.29358 0.19533 0.0
C278 C 0.13922 0.29478 0.14893 0.0
C279 C 0.12258 0.29701 0.13159 0.0
C280 C 0.11705 0.31308 0.13984 0.0
C281 C 0.103 0.31678 0.12232 0.0
C282 C 0.09431 0.30455 0.09617 0.0
C283 C 0.0994 0.28816 0.0881 0.0
C284 C 0.11352 0.28447 0.10563 0.0
C285 C 0.19693 0.30761 0.137 0.0
C286 C 0.19714 0.29401 0.11425 0.0
C287 C 0.21578 0.30092 0.09815 0.0
C288 C 0.23441 0.32161 0.10444 0.0
C289 C 0.23445 0.33501 0.1276 0.0
C290 C 0.2158 0.32806 0.14378 0.0
C291 C 0.17647 0.3011 0.1521 0.0
C292 C 0.15842 0.29862 0.13566 0.0
C293 C 0.17504 0.29907 0.1825 0.0
C294 C 0.19391 0.30381 0.20196 0.0
C295 C 0.20606 0.29308 0.19798 0.0
C296 C 0.22301 0.29712 0.21774 0.0
C297 C 0.2277 0.31161 0.24191 0.0
C298 C 0.21579 0.32253 0.24555 0.0
C299 C 0.19915 0.31874 0.22575 0.0
H300 H 0.71758 0.91251 0.19217 0.0
H301 H 0.71779 0.93958 0.22776 0.0
H302 H 0.65693 0.88852 0.25992 0.0
H303 H 0.65705 0.86151 0.22512 0.0
H304 H 0.69135 0.85083 0.22319 0.0
H305 H 0.71133 0.89555 0.11543 0.0
H306 H 0.70577 0.92269 0.08896 0.0
H307 H 0.64811 0.90503 0.13697 0.0
H308 H 0.65349 0.87781 0.16327 0.0
H309 H 0.6514 0.80645 0.11688 0.0
H310 H 0.64407 0.77226 0.09062 0.0
H311 H 0.70664 0.78262 0.12006 0.0
H312 H 0.71408 0.81694 0.1463 0.0
H313 H 0.68289 0.85021 0.11625 0.0
H314 H 0.65679 0.78981 0.18383 0.0
H315 H 0.65803 0.75969 0.2089 0.0
H316 H 0.72343 0.80567 0.24069 0.0
H317 H 0.72216 0.83586 0.21578 0.0
C318 C 0.68736 0.885 0.2062 0.0
C319 C 0.70419 0.90726 0.20668 0.0
C320 C 0.70426 0.92268 0.22684 0.0
C321 C 0.68732 0.91605 0.24636 0.0
C322 C 0.6701 0.89399 0.24497 0.0
C323 C 0.67021 0.87858 0.22525 0.0
C324 C 0.68793 0.86796 0.18698 0.0
C325 C 0.68975 0.85084 0.19978 0.0
C326 C 0.68581 0.86792 0.15649 0.0
C327 C 0.68302 0.88496 0.14161 0.0
C328 C 0.69754 0.89759 0.12031 0.0
C329 C 0.69436 0.91294 0.10519 0.0
C330 C 0.67651 0.91567 0.11105 0.0
C331 C 0.66193 0.90302 0.13222 0.0
C332 C 0.66514 0.88772 0.14737 0.0
C333 C 0.68318 0.81407 0.13379 0.0
C334 C 0.66376 0.80165 0.11718 0.0
C335 C 0.65957 0.7822 0.10219 0.0
C336 C 0.67483 0.77502 0.10345 0.0
C337 C 0.69475 0.78803 0.11878 0.0
C338 C 0.69891 0.80746 0.13385 0.0
C339 C 0.68613 0.83303 0.15245 0.0
C340 C 0.68503 0.85051 0.13961 0.0
C341 C 0.68875 0.83331 0.18293 0.0
C342 C 0.68943 0.81503 0.19786 0.0
C343 C 0.67142 0.79339 0.1961 0.0
C344 C 0.67211 0.77626 0.21037 0.0
C345 C 0.69083 0.78051 0.22657 0.0
C346 C 0.70887 0.80211 0.22826 0.0
C347 C 0.70811 0.81928 0.21416 0.0
H348 H 0.1042 0.84947 0.20323 0.0
H349 H 0.0778 0.81989 0.23342 0.0
H350 H 0.09911 0.77571 0.20056 0.0
H351 H 0.12555 0.80516 0.17063 0.0
H352 H 0.14897 0.86702 0.20721 0.0
H353 H 0.0915 0.8294 0.1324 0.0
H354 H 0.06419 0.79421 0.10831 0.0
H355 H 0.1153 0.78243 0.08037 0.0
H356 H 0.14263 0.81759 0.10432 0.0
H357 H 0.19571 0.87129 0.10643 0.0
H358 H 0.22614 0.89685 0.07749 0.0
H359 H 0.21886 0.95142 0.10914 0.0
H360 H 0.18806 0.92571 0.13818 0.0
H361 H 0.15485 0.86084 0.10108 0.0
H362 H 0.21205 0.89486 0.17161 0.0
H363 H 0.24018 0.91908 0.20754 0.0
H364 H 0.19361 0.93108 0.25103 0.0
H365 H 0.16577 0.9083 0.21373 0.0
C366 C 0.11663 0.82941 0.18447 0.0
C367 C 0.10301 0.83334 0.20231 0.0
C368 C 0.08799 0.81655 0.21942 0.0
C369 C 0.08661 0.79575 0.21903 0.0
C370 C 0.09997 0.79169 0.20094 0.0
C371 C 0.11492 0.80842 0.18381 0.0
C372 C 0.13376 0.84764 0.16812 0.0
C373 C 0.15006 0.8662 0.18387 0.0
C374 C 0.13546 0.84571 0.13789 0.0
C375 C 0.11908 0.826 0.1204 0.0
C376 C 0.09686 0.81942 0.12071 0.0
C377 C 0.08131 0.79947 0.10687 0.0
C378 C 0.08779 0.78579 0.09263 0.0
C379 C 0.11004 0.79285 0.09113 0.0
C380 C 0.12559 0.81287 0.10479 0.0
C381 C 0.18958 0.89659 0.12435 0.0
C382 C 0.20066 0.88875 0.10728 0.0
C383 C 0.21806 0.90329 0.09094 0.0
C384 C 0.22466 0.92591 0.09136 0.0
C385 C 0.21397 0.93398 0.10881 0.0
C386 C 0.19649 0.91936 0.12528 0.0
C387 C 0.17036 0.88056 0.1402 0.0
C388 C 0.1536 0.86232 0.12431 0.0
C389 C 0.16865 0.88257 0.17051 0.0
C390 C 0.18668 0.89985 0.18955 0.0
C391 C 0.20801 0.90349 0.18794 0.0
C392 C 0.22408 0.91715 0.20867 0.0
C393 C 0.21893 0.92671 0.23209 0.0
C394 C 0.19793 0.92386 0.23315 0.0
C395 C 0.18203 0.91075 0.21193 0.0
H396 H 0.27167 0.17379 0.84843 0.0
H397 H 0.26772 0.20183 0.82188 0.0
H398 H 0.32142 0.21274 0.76896 0.0
H399 H 0.32532 0.18463 0.79533 0.0
H400 H 0.29927 0.14122 0.80376 0.0
H401 H 0.28528 0.16894 0.91786 0.0
H402 H 0.29254 0.20344 0.94371 0.0
H403 H 0.34439 0.24153 0.88604 0.0
H404 H 0.33732 0.20724 0.86035 0.0
H405 H 0.3433 0.14121 0.90845 0.0
H406 H 0.3517 0.11552 0.93336 0.0
H407 H 0.28998 0.06044 0.90272 0.0
H408 H 0.28156 0.08612 0.87757 0.0
H409 H 0.31214 0.15174 0.91034 0.0
H410 H 0.33675 0.11601 0.84657 0.0
H411 H 0.3402 0.08869 0.81657 0.0
H412 H 0.28221 0.07448 0.76717 0.0
H413 H 0.27743 0.10022 0.79898 0.0
C414 C 0.29889 0.17726 0.82395 0.0
C415 C 0.28249 0.1821 0.83098 0.0
C416 C 0.28018 0.19799 0.81584 0.0
C417 C 0.29435 0.20935 0.79362 0.0
C418 C 0.31036 0.2041 0.78606 0.0
C419 C 0.31254 0.18809 0.80103 0.0
C420 C 0.30235 0.16155 0.84125 0.0
C421 C 0.30177 0.1432 0.82711 0.0
C422 C 0.30659 0.16489 0.87151 0.0
C423 C 0.31057 0.18556 0.88695 0.0
C424 C 0.29822 0.18472 0.91083 0.0
C425 C 0.30235 0.2043 0.92556 0.0
C426 C 0.31904 0.22489 0.91676 0.0
C427 C 0.33151 0.22573 0.89313 0.0
C428 C 0.32734 0.20622 0.87837 0.0
C429 C 0.31195 0.11548 0.89087 0.0
C430 C 0.33136 0.12366 0.90762 0.0
C431 C 0.33614 0.10908 0.92187 0.0
C432 C 0.32143 0.0862 0.91983 0.0
C433 C 0.30142 0.07811 0.90459 0.0
C434 C 0.29672 0.09268 0.89013 0.0
C435 C 0.30831 0.13077 0.87305 0.0
C436 C 0.30899 0.1492 0.88709 0.0
C437 C 0.30511 0.12786 0.84246 0.0
C438 C 0.30655 0.11007 0.82559 0.0
C439 C 0.32417 0.10641 0.83019 0.0
C440 C 0.32634 0.09096 0.81279 0.0
C441 C 0.31158 0.07965 0.78945 0.0
C442 C 0.29381 0.083 0.78503 0.0
C443 C 0.2912 0.09786 0.80309 0.0
H444 H 0.80944 0.07117 0.84306 0.0
H445 H 0.78132 0.04413 0.80847 0.0
H446 H 0.78188 0.0976 0.76261 0.0
H447 H 0.80962 0.1246 0.79722 0.0
H448 H 0.8494 0.13302 0.80567 0.0
H449 H 0.82588 0.0882 0.91317 0.0
H450 H 0.79533 0.06723 0.94498 0.0
H451 H 0.75748 0.09045 0.89921 0.0
H452 H 0.78794 0.11131 0.8672 0.0
H453 H 0.85706 0.17819 0.9118 0.0
H454 H 0.88436 0.21275 0.93688 0.0
H455 H 0.93548 0.20169 0.90697 0.0
H456 H 0.90814 0.16706 0.88163 0.0
H457 H 0.84478 0.13466 0.91256 0.0
H458 H 0.87792 0.19457 0.84782 0.0
H459 H 0.90586 0.22404 0.81944 0.0
H460 H 0.9199 0.17664 0.77828 0.0
H461 H 0.89241 0.14713 0.8074 0.0
C462 C 0.81165 0.09994 0.82278 0.0
C463 C 0.80326 0.07707 0.82588 0.0
C464 C 0.78734 0.06167 0.80613 0.0
C465 C 0.77967 0.06897 0.78303 0.0
C466 C 0.78766 0.09173 0.78029 0.0
C467 C 0.8035 0.10707 0.79999 0.0
C468 C 0.82979 0.11665 0.842 0.0
C469 C 0.84846 0.13319 0.82909 0.0
C470 C 0.82869 0.11697 0.87252 0.0
C471 C 0.80908 0.10118 0.8878 0.0
C472 C 0.81079 0.08829 0.9095 0.0
C473 C 0.79344 0.07635 0.92757 0.0
C474 C 0.7743 0.07741 0.92433 0.0
C475 C 0.77215 0.08942 0.9018 0.0
C476 C 0.78945 0.10121 0.88356 0.0
C477 C 0.88058 0.17016 0.8946 0.0
C478 C 0.87409 0.1829 0.91115 0.0
C479 C 0.88963 0.2026 0.92544 0.0
C480 C 0.91188 0.20975 0.92366 0.0
C481 C 0.91836 0.19637 0.90859 0.0
C482 C 0.9028 0.17672 0.89408 0.0
C483 C 0.86414 0.15114 0.87617 0.0
C484 C 0.84594 0.13408 0.8892 0.0
C485 C 0.86546 0.15057 0.84567 0.0
C486 C 0.88335 0.16871 0.83009 0.0
C487 C 0.88737 0.19057 0.83329 0.0
C488 C 0.90318 0.20734 0.81703 0.0
C489 C 0.91489 0.2024 0.797 0.0
C490 C 0.91105 0.18066 0.79383 0.0
C491 C 0.89539 0.16391 0.81034 0.0
H492 H 0.81762 0.69399 0.80422 0.0
H493 H 0.78873 0.68637 0.76876 0.0
H494 H 0.77333 0.73042 0.81644 0.0
H495 H 0.80325 0.73891 0.85199 0.0
H496 H 0.85317 0.73208 0.8152 0.0
H497 H 0.7889 0.68226 0.87076 0.0
H498 H 0.75704 0.67086 0.90086 0.0
H499 H 0.79387 0.72949 0.95601 0.0
H500 H 0.82565 0.74106 0.9258 0.0
H501 H 0.88854 0.73932 0.93166 0.0
H502 H 0.90971 0.72734 0.96121 0.0
H503 H 0.89393 0.67387 0.89909 0.0
H504 H 0.87258 0.68568 0.86959 0.0
H505 H 0.84462 0.71373 0.9186 0.0
H506 H 0.91158 0.74232 0.86598 0.0
H507 H 0.93805 0.73792 0.83734 0.0
H508 H 0.89014 0.70727 0.76724 0.0
H509 H 0.86291 0.70786 0.79708 0.0
C510 C 0.81283 0.71723 0.83068 0.0
C511 C 0.80822 0.70223 0.80712 0.0
C512 C 0.79169 0.69779 0.78688 0.0
C513 C 0.7791 0.70801 0.78979 0.0
C514 C 0.78308 0.72256 0.81374 0.0
C515 C 0.8 0.72728 0.83404 0.0
C516 C 0.8316 0.72222 0.85052 0.0
C517 C 0.85131 0.72762 0.83773 0.0
C518 C 0.82959 0.71821 0.88041 0.0
C519 C 0.80953 0.71264 0.8959 0.0
C520 C 0.78994 0.69296 0.88885 0.0
C521 C 0.77185 0.68641 0.90603 0.0
C522 C 0.77323 0.69939 0.93054 0.0
C523 C 0.79256 0.71937 0.93707 0.0
C524 C 0.81062 0.72593 0.9199 0.0
C525 C 0.8792 0.71357 0.89825 0.0
C526 C 0.88983 0.72517 0.92422 0.0
C527 C 0.90189 0.71838 0.94103 0.0
C528 C 0.90337 0.69978 0.93224 0.0
C529 C 0.89303 0.68832 0.9061 0.0
C530 C 0.88095 0.69511 0.88928 0.0
C531 C 0.86484 0.71963 0.88183 0.0
C532 C 0.8466 0.71774 0.89588 0.0
C533 C 0.8674 0.72487 0.85211 0.0
C534 C 0.88484 0.72502 0.83429 0.0
C535 C 0.90652 0.73407 0.8448 0.0
C536 C 0.92181 0.73202 0.82822 0.0
C537 C 0.91604 0.72219 0.80016 0.0
C538 C 0.89496 0.71481 0.78887 0.0
C539 C 0.87942 0.71545 0.806 0.0
H540 H 0.80892 0.65151 0.55226 0.0
H541 H 0.77947 0.64769 0.58289 0.0
H542 H 0.73456 0.58651 0.53664 0.0
H543 H 0.76402 0.59073 0.50523 0.0
H544 H 0.8238 0.62105 0.54429 0.0
H545 H 0.7923 0.6571 0.49261 0.0
H546 H 0.76593 0.66346 0.46557 0.0
H547 H 0.75662 0.61295 0.40198 0.0
H548 H 0.78263 0.60616 0.42929 0.0
H549 H 0.86178 0.60588 0.46786 0.0
H550 H 0.89241 0.61362 0.43665 0.0
H551 H 0.89601 0.67467 0.41199 0.0
H552 H 0.86562 0.66712 0.44311 0.0
H553 H 0.82497 0.63466 0.43935 0.0
H554 H 0.84229 0.59729 0.54234 0.0
H555 H 0.8709 0.60359 0.57818 0.0
H556 H 0.91345 0.66727 0.54272 0.0
H557 H 0.88458 0.66152 0.50767 0.0
C558 C 0.7885 0.62152 0.52637 0.0
C559 C 0.79274 0.63727 0.54873 0.0
C560 C 0.77602 0.63505 0.56622 0.0
C561 C 0.75492 0.61685 0.56194 0.0
C562 C 0.75078 0.60067 0.54016 0.0
C563 C 0.76747 0.60313 0.52223 0.0
C564 C 0.80641 0.62427 0.50796 0.0
C565 C 0.82401 0.62365 0.52119 0.0
C566 C 0.80665 0.62831 0.4781 0.0
C567 C 0.78929 0.63091 0.46323 0.0
C568 C 0.7842 0.64695 0.47329 0.0
C569 C 0.76928 0.65072 0.45779 0.0
C570 C 0.75938 0.63868 0.43181 0.0
C571 C 0.76407 0.62236 0.42202 0.0
C572 C 0.77893 0.61854 0.43756 0.0
C573 C 0.86143 0.63594 0.45779 0.0
C574 C 0.86929 0.62102 0.45594 0.0
C575 C 0.88665 0.62536 0.43815 0.0
C576 C 0.89631 0.64467 0.4221 0.0
C577 C 0.88867 0.65969 0.42424 0.0
C578 C 0.87133 0.65533 0.44187 0.0
C579 C 0.84254 0.63126 0.47563 0.0
C580 C 0.82462 0.63141 0.46225 0.0
C581 C 0.84225 0.62731 0.50559 0.0
C582 C 0.86119 0.62891 0.52223 0.0
C583 C 0.85794 0.61241 0.54177 0.0
C584 C 0.87426 0.61593 0.56215 0.0
C585 C 0.89421 0.63592 0.56315 0.0
C586 C 0.89817 0.65169 0.54216 0.0
C587 C 0.88171 0.64832 0.52204 0.0
H588 H 0.3805 0.24682 0.52762 0.0
H589 H 0.37942 0.27328 0.56306 0.0
H590 H 0.31669 0.22197 0.58993 0.0
H591 H 0.31811 0.19552 0.55539 0.0
H592 H 0.35557 0.18664 0.55707 0.0
H593 H 0.37375 0.22982 0.44919 0.0
H594 H 0.36779 0.25682 0.42306 0.0
H595 H 0.30912 0.23713 0.46968 0.0
H596 H 0.31488 0.20998 0.49559 0.0
H597 H 0.31534 0.13983 0.45272 0.0
H598 H 0.30877 0.10586 0.42668 0.0
H599 H 0.37281 0.11902 0.45365 0.0
H600 H 0.37942 0.15309 0.47994 0.0
H601 H 0.34587 0.18383 0.45013 0.0
H602 H 0.32436 0.12419 0.51724 0.0
H603 H 0.32775 0.09596 0.54408 0.0
H604 H 0.39004 0.1464 0.58029 0.0
H605 H 0.38695 0.17467 0.55301 0.0
C606 C 0.34944 0.21922 0.53911 0.0
C607 C 0.36642 0.24141 0.54092 0.0
C608 C 0.36576 0.25649 0.56096 0.0
C609 C 0.34793 0.24958 0.57902 0.0
C610 C 0.33053 0.22765 0.57612 0.0
C611 C 0.33139 0.21256 0.55656 0.0
C612 C 0.35083 0.20245 0.52038 0.0
C613 C 0.35373 0.18615 0.53364 0.0
C614 C 0.3484 0.20182 0.48992 0.0
C615 C 0.34496 0.21825 0.47466 0.0
C616 C 0.35959 0.23131 0.45374 0.0
C617 C 0.35618 0.24656 0.43879 0.0
C618 C 0.33801 0.24876 0.44451 0.0
C619 C 0.32318 0.2355 0.46505 0.0
C620 C 0.3266 0.22027 0.48 0.0
C621 C 0.34777 0.14882 0.4685 0.0
C622 C 0.32815 0.13566 0.45259 0.0
C623 C 0.32439 0.11633 0.43773 0.0
C624 C 0.34029 0.11001 0.43832 0.0
C625 C 0.3604 0.12375 0.45293 0.0
C626 C 0.36411 0.14304 0.46801 0.0
C627 C 0.35037 0.16781 0.48678 0.0
C628 C 0.34827 0.18458 0.47349 0.0
C629 C 0.35348 0.16878 0.51726 0.0
C630 C 0.35555 0.1515 0.53284 0.0
C631 C 0.3389 0.12916 0.53059 0.0
C632 C 0.34076 0.1131 0.54595 0.0
C633 C 0.35915 0.1192 0.56401 0.0
C634 C 0.37578 0.14147 0.56635 0.0
C635 C 0.37397 0.15752 0.55089 0.0
H636 H 0.76133 0.16125 0.51227 0.0
H637 H 0.73449 0.13198 0.54241 0.0
H638 H 0.78553 0.12333 0.58085 0.0
H639 H 0.81235 0.15285 0.55132 0.0
H640 H 0.82274 0.19668 0.54916 0.0
H641 H 0.77555 0.1702 0.43793 0.0
H642 H 0.7483 0.13593 0.41162 0.0
H643 H 0.76907 0.09806 0.46198 0.0
H644 H 0.79639 0.13215 0.48798 0.0
H645 H 0.8602 0.19859 0.4414 0.0
H646 H 0.89088 0.22313 0.41229 0.0
H647 H 0.88962 0.27997 0.44888 0.0
H648 H 0.85818 0.25522 0.47771 0.0
H649 H 0.8204 0.1892 0.44204 0.0
H650 H 0.88301 0.22623 0.50668 0.0
H651 H 0.9124 0.25176 0.54043 0.0
H652 H 0.8665 0.26169 0.5891 0.0
H653 H 0.83744 0.23785 0.55389 0.0
C654 C 0.78874 0.15909 0.5296 0.0
C655 C 0.7667 0.1531 0.52729 0.0
C656 C 0.75148 0.13654 0.54448 0.0
C657 C 0.75812 0.1256 0.56379 0.0
C658 C 0.78017 0.13168 0.56614 0.0
C659 C 0.7954 0.14844 0.54933 0.0
C660 C 0.80506 0.17655 0.51161 0.0
C661 C 0.82221 0.19541 0.52566 0.0
C662 C 0.80431 0.17428 0.4811 0.0
C663 C 0.78774 0.15368 0.46528 0.0
C664 C 0.77425 0.15452 0.44326 0.0
C665 C 0.75878 0.13506 0.42826 0.0
C666 C 0.75676 0.11457 0.43494 0.0
C667 C 0.77043 0.11375 0.45659 0.0
C668 C 0.78585 0.13315 0.47156 0.0
C669 C 0.85685 0.22505 0.46172 0.0
C670 C 0.86625 0.21629 0.44296 0.0
C671 C 0.88381 0.23025 0.42647 0.0
C672 C 0.89238 0.25325 0.42846 0.0
C673 C 0.88308 0.2622 0.44709 0.0
C674 C 0.86527 0.24813 0.46352 0.0
C675 C 0.83858 0.20968 0.47957 0.0
C676 C 0.82082 0.19112 0.46546 0.0
C677 C 0.83922 0.21199 0.51022 0.0
C678 C 0.85788 0.23015 0.52744 0.0
C679 C 0.87935 0.23469 0.52369 0.0
C680 C 0.89614 0.24911 0.54316 0.0
C681 C 0.89157 0.25836 0.56752 0.0
C682 C 0.87039 0.25468 0.57054 0.0
C683 C 0.85379 0.24096 0.5505 0.0
H684 H 0.94364 0.49289 0.1348 0.0
H685 H 0.93877 0.52094 0.10961 0.0
H686 H 0.00443 0.5709 0.13526 0.0
H687 H 0.00944 0.54291 0.16015 0.0
H688 H 0.9732 0.47849 0.12664 0.0
H689 H 0.95582 0.5157 0.20454 0.0
H690 H 0.96261 0.54984 0.23075 0.0
H691 H 0.0285 0.56567 0.25139 0.0
H692 H 0.02177 0.53162 0.22529 0.0
H693 H 0.01693 0.45559 0.18251 0.0
H694 H 0.02392 0.42961 0.20945 0.0
H695 H 0.97253 0.41829 0.26712 0.0
H696 H 0.96534 0.44407 0.24013 0.0
H697 H 0.9925 0.4878 0.2318 0.0
H698 H 0.00164 0.46625 0.11366 0.0
H699 H -0.00132 0.4352 0.08378 0.0
H700 H 0.95286 0.38885 0.14253 0.0
H701 H 0.95535 0.41985 0.17219 0.0
C702 C 0.97683 0.51587 0.14953 0.0
C703 C 0.95701 0.50985 0.13488 0.0
C704 C 0.9542 0.5258 0.12065 0.0
C705 C 0.97124 0.5479 0.12072 0.0
C706 C 0.99112 0.5539 0.13509 0.0
C707 C 0.99393 0.53798 0.14931 0.0
C708 C 0.97958 0.49905 0.16524 0.0
C709 C 0.97734 0.48042 0.14965 0.0
C710 C 0.98509 0.50169 0.19522 0.0
C711 C 0.98838 0.52129 0.21273 0.0
C712 C 0.97165 0.52642 0.21492 0.0
C713 C 0.97546 0.54575 0.22997 0.0
C714 C 0.99604 0.56016 0.24295 0.0
C715 C 0.0125 0.55466 0.24161 0.0
C716 C 0.00867 0.5353 0.22672 0.0
C717 C 0.99042 0.45148 0.20913 0.0
C718 C 0.00711 0.44745 0.20086 0.0
C719 C 0.01123 0.43286 0.21631 0.0
C720 C -0.00121 0.42228 0.24024 0.0
C721 C 0.98232 0.42649 0.24878 0.0
C722 C 0.97821 0.44108 0.23336 0.0
C723 C 0.98613 0.46717 0.19327 0.0
C724 C 0.98816 0.48567 0.20883 0.0
C725 C 0.98074 0.46447 0.1632 0.0
C726 C 0.97883 0.44546 0.14533 0.0
C727 C 0.99086 0.44943 0.1201 0.0
C728 C 0.98927 0.43177 0.10313 0.0
C729 C 0.97561 0.40982 0.11105 0.0
C730 C 0.96354 0.40572 0.13619 0.0
C731 C 0.96505 0.4234 0.15312 0.0
H732 H 0.49653 0.42798 0.13603 0.0
H733 H 0.46933 0.40513 0.09794 0.0
H734 H 0.4242 0.4229 0.13359 0.0
H735 H 0.4515 0.44626 0.17125 0.0
H736 H 0.51497 0.47095 0.14138 0.0
H737 H 0.47359 0.41182 0.20715 0.0
H738 H 0.4435 0.38565 0.23669 0.0
H739 H 0.43505 0.43926 0.2693 0.0
H740 H 0.46482 0.46532 0.23981 0.0
H741 H 0.52089 0.51826 0.24778 0.0
H742 H 0.54712 0.54809 0.27903 0.0
H743 H 0.59732 0.53537 0.24838 0.0
H744 H 0.57067 0.50536 0.21784 0.0
H745 H 0.50578 0.47516 0.24694 0.0
H746 H 0.5441 0.5337 0.18337 0.0
H747 H 0.57246 0.56214 0.15437 0.0
H748 H 0.58425 0.5127 0.11459 0.0
H749 H 0.55644 0.48424 0.14445 0.0
C750 C 0.47609 0.43879 0.15671 0.0
C751 C 0.48065 0.42667 0.13604 0.0
C752 C 0.46514 0.41355 0.1144 0.0
C753 C 0.44477 0.41227 0.11313 0.0
C754 C 0.43975 0.4235 0.13449 0.0
C755 C 0.45533 0.43675 0.15604 0.0
C756 C 0.49378 0.45544 0.17667 0.0
C757 C 0.51318 0.47151 0.16462 0.0
C758 C 0.49113 0.45689 0.20674 0.0
C759 C 0.47143 0.4405 0.22138 0.0
C760 C 0.46493 0.41782 0.22016 0.0
C761 C 0.44787 0.40294 0.23696 0.0
C762 C 0.43722 0.41067 0.25505 0.0
C763 C 0.44313 0.43311 0.25538 0.0
C764 C 0.46012 0.44792 0.23867 0.0
C765 C 0.54352 0.50894 0.23111 0.0
C766 C 0.53745 0.52135 0.24886 0.0
C767 C 0.55271 0.5383 0.2676 0.0
C768 C 0.57452 0.54288 0.27045 0.0
C769 C 0.58066 0.53127 0.25063 0.0
C770 C 0.56535 0.51426 0.23191 0.0
C771 C 0.52694 0.49067 0.21166 0.0
C772 C 0.50776 0.47434 0.22378 0.0
C773 C 0.52965 0.48923 0.18154 0.0
C774 C 0.54833 0.50686 0.16641 0.0
C775 C 0.55323 0.52904 0.16916 0.0
C776 C 0.56929 0.54523 0.15253 0.0
C777 C 0.58038 0.53941 0.13255 0.0
C778 C 0.57588 0.51741 0.13009 0.0
C779 C 0.56001 0.50125 0.14702 0.0
H780 H 0.54633 0.06554 0.14946 0.0
H781 H 0.57726 0.07226 0.11964 0.0
H782 H 0.56742 0.00774 0.13937 0.0
H783 H 0.53618 0.00068 0.16853 0.0
H784 H 0.5047 0.03414 0.14109 0.0
H785 H 0.56044 0.05175 0.21669 0.0
H786 H 0.58741 0.04709 0.24523 0.0
H787 H 0.53797 0.98046 0.26389 0.0
H788 H 0.51115 0.9848 0.2349 0.0
H789 H 0.45485 0.98112 0.2364 0.0
H790 H 0.42511 0.97545 0.26782 0.0
H791 H 0.43347 0.03882 0.24477 0.0
H792 H 0.46337 0.04467 0.21337 0.0
H793 H 0.4958 0.01166 0.24317 0.0
H794 H 0.44269 0.98833 0.16765 0.0
H795 H 0.41557 0.98368 0.13027 0.0
H796 H 0.45635 0.05164 0.10694 0.0
H797 H 0.48354 0.05642 0.14441 0.0
C798 C 0.53914 0.03273 0.16155 0.0
C799 C 0.55087 0.05286 0.14745 0.0
C800 C 0.56846 0.05673 0.13051 0.0
C801 C 0.57453 0.0405 0.12752 0.0
C802 C 0.56295 0.02045 0.14166 0.0
C803 C 0.54527 0.01651 0.15842 0.0
C804 C 0.51973 0.02825 0.1781 0.0
C805 C 0.50294 0.02974 0.16366 0.0
C806 C 0.51698 0.0212 0.20701 0.0
C807 C 0.53373 0.01859 0.22352 0.0
C808 C 0.55545 0.03603 0.22655 0.0
C809 C 0.57082 0.03342 0.24288 0.0
C810 C 0.56461 0.01345 0.25667 0.0
C811 C 0.54303 0.99598 0.25341 0.0
C812 C 0.52774 -0.00147 0.23701 0.0
C813 C 0.46132 0.01331 0.22251 0.0
C814 C 0.45016 0.99371 0.23783 0.0
C815 C 0.4332 0.99044 0.25566 0.0
C816 C 0.42726 0.00677 0.25857 0.0
C817 C 0.43789 0.02607 0.24265 0.0
C818 C 0.45483 0.02932 0.22471 0.0
C819 C 0.48084 0.01778 0.20621 0.0
C820 C 0.49766 0.01635 0.22072 0.0
C821 C 0.48334 0.02415 0.17708 0.0
C822 C 0.46516 0.02276 0.15891 0.0
C823 C 0.4455 0.00249 0.15526 0.0
C824 C 0.43004 -0.0002 0.13391 0.0
C825 C 0.43401 0.01734 0.11599 0.0
C826 C 0.45298 0.038 0.12077 0.0
C827 C 0.46848 0.04067 0.14204 0.0
H828 H 0.46949 0.98298 0.89045 0.0
H829 H 0.43664 0.97622 0.91542 0.0
H830 H 0.39712 0.92195 0.85481 0.0
H831 H 0.43004 0.92889 0.82944 0.0
H832 H 0.48697 0.95749 0.88168 0.0
H833 H 0.46234 0.9961 0.82745 0.0
H834 H 0.43912 0.00602 0.79914 0.0
H835 H 0.42969 0.95715 0.73286 0.0
H836 H 0.45286 0.94698 0.76133 0.0
H837 H 0.51187 0.9446 0.76933 0.0
H838 H 0.54344 0.95305 0.74013 0.0
H839 H 0.58411 0.00945 0.79715 0.0
H840 H 0.55238 0.0014 0.82604 0.0
H841 H 0.4951 0.97203 0.77683 0.0
H842 H 0.5324 0.94385 0.8421 0.0
H843 H 0.56175 0.94844 0.87607 0.0
H844 H 0.55328 0.99581 0.92759 0.0
H845 H 0.52486 0.99202 0.89349 0.0
C846 C 0.45212 0.95654 0.85801 0.0
C847 C 0.45378 0.96956 0.8826 0.0
C848 C 0.43512 0.96571 0.89683 0.0
C849 C 0.41459 0.94865 0.88683 0.0
C850 C 0.4129 0.93521 0.8627 0.0
C851 C 0.43158 0.93924 0.84822 0.0
C852 C 0.47198 0.96097 0.84283 0.0
C853 C 0.48885 0.96074 0.85873 0.0
C854 C 0.47447 0.96576 0.81315 0.0
C855 C 0.45915 0.97057 0.79671 0.0
C856 C 0.45495 0.98715 0.80713 0.0
C857 C 0.4418 0.99291 0.79095 0.0
C858 C 0.43268 0.98228 0.764 0.0
C859 C 0.43655 0.96547 0.75368 0.0
C860 C 0.44977 0.95973 0.76987 0.0
C861 C 0.52979 0.97225 0.79998 0.0
C862 C 0.52761 0.95867 0.77573 0.0
C863 C 0.54557 0.96342 0.75915 0.0
C864 C 0.566 0.98183 0.76656 0.0
C865 C 0.56843 0.99511 0.79125 0.0
C866 C 0.55038 0.99046 0.80775 0.0
C867 C 0.51013 0.96814 0.81559 0.0
C868 C 0.49314 0.9684 0.79965 0.0
C869 C 0.50827 0.96505 0.84582 0.0
C870 C 0.52643 0.96764 0.86518 0.0
C871 C 0.53705 0.95541 0.86051 0.0
C872 C 0.55363 0.95787 0.87995 0.0
C873 C 0.55943 0.97226 0.90448 0.0
C874 C 0.54889 0.98449 0.90894 0.0
C875 C 0.53265 0.98227 0.88949 0.0
H876 H 0.04926 0.56218 0.89999 0.0
H877 H 0.04558 0.58885 0.93136 0.0
H878 H 0.99095 0.57977 0.87813 0.0
H879 H 0.9929 0.55132 0.84886 0.0
H880 H 0.0258 0.52176 0.89387 0.0
H881 H 0.04807 0.57782 0.81995 0.0
H882 H 0.0426 0.60471 0.79271 0.0
H883 H 0.97992 0.55201 0.76071 0.0
H884 H 0.98536 0.52516 0.78764 0.0
H885 H 0.98254 0.46956 0.79327 0.0
H886 H 0.97524 0.43492 0.76836 0.0
H887 H 0.03822 0.44635 0.79775 0.0
H888 H 0.04557 0.4811 0.82283 0.0
H889 H 0.01463 0.51232 0.78708 0.0
H890 H 0.9903 0.45742 0.86039 0.0
H891 H 0.99228 0.42888 0.88834 0.0
H892 H 0.0563 0.47758 0.92168 0.0
H893 H 0.05459 0.50615 0.89327 0.0
C894 C 0.02157 0.55473 0.87157 0.0
C895 C 0.03644 0.56585 0.89497 0.0
C896 C 0.03449 0.58125 0.91277 0.0
C897 C 0.01799 0.58633 0.90712 0.0
C898 C 0.00385 0.57617 0.88287 0.0
C899 C 0.0052 0.56009 0.86584 0.0
C900 C 0.02206 0.53631 0.85491 0.0
C901 C 0.0239 0.52011 0.87044 0.0
C902 C 0.01904 0.53351 0.8243 0.0
C903 C 0.01699 0.5496 0.80607 0.0
C904 C 0.03331 0.57205 0.80676 0.0
C905 C 0.03028 0.58729 0.79111 0.0
C906 C 0.01086 0.58022 0.77481 0.0
C907 C 0.99503 0.55766 0.77307 0.0
C908 C -0.00188 0.54243 0.78847 0.0
C909 C 0.01451 0.47776 0.81009 0.0
C910 C 0.99488 0.46475 0.79411 0.0
C911 C 0.99072 0.44506 0.77989 0.0
C912 C 0.00622 0.43821 0.78121 0.0
C913 C 0.02614 0.45151 0.79645 0.0
C914 C 0.03025 0.47117 0.81085 0.0
C915 C 0.01815 0.49806 0.82611 0.0
C916 C 0.01711 0.51448 0.81046 0.0
C917 C 0.02181 0.50097 0.8565 0.0
C918 C 0.02246 0.48385 0.87438 0.0
C919 C 0.00482 0.46198 0.87359 0.0
C920 C 0.00586 0.44575 0.88964 0.0
C921 C 0.02442 0.45123 0.90699 0.0
C922 C 0.04185 0.47315 0.90841 0.0
C923 C 0.04085 0.48937 0.89226 0.0
H924 H 0.43897 0.51618 0.87145 0.0
H925 H 0.41084 0.48709 0.90052 0.0
H926 H 0.43042 0.4409 0.87005 0.0
H927 H 0.45853 0.46986 0.84122 0.0
H928 H 0.48403 0.53237 0.87574 0.0
H929 H 0.42549 0.4949 0.80162 0.0
H930 H 0.39749 0.45963 0.77843 0.0
H931 H 0.4474 0.44564 0.75151 0.0
H932 H 0.4754 0.48086 0.77454 0.0
H933 H 0.52798 0.53201 0.77433 0.0
H934 H 0.55963 0.55568 0.74604 0.0
H935 H 0.5577 0.61349 0.7772 0.0
H936 H 0.52546 0.58964 0.80534 0.0
H937 H 0.4884 0.52419 0.76962 0.0
H938 H 0.54668 0.55777 0.83891 0.0
H939 H 0.57569 0.58245 0.87347 0.0
H940 H 0.53077 0.59658 0.91769 0.0
H941 H 0.50214 0.5736 0.88141 0.0
C942 C 0.45061 0.49506 0.85394 0.0
C943 C 0.43714 0.49977 0.87099 0.0
C944 C 0.42117 0.48327 0.8875 0.0
C945 C 0.41871 0.46198 0.88736 0.0
C946 C 0.43216 0.45727 0.87036 0.0
C947 C 0.44805 0.47372 0.85384 0.0
C948 C 0.46802 0.51265 0.83717 0.0
C949 C 0.48485 0.53113 0.85239 0.0
C950 C 0.46928 0.51017 0.80695 0.0
C951 C 0.4525 0.49038 0.79003 0.0
C952 C 0.43043 0.48441 0.79034 0.0
C953 C 0.41451 0.46442 0.777 0.0
C954 C 0.42046 0.45011 0.76331 0.0
C955 C 0.44256 0.45655 0.76183 0.0
C956 C 0.45848 0.4766 0.77497 0.0
C957 C 0.52431 0.55906 0.79186 0.0
C958 C 0.53421 0.54976 0.77501 0.0
C959 C 0.55229 0.56321 0.75899 0.0
C960 C 0.56081 0.58621 0.75953 0.0
C961 C 0.55119 0.59571 0.77657 0.0
C962 C 0.53293 0.58216 0.7926 0.0
C963 C 0.50483 0.5442 0.80818 0.0
C964 C 0.48749 0.52614 0.79283 0.0
C965 C 0.50359 0.54679 0.83852 0.0
C966 C 0.52211 0.56396 0.85706 0.0
C967 C 0.54319 0.56697 0.85503 0.0
C968 C 0.55977 0.58088 0.87503 0.0
C969 C 0.55534 0.59118 0.89832 0.0
C970 C 0.53455 0.5888 0.89991 0.0
C971 C 0.51818 0.57555 0.87928 0.0
H972 H 0.59903 0.82022 0.47033 0.0
H973 H 0.59719 0.84968 0.44409 0.0
H974 H 0.66326 0.89635 0.47257 0.0
H975 H 0.66525 0.86703 0.49845 0.0
H976 H 0.62753 0.80362 0.46414 0.0
H977 H 0.60966 0.8411 0.54031 0.0
H978 H 0.61626 0.87531 0.56614 0.0
H979 H 0.68142 0.89027 0.58996 0.0
H980 H 0.67491 0.85619 0.56425 0.0
H981 H 0.67876 0.80458 0.5606 0.0
H982 H 0.6888 0.78022 0.58581 0.0
H983 H 0.62624 0.72368 0.56132 0.0
H984 H 0.61608 0.74806 0.53598 0.0
H985 H 0.64666 0.81316 0.56934 0.0
H986 H 0.66885 0.78127 0.49479 0.0
H987 H 0.67059 0.7548 0.46057 0.0
H988 H 0.60515 0.73339 0.42941 0.0
H989 H 0.60309 0.75946 0.46415 0.0
C990 C 0.63217 0.84152 0.4866 0.0
C991 C 0.61312 0.83677 0.47084 0.0
C992 C 0.61205 0.85351 0.45598 0.0
C993 C 0.63009 0.87509 0.45654 0.0
C994 C 0.64919 0.87978 0.47201 0.0
C995 C 0.65027 0.8631 0.48682 0.0
C996 C 0.63339 0.824 0.50275 0.0
C997 C 0.63117 0.80533 0.48728 0.0
C998 C 0.63882 0.8267 0.53275 0.0
C999 C 0.64188 0.84625 0.55016 0.0
C1000 C 0.62528 0.85164 0.55132 0.0
C1001 C 0.62897 0.871 0.56615 0.0
C1002 C 0.64932 0.8852 0.57986 0.0
C1003 C 0.66561 0.87942 0.57957 0.0
C1004 C 0.66189 0.86003 0.56492 0.0
C1005 C 0.64675 0.77804 0.54627 0.0
C1006 C 0.66711 0.78696 0.56086 0.0
C1007 C 0.67283 0.77316 0.57526 0.0
C1008 C 0.65819 0.7503 0.57545 0.0
C1009 C 0.63763 0.74136 0.56143 0.0
C1010 C 0.63194 0.75518 0.54686 0.0
C1011 C 0.64117 0.79292 0.5307 0.0
C1012 C 0.64245 0.81104 0.54633 0.0
C1013 C 0.63543 0.78991 0.50074 0.0
C1014 C 0.63573 0.77224 0.48232 0.0
C1015 C 0.65459 0.77042 0.48131 0.0
C1016 C 0.65563 0.75536 0.46176 0.0
C1017 C 0.63794 0.74208 0.44268 0.0
C1018 C 0.61886 0.74336 0.4442 0.0
C1019 C 0.61776 0.75832 0.46387 0.0
H1020 H 0.16445 0.76049 0.47509 0.0
H1021 H 0.13721 0.73737 0.43735 0.0
H1022 H 0.08936 0.74809 0.47947 0.0
H1023 H 0.11687 0.77258 0.5159 0.0
H1024 H 0.18018 0.80176 0.48126 0.0
H1025 H 0.14211 0.74291 0.55118 0.0
H1026 H 0.11171 0.71707 0.58068 0.0
H1027 H 0.10211 0.77077 0.60961 0.0
H1028 H 0.13225 0.79647 0.58036 0.0
H1029 H 0.18539 0.85 0.58532 0.0
H1030 H 0.21218 0.88492 0.61023 0.0
H1031 H 0.26418 0.87495 0.5813 0.0
H1032 H 0.2374 0.83992 0.55631 0.0
H1033 H 0.17372 0.80737 0.58731 0.0
H1034 H 0.2057 0.86468 0.52083 0.0
H1035 H 0.23246 0.89414 0.49132 0.0
H1036 H 0.24876 0.84789 0.45181 0.0
H1037 H 0.22263 0.81847 0.48228 0.0
C1038 C 0.14284 0.76831 0.49863 0.0
C1039 C 0.14803 0.75767 0.47652 0.0
C1040 C 0.13247 0.74436 0.45504 0.0
C1041 C 0.11129 0.74107 0.45557 0.0
C1042 C 0.1056 0.75035 0.47876 0.0
C1043 C 0.12132 0.76418 0.49978 0.0
C1044 C 0.16052 0.78589 0.51778 0.0
C1045 C 0.17902 0.80253 0.5046 0.0
C1046 C 0.15862 0.78778 0.54804 0.0
C1047 C 0.13943 0.77159 0.56371 0.0
C1048 C 0.13325 0.74901 0.56357 0.0
C1049 C 0.116 0.73433 0.58032 0.0
C1050 C 0.10479 0.74214 0.59716 0.0
C1051 C 0.11061 0.76453 0.59666 0.0
C1052 C 0.12781 0.77915 0.58011 0.0
C1053 C 0.20941 0.84248 0.56866 0.0
C1054 C 0.20252 0.85504 0.58483 0.0
C1055 C 0.21775 0.87493 0.59906 0.0
C1056 C 0.24009 0.88244 0.59756 0.0
C1057 C 0.24698 0.86932 0.58275 0.0
C1058 C 0.23174 0.84947 0.56838 0.0
C1059 C 0.19328 0.82288 0.55075 0.0
C1060 C 0.17514 0.80607 0.56409 0.0
C1061 C 0.19515 0.82117 0.52047 0.0
C1062 C 0.21243 0.83942 0.50419 0.0
C1063 C 0.21544 0.86095 0.5065 0.0
C1064 C 0.23055 0.87771 0.48953 0.0
C1065 C 0.24251 0.87308 0.46957 0.0
C1066 C 0.23968 0.85168 0.46727 0.0
C1067 C 0.22479 0.83498 0.48456 0.0
H1068 H 0.11764 0.33436 0.50175 0.0
H1069 H 0.0907 0.32842 0.46337 0.0
H1070 H 0.13026 0.39626 0.43884 0.0
H1071 H 0.15724 0.40235 0.47734 0.0
H1072 H 0.17887 0.38037 0.47423 0.0
H1073 H 0.13083 0.32798 0.56973 0.0
H1074 H 0.10063 0.32082 0.60104 0.0
H1075 H 0.10655 0.38338 0.57901 0.0
H1076 H 0.13694 0.39071 0.54761 0.0
H1077 H 0.21432 0.38699 0.59151 0.0
H1078 H 0.23738 0.37624 0.61904 0.0
H1079 H 0.22771 0.32837 0.55112 0.0
H1080 H 0.20467 0.33904 0.5236 0.0
H1081 H 0.1713 0.35941 0.57698 0.0
H1082 H 0.23604 0.40808 0.52236 0.0
H1083 H 0.26845 0.41531 0.49538 0.0
H1084 H 0.22819 0.35941 0.43732 0.0
H1085 H 0.19584 0.35262 0.46365 0.0
C1086 C 0.13944 0.36885 0.49253 0.0
C1087 C 0.12016 0.34823 0.48892 0.0
C1088 C 0.10484 0.34479 0.46695 0.0
C1089 C 0.10858 0.36191 0.44836 0.0
C1090 C 0.12709 0.38293 0.45314 0.0
C1091 C 0.14244 0.38636 0.47504 0.0
C1092 C 0.15787 0.37084 0.51068 0.0
C1093 C 0.17726 0.37615 0.49687 0.0
C1094 C 0.15585 0.36512 0.5401 0.0
C1095 C 0.13615 0.35989 0.55638 0.0
C1096 C 0.12553 0.34009 0.57138 0.0
C1097 C 0.10832 0.33597 0.58915 0.0
C1098 C 0.10154 0.35163 0.5923 0.0
C1099 C 0.11164 0.37115 0.57672 0.0
C1100 C 0.12885 0.37525 0.55878 0.0
C1101 C 0.20792 0.36397 0.55537 0.0
C1102 C 0.21746 0.37446 0.58231 0.0
C1103 C 0.23063 0.36838 0.59796 0.0
C1104 C 0.23424 0.35155 0.58705 0.0
C1105 C 0.22523 0.3415 0.55977 0.0
C1106 C 0.21217 0.34766 0.54406 0.0
C1107 C 0.19193 0.3685 0.5403 0.0
C1108 C 0.173 0.36422 0.55458 0.0
C1109 C 0.19419 0.37498 0.51126 0.0
C1110 C 0.21368 0.37975 0.495 0.0
C1111 C 0.23424 0.39752 0.5037 0.0
C1112 C 0.25262 0.40168 0.48833 0.0
C1113 C 0.25061 0.38779 0.46454 0.0
C1114 C 0.22999 0.37027 0.45564 0.0
C1115 C 0.21161 0.36638 0.47063 0.0
C1116 C 0.98878 0.36778 0.07651 0.0
C1117 C 0.97442 0.36073 0.05173 0.0
C1118 C 0.95678 0.38065 0.07119 0.0
C1119 C 0.97383 0.39115 0.09262 0.0
N1120 N 0.00571 0.39439 0.11692 0.0
N1121 N 0.93806 0.35038 0.0355 0.0
C1122 C 0.98959 0.3844 0.09588 0.0
C1123 C 0.95629 0.3641 0.05207 0.0
N1124 N 0.00015 0.35727 0.08284 0.0
N1125 N 0.94168 0.38725 0.06818 0.0
H1126 H 0.93656 0.33664 0.02385 0.0
H1127 H 0.92358 0.35072 0.03632 0.0
H1128 H 0.94118 0.39894 0.08219 0.0
H1129 H 0.93051 0.38221 0.05075 0.0
H1130 H 0.00985 0.36066 0.10158 0.0
H1131 H -0.00278 0.3428 0.07171 0.0
H1132 H 0.01925 0.39231 0.11809 0.0
H1133 H 0.0062 0.40583 0.13234 0.0
C1134 C 0.63178 0.58645 0.10216 0.0
C1135 C 0.62289 0.59108 0.07728 0.0
C1136 C 0.58644 0.56071 0.08751 0.0
C1137 C 0.59531 0.55611 0.11243 0.0
N1138 N 0.6264 0.56154 0.14116 0.0
N1139 N 0.59313 0.58058 0.04301 0.0
C1140 C 0.61804 0.56799 0.11895 0.0
C1141 C 0.60059 0.57755 0.06898 0.0
N1142 N 0.65314 0.60035 0.11044 0.0
N1143 N 0.5644 0.54932 0.08205 0.0
H1144 H 0.60323 0.59286 0.02922 0.0
H1145 H 0.57763 0.57003 0.03401 0.0
H1146 H 0.5536 0.536 0.09416 0.0
H1147 H 0.55655 0.55364 0.06645 0.0
H1148 H 0.66006 0.59959 0.13013 0.0
H1149 H 0.66387 0.61361 0.0982 0.0
H1150 H 0.64299 0.56791 0.14524 0.0
H1151 H 0.61667 0.54859 0.15451 0.0
C1152 C 0.39093 0.01559 0.06336 0.0
C1153 C 0.39416 0.00526 0.03856 0.0
C1154 C 0.42429 0.00429 0.06413 0.0
C1155 C 0.42005 0.01312 0.08955 0.0
N1156 N 0.39777 0.02449 0.11506 0.0
N1157 N 0.41088 0.98568 0.01722 0.0
C1158 C 0.40286 0.01796 0.08968 0.0
C1159 C 0.41004 -0.00149 0.03945 0.0
N1160 N 0.37717 0.02395 0.06137 0.0
N1161 N 0.44228 0.0019 0.06333 0.0
H1162 H 0.4007 0.98089 0.99874 0.0
H1163 H 0.42027 0.97803 0.01818 0.0
H1164 H 0.45289 0.00535 0.08113 0.0
H1165 H 0.44771 -0.00182 0.04437 0.0
H1166 H 0.37576 0.03367 0.07769 0.0
H1167 H 0.36833 0.02269 0.04242 0.0
H1168 H 0.384 0.02601 0.11739 0.0
H1169 H 0.40653 0.02685 0.13449 0.0
C1170 C 0.37626 0.94133 0.94688 0.0
C1171 C 0.36286 0.94844 0.9331 0.0
C1172 C 0.38136 0.95257 0.88757 0.0
C1173 C 0.39492 0.9457 0.9013 0.0
N1174 N 0.40151 0.92769 0.9409 0.0
N1175 N 0.34752 0.95304 0.88859 0.0
C1176 C 0.39104 0.93805 0.92997 0.0
C1177 C 0.36374 0.95145 0.9028 0.0
N1178 N 0.37592 0.93903 0.97619 0.0
N1179 N 0.38602 0.9614 0.86073 0.0
H1180 H 0.334 0.9516 0.8991 0.0
H1181 H 0.34627 0.95329 0.86611 0.0
H1182 H 0.39893 0.96277 0.84877 0.0
H1183 H 0.37813 0.96902 0.85126 0.0
H1184 H 0.38717 0.93647 0.98775 0.0
H1185 H 0.36545 0.94129 0.98947 0.0
H1186 H 0.39791 0.91989 0.96064 0.0
H1187 H 0.4124 0.92507 0.92889 0.0
C1188 C 0.03097 0.40133 0.92166 0.0
C1189 C 0.02634 0.39858 0.95157 0.0
C1190 C 0.02069 0.4306 0.95248 0.0
C1191 C 0.0259 0.43367 0.92279 0.0
N1192 N 0.0392 0.42457 0.88002 0.0
N1193 N 0.01945 0.41172 0.99664 0.0
C1194 C 0.03198 0.41978 0.90764 0.0
C1195 C 0.02215 0.41368 0.96741 0.0
N1196 N 0.03402 0.38603 0.90656 0.0
N1197 N 0.01348 0.44329 0.96599 0.0
H1198 H 0.0195 0.399 0.00805 0.0
H1199 H 0.01853 0.4234 0.01007 0.0
H1200 H 0.01258 0.45606 0.95585 0.0
H1201 H 0.0071 0.44043 0.98656 0.0
H1202 H 0.03457 0.38529 0.88409 0.0
H1203 H 0.03498 0.3732 0.9164 0.0
H1204 H 0.04607 0.41662 0.86873 0.0
H1205 H 0.03982 0.43773 0.86887 0.0
C1206 C 0.5926 0.63477 0.95595 0.0
C1207 C 0.60099 0.62287 0.97075 0.0
C1208 C 0.57902 0.59028 0.93888 0.0
C1209 C 0.57173 0.60253 0.9226 0.0
N1210 N 0.57537 0.63794 0.91184 0.0
N1211 N 0.6073 0.59182 0.97036 0.0
C1212 C 0.57965 0.62528 0.93001 0.0
C1213 C 0.59595 0.6015 0.9602 0.0
N1214 N 0.59689 0.65503 0.9668 0.0
N1215 N 0.56889 0.56769 0.93542 0.0
H1216 H 0.62024 0.59963 0.98546 0.0
H1217 H 0.60546 0.57709 0.96136 0.0
H1218 H 0.5555 0.55846 0.92132 0.0
H1219 H 0.57219 0.55788 0.94895 0.0
H1220 H 0.58924 0.66338 0.95891 0.0
H1221 H 0.60731 0.66294 0.9848 0.0
H1222 H 0.58234 0.65506 0.91471 0.0
H1223 H 0.56641 0.63163 0.89235 0.0
C1224 C 0.0287 0.6354 0.95756 0.0
C1225 C 0.00804 0.62709 0.97011 0.0
C1226 C 0.99417 0.5924 0.94158 0.0
C1227 C 0.01442 0.6009 0.92785 0.0
N1228 N 0.04904 0.63274 0.91745 0.0
N1229 N 0.96925 0.60127 0.96484 0.0
C1230 C 0.03116 0.62314 0.93421 0.0
C1231 C 0.99014 0.60685 0.95903 0.0
N1232 N 0.04596 0.65495 0.968 0.0
N1233 N 0.97923 0.57022 0.93969 0.0
H1234 H 0.96526 0.61162 0.97649 0.0
H1235 H 0.95575 0.58746 0.9551 0.0
H1236 H 0.98195 0.5586 0.9288 0.0
H1237 H 0.96522 0.56306 0.95181 0.0
H1238 H 0.06196 0.66055 0.96222 0.0
H1239 H 0.04429 0.66513 0.98343 0.0
H1240 H 0.06085 0.64948 0.9194 0.0
H1241 H 0.05099 0.62444 0.8997 0.0
C1242 C 0.36906 0.40793 0.90691 0.0
C1243 C 0.3724 0.40844 0.93743 0.0
C1244 C 0.40564 0.44469 0.93537 0.0
C1245 C 0.40202 0.44439 0.90501 0.0
N1246 N 0.37828 0.42846 0.86268 0.0
N1247 N 0.39105 0.42911 0.98156 0.0
C1248 C 0.3831 0.42678 0.891 0.0
C1249 C 0.38971 0.42747 0.95196 0.0
N1250 N 0.35251 0.38937 0.89312 0.0
N1251 N 0.42485 0.46076 0.94812 0.0
H1252 H 0.38066 0.41634 0.99465 0.0
H1253 H 0.4017 0.44367 0.99325 0.0
H1254 H 0.43692 0.47373 0.93677 0.0
H1255 H 0.42962 0.46034 0.96944 0.0
H1256 H 0.35101 0.38676 0.87071 0.0
H1257 H 0.34068 0.37596 0.90412 0.0
H1258 H 0.36369 0.41726 0.85188 0.0
H1259 H 0.38815 0.44216 0.85048 0.0
C1260 C 0.58911 0.9641 0.96853 0.0
C1261 C 0.60548 0.98654 0.97459 0.0
C1262 C 0.59602 0.99654 0.92811 0.0
C1263 C 0.57691 0.97547 0.92563 0.0
N1264 N 0.55425 0.9392 0.94462 0.0
N1265 N 0.62287 0.02504 0.96059 0.0
C1266 C 0.57326 0.9591 0.94594 0.0
C1267 C 0.60882 0.00302 0.95429 0.0
N1268 N 0.58901 0.94753 0.98391 0.0
N1269 N 0.60181 0.01044 0.90543 0.0
H1270 H 0.63234 0.03121 0.9796 0.0
H1271 H 0.62369 0.0376 0.94792 0.0
H1272 H 0.59271 0.00603 0.88592 0.0
H1273 H 0.61669 0.02517 0.90488 0.0
H1274 H 0.57859 0.93074 0.97874 0.0
H1275 H 0.60098 0.95052 0.99968 0.0
H1276 H 0.5497 0.92773 0.96089 0.0
H1277 H 0.54229 0.93481 0.92832 0.0
C1278 C 0.60582 0.03824 0.06278 0.0
C1279 C 0.6262 0.04468 0.07665 0.0
C1280 C 0.61409 0.0536 0.12177 0.0
C1281 C 0.59282 0.04416 0.1091 0.0
N1282 N 0.56781 0.02747 0.06802 0.0
N1283 N 0.6505 0.05886 0.11867 0.0
C1284 C 0.58856 0.03675 0.07957 0.0
C1285 C 0.63065 0.05277 0.10589 0.0
N1286 N 0.60305 0.03349 0.03363 0.0
N1287 N 0.61836 0.06335 0.14896 0.0
H1288 H 0.66339 0.05972 0.10713 0.0
H1289 H 0.65405 0.06226 0.14078 0.0
H1290 H 0.60643 0.06378 0.16138 0.0
H1291 H 0.63391 0.07241 0.15852 0.0
H1292 H 0.58926 0.0304 0.02149 0.0
H1293 H 0.61547 0.0344 0.02103 0.0
H1294 H 0.56295 0.0194 0.04775 0.0
H1295 H 0.55497 0.02687 0.0794 0.0
C1296 C 0.96536 0.59847 0.10802 0.0
C1297 C 0.96601 0.59919 0.07731 0.0
C1298 C 0.96964 0.56596 0.07502 0.0
C1299 C 0.96838 0.56491 0.10561 0.0
N1300 N 0.96127 0.57741 0.151 0.0
N1301 N 0.96483 0.5817 0.03118 0.0
C1302 C 0.96511 0.58037 0.12206 0.0
C1303 C 0.96677 0.58222 0.06069 0.0
N1304 N 0.96529 0.61531 0.12377 0.0
N1305 N 0.97465 0.5521 0.05984 0.0
H1306 H 0.96321 0.59362 0.02008 0.0
H1307 H 0.96302 0.5686 0.01783 0.0
H1308 H 0.97673 0.53987 0.06952 0.0
H1309 H 0.97837 0.5537 0.03802 0.0
H1310 H 0.96772 0.6174 0.14617 0.0
H1311 H 0.96376 0.62793 0.11427 0.0
H1312 H 0.95664 0.58674 0.16377 0.0
H1313 H 0.9611 0.5644 0.16198 0.0
C1314 C 0.41964 0.404 0.03709 0.0
C1315 C 0.40225 0.38162 0.03757 0.0
C1316 C 0.41345 0.37887 0.08738 0.0
C1317 C 0.42988 0.40157 0.08735 0.0
N1318 N 0.44697 0.43674 0.0642 0.0
N1319 N 0.38143 0.34802 0.06343 0.0
C1320 C 0.43254 0.41438 0.06273 0.0
C1321 C 0.39877 0.36915 0.06288 0.0
N1322 N 0.42402 0.41539 0.01204 0.0
N1323 N 0.41232 0.36653 0.11059 0.0
H1324 H 0.37133 0.33978 0.04531 0.0
H1325 H 0.37635 0.3389 0.08207 0.0
H1326 H 0.42246 0.37331 0.12908 0.0
H1327 H 0.40235 0.34939 0.11102 0.0
H1328 H 0.43815 0.43048 0.00917 0.0
H1329 H 0.41427 0.40933 0.99321 0.0
H1330 H 0.4477 0.4476 0.04857 0.0
H1331 H 0.45728 0.44493 0.08216 0.0
C1332 C 0.64704 0.72572 0.36732 0.0
C1333 C 0.64513 0.70467 0.37211 0.0
C1334 C 0.63684 0.70737 0.42312 0.0
C1335 C 0.64039 0.72901 0.41862 0.0
N1336 N 0.65232 0.76038 0.38813 0.0
N1337 N 0.63931 0.67575 0.40467 0.0
C1338 C 0.64635 0.73857 0.39116 0.0
C1339 C 0.64043 0.69562 0.40012 0.0
N1340 N 0.64938 0.73356 0.33995 0.0
N1341 N 0.62947 0.6979 0.44916 0.0
H1342 H 0.64006 0.66584 0.38798 0.0
H1343 H 0.63854 0.6694 0.42506 0.0
H1344 H 0.62712 0.70626 0.4665 0.0
H1345 H 0.62437 0.68141 0.4532 0.0
H1346 H 0.64752 0.74698 0.33467 0.0
H1347 H 0.65189 0.72607 0.32186 0.0
H1348 H 0.65965 0.76924 0.36984 0.0
H1349 H 0.65168 0.77035 0.40483 0.0
C1350 C 0.29313 0.92172 0.4399 0.0
C1351 C 0.28412 0.92561 0.41452 0.0
C1352 C 0.248 0.89457 0.42475 0.0
C1353 C 0.25708 0.89045 0.44986 0.0
N1354 N 0.28832 0.8976 0.47967 0.0
N1355 N 0.25421 0.9144 0.38021 0.0
C1356 C 0.27971 0.90324 0.45686 0.0
C1357 C 0.26188 0.9116 0.40619 0.0
N1358 N 0.31429 0.93629 0.4484 0.0
N1359 N 0.226 0.88248 0.41906 0.0
H1360 H 0.26397 0.92701 0.36657 0.0
H1361 H 0.23883 0.9035 0.37114 0.0
H1362 H 0.21546 0.86906 0.43123 0.0
H1363 H 0.21788 0.88628 0.40324 0.0
H1364 H 0.32121 0.93606 0.46836 0.0
H1365 H 0.32482 0.94962 0.4361 0.0
H1366 H 0.30495 0.90459 0.48411 0.0
H1367 H 0.27882 0.88476 0.4933 0.0
C1368 C 0.08449 0.33997 0.37253 0.0
C1369 C 0.06843 0.34642 0.37046 0.0
C1370 C 0.07778 0.36198 0.42037 0.0
C1371 C 0.09483 0.35696 0.42152 0.0
N1372 N 0.11715 0.34494 0.39715 0.0
N1373 N 0.05218 0.36686 0.39026 0.0
C1374 C 0.099 0.34709 0.39711 0.0
C1375 C 0.06569 0.35832 0.39384 0.0
N1376 N 0.08522 0.32609 0.35171 0.0
N1377 N 0.07288 0.36981 0.4448 0.0
H1378 H 0.04338 0.36483 0.37098 0.0
H1379 H 0.05112 0.37757 0.40537 0.0
H1380 H 0.08173 0.3731 0.46437 0.0
H1381 H 0.05916 0.37151 0.44631 0.0
H1382 H 0.09475 0.31866 0.35384 0.0
H1383 H 0.07489 0.32032 0.33334 0.0
H1384 H 0.12244 0.34033 0.37877 0.0
H1385 H 0.12804 0.34956 0.41489 0.0
C1386 C 0.04597 0.27572 0.28764 0.0
C1387 C 0.031 0.28068 0.27371 0.0
C1388 C 0.04609 0.28051 0.2266 0.0
C1389 C 0.06141 0.27606 0.2405 0.0
N1390 N 0.07198 0.26299 0.2821 0.0
N1391 N 0.01176 0.27986 0.22976 0.0
C1392 C 0.05993 0.27141 0.27037 0.0
C1393 C 0.02939 0.28036 0.24306 0.0
N1394 N 0.04792 0.27652 0.31719 0.0
N1395 N 0.04827 0.28629 0.19825 0.0
H1396 H -0.00102 0.27921 0.24137 0.0
H1397 H 0.00871 0.27764 0.20743 0.0
H1398 H 0.06036 0.28677 0.1853 0.0
H1399 H 0.03907 0.29226 0.18816 0.0
H1400 H 0.06031 0.27564 0.32841 0.0
H1401 H 0.03808 0.27962 0.33069 0.0
H1402 H 0.07023 0.25737 0.30312 0.0
H1403 H 0.08227 0.25965 0.2698 0.0
C1404 C 0.69259 0.74567 0.28799 0.0
C1405 C 0.69124 0.72725 0.27214 0.0
C1406 C 0.69243 0.74523 0.22645 0.0
C1407 C 0.69138 0.76236 0.24226 0.0
N1408 N 0.687 0.77726 0.28762 0.0
N1409 N 0.68854 0.70861 0.22619 0.0
C1410 C 0.69069 0.76224 0.27293 0.0
C1411 C 0.69066 0.72674 0.24131 0.0
N1412 N 0.69551 0.74738 0.31748 0.0
N1413 N 0.69603 0.74715 0.19739 0.0
H1414 H 0.68918 0.69561 0.23601 0.0
H1415 H 0.68508 0.70589 0.20398 0.0
H1416 H 0.69772 0.76061 0.1859 0.0
H1417 H 0.69918 0.73645 0.18503 0.0
H1418 H 0.69965 0.76182 0.32961 0.0
H1419 H 0.69478 0.73478 0.32997 0.0
H1420 H 0.68379 0.77647 0.3096 0.0
H1421 H 0.68522 0.78949 0.27742 0.0
C1422 C 0.25776 0.93568 0.29574 0.0
C1423 C 0.2631 0.95718 0.30623 0.0
C1424 C 0.24274 0.96032 0.26479 0.0
C1425 C 0.23472 0.93761 0.25708 0.0
N1426 N 0.23102 0.90237 0.2696 0.0
N1427 N 0.25982 0.9898 0.30195 0.0
C1428 C 0.24133 0.92494 0.27365 0.0
C1429 C 0.25531 0.96948 0.2911 0.0
N1430 N 0.26835 0.92544 0.30668 0.0
N1431 N 0.23891 0.97327 0.24656 0.0
H1432 H 0.26999 0.99749 0.32022 0.0
H1433 H 0.25257 -0.00153 0.2938 0.0
H1434 H 0.23014 0.96717 0.22692 0.0
H1435 H 0.24602 0.99039 0.2496 0.0
H1436 H 0.26644 0.91068 0.29772 0.0
H1437 H 0.28075 0.93274 0.32259 0.0
H1438 H 0.23366 0.89219 0.28326 0.0
H1439 H 0.2181 0.89351 0.25468 0.0
C1440 C 0.68575 0.96309 0.28904 0.0
C1441 C 0.68403 0.95535 0.31765 0.0
C1442 C 0.69051 0.9259 0.29925 0.0
C1443 C 0.68837 0.93122 0.27044 0.0
N1444 N 0.68162 0.95366 0.23751 0.0
N1445 N 0.67993 0.9257 0.34842 0.0
C1446 C 0.68546 0.94958 0.26515 0.0
C1447 C 0.68527 0.93585 0.32244 0.0
N1448 N 0.68838 0.98362 0.28471 0.0
N1449 N 0.69772 0.91138 0.30455 0.0
H1450 H 0.67449 0.93113 0.36581 0.0
H1451 H 0.67841 0.91023 0.35162 0.0
H1452 H 0.7021 0.904 0.28809 0.0
H1453 H 0.7016 0.9086 0.32534 0.0
H1454 H 0.69169 0.99092 0.26462 0.0
H1455 H 0.68956 0.99432 0.30172 0.0
H1456 H 0.67703 0.96532 0.23269 0.0
H1457 H 0.68136 0.94419 0.21953 0.0
C1458 C 0.06783 0.75748 0.28234 0.0
C1459 C 0.04574 0.74276 0.27388 0.0
C1460 C 0.05013 0.76334 0.22974 0.0
C1461 C 0.07201 0.7784 0.23871 0.0
N1462 N 0.10075 0.79264 0.27557 0.0
N1463 N 0.01457 0.73358 0.24256 0.0
C1464 C 0.08056 0.77636 0.26571 0.0
C1465 C 0.03646 0.74636 0.24855 0.0
N1466 N 0.07682 0.75302 0.30578 0.0
N1467 N 0.04271 0.76474 0.20277 0.0
H1468 H 0.00414 0.72066 0.25549 0.0
H1469 H 0.0064 0.73679 0.22613 0.0
H1470 H 0.05212 0.77729 0.18872 0.0
H1471 H 0.02781 0.75272 0.19347 0.0
H1472 H 0.09342 0.76144 0.31116 0.0
H1473 H 0.06767 0.73985 0.31899 0.0
H1474 H 0.10701 0.79336 0.29638 0.0
H1475 H 0.11069 0.80652 0.26372 0.0
C1476 C 0.27624 0.34396 0.29313 0.0
C1477 C 0.27353 0.3275 0.31301 0.0
C1478 C 0.24186 0.2995 0.28408 0.0
C1479 C 0.24505 0.31581 0.26387 0.0
N1480 N 0.26878 0.35158 0.24461 0.0
N1481 N 0.25807 0.28857 0.3222 0.0
C1482 C 0.26349 0.33737 0.26689 0.0
C1483 C 0.25768 0.30491 0.30682 0.0
N1484 N 0.28975 0.36599 0.29997 0.0
N1485 N 0.22326 0.27923 0.28253 0.0
H1486 H 0.26994 0.29188 0.33827 0.0
H1487 H 0.24816 0.27173 0.31686 0.0
H1488 H 0.21124 0.27454 0.26624 0.0
H1489 H 0.21899 0.2677 0.2987 0.0
H1490 H 0.29026 0.37859 0.28769 0.0
H1491 H 0.29901 0.37192 0.3192 0.0
H1492 H 0.28323 0.36677 0.24443 0.0
H1493 H 0.25977 0.34712 0.22502 0.0
C1494 C 0.30253 0.38711 0.44802 0.0
C1495 C 0.30227 0.38832 0.41744 0.0
C1496 C 0.27256 0.39651 0.41991 0.0
C1497 C 0.27006 0.39071 0.44941 0.0
N1498 N 0.28138 0.37808 0.4911 0.0
N1499 N 0.28639 0.39333 0.3736 0.0
C1500 C 0.28488 0.38566 0.46354 0.0
C1501 C 0.28737 0.3932 0.40314 0.0
N1502 N 0.31978 0.38744 0.4622 0.0
N1503 N 0.26083 0.40524 0.40805 0.0
H1504 H 0.29718 0.39142 0.36058 0.0
H1505 H 0.27402 0.39398 0.36194 0.0
H1506 H 0.24999 0.408 0.41995 0.0
H1507 H 0.26338 0.41167 0.38744 0.0
H1508 H 0.32179 0.38858 0.48469 0.0
H1509 H 0.33326 0.38904 0.45138 0.0
H1510 H 0.29036 0.3718 0.50106 0.0
H1511 H 0.26835 0.37619 0.5032 0.0
C1512 C 0.63117 0.91184 0.3959 0.0
C1513 C 0.63176 0.92964 0.41237 0.0
C1514 C 0.62716 0.90947 0.45704 0.0
C1515 C 0.62919 0.89304 0.44098 0.0
N1516 N 0.63538 0.87935 0.39587 0.0
N1517 N 0.63096 0.94606 0.4586 0.0
C1518 C 0.63155 0.89428 0.41055 0.0
C1519 C 0.62993 0.92862 0.44297 0.0
N1520 N 0.6305 0.91176 0.36629 0.0
N1521 N 0.62198 0.90637 0.4856 0.0
H1522 H 0.63104 0.95952 0.44903 0.0
H1523 H 0.63271 0.94776 0.48109 0.0
H1524 H 0.61977 0.89248 0.49652 0.0
H1525 H 0.61816 0.91655 0.49797 0.0
H1526 H 0.62723 0.89801 0.35319 0.0
H1527 H 0.63209 0.92503 0.35451 0.0
H1528 H 0.63993 0.8809 0.37438 0.0
H1529 H 0.6356 0.86615 0.40574 0.0
C1530 C 0.0734 0.73199 0.39073 0.0
C1531 C 0.06829 0.71052 0.3804 0.0
C1532 C 0.08821 0.70748 0.42244 0.0
C1533 C 0.09592 0.73014 0.43019 0.0
N1534 N 0.09956 0.7653 0.41741 0.0
N1535 N 0.07182 0.67809 0.38507 0.0
C1536 C 0.08945 0.74276 0.41325 0.0
C1537 C 0.07601 0.69832 0.39587 0.0
N1538 N 0.06291 0.74215 0.37922 0.0
N1539 N 0.09197 0.6946 0.44088 0.0
H1540 H 0.06201 0.67045 0.36651 0.0
H1541 H 0.07904 0.66948 0.39354 0.0
H1542 H 0.1005 0.70072 0.46068 0.0
H1543 H 0.08505 0.67751 0.4378 0.0
H1544 H 0.06458 0.75687 0.388 0.0
H1545 H 0.0508 0.73484 0.36293 0.0
H1546 H 0.09706 0.77548 0.40355 0.0
H1547 H 0.1122 0.77418 0.4327 0.0
C1548 C 0.30189 0.03081 0.73941 0.0
C1549 C 0.32169 0.04029 0.72445 0.0
C1550 C 0.33494 0.07519 0.7524 0.0
C1551 C 0.31556 0.06559 0.76832 0.0
N1552 N 0.28315 0.03249 0.78202 0.0
N1553 N 0.35975 0.06866 0.72453 0.0
C1554 C 0.29978 0.04279 0.76339 0.0
C1555 C 0.33915 0.06146 0.73365 0.0
N1556 N 0.28506 0.01045 0.73051 0.0
N1557 N 0.34868 0.09766 0.75343 0.0
H1558 H 0.36379 0.05909 0.71125 0.0
H1559 H 0.37326 0.08319 0.7328 0.0
H1560 H 0.34571 0.10867 0.7654 0.0
H1561 H 0.36175 0.10556 0.7398 0.0
H1562 H 0.26937 0.00378 0.7382 0.0
H1563 H 0.28664 0.00065 0.71439 0.0
H1564 H 0.27225 0.01546 0.78108 0.0
H1565 H 0.28151 0.04065 0.80018 0.0
C1566 C 0.96648 0.25158 0.77051 0.0
C1567 C 0.95821 0.25615 0.74497 0.0
C1568 C 0.92192 0.22445 0.75247 0.0
C1569 C 0.93017 0.21989 0.77801 0.0
N1570 N 0.9605 0.22626 0.80921 0.0
N1571 N 0.92967 0.2452 0.70857 0.0
C1572 C 0.95258 0.23254 0.7863 0.0
C1573 C 0.93638 0.24199 0.735 0.0
N1574 N 0.98736 0.26601 0.78027 0.0
N1575 N 0.90011 0.21239 0.74544 0.0
H1576 H 0.93999 0.25804 0.6956 0.0
H1577 H 0.91468 0.23435 0.69845 0.0
H1578 H 0.88916 0.19872 0.75691 0.0
H1579 H 0.89253 0.21649 0.72919 0.0
H1580 H 0.99368 0.26525 0.80045 0.0
H1581 H -0.00175 0.27965 0.76871 0.0
H1582 H 0.97699 0.2333 0.81467 0.0
H1583 H 0.9506 0.21285 0.82181 0.0
C1584 C 0.74948 0.71101 0.72183 0.0
C1585 C 0.73482 0.68799 0.71639 0.0
C1586 C 0.7441 0.68056 0.76467 0.0
C1587 C 0.76168 0.70266 0.76738 0.0
N1588 N 0.78232 0.73892 0.74743 0.0
N1589 N 0.72034 0.65022 0.73171 0.0
C1590 C 0.76458 0.71802 0.74584 0.0
C1591 C 0.73241 0.67256 0.73774 0.0
N1592 N 0.74862 0.72621 0.70448 0.0
N1593 N 0.73881 0.66717 0.78785 0.0
H1594 H 0.71228 0.64333 0.71187 0.0
H1595 H 0.7201 0.63844 0.74544 0.0
H1596 H 0.74713 0.67272 0.8079 0.0
H1597 H 0.72491 0.65152 0.78804 0.0
H1598 H 0.75756 0.74326 0.709 0.0
H1599 H 0.73725 0.7217 0.68733 0.0
H1600 H 0.78662 0.74987 0.73057 0.0
H1601 H 0.79363 0.74479 0.76479 0.0
C1602 C 0.70462 0.61903 0.58374 0.0
C1603 C 0.70776 0.62104 0.61428 0.0
C1604 C 0.73762 0.61323 0.60994 0.0
C1605 C 0.7371 0.61565 0.57953 0.0
N1606 N 0.72152 0.62357 0.5376 0.0
N1607 N 0.72778 0.62098 0.65699 0.0
C1608 C 0.7208 0.61898 0.56633 0.0
C1609 C 0.72419 0.61803 0.62766 0.0
N1610 N 0.68604 0.61708 0.57141 0.0
N1611 N 0.75084 0.60623 0.62174 0.0
H1612 H 0.71806 0.62418 0.67062 0.0
H1613 H 0.74118 0.62163 0.6676 0.0
H1614 H 0.76068 0.60238 0.6092 0.0
H1615 H 0.75053 0.60225 0.64339 0.0
H1616 H 0.68195 0.61353 0.54939 0.0
H1617 H 0.67361 0.61659 0.5837 0.0
H1618 H 0.71144 0.62861 0.52782 0.0
H1619 H 0.73341 0.62434 0.52399 0.0
C1620 C 0.36726 0.07095 0.58352 0.0
C1621 C 0.36121 0.0684 0.61291 0.0
C1622 C 0.354 0.09929 0.61031 0.0
C1623 C 0.36066 0.10226 0.58119 0.0
N1624 N 0.37677 0.09364 0.54114 0.0
N1625 N 0.35228 0.08191 0.65586 0.0
C1626 C 0.36827 0.0889 0.56811 0.0
C1627 C 0.3557 0.08319 0.6268 0.0
N1628 N 0.37142 0.0558 0.57014 0.0
N1629 N 0.34529 0.11129 0.6218 0.0
H1630 H 0.35317 0.07007 0.6682 0.0
H1631 H 0.35032 0.09346 0.66814 0.0
H1632 H 0.34416 0.12352 0.61057 0.0
H1633 H 0.33783 0.10821 0.64167 0.0
H1634 H 0.37331 0.05502 0.54794 0.0
H1635 H 0.37185 0.04308 0.58111 0.0
H1636 H 0.38467 0.08609 0.5315 0.0
H1637 H 0.37732 0.10637 0.52904 0.0
C1638 C 0.92732 0.30119 0.62665 0.0
C1639 C 0.93673 0.28982 0.6404 0.0
C1640 C 0.91666 0.25807 0.60655 0.0
C1641 C 0.90819 0.26983 0.59151 0.0
N1642 N 0.90948 0.30453 0.58326 0.0
N1643 N 0.94576 0.26065 0.63728 0.0
C1644 C 0.91476 0.29205 0.60035 0.0
C1645 C 0.93328 0.26939 0.62824 0.0
N1646 N 0.93026 0.3206 0.63883 0.0
N1647 N 0.90785 0.23571 0.60173 0.0
H1648 H 0.95846 0.26852 0.6527 0.0
H1649 H 0.94506 0.24679 0.62709 0.0
H1650 H 0.89468 0.22626 0.5874 0.0
H1651 H 0.91199 0.2261 0.61441 0.0
H1652 H 0.92181 0.32836 0.63172 0.0
H1653 H 0.9404 0.32835 0.65711 0.0
H1654 H 0.91542 0.32141 0.58721 0.0
H1655 H 0.90077 0.29848 0.56355 0.0
C1656 C 0.34372 0.26774 0.65522 0.0
C1657 C 0.34376 0.28795 0.65089 0.0
C1658 C 0.34624 0.28309 0.59842 0.0
C1659 C 0.34829 0.26416 0.60343 0.0
N1660 N 0.3553 0.24254 0.63749 0.0
N1661 N 0.34951 0.31713 0.61875 0.0
C1662 C 0.3491 0.25785 0.63213 0.0
C1663 C 0.3463 0.29631 0.62255 0.0
N1664 N 0.33716 0.25704 0.6807 0.0
N1665 N 0.3435 0.28802 0.57076 0.0
H1666 H 0.35033 0.32751 0.63594 0.0
H1667 H 0.35348 0.32488 0.59898 0.0
H1668 H 0.34345 0.27878 0.55265 0.0
H1669 H 0.33958 0.30018 0.56594 0.0
H1670 H 0.33473 0.24116 0.68352 0.0
H1671 H 0.3316 0.26258 0.69785 0.0
H1672 H 0.35819 0.23899 0.65836 0.0
H1673 H 0.35986 0.23522 0.62119 0.0
C1674 C 0.7297 0.09051 0.62806 0.0
C1675 C 0.71315 0.07091 0.61366 0.0
C1676 C 0.72652 0.08689 0.5666 0.0
C1677 C 0.74196 0.10713 0.58092 0.0
N1678 N 0.75523 0.12987 0.62496 0.0
N1679 N 0.69222 0.05272 0.56958 0.0
C1680 C 0.74262 0.10946 0.6116 0.0
C1681 C 0.71048 0.06978 0.58301 0.0
N1682 N 0.73387 0.09072 0.65711 0.0
N1683 N 0.72768 0.08359 0.53753 0.0
H1684 H 0.67962 0.04023 0.58088 0.0
H1685 H 0.68848 0.05228 0.54757 0.0
H1686 H 0.73945 0.09552 0.52466 0.0
H1687 H 0.71825 0.06827 0.52671 0.0
H1688 H 0.74728 0.1038 0.66808 0.0
H1689 H 0.72509 0.07703 0.66982 0.0
H1690 H 0.7547 0.13295 0.64702 0.0
H1691 H 0.76468 0.14417 0.61354 0.0
C1692 C 0.93334 0.63369 0.61924 0.0
C1693 C 0.93646 0.65107 0.63885 0.0
C1694 C 0.91158 0.65795 0.60936 0.0
C1695 C 0.9095 0.6416 0.58859 0.0
N1696 N 0.92103 0.61637 0.57111 0.0
N1697 N 0.93294 0.68325 0.64908 0.0
C1698 C 0.92118 0.63016 0.59275 0.0
C1699 C 0.927 0.66434 0.63273 0.0
N1700 N 0.94168 0.62039 0.6262 0.0
N1701 N 0.89798 0.66654 0.60774 0.0
H1702 H 0.94432 0.68866 0.66632 0.0
H1703 H 0.92826 0.69476 0.64372 0.0
H1704 H 0.88593 0.66193 0.5915 0.0
H1705 H 0.89715 0.6766 0.62411 0.0
H1706 H 0.93805 0.60595 0.61441 0.0
H1707 H 0.95131 0.62314 0.6449 0.0
H1708 H 0.9308 0.60915 0.5716 0.0
H1709 H 0.91237 0.61357 0.55148 0.0
C1710 C 0.96583 0.72957 0.7599 0.0
C1711 C 0.95683 0.70827 0.74576 0.0
C1712 C 0.92351 0.69579 0.77207 0.0
C1713 C 0.93103 0.7177 0.78297 0.0
N1714 N 0.95791 0.7567 0.78133 0.0
N1715 N 0.92401 0.67465 0.73069 0.0
C1716 C 0.9518 0.73505 0.77518 0.0
C1717 C 0.93474 0.69238 0.74959 0.0
N1718 N 0.98772 0.74419 0.7601 0.0
N1719 N 0.90595 0.6781 0.78349 0.0
H1720 H 0.93129 0.6732 0.71209 0.0
H1721 H 0.90735 0.66341 0.73154 0.0
H1722 H 0.89803 0.67968 0.80143 0.0
H1723 H 0.90101 0.66174 0.77717 0.0
H1724 H 0.99507 0.75897 0.77255 0.0
H1725 H -0.00119 0.7407 0.75028 0.0
H1726 H 0.97208 0.76993 0.77363 0.0
H1727 H 0.94782 0.76144 0.79156 0.0
C1728 C 0.28902 0.2434 0.73413 0.0
C1729 C 0.29451 0.26339 0.7499 0.0
C1730 C 0.29986 0.24788 0.79435 0.0
C1731 C 0.29317 0.2275 0.77899 0.0
N1732 N 0.2766 0.20408 0.73614 0.0
N1733 N 0.29904 0.28218 0.79628 0.0
C1734 C 0.28619 0.22469 0.74944 0.0
C1735 C 0.29807 0.26486 0.78042 0.0
N1736 N 0.28778 0.24256 0.70451 0.0
N1737 N 0.30882 0.25144 0.8218 0.0
H1738 H 0.29693 0.29452 0.787 0.0
H1739 H 0.29951 0.28296 0.81885 0.0
H1740 H 0.31072 0.23957 0.83278 0.0
H1741 H 0.31614 0.26686 0.83273 0.0
H1742 H 0.28622 0.22919 0.69197 0.0
H1743 H 0.29052 0.25601 0.69222 0.0
H1744 H 0.26916 0.20056 0.71555 0.0
H1745 H 0.27426 0.19002 0.74677 0.0
C1746 C 0.75637 0.03245 0.7143 0.0
C1747 C 0.73464 0.02832 0.71435 0.0
C1748 C 0.74123 0.04499 0.76353 0.0
C1749 C 0.76382 0.05295 0.76088 0.0
N1750 N 0.79329 0.05421 0.73414 0.0
N1751 N 0.7046 0.01879 0.7457 0.0
C1752 C 0.77148 0.04637 0.73657 0.0
C1753 C 0.72639 0.03106 0.74098 0.0
N1754 N 0.76199 0.02154 0.69442 0.0
N1755 N 0.73405 0.05133 0.78714 0.0
H1756 H 0.69387 0.00586 0.73154 0.0
H1757 H 0.69774 0.01894 0.76537 0.0
H1758 H 0.74432 0.06071 0.80464 0.0
H1759 H 0.71821 0.04845 0.78858 0.0
H1760 H 0.77712 0.02251 0.69454 0.0
H1761 H 0.75045 0.00896 0.6805 0.0
H1762 H 0.8001 0.0523 0.71528 0.0
H1763 H 0.80482 0.06391 0.75036 0.0
C1764 C 0.04594 0.30262 0.0556 0.0
C1765 C 0.05688 0.32123 0.03787 0.0
C1766 C 0.09221 0.32791 0.05714 0.0
C1767 C 0.08128 0.31021 0.07618 0.0
N1768 N 0.04802 0.28287 0.09712 0.0
N1769 N 0.09001 0.35439 0.02618 0.0
C1770 C 0.05819 0.2982 0.0765 0.0
C1771 C 0.07992 0.33465 0.03984 0.0
N1772 N 0.024 0.28861 0.05158 0.0
N1773 N 0.11433 0.33799 0.0551 0.0
H1774 H 0.08154 0.36019 0.01387 0.0
H1775 H 0.10648 0.36603 0.02929 0.0
H1776 H 0.12401 0.33388 0.06784 0.0
H1777 H 0.12293 0.34918 0.03922 0.0
H1778 H 0.01547 0.27347 0.06154 0.0
H1779 H 0.01449 0.29126 0.0365 0.0
H1780 H 0.03139 0.2753 0.1006 0.0
H1781 H 0.05649 0.2789 0.11231 0.0
C1782 C 0.65962 0.72627 0.05029 0.0
C1783 C 0.65593 0.70946 0.0699 0.0
C1784 C 0.66361 0.73536 0.11109 0.0
C1785 C 0.66882 0.75263 0.09161 0.0
N1786 N 0.67519 0.76573 0.04295 0.0
N1787 N 0.65993 0.69944 0.11846 0.0
C1788 C 0.66784 0.74845 0.06122 0.0
C1789 C 0.65955 0.71443 0.10017 0.0
N1790 N 0.65455 0.72089 0.02147 0.0
N1791 N 0.66167 0.73863 0.13995 0.0
H1792 H 0.6576 0.68406 0.11133 0.0
H1793 H 0.66482 0.70317 0.14025 0.0
H1794 H 0.66425 0.75366 0.14895 0.0
H1795 H 0.65555 0.72587 0.15454 0.0
H1796 H 0.65467 0.73188 0.00646 0.0
H1797 H 0.64868 0.70485 0.01283 0.0
H1798 H 0.67694 0.76413 0.02085 0.0
H1799 H 0.6812 0.78211 0.05031 0.0
C1800 C 0.25336 0.94787 0.02168 0.0
C1801 C 0.27529 0.96132 0.03198 0.0
C1802 C 0.26381 0.95331 0.08212 0.0
C1803 C 0.24188 0.94054 0.07173 0.0
N1804 N 0.21513 0.93009 0.03276 0.0
N1805 N 0.30094 0.98092 0.0717 0.0
C1806 C 0.23647 0.93937 0.04183 0.0
C1807 C 0.28039 0.9653 0.06217 0.0
N1808 N 0.24872 0.94194 0.99288 0.0
N1809 N 0.26883 0.95333 0.11083 0.0
H1810 H 0.31339 0.9902 0.05763 0.0
H1811 H 0.30515 0.98612 0.09334 0.0
H1812 H 0.25701 0.94527 0.12615 0.0
H1813 H 0.28472 0.96016 0.11919 0.0
H1814 H 0.23329 0.93017 0.98471 0.0
H1815 H 0.26058 0.9471 0.97732 0.0
H1816 H 0.21029 0.93079 0.01157 0.0
H1817 H 0.20232 0.92356 0.04702 0.0
C1818 C 0.33794 0.05357 0.96934 0.0
C1819 C 0.34086 0.04017 0.94838 0.0
C1820 C 0.33324 0.05864 0.90929 0.0
C1821 C 0.32825 0.07054 0.9301 0.0
N1822 N 0.32284 0.07741 0.97979 0.0
N1823 N 0.33542 0.02577 0.89886 0.0
C1824 C 0.32975 0.06749 0.96016 0.0
C1825 C 0.33687 0.04152 0.91846 0.0
N1826 N 0.34362 0.0535 0.99775 0.0
N1827 N 0.33517 0.06411 0.88081 0.0
H1828 H 0.33693 0.0122 0.90464 0.0
H1829 H 0.3303 0.02479 0.87731 0.0
H1830 H 0.333 0.07686 0.87311 0.0
H1831 H 0.34106 0.0575 0.86536 0.0
H1832 H 0.34395 0.06453 0.01362 0.0
H1833 H 0.34967 0.04349 0.00509 0.0
H1834 H 0.32145 0.07407 0.00174 0.0
H1835 H 0.31687 0.08777 0.97372 0.0
C1836 C 0.95561 0.27082 0.92587 0.0
C1837 C 0.95672 0.27632 0.95586 0.0
C1838 C 0.93174 0.23713 0.96531 0.0
C1839 C 0.92831 0.23236 0.93496 0.0
N1840 N 0.93453 0.24542 0.88611 0.0
N1841 N 0.94496 0.26531 0.0043 0.0
C1842 C 0.93968 0.24938 0.91514 0.0
C1843 C 0.94469 0.2596 0.97574 0.0
N1844 N 0.9702 0.28598 0.90768 0.0
N1845 N 0.92291 0.22013 0.98404 0.0
H1846 H 0.95451 0.28153 0.01263 0.0
H1847 H 0.9347 0.25432 0.01935 0.0
H1848 H 0.9134 0.20355 0.97702 0.0
H1849 H 0.92647 0.22222 0.00625 0.0
H1850 H 0.97163 0.28214 0.8862 0.0
H1851 H 0.98244 0.30177 0.9148 0.0
H1852 H 0.94054 0.25789 0.87108 0.0
H1853 H 0.92274 0.23006 0.87718 0.0
C1854 C 0.73377 0.66578 0.98838 0.0
C1855 C 0.72167 0.67687 0.99113 0.0
C1856 C 0.74144 0.70075 0.95131 0.0
C1857 C 0.75505 0.69125 0.9508 0.0
N1858 N 0.76665 0.6673 0.9719 0.0
N1859 N 0.71589 0.70699 0.97831 0.0
C1860 C 0.75191 0.67447 0.97019 0.0
C1861 C 0.72593 0.69488 0.97334 0.0
N1862 N 0.72737 0.64639 0.00215 0.0
N1863 N 0.74306 0.71502 0.93039 0.0
H1864 H 0.70464 0.7034 0.99448 0.0
H1865 H 0.72005 0.72172 0.96814 0.0
H1866 H 0.75437 0.71979 0.91409 0.0
H1867 H 0.73206 0.72068 0.92773 0.0
H1868 H 0.73415 0.63635 0.99843 0.0
H1869 H 0.71383 0.63914 0.01515 0.0
H1870 H 0.76657 0.65699 0.98794 0.0
H1871 H 0.78014 0.67312 0.95884 0.0
C1872 C 0.91369 0.66491 0.98583 0.0
C1873 C 0.93671 0.67756 0.98964 0.0
C1874 C 0.93799 0.70284 0.95248 0.0
C1875 C 0.91489 0.69169 0.95126 0.0
N1876 N 0.88056 0.66398 0.96959 0.0
N1877 N 0.97073 0.71035 0.97958 0.0
C1878 C 0.90267 0.6732 0.96868 0.0
C1879 C 0.9489 0.69696 0.97362 0.0
N1880 N 0.90242 0.64453 0.99769 0.0
N1881 N 0.94948 0.71879 0.93306 0.0
H1882 H 0.9793 0.70681 0.99511 0.0
H1883 H 0.98001 0.72593 0.97094 0.0
H1884 H 0.94201 0.72364 0.91748 0.0
H1885 H 0.96621 0.72587 0.93076 0.0
H1886 H 0.88594 0.63352 0.99314 0.0
H1887 H 0.90994 0.63764 0.00985 0.0
H1888 H 0.87108 0.65218 0.98439 0.0
H1889 H 0.87182 0.6694 0.95716 0.0
C1890 C 0.34622 0.27763 0.96445 0.0
C1891 C 0.33562 0.28878 0.95359 0.0
C1892 C 0.31249 0.25697 0.92072 0.0
C1893 C 0.32318 0.24586 0.93147 0.0
N1894 N 0.3471 0.24324 0.96681 0.0
N1895 N 0.3061 0.28797 0.92564 0.0
C1896 C 0.33904 0.25545 0.95449 0.0
C1897 C 0.31781 0.278 0.93322 0.0
N1898 N 0.36355 0.28855 0.98368 0.0
N1899 N 0.29799 0.24784 0.89762 0.0
H1900 H 0.30998 0.30375 0.93334 0.0
H1901 H 0.29155 0.28004 0.91341 0.0
H1902 H 0.29307 0.2321 0.88858 0.0
H1903 H 0.29177 0.25627 0.8862 0.0
H1904 H 0.3737 0.2825 0.98999 0.0
H1905 H 0.36839 0.30433 0.99252 0.0
H1906 H 0.35718 0.24835 0.98537 0.0
H1907 H 0.3424 0.2271 0.95963 0.0
C1908 C 0.74261 0.07324 0.99156 0.0
C1909 C 0.72587 0.05068 0.98919 0.0
C1910 C 0.73987 0.04601 0.94297 0.0
C1911 C 0.75754 0.06805 0.94656 0.0
N1912 N 0.77767 0.10189 0.97575 0.0
N1913 N 0.70992 0.01456 0.9652 0.0
C1914 C 0.75949 0.08144 0.97134 0.0
C1915 C 0.7248 0.03676 0.96552 0.0
N1916 N 0.7418 0.08712 0.01232 0.0
N1917 N 0.73735 0.03411 0.91782 0.0
H1918 H 0.69868 0.00722 0.98139 0.0
H1919 H 0.70975 0.00309 0.95021 0.0
H1920 H 0.74846 0.04018 0.90126 0.0
H1921 H 0.72356 0.01889 0.91242 0.0
H1922 H 0.7521 0.10425 0.0131 0.0
H1923 H 0.7296 0.08182 0.02744 0.0
H1924 H 0.78131 0.11127 0.99504 0.0
H1925 H 0.79004 0.10894 0.9609 0.0
C1926 C 0.65279 0.94062 0.05974 0.0
C1927 C 0.66327 0.96283 0.07093 0.0
C1928 C 0.68374 0.95451 0.10698 0.0
C1929 C 0.67331 0.93232 0.09574 0.0
N1930 N 0.6512 0.90493 0.05861 0.0
N1931 N 0.69137 0.99223 0.10153 0.0
C1932 C 0.65886 0.9256 0.07115 0.0
C1933 C 0.67973 0.97022 0.09324 0.0
N1934 N 0.6367 0.93384 0.03868 0.0
N1935 N 0.69665 0.96024 0.13168 0.0
H1936 H 0.68821 0.00417 0.09331 0.0
H1937 H 0.70524 -0.00094 0.11512 0.0
H1938 H 0.70047 0.94937 0.14194 0.0
H1939 H 0.7025 0.97527 0.14321 0.0
H1940 H 0.62657 0.91736 0.03189 0.0
H1941 H 0.63279 0.94477 0.02872 0.0
H1942 H 0.64227 0.89962 0.03906 0.0
H1943 H 0.65515 0.89348 0.06672 0.0
C1944 C 0.05335 0.73511 0.04232 0.0
C1945 C 0.04127 0.71904 0.06288 0.0
C1946 C 0.05999 0.74654 0.10263 0.0
C1947 C 0.07126 0.763 0.08211 0.0
N1948 N 0.07628 0.77419 0.03256 0.0
N1949 N 0.02896 0.71066 0.1118 0.0
C1950 C 0.06722 0.75765 0.05192 0.0
C1951 C 0.04335 0.72514 0.09281 0.0
N1952 N 0.05211 0.72869 0.01384 0.0
N1953 N 0.06578 0.75101 0.13147 0.0
H1954 H 0.01627 0.69489 0.10546 0.0
H1955 H 0.02822 0.71506 0.13328 0.0
H1956 H 0.07806 0.7664 0.13973 0.0
H1957 H 0.0598 0.73891 0.14698 0.0
H1958 H 0.06224 0.73907 0.99821 0.0
H1959 H 0.04182 0.7124 0.00617 0.0
H1960 H 0.07234 0.77178 0.01045 0.0
H1961 H 0.08651 0.79081 0.03894 0.0
C1962 C 0.26807 0.34293 0.03744 0.0
C1963 C 0.28826 0.34539 0.04729 0.0
C1964 C 0.27257 0.33034 0.09403 0.0
C1965 C 0.25317 0.33002 0.08507 0.0
N1966 N 0.23378 0.33979 0.05039 0.0
N1967 N 0.31094 0.34431 0.08604 0.0
C1968 C 0.25131 0.33742 0.05738 0.0
C1969 C 0.29085 0.3398 0.07589 0.0
N1970 N 0.26453 0.34485 0.00871 0.0
N1971 N 0.27331 0.32109 0.11951 0.0
H1972 H 0.32467 0.35122 0.07336 0.0
H1973 H 0.31441 0.34285 0.1076 0.0
H1974 H 0.2603 0.31426 0.13345 0.0
H1975 H 0.28609 0.31864 0.12581 0.0
H1976 H 0.24935 0.34084 0.9998 0.0
H1977 H 0.27616 0.34826 0.99316 0.0
H1978 H 0.23276 0.34745 0.03179 0.0
H1979 H 0.2211 0.33596 0.06439 0.0
C1980 C 0.74082 0.66802 0.37927 0.0
C1981 C 0.71823 0.65233 0.37618 0.0
C1982 C 0.72214 0.62963 0.41318 0.0
C1983 C 0.74506 0.64401 0.41381 0.0
N1984 N 0.77672 0.67555 0.39533 0.0
N1985 N 0.68726 0.6175 0.38843 0.0
C1986 C 0.75454 0.66297 0.39647 0.0
C1987 C 0.70884 0.63294 0.39271 0.0
N1988 N 0.7492 0.68774 0.36568 0.0
N1989 N 0.71311 0.61315 0.43267 0.0
H1990 H 0.6768 0.6199 0.37476 0.0
H1991 H 0.67994 0.60182 0.39712 0.0
H1992 H 0.72241 0.6103 0.44787 0.0
H1993 H 0.69642 0.60348 0.43542 0.0
H1994 H 0.76496 0.70092 0.36968 0.0
H1995 H 0.73991 0.69168 0.35191 0.0
H1996 H 0.78468 0.68798 0.38059 0.0
H1997 H 0.78735 0.67252 0.40767 0.0
C1998 C 0.32622 0.04969 0.43411 0.0
C1999 C 0.32114 0.04457 0.40405 0.0
C2000 C 0.33259 0.0835 0.3958 0.0
C2001 C 0.33484 0.08781 0.42626 0.0
N2002 N 0.33042 0.07415 0.47475 0.0
N2003 N 0.31782 0.05579 0.3562 0.0
C2004 C 0.33084 0.0707 0.44553 0.0
C2005 C 0.32401 0.06129 0.38477 0.0
N2006 N 0.32723 0.03465 0.45166 0.0
N2007 N 0.33906 0.10069 0.37753 0.0
H2008 H 0.3118 0.03974 0.34748 0.0
H2009 H 0.31726 0.06667 0.3416 0.0
H2010 H 0.34542 0.11711 0.385 0.0
H2011 H 0.3398 0.09902 0.3552 0.0
H2012 H 0.33314 0.03839 0.47308 0.0
H2013 H 0.32429 0.01913 0.4441 0.0
H2014 H 0.32514 0.0615 0.48946 0.0
H2015 H 0.33345 0.08921 0.4842 0.0
C2016 C 0.92676 0.2873 0.36682 0.0
C2017 C 0.94547 0.28525 0.37175 0.0
C2018 C 0.93179 0.26938 0.41877 0.0
C2019 C 0.91151 0.26756 0.41119 0.0
N2020 N 0.88888 0.27359 0.37726 0.0
N2021 N 0.96496 0.27218 0.40139 0.0
C2022 C 0.90881 0.27645 0.38517 0.0
C2023 C 0.948 0.27606 0.39769 0.0
N2024 N 0.92636 0.30002 0.34497 0.0
N2025 N 0.93543 0.26458 0.44612 0.0
H2026 H 0.97691 0.27608 0.3862 0.0
H2027 H 0.96615 0.26324 0.4184 0.0
H2028 H 0.92378 0.25966 0.46202 0.0
H2029 H 0.95059 0.26759 0.45384 0.0
H2030 H 0.91402 0.30382 0.34202 0.0
H2031 H 0.9395 0.30868 0.33162 0.0
H2032 H 0.88532 0.27734 0.3569 0.0
H2033 H 0.87542 0.26606 0.39034 0.0
C2034 C 0.02379 0.39702 0.28894 0.0
C2035 C 0.01051 0.37425 0.28076 0.0
C2036 C 0.98917 0.38296 0.24674 0.0
C2037 C 0.00217 0.40568 0.25532 0.0
N2038 N 0.02922 0.43431 0.28752 0.0
N2039 N 0.97841 0.34477 0.25584 0.0
C2040 C 0.01869 0.41271 0.2774 0.0
C2041 C 0.99242 0.36697 0.26105 0.0
N2042 N 0.0415 0.4036 0.30724 0.0
N2043 N 0.97444 0.37681 0.22395 0.0
H2044 H 0.98073 0.33242 0.26461 0.0
H2045 H 0.96356 0.33841 0.24447 0.0
H2046 H 0.97124 0.38795 0.21324 0.0
H2047 H 0.96642 0.36098 0.2142 0.0
H2048 H 0.05335 0.4201 0.31151 0.0
H2049 H 0.04493 0.39236 0.31728 0.0
H2050 H 0.03994 0.44014 0.30547 0.0
H2051 H 0.02606 0.44625 0.27917 0.0
C2052 C 0.62831 0.59271 0.2935 0.0
C2053 C 0.62062 0.60648 0.30527 0.0
C2054 C 0.5847 0.57345 0.31 0.0
C2055 C 0.591 0.56155 0.29096 0.0
N2056 N 0.62122 0.55504 0.29003 0.0
N2057 N 0.59202 0.60935 0.32894 0.0
C2058 C 0.61365 0.56957 0.28992 0.0
C2059 C 0.599 0.59661 0.31516 0.0
N2060 N 0.6491 0.60158 0.28426 0.0
N2061 N 0.56661 0.56209 0.32591 0.0
H2062 H 0.60245 0.62605 0.33476 0.0
H2063 H 0.57574 0.60348 0.33352 0.0
H2064 H 0.55774 0.54476 0.3251 0.0
H2065 H 0.56213 0.56951 0.34213 0.0
H2066 H 0.65441 0.59213 0.27294 0.0
H2067 H 0.6605 0.61847 0.28596 0.0
H2068 H 0.63775 0.56013 0.29182 0.0
H2069 H 0.61071 0.53811 0.29265 0.0
C2070 C 0.40087 0.01165 0.32735 0.0
C2071 C 0.37872 0.99584 0.3205 0.0
C2072 C 0.38849 0.99015 0.27171 0.0
C2073 C 0.41066 0.00402 0.27965 0.0
N2074 N 0.43874 0.02633 0.31563 0.0
N2075 N 0.35138 0.96794 0.28757 0.0
C2076 C 0.41711 0.01443 0.30762 0.0
C2077 C 0.37239 0.98462 0.29288 0.0
N2078 N 0.40625 0.02449 0.35232 0.0
N2079 N 0.3835 0.98282 0.2435 0.0
H2080 H 0.3392 0.96338 0.30259 0.0
H2081 H 0.34626 0.95736 0.26927 0.0
H2082 H 0.36773 0.97375 0.2345 0.0
H2083 H 0.36773 0.97375 0.2345 0.0
H2084 H 0.42176 0.03786 0.35716 0.0
H2085 H 0.39473 0.02305 0.36713 0.0
H2086 H 0.44444 0.0322 0.33674 0.0
H2087 H 0.45108 0.02899 0.30155 0.0
C2088 C 0.60098 0.01826 0.32156 0.0
C2089 C 0.60587 0.0014 0.31406 0.0
C2090 C 0.5881 0.99654 0.26619 0.0
C2091 C 0.58036 0.01083 0.27551 0.0
N2092 N 0.57732 0.03349 0.31339 0.0
N2093 N 0.60225 0.97271 0.28021 0.0
C2094 C 0.58636 0.02135 0.30349 0.0
C2095 C 0.59918 0.9902 0.28648 0.0
N2096 N 0.61082 0.03176 0.34558 0.0
N2097 N 0.58506 0.98924 0.23785 0.0
H2098 H 0.6101 0.96737 0.29448 0.0
H2099 H 0.59551 0.96233 0.26181 0.0
H2100 H 0.57702 0.9936 0.22249 0.0
H2101 H 0.59219 0.98062 0.22902 0.0
H2102 H 0.60959 0.04574 0.35058 0.0
H2103 H 0.62208 0.03036 0.3589 0.0
H2104 H 0.57912 0.03934 0.33479 0.0
H2105 H 0.56655 0.03622 0.3009 0.0
C2106 C 0.00753 0.61958 0.24952 0.0
C2107 C 0.01329 0.6245 0.27947 0.0
C2108 C 0.00412 0.58602 0.28631 0.0
C2109 C 0.00105 0.582 0.25582 0.0
N2110 N 0.00302 0.59585 0.20782 0.0
N2111 N 0.01881 0.61335 0.32634 0.0
C2112 C 0.00352 0.599 0.23724 0.0
C2113 C 0.01194 0.60794 0.29796 0.0
N2114 N 0.0053 0.6344 0.23293 0.0
N2115 N -0.00091 0.56878 0.30406 0.0
H2116 H 0.02424 0.62915 0.33555 0.0
H2117 H 0.02051 0.60271 0.34023 0.0
H2118 H 0.99331 0.55257 0.29617 0.0
H2119 H -0.00107 0.57013 0.32654 0.0
H2120 H -0.00117 0.63072 0.21178 0.0
H2121 H 0.00789 0.64965 0.24114 0.0
H2122 H 0.00716 0.6085 0.19335 0.0
H2123 H 0.00031 0.58108 0.19777 0.0
C2124 C 0.38338 0.37077 0.28834 0.0
C2125 C 0.38989 0.37496 0.31813 0.0
C2126 C 0.42802 0.39734 0.30517 0.0
C2127 C 0.42114 0.39597 0.27584 0.0
N2128 N 0.39248 0.38244 0.23897 0.0
N2129 N 0.41811 0.39441 0.35533 0.0
C2130 C 0.39887 0.3828 0.26718 0.0
C2131 C 0.41217 0.38858 0.32673 0.0
N2132 N 0.36253 0.35493 0.28033 0.0
N2133 N 0.44974 0.40705 0.31237 0.0
H2134 H 0.40704 0.38885 0.37193 0.0
H2135 H 0.43377 0.40635 0.36248 0.0
H2136 H 0.46182 0.41385 0.29708 0.0
H2137 H 0.45568 0.40652 0.33295 0.0
H2138 H 0.35731 0.34959 0.25894 0.0
H2139 H 0.35088 0.34561 0.29533 0.0
H2140 H 0.37626 0.3753 0.23193 0.0
H2141 H 0.40352 0.39049 0.22277 0.0
C2142 C 0.34303 0.30435 0.42895 0.0
C2143 C 0.32662 0.29784 0.40676 0.0
C2144 C 0.32051 0.25997 0.40592 0.0
C2145 C 0.33509 0.26593 0.43027 0.0
N2146 N 0.35881 0.29284 0.467 0.0
N2147 N 0.29896 0.26978 0.37461 0.0
C2148 C 0.34616 0.28793 0.44217 0.0
C2149 C 0.31519 0.27573 0.39525 0.0
N2150 N 0.35554 0.32623 0.43755 0.0
N2151 N 0.31208 0.23936 0.39286 0.0
H2152 H 0.29549 0.28123 0.36532 0.0
H2153 H 0.28827 0.25346 0.36763 0.0
H2154 H 0.31553 0.22741 0.40041 0.0
H2155 H 0.30301 0.23459 0.37341 0.0
H2156 H 0.36942 0.33234 0.45101 0.0
H2157 H 0.35309 0.33874 0.42967 0.0
H2158 H 0.36506 0.30778 0.47889 0.0
H2159 H 0.36187 0.28139 0.4771 0.0
C2160 C 0.70268 0.06174 0.41769 0.0
C2161 C 0.7094 0.05084 0.39752 0.0
C2162 C 0.74568 0.08407 0.39698 0.0
C2163 C 0.73985 0.09364 0.42008 0.0
N2164 N 0.71349 0.09141 0.45404 0.0
N2165 N 0.73698 0.05095 0.36789 0.0
C2166 C 0.71843 0.08257 0.43062 0.0
C2167 C 0.73079 0.06192 0.38693 0.0
N2168 N 0.68126 0.05205 0.42469 0.0
N2169 N 0.7654 0.0963 0.3846 0.0
H2170 H 0.72607 0.0352 0.35896 0.0
H2171 H 0.75297 0.05693 0.36187 0.0
H2172 H 0.77668 0.11249 0.3917 0.0
H2173 H 0.76997 0.09119 0.366 0.0
H2174 H 0.67489 0.06012 0.43681 0.0
H2175 H 0.66935 0.03649 0.41644 0.0
H2176 H 0.69912 0.0829 0.46517 0.0
H2177 H 0.72442 0.10684 0.46375 0.0
C2178 C 0.95247 0.67284 0.39064 0.0
C2179 C 0.94798 0.66199 0.36282 0.0
C2180 C 0.90928 0.63978 0.3738 0.0
C2181 C 0.91422 0.64924 0.40238 0.0
N2182 N 0.94083 0.67156 0.4399 0.0
N2183 N 0.92279 0.63328 0.32895 0.0
C2184 C 0.93596 0.6647 0.41141 0.0
C2185 C 0.92654 0.64494 0.35468 0.0
N2186 N 0.97186 0.69189 0.39654 0.0
N2187 N 0.88803 0.62646 0.36463 0.0
H2188 H 0.93492 0.63682 0.3141 0.0
H2189 H 0.90809 0.61903 0.32322 0.0
H2190 H 0.87497 0.62183 0.37821 0.0
H2191 H 0.88321 0.62122 0.34311 0.0
H2192 H 0.97509 0.70164 0.41544 0.0
H2193 H 0.98384 0.69944 0.38132 0.0
H2194 H 0.95672 0.68101 0.44832 0.0
H2195 H 0.92905 0.66612 0.45565 0.0
C2196 C 0.38802 0.99401 0.73853 0.0
C2197 C 0.39678 0.00504 0.71246 0.0
C2198 C 0.42956 0.0023 0.72121 0.0
C2199 C 0.42005 0.98966 0.74593 0.0
N2200 N 0.3889 0.97037 0.77574 0.0
N2201 N 0.42366 0.01546 0.67577 0.0
C2202 C 0.39885 0.98459 0.7539 0.0
C2203 C 0.41695 0.00802 0.7029 0.0
N2204 N 0.36989 0.99336 0.74926 0.0
N2205 N 0.45093 0.00956 0.71576 0.0
H2206 H 0.41468 0.01935 0.66137 0.0
H2207 H 0.43702 0.01568 0.66645 0.0
H2208 H 0.46081 0.00583 0.72866 0.0
H2209 H 0.45942 0.02092 0.69998 0.0
H2210 H 0.3641 0.98772 0.7697 0.0
H2211 H 0.36162 0.00023 0.73879 0.0
H2212 H 0.37264 0.96419 0.78063 0.0
H2213 H 0.39637 0.96323 0.7875 0.0
C2214 C 0.99238 0.37806 0.77467 0.0
C2215 C 0.9885 0.37386 0.74428 0.0
C2216 C -0.00046 0.41287 0.73774 0.0
C2217 C 0.00082 0.41627 0.76833 0.0
N2218 N 0.9949 0.40121 0.81606 0.0
N2219 N 0.98619 0.38633 0.69685 0.0
C2220 C 0.9963 0.39863 0.78687 0.0
C2221 C 0.99158 0.39105 0.72572 0.0
N2222 N 0.99311 0.36266 0.79182 0.0
N2223 N 0.00646 0.43059 0.72028 0.0
H2224 H 0.98051 0.37055 0.68741 0.0
H2225 H 0.98582 0.39756 0.68268 0.0
H2226 H 0.01243 0.44678 0.72842 0.0
H2227 H 0.00799 0.42958 0.69801 0.0
H2228 H -0.00179 0.36583 0.81357 0.0
H2229 H 0.99077 0.34749 0.78375 0.0
H2230 H 0.98925 0.38814 0.83015 0.0
H2231 H -0.00251 0.41597 0.82601 0.0
C2232 C 0.61703 0.60965 0.7302 0.0
C2233 C 0.61434 0.61757 0.70324 0.0
C2234 C 0.57695 0.60729 0.7147 0.0
C2235 C 0.57988 0.59994 0.7419 0.0
N2236 N 0.60399 0.59928 0.77871 0.0
N2237 N 0.59414 0.62946 0.67328 0.0
C2238 C 0.60043 0.60292 0.75071 0.0
C2239 C 0.59501 0.61811 0.69656 0.0
N2240 N 0.63469 0.60713 0.73551 0.0
N2241 N 0.55673 0.60305 0.70563 0.0
H2242 H 0.60728 0.63803 0.65991 0.0
H2243 H 0.58127 0.63225 0.66897 0.0
H2244 H 0.54314 0.59552 0.7185 0.0
H2245 H 0.5531 0.60561 0.68462 0.0
H2246 H 0.63621 0.59914 0.75343 0.0
H2247 H 0.64699 0.61118 0.72082 0.0
H2248 H 0.61927 0.60323 0.78722 0.0
H2249 H 0.59206 0.59431 0.79421 0.0
C2250 C 0.67498 0.70682 0.58266 0.0
C2251 C 0.67938 0.70818 0.61299 0.0
C2252 C 0.66705 0.7351 0.61918 0.0
C2253 C 0.66509 0.73554 0.58858 0.0
N2254 N 0.67105 0.725 0.54093 0.0
N2255 N 0.68216 0.72526 0.66001 0.0
C2256 C 0.67015 0.7223 0.57022 0.0
C2257 C 0.67605 0.72273 0.63131 0.0
N2258 N 0.67447 0.69012 0.56586 0.0
N2259 N 0.6598 0.74604 0.63654 0.0
H2260 H 0.68877 0.71639 0.66952 0.0
H2261 H 0.68228 0.73732 0.67387 0.0
H2262 H 0.65313 0.75526 0.62832 0.0
H2263 H 0.65874 0.74453 0.65891 0.0
H2264 H 0.66905 0.68698 0.54423 0.0
H2265 H 0.67727 0.67793 0.57413 0.0
H2266 H 0.67704 0.71754 0.52694 0.0
H2267 H 0.66771 0.73626 0.53081 0.0
C2268 C 0.27401 0.93257 0.64895 0.0
C2269 C 0.2857 0.94909 0.62869 0.0
C2270 C 0.26702 0.92211 0.58841 0.0
C2271 C 0.25625 0.90521 0.60856 0.0
N2272 N 0.25176 0.89323 0.65774 0.0
N2273 N 0.29743 0.95849 0.57969 0.0
C2274 C 0.26042 0.91011 0.63882 0.0
C2275 C 0.28342 0.94351 0.59857 0.0
N2276 N 0.27538 0.9385 0.67764 0.0
N2277 N 0.26097 0.91801 0.55962 0.0
H2278 H 0.30995 0.97429 0.58623 0.0
H2279 H 0.29806 0.9545 0.558 0.0
H2280 H 0.24888 0.90262 0.55113 0.0
H2281 H 0.26653 0.93039 0.54448 0.0
H2282 H 0.26553 0.92774 0.69317 0.0
H2283 H 0.28547 0.95473 0.68566 0.0
H2284 H 0.25582 0.89535 0.6798 0.0
H2285 H 0.2417 0.87667 0.65097 0.0
C2286 C 0.07438 0.3521 0.66236 0.0
C2287 C 0.05251 0.33573 0.65514 0.0
C2288 C 0.06231 0.3337 0.60498 0.0
C2289 C 0.08454 0.34782 0.61322 0.0
N2290 N 0.11234 0.36922 0.65003 0.0
N2291 N 0.02575 0.30896 0.62059 0.0
C2292 C 0.09075 0.35682 0.64197 0.0
C2293 C 0.04641 0.32614 0.62662 0.0
N2294 N 0.07934 0.36358 0.68841 0.0
N2295 N 0.05645 0.32767 0.57642 0.0
H2296 H 0.01363 0.30273 0.63584 0.0
H2297 H 0.02103 0.29965 0.60115 0.0
H2298 H 0.06779 0.33274 0.56011 0.0
H2299 H 0.04036 0.31931 0.56856 0.0
H2300 H 0.09453 0.37729 0.69378 0.0
H2301 H 0.06769 0.36068 0.70376 0.0
H2302 H 0.11795 0.37398 0.67143 0.0
H2303 H 0.12484 0.37357 0.63554 0.0
C2304 C 0.24732 0.32452 0.64903 0.0
C2305 C 0.26742 0.32674 0.64048 0.0
C2306 C 0.26697 0.34738 0.59826 0.0
C2307 C 0.24583 0.34308 0.60531 0.0
N2308 N 0.21405 0.32372 0.63417 0.0
N2309 N 0.29509 0.33755 0.60492 0.0
C2310 C 0.23548 0.33054 0.62978 0.0
C2311 C 0.27696 0.3375 0.61454 0.0
N2312 N 0.23998 0.31764 0.67614 0.0
N2313 N 0.27769 0.36136 0.57649 0.0
H2314 H 0.30277 0.33041 0.6162 0.0
H2315 H 0.30147 0.34301 0.58468 0.0
H2316 H 0.27082 0.36879 0.56409 0.0
H2317 H 0.29397 0.36701 0.57224 0.0
H2318 H 0.22666 0.31802 0.68461 0.0
H2319 H 0.24846 0.31372 0.69136 0.0
H2320 H 0.20503 0.3125 0.64982 0.0
H2321 H 0.20465 0.32755 0.62045 0.0
C2322 C 0.66589 0.93316 0.63452 0.0
C2323 C 0.6685 0.9501 0.61578 0.0
C2324 C 0.6578 0.92432 0.57375 0.0
C2325 C 0.65439 0.9071 0.59249 0.0
N2326 N 0.65086 0.89367 0.64084 0.0
N2327 N 0.6613 0.96048 0.56915 0.0
C2328 C 0.65706 0.91107 0.62299 0.0
C2329 C 0.66266 0.94523 0.58587 0.0
N2330 N 0.67269 0.93836 0.66294 0.0
N2331 N 0.65751 0.92112 0.54437 0.0
H2332 H 0.6644 0.9759 0.5774 0.0
H2333 H 0.65496 0.957 0.54793 0.0
H2334 H 0.65428 0.90614 0.53444 0.0
H2335 H 0.66233 0.93387 0.52989 0.0
H2336 H 0.67351 0.92728 0.67696 0.0
H2337 H 0.67892 0.9543 0.6721 0.0
H2338 H 0.65043 0.89511 0.66327 0.0
H2339 H 0.64433 0.87732 0.633 0.0
C2340 C 0.04982 0.70064 0.62646 0.0
C2341 C 0.0544 0.70591 0.65658 0.0
C2342 C 0.09301 0.73013 0.6472 0.0
C2343 C 0.08783 0.72751 0.61708 0.0
N2344 N 0.06124 0.71171 0.57753 0.0
N2345 N 0.07984 0.72815 0.69553 0.0
C2346 C 0.06623 0.71302 0.60649 0.0
C2347 C 0.07591 0.72113 0.66703 0.0
N2348 N 0.03001 0.68342 0.61704 0.0
N2349 N 0.11432 0.74117 0.65681 0.0
H2350 H 0.06772 0.72261 0.71076 0.0
H2351 H 0.09476 0.74106 0.70358 0.0
H2352 H 0.12727 0.74801 0.64278 0.0
H2353 H 0.11916 0.74167 0.67837 0.0
H2354 H 0.02644 0.6774 0.59562 0.0
H2355 H 0.01775 0.67374 0.63113 0.0
H2356 H 0.04535 0.70346 0.56889 0.0
H2357 H 0.07295 0.72015 0.56221 0.0
C2358 C 0.99661 0.61153 0.72021 0.0
C2359 C 0.9927 0.62529 0.73925 0.0
C2360 C 0.00075 0.60957 0.78127 0.0
C2361 C 0.00582 0.5966 0.76236 0.0
N2362 N 0.01243 0.58784 0.71418 0.0
N2363 N -0.00302 0.64201 0.78709 0.0
C2364 C 0.00495 0.59839 0.73185 0.0
C2365 C 0.9966 0.62572 0.76955 0.0
N2366 N 0.9916 0.6104 0.69128 0.0
N2367 N -0.00114 0.60579 0.81029 0.0
H2368 H 0.99455 0.65458 0.77928 0.0
H2369 H 0.00198 0.64445 0.80887 0.0
H2370 H 0.00143 0.59386 0.81995 0.0
H2371 H 0.99275 0.61305 0.82444 0.0
H2372 H 0.99187 0.59893 0.67669 0.0
H2373 H 0.98572 0.62003 0.68212 0.0
H2374 H 0.01417 0.59014 0.69199 0.0
H2375 H 0.01862 0.57812 0.72214 0.0
C2376 C 0.37465 0.39023 0.76513 0.0
C2377 C 0.37286 0.38324 0.7356 0.0
C2378 C 0.39966 0.42128 0.72341 0.0
C2379 C 0.40352 0.42734 0.75343 0.0
N2380 N 0.39748 0.41638 0.80321 0.0
N2381 N 0.38475 0.39139 0.68663 0.0
C2382 C 0.39173 0.41151 0.77441 0.0
C2383 C 0.38555 0.39861 0.71462 0.0
N2384 N 0.3596 0.37672 0.78424 0.0
N2385 N 0.40916 0.43727 0.7034 0.0
H2386 H 0.37443 0.37497 0.6795 0.0
H2387 H 0.39533 0.40125 0.67099 0.0
H2388 H 0.41956 0.45397 0.70919 0.0
H2389 H 0.40538 0.43433 0.68127 0.0
H2390 H 0.35885 0.3819 0.80531 0.0
H2391 H 0.34641 0.36118 0.77816 0.0
H2392 H 0.39101 0.40456 0.81905 0.0
H2393 H 0.41018 0.43165 0.8111 0.0
C2394 C 0.60945 0.01232 0.71145 0.0
C2395 C 0.61701 0.99714 0.70673 0.0
C2396 C 0.5942 0.97437 0.74551 0.0
C2397 C 0.58447 0.98785 0.74722 0.0
N2398 N 0.58041 0.01777 0.72858 0.0
N2399 N 0.61472 0.96216 0.7167 0.0
C2400 C 0.59147 0.00637 0.72937 0.0
C2401 C 0.60903 0.97779 0.72322 0.0
N2402 N 0.61998 0.0328 0.69971 0.0
N2403 N 0.58954 0.95856 0.76551 0.0
H2404 H 0.62527 0.96387 0.70027 0.0
H2405 H 0.60755 0.94665 0.72588 0.0
H2406 H 0.57879 0.95568 0.78215 0.0
H2407 H 0.59777 0.94973 0.76721 0.0
H2408 H 0.61653 0.04533 0.70487 0.0
H2409 H 0.63372 0.03812 0.68725 0.0
H2410 H 0.58331 0.02978 0.71353 0.0
H2411 H 0.56702 0.01392 0.7412 0.0
loop_
_geom_bond_atom_site_label_1
_geom_bond_atom_site_label_2
_geom_bond_distance
_geom_bond_site_symmetry_2
_ccdc_geom_bond_type
Mg0 O1 2.028 1_556 S
Mg0 O7 1.986 1_455 S
Mg0 O9 2.114 . S
Mg0 O10 2.251 1_455 S
Mg0 O13 2.010 1_556 S
O1 Mg0 2.028 1_554 S
O1 C4 1.250 1_455 S
O2 Mg3 2.028 1_554 S
O2 C4 1.248 . S
Mg3 O2 2.028 1_556 S
Mg3 O8 2.032 . S
Mg3 O10 2.079 . S
C4 O1 1.250 1_655 S
C4 O2 1.248 . S
C5 O6 1.264 . S
C5 O13 1.249 . S
O6 C5 1.264 . S
O7 Mg0 1.986 1_655 S
O7 C11 1.246 . S
O8 Mg3 2.032 . S
O8 C11 1.259 . S
O9 Mg0 2.114 . S
O9 C12 1.252 . S
O10 Mg0 2.251 1_655 S
O10 Mg3 2.079 . S
O10 C12 1.273 1_655 S
C11 O7 1.246 . S
C11 O8 1.259 . S
C12 O9 1.252 . S
C12 O10 1.273 1_455 S
O13 Mg0 2.010 1_554 S
O13 C5 1.249 . S
Mg14 O15 2.028 1_554 S
Mg14 O21 1.986 . S
Mg14 O23 2.114 . S
Mg14 O24 2.251 . S
Mg14 O27 2.010 . S
O15 Mg14 2.028 1_556 S
O15 C18 1.250 . S
O16 Mg17 2.028 1_556 S
O16 C18 1.248 . S
Mg17 O16 2.028 1_554 S
Mg17 O22 2.032 . S
Mg17 O24 2.079 . S
C18 O15 1.250 . S
C18 O16 1.248 . S
C19 O20 1.264 1_556 S
C19 O27 1.249 1_556 S
O20 C19 1.264 1_554 S
O21 Mg14 1.986 . S
O21 C25 1.246 . S
O22 Mg17 2.032 . S
O22 C25 1.259 . S
O23 Mg14 2.114 . S
O23 C26 1.252 . S
O24 Mg14 2.251 . S
O24 Mg17 2.079 . S
O24 C26 1.273 . S
C25 O21 1.246 . S
C25 O22 1.259 . S
C26 O23 1.252 . S
C26 O24 1.273 . S
O27 Mg14 2.010 . S
O27 C19 1.249 1_554 S
Mg28 O29 2.033 1_566 S
Mg28 O35 1.986 1_565 S
Mg28 O37 2.114 . S
Mg28 O38 2.251 1_565 S
Mg28 O41 2.010 1_556 S
O29 Mg28 2.033 1_544 S
O29 C32 1.260 . S
O30 Mg31 2.028 1_554 S
O30 C32 1.248 . S
Mg31 O30 2.028 1_556 S
Mg31 O36 2.032 . S
Mg31 O38 2.079 . S
C32 O29 1.260 . S
C32 O30 1.248 . S
C33 O34 1.264 . S
C33 O41 1.249 . S
O34 C33 1.264 . S
O35 Mg28 1.986 1_545 S
O35 C39 1.246 . S
O36 Mg31 2.032 . S
O36 C39 1.259 . S
O37 Mg28 2.114 . S
O37 C40 1.252 . S
O38 Mg28 2.251 1_545 S
O38 Mg31 2.079 . S
O38 C40 1.273 1_545 S
C39 O35 1.246 . S
C39 O36 1.259 . S
C40 O37 1.252 . S
C40 O38 1.273 1_565 S
O41 Mg28 2.010 1_554 S
O41 C33 1.249 . S
Mg42 O43 2.028 1_654 S
Mg42 O49 1.986 1_655 S
Mg42 O51 2.114 . S
Mg42 O52 2.251 1_655 S
Mg42 O55 2.010 . S
O43 Mg42 2.028 1_456 S
O43 C46 1.251 . S
O44 Mg45 2.028 1_556 S
O44 C46 1.248 . S
Mg45 O44 2.028 1_554 S
Mg45 O50 2.032 . S
Mg45 O52 2.079 . S
C46 O43 1.251 . S
C46 O44 1.248 . S
C47 O48 1.284 . S
C47 O55 1.263 . S
O48 C47 1.284 . S
O49 Mg42 1.986 1_455 S
O49 C53 1.246 . S
O50 Mg45 2.032 . S
O50 C53 1.259 . S
O51 Mg42 2.114 . S
O51 C54 1.252 . S
O52 Mg42 2.251 1_455 S
O52 Mg45 2.079 . S
O52 C54 1.273 1_455 S
C53 O49 1.246 . S
C53 O50 1.259 . S
C54 O51 1.252 . S
C54 O52 1.273 1_655 S
O55 Mg42 2.010 . S
O55 C47 1.263 . S
Mg56 O57 2.028 1_556 S
Mg56 O63 1.986 . S
Mg56 O65 2.114 . S
Mg56 O66 2.251 . S
Mg56 O69 2.010 1_556 S
O57 Mg56 2.028 1_554 S
O57 C60 1.250 . S
O58 Mg59 2.028 1_554 S
O58 C60 1.248 . S
Mg59 O58 2.028 1_556 S
Mg59 O64 2.032 . S
Mg59 O66 2.079 . S
C60 O57 1.250 . S
C60 O58 1.248 . S
C61 O62 1.264 . S
C61 O69 1.249 . S
O62 C61 1.264 . S
O63 Mg56 1.986 . S
O63 C67 1.246 . S
O64 Mg59 2.032 . S
O64 C67 1.259 . S
O65 Mg56 2.114 . S
O65 C68 1.252 . S
O66 Mg56 2.251 . S
O66 Mg59 2.079 . S
O66 C68 1.273 . S
C67 O63 1.246 . S
C67 O64 1.259 . S
C68 O65 1.252 . S
C68 O66 1.273 . S
O69 Mg56 2.010 1_554 S
O69 C61 1.249 . S
Mg70 O71 2.028 1_554 S
Mg70 O77 1.986 1_545 S
Mg70 O79 2.114 . S
Mg70 O80 2.251 1_545 S
Mg70 O83 2.010 . S
O71 Mg70 2.028 1_556 S
O71 C74 1.250 1_545 S
O72 Mg73 2.028 1_556 S
O72 C74 1.248 . S
Mg73 O72 2.028 1_554 S
Mg73 O78 2.032 . S
Mg73 O80 2.079 . S
C74 O71 1.250 1_565 S
C74 O72 1.248 . S
C75 O76 1.264 . S
C75 O83 1.249 . S
O76 C75 1.264 . S
O77 Mg70 1.986 1_565 S
O77 C81 1.246 . S
O78 Mg73 2.032 . S
O78 C81 1.259 . S
O79 Mg70 2.114 . S
O79 C82 1.252 . S
O80 Mg70 2.251 1_565 S
O80 Mg73 2.079 . S
O80 C82 1.273 1_565 S
C81 O77 1.246 . S
C81 O78 1.259 . S
C82 O79 1.252 . S
C82 O80 1.273 1_545 S
O83 Mg70 2.010 . S
O83 C75 1.249 . S
Mg84 O85 2.028 . S
Mg84 O91 1.986 . S
Mg84 O93 2.114 . S
Mg84 O94 2.251 . S
Mg84 O97 2.010 . S
O85 Mg84 2.028 . S
O85 C88 1.250 . S
O86 Mg87 2.028 . S
O86 C88 1.248 . S
Mg87 O86 2.028 . S
Mg87 O92 2.032 . S
Mg87 O94 2.079 . S
C88 O85 1.250 . S
C88 O86 1.248 . S
C89 O90 1.264 . S
C89 O97 1.249 . S
O90 C89 1.264 . S
O91 Mg84 1.986 . S
O91 C95 1.246 . S
O92 Mg87 2.032 . S
O92 C95 1.259 . S
O93 Mg84 2.114 . S
O93 C96 1.252 . S
O94 Mg84 2.251 . S
O94 Mg87 2.079 . S
O94 C96 1.273 . S
C95 O91 1.246 . S
C95 O92 1.259 . S
C96 O93 1.252 . S
C96 O94 1.273 . S
O97 Mg84 2.010 . S
O97 C89 1.249 . S
Mg98 O99 2.028 . S
Mg98 O105 1.986 1_565 S
Mg98 O107 2.114 . S
Mg98 O108 2.251 . S
Mg98 O111 2.010 . S
O99 Mg98 2.028 . S
O99 C102 1.250 . S
O100 Mg101 2.028 . S
O100 C102 1.248 . S
Mg101 O100 2.028 . S
Mg101 O106 2.032 1_565 S
Mg101 O108 2.079 . S
C102 O99 1.250 . S
C102 O100 1.248 . S
C103 O104 1.264 . S
C103 O111 1.249 . S
O104 C103 1.264 . S
O105 Mg98 1.986 1_545 S
O105 C109 1.246 . S
O106 Mg101 2.032 1_545 S
O106 C109 1.259 . S
O107 Mg98 2.114 . S
O107 C110 1.252 . S
O108 Mg98 2.251 . S
O108 Mg101 2.079 . S
O108 C110 1.273 . S
C109 O105 1.246 . S
C109 O106 1.259 . S
C110 O107 1.252 . S
C110 O108 1.273 . S
O111 Mg98 2.010 . S
O111 C103 1.249 . S
Mg112 O113 2.028 . S
Mg112 O119 1.986 . S
Mg112 O121 2.114 . S
Mg112 O122 2.251 . S
Mg112 O125 2.010 1_455 S
O113 Mg112 2.028 . S
O113 C116 1.250 . S
O114 Mg115 2.028 . S
O114 C116 1.248 . S
Mg115 O114 2.028 . S
Mg115 O120 2.032 . S
Mg115 O122 2.079 . S
C116 O113 1.250 . S
C116 O114 1.248 . S
C117 O118 1.264 . S
C117 O125 1.249 . S
O118 C117 1.264 . S
O119 Mg112 1.986 . S
O119 C123 1.246 . S
O120 Mg115 2.032 . S
O120 C123 1.259 . S
O121 Mg112 2.114 . S
O121 C124 1.252 . S
O122 Mg112 2.251 . S
O122 Mg115 2.079 . S
O122 C124 1.273 . S
C123 O119 1.246 . S
C123 O120 1.259 . S
C124 O121 1.252 . S
C124 O122 1.273 . S
O125 Mg112 2.010 1_655 S
O125 C117 1.249 . S
Mg126 O127 2.028 . S
Mg126 O133 1.986 1_565 S
Mg126 O135 2.114 . S
Mg126 O136 2.251 . S
Mg126 O139 2.010 . S
O127 Mg126 2.028 . S
O127 C130 1.250 . S
O128 Mg129 2.028 . S
O128 C130 1.248 . S
Mg129 O128 2.028 . S
Mg129 O134 2.032 1_565 S
Mg129 O136 2.079 . S
C130 O127 1.250 . S
C130 O128 1.248 . S
C131 O132 1.264 . S
C131 O139 1.249 . S
O132 C131 1.264 . S
O133 Mg126 1.986 1_545 S
O133 C137 1.246 . S
O134 Mg129 2.032 1_545 S
O134 C137 1.259 . S
O135 Mg126 2.114 . S
O135 C138 1.252 . S
O136 Mg126 2.251 . S
O136 Mg129 2.079 . S
O136 C138 1.273 . S
C137 O133 1.246 . S
C137 O134 1.259 . S
C138 O135 1.252 . S
C138 O136 1.273 . S
O139 Mg126 2.010 . S
O139 C131 1.249 . S
Mg140 O141 2.028 . S
Mg140 O147 1.986 . S
Mg140 O149 2.114 . S
Mg140 O150 2.251 . S
Mg140 O153 2.010 1_455 S
O141 Mg140 2.028 . S
O141 C144 1.250 . S
O142 Mg143 2.028 . S
O142 C144 1.248 . S
Mg143 O142 2.028 . S
Mg143 O148 2.032 . S
Mg143 O150 2.079 . S
C144 O141 1.250 . S
C144 O142 1.248 . S
C145 O146 1.264 . S
C145 O153 1.249 . S
O146 C145 1.264 . S
O147 Mg140 1.986 . S
O147 C151 1.246 . S
O148 Mg143 2.032 . S
O148 C151 1.259 . S
O149 Mg140 2.114 . S
O149 C152 1.252 . S
O150 Mg140 2.251 . S
O150 Mg143 2.079 . S
O150 C152 1.273 . S
C151 O147 1.246 . S
C151 O148 1.259 . S
C152 O149 1.252 . S
C152 O150 1.273 . S
O153 Mg140 2.010 1_655 S
O153 C145 1.249 . S
Mg154 O155 2.028 . S
Mg154 O161 1.986 . S
Mg154 O163 2.114 . S
Mg154 O164 2.251 . S
Mg154 O167 2.010 . S
O155 Mg154 2.028 . S
O155 C158 1.250 . S
O156 Mg157 2.028 . S
O156 C158 1.248 . S
Mg157 O156 2.028 . S
Mg157 O162 2.032 . S
Mg157 O164 2.079 . S
C158 O155 1.250 . S
C158 O156 1.248 . S
C159 O160 1.264 . S
C159 O167 1.249 . S
O160 C159 1.264 . S
O161 Mg154 1.986 . S
O161 C165 1.246 . S
O162 Mg157 2.032 . S
O162 C165 1.259 . S
O163 Mg154 2.114 . S
O163 C166 1.252 . S
O164 Mg154 2.251 . S
O164 Mg157 2.079 . S
O164 C166 1.273 . S
C165 O161 1.246 . S
C165 O162 1.259 . S
C166 O163 1.252 . S
C166 O164 1.273 . S
O167 Mg154 2.010 . S
O167 C159 1.249 . S
Mg168 O169 2.028 . S
Mg168 O175 1.986 1_545 S
Mg168 O177 2.114 . S
Mg168 O178 2.251 . S
Mg168 O181 2.010 . S
O169 Mg168 2.028 . S
O169 C172 1.250 . S
O170 Mg171 2.028 . S
O170 C172 1.248 . S
Mg171 O170 2.028 . S
Mg171 O176 2.032 1_545 S
Mg171 O178 2.079 . S
C172 O169 1.250 . S
C172 O170 1.248 . S
C173 O174 1.264 . S
C173 O181 1.249 . S
O174 C173 1.264 . S
O175 Mg168 1.986 1_565 S
O175 C179 1.246 . S
O176 Mg171 2.032 1_565 S
O176 C179 1.259 . S
O177 Mg168 2.114 . S
O177 C180 1.252 . S
O178 Mg168 2.251 . S
O178 Mg171 2.079 . S
O178 C180 1.273 . S
C179 O175 1.246 . S
C179 O176 1.259 . S
C180 O177 1.252 . S
C180 O178 1.273 . S
O181 Mg168 2.010 . S
O181 C173 1.249 . S
Mg182 O183 2.028 . S
Mg182 O189 1.986 . S
Mg182 O191 2.114 . S
Mg182 O192 2.251 . S
Mg182 O195 2.010 1_655 S
O183 Mg182 2.028 . S
O183 C186 1.250 . S
O184 Mg185 2.028 . S
O184 C186 1.248 . S
Mg185 O184 2.028 . S
Mg185 O190 2.032 . S
Mg185 O192 2.079 . S
C186 O183 1.250 . S
C186 O184 1.248 . S
C187 O188 1.264 . S
C187 O195 1.249 . S
O188 C187 1.264 . S
O189 Mg182 1.986 . S
O189 C193 1.246 . S
O190 Mg185 2.032 . S
O190 C193 1.259 . S
O191 Mg182 2.114 . S
O191 C194 1.252 . S
O192 Mg182 2.251 . S
O192 Mg185 2.079 . S
O192 C194 1.273 . S
C193 O189 1.246 . S
C193 O190 1.259 . S
C194 O191 1.252 . S
C194 O192 1.273 . S
O195 Mg182 2.010 1_455 S
O195 C187 1.249 . S
Mg196 O197 2.028 . S
Mg196 O203 1.986 . S
Mg196 O205 2.114 . S
Mg196 O206 2.251 . S
Mg196 O209 2.010 . S
O197 Mg196 2.028 . S
O197 C200 1.250 . S
O198 Mg199 2.028 . S
O198 C200 1.248 . S
Mg199 O198 2.028 . S
Mg199 O204 2.032 . S
Mg199 O206 2.079 . S
C200 O197 1.250 . S
C200 O198 1.248 . S
C201 O202 1.264 . S
C201 O209 1.249 . S
O202 C201 1.264 . S
O203 Mg196 1.986 . S
O203 C207 1.246 . S
O204 Mg199 2.032 . S
O204 C207 1.259 . S
O205 Mg196 2.114 . S
O205 C208 1.252 . S
O206 Mg196 2.251 . S
O206 Mg199 2.079 . S
O206 C208 1.273 . S
C207 O203 1.246 . S
C207 O204 1.259 . S
C208 O205 1.252 . S
C208 O206 1.273 . S
O209 Mg196 2.010 . S
O209 C201 1.249 . S
Mg210 O211 2.028 . S
Mg210 O217 1.986 . S
Mg210 O219 2.114 . S
Mg210 O220 2.251 . S
Mg210 O223 2.010 . S
O211 Mg210 2.028 . S
O211 C214 1.250 . S
O212 Mg213 2.028 . S
O212 C214 1.248 . S
Mg213 O212 2.028 . S
Mg213 O218 2.032 . S
Mg213 O220 2.079 . S
C214 O211 1.250 . S
C214 O212 1.248 . S
C215 O216 1.264 . S
C215 O223 1.249 . S
O216 C215 1.264 . S
O217 Mg210 1.986 . S
O217 C221 1.246 . S
O218 Mg213 2.032 . S
O218 C221 1.259 . S
O219 Mg210 2.114 . S
O219 C222 1.252 . S
O220 Mg210 2.251 . S
O220 Mg213 2.079 . S
O220 C222 1.273 . S
C221 O217 1.246 . S
C221 O218 1.259 . S
C222 O219 1.252 . S
C222 O220 1.273 . S
O223 Mg210 2.010 . S
O223 C215 1.249 . S
Mg224 O225 2.028 . S
Mg224 O231 1.986 1_545 S
Mg224 O233 2.114 . S
Mg224 O234 2.251 . S
Mg224 O237 2.010 . S
O225 Mg224 2.028 . S
O225 C228 1.250 . S
O226 Mg227 2.028 . S
O226 C228 1.248 . S
Mg227 O226 2.028 . S
Mg227 O232 2.032 1_545 S
Mg227 O234 2.079 . S
C228 O225 1.250 . S
C228 O226 1.248 . S
C229 O230 1.264 . S
C229 O237 1.249 . S
O230 C229 1.264 . S
O231 Mg224 1.986 1_565 S
O231 C235 1.246 . S
O232 Mg227 2.032 1_565 S
O232 C235 1.259 . S
O233 Mg224 2.114 . S
O233 C236 1.252 . S
O234 Mg224 2.251 . S
O234 Mg227 2.079 . S
O234 C236 1.273 . S
C235 O231 1.246 . S
C235 O232 1.259 . S
C236 O233 1.252 . S
C236 O234 1.273 . S
O237 Mg224 2.010 . S
O237 C229 1.249 . S
Mg238 O239 2.028 . S
Mg238 O245 1.986 . S
Mg238 O247 2.114 . S
Mg238 O248 2.251 . S
Mg238 O251 2.010 1_655 S
O239 Mg238 2.028 . S
O239 C242 1.250 . S
O240 Mg241 2.028 . S
O240 C242 1.248 . S
Mg241 O240 2.028 . S
Mg241 O246 2.032 . S
Mg241 O248 2.079 . S
C242 O239 1.250 . S
C242 O240 1.248 . S
C243 O244 1.264 . S
C243 O251 1.249 . S
O244 C243 1.264 . S
O245 Mg238 1.986 . S
O245 C249 1.246 . S
O246 Mg241 2.032 . S
O246 C249 1.259 . S
O247 Mg238 2.114 . S
O247 C250 1.252 . S
O248 Mg238 2.251 . S
O248 Mg241 2.079 . S
O248 C250 1.273 . S
C249 O245 1.246 . S
C249 O246 1.259 . S
C250 O247 1.252 . S
C250 O248 1.273 . S
O251 Mg238 2.010 1_455 S
O251 C243 1.249 . S
H252 C271 0.949 . S
H253 C272 0.950 . S
H254 C274 0.950 . S
H255 C275 0.950 . S
H256 C277 0.950 . S
H257 C280 0.950 . S
H258 C281 0.950 . S
H259 C283 0.951 . S
H260 C284 0.949 . S
H261 C286 0.949 . S
H262 C287 0.950 . S
H263 C289 0.950 . S
H264 C290 0.950 . S
H265 C292 0.950 . S
H266 C295 0.950 . S
H267 C296 0.950 . S
H268 C298 0.951 . S
H269 C299 0.949 . S
C270 C271 1.376 . S
C270 C275 1.386 . S
C270 C276 1.483 . S
C271 H252 0.949 . S
C271 C270 1.376 . S
C271 C272 1.397 . S
C272 H253 0.950 . S
C272 C271 1.397 . S
C272 C273 1.391 . S
C273 C272 1.391 . S
C273 C274 1.405 . S
C274 H254 0.950 . S
C274 C273 1.405 . S
C274 C275 1.367 . S
C275 H255 0.950 . S
C275 C270 1.386 . S
C275 C274 1.367 . S
C276 C270 1.483 . S
C276 C277 1.382 . S
C276 C278 1.403 . S
C277 H256 0.950 . S
C277 C276 1.382 . S
C277 C293 1.411 . S
C278 C276 1.403 . S
C278 C279 1.489 . S
C278 C292 1.411 . S
C279 C278 1.489 . S
C279 C280 1.383 . S
C279 C284 1.382 . S
C280 H257 0.950 . S
C280 C279 1.383 . S
C280 C281 1.395 . S
C281 H258 0.950 . S
C281 C280 1.395 . S
C281 C282 1.288 . S
C282 C281 1.288 . S
C282 C283 1.392 . S
C283 H259 0.951 . S
C283 C282 1.392 . S
C283 C284 1.392 . S
C284 H260 0.949 . S
C284 C279 1.382 . S
C284 C283 1.392 . S
C285 C286 1.376 . S
C285 C290 1.386 . S
C285 C291 1.483 . S
C286 H261 0.949 . S
C286 C285 1.376 . S
C286 C287 1.397 . S
C287 H262 0.950 . S
C287 C286 1.397 . S
C287 C288 1.391 . S
C288 C287 1.391 . S
C288 C289 1.405 . S
C289 H263 0.950 . S
C289 C288 1.405 . S
C289 C290 1.367 . S
C290 H264 0.950 . S
C290 C285 1.386 . S
C290 C289 1.367 . S
C291 C285 1.483 . S
C291 C292 1.382 . S
C291 C293 1.403 . S
C292 H265 0.950 . S
C292 C278 1.411 . S
C292 C291 1.382 . S
C293 C277 1.411 . S
C293 C291 1.403 . S
C293 C294 1.489 . S
C294 C293 1.489 . S
C294 C295 1.383 . S
C294 C299 1.382 . S
C295 H266 0.950 . S
C295 C294 1.383 . S
C295 C296 1.395 . S
C296 H267 0.950 . S
C296 C295 1.395 . S
C296 C297 1.288 . S
C297 C296 1.288 . S
C297 C298 1.392 . S
C298 H268 0.951 . S
C298 C297 1.392 . S
C298 C299 1.392 . S
C299 H269 0.949 . S
C299 C294 1.382 . S
C299 C298 1.392 . S
H300 C319 0.949 . S
H301 C320 0.950 . S
H302 C322 0.950 . S
H303 C323 0.950 . S
H304 C325 0.950 . S
H305 C328 0.950 . S
H306 C329 0.950 . S
H307 C331 0.951 . S
H308 C332 0.949 . S
H309 C334 0.949 . S
H310 C335 0.950 . S
H311 C337 0.950 . S
H312 C338 0.950 . S
H313 C340 0.950 . S
H314 C343 0.950 . S
H315 C344 0.950 . S
H316 C346 0.951 . S
H317 C347 0.949 . S
C318 C319 1.376 . S
C318 C323 1.386 . S
C318 C324 1.483 . S
C319 H300 0.949 . S
C319 C318 1.376 . S
C319 C320 1.397 . S
C320 H301 0.950 . S
C320 C319 1.397 . S
C320 C321 1.391 . S
C321 C320 1.391 . S
C321 C322 1.405 . S
C322 H302 0.950 . S
C322 C321 1.405 . S
C322 C323 1.367 . S
C323 H303 0.950 . S
C323 C318 1.386 . S
C323 C322 1.367 . S
C324 C318 1.483 . S
C324 C325 1.382 . S
C324 C326 1.403 . S
C325 H304 0.950 . S
C325 C324 1.382 . S
C325 C341 1.411 . S
C326 C324 1.403 . S
C326 C327 1.489 . S
C326 C340 1.411 . S
C327 C326 1.489 . S
C327 C328 1.383 . S
C327 C332 1.382 . S
C328 H305 0.950 . S
C328 C327 1.383 . S
C328 C329 1.395 . S
C329 H306 0.950 . S
C329 C328 1.395 . S
C329 C330 1.288 . S
C330 C329 1.288 . S
C330 C331 1.392 . S
C331 H307 0.951 . S
C331 C330 1.392 . S
C331 C332 1.392 . S
C332 H308 0.949 . S
C332 C327 1.382 . S
C332 C331 1.392 . S
C333 C334 1.376 . S
C333 C338 1.386 . S
C333 C339 1.483 . S
C334 H309 0.949 . S
C334 C333 1.376 . S
C334 C335 1.397 . S
C335 H310 0.950 . S
C335 C334 1.397 . S
C335 C336 1.391 . S
C336 C335 1.391 . S
C336 C337 1.405 . S
C337 H311 0.950 . S
C337 C336 1.405 . S
C337 C338 1.367 . S
C338 H312 0.950 . S
C338 C333 1.386 . S
C338 C337 1.367 . S
C339 C333 1.483 . S
C339 C340 1.382 . S
C339 C341 1.403 . S
C340 H313 0.950 . S
C340 C326 1.411 . S
C340 C339 1.382 . S
C341 C325 1.411 . S
C341 C339 1.403 . S
C341 C342 1.489 . S
C342 C341 1.489 . S
C342 C343 1.383 . S
C342 C347 1.382 . S
C343 H314 0.950 . S
C343 C342 1.383 . S
C343 C344 1.395 . S
C344 H315 0.950 . S
C344 C343 1.395 . S
C344 C345 1.288 . S
C345 C344 1.288 . S
C345 C346 1.392 . S
C346 H316 0.951 . S
C346 C345 1.392 . S
C346 C347 1.392 . S
C347 H317 0.949 . S
C347 C342 1.382 . S
C347 C346 1.392 . S
H348 C367 0.949 . S
H349 C368 0.950 . S
H350 C370 0.950 . S
H351 C371 0.950 . S
H352 C373 0.950 . S
H353 C376 0.950 . S
H354 C377 0.950 . S
H355 C379 0.951 . S
H356 C380 0.949 . S
H357 C382 0.949 . S
H358 C383 0.950 . S
H359 C385 0.950 . S
H360 C386 0.950 . S
H361 C388 0.950 . S
H362 C391 0.950 . S
H363 C392 0.950 . S
H364 C394 0.951 . S
H365 C395 0.949 . S
C366 C367 1.376 . S
C366 C371 1.386 . S
C366 C372 1.483 . S
C367 H348 0.949 . S
C367 C366 1.376 . S
C367 C368 1.397 . S
C368 H349 0.950 . S
C368 C367 1.397 . S
C368 C369 1.391 . S
C369 C368 1.391 . S
C369 C370 1.405 . S
C370 H350 0.950 . S
C370 C369 1.405 . S
C370 C371 1.367 . S
C371 H351 0.950 . S
C371 C366 1.386 . S
C371 C370 1.367 . S
C372 C366 1.483 . S
C372 C373 1.382 . S
C372 C374 1.403 . S
C373 H352 0.950 . S
C373 C372 1.382 . S
C373 C389 1.411 . S
C374 C372 1.403 . S
C374 C375 1.489 . S
C374 C388 1.411 . S
C375 C374 1.489 . S
C375 C376 1.383 . S
C375 C380 1.382 . S
C376 H353 0.950 . S
C376 C375 1.383 . S
C376 C377 1.395 . S
C377 H354 0.950 . S
C377 C376 1.395 . S
C377 C378 1.288 . S
C378 C377 1.288 . S
C378 C379 1.392 . S
C379 H355 0.951 . S
C379 C378 1.392 . S
C379 C380 1.392 . S
C380 H356 0.949 . S
C380 C375 1.382 . S
C380 C379 1.392 . S
C381 C382 1.376 . S
C381 C386 1.386 . S
C381 C387 1.483 . S
C382 H357 0.949 . S
C382 C381 1.376 . S
C382 C383 1.397 . S
C383 H358 0.950 . S
C383 C382 1.397 . S
C383 C384 1.391 . S
C384 C383 1.391 . S
C384 C385 1.405 . S
C385 H359 0.950 . S
C385 C384 1.405 . S
C385 C386 1.367 . S
C386 H360 0.950 . S
C386 C381 1.386 . S
C386 C385 1.367 . S
C387 C381 1.483 . S
C387 C388 1.382 . S
C387 C389 1.403 . S
C388 H361 0.950 . S
C388 C374 1.411 . S
C388 C387 1.382 . S
C389 C373 1.411 . S
C389 C387 1.403 . S
C389 C390 1.489 . S
C390 C389 1.489 . S
C390 C391 1.383 . S
C390 C395 1.382 . S
C391 H362 0.950 . S
C391 C390 1.383 . S
C391 C392 1.395 . S
C392 H363 0.950 . S
C392 C391 1.395 . S
C392 C393 1.288 . S
C393 C392 1.288 . S
C393 C394 1.392 . S
C394 H364 0.951 . S
C394 C393 1.392 . S
C394 C395 1.392 . S
C395 H365 0.949 . S
C395 C390 1.382 . S
C395 C394 1.392 . S
H396 C415 0.949 . S
H397 C416 0.950 . S
H398 C418 0.950 . S
H399 C419 0.950 . S
H400 C421 0.950 . S
H401 C424 0.950 . S
H402 C425 0.950 . S
H403 C427 0.951 . S
H404 C428 0.949 . S
H405 C430 0.949 . S
H406 C431 0.950 . S
H407 C433 0.950 . S
H408 C434 0.950 . S
H409 C436 0.950 . S
H410 C439 0.950 . S
H411 C440 0.950 . S
H412 C442 0.951 . S
H413 C443 0.949 . S
C414 C415 1.376 . S
C414 C419 1.386 . S
C414 C420 1.483 . S
C415 H396 0.949 . S
C415 C414 1.376 . S
C415 C416 1.397 . S
C416 H397 0.950 . S
C416 C415 1.397 . S
C416 C417 1.391 . S
C417 C416 1.391 . S
C417 C418 1.405 . S
C418 H398 0.950 . S
C418 C417 1.405 . S
C418 C419 1.367 . S
C419 H399 0.950 . S
C419 C414 1.386 . S
C419 C418 1.367 . S
C420 C414 1.483 . S
C420 C421 1.382 . S
C420 C422 1.403 . S
C421 H400 0.950 . S
C421 C420 1.382 . S
C421 C437 1.411 . S
C422 C420 1.403 . S
C422 C423 1.489 . S
C422 C436 1.411 . S
C423 C422 1.489 . S
C423 C424 1.383 . S
C423 C428 1.382 . S
C424 H401 0.950 . S
C424 C423 1.383 . S
C424 C425 1.395 . S
C425 H402 0.950 . S
C425 C424 1.395 . S
C425 C426 1.288 . S
C426 C425 1.288 . S
C426 C427 1.392 . S
C427 H403 0.951 . S
C427 C426 1.392 . S
C427 C428 1.392 . S
C428 H404 0.949 . S
C428 C423 1.382 . S
C428 C427 1.392 . S
C429 C430 1.376 . S
C429 C434 1.386 . S
C429 C435 1.483 . S
C430 H405 0.949 . S
C430 C429 1.376 . S
C430 C431 1.397 . S
C431 H406 0.950 . S
C431 C430 1.397 . S
C431 C432 1.391 . S
C432 C431 1.391 . S
C432 C433 1.405 . S
C433 H407 0.950 . S
C433 C432 1.405 . S
C433 C434 1.367 . S
C434 H408 0.950 . S
C434 C429 1.386 . S
C434 C433 1.367 . S
C435 C429 1.483 . S
C435 C436 1.382 . S
C435 C437 1.403 . S
C436 H409 0.950 . S
C436 C422 1.411 . S
C436 C435 1.382 . S
C437 C421 1.411 . S
C437 C435 1.403 . S
C437 C438 1.489 . S
C438 C437 1.489 . S
C438 C439 1.383 . S
C438 C443 1.382 . S
C439 H410 0.950 . S
C439 C438 1.383 . S
C439 C440 1.395 . S
C440 H411 0.950 . S
C440 C439 1.395 . S
C440 C441 1.288 . S
C441 C440 1.288 . S
C441 C442 1.392 . S
C442 H412 0.951 . S
C442 C441 1.392 . S
C442 C443 1.392 . S
C443 H413 0.949 . S
C443 C438 1.382 . S
C443 C442 1.392 . S
H444 C463 0.949 . S
H445 C464 0.950 . S
H446 C466 0.950 . S
H447 C467 0.950 . S
H448 C469 0.950 . S
H449 C472 0.950 . S
H450 C473 0.950 . S
H451 C475 0.951 . S
H452 C476 0.949 . S
H453 C478 0.949 . S
H454 C479 0.950 . S
H455 C481 0.950 . S
H456 C482 0.950 . S
H457 C484 0.950 . S
H458 C487 0.950 . S
H459 C488 0.950 . S
H460 C490 0.951 . S
H461 C491 0.949 . S
C462 C463 1.376 . S
C462 C467 1.386 . S
C462 C468 1.483 . S
C463 H444 0.949 . S
C463 C462 1.376 . S
C463 C464 1.397 . S
C464 H445 0.950 . S
C464 C463 1.397 . S
C464 C465 1.391 . S
C465 C464 1.391 . S
C465 C466 1.405 . S
C466 H446 0.950 . S
C466 C465 1.405 . S
C466 C467 1.367 . S
C467 H447 0.950 . S
C467 C462 1.386 . S
C467 C466 1.367 . S
C468 C462 1.483 . S
C468 C469 1.382 . S
C468 C470 1.403 . S
C469 H448 0.950 . S
C469 C468 1.382 . S
C469 C485 1.411 . S
C470 C468 1.403 . S
C470 C471 1.489 . S
C470 C484 1.411 . S
C471 C470 1.489 . S
C471 C472 1.383 . S
C471 C476 1.382 . S
C472 H449 0.950 . S
C472 C471 1.383 . S
C472 C473 1.395 . S
C473 H450 0.950 . S
C473 C472 1.395 . S
C473 C474 1.288 . S
C474 C473 1.288 . S
C474 C475 1.392 . S
C475 H451 0.951 . S
C475 C474 1.392 . S
C475 C476 1.392 . S
C476 H452 0.949 . S
C476 C471 1.382 . S
C476 C475 1.392 . S
C477 C478 1.376 . S
C477 C482 1.386 . S
C477 C483 1.483 . S
C478 H453 0.949 . S
C478 C477 1.376 . S
C478 C479 1.397 . S
C479 H454 0.950 . S
C479 C478 1.397 . S
C479 C480 1.391 . S
C480 C479 1.391 . S
C480 C481 1.405 . S
C481 H455 0.950 . S
C481 C480 1.405 . S
C481 C482 1.367 . S
C482 H456 0.950 . S
C482 C477 1.386 . S
C482 C481 1.367 . S
C483 C477 1.483 . S
C483 C484 1.382 . S
C483 C485 1.403 . S
C484 H457 0.950 . S
C484 C470 1.411 . S
C484 C483 1.382 . S
C485 C469 1.411 . S
C485 C483 1.403 . S
C485 C486 1.489 . S
C486 C485 1.489 . S
C486 C487 1.383 . S
C486 C491 1.382 . S
C487 H458 0.950 . S
C487 C486 1.383 . S
C487 C488 1.395 . S
C488 H459 0.950 . S
C488 C487 1.395 . S
C488 C489 1.288 . S
C489 C488 1.288 . S
C489 C490 1.392 . S
C490 H460 0.951 . S
C490 C489 1.392 . S
C490 C491 1.392 . S
C491 H461 0.949 . S
C491 C486 1.382 . S
C491 C490 1.392 . S
H492 C511 0.949 . S
H493 C512 0.950 . S
H494 C514 0.950 . S
H495 C515 0.950 . S
H496 C517 0.950 . S
H497 C520 0.950 . S
H498 C521 0.950 . S
H499 C523 0.951 . S
H500 C524 0.949 . S
H501 C526 0.949 . S
H502 C527 0.950 . S
H503 C529 0.950 . S
H504 C530 0.950 . S
H505 C532 0.950 . S
H506 C535 0.950 . S
H507 C536 0.950 . S
H508 C538 0.951 . S
H509 C539 0.949 . S
C510 C511 1.376 . S
C510 C515 1.386 . S
C510 C516 1.483 . S
C511 H492 0.949 . S
C511 C510 1.376 . S
C511 C512 1.397 . S
C512 H493 0.950 . S
C512 C511 1.397 . S
C512 C513 1.391 . S
C513 C512 1.391 . S
C513 C514 1.405 . S
C514 H494 0.950 . S
C514 C513 1.405 . S
C514 C515 1.367 . S
C515 H495 0.950 . S
C515 C510 1.386 . S
C515 C514 1.367 . S
C516 C510 1.483 . S
C516 C517 1.382 . S
C516 C518 1.403 . S
C517 H496 0.950 . S
C517 C516 1.382 . S
C517 C533 1.411 . S
C518 C516 1.403 . S
C518 C519 1.489 . S
C518 C532 1.411 . S
C519 C518 1.489 . S
C519 C520 1.383 . S
C519 C524 1.382 . S
C520 H497 0.950 . S
C520 C519 1.383 . S
C520 C521 1.395 . S
C521 H498 0.950 . S
C521 C520 1.395 . S
C521 C522 1.288 . S
C522 C521 1.288 . S
C522 C523 1.392 . S
C523 H499 0.951 . S
C523 C522 1.392 . S
C523 C524 1.392 . S
C524 H500 0.949 . S
C524 C519 1.382 . S
C524 C523 1.392 . S
C525 C526 1.376 . S
C525 C530 1.386 . S
C525 C531 1.483 . S
C526 H501 0.949 . S
C526 C525 1.376 . S
C526 C527 1.397 . S
C527 H502 0.950 . S
C527 C526 1.397 . S
C527 C528 1.391 . S
C528 C527 1.391 . S
C528 C529 1.405 . S
C529 H503 0.950 . S
C529 C528 1.405 . S
C529 C530 1.367 . S
C530 H504 0.950 . S
C530 C525 1.386 . S
C530 C529 1.367 . S
C531 C525 1.483 . S
C531 C532 1.382 . S
C531 C533 1.403 . S
C532 H505 0.950 . S
C532 C518 1.411 . S
C532 C531 1.382 . S
C533 C517 1.411 . S
C533 C531 1.403 . S
C533 C534 1.489 . S
C534 C533 1.489 . S
C534 C535 1.383 . S
C534 C539 1.382 . S
C535 H506 0.950 . S
C535 C534 1.383 . S
C535 C536 1.395 . S
C536 H507 0.950 . S
C536 C535 1.395 . S
C536 C537 1.288 . S
C537 C536 1.288 . S
C537 C538 1.392 . S
C538 H508 0.951 . S
C538 C537 1.392 . S
C538 C539 1.392 . S
C539 H509 0.949 . S
C539 C534 1.382 . S
C539 C538 1.392 . S
H540 C559 0.949 . S
H541 C560 0.950 . S
H542 C562 0.950 . S
H543 C563 0.950 . S
H544 C565 0.950 . S
H545 C568 0.950 . S
H546 C569 0.950 . S
H547 C571 0.951 . S
H548 C572 0.949 . S
H549 C574 0.949 . S
H550 C575 0.950 . S
H551 C577 0.950 . S
H552 C578 0.950 . S
H553 C580 0.950 . S
H554 C583 0.950 . S
H555 C584 0.950 . S
H556 C586 0.951 . S
H557 C587 0.949 . S
C558 C559 1.376 . S
C558 C563 1.386 . S
C558 C564 1.483 . S
C559 H540 0.949 . S
C559 C558 1.376 . S
C559 C560 1.397 . S
C560 H541 0.950 . S
C560 C559 1.397 . S
C560 C561 1.391 . S
C561 C560 1.391 . S
C561 C562 1.405 . S
C562 H542 0.950 . S
C562 C561 1.405 . S
C562 C563 1.367 . S
C563 H543 0.950 . S
C563 C558 1.386 . S
C563 C562 1.367 . S
C564 C558 1.483 . S
C564 C565 1.382 . S
C564 C566 1.403 . S
C565 H544 0.950 . S
C565 C564 1.382 . S
C565 C581 1.411 . S
C566 C564 1.403 . S
C566 C567 1.489 . S
C566 C580 1.411 . S
C567 C566 1.489 . S
C567 C568 1.383 . S
C567 C572 1.382 . S
C568 H545 0.950 . S
C568 C567 1.383 . S
C568 C569 1.395 . S
C569 H546 0.950 . S
C569 C568 1.395 . S
C569 C570 1.288 . S
C570 C569 1.288 . S
C570 C571 1.392 . S
C571 H547 0.951 . S
C571 C570 1.392 . S
C571 C572 1.392 . S
C572 H548 0.949 . S
C572 C567 1.382 . S
C572 C571 1.392 . S
C573 C574 1.376 . S
C573 C578 1.386 . S
C573 C579 1.483 . S
C574 H549 0.949 . S
C574 C573 1.376 . S
C574 C575 1.397 . S
C575 H550 0.950 . S
C575 C574 1.397 . S
C575 C576 1.391 . S
C576 C575 1.391 . S
C576 C577 1.405 . S
C577 H551 0.950 . S
C577 C576 1.405 . S
C577 C578 1.367 . S
C578 H552 0.950 . S
C578 C573 1.386 . S
C578 C577 1.367 . S
C579 C573 1.483 . S
C579 C580 1.382 . S
C579 C581 1.403 . S
C580 H553 0.950 . S
C580 C566 1.411 . S
C580 C579 1.382 . S
C581 C565 1.411 . S
C581 C579 1.403 . S
C581 C582 1.489 . S
C582 C581 1.489 . S
C582 C583 1.383 . S
C582 C587 1.382 . S
C583 H554 0.950 . S
C583 C582 1.383 . S
C583 C584 1.395 . S
C584 H555 0.950 . S
C584 C583 1.395 . S
C584 C585 1.288 . S
C585 C584 1.288 . S
C585 C586 1.392 . S
C586 H556 0.951 . S
C586 C585 1.392 . S
C586 C587 1.392 . S
C587 H557 0.949 . S
C587 C582 1.382 . S
C587 C586 1.392 . S
H588 C607 0.949 . S
H589 C608 0.950 . S
H590 C610 0.950 . S
H591 C611 0.950 . S
H592 C613 0.950 . S
H593 C616 0.950 . S
H594 C617 0.950 . S
H595 C619 0.951 . S
H596 C620 0.949 . S
H597 C622 0.949 . S
H598 C623 0.950 . S
H599 C625 0.950 . S
H600 C626 0.950 . S
H601 C628 0.950 . S
H602 C631 0.950 . S
H603 C632 0.950 . S
H604 C634 0.951 . S
H605 C635 0.949 . S
C606 C607 1.376 . S
C606 C611 1.386 . S
C606 C612 1.483 . S
C607 H588 0.949 . S
C607 C606 1.376 . S
C607 C608 1.397 . S
C608 H589 0.950 . S
C608 C607 1.397 . S
C608 C609 1.391 . S
C609 C608 1.391 . S
C609 C610 1.405 . S
C610 H590 0.950 . S
C610 C609 1.405 . S
C610 C611 1.367 . S
C611 H591 0.950 . S
C611 C606 1.386 . S
C611 C610 1.367 . S
C612 C606 1.483 . S
C612 C613 1.382 . S
C612 C614 1.403 . S
C613 H592 0.950 . S
C613 C612 1.382 . S
C613 C629 1.411 . S
C614 C612 1.403 . S
C614 C615 1.489 . S
C614 C628 1.411 . S
C615 C614 1.489 . S
C615 C616 1.383 . S
C615 C620 1.382 . S
C616 H593 0.950 . S
C616 C615 1.383 . S
C616 C617 1.395 . S
C617 H594 0.950 . S
C617 C616 1.395 . S
C617 C618 1.288 . S
C618 C617 1.288 . S
C618 C619 1.392 . S
C619 H595 0.951 . S
C619 C618 1.392 . S
C619 C620 1.392 . S
C620 H596 0.949 . S
C620 C615 1.382 . S
C620 C619 1.392 . S
C621 C622 1.376 . S
C621 C626 1.386 . S
C621 C627 1.483 . S
C622 H597 0.949 . S
C622 C621 1.376 . S
C622 C623 1.397 . S
C623 H598 0.950 . S
C623 C622 1.397 . S
C623 C624 1.391 . S
C624 C623 1.391 . S
C624 C625 1.405 . S
C625 H599 0.950 . S
C625 C624 1.405 . S
C625 C626 1.367 . S
C626 H600 0.950 . S
C626 C621 1.386 . S
C626 C625 1.367 . S
C627 C621 1.483 . S
C627 C628 1.382 . S
C627 C629 1.403 . S
C628 H601 0.950 . S
C628 C614 1.411 . S
C628 C627 1.382 . S
C629 C613 1.411 . S
C629 C627 1.403 . S
C629 C630 1.489 . S
C630 C629 1.489 . S
C630 C631 1.383 . S
C630 C635 1.382 . S
C631 H602 0.950 . S
C631 C630 1.383 . S
C631 C632 1.395 . S
C632 H603 0.950 . S
C632 C631 1.395 . S
C632 C633 1.288 . S
C633 C632 1.288 . S
C633 C634 1.392 . S
C634 H604 0.951 . S
C634 C633 1.392 . S
C634 C635 1.392 . S
C635 H605 0.949 . S
C635 C630 1.382 . S
C635 C634 1.392 . S
H636 C655 0.949 . S
H637 C656 0.950 . S
H638 C658 0.950 . S
H639 C659 0.950 . S
H640 C661 0.950 . S
H641 C664 0.950 . S
H642 C665 0.950 . S
H643 C667 0.951 . S
H644 C668 0.949 . S
H645 C670 0.949 . S
H646 C671 0.950 . S
H647 C673 0.950 . S
H648 C674 0.950 . S
H649 C676 0.950 . S
H650 C679 0.950 . S
H651 C680 0.950 . S
H652 C682 0.951 . S
H653 C683 0.949 . S
C654 C655 1.376 . S
C654 C659 1.386 . S
C654 C660 1.483 . S
C655 H636 0.949 . S
C655 C654 1.376 . S
C655 C656 1.397 . S
C656 H637 0.950 . S
C656 C655 1.397 . S
C656 C657 1.391 . S
C657 C656 1.391 . S
C657 C658 1.405 . S
C658 H638 0.950 . S
C658 C657 1.405 . S
C658 C659 1.367 . S
C659 H639 0.950 . S
C659 C654 1.386 . S
C659 C658 1.367 . S
C660 C654 1.483 . S
C660 C661 1.382 . S
C660 C662 1.403 . S
C661 H640 0.950 . S
C661 C660 1.382 . S
C661 C677 1.411 . S
C662 C660 1.403 . S
C662 C663 1.489 . S
C662 C676 1.411 . S
C663 C662 1.489 . S
C663 C664 1.383 . S
C663 C668 1.382 . S
C664 H641 0.950 . S
C664 C663 1.383 . S
C664 C665 1.395 . S
C665 H642 0.950 . S
C665 C664 1.395 . S
C665 C666 1.288 . S
C666 C665 1.288 . S
C666 C667 1.392 . S
C667 H643 0.951 . S
C667 C666 1.392 . S
C667 C668 1.392 . S
C668 H644 0.949 . S
C668 C663 1.382 . S
C668 C667 1.392 . S
C669 C670 1.376 . S
C669 C674 1.386 . S
C669 C675 1.483 . S
C670 H645 0.949 . S
C670 C669 1.376 . S
C670 C671 1.397 . S
C671 H646 0.950 . S
C671 C670 1.397 . S
C671 C672 1.391 . S
C672 C671 1.391 . S
C672 C673 1.405 . S
C673 H647 0.950 . S
C673 C672 1.405 . S
C673 C674 1.367 . S
C674 H648 0.950 . S
C674 C669 1.386 . S
C674 C673 1.367 . S
C675 C669 1.483 . S
C675 C676 1.382 . S
C675 C677 1.403 . S
C676 H649 0.950 . S
C676 C662 1.411 . S
C676 C675 1.382 . S
C677 C661 1.411 . S
C677 C675 1.403 . S
C677 C678 1.489 . S
C678 C677 1.489 . S
C678 C679 1.383 . S
C678 C683 1.382 . S
C679 H650 0.950 . S
C679 C678 1.383 . S
C679 C680 1.395 . S
C680 H651 0.950 . S
C680 C679 1.395 . S
C680 C681 1.288 . S
C681 C680 1.288 . S
C681 C682 1.392 . S
C682 H652 0.951 . S
C682 C681 1.392 . S
C682 C683 1.392 . S
C683 H653 0.949 . S
C683 C678 1.382 . S
C683 C682 1.392 . S
H684 C703 0.949 . S
H685 C704 0.950 . S
H686 C706 0.950 . S
H687 C707 0.950 . S
H688 C709 0.950 . S
H689 C712 0.950 . S
H690 C713 0.950 . S
H691 C715 0.951 . S
H692 C716 0.949 . S
H693 C718 0.949 . S
H694 C719 0.950 . S
H695 C721 0.950 . S
H696 C722 0.950 . S
H697 C724 0.950 . S
H698 C727 0.950 . S
H699 C728 0.950 . S
H700 C730 0.951 . S
H701 C731 0.949 . S
C702 C703 1.376 . S
C702 C707 1.386 1_655 S
C702 C708 1.483 . S
C703 H684 0.949 . S
C703 C702 1.376 . S
C703 C704 1.397 . S
C704 H685 0.950 . S
C704 C703 1.397 . S
C704 C705 1.391 . S
C705 C704 1.391 . S
C705 C706 1.405 1_655 S
C706 H686 0.950 . S
C706 C705 1.405 1_455 S
C706 C707 1.367 . S
C707 H687 0.950 . S
C707 C702 1.386 1_455 S
C707 C706 1.367 . S
C708 C702 1.483 . S
C708 C709 1.382 . S
C708 C710 1.403 1_655 S
C709 H688 0.950 . S
C709 C708 1.382 . S
C709 C725 1.411 . S
C710 C708 1.403 1_455 S
C710 C711 1.489 . S
C710 C724 1.411 . S
C711 C710 1.489 . S
C711 C712 1.383 1_455 S
C711 C716 1.382 . S
C712 H689 0.950 . S
C712 C711 1.383 1_655 S
C712 C713 1.395 . S
C713 H690 0.950 . S
C713 C712 1.395 . S
C713 C714 1.288 1_655 S
C714 C713 1.288 1_455 S
C714 C715 1.392 . S
C715 H691 0.951 . S
C715 C714 1.392 . S
C715 C716 1.392 . S
C716 H692 0.949 . S
C716 C711 1.382 . S
C716 C715 1.392 . S
C717 C718 1.376 . S
C717 C722 1.386 1_455 S
C717 C723 1.483 . S
C718 H693 0.949 . S
C718 C717 1.376 . S
C718 C719 1.397 . S
C719 H694 0.950 . S
C719 C718 1.397 . S
C719 C720 1.391 . S
C720 C719 1.391 . S
C720 C721 1.405 1_455 S
C721 H695 0.950 . S
C721 C720 1.405 1_655 S
C721 C722 1.367 . S
C722 H696 0.950 . S
C722 C717 1.386 1_655 S
C722 C721 1.367 . S
C723 C717 1.483 . S
C723 C724 1.382 . S
C723 C725 1.403 1_455 S
C724 H697 0.950 . S
C724 C710 1.411 . S
C724 C723 1.382 . S
C725 C709 1.411 . S
C725 C723 1.403 1_655 S
C725 C726 1.489 . S
C726 C725 1.489 . S
C726 C727 1.383 1_655 S
C726 C731 1.382 . S
C727 H698 0.950 . S
C727 C726 1.383 1_455 S
C727 C728 1.395 . S
C728 H699 0.950 . S
C728 C727 1.395 . S
C728 C729 1.288 1_455 S
C729 C728 1.288 1_655 S
C729 C730 1.392 . S
C730 H700 0.951 . S
C730 C729 1.392 . S
C730 C731 1.392 . S
C731 H701 0.949 . S
C731 C726 1.382 . S
C731 C730 1.392 . S
H732 C751 0.949 . S
H733 C752 0.950 . S
H734 C754 0.950 . S
H735 C755 0.950 . S
H736 C757 0.950 . S
H737 C760 0.950 . S
H738 C761 0.950 . S
H739 C763 0.951 . S
H740 C764 0.949 . S
H741 C766 0.949 . S
H742 C767 0.950 . S
H743 C769 0.950 . S
H744 C770 0.950 . S
H745 C772 0.950 . S
H746 C775 0.950 . S
H747 C776 0.950 . S
H748 C778 0.951 . S
H749 C779 0.949 . S
C750 C751 1.376 . S
C750 C755 1.386 . S
C750 C756 1.483 . S
C751 H732 0.949 . S
C751 C750 1.376 . S
C751 C752 1.397 . S
C752 H733 0.950 . S
C752 C751 1.397 . S
C752 C753 1.391 . S
C753 C752 1.391 . S
C753 C754 1.405 . S
C754 H734 0.950 . S
C754 C753 1.405 . S
C754 C755 1.367 . S
C755 H735 0.950 . S
C755 C750 1.386 . S
C755 C754 1.367 . S
C756 C750 1.483 . S
C756 C757 1.382 . S
C756 C758 1.403 . S
C757 H736 0.950 . S
C757 C756 1.382 . S
C757 C773 1.411 . S
C758 C756 1.403 . S
C758 C759 1.489 . S
C758 C772 1.411 . S
C759 C758 1.489 . S
C759 C760 1.383 . S
C759 C764 1.382 . S
C760 H737 0.950 . S
C760 C759 1.383 . S
C760 C761 1.395 . S
C761 H738 0.950 . S
C761 C760 1.395 . S
C761 C762 1.288 . S
C762 C761 1.288 . S
C762 C763 1.392 . S
C763 H739 0.951 . S
C763 C762 1.392 . S
C763 C764 1.392 . S
C764 H740 0.949 . S
C764 C759 1.382 . S
C764 C763 1.392 . S
C765 C766 1.376 . S
C765 C770 1.386 . S
C765 C771 1.483 . S
C766 H741 0.949 . S
C766 C765 1.376 . S
C766 C767 1.397 . S
C767 H742 0.950 . S
C767 C766 1.397 . S
C767 C768 1.391 . S
C768 C767 1.391 . S
C768 C769 1.405 . S
C769 H743 0.950 . S
C769 C768 1.405 . S
C769 C770 1.367 . S
C770 H744 0.950 . S
C770 C765 1.386 . S
C770 C769 1.367 . S
C771 C765 1.483 . S
C771 C772 1.382 . S
C771 C773 1.403 . S
C772 H745 0.950 . S
C772 C758 1.411 . S
C772 C771 1.382 . S
C773 C757 1.411 . S
C773 C771 1.403 . S
C773 C774 1.489 . S
C774 C773 1.489 . S
C774 C775 1.383 . S
C774 C779 1.382 . S
C775 H746 0.950 . S
C775 C774 1.383 . S
C775 C776 1.395 . S
C776 H747 0.950 . S
C776 C775 1.395 . S
C776 C777 1.288 . S
C777 C776 1.288 . S
C777 C778 1.392 . S
C778 H748 0.951 . S
C778 C777 1.392 . S
C778 C779 1.392 . S
C779 H749 0.949 . S
C779 C774 1.382 . S
C779 C778 1.392 . S
H780 C799 0.949 . S
H781 C800 0.950 . S
H782 C802 0.950 . S
H783 C803 0.950 . S
H784 C805 0.950 . S
H785 C808 0.950 . S
H786 C809 0.950 . S
H787 C811 0.951 . S
H788 C812 0.949 . S
H789 C814 0.949 . S
H790 C815 0.950 . S
H791 C817 0.950 . S
H792 C818 0.950 . S
H793 C820 0.950 . S
H794 C823 0.950 . S
H795 C824 0.950 . S
H796 C826 0.951 . S
H797 C827 0.949 . S
C798 C799 1.376 . S
C798 C803 1.386 1_545 S
C798 C804 1.483 . S
C799 H780 0.949 . S
C799 C798 1.376 . S
C799 C800 1.397 . S
C800 H781 0.950 . S
C800 C799 1.397 . S
C800 C801 1.391 . S
C801 C800 1.391 . S
C801 C802 1.405 1_545 S
C802 H782 0.950 . S
C802 C801 1.405 1_565 S
C802 C803 1.367 . S
C803 H783 0.950 . S
C803 C798 1.386 1_565 S
C803 C802 1.367 . S
C804 C798 1.483 . S
C804 C805 1.382 . S
C804 C806 1.403 1_545 S
C805 H784 0.950 . S
C805 C804 1.382 . S
C805 C821 1.411 . S
C806 C804 1.403 1_565 S
C806 C807 1.489 . S
C806 C820 1.411 . S
C807 C806 1.489 . S
C807 C808 1.383 1_565 S
C807 C812 1.382 . S
C808 H785 0.950 . S
C808 C807 1.383 1_545 S
C808 C809 1.395 . S
C809 H786 0.950 . S
C809 C808 1.395 . S
C809 C810 1.288 1_545 S
C810 C809 1.288 1_565 S
C810 C811 1.392 . S
C811 H787 0.951 . S
C811 C810 1.392 . S
C811 C812 1.392 . S
C812 H788 0.949 . S
C812 C807 1.382 . S
C812 C811 1.392 . S
C813 C814 1.376 . S
C813 C818 1.386 1_565 S
C813 C819 1.483 . S
C814 H789 0.949 . S
C814 C813 1.376 . S
C814 C815 1.397 . S
C815 H790 0.950 . S
C815 C814 1.397 . S
C815 C816 1.391 . S
C816 C815 1.391 . S
C816 C817 1.405 1_565 S
C817 H791 0.950 . S
C817 C816 1.405 1_545 S
C817 C818 1.367 . S
C818 H792 0.950 . S
C818 C813 1.386 1_545 S
C818 C817 1.367 . S
C819 C813 1.483 . S
C819 C820 1.382 . S
C819 C821 1.403 1_565 S
C820 H793 0.950 . S
C820 C806 1.411 . S
C820 C819 1.382 . S
C821 C805 1.411 . S
C821 C819 1.403 1_545 S
C821 C822 1.489 . S
C822 C821 1.489 . S
C822 C823 1.383 1_545 S
C822 C827 1.382 . S
C823 H794 0.950 . S
C823 C822 1.383 1_565 S
C823 C824 1.395 . S
C824 H795 0.950 . S
C824 C823 1.395 . S
C824 C825 1.288 1_565 S
C825 C824 1.288 1_545 S
C825 C826 1.392 . S
C826 H796 0.951 . S
C826 C825 1.392 . S
C826 C827 1.392 . S
C827 H797 0.949 . S
C827 C822 1.382 . S
C827 C826 1.392 . S
H828 C847 0.949 . S
H829 C848 0.950 . S
H830 C850 0.950 . S
H831 C851 0.950 . S
H832 C853 0.950 . S
H833 C856 0.950 . S
H834 C857 0.950 . S
H835 C859 0.951 . S
H836 C860 0.949 . S
H837 C862 0.949 . S
H838 C863 0.950 . S
H839 C865 0.950 . S
H840 C866 0.950 . S
H841 C868 0.950 . S
H842 C871 0.950 . S
H843 C872 0.950 . S
H844 C874 0.951 . S
H845 C875 0.949 . S
C846 C847 1.374 . S
C846 C851 1.387 1_545 S
C846 C852 1.506 . S
C847 H828 0.949 . S
C847 C846 1.374 . S
C847 C848 1.397 . S
C848 H829 0.950 . S
C848 C847 1.397 . S
C848 C849 1.391 1_545 S
C849 C848 1.391 1_565 S
C849 C850 1.405 . S
C850 H830 0.950 . S
C850 C849 1.405 . S
C850 C851 1.367 . S
C851 H831 0.950 . S
C851 C846 1.387 1_565 S
C851 C850 1.367 . S
C852 C846 1.506 . S
C852 C853 1.360 . S
C852 C854 1.401 1_545 S
C853 H832 0.950 . S
C853 C852 1.360 . S
C853 C869 1.411 . S
C854 C852 1.401 1_565 S
C854 C855 1.484 . S
C854 C868 1.437 . S
C855 C854 1.484 . S
C855 C856 1.342 1_565 S
C855 C860 1.404 . S
C856 H833 0.950 . S
C856 C855 1.342 1_545 S
C856 C857 1.395 . S
C857 H834 0.950 . S
C857 C856 1.395 . S
C857 C858 1.288 . S
C858 C857 1.288 . S
C858 C859 1.392 1_545 S
C859 H835 0.951 . S
C859 C858 1.392 1_565 S
C859 C860 1.392 . S
C860 H836 0.949 . S
C860 C855 1.404 . S
C860 C859 1.392 . S
C861 C862 1.374 1_545 S
C861 C866 1.387 . S
C861 C867 1.501 1_545 S
C862 H837 0.949 . S
C862 C861 1.374 1_565 S
C862 C863 1.397 . S
C863 H838 0.950 . S
C863 C862 1.397 . S
C863 C864 1.391 1_565 S
C864 C863 1.391 1_545 S
C864 C865 1.405 . S
C865 H839 0.950 . S
C865 C864 1.405 . S
C865 C866 1.367 . S
C866 H840 0.950 . S
C866 C861 1.387 . S
C866 C865 1.367 . S
C867 C861 1.501 1_565 S
C867 C868 1.365 . S
C867 C869 1.401 1_565 S
C868 H841 0.950 . S
C868 C854 1.437 . S
C868 C867 1.365 . S
C869 C853 1.411 . S
C869 C867 1.401 1_545 S
C869 C870 1.514 . S
C870 C869 1.514 . S
C870 C871 1.329 1_545 S
C870 C875 1.411 . S
C871 H842 0.950 . S
C871 C870 1.329 1_565 S
C871 C872 1.395 . S
C872 H843 0.950 . S
C872 C871 1.395 . S
C872 C873 1.288 . S
C873 C872 1.288 . S
C873 C874 1.392 1_565 S
C874 H844 0.951 . S
C874 C873 1.392 1_545 S
C874 C875 1.392 . S
C875 H845 0.949 . S
C875 C870 1.411 . S
C875 C874 1.392 . S
H876 C895 0.949 . S
H877 C896 0.950 . S
H878 C898 0.950 . S
H879 C899 0.950 . S
H880 C901 0.950 . S
H881 C904 0.950 . S
H882 C905 0.950 . S
H883 C907 0.951 . S
H884 C908 0.949 . S
H885 C910 0.949 . S
H886 C911 0.950 . S
H887 C913 0.950 . S
H888 C914 0.950 . S
H889 C916 0.950 . S
H890 C919 0.950 . S
H891 C920 0.950 . S
H892 C922 0.951 . S
H893 C923 0.949 . S
C894 C895 1.376 . S
C894 C899 1.386 1_455 S
C894 C900 1.483 . S
C895 H876 0.949 . S
C895 C894 1.376 . S
C895 C896 1.397 . S
C896 H877 0.950 . S
C896 C895 1.397 . S
C896 C897 1.391 . S
C897 C896 1.391 . S
C897 C898 1.405 1_455 S
C898 H878 0.950 . S
C898 C897 1.405 1_655 S
C898 C899 1.367 . S
C899 H879 0.950 . S
C899 C894 1.386 1_655 S
C899 C898 1.367 . S
C900 C894 1.483 . S
C900 C901 1.382 . S
C900 C902 1.403 1_455 S
C901 H880 0.950 . S
C901 C900 1.382 . S
C901 C917 1.411 . S
C902 C900 1.403 1_655 S
C902 C903 1.489 . S
C902 C916 1.411 . S
C903 C902 1.489 . S
C903 C904 1.383 1_655 S
C903 C908 1.382 . S
C904 H881 0.950 . S
C904 C903 1.383 1_455 S
C904 C905 1.395 . S
C905 H882 0.950 . S
C905 C904 1.395 . S
C905 C906 1.288 1_455 S
C906 C905 1.288 1_655 S
C906 C907 1.392 . S
C907 H883 0.951 . S
C907 C906 1.392 . S
C907 C908 1.392 . S
C908 H884 0.949 . S
C908 C903 1.382 . S
C908 C907 1.392 . S
C909 C910 1.376 . S
C909 C914 1.386 1_655 S
C909 C915 1.483 . S
C910 H885 0.949 . S
C910 C909 1.376 . S
C910 C911 1.397 . S
C911 H886 0.950 . S
C911 C910 1.397 . S
C911 C912 1.391 . S
C912 C911 1.391 . S
C912 C913 1.405 1_655 S
C913 H887 0.950 . S
C913 C912 1.405 1_455 S
C913 C914 1.367 . S
C914 H888 0.950 . S
C914 C909 1.386 1_455 S
C914 C913 1.367 . S
C915 C909 1.483 . S
C915 C916 1.382 . S
C915 C917 1.403 1_655 S
C916 H889 0.950 . S
C916 C902 1.411 . S
C916 C915 1.382 . S
C917 C901 1.411 . S
C917 C915 1.403 1_455 S
C917 C918 1.489 . S
C918 C917 1.489 . S
C918 C919 1.383 1_455 S
C918 C923 1.382 . S
C919 H890 0.950 . S
C919 C918 1.383 1_655 S
C919 C920 1.395 . S
C920 H891 0.950 . S
C920 C919 1.395 . S
C920 C921 1.288 1_655 S
C921 C920 1.288 1_455 S
C921 C922 1.392 . S
C922 H892 0.951 . S
C922 C921 1.392 . S
C922 C923 1.392 . S
C923 H893 0.949 . S
C923 C918 1.382 . S
C923 C922 1.392 . S
H924 C943 0.949 . S
H925 C944 0.950 . S
H926 C946 0.950 . S
H927 C947 0.950 . S
H928 C949 0.950 . S
H929 C952 0.950 . S
H930 C953 0.950 . S
H931 C955 0.951 . S
H932 C956 0.949 . S
H933 C958 0.949 . S
H934 C959 0.950 . S
H935 C961 0.950 . S
H936 C962 0.950 . S
H937 C964 0.950 . S
H938 C967 0.950 . S
H939 C968 0.950 . S
H940 C970 0.951 . S
H941 C971 0.949 . S
C942 C943 1.376 . S
C942 C947 1.386 . S
C942 C948 1.483 . S
C943 H924 0.949 . S
C943 C942 1.376 . S
C943 C944 1.397 . S
C944 H925 0.950 . S
C944 C943 1.397 . S
C944 C945 1.391 . S
C945 C944 1.391 . S
C945 C946 1.405 . S
C946 H926 0.950 . S
C946 C945 1.405 . S
C946 C947 1.367 . S
C947 H927 0.950 . S
C947 C942 1.386 . S
C947 C946 1.367 . S
C948 C942 1.483 . S
C948 C949 1.382 . S
C948 C950 1.403 . S
C949 H928 0.950 . S
C949 C948 1.382 . S
C949 C965 1.411 . S
C950 C948 1.403 . S
C950 C951 1.489 . S
C950 C964 1.411 . S
C951 C950 1.489 . S
C951 C952 1.383 . S
C951 C956 1.382 . S
C952 H929 0.950 . S
C952 C951 1.383 . S
C952 C953 1.395 . S
C953 H930 0.950 . S
C953 C952 1.395 . S
C953 C954 1.288 . S
C954 C953 1.288 . S
C954 C955 1.392 . S
C955 H931 0.951 . S
C955 C954 1.392 . S
C955 C956 1.392 . S
C956 H932 0.949 . S
C956 C951 1.382 . S
C956 C955 1.392 . S
C957 C958 1.376 . S
C957 C962 1.386 . S
C957 C963 1.483 . S
C958 H933 0.949 . S
C958 C957 1.376 . S
C958 C959 1.397 . S
C959 H934 0.950 . S
C959 C958 1.397 . S
C959 C960 1.391 . S
C960 C959 1.391 . S
C960 C961 1.405 . S
C961 H935 0.950 . S
C961 C960 1.405 . S
C961 C962 1.367 . S
C962 H936 0.950 . S
C962 C957 1.386 . S
C962 C961 1.367 . S
C963 C957 1.483 . S
C963 C964 1.382 . S
C963 C965 1.403 . S
C964 H937 0.950 . S
C964 C950 1.411 . S
C964 C963 1.382 . S
C965 C949 1.411 . S
C965 C963 1.403 . S
C965 C966 1.489 . S
C966 C965 1.489 . S
C966 C967 1.383 . S
C966 C971 1.382 . S
C967 H938 0.950 . S
C967 C966 1.383 . S
C967 C968 1.395 . S
C968 H939 0.950 . S
C968 C967 1.395 . S
C968 C969 1.288 . S
C969 C968 1.288 . S
C969 C970 1.392 . S
C970 H940 0.951 . S
C970 C969 1.392 . S
C970 C971 1.392 . S
C971 H941 0.949 . S
C971 C966 1.382 . S
C971 C970 1.392 . S
H972 C991 0.949 . S
H973 C992 0.950 . S
H974 C994 0.950 . S
H975 C995 0.950 . S
H976 C997 0.950 . S
H977 C1000 0.950 . S
H978 C1001 0.950 . S
H979 C1003 0.951 . S
H980 C1004 0.949 . S
H981 C1006 0.949 . S
H982 C1007 0.950 . S
H983 C1009 0.950 . S
H984 C1010 0.950 . S
H985 C1012 0.950 . S
H986 C1015 0.950 . S
H987 C1016 0.950 . S
H988 C1018 0.951 . S
H989 C1019 0.949 . S
C990 C991 1.376 . S
C990 C995 1.386 . S
C990 C996 1.483 . S
C991 H972 0.949 . S
C991 C990 1.376 . S
C991 C992 1.397 . S
C992 H973 0.950 . S
C992 C991 1.397 . S
C992 C993 1.391 . S
C993 C992 1.391 . S
C993 C994 1.405 . S
C994 H974 0.950 . S
C994 C993 1.405 . S
C994 C995 1.367 . S
C995 H975 0.950 . S
C995 C990 1.386 . S
C995 C994 1.367 . S
C996 C990 1.483 . S
C996 C997 1.382 . S
C996 C998 1.403 . S
C997 H976 0.950 . S
C997 C996 1.382 . S
C997 C1013 1.411 . S
C998 C996 1.403 . S
C998 C999 1.489 . S
C998 C1012 1.411 . S
C999 C998 1.489 . S
C999 C1000 1.383 . S
C999 C1004 1.382 . S
C1000 H977 0.950 . S
C1000 C999 1.383 . S
C1000 C1001 1.395 . S
C1001 H978 0.950 . S
C1001 C1000 1.395 . S
C1001 C1002 1.288 . S
C1002 C1001 1.288 . S
C1002 C1003 1.392 . S
C1003 H979 0.951 . S
C1003 C1002 1.392 . S
C1003 C1004 1.392 . S
C1004 H980 0.949 . S
C1004 C999 1.382 . S
C1004 C1003 1.392 . S
C1005 C1006 1.376 . S
C1005 C1010 1.386 . S
C1005 C1011 1.483 . S
C1006 H981 0.949 . S
C1006 C1005 1.376 . S
C1006 C1007 1.397 . S
C1007 H982 0.950 . S
C1007 C1006 1.397 . S
C1007 C1008 1.391 . S
C1008 C1007 1.391 . S
C1008 C1009 1.405 . S
C1009 H983 0.950 . S
C1009 C1008 1.405 . S
C1009 C1010 1.367 . S
C1010 H984 0.950 . S
C1010 C1005 1.386 . S
C1010 C1009 1.367 . S
C1011 C1005 1.483 . S
C1011 C1012 1.382 . S
C1011 C1013 1.403 . S
C1012 H985 0.950 . S
C1012 C998 1.411 . S
C1012 C1011 1.382 . S
C1013 C997 1.411 . S
C1013 C1011 1.403 . S
C1013 C1014 1.489 . S
C1014 C1013 1.489 . S
C1014 C1015 1.383 . S
C1014 C1019 1.382 . S
C1015 H986 0.950 . S
C1015 C1014 1.383 . S
C1015 C1016 1.395 . S
C1016 H987 0.950 . S
C1016 C1015 1.395 . S
C1016 C1017 1.288 . S
C1017 C1016 1.288 . S
C1017 C1018 1.392 . S
C1018 H988 0.951 . S
C1018 C1017 1.392 . S
C1018 C1019 1.392 . S
C1019 H989 0.949 . S
C1019 C1014 1.382 . S
C1019 C1018 1.392 . S
H1020 C1039 0.949 . S
H1021 C1040 0.950 . S
H1022 C1042 0.950 . S
H1023 C1043 0.950 . S
H1024 C1045 0.950 . S
H1025 C1048 0.950 . S
H1026 C1049 0.950 . S
H1027 C1051 0.951 . S
H1028 C1052 0.949 . S
H1029 C1054 0.949 . S
H1030 C1055 0.950 . S
H1031 C1057 0.950 . S
H1032 C1058 0.950 . S
H1033 C1060 0.950 . S
H1034 C1063 0.950 . S
H1035 C1064 0.950 . S
H1036 C1066 0.951 . S
H1037 C1067 0.949 . S
C1038 C1039 1.376 . S
C1038 C1043 1.386 . S
C1038 C1044 1.483 . S
C1039 H1020 0.949 . S
C1039 C1038 1.376 . S
C1039 C1040 1.397 . S
C1040 H1021 0.950 . S
C1040 C1039 1.397 . S
C1040 C1041 1.391 . S
C1041 C1040 1.391 . S
C1041 C1042 1.405 . S
C1042 H1022 0.950 . S
C1042 C1041 1.405 . S
C1042 C1043 1.367 . S
C1043 H1023 0.950 . S
C1043 C1038 1.386 . S
C1043 C1042 1.367 . S
C1044 C1038 1.483 . S
C1044 C1045 1.382 . S
C1044 C1046 1.403 . S
C1045 H1024 0.950 . S
C1045 C1044 1.382 . S
C1045 C1061 1.411 . S
C1046 C1044 1.403 . S
C1046 C1047 1.489 . S
C1046 C1060 1.411 . S
C1047 C1046 1.489 . S
C1047 C1048 1.383 . S
C1047 C1052 1.382 . S
C1048 H1025 0.950 . S
C1048 C1047 1.383 . S
C1048 C1049 1.395 . S
C1049 H1026 0.950 . S
C1049 C1048 1.395 . S
C1049 C1050 1.288 . S
C1050 C1049 1.288 . S
C1050 C1051 1.392 . S
C1051 H1027 0.951 . S
C1051 C1050 1.392 . S
C1051 C1052 1.392 . S
C1052 H1028 0.949 . S
C1052 C1047 1.382 . S
C1052 C1051 1.392 . S
C1053 C1054 1.376 . S
C1053 C1058 1.386 . S
C1053 C1059 1.483 . S
C1054 H1029 0.949 . S
C1054 C1053 1.376 . S
C1054 C1055 1.397 . S
C1055 H1030 0.950 . S
C1055 C1054 1.397 . S
C1055 C1056 1.391 . S
C1056 C1055 1.391 . S
C1056 C1057 1.405 . S
C1057 H1031 0.950 . S
C1057 C1056 1.405 . S
C1057 C1058 1.367 . S
C1058 H1032 0.950 . S
C1058 C1053 1.386 . S
C1058 C1057 1.367 . S
C1059 C1053 1.483 . S
C1059 C1060 1.382 . S
C1059 C1061 1.403 . S
C1060 H1033 0.950 . S
C1060 C1046 1.411 . S
C1060 C1059 1.382 . S
C1061 C1045 1.411 . S
C1061 C1059 1.403 . S
C1061 C1062 1.489 . S
C1062 C1061 1.489 . S
C1062 C1063 1.383 . S
C1062 C1067 1.382 . S
C1063 H1034 0.950 . S
C1063 C1062 1.383 . S
C1063 C1064 1.395 . S
C1064 H1035 0.950 . S
C1064 C1063 1.395 . S
C1064 C1065 1.288 . S
C1065 C1064 1.288 . S
C1065 C1066 1.392 . S
C1066 H1036 0.951 . S
C1066 C1065 1.392 . S
C1066 C1067 1.392 . S
C1067 H1037 0.949 . S
C1067 C1062 1.382 . S
C1067 C1066 1.392 . S
H1068 C1087 0.949 . S
H1069 C1088 0.950 . S
H1070 C1090 0.950 . S
H1071 C1091 0.950 . S
H1072 C1093 0.950 . S
H1073 C1096 0.950 . S
H1074 C1097 0.950 . S
H1075 C1099 0.951 . S
H1076 C1100 0.949 . S
H1077 C1102 0.949 . S
H1078 C1103 0.950 . S
H1079 C1105 0.950 . S
H1080 C1106 0.950 . S
H1081 C1108 0.950 . S
H1082 C1111 0.950 . S
H1083 C1112 0.950 . S
H1084 C1114 0.951 . S
H1085 C1115 0.949 . S
C1086 C1087 1.376 . S
C1086 C1091 1.386 . S
C1086 C1092 1.483 . S
C1087 H1068 0.949 . S
C1087 C1086 1.376 . S
C1087 C1088 1.397 . S
C1088 H1069 0.950 . S
C1088 C1087 1.397 . S
C1088 C1089 1.391 . S
C1089 C1088 1.391 . S
C1089 C1090 1.405 . S
C1090 H1070 0.950 . S
C1090 C1089 1.405 . S
C1090 C1091 1.367 . S
C1091 H1071 0.950 . S
C1091 C1086 1.386 . S
C1091 C1090 1.367 . S
C1092 C1086 1.483 . S
C1092 C1093 1.382 . S
C1092 C1094 1.403 . S
C1093 H1072 0.950 . S
C1093 C1092 1.382 . S
C1093 C1109 1.411 . S
C1094 C1092 1.403 . S
C1094 C1095 1.489 . S
C1094 C1108 1.411 . S
C1095 C1094 1.489 . S
C1095 C1096 1.383 . S
C1095 C1100 1.382 . S
C1096 H1073 0.950 . S
C1096 C1095 1.383 . S
C1096 C1097 1.395 . S
C1097 H1074 0.950 . S
C1097 C1096 1.395 . S
C1097 C1098 1.288 . S
C1098 C1097 1.288 . S
C1098 C1099 1.392 . S
C1099 H1075 0.951 . S
C1099 C1098 1.392 . S
C1099 C1100 1.392 . S
C1100 H1076 0.949 . S
C1100 C1095 1.382 . S
C1100 C1099 1.392 . S
C1101 C1102 1.376 . S
C1101 C1106 1.386 . S
C1101 C1107 1.483 . S
C1102 H1077 0.949 . S
C1102 C1101 1.376 . S
C1102 C1103 1.397 . S
C1103 H1078 0.950 . S
C1103 C1102 1.397 . S
C1103 C1104 1.391 . S
C1104 C1103 1.391 . S
C1104 C1105 1.405 . S
C1105 H1079 0.950 . S
C1105 C1104 1.405 . S
C1105 C1106 1.367 . S
C1106 H1080 0.950 . S
C1106 C1101 1.386 . S
C1106 C1105 1.367 . S
C1107 C1101 1.483 . S
C1107 C1108 1.382 . S
C1107 C1109 1.403 . S
C1108 H1081 0.950 . S
C1108 C1094 1.411 . S
C1108 C1107 1.382 . S
C1109 C1093 1.411 . S
C1109 C1107 1.403 . S
C1109 C1110 1.489 . S
C1110 C1109 1.489 . S
C1110 C1111 1.383 . S
C1110 C1115 1.382 . S
C1111 H1082 0.950 . S
C1111 C1110 1.383 . S
C1111 C1112 1.395 . S
C1112 H1083 0.950 . S
C1112 C1111 1.395 . S
C1112 C1113 1.288 . S
C1113 C1112 1.288 . S
C1113 C1114 1.392 . S
C1114 H1084 0.951 . S
C1114 C1113 1.392 . S
C1114 C1115 1.392 . S
C1115 H1085 0.949 . S
C1115 C1110 1.382 . S
C1115 C1114 1.392 . S
C1116 C1117 1.363 1_455 S
C1116 C1122 1.379 . S
C1116 N1124 1.356 . S
C1117 C1116 1.363 1_655 S
C1117 C1123 1.363 . S
C1118 C1119 1.363 . S
C1118 C1123 1.379 . S
C1118 N1125 1.356 . S
C1119 C1118 1.363 . S
C1119 C1122 1.363 1_655 S
N1120 C1122 1.356 . S
N1120 H1132 0.984 . S
N1120 H1133 0.985 . S
N1121 C1123 1.356 . S
N1121 H1126 0.984 . S
N1121 H1127 0.985 . S
C1122 C1116 1.379 . S
C1122 C1119 1.363 1_455 S
C1122 N1120 1.356 . S
C1123 C1117 1.363 . S
C1123 C1118 1.379 . S
C1123 N1121 1.356 . S
N1124 C1116 1.356 . S
N1124 H1130 0.984 . S
N1124 H1131 0.984 . S
N1125 C1118 1.356 . S
N1125 H1128 0.984 . S
N1125 H1129 0.985 . S
H1126 N1121 0.984 . S
H1127 N1121 0.985 . S
H1128 N1125 0.984 . S
H1129 N1125 0.985 . S
H1130 N1124 0.984 . S
H1131 N1124 0.984 . S
H1132 N1120 0.984 . S
H1133 N1120 0.985 . S
C1134 C1135 1.363 . S
C1134 C1140 1.379 . S
C1134 N1142 1.356 . S
C1135 C1134 1.363 . S
C1135 C1141 1.363 . S
C1136 C1137 1.363 . S
C1136 C1141 1.379 . S
C1136 N1143 1.356 . S
C1137 C1136 1.363 . S
C1137 C1140 1.363 . S
N1138 C1140 1.356 . S
N1138 H1150 0.984 . S
N1138 H1151 0.985 . S
N1139 C1141 1.356 . S
N1139 H1144 0.984 . S
N1139 H1145 0.985 . S
C1140 C1134 1.379 . S
C1140 C1137 1.363 . S
C1140 N1138 1.356 . S
C1141 C1135 1.363 . S
C1141 C1136 1.379 . S
C1141 N1139 1.356 . S
N1142 C1134 1.356 . S
N1142 H1148 0.984 . S
N1142 H1149 0.984 . S
N1143 C1136 1.356 . S
N1143 H1146 0.984 . S
N1143 H1147 0.985 . S
H1144 N1139 0.984 . S
H1145 N1139 0.985 . S
H1146 N1143 0.984 . S
H1147 N1143 0.985 . S
H1148 N1142 0.984 . S
H1149 N1142 0.984 . S
H1150 N1138 0.984 . S
H1151 N1138 0.985 . S
C1152 C1153 1.363 . S
C1152 C1158 1.379 . S
C1152 N1160 1.356 . S
C1153 C1152 1.363 . S
C1153 C1159 1.363 1_545 S
C1154 C1155 1.363 1_565 S
C1154 C1159 1.379 . S
C1154 N1161 1.356 . S
C1155 C1154 1.363 1_545 S
C1155 C1158 1.363 . S
N1156 C1158 1.356 . S
N1156 H1168 0.984 . S
N1156 H1169 0.985 . S
N1157 C1159 1.356 . S
N1157 H1162 0.984 . S
N1157 H1163 0.985 . S
C1158 C1152 1.379 . S
C1158 C1155 1.363 . S
C1158 N1156 1.356 . S
C1159 C1153 1.363 1_565 S
C1159 C1154 1.379 . S
C1159 N1157 1.356 . S
N1160 C1152 1.356 . S
N1160 H1166 0.984 . S
N1160 H1167 0.984 . S
N1161 C1154 1.356 . S
N1161 H1164 0.984 . S
N1161 H1165 0.985 . S
H1162 N1157 0.984 . S
H1163 N1157 0.985 . S
H1164 N1161 0.984 . S
H1165 N1161 0.985 . S
H1166 N1160 0.984 . S
H1167 N1160 0.984 . S
H1168 N1156 0.984 . S
H1169 N1156 0.985 . S
C1170 C1171 1.363 . S
C1170 C1176 1.379 . S
C1170 N1178 1.356 . S
C1171 C1170 1.363 . S
C1171 C1177 1.363 1_565 S
C1172 C1173 1.363 1_545 S
C1172 C1177 1.379 . S
C1172 N1179 1.356 . S
C1173 C1172 1.363 1_565 S
C1173 C1176 1.363 . S
N1174 C1176 1.356 . S
N1174 H1186 0.984 . S
N1174 H1187 0.985 . S
N1175 C1177 1.356 . S
N1175 H1180 0.984 . S
N1175 H1181 0.985 . S
C1176 C1170 1.379 . S
C1176 C1173 1.363 . S
C1176 N1174 1.356 . S
C1177 C1171 1.363 1_545 S
C1177 C1172 1.379 . S
C1177 N1175 1.356 . S
N1178 C1170 1.356 . S
N1178 H1184 0.984 . S
N1178 H1185 0.984 . S
N1179 C1172 1.356 . S
N1179 H1182 0.984 . S
N1179 H1183 0.985 . S
H1180 N1175 0.984 . S
H1181 N1175 0.985 . S
H1182 N1179 0.984 . S
H1183 N1179 0.985 . S
H1184 N1178 0.984 . S
H1185 N1178 0.984 . S
H1186 N1174 0.984 . S
H1187 N1174 0.985 . S
C1188 C1189 1.363 . S
C1188 C1194 1.379 . S
C1188 N1196 1.356 . S
C1189 C1188 1.363 . S
C1189 C1195 1.363 1_455 S
C1190 C1191 1.363 1_655 S
C1190 C1195 1.379 . S
C1190 N1197 1.356 . S
C1191 C1190 1.363 1_455 S
C1191 C1194 1.363 . S
N1192 C1194 1.356 . S
N1192 H1204 0.984 . S
N1192 H1205 0.985 . S
N1193 C1195 1.356 . S
N1193 H1198 0.984 . S
N1193 H1199 0.985 . S
C1194 C1188 1.379 . S
C1194 C1191 1.363 . S
C1194 N1192 1.356 . S
C1195 C1189 1.363 1_655 S
C1195 C1190 1.379 . S
C1195 N1193 1.356 . S
N1196 C1188 1.356 . S
N1196 H1202 0.984 . S
N1196 H1203 0.984 . S
N1197 C1190 1.356 . S
N1197 H1200 0.984 . S
N1197 H1201 0.985 . S
H1198 N1193 0.984 . S
H1199 N1193 0.985 . S
H1200 N1197 0.984 . S
H1201 N1197 0.985 . S
H1202 N1196 0.984 . S
H1203 N1196 0.984 . S
H1204 N1192 0.984 . S
H1205 N1192 0.985 . S
C1206 C1207 1.363 . S
C1206 C1212 1.379 . S
C1206 N1214 1.356 . S
C1207 C1206 1.363 . S
C1207 C1213 1.363 . S
C1208 C1209 1.363 . S
C1208 C1213 1.379 . S
C1208 N1215 1.356 . S
C1209 C1208 1.363 . S
C1209 C1212 1.363 . S
N1210 C1212 1.356 . S
N1210 H1222 0.984 . S
N1210 H1223 0.985 . S
N1211 C1213 1.356 . S
N1211 H1216 0.984 . S
N1211 H1217 0.985 . S
C1212 C1206 1.379 . S
C1212 C1209 1.363 . S
C1212 N1210 1.356 . S
C1213 C1207 1.363 . S
C1213 C1208 1.379 . S
C1213 N1211 1.356 . S
N1214 C1206 1.356 . S
N1214 H1220 0.984 . S
N1214 H1221 0.984 . S
N1215 C1208 1.356 . S
N1215 H1218 0.984 . S
N1215 H1219 0.985 . S
H1216 N1211 0.984 . S
H1217 N1211 0.985 . S
H1218 N1215 0.984 . S
H1219 N1215 0.985 . S
H1220 N1214 0.984 . S
H1221 N1214 0.984 . S
H1222 N1210 0.984 . S
H1223 N1210 0.985 . S
C1224 C1225 1.363 . S
C1224 C1230 1.379 . S
C1224 N1232 1.356 . S
C1225 C1224 1.363 . S
C1225 C1231 1.363 . S
C1226 C1227 1.368 . S
C1226 C1231 1.370 . S
C1226 N1233 1.363 1_455 S
C1227 C1226 1.368 . S
C1227 C1230 1.363 . S
N1228 C1230 1.356 . S
N1228 H1240 0.984 . S
N1228 H1241 0.985 . S
N1229 C1231 1.356 1_655 S
N1229 H1234 0.984 1_655 S
N1229 H1235 0.988 . S
C1230 C1224 1.379 . S
C1230 C1227 1.363 . S
C1230 N1228 1.356 . S
C1231 C1225 1.363 . S
C1231 C1226 1.370 . S
C1231 N1229 1.356 1_455 S
N1232 C1224 1.356 . S
N1232 H1238 0.984 . S
N1232 H1239 0.984 . S
N1233 C1226 1.363 1_655 S
N1233 H1236 0.984 . S
N1233 H1237 0.985 . S
H1234 N1229 0.984 1_455 S
H1235 N1229 0.988 . S
H1236 N1233 0.984 . S
H1237 N1233 0.985 . S
H1238 N1232 0.984 . S
H1239 N1232 0.984 . S
H1240 N1228 0.984 . S
H1241 N1228 0.985 . S
C1242 C1243 1.363 . S
C1242 C1248 1.379 . S
C1242 N1250 1.356 . S
C1243 C1242 1.363 . S
C1243 C1249 1.363 . S
C1244 C1245 1.363 . S
C1244 C1249 1.379 . S
C1244 N1251 1.356 . S
C1245 C1244 1.363 . S
C1245 C1248 1.363 . S
N1246 C1248 1.356 . S
N1246 H1258 0.984 . S
N1246 H1259 0.985 . S
N1247 C1249 1.356 . S
N1247 H1252 0.984 . S
N1247 H1253 0.985 . S
C1248 C1242 1.379 . S
C1248 C1245 1.363 . S
C1248 N1246 1.356 . S
C1249 C1243 1.363 . S
C1249 C1244 1.379 . S
C1249 N1247 1.356 . S
N1250 C1242 1.356 . S
N1250 H1256 0.984 . S
N1250 H1257 0.984 . S
N1251 C1244 1.356 . S
N1251 H1254 0.984 . S
N1251 H1255 0.985 . S
H1252 N1247 0.984 . S
H1253 N1247 0.985 . S
H1254 N1251 0.984 . S
H1255 N1251 0.985 . S
H1256 N1250 0.984 . S
H1257 N1250 0.984 . S
H1258 N1246 0.984 . S
H1259 N1246 0.985 . S
C1260 C1261 1.363 . S
C1260 C1266 1.379 . S
C1260 N1268 1.356 . S
C1261 C1260 1.363 . S
C1261 C1267 1.363 1_565 S
C1262 C1263 1.363 1_545 S
C1262 C1267 1.379 . S
C1262 N1269 1.356 . S
C1263 C1262 1.363 1_565 S
C1263 C1266 1.363 . S
N1264 C1266 1.356 . S
N1264 H1276 0.984 . S
N1264 H1277 0.985 . S
N1265 C1267 1.356 . S
N1265 H1270 0.984 . S
N1265 H1271 0.985 . S
C1266 C1260 1.379 . S
C1266 C1263 1.363 . S
C1266 N1264 1.356 . S
C1267 C1261 1.363 1_545 S
C1267 C1262 1.379 . S
C1267 N1265 1.356 . S
N1268 C1260 1.356 . S
N1268 H1274 0.984 . S
N1268 H1275 0.984 . S
N1269 C1262 1.356 . S
N1269 H1272 0.984 . S
N1269 H1273 0.985 . S
H1270 N1265 0.984 . S
H1271 N1265 0.985 . S
H1272 N1269 0.984 . S
H1273 N1269 0.985 . S
H1274 N1268 0.984 . S
H1275 N1268 0.984 . S
H1276 N1264 0.984 . S
H1277 N1264 0.985 . S
C1278 C1279 1.363 . S
C1278 C1284 1.379 1_545 S
C1278 N1286 1.355 1_545 S
C1279 C1278 1.363 . S
C1279 C1285 1.363 . S
C1280 C1281 1.363 . S
C1280 C1285 1.379 . S
C1280 N1287 1.356 . S
C1281 C1280 1.363 . S
C1281 C1284 1.363 1_545 S
N1282 C1284 1.356 . S
N1282 H1294 0.984 . S
N1282 H1295 0.985 . S
N1283 C1285 1.356 . S
N1283 H1288 0.984 . S
N1283 H1289 0.985 . S
C1284 C1278 1.379 1_565 S
C1284 C1281 1.363 1_565 S
C1284 N1282 1.356 . S
C1285 C1279 1.363 . S
C1285 C1280 1.379 . S
C1285 N1283 1.356 . S
N1286 C1278 1.355 1_565 S
N1286 H1292 0.985 . S
N1286 H1293 0.985 1_565 S
N1287 C1280 1.356 . S
N1287 H1290 0.984 . S
N1287 H1291 0.985 . S
H1288 N1283 0.984 . S
H1289 N1283 0.985 . S
H1290 N1287 0.984 . S
H1291 N1287 0.985 . S
H1292 N1286 0.985 . S
H1293 N1286 0.985 1_545 S
H1294 N1282 0.984 . S
H1295 N1282 0.985 . S
C1296 C1297 1.363 . S
C1296 C1302 1.379 . S
C1296 N1304 1.356 . S
C1297 C1296 1.363 . S
C1297 C1303 1.363 . S
C1298 C1299 1.363 . S
C1298 C1303 1.379 . S
C1298 N1305 1.356 1_655 S
C1299 C1298 1.363 . S
C1299 C1302 1.363 . S
N1300 C1302 1.356 . S
N1300 H1312 0.984 . S
N1300 H1313 0.985 . S
N1301 C1303 1.356 . S
N1301 H1306 0.984 . S
N1301 H1307 0.950 1_655 S
C1302 C1296 1.379 . S
C1302 C1299 1.363 . S
C1302 N1300 1.356 . S
C1303 C1297 1.363 . S
C1303 C1298 1.379 . S
C1303 N1301 1.356 . S
N1304 C1296 1.356 . S
N1304 H1310 0.984 . S
N1304 H1311 0.984 . S
N1305 C1298 1.356 1_455 S
N1305 H1308 0.984 . S
N1305 H1309 0.985 . S
H1306 N1301 0.984 . S
H1307 N1301 0.950 1_455 S
H1308 N1305 0.984 . S
H1309 N1305 0.985 . S
H1310 N1304 0.984 . S
H1311 N1304 0.984 . S
H1312 N1300 0.984 . S
H1313 N1300 0.985 . S
C1314 C1315 1.363 . S
C1314 C1320 1.379 . S
C1314 N1322 1.356 . S
C1315 C1314 1.363 . S
C1315 C1321 1.363 . S
C1316 C1317 1.363 . S
C1316 C1321 1.379 . S
C1316 N1323 1.356 . S
C1317 C1316 1.363 . S
C1317 C1320 1.363 . S
N1318 C1320 1.356 . S
N1318 H1330 0.984 . S
N1318 H1331 0.985 . S
N1319 C1321 1.356 . S
N1319 H1324 0.984 . S
N1319 H1325 0.985 . S
C1320 C1314 1.379 . S
C1320 C1317 1.363 . S
C1320 N1318 1.356 . S
C1321 C1315 1.363 . S
C1321 C1316 1.379 . S
C1321 N1319 1.356 . S
N1322 C1314 1.356 . S
N1322 H1328 0.984 . S
N1322 H1329 0.984 . S
N1323 C1316 1.356 . S
N1323 H1326 0.984 . S
N1323 H1327 0.985 . S
H1324 N1319 0.984 . S
H1325 N1319 0.985 . S
H1326 N1323 0.984 . S
H1327 N1323 0.985 . S
H1328 N1322 0.984 . S
H1329 N1322 0.984 . S
H1330 N1318 0.984 . S
H1331 N1318 0.985 . S
C1332 C1333 1.363 . S
C1332 C1338 1.379 . S
C1332 N1340 1.356 . S
C1333 C1332 1.363 . S
C1333 C1339 1.363 . S
C1334 C1335 1.363 . S
C1334 C1339 1.379 . S
C1334 N1341 1.356 . S
C1335 C1334 1.363 . S
C1335 C1338 1.363 . S
N1336 C1338 1.356 . S
N1336 H1348 0.984 . S
N1336 H1349 0.985 . S
N1337 C1339 1.356 . S
N1337 H1342 0.984 . S
N1337 H1343 0.985 . S
C1338 C1332 1.379 . S
C1338 C1335 1.363 . S
C1338 N1336 1.356 . S
C1339 C1333 1.363 . S
C1339 C1334 1.379 . S
C1339 N1337 1.356 . S
N1340 C1332 1.356 . S
N1340 H1346 0.984 . S
N1340 H1347 0.984 . S
N1341 C1334 1.356 . S
N1341 H1344 0.984 . S
N1341 H1345 0.985 . S
H1342 N1337 0.984 . S
H1343 N1337 0.985 . S
H1344 N1341 0.984 . S
H1345 N1341 0.985 . S
H1346 N1340 0.984 . S
H1347 N1340 0.984 . S
H1348 N1336 0.984 . S
H1349 N1336 0.985 . S
C1350 C1351 1.363 . S
C1350 C1356 1.379 . S
C1350 N1358 1.356 . S
C1351 C1350 1.363 . S
C1351 C1357 1.363 . S
C1352 C1353 1.363 . S
C1352 C1357 1.379 . S
C1352 N1359 1.356 . S
C1353 C1352 1.363 . S
C1353 C1356 1.363 . S
N1354 C1356 1.356 . S
N1354 H1366 0.984 . S
N1354 H1367 0.985 . S
N1355 C1357 1.356 . S
N1355 H1360 0.984 . S
N1355 H1361 0.985 . S
C1356 C1350 1.379 . S
C1356 C1353 1.363 . S
C1356 N1354 1.356 . S
C1357 C1351 1.363 . S
C1357 C1352 1.379 . S
C1357 N1355 1.356 . S
N1358 C1350 1.356 . S
N1358 H1364 0.984 . S
N1358 H1365 0.984 . S
N1359 C1352 1.356 . S
N1359 H1362 0.984 . S
N1359 H1363 0.985 . S
H1360 N1355 0.984 . S
H1361 N1355 0.985 . S
H1362 N1359 0.984 . S
H1363 N1359 0.985 . S
H1364 N1358 0.984 . S
H1365 N1358 0.984 . S
H1366 N1354 0.984 . S
H1367 N1354 0.985 . S
C1368 C1369 1.363 . S
C1368 C1374 1.379 . S
C1368 N1376 1.356 . S
C1369 C1368 1.363 . S
C1369 C1375 1.363 . S
C1370 C1371 1.363 . S
C1370 C1375 1.379 . S
C1370 N1377 1.356 . S
C1371 C1370 1.363 . S
C1371 C1374 1.363 . S
N1372 C1374 1.356 . S
N1372 H1384 0.984 . S
N1372 H1385 0.985 . S
N1373 C1375 1.356 . S
N1373 H1378 0.984 . S
N1373 H1379 0.985 . S
C1374 C1368 1.379 . S
C1374 C1371 1.363 . S
C1374 N1372 1.356 . S
C1375 C1369 1.363 . S
C1375 C1370 1.379 . S
C1375 N1373 1.356 . S
N1376 C1368 1.356 . S
N1376 H1382 0.984 . S
N1376 H1383 0.984 . S
N1377 C1370 1.356 . S
N1377 H1380 0.984 . S
N1377 H1381 0.985 . S
H1378 N1373 0.984 . S
H1379 N1373 0.985 . S
H1380 N1377 0.984 . S
H1381 N1377 0.985 . S
H1382 N1376 0.984 . S
H1383 N1376 0.984 . S
H1384 N1372 0.984 . S
H1385 N1372 0.985 . S
C1386 C1387 1.363 . S
C1386 C1392 1.379 . S
C1386 N1394 1.356 . S
C1387 C1386 1.363 . S
C1387 C1393 1.363 . S
C1388 C1389 1.363 . S
C1388 C1393 1.379 . S
C1388 N1395 1.356 . S
C1389 C1388 1.363 . S
C1389 C1392 1.363 . S
N1390 C1392 1.356 . S
N1390 H1402 0.984 . S
N1390 H1403 0.985 . S
N1391 C1393 1.356 . S
N1391 H1396 0.984 . S
N1391 H1397 0.985 . S
C1392 C1386 1.379 . S
C1392 C1389 1.363 . S
C1392 N1390 1.356 . S
C1393 C1387 1.363 . S
C1393 C1388 1.379 . S
C1393 N1391 1.356 . S
N1394 C1386 1.356 . S
N1394 H1400 0.984 . S
N1394 H1401 0.984 . S
N1395 C1388 1.356 . S
N1395 H1398 0.984 . S
N1395 H1399 0.985 . S
H1396 N1391 0.984 . S
H1397 N1391 0.985 . S
H1398 N1395 0.984 . S
H1399 N1395 0.985 . S
H1400 N1394 0.984 . S
H1401 N1394 0.984 . S
H1402 N1390 0.984 . S
H1403 N1390 0.985 . S
C1404 C1405 1.363 . S
C1404 C1410 1.379 . S
C1404 N1412 1.356 . S
C1405 C1404 1.363 . S
C1405 C1411 1.363 . S
C1406 C1407 1.363 . S
C1406 C1411 1.379 . S
C1406 N1413 1.356 . S
C1407 C1406 1.363 . S
C1407 C1410 1.363 . S
N1408 C1410 1.356 . S
N1408 H1420 0.984 . S
N1408 H1421 0.985 . S
N1409 C1411 1.356 . S
N1409 H1414 0.984 . S
N1409 H1415 0.985 . S
C1410 C1404 1.379 . S
C1410 C1407 1.363 . S
C1410 N1408 1.356 . S
C1411 C1405 1.363 . S
C1411 C1406 1.379 . S
C1411 N1409 1.356 . S
N1412 C1404 1.356 . S
N1412 H1418 0.984 . S
N1412 H1419 0.984 . S
N1413 C1406 1.356 . S
N1413 H1416 0.984 . S
N1413 H1417 0.985 . S
H1414 N1409 0.984 . S
H1415 N1409 0.985 . S
H1416 N1413 0.984 . S
H1417 N1413 0.985 . S
H1418 N1412 0.984 . S
H1419 N1412 0.984 . S
H1420 N1408 0.984 . S
H1421 N1408 0.985 . S
C1422 C1423 1.363 . S
C1422 C1428 1.379 . S
C1422 N1430 1.356 . S
C1423 C1422 1.363 . S
C1423 C1429 1.363 . S
C1424 C1425 1.363 . S
C1424 C1429 1.379 . S
C1424 N1431 1.356 . S
C1425 C1424 1.363 . S
C1425 C1428 1.363 . S
N1426 C1428 1.356 . S
N1426 H1438 0.984 . S
N1426 H1439 0.985 . S
N1427 C1429 1.356 . S
N1427 H1432 0.984 . S
N1427 H1433 0.985 1_565 S
C1428 C1422 1.379 . S
C1428 C1425 1.363 . S
C1428 N1426 1.356 . S
C1429 C1423 1.363 . S
C1429 C1424 1.379 . S
C1429 N1427 1.356 . S
N1430 C1422 1.356 . S
N1430 H1436 0.984 . S
N1430 H1437 0.984 . S
N1431 C1424 1.356 . S
N1431 H1434 0.984 . S
N1431 H1435 0.985 . S
H1432 N1427 0.984 . S
H1433 N1427 0.985 1_545 S
H1434 N1431 0.984 . S
H1435 N1431 0.985 . S
H1436 N1430 0.984 . S
H1437 N1430 0.984 . S
H1438 N1426 0.984 . S
H1439 N1426 0.985 . S
C1440 C1441 1.363 . S
C1440 C1446 1.379 . S
C1440 N1448 1.356 . S
C1441 C1440 1.363 . S
C1441 C1447 1.363 . S
C1442 C1443 1.363 . S
C1442 C1447 1.379 . S
C1442 N1449 1.356 . S
C1443 C1442 1.363 . S
C1443 C1446 1.363 . S
N1444 C1446 1.356 . S
N1444 H1456 0.984 . S
N1444 H1457 0.985 . S
N1445 C1447 1.356 . S
N1445 H1450 0.984 . S
N1445 H1451 0.985 . S
C1446 C1440 1.379 . S
C1446 C1443 1.363 . S
C1446 N1444 1.356 . S
C1447 C1441 1.363 . S
C1447 C1442 1.379 . S
C1447 N1445 1.356 . S
N1448 C1440 1.356 . S
N1448 H1454 0.984 . S
N1448 H1455 0.984 . S
N1449 C1442 1.356 . S
N1449 H1452 0.984 . S
N1449 H1453 0.985 . S
H1450 N1445 0.984 . S
H1451 N1445 0.985 . S
H1452 N1449 0.984 . S
H1453 N1449 0.985 . S
H1454 N1448 0.984 . S
H1455 N1448 0.984 . S
H1456 N1444 0.984 . S
H1457 N1444 0.985 . S
C1458 C1459 1.363 . S
C1458 C1464 1.379 . S
C1458 N1466 1.356 . S
C1459 C1458 1.363 . S
C1459 C1465 1.363 . S
C1460 C1461 1.363 . S
C1460 C1465 1.379 . S
C1460 N1467 1.356 . S
C1461 C1460 1.363 . S
C1461 C1464 1.363 . S
N1462 C1464 1.356 . S
N1462 H1474 0.984 . S
N1462 H1475 0.985 . S
N1463 C1465 1.356 . S
N1463 H1468 0.984 . S
N1463 H1469 0.985 . S
C1464 C1458 1.379 . S
C1464 C1461 1.363 . S
C1464 N1462 1.356 . S
C1465 C1459 1.363 . S
C1465 C1460 1.379 . S
C1465 N1463 1.356 . S
N1466 C1458 1.356 . S
N1466 H1472 0.984 . S
N1466 H1473 0.984 . S
N1467 C1460 1.356 . S
N1467 H1470 0.984 . S
N1467 H1471 0.985 . S
H1468 N1463 0.984 . S
H1469 N1463 0.985 . S
H1470 N1467 0.984 . S
H1471 N1467 0.985 . S
H1472 N1466 0.984 . S
H1473 N1466 0.984 . S
H1474 N1462 0.984 . S
H1475 N1462 0.985 . S
C1476 C1477 1.363 . S
C1476 C1482 1.379 . S
C1476 N1484 1.356 . S
C1477 C1476 1.363 . S
C1477 C1483 1.363 . S
C1478 C1479 1.363 . S
C1478 C1483 1.379 . S
C1478 N1485 1.356 . S
C1479 C1478 1.363 . S
C1479 C1482 1.363 . S
N1480 C1482 1.356 . S
N1480 H1492 0.984 . S
N1480 H1493 0.985 . S
N1481 C1483 1.356 . S
N1481 H1486 0.984 . S
N1481 H1487 0.985 . S
C1482 C1476 1.379 . S
C1482 C1479 1.363 . S
C1482 N1480 1.356 . S
C1483 C1477 1.363 . S
C1483 C1478 1.379 . S
C1483 N1481 1.356 . S
N1484 C1476 1.356 . S
N1484 H1490 0.984 . S
N1484 H1491 0.984 . S
N1485 C1478 1.356 . S
N1485 H1488 0.984 . S
N1485 H1489 0.985 . S
H1486 N1481 0.984 . S
H1487 N1481 0.985 . S
H1488 N1485 0.984 . S
H1489 N1485 0.985 . S
H1490 N1484 0.984 . S
H1491 N1484 0.984 . S
H1492 N1480 0.984 . S
H1493 N1480 0.985 . S
C1494 C1495 1.363 . S
C1494 C1500 1.379 . S
C1494 N1502 1.356 . S
C1495 C1494 1.363 . S
C1495 C1501 1.363 . S
C1496 C1497 1.363 . S
C1496 C1501 1.379 . S
C1496 N1503 1.356 . S
C1497 C1496 1.363 . S
C1497 C1500 1.363 . S
N1498 C1500 1.356 . S
N1498 H1510 0.984 . S
N1498 H1511 0.985 . S
N1499 C1501 1.356 . S
N1499 H1504 0.984 . S
N1499 H1505 0.985 . S
C1500 C1494 1.379 . S
C1500 C1497 1.363 . S
C1500 N1498 1.356 . S
C1501 C1495 1.363 . S
C1501 C1496 1.379 . S
C1501 N1499 1.356 . S
N1502 C1494 1.356 . S
N1502 H1508 0.984 . S
N1502 H1509 0.984 . S
N1503 C1496 1.356 . S
N1503 H1506 0.984 . S
N1503 H1507 0.985 . S
H1504 N1499 0.984 . S
H1505 N1499 0.985 . S
H1506 N1503 0.984 . S
H1507 N1503 0.985 . S
H1508 N1502 0.984 . S
H1509 N1502 0.984 . S
H1510 N1498 0.984 . S
H1511 N1498 0.985 . S
C1512 C1513 1.363 . S
C1512 C1518 1.379 . S
C1512 N1520 1.356 . S
C1513 C1512 1.363 . S
C1513 C1519 1.363 . S
C1514 C1515 1.363 . S
C1514 C1519 1.379 . S
C1514 N1521 1.356 . S
C1515 C1514 1.363 . S
C1515 C1518 1.363 . S
N1516 C1518 1.356 . S
N1516 H1528 0.984 . S
N1516 H1529 0.985 . S
N1517 C1519 1.356 . S
N1517 H1522 0.984 . S
N1517 H1523 0.985 . S
C1518 C1512 1.379 . S
C1518 C1515 1.363 . S
C1518 N1516 1.356 . S
C1519 C1513 1.363 . S
C1519 C1514 1.379 . S
C1519 N1517 1.356 . S
N1520 C1512 1.356 . S
N1520 H1526 0.984 . S
N1520 H1527 0.984 . S
N1521 C1514 1.356 . S
N1521 H1524 0.984 . S
N1521 H1525 0.985 . S
H1522 N1517 0.984 . S
H1523 N1517 0.985 . S
H1524 N1521 0.984 . S
H1525 N1521 0.985 . S
H1526 N1520 0.984 . S
H1527 N1520 0.984 . S
H1528 N1516 0.984 . S
H1529 N1516 0.985 . S
C1530 C1531 1.363 . S
C1530 C1536 1.379 . S
C1530 N1538 1.356 . S
C1531 C1530 1.363 . S
C1531 C1537 1.363 . S
C1532 C1533 1.363 . S
C1532 C1537 1.379 . S
C1532 N1539 1.356 . S
C1533 C1532 1.363 . S
C1533 C1536 1.363 . S
N1534 C1536 1.356 . S
N1534 H1546 0.984 . S
N1534 H1547 0.985 . S
N1535 C1537 1.356 . S
N1535 H1540 0.984 . S
N1535 H1541 0.985 . S
C1536 C1530 1.379 . S
C1536 C1533 1.363 . S
C1536 N1534 1.356 . S
C1537 C1531 1.363 . S
C1537 C1532 1.379 . S
C1537 N1535 1.356 . S
N1538 C1530 1.356 . S
N1538 H1544 0.984 . S
N1538 H1545 0.984 . S
N1539 C1532 1.356 . S
N1539 H1542 0.984 . S
N1539 H1543 0.985 . S
H1540 N1535 0.984 . S
H1541 N1535 0.985 . S
H1542 N1539 0.984 . S
H1543 N1539 0.985 . S
H1544 N1538 0.984 . S
H1545 N1538 0.984 . S
H1546 N1534 0.984 . S
H1547 N1534 0.985 . S
C1548 C1549 1.363 . S
C1548 C1554 1.379 . S
C1548 N1556 1.356 . S
C1549 C1548 1.363 . S
C1549 C1555 1.363 . S
C1550 C1551 1.363 . S
C1550 C1555 1.379 . S
C1550 N1557 1.356 . S
C1551 C1550 1.363 . S
C1551 C1554 1.363 . S
N1552 C1554 1.356 . S
N1552 H1564 0.984 . S
N1552 H1565 0.985 . S
N1553 C1555 1.356 . S
N1553 H1558 0.984 . S
N1553 H1559 0.985 . S
C1554 C1548 1.379 . S
C1554 C1551 1.363 . S
C1554 N1552 1.356 . S
C1555 C1549 1.363 . S
C1555 C1550 1.379 . S
C1555 N1553 1.356 . S
N1556 C1548 1.356 . S
N1556 H1562 0.984 . S
N1556 H1563 0.984 . S
N1557 C1550 1.356 . S
N1557 H1560 0.984 . S
N1557 H1561 0.985 . S
H1558 N1553 0.984 . S
H1559 N1553 0.985 . S
H1560 N1557 0.984 . S
H1561 N1557 0.985 . S
H1562 N1556 0.984 . S
H1563 N1556 0.984 . S
H1564 N1552 0.984 . S
H1565 N1552 0.985 . S
C1566 C1567 1.363 . S
C1566 C1572 1.379 . S
C1566 N1574 1.356 . S
C1567 C1566 1.363 . S
C1567 C1573 1.363 . S
C1568 C1569 1.363 . S
C1568 C1573 1.379 . S
C1568 N1575 1.356 . S
C1569 C1568 1.363 . S
C1569 C1572 1.363 . S
N1570 C1572 1.356 . S
N1570 H1582 0.984 . S
N1570 H1583 0.985 . S
N1571 C1573 1.356 . S
N1571 H1576 0.984 . S
N1571 H1577 0.985 . S
C1572 C1566 1.379 . S
C1572 C1569 1.363 . S
C1572 N1570 1.356 . S
C1573 C1567 1.363 . S
C1573 C1568 1.379 . S
C1573 N1571 1.356 . S
N1574 C1566 1.356 . S
N1574 H1580 1.013 . S
N1574 H1581 0.984 . S
N1575 C1568 1.356 . S
N1575 H1578 0.984 . S
N1575 H1579 0.985 . S
H1576 N1571 0.984 . S
H1577 N1571 0.985 . S
H1578 N1575 0.984 . S
H1579 N1575 0.985 . S
H1580 N1574 1.013 . S
H1581 N1574 0.984 . S
H1582 N1570 0.984 . S
H1583 N1570 0.985 . S
C1584 C1585 1.363 . S
C1584 C1590 1.379 . S
C1584 N1592 1.356 . S
C1585 C1584 1.363 . S
C1585 C1591 1.363 . S
C1586 C1587 1.363 . S
C1586 C1591 1.379 . S
C1586 N1593 1.356 . S
C1587 C1586 1.363 . S
C1587 C1590 1.363 . S
N1588 C1590 1.356 . S
N1588 H1600 0.984 . S
N1588 H1601 0.985 . S
N1589 C1591 1.356 . S
N1589 H1594 0.984 . S
N1589 H1595 0.985 . S
C1590 C1584 1.379 . S
C1590 C1587 1.363 . S
C1590 N1588 1.356 . S
C1591 C1585 1.363 . S
C1591 C1586 1.379 . S
C1591 N1589 1.356 . S
N1592 C1584 1.356 . S
N1592 H1598 0.984 . S
N1592 H1599 0.984 . S
N1593 C1586 1.356 . S
N1593 H1596 0.984 . S
N1593 H1597 0.985 . S
H1594 N1589 0.984 . S
H1595 N1589 0.985 . S
H1596 N1593 0.984 . S
H1597 N1593 0.985 . S
H1598 N1592 0.984 . S
H1599 N1592 0.984 . S
H1600 N1588 0.984 . S
H1601 N1588 0.985 . S
C1602 C1603 1.363 . S
C1602 C1608 1.379 . S
C1602 N1610 1.356 . S
C1603 C1602 1.363 . S
C1603 C1609 1.363 . S
C1604 C1605 1.363 . S
C1604 C1609 1.379 . S
C1604 N1611 1.356 . S
C1605 C1604 1.363 . S
C1605 C1608 1.363 . S
N1606 C1608 1.356 . S
N1606 H1618 0.984 . S
N1606 H1619 0.985 . S
N1607 C1609 1.356 . S
N1607 H1612 0.984 . S
N1607 H1613 0.985 . S
C1608 C1602 1.379 . S
C1608 C1605 1.363 . S
C1608 N1606 1.356 . S
C1609 C1603 1.363 . S
C1609 C1604 1.379 . S
C1609 N1607 1.356 . S
N1610 C1602 1.356 . S
N1610 H1616 0.984 . S
N1610 H1617 0.984 . S
N1611 C1604 1.356 . S
N1611 H1614 0.984 . S
N1611 H1615 0.985 . S
H1612 N1607 0.984 . S
H1613 N1607 0.985 . S
H1614 N1611 0.984 . S
H1615 N1611 0.985 . S
H1616 N1610 0.984 . S
H1617 N1610 0.984 . S
H1618 N1606 0.984 . S
H1619 N1606 0.985 . S
C1620 C1621 1.363 . S
C1620 C1626 1.379 . S
C1620 N1628 1.356 . S
C1621 C1620 1.363 . S
C1621 C1627 1.363 . S
C1622 C1623 1.363 . S
C1622 C1627 1.379 . S
C1622 N1629 1.356 . S
C1623 C1622 1.363 . S
C1623 C1626 1.363 . S
N1624 C1626 1.356 . S
N1624 H1636 0.984 . S
N1624 H1637 0.985 . S
N1625 C1627 1.356 . S
N1625 H1630 0.984 . S
N1625 H1631 0.985 . S
C1626 C1620 1.379 . S
C1626 C1623 1.363 . S
C1626 N1624 1.356 . S
C1627 C1621 1.363 . S
C1627 C1622 1.379 . S
C1627 N1625 1.356 . S
N1628 C1620 1.356 . S
N1628 H1634 0.984 . S
N1628 H1635 0.984 . S
N1629 C1622 1.356 . S
N1629 H1632 0.984 . S
N1629 H1633 0.985 . S
H1630 N1625 0.984 . S
H1631 N1625 0.985 . S
H1632 N1629 0.984 . S
H1633 N1629 0.985 . S
H1634 N1628 0.984 . S
H1635 N1628 0.984 . S
H1636 N1624 0.984 . S
H1637 N1624 0.985 . S
C1638 C1639 1.363 . S
C1638 C1644 1.379 . S
C1638 N1646 1.356 . S
C1639 C1638 1.363 . S
C1639 C1645 1.363 . S
C1640 C1641 1.363 . S
C1640 C1645 1.379 . S
C1640 N1647 1.356 . S
C1641 C1640 1.363 . S
C1641 C1644 1.363 . S
N1642 C1644 1.356 . S
N1642 H1654 0.984 . S
N1642 H1655 0.985 . S
N1643 C1645 1.356 . S
N1643 H1648 0.984 . S
N1643 H1649 0.985 . S
C1644 C1638 1.379 . S
C1644 C1641 1.363 . S
C1644 N1642 1.356 . S
C1645 C1639 1.363 . S
C1645 C1640 1.379 . S
C1645 N1643 1.356 . S
N1646 C1638 1.356 . S
N1646 H1652 0.984 . S
N1646 H1653 0.984 . S
N1647 C1640 1.356 . S
N1647 H1650 0.984 . S
N1647 H1651 0.985 . S
H1648 N1643 0.984 . S
H1649 N1643 0.985 . S
H1650 N1647 0.984 . S
H1651 N1647 0.985 . S
H1652 N1646 0.984 . S
H1653 N1646 0.984 . S
H1654 N1642 0.984 . S
H1655 N1642 0.985 . S
C1656 C1657 1.363 . S
C1656 C1662 1.379 . S
C1656 N1664 1.356 . S
C1657 C1656 1.363 . S
C1657 C1663 1.363 . S
C1658 C1659 1.363 . S
C1658 C1663 1.379 . S
C1658 N1665 1.356 . S
C1659 C1658 1.363 . S
C1659 C1662 1.363 . S
N1660 C1662 1.356 . S
N1660 H1672 0.984 . S
N1660 H1673 0.985 . S
N1661 C1663 1.356 . S
N1661 H1666 0.984 . S
N1661 H1667 0.985 . S
C1662 C1656 1.379 . S
C1662 C1659 1.363 . S
C1662 N1660 1.356 . S
C1663 C1657 1.363 . S
C1663 C1658 1.379 . S
C1663 N1661 1.356 . S
N1664 C1656 1.356 . S
N1664 H1670 0.984 . S
N1664 H1671 0.984 . S
N1665 C1658 1.356 . S
N1665 H1668 0.984 . S
N1665 H1669 0.985 . S
H1666 N1661 0.984 . S
H1667 N1661 0.985 . S
H1668 N1665 0.984 . S
H1669 N1665 0.985 . S
H1670 N1664 0.984 . S
H1671 N1664 0.984 . S
H1672 N1660 0.984 . S
H1673 N1660 0.985 . S
C1674 C1675 1.363 . S
C1674 C1680 1.379 . S
C1674 N1682 1.356 . S
C1675 C1674 1.363 . S
C1675 C1681 1.363 . S
C1676 C1677 1.363 . S
C1676 C1681 1.379 . S
C1676 N1683 1.356 . S
C1677 C1676 1.363 . S
C1677 C1680 1.363 . S
N1678 C1680 1.356 . S
N1678 H1690 0.984 . S
N1678 H1691 0.985 . S
N1679 C1681 1.356 . S
N1679 H1684 0.984 . S
N1679 H1685 0.985 . S
C1680 C1674 1.379 . S
C1680 C1677 1.363 . S
C1680 N1678 1.356 . S
C1681 C1675 1.363 . S
C1681 C1676 1.379 . S
C1681 N1679 1.356 . S
N1682 C1674 1.356 . S
N1682 H1688 0.984 . S
N1682 H1689 0.984 . S
N1683 C1676 1.356 . S
N1683 H1686 0.984 . S
N1683 H1687 0.985 . S
H1684 N1679 0.984 . S
H1685 N1679 0.985 . S
H1686 N1683 0.984 . S
H1687 N1683 0.985 . S
H1688 N1682 0.984 . S
H1689 N1682 0.984 . S
H1690 N1678 0.984 . S
H1691 N1678 0.985 . S
C1692 C1693 1.363 . S
C1692 C1698 1.379 . S
C1692 N1700 1.356 . S
C1693 C1692 1.363 . S
C1693 C1699 1.363 . S
C1694 C1695 1.363 . S
C1694 C1699 1.379 . S
C1694 N1701 1.356 . S
C1695 C1694 1.363 . S
C1695 C1698 1.363 . S
N1696 C1698 1.356 . S
N1696 H1708 0.984 . S
N1696 H1709 0.985 . S
N1697 C1699 1.356 . S
N1697 H1702 0.984 . S
N1697 H1703 0.985 . S
C1698 C1692 1.379 . S
C1698 C1695 1.363 . S
C1698 N1696 1.356 . S
C1699 C1693 1.363 . S
C1699 C1694 1.379 . S
C1699 N1697 1.356 . S
N1700 C1692 1.356 . S
N1700 H1706 0.984 . S
N1700 H1707 0.984 . S
N1701 C1694 1.356 . S
N1701 H1704 0.984 . S
N1701 H1705 0.985 . S
H1702 N1697 0.984 . S
H1703 N1697 0.985 . S
H1704 N1701 0.984 . S
H1705 N1701 0.985 . S
H1706 N1700 0.984 . S
H1707 N1700 0.984 . S
H1708 N1696 0.984 . S
H1709 N1696 0.985 . S
C1710 C1711 1.363 . S
C1710 C1716 1.379 . S
C1710 N1718 1.356 . S
C1711 C1710 1.363 . S
C1711 C1717 1.363 . S
C1712 C1713 1.363 . S
C1712 C1717 1.379 . S
C1712 N1719 1.356 . S
C1713 C1712 1.363 . S
C1713 C1716 1.363 . S
N1714 C1716 1.356 . S
N1714 H1726 0.984 . S
N1714 H1727 0.985 . S
N1715 C1717 1.356 . S
N1715 H1720 0.984 . S
N1715 H1721 0.985 . S
C1716 C1710 1.379 . S
C1716 C1713 1.363 . S
C1716 N1714 1.356 . S
C1717 C1711 1.363 . S
C1717 C1712 1.379 . S
C1717 N1715 1.356 . S
N1718 C1710 1.356 . S
N1718 H1724 0.984 . S
N1718 H1725 0.984 . S
N1719 C1712 1.356 . S
N1719 H1722 0.984 . S
N1719 H1723 0.985 . S
H1720 N1715 0.984 . S
H1721 N1715 0.985 . S
H1722 N1719 0.984 . S
H1723 N1719 0.985 . S
H1724 N1718 0.984 . S
H1725 N1718 0.984 . S
H1726 N1714 0.984 . S
H1727 N1714 0.985 . S
C1728 C1729 1.363 . S
C1728 C1734 1.379 . S
C1728 N1736 1.356 . S
C1729 C1728 1.363 . S
C1729 C1735 1.363 . S
C1730 C1731 1.363 . S
C1730 C1735 1.379 . S
C1730 N1737 1.356 . S
C1731 C1730 1.363 . S
C1731 C1734 1.363 . S
N1732 C1734 1.356 . S
N1732 H1744 0.984 . S
N1732 H1745 0.985 . S
N1733 C1735 1.356 . S
N1733 H1738 0.984 . S
N1733 H1739 0.985 . S
C1734 C1728 1.379 . S
C1734 C1731 1.363 . S
C1734 N1732 1.356 . S
C1735 C1729 1.363 . S
C1735 C1730 1.379 . S
C1735 N1733 1.356 . S
N1736 C1728 1.356 . S
N1736 H1742 0.984 . S
N1736 H1743 0.984 . S
N1737 C1730 1.356 . S
N1737 H1740 0.984 . S
N1737 H1741 0.985 . S
H1738 N1733 0.984 . S
H1739 N1733 0.985 . S
H1740 N1737 0.984 . S
H1741 N1737 0.985 . S
H1742 N1736 0.984 . S
H1743 N1736 0.984 . S
H1744 N1732 0.984 . S
H1745 N1732 0.985 . S
C1746 C1747 1.363 . S
C1746 C1752 1.379 . S
C1746 N1754 1.356 . S
C1747 C1746 1.363 . S
C1747 C1753 1.363 . S
C1748 C1749 1.363 . S
C1748 C1753 1.379 . S
C1748 N1755 1.356 . S
C1749 C1748 1.363 . S
C1749 C1752 1.363 . S
N1750 C1752 1.356 . S
N1750 H1762 0.984 . S
N1750 H1763 0.985 . S
N1751 C1753 1.356 . S
N1751 H1756 0.984 . S
N1751 H1757 0.985 . S
C1752 C1746 1.379 . S
C1752 C1749 1.363 . S
C1752 N1750 1.356 . S
C1753 C1747 1.363 . S
C1753 C1748 1.379 . S
C1753 N1751 1.356 . S
N1754 C1746 1.356 . S
N1754 H1760 0.984 . S
N1754 H1761 0.984 . S
N1755 C1748 1.356 . S
N1755 H1758 0.984 . S
N1755 H1759 0.985 . S
H1756 N1751 0.984 . S
H1757 N1751 0.985 . S
H1758 N1755 0.984 . S
H1759 N1755 0.985 . S
H1760 N1754 0.984 . S
H1761 N1754 0.984 . S
H1762 N1750 0.984 . S
H1763 N1750 0.985 . S
C1764 C1765 1.363 . S
C1764 C1770 1.379 . S
C1764 N1772 1.356 . S
C1765 C1764 1.363 . S
C1765 C1771 1.363 . S
C1766 C1767 1.363 . S
C1766 C1771 1.379 . S
C1766 N1773 1.356 . S
C1767 C1766 1.363 . S
C1767 C1770 1.363 . S
N1768 C1770 1.356 . S
N1768 H1780 0.984 . S
N1768 H1781 0.985 . S
N1769 C1771 1.356 . S
N1769 H1774 0.984 . S
N1769 H1775 0.985 . S
C1770 C1764 1.379 . S
C1770 C1767 1.363 . S
C1770 N1768 1.356 . S
C1771 C1765 1.363 . S
C1771 C1766 1.379 . S
C1771 N1769 1.356 . S
N1772 C1764 1.356 . S
N1772 H1778 0.984 1_554 S
N1772 H1779 0.984 . S
N1773 C1766 1.356 . S
N1773 H1776 0.984 . S
N1773 H1777 0.985 . S
H1774 N1769 0.984 . S
H1775 N1769 0.985 . S
H1776 N1773 0.984 . S
H1777 N1773 0.985 . S
H1778 N1772 0.984 1_556 S
H1779 N1772 0.984 . S
H1780 N1768 0.984 . S
H1781 N1768 0.985 . S
C1782 C1783 1.363 . S
C1782 C1788 1.379 . S
C1782 N1790 1.356 . S
C1783 C1782 1.363 . S
C1783 C1789 1.363 . S
C1784 C1785 1.363 . S
C1784 C1789 1.379 . S
C1784 N1791 1.356 . S
C1785 C1784 1.363 . S
C1785 C1788 1.363 . S
N1786 C1788 1.356 . S
N1786 H1798 0.984 . S
N1786 H1799 0.985 . S
N1787 C1789 1.356 . S
N1787 H1792 0.984 . S
N1787 H1793 0.985 . S
C1788 C1782 1.379 . S
C1788 C1785 1.363 . S
C1788 N1786 1.356 . S
C1789 C1783 1.363 . S
C1789 C1784 1.379 . S
C1789 N1787 1.356 . S
N1790 C1782 1.356 . S
N1790 H1796 0.984 . S
N1790 H1797 0.984 . S
N1791 C1784 1.356 . S
N1791 H1794 0.984 . S
N1791 H1795 0.985 . S
H1792 N1787 0.984 . S
H1793 N1787 0.985 . S
H1794 N1791 0.984 . S
H1795 N1791 0.985 . S
H1796 N1790 0.984 . S
H1797 N1790 0.984 . S
H1798 N1786 0.984 . S
H1799 N1786 0.985 . S
C1800 C1801 1.363 . S
C1800 C1806 1.379 . S
C1800 N1808 1.356 . S
C1801 C1800 1.363 . S
C1801 C1807 1.363 . S
C1802 C1803 1.363 . S
C1802 C1807 1.379 . S
C1802 N1809 1.356 . S
C1803 C1802 1.363 . S
C1803 C1806 1.363 . S
N1804 C1806 1.356 . S
N1804 H1816 0.984 . S
N1804 H1817 0.985 . S
N1805 C1807 1.356 . S
N1805 H1810 0.984 . S
N1805 H1811 0.985 . S
C1806 C1800 1.379 . S
C1806 C1803 1.363 . S
C1806 N1804 1.356 . S
C1807 C1801 1.363 . S
C1807 C1802 1.379 . S
C1807 N1805 1.356 . S
N1808 C1800 1.356 . S
N1808 H1814 0.984 1_554 S
N1808 H1815 0.982 1_554 S
N1809 C1802 1.356 . S
N1809 H1812 0.984 . S
N1809 H1813 0.985 . S
H1810 N1805 0.984 . S
H1811 N1805 0.985 . S
H1812 N1809 0.984 . S
H1813 N1809 0.985 . S
H1814 N1808 0.984 1_556 S
H1815 N1808 0.982 1_556 S
H1816 N1804 0.984 . S
H1817 N1804 0.985 . S
C1818 C1819 1.363 . S
C1818 C1824 1.379 . S
C1818 N1826 1.356 1_556 S
C1819 C1818 1.363 . S
C1819 C1825 1.363 . S
C1820 C1821 1.363 . S
C1820 C1825 1.379 . S
C1820 N1827 1.356 . S
C1821 C1820 1.363 . S
C1821 C1824 1.363 . S
N1822 C1824 1.356 . S
N1822 H1834 0.984 1_556 S
N1822 H1835 0.985 . S
N1823 C1825 1.356 . S
N1823 H1828 0.984 . S
N1823 H1829 0.985 . S
C1824 C1818 1.379 . S
C1824 C1821 1.363 . S
C1824 N1822 1.356 . S
C1825 C1819 1.363 . S
C1825 C1820 1.379 . S
C1825 N1823 1.356 . S
N1826 C1818 1.356 1_554 S
N1826 H1832 0.984 . S
N1826 H1833 0.984 . S
N1827 C1820 1.356 . S
N1827 H1830 0.984 . S
N1827 H1831 0.985 . S
H1828 N1823 0.984 . S
H1829 N1823 0.985 . S
H1830 N1827 0.984 . S
H1831 N1827 0.985 . S
H1832 N1826 0.984 . S
H1833 N1826 0.984 . S
H1834 N1822 0.984 1_554 S
H1835 N1822 0.985 . S
C1836 C1837 1.363 . S
C1836 C1842 1.379 . S
C1836 N1844 1.356 . S
C1837 C1836 1.363 . S
C1837 C1843 1.363 . S
C1838 C1839 1.363 . S
C1838 C1843 1.379 . S
C1838 N1845 1.356 . S
C1839 C1838 1.363 . S
C1839 C1842 1.363 . S
N1840 C1842 1.356 . S
N1840 H1852 0.984 . S
N1840 H1853 0.985 . S
N1841 C1843 1.356 1_554 S
N1841 H1846 0.984 . S
N1841 H1847 0.985 . S
C1842 C1836 1.379 . S
C1842 C1839 1.363 . S
C1842 N1840 1.356 . S
C1843 C1837 1.363 . S
C1843 C1838 1.379 . S
C1843 N1841 1.356 1_556 S
N1844 C1836 1.356 . S
N1844 H1850 0.984 . S
N1844 H1851 0.984 . S
N1845 C1838 1.356 . S
N1845 H1848 0.984 . S
N1845 H1849 0.985 1_556 S
H1846 N1841 0.984 . S
H1847 N1841 0.985 . S
H1848 N1845 0.984 . S
H1849 N1845 0.985 1_554 S
H1850 N1844 0.984 . S
H1851 N1844 0.984 . S
H1852 N1840 0.984 . S
H1853 N1840 0.985 . S
C1854 C1855 1.363 . S
C1854 C1860 1.379 . S
C1854 N1862 1.356 . S
C1855 C1854 1.363 . S
C1855 C1861 1.363 . S
C1856 C1857 1.363 . S
C1856 C1861 1.379 . S
C1856 N1863 1.356 . S
C1857 C1856 1.363 . S
C1857 C1860 1.363 . S
N1858 C1860 1.356 . S
N1858 H1870 0.984 . S
N1858 H1871 0.985 . S
N1859 C1861 1.356 . S
N1859 H1864 0.984 . S
N1859 H1865 0.985 . S
C1860 C1854 1.379 . S
C1860 C1857 1.363 . S
C1860 N1858 1.356 . S
C1861 C1855 1.363 . S
C1861 C1856 1.379 . S
C1861 N1859 1.356 . S
N1862 C1854 1.356 . S
N1862 H1868 0.984 . S
N1862 H1869 0.984 . S
N1863 C1856 1.356 . S
N1863 H1866 0.984 . S
N1863 H1867 0.985 . S
H1864 N1859 0.984 . S
H1865 N1859 0.985 . S
H1866 N1863 0.984 . S
H1867 N1863 0.985 . S
H1868 N1862 0.984 . S
H1869 N1862 0.984 . S
H1870 N1858 0.984 . S
H1871 N1858 0.985 . S
C1872 C1873 1.363 . S
C1872 C1878 1.379 . S
C1872 N1880 1.356 . S
C1873 C1872 1.363 . S
C1873 C1879 1.363 . S
C1874 C1875 1.363 . S
C1874 C1879 1.379 . S
C1874 N1881 1.356 . S
C1875 C1874 1.363 . S
C1875 C1878 1.363 . S
N1876 C1878 1.356 . S
N1876 H1888 0.984 . S
N1876 H1889 0.985 . S
N1877 C1879 1.356 . S
N1877 H1882 0.986 . S
N1877 H1883 0.985 . S
C1878 C1872 1.379 . S
C1878 C1875 1.363 . S
C1878 N1876 1.356 . S
C1879 C1873 1.363 . S
C1879 C1874 1.379 . S
C1879 N1877 1.356 . S
N1880 C1872 1.356 . S
N1880 H1886 0.984 . S
N1880 H1887 0.984 . S
N1881 C1874 1.356 . S
N1881 H1884 0.984 . S
N1881 H1885 0.985 . S
H1882 N1877 0.986 . S
H1883 N1877 0.985 . S
H1884 N1881 0.984 . S
H1885 N1881 0.985 . S
H1886 N1880 0.984 . S
H1887 N1880 0.984 . S
H1888 N1876 0.984 . S
H1889 N1876 0.985 . S
C1890 C1891 1.363 . S
C1890 C1896 1.379 . S
C1890 N1898 1.356 1_556 S
C1891 C1890 1.363 . S
C1891 C1897 1.363 . S
C1892 C1893 1.363 . S
C1892 C1897 1.379 . S
C1892 N1899 1.356 . S
C1893 C1892 1.363 . S
C1893 C1896 1.363 . S
N1894 C1896 1.356 . S
N1894 H1906 0.995 . S
N1894 H1907 0.985 . S
N1895 C1897 1.356 . S
N1895 H1900 0.984 . S
N1895 H1901 0.985 . S
C1896 C1890 1.379 . S
C1896 C1893 1.363 . S
C1896 N1894 1.356 . S
C1897 C1891 1.363 . S
C1897 C1892 1.379 . S
C1897 N1895 1.356 . S
N1898 C1890 1.356 1_554 S
N1898 H1904 0.984 . S
N1898 H1905 0.984 . S
N1899 C1892 1.356 . S
N1899 H1902 0.984 . S
N1899 H1903 0.985 . S
H1900 N1895 0.984 . S
H1901 N1895 0.985 . S
H1902 N1899 0.984 . S
H1903 N1899 0.985 . S
H1904 N1898 0.984 . S
H1905 N1898 0.984 . S
H1906 N1894 0.995 . S
H1907 N1894 0.985 . S
C1908 C1909 1.363 . S
C1908 C1914 1.379 . S
C1908 N1916 1.356 1_556 S
C1909 C1908 1.363 . S
C1909 C1915 1.363 . S
C1910 C1911 1.363 . S
C1910 C1915 1.379 . S
C1910 N1917 1.356 . S
C1911 C1910 1.363 . S
C1911 C1914 1.363 . S
N1912 C1914 1.356 . S
N1912 H1924 0.984 . S
N1912 H1925 0.985 . S
N1913 C1915 1.356 . S
N1913 H1918 0.984 . S
N1913 H1919 0.985 . S
C1914 C1908 1.379 . S
C1914 C1911 1.363 . S
C1914 N1912 1.356 . S
C1915 C1909 1.363 . S
C1915 C1910 1.379 . S
C1915 N1913 1.356 . S
N1916 C1908 1.356 1_554 S
N1916 H1922 0.984 . S
N1916 H1923 0.984 . S
N1917 C1910 1.356 . S
N1917 H1920 0.984 . S
N1917 H1921 0.985 . S
H1918 N1913 0.984 . S
H1919 N1913 0.985 . S
H1920 N1917 0.984 . S
H1921 N1917 0.985 . S
H1922 N1916 0.984 . S
H1923 N1916 0.984 . S
H1924 N1912 0.984 . S
H1925 N1912 0.985 . S
C1926 C1927 1.363 . S
C1926 C1932 1.379 . S
C1926 N1934 1.356 . S
C1927 C1926 1.363 . S
C1927 C1933 1.363 . S
C1928 C1929 1.363 . S
C1928 C1933 1.379 . S
C1928 N1935 1.356 . S
C1929 C1928 1.363 . S
C1929 C1932 1.363 . S
N1930 C1932 1.356 . S
N1930 H1942 0.984 . S
N1930 H1943 0.985 . S
N1931 C1933 1.356 . S
N1931 H1936 0.984 . S
N1931 H1937 0.985 . S
C1932 C1926 1.379 . S
C1932 C1929 1.363 . S
C1932 N1930 1.356 . S
C1933 C1927 1.363 . S
C1933 C1928 1.379 . S
C1933 N1931 1.356 . S
N1934 C1926 1.356 . S
N1934 H1940 0.984 1_554 S
N1934 H1941 0.984 . S
N1935 C1928 1.356 . S
N1935 H1938 0.984 . S
N1935 H1939 0.985 . S
H1936 N1931 0.984 . S
H1937 N1931 0.985 . S
H1938 N1935 0.984 . S
H1939 N1935 0.985 . S
H1940 N1934 0.984 1_556 S
H1941 N1934 0.984 . S
H1942 N1930 0.984 . S
H1943 N1930 0.985 . S
C1944 C1945 1.363 . S
C1944 C1950 1.379 . S
C1944 N1952 1.356 . S
C1945 C1944 1.363 . S
C1945 C1951 1.363 . S
C1946 C1947 1.363 . S
C1946 C1951 1.379 . S
C1946 N1953 1.356 . S
C1947 C1946 1.363 . S
C1947 C1950 1.363 . S
N1948 C1950 1.356 . S
N1948 H1960 0.984 . S
N1948 H1961 0.985 . S
N1949 C1951 1.356 . S
N1949 H1954 0.984 . S
N1949 H1955 0.985 . S
C1950 C1944 1.379 . S
C1950 C1947 1.363 . S
C1950 N1948 1.356 . S
C1951 C1945 1.363 . S
C1951 C1946 1.379 . S
C1951 N1949 1.356 . S
N1952 C1944 1.356 . S
N1952 H1958 0.984 . S
N1952 H1959 0.984 . S
N1953 C1946 1.356 . S
N1953 H1956 0.984 . S
N1953 H1957 0.985 . S
H1954 N1949 0.984 . S
H1955 N1949 0.985 . S
H1956 N1953 0.984 . S
H1957 N1953 0.985 . S
H1958 N1952 0.984 . S
H1959 N1952 0.984 . S
H1960 N1948 0.984 . S
H1961 N1948 0.985 . S
C1962 C1963 1.363 . S
C1962 C1968 1.379 . S
C1962 N1970 1.356 . S
C1963 C1962 1.363 . S
C1963 C1969 1.363 . S
C1964 C1965 1.363 . S
C1964 C1969 1.379 . S
C1964 N1971 1.356 . S
C1965 C1964 1.363 . S
C1965 C1968 1.363 . S
N1966 C1968 1.356 . S
N1966 H1978 0.984 . S
N1966 H1979 0.985 . S
N1967 C1969 1.356 . S
N1967 H1972 0.984 . S
N1967 H1973 0.985 . S
C1968 C1962 1.379 . S
C1968 C1965 1.363 . S
C1968 N1966 1.356 . S
C1969 C1963 1.363 . S
C1969 C1964 1.379 . S
C1969 N1967 1.356 . S
N1970 C1962 1.356 . S
N1970 H1976 0.984 1_554 S
N1970 H1977 0.984 . S
N1971 C1964 1.356 . S
N1971 H1974 0.984 . S
N1971 H1975 0.985 . S
H1972 N1967 0.984 . S
H1973 N1967 0.985 . S
H1974 N1971 0.984 . S
H1975 N1971 0.985 . S
H1976 N1970 0.984 1_556 S
H1977 N1970 0.984 . S
H1978 N1966 0.984 . S
H1979 N1966 0.985 . S
C1980 C1981 1.363 . S
C1980 C1986 1.379 . S
C1980 N1988 1.356 . S
C1981 C1980 1.363 . S
C1981 C1987 1.363 . S
C1982 C1983 1.363 . S
C1982 C1987 1.379 . S
C1982 N1989 1.356 . S
C1983 C1982 1.363 . S
C1983 C1986 1.363 . S
N1984 C1986 1.356 . S
N1984 H1996 0.984 . S
N1984 H1997 0.985 . S
N1985 C1987 1.356 . S
N1985 H1990 0.984 . S
N1985 H1991 0.985 . S
C1986 C1980 1.379 . S
C1986 C1983 1.363 . S
C1986 N1984 1.356 . S
C1987 C1981 1.363 . S
C1987 C1982 1.379 . S
C1987 N1985 1.356 . S
N1988 C1980 1.356 . S
N1988 H1994 0.984 . S
N1988 H1995 0.984 . S
N1989 C1982 1.356 . S
N1989 H1992 0.984 . S
N1989 H1993 0.985 . S
H1990 N1985 0.984 . S
H1991 N1985 0.985 . S
H1992 N1989 0.984 . S
H1993 N1989 0.985 . S
H1994 N1988 0.984 . S
H1995 N1988 0.984 . S
H1996 N1984 0.984 . S
H1997 N1984 0.985 . S
C1998 C1999 1.363 . S
C1998 C2004 1.379 . S
C1998 N2006 1.356 . S
C1999 C1998 1.363 . S
C1999 C2005 1.363 . S
C2000 C2001 1.363 . S
C2000 C2005 1.379 . S
C2000 N2007 1.356 . S
C2001 C2000 1.363 . S
C2001 C2004 1.363 . S
N2002 C2004 1.356 . S
N2002 H2014 0.984 . S
N2002 H2015 0.985 . S
N2003 C2005 1.356 . S
N2003 H2008 0.984 . S
N2003 H2009 0.985 . S
C2004 C1998 1.379 . S
C2004 C2001 1.363 . S
C2004 N2002 1.356 . S
C2005 C1999 1.363 . S
C2005 C2000 1.379 . S
C2005 N2003 1.356 . S
N2006 C1998 1.356 . S
N2006 H2012 0.984 . S
N2006 H2013 0.984 . S
N2007 C2000 1.356 . S
N2007 H2010 0.984 . S
N2007 H2011 0.985 . S
H2008 N2003 0.984 . S
H2009 N2003 0.985 . S
H2010 N2007 0.984 . S
H2011 N2007 0.985 . S
H2012 N2006 0.984 . S
H2013 N2006 0.984 . S
H2014 N2002 0.984 . S
H2015 N2002 0.985 . S
C2016 C2017 1.363 . S
C2016 C2022 1.379 . S
C2016 N2024 1.356 . S
C2017 C2016 1.363 . S
C2017 C2023 1.363 . S
C2018 C2019 1.363 . S
C2018 C2023 1.379 . S
C2018 N2025 1.356 . S
C2019 C2018 1.363 . S
C2019 C2022 1.363 . S
N2020 C2022 1.356 . S
N2020 H2032 0.984 . S
N2020 H2033 0.985 . S
N2021 C2023 1.356 . S
N2021 H2026 0.984 . S
N2021 H2027 0.985 . S
C2022 C2016 1.379 . S
C2022 C2019 1.363 . S
C2022 N2020 1.356 . S
C2023 C2017 1.363 . S
C2023 C2018 1.379 . S
C2023 N2021 1.356 . S
N2024 C2016 1.356 . S
N2024 H2030 0.984 . S
N2024 H2031 0.984 . S
N2025 C2018 1.356 . S
N2025 H2028 0.984 . S
N2025 H2029 0.985 . S
H2026 N2021 0.984 . S
H2027 N2021 0.985 . S
H2028 N2025 0.984 . S
H2029 N2025 0.985 . S
H2030 N2024 0.984 . S
H2031 N2024 0.984 . S
H2032 N2020 0.984 . S
H2033 N2020 0.985 . S
C2034 C2035 1.363 . S
C2034 C2040 1.383 . S
C2034 N2042 1.356 . S
C2035 C2034 1.363 . S
C2035 C2041 1.363 . S
C2036 C2037 1.363 . S
C2036 C2041 1.379 . S
C2036 N2043 1.356 . S
C2037 C2036 1.363 . S
C2037 C2040 1.364 . S
N2038 C2040 1.350 1_655 S
N2038 H2050 0.984 . S
N2038 H2051 0.985 . S
N2039 C2041 1.356 . S
N2039 H2044 0.984 . S
N2039 H2045 0.985 . S
C2040 C2034 1.383 . S
C2040 C2037 1.364 . S
C2040 N2038 1.350 1_455 S
C2041 C2035 1.363 . S
C2041 C2036 1.379 . S
C2041 N2039 1.356 . S
N2042 C2034 1.356 . S
N2042 H2048 0.984 1_455 S
N2042 H2049 0.984 . S
N2043 C2036 1.356 . S
N2043 H2046 0.984 . S
N2043 H2047 0.985 . S
H2044 N2039 0.984 . S
H2045 N2039 0.985 . S
H2046 N2043 0.984 . S
H2047 N2043 0.985 . S
H2048 N2042 0.984 1_655 S
H2049 N2042 0.984 . S
H2050 N2038 0.984 . S
H2051 N2038 0.985 . S
C2052 C2053 1.363 . S
C2052 C2058 1.379 . S
C2052 N2060 1.356 . S
C2053 C2052 1.363 . S
C2053 C2059 1.363 . S
C2054 C2055 1.363 . S
C2054 C2059 1.379 . S
C2054 N2061 1.356 . S
C2055 C2054 1.363 . S
C2055 C2058 1.363 . S
N2056 C2058 1.356 . S
N2056 H2068 0.984 . S
N2056 H2069 0.985 . S
N2057 C2059 1.356 . S
N2057 H2062 0.984 . S
N2057 H2063 0.985 . S
C2058 C2052 1.379 . S
C2058 C2055 1.363 . S
C2058 N2056 1.356 . S
C2059 C2053 1.363 . S
C2059 C2054 1.379 . S
C2059 N2057 1.356 . S
N2060 C2052 1.356 . S
N2060 H2066 0.984 . S
N2060 H2067 0.984 . S
N2061 C2054 1.356 . S
N2061 H2064 0.984 . S
N2061 H2065 0.985 . S
H2062 N2057 0.984 . S
H2063 N2057 0.985 . S
H2064 N2061 0.984 . S
H2065 N2061 0.985 . S
H2066 N2060 0.984 . S
H2067 N2060 0.984 . S
H2068 N2056 0.984 . S
H2069 N2056 0.985 . S
C2070 C2071 1.363 1_545 S
C2070 C2076 1.379 . S
C2070 N2078 1.356 . S
C2071 C2070 1.363 1_565 S
C2071 C2077 1.363 . S
C2072 C2073 1.363 . S
C2072 C2077 1.379 . S
C2072 N2079 1.356 . S
C2073 C2072 1.363 . S
C2073 C2076 1.363 1_565 S
N2074 C2076 1.356 . S
N2074 H2086 0.984 . S
N2074 H2087 0.985 . S
N2075 C2077 1.356 . S
N2075 H2080 0.984 . S
N2075 H2081 0.985 . S
C2076 C2070 1.379 . S
C2076 C2073 1.363 1_545 S
C2076 N2074 1.356 . S
C2077 C2071 1.363 . S
C2077 C2072 1.379 . S
C2077 N2075 1.356 . S
N2078 C2070 1.356 . S
N2078 H2084 0.984 . S
N2078 H2085 0.984 . S
N2079 C2072 1.356 . S
N2079 H2082 0.984 . S
N2079 H2083 0.985 . S
H2080 N2075 0.984 . S
H2081 N2075 0.985 . S
H2082 N2079 0.984 . S
H2083 N2079 0.985 . S
H2084 N2078 0.984 . S
H2085 N2078 0.984 . S
H2086 N2074 0.984 . S
H2087 N2074 0.985 . S
C2088 C2089 1.363 1_545 S
C2088 C2094 1.379 . S
C2088 N2096 1.356 . S
C2089 C2088 1.363 1_565 S
C2089 C2095 1.363 . S
C2090 C2091 1.363 . S
C2090 C2095 1.379 . S
C2090 N2097 1.356 . S
C2091 C2090 1.363 . S
C2091 C2094 1.363 1_565 S
N2092 C2094 1.356 . S
N2092 H2104 0.984 . S
N2092 H2105 0.985 . S
N2093 C2095 1.356 . S
N2093 H2098 0.984 . S
N2093 H2099 0.985 . S
C2094 C2088 1.379 . S
C2094 C2091 1.363 1_545 S
C2094 N2092 1.356 . S
C2095 C2089 1.363 . S
C2095 C2090 1.379 . S
C2095 N2093 1.356 . S
N2096 C2088 1.356 . S
N2096 H2102 0.984 . S
N2096 H2103 0.984 . S
N2097 C2090 1.356 . S
N2097 H2100 0.984 . S
N2097 H2101 0.985 . S
H2098 N2093 0.984 . S
H2099 N2093 0.985 . S
H2100 N2097 0.984 . S
H2101 N2097 0.985 . S
H2102 N2096 0.984 . S
H2103 N2096 0.984 . S
H2104 N2092 0.984 . S
H2105 N2092 0.985 . S
C2106 C2107 1.363 . S
C2106 C2112 1.386 1_455 S
C2106 N2114 1.356 . S
C2107 C2106 1.363 . S
C2107 C2113 1.363 . S
C2108 C2109 1.363 . S
C2108 C2113 1.379 . S
C2108 N2115 1.356 . S
C2109 C2108 1.363 . S
C2109 C2112 1.345 1_455 S
N2110 C2112 1.363 . S
N2110 H2122 0.984 . S
N2110 H2123 0.985 . S
N2111 C2113 1.356 . S
N2111 H2116 0.984 . S
N2111 H2117 0.985 . S
C2112 C2106 1.386 1_655 S
C2112 C2109 1.345 1_655 S
C2112 N2110 1.363 . S
C2113 C2107 1.363 . S
C2113 C2108 1.379 . S
C2113 N2111 1.356 . S
N2114 C2106 1.356 . S
N2114 H2120 0.984 1_455 S
N2114 H2121 0.984 . S
N2115 C2108 1.356 . S
N2115 H2118 0.984 . S
N2115 H2119 0.985 . S
H2116 N2111 0.984 . S
H2117 N2111 0.985 . S
H2118 N2115 0.984 . S
H2119 N2115 0.985 . S
H2120 N2114 0.984 1_655 S
H2121 N2114 0.984 . S
H2122 N2110 0.984 . S
H2123 N2110 0.985 . S
C2124 C2125 1.363 . S
C2124 C2130 1.379 . S
C2124 N2132 1.356 . S
C2125 C2124 1.363 . S
C2125 C2131 1.363 . S
C2126 C2127 1.363 . S
C2126 C2131 1.379 . S
C2126 N2133 1.356 . S
C2127 C2126 1.363 . S
C2127 C2130 1.363 . S
N2128 C2130 1.356 . S
N2128 H2140 0.984 . S
N2128 H2141 0.985 . S
N2129 C2131 1.356 . S
N2129 H2134 0.984 . S
N2129 H2135 0.985 . S
C2130 C2124 1.379 . S
C2130 C2127 1.363 . S
C2130 N2128 1.356 . S
C2131 C2125 1.363 . S
C2131 C2126 1.379 . S
C2131 N2129 1.356 . S
N2132 C2124 1.356 . S
N2132 H2138 0.984 . S
N2132 H2139 0.984 . S
N2133 C2126 1.356 . S
N2133 H2136 0.984 . S
N2133 H2137 0.985 . S
H2134 N2129 0.984 . S
H2135 N2129 0.985 . S
H2136 N2133 0.984 . S
H2137 N2133 0.985 . S
H2138 N2132 0.984 . S
H2139 N2132 0.984 . S
H2140 N2128 0.984 . S
H2141 N2128 0.985 . S
C2142 C2143 1.363 . S
C2142 C2148 1.379 . S
C2142 N2150 1.356 . S
C2143 C2142 1.363 . S
C2143 C2149 1.363 . S
C2144 C2145 1.363 . S
C2144 C2149 1.379 . S
C2144 N2151 1.356 . S
C2145 C2144 1.363 . S
C2145 C2148 1.363 . S
N2146 C2148 1.356 . S
N2146 H2158 0.984 . S
N2146 H2159 0.985 . S
N2147 C2149 1.356 . S
N2147 H2152 0.984 . S
N2147 H2153 0.985 . S
C2148 C2142 1.379 . S
C2148 C2145 1.363 . S
C2148 N2146 1.356 . S
C2149 C2143 1.363 . S
C2149 C2144 1.379 . S
C2149 N2147 1.356 . S
N2150 C2142 1.356 . S
N2150 H2156 0.984 . S
N2150 H2157 0.984 . S
N2151 C2144 1.356 . S
N2151 H2154 0.984 . S
N2151 H2155 0.985 . S
H2152 N2147 0.984 . S
H2153 N2147 0.985 . S
H2154 N2151 0.984 . S
H2155 N2151 0.985 . S
H2156 N2150 0.984 . S
H2157 N2150 0.984 . S
H2158 N2146 0.984 . S
H2159 N2146 0.985 . S
C2160 C2161 1.363 . S
C2160 C2166 1.379 . S
C2160 N2168 1.356 . S
C2161 C2160 1.363 . S
C2161 C2167 1.363 . S
C2162 C2163 1.363 . S
C2162 C2167 1.379 . S
C2162 N2169 1.356 . S
C2163 C2162 1.363 . S
C2163 C2166 1.363 . S
N2164 C2166 1.356 . S
N2164 H2176 0.984 . S
N2164 H2177 0.985 . S
N2165 C2167 1.356 . S
N2165 H2170 0.984 . S
N2165 H2171 0.985 . S
C2166 C2160 1.379 . S
C2166 C2163 1.363 . S
C2166 N2164 1.356 . S
C2167 C2161 1.363 . S
C2167 C2162 1.379 . S
C2167 N2165 1.356 . S
N2168 C2160 1.356 . S
N2168 H2174 0.984 . S
N2168 H2175 0.984 . S
N2169 C2162 1.356 . S
N2169 H2172 0.984 . S
N2169 H2173 0.985 . S
H2170 N2165 0.984 . S
H2171 N2165 0.985 . S
H2172 N2169 0.984 . S
H2173 N2169 0.985 . S
H2174 N2168 0.984 . S
H2175 N2168 0.984 . S
H2176 N2164 0.984 . S
H2177 N2164 0.985 . S
C2178 C2179 1.363 . S
C2178 C2184 1.379 . S
C2178 N2186 1.356 . S
C2179 C2178 1.363 . S
C2179 C2185 1.363 . S
C2180 C2181 1.363 . S
C2180 C2185 1.379 . S
C2180 N2187 1.356 . S
C2181 C2180 1.363 . S
C2181 C2184 1.363 . S
N2182 C2184 1.356 . S
N2182 H2194 0.984 . S
N2182 H2195 0.985 . S
N2183 C2185 1.356 . S
N2183 H2188 0.984 . S
N2183 H2189 0.985 . S
C2184 C2178 1.379 . S
C2184 C2181 1.363 . S
C2184 N2182 1.356 . S
C2185 C2179 1.363 . S
C2185 C2180 1.379 . S
C2185 N2183 1.356 . S
N2186 C2178 1.356 . S
N2186 H2192 0.984 . S
N2186 H2193 0.984 . S
N2187 C2180 1.356 . S
N2187 H2190 0.984 . S
N2187 H2191 0.985 . S
H2188 N2183 0.984 . S
H2189 N2183 0.985 . S
H2190 N2187 0.984 . S
H2191 N2187 0.985 . S
H2192 N2186 0.984 . S
H2193 N2186 0.984 . S
H2194 N2182 0.984 . S
H2195 N2182 0.985 . S
C2196 C2197 1.363 . S
C2196 C2202 1.379 . S
C2196 N2204 1.356 . S
C2197 C2196 1.363 . S
C2197 C2203 1.363 . S
C2198 C2199 1.363 1_565 S
C2198 C2203 1.379 1_565 S
C2198 N2205 1.356 . S
C2199 C2198 1.363 1_545 S
C2199 C2202 1.363 . S
N2200 C2202 1.356 . S
N2200 H2212 0.984 . S
N2200 H2213 0.985 . S
N2201 C2203 1.356 1_565 S
N2201 H2206 0.984 1_565 S
N2201 H2207 0.985 . S
C2202 C2196 1.379 . S
C2202 C2199 1.363 . S
C2202 N2200 1.356 . S
C2203 C2197 1.363 . S
C2203 C2198 1.379 1_545 S
C2203 N2201 1.356 1_545 S
N2204 C2196 1.356 . S
N2204 H2210 0.984 . S
N2204 H2211 0.984 . S
N2205 C2198 1.356 . S
N2205 H2208 0.984 . S
N2205 H2209 0.985 . S
H2206 N2201 0.984 1_545 S
H2207 N2201 0.985 . S
H2208 N2205 0.984 . S
H2209 N2205 0.985 . S
H2210 N2204 0.984 . S
H2211 N2204 0.984 . S
H2212 N2200 0.984 . S
H2213 N2200 0.985 . S
C2214 C2215 1.363 . S
C2214 C2220 1.379 . S
C2214 N2222 1.356 . S
C2215 C2214 1.363 . S
C2215 C2221 1.363 1_655 S
C2216 C2217 1.363 1_455 S
C2216 C2221 1.379 . S
C2216 N2223 1.356 . S
C2217 C2216 1.363 1_655 S
C2217 C2220 1.363 . S
N2218 C2220 1.356 . S
N2218 H2230 0.984 . S
N2218 H2231 0.985 . S
N2219 C2221 1.356 . S
N2219 H2224 0.984 . S
N2219 H2225 0.985 . S
C2220 C2214 1.379 . S
C2220 C2217 1.363 . S
C2220 N2218 1.356 . S
C2221 C2215 1.363 1_455 S
C2221 C2216 1.379 . S
C2221 N2219 1.356 . S
N2222 C2214 1.356 . S
N2222 H2228 0.984 . S
N2222 H2229 0.984 . S
N2223 C2216 1.356 . S
N2223 H2226 0.984 . S
N2223 H2227 0.985 . S
H2224 N2219 0.984 . S
H2225 N2219 0.985 . S
H2226 N2223 0.984 . S
H2227 N2223 0.985 . S
H2228 N2222 0.984 . S
H2229 N2222 0.984 . S
H2230 N2218 0.984 . S
H2231 N2218 0.985 . S
C2232 C2233 1.363 . S
C2232 C2238 1.379 . S
C2232 N2240 1.356 . S
C2233 C2232 1.363 . S
C2233 C2239 1.363 . S
C2234 C2235 1.363 . S
C2234 C2239 1.379 . S
C2234 N2241 1.356 . S
C2235 C2234 1.363 . S
C2235 C2238 1.363 . S
N2236 C2238 1.356 . S
N2236 H2248 0.984 . S
N2236 H2249 0.985 . S
N2237 C2239 1.356 . S
N2237 H2242 0.984 . S
N2237 H2243 0.985 . S
C2238 C2232 1.379 . S
C2238 C2235 1.363 . S
C2238 N2236 1.356 . S
C2239 C2233 1.363 . S
C2239 C2234 1.379 . S
C2239 N2237 1.356 . S
N2240 C2232 1.356 . S
N2240 H2246 0.984 . S
N2240 H2247 0.984 . S
N2241 C2234 1.356 . S
N2241 H2244 0.984 . S
N2241 H2245 0.985 . S
H2242 N2237 0.984 . S
H2243 N2237 0.985 . S
H2244 N2241 0.984 . S
H2245 N2241 0.985 . S
H2246 N2240 0.984 . S
H2247 N2240 0.984 . S
H2248 N2236 0.984 . S
H2249 N2236 0.985 . S
C2250 C2251 1.363 . S
C2250 C2256 1.379 . S
C2250 N2258 1.356 . S
C2251 C2250 1.363 . S
C2251 C2257 1.363 . S
C2252 C2253 1.363 . S
C2252 C2257 1.379 . S
C2252 N2259 1.356 . S
C2253 C2252 1.363 . S
C2253 C2256 1.363 . S
N2254 C2256 1.356 . S
N2254 H2266 0.984 . S
N2254 H2267 0.985 . S
N2255 C2257 1.356 . S
N2255 H2260 0.984 . S
N2255 H2261 0.985 . S
C2256 C2250 1.379 . S
C2256 C2253 1.363 . S
C2256 N2254 1.356 . S
C2257 C2251 1.363 . S
C2257 C2252 1.379 . S
C2257 N2255 1.356 . S
N2258 C2250 1.356 . S
N2258 H2264 0.984 . S
N2258 H2265 0.984 . S
N2259 C2252 1.356 . S
N2259 H2262 0.984 . S
N2259 H2263 0.985 . S
H2260 N2255 0.984 . S
H2261 N2255 0.985 . S
H2262 N2259 0.984 . S
H2263 N2259 0.985 . S
H2264 N2258 0.984 . S
H2265 N2258 0.984 . S
H2266 N2254 0.984 . S
H2267 N2254 0.985 . S
C2268 C2269 1.363 . S
C2268 C2274 1.379 . S
C2268 N2276 1.356 . S
C2269 C2268 1.363 . S
C2269 C2275 1.363 . S
C2270 C2271 1.363 . S
C2270 C2275 1.379 . S
C2270 N2277 1.356 . S
C2271 C2270 1.363 . S
C2271 C2274 1.363 . S
N2272 C2274 1.356 . S
N2272 H2284 0.984 . S
N2272 H2285 0.985 . S
N2273 C2275 1.356 . S
N2273 H2278 0.984 . S
N2273 H2279 0.985 . S
C2274 C2268 1.379 . S
C2274 C2271 1.363 . S
C2274 N2272 1.356 . S
C2275 C2269 1.363 . S
C2275 C2270 1.379 . S
C2275 N2273 1.356 . S
N2276 C2268 1.356 . S
N2276 H2282 0.984 . S
N2276 H2283 0.984 . S
N2277 C2270 1.356 . S
N2277 H2280 0.984 . S
N2277 H2281 0.985 . S
H2278 N2273 0.984 . S
H2279 N2273 0.985 . S
H2280 N2277 0.984 . S
H2281 N2277 0.985 . S
H2282 N2276 0.984 . S
H2283 N2276 0.984 . S
H2284 N2272 0.984 . S
H2285 N2272 0.985 . S
C2286 C2287 1.363 . S
C2286 C2292 1.379 . S
C2286 N2294 1.356 . S
C2287 C2286 1.363 . S
C2287 C2293 1.363 . S
C2288 C2289 1.363 . S
C2288 C2293 1.379 . S
C2288 N2295 1.356 . S
C2289 C2288 1.363 . S
C2289 C2292 1.363 . S
N2290 C2292 1.356 . S
N2290 H2302 0.984 . S
N2290 H2303 0.985 . S
N2291 C2293 1.356 . S
N2291 H2296 0.984 . S
N2291 H2297 0.985 . S
C2292 C2286 1.379 . S
C2292 C2289 1.363 . S
C2292 N2290 1.356 . S
C2293 C2287 1.363 . S
C2293 C2288 1.379 . S
C2293 N2291 1.356 . S
N2294 C2286 1.356 . S
N2294 H2300 0.984 . S
N2294 H2301 0.984 . S
N2295 C2288 1.356 . S
N2295 H2298 0.984 . S
N2295 H2299 0.985 . S
H2296 N2291 0.984 . S
H2297 N2291 0.985 . S
H2298 N2295 0.984 . S
H2299 N2295 0.985 . S
H2300 N2294 0.984 . S
H2301 N2294 0.984 . S
H2302 N2290 0.984 . S
H2303 N2290 0.985 . S
C2304 C2305 1.363 . S
C2304 C2310 1.379 . S
C2304 N2312 1.356 . S
C2305 C2304 1.363 . S
C2305 C2311 1.363 . S
C2306 C2307 1.363 . S
C2306 C2311 1.379 . S
C2306 N2313 1.356 . S
C2307 C2306 1.363 . S
C2307 C2310 1.363 . S
N2308 C2310 1.356 . S
N2308 H2320 0.984 . S
N2308 H2321 0.985 . S
N2309 C2311 1.356 . S
N2309 H2314 0.984 . S
N2309 H2315 0.985 . S
C2310 C2304 1.379 . S
C2310 C2307 1.363 . S
C2310 N2308 1.356 . S
C2311 C2305 1.363 . S
C2311 C2306 1.379 . S
C2311 N2309 1.356 . S
N2312 C2304 1.356 . S
N2312 H2318 0.984 . S
N2312 H2319 0.984 . S
N2313 C2306 1.356 . S
N2313 H2316 0.984 . S
N2313 H2317 0.985 . S
H2314 N2309 0.984 . S
H2315 N2309 0.985 . S
H2316 N2313 0.984 . S
H2317 N2313 0.985 . S
H2318 N2312 0.984 . S
H2319 N2312 0.984 . S
H2320 N2308 0.984 . S
H2321 N2308 0.985 . S
C2322 C2323 1.363 . S
C2322 C2328 1.379 . S
C2322 N2330 1.356 . S
C2323 C2322 1.363 . S
C2323 C2329 1.363 . S
C2324 C2325 1.363 . S
C2324 C2329 1.379 . S
C2324 N2331 1.356 . S
C2325 C2324 1.363 . S
C2325 C2328 1.363 . S
N2326 C2328 1.356 . S
N2326 H2338 0.984 . S
N2326 H2339 0.985 . S
N2327 C2329 1.356 . S
N2327 H2332 0.984 . S
N2327 H2333 0.985 . S
C2328 C2322 1.379 . S
C2328 C2325 1.363 . S
C2328 N2326 1.356 . S
C2329 C2323 1.363 . S
C2329 C2324 1.379 . S
C2329 N2327 1.356 . S
N2330 C2322 1.356 . S
N2330 H2336 0.984 . S
N2330 H2337 0.984 . S
N2331 C2324 1.356 . S
N2331 H2334 0.984 . S
N2331 H2335 0.985 . S
H2332 N2327 0.984 . S
H2333 N2327 0.985 . S
H2334 N2331 0.984 . S
H2335 N2331 0.985 . S
H2336 N2330 0.984 . S
H2337 N2330 0.984 . S
H2338 N2326 0.984 . S
H2339 N2326 0.985 . S
C2340 C2341 1.363 . S
C2340 C2346 1.379 . S
C2340 N2348 1.356 . S
C2341 C2340 1.363 . S
C2341 C2347 1.363 . S
C2342 C2343 1.363 . S
C2342 C2347 1.379 . S
C2342 N2349 1.356 . S
C2343 C2342 1.363 . S
C2343 C2346 1.363 . S
N2344 C2346 1.356 . S
N2344 H2356 0.984 . S
N2344 H2357 0.985 . S
N2345 C2347 1.356 . S
N2345 H2350 0.984 . S
N2345 H2351 0.985 . S
C2346 C2340 1.379 . S
C2346 C2343 1.363 . S
C2346 N2344 1.356 . S
C2347 C2341 1.363 . S
C2347 C2342 1.379 . S
C2347 N2345 1.356 . S
N2348 C2340 1.356 . S
N2348 H2354 0.984 . S
N2348 H2355 0.984 . S
N2349 C2342 1.356 . S
N2349 H2352 0.984 . S
N2349 H2353 0.985 . S
H2350 N2345 0.984 . S
H2351 N2345 0.985 . S
H2352 N2349 0.984 . S
H2353 N2349 0.985 . S
H2354 N2348 0.984 . S
H2355 N2348 0.984 . S
H2356 N2344 0.984 . S
H2357 N2344 0.985 . S
C2358 C2359 1.363 . S
C2358 C2364 1.379 . S
C2358 N2366 1.356 . S
C2359 C2358 1.363 . S
C2359 C2365 1.363 1_655 S
C2360 C2361 1.363 1_455 S
C2360 C2365 1.379 . S
C2360 N2367 1.356 . S
C2361 C2360 1.363 1_655 S
C2361 C2364 1.363 . S
N2362 C2364 1.356 . S
N2362 H2374 0.984 . S
N2362 H2375 0.985 . S
N2363 C2365 1.356 . S
N2363 H2368 0.984 . S
N2363 H2369 0.985 . S
C2364 C2358 1.379 . S
C2364 C2361 1.363 . S
C2364 N2362 1.356 . S
C2365 C2359 1.363 1_455 S
C2365 C2360 1.379 . S
C2365 N2363 1.356 . S
N2366 C2358 1.356 . S
N2366 H2372 0.984 . S
N2366 H2373 0.984 . S
N2367 C2360 1.356 . S
N2367 H2370 0.984 . S
N2367 H2371 0.985 . S
H2368 N2363 0.984 . S
H2369 N2363 0.985 . S
H2370 N2367 0.984 . S
H2371 N2367 0.985 . S
H2372 N2366 0.984 . S
H2373 N2366 0.984 . S
H2374 N2362 0.984 . S
H2375 N2362 0.985 . S
C2376 C2377 1.363 . S
C2376 C2382 1.379 . S
C2376 N2384 1.356 . S
C2377 C2376 1.363 . S
C2377 C2383 1.363 . S
C2378 C2379 1.363 . S
C2378 C2383 1.379 . S
C2378 N2385 1.356 . S
C2379 C2378 1.363 . S
C2379 C2382 1.363 . S
N2380 C2382 1.356 . S
N2380 H2392 0.984 . S
N2380 H2393 0.985 . S
N2381 C2383 1.356 . S
N2381 H2386 0.984 . S
N2381 H2387 0.985 . S
C2382 C2376 1.379 . S
C2382 C2379 1.363 . S
C2382 N2380 1.356 . S
C2383 C2377 1.363 . S
C2383 C2378 1.379 . S
C2383 N2381 1.356 . S
N2384 C2376 1.356 . S
N2384 H2390 0.984 . S
N2384 H2391 0.984 . S
N2385 C2378 1.356 . S
N2385 H2388 0.984 . S
N2385 H2389 0.985 . S
H2386 N2381 0.984 . S
H2387 N2381 0.985 . S
H2388 N2385 0.984 . S
H2389 N2385 0.985 . S
H2390 N2384 0.984 . S
H2391 N2384 0.984 . S
H2392 N2380 0.984 . S
H2393 N2380 0.985 . S
C2394 C2395 1.363 . S
C2394 C2400 1.379 . S
C2394 N2402 1.356 . S
C2395 C2394 1.363 . S
C2395 C2401 1.363 1_545 S
C2396 C2397 1.363 1_565 S
C2396 C2401 1.379 . S
C2396 N2403 1.356 . S
C2397 C2396 1.363 1_545 S
C2397 C2400 1.363 . S
N2398 C2400 1.356 . S
N2398 H2410 0.984 . S
N2398 H2411 0.985 . S
N2399 C2401 1.356 . S
N2399 H2404 0.984 . S
N2399 H2405 0.985 . S
C2400 C2394 1.379 . S
C2400 C2397 1.363 . S
C2400 N2398 1.356 . S
C2401 C2395 1.363 1_565 S
C2401 C2396 1.379 . S
C2401 N2399 1.356 . S
N2402 C2394 1.356 . S
N2402 H2408 0.984 . S
N2402 H2409 0.984 . S
N2403 C2396 1.356 . S
N2403 H2406 0.984 . S
N2403 H2407 0.985 . S
H2404 N2399 0.984 . S
H2405 N2399 0.985 . S
H2406 N2403 0.984 . S
H2407 N2403 0.985 . S
H2408 N2402 0.984 . S
H2409 N2402 0.984 . S
H2410 N2398 0.984 . S
H2411 N2398 0.985 . S
C1117 C4 1.494 . S
C1119 C729 1.526 . S
C1135 C26 1.564 . S
C1137 C777 1.566 . S
C1155 C825 1.486 . S
C1153 C32 1.452 . S
C1171 C40 1.456 . S
C1173 C849 1.489 . S
C1189 C12 1.500 . S
C1191 C921 1.516 . S
C1207 C18 1.505 . S
C1209 C969 1.547 . S
C1225 C46 1.490 . S
C1227 C897 1.529 . S
C1245 C945 1.563 . S
C1243 C68 1.564 . S
C1263 C873 1.497 . S
C1261 C74 1.454 . S
C1279 C82 1.451 . S
C1281 C801 1.482 . S
C1299 C705 1.531 . S
C1297 C54 1.511 . S
C1315 C60 1.506 . S
C1317 C753 1.548 . S
C1333 C88 1.608 . S
C1335 C1017 1.647 . S
C1351 C110 1.626 . S
C1353 C1065 1.617 . S
C1371 C1089 1.597 . S
C1369 C116 1.570 . S
C1387 C124 1.515 . S
C1389 C273 1.504 . S
C1405 C96 1.565 . S
C1407 C345 1.564 . S
C1423 C102 1.550 . S
C1425 C393 1.581 . S
C1441 C130 1.557 . S
C1443 C321 1.592 . S
C1459 C152 1.622 . S
C1461 C369 1.612 . S
C1479 C297 1.567 . S
C1477 C158 1.564 . S
C1497 C1113 1.529 . S
C1495 C166 1.561 . S
C1515 C993 1.555 . S
C1513 C138 1.559 . S
C1533 C1041 1.610 . S
C1531 C144 1.576 . S
C1549 C172 1.561 . S
C1551 C441 1.599 . S
C1567 C194 1.617 . S
C1569 C489 1.610 . S
C1585 C200 1.572 . S
C1587 C513 1.598 . S
C1603 C208 1.558 . S
C1605 C561 1.544 . S
C1623 C633 1.560 . S
C1621 C180 1.563 . S
C1641 C681 1.601 . S
C1639 C186 1.566 . S
C1659 C609 1.653 . S
C1657 C214 1.613 . S
C1677 C657 1.615 . S
C1675 C236 1.628 . S
C1693 C242 1.555 . S
C1695 C585 1.558 . S
C1713 C537 1.478 . S
C1711 C250 1.507 . S
C1729 C222 1.570 . S
C1731 C417 1.569 . S
C1749 C465 1.588 . S
C1747 C228 1.558 . S
C1767 C282 1.584 . S
C1765 C5 1.325 . S
C1783 C25 1.538 . S
C1785 C336 1.470 . S
C1803 C384 1.562 . S
C1801 C33 1.358 . S
C1821 C432 1.476 . S
C1819 C39 1.507 . S
C1839 C480 1.512 . S
C1837 C11 1.571 . S
C1857 C522 1.506 . S
C1855 C19 1.242 . S
C1873 C47 1.305 1_556 S
C1875 C528 1.584 . S
C1891 C67 1.538 . S
C1893 C426 1.452 . S
C1909 C75 1.362 1_556 S
C1911 C474 1.537 . S
C1927 C81 1.514 . S
C1929 C330 1.456 . S
C1947 C378 1.484 . S
C1945 C53 1.564 . S
C1963 C61 1.240 . S
C1965 C288 1.484 . S
C1983 C570 1.545 . S
C1981 C89 1.262 . S
C1999 C109 1.585 . S
C2001 C624 1.522 . S
C2017 C117 1.312 . S
C2019 C672 1.539 . S
C2037 C720 1.314 . S
C2035 C123 1.310 . S
C2053 C95 1.498 . S
C2055 C768 1.448 . S
C2071 C103 1.142 . S
C2073 C816 1.321 . S
C2089 C131 1.138 . S
C2091 C810 1.320 . S
C2107 C151 1.344 . S
C2109 C714 1.330 . S
C2127 C762 1.457 . S
C2125 C159 1.258 . S
C2143 C165 1.490 . S
C2145 C618 1.424 . S
C2161 C137 1.570 . S
C2163 C666 1.493 . S
C2181 C576 1.532 . S
C2179 C145 1.285 . S
C2199 C858 1.353 . S
C2197 C173 1.144 . S
C2215 C193 1.320 . S
C2217 C912 1.318 . S
C2233 C201 1.257 . S
C2235 C960 1.477 . S
C2253 C1008 1.436 . S
C2251 C207 1.484 . S
C2271 C1056 1.520 . S
C2269 C179 1.582 . S
C2287 C187 1.285 . S
C2289 C1098 1.550 . S
C2305 C215 1.276 . S
C2307 C1104 1.540 . S
C2323 C235 1.584 . S
C2325 C1002 1.504 . S
C2343 C1050 1.510 . S
C2341 C243 1.304 . S
C2361 C906 1.290 . S
C2359 C249 1.282 . S
C2379 C954 1.437 . S
C2377 C221 1.503 . S
C2395 C229 1.147 . S
C2397 C864 1.334 . S
