# Generated by pormake.
# Topology pto, (3,4)-cn, num edge types: 1
# Building blocks:
#     Node 0, Type 0, BuildingBlock: BETDAH_clean_linker_0, # of connection points: 3
#     Node 1, Type 0, BuildingBlock: BETDAH_clean_linker_0, # of connection points: 3
#     Node 2, Type 0, BuildingBlock: BETDAH_clean_linker_0, # of connection points: 3
#     Node 3, Type 0, BuildingBlock: BETDAH_clean_linker_0, # of connection points: 3
#     Node 4, Type 0, BuildingBlock: BETDAH_clean_linker_0, # of connection points: 3
#     Node 5, Type 0, BuildingBlock: BETDAH_clean_linker_0, # of connection points: 3
#     Node 6, Type 0, BuildingBlock: BETDAH_clean_linker_0, # of connection points: 3
#     Node 7, Type 0, BuildingBlock: BETDAH_clean_linker_0, # of connection points: 3
#     Node 8, Type 1, BuildingBlock: KOZSID_clean_sbu_0, # of connection points: 4
#     Node 9, Type 1, BuildingBlock: KOZSID_clean_sbu_0, # of connection points: 4
#     Node 10, Type 1, BuildingBlock: KOZSID_clean_sbu_0, # of connection points: 4
#     Node 11, Type 1, BuildingBlock: KOZSID_clean_sbu_0, # of connection points: 4
#     Node 12, Type 1, BuildingBlock: KOZSID_clean_sbu_0, # of connection points: 4
#     Node 13, Type 1, BuildingBlock: KOZSID_clean_sbu_0, # of connection points: 4
#     Edge 14, Type (0, 1), BuildingBlock: EZIPEK_clean_linker_0, # of connection points: 2
#     Edge 15, Type (0, 1), BuildingBlock: EZIPEK_clean_linker_0, # of connection points: 2
#     Edge 16, Type (0, 1), BuildingBlock: EZIPEK_clean_linker_0, # of connection points: 2
#     Edge 17, Type (0, 1), BuildingBlock: EZIPEK_clean_linker_0, # of connection points: 2
#     Edge 18, Type (0, 1), BuildingBlock: EZIPEK_clean_linker_0, # of connection points: 2
#     Edge 19, Type (0, 1), BuildingBlock: EZIPEK_clean_linker_0, # of connection points: 2
#     Edge 20, Type (0, 1), BuildingBlock: EZIPEK_clean_linker_0, # of connection points: 2
#     Edge 21, Type (0, 1), BuildingBlock: EZIPEK_clean_linker_0, # of connection points: 2
#     Edge 22, Type (0, 1), BuildingBlock: EZIPEK_clean_linker_0, # of connection points: 2
#     Edge 23, Type (0, 1), BuildingBlock: EZIPEK_clean_linker_0, # of connection points: 2
#     Edge 24, Type (0, 1), BuildingBlock: EZIPEK_clean_linker_0, # of connection points: 2
#     Edge 25, Type (0, 1), BuildingBlock: EZIPEK_clean_linker_0, # of connection points: 2
#     Edge 26, Type (0, 1), BuildingBlock: EZIPEK_clean_linker_0, # of connection points: 2
#     Edge 27, Type (0, 1), BuildingBlock: EZIPEK_clean_linker_0, # of connection points: 2
#     Edge 28, Type (0, 1), BuildingBlock: EZIPEK_clean_linker_0, # of connection points: 2
#     Edge 29, Type (0, 1), BuildingBlock: EZIPEK_clean_linker_0, # of connection points: 2
#     Edge 30, Type (0, 1), BuildingBlock: EZIPEK_clean_linker_0, # of connection points: 2
#     Edge 31, Type (0, 1), BuildingBlock: EZIPEK_clean_linker_0, # of connection points: 2
#     Edge 32, Type (0, 1), BuildingBlock: EZIPEK_clean_linker_0, # of connection points: 2
#     Edge 33, Type (0, 1), BuildingBlock: EZIPEK_clean_linker_0, # of connection points: 2
#     Edge 34, Type (0, 1), BuildingBlock: EZIPEK_clean_linker_0, # of connection points: 2
#     Edge 35, Type (0, 1), BuildingBlock: EZIPEK_clean_linker_0, # of connection points: 2
#     Edge 36, Type (0, 1), BuildingBlock: EZIPEK_clean_linker_0, # of connection points: 2
#     Edge 37, Type (0, 1), BuildingBlock: EZIPEK_clean_linker_0, # of connection points: 2
# Relax obj value: 0.011
# Max RMSD: 0.122
# Mean RMSD: 0.062
data_MOF--net-pto--node1-KOZSID_clean_sbu_0--node2-BETDAH_clean_linker_0--edge1-EZIPEK_clean_linker_0
_symmetry_space_group_name_H-M    P1
_symmetry_Int_Tables_number       1
_symmetry_cell_setting            triclinic
loop_
_symmetry_equiv_pos_as_xyz
'x, y, z'
_cell_length_a     28.988916
_cell_length_b     37.468476
_cell_length_c     33.684579
_cell_angle_alpha  102.17601
_cell_angle_beta   92.785208
_cell_angle_gamma 105.08514
loop_
_atom_site_label
_atom_site_type_symbol
_atom_site_fract_x
_atom_site_fract_y
_atom_site_fract_z
_atom_type_partial_charge
H0 H 0.35687 0.20494 0.37709 0.0
H1 H 0.27871 0.28549 0.36289 0.0
H2 H 0.24211 0.21691 0.45037 0.0
C3 C 0.32933 0.21887 0.38613 0.0
C4 C 0.30151 0.20863 0.41706 0.0
C5 C 0.32071 0.24622 0.36602 0.0
C6 C 0.28499 0.26426 0.37812 0.0
C7 C 0.25605 0.2532 0.40816 0.0
C8 C 0.26461 0.22552 0.42735 0.0
N9 N 0.21645 0.26753 0.41877 0.0
C10 C 0.20632 0.29894 0.40845 0.0
H11 H 0.30935 0.76209 0.85112 0.0
H12 H 0.34176 0.86273 0.80344 0.0
H13 H 0.21284 0.77207 0.75591 0.0
C14 C 0.30018 0.77802 0.82998 0.0
C15 C 0.2579 0.76264 0.8032 0.0
C16 C 0.33078 0.81373 0.82983 0.0
C17 C 0.31859 0.83478 0.80291 0.0
C18 C 0.27548 0.81975 0.7764 0.0
C19 C 0.24589 0.78362 0.77641 0.0
N20 N 0.25909 0.84039 0.7506 0.0
C21 C 0.28721 0.87142 0.73831 0.0
H22 H 0.88868 0.77784 0.46767 0.0
H23 H 0.80397 0.7934 0.36722 0.0
H24 H 0.84979 0.69169 0.35573 0.0
C25 C 0.87104 0.76775 0.43668 0.0
C26 C 0.87281 0.73246 0.41327 0.0
C27 C 0.84582 0.78974 0.42023 0.0
C28 C 0.82309 0.7764 0.37982 0.0
C29 C 0.82423 0.74071 0.35659 0.0
C30 C 0.84896 0.71916 0.37366 0.0
N31 N 0.80003 0.7244 0.31657 0.0
C32 C 0.77949 0.74246 0.29138 0.0
H33 H 0.84805 0.28993 0.83333 0.0
H34 H 0.78965 0.23573 0.92784 0.0
H35 H 0.84735 0.35712 0.95359 0.0
C36 C 0.83817 0.29188 0.86419 0.0
C37 C 0.84895 0.3275 0.89164 0.0
C38 C 0.81709 0.25861 0.87712 0.0
C39 C 0.80498 0.26129 0.9174 0.0
C40 C 0.81547 0.297 0.94484 0.0
C41 C 0.83796 0.32976 0.93197 0.0
N42 N 0.80851 0.30035 0.9866 0.0
C43 C 0.76384 0.28787 0.99993 0.0
H44 H 0.83937 0.75545 0.88238 0.0
H45 H 0.85006 0.73975 0.75355 0.0
H46 H 0.74689 0.79342 0.80651 0.0
C47 C 0.82813 0.75986 0.85305 0.0
C48 C 0.79041 0.77665 0.84935 0.0
C49 C 0.84741 0.74441 0.8183 0.0
C50 C 0.83479 0.75121 0.78045 0.0
C51 C 0.80101 0.77141 0.77687 0.0
C52 C 0.777 0.7821 0.81069 0.0
N53 N 0.78798 0.77708 0.73805 0.0
C54 C 0.79039 0.81285 0.73116 0.0
H55 H 0.80264 0.32194 0.38516 0.0
H56 H 0.86508 0.25804 0.45423 0.0
H57 H 0.73702 0.20271 0.37019 0.0
C58 C 0.80191 0.2954 0.39355 0.0
C59 C 0.76543 0.26266 0.3751 0.0
C60 C 0.83796 0.2941 0.42216 0.0
C61 C 0.8369 0.25931 0.43274 0.0
C62 C 0.80023 0.22609 0.41369 0.0
C63 C 0.76492 0.22823 0.3851 0.0
N64 N 0.7981 0.18943 0.42013 0.0
C65 C 0.82191 0.18039 0.45187 0.0
H66 H 0.34238 0.22514 0.85373 0.0
H67 H 0.2612 0.30538 0.89249 0.0
H68 H 0.23849 0.24033 0.76814 0.0
C69 C 0.31583 0.23933 0.84686 0.0
C70 C 0.29238 0.23018 0.80719 0.0
C71 C 0.30429 0.26606 0.87791 0.0
C72 C 0.27024 0.2848 0.86862 0.0
C73 C 0.24643 0.27534 0.8288 0.0
C74 C 0.25727 0.24781 0.79865 0.0
N75 N 0.2096 0.29121 0.81808 0.0
C76 C 0.20619 0.32722 0.83603 0.0
H77 H 0.24867 0.75319 0.3647 0.0
H78 H 0.37579 0.78897 0.30725 0.0
H79 H 0.32544 0.67257 0.31467 0.0
C80 C 0.27772 0.74607 0.34863 0.0
C81 C 0.28129 0.70845 0.34034 0.0
C82 C 0.31375 0.77537 0.3395 0.0
C83 C 0.34897 0.76635 0.31541 0.0
C84 C 0.35212 0.72883 0.30527 0.0
C85 C 0.32041 0.70079 0.32018 0.0
N86 N 0.38767 0.7187 0.28129 0.0
C87 C 0.41269 0.7411 0.25692 0.0
C88 C 0.13675 0.58524 0.43203 0.0
C89 C 0.17291 0.60716 0.46277 0.0
C90 C 0.15907 0.59835 0.49844 0.0
C91 C 0.1159 0.57113 0.48758 0.0
N92 N 0.10167 0.56154 0.44694 0.0
Co93 Co 0.04381 0.52009 0.41768 0.0
N94 N 0.02667 0.5039 0.46951 0.0
C95 C 0.05007 0.51984 0.50736 0.0
C96 C 0.03298 0.50032 0.5362 0.0
C97 C 0.99711 0.46958 0.51539 0.0
C98 C 0.99424 0.47229 0.47499 0.0
N99 N 0.98534 0.47915 0.38864 0.0
C100 C 0.9551 0.45131 0.40236 0.0
C101 C 0.91953 0.42807 0.3719 0.0
C102 C 0.92847 0.44096 0.33732 0.0
C103 C 0.96861 0.4713 0.34869 0.0
N104 N 0.06135 0.53533 0.36558 0.0
C105 C 0.03704 0.5196 0.32794 0.0
C106 C 0.05425 0.5385 0.29879 0.0
C107 C 0.09201 0.56791 0.3188 0.0
C108 C 0.09649 0.56486 0.35916 0.0
N109 N 0.08309 0.48334 0.40834 0.0
C110 C 0.13011 0.42571 0.40183 0.0
C111 C 0.09526 0.4244 0.37095 0.0
C112 C 0.07317 0.4539 0.37431 0.0
C113 C 0.14375 0.45773 0.43414 0.0
C114 C 0.1193 0.48549 0.43727 0.0
N115 N 0.00485 0.55735 0.4272 0.0
C116 C 0.95588 0.59166 0.39946 0.0
C117 C 0.96166 0.61751 0.43688 0.0
C118 C 0.98693 0.61173 0.47015 0.0
C119 C 0.00788 0.58147 0.46471 0.0
C120 C 0.97718 0.56186 0.39541 0.0
H121 H 0.02714 0.5787 0.49108 0.0
H122 H 0.97157 0.54348 0.36592 0.0
H123 H 0.047 0.45163 0.34979 0.0
H124 H 0.12938 0.50763 0.46422 0.0
C125 C 0.0909 0.55083 0.51396 0.0
C126 C 0.13574 0.58978 0.38978 0.0
C127 C 0.96131 0.44351 0.44258 0.0
C128 C 0.99461 0.49015 0.32185 0.0
H129 H 0.20584 0.62769 0.45994 0.0
H130 H 0.1788 0.60968 0.52855 0.0
H131 H 0.04642 0.50676 0.56819 0.0
H132 H 0.97617 0.4472 0.52821 0.0
H133 H 0.89133 0.40333 0.37405 0.0
H134 H 0.90942 0.42854 0.30706 0.0
H135 H 0.03987 0.53249 0.26708 0.0
H136 H 0.11347 0.58927 0.30502 0.0
H137 H 0.08422 0.40028 0.34498 0.0
H138 H 0.17113 0.46007 0.45838 0.0
H139 H 0.93573 0.59489 0.37313 0.0
H140 H 0.99143 0.63095 0.49989 0.0
C141 C 0.12889 0.61555 0.86146 0.0
C142 C 0.15511 0.64252 0.89526 0.0
C143 C 0.1357 0.6326 0.9288 0.0
C144 C 0.09889 0.6003 0.91362 0.0
N145 N 0.09418 0.58854 0.87242 0.0
Co146 Co 0.04331 0.54463 0.83748 0.0
N147 N 0.01368 0.53056 0.88665 0.0
C148 C 0.02883 0.54804 0.9263 0.0
C149 C 0.00364 0.53008 0.95329 0.0
C150 C 0.97115 0.49873 0.9295 0.0
C151 C 0.97839 0.49953 0.88925 0.0
N152 N 0.99134 0.50155 0.80245 0.0
C153 C 0.9567 0.47437 0.81321 0.0
C154 C 0.92805 0.44927 0.77937 0.0
C155 C 0.94581 0.4606 0.74587 0.0
C156 C 0.98404 0.49187 0.76117 0.0
N157 N 0.07397 0.55753 0.78828 0.0
C158 C 0.06011 0.53878 0.7488 0.0
C159 C 0.0878 0.55466 0.72177 0.0
C160 C 0.12106 0.58566 0.74532 0.0
C161 C 0.1116 0.58685 0.78549 0.0
N162 N 0.08415 0.50993 0.84066 0.0
C163 C 0.13489 0.45655 0.84759 0.0
C164 C 0.10911 0.45436 0.81068 0.0
C165 C 0.08445 0.48134 0.80778 0.0
C166 C 0.13689 0.48678 0.88041 0.0
C167 C 0.1112 0.51286 0.87639 0.0
N168 N 0.00263 0.57964 0.83458 0.0
C169 C 0.96087 0.61108 0.79511 0.0
C170 C 0.95208 0.63388 0.83071 0.0
C171 C 0.96758 0.62849 0.86823 0.0
C172 C 0.99274 0.60152 0.86947 0.0
C173 C 0.9857 0.58412 0.79771 0.0
H174 H 0.00418 0.59925 0.89907 0.0
H175 H 0.99119 0.56756 0.76945 0.0
H176 H 0.06499 0.478 0.77894 0.0
H177 H 0.11319 0.53475 0.90284 0.0
C178 C 0.06806 0.58041 0.93715 0.0
C179 C 0.13694 0.61786 0.81959 0.0
C180 C 0.95243 0.46927 0.85465 0.0
C181 C 0.01758 0.50929 0.73782 0.0
H182 H 0.18466 0.66719 0.89551 0.0
H183 H 0.14663 0.64748 0.96044 0.0
H184 H 0.00918 0.5382 0.98634 0.0
H185 H 0.94573 0.47723 0.94047 0.0
H186 H 0.89863 0.42448 0.77898 0.0
H187 H 0.93386 0.44652 0.71414 0.0
H188 H 0.08305 0.54576 0.68875 0.0
H189 H 0.14818 0.60582 0.73412 0.0
H190 H 0.10742 0.43154 0.78435 0.0
H191 H 0.15724 0.48968 0.90932 0.0
H192 H 0.94864 0.61411 0.76541 0.0
H193 H 0.96074 0.64535 0.89648 0.0
C194 C 0.36981 0.99145 0.61738 0.0
C195 C 0.41472 0.98931 0.63112 0.0
C196 C 0.44649 0.00536 0.60677 0.0
C197 C 0.41941 0.01662 0.57981 0.0
N198 N 0.37261 0.00906 0.58593 0.0
Co199 Co 0.32146 0.02149 0.5543 0.0
N200 N 0.36963 0.0577 0.53128 0.0
C201 C 0.41656 0.0595 0.53056 0.0
C202 C 0.4409 0.08697 0.51199 0.0
C203 C 0.40709 0.10332 0.49999 0.0
C204 C 0.36393 0.08483 0.51202 0.0
N205 N 0.27048 0.03364 0.52234 0.0
C206 C 0.27313 0.06296 0.5041 0.0
C207 C 0.22855 0.06069 0.48506 0.0
C208 C 0.19721 0.0284 0.49102 0.0
C209 C 0.22419 0.01293 0.51347 0.0
N210 N 0.27325 0.98528 0.57735 0.0
C211 C 0.22666 0.96982 0.56255 0.0
C212 C 0.20222 0.94479 0.58383 0.0
C213 C 0.23562 0.94408 0.61363 0.0
C214 C 0.27876 0.96886 0.60885 0.0
N215 N 0.32034 0.06256 0.60051 0.0
C216 C 0.3179 0.11876 0.66891 0.0
C217 C 0.27529 0.09462 0.64656 0.0
C218 C 0.27728 0.06666 0.61256 0.0
C219 C 0.36185 0.11469 0.65619 0.0
C220 C 0.36227 0.08655 0.62169 0.0
N221 N 0.32219 0.98016 0.50806 0.0
C222 C 0.32238 0.95565 0.43592 0.0
C223 C 0.32031 0.91976 0.44273 0.0
C224 C 0.31951 0.91471 0.4826 0.0
C225 C 0.3208 0.94522 0.51471 0.0
C226 C 0.32288 0.98546 0.46909 0.0
H227 H 0.32043 0.94042 0.54492 0.0
H228 H 0.32383 0.01272 0.46323 0.0
H229 H 0.24388 0.04808 0.59631 0.0
H230 H 0.39652 0.08394 0.61243 0.0
C231 C 0.43755 0.0391 0.55278 0.0
C232 C 0.3249 0.97265 0.63175 0.0
C233 C 0.31773 0.09149 0.50147 0.0
C234 C 0.20608 0.98293 0.5321 0.0
H235 H 0.42339 0.97666 0.65554 0.0
H236 H 0.48494 0.00927 0.60918 0.0
H237 H 0.47891 0.09494 0.50863 0.0
H238 H 0.41332 0.1259 0.48378 0.0
H239 H 0.21965 0.08009 0.4683 0.0
H240 H 0.15899 0.0182 0.48136 0.0
H241 H 0.16446 0.92939 0.57878 0.0
H242 H 0.22919 0.92663 0.63572 0.0
H243 H 0.24071 0.09711 0.65566 0.0
H244 H 0.39546 0.13304 0.67289 0.0
H245 H 0.32364 0.96054 0.40538 0.0
H246 H 0.31843 0.88733 0.48894 0.0
C247 C 0.5375 0.83239 0.12456 0.0
C248 C 0.54021 0.86625 0.15206 0.0
C249 C 0.57425 0.89379 0.14049 0.0
C250 C 0.59043 0.87518 0.10679 0.0
N251 N 0.56828 0.83749 0.09581 0.0
Co252 Co 0.58347 0.79897 0.05103 0.0
N253 N 0.63859 0.8382 0.03775 0.0
C254 C 0.65351 0.87566 0.05623 0.0
C255 C 0.69411 0.89502 0.04248 0.0
C256 C 0.7055 0.86852 0.01309 0.0
C257 C 0.6706 0.83442 0.0101 0.0
N258 N 0.59827 0.76027 0.00631 0.0
C259 C 0.6296 0.76498 0.97798 0.0
C260 C 0.62322 0.73147 0.94841 0.0
C261 C 0.58824 0.70443 0.95933 0.0
C262 C 0.57436 0.72289 0.99423 0.0
N263 N 0.52842 0.75962 0.06415 0.0
C264 C 0.51261 0.72234 0.04528 0.0
C265 C 0.4745 0.70234 0.06138 0.0
C266 C 0.46594 0.7282 0.09307 0.0
C267 C 0.49962 0.76255 0.09441 0.0
N268 N 0.53937 0.80976 0.01069 0.0
C269 C 0.47892 0.82456 0.95188 0.0
C270 C 0.47614 0.78745 0.95431 0.0
C271 C 0.50639 0.78073 0.98369 0.0
C272 C 0.5122 0.8543 0.97917 0.0
C273 C 0.5417 0.84631 0.0083 0.0
N274 N 0.6276 0.78866 0.0916 0.0
C275 C 0.65067 0.74564 0.12801 0.0
C276 C 0.68225 0.77614 0.15617 0.0
C277 C 0.68815 0.81258 0.1501 0.0
C278 C 0.66043 0.81819 0.11819 0.0
C279 C 0.62423 0.75247 0.09577 0.0
H280 H 0.66553 0.84686 0.11638 0.0
H281 H 0.60048 0.72826 0.07516 0.0
H282 H 0.50239 0.75177 0.98375 0.0
H283 H 0.56608 0.87021 0.02841 0.0
C284 C 0.62972 0.8914 0.08765 0.0
C285 C 0.50613 0.79588 0.12761 0.0
C286 C 0.66762 0.79983 0.97893 0.0
C287 C 0.53549 0.70671 0.01349 0.0
H288 H 0.52027 0.87039 0.1782 0.0
H289 H 0.58707 0.92356 0.15582 0.0
H290 H 0.71332 0.92483 0.05277 0.0
H291 H 0.73564 0.87391 0.99538 0.0
H292 H 0.64167 0.72686 0.92146 0.0
H293 H 0.57343 0.67511 0.94293 0.0
H294 H 0.45607 0.67231 0.05195 0.0
H295 H 0.43915 0.72219 0.11383 0.0
H296 H 0.45059 0.76366 0.93357 0.0
H297 H 0.51521 0.88352 0.97813 0.0
H298 H 0.64601 0.71679 0.13121 0.0
H299 H 0.71305 0.83683 0.17079 0.0
C300 C 0.85593 0.98211 0.68572 0.0
C301 C 0.89559 0.98152 0.71008 0.0
C302 C 0.93068 0.01427 0.71063 0.0
C303 C 0.91048 0.03294 0.68673 0.0
N304 N 0.86496 0.01394 0.67108 0.0
Co305 Co 0.82228 0.03125 0.636 0.0
N306 N 0.8778 0.06888 0.62202 0.0
C307 C 0.92244 0.08118 0.64201 0.0
C308 C 0.95324 0.10778 0.62613 0.0
C309 C 0.92619 0.113 0.59448 0.0
C310 C 0.88022 0.08931 0.59295 0.0
N311 N 0.7794 0.04921 0.60161 0.0
C312 C 0.79008 0.07184 0.57484 0.0
C313 C 0.74895 0.07859 0.55882 0.0
C314 C 0.71142 0.06002 0.57668 0.0
C315 C 0.73157 0.04299 0.60248 0.0
N316 N 0.76709 0.99352 0.64983 0.0
C317 C 0.72053 0.99292 0.64495 0.0
C318 C 0.69037 0.96242 0.65566 0.0
C319 C 0.71983 0.94271 0.66825 0.0
C320 C 0.76652 0.96256 0.66481 0.0
N321 N 0.8163 0.06956 0.68375 0.0
C322 C 0.81051 0.12526 0.75181 0.0
C323 C 0.80461 0.08768 0.75484 0.0
C324 C 0.80798 0.06029 0.72049 0.0
C325 C 0.81829 0.13425 0.71409 0.0
C326 C 0.82068 0.106 0.68052 0.0
N327 N 0.82792 0.99249 0.58858 0.0
C328 C 0.78966 0.9399 0.53199 0.0
C329 C 0.83264 0.92966 0.52816 0.0
C330 C 0.8739 0.9529 0.5535 0.0
C331 C 0.87091 0.98443 0.58313 0.0
C332 C 0.78794 0.97109 0.56261 0.0
H333 H 0.90305 1.00141 0.60267 0.0
H334 H 0.75376 0.97698 0.56615 0.0
H335 H 0.80419 0.03171 0.72377 0.0
H336 H 0.82631 0.11367 0.65197 0.0
C337 C 0.93517 0.06443 0.67272 0.0
C338 C 0.80963 0.953 0.67877 0.0
C339 C 0.8388 0.09047 0.56691 0.0
C340 C 0.70627 0.01734 0.62387 0.0
H341 H 0.89876 0.95973 0.72578 0.0
H342 H 0.96712 0.02267 0.72536 0.0
H343 H 0.99097 0.12146 0.63608 0.0
H344 H 0.93844 0.13284 0.57551 0.0
H345 H 0.74647 0.0958 0.53715 0.0
H346 H 0.67383 0.05855 0.57094 0.0
H347 H 0.65148 0.95452 0.65301 0.0
H348 H 0.70822 0.91685 0.67893 0.0
H349 H 0.79839 0.07979 0.78367 0.0
H350 H 0.82266 0.16301 0.71064 0.0
H351 H 0.75714 0.92285 0.51263 0.0
H352 H 0.90794 0.94615 0.55111 0.0
C353 C 0.44947 0.30268 0.21779 0.0
C354 C 0.44508 0.33686 0.24056 0.0
C355 C 0.47543 0.36496 0.22676 0.0
C356 C 0.49645 0.34639 0.19643 0.0
N357 N 0.48074 0.30807 0.18951 0.0
Co358 Co 0.50334 0.27001 0.14962 0.0
N359 N 0.55295 0.31124 0.13345 0.0
C360 C 0.5605 0.34918 0.14691 0.0
C361 C 0.59748 0.3704 0.13064 0.0
C362 C 0.61476 0.34449 0.1054 0.0
C363 C 0.58714 0.30883 0.10772 0.0
N364 N 0.52618 0.23184 0.11006 0.0
C365 C 0.56291 0.237 0.08658 0.0
C366 C 0.56686 0.20274 0.0636 0.0
C367 C 0.5315 0.17484 0.07305 0.0
C368 C 0.5081 0.19359 0.10112 0.0
N369 N 0.45386 0.22879 0.16595 0.0
C370 C 0.44372 0.19092 0.15019 0.0
C371 C 0.41002 0.16955 0.16923 0.0
C372 C 0.39838 0.1952 0.19936 0.0
C373 C 0.42563 0.23094 0.19683 0.0
N374 N 0.45621 0.27157 0.10515 0.0
C375 C 0.40054 0.27458 0.03558 0.0
C376 C 0.40313 0.23985 0.0428 0.0
C377 C 0.43054 0.23898 0.07771 0.0
C378 C 0.4236 0.30763 0.06478 0.0
C379 C 0.45094 0.30548 0.09912 0.0
N380 N 0.55061 0.26861 0.19338 0.0
C381 C 0.59077 0.23324 0.22852 0.0
C382 C 0.6196 0.26685 0.25382 0.0
C383 C 0.61322 0.30132 0.24895 0.0
C384 C 0.57874 0.30157 0.21867 0.0
C385 C 0.55653 0.23474 0.19872 0.0
H386 H 0.5756 0.32872 0.21607 0.0
H387 H 0.53541 0.20821 0.18019 0.0
H388 H 0.43109 0.21161 0.08125 0.0
H389 H 0.46818 0.33178 0.11973 0.0
C390 C 0.53354 0.36401 0.17608 0.0
C391 C 0.42493 0.26593 0.22548 0.0
C392 C 0.59536 0.27359 0.0854 0.0
C393 C 0.46998 0.17608 0.12048 0.0
H394 H 0.42313 0.341 0.26529 0.0
H395 H 0.48255 0.39531 0.23838 0.0
H396 H 0.61076 0.40105 0.13687 0.0
H397 H 0.64458 0.35108 0.08755 0.0
H398 H 0.59285 0.1984 0.04239 0.0
H399 H 0.52407 0.14448 0.06123 0.0
H400 H 0.397 0.13889 0.16307 0.0
H401 H 0.37362 0.18824 0.2214 0.0
H402 H 0.38487 0.21351 0.02111 0.0
H403 H 0.42163 0.33508 0.06052 0.0
H404 H 0.59482 0.20599 0.23166 0.0
H405 H 0.63508 0.32791 0.26821 0.0
C406 C 0.16697 0.34718 0.43979 0.0
C407 C 0.18846 0.33135 0.4061 0.0
C408 C 0.17593 0.37948 0.37073 0.0
C409 C 0.14973 0.39271 0.40255 0.0
N410 N 0.11124 0.38287 0.46312 0.0
N411 N 0.20555 0.3275 0.3363 0.0
C412 C 0.14272 0.37481 0.43593 0.0
C413 C 0.19063 0.346 0.37053 0.0
N414 N 0.1702 0.33627 0.47588 0.0
N415 N 0.18855 0.39969 0.3417 0.0
H416 H 0.21578 0.30264 0.33506 0.0
H417 H 0.20348 0.33479 0.30821 0.0
H418 H 0.17968 0.4249 0.34148 0.0
H419 H 0.21165 0.39344 0.3202 0.0
H420 H 0.15999 0.35009 0.5028 0.0
H421 H 0.18704 0.31567 0.48001 0.0
H422 H 0.10068 0.36742 0.48506 0.0
H423 H 0.09184 0.40238 0.46139 0.0
C424 C 0.24307 0.69211 0.79557 0.0
C425 C 0.22572 0.72479 0.80419 0.0
C426 C 0.14747 0.6851 0.81393 0.0
C427 C 0.1671 0.65398 0.81168 0.0
N428 N 0.23504 0.62825 0.80442 0.0
N429 N 0.16372 0.75336 0.8292 0.0
C430 C 0.21538 0.65755 0.80361 0.0
C431 C 0.1784 0.72157 0.81518 0.0
N432 N 0.28513 0.69376 0.77844 0.0
N433 N 0.09909 0.67977 0.81417 0.0
H434 H 0.18583 0.78087 0.83248 0.0
H435 H 0.13122 0.75247 0.84146 0.0
H436 H 0.0752 0.65356 0.81408 0.0
H437 H 0.08255 0.70049 0.81002 0.0
H438 H 0.29723 0.66996 0.76797 0.0
H439 H 0.30562 0.71827 0.77095 0.0
H440 H 0.27153 0.63071 0.8032 0.0
H441 H 0.21539 0.60224 0.8093 0.0
C442 C 0.87361 0.67814 0.44566 0.0
C443 C 0.89936 0.7084 0.42925 0.0
C444 C 0.97037 0.68421 0.42979 0.0
C445 C 0.94222 0.651 0.44007 0.0
N446 N 0.86752 0.61559 0.45817 0.0
N447 N 0.9719 0.74114 0.40557 0.0
C448 C 0.89411 0.648 0.44872 0.0
C449 C 0.94798 0.71203 0.42192 0.0
N450 N 0.82953 0.67842 0.45821 0.0
N451 N 0.01849 0.68897 0.4275 0.0
H452 H 0.95726 0.76283 0.40108 0.0
H453 H 0.00522 0.74303 0.39468 0.0
H454 H 0.03571 0.66881 0.43245 0.0
H455 H 0.04216 0.71395 0.42394 0.0
H456 H 0.81037 0.65914 0.47373 0.0
H457 H 0.81373 0.70008 0.45606 0.0
H458 H 0.83069 0.60943 0.46014 0.0
H459 H 0.88204 0.59371 0.46221 0.0
C460 C 0.84946 0.38952 0.874 0.0
C461 C 0.87447 0.36259 0.87915 0.0
C462 C 0.94821 0.40314 0.86202 0.0
C463 C 0.92471 0.43186 0.86157 0.0
N464 N 0.85434 0.45433 0.86988 0.0
N465 N 0.94911 0.34568 0.88366 0.0
C466 C 0.87561 0.42557 0.86824 0.0
C467 C 0.9242 0.36977 0.87438 0.0
N468 N 0.80056 0.38015 0.87352 0.0
N469 N 0.99329 0.40751 0.85003 0.0
H470 H 0.93305 0.32101 0.89312 0.0
H471 H 0.98639 0.35168 0.88528 0.0
H472 H 0.01291 0.43223 0.84248 0.0
H473 H 0.00958 0.3855 0.84431 0.0
H474 H 0.77955 0.3969 0.86585 0.0
H475 H 0.78035 0.35395 0.8775 0.0
H476 H 0.82038 0.45315 0.87921 0.0
H477 H 0.872 0.4806 0.86439 0.0
C478 C 0.29755 0.14049 0.41616 0.0
C479 C 0.30927 0.17902 0.43798 0.0
C480 C 0.32513 0.16014 0.50176 0.0
C481 C 0.31634 0.12203 0.4794 0.0
N482 N 0.30568 0.07752 0.41418 0.0
N483 N 0.34367 0.22668 0.49975 0.0
C484 C 0.30623 0.11273 0.43619 0.0
C485 C 0.32588 0.18921 0.48033 0.0
N486 N 0.27591 0.13 0.37689 0.0
N487 N 0.33158 0.1684 0.54352 0.0
H488 H 0.34545 0.24867 0.48482 0.0
H489 H 0.36064 0.23593 0.52951 0.0
H490 H 0.33214 0.14793 0.56015 0.0
H491 H 0.33286 0.19487 0.56174 0.0
H492 H 0.26168 0.10177 0.36115 0.0
H493 H 0.26812 0.14926 0.36116 0.0
H494 H 0.30362 0.07047 0.3824 0.0
H495 H 0.31175 0.05639 0.42773 0.0
C496 C 0.41766 0.81939 0.84812 0.0
C497 C 0.37478 0.82829 0.85942 0.0
C498 C 0.4043 0.84196 0.93192 0.0
C499 C 0.44643 0.83158 0.92069 0.0
N500 N 0.49935 0.82035 0.86946 0.0
N501 N 0.33231 0.85765 0.91023 0.0
C502 C 0.45517 0.8237 0.8791 0.0
C503 C 0.37006 0.84308 0.90084 0.0
N504 N 0.42132 0.80491 0.80798 0.0
N505 N 0.39566 0.84843 0.97198 0.0
H506 H 0.30673 0.85853 0.88781 0.0
H507 H 0.32873 0.87191 0.93947 0.0
H508 H 0.42012 0.84833 0.99567 0.0
H509 H 0.36312 0.85164 0.98166 0.0
H510 H 0.4489 0.79336 0.79806 0.0
H511 H 0.39527 0.8029 0.78451 0.0
H512 H 0.50957 0.81787 0.84003 0.0
H513 H 0.52739 0.82338 0.89165 0.0
C514 C 0.86874 0.8615 0.44148 0.0
C515 C 0.84091 0.82578 0.44643 0.0
C516 C 0.80855 0.85789 0.50545 0.0
C517 C 0.83407 0.89381 0.49901 0.0
N518 N 0.8806 0.92974 0.45587 0.0
N519 N 0.77724 0.78999 0.47767 0.0
C520 C 0.86198 0.89559 0.46555 0.0
C521 C 0.8087 0.82402 0.47682 0.0
N522 N 0.90267 0.86286 0.41463 0.0
N523 N 0.78567 0.85592 0.5398 0.0
H524 H 0.77636 0.76452 0.45739 0.0
H525 H 0.74919 0.78744 0.49599 0.0
H526 H 0.78398 0.87979 0.56142 0.0
H527 H 0.77172 0.83063 0.54873 0.0
H528 H 0.92782 0.88786 0.41288 0.0
H529 H 0.90818 0.83854 0.39619 0.0
H530 H 0.89705 0.93248 0.42946 0.0
H531 H 0.87566 0.95513 0.47231 0.0
C532 C 0.67732 0.28499 1.00076 0.0
C533 C 0.71953 0.27981 0.01892 0.0
C534 C 0.68064 0.27067 0.08043 0.0
C535 C 0.63795 0.27486 0.06193 0.0
N536 N 0.5921 0.27963 0.00264 0.0
N537 N 0.75933 0.26059 0.07182 0.0
C538 C 0.6352 0.28005 0.02142 0.0
C539 C 0.7205 0.27037 0.05748 0.0
N540 N 0.67801 0.29569 0.96435 0.0
N541 N 0.68352 0.26823 0.12038 0.0
H542 H 0.78918 0.26029 0.05578 0.0
H543 H 0.76043 0.24975 0.09776 0.0
H544 H 0.65474 0.26763 0.13791 0.0
H545 H 0.71523 0.26944 0.13714 0.0
H546 H 0.65043 0.30423 0.95164 0.0
H547 H 0.70763 0.29797 0.94766 0.0
H548 H 0.58629 0.27939 0.97184 0.0
H549 H 0.56085 0.27682 0.01723 0.0
C550 C 0.33018 0.89072 0.68178 0.0
C551 C 0.30841 0.90092 0.71745 0.0
C552 C 0.31199 0.96279 0.70247 0.0
C553 C 0.32557 0.94979 0.66329 0.0
N554 N 0.34529 0.90018 0.61433 0.0
N555 N 0.27906 0.94633 0.76336 0.0
C556 C 0.33479 0.91363 0.65276 0.0
C557 C 0.30005 0.93714 0.72861 0.0
N558 N 0.34629 0.85899 0.6757 0.0
N559 N 0.31062 0.99964 0.71447 0.0
H560 H 0.2721 0.92875 0.78391 0.0
H561 H 0.26677 0.97038 0.77101 0.0
H562 H 0.31935 0.01886 0.6958 0.0
H563 H 0.30484 0.01204 0.7438 0.0
H564 H 0.36667 0.85186 0.65222 0.0
H565 H 0.34329 0.84179 0.69667 0.0
H566 H 0.34614 0.87225 0.60327 0.0
H567 H 0.35035 0.91619 0.59239 0.0
C568 C 0.76927 0.74235 0.21788 0.0
C569 C 0.75741 0.75387 0.25812 0.0
C570 C 0.69724 0.78122 0.23204 0.0
C571 C 0.70954 0.77007 0.19174 0.0
N572 N 0.76383 0.74769 0.14734 0.0
N573 N 0.71441 0.7873 0.30497 0.0
C574 C 0.74744 0.75277 0.18497 0.0
C575 C 0.72271 0.7743 0.26564 0.0
N576 N 0.80042 0.72039 0.21091 0.0
N577 N 0.66022 0.79743 0.23801 0.0
H578 H 0.73032 0.78077 0.3299 0.0
H579 H 0.69386 0.80608 0.31344 0.0
H580 H 0.64283 0.80526 0.21489 0.0
H581 H 0.64505 0.8018 0.26535 0.0
H582 H 0.8059 0.70697 0.18189 0.0
H583 H 0.81875 0.71342 0.23428 0.0
H584 H 0.79468 0.73912 0.14138 0.0
H585 H 0.74901 0.75527 0.1226 0.0
C586 C 0.85405 0.20727 0.84555 0.0
C587 C 0.81278 0.22101 0.8493 0.0
C588 C 0.76797 0.16901 0.7923 0.0
C589 C 0.80959 0.15578 0.78792 0.0
N590 N 0.88962 0.15793 0.81348 0.0
N591 N 0.72851 0.21238 0.83187 0.0
C592 C 0.85177 0.1735 0.81571 0.0
C593 C 0.76901 0.20092 0.82444 0.0
N594 N 0.8959 0.2274 0.86974 0.0
N595 N 0.72796 0.15156 0.76489 0.0
H596 H 0.72849 0.2361 0.85456 0.0
H597 H 0.69429 0.19726 0.81765 0.0
H598 H 0.7251 0.12693 0.74248 0.0
H599 H 0.69824 0.16204 0.76303 0.0
H600 H 0.92902 0.22215 0.86542 0.0
H601 H 0.89813 0.25078 0.89363 0.0
H602 H 0.91944 0.16675 0.83525 0.0
H603 H 0.89019 0.13429 0.79094 0.0
C604 C 0.39797 0.26978 0.33621 0.0
C605 C 0.34727 0.25411 0.33054 0.0
C606 C 0.34734 0.25369 0.25759 0.0
C607 C 0.39825 0.26398 0.2623 0.0
N608 N 0.47268 0.27778 0.30522 0.0
N609 N 0.27454 0.22451 0.28412 0.0
C610 C 0.42383 0.27103 0.30143 0.0
C611 C 0.32204 0.24447 0.29078 0.0
N612 N 0.42122 0.28446 0.37481 0.0
N613 N 0.32316 0.25286 0.22141 0.0
H614 H 0.25488 0.21572 0.30712 0.0
H615 H 0.25583 0.21335 0.25505 0.0
H616 H 0.34064 0.25924 0.19636 0.0
H617 H 0.28624 0.2493 0.21755 0.0
H618 H 0.45742 0.29959 0.38083 0.0
H619 H 0.40329 0.2847 0.40094 0.0
H620 H 0.49271 0.27899 0.33224 0.0
H621 H 0.49292 0.27924 0.28054 0.0
C622 C 0.85034 0.67701 0.81054 0.0
C623 C 0.875 0.71644 0.82085 0.0
C624 C 0.95046 0.70192 0.83759 0.0
C625 C 0.92542 0.66259 0.82858 0.0
N626 N 0.85072 0.61298 0.81374 0.0
N627 N 0.94646 0.76726 0.84826 0.0
C628 C 0.87513 0.6502 0.81689 0.0
C629 C 0.92454 0.72914 0.83556 0.0
N630 N 0.80316 0.66517 0.79439 0.0
N631 N 0.99921 0.71307 0.84721 0.0
H632 H 0.92905 0.78787 0.84545 0.0
H633 H 0.98092 0.77871 0.8636 0.0
H634 H 0.01889 0.69422 0.85121 0.0
H635 H 0.02071 0.74052 0.84934 0.0
H636 H 0.78489 0.63693 0.78134 0.0
H637 H 0.78261 0.68376 0.79161 0.0
H638 H 0.81343 0.60274 0.8099 0.0
H639 H 0.86758 0.59254 0.81841 0.0
C640 C 0.86473 0.36076 0.46437 0.0
C641 C 0.87689 0.32995 0.43899 0.0
C642 C 0.95304 0.37351 0.43016 0.0
C643 C 0.93632 0.40482 0.4485 0.0
N644 N 0.87574 0.4289 0.48257 0.0
N645 N 0.93246 0.30656 0.39678 0.0
C646 C 0.8924 0.39867 0.46624 0.0
C647 C 0.92157 0.33605 0.42233 0.0
N648 N 0.82617 0.35351 0.48612 0.0
N649 N 0.99886 0.3799 0.41966 0.0
H650 H 0.91085 0.27863 0.39093 0.0
H651 H 0.96149 0.30999 0.37956 0.0
H652 H 0.02229 0.40717 0.42516 0.0
H653 H 0.01499 0.35839 0.40926 0.0
H654 H 0.81743 0.37428 0.5078 0.0
H655 H 0.80559 0.32588 0.48512 0.0
H656 H 0.84142 0.42615 0.49166 0.0
H657 H 0.89537 0.457 0.48485 0.0
C658 C 0.16148 0.36893 0.87352 0.0
C659 C 0.19654 0.36397 0.84674 0.0
C660 C 0.20032 0.42525 0.83029 0.0
C661 C 0.15953 0.42701 0.85145 0.0
N662 N 0.1003 0.40067 0.8932 0.0
N663 N 0.25078 0.38667 0.79991 0.0
C664 C 0.14028 0.39922 0.8737 0.0
C665 C 0.21689 0.3922 0.82561 0.0
N666 N 0.14859 0.3446 0.89869 0.0
N667 N 0.22352 0.4555 0.8153 0.0
H668 H 0.26546 0.36374 0.7975 0.0
H669 H 0.26281 0.40368 0.77968 0.0
H670 H 0.21241 0.48022 0.81864 0.0
H671 H 0.25599 0.45762 0.80281 0.0
H672 H 0.12643 0.34846 0.92169 0.0
H673 H 0.16375 0.32222 0.89893 0.0
H674 H 0.08116 0.37894 0.90577 0.0
H675 H 0.08422 0.4227 0.8948 0.0
C676 C 0.22864 0.64001 0.32867 0.0
C677 C 0.24498 0.6776 0.35367 0.0
C678 C 0.18364 0.65883 0.39849 0.0
C679 C 0.17424 0.62011 0.37791 0.0
N680 N 0.20104 0.57377 0.33014 0.0
N681 N 0.24803 0.71617 0.42203 0.0
C682 C 0.2014 0.61059 0.3454 0.0
C683 C 0.22544 0.68529 0.39154 0.0
N684 N 0.23548 0.63248 0.2883 0.0
N685 N 0.15296 0.67067 0.42429 0.0
H686 H 0.28204 0.73366 0.42046 0.0
H687 H 0.23571 0.72102 0.45074 0.0
H688 H 0.12068 0.65244 0.42872 0.0
H689 H 0.15769 0.69932 0.43777 0.0
H690 H 0.22116 0.6056 0.269 0.0
H691 H 0.24932 0.65379 0.2731 0.0
H692 H 0.22286 0.56632 0.3079 0.0
H693 H 0.18275 0.55156 0.34261 0.0
C694 C 0.77691 0.8771 0.74083 0.0
C695 C 0.79617 0.8487 0.71888 0.0
C696 C 0.82326 0.88809 0.67011 0.0
C697 C 0.80568 0.91714 0.69308 0.0
N698 N 0.77722 0.94336 0.75573 0.0
N699 N 0.84464 0.82908 0.6669 0.0
C700 C 0.78588 0.91285 0.73011 0.0
C701 C 0.8215 0.8548 0.68478 0.0
N702 N 0.74905 0.86967 0.77128 0.0
N703 N 0.84086 0.8921 0.63389 0.0
H704 H 0.84334 0.80403 0.67625 0.0
H705 H 0.86804 0.83365 0.64486 0.0
H706 H 0.8435 0.91635 0.62264 0.0
H707 H 0.84995 0.87061 0.61355 0.0
H708 H 0.72974 0.88769 0.78546 0.0
H709 H 0.74204 0.84392 0.78007 0.0
H710 H 0.76757 0.94313 0.78507 0.0
H711 H 0.78394 0.97011 0.74916 0.0
C712 C 0.73733 0.25994 0.3026 0.0
C713 C 0.72822 0.26417 0.34411 0.0
C714 C 0.64683 0.26779 0.32603 0.0
C715 C 0.65704 0.266 0.285 0.0
N716 N 0.71341 0.26572 0.23471 0.0
N717 N 0.67774 0.27736 0.39691 0.0
C718 C 0.70274 0.26356 0.2734 0.0
C719 C 0.68389 0.2696 0.3563 0.0
N720 N 0.7786 0.25156 0.29102 0.0
N721 N 0.60131 0.2667 0.33576 0.0
H722 H 0.70375 0.27813 0.41984 0.0
H723 H 0.64849 0.28575 0.40823 0.0
H724 H 0.57352 0.26599 0.31448 0.0
H725 H 0.58998 0.26374 0.36403 0.0
H726 H 0.78502 0.24384 0.2607 0.0
H727 H 0.80537 0.24971 0.31171 0.0
H728 H 0.74766 0.26839 0.22551 0.0
H729 H 0.68866 0.26765 0.21229 0.0
C730 C 0.32728 0.21416 0.7413 0.0
C731 C 0.30388 0.20183 0.77403 0.0
C732 C 0.29893 0.13586 0.7412 0.0
C733 C 0.31601 0.14775 0.70599 0.0
N734 N 0.34083 0.1978 0.67017 0.0
N735 N 0.26177 0.15061 0.80316 0.0
C736 C 0.32901 0.18686 0.70544 0.0
C737 C 0.28842 0.16257 0.77364 0.0
N738 N 0.34861 0.25197 0.74485 0.0
N739 N 0.29366 0.09916 0.74394 0.0
H740 H 0.25314 0.16922 0.82743 0.0
H741 H 0.24489 0.12215 0.80183 0.0
H742 H 0.30128 0.07891 0.7208 0.0
H743 H 0.28612 0.08974 0.77049 0.0
H744 H 0.37031 0.26237 0.72376 0.0
H745 H 0.3484 0.27272 0.77088 0.0
H746 H 0.34533 0.22543 0.66668 0.0
H747 H 0.34225 0.17868 0.64314 0.0
C748 C 0.48766 0.76278 0.22648 0.0
C749 C 0.43886 0.76177 0.22929 0.0
C750 C 0.43968 0.79437 0.17319 0.0
C751 C 0.48615 0.79024 0.16663 0.0
N752 N 0.55322 0.76779 0.18448 0.0
N753 N 0.36706 0.77563 0.20582 0.0
C754 C 0.51012 0.7742 0.19297 0.0
C755 C 0.41458 0.77779 0.20314 0.0
N756 N 0.51267 0.75305 0.25603 0.0
N757 N 0.41946 0.81356 0.15024 0.0
H758 H 0.34807 0.76446 0.228 0.0
H759 H 0.34564 0.78297 0.18498 0.0
H760 H 0.43662 0.825 0.1274 0.0
H761 H 0.38756 0.82064 0.15564 0.0
H762 H 0.54966 0.75682 0.25782 0.0
H763 H 0.49709 0.74434 0.28094 0.0
H764 H 0.56853 0.7505 0.19816 0.0
H765 H 0.57239 0.77806 0.16195 0.0
C766 C 0.83867 0.12266 0.46693 0.0
C767 C 0.8371 0.16081 0.48101 0.0
C768 C 0.84577 0.15528 0.55202 0.0
C769 C 0.84501 0.11649 0.53795 0.0
N770 N 0.85189 0.0657 0.48361 0.0
N771 N 0.84946 0.21619 0.53569 0.0
C772 C 0.84518 0.10103 0.4958 0.0
C773 C 0.84411 0.17803 0.52325 0.0
N774 N 0.83201 0.10673 0.42588 0.0
N775 N 0.84633 0.16993 0.5928 0.0
H776 H 0.84786 0.23323 0.51512 0.0
H777 H 0.8591 0.2316 0.5658 0.0
H778 H 0.85136 0.15521 0.61482 0.0
H779 H 0.84045 0.19609 0.60494 0.0
H780 H 0.82676 0.07791 0.41341 0.0
H781 H 0.82979 0.12228 0.4039 0.0
H782 H 0.85676 0.05379 0.45385 0.0
H783 H 0.85641 0.04923 0.50414 0.0
C784 C 0.30084 0.25754 0.9501 0.0
C785 C 0.32735 0.273 0.92034 0.0
C786 C 0.40191 0.28983 0.96624 0.0
C787 C 0.37507 0.27621 0.99681 0.0
N788 N 0.29829 0.25488 0.02132 0.0
N789 N 0.40077 0.31124 0.90318 0.0
C790 C 0.32424 0.26252 0.98981 0.0
C791 C 0.3772 0.29156 0.92949 0.0
N792 N 0.25397 0.23647 0.93989 0.0
N793 N 0.45103 0.29931 0.97139 0.0
H794 H 0.38358 0.31318 0.87608 0.0
H795 H 0.43599 0.32852 0.90999 0.0
H796 H 0.47064 0.2981 0.99762 0.0
H797 H 0.47232 0.30528 0.94829 0.0
H798 H 0.23457 0.22083 0.95876 0.0
H799 H 0.23541 0.23209 0.9112 0.0
H800 H 0.26096 0.24854 0.01921 0.0
H801 H 0.31432 0.2583 0.05081 0.0
C802 C 0.28175 0.83271 0.35358 0.0
C803 C 0.3186 0.81547 0.36056 0.0
C804 C 0.36276 0.87336 0.41055 0.0
C805 C 0.32207 0.88742 0.40932 0.0
N806 N 0.24084 0.87967 0.38147 0.0
N807 N 0.39054 0.81727 0.40177 0.0
C808 C 0.28112 0.86716 0.38092 0.0
C809 C 0.35854 0.83536 0.39031 0.0
N810 N 0.24769 0.81627 0.32078 0.0
N811 N 0.40529 0.89629 0.4316 0.0
H812 H 0.38765 0.78867 0.38991 0.0
H813 H 0.41717 0.82962 0.42635 0.0
H814 H 0.40947 0.92452 0.44659 0.0
H815 H 0.43733 0.88857 0.43045 0.0
H816 H 0.22241 0.82922 0.31199 0.0
H817 H 0.24764 0.7912 0.30013 0.0
H818 H 0.20813 0.86378 0.36471 0.0
H819 H 0.23918 0.90489 0.4008 0.0
C820 C 0.75033 0.75968 0.9111 0.0
C821 C 0.76241 0.7853 0.88494 0.0
C822 C 0.71034 0.82105 0.91982 0.0
C823 C 0.70467 0.7986 0.9493 0.0
N824 N 0.73446 0.75492 0.97972 0.0
N825 N 0.76549 0.84833 0.87573 0.0
C826 C 0.73068 0.77127 0.9476 0.0
C827 C 0.74606 0.81858 0.89272 0.0
N828 N 0.75262 0.72304 0.89965 0.0
N829 N 0.68082 0.84352 0.91636 0.0
H830 H 0.79473 0.84911 0.85874 0.0
H831 H 0.75633 0.87391 0.88287 0.0
H832 H 0.65279 0.84485 0.93438 0.0
H833 H 0.68161 0.85788 0.89292 0.0
H834 H 0.74091 0.70326 0.91723 0.0
H835 H 0.75932 0.71102 0.87044 0.0
H836 H 0.75534 0.73609 0.98003 0.0
H837 H 0.72071 0.76318 0.00719 0.0
loop_
_geom_bond_atom_site_label_1
_geom_bond_atom_site_label_2
_geom_bond_distance
_geom_bond_site_symmetry_2
_ccdc_geom_bond_type
H0 C3 0.929 . S
H1 C6 0.929 . S
H2 C8 0.930 . S
C3 H0 0.929 . S
C3 C4 1.398 . S
C3 C5 1.396 . S
C4 C3 1.398 . S
C4 C8 1.407 . S
C5 C3 1.396 . S
C5 C6 1.394 . S
C6 H1 0.929 . S
C6 C5 1.394 . S
C6 C7 1.382 . S
C7 C6 1.382 . S
C7 C8 1.392 . S
C7 N9 1.420 . S
C8 H2 0.930 . S
C8 C4 1.407 . S
C8 C7 1.392 . S
N9 C7 1.420 . S
N9 C10 1.244 . S
C10 N9 1.244 . S
H11 C14 0.929 . S
H12 C17 0.929 . S
H13 C19 0.930 . S
C14 H11 0.929 . S
C14 C15 1.398 . S
C14 C16 1.396 . S
C15 C14 1.398 . S
C15 C19 1.407 . S
C16 C14 1.396 . S
C16 C17 1.394 . S
C17 H12 0.929 . S
C17 C16 1.394 . S
C17 C18 1.382 . S
C18 C17 1.382 . S
C18 C19 1.392 . S
C18 N20 1.420 . S
C19 H13 0.930 . S
C19 C15 1.407 . S
C19 C18 1.392 . S
N20 C18 1.420 . S
N20 C21 1.244 . S
C21 N20 1.244 . S
H22 C25 0.929 . S
H23 C28 0.929 . S
H24 C30 0.930 . S
C25 H22 0.929 . S
C25 C26 1.398 . S
C25 C27 1.396 . S
C26 C25 1.398 . S
C26 C30 1.407 . S
C27 C25 1.396 . S
C27 C28 1.394 . S
C28 H23 0.929 . S
C28 C27 1.394 . S
C28 C29 1.382 . S
C29 C28 1.382 . S
C29 C30 1.392 . S
C29 N31 1.420 . S
C30 H24 0.930 . S
C30 C26 1.407 . S
C30 C29 1.392 . S
N31 C29 1.420 . S
N31 C32 1.244 . S
C32 N31 1.244 . S
H33 C36 0.929 . S
H34 C39 0.929 . S
H35 C41 0.930 . S
C36 H33 0.929 . S
C36 C37 1.398 . S
C36 C38 1.396 . S
C37 C36 1.398 . S
C37 C41 1.407 . S
C38 C36 1.396 . S
C38 C39 1.394 . S
C39 H34 0.929 . S
C39 C38 1.394 . S
C39 C40 1.382 . S
C40 C39 1.382 . S
C40 C41 1.392 . S
C40 N42 1.420 . S
C41 H35 0.930 . S
C41 C37 1.407 . S
C41 C40 1.392 . S
N42 C40 1.420 . S
N42 C43 1.244 . S
C43 N42 1.244 . S
H44 C47 0.929 . S
H45 C50 0.929 . S
H46 C52 0.930 . S
C47 H44 0.929 . S
C47 C48 1.398 . S
C47 C49 1.396 . S
C48 C47 1.398 . S
C48 C52 1.407 . S
C49 C47 1.396 . S
C49 C50 1.394 . S
C50 H45 0.929 . S
C50 C49 1.394 . S
C50 C51 1.382 . S
C51 C50 1.382 . S
C51 C52 1.392 . S
C51 N53 1.420 . S
C52 H46 0.930 . S
C52 C48 1.407 . S
C52 C51 1.392 . S
N53 C51 1.420 . S
N53 C54 1.244 . S
C54 N53 1.244 . S
H55 C58 0.929 . S
H56 C61 0.929 . S
H57 C63 0.930 . S
C58 H55 0.929 . S
C58 C59 1.398 . S
C58 C60 1.396 . S
C59 C58 1.398 . S
C59 C63 1.407 . S
C60 C58 1.396 . S
C60 C61 1.394 . S
C61 H56 0.929 . S
C61 C60 1.394 . S
C61 C62 1.382 . S
C62 C61 1.382 . S
C62 C63 1.392 . S
C62 N64 1.420 . S
C63 H57 0.930 . S
C63 C59 1.407 . S
C63 C62 1.392 . S
N64 C62 1.420 . S
N64 C65 1.244 . S
C65 N64 1.244 . S
H66 C69 0.929 . S
H67 C72 0.929 . S
H68 C74 0.930 . S
C69 H66 0.929 . S
C69 C70 1.398 . S
C69 C71 1.396 . S
C70 C69 1.398 . S
C70 C74 1.407 . S
C71 C69 1.396 . S
C71 C72 1.394 . S
C72 H67 0.929 . S
C72 C71 1.394 . S
C72 C73 1.382 . S
C73 C72 1.382 . S
C73 C74 1.392 . S
C73 N75 1.420 . S
C74 H68 0.930 . S
C74 C70 1.407 . S
C74 C73 1.392 . S
N75 C73 1.420 . S
N75 C76 1.244 . S
C76 N75 1.244 . S
H77 C80 0.929 . S
H78 C83 0.929 . S
H79 C85 0.930 . S
C80 H77 0.929 . S
C80 C81 1.398 . S
C80 C82 1.396 . S
C81 C80 1.398 . S
C81 C85 1.407 . S
C82 C80 1.396 . S
C82 C83 1.394 . S
C83 H78 0.929 . S
C83 C82 1.394 . S
C83 C84 1.382 . S
C84 C83 1.382 . S
C84 C85 1.392 . S
C84 N86 1.420 . S
C85 H79 0.930 . S
C85 C81 1.407 . S
C85 C84 1.392 . S
N86 C84 1.420 . S
N86 C87 1.244 . S
C87 N86 1.244 . S
C88 C89 1.443 . S
C88 N92 1.376 . S
C88 C126 1.389 . S
C89 C88 1.443 . S
C89 C90 1.340 . S
C89 H129 0.951 . S
C90 C89 1.340 . S
C90 C91 1.439 . S
C90 H130 0.950 . S
C91 C90 1.439 . S
C91 N92 1.374 . S
C91 C125 1.395 . S
N92 C88 1.376 . S
N92 C91 1.374 . S
N92 Co93 2.008 . S
Co93 N92 2.008 . S
Co93 N94 1.995 . S
Co93 N99 2.008 . S
Co93 N104 1.995 . S
Co93 N109 2.282 . S
Co93 N115 2.282 . S
N94 Co93 1.995 . S
N94 C95 1.376 . S
N94 C98 1.383 . S
C95 N94 1.376 . S
C95 C96 1.446 . S
C95 C125 1.391 . S
C96 C95 1.446 . S
C96 C97 1.339 . S
C96 H131 0.949 . S
C97 C96 1.339 . S
C97 C98 1.439 . S
C97 H132 0.950 1_455 S
C98 N94 1.383 . S
C98 C97 1.439 . S
C98 C127 1.392 1_455 S
N99 Co93 2.008 . S
N99 C100 1.376 1_455 S
N99 C103 1.374 . S
C100 N99 1.376 1_655 S
C100 C101 1.443 . S
C100 C127 1.389 . S
C101 C100 1.443 . S
C101 C102 1.340 . S
C101 H133 0.951 . S
C102 C101 1.340 . S
C102 C103 1.439 1_655 S
C102 H134 0.950 . S
C103 N99 1.374 . S
C103 C102 1.439 1_455 S
C103 C128 1.395 . S
N104 Co93 1.995 . S
N104 C105 1.376 . S
N104 C108 1.383 . S
C105 N104 1.376 . S
C105 C106 1.446 . S
C105 C128 1.391 . S
C106 C105 1.446 . S
C106 C107 1.339 . S
C106 H135 0.949 . S
C107 C106 1.339 . S
C107 C108 1.439 . S
C107 H136 0.950 . S
C108 N104 1.383 . S
C108 C107 1.439 . S
C108 C126 1.392 . S
N109 Co93 2.282 . S
N109 C112 1.332 . S
N109 C114 1.332 . S
C110 C111 1.386 . S
C110 C113 1.388 . S
C111 C110 1.386 . S
C111 C112 1.382 . S
C111 H137 0.950 . S
C112 N109 1.332 . S
C112 C111 1.382 . S
C112 H123 0.952 . S
C113 C110 1.388 . S
C113 C114 1.382 . S
C113 H138 0.950 . S
C114 N109 1.332 . S
C114 C113 1.382 . S
C114 H124 0.948 . S
N115 Co93 2.282 . S
N115 C119 1.332 . S
N115 C120 1.332 . S
C116 C117 1.388 . S
C116 C120 1.382 1_655 S
C116 H139 0.950 . S
C117 C116 1.388 . S
C117 C118 1.386 . S
C118 C117 1.386 . S
C118 C119 1.382 1_655 S
C118 H140 0.950 . S
C119 N115 1.332 . S
C119 C118 1.382 1_455 S
C119 H121 0.952 . S
C120 N115 1.332 . S
C120 C116 1.382 1_455 S
C120 H122 0.948 . S
H121 C119 0.952 . S
H122 C120 0.948 . S
H123 C112 0.952 . S
H124 C114 0.948 . S
C125 C91 1.395 . S
C125 C95 1.391 . S
C126 C88 1.389 . S
C126 C108 1.392 . S
C127 C98 1.392 1_655 S
C127 C100 1.389 . S
C128 C103 1.395 . S
C128 C105 1.391 . S
H129 C89 0.951 . S
H130 C90 0.950 . S
H131 C96 0.949 . S
H132 C97 0.950 1_655 S
H133 C101 0.951 . S
H134 C102 0.950 . S
H135 C106 0.949 . S
H136 C107 0.950 . S
H137 C111 0.950 . S
H138 C113 0.950 . S
H139 C116 0.950 . S
H140 C118 0.950 . S
C141 C142 1.443 . S
C141 N145 1.376 . S
C141 C179 1.389 . S
C142 C141 1.443 . S
C142 C143 1.340 . S
C142 H182 0.951 . S
C143 C142 1.340 . S
C143 C144 1.439 . S
C143 H183 0.950 . S
C144 C143 1.439 . S
C144 N145 1.374 . S
C144 C178 1.395 . S
N145 C141 1.376 . S
N145 C144 1.374 . S
N145 Co146 2.008 . S
Co146 N145 2.008 . S
Co146 N147 1.995 1_455 S
Co146 N152 2.008 1_455 S
Co146 N157 1.995 . S
Co146 N162 2.282 . S
Co146 N168 2.282 1_455 S
N147 Co146 1.995 1_655 S
N147 C148 1.376 1_655 S
N147 C151 1.383 . S
C148 N147 1.376 1_455 S
C148 C149 1.446 1_455 S
C148 C178 1.391 . S
C149 C148 1.446 1_655 S
C149 C150 1.339 . S
C149 H184 0.949 . S
C150 C149 1.339 . S
C150 C151 1.439 . S
C150 H185 0.950 . S
C151 N147 1.383 . S
C151 C150 1.439 . S
C151 C180 1.392 . S
N152 Co146 2.008 1_655 S
N152 C153 1.376 . S
N152 C156 1.374 . S
C153 N152 1.376 . S
C153 C154 1.443 . S
C153 C180 1.389 . S
C154 C153 1.443 . S
C154 C155 1.340 . S
C154 H186 0.951 . S
C155 C154 1.340 . S
C155 C156 1.439 . S
C155 H187 0.950 . S
C156 N152 1.374 . S
C156 C155 1.439 . S
C156 C181 1.395 . S
N157 Co146 1.995 . S
N157 C158 1.376 . S
N157 C161 1.383 . S
C158 N157 1.376 . S
C158 C159 1.446 . S
C158 C181 1.391 1_455 S
C159 C158 1.446 . S
C159 C160 1.339 . S
C159 H188 0.949 . S
C160 C159 1.339 . S
C160 C161 1.439 . S
C160 H189 0.950 . S
C161 N157 1.383 . S
C161 C160 1.439 . S
C161 C179 1.392 . S
N162 Co146 2.282 . S
N162 C165 1.332 . S
N162 C167 1.332 . S
C163 C164 1.386 . S
C163 C166 1.388 . S
C164 C163 1.386 . S
C164 C165 1.382 . S
C164 H190 0.950 . S
C165 N162 1.332 . S
C165 C164 1.382 . S
C165 H176 0.952 . S
C166 C163 1.388 . S
C166 C167 1.382 . S
C166 H191 0.950 . S
C167 N162 1.332 . S
C167 C166 1.382 . S
C167 H177 0.948 . S
N168 Co146 2.282 1_655 S
N168 C172 1.332 . S
N168 C173 1.332 . S
C169 C170 1.388 . S
C169 C173 1.382 . S
C169 H192 0.950 . S
C170 C169 1.388 . S
C170 C171 1.386 . S
C171 C170 1.386 . S
C171 C172 1.382 . S
C171 H193 0.950 . S
C172 N168 1.332 . S
C172 C171 1.382 . S
C172 H174 0.952 . S
C173 N168 1.332 . S
C173 C169 1.382 . S
C173 H175 0.948 . S
H174 C172 0.952 . S
H175 C173 0.948 . S
H176 C165 0.952 . S
H177 C167 0.948 . S
C178 C144 1.395 . S
C178 C148 1.391 . S
C179 C141 1.389 . S
C179 C161 1.392 . S
C180 C151 1.392 . S
C180 C153 1.389 . S
C181 C156 1.395 . S
C181 C158 1.391 1_655 S
H182 C142 0.951 . S
H183 C143 0.950 . S
H184 C149 0.949 . S
H185 C150 0.950 . S
H186 C154 0.951 . S
H187 C155 0.950 . S
H188 C159 0.949 . S
H189 C160 0.950 . S
H190 C164 0.950 . S
H191 C166 0.950 . S
H192 C169 0.950 . S
H193 C171 0.950 . S
C194 C195 1.443 . S
C194 N198 1.376 1_565 S
C194 C232 1.389 . S
C195 C194 1.443 . S
C195 C196 1.340 1_565 S
C195 H235 0.951 . S
C196 C195 1.340 1_545 S
C196 C197 1.439 . S
C196 H236 0.950 . S
C197 C196 1.439 . S
C197 N198 1.374 . S
C197 C231 1.395 . S
N198 C194 1.376 1_545 S
N198 C197 1.374 . S
N198 Co199 2.008 . S
Co199 N198 2.008 . S
Co199 N200 1.995 . S
Co199 N205 2.008 . S
Co199 N210 1.995 . S
Co199 N215 2.282 . S
Co199 N221 2.282 1_545 S
N200 Co199 1.995 . S
N200 C201 1.376 . S
N200 C204 1.383 . S
C201 N200 1.376 . S
C201 C202 1.446 . S
C201 C231 1.391 . S
C202 C201 1.446 . S
C202 C203 1.339 . S
C202 H237 0.949 . S
C203 C202 1.339 . S
C203 C204 1.439 . S
C203 H238 0.950 . S
C204 N200 1.383 . S
C204 C203 1.439 . S
C204 C233 1.392 . S
N205 Co199 2.008 . S
N205 C206 1.376 . S
N205 C209 1.374 . S
C206 N205 1.376 . S
C206 C207 1.443 . S
C206 C233 1.389 . S
C207 C206 1.443 . S
C207 C208 1.340 . S
C207 H239 0.951 . S
C208 C207 1.340 . S
C208 C209 1.439 . S
C208 H240 0.950 . S
C209 N205 1.374 . S
C209 C208 1.439 . S
C209 C234 1.395 . S
N210 Co199 1.995 . S
N210 C211 1.376 1_545 S
N210 C214 1.383 1_545 S
C211 N210 1.376 1_565 S
C211 C212 1.446 . S
C211 C234 1.391 1_565 S
C212 C211 1.446 . S
C212 C213 1.339 . S
C212 H241 0.949 . S
C213 C212 1.339 . S
C213 C214 1.439 . S
C213 H242 0.950 . S
C214 N210 1.383 1_565 S
C214 C213 1.439 . S
C214 C232 1.392 . S
N215 Co199 2.282 . S
N215 C218 1.332 . S
N215 C220 1.332 . S
C216 C217 1.386 . S
C216 C219 1.388 . S
C217 C216 1.386 . S
C217 C218 1.382 . S
C217 H243 0.950 . S
C218 N215 1.332 . S
C218 C217 1.382 . S
C218 H229 0.952 . S
C219 C216 1.388 . S
C219 C220 1.382 . S
C219 H244 0.950 . S
C220 N215 1.332 . S
C220 C219 1.382 . S
C220 H230 0.948 . S
N221 Co199 2.282 1_565 S
N221 C225 1.332 . S
N221 C226 1.332 . S
C222 C223 1.388 . S
C222 C226 1.382 . S
C222 H245 0.950 . S
C223 C222 1.388 . S
C223 C224 1.386 . S
C224 C223 1.386 . S
C224 C225 1.382 . S
C224 H246 0.950 . S
C225 N221 1.332 . S
C225 C224 1.382 . S
C225 H227 0.952 1_565 S
C226 N221 1.332 . S
C226 C222 1.382 . S
C226 H228 0.948 . S
H227 C225 0.952 1_545 S
H228 C226 0.948 . S
H229 C218 0.952 . S
H230 C220 0.948 . S
C231 C197 1.395 . S
C231 C201 1.391 . S
C232 C194 1.389 . S
C232 C214 1.392 . S
C233 C204 1.392 . S
C233 C206 1.389 . S
C234 C209 1.395 . S
C234 C211 1.391 1_545 S
H235 C195 0.951 . S
H236 C196 0.950 . S
H237 C202 0.949 . S
H238 C203 0.950 . S
H239 C207 0.951 . S
H240 C208 0.950 . S
H241 C212 0.949 . S
H242 C213 0.950 . S
H243 C217 0.950 . S
H244 C219 0.950 . S
H245 C222 0.950 . S
H246 C224 0.950 . S
C247 C248 1.443 . S
C247 N251 1.376 . S
C247 C285 1.389 . S
C248 C247 1.443 . S
C248 C249 1.340 . S
C248 H288 0.951 . S
C249 C248 1.340 . S
C249 C250 1.439 . S
C249 H289 0.950 . S
C250 C249 1.439 . S
C250 N251 1.374 . S
C250 C284 1.395 . S
N251 C247 1.376 . S
N251 C250 1.374 . S
N251 Co252 2.008 . S
Co252 N251 2.008 . S
Co252 N253 1.995 1_554 S
Co252 N258 2.008 1_554 S
Co252 N263 1.995 . S
Co252 N268 2.282 1_554 S
Co252 N274 2.282 . S
N253 Co252 1.995 1_556 S
N253 C254 1.375 1_556 S
N253 C257 1.383 . S
C254 N253 1.375 1_554 S
C254 C255 1.441 1_554 S
C254 C284 1.396 . S
C255 C254 1.441 1_556 S
C255 C256 1.339 . S
C255 H290 0.949 . S
C256 C255 1.339 . S
C256 C257 1.439 . S
C256 H291 0.950 . S
C257 N253 1.383 . S
C257 C256 1.439 . S
C257 C286 1.392 . S
N258 Co252 2.008 1_556 S
N258 C259 1.376 . S
N258 C262 1.374 . S
C259 N258 1.376 . S
C259 C260 1.443 . S
C259 C286 1.389 . S
C260 C259 1.443 . S
C260 C261 1.340 . S
C260 H292 0.951 . S
C261 C260 1.340 . S
C261 C262 1.439 . S
C261 H293 0.950 . S
C262 N258 1.374 . S
C262 C261 1.439 . S
C262 C287 1.395 . S
N263 Co252 1.995 . S
N263 C264 1.376 . S
N263 C267 1.383 . S
C264 N263 1.376 . S
C264 C265 1.446 . S
C264 C287 1.391 1_554 S
C265 C264 1.446 . S
C265 C266 1.339 . S
C265 H294 0.949 . S
C266 C265 1.339 . S
C266 C267 1.439 . S
C266 H295 0.950 . S
C267 N263 1.383 . S
C267 C266 1.439 . S
C267 C285 1.392 . S
N268 Co252 2.282 1_556 S
N268 C271 1.332 . S
N268 C273 1.332 . S
C269 C270 1.386 . S
C269 C272 1.388 . S
C270 C269 1.386 . S
C270 C271 1.382 . S
C270 H296 0.950 . S
C271 N268 1.332 . S
C271 C270 1.382 . S
C271 H282 0.952 . S
C272 C269 1.388 . S
C272 C273 1.382 . S
C272 H297 0.950 . S
C273 N268 1.332 . S
C273 C272 1.382 . S
C273 H283 0.948 . S
N274 Co252 2.282 . S
N274 C278 1.332 . S
N274 C279 1.332 . S
C275 C276 1.388 . S
C275 C279 1.382 . S
C275 H298 0.950 . S
C276 C275 1.388 . S
C276 C277 1.386 . S
C277 C276 1.386 . S
C277 C278 1.382 . S
C277 H299 0.950 . S
C278 N274 1.332 . S
C278 C277 1.382 . S
C278 H280 0.952 . S
C279 N274 1.332 . S
C279 C275 1.382 . S
C279 H281 0.948 . S
H280 C278 0.952 . S
H281 C279 0.948 . S
H282 C271 0.952 . S
H283 C273 0.948 . S
C284 C250 1.395 . S
C284 C254 1.396 . S
C285 C247 1.389 . S
C285 C267 1.392 . S
C286 C257 1.392 . S
C286 C259 1.389 . S
C287 C262 1.395 . S
C287 C264 1.391 1_556 S
H288 C248 0.951 . S
H289 C249 0.950 . S
H290 C255 0.949 . S
H291 C256 0.950 . S
H292 C260 0.951 . S
H293 C261 0.950 . S
H294 C265 0.949 . S
H295 C266 0.950 . S
H296 C270 0.950 . S
H297 C272 0.950 . S
H298 C275 0.950 . S
H299 C277 0.950 . S
C300 C301 1.443 . S
C300 N304 1.376 1_565 S
C300 C338 1.389 . S
C301 C300 1.443 . S
C301 C302 1.340 1_665 S
C301 H341 0.951 . S
C302 C301 1.340 1_445 S
C302 C303 1.439 . S
C302 H342 0.950 . S
C303 C302 1.439 . S
C303 N304 1.374 1_455 S
C303 C337 1.395 . S
N304 C300 1.376 1_545 S
N304 C303 1.374 1_655 S
N304 Co305 2.008 . S
Co305 N304 2.008 . S
Co305 N306 1.995 . S
Co305 N311 2.008 . S
Co305 N316 1.995 . S
Co305 N321 2.282 . S
Co305 N327 2.282 . S
N306 Co305 1.995 . S
N306 C307 1.376 1_655 S
N306 C310 1.383 . S
C307 N306 1.376 1_455 S
C307 C308 1.446 . S
C307 C337 1.391 . S
C308 C307 1.446 . S
C308 C309 1.339 1_455 S
C308 H343 0.949 . S
C309 C308 1.339 1_655 S
C309 C310 1.439 . S
C309 H344 0.950 1_655 S
C310 N306 1.383 . S
C310 C309 1.439 . S
C310 C339 1.392 . S
N311 Co305 2.008 . S
N311 C312 1.376 . S
N311 C315 1.374 . S
C312 N311 1.376 . S
C312 C313 1.443 . S
C312 C339 1.389 . S
C313 C312 1.443 . S
C313 C314 1.340 . S
C313 H345 0.951 . S
C314 C313 1.340 . S
C314 C315 1.439 . S
C314 H346 0.950 . S
C315 N311 1.374 . S
C315 C314 1.439 . S
C315 C340 1.395 . S
N316 Co305 1.995 . S
N316 C317 1.376 . S
N316 C320 1.383 1_545 S
C317 N316 1.376 . S
C317 C318 1.446 1_545 S
C317 C340 1.391 . S
C318 C317 1.446 1_565 S
C318 C319 1.339 . S
C318 H347 0.949 . S
C319 C318 1.339 . S
C319 C320 1.439 . S
C319 H348 0.950 . S
C320 N316 1.383 1_565 S
C320 C319 1.439 . S
C320 C338 1.392 . S
N321 Co305 2.282 . S
N321 C324 1.332 . S
N321 C326 1.332 . S
C322 C323 1.386 . S
C322 C325 1.388 . S
C323 C322 1.386 . S
C323 C324 1.382 . S
C323 H349 0.950 . S
C324 N321 1.332 . S
C324 C323 1.382 . S
C324 H335 0.952 . S
C325 C322 1.388 . S
C325 C326 1.382 . S
C325 H350 0.950 . S
C326 N321 1.332 . S
C326 C325 1.382 . S
C326 H336 0.948 . S
N327 Co305 2.282 . S
N327 C331 1.332 . S
N327 C332 1.332 1_545 S
C328 C329 1.388 . S
C328 C332 1.382 . S
C328 H351 0.950 . S
C329 C328 1.388 . S
C329 C330 1.386 . S
C330 C329 1.386 . S
C330 C331 1.382 1_565 S
C330 H352 0.950 . S
C331 N327 1.332 . S
C331 C330 1.382 1_545 S
C331 H333 0.952 . S
C332 N327 1.332 1_565 S
C332 C328 1.382 . S
C332 H334 0.948 . S
H333 C331 0.952 . S
H334 C332 0.948 . S
H335 C324 0.952 . S
H336 C326 0.948 . S
C337 C303 1.395 . S
C337 C307 1.391 . S
C338 C300 1.389 . S
C338 C320 1.392 . S
C339 C310 1.392 . S
C339 C312 1.389 . S
C340 C315 1.395 . S
C340 C317 1.391 . S
H341 C301 0.951 . S
H342 C302 0.950 . S
H343 C308 0.949 . S
H344 C309 0.950 1_455 S
H345 C313 0.951 . S
H346 C314 0.950 . S
H347 C318 0.949 . S
H348 C319 0.950 . S
H349 C323 0.950 . S
H350 C325 0.950 . S
H351 C328 0.950 . S
H352 C330 0.950 . S
C353 C354 1.443 . S
C353 N357 1.376 . S
C353 C391 1.389 . S
C354 C353 1.443 . S
C354 C355 1.340 . S
C354 H394 0.951 . S
C355 C354 1.340 . S
C355 C356 1.439 . S
C355 H395 0.950 . S
C356 C355 1.439 . S
C356 N357 1.374 . S
C356 C390 1.395 . S
N357 C353 1.376 . S
N357 C356 1.374 . S
N357 Co358 2.008 . S
Co358 N357 2.008 . S
Co358 N359 1.995 . S
Co358 N364 2.008 . S
Co358 N369 1.995 . S
Co358 N374 2.282 . S
Co358 N380 2.282 . S
N359 Co358 1.995 . S
N359 C360 1.376 . S
N359 C363 1.383 . S
C360 N359 1.376 . S
C360 C361 1.446 . S
C360 C390 1.391 . S
C361 C360 1.446 . S
C361 C362 1.339 . S
C361 H396 0.949 . S
C362 C361 1.339 . S
C362 C363 1.439 . S
C362 H397 0.950 . S
C363 N359 1.383 . S
C363 C362 1.439 . S
C363 C392 1.392 . S
N364 Co358 2.008 . S
N364 C365 1.376 . S
N364 C368 1.374 . S
C365 N364 1.376 . S
C365 C366 1.443 . S
C365 C392 1.389 . S
C366 C365 1.443 . S
C366 C367 1.340 . S
C366 H398 0.951 . S
C367 C366 1.340 . S
C367 C368 1.439 . S
C367 H399 0.950 . S
C368 N364 1.374 . S
C368 C367 1.439 . S
C368 C393 1.395 . S
N369 Co358 1.995 . S
N369 C370 1.376 . S
N369 C373 1.383 . S
C370 N369 1.376 . S
C370 C371 1.446 . S
C370 C393 1.391 . S
C371 C370 1.446 . S
C371 C372 1.339 . S
C371 H400 0.949 . S
C372 C371 1.339 . S
C372 C373 1.439 . S
C372 H401 0.950 . S
C373 N369 1.383 . S
C373 C372 1.439 . S
C373 C391 1.392 . S
N374 Co358 2.282 . S
N374 C377 1.332 . S
N374 C379 1.332 . S
C375 C376 1.386 . S
C375 C378 1.388 . S
C376 C375 1.386 . S
C376 C377 1.382 . S
C376 H402 0.950 . S
C377 N374 1.332 . S
C377 C376 1.382 . S
C377 H388 0.952 . S
C378 C375 1.388 . S
C378 C379 1.382 . S
C378 H403 0.950 . S
C379 N374 1.332 . S
C379 C378 1.382 . S
C379 H389 0.948 . S
N380 Co358 2.282 . S
N380 C384 1.332 . S
N380 C385 1.332 . S
C381 C382 1.388 . S
C381 C385 1.382 . S
C381 H404 0.950 . S
C382 C381 1.388 . S
C382 C383 1.386 . S
C383 C382 1.386 . S
C383 C384 1.382 . S
C383 H405 0.950 . S
C384 N380 1.332 . S
C384 C383 1.382 . S
C384 H386 0.952 . S
C385 N380 1.332 . S
C385 C381 1.382 . S
C385 H387 0.948 . S
H386 C384 0.952 . S
H387 C385 0.948 . S
H388 C377 0.952 . S
H389 C379 0.948 . S
C390 C356 1.395 . S
C390 C360 1.391 . S
C391 C353 1.389 . S
C391 C373 1.392 . S
C392 C363 1.392 . S
C392 C365 1.389 . S
C393 C368 1.395 . S
C393 C370 1.391 . S
H394 C354 0.951 . S
H395 C355 0.950 . S
H396 C361 0.949 . S
H397 C362 0.950 . S
H398 C366 0.951 . S
H399 C367 0.950 . S
H400 C371 0.949 . S
H401 C372 0.950 . S
H402 C376 0.950 . S
H403 C378 0.950 . S
H404 C381 0.950 . S
H405 C383 0.950 . S
C406 C407 1.363 . S
C406 C412 1.379 . S
C406 N414 1.356 . S
C407 C406 1.363 . S
C407 C413 1.363 . S
C408 C409 1.363 . S
C408 C413 1.379 . S
C408 N415 1.356 . S
C409 C408 1.363 . S
C409 C412 1.363 . S
N410 C412 1.356 . S
N410 H422 0.984 . S
N410 H423 0.985 . S
N411 C413 1.356 . S
N411 H416 0.984 . S
N411 H417 0.985 . S
C412 C406 1.379 . S
C412 C409 1.363 . S
C412 N410 1.356 . S
C413 C407 1.363 . S
C413 C408 1.379 . S
C413 N411 1.356 . S
N414 C406 1.356 . S
N414 H420 0.984 . S
N414 H421 0.984 . S
N415 C408 1.356 . S
N415 H418 0.984 . S
N415 H419 0.985 . S
H416 N411 0.984 . S
H417 N411 0.985 . S
H418 N415 0.984 . S
H419 N415 0.985 . S
H420 N414 0.984 . S
H421 N414 0.984 . S
H422 N410 0.984 . S
H423 N410 0.985 . S
C424 C425 1.363 . S
C424 C430 1.379 . S
C424 N432 1.356 . S
C425 C424 1.363 . S
C425 C431 1.363 . S
C426 C427 1.363 . S
C426 C431 1.379 . S
C426 N433 1.356 . S
C427 C426 1.363 . S
C427 C430 1.363 . S
N428 C430 1.356 . S
N428 H440 0.984 . S
N428 H441 0.985 . S
N429 C431 1.356 . S
N429 H434 0.984 . S
N429 H435 0.985 . S
C430 C424 1.379 . S
C430 C427 1.363 . S
C430 N428 1.356 . S
C431 C425 1.363 . S
C431 C426 1.379 . S
C431 N429 1.356 . S
N432 C424 1.356 . S
N432 H438 0.984 . S
N432 H439 0.984 . S
N433 C426 1.356 . S
N433 H436 0.984 . S
N433 H437 0.985 . S
H434 N429 0.984 . S
H435 N429 0.985 . S
H436 N433 0.984 . S
H437 N433 0.985 . S
H438 N432 0.984 . S
H439 N432 0.984 . S
H440 N428 0.984 . S
H441 N428 0.985 . S
C442 C443 1.363 . S
C442 C448 1.379 . S
C442 N450 1.356 . S
C443 C442 1.363 . S
C443 C449 1.363 . S
C444 C445 1.363 . S
C444 C449 1.379 . S
C444 N451 1.356 . S
C445 C444 1.363 . S
C445 C448 1.363 . S
N446 C448 1.356 . S
N446 H458 0.984 . S
N446 H459 0.985 . S
N447 C449 1.356 . S
N447 H452 0.984 . S
N447 H453 0.985 . S
C448 C442 1.379 . S
C448 C445 1.363 . S
C448 N446 1.356 . S
C449 C443 1.363 . S
C449 C444 1.379 . S
C449 N447 1.356 . S
N450 C442 1.356 . S
N450 H456 0.984 . S
N450 H457 0.984 . S
N451 C444 1.356 . S
N451 H454 0.984 . S
N451 H455 0.985 . S
H452 N447 0.984 . S
H453 N447 0.985 . S
H454 N451 0.984 . S
H455 N451 0.985 . S
H456 N450 0.984 . S
H457 N450 0.984 . S
H458 N446 0.984 . S
H459 N446 0.985 . S
C460 C461 1.363 . S
C460 C466 1.379 . S
C460 N468 1.356 . S
C461 C460 1.363 . S
C461 C467 1.363 . S
C462 C463 1.363 . S
C462 C467 1.379 . S
C462 N469 1.356 . S
C463 C462 1.363 . S
C463 C466 1.363 . S
N464 C466 1.356 . S
N464 H476 0.984 . S
N464 H477 0.985 . S
N465 C467 1.356 . S
N465 H470 0.984 . S
N465 H471 0.985 . S
C466 C460 1.379 . S
C466 C463 1.363 . S
C466 N464 1.356 . S
C467 C461 1.363 . S
C467 C462 1.379 . S
C467 N465 1.356 . S
N468 C460 1.356 . S
N468 H474 0.984 . S
N468 H475 0.984 . S
N469 C462 1.356 . S
N469 H472 0.984 . S
N469 H473 0.985 . S
H470 N465 0.984 . S
H471 N465 0.985 . S
H472 N469 0.984 . S
H473 N469 0.985 . S
H474 N468 0.984 . S
H475 N468 0.984 . S
H476 N464 0.984 . S
H477 N464 0.985 . S
C478 C479 1.363 . S
C478 C484 1.379 . S
C478 N486 1.356 . S
C479 C478 1.363 . S
C479 C485 1.363 . S
C480 C481 1.363 . S
C480 C485 1.379 . S
C480 N487 1.356 . S
C481 C480 1.363 . S
C481 C484 1.363 . S
N482 C484 1.356 . S
N482 H494 0.984 . S
N482 H495 0.985 . S
N483 C485 1.356 . S
N483 H488 0.984 . S
N483 H489 0.985 . S
C484 C478 1.379 . S
C484 C481 1.363 . S
C484 N482 1.356 . S
C485 C479 1.363 . S
C485 C480 1.379 . S
C485 N483 1.356 . S
N486 C478 1.356 . S
N486 H492 0.984 . S
N486 H493 0.984 . S
N487 C480 1.356 . S
N487 H490 0.984 . S
N487 H491 0.985 . S
H488 N483 0.984 . S
H489 N483 0.985 . S
H490 N487 0.984 . S
H491 N487 0.985 . S
H492 N486 0.984 . S
H493 N486 0.984 . S
H494 N482 0.984 . S
H495 N482 0.985 . S
C496 C497 1.363 . S
C496 C502 1.379 . S
C496 N504 1.356 . S
C497 C496 1.363 . S
C497 C503 1.363 . S
C498 C499 1.363 . S
C498 C503 1.379 . S
C498 N505 1.356 . S
C499 C498 1.363 . S
C499 C502 1.363 . S
N500 C502 1.356 . S
N500 H512 0.984 . S
N500 H513 0.985 . S
N501 C503 1.356 . S
N501 H506 0.984 . S
N501 H507 0.985 . S
C502 C496 1.379 . S
C502 C499 1.363 . S
C502 N500 1.356 . S
C503 C497 1.363 . S
C503 C498 1.379 . S
C503 N501 1.356 . S
N504 C496 1.356 . S
N504 H510 0.984 . S
N504 H511 0.984 . S
N505 C498 1.356 . S
N505 H508 0.984 . S
N505 H509 0.985 . S
H506 N501 0.984 . S
H507 N501 0.985 . S
H508 N505 0.984 . S
H509 N505 0.985 . S
H510 N504 0.984 . S
H511 N504 0.984 . S
H512 N500 0.984 . S
H513 N500 0.985 . S
C514 C515 1.363 . S
C514 C520 1.379 . S
C514 N522 1.356 . S
C515 C514 1.363 . S
C515 C521 1.363 . S
C516 C517 1.363 . S
C516 C521 1.379 . S
C516 N523 1.356 . S
C517 C516 1.363 . S
C517 C520 1.363 . S
N518 C520 1.356 . S
N518 H530 0.984 . S
N518 H531 0.985 . S
N519 C521 1.356 . S
N519 H524 0.984 . S
N519 H525 0.985 . S
C520 C514 1.379 . S
C520 C517 1.363 . S
C520 N518 1.356 . S
C521 C515 1.363 . S
C521 C516 1.379 . S
C521 N519 1.356 . S
N522 C514 1.356 . S
N522 H528 0.984 . S
N522 H529 0.984 . S
N523 C516 1.356 . S
N523 H526 0.984 . S
N523 H527 0.985 . S
H524 N519 0.984 . S
H525 N519 0.985 . S
H526 N523 0.984 . S
H527 N523 0.985 . S
H528 N522 0.984 . S
H529 N522 0.984 . S
H530 N518 0.984 . S
H531 N518 0.985 . S
C532 C533 1.363 . S
C532 C538 1.379 1_556 S
C532 N540 1.356 . S
C533 C532 1.363 . S
C533 C539 1.363 1_556 S
C534 C535 1.363 . S
C534 C539 1.379 . S
C534 N541 1.356 . S
C535 C534 1.363 . S
C535 C538 1.363 . S
N536 C538 1.356 . S
N536 H548 0.984 . S
N536 H549 0.985 . S
N537 C539 1.356 1_556 S
N537 H542 0.984 . S
N537 H543 0.985 . S
C538 C532 1.379 1_554 S
C538 C535 1.363 . S
C538 N536 1.356 . S
C539 C533 1.363 1_554 S
C539 C534 1.379 . S
C539 N537 1.356 1_554 S
N540 C532 1.356 . S
N540 H546 0.984 . S
N540 H547 0.984 . S
N541 C534 1.356 . S
N541 H544 0.984 . S
N541 H545 0.985 . S
H542 N537 0.984 . S
H543 N537 0.985 . S
H544 N541 0.984 . S
H545 N541 0.985 . S
H546 N540 0.984 . S
H547 N540 0.984 . S
H548 N536 0.984 . S
H549 N536 0.985 . S
C550 C551 1.363 . S
C550 C556 1.379 . S
C550 N558 1.356 . S
C551 C550 1.363 . S
C551 C557 1.363 . S
C552 C553 1.363 . S
C552 C557 1.379 . S
C552 N559 1.356 . S
C553 C552 1.363 . S
C553 C556 1.363 . S
N554 C556 1.356 . S
N554 H566 0.984 . S
N554 H567 0.985 . S
N555 C557 1.356 . S
N555 H560 0.984 . S
N555 H561 0.985 . S
C556 C550 1.379 . S
C556 C553 1.363 . S
C556 N554 1.356 . S
C557 C551 1.363 . S
C557 C552 1.379 . S
C557 N555 1.356 . S
N558 C550 1.356 . S
N558 H564 0.984 . S
N558 H565 0.984 . S
N559 C552 1.356 . S
N559 H562 0.984 . S
N559 H563 0.985 . S
H560 N555 0.984 . S
H561 N555 0.985 . S
H562 N559 0.984 . S
H563 N559 0.985 . S
H564 N558 0.984 . S
H565 N558 0.984 . S
H566 N554 0.984 . S
H567 N554 0.985 . S
C568 C569 1.363 . S
C568 C574 1.379 . S
C568 N576 1.356 . S
C569 C568 1.363 . S
C569 C575 1.363 . S
C570 C571 1.363 . S
C570 C575 1.379 . S
C570 N577 1.356 . S
C571 C570 1.363 . S
C571 C574 1.363 . S
N572 C574 1.356 . S
N572 H584 0.984 . S
N572 H585 0.985 . S
N573 C575 1.356 . S
N573 H578 0.984 . S
N573 H579 0.985 . S
C574 C568 1.379 . S
C574 C571 1.363 . S
C574 N572 1.356 . S
C575 C569 1.363 . S
C575 C570 1.379 . S
C575 N573 1.356 . S
N576 C568 1.356 . S
N576 H582 0.984 . S
N576 H583 0.984 . S
N577 C570 1.356 . S
N577 H580 0.984 . S
N577 H581 0.985 . S
H578 N573 0.984 . S
H579 N573 0.985 . S
H580 N577 0.984 . S
H581 N577 0.985 . S
H582 N576 0.984 . S
H583 N576 0.984 . S
H584 N572 0.984 . S
H585 N572 0.985 . S
C586 C587 1.363 . S
C586 C592 1.379 . S
C586 N594 1.356 . S
C587 C586 1.363 . S
C587 C593 1.363 . S
C588 C589 1.363 . S
C588 C593 1.379 . S
C588 N595 1.356 . S
C589 C588 1.363 . S
C589 C592 1.363 . S
N590 C592 1.356 . S
N590 H602 0.984 . S
N590 H603 0.985 . S
N591 C593 1.356 . S
N591 H596 0.984 . S
N591 H597 0.985 . S
C592 C586 1.379 . S
C592 C589 1.363 . S
C592 N590 1.356 . S
C593 C587 1.363 . S
C593 C588 1.379 . S
C593 N591 1.356 . S
N594 C586 1.356 . S
N594 H600 0.984 . S
N594 H601 0.984 . S
N595 C588 1.356 . S
N595 H598 0.984 . S
N595 H599 0.985 . S
H596 N591 0.984 . S
H597 N591 0.985 . S
H598 N595 0.984 . S
H599 N595 0.985 . S
H600 N594 0.984 . S
H601 N594 0.984 . S
H602 N590 0.984 . S
H603 N590 0.985 . S
C604 C605 1.363 . S
C604 C610 1.379 . S
C604 N612 1.356 . S
C605 C604 1.363 . S
C605 C611 1.363 . S
C606 C607 1.363 . S
C606 C611 1.379 . S
C606 N613 1.356 . S
C607 C606 1.363 . S
C607 C610 1.363 . S
N608 C610 1.356 . S
N608 H620 0.984 . S
N608 H621 0.985 . S
N609 C611 1.356 . S
N609 H614 0.984 . S
N609 H615 0.985 . S
C610 C604 1.379 . S
C610 C607 1.363 . S
C610 N608 1.356 . S
C611 C605 1.363 . S
C611 C606 1.379 . S
C611 N609 1.356 . S
N612 C604 1.356 . S
N612 H618 0.984 . S
N612 H619 0.984 . S
N613 C606 1.356 . S
N613 H616 0.984 . S
N613 H617 0.985 . S
H614 N609 0.984 . S
H615 N609 0.985 . S
H616 N613 0.984 . S
H617 N613 0.985 . S
H618 N612 0.984 . S
H619 N612 0.984 . S
H620 N608 0.984 . S
H621 N608 0.985 . S
C622 C623 1.363 . S
C622 C628 1.379 . S
C622 N630 1.356 . S
C623 C622 1.363 . S
C623 C629 1.363 . S
C624 C625 1.363 . S
C624 C629 1.379 . S
C624 N631 1.356 . S
C625 C624 1.363 . S
C625 C628 1.363 . S
N626 C628 1.356 . S
N626 H638 0.984 . S
N626 H639 0.985 . S
N627 C629 1.356 . S
N627 H632 0.984 . S
N627 H633 0.985 . S
C628 C622 1.379 . S
C628 C625 1.363 . S
C628 N626 1.356 . S
C629 C623 1.363 . S
C629 C624 1.379 . S
C629 N627 1.356 . S
N630 C622 1.356 . S
N630 H636 0.984 . S
N630 H637 0.984 . S
N631 C624 1.356 . S
N631 H634 0.984 . S
N631 H635 0.985 . S
H632 N627 0.984 . S
H633 N627 0.985 . S
H634 N631 0.984 . S
H635 N631 0.985 . S
H636 N630 0.984 . S
H637 N630 0.984 . S
H638 N626 0.984 . S
H639 N626 0.985 . S
C640 C641 1.363 . S
C640 C646 1.379 . S
C640 N648 1.356 . S
C641 C640 1.363 . S
C641 C647 1.363 . S
C642 C643 1.363 . S
C642 C647 1.379 . S
C642 N649 1.356 . S
C643 C642 1.363 . S
C643 C646 1.363 . S
N644 C646 1.356 . S
N644 H656 0.984 . S
N644 H657 0.985 . S
N645 C647 1.356 . S
N645 H650 0.984 . S
N645 H651 0.985 . S
C646 C640 1.379 . S
C646 C643 1.363 . S
C646 N644 1.356 . S
C647 C641 1.363 . S
C647 C642 1.379 . S
C647 N645 1.356 . S
N648 C640 1.356 . S
N648 H654 0.984 . S
N648 H655 0.984 . S
N649 C642 1.356 . S
N649 H652 0.984 1_655 S
N649 H653 0.985 . S
H650 N645 0.984 . S
H651 N645 0.985 . S
H652 N649 0.984 1_455 S
H653 N649 0.985 . S
H654 N648 0.984 . S
H655 N648 0.984 . S
H656 N644 0.984 . S
H657 N644 0.985 . S
C658 C659 1.363 . S
C658 C664 1.379 . S
C658 N666 1.356 . S
C659 C658 1.363 . S
C659 C665 1.363 . S
C660 C661 1.363 . S
C660 C665 1.379 . S
C660 N667 1.356 . S
C661 C660 1.363 . S
C661 C664 1.363 . S
N662 C664 1.356 . S
N662 H674 0.984 . S
N662 H675 0.985 . S
N663 C665 1.356 . S
N663 H668 0.984 . S
N663 H669 0.985 . S
C664 C658 1.379 . S
C664 C661 1.363 . S
C664 N662 1.356 . S
C665 C659 1.363 . S
C665 C660 1.379 . S
C665 N663 1.356 . S
N666 C658 1.356 . S
N666 H672 0.984 . S
N666 H673 0.984 . S
N667 C660 1.356 . S
N667 H670 0.984 . S
N667 H671 0.985 . S
H668 N663 0.984 . S
H669 N663 0.985 . S
H670 N667 0.984 . S
H671 N667 0.985 . S
H672 N666 0.984 . S
H673 N666 0.984 . S
H674 N662 0.984 . S
H675 N662 0.985 . S
C676 C677 1.363 . S
C676 C682 1.379 . S
C676 N684 1.356 . S
C677 C676 1.363 . S
C677 C683 1.363 . S
C678 C679 1.363 . S
C678 C683 1.379 . S
C678 N685 1.356 . S
C679 C678 1.363 . S
C679 C682 1.363 . S
N680 C682 1.356 . S
N680 H692 0.984 . S
N680 H693 0.985 . S
N681 C683 1.356 . S
N681 H686 0.984 . S
N681 H687 0.985 . S
C682 C676 1.379 . S
C682 C679 1.363 . S
C682 N680 1.356 . S
C683 C677 1.363 . S
C683 C678 1.379 . S
C683 N681 1.356 . S
N684 C676 1.356 . S
N684 H690 0.984 . S
N684 H691 0.984 . S
N685 C678 1.356 . S
N685 H688 0.984 . S
N685 H689 0.985 . S
H686 N681 0.984 . S
H687 N681 0.985 . S
H688 N685 0.984 . S
H689 N685 0.985 . S
H690 N684 0.984 . S
H691 N684 0.984 . S
H692 N680 0.984 . S
H693 N680 0.985 . S
C694 C695 1.363 . S
C694 C700 1.379 . S
C694 N702 1.356 . S
C695 C694 1.363 . S
C695 C701 1.363 . S
C696 C697 1.363 . S
C696 C701 1.379 . S
C696 N703 1.356 . S
C697 C696 1.363 . S
C697 C700 1.363 . S
N698 C700 1.356 . S
N698 H710 0.984 . S
N698 H711 0.985 . S
N699 C701 1.356 . S
N699 H704 0.984 . S
N699 H705 0.985 . S
C700 C694 1.379 . S
C700 C697 1.363 . S
C700 N698 1.356 . S
C701 C695 1.363 . S
C701 C696 1.379 . S
C701 N699 1.356 . S
N702 C694 1.356 . S
N702 H708 0.984 . S
N702 H709 0.984 . S
N703 C696 1.356 . S
N703 H706 0.984 . S
N703 H707 0.985 . S
H704 N699 0.984 . S
H705 N699 0.985 . S
H706 N703 0.984 . S
H707 N703 0.985 . S
H708 N702 0.984 . S
H709 N702 0.984 . S
H710 N698 0.984 . S
H711 N698 0.985 . S
C712 C713 1.363 . S
C712 C718 1.379 . S
C712 N720 1.356 . S
C713 C712 1.363 . S
C713 C719 1.363 . S
C714 C715 1.363 . S
C714 C719 1.379 . S
C714 N721 1.356 . S
C715 C714 1.363 . S
C715 C718 1.363 . S
N716 C718 1.356 . S
N716 H728 0.984 . S
N716 H729 0.985 . S
N717 C719 1.356 . S
N717 H722 0.984 . S
N717 H723 0.985 . S
C718 C712 1.379 . S
C718 C715 1.363 . S
C718 N716 1.356 . S
C719 C713 1.363 . S
C719 C714 1.379 . S
C719 N717 1.356 . S
N720 C712 1.356 . S
N720 H726 0.984 . S
N720 H727 0.984 . S
N721 C714 1.356 . S
N721 H724 0.984 . S
N721 H725 0.985 . S
H722 N717 0.984 . S
H723 N717 0.985 . S
H724 N721 0.984 . S
H725 N721 0.985 . S
H726 N720 0.984 . S
H727 N720 0.984 . S
H728 N716 0.984 . S
H729 N716 0.985 . S
C730 C731 1.363 . S
C730 C736 1.379 . S
C730 N738 1.356 . S
C731 C730 1.363 . S
C731 C737 1.363 . S
C732 C733 1.363 . S
C732 C737 1.379 . S
C732 N739 1.356 . S
C733 C732 1.363 . S
C733 C736 1.363 . S
N734 C736 1.356 . S
N734 H746 0.984 . S
N734 H747 0.985 . S
N735 C737 1.356 . S
N735 H740 0.984 . S
N735 H741 0.985 . S
C736 C730 1.379 . S
C736 C733 1.363 . S
C736 N734 1.356 . S
C737 C731 1.363 . S
C737 C732 1.379 . S
C737 N735 1.356 . S
N738 C730 1.356 . S
N738 H744 0.984 . S
N738 H745 0.984 . S
N739 C732 1.356 . S
N739 H742 0.984 . S
N739 H743 0.985 . S
H740 N735 0.984 . S
H741 N735 0.985 . S
H742 N739 0.984 . S
H743 N739 0.985 . S
H744 N738 0.984 . S
H745 N738 0.984 . S
H746 N734 0.984 . S
H747 N734 0.985 . S
C748 C749 1.363 . S
C748 C754 1.379 . S
C748 N756 1.356 . S
C749 C748 1.363 . S
C749 C755 1.363 . S
C750 C751 1.363 . S
C750 C755 1.379 . S
C750 N757 1.356 . S
C751 C750 1.363 . S
C751 C754 1.363 . S
N752 C754 1.356 . S
N752 H764 0.984 . S
N752 H765 0.985 . S
N753 C755 1.356 . S
N753 H758 0.984 . S
N753 H759 0.985 . S
C754 C748 1.379 . S
C754 C751 1.363 . S
C754 N752 1.356 . S
C755 C749 1.363 . S
C755 C750 1.379 . S
C755 N753 1.356 . S
N756 C748 1.356 . S
N756 H762 0.984 . S
N756 H763 0.984 . S
N757 C750 1.356 . S
N757 H760 0.984 . S
N757 H761 0.985 . S
H758 N753 0.984 . S
H759 N753 0.985 . S
H760 N757 0.984 . S
H761 N757 0.985 . S
H762 N756 0.984 . S
H763 N756 0.984 . S
H764 N752 0.984 . S
H765 N752 0.985 . S
C766 C767 1.363 . S
C766 C772 1.379 . S
C766 N774 1.356 . S
C767 C766 1.363 . S
C767 C773 1.363 . S
C768 C769 1.363 . S
C768 C773 1.379 . S
C768 N775 1.356 . S
C769 C768 1.363 . S
C769 C772 1.363 . S
N770 C772 1.356 . S
N770 H782 0.984 . S
N770 H783 0.985 . S
N771 C773 1.356 . S
N771 H776 0.984 . S
N771 H777 0.985 . S
C772 C766 1.379 . S
C772 C769 1.363 . S
C772 N770 1.356 . S
C773 C767 1.363 . S
C773 C768 1.379 . S
C773 N771 1.356 . S
N774 C766 1.356 . S
N774 H780 0.984 . S
N774 H781 0.984 . S
N775 C768 1.356 . S
N775 H778 0.984 . S
N775 H779 0.985 . S
H776 N771 0.984 . S
H777 N771 0.985 . S
H778 N775 0.984 . S
H779 N775 0.985 . S
H780 N774 0.984 . S
H781 N774 0.984 . S
H782 N770 0.984 . S
H783 N770 0.985 . S
C784 C785 1.363 . S
C784 C790 1.379 . S
C784 N792 1.356 . S
C785 C784 1.363 . S
C785 C791 1.363 . S
C786 C787 1.377 . S
C786 C791 1.379 . S
C786 N793 1.356 1_556 S
C787 C786 1.377 . S
C787 C790 1.368 . S
N788 C790 1.356 1_554 S
N788 H800 0.984 . S
N788 H801 0.985 . S
N789 C791 1.356 . S
N789 H794 0.984 . S
N789 H795 0.985 . S
C790 C784 1.379 . S
C790 C787 1.368 . S
C790 N788 1.356 1_556 S
C791 C785 1.363 . S
C791 C786 1.379 . S
C791 N789 1.356 . S
N792 C784 1.356 . S
N792 H798 0.984 . S
N792 H799 0.984 . S
N793 C786 1.356 1_554 S
N793 H796 0.984 . S
N793 H797 0.985 1_554 S
H794 N789 0.984 . S
H795 N789 0.985 . S
H796 N793 0.984 . S
H797 N793 0.985 1_556 S
H798 N792 0.984 . S
H799 N792 0.984 . S
H800 N788 0.984 . S
H801 N788 0.985 . S
C802 C803 1.363 . S
C802 C808 1.379 . S
C802 N810 1.356 . S
C803 C802 1.363 . S
C803 C809 1.363 . S
C804 C805 1.363 . S
C804 C809 1.379 . S
C804 N811 1.356 . S
C805 C804 1.363 . S
C805 C808 1.363 . S
N806 C808 1.356 . S
N806 H818 0.984 . S
N806 H819 0.985 . S
N807 C809 1.356 . S
N807 H812 0.984 . S
N807 H813 0.985 . S
C808 C802 1.379 . S
C808 C805 1.363 . S
C808 N806 1.356 . S
C809 C803 1.363 . S
C809 C804 1.379 . S
C809 N807 1.356 . S
N810 C802 1.356 . S
N810 H816 0.984 . S
N810 H817 0.984 . S
N811 C804 1.356 . S
N811 H814 0.984 . S
N811 H815 0.985 . S
H812 N807 0.984 . S
H813 N807 0.985 . S
H814 N811 0.984 . S
H815 N811 0.985 . S
H816 N810 0.984 . S
H817 N810 0.984 . S
H818 N806 0.984 . S
H819 N806 0.985 . S
C820 C821 1.363 . S
C820 C826 1.379 . S
C820 N828 1.356 . S
C821 C820 1.363 . S
C821 C827 1.363 . S
C822 C823 1.363 . S
C822 C827 1.379 . S
C822 N829 1.356 . S
C823 C822 1.363 . S
C823 C826 1.363 . S
N824 C826 1.356 . S
N824 H836 0.984 . S
N824 H837 0.985 . S
N825 C827 1.356 . S
N825 H830 0.984 . S
N825 H831 0.985 . S
C826 C820 1.379 . S
C826 C823 1.363 . S
C826 N824 1.356 . S
C827 C821 1.363 . S
C827 C822 1.379 . S
C827 N825 1.356 . S
N828 C820 1.356 . S
N828 H834 0.984 . S
N828 H835 0.984 . S
N829 C822 1.356 . S
N829 H832 0.984 . S
N829 H833 0.985 . S
H830 N825 0.984 . S
H831 N825 0.985 . S
H832 N829 0.984 . S
H833 N829 0.985 . S
H834 N828 0.984 . S
H835 N828 0.984 . S
H836 N824 0.984 . S
H837 N824 0.985 . S
C409 C110 1.636 . S
C407 C10 1.658 . S
C427 C179 1.504 . S
C425 C15 1.469 . S
C445 C117 1.641 . S
C443 C26 1.661 . S
C463 C180 1.486 . S
C461 C37 1.486 . S
C481 C233 1.730 . S
C479 C4 1.737 . S
C499 C269 1.510 . S
C497 C16 1.476 . S
C515 C27 1.754 . S
C517 C329 1.738 . S
C535 C392 1.490 . S
C533 C43 1.488 . S
C553 C232 1.581 . S
C551 C21 1.555 . S
C569 C32 1.476 . S
C571 C276 1.463 . S
C589 C322 1.760 . S
C587 C38 1.755 . S
C607 C391 1.676 . S
C605 C5 1.674 . S
C623 C49 1.513 . S
C625 C170 1.533 . S
C643 C127 1.717 . S
C641 C60 1.759 . S
C659 C76 1.490 . S
C661 C163 1.490 . S
C677 C81 1.698 . S
C679 C126 1.704 . S
C697 C338 1.582 . S
C695 C54 1.583 . S
C715 C382 1.690 . S
C713 C59 1.706 . S
C733 C216 1.606 . S
C731 C70 1.613 . S
C749 C87 1.633 . S
C751 C285 1.615 . S
C769 C339 1.670 . S
C767 C65 1.676 . S
C787 C375 1.683 1_556 S
C785 C71 1.680 . S
C805 C223 1.604 . S
C803 C82 1.617 . S
C821 C48 1.565 . S
C823 C286 1.566 . S
