# Generated by pormake.
# Topology pyr, (3,6)-cn, num edge types: 1
# Building blocks:
#     Node 0, Type 0, BuildingBlock: ESEHIV_clean_linker_0, # of connection points: 3
#     Node 1, Type 0, BuildingBlock: ESEHIV_clean_linker_0, # of connection points: 3
#     Node 2, Type 0, BuildingBlock: ESEHIV_clean_linker_0, # of connection points: 3
#     Node 3, Type 0, BuildingBlock: ESEHIV_clean_linker_0, # of connection points: 3
#     Node 4, Type 0, BuildingBlock: ESEHIV_clean_linker_0, # of connection points: 3
#     Node 5, Type 0, BuildingBlock: ESEHIV_clean_linker_0, # of connection points: 3
#     Node 6, Type 0, BuildingBlock: ESEHIV_clean_linker_0, # of connection points: 3
#     Node 7, Type 0, BuildingBlock: ESEHIV_clean_linker_0, # of connection points: 3
#     Node 8, Type 1, BuildingBlock: PAMTOO_clean_sbu_0, # of connection points: 6
#     Node 9, Type 1, BuildingBlock: PAMTOO_clean_sbu_0, # of connection points: 6
#     Node 10, Type 1, BuildingBlock: PAMTOO_clean_sbu_0, # of connection points: 6
#     Node 11, Type 1, BuildingBlock: PAMTOO_clean_sbu_0, # of connection points: 6
#     Edge 12, Type (0, 1), BuildingBlock: MIFKUJ_clean_linker_0, # of connection points: 2
#     Edge 13, Type (0, 1), BuildingBlock: MIFKUJ_clean_linker_0, # of connection points: 2
#     Edge 14, Type (0, 1), BuildingBlock: MIFKUJ_clean_linker_0, # of connection points: 2
#     Edge 15, Type (0, 1), BuildingBlock: MIFKUJ_clean_linker_0, # of connection points: 2
#     Edge 16, Type (0, 1), BuildingBlock: MIFKUJ_clean_linker_0, # of connection points: 2
#     Edge 17, Type (0, 1), BuildingBlock: MIFKUJ_clean_linker_0, # of connection points: 2
#     Edge 18, Type (0, 1), BuildingBlock: MIFKUJ_clean_linker_0, # of connection points: 2
#     Edge 19, Type (0, 1), BuildingBlock: MIFKUJ_clean_linker_0, # of connection points: 2
#     Edge 20, Type (0, 1), BuildingBlock: MIFKUJ_clean_linker_0, # of connection points: 2
#     Edge 21, Type (0, 1), BuildingBlock: MIFKUJ_clean_linker_0, # of connection points: 2
#     Edge 22, Type (0, 1), BuildingBlock: MIFKUJ_clean_linker_0, # of connection points: 2
#     Edge 23, Type (0, 1), BuildingBlock: MIFKUJ_clean_linker_0, # of connection points: 2
#     Edge 24, Type (0, 1), BuildingBlock: MIFKUJ_clean_linker_0, # of connection points: 2
#     Edge 25, Type (0, 1), BuildingBlock: MIFKUJ_clean_linker_0, # of connection points: 2
#     Edge 26, Type (0, 1), BuildingBlock: MIFKUJ_clean_linker_0, # of connection points: 2
#     Edge 27, Type (0, 1), BuildingBlock: MIFKUJ_clean_linker_0, # of connection points: 2
#     Edge 28, Type (0, 1), BuildingBlock: MIFKUJ_clean_linker_0, # of connection points: 2
#     Edge 29, Type (0, 1), BuildingBlock: MIFKUJ_clean_linker_0, # of connection points: 2
#     Edge 30, Type (0, 1), BuildingBlock: MIFKUJ_clean_linker_0, # of connection points: 2
#     Edge 31, Type (0, 1), BuildingBlock: MIFKUJ_clean_linker_0, # of connection points: 2
#     Edge 32, Type (0, 1), BuildingBlock: MIFKUJ_clean_linker_0, # of connection points: 2
#     Edge 33, Type (0, 1), BuildingBlock: MIFKUJ_clean_linker_0, # of connection points: 2
#     Edge 34, Type (0, 1), BuildingBlock: MIFKUJ_clean_linker_0, # of connection points: 2
#     Edge 35, Type (0, 1), BuildingBlock: MIFKUJ_clean_linker_0, # of connection points: 2
# Relax obj value: 0.088
# Max RMSD: 0.157
# Mean RMSD: 0.066
data_MOF--net-pyr--node1-PAMTOO_clean_sbu_0--node2-ESEHIV_clean_linker_0--edge1-MIFKUJ_clean_linker_0
_symmetry_space_group_name_H-M    P1
_symmetry_Int_Tables_number       1
_symmetry_cell_setting            triclinic
loop_
_symmetry_equiv_pos_as_xyz
'x, y, z'
_cell_length_a     45.696868
_cell_length_b     47.956169
_cell_length_c     48.345461
_cell_angle_alpha  90.050721
_cell_angle_beta   90.403978
_cell_angle_gamma 102.48009
loop_
_atom_site_label
_atom_site_type_symbol
_atom_site_fract_x
_atom_site_fract_y
_atom_site_fract_z
_atom_type_partial_charge
H0 H 0.29547 0.3048 0.24399 0.0
H1 H 0.34698 0.24006 0.24941 0.0
H2 H 0.34364 0.28505 0.17294 0.0
C3 C 0.31082 0.29327 0.23463 0.0
C4 C 0.31876 0.298 0.20671 0.0
C5 C 0.32086 0.27247 0.2502 0.0
C6 C 0.33976 0.25672 0.23778 0.0
C7 C 0.34808 0.26117 0.20996 0.0
C8 C 0.33783 0.28207 0.1946 0.0
H9 H 0.17688 0.80701 0.73322 0.0
H10 H 0.22639 0.74086 0.72852 0.0
H11 H 0.16479 0.7501 0.66311 0.0
C12 C 0.18181 0.78868 0.72255 0.0
C13 C 0.16796 0.78012 0.69698 0.0
C14 C 0.2029 0.77465 0.73398 0.0
C15 C 0.20901 0.75084 0.72035 0.0
C16 C 0.1952 0.7416 0.69488 0.0
C17 C 0.17458 0.75633 0.68327 0.0
H18 H 0.67819 0.33352 0.88172 0.0
H19 H 0.68228 0.40319 0.82503 0.0
H20 H 0.6137 0.32613 0.8156 0.0
C21 C 0.66939 0.34275 0.86389 0.0
C22 C 0.64421 0.32666 0.85001 0.0
C23 C 0.6833 0.37041 0.85531 0.0
C24 C 0.67198 0.38176 0.8316 0.0
C25 C 0.64688 0.36609 0.81682 0.0
C26 C 0.63283 0.33862 0.82663 0.0
H27 H 0.83986 0.70194 0.38387 0.0
H28 H 0.9061 0.70736 0.32024 0.0
H29 H 0.8318 0.63467 0.3236 0.0
C30 C 0.84873 0.69257 0.36628 0.0
C31 C 0.83299 0.66603 0.35605 0.0
C32 C 0.87531 0.70762 0.354 0.0
C33 C 0.88571 0.69605 0.33001 0.0
C34 C 0.86985 0.66991 0.31851 0.0
C35 C 0.84352 0.65512 0.33177 0.0
H36 H 0.65486 0.8042 0.81407 0.0
H37 H 0.72641 0.75908 0.81751 0.0
H38 H 0.68423 0.7767 0.89245 0.0
C39 C 0.66902 0.79323 0.82606 0.0
C40 C 0.66641 0.79185 0.85504 0.0
C41 C 0.69101 0.78212 0.81236 0.0
C42 C 0.70875 0.76708 0.82763 0.0
C43 C 0.70571 0.76457 0.85639 0.0
C44 C 0.68488 0.7772 0.87006 0.0
H45 H 0.79535 0.28955 0.31196 0.0
H46 H 0.86858 0.24662 0.31858 0.0
H47 H 0.83676 0.28294 0.3909 0.0
C48 C 0.8129 0.28327 0.32409 0.0
C49 C 0.81451 0.28882 0.35261 0.0
C50 C 0.83236 0.26815 0.31152 0.0
C51 C 0.85405 0.25906 0.3279 0.0
C52 C 0.85565 0.26409 0.35658 0.0
C53 C 0.83614 0.27949 0.36872 0.0
H54 H 0.33909 0.69855 0.18104 0.0
H55 H 0.33239 0.6323 0.24162 0.0
H56 H 0.40875 0.7033 0.24239 0.0
C57 C 0.34844 0.68963 0.19875 0.0
C58 C 0.37593 0.7043 0.21016 0.0
C59 C 0.33276 0.66355 0.20965 0.0
C60 C 0.34482 0.65204 0.23278 0.0
C61 C 0.37211 0.66625 0.24516 0.0
C62 C 0.38744 0.69249 0.23362 0.0
H63 H 0.11053 0.33766 0.74267 0.0
H64 H 0.17588 0.34741 0.67779 0.0
H65 H 0.18023 0.41446 0.73736 0.0
C66 C 0.1301 0.35027 0.73267 0.0
C67 C 0.14354 0.37779 0.74317 0.0
C68 C 0.14195 0.33886 0.70928 0.0
C69 C 0.1669 0.3557 0.69599 0.0
C70 C 0.18067 0.38298 0.70578 0.0
C71 C 0.16916 0.39365 0.72956 0.0
Dy72 Dy 0.04013 0.02943 0.51366 0.0
Dy73 Dy 0.9766 1.0171 0.54769 0.0
C74 C 0.02999 0.07059 0.56381 0.0
O75 O 0.04054 0.99055 0.53838 0.0
O76 O 1.00621 0.99428 0.57197 0.0
O77 O 0.08837 0.03571 0.51236 0.0
O78 O 0.06263 0.03526 0.47438 0.0
O79 O 0.97537 0.97691 0.52369 0.0
O80 O 1.00757 0.99617 0.48921 0.0
O81 O 0.9701 0.04101 0.50929 0.0
O82 O 0.01832 0.065 0.50235 0.0
O83 O 0.92832 1.00767 0.54582 0.0
O84 O 0.9513 1.01586 0.58539 0.0
C85 C 0.02797 0.98308 0.56233 0.0
O86 O 0.04916 0.05811 0.55111 0.0
O87 O 1.00091 0.06078 0.56131 0.0
C88 C 0.11051 0.06577 0.4755 0.0
C89 C 0.15004 0.11423 0.45426 0.0
C90 C 0.14649 0.11066 0.48296 0.0
C91 C 0.1267 0.08668 0.49354 0.0
C92 C 0.11445 0.06926 0.44688 0.0
C93 C 0.13388 0.09329 0.43636 0.0
C94 C 0.08925 0.04032 0.48573 0.0
C95 C 0.98677 0.97516 0.49904 0.0
C96 C 0.98949 0.06248 0.4987 0.0
C97 C 0.90335 0.98508 0.58469 0.0
C98 C 0.85962 0.94115 0.60802 0.0
C99 C 0.88848 0.93676 0.60236 0.0
C100 C 0.91022 0.95861 0.59073 0.0
C101 C 0.87456 0.98937 0.58984 0.0
C102 C 0.85286 0.96761 0.60136 0.0
C103 C 0.92554 1.00845 0.5726 0.0
H104 H 0.15871 0.12658 0.49714 0.0
H105 H 0.12405 0.08459 0.51573 0.0
H106 H 0.10237 0.05336 0.4326 0.0
H107 H 0.1366 0.09531 0.41415 0.0
H108 H 0.89445 0.91671 0.60747 0.0
H109 H 0.93238 0.95495 0.58665 0.0
H110 H 0.86886 1.00961 0.58499 0.0
H111 H 0.83073 0.97151 0.60501 0.0
Dy112 Dy 0.47655 1.01684 1.02223 0.0
Dy113 Dy 0.53949 0.02773 0.05697 0.0
C114 C 0.48586 0.97401 0.07029 0.0
O115 O 0.46946 0.03895 0.06149 0.0
O116 O 0.51766 0.06336 0.06872 0.0
O117 O 0.42838 1.00284 1.02094 0.0
O118 O 0.45251 0.02066 0.98437 0.0
O119 O 0.54875 0.05585 1.01927 0.0
O120 O 0.50087 0.06118 1.01127 0.0
O121 O 0.53733 0.98772 0.03295 0.0
O122 O 0.5077 0.99692 0.99726 0.0
O123 O 0.58716 0.03029 0.05816 0.0
O124 O 0.56329 0.03519 0.09597 0.0
C125 C 0.48879 0.06024 0.07271 0.0
O126 O 0.47511 0.97606 0.04526 0.0
O127 O 0.5065 0.99488 0.08086 0.0
C128 C 0.40969 0.98437 0.97775 0.0
C129 C 0.37847 0.94092 0.94283 0.0
C130 C 0.40328 0.93671 0.95837 0.0
C131 C 0.41886 0.95835 0.97567 0.0
C132 C 0.38463 0.98843 0.96282 0.0
C133 C 0.3691 0.96688 0.94549 0.0
C134 C 0.42678 1.00781 0.99452 0.0
C135 C 0.5299 0.0696 1.00755 0.0
C136 C 0.52678 0.98284 1.00774 0.0
C137 C 0.61399 0.05936 0.09367 0.0
C138 C 0.66241 0.10229 0.11228 0.0
C139 C 0.64977 0.10409 0.08588 0.0
C140 C 0.62568 0.08278 0.07664 0.0
C141 C 0.62633 0.05768 0.12002 0.0
C142 C 0.6502 0.07894 0.12929 0.0
C143 C 0.58928 0.03613 0.08457 0.0
H144 H 0.41115 0.91705 0.95653 0.0
H145 H 0.43833 0.95501 0.98704 0.0
H146 H 0.3773 1.00841 0.96428 0.0
H147 H 0.34982 0.97057 0.93407 0.0
H148 H 0.6587 0.12174 0.07225 0.0
H149 H 0.61635 0.08452 0.05621 0.0
H150 H 0.61746 0.03985 0.1335 0.0
H151 H 0.65884 0.07721 0.14999 0.0
Dy152 Dy 0.50555 0.49 0.51693 0.0
Dy153 Dy 0.51212 0.54999 0.5504 0.0
C154 C 0.53791 0.49783 0.57589 0.0
O155 O 0.46843 0.48258 0.54792 0.0
O156 O 0.46335 0.52866 0.55248 0.0
O157 O 0.49856 0.44401 0.51696 0.0
O158 O 0.50479 0.46712 0.4783 0.0
O159 O 0.49815 0.55877 0.50724 0.0
O160 O 0.4752 0.51345 0.49397 0.0
O161 O 0.55846 0.55234 0.5337 0.0
O162 O 0.54504 0.51989 0.4985 0.0
O163 O 0.51982 0.59609 0.55215 0.0
O164 O 0.50944 0.57123 0.58941 0.0
C165 C 0.45301 0.50117 0.5561 0.0
O166 O 0.5393 0.48813 0.5506 0.0
O167 O 0.52409 0.51866 0.58077 0.0
C168 C 0.52742 0.42794 0.48262 0.0
C169 C 0.57516 0.4039 0.46474 0.0
C170 C 0.57683 0.41818 0.49031 0.0
C171 C 0.55327 0.43023 0.49909 0.0
C172 C 0.52535 0.41326 0.45739 0.0
C173 C 0.54901 0.40135 0.44848 0.0
C174 C 0.50376 0.44276 0.49055 0.0
C175 C 0.48056 0.54129 0.49016 0.0
C176 C 0.56437 0.54105 0.51007 0.0
C177 C 0.48659 0.6099 0.58385 0.0
C178 C 0.43528 0.62992 0.59884 0.0
C179 C 0.43567 0.61462 0.57409 0.0
C180 C 0.46103 0.60459 0.56673 0.0
C181 C 0.48662 0.62573 0.60822 0.0
C182 C 0.46115 0.63568 0.61568 0.0
C183 C 0.51161 0.59611 0.57792 0.0
H184 H 0.59641 0.42019 0.50353 0.0
H185 H 0.55548 0.44175 0.51855 0.0
H186 H 0.50573 0.41162 0.44426 0.0
H187 H 0.54715 0.39088 0.4285 0.0
H188 H 0.41596 0.60946 0.56091 0.0
H189 H 0.46035 0.5919 0.54808 0.0
H190 H 0.50601 0.6297 0.62184 0.0
H191 H 0.46157 0.6476 0.63477 0.0
Dy192 Dy 0.00937 0.55249 1.01612 0.0
Dy193 Dy 1.00463 0.49269 0.04904 0.0
C194 C 0.98013 0.5444 0.07566 0.0
O195 O 0.04808 0.55992 0.04591 0.0
O196 O 0.05334 0.51389 0.05103 0.0
O197 O 0.01579 0.59841 1.01761 0.0
O198 O 1.00794 0.5763 0.9784 0.0
O199 O 0.0185 0.48406 1.00591 0.0
O200 O 0.03893 0.52962 0.99161 0.0
O201 O 0.95774 0.49077 0.03341 0.0
O202 O 0.97009 0.52219 0.99757 0.0
O203 O 0.99633 0.44657 0.05026 0.0
O204 O 1.00768 0.47112 0.08781 0.0
C205 C 0.06374 0.54146 0.05418 0.0
O206 O 0.97607 0.55271 0.05029 0.0
O207 O 0.99587 0.52493 0.08005 0.0
C208 C 0.98526 0.61505 0.98523 0.0
C209 C 0.93795 0.64188 0.97192 0.0
C210 C 0.9331 0.61793 0.98942 0.0
C211 C 0.95655 0.6046 0.99595 0.0
C212 C 0.99038 0.63905 0.96804 0.0
C213 C 0.9669 0.6524 0.96142 0.0
C214 C 0.0095 0.60035 0.99145 0.0
C215 C 0.03463 0.50174 0.98824 0.0
C216 C 0.95109 0.50141 1.00966 0.0
C217 C 0.02916 0.43153 0.08211 0.0
C218 C 0.07989 0.41036 0.09712 0.0
C219 C 0.07778 0.42196 0.0707 0.0
C220 C 0.05271 0.43267 0.06332 0.0
C221 C 0.03076 0.41909 0.10813 0.0
C222 C 0.05595 0.40864 0.11561 0.0
C223 C 1.00479 0.44625 0.07604 0.0
H224 H 0.9112 0.60951 0.99812 0.0
H225 H 0.95223 0.58601 1.00925 0.0
H226 H 0.01241 0.64725 0.95949 0.0
H227 H 0.97126 0.67056 0.94759 0.0
H228 H 0.09603 0.42381 0.05617 0.0
H229 H 0.05221 0.44267 0.04329 0.0
H230 H 0.01295 0.41832 0.12298 0.0
H231 H 0.05694 0.39957 0.13603 0.0
H232 H 0.26299 0.26581 0.2669 0.0
H233 H 0.24186 0.24902 0.3114 0.0
H234 H 0.32969 0.24396 0.34147 0.0
H235 H 0.35118 0.26093 0.29658 0.0
H236 H 0.2904 0.19582 0.35084 0.0
H237 H 0.29288 0.2933 0.36895 0.0
H238 H 0.28605 0.34201 0.35955 0.0
H239 H 0.19097 0.31046 0.35215 0.0
H240 H 0.19722 0.26147 0.3611 0.0
H241 H 0.20858 0.13534 0.46869 0.0
H242 H 0.24491 0.17208 0.44417 0.0
H243 H 0.17482 0.18558 0.38882 0.0
H244 H 0.13859 0.14916 0.41327 0.0
H245 H 0.2153 0.2361 0.40207 0.0
H246 H 0.21564 0.13905 0.37172 0.0
H247 H 0.22159 0.08968 0.37907 0.0
H248 H 0.31158 0.12118 0.40848 0.0
H249 H 0.30597 0.17079 0.40164 0.0
C250 C 0.27801 0.26192 0.28318 0.0
C251 C 0.30881 0.2649 0.27828 0.0
C252 C 0.26587 0.25232 0.30868 0.0
C253 C 0.28425 0.24568 0.32996 0.0
C254 C 0.31514 0.24916 0.32538 0.0
C255 C 0.32735 0.25873 0.29975 0.0
C256 C 0.27038 0.23231 0.3557 0.0
C257 C 0.27469 0.20506 0.36259 0.0
C258 C 0.24954 0.24415 0.37081 0.0
C259 C 0.24556 0.27365 0.36564 0.0
C260 C 0.27052 0.2967 0.36517 0.0
C261 C 0.26675 0.32438 0.35994 0.0
C262 C 0.2381 0.32932 0.35524 0.0
C263 C 0.21315 0.3066 0.35582 0.0
C264 C 0.21679 0.27887 0.36103 0.0
C265 C 0.20089 0.1467 0.45172 0.0
C266 C 0.17094 0.13926 0.44259 0.0
C267 C 0.22161 0.16757 0.43772 0.0
C268 C 0.21255 0.1813 0.41455 0.0
C269 C 0.18224 0.17524 0.40666 0.0
C270 C 0.16164 0.1543 0.42047 0.0
C271 C 0.23475 0.19947 0.39642 0.0
C272 C 0.23187 0.22746 0.39092 0.0
C273 C 0.25688 0.18835 0.3825 0.0
C274 C 0.26025 0.15858 0.38655 0.0
C275 C 0.2366 0.13543 0.37998 0.0
C276 C 0.23992 0.10742 0.38401 0.0
C277 C 0.26691 0.1023 0.39434 0.0
C278 C 0.29066 0.12519 0.40057 0.0
C279 C 0.28742 0.15325 0.39663 0.0
H280 H 0.26945 0.08059 0.39743 0.0
H281 H 0.23523 0.35076 0.35118 0.0
H282 H 0.21873 0.74697 0.7796 0.0
H283 H 0.25191 0.76808 0.8179 0.0
H284 H 0.26242 0.85115 0.78027 0.0
H285 H 0.22976 0.83034 0.7421 0.0
H286 H 0.31655 0.83794 0.79679 0.0
H287 H 0.2164 0.83438 0.83291 0.0
H288 H 0.16557 0.80952 0.84663 0.0
H289 H 0.20297 0.75825 0.90408 0.0
H290 H 0.25406 0.78259 0.8904 0.0
H291 H 0.3607 0.94915 0.89021 0.0
H292 H 0.33443 0.91342 0.85763 0.0
H293 H 0.33567 0.84704 0.91753 0.0
H294 H 0.36155 0.88303 0.9507 0.0
H295 H 0.28056 0.84179 0.89304 0.0
H296 H 0.38063 0.85149 0.86318 0.0
H297 H 0.43157 0.87639 0.84993 0.0
H298 H 0.39561 0.91482 0.78104 0.0
H299 H 0.34439 0.89051 0.7941 0.0
C300 C 0.22808 0.76974 0.77965 0.0
C301 C 0.22139 0.78709 0.75809 0.0
C302 C 0.24694 0.78173 0.80147 0.0
C303 C 0.25952 0.81114 0.80185 0.0
C304 C 0.25293 0.82839 0.78031 0.0
C305 C 0.23399 0.81653 0.7587 0.0
C306 C 0.27958 0.82445 0.82454 0.0
C307 C 0.30875 0.83883 0.81785 0.0
C308 C 0.26968 0.82458 0.85217 0.0
C309 C 0.23901 0.81002 0.86038 0.0
C310 C 0.21377 0.81762 0.84827 0.0
C311 C 0.18492 0.80367 0.85608 0.0
C312 C 0.18104 0.78224 0.87614 0.0
C313 C 0.20601 0.77479 0.8885 0.0
C314 C 0.23491 0.78866 0.88073 0.0
C315 C 0.35525 0.92698 0.89655 0.0
C316 C 0.36305 0.91889 0.92304 0.0
C317 C 0.34054 0.90654 0.8778 0.0
C318 C 0.33348 0.87755 0.88506 0.0
C319 C 0.34112 0.86931 0.91152 0.0
C320 C 0.35599 0.88982 0.93034 0.0
C321 C 0.31716 0.85633 0.86502 0.0
C322 C 0.28873 0.84037 0.87217 0.0
C323 C 0.3278 0.85461 0.8378 0.0
C324 C 0.35861 0.86925 0.82973 0.0
C325 C 0.38355 0.8654 0.84531 0.0
C326 C 0.41249 0.8794 0.83782 0.0
C327 C 0.41682 0.8972 0.81468 0.0
C328 C 0.39222 0.90101 0.79895 0.0
C329 C 0.36322 0.88709 0.80637 0.0
H330 H 0.43925 0.90802 0.80891 0.0
H331 H 0.15869 0.77147 0.88217 0.0
H332 H 0.58845 0.36298 0.79925 0.0
H333 H 0.57092 0.38426 0.75797 0.0
H334 H 0.66244 0.41874 0.7346 0.0
H335 H 0.68005 0.39765 0.77575 0.0
H336 H 0.63231 0.45783 0.7263 0.0
H337 H 0.61624 0.359 0.70151 0.0
H338 H 0.59669 0.30721 0.70696 0.0
H339 H 0.50655 0.32002 0.70586 0.0
H340 H 0.52559 0.37195 0.70077 0.0
H341 H 0.56399 0.45092 0.57563 0.0
H342 H 0.58334 0.42817 0.61515 0.0
H343 H 0.55985 0.49071 0.66993 0.0
H344 H 0.54083 0.51365 0.63066 0.0
H345 H 0.55812 0.40226 0.66065 0.0
H346 H 0.6088 0.50413 0.72397 0.0
H347 H 0.63226 0.5548 0.71586 0.0
H348 H 0.66015 0.53382 0.63526 0.0
H349 H 0.63722 0.48301 0.64303 0.0
C350 C 0.6049 0.37483 0.78522 0.0
C351 C 0.63577 0.37851 0.79112 0.0
C352 C 0.5948 0.38707 0.76149 0.0
C353 C 0.61524 0.40308 0.74273 0.0
C354 C 0.64604 0.40671 0.7486 0.0
C355 C 0.65613 0.39461 0.77233 0.0
C356 C 0.60475 0.41637 0.71726 0.0
C357 C 0.61601 0.44559 0.71206 0.0
C358 C 0.58387 0.40059 0.69807 0.0
C359 C 0.57235 0.36939 0.70102 0.0
C360 C 0.59226 0.35079 0.70263 0.0
C361 C 0.58127 0.32141 0.70562 0.0
C362 C 0.5504 0.31034 0.70683 0.0
C363 C 0.53045 0.32862 0.70496 0.0
C364 C 0.54133 0.35803 0.702 0.0
C365 C 0.56312 0.46 0.59604 0.0
C366 C 0.55092 0.48434 0.59973 0.0
C367 C 0.57408 0.44681 0.61874 0.0
C368 C 0.5734 0.45771 0.64574 0.0
C369 C 0.56117 0.48198 0.64942 0.0
C370 C 0.55017 0.4951 0.62681 0.0
C371 C 0.58529 0.44378 0.67005 0.0
C372 C 0.57431 0.41448 0.675 0.0
C373 C 0.60686 0.45934 0.68875 0.0
C374 C 0.62102 0.48981 0.684 0.0
C375 C 0.62003 0.51033 0.70456 0.0
C376 C 0.63323 0.53907 0.70002 0.0
C377 C 0.6476 0.54754 0.67503 0.0
C378 C 0.64891 0.52726 0.65456 0.0
C379 C 0.63579 0.49849 0.65901 0.0
H380 H 0.65778 0.5698 0.67154 0.0
H381 H 0.54193 0.28758 0.70915 0.0
H382 H 0.83822 0.64999 0.27138 0.0
H383 H 0.85609 0.6303 0.22962 0.0
H384 H 0.94421 0.6412 0.26631 0.0
H385 H 0.92665 0.66244 0.30742 0.0
H386 H 0.95295 0.65286 0.21668 0.0
H387 H 0.8886 0.57269 0.25878 0.0
H388 H 0.84213 0.54477 0.27924 0.0
H389 H 0.79489 0.5498 0.20294 0.0
H390 H 0.84101 0.57807 0.18213 0.0
H391 H 1.00086 0.54869 0.12916 0.0
H392 H 0.98201 0.57124 0.16882 0.0
H393 H 0.91276 0.59261 0.11734 0.0
H394 H 0.9322 0.57089 0.07719 0.0
H395 H 0.89414 0.56464 0.17293 0.0
H396 H 0.96428 0.6425 0.13112 0.0
H397 H 0.01345 0.66711 0.11324 0.0
H398 H 0.05313 0.66253 0.19341 0.0
H399 H 1.00445 0.63693 0.21153 0.0
C400 C 0.86141 0.64815 0.27054 0.0
C401 C 0.88092 0.65774 0.2929 0.0
C402 C 0.87166 0.63662 0.24662 0.0
C403 C 0.90153 0.63339 0.24461 0.0
C404 C 0.92108 0.64325 0.26694 0.0
C405 C 0.911 0.6554 0.2906 0.0
C406 C 0.9125 0.62012 0.21932 0.0
C407 C 0.94012 0.63334 0.20749 0.0
C408 C 0.89594 0.59476 0.20658 0.0
C409 C 0.86818 0.57775 0.219 0.0
C410 C 0.86825 0.56801 0.24643 0.0
C411 C 0.84198 0.5521 0.25808 0.0
C412 C 0.81556 0.54559 0.24242 0.0
C413 C 0.81537 0.5549 0.21505 0.0
C414 C 0.84157 0.57085 0.20332 0.0
C415 C 0.98158 0.55814 0.12619 0.0
C416 C 0.96804 0.55784 0.09986 0.0
C417 C 0.97086 0.57113 0.14896 0.0
C418 C 0.94589 0.58368 0.14623 0.0
C419 C 0.93202 0.58307 0.12007 0.0
C420 C 0.94322 0.5707 0.09708 0.0
C421 C 0.93441 0.59736 0.17068 0.0
C422 C 0.90678 0.58417 0.18228 0.0
C423 C 0.95133 0.62227 0.18363 0.0
C424 C 0.98073 0.63739 0.1726 0.0
C425 C 0.98357 0.64629 0.14484 0.0
C426 C 0.01138 0.66046 0.13466 0.0
C427 C 0.03645 0.66623 0.15213 0.0
C428 C 0.03374 0.65792 0.17984 0.0
C429 C 1.00606 0.64349 0.19006 0.0
H430 H 0.05796 0.67725 0.14423 0.0
H431 H 0.79525 0.53327 0.25148 0.0
H432 H 0.3358 0.20321 0.21114 0.0
H433 H 0.36328 0.1711 0.18896 0.0
H434 H 0.42626 0.24358 0.15611 0.0
H435 H 0.39811 0.27589 0.1778 0.0
H436 H 0.41193 0.20408 0.1181 0.0
H437 H 0.44403 0.2041 0.21227 0.0
H438 H 0.43786 0.19998 0.26283 0.0
H439 H 0.39004 0.11293 0.25367 0.0
H440 H 0.39555 0.11665 0.20301 0.0
H441 H 0.51548 0.11642 0.08058 0.0
H442 H 0.4947 0.1527 0.10483 0.0
H443 H 0.41622 0.08872 0.12574 0.0
H444 H 0.43645 0.05256 0.10103 0.0
H445 H 0.44283 0.12627 0.17063 0.0
H446 H 0.4122 0.12754 0.07525 0.0
H447 H 0.41871 0.13332 1.02491 0.0
H448 H 0.46403 0.22077 0.03668 0.0
H449 H 0.45956 0.21504 0.08711 0.0
C450 C 0.35566 0.21229 0.19938 0.0
C451 C 0.3651 0.24201 0.19643 0.0
C452 C 0.37141 0.19394 0.18677 0.0
C453 C 0.39726 0.20492 0.17139 0.0
C454 C 0.40649 0.23463 0.16805 0.0
C455 C 0.39046 0.25305 0.1804 0.0
C456 C 0.41406 0.18521 0.15825 0.0
C457 C 0.41927 0.18744 0.12968 0.0
C458 C 0.42311 0.16315 0.17331 0.0
C459 C 0.42004 0.16073 0.20381 0.0
C460 C 0.43205 0.18413 0.22102 0.0
C461 C 0.42868 0.18186 0.24971 0.0
C462 C 0.41352 0.15623 0.26145 0.0
C463 C 0.40177 0.13278 0.24454 0.0
C464 C 0.40504 0.13494 0.21584 0.0
C465 C 0.49392 0.11008 0.09057 0.0
C466 C 0.47751 0.08172 0.08893 0.0
C467 C 0.48207 0.13081 0.10428 0.0
C468 C 0.45393 0.12332 0.11693 0.0
C469 C 0.43799 0.09485 0.11608 0.0
C470 C 0.44951 0.07428 0.1019 0.0
C471 C 0.44058 0.14518 0.13055 0.0
C472 C 0.43592 0.14323 0.15917 0.0
C473 C 0.43235 0.16768 0.11556 0.0
C474 C 0.4361 0.17065 0.08513 0.0
C475 C 0.42431 0.14778 0.0672 0.0
C476 C 0.42766 0.15105 0.03858 0.0
C477 C 0.44216 0.17729 1.02757 0.0
C478 C 0.45329 0.2003 0.04517 0.0
C479 C 0.45051 0.197 0.0738 0.0
H480 H 0.44455 0.17986 1.0054 0.0
H481 H 0.41092 0.15452 0.28366 0.0
H482 H 0.11355 0.76277 0.67051 0.0
H483 H 0.08265 0.79334 0.64952 0.0
H484 H 0.14948 0.86814 0.67236 0.0
H485 H 0.18011 0.83799 0.69317 0.0
H486 H 0.09526 0.87633 0.68355 0.0
H487 H 0.14425 0.84089 0.60662 0.0
H488 H 0.15693 0.80346 0.57686 0.0
H489 H 0.06368 0.77207 0.55781 0.0
H490 H 0.05044 0.80912 0.58778 0.0
H491 H 0.07683 0.96095 0.55199 0.0
H492 H 0.09349 0.92291 0.57647 0.0
H493 H 0.01885 0.91478 0.63226 0.0
H494 H 1.00211 0.95352 0.60795 0.0
H495 H 0.06893 0.86854 0.58373 0.0
H496 H 0.04198 0.89356 0.69571 0.0
H497 H 0.03514 0.93433 0.72429 0.0
H498 H 0.09384 0.99223 0.67097 0.0
H499 H 0.10129 0.95178 0.6423 0.0
C500 C 0.12157 0.78574 0.67093 0.0
C501 C 0.14909 0.79799 0.6837 0.0
C502 C 0.10391 0.80316 0.65904 0.0
C503 C 0.11372 0.83305 0.65948 0.0
C504 C 0.14124 0.84518 0.67211 0.0
C505 C 0.15874 0.82789 0.684 0.0
C506 C 0.09617 0.85208 0.64612 0.0
C507 C 0.08917 0.87442 0.66178 0.0
C508 C 0.0884 0.84975 0.61771 0.0
C509 C 0.09633 0.82751 0.5997 0.0
C510 C 0.12644 0.82585 0.59626 0.0
C511 C 0.13373 0.80474 0.57933 0.0
C512 C 0.11111 0.78533 0.56553 0.0
C513 C 0.08116 0.78707 0.56857 0.0
C514 C 0.07376 0.80812 0.58552 0.0
C515 C 0.06386 0.95118 0.56948 0.0
C516 C 0.03816 0.9604 0.57806 0.0
C517 C 0.07337 0.92926 0.58338 0.0
C518 C 0.05745 0.91594 0.60619 0.0
C519 C 0.03164 0.92492 0.61483 0.0
C520 C 0.02214 0.94709 0.60096 0.0
C521 C 0.0687 0.89321 0.621 0.0
C522 C 0.07437 0.87007 0.60564 0.0
C523 C 0.07595 0.89523 0.64953 0.0
C524 C 0.07184 0.91969 0.66669 0.0
C525 C 0.05344 0.915 0.69013 0.0
C526 C 0.04947 0.93804 0.70634 0.0
C527 C 0.06395 0.96586 0.69938 0.0
C528 C 0.08253 0.97068 0.67627 0.0
C529 C 0.08661 0.94771 0.66002 0.0
H530 H 0.06083 0.98367 0.71194 0.0
H531 H 0.1168 0.76901 0.55242 0.0
H532 H 0.69227 0.37199 0.91167 0.0
H533 H 0.73668 0.39502 0.93761 0.0
H534 H 0.77832 0.43123 0.86221 0.0
H535 H 0.73449 0.40648 0.8357 0.0
H536 H 0.81793 0.41312 0.89076 0.0
H537 H 0.74944 0.47148 0.91388 0.0
H538 H 0.70215 0.48267 0.92989 0.0
H539 H 0.71385 0.44628 1.00925 0.0
H540 H 0.76103 0.43453 0.99359 0.0
H541 H 0.93456 0.51311 0.95724 0.0
H542 H 0.88865 0.49213 0.93213 0.0
H543 H 0.85577 0.44112 1.00327 0.0
H544 H 0.90211 0.46197 0.02875 0.0
H545 H 0.8122 0.46758 0.97713 0.0
H546 H 0.88228 0.41004 0.95192 0.0
H547 H 0.93058 0.40217 0.93486 0.0
H548 H 0.91643 0.44131 0.85749 0.0
H549 H 0.86823 0.44982 0.87425 0.0
C550 C 0.7109 0.38461 0.90041 0.0
C551 C 0.70966 0.387 0.87137 0.0
C552 C 0.73627 0.39823 0.91545 0.0
C553 C 0.76097 0.41533 0.9021 0.0
C554 C 0.75965 0.41824 0.87316 0.0
C555 C 0.73434 0.40428 0.85799 0.0
C556 C 0.78845 0.4292 0.91823 0.0
C557 C 0.81658 0.42539 0.90938 0.0
C558 C 0.78701 0.44486 0.94296 0.0
C559 C 0.75863 0.45188 0.95246 0.0
C560 C 0.74181 0.46567 0.93467 0.0
C561 C 0.71505 0.47215 0.9437 0.0
C562 C 0.70496 0.46513 0.97054 0.0
C563 C 0.72167 0.45168 0.98845 0.0
C564 C 0.74844 0.44513 0.97952 0.0
C565 C 0.91762 0.49751 0.96774 0.0
C566 C 0.92223 0.4892 0.99512 0.0
C567 C 0.89134 0.48545 0.95322 0.0
C568 C 0.86881 0.46484 0.96566 0.0
C569 C 0.87287 0.45695 0.99321 0.0
C570 C 0.89942 0.46884 1.00773 0.0
C571 C 0.84135 0.45136 0.94959 0.0
C572 C 0.81334 0.45529 0.95847 0.0
C573 C 0.84294 0.4362 0.92468 0.0
C574 C 0.87176 0.4308 0.91445 0.0
C575 C 0.88957 0.41717 0.93135 0.0
C576 C 0.91692 0.41256 0.92172 0.0
C577 C 0.92661 0.4213 0.89513 0.0
C578 C 0.90891 0.43458 0.87809 0.0
C579 C 0.88156 0.43928 0.88764 0.0
H580 H 0.94779 0.41772 0.88772 0.0
H581 H 0.68424 0.47016 0.97749 0.0
H582 H 0.78015 0.63274 0.33502 0.0
H583 H 0.73551 0.60934 0.3606 0.0
H584 H 0.77908 0.64096 0.43732 0.0
H585 H 0.82419 0.66254 0.41225 0.0
H586 H 0.74913 0.59119 0.44683 0.0
H587 H 0.72395 0.67215 0.40167 0.0
H588 H 0.71741 0.70292 0.36226 0.0
H589 H 0.65376 0.6337 0.32516 0.0
H590 H 0.66021 0.6024 0.3642 0.0
H591 H 0.61561 0.5782 0.52902 0.0
H592 H 0.66152 0.5977 0.50299 0.0
H593 H 0.62297 0.55085 0.43065 0.0
H594 H 0.57749 0.53113 0.45637 0.0
H595 H 0.64959 0.60751 0.41881 0.0
H596 H 0.67467 0.5274 0.46609 0.0
H597 H 0.68077 0.49834 0.50692 0.0
H598 H 0.74447 0.56891 0.54184 0.0
H599 H 0.73844 0.59853 0.50135 0.0
C600 C 0.78045 0.63437 0.35736 0.0
C601 C 0.80587 0.65011 0.37135 0.0
C602 C 0.75463 0.62125 0.37203 0.0
C603 C 0.75335 0.62385 0.40104 0.0
C604 C 0.77909 0.63869 0.41502 0.0
C605 C 0.80492 0.65143 0.40048 0.0
C606 C 0.72537 0.61154 0.41696 0.0
C607 C 0.72749 0.59515 0.44077 0.0
C608 C 0.69676 0.61609 0.40916 0.0
C609 C 0.6928 0.63486 0.3857 0.0
C610 C 0.70872 0.66344 0.38501 0.0
C611 C 0.70501 0.68098 0.36276 0.0
C612 C 0.68525 0.67025 0.34118 0.0
C613 C 0.6691 0.64197 0.34186 0.0
C614 C 0.67275 0.62433 0.36405 0.0
C615 C 0.61694 0.57199 0.50761 0.0
C616 C 0.59276 0.55296 0.49493 0.0
C617 C 0.64325 0.58311 0.49274 0.0
C618 C 0.64582 0.57572 0.46479 0.0
C619 C 0.62162 0.55695 0.45211 0.0
C620 C 0.59559 0.54556 0.46699 0.0
C621 C 0.67355 0.58749 0.44859 0.0
C622 C 0.67132 0.60369 0.42477 0.0
C623 C 0.70207 0.58308 0.45657 0.0
C624 C 0.70587 0.56527 0.48083 0.0
C625 C 0.68979 0.5368 0.48258 0.0
C626 C 0.69327 0.52021 0.50564 0.0
C627 C 0.71293 0.5318 0.527 0.0
C628 C 0.72922 0.55998 0.5253 0.0
C629 C 0.7258 0.57666 0.50229 0.0
H630 H 0.71559 0.51893 0.54484 0.0
H631 H 0.68241 0.68387 0.32397 0.0
H632 H 0.29516 0.28817 0.15444 0.0
H633 H 0.26088 0.31352 0.1314 0.0
H634 H 0.2722 0.37441 0.19836 0.0
H635 H 0.30744 0.34991 0.22107 0.0
H636 H 0.21217 0.34178 0.18877 0.0
H637 H 0.29482 0.39901 0.13973 0.0
H638 H 0.33942 0.40757 0.10994 0.0
H639 H 0.28708 0.3622 0.04339 0.0
H640 H 0.24223 0.35298 0.07293 0.0
H641 H 0.11125 0.42407 0.14503 0.0
H642 H 0.15682 0.4094 0.15995 0.0
H643 H 0.15674 0.36196 0.08403 0.0
H644 H 0.11136 0.37721 0.06872 0.0
H645 H 0.21236 0.38839 0.09718 0.0
H646 H 0.13137 0.32823 0.14447 0.0
H647 H 0.08595 0.31641 0.17311 0.0
H648 H 0.13404 0.36239 0.24157 0.0
H649 H 0.17966 0.37485 0.2132 0.0
C650 C 0.29136 0.30761 0.16376 0.0
C651 C 0.30374 0.31679 0.18982 0.0
C652 C 0.27162 0.32199 0.1506 0.0
C653 C 0.26389 0.34564 0.16334 0.0
C654 C 0.27783 0.35608 0.18831 0.0
C655 C 0.29783 0.34197 0.2013 0.0
C656 C 0.23828 0.35687 0.15277 0.0
C657 C 0.21237 0.35246 0.16896 0.0
C658 C 0.23826 0.36962 0.12644 0.0
C659 C 0.26522 0.37504 0.10866 0.0
C660 C 0.29288 0.39059 0.11885 0.0
C661 C 0.31819 0.39563 0.10198 0.0
C662 C 0.3161 0.38537 0.07482 0.0
C663 C 0.28867 0.3701 0.06445 0.0
C664 C 0.26329 0.36499 0.08124 0.0
C665 C 0.12088 0.41039 0.13159 0.0
C666 C 0.10759 0.40143 0.1059 0.0
C667 C 0.14694 0.40207 0.14009 0.0
C668 C 0.15991 0.38417 0.12331 0.0
C669 C 0.14709 0.37574 0.09732 0.0
C670 C 0.12116 0.38437 0.08864 0.0
C671 C 0.1863 0.37364 0.13338 0.0
C672 C 0.21222 0.3779 0.11706 0.0
C673 C 0.18624 0.3602 0.15945 0.0
C674 C 0.15885 0.35272 0.17661 0.0
C675 C 0.1322 0.33601 0.16556 0.0
C676 C 0.10643 0.32917 0.18176 0.0
C677 C 0.10709 0.33871 0.20912 0.0
C678 C 0.13355 0.35506 0.22036 0.0
C679 C 0.15938 0.362 0.20424 0.0
H680 H 0.08711 0.33337 0.22163 0.0
H681 H 0.33572 0.38931 0.06179 0.0
H682 H 0.67246 0.28397 0.86446 0.0
H683 H 0.65157 0.23932 0.88833 0.0
H684 H 0.56367 0.25844 0.8844 0.0
H685 H 0.58475 0.30365 0.86074 0.0
H686 H 0.57603 0.24235 0.93594 0.0
H687 H 0.58185 0.20457 0.84499 0.0
H688 H 0.60607 0.19708 0.80101 0.0
H689 H 0.67015 0.15982 0.84484 0.0
H690 H 0.64656 0.16745 0.88915 0.0
H691 H 0.49824 0.10703 0.98574 0.0
H692 H 0.5166 0.14902 0.95711 0.0
H693 H 0.60581 0.13302 0.96083 0.0
H694 H 0.58756 0.09079 0.98957 0.0
H695 H 0.59183 0.14706 0.90846 0.0
H696 H 0.58665 0.18467 0.99914 0.0
H697 H 0.56399 0.19337 0.04355 0.0
H698 H 0.50073 0.23258 1.00075 0.0
H699 H 0.52227 0.2232 0.9561 0.0
C700 C 0.64859 0.27855 0.86838 0.0
C701 C 0.63031 0.2975 0.86071 0.0
C702 C 0.63661 0.25286 0.88195 0.0
C703 C 0.60593 0.24523 0.88818 0.0
C704 C 0.5874 0.26373 0.87987 0.0
C705 C 0.59941 0.28947 0.8661 0.0
C706 C 0.59371 0.21879 0.90465 0.0
C707 C 0.57897 0.22143 0.92961 0.0
C708 C 0.5984 0.19152 0.89704 0.0
C709 C 0.61258 0.18682 0.87042 0.0
C710 C 0.60125 0.19498 0.84528 0.0
C711 C 0.61484 0.19068 0.82028 0.0
C712 C 0.63967 0.17804 0.82014 0.0
C713 C 0.65092 0.16963 0.84499 0.0
C714 C 0.63743 0.17391 0.87005 0.0
C715 C 0.5218 0.11234 0.98053 0.0
C716 C 0.54138 0.09538 0.99012 0.0
C717 C 0.53231 0.13653 0.96416 0.0
C718 C 0.5627 0.14449 0.95685 0.0
C719 C 0.58227 0.12743 0.96611 0.0
C720 C 0.5718 0.1033 0.98268 0.0
C721 C 0.57396 0.17061 0.93967 0.0
C722 C 0.58866 0.16794 0.91467 0.0
C723 C 0.56935 0.1979 0.9473 0.0
C724 C 0.55585 0.20289 0.9742 0.0
C725 C 0.56758 0.19472 0.99917 0.0
C726 C 0.55493 0.19979 1.02442 0.0
C727 C 0.53081 0.21336 1.02502 0.0
C728 C 0.51924 0.22185 1.00034 0.0
C729 C 0.53163 0.21662 0.97503 0.0
H730 H 0.52121 0.21745 0.04462 0.0
H731 H 0.65017 0.17473 0.80076 0.0
H732 H 0.88399 0.72064 0.40914 0.0
H733 H 0.9044 0.76689 0.43046 0.0
H734 H 0.92517 0.80411 0.34999 0.0
H735 H 0.90373 0.75774 0.32819 0.0
H736 H 0.97164 0.82246 0.39223 0.0
H737 H 0.86591 0.81581 0.37881 0.0
H738 H 0.81245 0.79233 0.3821 0.0
H739 H 0.81976 0.79125 0.47067 0.0
H740 H 0.87342 0.81433 0.46789 0.0
H741 H 0.99791 0.96561 0.44424 0.0
H742 H 0.98095 0.92177 0.41729 0.0
H743 H 0.93598 0.88013 0.48912 0.0
H744 H 0.95195 0.92409 0.51579 0.0
H745 H 0.90145 0.86513 0.44771 0.0
H746 H 1.00579 0.86817 0.463 0.0
H747 H 0.06009 0.88889 0.46203 0.0
H748 H 0.05679 0.89424 0.37345 0.0
H749 H 1.00237 0.87388 0.37391 0.0
C750 C 0.89273 0.73859 0.3958 0.0
C751 C 0.89155 0.73535 0.36678 0.0
C752 C 0.9046 0.76509 0.40813 0.0
C753 C 0.91598 0.78919 0.3919 0.0
C754 C 0.91644 0.78587 0.36299 0.0
C755 C 0.90425 0.75927 0.35054 0.0
C756 C 0.92599 0.81785 0.40536 0.0
C757 C 0.95622 0.83208 0.40397 0.0
C758 C 0.90612 0.8301 0.42137 0.0
C759 C 0.87375 0.81659 0.42312 0.0
C760 C 0.85618 0.81038 0.39898 0.0
C761 C 0.82583 0.79717 0.40076 0.0
C762 C 0.81273 0.79024 0.42658 0.0
C763 C 0.82994 0.7966 0.45068 0.0
C764 C 0.86032 0.80977 0.44902 0.0
C765 C 0.98438 0.94714 0.45431 0.0
C766 C 0.97637 0.94855 0.48228 0.0
C767 C 0.97482 0.9219 0.43887 0.0
C768 C 0.95744 0.89719 0.4511 0.0
C769 C 0.94929 0.8987 0.47899 0.0
C770 C 0.95853 0.92398 0.49432 0.0
C771 C 0.94737 0.86988 0.43499 0.0
C772 C 0.917 0.85579 0.43586 0.0
C773 C 0.96726 0.85758 0.41887 0.0
C774 C 0.99995 0.86981 0.41852 0.0
C775 C 0.01661 0.87398 0.44333 0.0
C776 C 0.04741 0.88562 0.44287 0.0
C777 C 0.06186 0.89296 0.4177 0.0
C778 C 0.04555 0.88859 0.39293 0.0
C779 C 0.01473 0.87699 0.39328 0.0
H780 H 0.08571 0.90196 0.41739 0.0
H781 H 0.78923 0.78 0.42791 0.0
H782 H 0.20431 0.69051 0.71368 0.0
H783 H 0.238 0.66306 0.69324 0.0
H784 H 0.24612 0.71585 0.62039 0.0
H785 H 0.21285 0.74377 0.6409 0.0
H786 H 0.25082 0.65298 0.61326 0.0
H787 H 0.29121 0.7416 0.66482 0.0
H788 H 0.29056 0.77161 0.70619 0.0
H789 H 0.31021 0.70499 0.7577 0.0
H790 H 0.3103 0.67434 0.71664 0.0
H791 H 0.39739 0.65386 0.56716 0.0
H792 H 0.35059 0.66639 0.58127 0.0
H793 H 0.36313 0.63736 0.66412 0.0
H794 H 0.41042 0.6257 0.65027 0.0
H795 H 0.34527 0.68464 0.66697 0.0
H796 H 0.31124 0.59762 0.61801 0.0
H797 H 0.30813 0.56362 0.57929 0.0
H798 H 0.27425 0.62118 0.52606 0.0
H799 H 0.27758 0.65575 0.5644 0.0
C800 C 0.2124 0.69559 0.69288 0.0
C801 C 0.20644 0.7196 0.6791 0.0
C802 C 0.23151 0.67982 0.6812 0.0
C803 C 0.2448 0.68776 0.65553 0.0
C804 C 0.23597 0.70941 0.64021 0.0
C805 C 0.21692 0.72532 0.65197 0.0
C806 C 0.27213 0.67796 0.64768 0.0
C807 C 0.27159 0.65999 0.62475 0.0
C808 C 0.29889 0.68661 0.66325 0.0
C809 C 0.30052 0.70562 0.68771 0.0
C810 C 0.29529 0.73333 0.68498 0.0
C811 C 0.29499 0.75044 0.70837 0.0
C812 C 0.30028 0.7402 0.73457 0.0
C813 C 0.30607 0.71288 0.7374 0.0
C814 C 0.30626 0.69564 0.71408 0.0
C815 C 0.3901 0.65009 0.58836 0.0
C816 C 0.40747 0.63861 0.60758 0.0
C817 C 0.36328 0.65712 0.59638 0.0
C818 C 0.35299 0.65232 0.62364 0.0
C819 C 0.37053 0.64122 0.64295 0.0
C820 C 0.39756 0.63457 0.63503 0.0
C821 C 0.32436 0.6596 0.6322 0.0
C822 C 0.32462 0.67731 0.65537 0.0
C823 C 0.29728 0.65022 0.61709 0.0
C824 C 0.2949 0.62939 0.59403 0.0
C825 C 0.30331 0.60312 0.598 0.0
C826 C 0.30149 0.58373 0.57612 0.0
C827 C 0.29106 0.59026 0.5502 0.0
C828 C 0.28235 0.61617 0.54614 0.0
C829 C 0.28416 0.63565 0.56795 0.0
H830 H 0.28968 0.57524 0.53328 0.0
H831 H 0.29992 0.75343 0.75266 0.0
H832 H 0.7042 0.74898 0.76952 0.0
H833 H 0.72376 0.76568 0.72383 0.0
H834 H 0.71666 0.85136 0.74529 0.0
H835 H 0.69673 0.83484 0.79013 0.0
H836 H 0.70314 0.84262 0.69329 0.0
H837 H 0.78196 0.82252 0.75502 0.0
H838 H 0.8073 0.79116 0.78219 0.0
H839 H 0.81375 0.74114 0.70962 0.0
H840 H 0.78772 0.7719 0.68215 0.0
H841 H 0.82179 0.94837 0.64939 0.0
H842 H 0.78491 0.91201 0.67275 0.0
H843 H 0.80927 0.84672 0.62193 0.0
H844 H 0.84638 0.88331 0.5981 0.0
H845 H 0.80722 0.83267 0.67584 0.0
H846 H 0.74101 0.86298 0.61259 0.0
H847 H 0.71896 0.89739 0.58613 0.0
H848 H 0.69094 0.93056 0.66164 0.0
H849 H 0.7132 0.89667 0.6886 0.0
C850 C 0.70637 0.77125 0.76417 0.0
C851 C 0.69887 0.79058 0.78338 0.0
C852 C 0.71756 0.78078 0.73812 0.0
C853 C 0.72204 0.80987 0.73121 0.0
C854 C 0.71324 0.82879 0.74996 0.0
C855 C 0.70177 0.81928 0.77568 0.0
C856 C 0.73832 0.82175 0.7059 0.0
C857 C 0.72585 0.84035 0.68936 0.0
C858 C 0.76754 0.81797 0.69998 0.0
C859 C 0.78255 0.79921 0.71666 0.0
C860 C 0.78851 0.80465 0.74495 0.0
C861 C 0.80304 0.787 0.76038 0.0
C862 C 0.81219 0.76416 0.74763 0.0
C863 C 0.80661 0.75881 0.71947 0.0
C864 C 0.7919 0.77628 0.70398 0.0
C865 C 0.81896 0.92636 0.64275 0.0
C866 C 0.83687 0.91876 0.62173 0.0
C867 C 0.7978 0.90558 0.65611 0.0
C868 C 0.79389 0.87671 0.64868 0.0
C869 C 0.81176 0.86892 0.62778 0.0
C870 C 0.83305 0.8898 0.61434 0.0
C871 C 0.77269 0.85484 0.6645 0.0
C872 C 0.78417 0.83427 0.67908 0.0
C873 C 0.74267 0.85702 0.66877 0.0
C874 C 0.72884 0.87725 0.65263 0.0
C875 C 0.73027 0.87769 0.62357 0.0
C876 C 0.71772 0.89711 0.60848 0.0
C877 C 0.70356 0.91615 0.62219 0.0
C878 C 0.70187 0.91577 0.65104 0.0
C879 C 0.7144 0.89641 0.66624 0.0
H880 H 0.69389 0.93118 0.61047 0.0
H881 H 0.82374 0.75066 0.75948 0.0
H882 H 0.8332 0.21559 0.29011 0.0
H883 H 0.81501 0.19688 0.24496 0.0
H884 H 0.79912 0.27923 0.22193 0.0
H885 H 0.81804 0.29846 0.26713 0.0
H886 H 0.74921 0.23714 0.21774 0.0
H887 H 0.84936 0.25162 0.18586 0.0
H888 H 0.9029 0.25005 0.18777 0.0
H889 H 0.87975 0.15843 0.19027 0.0
H890 H 0.82605 0.15942 0.18879 0.0
H891 H 0.67135 0.16041 0.10556 0.0
H892 H 0.70994 0.19721 0.12761 0.0
H893 H 0.74838 0.13179 0.16547 0.0
H894 H 0.71109 0.09509 0.14232 0.0
H895 H 0.79144 0.1758 0.1533 0.0
H896 H 0.69454 0.16185 0.19835 0.0
H897 H 0.64044 0.16105 0.20038 0.0
H898 H 0.65748 0.24942 0.17694 0.0
H899 H 0.7117 0.25061 0.17445 0.0
C900 C 0.82699 0.23011 0.27514 0.0
C901 C 0.82693 0.25852 0.28234 0.0
C902 C 0.81652 0.21932 0.24927 0.0
C903 C 0.8058 0.23669 0.23003 0.0
C904 C 0.80732 0.26549 0.23649 0.0
C905 C 0.81798 0.27638 0.26235 0.0
C906 C 0.78909 0.2235 0.20526 0.0
C907 C 0.75869 0.22443 0.20309 0.0
C908 C 0.80129 0.20638 0.18663 0.0
C909 C 0.83362 0.20562 0.1873 0.0
C910 C 0.85566 0.23113 0.18698 0.0
C911 C 0.88605 0.23034 0.18797 0.0
C912 C 0.89472 0.20416 0.18916 0.0
C913 C 0.87301 0.1787 0.18932 0.0
C914 C 0.84258 0.17936 0.18835 0.0
C915 C 0.68851 0.15388 0.11797 0.0
C916 C 0.68777 0.12479 0.12264 0.0
C917 C 0.71043 0.17495 0.13073 0.0
C918 C 0.73166 0.16725 0.14869 0.0
C919 C 0.73214 0.13828 0.15186 0.0
C920 C 0.71051 0.11729 0.1389 0.0
C921 C 0.75143 0.18876 0.16645 0.0
C922 C 0.78228 0.1893 0.16736 0.0
C923 C 0.7396 0.20691 0.18433 0.0
C924 C 0.70706 0.20621 0.18584 0.0
C925 C 0.6867 0.18104 0.19343 0.0
C926 C 0.65604 0.18053 0.19469 0.0
C927 C 0.64552 0.20514 0.18869 0.0
C928 C 0.66566 0.23035 0.1815 0.0
C929 C 0.69635 0.23096 0.18016 0.0
H930 H 0.62177 0.20471 0.18969 0.0
H931 H 0.91826 0.20359 0.18993 0.0
H932 H 0.40077 0.69383 0.2913 0.0
H933 H 0.41888 0.67276 0.33238 0.0
H934 H 0.38893 0.58872 0.29724 0.0
H935 H 0.37104 0.60958 0.25606 0.0
H936 H 0.3735 0.58782 0.35021 0.0
H937 H 0.4644 0.62296 0.30018 0.0
H938 H 0.50219 0.65906 0.27602 0.0
H939 H 0.51776 0.70989 0.35 0.0
H940 H 0.47976 0.67427 0.3745 0.0
H941 H 0.44919 0.51298 0.44567 0.0
H942 H 0.43075 0.53374 0.40451 0.0
H943 H 0.46396 0.61825 0.43766 0.0
H944 H 0.48293 0.59772 0.47846 0.0
H945 H 0.4776 0.61881 0.38554 0.0
H946 H 0.3869 0.58448 0.43567 0.0
H947 H 0.34883 0.54898 0.46019 0.0
H948 H 0.33247 0.49742 0.38671 0.0
H949 H 0.37074 0.53245 0.36185 0.0
C950 C 0.39835 0.67088 0.29207 0.0
C951 C 0.3843 0.65355 0.27012 0.0
C952 C 0.40871 0.65879 0.31573 0.0
C953 C 0.40555 0.62901 0.31808 0.0
C954 C 0.39159 0.61169 0.29619 0.0
C955 C 0.38124 0.62374 0.27257 0.0
C956 C 0.41643 0.61585 0.34335 0.0
C957 C 0.3964 0.59438 0.35767 0.0
C958 C 0.4461 0.62468 0.35375 0.0
C959 C 0.46902 0.64608 0.33909 0.0
C960 C 0.47572 0.64194 0.31123 0.0
C961 C 0.49721 0.6623 0.29749 0.0
C962 C 0.51231 0.68679 0.31144 0.0
C963 C 0.50601 0.69093 0.3392 0.0
C964 C 0.48452 0.67066 0.35303 0.0
C965 C 0.45239 0.53598 0.44434 0.0
C966 C 0.46758 0.55356 0.4656 0.0
C967 C 0.44172 0.5479 0.42072 0.0
C968 C 0.44561 0.57772 0.41781 0.0
C969 C 0.46063 0.59524 0.43913 0.0
C970 C 0.47141 0.58338 0.46263 0.0
C971 C 0.43466 0.59078 0.39248 0.0
C972 C 0.45469 0.61224 0.37811 0.0
C973 C 0.40495 0.58202 0.38211 0.0
C974 C 0.3819 0.56095 0.39699 0.0
C975 C 0.37534 0.56546 0.42481 0.0
C976 C 0.3537 0.54545 0.43875 0.0
C977 C 0.3383 0.52092 0.42504 0.0
C978 C 0.34445 0.51641 0.39732 0.0
C979 C 0.36609 0.53635 0.38328 0.0
H980 H 0.32155 0.50545 0.43587 0.0
H981 H 0.52894 0.70252 0.30077 0.0
H982 H 0.11775 0.35006 0.79026 0.0
H983 H 0.0992 0.37073 0.83116 0.0
H984 H 0.12325 0.45441 0.79466 0.0
H985 H 0.14114 0.43396 0.75351 0.0
H986 H 0.14084 0.45673 0.84804 0.0
H987 H 0.04981 0.41764 0.79843 0.0
H988 H 0.0127 0.38009 0.77474 0.0
H989 H 1.00035 0.33055 0.84935 0.0
H990 H 0.03772 0.36765 0.87339 0.0
H991 H 0.06424 0.53002 0.94323 0.0
H992 H 0.08245 0.50932 0.90212 0.0
H993 H 0.05202 0.42491 0.93585 0.0
H994 H 0.03329 0.44537 0.9766 0.0
H995 H 0.03786 0.42285 0.88377 0.0
H996 H 0.12868 0.46072 0.93353 0.0
H997 H 0.16622 0.49744 0.95778 0.0
H998 H 0.17971 0.5481 0.88389 0.0
H999 H 0.14193 0.51183 0.8593 0.0
C1000 C 0.11876 0.37282 0.79063 0.0
C1001 C 0.13121 0.39016 0.76824 0.0
C1002 C 0.10818 0.38469 0.81424 0.0
C1003 C 0.10962 0.41428 0.81623 0.0
C1004 C 0.12196 0.4316 0.79394 0.0
C1005 C 0.13238 0.41976 0.77032 0.0
C1006 C 0.09861 0.42727 0.84148 0.0
C1007 C 0.11817 0.44952 0.8556 0.0
C1008 C 0.06928 0.41761 0.85203 0.0
C1009 C 0.0468 0.39529 0.83762 0.0
C1010 C 0.03937 0.39863 0.80972 0.0
C1011 C 0.01825 0.37745 0.79624 0.0
C1012 C 1.00424 0.35291 0.8105 0.0
C1013 C 0.01126 0.34954 0.83831 0.0
C1014 C 0.03239 0.37065 0.85188 0.0
C1015 C 0.06157 0.50706 0.94203 0.0
C1016 C 0.04728 0.48951 0.96351 0.0
C1017 C 0.07214 0.49516 0.91843 0.0
C1018 C 0.06903 0.46538 0.91568 0.0
C1019 C 0.05479 0.44789 0.93715 0.0
C1020 C 0.04414 0.45972 0.96065 0.0
C1021 C 0.08011 0.45233 0.89043 0.0
C1022 C 0.06055 0.43007 0.87627 0.0
C1023 C 0.10952 0.46186 0.87995 0.0
C1024 C 0.13225 0.4837 0.89466 0.0
C1025 C 0.13948 0.47979 0.92252 0.0
C1026 C 0.16083 0.50051 0.93631 0.0
C1027 C 0.17528 0.52513 0.92241 0.0
C1028 C 0.16846 0.52904 0.89465 0.0
C1029 C 0.1471 0.5084 0.88076 0.0
H1030 H 0.1918 0.54114 0.93312 0.0
H1031 H 0.98789 0.33654 0.80003 0.0
H1032 H 0.63462 0.77837 0.90334 0.0
H1033 H 0.60706 0.8082 0.92898 0.0
H1034 H 0.62523 0.87186 0.8647 0.0
H1035 H 0.65487 0.84365 0.84035 0.0
H1036 H 0.63574 0.89714 0.91035 0.0
H1037 H 0.55353 0.82543 0.87626 0.0
H1038 H 0.52357 0.77675 0.86835 0.0
H1039 H 0.51355 0.76414 0.95599 0.0
H1040 H 0.5438 0.81263 0.96445 0.0
H1041 H 0.53145 0.97981 0.95162 0.0
H1042 H 0.55069 0.944 0.92509 0.0
H1043 H 0.56107 0.89896 1.00045 0.0
H1044 H 0.54268 0.93501 1.02714 0.0
H1045 H 0.5345 0.86379 0.95027 0.0
H1046 H 0.61928 0.93631 0.98252 0.0
H1047 H 0.64713 0.98607 0.98857 0.0
H1048 H 0.64951 0.99761 0.90047 0.0
H1049 H 0.62121 0.948 0.89394 0.0
C1050 C 0.63289 0.79878 0.8947 0.0
C1051 C 0.64698 0.80839 0.86961 0.0
C1052 C 0.6167 0.81566 0.90922 0.0
C1053 C 0.6137 0.8422 0.89865 0.0
C1054 C 0.62713 0.85147 0.87332 0.0
C1055 C 0.64377 0.83498 0.85914 0.0
C1056 C 0.59825 0.86128 0.91454 0.0
C1057 C 0.6134 0.88979 0.91864 0.0
C1058 C 0.56934 0.85175 0.926 0.0
C1059 C 0.55122 0.82255 0.92099 0.0
C1060 C 0.54516 0.81219 0.89386 0.0
C1061 C 0.52808 0.78465 0.88927 0.0
C1062 C 0.51674 0.76733 0.91165 0.0
C1063 C 0.52239 0.77756 0.93867 0.0
C1064 C 0.53949 0.80507 0.94337 0.0
C1065 C 0.53758 0.96212 0.96244 0.0
C1066 C 0.53599 0.96032 0.99139 0.0
C1067 C 0.54849 0.94172 0.94732 0.0
C1068 C 0.5573 0.91899 0.96092 0.0
C1069 C 0.55433 0.91637 0.98967 0.0
C1070 C 0.54408 0.93708 1.00485 0.0
C1071 C 0.57191 0.89929 0.94541 0.0
C1072 C 0.55674 0.87084 0.94167 0.0
C1073 C 0.60059 0.90887 0.93387 0.0
C1074 C 0.61784 0.93858 0.93776 0.0
C1075 C 0.62549 0.94955 0.96445 0.0
C1076 C 0.64141 0.9777 0.96797 0.0
C1077 C 0.65001 0.99502 0.94492 0.0
C1078 C 0.64279 0.98419 0.91831 0.0
C1079 C 0.62682 0.95605 0.91469 0.0
H1080 H 0.66233 1.01681 0.94768 0.0
H1081 H 0.50351 0.74602 0.90806 0.0
H1082 H 0.83911 0.23274 0.40287 0.0
H1083 H 0.86768 0.20368 0.4283 0.0
H1084 H 0.94354 0.2332 0.37514 0.0
H1085 H 0.91453 0.26198 0.34909 0.0
H1086 H 0.93391 0.17826 0.37921 0.0
H1087 H 0.94389 0.25304 0.44519 0.0
H1088 H 0.92799 0.28825 0.47557 0.0
H1089 H 0.87198 0.22046 0.52098 0.0
H1090 H 0.88719 0.18483 0.49062 0.0
H1091 H 0.02151 0.10386 0.46522 0.0
H1092 H 1.00361 0.14232 0.44175 0.0
H1093 H 0.91529 0.11088 0.4749 0.0
H1094 H 0.93282 0.07223 0.49819 0.0
H1095 H 0.93814 0.17111 0.48147 0.0
H1096 H 0.92565 0.09733 0.41097 0.0
H1097 H 0.94332 0.0631 0.38065 0.0
H1098 H 1.00751 0.13172 0.34426 0.0
H1099 H 0.99048 0.16633 0.37467 0.0
C1100 C 0.86213 0.23363 0.39703 0.0
C1101 C 0.87468 0.24977 0.37412 0.0
C1102 C 0.87849 0.21699 0.41161 0.0
C1103 C 0.90796 0.2165 0.40391 0.0
C1104 C 0.92087 0.23327 0.3815 0.0
C1105 C 0.90435 0.24972 0.36668 0.0
C1106 C 0.92413 0.19666 0.4179 0.0
C1107 C 0.93542 0.17718 0.40158 0.0
C1108 C 0.92578 0.1949 0.4471 0.0
C1109 C 0.91655 0.21625 0.46548 0.0
C1110 C 0.92801 0.24563 0.46152 0.0
C1111 C 0.91915 0.26567 0.47877 0.0
C1112 C 0.89895 0.2566 0.50016 0.0
C1113 C 0.88762 0.22746 0.50439 0.0
C1114 C 0.89639 0.20733 0.48719 0.0
C1115 C 0.99824 0.10505 0.46741 0.0
C1116 C 0.97854 0.08496 0.48348 0.0
C1117 C 0.98809 0.12702 0.45399 0.0
C1118 C 0.95817 0.12937 0.45666 0.0
C1119 C 0.93849 0.10941 0.4727 0.0
C1120 C 0.9485 0.08724 0.48581 0.0
C1121 C 0.94722 0.15264 0.44275 0.0
C1122 C 0.93697 0.17266 0.45912 0.0
C1123 C 0.94687 0.15515 0.41364 0.0
C1124 C 0.95705 0.13436 0.39532 0.0
C1125 C 0.94373 0.10508 0.39669 0.0
C1126 C 0.95358 0.08562 0.37945 0.0
C1127 C 0.97659 0.09522 0.3606 0.0
C1128 C 0.98973 0.12431 0.35891 0.0
C1129 C 0.97998 0.14386 0.37613 0.0
H1130 H 0.98418 0.08012 0.34726 0.0
H1131 H 0.89211 0.27215 0.51349 0.0
H1132 H 0.31359 0.6062 0.19819 0.0
H1133 H 0.26788 0.58242 0.17358 0.0
H1134 H 0.24131 0.66305 0.16579 0.0
H1135 H 0.28638 0.68672 0.19099 0.0
H1136 H 0.1939 0.62198 0.17803 0.0
H1137 H 0.27418 0.63351 0.11189 0.0
H1138 H 0.32301 0.62779 0.09412 0.0
H1139 H 0.2933 0.53657 0.09727 0.0
H1140 H 0.2444 0.54176 0.11543 0.0
H1141 H 0.08978 0.59662 0.06817 0.0
H1142 H 0.13517 0.61385 0.0955 0.0
H1143 H 0.14909 0.52799 0.10178 0.0
H1144 H 0.10349 0.51042 0.07426 0.0
H1145 H 0.20219 0.56756 0.09214 0.0
H1146 H 0.12112 0.55564 0.15559 0.0
H1147 H 0.07175 0.56096 0.17224 0.0
H1148 H 0.10257 0.65212 0.17404 0.0
H1149 H 0.15202 0.64736 0.15699 0.0
C1150 C 0.29781 0.6188 0.19159 0.0
C1151 C 0.3039 0.64847 0.19641 0.0
C1152 C 0.27178 0.60521 0.17725 0.0
C1153 C 0.25124 0.62096 0.16735 0.0
C1154 C 0.25678 0.65038 0.17301 0.0
C1155 C 0.28275 0.66396 0.18728 0.0
C1156 C 0.22428 0.60713 0.15063 0.0
C1157 C 0.19582 0.61031 0.15914 0.0
C1158 C 0.22645 0.59117 0.12629 0.0
C1159 C 0.25578 0.58803 0.11531 0.0
C1160 C 0.27815 0.61223 0.109 0.0
C1161 C 0.30582 0.60909 0.09883 0.0
C1162 C 0.31128 0.58183 0.09465 0.0
C1163 C 0.28905 0.55767 0.10057 0.0
C1164 C 0.26136 0.5607 0.11079 0.0
C1165 C 0.10252 0.58132 0.07511 0.0
C1166 C 0.09277 0.55205 0.06901 0.0
C1167 C 0.12849 0.59125 0.0909 0.0
C1168 C 0.14542 0.57222 0.10107 0.0
C1169 C 0.13639 0.5431 0.09426 0.0
C1170 C 0.11025 0.53309 0.07853 0.0
C1171 C 0.17201 0.58283 0.11936 0.0
C1172 C 0.20031 0.57904 0.11116 0.0
C1173 C 0.16972 0.59816 0.14403 0.0
C1174 C 0.14022 0.60115 0.15481 0.0
C1175 C 0.11732 0.57684 0.15938 0.0
C1176 C 0.08932 0.57974 0.1689 0.0
C1177 C 0.084 0.60685 0.17415 0.0
C1178 C 0.1067 0.63112 0.16996 0.0
C1179 C 0.13475 0.62834 0.16039 0.0
H1180 H 0.0623 0.60899 0.18153 0.0
H1181 H 0.33272 0.57944 0.08677 0.0
H1182 H 0.18679 0.39276 0.65019 0.0
H1183 H 0.23161 0.41611 0.62505 0.0
H1184 H 0.28004 0.43419 0.70217 0.0
H1185 H 0.23482 0.41131 0.72752 0.0
H1186 H 0.29756 0.47765 0.66811 0.0
H1187 H 0.28596 0.37627 0.66073 0.0
H1188 H 0.25927 0.32693 0.65027 0.0
H1189 H 0.24958 0.34965 0.56533 0.0
H1190 H 0.27584 0.39925 0.57538 0.0
H1191 H 0.43238 0.44899 0.57983 0.0
H1192 H 0.38625 0.4324 0.60556 0.0
H1193 H 0.36091 0.51271 0.59038 0.0
H1194 H 0.408 0.52996 0.56576 0.0
H1195 H 0.33174 0.42051 0.59426 0.0
H1196 H 0.31418 0.52744 0.63852 0.0
H1197 H 0.34404 0.57429 0.65358 0.0
H1198 H 0.41872 0.53617 0.67201 0.0
H1199 H 0.38926 0.4891 0.65728 0.0
C1200 C 0.20694 0.40187 0.66184 0.0
C1201 C 0.20728 0.39987 0.69088 0.0
C1202 C 0.23263 0.4152 0.64741 0.0
C1203 C 0.2596 0.42646 0.66156 0.0
C1204 C 0.25965 0.42564 0.69067 0.0
C1205 C 0.23376 0.41255 0.70518 0.0
C1206 C 0.28791 0.43772 0.64591 0.0
C1207 C 0.30498 0.46516 0.65192 0.0
C1208 C 0.29814 0.4214 0.62504 0.0
C1209 C 0.28261 0.39153 0.61886 0.0
C1210 C 0.27797 0.37078 0.63986 0.0
C1211 C 0.26294 0.34277 0.634 0.0
C1212 C 0.25268 0.33518 0.60717 0.0
C1213 C 0.25751 0.35557 0.58611 0.0
C1214 C 0.27248 0.38363 0.59187 0.0
C1215 C 0.41703 0.46319 0.58194 0.0
C1216 C 0.42403 0.49086 0.5707 0.0
C1217 C 0.39049 0.45362 0.5967 0.0
C1218 C 0.36991 0.47128 0.60041 0.0
C1219 C 0.37654 0.49877 0.5886 0.0
C1220 C 0.40345 0.50858 0.57425 0.0
C1221 C 0.34159 0.46056 0.61635 0.0
C1222 C 0.32438 0.43315 0.61035 0.0
C1223 C 0.33175 0.47662 0.63771 0.0
C1224 C 0.34959 0.50482 0.64663 0.0
C1225 C 0.33695 0.52907 0.64586 0.0
C1226 C 0.35381 0.55566 0.6543 0.0
C1227 C 0.38324 0.55818 0.66373 0.0
C1228 C 0.39593 0.53417 0.66466 0.0
C1229 C 0.37919 0.50755 0.65623 0.0
H1230 H 0.3962 0.57869 0.67048 0.0
H1231 H 0.24103 0.31348 0.60268 0.0
H1232 H 0.75608 0.79307 0.88193 0.0
H1233 H 0.79435 0.77266 0.90552 0.0
H1234 H 0.74189 0.6878 0.89 0.0
H1235 H 0.70372 0.70833 0.86609 0.0
H1236 H 0.76718 0.69559 0.94427 0.0
H1237 H 0.7965 0.71119 0.84967 0.0
H1238 H 0.80908 0.73807 0.80655 0.0
H1239 H 0.88142 0.79545 0.84784 0.0
H1240 H 0.86873 0.76922 0.89154 0.0
H1241 H 0.88047 0.61521 0.9584 0.0
H1242 H 0.8395 0.6372 0.94369 0.0
H1243 H 0.89728 0.72075 0.95237 0.0
H1244 H 0.93838 0.6989 0.9674 0.0
H1245 H 0.86888 0.71463 0.90344 0.0
H1246 H 0.84101 0.69782 0.99793 0.0
H1247 H 0.8294 0.66969 0.04065 0.0
H1248 H 0.75552 0.61406 0.9997 0.0
H1249 H 0.76695 0.64163 0.95659 0.0
C1250 C 0.75271 0.77009 0.88389 0.0
C1251 C 0.72721 0.75213 0.8724 0.0
C1252 C 0.77448 0.75848 0.89726 0.0
C1253 C 0.77096 0.72874 0.89936 0.0
C1254 C 0.74493 0.71079 0.88863 0.0
C1255 C 0.72327 0.72244 0.87498 0.0
C1256 C 0.7952 0.71645 0.91146 0.0
C1257 C 0.78936 0.69948 0.93525 0.0
C1258 C 0.82426 0.72212 0.89998 0.0
C1259 C 0.83142 0.73845 0.87396 0.0
C1260 C 0.81482 0.72978 0.84968 0.0
C1261 C 0.82205 0.74487 0.82508 0.0
C1262 C 0.8461 0.76848 0.8244 0.0
C1263 C 0.8628 0.77717 0.8484 0.0
C1264 C 0.85556 0.76222 0.8731 0.0
C1265 C 0.88434 0.63829 0.95767 0.0
C1266 C 0.91271 0.65532 0.96407 0.0
C1267 C 0.86088 0.65082 0.94925 0.0
C1268 C 0.86526 0.68062 0.94719 0.0
C1269 C 0.89344 0.6977 0.95384 0.0
C1270 C 0.91693 0.68519 0.96227 0.0
C1271 C 0.84103 0.69383 0.93639 0.0
C1272 C 0.84682 0.71092 0.91272 0.0
C1273 C 0.812 0.68827 0.94804 0.0
C1274 C 0.80502 0.67165 0.97394 0.0
C1275 C 0.82244 0.67945 0.99796 0.0
C1276 C 0.81586 0.66363 1.02226 0.0
C1277 C 0.79179 0.64006 1.02287 0.0
C1278 C 0.77419 0.63231 0.99919 0.0
C1279 C 0.78069 0.64804 0.97482 0.0
H1280 H 0.78673 0.62784 0.04171 0.0
H1281 H 0.85191 0.77999 0.80528 0.0
H1282 H 0.40818 0.75335 0.23558 0.0
H1283 H 0.4308 0.79905 0.214 0.0
H1284 H 0.40142 0.76397 0.1338 0.0
H1285 H 0.38079 0.71799 0.15488 0.0
H1286 H 0.45213 0.79647 0.12701 0.0
H1287 H 0.36369 0.80934 0.17414 0.0
H1288 H 0.33023 0.80925 0.21398 0.0
H1289 H 0.39889 0.87007 0.2561 0.0
H1290 H 0.43289 0.87025 0.21662 0.0
H1291 H 0.45024 0.92358 0.05231 0.0
H1292 H 0.43489 0.87886 0.07779 0.0
H1293 H 0.48257 0.91808 0.14998 0.0
H1294 H 0.49812 0.96304 0.12459 0.0
H1295 H 0.42612 0.88498 0.16269 0.0
H1296 H 0.51252 0.87425 0.11102 0.0
H1297 H 0.54226 0.87547 0.0685 0.0
H1298 H 0.47313 0.81049 0.03217 0.0
H1299 H 0.4427 0.80926 0.07429 0.0
C1300 C 0.40698 0.75517 0.2133 0.0
C1301 C 0.39204 0.73185 0.19717 0.0
C1302 C 0.41961 0.78156 0.20095 0.0
C1303 C 0.41726 0.7855 0.17217 0.0
C1304 C 0.40345 0.76189 0.15601 0.0
C1305 C 0.39123 0.73551 0.16824 0.0
C1306 C 0.42849 0.81409 0.15875 0.0
C1307 C 0.44614 0.8157 0.13479 0.0
C1308 C 0.42131 0.83961 0.16885 0.0
C1309 C 0.40093 0.83955 0.19258 0.0
C1310 C 0.37171 0.82254 0.19199 0.0
C1311 C 0.35265 0.8225 0.21448 0.0
C1312 C 0.36246 0.83958 0.23759 0.0
C1313 C 0.39134 0.85681 0.23821 0.0
C1314 C 0.41051 0.8569 0.21578 0.0
C1315 C 0.45742 0.92284 0.07365 0.0
C1316 C 0.47555 0.94706 0.0863 0.0
C1317 C 0.44869 0.89712 0.08819 0.0
C1318 C 0.45778 0.89488 0.11579 0.0
C1319 C 0.47529 0.91918 0.12872 0.0
C1320 C 0.48425 0.9449 0.1141 0.0
C1321 C 0.44928 0.86709 0.13094 0.0
C1322 C 0.43221 0.86571 0.15515 0.0
C1323 C 0.45656 0.84171 0.12081 0.0
C1324 C 0.47522 0.84182 0.09576 0.0
C1325 C 0.50358 0.86032 0.09391 0.0
C1326 C 0.52057 0.86102 0.06988 0.0
C1327 C 0.50957 0.84311 0.04762 0.0
C1328 C 0.48161 0.82437 0.04941 0.0
C1329 C 0.46449 0.82365 0.07337 0.0
H1330 H 0.52272 0.84373 0.02901 0.0
H1331 H 0.34767 0.83952 0.25498 0.0
H1332 H 0.08247 0.31281 0.70016 0.0
H1333 H 0.06249 0.26685 0.6772 0.0
H1334 H 0.15211 0.25258 0.66993 0.0
H1335 H 0.17203 0.29829 0.69258 0.0
H1336 H 0.12445 0.24052 0.62253 0.0
H1337 H 0.09894 0.21536 0.71698 0.0
H1338 H 0.07591 0.21982 0.76231 0.0
H1339 H 0.98903 0.20676 0.7238 0.0
H1340 H 0.0116 0.20258 0.67818 0.0
H1341 H 0.08822 0.09549 0.57855 0.0
H1342 H 0.10623 0.13948 0.60497 0.0
H1343 H 0.0155 0.15066 0.61262 0.0
H1344 H 0.99729 0.10629 0.58701 0.0
H1345 H 0.0429 0.1646 0.65951 0.0
H1346 H 0.06809 0.18956 0.56514 0.0
H1347 H 0.09078 0.18435 0.51981 0.0
H1348 H 0.17793 0.19798 0.55783 0.0
H1349 H 0.1557 0.20288 0.60347 0.0
C1350 C 0.09784 0.29966 0.69407 0.0
C1351 C 0.12891 0.30948 0.69814 0.0
C1352 C 0.0864 0.27331 0.68085 0.0
C1353 C 0.1057 0.25594 0.67168 0.0
C1354 C 0.13663 0.26547 0.67644 0.0
C1355 C 0.14802 0.29172 0.68949 0.0
C1356 C 0.09411 0.2283 0.65648 0.0
C1357 C 0.10686 0.22382 0.63086 0.0
C1358 C 0.07061 0.20654 0.66673 0.0
C1359 C 0.057 0.20895 0.69414 0.0
C1360 C 0.07495 0.21365 0.71816 0.0
C1361 C 0.06198 0.21609 0.7439 0.0
C1362 C 0.03104 0.21366 0.74592 0.0
C1363 C 0.013 0.20869 0.7222 0.0
C1364 C 0.02586 0.20626 0.6964 0.0
C1365 C 0.07204 0.10723 0.5859 0.0
C1366 C 0.04124 0.09718 0.58047 0.0
C1367 C 0.08242 0.13259 0.60094 0.0
C1368 C 0.06237 0.14895 0.61056 0.0
C1369 C 0.03157 0.13867 0.60552 0.0
C1370 C 0.02116 0.11319 0.59073 0.0
C1371 C 0.07336 0.17677 0.62565 0.0
C1372 C 0.06047 0.18132 0.65118 0.0
C1373 C 0.09669 0.19865 0.61528 0.0
C1374 C 0.11019 0.19633 0.58777 0.0
C1375 C 0.09208 0.19131 0.56385 0.0
C1376 C 0.10486 0.18841 0.5381 0.0
C1377 C 0.13577 0.19074 0.53595 0.0
C1378 C 0.15399 0.19613 0.55953 0.0
C1379 C 0.14131 0.199 0.58535 0.0
H1380 H 0.14561 0.18842 0.51601 0.0
H1381 H 0.02104 0.21555 0.76587 0.0
H1382 H 0.75426 0.27122 0.34754 0.0
H1383 H 0.71558 0.29239 0.36821 0.0
H1384 H 0.78382 0.35656 0.40791 0.0
H1385 H 0.82277 0.33465 0.3878 0.0
H1386 H 0.7391 0.33905 0.44219 0.0
H1387 H 0.74649 0.37157 0.34888 0.0
H1388 H 0.74846 0.36729 0.29814 0.0
H1389 H 0.65957 0.31469 0.2972 0.0
H1390 H 0.65722 0.3183 0.348 0.0
H1391 H 0.63503 0.42827 0.46957 0.0
H1392 H 0.6773 0.40979 0.45235 0.0
H1393 H 0.61613 0.33589 0.41914 0.0
H1394 H 0.57369 0.35377 0.43692 0.0
H1395 H 0.65952 0.36215 0.38159 0.0
H1396 H 0.65422 0.32924 0.4763 0.0
H1397 H 0.65325 0.33544 0.5269 0.0
H1398 H 0.73981 0.39229 0.52454 0.0
H1399 H 0.74111 0.38673 0.47384 0.0
C1400 C 0.76098 0.28991 0.3606 0.0
C1401 C 0.79142 0.30163 0.36579 0.0
C1402 C 0.7389 0.30203 0.37235 0.0
C1403 C 0.7468 0.3265 0.38906 0.0
C1404 C 0.77723 0.33781 0.39491 0.0
C1405 C 0.79941 0.32537 0.38343 0.0
C1406 C 0.72312 0.34012 0.40023 0.0
C1407 C 0.72199 0.34454 0.42888 0.0
C1408 C 0.70058 0.34703 0.3829 0.0
C1409 C 0.70178 0.34504 0.35229 0.0
C1410 C 0.72743 0.35894 0.33788 0.0
C1411 C 0.72861 0.35665 0.3091 0.0
C1412 C 0.70418 0.34068 0.29446 0.0
C1413 C 0.67848 0.32703 0.30857 0.0
C1414 C 0.6772 0.32923 0.33735 0.0
C1415 C 0.63053 0.40785 0.45901 0.0
C1416 C 0.60092 0.39246 0.4547 0.0
C1417 C 0.65473 0.39741 0.44907 0.0
C1418 C 0.64979 0.37144 0.43461 0.0
C1419 C 0.62035 0.35604 0.43021 0.0
C1420 C 0.59614 0.36636 0.44028 0.0
C1421 C 0.67528 0.36055 0.42349 0.0
C1422 C 0.67676 0.35678 0.39483 0.0
C1423 C 0.69829 0.35462 0.44075 0.0
C1424 C 0.69762 0.3578 0.47125 0.0
C1425 C 0.67294 0.34325 0.48654 0.0
C1426 C 0.67235 0.34661 0.51524 0.0
C1427 C 0.69642 0.36431 0.52892 0.0
C1428 C 0.72117 0.37862 0.51392 0.0
C1429 C 0.72185 0.37535 0.4852 0.0
H1430 H 0.69592 0.36689 0.55114 0.0
H1431 H 0.70514 0.33892 0.27218 0.0
loop_
_geom_bond_atom_site_label_1
_geom_bond_atom_site_label_2
_geom_bond_distance
_geom_bond_site_symmetry_2
_ccdc_geom_bond_type
H0 C3 0.931 . S
H1 C6 0.928 . S
H2 C8 0.930 . S
C3 H0 0.931 . S
C3 C4 1.413 . S
C3 C5 1.360 . S
C4 C3 1.413 . S
C4 C8 1.429 . S
C5 C3 1.360 . S
C5 C6 1.372 . S
C6 H1 0.928 . S
C6 C5 1.372 . S
C6 C7 1.404 . S
C7 C6 1.404 . S
C7 C8 1.391 . S
C8 H2 0.930 . S
C8 C4 1.429 . S
C8 C7 1.391 . S
H9 C12 0.931 . S
H10 C15 0.928 . S
H11 C17 0.930 . S
C12 H9 0.931 . S
C12 C13 1.413 . S
C12 C14 1.360 . S
C13 C12 1.413 . S
C13 C17 1.429 . S
C14 C12 1.360 . S
C14 C15 1.372 . S
C15 H10 0.928 . S
C15 C14 1.372 . S
C15 C16 1.404 . S
C16 C15 1.404 . S
C16 C17 1.391 . S
C17 H11 0.930 . S
C17 C13 1.429 . S
C17 C16 1.391 . S
H18 C21 0.931 . S
H19 C24 0.928 . S
H20 C26 0.930 . S
C21 H18 0.931 . S
C21 C22 1.413 . S
C21 C23 1.360 . S
C22 C21 1.413 . S
C22 C26 1.429 . S
C23 C21 1.360 . S
C23 C24 1.372 . S
C24 H19 0.928 . S
C24 C23 1.372 . S
C24 C25 1.404 . S
C25 C24 1.404 . S
C25 C26 1.391 . S
C26 H20 0.930 . S
C26 C22 1.429 . S
C26 C25 1.391 . S
H27 C30 0.931 . S
H28 C33 0.928 . S
H29 C35 0.930 . S
C30 H27 0.931 . S
C30 C31 1.413 . S
C30 C32 1.360 . S
C31 C30 1.413 . S
C31 C35 1.429 . S
C32 C30 1.360 . S
C32 C33 1.372 . S
C33 H28 0.928 . S
C33 C32 1.372 . S
C33 C34 1.404 . S
C34 C33 1.404 . S
C34 C35 1.391 . S
C35 H29 0.930 . S
C35 C31 1.429 . S
C35 C34 1.391 . S
H36 C39 0.931 . S
H37 C42 0.928 . S
H38 C44 0.930 . S
C39 H36 0.931 . S
C39 C40 1.413 . S
C39 C41 1.360 . S
C40 C39 1.413 . S
C40 C44 1.429 . S
C41 C39 1.360 . S
C41 C42 1.372 . S
C42 H37 0.928 . S
C42 C41 1.372 . S
C42 C43 1.404 . S
C43 C42 1.404 . S
C43 C44 1.391 . S
C44 H38 0.930 . S
C44 C40 1.429 . S
C44 C43 1.391 . S
H45 C48 0.931 . S
H46 C51 0.928 . S
H47 C53 0.930 . S
C48 H45 0.931 . S
C48 C49 1.413 . S
C48 C50 1.360 . S
C49 C48 1.413 . S
C49 C53 1.429 . S
C50 C48 1.360 . S
C50 C51 1.372 . S
C51 H46 0.928 . S
C51 C50 1.372 . S
C51 C52 1.404 . S
C52 C51 1.404 . S
C52 C53 1.391 . S
C53 H47 0.930 . S
C53 C49 1.429 . S
C53 C52 1.391 . S
H54 C57 0.931 . S
H55 C60 0.928 . S
H56 C62 0.930 . S
C57 H54 0.931 . S
C57 C58 1.413 . S
C57 C59 1.360 . S
C58 C57 1.413 . S
C58 C62 1.429 . S
C59 C57 1.360 . S
C59 C60 1.372 . S
C60 H55 0.928 . S
C60 C59 1.372 . S
C60 C61 1.404 . S
C61 C60 1.404 . S
C61 C62 1.391 . S
C62 H56 0.930 . S
C62 C58 1.429 . S
C62 C61 1.391 . S
H63 C66 0.931 . S
H64 C69 0.928 . S
H65 C71 0.930 . S
C66 H63 0.931 . S
C66 C67 1.413 . S
C66 C68 1.360 . S
C67 C66 1.413 . S
C67 C71 1.429 . S
C68 C66 1.360 . S
C68 C69 1.372 . S
C69 H64 0.928 . S
C69 C68 1.372 . S
C69 C70 1.404 . S
C70 C69 1.404 . S
C70 C71 1.391 . S
C71 H65 0.930 . S
C71 C67 1.429 . S
C71 C70 1.391 . S
Dy72 O75 2.307 1_545 S
Dy72 O77 2.395 . S
Dy72 O78 2.379 . S
Dy72 O80 2.339 1_545 S
Dy72 O82 2.298 1_455 S
Dy72 O86 2.275 . S
Dy72 C94 2.738 . S
Dy73 O76 2.317 1_655 S
Dy73 O79 2.295 . S
Dy73 O81 2.284 1_565 S
Dy73 O83 2.423 . S
Dy73 O84 2.383 . S
Dy73 O87 2.313 1_565 S
Dy73 C103 2.756 . S
C74 O86 1.254 . S
C74 O87 1.257 1_455 S
O75 Dy72 2.307 1_565 S
O75 C85 1.266 . S
O76 Dy73 2.317 1_455 S
O76 C85 1.236 . S
O77 Dy72 2.395 . S
O77 C94 1.255 . S
O78 Dy72 2.379 . S
O78 C94 1.249 . S
O79 Dy73 2.295 . S
O79 C95 1.254 . S
O80 Dy72 2.339 1_565 S
O80 C95 1.257 1_455 S
O81 Dy73 2.284 1_545 S
O81 C96 1.266 . S
O82 Dy72 2.298 1_655 S
O82 C96 1.236 . S
O83 Dy73 2.423 . S
O83 C103 1.255 . S
O84 Dy73 2.383 . S
O84 C103 1.249 . S
C85 O75 1.266 . S
C85 O76 1.236 . S
O86 Dy72 2.275 . S
O86 C74 1.254 . S
O87 Dy73 2.313 1_545 S
O87 C74 1.257 1_655 S
C88 C91 1.344 . S
C88 C92 1.328 . S
C88 C94 1.516 . S
C89 C90 1.304 . S
C89 C93 1.323 . S
C90 C89 1.304 . S
C90 C91 1.371 . S
C90 H104 0.930 . S
C91 C88 1.344 . S
C91 C90 1.371 . S
C91 H105 0.931 . S
C92 C88 1.328 . S
C92 C93 1.433 . S
C92 H106 0.931 . S
C93 C89 1.323 . S
C93 C92 1.433 . S
C93 H107 0.933 . S
C94 Dy72 2.738 . S
C94 O77 1.255 . S
C94 O78 1.249 . S
C94 C88 1.516 . S
C95 O79 1.254 . S
C95 O80 1.257 1_655 S
C96 O81 1.266 . S
C96 O82 1.236 . S
C97 C100 1.344 . S
C97 C101 1.328 . S
C97 C103 1.516 . S
C98 C99 1.304 . S
C98 C102 1.323 . S
C99 C98 1.304 . S
C99 C100 1.371 . S
C99 H108 0.930 . S
C100 C97 1.344 . S
C100 C99 1.371 . S
C100 H109 0.931 . S
C101 C97 1.328 . S
C101 C102 1.433 . S
C101 H110 0.931 . S
C102 C98 1.323 . S
C102 C101 1.433 . S
C102 H111 0.933 . S
C103 Dy73 2.756 . S
C103 O83 1.255 . S
C103 O84 1.249 . S
C103 C97 1.516 . S
H104 C90 0.930 . S
H105 C91 0.931 . S
H106 C92 0.931 . S
H107 C93 0.933 . S
H108 C99 0.930 . S
H109 C100 0.931 . S
H110 C101 0.931 . S
H111 C102 0.933 . S
Dy112 O115 2.280 1_566 S
Dy112 O117 2.429 . S
Dy112 O118 2.384 . S
Dy112 O120 2.308 1_565 S
Dy112 O122 2.321 . S
Dy112 O126 2.299 1_556 S
Dy112 C134 2.760 . S
Dy113 O116 2.298 . S
Dy113 O119 2.275 1_554 S
Dy113 O121 2.307 1_544 S
Dy113 O123 2.395 . S
Dy113 O124 2.379 . S
Dy113 O127 2.339 1_545 S
Dy113 C143 2.738 . S
C114 O126 1.254 . S
C114 O127 1.257 . S
O115 Dy112 2.280 1_544 S
O115 C125 1.266 . S
O116 Dy113 2.298 . S
O116 C125 1.236 . S
O117 Dy112 2.429 . S
O117 C134 1.255 . S
O118 Dy112 2.384 . S
O118 C134 1.249 . S
O119 Dy113 2.275 1_556 S
O119 C135 1.254 . S
O120 Dy112 2.308 1_545 S
O120 C135 1.257 . S
O121 Dy113 2.307 1_566 S
O121 C136 1.266 . S
O122 Dy112 2.321 . S
O122 C136 1.236 . S
O123 Dy113 2.395 . S
O123 C143 1.255 . S
O124 Dy113 2.379 . S
O124 C143 1.249 . S
C125 O115 1.266 . S
C125 O116 1.236 . S
O126 Dy112 2.299 1_554 S
O126 C114 1.254 . S
O127 Dy113 2.339 1_565 S
O127 C114 1.257 . S
C128 C131 1.344 . S
C128 C132 1.328 . S
C128 C134 1.516 . S
C129 C130 1.304 . S
C129 C133 1.323 . S
C130 C129 1.304 . S
C130 C131 1.371 . S
C130 H144 0.930 . S
C131 C128 1.344 . S
C131 C130 1.371 . S
C131 H145 0.931 . S
C132 C128 1.328 . S
C132 C133 1.433 . S
C132 H146 0.931 . S
C133 C129 1.323 . S
C133 C132 1.433 . S
C133 H147 0.933 . S
C134 Dy112 2.760 . S
C134 O117 1.255 . S
C134 O118 1.249 . S
C134 C128 1.516 . S
C135 O119 1.254 . S
C135 O120 1.257 . S
C136 O121 1.266 . S
C136 O122 1.236 . S
C137 C140 1.344 . S
C137 C141 1.328 . S
C137 C143 1.516 . S
C138 C139 1.304 . S
C138 C142 1.323 . S
C139 C138 1.304 . S
C139 C140 1.371 . S
C139 H148 0.930 . S
C140 C137 1.344 . S
C140 C139 1.371 . S
C140 H149 0.931 . S
C141 C137 1.328 . S
C141 C142 1.433 . S
C141 H150 0.931 . S
C142 C138 1.323 . S
C142 C141 1.433 . S
C142 H151 0.933 . S
C143 Dy113 2.738 . S
C143 O123 1.255 . S
C143 O124 1.249 . S
C143 C137 1.516 . S
H144 C130 0.930 . S
H145 C131 0.931 . S
H146 C132 0.931 . S
H147 C133 0.933 . S
H148 C139 0.930 . S
H149 C140 0.931 . S
H150 C141 0.931 . S
H151 C142 0.933 . S
Dy152 O155 2.307 . S
Dy152 O157 2.395 . S
Dy152 O158 2.379 . S
Dy152 O160 2.339 . S
Dy152 O162 2.298 . S
Dy152 O166 2.275 . S
Dy152 C174 2.738 . S
Dy153 O156 2.298 . S
Dy153 O159 2.275 . S
Dy153 O161 2.307 . S
Dy153 O163 2.395 . S
Dy153 O164 2.379 . S
Dy153 O167 2.339 . S
Dy153 C183 2.738 . S
C154 O166 1.254 . S
C154 O167 1.257 . S
O155 Dy152 2.307 . S
O155 C165 1.266 . S
O156 Dy153 2.298 . S
O156 C165 1.236 . S
O157 Dy152 2.395 . S
O157 C174 1.255 . S
O158 Dy152 2.379 . S
O158 C174 1.249 . S
O159 Dy153 2.275 . S
O159 C175 1.254 . S
O160 Dy152 2.339 . S
O160 C175 1.257 . S
O161 Dy153 2.307 . S
O161 C176 1.266 . S
O162 Dy152 2.298 . S
O162 C176 1.236 . S
O163 Dy153 2.395 . S
O163 C183 1.255 . S
O164 Dy153 2.379 . S
O164 C183 1.249 . S
C165 O155 1.266 . S
C165 O156 1.236 . S
O166 Dy152 2.275 . S
O166 C154 1.254 . S
O167 Dy153 2.339 . S
O167 C154 1.257 . S
C168 C171 1.344 . S
C168 C172 1.328 . S
C168 C174 1.516 . S
C169 C170 1.304 . S
C169 C173 1.323 . S
C170 C169 1.304 . S
C170 C171 1.371 . S
C170 H184 0.930 . S
C171 C168 1.344 . S
C171 C170 1.371 . S
C171 H185 0.931 . S
C172 C168 1.328 . S
C172 C173 1.433 . S
C172 H186 0.931 . S
C173 C169 1.323 . S
C173 C172 1.433 . S
C173 H187 0.933 . S
C174 Dy152 2.738 . S
C174 O157 1.255 . S
C174 O158 1.249 . S
C174 C168 1.516 . S
C175 O159 1.254 . S
C175 O160 1.257 . S
C176 O161 1.266 . S
C176 O162 1.236 . S
C177 C180 1.344 . S
C177 C181 1.328 . S
C177 C183 1.516 . S
C178 C179 1.304 . S
C178 C182 1.323 . S
C179 C178 1.304 . S
C179 C180 1.371 . S
C179 H188 0.930 . S
C180 C177 1.344 . S
C180 C179 1.371 . S
C180 H189 0.931 . S
C181 C177 1.328 . S
C181 C182 1.433 . S
C181 H190 0.931 . S
C182 C178 1.323 . S
C182 C181 1.433 . S
C182 H191 0.933 . S
C183 Dy153 2.738 . S
C183 O163 1.255 . S
C183 O164 1.249 . S
C183 C177 1.516 . S
H184 C170 0.930 . S
H185 C171 0.931 . S
H186 C172 0.931 . S
H187 C173 0.933 . S
H188 C179 0.930 . S
H189 C180 0.931 . S
H190 C181 0.931 . S
H191 C182 0.933 . S
Dy192 O195 2.307 1_656 S
Dy192 O197 2.395 . S
Dy192 O198 2.379 . S
Dy192 O200 2.339 1_655 S
Dy192 O202 2.298 . S
Dy192 O206 2.275 1_556 S
Dy192 C214 2.738 . S
Dy193 O196 2.298 . S
Dy193 O199 2.275 1_554 S
Dy193 O201 2.307 1_455 S
Dy193 O203 2.395 . S
Dy193 O204 2.379 . S
Dy193 O207 2.339 1_455 S
Dy193 C223 2.738 . S
C194 O206 1.254 . S
C194 O207 1.257 . S
O195 Dy192 2.307 1_454 S
O195 C205 1.266 . S
O196 Dy193 2.298 . S
O196 C205 1.236 . S
O197 Dy192 2.395 . S
O197 C214 1.255 . S
O198 Dy192 2.379 . S
O198 C214 1.249 . S
O199 Dy193 2.275 1_556 S
O199 C215 1.254 . S
O200 Dy192 2.339 1_455 S
O200 C215 1.257 . S
O201 Dy193 2.307 1_655 S
O201 C216 1.266 1_554 S
O202 Dy192 2.298 . S
O202 C216 1.236 . S
O203 Dy193 2.395 . S
O203 C223 1.255 . S
O204 Dy193 2.379 . S
O204 C223 1.249 . S
C205 O195 1.266 . S
C205 O196 1.236 . S
O206 Dy192 2.275 1_554 S
O206 C194 1.254 . S
O207 Dy193 2.339 1_655 S
O207 C194 1.257 . S
C208 C211 1.344 . S
C208 C212 1.328 . S
C208 C214 1.516 . S
C209 C210 1.304 . S
C209 C213 1.323 . S
C210 C209 1.304 . S
C210 C211 1.371 . S
C210 H224 0.930 . S
C211 C208 1.344 . S
C211 C210 1.371 . S
C211 H225 0.931 . S
C212 C208 1.328 . S
C212 C213 1.433 . S
C212 H226 0.931 . S
C213 C209 1.323 . S
C213 C212 1.433 . S
C213 H227 0.933 . S
C214 Dy192 2.738 . S
C214 O197 1.255 . S
C214 O198 1.249 . S
C214 C208 1.516 . S
C215 O199 1.254 . S
C215 O200 1.257 . S
C216 O201 1.266 1_556 S
C216 O202 1.236 . S
C217 C220 1.344 . S
C217 C221 1.328 . S
C217 C223 1.516 . S
C218 C219 1.304 . S
C218 C222 1.323 . S
C219 C218 1.304 . S
C219 C220 1.371 . S
C219 H228 0.930 . S
C220 C217 1.344 . S
C220 C219 1.371 . S
C220 H229 0.931 . S
C221 C217 1.328 . S
C221 C222 1.433 . S
C221 H230 0.931 . S
C222 C218 1.323 . S
C222 C221 1.433 . S
C222 H231 0.933 . S
C223 Dy193 2.738 . S
C223 O203 1.255 . S
C223 O204 1.249 . S
C223 C217 1.516 . S
H224 C210 0.930 . S
H225 C211 0.931 . S
H226 C212 0.931 . S
H227 C213 0.933 . S
H228 C219 0.930 . S
H229 C220 0.931 . S
H230 C221 0.931 . S
H231 C222 0.933 . S
H232 C250 0.951 . S
H233 C252 0.951 . S
H234 C254 0.950 . S
H235 C255 0.950 . S
H236 C257 0.950 . S
H237 C260 0.950 . S
H238 C261 0.950 . S
H239 C263 0.950 . S
H240 C264 0.950 . S
H241 C265 0.951 . S
H242 C267 0.951 . S
H243 C269 0.950 . S
H244 C270 0.950 . S
H245 C272 0.950 . S
H246 C275 0.950 . S
H247 C276 0.950 . S
H248 C278 0.950 . S
H249 C279 0.950 . S
C250 H232 0.951 . S
C250 C251 1.366 . S
C250 C252 1.388 . S
C251 C250 1.366 . S
C251 C255 1.385 . S
C252 H233 0.951 . S
C252 C250 1.388 . S
C252 C253 1.366 . S
C253 C252 1.366 . S
C253 C254 1.414 . S
C253 C256 1.499 . S
C254 H234 0.950 . S
C254 C253 1.414 . S
C254 C255 1.374 . S
C255 H235 0.950 . S
C255 C251 1.385 . S
C255 C254 1.374 . S
C256 C253 1.499 . S
C256 C257 1.373 . S
C256 C258 1.389 . S
C257 H236 0.950 . S
C257 C256 1.373 . S
C257 C273 1.377 . S
C258 C256 1.389 . S
C258 C259 1.524 . S
C258 C272 1.377 . S
C259 C258 1.524 . S
C259 C260 1.397 . S
C259 C264 1.363 . S
C260 H237 0.950 . S
C260 C259 1.397 . S
C260 C261 1.334 . S
C261 H238 0.950 . S
C261 C260 1.334 . S
C261 C262 1.287 . S
C262 C261 1.287 . S
C262 C263 1.524 . S
C262 H281 0.913 . S
C263 H239 0.950 . S
C263 C262 1.524 . S
C263 C264 1.415 . S
C264 H240 0.950 . S
C264 C259 1.363 . S
C264 C263 1.415 . S
C265 H241 0.951 . S
C265 C266 1.366 . S
C265 C267 1.388 . S
C266 C265 1.366 . S
C266 C270 1.385 . S
C267 H242 0.951 . S
C267 C265 1.388 . S
C267 C268 1.366 . S
C268 C267 1.366 . S
C268 C269 1.414 . S
C268 C271 1.499 . S
C269 H243 0.950 . S
C269 C268 1.414 . S
C269 C270 1.374 . S
C270 H244 0.950 . S
C270 C266 1.385 . S
C270 C269 1.374 . S
C271 C268 1.499 . S
C271 C272 1.373 . S
C271 C273 1.389 . S
C272 H245 0.950 . S
C272 C258 1.377 . S
C272 C271 1.373 . S
C273 C257 1.377 . S
C273 C271 1.389 . S
C273 C274 1.524 . S
C274 C273 1.524 . S
C274 C275 1.397 . S
C274 C279 1.363 . S
C275 H246 0.950 . S
C275 C274 1.397 . S
C275 C276 1.334 . S
C276 H247 0.950 . S
C276 C275 1.334 . S
C276 C277 1.287 . S
C277 C276 1.287 . S
C277 C278 1.524 . S
C277 H280 0.999 . S
C278 H248 0.950 . S
C278 C277 1.524 . S
C278 C279 1.415 . S
C279 H249 0.950 . S
C279 C274 1.363 . S
C279 C278 1.415 . S
H280 C277 0.999 . S
H281 C262 0.913 . S
H282 C300 0.951 . S
H283 C302 0.951 . S
H284 C304 0.950 . S
H285 C305 0.950 . S
H286 C307 0.950 . S
H287 C310 0.950 . S
H288 C311 0.950 . S
H289 C313 0.950 . S
H290 C314 0.950 . S
H291 C315 0.951 . S
H292 C317 0.951 . S
H293 C319 0.950 . S
H294 C320 0.950 . S
H295 C322 0.950 . S
H296 C325 0.950 . S
H297 C326 0.950 . S
H298 C328 0.950 . S
H299 C329 0.950 . S
C300 H282 0.951 . S
C300 C301 1.366 . S
C300 C302 1.388 . S
C301 C300 1.366 . S
C301 C305 1.385 . S
C302 H283 0.951 . S
C302 C300 1.388 . S
C302 C303 1.366 . S
C303 C302 1.366 . S
C303 C304 1.414 . S
C303 C306 1.499 . S
C304 H284 0.950 . S
C304 C303 1.414 . S
C304 C305 1.374 . S
C305 H285 0.950 . S
C305 C301 1.385 . S
C305 C304 1.374 . S
C306 C303 1.499 . S
C306 C307 1.373 . S
C306 C308 1.389 . S
C307 H286 0.950 . S
C307 C306 1.373 . S
C307 C323 1.377 . S
C308 C306 1.389 . S
C308 C309 1.524 . S
C308 C322 1.377 . S
C309 C308 1.524 . S
C309 C310 1.397 . S
C309 C314 1.363 . S
C310 H287 0.950 . S
C310 C309 1.397 . S
C310 C311 1.334 . S
C311 H288 0.950 . S
C311 C310 1.334 . S
C311 C312 1.287 . S
C312 C311 1.287 . S
C312 C313 1.524 . S
C312 H331 0.913 . S
C313 H289 0.950 . S
C313 C312 1.524 . S
C313 C314 1.415 . S
C314 H290 0.950 . S
C314 C309 1.363 . S
C314 C313 1.415 . S
C315 H291 0.951 . S
C315 C316 1.366 . S
C315 C317 1.388 . S
C316 C315 1.366 . S
C316 C320 1.385 . S
C317 H292 0.951 . S
C317 C315 1.388 . S
C317 C318 1.366 . S
C318 C317 1.366 . S
C318 C319 1.414 . S
C318 C321 1.499 . S
C319 H293 0.950 . S
C319 C318 1.414 . S
C319 C320 1.374 . S
C320 H294 0.950 . S
C320 C316 1.385 . S
C320 C319 1.374 . S
C321 C318 1.499 . S
C321 C322 1.373 . S
C321 C323 1.389 . S
C322 H295 0.950 . S
C322 C308 1.377 . S
C322 C321 1.373 . S
C323 C307 1.377 . S
C323 C321 1.389 . S
C323 C324 1.524 . S
C324 C323 1.524 . S
C324 C325 1.397 . S
C324 C329 1.363 . S
C325 H296 0.950 . S
C325 C324 1.397 . S
C325 C326 1.334 . S
C326 H297 0.950 . S
C326 C325 1.334 . S
C326 C327 1.287 . S
C327 C326 1.287 . S
C327 C328 1.524 . S
C327 H330 0.999 . S
C328 H298 0.950 . S
C328 C327 1.524 . S
C328 C329 1.415 . S
C329 H299 0.950 . S
C329 C324 1.363 . S
C329 C328 1.415 . S
H330 C327 0.999 . S
H331 C312 0.913 . S
H332 C350 0.951 . S
H333 C352 0.951 . S
H334 C354 0.950 . S
H335 C355 0.950 . S
H336 C357 0.950 . S
H337 C360 0.950 . S
H338 C361 0.950 . S
H339 C363 0.950 . S
H340 C364 0.950 . S
H341 C365 0.951 . S
H342 C367 0.951 . S
H343 C369 0.950 . S
H344 C370 0.950 . S
H345 C372 0.950 . S
H346 C375 0.950 . S
H347 C376 0.950 . S
H348 C378 0.950 . S
H349 C379 0.950 . S
C350 H332 0.951 . S
C350 C351 1.366 . S
C350 C352 1.388 . S
C351 C350 1.366 . S
C351 C355 1.385 . S
C352 H333 0.951 . S
C352 C350 1.388 . S
C352 C353 1.366 . S
C353 C352 1.366 . S
C353 C354 1.414 . S
C353 C356 1.499 . S
C354 H334 0.950 . S
C354 C353 1.414 . S
C354 C355 1.374 . S
C355 H335 0.950 . S
C355 C351 1.385 . S
C355 C354 1.374 . S
C356 C353 1.499 . S
C356 C357 1.373 . S
C356 C358 1.389 . S
C357 H336 0.950 . S
C357 C356 1.373 . S
C357 C373 1.377 . S
C358 C356 1.389 . S
C358 C359 1.524 . S
C358 C372 1.377 . S
C359 C358 1.524 . S
C359 C360 1.397 . S
C359 C364 1.363 . S
C360 H337 0.950 . S
C360 C359 1.397 . S
C360 C361 1.334 . S
C361 H338 0.950 . S
C361 C360 1.334 . S
C361 C362 1.287 . S
C362 C361 1.287 . S
C362 C363 1.524 . S
C362 H381 0.913 . S
C363 H339 0.950 . S
C363 C362 1.524 . S
C363 C364 1.415 . S
C364 H340 0.950 . S
C364 C359 1.363 . S
C364 C363 1.415 . S
C365 H341 0.951 . S
C365 C366 1.366 . S
C365 C367 1.388 . S
C366 C365 1.366 . S
C366 C370 1.385 . S
C367 H342 0.951 . S
C367 C365 1.388 . S
C367 C368 1.366 . S
C368 C367 1.366 . S
C368 C369 1.414 . S
C368 C371 1.499 . S
C369 H343 0.950 . S
C369 C368 1.414 . S
C369 C370 1.374 . S
C370 H344 0.950 . S
C370 C366 1.385 . S
C370 C369 1.374 . S
C371 C368 1.499 . S
C371 C372 1.373 . S
C371 C373 1.389 . S
C372 H345 0.950 . S
C372 C358 1.377 . S
C372 C371 1.373 . S
C373 C357 1.377 . S
C373 C371 1.389 . S
C373 C374 1.524 . S
C374 C373 1.524 . S
C374 C375 1.397 . S
C374 C379 1.363 . S
C375 H346 0.950 . S
C375 C374 1.397 . S
C375 C376 1.334 . S
C376 H347 0.950 . S
C376 C375 1.334 . S
C376 C377 1.287 . S
C377 C376 1.287 . S
C377 C378 1.524 . S
C377 H380 0.999 . S
C378 H348 0.950 . S
C378 C377 1.524 . S
C378 C379 1.415 . S
C379 H349 0.950 . S
C379 C374 1.363 . S
C379 C378 1.415 . S
H380 C377 0.999 . S
H381 C362 0.913 . S
H382 C400 0.951 . S
H383 C402 0.951 . S
H384 C404 0.950 . S
H385 C405 0.950 . S
H386 C407 0.950 . S
H387 C410 0.950 . S
H388 C411 0.950 . S
H389 C413 0.950 . S
H390 C414 0.950 . S
H391 C415 0.951 . S
H392 C417 0.951 . S
H393 C419 0.950 . S
H394 C420 0.950 . S
H395 C422 0.950 . S
H396 C425 0.950 . S
H397 C426 0.950 . S
H398 C428 0.950 . S
H399 C429 0.950 . S
C400 H382 0.951 . S
C400 C401 1.366 . S
C400 C402 1.388 . S
C401 C400 1.366 . S
C401 C405 1.385 . S
C402 H383 0.951 . S
C402 C400 1.388 . S
C402 C403 1.366 . S
C403 C402 1.366 . S
C403 C404 1.414 . S
C403 C406 1.499 . S
C404 H384 0.950 . S
C404 C403 1.414 . S
C404 C405 1.374 . S
C405 H385 0.950 . S
C405 C401 1.385 . S
C405 C404 1.374 . S
C406 C403 1.499 . S
C406 C407 1.373 . S
C406 C408 1.389 . S
C407 H386 0.950 . S
C407 C406 1.373 . S
C407 C423 1.377 . S
C408 C406 1.389 . S
C408 C409 1.524 . S
C408 C422 1.377 . S
C409 C408 1.524 . S
C409 C410 1.397 . S
C409 C414 1.363 . S
C410 H387 0.950 . S
C410 C409 1.397 . S
C410 C411 1.334 . S
C411 H388 0.950 . S
C411 C410 1.334 . S
C411 C412 1.287 . S
C412 C411 1.287 . S
C412 C413 1.524 . S
C412 H431 0.913 . S
C413 H389 0.950 . S
C413 C412 1.524 . S
C413 C414 1.415 . S
C414 H390 0.950 . S
C414 C409 1.363 . S
C414 C413 1.415 . S
C415 H391 0.951 . S
C415 C416 1.366 . S
C415 C417 1.388 . S
C416 C415 1.366 . S
C416 C420 1.385 . S
C417 H392 0.951 . S
C417 C415 1.388 . S
C417 C418 1.366 . S
C418 C417 1.366 . S
C418 C419 1.414 . S
C418 C421 1.499 . S
C419 H393 0.950 . S
C419 C418 1.414 . S
C419 C420 1.374 . S
C420 H394 0.950 . S
C420 C416 1.385 . S
C420 C419 1.374 . S
C421 C418 1.499 . S
C421 C422 1.373 . S
C421 C423 1.389 . S
C422 H395 0.950 . S
C422 C408 1.377 . S
C422 C421 1.373 . S
C423 C407 1.377 . S
C423 C421 1.389 . S
C423 C424 1.524 . S
C424 C423 1.524 . S
C424 C425 1.397 . S
C424 C429 1.363 . S
C425 H396 0.950 . S
C425 C424 1.397 . S
C425 C426 1.334 . S
C426 H397 0.950 . S
C426 C425 1.334 . S
C426 C427 1.287 1_655 S
C427 C426 1.287 1_455 S
C427 C428 1.524 . S
C427 H430 0.999 . S
C428 H398 0.950 . S
C428 C427 1.524 . S
C428 C429 1.415 1_455 S
C429 H399 0.950 . S
C429 C424 1.363 . S
C429 C428 1.415 1_655 S
H430 C427 0.999 . S
H431 C412 0.913 . S
H432 C450 0.951 . S
H433 C452 0.951 . S
H434 C454 0.950 . S
H435 C455 0.950 . S
H436 C457 0.950 . S
H437 C460 0.950 . S
H438 C461 0.950 . S
H439 C463 0.950 . S
H440 C464 0.950 . S
H441 C465 0.951 . S
H442 C467 0.951 . S
H443 C469 0.950 . S
H444 C470 0.950 . S
H445 C472 0.950 . S
H446 C475 0.950 . S
H447 C476 0.950 1_556 S
H448 C478 0.950 . S
H449 C479 0.950 . S
C450 H432 0.951 . S
C450 C451 1.366 . S
C450 C452 1.388 . S
C451 C450 1.366 . S
C451 C455 1.385 . S
C452 H433 0.951 . S
C452 C450 1.388 . S
C452 C453 1.366 . S
C453 C452 1.366 . S
C453 C454 1.414 . S
C453 C456 1.499 . S
C454 H434 0.950 . S
C454 C453 1.414 . S
C454 C455 1.374 . S
C455 H435 0.950 . S
C455 C451 1.385 . S
C455 C454 1.374 . S
C456 C453 1.499 . S
C456 C457 1.373 . S
C456 C458 1.389 . S
C457 H436 0.950 . S
C457 C456 1.373 . S
C457 C473 1.377 . S
C458 C456 1.389 . S
C458 C459 1.524 . S
C458 C472 1.377 . S
C459 C458 1.524 . S
C459 C460 1.397 . S
C459 C464 1.363 . S
C460 H437 0.950 . S
C460 C459 1.397 . S
C460 C461 1.334 . S
C461 H438 0.950 . S
C461 C460 1.334 . S
C461 C462 1.287 . S
C462 C461 1.287 . S
C462 C463 1.524 . S
C462 H481 0.913 . S
C463 H439 0.950 . S
C463 C462 1.524 . S
C463 C464 1.415 . S
C464 H440 0.950 . S
C464 C459 1.363 . S
C464 C463 1.415 . S
C465 H441 0.951 . S
C465 C466 1.366 . S
C465 C467 1.388 . S
C466 C465 1.366 . S
C466 C470 1.385 . S
C467 H442 0.951 . S
C467 C465 1.388 . S
C467 C468 1.366 . S
C468 C467 1.366 . S
C468 C469 1.414 . S
C468 C471 1.499 . S
C469 H443 0.950 . S
C469 C468 1.414 . S
C469 C470 1.374 . S
C470 H444 0.950 . S
C470 C466 1.385 . S
C470 C469 1.374 . S
C471 C468 1.499 . S
C471 C472 1.373 . S
C471 C473 1.389 . S
C472 H445 0.950 . S
C472 C458 1.377 . S
C472 C471 1.373 . S
C473 C457 1.377 . S
C473 C471 1.389 . S
C473 C474 1.524 . S
C474 C473 1.524 . S
C474 C475 1.397 . S
C474 C479 1.363 . S
C475 H446 0.950 . S
C475 C474 1.397 . S
C475 C476 1.334 . S
C476 H447 0.950 1_554 S
C476 C475 1.334 . S
C476 C477 1.287 . S
C477 C476 1.287 . S
C477 C478 1.524 . S
C477 H480 0.999 1_554 S
C478 H448 0.950 . S
C478 C477 1.524 . S
C478 C479 1.415 . S
C479 H449 0.950 . S
C479 C474 1.363 . S
C479 C478 1.415 . S
H480 C477 0.999 1_556 S
H481 C462 0.913 . S
H482 C500 0.951 . S
H483 C502 0.951 . S
H484 C504 0.950 . S
H485 C505 0.950 . S
H486 C507 0.950 . S
H487 C510 0.950 . S
H488 C511 0.950 . S
H489 C513 0.950 . S
H490 C514 0.950 . S
H491 C515 0.951 . S
H492 C517 0.951 . S
H493 C519 0.950 . S
H494 C520 0.950 . S
H495 C522 0.950 . S
H496 C525 0.950 . S
H497 C526 0.950 . S
H498 C528 0.950 . S
H499 C529 0.950 . S
C500 H482 0.951 . S
C500 C501 1.366 . S
C500 C502 1.388 . S
C501 C500 1.366 . S
C501 C505 1.385 . S
C502 H483 0.951 . S
C502 C500 1.388 . S
C502 C503 1.366 . S
C503 C502 1.366 . S
C503 C504 1.414 . S
C503 C506 1.499 . S
C504 H484 0.950 . S
C504 C503 1.414 . S
C504 C505 1.374 . S
C505 H485 0.950 . S
C505 C501 1.385 . S
C505 C504 1.374 . S
C506 C503 1.499 . S
C506 C507 1.373 . S
C506 C508 1.389 . S
C507 H486 0.950 . S
C507 C506 1.373 . S
C507 C523 1.377 . S
C508 C506 1.389 . S
C508 C509 1.524 . S
C508 C522 1.377 . S
C509 C508 1.524 . S
C509 C510 1.397 . S
C509 C514 1.363 . S
C510 H487 0.950 . S
C510 C509 1.397 . S
C510 C511 1.334 . S
C511 H488 0.950 . S
C511 C510 1.334 . S
C511 C512 1.287 . S
C512 C511 1.287 . S
C512 C513 1.524 . S
C512 H531 0.913 . S
C513 H489 0.950 . S
C513 C512 1.524 . S
C513 C514 1.415 . S
C514 H490 0.950 . S
C514 C509 1.363 . S
C514 C513 1.415 . S
C515 H491 0.951 . S
C515 C516 1.366 . S
C515 C517 1.388 . S
C516 C515 1.366 . S
C516 C520 1.385 . S
C517 H492 0.951 . S
C517 C515 1.388 . S
C517 C518 1.366 . S
C518 C517 1.366 . S
C518 C519 1.414 . S
C518 C521 1.499 . S
C519 H493 0.950 . S
C519 C518 1.414 . S
C519 C520 1.374 . S
C520 H494 0.950 . S
C520 C516 1.385 . S
C520 C519 1.374 . S
C521 C518 1.499 . S
C521 C522 1.373 . S
C521 C523 1.389 . S
C522 H495 0.950 . S
C522 C508 1.377 . S
C522 C521 1.373 . S
C523 C507 1.377 . S
C523 C521 1.389 . S
C523 C524 1.524 . S
C524 C523 1.524 . S
C524 C525 1.397 . S
C524 C529 1.363 . S
C525 H496 0.950 . S
C525 C524 1.397 . S
C525 C526 1.334 . S
C526 H497 0.950 . S
C526 C525 1.334 . S
C526 C527 1.287 . S
C527 C526 1.287 . S
C527 C528 1.524 . S
C527 H530 0.999 . S
C528 H498 0.950 . S
C528 C527 1.524 . S
C528 C529 1.415 . S
C529 H499 0.950 . S
C529 C524 1.363 . S
C529 C528 1.415 . S
H530 C527 0.999 . S
H531 C512 0.913 . S
H532 C550 0.951 . S
H533 C552 0.951 . S
H534 C554 0.950 . S
H535 C555 0.950 . S
H536 C557 0.950 . S
H537 C560 0.950 . S
H538 C561 0.950 . S
H539 C563 0.950 . S
H540 C564 0.950 . S
H541 C565 0.951 . S
H542 C567 0.951 . S
H543 C569 0.950 . S
H544 C570 0.950 1_554 S
H545 C572 0.950 . S
H546 C575 0.950 . S
H547 C576 0.950 . S
H548 C578 0.950 . S
H549 C579 0.950 . S
C550 H532 0.951 . S
C550 C551 1.366 . S
C550 C552 1.388 . S
C551 C550 1.366 . S
C551 C555 1.385 . S
C552 H533 0.951 . S
C552 C550 1.388 . S
C552 C553 1.366 . S
C553 C552 1.366 . S
C553 C554 1.414 . S
C553 C556 1.499 . S
C554 H534 0.950 . S
C554 C553 1.414 . S
C554 C555 1.374 . S
C555 H535 0.950 . S
C555 C551 1.385 . S
C555 C554 1.374 . S
C556 C553 1.499 . S
C556 C557 1.373 . S
C556 C558 1.389 . S
C557 H536 0.950 . S
C557 C556 1.373 . S
C557 C573 1.377 . S
C558 C556 1.389 . S
C558 C559 1.524 . S
C558 C572 1.377 . S
C559 C558 1.524 . S
C559 C560 1.397 . S
C559 C564 1.363 . S
C560 H537 0.950 . S
C560 C559 1.397 . S
C560 C561 1.334 . S
C561 H538 0.950 . S
C561 C560 1.334 . S
C561 C562 1.287 . S
C562 C561 1.287 . S
C562 C563 1.524 . S
C562 H581 0.913 . S
C563 H539 0.950 . S
C563 C562 1.524 . S
C563 C564 1.415 . S
C564 H540 0.950 . S
C564 C559 1.363 . S
C564 C563 1.415 . S
C565 H541 0.951 . S
C565 C566 1.366 . S
C565 C567 1.388 . S
C566 C565 1.366 . S
C566 C570 1.385 . S
C567 H542 0.951 . S
C567 C565 1.388 . S
C567 C568 1.366 . S
C568 C567 1.366 . S
C568 C569 1.414 . S
C568 C571 1.499 . S
C569 H543 0.950 . S
C569 C568 1.414 . S
C569 C570 1.374 . S
C570 H544 0.950 1_556 S
C570 C566 1.385 . S
C570 C569 1.374 . S
C571 C568 1.499 . S
C571 C572 1.373 . S
C571 C573 1.389 . S
C572 H545 0.950 . S
C572 C558 1.377 . S
C572 C571 1.373 . S
C573 C557 1.377 . S
C573 C571 1.389 . S
C573 C574 1.524 . S
C574 C573 1.524 . S
C574 C575 1.397 . S
C574 C579 1.363 . S
C575 H546 0.950 . S
C575 C574 1.397 . S
C575 C576 1.334 . S
C576 H547 0.950 . S
C576 C575 1.334 . S
C576 C577 1.287 . S
C577 C576 1.287 . S
C577 C578 1.524 . S
C577 H580 0.999 . S
C578 H548 0.950 . S
C578 C577 1.524 . S
C578 C579 1.415 . S
C579 H549 0.950 . S
C579 C574 1.363 . S
C579 C578 1.415 . S
H580 C577 0.999 . S
H581 C562 0.913 . S
H582 C600 0.951 . S
H583 C602 0.951 . S
H584 C604 0.950 . S
H585 C605 0.950 . S
H586 C607 0.950 . S
H587 C610 0.950 . S
H588 C611 0.950 . S
H589 C613 0.950 . S
H590 C614 0.950 . S
H591 C615 0.951 . S
H592 C617 0.951 . S
H593 C619 0.950 . S
H594 C620 0.950 . S
H595 C622 0.950 . S
H596 C625 0.950 . S
H597 C626 0.950 . S
H598 C628 0.950 . S
H599 C629 0.950 . S
C600 H582 0.951 . S
C600 C601 1.366 . S
C600 C602 1.388 . S
C601 C600 1.366 . S
C601 C605 1.385 . S
C602 H583 0.951 . S
C602 C600 1.388 . S
C602 C603 1.366 . S
C603 C602 1.366 . S
C603 C604 1.414 . S
C603 C606 1.499 . S
C604 H584 0.950 . S
C604 C603 1.414 . S
C604 C605 1.374 . S
C605 H585 0.950 . S
C605 C601 1.385 . S
C605 C604 1.374 . S
C606 C603 1.499 . S
C606 C607 1.373 . S
C606 C608 1.389 . S
C607 H586 0.950 . S
C607 C606 1.373 . S
C607 C623 1.377 . S
C608 C606 1.389 . S
C608 C609 1.524 . S
C608 C622 1.377 . S
C609 C608 1.524 . S
C609 C610 1.397 . S
C609 C614 1.363 . S
C610 H587 0.950 . S
C610 C609 1.397 . S
C610 C611 1.334 . S
C611 H588 0.950 . S
C611 C610 1.334 . S
C611 C612 1.287 . S
C612 C611 1.287 . S
C612 C613 1.524 . S
C612 H631 0.913 . S
C613 H589 0.950 . S
C613 C612 1.524 . S
C613 C614 1.415 . S
C614 H590 0.950 . S
C614 C609 1.363 . S
C614 C613 1.415 . S
C615 H591 0.951 . S
C615 C616 1.366 . S
C615 C617 1.388 . S
C616 C615 1.366 . S
C616 C620 1.385 . S
C617 H592 0.951 . S
C617 C615 1.388 . S
C617 C618 1.366 . S
C618 C617 1.366 . S
C618 C619 1.414 . S
C618 C621 1.499 . S
C619 H593 0.950 . S
C619 C618 1.414 . S
C619 C620 1.374 . S
C620 H594 0.950 . S
C620 C616 1.385 . S
C620 C619 1.374 . S
C621 C618 1.499 . S
C621 C622 1.373 . S
C621 C623 1.389 . S
C622 H595 0.950 . S
C622 C608 1.377 . S
C622 C621 1.373 . S
C623 C607 1.377 . S
C623 C621 1.389 . S
C623 C624 1.524 . S
C624 C623 1.524 . S
C624 C625 1.397 . S
C624 C629 1.363 . S
C625 H596 0.950 . S
C625 C624 1.397 . S
C625 C626 1.334 . S
C626 H597 0.950 . S
C626 C625 1.334 . S
C626 C627 1.287 . S
C627 C626 1.287 . S
C627 C628 1.524 . S
C627 H630 0.999 . S
C628 H598 0.950 . S
C628 C627 1.524 . S
C628 C629 1.415 . S
C629 H599 0.950 . S
C629 C624 1.363 . S
C629 C628 1.415 . S
H630 C627 0.999 . S
H631 C612 0.913 . S
H632 C650 0.951 . S
H633 C652 0.951 . S
H634 C654 0.950 . S
H635 C655 0.950 . S
H636 C657 0.950 . S
H637 C660 0.950 . S
H638 C661 0.950 . S
H639 C663 0.950 . S
H640 C664 0.950 . S
H641 C665 0.951 . S
H642 C667 0.951 . S
H643 C669 0.950 . S
H644 C670 0.950 . S
H645 C672 0.950 . S
H646 C675 0.950 . S
H647 C676 0.950 . S
H648 C678 0.950 . S
H649 C679 0.950 . S
C650 H632 0.951 . S
C650 C651 1.366 . S
C650 C652 1.388 . S
C651 C650 1.366 . S
C651 C655 1.385 . S
C652 H633 0.951 . S
C652 C650 1.388 . S
C652 C653 1.366 . S
C653 C652 1.366 . S
C653 C654 1.414 . S
C653 C656 1.499 . S
C654 H634 0.950 . S
C654 C653 1.414 . S
C654 C655 1.374 . S
C655 H635 0.950 . S
C655 C651 1.385 . S
C655 C654 1.374 . S
C656 C653 1.499 . S
C656 C657 1.373 . S
C656 C658 1.389 . S
C657 H636 0.950 . S
C657 C656 1.373 . S
C657 C673 1.377 . S
C658 C656 1.389 . S
C658 C659 1.524 . S
C658 C672 1.377 . S
C659 C658 1.524 . S
C659 C660 1.397 . S
C659 C664 1.363 . S
C660 H637 0.950 . S
C660 C659 1.397 . S
C660 C661 1.334 . S
C661 H638 0.950 . S
C661 C660 1.334 . S
C661 C662 1.287 . S
C662 C661 1.287 . S
C662 C663 1.524 . S
C662 H681 0.913 . S
C663 H639 0.950 . S
C663 C662 1.524 . S
C663 C664 1.415 . S
C664 H640 0.950 . S
C664 C659 1.363 . S
C664 C663 1.415 . S
C665 H641 0.951 . S
C665 C666 1.366 . S
C665 C667 1.388 . S
C666 C665 1.366 . S
C666 C670 1.385 . S
C667 H642 0.951 . S
C667 C665 1.388 . S
C667 C668 1.366 . S
C668 C667 1.366 . S
C668 C669 1.414 . S
C668 C671 1.499 . S
C669 H643 0.950 . S
C669 C668 1.414 . S
C669 C670 1.374 . S
C670 H644 0.950 . S
C670 C666 1.385 . S
C670 C669 1.374 . S
C671 C668 1.499 . S
C671 C672 1.373 . S
C671 C673 1.389 . S
C672 H645 0.950 . S
C672 C658 1.377 . S
C672 C671 1.373 . S
C673 C657 1.377 . S
C673 C671 1.389 . S
C673 C674 1.524 . S
C674 C673 1.524 . S
C674 C675 1.397 . S
C674 C679 1.363 . S
C675 H646 0.950 . S
C675 C674 1.397 . S
C675 C676 1.334 . S
C676 H647 0.950 . S
C676 C675 1.334 . S
C676 C677 1.287 . S
C677 C676 1.287 . S
C677 C678 1.524 . S
C677 H680 0.999 . S
C678 H648 0.950 . S
C678 C677 1.524 . S
C678 C679 1.415 . S
C679 H649 0.950 . S
C679 C674 1.363 . S
C679 C678 1.415 . S
H680 C677 0.999 . S
H681 C662 0.913 . S
H682 C700 0.951 . S
H683 C702 0.951 . S
H684 C704 0.950 . S
H685 C705 0.950 . S
H686 C707 0.950 . S
H687 C710 0.950 . S
H688 C711 0.950 . S
H689 C713 0.950 . S
H690 C714 0.950 . S
H691 C715 0.951 . S
H692 C717 0.951 . S
H693 C719 0.950 . S
H694 C720 0.950 . S
H695 C722 0.950 . S
H696 C725 0.950 . S
H697 C726 0.950 . S
H698 C728 0.950 . S
H699 C729 0.950 . S
C700 H682 0.951 . S
C700 C701 1.366 . S
C700 C702 1.388 . S
C701 C700 1.366 . S
C701 C705 1.385 . S
C702 H683 0.951 . S
C702 C700 1.388 . S
C702 C703 1.366 . S
C703 C702 1.366 . S
C703 C704 1.414 . S
C703 C706 1.499 . S
C704 H684 0.950 . S
C704 C703 1.414 . S
C704 C705 1.374 . S
C705 H685 0.950 . S
C705 C701 1.385 . S
C705 C704 1.374 . S
C706 C703 1.499 . S
C706 C707 1.373 . S
C706 C708 1.389 . S
C707 H686 0.950 . S
C707 C706 1.373 . S
C707 C723 1.377 . S
C708 C706 1.389 . S
C708 C709 1.524 . S
C708 C722 1.377 . S
C709 C708 1.524 . S
C709 C710 1.397 . S
C709 C714 1.363 . S
C710 H687 0.950 . S
C710 C709 1.397 . S
C710 C711 1.334 . S
C711 H688 0.950 . S
C711 C710 1.334 . S
C711 C712 1.287 . S
C712 C711 1.287 . S
C712 C713 1.524 . S
C712 H731 0.913 . S
C713 H689 0.950 . S
C713 C712 1.524 . S
C713 C714 1.415 . S
C714 H690 0.950 . S
C714 C709 1.363 . S
C714 C713 1.415 . S
C715 H691 0.951 . S
C715 C716 1.366 . S
C715 C717 1.388 . S
C716 C715 1.366 . S
C716 C720 1.385 . S
C717 H692 0.951 . S
C717 C715 1.388 . S
C717 C718 1.366 . S
C718 C717 1.366 . S
C718 C719 1.414 . S
C718 C721 1.499 . S
C719 H693 0.950 . S
C719 C718 1.414 . S
C719 C720 1.374 . S
C720 H694 0.950 . S
C720 C716 1.385 . S
C720 C719 1.374 . S
C721 C718 1.499 . S
C721 C722 1.373 . S
C721 C723 1.389 . S
C722 H695 0.950 . S
C722 C708 1.377 . S
C722 C721 1.373 . S
C723 C707 1.377 . S
C723 C721 1.389 . S
C723 C724 1.524 . S
C724 C723 1.524 . S
C724 C725 1.397 . S
C724 C729 1.363 . S
C725 H696 0.950 . S
C725 C724 1.397 . S
C725 C726 1.334 1_556 S
C726 H697 0.950 . S
C726 C725 1.334 1_554 S
C726 C727 1.287 . S
C727 C726 1.287 . S
C727 C728 1.524 1_554 S
C727 H730 0.999 . S
C728 H698 0.950 . S
C728 C727 1.524 1_556 S
C728 C729 1.415 . S
C729 H699 0.950 . S
C729 C724 1.363 . S
C729 C728 1.415 . S
H730 C727 0.999 . S
H731 C712 0.913 . S
H732 C750 0.951 . S
H733 C752 0.951 . S
H734 C754 0.950 . S
H735 C755 0.950 . S
H736 C757 0.950 . S
H737 C760 0.950 . S
H738 C761 0.950 . S
H739 C763 0.950 . S
H740 C764 0.950 . S
H741 C765 0.951 . S
H742 C767 0.951 . S
H743 C769 0.950 . S
H744 C770 0.950 . S
H745 C772 0.950 . S
H746 C775 0.969 . S
H747 C776 0.950 . S
H748 C778 0.950 . S
H749 C779 0.950 1_655 S
C750 H732 0.951 . S
C750 C751 1.366 . S
C750 C752 1.388 . S
C751 C750 1.366 . S
C751 C755 1.385 . S
C752 H733 0.951 . S
C752 C750 1.388 . S
C752 C753 1.366 . S
C753 C752 1.366 . S
C753 C754 1.414 . S
C753 C756 1.499 . S
C754 H734 0.950 . S
C754 C753 1.414 . S
C754 C755 1.374 . S
C755 H735 0.950 . S
C755 C751 1.385 . S
C755 C754 1.374 . S
C756 C753 1.499 . S
C756 C757 1.373 . S
C756 C758 1.389 . S
C757 H736 0.950 . S
C757 C756 1.373 . S
C757 C773 1.377 . S
C758 C756 1.389 . S
C758 C759 1.524 . S
C758 C772 1.377 . S
C759 C758 1.524 . S
C759 C760 1.397 . S
C759 C764 1.363 . S
C760 H737 0.950 . S
C760 C759 1.397 . S
C760 C761 1.334 . S
C761 H738 0.950 . S
C761 C760 1.334 . S
C761 C762 1.287 . S
C762 C761 1.287 . S
C762 C763 1.524 . S
C762 H781 0.913 . S
C763 H739 0.950 . S
C763 C762 1.524 . S
C763 C764 1.415 . S
C764 H740 0.950 . S
C764 C759 1.363 . S
C764 C763 1.415 . S
C765 H741 0.951 . S
C765 C766 1.366 . S
C765 C767 1.388 . S
C766 C765 1.366 . S
C766 C770 1.385 . S
C767 H742 0.951 . S
C767 C765 1.388 . S
C767 C768 1.366 . S
C768 C767 1.366 . S
C768 C769 1.414 . S
C768 C771 1.499 . S
C769 H743 0.950 . S
C769 C768 1.414 . S
C769 C770 1.374 . S
C770 H744 0.950 . S
C770 C766 1.385 . S
C770 C769 1.374 . S
C771 C768 1.499 . S
C771 C772 1.373 . S
C771 C773 1.389 . S
C772 H745 0.950 . S
C772 C758 1.377 . S
C772 C771 1.373 . S
C773 C757 1.377 . S
C773 C771 1.389 . S
C773 C774 1.524 . S
C774 C773 1.524 . S
C774 C775 1.410 . S
C774 C779 1.363 1_655 S
C775 H746 0.969 . S
C775 C774 1.410 . S
C775 C776 1.303 1_655 S
C776 H747 0.950 . S
C776 C775 1.303 1_455 S
C776 C777 1.287 . S
C777 C776 1.287 . S
C777 C778 1.524 . S
C777 H780 0.999 . S
C778 H748 0.950 . S
C778 C777 1.524 . S
C778 C779 1.415 . S
C779 H749 0.950 1_455 S
C779 C774 1.363 1_455 S
C779 C778 1.415 . S
H780 C777 0.999 . S
H781 C762 0.913 . S
H782 C800 0.951 . S
H783 C802 0.951 . S
H784 C804 0.950 . S
H785 C805 0.950 . S
H786 C807 0.950 . S
H787 C810 0.950 . S
H788 C811 0.950 . S
H789 C813 0.950 . S
H790 C814 0.950 . S
H791 C815 0.951 . S
H792 C817 0.951 . S
H793 C819 0.950 . S
H794 C820 0.950 . S
H795 C822 0.950 . S
H796 C825 0.950 . S
H797 C826 0.950 . S
H798 C828 0.950 . S
H799 C829 0.950 . S
C800 H782 0.951 . S
C800 C801 1.366 . S
C800 C802 1.388 . S
C801 C800 1.366 . S
C801 C805 1.385 . S
C802 H783 0.951 . S
C802 C800 1.388 . S
C802 C803 1.366 . S
C803 C802 1.366 . S
C803 C804 1.414 . S
C803 C806 1.499 . S
C804 H784 0.950 . S
C804 C803 1.414 . S
C804 C805 1.374 . S
C805 H785 0.950 . S
C805 C801 1.385 . S
C805 C804 1.374 . S
C806 C803 1.499 . S
C806 C807 1.373 . S
C806 C808 1.389 . S
C807 H786 0.950 . S
C807 C806 1.373 . S
C807 C823 1.377 . S
C808 C806 1.389 . S
C808 C809 1.524 . S
C808 C822 1.377 . S
C809 C808 1.524 . S
C809 C810 1.397 . S
C809 C814 1.363 . S
C810 H787 0.950 . S
C810 C809 1.397 . S
C810 C811 1.334 . S
C811 H788 0.950 . S
C811 C810 1.334 . S
C811 C812 1.287 . S
C812 C811 1.287 . S
C812 C813 1.524 . S
C812 H831 0.913 . S
C813 H789 0.950 . S
C813 C812 1.524 . S
C813 C814 1.415 . S
C814 H790 0.950 . S
C814 C809 1.363 . S
C814 C813 1.415 . S
C815 H791 0.951 . S
C815 C816 1.366 . S
C815 C817 1.388 . S
C816 C815 1.366 . S
C816 C820 1.385 . S
C817 H792 0.951 . S
C817 C815 1.388 . S
C817 C818 1.366 . S
C818 C817 1.366 . S
C818 C819 1.414 . S
C818 C821 1.499 . S
C819 H793 0.950 . S
C819 C818 1.414 . S
C819 C820 1.374 . S
C820 H794 0.950 . S
C820 C816 1.385 . S
C820 C819 1.374 . S
C821 C818 1.499 . S
C821 C822 1.373 . S
C821 C823 1.389 . S
C822 H795 0.950 . S
C822 C808 1.377 . S
C822 C821 1.373 . S
C823 C807 1.377 . S
C823 C821 1.389 . S
C823 C824 1.524 . S
C824 C823 1.524 . S
C824 C825 1.397 . S
C824 C829 1.363 . S
C825 H796 0.950 . S
C825 C824 1.397 . S
C825 C826 1.334 . S
C826 H797 0.950 . S
C826 C825 1.334 . S
C826 C827 1.287 . S
C827 C826 1.287 . S
C827 C828 1.524 . S
C827 H830 0.999 . S
C828 H798 0.950 . S
C828 C827 1.524 . S
C828 C829 1.415 . S
C829 H799 0.950 . S
C829 C824 1.363 . S
C829 C828 1.415 . S
H830 C827 0.999 . S
H831 C812 0.913 . S
H832 C850 0.951 . S
H833 C852 0.951 . S
H834 C854 0.950 . S
H835 C855 0.950 . S
H836 C857 0.950 . S
H837 C860 0.950 . S
H838 C861 0.950 . S
H839 C863 0.950 . S
H840 C864 0.950 . S
H841 C865 0.951 . S
H842 C867 0.951 . S
H843 C869 0.950 . S
H844 C870 0.950 . S
H845 C872 0.950 . S
H846 C875 0.950 . S
H847 C876 0.950 . S
H848 C878 0.950 . S
H849 C879 0.950 . S
C850 H832 0.951 . S
C850 C851 1.366 . S
C850 C852 1.388 . S
C851 C850 1.366 . S
C851 C855 1.385 . S
C852 H833 0.951 . S
C852 C850 1.388 . S
C852 C853 1.366 . S
C853 C852 1.366 . S
C853 C854 1.414 . S
C853 C856 1.499 . S
C854 H834 0.950 . S
C854 C853 1.414 . S
C854 C855 1.374 . S
C855 H835 0.950 . S
C855 C851 1.385 . S
C855 C854 1.374 . S
C856 C853 1.499 . S
C856 C857 1.373 . S
C856 C858 1.389 . S
C857 H836 0.950 . S
C857 C856 1.373 . S
C857 C873 1.377 . S
C858 C856 1.389 . S
C858 C859 1.524 . S
C858 C872 1.377 . S
C859 C858 1.524 . S
C859 C860 1.397 . S
C859 C864 1.363 . S
C860 H837 0.950 . S
C860 C859 1.397 . S
C860 C861 1.334 . S
C861 H838 0.950 . S
C861 C860 1.334 . S
C861 C862 1.287 . S
C862 C861 1.287 . S
C862 C863 1.524 . S
C862 H881 0.913 . S
C863 H839 0.950 . S
C863 C862 1.524 . S
C863 C864 1.415 . S
C864 H840 0.950 . S
C864 C859 1.363 . S
C864 C863 1.415 . S
C865 H841 0.951 . S
C865 C866 1.366 . S
C865 C867 1.388 . S
C866 C865 1.366 . S
C866 C870 1.385 . S
C867 H842 0.951 . S
C867 C865 1.388 . S
C867 C868 1.366 . S
C868 C867 1.366 . S
C868 C869 1.414 . S
C868 C871 1.499 . S
C869 H843 0.950 . S
C869 C868 1.414 . S
C869 C870 1.374 . S
C870 H844 0.950 . S
C870 C866 1.385 . S
C870 C869 1.374 . S
C871 C868 1.499 . S
C871 C872 1.373 . S
C871 C873 1.389 . S
C872 H845 0.950 . S
C872 C858 1.377 . S
C872 C871 1.373 . S
C873 C857 1.377 . S
C873 C871 1.389 . S
C873 C874 1.524 . S
C874 C873 1.524 . S
C874 C875 1.397 . S
C874 C879 1.363 . S
C875 H846 0.950 . S
C875 C874 1.397 . S
C875 C876 1.334 . S
C876 H847 0.950 . S
C876 C875 1.334 . S
C876 C877 1.287 . S
C877 C876 1.287 . S
C877 C878 1.524 . S
C877 H880 0.999 . S
C878 H848 0.950 . S
C878 C877 1.524 . S
C878 C879 1.415 . S
C879 H849 0.950 . S
C879 C874 1.363 . S
C879 C878 1.415 . S
H880 C877 0.999 . S
H881 C862 0.913 . S
H882 C900 0.951 . S
H883 C902 0.951 . S
H884 C904 0.950 . S
H885 C905 0.950 . S
H886 C907 0.950 . S
H887 C910 0.950 . S
H888 C911 0.950 . S
H889 C913 0.950 . S
H890 C914 0.950 . S
H891 C915 0.951 . S
H892 C917 0.951 . S
H893 C919 0.950 . S
H894 C920 0.950 . S
H895 C922 0.950 . S
H896 C925 0.950 . S
H897 C926 0.950 . S
H898 C928 0.950 . S
H899 C929 0.950 . S
C900 H882 0.951 . S
C900 C901 1.366 . S
C900 C902 1.388 . S
C901 C900 1.366 . S
C901 C905 1.385 . S
C902 H883 0.951 . S
C902 C900 1.388 . S
C902 C903 1.366 . S
C903 C902 1.366 . S
C903 C904 1.414 . S
C903 C906 1.499 . S
C904 H884 0.950 . S
C904 C903 1.414 . S
C904 C905 1.374 . S
C905 H885 0.950 . S
C905 C901 1.385 . S
C905 C904 1.374 . S
C906 C903 1.499 . S
C906 C907 1.373 . S
C906 C908 1.389 . S
C907 H886 0.950 . S
C907 C906 1.373 . S
C907 C923 1.377 . S
C908 C906 1.389 . S
C908 C909 1.524 . S
C908 C922 1.377 . S
C909 C908 1.524 . S
C909 C910 1.397 . S
C909 C914 1.363 . S
C910 H887 0.950 . S
C910 C909 1.397 . S
C910 C911 1.334 . S
C911 H888 0.950 . S
C911 C910 1.334 . S
C911 C912 1.287 . S
C912 C911 1.287 . S
C912 C913 1.524 . S
C912 H931 0.913 . S
C913 H889 0.950 . S
C913 C912 1.524 . S
C913 C914 1.415 . S
C914 H890 0.950 . S
C914 C909 1.363 . S
C914 C913 1.415 . S
C915 H891 0.951 . S
C915 C916 1.366 . S
C915 C917 1.388 . S
C916 C915 1.366 . S
C916 C920 1.385 . S
C917 H892 0.951 . S
C917 C915 1.388 . S
C917 C918 1.366 . S
C918 C917 1.366 . S
C918 C919 1.414 . S
C918 C921 1.499 . S
C919 H893 0.950 . S
C919 C918 1.414 . S
C919 C920 1.374 . S
C920 H894 0.950 . S
C920 C916 1.385 . S
C920 C919 1.374 . S
C921 C918 1.499 . S
C921 C922 1.373 . S
C921 C923 1.389 . S
C922 H895 0.950 . S
C922 C908 1.377 . S
C922 C921 1.373 . S
C923 C907 1.377 . S
C923 C921 1.389 . S
C923 C924 1.524 . S
C924 C923 1.524 . S
C924 C925 1.397 . S
C924 C929 1.363 . S
C925 H896 0.950 . S
C925 C924 1.397 . S
C925 C926 1.334 . S
C926 H897 0.950 . S
C926 C925 1.334 . S
C926 C927 1.287 . S
C927 C926 1.287 . S
C927 C928 1.524 . S
C927 H930 0.999 . S
C928 H898 0.950 . S
C928 C927 1.524 . S
C928 C929 1.415 . S
C929 H899 0.950 . S
C929 C924 1.363 . S
C929 C928 1.415 . S
H930 C927 0.999 . S
H931 C912 0.913 . S
H932 C950 0.951 . S
H933 C952 0.951 . S
H934 C954 0.950 . S
H935 C955 0.950 . S
H936 C957 0.950 . S
H937 C960 0.950 . S
H938 C961 0.950 . S
H939 C963 0.950 . S
H940 C964 0.950 . S
H941 C965 0.951 . S
H942 C967 0.951 . S
H943 C969 0.950 . S
H944 C970 0.950 . S
H945 C972 0.950 . S
H946 C975 0.950 . S
H947 C976 0.950 . S
H948 C978 0.950 . S
H949 C979 0.950 . S
C950 H932 0.951 . S
C950 C951 1.366 . S
C950 C952 1.388 . S
C951 C950 1.366 . S
C951 C955 1.385 . S
C952 H933 0.951 . S
C952 C950 1.388 . S
C952 C953 1.366 . S
C953 C952 1.366 . S
C953 C954 1.414 . S
C953 C956 1.499 . S
C954 H934 0.950 . S
C954 C953 1.414 . S
C954 C955 1.374 . S
C955 H935 0.950 . S
C955 C951 1.385 . S
C955 C954 1.374 . S
C956 C953 1.499 . S
C956 C957 1.373 . S
C956 C958 1.389 . S
C957 H936 0.950 . S
C957 C956 1.373 . S
C957 C973 1.377 . S
C958 C956 1.389 . S
C958 C959 1.524 . S
C958 C972 1.377 . S
C959 C958 1.524 . S
C959 C960 1.397 . S
C959 C964 1.363 . S
C960 H937 0.950 . S
C960 C959 1.397 . S
C960 C961 1.334 . S
C961 H938 0.950 . S
C961 C960 1.334 . S
C961 C962 1.287 . S
C962 C961 1.287 . S
C962 C963 1.524 . S
C962 H981 0.913 . S
C963 H939 0.950 . S
C963 C962 1.524 . S
C963 C964 1.415 . S
C964 H940 0.950 . S
C964 C959 1.363 . S
C964 C963 1.415 . S
C965 H941 0.951 . S
C965 C966 1.366 . S
C965 C967 1.388 . S
C966 C965 1.366 . S
C966 C970 1.385 . S
C967 H942 0.951 . S
C967 C965 1.388 . S
C967 C968 1.366 . S
C968 C967 1.366 . S
C968 C969 1.414 . S
C968 C971 1.499 . S
C969 H943 0.950 . S
C969 C968 1.414 . S
C969 C970 1.374 . S
C970 H944 0.950 . S
C970 C966 1.385 . S
C970 C969 1.374 . S
C971 C968 1.499 . S
C971 C972 1.373 . S
C971 C973 1.389 . S
C972 H945 0.950 . S
C972 C958 1.377 . S
C972 C971 1.373 . S
C973 C957 1.377 . S
C973 C971 1.389 . S
C973 C974 1.524 . S
C974 C973 1.524 . S
C974 C975 1.397 . S
C974 C979 1.363 . S
C975 H946 0.950 . S
C975 C974 1.397 . S
C975 C976 1.334 . S
C976 H947 0.950 . S
C976 C975 1.334 . S
C976 C977 1.287 . S
C977 C976 1.287 . S
C977 C978 1.524 . S
C977 H980 0.999 . S
C978 H948 0.950 . S
C978 C977 1.524 . S
C978 C979 1.415 . S
C979 H949 0.950 . S
C979 C974 1.363 . S
C979 C978 1.415 . S
H980 C977 0.999 . S
H981 C962 0.913 . S
H982 C1000 0.951 . S
H983 C1002 0.951 . S
H984 C1004 0.950 . S
H985 C1005 0.950 . S
H986 C1007 0.950 . S
H987 C1010 0.950 . S
H988 C1011 0.950 . S
H989 C1013 0.950 . S
H990 C1014 0.950 . S
H991 C1015 0.951 . S
H992 C1017 0.951 . S
H993 C1019 0.950 . S
H994 C1020 0.950 . S
H995 C1022 0.950 . S
H996 C1025 0.950 . S
H997 C1026 0.950 . S
H998 C1028 0.950 . S
H999 C1029 0.950 . S
C1000 H982 0.951 . S
C1000 C1001 1.366 . S
C1000 C1002 1.388 . S
C1001 C1000 1.366 . S
C1001 C1005 1.385 . S
C1002 H983 0.951 . S
C1002 C1000 1.388 . S
C1002 C1003 1.366 . S
C1003 C1002 1.366 . S
C1003 C1004 1.414 . S
C1003 C1006 1.499 . S
C1004 H984 0.950 . S
C1004 C1003 1.414 . S
C1004 C1005 1.374 . S
C1005 H985 0.950 . S
C1005 C1001 1.385 . S
C1005 C1004 1.374 . S
C1006 C1003 1.499 . S
C1006 C1007 1.373 . S
C1006 C1008 1.389 . S
C1007 H986 0.950 . S
C1007 C1006 1.373 . S
C1007 C1023 1.377 . S
C1008 C1006 1.389 . S
C1008 C1009 1.524 . S
C1008 C1022 1.377 . S
C1009 C1008 1.524 . S
C1009 C1010 1.397 . S
C1009 C1014 1.363 . S
C1010 H987 0.950 . S
C1010 C1009 1.397 . S
C1010 C1011 1.334 . S
C1011 H988 0.950 . S
C1011 C1010 1.334 . S
C1011 C1012 1.287 1_455 S
C1012 C1011 1.287 1_655 S
C1012 C1013 1.524 . S
C1012 H1031 0.913 . S
C1013 H989 0.950 . S
C1013 C1012 1.524 . S
C1013 C1014 1.415 1_655 S
C1014 H990 0.950 . S
C1014 C1009 1.363 . S
C1014 C1013 1.415 1_455 S
C1015 H991 0.951 . S
C1015 C1016 1.366 . S
C1015 C1017 1.388 . S
C1016 C1015 1.366 . S
C1016 C1020 1.385 . S
C1017 H992 0.951 . S
C1017 C1015 1.388 . S
C1017 C1018 1.366 . S
C1018 C1017 1.366 . S
C1018 C1019 1.414 . S
C1018 C1021 1.499 . S
C1019 H993 0.950 . S
C1019 C1018 1.414 . S
C1019 C1020 1.374 . S
C1020 H994 0.950 . S
C1020 C1016 1.385 . S
C1020 C1019 1.374 . S
C1021 C1018 1.499 . S
C1021 C1022 1.373 . S
C1021 C1023 1.389 . S
C1022 H995 0.950 . S
C1022 C1008 1.377 . S
C1022 C1021 1.373 . S
C1023 C1007 1.377 . S
C1023 C1021 1.389 . S
C1023 C1024 1.524 . S
C1024 C1023 1.524 . S
C1024 C1025 1.397 . S
C1024 C1029 1.363 . S
C1025 H996 0.950 . S
C1025 C1024 1.397 . S
C1025 C1026 1.334 . S
C1026 H997 0.950 . S
C1026 C1025 1.334 . S
C1026 C1027 1.287 . S
C1027 C1026 1.287 . S
C1027 C1028 1.524 . S
C1027 H1030 0.999 . S
C1028 H998 0.950 . S
C1028 C1027 1.524 . S
C1028 C1029 1.415 . S
C1029 H999 0.950 . S
C1029 C1024 1.363 . S
C1029 C1028 1.415 . S
H1030 C1027 0.999 . S
H1031 C1012 0.913 . S
H1032 C1050 0.951 . S
H1033 C1052 0.951 . S
H1034 C1054 0.950 . S
H1035 C1055 0.950 . S
H1036 C1057 0.950 . S
H1037 C1060 0.950 . S
H1038 C1061 0.950 . S
H1039 C1063 0.950 . S
H1040 C1064 0.950 . S
H1041 C1065 0.951 . S
H1042 C1067 0.951 . S
H1043 C1069 0.950 . S
H1044 C1070 0.950 . S
H1045 C1072 0.950 . S
H1046 C1075 0.950 . S
H1047 C1076 0.950 . S
H1048 C1078 0.950 . S
H1049 C1079 0.950 . S
C1050 H1032 0.951 . S
C1050 C1051 1.366 . S
C1050 C1052 1.388 . S
C1051 C1050 1.366 . S
C1051 C1055 1.385 . S
C1052 H1033 0.951 . S
C1052 C1050 1.388 . S
C1052 C1053 1.366 . S
C1053 C1052 1.366 . S
C1053 C1054 1.414 . S
C1053 C1056 1.499 . S
C1054 H1034 0.950 . S
C1054 C1053 1.414 . S
C1054 C1055 1.374 . S
C1055 H1035 0.950 . S
C1055 C1051 1.385 . S
C1055 C1054 1.374 . S
C1056 C1053 1.499 . S
C1056 C1057 1.373 . S
C1056 C1058 1.389 . S
C1057 H1036 0.950 . S
C1057 C1056 1.373 . S
C1057 C1073 1.377 . S
C1058 C1056 1.389 . S
C1058 C1059 1.524 . S
C1058 C1072 1.377 . S
C1059 C1058 1.524 . S
C1059 C1060 1.397 . S
C1059 C1064 1.363 . S
C1060 H1037 0.950 . S
C1060 C1059 1.397 . S
C1060 C1061 1.334 . S
C1061 H1038 0.950 . S
C1061 C1060 1.334 . S
C1061 C1062 1.287 . S
C1062 C1061 1.287 . S
C1062 C1063 1.524 . S
C1062 H1081 0.913 . S
C1063 H1039 0.950 . S
C1063 C1062 1.524 . S
C1063 C1064 1.415 . S
C1064 H1040 0.950 . S
C1064 C1059 1.363 . S
C1064 C1063 1.415 . S
C1065 H1041 0.951 . S
C1065 C1066 1.366 . S
C1065 C1067 1.388 . S
C1066 C1065 1.366 . S
C1066 C1070 1.385 . S
C1067 H1042 0.951 . S
C1067 C1065 1.388 . S
C1067 C1068 1.366 . S
C1068 C1067 1.366 . S
C1068 C1069 1.414 . S
C1068 C1071 1.499 . S
C1069 H1043 0.950 . S
C1069 C1068 1.414 . S
C1069 C1070 1.374 . S
C1070 H1044 0.950 . S
C1070 C1066 1.385 . S
C1070 C1069 1.374 . S
C1071 C1068 1.499 . S
C1071 C1072 1.373 . S
C1071 C1073 1.389 . S
C1072 H1045 0.950 . S
C1072 C1058 1.377 . S
C1072 C1071 1.373 . S
C1073 C1057 1.377 . S
C1073 C1071 1.389 . S
C1073 C1074 1.524 . S
C1074 C1073 1.524 . S
C1074 C1075 1.397 . S
C1074 C1079 1.363 . S
C1075 H1046 0.950 . S
C1075 C1074 1.397 . S
C1075 C1076 1.334 . S
C1076 H1047 0.950 . S
C1076 C1075 1.334 . S
C1076 C1077 1.287 . S
C1077 C1076 1.287 . S
C1077 C1078 1.524 . S
C1077 H1080 0.999 . S
C1078 H1048 0.950 . S
C1078 C1077 1.524 . S
C1078 C1079 1.415 . S
C1079 H1049 0.950 . S
C1079 C1074 1.363 . S
C1079 C1078 1.415 . S
H1080 C1077 0.999 . S
H1081 C1062 0.913 . S
H1082 C1100 0.951 . S
H1083 C1102 0.951 . S
H1084 C1104 0.950 . S
H1085 C1105 0.950 . S
H1086 C1107 0.950 . S
H1087 C1110 0.950 . S
H1088 C1111 0.950 . S
H1089 C1113 0.950 . S
H1090 C1114 0.950 . S
H1091 C1115 0.951 1_455 S
H1092 C1117 0.951 . S
H1093 C1119 0.950 . S
H1094 C1120 0.950 . S
H1095 C1122 0.950 . S
H1096 C1125 0.950 . S
H1097 C1126 0.950 . S
H1098 C1128 0.950 . S
H1099 C1129 0.950 . S
C1100 H1082 0.951 . S
C1100 C1101 1.366 . S
C1100 C1102 1.388 . S
C1101 C1100 1.366 . S
C1101 C1105 1.385 . S
C1102 H1083 0.951 . S
C1102 C1100 1.388 . S
C1102 C1103 1.366 . S
C1103 C1102 1.366 . S
C1103 C1104 1.414 . S
C1103 C1106 1.499 . S
C1104 H1084 0.950 . S
C1104 C1103 1.414 . S
C1104 C1105 1.374 . S
C1105 H1085 0.950 . S
C1105 C1101 1.385 . S
C1105 C1104 1.374 . S
C1106 C1103 1.499 . S
C1106 C1107 1.373 . S
C1106 C1108 1.389 . S
C1107 H1086 0.950 . S
C1107 C1106 1.373 . S
C1107 C1123 1.377 . S
C1108 C1106 1.389 . S
C1108 C1109 1.524 . S
C1108 C1122 1.377 . S
C1109 C1108 1.524 . S
C1109 C1110 1.397 . S
C1109 C1114 1.363 . S
C1110 H1087 0.950 . S
C1110 C1109 1.397 . S
C1110 C1111 1.334 . S
C1111 H1088 0.950 . S
C1111 C1110 1.334 . S
C1111 C1112 1.287 . S
C1112 C1111 1.287 . S
C1112 C1113 1.524 . S
C1112 H1131 0.913 . S
C1113 H1089 0.950 . S
C1113 C1112 1.524 . S
C1113 C1114 1.415 . S
C1114 H1090 0.950 . S
C1114 C1109 1.363 . S
C1114 C1113 1.415 . S
C1115 H1091 0.951 1_655 S
C1115 C1116 1.366 . S
C1115 C1117 1.388 . S
C1116 C1115 1.366 . S
C1116 C1120 1.385 . S
C1117 H1092 0.951 . S
C1117 C1115 1.388 . S
C1117 C1118 1.366 . S
C1118 C1117 1.366 . S
C1118 C1119 1.414 . S
C1118 C1121 1.499 . S
C1119 H1093 0.950 . S
C1119 C1118 1.414 . S
C1119 C1120 1.374 . S
C1120 H1094 0.950 . S
C1120 C1116 1.385 . S
C1120 C1119 1.374 . S
C1121 C1118 1.499 . S
C1121 C1122 1.373 . S
C1121 C1123 1.389 . S
C1122 H1095 0.950 . S
C1122 C1108 1.377 . S
C1122 C1121 1.373 . S
C1123 C1107 1.377 . S
C1123 C1121 1.389 . S
C1123 C1124 1.524 . S
C1124 C1123 1.524 . S
C1124 C1125 1.397 . S
C1124 C1129 1.363 . S
C1125 H1096 0.950 . S
C1125 C1124 1.397 . S
C1125 C1126 1.334 . S
C1126 H1097 0.950 . S
C1126 C1125 1.334 . S
C1126 C1127 1.287 . S
C1127 C1126 1.287 . S
C1127 C1128 1.524 . S
C1127 H1130 0.999 . S
C1128 H1098 0.950 . S
C1128 C1127 1.524 . S
C1128 C1129 1.415 . S
C1129 H1099 0.950 . S
C1129 C1124 1.363 . S
C1129 C1128 1.415 . S
H1130 C1127 0.999 . S
H1131 C1112 0.913 . S
H1132 C1150 0.951 . S
H1133 C1152 0.951 . S
H1134 C1154 0.950 . S
H1135 C1155 0.950 . S
H1136 C1157 0.950 . S
H1137 C1160 0.950 . S
H1138 C1161 0.950 . S
H1139 C1163 0.950 . S
H1140 C1164 0.950 . S
H1141 C1165 0.951 . S
H1142 C1167 0.951 . S
H1143 C1169 0.950 . S
H1144 C1170 0.950 . S
H1145 C1172 0.950 . S
H1146 C1175 0.950 . S
H1147 C1176 0.950 . S
H1148 C1178 0.950 . S
H1149 C1179 0.950 . S
C1150 H1132 0.951 . S
C1150 C1151 1.366 . S
C1150 C1152 1.388 . S
C1151 C1150 1.366 . S
C1151 C1155 1.385 . S
C1152 H1133 0.951 . S
C1152 C1150 1.388 . S
C1152 C1153 1.366 . S
C1153 C1152 1.366 . S
C1153 C1154 1.414 . S
C1153 C1156 1.499 . S
C1154 H1134 0.950 . S
C1154 C1153 1.414 . S
C1154 C1155 1.374 . S
C1155 H1135 0.950 . S
C1155 C1151 1.385 . S
C1155 C1154 1.374 . S
C1156 C1153 1.499 . S
C1156 C1157 1.373 . S
C1156 C1158 1.389 . S
C1157 H1136 0.950 . S
C1157 C1156 1.373 . S
C1157 C1173 1.377 . S
C1158 C1156 1.389 . S
C1158 C1159 1.524 . S
C1158 C1172 1.377 . S
C1159 C1158 1.524 . S
C1159 C1160 1.397 . S
C1159 C1164 1.363 . S
C1160 H1137 0.950 . S
C1160 C1159 1.397 . S
C1160 C1161 1.334 . S
C1161 H1138 0.950 . S
C1161 C1160 1.334 . S
C1161 C1162 1.287 . S
C1162 C1161 1.287 . S
C1162 C1163 1.524 . S
C1162 H1181 0.913 . S
C1163 H1139 0.950 . S
C1163 C1162 1.524 . S
C1163 C1164 1.415 . S
C1164 H1140 0.950 . S
C1164 C1159 1.363 . S
C1164 C1163 1.415 . S
C1165 H1141 0.951 . S
C1165 C1166 1.366 . S
C1165 C1167 1.388 . S
C1166 C1165 1.366 . S
C1166 C1170 1.385 . S
C1167 H1142 0.951 . S
C1167 C1165 1.388 . S
C1167 C1168 1.366 . S
C1168 C1167 1.366 . S
C1168 C1169 1.414 . S
C1168 C1171 1.499 . S
C1169 H1143 0.950 . S
C1169 C1168 1.414 . S
C1169 C1170 1.374 . S
C1170 H1144 0.950 . S
C1170 C1166 1.385 . S
C1170 C1169 1.374 . S
C1171 C1168 1.499 . S
C1171 C1172 1.373 . S
C1171 C1173 1.389 . S
C1172 H1145 0.950 . S
C1172 C1158 1.377 . S
C1172 C1171 1.373 . S
C1173 C1157 1.377 . S
C1173 C1171 1.389 . S
C1173 C1174 1.524 . S
C1174 C1173 1.524 . S
C1174 C1175 1.397 . S
C1174 C1179 1.363 . S
C1175 H1146 0.950 . S
C1175 C1174 1.397 . S
C1175 C1176 1.334 . S
C1176 H1147 0.950 . S
C1176 C1175 1.334 . S
C1176 C1177 1.287 . S
C1177 C1176 1.287 . S
C1177 C1178 1.524 . S
C1177 H1180 0.999 . S
C1178 H1148 0.950 . S
C1178 C1177 1.524 . S
C1178 C1179 1.415 . S
C1179 H1149 0.950 . S
C1179 C1174 1.363 . S
C1179 C1178 1.415 . S
H1180 C1177 0.999 . S
H1181 C1162 0.913 . S
H1182 C1200 0.951 . S
H1183 C1202 0.951 . S
H1184 C1204 0.950 . S
H1185 C1205 0.950 . S
H1186 C1207 0.950 . S
H1187 C1210 0.950 . S
H1188 C1211 0.950 . S
H1189 C1213 0.950 . S
H1190 C1214 0.950 . S
H1191 C1215 0.951 . S
H1192 C1217 0.951 . S
H1193 C1219 0.950 . S
H1194 C1220 0.950 . S
H1195 C1222 0.950 . S
H1196 C1225 0.950 . S
H1197 C1226 0.950 . S
H1198 C1228 0.950 . S
H1199 C1229 0.950 . S
C1200 H1182 0.951 . S
C1200 C1201 1.366 . S
C1200 C1202 1.388 . S
C1201 C1200 1.366 . S
C1201 C1205 1.385 . S
C1202 H1183 0.951 . S
C1202 C1200 1.388 . S
C1202 C1203 1.366 . S
C1203 C1202 1.366 . S
C1203 C1204 1.414 . S
C1203 C1206 1.499 . S
C1204 H1184 0.950 . S
C1204 C1203 1.414 . S
C1204 C1205 1.374 . S
C1205 H1185 0.950 . S
C1205 C1201 1.385 . S
C1205 C1204 1.374 . S
C1206 C1203 1.499 . S
C1206 C1207 1.373 . S
C1206 C1208 1.389 . S
C1207 H1186 0.950 . S
C1207 C1206 1.373 . S
C1207 C1223 1.377 . S
C1208 C1206 1.389 . S
C1208 C1209 1.524 . S
C1208 C1222 1.377 . S
C1209 C1208 1.524 . S
C1209 C1210 1.397 . S
C1209 C1214 1.363 . S
C1210 H1187 0.950 . S
C1210 C1209 1.397 . S
C1210 C1211 1.334 . S
C1211 H1188 0.950 . S
C1211 C1210 1.334 . S
C1211 C1212 1.287 . S
C1212 C1211 1.287 . S
C1212 C1213 1.524 . S
C1212 H1231 0.913 . S
C1213 H1189 0.950 . S
C1213 C1212 1.524 . S
C1213 C1214 1.415 . S
C1214 H1190 0.950 . S
C1214 C1209 1.363 . S
C1214 C1213 1.415 . S
C1215 H1191 0.951 . S
C1215 C1216 1.366 . S
C1215 C1217 1.388 . S
C1216 C1215 1.366 . S
C1216 C1220 1.385 . S
C1217 H1192 0.951 . S
C1217 C1215 1.388 . S
C1217 C1218 1.366 . S
C1218 C1217 1.366 . S
C1218 C1219 1.414 . S
C1218 C1221 1.499 . S
C1219 H1193 0.950 . S
C1219 C1218 1.414 . S
C1219 C1220 1.374 . S
C1220 H1194 0.950 . S
C1220 C1216 1.385 . S
C1220 C1219 1.374 . S
C1221 C1218 1.499 . S
C1221 C1222 1.373 . S
C1221 C1223 1.389 . S
C1222 H1195 0.950 . S
C1222 C1208 1.377 . S
C1222 C1221 1.373 . S
C1223 C1207 1.377 . S
C1223 C1221 1.389 . S
C1223 C1224 1.524 . S
C1224 C1223 1.524 . S
C1224 C1225 1.397 . S
C1224 C1229 1.363 . S
C1225 H1196 0.950 . S
C1225 C1224 1.397 . S
C1225 C1226 1.334 . S
C1226 H1197 0.950 . S
C1226 C1225 1.334 . S
C1226 C1227 1.287 . S
C1227 C1226 1.287 . S
C1227 C1228 1.524 . S
C1227 H1230 0.999 . S
C1228 H1198 0.950 . S
C1228 C1227 1.524 . S
C1228 C1229 1.415 . S
C1229 H1199 0.950 . S
C1229 C1224 1.363 . S
C1229 C1228 1.415 . S
H1230 C1227 0.999 . S
H1231 C1212 0.913 . S
H1232 C1250 0.951 . S
H1233 C1252 0.951 . S
H1234 C1254 0.950 . S
H1235 C1255 0.950 . S
H1236 C1257 0.950 . S
H1237 C1260 0.950 . S
H1238 C1261 0.950 . S
H1239 C1263 0.950 . S
H1240 C1264 0.950 . S
H1241 C1265 0.951 . S
H1242 C1267 0.951 . S
H1243 C1269 0.950 . S
H1244 C1270 0.950 . S
H1245 C1272 0.950 . S
H1246 C1275 0.950 . S
H1247 C1276 0.950 . S
H1248 C1278 0.950 . S
H1249 C1279 0.950 . S
C1250 H1232 0.951 . S
C1250 C1251 1.366 . S
C1250 C1252 1.388 . S
C1251 C1250 1.366 . S
C1251 C1255 1.385 . S
C1252 H1233 0.951 . S
C1252 C1250 1.388 . S
C1252 C1253 1.366 . S
C1253 C1252 1.366 . S
C1253 C1254 1.414 . S
C1253 C1256 1.499 . S
C1254 H1234 0.950 . S
C1254 C1253 1.414 . S
C1254 C1255 1.374 . S
C1255 H1235 0.950 . S
C1255 C1251 1.385 . S
C1255 C1254 1.374 . S
C1256 C1253 1.499 . S
C1256 C1257 1.373 . S
C1256 C1258 1.389 . S
C1257 H1236 0.950 . S
C1257 C1256 1.373 . S
C1257 C1273 1.377 . S
C1258 C1256 1.389 . S
C1258 C1259 1.524 . S
C1258 C1272 1.377 . S
C1259 C1258 1.524 . S
C1259 C1260 1.397 . S
C1259 C1264 1.363 . S
C1260 H1237 0.950 . S
C1260 C1259 1.397 . S
C1260 C1261 1.334 . S
C1261 H1238 0.950 . S
C1261 C1260 1.334 . S
C1261 C1262 1.287 . S
C1262 C1261 1.287 . S
C1262 C1263 1.524 . S
C1262 H1281 0.913 . S
C1263 H1239 0.950 . S
C1263 C1262 1.524 . S
C1263 C1264 1.415 . S
C1264 H1240 0.950 . S
C1264 C1259 1.363 . S
C1264 C1263 1.415 . S
C1265 H1241 0.951 . S
C1265 C1266 1.366 . S
C1265 C1267 1.388 . S
C1266 C1265 1.366 . S
C1266 C1270 1.385 . S
C1267 H1242 0.951 . S
C1267 C1265 1.388 . S
C1267 C1268 1.366 . S
C1268 C1267 1.366 . S
C1268 C1269 1.414 . S
C1268 C1271 1.499 . S
C1269 H1243 0.950 . S
C1269 C1268 1.414 . S
C1269 C1270 1.374 . S
C1270 H1244 0.950 . S
C1270 C1266 1.385 . S
C1270 C1269 1.374 . S
C1271 C1268 1.499 . S
C1271 C1272 1.373 . S
C1271 C1273 1.389 . S
C1272 H1245 0.950 . S
C1272 C1258 1.377 . S
C1272 C1271 1.373 . S
C1273 C1257 1.377 . S
C1273 C1271 1.389 . S
C1273 C1274 1.524 . S
C1274 C1273 1.524 . S
C1274 C1275 1.397 . S
C1274 C1279 1.363 . S
C1275 H1246 0.950 . S
C1275 C1274 1.397 . S
C1275 C1276 1.334 . S
C1276 H1247 0.950 . S
C1276 C1275 1.334 . S
C1276 C1277 1.287 . S
C1277 C1276 1.287 . S
C1277 C1278 1.524 . S
C1277 H1280 0.999 . S
C1278 H1248 0.950 . S
C1278 C1277 1.524 . S
C1278 C1279 1.415 . S
C1279 H1249 0.950 . S
C1279 C1274 1.363 . S
C1279 C1278 1.415 . S
H1280 C1277 0.999 . S
H1281 C1262 0.913 . S
H1282 C1300 0.951 . S
H1283 C1302 0.951 . S
H1284 C1304 0.950 . S
H1285 C1305 0.950 . S
H1286 C1307 0.950 . S
H1287 C1310 0.950 . S
H1288 C1311 0.950 . S
H1289 C1313 0.950 . S
H1290 C1314 0.950 . S
H1291 C1315 0.951 . S
H1292 C1317 0.951 . S
H1293 C1319 0.950 . S
H1294 C1320 0.950 . S
H1295 C1322 0.950 . S
H1296 C1325 0.950 . S
H1297 C1326 0.950 . S
H1298 C1328 0.950 . S
H1299 C1329 0.950 . S
C1300 H1282 0.951 . S
C1300 C1301 1.366 . S
C1300 C1302 1.388 . S
C1301 C1300 1.366 . S
C1301 C1305 1.385 . S
C1302 H1283 0.951 . S
C1302 C1300 1.388 . S
C1302 C1303 1.366 . S
C1303 C1302 1.366 . S
C1303 C1304 1.414 . S
C1303 C1306 1.499 . S
C1304 H1284 0.950 . S
C1304 C1303 1.414 . S
C1304 C1305 1.374 . S
C1305 H1285 0.950 . S
C1305 C1301 1.385 . S
C1305 C1304 1.374 . S
C1306 C1303 1.499 . S
C1306 C1307 1.373 . S
C1306 C1308 1.389 . S
C1307 H1286 0.950 . S
C1307 C1306 1.373 . S
C1307 C1323 1.377 . S
C1308 C1306 1.389 . S
C1308 C1309 1.524 . S
C1308 C1322 1.377 . S
C1309 C1308 1.524 . S
C1309 C1310 1.397 . S
C1309 C1314 1.363 . S
C1310 H1287 0.950 . S
C1310 C1309 1.397 . S
C1310 C1311 1.334 . S
C1311 H1288 0.950 . S
C1311 C1310 1.334 . S
C1311 C1312 1.287 . S
C1312 C1311 1.287 . S
C1312 C1313 1.524 . S
C1312 H1331 0.913 . S
C1313 H1289 0.950 . S
C1313 C1312 1.524 . S
C1313 C1314 1.415 . S
C1314 H1290 0.950 . S
C1314 C1309 1.363 . S
C1314 C1313 1.415 . S
C1315 H1291 0.951 . S
C1315 C1316 1.366 . S
C1315 C1317 1.388 . S
C1316 C1315 1.366 . S
C1316 C1320 1.385 . S
C1317 H1292 0.951 . S
C1317 C1315 1.388 . S
C1317 C1318 1.366 . S
C1318 C1317 1.366 . S
C1318 C1319 1.414 . S
C1318 C1321 1.499 . S
C1319 H1293 0.950 . S
C1319 C1318 1.414 . S
C1319 C1320 1.374 . S
C1320 H1294 0.950 . S
C1320 C1316 1.385 . S
C1320 C1319 1.374 . S
C1321 C1318 1.499 . S
C1321 C1322 1.373 . S
C1321 C1323 1.389 . S
C1322 H1295 0.950 . S
C1322 C1308 1.377 . S
C1322 C1321 1.373 . S
C1323 C1307 1.377 . S
C1323 C1321 1.389 . S
C1323 C1324 1.524 . S
C1324 C1323 1.524 . S
C1324 C1325 1.397 . S
C1324 C1329 1.363 . S
C1325 H1296 0.950 . S
C1325 C1324 1.397 . S
C1325 C1326 1.334 . S
C1326 H1297 0.950 . S
C1326 C1325 1.334 . S
C1326 C1327 1.287 . S
C1327 C1326 1.287 . S
C1327 C1328 1.524 . S
C1327 H1330 0.999 . S
C1328 H1298 0.950 . S
C1328 C1327 1.524 . S
C1328 C1329 1.415 . S
C1329 H1299 0.950 . S
C1329 C1324 1.363 . S
C1329 C1328 1.415 . S
H1330 C1327 0.999 . S
H1331 C1312 0.913 . S
H1332 C1350 0.951 . S
H1333 C1352 0.951 . S
H1334 C1354 0.950 . S
H1335 C1355 0.950 . S
H1336 C1357 0.950 . S
H1337 C1360 0.950 . S
H1338 C1361 0.950 . S
H1339 C1363 0.950 . S
H1340 C1364 0.950 . S
H1341 C1365 0.951 . S
H1342 C1367 0.951 . S
H1343 C1369 0.950 . S
H1344 C1370 0.950 . S
H1345 C1372 0.950 . S
H1346 C1375 0.950 . S
H1347 C1376 0.950 . S
H1348 C1378 0.950 . S
H1349 C1379 0.950 . S
C1350 H1332 0.951 . S
C1350 C1351 1.366 . S
C1350 C1352 1.388 . S
C1351 C1350 1.366 . S
C1351 C1355 1.385 . S
C1352 H1333 0.951 . S
C1352 C1350 1.388 . S
C1352 C1353 1.366 . S
C1353 C1352 1.366 . S
C1353 C1354 1.414 . S
C1353 C1356 1.499 . S
C1354 H1334 0.950 . S
C1354 C1353 1.414 . S
C1354 C1355 1.374 . S
C1355 H1335 0.950 . S
C1355 C1351 1.385 . S
C1355 C1354 1.374 . S
C1356 C1353 1.499 . S
C1356 C1357 1.373 . S
C1356 C1358 1.389 . S
C1357 H1336 0.950 . S
C1357 C1356 1.373 . S
C1357 C1373 1.377 . S
C1358 C1356 1.389 . S
C1358 C1359 1.524 . S
C1358 C1372 1.377 . S
C1359 C1358 1.524 . S
C1359 C1360 1.397 . S
C1359 C1364 1.363 . S
C1360 H1337 0.950 . S
C1360 C1359 1.397 . S
C1360 C1361 1.334 . S
C1361 H1338 0.950 . S
C1361 C1360 1.334 . S
C1361 C1362 1.287 1_455 S
C1362 C1361 1.287 1_655 S
C1362 C1363 1.524 . S
C1362 H1381 0.913 . S
C1363 H1339 0.950 . S
C1363 C1362 1.524 . S
C1363 C1364 1.415 1_655 S
C1364 H1340 0.950 . S
C1364 C1359 1.363 . S
C1364 C1363 1.415 1_455 S
C1365 H1341 0.951 . S
C1365 C1366 1.366 . S
C1365 C1367 1.388 . S
C1366 C1365 1.366 . S
C1366 C1370 1.385 . S
C1367 H1342 0.951 . S
C1367 C1365 1.388 . S
C1367 C1368 1.366 . S
C1368 C1367 1.366 . S
C1368 C1369 1.414 . S
C1368 C1371 1.499 . S
C1369 H1343 0.950 . S
C1369 C1368 1.414 . S
C1369 C1370 1.374 . S
C1370 H1344 0.950 . S
C1370 C1366 1.385 . S
C1370 C1369 1.374 . S
C1371 C1368 1.499 . S
C1371 C1372 1.373 . S
C1371 C1373 1.389 . S
C1372 H1345 0.950 . S
C1372 C1358 1.377 . S
C1372 C1371 1.373 . S
C1373 C1357 1.377 . S
C1373 C1371 1.389 . S
C1373 C1374 1.524 . S
C1374 C1373 1.524 . S
C1374 C1375 1.397 . S
C1374 C1379 1.363 . S
C1375 H1346 0.950 . S
C1375 C1374 1.397 . S
C1375 C1376 1.334 . S
C1376 H1347 0.950 . S
C1376 C1375 1.334 . S
C1376 C1377 1.287 . S
C1377 C1376 1.287 . S
C1377 C1378 1.524 . S
C1377 H1380 0.999 . S
C1378 H1348 0.950 . S
C1378 C1377 1.524 . S
C1378 C1379 1.415 . S
C1379 H1349 0.950 . S
C1379 C1374 1.363 . S
C1379 C1378 1.415 . S
H1380 C1377 0.999 . S
H1381 C1362 0.913 . S
H1382 C1400 0.951 . S
H1383 C1402 0.951 . S
H1384 C1404 0.950 . S
H1385 C1405 0.950 . S
H1386 C1407 0.950 . S
H1387 C1410 0.950 . S
H1388 C1411 0.950 . S
H1389 C1413 0.950 . S
H1390 C1414 0.950 . S
H1391 C1415 0.951 . S
H1392 C1417 0.951 . S
H1393 C1419 0.950 . S
H1394 C1420 0.950 . S
H1395 C1422 0.950 . S
H1396 C1425 0.950 . S
H1397 C1426 0.950 . S
H1398 C1428 0.950 . S
H1399 C1429 0.950 . S
C1400 H1382 0.951 . S
C1400 C1401 1.366 . S
C1400 C1402 1.388 . S
C1401 C1400 1.366 . S
C1401 C1405 1.385 . S
C1402 H1383 0.951 . S
C1402 C1400 1.388 . S
C1402 C1403 1.366 . S
C1403 C1402 1.366 . S
C1403 C1404 1.414 . S
C1403 C1406 1.499 . S
C1404 H1384 0.950 . S
C1404 C1403 1.414 . S
C1404 C1405 1.374 . S
C1405 H1385 0.950 . S
C1405 C1401 1.385 . S
C1405 C1404 1.374 . S
C1406 C1403 1.499 . S
C1406 C1407 1.373 . S
C1406 C1408 1.389 . S
C1407 H1386 0.950 . S
C1407 C1406 1.373 . S
C1407 C1423 1.377 . S
C1408 C1406 1.389 . S
C1408 C1409 1.524 . S
C1408 C1422 1.377 . S
C1409 C1408 1.524 . S
C1409 C1410 1.397 . S
C1409 C1414 1.363 . S
C1410 H1387 0.950 . S
C1410 C1409 1.397 . S
C1410 C1411 1.334 . S
C1411 H1388 0.950 . S
C1411 C1410 1.334 . S
C1411 C1412 1.287 . S
C1412 C1411 1.287 . S
C1412 C1413 1.524 . S
C1412 H1431 0.913 . S
C1413 H1389 0.950 . S
C1413 C1412 1.524 . S
C1413 C1414 1.415 . S
C1414 H1390 0.950 . S
C1414 C1409 1.363 . S
C1414 C1413 1.415 . S
C1415 H1391 0.951 . S
C1415 C1416 1.366 . S
C1415 C1417 1.388 . S
C1416 C1415 1.366 . S
C1416 C1420 1.385 . S
C1417 H1392 0.951 . S
C1417 C1415 1.388 . S
C1417 C1418 1.366 . S
C1418 C1417 1.366 . S
C1418 C1419 1.414 . S
C1418 C1421 1.499 . S
C1419 H1393 0.950 . S
C1419 C1418 1.414 . S
C1419 C1420 1.374 . S
C1420 H1394 0.950 . S
C1420 C1416 1.385 . S
C1420 C1419 1.374 . S
C1421 C1418 1.499 . S
C1421 C1422 1.373 . S
C1421 C1423 1.389 . S
C1422 H1395 0.950 . S
C1422 C1408 1.377 . S
C1422 C1421 1.373 . S
C1423 C1407 1.377 . S
C1423 C1421 1.389 . S
C1423 C1424 1.524 . S
C1424 C1423 1.524 . S
C1424 C1425 1.397 . S
C1424 C1429 1.363 . S
C1425 H1396 0.950 . S
C1425 C1424 1.397 . S
C1425 C1426 1.334 . S
C1426 H1397 0.950 . S
C1426 C1425 1.334 . S
C1426 C1427 1.287 . S
C1427 C1426 1.287 . S
C1427 C1428 1.524 . S
C1427 H1430 0.999 . S
C1428 H1398 0.950 . S
C1428 C1427 1.524 . S
C1428 C1429 1.415 . S
C1429 H1399 0.950 . S
C1429 C1424 1.363 . S
C1429 C1428 1.415 . S
H1430 C1427 0.999 . S
H1431 C1412 0.913 . S
C251 C5 1.003 . S
C266 C89 1.012 . S
C301 C14 0.983 . S
C316 C129 0.997 . S
C366 C154 2.371 . S
C351 C25 2.426 . S
C401 C34 2.422 . S
C416 C194 2.366 . S
C466 C125 1.549 . S
C451 C7 1.519 . S
C516 C85 1.574 . S
C501 C13 1.541 . S
C566 C216 1.634 . S
C551 C23 1.655 . S
C616 C176 1.632 . S
C601 C31 1.654 . S
C651 C4 1.128 . S
C666 C218 1.140 . S
C716 C135 2.118 . S
C701 C22 2.153 . S
C751 C32 2.168 . S
C766 C95 2.134 . S
C801 C16 1.115 . S
C816 C178 1.132 . S
C866 C98 1.000 . S
C851 C41 0.990 . S
C901 C50 0.994 . S
C916 C138 1.007 . S
C951 C61 2.419 . S
C966 C175 2.364 . S
C1001 C67 2.433 . S
C1016 C215 2.378 . S
C1051 C40 1.543 . S
C1066 C136 1.573 . S
C1116 C96 1.549 . S
C1101 C52 1.512 . S
C1166 C205 1.643 . S
C1151 C59 1.664 . S
C1216 C165 1.628 . S
C1201 C70 1.647 . S
C1251 C43 1.123 . S
C1266 C209 1.136 . S
C1316 C114 2.133 . S
C1301 C58 2.167 . S
C1366 C74 2.113 . S
C1351 C68 2.144 . S
C1401 C49 1.125 . S
C1416 C169 1.139 . S
