# Generated by pormake.
# Topology zzz, (3,6)-cn, num edge types: 1
# Building blocks:
#     Node 0, Type 0, BuildingBlock: MIDCAF_clean_linker_0, # of connection points: 3
#     Node 1, Type 0, BuildingBlock: MIDCAF_clean_linker_0, # of connection points: 3
#     Node 2, Type 0, BuildingBlock: MIDCAF_clean_linker_0, # of connection points: 3
#     Node 3, Type 0, BuildingBlock: MIDCAF_clean_linker_0, # of connection points: 3
#     Node 4, Type 0, BuildingBlock: MIDCAF_clean_linker_0, # of connection points: 3
#     Node 5, Type 0, BuildingBlock: MIDCAF_clean_linker_0, # of connection points: 3
#     Node 6, Type 0, BuildingBlock: MIDCAF_clean_linker_0, # of connection points: 3
#     Node 7, Type 0, BuildingBlock: MIDCAF_clean_linker_0, # of connection points: 3
#     Node 8, Type 1, BuildingBlock: PAMTOO_clean_sbu_0, # of connection points: 6
#     Node 9, Type 1, BuildingBlock: PAMTOO_clean_sbu_0, # of connection points: 6
#     Node 10, Type 1, BuildingBlock: PAMTOO_clean_sbu_0, # of connection points: 6
#     Node 11, Type 1, BuildingBlock: PAMTOO_clean_sbu_0, # of connection points: 6
#     Edge 12, Type (0, 1), BuildingBlock: OJICUG_clean_linker_0, # of connection points: 2
#     Edge 13, Type (0, 1), BuildingBlock: OJICUG_clean_linker_0, # of connection points: 2
#     Edge 14, Type (0, 1), BuildingBlock: OJICUG_clean_linker_0, # of connection points: 2
#     Edge 15, Type (0, 1), BuildingBlock: OJICUG_clean_linker_0, # of connection points: 2
#     Edge 16, Type (0, 1), BuildingBlock: OJICUG_clean_linker_0, # of connection points: 2
#     Edge 17, Type (0, 1), BuildingBlock: OJICUG_clean_linker_0, # of connection points: 2
#     Edge 18, Type (0, 1), BuildingBlock: OJICUG_clean_linker_0, # of connection points: 2
#     Edge 19, Type (0, 1), BuildingBlock: OJICUG_clean_linker_0, # of connection points: 2
#     Edge 20, Type (0, 1), BuildingBlock: OJICUG_clean_linker_0, # of connection points: 2
#     Edge 21, Type (0, 1), BuildingBlock: OJICUG_clean_linker_0, # of connection points: 2
#     Edge 22, Type (0, 1), BuildingBlock: OJICUG_clean_linker_0, # of connection points: 2
#     Edge 23, Type (0, 1), BuildingBlock: OJICUG_clean_linker_0, # of connection points: 2
#     Edge 24, Type (0, 1), BuildingBlock: OJICUG_clean_linker_0, # of connection points: 2
#     Edge 25, Type (0, 1), BuildingBlock: OJICUG_clean_linker_0, # of connection points: 2
#     Edge 26, Type (0, 1), BuildingBlock: OJICUG_clean_linker_0, # of connection points: 2
#     Edge 27, Type (0, 1), BuildingBlock: OJICUG_clean_linker_0, # of connection points: 2
#     Edge 28, Type (0, 1), BuildingBlock: OJICUG_clean_linker_0, # of connection points: 2
#     Edge 29, Type (0, 1), BuildingBlock: OJICUG_clean_linker_0, # of connection points: 2
#     Edge 30, Type (0, 1), BuildingBlock: OJICUG_clean_linker_0, # of connection points: 2
#     Edge 31, Type (0, 1), BuildingBlock: OJICUG_clean_linker_0, # of connection points: 2
#     Edge 32, Type (0, 1), BuildingBlock: OJICUG_clean_linker_0, # of connection points: 2
#     Edge 33, Type (0, 1), BuildingBlock: OJICUG_clean_linker_0, # of connection points: 2
#     Edge 34, Type (0, 1), BuildingBlock: OJICUG_clean_linker_0, # of connection points: 2
#     Edge 35, Type (0, 1), BuildingBlock: OJICUG_clean_linker_0, # of connection points: 2
# Relax obj value: 0.390
# Max RMSD: 0.288
# Mean RMSD: 0.224
data_MOF--net-zzz--node1-PAMTOO_clean_sbu_0--node2-MIDCAF_clean_linker_0--edge1-OJICUG_clean_linker_0
_symmetry_space_group_name_H-M    P1
_symmetry_Int_Tables_number       1
_symmetry_cell_setting            triclinic
loop_
_symmetry_equiv_pos_as_xyz
'x, y, z'
_cell_length_a     50.835276
_cell_length_b     42.794915
_cell_length_c     16.348095
_cell_angle_alpha  91.879781
_cell_angle_beta   79.574786
_cell_angle_gamma 84.310074
loop_
_atom_site_label
_atom_site_type_symbol
_atom_site_fract_x
_atom_site_fract_y
_atom_site_fract_z
_atom_type_partial_charge
C0 C 0.82845 0.55366 0.71774 0.0
C1 C 0.84269 0.52354 0.70892 0.0
C2 C 0.83166 0.49892 0.67192 0.0
C3 C 0.80837 0.50511 0.63695 0.0
H4 H 0.74405 0.48407 0.4198 0.0
H5 H 0.70976 0.4699 0.34133 0.0
H6 H 0.66032 0.55594 0.43602 0.0
H7 H 0.69451 0.56966 0.51412 0.0
H8 H 0.77681 0.56984 0.29045 0.0
H9 H 0.81759 0.56269 0.18739 0.0
H10 H 0.8603 0.60572 0.35933 0.0
H11 H 0.81933 0.61196 0.46423 0.0
H12 H 0.79614 0.58382 0.68552 0.0
H13 H 0.83622 0.57305 0.74662 0.0
H14 H 0.84223 0.47546 0.66393 0.0
H15 H 0.80192 0.48645 0.6014 0.0
N16 N 0.75738 0.53189 0.56133 0.0
N17 N 0.75625 0.56238 0.44395 0.0
N18 N 0.78962 0.5671 0.52272 0.0
C19 C 0.74522 0.54129 0.49644 0.0
C20 C 0.77853 0.57532 0.45638 0.0
C21 C 0.77947 0.54572 0.5755 0.0
C22 C 0.7216 0.52754 0.47493 0.0
C23 C 0.72526 0.49912 0.42677 0.0
C24 C 0.70581 0.49136 0.38053 0.0
C25 C 0.68226 0.5119 0.38137 0.0
C26 C 0.67793 0.5393 0.43424 0.0
C27 C 0.69745 0.54712 0.47973 0.0
C28 C 0.79542 0.58945 0.38713 0.0
C29 C 0.79445 0.57942 0.30517 0.0
C30 C 0.81806 0.5753 0.24554 0.0
C31 C 0.84257 0.5818 0.2673 0.0
C32 C 0.8419 0.59908 0.34238 0.0
C33 C 0.81834 0.60288 0.40233 0.0
C34 C 0.79566 0.53595 0.63922 0.0
C35 C 0.80525 0.55974 0.68363 0.0
C36 C 0.9896 0.8179 0.52056 0.0
C37 C 1.00109 0.82018 0.59256 0.0
C38 C 0.01705 0.79369 0.61249 0.0
C39 C 0.02349 0.76702 0.55792 0.0
H40 H 0.97977 0.70177 0.27645 0.0
H41 H 0.96481 0.66166 0.18891 0.0
H42 H 0.03902 0.60277 0.18656 0.0
H43 H 0.05403 0.64287 0.2716 0.0
H44 H 0.09077 0.71308 0.1479 0.0
H45 H 0.11689 0.74485 0.04959 0.0
H46 H 0.11875 0.8126 0.25002 0.0
H47 H 0.09385 0.78046 0.34787 0.0
H48 H 0.98848 0.79094 0.40831 0.0
H49 H 0.97747 0.83776 0.50225 0.0
H50 H 0.02576 0.79414 0.6682 0.0
H51 H 0.03768 0.74814 0.57132 0.0
N52 N 0.01594 0.71974 0.3845 0.0
N53 N 0.05432 0.70833 0.27901 0.0
N54 N 0.05219 0.75035 0.37544 0.0
C55 C 0.02974 0.70135 0.31751 0.0
C56 C 0.06564 0.73294 0.30725 0.0
C57 C 0.02766 0.74389 0.41466 0.0
C58 C 0.01798 0.67525 0.28092 0.0
C59 C 0.99246 0.67984 0.25893 0.0
C60 C 0.98403 0.65707 0.20836 0.0
C61 C 1.00076 0.6291 0.18088 0.0
C62 C 0.02556 0.6239 0.20735 0.0
C63 C 0.03418 0.64685 0.25596 0.0
C64 C 0.08913 0.74499 0.25516 0.0
C65 C 0.0977 0.73411 0.17153 0.0
C66 C 0.11261 0.75244 0.11494 0.0
C67 C 0.11895 0.78201 0.14099 0.0
C68 C 0.11406 0.79021 0.22688 0.0
C69 C 0.0994 0.77182 0.28338 0.0
C70 C 0.01355 0.76584 0.48342 0.0
C71 C 0.99576 0.79097 0.46665 0.0
C72 C 0.69065 0.98638 0.52617 0.0
C73 C 0.67827 0.00552 0.59766 0.0
C74 C 0.69073 0.03215 0.61647 0.0
C75 C 0.71317 0.04084 0.56221 0.0
H76 H 0.80842 0.99068 0.29036 0.0
H77 H 0.85195 0.97861 0.19421 0.0
H78 H 0.84791 0.07476 0.12183 0.0
H79 H 0.80538 0.08669 0.21572 0.0
H80 H 0.74627 0.11626 0.18987 0.0
H81 H 0.71353 0.14654 0.12374 0.0
H82 H 0.65124 0.13366 0.33478 0.0
H83 H 0.68386 0.10566 0.40177 0.0
H84 H 0.72052 0.98163 0.41344 0.0
H85 H 0.68216 0.96532 0.50994 0.0
H86 H 0.68198 0.04786 0.66974 0.0
H87 H 0.72057 0.06303 0.57512 0.0
N88 N 0.76395 0.03033 0.37454 0.0
N89 N 0.76021 0.07321 0.28862 0.0
N90 N 0.72454 0.06577 0.39476 0.0
C91 C 0.77511 0.04762 0.31015 0.0
C92 C 0.735 0.08243 0.33036 0.0
C93 C 0.73849 0.03998 0.41769 0.0
C94 C 0.80295 0.03954 0.26031 0.0
C95 C 0.81703 0.00924 0.25452 0.0
C96 C 0.84197 1.00233 0.1993 0.0
C97 C 0.85323 0.02556 0.14864 0.0
C98 C 0.83963 0.05601 0.15771 0.0
C99 C 0.81508 0.06285 0.21232 0.0
C100 C 0.7175 0.10744 0.29969 0.0
C101 C 0.72571 0.12083 0.22308 0.0
C102 C 0.70683 0.13805 0.18486 0.0
C103 C 0.67935 0.14171 0.22191 0.0
C104 C 0.672 0.13155 0.30318 0.0
C105 C 0.69085 0.11487 0.34168 0.0
C106 C 0.72402 0.02326 0.48743 0.0
C107 C 0.71316 0.99523 0.47155 0.0
C108 C 0.44705 0.63598 0.19032 0.0
C109 C 0.44124 0.64218 0.1111 0.0
C110 C 0.44122 0.67334 0.08546 0.0
C111 C 0.44922 0.69683 0.13441 0.0
H112 H 0.49438 0.77018 0.09778 0.0
H113 H 0.50504 0.81744 0.02821 0.0
H114 H 0.5228 0.85792 0.25488 0.0
H115 H 0.51151 0.81 0.32632 0.0
H116 H 0.45699 0.71395 0.51158 0.0
H117 H 0.46427 0.67218 0.60569 0.0
H118 H 0.5482 0.65784 0.49174 0.0
H119 H 0.54074 0.69963 0.39607 0.0
H120 H 0.45995 0.65308 0.29829 0.0
H121 H 0.44783 0.61246 0.21271 0.0
H122 H 0.43614 0.67936 0.02604 0.0
H123 H 0.45039 0.72015 0.11093 0.0
N124 N 0.47834 0.73876 0.22192 0.0
N125 N 0.49979 0.74919 0.3349 0.0
N126 N 0.47625 0.70476 0.33063 0.0
C127 C 0.49308 0.75752 0.2604 0.0
C128 C 0.491 0.72268 0.37024 0.0
C129 C 0.46986 0.71237 0.25669 0.0
C130 C 0.5019 0.78615 0.21825 0.0
C131 C 0.50065 0.78895 0.13342 0.0
C132 C 0.50706 0.81612 0.09285 0.0
C133 C 0.51496 0.84158 0.13548 0.0
C134 C 0.51665 0.83881 0.22018 0.0
C135 C 0.51036 0.81128 0.26104 0.0
C136 C 0.49836 0.71036 0.44726 0.0
C137 C 0.47731 0.70315 0.50973 0.0
C138 C 0.48139 0.67892 0.5628 0.0
C139 C 0.50669 0.66153 0.55511 0.0
C140 C 0.52851 0.67101 0.4991 0.0
C141 C 0.52434 0.69522 0.44515 0.0
C142 C 0.45686 0.6898 0.21069 0.0
C143 C 0.45445 0.65947 0.23963 0.0
C144 C 0.17239 0.48981 0.95318 0.0
C145 C 0.16595 0.46928 0.89214 0.0
C146 C 0.1843 0.44273 0.86308 0.0
C147 C 0.20692 0.43529 0.89942 0.0
H148 H 0.27059 0.49503 0.1578 0.0
H149 H 0.30338 0.50726 0.24518 0.0
H150 H 0.33596 0.40968 0.22252 0.0
H151 H 0.30336 0.39767 0.13719 0.0
H152 H 0.22657 0.39523 0.2947 0.0
H153 H 0.18484 0.40544 0.39283 0.0
H154 H 0.14094 0.38059 0.20179 0.0
H155 H 0.183 0.37114 0.10221 0.0
H156 H 0.198 0.49683 0.04214 0.0
H157 H 0.15874 0.5104 0.97758 0.0
H158 H 0.18041 0.42668 0.81513 0.0
H159 H 0.21917 0.41314 0.88077 0.0
N160 N 0.24935 0.45008 0.04898 0.0
N161 N 0.24841 0.41178 0.14983 0.0
N162 N 0.21591 0.41529 0.06602 0.0
C163 C 0.26055 0.43537 0.10988 0.0
C164 C 0.22597 0.40174 0.1289 0.0
C165 C 0.2272 0.43911 0.02554 0.0
C166 C 0.28442 0.44539 0.14046 0.0
C167 C 0.28543 0.47653 0.16915 0.0
C168 C 0.30409 0.48345 0.21974 0.0
C169 C 0.32194 0.4593 0.24262 0.0
C170 C 0.32215 0.42874 0.20807 0.0
C171 C 0.30363 0.4219 0.15821 0.0
C172 C 0.20769 0.38514 0.1893 0.0
C173 C 0.20827 0.39005 0.27433 0.0
C174 C 0.1841 0.39595 0.33115 0.0
C175 C 0.15953 0.39615 0.30296 0.0
C176 C 0.15965 0.38225 0.2238 0.0
C177 C 0.18383 0.37664 0.16682 0.0
C178 C 0.21207 0.45427 0.96534 0.0
C179 C 0.19516 0.4823 0.98957 0.0
C180 C 1.01106 0.20905 0.0116 0.0
C181 C 0.02577 0.19119 0.94114 0.0
C182 C 0.05099 0.19995 0.90446 0.0
C183 C 0.06251 0.2235 0.94266 0.0
H184 H 0.0203 0.31808 0.23335 0.0
H185 H 1.0066 0.36062 0.34158 0.0
H186 H 0.08989 0.36641 0.35718 0.0
H187 H 0.10346 0.32394 0.25022 0.0
H188 H 0.11365 0.23846 0.30863 0.0
H189 H 0.11147 0.19213 0.39047 0.0
H190 H 0.11127 0.13486 0.16775 0.0
H191 H 0.11563 0.18039 0.08606 0.0
H192 H 1.01182 0.24415 0.10794 0.0
H193 H 0.99143 0.20316 0.04078 0.0
H194 H 0.06297 0.18667 0.85061 0.0
H195 H 0.0831 0.22742 0.9178 0.0
N196 N 0.05727 0.28 0.11984 0.0
N197 N 0.09135 0.26787 0.19778 0.0
N198 N 0.08547 0.23259 0.09266 0.0
C199 C 0.07126 0.28843 0.1797 0.0
C200 C 0.09846 0.23971 0.15497 0.0
C201 C 0.0651 0.25227 0.07427 0.0
C202 C 0.06293 0.31759 0.23356 0.0
C203 C 0.03566 0.32893 0.25871 0.0
C204 C 0.02782 0.35305 0.32123 0.0
C205 C 0.04714 0.36667 0.35856 0.0
C206 C 0.0745 0.35651 0.32968 0.0
C207 C 0.08227 0.33211 0.26851 0.0
C208 C 0.11271 0.21337 0.19183 0.0
C209 C 0.11467 0.21572 0.27642 0.0
C210 C 0.11301 0.18909 0.32368 0.0
C211 C 0.10884 0.16017 0.28698 0.0
C212 C 0.11335 0.1568 0.19949 0.0
C213 C 0.11573 0.18323 0.1521 0.0
C214 C 0.04895 0.23912 0.01766 0.0
C215 C 0.02252 0.23294 0.04931 0.0
C216 C 0.33163 0.99218 0.08068 0.0
C217 C 0.34358 0.01987 0.05858 0.0
C218 C 0.32733 0.04879 0.07875 0.0
C219 C 0.30108 0.05005 0.12558 0.0
H220 H 0.1984 0.97169 0.30557 0.0
H221 H 0.15368 0.96744 0.38839 0.0
H222 H 0.14407 0.06739 0.44727 0.0
H223 H 0.18859 0.07146 0.36427 0.0
H224 H 0.25097 0.98961 0.5109 0.0
H225 H 0.27937 0.97685 0.61421 0.0
H226 H 0.33298 0.04356 0.50885 0.0
H227 H 0.30487 0.05606 0.40731 0.0
H228 H 0.29792 0.9719 0.14937 0.0
H229 H 0.34319 0.96936 0.06797 0.0
H230 H 0.33527 0.0707 0.06174 0.0
H231 H 0.29026 0.07282 0.1467 0.0
N232 N 0.24265 0.02256 0.23537 0.0
N233 N 0.23725 0.0235 0.38215 0.0
N234 N 0.27981 0.02558 0.30172 0.0
C235 C 0.22634 0.02266 0.31248 0.0
C236 C 0.26382 0.02516 0.37704 0.0
C237 C 0.26977 0.0242 0.2308 0.0
C238 C 0.19677 0.02204 0.32639 0.0
C239 C 0.18606 0.99297 0.33217 0.0
C240 C 0.16057 0.9905 0.38086 0.0
C241 C 0.14547 0.01699 0.42606 0.0
C242 C 0.15531 0.04643 0.41455 0.0
C243 C 0.18059 0.04889 0.3654 0.0
C244 C 0.2761 0.0235 0.45115 0.0
C245 C 0.26833 1.00226 0.51235 0.0
C246 C 0.28459 0.99482 0.57083 0.0
C247 C 0.3084 0.00904 0.56918 0.0
C248 C 0.3146 0.03243 0.51253 0.0
C249 C 0.29864 0.03949 0.45385 0.0
C250 C 0.28999 0.02248 0.1524 0.0
C251 C 0.30531 0.99351 0.12679 0.0
C252 C 0.57156 0.3545 0.42337 0.0
C253 C 0.58016 0.3473 0.49829 0.0
C254 C 0.58385 0.31548 0.51736 0.0
C255 C 0.57585 0.29203 0.46841 0.0
H256 H 0.56924 0.19117 0.4139 0.0
H257 H 0.56332 0.1468 0.50187 0.0
H258 H 0.47926 0.15309 0.48392 0.0
H259 H 0.48547 0.19753 0.39327 0.0
H260 H 0.47592 0.31028 0.28943 0.0
H261 H 0.4655 0.34777 0.1872 0.0
H262 H 0.52488 0.29487 0.99776 0.0
H263 H 0.53521 0.25748 0.10063 0.0
H264 H 0.55564 0.33804 0.31998 0.0
H265 H 0.56832 0.3786 0.40619 0.0
H266 H 0.59112 0.30894 0.57339 0.0
H267 H 0.57712 0.26812 0.48829 0.0
N268 N 0.54707 0.2482 0.38819 0.0
N269 N 0.51703 0.23877 0.29801 0.0
N270 N 0.5361 0.28668 0.29869 0.0
C271 C 0.53092 0.22879 0.35842 0.0
C272 C 0.51998 0.26786 0.26765 0.0
C273 C 0.54976 0.27718 0.35874 0.0
C274 C 0.52775 0.19813 0.39735 0.0
C275 C 0.54955 0.18282 0.42751 0.0
C276 C 0.54609 0.15748 0.47863 0.0
C277 C 0.52063 0.14682 0.50214 0.0
C278 C 0.49913 0.16071 0.46737 0.0
C279 C 0.50268 0.18612 0.41523 0.0
C280 C 0.506 0.28067 0.20251 0.0
C281 C 0.48559 0.30571 0.22484 0.0
C282 C 0.47978 0.32734 0.1663 0.0
C283 C 0.49465 0.32462 0.08455 0.0
C284 C 0.51326 0.29781 0.06047 0.0
C285 C 0.5189 0.27608 0.11896 0.0
C286 C 0.56434 0.29991 0.39885 0.0
C287 C 0.56387 0.33109 0.37411 0.0
Dy288 Dy 0.98677 0.01625 0.7187 0.0
Dy289 Dy 0.01927 0.99471 0.86344 0.0
C290 C 0.05048 0.00447 0.67931 0.0
O291 O 0.97901 0.96647 0.74047 0.0
O292 O 0.01925 0.95239 0.77887 0.0
O293 O 0.9754 0.00628 0.60003 0.0
O294 O 0.96546 0.05286 0.66004 0.0
O295 O 0.97572 0.99526 0.92508 0.0
O296 O 0.95369 0.02082 0.83071 0.0
O297 O 1.00404 0.04499 0.89563 0.0
O298 O 1.00599 0.05759 0.76101 0.0
O299 O 0.02462 0.96484 0.96383 0.0
O300 O 0.0528 0.99882 0.92659 0.0
C301 C 0.9983 0.94476 0.74891 0.0
O302 O 0.02845 0.99848 0.65404 0.0
O303 O 0.05027 0.00976 0.75908 0.0
C304 C 0.98767 0.04951 0.5209 0.0
C305 C 0.02927 0.08185 0.43579 0.0
C306 C 0.03375 0.04948 0.44644 0.0
C307 C 1.01314 0.03345 0.488 0.0
C308 C 0.98242 0.08108 0.50321 0.0
C309 C 1.00297 0.09705 0.46052 0.0
C310 C 0.96988 0.03617 0.58962 0.0
C311 C 0.95359 0.00874 0.90393 0.0
C312 C 1.00527 0.06612 0.83936 0.0
C313 C 0.06946 0.95067 0.97412 0.0
C314 C 0.10435 0.89676 0.98931 0.0
C315 C 0.09631 0.90274 0.91281 0.0
C316 C 0.07892 0.92949 0.90534 0.0
C317 C 0.0791 0.94619 0.0482 0.0
C318 C 0.09646 0.9195 0.05579 0.0
C319 C 0.04729 0.97516 0.9726 0.0
H320 H 0.05359 0.03688 0.42775 0.0
H321 H 0.01791 0.009 0.49989 0.0
H322 H 0.96301 0.09401 0.52773 0.0
H323 H 0.9985 0.12174 0.45042 0.0
H324 H 0.10222 0.88584 0.86028 0.0
H325 H 0.07168 0.93275 0.84746 0.0
H326 H 0.07194 0.96235 0.10184 0.0
H327 H 0.10191 0.91552 0.11594 0.0
Dy328 Dy 0.50818 0.97977 0.78308 0.0
Dy329 Dy 0.51941 0.02815 0.92531 0.0
C330 C 0.51094 0.0519 0.75063 0.0
O331 O 0.55156 0.98567 0.73807 0.0
O332 O 0.56117 0.011 0.85435 0.0
O333 O 0.50431 0.96898 0.65577 0.0
O334 O 0.49367 0.93606 0.75039 0.0
O335 O 0.51279 0.98195 0.98322 0.0
O336 O 0.52962 0.95066 0.86652 0.0
O337 O 0.47427 0.03408 0.9351 0.0
O338 O 0.47131 0.98489 0.88386 0.0
O339 O 0.53514 0.03731 0.03638 0.0
O340 O 0.51365 0.0753 0.98225 0.0
C341 C 0.56881 0.99729 0.77884 0.0
O342 O 0.49592 0.02879 0.74785 0.0
O343 O 0.52647 0.0525 0.80621 0.0
C344 C 0.46205 0.95116 0.66946 0.0
C345 C 0.40696 0.96434 0.66549 0.0
C346 C 0.41925 0.98201 0.71858 0.0
C347 C 0.4465 0.97629 0.71776 0.0
C348 C 0.45003 0.93216 0.61883 0.0
C349 C 0.42262 0.93904 0.61577 0.0
C350 C 0.49031 0.94567 0.67775 0.0
C351 C 0.52291 0.95426 0.94793 0.0
C352 C 0.45977 0.01104 0.92435 0.0
C353 C 0.5503 0.08755 0.04266 0.0
C354 C 0.5919 0.12389 0.06703 0.0
C355 C 0.59779 0.09384 0.02593 0.0
C356 C 0.57725 0.07604 0.01325 0.0
C357 C 0.54412 0.11804 0.07972 0.0
C358 C 0.56473 0.13617 0.09137 0.0
C359 C 0.52868 0.06764 0.0367 0.0
H360 H 0.40807 1.00095 0.75994 0.0
H361 H 0.45549 0.99192 0.75492 0.0
H362 H 0.46179 0.91264 0.58091 0.0
H363 H 0.41403 0.92513 0.57291 0.0
H364 H 0.61828 0.08305 1.00742 0.0
H365 H 0.58254 0.05275 0.98318 0.0
H366 H 0.52337 0.12751 0.10154 0.0
H367 H 0.55933 0.15937 0.12173 0.0
Dy368 Dy 0.52413 0.50172 0.87063 0.0
Dy369 Dy 0.47853 0.48113 0.75446 0.0
C370 C 0.49634 0.43816 0.89902 0.0
O371 O 0.54886 0.47288 0.76141 0.0
O372 O 0.51522 0.4473 0.71851 0.0
O373 O 0.56228 0.51683 0.89086 0.0
O374 O 0.53002 0.51301 0.99526 0.0
O375 O 0.49924 0.51956 0.68798 0.0
O376 O 0.51704 0.54277 0.79259 0.0
O377 O 0.4616 0.52595 0.82569 0.0
O378 O 0.48148 0.51394 0.93613 0.0
O379 O 0.4376 0.47256 0.74526 0.0
O380 O 0.4698 0.46473 0.63699 0.0
C381 C 0.54067 0.45054 0.71805 0.0
O382 O 0.51859 0.45177 0.8953 0.0
O383 O 0.4761 0.45011 0.86495 0.0
C384 C 0.57468 0.50997 0.02585 0.0
C385 C 0.61062 0.50329 0.14095 0.0
C386 C 0.58434 0.49447 0.16104 0.0
C387 C 0.56662 0.49779 0.10442 0.0
C388 C 0.60121 0.51775 1.00463 0.0
C389 C 0.61896 0.51435 0.06112 0.0
C390 C 0.55477 0.51921 0.97175 0.0
C391 C 0.50969 0.54327 0.7193 0.0
C392 C 0.46341 0.53078 0.90365 0.0
C393 C 0.42467 0.47262 0.60971 0.0
C394 C 0.38894 0.47563 0.49374 0.0
C395 C 0.41539 0.4837 0.47103 0.0
C396 C 0.43309 0.48206 0.52815 0.0
C397 C 0.39784 0.46626 0.63357 0.0
C398 C 0.38023 0.46781 0.57661 0.0
C399 C 0.44415 0.46433 0.66581 0.0
H400 H 0.57725 0.48546 0.22129 0.0
H401 H 0.54629 0.49179 0.12355 0.0
H402 H 0.60796 0.52776 0.94542 0.0
H403 H 0.63886 0.52178 0.04344 0.0
H404 H 0.42291 0.48966 0.40783 0.0
H405 H 0.45367 0.48687 0.50719 0.0
H406 H 0.39076 0.45867 0.69552 0.0
H407 H 0.35991 0.46196 0.59702 0.0
Dy408 Dy 0.0137 0.52466 0.72322 0.0
Dy409 Dy 0.99936 0.46757 0.84317 0.0
C410 C 0.01932 0.45355 0.64924 0.0
O411 O 0.9713 0.51751 0.71361 0.0
O412 O 0.959 0.49218 0.8336 0.0
O413 O 1.00964 0.54782 0.61011 0.0
O414 O 0.03631 0.56396 0.68726 0.0
O415 O 1.00025 0.51022 0.92562 0.0
O416 O 0.99232 0.55034 0.84105 0.0
O417 O 0.04442 0.46204 0.80807 0.0
O418 O 0.04868 0.51391 0.78837 0.0
O419 O 1.00716 0.44166 0.94922 0.0
O420 O 0.97616 0.42931 0.8835 0.0
C421 C 0.95274 0.50697 0.76945 0.0
O422 O 0.03064 0.47982 0.64929 0.0
O423 O 1.00273 0.44608 0.71503 0.0
C424 C 0.05386 0.55222 0.54404 0.0
C425 C 0.09028 0.50571 0.44734 0.0
C426 C 0.06656 0.51705 0.42036 0.0
C427 C 0.04859 0.54041 0.46797 0.0
C428 C 0.0795 0.54446 0.5634 0.0
C429 C 0.09749 0.52124 0.51566 0.0
C430 C 0.0309 0.56235 0.61219 0.0
C431 C 0.99357 0.54009 0.9152 0.0
C432 C 0.05898 0.48587 0.80429 0.0
C433 C 0.96378 0.43977 0.02836 0.0
C434 C 0.92534 0.48496 0.12231 0.0
C435 C 0.95164 0.48116 0.13823 0.0
C436 C 0.97069 0.45852 0.0921 0.0
C437 C 0.93651 0.44042 0.02203 0.0
C438 C 0.9175 0.46311 0.06794 0.0
C439 C 0.98457 0.42912 0.95443 0.0
H440 H 0.06059 0.50587 0.36723 0.0
H441 H 0.02916 0.54626 0.4507 0.0
H442 H 0.08458 0.5536 0.62048 0.0
H443 H 0.11619 0.51386 0.53586 0.0
H444 H 0.9581 0.49735 0.18104 0.0
H445 H 0.99143 0.45828 0.09992 0.0
H446 H 0.93036 0.42588 0.97484 0.0
H447 H 0.89702 0.46482 0.05702 0.0
C448 C 0.11793 0.02835 0.57081 0.0
C449 C 0.12103 0.01361 0.4907 0.0
H450 H 0.09376 0.03655 0.69327 0.0
C451 C 0.10106 0.99504 0.47434 0.0
H452 H 0.1331 0.04244 0.58613 0.0
C453 C 0.07839 0.99184 0.53577 0.0
C454 C 0.0753 0.00663 0.61579 0.0
H455 H 0.10274 0.98338 0.41353 0.0
H456 H 0.06324 0.97773 0.52047 0.0
C457 C 0.09551 0.02469 0.63266 0.0
C458 C 0.50046 0.09835 0.56097 0.0
C459 C 0.51664 0.12292 0.56696 0.0
H460 H 0.48593 0.05651 0.61389 0.0
C461 C 0.52951 0.12459 0.63604 0.0
H462 H 0.49024 0.09631 0.50869 0.0
C463 C 0.52709 0.10195 0.69582 0.0
C464 C 0.51161 0.07686 0.68893 0.0
H465 H 0.54156 0.14355 0.64421 0.0
H466 H 0.53767 0.10406 0.74727 0.0
C467 C 0.49802 0.07551 0.62122 0.0
C468 C 0.35353 0.49084 0.30791 0.0
C469 C 0.33868 0.46476 0.3075 0.0
H470 H 0.38115 0.51478 0.36628 0.0
C471 C 0.34 0.44313 0.37007 0.0
H472 H 0.35301 0.50795 0.26072 0.0
C473 C 0.35592 0.44705 0.43032 0.0
C474 C 0.37119 0.47273 0.43028 0.0
H475 H 0.32859 0.423 0.37275 0.0
H476 H 0.35667 0.42943 0.47613 0.0
C477 C 0.36979 0.49463 0.36813 0.0
C478 C 0.01849 0.38443 0.4975 0.0
C479 C 0.03896 0.38989 0.43085 0.0
H480 H 0.99646 0.39985 0.61892 0.0
C481 C 0.05253 0.41675 0.43612 0.0
H482 H 1.00787 0.36376 0.49582 0.0
C483 C 0.04594 0.43746 0.50661 0.0
C484 C 0.02591 0.43167 0.57406 0.0
H485 H 0.06825 0.42175 0.38562 0.0
H486 H 0.0567 0.4579 0.50871 0.0
C487 C 1.01213 0.40498 0.56842 0.0
C488 C 0.90164 1.00124 0.10231 0.0
C489 C 0.87857 0.01873 0.08461 0.0
H490 H 0.94337 0.98455 0.06019 0.0
C491 C 0.88021 0.03141 1.00559 0.0
H492 H 0.9012 0.99123 0.16247 0.0
C493 C 0.90426 0.02763 0.94709 0.0
C494 C 0.92763 0.01109 0.96546 0.0
H495 H 0.8628 0.04457 0.98896 0.0
H496 H 0.90456 0.03821 0.88769 0.0
C497 C 0.92589 0.9976 0.04367 0.0
C498 C 0.53325 0.86944 1.00732 0.0
C499 C 0.52019 0.87105 0.09127 0.0
H500 H 0.5445 0.89414 0.89679 0.0
C501 C 0.51025 0.90083 0.12978 0.0
H502 H 0.54165 0.84702 0.97595 0.0
C503 C 0.51208 0.92805 0.08425 0.0
C504 C 0.52388 0.92613 0.99911 0.0
H505 H 0.49994 0.903 0.19407 0.0
H506 H 0.50333 0.95043 0.11512 0.0
C507 C 0.535 0.89655 0.96188 0.0
C508 C 0.67376 0.49604 0.23874 0.0
C509 C 0.66357 0.50656 0.32208 0.0
H510 H 0.66534 0.48645 0.11701 0.0
C511 C 0.63557 0.51421 0.34614 0.0
H512 H 0.69519 0.49027 0.21733 0.0
C513 C 0.61842 0.51226 0.28821 0.0
C514 C 0.62872 0.50274 0.20421 0.0
H515 H 0.62689 0.52217 0.40974 0.0
H516 H 0.59713 0.51929 0.30886 0.0
C517 C 0.65663 0.49423 0.18071 0.0
C518 C 0.99759 0.574 0.12922 0.0
C519 C 0.99396 0.6065 0.11883 0.0
H520 H 0.99972 0.52763 0.07413 0.0
C521 C 0.98703 0.61701 0.04414 0.0
H522 H 1.00271 0.56522 0.18638 0.0
C523 C 0.98558 0.59545 0.97904 0.0
C524 C 0.99082 0.56293 0.98762 0.0
H525 H 0.98428 0.64193 0.03419 0.0
H526 H 0.98148 0.60435 0.92086 0.0
C527 C 0.99586 0.55248 0.06467 0.0
C528 C 0.09412 0.10586 0.30978 0.0
C529 C 0.09287 0.13762 0.33718 0.0
H530 H 0.07464 0.06368 0.31648 0.0
C531 C 0.07224 0.14936 0.40379 0.0
H532 H 0.10999 0.09565 0.26007 0.0
C533 C 0.05234 0.13084 0.43722 0.0
C534 C 0.05212 0.10015 0.40442 0.0
H535 H 0.07015 0.17362 0.42697 0.0
H536 H 0.03663 0.14104 0.48745 0.0
C537 C 0.07384 0.08742 0.34249 0.0
C538 C 0.33735 0.96425 0.61193 0.0
C539 C 0.32912 0.9967 0.61567 0.0
H540 H 0.36824 0.92827 0.62682 0.0
C541 C 0.34451 0.01763 0.64822 0.0
H542 H 0.32583 0.94755 0.58683 0.0
C543 C 0.36928 0.0069 0.66683 0.0
C544 C 0.37884 0.97467 0.65678 0.0
H545 H 0.33844 0.04272 0.65265 0.0
H546 H 0.38151 0.02449 0.68354 0.0
C547 C 0.36197 0.95329 0.63295 0.0
C548 C 0.56707 0.3687 0.64551 0.0
C549 C 0.57933 0.37296 0.56289 0.0
H550 H 0.54547 0.39079 0.76051 0.0
C551 C 0.58495 0.40349 0.54041 0.0
H552 H 0.56214 0.34579 0.66556 0.0
C553 C 0.57511 0.4295 0.59565 0.0
C554 C 0.55995 0.42511 0.67413 0.0
H555 H 0.59487 0.40757 0.47786 0.0
H556 H 0.57708 0.45298 0.57414 0.0
C557 C 0.55739 0.39456 0.70035 0.0
C558 C 0.1259 0.44135 0.29026 0.0
C559 C 0.13702 0.41982 0.34148 0.0
H560 H 0.10326 0.4857 0.28301 0.0
C561 C 0.13083 0.42567 0.42814 0.0
H562 H 0.13066 0.43805 0.22305 0.0
C563 C 0.11544 0.45343 0.46232 0.0
C564 C 0.10585 0.47586 0.41057 0.0
H565 H 0.13892 0.40949 0.4692 0.0
H566 H 0.11127 0.45748 0.52939 0.0
C567 C 0.1105 0.46903 0.32444 0.0
C568 C 0.13831 0.83219 0.09745 0.0
C569 C 0.12384 0.80709 0.08063 0.0
H570 H 0.14391 0.88068 0.08011 0.0
C571 C 0.10859 0.80988 0.01694 0.0
H572 H 0.15088 0.83055 0.14436 0.0
C573 C 0.10477 0.83845 0.97991 0.0
C574 C 0.11607 0.86488 1.00574 0.0
H575 H 0.09703 0.79127 1.00197 0.0
H576 H 0.09056 0.84055 0.93788 0.0
C577 C 0.13434 0.86092 0.06063 0.0
C578 C 0.6622 0.13848 0.08753 0.0
C579 C 0.65799 0.14936 0.17159 0.0
H580 H 0.64439 0.12376 0.98615 0.0
C581 C 0.63163 0.16071 0.21092 0.0
H582 H 0.68207 0.13006 0.05361 0.0
C583 C 0.60977 0.15537 0.17343 0.0
C584 C 0.61394 0.13969 0.09437 0.0
H585 H 0.6276 0.17089 0.27403 0.0
H586 H 0.58977 0.16077 0.21018 0.0
C587 C 0.64039 0.1342 0.04899 0.0
C588 C 0.45047 0.61629 0.96687 0.0
C589 C 0.43942 0.6154 0.0522 0.0
H590 H 0.46599 0.58972 0.85202 0.0
C591 C 0.43104 0.58681 0.08247 0.0
H592 H 0.4574 0.63754 0.9406 0.0
C593 C 0.43716 0.55911 0.0321 0.0
C594 C 0.45037 0.55985 0.94944 0.0
H595 H 0.42141 0.58529 0.1467 0.0
H596 H 0.43282 0.53694 0.05885 0.0
C597 C 0.45558 0.58877 0.91576 0.0
C598 C 0.87235 0.55468 0.14021 0.0
C599 C 0.86774 0.56273 0.22597 0.0
H600 H 0.8942 0.52357 0.04031 0.0
C601 C 0.88434 0.54708 0.27554 0.0
H602 H 0.86016 0.56649 0.10019 0.0
C603 C 0.90365 0.52245 0.24145 0.0
C604 C 0.90668 0.51284 0.15726 0.0
H605 H 0.88114 0.55214 0.34215 0.0
H606 H 0.91516 0.50985 0.28198 0.0
C607 C 0.89159 0.5299 0.10622 0.0
C608 C 0.02081 0.1513 0.82873 0.0
C609 C 0.01704 0.16086 0.91366 0.0
H610 H 0.01979 0.11408 0.73841 0.0
C611 C 1.00768 0.1396 0.97323 0.0
H612 H 0.02793 0.16711 0.78124 0.0
C613 C 1.00327 0.1092 0.94883 0.0
C614 C 1.0079 0.09926 0.86413 0.0
H615 H 1.00496 0.1459 0.03916 0.0
H616 H 0.99679 0.09325 0.99669 0.0
C617 C 0.01612 0.12091 0.80421 0.0
C618 C 0.38654 0.99257 0.96913 0.0
C619 C 0.3732 0.01855 0.02067 0.0
H620 H 0.42367 0.96958 0.90041 0.0
C621 C 0.38887 0.04247 0.03906 0.0
H622 H 0.3755 0.97383 0.95168 0.0
C623 C 0.41675 0.04031 0.00769 0.0
C624 C 0.43001 0.01401 0.95763 0.0
H625 H 0.37981 0.06265 0.0796 0.0
H626 H 0.42797 0.0591 0.02379 0.0
C627 C 0.41439 0.99022 0.93892 0.0
C628 C 0.51862 0.36224 0.99182 0.0
C629 C 0.49418 0.35193 0.03 0.0
H630 H 0.53835 0.39726 0.92192 0.0
C631 C 0.46999 0.36964 0.02167 0.0
H632 H 0.53764 0.34961 0.99808 0.0
C633 C 0.47037 0.39719 0.97685 0.0
C634 C 0.49497 0.40794 0.94136 0.0
H635 H 0.45082 0.36238 0.0506 0.0
H636 H 0.45151 0.41057 0.97231 0.0
C637 C 0.51901 0.38987 0.94876 0.0
C638 C 0.12716 0.50368 0.85137 0.0
C639 C 0.13916 0.47368 0.86492 0.0
H640 H 0.09291 0.53105 0.82062 0.0
C641 C 0.12472 0.44767 0.85583 0.0
H642 H 0.13763 0.52425 0.85728 0.0
C643 C 0.09902 0.45155 0.8351 0.0
C644 C 0.08692 0.48156 0.82236 0.0
H645 H 0.13296 0.42423 0.86708 0.0
H646 H 0.0885 0.43097 0.83007 0.0
C647 C 0.10149 0.50755 0.82995 0.0
C648 C 0.02129 0.86004 0.67253 0.0
C649 C 0.99902 0.85097 0.64084 0.0
H650 H 0.03845 0.89626 0.73172 0.0
C651 C 0.97578 0.8726 0.65022 0.0
H652 H 0.03979 0.84449 0.66532 0.0
C653 C 0.97522 0.90274 0.6873 0.0
C654 C 0.99781 0.91197 0.71652 0.0
H655 H 0.95808 0.86643 0.62787 0.0
H656 H 0.95721 0.91898 0.69173 0.0
C657 C 0.02063 0.89 0.71018 0.0
C658 C 0.64372 0.00894 0.73288 0.0
C659 C 0.65117 0.99999 0.6472 0.0
H660 H 0.61236 0.0152 0.84137 0.0
C661 C 0.63151 0.9882 0.60751 0.0
H662 H 0.65819 0.01764 0.76662 0.0
C663 C 0.60526 0.98638 0.65094 0.0
C664 C 0.59757 0.99649 0.73557 0.0
H665 H 0.63596 0.98154 0.54163 0.0
H666 H 0.59072 0.97794 0.61697 0.0
C667 C 0.61734 0.00736 0.77622 0.0
C668 C 0.52621 0.62481 0.65216 0.0
C669 C 0.50891 0.63095 0.59533 0.0
H670 H 0.53987 0.59232 0.73697 0.0
C671 C 0.49303 0.60757 0.57671 0.0
H672 H 0.5387 0.64244 0.66735 0.0
C673 C 0.49407 0.57881 0.61478 0.0
C674 C 0.51069 0.57283 0.67374 0.0
H675 H 0.47968 0.61162 0.53253 0.0
H676 H 0.48121 0.5616 0.59961 0.0
C677 C 0.52685 0.59615 0.69184 0.0
C678 C 0.88946 0.53933 0.69375 0.0
C679 C 0.8705 0.51925 0.72789 0.0
H680 H 0.92995 0.55111 0.67949 0.0
C681 C 0.87861 0.49534 0.77794 0.0
H682 H 0.88396 0.5578 0.65429 0.0
C683 C 0.90506 0.49184 0.79385 0.0
C684 C 0.92413 0.51164 0.75815 0.0
H685 H 0.86447 0.47952 0.80513 0.0
H686 H 0.91074 0.47317 0.83247 0.0
C687 C 0.9159 0.53541 0.70799 0.0
loop_
_geom_bond_atom_site_label_1
_geom_bond_atom_site_label_2
_geom_bond_distance
_geom_bond_site_symmetry_2
_ccdc_geom_bond_type
C0 C1 1.384 . S
C0 H13 0.947 . S
C0 C35 1.382 . S
C1 C0 1.384 . S
C1 C2 1.378 . S
C2 C1 1.378 . S
C2 C3 1.378 . S
C2 H14 0.952 . S
C3 C2 1.378 . S
C3 H15 0.950 . S
C3 C34 1.383 . S
H4 C23 0.947 . S
H5 C24 0.946 . S
H6 C26 0.953 . S
H7 C27 0.945 . S
H8 C29 0.952 . S
H9 C30 0.949 . S
H10 C32 0.950 . S
H11 C33 0.948 . S
H12 C35 0.951 . S
H13 C0 0.947 . S
H14 C2 0.952 . S
H15 C3 0.950 . S
N16 C19 1.382 . S
N16 C21 1.363 . S
N17 C19 1.371 . S
N17 C20 1.372 . S
N18 C20 1.361 . S
N18 C21 1.377 . S
C19 N16 1.382 . S
C19 N17 1.371 . S
C19 C22 1.480 . S
C20 N17 1.372 . S
C20 N18 1.361 . S
C20 C28 1.457 . S
C21 N16 1.363 . S
C21 N18 1.377 . S
C21 C34 1.479 . S
C22 C19 1.480 . S
C22 C23 1.383 . S
C22 C27 1.385 . S
C23 H4 0.947 . S
C23 C22 1.383 . S
C23 C24 1.388 . S
C24 H5 0.946 . S
C24 C23 1.388 . S
C24 C25 1.384 . S
C25 C24 1.384 . S
C25 C26 1.377 . S
C26 H6 0.953 . S
C26 C25 1.377 . S
C26 C27 1.369 . S
C27 H7 0.945 . S
C27 C22 1.385 . S
C27 C26 1.369 . S
C28 C20 1.457 . S
C28 C29 1.372 . S
C28 C33 1.364 . S
C29 H8 0.952 . S
C29 C28 1.372 . S
C29 C30 1.389 . S
C30 H9 0.949 . S
C30 C29 1.389 . S
C30 C31 1.387 . S
C31 C30 1.387 . S
C31 C32 1.372 . S
C32 H10 0.950 . S
C32 C31 1.372 . S
C32 C33 1.379 . S
C33 H11 0.948 . S
C33 C28 1.364 . S
C33 C32 1.379 . S
C34 C3 1.383 . S
C34 C21 1.479 . S
C34 C35 1.398 . S
C35 C0 1.382 . S
C35 H12 0.951 . S
C35 C34 1.398 . S
C36 C37 1.383 1_655 S
C36 H49 0.947 . S
C36 C71 1.383 1_655 S
C37 C36 1.383 1_455 S
C37 C38 1.378 . S
C38 C37 1.378 . S
C38 C39 1.378 . S
C38 H50 0.952 . S
C39 C38 1.378 . S
C39 H51 0.950 . S
C39 C70 1.383 . S
H40 C59 0.947 . S
H41 C60 0.951 . S
H42 C62 0.953 . S
H43 C63 0.945 . S
H44 C65 0.946 1_655 S
H45 C66 0.965 . S
H46 C68 0.950 . S
H47 C69 0.948 . S
H48 C71 0.951 1_655 S
H49 C36 0.947 . S
H50 C38 0.952 . S
H51 C39 0.950 . S
N52 C55 1.382 . S
N52 C57 1.363 . S
N53 C55 1.371 . S
N53 C56 1.372 . S
N54 C56 1.361 . S
N54 C57 1.377 . S
C55 N52 1.382 . S
C55 N53 1.371 . S
C55 C58 1.480 . S
C56 N53 1.372 . S
C56 N54 1.361 . S
C56 C64 1.457 . S
C57 N52 1.363 . S
C57 N54 1.377 . S
C57 C70 1.479 . S
C58 C55 1.480 . S
C58 C59 1.383 . S
C58 C63 1.385 . S
C59 H40 0.947 . S
C59 C58 1.383 . S
C59 C60 1.381 1_455 S
C60 H41 0.951 . S
C60 C59 1.381 1_655 S
C60 C61 1.387 1_655 S
C61 C60 1.387 1_455 S
C61 C62 1.377 . S
C62 H42 0.953 . S
C62 C61 1.377 . S
C62 C63 1.369 . S
C63 H43 0.945 . S
C63 C58 1.385 . S
C63 C62 1.369 . S
C64 C56 1.457 . S
C64 C65 1.381 . S
C64 C69 1.364 . S
C65 H44 0.946 1_455 S
C65 C64 1.381 . S
C65 C66 1.384 1_455 S
C66 H45 0.965 . S
C66 C65 1.384 1_655 S
C66 C67 1.376 1_655 S
C67 C66 1.376 1_455 S
C67 C68 1.372 . S
C68 H46 0.950 . S
C68 C67 1.372 . S
C68 C69 1.379 . S
C69 H47 0.948 . S
C69 C64 1.364 . S
C69 C68 1.379 . S
C70 C39 1.383 . S
C70 C57 1.479 . S
C70 C71 1.398 . S
C71 C36 1.383 1_455 S
C71 H48 0.951 1_455 S
C71 C70 1.398 . S
C72 C73 1.383 1_565 S
C72 H85 0.948 . S
C72 C107 1.381 1_565 S
C73 C72 1.383 1_545 S
C73 C74 1.378 . S
C74 C73 1.378 . S
C74 C75 1.378 . S
C74 H86 0.952 . S
C75 C74 1.378 . S
C75 H87 0.950 . S
C75 C106 1.383 . S
H76 C95 0.947 . S
H77 C96 0.951 . S
H78 C98 0.953 . S
H79 C99 0.945 . S
H80 C101 0.951 1_565 S
H81 C102 0.949 . S
H82 C104 0.950 . S
H83 C105 0.948 . S
H84 C107 0.951 1_565 S
H85 C72 0.948 . S
H86 C74 0.952 . S
H87 C75 0.950 . S
N88 C91 1.382 . S
N88 C93 1.363 . S
N89 C91 1.371 . S
N89 C92 1.372 . S
N90 C92 1.361 . S
N90 C93 1.377 . S
C91 N88 1.382 . S
C91 N89 1.371 . S
C91 C94 1.480 . S
C92 N89 1.372 . S
C92 N90 1.361 . S
C92 C100 1.457 . S
C93 N88 1.363 . S
C93 N90 1.377 . S
C93 C106 1.479 . S
C94 C91 1.480 . S
C94 C95 1.383 . S
C94 C99 1.385 . S
C95 H76 0.947 . S
C95 C94 1.383 . S
C95 C96 1.389 1_545 S
C96 H77 0.951 . S
C96 C95 1.389 1_565 S
C96 C97 1.379 1_565 S
C97 C96 1.379 1_545 S
C97 C98 1.377 . S
C98 H78 0.953 . S
C98 C97 1.377 . S
C98 C99 1.369 . S
C99 H79 0.945 . S
C99 C94 1.385 . S
C99 C98 1.369 . S
C100 C92 1.457 . S
C100 C101 1.375 . S
C100 C105 1.364 . S
C101 H80 0.951 1_545 S
C101 C100 1.375 . S
C101 C102 1.387 1_545 S
C102 H81 0.949 . S
C102 C101 1.387 1_565 S
C102 C103 1.387 1_565 S
C103 C102 1.387 1_545 S
C103 C104 1.372 . S
C104 H82 0.950 . S
C104 C103 1.372 . S
C104 C105 1.379 . S
C105 H83 0.948 . S
C105 C100 1.364 . S
C105 C104 1.379 . S
C106 C75 1.383 . S
C106 C93 1.479 . S
C106 C107 1.398 . S
C107 C72 1.381 1_545 S
C107 H84 0.951 1_545 S
C107 C106 1.398 . S
C108 C109 1.384 1_554 S
C108 H121 0.947 . S
C108 C143 1.382 . S
C109 C108 1.384 1_556 S
C109 C110 1.378 . S
C110 C109 1.378 . S
C110 C111 1.378 . S
C110 H122 0.952 . S
C111 C110 1.378 . S
C111 H123 0.950 . S
C111 C142 1.383 1_556 S
H112 C131 0.947 . S
H113 C132 0.946 . S
H114 C134 0.953 . S
H115 C135 0.945 . S
H116 C137 0.952 . S
H117 C138 0.949 . S
H118 C140 0.950 . S
H119 C141 0.948 . S
H120 C143 0.951 . S
H121 C108 0.947 . S
H122 C110 0.952 . S
H123 C111 0.950 . S
N124 C127 1.382 . S
N124 C129 1.363 . S
N125 C127 1.371 . S
N125 C128 1.372 . S
N126 C128 1.361 . S
N126 C129 1.377 . S
C127 N124 1.382 . S
C127 N125 1.371 . S
C127 C130 1.480 . S
C128 N125 1.372 . S
C128 N126 1.361 . S
C128 C136 1.457 . S
C129 N124 1.363 . S
C129 N126 1.377 . S
C129 C142 1.479 . S
C130 C127 1.480 . S
C130 C131 1.383 . S
C130 C135 1.385 . S
C131 H112 0.947 . S
C131 C130 1.383 . S
C131 C132 1.388 . S
C132 H113 0.946 . S
C132 C131 1.388 . S
C132 C133 1.384 . S
C133 C132 1.384 . S
C133 C134 1.377 . S
C134 H114 0.953 . S
C134 C133 1.377 . S
C134 C135 1.369 . S
C135 H115 0.945 . S
C135 C130 1.385 . S
C135 C134 1.369 . S
C136 C128 1.457 . S
C136 C137 1.372 . S
C136 C141 1.364 . S
C137 H116 0.952 . S
C137 C136 1.372 . S
C137 C138 1.389 . S
C138 H117 0.949 . S
C138 C137 1.389 . S
C138 C139 1.387 . S
C139 C138 1.387 . S
C139 C140 1.372 . S
C140 H118 0.950 . S
C140 C139 1.372 . S
C140 C141 1.379 . S
C141 H119 0.948 . S
C141 C136 1.364 . S
C141 C140 1.379 . S
C142 C111 1.383 1_554 S
C142 C129 1.479 . S
C142 C143 1.398 . S
C143 C108 1.382 . S
C143 H120 0.951 . S
C143 C142 1.398 . S
C144 C145 1.384 . S
C144 H157 0.947 . S
C144 C179 1.382 . S
C145 C144 1.384 . S
C145 C146 1.378 . S
C146 C145 1.378 . S
C146 C147 1.378 . S
C146 H158 0.952 . S
C147 C146 1.378 . S
C147 H159 0.950 . S
C147 C178 1.383 . S
H148 C167 0.947 . S
H149 C168 0.946 . S
H150 C170 0.953 . S
H151 C171 0.945 . S
H152 C173 0.952 . S
H153 C174 0.949 . S
H154 C176 0.950 . S
H155 C177 0.948 . S
H156 C179 0.951 . S
H157 C144 0.947 . S
H158 C146 0.952 . S
H159 C147 0.950 . S
N160 C163 1.382 1_556 S
N160 C165 1.363 . S
N161 C163 1.371 . S
N161 C164 1.372 . S
N162 C164 1.361 1_556 S
N162 C165 1.377 . S
C163 N160 1.382 1_554 S
C163 N161 1.371 . S
C163 C166 1.480 . S
C164 N161 1.372 . S
C164 N162 1.361 1_554 S
C164 C172 1.457 . S
C165 N160 1.363 . S
C165 N162 1.377 . S
C165 C178 1.479 . S
C166 C163 1.480 . S
C166 C167 1.383 1_554 S
C166 C171 1.385 . S
C167 H148 0.947 . S
C167 C166 1.383 1_556 S
C167 C168 1.388 . S
C168 H149 0.946 . S
C168 C167 1.388 . S
C168 C169 1.384 1_556 S
C169 C168 1.384 1_554 S
C169 C170 1.377 . S
C170 H150 0.953 . S
C170 C169 1.377 . S
C170 C171 1.369 . S
C171 H151 0.945 . S
C171 C166 1.385 . S
C171 C170 1.369 . S
C172 C164 1.457 . S
C172 C173 1.372 . S
C172 C177 1.364 . S
C173 H152 0.952 . S
C173 C172 1.372 . S
C173 C174 1.389 . S
C174 H153 0.949 . S
C174 C173 1.389 . S
C174 C175 1.387 . S
C175 C174 1.387 . S
C175 C176 1.372 . S
C176 H154 0.950 . S
C176 C175 1.372 . S
C176 C177 1.379 . S
C177 H155 0.948 . S
C177 C172 1.364 . S
C177 C176 1.379 . S
C178 C147 1.383 . S
C178 C165 1.479 . S
C178 C179 1.398 . S
C179 C144 1.382 . S
C179 H156 0.951 . S
C179 C178 1.398 . S
C180 C181 1.384 1_655 S
C180 H193 0.946 . S
C180 C215 1.381 1_655 S
C181 C180 1.384 1_455 S
C181 C182 1.378 . S
C182 C181 1.378 . S
C182 C183 1.378 . S
C182 H194 0.952 . S
C183 C182 1.378 . S
C183 H195 0.950 . S
C183 C214 1.383 . S
H184 C203 0.947 . S
H185 C204 0.950 . S
H186 C206 0.953 . S
H187 C207 0.945 . S
H188 C209 0.952 1_655 S
H189 C210 0.948 . S
H190 C212 0.950 . S
H191 C213 0.948 . S
H192 C215 0.951 1_654 S
H193 C180 0.946 . S
H194 C182 0.952 . S
H195 C183 0.950 . S
N196 C199 1.382 . S
N196 C201 1.363 . S
N197 C199 1.371 . S
N197 C200 1.372 . S
N198 C200 1.361 . S
N198 C201 1.377 . S
C199 N196 1.382 . S
C199 N197 1.371 . S
C199 C202 1.480 . S
C200 N197 1.372 . S
C200 N198 1.361 . S
C200 C208 1.457 . S
C201 N196 1.363 . S
C201 N198 1.377 . S
C201 C214 1.479 1_554 S
C202 C199 1.480 . S
C202 C203 1.383 . S
C202 C207 1.385 . S
C203 H184 0.947 . S
C203 C202 1.383 . S
C203 C204 1.389 1_455 S
C204 H185 0.950 . S
C204 C203 1.389 1_655 S
C204 C205 1.379 1_655 S
C205 C204 1.379 1_455 S
C205 C206 1.377 . S
C206 H186 0.953 . S
C206 C205 1.377 . S
C206 C207 1.369 . S
C207 H187 0.945 . S
C207 C202 1.385 . S
C207 C206 1.369 . S
C208 C200 1.457 . S
C208 C209 1.373 . S
C208 C213 1.364 . S
C209 H188 0.952 1_455 S
C209 C208 1.373 . S
C209 C210 1.390 1_455 S
C210 H189 0.948 . S
C210 C209 1.390 1_655 S
C210 C211 1.389 1_655 S
C211 C210 1.389 1_455 S
C211 C212 1.372 . S
C212 H190 0.950 . S
C212 C211 1.372 . S
C212 C213 1.379 . S
C213 H191 0.948 . S
C213 C208 1.364 . S
C213 C212 1.379 . S
C214 C183 1.383 . S
C214 C201 1.479 1_556 S
C214 C215 1.401 . S
C215 C180 1.381 1_455 S
C215 H192 0.951 1_456 S
C215 C214 1.401 . S
C216 C217 1.384 1_565 S
C216 H229 0.947 . S
C216 C251 1.382 1_566 S
C217 C216 1.384 1_545 S
C217 C218 1.378 . S
C218 C217 1.378 . S
C218 C219 1.378 . S
C218 H230 0.952 . S
C219 C218 1.378 . S
C219 H231 0.950 1_556 S
C219 C250 1.383 1_556 S
H220 C239 0.947 . S
H221 C240 0.950 . S
H222 C242 0.953 . S
H223 C243 0.945 . S
H224 C245 0.944 1_565 S
H225 C246 0.958 . S
H226 C248 0.950 . S
H227 C249 0.948 . S
H228 C251 0.950 1_565 S
H229 C216 0.947 . S
H230 C218 0.952 . S
H231 C219 0.950 1_554 S
N232 C235 1.382 . S
N232 C237 1.363 . S
N233 C235 1.371 . S
N233 C236 1.372 . S
N234 C236 1.361 . S
N234 C237 1.377 . S
C235 N232 1.382 . S
C235 N233 1.371 . S
C235 C238 1.480 . S
C236 N233 1.372 . S
C236 N234 1.361 . S
C236 C244 1.457 . S
C237 N232 1.363 . S
C237 N234 1.377 . S
C237 C250 1.479 . S
C238 C235 1.480 . S
C238 C239 1.383 . S
C238 C243 1.385 . S
C239 H220 0.947 . S
C239 C238 1.383 . S
C239 C240 1.384 1_545 S
C240 H221 0.950 . S
C240 C239 1.384 1_565 S
C240 C241 1.384 1_565 S
C241 C240 1.384 1_545 S
C241 C242 1.377 . S
C242 H222 0.953 . S
C242 C241 1.377 . S
C242 C243 1.369 . S
C243 H223 0.945 . S
C243 C238 1.385 . S
C243 C242 1.369 . S
C244 C236 1.457 . S
C244 C245 1.382 . S
C244 C249 1.364 . S
C245 H224 0.944 1_545 S
C245 C244 1.382 . S
C245 C246 1.389 1_545 S
C246 H225 0.958 . S
C246 C245 1.389 1_565 S
C246 C247 1.379 1_565 S
C247 C246 1.379 1_545 S
C247 C248 1.372 . S
C248 H226 0.950 . S
C248 C247 1.372 . S
C248 C249 1.379 . S
C249 H227 0.948 . S
C249 C244 1.364 . S
C249 C248 1.379 . S
C250 C219 1.383 1_554 S
C250 C237 1.479 . S
C250 C251 1.398 . S
C251 C216 1.382 1_544 S
C251 H228 0.950 1_545 S
C251 C250 1.398 . S
C252 C253 1.384 . S
C252 H265 0.947 . S
C252 C287 1.382 . S
C253 C252 1.384 . S
C253 C254 1.378 . S
C254 C253 1.378 . S
C254 C255 1.378 . S
C254 H266 0.952 . S
C255 C254 1.378 . S
C255 H267 0.950 . S
C255 C286 1.383 . S
H256 C275 0.947 . S
H257 C276 0.946 . S
H258 C278 0.953 . S
H259 C279 0.945 . S
H260 C281 0.952 . S
H261 C282 0.949 . S
H262 C284 0.950 . S
H263 C285 0.948 . S
H264 C287 0.951 . S
H265 C252 0.947 . S
H266 C254 0.952 . S
H267 C255 0.950 . S
N268 C271 1.382 . S
N268 C273 1.363 . S
N269 C271 1.371 . S
N269 C272 1.372 . S
N270 C272 1.361 . S
N270 C273 1.377 . S
C271 N268 1.382 . S
C271 N269 1.371 . S
C271 C274 1.480 . S
C272 N269 1.372 . S
C272 N270 1.361 . S
C272 C280 1.457 . S
C273 N268 1.363 . S
C273 N270 1.377 . S
C273 C286 1.479 . S
C274 C271 1.480 . S
C274 C275 1.383 . S
C274 C279 1.385 . S
C275 H256 0.947 . S
C275 C274 1.383 . S
C275 C276 1.388 . S
C276 H257 0.946 . S
C276 C275 1.388 . S
C276 C277 1.384 . S
C277 C276 1.384 . S
C277 C278 1.377 . S
C278 H258 0.953 . S
C278 C277 1.377 . S
C278 C279 1.369 . S
C279 H259 0.945 . S
C279 C274 1.385 . S
C279 C278 1.369 . S
C280 C272 1.457 . S
C280 C281 1.372 . S
C280 C285 1.364 . S
C281 H260 0.952 . S
C281 C280 1.372 . S
C281 C282 1.389 . S
C282 H261 0.949 . S
C282 C281 1.389 . S
C282 C283 1.387 . S
C283 C282 1.387 . S
C283 C284 1.372 . S
C284 H262 0.950 . S
C284 C283 1.372 . S
C284 C285 1.379 . S
C285 H263 0.948 . S
C285 C280 1.364 . S
C285 C284 1.379 . S
C286 C255 1.383 . S
C286 C273 1.479 . S
C286 C287 1.398 . S
C287 C252 1.382 . S
C287 H264 0.951 . S
C287 C286 1.398 . S
Dy288 O291 2.307 1_545 S
Dy288 O293 2.381 1_655 S
Dy288 O294 2.379 . S
Dy288 O296 2.339 . S
Dy288 O298 2.298 . S
Dy288 O302 2.275 1_655 S
Dy288 C310 2.738 . S
Dy289 O292 2.298 . S
Dy289 O295 2.275 1_455 S
Dy289 O297 2.307 1_565 S
Dy289 O299 2.384 1_455 S
Dy289 O300 2.379 . S
Dy289 O303 2.339 . S
Dy289 C319 2.738 . S
C290 O302 1.254 1_565 S
C290 O303 1.257 . S
O291 Dy288 2.307 1_565 S
O291 C301 1.266 . S
O292 Dy289 2.298 . S
O292 C301 1.236 1_455 S
O293 Dy288 2.381 1_455 S
O293 C310 1.222 1_455 S
O294 Dy288 2.379 . S
O294 C310 1.249 . S
O295 Dy289 2.275 1_655 S
O295 C311 1.254 1_565 S
O296 Dy288 2.339 . S
O296 C311 1.257 . S
O297 Dy289 2.307 1_545 S
O297 C312 1.266 . S
O298 Dy288 2.298 . S
O298 C312 1.236 1_655 S
O299 Dy289 2.384 1_655 S
O299 C319 1.231 1_655 S
O300 Dy289 2.379 . S
O300 C319 1.249 . S
C301 O291 1.266 . S
C301 O292 1.236 1_655 S
O302 Dy288 2.275 1_455 S
O302 C290 1.254 1_545 S
O303 Dy289 2.339 . S
O303 C290 1.257 . S
C304 C307 1.344 . S
C304 C308 1.328 . S
C304 C310 1.516 . S
C305 C306 1.304 . S
C305 C309 1.323 . S
C306 C305 1.304 . S
C306 C307 1.371 . S
C306 H320 0.930 1_655 S
C307 C304 1.344 . S
C307 C306 1.371 . S
C307 H321 0.931 1_655 S
C308 C304 1.328 . S
C308 C309 1.433 . S
C308 H322 0.931 . S
C309 C305 1.323 . S
C309 C308 1.433 . S
C309 H323 0.933 . S
C310 Dy288 2.738 . S
C310 O293 1.222 1_655 S
C310 O294 1.249 . S
C310 C304 1.516 . S
C311 O295 1.254 1_545 S
C311 O296 1.257 . S
C312 O297 1.266 . S
C312 O298 1.236 1_455 S
C313 C316 1.342 1_556 S
C313 C317 1.325 1_556 S
C313 C319 1.521 . S
C314 C315 1.304 . S
C314 C318 1.323 . S
C315 C314 1.304 . S
C315 C316 1.371 . S
C315 H324 0.930 1_455 S
C316 C313 1.342 1_554 S
C316 C315 1.371 . S
C316 H325 0.931 1_455 S
C317 C313 1.325 1_554 S
C317 C318 1.433 . S
C317 H326 0.931 1_554 S
C318 C314 1.323 . S
C318 C317 1.433 . S
C318 H327 0.933 . S
C319 Dy289 2.738 . S
C319 O299 1.231 1_455 S
C319 O300 1.249 . S
C319 C313 1.521 . S
H320 C306 0.930 1_455 S
H321 C307 0.931 1_455 S
H322 C308 0.931 . S
H323 C309 0.933 . S
H324 C315 0.930 1_655 S
H325 C316 0.931 1_655 S
H326 C317 0.931 1_556 S
H327 C318 0.933 . S
Dy328 O331 2.307 . S
Dy328 O333 2.395 1_565 S
Dy328 O334 2.379 . S
Dy328 O336 2.339 . S
Dy328 O338 2.298 . S
Dy328 O342 2.275 1_565 S
Dy328 C350 2.738 . S
Dy329 O332 2.298 . S
Dy329 O335 2.275 1_545 S
Dy329 O337 2.307 . S
Dy329 O339 2.395 1_545 S
Dy329 O340 2.379 . S
Dy329 O343 2.339 . S
Dy329 C359 2.738 . S
C330 O342 1.254 . S
C330 O343 1.257 . S
O331 Dy328 2.307 . S
O331 C341 1.266 . S
O332 Dy329 2.298 . S
O332 C341 1.236 1_545 S
O333 Dy328 2.395 1_545 S
O333 C350 1.255 1_545 S
O334 Dy328 2.379 . S
O334 C350 1.249 . S
O335 Dy329 2.275 1_565 S
O335 C351 1.254 . S
O336 Dy328 2.339 . S
O336 C351 1.257 . S
O337 Dy329 2.307 . S
O337 C352 1.266 . S
O338 Dy328 2.298 . S
O338 C352 1.236 1_565 S
O339 Dy329 2.395 1_565 S
O339 C359 1.255 1_565 S
O340 Dy329 2.379 . S
O340 C359 1.249 . S
C341 O331 1.266 . S
C341 O332 1.236 1_565 S
O342 Dy328 2.275 1_545 S
O342 C330 1.254 . S
O343 Dy329 2.339 . S
O343 C330 1.257 . S
C344 C347 1.344 . S
C344 C348 1.328 . S
C344 C350 1.516 . S
C345 C346 1.304 . S
C345 C349 1.323 . S
C346 C345 1.304 . S
C346 C347 1.371 . S
C346 H360 0.930 1_565 S
C347 C344 1.344 . S
C347 C346 1.371 . S
C347 H361 0.931 1_565 S
C348 C344 1.328 . S
C348 C349 1.433 . S
C348 H362 0.931 . S
C349 C345 1.323 . S
C349 C348 1.433 . S
C349 H363 0.933 . S
C350 Dy328 2.738 . S
C350 O333 1.255 1_565 S
C350 O334 1.249 . S
C350 C344 1.516 . S
C351 O335 1.254 . S
C351 O336 1.257 . S
C352 O337 1.266 . S
C352 O338 1.236 1_545 S
C353 C356 1.342 1_556 S
C353 C357 1.328 1_556 S
C353 C359 1.516 . S
C354 C355 1.304 . S
C354 C358 1.323 . S
C355 C354 1.304 . S
C355 C356 1.375 . S
C355 H364 0.930 1_545 S
C356 C353 1.342 1_554 S
C356 C355 1.375 . S
C356 H365 0.929 1_544 S
C357 C353 1.328 1_554 S
C357 C358 1.433 . S
C357 H366 0.931 . S
C358 C354 1.323 . S
C358 C357 1.433 . S
C358 H367 0.933 . S
C359 Dy329 2.738 . S
C359 O339 1.255 1_545 S
C359 O340 1.249 . S
C359 C353 1.516 . S
H360 C346 0.930 1_545 S
H361 C347 0.931 1_545 S
H362 C348 0.931 . S
H363 C349 0.933 . S
H364 C355 0.930 1_565 S
H365 C356 0.929 1_566 S
H366 C357 0.931 . S
H367 C358 0.933 . S
Dy368 O371 2.307 . S
Dy368 O373 2.395 . S
Dy368 O374 2.379 . S
Dy368 O376 2.339 . S
Dy368 O378 2.298 . S
Dy368 O382 2.275 . S
Dy368 C390 2.738 . S
Dy369 O372 2.298 . S
Dy369 O375 2.275 . S
Dy369 O377 2.307 . S
Dy369 O379 2.395 . S
Dy369 O380 2.379 . S
Dy369 O383 2.339 . S
Dy369 C399 2.738 . S
C370 O382 1.254 . S
C370 O383 1.257 . S
O371 Dy368 2.307 . S
O371 C381 1.266 . S
O372 Dy369 2.298 . S
O372 C381 1.236 . S
O373 Dy368 2.395 . S
O373 C390 1.255 . S
O374 Dy368 2.379 . S
O374 C390 1.249 . S
O375 Dy369 2.275 . S
O375 C391 1.254 . S
O376 Dy368 2.339 . S
O376 C391 1.257 . S
O377 Dy369 2.307 . S
O377 C392 1.266 . S
O378 Dy368 2.298 . S
O378 C392 1.236 . S
O379 Dy369 2.395 . S
O379 C399 1.255 . S
O380 Dy369 2.379 . S
O380 C399 1.249 . S
C381 O371 1.266 . S
C381 O372 1.236 . S
O382 Dy368 2.275 . S
O382 C370 1.254 . S
O383 Dy369 2.339 . S
O383 C370 1.257 . S
C384 C387 1.344 1_556 S
C384 C388 1.328 . S
C384 C390 1.516 . S
C385 C386 1.304 . S
C385 C389 1.323 1_554 S
C386 C385 1.304 . S
C386 C387 1.371 . S
C386 H400 0.930 . S
C387 C384 1.344 1_554 S
C387 C386 1.371 . S
C387 H401 0.931 . S
C388 C384 1.328 . S
C388 C389 1.433 . S
C388 H402 0.931 . S
C389 C385 1.323 1_556 S
C389 C388 1.433 . S
C389 H403 0.933 . S
C390 Dy368 2.738 . S
C390 O373 1.255 . S
C390 O374 1.249 . S
C390 C384 1.516 . S
C391 O375 1.254 . S
C391 O376 1.257 . S
C392 O377 1.266 . S
C392 O378 1.236 . S
C393 C396 1.344 . S
C393 C397 1.328 . S
C393 C399 1.516 . S
C394 C395 1.304 . S
C394 C398 1.323 . S
C395 C394 1.304 . S
C395 C396 1.371 . S
C395 H404 0.930 . S
C396 C393 1.344 . S
C396 C395 1.371 . S
C396 H405 0.931 . S
C397 C393 1.328 . S
C397 C398 1.433 . S
C397 H406 0.931 . S
C398 C394 1.323 . S
C398 C397 1.433 . S
C398 H407 0.933 . S
C399 Dy369 2.738 . S
C399 O379 1.255 . S
C399 O380 1.249 . S
C399 C393 1.516 . S
H400 C386 0.930 . S
H401 C387 0.931 . S
H402 C388 0.931 . S
H403 C389 0.933 . S
H404 C395 0.930 . S
H405 C396 0.931 . S
H406 C397 0.931 . S
H407 C398 0.933 . S
Dy408 O411 2.307 1_455 S
Dy408 O413 2.395 . S
Dy408 O414 2.379 . S
Dy408 O416 2.339 . S
Dy408 O418 2.298 . S
Dy408 O422 2.275 . S
Dy408 C430 2.738 . S
Dy409 O412 2.298 . S
Dy409 O415 2.275 . S
Dy409 O417 2.307 1_655 S
Dy409 O419 2.395 . S
Dy409 O420 2.379 . S
Dy409 O423 2.339 . S
Dy409 C439 2.738 . S
C410 O422 1.254 1_655 S
C410 O423 1.257 . S
O411 Dy408 2.307 1_655 S
O411 C421 1.266 . S
O412 Dy409 2.298 . S
O412 C421 1.236 . S
O413 Dy408 2.395 . S
O413 C430 1.255 . S
O414 Dy408 2.379 . S
O414 C430 1.249 . S
O415 Dy409 2.275 . S
O415 C431 1.254 1_655 S
O416 Dy408 2.339 . S
O416 C431 1.257 . S
O417 Dy409 2.307 1_455 S
O417 C432 1.266 . S
O418 Dy408 2.298 . S
O418 C432 1.236 . S
O419 Dy409 2.395 . S
O419 C439 1.255 . S
O420 Dy409 2.379 . S
O420 C439 1.249 . S
C421 O411 1.266 . S
C421 O412 1.236 . S
O422 Dy408 2.275 . S
O422 C410 1.254 1_455 S
O423 Dy409 2.339 . S
O423 C410 1.257 . S
C424 C427 1.344 . S
C424 C428 1.328 . S
C424 C430 1.516 . S
C425 C426 1.304 . S
C425 C429 1.323 . S
C426 C425 1.304 . S
C426 C427 1.371 . S
C426 H440 0.930 . S
C427 C424 1.344 . S
C427 C426 1.371 . S
C427 H441 0.931 . S
C428 C424 1.328 . S
C428 C429 1.433 . S
C428 H442 0.931 . S
C429 C425 1.323 . S
C429 C428 1.433 . S
C429 H443 0.933 . S
C430 Dy408 2.738 . S
C430 O413 1.255 . S
C430 O414 1.249 . S
C430 C424 1.516 . S
C431 O415 1.254 1_455 S
C431 O416 1.257 . S
C432 O417 1.266 . S
C432 O418 1.236 . S
C433 C436 1.344 . S
C433 C437 1.328 . S
C433 C439 1.516 1_554 S
C434 C435 1.304 . S
C434 C438 1.323 . S
C435 C434 1.304 . S
C435 C436 1.371 . S
C435 H444 0.930 . S
C436 C433 1.344 . S
C436 C435 1.371 . S
C436 H445 0.931 . S
C437 C433 1.328 . S
C437 C438 1.433 . S
C437 H446 0.931 . S
C438 C434 1.323 . S
C438 C437 1.433 . S
C438 H447 0.933 . S
C439 Dy409 2.738 . S
C439 O419 1.255 . S
C439 O420 1.249 . S
C439 C433 1.516 1_556 S
H440 C426 0.930 . S
H441 C427 0.931 . S
H442 C428 0.931 . S
H443 C429 0.933 . S
H444 C435 0.930 . S
H445 C436 0.931 . S
H446 C437 0.931 . S
H447 C438 0.933 . S
C448 C449 1.397 . S
C448 H452 0.950 . S
C448 C457 1.390 . S
C449 C448 1.397 . S
C449 C451 1.377 1_545 S
H450 C457 0.950 . S
C451 C449 1.377 1_565 S
C451 C453 1.390 . S
C451 H455 0.950 . S
H452 C448 0.950 . S
C453 C451 1.390 . S
C453 C454 1.366 1_565 S
C453 H456 0.950 . S
C454 C453 1.366 1_545 S
C454 C457 1.411 . S
H455 C451 0.950 . S
H456 C453 0.950 . S
C457 C448 1.390 . S
C457 H450 0.950 . S
C457 C454 1.411 . S
C458 C459 1.387 . S
C458 H462 0.950 . S
C458 C467 1.390 . S
C459 C458 1.387 . S
C459 C461 1.387 . S
H460 C467 0.950 . S
C461 C459 1.387 . S
C461 C463 1.390 . S
C461 H465 0.950 . S
H462 C458 0.950 . S
C463 C461 1.390 . S
C463 C464 1.387 . S
C463 H466 0.950 . S
C464 C463 1.387 . S
C464 C467 1.387 . S
H465 C461 0.950 . S
H466 C463 0.950 . S
C467 C458 1.390 . S
C467 H460 0.950 . S
C467 C464 1.387 . S
C468 C469 1.387 . S
C468 H472 0.950 . S
C468 C477 1.390 . S
C469 C468 1.387 . S
C469 C471 1.387 . S
H470 C477 0.950 . S
C471 C469 1.387 . S
C471 C473 1.390 . S
C471 H475 0.950 . S
H472 C468 0.950 . S
C473 C471 1.390 . S
C473 C474 1.387 . S
C473 H476 0.950 . S
C474 C473 1.387 . S
C474 C477 1.387 . S
H475 C471 0.950 . S
H476 C473 0.950 . S
C477 C468 1.390 . S
C477 H470 0.950 . S
C477 C474 1.387 . S
C478 C479 1.371 1_655 S
C478 H482 0.950 . S
C478 C487 1.390 . S
C479 C478 1.371 1_455 S
C479 C481 1.410 . S
H480 C487 0.950 . S
C481 C479 1.410 . S
C481 C483 1.390 . S
C481 H485 0.950 . S
H482 C478 0.950 . S
C483 C481 1.390 . S
C483 C484 1.387 . S
C483 H486 0.950 . S
C484 C483 1.387 . S
C484 C487 1.387 1_455 S
H485 C481 0.950 . S
H486 C483 0.950 . S
C487 C478 1.390 . S
C487 H480 0.950 . S
C487 C484 1.387 1_655 S
C488 C489 1.389 . S
C488 H492 0.950 . S
C488 C497 1.390 . S
C489 C488 1.389 . S
C489 C491 1.386 1_565 S
H490 C497 0.950 . S
C491 C489 1.386 1_545 S
C491 C493 1.390 . S
C491 H495 0.950 . S
H492 C488 0.950 . S
C493 C491 1.390 . S
C493 C494 1.372 1_544 S
C493 H496 0.950 . S
C494 C493 1.372 1_566 S
C494 C497 1.404 1_556 S
H495 C491 0.950 . S
H496 C493 0.950 . S
C497 C488 1.390 . S
C497 H490 0.950 . S
C497 C494 1.404 1_554 S
C498 C499 1.387 1_556 S
C498 H502 0.950 . S
C498 C507 1.390 . S
C499 C498 1.387 1_554 S
C499 C501 1.387 . S
H500 C507 0.950 . S
C501 C499 1.387 . S
C501 C503 1.386 1_554 S
C501 H505 0.950 . S
H502 C498 0.950 . S
C503 C501 1.386 1_556 S
C503 C504 1.392 . S
C503 H506 0.949 1_556 S
C504 C503 1.392 . S
C504 C507 1.387 . S
H505 C501 0.950 . S
H506 C503 0.949 1_554 S
C507 C498 1.390 . S
C507 H500 0.950 . S
C507 C504 1.387 . S
C508 C509 1.387 . S
C508 H512 0.950 . S
C508 C517 1.390 . S
C509 C508 1.387 . S
C509 C511 1.387 . S
H510 C517 0.950 . S
C511 C509 1.387 . S
C511 C513 1.390 . S
C511 H515 0.950 . S
H512 C508 0.950 . S
C513 C511 1.390 . S
C513 C514 1.387 . S
C513 H516 0.950 . S
C514 C513 1.387 . S
C514 C517 1.387 . S
H515 C511 0.950 . S
H516 C513 0.950 . S
C517 C508 1.390 . S
C517 H510 0.950 . S
C517 C514 1.387 . S
C518 C519 1.387 1_455 S
C518 H522 0.950 . S
C518 C527 1.390 . S
C519 C518 1.387 1_655 S
C519 C521 1.394 . S
H520 C527 0.950 . S
C521 C519 1.394 . S
C521 C523 1.390 . S
C521 H525 0.950 . S
H522 C518 0.950 . S
C523 C521 1.390 . S
C523 C524 1.387 . S
C523 H526 0.950 . S
C524 C523 1.387 . S
C524 C527 1.387 1_655 S
H525 C521 0.950 . S
H526 C523 0.950 . S
C527 C518 1.390 . S
C527 H520 0.950 . S
C527 C524 1.387 1_455 S
C528 C529 1.387 . S
C528 H532 0.950 . S
C528 C537 1.390 1_455 S
C529 C528 1.387 . S
C529 C531 1.387 1_455 S
H530 C537 0.950 . S
C531 C529 1.387 1_655 S
C531 C533 1.390 . S
C531 H535 0.950 . S
H532 C528 0.950 . S
C533 C531 1.390 . S
C533 C534 1.387 . S
C533 H536 0.950 . S
C534 C533 1.387 . S
C534 C537 1.387 . S
H535 C531 0.950 . S
H536 C533 0.950 . S
C537 C528 1.390 1_655 S
C537 H530 0.950 . S
C537 C534 1.387 . S
C538 C539 1.387 . S
C538 H542 0.950 . S
C538 C547 1.390 . S
C539 C538 1.387 . S
C539 C541 1.387 1_565 S
H540 C547 0.950 . S
C541 C539 1.387 1_545 S
C541 C543 1.390 1_545 S
C541 H545 0.950 . S
H542 C538 0.950 . S
C543 C541 1.390 1_565 S
C543 C544 1.387 . S
C543 H546 0.950 . S
C544 C543 1.387 . S
C544 C547 1.387 . S
H545 C541 0.950 . S
H546 C543 0.950 . S
C547 C538 1.390 . S
C547 H540 0.950 . S
C547 C544 1.387 . S
C548 C549 1.387 . S
C548 H552 0.950 . S
C548 C557 1.390 . S
C549 C548 1.387 . S
C549 C551 1.387 . S
H550 C557 0.950 . S
C551 C549 1.387 . S
C551 C553 1.390 . S
C551 H555 0.950 . S
H552 C548 0.950 . S
C553 C551 1.390 . S
C553 C554 1.387 . S
C553 H556 0.950 . S
C554 C553 1.387 . S
C554 C557 1.387 . S
H555 C551 0.950 . S
H556 C553 0.950 . S
C557 C548 1.390 . S
C557 H550 0.950 . S
C557 C554 1.387 . S
C558 C559 1.387 . S
C558 H562 0.950 . S
C558 C567 1.390 . S
C559 C558 1.387 . S
C559 C561 1.387 . S
H560 C567 0.950 . S
C561 C559 1.387 . S
C561 C563 1.390 . S
C561 H565 0.950 . S
H562 C558 0.950 . S
C563 C561 1.390 . S
C563 C564 1.387 . S
C563 H566 0.950 . S
C564 C563 1.387 . S
C564 C567 1.387 . S
H565 C561 0.950 . S
H566 C563 0.950 . S
C567 C558 1.390 . S
C567 H560 0.950 . S
C567 C564 1.387 . S
C568 C569 1.387 1_455 S
C568 H572 0.950 1_455 S
C568 C577 1.390 . S
C569 C568 1.387 1_655 S
C569 C571 1.387 1_655 S
H570 C577 0.950 1_556 S
C571 C569 1.387 1_455 S
C571 C573 1.390 . S
C571 H575 0.950 . S
H572 C568 0.950 1_655 S
C573 C571 1.390 . S
C573 C574 1.387 . S
C573 H576 0.950 . S
C574 C573 1.387 . S
C574 C577 1.387 . S
H575 C571 0.950 . S
H576 C573 0.950 . S
C577 C568 1.390 . S
C577 H570 0.950 1_554 S
C577 C574 1.387 . S
C578 C579 1.387 . S
C578 H582 0.950 1_544 S
C578 C587 1.390 . S
C579 C578 1.387 . S
C579 C581 1.387 . S
H580 C587 0.950 1_556 S
C581 C579 1.387 . S
C581 C583 1.390 . S
C581 H585 0.950 . S
H582 C578 0.950 1_566 S
C583 C581 1.390 . S
C583 C584 1.387 . S
C583 H586 0.950 . S
C584 C583 1.387 . S
C584 C587 1.387 . S
H585 C581 0.950 . S
H586 C583 0.950 . S
C587 C578 1.390 . S
C587 H580 0.950 1_554 S
C587 C584 1.387 . S
C588 C589 1.387 . S
C588 H592 0.950 . S
C588 C597 1.390 . S
C589 C588 1.387 . S
C589 C591 1.387 . S
H590 C597 0.950 . S
C591 C589 1.387 . S
C591 C593 1.390 1_556 S
C591 H595 0.950 1_556 S
H592 C588 0.950 . S
C593 C591 1.390 1_554 S
C593 C594 1.387 1_554 S
C593 H596 0.950 . S
C594 C593 1.387 1_556 S
C594 C597 1.387 . S
H595 C591 0.950 1_554 S
H596 C593 0.950 . S
C597 C588 1.390 . S
C597 H590 0.950 . S
C597 C594 1.387 . S
C598 C599 1.387 . S
C598 H602 0.950 . S
C598 C607 1.390 . S
C599 C598 1.387 . S
C599 C601 1.387 . S
H600 C607 0.950 . S
C601 C599 1.387 . S
C601 C603 1.390 . S
C601 H605 0.950 . S
H602 C598 0.950 . S
C603 C601 1.390 . S
C603 C604 1.387 . S
C603 H606 0.950 . S
C604 C603 1.387 . S
C604 C607 1.387 . S
H605 C601 0.950 . S
H606 C603 0.950 . S
C607 C598 1.390 . S
C607 H600 0.950 . S
C607 C604 1.387 . S
C608 C609 1.387 . S
C608 H612 0.950 . S
C608 C617 1.390 . S
C609 C608 1.387 . S
C609 C611 1.387 1_455 S
H610 C617 0.950 . S
C611 C609 1.387 1_655 S
C611 C613 1.391 1_655 S
C611 H615 0.951 . S
H612 C608 0.950 . S
C613 C611 1.391 1_455 S
C613 C614 1.387 . S
C613 H616 0.950 1_455 S
C614 C613 1.387 . S
C614 C617 1.387 . S
H615 C611 0.951 . S
H616 C613 0.950 1_655 S
C617 C608 1.390 . S
C617 H610 0.950 . S
C617 C614 1.387 . S
C618 C619 1.387 1_565 S
C618 H622 0.950 . S
C618 C627 1.390 . S
C619 C618 1.387 1_545 S
C619 C621 1.387 . S
H620 C627 0.950 . S
C621 C619 1.387 . S
C621 C623 1.390 . S
C621 H625 0.950 . S
H622 C618 0.950 . S
C623 C621 1.390 . S
C623 C624 1.387 . S
C623 H626 0.950 . S
C624 C623 1.387 . S
C624 C627 1.387 1_545 S
H625 C621 0.950 . S
H626 C623 0.950 . S
C627 C618 1.390 . S
C627 H620 0.950 . S
C627 C624 1.387 1_565 S
C628 C629 1.387 1_556 S
C628 H632 0.950 . S
C628 C637 1.390 . S
C629 C628 1.387 1_554 S
C629 C631 1.387 . S
H630 C637 0.950 . S
C631 C629 1.387 . S
C631 C633 1.390 . S
C631 H635 0.950 . S
H632 C628 0.950 . S
C633 C631 1.390 . S
C633 C634 1.387 1_554 S
C633 H636 0.950 . S
C634 C633 1.387 1_556 S
C634 C637 1.387 . S
H635 C631 0.950 . S
H636 C633 0.950 . S
C637 C628 1.390 . S
C637 H630 0.950 . S
C637 C634 1.387 . S
C638 C639 1.387 . S
C638 H642 0.950 . S
C638 C647 1.390 . S
C639 C638 1.387 . S
C639 C641 1.387 . S
H640 C647 0.950 . S
C641 C639 1.387 . S
C641 C643 1.390 . S
C641 H645 0.950 . S
H642 C638 0.950 . S
C643 C641 1.390 . S
C643 C644 1.387 . S
C643 H646 0.950 . S
C644 C643 1.387 . S
C644 C647 1.387 . S
H645 C641 0.950 . S
H646 C643 0.950 . S
C647 C638 1.390 . S
C647 H640 0.950 . S
C647 C644 1.387 . S
C648 C649 1.387 1_455 S
C648 H652 0.950 . S
C648 C657 1.390 . S
C649 C648 1.387 1_655 S
C649 C651 1.387 . S
H650 C657 0.950 . S
C651 C649 1.387 . S
C651 C653 1.390 . S
C651 H655 0.950 . S
H652 C648 0.950 . S
C653 C651 1.390 . S
C653 C654 1.387 . S
C653 H656 0.950 . S
C654 C653 1.387 . S
C654 C657 1.387 1_655 S
H655 C651 0.950 . S
H656 C653 0.950 . S
C657 C648 1.390 . S
C657 H650 0.950 . S
C657 C654 1.387 1_455 S
C658 C659 1.387 1_545 S
C658 H662 0.950 . S
C658 C667 1.390 . S
C659 C658 1.387 1_565 S
C659 C661 1.387 . S
H660 C667 0.950 . S
C661 C659 1.387 . S
C661 C663 1.390 . S
C661 H665 0.950 . S
H662 C658 0.950 . S
C663 C661 1.390 . S
C663 C664 1.387 . S
C663 H666 0.950 . S
C664 C663 1.387 . S
C664 C667 1.387 1_565 S
H665 C661 0.950 . S
H666 C663 0.950 . S
C667 C658 1.390 . S
C667 H660 0.950 . S
C667 C664 1.387 1_545 S
C668 C669 1.387 . S
C668 H672 0.950 . S
C668 C677 1.390 . S
C669 C668 1.387 . S
C669 C671 1.387 . S
H670 C677 0.950 . S
C671 C669 1.387 . S
C671 C673 1.390 . S
C671 H675 0.950 . S
H672 C668 0.950 . S
C673 C671 1.390 . S
C673 C674 1.387 . S
C673 H676 0.950 . S
C674 C673 1.387 . S
C674 C677 1.387 . S
H675 C671 0.950 . S
H676 C673 0.950 . S
C677 C668 1.390 . S
C677 H670 0.950 . S
C677 C674 1.387 . S
C678 C679 1.387 . S
C678 H682 0.950 . S
C678 C687 1.390 . S
C679 C678 1.387 . S
C679 C681 1.387 . S
H680 C687 0.950 . S
C681 C679 1.387 . S
C681 C683 1.390 . S
C681 H685 0.950 . S
H682 C678 0.950 . S
C683 C681 1.390 . S
C683 C684 1.387 . S
C683 H686 0.950 . S
C684 C683 1.387 . S
C684 C687 1.387 . S
H685 C681 0.950 . S
H686 C683 0.950 . S
C687 C678 1.390 . S
C687 H680 0.950 . S
C687 C684 1.387 . S
C449 C241 2.271 . S
C454 C290 2.484 1_545 S
C464 C330 2.295 . S
C459 C277 2.165 . S
C474 C394 2.872 . S
C469 C169 2.711 . S
C484 C410 2.764 1_455 S
C479 C205 2.346 . S
C494 C311 2.488 1_565 S
C489 C97 2.277 1_565 S
C499 C133 2.208 . S
C504 C351 2.298 . S
C509 C25 2.662 . S
C514 C385 2.871 . S
C519 C61 2.344 1_655 S
C524 C431 2.762 1_654 S
C534 C305 0.670 . S
C529 C211 0.623 . S
C544 C345 0.862 . S
C539 C247 0.871 1_565 S
C554 C381 0.868 . S
C549 C253 0.875 . S
C559 C175 1.164 . S
C564 C425 1.008 . S
C569 C67 0.661 1_655 S
C574 C314 0.667 . S
C584 C354 0.855 . S
C579 C103 0.849 . S
C594 C392 0.863 . S
C589 C109 0.901 . S
C599 C31 1.058 . S
C604 C434 1.010 . S
C609 C181 2.908 . S
C614 C312 3.338 . S
C619 C217 2.794 . S
C624 C352 3.172 . S
C634 C370 2.226 . S
C629 C283 2.088 . S
C644 C432 3.795 . S
C639 C145 3.311 . S
C649 C37 2.918 1_655 S
C654 C301 3.346 . S
C664 C341 3.174 . S
C659 C73 2.805 1_565 S
C674 C391 2.228 . S
C669 C139 2.124 . S
C679 C1 3.299 . S
C684 C421 3.800 . S
