# Generated by pormake.
# Topology dag, (6,3)-cn, num edge types: 1
# Building blocks:
#     Node 0, Type 0, BuildingBlock: MIDCAF_clean_sbu_0, # of connection points: 6
#     Node 1, Type 0, BuildingBlock: MIDCAF_clean_sbu_0, # of connection points: 6
#     Node 2, Type 0, BuildingBlock: MIDCAF_clean_sbu_0, # of connection points: 6
#     Node 3, Type 0, BuildingBlock: MIDCAF_clean_sbu_0, # of connection points: 6
#     Node 4, Type 1, BuildingBlock: CUQRIR_clean_linker_1, # of connection points: 3
#     Node 5, Type 1, BuildingBlock: CUQRIR_clean_linker_1, # of connection points: 3
#     Node 6, Type 1, BuildingBlock: CUQRIR_clean_linker_1, # of connection points: 3
#     Node 7, Type 1, BuildingBlock: CUQRIR_clean_linker_1, # of connection points: 3
#     Node 8, Type 1, BuildingBlock: CUQRIR_clean_linker_1, # of connection points: 3
#     Node 9, Type 1, BuildingBlock: CUQRIR_clean_linker_1, # of connection points: 3
#     Node 10, Type 1, BuildingBlock: CUQRIR_clean_linker_1, # of connection points: 3
#     Node 11, Type 1, BuildingBlock: CUQRIR_clean_linker_1, # of connection points: 3
#     Edge 12, Type (0, 1), BuildingBlock: KIFKEQ_clean_linker_1, # of connection points: 2
#     Edge 13, Type (0, 1), BuildingBlock: KIFKEQ_clean_linker_1, # of connection points: 2
#     Edge 14, Type (0, 1), BuildingBlock: KIFKEQ_clean_linker_1, # of connection points: 2
#     Edge 15, Type (0, 1), BuildingBlock: KIFKEQ_clean_linker_1, # of connection points: 2
#     Edge 16, Type (0, 1), BuildingBlock: KIFKEQ_clean_linker_1, # of connection points: 2
#     Edge 17, Type (0, 1), BuildingBlock: KIFKEQ_clean_linker_1, # of connection points: 2
#     Edge 18, Type (0, 1), BuildingBlock: KIFKEQ_clean_linker_1, # of connection points: 2
#     Edge 19, Type (0, 1), BuildingBlock: KIFKEQ_clean_linker_1, # of connection points: 2
#     Edge 20, Type (0, 1), BuildingBlock: KIFKEQ_clean_linker_1, # of connection points: 2
#     Edge 21, Type (0, 1), BuildingBlock: KIFKEQ_clean_linker_1, # of connection points: 2
#     Edge 22, Type (0, 1), BuildingBlock: KIFKEQ_clean_linker_1, # of connection points: 2
#     Edge 23, Type (0, 1), BuildingBlock: KIFKEQ_clean_linker_1, # of connection points: 2
#     Edge 24, Type (0, 1), BuildingBlock: KIFKEQ_clean_linker_1, # of connection points: 2
#     Edge 25, Type (0, 1), BuildingBlock: KIFKEQ_clean_linker_1, # of connection points: 2
#     Edge 26, Type (0, 1), BuildingBlock: KIFKEQ_clean_linker_1, # of connection points: 2
#     Edge 27, Type (0, 1), BuildingBlock: KIFKEQ_clean_linker_1, # of connection points: 2
#     Edge 28, Type (0, 1), BuildingBlock: KIFKEQ_clean_linker_1, # of connection points: 2
#     Edge 29, Type (0, 1), BuildingBlock: KIFKEQ_clean_linker_1, # of connection points: 2
#     Edge 30, Type (0, 1), BuildingBlock: KIFKEQ_clean_linker_1, # of connection points: 2
#     Edge 31, Type (0, 1), BuildingBlock: KIFKEQ_clean_linker_1, # of connection points: 2
#     Edge 32, Type (0, 1), BuildingBlock: KIFKEQ_clean_linker_1, # of connection points: 2
#     Edge 33, Type (0, 1), BuildingBlock: KIFKEQ_clean_linker_1, # of connection points: 2
#     Edge 34, Type (0, 1), BuildingBlock: KIFKEQ_clean_linker_1, # of connection points: 2
#     Edge 35, Type (0, 1), BuildingBlock: KIFKEQ_clean_linker_1, # of connection points: 2
# Relax obj value: 0.120
# Max RMSD: 0.123
# Mean RMSD: 0.093
data_MOF--net-dag--node1-MIDCAF_clean_sbu_0--node2-CUQRIR_clean_linker_1--edge1-KIFKEQ_clean_linker_1
_symmetry_space_group_name_H-M    P1
_symmetry_Int_Tables_number       1
_symmetry_cell_setting            triclinic
loop_
_symmetry_equiv_pos_as_xyz
'x, y, z'
_cell_length_a     38.614272
_cell_length_b     38.589842
_cell_length_c     30.329463
_cell_angle_alpha  89.904359
_cell_angle_beta   90.137935
_cell_angle_gamma 90.057114
loop_
_atom_site_label
_atom_site_type_symbol
_atom_site_fract_x
_atom_site_fract_y
_atom_site_fract_z
_atom_type_partial_charge
Zn0 Zn 0.09013 0.91867 0.03931 0.0
Zn1 Zn 0.10988 0.86276 0.90747 0.0
Zn2 Zn 0.10595 0.88458 0.98262 0.0
C3 C 0.10031 0.93469 0.90147 0.0
C4 C 0.05534 0.82667 0.94611 0.0
O5 O 0.14457 0.86876 0.03328 0.0
O6 O 0.10775 0.88339 0.08502 0.0
C7 C 0.15449 0.93821 0.01572 0.0
O8 O 0.10104 0.9309 0.94325 0.0
O9 O 0.10237 0.90832 0.87691 0.0
O10 O 0.07164 0.82792 0.91009 0.0
O11 O 0.06453 0.84619 0.97837 0.0
O12 O 0.12572 0.9538 0.01961 0.0
O13 O 0.15458 0.9051 0.01038 0.0
O14 O 0.05772 0.86894 0.01737 0.0
O15 O 0.03814 0.92038 0.037 0.0
C16 C 0.03386 0.88782 0.03488 0.0
O17 O 0.15793 0.86197 0.98796 0.0
O18 O 0.15825 0.84673 0.91758 0.0
C19 C 0.13413 0.86615 0.07367 0.0
C20 C 0.1733 0.84839 0.95459 0.0
Zn21 Zn 0.61257 0.61986 0.42044 0.0
Zn22 Zn 0.58251 0.6169 0.58442 0.0
Zn23 Zn 0.60111 0.61662 0.50596 0.0
C24 C 0.61352 0.55323 0.57259 0.0
C25 C 0.5233 0.63094 0.5458 0.0
O26 O 0.64584 0.65197 0.49578 0.0
O27 O 0.65546 0.64728 0.42408 0.0
C28 C 0.61984 0.55046 0.44683 0.0
O29 O 0.61213 0.56355 0.53212 0.0
O30 O 0.60409 0.57336 0.60298 0.0
O31 O 0.53171 0.61792 0.58236 0.0
O32 O 0.54607 0.63407 0.51494 0.0
O33 O 0.61893 0.56953 0.41301 0.0
O34 O 0.61457 0.56324 0.4855 0.0
O35 O 0.5542 0.63385 0.46966 0.0
O36 O 0.56901 0.64216 0.39996 0.0
C37 C 0.54648 0.64321 0.42998 0.0
O38 O 0.6354 0.65411 0.53975 0.0
O39 O 0.60601 0.6606 0.60157 0.0
C40 C 0.66402 0.65896 0.46135 0.0
C41 C 0.63066 0.66961 0.57683 0.0
Zn42 Zn 0.88899 0.10197 0.93021 0.0
Zn43 Zn 0.89146 0.12316 0.08454 0.0
Zn44 Zn 0.88908 0.11343 0.00703 0.0
C45 C 0.95907 0.11962 0.06181 0.0
C46 C 0.85997 0.06096 0.07712 0.0
O47 O 0.84796 0.14657 0.97905 0.0
O48 O 0.83996 0.11487 0.91962 0.0
C49 C 0.94577 0.14181 0.94078 0.0
O50 O 0.94404 0.12532 0.02449 0.0
O51 O 0.94098 0.11342 0.09545 0.0
O52 O 0.85846 0.0863 0.10328 0.0
O53 O 0.87426 0.06478 0.03914 0.0
O54 O 0.92409 0.13611 0.91054 0.0
O55 O 0.93964 0.13112 0.98026 0.0
O56 O 0.8779 0.05735 0.99397 0.0
O57 O 0.90071 0.05192 0.92784 0.0
C58 C 0.88736 0.03809 0.96145 0.0
O59 O 0.85056 0.15402 0.02577 0.0
O60 O 0.8752 0.17175 0.08725 0.0
C61 C 0.83031 0.13935 0.94422 0.0
C62 C 0.85215 0.17556 0.05813 0.0
Zn63 Zn 0.36495 0.37463 0.57792 0.0
Zn64 Zn 0.40381 0.41102 0.42156 0.0
Zn65 Zn 0.37862 0.38999 0.49531 0.0
C66 C 0.45768 0.37769 0.45521 0.0
C67 C 0.37481 0.46924 0.45458 0.0
O68 O 0.33504 0.35217 0.49254 0.0
O69 O 0.32472 0.34576 0.56397 0.0
C70 C 0.43156 0.35334 0.5658 0.0
O71 O 0.43321 0.37232 0.48337 0.0
O72 O 0.45303 0.39818 0.4234 0.0
O73 O 0.39231 0.46021 0.42154 0.0
O74 O 0.36773 0.44696 0.48515 0.0
O75 O 0.40858 0.35109 0.59515 0.0
O76 O 0.42462 0.36756 0.52832 0.0
O77 O 0.364 0.43871 0.53031 0.0
O78 O 0.3556 0.42191 0.59928 0.0
C79 C 0.35644 0.44574 0.57077 0.0
O80 O 0.34703 0.35977 0.44872 0.0
O81 O 0.37275 0.37897 0.38844 0.0
C82 C 0.31729 0.33903 0.52441 0.0
C83 C 0.3506 0.35942 0.40649 0.0
C84 C 0.20704 0.18749 0.18579 0.0
N85 N 0.20121 0.15946 0.16017 0.0
N86 N 0.24011 0.18754 0.20071 0.0
C87 C 0.17967 0.2132 0.19902 0.0
C88 C 0.25415 0.15849 0.18313 0.0
N89 N 0.23048 0.14153 0.15826 0.0
C90 C 0.29027 0.14589 0.19202 0.0
H91 H 0.19066 0.23943 0.20377 0.0
H92 H 0.16819 0.20478 0.23079 0.0
H93 H 0.15875 0.21457 0.17394 0.0
H94 H 0.28978 0.12835 0.22104 0.0
H95 H 0.30784 0.16791 0.19942 0.0
H96 H 0.30034 0.13111 0.16345 0.0
C97 C 0.30924 0.68276 0.75432 0.0
N98 N 0.32292 0.67692 0.71403 0.0
N99 N 0.31108 0.71692 0.76464 0.0
C100 C 0.29671 0.65472 0.7849 0.0
C101 C 0.32635 0.73156 0.72884 0.0
N102 N 0.33347 0.70723 0.69803 0.0
C103 C 0.33233 0.76976 0.72278 0.0
H104 H 0.26882 0.64991 0.77847 0.0
H105 H 0.29995 0.66247 0.81988 0.0
H106 H 0.31092 0.63018 0.7791 0.0
H107 H 0.35762 0.77684 0.73771 0.0
H108 H 0.31177 0.78493 0.73941 0.0
H109 H 0.33296 0.77669 0.68727 0.0
C110 C 0.81191 0.8367 0.28262 0.0
N111 N 0.83084 0.84327 0.24623 0.0
N112 N 0.81731 0.80381 0.29678 0.0
C113 C 0.79019 0.86323 0.30607 0.0
C114 C 0.84047 0.79073 0.26752 0.0
N115 N 0.84862 0.8148 0.23669 0.0
C116 C 0.85316 0.75395 0.26715 0.0
H117 H 0.78826 0.85724 0.34177 0.0
H118 H 0.76376 0.86325 0.29164 0.0
H119 H 0.8013 0.88956 0.30184 0.0
H120 H 0.83276 0.73605 0.2792 0.0
H121 H 0.8759 0.75178 0.28942 0.0
H122 H 0.86121 0.7461 0.23353 0.0
C123 C 0.70996 0.30866 0.70716 0.0
N124 N 0.68535 0.31647 0.67693 0.0
N125 N 0.70619 0.27559 0.72141 0.0
C126 C 0.73534 0.33426 0.72591 0.0
C127 C 0.67837 0.26361 0.69881 0.0
N128 N 0.66551 0.28855 0.67198 0.0
C129 C 0.66204 0.22862 0.706 0.0
H130 H 0.74577 0.35115 0.69947 0.0
H131 H 0.75709 0.32092 0.74281 0.0
H132 H 0.72177 0.35102 0.75001 0.0
H133 H 0.64955 0.22813 0.73891 0.0
H134 H 0.68207 0.20809 0.70561 0.0
H135 H 0.64246 0.22264 0.6803 0.0
C136 C 0.67186 0.2689 0.29484 0.0
N137 N 0.6605 0.29076 0.32659 0.0
N138 N 0.69618 0.28466 0.26951 0.0
C139 C 0.6602 0.23203 0.28947 0.0
C140 C 0.69895 0.31689 0.28682 0.0
N141 N 0.67722 0.3206 0.32131 0.0
C142 C 0.72092 0.3455 0.26795 0.0
H143 H 0.68165 0.21575 0.27679 0.0
H144 H 0.63867 0.2312 0.2652 0.0
H145 H 0.65076 0.22131 0.32121 0.0
H146 H 0.72548 0.34152 0.23222 0.0
H147 H 0.74631 0.34564 0.28515 0.0
H148 H 0.70854 0.37112 0.27298 0.0
C149 C 0.15114 0.20675 0.71715 0.0
N150 N 0.14053 0.18443 0.74874 0.0
N151 N 0.1718 0.19038 0.68766 0.0
C152 C 0.14262 0.24474 0.71628 0.0
C153 C 0.17326 0.15726 0.70266 0.0
N154 N 0.15418 0.15373 0.73971 0.0
C155 C 0.19143 0.128 0.67972 0.0
H156 H 0.11946 0.24883 0.6952 0.0
H157 H 0.16441 0.2599 0.70225 0.0
H158 H 0.13673 0.25435 0.7499 0.0
H159 H 0.218 0.12562 0.69337 0.0
H160 H 0.19332 0.13299 0.64377 0.0
H161 H 0.17775 0.10309 0.68541 0.0
C162 C 0.25509 0.70498 0.3305 0.0
N163 N 0.28216 0.69489 0.35579 0.0
N164 N 0.26159 0.73618 0.31162 0.0
C165 C 0.2238 0.68308 0.32117 0.0
C166 C 0.29383 0.74438 0.32583 0.0
N167 N 0.30645 0.71915 0.35241 0.0
C168 C 0.31405 0.77542 0.3104 0.0
H169 H 0.22962 0.66557 0.29318 0.0
H170 H 0.20131 0.69951 0.31207 0.0
H171 H 0.21731 0.66689 0.35028 0.0
H172 H 0.33699 0.78018 0.33164 0.0
H173 H 0.29744 0.79883 0.31042 0.0
H174 H 0.32273 0.77097 0.27602 0.0
C175 C 0.7802 0.81031 0.8191 0.0
N176 N 0.80586 0.81113 0.84956 0.0
N177 N 0.78102 0.78017 0.79638 0.0
C178 C 0.75659 0.84009 0.80824 0.0
C179 C 0.80812 0.76272 0.81389 0.0
N180 N 0.82328 0.78156 0.84617 0.0
C181 C 0.81958 0.72731 0.79946 0.0
H182 H 0.72949 0.83252 0.81557 0.0
H183 H 0.75808 0.84592 0.77245 0.0
H184 H 0.7631 0.86369 0.82739 0.0
H185 H 0.83759 0.73 0.77122 0.0
H186 H 0.79701 0.71171 0.78844 0.0
H187 H 0.8332 0.71359 0.82661 0.0
H188 H 0.17867 0.9947 0.97351 0.0
H189 H 0.19748 0.92837 0.08543 0.0
H190 H 0.21042 0.04137 0.00907 0.0
H191 H 0.22973 0.97516 0.12148 0.0
H192 H 0.20368 0.08267 0.18982 0.0
H193 H 0.20055 0.02688 0.15192 0.0
H194 H 0.26062 0.06919 0.0444 0.0
H195 H 0.26323 0.12518 0.08297 0.0
C196 C 0.19132 0.98957 0.00475 0.0
C197 C 0.18569 0.95811 0.02681 0.0
C198 C 0.20949 0.01636 0.02529 0.0
C199 C 0.22199 0.01223 0.06855 0.0
C200 C 0.21995 0.97925 0.08837 0.0
C201 C 0.20198 0.95228 0.06752 0.0
C202 C 0.21693 0.07948 0.15865 0.0
C203 C 0.2337 0.10771 0.13907 0.0
C204 C 0.21545 0.04759 0.13704 0.0
C205 C 0.2305 0.04348 0.09514 0.0
C206 C 0.24879 0.07152 0.0766 0.0
C207 C 0.2504 0.1034 0.09851 0.0
H208 H 0.50807 0.69757 0.52505 0.0
H209 H 0.46161 0.59989 0.56091 0.0
H210 H 0.45415 0.72756 0.54429 0.0
H211 H 0.40753 0.62942 0.57833 0.0
H212 H 0.3153 0.68582 0.61635 0.0
H213 H 0.35641 0.67329 0.55693 0.0
H214 H 0.43683 0.72579 0.63001 0.0
H215 H 0.3963 0.73647 0.68995 0.0
C216 C 0.48574 0.68242 0.53489 0.0
C217 C 0.4888 0.64661 0.54202 0.0
C218 C 0.455 0.69952 0.54584 0.0
C219 C 0.42686 0.6808 0.56302 0.0
C220 C 0.42872 0.64445 0.56484 0.0
C221 C 0.45967 0.62754 0.5551 0.0
C222 C 0.34148 0.69573 0.61873 0.0
C223 C 0.35301 0.71139 0.65793 0.0
C224 C 0.36487 0.68871 0.58477 0.0
C225 C 0.39977 0.69837 0.58911 0.0
C226 C 0.40998 0.71834 0.62563 0.0
C227 C 0.3868 0.72456 0.65997 0.0
H228 H 0.88891 -0.00138 0.0577 0.0
H229 H 0.80769 0.04657 0.13381 0.0
H230 H 0.87866 0.94375 0.09607 0.0
H231 H 0.79742 0.99175 0.17209 0.0
H232 H 0.77709 0.87555 0.20758 0.0
H233 H 0.77983 0.92689 0.15959 0.0
H234 H 0.89047 0.93211 0.17996 0.0
H235 H 0.88726 0.88177 0.22906 0.0
C236 C 0.86813 0.99709 0.08153 0.0
C237 C 0.84905 0.02667 0.09289 0.0
C238 C 0.86254 0.96589 0.10377 0.0
C239 C 0.83753 0.96384 0.13723 0.0
C240 C 0.81678 0.99275 0.1463 0.0
C241 C 0.82269 0.02403 0.12454 0.0
C242 C 0.80174 0.88825 0.20223 0.0
C243 C 0.83198 0.87507 0.22165 0.0
C244 C 0.8034 0.91718 0.1746 0.0
C245 C 0.83543 0.9329 0.16564 0.0
C246 C 0.86557 0.91996 0.18572 0.0
C247 C 0.86377 0.8915 0.21393 0.0
H248 H 0.49397 0.38228 0.54619 0.0
H249 H 0.44675 0.29268 0.60641 0.0
H250 H 0.55133 0.36004 0.56525 0.0
H251 H 0.50395 0.27009 0.6253 0.0
H252 H 0.60405 0.27616 0.70989 0.0
H253 H 0.54718 0.28724 0.67822 0.0
H254 H 0.59501 0.31508 0.55434 0.0
H255 H 0.65225 0.30397 0.58692 0.0
C256 C 0.49602 0.35741 0.56258 0.0
C257 C 0.46617 0.33902 0.57462 0.0
C258 C 0.5288 0.34461 0.57345 0.0
C259 C 0.53221 0.31329 0.59689 0.0
C260 C 0.50219 0.29449 0.60774 0.0
C261 C 0.46949 0.30736 0.59697 0.0
C262 C 0.60221 0.28334 0.67545 0.0
C263 C 0.63224 0.28868 0.6505 0.0
C264 C 0.56969 0.28988 0.65726 0.0
C265 C 0.56654 0.30207 0.61371 0.0
C266 C 0.59663 0.30601 0.5881 0.0
C267 C 0.62924 0.29937 0.60642 0.0
H268 H 0.58396 0.49117 0.46684 0.0
H269 H 0.67926 0.52918 0.4108 0.0
H270 H 0.59886 0.4321 0.44285 0.0
H271 H 0.69428 0.47085 0.38712 0.0
H272 H 0.72173 0.35789 0.37045 0.0
H273 H 0.70891 0.41117 0.41151 0.0
H274 H 0.60284 0.40665 0.36611 0.0
H275 H 0.61606 0.35373 0.32508 0.0
C276 C 0.6084 0.48663 0.45037 0.0
C277 C 0.63057 0.51436 0.44055 0.0
C278 C 0.61685 0.45306 0.43644 0.0
C279 C 0.64769 0.44694 0.41296 0.0
C280 C 0.67057 0.47461 0.40552 0.0
C281 C 0.66194 0.508 0.41887 0.0
C282 C 0.69581 0.36856 0.36941 0.0
C283 C 0.66987 0.35213 0.34476 0.0
C284 C 0.68837 0.39874 0.39298 0.0
C285 C 0.65479 0.41289 0.3923 0.0
C286 C 0.62876 0.39602 0.36798 0.0
C287 C 0.63631 0.36603 0.34423 0.0
H288 H 0.95405 0.20415 0.90204 0.0
H289 H 0.01048 0.11527 0.94952 0.0
H290 H 0.00562 0.22477 0.86369 0.0
H291 H 0.06181 0.13469 0.90961 0.0
H292 H 0.07489 0.20608 0.74074 0.0
H293 H 0.03058 0.20403 0.79777 0.0
H294 H 0.10812 0.17361 0.89349 0.0
H295 H 0.15208 0.17505 0.83537 0.0
C296 C 0.97793 0.18961 0.90518 0.0
C297 C 0.97861 0.15832 0.92869 0.0
C298 C 0.00733 0.20114 0.88288 0.0
C299 C 0.0377 0.18106 0.8827 0.0
C300 C 0.03903 0.15103 0.90922 0.0
C301 C 0.00967 0.1398 0.93212 0.0
C302 C 0.08242 0.20014 0.77433 0.0
C303 C 0.11656 0.19073 0.784 0.0
C304 C 0.05716 0.19894 0.80714 0.0
C305 C 0.06569 0.18844 0.85038 0.0
C306 C 0.10053 0.1813 0.8605 0.0
C307 C 0.12571 0.18235 0.8275 0.0
H308 H 0.31096 0.49209 0.48183 0.0
H309 H 0.40803 0.52671 0.42688 0.0
H310 H 0.28447 0.54801 0.46194 0.0
H311 H 0.38204 0.58217 0.40782 0.0
H312 H 0.26491 0.6702 0.43606 0.0
H313 H 0.28672 0.61621 0.46994 0.0
H314 H 0.33734 0.5905 0.34742 0.0
H315 H 0.31558 0.64413 0.31443 0.0
C316 C 0.32686 0.51204 0.46692 0.0
C317 C 0.36132 0.505 0.45514 0.0
C318 C 0.31172 0.54391 0.4554 0.0
C319 C 0.33097 0.5689 0.43209 0.0
C320 C 0.36632 0.56296 0.42456 0.0
C321 C 0.38127 0.53133 0.43578 0.0
C322 C 0.27988 0.65226 0.41641 0.0
C323 C 0.28847 0.66068 0.37275 0.0
C324 C 0.2925 0.62168 0.4357 0.0
C325 C 0.31419 0.59952 0.41152 0.0
C326 C 0.3212 0.6074 0.36711 0.0
C327 C 0.30846 0.63767 0.34797 0.0
H328 H 0.04062 0.76242 0.91377 0.0
H329 H 0.99426 0.85225 0.97335 0.0
H330 H 0.98268 0.73959 0.8973 0.0
H331 H 0.93712 0.82907 0.95972 0.0
H332 H 0.83553 0.78207 0.93344 0.0
H333 H 0.89258 0.782 0.96923 0.0
H334 H 0.94084 0.76605 0.84251 0.0
H335 H 0.88401 0.76688 0.80721 0.0
C336 C 0.0181 0.77637 0.9254 0.0
C337 C 0.0219 0.80841 0.94675 0.0
C338 C 0.98506 0.76342 0.9159 0.0
C339 C 0.95541 0.78239 0.92764 0.0
C340 C 0.95937 0.81329 0.95147 0.0
C341 C 0.99226 0.82638 0.96022 0.0
C342 C 0.85844 0.77779 0.91369 0.0
C343 C 0.85569 0.77459 0.86779 0.0
C344 C 0.89092 0.7776 0.93402 0.0
C345 C 0.9211 0.77399 0.90864 0.0
C346 C 0.91804 0.76824 0.86304 0.0
C347 C 0.88558 0.76875 0.84276 0.0
H348 H 0.82759 0.00605 0.98633 0.0
H349 H 0.92849 0.98662 0.93117 0.0
H350 H 0.80888 0.94804 0.9646 0.0
H351 H 0.91088 0.92795 0.91184 0.0
H352 H 0.85425 0.85435 0.81938 0.0
H353 H 0.87645 0.90639 0.85519 0.0
H354 H 0.80953 0.88687 0.96685 0.0
H355 H 0.7864 0.83549 0.92899 0.0
C356 C 0.84614 0.9888 0.97107 0.0
C357 C 0.8793 0.00078 0.95992 0.0
C358 C 0.83548 0.9555 0.95856 0.0
C359 C 0.85803 0.93347 0.93523 0.0
C360 C 0.89234 0.94455 0.92819 0.0
C361 C 0.90266 0.978 0.93978 0.0
C362 C 0.84445 0.8615 0.85153 0.0
C363 C 0.81868 0.84152 0.87154 0.0
C364 C 0.85738 0.89096 0.87248 0.0
C365 C 0.84513 0.90086 0.91438 0.0
C366 C 0.81939 0.88035 0.93453 0.0
C367 C 0.80617 0.85099 0.91312 0.0
H368 H 0.52335 0.40186 0.44836 0.0
H369 H 0.46384 0.30784 0.46236 0.0
H370 H 0.57501 0.36771 0.43206 0.0
H371 H 0.51539 0.27354 0.44367 0.0
H372 H 0.66546 0.30027 0.41418 0.0
H373 H 0.6165 0.3136 0.46255 0.0
H374 H 0.54571 0.28277 0.35957 0.0
H375 H 0.59469 0.27109 0.31074 0.0
C376 C 0.52167 0.37384 0.44916 0.0
C377 C 0.48983 0.35736 0.45643 0.0
C378 C 0.55116 0.35431 0.44 0.0
C379 C 0.54899 0.31808 0.4365 0.0
C380 C 0.51762 0.30143 0.44648 0.0
C381 C 0.48829 0.32099 0.45714 0.0
C382 C 0.63941 0.29497 0.40274 0.0
C383 C 0.63362 0.28522 0.35871 0.0
C384 C 0.61151 0.30258 0.43031 0.0
C385 C 0.57749 0.29938 0.41456 0.0
C386 C 0.57177 0.28511 0.37255 0.0
C387 C 0.59972 0.27825 0.34465 0.0
H388 H 0.08246 0.95178 0.8174 0.0
H389 H 0.12135 0.99591 0.9386 0.0
H390 H 0.09378 0.00624 0.77921 0.0
H391 H 0.13339 0.05043 0.89988 0.0
H392 H 0.19488 0.11631 0.79378 0.0
H393 H 0.1776 0.0651 0.83705 0.0
H394 H 0.07527 0.07026 0.77957 0.0
H395 H 0.09281 0.12153 0.73699 0.0
C396 C 0.09295 0.97331 0.83605 0.0
C397 C 0.10131 0.96948 0.88094 0.0
C398 C 0.09941 0.00448 0.81415 0.0
C399 C 0.11485 0.03234 0.83648 0.0
C400 C 0.12186 0.02913 0.88182 0.0
C401 C 0.11475 -0.00194 0.904 0.0
C402 C 0.16891 0.10604 0.79036 0.0
C403 C 0.14519 0.1221 0.76197 0.0
C404 C 0.15885 0.07723 0.81535 0.0
C405 C 0.12504 0.06389 0.81175 0.0
C406 C 0.10149 0.07994 0.78284 0.0
C407 C 0.11145 0.10898 0.75841 0.0
H408 H 0.48481 0.61687 0.45749 0.0
H409 H 0.52969 0.69777 0.37765 0.0
H410 H 0.42682 0.63921 0.44149 0.0
H411 H 0.47181 0.71992 0.36089 0.0
H412 H 0.36168 0.71662 0.29885 0.0
H413 H 0.42067 0.69993 0.31899 0.0
H414 H 0.38951 0.69095 0.45532 0.0
H415 H 0.33045 0.70816 0.43465 0.0
C416 C 0.48218 0.6398 0.43714 0.0
C417 C 0.51155 0.65614 0.41962 0.0
C418 C 0.44909 0.65253 0.42786 0.0
C419 C 0.44482 0.6815 0.40022 0.0
C420 C 0.4743 0.69748 0.38216 0.0
C421 C 0.50736 0.68484 0.39169 0.0
C422 C 0.36786 0.71209 0.33322 0.0
C423 C 0.34196 0.71416 0.36541 0.0
C424 C 0.40146 0.70235 0.34477 0.0
C425 C 0.40969 0.69412 0.38873 0.0
C426 C 0.38384 0.69685 0.42112 0.0
C427 C 0.35025 0.70689 0.4095 0.0
H428 H 0.38678 0.50686 0.54461 0.0
H429 H 0.30919 0.46445 0.63154 0.0
H430 H 0.37727 0.56453 0.57645 0.0
H431 H 0.30025 0.52133 0.6639 0.0
H432 H 0.27198 0.63392 0.68884 0.0
H433 H 0.27807 0.5794 0.64819 0.0
H434 H 0.38932 0.59177 0.64966 0.0
H435 H 0.38278 0.64626 0.69031 0.0
C436 C 0.36717 0.51004 0.56973 0.0
C437 C 0.34845 0.48134 0.5853 0.0
C438 C 0.36207 0.54287 0.58841 0.0
C439 C 0.33805 0.54746 0.62281 0.0
C440 C 0.31864 0.51883 0.63718 0.0
C441 C 0.32389 0.48619 0.61879 0.0
C442 C 0.29761 0.6246 0.68068 0.0
C443 C 0.3269 0.64389 0.6926 0.0
C444 C 0.30118 0.59363 0.65732 0.0
C445 C 0.33419 0.58137 0.64546 0.0
C446 C 0.36354 0.60079 0.65761 0.0
C447 C 0.3599 0.63168 0.6812 0.0
H448 H 0.97122 0.91695 0.05547 0.0
H449 H 0.02877 0.82121 0.06388 0.0
H450 H 0.92422 0.89062 0.09807 0.0
H451 H 0.98202 0.7952 0.10694 0.0
H452 H 0.83575 0.82572 0.15043 0.0
H453 H 0.87941 0.839 0.09425 0.0
H454 H 0.96024 0.81156 0.18642 0.0
H455 H 0.91644 0.79963 0.24289 0.0
C456 C 0.97364 0.89022 0.06595 0.0
C457 C 0.00372 0.87122 0.0565 0.0
C458 C 0.94669 0.87507 0.09004 0.0
C459 C 0.94958 0.84088 0.10575 0.0
C460 C 0.97921 0.8216 0.09528 0.0
C461 C 0.00588 0.83651 0.07058 0.0
C462 C 0.86285 0.82163 0.15804 0.0
C463 C 0.87295 0.81204 0.20089 0.0
C464 C 0.88775 0.82941 0.12614 0.0
C465 C 0.92314 0.82672 0.13625 0.0
C466 C 0.9331 0.81377 0.17776 0.0
C467 C 0.90815 0.80666 0.20994 0.0
H468 H 0.60391 0.522 0.6515 0.0
H469 H 0.65093 0.50539 0.52437 0.0
H470 H 0.62331 0.46589 0.6757 0.0
H471 H 0.66764 0.44687 0.54716 0.0
H472 H 0.72183 0.35659 0.62076 0.0
H473 H 0.70544 0.41419 0.59314 0.0
H474 H 0.61043 0.40806 0.66824 0.0
H475 H 0.62864 0.35254 0.69815 0.0
C476 C 0.61786 0.50604 0.62817 0.0
C477 C 0.62498 0.51795 0.58531 0.0
C478 C 0.62867 0.47345 0.64201 0.0
C479 C 0.64638 0.45126 0.61319 0.0
C480 C 0.65397 0.46318 0.57031 0.0
C481 C 0.64368 0.49641 0.55673 0.0
C482 C 0.69781 0.3682 0.63163 0.0
C483 C 0.67648 0.35061 0.66157 0.0
C484 C 0.6881 0.4008 0.61541 0.0
C485 C 0.65664 0.41604 0.62856 0.0
C486 C 0.63522 0.39777 0.6581 0.0
C487 C 0.64535 0.36577 0.67495 0.0
H488 H -0.00302 0.07751 0.1137 0.0
H489 H 0.00639 0.16293 0.02252 0.0
H490 H 0.05808 0.08262 0.13238 0.0
H491 H 0.06808 0.16824 0.04135 0.0
H492 H 0.18507 0.15345 0.07405 0.0
H493 H 0.12769 0.13953 0.04288 0.0
H494 H 0.08723 0.12846 0.17493 0.0
H495 H 0.14432 0.14204 0.20522 0.0
C496 C 0.01236 0.09708 0.09713 0.0
C497 C -0.00295 0.11991 0.06675 0.0
C498 C 0.04731 0.10004 0.1079 0.0
C499 C 0.06773 0.12615 0.08886 0.0
C500 C 0.05298 0.14773 0.05637 0.0
C501 C 0.01778 0.14466 0.04545 0.0
C502 C 0.16375 0.14762 0.09598 0.0
C503 C 0.16856 0.14889 0.14179 0.0
C504 C 0.13106 0.13991 0.07834 0.0
C505 C 0.103 0.13287 0.10646 0.0
C506 C 0.10839 0.13333 0.15236 0.0
C507 C 0.14084 0.14128 0.1698 0.0
H508 H 0.1176 0.85867 0.16016 0.0
H509 H 0.19405 0.82806 0.06398 0.0
H510 H 0.14802 0.82619 0.21665 0.0
H511 H 0.22505 0.79556 0.12137 0.0
H512 H 0.23156 0.79861 0.31709 0.0
H513 H 0.20179 0.83012 0.258 0.0
H514 H 0.21873 0.74383 0.16998 0.0
H515 H 0.24914 0.71287 0.22945 0.0
C516 C 0.14107 0.84514 0.15103 0.0
C517 C 0.15349 0.84617 0.10749 0.0
C518 C 0.15861 0.82659 0.18362 0.0
C519 C 0.18911 0.80848 0.17369 0.0
C520 C 0.20147 0.80909 0.13001 0.0
C521 C 0.18385 0.82784 0.09721 0.0
C522 C 0.22867 0.78655 0.28507 0.0
C523 C 0.24225 0.75348 0.27756 0.0
C524 C 0.21162 0.80439 0.2513 0.0
C525 C 0.20784 0.78946 0.20921 0.0
C526 C 0.22149 0.75618 0.20183 0.0
C527 C 0.23847 0.73831 0.23581 0.0
H528 H 0.61486 0.72965 0.6176 0.0
H529 H 0.70118 0.66706 0.57589 0.0
H530 H 0.65321 0.76384 0.66421 0.0
H531 H 0.73956 0.6998 0.62463 0.0
H532 H 0.80367 0.7687 0.71382 0.0
H533 H 0.76894 0.74985 0.65041 0.0
H534 H 0.67757 0.75016 0.7328 0.0
H535 H 0.71244 0.77006 0.79494 0.0
C536 C 0.64231 0.72379 0.61776 0.0
C537 C 0.65514 0.69562 0.59369 0.0
C538 C 0.66423 0.74303 0.6449 0.0
C539 C 0.69929 0.73385 0.6495 0.0
C540 C 0.71272 0.70764 0.62208 0.0
C541 C 0.6908 0.68884 0.59405 0.0
C542 C 0.77607 0.7649 0.71778 0.0
C543 C 0.76045 0.77062 0.75883 0.0
C544 C 0.75619 0.75409 0.68169 0.0
C545 C 0.72035 0.74856 0.68623 0.0
C546 C 0.70488 0.75493 0.72751 0.0
C547 C 0.72473 0.76605 0.76331 0.0
H548 H 0.85767 0.24252 0.08347 0.0
H549 H 0.7833 0.16128 0.05976 0.0
H550 H 0.81554 0.27334 0.12836 0.0
H551 H 0.7415 0.19098 0.10672 0.0
H552 H 0.67061 0.25797 0.19367 0.0
H553 H 0.70421 0.23748 0.13006 0.0
H554 H 0.79888 0.2595 0.20126 0.0
H555 H 0.76514 0.28043 0.26348 0.0
C556 C 0.83177 0.23196 0.08656 0.0
C557 C 0.8237 0.19957 0.06834 0.0
C558 C 0.8078 0.24922 0.11298 0.0
C559 C 0.77556 0.23398 0.12268 0.0
C560 C 0.7661 0.20345 0.10025 0.0
C561 C 0.78996 0.18649 0.073 0.0
C562 C 0.69862 0.25815 0.19534 0.0
C563 C 0.7155 0.27069 0.23313 0.0
C564 C 0.71787 0.2466 0.15903 0.0
C565 C 0.75434 0.24738 0.16003 0.0
C566 C 0.77092 0.2595 0.19848 0.0
C567 C 0.75173 0.27112 0.23442 0.0
H568 H 0.32341 0.27073 0.50632 0.0
H569 H 0.24909 0.35089 0.53388 0.0
H570 H 0.28277 0.22703 0.53343 0.0
H571 H 0.20871 0.30782 0.56178 0.0
H572 H 0.14228 0.2262 0.62092 0.0
H573 H 0.17231 0.25696 0.56138 0.0
H574 H 0.27014 0.21852 0.61078 0.0
H575 H 0.23984 0.18794 0.66964 0.0
C576 C 0.29758 0.27872 0.51576 0.0
C577 C 0.28916 0.31403 0.51775 0.0
C578 C 0.27452 0.25383 0.53209 0.0
C579 C 0.24284 0.26399 0.55098 0.0
C580 C 0.23277 0.29892 0.54748 0.0
C581 C 0.25582 0.32372 0.53113 0.0
C582 C 0.17016 0.22418 0.61844 0.0
C583 C 0.18892 0.20514 0.6499 0.0
C584 C 0.18735 0.2416 0.58438 0.0
C585 C 0.22368 0.24029 0.58118 0.0
C586 C 0.24213 0.21965 0.61154 0.0
C587 C 0.22491 0.20229 0.64551 0.0
H588 H 0.66522 0.72763 0.48051 0.0
H589 H 0.72963 0.64187 0.44164 0.0
H590 H 0.7086 0.76822 0.45181 0.0
H591 H 0.77308 0.68204 0.41358 0.0
H592 H 0.84582 0.76567 0.36263 0.0
H593 H 0.81456 0.73382 0.42059 0.0
H594 H 0.71758 0.77167 0.36823 0.0
H595 H 0.74862 0.80194 0.30994 0.0
C596 C 0.68952 0.7176 0.46811 0.0
C597 C 0.69428 0.68184 0.46304 0.0
C598 C 0.71416 0.74072 0.45131 0.0
C599 C 0.74388 0.7282 0.42978 0.0
C600 C 0.75053 0.69245 0.43009 0.0
C601 C 0.72572 0.66943 0.44624 0.0
C602 C 0.81785 0.76704 0.3638 0.0
C603 C 0.79953 0.78617 0.33198 0.0
C604 C 0.80004 0.74923 0.39709 0.0
C605 C 0.7637 0.75083 0.39941 0.0
C606 C 0.74562 0.77074 0.36813 0.0
C607 C 0.76332 0.78794 0.33461 0.0
H608 H 0.77348 0.11924 0.89913 0.0
H609 H 0.82533 0.20999 0.94989 0.0
H610 H 0.73962 0.15546 0.84942 0.0
H611 H 0.79142 0.24651 0.8994 0.0
H612 H 0.70566 0.29716 0.80601 0.0
H613 H 0.73014 0.26638 0.87012 0.0
H614 H 0.76726 0.18596 0.78339 0.0
H615 H 0.74349 0.21714 0.71991 0.0
C616 C 0.77672 0.14712 0.90071 0.0
C617 C 0.80232 0.16184 0.92778 0.0
C618 C 0.75759 0.16779 0.87199 0.0
C619 C 0.76373 0.20358 0.86968 0.0
C620 C 0.78641 0.2189 0.90037 0.0
C621 C 0.80562 0.19807 0.92943 0.0
C622 C 0.71951 0.27312 0.801 0.0
C623 C 0.72269 0.25917 0.75843 0.0
C624 C 0.7333 0.25552 0.83747 0.0
C625 C 0.74996 0.22352 0.83174 0.0
C626 C 0.7538 0.21019 0.78887 0.0
C627 C 0.74041 0.22794 0.7526 0.0
H628 H 0.30311 0.30876 0.42947 0.0
H629 H 0.35468 0.35451 0.31738 0.0
H630 H 0.27504 0.26684 0.38053 0.0
H631 H 0.32793 0.31258 0.2693 0.0
H632 H 0.26377 0.17447 0.28276 0.0
H633 H 0.28859 0.21662 0.33466 0.0
H634 H 0.27405 0.29765 0.23767 0.0
H635 H 0.251 0.25506 0.18587 0.0
C636 C 0.30837 0.31002 0.39462 0.0
C637 C 0.33113 0.3351 0.37767 0.0
C638 C 0.29253 0.28583 0.36653 0.0
C639 C 0.29917 0.28634 0.32087 0.0
C640 C 0.32164 0.3117 0.30407 0.0
C641 C 0.33721 0.33575 0.33193 0.0
C642 C 0.26635 0.20131 0.27282 0.0
C643 C 0.25565 0.21182 0.23066 0.0
C644 C 0.28005 0.22549 0.30254 0.0
C645 C 0.28328 0.26058 0.29042 0.0
C646 C 0.27242 0.27082 0.248 0.0
C647 C 0.25904 0.24663 0.21839 0.0
H648 H 0.23338 0.87485 0.92462 0.0
H649 H 0.18819 0.78415 0.98417 0.0
H650 H 0.27612 0.83881 0.88768 0.0
H651 H 0.23095 0.74776 0.94726 0.0
H652 H 0.34584 0.76206 0.81703 0.0
H653 H 0.32283 0.79319 0.88123 0.0
H654 H 0.22528 0.73973 0.86532 0.0
H655 H 0.24794 0.70988 0.80082 0.0
C656 C 0.23418 0.84741 0.93228 0.0
C657 C 0.20756 0.83222 0.95715 0.0
C658 C 0.25845 0.82663 0.91067 0.0
C659 C 0.25621 0.79034 0.91351 0.0
C660 C 0.23286 0.77564 0.94382 0.0
C661 C 0.20877 0.79651 0.96566 0.0
C662 C 0.31951 0.75712 0.82747 0.0
C663 C 0.29853 0.73375 0.80393 0.0
C664 C 0.30648 0.7746 0.86437 0.0
C665 C 0.27241 0.76857 0.87878 0.0
C666 C 0.25193 0.74434 0.85588 0.0
C667 C 0.26477 0.72734 0.81878 0.0
loop_
_geom_bond_atom_site_label_1
_geom_bond_atom_site_label_2
_geom_bond_distance
_geom_bond_site_symmetry_2
_ccdc_geom_bond_type
Zn0 O6 1.920 . S
Zn0 O12 1.898 . S
Zn0 O15 1.905 . S
Zn1 O9 1.905 . S
Zn1 O10 1.898 . S
Zn1 O18 1.920 . S
Zn2 O5 2.083 . S
Zn2 O8 2.111 1_554 S
Zn2 O11 2.117 1_554 S
Zn2 O13 2.123 . S
Zn2 O14 2.117 . S
Zn2 O17 2.077 1_554 S
C3 O8 1.166 . S
C3 O9 1.182 . S
C4 O10 1.167 . S
C4 O11 1.299 . S
O5 Zn2 2.083 . S
O5 C19 1.305 . S
O6 Zn0 1.920 . S
O6 C19 1.234 . S
C7 O12 1.167 . S
C7 O13 1.299 . S
O8 Zn2 2.111 1_556 S
O8 C3 1.166 . S
O9 Zn1 1.905 . S
O9 C3 1.182 . S
O10 Zn1 1.898 . S
O10 C4 1.167 . S
O11 Zn2 2.117 1_556 S
O11 C4 1.299 . S
O12 Zn0 1.898 . S
O12 C7 1.167 . S
O13 Zn2 2.123 . S
O13 C7 1.299 . S
O14 Zn2 2.117 . S
O14 C16 1.166 . S
O15 Zn0 1.905 . S
O15 C16 1.182 . S
C16 O14 1.166 . S
C16 O15 1.182 . S
O17 Zn2 2.077 1_556 S
O17 C20 1.305 . S
O18 Zn1 1.920 . S
O18 C20 1.234 . S
C19 O5 1.305 . S
C19 O6 1.234 . S
C20 O17 1.305 . S
C20 O18 1.234 . S
Zn21 O27 1.920 . S
Zn21 O33 1.898 . S
Zn21 O36 1.905 . S
Zn22 O30 1.905 . S
Zn22 O31 1.898 . S
Zn22 O39 1.920 . S
Zn23 O26 2.080 . S
Zn23 O29 2.114 . S
Zn23 O32 2.120 . S
Zn23 O34 2.120 . S
Zn23 O35 2.114 . S
Zn23 O38 2.080 . S
C24 O29 1.166 . S
C24 O30 1.182 . S
C25 O31 1.167 . S
C25 O32 1.299 . S
O26 Zn23 2.080 . S
O26 C40 1.305 . S
O27 Zn21 1.920 . S
O27 C40 1.234 . S
C28 O33 1.167 . S
C28 O34 1.299 . S
O29 Zn23 2.114 . S
O29 C24 1.166 . S
O30 Zn22 1.905 . S
O30 C24 1.182 . S
O31 Zn22 1.898 . S
O31 C25 1.167 . S
O32 Zn23 2.120 . S
O32 C25 1.299 . S
O33 Zn21 1.898 . S
O33 C28 1.167 . S
O34 Zn23 2.120 . S
O34 C28 1.299 . S
O35 Zn23 2.114 . S
O35 C37 1.166 . S
O36 Zn21 1.905 . S
O36 C37 1.182 . S
C37 O35 1.166 . S
C37 O36 1.182 . S
O38 Zn23 2.080 . S
O38 C41 1.305 . S
O39 Zn22 1.920 . S
O39 C41 1.234 . S
C40 O26 1.305 . S
C40 O27 1.234 . S
C41 O38 1.305 . S
C41 O39 1.234 . S
Zn42 O48 1.920 . S
Zn42 O54 1.898 . S
Zn42 O57 1.905 . S
Zn43 O51 1.905 . S
Zn43 O52 1.898 . S
Zn43 O60 1.920 . S
Zn44 O47 2.077 1_554 S
Zn44 O50 2.117 . S
Zn44 O53 2.123 . S
Zn44 O55 2.116 1_554 S
Zn44 O56 2.110 1_554 S
Zn44 O59 2.084 . S
C45 O50 1.166 . S
C45 O51 1.182 . S
C46 O52 1.167 . S
C46 O53 1.299 . S
O47 Zn44 2.077 1_556 S
O47 C61 1.305 . S
O48 Zn42 1.920 . S
O48 C61 1.234 . S
C49 O54 1.167 . S
C49 O55 1.299 . S
O50 Zn44 2.117 . S
O50 C45 1.166 . S
O51 Zn43 1.905 . S
O51 C45 1.182 . S
O52 Zn43 1.898 . S
O52 C46 1.167 . S
O53 Zn44 2.123 . S
O53 C46 1.299 . S
O54 Zn42 1.898 . S
O54 C49 1.167 . S
O55 Zn44 2.116 1_556 S
O55 C49 1.299 . S
O56 Zn44 2.110 1_556 S
O56 C58 1.166 . S
O57 Zn42 1.905 . S
O57 C58 1.182 . S
C58 O56 1.166 . S
C58 O57 1.182 . S
O59 Zn44 2.084 . S
O59 C62 1.305 . S
O60 Zn43 1.920 . S
O60 C62 1.234 . S
C61 O47 1.305 . S
C61 O48 1.234 . S
C62 O59 1.305 . S
C62 O60 1.234 . S
Zn63 O69 1.920 . S
Zn63 O75 1.898 . S
Zn63 O78 1.905 . S
Zn64 O72 1.905 . S
Zn64 O73 1.898 . S
Zn64 O81 1.920 . S
Zn65 O68 2.080 . S
Zn65 O71 2.114 . S
Zn65 O74 2.120 . S
Zn65 O76 2.120 . S
Zn65 O77 2.114 . S
Zn65 O80 2.080 . S
C66 O71 1.166 . S
C66 O72 1.182 . S
C67 O73 1.167 . S
C67 O74 1.299 . S
O68 Zn65 2.080 . S
O68 C82 1.305 . S
O69 Zn63 1.920 . S
O69 C82 1.234 . S
C70 O75 1.167 . S
C70 O76 1.299 . S
O71 Zn65 2.114 . S
O71 C66 1.166 . S
O72 Zn64 1.905 . S
O72 C66 1.182 . S
O73 Zn64 1.898 . S
O73 C67 1.167 . S
O74 Zn65 2.120 . S
O74 C67 1.299 . S
O75 Zn63 1.898 . S
O75 C70 1.167 . S
O76 Zn65 2.120 . S
O76 C70 1.299 . S
O77 Zn65 2.114 . S
O77 C79 1.166 . S
O78 Zn63 1.905 . S
O78 C79 1.182 . S
C79 O77 1.166 . S
C79 O78 1.182 . S
O80 Zn65 2.080 . S
O80 C83 1.305 . S
O81 Zn64 1.920 . S
O81 C83 1.234 . S
C82 O68 1.305 . S
C82 O69 1.234 . S
C83 O80 1.305 . S
C83 O81 1.234 . S
C84 N85 1.317 . S
C84 N86 1.348 . S
C84 C87 1.485 . S
N85 C84 1.317 . S
N85 N89 1.370 . S
N86 C84 1.348 . S
N86 C88 1.346 . S
C87 C84 1.485 . S
C87 H91 0.960 . S
C87 H92 0.961 . S
C87 H93 0.960 . S
C88 N86 1.346 . S
C88 N89 1.307 . S
C88 C90 1.486 . S
N89 N85 1.370 . S
N89 C88 1.307 . S
C90 C88 1.486 . S
C90 H94 0.960 . S
C90 H95 0.960 . S
C90 H96 0.959 . S
H91 C87 0.960 . S
H92 C87 0.961 . S
H93 C87 0.960 . S
H94 C90 0.960 . S
H95 C90 0.960 . S
H96 C90 0.959 . S
C97 N98 1.317 . S
C97 N99 1.348 . S
C97 C100 1.485 . S
N98 C97 1.317 . S
N98 N102 1.370 . S
N99 C97 1.348 . S
N99 C101 1.346 . S
C100 C97 1.485 . S
C100 H104 0.960 . S
C100 H105 0.961 . S
C100 H106 0.960 . S
C101 N99 1.346 . S
C101 N102 1.307 . S
C101 C103 1.486 . S
N102 N98 1.370 . S
N102 C101 1.307 . S
C103 C101 1.486 . S
C103 H107 0.960 . S
C103 H108 0.960 . S
C103 H109 0.959 . S
H104 C100 0.960 . S
H105 C100 0.961 . S
H106 C100 0.960 . S
H107 C103 0.960 . S
H108 C103 0.960 . S
H109 C103 0.959 . S
C110 N111 1.317 . S
C110 N112 1.348 . S
C110 C113 1.485 . S
N111 C110 1.317 . S
N111 N115 1.370 . S
N112 C110 1.348 . S
N112 C114 1.346 . S
C113 C110 1.485 . S
C113 H117 0.960 . S
C113 H118 0.961 . S
C113 H119 0.960 . S
C114 N112 1.346 . S
C114 N115 1.307 . S
C114 C116 1.486 . S
N115 N111 1.370 . S
N115 C114 1.307 . S
C116 C114 1.486 . S
C116 H120 0.960 . S
C116 H121 0.960 . S
C116 H122 0.959 . S
H117 C113 0.960 . S
H118 C113 0.961 . S
H119 C113 0.960 . S
H120 C116 0.960 . S
H121 C116 0.960 . S
H122 C116 0.959 . S
C123 N124 1.317 . S
C123 N125 1.348 . S
C123 C126 1.485 . S
N124 C123 1.317 . S
N124 N128 1.370 . S
N125 C123 1.348 . S
N125 C127 1.346 . S
C126 C123 1.485 . S
C126 H130 0.960 . S
C126 H131 0.961 . S
C126 H132 0.960 . S
C127 N125 1.346 . S
C127 N128 1.307 . S
C127 C129 1.486 . S
N128 N124 1.370 . S
N128 C127 1.307 . S
C129 C127 1.486 . S
C129 H133 0.960 . S
C129 H134 0.960 . S
C129 H135 0.959 . S
H130 C126 0.960 . S
H131 C126 0.961 . S
H132 C126 0.960 . S
H133 C129 0.960 . S
H134 C129 0.960 . S
H135 C129 0.959 . S
C136 N137 1.317 . S
C136 N138 1.348 . S
C136 C139 1.485 . S
N137 C136 1.317 . S
N137 N141 1.370 . S
N138 C136 1.348 . S
N138 C140 1.346 . S
C139 C136 1.485 . S
C139 H143 0.960 . S
C139 H144 0.961 . S
C139 H145 0.960 . S
C140 N138 1.346 . S
C140 N141 1.307 . S
C140 C142 1.486 . S
N141 N137 1.370 . S
N141 C140 1.307 . S
C142 C140 1.486 . S
C142 H146 0.960 . S
C142 H147 0.960 . S
C142 H148 0.959 . S
H143 C139 0.960 . S
H144 C139 0.961 . S
H145 C139 0.960 . S
H146 C142 0.960 . S
H147 C142 0.960 . S
H148 C142 0.959 . S
C149 N150 1.317 . S
C149 N151 1.348 . S
C149 C152 1.485 . S
N150 C149 1.317 . S
N150 N154 1.370 . S
N151 C149 1.348 . S
N151 C153 1.346 . S
C152 C149 1.485 . S
C152 H156 0.960 . S
C152 H157 0.961 . S
C152 H158 0.960 . S
C153 N151 1.346 . S
C153 N154 1.307 . S
C153 C155 1.486 . S
N154 N150 1.370 . S
N154 C153 1.307 . S
C155 C153 1.486 . S
C155 H159 0.960 . S
C155 H160 0.960 . S
C155 H161 0.959 . S
H156 C152 0.960 . S
H157 C152 0.961 . S
H158 C152 0.960 . S
H159 C155 0.960 . S
H160 C155 0.960 . S
H161 C155 0.959 . S
C162 N163 1.317 . S
C162 N164 1.348 . S
C162 C165 1.485 . S
N163 C162 1.317 . S
N163 N167 1.370 . S
N164 C162 1.348 . S
N164 C166 1.346 . S
C165 C162 1.485 . S
C165 H169 0.960 . S
C165 H170 0.961 . S
C165 H171 0.960 . S
C166 N164 1.346 . S
C166 N167 1.307 . S
C166 C168 1.486 . S
N167 N163 1.370 . S
N167 C166 1.307 . S
C168 C166 1.486 . S
C168 H172 0.960 . S
C168 H173 0.960 . S
C168 H174 0.959 . S
H169 C165 0.960 . S
H170 C165 0.961 . S
H171 C165 0.960 . S
H172 C168 0.960 . S
H173 C168 0.960 . S
H174 C168 0.959 . S
C175 N176 1.317 . S
C175 N177 1.348 . S
C175 C178 1.485 . S
N176 C175 1.317 . S
N176 N180 1.370 . S
N177 C175 1.348 . S
N177 C179 1.346 . S
C178 C175 1.485 . S
C178 H182 0.960 . S
C178 H183 0.961 . S
C178 H184 0.960 . S
C179 N177 1.346 . S
C179 N180 1.307 . S
C179 C181 1.486 . S
N180 N176 1.370 . S
N180 C179 1.307 . S
C181 C179 1.486 . S
C181 H185 0.960 . S
C181 H186 0.960 . S
C181 H187 0.959 . S
H182 C178 0.960 . S
H183 C178 0.961 . S
H184 C178 0.960 . S
H185 C181 0.960 . S
H186 C181 0.960 . S
H187 C181 0.959 . S
H188 C196 0.950 . S
H189 C201 0.950 . S
H190 C198 0.927 1_545 S
H191 C200 0.950 . S
H192 C202 0.950 . S
H193 C204 0.950 . S
H194 C206 0.950 . S
H195 C207 0.950 . S
C196 H188 0.950 . S
C196 C197 1.386 . S
C196 C198 1.415 . S
C197 C196 1.386 . S
C197 C201 1.393 . S
C198 H190 0.927 1_565 S
C198 C196 1.415 . S
C198 C199 1.400 1_565 S
C199 C198 1.400 1_545 S
C199 C200 1.394 1_545 S
C199 C205 1.495 . S
C200 H191 0.950 . S
C200 C199 1.394 1_565 S
C200 C201 1.391 . S
C201 H189 0.950 . S
C201 C197 1.393 . S
C201 C200 1.391 . S
C202 H192 0.950 . S
C202 C203 1.386 . S
C202 C204 1.391 . S
C203 C202 1.386 . S
C203 C207 1.393 . S
C204 H193 0.950 . S
C204 C202 1.391 . S
C204 C205 1.400 . S
C205 C199 1.495 . S
C205 C204 1.400 . S
C205 C206 1.398 . S
C206 H194 0.950 . S
C206 C205 1.398 . S
C206 C207 1.391 . S
C207 H195 0.950 . S
C207 C203 1.393 . S
C207 C206 1.391 . S
H208 C216 0.950 . S
H209 C221 0.950 . S
H210 C218 0.950 . S
H211 C220 0.950 . S
H212 C222 0.950 . S
H213 C224 0.950 . S
H214 C226 0.950 . S
H215 C227 0.950 . S
C216 H208 0.950 . S
C216 C217 1.386 . S
C216 C218 1.391 . S
C217 C216 1.386 . S
C217 C221 1.393 . S
C218 H210 0.950 . S
C218 C216 1.391 . S
C218 C219 1.400 . S
C219 C218 1.400 . S
C219 C220 1.398 . S
C219 C225 1.491 . S
C220 H211 0.950 . S
C220 C219 1.398 . S
C220 C221 1.391 . S
C221 H209 0.950 . S
C221 C217 1.393 . S
C221 C220 1.391 . S
C222 H212 0.950 . S
C222 C223 1.386 . S
C222 C224 1.391 . S
C223 C222 1.386 . S
C223 C227 1.393 . S
C224 H213 0.950 . S
C224 C222 1.391 . S
C224 C225 1.400 . S
C225 C219 1.491 . S
C225 C224 1.400 . S
C225 C226 1.398 . S
C226 H214 0.950 . S
C226 C225 1.398 . S
C226 C227 1.391 . S
C227 H215 0.950 . S
C227 C223 1.393 . S
C227 C226 1.391 . S
H228 C236 0.950 . S
H229 C241 0.950 . S
H230 C238 0.950 . S
H231 C240 0.950 . S
H232 C242 0.950 . S
H233 C244 0.950 . S
H234 C246 0.950 . S
H235 C247 0.950 . S
C236 H228 0.950 . S
C236 C237 1.386 . S
C236 C238 1.391 . S
C237 C236 1.386 . S
C237 C241 1.393 . S
C238 H230 0.950 . S
C238 C236 1.391 . S
C238 C239 1.391 1_545 S
C239 C238 1.391 1_565 S
C239 C240 1.392 1_565 S
C239 C245 1.506 . S
C240 H231 0.950 . S
C240 C239 1.392 1_545 S
C240 C241 1.391 . S
C241 H229 0.950 . S
C241 C237 1.393 . S
C241 C240 1.391 . S
C242 H232 0.950 . S
C242 C243 1.386 . S
C242 C244 1.391 . S
C243 C242 1.386 . S
C243 C247 1.393 . S
C244 H233 0.950 . S
C244 C242 1.391 . S
C244 C245 1.400 . S
C245 C239 1.506 . S
C245 C244 1.400 . S
C245 C246 1.398 . S
C246 H234 0.950 . S
C246 C245 1.398 . S
C246 C247 1.391 . S
C247 H235 0.950 . S
C247 C243 1.393 . S
C247 C246 1.391 . S
H248 C256 0.950 . S
H249 C261 0.950 . S
H250 C258 0.950 . S
H251 C260 0.950 . S
H252 C262 0.950 . S
H253 C264 0.950 . S
H254 C266 0.950 . S
H255 C267 0.950 . S
C256 H248 0.950 . S
C256 C257 1.386 . S
C256 C258 1.391 . S
C257 C256 1.386 . S
C257 C261 1.393 . S
C258 H250 0.950 . S
C258 C256 1.391 . S
C258 C259 1.400 . S
C259 C258 1.400 . S
C259 C260 1.398 . S
C259 C265 1.491 . S
C260 H251 0.950 . S
C260 C259 1.398 . S
C260 C261 1.391 . S
C261 H249 0.950 . S
C261 C257 1.393 . S
C261 C260 1.391 . S
C262 H252 0.950 . S
C262 C263 1.386 . S
C262 C264 1.391 . S
C263 C262 1.386 . S
C263 C267 1.393 . S
C264 H253 0.950 . S
C264 C262 1.391 . S
C264 C265 1.400 . S
C265 C259 1.491 . S
C265 C264 1.400 . S
C265 C266 1.398 . S
C266 H254 0.950 . S
C266 C265 1.398 . S
C266 C267 1.391 . S
C267 H255 0.950 . S
C267 C263 1.393 . S
C267 C266 1.391 . S
H268 C276 0.950 . S
H269 C281 0.950 . S
H270 C278 0.950 . S
H271 C280 0.950 . S
H272 C282 0.950 . S
H273 C284 0.950 . S
H274 C286 0.950 . S
H275 C287 0.950 . S
C276 H268 0.950 . S
C276 C277 1.386 . S
C276 C278 1.391 . S
C277 C276 1.386 . S
C277 C281 1.393 . S
C278 H270 0.950 . S
C278 C276 1.391 . S
C278 C279 1.400 . S
C279 C278 1.400 . S
C279 C280 1.398 . S
C279 C285 1.491 . S
C280 H271 0.950 . S
C280 C279 1.398 . S
C280 C281 1.391 . S
C281 H269 0.950 . S
C281 C277 1.393 . S
C281 C280 1.391 . S
C282 H272 0.950 . S
C282 C283 1.386 . S
C282 C284 1.391 . S
C283 C282 1.386 . S
C283 C287 1.393 . S
C284 H273 0.950 . S
C284 C282 1.391 . S
C284 C285 1.400 . S
C285 C279 1.491 . S
C285 C284 1.400 . S
C285 C286 1.398 . S
C286 H274 0.950 . S
C286 C285 1.398 . S
C286 C287 1.391 . S
C287 H275 0.950 . S
C287 C283 1.393 . S
C287 C286 1.391 . S
H288 C296 0.950 . S
H289 C301 0.950 . S
H290 C298 0.950 . S
H291 C300 0.950 1_455 S
H292 C302 0.950 . S
H293 C304 0.950 . S
H294 C306 0.950 . S
H295 C307 0.950 . S
C296 H288 0.950 . S
C296 C297 1.386 . S
C296 C298 1.391 . S
C297 C296 1.386 . S
C297 C301 1.393 . S
C298 H290 0.950 . S
C298 C296 1.391 . S
C298 C299 1.400 1_655 S
C299 C298 1.400 1_455 S
C299 C300 1.398 1_455 S
C299 C305 1.491 . S
C300 H291 0.950 1_655 S
C300 C299 1.398 1_655 S
C300 C301 1.391 . S
C301 H289 0.950 . S
C301 C297 1.393 . S
C301 C300 1.391 . S
C302 H292 0.950 . S
C302 C303 1.386 . S
C302 C304 1.391 . S
C303 C302 1.386 . S
C303 C307 1.393 . S
C304 H293 0.950 . S
C304 C302 1.391 . S
C304 C305 1.400 . S
C305 C299 1.491 . S
C305 C304 1.400 . S
C305 C306 1.398 . S
C306 H294 0.950 . S
C306 C305 1.398 . S
C306 C307 1.391 . S
C307 H295 0.950 . S
C307 C303 1.393 . S
C307 C306 1.391 . S
H308 C316 0.950 . S
H309 C321 0.950 . S
H310 C318 0.950 . S
H311 C320 0.950 . S
H312 C322 0.950 . S
H313 C324 0.950 . S
H314 C326 0.950 . S
H315 C327 0.950 . S
C316 H308 0.950 . S
C316 C317 1.386 . S
C316 C318 1.391 . S
C317 C316 1.386 . S
C317 C321 1.393 . S
C318 H310 0.950 . S
C318 C316 1.391 . S
C318 C319 1.400 . S
C319 C318 1.400 . S
C319 C320 1.398 . S
C319 C325 1.491 . S
C320 H311 0.950 . S
C320 C319 1.398 . S
C320 C321 1.391 . S
C321 H309 0.950 . S
C321 C317 1.393 . S
C321 C320 1.391 . S
C322 H312 0.950 . S
C322 C323 1.386 . S
C322 C324 1.391 . S
C323 C322 1.386 . S
C323 C327 1.393 . S
C324 H313 0.950 . S
C324 C322 1.391 . S
C324 C325 1.400 . S
C325 C319 1.491 . S
C325 C324 1.400 . S
C325 C326 1.398 . S
C326 H314 0.950 . S
C326 C325 1.398 . S
C326 C327 1.391 . S
C327 H315 0.950 . S
C327 C323 1.393 . S
C327 C326 1.391 . S
H328 C336 0.950 . S
H329 C341 0.950 . S
H330 C338 0.950 . S
H331 C340 0.950 . S
H332 C342 0.950 . S
H333 C344 0.950 . S
H334 C346 0.950 . S
H335 C347 0.950 . S
C336 H328 0.950 . S
C336 C337 1.386 . S
C336 C338 1.391 . S
C337 C336 1.386 . S
C337 C341 1.393 . S
C338 H330 0.950 . S
C338 C336 1.391 . S
C338 C339 1.378 1_455 S
C339 C338 1.378 1_655 S
C339 C340 1.401 . S
C339 C345 1.511 . S
C340 H331 0.950 . S
C340 C339 1.401 . S
C340 C341 1.391 1_655 S
C341 H329 0.950 . S
C341 C337 1.393 . S
C341 C340 1.391 1_455 S
C342 H332 0.950 . S
C342 C343 1.386 . S
C342 C344 1.391 . S
C343 C342 1.386 . S
C343 C347 1.393 . S
C344 H333 0.950 . S
C344 C342 1.391 . S
C344 C345 1.400 . S
C345 C339 1.511 . S
C345 C344 1.400 . S
C345 C346 1.398 . S
C346 H334 0.950 . S
C346 C345 1.398 . S
C346 C347 1.391 . S
C347 H335 0.950 . S
C347 C343 1.393 . S
C347 C346 1.391 . S
H348 C356 0.950 . S
H349 C361 0.950 . S
H350 C358 0.950 . S
H351 C360 0.950 . S
H352 C362 0.950 . S
H353 C364 0.950 . S
H354 C366 0.950 . S
H355 C367 0.950 . S
C356 H348 0.950 . S
C356 C357 1.386 . S
C356 C358 1.391 1_545 S
C357 C356 1.386 . S
C357 C361 1.393 . S
C358 H350 0.950 . S
C358 C356 1.391 1_565 S
C358 C359 1.400 . S
C359 C358 1.400 . S
C359 C360 1.398 . S
C359 C365 1.491 . S
C360 H351 0.950 . S
C360 C359 1.398 . S
C360 C361 1.391 1_565 S
C361 H349 0.950 . S
C361 C357 1.393 . S
C361 C360 1.391 1_545 S
C362 H352 0.950 . S
C362 C363 1.386 . S
C362 C364 1.391 . S
C363 C362 1.386 . S
C363 C367 1.393 . S
C364 H353 0.950 . S
C364 C362 1.391 . S
C364 C365 1.400 . S
C365 C359 1.491 . S
C365 C364 1.400 . S
C365 C366 1.398 . S
C366 H354 0.950 . S
C366 C365 1.398 . S
C366 C367 1.391 . S
C367 H355 0.950 . S
C367 C363 1.393 . S
C367 C366 1.391 . S
H368 C376 0.950 . S
H369 C381 0.950 . S
H370 C378 0.950 . S
H371 C380 0.950 . S
H372 C382 0.950 . S
H373 C384 0.950 . S
H374 C386 0.950 . S
H375 C387 0.950 . S
C376 H368 0.950 . S
C376 C377 1.386 . S
C376 C378 1.391 . S
C377 C376 1.386 . S
C377 C381 1.393 . S
C378 H370 0.950 . S
C378 C376 1.391 . S
C378 C379 1.400 . S
C379 C378 1.400 . S
C379 C380 1.398 . S
C379 C385 1.491 . S
C380 H371 0.950 . S
C380 C379 1.398 . S
C380 C381 1.391 . S
C381 H369 0.950 . S
C381 C377 1.393 . S
C381 C380 1.391 . S
C382 H372 0.950 . S
C382 C383 1.386 . S
C382 C384 1.391 . S
C383 C382 1.386 . S
C383 C387 1.393 . S
C384 H373 0.950 . S
C384 C382 1.391 . S
C384 C385 1.400 . S
C385 C379 1.491 . S
C385 C384 1.400 . S
C385 C386 1.398 . S
C386 H374 0.950 . S
C386 C385 1.398 . S
C386 C387 1.391 . S
C387 H375 0.950 . S
C387 C383 1.393 . S
C387 C386 1.391 . S
H388 C396 0.950 . S
H389 C401 0.950 1_565 S
H390 C398 0.950 . S
H391 C400 0.950 . S
H392 C402 0.950 . S
H393 C404 0.950 . S
H394 C406 0.950 . S
H395 C407 0.950 . S
C396 H388 0.950 . S
C396 C397 1.386 . S
C396 C398 1.391 1_565 S
C397 C396 1.386 . S
C397 C401 1.393 1_565 S
C398 H390 0.950 . S
C398 C396 1.391 1_545 S
C398 C399 1.400 . S
C399 C398 1.400 . S
C399 C400 1.398 . S
C399 C405 1.491 . S
C400 H391 0.950 . S
C400 C399 1.398 . S
C400 C401 1.391 . S
C401 H389 0.950 1_545 S
C401 C397 1.393 1_545 S
C401 C400 1.391 . S
C402 H392 0.950 . S
C402 C403 1.386 . S
C402 C404 1.391 . S
C403 C402 1.386 . S
C403 C407 1.393 . S
C404 H393 0.950 . S
C404 C402 1.391 . S
C404 C405 1.400 . S
C405 C399 1.491 . S
C405 C404 1.400 . S
C405 C406 1.398 . S
C406 H394 0.950 . S
C406 C405 1.398 . S
C406 C407 1.391 . S
C407 H395 0.950 . S
C407 C403 1.393 . S
C407 C406 1.391 . S
H408 C416 0.950 . S
H409 C421 0.950 . S
H410 C418 0.950 . S
H411 C420 0.950 . S
H412 C422 0.950 . S
H413 C424 0.950 . S
H414 C426 0.950 . S
H415 C427 0.950 . S
C416 H408 0.950 . S
C416 C417 1.386 . S
C416 C418 1.391 . S
C417 C416 1.386 . S
C417 C421 1.393 . S
C418 H410 0.950 . S
C418 C416 1.391 . S
C418 C419 1.400 . S
C419 C418 1.400 . S
C419 C420 1.398 . S
C419 C425 1.491 . S
C420 H411 0.950 . S
C420 C419 1.398 . S
C420 C421 1.391 . S
C421 H409 0.950 . S
C421 C417 1.393 . S
C421 C420 1.391 . S
C422 H412 0.950 . S
C422 C423 1.386 . S
C422 C424 1.391 . S
C423 C422 1.386 . S
C423 C427 1.393 . S
C424 H413 0.950 . S
C424 C422 1.391 . S
C424 C425 1.400 . S
C425 C419 1.491 . S
C425 C424 1.400 . S
C425 C426 1.398 . S
C426 H414 0.950 . S
C426 C425 1.398 . S
C426 C427 1.391 . S
C427 H415 0.950 . S
C427 C423 1.393 . S
C427 C426 1.391 . S
H428 C436 0.950 . S
H429 C441 0.950 . S
H430 C438 0.950 . S
H431 C440 0.950 . S
H432 C442 0.950 . S
H433 C444 0.950 . S
H434 C446 0.950 . S
H435 C447 0.950 . S
C436 H428 0.950 . S
C436 C437 1.386 . S
C436 C438 1.391 . S
C437 C436 1.386 . S
C437 C441 1.393 . S
C438 H430 0.950 . S
C438 C436 1.391 . S
C438 C439 1.400 . S
C439 C438 1.400 . S
C439 C440 1.398 . S
C439 C445 1.491 . S
C440 H431 0.950 . S
C440 C439 1.398 . S
C440 C441 1.391 . S
C441 H429 0.950 . S
C441 C437 1.393 . S
C441 C440 1.391 . S
C442 H432 0.950 . S
C442 C443 1.386 . S
C442 C444 1.391 . S
C443 C442 1.386 . S
C443 C447 1.393 . S
C444 H433 0.950 . S
C444 C442 1.391 . S
C444 C445 1.400 . S
C445 C439 1.491 . S
C445 C444 1.400 . S
C445 C446 1.398 . S
C446 H434 0.950 . S
C446 C445 1.398 . S
C446 C447 1.391 . S
C447 H435 0.950 . S
C447 C443 1.393 . S
C447 C446 1.391 . S
H448 C456 0.950 . S
H449 C461 0.950 . S
H450 C458 0.950 . S
H451 C460 0.950 . S
H452 C462 0.950 . S
H453 C464 0.950 . S
H454 C466 0.950 . S
H455 C467 0.950 . S
C456 H448 0.950 . S
C456 C457 1.386 . S
C456 C458 1.391 1_455 S
C457 C456 1.386 . S
C457 C461 1.393 1_455 S
C458 H450 0.950 . S
C458 C456 1.391 1_655 S
C458 C459 1.400 . S
C459 C458 1.400 . S
C459 C460 1.398 . S
C459 C465 1.491 . S
C460 H451 0.950 . S
C460 C459 1.398 . S
C460 C461 1.391 . S
C461 H449 0.950 . S
C461 C457 1.393 1_655 S
C461 C460 1.391 . S
C462 H452 0.950 . S
C462 C463 1.386 . S
C462 C464 1.391 . S
C463 C462 1.386 . S
C463 C467 1.393 . S
C464 H453 0.950 . S
C464 C462 1.391 . S
C464 C465 1.400 . S
C465 C459 1.491 . S
C465 C464 1.400 . S
C465 C466 1.398 . S
C466 H454 0.950 . S
C466 C465 1.398 . S
C466 C467 1.391 . S
C467 H455 0.950 . S
C467 C463 1.393 . S
C467 C466 1.391 . S
H468 C476 0.950 . S
H469 C481 0.950 . S
H470 C478 0.950 . S
H471 C480 0.950 . S
H472 C482 0.950 . S
H473 C484 0.950 . S
H474 C486 0.950 . S
H475 C487 0.950 . S
C476 H468 0.950 . S
C476 C477 1.386 . S
C476 C478 1.391 . S
C477 C476 1.386 . S
C477 C481 1.393 . S
C478 H470 0.950 . S
C478 C476 1.391 . S
C478 C479 1.400 . S
C479 C478 1.400 . S
C479 C480 1.398 . S
C479 C485 1.491 . S
C480 H471 0.950 . S
C480 C479 1.398 . S
C480 C481 1.391 . S
C481 H469 0.950 . S
C481 C477 1.393 . S
C481 C480 1.391 . S
C482 H472 0.950 . S
C482 C483 1.386 . S
C482 C484 1.391 . S
C483 C482 1.386 . S
C483 C487 1.393 . S
C484 H473 0.950 . S
C484 C482 1.391 . S
C484 C485 1.400 . S
C485 C479 1.491 . S
C485 C484 1.400 . S
C485 C486 1.398 . S
C486 H474 0.950 . S
C486 C485 1.398 . S
C486 C487 1.391 . S
C487 H475 0.950 . S
C487 C483 1.393 . S
C487 C486 1.391 . S
H488 C496 0.950 . S
H489 C501 0.950 . S
H490 C498 0.950 . S
H491 C500 0.950 . S
H492 C502 0.950 . S
H493 C504 0.950 . S
H494 C506 0.950 . S
H495 C507 0.950 . S
C496 H488 0.950 . S
C496 C497 1.386 . S
C496 C498 1.391 1_655 S
C497 C496 1.386 . S
C497 C501 1.393 . S
C498 H490 0.950 . S
C498 C496 1.391 1_455 S
C498 C499 1.400 . S
C499 C498 1.400 . S
C499 C500 1.398 . S
C499 C505 1.491 . S
C500 H491 0.950 . S
C500 C499 1.398 . S
C500 C501 1.391 1_455 S
C501 H489 0.950 . S
C501 C497 1.393 . S
C501 C500 1.391 1_655 S
C502 H492 0.950 . S
C502 C503 1.386 . S
C502 C504 1.391 . S
C503 C502 1.386 . S
C503 C507 1.393 . S
C504 H493 0.950 . S
C504 C502 1.391 . S
C504 C505 1.400 . S
C505 C499 1.491 . S
C505 C504 1.400 . S
C505 C506 1.398 . S
C506 H494 0.950 . S
C506 C505 1.398 . S
C506 C507 1.391 . S
C507 H495 0.950 . S
C507 C503 1.393 . S
C507 C506 1.391 . S
H508 C516 0.950 . S
H509 C521 0.950 . S
H510 C518 0.950 . S
H511 C520 0.950 . S
H512 C522 0.950 . S
H513 C524 0.950 . S
H514 C526 0.950 . S
H515 C527 0.950 . S
C516 H508 0.950 . S
C516 C517 1.386 . S
C516 C518 1.391 . S
C517 C516 1.386 . S
C517 C521 1.393 . S
C518 H510 0.950 . S
C518 C516 1.391 . S
C518 C519 1.400 . S
C519 C518 1.400 . S
C519 C520 1.398 . S
C519 C525 1.491 . S
C520 H511 0.950 . S
C520 C519 1.398 . S
C520 C521 1.391 . S
C521 H509 0.950 . S
C521 C517 1.393 . S
C521 C520 1.391 . S
C522 H512 0.950 . S
C522 C523 1.386 . S
C522 C524 1.391 . S
C523 C522 1.386 . S
C523 C527 1.393 . S
C524 H513 0.950 . S
C524 C522 1.391 . S
C524 C525 1.400 . S
C525 C519 1.491 . S
C525 C524 1.400 . S
C525 C526 1.398 . S
C526 H514 0.950 . S
C526 C525 1.398 . S
C526 C527 1.391 . S
C527 H515 0.950 . S
C527 C523 1.393 . S
C527 C526 1.391 . S
H528 C536 0.950 . S
H529 C541 0.950 . S
H530 C538 0.950 . S
H531 C540 0.950 . S
H532 C542 0.950 . S
H533 C544 0.950 . S
H534 C546 0.950 . S
H535 C547 0.950 . S
C536 H528 0.950 . S
C536 C537 1.386 . S
C536 C538 1.391 . S
C537 C536 1.386 . S
C537 C541 1.393 . S
C538 H530 0.950 . S
C538 C536 1.391 . S
C538 C539 1.400 . S
C539 C538 1.400 . S
C539 C540 1.398 . S
C539 C545 1.491 . S
C540 H531 0.950 . S
C540 C539 1.398 . S
C540 C541 1.391 . S
C541 H529 0.950 . S
C541 C537 1.393 . S
C541 C540 1.391 . S
C542 H532 0.950 . S
C542 C543 1.386 . S
C542 C544 1.391 . S
C543 C542 1.386 . S
C543 C547 1.393 . S
C544 H533 0.950 . S
C544 C542 1.391 . S
C544 C545 1.400 . S
C545 C539 1.491 . S
C545 C544 1.400 . S
C545 C546 1.398 . S
C546 H534 0.950 . S
C546 C545 1.398 . S
C546 C547 1.391 . S
C547 H535 0.950 . S
C547 C543 1.393 . S
C547 C546 1.391 . S
H548 C556 0.950 . S
H549 C561 0.950 . S
H550 C558 0.950 . S
H551 C560 0.950 . S
H552 C562 0.950 . S
H553 C564 0.950 . S
H554 C566 0.950 . S
H555 C567 0.950 . S
C556 H548 0.950 . S
C556 C557 1.386 . S
C556 C558 1.391 . S
C557 C556 1.386 . S
C557 C561 1.393 . S
C558 H550 0.950 . S
C558 C556 1.391 . S
C558 C559 1.400 . S
C559 C558 1.400 . S
C559 C560 1.398 . S
C559 C565 1.491 . S
C560 H551 0.950 . S
C560 C559 1.398 . S
C560 C561 1.391 . S
C561 H549 0.950 . S
C561 C557 1.393 . S
C561 C560 1.391 . S
C562 H552 0.950 . S
C562 C563 1.386 . S
C562 C564 1.391 . S
C563 C562 1.386 . S
C563 C567 1.393 . S
C564 H553 0.950 . S
C564 C562 1.391 . S
C564 C565 1.400 . S
C565 C559 1.491 . S
C565 C564 1.400 . S
C565 C566 1.398 . S
C566 H554 0.950 . S
C566 C565 1.398 . S
C566 C567 1.391 . S
C567 H555 0.950 . S
C567 C563 1.393 . S
C567 C566 1.391 . S
H568 C576 0.950 . S
H569 C581 0.950 . S
H570 C578 0.950 . S
H571 C580 0.950 . S
H572 C582 0.950 . S
H573 C584 0.950 . S
H574 C586 0.950 . S
H575 C587 0.950 . S
C576 H568 0.950 . S
C576 C577 1.386 . S
C576 C578 1.391 . S
C577 C576 1.386 . S
C577 C581 1.393 . S
C578 H570 0.950 . S
C578 C576 1.391 . S
C578 C579 1.400 . S
C579 C578 1.400 . S
C579 C580 1.398 . S
C579 C585 1.491 . S
C580 H571 0.950 . S
C580 C579 1.398 . S
C580 C581 1.391 . S
C581 H569 0.950 . S
C581 C577 1.393 . S
C581 C580 1.391 . S
C582 H572 0.950 . S
C582 C583 1.386 . S
C582 C584 1.391 . S
C583 C582 1.386 . S
C583 C587 1.393 . S
C584 H573 0.950 . S
C584 C582 1.391 . S
C584 C585 1.400 . S
C585 C579 1.491 . S
C585 C584 1.400 . S
C585 C586 1.398 . S
C586 H574 0.950 . S
C586 C585 1.398 . S
C586 C587 1.391 . S
C587 H575 0.950 . S
C587 C583 1.393 . S
C587 C586 1.391 . S
H588 C596 0.950 . S
H589 C601 0.950 . S
H590 C598 0.950 . S
H591 C600 0.950 . S
H592 C602 0.950 . S
H593 C604 0.950 . S
H594 C606 0.950 . S
H595 C607 0.950 . S
C596 H588 0.950 . S
C596 C597 1.386 . S
C596 C598 1.391 . S
C597 C596 1.386 . S
C597 C601 1.393 . S
C598 H590 0.950 . S
C598 C596 1.391 . S
C598 C599 1.400 . S
C599 C598 1.400 . S
C599 C600 1.398 . S
C599 C605 1.491 . S
C600 H591 0.950 . S
C600 C599 1.398 . S
C600 C601 1.391 . S
C601 H589 0.950 . S
C601 C597 1.393 . S
C601 C600 1.391 . S
C602 H592 0.950 . S
C602 C603 1.386 . S
C602 C604 1.391 . S
C603 C602 1.386 . S
C603 C607 1.393 . S
C604 H593 0.950 . S
C604 C602 1.391 . S
C604 C605 1.400 . S
C605 C599 1.491 . S
C605 C604 1.400 . S
C605 C606 1.398 . S
C606 H594 0.950 . S
C606 C605 1.398 . S
C606 C607 1.391 . S
C607 H595 0.950 . S
C607 C603 1.393 . S
C607 C606 1.391 . S
H608 C616 0.950 . S
H609 C621 0.950 . S
H610 C618 0.950 . S
H611 C620 0.950 . S
H612 C622 0.950 . S
H613 C624 0.950 . S
H614 C626 0.950 . S
H615 C627 0.950 . S
C616 H608 0.950 . S
C616 C617 1.386 . S
C616 C618 1.391 . S
C617 C616 1.386 . S
C617 C621 1.393 . S
C618 H610 0.950 . S
C618 C616 1.391 . S
C618 C619 1.400 . S
C619 C618 1.400 . S
C619 C620 1.398 . S
C619 C625 1.491 . S
C620 H611 0.950 . S
C620 C619 1.398 . S
C620 C621 1.391 . S
C621 H609 0.950 . S
C621 C617 1.393 . S
C621 C620 1.391 . S
C622 H612 0.950 . S
C622 C623 1.386 . S
C622 C624 1.391 . S
C623 C622 1.386 . S
C623 C627 1.393 . S
C624 H613 0.950 . S
C624 C622 1.391 . S
C624 C625 1.400 . S
C625 C619 1.491 . S
C625 C624 1.400 . S
C625 C626 1.398 . S
C626 H614 0.950 . S
C626 C625 1.398 . S
C626 C627 1.391 . S
C627 H615 0.950 . S
C627 C623 1.393 . S
C627 C626 1.391 . S
H628 C636 0.950 . S
H629 C641 0.950 . S
H630 C638 0.950 . S
H631 C640 0.950 . S
H632 C642 0.950 . S
H633 C644 0.950 . S
H634 C646 0.950 . S
H635 C647 0.950 . S
C636 H628 0.950 . S
C636 C637 1.386 . S
C636 C638 1.391 . S
C637 C636 1.386 . S
C637 C641 1.393 . S
C638 H630 0.950 . S
C638 C636 1.391 . S
C638 C639 1.400 . S
C639 C638 1.400 . S
C639 C640 1.398 . S
C639 C645 1.491 . S
C640 H631 0.950 . S
C640 C639 1.398 . S
C640 C641 1.391 . S
C641 H629 0.950 . S
C641 C637 1.393 . S
C641 C640 1.391 . S
C642 H632 0.950 . S
C642 C643 1.386 . S
C642 C644 1.391 . S
C643 C642 1.386 . S
C643 C647 1.393 . S
C644 H633 0.950 . S
C644 C642 1.391 . S
C644 C645 1.400 . S
C645 C639 1.491 . S
C645 C644 1.400 . S
C645 C646 1.398 . S
C646 H634 0.950 . S
C646 C645 1.398 . S
C646 C647 1.391 . S
C647 H635 0.950 . S
C647 C643 1.393 . S
C647 C646 1.391 . S
H648 C656 0.950 . S
H649 C661 0.950 . S
H650 C658 0.950 . S
H651 C660 0.950 . S
H652 C662 0.950 . S
H653 C664 0.950 . S
H654 C666 0.950 . S
H655 C667 0.950 . S
C656 H648 0.950 . S
C656 C657 1.386 . S
C656 C658 1.391 . S
C657 C656 1.386 . S
C657 C661 1.393 . S
C658 H650 0.950 . S
C658 C656 1.391 . S
C658 C659 1.400 . S
C659 C658 1.400 . S
C659 C660 1.398 . S
C659 C665 1.491 . S
C660 H651 0.950 . S
C660 C659 1.398 . S
C660 C661 1.391 . S
C661 H649 0.950 . S
C661 C657 1.393 . S
C661 C660 1.391 . S
C662 H652 0.950 . S
C662 C663 1.386 . S
C662 C664 1.391 . S
C663 C662 1.386 . S
C663 C667 1.393 . S
C664 H653 0.950 . S
C664 C662 1.391 . S
C664 C665 1.400 . S
C665 C659 1.491 . S
C665 C664 1.400 . S
C665 C666 1.398 . S
C666 H654 0.950 . S
C666 C665 1.398 . S
C666 C667 1.391 . S
C667 H655 0.950 . S
C667 C663 1.393 . S
C667 C666 1.391 . S
C197 C7 0.754 . S
C203 N89 0.808 . S
C217 C25 0.824 . S
C223 N102 0.807 . S
C237 C46 0.771 . S
C243 N111 0.796 . S
C263 N128 0.807 . S
C257 C70 0.753 . S
C283 N141 0.801 . S
C277 C28 0.770 . S
C297 C49 0.821 . S
C303 N150 0.814 . S
C317 C67 0.807 . S
C323 N163 0.804 . S
C337 C4 0.822 . S
C343 N180 0.805 . S
C357 C58 1.598 . S
C363 N176 1.728 . S
C383 N137 1.723 . S
C377 C66 1.627 . S
C403 N154 1.732 . S
C397 C3 1.608 . S
C417 C37 1.625 . S
C423 N167 1.733 . S
C443 N98 1.726 . S
C437 C79 1.628 . S
C457 C16 1.623 . S
C463 N115 1.733 . S
C483 N124 1.725 . S
C477 C24 1.624 . S
C503 N85 1.724 . S
C497 C45 1.628 . S
C523 N164 1.379 . S
C517 C19 1.263 . S
C543 N177 1.372 . S
C537 C41 1.228 . S
C557 C62 1.261 . S
C563 N138 1.374 . S
C583 N151 1.377 . S
C577 C82 1.223 . S
C603 N112 1.377 . S
C597 C40 1.263 . S
C617 C61 1.258 . S
C623 N125 1.372 . S
C643 N86 1.372 . S
C637 C83 1.221 . S
C663 N99 1.375 . S
C657 C20 1.254 . S
