# Generated by pormake.
# Topology hwx, (6,3)-cn, num edge types: 1
# Building blocks:
#     Node 0, Type 0, BuildingBlock: OJICUG_clean_sbu_0, # of connection points: 6
#     Node 1, Type 0, BuildingBlock: OJICUG_clean_sbu_0, # of connection points: 6
#     Node 2, Type 0, BuildingBlock: OJICUG_clean_sbu_0, # of connection points: 6
#     Node 3, Type 0, BuildingBlock: OJICUG_clean_sbu_0, # of connection points: 6
#     Node 4, Type 1, BuildingBlock: BETDAH_clean_linker_0, # of connection points: 3
#     Node 5, Type 1, BuildingBlock: BETDAH_clean_linker_0, # of connection points: 3
#     Node 6, Type 1, BuildingBlock: BETDAH_clean_linker_0, # of connection points: 3
#     Node 7, Type 1, BuildingBlock: BETDAH_clean_linker_0, # of connection points: 3
#     Node 8, Type 1, BuildingBlock: BETDAH_clean_linker_0, # of connection points: 3
#     Node 9, Type 1, BuildingBlock: BETDAH_clean_linker_0, # of connection points: 3
#     Node 10, Type 1, BuildingBlock: BETDAH_clean_linker_0, # of connection points: 3
#     Node 11, Type 1, BuildingBlock: BETDAH_clean_linker_0, # of connection points: 3
#     Edge 12, Type (0, 1), BuildingBlock: TEMPAE_clean_linker_10, # of connection points: 2
#     Edge 13, Type (0, 1), BuildingBlock: TEMPAE_clean_linker_10, # of connection points: 2
#     Edge 14, Type (0, 1), BuildingBlock: TEMPAE_clean_linker_10, # of connection points: 2
#     Edge 15, Type (0, 1), BuildingBlock: TEMPAE_clean_linker_10, # of connection points: 2
#     Edge 16, Type (0, 1), BuildingBlock: TEMPAE_clean_linker_10, # of connection points: 2
#     Edge 17, Type (0, 1), BuildingBlock: TEMPAE_clean_linker_10, # of connection points: 2
#     Edge 18, Type (0, 1), BuildingBlock: TEMPAE_clean_linker_10, # of connection points: 2
#     Edge 19, Type (0, 1), BuildingBlock: TEMPAE_clean_linker_10, # of connection points: 2
#     Edge 20, Type (0, 1), BuildingBlock: TEMPAE_clean_linker_10, # of connection points: 2
#     Edge 21, Type (0, 1), BuildingBlock: TEMPAE_clean_linker_10, # of connection points: 2
#     Edge 22, Type (0, 1), BuildingBlock: TEMPAE_clean_linker_10, # of connection points: 2
#     Edge 23, Type (0, 1), BuildingBlock: TEMPAE_clean_linker_10, # of connection points: 2
#     Edge 24, Type (0, 1), BuildingBlock: TEMPAE_clean_linker_10, # of connection points: 2
#     Edge 25, Type (0, 1), BuildingBlock: TEMPAE_clean_linker_10, # of connection points: 2
#     Edge 26, Type (0, 1), BuildingBlock: TEMPAE_clean_linker_10, # of connection points: 2
#     Edge 27, Type (0, 1), BuildingBlock: TEMPAE_clean_linker_10, # of connection points: 2
#     Edge 28, Type (0, 1), BuildingBlock: TEMPAE_clean_linker_10, # of connection points: 2
#     Edge 29, Type (0, 1), BuildingBlock: TEMPAE_clean_linker_10, # of connection points: 2
#     Edge 30, Type (0, 1), BuildingBlock: TEMPAE_clean_linker_10, # of connection points: 2
#     Edge 31, Type (0, 1), BuildingBlock: TEMPAE_clean_linker_10, # of connection points: 2
#     Edge 32, Type (0, 1), BuildingBlock: TEMPAE_clean_linker_10, # of connection points: 2
#     Edge 33, Type (0, 1), BuildingBlock: TEMPAE_clean_linker_10, # of connection points: 2
#     Edge 34, Type (0, 1), BuildingBlock: TEMPAE_clean_linker_10, # of connection points: 2
#     Edge 35, Type (0, 1), BuildingBlock: TEMPAE_clean_linker_10, # of connection points: 2
# Relax obj value: 0.008
# Max RMSD: 0.044
# Mean RMSD: 0.041
data_MOF--net-hwx--node1-OJICUG_clean_sbu_0--node2-BETDAH_clean_linker_0--edge1-TEMPAE_clean_linker_10
_symmetry_space_group_name_H-M    P1
_symmetry_Int_Tables_number       1
_symmetry_cell_setting            triclinic
loop_
_symmetry_equiv_pos_as_xyz
'x, y, z'
_cell_length_a     53.303995
_cell_length_b     53.281727
_cell_length_c     20.50571
_cell_angle_alpha  91.876839
_cell_angle_beta   91.746448
_cell_angle_gamma 89.998113
loop_
_atom_site_label
_atom_site_type_symbol
_atom_site_fract_x
_atom_site_fract_y
_atom_site_fract_z
_atom_type_partial_charge
Sc0 Sc 0.23217 0.2307 0.06459 0.0
Sc1 Sc 0.18995 0.19016 0.97793 0.0
Sc2 Sc 0.22815 0.23102 0.89234 0.0
O3 O 0.21677 0.21731 0.97826 0.0
C4 C 0.22646 0.28085 0.98368 0.0
C5 C 0.17428 0.22581 0.09792 0.0
C6 C 0.16894 0.2253 0.86581 0.0
C7 C 0.22765 0.17217 0.09065 0.0
C8 C 0.28003 0.22745 0.97446 0.0
C9 C 0.22313 0.17209 0.85831 0.0
O10 O 0.22908 0.26916 0.03651 0.0
O11 O 0.1694 0.20937 0.05304 0.0
O12 O 0.19019 0.2347 0.85379 0.0
O13 O 0.23702 0.1938 0.10301 0.0
O14 O 0.26742 0.22884 0.92099 0.0
O15 O 0.20773 0.16811 0.90291 0.0
O16 O 0.26982 0.22777 0.02976 0.0
O17 O 0.21057 0.16808 0.04708 0.0
O18 O 0.23186 0.1938 0.8479 0.0
O19 O 0.19609 0.23505 0.10852 0.0
O20 O 0.22565 0.26966 0.92779 0.0
O21 O 0.16613 0.20902 0.90883 0.0
Sc22 Sc 0.2741 0.72617 0.43712 0.0
Sc23 Sc 0.31368 0.68854 0.53498 0.0
Sc24 Sc 0.27355 0.73313 0.60832 0.0
O25 O 0.2871 0.71593 0.52678 0.0
C26 C 0.27768 0.7794 0.51438 0.0
C27 C 0.33295 0.71955 0.41549 0.0
C28 C 0.33194 0.72821 0.64578 0.0
C29 C 0.27898 0.66646 0.4171 0.0
C30 C 0.22376 0.7264 0.51836 0.0
C31 C 0.27737 0.67588 0.64956 0.0
O32 O 0.2767 0.76593 0.46194 0.0
O33 O 0.33643 0.70469 0.46217 0.0
O34 O 0.31069 0.73876 0.65152 0.0
O35 O 0.27013 0.6877 0.40138 0.0
O36 O 0.23512 0.7297 0.57343 0.0
O37 O 0.29405 0.66969 0.60917 0.0
O38 O 0.2353 0.7247 0.46491 0.0
O39 O 0.29474 0.66395 0.46414 0.0
O40 O 0.26835 0.69791 0.655 0.0
O41 O 0.31153 0.72863 0.40047 0.0
O42 O 0.2768 0.77009 0.57051 0.0
O43 O 0.3357 0.70958 0.60717 0.0
Sc44 Sc 0.77199 0.77455 0.89176 0.0
Sc45 Sc 0.81216 0.81345 0.99147 0.0
Sc46 Sc 0.77001 0.77275 0.06323 0.0
O47 O 0.78471 0.7869 0.982 0.0
C48 C 0.72105 0.77702 0.96968 0.0
C49 C 0.77816 0.8339 0.8743 0.0
C50 C 0.77497 0.83059 0.1036 0.0
C51 C 0.83099 0.77939 0.87145 0.0
C52 C 0.7746 0.72364 0.97132 0.0
C53 C 0.82843 0.77686 0.10403 0.0
O54 O 0.73287 0.77777 0.91678 0.0
O55 O 0.79353 0.83707 0.92245 0.0
O56 O 0.76407 0.80947 0.10618 0.0
O57 O 0.80955 0.77001 0.85631 0.0
O58 O 0.77406 0.73484 0.02696 0.0
O59 O 0.83357 0.7925 0.06103 0.0
O60 O 0.77342 0.73532 0.91799 0.0
O61 O 0.83443 0.79557 0.91771 0.0
O62 O 0.80626 0.76897 0.11235 0.0
O63 O 0.76935 0.81243 0.85635 0.0
O64 O 0.73214 0.77466 0.02484 0.0
O65 O 0.79339 0.83448 0.06732 0.0
Sc66 Sc 0.72988 0.27462 0.62706 0.0
Sc67 Sc 0.6897 0.31255 0.53238 0.0
Sc68 Sc 0.73075 0.27021 0.45487 0.0
O69 O 0.7168 0.28578 0.53814 0.0
C70 C 0.78025 0.27599 0.54666 0.0
C71 C 0.72416 0.33393 0.65136 0.0
C72 C 0.72618 0.32802 0.41975 0.0
C73 C 0.67084 0.27977 0.64871 0.0
C74 C 0.72665 0.22252 0.54475 0.0
C75 C 0.67247 0.27453 0.41639 0.0
O76 O 0.76874 0.27694 0.60016 0.0
O77 O 0.70817 0.3366 0.60495 0.0
O78 O 0.73558 0.30623 0.4115 0.0
O79 O 0.69244 0.27105 0.66359 0.0
O80 O 0.72739 0.23262 0.48946 0.0
O81 O 0.66807 0.29162 0.45911 0.0
O82 O 0.72776 0.23525 0.59839 0.0
O83 O 0.66716 0.29505 0.60313 0.0
O84 O 0.69419 0.26528 0.40844 0.0
O85 O 0.73339 0.31271 0.6657 0.0
O86 O 0.7689 0.27333 0.49144 0.0
O87 O 0.70936 0.33289 0.4609 0.0
H88 H 0.24849 0.56885 0.04076 0.0
H89 H 0.21108 0.50424 0.11199 0.0
H90 H 0.19828 0.52546 0.91336 0.0
C91 C 0.236 0.55296 0.03198 0.0
C92 C 0.22413 0.54926 0.97042 0.0
C93 C 0.23107 0.53729 0.0837 0.0
C94 C 0.21527 0.51638 0.07236 0.0
C95 C 0.20407 0.51181 0.01007 0.0
C96 C 0.20801 0.52857 0.96008 0.0
N97 N 0.18731 0.49149 0.99785 0.0
C98 C 0.19419 0.46676 0.00799 0.0
H99 H 0.93426 0.75084 0.50108 0.0
H100 H 0.98669 0.70677 0.39097 0.0
H101 H 0.993 0.7105 0.60066 0.0
C102 C 0.95111 0.73947 0.49942 0.0
C103 C 0.96296 0.73248 0.55806 0.0
C104 C 0.95948 0.7305 0.43887 0.0
C105 C 0.9802 0.71426 0.43724 0.0
C106 C 0.99262 0.70754 0.49538 0.0
C107 C 0.98391 0.71649 0.55582 0.0
N108 N 0.01238 0.68987 0.49276 0.0
C109 C 0.03728 0.69691 0.50331 0.0
H110 H 0.75131 0.43413 0.03216 0.0
H111 H 0.78363 0.49979 0.95195 0.0
H112 H 0.78944 0.48845 0.15895 0.0
C113 C 0.7609 0.45201 0.03936 0.0
C114 C 0.76904 0.45982 0.10235 0.0
C115 C 0.76603 0.46621 0.985 0.0
C116 C 0.77938 0.48886 0.99385 0.0
C117 C 0.78772 0.49693 0.05696 0.0
C118 C 0.78289 0.48215 0.11061 0.0
N119 N 0.80161 0.51943 0.06802 0.0
C120 C 0.7983 0.54068 0.03122 0.0
H121 H 0.06835 0.25244 0.48889 0.0
H122 H 0.00459 0.28788 0.5763 0.0
H123 H 0.01557 0.29294 0.36995 0.0
C124 C 0.05091 0.26277 0.48382 0.0
C125 C 0.04329 0.2712 0.42236 0.0
C126 C 0.03719 0.26865 0.53953 0.0
C127 C 0.01518 0.283 0.53344 0.0
C128 C 0.00735 0.29166 0.4719 0.0
C129 C 0.02167 0.28609 0.41703 0.0
N130 N 0.98567 0.30675 0.46396 0.0
C131 C 0.96368 0.30295 0.49686 0.0
H132 H 0.74683 0.9342 0.51174 0.0
H133 H 0.69777 0.98127 0.39882 0.0
H134 H 0.71112 0.9978 0.6036 0.0
C135 C 0.73474 0.95048 0.50816 0.0
C136 C 0.73023 0.96509 0.56467 0.0
C137 C 0.72297 0.95578 0.44809 0.0
C138 C 0.70735 0.97693 0.44443 0.0
C139 C 0.70379 0.99261 0.49966 0.0
C140 C 0.71494 0.98648 0.56019 0.0
N141 N 0.68766 0.01356 0.4938 0.0
C142 C 0.694 0.03733 0.51881 0.0
H143 H 0.5678 0.24901 0.0146 0.0
H144 H 0.51522 0.20409 0.11468 0.0
H145 H 0.50903 0.2094 0.90598 0.0
C146 C 0.55096 0.23755 0.0137 0.0
C147 C 0.53916 0.23095 0.95353 0.0
C148 C 0.54248 0.22822 0.07223 0.0
C149 C 0.52186 0.21181 0.0701 0.0
C150 C 0.50948 0.20548 0.01052 0.0
C151 C 0.51816 0.21498 0.95213 0.0
N152 N 0.48937 0.18819 0.00971 0.0
C153 C 0.46521 0.19483 0.98999 0.0
H154 H 0.25267 0.06775 0.47316 0.0
H155 H 0.29273 0.00986 0.57404 0.0
H156 H 0.29661 0.01402 0.36548 0.0
C157 C 0.26401 0.05085 0.47183 0.0
C158 C 0.27292 0.04177 0.41194 0.0
C159 C 0.27095 0.03961 0.53058 0.0
C160 C 0.28683 0.01854 0.52904 0.0
C161 C 0.29584 0.00922 0.4692 0.0
C162 C 0.28917 0.02106 0.41114 0.0
N163 N 0.31331 0.98927 0.46714 0.0
C164 C 0.30685 0.96496 0.48236 0.0
H165 H 0.43394 0.7548 0.0456 0.0
H166 H 0.48892 0.7992 0.9517 0.0
H167 H 0.49479 0.78856 0.15872 0.0
C168 C 0.45108 0.76579 0.04802 0.0
C169 C 0.46351 0.7699 0.1085 0.0
C170 C 0.45944 0.77689 0.99146 0.0
C171 C 0.48212 0.79046 0.99473 0.0
C172 C 0.49504 0.79433 0.05515 0.0
C173 C 0.48527 0.7847 0.112 0.0
N174 N 0.51658 0.80985 0.06087 0.0
C175 C 0.53804 0.80518 0.0257 0.0
C176 C 0.12851 0.23071 0.11884 0.0
C177 C 0.15361 0.23443 0.13971 0.0
C178 C 0.1087 0.23799 0.15881 0.0
C179 C 0.11414 0.24886 0.22149 0.0
C180 C 0.1394 0.25318 0.24226 0.0
C181 C 0.15883 0.24608 0.20091 0.0
C182 C 0.08199 0.23347 0.13459 0.0
C183 C 0.14595 0.26451 0.30911 0.0
C184 C 0.06521 0.2833 0.32131 0.0
C185 C 0.05875 0.26487 0.36512 0.0
C186 C 0.08249 0.2781 0.27226 0.0
C187 C 0.09363 0.254 0.2675 0.0
C188 C 0.08627 0.23503 0.30967 0.0
C189 C 0.06879 0.24065 0.35757 0.0
C190 C 0.08962 0.29866 0.22742 0.0
C191 C 0.09769 0.20908 0.30619 0.0
H192 H 0.1243 0.22204 0.0712 0.0
H193 H 0.17816 0.24902 0.21736 0.0
H194 H 0.07319 0.21901 0.16418 0.0
H195 H 0.07078 0.2509 0.14039 0.0
H196 H 0.0809 0.22704 0.08249 0.0
H197 H 0.16644 0.26768 0.31667 0.0
H198 H 0.13611 0.28268 0.31635 0.0
H199 H 0.13953 0.25184 0.34715 0.0
H200 H 0.05759 0.30208 0.32708 0.0
H201 H 0.06347 0.2262 0.39051 0.0
H202 H 0.0886 0.29171 0.17581 0.0
H203 H 0.10929 0.30455 0.23853 0.0
H204 H 0.0773 0.31539 0.23265 0.0
H205 H 0.09546 0.20081 0.25601 0.0
H206 H 0.08909 0.19616 0.34061 0.0
H207 H 0.11813 0.21032 0.31795 0.0
C208 C 0.24217 0.65439 0.70208 0.0
C209 C 0.26793 0.65649 0.69194 0.0
C210 C 0.23294 0.63587 0.74217 0.0
C211 C 0.25003 0.61984 0.7747 0.0
C212 C 0.2761 0.62194 0.76443 0.0
C213 C 0.2847 0.63997 0.72211 0.0
C214 C 0.20497 0.6336 0.75011 0.0
C215 C 0.29498 0.60575 0.79987 0.0
C216 C 0.2314 0.59319 0.935 0.0
C217 C 0.22833 0.56755 0.9184 0.0
C218 C 0.23821 0.61039 0.88854 0.0
C219 C 0.24095 0.60205 0.823 0.0
C220 C 0.23629 0.57657 0.80478 0.0
C221 C 0.23039 0.55952 0.85289 0.0
C222 C 0.24344 0.63732 0.91027 0.0
C223 C 0.23821 0.5672 0.73484 0.0
H224 H 0.22922 0.66701 0.67784 0.0
H225 H 0.30464 0.64173 0.71422 0.0
H226 H 0.1989 0.61385 0.74072 0.0
H227 H 0.20017 0.63884 0.80099 0.0
H228 H 0.19416 0.64584 0.7166 0.0
H229 H 0.31456 0.60964 0.78605 0.0
H230 H 0.29359 0.60907 0.85336 0.0
H231 H 0.29088 0.58561 0.78924 0.0
H232 H 0.22892 0.59985 0.98487 0.0
H233 H 0.22811 0.53981 0.83939 0.0
H234 H 0.23111 0.65021 0.88259 0.0
H235 H 0.26312 0.64222 0.89988 0.0
H236 H 0.24051 0.64073 0.96324 0.0
H237 H 0.22747 0.57961 0.70174 0.0
H238 H 0.23108 0.54769 0.72741 0.0
H239 H 0.25809 0.56763 0.72043 0.0
C240 C 0.84432 0.75721 0.20657 0.0
C241 C 0.84924 0.76776 0.14654 0.0
C242 C 0.86399 0.74999 0.24893 0.0
C243 C 0.88917 0.75305 0.23037 0.0
C244 C 0.89424 0.76274 0.16875 0.0
C245 C 0.87423 0.77016 0.12777 0.0
C246 C 0.85784 0.73993 0.31458 0.0
C247 C 0.92082 0.76588 0.14682 0.0
C248 C 0.93609 0.76149 0.37157 0.0
C249 C 0.94498 0.73693 0.37877 0.0
C250 C 0.9186 0.76716 0.3219 0.0
C251 C 0.91006 0.74786 0.27765 0.0
C252 C 0.92024 0.72339 0.28183 0.0
C253 C 0.93756 0.71817 0.33263 0.0
C254 C 0.90824 0.79351 0.3191 0.0
C255 C 0.91187 0.70244 0.23481 0.0
H256 H 0.82509 0.7553 0.2214 0.0
H257 H 0.87819 0.77798 0.08102 0.0
H258 H 0.86706 0.72149 0.32132 0.0
H259 H 0.86522 0.75293 0.354 0.0
H260 H 0.83732 0.73764 0.32039 0.0
H261 H 0.92151 0.77141 0.09513 0.0
H262 H 0.93052 0.78052 0.17796 0.0
H263 H 0.93146 0.74815 0.15248 0.0
H264 H 0.94212 0.77613 0.40656 0.0
H265 H 0.94426 0.69912 0.33817 0.0
H266 H 0.88795 0.79331 0.32971 0.0
H267 H 0.91004 0.80082 0.26944 0.0
H268 H 0.91792 0.80665 0.35472 0.0
H269 H 0.8922 0.69723 0.24434 0.0
H270 H 0.92379 0.68544 0.23948 0.0
H271 H 0.91233 0.70867 0.18377 0.0
C272 C 0.72753 0.38067 0.66738 0.0
C273 C 0.73199 0.35654 0.69085 0.0
C274 C 0.73379 0.40226 0.70556 0.0
C275 C 0.74437 0.39963 0.76904 0.0
C276 C 0.74954 0.37535 0.79227 0.0
C277 C 0.74346 0.35412 0.75273 0.0
C278 C 0.72842 0.42781 0.67869 0.0
C279 C 0.76068 0.37173 0.85996 0.0
C280 C 0.77722 0.45021 0.87391 0.0
C281 C 0.7588 0.45557 0.91959 0.0
C282 C 0.77219 0.43348 0.8207 0.0
C283 C 0.74828 0.42191 0.81374 0.0
C284 C 0.72896 0.42927 0.85618 0.0
C285 C 0.73446 0.44611 0.90848 0.0
C286 C 0.7931 0.42652 0.77558 0.0
C287 C 0.70317 0.41753 0.85039 0.0
H288 H 0.71899 0.38273 0.6192 0.0
H289 H 0.747 0.33558 0.7712 0.0
H290 H 0.71285 0.4368 0.70548 0.0
H291 H 0.74509 0.44019 0.68587 0.0
H292 H 0.72306 0.42672 0.62589 0.0
H293 H 0.76443 0.35167 0.86968 0.0
H294 H 0.77853 0.38234 0.86661 0.0
H295 H 0.74763 0.37923 0.89697 0.0
H296 H 0.79608 0.45745 0.88263 0.0
H297 H 0.72019 0.45045 0.94371 0.0
H298 H 0.78605 0.42509 0.72412 0.0
H299 H 0.80072 0.40788 0.78837 0.0
H300 H 0.80868 0.44039 0.77948 0.0
H301 H 0.69589 0.4175 0.79916 0.0
H302 H 0.68952 0.42749 0.8819 0.0
H303 H 0.70434 0.39768 0.86507 0.0
C304 C 0.62653 0.26847 0.39227 0.0
C305 C 0.65144 0.26543 0.37319 0.0
C306 C 0.60638 0.26103 0.35039 0.0
C307 C 0.6113 0.25081 0.28754 0.0
C308 C 0.63641 0.24713 0.26865 0.0
C309 C 0.65618 0.25428 0.31196 0.0
C310 C 0.57986 0.26473 0.37271 0.0
C311 C 0.64242 0.23657 0.20166 0.0
C312 C 0.56327 0.21606 0.17806 0.0
C313 C 0.55651 0.23471 0.13414 0.0
C314 C 0.58004 0.22136 0.23091 0.0
C315 C 0.59042 0.24576 0.23929 0.0
C316 C 0.58246 0.26498 0.19742 0.0
C317 C 0.56543 0.25926 0.14578 0.0
C318 C 0.58771 0.20053 0.27547 0.0
C319 C 0.5931 0.29125 0.20459 0.0
H320 H 0.62275 0.27677 0.43995 0.0
H321 H 0.67538 0.25191 0.29691 0.0
H322 H 0.57052 0.27954 0.34399 0.0
H323 H 0.56883 0.24721 0.36407 0.0
H324 H 0.57926 0.27032 0.42532 0.0
H325 H 0.6629 0.23397 0.19555 0.0
H326 H 0.63294 0.21821 0.19254 0.0
H327 H 0.63525 0.24943 0.1639 0.0
H328 H 0.55651 0.19703 0.16925 0.0
H329 H 0.55982 0.27386 0.11273 0.0
H330 H 0.58731 0.20712 0.32731 0.0
H331 H 0.60725 0.19472 0.26553 0.0
H332 H 0.57533 0.18382 0.26844 0.0
H333 H 0.59118 0.29872 0.2553 0.0
H334 H 0.58371 0.3044 0.17071 0.0
H335 H 0.61344 0.29081 0.19448 0.0
C336 C 0.24218 0.15392 0.75691 0.0
C337 C 0.23129 0.15031 0.81725 0.0
C338 C 0.24911 0.13339 0.71674 0.0
C339 C 0.24539 0.10862 0.7378 0.0
C340 C 0.23514 0.10484 0.79952 0.0
C341 C 0.22803 0.12571 0.83828 0.0
C342 C 0.2598 0.1382 0.65093 0.0
C343 C 0.23126 0.07876 0.82411 0.0
C344 C 0.2385 0.0606 0.59834 0.0
C345 C 0.26325 0.05206 0.59259 0.0
C346 C 0.23211 0.07799 0.64781 0.0
C347 C 0.25088 0.08685 0.69314 0.0
C348 C 0.27539 0.0766 0.6911 0.0
C349 C 0.28133 0.05933 0.64059 0.0
C350 C 0.20572 0.0883 0.64831 0.0
C351 C 0.2958 0.08522 0.73933 0.0
H352 H 0.24478 0.17283 0.74029 0.0
H353 H 0.21994 0.12271 0.88526 0.0
H354 H 0.27831 0.12888 0.64659 0.0
H355 H 0.2472 0.13004 0.61168 0.0
H356 H 0.26216 0.15855 0.64258 0.0
H357 H 0.22505 0.07907 0.87536 0.0
H358 H 0.21689 0.06873 0.79287 0.0
H359 H 0.2489 0.06779 0.82111 0.0
H360 H 0.22444 0.05478 0.56159 0.0
H361 H 0.30052 0.05289 0.63612 0.0
H362 H 0.20593 0.10825 0.6343 0.0
H363 H 0.19814 0.08776 0.698 0.0
H364 H 0.19281 0.07773 0.61385 0.0
H365 H 0.30171 0.10453 0.7281 0.0
H366 H 0.31252 0.0728 0.73759 0.0
H367 H 0.28878 0.08584 0.78974 0.0
C368 C 0.35141 0.73925 0.31862 0.0
C369 C 0.35489 0.72678 0.37738 0.0
C370 C 0.37193 0.74593 0.28163 0.0
C371 C 0.39659 0.74023 0.30416 0.0
C372 C 0.40033 0.72807 0.36396 0.0
C373 C 0.37943 0.72137 0.39972 0.0
C374 C 0.36715 0.75874 0.21777 0.0
C375 C 0.42636 0.72193 0.38978 0.0
C376 C 0.44232 0.73595 0.16704 0.0
C377 C 0.45172 0.76054 0.16756 0.0
C378 C 0.42557 0.72853 0.21408 0.0
C379 C 0.41821 0.74609 0.2631 0.0
C380 C 0.42941 0.77023 0.26736 0.0
C381 C 0.44606 0.77721 0.2193 0.0
C382 C 0.41418 0.70257 0.20791 0.0
C383 C 0.42232 0.78935 0.31951 0.0
H384 H 0.33258 0.74352 0.30089 0.0
H385 H 0.38237 0.71196 0.44538 0.0
H386 H 0.37727 0.77694 0.21825 0.0
H387 H 0.37446 0.74695 0.17698 0.0
H388 H 0.34688 0.76227 0.20778 0.0
H389 H 0.42614 0.71363 0.43876 0.0
H390 H 0.43551 0.70846 0.35566 0.0
H391 H 0.43811 0.73914 0.39297 0.0
H392 H 0.44693 0.72297 0.12737 0.0
H393 H 0.4532 0.79627 0.21966 0.0
H394 H 0.39421 0.70404 0.19154 0.0
H395 H 0.41463 0.6935 0.25583 0.0
H396 H 0.42405 0.69027 0.17222 0.0
H397 H 0.40317 0.79651 0.30838 0.0
H398 H 0.43548 0.80554 0.32256 0.0
H399 H 0.42198 0.78067 0.36792 0.0
C400 C 0.75888 0.85367 0.77544 0.0
C401 C 0.7704 0.85633 0.83764 0.0
C402 C 0.75248 0.87478 0.73928 0.0
C403 C 0.75743 0.89918 0.76627 0.0
C404 C 0.76837 0.90204 0.82975 0.0
C405 C 0.77487 0.88059 0.86451 0.0
C406 C 0.74097 0.87093 0.67145 0.0
C407 C 0.77359 0.92772 0.86047 0.0
C408 C 0.76389 0.9467 0.63506 0.0
C409 C 0.73913 0.9553 0.62807 0.0
C410 C 0.77066 0.92976 0.6834 0.0
C411 C 0.75224 0.92147 0.72611 0.0
C412 C 0.72795 0.93227 0.72385 0.0
C413 C 0.72164 0.94908 0.67458 0.0
C414 C 0.79682 0.91888 0.68432 0.0
C415 C 0.70793 0.92432 0.7694 0.0
H416 H 0.75536 0.83505 0.75427 0.0
H417 H 0.7835 0.88289 0.91288 0.0
H418 H 0.72272 0.88088 0.66775 0.0
H419 H 0.75343 0.87904 0.63518 0.0
H420 H 0.73785 0.85077 0.65813 0.0
H421 H 0.78042 0.92676 0.91206 0.0
H422 H 0.78797 0.93744 0.8325 0.0
H423 H 0.75636 0.93939 0.8587 0.0
H424 H 0.77745 0.95163 0.59923 0.0
H425 H 0.70244 0.95559 0.66905 0.0
H426 H 0.79607 0.8992 0.66489 0.0
H427 H 0.80473 0.91854 0.73493 0.0
H428 H 0.80974 0.92965 0.65416 0.0
H429 H 0.70088 0.90542 0.75369 0.0
H430 H 0.69181 0.93754 0.76947 0.0
H431 H 0.71569 0.92304 0.82 0.0
C432 C 0.84975 0.76009 0.7712 0.0
C433 C 0.85301 0.77122 0.83376 0.0
C434 C 0.87049 0.75335 0.73391 0.0
C435 C 0.8951 0.75744 0.76022 0.0
C436 C 0.89853 0.76784 0.82422 0.0
C437 C 0.87745 0.7748 0.86002 0.0
C438 C 0.86603 0.74252 0.66553 0.0
C439 C 0.92445 0.77205 0.85436 0.0
C440 C 0.94438 0.72201 0.66444 0.0
C441 C 0.95118 0.74014 0.62023 0.0
C442 C 0.92743 0.72784 0.7139 0.0
C443 C 0.91703 0.75228 0.71863 0.0
C444 C 0.92558 0.77116 0.67769 0.0
C445 C 0.94268 0.76488 0.62928 0.0
C446 C 0.9192 0.70734 0.75762 0.0
C447 C 0.91507 0.79748 0.68116 0.0
H448 H 0.83096 0.75726 0.75057 0.0
H449 H 0.88014 0.78308 0.90874 0.0
H450 H 0.87415 0.75518 0.62978 0.0
H451 H 0.8756 0.72411 0.66006 0.0
H452 H 0.84576 0.73988 0.65299 0.0
H453 H 0.92388 0.778 0.90673 0.0
H454 H 0.93577 0.75463 0.84994 0.0
H455 H 0.93427 0.78676 0.82783 0.0
H456 H 0.95083 0.70283 0.65746 0.0
H457 H 0.94818 0.779 0.59555 0.0
H458 H 0.90007 0.70096 0.74205 0.0
H459 H 0.91834 0.71444 0.80897 0.0
H460 H 0.932 0.69089 0.75554 0.0
H461 H 0.89517 0.79715 0.66357 0.0
H462 H 0.92559 0.81055 0.65089 0.0
H463 H 0.91547 0.80496 0.73228 0.0
C464 C 0.73073 0.3738 0.39905 0.0
C465 C 0.73494 0.34868 0.37949 0.0
C466 C 0.73782 0.39359 0.36006 0.0
C467 C 0.74905 0.38813 0.29961 0.0
C468 C 0.754 0.36288 0.28042 0.0
C469 C 0.74704 0.34346 0.32083 0.0
C470 C 0.73262 0.42029 0.38267 0.0
C471 C 0.76573 0.3563 0.21596 0.0
C472 C 0.73952 0.43289 0.16145 0.0
C473 C 0.76332 0.44393 0.15821 0.0
C474 C 0.7345 0.41518 0.20827 0.0
C475 C 0.75366 0.40857 0.25379 0.0
C476 C 0.77735 0.42061 0.25315 0.0
C477 C 0.78194 0.43813 0.20511 0.0
C478 C 0.70898 0.40281 0.20731 0.0
C479 C 0.79809 0.41428 0.30158 0.0
H480 H 0.72172 0.37803 0.4448 0.0
H481 H 0.75038 0.32412 0.30541 0.0
H482 H 0.74973 0.43198 0.37937 0.0
H483 H 0.71792 0.4285 0.3504 0.0
H484 H 0.72617 0.42148 0.43369 0.0
H485 H 0.76963 0.33589 0.20992 0.0
H486 H 0.75295 0.36196 0.17531 0.0
H487 H 0.78355 0.36677 0.2116 0.0
H488 H 0.7249 0.43769 0.12609 0.0
H489 H 0.80041 0.44651 0.20267 0.0
H490 H 0.70048 0.40509 0.25584 0.0
H491 H 0.71095 0.38236 0.19667 0.0
H492 H 0.69589 0.4107 0.17009 0.0
H493 H 0.79111 0.41536 0.35202 0.0
H494 H 0.81448 0.42704 0.29877 0.0
H495 H 0.80448 0.39473 0.29204 0.0
C496 C 0.12228 0.2291 0.85027 0.0
C497 C 0.14648 0.23332 0.82755 0.0
C498 C 0.10081 0.23556 0.81312 0.0
C499 C 0.10362 0.24609 0.75134 0.0
C500 C 0.12798 0.25097 0.7289 0.0
C501 C 0.14909 0.2447 0.76749 0.0
C502 C 0.07518 0.23054 0.8392 0.0
C503 C 0.13179 0.262 0.66297 0.0
C504 C 0.05688 0.23681 0.61075 0.0
C505 C 0.04785 0.2613 0.60363 0.0
C506 C 0.0737 0.23109 0.66191 0.0
C507 C 0.08142 0.25032 0.7074 0.0
C508 C 0.07026 0.27441 0.70444 0.0
C509 C 0.05359 0.27967 0.65223 0.0
C510 C 0.08501 0.20512 0.66334 0.0
C511 C 0.07758 0.29524 0.75292 0.0
H512 H 0.12008 0.22061 0.89709 0.0
H513 H 0.16769 0.24804 0.7496 0.0
H514 H 0.06309 0.24739 0.83497 0.0
H515 H 0.06594 0.21512 0.80977 0.0
H516 H 0.07616 0.2251 0.89106 0.0
H517 H 0.15191 0.26542 0.6537 0.0
H518 H 0.12406 0.24903 0.62392 0.0
H519 H 0.12152 0.28002 0.65928 0.0
H520 H 0.05223 0.22255 0.57337 0.0
H521 H 0.04668 0.29865 0.64668 0.0
H522 H 0.08493 0.19784 0.71337 0.0
H523 H 0.10486 0.206 0.64868 0.0
H524 H 0.07483 0.19161 0.62966 0.0
H525 H 0.07886 0.28818 0.80322 0.0
H526 H 0.064 0.31105 0.75162 0.0
H527 H 0.09636 0.30255 0.74129 0.0
C528 C 0.27556 0.61959 0.40165 0.0
C529 C 0.27108 0.64371 0.37803 0.0
C530 C 0.26907 0.59793 0.36387 0.0
C531 C 0.25823 0.60044 0.30061 0.0
C532 C 0.25324 0.62471 0.27701 0.0
C533 C 0.25955 0.646 0.31614 0.0
C534 C 0.27426 0.5724 0.39112 0.0
C535 C 0.24185 0.62824 0.20954 0.0
C536 C 0.26488 0.55369 0.16002 0.0
C537 C 0.23998 0.54561 0.15009 0.0
C538 C 0.27171 0.56994 0.21273 0.0
C539 C 0.25322 0.57802 0.25687 0.0
C540 C 0.22884 0.56741 0.25156 0.0
C541 C 0.22246 0.55132 0.19792 0.0
C542 C 0.29798 0.5806 0.21667 0.0
C543 C 0.20875 0.57505 0.29851 0.0
H544 H 0.28423 0.6176 0.44971 0.0
H545 H 0.25603 0.6645 0.29739 0.0
H546 H 0.25723 0.56044 0.38607 0.0
H547 H 0.28917 0.56287 0.36301 0.0
H548 H 0.28042 0.57362 0.44338 0.0
H549 H 0.23875 0.64835 0.19899 0.0
H550 H 0.25437 0.62 0.17226 0.0
H551 H 0.2236 0.61828 0.20421 0.0
H552 H 0.27848 0.54911 0.12321 0.0
H553 H 0.20317 0.54518 0.19029 0.0
H554 H 0.30558 0.58093 0.26762 0.0
H555 H 0.29753 0.60027 0.2004 0.0
H556 H 0.31098 0.5697 0.18528 0.0
H557 H 0.21646 0.57636 0.34937 0.0
H558 H 0.19277 0.56163 0.29608 0.0
H559 H 0.20149 0.59388 0.28611 0.0
C560 C 0.35914 0.76314 0.69054 0.0
C561 C 0.35321 0.73753 0.68703 0.0
C562 C 0.37913 0.77216 0.73095 0.0
C563 C 0.39261 0.75525 0.77079 0.0
C564 C 0.38691 0.72926 0.76619 0.0
C565 C 0.36756 0.72066 0.7233 0.0
C566 C 0.38535 0.79981 0.73239 0.0
C567 C 0.40022 0.7107 0.80929 0.0
C568 C 0.45271 0.76976 0.86981 0.0
C569 C 0.44304 0.7753 0.93145 0.0
C570 C 0.43649 0.76483 0.81537 0.0
C571 C 0.41016 0.76487 0.82355 0.0
C572 C 0.40042 0.77191 0.88483 0.0
C573 C 0.41696 0.77758 0.9374 0.0
C574 C 0.44752 0.75848 0.75001 0.0
C575 C 0.37253 0.77187 0.89625 0.0
H576 H 0.34821 0.77608 0.66142 0.0
H577 H 0.36289 0.70084 0.72026 0.0
H578 H 0.37883 0.80881 0.77835 0.0
H579 H 0.40595 0.80264 0.73116 0.0
H580 H 0.37627 0.80951 0.69073 0.0
H581 H 0.39419 0.69104 0.79791 0.0
H582 H 0.42081 0.71194 0.80384 0.0
H583 H 0.39634 0.7153 0.8612 0.0
H584 H 0.47284 0.76825 0.86464 0.0
H585 H 0.40935 0.78284 0.98435 0.0
H586 H 0.43693 0.76796 0.71041 0.0
H587 H 0.44613 0.73795 0.73975 0.0
H588 H 0.46759 0.76398 0.74871 0.0
H589 H 0.36262 0.78427 0.86159 0.0
H590 H 0.36807 0.77824 0.94672 0.0
H591 H 0.36494 0.75262 0.88748 0.0
C592 C 0.74002 0.85496 0.15244 0.0
C593 C 0.76585 0.85144 0.14524 0.0
C594 C 0.73103 0.87392 0.19463 0.0
C595 C 0.74833 0.88896 0.23222 0.0
C596 C 0.77445 0.88581 0.22387 0.0
C597 C 0.78289 0.86732 0.17948 0.0
C598 C 0.70305 0.87731 0.20043 0.0
C599 C 0.79351 0.90097 0.26443 0.0
C600 C 0.72974 0.94801 0.328 0.0
C601 C 0.72682 0.93862 0.39049 0.0
C602 C 0.73564 0.9319 0.27499 0.0
C603 C 0.73934 0.906 0.28527 0.0
C604 C 0.7356 0.89633 0.34763 0.0
C605 C 0.72886 0.91264 0.39895 0.0
C606 C 0.7386 0.94269 0.20851 0.0
C607 C 0.73965 0.86886 0.36095 0.0
H608 H 0.72687 0.84284 0.12507 0.0
H609 H 0.80287 0.86448 0.17386 0.0
H610 H 0.69714 0.87069 0.24832 0.0
H611 H 0.69802 0.89748 0.19816 0.0
H612 H 0.69229 0.86668 0.16134 0.0
H613 H 0.81306 0.89705 0.24982 0.0
H614 H 0.78982 0.92133 0.26005 0.0
H615 H 0.79188 0.89657 0.31667 0.0
H616 H 0.72819 0.96801 0.32084 0.0
H617 H 0.72571 0.90502 0.44637 0.0
H618 H 0.72797 0.93127 0.17081 0.0
H619 H 0.75864 0.94214 0.19554 0.0
H620 H 0.732 0.96245 0.20682 0.0
H621 H 0.72702 0.85706 0.32879 0.0
H622 H 0.73619 0.86444 0.41249 0.0
H623 H 0.75922 0.86348 0.34989 0.0
C624 C 0.65227 0.2607 0.74633 0.0
C625 C 0.64889 0.27174 0.68559 0.0
C626 C 0.63162 0.25378 0.78257 0.0
C627 C 0.60696 0.25767 0.75708 0.0
C628 C 0.6034 0.26812 0.69498 0.0
C629 C 0.6244 0.2752 0.66017 0.0
C630 C 0.6362 0.24286 0.84895 0.0
C631 C 0.57742 0.27219 0.6658 0.0
C632 C 0.55797 0.22123 0.84537 0.0
C633 C 0.55096 0.23907 0.89316 0.0
C634 C 0.57493 0.22749 0.79731 0.0
C635 C 0.5851 0.25206 0.7976 0.0
C636 C 0.57636 0.27063 0.84228 0.0
C637 C 0.55928 0.26392 0.88931 0.0
C638 C 0.58343 0.20729 0.74964 0.0
C639 C 0.5866 0.29708 0.84414 0.0
H640 H 0.6711 0.25795 0.76632 0.0
H641 H 0.62159 0.28343 0.61284 0.0
H642 H 0.62795 0.25533 0.88703 0.0
H643 H 0.62683 0.22432 0.85101 0.0
H644 H 0.6565 0.24045 0.86101 0.0
H645 H 0.5779 0.27858 0.61481 0.0
H646 H 0.56634 0.25458 0.6663 0.0
H647 H 0.56741 0.28651 0.69564 0.0
H648 H 0.55166 0.20197 0.84839 0.0
H649 H 0.55365 0.27779 0.9259 0.0
H650 H 0.60267 0.20119 0.76391 0.0
H651 H 0.58415 0.21458 0.69967 0.0
H652 H 0.57089 0.19062 0.74857 0.0
H653 H 0.60648 0.29692 0.86193 0.0
H654 H 0.57589 0.30989 0.87683 0.0
H655 H 0.58622 0.30476 0.79451 0.0
C656 C 0.2331 0.12605 0.10603 0.0
C657 C 0.23652 0.15088 0.1297 0.0
C658 C 0.24028 0.10568 0.14407 0.0
C659 C 0.25063 0.11029 0.20768 0.0
C660 C 0.25469 0.1353 0.23117 0.0
C661 C 0.24779 0.15529 0.19165 0.0
C662 C 0.23618 0.07928 0.1169 0.0
C663 C 0.26542 0.14099 0.29909 0.0
C664 C 0.24188 0.06448 0.34197 0.0
C665 C 0.26637 0.05544 0.35186 0.0
C666 C 0.23623 0.08145 0.29295 0.0
C667 C 0.25545 0.08922 0.25201 0.0
C668 C 0.27973 0.07863 0.25827 0.0
C669 C 0.28497 0.06192 0.3085 0.0
C670 C 0.21008 0.09231 0.28797 0.0
C671 C 0.30056 0.08609 0.21456 0.0
H672 H 0.2247 0.12252 0.05778 0.0
H673 H 0.25046 0.17442 0.21025 0.0
H674 H 0.25351 0.06798 0.12337 0.0
H675 H 0.22123 0.07005 0.144 0.0
H676 H 0.23057 0.0789 0.06424 0.0
H677 H 0.26829 0.16143 0.309 0.0
H678 H 0.25254 0.13383 0.33573 0.0
H679 H 0.28367 0.1313 0.30612 0.0
H680 H 0.22732 0.0591 0.37458 0.0
H681 H 0.30395 0.05506 0.31598 0.0
H682 H 0.20259 0.09064 0.23697 0.0
H683 H 0.21072 0.11261 0.30195 0.0
H684 H 0.19685 0.0829 0.32015 0.0
H685 H 0.29384 0.08592 0.16281 0.0
H686 H 0.31705 0.07343 0.21894 0.0
H687 H 0.30674 0.10551 0.22795 0.0
C688 C 0.21841 0.32238 0.93199 0.0
C689 C 0.22356 0.30863 0.98807 0.0
C690 C 0.21453 0.34847 0.93627 0.0
C691 C 0.21588 0.36117 0.99806 0.0
C692 C 0.22151 0.34752 0.05467 0.0
C693 C 0.22526 0.32147 0.04904 0.0
C694 C 0.20854 0.36239 0.87474 0.0
C695 C 0.22317 0.36037 0.12142 0.0
C696 C 0.22469 0.43212 0.00281 0.0
C697 C 0.20006 0.4404 0.01066 0.0
C698 C 0.23023 0.40632 -0.00057 0.0
C699 C 0.21056 0.38859 0.00374 0.0
C700 C 0.18566 0.39708 0.01273 0.0
C701 C 0.18071 0.42296 0.016 0.0
C702 C 0.25699 0.39803 0.99005 0.0
C703 C 0.16419 0.37881 0.01764 0.0
H704 H 0.21703 0.31273 0.88466 0.0
H705 H 0.2293 0.31114 0.09278 0.0
H706 H 0.18962 0.37096 0.87759 0.0
H707 H 0.22216 0.3779 0.8697 0.0
H708 H 0.20898 0.34993 0.83027 0.0
H709 H 0.22863 0.34723 0.16035 0.0
H710 H 0.23707 0.37587 0.12189 0.0
H711 H 0.20476 0.36882 0.13321 0.0
H712 H 0.23953 0.44581 -0.00185 0.0
H713 H 0.16163 0.42958 0.02151 0.0
H714 H 0.25832 0.38713 0.94326 0.0
H715 H 0.26305 0.38547 0.02963 0.0
H716 H 0.27019 0.41416 0.98963 0.0
H717 H 0.16232 0.36709 0.97202 0.0
H718 H 0.14604 0.38846 0.02602 0.0
H719 H 0.16802 0.36594 0.05819 0.0
C720 C 0.18257 0.71896 0.45777 0.0
C721 C 0.19595 0.72382 0.51689 0.0
C722 C 0.15642 0.71552 0.45625 0.0
C723 C 0.14325 0.717 0.51521 0.0
C724 C 0.15653 0.72229 0.57488 0.0
C725 C 0.18266 0.72561 0.57503 0.0
C726 C 0.14293 0.70986 0.39162 0.0
C727 C 0.14317 0.72403 0.63877 0.0
C728 C 0.07251 0.7269 0.50421 0.0
C729 C 0.06375 0.70236 0.50985 0.0
C730 C 0.0984 0.73205 0.50665 0.0
C731 C 0.11572 0.7121 0.51466 0.0
C732 C 0.10674 0.6873 0.52119 0.0
C733 C 0.08078 0.68274 0.51864 0.0
C734 C 0.10723 0.75872 0.49976 0.0
C735 C 0.12455 0.66554 0.52986 0.0
H736 H 0.19255 0.71752 0.41255 0.0
H737 H 0.19271 0.72939 0.62106 0.0
H738 H 0.13395 0.69108 0.39223 0.0
H739 H 0.12777 0.72377 0.3834 0.0
H740 H 0.15575 0.71012 0.34994 0.0
H741 H 0.15606 0.72925 0.68063 0.0
H742 H 0.12792 0.73817 0.63609 0.0
H743 H 0.13433 0.70572 0.64836 0.0
H744 H 0.05913 0.74197 0.49709 0.0
H745 H 0.07379 0.66375 0.52266 0.0
H746 H 0.11869 0.75996 0.4557 0.0
H747 H 0.11941 0.76454 0.54243 0.0
H748 H 0.09137 0.77215 0.4957 0.0
H749 H 0.13671 0.6636 0.48703 0.0
H750 H 0.11452 0.6475 0.53553 0.0
H751 H 0.13702 0.66909 0.57348 0.0
C752 C 0.77664 0.68286 0.02821 0.0
C753 C 0.77704 0.69581 0.96967 0.0
C754 C 0.77974 0.65678 0.02902 0.0
C755 C 0.78335 0.64306 0.9698 0.0
C756 C 0.78343 0.65582 0.91028 0.0
C757 C 0.78027 0.68207 0.91087 0.0
C758 C 0.77948 0.64394 0.09367 0.0
C759 C 0.7872 0.64178 0.84622 0.0
C760 C 0.81562 0.58096 -0.00058 0.0
C761 C 0.79502 0.56489 0.00281 0.0
C762 C 0.81226 0.60621 0.98371 0.0
C763 C 0.78768 0.61546 0.97161 0.0
C764 C 0.76699 0.59872 0.97092 0.0
C765 C 0.77093 0.57355 0.98691 0.0
C766 C 0.83482 0.62338 0.98498 0.0
C767 C 0.74053 0.60777 0.95804 0.0
H768 H 0.77405 0.69313 0.07401 0.0
H769 H 0.78063 0.69183 0.86537 0.0
H770 H 0.76473 0.62923 0.09232 0.0
H771 H 0.79775 0.63453 0.10299 0.0
H772 H 0.77598 0.65728 0.13518 0.0
H773 H 0.78573 0.65426 0.80393 0.0
H774 H 0.80598 0.63279 0.84673 0.0
H775 H 0.77308 0.62656 0.83927 0.0
H776 H 0.83423 0.5741 0.01224 0.0
H777 H 0.75505 0.56097 0.99003 0.0
H778 H 0.83439 0.63613 0.02882 0.0
H779 H 0.83442 0.63526 0.94155 0.0
H780 H 0.85275 0.61275 0.98645 0.0
H781 H 0.73436 0.6193 0.00064 0.0
H782 H 0.72714 0.59193 0.94963 0.0
H783 H 0.73966 0.61985 0.91498 0.0
C784 C 0.82169 0.28327 0.60677 0.0
C785 C 0.80804 0.27868 0.54789 0.0
C786 C 0.84786 0.28683 0.60745 0.0
C787 C 0.86064 0.2858 0.5479 0.0
C788 C 0.84704 0.28077 0.48856 0.0
C789 C 0.821 0.27727 0.48928 0.0
C790 C 0.86177 0.29209 0.67165 0.0
C791 C 0.85995 0.27951 0.42391 0.0
C792 C 0.92218 0.31937 0.52361 0.0
C793 C 0.93894 0.29923 0.5212 0.0
C794 C 0.89677 0.31547 0.53631 0.0
C795 C 0.8881 0.2908 0.54647 0.0
C796 C 0.90541 0.27061 0.54755 0.0
C797 C 0.93073 0.27509 0.53455 0.0
C798 C 0.87897 0.3375 0.53468 0.0
C799 C 0.89695 0.24408 0.55844 0.0
H800 H 0.81193 0.28439 0.65236 0.0
H801 H 0.81077 0.27366 0.44345 0.0
H802 H 0.87729 0.27844 0.67804 0.0
H803 H 0.87032 0.31108 0.67186 0.0
H804 H 0.8493 0.2911 0.71394 0.0
H805 H 0.84676 0.2748 0.38232 0.0
H806 H 0.86888 0.29784 0.41504 0.0
H807 H 0.87504 0.26518 0.42494 0.0
H808 H 0.92871 0.33801 0.51271 0.0
H809 H 0.94386 0.25955 0.53212 0.0
H810 H 0.86698 0.3378 0.57798 0.0
H811 H 0.86635 0.33561 0.49074 0.0
H812 H 0.88904 0.35572 0.5333 0.0
H813 H 0.88479 0.24354 0.60133 0.0
H814 H 0.91305 0.23116 0.56611 0.0
H815 H 0.88565 0.23705 0.51531 0.0
C816 C 0.72277 0.18265 0.60618 0.0
C817 C 0.72366 0.19479 0.54648 0.0
C818 C 0.71891 0.15659 0.60812 0.0
C819 C 0.7158 0.1423 0.54901 0.0
C820 C 0.71706 0.15434 0.48866 0.0
C821 C 0.72099 0.18037 0.48812 0.0
C822 C 0.71777 0.14439 0.67339 0.0
C823 C 0.71378 0.13979 0.42449 0.0
C824 C 0.72458 0.07147 0.53941 0.0
C825 C 0.69967 0.06323 0.53557 0.0
C826 C 0.73021 0.0972 0.54673 0.0
C827 C 0.71037 0.11489 0.5497 0.0
C828 C 0.68516 0.10637 0.54826 0.0
C829 C 0.68012 0.08055 0.54107 0.0
C830 C 0.75729 0.10551 0.54833 0.0
C831 C 0.66349 0.12458 0.55124 0.0
H832 H 0.72484 0.19353 0.65161 0.0
H833 H 0.72164 0.18945 0.44167 0.0
H834 H 0.69891 0.13607 0.67899 0.0
H835 H 0.73159 0.12886 0.67612 0.0
H836 H 0.72162 0.15792 0.71486 0.0
H837 H 0.71592 0.15184 0.3818 0.0
H838 H 0.72776 0.12439 0.42166 0.0
H839 H 0.69489 0.13102 0.42107 0.0
H840 H 0.73961 0.05788 0.53458 0.0
H841 H 0.66086 0.07397 0.53749 0.0
H842 H 0.76112 0.11869 0.59045 0.0
H843 H 0.76116 0.1157 0.50339 0.0
H844 H 0.77047 0.08941 0.55163 0.0
H845 H 0.66599 0.13776 0.59395 0.0
H846 H 0.64515 0.11487 0.55455 0.0
H847 H 0.66295 0.13597 0.50687 0.0
C848 C 0.31997 0.22408 0.91255 0.0
C849 C 0.30774 0.22459 0.97232 0.0
C850 C 0.34603 0.22031 0.90997 0.0
C851 C 0.3602 0.21689 0.96849 0.0
C852 C 0.34808 0.21779 0.02899 0.0
C853 C 0.32206 0.22165 0.03019 0.0
C854 C 0.35832 0.21955 0.84458 0.0
C855 C 0.36253 0.21418 0.09252 0.0
C856 C 0.42179 0.18113 0.96804 0.0
C857 C 0.43919 0.20064 0.97687 0.0
C858 C 0.39599 0.18622 0.96281 0.0
C859 C 0.38757 0.21144 0.96676 0.0
C860 C 0.40532 0.23125 0.97347 0.0
C861 C 0.43103 0.22556 0.97869 0.0
C862 C 0.37771 0.16458 0.95575 0.0
C863 C 0.3971 0.25835 0.97764 0.0
H864 H 0.30917 0.22638 0.86751 0.0
H865 H 0.31291 0.22201 0.07668 0.0
H866 H 0.37389 0.23337 0.84474 0.0
H867 H 0.36658 0.20071 0.83515 0.0
H868 H 0.34487 0.22365 0.80386 0.0
H869 H 0.35044 0.21613 0.13557 0.0
H870 H 0.37121 0.19525 0.09223 0.0
H871 H 0.37797 0.22811 0.09815 0.0
H872 H 0.42833 0.16184 0.96713 0.0
H873 H 0.4447 0.24056 0.98598 0.0
H874 H 0.36464 0.16724 0.91341 0.0
H875 H 0.36622 0.16394 -0.0001 0.0
H876 H 0.38734 0.14622 0.94912 0.0
H877 H 0.38407 0.2625 0.93616 0.0
H878 H 0.41323 0.27154 0.97745 0.0
H879 H 0.38675 0.26187 0.02318 0.0
C880 C 0.28279 0.81834 0.44994 0.0
C881 C 0.28044 0.80709 0.51043 0.0
C882 C 0.28625 0.84439 0.44608 0.0
C883 C 0.28738 0.85961 0.50404 0.0
C884 C 0.28466 0.84847 0.56511 0.0
C885 C 0.28125 0.8224 0.56759 0.0
C886 C 0.28911 0.85558 0.38001 0.0
C887 C 0.28574 0.86406 0.62801 0.0
C888 C 0.32166 0.92202 0.49914 0.0
C889 C 0.30171 0.93881 0.49198 0.0
C890 C 0.31723 0.89618 0.50374 0.0
C891 C 0.29223 0.88707 0.50095 0.0
C892 C 0.27199 0.90417 0.49458 0.0
C893 C 0.27701 0.92995 0.49001 0.0
C894 C 0.33931 0.87859 0.51055 0.0
C895 C 0.24511 0.8952 0.49164 0.0
H896 H 0.2822 0.80677 0.40546 0.0
H897 H 0.27943 0.81402 0.61466 0.0
H898 H 0.27488 0.8705 0.37251 0.0
H899 H 0.30785 0.8645 0.37756 0.0
H900 H 0.28704 0.84132 0.33947 0.0
H901 H 0.28244 0.85266 0.67134 0.0
H902 H 0.30439 0.87321 0.63439 0.0
H903 H 0.27149 0.87922 0.62618 0.0
H904 H 0.34076 0.92908 0.50014 0.0
H905 H 0.26167 0.94313 0.48398 0.0
H906 H 0.33936 0.865 0.46839 0.0
H907 H 0.3377 0.86759 0.55524 0.0
H908 H 0.35754 0.88874 0.51316 0.0
H909 H 0.24199 0.88227 0.44865 0.0
H910 H 0.23154 0.91096 0.48826 0.0
H911 H 0.24114 0.88449 0.53567 0.0
C912 C 0.6797 0.78418 0.90988 0.0
C913 C 0.69323 0.77967 0.9682 0.0
C914 C 0.65353 0.78782 0.90947 0.0
C915 C 0.64062 0.78696 0.96872 0.0
C916 C 0.6541 0.78195 0.02738 0.0
C917 C 0.68012 0.77836 0.02639 0.0
C918 C 0.63976 0.79303 0.84596 0.0
C919 C 0.6411 0.78089 0.09173 0.0
C920 C 0.57953 0.82113 -0.0005 0.0
C921 C 0.56256 0.80115 -0.00058 0.0
C922 C 0.60482 0.81699 0.98525 0.0
C923 C 0.61319 0.79223 0.97088 0.0
C924 C 0.59563 0.7722 0.96707 0.0
C925 C 0.57043 0.77692 0.9818 0.0
C926 C 0.62287 0.83886 0.99002 0.0
C927 C 0.60374 0.74559 0.9516 0.0
H928 H 0.68958 0.78522 0.86462 0.0
H929 H 0.69024 0.77481 0.0718 0.0
H930 H 0.62399 0.7796 0.83754 0.0
H931 H 0.63154 0.81216 0.84847 0.0
H932 H 0.65224 0.79167 0.80358 0.0
H933 H 0.65419 0.7761 0.13265 0.0
H934 H 0.63235 0.79931 0.10353 0.0
H935 H 0.62585 0.76669 0.08826 0.0
H936 H 0.57328 0.83985 0.01369 0.0
H937 H 0.55716 0.76149 0.98229 0.0
H938 H 0.63482 0.83891 0.94668 0.0
H939 H 0.63549 0.83702 0.03363 0.0
H940 H 0.61299 0.85718 0.99417 0.0
H941 H 0.61593 0.74491 0.90869 0.0
H942 H 0.58745 0.73287 0.94161 0.0
H943 H 0.61489 0.73841 0.99358 0.0
loop_
_geom_bond_atom_site_label_1
_geom_bond_atom_site_label_2
_geom_bond_distance
_geom_bond_site_symmetry_2
_ccdc_geom_bond_type
Sc0 O3 2.025 . S
Sc0 O10 2.105 . S
Sc0 O13 2.105 . S
Sc0 O16 2.105 . S
Sc0 O19 2.105 . S
Sc1 O3 2.025 . S
Sc1 O11 2.105 . S
Sc1 O15 2.105 1_554 S
Sc1 O17 2.105 . S
Sc1 O21 2.105 1_554 S
Sc2 O3 2.025 1_556 S
Sc2 O12 2.105 . S
Sc2 O14 2.105 . S
Sc2 O18 2.105 . S
Sc2 O20 2.105 . S
O3 Sc0 2.025 . S
O3 Sc1 2.025 . S
O3 Sc2 2.025 1_554 S
C4 O10 1.268 . S
C4 O20 1.268 1_554 S
C5 O11 1.268 . S
C5 O19 1.268 . S
C6 O12 1.268 . S
C6 O21 1.268 . S
C7 O13 1.268 . S
C7 O17 1.268 . S
C8 O14 1.268 1_554 S
C8 O16 1.268 . S
C9 O15 1.268 . S
C9 O18 1.268 . S
O10 Sc0 2.105 . S
O10 C4 1.268 . S
O11 Sc1 2.105 . S
O11 C5 1.268 . S
O12 Sc2 2.105 . S
O12 C6 1.268 . S
O13 Sc0 2.105 . S
O13 C7 1.268 . S
O14 Sc2 2.105 . S
O14 C8 1.268 1_556 S
O15 Sc1 2.105 1_556 S
O15 C9 1.268 . S
O16 Sc0 2.105 . S
O16 C8 1.268 . S
O17 Sc1 2.105 . S
O17 C7 1.268 . S
O18 Sc2 2.105 . S
O18 C9 1.268 . S
O19 Sc0 2.105 . S
O19 C5 1.268 . S
O20 Sc2 2.105 . S
O20 C4 1.268 1_556 S
O21 Sc1 2.105 1_556 S
O21 C6 1.268 . S
Sc22 O25 2.025 . S
Sc22 O32 2.105 . S
Sc22 O35 2.105 . S
Sc22 O38 2.105 . S
Sc22 O41 2.105 . S
Sc23 O25 2.025 . S
Sc23 O33 2.105 . S
Sc23 O37 2.105 . S
Sc23 O39 2.105 . S
Sc23 O43 2.105 . S
Sc24 O25 2.025 . S
Sc24 O34 2.105 . S
Sc24 O36 2.105 . S
Sc24 O40 2.105 . S
Sc24 O42 2.105 . S
O25 Sc22 2.025 . S
O25 Sc23 2.025 . S
O25 Sc24 2.025 . S
C26 O32 1.268 . S
C26 O42 1.268 . S
C27 O33 1.268 . S
C27 O41 1.268 . S
C28 O34 1.268 . S
C28 O43 1.268 . S
C29 O35 1.268 . S
C29 O39 1.268 . S
C30 O36 1.268 . S
C30 O38 1.268 . S
C31 O37 1.268 . S
C31 O40 1.268 . S
O32 Sc22 2.105 . S
O32 C26 1.268 . S
O33 Sc23 2.105 . S
O33 C27 1.268 . S
O34 Sc24 2.105 . S
O34 C28 1.268 . S
O35 Sc22 2.105 . S
O35 C29 1.268 . S
O36 Sc24 2.105 . S
O36 C30 1.268 . S
O37 Sc23 2.105 . S
O37 C31 1.268 . S
O38 Sc22 2.105 . S
O38 C30 1.268 . S
O39 Sc23 2.105 . S
O39 C29 1.268 . S
O40 Sc24 2.105 . S
O40 C31 1.268 . S
O41 Sc22 2.105 . S
O41 C27 1.268 . S
O42 Sc24 2.105 . S
O42 C26 1.268 . S
O43 Sc23 2.105 . S
O43 C28 1.268 . S
Sc44 O47 2.025 1_556 S
Sc44 O54 2.105 . S
Sc44 O57 2.105 . S
Sc44 O60 2.105 . S
Sc44 O63 2.105 . S
Sc45 O47 2.025 . S
Sc45 O55 2.105 1_554 S
Sc45 O59 2.105 . S
Sc45 O61 2.105 1_554 S
Sc45 O65 2.105 . S
Sc46 O47 2.025 . S
Sc46 O56 2.105 . S
Sc46 O58 2.105 . S
Sc46 O62 2.105 . S
Sc46 O64 2.105 . S
O47 Sc44 2.025 1_554 S
O47 Sc45 2.025 . S
O47 Sc46 2.025 . S
C48 O54 1.268 1_554 S
C48 O64 1.268 . S
C49 O55 1.268 . S
C49 O63 1.268 . S
C50 O56 1.268 . S
C50 O65 1.268 . S
C51 O57 1.268 . S
C51 O61 1.268 . S
C52 O58 1.268 . S
C52 O60 1.268 1_554 S
C53 O59 1.268 . S
C53 O62 1.268 . S
O54 Sc44 2.105 . S
O54 C48 1.268 1_556 S
O55 Sc45 2.105 1_556 S
O55 C49 1.268 . S
O56 Sc46 2.105 . S
O56 C50 1.268 . S
O57 Sc44 2.105 . S
O57 C51 1.268 . S
O58 Sc46 2.105 . S
O58 C52 1.268 . S
O59 Sc45 2.105 . S
O59 C53 1.268 . S
O60 Sc44 2.105 . S
O60 C52 1.268 1_556 S
O61 Sc45 2.105 1_556 S
O61 C51 1.268 . S
O62 Sc46 2.105 . S
O62 C53 1.268 . S
O63 Sc44 2.105 . S
O63 C49 1.268 . S
O64 Sc46 2.105 . S
O64 C48 1.268 . S
O65 Sc45 2.105 . S
O65 C50 1.268 . S
Sc66 O69 2.025 . S
Sc66 O76 2.105 . S
Sc66 O79 2.105 . S
Sc66 O82 2.105 . S
Sc66 O85 2.105 . S
Sc67 O69 2.025 . S
Sc67 O77 2.105 . S
Sc67 O81 2.105 . S
Sc67 O83 2.105 . S
Sc67 O87 2.105 . S
Sc68 O69 2.025 . S
Sc68 O78 2.105 . S
Sc68 O80 2.105 . S
Sc68 O84 2.105 . S
Sc68 O86 2.105 . S
O69 Sc66 2.025 . S
O69 Sc67 2.025 . S
O69 Sc68 2.025 . S
C70 O76 1.268 . S
C70 O86 1.268 . S
C71 O77 1.268 . S
C71 O85 1.268 . S
C72 O78 1.268 . S
C72 O87 1.268 . S
C73 O79 1.268 . S
C73 O83 1.268 . S
C74 O80 1.268 . S
C74 O82 1.268 . S
C75 O81 1.268 . S
C75 O84 1.268 . S
O76 Sc66 2.105 . S
O76 C70 1.268 . S
O77 Sc67 2.105 . S
O77 C71 1.268 . S
O78 Sc68 2.105 . S
O78 C72 1.268 . S
O79 Sc66 2.105 . S
O79 C73 1.268 . S
O80 Sc68 2.105 . S
O80 C74 1.268 . S
O81 Sc67 2.105 . S
O81 C75 1.268 . S
O82 Sc66 2.105 . S
O82 C74 1.268 . S
O83 Sc67 2.105 . S
O83 C73 1.268 . S
O84 Sc68 2.105 . S
O84 C75 1.268 . S
O85 Sc66 2.105 . S
O85 C71 1.268 . S
O86 Sc68 2.105 . S
O86 C70 1.268 . S
O87 Sc67 2.105 . S
O87 C72 1.268 . S
H88 C91 0.929 . S
H89 C94 0.929 . S
H90 C96 0.930 . S
C91 H88 0.929 . S
C91 C92 1.398 1_554 S
C91 C93 1.396 . S
C92 C91 1.398 1_556 S
C92 C96 1.407 . S
C93 C91 1.396 . S
C93 C94 1.394 . S
C94 H89 0.929 . S
C94 C93 1.394 . S
C94 C95 1.382 1_554 S
C95 C94 1.382 1_556 S
C95 C96 1.392 . S
C95 N97 1.420 . S
C96 H90 0.930 . S
C96 C92 1.407 . S
C96 C95 1.392 . S
N97 C95 1.420 . S
N97 C98 1.244 1_556 S
C98 N97 1.244 1_554 S
H99 C102 0.929 . S
H100 C105 0.929 . S
H101 C107 0.930 . S
C102 H99 0.929 . S
C102 C103 1.398 . S
C102 C104 1.396 . S
C103 C102 1.398 . S
C103 C107 1.407 . S
C104 C102 1.396 . S
C104 C105 1.394 . S
C105 H100 0.929 . S
C105 C104 1.394 . S
C105 C106 1.393 . S
C106 C105 1.393 . S
C106 C107 1.408 . S
C106 N108 1.393 1_655 S
C107 H101 0.930 . S
C107 C103 1.407 . S
C107 C106 1.408 . S
N108 C106 1.393 1_455 S
N108 C109 1.244 . S
C109 N108 1.244 . S
H110 C113 0.929 . S
H111 C116 0.929 . S
H112 C118 0.930 . S
C113 H110 0.929 . S
C113 C114 1.398 . S
C113 C115 1.396 1_554 S
C114 C113 1.398 . S
C114 C118 1.407 . S
C115 C113 1.396 1_556 S
C115 C116 1.394 . S
C116 H111 0.929 . S
C116 C115 1.394 . S
C116 C117 1.382 1_556 S
C117 C116 1.382 1_554 S
C117 C118 1.392 . S
C117 N119 1.420 . S
C118 H112 0.930 . S
C118 C114 1.407 . S
C118 C117 1.392 . S
N119 C117 1.420 . S
N119 C120 1.244 . S
C120 N119 1.244 . S
H121 C124 0.929 . S
H122 C127 0.929 . S
H123 C129 0.930 . S
C124 H121 0.929 . S
C124 C125 1.398 . S
C124 C126 1.396 . S
C125 C124 1.398 . S
C125 C129 1.407 . S
C126 C124 1.396 . S
C126 C127 1.394 . S
C127 H122 0.929 . S
C127 C126 1.394 . S
C127 C128 1.382 . S
C128 C127 1.382 . S
C128 C129 1.392 . S
C128 N130 1.420 1_455 S
C129 H123 0.930 . S
C129 C125 1.407 . S
C129 C128 1.392 . S
N130 C128 1.420 1_655 S
N130 C131 1.244 . S
C131 N130 1.244 . S
H132 C135 0.929 . S
H133 C138 0.929 . S
H134 C140 0.930 . S
C135 H132 0.929 . S
C135 C136 1.398 . S
C135 C137 1.396 . S
C136 C135 1.398 . S
C136 C140 1.407 . S
C137 C135 1.396 . S
C137 C138 1.394 . S
C138 H133 0.929 . S
C138 C137 1.394 . S
C138 C139 1.382 . S
C139 C138 1.382 . S
C139 C140 1.392 . S
C139 N141 1.420 1_565 S
C140 H134 0.930 . S
C140 C136 1.407 . S
C140 C139 1.392 . S
N141 C139 1.420 1_545 S
N141 C142 1.244 . S
C142 N141 1.244 . S
H143 C146 0.929 . S
H144 C149 0.929 . S
H145 C151 0.930 . S
C146 H143 0.929 . S
C146 C147 1.398 1_554 S
C146 C148 1.396 . S
C147 C146 1.398 1_556 S
C147 C151 1.407 . S
C148 C146 1.396 . S
C148 C149 1.394 . S
C149 H144 0.929 . S
C149 C148 1.394 . S
C149 C150 1.382 1_554 S
C150 C149 1.382 1_556 S
C150 C151 1.392 . S
C150 N152 1.420 . S
C151 H145 0.930 . S
C151 C147 1.407 . S
C151 C150 1.392 . S
N152 C150 1.420 . S
N152 C153 1.244 1_556 S
C153 N152 1.244 1_554 S
H154 C157 0.929 . S
H155 C160 0.929 . S
H156 C162 0.930 . S
C157 H154 0.929 . S
C157 C158 1.398 . S
C157 C159 1.396 . S
C158 C157 1.398 . S
C158 C162 1.407 . S
C159 C157 1.396 . S
C159 C160 1.394 . S
C160 H155 0.929 . S
C160 C159 1.394 . S
C160 C161 1.400 . S
C161 C160 1.400 . S
C161 C162 1.418 . S
C161 N163 1.378 1_545 S
C162 H156 0.930 . S
C162 C158 1.407 . S
C162 C161 1.418 . S
N163 C161 1.378 1_565 S
N163 C164 1.244 . S
C164 N163 1.244 . S
H165 C168 0.929 . S
H166 C171 0.929 . S
H167 C173 0.930 . S
C168 H165 0.929 . S
C168 C169 1.398 . S
C168 C170 1.396 1_554 S
C169 C168 1.398 . S
C169 C173 1.407 . S
C170 C168 1.396 1_556 S
C170 C171 1.394 . S
C171 H166 0.929 . S
C171 C170 1.394 . S
C171 C172 1.382 1_556 S
C172 C171 1.382 1_554 S
C172 C173 1.392 . S
C172 N174 1.420 . S
C173 H167 0.930 . S
C173 C169 1.407 . S
C173 C172 1.392 . S
N174 C172 1.420 . S
N174 C175 1.244 . S
C175 N174 1.244 . S
C176 C177 1.391 . S
C176 C178 1.394 . S
C176 H192 0.931 . S
C177 C176 1.391 . S
C177 C181 1.376 . S
C178 C176 1.394 . S
C178 C179 1.369 . S
C178 C182 1.531 . S
C179 C178 1.369 . S
C179 C180 1.410 . S
C179 C187 1.503 . S
C180 C179 1.410 . S
C180 C181 1.392 . S
C180 C183 1.511 . S
C181 C177 1.376 . S
C181 C180 1.392 . S
C181 H193 0.929 . S
C182 C178 1.531 . S
C182 H194 0.960 . S
C182 H195 0.962 . S
C182 H196 0.960 . S
C183 C180 1.511 . S
C183 H197 0.961 . S
C183 H198 0.961 . S
C183 H199 0.961 . S
C184 C185 1.370 . S
C184 C186 1.363 . S
C184 H200 0.931 . S
C185 C184 1.370 . S
C185 C189 1.408 . S
C186 C184 1.363 . S
C186 C187 1.370 . S
C186 C190 1.524 . S
C187 C179 1.503 . S
C187 C186 1.370 . S
C187 C188 1.403 . S
C188 C187 1.403 . S
C188 C189 1.404 . S
C188 C191 1.539 . S
C189 C185 1.408 . S
C189 C188 1.404 . S
C189 H201 0.930 . S
C190 C186 1.524 . S
C190 H202 0.956 . S
C190 H203 0.961 . S
C190 H204 0.961 . S
C191 C188 1.539 . S
C191 H205 0.958 . S
C191 H206 0.961 . S
C191 H207 0.960 . S
H192 C176 0.931 . S
H193 C181 0.929 . S
H194 C182 0.960 . S
H195 C182 0.962 . S
H196 C182 0.960 . S
H197 C183 0.961 . S
H198 C183 0.961 . S
H199 C183 0.961 . S
H200 C184 0.931 . S
H201 C189 0.930 . S
H202 C190 0.956 . S
H203 C190 0.961 . S
H204 C190 0.961 . S
H205 C191 0.958 . S
H206 C191 0.961 . S
H207 C191 0.960 . S
C208 C209 1.391 . S
C208 C210 1.394 . S
C208 H224 0.931 . S
C209 C208 1.391 . S
C209 C213 1.376 . S
C210 C208 1.394 . S
C210 C211 1.369 . S
C210 C214 1.531 . S
C211 C210 1.369 . S
C211 C212 1.410 . S
C211 C219 1.503 . S
C212 C211 1.410 . S
C212 C213 1.392 . S
C212 C215 1.511 . S
C213 C209 1.376 . S
C213 C212 1.392 . S
C213 H225 0.929 . S
C214 C210 1.531 . S
C214 H226 0.960 . S
C214 H227 0.962 . S
C214 H228 0.960 . S
C215 C212 1.511 . S
C215 H229 0.961 . S
C215 H230 0.961 . S
C215 H231 0.961 . S
C216 C217 1.370 . S
C216 C218 1.363 . S
C216 H232 0.931 . S
C217 C216 1.370 . S
C217 C221 1.408 . S
C218 C216 1.363 . S
C218 C219 1.370 . S
C218 C222 1.524 . S
C219 C211 1.503 . S
C219 C218 1.370 . S
C219 C220 1.403 . S
C220 C219 1.403 . S
C220 C221 1.404 . S
C220 C223 1.539 . S
C221 C217 1.408 . S
C221 C220 1.404 . S
C221 H233 0.930 . S
C222 C218 1.524 . S
C222 H234 0.956 . S
C222 H235 0.961 . S
C222 H236 0.961 . S
C223 C220 1.539 . S
C223 H237 0.958 . S
C223 H238 0.961 . S
C223 H239 0.960 . S
H224 C208 0.931 . S
H225 C213 0.929 . S
H226 C214 0.960 . S
H227 C214 0.962 . S
H228 C214 0.960 . S
H229 C215 0.961 . S
H230 C215 0.961 . S
H231 C215 0.961 . S
H232 C216 0.931 . S
H233 C221 0.930 . S
H234 C222 0.956 . S
H235 C222 0.961 . S
H236 C222 0.961 . S
H237 C223 0.958 . S
H238 C223 0.961 . S
H239 C223 0.960 . S
C240 C241 1.391 . S
C240 C242 1.394 . S
C240 H256 0.931 . S
C241 C240 1.391 . S
C241 C245 1.376 . S
C242 C240 1.394 . S
C242 C243 1.369 . S
C242 C246 1.531 . S
C243 C242 1.369 . S
C243 C244 1.410 . S
C243 C251 1.503 . S
C244 C243 1.410 . S
C244 C245 1.392 . S
C244 C247 1.511 . S
C245 C241 1.376 . S
C245 C244 1.392 . S
C245 H257 0.929 . S
C246 C242 1.531 . S
C246 H258 0.960 . S
C246 H259 0.962 . S
C246 H260 0.960 . S
C247 C244 1.511 . S
C247 H261 0.961 . S
C247 H262 0.961 . S
C247 H263 0.961 . S
C248 C249 1.370 . S
C248 C250 1.363 . S
C248 H264 0.931 . S
C249 C248 1.370 . S
C249 C253 1.408 . S
C250 C248 1.363 . S
C250 C251 1.370 . S
C250 C254 1.524 . S
C251 C243 1.503 . S
C251 C250 1.370 . S
C251 C252 1.403 . S
C252 C251 1.403 . S
C252 C253 1.404 . S
C252 C255 1.539 . S
C253 C249 1.408 . S
C253 C252 1.404 . S
C253 H265 0.930 . S
C254 C250 1.524 . S
C254 H266 0.956 . S
C254 H267 0.961 . S
C254 H268 0.961 . S
C255 C252 1.539 . S
C255 H269 0.958 . S
C255 H270 0.961 . S
C255 H271 0.960 . S
H256 C240 0.931 . S
H257 C245 0.929 . S
H258 C246 0.960 . S
H259 C246 0.962 . S
H260 C246 0.960 . S
H261 C247 0.961 . S
H262 C247 0.961 . S
H263 C247 0.961 . S
H264 C248 0.931 . S
H265 C253 0.930 . S
H266 C254 0.956 . S
H267 C254 0.961 . S
H268 C254 0.961 . S
H269 C255 0.958 . S
H270 C255 0.961 . S
H271 C255 0.960 . S
C272 C273 1.391 . S
C272 C274 1.394 . S
C272 H288 0.931 . S
C273 C272 1.391 . S
C273 C277 1.376 . S
C274 C272 1.394 . S
C274 C275 1.369 . S
C274 C278 1.531 . S
C275 C274 1.369 . S
C275 C276 1.410 . S
C275 C283 1.503 . S
C276 C275 1.410 . S
C276 C277 1.392 . S
C276 C279 1.511 . S
C277 C273 1.376 . S
C277 C276 1.392 . S
C277 H289 0.929 . S
C278 C274 1.531 . S
C278 H290 0.960 . S
C278 H291 0.962 . S
C278 H292 0.960 . S
C279 C276 1.511 . S
C279 H293 0.961 . S
C279 H294 0.961 . S
C279 H295 0.961 . S
C280 C281 1.370 . S
C280 C282 1.363 . S
C280 H296 0.931 . S
C281 C280 1.370 . S
C281 C285 1.408 . S
C282 C280 1.363 . S
C282 C283 1.370 . S
C282 C286 1.524 . S
C283 C275 1.503 . S
C283 C282 1.370 . S
C283 C284 1.403 . S
C284 C283 1.403 . S
C284 C285 1.404 . S
C284 C287 1.539 . S
C285 C281 1.408 . S
C285 C284 1.404 . S
C285 H297 0.930 . S
C286 C282 1.524 . S
C286 H298 0.956 . S
C286 H299 0.961 . S
C286 H300 0.961 . S
C287 C284 1.539 . S
C287 H301 0.958 . S
C287 H302 0.961 . S
C287 H303 0.960 . S
H288 C272 0.931 . S
H289 C277 0.929 . S
H290 C278 0.960 . S
H291 C278 0.962 . S
H292 C278 0.960 . S
H293 C279 0.961 . S
H294 C279 0.961 . S
H295 C279 0.961 . S
H296 C280 0.931 . S
H297 C285 0.930 . S
H298 C286 0.956 . S
H299 C286 0.961 . S
H300 C286 0.961 . S
H301 C287 0.958 . S
H302 C287 0.961 . S
H303 C287 0.960 . S
C304 C305 1.391 . S
C304 C306 1.394 . S
C304 H320 0.931 . S
C305 C304 1.391 . S
C305 C309 1.376 . S
C306 C304 1.394 . S
C306 C307 1.369 . S
C306 C310 1.531 . S
C307 C306 1.369 . S
C307 C308 1.410 . S
C307 C315 1.503 . S
C308 C307 1.410 . S
C308 C309 1.392 . S
C308 C311 1.511 . S
C309 C305 1.376 . S
C309 C308 1.392 . S
C309 H321 0.929 . S
C310 C306 1.531 . S
C310 H322 0.960 . S
C310 H323 0.962 . S
C310 H324 0.960 . S
C311 C308 1.511 . S
C311 H325 0.961 . S
C311 H326 0.961 . S
C311 H327 0.961 . S
C312 C313 1.370 . S
C312 C314 1.363 . S
C312 H328 0.931 . S
C313 C312 1.370 . S
C313 C317 1.408 . S
C314 C312 1.363 . S
C314 C315 1.370 . S
C314 C318 1.524 . S
C315 C307 1.503 . S
C315 C314 1.370 . S
C315 C316 1.403 . S
C316 C315 1.403 . S
C316 C317 1.404 . S
C316 C319 1.539 . S
C317 C313 1.408 . S
C317 C316 1.404 . S
C317 H329 0.930 . S
C318 C314 1.524 . S
C318 H330 0.956 . S
C318 H331 0.961 . S
C318 H332 0.961 . S
C319 C316 1.539 . S
C319 H333 0.958 . S
C319 H334 0.961 . S
C319 H335 0.960 . S
H320 C304 0.931 . S
H321 C309 0.929 . S
H322 C310 0.960 . S
H323 C310 0.962 . S
H324 C310 0.960 . S
H325 C311 0.961 . S
H326 C311 0.961 . S
H327 C311 0.961 . S
H328 C312 0.931 . S
H329 C317 0.930 . S
H330 C318 0.956 . S
H331 C318 0.961 . S
H332 C318 0.961 . S
H333 C319 0.958 . S
H334 C319 0.961 . S
H335 C319 0.960 . S
C336 C337 1.391 . S
C336 C338 1.394 . S
C336 H352 0.931 . S
C337 C336 1.391 . S
C337 C341 1.376 . S
C338 C336 1.394 . S
C338 C339 1.369 . S
C338 C342 1.531 . S
C339 C338 1.369 . S
C339 C340 1.410 . S
C339 C347 1.503 . S
C340 C339 1.410 . S
C340 C341 1.392 . S
C340 C343 1.511 . S
C341 C337 1.376 . S
C341 C340 1.392 . S
C341 H353 0.929 . S
C342 C338 1.531 . S
C342 H354 0.960 . S
C342 H355 0.962 . S
C342 H356 0.960 . S
C343 C340 1.511 . S
C343 H357 0.961 . S
C343 H358 0.961 . S
C343 H359 0.961 . S
C344 C345 1.370 . S
C344 C346 1.363 . S
C344 H360 0.931 . S
C345 C344 1.370 . S
C345 C349 1.408 . S
C346 C344 1.363 . S
C346 C347 1.370 . S
C346 C350 1.524 . S
C347 C339 1.503 . S
C347 C346 1.370 . S
C347 C348 1.403 . S
C348 C347 1.403 . S
C348 C349 1.404 . S
C348 C351 1.539 . S
C349 C345 1.408 . S
C349 C348 1.404 . S
C349 H361 0.930 . S
C350 C346 1.524 . S
C350 H362 0.956 . S
C350 H363 0.961 . S
C350 H364 0.961 . S
C351 C348 1.539 . S
C351 H365 0.958 . S
C351 H366 0.961 . S
C351 H367 0.960 . S
H352 C336 0.931 . S
H353 C341 0.929 . S
H354 C342 0.960 . S
H355 C342 0.962 . S
H356 C342 0.960 . S
H357 C343 0.961 . S
H358 C343 0.961 . S
H359 C343 0.961 . S
H360 C344 0.931 . S
H361 C349 0.930 . S
H362 C350 0.956 . S
H363 C350 0.961 . S
H364 C350 0.961 . S
H365 C351 0.958 . S
H366 C351 0.961 . S
H367 C351 0.960 . S
C368 C369 1.391 . S
C368 C370 1.394 . S
C368 H384 0.931 . S
C369 C368 1.391 . S
C369 C373 1.376 . S
C370 C368 1.394 . S
C370 C371 1.369 . S
C370 C374 1.531 . S
C371 C370 1.369 . S
C371 C372 1.410 . S
C371 C379 1.503 . S
C372 C371 1.410 . S
C372 C373 1.392 . S
C372 C375 1.511 . S
C373 C369 1.376 . S
C373 C372 1.392 . S
C373 H385 0.929 . S
C374 C370 1.531 . S
C374 H386 0.960 . S
C374 H387 0.962 . S
C374 H388 0.960 . S
C375 C372 1.511 . S
C375 H389 0.961 . S
C375 H390 0.961 . S
C375 H391 0.961 . S
C376 C377 1.370 . S
C376 C378 1.363 . S
C376 H392 0.931 . S
C377 C376 1.370 . S
C377 C381 1.408 . S
C378 C376 1.363 . S
C378 C379 1.370 . S
C378 C382 1.524 . S
C379 C371 1.503 . S
C379 C378 1.370 . S
C379 C380 1.403 . S
C380 C379 1.403 . S
C380 C381 1.404 . S
C380 C383 1.539 . S
C381 C377 1.408 . S
C381 C380 1.404 . S
C381 H393 0.930 . S
C382 C378 1.524 . S
C382 H394 0.956 . S
C382 H395 0.961 . S
C382 H396 0.961 . S
C383 C380 1.539 . S
C383 H397 0.958 . S
C383 H398 0.961 . S
C383 H399 0.960 . S
H384 C368 0.931 . S
H385 C373 0.929 . S
H386 C374 0.960 . S
H387 C374 0.962 . S
H388 C374 0.960 . S
H389 C375 0.961 . S
H390 C375 0.961 . S
H391 C375 0.961 . S
H392 C376 0.931 . S
H393 C381 0.930 . S
H394 C382 0.956 . S
H395 C382 0.961 . S
H396 C382 0.961 . S
H397 C383 0.958 . S
H398 C383 0.961 . S
H399 C383 0.960 . S
C400 C401 1.391 . S
C400 C402 1.394 . S
C400 H416 0.931 . S
C401 C400 1.391 . S
C401 C405 1.376 . S
C402 C400 1.394 . S
C402 C403 1.369 . S
C402 C406 1.531 . S
C403 C402 1.369 . S
C403 C404 1.410 . S
C403 C411 1.503 . S
C404 C403 1.410 . S
C404 C405 1.392 . S
C404 C407 1.511 . S
C405 C401 1.376 . S
C405 C404 1.392 . S
C405 H417 0.929 . S
C406 C402 1.531 . S
C406 H418 0.960 . S
C406 H419 0.962 . S
C406 H420 0.960 . S
C407 C404 1.511 . S
C407 H421 0.961 . S
C407 H422 0.961 . S
C407 H423 0.961 . S
C408 C409 1.370 . S
C408 C410 1.363 . S
C408 H424 0.931 . S
C409 C408 1.370 . S
C409 C413 1.408 . S
C410 C408 1.363 . S
C410 C411 1.370 . S
C410 C414 1.524 . S
C411 C403 1.503 . S
C411 C410 1.370 . S
C411 C412 1.403 . S
C412 C411 1.403 . S
C412 C413 1.404 . S
C412 C415 1.539 . S
C413 C409 1.408 . S
C413 C412 1.404 . S
C413 H425 0.930 . S
C414 C410 1.524 . S
C414 H426 0.956 . S
C414 H427 0.961 . S
C414 H428 0.961 . S
C415 C412 1.539 . S
C415 H429 0.958 . S
C415 H430 0.961 . S
C415 H431 0.960 . S
H416 C400 0.931 . S
H417 C405 0.929 . S
H418 C406 0.960 . S
H419 C406 0.962 . S
H420 C406 0.960 . S
H421 C407 0.961 . S
H422 C407 0.961 . S
H423 C407 0.961 . S
H424 C408 0.931 . S
H425 C413 0.930 . S
H426 C414 0.956 . S
H427 C414 0.961 . S
H428 C414 0.961 . S
H429 C415 0.958 . S
H430 C415 0.961 . S
H431 C415 0.960 . S
C432 C433 1.391 . S
C432 C434 1.394 . S
C432 H448 0.931 . S
C433 C432 1.391 . S
C433 C437 1.376 . S
C434 C432 1.394 . S
C434 C435 1.369 . S
C434 C438 1.531 . S
C435 C434 1.369 . S
C435 C436 1.410 . S
C435 C443 1.503 . S
C436 C435 1.410 . S
C436 C437 1.392 . S
C436 C439 1.511 . S
C437 C433 1.376 . S
C437 C436 1.392 . S
C437 H449 0.929 . S
C438 C434 1.531 . S
C438 H450 0.960 . S
C438 H451 0.962 . S
C438 H452 0.960 . S
C439 C436 1.511 . S
C439 H453 0.961 . S
C439 H454 0.961 . S
C439 H455 0.961 . S
C440 C441 1.370 . S
C440 C442 1.363 . S
C440 H456 0.931 . S
C441 C440 1.370 . S
C441 C445 1.408 . S
C442 C440 1.363 . S
C442 C443 1.370 . S
C442 C446 1.524 . S
C443 C435 1.503 . S
C443 C442 1.370 . S
C443 C444 1.403 . S
C444 C443 1.403 . S
C444 C445 1.404 . S
C444 C447 1.539 . S
C445 C441 1.408 . S
C445 C444 1.404 . S
C445 H457 0.930 . S
C446 C442 1.524 . S
C446 H458 0.956 . S
C446 H459 0.961 . S
C446 H460 0.961 . S
C447 C444 1.539 . S
C447 H461 0.958 . S
C447 H462 0.961 . S
C447 H463 0.960 . S
H448 C432 0.931 . S
H449 C437 0.929 . S
H450 C438 0.960 . S
H451 C438 0.962 . S
H452 C438 0.960 . S
H453 C439 0.961 . S
H454 C439 0.961 . S
H455 C439 0.961 . S
H456 C440 0.931 . S
H457 C445 0.930 . S
H458 C446 0.956 . S
H459 C446 0.961 . S
H460 C446 0.961 . S
H461 C447 0.958 . S
H462 C447 0.961 . S
H463 C447 0.960 . S
C464 C465 1.391 . S
C464 C466 1.394 . S
C464 H480 0.931 . S
C465 C464 1.391 . S
C465 C469 1.376 . S
C466 C464 1.394 . S
C466 C467 1.369 . S
C466 C470 1.531 . S
C467 C466 1.369 . S
C467 C468 1.410 . S
C467 C475 1.503 . S
C468 C467 1.410 . S
C468 C469 1.392 . S
C468 C471 1.511 . S
C469 C465 1.376 . S
C469 C468 1.392 . S
C469 H481 0.929 . S
C470 C466 1.531 . S
C470 H482 0.960 . S
C470 H483 0.962 . S
C470 H484 0.960 . S
C471 C468 1.511 . S
C471 H485 0.961 . S
C471 H486 0.961 . S
C471 H487 0.961 . S
C472 C473 1.370 . S
C472 C474 1.363 . S
C472 H488 0.931 . S
C473 C472 1.370 . S
C473 C477 1.408 . S
C474 C472 1.363 . S
C474 C475 1.370 . S
C474 C478 1.524 . S
C475 C467 1.503 . S
C475 C474 1.370 . S
C475 C476 1.403 . S
C476 C475 1.403 . S
C476 C477 1.404 . S
C476 C479 1.539 . S
C477 C473 1.408 . S
C477 C476 1.404 . S
C477 H489 0.930 . S
C478 C474 1.524 . S
C478 H490 0.956 . S
C478 H491 0.961 . S
C478 H492 0.961 . S
C479 C476 1.539 . S
C479 H493 0.958 . S
C479 H494 0.961 . S
C479 H495 0.960 . S
H480 C464 0.931 . S
H481 C469 0.929 . S
H482 C470 0.960 . S
H483 C470 0.962 . S
H484 C470 0.960 . S
H485 C471 0.961 . S
H486 C471 0.961 . S
H487 C471 0.961 . S
H488 C472 0.931 . S
H489 C477 0.930 . S
H490 C478 0.956 . S
H491 C478 0.961 . S
H492 C478 0.961 . S
H493 C479 0.958 . S
H494 C479 0.961 . S
H495 C479 0.960 . S
C496 C497 1.391 . S
C496 C498 1.394 . S
C496 H512 0.931 . S
C497 C496 1.391 . S
C497 C501 1.376 . S
C498 C496 1.394 . S
C498 C499 1.369 . S
C498 C502 1.531 . S
C499 C498 1.369 . S
C499 C500 1.410 . S
C499 C507 1.503 . S
C500 C499 1.410 . S
C500 C501 1.392 . S
C500 C503 1.511 . S
C501 C497 1.376 . S
C501 C500 1.392 . S
C501 H513 0.929 . S
C502 C498 1.531 . S
C502 H514 0.960 . S
C502 H515 0.962 . S
C502 H516 0.960 . S
C503 C500 1.511 . S
C503 H517 0.961 . S
C503 H518 0.961 . S
C503 H519 0.961 . S
C504 C505 1.370 . S
C504 C506 1.363 . S
C504 H520 0.931 . S
C505 C504 1.370 . S
C505 C509 1.408 . S
C506 C504 1.363 . S
C506 C507 1.370 . S
C506 C510 1.524 . S
C507 C499 1.503 . S
C507 C506 1.370 . S
C507 C508 1.403 . S
C508 C507 1.403 . S
C508 C509 1.404 . S
C508 C511 1.539 . S
C509 C505 1.408 . S
C509 C508 1.404 . S
C509 H521 0.930 . S
C510 C506 1.524 . S
C510 H522 0.956 . S
C510 H523 0.961 . S
C510 H524 0.961 . S
C511 C508 1.539 . S
C511 H525 0.958 . S
C511 H526 0.961 . S
C511 H527 0.960 . S
H512 C496 0.931 . S
H513 C501 0.929 . S
H514 C502 0.960 . S
H515 C502 0.962 . S
H516 C502 0.960 . S
H517 C503 0.961 . S
H518 C503 0.961 . S
H519 C503 0.961 . S
H520 C504 0.931 . S
H521 C509 0.930 . S
H522 C510 0.956 . S
H523 C510 0.961 . S
H524 C510 0.961 . S
H525 C511 0.958 . S
H526 C511 0.961 . S
H527 C511 0.960 . S
C528 C529 1.391 . S
C528 C530 1.394 . S
C528 H544 0.931 . S
C529 C528 1.391 . S
C529 C533 1.376 . S
C530 C528 1.394 . S
C530 C531 1.369 . S
C530 C534 1.531 . S
C531 C530 1.369 . S
C531 C532 1.410 . S
C531 C539 1.503 . S
C532 C531 1.410 . S
C532 C533 1.392 . S
C532 C535 1.511 . S
C533 C529 1.376 . S
C533 C532 1.392 . S
C533 H545 0.929 . S
C534 C530 1.531 . S
C534 H546 0.960 . S
C534 H547 0.962 . S
C534 H548 0.960 . S
C535 C532 1.511 . S
C535 H549 0.961 . S
C535 H550 0.961 . S
C535 H551 0.961 . S
C536 C537 1.370 . S
C536 C538 1.363 . S
C536 H552 0.931 . S
C537 C536 1.370 . S
C537 C541 1.408 . S
C538 C536 1.363 . S
C538 C539 1.370 . S
C538 C542 1.524 . S
C539 C531 1.503 . S
C539 C538 1.370 . S
C539 C540 1.403 . S
C540 C539 1.403 . S
C540 C541 1.404 . S
C540 C543 1.539 . S
C541 C537 1.408 . S
C541 C540 1.404 . S
C541 H553 0.930 . S
C542 C538 1.524 . S
C542 H554 0.956 . S
C542 H555 0.961 . S
C542 H556 0.961 . S
C543 C540 1.539 . S
C543 H557 0.958 . S
C543 H558 0.961 . S
C543 H559 0.960 . S
H544 C528 0.931 . S
H545 C533 0.929 . S
H546 C534 0.960 . S
H547 C534 0.962 . S
H548 C534 0.960 . S
H549 C535 0.961 . S
H550 C535 0.961 . S
H551 C535 0.961 . S
H552 C536 0.931 . S
H553 C541 0.930 . S
H554 C542 0.956 . S
H555 C542 0.961 . S
H556 C542 0.961 . S
H557 C543 0.958 . S
H558 C543 0.961 . S
H559 C543 0.960 . S
C560 C561 1.391 . S
C560 C562 1.394 . S
C560 H576 0.931 . S
C561 C560 1.391 . S
C561 C565 1.376 . S
C562 C560 1.394 . S
C562 C563 1.369 . S
C562 C566 1.531 . S
C563 C562 1.369 . S
C563 C564 1.410 . S
C563 C571 1.503 . S
C564 C563 1.410 . S
C564 C565 1.392 . S
C564 C567 1.511 . S
C565 C561 1.376 . S
C565 C564 1.392 . S
C565 H577 0.929 . S
C566 C562 1.531 . S
C566 H578 0.960 . S
C566 H579 0.962 . S
C566 H580 0.960 . S
C567 C564 1.511 . S
C567 H581 0.961 . S
C567 H582 0.961 . S
C567 H583 0.961 . S
C568 C569 1.370 . S
C568 C570 1.363 . S
C568 H584 0.931 . S
C569 C568 1.370 . S
C569 C573 1.408 . S
C570 C568 1.363 . S
C570 C571 1.370 . S
C570 C574 1.524 . S
C571 C563 1.503 . S
C571 C570 1.370 . S
C571 C572 1.403 . S
C572 C571 1.403 . S
C572 C573 1.404 . S
C572 C575 1.539 . S
C573 C569 1.408 . S
C573 C572 1.404 . S
C573 H585 0.930 . S
C574 C570 1.524 . S
C574 H586 0.956 . S
C574 H587 0.961 . S
C574 H588 0.961 . S
C575 C572 1.539 . S
C575 H589 0.958 . S
C575 H590 0.961 . S
C575 H591 0.960 . S
H576 C560 0.931 . S
H577 C565 0.929 . S
H578 C566 0.960 . S
H579 C566 0.962 . S
H580 C566 0.960 . S
H581 C567 0.961 . S
H582 C567 0.961 . S
H583 C567 0.961 . S
H584 C568 0.931 . S
H585 C573 0.930 . S
H586 C574 0.956 . S
H587 C574 0.961 . S
H588 C574 0.961 . S
H589 C575 0.958 . S
H590 C575 0.961 . S
H591 C575 0.960 . S
C592 C593 1.391 . S
C592 C594 1.394 . S
C592 H608 0.931 . S
C593 C592 1.391 . S
C593 C597 1.376 . S
C594 C592 1.394 . S
C594 C595 1.369 . S
C594 C598 1.531 . S
C595 C594 1.369 . S
C595 C596 1.410 . S
C595 C603 1.503 . S
C596 C595 1.410 . S
C596 C597 1.392 . S
C596 C599 1.511 . S
C597 C593 1.376 . S
C597 C596 1.392 . S
C597 H609 0.929 . S
C598 C594 1.531 . S
C598 H610 0.960 . S
C598 H611 0.962 . S
C598 H612 0.960 . S
C599 C596 1.511 . S
C599 H613 0.961 . S
C599 H614 0.961 . S
C599 H615 0.961 . S
C600 C601 1.370 . S
C600 C602 1.363 . S
C600 H616 0.931 . S
C601 C600 1.370 . S
C601 C605 1.408 . S
C602 C600 1.363 . S
C602 C603 1.370 . S
C602 C606 1.524 . S
C603 C595 1.503 . S
C603 C602 1.370 . S
C603 C604 1.403 . S
C604 C603 1.403 . S
C604 C605 1.404 . S
C604 C607 1.539 . S
C605 C601 1.408 . S
C605 C604 1.404 . S
C605 H617 0.930 . S
C606 C602 1.524 . S
C606 H618 0.956 . S
C606 H619 0.961 . S
C606 H620 0.961 . S
C607 C604 1.539 . S
C607 H621 0.958 . S
C607 H622 0.961 . S
C607 H623 0.960 . S
H608 C592 0.931 . S
H609 C597 0.929 . S
H610 C598 0.960 . S
H611 C598 0.962 . S
H612 C598 0.960 . S
H613 C599 0.961 . S
H614 C599 0.961 . S
H615 C599 0.961 . S
H616 C600 0.931 . S
H617 C605 0.930 . S
H618 C606 0.956 . S
H619 C606 0.961 . S
H620 C606 0.961 . S
H621 C607 0.958 . S
H622 C607 0.961 . S
H623 C607 0.960 . S
C624 C625 1.391 . S
C624 C626 1.394 . S
C624 H640 0.931 . S
C625 C624 1.391 . S
C625 C629 1.376 . S
C626 C624 1.394 . S
C626 C627 1.369 . S
C626 C630 1.531 . S
C627 C626 1.369 . S
C627 C628 1.410 . S
C627 C635 1.503 . S
C628 C627 1.410 . S
C628 C629 1.392 . S
C628 C631 1.511 . S
C629 C625 1.376 . S
C629 C628 1.392 . S
C629 H641 0.929 . S
C630 C626 1.531 . S
C630 H642 0.960 . S
C630 H643 0.962 . S
C630 H644 0.960 . S
C631 C628 1.511 . S
C631 H645 0.961 . S
C631 H646 0.961 . S
C631 H647 0.961 . S
C632 C633 1.370 . S
C632 C634 1.363 . S
C632 H648 0.931 . S
C633 C632 1.370 . S
C633 C637 1.408 . S
C634 C632 1.363 . S
C634 C635 1.370 . S
C634 C638 1.524 . S
C635 C627 1.503 . S
C635 C634 1.370 . S
C635 C636 1.403 . S
C636 C635 1.403 . S
C636 C637 1.404 . S
C636 C639 1.539 . S
C637 C633 1.408 . S
C637 C636 1.404 . S
C637 H649 0.930 . S
C638 C634 1.524 . S
C638 H650 0.956 . S
C638 H651 0.961 . S
C638 H652 0.961 . S
C639 C636 1.539 . S
C639 H653 0.958 . S
C639 H654 0.961 . S
C639 H655 0.960 . S
H640 C624 0.931 . S
H641 C629 0.929 . S
H642 C630 0.960 . S
H643 C630 0.962 . S
H644 C630 0.960 . S
H645 C631 0.961 . S
H646 C631 0.961 . S
H647 C631 0.961 . S
H648 C632 0.931 . S
H649 C637 0.930 . S
H650 C638 0.956 . S
H651 C638 0.961 . S
H652 C638 0.961 . S
H653 C639 0.958 . S
H654 C639 0.961 . S
H655 C639 0.960 . S
C656 C657 1.391 . S
C656 C658 1.394 . S
C656 H672 0.931 . S
C657 C656 1.391 . S
C657 C661 1.376 . S
C658 C656 1.394 . S
C658 C659 1.369 . S
C658 C662 1.531 . S
C659 C658 1.369 . S
C659 C660 1.410 . S
C659 C667 1.503 . S
C660 C659 1.410 . S
C660 C661 1.392 . S
C660 C663 1.511 . S
C661 C657 1.376 . S
C661 C660 1.392 . S
C661 H673 0.929 . S
C662 C658 1.531 . S
C662 H674 0.960 . S
C662 H675 0.962 . S
C662 H676 0.960 . S
C663 C660 1.511 . S
C663 H677 0.961 . S
C663 H678 0.961 . S
C663 H679 0.961 . S
C664 C665 1.370 . S
C664 C666 1.363 . S
C664 H680 0.931 . S
C665 C664 1.370 . S
C665 C669 1.408 . S
C666 C664 1.363 . S
C666 C667 1.370 . S
C666 C670 1.524 . S
C667 C659 1.503 . S
C667 C666 1.370 . S
C667 C668 1.403 . S
C668 C667 1.403 . S
C668 C669 1.404 . S
C668 C671 1.539 . S
C669 C665 1.408 . S
C669 C668 1.404 . S
C669 H681 0.930 . S
C670 C666 1.524 . S
C670 H682 0.956 . S
C670 H683 0.961 . S
C670 H684 0.961 . S
C671 C668 1.539 . S
C671 H685 0.958 . S
C671 H686 0.961 . S
C671 H687 0.960 . S
H672 C656 0.931 . S
H673 C661 0.929 . S
H674 C662 0.960 . S
H675 C662 0.962 . S
H676 C662 0.960 . S
H677 C663 0.961 . S
H678 C663 0.961 . S
H679 C663 0.961 . S
H680 C664 0.931 . S
H681 C669 0.930 . S
H682 C670 0.956 . S
H683 C670 0.961 . S
H684 C670 0.961 . S
H685 C671 0.958 . S
H686 C671 0.961 . S
H687 C671 0.960 . S
C688 C689 1.391 1_556 S
C688 C690 1.394 . S
C688 H704 0.931 . S
C689 C688 1.391 1_554 S
C689 C693 1.376 . S
C690 C688 1.394 . S
C690 C691 1.369 1_556 S
C690 C694 1.531 . S
C691 C690 1.369 1_554 S
C691 C692 1.410 . S
C691 C699 1.503 . S
C692 C691 1.410 . S
C692 C693 1.392 . S
C692 C695 1.511 . S
C693 C689 1.376 . S
C693 C692 1.392 . S
C693 H705 0.929 . S
C694 C690 1.531 . S
C694 H706 0.960 . S
C694 H707 0.962 . S
C694 H708 0.960 . S
C695 C692 1.511 . S
C695 H709 0.961 . S
C695 H710 0.961 . S
C695 H711 0.961 . S
C696 C697 1.370 . S
C696 C698 1.363 . S
C696 H712 0.931 . S
C697 C696 1.370 . S
C697 C701 1.408 1_554 S
C698 C696 1.363 . S
C698 C699 1.370 . S
C698 C702 1.524 . S
C699 C691 1.503 . S
C699 C698 1.370 . S
C699 C700 1.403 1_554 S
C700 C699 1.403 1_556 S
C700 C701 1.404 . S
C700 C703 1.539 . S
C701 C697 1.408 1_556 S
C701 C700 1.404 . S
C701 H713 0.930 . S
C702 C698 1.524 . S
C702 H714 0.956 . S
C702 H715 0.961 . S
C702 H716 0.961 . S
C703 C700 1.539 . S
C703 H717 0.958 . S
C703 H718 0.961 . S
C703 H719 0.960 . S
H704 C688 0.931 . S
H705 C693 0.929 . S
H706 C694 0.960 . S
H707 C694 0.962 . S
H708 C694 0.960 . S
H709 C695 0.961 . S
H710 C695 0.961 . S
H711 C695 0.961 . S
H712 C696 0.931 . S
H713 C701 0.930 . S
H714 C702 0.956 . S
H715 C702 0.961 . S
H716 C702 0.961 . S
H717 C703 0.958 . S
H718 C703 0.961 . S
H719 C703 0.960 . S
C720 C721 1.391 . S
C720 C722 1.394 . S
C720 H736 0.931 . S
C721 C720 1.391 . S
C721 C725 1.376 . S
C722 C720 1.394 . S
C722 C723 1.369 . S
C722 C726 1.531 . S
C723 C722 1.369 . S
C723 C724 1.410 . S
C723 C731 1.503 . S
C724 C723 1.410 . S
C724 C725 1.392 . S
C724 C727 1.511 . S
C725 C721 1.376 . S
C725 C724 1.392 . S
C725 H737 0.929 . S
C726 C722 1.531 . S
C726 H738 0.960 . S
C726 H739 0.962 . S
C726 H740 0.960 . S
C727 C724 1.511 . S
C727 H741 0.961 . S
C727 H742 0.961 . S
C727 H743 0.961 . S
C728 C729 1.370 . S
C728 C730 1.363 . S
C728 H744 0.931 . S
C729 C728 1.370 . S
C729 C733 1.408 . S
C730 C728 1.363 . S
C730 C731 1.370 . S
C730 C734 1.524 . S
C731 C723 1.503 . S
C731 C730 1.370 . S
C731 C732 1.403 . S
C732 C731 1.403 . S
C732 C733 1.404 . S
C732 C735 1.539 . S
C733 C729 1.408 . S
C733 C732 1.404 . S
C733 H745 0.930 . S
C734 C730 1.524 . S
C734 H746 0.956 . S
C734 H747 0.961 . S
C734 H748 0.961 . S
C735 C732 1.539 . S
C735 H749 0.958 . S
C735 H750 0.961 . S
C735 H751 0.960 . S
H736 C720 0.931 . S
H737 C725 0.929 . S
H738 C726 0.960 . S
H739 C726 0.962 . S
H740 C726 0.960 . S
H741 C727 0.961 . S
H742 C727 0.961 . S
H743 C727 0.961 . S
H744 C728 0.931 . S
H745 C733 0.930 . S
H746 C734 0.956 . S
H747 C734 0.961 . S
H748 C734 0.961 . S
H749 C735 0.958 . S
H750 C735 0.961 . S
H751 C735 0.960 . S
C752 C753 1.391 . S
C752 C754 1.394 . S
C752 H768 0.931 . S
C753 C752 1.391 . S
C753 C757 1.376 1_554 S
C754 C752 1.394 . S
C754 C755 1.369 1_554 S
C754 C758 1.531 . S
C755 C754 1.369 1_556 S
C755 C756 1.410 . S
C755 C763 1.503 1_556 S
C756 C755 1.410 . S
C756 C757 1.392 . S
C756 C759 1.511 . S
C757 C753 1.376 1_556 S
C757 C756 1.392 . S
C757 H769 0.929 . S
C758 C754 1.531 . S
C758 H770 0.960 1_554 S
C758 H771 0.962 . S
C758 H772 0.960 1_554 S
C759 C756 1.511 . S
C759 H773 0.961 1_556 S
C759 H774 0.961 1_556 S
C759 H775 0.961 . S
C760 C761 1.370 . S
C760 C762 1.363 . S
C760 H776 0.931 . S
C761 C760 1.370 . S
C761 C765 1.408 1_554 S
C762 C760 1.363 . S
C762 C763 1.370 . S
C762 C766 1.524 . S
C763 C755 1.503 1_554 S
C763 C762 1.370 . S
C763 C764 1.403 1_554 S
C764 C763 1.403 1_556 S
C764 C765 1.404 . S
C764 C767 1.539 . S
C765 C761 1.408 1_556 S
C765 C764 1.404 . S
C765 H777 0.930 . S
C766 C762 1.524 . S
C766 H778 0.956 . S
C766 H779 0.961 . S
C766 H780 0.961 . S
C767 C764 1.539 . S
C767 H781 0.958 . S
C767 H782 0.961 . S
C767 H783 0.960 . S
H768 C752 0.931 . S
H769 C757 0.929 . S
H770 C758 0.960 1_556 S
H771 C758 0.962 . S
H772 C758 0.960 1_556 S
H773 C759 0.961 1_554 S
H774 C759 0.961 1_554 S
H775 C759 0.961 . S
H776 C760 0.931 . S
H777 C765 0.930 . S
H778 C766 0.956 . S
H779 C766 0.961 . S
H780 C766 0.961 . S
H781 C767 0.958 . S
H782 C767 0.961 . S
H783 C767 0.960 . S
C784 C785 1.391 . S
C784 C786 1.394 . S
C784 H800 0.931 . S
C785 C784 1.391 . S
C785 C789 1.376 . S
C786 C784 1.394 . S
C786 C787 1.369 . S
C786 C790 1.531 . S
C787 C786 1.369 . S
C787 C788 1.410 . S
C787 C795 1.503 . S
C788 C787 1.410 . S
C788 C789 1.392 . S
C788 C791 1.511 . S
C789 C785 1.376 . S
C789 C788 1.392 . S
C789 H801 0.929 . S
C790 C786 1.531 . S
C790 H802 0.960 . S
C790 H803 0.962 . S
C790 H804 0.960 . S
C791 C788 1.511 . S
C791 H805 0.961 . S
C791 H806 0.961 . S
C791 H807 0.961 . S
C792 C793 1.370 . S
C792 C794 1.363 . S
C792 H808 0.931 . S
C793 C792 1.370 . S
C793 C797 1.408 . S
C794 C792 1.363 . S
C794 C795 1.370 . S
C794 C798 1.524 . S
C795 C787 1.503 . S
C795 C794 1.370 . S
C795 C796 1.403 . S
C796 C795 1.403 . S
C796 C797 1.404 . S
C796 C799 1.539 . S
C797 C793 1.408 . S
C797 C796 1.404 . S
C797 H809 0.930 . S
C798 C794 1.524 . S
C798 H810 0.956 . S
C798 H811 0.961 . S
C798 H812 0.961 . S
C799 C796 1.539 . S
C799 H813 0.958 . S
C799 H814 0.961 . S
C799 H815 0.960 . S
H800 C784 0.931 . S
H801 C789 0.929 . S
H802 C790 0.960 . S
H803 C790 0.962 . S
H804 C790 0.960 . S
H805 C791 0.961 . S
H806 C791 0.961 . S
H807 C791 0.961 . S
H808 C792 0.931 . S
H809 C797 0.930 . S
H810 C798 0.956 . S
H811 C798 0.961 . S
H812 C798 0.961 . S
H813 C799 0.958 . S
H814 C799 0.961 . S
H815 C799 0.960 . S
C816 C817 1.391 . S
C816 C818 1.394 . S
C816 H832 0.931 . S
C817 C816 1.391 . S
C817 C821 1.376 . S
C818 C816 1.394 . S
C818 C819 1.369 . S
C818 C822 1.531 . S
C819 C818 1.369 . S
C819 C820 1.410 . S
C819 C827 1.503 . S
C820 C819 1.410 . S
C820 C821 1.392 . S
C820 C823 1.511 . S
C821 C817 1.376 . S
C821 C820 1.392 . S
C821 H833 0.929 . S
C822 C818 1.531 . S
C822 H834 0.960 . S
C822 H835 0.962 . S
C822 H836 0.960 . S
C823 C820 1.511 . S
C823 H837 0.961 . S
C823 H838 0.961 . S
C823 H839 0.961 . S
C824 C825 1.370 . S
C824 C826 1.363 . S
C824 H840 0.931 . S
C825 C824 1.370 . S
C825 C829 1.408 . S
C826 C824 1.363 . S
C826 C827 1.370 . S
C826 C830 1.524 . S
C827 C819 1.503 . S
C827 C826 1.370 . S
C827 C828 1.403 . S
C828 C827 1.403 . S
C828 C829 1.404 . S
C828 C831 1.539 . S
C829 C825 1.408 . S
C829 C828 1.404 . S
C829 H841 0.930 . S
C830 C826 1.524 . S
C830 H842 0.956 . S
C830 H843 0.961 . S
C830 H844 0.961 . S
C831 C828 1.539 . S
C831 H845 0.958 . S
C831 H846 0.961 . S
C831 H847 0.960 . S
H832 C816 0.931 . S
H833 C821 0.929 . S
H834 C822 0.960 . S
H835 C822 0.962 . S
H836 C822 0.960 . S
H837 C823 0.961 . S
H838 C823 0.961 . S
H839 C823 0.961 . S
H840 C824 0.931 . S
H841 C829 0.930 . S
H842 C830 0.956 . S
H843 C830 0.961 . S
H844 C830 0.961 . S
H845 C831 0.958 . S
H846 C831 0.961 . S
H847 C831 0.960 . S
C848 C849 1.391 1_556 S
C848 C850 1.394 . S
C848 H864 0.931 . S
C849 C848 1.391 1_554 S
C849 C853 1.376 . S
C850 C848 1.394 . S
C850 C851 1.369 . S
C850 C854 1.531 . S
C851 C850 1.369 . S
C851 C852 1.410 1_556 S
C851 C859 1.503 . S
C852 C851 1.410 1_554 S
C852 C853 1.392 . S
C852 C855 1.511 . S
C853 C849 1.376 . S
C853 C852 1.392 . S
C853 H865 0.929 . S
C854 C850 1.531 . S
C854 H866 0.960 . S
C854 H867 0.962 1_556 S
C854 H868 0.960 . S
C855 C852 1.511 . S
C855 H869 0.961 . S
C855 H870 0.961 . S
C855 H871 0.961 1_554 S
C856 C857 1.370 . S
C856 C858 1.363 . S
C856 H872 0.931 . S
C857 C856 1.370 . S
C857 C861 1.408 1_554 S
C858 C856 1.363 . S
C858 C859 1.370 1_554 S
C858 C862 1.524 . S
C859 C851 1.503 . S
C859 C858 1.370 1_556 S
C859 C860 1.403 . S
C860 C859 1.403 . S
C860 C861 1.404 . S
C860 C863 1.539 . S
C861 C857 1.408 1_556 S
C861 C860 1.404 . S
C861 H873 0.930 . S
C862 C858 1.524 . S
C862 H874 0.956 . S
C862 H875 0.961 . S
C862 H876 0.961 . S
C863 C860 1.539 . S
C863 H877 0.958 . S
C863 H878 0.961 . S
C863 H879 0.960 . S
H864 C848 0.931 . S
H865 C853 0.929 . S
H866 C854 0.960 . S
H867 C854 0.962 1_554 S
H868 C854 0.960 . S
H869 C855 0.961 . S
H870 C855 0.961 . S
H871 C855 0.961 1_556 S
H872 C856 0.931 . S
H873 C861 0.930 . S
H874 C862 0.956 . S
H875 C862 0.961 . S
H876 C862 0.961 . S
H877 C863 0.958 . S
H878 C863 0.961 . S
H879 C863 0.960 . S
C880 C881 1.391 . S
C880 C882 1.394 . S
C880 H896 0.931 . S
C881 C880 1.391 . S
C881 C885 1.376 . S
C882 C880 1.394 . S
C882 C883 1.369 . S
C882 C886 1.531 . S
C883 C882 1.369 . S
C883 C884 1.410 . S
C883 C891 1.503 . S
C884 C883 1.410 . S
C884 C885 1.392 . S
C884 C887 1.511 . S
C885 C881 1.376 . S
C885 C884 1.392 . S
C885 H897 0.929 . S
C886 C882 1.531 . S
C886 H898 0.960 . S
C886 H899 0.962 . S
C886 H900 0.960 . S
C887 C884 1.511 . S
C887 H901 0.961 . S
C887 H902 0.961 . S
C887 H903 0.961 . S
C888 C889 1.370 . S
C888 C890 1.363 . S
C888 H904 0.931 . S
C889 C888 1.370 . S
C889 C893 1.408 . S
C890 C888 1.363 . S
C890 C891 1.370 . S
C890 C894 1.524 . S
C891 C883 1.503 . S
C891 C890 1.370 . S
C891 C892 1.403 . S
C892 C891 1.403 . S
C892 C893 1.404 . S
C892 C895 1.539 . S
C893 C889 1.408 . S
C893 C892 1.404 . S
C893 H905 0.930 . S
C894 C890 1.524 . S
C894 H906 0.956 . S
C894 H907 0.961 . S
C894 H908 0.961 . S
C895 C892 1.539 . S
C895 H909 0.958 . S
C895 H910 0.961 . S
C895 H911 0.960 . S
H896 C880 0.931 . S
H897 C885 0.929 . S
H898 C886 0.960 . S
H899 C886 0.962 . S
H900 C886 0.960 . S
H901 C887 0.961 . S
H902 C887 0.961 . S
H903 C887 0.961 . S
H904 C888 0.931 . S
H905 C893 0.930 . S
H906 C894 0.956 . S
H907 C894 0.961 . S
H908 C894 0.961 . S
H909 C895 0.958 . S
H910 C895 0.961 . S
H911 C895 0.960 . S
C912 C913 1.391 1_556 S
C912 C914 1.394 . S
C912 H928 0.931 . S
C913 C912 1.391 1_554 S
C913 C917 1.376 . S
C914 C912 1.394 . S
C914 C915 1.369 1_556 S
C914 C918 1.531 . S
C915 C914 1.369 1_554 S
C915 C916 1.410 . S
C915 C923 1.503 . S
C916 C915 1.410 . S
C916 C917 1.392 . S
C916 C919 1.511 . S
C917 C913 1.376 . S
C917 C916 1.392 . S
C917 H929 0.929 . S
C918 C914 1.531 . S
C918 H930 0.960 . S
C918 H931 0.962 . S
C918 H932 0.960 . S
C919 C916 1.511 . S
C919 H933 0.961 . S
C919 H934 0.961 . S
C919 H935 0.961 . S
C920 C921 1.370 . S
C920 C922 1.363 . S
C920 H936 0.931 . S
C921 C920 1.370 . S
C921 C925 1.408 1_554 S
C922 C920 1.363 . S
C922 C923 1.370 . S
C922 C926 1.524 . S
C923 C915 1.503 . S
C923 C922 1.370 . S
C923 C924 1.403 1_554 S
C924 C923 1.403 1_556 S
C924 C925 1.404 . S
C924 C927 1.539 . S
C925 C921 1.408 1_556 S
C925 C924 1.404 . S
C925 H937 0.930 . S
C926 C922 1.524 . S
C926 H938 0.956 . S
C926 H939 0.961 . S
C926 H940 0.961 . S
C927 C924 1.539 . S
C927 H941 0.958 . S
C927 H942 0.961 . S
C927 H943 0.960 . S
H928 C912 0.931 . S
H929 C917 0.929 . S
H930 C918 0.960 . S
H931 C918 0.962 . S
H932 C918 0.960 . S
H933 C919 0.961 . S
H934 C919 0.961 . S
H935 C919 0.961 . S
H936 C920 0.931 . S
H937 C925 0.930 . S
H938 C926 0.956 . S
H939 C926 0.961 . S
H940 C926 0.961 . S
H941 C927 0.958 . S
H942 C927 0.961 . S
H943 C927 0.960 . S
C177 C5 1.424 . S
C185 C125 1.453 . S
C209 C31 1.463 . S
C217 C92 1.472 . S
C249 C104 1.479 . S
C241 C53 1.498 . S
C273 C71 1.473 . S
C281 C115 1.461 . S
C313 C148 1.446 . S
C305 C75 1.444 . S
C345 C159 1.466 . S
C337 C9 1.476 . S
C377 C169 1.475 . S
C369 C27 1.476 . S
C409 C136 1.462 . S
C401 C49 1.461 . S
C433 C51 1.424 . S
C441 C103 1.446 . S
C465 C72 1.476 . S
C473 C114 1.471 . S
C497 C6 1.497 . S
C505 C126 1.482 . S
C537 C93 1.467 . S
C529 C29 1.485 . S
C561 C28 1.457 . S
C569 C170 1.451 . S
C601 C137 1.465 . S
C593 C50 1.475 . S
C633 C147 1.464 . S
C625 C73 1.456 . S
C657 C7 1.461 . S
C665 C158 1.458 . S
C697 C98 1.512 . S
C689 C4 1.512 . S
C729 C109 1.515 . S
C721 C30 1.513 . S
C753 C52 1.497 . S
C761 C120 1.509 . S
C785 C70 1.495 . S
C793 C131 1.504 . S
C825 C142 1.513 . S
C817 C74 1.508 . S
C849 C8 1.494 . S
C857 C153 1.514 . S
C881 C26 1.485 . S
C889 C164 1.508 . S
C913 C48 1.484 . S
C921 C175 1.503 . S
