# Generated by pormake.
# Topology sqc, (4,8)-cn, num edge types: 1
# Building blocks:
#     Node 0, Type 0, BuildingBlock: NAHDIM_clean_linker_0, # of connection points: 4
#     Node 1, Type 0, BuildingBlock: NAHDIM_clean_linker_0, # of connection points: 4
#     Node 2, Type 0, BuildingBlock: NAHDIM_clean_linker_0, # of connection points: 4
#     Node 3, Type 0, BuildingBlock: NAHDIM_clean_linker_0, # of connection points: 4
#     Node 4, Type 0, BuildingBlock: NAHDIM_clean_linker_0, # of connection points: 4
#     Node 5, Type 0, BuildingBlock: NAHDIM_clean_linker_0, # of connection points: 4
#     Node 6, Type 0, BuildingBlock: NAHDIM_clean_linker_0, # of connection points: 4
#     Node 7, Type 0, BuildingBlock: NAHDIM_clean_linker_0, # of connection points: 4
#     Node 8, Type 1, BuildingBlock: VETTIZ_charged_sbu_0, # of connection points: 8
#     Node 9, Type 1, BuildingBlock: VETTIZ_charged_sbu_0, # of connection points: 8
#     Node 10, Type 1, BuildingBlock: VETTIZ_charged_sbu_0, # of connection points: 8
#     Node 11, Type 1, BuildingBlock: VETTIZ_charged_sbu_0, # of connection points: 8
#     Edge 12, Type (0, 1), BuildingBlock: ZUJKAS_clean_linker_0, # of connection points: 2
#     Edge 13, Type (0, 1), BuildingBlock: ZUJKAS_clean_linker_0, # of connection points: 2
#     Edge 14, Type (0, 1), BuildingBlock: ZUJKAS_clean_linker_0, # of connection points: 2
#     Edge 15, Type (0, 1), BuildingBlock: ZUJKAS_clean_linker_0, # of connection points: 2
#     Edge 16, Type (0, 1), BuildingBlock: ZUJKAS_clean_linker_0, # of connection points: 2
#     Edge 17, Type (0, 1), BuildingBlock: ZUJKAS_clean_linker_0, # of connection points: 2
#     Edge 18, Type (0, 1), BuildingBlock: ZUJKAS_clean_linker_0, # of connection points: 2
#     Edge 19, Type (0, 1), BuildingBlock: ZUJKAS_clean_linker_0, # of connection points: 2
#     Edge 20, Type (0, 1), BuildingBlock: ZUJKAS_clean_linker_0, # of connection points: 2
#     Edge 21, Type (0, 1), BuildingBlock: ZUJKAS_clean_linker_0, # of connection points: 2
#     Edge 22, Type (0, 1), BuildingBlock: ZUJKAS_clean_linker_0, # of connection points: 2
#     Edge 23, Type (0, 1), BuildingBlock: ZUJKAS_clean_linker_0, # of connection points: 2
#     Edge 24, Type (0, 1), BuildingBlock: ZUJKAS_clean_linker_0, # of connection points: 2
#     Edge 25, Type (0, 1), BuildingBlock: ZUJKAS_clean_linker_0, # of connection points: 2
#     Edge 26, Type (0, 1), BuildingBlock: ZUJKAS_clean_linker_0, # of connection points: 2
#     Edge 27, Type (0, 1), BuildingBlock: ZUJKAS_clean_linker_0, # of connection points: 2
#     Edge 28, Type (0, 1), BuildingBlock: ZUJKAS_clean_linker_0, # of connection points: 2
#     Edge 29, Type (0, 1), BuildingBlock: ZUJKAS_clean_linker_0, # of connection points: 2
#     Edge 30, Type (0, 1), BuildingBlock: ZUJKAS_clean_linker_0, # of connection points: 2
#     Edge 31, Type (0, 1), BuildingBlock: ZUJKAS_clean_linker_0, # of connection points: 2
#     Edge 32, Type (0, 1), BuildingBlock: ZUJKAS_clean_linker_0, # of connection points: 2
#     Edge 33, Type (0, 1), BuildingBlock: ZUJKAS_clean_linker_0, # of connection points: 2
#     Edge 34, Type (0, 1), BuildingBlock: ZUJKAS_clean_linker_0, # of connection points: 2
#     Edge 35, Type (0, 1), BuildingBlock: ZUJKAS_clean_linker_0, # of connection points: 2
#     Edge 36, Type (0, 1), BuildingBlock: ZUJKAS_clean_linker_0, # of connection points: 2
#     Edge 37, Type (0, 1), BuildingBlock: ZUJKAS_clean_linker_0, # of connection points: 2
#     Edge 38, Type (0, 1), BuildingBlock: ZUJKAS_clean_linker_0, # of connection points: 2
#     Edge 39, Type (0, 1), BuildingBlock: ZUJKAS_clean_linker_0, # of connection points: 2
#     Edge 40, Type (0, 1), BuildingBlock: ZUJKAS_clean_linker_0, # of connection points: 2
#     Edge 41, Type (0, 1), BuildingBlock: ZUJKAS_clean_linker_0, # of connection points: 2
#     Edge 42, Type (0, 1), BuildingBlock: ZUJKAS_clean_linker_0, # of connection points: 2
#     Edge 43, Type (0, 1), BuildingBlock: ZUJKAS_clean_linker_0, # of connection points: 2
# Relax obj value: 0.110
# Max RMSD: 0.261
# Mean RMSD: 0.120
data_MOF--net-sqc--node1-VETTIZ_charged_sbu_0--node2-NAHDIM_clean_linker_0--edge1-ZUJKAS_clean_linker_0
_symmetry_space_group_name_H-M    P1
_symmetry_Int_Tables_number       1
_symmetry_cell_setting            triclinic
loop_
_symmetry_equiv_pos_as_xyz
'x, y, z'
_cell_length_a     37.919205
_cell_length_b     37.927958
_cell_length_c     123.15914
_cell_angle_alpha  89.683964
_cell_angle_beta   89.619027
_cell_angle_gamma 89.996782
loop_
_atom_site_label
_atom_site_type_symbol
_atom_site_fract_x
_atom_site_fract_y
_atom_site_fract_z
_atom_type_partial_charge
C0 C 0.89686 0.86493 0.45393 0.0
C1 C 0.86977 0.87833 0.46222 0.0
C2 C 0.90278 0.92559 0.47087 0.0
C3 C 0.91184 0.90895 0.48067 0.0
C4 C 0.94044 0.92092 0.48679 0.0
C5 C 0.96033 0.95014 0.48303 0.0
C6 C 0.95044 0.96782 0.47338 0.0
C7 C 0.92142 0.95551 0.46748 0.0
C8 C 0.94977 0.902 0.4972 0.0
C9 C 0.97102 0.99917 0.46921 0.0
C10 C 0.16242 0.80515 0.46992 0.0
C11 C 0.16472 0.84516 0.46849 0.0
C12 C 0.1412 0.88383 0.48227 0.0
C13 C 0.13264 0.91402 0.47626 0.0
C14 C 0.10559 0.93663 0.47974 0.0
C15 C 0.08631 0.92829 0.4893 0.0
C16 C 0.09549 0.89808 0.49549 0.0
C17 C 0.1235 0.87666 0.492 0.0
C18 C 0.09704 0.9689 0.47304 0.0
C19 C 0.07499 0.88761 0.50555 0.0
C20 C 0.14455 0.04912 0.54705 0.0
C21 C 0.14145 0.07088 0.53787 0.0
C22 C 0.11027 0.07124 0.53179 0.0
C23 C 0.08199 0.04887 0.53487 0.0
C24 C 0.08453 0.02823 0.54445 0.0
C25 C 0.11572 0.02904 0.55052 0.0
C26 C 0.10796 0.09461 0.52187 0.0
C27 C 0.05481 0.00433 0.54805 0.0
C28 C 0.81632 0.12485 0.51617 0.0
C29 C 0.82765 0.11119 0.52732 0.0
C30 C 0.89138 0.11083 0.52949 0.0
C31 C 0.91924 0.12872 0.52444 0.0
C32 C 0.95202 0.11225 0.52286 0.0
C33 C 0.95712 0.07738 0.5267 0.0
C34 C 0.92973 0.06018 0.53254 0.0
C35 C 0.89701 0.07705 0.53381 0.0
C36 C 0.98075 0.13155 0.51673 0.0
C37 C 0.93467 0.02355 0.53712 0.0
C38 C 0.99253 0.96079 0.48895 0.0
C39 C 0.02383 0.94314 0.48646 0.0
C40 C 0.05469 0.94934 0.49227 0.0
C41 C 0.05443 0.97384 0.50089 0.0
C42 C 0.08477 0.9803 0.50705 0.0
C43 C 0.08376 0.00319 0.51583 0.0
C44 C 0.05262 0.0214 0.5186 0.0
C45 C 0.05124 0.04447 0.52759 0.0
C46 C 0.01997 0.06249 0.53001 0.0
C47 C 0.98971 0.0578 0.52373 0.0
C48 C 0.99048 0.0344 0.51482 0.0
C49 C 0.96039 0.02864 0.50843 0.0
C50 C 0.96097 0.00456 0.49995 0.0
C51 C 0.99187 0.98588 0.49738 0.0
C52 C 0.02284 0.9921 0.50346 0.0
C53 C 0.02203 0.01613 0.51227 0.0
C54 C 0.21057 0.99816 0.54724 0.0
C55 C 0.20744 0.03829 0.54811 0.0
O56 O 0.87629 0.91351 0.46452 0.0
O57 O 0.85942 0.1268 0.5301 0.0
O58 O 0.17509 0.04702 0.55268 0.0
O59 O 0.16573 0.86069 0.47865 0.0
H60 H 0.8719 0.86194 0.46969 0.0
H61 H 0.92382 0.86659 0.45736 0.0
H62 H 0.896 0.88105 0.44637 0.0
H63 H 0.89151 0.83693 0.4519 0.0
H64 H 0.89657 0.8868 0.48365 0.0
H65 H 0.91386 0.9685 0.45999 0.0
H66 H 0.97623 0.88974 0.49635 0.0
H67 H 0.93041 0.88109 0.49936 0.0
H68 H 0.9511 0.92113 0.50398 0.0
H69 H 0.9596 0.0104 0.46166 0.0
H70 H 0.99872 0.99124 0.46755 0.0
H71 H 0.97162 0.02001 0.4755 0.0
H72 H 0.14055 0.85354 0.46404 0.0
H73 H 0.16114 0.79207 0.46188 0.0
H74 H 0.1382 0.79822 0.47458 0.0
H75 H 0.18567 0.79498 0.4744 0.0
H76 H 0.14698 0.91964 0.4688 0.0
H77 H 0.13057 0.85325 0.49658 0.0
H78 H 0.0937 0.99223 0.47836 0.0
H79 H 0.07177 0.96465 0.46874 0.0
H80 H 0.11786 0.9747 0.46689 0.0
H81 H 0.08263 0.86109 0.50861 0.0
H82 H 0.04625 0.88759 0.50387 0.0
H83 H 0.07981 0.90704 0.51208 0.0
H84 H 0.20977 0.04967 0.53979 0.0
H85 H 0.16343 0.08747 0.53546 0.0
H86 H 0.1183 0.01282 0.55774 0.0
H87 H 0.1092 0.0781 0.51446 0.0
H88 H 0.12979 0.11412 0.52148 0.0
H89 H 0.0824 0.1089 0.52179 0.0
H90 H 0.06116 0.98955 0.5556 0.0
H91 H 0.04883 0.98514 0.54154 0.0
H92 H 0.03064 0.02019 0.5495 0.0
H93 H 0.8306 0.08206 0.52665 0.0
H94 H 0.79092 0.11262 0.51377 0.0
H95 H 0.8366 0.11792 0.50999 0.0
H96 H 0.81322 0.15399 0.51625 0.0
H97 H 0.91474 0.15512 0.52133 0.0
H98 H 0.8758 0.06382 0.53814 0.0
H99 H 0.98809 0.11652 0.50934 0.0
H100 H 0.00464 0.13346 0.52186 0.0
H101 H 0.97261 0.15856 0.51427 0.0
H102 H 0.91302 0.01601 0.5428 0.0
H103 H 0.96019 0.02168 0.54146 0.0
H104 H 0.93536 0.00427 0.53038 0.0
H105 H 0.02397 0.92365 0.48003 0.0
H106 H 0.10953 0.96728 0.50525 0.0
H107 H 0.10779 0.00642 0.52041 0.0
H108 H 0.01906 0.08007 0.53693 0.0
H109 H 0.93585 0.04234 0.50998 0.0
H110 H 0.9369 0.00082 0.49543 0.0
H111 H 0.20789 0.98558 0.55538 0.0
H112 H 0.23647 0.99079 0.54364 0.0
H113 H 0.18946 0.98782 0.54192 0.0
C114 C 0.17256 0.96941 0.77722 0.0
C115 C 0.15678 0.95246 0.78749 0.0
C116 C 0.18815 0.8954 0.78765 0.0
C117 C 0.21802 0.87852 0.79173 0.0
C118 C 0.22913 0.84586 0.78766 0.0
C119 C 0.2093 0.82925 0.77945 0.0
C120 C 0.17822 0.84549 0.77556 0.0
C121 C 0.16813 0.87861 0.7796 0.0
C122 C 0.26244 0.82939 0.79202 0.0
C123 C 0.15597 0.82807 0.76701 0.0
C124 C 0.25729 0.56494 0.79121 0.0
C125 C 0.2293 0.5753 0.79966 0.0
C126 C 0.2095 0.63156 0.7917 0.0
C127 C 0.18456 0.64621 0.78471 0.0
C128 C 0.18953 0.67979 0.78011 0.0
C129 C 0.22002 0.69935 0.78273 0.0
C130 C 0.24424 0.6857 0.79036 0.0
C131 C 0.23886 0.65185 0.79473 0.0
C132 C 0.16301 0.69372 0.77207 0.0
C133 C 0.2766 0.70628 0.79353 0.0
C134 C 0.37001 0.63277 0.73219 0.0
C135 C 0.33621 0.63873 0.72799 0.0
C136 C 0.31887 0.67095 0.72973 0.0
C137 C 0.33566 0.69747 0.73586 0.0
C138 C 0.37047 0.6921 0.73961 0.0
C139 C 0.38737 0.65987 0.7376 0.0
C140 C 0.28228 0.67631 0.72528 0.0
C141 C 0.38937 0.71997 0.74606 0.0
C142 C 0.29187 0.9645 0.72281 0.0
C143 C 0.32556 0.95212 0.71705 0.0
C144 C 0.3187 0.88812 0.71795 0.0
C145 C 0.2938 0.86317 0.71477 0.0
C146 C 0.2896 0.83139 0.72052 0.0
C147 C 0.31153 0.8242 0.72951 0.0
C148 C 0.33818 0.84844 0.73238 0.0
C149 C 0.34142 0.88025 0.7266 0.0
C150 C 0.26115 0.80592 0.71718 0.0
C151 C 0.36281 0.84098 0.7417 0.0
C152 C 0.22207 0.79566 0.77467 0.0
C153 C 0.215 0.76418 0.78026 0.0
C154 C 0.22857 0.73207 0.77659 0.0
C155 C 0.25015 0.73119 0.76718 0.0
C156 C 0.26539 0.69954 0.76353 0.0
C157 C 0.28724 0.69903 0.75443 0.0
C158 C 0.29387 0.72994 0.7484 0.0
C159 C 0.31603 0.72966 0.73911 0.0
C160 C 0.32112 0.76061 0.73309 0.0
C161 C 0.30531 0.79227 0.73627 0.0
C162 C 0.28422 0.79336 0.74578 0.0
C163 C 0.26919 0.82507 0.74947 0.0
C164 C 0.24922 0.826 0.75899 0.0
C165 C 0.24249 0.79506 0.765 0.0
C166 C 0.25682 0.76273 0.76131 0.0
C167 C 0.27821 0.76199 0.7518 0.0
C168 C 0.38317 0.55563 0.74439 0.0
C169 C 0.3714 0.5687 0.73321 0.0
O170 O 0.17995 0.9277 0.7917 0.0
O171 O 0.32012 0.91926 0.71247 0.0
O172 O 0.38659 0.6013 0.73109 0.0
O173 O 0.20449 0.59771 0.7951 0.0
H174 H 0.13131 0.93957 0.78549 0.0
H175 H 0.17723 0.94914 0.77091 0.0
H176 H 0.19809 0.98236 0.77909 0.0
H177 H 0.15417 0.98938 0.77384 0.0
H178 H 0.23315 0.89154 0.79797 0.0
H179 H 0.1447 0.89104 0.77641 0.0
H180 H 0.25601 0.80388 0.79603 0.0
H181 H 0.27586 0.84658 0.79799 0.0
H182 H 0.28102 0.8238 0.78524 0.0
H183 H 0.13055 0.84201 0.76574 0.0
H184 H 0.15041 0.80028 0.76934 0.0
H185 H 0.17068 0.82771 0.75919 0.0
H186 H 0.2423 0.58868 0.80658 0.0
H187 H 0.27646 0.54614 0.79481 0.0
H188 H 0.27217 0.58849 0.78838 0.0
H189 H 0.24475 0.55245 0.78406 0.0
H190 H 0.16176 0.63061 0.78253 0.0
H191 H 0.25807 0.64134 0.80033 0.0
H192 H 0.15361 0.72012 0.77465 0.0
H193 H 0.1399 0.67595 0.77125 0.0
H194 H 0.17581 0.69689 0.76399 0.0
H195 H 0.29058 0.69403 0.8005 0.0
H196 H 0.26921 0.7337 0.7957 0.0
H197 H 0.29508 0.70772 0.78651 0.0
H198 H 0.34211 0.57071 0.73348 0.0
H199 H 0.32339 0.61824 0.72337 0.0
H200 H 0.41377 0.65516 0.7406 0.0
H201 H 0.26298 0.67689 0.7321 0.0
H202 H 0.27458 0.655 0.71962 0.0
H203 H 0.28064 0.70206 0.72097 0.0
H204 H 0.41622 0.7115 0.74851 0.0
H205 H 0.37387 0.72635 0.75347 0.0
H206 H 0.39164 0.7445 0.74114 0.0
H207 H 0.34698 0.95085 0.72314 0.0
H208 H 0.2958 0.99115 0.72631 0.0
H209 H 0.28507 0.94606 0.72954 0.0
H210 H 0.26942 0.96543 0.71706 0.0
H211 H 0.2768 0.86923 0.70797 0.0
H212 H 0.36195 0.89857 0.72882 0.0
H213 H 0.24239 0.80178 0.72403 0.0
H214 H 0.2731 0.77997 0.71524 0.0
H215 H 0.24624 0.81543 0.71 0.0
H216 H 0.38417 0.86091 0.74228 0.0
H217 H 0.37487 0.81449 0.74075 0.0
H218 H 0.34765 0.84085 0.74944 0.0
H219 H 0.19911 0.76473 0.78761 0.0
H220 H 0.26101 0.67477 0.76773 0.0
H221 H 0.29863 0.67395 0.75214 0.0
H222 H 0.33792 0.76016 0.72593 0.0
H223 H 0.27305 0.84967 0.74513 0.0
H224 H 0.23888 0.85129 0.76151 0.0
H225 H 0.37141 0.5294 0.7462 0.0
H226 H 0.37421 0.5744 0.75073 0.0
H227 H 0.41237 0.55355 0.74475 0.0
C228 C 0.69001 0.99229 0.04109 0.0
C229 C 0.68182 0.96105 0.04867 0.0
C230 C 0.62879 0.93857 0.03963 0.0
C231 C 0.6179 0.91538 0.03156 0.0
C232 C 0.58477 0.91893 0.02668 0.0
C233 C 0.56177 0.94605 0.03015 0.0
C234 C 0.57161 0.9681 0.03884 0.0
C235 C 0.60513 0.96432 0.04346 0.0
C236 C 0.57494 0.89473 0.0175 0.0
C237 C 0.54725 0.99664 0.04292 0.0
C238 C 0.34771 0.8058 0.04482 0.0
C239 C 0.34749 0.84611 0.04499 0.0
C240 C 0.37764 0.87952 0.03093 0.0
C241 C 0.38718 0.90998 0.03657 0.0
C242 C 0.41587 0.9306 0.03309 0.0
C243 C 0.43575 0.92006 0.02388 0.0
C244 C 0.42589 0.88939 0.01813 0.0
C245 C 0.39636 0.86994 0.0216 0.0
C246 C 0.42519 0.96341 0.03932 0.0
C247 C 0.44692 0.8767 0.00846 0.0
C248 C 0.37951 0.03706 0.96373 0.0
C249 C 0.38011 0.05889 0.97288 0.0
C250 C 0.40979 0.05979 0.97963 0.0
C251 C 0.43912 0.03808 0.9772 0.0
C252 C 0.43903 0.01716 0.96771 0.0
C253 C 0.40929 0.01733 0.96101 0.0
C254 C 0.40958 0.08333 0.98946 0.0
C255 C 0.46998 0.99395 0.96481 0.0
C256 C 0.70016 0.12622 0.99759 0.0
C257 C 0.68797 0.11581 0.98623 0.0
C258 C 0.62413 0.11236 0.98453 0.0
C259 C 0.59534 0.12706 0.98998 0.0
C260 C 0.56366 0.10825 0.9912 0.0
C261 C 0.56065 0.07428 0.9866 0.0
C262 C 0.58891 0.06036 0.9804 0.0
C263 C 0.62045 0.07955 0.97944 0.0
C264 C 0.53391 0.12406 0.99774 0.0
C265 C 0.58616 0.02471 0.9751 0.0
C266 C 0.52931 0.95373 0.02392 0.0
C267 C 0.49853 0.93512 0.02645 0.0
C268 C 0.46756 0.94042 0.02055 0.0
C269 C 0.46738 0.96457 0.01174 0.0
C270 C 0.43707 0.96993 0.00542 0.0
C271 C 0.43763 0.9928 0.99654 0.0
C272 C 0.46814 0.01223 0.99387 0.0
C273 C 0.46906 0.03551 0.98485 0.0
C274 C 0.49939 0.05541 0.98267 0.0
C275 C 0.52935 0.05209 0.98914 0.0
C276 C 0.52939 0.02791 0.99793 0.0
C277 C 0.55955 0.02295 0.00434 0.0
C278 C 0.55967 0.99851 0.01278 0.0
C279 C 0.52935 0.97869 0.01535 0.0
C280 C 0.49841 0.98382 0.00916 0.0
C281 C 0.4986 0.0081 0.00034 0.0
C282 C 0.30977 0.98846 0.96058 0.0
C283 C 0.31678 0.02814 0.96101 0.0
O284 O 0.66244 0.93562 0.04328 0.0
O285 O 0.65503 0.1304 0.9843 0.0
O286 O 0.35073 0.0349 0.95731 0.0
O287 O 0.35081 0.85867 0.03444 0.0
H288 H 0.66664 0.97051 0.05584 0.0
H289 H 0.66531 0.00553 0.03853 0.0
H290 H 0.70432 0.98322 0.03372 0.0
H291 H 0.70646 0.01208 0.04534 0.0
H292 H 0.63612 0.89531 0.02876 0.0
H293 H 0.61274 0.98195 0.0499 0.0
H294 H 0.54943 0.88157 0.01936 0.0
H295 H 0.59528 0.87421 0.016 0.0
H296 H 0.5714 0.91041 0.00994 0.0
H297 H 0.55685 0.00868 0.05056 0.0
H298 H 0.52042 0.98576 0.04436 0.0
H299 H 0.54502 0.01767 0.03666 0.0
H300 H 0.3706 0.85433 0.04994 0.0
H301 H 0.34542 0.79505 0.05321 0.0
H302 H 0.37288 0.79627 0.04121 0.0
H303 H 0.32554 0.7956 0.03988 0.0
H304 H 0.3721 0.91758 0.04369 0.0
H305 H 0.38857 0.84636 0.0173 0.0
H306 H 0.42891 0.98602 0.03366 0.0
H307 H 0.45047 0.95916 0.04363 0.0
H308 H 0.40462 0.97037 0.04541 0.0
H309 H 0.43844 0.85014 0.00576 0.0
H310 H 0.47543 0.87575 0.01045 0.0
H311 H 0.44364 0.89542 0.00159 0.0
H312 H 0.31354 0.03665 0.9696 0.0
H313 H 0.35749 0.0753 0.97472 0.0
H314 H 0.40866 0.0011 0.9538 0.0
H315 H 0.40877 0.06686 0.99693 0.0
H316 H 0.38653 0.10143 0.98956 0.0
H317 H 0.43416 0.09923 0.98968 0.0
H318 H 0.46534 0.97852 0.95731 0.0
H319 H 0.47545 0.97537 0.97159 0.0
H320 H 0.49387 0.01046 0.96358 0.0
H321 H 0.68676 0.08648 0.98614 0.0
H322 H 0.72667 0.115 0.99925 0.0
H323 H 0.68139 0.11571 0.00377 0.0
H324 H 0.7013 0.15536 0.9984 0.0
H325 H 0.59827 0.15274 0.99369 0.0
H326 H 0.64226 0.06887 0.97479 0.0
H327 H 0.52838 0.10719 0.00495 0.0
H328 H 0.50955 0.12491 0.9928 0.0
H329 H 0.54003 0.15117 0.00054 0.0
H330 H 0.60885 0.01928 0.9696 0.0
H331 H 0.56137 0.02297 0.97038 0.0
H332 H 0.58521 0.00388 0.98146 0.0
H333 H 0.49873 0.91616 0.03308 0.0
H334 H 0.41271 0.95609 0.00717 0.0
H335 H 0.4137 0.99523 0.99186 0.0
H336 H 0.49978 0.07342 0.97579 0.0
H337 H 0.58361 0.03757 0.00284 0.0
H338 H 0.58388 0.99554 0.0173 0.0
H339 H 0.31277 0.97857 0.95215 0.0
H340 H 0.28268 0.98247 0.96356 0.0
H341 H 0.32882 0.9743 0.96586 0.0
C342 C 0.11918 0.07018 0.23534 0.0
C343 C 0.13083 0.08444 0.2242 0.0
C344 C 0.17969 0.12574 0.22765 0.0
C345 C 0.21565 0.13149 0.22588 0.0
C346 C 0.23181 0.16309 0.22898 0.0
C347 C 0.21147 0.18937 0.2342 0.0
C348 C 0.17505 0.18377 0.23607 0.0
C349 C 0.15944 0.15211 0.23272 0.0
C350 C 0.27061 0.16838 0.2267 0.0
C351 C 0.15265 0.21122 0.24165 0.0
C352 C 0.19298 0.37946 0.18573 0.0
C353 C 0.18635 0.39476 0.19703 0.0
C354 C 0.22336 0.36804 0.21082 0.0
C355 C 0.1987 0.36124 0.21909 0.0
C356 C 0.20478 0.33466 0.22681 0.0
C357 C 0.23612 0.31448 0.22619 0.0
C358 C 0.26162 0.32221 0.21807 0.0
C359 C 0.25507 0.34936 0.21056 0.0
C360 C 0.17747 0.32773 0.23553 0.0
C361 C 0.29532 0.30125 0.21718 0.0
C362 C 0.37291 0.39214 0.2781 0.0
C363 C 0.33834 0.38654 0.28186 0.0
C364 C 0.32182 0.35374 0.28051 0.0
C365 C 0.34026 0.32615 0.27525 0.0
C366 C 0.3758 0.3312 0.27202 0.0
C367 C 0.39181 0.36412 0.27362 0.0
C368 C 0.28431 0.34886 0.28439 0.0
C369 C 0.39639 0.30226 0.26651 0.0
C370 C 0.26504 0.07024 0.29264 0.0
C371 C 0.30419 0.0734 0.29546 0.0
C372 C 0.31275 0.13682 0.29533 0.0
C373 C 0.29137 0.16465 0.29876 0.0
C374 C 0.29057 0.19661 0.29295 0.0
C375 C 0.31246 0.20091 0.28368 0.0
C376 C 0.33619 0.17373 0.28071 0.0
C377 C 0.33588 0.1418 0.28653 0.0
C378 C 0.26523 0.22513 0.29641 0.0
C379 C 0.3609 0.1779 0.27114 0.0
C380 C 0.22837 0.22266 0.23773 0.0
C381 C 0.22551 0.25217 0.23096 0.0
C382 C 0.24129 0.2842 0.23368 0.0
C383 C 0.26106 0.28689 0.24334 0.0
C384 C 0.27777 0.31851 0.24623 0.0
C385 C 0.29767 0.32065 0.25565 0.0
C386 C 0.3012 0.2914 0.26265 0.0
C387 C 0.32147 0.29329 0.27224 0.0
C388 C 0.32461 0.26361 0.27898 0.0
C389 C 0.30776 0.23193 0.27641 0.0
C390 C 0.2871 0.2297 0.26691 0.0
C391 C 0.26934 0.19842 0.26418 0.0
C392 C 0.24996 0.19609 0.25466 0.0
C393 C 0.24738 0.22501 0.24753 0.0
C394 C 0.26415 0.25712 0.25028 0.0
C395 C 0.28411 0.25943 0.25996 0.0
C396 C 0.38811 0.46912 0.26523 0.0
C397 C 0.37326 0.45615 0.27611 0.0
O398 O 0.16599 0.09438 0.22443 0.0
O399 O 0.31032 0.10534 0.30057 0.0
O400 O 0.38879 0.42412 0.27875 0.0
O401 O 0.21716 0.3925 0.203 0.0
H402 H 0.11409 0.1075 0.22204 0.0
H403 H 0.12144 0.09094 0.2416 0.0
H404 H 0.13587 0.04751 0.23784 0.0
H405 H 0.09121 0.06153 0.23506 0.0
H406 H 0.23106 0.11105 0.22196 0.0
H407 H 0.13159 0.14817 0.2342 0.0
H408 H 0.27491 0.19381 0.22238 0.0
H409 H 0.28197 0.14676 0.22173 0.0
H410 H 0.28514 0.16961 0.23448 0.0
H411 H 0.12545 0.2017 0.24334 0.0
H412 H 0.15106 0.2351 0.23643 0.0
H413 H 0.16498 0.21909 0.24942 0.0
H414 H 0.1649 0.37887 0.20087 0.0
H415 H 0.16858 0.38079 0.18079 0.0
H416 H 0.20101 0.35138 0.18646 0.0
H417 H 0.21434 0.39418 0.18146 0.0
H418 H 0.17472 0.37672 0.2195 0.0
H419 H 0.27413 0.35529 0.20422 0.0
H420 H 0.16519 0.30158 0.23417 0.0
H421 H 0.15635 0.34804 0.2356 0.0
H422 H 0.19014 0.327 0.24363 0.0
H423 H 0.31193 0.30984 0.21018 0.0
H424 H 0.28909 0.27281 0.21626 0.0
H425 H 0.31081 0.30415 0.22473 0.0
H426 H 0.34428 0.45319 0.27507 0.0
H427 H 0.32423 0.40779 0.28581 0.0
H428 H 0.41876 0.36857 0.27096 0.0
H429 H 0.26666 0.34663 0.27727 0.0
H430 H 0.27512 0.37121 0.28947 0.0
H431 H 0.28188 0.32403 0.28917 0.0
H432 H 0.42391 0.31028 0.26458 0.0
H433 H 0.38308 0.29472 0.25886 0.0
H434 H 0.39704 0.27853 0.27183 0.0
H435 H 0.31975 0.07189 0.28778 0.0
H436 H 0.25977 0.04467 0.2886 0.0
H437 H 0.25739 0.09178 0.28698 0.0
H438 H 0.24846 0.07211 0.30009 0.0
H439 H 0.27408 0.16064 0.3057 0.0
H440 H 0.35352 0.12071 0.28416 0.0
H441 H 0.24635 0.23065 0.28976 0.0
H442 H 0.27994 0.24986 0.298 0.0
H443 H 0.2501 0.21776 0.30384 0.0
H444 H 0.38153 0.1571 0.27099 0.0
H445 H 0.3739 0.20413 0.27131 0.0
H446 H 0.34562 0.17628 0.2635 0.0
H447 H 0.21072 0.25021 0.22348 0.0
H448 H 0.2759 0.3419 0.24118 0.0
H449 H 0.31026 0.34561 0.25736 0.0
H450 H 0.34047 0.26514 0.28626 0.0
H451 H 0.27029 0.17523 0.26933 0.0
H452 H 0.23706 0.17128 0.25297 0.0
H453 H 0.37608 0.49484 0.26297 0.0
H454 H 0.3819 0.44976 0.25878 0.0
H455 H 0.41721 0.47224 0.26562 0.0
C456 C 0.60458 0.40789 0.30486 0.0
C457 C 0.64281 0.42039 0.30376 0.0
C458 C 0.66973 0.39257 0.2882 0.0
C459 C 0.70282 0.38169 0.29191 0.0
C460 C 0.71978 0.3524 0.28732 0.0
C461 C 0.703 0.33344 0.27893 0.0
C462 C 0.66975 0.34478 0.27507 0.0
C463 C 0.65378 0.37469 0.27965 0.0
C464 C 0.75542 0.34141 0.29154 0.0
C465 C 0.65083 0.32491 0.26627 0.0
C466 C 0.76787 0.075 0.29652 0.0
C467 C 0.73333 0.08464 0.30235 0.0
C468 C 0.71544 0.13749 0.292 0.0
C469 C 0.69335 0.14919 0.28371 0.0
C470 C 0.69741 0.18281 0.2791 0.0
C471 C 0.72423 0.20534 0.28295 0.0
C472 C 0.74556 0.19445 0.29172 0.0
C473 C 0.74099 0.16057 0.29618 0.0
C474 C 0.67391 0.19375 0.26983 0.0
C475 C 0.77401 0.21815 0.2961 0.0
C476 C 0.88102 0.14755 0.23254 0.0
C477 C 0.84609 0.15016 0.22893 0.0
C478 C 0.82625 0.18081 0.23082 0.0
C479 C 0.84167 0.2092 0.2365 0.0
C480 C 0.8774 0.20715 0.2397 0.0
C481 C 0.89676 0.17641 0.23755 0.0
C482 C 0.78859 0.18258 0.22697 0.0
C483 C 0.89477 0.23704 0.24568 0.0
C484 C 0.74738 0.46016 0.21062 0.0
C485 C 0.78681 0.45183 0.21111 0.0
C486 C 0.79635 0.38928 0.21417 0.0
C487 C 0.77591 0.35939 0.21229 0.0
C488 C 0.77779 0.33002 0.21922 0.0
C489 C 0.80153 0.3304 0.22805 0.0
C490 C 0.82378 0.35987 0.2296 0.0
C491 C 0.82076 0.38921 0.22267 0.0
C492 C 0.75391 0.29891 0.21725 0.0
C493 C 0.85027 0.36055 0.23868 0.0
C494 C 0.71983 0.3011 0.27452 0.0
C495 C 0.71537 0.2696 0.28034 0.0
C496 C 0.73212 0.23861 0.27704 0.0
C497 C 0.75479 0.23904 0.26788 0.0
C498 C 0.77376 0.20883 0.26476 0.0
C499 C 0.79568 0.20935 0.25567 0.0
C500 C 0.79864 0.23974 0.24915 0.0
C501 C 0.81997 0.24014 0.23968 0.0
C502 C 0.82103 0.27028 0.2331 0.0
C503 C 0.80184 0.30048 0.23585 0.0
C504 C 0.78177 0.30117 0.24558 0.0
C505 C 0.76347 0.33164 0.24887 0.0
C506 C 0.74389 0.332 0.25847 0.0
C507 C 0.74058 0.30146 0.26492 0.0
C508 C 0.75841 0.27036 0.26167 0.0
C509 C 0.77973 0.27047 0.25215 0.0
C510 C 0.90277 0.07419 0.24522 0.0
C511 C 0.88863 0.08407 0.234 0.0
O512 O 0.65267 0.42 0.2929 0.0
O513 O 0.79235 0.41764 0.20756 0.0
O514 O 0.90017 0.11764 0.23122 0.0
O515 O 0.71146 0.10366 0.29551 0.0
H516 H 0.65955 0.40183 0.30853 0.0
H517 H 0.60212 0.38065 0.30168 0.0
H518 H 0.58666 0.4254 0.30018 0.0
H519 H 0.59623 0.40771 0.31353 0.0
H520 H 0.71526 0.39615 0.29841 0.0
H521 H 0.62823 0.38353 0.27684 0.0
H522 H 0.7531 0.31544 0.29568 0.0
H523 H 0.76633 0.36074 0.29737 0.0
H524 H 0.77432 0.33833 0.28468 0.0
H525 H 0.62423 0.33592 0.26463 0.0
H526 H 0.64804 0.29674 0.26863 0.0
H527 H 0.66658 0.32593 0.25865 0.0
H528 H 0.73933 0.10057 0.30966 0.0
H529 H 0.78478 0.05881 0.30194 0.0
H530 H 0.78283 0.0991 0.29425 0.0
H531 H 0.76245 0.05991 0.289 0.0
H532 H 0.67348 0.13138 0.28064 0.0
H533 H 0.75788 0.15225 0.30275 0.0
H534 H 0.66198 0.21991 0.27151 0.0
H535 H 0.65246 0.17442 0.26838 0.0
H536 H 0.68995 0.19634 0.26229 0.0
H537 H 0.78711 0.20666 0.30334 0.0
H538 H 0.76257 0.24411 0.29831 0.0
H539 H 0.79425 0.2229 0.2897 0.0
H540 H 0.85933 0.08321 0.23457 0.0
H541 H 0.83437 0.12829 0.22464 0.0
H542 H 0.92397 0.17428 0.24012 0.0
H543 H 0.7705 0.18253 0.23409 0.0
H544 H 0.7817 0.15998 0.22169 0.0
H545 H 0.78411 0.2075 0.22241 0.0
H546 H 0.9227 0.23122 0.24769 0.0
H547 H 0.88008 0.2424 0.25332 0.0
H548 H 0.89385 0.26139 0.24064 0.0
H549 H 0.79523 0.45482 0.2197 0.0
H550 H 0.74223 0.48738 0.21352 0.0
H551 H 0.73253 0.4415 0.21592 0.0
H552 H 0.73754 0.45761 0.20218 0.0
H553 H 0.75762 0.35963 0.20556 0.0
H554 H 0.83754 0.41197 0.22384 0.0
H555 H 0.73789 0.29327 0.22464 0.0
H556 H 0.7701 0.27516 0.21554 0.0
H557 H 0.73585 0.30343 0.21031 0.0
H558 H 0.86817 0.38368 0.23809 0.0
H559 H 0.86635 0.33607 0.2386 0.0
H560 H 0.83619 0.36152 0.2466 0.0
H561 H 0.69857 0.26916 0.28751 0.0
H562 H 0.77214 0.18447 0.26936 0.0
H563 H 0.80983 0.18537 0.25375 0.0
H564 H 0.83669 0.27012 0.2257 0.0
H565 H 0.76436 0.35571 0.24411 0.0
H566 H 0.73081 0.35633 0.26067 0.0
H567 H 0.89393 0.04724 0.24756 0.0
H568 H 0.89256 0.09302 0.25137 0.0
H569 H 0.93206 0.07513 0.24529 0.0
C570 C 0.62929 0.65239 0.69334 0.0
C571 C 0.65948 0.62894 0.69733 0.0
C572 C 0.67437 0.65312 0.71501 0.0
C573 C 0.70776 0.66747 0.71275 0.0
C574 C 0.72174 0.69422 0.71925 0.0
C575 C 0.70205 0.7066 0.72825 0.0
C576 C 0.66904 0.69121 0.73081 0.0
C577 C 0.65577 0.66433 0.72419 0.0
C578 C 0.75745 0.70948 0.71646 0.0
C579 C 0.64766 0.70352 0.74044 0.0
C580 C 0.64015 0.98434 0.7179 0.0
C581 C 0.65226 0.95629 0.72549 0.0
C582 C 0.68665 0.90161 0.72491 0.0
C583 C 0.67273 0.88744 0.7346 0.0
C584 C 0.68373 0.85433 0.73843 0.0
C585 C 0.70986 0.83544 0.73261 0.0
C586 C 0.72434 0.84993 0.72296 0.0
C587 C 0.71227 0.88272 0.71919 0.0
C588 C 0.66711 0.83937 0.74864 0.0
C589 C 0.75237 0.83068 0.71657 0.0
C590 C 0.86505 0.86891 0.7872 0.0
C591 C 0.83325 0.8552 0.79115 0.0
C592 C 0.81687 0.82649 0.78612 0.0
C593 C 0.83295 0.81094 0.77693 0.0
C594 C 0.86515 0.82463 0.77286 0.0
C595 C 0.88079 0.85365 0.77798 0.0
C596 C 0.78232 0.81286 0.79061 0.0
C597 C 0.88292 0.80865 0.76305 0.0
C598 C 0.82003 0.53411 0.77608 0.0
C599 C 0.84202 0.5519 0.78488 0.0
C600 C 0.8217 0.61379 0.78435 0.0
C601 C 0.7985 0.63763 0.78922 0.0
C602 C 0.79346 0.67152 0.7849 0.0
C603 C 0.81281 0.68213 0.77557 0.0
C604 C 0.83723 0.65857 0.77078 0.0
C605 C 0.84105 0.62443 0.77511 0.0
C606 C 0.76717 0.69586 0.79025 0.0
C607 C 0.85897 0.66929 0.761 0.0
C608 C 0.71568 0.73646 0.73472 0.0
C609 C 0.70707 0.77057 0.73133 0.0
C610 C 0.7212 0.80008 0.73646 0.0
C611 C 0.74517 0.79556 0.74511 0.0
C612 C 0.76133 0.82459 0.75009 0.0
C613 C 0.78454 0.81985 0.75868 0.0
C614 C 0.79241 0.7859 0.76264 0.0
C615 C 0.81564 0.78084 0.77144 0.0
C616 C 0.82227 0.74678 0.77534 0.0
C617 C 0.80636 0.71736 0.77063 0.0
C618 C 0.78363 0.72184 0.76166 0.0
C619 C 0.76758 0.69283 0.75661 0.0
C620 C 0.74567 0.69748 0.74771 0.0
C621 C 0.73806 0.7314 0.74372 0.0
C622 C 0.75322 0.76108 0.74884 0.0
C623 C 0.77652 0.75626 0.7577 0.0
C624 C 0.94213 0.89098 0.79446 0.0
C625 C 0.91113 0.91357 0.79052 0.0
O626 O 0.6596 0.62825 0.70859 0.0
O627 O 0.82429 0.58109 0.78889 0.0
O628 O 0.87942 0.89655 0.79261 0.0
O629 O 0.67583 0.93299 0.72073 0.0
H630 H 0.68447 0.64016 0.69407 0.0
H631 H 0.63332 0.67986 0.69615 0.0
H632 H 0.60353 0.6428 0.69655 0.0
H633 H 0.62849 0.65264 0.68432 0.0
H634 H 0.7232 0.65767 0.706 0.0
H635 H 0.6303 0.65261 0.72598 0.0
H636 H 0.75479 0.73806 0.71464 0.0
H637 H 0.76983 0.69638 0.70934 0.0
H638 H 0.7753 0.70678 0.72352 0.0
H639 H 0.62281 0.68833 0.74148 0.0
H640 H 0.64106 0.73186 0.73942 0.0
H641 H 0.6635 0.7009 0.74795 0.0
H642 H 0.66104 0.96555 0.73362 0.0
H643 H 0.58596 0.97438 0.71628 0.0
H644 H 0.65896 0.98442 0.71077 0.0
H645 H 0.65064 0.00952 0.72145 0.0
H646 H 0.65296 0.90183 0.73915 0.0
H647 H 0.72286 0.89386 0.71173 0.0
H648 H 0.68707 0.83826 0.75518 0.0
H649 H 0.65783 0.81203 0.7472 0.0
H650 H 0.64447 0.85547 0.75152 0.0
H651 H 0.76418 0.84746 0.71008 0.0
H652 H 0.74056 0.80707 0.71274 0.0
H653 H 0.77366 0.82146 0.72205 0.0
H654 H 0.91391 0.9187 0.78165 0.0
H655 H 0.82124 0.86718 0.79824 0.0
H656 H 0.90522 0.86407 0.77473 0.0
H657 H 0.76207 0.81297 0.78413 0.0
H658 H 0.7725 0.82881 0.79754 0.0
H659 H 0.78565 0.78518 0.79338 0.0
H660 H 0.9087 0.82126 0.76116 0.0
H661 H 0.86553 0.81151 0.75588 0.0
H662 H 0.88719 0.78001 0.76442 0.0
H663 H 0.8679 0.56003 0.78139 0.0
H664 H 0.83406 0.51059 0.77288 0.0
H665 H 0.8156 0.55267 0.76922 0.0
H666 H 0.79398 0.52583 0.77941 0.0
H667 H 0.7838 0.62929 0.79636 0.0
H668 H 0.85914 0.60647 0.77118 0.0
H669 H 0.74852 0.70647 0.78413 0.0
H670 H 0.78135 0.71853 0.79383 0.0
H671 H 0.75183 0.68246 0.79679 0.0
H672 H 0.8802 0.64998 0.75918 0.0
H673 H 0.87109 0.69557 0.76231 0.0
H674 H 0.84165 0.67141 0.7538 0.0
H675 H 0.68933 0.7742 0.72453 0.0
H676 H 0.75626 0.85131 0.74739 0.0
H677 H 0.79611 0.84319 0.7622 0.0
H678 H 0.83972 0.74316 0.7822 0.0
H679 H 0.77201 0.66611 0.75942 0.0
H680 H 0.73438 0.67417 0.74407 0.0
H681 H 0.93958 0.88537 0.8033 0.0
H682 H 0.96748 0.90492 0.79292 0.0
H683 H 0.94309 0.86549 0.7901 0.0
C684 C 0.64872 0.64958 0.05883 0.0
C685 C 0.66528 0.61333 0.05686 0.0
C686 C 0.63667 0.59183 0.04072 0.0
C687 C 0.62235 0.55952 0.0441 0.0
C688 C 0.59195 0.54603 0.03919 0.0
C689 C 0.57553 0.56542 0.03077 0.0
C690 C 0.59056 0.59759 0.02714 0.0
C691 C 0.62135 0.61017 0.03209 0.0
C692 C 0.57701 0.51133 0.04313 0.0
C693 C 0.57366 0.61895 0.01822 0.0
C694 C 0.29483 0.62544 0.04941 0.0
C695 C 0.32716 0.62089 0.04269 0.0
C696 C 0.38209 0.58704 0.04257 0.0
C697 C 0.39349 0.59934 0.03234 0.0
C698 C 0.42511 0.58726 0.02773 0.0
C699 C 0.44542 0.56173 0.03332 0.0
C700 C 0.43407 0.54927 0.04361 0.0
C701 C 0.4026 0.56231 0.04813 0.0
C702 C 0.43671 0.60173 0.01683 0.0
C703 C 0.45497 0.52195 0.04976 0.0
C704 C 0.37801 0.39678 0.98594 0.0
C705 C 0.38164 0.4319 0.98253 0.0
C706 C 0.41311 0.45044 0.98435 0.0
C707 C 0.44107 0.4336 0.98992 0.0
C708 C 0.43768 0.3978 0.99309 0.0
C709 C 0.4063 0.37968 0.99089 0.0
C710 C 0.41632 0.48807 0.98043 0.0
C711 C 0.46696 0.37887 0.99897 0.0
C712 C 0.69337 0.50999 0.96598 0.0
C713 C 0.68825 0.47003 0.96524 0.0
C714 C 0.62548 0.46159 0.9677 0.0
C715 C 0.5973 0.48379 0.96523 0.0
C716 C 0.56736 0.48502 0.97196 0.0
C717 C 0.56536 0.46265 0.98119 0.0
C718 C 0.59298 0.43854 0.98333 0.0
C719 C 0.623 0.43851 0.97659 0.0
C720 C 0.53829 0.51086 0.96937 0.0
C721 C 0.59108 0.41339 0.99285 0.0
C722 C 0.54183 0.55253 0.02615 0.0
C723 C 0.51051 0.56159 0.03151 0.0
C724 C 0.47812 0.54781 0.02823 0.0
C725 C 0.47699 0.5231 0.01969 0.0
C726 C 0.44543 0.50604 0.0169 0.0
C727 C 0.4444 0.48249 0.00829 0.0
C728 C 0.47455 0.47615 0.00188 0.0
C729 C 0.47342 0.45355 0.99278 0.0
C730 C 0.50355 0.44915 0.98632 0.0
C731 C 0.53522 0.46601 0.98886 0.0
C732 C 0.53736 0.48718 0.99825 0.0
C733 C 0.56924 0.50311 0.00137 0.0
C734 C 0.57104 0.52373 0.01067 0.0
C735 C 0.54067 0.53066 0.0169 0.0
C736 C 0.50815 0.51546 0.01377 0.0
C737 C 0.50672 0.49281 0.00465 0.0
C738 C 0.30637 0.37111 0.99874 0.0
C739 C 0.31473 0.3894 0.98792 0.0
O740 O 0.66487 0.60599 0.04583 0.0
O741 O 0.65479 0.46282 0.96137 0.0
O742 O 0.34773 0.37862 0.98433 0.0
O743 O 0.35167 0.59828 0.04732 0.0
H744 H 0.64938 0.59344 0.06143 0.0
H745 H 0.62095 0.64967 0.05601 0.0
H746 H 0.6635 0.67038 0.05432 0.0
H747 H 0.64877 0.65587 0.06763 0.0
H748 H 0.63494 0.54492 0.05059 0.0
H749 H 0.63288 0.63501 0.0295 0.0
H750 H 0.55051 0.51573 0.04677 0.0
H751 H 0.59405 0.49847 0.0493 0.0
H752 H 0.57374 0.49313 0.03618 0.0
H753 H 0.58847 0.64357 0.01638 0.0
H754 H 0.54626 0.62596 0.0206 0.0
H755 H 0.57215 0.60297 0.01071 0.0
H756 H 0.33898 0.64599 0.03962 0.0
H757 H 0.29481 0.65406 0.0518 0.0
H758 H 0.30146 0.61543 0.05778 0.0
H759 H 0.25493 0.60315 0.03993 0.0
H760 H 0.37792 0.61841 0.02791 0.0
H761 H 0.39363 0.55297 0.05601 0.0
H762 H 0.43399 0.58095 0.01058 0.0
H763 H 0.46491 0.60961 0.01706 0.0
H764 H 0.42077 0.62488 0.01428 0.0
H765 H 0.44113 0.51289 0.05725 0.0
H766 H 0.48087 0.53319 0.05207 0.0
H767 H 0.46017 0.4988 0.0445 0.0
H768 H 0.31442 0.4184 0.98933 0.0
H769 H 0.35999 0.44464 0.97836 0.0
H770 H 0.40328 0.35233 0.99332 0.0
H771 H 0.41572 0.50608 0.9875 0.0
H772 H 0.39455 0.49555 0.97488 0.0
H773 H 0.44188 0.49208 0.97614 0.0
H774 H 0.4593 0.35175 0.00149 0.0
H775 H 0.4746 0.39394 0.0063 0.0
H776 H 0.49053 0.37721 0.9936 0.0
H777 H 0.69153 0.45858 0.97352 0.0
H778 H 0.72013 0.51621 0.96906 0.0
H779 H 0.67367 0.52136 0.97169 0.0
H780 H 0.68996 0.52258 0.95789 0.0
H781 H 0.59943 0.50109 0.95822 0.0
H782 H 0.64451 0.42051 0.97825 0.0
H783 H 0.53366 0.52848 0.97641 0.0
H784 H 0.5134 0.49633 0.96787 0.0
H785 H 0.5445 0.52732 0.96211 0.0
H786 H 0.61249 0.39341 0.99261 0.0
H787 H 0.56523 0.39962 0.99298 0.0
H788 H 0.59326 0.42841 0.00052 0.0
H789 H 0.51134 0.57973 0.03829 0.0
H790 H 0.42125 0.51046 0.02142 0.0
H791 H 0.41944 0.46988 0.0066 0.0
H792 H 0.50228 0.43255 0.97918 0.0
H793 H 0.59331 0.49949 0.99674 0.0
H794 H 0.59636 0.53489 0.01276 0.0
H795 H 0.30613 0.342 0.99774 0.0
H796 H 0.28028 0.37978 0.0019 0.0
H797 H 0.3267 0.37803 0.00482 0.0
C798 C 0.82423 0.62924 0.4788 0.0
C799 C 0.83975 0.62549 0.46733 0.0
C800 C 0.88691 0.58149 0.46996 0.0
C801 C 0.8962 0.54634 0.46821 0.0
C802 C 0.92774 0.53241 0.47229 0.0
C803 C 0.95054 0.5543 0.47829 0.0
C804 C 0.94182 0.59015 0.47989 0.0
C805 C 0.91012 0.60346 0.47569 0.0
C806 C 0.93642 0.49411 0.47034 0.0
C807 C 0.96571 0.61416 0.48623 0.0
C808 C 0.23381 0.49545 0.46909 0.0
C809 C 0.21112 0.52877 0.46893 0.0
C810 C 0.14722 0.52645 0.46659 0.0
C811 C 0.13775 0.55335 0.47383 0.0
C812 C 0.10356 0.55493 0.47821 0.0
C813 C 0.0785 0.52903 0.47531 0.0
C814 C 0.08726 0.50355 0.4674 0.0
C815 C 0.12156 0.50283 0.46305 0.0
C816 C 0.0947 0.58321 0.48635 0.0
C817 C 0.061 0.47593 0.46399 0.0
C818 C 0.14119 0.41325 0.53165 0.0
C819 C 0.13282 0.44812 0.53438 0.0
C820 C 0.09928 0.46195 0.5322 0.0
C821 C 0.07376 0.44043 0.52714 0.0
C822 C 0.08136 0.40452 0.52512 0.0
C823 C 0.11501 0.39127 0.52752 0.0
C824 C 0.09168 0.50005 0.53477 0.0
C825 C 0.05463 0.38076 0.51986 0.0
C826 C 0.81002 0.51969 0.54022 0.0
C827 C 0.81879 0.48154 0.54328 0.0
C828 C 0.88278 0.47642 0.5429 0.0
C829 C 0.91044 0.49925 0.54535 0.0
C830 C 0.94258 0.49761 0.53966 0.0
C831 C 0.94729 0.47181 0.53151 0.0
C832 C 0.92011 0.44715 0.52949 0.0
C833 C 0.88802 0.44982 0.53518 0.0
C834 C 0.9711 0.52407 0.54212 0.0
C835 C 0.92473 0.4185 0.52115 0.0
C836 C 0.98267 0.53918 0.48331 0.0
C837 C 0.01441 0.54086 0.47748 0.0
C838 C 0.04517 0.52573 0.48161 0.0
C839 C 0.04427 0.50791 0.49173 0.0
C840 C 0.07443 0.4912 0.49589 0.0
C841 C 0.07351 0.47418 0.5059 0.0
C842 C 0.04244 0.47337 0.51221 0.0
C843 C 0.04155 0.45676 0.52252 0.0
C844 C 0.01023 0.45628 0.52858 0.0
C845 C 0.97957 0.47224 0.52461 0.0
C846 C 0.98003 0.48906 0.51431 0.0
C847 C 0.94978 0.50554 0.51008 0.0
C848 C 0.95048 0.52177 0.49992 0.0
C849 C 0.98161 0.52268 0.49365 0.0
C850 C 0.01248 0.50674 0.49782 0.0
C851 C 0.01162 0.48964 0.50811 0.0
C852 C 0.21165 0.40579 0.51723 0.0
C853 C 0.20465 0.41676 0.52899 0.0
O854 O 0.85528 0.59267 0.46609 0.0
O855 O 0.85158 0.48035 0.54821 0.0
O856 O 0.1743 0.40029 0.53282 0.0
O857 O 0.18086 0.52219 0.463 0.0
H858 H 0.85975 0.6465 0.46591 0.0
H859 H 0.8453 0.62746 0.48499 0.0
H860 H 0.80466 0.60807 0.48049 0.0
H861 H 0.81111 0.65528 0.47968 0.0
H862 H 0.87829 0.52964 0.46374 0.0
H863 H 0.90364 0.63084 0.47705 0.0
H864 H 0.96302 0.4918 0.46659 0.0
H865 H 0.91692 0.48111 0.46499 0.0
H866 H 0.93703 0.47979 0.47823 0.0
H867 H 0.95543 0.64155 0.48667 0.0
H868 H 0.99231 0.61473 0.48241 0.0
H869 H 0.96878 0.60375 0.49462 0.0
H870 H 0.2045 0.53471 0.47756 0.0
H871 H 0.25821 0.49994 0.47384 0.0
H872 H 0.24121 0.48751 0.46071 0.0
H873 H 0.21887 0.4735 0.47297 0.0
H874 H 0.15716 0.57277 0.47618 0.0
H875 H 0.12899 0.48268 0.45726 0.0
H876 H 0.06877 0.5953 0.48444 0.0
H877 H 0.11505 0.60426 0.48654 0.0
H878 H 0.09265 0.57121 0.49458 0.0
H879 H 0.07142 0.45886 0.45741 0.0
H880 H 0.03642 0.48882 0.46115 0.0
H881 H 0.05399 0.45906 0.47108 0.0
H882 H 0.20146 0.44592 0.52904 0.0
H883 H 0.1526 0.46467 0.53808 0.0
H884 H 0.12159 0.36414 0.52567 0.0
H885 H 0.09054 0.51549 0.5271 0.0
H886 H 0.11222 0.51178 0.54003 0.0
H887 H 0.06564 0.5025 0.53887 0.0
H888 H 0.06371 0.35294 0.5195 0.0
H889 H 0.04946 0.39021 0.51147 0.0
H890 H 0.02929 0.38182 0.52442 0.0
H891 H 0.81888 0.46584 0.53568 0.0
H892 H 0.78372 0.52112 0.53631 0.0
H893 H 0.83002 0.52994 0.53438 0.0
H894 H 0.80999 0.53675 0.54753 0.0
H895 H 0.9063 0.51921 0.55149 0.0
H896 H 0.86716 0.43105 0.53363 0.0
H897 H 0.97819 0.53897 0.53462 0.0
H898 H 0.99515 0.51006 0.54489 0.0
H899 H 0.96293 0.54308 0.54848 0.0
H900 H 0.90309 0.39877 0.52152 0.0
H901 H 0.95029 0.40477 0.52236 0.0
H902 H 0.92521 0.43044 0.5129 0.0
H903 H 0.01517 0.554 0.46963 0.0
H904 H 0.09919 0.49095 0.49147 0.0
H905 H 0.09761 0.46179 0.50862 0.0
H906 H 0.00979 0.44364 0.5365 0.0
H907 H 0.92513 0.50601 0.51456 0.0
H908 H 0.92634 0.53384 0.49708 0.0
H909 H 0.23617 0.41844 0.51411 0.0
H910 H 0.18938 0.41436 0.51202 0.0
H911 H 0.21433 0.3767 0.51661 0.0
Fe912 Fe 0.01525 0.7681 0.14398 0.0
O913 O 0.0424 0.74572 0.13197 0.0
Fe914 Fe 0.93545 0.79062 0.13275 0.0
Fe915 Fe 0.09433 0.74777 0.13148 0.0
O916 O 0.98681 0.78975 0.13222 0.0
O917 O 0.987 0.7903 0.13123 0.0
O918 O 0.04247 0.74606 0.13093 0.0
Fe919 Fe 0.01374 0.76789 0.11904 0.0
C920 C 0.07907 0.81239 0.14546 0.0
O921 O 0.04827 0.74154 0.15503 0.0
O922 O 0.08905 0.71294 0.14419 0.0
O923 O 0.98059 0.72472 0.119 0.0
O924 O 0.9283 0.75094 0.12169 0.0
O925 O 0.93144 0.75339 0.1451 0.0
O926 O 0.98279 0.72514 0.1448 0.0
O927 O 0.08847 0.71328 0.11863 0.0
O928 O 0.04649 0.74112 0.10796 0.0
C929 C 0.95013 0.7262 0.14709 0.0
O930 O 0.97962 0.79391 0.10827 0.0
O931 O 0.94027 0.82365 0.11939 0.0
O932 O 0.04659 0.8114 0.14332 0.0
O933 O 0.09927 0.78639 0.14342 0.0
C934 C 0.07253 0.71782 0.15332 0.0
C935 C 0.07181 0.71831 0.10953 0.0
C936 C 0.07938 0.81106 0.11644 0.0
O937 O 0.09882 0.78599 0.11976 0.0
O938 O 0.04615 0.81142 0.11793 0.0
C939 C 0.94703 0.72528 0.11831 0.0
O940 O 0.94463 0.8269 0.1449 0.0
O941 O 0.98455 0.79593 0.15525 0.0
C942 C 0.95496 0.81726 0.11001 0.0
C943 C 0.96288 0.82209 0.15369 0.0
Fe944 Fe 0.50303 0.76462 0.39396 0.0
O945 O 0.48367 0.73534 0.38204 0.0
Fe946 Fe 0.5202 0.84496 0.38186 0.0
Fe947 Fe 0.48711 0.68381 0.38236 0.0
O948 O 0.52424 0.79338 0.38206 0.0
O949 O 0.52433 0.79334 0.38103 0.0
O950 O 0.48363 0.73536 0.38101 0.0
Fe951 Fe 0.50527 0.76381 0.36897 0.0
C952 C 0.54933 0.70273 0.39692 0.0
O953 O 0.47664 0.7315 0.40511 0.0
O954 O 0.44974 0.68989 0.39441 0.0
O955 O 0.46001 0.79378 0.3679 0.0
O956 O 0.48151 0.84806 0.37035 0.0
O957 O 0.48157 0.84745 0.39396 0.0
O958 O 0.45815 0.794 0.39363 0.0
O959 O 0.4546 0.68655 0.36893 0.0
O960 O 0.48226 0.72829 0.35803 0.0
C961 C 0.45634 0.82628 0.3961 0.0
O962 O 0.53099 0.79818 0.35803 0.0
O963 O 0.55519 0.84136 0.36896 0.0
O964 O 0.54785 0.73515 0.39449 0.0
O965 O 0.52398 0.68182 0.39481 0.0
C966 C 0.45251 0.70777 0.40333 0.0
C967 C 0.46079 0.70177 0.3596 0.0
C968 C 0.55213 0.70013 0.36804 0.0
O969 O 0.52761 0.67974 0.37134 0.0
O970 O 0.55054 0.73358 0.36891 0.0
C971 C 0.45779 0.82718 0.36696 0.0
O972 O 0.55541 0.84024 0.39438 0.0
O973 O 0.52779 0.79836 0.4051 0.0
C974 C 0.55244 0.82441 0.35984 0.0
C975 C 0.55145 0.82278 0.4034 0.0
Fe976 Fe 0.51214 0.2613 0.64174 0.0
O977 O 0.54168 0.23965 0.63012 0.0
Fe978 Fe 0.43547 0.28558 0.62882 0.0
Fe979 Fe 0.59339 0.23909 0.63066 0.0
O980 O 0.48709 0.28491 0.62956 0.0
O981 O 0.4873 0.28502 0.62854 0.0
O982 O 0.54187 0.23974 0.62913 0.0
Fe983 Fe 0.51629 0.26265 0.61682 0.0
C984 C 0.57731 0.30288 0.64512 0.0
O985 O 0.54153 0.23275 0.65313 0.0
O986 O 0.58367 0.20333 0.64306 0.0
O987 O 0.48276 0.21991 0.61595 0.0
O988 O 0.43061 0.24711 0.61728 0.0
O989 O 0.42798 0.24718 0.64073 0.0
O990 O 0.47916 0.21896 0.64113 0.0
O991 O 0.58911 0.20565 0.61749 0.0
O992 O 0.55079 0.23593 0.60622 0.0
C993 C 0.44631 0.22001 0.64303 0.0
O994 O 0.48491 0.28986 0.60548 0.0
O995 O 0.44376 0.31978 0.61591 0.0
O996 O 0.54489 0.30349 0.64275 0.0
O997 O 0.59726 0.27696 0.64274 0.0
C998 C 0.56468 0.20775 0.65179 0.0
C999 C 0.57525 0.2124 0.60804 0.0
C1000 C 0.58351 0.3044 0.616 0.0
O1001 O 0.60156 0.27819 0.61932 0.0
O1002 O 0.54997 0.30537 0.61673 0.0
C1003 C 0.44947 0.22075 0.61459 0.0
O1004 O 0.4415 0.32032 0.6415 0.0
O1005 O 0.47868 0.28832 0.65253 0.0
C1006 C 0.46014 0.31344 0.6068 0.0
C1007 C 0.45679 0.3142 0.65075 0.0
Fe1008 Fe 0.00349 0.25978 0.89589 0.0
O1009 O 0.98097 0.23344 0.88382 0.0
Fe1010 Fe 0.03099 0.33763 0.88391 0.0
Fe1011 Fe 0.97827 0.18181 0.88382 0.0
O1012 O 0.02832 0.28604 0.88408 0.0
O1013 O 0.02843 0.28604 0.88306 0.0
O1014 O 0.98112 0.23341 0.88278 0.0
Fe1015 Fe 0.00633 0.25947 0.87088 0.0
C1016 C 0.0423 0.19224 0.89834 0.0
O1017 O 0.97321 0.22938 0.90684 0.0
O1018 O 0.94193 0.1913 0.89599 0.0
O1019 O 0.96504 0.29454 0.86984 0.0
O1020 O 0.99318 0.34571 0.87227 0.0
O1021 O 0.9925 0.34468 0.89578 0.0
O1022 O 0.96241 0.29452 0.89568 0.0
O1023 O 0.9465 0.18917 0.87037 0.0
O1024 O 0.97996 0.22714 0.85975 0.0
C1025 C 0.96455 0.32711 0.89778 0.0
O1026 O 0.03595 0.29102 0.86005 0.0
O1027 O 0.06564 0.33011 0.8711 0.0
O1028 O 0.04455 0.22501 0.89639 0.0
O1029 O 0.01451 0.17479 0.8962 0.0
C1030 C 0.94702 0.2079 0.90506 0.0
C1031 C 0.95578 0.20294 0.86106 0.0
C1032 C 0.04497 0.19101 0.86959 0.0
O1033 O 0.01806 0.17357 0.87274 0.0
O1034 O 0.04767 0.22421 0.87086 0.0
C1035 C 0.96707 0.32792 0.86884 0.0
O1036 O 0.06499 0.32822 0.89658 0.0
O1037 O 0.03164 0.29032 0.90717 0.0
C1038 C 0.06019 0.31471 0.86184 0.0
C1039 C 0.05822 0.31168 0.90563 0.0
H1040 H 0.23372 0.85122 0.47524 0.0
H1041 H 0.28652 0.85964 0.46392 0.0
H1042 H 0.22131 0.8659 0.4354 0.0
H1043 H 0.16862 0.85831 0.4467 0.0
H1044 H 0.30795 0.81493 0.4485 0.0
H1045 H 0.28898 0.94634 0.42981 0.0
H1046 H 0.26399 0.9317 0.44153 0.0
H1047 H 0.25103 0.91878 0.42809 0.0
C1048 C 0.23068 0.85543 0.4666 0.0
C1049 C 0.19705 0.85481 0.46186 0.0
C1050 C 0.26081 0.86011 0.46014 0.0
C1051 C 0.25784 0.86409 0.44883 0.0
C1052 C 0.22423 0.86399 0.44413 0.0
H1053 H 0.39402 0.79195 0.39897 0.0
H1054 H 0.34768 0.80499 0.41212 0.0
C1055 C 0.19414 0.85944 0.45058 0.0
C1056 C 0.28977 0.86426 0.44181 0.0
H1057 H 0.32875 0.90693 0.42038 0.0
C1058 C 0.3128 0.83537 0.44248 0.0
C1059 C 0.2964 0.89113 0.43404 0.0
C1060 C 0.27397 0.92391 0.43339 0.0
C1061 C 0.34118 0.8317 0.43523 0.0
C1062 C 0.34622 0.85725 0.42695 0.0
C1063 C 0.32444 0.88713 0.42663 0.0
C1064 C 0.37272 0.85206 0.41824 0.0
C1065 C 0.3653 0.80023 0.4364 0.0
C1066 C 0.40122 0.87535 0.41691 0.0
C1067 C 0.42779 0.86816 0.40927 0.0
C1068 C 0.4261 0.83756 0.40289 0.0
C1069 C 0.3964 0.81551 0.40385 0.0
C1070 C 0.36994 0.82279 0.4114 0.0
H1071 H 0.36382 0.78864 0.4447 0.0
H1072 H 0.35735 0.77957 0.43057 0.0
H1073 H 0.3931 0.80756 0.43461 0.0
H1074 H 0.40357 0.89829 0.42205 0.0
H1075 H 0.45033 0.88564 0.40872 0.0
H1076 H 0.2972 0.96117 0.69665 0.0
H1077 H 0.31339 0.00531 0.68285 0.0
H1078 H 0.39269 0.04692 0.70421 0.0
H1079 H 0.37641 0.0032 0.71804 0.0
H1080 H 0.34938 0.09845 0.69481 0.0
H1081 H 0.40365 0.00643 0.66391 0.0
H1082 H 0.35977 0.99677 0.66868 0.0
H1083 H 0.3962 0.99349 0.67787 0.0
C1084 C 0.31835 0.97951 0.69833 0.0
C1085 C 0.33611 0.97831 0.70832 0.0
C1086 C 0.32758 0.00462 0.69045 0.0
C1087 C 0.3546 0.02896 0.69246 0.0
C1088 C 0.37194 0.02816 0.70248 0.0
H1089 H 0.47968 0.16279 0.65176 0.0
H1090 H 0.4542 0.11642 0.66309 0.0
C1091 C 0.36275 0.00312 0.71035 0.0
C1092 C 0.36448 0.05592 0.68426 0.0
H1093 H 0.40158 0.06676 0.65913 0.0
C1094 C 0.3606 0.09159 0.68697 0.0
C1095 C 0.37936 0.04675 0.6741 0.0
C1096 C 0.38533 0.00881 0.67095 0.0
C1097 C 0.37165 0.11844 0.67986 0.0
C1098 C 0.3864 0.1093 0.66967 0.0
C1099 C 0.38991 0.07362 0.6669 0.0
C1100 C 0.40083 0.13634 0.66216 0.0
C1101 C 0.36868 0.15631 0.68347 0.0
C1102 C 0.37911 0.16256 0.65769 0.0
C1103 C 0.39364 0.18941 0.65124 0.0
C1104 C 0.43011 0.19025 0.64909 0.0
C1105 C 0.4515 0.16308 0.65325 0.0
C1106 C 0.43699 0.13645 0.65973 0.0
H1107 H 0.36384 0.15839 0.69235 0.0
H1108 H 0.39306 0.17119 0.68139 0.0
H1109 H 0.34631 0.16906 0.67922 0.0
H1110 H 0.351 0.16252 0.65931 0.0
H1111 H 0.37641 0.20974 0.64808 0.0
H1112 H 0.31976 0.04268 0.93901 0.0
H1113 H 0.27545 0.07241 0.92787 0.0
H1114 H 0.20829 0.08376 0.95605 0.0
H1115 H 0.25308 0.05517 0.96729 0.0
H1116 H 0.20913 0.05332 0.9236 0.0
H1117 H 0.20788 0.1829 0.94411 0.0
H1118 H 0.24172 0.15039 0.94652 0.0
H1119 H 0.1997 0.14705 0.95334 0.0
C1120 C 0.29587 0.05221 0.94286 0.0
C1121 C 0.2903 0.04765 0.95409 0.0
C1122 C 0.27049 0.06896 0.93648 0.0
C1123 C 0.23892 0.08104 0.94117 0.0
C1124 C 0.23293 0.07569 0.95232 0.0
H1125 H 0.04357 0.12656 0.90773 0.0
H1126 H 0.09216 0.09927 0.91765 0.0
C1127 C 0.25842 0.05924 0.95872 0.0
C1128 C 0.21164 0.09792 0.93433 0.0
H1129 H 0.16033 0.17145 0.93202 0.0
C1130 C 0.19863 0.07926 0.92539 0.0
C1131 C 0.19835 0.13199 0.93657 0.0
C1132 C 0.21289 0.15441 0.94559 0.0
C1133 C 0.17213 0.09342 0.91877 0.0
C1134 C 0.15762 0.12673 0.92134 0.0
C1135 C 0.17118 0.14571 0.93013 0.0
C1136 C 0.12847 0.14259 0.91501 0.0
C1137 C 0.16039 0.07279 0.90899 0.0
C1138 C 0.13245 0.17632 0.91044 0.0
C1139 C 0.10459 0.19221 0.90492 0.0
C1140 C 0.07213 0.17463 0.90384 0.0
C1141 C 0.06829 0.14068 0.90833 0.0
C1142 C 0.09613 0.12494 0.91395 0.0
H1143 H 0.18095 0.05378 0.90631 0.0
H1144 H 0.13637 0.0575 0.91114 0.0
H1145 H 0.15406 0.09055 0.90208 0.0
H1146 H 0.15713 0.19047 0.9112 0.0
H1147 H 0.10849 0.21837 0.90155 0.0
H1148 H 0.0818 0.08166 0.20785 0.0
H1149 H 0.07508 0.03646 0.19389 0.0
H1150 H 0.16212 0.97833 0.20754 0.0
H1151 H 0.16954 0.02394 0.22133 0.0
H1152 H 0.16724 0.98437 0.18555 0.0
H1153 H 0.03272 0.93926 0.19711 0.0
H1154 H 0.03555 0.98564 0.19434 0.0
H1155 H 0.0587 0.96727 0.20575 0.0
C1156 C 0.09945 0.05921 0.20786 0.0
C1157 C 0.12628 0.05636 0.21564 0.0
C1158 C 0.09541 0.03327 0.19995 0.0
C1159 C 0.11775 0.00375 0.19979 0.0
C1160 C 0.14451 0.00083 0.20755 0.0
H1161 H 0.13537 0.81624 0.15935 0.0
H1162 H 0.1475 0.86393 0.1722 0.0
C1163 C 0.14871 0.02683 0.21542 0.0
C1164 C 0.11405 0.9764 0.19132 0.0
H1165 H 0.05642 0.91704 0.18065 0.0
C1166 C 0.14309 0.96948 0.18451 0.0
C1167 C 0.08243 0.95714 0.18996 0.0
C1168 C 0.05068 0.96241 0.19724 0.0
C1169 C 0.14122 0.94421 0.17625 0.0
C1170 C 0.10967 0.92496 0.17491 0.0
C1171 C 0.08063 0.93185 0.18172 0.0
C1172 C 0.10567 0.89789 0.16638 0.0
C1173 C 0.17268 0.93899 0.16887 0.0
C1174 C 0.0785 0.90138 0.15881 0.0
C1175 C 0.07149 0.8743 0.15155 0.0
C1176 C 0.09145 0.84302 0.15173 0.0
C1177 C 0.11985 0.84019 0.15895 0.0
C1178 C 0.12676 0.8674 0.16629 0.0
H1179 H 0.19105 0.96179 0.16914 0.0
H1180 H 0.18734 0.91516 0.1715 0.0
H1181 H 0.16428 0.93507 0.16034 0.0
H1182 H 0.06195 0.92468 0.15873 0.0
H1183 H 0.04948 0.87735 0.14606 0.0
H1184 H 0.2715 0.06336 0.54122 0.0
H1185 H 0.32045 0.08529 0.55218 0.0
H1186 H 0.25943 0.06656 0.58134 0.0
H1187 H 0.21094 0.04363 0.57044 0.0
H1188 H 0.321 0.14147 0.5652 0.0
H1189 H 0.35224 0.02271 0.58956 0.0
H1190 H 0.32442 0.02113 0.57773 0.0
H1191 H 0.30656 0.0345 0.59066 0.0
C1192 C 0.26862 0.06395 0.54998 0.0
C1193 C 0.23714 0.05257 0.55497 0.0
C1194 C 0.29661 0.0763 0.55623 0.0
C1195 C 0.29382 0.07714 0.56759 0.0
C1196 C 0.26253 0.06543 0.5726 0.0
H1197 H 0.3812 0.20082 0.61676 0.0
H1198 H 0.3483 0.16095 0.60508 0.0
C1199 C 0.23462 0.05286 0.56636 0.0
C1200 C 0.32259 0.09254 0.57416 0.0
H1201 H 0.37398 0.07808 0.59646 0.0
C1202 C 0.33307 0.12733 0.57189 0.0
C1203 C 0.33851 0.07403 0.58287 0.0
C1204 C 0.33012 0.0359 0.58528 0.0
C1205 C 0.35766 0.14466 0.57843 0.0
C1206 C 0.37204 0.12678 0.58745 0.0
C1207 C 0.36277 0.09161 0.58951 0.0
C1208 C 0.39358 0.14587 0.59543 0.0
C1209 C 0.36708 0.18254 0.57597 0.0
C1210 C 0.43016 0.14958 0.59403 0.0
C1211 C 0.4492 0.17231 0.60075 0.0
C1212 C 0.43166 0.19181 0.60883 0.0
C1213 C 0.39536 0.18638 0.61054 0.0
C1214 C 0.37653 0.16355 0.60392 0.0
H1215 H 0.35537 0.192 0.56824 0.0
H1216 H 0.35754 0.19962 0.58267 0.0
H1217 H 0.39618 0.18551 0.57546 0.0
H1218 H 0.44361 0.13613 0.58747 0.0
H1219 H 0.47711 0.17615 0.59922 0.0
H1220 H 0.09881 0.99493 0.78894 0.0
H1221 H 0.08607 0.0413 0.80215 0.0
H1222 H 0.18481 0.01978 0.8181 0.0
H1223 H 0.19848 0.97489 0.8046 0.0
H1224 H 0.07526 0.03634 0.82273 0.0
H1225 H 0.18993 0.12427 0.81672 0.0
H1226 H 0.18001 0.08889 0.8075 0.0
H1227 H 0.20385 0.08024 0.81985 0.0
C1228 C 0.11783 0.00029 0.79525 0.0
C1229 C 0.14924 0.98073 0.79585 0.0
C1230 C 0.1106 0.02681 0.80277 0.0
C1231 C 0.13465 0.03442 0.81107 0.0
C1232 C 0.1662 0.01511 0.81164 0.0
H1233 H 0.06898 0.12414 0.87187 0.0
H1234 H 0.09525 0.08787 0.85759 0.0
C1235 C 0.17372 0.98897 0.80401 0.0
C1236 C 0.12558 0.06084 0.81952 0.0
H1237 H 0.15701 0.13215 0.83332 0.0
C1238 C 0.09309 0.05744 0.82496 0.0
C1239 C 0.14843 0.0889 0.82232 0.0
C1240 C 0.1823 0.09605 0.8162 0.0
C1241 C 0.08324 0.08057 0.83327 0.0
C1242 C 0.10716 0.107 0.83659 0.0
C1243 C 0.13914 0.11128 0.83095 0.0
C1244 C 0.09885 0.13042 0.84586 0.0
C1245 C 0.04697 0.07677 0.83829 0.0
C1246 C 0.0949 0.16691 0.84427 0.0
C1247 C 0.08064 0.18788 0.85253 0.0
C1248 C 0.06996 0.17245 0.86242 0.0
C1249 C 0.07691 0.13658 0.8643 0.0
C1250 C 0.09158 0.11582 0.85612 0.0
H1251 H 0.02858 0.06309 0.83274 0.0
H1252 H 0.04886 0.06083 0.84585 0.0
H1253 H 0.03552 0.10285 0.84037 0.0
H1254 H 0.10061 0.17871 0.83642 0.0
H1255 H 0.07517 0.2154 0.85084 0.0
H1256 H 0.28084 0.85124 0.03619 0.0
H1257 H 0.22535 0.86443 0.04571 0.0
H1258 H 0.28292 0.88087 0.07535 0.0
H1259 H 0.33815 0.86841 0.06586 0.0
H1260 H 0.20011 0.82512 0.06206 0.0
H1261 H 0.21383 0.96133 0.07683 0.0
H1262 H 0.24162 0.94374 0.06619 0.0
H1263 H 0.25192 0.93571 0.08026 0.0
C1264 C 0.28163 0.85877 0.04465 0.0
C1265 C 0.31385 0.85935 0.05025 0.0
C1266 C 0.24997 0.86622 0.05009 0.0
C1267 C 0.24998 0.87438 0.0612 0.0
C1268 C 0.28225 0.87582 0.06671 0.0
H1269 H 0.1447 0.83901 0.11805 0.0
H1270 H 0.17939 0.86429 0.10319 0.0
C1271 C 0.31383 0.86844 0.06129 0.0
C1272 C 0.21642 0.87644 0.06746 0.0
H1273 H 0.17567 0.9227 0.08768 0.0
C1274 C 0.19409 0.84693 0.06742 0.0
C1275 C 0.20856 0.90493 0.07444 0.0
C1276 C 0.2301 0.93835 0.07435 0.0
C1277 C 0.16597 0.84377 0.07482 0.0
C1278 C 0.15971 0.87118 0.08235 0.0
C1279 C 0.1805 0.90177 0.08189 0.0
C1280 C 0.13611 0.86554 0.09183 0.0
C1281 C 0.14497 0.80991 0.07511 0.0
C1282 C 0.09973 0.86004 0.09058 0.0
C1283 C 0.07969 0.84579 0.09914 0.0
C1284 C 0.09602 0.83673 0.10898 0.0
C1285 C 0.13155 0.8457 0.11053 0.0
C1286 C 0.15139 0.86013 0.10204 0.0
H1287 H 0.15586 0.78971 0.06951 0.0
H1288 H 0.14446 0.7987 0.08346 0.0
H1289 H 0.11735 0.81541 0.07272 0.0
H1290 H 0.08743 0.86439 0.08277 0.0
H1291 H 0.05239 0.83886 0.09772 0.0
H1292 H 0.33021 0.0092 0.28937 0.0
H1293 H 0.34618 0.95892 0.30091 0.0
H1294 H 0.3178 0.01864 0.32937 0.0
H1295 H 0.3006 0.06839 0.31786 0.0
H1296 H 0.39635 0.95504 0.31571 0.0
H1297 H 0.2686 0.92731 0.33586 0.0
H1298 H 0.27235 0.95606 0.32418 0.0
H1299 H 0.28152 0.97239 0.33758 0.0
C1300 C 0.3274 0.01151 0.2981 0.0
C1301 C 0.31496 0.04298 0.30273 0.0
C1302 C 0.33635 0.98276 0.30467 0.0
C1303 C 0.33273 0.98478 0.316 0.0
C1304 C 0.32004 0.0161 0.32064 0.0
H1305 H 0.42676 0.89056 0.37025 0.0
H1306 H 0.39019 0.92332 0.35742 0.0
C1307 C 0.31077 0.04475 0.31407 0.0
C1308 C 0.34456 0.95509 0.323 0.0
H1309 H 0.3203 0.90345 0.34464 0.0
C1310 C 0.37948 0.94328 0.32188 0.0
C1311 C 0.32248 0.93957 0.33103 0.0
C1312 C 0.28405 0.94924 0.33216 0.0
C1313 C 0.39344 0.91775 0.32892 0.0
C1314 C 0.3719 0.90363 0.33728 0.0
C1315 C 0.33666 0.91439 0.33819 0.0
C1316 C 0.38714 0.88089 0.34582 0.0
C1317 C 0.43165 0.90719 0.32774 0.0
C1318 C 0.39612 0.84566 0.34371 0.0
C1319 C 0.41677 0.82667 0.35111 0.0
C1320 C 0.429 0.84301 0.36058 0.0
C1321 C 0.41779 0.87743 0.36298 0.0
C1322 C 0.39687 0.89614 0.35568 0.0
H1323 H 0.44538 0.92213 0.32118 0.0
H1324 H 0.44573 0.9116 0.33549 0.0
H1325 H 0.43336 0.87864 0.32587 0.0
H1326 H 0.38882 0.83356 0.3361 0.0
H1327 H 0.42529 0.80027 0.34903 0.0
H1328 H 0.81468 0.17419 0.53765 0.0
H1329 H 0.76766 0.18777 0.55073 0.0
H1330 H 0.72939 0.081 0.54855 0.0
H1331 H 0.77626 0.06733 0.53541 0.0
H1332 H 0.67578 0.13362 0.54736 0.0
H1333 H 0.76445 0.15282 0.58255 0.0
H1334 H 0.77582 0.17848 0.57073 0.0
H1335 H 0.77866 0.13121 0.57026 0.0
C1336 C 0.79649 0.15353 0.54007 0.0
C1337 C 0.79965 0.11944 0.53574 0.0
C1338 C 0.76965 0.16132 0.54752 0.0
C1339 C 0.74542 0.13522 0.55072 0.0
C1340 C 0.748 0.10141 0.54623 0.0
H1341 H 0.61324 0.15124 0.60794 0.0
H1342 H 0.65071 0.12914 0.5933 0.0
C1343 C 0.77487 0.09359 0.5388 0.0
C1344 C 0.71742 0.14321 0.55878 0.0
H1345 H 0.70454 0.16874 0.58501 0.0
C1346 C 0.68196 0.14116 0.55562 0.0
C1347 C 0.72563 0.15261 0.56956 0.0
C1348 C 0.76317 0.15364 0.57355 0.0
C1349 C 0.65445 0.14894 0.56293 0.0
C1350 C 0.66275 0.15936 0.57362 0.0
C1351 C 0.69821 0.16083 0.5768 0.0
C1352 C 0.63539 0.16926 0.58171 0.0
C1353 C 0.61681 0.14557 0.55919 0.0
C1354 C 0.61342 0.19851 0.57993 0.0
C1355 C 0.59168 0.2111 0.58828 0.0
C1356 C 0.59198 0.19493 0.59859 0.0
C1357 C 0.61255 0.16447 0.60013 0.0
C1358 C 0.63402 0.15179 0.59177 0.0
H1359 H 0.61471 0.12832 0.55196 0.0
H1360 H 0.59968 0.13475 0.56576 0.0
H1361 H 0.60669 0.17204 0.55693 0.0
H1362 H 0.61451 0.21279 0.5723 0.0
H1363 H 0.57643 0.23481 0.58686 0.0
H1364 H 0.69406 0.0391 0.28994 0.0
H1365 H 0.66362 0.98504 0.29581 0.0
H1366 H 0.70124 0.00032 0.32841 0.0
H1367 H 0.73157 0.0544 0.32262 0.0
H1368 H 0.70845 0.92634 0.31715 0.0
H1369 H 0.57448 0.98724 0.31809 0.0
H1370 H 0.60385 0.99579 0.3068 0.0
H1371 H 0.61361 0.01369 0.31987 0.0
C1372 C 0.6956 0.03099 0.29837 0.0
C1373 C 0.71449 0.05133 0.3059 0.0
C1374 C 0.67837 0.00014 0.30168 0.0
C1375 C 0.6801 0.98902 0.31253 0.0
C1376 C 0.69962 0.00868 0.32 0.0
H1377 H 0.61718 0.85401 0.36125 0.0
H1378 H 0.64895 0.88634 0.34716 0.0
C1379 C 0.71674 0.03957 0.31671 0.0
C1380 C 0.66096 0.9573 0.31628 0.0
H1381 H 0.58041 0.93063 0.32561 0.0
C1382 C 0.68033 0.92692 0.31883 0.0
C1383 C 0.62427 0.95813 0.31828 0.0
C1384 C 0.60258 0.99038 0.31566 0.0
C1385 C 0.66415 0.89787 0.3239 0.0
C1386 C 0.62796 0.89974 0.32668 0.0
C1387 C 0.60815 0.92922 0.32345 0.0
C1388 C 0.6116 0.87464 0.33445 0.0
C1389 C 0.68619 0.86589 0.32654 0.0
C1390 C 0.58009 0.857 0.33199 0.0
C1391 C 0.56175 0.83835 0.34009 0.0
C1392 C 0.57439 0.83783 0.3508 0.0
C1393 C 0.60675 0.85411 0.35308 0.0
C1394 C 0.62513 0.87232 0.345 0.0
H1395 H 0.70818 0.86285 0.32061 0.0
H1396 H 0.69795 0.86914 0.3347 0.0
H1397 H 0.67007 0.84144 0.32657 0.0
H1398 H 0.56903 0.85884 0.32391 0.0
H1399 H 0.53672 0.82625 0.33814 0.0
H1400 H 0.71649 0.97524 0.06753 0.0
H1401 H 0.77252 0.95106 0.0739 0.0
H1402 H 0.7811 0.88816 0.04494 0.0
H1403 H 0.72496 0.91244 0.03847 0.0
H1404 H 0.79197 0.85084 0.06504 0.0
H1405 H 0.87307 0.97191 0.06214 0.0
H1406 H 0.83168 0.97869 0.06899 0.0
H1407 H 0.83215 0.96663 0.05488 0.0
C1408 C 0.73027 0.95617 0.06254 0.0
C1409 C 0.716 0.94512 0.05263 0.0
C1410 C 0.76239 0.94266 0.06613 0.0
C1411 C 0.78106 0.91816 0.05982 0.0
C1412 C 0.76708 0.90716 0.04989 0.0
H1413 H 0.95682 0.7973 0.0886 0.0
H1414 H 0.92108 0.82171 0.07383 0.0
C1415 C 0.73498 0.92084 0.04626 0.0
C1416 C 0.81423 0.90291 0.06399 0.0
H1417 H 0.89411 0.92653 0.07423 0.0
C1418 C 0.81473 0.86707 0.06683 0.0
C1419 C 0.84386 0.92422 0.06621 0.0
C1420 C 0.84541 0.96244 0.0628 0.0
C1421 C 0.84295 0.85258 0.07268 0.0
C1422 C 0.87158 0.87455 0.07555 0.0
C1423 C 0.87211 0.9098 0.07203 0.0
C1424 C 0.89802 0.86308 0.08361 0.0
C1425 C 0.84069 0.81464 0.07641 0.0
C1426 C 0.89835 0.87951 0.09377 0.0
C1427 C 0.91879 0.8659 0.10216 0.0
C1428 C 0.93941 0.83555 0.10055 0.0
C1429 C 0.94115 0.82067 0.09011 0.0
C1430 C 0.92054 0.83436 0.08169 0.0
H1431 H 0.81444 0.80284 0.0748 0.0
H1432 H 0.86087 0.79882 0.07206 0.0
H1433 H 0.84605 0.81253 0.08524 0.0
H1434 H 0.88132 0.90184 0.0954 0.0
H1435 H 0.91718 0.87828 0.11005 0.0
H1436 H 0.94052 0.97624 0.78376 0.0
H1437 H 0.94551 0.03153 0.79394 0.0
H1438 H 0.88843 0.98447 0.82073 0.0
H1439 H 0.88411 0.92914 0.81075 0.0
H1440 H 0.89308 0.0765 0.8034 0.0
H1441 H 0.98079 0.01709 0.83447 0.0
H1442 H 0.97292 0.99668 0.8215 0.0
H1443 H 0.94084 0.99295 0.83226 0.0
C1444 C 0.92872 0.97792 0.79177 0.0
C1445 C 0.91148 0.94856 0.79639 0.0
C1446 C 0.93159 0.00942 0.79756 0.0
C1447 C 0.91764 0.01191 0.80811 0.0
C1448 C 0.89979 0.98292 0.81265 0.0
H1449 H 0.89834 0.1597 0.85947 0.0
H1450 H 0.88701 0.11744 0.84502 0.0
C1451 C 0.89706 0.95143 0.8069 0.0
C1452 C 0.92264 0.04432 0.81458 0.0
H1453 H 0.95742 0.07379 0.83835 0.0
C1454 C 0.9074 0.07606 0.81099 0.0
C1455 C 0.94167 0.04368 0.82442 0.0
C1456 C 0.96031 0.0109 0.82836 0.0
C1457 C 0.90957 0.10687 0.81725 0.0
C1458 C 0.92736 0.10569 0.82726 0.0
C1459 C 0.94346 0.07432 0.83068 0.0
C1460 C 0.92906 0.1363 0.83458 0.0
C1461 C 0.89223 0.14031 0.81334 0.0
C1462 C 0.95561 0.16168 0.83325 0.0
C1463 C 0.96222 0.18598 0.8415 0.0
C1464 C 0.94257 0.18488 0.85125 0.0
C1465 C 0.91412 0.16117 0.85212 0.0
C1466 C 0.90755 0.137 0.84387 0.0
H1467 H 0.87875 0.13678 0.80544 0.0
H1468 H 0.87266 0.14936 0.81947 0.0
H1469 H 0.91239 0.16138 0.81244 0.0
H1470 H 0.97265 0.16123 0.82616 0.0
H1471 H 0.98447 0.20367 0.84057 0.0
H1472 H 0.83411 0.92195 0.44806 0.0
H1473 H 0.77593 0.91264 0.44003 0.0
H1474 H 0.76571 0.81449 0.45763 0.0
H1475 H 0.82355 0.82402 0.46584 0.0
H1476 H 0.7575 0.85606 0.42717 0.0
H1477 H 0.67075 0.86207 0.46366 0.0
H1478 H 0.71549 0.8784 0.46361 0.0
H1479 H 0.70709 0.83189 0.4647 0.0
C1480 C 0.81909 0.8988 0.45039 0.0
C1481 C 0.83293 0.87414 0.45778 0.0
C1482 C 0.78598 0.89343 0.44578 0.0
C1483 C 0.76621 0.86324 0.44842 0.0
C1484 C 0.78005 0.83846 0.45573 0.0
H1485 H 0.57447 0.77814 0.41946 0.0
H1486 H 0.62541 0.78728 0.43134 0.0
C1487 C 0.81312 0.84385 0.46037 0.0
C1488 C 0.73234 0.8565 0.44289 0.0
H1489 H 0.64401 0.84428 0.44718 0.0
C1490 C 0.73269 0.8536 0.43155 0.0
C1491 C 0.70008 0.85293 0.44865 0.0
C1492 C 0.6981 0.85676 0.46082 0.0
C1493 C 0.70165 0.84728 0.42577 0.0
C1494 C 0.66931 0.84435 0.43149 0.0
C1495 C 0.66891 0.84661 0.44285 0.0
C1496 C 0.63568 0.84038 0.42564 0.0
C1497 C 0.70369 0.84361 0.41359 0.0
C1498 C 0.62396 0.8677 0.41886 0.0
C1499 C 0.5952 0.86254 0.41208 0.0
C1500 C 0.57738 0.83004 0.41201 0.0
C1501 C 0.58761 0.8035 0.41937 0.0
C1502 C 0.61671 0.80863 0.42613 0.0
H1503 H 0.73101 0.83808 0.41075 0.0
H1504 H 0.68613 0.82215 0.41076 0.0
H1505 H 0.69493 0.8686 0.40973 0.0
H1506 H 0.638 0.89256 0.41851 0.0
H1507 H 0.58769 0.88363 0.40659 0.0
H1508 H 0.85062 0.03109 0.22461 0.0
H1509 H 0.8709 0.98668 0.21168 0.0
H1510 H 0.97521 0.03204 0.21196 0.0
H1511 H 0.95478 0.07707 0.22481 0.0
H1512 H 0.95277 0.01697 0.19132 0.0
H1513 H 0.93256 0.90163 0.21831 0.0
H1514 H 0.89343 0.92795 0.21719 0.0
H1515 H 0.93232 0.94634 0.22327 0.0
C1516 C 0.87781 0.03171 0.22187 0.0
C1517 C 0.90104 0.05771 0.22563 0.0
C1518 C 0.88947 0.00613 0.21457 0.0
C1519 C 0.92472 0.00568 0.21102 0.0
C1520 C 0.94795 0.03182 0.21466 0.0
H1521 H 0.00196 0.82728 0.17231 0.0
H1522 H 0.99791 0.87259 0.18632 0.0
C1523 C 0.93626 0.05752 0.22195 0.0
C1524 C 0.9368 0.97837 0.20327 0.0
H1525 H 0.93769 0.8894 0.19921 0.0
C1526 C 0.94988 0.98907 0.19309 0.0
C1527 C 0.9339 0.94195 0.20568 0.0
C1528 C 0.92266 0.92876 0.21675 0.0
C1529 C 0.95807 0.96431 0.18502 0.0
C1530 C 0.95238 0.9281 0.18716 0.0
C1531 C 0.94139 0.91727 0.19754 0.0
C1532 C 0.95566 0.90124 0.17854 0.0
C1533 C 0.9725 0.97704 0.17425 0.0
C1534 C 0.9329 0.90216 0.16961 0.0
C1535 C 0.93493 0.87626 0.16162 0.0
C1536 C 0.95968 0.84875 0.16242 0.0
C1537 C 0.98234 0.84784 0.17145 0.0
C1538 C 0.98023 0.87379 0.17945 0.0
H1539 H 0.98419 0.0038 0.1749 0.0
H1540 H 0.99292 0.95867 0.17111 0.0
H1541 H 0.95076 0.97828 0.16827 0.0
H1542 H 0.91329 0.92279 0.16888 0.0
H1543 H 0.91704 0.87786 0.15482 0.0
H1544 H 0.7003 0.18372 0.97913 0.0
H1545 H 0.74481 0.20422 0.966 0.0
H1546 H 0.77931 0.09699 0.96127 0.0
H1547 H 0.73539 0.0765 0.97453 0.0
H1548 H 0.83461 0.14396 0.96427 0.0
H1549 H 0.74152 0.19351 0.93301 0.0
H1550 H 0.73527 0.21142 0.94636 0.0
H1551 H 0.72763 0.1653 0.94409 0.0
C1552 C 0.71722 0.16457 0.97521 0.0
C1553 C 0.7141 0.12848 0.97773 0.0
C1554 C 0.74253 0.17626 0.9677 0.0
C1555 C 0.76501 0.15206 0.96256 0.0
C1556 C 0.7621 0.11608 0.96512 0.0
H1557 H 0.89085 0.16265 0.90508 0.0
H1558 H 0.84791 0.15236 0.91953 0.0
C1559 C 0.73692 0.10439 0.97265 0.0
C1560 C 0.79195 0.16406 0.95458 0.0
H1561 H 0.80222 0.20251 0.92963 0.0
C1562 C 0.82759 0.15694 0.95672 0.0
C1563 C 0.78263 0.18082 0.94472 0.0
C1564 C 0.74469 0.188 0.94182 0.0
C1565 C 0.85416 0.1657 0.94918 0.0
C1566 C 0.8448 0.18236 0.93932 0.0
C1567 C 0.80925 0.18997 0.93725 0.0
C1568 C 0.87113 0.18948 0.93066 0.0
C1569 C 0.89186 0.15592 0.95163 0.0
C1570 C 0.89837 0.21403 0.93211 0.0
C1571 C 0.92321 0.22003 0.92384 0.0
C1572 C 0.92112 0.20162 0.91396 0.0
C1573 C 0.89349 0.17729 0.91256 0.0
C1574 C 0.86878 0.17138 0.9208 0.0
H1575 H 0.89384 0.13783 0.95873 0.0
H1576 H 0.9044 0.14313 0.94449 0.0
H1577 H 0.90703 0.18018 0.95345 0.0
H1578 H 0.9003 0.22864 0.93962 0.0
H1579 H 0.94389 0.23918 0.92518 0.0
H1580 H 0.62173 0.91133 0.70664 0.0
H1581 H 0.60738 0.9718 0.69291 0.0
H1582 H 0.58234 0.04725 0.72528 0.0
H1583 H 0.59647 0.98905 0.73993 0.0
H1584 H 0.54661 0.02057 0.69242 0.0
H1585 H 0.65798 0.10391 0.70673 0.0
H1586 H 0.65901 0.05647 0.70767 0.0
H1587 H 0.63153 0.08134 0.71675 0.0
C1588 C 0.61308 0.9361 0.71006 0.0
C1589 C 0.61684 0.94571 0.72482 0.0
C1590 C 0.60572 0.97422 0.70164 0.0
C1591 C 0.59576 0.01643 0.70761 0.0
C1592 C 0.59001 0.02189 0.72207 0.0
H1593 H 0.51963 0.19454 0.66882 0.0
H1594 H 0.52557 0.14927 0.68295 0.0
C1595 C 0.59682 0.98539 0.73123 0.0
C1596 C 0.58984 0.04658 0.70029 0.0
H1597 H 0.62246 0.12714 0.69292 0.0
C1598 C 0.56295 0.04403 0.69258 0.0
C1599 C 0.61145 0.07689 0.70051 0.0
C1600 C 0.64176 0.08002 0.70831 0.0
C1601 C 0.55705 0.07121 0.68502 0.0
C1602 C 0.5788 0.10145 0.68519 0.0
C1603 C 0.60564 0.10401 0.69293 0.0
C1604 C 0.57555 0.12967 0.67695 0.0
C1605 C 0.52826 0.06708 0.67672 0.0
C1606 C 0.60201 0.1339 0.66905 0.0
C1607 C 0.59873 0.1596 0.66097 0.0
C1608 C 0.56905 0.18184 0.66071 0.0
C1609 C 0.54293 0.17802 0.66881 0.0
C1610 C 0.54613 0.15205 0.67685 0.0
H1611 H 0.51714 0.03998 0.6767 0.0
H1612 H 0.50659 0.08585 0.67855 0.0
H1613 H 0.53848 0.07339 0.66846 0.0
H1614 H 0.62495 0.11685 0.66904 0.0
H1615 H 0.61939 0.16189 0.65489 0.0
H1616 H 0.75336 0.44521 0.97073 0.0
H1617 H 0.79996 0.42273 0.95878 0.0
H1618 H 0.73236 0.43766 0.93109 0.0
H1619 H 0.68622 0.46137 0.94296 0.0
H1620 H 0.80095 0.36616 0.94576 0.0
H1621 H 0.82077 0.48741 0.92113 0.0
H1622 H 0.79498 0.48695 0.9335 0.0
H1623 H 0.77611 0.47184 0.92098 0.0
C1624 C 0.74846 0.44351 0.9621 0.0
C1625 C 0.71595 0.45436 0.95781 0.0
C1626 C 0.77506 0.43076 0.95528 0.0
C1627 C 0.76978 0.42887 0.94403 0.0
C1628 C 0.73727 0.43951 0.93972 0.0
H1629 H 0.89805 0.30108 0.90079 0.0
H1630 H 0.85042 0.32636 0.91165 0.0
C1631 C 0.71076 0.45261 0.94652 0.0
C1632 C 0.79814 0.41513 0.93687 0.0
H1633 H 0.84941 0.43549 0.91482 0.0
C1634 C 0.81164 0.38136 0.93901 0.0
C1635 C 0.81241 0.43521 0.92817 0.0
C1636 C 0.8006 0.47249 0.92586 0.0
C1637 C 0.83874 0.36693 0.93263 0.0
C1638 C 0.85205 0.38647 0.92368 0.0
C1639 C 0.83887 0.42041 0.92161 0.0
C1640 C 0.88009 0.37236 0.91648 0.0
C1641 C 0.85334 0.33123 0.93572 0.0
C1642 C 0.91201 0.3907 0.91515 0.0
C1643 C 0.93917 0.37661 0.90878 0.0
C1644 C 0.93488 0.34384 0.90367 0.0
C1645 C 0.90239 0.32618 0.90472 0.0
C1646 C 0.87519 0.34046 0.91099 0.0
H1647 H 0.8478 0.3247 0.94437 0.0
H1648 H 0.84072 0.31069 0.93068 0.0
H1649 H 0.88229 0.33003 0.93434 0.0
H1650 H 0.91622 0.41553 0.91925 0.0
H1651 H 0.96383 0.3909 0.90813 0.0
H1652 H 0.81464 0.51514 0.21709 0.0
H1653 H 0.84376 0.55952 0.20563 0.0
H1654 H 0.83365 0.49132 0.17791 0.0
H1655 H 0.80336 0.44747 0.18923 0.0
H1656 H 0.90395 0.5577 0.19369 0.0
H1657 H 0.78907 0.5811 0.16692 0.0
H1658 H 0.78581 0.55586 0.17934 0.0
H1659 H 0.80332 0.536 0.16722 0.0
C1660 C 0.81891 0.50957 0.20856 0.0
C1661 C 0.80727 0.47765 0.2041 0.0
C1662 C 0.83549 0.5349 0.20203 0.0
C1663 C 0.84052 0.52889 0.19089 0.0
C1664 C 0.82947 0.49677 0.18644 0.0
H1665 H 0.97834 0.6606 0.15039 0.0
H1666 H 0.9525 0.61153 0.16063 0.0
C1667 C 0.81255 0.47157 0.19295 0.0
C1668 C 0.85697 0.5565 0.18397 0.0
H1669 H 0.84257 0.60921 0.16189 0.0
C1670 C 0.89057 0.569 0.18673 0.0
C1671 C 0.83922 0.57149 0.17499 0.0
C1672 C 0.80223 0.56071 0.17199 0.0
C1673 C 0.90692 0.59614 0.18076 0.0
C1674 C 0.88953 0.61051 0.17162 0.0
C1675 C 0.85597 0.59794 0.16885 0.0
C1676 C 0.90492 0.63967 0.16507 0.0
C1677 C 0.94214 0.60985 0.18453 0.0
C1678 C 0.88616 0.67132 0.16381 0.0
C1679 C 0.90057 0.69921 0.15781 0.0
C1680 C 0.93413 0.69604 0.15299 0.0
C1681 C 0.95259 0.66405 0.1541 0.0
C1682 C 0.93798 0.63603 0.16001 0.0
H1683 H 0.94705 0.60303 0.19318 0.0
H1684 H 0.96346 0.59777 0.17959 0.0
H1685 H 0.94382 0.63893 0.18357 0.0
H1686 H 0.86052 0.67463 0.1676 0.0
H1687 H 0.88562 0.72344 0.15711 0.0
H1688 H 0.78881 0.57748 0.46157 0.0
H1689 H 0.74055 0.58531 0.44863 0.0
H1690 H 0.77585 0.69141 0.44201 0.0
H1691 H 0.82431 0.68362 0.45486 0.0
H1692 H 0.68679 0.63585 0.4494 0.0
H1693 H 0.76592 0.64911 0.41156 0.0
H1694 H 0.7839 0.6314 0.42399 0.0
H1695 H 0.77944 0.67826 0.42219 0.0
C1696 C 0.78652 0.60228 0.45723 0.0
C1697 C 0.81075 0.6297 0.45904 0.0
C1698 C 0.75893 0.60674 0.44988 0.0
C1699 C 0.75509 0.63867 0.44421 0.0
C1700 C 0.77892 0.66625 0.4461 0.0
H1701 H 0.60731 0.74067 0.40272 0.0
H1702 H 0.65649 0.72166 0.41393 0.0
C1703 C 0.80648 0.66182 0.45346 0.0
C1704 C 0.72522 0.64381 0.43668 0.0
H1705 H 0.70532 0.66568 0.4105 0.0
C1706 C 0.69075 0.64194 0.44086 0.0
C1707 C 0.73057 0.65169 0.42555 0.0
C1708 C 0.76694 0.65243 0.42051 0.0
C1709 C 0.66146 0.64917 0.4343 0.0
C1710 C 0.66688 0.65791 0.42324 0.0
C1711 C 0.70131 0.65895 0.419 0.0
C1712 C 0.63736 0.66835 0.41611 0.0
C1713 C 0.62509 0.64885 0.43934 0.0
C1714 C 0.6105 0.64445 0.41348 0.0
C1715 C 0.5821 0.65525 0.40706 0.0
C1716 C 0.58021 0.69012 0.40315 0.0
C1717 C 0.60774 0.71364 0.40561 0.0
C1718 C 0.63598 0.70284 0.41201 0.0
H1719 H 0.62604 0.64821 0.44836 0.0
H1720 H 0.60986 0.67242 0.43675 0.0
H1721 H 0.61067 0.6251 0.43659 0.0
H1722 H 0.61142 0.61753 0.41645 0.0
H1723 H 0.56145 0.63645 0.40529 0.0
H1724 H 0.69553 0.59778 0.68056 0.0
H1725 H 0.68565 0.53957 0.67258 0.0
H1726 H 0.60338 0.51915 0.69612 0.0
H1727 H 0.61309 0.5774 0.70413 0.0
H1728 H 0.68501 0.46814 0.68326 0.0
H1729 H 0.55741 0.51002 0.66521 0.0
H1730 H 0.58999 0.54127 0.66976 0.0
H1731 H 0.56281 0.51829 0.67947 0.0
C1732 C 0.67568 0.58066 0.68412 0.0
C1733 C 0.65526 0.59195 0.69302 0.0
C1734 C 0.6701 0.54749 0.67957 0.0
C1735 C 0.64374 0.52528 0.68375 0.0
C1736 C 0.62375 0.5361 0.69276 0.0
H1737 H 0.54353 0.33642 0.66137 0.0
H1738 H 0.56286 0.38825 0.67131 0.0
C1739 C 0.62938 0.56922 0.69734 0.0
C1740 C 0.63592 0.49154 0.67834 0.0
H1741 H 0.57357 0.45056 0.66314 0.0
C1742 C 0.66069 0.46412 0.67885 0.0
C1743 C 0.60421 0.48666 0.67259 0.0
C1744 C 0.57709 0.51563 0.67162 0.0
C1745 C 0.6541 0.43137 0.67397 0.0
C1746 C 0.62234 0.42647 0.66819 0.0
C1747 C 0.59787 0.45423 0.66759 0.0
C1748 C 0.61305 0.39268 0.6629 0.0
C1749 C 0.68072 0.40215 0.67535 0.0
C1750 C 0.63507 0.37739 0.65498 0.0
C1751 C 0.6243 0.34709 0.64944 0.0
C1752 C 0.59096 0.33241 0.65155 0.0
C1753 C 0.56927 0.34745 0.65956 0.0
C1754 C 0.5803 0.37705 0.66523 0.0
H1755 H 0.69783 0.40665 0.6825 0.0
H1756 H 0.66757 0.37616 0.67632 0.0
H1757 H 0.69798 0.40117 0.66805 0.0
H1758 H 0.66003 0.38947 0.65282 0.0
H1759 H 0.64124 0.33612 0.6432 0.0
H1760 H 0.72721 0.6348 0.04674 0.0
H1761 H 0.78585 0.64027 0.05484 0.0
H1762 H 0.7448 0.59975 0.08518 0.0
H1763 H 0.68673 0.59316 0.07704 0.0
H1764 H 0.80212 0.68217 0.07083 0.0
H1765 H 0.83591 0.54723 0.08396 0.0
H1766 H 0.80069 0.55606 0.07453 0.0
H1767 H 0.79307 0.55901 0.08897 0.0
C1768 C 0.73106 0.62599 0.05503 0.0
C1769 C 0.70258 0.61272 0.06119 0.0
C1770 C 0.76452 0.62925 0.05966 0.0
C1771 C 0.77005 0.61963 0.07056 0.0
C1772 C 0.74167 0.60611 0.07666 0.0
H1773 H 0.88225 0.69815 0.1224 0.0
H1774 H 0.84528 0.66579 0.10968 0.0
C1775 C 0.70837 0.60259 0.07202 0.0
C1776 C 0.80395 0.62781 0.076 0.0
H1777 H 0.8633 0.59486 0.09422 0.0
C1778 C 0.81607 0.66281 0.07569 0.0
C1779 C 0.82235 0.60259 0.08233 0.0
C1780 C 0.8125 0.56406 0.08237 0.0
C1781 C 0.84441 0.67372 0.08211 0.0
C1782 C 0.86097 0.64906 0.08904 0.0
C1783 C 0.85034 0.61369 0.08892 0.0
C1784 C 0.88595 0.66102 0.0974 0.0
C1785 C 0.85521 0.71204 0.08197 0.0
C1786 C 0.92149 0.66755 0.09485 0.0
C1787 C 0.94288 0.68571 0.10218 0.0
C1788 C 0.92866 0.69793 0.11204 0.0
C1789 C 0.8938 0.68903 0.11485 0.0
C1790 C 0.87269 0.67056 0.10761 0.0
H1791 H 0.8405 0.72766 0.07583 0.0
H1792 H 0.85044 0.72374 0.0901 0.0
H1793 H 0.88386 0.71429 0.08019 0.0
H1794 H 0.93202 0.66048 0.08695 0.0
H1795 H 0.96955 0.69262 0.09977 0.0
H1796 H 0.6297 0.48502 0.29402 0.0
H1797 H 0.62939 0.54328 0.30257 0.0
H1798 H 0.66028 0.49569 0.33295 0.0
H1799 H 0.66165 0.43787 0.32437 0.0
H1800 H 0.58721 0.56308 0.31847 0.0
H1801 H 0.72359 0.58002 0.33277 0.0
H1802 H 0.71186 0.54692 0.32295 0.0
H1803 H 0.70626 0.53848 0.33728 0.0
C1804 C 0.6375 0.48723 0.30243 0.0
C1805 C 0.64657 0.45701 0.30847 0.0
C1806 C 0.63719 0.52048 0.30732 0.0
C1807 C 0.64568 0.52408 0.31835 0.0
C1808 C 0.65492 0.49391 0.32435 0.0
H1809 H 0.58558 0.6385 0.37202 0.0
H1810 H 0.61632 0.60229 0.35861 0.0
C1811 C 0.65546 0.46079 0.31946 0.0
C1812 C 0.6408 0.55834 0.32398 0.0
H1813 H 0.67832 0.61215 0.34285 0.0
C1814 C 0.60746 0.5744 0.32356 0.0
C1815 C 0.66724 0.57324 0.33061 0.0
C1816 C 0.70433 0.55892 0.33083 0.0
C1817 C 0.59906 0.60326 0.33017 0.0
C1818 C 0.62477 0.61655 0.33734 0.0
C1819 C 0.6587 0.60186 0.33734 0.0
C1820 C 0.61492 0.64191 0.34593 0.0
C1821 C 0.562 0.61787 0.32998 0.0
C1822 C 0.60584 0.67689 0.3434 0.0
C1823 C 0.58866 0.69787 0.35113 0.0
C1824 C 0.58006 0.68381 0.36139 0.0
C1825 C 0.59202 0.64992 0.36417 0.0
C1826 C 0.60951 0.62922 0.35652 0.0
H1827 H 0.54434 0.60261 0.32459 0.0
H1828 H 0.55053 0.61779 0.33831 0.0
H1829 H 0.56262 0.64561 0.32707 0.0
H1830 H 0.6099 0.6871 0.33525 0.0
H1831 H 0.57929 0.72376 0.34875 0.0
H1832 H 0.76231 0.43973 0.53829 0.0
H1833 H 0.71647 0.41657 0.55049 0.0
H1834 H 0.76615 0.46787 0.57756 0.0
H1835 H 0.81163 0.49167 0.56535 0.0
H1836 H 0.72575 0.37227 0.56764 0.0
H1837 H 0.66353 0.49634 0.58161 0.0
H1838 H 0.69274 0.49461 0.56999 0.0
H1839 H 0.71042 0.4956 0.5835 0.0
C1840 C 0.7634 0.44605 0.54684 0.0
C1841 C 0.79089 0.4669 0.55091 0.0
C1842 C 0.73715 0.43296 0.55379 0.0
C1843 C 0.73764 0.44084 0.56491 0.0
C1844 C 0.76484 0.46203 0.56898 0.0
H1845 H 0.65273 0.32164 0.6177 0.0
H1846 H 0.6873 0.35845 0.60529 0.0
C1847 C 0.79105 0.47521 0.56203 0.0
C1848 C 0.71111 0.42491 0.57235 0.0
H1849 H 0.64948 0.44409 0.59184 0.0
C1850 C 0.70884 0.38802 0.57284 0.0
C1851 C 0.68877 0.44549 0.57906 0.0
C1852 C 0.68866 0.48521 0.57846 0.0
C1853 C 0.68576 0.37112 0.58012 0.0
C1854 C 0.66473 0.39164 0.58719 0.0
C1855 C 0.66597 0.42852 0.58647 0.0
C1856 C 0.64265 0.3747 0.59566 0.0
C1857 C 0.6843 0.33134 0.58029 0.0
C1858 C 0.60584 0.37311 0.59463 0.0
C1859 C 0.58585 0.35207 0.60175 0.0
C1860 C 0.60257 0.33233 0.60994 0.0
C1861 C 0.63913 0.33615 0.61138 0.0
C1862 C 0.65895 0.35717 0.60431 0.0
H1863 H 0.69615 0.31976 0.57284 0.0
H1864 H 0.69919 0.32135 0.5874 0.0
H1865 H 0.65664 0.32198 0.58109 0.0
H1866 H 0.59287 0.38661 0.58799 0.0
H1867 H 0.55774 0.34959 0.60043 0.0
H1868 H 0.80086 0.53689 0.80299 0.0
H1869 H 0.81449 0.49683 0.81808 0.0
H1870 H 0.91098 0.46631 0.80195 0.0
H1871 H 0.89805 0.50711 0.78703 0.0
H1872 H 0.82687 0.42514 0.81948 0.0
H1873 H 0.9458 0.50053 0.83117 0.0
H1874 H 0.91392 0.51748 0.82168 0.0
H1875 H 0.94698 0.48652 0.81729 0.0
C1876 C 0.82515 0.52189 0.80273 0.0
C1877 C 0.84913 0.52612 0.79404 0.0
C1878 C 0.83274 0.49882 0.8113 0.0
C1879 C 0.86418 0.4793 0.81126 0.0
C1880 C 0.88708 0.48192 0.80229 0.0
H1881 H 0.93306 0.30425 0.85082 0.0
H1882 H 0.90179 0.3406 0.83751 0.0
C1883 C 0.87968 0.50516 0.79378 0.0
C1884 C 0.87368 0.45701 0.82072 0.0
H1885 H 0.93839 0.44425 0.83941 0.0
C1886 C 0.85111 0.4294 0.82391 0.0
C1887 C 0.90496 0.46307 0.82662 0.0
C1888 C 0.92913 0.49372 0.8241 0.0
C1889 C 0.85957 0.40702 0.83266 0.0
C1890 C 0.89171 0.41209 0.83821 0.0
C1891 C 0.91378 0.44023 0.83515 0.0
C1892 C 0.90394 0.38838 0.84705 0.0
C1893 C 0.83386 0.37848 0.83593 0.0
C1894 C 0.91501 0.40289 0.85692 0.0
C1895 C 0.93345 0.38237 0.8644 0.0
C1896 C 0.94081 0.34681 0.86222 0.0
C1897 C 0.92734 0.3315 0.85275 0.0
C1898 C 0.90936 0.35226 0.84515 0.0
H1899 H 0.80658 0.38512 0.83339 0.0
H1900 H 0.84145 0.35351 0.83188 0.0
H1901 H 0.83396 0.37399 0.84485 0.0
H1902 H 0.91105 0.43064 0.85858 0.0
H1903 H 0.94345 0.39474 0.87167 0.0
H1904 H 0.28457 0.66234 0.02645 0.0
H1905 H 0.22755 0.6769 0.04149 0.0
H1906 H 0.24492 0.56072 0.06022 0.0
H1907 H 0.3024 0.5428 0.04563 0.0
H1908 H 0.16454 0.63577 0.04843 0.0
H1909 H 0.25026 0.63609 0.08505 0.0
H1910 H 0.26746 0.64566 0.07169 0.0
H1911 H 0.2561 0.6012 0.0754 0.0
C1912 C 0.27609 0.64277 0.03233 0.0
C1913 C 0.30363 0.60369 0.03573 0.0
C1914 C 0.24184 0.65229 0.04205 0.0
C1915 C 0.23165 0.62156 0.05287 0.0
C1916 C 0.25297 0.57908 0.05393 0.0
H1917 H 0.09722 0.65135 0.10915 0.0
H1918 H 0.13069 0.62357 0.09448 0.0
C1919 C 0.2876 0.56695 0.0446 0.0
C1920 C 0.20416 0.63126 0.06079 0.0
H1921 H 0.19089 0.64941 0.08756 0.0
C1922 C 0.17012 0.63853 0.05701 0.0
C1923 C 0.21169 0.63478 0.07194 0.0
C1924 C 0.24834 0.6292 0.07632 0.0
C1925 C 0.14308 0.649 0.06416 0.0
C1926 C 0.15077 0.65329 0.0753 0.0
C1927 C 0.18487 0.64571 0.07904 0.0
C1928 C 0.12474 0.66722 0.08324 0.0
C1929 C 0.10657 0.65489 0.05972 0.0
C1930 C 0.10923 0.70051 0.08167 0.0
C1931 C 0.08946 0.71611 0.08998 0.0
C1932 C 0.08566 0.699 0.10007 0.0
C1933 C 0.09981 0.66507 0.10145 0.0
C1934 C 0.11896 0.64924 0.09308 0.0
H1935 H 0.10224 0.6393 0.05223 0.0
H1936 H 0.08594 0.6477 0.06577 0.0
H1937 H 0.10342 0.68316 0.05757 0.0
H1938 H 0.11409 0.71537 0.07428 0.0
H1939 H 0.07934 0.74256 0.08878 0.0
H1940 H 0.24325 0.53884 0.81839 0.0
H1941 H 0.21506 0.48509 0.82526 0.0
H1942 H 0.14763 0.48286 0.7972 0.0
H1943 H 0.17573 0.5369 0.7903 0.0
H1944 H 0.11162 0.47452 0.81694 0.0
H1945 H 0.22534 0.3835 0.81461 0.0
H1946 H 0.23578 0.42366 0.82152 0.0
H1947 H 0.22419 0.42507 0.80738 0.0
C1948 C 0.22236 0.52692 0.81371 0.0
C1949 C 0.21118 0.54244 0.80393 0.0
C1950 C 0.20656 0.49603 0.81757 0.0
C1951 C 0.17962 0.47974 0.81166 0.0
C1952 C 0.16851 0.49496 0.80185 0.0
H1953 H 0.04302 0.31415 0.8402 0.0
H1954 H 0.07202 0.34799 0.82563 0.0
C1955 C 0.18439 0.52587 0.79796 0.0
C1956 C 0.16176 0.44808 0.81615 0.0
H1957 H 0.17828 0.36661 0.82686 0.0
C1958 C 0.1259 0.45055 0.8189 0.0
C1959 C 0.18047 0.41682 0.81861 0.0
C1960 C 0.2185 0.4119 0.81527 0.0
C1961 C 0.1089 0.42365 0.8248 0.0
C1962 C 0.12824 0.39327 0.82785 0.0
C1963 C 0.16353 0.38991 0.82451 0.0
C1964 C 0.11391 0.36754 0.83581 0.0
C1965 C 0.07112 0.42904 0.82837 0.0
C1966 C 0.12903 0.36576 0.84615 0.0
C1967 C 0.11275 0.34643 0.85443 0.0
C1968 C 0.08102 0.32836 0.85253 0.0
C1969 C 0.0674 0.32783 0.84193 0.0
C1970 C 0.08375 0.34738 0.83362 0.0
H1971 H 0.06165 0.45623 0.82666 0.0
H1972 H 0.05387 0.41034 0.824 0.0
H1973 H 0.06818 0.42373 0.83721 0.0
H1974 H 0.15242 0.38095 0.848 0.0
H1975 H 0.12418 0.34703 0.86247 0.0
H1976 H 0.25579 0.46017 0.5372 0.0
H1977 H 0.30576 0.44432 0.54874 0.0
H1978 H 0.27406 0.33515 0.54784 0.0
H1979 H 0.2237 0.35098 0.53642 0.0
H1980 H 0.28625 0.35882 0.56846 0.0
H1981 H 0.39822 0.39434 0.54132 0.0
H1982 H 0.36681 0.42927 0.54319 0.0
H1983 H 0.35364 0.38949 0.53646 0.0
C1984 C 0.25954 0.4328 0.53946 0.0
C1985 C 0.2356 0.40686 0.53606 0.0
C1986 C 0.28829 0.42373 0.54595 0.0
C1987 C 0.29389 0.3885 0.54902 0.0
C1988 C 0.27028 0.36248 0.54551 0.0
H1989 H 0.46318 0.29096 0.5857 0.0
H1990 H 0.42618 0.3118 0.57074 0.0
C1991 C 0.2415 0.37153 0.53905 0.0
C1992 C 0.32282 0.37909 0.55652 0.0
H1993 H 0.41222 0.38216 0.55986 0.0
C1994 C 0.31379 0.36375 0.56654 0.0
C1995 C 0.35876 0.38529 0.55397 0.0
C1996 C 0.37007 0.40019 0.54311 0.0
C1997 C 0.33962 0.35507 0.57418 0.0
C1998 C 0.37541 0.36245 0.5718 0.0
C1999 C 0.38467 0.37703 0.56169 0.0
C2000 C 0.4032 0.35477 0.57983 0.0
C2001 C 0.32842 0.33789 0.58474 0.0
C2002 C 0.40379 0.37325 0.58965 0.0
C2003 C 0.42474 0.36144 0.59819 0.0
C2004 C 0.44559 0.33099 0.59705 0.0
C2005 C 0.44745 0.3145 0.58685 0.0
C2006 C 0.42627 0.32629 0.5783 0.0
H2007 H 0.30118 0.3272 0.58434 0.0
H2008 H 0.34666 0.31613 0.58694 0.0
H2009 H 0.32919 0.35775 0.59132 0.0
H2010 H 0.38644 0.39558 0.59091 0.0
H2011 H 0.42304 0.375 0.6059 0.0
H2012 H 0.43568 0.46954 0.28661 0.0
H2013 H 0.44761 0.51473 0.30025 0.0
H2014 H 0.33935 0.54913 0.29867 0.0
H2015 H 0.32739 0.50422 0.28493 0.0
H2016 H 0.38866 0.60474 0.29808 0.0
H2017 H 0.41462 0.51176 0.33208 0.0
H2018 H 0.44065 0.50383 0.3201 0.0
H2019 H 0.39361 0.49823 0.31967 0.0
C2020 C 0.41438 0.48651 0.28927 0.0
C2021 C 0.38042 0.48291 0.28489 0.0
C2022 C 0.4212 0.51227 0.29705 0.0
C2023 C 0.39421 0.53488 0.30059 0.0
C2024 C 0.36046 0.53176 0.2961 0.0
H2025 H 0.40255 0.65961 0.35897 0.0
H2026 H 0.38367 0.62238 0.344 0.0
C2027 C 0.35362 0.50602 0.28831 0.0
C2028 C 0.40125 0.5619 0.30893 0.0
H2029 H 0.4275 0.57202 0.33516 0.0
C2030 C 0.39702 0.59766 0.30621 0.0
C2031 C 0.41178 0.55251 0.31955 0.0
C2032 C 0.41515 0.5145 0.32309 0.0
C2033 C 0.40363 0.62435 0.3138 0.0
C2034 C 0.41508 0.61494 0.32432 0.0
C2035 C 0.41884 0.57917 0.32707 0.0
C2036 C 0.42331 0.64151 0.33271 0.0
C2037 C 0.39785 0.66231 0.31056 0.0
C2038 C 0.45127 0.66536 0.33123 0.0
C2039 C 0.46202 0.68694 0.33977 0.0
C2040 C 0.44524 0.68463 0.34998 0.0
C2041 C 0.41616 0.66192 0.35124 0.0
C2042 C 0.40533 0.64059 0.34269 0.0
H2043 H 0.38075 0.66461 0.3033 0.0
H2044 H 0.38567 0.67741 0.31731 0.0
H2045 H 0.42366 0.6746 0.30856 0.0
H2046 H 0.46593 0.66604 0.32365 0.0
H2047 H 0.48478 0.70381 0.33857 0.0
H2048 H 0.25114 0.42165 0.98512 0.0
H2049 H 0.20399 0.4066 0.97247 0.0
H2050 H 0.26791 0.3224 0.95953 0.0
H2051 H 0.31433 0.33626 0.97248 0.0
H2052 H 0.20287 0.40848 0.95128 0.0
H2053 H 0.17722 0.2711 0.96433 0.0
H2054 H 0.2044 0.30068 0.97207 0.0
H2055 H 0.22254 0.27747 0.96059 0.0
C2056 C 0.25505 0.39993 0.97956 0.0
C2057 C 0.28668 0.38062 0.97966 0.0
C2058 C 0.2281 0.39129 0.97237 0.0
C2059 C 0.23214 0.36304 0.96514 0.0
C2060 C 0.26376 0.34375 0.96519 0.0
H2061 H 0.12459 0.33911 0.90455 0.0
H2062 H 0.16466 0.35105 0.91943 0.0
C2063 C 0.29055 0.35207 0.9725 0.0
C2064 C 0.20394 0.35494 0.95721 0.0
H2065 H 0.15372 0.28818 0.94702 0.0
C2066 C 0.1919 0.38223 0.95044 0.0
C2067 C 0.18904 0.32085 0.95622 0.0
C2068 C 0.19869 0.29097 0.96378 0.0
C2069 C 0.16631 0.37618 0.94249 0.0
C2070 C 0.15315 0.34162 0.94103 0.0
C2071 C 0.1642 0.31455 0.94804 0.0
C2072 C 0.12887 0.33294 0.93203 0.0
C2073 C 0.15349 0.40704 0.9358 0.0
C2074 C 0.09593 0.31725 0.93411 0.0
C2075 C 0.07296 0.30984 0.92555 0.0
C2076 C 0.08257 0.31812 0.91478 0.0
C2077 C 0.11598 0.33299 0.91275 0.0
C2078 C 0.13894 0.34002 0.92126 0.0
H2079 H 0.15696 0.43234 0.94018 0.0
H2080 H 0.16912 0.40865 0.92817 0.0
H2081 H 0.12523 0.40413 0.93369 0.0
H2082 H 0.08778 0.31124 0.94236 0.0
H2083 H 0.04751 0.29822 0.92739 0.0
H2084 H 0.43748 0.55716 0.72451 0.0
H2085 H 0.45502 0.51317 0.71099 0.0
H2086 H 0.34737 0.47704 0.70918 0.0
H2087 H 0.32984 0.52058 0.72279 0.0
H2088 H 0.3963 0.42249 0.71103 0.0
H2089 H 0.43456 0.51701 0.67838 0.0
H2090 H 0.45609 0.52369 0.69115 0.0
H2091 H 0.40927 0.53009 0.69015 0.0
C2092 C 0.41756 0.54004 0.72113 0.0
C2093 C 0.38218 0.5427 0.72453 0.0
C2094 C 0.42757 0.515 0.71341 0.0
C2095 C 0.40238 0.49225 0.70896 0.0
C2096 C 0.36716 0.49452 0.71246 0.0
H2097 H 0.40937 0.3686 0.65098 0.0
H2098 H 0.39791 0.41031 0.66554 0.0
C2099 C 0.35715 0.51948 0.72019 0.0
C2100 C 0.41262 0.46569 0.70076 0.0
H2101 H 0.44508 0.45663 0.67501 0.0
C2102 C 0.40704 0.42989 0.70316 0.0
C2103 C 0.42643 0.47553 0.69048 0.0
C2104 C 0.43171 0.51366 0.68731 0.0
C2105 C 0.41465 0.40359 0.69551 0.0
C2106 C 0.42865 0.41342 0.68526 0.0
C2107 C 0.43452 0.44921 0.6829 0.0
C2108 C 0.43556 0.38725 0.67662 0.0
C2109 C 0.40664 0.36566 0.69834 0.0
C2110 C 0.46058 0.36038 0.67803 0.0
C2111 C 0.46708 0.33618 0.66972 0.0
C2112 C 0.44894 0.3387 0.6598 0.0
C2113 C 0.42389 0.36574 0.65847 0.0
C2114 C 0.41732 0.38973 0.66679 0.0
H2115 H 0.38881 0.3634 0.70551 0.0
H2116 H 0.39428 0.35198 0.69139 0.0
H2117 H 0.43161 0.35181 0.70029 0.0
H2118 H 0.4754 0.35838 0.68549 0.0
H2119 H 0.48667 0.31584 0.67103 0.0
H2120 H 0.22268 0.54316 0.4473 0.0
H2121 H 0.26126 0.58817 0.43933 0.0
H2122 H 0.2857 0.62655 0.47131 0.0
H2123 H 0.24712 0.58129 0.47936 0.0
H2124 H 0.26206 0.66459 0.44152 0.0
H2125 H 0.38237 0.59871 0.45778 0.0
H2126 H 0.34027 0.57658 0.45738 0.0
H2127 H 0.34798 0.61028 0.46724 0.0
C2128 C 0.23574 0.56162 0.45262 0.0
C2129 C 0.23162 0.55903 0.46394 0.0
C2130 C 0.25778 0.58727 0.44807 0.0
C2131 C 0.27642 0.61051 0.45474 0.0
C2132 C 0.2717 0.60867 0.46603 0.0
H2133 H 0.45304 0.72883 0.42474 0.0
H2134 H 0.40919 0.71456 0.43888 0.0
C2135 C 0.24957 0.58299 0.47061 0.0
C2136 C 0.30236 0.63491 0.44975 0.0
H2137 H 0.39071 0.64411 0.44509 0.0
C2138 C 0.29022 0.66066 0.44246 0.0
C2139 C 0.33906 0.62993 0.45109 0.0
C2140 C 0.35344 0.60232 0.45874 0.0
C2141 C 0.31382 0.68009 0.43597 0.0
C2142 C 0.35035 0.67308 0.43669 0.0
C2143 C 0.36265 0.64935 0.44457 0.0
C2144 C 0.37532 0.68508 0.42816 0.0
C2145 C 0.29935 0.70679 0.42805 0.0
C2146 C 0.37082 0.67302 0.41753 0.0
C2147 C 0.39579 0.68067 0.40953 0.0
C2148 C 0.42599 0.70057 0.41196 0.0
C2149 C 0.43017 0.71332 0.4226 0.0
C2150 C 0.40514 0.70532 0.43067 0.0
H2151 H 0.27418 0.7182 0.43108 0.0
H2152 H 0.3184 0.7285 0.42651 0.0
H2153 H 0.2939 0.69357 0.42022 0.0
H2154 H 0.34836 0.65675 0.41548 0.0
H2155 H 0.39142 0.67065 0.40143 0.0
H2156 H 0.11875 0.41996 0.19676 0.0
H2157 H 0.09885 0.48006 0.19269 0.0
H2158 H 0.20701 0.5147 0.19068 0.0
H2159 H 0.22708 0.45458 0.19453 0.0
H2160 H 0.11218 0.54884 0.20218 0.0
H2161 H 0.16552 0.53425 0.1603 0.0
H2162 H 0.16006 0.49726 0.16942 0.0
H2163 H 0.19694 0.52657 0.1709 0.0
C2164 C 0.13823 0.44059 0.19567 0.0
C2165 C 0.17443 0.43269 0.19607 0.0
C2166 C 0.12684 0.47485 0.19336 0.0
C2167 C 0.15148 0.50167 0.19132 0.0
C2168 C 0.18762 0.49424 0.19216 0.0
H2169 H 0.13831 0.70409 0.16029 0.0
H2170 H 0.1567 0.65488 0.17181 0.0
C2171 C 0.19903 0.45997 0.19442 0.0
C2172 C 0.1395 0.53647 0.1873 0.0
H2173 H 0.14218 0.58963 0.16492 0.0
C2174 C 0.11875 0.55794 0.19405 0.0
C2175 C 0.14781 0.54793 0.17665 0.0
C2176 C 0.16852 0.52524 0.16884 0.0
C2177 C 0.10678 0.59114 0.19049 0.0
C2178 C 0.11545 0.60269 0.17986 0.0
C2179 C 0.1359 0.58094 0.17312 0.0
C2180 C 0.10361 0.63694 0.17531 0.0
C2181 C 0.08553 0.61374 0.19815 0.0
C2182 C 0.06756 0.64421 0.17387 0.0
C2183 C 0.05701 0.67289 0.16744 0.0
C2184 C 0.08244 0.69403 0.16224 0.0
C2185 C 0.11831 0.68807 0.16425 0.0
C2186 C 0.12879 0.65997 0.17081 0.0
H2187 H 0.08941 0.60568 0.20675 0.0
H2188 H 0.09266 0.642 0.19724 0.0
H2189 H 0.05711 0.61085 0.19626 0.0
H2190 H 0.04767 0.62642 0.17707 0.0
H2191 H 0.02921 0.6768 0.16585 0.0
loop_
_geom_bond_atom_site_label_1
_geom_bond_atom_site_label_2
_geom_bond_distance
_geom_bond_site_symmetry_2
_ccdc_geom_bond_type
C0 C1 1.560 . S
C0 H61 0.959 . S
C0 H62 0.959 . S
C0 H63 0.960 . S
C1 C0 1.560 . S
C1 O56 1.426 . S
C1 H60 0.980 . S
C2 C3 1.407 . S
C2 C7 1.418 . S
C2 O56 1.334 . S
C3 C2 1.407 . S
C3 C4 1.360 . S
C3 H64 0.929 . S
C4 C3 1.360 . S
C4 C5 1.401 . S
C4 C8 1.527 . S
C5 C4 1.401 . S
C5 C6 1.405 . S
C5 C38 1.587 . S
C6 C5 1.405 . S
C6 C7 1.332 . S
C6 C9 1.496 1_565 S
C7 C2 1.418 . S
C7 C6 1.332 . S
C7 H65 0.929 1_565 S
C8 C4 1.527 . S
C8 H66 0.959 . S
C8 H67 0.961 . S
C8 H68 0.961 . S
C9 C6 1.496 1_545 S
C9 H69 0.960 . S
C9 H70 0.960 . S
C9 H71 0.961 . S
C10 C11 1.517 . S
C10 H73 0.961 . S
C10 H74 0.960 . S
C10 H75 0.959 . S
C11 C10 1.517 . S
C11 O59 1.468 . S
C11 H72 0.980 . S
C12 C13 1.349 . S
C12 C17 1.367 . S
C12 O59 1.408 . S
C13 C12 1.349 . S
C13 C14 1.407 . S
C13 H76 0.930 . S
C14 C13 1.407 . S
C14 C15 1.449 . S
C14 C18 1.535 . S
C15 C14 1.449 . S
C15 C16 1.384 . S
C15 C40 1.553 . S
C16 C15 1.384 . S
C16 C17 1.364 . S
C16 C19 1.450 . S
C17 C12 1.367 . S
C17 C16 1.364 . S
C17 H77 0.931 . S
C18 C14 1.535 . S
C18 H78 0.959 . S
C18 H79 0.961 . S
C18 H80 0.959 1_565 S
C19 C16 1.450 . S
C19 H81 0.960 . S
C19 H82 0.960 . S
C19 H83 0.960 . S
C20 C21 1.309 . S
C20 C25 1.304 . S
C20 O58 1.435 . S
C21 C20 1.309 . S
C21 C22 1.476 . S
C21 H85 0.930 . S
C22 C21 1.476 . S
C22 C23 1.400 . S
C22 C26 1.567 . S
C23 C22 1.400 . S
C23 C24 1.373 . S
C23 C45 1.432 . S
C24 C23 1.373 . S
C24 C25 1.339 . S
C24 C27 1.530 1_545 S
C25 C20 1.304 . S
C25 C24 1.339 . S
C25 H86 0.930 . S
C26 C22 1.567 . S
C26 H87 0.961 . S
C26 H88 0.960 . S
C26 H89 0.958 . S
C27 C24 1.530 1_565 S
C27 H90 0.961 . S
C27 H91 0.960 . S
C27 H92 0.960 . S
C28 C29 1.530 . S
C28 H94 0.961 . S
C28 H95 0.961 . S
C28 H96 0.959 . S
C29 C28 1.530 . S
C29 O57 1.412 . S
C29 H93 0.980 . S
C30 C31 1.288 . S
C30 C35 1.377 . S
C30 O57 1.393 . S
C31 C30 1.288 . S
C31 C32 1.369 . S
C31 H97 0.932 . S
C32 C31 1.369 . S
C32 C33 1.398 . S
C32 C36 1.527 . S
C33 C32 1.398 . S
C33 C34 1.380 . S
C33 C47 1.497 . S
C34 C33 1.380 . S
C34 C35 1.383 . S
C34 C37 1.603 . S
C35 C30 1.377 . S
C35 C34 1.383 . S
C35 H98 0.929 . S
C36 C32 1.527 . S
C36 H99 0.961 . S
C36 H100 0.959 . S
C36 H101 0.959 . S
C37 C34 1.603 . S
C37 H102 0.960 . S
C37 H103 0.962 . S
C37 H104 0.961 1_545 S
C38 C5 1.587 . S
C38 C39 1.360 1_655 S
C38 C51 1.412 . S
C39 C38 1.360 1_455 S
C39 C40 1.365 . S
C39 H105 0.929 . S
C40 C15 1.553 . S
C40 C39 1.365 . S
C40 C41 1.404 . S
C41 C40 1.404 . S
C41 C42 1.395 . S
C41 C52 1.451 . S
C42 C41 1.395 . S
C42 C43 1.322 . S
C42 H106 0.930 . S
C43 C42 1.322 . S
C43 C44 1.459 1_565 S
C43 H107 0.928 1_565 S
C44 C43 1.459 1_545 S
C44 C45 1.445 . S
C44 C53 1.395 . S
C45 C23 1.432 . S
C45 C44 1.445 . S
C45 C46 1.370 . S
C46 C45 1.370 . S
C46 C47 1.438 1_455 S
C46 H108 0.930 . S
C47 C33 1.497 . S
C47 C46 1.438 1_655 S
C47 C48 1.360 . S
C48 C47 1.360 . S
C48 C49 1.401 . S
C48 C53 1.446 1_655 S
C49 C48 1.401 . S
C49 C50 1.347 1_545 S
C49 H109 0.929 . S
C50 C49 1.347 1_565 S
C50 C51 1.455 . S
C50 H110 0.930 . S
C51 C38 1.412 . S
C51 C50 1.455 . S
C51 C52 1.331 1_655 S
C52 C41 1.451 . S
C52 C51 1.331 1_455 S
C52 C53 1.497 1_565 S
C53 C44 1.395 . S
C53 C48 1.446 1_455 S
C53 C52 1.497 1_545 S
C54 C55 1.582 . S
C54 H111 0.962 . S
C54 H112 0.959 . S
C54 H113 0.958 . S
C55 C54 1.582 . S
C55 O58 1.458 . S
C55 H84 0.980 . S
O56 C1 1.426 . S
O56 C2 1.334 . S
O57 C29 1.412 . S
O57 C30 1.393 . S
O58 C20 1.435 . S
O58 C55 1.458 . S
O59 C11 1.468 . S
O59 C12 1.408 . S
H60 C1 0.980 . S
H61 C0 0.959 . S
H62 C0 0.959 . S
H63 C0 0.960 . S
H64 C3 0.929 . S
H65 C7 0.929 1_545 S
H66 C8 0.959 . S
H67 C8 0.961 . S
H68 C8 0.961 . S
H69 C9 0.960 . S
H70 C9 0.960 . S
H71 C9 0.961 . S
H72 C11 0.980 . S
H73 C10 0.961 . S
H74 C10 0.960 . S
H75 C10 0.959 . S
H76 C13 0.930 . S
H77 C17 0.931 . S
H78 C18 0.959 . S
H79 C18 0.961 . S
H80 C18 0.959 1_545 S
H81 C19 0.960 . S
H82 C19 0.960 . S
H83 C19 0.960 . S
H84 C55 0.980 . S
H85 C21 0.930 . S
H86 C25 0.930 . S
H87 C26 0.961 . S
H88 C26 0.960 . S
H89 C26 0.958 . S
H90 C27 0.961 . S
H91 C27 0.960 . S
H92 C27 0.960 . S
H93 C29 0.980 . S
H94 C28 0.961 . S
H95 C28 0.961 . S
H96 C28 0.959 . S
H97 C31 0.932 . S
H98 C35 0.929 . S
H99 C36 0.961 . S
H100 C36 0.959 . S
H101 C36 0.959 . S
H102 C37 0.960 . S
H103 C37 0.962 . S
H104 C37 0.961 1_565 S
H105 C39 0.929 . S
H106 C42 0.930 . S
H107 C43 0.928 1_545 S
H108 C46 0.930 . S
H109 C49 0.929 . S
H110 C50 0.930 . S
H111 C54 0.962 . S
H112 C54 0.959 . S
H113 C54 0.958 . S
C114 C115 1.560 . S
C114 H175 0.959 . S
C114 H176 0.959 . S
C114 H177 0.960 . S
C115 C114 1.560 . S
C115 O170 1.426 . S
C115 H174 0.980 . S
C116 C117 1.407 . S
C116 C121 1.418 . S
C116 O170 1.334 . S
C117 C116 1.407 . S
C117 C118 1.360 . S
C117 H178 0.929 . S
C118 C117 1.360 . S
C118 C119 1.401 . S
C118 C122 1.527 . S
C119 C118 1.401 . S
C119 C120 1.405 . S
C119 C152 1.587 . S
C120 C119 1.405 . S
C120 C121 1.332 . S
C120 C123 1.496 . S
C121 C116 1.418 . S
C121 C120 1.332 . S
C121 H179 0.929 . S
C122 C118 1.527 . S
C122 H180 0.959 . S
C122 H181 0.961 . S
C122 H182 0.961 . S
C123 C120 1.496 . S
C123 H183 0.960 . S
C123 H184 0.960 . S
C123 H185 0.961 . S
C124 C125 1.517 . S
C124 H187 0.961 . S
C124 H188 0.960 . S
C124 H189 0.959 . S
C125 C124 1.517 . S
C125 O173 1.468 . S
C125 H186 0.980 . S
C126 C127 1.349 . S
C126 C131 1.367 . S
C126 O173 1.408 . S
C127 C126 1.349 . S
C127 C128 1.407 . S
C127 H190 0.930 . S
C128 C127 1.407 . S
C128 C129 1.449 . S
C128 C132 1.535 . S
C129 C128 1.449 . S
C129 C130 1.384 . S
C129 C154 1.553 . S
C130 C129 1.384 . S
C130 C131 1.364 . S
C130 C133 1.450 . S
C131 C126 1.367 . S
C131 C130 1.364 . S
C131 H191 0.931 . S
C132 C128 1.535 . S
C132 H192 0.959 . S
C132 H193 0.961 . S
C132 H194 0.959 . S
C133 C130 1.450 . S
C133 H195 0.960 . S
C133 H196 0.960 . S
C133 H197 0.960 . S
C134 C135 1.309 . S
C134 C139 1.304 . S
C134 O172 1.435 . S
C135 C134 1.309 . S
C135 C136 1.476 . S
C135 H199 0.930 . S
C136 C135 1.476 . S
C136 C137 1.400 . S
C136 C140 1.567 . S
C137 C136 1.400 . S
C137 C138 1.373 . S
C137 C159 1.432 . S
C138 C137 1.373 . S
C138 C139 1.339 . S
C138 C141 1.530 . S
C139 C134 1.304 . S
C139 C138 1.339 . S
C139 H200 0.930 . S
C140 C136 1.567 . S
C140 H201 0.961 . S
C140 H202 0.960 . S
C140 H203 0.958 . S
C141 C138 1.530 . S
C141 H204 0.961 . S
C141 H205 0.960 . S
C141 H206 0.960 . S
C142 C143 1.530 . S
C142 H208 0.961 . S
C142 H209 0.961 . S
C142 H210 0.959 . S
C143 C142 1.530 . S
C143 O171 1.412 . S
C143 H207 0.980 . S
C144 C145 1.288 . S
C144 C149 1.377 . S
C144 O171 1.393 . S
C145 C144 1.288 . S
C145 C146 1.369 . S
C145 H211 0.932 . S
C146 C145 1.369 . S
C146 C147 1.398 . S
C146 C150 1.527 . S
C147 C146 1.398 . S
C147 C148 1.380 . S
C147 C161 1.497 . S
C148 C147 1.380 . S
C148 C149 1.383 . S
C148 C151 1.603 . S
C149 C144 1.377 . S
C149 C148 1.383 . S
C149 H212 0.929 . S
C150 C146 1.527 . S
C150 H213 0.961 . S
C150 H214 0.959 . S
C150 H215 0.959 . S
C151 C148 1.603 . S
C151 H216 0.960 . S
C151 H217 0.962 . S
C151 H218 0.961 . S
C152 C119 1.587 . S
C152 C153 1.360 . S
C152 C165 1.412 . S
C153 C152 1.360 . S
C153 C154 1.365 . S
C153 H219 0.929 . S
C154 C129 1.553 . S
C154 C153 1.365 . S
C154 C155 1.404 . S
C155 C154 1.404 . S
C155 C156 1.395 . S
C155 C166 1.451 . S
C156 C155 1.395 . S
C156 C157 1.322 . S
C156 H220 0.930 . S
C157 C156 1.322 . S
C157 C158 1.459 . S
C157 H221 0.929 . S
C158 C157 1.459 . S
C158 C159 1.445 . S
C158 C167 1.395 . S
C159 C137 1.432 . S
C159 C158 1.445 . S
C159 C160 1.370 . S
C160 C159 1.370 . S
C160 C161 1.438 . S
C160 H222 0.930 . S
C161 C147 1.497 . S
C161 C160 1.438 . S
C161 C162 1.360 . S
C162 C161 1.360 . S
C162 C163 1.401 . S
C162 C167 1.446 . S
C163 C162 1.401 . S
C163 C164 1.347 . S
C163 H223 0.929 . S
C164 C163 1.347 . S
C164 C165 1.455 . S
C164 H224 0.930 . S
C165 C152 1.412 . S
C165 C164 1.455 . S
C165 C166 1.331 . S
C166 C155 1.451 . S
C166 C165 1.331 . S
C166 C167 1.497 . S
C167 C158 1.395 . S
C167 C162 1.446 . S
C167 C166 1.497 . S
C168 C169 1.582 . S
C168 H225 0.962 . S
C168 H226 0.959 . S
C168 H227 0.958 . S
C169 C168 1.582 . S
C169 O172 1.458 . S
C169 H198 0.980 . S
O170 C115 1.426 . S
O170 C116 1.334 . S
O171 C143 1.412 . S
O171 C144 1.393 . S
O172 C134 1.435 . S
O172 C169 1.458 . S
O173 C125 1.468 . S
O173 C126 1.408 . S
H174 C115 0.980 . S
H175 C114 0.959 . S
H176 C114 0.959 . S
H177 C114 0.960 . S
H178 C117 0.929 . S
H179 C121 0.929 . S
H180 C122 0.959 . S
H181 C122 0.961 . S
H182 C122 0.961 . S
H183 C123 0.960 . S
H184 C123 0.960 . S
H185 C123 0.961 . S
H186 C125 0.980 . S
H187 C124 0.961 . S
H188 C124 0.960 . S
H189 C124 0.959 . S
H190 C127 0.930 . S
H191 C131 0.931 . S
H192 C132 0.959 . S
H193 C132 0.961 . S
H194 C132 0.959 . S
H195 C133 0.960 . S
H196 C133 0.960 . S
H197 C133 0.960 . S
H198 C169 0.980 . S
H199 C135 0.930 . S
H200 C139 0.930 . S
H201 C140 0.961 . S
H202 C140 0.960 . S
H203 C140 0.958 . S
H204 C141 0.961 . S
H205 C141 0.960 . S
H206 C141 0.960 . S
H207 C143 0.980 . S
H208 C142 0.961 . S
H209 C142 0.961 . S
H210 C142 0.959 . S
H211 C145 0.932 . S
H212 C149 0.929 . S
H213 C150 0.961 . S
H214 C150 0.959 . S
H215 C150 0.959 . S
H216 C151 0.960 . S
H217 C151 0.962 . S
H218 C151 0.961 . S
H219 C153 0.929 . S
H220 C156 0.930 . S
H221 C157 0.929 . S
H222 C160 0.930 . S
H223 C163 0.929 . S
H224 C164 0.930 . S
H225 C168 0.962 . S
H226 C168 0.959 . S
H227 C168 0.958 . S
C228 C229 1.560 . S
C228 H289 0.959 . S
C228 H290 0.959 . S
C228 H291 0.960 . S
C229 C228 1.560 . S
C229 O284 1.426 . S
C229 H288 0.980 . S
C230 C231 1.407 . S
C230 C235 1.418 . S
C230 O284 1.334 . S
C231 C230 1.407 . S
C231 C232 1.360 . S
C231 H292 0.929 . S
C232 C231 1.360 . S
C232 C233 1.401 . S
C232 C236 1.527 . S
C233 C232 1.401 . S
C233 C234 1.405 . S
C233 C266 1.587 . S
C234 C233 1.405 . S
C234 C235 1.332 . S
C234 C237 1.496 1_565 S
C235 C230 1.418 . S
C235 C234 1.332 . S
C235 H293 0.929 . S
C236 C232 1.527 . S
C236 H294 0.959 . S
C236 H295 0.961 . S
C236 H296 0.961 . S
C237 C234 1.496 1_545 S
C237 H297 0.960 . S
C237 H298 0.960 1_545 S
C237 H299 0.961 . S
C238 C239 1.517 . S
C238 H301 0.961 . S
C238 H302 0.960 . S
C238 H303 0.959 . S
C239 C238 1.517 . S
C239 O287 1.468 . S
C239 H300 0.980 . S
C240 C241 1.349 . S
C240 C245 1.367 . S
C240 O287 1.408 . S
C241 C240 1.349 . S
C241 C242 1.407 . S
C241 H304 0.930 . S
C242 C241 1.407 . S
C242 C243 1.449 . S
C242 C246 1.535 . S
C243 C242 1.449 . S
C243 C244 1.384 . S
C243 C268 1.553 . S
C244 C243 1.384 . S
C244 C245 1.364 . S
C244 C247 1.450 . S
C245 C240 1.367 . S
C245 C244 1.364 . S
C245 H305 0.931 . S
C246 C242 1.535 . S
C246 H306 0.959 . S
C246 H307 0.961 . S
C246 H308 0.959 . S
C247 C244 1.450 . S
C247 H309 0.960 . S
C247 H310 0.960 . S
C247 H311 0.960 . S
C248 C249 1.309 . S
C248 C253 1.304 . S
C248 O286 1.435 . S
C249 C248 1.309 . S
C249 C250 1.476 . S
C249 H313 0.930 . S
C250 C249 1.476 . S
C250 C251 1.400 . S
C250 C254 1.567 . S
C251 C250 1.400 . S
C251 C252 1.373 . S
C251 C273 1.432 . S
C252 C251 1.373 . S
C252 C253 1.339 . S
C252 C255 1.530 1_545 S
C253 C248 1.304 . S
C253 C252 1.339 . S
C253 H314 0.922 1_545 S
C254 C250 1.567 . S
C254 H315 0.961 . S
C254 H316 0.960 . S
C254 H317 0.958 . S
C255 C252 1.530 1_565 S
C255 H318 0.961 . S
C255 H319 0.960 . S
C255 H320 0.960 . S
C256 C257 1.530 . S
C256 H322 0.961 . S
C256 H323 0.961 . S
C256 H324 0.959 . S
C257 C256 1.530 . S
C257 O285 1.412 . S
C257 H321 0.980 . S
C258 C259 1.288 . S
C258 C263 1.377 . S
C258 O285 1.393 . S
C259 C258 1.288 . S
C259 C260 1.369 . S
C259 H325 0.932 . S
C260 C259 1.369 . S
C260 C261 1.398 . S
C260 C264 1.527 . S
C261 C260 1.398 . S
C261 C262 1.380 . S
C261 C275 1.497 . S
C262 C261 1.380 . S
C262 C263 1.383 . S
C262 C265 1.603 1_545 S
C263 C258 1.377 . S
C263 C262 1.383 . S
C263 H326 0.929 . S
C264 C260 1.527 . S
C264 H327 0.961 . S
C264 H328 0.959 . S
C264 H329 0.959 . S
C265 C262 1.603 1_565 S
C265 H330 0.960 . S
C265 H331 0.962 . S
C265 H332 0.961 . S
C266 C233 1.587 . S
C266 C267 1.360 . S
C266 C279 1.412 . S
C267 C266 1.360 . S
C267 C268 1.365 . S
C267 H333 0.929 . S
C268 C243 1.553 . S
C268 C267 1.365 . S
C268 C269 1.404 . S
C269 C268 1.404 . S
C269 C270 1.395 . S
C269 C280 1.451 . S
C270 C269 1.395 . S
C270 C271 1.250 1_554 S
C270 H334 0.930 . S
C271 C270 1.250 1_556 S
C271 C272 1.493 . S
C271 H335 0.974 . S
C272 C271 1.493 . S
C272 C273 1.445 1_565 S
C272 C281 1.401 . S
C273 C251 1.432 . S
C273 C272 1.445 1_545 S
C273 C274 1.370 . S
C274 C273 1.370 . S
C274 C275 1.438 . S
C274 H336 0.930 . S
C275 C261 1.497 . S
C275 C274 1.438 . S
C275 C276 1.360 . S
C276 C275 1.360 . S
C276 C277 1.401 1_556 S
C276 C281 1.450 1_545 S
C277 C276 1.401 1_554 S
C277 C278 1.347 1_545 S
C277 H337 0.904 1_554 S
C278 C277 1.347 1_565 S
C278 C279 1.455 . S
C278 H338 0.930 . S
C279 C266 1.412 . S
C279 C278 1.455 . S
C279 C280 1.331 . S
C280 C269 1.451 . S
C280 C279 1.331 . S
C280 C281 1.487 1_554 S
C281 C272 1.401 . S
C281 C276 1.450 1_565 S
C281 C280 1.487 1_556 S
C282 C283 1.582 . S
C282 H339 0.962 . S
C282 H340 0.959 . S
C282 H341 0.958 . S
C283 C282 1.582 . S
C283 O286 1.458 . S
C283 H312 0.980 . S
O284 C229 1.426 . S
O284 C230 1.334 . S
O285 C257 1.412 . S
O285 C258 1.393 . S
O286 C248 1.435 . S
O286 C283 1.458 . S
O287 C239 1.468 . S
O287 C240 1.408 . S
H288 C229 0.980 . S
H289 C228 0.959 . S
H290 C228 0.959 . S
H291 C228 0.960 . S
H292 C231 0.929 . S
H293 C235 0.929 . S
H294 C236 0.959 . S
H295 C236 0.961 . S
H296 C236 0.961 . S
H297 C237 0.960 . S
H298 C237 0.960 1_565 S
H299 C237 0.961 . S
H300 C239 0.980 . S
H301 C238 0.961 . S
H302 C238 0.960 . S
H303 C238 0.959 . S
H304 C241 0.930 . S
H305 C245 0.931 . S
H306 C246 0.959 . S
H307 C246 0.961 . S
H308 C246 0.959 . S
H309 C247 0.960 . S
H310 C247 0.960 . S
H311 C247 0.960 . S
H312 C283 0.980 . S
H313 C249 0.930 . S
H314 C253 0.922 1_565 S
H315 C254 0.961 . S
H316 C254 0.960 . S
H317 C254 0.958 . S
H318 C255 0.961 . S
H319 C255 0.960 . S
H320 C255 0.960 . S
H321 C257 0.980 . S
H322 C256 0.961 . S
H323 C256 0.961 . S
H324 C256 0.959 . S
H325 C259 0.932 . S
H326 C263 0.929 . S
H327 C264 0.961 . S
H328 C264 0.959 . S
H329 C264 0.959 . S
H330 C265 0.960 . S
H331 C265 0.962 . S
H332 C265 0.961 . S
H333 C267 0.929 . S
H334 C270 0.930 . S
H335 C271 0.974 . S
H336 C274 0.930 . S
H337 C277 0.904 1_556 S
H338 C278 0.930 . S
H339 C282 0.962 . S
H340 C282 0.959 . S
H341 C282 0.958 . S
C342 C343 1.560 . S
C342 H403 0.959 . S
C342 H404 0.959 . S
C342 H405 0.960 . S
C343 C342 1.560 . S
C343 O398 1.426 . S
C343 H402 0.980 . S
C344 C345 1.407 . S
C344 C349 1.418 . S
C344 O398 1.334 . S
C345 C344 1.407 . S
C345 C346 1.360 . S
C345 H406 0.929 . S
C346 C345 1.360 . S
C346 C347 1.401 . S
C346 C350 1.527 . S
C347 C346 1.401 . S
C347 C348 1.405 . S
C347 C380 1.587 . S
C348 C347 1.405 . S
C348 C349 1.332 . S
C348 C351 1.496 . S
C349 C344 1.418 . S
C349 C348 1.332 . S
C349 H407 0.929 . S
C350 C346 1.527 . S
C350 H408 0.959 . S
C350 H409 0.961 . S
C350 H410 0.961 . S
C351 C348 1.496 . S
C351 H411 0.960 . S
C351 H412 0.960 . S
C351 H413 0.961 . S
C352 C353 1.517 . S
C352 H415 0.961 . S
C352 H416 0.960 . S
C352 H417 0.959 . S
C353 C352 1.517 . S
C353 O401 1.468 . S
C353 H414 0.980 . S
C354 C355 1.349 . S
C354 C359 1.367 . S
C354 O401 1.408 . S
C355 C354 1.349 . S
C355 C356 1.407 . S
C355 H418 0.930 . S
C356 C355 1.407 . S
C356 C357 1.449 . S
C356 C360 1.535 . S
C357 C356 1.449 . S
C357 C358 1.384 . S
C357 C382 1.553 . S
C358 C357 1.384 . S
C358 C359 1.364 . S
C358 C361 1.450 . S
C359 C354 1.367 . S
C359 C358 1.364 . S
C359 H419 0.931 . S
C360 C356 1.535 . S
C360 H420 0.959 . S
C360 H421 0.961 . S
C360 H422 0.959 . S
C361 C358 1.450 . S
C361 H423 0.960 . S
C361 H424 0.960 . S
C361 H425 0.960 . S
C362 C363 1.309 . S
C362 C367 1.304 . S
C362 O400 1.435 . S
C363 C362 1.309 . S
C363 C364 1.476 . S
C363 H427 0.930 . S
C364 C363 1.476 . S
C364 C365 1.400 . S
C364 C368 1.567 . S
C365 C364 1.400 . S
C365 C366 1.373 . S
C365 C387 1.432 . S
C366 C365 1.373 . S
C366 C367 1.339 . S
C366 C369 1.530 . S
C367 C362 1.304 . S
C367 C366 1.339 . S
C367 H428 0.930 . S
C368 C364 1.567 . S
C368 H429 0.961 . S
C368 H430 0.960 . S
C368 H431 0.958 . S
C369 C366 1.530 . S
C369 H432 0.961 . S
C369 H433 0.960 . S
C369 H434 0.960 . S
C370 C371 1.530 . S
C370 H436 0.961 . S
C370 H437 0.961 . S
C370 H438 0.959 . S
C371 C370 1.530 . S
C371 O399 1.412 . S
C371 H435 0.980 . S
C372 C373 1.288 . S
C372 C377 1.377 . S
C372 O399 1.393 . S
C373 C372 1.288 . S
C373 C374 1.369 . S
C373 H439 0.932 . S
C374 C373 1.369 . S
C374 C375 1.398 . S
C374 C378 1.527 . S
C375 C374 1.398 . S
C375 C376 1.380 . S
C375 C389 1.497 . S
C376 C375 1.380 . S
C376 C377 1.383 . S
C376 C379 1.603 . S
C377 C372 1.377 . S
C377 C376 1.383 . S
C377 H440 0.929 . S
C378 C374 1.527 . S
C378 H441 0.961 . S
C378 H442 0.959 . S
C378 H443 0.959 . S
C379 C376 1.603 . S
C379 H444 0.960 . S
C379 H445 0.962 . S
C379 H446 0.961 . S
C380 C347 1.587 . S
C380 C381 1.360 . S
C380 C393 1.412 . S
C381 C380 1.360 . S
C381 C382 1.365 . S
C381 H447 0.929 . S
C382 C357 1.553 . S
C382 C381 1.365 . S
C382 C383 1.404 . S
C383 C382 1.404 . S
C383 C384 1.395 . S
C383 C394 1.451 . S
C384 C383 1.395 . S
C384 C385 1.322 . S
C384 H448 0.930 . S
C385 C384 1.322 . S
C385 C386 1.459 . S
C385 H449 0.929 . S
C386 C385 1.459 . S
C386 C387 1.445 . S
C386 C395 1.395 . S
C387 C365 1.432 . S
C387 C386 1.445 . S
C387 C388 1.370 . S
C388 C387 1.370 . S
C388 C389 1.438 . S
C388 H450 0.930 . S
C389 C375 1.497 . S
C389 C388 1.438 . S
C389 C390 1.360 . S
C390 C389 1.360 . S
C390 C391 1.401 . S
C390 C395 1.446 . S
C391 C390 1.401 . S
C391 C392 1.347 . S
C391 H451 0.929 . S
C392 C391 1.347 . S
C392 C393 1.455 . S
C392 H452 0.930 . S
C393 C380 1.412 . S
C393 C392 1.455 . S
C393 C394 1.331 . S
C394 C383 1.451 . S
C394 C393 1.331 . S
C394 C395 1.497 . S
C395 C386 1.395 . S
C395 C390 1.446 . S
C395 C394 1.497 . S
C396 C397 1.582 . S
C396 H453 0.962 . S
C396 H454 0.959 . S
C396 H455 0.958 . S
C397 C396 1.582 . S
C397 O400 1.458 . S
C397 H426 0.980 . S
O398 C343 1.426 . S
O398 C344 1.334 . S
O399 C371 1.412 . S
O399 C372 1.393 . S
O400 C362 1.435 . S
O400 C397 1.458 . S
O401 C353 1.468 . S
O401 C354 1.408 . S
H402 C343 0.980 . S
H403 C342 0.959 . S
H404 C342 0.959 . S
H405 C342 0.960 . S
H406 C345 0.929 . S
H407 C349 0.929 . S
H408 C350 0.959 . S
H409 C350 0.961 . S
H410 C350 0.961 . S
H411 C351 0.960 . S
H412 C351 0.960 . S
H413 C351 0.961 . S
H414 C353 0.980 . S
H415 C352 0.961 . S
H416 C352 0.960 . S
H417 C352 0.959 . S
H418 C355 0.930 . S
H419 C359 0.931 . S
H420 C360 0.959 . S
H421 C360 0.961 . S
H422 C360 0.959 . S
H423 C361 0.960 . S
H424 C361 0.960 . S
H425 C361 0.960 . S
H426 C397 0.980 . S
H427 C363 0.930 . S
H428 C367 0.930 . S
H429 C368 0.961 . S
H430 C368 0.960 . S
H431 C368 0.958 . S
H432 C369 0.961 . S
H433 C369 0.960 . S
H434 C369 0.960 . S
H435 C371 0.980 . S
H436 C370 0.961 . S
H437 C370 0.961 . S
H438 C370 0.959 . S
H439 C373 0.932 . S
H440 C377 0.929 . S
H441 C378 0.961 . S
H442 C378 0.959 . S
H443 C378 0.959 . S
H444 C379 0.960 . S
H445 C379 0.962 . S
H446 C379 0.961 . S
H447 C381 0.929 . S
H448 C384 0.930 . S
H449 C385 0.929 . S
H450 C388 0.930 . S
H451 C391 0.929 . S
H452 C392 0.930 . S
H453 C396 0.962 . S
H454 C396 0.959 . S
H455 C396 0.958 . S
C456 C457 1.560 . S
C456 H517 0.959 . S
C456 H518 0.959 . S
C456 H519 0.960 . S
C457 C456 1.560 . S
C457 O512 1.426 . S
C457 H516 0.980 . S
C458 C459 1.407 . S
C458 C463 1.418 . S
C458 O512 1.334 . S
C459 C458 1.407 . S
C459 C460 1.360 . S
C459 H520 0.929 . S
C460 C459 1.360 . S
C460 C461 1.401 . S
C460 C464 1.527 . S
C461 C460 1.401 . S
C461 C462 1.405 . S
C461 C494 1.587 . S
C462 C461 1.405 . S
C462 C463 1.332 . S
C462 C465 1.496 . S
C463 C458 1.418 . S
C463 C462 1.332 . S
C463 H521 0.929 . S
C464 C460 1.527 . S
C464 H522 0.959 . S
C464 H523 0.961 . S
C464 H524 0.961 . S
C465 C462 1.496 . S
C465 H525 0.960 . S
C465 H526 0.960 . S
C465 H527 0.961 . S
C466 C467 1.517 . S
C466 H529 0.961 . S
C466 H530 0.960 . S
C466 H531 0.959 . S
C467 C466 1.517 . S
C467 O515 1.468 . S
C467 H528 0.980 . S
C468 C469 1.349 . S
C468 C473 1.367 . S
C468 O515 1.408 . S
C469 C468 1.349 . S
C469 C470 1.407 . S
C469 H532 0.930 . S
C470 C469 1.407 . S
C470 C471 1.449 . S
C470 C474 1.535 . S
C471 C470 1.449 . S
C471 C472 1.384 . S
C471 C496 1.553 . S
C472 C471 1.384 . S
C472 C473 1.364 . S
C472 C475 1.450 . S
C473 C468 1.367 . S
C473 C472 1.364 . S
C473 H533 0.931 . S
C474 C470 1.535 . S
C474 H534 0.959 . S
C474 H535 0.961 . S
C474 H536 0.959 . S
C475 C472 1.450 . S
C475 H537 0.960 . S
C475 H538 0.960 . S
C475 H539 0.960 . S
C476 C477 1.309 . S
C476 C481 1.304 . S
C476 O514 1.435 . S
C477 C476 1.309 . S
C477 C478 1.476 . S
C477 H541 0.930 . S
C478 C477 1.476 . S
C478 C479 1.400 . S
C478 C482 1.567 . S
C479 C478 1.400 . S
C479 C480 1.373 . S
C479 C501 1.432 . S
C480 C479 1.373 . S
C480 C481 1.339 . S
C480 C483 1.530 . S
C481 C476 1.304 . S
C481 C480 1.339 . S
C481 H542 0.930 . S
C482 C478 1.567 . S
C482 H543 0.961 . S
C482 H544 0.960 . S
C482 H545 0.958 . S
C483 C480 1.530 . S
C483 H546 0.961 . S
C483 H547 0.960 . S
C483 H548 0.960 . S
C484 C485 1.530 . S
C484 H550 0.961 . S
C484 H551 0.961 . S
C484 H552 0.959 . S
C485 C484 1.530 . S
C485 O513 1.412 . S
C485 H549 0.980 . S
C486 C487 1.288 . S
C486 C491 1.377 . S
C486 O513 1.393 . S
C487 C486 1.288 . S
C487 C488 1.369 . S
C487 H553 0.932 . S
C488 C487 1.369 . S
C488 C489 1.398 . S
C488 C492 1.527 . S
C489 C488 1.398 . S
C489 C490 1.380 . S
C489 C503 1.497 . S
C490 C489 1.380 . S
C490 C491 1.383 . S
C490 C493 1.603 . S
C491 C486 1.377 . S
C491 C490 1.383 . S
C491 H554 0.929 . S
C492 C488 1.527 . S
C492 H555 0.961 . S
C492 H556 0.959 . S
C492 H557 0.959 . S
C493 C490 1.603 . S
C493 H558 0.960 . S
C493 H559 0.962 . S
C493 H560 0.961 . S
C494 C461 1.587 . S
C494 C495 1.360 . S
C494 C507 1.412 . S
C495 C494 1.360 . S
C495 C496 1.365 . S
C495 H561 0.929 . S
C496 C471 1.553 . S
C496 C495 1.365 . S
C496 C497 1.404 . S
C497 C496 1.404 . S
C497 C498 1.395 . S
C497 C508 1.451 . S
C498 C497 1.395 . S
C498 C499 1.322 . S
C498 H562 0.930 . S
C499 C498 1.322 . S
C499 C500 1.459 . S
C499 H563 0.929 . S
C500 C499 1.459 . S
C500 C501 1.445 . S
C500 C509 1.395 . S
C501 C479 1.432 . S
C501 C500 1.445 . S
C501 C502 1.370 . S
C502 C501 1.370 . S
C502 C503 1.438 . S
C502 H564 0.930 . S
C503 C489 1.497 . S
C503 C502 1.438 . S
C503 C504 1.360 . S
C504 C503 1.360 . S
C504 C505 1.401 . S
C504 C509 1.446 . S
C505 C504 1.401 . S
C505 C506 1.347 . S
C505 H565 0.929 . S
C506 C505 1.347 . S
C506 C507 1.455 . S
C506 H566 0.930 . S
C507 C494 1.412 . S
C507 C506 1.455 . S
C507 C508 1.331 . S
C508 C497 1.451 . S
C508 C507 1.331 . S
C508 C509 1.497 . S
C509 C500 1.395 . S
C509 C504 1.446 . S
C509 C508 1.497 . S
C510 C511 1.582 . S
C510 H567 0.962 . S
C510 H568 0.959 . S
C510 H569 0.958 . S
C511 C510 1.582 . S
C511 O514 1.458 . S
C511 H540 0.980 . S
O512 C457 1.426 . S
O512 C458 1.334 . S
O513 C485 1.412 . S
O513 C486 1.393 . S
O514 C476 1.435 . S
O514 C511 1.458 . S
O515 C467 1.468 . S
O515 C468 1.408 . S
H516 C457 0.980 . S
H517 C456 0.959 . S
H518 C456 0.959 . S
H519 C456 0.960 . S
H520 C459 0.929 . S
H521 C463 0.929 . S
H522 C464 0.959 . S
H523 C464 0.961 . S
H524 C464 0.961 . S
H525 C465 0.960 . S
H526 C465 0.960 . S
H527 C465 0.961 . S
H528 C467 0.980 . S
H529 C466 0.961 . S
H530 C466 0.960 . S
H531 C466 0.959 . S
H532 C469 0.930 . S
H533 C473 0.931 . S
H534 C474 0.959 . S
H535 C474 0.961 . S
H536 C474 0.959 . S
H537 C475 0.960 . S
H538 C475 0.960 . S
H539 C475 0.960 . S
H540 C511 0.980 . S
H541 C477 0.930 . S
H542 C481 0.930 . S
H543 C482 0.961 . S
H544 C482 0.960 . S
H545 C482 0.958 . S
H546 C483 0.961 . S
H547 C483 0.960 . S
H548 C483 0.960 . S
H549 C485 0.980 . S
H550 C484 0.961 . S
H551 C484 0.961 . S
H552 C484 0.959 . S
H553 C487 0.932 . S
H554 C491 0.929 . S
H555 C492 0.961 . S
H556 C492 0.959 . S
H557 C492 0.959 . S
H558 C493 0.960 . S
H559 C493 0.962 . S
H560 C493 0.961 . S
H561 C495 0.929 . S
H562 C498 0.930 . S
H563 C499 0.929 . S
H564 C502 0.930 . S
H565 C505 0.929 . S
H566 C506 0.930 . S
H567 C510 0.962 . S
H568 C510 0.959 . S
H569 C510 0.958 . S
C570 C571 1.560 . S
C570 H631 0.959 . S
C570 H632 0.959 . S
C570 H633 0.960 . S
C571 C570 1.560 . S
C571 O626 1.426 . S
C571 H630 0.980 . S
C572 C573 1.407 . S
C572 C577 1.418 . S
C572 O626 1.334 . S
C573 C572 1.407 . S
C573 C574 1.360 . S
C573 H634 0.929 . S
C574 C573 1.360 . S
C574 C575 1.401 . S
C574 C578 1.527 . S
C575 C574 1.401 . S
C575 C576 1.405 . S
C575 C608 1.587 . S
C576 C575 1.405 . S
C576 C577 1.332 . S
C576 C579 1.496 . S
C577 C572 1.418 . S
C577 C576 1.332 . S
C577 H635 0.929 . S
C578 C574 1.527 . S
C578 H636 0.959 . S
C578 H637 0.961 . S
C578 H638 0.961 . S
C579 C576 1.496 . S
C579 H639 0.960 . S
C579 H640 0.960 . S
C579 H641 0.961 . S
C580 C581 1.517 . S
C580 H643 0.961 . S
C580 H644 0.960 . S
C580 H645 0.959 . S
C581 C580 1.517 . S
C581 O629 1.468 . S
C581 H642 0.980 . S
C582 C583 1.349 . S
C582 C587 1.367 . S
C582 O629 1.408 . S
C583 C582 1.349 . S
C583 C584 1.407 . S
C583 H646 0.930 . S
C584 C583 1.407 . S
C584 C585 1.449 . S
C584 C588 1.535 . S
C585 C584 1.449 . S
C585 C586 1.384 . S
C585 C610 1.553 . S
C586 C585 1.384 . S
C586 C587 1.364 . S
C586 C589 1.450 . S
C587 C582 1.367 . S
C587 C586 1.364 . S
C587 H647 0.931 . S
C588 C584 1.535 . S
C588 H648 0.959 . S
C588 H649 0.961 . S
C588 H650 0.959 . S
C589 C586 1.450 . S
C589 H651 0.960 . S
C589 H652 0.960 . S
C589 H653 0.960 . S
C590 C591 1.309 . S
C590 C595 1.304 . S
C590 O628 1.435 . S
C591 C590 1.309 . S
C591 C592 1.476 . S
C591 H655 0.930 . S
C592 C591 1.476 . S
C592 C593 1.400 . S
C592 C596 1.567 . S
C593 C592 1.400 . S
C593 C594 1.373 . S
C593 C615 1.432 . S
C594 C593 1.373 . S
C594 C595 1.339 . S
C594 C597 1.530 . S
C595 C590 1.304 . S
C595 C594 1.339 . S
C595 H656 0.930 . S
C596 C592 1.567 . S
C596 H657 0.961 . S
C596 H658 0.960 . S
C596 H659 0.958 . S
C597 C594 1.530 . S
C597 H660 0.961 . S
C597 H661 0.960 . S
C597 H662 0.960 . S
C598 C599 1.530 . S
C598 H664 0.961 . S
C598 H665 0.961 . S
C598 H666 0.959 . S
C599 C598 1.530 . S
C599 O627 1.412 . S
C599 H663 0.980 . S
C600 C601 1.288 . S
C600 C605 1.377 . S
C600 O627 1.393 . S
C601 C600 1.288 . S
C601 C602 1.369 . S
C601 H667 0.932 . S
C602 C601 1.369 . S
C602 C603 1.398 . S
C602 C606 1.527 . S
C603 C602 1.398 . S
C603 C604 1.380 . S
C603 C617 1.497 . S
C604 C603 1.380 . S
C604 C605 1.383 . S
C604 C607 1.603 . S
C605 C600 1.377 . S
C605 C604 1.383 . S
C605 H668 0.929 . S
C606 C602 1.527 . S
C606 H669 0.961 . S
C606 H670 0.959 . S
C606 H671 0.959 . S
C607 C604 1.603 . S
C607 H672 0.960 . S
C607 H673 0.962 . S
C607 H674 0.961 . S
C608 C575 1.587 . S
C608 C609 1.360 . S
C608 C621 1.412 . S
C609 C608 1.360 . S
C609 C610 1.365 . S
C609 H675 0.929 . S
C610 C585 1.553 . S
C610 C609 1.365 . S
C610 C611 1.404 . S
C611 C610 1.404 . S
C611 C612 1.395 . S
C611 C622 1.451 . S
C612 C611 1.395 . S
C612 C613 1.322 . S
C612 H676 0.930 . S
C613 C612 1.322 . S
C613 C614 1.459 . S
C613 H677 0.929 . S
C614 C613 1.459 . S
C614 C615 1.445 . S
C614 C623 1.395 . S
C615 C593 1.432 . S
C615 C614 1.445 . S
C615 C616 1.370 . S
C616 C615 1.370 . S
C616 C617 1.438 . S
C616 H678 0.930 . S
C617 C603 1.497 . S
C617 C616 1.438 . S
C617 C618 1.360 . S
C618 C617 1.360 . S
C618 C619 1.401 . S
C618 C623 1.446 . S
C619 C618 1.401 . S
C619 C620 1.347 . S
C619 H679 0.929 . S
C620 C619 1.347 . S
C620 C621 1.455 . S
C620 H680 0.930 . S
C621 C608 1.412 . S
C621 C620 1.455 . S
C621 C622 1.331 . S
C622 C611 1.451 . S
C622 C621 1.331 . S
C622 C623 1.497 . S
C623 C614 1.395 . S
C623 C618 1.446 . S
C623 C622 1.497 . S
C624 C625 1.582 . S
C624 H681 0.962 . S
C624 H682 0.959 . S
C624 H683 0.958 . S
C625 C624 1.582 . S
C625 O628 1.458 . S
C625 H654 0.980 . S
O626 C571 1.426 . S
O626 C572 1.334 . S
O627 C599 1.412 . S
O627 C600 1.393 . S
O628 C590 1.435 . S
O628 C625 1.458 . S
O629 C581 1.468 . S
O629 C582 1.408 . S
H630 C571 0.980 . S
H631 C570 0.959 . S
H632 C570 0.959 . S
H633 C570 0.960 . S
H634 C573 0.929 . S
H635 C577 0.929 . S
H636 C578 0.959 . S
H637 C578 0.961 . S
H638 C578 0.961 . S
H639 C579 0.960 . S
H640 C579 0.960 . S
H641 C579 0.961 . S
H642 C581 0.980 . S
H643 C580 0.961 . S
H644 C580 0.960 . S
H645 C580 0.959 . S
H646 C583 0.930 . S
H647 C587 0.931 . S
H648 C588 0.959 . S
H649 C588 0.961 . S
H650 C588 0.959 . S
H651 C589 0.960 . S
H652 C589 0.960 . S
H653 C589 0.960 . S
H654 C625 0.980 . S
H655 C591 0.930 . S
H656 C595 0.930 . S
H657 C596 0.961 . S
H658 C596 0.960 . S
H659 C596 0.958 . S
H660 C597 0.961 . S
H661 C597 0.960 . S
H662 C597 0.960 . S
H663 C599 0.980 . S
H664 C598 0.961 . S
H665 C598 0.961 . S
H666 C598 0.959 . S
H667 C601 0.932 . S
H668 C605 0.929 . S
H669 C606 0.961 . S
H670 C606 0.959 . S
H671 C606 0.959 . S
H672 C607 0.960 . S
H673 C607 0.962 . S
H674 C607 0.961 . S
H675 C609 0.929 . S
H676 C612 0.930 . S
H677 C613 0.929 . S
H678 C616 0.930 . S
H679 C619 0.929 . S
H680 C620 0.930 . S
H681 C624 0.962 . S
H682 C624 0.959 . S
H683 C624 0.958 . S
C684 C685 1.560 . S
C684 H745 0.959 . S
C684 H746 0.959 . S
C684 H747 0.960 . S
C685 C684 1.560 . S
C685 O740 1.426 . S
C685 H744 0.980 . S
C686 C687 1.407 . S
C686 C691 1.418 . S
C686 O740 1.334 . S
C687 C686 1.407 . S
C687 C688 1.360 . S
C687 H748 0.929 . S
C688 C687 1.360 . S
C688 C689 1.401 . S
C688 C692 1.527 . S
C689 C688 1.401 . S
C689 C690 1.405 . S
C689 C722 1.587 . S
C690 C689 1.405 . S
C690 C691 1.332 . S
C690 C693 1.496 . S
C691 C686 1.418 . S
C691 C690 1.332 . S
C691 H749 0.929 . S
C692 C688 1.527 . S
C692 H750 0.959 . S
C692 H751 0.961 . S
C692 H752 0.961 . S
C693 C690 1.496 . S
C693 H753 0.960 . S
C693 H754 0.960 . S
C693 H755 0.961 . S
C694 C695 1.517 . S
C694 H757 0.961 . S
C694 H758 0.960 . S
C694 H759 0.959 . S
C695 C694 1.517 . S
C695 O743 1.468 . S
C695 H756 0.980 . S
C696 C697 1.349 . S
C696 C701 1.367 . S
C696 O743 1.408 . S
C697 C696 1.349 . S
C697 C698 1.407 . S
C697 H760 0.930 . S
C698 C697 1.407 . S
C698 C699 1.449 . S
C698 C702 1.535 . S
C699 C698 1.449 . S
C699 C700 1.384 . S
C699 C724 1.553 . S
C700 C699 1.384 . S
C700 C701 1.364 . S
C700 C703 1.450 . S
C701 C696 1.367 . S
C701 C700 1.364 . S
C701 H761 0.931 . S
C702 C698 1.535 . S
C702 H762 0.959 . S
C702 H763 0.961 . S
C702 H764 0.959 . S
C703 C700 1.450 . S
C703 H765 0.960 . S
C703 H766 0.960 . S
C703 H767 0.960 . S
C704 C705 1.309 . S
C704 C709 1.304 . S
C704 O742 1.435 . S
C705 C704 1.309 . S
C705 C706 1.476 . S
C705 H769 0.930 . S
C706 C705 1.476 . S
C706 C707 1.400 . S
C706 C710 1.567 . S
C707 C706 1.400 . S
C707 C708 1.373 . S
C707 C729 1.432 . S
C708 C707 1.373 . S
C708 C709 1.339 . S
C708 C711 1.530 . S
C709 C704 1.304 . S
C709 C708 1.339 . S
C709 H770 0.930 . S
C710 C706 1.567 . S
C710 H771 0.961 . S
C710 H772 0.960 . S
C710 H773 0.958 . S
C711 C708 1.530 . S
C711 H774 0.961 . S
C711 H775 0.960 1_556 S
C711 H776 0.960 . S
C712 C713 1.530 . S
C712 H778 0.961 . S
C712 H779 0.961 . S
C712 H780 0.959 . S
C713 C712 1.530 . S
C713 O741 1.412 . S
C713 H777 0.980 . S
C714 C715 1.288 . S
C714 C719 1.377 . S
C714 O741 1.393 . S
C715 C714 1.288 . S
C715 C716 1.369 . S
C715 H781 0.932 . S
C716 C715 1.369 . S
C716 C717 1.398 . S
C716 C720 1.527 . S
C717 C716 1.398 . S
C717 C718 1.380 . S
C717 C731 1.497 . S
C718 C717 1.380 . S
C718 C719 1.383 . S
C718 C721 1.603 . S
C719 C714 1.377 . S
C719 C718 1.383 . S
C719 H782 0.929 . S
C720 C716 1.527 . S
C720 H783 0.961 . S
C720 H784 0.959 . S
C720 H785 0.959 . S
C721 C718 1.603 . S
C721 H786 0.960 . S
C721 H787 0.962 . S
C721 H788 1.036 . S
C722 C689 1.587 . S
C722 C723 1.360 . S
C722 C735 1.412 . S
C723 C722 1.360 . S
C723 C724 1.365 . S
C723 H789 0.929 . S
C724 C699 1.553 . S
C724 C723 1.365 . S
C724 C725 1.404 . S
C725 C724 1.404 . S
C725 C726 1.395 . S
C725 C736 1.451 . S
C726 C725 1.395 . S
C726 C727 1.322 . S
C726 H790 0.930 . S
C727 C726 1.322 . S
C727 C728 1.459 . S
C727 H791 0.929 . S
C728 C727 1.459 . S
C728 C729 1.445 1_554 S
C728 C737 1.395 . S
C729 C707 1.432 . S
C729 C728 1.445 1_556 S
C729 C730 1.370 . S
C730 C729 1.370 . S
C730 C731 1.438 . S
C730 H792 0.930 . S
C731 C717 1.497 . S
C731 C730 1.438 . S
C731 C732 1.379 . S
C732 C731 1.379 . S
C732 C733 1.393 1_556 S
C732 C737 1.435 1_556 S
C733 C732 1.393 1_554 S
C733 C734 1.347 . S
C733 H793 0.926 . S
C734 C733 1.347 . S
C734 C735 1.455 . S
C734 H794 0.930 . S
C735 C722 1.412 . S
C735 C734 1.455 . S
C735 C736 1.331 . S
C736 C725 1.451 . S
C736 C735 1.331 . S
C736 C737 1.497 . S
C737 C728 1.395 . S
C737 C732 1.435 1_554 S
C737 C736 1.497 . S
C738 C739 1.582 . S
C738 H795 0.962 . S
C738 H796 0.959 . S
C738 H797 0.958 . S
C739 C738 1.582 . S
C739 O742 1.458 . S
C739 H768 0.980 . S
O740 C685 1.426 . S
O740 C686 1.334 . S
O741 C713 1.412 . S
O741 C714 1.393 . S
O742 C704 1.435 . S
O742 C739 1.458 . S
O743 C695 1.468 . S
O743 C696 1.408 . S
H744 C685 0.980 . S
H745 C684 0.959 . S
H746 C684 0.959 . S
H747 C684 0.960 . S
H748 C687 0.929 . S
H749 C691 0.929 . S
H750 C692 0.959 . S
H751 C692 0.961 . S
H752 C692 0.961 . S
H753 C693 0.960 . S
H754 C693 0.960 . S
H755 C693 0.961 . S
H756 C695 0.980 . S
H757 C694 0.961 . S
H758 C694 0.960 . S
H759 C694 0.959 . S
H760 C697 0.930 . S
H761 C701 0.931 . S
H762 C702 0.959 . S
H763 C702 0.961 . S
H764 C702 0.959 . S
H765 C703 0.960 . S
H766 C703 0.960 . S
H767 C703 0.960 . S
H768 C739 0.980 . S
H769 C705 0.930 . S
H770 C709 0.930 . S
H771 C710 0.961 . S
H772 C710 0.960 . S
H773 C710 0.958 . S
H774 C711 0.961 . S
H775 C711 0.960 1_554 S
H776 C711 0.960 . S
H777 C713 0.980 . S
H778 C712 0.961 . S
H779 C712 0.961 . S
H780 C712 0.959 . S
H781 C715 0.932 . S
H782 C719 0.929 . S
H783 C720 0.961 . S
H784 C720 0.959 . S
H785 C720 0.959 . S
H786 C721 0.960 . S
H787 C721 0.962 . S
H788 C721 1.036 . S
H789 C723 0.929 . S
H790 C726 0.930 . S
H791 C727 0.929 . S
H792 C730 0.930 . S
H793 C733 0.926 . S
H794 C734 0.930 . S
H795 C738 0.962 . S
H796 C738 0.959 . S
H797 C738 0.958 . S
C798 C799 1.560 . S
C798 H859 0.959 . S
C798 H860 0.959 . S
C798 H861 0.960 . S
C799 C798 1.560 . S
C799 O854 1.426 . S
C799 H858 0.980 . S
C800 C801 1.407 . S
C800 C805 1.418 . S
C800 O854 1.334 . S
C801 C800 1.407 . S
C801 C802 1.360 . S
C801 H862 0.929 . S
C802 C801 1.360 . S
C802 C803 1.401 . S
C802 C806 1.527 . S
C803 C802 1.401 . S
C803 C804 1.405 . S
C803 C836 1.587 . S
C804 C803 1.405 . S
C804 C805 1.332 . S
C804 C807 1.496 . S
C805 C800 1.418 . S
C805 C804 1.332 . S
C805 H863 0.929 . S
C806 C802 1.527 . S
C806 H864 0.959 . S
C806 H865 0.961 . S
C806 H866 0.961 . S
C807 C804 1.496 . S
C807 H867 0.960 . S
C807 H868 0.960 . S
C807 H869 0.961 . S
C808 C809 1.517 . S
C808 H871 0.961 . S
C808 H872 0.960 . S
C808 H873 0.959 . S
C809 C808 1.517 . S
C809 O857 1.468 . S
C809 H870 0.980 . S
C810 C811 1.349 . S
C810 C815 1.367 . S
C810 O857 1.408 . S
C811 C810 1.349 . S
C811 C812 1.407 . S
C811 H874 0.930 . S
C812 C811 1.407 . S
C812 C813 1.449 . S
C812 C816 1.535 . S
C813 C812 1.449 . S
C813 C814 1.384 . S
C813 C838 1.553 . S
C814 C813 1.384 . S
C814 C815 1.364 . S
C814 C817 1.450 . S
C815 C810 1.367 . S
C815 C814 1.364 . S
C815 H875 0.931 . S
C816 C812 1.535 . S
C816 H876 0.959 . S
C816 H877 0.961 . S
C816 H878 0.959 . S
C817 C814 1.450 . S
C817 H879 0.960 . S
C817 H880 0.960 . S
C817 H881 0.960 . S
C818 C819 1.309 . S
C818 C823 1.304 . S
C818 O856 1.435 . S
C819 C818 1.309 . S
C819 C820 1.476 . S
C819 H883 0.930 . S
C820 C819 1.476 . S
C820 C821 1.400 . S
C820 C824 1.567 . S
C821 C820 1.400 . S
C821 C822 1.373 . S
C821 C843 1.432 . S
C822 C821 1.373 . S
C822 C823 1.339 . S
C822 C825 1.530 . S
C823 C818 1.304 . S
C823 C822 1.339 . S
C823 H884 0.930 . S
C824 C820 1.567 . S
C824 H885 0.961 . S
C824 H886 0.960 . S
C824 H887 0.958 . S
C825 C822 1.530 . S
C825 H888 0.961 . S
C825 H889 0.960 . S
C825 H890 0.960 . S
C826 C827 1.530 . S
C826 H892 0.961 . S
C826 H893 0.961 . S
C826 H894 0.959 . S
C827 C826 1.530 . S
C827 O855 1.412 . S
C827 H891 0.980 . S
C828 C829 1.288 . S
C828 C833 1.377 . S
C828 O855 1.393 . S
C829 C828 1.288 . S
C829 C830 1.369 . S
C829 H895 0.932 . S
C830 C829 1.369 . S
C830 C831 1.398 . S
C830 C834 1.527 . S
C831 C830 1.398 . S
C831 C832 1.380 . S
C831 C845 1.497 . S
C832 C831 1.380 . S
C832 C833 1.383 . S
C832 C835 1.603 . S
C833 C828 1.377 . S
C833 C832 1.383 . S
C833 H896 0.929 . S
C834 C830 1.527 . S
C834 H897 0.961 . S
C834 H898 0.959 . S
C834 H899 0.959 . S
C835 C832 1.603 . S
C835 H900 0.960 . S
C835 H901 0.962 . S
C835 H902 0.961 . S
C836 C803 1.587 . S
C836 C837 1.360 1_655 S
C836 C849 1.412 . S
C837 C836 1.360 1_455 S
C837 C838 1.365 . S
C837 H903 0.929 . S
C838 C813 1.553 . S
C838 C837 1.365 . S
C838 C839 1.404 . S
C839 C838 1.404 . S
C839 C840 1.395 . S
C839 C850 1.451 . S
C840 C839 1.395 . S
C840 C841 1.322 . S
C840 H904 0.930 . S
C841 C840 1.322 . S
C841 C842 1.459 . S
C841 H905 0.929 . S
C842 C841 1.459 . S
C842 C843 1.445 . S
C842 C851 1.395 . S
C843 C821 1.432 . S
C843 C842 1.445 . S
C843 C844 1.370 . S
C844 C843 1.370 . S
C844 C845 1.438 1_455 S
C844 H906 0.930 . S
C845 C831 1.497 . S
C845 C844 1.438 1_655 S
C845 C846 1.360 . S
C846 C845 1.360 . S
C846 C847 1.401 . S
C846 C851 1.446 1_655 S
C847 C846 1.401 . S
C847 C848 1.347 . S
C847 H907 0.929 . S
C848 C847 1.347 . S
C848 C849 1.455 . S
C848 H908 0.930 . S
C849 C836 1.412 . S
C849 C848 1.455 . S
C849 C850 1.331 1_655 S
C850 C839 1.451 . S
C850 C849 1.331 1_455 S
C850 C851 1.497 . S
C851 C842 1.395 . S
C851 C846 1.446 1_455 S
C851 C850 1.497 . S
C852 C853 1.582 . S
C852 H909 0.962 . S
C852 H910 0.959 . S
C852 H911 0.958 . S
C853 C852 1.582 . S
C853 O856 1.458 . S
C853 H882 0.980 . S
O854 C799 1.426 . S
O854 C800 1.334 . S
O855 C827 1.412 . S
O855 C828 1.393 . S
O856 C818 1.435 . S
O856 C853 1.458 . S
O857 C809 1.468 . S
O857 C810 1.408 . S
H858 C799 0.980 . S
H859 C798 0.959 . S
H860 C798 0.959 . S
H861 C798 0.960 . S
H862 C801 0.929 . S
H863 C805 0.929 . S
H864 C806 0.959 . S
H865 C806 0.961 . S
H866 C806 0.961 . S
H867 C807 0.960 . S
H868 C807 0.960 . S
H869 C807 0.961 . S
H870 C809 0.980 . S
H871 C808 0.961 . S
H872 C808 0.960 . S
H873 C808 0.959 . S
H874 C811 0.930 . S
H875 C815 0.931 . S
H876 C816 0.959 . S
H877 C816 0.961 . S
H878 C816 0.959 . S
H879 C817 0.960 . S
H880 C817 0.960 . S
H881 C817 0.960 . S
H882 C853 0.980 . S
H883 C819 0.930 . S
H884 C823 0.930 . S
H885 C824 0.961 . S
H886 C824 0.960 . S
H887 C824 0.958 . S
H888 C825 0.961 . S
H889 C825 0.960 . S
H890 C825 0.960 . S
H891 C827 0.980 . S
H892 C826 0.961 . S
H893 C826 0.961 . S
H894 C826 0.959 . S
H895 C829 0.932 . S
H896 C833 0.929 . S
H897 C834 0.961 . S
H898 C834 0.959 . S
H899 C834 0.959 . S
H900 C835 0.960 . S
H901 C835 0.962 . S
H902 C835 0.961 . S
H903 C837 0.929 . S
H904 C840 0.930 . S
H905 C841 0.929 . S
H906 C844 0.930 . S
H907 C847 0.929 . S
H908 C848 0.930 . S
H909 C852 0.962 . S
H910 C852 0.959 . S
H911 C852 0.958 . S
Fe912 O913 1.886 . S
Fe912 O916 1.715 1_455 S
Fe912 O921 2.077 . S
Fe912 O926 1.935 1_455 S
Fe912 O932 2.077 . S
Fe912 O941 1.935 1_455 S
O913 Fe912 1.886 . S
O913 Fe915 1.715 . S
Fe914 O916 1.886 . S
Fe914 O917 1.715 . S
Fe914 O924 1.935 . S
Fe914 O925 2.077 . S
Fe914 O931 1.935 . S
Fe914 O940 2.077 . S
Fe915 O913 1.715 . S
Fe915 O918 1.886 . S
Fe915 O922 1.935 . S
Fe915 O927 2.077 . S
Fe915 O933 1.935 . S
Fe915 O937 2.077 . S
O916 Fe912 1.715 1_655 S
O916 Fe914 1.886 . S
O917 Fe914 1.715 . S
O917 Fe919 1.886 1_655 S
O918 Fe915 1.886 . S
O918 Fe919 1.715 . S
Fe919 O917 1.886 1_455 S
Fe919 O918 1.715 . S
Fe919 O923 2.077 1_455 S
Fe919 O928 1.935 . S
Fe919 O930 2.077 1_455 S
Fe919 O938 1.935 . S
C920 O932 1.381 . S
C920 O933 1.421 . S
O921 Fe912 2.077 . S
O921 C934 1.381 . S
O922 Fe915 1.935 . S
O922 C934 1.421 . S
O923 Fe919 2.077 1_655 S
O923 C939 1.381 . S
O924 Fe914 1.935 . S
O924 C939 1.421 . S
O925 Fe914 2.077 . S
O925 C929 1.381 . S
O926 Fe912 1.935 1_655 S
O926 C929 1.421 . S
O927 Fe915 2.077 . S
O927 C935 1.381 . S
O928 Fe919 1.935 . S
O928 C935 1.421 . S
C929 O925 1.381 . S
C929 O926 1.421 . S
O930 Fe919 2.077 1_655 S
O930 C942 1.381 . S
O931 Fe914 1.935 . S
O931 C942 1.421 . S
O932 Fe912 2.077 . S
O932 C920 1.381 . S
O933 Fe915 1.935 . S
O933 C920 1.421 . S
C934 O921 1.381 . S
C934 O922 1.421 . S
C935 O927 1.381 . S
C935 O928 1.421 . S
C936 O937 1.381 . S
C936 O938 1.421 . S
O937 Fe915 2.077 . S
O937 C936 1.381 . S
O938 Fe919 1.935 . S
O938 C936 1.421 . S
C939 O923 1.381 . S
C939 O924 1.421 . S
O940 Fe914 2.077 . S
O940 C943 1.381 . S
O941 Fe912 1.935 1_655 S
O941 C943 1.421 . S
C942 O930 1.381 . S
C942 O931 1.421 . S
C943 O940 1.381 . S
C943 O941 1.421 . S
Fe944 O945 1.886 . S
Fe944 O948 1.715 . S
Fe944 O953 2.077 . S
Fe944 O958 1.935 . S
Fe944 O964 2.077 . S
Fe944 O973 1.935 . S
O945 Fe944 1.886 . S
O945 Fe947 1.715 . S
Fe946 O948 1.886 . S
Fe946 O949 1.715 . S
Fe946 O956 1.935 . S
Fe946 O957 2.077 . S
Fe946 O963 1.935 . S
Fe946 O972 2.077 . S
Fe947 O945 1.715 . S
Fe947 O950 1.886 . S
Fe947 O954 1.935 . S
Fe947 O959 2.077 . S
Fe947 O965 1.935 . S
Fe947 O969 2.077 . S
O948 Fe944 1.715 . S
O948 Fe946 1.886 . S
O949 Fe946 1.715 . S
O949 Fe951 1.886 . S
O950 Fe947 1.886 . S
O950 Fe951 1.715 . S
Fe951 O949 1.886 . S
Fe951 O950 1.715 . S
Fe951 O955 2.077 . S
Fe951 O960 1.935 . S
Fe951 O962 2.077 . S
Fe951 O970 1.935 . S
C952 O964 1.381 . S
C952 O965 1.421 . S
O953 Fe944 2.077 . S
O953 C966 1.381 . S
O954 Fe947 1.935 . S
O954 C966 1.421 . S
O955 Fe951 2.077 . S
O955 C971 1.381 . S
O956 Fe946 1.935 . S
O956 C971 1.421 . S
O957 Fe946 2.077 . S
O957 C961 1.381 . S
O958 Fe944 1.935 . S
O958 C961 1.421 . S
O959 Fe947 2.077 . S
O959 C967 1.381 . S
O960 Fe951 1.935 . S
O960 C967 1.421 . S
C961 O957 1.381 . S
C961 O958 1.421 . S
O962 Fe951 2.077 . S
O962 C974 1.381 . S
O963 Fe946 1.935 . S
O963 C974 1.421 . S
O964 Fe944 2.077 . S
O964 C952 1.381 . S
O965 Fe947 1.935 . S
O965 C952 1.421 . S
C966 O953 1.381 . S
C966 O954 1.421 . S
C967 O959 1.381 . S
C967 O960 1.421 . S
C968 O969 1.381 . S
C968 O970 1.421 . S
O969 Fe947 2.077 . S
O969 C968 1.381 . S
O970 Fe951 1.935 . S
O970 C968 1.421 . S
C971 O955 1.381 . S
C971 O956 1.421 . S
O972 Fe946 2.077 . S
O972 C975 1.381 . S
O973 Fe944 1.935 . S
O973 C975 1.421 . S
C974 O962 1.381 . S
C974 O963 1.421 . S
C975 O972 1.381 . S
C975 O973 1.421 . S
Fe976 O977 1.886 . S
Fe976 O980 1.715 . S
Fe976 O985 2.077 . S
Fe976 O990 1.935 . S
Fe976 O996 2.077 . S
Fe976 O1005 1.935 . S
O977 Fe976 1.886 . S
O977 Fe979 1.715 . S
Fe978 O980 1.886 . S
Fe978 O981 1.715 . S
Fe978 O988 1.935 . S
Fe978 O989 2.077 . S
Fe978 O995 1.935 . S
Fe978 O1004 2.077 . S
Fe979 O977 1.715 . S
Fe979 O982 1.886 . S
Fe979 O986 1.935 . S
Fe979 O991 2.077 . S
Fe979 O997 1.935 . S
Fe979 O1001 2.077 . S
O980 Fe976 1.715 . S
O980 Fe978 1.886 . S
O981 Fe978 1.715 . S
O981 Fe983 1.886 . S
O982 Fe979 1.886 . S
O982 Fe983 1.715 . S
Fe983 O981 1.886 . S
Fe983 O982 1.715 . S
Fe983 O987 2.077 . S
Fe983 O992 1.935 . S
Fe983 O994 2.077 . S
Fe983 O1002 1.935 . S
C984 O996 1.381 . S
C984 O997 1.421 . S
O985 Fe976 2.077 . S
O985 C998 1.381 . S
O986 Fe979 1.935 . S
O986 C998 1.421 . S
O987 Fe983 2.077 . S
O987 C1003 1.381 . S
O988 Fe978 1.935 . S
O988 C1003 1.421 . S
O989 Fe978 2.077 . S
O989 C993 1.381 . S
O990 Fe976 1.935 . S
O990 C993 1.421 . S
O991 Fe979 2.077 . S
O991 C999 1.381 . S
O992 Fe983 1.935 . S
O992 C999 1.421 . S
C993 O989 1.381 . S
C993 O990 1.421 . S
O994 Fe983 2.077 . S
O994 C1006 1.381 . S
O995 Fe978 1.935 . S
O995 C1006 1.421 . S
O996 Fe976 2.077 . S
O996 C984 1.381 . S
O997 Fe979 1.935 . S
O997 C984 1.421 . S
C998 O985 1.381 . S
C998 O986 1.421 . S
C999 O991 1.381 . S
C999 O992 1.421 . S
C1000 O1001 1.381 . S
C1000 O1002 1.421 . S
O1001 Fe979 2.077 . S
O1001 C1000 1.381 . S
O1002 Fe983 1.935 . S
O1002 C1000 1.421 . S
C1003 O987 1.381 . S
C1003 O988 1.421 . S
O1004 Fe978 2.077 . S
O1004 C1007 1.381 . S
O1005 Fe976 1.935 . S
O1005 C1007 1.421 . S
C1006 O994 1.381 . S
C1006 O995 1.421 . S
C1007 O1004 1.381 . S
C1007 O1005 1.421 . S
Fe1008 O1009 1.886 . S
Fe1008 O1012 1.715 . S
Fe1008 O1017 2.077 1_455 S
Fe1008 O1022 1.935 1_455 S
Fe1008 O1028 2.077 . S
Fe1008 O1037 1.935 . S
O1009 Fe1008 1.886 . S
O1009 Fe1011 1.715 . S
Fe1010 O1012 1.886 . S
Fe1010 O1013 1.715 . S
Fe1010 O1020 1.935 1_455 S
Fe1010 O1021 2.077 1_455 S
Fe1010 O1027 1.935 . S
Fe1010 O1036 2.077 . S
Fe1011 O1009 1.715 . S
Fe1011 O1014 1.886 . S
Fe1011 O1018 1.935 1_455 S
Fe1011 O1023 2.077 1_455 S
Fe1011 O1029 1.935 . S
Fe1011 O1033 2.077 . S
O1012 Fe1008 1.715 . S
O1012 Fe1010 1.886 . S
O1013 Fe1010 1.715 . S
O1013 Fe1015 1.886 . S
O1014 Fe1011 1.886 . S
O1014 Fe1015 1.715 . S
Fe1015 O1013 1.886 . S
Fe1015 O1014 1.715 . S
Fe1015 O1019 2.077 1_455 S
Fe1015 O1024 1.935 1_455 S
Fe1015 O1026 2.077 . S
Fe1015 O1034 1.935 . S
C1016 O1028 1.381 . S
C1016 O1029 1.421 . S
O1017 Fe1008 2.077 1_655 S
O1017 C1030 1.381 . S
O1018 Fe1011 1.935 1_655 S
O1018 C1030 1.421 . S
O1019 Fe1015 2.077 1_655 S
O1019 C1035 1.381 . S
O1020 Fe1010 1.935 1_655 S
O1020 C1035 1.421 . S
O1021 Fe1010 2.077 1_655 S
O1021 C1025 1.381 . S
O1022 Fe1008 1.935 1_655 S
O1022 C1025 1.421 . S
O1023 Fe1011 2.077 1_655 S
O1023 C1031 1.381 . S
O1024 Fe1015 1.935 1_655 S
O1024 C1031 1.421 . S
C1025 O1021 1.381 . S
C1025 O1022 1.421 . S
O1026 Fe1015 2.077 . S
O1026 C1038 1.381 . S
O1027 Fe1010 1.935 . S
O1027 C1038 1.421 . S
O1028 Fe1008 2.077 . S
O1028 C1016 1.381 . S
O1029 Fe1011 1.935 . S
O1029 C1016 1.421 . S
C1030 O1017 1.381 . S
C1030 O1018 1.421 . S
C1031 O1023 1.381 . S
C1031 O1024 1.421 . S
C1032 O1033 1.381 . S
C1032 O1034 1.421 . S
O1033 Fe1011 2.077 . S
O1033 C1032 1.381 . S
O1034 Fe1015 1.935 . S
O1034 C1032 1.421 . S
C1035 O1019 1.381 . S
C1035 O1020 1.421 . S
O1036 Fe1010 2.077 . S
O1036 C1039 1.381 . S
O1037 Fe1008 1.935 . S
O1037 C1039 1.421 . S
C1038 O1026 1.381 . S
C1038 O1027 1.421 . S
C1039 O1036 1.381 . S
C1039 O1037 1.421 . S
H1040 C1048 0.929 . S
H1041 C1050 0.930 . S
H1042 C1052 0.930 . S
H1043 C1055 0.929 . S
H1044 C1058 0.930 . S
H1045 C1060 0.960 . S
H1046 C1060 0.960 . S
H1047 C1060 0.960 . S
C1048 H1040 0.929 . S
C1048 C1049 1.377 . S
C1048 C1050 1.384 . S
C1049 C1048 1.377 . S
C1049 C1055 1.390 . S
C1050 H1041 0.930 . S
C1050 C1048 1.384 . S
C1050 C1051 1.372 . S
C1051 C1050 1.372 . S
C1051 C1052 1.400 . S
C1051 C1056 1.490 . S
C1052 H1042 0.930 . S
C1052 C1051 1.400 . S
C1052 C1055 1.386 . S
H1053 C1069 0.930 . S
H1054 C1070 0.931 . S
C1055 H1043 0.929 . S
C1055 C1049 1.390 . S
C1055 C1052 1.386 . S
C1056 C1051 1.490 . S
C1056 C1058 1.395 . S
C1056 C1059 1.403 . S
H1057 C1063 0.930 . S
C1058 H1044 0.930 . S
C1058 C1056 1.395 . S
C1058 C1061 1.403 . S
C1059 C1056 1.403 . S
C1059 C1060 1.524 . S
C1059 C1063 1.400 . S
C1060 H1045 0.960 . S
C1060 H1046 0.960 . S
C1060 H1047 0.960 . S
C1060 C1059 1.524 . S
C1061 C1058 1.403 . S
C1061 C1062 1.392 . S
C1061 C1065 1.495 . S
C1062 C1061 1.392 . S
C1062 C1063 1.385 . S
C1062 C1064 1.478 . S
C1063 H1057 0.930 . S
C1063 C1059 1.400 . S
C1063 C1062 1.385 . S
C1064 C1062 1.478 . S
C1064 C1066 1.381 . S
C1064 C1070 1.383 . S
C1065 C1061 1.495 . S
C1065 H1071 0.959 . S
C1065 H1072 0.961 . S
C1065 H1073 0.960 . S
C1066 C1064 1.381 . S
C1066 C1067 1.394 . S
C1066 H1074 0.930 . S
C1067 C1066 1.394 . S
C1067 C1068 1.383 . S
C1067 H1075 0.929 . S
C1068 C1067 1.383 . S
C1068 C1069 1.377 . S
C1069 H1053 0.930 . S
C1069 C1068 1.377 . S
C1069 C1070 1.379 . S
C1070 H1054 0.931 . S
C1070 C1064 1.383 . S
C1070 C1069 1.379 . S
H1071 C1065 0.959 . S
H1072 C1065 0.961 . S
H1073 C1065 0.960 . S
H1074 C1066 0.930 . S
H1075 C1067 0.929 . S
H1076 C1084 0.929 . S
H1077 C1086 0.930 . S
H1078 C1088 0.930 1_545 S
H1079 C1091 0.929 . S
H1080 C1094 0.930 . S
H1081 C1096 0.960 . S
H1082 C1096 0.960 1_565 S
H1083 C1096 0.960 . S
C1084 H1076 0.929 . S
C1084 C1085 1.377 . S
C1084 C1086 1.384 . S
C1085 C1084 1.377 . S
C1085 C1091 1.390 . S
C1086 H1077 0.930 . S
C1086 C1084 1.384 . S
C1086 C1087 1.372 . S
C1087 C1086 1.372 . S
C1087 C1088 1.400 . S
C1087 C1092 1.490 1_565 S
C1088 H1078 0.930 1_565 S
C1088 C1087 1.400 . S
C1088 C1091 1.386 . S
H1089 C1105 0.930 . S
H1090 C1106 0.931 . S
C1091 H1079 0.929 . S
C1091 C1085 1.390 . S
C1091 C1088 1.386 . S
C1092 C1087 1.490 1_545 S
C1092 C1094 1.395 . S
C1092 C1095 1.403 . S
H1093 C1099 0.930 . S
C1094 H1080 0.930 . S
C1094 C1092 1.395 . S
C1094 C1097 1.403 . S
C1095 C1092 1.403 . S
C1095 C1096 1.524 . S
C1095 C1099 1.400 . S
C1096 H1081 0.960 . S
C1096 H1082 0.960 1_545 S
C1096 H1083 0.960 . S
C1096 C1095 1.524 . S
C1097 C1094 1.403 . S
C1097 C1098 1.392 . S
C1097 C1101 1.495 . S
C1098 C1097 1.392 . S
C1098 C1099 1.385 . S
C1098 C1100 1.478 . S
C1099 H1093 0.930 . S
C1099 C1095 1.400 . S
C1099 C1098 1.385 . S
C1100 C1098 1.478 . S
C1100 C1102 1.381 . S
C1100 C1106 1.383 . S
C1101 C1097 1.495 . S
C1101 H1107 0.959 . S
C1101 H1108 0.961 . S
C1101 H1109 0.960 . S
C1102 C1100 1.381 . S
C1102 C1103 1.394 . S
C1102 H1110 0.930 . S
C1103 C1102 1.394 . S
C1103 C1104 1.383 . S
C1103 H1111 0.929 . S
C1104 C1103 1.383 . S
C1104 C1105 1.377 . S
C1105 H1089 0.930 . S
C1105 C1104 1.377 . S
C1105 C1106 1.379 . S
C1106 H1090 0.931 . S
C1106 C1100 1.383 . S
C1106 C1105 1.379 . S
H1107 C1101 0.959 . S
H1108 C1101 0.961 . S
H1109 C1101 0.960 . S
H1110 C1102 0.930 . S
H1111 C1103 0.929 . S
H1112 C1120 0.929 . S
H1113 C1122 0.930 . S
H1114 C1124 0.930 . S
H1115 C1127 0.929 . S
H1116 C1130 0.930 . S
H1117 C1132 0.960 . S
H1118 C1132 0.960 . S
H1119 C1132 0.960 . S
C1120 H1112 0.929 . S
C1120 C1121 1.377 . S
C1120 C1122 1.384 . S
C1121 C1120 1.377 . S
C1121 C1127 1.390 . S
C1122 H1113 0.930 . S
C1122 C1120 1.384 . S
C1122 C1123 1.372 . S
C1123 C1122 1.372 . S
C1123 C1124 1.400 . S
C1123 C1128 1.490 . S
C1124 H1114 0.930 . S
C1124 C1123 1.400 . S
C1124 C1127 1.386 . S
H1125 C1141 0.930 . S
H1126 C1142 0.931 . S
C1127 H1115 0.929 . S
C1127 C1121 1.390 . S
C1127 C1124 1.386 . S
C1128 C1123 1.490 . S
C1128 C1130 1.395 . S
C1128 C1131 1.403 . S
H1129 C1135 0.930 . S
C1130 H1116 0.930 . S
C1130 C1128 1.395 . S
C1130 C1133 1.403 . S
C1131 C1128 1.403 . S
C1131 C1132 1.524 . S
C1131 C1135 1.400 . S
C1132 H1117 0.960 . S
C1132 H1118 0.960 . S
C1132 H1119 0.960 . S
C1132 C1131 1.524 . S
C1133 C1130 1.403 . S
C1133 C1134 1.392 . S
C1133 C1137 1.495 . S
C1134 C1133 1.392 . S
C1134 C1135 1.385 . S
C1134 C1136 1.478 . S
C1135 H1129 0.930 . S
C1135 C1131 1.400 . S
C1135 C1134 1.385 . S
C1136 C1134 1.478 . S
C1136 C1138 1.381 . S
C1136 C1142 1.383 . S
C1137 C1133 1.495 . S
C1137 H1143 0.959 . S
C1137 H1144 0.961 . S
C1137 H1145 0.960 . S
C1138 C1136 1.381 . S
C1138 C1139 1.394 . S
C1138 H1146 0.930 . S
C1139 C1138 1.394 . S
C1139 C1140 1.383 . S
C1139 H1147 0.929 . S
C1140 C1139 1.383 . S
C1140 C1141 1.377 . S
C1141 H1125 0.930 . S
C1141 C1140 1.377 . S
C1141 C1142 1.379 . S
C1142 H1126 0.931 . S
C1142 C1136 1.383 . S
C1142 C1141 1.379 . S
H1143 C1137 0.959 . S
H1144 C1137 0.961 . S
H1145 C1137 0.960 . S
H1146 C1138 0.930 . S
H1147 C1139 0.929 . S
H1148 C1156 0.929 . S
H1149 C1158 0.930 . S
H1150 C1160 0.930 1_565 S
H1151 C1163 0.929 . S
H1152 C1166 0.930 . S
H1153 C1168 0.960 . S
H1154 C1168 0.960 . S
H1155 C1168 0.960 . S
C1156 H1148 0.929 . S
C1156 C1157 1.377 . S
C1156 C1158 1.384 . S
C1157 C1156 1.377 . S
C1157 C1163 1.390 . S
C1158 H1149 0.930 . S
C1158 C1156 1.384 . S
C1158 C1159 1.372 . S
C1159 C1158 1.372 . S
C1159 C1160 1.400 . S
C1159 C1164 1.490 1_545 S
C1160 H1150 0.930 1_545 S
C1160 C1159 1.400 . S
C1160 C1163 1.386 . S
H1161 C1177 0.930 . S
H1162 C1178 0.931 . S
C1163 H1151 0.929 . S
C1163 C1157 1.390 . S
C1163 C1160 1.386 . S
C1164 C1159 1.490 1_565 S
C1164 C1166 1.395 . S
C1164 C1167 1.403 . S
H1165 C1171 0.930 . S
C1166 H1152 0.930 . S
C1166 C1164 1.395 . S
C1166 C1169 1.403 . S
C1167 C1164 1.403 . S
C1167 C1168 1.524 . S
C1167 C1171 1.400 . S
C1168 H1153 0.960 . S
C1168 H1154 0.960 . S
C1168 H1155 0.960 . S
C1168 C1167 1.524 . S
C1169 C1166 1.403 . S
C1169 C1170 1.392 . S
C1169 C1173 1.495 . S
C1170 C1169 1.392 . S
C1170 C1171 1.385 . S
C1170 C1172 1.478 . S
C1171 H1165 0.930 . S
C1171 C1167 1.400 . S
C1171 C1170 1.385 . S
C1172 C1170 1.478 . S
C1172 C1174 1.381 . S
C1172 C1178 1.383 . S
C1173 C1169 1.495 . S
C1173 H1179 0.959 . S
C1173 H1180 0.961 . S
C1173 H1181 0.960 . S
C1174 C1172 1.381 . S
C1174 C1175 1.394 . S
C1174 H1182 0.930 . S
C1175 C1174 1.394 . S
C1175 C1176 1.383 . S
C1175 H1183 0.929 . S
C1176 C1175 1.383 . S
C1176 C1177 1.377 . S
C1177 H1161 0.930 . S
C1177 C1176 1.377 . S
C1177 C1178 1.379 . S
C1178 H1162 0.931 . S
C1178 C1172 1.383 . S
C1178 C1177 1.379 . S
H1179 C1173 0.959 . S
H1180 C1173 0.961 . S
H1181 C1173 0.960 . S
H1182 C1174 0.930 . S
H1183 C1175 0.929 . S
H1184 C1192 0.929 . S
H1185 C1194 0.930 . S
H1186 C1196 0.930 . S
H1187 C1199 0.929 . S
H1188 C1202 0.930 . S
H1189 C1204 0.960 . S
H1190 C1204 0.960 . S
H1191 C1204 0.960 . S
C1192 H1184 0.929 . S
C1192 C1193 1.377 . S
C1192 C1194 1.384 . S
C1193 C1192 1.377 . S
C1193 C1199 1.390 . S
C1194 H1185 0.930 . S
C1194 C1192 1.384 . S
C1194 C1195 1.372 . S
C1195 C1194 1.372 . S
C1195 C1196 1.400 . S
C1195 C1200 1.490 . S
C1196 H1186 0.930 . S
C1196 C1195 1.400 . S
C1196 C1199 1.386 . S
H1197 C1213 0.930 . S
H1198 C1214 0.931 . S
C1199 H1187 0.929 . S
C1199 C1193 1.390 . S
C1199 C1196 1.386 . S
C1200 C1195 1.490 . S
C1200 C1202 1.395 . S
C1200 C1203 1.403 . S
H1201 C1207 0.930 . S
C1202 H1188 0.930 . S
C1202 C1200 1.395 . S
C1202 C1205 1.403 . S
C1203 C1200 1.403 . S
C1203 C1204 1.524 . S
C1203 C1207 1.400 . S
C1204 H1189 0.960 . S
C1204 H1190 0.960 . S
C1204 H1191 0.960 . S
C1204 C1203 1.524 . S
C1205 C1202 1.403 . S
C1205 C1206 1.392 . S
C1205 C1209 1.495 . S
C1206 C1205 1.392 . S
C1206 C1207 1.385 . S
C1206 C1208 1.478 . S
C1207 H1201 0.930 . S
C1207 C1203 1.400 . S
C1207 C1206 1.385 . S
C1208 C1206 1.478 . S
C1208 C1210 1.381 . S
C1208 C1214 1.383 . S
C1209 C1205 1.495 . S
C1209 H1215 0.959 . S
C1209 H1216 0.961 . S
C1209 H1217 0.960 . S
C1210 C1208 1.381 . S
C1210 C1211 1.394 . S
C1210 H1218 0.930 . S
C1211 C1210 1.394 . S
C1211 C1212 1.383 . S
C1211 H1219 0.929 . S
C1212 C1211 1.383 . S
C1212 C1213 1.377 . S
C1213 H1197 0.930 . S
C1213 C1212 1.377 . S
C1213 C1214 1.379 . S
C1214 H1198 0.931 . S
C1214 C1208 1.383 . S
C1214 C1213 1.379 . S
H1215 C1209 0.959 . S
H1216 C1209 0.961 . S
H1217 C1209 0.960 . S
H1218 C1210 0.930 . S
H1219 C1211 0.929 . S
H1220 C1228 0.929 . S
H1221 C1230 0.930 . S
H1222 C1232 0.930 . S
H1223 C1235 0.929 . S
H1224 C1238 0.930 . S
H1225 C1240 0.960 . S
H1226 C1240 0.960 . S
H1227 C1240 0.960 . S
C1228 H1220 0.929 . S
C1228 C1229 1.377 . S
C1228 C1230 1.384 . S
C1229 C1228 1.377 . S
C1229 C1235 1.390 . S
C1230 H1221 0.930 . S
C1230 C1228 1.384 . S
C1230 C1231 1.372 1_565 S
C1231 C1230 1.372 1_545 S
C1231 C1232 1.400 . S
C1231 C1236 1.490 . S
C1232 H1222 0.930 . S
C1232 C1231 1.400 . S
C1232 C1235 1.386 1_545 S
H1233 C1249 0.930 . S
H1234 C1250 0.931 . S
C1235 H1223 0.929 . S
C1235 C1229 1.390 . S
C1235 C1232 1.386 1_565 S
C1236 C1231 1.490 . S
C1236 C1238 1.395 . S
C1236 C1239 1.403 . S
H1237 C1243 0.930 . S
C1238 H1224 0.930 . S
C1238 C1236 1.395 . S
C1238 C1241 1.403 . S
C1239 C1236 1.403 . S
C1239 C1240 1.524 . S
C1239 C1243 1.400 . S
C1240 H1225 0.960 . S
C1240 H1226 0.960 . S
C1240 H1227 0.960 . S
C1240 C1239 1.524 . S
C1241 C1238 1.403 . S
C1241 C1242 1.392 . S
C1241 C1245 1.495 . S
C1242 C1241 1.392 . S
C1242 C1243 1.385 . S
C1242 C1244 1.478 . S
C1243 H1237 0.930 . S
C1243 C1239 1.400 . S
C1243 C1242 1.385 . S
C1244 C1242 1.478 . S
C1244 C1246 1.381 . S
C1244 C1250 1.383 . S
C1245 C1241 1.495 . S
C1245 H1251 0.959 . S
C1245 H1252 0.961 . S
C1245 H1253 0.960 . S
C1246 C1244 1.381 . S
C1246 C1247 1.394 . S
C1246 H1254 0.930 . S
C1247 C1246 1.394 . S
C1247 C1248 1.383 . S
C1247 H1255 0.929 . S
C1248 C1247 1.383 . S
C1248 C1249 1.377 . S
C1249 H1233 0.930 . S
C1249 C1248 1.377 . S
C1249 C1250 1.379 . S
C1250 H1234 0.931 . S
C1250 C1244 1.383 . S
C1250 C1249 1.379 . S
H1251 C1245 0.959 . S
H1252 C1245 0.961 . S
H1253 C1245 0.960 . S
H1254 C1246 0.930 . S
H1255 C1247 0.929 . S
H1256 C1264 0.929 . S
H1257 C1266 0.930 . S
H1258 C1268 0.930 . S
H1259 C1271 0.929 . S
H1260 C1274 0.930 . S
H1261 C1276 0.960 . S
H1262 C1276 0.960 . S
H1263 C1276 0.960 . S
C1264 H1256 0.929 . S
C1264 C1265 1.377 . S
C1264 C1266 1.384 . S
C1265 C1264 1.377 . S
C1265 C1271 1.390 . S
C1266 H1257 0.930 . S
C1266 C1264 1.384 . S
C1266 C1267 1.372 . S
C1267 C1266 1.372 . S
C1267 C1268 1.400 . S
C1267 C1272 1.490 . S
C1268 H1258 0.930 . S
C1268 C1267 1.400 . S
C1268 C1271 1.386 . S
H1269 C1285 0.930 . S
H1270 C1286 0.931 . S
C1271 H1259 0.929 . S
C1271 C1265 1.390 . S
C1271 C1268 1.386 . S
C1272 C1267 1.490 . S
C1272 C1274 1.395 . S
C1272 C1275 1.403 . S
H1273 C1279 0.930 . S
C1274 H1260 0.930 . S
C1274 C1272 1.395 . S
C1274 C1277 1.403 . S
C1275 C1272 1.403 . S
C1275 C1276 1.524 . S
C1275 C1279 1.400 . S
C1276 H1261 0.960 . S
C1276 H1262 0.960 . S
C1276 H1263 0.960 . S
C1276 C1275 1.524 . S
C1277 C1274 1.403 . S
C1277 C1278 1.392 . S
C1277 C1281 1.495 . S
C1278 C1277 1.392 . S
C1278 C1279 1.385 . S
C1278 C1280 1.478 . S
C1279 H1273 0.930 . S
C1279 C1275 1.400 . S
C1279 C1278 1.385 . S
C1280 C1278 1.478 . S
C1280 C1282 1.381 . S
C1280 C1286 1.383 . S
C1281 C1277 1.495 . S
C1281 H1287 0.959 . S
C1281 H1288 0.961 . S
C1281 H1289 0.960 . S
C1282 C1280 1.381 . S
C1282 C1283 1.394 . S
C1282 H1290 0.930 . S
C1283 C1282 1.394 . S
C1283 C1284 1.383 . S
C1283 H1291 0.929 . S
C1284 C1283 1.383 . S
C1284 C1285 1.377 . S
C1285 H1269 0.930 . S
C1285 C1284 1.377 . S
C1285 C1286 1.379 . S
C1286 H1270 0.931 . S
C1286 C1280 1.383 . S
C1286 C1285 1.379 . S
H1287 C1281 0.959 . S
H1288 C1281 0.961 . S
H1289 C1281 0.960 . S
H1290 C1282 0.930 . S
H1291 C1283 0.929 . S
H1292 C1300 0.929 . S
H1293 C1302 0.930 1_565 S
H1294 C1304 0.930 . S
H1295 C1307 0.929 . S
H1296 C1310 0.930 . S
H1297 C1312 0.960 . S
H1298 C1312 0.960 . S
H1299 C1312 0.960 1_545 S
C1300 H1292 0.929 . S
C1300 C1301 1.377 . S
C1300 C1302 1.384 . S
C1301 C1300 1.377 . S
C1301 C1307 1.390 . S
C1302 H1293 0.930 1_545 S
C1302 C1300 1.384 . S
C1302 C1303 1.372 . S
C1303 C1302 1.372 . S
C1303 C1304 1.400 . S
C1303 C1308 1.490 1_545 S
C1304 H1294 0.930 . S
C1304 C1303 1.400 . S
C1304 C1307 1.386 . S
H1305 C1321 0.930 . S
H1306 C1322 0.931 . S
C1307 H1295 0.929 . S
C1307 C1301 1.390 . S
C1307 C1304 1.386 . S
C1308 C1303 1.490 1_565 S
C1308 C1310 1.395 . S
C1308 C1311 1.403 . S
H1309 C1315 0.930 . S
C1310 H1296 0.930 . S
C1310 C1308 1.395 . S
C1310 C1313 1.403 . S
C1311 C1308 1.403 . S
C1311 C1312 1.524 . S
C1311 C1315 1.400 . S
C1312 H1297 0.960 . S
C1312 H1298 0.960 . S
C1312 H1299 0.960 1_565 S
C1312 C1311 1.524 . S
C1313 C1310 1.403 . S
C1313 C1314 1.392 . S
C1313 C1317 1.495 . S
C1314 C1313 1.392 . S
C1314 C1315 1.385 . S
C1314 C1316 1.478 . S
C1315 H1309 0.930 . S
C1315 C1311 1.400 . S
C1315 C1314 1.385 . S
C1316 C1314 1.478 . S
C1316 C1318 1.381 . S
C1316 C1322 1.383 . S
C1317 C1313 1.495 . S
C1317 H1323 0.959 . S
C1317 H1324 0.961 . S
C1317 H1325 0.960 . S
C1318 C1316 1.381 . S
C1318 C1319 1.394 . S
C1318 H1326 0.930 . S
C1319 C1318 1.394 . S
C1319 C1320 1.383 . S
C1319 H1327 0.929 . S
C1320 C1319 1.383 . S
C1320 C1321 1.377 . S
C1321 H1305 0.930 . S
C1321 C1320 1.377 . S
C1321 C1322 1.379 . S
C1322 H1306 0.931 . S
C1322 C1316 1.383 . S
C1322 C1321 1.379 . S
H1323 C1317 0.959 . S
H1324 C1317 0.961 . S
H1325 C1317 0.960 . S
H1326 C1318 0.930 . S
H1327 C1319 0.929 . S
H1328 C1336 0.929 . S
H1329 C1338 0.930 . S
H1330 C1340 0.930 . S
H1331 C1343 0.929 . S
H1332 C1346 0.930 . S
H1333 C1348 0.960 . S
H1334 C1348 0.960 . S
H1335 C1348 0.960 . S
C1336 H1328 0.929 . S
C1336 C1337 1.377 . S
C1336 C1338 1.384 . S
C1337 C1336 1.377 . S
C1337 C1343 1.390 . S
C1338 H1329 0.930 . S
C1338 C1336 1.384 . S
C1338 C1339 1.372 . S
C1339 C1338 1.372 . S
C1339 C1340 1.400 . S
C1339 C1344 1.490 . S
C1340 H1330 0.930 . S
C1340 C1339 1.400 . S
C1340 C1343 1.386 . S
H1341 C1357 0.930 . S
H1342 C1358 0.931 . S
C1343 H1331 0.929 . S
C1343 C1337 1.390 . S
C1343 C1340 1.386 . S
C1344 C1339 1.490 . S
C1344 C1346 1.395 . S
C1344 C1347 1.403 . S
H1345 C1351 0.930 . S
C1346 H1332 0.930 . S
C1346 C1344 1.395 . S
C1346 C1349 1.403 . S
C1347 C1344 1.403 . S
C1347 C1348 1.524 . S
C1347 C1351 1.400 . S
C1348 H1333 0.960 . S
C1348 H1334 0.960 . S
C1348 H1335 0.960 . S
C1348 C1347 1.524 . S
C1349 C1346 1.403 . S
C1349 C1350 1.392 . S
C1349 C1353 1.495 . S
C1350 C1349 1.392 . S
C1350 C1351 1.385 . S
C1350 C1352 1.478 . S
C1351 H1345 0.930 . S
C1351 C1347 1.400 . S
C1351 C1350 1.385 . S
C1352 C1350 1.478 . S
C1352 C1354 1.381 . S
C1352 C1358 1.383 . S
C1353 C1349 1.495 . S
C1353 H1359 0.959 . S
C1353 H1360 0.961 . S
C1353 H1361 0.960 . S
C1354 C1352 1.381 . S
C1354 C1355 1.394 . S
C1354 H1362 0.930 . S
C1355 C1354 1.394 . S
C1355 C1356 1.383 . S
C1355 H1363 0.929 . S
C1356 C1355 1.383 . S
C1356 C1357 1.377 . S
C1357 H1341 0.930 . S
C1357 C1356 1.377 . S
C1357 C1358 1.379 . S
C1358 H1342 0.931 . S
C1358 C1352 1.383 . S
C1358 C1357 1.379 . S
H1359 C1353 0.959 . S
H1360 C1353 0.961 . S
H1361 C1353 0.960 . S
H1362 C1354 0.930 . S
H1363 C1355 0.929 . S
H1364 C1372 0.929 . S
H1365 C1374 0.901 1_565 S
H1366 C1376 0.930 . S
H1367 C1379 0.929 . S
H1368 C1382 0.930 . S
H1369 C1384 0.960 . S
H1370 C1384 0.960 . S
H1371 C1384 0.960 1_545 S
C1372 H1364 0.929 . S
C1372 C1373 1.377 . S
C1372 C1374 1.406 . S
C1373 C1372 1.377 . S
C1373 C1379 1.390 . S
C1374 H1365 0.901 1_545 S
C1374 C1372 1.406 . S
C1374 C1375 1.378 . S
C1375 C1374 1.378 . S
C1375 C1376 1.400 . S
C1375 C1380 1.490 1_545 S
C1376 H1366 0.930 . S
C1376 C1375 1.400 . S
C1376 C1379 1.386 . S
H1377 C1393 0.930 . S
H1378 C1394 0.931 . S
C1379 H1367 0.929 . S
C1379 C1373 1.390 . S
C1379 C1376 1.386 . S
C1380 C1375 1.490 1_565 S
C1380 C1382 1.395 . S
C1380 C1383 1.403 . S
H1381 C1387 0.930 . S
C1382 H1368 0.930 . S
C1382 C1380 1.395 . S
C1382 C1385 1.403 . S
C1383 C1380 1.403 . S
C1383 C1384 1.524 . S
C1383 C1387 1.400 . S
C1384 H1369 0.960 . S
C1384 H1370 0.960 . S
C1384 H1371 0.960 1_565 S
C1384 C1383 1.524 . S
C1385 C1382 1.403 . S
C1385 C1386 1.392 . S
C1385 C1389 1.495 . S
C1386 C1385 1.392 . S
C1386 C1387 1.385 . S
C1386 C1388 1.478 . S
C1387 H1381 0.930 . S
C1387 C1383 1.400 . S
C1387 C1386 1.385 . S
C1388 C1386 1.478 . S
C1388 C1390 1.381 . S
C1388 C1394 1.383 . S
C1389 C1385 1.495 . S
C1389 H1395 0.959 . S
C1389 H1396 0.961 . S
C1389 H1397 0.960 . S
C1390 C1388 1.381 . S
C1390 C1391 1.394 . S
C1390 H1398 0.930 . S
C1391 C1390 1.394 . S
C1391 C1392 1.383 . S
C1391 H1399 0.929 . S
C1392 C1391 1.383 . S
C1392 C1393 1.377 . S
C1393 H1377 0.930 . S
C1393 C1392 1.377 . S
C1393 C1394 1.379 . S
C1394 H1378 0.931 . S
C1394 C1388 1.383 . S
C1394 C1393 1.379 . S
H1395 C1389 0.959 . S
H1396 C1389 0.961 . S
H1397 C1389 0.960 . S
H1398 C1390 0.930 . S
H1399 C1391 0.929 . S
H1400 C1408 0.929 . S
H1401 C1410 0.930 . S
H1402 C1412 0.930 . S
H1403 C1415 0.929 . S
H1404 C1418 0.930 . S
H1405 C1420 0.960 . S
H1406 C1420 0.960 . S
H1407 C1420 0.960 . S
C1408 H1400 0.929 . S
C1408 C1409 1.377 . S
C1408 C1410 1.384 . S
C1409 C1408 1.377 . S
C1409 C1415 1.390 . S
C1410 H1401 0.930 . S
C1410 C1408 1.384 . S
C1410 C1411 1.372 . S
C1411 C1410 1.372 . S
C1411 C1412 1.400 . S
C1411 C1416 1.490 . S
C1412 H1402 0.930 . S
C1412 C1411 1.400 . S
C1412 C1415 1.386 . S
H1413 C1429 0.930 . S
H1414 C1430 0.931 . S
C1415 H1403 0.929 . S
C1415 C1409 1.390 . S
C1415 C1412 1.386 . S
C1416 C1411 1.490 . S
C1416 C1418 1.395 . S
C1416 C1419 1.403 . S
H1417 C1423 0.930 . S
C1418 H1404 0.930 . S
C1418 C1416 1.395 . S
C1418 C1421 1.403 . S
C1419 C1416 1.403 . S
C1419 C1420 1.524 . S
C1419 C1423 1.400 . S
C1420 H1405 0.960 . S
C1420 H1406 0.960 . S
C1420 H1407 0.960 . S
C1420 C1419 1.524 . S
C1421 C1418 1.403 . S
C1421 C1422 1.392 . S
C1421 C1425 1.495 . S
C1422 C1421 1.392 . S
C1422 C1423 1.385 . S
C1422 C1424 1.478 . S
C1423 H1417 0.930 . S
C1423 C1419 1.400 . S
C1423 C1422 1.385 . S
C1424 C1422 1.478 . S
C1424 C1426 1.381 . S
C1424 C1430 1.383 . S
C1425 C1421 1.495 . S
C1425 H1431 0.959 . S
C1425 H1432 0.961 . S
C1425 H1433 0.960 . S
C1426 C1424 1.381 . S
C1426 C1427 1.394 . S
C1426 H1434 0.930 . S
C1427 C1426 1.394 . S
C1427 C1428 1.383 . S
C1427 H1435 0.929 . S
C1428 C1427 1.383 . S
C1428 C1429 1.377 . S
C1429 H1413 0.930 . S
C1429 C1428 1.377 . S
C1429 C1430 1.379 . S
C1430 H1414 0.931 . S
C1430 C1424 1.383 . S
C1430 C1429 1.379 . S
H1431 C1425 0.959 . S
H1432 C1425 0.961 . S
H1433 C1425 0.960 . S
H1434 C1426 0.930 . S
H1435 C1427 0.929 . S
H1436 C1444 0.929 . S
H1437 C1446 0.930 . S
H1438 C1448 0.930 . S
H1439 C1451 0.929 . S
H1440 C1454 0.930 . S
H1441 C1456 0.961 . S
H1442 C1456 0.960 . S
H1443 C1456 0.960 . S
C1444 H1436 0.929 . S
C1444 C1445 1.377 . S
C1444 C1446 1.384 1_565 S
C1445 C1444 1.377 . S
C1445 C1451 1.390 . S
C1446 H1437 0.930 . S
C1446 C1444 1.384 1_545 S
C1446 C1447 1.372 . S
C1447 C1446 1.372 . S
C1447 C1448 1.400 1_545 S
C1447 C1452 1.490 . S
C1448 H1438 0.930 . S
C1448 C1447 1.400 1_565 S
C1448 C1451 1.386 . S
H1449 C1465 0.930 . S
H1450 C1466 0.931 . S
C1451 H1439 0.929 . S
C1451 C1445 1.390 . S
C1451 C1448 1.386 . S
C1452 C1447 1.490 . S
C1452 C1454 1.395 . S
C1452 C1455 1.403 . S
H1453 C1459 0.930 . S
C1454 H1440 0.930 . S
C1454 C1452 1.395 . S
C1454 C1457 1.403 . S
C1455 C1452 1.403 . S
C1455 C1456 1.524 1_545 S
C1455 C1459 1.400 . S
C1456 H1441 0.961 . S
C1456 H1442 0.960 . S
C1456 H1443 0.960 . S
C1456 C1455 1.524 1_565 S
C1457 C1454 1.403 . S
C1457 C1458 1.392 . S
C1457 C1461 1.495 . S
C1458 C1457 1.392 . S
C1458 C1459 1.385 . S
C1458 C1460 1.478 . S
C1459 H1453 0.930 . S
C1459 C1455 1.400 . S
C1459 C1458 1.385 . S
C1460 C1458 1.478 . S
C1460 C1462 1.381 . S
C1460 C1466 1.383 . S
C1461 C1457 1.495 . S
C1461 H1467 0.959 . S
C1461 H1468 0.961 . S
C1461 H1469 0.960 . S
C1462 C1460 1.381 . S
C1462 C1463 1.394 . S
C1462 H1470 0.930 . S
C1463 C1462 1.394 . S
C1463 C1464 1.383 . S
C1463 H1471 0.929 . S
C1464 C1463 1.383 . S
C1464 C1465 1.377 . S
C1465 H1449 0.930 . S
C1465 C1464 1.377 . S
C1465 C1466 1.379 . S
C1466 H1450 0.931 . S
C1466 C1460 1.383 . S
C1466 C1465 1.379 . S
H1467 C1461 0.959 . S
H1468 C1461 0.961 . S
H1469 C1461 0.960 . S
H1470 C1462 0.930 . S
H1471 C1463 0.929 . S
H1472 C1480 0.929 . S
H1473 C1482 0.930 . S
H1474 C1484 0.930 . S
H1475 C1487 0.929 . S
H1476 C1490 0.930 . S
H1477 C1492 0.960 . S
H1478 C1492 0.960 . S
H1479 C1492 0.960 . S
C1480 H1472 0.929 . S
C1480 C1481 1.377 . S
C1480 C1482 1.384 . S
C1481 C1480 1.377 . S
C1481 C1487 1.390 . S
C1482 H1473 0.930 . S
C1482 C1480 1.384 . S
C1482 C1483 1.372 . S
C1483 C1482 1.372 . S
C1483 C1484 1.400 . S
C1483 C1488 1.490 . S
C1484 H1474 0.930 . S
C1484 C1483 1.400 . S
C1484 C1487 1.386 . S
H1485 C1501 0.930 . S
H1486 C1502 0.931 . S
C1487 H1475 0.929 . S
C1487 C1481 1.390 . S
C1487 C1484 1.386 . S
C1488 C1483 1.490 . S
C1488 C1490 1.395 . S
C1488 C1491 1.403 . S
H1489 C1495 0.930 . S
C1490 H1476 0.930 . S
C1490 C1488 1.395 . S
C1490 C1493 1.403 . S
C1491 C1488 1.403 . S
C1491 C1492 1.524 . S
C1491 C1495 1.400 . S
C1492 H1477 0.960 . S
C1492 H1478 0.960 . S
C1492 H1479 0.960 . S
C1492 C1491 1.524 . S
C1493 C1490 1.403 . S
C1493 C1494 1.392 . S
C1493 C1497 1.495 . S
C1494 C1493 1.392 . S
C1494 C1495 1.385 . S
C1494 C1496 1.478 . S
C1495 H1489 0.930 . S
C1495 C1491 1.400 . S
C1495 C1494 1.385 . S
C1496 C1494 1.478 . S
C1496 C1498 1.381 . S
C1496 C1502 1.383 . S
C1497 C1493 1.495 . S
C1497 H1503 0.959 . S
C1497 H1504 0.961 . S
C1497 H1505 0.960 . S
C1498 C1496 1.381 . S
C1498 C1499 1.394 . S
C1498 H1506 0.930 . S
C1499 C1498 1.394 . S
C1499 C1500 1.383 . S
C1499 H1507 0.929 . S
C1500 C1499 1.383 . S
C1500 C1501 1.377 . S
C1501 H1485 0.930 . S
C1501 C1500 1.377 . S
C1501 C1502 1.379 . S
C1502 H1486 0.931 . S
C1502 C1496 1.383 . S
C1502 C1501 1.379 . S
H1503 C1497 0.959 . S
H1504 C1497 0.961 . S
H1505 C1497 0.960 . S
H1506 C1498 0.930 . S
H1507 C1499 0.929 . S
H1508 C1516 0.929 . S
H1509 C1518 0.930 . S
H1510 C1520 0.930 . S
H1511 C1523 0.929 . S
H1512 C1526 0.930 1_545 S
H1513 C1528 0.960 . S
H1514 C1528 0.960 . S
H1515 C1528 0.960 . S
C1516 H1508 0.929 . S
C1516 C1517 1.377 . S
C1516 C1518 1.384 . S
C1517 C1516 1.377 . S
C1517 C1523 1.390 . S
C1518 H1509 0.930 . S
C1518 C1516 1.384 . S
C1518 C1519 1.372 . S
C1519 C1518 1.372 . S
C1519 C1520 1.400 . S
C1519 C1524 1.490 1_545 S
C1520 H1510 0.930 . S
C1520 C1519 1.400 . S
C1520 C1523 1.386 . S
H1521 C1537 0.930 . S
H1522 C1538 0.931 . S
C1523 H1511 0.929 . S
C1523 C1517 1.390 . S
C1523 C1520 1.386 . S
C1524 C1519 1.490 1_565 S
C1524 C1526 1.395 . S
C1524 C1527 1.403 . S
H1525 C1531 0.930 . S
C1526 H1512 0.930 1_565 S
C1526 C1524 1.395 . S
C1526 C1529 1.403 . S
C1527 C1524 1.403 . S
C1527 C1528 1.524 . S
C1527 C1531 1.400 . S
C1528 H1513 0.960 . S
C1528 H1514 0.960 . S
C1528 H1515 0.960 . S
C1528 C1527 1.524 . S
C1529 C1526 1.403 . S
C1529 C1530 1.392 . S
C1529 C1533 1.495 . S
C1530 C1529 1.392 . S
C1530 C1531 1.385 . S
C1530 C1532 1.478 . S
C1531 H1525 0.930 . S
C1531 C1527 1.400 . S
C1531 C1530 1.385 . S
C1532 C1530 1.478 . S
C1532 C1534 1.381 . S
C1532 C1538 1.383 . S
C1533 C1529 1.495 . S
C1533 H1539 0.959 . S
C1533 H1540 0.961 . S
C1533 H1541 0.960 . S
C1534 C1532 1.381 . S
C1534 C1535 1.394 . S
C1534 H1542 0.930 . S
C1535 C1534 1.394 . S
C1535 C1536 1.383 . S
C1535 H1543 0.929 . S
C1536 C1535 1.383 . S
C1536 C1537 1.377 . S
C1537 H1521 0.930 . S
C1537 C1536 1.377 . S
C1537 C1538 1.379 . S
C1538 H1522 0.931 . S
C1538 C1532 1.383 . S
C1538 C1537 1.379 . S
H1539 C1533 0.959 . S
H1540 C1533 0.961 . S
H1541 C1533 0.960 . S
H1542 C1534 0.930 . S
H1543 C1535 0.929 . S
H1544 C1552 0.929 . S
H1545 C1554 0.930 . S
H1546 C1556 0.930 . S
H1547 C1559 0.929 . S
H1548 C1562 0.930 . S
H1549 C1564 0.960 . S
H1550 C1564 0.960 . S
H1551 C1564 0.960 . S
C1552 H1544 0.929 . S
C1552 C1553 1.377 . S
C1552 C1554 1.384 . S
C1553 C1552 1.377 . S
C1553 C1559 1.390 . S
C1554 H1545 0.930 . S
C1554 C1552 1.384 . S
C1554 C1555 1.372 . S
C1555 C1554 1.372 . S
C1555 C1556 1.400 . S
C1555 C1560 1.490 . S
C1556 H1546 0.930 . S
C1556 C1555 1.400 . S
C1556 C1559 1.386 . S
H1557 C1573 0.930 . S
H1558 C1574 0.931 . S
C1559 H1547 0.929 . S
C1559 C1553 1.390 . S
C1559 C1556 1.386 . S
C1560 C1555 1.490 . S
C1560 C1562 1.395 . S
C1560 C1563 1.403 . S
H1561 C1567 0.930 . S
C1562 H1548 0.930 . S
C1562 C1560 1.395 . S
C1562 C1565 1.403 . S
C1563 C1560 1.403 . S
C1563 C1564 1.524 . S
C1563 C1567 1.400 . S
C1564 H1549 0.960 . S
C1564 H1550 0.960 . S
C1564 H1551 0.960 . S
C1564 C1563 1.524 . S
C1565 C1562 1.403 . S
C1565 C1566 1.392 . S
C1565 C1569 1.495 . S
C1566 C1565 1.392 . S
C1566 C1567 1.385 . S
C1566 C1568 1.478 . S
C1567 H1561 0.930 . S
C1567 C1563 1.400 . S
C1567 C1566 1.385 . S
C1568 C1566 1.478 . S
C1568 C1570 1.381 . S
C1568 C1574 1.383 . S
C1569 C1565 1.495 . S
C1569 H1575 0.959 . S
C1569 H1576 0.961 . S
C1569 H1577 0.960 . S
C1570 C1568 1.381 . S
C1570 C1571 1.394 . S
C1570 H1578 0.930 . S
C1571 C1570 1.394 . S
C1571 C1572 1.383 . S
C1571 H1579 0.929 . S
C1572 C1571 1.383 . S
C1572 C1573 1.377 . S
C1573 H1557 0.930 . S
C1573 C1572 1.377 . S
C1573 C1574 1.379 . S
C1574 H1558 0.931 . S
C1574 C1568 1.383 . S
C1574 C1573 1.379 . S
H1575 C1569 0.959 . S
H1576 C1569 0.961 . S
H1577 C1569 0.960 . S
H1578 C1570 0.930 . S
H1579 C1571 0.929 . S
H1580 C1588 0.929 . S
H1581 C1590 0.930 . S
H1582 C1592 0.930 . S
H1583 C1595 0.929 . S
H1584 C1598 0.930 . S
H1585 C1600 0.960 . S
H1586 C1600 0.960 . S
H1587 C1600 0.960 . S
C1588 H1580 0.929 . S
C1588 C1589 1.377 . S
C1588 C1590 1.384 . S
C1589 C1588 1.377 . S
C1589 C1595 1.390 . S
C1590 H1581 0.930 . S
C1590 C1588 1.384 . S
C1590 C1591 1.372 1_565 S
C1591 C1590 1.372 1_545 S
C1591 C1592 1.400 . S
C1591 C1596 1.490 . S
C1592 H1582 0.930 . S
C1592 C1591 1.400 . S
C1592 C1595 1.386 1_545 S
H1593 C1609 0.930 . S
H1594 C1610 0.931 . S
C1595 H1583 0.929 . S
C1595 C1589 1.390 . S
C1595 C1592 1.386 1_565 S
C1596 C1591 1.490 . S
C1596 C1598 1.395 . S
C1596 C1599 1.403 . S
H1597 C1603 0.930 . S
C1598 H1584 0.930 . S
C1598 C1596 1.395 . S
C1598 C1601 1.403 . S
C1599 C1596 1.403 . S
C1599 C1600 1.524 . S
C1599 C1603 1.400 . S
C1600 H1585 0.960 . S
C1600 H1586 0.960 . S
C1600 H1587 0.960 . S
C1600 C1599 1.524 . S
C1601 C1598 1.403 . S
C1601 C1602 1.392 . S
C1601 C1605 1.495 . S
C1602 C1601 1.392 . S
C1602 C1603 1.385 . S
C1602 C1604 1.478 . S
C1603 H1597 0.930 . S
C1603 C1599 1.400 . S
C1603 C1602 1.385 . S
C1604 C1602 1.478 . S
C1604 C1606 1.381 . S
C1604 C1610 1.383 . S
C1605 C1601 1.495 . S
C1605 H1611 0.959 . S
C1605 H1612 0.961 . S
C1605 H1613 0.960 . S
C1606 C1604 1.381 . S
C1606 C1607 1.394 . S
C1606 H1614 0.930 . S
C1607 C1606 1.394 . S
C1607 C1608 1.383 . S
C1607 H1615 0.929 . S
C1608 C1607 1.383 . S
C1608 C1609 1.377 . S
C1609 H1593 0.930 . S
C1609 C1608 1.377 . S
C1609 C1610 1.379 . S
C1610 H1594 0.931 . S
C1610 C1604 1.383 . S
C1610 C1609 1.379 . S
H1611 C1605 0.959 . S
H1612 C1605 0.961 . S
H1613 C1605 0.960 . S
H1614 C1606 0.930 . S
H1615 C1607 0.929 . S
H1616 C1624 0.929 . S
H1617 C1626 0.930 . S
H1618 C1628 0.930 . S
H1619 C1631 0.929 . S
H1620 C1634 0.930 . S
H1621 C1636 0.960 . S
H1622 C1636 0.960 . S
H1623 C1636 0.960 . S
C1624 H1616 0.929 . S
C1624 C1625 1.377 . S
C1624 C1626 1.384 . S
C1625 C1624 1.377 . S
C1625 C1631 1.390 . S
C1626 H1617 0.930 . S
C1626 C1624 1.384 . S
C1626 C1627 1.372 . S
C1627 C1626 1.372 . S
C1627 C1628 1.400 . S
C1627 C1632 1.490 . S
C1628 H1618 0.930 . S
C1628 C1627 1.400 . S
C1628 C1631 1.386 . S
H1629 C1645 0.930 . S
H1630 C1646 0.931 . S
C1631 H1619 0.929 . S
C1631 C1625 1.390 . S
C1631 C1628 1.386 . S
C1632 C1627 1.490 . S
C1632 C1634 1.395 . S
C1632 C1635 1.403 . S
H1633 C1639 0.930 . S
C1634 H1620 0.930 . S
C1634 C1632 1.395 . S
C1634 C1637 1.403 . S
C1635 C1632 1.403 . S
C1635 C1636 1.524 . S
C1635 C1639 1.400 . S
C1636 H1621 0.960 . S
C1636 H1622 0.960 . S
C1636 H1623 0.960 . S
C1636 C1635 1.524 . S
C1637 C1634 1.403 . S
C1637 C1638 1.392 . S
C1637 C1641 1.495 . S
C1638 C1637 1.392 . S
C1638 C1639 1.385 . S
C1638 C1640 1.478 . S
C1639 H1633 0.930 . S
C1639 C1635 1.400 . S
C1639 C1638 1.385 . S
C1640 C1638 1.478 . S
C1640 C1642 1.381 . S
C1640 C1646 1.383 . S
C1641 C1637 1.495 . S
C1641 H1647 0.959 . S
C1641 H1648 0.961 . S
C1641 H1649 0.960 . S
C1642 C1640 1.381 . S
C1642 C1643 1.394 . S
C1642 H1650 0.930 . S
C1643 C1642 1.394 . S
C1643 C1644 1.383 . S
C1643 H1651 0.929 . S
C1644 C1643 1.383 . S
C1644 C1645 1.377 . S
C1645 H1629 0.930 . S
C1645 C1644 1.377 . S
C1645 C1646 1.379 . S
C1646 H1630 0.931 . S
C1646 C1640 1.383 . S
C1646 C1645 1.379 . S
H1647 C1641 0.959 . S
H1648 C1641 0.961 . S
H1649 C1641 0.960 . S
H1650 C1642 0.930 . S
H1651 C1643 0.929 . S
H1652 C1660 0.929 . S
H1653 C1662 0.930 . S
H1654 C1664 0.930 . S
H1655 C1667 0.929 . S
H1656 C1670 0.930 . S
H1657 C1672 0.960 . S
H1658 C1672 0.960 . S
H1659 C1672 0.960 . S
C1660 H1652 0.929 . S
C1660 C1661 1.377 . S
C1660 C1662 1.384 . S
C1661 C1660 1.377 . S
C1661 C1667 1.390 . S
C1662 H1653 0.930 . S
C1662 C1660 1.384 . S
C1662 C1663 1.372 . S
C1663 C1662 1.372 . S
C1663 C1664 1.400 . S
C1663 C1668 1.490 . S
C1664 H1654 0.930 . S
C1664 C1663 1.400 . S
C1664 C1667 1.386 . S
H1665 C1681 0.930 . S
H1666 C1682 0.931 . S
C1667 H1655 0.929 . S
C1667 C1661 1.390 . S
C1667 C1664 1.386 . S
C1668 C1663 1.490 . S
C1668 C1670 1.395 . S
C1668 C1671 1.403 . S
H1669 C1675 0.930 . S
C1670 H1656 0.930 . S
C1670 C1668 1.395 . S
C1670 C1673 1.403 . S
C1671 C1668 1.403 . S
C1671 C1672 1.524 . S
C1671 C1675 1.400 . S
C1672 H1657 0.960 . S
C1672 H1658 0.960 . S
C1672 H1659 0.960 . S
C1672 C1671 1.524 . S
C1673 C1670 1.403 . S
C1673 C1674 1.392 . S
C1673 C1677 1.495 . S
C1674 C1673 1.392 . S
C1674 C1675 1.385 . S
C1674 C1676 1.478 . S
C1675 H1669 0.930 . S
C1675 C1671 1.400 . S
C1675 C1674 1.385 . S
C1676 C1674 1.478 . S
C1676 C1678 1.381 . S
C1676 C1682 1.383 . S
C1677 C1673 1.495 . S
C1677 H1683 0.959 . S
C1677 H1684 0.961 . S
C1677 H1685 0.960 . S
C1678 C1676 1.381 . S
C1678 C1679 1.394 . S
C1678 H1686 0.930 . S
C1679 C1678 1.394 . S
C1679 C1680 1.383 . S
C1679 H1687 0.929 . S
C1680 C1679 1.383 . S
C1680 C1681 1.377 . S
C1681 H1665 0.930 . S
C1681 C1680 1.377 . S
C1681 C1682 1.379 . S
C1682 H1666 0.931 . S
C1682 C1676 1.383 . S
C1682 C1681 1.379 . S
H1683 C1677 0.959 . S
H1684 C1677 0.961 . S
H1685 C1677 0.960 . S
H1686 C1678 0.930 . S
H1687 C1679 0.929 . S
H1688 C1696 0.929 . S
H1689 C1698 0.930 . S
H1690 C1700 0.930 . S
H1691 C1703 0.929 . S
H1692 C1706 0.930 . S
H1693 C1708 0.960 . S
H1694 C1708 0.960 . S
H1695 C1708 0.960 . S
C1696 H1688 0.929 . S
C1696 C1697 1.377 . S
C1696 C1698 1.384 . S
C1697 C1696 1.377 . S
C1697 C1703 1.390 . S
C1698 H1689 0.930 . S
C1698 C1696 1.384 . S
C1698 C1699 1.372 . S
C1699 C1698 1.372 . S
C1699 C1700 1.400 . S
C1699 C1704 1.490 . S
C1700 H1690 0.930 . S
C1700 C1699 1.400 . S
C1700 C1703 1.386 . S
H1701 C1717 0.930 . S
H1702 C1718 0.931 . S
C1703 H1691 0.929 . S
C1703 C1697 1.390 . S
C1703 C1700 1.386 . S
C1704 C1699 1.490 . S
C1704 C1706 1.395 . S
C1704 C1707 1.403 . S
H1705 C1711 0.930 . S
C1706 H1692 0.930 . S
C1706 C1704 1.395 . S
C1706 C1709 1.403 . S
C1707 C1704 1.403 . S
C1707 C1708 1.524 . S
C1707 C1711 1.400 . S
C1708 H1693 0.960 . S
C1708 H1694 0.960 . S
C1708 H1695 0.960 . S
C1708 C1707 1.524 . S
C1709 C1706 1.403 . S
C1709 C1710 1.392 . S
C1709 C1713 1.495 . S
C1710 C1709 1.392 . S
C1710 C1711 1.385 . S
C1710 C1712 1.478 . S
C1711 H1705 0.930 . S
C1711 C1707 1.400 . S
C1711 C1710 1.385 . S
C1712 C1710 1.478 . S
C1712 C1714 1.381 . S
C1712 C1718 1.383 . S
C1713 C1709 1.495 . S
C1713 H1719 0.959 . S
C1713 H1720 0.961 . S
C1713 H1721 0.960 . S
C1714 C1712 1.381 . S
C1714 C1715 1.394 . S
C1714 H1722 0.930 . S
C1715 C1714 1.394 . S
C1715 C1716 1.383 . S
C1715 H1723 0.929 . S
C1716 C1715 1.383 . S
C1716 C1717 1.377 . S
C1717 H1701 0.930 . S
C1717 C1716 1.377 . S
C1717 C1718 1.379 . S
C1718 H1702 0.931 . S
C1718 C1712 1.383 . S
C1718 C1717 1.379 . S
H1719 C1713 0.959 . S
H1720 C1713 0.961 . S
H1721 C1713 0.960 . S
H1722 C1714 0.930 . S
H1723 C1715 0.929 . S
H1724 C1732 0.929 . S
H1725 C1734 0.930 . S
H1726 C1736 0.930 . S
H1727 C1739 0.929 . S
H1728 C1742 0.930 . S
H1729 C1744 0.960 . S
H1730 C1744 0.960 . S
H1731 C1744 0.960 . S
C1732 H1724 0.929 . S
C1732 C1733 1.377 . S
C1732 C1734 1.384 . S
C1733 C1732 1.377 . S
C1733 C1739 1.390 . S
C1734 H1725 0.930 . S
C1734 C1732 1.384 . S
C1734 C1735 1.372 . S
C1735 C1734 1.372 . S
C1735 C1736 1.400 . S
C1735 C1740 1.490 . S
C1736 H1726 0.930 . S
C1736 C1735 1.400 . S
C1736 C1739 1.386 . S
H1737 C1753 0.930 . S
H1738 C1754 0.931 . S
C1739 H1727 0.929 . S
C1739 C1733 1.390 . S
C1739 C1736 1.386 . S
C1740 C1735 1.490 . S
C1740 C1742 1.395 . S
C1740 C1743 1.403 . S
H1741 C1747 0.930 . S
C1742 H1728 0.930 . S
C1742 C1740 1.395 . S
C1742 C1745 1.403 . S
C1743 C1740 1.403 . S
C1743 C1744 1.524 . S
C1743 C1747 1.400 . S
C1744 H1729 0.960 . S
C1744 H1730 0.960 . S
C1744 H1731 0.960 . S
C1744 C1743 1.524 . S
C1745 C1742 1.403 . S
C1745 C1746 1.392 . S
C1745 C1749 1.495 . S
C1746 C1745 1.392 . S
C1746 C1747 1.385 . S
C1746 C1748 1.478 . S
C1747 H1741 0.930 . S
C1747 C1743 1.400 . S
C1747 C1746 1.385 . S
C1748 C1746 1.478 . S
C1748 C1750 1.381 . S
C1748 C1754 1.383 . S
C1749 C1745 1.495 . S
C1749 H1755 0.959 . S
C1749 H1756 0.961 . S
C1749 H1757 0.960 . S
C1750 C1748 1.381 . S
C1750 C1751 1.394 . S
C1750 H1758 0.930 . S
C1751 C1750 1.394 . S
C1751 C1752 1.383 . S
C1751 H1759 0.929 . S
C1752 C1751 1.383 . S
C1752 C1753 1.377 . S
C1753 H1737 0.930 . S
C1753 C1752 1.377 . S
C1753 C1754 1.379 . S
C1754 H1738 0.931 . S
C1754 C1748 1.383 . S
C1754 C1753 1.379 . S
H1755 C1749 0.959 . S
H1756 C1749 0.961 . S
H1757 C1749 0.960 . S
H1758 C1750 0.930 . S
H1759 C1751 0.929 . S
H1760 C1768 0.929 . S
H1761 C1770 0.930 . S
H1762 C1772 0.930 . S
H1763 C1775 0.929 . S
H1764 C1778 0.930 . S
H1765 C1780 0.960 . S
H1766 C1780 0.960 . S
H1767 C1780 0.960 . S
C1768 H1760 0.929 . S
C1768 C1769 1.377 . S
C1768 C1770 1.384 . S
C1769 C1768 1.377 . S
C1769 C1775 1.390 . S
C1770 H1761 0.930 . S
C1770 C1768 1.384 . S
C1770 C1771 1.372 . S
C1771 C1770 1.372 . S
C1771 C1772 1.400 . S
C1771 C1776 1.490 . S
C1772 H1762 0.930 . S
C1772 C1771 1.400 . S
C1772 C1775 1.386 . S
H1773 C1789 0.930 . S
H1774 C1790 0.931 . S
C1775 H1763 0.929 . S
C1775 C1769 1.390 . S
C1775 C1772 1.386 . S
C1776 C1771 1.490 . S
C1776 C1778 1.395 . S
C1776 C1779 1.403 . S
H1777 C1783 0.930 . S
C1778 H1764 0.930 . S
C1778 C1776 1.395 . S
C1778 C1781 1.403 . S
C1779 C1776 1.403 . S
C1779 C1780 1.524 . S
C1779 C1783 1.400 . S
C1780 H1765 0.960 . S
C1780 H1766 0.960 . S
C1780 H1767 0.960 . S
C1780 C1779 1.524 . S
C1781 C1778 1.403 . S
C1781 C1782 1.392 . S
C1781 C1785 1.495 . S
C1782 C1781 1.392 . S
C1782 C1783 1.385 . S
C1782 C1784 1.478 . S
C1783 H1777 0.930 . S
C1783 C1779 1.400 . S
C1783 C1782 1.385 . S
C1784 C1782 1.478 . S
C1784 C1786 1.381 . S
C1784 C1790 1.383 . S
C1785 C1781 1.495 . S
C1785 H1791 0.959 . S
C1785 H1792 0.961 . S
C1785 H1793 0.960 . S
C1786 C1784 1.381 . S
C1786 C1787 1.394 . S
C1786 H1794 0.930 . S
C1787 C1786 1.394 . S
C1787 C1788 1.383 . S
C1787 H1795 0.929 . S
C1788 C1787 1.383 . S
C1788 C1789 1.377 . S
C1789 H1773 0.930 . S
C1789 C1788 1.377 . S
C1789 C1790 1.379 . S
C1790 H1774 0.931 . S
C1790 C1784 1.383 . S
C1790 C1789 1.379 . S
H1791 C1785 0.959 . S
H1792 C1785 0.961 . S
H1793 C1785 0.960 . S
H1794 C1786 0.930 . S
H1795 C1787 0.929 . S
H1796 C1804 0.929 . S
H1797 C1806 0.930 . S
H1798 C1808 0.930 . S
H1799 C1811 0.929 . S
H1800 C1814 0.930 . S
H1801 C1816 0.960 . S
H1802 C1816 0.960 . S
H1803 C1816 0.960 . S
C1804 H1796 0.929 . S
C1804 C1805 1.377 . S
C1804 C1806 1.384 . S
C1805 C1804 1.377 . S
C1805 C1811 1.390 . S
C1806 H1797 0.930 . S
C1806 C1804 1.384 . S
C1806 C1807 1.372 . S
C1807 C1806 1.372 . S
C1807 C1808 1.400 . S
C1807 C1812 1.490 . S
C1808 H1798 0.930 . S
C1808 C1807 1.400 . S
C1808 C1811 1.386 . S
H1809 C1825 0.930 . S
H1810 C1826 0.931 . S
C1811 H1799 0.929 . S
C1811 C1805 1.390 . S
C1811 C1808 1.386 . S
C1812 C1807 1.490 . S
C1812 C1814 1.395 . S
C1812 C1815 1.403 . S
H1813 C1819 0.930 . S
C1814 H1800 0.930 . S
C1814 C1812 1.395 . S
C1814 C1817 1.403 . S
C1815 C1812 1.403 . S
C1815 C1816 1.524 . S
C1815 C1819 1.400 . S
C1816 H1801 0.960 . S
C1816 H1802 0.960 . S
C1816 H1803 0.960 . S
C1816 C1815 1.524 . S
C1817 C1814 1.403 . S
C1817 C1818 1.392 . S
C1817 C1821 1.495 . S
C1818 C1817 1.392 . S
C1818 C1819 1.385 . S
C1818 C1820 1.478 . S
C1819 H1813 0.930 . S
C1819 C1815 1.400 . S
C1819 C1818 1.385 . S
C1820 C1818 1.478 . S
C1820 C1822 1.381 . S
C1820 C1826 1.383 . S
C1821 C1817 1.495 . S
C1821 H1827 0.959 . S
C1821 H1828 0.961 . S
C1821 H1829 0.960 . S
C1822 C1820 1.381 . S
C1822 C1823 1.394 . S
C1822 H1830 0.930 . S
C1823 C1822 1.394 . S
C1823 C1824 1.383 . S
C1823 H1831 0.929 . S
C1824 C1823 1.383 . S
C1824 C1825 1.377 . S
C1825 H1809 0.930 . S
C1825 C1824 1.377 . S
C1825 C1826 1.379 . S
C1826 H1810 0.931 . S
C1826 C1820 1.383 . S
C1826 C1825 1.379 . S
H1827 C1821 0.959 . S
H1828 C1821 0.961 . S
H1829 C1821 0.960 . S
H1830 C1822 0.930 . S
H1831 C1823 0.929 . S
H1832 C1840 0.929 . S
H1833 C1842 0.930 . S
H1834 C1844 0.930 . S
H1835 C1847 0.929 . S
H1836 C1850 0.930 . S
H1837 C1852 0.960 . S
H1838 C1852 0.960 . S
H1839 C1852 0.960 . S
C1840 H1832 0.929 . S
C1840 C1841 1.377 . S
C1840 C1842 1.384 . S
C1841 C1840 1.377 . S
C1841 C1847 1.390 . S
C1842 H1833 0.930 . S
C1842 C1840 1.384 . S
C1842 C1843 1.372 . S
C1843 C1842 1.372 . S
C1843 C1844 1.400 . S
C1843 C1848 1.490 . S
C1844 H1834 0.930 . S
C1844 C1843 1.400 . S
C1844 C1847 1.386 . S
H1845 C1861 0.930 . S
H1846 C1862 0.931 . S
C1847 H1835 0.929 . S
C1847 C1841 1.390 . S
C1847 C1844 1.386 . S
C1848 C1843 1.490 . S
C1848 C1850 1.395 . S
C1848 C1851 1.403 . S
H1849 C1855 0.930 . S
C1850 H1836 0.930 . S
C1850 C1848 1.395 . S
C1850 C1853 1.403 . S
C1851 C1848 1.403 . S
C1851 C1852 1.524 . S
C1851 C1855 1.400 . S
C1852 H1837 0.960 . S
C1852 H1838 0.960 . S
C1852 H1839 0.960 . S
C1852 C1851 1.524 . S
C1853 C1850 1.403 . S
C1853 C1854 1.392 . S
C1853 C1857 1.495 . S
C1854 C1853 1.392 . S
C1854 C1855 1.385 . S
C1854 C1856 1.478 . S
C1855 H1849 0.930 . S
C1855 C1851 1.400 . S
C1855 C1854 1.385 . S
C1856 C1854 1.478 . S
C1856 C1858 1.381 . S
C1856 C1862 1.383 . S
C1857 C1853 1.495 . S
C1857 H1863 0.959 . S
C1857 H1864 0.961 . S
C1857 H1865 0.960 . S
C1858 C1856 1.381 . S
C1858 C1859 1.394 . S
C1858 H1866 0.930 . S
C1859 C1858 1.394 . S
C1859 C1860 1.383 . S
C1859 H1867 0.929 . S
C1860 C1859 1.383 . S
C1860 C1861 1.377 . S
C1861 H1845 0.930 . S
C1861 C1860 1.377 . S
C1861 C1862 1.379 . S
C1862 H1846 0.931 . S
C1862 C1856 1.383 . S
C1862 C1861 1.379 . S
H1863 C1857 0.959 . S
H1864 C1857 0.961 . S
H1865 C1857 0.960 . S
H1866 C1858 0.930 . S
H1867 C1859 0.929 . S
H1868 C1876 0.929 . S
H1869 C1878 0.930 . S
H1870 C1880 0.930 . S
H1871 C1883 0.929 . S
H1872 C1886 0.930 . S
H1873 C1888 0.960 . S
H1874 C1888 0.960 . S
H1875 C1888 0.960 . S
C1876 H1868 0.929 . S
C1876 C1877 1.377 . S
C1876 C1878 1.384 . S
C1877 C1876 1.377 . S
C1877 C1883 1.390 . S
C1878 H1869 0.930 . S
C1878 C1876 1.384 . S
C1878 C1879 1.372 . S
C1879 C1878 1.372 . S
C1879 C1880 1.400 . S
C1879 C1884 1.490 . S
C1880 H1870 0.930 . S
C1880 C1879 1.400 . S
C1880 C1883 1.386 . S
H1881 C1897 0.930 . S
H1882 C1898 0.931 . S
C1883 H1871 0.929 . S
C1883 C1877 1.390 . S
C1883 C1880 1.386 . S
C1884 C1879 1.490 . S
C1884 C1886 1.395 . S
C1884 C1887 1.403 . S
H1885 C1891 0.930 . S
C1886 H1872 0.930 . S
C1886 C1884 1.395 . S
C1886 C1889 1.403 . S
C1887 C1884 1.403 . S
C1887 C1888 1.524 . S
C1887 C1891 1.400 . S
C1888 H1873 0.960 . S
C1888 H1874 0.960 . S
C1888 H1875 0.960 . S
C1888 C1887 1.524 . S
C1889 C1886 1.403 . S
C1889 C1890 1.392 . S
C1889 C1893 1.495 . S
C1890 C1889 1.392 . S
C1890 C1891 1.385 . S
C1890 C1892 1.478 . S
C1891 H1885 0.930 . S
C1891 C1887 1.400 . S
C1891 C1890 1.385 . S
C1892 C1890 1.478 . S
C1892 C1894 1.381 . S
C1892 C1898 1.383 . S
C1893 C1889 1.495 . S
C1893 H1899 0.959 . S
C1893 H1900 0.961 . S
C1893 H1901 0.960 . S
C1894 C1892 1.381 . S
C1894 C1895 1.394 . S
C1894 H1902 0.930 . S
C1895 C1894 1.394 . S
C1895 C1896 1.383 . S
C1895 H1903 0.929 . S
C1896 C1895 1.383 . S
C1896 C1897 1.377 . S
C1897 H1881 0.930 . S
C1897 C1896 1.377 . S
C1897 C1898 1.379 . S
C1898 H1882 0.931 . S
C1898 C1892 1.383 . S
C1898 C1897 1.379 . S
H1899 C1893 0.959 . S
H1900 C1893 0.961 . S
H1901 C1893 0.960 . S
H1902 C1894 0.930 . S
H1903 C1895 0.929 . S
H1904 C1912 0.929 . S
H1905 C1914 0.930 . S
H1906 C1916 0.930 . S
H1907 C1919 0.929 . S
H1908 C1922 0.930 . S
H1909 C1924 0.960 . S
H1910 C1924 0.960 . S
H1911 C1924 0.960 . S
C1912 H1904 0.929 . S
C1912 C1913 1.377 . S
C1912 C1914 1.384 . S
C1913 C1912 1.377 . S
C1913 C1919 1.390 . S
C1914 H1905 0.930 . S
C1914 C1912 1.384 . S
C1914 C1915 1.372 . S
C1915 C1914 1.372 . S
C1915 C1916 1.400 . S
C1915 C1920 1.490 . S
C1916 H1906 0.930 . S
C1916 C1915 1.400 . S
C1916 C1919 1.386 . S
H1917 C1933 0.930 . S
H1918 C1934 0.931 . S
C1919 H1907 0.929 . S
C1919 C1913 1.390 . S
C1919 C1916 1.386 . S
C1920 C1915 1.490 . S
C1920 C1922 1.395 . S
C1920 C1923 1.403 . S
H1921 C1927 0.930 . S
C1922 H1908 0.930 . S
C1922 C1920 1.395 . S
C1922 C1925 1.403 . S
C1923 C1920 1.403 . S
C1923 C1924 1.524 . S
C1923 C1927 1.400 . S
C1924 H1909 0.960 . S
C1924 H1910 0.960 . S
C1924 H1911 0.960 . S
C1924 C1923 1.524 . S
C1925 C1922 1.403 . S
C1925 C1926 1.392 . S
C1925 C1929 1.495 . S
C1926 C1925 1.392 . S
C1926 C1927 1.385 . S
C1926 C1928 1.478 . S
C1927 H1921 0.930 . S
C1927 C1923 1.400 . S
C1927 C1926 1.385 . S
C1928 C1926 1.478 . S
C1928 C1930 1.381 . S
C1928 C1934 1.383 . S
C1929 C1925 1.495 . S
C1929 H1935 0.959 . S
C1929 H1936 0.961 . S
C1929 H1937 0.960 . S
C1930 C1928 1.381 . S
C1930 C1931 1.394 . S
C1930 H1938 0.930 . S
C1931 C1930 1.394 . S
C1931 C1932 1.383 . S
C1931 H1939 0.929 . S
C1932 C1931 1.383 . S
C1932 C1933 1.377 . S
C1933 H1917 0.930 . S
C1933 C1932 1.377 . S
C1933 C1934 1.379 . S
C1934 H1918 0.931 . S
C1934 C1928 1.383 . S
C1934 C1933 1.379 . S
H1935 C1929 0.959 . S
H1936 C1929 0.961 . S
H1937 C1929 0.960 . S
H1938 C1930 0.930 . S
H1939 C1931 0.929 . S
H1940 C1948 0.929 . S
H1941 C1950 0.930 . S
H1942 C1952 0.930 . S
H1943 C1955 0.929 . S
H1944 C1958 0.930 . S
H1945 C1960 0.960 . S
H1946 C1960 0.960 . S
H1947 C1960 0.960 . S
C1948 H1940 0.929 . S
C1948 C1949 1.377 . S
C1948 C1950 1.384 . S
C1949 C1948 1.377 . S
C1949 C1955 1.390 . S
C1950 H1941 0.930 . S
C1950 C1948 1.384 . S
C1950 C1951 1.372 . S
C1951 C1950 1.372 . S
C1951 C1952 1.400 . S
C1951 C1956 1.490 . S
C1952 H1942 0.930 . S
C1952 C1951 1.400 . S
C1952 C1955 1.386 . S
H1953 C1969 0.930 . S
H1954 C1970 0.931 . S
C1955 H1943 0.929 . S
C1955 C1949 1.390 . S
C1955 C1952 1.386 . S
C1956 C1951 1.490 . S
C1956 C1958 1.395 . S
C1956 C1959 1.403 . S
H1957 C1963 0.930 . S
C1958 H1944 0.930 . S
C1958 C1956 1.395 . S
C1958 C1961 1.403 . S
C1959 C1956 1.403 . S
C1959 C1960 1.524 . S
C1959 C1963 1.400 . S
C1960 H1945 0.960 . S
C1960 H1946 0.960 . S
C1960 H1947 0.960 . S
C1960 C1959 1.524 . S
C1961 C1958 1.403 . S
C1961 C1962 1.392 . S
C1961 C1965 1.495 . S
C1962 C1961 1.392 . S
C1962 C1963 1.385 . S
C1962 C1964 1.478 . S
C1963 H1957 0.930 . S
C1963 C1959 1.400 . S
C1963 C1962 1.385 . S
C1964 C1962 1.478 . S
C1964 C1966 1.381 . S
C1964 C1970 1.383 . S
C1965 C1961 1.495 . S
C1965 H1971 0.959 . S
C1965 H1972 0.961 . S
C1965 H1973 0.960 . S
C1966 C1964 1.381 . S
C1966 C1967 1.394 . S
C1966 H1974 0.930 . S
C1967 C1966 1.394 . S
C1967 C1968 1.383 . S
C1967 H1975 0.929 . S
C1968 C1967 1.383 . S
C1968 C1969 1.377 . S
C1969 H1953 0.930 . S
C1969 C1968 1.377 . S
C1969 C1970 1.379 . S
C1970 H1954 0.931 . S
C1970 C1964 1.383 . S
C1970 C1969 1.379 . S
H1971 C1965 0.959 . S
H1972 C1965 0.961 . S
H1973 C1965 0.960 . S
H1974 C1966 0.930 . S
H1975 C1967 0.929 . S
H1976 C1984 0.929 . S
H1977 C1986 0.930 . S
H1978 C1988 0.930 . S
H1979 C1991 0.929 . S
H1980 C1994 0.930 . S
H1981 C1996 0.960 . S
H1982 C1996 0.960 . S
H1983 C1996 0.960 . S
C1984 H1976 0.929 . S
C1984 C1985 1.377 . S
C1984 C1986 1.384 . S
C1985 C1984 1.377 . S
C1985 C1991 1.390 . S
C1986 H1977 0.930 . S
C1986 C1984 1.384 . S
C1986 C1987 1.372 . S
C1987 C1986 1.372 . S
C1987 C1988 1.400 . S
C1987 C1992 1.490 . S
C1988 H1978 0.930 . S
C1988 C1987 1.400 . S
C1988 C1991 1.386 . S
H1989 C2005 0.930 . S
H1990 C2006 0.931 . S
C1991 H1979 0.929 . S
C1991 C1985 1.390 . S
C1991 C1988 1.386 . S
C1992 C1987 1.490 . S
C1992 C1994 1.395 . S
C1992 C1995 1.403 . S
H1993 C1999 0.930 . S
C1994 H1980 0.930 . S
C1994 C1992 1.395 . S
C1994 C1997 1.403 . S
C1995 C1992 1.403 . S
C1995 C1996 1.524 . S
C1995 C1999 1.400 . S
C1996 H1981 0.960 . S
C1996 H1982 0.960 . S
C1996 H1983 0.960 . S
C1996 C1995 1.524 . S
C1997 C1994 1.403 . S
C1997 C1998 1.392 . S
C1997 C2001 1.495 . S
C1998 C1997 1.392 . S
C1998 C1999 1.385 . S
C1998 C2000 1.478 . S
C1999 H1993 0.930 . S
C1999 C1995 1.400 . S
C1999 C1998 1.385 . S
C2000 C1998 1.478 . S
C2000 C2002 1.381 . S
C2000 C2006 1.383 . S
C2001 C1997 1.495 . S
C2001 H2007 0.959 . S
C2001 H2008 0.961 . S
C2001 H2009 0.960 . S
C2002 C2000 1.381 . S
C2002 C2003 1.394 . S
C2002 H2010 0.930 . S
C2003 C2002 1.394 . S
C2003 C2004 1.383 . S
C2003 H2011 0.929 . S
C2004 C2003 1.383 . S
C2004 C2005 1.377 . S
C2005 H1989 0.930 . S
C2005 C2004 1.377 . S
C2005 C2006 1.379 . S
C2006 H1990 0.931 . S
C2006 C2000 1.383 . S
C2006 C2005 1.379 . S
H2007 C2001 0.959 . S
H2008 C2001 0.961 . S
H2009 C2001 0.960 . S
H2010 C2002 0.930 . S
H2011 C2003 0.929 . S
H2012 C2020 0.929 . S
H2013 C2022 0.930 . S
H2014 C2024 0.930 . S
H2015 C2027 0.929 . S
H2016 C2030 0.930 . S
H2017 C2032 0.960 . S
H2018 C2032 0.960 . S
H2019 C2032 0.960 . S
C2020 H2012 0.929 . S
C2020 C2021 1.377 . S
C2020 C2022 1.384 . S
C2021 C2020 1.377 . S
C2021 C2027 1.390 . S
C2022 H2013 0.930 . S
C2022 C2020 1.384 . S
C2022 C2023 1.372 . S
C2023 C2022 1.372 . S
C2023 C2024 1.400 . S
C2023 C2028 1.490 . S
C2024 H2014 0.930 . S
C2024 C2023 1.400 . S
C2024 C2027 1.386 . S
H2025 C2041 0.930 . S
H2026 C2042 0.931 . S
C2027 H2015 0.929 . S
C2027 C2021 1.390 . S
C2027 C2024 1.386 . S
C2028 C2023 1.490 . S
C2028 C2030 1.395 . S
C2028 C2031 1.403 . S
H2029 C2035 0.930 . S
C2030 H2016 0.930 . S
C2030 C2028 1.395 . S
C2030 C2033 1.403 . S
C2031 C2028 1.403 . S
C2031 C2032 1.524 . S
C2031 C2035 1.400 . S
C2032 H2017 0.960 . S
C2032 H2018 0.960 . S
C2032 H2019 0.960 . S
C2032 C2031 1.524 . S
C2033 C2030 1.403 . S
C2033 C2034 1.392 . S
C2033 C2037 1.495 . S
C2034 C2033 1.392 . S
C2034 C2035 1.385 . S
C2034 C2036 1.478 . S
C2035 H2029 0.930 . S
C2035 C2031 1.400 . S
C2035 C2034 1.385 . S
C2036 C2034 1.478 . S
C2036 C2038 1.381 . S
C2036 C2042 1.383 . S
C2037 C2033 1.495 . S
C2037 H2043 0.959 . S
C2037 H2044 0.961 . S
C2037 H2045 0.960 . S
C2038 C2036 1.381 . S
C2038 C2039 1.394 . S
C2038 H2046 0.930 . S
C2039 C2038 1.394 . S
C2039 C2040 1.383 . S
C2039 H2047 0.929 . S
C2040 C2039 1.383 . S
C2040 C2041 1.377 . S
C2041 H2025 0.930 . S
C2041 C2040 1.377 . S
C2041 C2042 1.379 . S
C2042 H2026 0.931 . S
C2042 C2036 1.383 . S
C2042 C2041 1.379 . S
H2043 C2037 0.959 . S
H2044 C2037 0.961 . S
H2045 C2037 0.960 . S
H2046 C2038 0.930 . S
H2047 C2039 0.929 . S
H2048 C2056 0.929 . S
H2049 C2058 0.930 . S
H2050 C2060 0.930 . S
H2051 C2063 0.929 . S
H2052 C2066 0.930 . S
H2053 C2068 0.960 . S
H2054 C2068 0.960 . S
H2055 C2068 0.960 . S
C2056 H2048 0.929 . S
C2056 C2057 1.377 . S
C2056 C2058 1.384 . S
C2057 C2056 1.377 . S
C2057 C2063 1.390 . S
C2058 H2049 0.930 . S
C2058 C2056 1.384 . S
C2058 C2059 1.372 . S
C2059 C2058 1.372 . S
C2059 C2060 1.400 . S
C2059 C2064 1.490 . S
C2060 H2050 0.930 . S
C2060 C2059 1.400 . S
C2060 C2063 1.386 . S
H2061 C2077 0.930 . S
H2062 C2078 0.931 . S
C2063 H2051 0.929 . S
C2063 C2057 1.390 . S
C2063 C2060 1.386 . S
C2064 C2059 1.490 . S
C2064 C2066 1.395 . S
C2064 C2067 1.403 . S
H2065 C2071 0.930 . S
C2066 H2052 0.930 . S
C2066 C2064 1.395 . S
C2066 C2069 1.403 . S
C2067 C2064 1.403 . S
C2067 C2068 1.524 . S
C2067 C2071 1.400 . S
C2068 H2053 0.960 . S
C2068 H2054 0.960 . S
C2068 H2055 0.960 . S
C2068 C2067 1.524 . S
C2069 C2066 1.403 . S
C2069 C2070 1.392 . S
C2069 C2073 1.495 . S
C2070 C2069 1.392 . S
C2070 C2071 1.385 . S
C2070 C2072 1.478 . S
C2071 H2065 0.930 . S
C2071 C2067 1.400 . S
C2071 C2070 1.385 . S
C2072 C2070 1.478 . S
C2072 C2074 1.381 . S
C2072 C2078 1.383 . S
C2073 C2069 1.495 . S
C2073 H2079 0.959 . S
C2073 H2080 0.961 . S
C2073 H2081 0.960 . S
C2074 C2072 1.381 . S
C2074 C2075 1.394 . S
C2074 H2082 0.930 . S
C2075 C2074 1.394 . S
C2075 C2076 1.383 . S
C2075 H2083 0.929 . S
C2076 C2075 1.383 . S
C2076 C2077 1.377 . S
C2077 H2061 0.930 . S
C2077 C2076 1.377 . S
C2077 C2078 1.379 . S
C2078 H2062 0.931 . S
C2078 C2072 1.383 . S
C2078 C2077 1.379 . S
H2079 C2073 0.959 . S
H2080 C2073 0.961 . S
H2081 C2073 0.960 . S
H2082 C2074 0.930 . S
H2083 C2075 0.929 . S
H2084 C2092 0.929 . S
H2085 C2094 0.930 . S
H2086 C2096 0.930 . S
H2087 C2099 0.929 . S
H2088 C2102 0.930 . S
H2089 C2104 0.960 . S
H2090 C2104 0.960 . S
H2091 C2104 0.960 . S
C2092 H2084 0.929 . S
C2092 C2093 1.377 . S
C2092 C2094 1.384 . S
C2093 C2092 1.377 . S
C2093 C2099 1.390 . S
C2094 H2085 0.930 . S
C2094 C2092 1.384 . S
C2094 C2095 1.372 . S
C2095 C2094 1.372 . S
C2095 C2096 1.400 . S
C2095 C2100 1.490 . S
C2096 H2086 0.930 . S
C2096 C2095 1.400 . S
C2096 C2099 1.386 . S
H2097 C2113 0.930 . S
H2098 C2114 0.931 . S
C2099 H2087 0.929 . S
C2099 C2093 1.390 . S
C2099 C2096 1.386 . S
C2100 C2095 1.490 . S
C2100 C2102 1.395 . S
C2100 C2103 1.403 . S
H2101 C2107 0.930 . S
C2102 H2088 0.930 . S
C2102 C2100 1.395 . S
C2102 C2105 1.403 . S
C2103 C2100 1.403 . S
C2103 C2104 1.524 . S
C2103 C2107 1.400 . S
C2104 H2089 0.960 . S
C2104 H2090 0.960 . S
C2104 H2091 0.960 . S
C2104 C2103 1.524 . S
C2105 C2102 1.403 . S
C2105 C2106 1.392 . S
C2105 C2109 1.495 . S
C2106 C2105 1.392 . S
C2106 C2107 1.385 . S
C2106 C2108 1.478 . S
C2107 H2101 0.930 . S
C2107 C2103 1.400 . S
C2107 C2106 1.385 . S
C2108 C2106 1.478 . S
C2108 C2110 1.381 . S
C2108 C2114 1.383 . S
C2109 C2105 1.495 . S
C2109 H2115 0.959 . S
C2109 H2116 0.961 . S
C2109 H2117 0.960 . S
C2110 C2108 1.381 . S
C2110 C2111 1.394 . S
C2110 H2118 0.930 . S
C2111 C2110 1.394 . S
C2111 C2112 1.383 . S
C2111 H2119 0.929 . S
C2112 C2111 1.383 . S
C2112 C2113 1.377 . S
C2113 H2097 0.930 . S
C2113 C2112 1.377 . S
C2113 C2114 1.379 . S
C2114 H2098 0.931 . S
C2114 C2108 1.383 . S
C2114 C2113 1.379 . S
H2115 C2109 0.959 . S
H2116 C2109 0.961 . S
H2117 C2109 0.960 . S
H2118 C2110 0.930 . S
H2119 C2111 0.929 . S
H2120 C2128 0.929 . S
H2121 C2130 0.930 . S
H2122 C2132 0.930 . S
H2123 C2135 0.929 . S
H2124 C2138 0.930 . S
H2125 C2140 0.960 . S
H2126 C2140 0.960 . S
H2127 C2140 0.960 . S
C2128 H2120 0.929 . S
C2128 C2129 1.377 . S
C2128 C2130 1.384 . S
C2129 C2128 1.377 . S
C2129 C2135 1.390 . S
C2130 H2121 0.930 . S
C2130 C2128 1.384 . S
C2130 C2131 1.372 . S
C2131 C2130 1.372 . S
C2131 C2132 1.400 . S
C2131 C2136 1.490 . S
C2132 H2122 0.930 . S
C2132 C2131 1.400 . S
C2132 C2135 1.386 . S
H2133 C2149 0.930 . S
H2134 C2150 0.931 . S
C2135 H2123 0.929 . S
C2135 C2129 1.390 . S
C2135 C2132 1.386 . S
C2136 C2131 1.490 . S
C2136 C2138 1.395 . S
C2136 C2139 1.403 . S
H2137 C2143 0.930 . S
C2138 H2124 0.930 . S
C2138 C2136 1.395 . S
C2138 C2141 1.403 . S
C2139 C2136 1.403 . S
C2139 C2140 1.524 . S
C2139 C2143 1.400 . S
C2140 H2125 0.960 . S
C2140 H2126 0.960 . S
C2140 H2127 0.960 . S
C2140 C2139 1.524 . S
C2141 C2138 1.403 . S
C2141 C2142 1.392 . S
C2141 C2145 1.495 . S
C2142 C2141 1.392 . S
C2142 C2143 1.385 . S
C2142 C2144 1.478 . S
C2143 H2137 0.930 . S
C2143 C2139 1.400 . S
C2143 C2142 1.385 . S
C2144 C2142 1.478 . S
C2144 C2146 1.381 . S
C2144 C2150 1.383 . S
C2145 C2141 1.495 . S
C2145 H2151 0.959 . S
C2145 H2152 0.961 . S
C2145 H2153 0.960 . S
C2146 C2144 1.381 . S
C2146 C2147 1.394 . S
C2146 H2154 0.930 . S
C2147 C2146 1.394 . S
C2147 C2148 1.383 . S
C2147 H2155 0.929 . S
C2148 C2147 1.383 . S
C2148 C2149 1.377 . S
C2149 H2133 0.930 . S
C2149 C2148 1.377 . S
C2149 C2150 1.379 . S
C2150 H2134 0.931 . S
C2150 C2144 1.383 . S
C2150 C2149 1.379 . S
H2151 C2145 0.959 . S
H2152 C2145 0.961 . S
H2153 C2145 0.960 . S
H2154 C2146 0.930 . S
H2155 C2147 0.929 . S
H2156 C2164 0.929 . S
H2157 C2166 0.930 . S
H2158 C2168 0.930 . S
H2159 C2171 0.929 . S
H2160 C2174 0.930 . S
H2161 C2176 0.960 . S
H2162 C2176 0.960 . S
H2163 C2176 0.960 . S
C2164 H2156 0.929 . S
C2164 C2165 1.377 . S
C2164 C2166 1.384 . S
C2165 C2164 1.377 . S
C2165 C2171 1.390 . S
C2166 H2157 0.930 . S
C2166 C2164 1.384 . S
C2166 C2167 1.372 . S
C2167 C2166 1.372 . S
C2167 C2168 1.400 . S
C2167 C2172 1.490 . S
C2168 H2158 0.930 . S
C2168 C2167 1.400 . S
C2168 C2171 1.386 . S
H2169 C2185 0.930 . S
H2170 C2186 0.931 . S
C2171 H2159 0.929 . S
C2171 C2165 1.390 . S
C2171 C2168 1.386 . S
C2172 C2167 1.490 . S
C2172 C2174 1.395 . S
C2172 C2175 1.403 . S
H2173 C2179 0.930 . S
C2174 H2160 0.930 . S
C2174 C2172 1.395 . S
C2174 C2177 1.403 . S
C2175 C2172 1.403 . S
C2175 C2176 1.524 . S
C2175 C2179 1.400 . S
C2176 H2161 0.960 . S
C2176 H2162 0.960 . S
C2176 H2163 0.960 . S
C2176 C2175 1.524 . S
C2177 C2174 1.403 . S
C2177 C2178 1.392 . S
C2177 C2181 1.495 . S
C2178 C2177 1.392 . S
C2178 C2179 1.385 . S
C2178 C2180 1.478 . S
C2179 H2173 0.930 . S
C2179 C2175 1.400 . S
C2179 C2178 1.385 . S
C2180 C2178 1.478 . S
C2180 C2182 1.381 . S
C2180 C2186 1.383 . S
C2181 C2177 1.495 . S
C2181 H2187 0.959 . S
C2181 H2188 0.961 . S
C2181 H2189 0.960 . S
C2182 C2180 1.381 . S
C2182 C2183 1.394 . S
C2182 H2190 0.930 . S
C2183 C2182 1.394 . S
C2183 C2184 1.383 . S
C2183 H2191 0.929 . S
C2184 C2183 1.383 . S
C2184 C2185 1.377 . S
C2185 H2169 0.930 . S
C2185 C2184 1.377 . S
C2185 C2186 1.379 . S
C2186 H2170 0.931 . S
C2186 C2180 1.383 . S
C2186 C2185 1.379 . S
H2187 C2181 0.959 . S
H2188 C2181 0.961 . S
H2189 C2181 0.960 . S
H2190 C2182 0.930 . S
H2191 C2183 0.929 . S
C1068 C961 1.475 . S
C1049 C11 0.959 . S
C1085 C143 1.143 . S
C1104 C993 1.404 . S
C1121 C283 1.152 . S
C1140 C1016 1.570 . S
C1176 C920 1.347 . S
C1157 C343 1.060 . S
C1212 C1003 1.413 . S
C1193 C55 1.092 . S
C1248 C1032 1.176 . S
C1229 C115 1.042 . S
C1284 C936 1.308 . S
C1265 C239 0.943 . S
C1320 C971 1.229 . S
C1301 C371 1.091 . S
C1337 C29 1.134 . S
C1356 C999 1.224 . S
C1373 C467 0.863 . S
C1392 C974 1.357 . S
C1409 C229 0.972 . S
C1428 C942 1.102 . S
C1464 C1031 1.397 . S
C1445 C625 1.136 . S
C1500 C975 1.317 . S
C1481 C1 1.040 . S
C1517 C511 1.153 . S
C1536 C943 1.536 . S
C1553 C257 1.138 . S
C1572 C1030 1.380 . S
C1608 C998 1.491 . S
C1589 C581 0.883 . S
C1625 C713 1.132 . S
C1644 C1025 1.391 . S
C1661 C485 1.113 . S
C1680 C929 1.370 . S
C1697 C799 1.065 . S
C1716 C952 1.302 . S
C1733 C571 1.047 . S
C1752 C984 1.316 . S
C1788 C939 1.138 . S
C1769 C685 1.056 . S
C1805 C457 1.042 . S
C1824 C968 1.136 . S
C1841 C827 1.076 . S
C1860 C1000 1.212 . S
C1896 C1035 1.290 . S
C1877 C599 1.091 . S
C1913 C695 0.854 . S
C1932 C935 1.345 . S
C1949 C125 0.838 . S
C1968 C1038 1.288 . S
C1985 C853 1.136 . S
C2004 C1006 1.378 . S
C2040 C967 1.409 . S
C2021 C397 1.157 . S
C2076 C1039 1.541 . S
C2057 C739 1.159 . S
C2112 C1007 1.515 . S
C2093 C169 1.173 . S
C2148 C966 1.487 . S
C2129 C809 0.880 . S
C2184 C934 1.497 . S
C2165 C353 0.889 . S
