# Generated by pormake.
# Topology wbl, (4,4)-cn, num edge types: 1
# Building blocks:
#     Node 0, Type 0, BuildingBlock: MIFKUJ_clean_linker_1, # of connection points: 4
#     Node 1, Type 0, BuildingBlock: MIFKUJ_clean_linker_1, # of connection points: 4
#     Node 2, Type 0, BuildingBlock: MIFKUJ_clean_linker_1, # of connection points: 4
#     Node 3, Type 0, BuildingBlock: MIFKUJ_clean_linker_1, # of connection points: 4
#     Node 4, Type 0, BuildingBlock: MIFKUJ_clean_linker_1, # of connection points: 4
#     Node 5, Type 0, BuildingBlock: MIFKUJ_clean_linker_1, # of connection points: 4
#     Node 6, Type 0, BuildingBlock: MIFKUJ_clean_linker_1, # of connection points: 4
#     Node 7, Type 0, BuildingBlock: MIFKUJ_clean_linker_1, # of connection points: 4
#     Node 8, Type 1, BuildingBlock: TATPOV_clean_sbu_0, # of connection points: 4
#     Node 9, Type 1, BuildingBlock: TATPOV_clean_sbu_0, # of connection points: 4
#     Node 10, Type 1, BuildingBlock: TATPOV_clean_sbu_0, # of connection points: 4
#     Node 11, Type 1, BuildingBlock: TATPOV_clean_sbu_0, # of connection points: 4
#     Node 12, Type 1, BuildingBlock: TATPOV_clean_sbu_0, # of connection points: 4
#     Node 13, Type 1, BuildingBlock: TATPOV_clean_sbu_0, # of connection points: 4
#     Node 14, Type 1, BuildingBlock: TATPOV_clean_sbu_0, # of connection points: 4
#     Node 15, Type 1, BuildingBlock: TATPOV_clean_sbu_0, # of connection points: 4
#     Edge 16, Type (0, 1), BuildingBlock: KIFKEQ_clean_linker_1, # of connection points: 2
#     Edge 17, Type (0, 1), BuildingBlock: KIFKEQ_clean_linker_1, # of connection points: 2
#     Edge 18, Type (0, 1), BuildingBlock: KIFKEQ_clean_linker_1, # of connection points: 2
#     Edge 19, Type (0, 1), BuildingBlock: KIFKEQ_clean_linker_1, # of connection points: 2
#     Edge 20, Type (0, 1), BuildingBlock: KIFKEQ_clean_linker_1, # of connection points: 2
#     Edge 21, Type (0, 1), BuildingBlock: KIFKEQ_clean_linker_1, # of connection points: 2
#     Edge 22, Type (0, 1), BuildingBlock: KIFKEQ_clean_linker_1, # of connection points: 2
#     Edge 23, Type (0, 1), BuildingBlock: KIFKEQ_clean_linker_1, # of connection points: 2
#     Edge 24, Type (0, 1), BuildingBlock: KIFKEQ_clean_linker_1, # of connection points: 2
#     Edge 25, Type (0, 1), BuildingBlock: KIFKEQ_clean_linker_1, # of connection points: 2
#     Edge 26, Type (0, 1), BuildingBlock: KIFKEQ_clean_linker_1, # of connection points: 2
#     Edge 27, Type (0, 1), BuildingBlock: KIFKEQ_clean_linker_1, # of connection points: 2
#     Edge 28, Type (0, 1), BuildingBlock: KIFKEQ_clean_linker_1, # of connection points: 2
#     Edge 29, Type (0, 1), BuildingBlock: KIFKEQ_clean_linker_1, # of connection points: 2
#     Edge 30, Type (0, 1), BuildingBlock: KIFKEQ_clean_linker_1, # of connection points: 2
#     Edge 31, Type (0, 1), BuildingBlock: KIFKEQ_clean_linker_1, # of connection points: 2
#     Edge 32, Type (0, 1), BuildingBlock: KIFKEQ_clean_linker_1, # of connection points: 2
#     Edge 33, Type (0, 1), BuildingBlock: KIFKEQ_clean_linker_1, # of connection points: 2
#     Edge 34, Type (0, 1), BuildingBlock: KIFKEQ_clean_linker_1, # of connection points: 2
#     Edge 35, Type (0, 1), BuildingBlock: KIFKEQ_clean_linker_1, # of connection points: 2
#     Edge 36, Type (0, 1), BuildingBlock: KIFKEQ_clean_linker_1, # of connection points: 2
#     Edge 37, Type (0, 1), BuildingBlock: KIFKEQ_clean_linker_1, # of connection points: 2
#     Edge 38, Type (0, 1), BuildingBlock: KIFKEQ_clean_linker_1, # of connection points: 2
#     Edge 39, Type (0, 1), BuildingBlock: KIFKEQ_clean_linker_1, # of connection points: 2
#     Edge 40, Type (0, 1), BuildingBlock: KIFKEQ_clean_linker_1, # of connection points: 2
#     Edge 41, Type (0, 1), BuildingBlock: KIFKEQ_clean_linker_1, # of connection points: 2
#     Edge 42, Type (0, 1), BuildingBlock: KIFKEQ_clean_linker_1, # of connection points: 2
#     Edge 43, Type (0, 1), BuildingBlock: KIFKEQ_clean_linker_1, # of connection points: 2
#     Edge 44, Type (0, 1), BuildingBlock: KIFKEQ_clean_linker_1, # of connection points: 2
#     Edge 45, Type (0, 1), BuildingBlock: KIFKEQ_clean_linker_1, # of connection points: 2
#     Edge 46, Type (0, 1), BuildingBlock: KIFKEQ_clean_linker_1, # of connection points: 2
#     Edge 47, Type (0, 1), BuildingBlock: KIFKEQ_clean_linker_1, # of connection points: 2
# Relax obj value: 0.161
# Max RMSD: 0.153
# Mean RMSD: 0.128
data_MOF--net-wbl--node1-TATPOV_clean_sbu_0--node2-MIFKUJ_clean_linker_1--edge1-KIFKEQ_clean_linker_1
_symmetry_space_group_name_H-M    P1
_symmetry_Int_Tables_number       1
_symmetry_cell_setting            triclinic
loop_
_symmetry_equiv_pos_as_xyz
'x, y, z'
_cell_length_a     46.581302
_cell_length_b     46.572439
_cell_length_c     74.332422
_cell_angle_alpha  91.247471
_cell_angle_beta   91.359526
_cell_angle_gamma 90.103253
loop_
_atom_site_label
_atom_site_type_symbol
_atom_site_fract_x
_atom_site_fract_y
_atom_site_fract_z
_atom_type_partial_charge
H0 H 0.05268 0.08733 0.39047 0.0
H1 H 0.02553 0.11937 0.41013 0.0
H2 H 0.94657 0.09107 0.38354 0.0
H3 H 0.97384 0.05815 0.36444 0.0
H4 H 0.05027 0.02972 0.38762 0.0
H5 H 0.03053 0.10937 0.34862 0.0
H6 H 0.99703 0.1429 0.33435 0.0
H7 H 0.95573 0.07199 0.30557 0.0
H8 H 0.98881 0.03853 0.32012 0.0
H9 H 0.04567 0.97447 0.31674 0.0
H10 H 0.07394 0.93852 0.30033 0.0
H11 H 0.15017 0.96614 0.33006 0.0
H12 H 0.12214 0.00249 0.34605 0.0
H13 H 0.04538 0.031 0.3209 0.0
H14 H 0.06442 0.95138 0.35894 0.0
H15 H 0.09278 0.91631 0.37553 0.0
H16 H 0.13096 0.98518 0.40801 0.0
H17 H 0.10423 0.02009 0.39048 0.0
C18 C 0.01532 0.07051 0.37591 0.0
C19 C 0.02951 0.08803 0.3889 0.0
C20 C 0.01397 0.10655 0.4 0.0
C21 C 0.98386 0.1079 0.39837 0.0
C22 C 0.9697 0.09038 0.38527 0.0
C23 C 0.98527 0.07174 0.37423 0.0
C24 C 0.03207 0.05048 0.36447 0.0
C25 C 0.04961 0.03026 0.37302 0.0
C26 C 0.03031 0.05063 0.34543 0.0
C27 C 0.01189 0.07138 0.33565 0.0
C28 C 0.01423 0.10105 0.33926 0.0
C29 C 0.99512 0.12017 0.33111 0.0
C30 C 0.97372 0.11002 0.31893 0.0
C31 C 0.97216 0.08045 0.3148 0.0
C32 C 0.99105 0.06132 0.3231 0.0
C33 C 0.08168 0.99077 0.33289 0.0
C34 C 0.06856 0.97312 0.31949 0.0
C35 C 0.08468 0.95262 0.31013 0.0
C36 C 0.1141 0.94937 0.31413 0.0
C37 C 0.12741 0.96793 0.32695 0.0
C38 C 0.11142 0.98864 0.3361 0.0
C39 C 0.06415 0.01051 0.34407 0.0
C40 C 0.04631 0.03056 0.33549 0.0
C41 C 0.06546 0.01007 0.36314 0.0
C42 C 0.08249 0.98847 0.37324 0.0
C43 C 0.07933 0.95894 0.3694 0.0
C44 C 0.0953 0.93885 0.3791 0.0
C45 C 0.11431 0.9478 0.39314 0.0
C46 C 0.11708 0.9774 0.39707 0.0
C47 C 0.10149 0.99746 0.38719 0.0
H48 H 0.98832 0.49214 0.55784 0.0
H49 H 0.95426 0.46085 0.54127 0.0
H50 H 0.88381 0.50437 0.56693 0.0
H51 H 0.91798 0.53573 0.58338 0.0
H52 H 0.00048 0.54807 0.56242 0.0
H53 H 0.96749 0.47227 0.59812 0.0
H54 H 0.93551 0.44017 0.61379 0.0
H55 H 0.90349 0.51245 0.64471 0.0
H56 H 0.93478 0.54462 0.62845 0.0
H57 H 0.00604 0.6046 0.6311 0.0
H58 H 0.04053 0.62793 0.65194 0.0
H59 H 0.10735 0.57183 0.63229 0.0
H60 H 0.07284 0.54952 0.61099 0.0
H61 H 0.99219 0.54456 0.62879 0.0
H62 H 0.03249 0.61898 0.5934 0.0
H63 H 0.07308 0.64504 0.58136 0.0
H64 H 0.09764 0.5691 0.55117 0.0
H65 H 0.05733 0.54278 0.56364 0.0
C66 C 0.9557 0.51587 0.57209 0.0
C67 C 0.96552 0.49543 0.55954 0.0
C68 C 0.94602 0.4776 0.55006 0.0
C69 C 0.9164 0.47998 0.55298 0.0
C70 C 0.90655 0.5018 0.56462 0.0
C71 C 0.92603 0.5197 0.57402 0.0
C72 C 0.97637 0.53133 0.58429 0.0
C73 C -0.00124 0.54719 0.57692 0.0
C74 C 0.97412 0.53013 0.60323 0.0
C75 C 0.95336 0.51092 0.61198 0.0
C76 C 0.95316 0.4813 0.608 0.0
C77 C 0.93507 0.46292 0.61712 0.0
C78 C 0.91701 0.4737 0.63058 0.0
C79 C 0.91685 0.50346 0.63428 0.0
C80 C 0.9349 0.52186 0.62511 0.0
C81 C 0.03699 0.57553 0.61948 0.0
C82 C 0.02816 0.59745 0.6313 0.0
C83 C 0.0479 0.6106 0.64328 0.0
C84 C 0.07677 0.60172 0.64387 0.0
C85 C 0.08545 0.57957 0.63202 0.0
C86 C 0.06574 0.56666 0.6199 0.0
C87 C 0.01593 0.56153 0.60694 0.0
C88 C 0.99358 0.54578 0.61427 0.0
C89 C 0.01869 0.56229 0.58804 0.0
C90 C 0.04212 0.57874 0.5797 0.0
C91 C 0.04673 0.60781 0.58433 0.0
C92 C 0.06994 0.62269 0.57745 0.0
C93 C 0.0887 0.60899 0.56549 0.0
C94 C 0.0835 0.58019 0.56034 0.0
C95 C 0.06046 0.56518 0.56743 0.0
H96 H 0.49558 0.54806 0.85461 0.0
H97 H 0.46931 0.58384 0.87239 0.0
H98 H 0.4137 0.51706 0.89112 0.0
H99 H 0.4403 0.48124 0.87342 0.0
H100 H 0.5028 0.46963 0.87462 0.0
H101 H 0.5 0.53442 0.80995 0.0
H102 H 0.46975 0.57366 0.79881 0.0
H103 H 0.39634 0.53621 0.82394 0.0
H104 H 0.42636 0.49682 0.83463 0.0
H105 H 0.50773 0.41951 0.80166 0.0
H106 H 0.54125 0.39012 0.78411 0.0
H107 H 0.6116 0.42107 0.81809 0.0
H108 H 0.57848 0.45111 0.8351 0.0
H109 H 0.50181 0.47516 0.80796 0.0
H110 H 0.52336 0.3934 0.84628 0.0
H111 H 0.55386 0.36067 0.86371 0.0
H112 H 0.58863 0.43318 0.89435 0.0
H113 H 0.55888 0.46556 0.87668 0.0
C114 C 0.4698 0.51211 0.86276 0.0
C115 C 0.4778 0.54115 0.86262 0.0
C116 C 0.46285 0.5615 0.87276 0.0
C117 C 0.43949 0.55314 0.88304 0.0
C118 C 0.43151 0.52402 0.88316 0.0
C119 C 0.44676 0.50359 0.87321 0.0
C120 C 0.4852 0.49086 0.85153 0.0
C121 C 0.5025 0.47053 0.86004 0.0
C122 C 0.48433 0.49205 0.83255 0.0
C123 C 0.46547 0.51294 0.8233 0.0
C124 C 0.47725 0.53433 0.81267 0.0
C125 C 0.46003 0.55676 0.8064 0.0
C126 C 0.43087 0.55816 0.81081 0.0
C127 C 0.41888 0.53592 0.82066 0.0
C128 C 0.43596 0.51338 0.82669 0.0
C129 C 0.54048 0.43695 0.82 0.0
C130 C 0.53041 0.42015 0.80521 0.0
C131 C 0.5495 0.40343 0.7952 0.0
C132 C 0.57885 0.40313 0.79994 0.0
C133 C 0.58897 0.4206 0.81437 0.0
C134 C 0.57003 0.43761 0.82415 0.0
C135 C 0.52026 0.45395 0.83107 0.0
C136 C 0.50192 0.47364 0.8225 0.0
C137 C 0.52017 0.45207 0.8501 0.0
C138 C 0.53891 0.43193 0.86015 0.0
C139 C 0.5378 0.40219 0.85663 0.0
C140 C 0.55508 0.38352 0.86667 0.0
C141 C 0.57377 0.39433 0.88036 0.0
C142 C 0.57487 0.42415 0.88372 0.0
C143 C 0.55763 0.4427 0.87375 0.0
H144 H 0.51219 0.91571 0.09459 0.0
H145 H 0.47983 0.88194 0.07896 0.0
H146 H 0.44315 0.95151 0.04848 0.0
H147 H 0.47474 0.98551 0.06496 0.0
H148 H 0.53151 0.99218 0.06797 0.0
H149 H 0.52727 0.93517 0.13621 0.0
H150 H 0.49409 0.90687 0.15376 0.0
H151 H 0.4222 0.9463 0.12612 0.0
H152 H 0.45553 0.97485 0.10878 0.0
H153 H 0.53931 0.04633 0.13928 0.0
H154 H 0.57213 0.075 0.15819 0.0
H155 H 0.64318 0.04619 0.12603 0.0
H156 H 0.61037 0.01571 0.10802 0.0
H157 H 0.53398 0.99252 0.13475 0.0
H158 H 0.5541 0.06957 0.09592 0.0
H159 H 0.58635 0.10226 0.08086 0.0
H160 H 0.61922 0.03119 0.04933 0.0
H161 H 0.5873 -0.00168 0.06475 0.0
C162 C 0.49556 0.95318 0.08114 0.0
C163 C 0.49706 0.92373 0.08462 0.0
C164 C 0.47873 0.90438 0.07551 0.0
C165 C 0.45882 0.91399 0.06246 0.0
C166 C 0.45791 0.94345 0.05864 0.0
C167 C 0.47615 0.96287 0.0679 0.0
C168 C 0.51388 0.97379 0.09168 0.0
C169 C 0.53205 0.99238 0.08257 0.0
C170 C 0.51411 0.97442 0.11072 0.0
C171 C 0.49388 0.95699 0.12113 0.0
C172 C 0.50436 0.93771 0.13395 0.0
C173 C 0.48539 0.92141 0.14385 0.0
C174 C 0.45553 0.9243 0.14128 0.0
C175 C 0.44508 0.94374 0.12849 0.0
C176 C 0.46408 0.95991 0.11849 0.0
C177 C 0.57226 0.02903 0.1221 0.0
C178 C 0.56199 0.04601 0.13636 0.0
C179 C 0.58082 0.06274 0.14705 0.0
C180 C 0.61038 0.06321 0.14358 0.0
C181 C 0.62064 0.04618 0.12924 0.0
C182 C 0.60181 0.02903 0.11874 0.0
C183 C 0.552 0.01083 0.11112 0.0
C184 C 0.53346 0.99256 0.12015 0.0
C185 C 0.55088 0.0112 0.09203 0.0
C186 C 0.56867 0.03137 0.08175 0.0
C187 C 0.5683 0.06096 0.08582 0.0
C188 C 0.58672 0.07962 0.0772 0.0
C189 C 0.60551 0.06919 0.06407 0.0
C190 C 0.60491 0.0398 0.05937 0.0
C191 C 0.5867 0.02104 0.06817 0.0
H192 H 0.98938 0.59828 0.88856 0.0
H193 H 0.01979 0.62914 0.8709 0.0
H194 H 0.09498 0.59665 0.89886 0.0
H195 H 0.06443 0.56502 0.91602 0.0
H196 H 0.99064 0.54036 0.88783 0.0
H197 H 0.00457 0.61549 0.9335 0.0
H198 H 0.0383 0.64743 0.94988 0.0
H199 H 0.07978 0.57377 0.97338 0.0
H200 H 0.04594 0.54201 0.95704 0.0
H201 H 0.98708 0.47776 0.95445 0.0
H202 H 0.95696 0.44089 0.96747 0.0
H203 H 0.88428 0.47073 0.93584 0.0
H204 H 0.91408 0.50837 0.92371 0.0
H205 H 0.98779 0.53473 0.95434 0.0
H206 H 0.97504 0.45956 0.91069 0.0
H207 H 0.95052 0.42524 0.89015 0.0
H208 H 0.91359 0.49547 0.86062 0.0
H209 H 0.9371 0.52981 0.88159 0.0
C210 C 0.02458 0.57944 0.90369 0.0
C211 C 0.01241 0.59798 0.89099 0.0
C212 C 0.02983 0.61579 0.88099 0.0
C213 C 0.05987 0.61538 0.88344 0.0
C214 C 0.07196 0.59728 0.8965 0.0
C215 C 0.0545 0.5794 0.90647 0.0
C216 C 0.00604 0.55876 0.91301 0.0
C217 C 0.9895 0.53951 0.90237 0.0
C218 C 0.00559 0.55687 0.93199 0.0
C219 C 0.0231 0.57638 0.94382 0.0
C220 C 0.02072 0.60628 0.94236 0.0
C221 C 0.04 0.62448 0.9517 0.0
C222 C 0.06188 0.61309 0.96277 0.0
C223 C 0.06303 0.58323 0.96509 0.0
C224 C 0.04376 0.56503 0.95571 0.0
C225 C 0.95294 0.49565 0.93795 0.0
C226 C 0.96454 0.4766 0.95055 0.0
C227 C 0.94736 0.45528 0.9578 0.0
C228 C 0.91819 0.45258 0.9526 0.0
C229 C 0.90652 0.47225 0.94033 0.0
C230 C 0.92363 0.49368 0.93323 0.0
C231 C 0.97168 0.51672 0.92909 0.0
C232 C 0.98846 0.53585 0.9398 0.0
C233 C 0.97267 0.51828 0.91009 0.0
C234 C 0.95757 0.4973 0.89787 0.0
C235 C 0.96121 0.46761 0.90003 0.0
C236 C 0.94734 0.44802 0.88827 0.0
C237 C 0.93024 0.45782 0.87388 0.0
C238 C 0.92682 0.48746 0.87159 0.0
C239 C 0.94024 0.50703 0.88354 0.0
H240 H 0.49683 0.54688 0.20296 0.0
H241 H 0.46381 0.58087 0.2171 0.0
H242 H 0.39229 0.53934 0.18906 0.0
H243 H 0.4253 0.50495 0.17529 0.0
H244 H 0.50416 0.48946 0.20216 0.0
H245 H 0.47952 0.56216 0.15765 0.0
H246 H 0.44784 0.59037 0.1382 0.0
H247 H 0.41036 0.51187 0.11603 0.0
H248 H 0.44274 0.48395 0.13511 0.0
H249 H 0.51307 0.43225 0.13178 0.0
H250 H 0.54799 0.40729 0.11306 0.0
H251 H 0.6173 0.44525 0.14502 0.0
H252 H 0.58236 0.47126 0.16333 0.0
H253 H 0.50335 0.48596 0.13539 0.0
H254 H 0.53071 0.41287 0.17592 0.0
H255 H 0.56731 0.38375 0.1909 0.0
H256 H 0.59756 0.45862 0.22101 0.0
H257 H 0.56118 0.48795 0.20566 0.0
C258 C 0.46359 0.52367 0.18786 0.0
C259 C 0.474 0.54477 0.20011 0.0
C260 C 0.45513 0.56418 0.20815 0.0
C261 C 0.42555 0.56287 0.20401 0.0
C262 C 0.41505 0.54108 0.19225 0.0
C263 C 0.43388 0.52146 0.1844 0.0
C264 C 0.48396 0.50517 0.17791 0.0
C265 C 0.50416 0.4888 0.18757 0.0
C266 C 0.48352 0.50376 0.15888 0.0
C267 C 0.46343 0.521 0.14779 0.0
C268 C 0.46432 0.55111 0.14866 0.0
C269 C 0.44607 0.56719 0.1376 0.0
C270 C 0.42656 0.55342 0.12548 0.0
C271 C 0.42544 0.52321 0.12494 0.0
C272 C 0.44383 0.50719 0.13589 0.0
C273 C 0.54502 0.45351 0.14907 0.0
C274 C 0.53576 0.43528 0.13478 0.0
C275 C 0.55568 0.42102 0.12411 0.0
C276 C 0.58523 0.42444 0.12764 0.0
C277 C 0.59458 0.44213 0.14216 0.0
C278 C 0.57463 0.45686 0.15265 0.0
C279 C 0.52363 0.47007 0.15954 0.0
C280 C 0.50327 0.48625 0.14999 0.0
C281 C 0.52375 0.4709 0.17863 0.0
C282 C 0.54359 0.45273 0.18938 0.0
C283 C 0.54516 0.42306 0.18577 0.0
C284 C 0.56606 0.40644 0.19433 0.0
C285 C 0.58547 0.41904 0.20693 0.0
C286 C 0.58282 0.44839 0.21136 0.0
C287 C 0.56206 0.46513 0.20261 0.0
H288 H 0.54636 0.93091 0.38639 0.0
H289 H 0.51599 0.8976 0.36862 0.0
H290 H 0.44054 0.93575 0.39202 0.0
H291 H 0.47123 0.96841 0.41013 0.0
H292 H 0.54415 0.99114 0.38523 0.0
H293 H 0.52875 0.91549 0.427 0.0
H294 H 0.49669 0.88384 0.44279 0.0
H295 H 0.46436 0.95697 0.47288 0.0
H296 H 0.49483 0.98868 0.45596 0.0
H297 H 0.55067 0.05316 0.45415 0.0
H298 H 0.58267 0.08755 0.46992 0.0
H299 H 0.65323 0.05735 0.43785 0.0
H300 H 0.62159 0.02215 0.42294 0.0
H301 H 0.54944 0.99644 0.45197 0.0
H302 H 0.55837 0.0719 0.4097 0.0
H303 H 0.58198 0.1064 0.39053 0.0
H304 H 0.62264 0.03638 0.36186 0.0
H305 H 0.59963 0.00211 0.38137 0.0
C306 C 0.511 0.95198 0.39958 0.0
C307 C 0.52327 0.93192 0.38773 0.0
C308 C 0.50587 0.91301 0.37754 0.0
C309 C 0.47581 0.91408 0.37882 0.0
C310 C 0.46361 0.93405 0.39089 0.0
C311 C 0.48108 0.95283 0.40118 0.0
C312 C 0.52957 0.97274 0.40971 0.0
C313 C 0.54566 0.99206 0.39983 0.0
C314 C 0.5306 0.97441 0.42876 0.0
C315 C 0.51365 0.95463 0.43987 0.0
C316 C 0.51454 0.92475 0.43687 0.0
C317 C 0.49645 0.90657 0.44616 0.0
C318 C 0.47753 0.91777 0.45902 0.0
C319 C 0.478 0.94756 0.46275 0.0
C320 C 0.49573 0.96576 0.45322 0.0
C321 C 0.58366 0.03531 0.43722 0.0
C322 C 0.57311 0.05382 0.45067 0.0
C323 C 0.59136 0.07366 0.45953 0.0
C324 C 0.62052 0.0753 0.45512 0.0
C325 C 0.63101 0.05647 0.44177 0.0
C326 C 0.61285 0.03653 0.43305 0.0
C327 C 0.56425 0.01476 0.42745 0.0
C328 C 0.54799 0.99548 0.43738 0.0
C329 C 0.56264 0.01335 0.40841 0.0
C330 C 0.57743 0.03442 0.39708 0.0
C331 C 0.57265 0.06402 0.39943 0.0
C332 C 0.58595 0.0837 0.38835 0.0
C333 C 0.60423 0.07415 0.37467 0.0
C334 C 0.60902 0.04449 0.37242 0.0
C335 C 0.59569 0.02484 0.38346 0.0
H336 H 0.04488 0.09014 0.70108 0.0
H337 H 0.00812 0.12211 0.71335 0.0
H338 H 0.94233 0.07272 0.68462 0.0
H339 H 0.979 0.04042 0.673 0.0
H340 H 0.05432 0.02953 0.70165 0.0
H341 H 0.03322 0.10348 0.65816 0.0
H342 H 0.00017 0.13232 0.64001 0.0
H343 H 0.96689 0.05482 0.61401 0.0
H344 H 0.0003 0.02626 0.632 0.0
H345 H 0.06314 0.97083 0.63302 0.0
H346 H 0.09598 0.94486 0.61347 0.0
H347 H 0.16828 0.98001 0.64406 0.0
H348 H 0.13519 0.0064 0.6636 0.0
H349 H 0.05917 0.02658 0.63502 0.0
H350 H 0.07742 0.9521 0.67645 0.0
H351 H 0.10486 0.91965 0.69553 0.0
H352 H 0.13818 0.99228 0.72669 0.0
H353 H 0.11129 0.02481 0.70708 0.0
C354 C 0.01464 0.06314 0.68602 0.0
C355 C 0.02248 0.08596 0.69774 0.0
C356 C 0.00149 0.10437 0.70455 0.0
C357 C 0.97232 0.10014 0.69979 0.0
C358 C 0.96453 0.07648 0.68866 0.0
C359 C 0.98548 0.05809 0.68192 0.0
C360 C 0.03687 0.04596 0.67687 0.0
C361 C 0.05583 0.02914 0.6871 0.0
C362 C 0.03826 0.04508 0.65791 0.0
C363 C 0.0191 0.06275 0.64646 0.0
C364 C 0.01879 0.09277 0.64853 0.0
C365 C -0.00021 0.10919 0.63822 0.0
C366 C 0.98082 0.09588 0.62559 0.0
C367 C 0.98147 0.0658 0.62343 0.0
C368 C 0.00051 0.04942 0.63371 0.0
C369 C 0.09668 0.99069 0.64972 0.0
C370 C 0.08605 0.97277 0.63566 0.0
C371 C 0.10482 0.95802 0.62446 0.0
C372 C 0.13465 0.96077 0.62711 0.0
C373 C 0.14536 0.97749 0.64176 0.0
C374 C 0.12649 0.9925 0.65294 0.0
C375 C 0.07652 0.00941 0.6597 0.0
C376 C 0.05803 0.02691 0.64959 0.0
C377 C 0.07542 0.0105 0.67874 0.0
C378 C 0.09264 0.99091 0.69016 0.0
C379 C 0.09092 0.96109 0.68723 0.0
C380 C 0.10632 0.94253 0.69833 0.0
C381 C 0.12359 0.95337 0.71272 0.0
C382 C 0.12526 0.98327 0.71564 0.0
C383 C 0.10982 0.00186 0.70451 0.0
Zn384 Zn 0.29556 0.7381 0.97398 0.0
Zn385 Zn 0.31144 0.70182 0.001 0.0
O386 O 0.26771 0.69724 1.00013 0.0
O387 O 0.25427 0.72828 0.97961 0.0
O388 O 0.32583 0.67551 0.02029 0.0
O389 O 0.31633 0.77058 0.98767 0.0
O390 O 0.32737 0.74078 0.00934 0.0
C391 C 0.24796 0.70957 0.99102 0.0
C392 C 0.33123 0.69091 0.96233 0.0
O393 O 0.33085 0.68516 0.97897 0.0
O394 O 0.31737 0.71225 0.95639 0.0
C395 C 0.31749 0.67568 0.03645 0.0
O396 O 0.29716 0.69354 0.04134 0.0
C397 C 0.32825 0.76579 0.00281 0.0
Zn398 Zn 0.29446 0.7615 0.2865 0.0
Zn399 Zn 0.31281 0.79411 0.25885 0.0
O400 O 0.27132 0.80793 0.26186 0.0
O401 O 0.25584 0.78102 0.28365 0.0
O402 O 0.32861 0.818 0.23887 0.0
O403 O 0.30429 0.72543 0.27244 0.0
O404 O 0.31931 0.75223 0.25051 0.0
C405 C 0.25151 0.80078 0.27245 0.0
C406 C 0.34106 0.79961 0.29662 0.0
O407 O 0.33848 0.80665 0.2802 0.0
O408 O 0.32497 0.7804 0.3028 0.0
C409 C 0.33163 0.80891 0.22277 0.0
O410 O 0.32287 0.78288 0.2182 0.0
C411 C 0.31532 0.72755 0.25712 0.0
Zn412 Zn 0.26289 0.76561 0.48266 0.0
Zn413 Zn 0.25182 0.80307 0.51048 0.0
O414 O 0.29483 0.80819 0.50738 0.0
O415 O 0.30507 0.77818 0.48517 0.0
O416 O 0.24259 0.82836 0.53181 0.0
O417 O 0.24615 0.73262 0.49683 0.0
O418 O 0.23647 0.76426 0.5182 0.0
C419 C 0.31295 0.79739 0.49662 0.0
C420 C 0.22455 0.81285 0.47341 0.0
O421 O 0.22909 0.82049 0.48977 0.0
O422 O 0.23573 0.79 0.46716 0.0
C423 C 0.24281 0.85559 0.53119 0.0
O424 O 0.25017 0.86791 0.51624 0.0
C425 C 0.2353 0.73863 0.51193 0.0
Zn426 Zn 0.26204 0.73985 0.74256 0.0
Zn427 Zn 0.22704 0.7253 0.76962 0.0
O428 O 0.22163 0.76904 0.768 0.0
O429 O 0.25198 0.78148 0.74725 0.0
O430 O 0.20331 0.71345 0.79058 0.0
O431 O 0.29595 0.72102 0.75502 0.0
O432 O 0.26673 0.7094 0.77653 0.0
C433 C 0.233 0.7883 0.7585 0.0
C434 C 0.21421 0.70273 0.73148 0.0
O435 O 0.20841 0.70394 0.74813 0.0
O436 O 0.23571 0.71616 0.72571 0.0
C437 C 0.17616 0.71608 0.7908 0.0
O438 O 0.16277 0.72784 0.77707 0.0
C439 C 0.29161 0.7088 0.76976 0.0
Zn440 Zn 0.79154 0.24606 0.54133 0.0
Zn441 Zn 0.82603 0.23354 0.51271 0.0
O442 O 0.8289 0.27715 0.5144 0.0
O443 O 0.80015 0.2882 0.53664 0.0
O444 O 0.84916 0.2217 0.49134 0.0
O445 O 0.75807 0.2256 0.5284 0.0
O446 O 0.78696 0.21626 0.50604 0.0
C447 C 0.81725 0.29587 0.52459 0.0
C448 C 0.84177 0.21151 0.55013 0.0
O449 O 0.84657 0.21404 0.53347 0.0
O450 O 0.81967 0.22292 0.5569 0.0
C451 C 0.87643 0.22245 0.49142 0.0
O452 O 0.89039 0.2328 0.50571 0.0
C453 C 0.7624 0.21426 0.51306 0.0
Zn454 Zn 0.79767 0.27209 0.7733 0.0
Zn455 Zn 0.81048 0.30868 0.74658 0.0
O456 O 0.7665 0.31187 0.74689 0.0
O457 O 0.75592 0.28129 0.76798 0.0
O458 O 0.82416 0.33501 0.72731 0.0
O459 O 0.81755 0.23974 0.76034 0.0
O460 O 0.82805 0.26981 0.73901 0.0
C461 C 0.74797 0.29942 0.7564 0.0
C462 C 0.83157 0.32047 0.78559 0.0
O463 O 0.82902 0.32714 0.76912 0.0
O464 O 0.82058 0.29742 0.79103 0.0
C465 C 0.80999 0.34512 0.71407 0.0
O466 O 0.78268 0.33858 0.71183 0.0
C467 C 0.82947 0.24479 0.74561 0.0
Zn468 Zn 0.76197 0.2772 0.03388 0.0
Zn469 Zn 0.72287 0.28815 0.00696 0.0
O470 O 0.71715 0.24493 0.00991 0.0
O471 O 0.74871 0.23542 0.03151 0.0
O472 O 0.69634 0.30023 0.98674 0.0
O473 O 0.79422 0.29365 0.01919 0.0
O474 O 0.76145 0.30329 0.99845 0.0
C475 C 0.72877 0.22716 0.02065 0.0
C476 C 0.71598 0.31519 0.04454 0.0
O477 O 0.70731 0.31044 0.02838 0.0
O478 O 0.73929 0.30426 0.05026 0.0
C479 C 0.68581 0.28501 0.9738 0.0
O480 O 0.69124 0.25735 0.97296 0.0
C481 C 0.7874 0.30449 0.00421 0.0
Zn482 Zn 0.77424 0.23535 0.23337 0.0
Zn483 Zn 0.74274 0.21932 0.2619 0.0
O484 O 0.72836 0.26039 0.25811 0.0
O485 O 0.754 0.27393 0.23524 0.0
O486 O 0.72143 0.20475 0.2832 0.0
O487 O 0.81108 0.22716 0.24724 0.0
O488 O 0.78491 0.21373 0.26984 0.0
C489 C 0.73478 0.27919 0.24665 0.0
C490 C 0.73559 0.18831 0.22512 0.0
O491 O 0.72883 0.19242 0.24147 0.0
O492 O 0.75512 0.20333 0.21833 0.0
C493 C 0.69479 0.1988 0.28218 0.0
O494 O 0.6804 0.20379 0.26716 0.0
C495 C 0.8094 0.21735 0.26294 0.0
H496 H 0.11756 0.9343 0.27836 0.0
H497 H 0.14768 0.91083 0.33139 0.0
H498 H 0.14624 0.8953 0.26509 0.0
H499 H 0.17604 0.87216 0.31828 0.0
H500 H 0.20516 0.791 0.29325 0.0
H501 H 0.1678 0.82515 0.30114 0.0
H502 H 0.2008 0.88499 0.26318 0.0
H503 H 0.23838 0.85079 0.25517 0.0
C504 C 0.13014 0.92068 0.28714 0.0
C505 C 0.13063 0.92562 0.30587 0.0
C506 C 0.14655 0.8985 0.27957 0.0
C507 C 0.16316 0.88061 0.29067 0.0
C508 C 0.16313 0.88534 0.30941 0.0
C509 C 0.14717 0.90766 0.3169 0.0
C510 C 0.20414 0.81114 0.28625 0.0
C511 C 0.22514 0.81837 0.27382 0.0
C512 C 0.18277 0.83072 0.29083 0.0
C513 C 0.18179 0.85789 0.28303 0.0
C514 C 0.2011 0.86418 0.26941 0.0
C515 C 0.22264 0.84458 0.26485 0.0
H516 H 0.12739 0.64254 0.58439 0.0
H517 H 0.10602 0.61121 0.53066 0.0
H518 H 0.16665 0.67077 0.5727 0.0
H519 H 0.14472 0.64006 0.5188 0.0
H520 H 0.22736 0.68162 0.50279 0.0
H521 H 0.1952 0.64758 0.51668 0.0
H522 H 0.17212 0.71282 0.55596 0.0
H523 H 0.20483 0.74628 0.54255 0.0
C524 C 0.13107 0.6418 0.57005 0.0
C525 C 0.11351 0.62488 0.55841 0.0
C526 C 0.15354 0.658 0.56333 0.0
C527 C 0.1588 0.65794 0.54476 0.0
C528 C 0.14164 0.64036 0.53319 0.0
C529 C 0.11934 0.62391 0.53996 0.0
C530 C 0.21576 0.68851 0.51457 0.0
C531 C 0.21861 0.71675 0.52148 0.0
C532 C 0.19712 0.66907 0.52245 0.0
C533 C 0.18081 0.67746 0.53737 0.0
C534 C 0.18455 0.70538 0.54465 0.0
C535 C 0.20326 0.7247 0.53687 0.0
H536 H 0.42545 0.58284 0.77791 0.0
H537 H 0.3965 0.58992 0.83254 0.0
H538 H 0.39381 0.62228 0.7694 0.0
H539 H 0.36558 0.62994 0.82431 0.0
H540 H 0.28671 0.67135 0.79726 0.0
H541 H 0.32226 0.63728 0.80791 0.0
H542 H 0.38432 0.6724 0.77201 0.0
H543 H 0.34826 0.70588 0.76084 0.0
C544 C 0.4126 0.59317 0.78813 0.0
C545 C 0.41309 0.58317 0.8058 0.0
C546 C 0.39459 0.61588 0.78332 0.0
C547 C 0.37698 0.62927 0.79615 0.0
C548 C 0.37834 0.61979 0.81399 0.0
C549 C 0.39607 0.5969 0.81872 0.0
C550 C 0.30804 0.67211 0.7918 0.0
C551 C 0.31455 0.69119 0.77809 0.0
C552 C 0.32854 0.6526 0.79798 0.0
C553 C 0.35617 0.65188 0.79073 0.0
C554 C 0.36309 0.67194 0.77763 0.0
C555 C 0.34248 0.6913 0.77133 0.0
H556 H 0.47056 0.8594 0.05047 0.0
H557 H 0.40196 0.92165 0.05332 0.0
H558 H 0.43735 0.82444 0.03675 0.0
H559 H 0.36893 0.88671 0.03909 0.0
H560 H 0.33132 0.82281 0.99464 0.0
H561 H 0.36211 0.85956 0.00907 0.0
H562 H 0.39376 0.79736 0.04688 0.0
H563 H 0.36313 0.76063 0.03257 0.0
C564 C 0.44839 0.86562 0.04825 0.0
C565 C 0.4389 0.89329 0.05313 0.0
C566 C 0.4294 0.84559 0.04036 0.0
C567 C 0.40055 0.85283 0.03701 0.0
C568 C 0.39113 0.88065 0.04145 0.0
C569 C 0.41008 0.90066 0.04952 0.0
C570 C 0.34466 0.81704 0.00613 0.0
C571 C 0.34489 0.78875 0.01239 0.0
C572 C 0.36219 0.8381 0.01441 0.0
C573 C 0.38047 0.83119 0.02897 0.0
C574 C 0.38015 0.80314 0.03551 0.0
C575 C 0.36247 0.78218 0.02737 0.0
H576 H 0.08966 0.6558 0.94585 0.0
H577 H 0.0873 0.61222 0.9965 0.0
H578 H 0.13162 0.68261 0.95639 0.0
H579 H 0.12944 0.63952 0.00727 0.0
H580 H 0.19981 0.73771 0.97959 0.0
H581 H 0.15133 0.71834 0.9764 0.0
H582 H 0.17976 0.63968 0.00091 0.0
H583 H 0.22797 0.65953 0.00472 0.0
C584 C 0.09764 0.65254 0.95946 0.0
C585 C 0.08515 0.63187 0.97033 0.0
C586 C 0.12175 0.66798 0.96555 0.0
C587 C 0.13398 0.66327 0.98271 0.0
C588 C 0.1208 0.64341 0.9939 0.0
C589 C 0.09666 0.62781 0.98775 0.0
C590 C 0.19555 0.7165 0.98464 0.0
C591 C 0.2178 0.69996 0.99215 0.0
C592 C 0.1678 0.70533 0.98272 0.0
C593 C 0.16174 0.67722 0.98804 0.0
C594 C 0.18356 0.66147 0.99673 0.0
C595 C 0.21129 0.6728 0.99886 0.0
H596 H 0.38446 0.59317 0.18588 0.0
H597 H 0.4227 0.58237 0.23879 0.0
H598 H 0.35384 0.6314 0.19781 0.0
H599 H 0.39234 0.6207 0.25067 0.0
H600 H 0.31668 0.67276 0.2695 0.0
H601 H 0.34029 0.63119 0.25605 0.0
H602 H 0.36272 0.68162 0.21038 0.0
H603 H 0.33906 0.72335 0.22377 0.0
C604 C 0.38605 0.59877 0.2001 0.0
C605 C 0.40592 0.58485 0.21144 0.0
C606 C 0.36871 0.62075 0.20687 0.0
C607 C 0.3707 0.62897 0.22515 0.0
C608 C 0.39013 0.61459 0.23656 0.0
C609 C 0.40766 0.59285 0.22975 0.0
C610 C 0.32626 0.67495 0.25647 0.0
C611 C 0.32618 0.70149 0.24778 0.0
C612 C 0.33992 0.65115 0.24883 0.0
C613 C 0.35356 0.65327 0.23227 0.0
C614 C 0.35225 0.67934 0.22313 0.0
C615 C 0.33878 0.70326 0.23084 0.0
H616 H 0.48428 0.8616 0.46951 0.0
H617 H 0.42227 0.93059 0.46807 0.0
H618 H 0.44788 0.82987 0.48155 0.0
H619 H 0.38667 0.89928 0.48071 0.0
H620 H 0.33374 0.84442 0.51536 0.0
H621 H 0.37662 0.87209 0.50904 0.0
H622 H 0.40041 0.80866 0.46893 0.0
H623 H 0.35743 0.78083 0.47518 0.0
C624 C 0.46304 0.87011 0.47181 0.0
C625 C 0.45634 0.89879 0.46776 0.0
C626 C 0.44228 0.85193 0.47881 0.0
C627 C 0.41453 0.86216 0.48219 0.0
C628 C 0.40805 0.89093 0.47858 0.0
C629 C 0.42858 0.90894 0.47137 0.0
C630 C 0.34839 0.83595 0.50548 0.0
C631 C 0.34189 0.81056 0.4956 0.0
C632 C 0.37289 0.85193 0.5018 0.0
C633 C 0.3916 0.84275 0.48831 0.0
C634 C 0.38638 0.81624 0.47943 0.0
C635 C 0.3617 0.80034 0.48299 0.0
H636 H 0.10535 0.90247 0.72608 0.0
H637 H 0.17891 0.95906 0.72578 0.0
H638 H 0.13377 0.8669 0.74193 0.0
H639 H 0.20714 0.92386 0.74239 0.0
H640 H 0.25319 0.83451 0.74067 0.0
H641 H 0.22734 0.87825 0.7339 0.0
H642 H 0.15943 0.85295 0.7689 0.0
H643 H 0.18506 0.80854 0.77533 0.0
C644 C 0.12753 0.90746 0.72961 0.0
C645 C 0.14 0.93338 0.72438 0.0
C646 C 0.14373 0.88723 0.73897 0.0
C647 C 0.17282 0.89244 0.7434 0.0
C648 C 0.18489 0.91903 0.73901 0.0
C649 C 0.16864 0.9393 0.72961 0.0
C650 C 0.23306 0.83851 0.74728 0.0
C651 C 0.22094 0.81772 0.75827 0.0
C652 C 0.21827 0.86377 0.74347 0.0
C653 C 0.19103 0.86891 0.7506 0.0
C654 C 0.18009 0.84933 0.76288 0.0
C655 C 0.19491 0.82398 0.76669 0.0
H656 H 0.61536 0.3649 0.81491 0.0
H657 H 0.58777 0.39843 0.76369 0.0
H658 H 0.65147 0.33577 0.80004 0.0
H659 H 0.6243 0.36908 0.7486 0.0
H660 H 0.70222 0.27272 0.77098 0.0
H661 H 0.65631 0.29443 0.7782 0.0
H662 H 0.67943 0.37031 0.74946 0.0
H663 H 0.72546 0.34849 0.74204 0.0
C664 C 0.61693 0.36578 0.80041 0.0
C665 C 0.599 0.38397 0.79043 0.0
C666 C 0.63738 0.34891 0.79186 0.0
C667 C 0.64057 0.35002 0.77313 0.0
C668 C 0.62225 0.36782 0.76304 0.0
C669 C 0.60137 0.38447 0.77163 0.0
C670 C 0.69725 0.29371 0.76576 0.0
C671 C 0.71775 0.30915 0.75628 0.0
C672 C 0.67097 0.30616 0.76994 0.0
C673 C 0.66462 0.33428 0.76474 0.0
C674 C 0.68379 0.34859 0.75366 0.0
C675 C 0.71018 0.33609 0.74943 0.0
H676 H 0.64036 0.10822 0.08138 0.0
H677 H 0.61779 0.07448 0.02835 0.0
H678 H 0.67346 0.142 0.06827 0.0
H679 H 0.65131 0.10838 0.01512 0.0
H680 H 0.74668 0.18483 0.0432 0.0
H681 H 0.71942 0.14288 0.05185 0.0
H682 H 0.65369 0.16238 0.01209 0.0
H683 H 0.68101 0.20437 0.00327 0.0
C684 C 0.64255 0.10802 0.0669 0.0
C685 C 0.62635 0.08888 0.05588 0.0
C686 C 0.66177 0.12713 0.05939 0.0
C687 C 0.66513 0.12773 0.04066 0.0
C688 C 0.64912 0.10841 0.0296 0.0
C689 C 0.63007 0.08898 0.03716 0.0
C690 C 0.72675 0.17987 0.03597 0.0
C691 C 0.71583 0.1983 0.02273 0.0
C692 C 0.71106 0.1559 0.04103 0.0
C693 C 0.68415 0.14968 0.03291 0.0
C694 C 0.67436 0.16662 0.0186 0.0
C695 C 0.69003 0.19073 0.01357 0.0
H696 H 0.94359 0.15228 0.33612 0.0
H697 H 0.95548 0.11241 0.28384 0.0
H698 H 0.9059 0.18278 0.32337 0.0
H699 H 0.91761 0.14252 0.27116 0.0
H700 H 0.86414 0.21563 0.25043 0.0
H701 H 0.90609 0.19342 0.26451 0.0
H702 H 0.85624 0.17382 0.31093 0.0
H703 H 0.81423 0.19617 0.29696 0.0
C704 C 0.93839 0.15032 0.32187 0.0
C705 C 0.95239 0.12994 0.31097 0.0
C706 C 0.91669 0.16759 0.31461 0.0
C707 C 0.9088 0.16502 0.29628 0.0
C708 C 0.92341 0.14522 0.2853 0.0
C709 C 0.9449 0.12779 0.29258 0.0
C710 C 0.86218 0.20699 0.26376 0.0
C711 C 0.83572 0.20746 0.2725 0.0
C712 C 0.8862 0.19412 0.27177 0.0
C713 C 0.88437 0.18164 0.28873 0.0
C714 C 0.85835 0.18341 0.29789 0.0
C715 C 0.83425 0.19612 0.28983 0.0
H716 H 0.91325 0.45687 0.5187 0.0
H717 H 0.8749 0.45222 0.57087 0.0
H718 H 0.88418 0.41585 0.50807 0.0
H719 H 0.8466 0.41112 0.56057 0.0
H720 H 0.79023 0.34281 0.53889 0.0
H721 H 0.80928 0.39143 0.54225 0.0
H722 H 0.88446 0.36572 0.51296 0.0
H723 H 0.86478 0.31761 0.50893 0.0
C724 C 0.89839 0.44725 0.52781 0.0
C725 C 0.89633 0.45773 0.5456 0.0
C726 C 0.88181 0.42372 0.52176 0.0
C727 C 0.86308 0.41002 0.53346 0.0
C728 C 0.86028 0.42137 0.55103 0.0
C729 C 0.87661 0.44496 0.55699 0.0
C730 C 0.81054 0.34775 0.53284 0.0
C731 C 0.8262 0.32629 0.52388 0.0
C732 C 0.82156 0.37558 0.53486 0.0
C733 C 0.8487 0.38243 0.5282 0.0
C734 C 0.86341 0.3614 0.51816 0.0
C735 C 0.85218 0.33368 0.51593 0.0
H736 H 0.67639 0.06757 0.46602 0.0
H737 H 0.60887 0.13115 0.46505 0.0
H738 H 0.70933 0.103 0.47945 0.0
H739 H 0.64187 0.16642 0.47903 0.0
H740 H 0.70636 0.20709 0.52273 0.0
H741 H 0.67074 0.17437 0.50877 0.0
H742 H 0.73185 0.14899 0.4687 0.0
H743 H 0.76735 0.18149 0.48247 0.0
C744 C 0.66857 0.08912 0.46858 0.0
C745 C 0.64003 0.09656 0.46427 0.0
C746 C 0.68744 0.10938 0.47633 0.0
C747 C 0.67817 0.13748 0.48011 0.0
C748 C 0.64948 0.14483 0.47631 0.0
C749 C 0.63061 0.1246 0.46838 0.0
C750 C 0.71208 0.19474 0.51084 0.0
C751 C 0.73976 0.19675 0.5038 0.0
C752 C 0.69167 0.1761 0.50284 0.0
C753 C 0.69871 0.15897 0.4878 0.0
C754 C 0.72603 0.16166 0.48045 0.0
C755 C 0.74629 0.18042 0.4883 0.0
H756 H 0.91829 0.08838 0.71144 0.0
H757 H 0.97607 0.15873 0.70164 0.0
H758 H 0.88144 0.12248 0.72046 0.0
H759 H 0.93972 0.19275 0.71148 0.0
H760 H 0.86054 0.24832 0.71486 0.0
H761 H 0.89355 0.21264 0.70268 0.0
H762 H 0.87223 0.15507 0.7452 0.0
H763 H 0.83882 0.19025 0.75707 0.0
C764 C 0.92313 0.11112 0.71121 0.0
C765 C 0.95016 0.12083 0.70588 0.0
C766 C 0.90209 0.13066 0.71653 0.0
C767 C 0.90761 0.16035 0.71668 0.0
C768 C 0.93462 0.17005 0.71129 0.0
C769 C 0.95563 0.15052 0.70593 0.0
C770 C 0.86262 0.22789 0.72146 0.0
C771 C 0.84714 0.22222 0.73699 0.0
C772 C 0.88171 0.20754 0.71456 0.0
C773 C 0.88572 0.18111 0.72306 0.0
C774 C 0.86947 0.17508 0.73821 0.0
C775 C 0.85038 0.19536 0.74508 0.0
H776 H 0.86173 0.45537 0.96207 0.0
H777 H 0.93341 0.39673 0.95929 0.0
H778 H 0.83157 0.41692 0.97277 0.0
H779 H 0.90321 0.35841 0.97051 0.0
H780 H 0.84471 0.31235 0.01237 0.0
H781 H 0.87733 0.34664 0.99904 0.0
H782 H 0.81061 0.37037 0.96094 0.0
H783 H 0.77798 0.33627 0.97418 0.0
C784 C 0.87105 0.43426 0.9636 0.0
C785 C 0.90004 0.42922 0.95972 0.0
C786 C 0.85373 0.41221 0.96975 0.0
C787 C 0.86498 0.38459 0.97235 0.0
C788 C 0.89401 0.37953 0.96873 0.0
C789 C 0.91132 0.40155 0.96239 0.0
C790 C 0.83713 0.32452 0.00096 0.0
C791 C 0.80863 0.32171 0.99446 0.0
C792 C 0.85586 0.34413 0.99331 0.0
C793 C 0.84638 0.36146 0.97912 0.0
C794 C 0.81835 0.35765 0.97207 0.0
C795 C 0.79973 0.33793 0.9796 0.0
H796 H 0.60323 0.41526 0.24229 0.0
H797 H 0.62174 0.38417 0.18867 0.0
H798 H 0.64237 0.38562 0.25451 0.0
H799 H 0.66044 0.3547 0.20077 0.0
H800 H 0.74281 0.32344 0.22379 0.0
H801 H 0.70862 0.3609 0.21603 0.0
H802 H 0.65196 0.33174 0.25699 0.0
H803 H 0.68624 0.29413 0.2649 0.0
C804 C 0.61578 0.40224 0.23315 0.0
C805 C 0.60937 0.40181 0.21456 0.0
C806 C 0.63803 0.38525 0.24013 0.0
C807 C 0.65455 0.36801 0.22858 0.0
C808 C 0.64836 0.36805 0.20999 0.0
C809 C 0.62599 0.38467 0.20307 0.0
C810 C 0.72336 0.32531 0.23143 0.0
C811 C 0.71708 0.30545 0.24479 0.0
C812 C 0.70372 0.34672 0.22691 0.0
C813 C 0.67741 0.34888 0.23568 0.0
C814 C 0.67208 0.33057 0.25001 0.0
C815 C 0.69173 0.309 0.25451 0.0
H816 H 0.09704 0.89424 0.40358 0.0
H817 H 0.16917 0.95293 0.40716 0.0
H818 H 0.1236 0.86045 0.42229 0.0
H819 H 0.19488 0.91964 0.42654 0.0
H820 H 0.21123 0.86921 0.47902 0.0
H821 H 0.18473 0.90082 0.45884 0.0
H822 H 0.17203 0.83046 0.42073 0.0
H823 H 0.19903 0.7987 0.44081 0.0
C824 C 0.11859 0.89989 0.40816 0.0
C825 C 0.13081 0.92652 0.4039 0.0
C826 C 0.13369 0.88055 0.41895 0.0
C827 C 0.16111 0.88762 0.42594 0.0
C828 C 0.17356 0.91391 0.42151 0.0
C829 C 0.15871 0.93302 0.41049 0.0
C830 C 0.2027 0.86039 0.46638 0.0
C831 C 0.20726 0.83146 0.46149 0.0
C832 C 0.1877 0.87854 0.45481 0.0
C833 C 0.17651 0.86804 0.43824 0.0
C834 C 0.18042 0.839 0.43348 0.0
C835 C 0.19592 0.82091 0.44492 0.0
H836 H 0.06746 0.61997 0.67855 0.0
H837 H 0.1335 0.61447 0.63873 0.0
H838 H 0.10098 0.64391 0.69942 0.0
H839 H 0.16765 0.63643 0.66011 0.0
H840 H 0.21188 0.70597 0.69487 0.0
H841 H 0.17908 0.68107 0.67391 0.0
H842 H 0.14161 0.63672 0.7182 0.0
H843 H 0.17362 0.66269 0.73923 0.0
C844 C 0.08915 0.6238 0.67423 0.0
C845 C 0.09766 0.61541 0.65688 0.0
C846 C 0.10856 0.63713 0.68635 0.0
C847 C 0.13711 0.6421 0.68151 0.0
C848 C 0.14574 0.63334 0.66424 0.0
C849 C 0.12623 0.62032 0.65204 0.0
C850 C 0.19671 0.69081 0.70012 0.0
C851 C 0.19528 0.68637 0.71871 0.0
C852 C 0.17798 0.67637 0.68808 0.0
C853 C 0.15761 0.65684 0.69432 0.0
C854 C 0.15661 0.652 0.71292 0.0
C855 C 0.1751 0.66674 0.72499 0.0
H856 H 0.46206 0.59306 0.90662 0.0
H857 H 0.38161 0.56173 0.88373 0.0
H858 H 0.43614 0.62797 0.92516 0.0
H859 H 0.35564 0.59682 0.90222 0.0
H860 H 0.3253 0.68538 0.92566 0.0
H861 H 0.35173 0.65289 0.90567 0.0
H862 H 0.40084 0.62216 0.95127 0.0
H863 H 0.37438 0.65418 0.97125 0.0
C864 C 0.43885 0.59385 0.90548 0.0
C865 C 0.42377 0.57471 0.89383 0.0
C866 C 0.42405 0.61367 0.91611 0.0
C867 C 0.39395 0.61501 0.91509 0.0
C868 C 0.37888 0.5963 0.90315 0.0
C869 C 0.39367 0.57614 0.89272 0.0
C870 C 0.34183 0.67177 0.93138 0.0
C871 C 0.34774 0.67228 0.95002 0.0
C872 C 0.3568 0.65313 0.91997 0.0
C873 C 0.37829 0.63512 0.92697 0.0
C874 C 0.38452 0.636 0.94554 0.0
C875 C 0.36927 0.65423 0.95696 0.0
H876 H 0.45861 0.8673 0.14912 0.0
H877 H 0.40711 0.94309 0.15797 0.0
H878 H 0.4268 0.83993 0.168 0.0
H879 H 0.37495 0.91556 0.17661 0.0
H880 H 0.34951 0.8647 0.22705 0.0
H881 H 0.37781 0.89265 0.20646 0.0
H882 H 0.37689 0.82126 0.1684 0.0
H883 H 0.34874 0.79317 0.18901 0.0
C884 C 0.44045 0.87808 0.15507 0.0
C885 C 0.43543 0.90737 0.15211 0.0
C886 C 0.42206 0.86235 0.16574 0.0
C887 C 0.39835 0.87559 0.1738 0.0
C888 C 0.39316 0.90481 0.17069 0.0
C889 C 0.41143 0.9205 0.1599 0.0
C890 C 0.35514 0.85502 0.21424 0.0
C891 C 0.34695 0.82664 0.20972 0.0
C892 C 0.37125 0.8711 0.2024 0.0
C893 C 0.37969 0.85912 0.18583 0.0
C894 C 0.371 0.83096 0.18116 0.0
C895 C 0.35472 0.81494 0.19293 0.0
H896 H 0.05145 0.67042 0.8719 0.0
H897 H 0.11017 0.59896 0.86803 0.0
H898 H 0.08013 0.69689 0.85072 0.0
H899 H 0.1388 0.62541 0.84698 0.0
H900 H 0.19723 0.68889 0.82057 0.0
H901 H 0.17014 0.66691 0.84433 0.0
H902 H 0.09085 0.69397 0.81866 0.0
H903 H 0.11793 0.7164 0.79504 0.0
C904 C 0.07048 0.66036 0.86655 0.0
C905 C 0.07845 0.63252 0.87166 0.0
C906 C 0.0869 0.67553 0.85441 0.0
C907 C 0.11172 0.66325 0.84711 0.0
C908 C 0.12006 0.6357 0.85254 0.0
C909 C 0.10363 0.62052 0.86465 0.0
C910 C 0.17402 0.69036 0.82005 0.0
C911 C 0.15975 0.70429 0.80583 0.0
C912 C 0.15849 0.67762 0.83364 0.0
C913 C 0.12832 0.67853 0.83336 0.0
C914 C 0.11408 0.69312 0.81939 0.0
C915 C 0.12961 0.70584 0.80578 0.0
H916 H 0.41257 0.54064 0.09024 0.0
H917 H 0.39934 0.60478 0.13212 0.0
H918 H 0.38395 0.56868 0.06936 0.0
H919 H 0.37205 0.63377 0.11082 0.0
H920 H 0.30343 0.66747 0.07161 0.0
H921 H 0.32788 0.63692 0.09343 0.0
H922 H 0.38884 0.61169 0.05313 0.0
H923 H 0.36402 0.64132 0.03132 0.0
C924 C 0.40341 0.56065 0.09506 0.0
C925 C 0.40832 0.5704 0.11291 0.0
C926 C 0.38731 0.57697 0.08297 0.0
C927 C 0.37588 0.60365 0.08833 0.0
C928 C 0.38033 0.61323 0.10626 0.0
C929 C 0.39632 0.59677 0.11841 0.0
C930 C 0.32196 0.65525 0.06742 0.0
C931 C 0.33171 0.65679 0.04971 0.0
C932 C 0.33608 0.63788 0.07995 0.0
C933 C 0.36032 0.62176 0.07505 0.0
C934 C 0.36995 0.62333 0.05732 0.0
C935 C 0.35578 0.64051 0.0448 0.0
H936 H 0.42604 0.88659 0.3875 0.0
H937 H 0.48344 0.8991 0.34349 0.0
H938 H 0.39428 0.85808 0.36763 0.0
H939 H 0.45262 0.86928 0.32396 0.0
H940 H 0.37377 0.84629 0.28902 0.0
H941 H 0.40681 0.87259 0.3091 0.0
H942 H 0.38998 0.81298 0.35138 0.0
H943 H 0.35614 0.78711 0.3314 0.0
C944 C 0.43196 0.88314 0.37362 0.0
C945 C 0.45724 0.89524 0.36708 0.0
C946 C 0.41395 0.86648 0.36228 0.0
C947 C 0.42086 0.86144 0.34417 0.0
C948 C 0.44643 0.87306 0.33776 0.0
C949 C 0.46433 0.88984 0.34905 0.0
C950 C 0.37719 0.83868 0.30257 0.0
C951 C 0.36226 0.81463 0.30862 0.0
C952 C 0.39629 0.85369 0.31407 0.0
C953 C 0.40109 0.84489 0.33186 0.0
C954 C 0.38647 0.82058 0.33784 0.0
C955 C 0.3672 0.80565 0.32635 0.0
H956 H 0.13049 0.96333 0.59071 0.0
H957 H 0.18291 0.92861 0.63367 0.0
H958 H 0.16065 0.93977 0.56856 0.0
H959 H 0.21354 0.90509 0.61135 0.0
H960 H 0.22909 0.83709 0.56457 0.0
H961 H 0.20661 0.86464 0.58868 0.0
H962 H 0.21009 0.94089 0.55677 0.0
H963 H 0.2324 0.91335 0.53256 0.0
C964 C 0.14857 0.95069 0.59539 0.0
C965 C 0.15421 0.94753 0.61389 0.0
C966 C 0.16604 0.93747 0.58271 0.0
C967 C 0.1895 0.92063 0.58822 0.0
C968 C 0.19551 0.91784 0.60674 0.0
C969 C 0.17812 0.93138 0.61948 0.0
C970 C 0.22539 0.85981 0.56277 0.0
C971 C 0.23224 0.87297 0.54656 0.0
C972 C 0.21269 0.87562 0.57664 0.0
C973 C 0.20641 0.90486 0.57455 0.0
C974 C 0.21437 0.91829 0.55865 0.0
C975 C 0.22724 0.90253 0.54482 0.0
H976 H 0.62968 0.4016 0.89139 0.0
H977 H 0.55801 0.34313 0.89488 0.0
H978 H 0.65694 0.37324 0.91297 0.0
H979 H 0.58556 0.3145 0.91643 0.0
H980 H 0.6566 0.25968 0.94501 0.0
H981 H 0.63025 0.2838 0.92073 0.0
H982 H 0.65079 0.36607 0.94573 0.0
H983 H 0.67697 0.34231 0.96977 0.0
C984 C 0.61979 0.3826 0.8967 0.0
C985 C 0.59151 0.37487 0.89163 0.0
C986 C 0.63541 0.36636 0.90905 0.0
C987 C 0.62322 0.3419 0.91658 0.0
C988 C 0.59554 0.3332 0.91079 0.0
C989 C 0.5798 0.34957 0.89845 0.0
C990 C 0.65542 0.28291 0.94531 0.0
C991 C 0.66896 0.29905 0.95931 0.0
C992 C 0.64029 0.29668 0.93145 0.0
C993 C 0.63874 0.32682 0.93125 0.0
C994 C 0.65204 0.34284 0.94534 0.0
C995 C 0.66688 0.32916 0.95921 0.0
H996 H 0.60025 0.11636 0.1587 0.0
H997 H 0.66583 0.051 0.15453 0.0
H998 H 0.63162 0.14446 0.17899 0.0
H999 H 0.69765 0.08014 0.17416 0.0
H1000 H 0.75076 0.1644 0.19275 0.0
H1001 H 0.72151 0.13286 0.17285 0.0
H1002 H 0.65391 0.13432 0.21155 0.0
H1003 H 0.68311 0.16533 0.23159 0.0
C1004 C 0.62125 0.10786 0.16212 0.0
C1005 C 0.6303 0.08117 0.15507 0.0
C1006 C 0.63924 0.12408 0.17367 0.0
C1007 C 0.66688 0.11429 0.17817 0.0
C1008 C 0.67641 0.08813 0.17079 0.0
C1009 C 0.65821 0.07158 0.15947 0.0
C1010 C 0.72978 0.15773 0.19708 0.0
C1011 C 0.71919 0.1674 0.2137 0.0
C1012 C 0.71315 0.13965 0.18574 0.0
C1013 C 0.68549 0.13143 0.19068 0.0
C1014 C 0.67513 0.1406 0.20742 0.0
C1015 C 0.69191 0.1582 0.2189 0.0
H1016 H 0.93322 0.09595 0.41455 0.0
H1017 H 0.99717 0.16263 0.4102 0.0
H1018 H 0.9071 0.12605 0.43573 0.0
H1019 H 0.97111 0.19264 0.43162 0.0
H1020 H 0.93461 0.21818 0.48765 0.0
H1021 H 0.96013 0.19228 0.46406 0.0
H1022 H 0.87929 0.17086 0.43737 0.0
H1023 H 0.85373 0.1964 0.46101 0.0
C1024 C 0.9415 0.11719 0.4179 0.0
C1025 C 0.96731 0.12685 0.41067 0.0
C1026 C 0.92653 0.13444 0.43007 0.0
C1027 C 0.93705 0.16173 0.43535 0.0
C1028 C 0.96266 0.17157 0.42798 0.0
C1029 C 0.97759 0.15435 0.41574 0.0
C1030 C 0.92229 0.20819 0.47666 0.0
C1031 C 0.89212 0.20919 0.47629 0.0
C1032 C 0.93693 0.19346 0.4631 0.0
C1033 C 0.9217 0.17935 0.44893 0.0
C1034 C 0.8916 0.18114 0.44827 0.0
C1035 C 0.87697 0.19593 0.46177 0.0
H1036 H 0.86177 0.48068 0.64208 0.0
H1037 H 0.93334 0.42185 0.64387 0.0
H1038 H 0.83508 0.44944 0.66177 0.0
H1039 H 0.90636 0.39027 0.66292 0.0
H1040 H 0.86632 0.36131 0.71477 0.0
H1041 H 0.89079 0.3918 0.69389 0.0
H1042 H 0.81168 0.40187 0.6632 0.0
H1043 H 0.78687 0.37152 0.68437 0.0
C1044 C 0.87174 0.46103 0.64658 0.0
C1045 C 0.89974 0.45384 0.64144 0.0
C1046 C 0.85633 0.44299 0.65771 0.0
C1047 C 0.86866 0.41745 0.66401 0.0
C1048 C 0.89638 0.40998 0.65851 0.0
C1049 C 0.91172 0.42793 0.64739 0.0
C1050 C 0.85404 0.36997 0.70359 0.0
C1051 C 0.8246 0.36388 0.70124 0.0
C1052 C 0.86816 0.38733 0.69153 0.0
C1053 C 0.85325 0.39911 0.67679 0.0
C1054 C 0.82373 0.39327 0.67449 0.0
C1055 C 0.80956 0.37578 0.68657 0.0
H1056 H 0.57976 0.12124 0.35911 0.0
H1057 H 0.65928 0.0739 0.36262 0.0
H1058 H 0.60144 0.1541 0.33816 0.0
H1059 H 0.68062 0.1061 0.34123 0.0
H1060 H 0.71904 0.18302 0.31438 0.0
H1061 H 0.69708 0.1553 0.33788 0.0
H1062 H 0.61726 0.15254 0.3071 0.0
H1063 H 0.63902 0.18068 0.28373 0.0
C1064 C 0.60193 0.11798 0.35552 0.0
C1065 C 0.61777 0.0949 0.3625 0.0
C1066 C 0.61426 0.13663 0.34337 0.0
C1067 C 0.64274 0.13269 0.33797 0.0
C1068 C 0.65873 0.10994 0.34523 0.0
C1069 C 0.64639 0.09127 0.35734 0.0
C1070 C 0.69672 0.17675 0.31269 0.0
C1071 C 0.68083 0.18397 0.29712 0.0
C1072 C 0.68419 0.1607 0.32612 0.0
C1073 C 0.65547 0.15152 0.32432 0.0
C1074 C 0.63934 0.15949 0.309 0.0
C1075 C 0.65188 0.17552 0.29555 0.0
H1076 H 0.96596 0.08844 0.58997 0.0
H1077 H 0.94946 0.14256 0.63653 0.0
H1078 H 0.93185 0.11614 0.57221 0.0
H1079 H 0.91636 0.17124 0.61849 0.0
H1080 H 0.83619 0.19653 0.58535 0.0
H1081 H 0.86963 0.16868 0.6037 0.0
H1082 H 0.9273 0.16248 0.5591 0.0
H1083 H 0.89365 0.18953 0.54065 0.0
C1084 C 0.95505 0.10625 0.59643 0.0
C1085 C 0.96042 0.11324 0.61469 0.0
C1086 C 0.93575 0.12238 0.58618 0.0
C1087 C 0.92144 0.146 0.59389 0.0
C1088 C 0.9268 0.15301 0.61216 0.0
C1089 C 0.94606 0.1368 0.62245 0.0
C1090 C 0.85601 0.18922 0.57948 0.0
C1091 C 0.86217 0.19515 0.56151 0.0
C1092 C 0.87526 0.17339 0.59003 0.0
C1093 C 0.90111 0.16325 0.58286 0.0
C1094 C 0.90736 0.1695 0.56495 0.0
C1095 C 0.8881 0.18517 0.5544 0.0
H1096 H 0.93337 0.457 0.83744 0.0
H1097 H 0.89618 0.41229 0.88147 0.0
H1098 H 0.91085 0.423 0.81607 0.0
H1099 H 0.87233 0.37895 0.86016 0.0
H1100 H 0.85441 0.30796 0.81869 0.0
H1101 H 0.87939 0.34048 0.83989 0.0
H1102 H 0.86649 0.41019 0.80305 0.0
H1103 H 0.84295 0.37731 0.78157 0.0
C1104 C 0.92007 0.43999 0.84248 0.0
C1105 C 0.91641 0.43719 0.86103 0.0
C1106 C 0.90702 0.42058 0.83026 0.0
C1107 C 0.88958 0.39822 0.83633 0.0
C1108 C 0.88597 0.39553 0.85498 0.0
C1109 C 0.89946 0.41469 0.8672 0.0
C1110 C 0.85706 0.33022 0.81513 0.0
C1111 C 0.84682 0.34007 0.79846 0.0
C1112 C 0.8712 0.34895 0.82733 0.0
C1113 C 0.87499 0.37806 0.82325 0.0
C1114 C 0.86455 0.38784 0.80655 0.0
C1115 C 0.85087 0.36902 0.79425 0.0
H1116 H 0.63039 0.39033 0.13728 0.0
H1117 H 0.58704 0.42688 0.09128 0.0
H1118 H 0.66301 0.36468 0.1173 0.0
H1119 H 0.62024 0.40255 0.0713 0.0
H1120 H 0.65979 0.32951 0.03966 0.0
H1121 H 0.62947 0.35642 0.06 0.0
H1122 H 0.7015 0.36828 0.09723 0.0
H1123 H 0.7316 0.34001 0.0771 0.0
C1124 C 0.62818 0.39313 0.12289 0.0
C1125 C 0.60612 0.41025 0.11575 0.0
C1126 C 0.64692 0.37861 0.11142 0.0
C1127 C 0.64417 0.38131 0.09262 0.0
C1128 C 0.62259 0.39931 0.08564 0.0
C1129 C 0.60364 0.4134 0.09706 0.0
C1130 C 0.66922 0.33795 0.05215 0.0
C1131 C 0.69811 0.33266 0.05676 0.0
C1132 C 0.65185 0.35359 0.06381 0.0
C1133 C 0.66301 0.36477 0.08026 0.0
C1134 C 0.69204 0.35969 0.0848 0.0
C1135 C 0.70936 0.34364 0.07322 0.0
loop_
_geom_bond_atom_site_label_1
_geom_bond_atom_site_label_2
_geom_bond_distance
_geom_bond_site_symmetry_2
_ccdc_geom_bond_type
H0 C19 0.949 . S
H1 C20 0.940 1_455 S
H2 C22 0.950 . S
H3 C23 0.950 . S
H4 C25 0.950 . S
H5 C28 0.950 . S
H6 C29 0.950 . S
H7 C31 0.951 . S
H8 C32 0.949 . S
H9 C34 0.949 . S
H10 C35 0.950 . S
H11 C37 0.950 . S
H12 C38 0.950 . S
H13 C40 0.945 1_565 S
H14 C43 0.950 . S
H15 C44 0.950 . S
H16 C46 0.951 . S
H17 C47 0.949 1_545 S
C18 C19 1.376 . S
C18 C23 1.386 1_455 S
C18 C24 1.483 . S
C19 H0 0.949 . S
C19 C18 1.376 . S
C19 C20 1.375 1_455 S
C20 H1 0.940 1_655 S
C20 C19 1.375 1_655 S
C20 C21 1.424 . S
C21 C20 1.424 . S
C21 C22 1.405 . S
C22 H2 0.950 . S
C22 C21 1.405 . S
C22 C23 1.367 . S
C23 H3 0.950 . S
C23 C18 1.386 1_655 S
C23 C22 1.367 . S
C24 C18 1.483 . S
C24 C25 1.382 . S
C24 C26 1.403 . S
C25 H4 0.950 . S
C25 C24 1.382 . S
C25 C41 1.411 1_545 S
C26 C24 1.403 . S
C26 C27 1.489 . S
C26 C40 1.411 . S
C27 C26 1.489 . S
C27 C28 1.383 . S
C27 C32 1.382 1_455 S
C28 H5 0.950 . S
C28 C27 1.383 . S
C28 C29 1.395 1_455 S
C29 H6 0.950 . S
C29 C28 1.395 1_655 S
C29 C30 1.288 . S
C30 C29 1.288 . S
C30 C31 1.392 . S
C31 H7 0.951 . S
C31 C30 1.392 . S
C31 C32 1.392 . S
C32 H8 0.949 . S
C32 C27 1.382 1_655 S
C32 C31 1.392 . S
C33 C34 1.376 . S
C33 C38 1.386 . S
C33 C39 1.483 . S
C34 H9 0.949 . S
C34 C33 1.376 . S
C34 C35 1.397 . S
C35 H10 0.950 . S
C35 C34 1.397 . S
C35 C36 1.391 . S
C36 C35 1.391 . S
C36 C37 1.405 . S
C37 H11 0.950 . S
C37 C36 1.405 . S
C37 C38 1.367 . S
C38 H12 0.950 . S
C38 C33 1.386 . S
C38 C37 1.367 . S
C39 C33 1.483 . S
C39 C40 1.382 1_565 S
C39 C41 1.403 . S
C40 H13 0.945 1_545 S
C40 C26 1.411 . S
C40 C39 1.382 1_545 S
C41 C25 1.411 1_565 S
C41 C39 1.403 . S
C41 C42 1.489 . S
C42 C41 1.489 . S
C42 C43 1.383 . S
C42 C47 1.382 . S
C43 H14 0.950 . S
C43 C42 1.383 . S
C43 C44 1.395 . S
C44 H15 0.950 . S
C44 C43 1.395 . S
C44 C45 1.288 . S
C45 C44 1.288 . S
C45 C46 1.392 . S
C46 H16 0.951 . S
C46 C45 1.392 . S
C46 C47 1.392 . S
C47 H17 0.949 1_565 S
C47 C42 1.382 . S
C47 C46 1.392 . S
H48 C67 0.949 1_455 S
H49 C68 0.950 . S
H50 C70 0.950 . S
H51 C71 0.950 . S
H52 C73 0.950 . S
H53 C76 0.950 . S
H54 C77 0.950 . S
H55 C79 0.951 . S
H56 C80 0.949 . S
H57 C82 0.949 . S
H58 C83 0.950 . S
H59 C85 0.950 . S
H60 C86 0.950 . S
H61 C88 0.950 . S
H62 C91 0.950 . S
H63 C92 0.950 . S
H64 C94 0.951 . S
H65 C95 0.949 . S
C66 C67 1.376 . S
C66 C71 1.386 . S
C66 C72 1.483 . S
C67 H48 0.949 1_655 S
C67 C66 1.376 . S
C67 C68 1.397 . S
C68 H49 0.950 . S
C68 C67 1.397 . S
C68 C69 1.391 . S
C69 C68 1.391 . S
C69 C70 1.405 . S
C70 H50 0.950 . S
C70 C69 1.405 . S
C70 C71 1.367 . S
C71 H51 0.950 . S
C71 C66 1.386 . S
C71 C70 1.367 . S
C72 C66 1.483 . S
C72 C73 1.382 1_655 S
C72 C74 1.403 . S
C73 H52 0.950 . S
C73 C72 1.382 1_455 S
C73 C89 1.411 . S
C74 C72 1.403 . S
C74 C75 1.489 . S
C74 C88 1.411 1_655 S
C75 C74 1.489 . S
C75 C76 1.383 . S
C75 C80 1.382 . S
C76 H53 0.950 . S
C76 C75 1.383 . S
C76 C77 1.395 . S
C77 H54 0.950 . S
C77 C76 1.395 . S
C77 C78 1.288 . S
C78 C77 1.288 . S
C78 C79 1.392 . S
C79 H55 0.951 . S
C79 C78 1.392 . S
C79 C80 1.392 . S
C80 H56 0.949 . S
C80 C75 1.382 . S
C80 C79 1.392 . S
C81 C82 1.376 . S
C81 C86 1.386 . S
C81 C87 1.483 . S
C82 H57 0.949 . S
C82 C81 1.376 . S
C82 C83 1.397 . S
C83 H58 0.950 . S
C83 C82 1.397 . S
C83 C84 1.391 . S
C84 C83 1.391 . S
C84 C85 1.405 . S
C85 H59 0.950 . S
C85 C84 1.405 . S
C85 C86 1.367 . S
C86 H60 0.950 . S
C86 C81 1.386 . S
C86 C85 1.367 . S
C87 C81 1.483 . S
C87 C88 1.382 . S
C87 C89 1.403 . S
C88 H61 0.950 . S
C88 C74 1.411 1_455 S
C88 C87 1.382 . S
C89 C73 1.411 . S
C89 C87 1.403 . S
C89 C90 1.489 . S
C90 C89 1.489 . S
C90 C91 1.383 . S
C90 C95 1.382 . S
C91 H62 0.950 . S
C91 C90 1.383 . S
C91 C92 1.395 . S
C92 H63 0.950 . S
C92 C91 1.395 . S
C92 C93 1.288 . S
C93 C92 1.288 . S
C93 C94 1.392 . S
C94 H64 0.951 . S
C94 C93 1.392 . S
C94 C95 1.392 . S
C95 H65 0.949 . S
C95 C90 1.382 . S
C95 C94 1.392 . S
H96 C115 0.949 . S
H97 C116 0.950 . S
H98 C118 0.950 . S
H99 C119 0.950 . S
H100 C121 0.950 . S
H101 C124 0.950 . S
H102 C125 0.950 . S
H103 C127 0.951 . S
H104 C128 0.949 . S
H105 C130 0.949 . S
H106 C131 0.950 . S
H107 C133 0.950 . S
H108 C134 0.950 . S
H109 C136 0.950 . S
H110 C139 0.950 . S
H111 C140 0.950 . S
H112 C142 0.951 . S
H113 C143 0.949 . S
C114 C115 1.376 . S
C114 C119 1.386 . S
C114 C120 1.483 . S
C115 H96 0.949 . S
C115 C114 1.376 . S
C115 C116 1.397 . S
C116 H97 0.950 . S
C116 C115 1.397 . S
C116 C117 1.391 . S
C117 C116 1.391 . S
C117 C118 1.405 . S
C118 H98 0.950 . S
C118 C117 1.405 . S
C118 C119 1.367 . S
C119 H99 0.950 . S
C119 C114 1.386 . S
C119 C118 1.367 . S
C120 C114 1.483 . S
C120 C121 1.382 . S
C120 C122 1.403 . S
C121 H100 0.950 . S
C121 C120 1.382 . S
C121 C137 1.411 . S
C122 C120 1.403 . S
C122 C123 1.489 . S
C122 C136 1.411 . S
C123 C122 1.489 . S
C123 C124 1.383 . S
C123 C128 1.382 . S
C124 H101 0.950 . S
C124 C123 1.383 . S
C124 C125 1.395 . S
C125 H102 0.950 . S
C125 C124 1.395 . S
C125 C126 1.288 . S
C126 C125 1.288 . S
C126 C127 1.392 . S
C127 H103 0.951 . S
C127 C126 1.392 . S
C127 C128 1.392 . S
C128 H104 0.949 . S
C128 C123 1.382 . S
C128 C127 1.392 . S
C129 C130 1.376 . S
C129 C134 1.386 . S
C129 C135 1.483 . S
C130 H105 0.949 . S
C130 C129 1.376 . S
C130 C131 1.397 . S
C131 H106 0.950 . S
C131 C130 1.397 . S
C131 C132 1.391 . S
C132 C131 1.391 . S
C132 C133 1.405 . S
C133 H107 0.950 . S
C133 C132 1.405 . S
C133 C134 1.367 . S
C134 H108 0.950 . S
C134 C129 1.386 . S
C134 C133 1.367 . S
C135 C129 1.483 . S
C135 C136 1.382 . S
C135 C137 1.403 . S
C136 H109 0.950 . S
C136 C122 1.411 . S
C136 C135 1.382 . S
C137 C121 1.411 . S
C137 C135 1.403 . S
C137 C138 1.489 . S
C138 C137 1.489 . S
C138 C139 1.383 . S
C138 C143 1.382 . S
C139 H110 0.950 . S
C139 C138 1.383 . S
C139 C140 1.395 . S
C140 H111 0.950 . S
C140 C139 1.395 . S
C140 C141 1.288 . S
C141 C140 1.288 . S
C141 C142 1.392 . S
C142 H112 0.951 . S
C142 C141 1.392 . S
C142 C143 1.392 . S
C143 H113 0.949 . S
C143 C138 1.382 . S
C143 C142 1.392 . S
H144 C163 0.949 . S
H145 C164 0.950 . S
H146 C166 0.950 . S
H147 C167 0.950 . S
H148 C169 0.950 . S
H149 C172 0.950 . S
H150 C173 0.950 . S
H151 C175 0.951 . S
H152 C176 0.949 . S
H153 C178 0.949 . S
H154 C179 0.950 . S
H155 C181 0.950 . S
H156 C182 0.950 . S
H157 C184 0.950 . S
H158 C187 0.950 . S
H159 C188 0.950 . S
H160 C190 0.951 . S
H161 C191 0.949 . S
C162 C163 1.376 . S
C162 C167 1.386 . S
C162 C168 1.483 . S
C163 H144 0.949 . S
C163 C162 1.376 . S
C163 C164 1.397 . S
C164 H145 0.950 . S
C164 C163 1.397 . S
C164 C165 1.391 . S
C165 C164 1.391 . S
C165 C166 1.405 . S
C166 H146 0.950 . S
C166 C165 1.405 . S
C166 C167 1.367 . S
C167 H147 0.950 . S
C167 C162 1.386 . S
C167 C166 1.367 . S
C168 C162 1.483 . S
C168 C169 1.382 . S
C168 C170 1.403 . S
C169 H148 0.950 . S
C169 C168 1.382 . S
C169 C185 1.411 1_565 S
C170 C168 1.403 . S
C170 C171 1.489 . S
C170 C184 1.411 1_565 S
C171 C170 1.489 . S
C171 C172 1.383 . S
C171 C176 1.382 . S
C172 H149 0.950 . S
C172 C171 1.383 . S
C172 C173 1.395 . S
C173 H150 0.950 . S
C173 C172 1.395 . S
C173 C174 1.288 . S
C174 C173 1.288 . S
C174 C175 1.392 . S
C175 H151 0.951 . S
C175 C174 1.392 . S
C175 C176 1.392 . S
C176 H152 0.949 . S
C176 C171 1.382 . S
C176 C175 1.392 . S
C177 C178 1.376 . S
C177 C182 1.386 . S
C177 C183 1.483 . S
C178 H153 0.949 . S
C178 C177 1.376 . S
C178 C179 1.397 . S
C179 H154 0.950 . S
C179 C178 1.397 . S
C179 C180 1.391 . S
C180 C179 1.391 . S
C180 C181 1.405 . S
C181 H155 0.950 . S
C181 C180 1.405 . S
C181 C182 1.367 . S
C182 H156 0.950 . S
C182 C177 1.386 . S
C182 C181 1.367 . S
C183 C177 1.483 . S
C183 C184 1.382 . S
C183 C185 1.403 . S
C184 H157 0.950 . S
C184 C170 1.411 1_545 S
C184 C183 1.382 . S
C185 C169 1.411 1_545 S
C185 C183 1.403 . S
C185 C186 1.489 . S
C186 C185 1.489 . S
C186 C187 1.383 . S
C186 C191 1.382 . S
C187 H158 0.950 . S
C187 C186 1.383 . S
C187 C188 1.395 . S
C188 H159 0.950 . S
C188 C187 1.395 . S
C188 C189 1.288 . S
C189 C188 1.288 . S
C189 C190 1.392 . S
C190 H160 0.951 . S
C190 C189 1.392 . S
C190 C191 1.392 . S
C191 H161 0.949 . S
C191 C186 1.382 . S
C191 C190 1.392 . S
H192 C211 0.949 . S
H193 C212 0.950 . S
H194 C214 0.950 . S
H195 C215 0.950 . S
H196 C217 0.950 . S
H197 C220 0.950 . S
H198 C221 0.950 . S
H199 C223 0.951 . S
H200 C224 0.949 . S
H201 C226 0.949 . S
H202 C227 0.950 . S
H203 C229 0.950 . S
H204 C230 0.950 . S
H205 C232 0.950 . S
H206 C235 0.950 . S
H207 C236 0.950 . S
H208 C238 0.951 . S
H209 C239 0.949 . S
C210 C211 1.376 . S
C210 C215 1.386 . S
C210 C216 1.483 . S
C211 H192 0.949 . S
C211 C210 1.376 . S
C211 C212 1.397 . S
C212 H193 0.950 . S
C212 C211 1.397 . S
C212 C213 1.391 . S
C213 C212 1.391 . S
C213 C214 1.405 . S
C214 H194 0.950 . S
C214 C213 1.405 . S
C214 C215 1.367 . S
C215 H195 0.950 . S
C215 C210 1.386 . S
C215 C214 1.367 . S
C216 C210 1.483 . S
C216 C217 1.382 1_455 S
C216 C218 1.403 . S
C217 H196 0.950 . S
C217 C216 1.382 1_655 S
C217 C233 1.411 . S
C218 C216 1.403 . S
C218 C219 1.489 . S
C218 C232 1.411 . S
C219 C218 1.489 . S
C219 C220 1.383 . S
C219 C224 1.382 . S
C220 H197 0.950 . S
C220 C219 1.383 . S
C220 C221 1.395 . S
C221 H198 0.950 . S
C221 C220 1.395 . S
C221 C222 1.288 . S
C222 C221 1.288 . S
C222 C223 1.392 . S
C223 H199 0.951 . S
C223 C222 1.392 . S
C223 C224 1.392 . S
C224 H200 0.949 . S
C224 C219 1.382 . S
C224 C223 1.392 . S
C225 C226 1.376 . S
C225 C230 1.386 . S
C225 C231 1.483 . S
C226 H201 0.949 . S
C226 C225 1.376 . S
C226 C227 1.397 . S
C227 H202 0.950 . S
C227 C226 1.397 . S
C227 C228 1.391 . S
C228 C227 1.391 . S
C228 C229 1.405 . S
C229 H203 0.950 . S
C229 C228 1.405 . S
C229 C230 1.367 . S
C230 H204 0.950 . S
C230 C225 1.386 . S
C230 C229 1.367 . S
C231 C225 1.483 . S
C231 C232 1.382 1_655 S
C231 C233 1.403 . S
C232 H205 0.950 . S
C232 C218 1.411 . S
C232 C231 1.382 1_455 S
C233 C217 1.411 . S
C233 C231 1.403 . S
C233 C234 1.489 . S
C234 C233 1.489 . S
C234 C235 1.383 . S
C234 C239 1.382 . S
C235 H206 0.950 . S
C235 C234 1.383 . S
C235 C236 1.395 . S
C236 H207 0.950 . S
C236 C235 1.395 . S
C236 C237 1.288 . S
C237 C236 1.288 . S
C237 C238 1.392 . S
C238 H208 0.951 . S
C238 C237 1.392 . S
C238 C239 1.392 . S
C239 H209 0.949 . S
C239 C234 1.382 . S
C239 C238 1.392 . S
H240 C259 0.949 . S
H241 C260 0.950 . S
H242 C262 0.950 . S
H243 C263 0.950 . S
H244 C265 0.950 . S
H245 C268 0.950 . S
H246 C269 0.950 . S
H247 C271 0.951 . S
H248 C272 0.949 . S
H249 C274 0.949 . S
H250 C275 0.950 . S
H251 C277 0.950 . S
H252 C278 0.950 . S
H253 C280 0.950 . S
H254 C283 0.950 . S
H255 C284 0.950 . S
H256 C286 0.951 . S
H257 C287 0.949 . S
C258 C259 1.376 . S
C258 C263 1.386 . S
C258 C264 1.483 . S
C259 H240 0.949 . S
C259 C258 1.376 . S
C259 C260 1.397 . S
C260 H241 0.950 . S
C260 C259 1.397 . S
C260 C261 1.391 . S
C261 C260 1.391 . S
C261 C262 1.405 . S
C262 H242 0.950 . S
C262 C261 1.405 . S
C262 C263 1.367 . S
C263 H243 0.950 . S
C263 C258 1.386 . S
C263 C262 1.367 . S
C264 C258 1.483 . S
C264 C265 1.382 . S
C264 C266 1.403 . S
C265 H244 0.950 . S
C265 C264 1.382 . S
C265 C281 1.411 . S
C266 C264 1.403 . S
C266 C267 1.489 . S
C266 C280 1.411 . S
C267 C266 1.489 . S
C267 C268 1.383 . S
C267 C272 1.382 . S
C268 H245 0.950 . S
C268 C267 1.383 . S
C268 C269 1.395 . S
C269 H246 0.950 . S
C269 C268 1.395 . S
C269 C270 1.288 . S
C270 C269 1.288 . S
C270 C271 1.392 . S
C271 H247 0.951 . S
C271 C270 1.392 . S
C271 C272 1.392 . S
C272 H248 0.949 . S
C272 C267 1.382 . S
C272 C271 1.392 . S
C273 C274 1.376 . S
C273 C278 1.386 . S
C273 C279 1.483 . S
C274 H249 0.949 . S
C274 C273 1.376 . S
C274 C275 1.397 . S
C275 H250 0.950 . S
C275 C274 1.397 . S
C275 C276 1.391 . S
C276 C275 1.391 . S
C276 C277 1.405 . S
C277 H251 0.950 . S
C277 C276 1.405 . S
C277 C278 1.367 . S
C278 H252 0.950 . S
C278 C273 1.386 . S
C278 C277 1.367 . S
C279 C273 1.483 . S
C279 C280 1.382 . S
C279 C281 1.403 . S
C280 H253 0.950 . S
C280 C266 1.411 . S
C280 C279 1.382 . S
C281 C265 1.411 . S
C281 C279 1.403 . S
C281 C282 1.489 . S
C282 C281 1.489 . S
C282 C283 1.383 . S
C282 C287 1.382 . S
C283 H254 0.950 . S
C283 C282 1.383 . S
C283 C284 1.395 . S
C284 H255 0.950 . S
C284 C283 1.395 . S
C284 C285 1.288 . S
C285 C284 1.288 . S
C285 C286 1.392 . S
C286 H256 0.951 . S
C286 C285 1.392 . S
C286 C287 1.392 . S
C287 H257 0.949 . S
C287 C282 1.382 . S
C287 C286 1.392 . S
H288 C307 0.949 . S
H289 C308 0.950 . S
H290 C310 0.950 . S
H291 C311 0.950 . S
H292 C313 0.950 . S
H293 C316 0.950 . S
H294 C317 0.950 . S
H295 C319 0.951 . S
H296 C320 0.949 1_545 S
H297 C322 0.949 . S
H298 C323 0.950 . S
H299 C325 0.950 . S
H300 C326 0.950 . S
H301 C328 0.950 . S
H302 C331 0.950 . S
H303 C332 0.950 . S
H304 C334 0.951 . S
H305 C335 0.949 1_565 S
C306 C307 1.376 . S
C306 C311 1.386 . S
C306 C312 1.483 . S
C307 H288 0.949 . S
C307 C306 1.376 . S
C307 C308 1.397 . S
C308 H289 0.950 . S
C308 C307 1.397 . S
C308 C309 1.391 . S
C309 C308 1.391 . S
C309 C310 1.405 . S
C310 H290 0.950 . S
C310 C309 1.405 . S
C310 C311 1.367 . S
C311 H291 0.950 . S
C311 C306 1.386 . S
C311 C310 1.367 . S
C312 C306 1.483 . S
C312 C313 1.382 . S
C312 C314 1.403 . S
C313 H292 0.950 . S
C313 C312 1.382 . S
C313 C329 1.411 1_565 S
C314 C312 1.403 . S
C314 C315 1.489 . S
C314 C328 1.411 1_565 S
C315 C314 1.489 . S
C315 C316 1.383 . S
C315 C320 1.382 . S
C316 H293 0.950 . S
C316 C315 1.383 . S
C316 C317 1.395 . S
C317 H294 0.950 . S
C317 C316 1.395 . S
C317 C318 1.288 . S
C318 C317 1.288 . S
C318 C319 1.392 . S
C319 H295 0.951 . S
C319 C318 1.392 . S
C319 C320 1.392 . S
C320 H296 0.949 1_565 S
C320 C315 1.382 . S
C320 C319 1.392 . S
C321 C322 1.376 . S
C321 C326 1.386 . S
C321 C327 1.483 . S
C322 H297 0.949 . S
C322 C321 1.376 . S
C322 C323 1.397 . S
C323 H298 0.950 . S
C323 C322 1.397 . S
C323 C324 1.391 . S
C324 C323 1.391 . S
C324 C325 1.405 . S
C325 H299 0.950 . S
C325 C324 1.405 . S
C325 C326 1.367 . S
C326 H300 0.950 . S
C326 C321 1.386 . S
C326 C325 1.367 . S
C327 C321 1.483 . S
C327 C328 1.382 . S
C327 C329 1.403 . S
C328 H301 0.950 . S
C328 C314 1.411 1_545 S
C328 C327 1.382 . S
C329 C313 1.411 1_545 S
C329 C327 1.403 . S
C329 C330 1.489 . S
C330 C329 1.489 . S
C330 C331 1.383 . S
C330 C335 1.382 . S
C331 H302 0.950 . S
C331 C330 1.383 . S
C331 C332 1.395 . S
C332 H303 0.950 . S
C332 C331 1.395 . S
C332 C333 1.288 . S
C333 C332 1.288 . S
C333 C334 1.392 . S
C334 H304 0.951 . S
C334 C333 1.392 . S
C334 C335 1.392 . S
C335 H305 0.949 1_545 S
C335 C330 1.382 . S
C335 C334 1.392 . S
H336 C355 0.949 . S
H337 C356 0.935 1_455 S
H338 C358 0.950 . S
H339 C359 0.950 . S
H340 C361 0.950 . S
H341 C364 0.950 . S
H342 C365 0.950 . S
H343 C367 0.951 . S
H344 C368 0.949 . S
H345 C370 0.949 . S
H346 C371 0.950 . S
H347 C373 0.950 . S
H348 C374 0.950 1_545 S
H349 C376 0.950 . S
H350 C379 0.950 . S
H351 C380 0.950 . S
H352 C382 0.951 . S
H353 C383 0.949 . S
C354 C355 1.376 . S
C354 C359 1.386 1_455 S
C354 C360 1.483 . S
C355 H336 0.949 . S
C355 C354 1.376 . S
C355 C356 1.377 1_455 S
C356 H337 0.935 1_655 S
C356 C355 1.377 1_655 S
C356 C357 1.427 . S
C357 C356 1.427 . S
C357 C358 1.405 . S
C358 H338 0.950 . S
C358 C357 1.405 . S
C358 C359 1.367 . S
C359 H339 0.950 . S
C359 C354 1.386 1_655 S
C359 C358 1.367 . S
C360 C354 1.483 . S
C360 C361 1.382 . S
C360 C362 1.403 . S
C361 H340 0.950 . S
C361 C360 1.382 . S
C361 C377 1.411 . S
C362 C360 1.403 . S
C362 C363 1.489 . S
C362 C376 1.411 . S
C363 C362 1.489 . S
C363 C364 1.383 . S
C363 C368 1.382 1_455 S
C364 H341 0.950 . S
C364 C363 1.383 . S
C364 C365 1.395 1_455 S
C365 H342 0.950 . S
C365 C364 1.395 1_655 S
C365 C366 1.288 . S
C366 C365 1.288 . S
C366 C367 1.392 . S
C367 H343 0.951 . S
C367 C366 1.392 . S
C367 C368 1.392 . S
C368 H344 0.949 . S
C368 C363 1.382 1_655 S
C368 C367 1.392 . S
C369 C370 1.376 . S
C369 C374 1.386 . S
C369 C375 1.483 1_565 S
C370 H345 0.949 . S
C370 C369 1.376 . S
C370 C371 1.397 . S
C371 H346 0.950 . S
C371 C370 1.397 . S
C371 C372 1.391 . S
C372 C371 1.391 . S
C372 C373 1.405 . S
C373 H347 0.950 . S
C373 C372 1.405 . S
C373 C374 1.367 . S
C374 H348 0.950 1_565 S
C374 C369 1.386 . S
C374 C373 1.367 . S
C375 C369 1.483 1_545 S
C375 C376 1.382 . S
C375 C377 1.403 . S
C376 H349 0.950 . S
C376 C362 1.411 . S
C376 C375 1.382 . S
C377 C361 1.411 . S
C377 C375 1.403 . S
C377 C378 1.489 1_545 S
C378 C377 1.489 1_565 S
C378 C379 1.383 . S
C378 C383 1.382 1_565 S
C379 H350 0.950 . S
C379 C378 1.383 . S
C379 C380 1.395 . S
C380 H351 0.950 . S
C380 C379 1.395 . S
C380 C381 1.288 . S
C381 C380 1.288 . S
C381 C382 1.392 . S
C382 H352 0.951 . S
C382 C381 1.392 . S
C382 C383 1.392 1_565 S
C383 H353 0.949 . S
C383 C378 1.382 1_545 S
C383 C382 1.392 1_545 S
Zn384 O387 2.031 . S
Zn384 O389 2.049 . S
Zn384 O394 2.067 . S
Zn385 O386 1.962 . S
Zn385 O388 1.986 . S
Zn385 O390 1.996 . S
Zn385 O393 1.956 . S
O386 Zn385 1.962 . S
O386 C391 1.254 . S
O387 Zn384 2.031 . S
O387 C391 1.269 1_556 S
O388 Zn385 1.986 . S
O388 C395 1.262 . S
O389 Zn384 2.049 . S
O389 C397 1.260 1_556 S
O390 Zn385 1.996 . S
O390 C397 1.257 . S
C391 O386 1.254 . S
C391 O387 1.269 1_554 S
C392 O393 1.233 1_556 S
C392 O394 1.270 . S
O393 Zn385 1.956 . S
O393 C392 1.233 1_554 S
O394 Zn384 2.067 . S
O394 C392 1.270 . S
C395 O388 1.262 . S
C395 O396 1.232 . S
O396 C395 1.232 . S
C397 O389 1.260 1_554 S
C397 O390 1.257 . S
Zn398 O401 2.031 . S
Zn398 O403 2.049 . S
Zn398 O408 2.067 . S
Zn399 O400 1.962 . S
Zn399 O402 1.986 . S
Zn399 O404 1.996 . S
Zn399 O407 1.943 . S
O400 Zn399 1.962 . S
O400 C405 1.254 . S
O401 Zn398 2.031 . S
O401 C405 1.269 . S
O402 Zn399 1.986 . S
O402 C409 1.262 . S
O403 Zn398 2.049 . S
O403 C411 1.260 . S
O404 Zn399 1.996 . S
O404 C411 1.257 . S
C405 O400 1.254 . S
C405 O401 1.269 . S
C406 O407 1.249 . S
C406 O408 1.270 . S
O407 Zn399 1.943 . S
O407 C406 1.249 . S
O408 Zn398 2.067 . S
O408 C406 1.270 . S
C409 O402 1.262 . S
C409 O410 1.232 . S
O410 C409 1.232 . S
C411 O403 1.260 . S
C411 O404 1.257 . S
Zn412 O415 2.031 . S
Zn412 O417 2.049 . S
Zn412 O422 2.067 . S
Zn413 O414 1.962 . S
Zn413 O416 1.986 . S
Zn413 O418 1.996 . S
Zn413 O421 1.943 . S
O414 Zn413 1.962 . S
O414 C419 1.254 . S
O415 Zn412 2.031 . S
O415 C419 1.269 . S
O416 Zn413 1.986 . S
O416 C423 1.262 . S
O417 Zn412 2.049 . S
O417 C425 1.260 . S
O418 Zn413 1.996 . S
O418 C425 1.257 . S
C419 O414 1.254 . S
C419 O415 1.269 . S
C420 O421 1.249 . S
C420 O422 1.270 . S
O421 Zn413 1.943 . S
O421 C420 1.249 . S
O422 Zn412 2.067 . S
O422 C420 1.270 . S
C423 O416 1.262 . S
C423 O424 1.232 . S
O424 C423 1.232 . S
C425 O417 1.260 . S
C425 O418 1.257 . S
Zn426 O429 2.031 . S
Zn426 O431 2.049 . S
Zn426 O436 2.067 . S
Zn427 O428 1.962 . S
Zn427 O430 1.986 . S
Zn427 O432 1.996 . S
Zn427 O435 1.943 . S
O428 Zn427 1.962 . S
O428 C433 1.254 . S
O429 Zn426 2.031 . S
O429 C433 1.269 . S
O430 Zn427 1.986 . S
O430 C437 1.262 . S
O431 Zn426 2.049 . S
O431 C439 1.260 . S
O432 Zn427 1.996 . S
O432 C439 1.257 . S
C433 O428 1.254 . S
C433 O429 1.269 . S
C434 O435 1.249 . S
C434 O436 1.270 . S
O435 Zn427 1.943 . S
O435 C434 1.249 . S
O436 Zn426 2.067 . S
O436 C434 1.270 . S
C437 O430 1.262 . S
C437 O438 1.232 . S
O438 C437 1.232 . S
C439 O431 1.260 . S
C439 O432 1.257 . S
Zn440 O443 2.031 . S
Zn440 O445 2.049 . S
Zn440 O450 2.067 . S
Zn441 O442 1.962 . S
Zn441 O444 1.986 . S
Zn441 O446 1.996 . S
Zn441 O449 1.943 . S
O442 Zn441 1.962 . S
O442 C447 1.254 . S
O443 Zn440 2.031 . S
O443 C447 1.269 . S
O444 Zn441 1.986 . S
O444 C451 1.262 . S
O445 Zn440 2.049 . S
O445 C453 1.260 . S
O446 Zn441 1.996 . S
O446 C453 1.257 . S
C447 O442 1.254 . S
C447 O443 1.269 . S
C448 O449 1.249 . S
C448 O450 1.270 . S
O449 Zn441 1.943 . S
O449 C448 1.249 . S
O450 Zn440 2.067 . S
O450 C448 1.270 . S
C451 O444 1.262 . S
C451 O452 1.232 . S
O452 C451 1.232 . S
C453 O445 1.260 . S
C453 O446 1.257 . S
Zn454 O457 2.031 . S
Zn454 O459 2.049 . S
Zn454 O464 2.067 . S
Zn455 O456 1.962 . S
Zn455 O458 1.986 . S
Zn455 O460 1.996 . S
Zn455 O463 1.943 . S
O456 Zn455 1.962 . S
O456 C461 1.254 . S
O457 Zn454 2.031 . S
O457 C461 1.269 . S
O458 Zn455 1.986 . S
O458 C465 1.262 . S
O459 Zn454 2.049 . S
O459 C467 1.260 . S
O460 Zn455 1.996 . S
O460 C467 1.257 . S
C461 O456 1.254 . S
C461 O457 1.269 . S
C462 O463 1.249 . S
C462 O464 1.270 . S
O463 Zn455 1.943 . S
O463 C462 1.249 . S
O464 Zn454 2.067 . S
O464 C462 1.270 . S
C465 O458 1.262 . S
C465 O466 1.232 . S
O466 C465 1.232 . S
C467 O459 1.260 . S
C467 O460 1.257 . S
Zn468 O471 2.031 . S
Zn468 O473 2.049 . S
Zn468 O478 2.067 . S
Zn469 O470 1.962 . S
Zn469 O472 1.986 . S
Zn469 O474 1.996 . S
Zn469 O477 1.943 1_556 S
O470 Zn469 1.962 . S
O470 C475 1.254 1_556 S
O471 Zn468 2.031 . S
O471 C475 1.269 . S
O472 Zn469 1.986 . S
O472 C479 1.262 . S
O473 Zn468 2.049 . S
O473 C481 1.260 . S
O474 Zn469 1.996 . S
O474 C481 1.257 1_556 S
C475 O470 1.254 1_554 S
C475 O471 1.269 . S
C476 O477 1.249 . S
C476 O478 1.270 . S
O477 Zn469 1.943 1_554 S
O477 C476 1.249 . S
O478 Zn468 2.067 . S
O478 C476 1.270 . S
C479 O472 1.262 . S
C479 O480 1.232 . S
O480 C479 1.232 . S
C481 O473 1.260 . S
C481 O474 1.257 1_554 S
Zn482 O485 2.031 . S
Zn482 O487 2.049 . S
Zn482 O492 2.067 . S
Zn483 O484 1.962 . S
Zn483 O486 1.986 . S
Zn483 O488 1.996 . S
Zn483 O491 1.943 . S
O484 Zn483 1.962 . S
O484 C489 1.254 . S
O485 Zn482 2.031 . S
O485 C489 1.269 . S
O486 Zn483 1.986 . S
O486 C493 1.262 . S
O487 Zn482 2.049 . S
O487 C495 1.260 . S
O488 Zn483 1.996 . S
O488 C495 1.257 . S
C489 O484 1.254 . S
C489 O485 1.269 . S
C490 O491 1.249 . S
C490 O492 1.270 . S
O491 Zn483 1.943 . S
O491 C490 1.249 . S
O492 Zn482 2.067 . S
O492 C490 1.270 . S
C493 O486 1.262 . S
C493 O494 1.232 . S
O494 C493 1.232 . S
C495 O487 1.260 . S
C495 O488 1.257 . S
H496 C504 0.950 . S
H497 C509 0.950 . S
H498 C506 0.950 . S
H499 C508 0.950 . S
H500 C510 0.950 . S
H501 C512 0.950 . S
H502 C514 0.950 . S
H503 C515 0.950 . S
C504 H496 0.950 . S
C504 C505 1.386 . S
C504 C506 1.391 . S
C505 C504 1.386 . S
C505 C509 1.393 . S
C506 H498 0.950 . S
C506 C504 1.391 . S
C506 C507 1.400 . S
C507 C506 1.400 . S
C507 C508 1.398 . S
C507 C513 1.491 . S
C508 H499 0.950 . S
C508 C507 1.398 . S
C508 C509 1.391 . S
C509 H497 0.950 . S
C509 C505 1.393 . S
C509 C508 1.391 . S
C510 H500 0.950 . S
C510 C511 1.386 . S
C510 C512 1.391 . S
C511 C510 1.386 . S
C511 C515 1.393 . S
C512 H501 0.950 . S
C512 C510 1.391 . S
C512 C513 1.400 . S
C513 C507 1.491 . S
C513 C512 1.400 . S
C513 C514 1.398 . S
C514 H502 0.950 . S
C514 C513 1.398 . S
C514 C515 1.391 . S
C515 H503 0.950 . S
C515 C511 1.393 . S
C515 C514 1.391 . S
H516 C524 0.950 . S
H517 C529 0.950 . S
H518 C526 0.950 . S
H519 C528 0.950 . S
H520 C530 0.950 . S
H521 C532 0.950 . S
H522 C534 0.950 . S
H523 C535 0.950 . S
C524 H516 0.950 . S
C524 C525 1.386 . S
C524 C526 1.391 . S
C525 C524 1.386 . S
C525 C529 1.393 . S
C526 H518 0.950 . S
C526 C524 1.391 . S
C526 C527 1.400 . S
C527 C526 1.400 . S
C527 C528 1.398 . S
C527 C533 1.491 . S
C528 H519 0.950 . S
C528 C527 1.398 . S
C528 C529 1.391 . S
C529 H517 0.950 . S
C529 C525 1.393 . S
C529 C528 1.391 . S
C530 H520 0.950 . S
C530 C531 1.386 . S
C530 C532 1.391 . S
C531 C530 1.386 . S
C531 C535 1.393 . S
C532 H521 0.950 . S
C532 C530 1.391 . S
C532 C533 1.400 . S
C533 C527 1.491 . S
C533 C532 1.400 . S
C533 C534 1.398 . S
C534 H522 0.950 . S
C534 C533 1.398 . S
C534 C535 1.391 . S
C535 H523 0.950 . S
C535 C531 1.393 . S
C535 C534 1.391 . S
H536 C544 0.950 . S
H537 C549 0.950 . S
H538 C546 0.950 . S
H539 C548 0.950 . S
H540 C550 0.950 . S
H541 C552 0.950 . S
H542 C554 0.950 . S
H543 C555 0.950 . S
C544 H536 0.950 . S
C544 C545 1.386 . S
C544 C546 1.391 . S
C545 C544 1.386 . S
C545 C549 1.393 . S
C546 H538 0.950 . S
C546 C544 1.391 . S
C546 C547 1.400 . S
C547 C546 1.400 . S
C547 C548 1.398 . S
C547 C553 1.491 . S
C548 H539 0.950 . S
C548 C547 1.398 . S
C548 C549 1.391 . S
C549 H537 0.950 . S
C549 C545 1.393 . S
C549 C548 1.391 . S
C550 H540 0.950 . S
C550 C551 1.386 . S
C550 C552 1.391 . S
C551 C550 1.386 . S
C551 C555 1.393 . S
C552 H541 0.950 . S
C552 C550 1.391 . S
C552 C553 1.400 . S
C553 C547 1.491 . S
C553 C552 1.400 . S
C553 C554 1.398 . S
C554 H542 0.950 . S
C554 C553 1.398 . S
C554 C555 1.391 . S
C555 H543 0.950 . S
C555 C551 1.393 . S
C555 C554 1.391 . S
H556 C564 0.950 . S
H557 C569 0.950 . S
H558 C566 0.950 . S
H559 C568 0.950 . S
H560 C570 0.950 . S
H561 C572 0.950 . S
H562 C574 0.950 . S
H563 C575 0.950 . S
C564 H556 0.950 . S
C564 C565 1.386 . S
C564 C566 1.391 . S
C565 C564 1.386 . S
C565 C569 1.393 . S
C566 H558 0.950 . S
C566 C564 1.391 . S
C566 C567 1.400 . S
C567 C566 1.400 . S
C567 C568 1.398 . S
C567 C573 1.491 . S
C568 H559 0.950 . S
C568 C567 1.398 . S
C568 C569 1.391 . S
C569 H557 0.950 . S
C569 C565 1.393 . S
C569 C568 1.391 . S
C570 H560 0.950 . S
C570 C571 1.386 . S
C570 C572 1.391 . S
C571 C570 1.386 . S
C571 C575 1.393 . S
C572 H561 0.950 . S
C572 C570 1.391 . S
C572 C573 1.400 . S
C573 C567 1.491 . S
C573 C572 1.400 . S
C573 C574 1.398 . S
C574 H562 0.950 . S
C574 C573 1.398 . S
C574 C575 1.391 . S
C575 H563 0.950 . S
C575 C571 1.393 . S
C575 C574 1.391 . S
H576 C584 0.950 . S
H577 C589 0.950 . S
H578 C586 0.950 . S
H579 C588 0.950 . S
H580 C590 0.950 . S
H581 C592 0.950 . S
H582 C594 0.950 . S
H583 C595 0.950 . S
C584 H576 0.950 . S
C584 C585 1.386 . S
C584 C586 1.391 . S
C585 C584 1.386 . S
C585 C589 1.393 1_556 S
C586 H578 0.950 . S
C586 C584 1.391 . S
C586 C587 1.400 . S
C587 C586 1.400 . S
C587 C588 1.398 1_556 S
C587 C593 1.491 . S
C588 H579 0.950 . S
C588 C587 1.398 1_554 S
C588 C589 1.391 . S
C589 H577 0.950 . S
C589 C585 1.393 1_554 S
C589 C588 1.391 . S
C590 H580 0.950 . S
C590 C591 1.386 . S
C590 C592 1.391 . S
C591 C590 1.386 . S
C591 C595 1.393 1_554 S
C592 H581 0.950 . S
C592 C590 1.391 . S
C592 C593 1.400 1_554 S
C593 C587 1.491 . S
C593 C592 1.400 1_556 S
C593 C594 1.398 . S
C594 H582 0.950 . S
C594 C593 1.398 . S
C594 C595 1.391 . S
C595 H583 0.950 . S
C595 C591 1.393 1_556 S
C595 C594 1.391 . S
H596 C604 0.950 . S
H597 C609 0.950 . S
H598 C606 0.950 . S
H599 C608 0.950 . S
H600 C610 0.950 . S
H601 C612 0.950 . S
H602 C614 0.950 . S
H603 C615 0.950 . S
C604 H596 0.950 . S
C604 C605 1.386 . S
C604 C606 1.391 . S
C605 C604 1.386 . S
C605 C609 1.393 . S
C606 H598 0.950 . S
C606 C604 1.391 . S
C606 C607 1.400 . S
C607 C606 1.400 . S
C607 C608 1.398 . S
C607 C613 1.491 . S
C608 H599 0.950 . S
C608 C607 1.398 . S
C608 C609 1.391 . S
C609 H597 0.950 . S
C609 C605 1.393 . S
C609 C608 1.391 . S
C610 H600 0.950 . S
C610 C611 1.386 . S
C610 C612 1.391 . S
C611 C610 1.386 . S
C611 C615 1.393 . S
C612 H601 0.950 . S
C612 C610 1.391 . S
C612 C613 1.400 . S
C613 C607 1.491 . S
C613 C612 1.400 . S
C613 C614 1.398 . S
C614 H602 0.950 . S
C614 C613 1.398 . S
C614 C615 1.391 . S
C615 H603 0.950 . S
C615 C611 1.393 . S
C615 C614 1.391 . S
H616 C624 0.950 . S
H617 C629 0.950 . S
H618 C626 0.950 . S
H619 C628 0.950 . S
H620 C630 0.950 . S
H621 C632 0.950 . S
H622 C634 0.950 . S
H623 C635 0.950 . S
C624 H616 0.950 . S
C624 C625 1.386 . S
C624 C626 1.391 . S
C625 C624 1.386 . S
C625 C629 1.393 . S
C626 H618 0.950 . S
C626 C624 1.391 . S
C626 C627 1.400 . S
C627 C626 1.400 . S
C627 C628 1.398 . S
C627 C633 1.491 . S
C628 H619 0.950 . S
C628 C627 1.398 . S
C628 C629 1.391 . S
C629 H617 0.950 . S
C629 C625 1.393 . S
C629 C628 1.391 . S
C630 H620 0.950 . S
C630 C631 1.386 . S
C630 C632 1.391 . S
C631 C630 1.386 . S
C631 C635 1.393 . S
C632 H621 0.950 . S
C632 C630 1.391 . S
C632 C633 1.400 . S
C633 C627 1.491 . S
C633 C632 1.400 . S
C633 C634 1.398 . S
C634 H622 0.950 . S
C634 C633 1.398 . S
C634 C635 1.391 . S
C635 H623 0.950 . S
C635 C631 1.393 . S
C635 C634 1.391 . S
H636 C644 0.950 . S
H637 C649 0.950 . S
H638 C646 0.950 . S
H639 C648 0.950 . S
H640 C650 0.950 . S
H641 C652 0.950 . S
H642 C654 0.950 . S
H643 C655 0.950 . S
C644 H636 0.950 . S
C644 C645 1.386 . S
C644 C646 1.391 . S
C645 C644 1.386 . S
C645 C649 1.393 . S
C646 H638 0.950 . S
C646 C644 1.391 . S
C646 C647 1.400 . S
C647 C646 1.400 . S
C647 C648 1.398 . S
C647 C653 1.491 . S
C648 H639 0.950 . S
C648 C647 1.398 . S
C648 C649 1.391 . S
C649 H637 0.950 . S
C649 C645 1.393 . S
C649 C648 1.391 . S
C650 H640 0.950 . S
C650 C651 1.386 . S
C650 C652 1.391 . S
C651 C650 1.386 . S
C651 C655 1.393 . S
C652 H641 0.950 . S
C652 C650 1.391 . S
C652 C653 1.400 . S
C653 C647 1.491 . S
C653 C652 1.400 . S
C653 C654 1.398 . S
C654 H642 0.950 . S
C654 C653 1.398 . S
C654 C655 1.391 . S
C655 H643 0.950 . S
C655 C651 1.393 . S
C655 C654 1.391 . S
H656 C664 0.950 . S
H657 C669 0.950 . S
H658 C666 0.950 . S
H659 C668 0.950 . S
H660 C670 0.950 . S
H661 C672 0.950 . S
H662 C674 0.950 . S
H663 C675 0.950 . S
C664 H656 0.950 . S
C664 C665 1.386 . S
C664 C666 1.391 . S
C665 C664 1.386 . S
C665 C669 1.393 . S
C666 H658 0.950 . S
C666 C664 1.391 . S
C666 C667 1.400 . S
C667 C666 1.400 . S
C667 C668 1.398 . S
C667 C673 1.491 . S
C668 H659 0.950 . S
C668 C667 1.398 . S
C668 C669 1.391 . S
C669 H657 0.950 . S
C669 C665 1.393 . S
C669 C668 1.391 . S
C670 H660 0.950 . S
C670 C671 1.386 . S
C670 C672 1.391 . S
C671 C670 1.386 . S
C671 C675 1.393 . S
C672 H661 0.950 . S
C672 C670 1.391 . S
C672 C673 1.400 . S
C673 C667 1.491 . S
C673 C672 1.400 . S
C673 C674 1.398 . S
C674 H662 0.950 . S
C674 C673 1.398 . S
C674 C675 1.391 . S
C675 H663 0.950 . S
C675 C671 1.393 . S
C675 C674 1.391 . S
H676 C684 0.950 . S
H677 C689 0.950 . S
H678 C686 0.950 . S
H679 C688 0.950 . S
H680 C690 0.950 1_556 S
H681 C692 0.950 1_556 S
H682 C694 0.950 . S
H683 C695 0.950 . S
C684 H676 0.950 . S
C684 C685 1.386 . S
C684 C686 1.391 . S
C685 C684 1.386 . S
C685 C689 1.393 . S
C686 H678 0.950 . S
C686 C684 1.391 . S
C686 C687 1.400 . S
C687 C686 1.400 . S
C687 C688 1.398 . S
C687 C693 1.491 . S
C688 H679 0.950 . S
C688 C687 1.398 . S
C688 C689 1.391 . S
C689 H677 0.950 . S
C689 C685 1.393 . S
C689 C688 1.391 . S
C690 H680 0.950 1_554 S
C690 C691 1.386 . S
C690 C692 1.391 . S
C691 C690 1.386 . S
C691 C695 1.393 . S
C692 H681 0.950 1_554 S
C692 C690 1.391 . S
C692 C693 1.400 . S
C693 C687 1.491 . S
C693 C692 1.400 . S
C693 C694 1.398 . S
C694 H682 0.950 . S
C694 C693 1.398 . S
C694 C695 1.391 . S
C695 H683 0.950 . S
C695 C691 1.393 . S
C695 C694 1.391 . S
H696 C704 0.950 . S
H697 C709 0.950 . S
H698 C706 0.950 . S
H699 C708 0.950 . S
H700 C710 0.950 . S
H701 C712 0.950 . S
H702 C714 0.950 . S
H703 C715 0.950 . S
C704 H696 0.950 . S
C704 C705 1.386 . S
C704 C706 1.391 . S
C705 C704 1.386 . S
C705 C709 1.393 . S
C706 H698 0.950 . S
C706 C704 1.391 . S
C706 C707 1.400 . S
C707 C706 1.400 . S
C707 C708 1.398 . S
C707 C713 1.491 . S
C708 H699 0.950 . S
C708 C707 1.398 . S
C708 C709 1.391 . S
C709 H697 0.950 . S
C709 C705 1.393 . S
C709 C708 1.391 . S
C710 H700 0.950 . S
C710 C711 1.386 . S
C710 C712 1.391 . S
C711 C710 1.386 . S
C711 C715 1.393 . S
C712 H701 0.950 . S
C712 C710 1.391 . S
C712 C713 1.400 . S
C713 C707 1.491 . S
C713 C712 1.400 . S
C713 C714 1.398 . S
C714 H702 0.950 . S
C714 C713 1.398 . S
C714 C715 1.391 . S
C715 H703 0.950 . S
C715 C711 1.393 . S
C715 C714 1.391 . S
H716 C724 0.950 . S
H717 C729 0.950 . S
H718 C726 0.950 . S
H719 C728 0.950 . S
H720 C730 0.950 . S
H721 C732 0.950 . S
H722 C734 0.950 . S
H723 C735 0.950 . S
C724 H716 0.950 . S
C724 C725 1.386 . S
C724 C726 1.391 . S
C725 C724 1.386 . S
C725 C729 1.393 . S
C726 H718 0.950 . S
C726 C724 1.391 . S
C726 C727 1.400 . S
C727 C726 1.400 . S
C727 C728 1.398 . S
C727 C733 1.491 . S
C728 H719 0.950 . S
C728 C727 1.398 . S
C728 C729 1.391 . S
C729 H717 0.950 . S
C729 C725 1.393 . S
C729 C728 1.391 . S
C730 H720 0.950 . S
C730 C731 1.386 . S
C730 C732 1.391 . S
C731 C730 1.386 . S
C731 C735 1.393 . S
C732 H721 0.950 . S
C732 C730 1.391 . S
C732 C733 1.400 . S
C733 C727 1.491 . S
C733 C732 1.400 . S
C733 C734 1.398 . S
C734 H722 0.950 . S
C734 C733 1.398 . S
C734 C735 1.391 . S
C735 H723 0.950 . S
C735 C731 1.393 . S
C735 C734 1.391 . S
H736 C744 0.950 . S
H737 C749 0.950 . S
H738 C746 0.950 . S
H739 C748 0.950 . S
H740 C750 0.950 . S
H741 C752 0.950 . S
H742 C754 0.950 . S
H743 C755 0.950 . S
C744 H736 0.950 . S
C744 C745 1.386 . S
C744 C746 1.391 . S
C745 C744 1.386 . S
C745 C749 1.393 . S
C746 H738 0.950 . S
C746 C744 1.391 . S
C746 C747 1.400 . S
C747 C746 1.400 . S
C747 C748 1.398 . S
C747 C753 1.491 . S
C748 H739 0.950 . S
C748 C747 1.398 . S
C748 C749 1.391 . S
C749 H737 0.950 . S
C749 C745 1.393 . S
C749 C748 1.391 . S
C750 H740 0.950 . S
C750 C751 1.386 . S
C750 C752 1.391 . S
C751 C750 1.386 . S
C751 C755 1.393 . S
C752 H741 0.950 . S
C752 C750 1.391 . S
C752 C753 1.400 . S
C753 C747 1.491 . S
C753 C752 1.400 . S
C753 C754 1.398 . S
C754 H742 0.950 . S
C754 C753 1.398 . S
C754 C755 1.391 . S
C755 H743 0.950 . S
C755 C751 1.393 . S
C755 C754 1.391 . S
H756 C764 0.950 . S
H757 C769 0.950 . S
H758 C766 0.950 . S
H759 C768 0.950 . S
H760 C770 0.950 . S
H761 C772 0.950 . S
H762 C774 0.950 . S
H763 C775 0.950 . S
C764 H756 0.950 . S
C764 C765 1.386 . S
C764 C766 1.391 . S
C765 C764 1.386 . S
C765 C769 1.393 . S
C766 H758 0.950 . S
C766 C764 1.391 . S
C766 C767 1.400 . S
C767 C766 1.400 . S
C767 C768 1.398 . S
C767 C773 1.491 . S
C768 H759 0.950 . S
C768 C767 1.398 . S
C768 C769 1.391 . S
C769 H757 0.950 . S
C769 C765 1.393 . S
C769 C768 1.391 . S
C770 H760 0.950 . S
C770 C771 1.386 . S
C770 C772 1.391 . S
C771 C770 1.386 . S
C771 C775 1.393 . S
C772 H761 0.950 . S
C772 C770 1.391 . S
C772 C773 1.400 . S
C773 C767 1.491 . S
C773 C772 1.400 . S
C773 C774 1.398 . S
C774 H762 0.950 . S
C774 C773 1.398 . S
C774 C775 1.391 . S
C775 H763 0.950 . S
C775 C771 1.393 . S
C775 C774 1.391 . S
H776 C784 0.950 . S
H777 C789 0.950 . S
H778 C786 0.950 . S
H779 C788 0.950 . S
H780 C790 0.950 . S
H781 C792 0.950 . S
H782 C794 0.950 . S
H783 C795 0.950 1_554 S
C784 H776 0.950 . S
C784 C785 1.386 . S
C784 C786 1.391 . S
C785 C784 1.386 . S
C785 C789 1.393 . S
C786 H778 0.950 . S
C786 C784 1.391 . S
C786 C787 1.400 . S
C787 C786 1.400 . S
C787 C788 1.398 . S
C787 C793 1.491 . S
C788 H779 0.950 . S
C788 C787 1.398 . S
C788 C789 1.391 . S
C789 H777 0.950 . S
C789 C785 1.393 . S
C789 C788 1.391 . S
C790 H780 0.950 . S
C790 C791 1.386 . S
C790 C792 1.391 . S
C791 C790 1.386 . S
C791 C795 1.393 . S
C792 H781 0.950 . S
C792 C790 1.391 . S
C792 C793 1.400 . S
C793 C787 1.491 . S
C793 C792 1.400 . S
C793 C794 1.398 . S
C794 H782 0.950 . S
C794 C793 1.398 . S
C794 C795 1.391 . S
C795 H783 0.950 1_556 S
C795 C791 1.393 . S
C795 C794 1.391 . S
H796 C804 0.950 . S
H797 C809 0.950 . S
H798 C806 0.950 . S
H799 C808 0.950 . S
H800 C810 0.950 . S
H801 C812 0.950 . S
H802 C814 0.950 . S
H803 C815 0.950 . S
C804 H796 0.950 . S
C804 C805 1.386 . S
C804 C806 1.391 . S
C805 C804 1.386 . S
C805 C809 1.393 . S
C806 H798 0.950 . S
C806 C804 1.391 . S
C806 C807 1.400 . S
C807 C806 1.400 . S
C807 C808 1.398 . S
C807 C813 1.491 . S
C808 H799 0.950 . S
C808 C807 1.398 . S
C808 C809 1.391 . S
C809 H797 0.950 . S
C809 C805 1.393 . S
C809 C808 1.391 . S
C810 H800 0.950 . S
C810 C811 1.386 . S
C810 C812 1.391 . S
C811 C810 1.386 . S
C811 C815 1.393 . S
C812 H801 0.950 . S
C812 C810 1.391 . S
C812 C813 1.400 . S
C813 C807 1.491 . S
C813 C812 1.400 . S
C813 C814 1.398 . S
C814 H802 0.950 . S
C814 C813 1.398 . S
C814 C815 1.391 . S
C815 H803 0.950 . S
C815 C811 1.393 . S
C815 C814 1.391 . S
H816 C824 0.950 . S
H817 C829 0.950 . S
H818 C826 0.950 . S
H819 C828 0.950 . S
H820 C830 0.950 . S
H821 C832 0.950 . S
H822 C834 0.950 . S
H823 C835 0.950 . S
C824 H816 0.950 . S
C824 C825 1.386 . S
C824 C826 1.391 . S
C825 C824 1.386 . S
C825 C829 1.393 . S
C826 H818 0.950 . S
C826 C824 1.391 . S
C826 C827 1.400 . S
C827 C826 1.400 . S
C827 C828 1.398 . S
C827 C833 1.491 . S
C828 H819 0.950 . S
C828 C827 1.398 . S
C828 C829 1.391 . S
C829 H817 0.950 . S
C829 C825 1.393 . S
C829 C828 1.391 . S
C830 H820 0.950 . S
C830 C831 1.386 . S
C830 C832 1.391 . S
C831 C830 1.386 . S
C831 C835 1.393 . S
C832 H821 0.950 . S
C832 C830 1.391 . S
C832 C833 1.400 . S
C833 C827 1.491 . S
C833 C832 1.400 . S
C833 C834 1.398 . S
C834 H822 0.950 . S
C834 C833 1.398 . S
C834 C835 1.391 . S
C835 H823 0.950 . S
C835 C831 1.393 . S
C835 C834 1.391 . S
H836 C844 0.950 . S
H837 C849 0.950 . S
H838 C846 0.950 . S
H839 C848 0.950 . S
H840 C850 0.950 . S
H841 C852 0.950 . S
H842 C854 0.950 . S
H843 C855 0.950 . S
C844 H836 0.950 . S
C844 C845 1.386 . S
C844 C846 1.391 . S
C845 C844 1.386 . S
C845 C849 1.393 . S
C846 H838 0.950 . S
C846 C844 1.391 . S
C846 C847 1.400 . S
C847 C846 1.400 . S
C847 C848 1.398 . S
C847 C853 1.491 . S
C848 H839 0.950 . S
C848 C847 1.398 . S
C848 C849 1.391 . S
C849 H837 0.950 . S
C849 C845 1.393 . S
C849 C848 1.391 . S
C850 H840 0.950 . S
C850 C851 1.386 . S
C850 C852 1.391 . S
C851 C850 1.386 . S
C851 C855 1.393 . S
C852 H841 0.950 . S
C852 C850 1.391 . S
C852 C853 1.400 . S
C853 C847 1.491 . S
C853 C852 1.400 . S
C853 C854 1.398 . S
C854 H842 0.950 . S
C854 C853 1.398 . S
C854 C855 1.391 . S
C855 H843 0.950 . S
C855 C851 1.393 . S
C855 C854 1.391 . S
H856 C864 0.950 . S
H857 C869 0.950 . S
H858 C866 0.950 . S
H859 C868 0.950 . S
H860 C870 0.950 . S
H861 C872 0.950 . S
H862 C874 0.950 . S
H863 C875 0.950 . S
C864 H856 0.950 . S
C864 C865 1.386 . S
C864 C866 1.391 . S
C865 C864 1.386 . S
C865 C869 1.393 . S
C866 H858 0.950 . S
C866 C864 1.391 . S
C866 C867 1.400 . S
C867 C866 1.400 . S
C867 C868 1.398 . S
C867 C873 1.491 . S
C868 H859 0.950 . S
C868 C867 1.398 . S
C868 C869 1.391 . S
C869 H857 0.950 . S
C869 C865 1.393 . S
C869 C868 1.391 . S
C870 H860 0.950 . S
C870 C871 1.386 . S
C870 C872 1.391 . S
C871 C870 1.386 . S
C871 C875 1.393 . S
C872 H861 0.950 . S
C872 C870 1.391 . S
C872 C873 1.400 . S
C873 C867 1.491 . S
C873 C872 1.400 . S
C873 C874 1.398 . S
C874 H862 0.950 . S
C874 C873 1.398 . S
C874 C875 1.391 . S
C875 H863 0.950 . S
C875 C871 1.393 . S
C875 C874 1.391 . S
H876 C884 0.950 . S
H877 C889 0.950 . S
H878 C886 0.950 . S
H879 C888 0.950 . S
H880 C890 0.950 . S
H881 C892 0.950 . S
H882 C894 0.950 . S
H883 C895 0.950 . S
C884 H876 0.950 . S
C884 C885 1.386 . S
C884 C886 1.391 . S
C885 C884 1.386 . S
C885 C889 1.393 . S
C886 H878 0.950 . S
C886 C884 1.391 . S
C886 C887 1.400 . S
C887 C886 1.400 . S
C887 C888 1.398 . S
C887 C893 1.491 . S
C888 H879 0.950 . S
C888 C887 1.398 . S
C888 C889 1.391 . S
C889 H877 0.950 . S
C889 C885 1.393 . S
C889 C888 1.391 . S
C890 H880 0.950 . S
C890 C891 1.386 . S
C890 C892 1.391 . S
C891 C890 1.386 . S
C891 C895 1.393 . S
C892 H881 0.950 . S
C892 C890 1.391 . S
C892 C893 1.400 . S
C893 C887 1.491 . S
C893 C892 1.400 . S
C893 C894 1.398 . S
C894 H882 0.950 . S
C894 C893 1.398 . S
C894 C895 1.391 . S
C895 H883 0.950 . S
C895 C891 1.393 . S
C895 C894 1.391 . S
H896 C904 0.950 . S
H897 C909 0.950 . S
H898 C906 0.950 . S
H899 C908 0.950 . S
H900 C910 0.950 . S
H901 C912 0.950 . S
H902 C914 0.950 . S
H903 C915 0.950 . S
C904 H896 0.950 . S
C904 C905 1.386 . S
C904 C906 1.391 . S
C905 C904 1.386 . S
C905 C909 1.393 . S
C906 H898 0.950 . S
C906 C904 1.391 . S
C906 C907 1.400 . S
C907 C906 1.400 . S
C907 C908 1.398 . S
C907 C913 1.491 . S
C908 H899 0.950 . S
C908 C907 1.398 . S
C908 C909 1.391 . S
C909 H897 0.950 . S
C909 C905 1.393 . S
C909 C908 1.391 . S
C910 H900 0.950 . S
C910 C911 1.386 . S
C910 C912 1.391 . S
C911 C910 1.386 . S
C911 C915 1.393 . S
C912 H901 0.950 . S
C912 C910 1.391 . S
C912 C913 1.400 . S
C913 C907 1.491 . S
C913 C912 1.400 . S
C913 C914 1.398 . S
C914 H902 0.950 . S
C914 C913 1.398 . S
C914 C915 1.391 . S
C915 H903 0.950 . S
C915 C911 1.393 . S
C915 C914 1.391 . S
H916 C924 0.950 . S
H917 C929 0.950 . S
H918 C926 0.950 . S
H919 C928 0.950 . S
H920 C930 0.950 . S
H921 C932 0.950 . S
H922 C934 0.950 . S
H923 C935 0.950 . S
C924 H916 0.950 . S
C924 C925 1.386 . S
C924 C926 1.391 . S
C925 C924 1.386 . S
C925 C929 1.393 . S
C926 H918 0.950 . S
C926 C924 1.391 . S
C926 C927 1.400 . S
C927 C926 1.400 . S
C927 C928 1.398 . S
C927 C933 1.491 . S
C928 H919 0.950 . S
C928 C927 1.398 . S
C928 C929 1.391 . S
C929 H917 0.950 . S
C929 C925 1.393 . S
C929 C928 1.391 . S
C930 H920 0.950 . S
C930 C931 1.386 . S
C930 C932 1.391 . S
C931 C930 1.386 . S
C931 C935 1.393 . S
C932 H921 0.950 . S
C932 C930 1.391 . S
C932 C933 1.400 . S
C933 C927 1.491 . S
C933 C932 1.400 . S
C933 C934 1.398 . S
C934 H922 0.950 . S
C934 C933 1.398 . S
C934 C935 1.391 . S
C935 H923 0.950 . S
C935 C931 1.393 . S
C935 C934 1.391 . S
H936 C944 0.950 . S
H937 C949 0.950 . S
H938 C946 0.950 . S
H939 C948 0.950 . S
H940 C950 0.950 . S
H941 C952 0.950 . S
H942 C954 0.950 . S
H943 C955 0.950 . S
C944 H936 0.950 . S
C944 C945 1.386 . S
C944 C946 1.391 . S
C945 C944 1.386 . S
C945 C949 1.393 . S
C946 H938 0.950 . S
C946 C944 1.391 . S
C946 C947 1.400 . S
C947 C946 1.400 . S
C947 C948 1.398 . S
C947 C953 1.491 . S
C948 H939 0.950 . S
C948 C947 1.398 . S
C948 C949 1.391 . S
C949 H937 0.950 . S
C949 C945 1.393 . S
C949 C948 1.391 . S
C950 H940 0.950 . S
C950 C951 1.386 . S
C950 C952 1.391 . S
C951 C950 1.386 . S
C951 C955 1.393 . S
C952 H941 0.950 . S
C952 C950 1.391 . S
C952 C953 1.400 . S
C953 C947 1.491 . S
C953 C952 1.400 . S
C953 C954 1.398 . S
C954 H942 0.950 . S
C954 C953 1.398 . S
C954 C955 1.391 . S
C955 H943 0.950 . S
C955 C951 1.393 . S
C955 C954 1.391 . S
H956 C964 0.950 . S
H957 C969 0.950 . S
H958 C966 0.950 . S
H959 C968 0.950 . S
H960 C970 0.950 . S
H961 C972 0.950 . S
H962 C974 0.950 . S
H963 C975 0.950 . S
C964 H956 0.950 . S
C964 C965 1.386 . S
C964 C966 1.391 . S
C965 C964 1.386 . S
C965 C969 1.393 . S
C966 H958 0.950 . S
C966 C964 1.391 . S
C966 C967 1.400 . S
C967 C966 1.400 . S
C967 C968 1.398 . S
C967 C973 1.491 . S
C968 H959 0.950 . S
C968 C967 1.398 . S
C968 C969 1.391 . S
C969 H957 0.950 . S
C969 C965 1.393 . S
C969 C968 1.391 . S
C970 H960 0.950 . S
C970 C971 1.386 . S
C970 C972 1.391 . S
C971 C970 1.386 . S
C971 C975 1.393 . S
C972 H961 0.950 . S
C972 C970 1.391 . S
C972 C973 1.400 . S
C973 C967 1.491 . S
C973 C972 1.400 . S
C973 C974 1.398 . S
C974 H962 0.950 . S
C974 C973 1.398 . S
C974 C975 1.391 . S
C975 H963 0.950 . S
C975 C971 1.393 . S
C975 C974 1.391 . S
H976 C984 0.950 . S
H977 C989 0.950 . S
H978 C986 0.950 . S
H979 C988 0.950 . S
H980 C990 0.950 . S
H981 C992 0.950 . S
H982 C994 0.950 . S
H983 C995 0.950 . S
C984 H976 0.950 . S
C984 C985 1.386 . S
C984 C986 1.391 . S
C985 C984 1.386 . S
C985 C989 1.393 . S
C986 H978 0.950 . S
C986 C984 1.391 . S
C986 C987 1.400 . S
C987 C986 1.400 . S
C987 C988 1.398 . S
C987 C993 1.491 . S
C988 H979 0.950 . S
C988 C987 1.398 . S
C988 C989 1.391 . S
C989 H977 0.950 . S
C989 C985 1.393 . S
C989 C988 1.391 . S
C990 H980 0.950 . S
C990 C991 1.386 . S
C990 C992 1.391 . S
C991 C990 1.386 . S
C991 C995 1.393 . S
C992 H981 0.950 . S
C992 C990 1.391 . S
C992 C993 1.400 . S
C993 C987 1.491 . S
C993 C992 1.400 . S
C993 C994 1.398 . S
C994 H982 0.950 . S
C994 C993 1.398 . S
C994 C995 1.391 . S
C995 H983 0.950 . S
C995 C991 1.393 . S
C995 C994 1.391 . S
H996 C1004 0.950 . S
H997 C1009 0.950 . S
H998 C1006 0.950 . S
H999 C1008 0.950 . S
H1000 C1010 0.950 . S
H1001 C1012 0.950 . S
H1002 C1014 0.950 . S
H1003 C1015 0.950 . S
C1004 H996 0.950 . S
C1004 C1005 1.386 . S
C1004 C1006 1.391 . S
C1005 C1004 1.386 . S
C1005 C1009 1.393 . S
C1006 H998 0.950 . S
C1006 C1004 1.391 . S
C1006 C1007 1.400 . S
C1007 C1006 1.400 . S
C1007 C1008 1.398 . S
C1007 C1013 1.491 . S
C1008 H999 0.950 . S
C1008 C1007 1.398 . S
C1008 C1009 1.391 . S
C1009 H997 0.950 . S
C1009 C1005 1.393 . S
C1009 C1008 1.391 . S
C1010 H1000 0.950 . S
C1010 C1011 1.386 . S
C1010 C1012 1.391 . S
C1011 C1010 1.386 . S
C1011 C1015 1.393 . S
C1012 H1001 0.950 . S
C1012 C1010 1.391 . S
C1012 C1013 1.400 . S
C1013 C1007 1.491 . S
C1013 C1012 1.400 . S
C1013 C1014 1.398 . S
C1014 H1002 0.950 . S
C1014 C1013 1.398 . S
C1014 C1015 1.391 . S
C1015 H1003 0.950 . S
C1015 C1011 1.393 . S
C1015 C1014 1.391 . S
H1016 C1024 0.950 . S
H1017 C1029 0.950 . S
H1018 C1026 0.950 . S
H1019 C1028 0.950 . S
H1020 C1030 0.950 . S
H1021 C1032 0.950 . S
H1022 C1034 0.950 . S
H1023 C1035 0.950 . S
C1024 H1016 0.950 . S
C1024 C1025 1.386 . S
C1024 C1026 1.391 . S
C1025 C1024 1.386 . S
C1025 C1029 1.393 . S
C1026 H1018 0.950 . S
C1026 C1024 1.391 . S
C1026 C1027 1.400 . S
C1027 C1026 1.400 . S
C1027 C1028 1.398 . S
C1027 C1033 1.491 . S
C1028 H1019 0.950 . S
C1028 C1027 1.398 . S
C1028 C1029 1.391 . S
C1029 H1017 0.950 . S
C1029 C1025 1.393 . S
C1029 C1028 1.391 . S
C1030 H1020 0.950 . S
C1030 C1031 1.386 . S
C1030 C1032 1.391 . S
C1031 C1030 1.386 . S
C1031 C1035 1.393 . S
C1032 H1021 0.950 . S
C1032 C1030 1.391 . S
C1032 C1033 1.400 . S
C1033 C1027 1.491 . S
C1033 C1032 1.400 . S
C1033 C1034 1.398 . S
C1034 H1022 0.950 . S
C1034 C1033 1.398 . S
C1034 C1035 1.391 . S
C1035 H1023 0.950 . S
C1035 C1031 1.393 . S
C1035 C1034 1.391 . S
H1036 C1044 0.950 . S
H1037 C1049 0.950 . S
H1038 C1046 0.950 . S
H1039 C1048 0.950 . S
H1040 C1050 0.950 . S
H1041 C1052 0.950 . S
H1042 C1054 0.950 . S
H1043 C1055 0.950 . S
C1044 H1036 0.950 . S
C1044 C1045 1.386 . S
C1044 C1046 1.391 . S
C1045 C1044 1.386 . S
C1045 C1049 1.393 . S
C1046 H1038 0.950 . S
C1046 C1044 1.391 . S
C1046 C1047 1.400 . S
C1047 C1046 1.400 . S
C1047 C1048 1.398 . S
C1047 C1053 1.491 . S
C1048 H1039 0.950 . S
C1048 C1047 1.398 . S
C1048 C1049 1.391 . S
C1049 H1037 0.950 . S
C1049 C1045 1.393 . S
C1049 C1048 1.391 . S
C1050 H1040 0.950 . S
C1050 C1051 1.386 . S
C1050 C1052 1.391 . S
C1051 C1050 1.386 . S
C1051 C1055 1.393 . S
C1052 H1041 0.950 . S
C1052 C1050 1.391 . S
C1052 C1053 1.400 . S
C1053 C1047 1.491 . S
C1053 C1052 1.400 . S
C1053 C1054 1.398 . S
C1054 H1042 0.950 . S
C1054 C1053 1.398 . S
C1054 C1055 1.391 . S
C1055 H1043 0.950 . S
C1055 C1051 1.393 . S
C1055 C1054 1.391 . S
H1056 C1064 0.950 . S
H1057 C1069 0.950 . S
H1058 C1066 0.950 . S
H1059 C1068 0.950 . S
H1060 C1070 0.950 . S
H1061 C1072 0.950 . S
H1062 C1074 0.950 . S
H1063 C1075 0.950 . S
C1064 H1056 0.950 . S
C1064 C1065 1.386 . S
C1064 C1066 1.391 . S
C1065 C1064 1.386 . S
C1065 C1069 1.393 . S
C1066 H1058 0.950 . S
C1066 C1064 1.391 . S
C1066 C1067 1.400 . S
C1067 C1066 1.400 . S
C1067 C1068 1.398 . S
C1067 C1073 1.491 . S
C1068 H1059 0.950 . S
C1068 C1067 1.398 . S
C1068 C1069 1.391 . S
C1069 H1057 0.950 . S
C1069 C1065 1.393 . S
C1069 C1068 1.391 . S
C1070 H1060 0.950 . S
C1070 C1071 1.386 . S
C1070 C1072 1.391 . S
C1071 C1070 1.386 . S
C1071 C1075 1.393 . S
C1072 H1061 0.950 . S
C1072 C1070 1.391 . S
C1072 C1073 1.400 . S
C1073 C1067 1.491 . S
C1073 C1072 1.400 . S
C1073 C1074 1.398 . S
C1074 H1062 0.950 . S
C1074 C1073 1.398 . S
C1074 C1075 1.391 . S
C1075 H1063 0.950 . S
C1075 C1071 1.393 . S
C1075 C1074 1.391 . S
H1076 C1084 0.950 . S
H1077 C1089 0.950 . S
H1078 C1086 0.950 . S
H1079 C1088 0.950 . S
H1080 C1090 0.950 . S
H1081 C1092 0.950 . S
H1082 C1094 0.950 . S
H1083 C1095 0.950 . S
C1084 H1076 0.950 . S
C1084 C1085 1.386 . S
C1084 C1086 1.391 . S
C1085 C1084 1.386 . S
C1085 C1089 1.393 . S
C1086 H1078 0.950 . S
C1086 C1084 1.391 . S
C1086 C1087 1.400 . S
C1087 C1086 1.400 . S
C1087 C1088 1.398 . S
C1087 C1093 1.491 . S
C1088 H1079 0.950 . S
C1088 C1087 1.398 . S
C1088 C1089 1.391 . S
C1089 H1077 0.950 . S
C1089 C1085 1.393 . S
C1089 C1088 1.391 . S
C1090 H1080 0.950 . S
C1090 C1091 1.386 . S
C1090 C1092 1.391 . S
C1091 C1090 1.386 . S
C1091 C1095 1.393 . S
C1092 H1081 0.950 . S
C1092 C1090 1.391 . S
C1092 C1093 1.400 . S
C1093 C1087 1.491 . S
C1093 C1092 1.400 . S
C1093 C1094 1.398 . S
C1094 H1082 0.950 . S
C1094 C1093 1.398 . S
C1094 C1095 1.391 . S
C1095 H1083 0.950 . S
C1095 C1091 1.393 . S
C1095 C1094 1.391 . S
H1096 C1104 0.950 . S
H1097 C1109 0.950 . S
H1098 C1106 0.950 . S
H1099 C1108 0.950 . S
H1100 C1110 0.950 . S
H1101 C1112 0.950 . S
H1102 C1114 0.950 . S
H1103 C1115 0.950 . S
C1104 H1096 0.950 . S
C1104 C1105 1.386 . S
C1104 C1106 1.391 . S
C1105 C1104 1.386 . S
C1105 C1109 1.393 . S
C1106 H1098 0.950 . S
C1106 C1104 1.391 . S
C1106 C1107 1.400 . S
C1107 C1106 1.400 . S
C1107 C1108 1.398 . S
C1107 C1113 1.491 . S
C1108 H1099 0.950 . S
C1108 C1107 1.398 . S
C1108 C1109 1.391 . S
C1109 H1097 0.950 . S
C1109 C1105 1.393 . S
C1109 C1108 1.391 . S
C1110 H1100 0.950 . S
C1110 C1111 1.386 . S
C1110 C1112 1.391 . S
C1111 C1110 1.386 . S
C1111 C1115 1.393 . S
C1112 H1101 0.950 . S
C1112 C1110 1.391 . S
C1112 C1113 1.400 . S
C1113 C1107 1.491 . S
C1113 C1112 1.400 . S
C1113 C1114 1.398 . S
C1114 H1102 0.950 . S
C1114 C1113 1.398 . S
C1114 C1115 1.391 . S
C1115 H1103 0.950 . S
C1115 C1111 1.393 . S
C1115 C1114 1.391 . S
H1116 C1124 0.950 . S
H1117 C1129 0.950 . S
H1118 C1126 0.950 . S
H1119 C1128 0.950 . S
H1120 C1130 0.950 . S
H1121 C1132 0.950 . S
H1122 C1134 0.950 . S
H1123 C1135 0.950 . S
C1124 H1116 0.950 . S
C1124 C1125 1.386 . S
C1124 C1126 1.391 . S
C1125 C1124 1.386 . S
C1125 C1129 1.393 . S
C1126 H1118 0.950 . S
C1126 C1124 1.391 . S
C1126 C1127 1.400 . S
C1127 C1126 1.400 . S
C1127 C1128 1.398 . S
C1127 C1133 1.491 . S
C1128 H1119 0.950 . S
C1128 C1127 1.398 . S
C1128 C1129 1.391 . S
C1129 H1117 0.950 . S
C1129 C1125 1.393 . S
C1129 C1128 1.391 . S
C1130 H1120 0.950 . S
C1130 C1131 1.386 . S
C1130 C1132 1.391 . S
C1131 C1130 1.386 . S
C1131 C1135 1.393 . S
C1132 H1121 0.950 . S
C1132 C1130 1.391 . S
C1132 C1133 1.400 . S
C1133 C1127 1.491 . S
C1133 C1132 1.400 . S
C1133 C1134 1.398 . S
C1134 H1122 0.950 . S
C1134 C1133 1.398 . S
C1134 C1135 1.391 . S
C1135 H1123 0.950 . S
C1135 C1131 1.393 . S
C1135 C1134 1.391 . S
C511 C405 1.351 . S
C505 C36 1.311 . S
C531 C425 1.366 . S
C525 C93 1.368 . S
C551 C439 1.392 . S
C545 C126 1.411 . S
C565 C165 1.392 . S
C571 C397 1.389 . S
C585 C222 1.441 . S
C591 C391 1.489 . S
C605 C261 1.421 . S
C611 C411 1.427 . S
C631 C419 1.365 . S
C625 C318 1.355 . S
C651 C433 1.445 . S
C645 C381 1.409 . S
C665 C132 1.396 . S
C671 C461 1.439 . S
C691 C475 1.364 . S
C685 C189 1.347 . S
C705 C30 1.439 . S
C711 C495 1.432 . S
C731 C447 1.491 . S
C725 C69 1.413 . S
C745 C324 1.394 . S
C751 C453 1.391 . S
C765 C357 1.398 . S
C771 C467 1.391 . S
C791 C481 1.351 1_556 S
C785 C228 1.353 . S
C805 C285 1.326 . S
C811 C489 1.351 . S
C831 C420 1.744 . S
C825 C45 1.728 . S
C851 C434 1.750 . S
C845 C84 1.730 . S
C865 C117 1.647 . S
C871 C392 1.679 . S
C885 C174 1.488 . S
C891 C409 1.517 . S
C905 C213 1.439 . S
C911 C437 1.442 . S
C931 C395 1.422 . S
C925 C270 1.381 . S
C951 C406 1.646 . S
C945 C309 1.633 . S
C971 C423 1.502 . S
C965 C372 1.493 . S
C991 C479 1.505 . S
C985 C141 1.477 . S
C1011 C490 1.639 . S
C1005 C180 1.626 . S
C1025 C21 1.403 . S
C1031 C451 1.422 . S
C1051 C465 1.443 . S
C1045 C78 1.423 . S
C1071 C493 1.514 . S
C1065 C333 1.509 . S
C1085 C366 1.616 . S
C1091 C448 1.680 . S
C1111 C462 1.749 . S
C1105 C237 1.725 . S
C1131 C476 1.742 . S
C1125 C276 1.736 . S
