# Generated by pormake.
# Topology zzz, (3,6)-cn, num edge types: 1
# Building blocks:
#     Node 0, Type 0, BuildingBlock: VETTIZ_charged_linker_0, # of connection points: 3
#     Node 1, Type 0, BuildingBlock: VETTIZ_charged_linker_0, # of connection points: 3
#     Node 2, Type 0, BuildingBlock: VETTIZ_charged_linker_0, # of connection points: 3
#     Node 3, Type 0, BuildingBlock: VETTIZ_charged_linker_0, # of connection points: 3
#     Node 4, Type 0, BuildingBlock: VETTIZ_charged_linker_0, # of connection points: 3
#     Node 5, Type 0, BuildingBlock: VETTIZ_charged_linker_0, # of connection points: 3
#     Node 6, Type 0, BuildingBlock: VETTIZ_charged_linker_0, # of connection points: 3
#     Node 7, Type 0, BuildingBlock: VETTIZ_charged_linker_0, # of connection points: 3
#     Node 8, Type 1, BuildingBlock: KUMJIN_clean_sbu_0, # of connection points: 6
#     Node 9, Type 1, BuildingBlock: KUMJIN_clean_sbu_0, # of connection points: 6
#     Node 10, Type 1, BuildingBlock: KUMJIN_clean_sbu_0, # of connection points: 6
#     Node 11, Type 1, BuildingBlock: KUMJIN_clean_sbu_0, # of connection points: 6
#     Edge 12, Type (0, 1), BuildingBlock: UVAHIK_clean_linker_0, # of connection points: 2
#     Edge 13, Type (0, 1), BuildingBlock: UVAHIK_clean_linker_0, # of connection points: 2
#     Edge 14, Type (0, 1), BuildingBlock: UVAHIK_clean_linker_0, # of connection points: 2
#     Edge 15, Type (0, 1), BuildingBlock: UVAHIK_clean_linker_0, # of connection points: 2
#     Edge 16, Type (0, 1), BuildingBlock: UVAHIK_clean_linker_0, # of connection points: 2
#     Edge 17, Type (0, 1), BuildingBlock: UVAHIK_clean_linker_0, # of connection points: 2
#     Edge 18, Type (0, 1), BuildingBlock: UVAHIK_clean_linker_0, # of connection points: 2
#     Edge 19, Type (0, 1), BuildingBlock: UVAHIK_clean_linker_0, # of connection points: 2
#     Edge 20, Type (0, 1), BuildingBlock: UVAHIK_clean_linker_0, # of connection points: 2
#     Edge 21, Type (0, 1), BuildingBlock: UVAHIK_clean_linker_0, # of connection points: 2
#     Edge 22, Type (0, 1), BuildingBlock: UVAHIK_clean_linker_0, # of connection points: 2
#     Edge 23, Type (0, 1), BuildingBlock: UVAHIK_clean_linker_0, # of connection points: 2
#     Edge 24, Type (0, 1), BuildingBlock: UVAHIK_clean_linker_0, # of connection points: 2
#     Edge 25, Type (0, 1), BuildingBlock: UVAHIK_clean_linker_0, # of connection points: 2
#     Edge 26, Type (0, 1), BuildingBlock: UVAHIK_clean_linker_0, # of connection points: 2
#     Edge 27, Type (0, 1), BuildingBlock: UVAHIK_clean_linker_0, # of connection points: 2
#     Edge 28, Type (0, 1), BuildingBlock: UVAHIK_clean_linker_0, # of connection points: 2
#     Edge 29, Type (0, 1), BuildingBlock: UVAHIK_clean_linker_0, # of connection points: 2
#     Edge 30, Type (0, 1), BuildingBlock: UVAHIK_clean_linker_0, # of connection points: 2
#     Edge 31, Type (0, 1), BuildingBlock: UVAHIK_clean_linker_0, # of connection points: 2
#     Edge 32, Type (0, 1), BuildingBlock: UVAHIK_clean_linker_0, # of connection points: 2
#     Edge 33, Type (0, 1), BuildingBlock: UVAHIK_clean_linker_0, # of connection points: 2
#     Edge 34, Type (0, 1), BuildingBlock: UVAHIK_clean_linker_0, # of connection points: 2
#     Edge 35, Type (0, 1), BuildingBlock: UVAHIK_clean_linker_0, # of connection points: 2
# Relax obj value: 0.280
# Max RMSD: 0.230
# Mean RMSD: 0.213
data_MOF--net-zzz--node1-KUMJIN_clean_sbu_0--node2-VETTIZ_charged_linker_0--edge1-UVAHIK_clean_linker_0
_symmetry_space_group_name_H-M    P1
_symmetry_Int_Tables_number       1
_symmetry_cell_setting            triclinic
loop_
_symmetry_equiv_pos_as_xyz
'x, y, z'
_cell_length_a     70.472479
_cell_length_b     70.377246
_cell_length_c     24.618933
_cell_angle_alpha  90.668822
_cell_angle_beta   90.152637
_cell_angle_gamma 89.932908
loop_
_atom_site_label
_atom_site_type_symbol
_atom_site_fract_x
_atom_site_fract_y
_atom_site_fract_z
_atom_type_partial_charge
C0 C 0.79261 0.53514 0.19945 0.0
C1 C 0.81187 0.5393 0.21173 0.0
C2 C 0.82173 0.55202 0.17862 0.0
C3 C 0.79429 0.55555 0.12033 0.0
C4 C 0.78407 0.54347 0.15308 0.0
C5 C 0.76401 0.54072 0.13109 0.0
H6 H 0.7006 0.56155 0.92638 0.0
C7 C 0.78218 0.56147 0.07453 0.0
C8 C 0.76416 0.55308 0.08012 0.0
H9 H 0.68936 0.52594 0.06425 0.0
H10 H 0.72153 0.53163 0.09799 0.0
H11 H 0.72114 0.5944 0.99134 0.0
H12 H 0.74074 0.54547 0.90186 0.0
H13 H 0.75638 0.56392 0.88616 0.0
H14 H 0.73159 0.56625 0.86934 0.0
H15 H 0.72114 0.59337 0.9185 0.0
H16 H 0.74149 0.60176 0.95648 0.0
C17 C 0.74983 0.54823 0.17381 0.0
C18 C 0.7612 0.51952 0.11687 0.0
C19 C 0.81243 0.59946 0.92398 0.0
C20 C 0.80578 0.60616 0.87371 0.0
C21 C 0.78616 0.60497 0.86247 0.0
C22 C 0.77375 0.59615 0.89885 0.0
C23 C 0.78095 0.58841 0.9472 0.0
C24 C 0.79987 0.59076 0.95977 0.0
C25 C 0.80513 0.58183 0.01283 0.0
C26 C 0.78637 0.57298 0.02913 0.0
C27 C 0.77235 0.57673 0.99046 0.0
C28 C 0.81125 0.598 0.05266 0.0
C29 C 0.82058 0.56655 1.00128 0.0
C30 C 0.70474 0.55516 0.96443 0.0
C31 C 0.69213 0.54353 0.99283 0.0
C32 C 0.6987 0.53501 0.04125 0.0
C33 C 0.71737 0.53837 0.06092 0.0
C34 C 0.72969 0.55026 0.03174 0.0
C35 C 0.72307 0.55835 0.9843 0.0
C36 C 0.73759 0.57034 0.95694 0.0
C37 C 0.75414 0.56847 0.99557 0.0
C38 C 0.7498 0.55664 0.03986 0.0
C39 C 0.73003 0.59105 0.95516 0.0
C40 C 0.74181 0.56124 0.90047 0.0
H41 H 0.82173 0.56949 0.11019 0.0
H42 H 0.78466 0.52542 0.22439 0.0
H43 H 0.77337 0.51409 0.09253 0.0
H44 H 0.74836 0.51695 0.09221 0.0
H45 H 0.76023 0.51092 0.15434 0.0
H46 H 0.75413 0.56259 0.18856 0.0
H47 H 0.74931 0.53866 0.20935 0.0
H48 H 0.73535 0.5497 0.15727 0.0
H49 H 0.82737 0.5998 0.93423 0.0
H50 H 0.78046 0.61034 0.82474 0.0
H51 H 0.75911 0.59518 0.887 0.0
H52 H 0.80483 0.61188 0.04151 0.0
H53 H 0.82689 0.5999 0.05284 0.0
H54 H 0.80633 0.59559 0.09471 0.0
H55 H 0.81798 0.55929 0.96157 0.0
H56 H 0.82074 0.55497 0.03111 0.0
H57 H 0.83493 0.57303 0.99971 0.0
H58 H 0.83639 0.55557 0.18746 0.0
C59 C 0.81312 0.56016 0.13358 0.0
C60 C 0.91533 0.79836 0.91126 0.0
C61 C 0.90972 0.81748 0.91703 0.0
C62 C 0.91215 0.82653 0.96805 0.0
C63 C 0.92888 0.799 1.00202 0.0
C64 C 0.92506 0.78953 0.95387 0.0
C65 C 0.93419 0.77022 0.95175 0.0
H66 H 0.99688 0.7062 0.048 0.0
C67 C 0.94206 0.78712 0.03409 0.0
C68 C 0.94521 0.77025 1.00507 0.0
H69 H 0.95927 0.70237 0.90921 0.0
H70 H 0.94585 0.73252 0.93185 0.0
H71 H 0.00638 0.75413 0.03458 0.0
H72 H 0.96372 0.72793 0.13679 0.0
H73 H 0.97942 0.74367 0.17183 0.0
H74 H 0.98843 0.72186 0.14347 0.0
H75 H 0.01307 0.73766 0.08664 0.0
H76 H 0.00707 0.76184 0.10345 0.0
C77 C 0.94757 0.76954 0.90172 0.0
C78 C 0.91811 0.75513 0.95097 0.0
C79 C 0.96938 0.81611 0.20538 0.0
C80 C 0.9841 0.81151 0.24118 0.0
C81 C 0.99407 0.79427 0.23208 0.0
C82 C 0.98906 0.78181 0.18845 0.0
C83 C 0.97421 0.78683 0.15273 0.0
C84 C 0.96492 0.80395 0.16183 0.0
C85 C 0.95078 0.80841 0.11857 0.0
C86 C 0.95233 0.79095 0.08255 0.0
C87 C 0.96595 0.77793 0.10212 0.0
C88 C 0.95747 0.82673 0.08943 0.0
C89 C 0.93093 0.80992 0.14536 0.0
C90 C 0.98567 0.71199 0.02303 0.0
C91 C 0.9792 0.70191 0.97616 0.0
C92 C 0.96459 0.70985 0.94486 0.0
C93 C 0.95675 0.72745 0.95826 0.0
C94 C 0.96358 0.73771 1.0034 0.0
C95 C 0.97758 0.73004 0.03593 0.0
C96 C 0.98251 0.74364 0.08265 0.0
C97 C 0.96892 0.76034 0.07269 0.0
C98 C 0.95823 0.7566 0.02523 0.0
C99 C 1.00342 0.74965 0.07691 0.0
C100 C 0.97837 0.73378 0.13686 0.0
H101 H 0.9235 0.82534 0.04746 0.0
H102 H 0.91332 0.79079 0.87313 0.0
H103 H 0.90459 0.76092 0.96756 0.0
H104 H 0.92141 0.74284 0.97713 0.0
H105 H 0.91514 0.74995 0.90902 0.0
H106 H 0.955 0.78336 0.89686 0.0
H107 H 0.93948 0.76663 0.86374 0.0
H108 H 0.95904 0.75895 0.9051 0.0
H109 H 0.96179 0.82944 0.21001 0.0
H110 H 1.0056 0.79039 0.25892 0.0
H111 H 0.99699 0.76887 0.18367 0.0
H112 H 0.97299 0.82914 0.09449 0.0
H113 H 0.95012 0.83954 0.10571 0.0
H114 H 0.95543 0.82599 0.04489 0.0
H115 H 0.92925 0.79901 0.17737 0.0
H116 H 0.91919 0.8072 0.11647 0.0
H117 H 0.92882 0.82408 0.16479 0.0
H118 H 0.90809 0.84124 0.97416 0.0
C119 C 0.92152 0.81735 0.01054 0.0
C120 C 0.81336 0.98351 0.073 0.0
C121 C 0.82502 0.97642 0.03046 0.0
C122 C 0.81851 0.96116 0.99834 0.0
C123 C 0.78828 0.96194 0.04422 0.0
C124 C 0.79501 0.97562 0.07994 0.0
C125 C 0.78036 0.97998 0.12377 0.0
H126 H 0.6898 0.96255 0.21718 0.0
C127 C 0.76839 0.95779 0.05724 0.0
C128 C 0.76354 0.96761 0.10539 0.0
H129 H 0.73132 0.99864 0.29514 0.0
H130 H 0.75391 0.99175 0.22207 0.0
H131 H 0.6947 0.97978 0.11029 0.0
H132 H 0.71696 0.92819 0.1742 0.0
H133 H 0.7085 0.92333 0.10789 0.0
H134 H 0.69248 0.93275 0.15835 0.0
H135 H 0.68243 0.95781 0.10028 0.0
H136 H 0.69952 0.9663 0.0517 0.0
C137 C 0.77548 1.00132 0.12253 0.0
C138 C 0.78848 0.97356 0.1788 0.0
C139 C 0.72679 0.9314 0.90693 0.0
C140 C 0.70697 0.92988 0.90248 0.0
C141 C 0.69602 0.93006 0.95036 0.0
C142 C 0.70446 0.93382 1.0009 0.0
C143 C 0.72396 0.93785 1.00355 0.0
C144 C 0.73494 0.93568 0.95756 0.0
C145 C 0.75541 0.94054 0.96794 0.0
C146 C 0.75439 0.94798 0.02635 0.0
C147 C 0.73598 0.94632 0.04678 0.0
C148 C 0.7613 0.95619 0.9275 0.0
C149 C 0.76722 0.92195 0.96281 0.0
C150 C 0.7039 0.96866 0.21927 0.0
C151 C 0.70894 0.9807 0.26255 0.0
C152 C 0.72718 0.98907 0.26245 0.0
C153 C 0.74028 0.98498 0.22025 0.0
C154 C 0.73495 0.97267 0.17722 0.0
C155 C 0.7168 0.96509 0.17727 0.0
C156 C 0.71235 0.95409 0.1265 0.0
C157 C 0.73123 0.95483 0.09746 0.0
C158 C 0.7447 0.96571 0.1268 0.0
C159 C 0.69641 0.96487 0.09553 0.0
C160 C 0.70716 0.93349 0.14222 0.0
H161 H 0.7962 0.9424 0.97902 0.0
H162 H 0.8183 0.99488 0.09942 0.0
H163 H 0.7945 0.95898 0.17518 0.0
H164 H 0.77759 0.97296 0.21076 0.0
H165 H 0.79999 0.98326 0.19265 0.0
H166 H 0.77225 1.00577 0.08029 0.0
H167 H 0.78759 0.01 0.13773 0.0
H168 H 0.76287 1.00483 0.14713 0.0
H169 H 0.73559 0.9307 0.87098 0.0
H170 H 0.68072 0.9288 0.94846 0.0
H171 H 0.69528 0.93445 0.03551 0.0
H172 H 0.75086 0.96806 0.92826 0.0
H173 H 0.76198 0.95043 0.88536 0.0
H174 H 0.77523 0.96252 0.93649 0.0
H175 H 0.75818 0.90904 0.9592 0.0
H176 H 0.77618 0.9196 0.99932 0.0
H177 H 0.77645 0.92208 0.9263 0.0
H178 H 0.82735 0.95527 0.9663 0.0
C179 C 0.80037 0.9538 1.00536 0.0
C180 C 0.53623 0.72679 0.22307 0.0
C181 C 0.54247 0.70863 0.23939 0.0
C182 C 0.55584 0.69882 0.20746 0.0
C183 C 0.55664 0.72464 0.1436 0.0
C184 C 0.54377 0.73466 0.17513 0.0
C185 C 0.53964 0.75401 0.15123 0.0
H186 H 0.55939 0.81817 0.95176 0.0
C187 C 0.56188 0.73632 0.09666 0.0
C188 C 0.55237 0.75384 0.101 0.0
H189 H 0.51836 0.82487 0.08019 0.0
H190 H 0.52674 0.79365 0.11513 0.0
H191 H 0.59315 0.79645 0.02052 0.0
H192 H 0.54619 0.7791 0.92029 0.0
H193 H 0.56352 0.76162 0.90999 0.0
H194 H 0.56847 0.78584 0.89144 0.0
H195 H 0.59192 0.80002 0.94849 0.0
H196 H 0.6012 0.77831 0.9763 0.0
C197 C 0.54569 0.76943 0.19288 0.0
C198 C 0.51839 0.75479 0.13586 0.0
C199 C 0.59996 0.70613 0.94442 0.0
C200 C 0.60588 0.71261 0.89324 0.0
C201 C 0.60464 0.73225 0.88263 0.0
C202 C 0.59623 0.7448 0.92026 0.0
C203 C 0.58893 0.73768 0.96913 0.0
C204 C 0.59161 0.7188 0.98138 0.0
C205 C 0.58323 0.71368 0.03532 0.0
C206 C 0.57381 0.7323 0.05161 0.0
C207 C 0.57715 0.74626 0.01274 0.0
C208 C 0.59979 0.70841 0.07415 0.0
C209 C 0.56849 0.69761 0.02577 0.0
C210 C 0.55249 0.81306 0.98808 0.0
C211 C 0.53854 0.82403 0.01401 0.0
C212 C 0.52931 0.81665 0.05996 0.0
C213 C 0.53418 0.79856 0.08001 0.0
C214 C 0.54809 0.78762 0.05301 0.0
C215 C 0.5568 0.79497 1.00748 0.0
C216 C 0.56978 0.781 0.98011 0.0
C217 C 0.56807 0.76418 0.0175 0.0
C218 C 0.55551 0.76801 0.0608 0.0
C219 C 0.59012 0.78931 0.98087 0.0
C220 C 0.56178 0.77666 0.92237 0.0
H221 H 0.57286 0.69824 0.13742 0.0
H222 H 0.52603 0.73466 0.24724 0.0
H223 H 0.51522 0.76571 0.10538 0.0
H224 H 0.50948 0.75744 0.17234 0.0
H225 H 0.51377 0.74109 0.11709 0.0
H226 H 0.56 0.76618 0.20957 0.0
H227 H 0.53557 0.77014 0.22738 0.0
H228 H 0.54674 0.78366 0.17492 0.0
H229 H 0.60048 0.69122 0.95444 0.0
H230 H 0.60951 0.73784 0.84434 0.0
H231 H 0.59511 0.75944 0.90899 0.0
H232 H 0.61361 0.71421 0.06017 0.0
H233 H 0.60148 0.69277 0.07722 0.0
H234 H 0.59789 0.71458 0.11543 0.0
H235 H 0.55993 0.70038 0.98865 0.0
H236 H 0.55807 0.69638 0.05887 0.0
H237 H 0.5756 0.68363 0.02023 0.0
H238 H 0.56074 0.68485 0.21923 0.0
C239 C 0.56291 0.70667 0.15992 0.0
C240 C 0.31162 0.48425 0.16251 0.0
C241 C 0.32085 0.47854 0.21091 0.0
C242 C 0.3121 0.46489 0.24362 0.0
C243 C 0.28506 0.46342 0.18297 0.0
C244 C 0.29358 0.4765 0.1494 0.0
C245 C 0.28084 0.48103 0.10119 0.0
H246 H 0.19635 0.46245 0.96948 0.0
C247 C 0.26636 0.45826 0.16013 0.0
C248 C 0.26365 0.46824 0.1114 0.0
H249 H 0.23837 0.50325 0.92029 0.0
H250 H 0.25829 0.49466 0.99786 0.0
H251 H 0.22483 0.42885 1.00568 0.0
H252 H 0.19585 0.47487 0.08496 0.0
H253 H 0.19718 0.45736 0.13463 0.0
H254 H 0.18442 0.45253 0.07231 0.0
H255 H 0.19969 0.42949 0.01705 0.0
H256 H 0.2158 0.4198 0.06665 0.0
C257 C 0.29128 0.47543 0.04844 0.0
C258 C 0.27552 0.50228 0.10428 0.0
C259 C 0.22194 0.41774 0.27253 0.0
C260 C 0.20284 0.41238 0.26506 0.0
C261 C 0.19455 0.41471 0.2133 0.0
C262 C 0.20447 0.4236 0.17153 0.0
C263 C 0.22283 0.43056 0.18146 0.0
C264 C 0.23154 0.42696 0.23053 0.0
C265 C 0.25099 0.43567 0.23401 0.0
C266 C 0.25204 0.446 0.18008 0.0
C267 C 0.2355 0.44299 0.14978 0.0
C268 C 0.2657 0.41927 0.23738 0.0
C269 C 0.25122 0.4497 0.28314 0.0
C270 C 0.20999 0.46936 0.97457 0.0
C271 C 0.2159 0.48326 0.93807 0.0
C272 C 0.23349 0.49238 0.94772 0.0
C273 C 0.24502 0.48739 0.99272 0.0
C274 C 0.2387 0.4734 0.02908 0.0
C275 C 0.22131 0.46485 0.01931 0.0
C276 C 0.21568 0.45142 0.06292 0.0
C277 C 0.23269 0.45269 0.10028 0.0
C278 C 0.24646 0.46546 0.08084 0.0
C279 C 0.21373 0.43131 0.03706 0.0
C280 C 0.1973 0.45924 0.09011 0.0
H281 H 0.28871 0.44708 0.25718 0.0
H282 H 0.31806 0.49473 0.13653 0.0
H283 H 0.27127 0.50634 0.14634 0.0
H284 H 0.26334 0.5058 0.07809 0.0
H285 H 0.28775 0.5113 0.09267 0.0
H286 H 0.29704 0.46075 0.05136 0.0
H287 H 0.30334 0.48521 0.04095 0.0
H288 H 0.28185 0.47556 0.01264 0.0
H289 H 0.22894 0.41583 0.31128 0.0
H290 H 0.17988 0.41092 0.2059 0.0
H291 H 0.19703 0.42552 0.13396 0.0
H292 H 0.26002 0.40577 0.21995 0.0
H293 H 0.26984 0.41646 0.2801 0.0
H294 H 0.27862 0.42212 0.21328 0.0
H295 H 0.23753 0.45754 0.28609 0.0
H296 H 0.26211 0.46087 0.28001 0.0
H297 H 0.25336 0.44205 0.32189 0.0
H298 H 0.31896 0.46012 0.2805 0.0
C299 C 0.29447 0.45727 0.22987 0.0
C300 C 0.10621 0.22391 0.26936 0.0
C301 C 0.11308 0.20537 0.25974 0.0
C302 C 0.11165 0.1976 0.20683 0.0
C303 C 0.09312 0.22468 0.17815 0.0
C304 C 0.09628 0.23327 0.22799 0.0
C305 C 0.08654 0.25229 0.23233 0.0
H306 H 0.02264 0.31599 0.13862 0.0
C307 C 0.07921 0.23631 0.14809 0.0
C308 C 0.07539 0.2526 0.17913 0.0
H309 H 0.06181 0.32102 0.27343 0.0
H310 H 0.0743 0.29013 0.25338 0.0
H311 H 0.05381 0.29412 0.04857 0.0
H312 H 0.01354 0.26752 0.15758 0.0
H313 H 0.012 0.25918 0.08951 0.0
H314 H 1.0056 0.28336 0.10532 0.0
H315 H 0.02889 0.29966 0.04529 0.0
H316 H 0.03784 0.27795 0.01622 0.0
C317 C 0.10213 0.26788 0.23468 0.0
C318 C 0.07324 0.25205 0.28239 0.0
C319 C 0.05017 0.20657 0.98035 0.0
C320 C 0.03424 0.21025 0.94806 0.0
C321 C 0.02361 0.22693 0.95931 0.0
C322 C 0.02907 0.2397 1.00173 0.0
C323 C 0.04507 0.23553 0.03417 0.0
C324 C 0.05506 0.21898 0.02291 0.0
C325 C 0.07039 0.2152 0.0633 0.0
C326 C 0.06848 0.23231 0.10059 0.0
C327 C 0.05385 0.24466 0.08366 0.0
C328 C 0.08965 0.2153 0.03293 0.0
C329 C 0.06566 0.19623 0.09231 0.0
C330 C 0.03392 0.31026 0.16347 0.0
C331 C 0.04132 0.32097 0.20793 0.0
C332 C 0.05598 0.31313 0.2392 0.0
C333 C 0.06329 0.29515 0.22728 0.0
C334 C 0.05601 0.28457 0.18331 0.0
C335 C 0.04168 0.29202 0.15152 0.0
C336 C 0.03635 0.27821 0.10576 0.0
C337 C 0.0505 0.2619 0.1143 0.0
C338 C 0.06155 0.26581 0.16099 0.0
C339 C 0.03931 0.28797 0.05076 0.0
C340 C 0.01572 0.27171 0.11461 0.0
H341 H 0.10048 0.20003 0.12758 0.0
H342 H 0.10748 0.23046 0.30923 0.0
H343 H 0.06529 0.23841 0.28388 0.0
H344 H 0.06234 0.26329 0.28176 0.0
H345 H 0.08147 0.25353 0.32074 0.0
H346 H 0.11616 0.26247 0.2207 0.0
H347 H 0.10413 0.27347 0.27668 0.0
H348 H 0.09891 0.27987 0.20731 0.0
H349 H 0.05834 0.19366 0.97422 0.0
H350 H 0.01116 0.23012 0.9352 0.0
H351 H 0.02058 0.25219 0.00825 0.0
H352 H 0.08976 0.22635 1.00097 0.0
H353 H 0.09242 0.20137 0.01274 0.0
H354 H 0.10175 0.21891 0.05977 0.0
H355 H 0.05037 0.19246 0.08855 0.0
H356 H 0.06812 0.19695 0.13666 0.0
H357 H 0.07391 0.18416 0.07493 0.0
H358 H 0.11675 0.18338 0.1979 0.0
C359 C 0.10182 0.20718 0.16605 0.0
C360 C 0.29828 0.03978 0.97118 0.0
C361 C 0.3162 0.04621 0.95302 0.0
C362 C 0.32409 0.06262 0.97675 0.0
C363 C 0.2975 0.06543 0.03835 0.0
C364 C 0.28902 0.04985 0.01378 0.0
C365 C 0.26974 0.04589 0.039 0.0
H366 H 0.20379 0.07278 0.23145 0.0
C367 C 0.28523 0.07234 0.08285 0.0
C368 C 0.26855 0.06135 0.08327 0.0
H369 H 0.19823 0.02623 0.11717 0.0
H370 H 0.22955 0.03339 0.08002 0.0
H371 H 0.24268 0.0617 0.26655 0.0
H372 H 0.22428 0.10377 0.15356 0.0
H373 H 0.24183 0.11413 0.19569 0.0
H374 H 0.2205 0.10492 0.22565 0.0
H375 H 0.23698 0.08534 0.28867 0.0
H376 H 0.26074 0.07875 0.26849 0.0
C377 C 0.27008 0.02579 0.06329 0.0
C378 C 0.25437 0.04844 0.99498 0.0
C379 C 0.31328 0.11834 0.22048 0.0
C380 C 0.30705 0.1244 0.27205 0.0
C381 C 0.28777 0.12212 0.28555 0.0
C382 C 0.27538 0.11238 0.25028 0.0
C383 C 0.28244 0.1045 0.20152 0.0
C384 C 0.3009 0.10818 0.18645 0.0
C385 C 0.30634 0.09796 0.13487 0.0
C386 C 0.28847 0.08652 0.1233 0.0
C387 C 0.27453 0.09048 0.16217 0.0
C388 C 0.32363 0.085 0.14745 0.0
C389 C 0.30998 0.11311 0.09072 0.0
C390 C 0.20912 0.06433 0.19769 0.0
C391 C 0.19838 0.04926 0.17642 0.0
C392 C 0.2062 0.03809 0.1339 0.0
C393 C 0.22432 0.04229 0.11236 0.0
C394 C 0.23488 0.05759 0.13429 0.0
C395 C 0.22716 0.06806 0.17684 0.0
C396 C 0.24059 0.08257 0.19949 0.0
C397 C 0.2573 0.08011 0.16168 0.0
C398 C 0.25417 0.06546 0.12299 0.0
C399 C 0.24549 0.077 0.25888 0.0
C400 C 0.23138 0.10245 0.19377 0.0
H401 H 0.32195 0.08443 0.03545 0.0
H402 H 0.29178 0.02731 0.95294 0.0
H403 H 0.25663 0.06194 0.97287 0.0
H404 H 0.23995 0.04925 0.01206 0.0
H405 H 0.25485 0.03657 0.96486 0.0
H406 H 0.28324 0.02367 0.08755 0.0
H407 H 0.26972 0.01476 0.03064 0.0
H408 H 0.25813 0.02331 0.09113 0.0
H409 H 0.32805 0.11966 0.20908 0.0
H410 H 0.28259 0.12683 0.32485 0.0
H411 H 0.26105 0.11054 0.26367 0.0
H412 H 0.32195 0.07817 0.18771 0.0
H413 H 0.33702 0.0933 0.14849 0.0
H414 H 0.3254 0.07309 0.11847 0.0
H415 H 0.30297 0.12689 0.10073 0.0
H416 H 0.30394 0.10889 0.05075 0.0
H417 H 0.32537 0.11601 0.08603 0.0
H418 H 0.33772 0.06785 0.96313 0.0
C419 C 0.31487 0.07224 0.01885 0.0
C420 C 0.47451 0.29432 0.94296 0.0
C421 C 0.46839 0.31246 0.92604 0.0
C422 C 0.45498 0.32239 0.95769 0.0
C423 C 0.45423 0.29687 0.02256 0.0
C424 C 0.46693 0.28664 0.99106 0.0
C425 C 0.47082 0.26727 0.01505 0.0
H426 H 0.45147 0.20408 0.21705 0.0
C427 C 0.44919 0.2855 0.0703 0.0
C428 C 0.45845 0.26784 0.06597 0.0
H429 H 0.49016 0.19562 0.08345 0.0
H430 H 0.48279 0.22727 0.04999 0.0
H431 H 0.4666 0.24244 0.24691 0.0
H432 H 0.41765 0.22687 0.15281 0.0
H433 H 0.41091 0.24518 0.19833 0.0
H434 H 0.42008 0.2232 0.22456 0.0
H435 H 0.44432 0.23757 0.27862 0.0
H436 H 0.45063 0.26119 0.2573 0.0
C437 C 0.49215 0.26603 0.0292 0.0
C438 C 0.46411 0.25194 0.97394 0.0
C439 C 0.41365 0.31718 0.22551 0.0
C440 C 0.40898 0.3111 0.27804 0.0
C441 C 0.41044 0.2916 0.28994 0.0
C442 C 0.41785 0.27869 0.25165 0.0
C443 C 0.42405 0.28535 0.20106 0.0
C444 C 0.42125 0.30417 0.18801 0.0
C445 C 0.4289 0.30882 0.13278 0.0
C446 C 0.43791 0.28998 0.11641 0.0
C447 C 0.43501 0.27633 0.15645 0.0
C448 C 0.44389 0.3248 0.13973 0.0
C449 C 0.41188 0.31402 0.09555 0.0
C450 C 0.45808 0.20889 0.17995 0.0
C451 C 0.47105 0.19727 0.15215 0.0
C452 C 0.47995 0.20432 0.10521 0.0
C453 C 0.47564 0.22265 0.08591 0.0
C454 C 0.46256 0.23414 0.11449 0.0
C455 C 0.45426 0.22716 0.16108 0.0
C456 C 0.44214 0.2416 0.18969 0.0
C457 C 0.4437 0.25822 0.15152 0.0
C458 C 0.45557 0.25392 0.10702 0.0
C459 C 0.4512 0.24593 0.24616 0.0
C460 C 0.42159 0.23388 0.19198 0.0
H461 H 0.43796 0.32324 0.02783 0.0
H462 H 0.48468 0.28629 0.91907 0.0
H463 H 0.44994 0.25569 0.95719 0.0
H464 H 0.46244 0.23785 0.99238 0.0
H465 H 0.47417 0.25067 0.9394 0.0
H466 H 0.49713 0.27955 0.04826 0.0
H467 H 0.50076 0.26339 0.99213 0.0
H468 H 0.49531 0.25487 0.05899 0.0
H469 H 0.41286 0.33205 0.21501 0.0
H470 H 0.40664 0.28647 0.32977 0.0
H471 H 0.41915 0.26416 0.26377 0.0
H472 H 0.45314 0.32202 0.17549 0.0
H473 H 0.43698 0.33883 0.14621 0.0
H474 H 0.45364 0.32594 0.10499 0.0
H475 H 0.39821 0.3085 0.11146 0.0
H476 H 0.41315 0.30754 0.05445 0.0
H477 H 0.41034 0.32965 0.09174 0.0
H478 H 0.45018 0.33638 0.94583 0.0
C479 C 0.44791 0.31474 1.00553 0.0
Eu480 Eu 0.02726 0.00806 0.64454 0.0
C481 C 0.95534 0.98534 0.51023 0.0
C482 C 0.96699 0.96267 0.44374 0.0
C483 C 0.93459 0.96026 0.47622 0.0
C484 C 0.96999 0.97837 0.47893 0.0
C485 C 0.93725 0.97679 0.50781 0.0
C486 C 0.94945 0.95322 0.44408 0.0
C487 C 0.92508 1.00335 0.56006 0.0
N488 N 0.95827 1.00162 0.5388 0.0
C489 C 0.94323 0.01138 0.56025 0.0
C490 C 0.92216 0.98573 0.53474 0.0
Eu491 Eu 0.98955 0.01411 0.54134 0.0
N492 N 0.98671 0.98791 0.47954 0.0
C493 C 1.00039 0.98349 0.44216 0.0
C494 C 0.98144 0.95741 0.40773 0.0
C495 C 0.99808 0.96809 0.4063 0.0
H496 H 0.94542 0.02519 0.57886 0.0
H497 H 0.0092 0.96441 0.37782 0.0
H498 H 0.94701 0.94093 0.4181 0.0
H499 H 0.91336 0.01082 0.57897 0.0
H500 H 0.01341 0.99143 0.44045 0.0
H501 H 0.0108 0.05516 0.81743 0.0
H502 H 0.97969 0.9455 0.37992 0.0
H503 H 0.06968 0.99901 0.58915 0.0
H504 H 1.0049 0.02962 0.75145 0.0
H505 H 0.10215 0.01224 0.58984 0.0
H506 H 0.92088 0.95333 0.47446 0.0
H507 H 0.04125 0.07251 0.817 0.0
H508 H 0.07389 0.07615 0.77829 0.0
H509 H 0.90805 0.97963 0.53395 0.0
H510 H 0.09875 0.06455 0.71626 0.0
N511 N 0.03159 0.03243 0.71141 0.0
C512 C 0.01831 0.03688 0.74997 0.0
C513 C 0.03878 0.0612 0.78758 0.0
C514 C 0.05276 0.05594 0.75012 0.0
C515 C 0.02159 0.05143 0.78798 0.0
C516 C 0.04878 0.04117 0.71246 0.0
H517 H 0.10953 0.04052 0.64666 0.0
N518 N 0.05876 0.01982 0.64414 0.0
C519 C 0.0912 0.01875 0.61457 0.0
C520 C 0.06276 0.0347 0.67763 0.0
C521 C 0.07283 0.01127 0.6144 0.0
C522 C 0.09528 0.03475 0.64652 0.0
C523 C 0.08109 0.04274 0.67931 0.0
O524 O 0.04583 0.98488 0.66898 0.0
O525 O 0.00777 0.9931 0.58516 0.0
O526 O 0.97492 1.00245 0.61638 0.0
O527 O 0.99792 0.00709 0.6842 0.0
O528 O 0.03589 0.98465 0.58539 0.0
O529 O 0.02243 0.9934 0.72086 0.0
O530 O 0.97291 0.03836 0.51313 0.0
O531 O 0.0086 0.02846 0.60163 0.0
O532 O 0.03952 0.02554 0.57612 0.0
O533 O 0.01964 0.01601 0.50542 0.0
O534 O 0.98148 0.03937 0.59545 0.0
O535 O 0.99334 0.02497 0.45959 0.0
C536 C 0.01941 0.98125 0.56497 0.0
C537 C 0.02985 0.96068 0.71394 0.0
C538 C 0.00664 0.93545 0.69844 0.0
C539 C 0.01167 0.95477 0.69717 0.0
C540 C 0.02028 0.92211 0.71555 0.0
C541 C 0.04318 0.94718 0.73075 0.0
C542 C 0.0384 0.92797 0.73133 0.0
C543 C 0.98032 1.00328 0.66808 0.0
C544 C 0.03553 0.98068 0.71094 0.0
C545 C 0.08483 0.05805 0.7148 0.0
C546 C 0.07068 0.06464 0.75014 0.0
C547 C 0.99762 0.0413 0.61958 0.0
C548 C 0.98828 0.05796 0.4502 0.0
C549 C 0.0077 0.06254 0.44981 0.0
C550 C 0.01373 0.08022 0.43078 0.0
C551 C 1.00016 0.09354 0.41368 0.0
C552 C 0.97492 0.07144 0.43328 0.0
C553 C 0.98085 0.08919 0.41536 0.0
C554 C 0.03584 0.02335 0.52367 0.0
C555 C 0.98167 0.03914 0.46679 0.0
H556 H 1.00151 0.96518 0.68305 0.0
H557 H 0.01681 0.90717 0.71829 0.0
H558 H 0.05731 0.95151 0.74306 0.0
H559 H 0.04872 0.9176 0.74458 0.0
H560 H 0.01812 0.05225 0.46267 0.0
H561 H 1.00451 0.10733 0.39914 0.0
H562 H 0.9599 0.06816 0.43357 0.0
H563 H 0.97048 0.09954 0.40224 0.0
Eu564 Eu 0.51075 0.02652 0.62576 0.0
C565 C 0.52761 0.95756 0.48665 0.0
C566 C 0.54929 0.97122 0.42182 0.0
C567 C 0.55307 0.9383 0.44821 0.0
C568 C 0.53363 0.97297 0.45726 0.0
C569 C 0.5369 0.93986 0.48118 0.0
C570 C 0.55925 0.95396 0.41853 0.0
C571 C 0.51211 0.92597 0.53521 0.0
N572 N 0.51184 0.95951 0.5176 0.0
C573 C 0.50331 0.94375 0.5387 0.0
C574 C 0.5292 0.92408 0.50719 0.0
Eu575 Eu 0.4979 0.99033 0.5238 0.0
N576 N 0.52377 0.98948 0.46175 0.0
C577 C 0.52815 1.00442 0.42911 0.0
C578 C 0.55428 0.98678 0.39013 0.0
C579 C 0.54348 1.00336 0.39323 0.0
H580 H 0.48993 0.94509 0.55977 0.0
H581 H 0.54701 0.01539 0.36824 0.0
H582 H 0.57147 0.95246 0.3922 0.0
H583 H 0.50563 0.91373 0.55378 0.0
H584 H 0.52001 0.0173 0.43044 0.0
H585 H 0.5186 0.01142 0.84249 0.0
H586 H 0.56624 0.98604 0.36261 0.0
H587 H 0.47758 0.05445 0.56505 0.0
H588 H 0.5283 0.01267 0.74639 0.0
H589 H 0.44854 0.07155 0.58797 0.0
H590 H 0.56054 0.9249 0.44408 0.0
H591 H 0.48774 0.02498 0.87092 0.0
H592 H 0.45831 0.04299 0.84623 0.0
H593 H 0.53592 0.91026 0.50404 0.0
H594 H 0.43961 0.05984 0.77741 0.0
N595 N 0.50263 0.02562 0.71973 0.0
C596 C 0.51461 0.01831 0.75815 0.0
C597 C 0.49184 0.02536 0.82856 0.0
C598 C 0.48027 0.03408 0.78991 0.0
C599 C 0.50924 0.01769 0.8127 0.0
C600 C 0.48624 0.03415 0.73517 0.0
H601 H 0.43611 0.07096 0.6817 0.0
N602 N 0.4821 0.04355 0.64446 0.0
C603 C 0.45602 0.06371 0.61897 0.0
C604 C 0.47578 0.04363 0.69655 0.0
C605 C 0.47263 0.05378 0.60602 0.0
C606 C 0.44907 0.06337 0.67187 0.0
C607 C 0.45898 0.05332 0.71151 0.0
O608 O 0.52211 0.05429 0.60272 0.0
O609 O 0.52114 0.00917 0.55452 0.0
O610 O 0.50807 0.97458 0.59878 0.0
O611 O 0.51078 0.99771 0.66757 0.0
O612 O 0.538 0.00936 0.6234 0.0
O613 O 0.53212 0.04105 0.67536 0.0
O614 O 0.47373 0.97247 0.50103 0.0
O615 O 0.48661 0.01172 0.58457 0.0
O616 O 0.50828 0.04082 0.54411 0.0
O617 O 0.49176 0.01954 0.48846 0.0
O618 O 0.47493 0.98447 0.58529 0.0
O619 O 0.48534 0.99189 0.44285 0.0
C620 C 0.53675 1.00332 0.57386 0.0
C621 C 0.55506 0.05572 0.61976 0.0
C622 C 0.58651 0.04122 0.60952 0.0
C623 C 0.56889 0.04255 0.63607 0.0
C624 C 0.59078 0.05452 0.56917 0.0
C625 C 0.55965 0.06889 0.57953 0.0
C626 C 0.57751 0.06842 0.55496 0.0
C627 C 0.51058 0.97983 0.65012 0.0
C628 C 0.53531 0.0541 0.63967 0.0
C629 C 0.45261 0.05272 0.76544 0.0
C630 C 0.46322 0.04308 0.80456 0.0
C631 C 0.47459 1.00109 0.60763 0.0
C632 C 0.45247 0.98549 0.43814 0.0
C633 C 0.44651 1.00451 0.44164 0.0
C634 C 0.42845 0.00978 0.4229 0.0
C635 C 0.41599 0.99559 0.4037 0.0
C636 C 0.43989 0.97155 0.41886 0.0
C637 C 0.42165 0.97658 0.40223 0.0
C638 C 0.4991 0.03649 0.49882 0.0
C639 C 0.4718 0.97993 0.45342 0.0
H640 H 0.56565 0.03278 0.66836 0.0
H641 H 0.60407 0.05386 0.54728 0.0
H642 H 0.54925 0.07917 0.56605 0.0
H643 H 0.58085 0.07846 0.52342 0.0
H644 H 0.4561 0.01522 0.45728 0.0
H645 H 0.40187 0.99923 0.38969 0.0
H646 H 0.44423 0.95678 0.41641 0.0
H647 H 0.41197 0.96577 0.38737 0.0
Eu648 Eu 0.53165 0.50663 0.5522 0.0
C649 C 0.44768 0.48868 0.6229 0.0
C650 C 0.42643 0.50288 0.55751 0.0
C651 C 0.41678 0.47449 0.60532 0.0
C652 C 0.44405 0.50248 0.58486 0.0
C653 C 0.43395 0.47474 0.63441 0.0
C654 C 0.413 0.48858 0.56704 0.0
C655 C 0.45433 0.46352 0.70632 0.0
N656 N 0.46426 0.4895 0.65081 0.0
C657 C 0.4674 0.47772 0.69374 0.0
C658 C 0.43763 0.46184 0.676 0.0
Eu659 Eu 0.48622 0.51336 0.62609 0.0
N660 N 0.4574 0.51601 0.57634 0.0
C661 C 0.45342 0.53109 0.54373 0.0
C662 C 0.42265 0.51789 0.52232 0.0
C663 C 0.43614 0.53215 0.51587 0.0
H664 H 0.48036 0.47891 0.71709 0.0
H665 H 0.43327 0.54397 0.48935 0.0
H666 H 0.39949 0.48853 0.5459 0.0
H667 H 0.45715 0.45387 0.73929 0.0
H668 H 0.46353 0.54233 0.53843 0.0
H669 H 0.58758 0.48704 0.69531 0.0
H670 H 0.40928 0.51876 0.50069 0.0
H671 H 0.53377 0.5379 0.44943 0.0
H672 H 0.55694 0.48381 0.64725 0.0
H673 H 0.55426 0.56404 0.41904 0.0
H674 H 0.40612 0.46379 0.6132 0.0
H675 H 0.60866 0.51418 0.67578 0.0
H676 H 0.61516 0.54333 0.62101 0.0
H677 H 0.42747 0.45088 0.68596 0.0
H678 H 0.60608 0.56428 0.54593 0.0
N679 N 0.56054 0.50895 0.6013 0.0
C680 C 0.56608 0.49566 0.63817 0.0
C681 C 0.59527 0.51278 0.65436 0.0
C682 C 0.58992 0.52586 0.61478 0.0
C683 C 0.58344 0.49742 0.66541 0.0
C684 C 0.57239 0.52331 0.58781 0.0
H685 H 0.58356 0.57194 0.46995 0.0
N686 N 0.55105 0.53124 0.51774 0.0
C687 C 0.55813 0.55596 0.45454 0.0
C688 C 0.56746 0.53487 0.54493 0.0
C689 C 0.54659 0.54107 0.4718 0.0
C690 C 0.57463 0.56042 0.4835 0.0
C691 C 0.57965 0.54964 0.52876 0.0
O692 O 0.53592 0.49375 0.47182 0.0
O693 O 0.50013 0.50416 0.54956 0.0
O694 O 0.49074 0.48201 0.60753 0.0
O695 O 0.52373 0.48092 0.60408 0.0
O696 O 0.51283 0.51222 0.47812 0.0
O697 O 0.54975 0.4818 0.54219 0.0
O698 O 0.47726 0.51987 0.70887 0.0
O699 O 0.51777 0.51534 0.6299 0.0
O700 O 0.52756 0.53798 0.569 0.0
O701 O 0.49456 0.53923 0.57453 0.0
O702 O 0.50473 0.50581 0.69913 0.0
O703 O 0.47661 0.54192 0.64799 0.0
C704 C 0.49684 0.50846 0.50084 0.0
C705 C 0.53988 0.46045 0.47517 0.0
C706 C 0.51593 0.43552 0.47426 0.0
C707 C 0.52105 0.45459 0.48303 0.0
C708 C 0.52983 0.4225 0.45638 0.0
C709 C 0.55352 0.44733 0.45734 0.0
C710 C 0.54846 0.42843 0.44774 0.0
C711 C 0.507 0.47263 0.61117 0.0
C712 C 0.54587 0.47965 0.49083 0.0
C713 C 0.59662 0.5529 0.55744 0.0
C714 C 0.60177 0.54099 0.60024 0.0
C715 C 0.5208 0.51025 0.67812 0.0
C716 C 0.48575 0.55045 0.73744 0.0
C717 C 0.50342 0.55814 0.72313 0.0
C718 C 0.51385 0.56904 0.76084 0.0
C719 C 0.50646 0.57198 0.81332 0.0
C720 C 0.47859 0.55357 0.78981 0.0
C721 C 0.48894 0.56428 0.82758 0.0
C722 C 0.51131 0.54732 0.56563 0.0
C723 C 0.4754 0.53797 0.69961 0.0
H724 H 0.51055 0.46475 0.49723 0.0
H725 H 0.52622 0.40778 0.44829 0.0
H726 H 0.56814 0.45164 0.45175 0.0
H727 H 0.55903 0.41832 0.43397 0.0
H728 H 0.50915 0.55545 0.68298 0.0
H729 H 0.51402 0.58058 0.84302 0.0
H730 H 0.46511 0.54752 0.80163 0.0
H731 H 0.48335 0.56667 0.868 0.0
Eu732 Eu 0.01564 0.53395 0.54901 0.0
C733 C 0.02804 0.45107 0.63365 0.0
C734 C 0.01438 0.4295 0.56704 0.0
C735 C 0.04117 0.41931 0.62182 0.0
C736 C 0.01495 0.44749 0.59301 0.0
C737 C 0.04104 0.43689 0.6494 0.0
C738 C 0.02784 0.41561 0.58075 0.0
C739 C 0.05155 0.45779 0.72196 0.0
N740 N 0.02741 0.4681 0.65983 0.0
C741 C 0.03832 0.47133 0.70507 0.0
C742 C 0.05312 0.44059 0.69349 0.0
Eu743 Eu 1.00529 0.4908 0.62768 0.0
N744 N 1.00225 0.46129 0.58043 0.0
C745 C 0.98773 0.45746 0.54506 0.0
C746 C 1.00007 0.42587 0.52887 0.0
C747 C 0.98654 0.43984 0.51841 0.0
H748 H 0.03723 0.48469 0.72696 0.0
H749 H 0.97524 0.4371 0.4895 0.0
H750 H 0.02778 0.40182 0.5607 0.0
H751 H 0.06054 0.46065 0.75679 0.0
H752 H 0.97718 0.46801 0.53613 0.0
H753 H 0.03534 0.59132 0.68972 0.0
H754 H 0.99918 0.41228 0.50792 0.0
H755 H 0.98856 0.53665 0.43613 0.0
H756 H 0.03753 0.55955 0.64679 0.0
H757 H 0.96579 0.5587 0.39434 0.0
H758 H 0.05117 0.40831 0.63293 0.0
H759 H 0.01074 0.61398 0.65961 0.0
H760 H 0.9841 0.62156 0.59555 0.0
H761 H 0.06333 0.43008 0.70675 0.0
H762 H 0.96516 0.61268 0.51512 0.0
N763 N 0.01404 0.56391 0.59389 0.0
C764 C 0.02668 0.56929 0.63337 0.0
C765 C 0.01158 0.60002 0.64074 0.0
C766 C 0.99932 0.59481 0.59833 0.0
C767 C 0.02553 0.5873 0.6577 0.0
C768 C 1.00116 0.57653 0.57472 0.0
H769 H 0.95853 0.58946 0.43922 0.0
N770 N 0.99389 0.55448 0.50501 0.0
C771 C 0.97265 0.56249 0.43232 0.0
C772 C 0.99072 0.57165 0.529 0.0
C773 C 0.98562 0.55003 0.45615 0.0
C774 C 0.96854 0.57981 0.45788 0.0
C775 C 0.97784 0.58474 0.50631 0.0
O776 O 0.03108 0.53483 0.47203 0.0
O777 O 0.01676 0.50222 0.55102 0.0
O778 O 0.03723 0.49349 0.61634 0.0
O779 O 0.03971 0.52623 0.60807 0.0
O780 O 0.01014 0.51393 0.47696 0.0
O781 O 0.04135 0.55082 0.54154 0.0
O782 O 0.99713 0.48357 0.71014 0.0
O783 O 1.0043 0.52259 0.6269 0.0
O784 O 0.98361 0.53174 0.55477 0.0
O785 O 0.98041 0.4993 0.57156 0.0
O786 O 0.01242 0.51046 0.69915 0.0
O787 O 0.97614 0.48259 0.64551 0.0
C788 C 0.01284 0.4982 0.5021 0.0
C789 C 0.06422 0.53771 0.48439 0.0
C790 C 0.08752 0.51222 0.49123 0.0
C791 C 0.06863 0.51856 0.49406 0.0
C792 C 0.10187 0.52531 0.47815 0.0
C793 C 0.07868 0.5505 0.47152 0.0
C794 C 0.09743 0.54429 0.46832 0.0
C795 C 0.04717 0.50942 0.61971 0.0
C796 C 0.04493 0.54492 0.49244 0.0
C797 C 0.97512 0.60251 0.53164 0.0
C798 C 0.98588 0.60756 0.57749 0.0
C799 C 0.00876 0.52629 0.67571 0.0
C800 C 0.96662 0.49388 0.73195 0.0
C801 C 0.96036 0.51177 0.7144 0.0
C802 C 0.94945 0.52346 0.74882 0.0
C803 C 0.94505 0.51706 0.80129 0.0
C804 C 0.96208 0.48774 0.78422 0.0
C805 C 0.95134 0.49932 0.81874 0.0
C806 C 0.9734 0.51593 0.5555 0.0
C807 C 0.97919 0.48224 0.69788 0.0
H808 H 0.05743 0.50875 0.50465 0.0
H809 H 0.11651 0.52081 0.47438 0.0
H810 H 0.07548 0.56535 0.46467 0.0
H811 H 0.10857 0.55421 0.45825 0.0
H812 H 0.96417 0.51669 0.67434 0.0
H813 H 0.93636 0.52556 0.82846 0.0
H814 H 0.96703 0.4741 0.79851 0.0
H815 H 0.94783 0.49453 0.8591 0.0
C816 C 0.17572 0.02782 0.22581 0.0
C817 C 0.17947 0.04528 0.20091 0.0
C818 C 0.15925 0.0254 0.25709 0.0
C819 C 0.11111 0.0447 0.28425 0.0
H820 H 0.11812 0.02396 0.42818 0.0
C821 C 0.04924 0.02291 0.42855 0.0
C822 C 0.05097 0.02822 0.48369 0.0
C823 C 0.06416 0.02599 0.39202 0.0
C824 C 0.11593 0.02984 0.38817 0.0
H825 H 0.16853 0.0736 0.18745 0.0
H826 H 0.13959 0.06923 0.24047 0.0
H827 H 0.14519 0.02611 0.36649 0.0
H828 H 0.06925 0.04263 0.54193 0.0
H829 H 0.09552 0.0472 0.47889 0.0
H830 H 0.08177 0.04827 0.30597 0.0
C831 C 0.14938 0.05743 0.23627 0.0
C832 C 0.13141 0.03088 0.35259 0.0
C833 C 0.16596 0.05994 0.20588 0.0
C834 C 0.06767 0.03758 0.5005 0.0
C835 C 0.08271 0.04035 0.46423 0.0
C836 C 0.09554 0.04334 0.31954 0.0
C837 C 0.146 0.04029 0.26339 0.0
C838 C 0.12924 0.03839 0.30021 0.0
C839 C 0.08127 0.0343 0.40972 0.0
C840 C 0.09778 0.03598 0.37207 0.0
H841 H 0.18597 0.01636 0.22325 0.0
H842 H 0.15701 0.01196 0.27708 0.0
H843 H 0.10892 0.05054 0.24421 0.0
H844 H 0.03653 0.01596 0.41367 0.0
H845 H 0.06256 0.02123 0.35026 0.0
C846 C 0.46093 0.16552 0.18644 0.0
C847 C 0.47562 0.1783 0.17458 0.0
C848 C 0.46464 0.14889 0.21525 0.0
C849 C 0.4965 0.1308 0.31891 0.0
H850 H 0.47573 0.0814 0.28119 0.0
C851 C 0.51126 0.06559 0.45312 0.0
C852 C 0.49712 0.05166 0.45778 0.0
C853 C 0.50951 0.08017 0.41525 0.0
C854 C 0.48142 0.09512 0.29295 0.0
H855 H 0.50575 0.18354 0.18249 0.0
H856 H 0.51225 0.15452 0.23382 0.0
H857 H 0.47126 0.108 0.21973 0.0
H858 H 0.46993 0.0423 0.42657 0.0
H859 H 0.46632 0.0681 0.36247 0.0
H860 H 0.50589 0.11845 0.39307 0.0
C861 C 0.49789 0.15733 0.22035 0.0
C862 C 0.47897 0.11035 0.25735 0.0
C863 C 0.49422 0.17383 0.1906 0.0
C864 C 0.48116 0.05265 0.42367 0.0
C865 C 0.47918 0.06748 0.38653 0.0
C866 C 0.49868 0.1157 0.35493 0.0
C867 C 0.48307 0.14485 0.23377 0.0
C868 C 0.48649 0.12836 0.26994 0.0
C869 C 0.49334 0.08151 0.38168 0.0
C870 C 0.49117 0.09759 0.34262 0.0
H871 H 0.44645 0.1687 0.17477 0.0
H872 H 0.45291 0.13964 0.22523 0.0
H873 H 0.50217 0.1446 0.33022 0.0
H874 H 0.52387 0.0651 0.47838 0.0
H875 H 0.52099 0.09031 0.41218 0.0
C876 C 0.34019 0.49492 0.2824 0.0
C877 C 0.33928 0.48653 0.23035 0.0
C878 C 0.35765 0.49827 0.30792 0.0
C879 C 0.40996 0.50092 0.28776 0.0
H880 H 0.4111 0.48739 0.43997 0.0
C881 C 0.46715 0.49011 0.47833 0.0
C882 C 0.47897 0.50582 0.46971 0.0
C883 C 0.45078 0.48731 0.44653 0.0
C884 C 0.41117 0.49115 0.39748 0.0
H885 H 0.35606 0.4758 0.1633 0.0
H886 H 0.38681 0.48184 0.20766 0.0
H887 H 0.3817 0.48445 0.38881 0.0
H888 H 0.48356 0.53033 0.41929 0.0
H889 H 0.45477 0.52594 0.36507 0.0
H890 H 0.43956 0.50739 0.29642 0.0
C891 C 0.37394 0.48594 0.2287 0.0
C892 C 0.39416 0.48967 0.36812 0.0
C893 C 0.35634 0.48258 0.20302 0.0
C894 C 0.47449 0.51828 0.42741 0.0
C895 C 0.45806 0.51561 0.39594 0.0
C896 C 0.427 0.50252 0.3173 0.0
C897 C 0.3748 0.49324 0.28231 0.0
C898 C 0.39322 0.49467 0.31291 0.0
C899 C 0.44585 0.50015 0.40515 0.0
C900 C 0.42786 0.49778 0.37279 0.0
H901 H 0.32727 0.49804 0.30455 0.0
H902 H 0.35768 0.50434 0.34854 0.0
H903 H 0.40984 0.5049 0.2454 0.0
H904 H 0.4706 0.47992 0.50949 0.0
H905 H 0.442 0.47504 0.45442 0.0
C906 C 0.01886 0.34268 0.25818 0.0
C907 C 0.0346 0.34038 0.2238 0.0
C908 C 0.01562 0.36004 0.28572 0.0
C909 C 0.04197 0.40343 0.33338 0.0
H910 H 0.99178 0.42227 0.36863 0.0
C911 C 0.02987 0.46706 0.48461 0.0
C912 C 0.015 0.47969 0.47286 0.0
C913 C 0.03224 0.45019 0.45398 0.0
C914 C 0.00595 0.41736 0.35889 0.0
H915 H 0.05906 0.35459 0.1906 0.0
H916 H 0.05312 0.38499 0.23648 0.0
H917 H 0.99517 0.39364 0.31283 0.0
H918 H 0.9917 0.48513 0.41785 0.0
H919 H 0.99563 0.45587 0.36487 0.0
H920 H 0.05273 0.42736 0.3786 0.0
C921 C 0.04335 0.3734 0.2432 0.0
C922 C 0.00789 0.40071 0.32721 0.0
C923 C 0.04658 0.35606 0.21591 0.0
C924 C 1.00299 0.47542 0.42875 0.0
C925 C 1.00523 0.45855 0.3985 0.0
C926 C 0.04002 0.42007 0.36506 0.0
C927 C 0.02814 0.37555 0.27991 0.0
C928 C 0.02594 0.39348 0.3136 0.0
C929 C 0.01981 0.44555 0.41069 0.0
C930 C 0.02197 0.4274 0.37813 0.0
H931 H 0.00972 0.33069 0.26638 0.0
H932 H 1.00386 0.36092 0.31383 0.0
H933 H 0.05614 0.39826 0.32494 0.0
H934 H 0.03969 0.47024 0.5174 0.0
H935 H 0.0436 0.4406 0.46501 0.0
C936 C 0.86045 0.97522 0.02623 0.0
C937 C 0.84348 0.9849 0.01484 0.0
C938 C 0.87705 0.97903 0.99684 0.0
C939 C 0.89787 0.01167 0.89172 0.0
H940 H 0.92787 0.96718 0.85441 0.0
C941 C 0.94742 0.0087 0.7046 0.0
C942 C 0.96567 1.001 0.71111 0.0
C943 C 0.93383 0.00743 0.74582 0.0
C944 C 0.91978 0.9798 0.86487 0.0
H945 H 0.83066 1.00635 0.9645 0.0
H946 H 0.8593 0.01297 0.91298 0.0
H947 H 0.90231 0.96461 0.92044 0.0
H948 H 0.98406 0.9862 0.76718 0.0
H949 H 0.9601 0.98343 0.83893 0.0
H950 H 0.91494 0.02658 0.83411 0.0
C951 C 0.8602 1.0028 0.94552 0.0
C952 C 0.90511 0.97839 0.90313 0.0
C953 C 0.8437 0.99912 0.97537 0.0
C954 C 0.97004 0.99208 0.76047 0.0
C955 C 0.95631 0.99046 0.80152 0.0
C956 C 0.91236 0.01299 0.85294 0.0
C957 C 0.87701 0.99235 0.9544 0.0
C958 C 0.89375 0.99426 0.91687 0.0
C959 C 0.93805 0.99827 0.79485 0.0
C960 C 0.92338 0.99704 0.83856 0.0
H961 H 0.86056 0.96385 0.0555 0.0
H962 H 0.88971 0.97095 1.00604 0.0
H963 H 0.88985 0.02436 0.90169 0.0
H964 H 0.94376 0.01636 0.66846 0.0
H965 H 0.91994 0.01358 0.73916 0.0
C966 C 0.54689 0.85678 0.98381 0.0
C967 C 0.53317 0.8425 0.99 0.0
C968 C 0.54299 0.87286 0.9527 0.0
C969 C 0.51597 0.88657 0.83418 0.0
H970 H 0.52708 0.93851 0.87748 0.0
C971 C 0.50082 0.94874 0.689 0.0
C972 C 0.51271 0.9647 0.69089 0.0
C973 C 0.50239 0.93452 0.72805 0.0
C974 C 0.52418 0.92409 0.86419 0.0
H975 H 0.50456 0.83391 0.96942 0.0
H976 H 0.4978 0.86192 0.9139 0.0
H977 H 0.53124 0.91291 0.94256 0.0
H978 H 0.53569 0.9783 0.73472 0.0
H979 H 0.53913 0.95319 0.80159 0.0
H980 H 0.50985 0.89728 0.7553 0.0
C981 C 0.51148 0.86077 0.93378 0.0
C982 C 0.52641 0.90944 0.90183 0.0
C983 C 0.51526 0.84486 0.96587 0.0
C984 C 0.52625 0.96619 0.7326 0.0
C985 C 0.5281 0.95179 0.77116 0.0
C986 C 0.51409 0.90112 0.79625 0.0
C987 C 0.52544 0.87477 0.92607 0.0
C988 C 0.52229 0.89053 0.88724 0.0
C989 C 0.51616 0.9357 0.7696 0.0
C990 C 0.51813 0.92016 0.81055 0.0
H991 H 0.56088 0.85515 1.00154 0.0
H992 H 0.55406 0.88333 0.94719 0.0
H993 H 0.51301 0.87208 0.82147 0.0
H994 H 0.48993 0.94747 0.6581 0.0
H995 H 0.49254 0.92275 0.72592 0.0
C996 C 0.66299 0.55548 0.9441 0.0
C997 C 0.67251 0.54048 0.97025 0.0
C998 C 0.64599 0.55239 0.91587 0.0
C999 C 0.60471 0.52076 0.90014 0.0
H1000 H 0.60269 0.54058 0.75395 0.0
C1001 C 0.54288 0.50152 0.7532 0.0
C1002 C 0.53783 0.51415 0.71192 0.0
C1003 C 0.55871 0.50505 0.7864 0.0
C1004 C 0.60272 0.53519 0.79494 0.0
H1005 H 0.67063 0.51057 0.98946 0.0
H1006 H 0.64048 0.5053 0.94136 0.0
H1007 H 0.63077 0.54587 0.80966 0.0
H1008 H 0.54442 0.54123 0.67582 0.0
H1009 H 0.57168 0.54782 0.73456 0.0
H1010 H 0.5765 0.51056 0.88647 0.0
C1011 C 0.64651 0.51944 0.94226 0.0
C1012 C 0.61898 0.53816 0.82689 0.0
C1013 C 0.66377 0.52249 0.97009 0.0
C1014 C 0.54834 0.53095 0.70629 0.0
C1015 C 0.56402 0.53468 0.74014 0.0
C1016 C 0.58829 0.51804 0.86851 0.0
C1017 C 0.63768 0.53427 0.91358 0.0
C1018 C 0.62025 0.53094 0.87986 0.0
C1019 C 0.56966 0.52166 0.78043 0.0
C1020 C 0.58702 0.5251 0.81513 0.0
H1021 H 0.6689 0.56968 0.94449 0.0
H1022 H 0.63938 0.56423 0.8954 0.0
H1023 H 0.60511 0.5152 0.94097 0.0
H1024 H 0.53482 0.48859 0.75889 0.0
H1025 H 0.56254 0.49443 0.81592 0.0
C1026 C 0.98249 0.66623 0.9814 0.0
C1027 C 0.98724 0.68343 0.95637 0.0
C1028 C 0.98534 0.64871 0.95418 0.0
C1029 C 0.98959 0.62916 0.81295 0.0
H1030 H 1.0048 0.58266 0.8835 0.0
C1031 C 0.9899 0.55616 0.69723 0.0
C1032 C 1.0054 0.54411 0.70752 0.0
C1033 C 0.98684 0.57255 0.72953 0.0
C1034 C 1.0006 0.59551 0.86289 0.0
H1035 H 0.99931 0.69564 0.88405 0.0
H1036 H 1.00478 0.66534 0.83745 0.0
H1037 H 1.00272 0.61216 0.93637 0.0
H1038 H 0.02911 0.53918 0.7615 0.0
H1039 H 0.02418 0.56774 0.81666 0.0
H1040 H 0.98762 0.61263 0.73945 0.0
C1041 C 0.99857 0.66522 0.87763 0.0
C1042 C 0.99924 0.61247 0.89352 0.0
C1043 C 0.99576 0.68263 0.90478 0.0
C1044 C 0.01724 0.54837 0.75202 0.0
C1045 C 0.01426 0.5647 0.78404 0.0
C1046 C 0.99082 0.6122 0.78243 0.0
C1047 C 0.99285 0.64799 0.90104 0.0
C1048 C 0.99394 0.62965 0.86893 0.0
C1049 C 0.9991 0.57718 0.77326 0.0
C1050 C 0.99658 0.59511 0.80668 0.0
H1051 H 0.97545 0.6664 0.02046 0.0
H1052 H 0.98067 0.63582 0.97363 0.0
H1053 H 0.98508 0.64195 0.79251 0.0
H1054 H 0.98018 0.55294 0.66424 0.0
H1055 H 0.97483 0.58156 0.72026 0.0
C1056 C 0.10587 0.19221 0.3509 0.0
C1057 C 0.1179 0.19263 0.30554 0.0
C1058 C 0.10566 0.17644 0.38468 0.0
C1059 C 0.11183 0.12586 0.36077 0.0
H1060 H 0.08345 0.12521 0.49528 0.0
C1061 C 0.04141 0.0911 0.37733 0.0
C1062 C 0.03414 0.08471 0.42673 0.0
C1063 C 0.05991 0.09789 0.37429 0.0
C1064 C 0.09182 0.12479 0.45846 0.0
H1065 H 0.14136 0.17834 0.2655 0.0
H1066 H 0.14117 0.15083 0.325 0.0
H1067 H 0.10399 0.15203 0.47591 0.0
H1068 H 0.0408 0.07889 0.51088 0.0
H1069 H 0.07332 0.09138 0.50602 0.0
H1070 H 0.09895 0.09903 0.3423 0.0
C1071 C 0.13143 0.1624 0.33339 0.0
C1072 C 0.10345 0.14032 0.447 0.0
C1073 C 0.13157 0.17819 0.29934 0.0
C1074 C 0.04612 0.08396 0.47241 0.0
C1075 C 0.06466 0.09106 0.46961 0.0
C1076 C 0.10042 0.11024 0.37255 0.0
C1077 C 0.11752 0.16072 0.374 0.0
C1078 C 0.11226 0.14178 0.39596 0.0
C1079 C 0.07153 0.09865 0.42082 0.0
C1080 C 0.08905 0.11035 0.41933 0.0
H1081 H 0.09512 0.20302 0.35701 0.0
H1082 H 0.09469 0.17582 0.41529 0.0
H1083 H 0.11851 0.12622 0.32125 0.0
H1084 H 0.0325 0.09154 0.34142 0.0
H1085 H 0.06458 0.10382 0.3362 0.0
C1086 C 0.32114 0.11802 0.36261 0.0
C1087 C 0.32148 0.12855 0.31456 0.0
C1088 C 0.33768 0.11557 0.39298 0.0
C1089 C 0.38738 0.11127 0.3551 0.0
H1090 H 0.38814 0.08493 0.49244 0.0
C1091 C 0.41465 0.03693 0.37231 0.0
C1092 C 0.42295 0.03006 0.42003 0.0
C1093 C 0.40843 0.05566 0.36947 0.0
C1094 C 0.38854 0.09259 0.45456 0.0
H1095 H 0.33837 0.14759 0.26604 0.0
H1096 H 0.36718 0.14391 0.3202 0.0
H1097 H 0.36466 0.10975 0.47707 0.0
H1098 H 0.43215 0.03768 0.50147 0.0
H1099 H 0.42085 0.07065 0.49692 0.0
H1100 H 0.4108 0.09366 0.33201 0.0
C1101 C 0.35438 0.1368 0.33318 0.0
C1102 C 0.37491 0.1067 0.44544 0.0
C1103 C 0.33785 0.13904 0.30231 0.0
C1104 C 0.42565 0.04259 0.46432 0.0
C1105 C 0.41921 0.06142 0.46171 0.0
C1106 C 0.40111 0.0974 0.36451 0.0
C1107 C 0.3549 0.12375 0.37613 0.0
C1108 C 0.3732 0.11509 0.39397 0.0
C1109 C 0.4103 0.06805 0.41437 0.0
C1110 C 0.40085 0.0869 0.41264 0.0
H1111 H 0.30878 0.10974 0.37328 0.0
H1112 H 0.33729 0.10546 0.42573 0.0
H1113 H 0.38679 0.11739 0.31502 0.0
H1114 H 0.4127 0.02769 0.33721 0.0
H1115 H 0.40135 0.06016 0.33268 0.0
C1116 C 0.39619 0.34248 0.31165 0.0
C1117 C 0.40598 0.32547 0.32192 0.0
C1118 C 0.39813 0.35811 0.34687 0.0
C1119 C 0.42216 0.37469 0.47542 0.0
H1120 H 0.44078 0.41423 0.38131 0.0
C1121 C 0.4924 0.41167 0.50684 0.0
C1122 C 0.4961 0.42912 0.482 0.0
C1123 C 0.47422 0.40386 0.50518 0.0
C1124 C 0.43522 0.40376 0.40893 0.0
H1125 H 0.42374 0.31091 0.38036 0.0
H1126 H 0.4272 0.33792 0.44104 0.0
H1127 H 0.41971 0.39029 0.34494 0.0
H1128 H 0.48334 0.45304 0.44095 0.0
H1129 H 0.45145 0.43955 0.43871 0.0
H1130 H 0.43894 0.38759 0.53848 0.0
C1131 C 0.41788 0.33933 0.40626 0.0
C1132 C 0.42302 0.38992 0.38789 0.0
C1133 C 0.41592 0.32373 0.37119 0.0
C1134 C 0.4809 0.4395 0.4602 0.0
C1135 C 0.46266 0.43171 0.45863 0.0
C1136 C 0.43439 0.3886 0.49655 0.0
C1137 C 0.40995 0.35702 0.39288 0.0
C1138 C 0.41729 0.37456 0.41995 0.0
C1139 C 0.45934 0.41335 0.47854 0.0
C1140 C 0.44198 0.4026 0.46258 0.0
H1141 H 0.38808 0.34413 0.27456 0.0
H1142 H 0.39148 0.37142 0.33602 0.0
H1143 H 0.41763 0.3633 0.50155 0.0
H1144 H 0.50377 0.4036 0.52528 0.0
H1145 H 0.47229 0.3897 0.52097 0.0
C1146 C 0.19285 0.41781 0.36157 0.0
C1147 C 0.19061 0.40768 0.31236 0.0
C1148 C 0.17851 0.41787 0.4005 0.0
C1149 C 0.12805 0.41925 0.39288 0.0
H1150 H 0.13327 0.43286 0.54513 0.0
C1151 C 0.08141 0.47751 0.47413 0.0
C1152 C 0.09239 0.49188 0.4988 0.0
C1153 C 0.08826 0.45888 0.47083 0.0
C1154 C 0.13145 0.42903 0.50272 0.0
H1155 H 0.1727 0.38739 0.26942 0.0
H1156 H 0.14734 0.38802 0.33686 0.0
H1157 H 0.15741 0.41309 0.50137 0.0
H1158 H 0.11772 0.49748 0.54636 0.0
H1159 H 0.13021 0.46556 0.53802 0.0
H1160 H 0.10336 0.4366 0.39192 0.0
C1161 C 0.16017 0.39605 0.34487 0.0
C1162 C 0.14523 0.41757 0.47781 0.0
C1163 C 0.17465 0.39582 0.30608 0.0
C1164 C 0.10927 0.48683 0.52537 0.0
C1165 C 0.11626 0.46832 0.5214 0.0
C1166 C 0.11444 0.43087 0.41749 0.0
C1167 C 0.16151 0.40795 0.39097 0.0
C1168 C 0.14428 0.41362 0.42178 0.0
C1169 C 0.10639 0.45435 0.49119 0.0
C1170 C 0.11667 0.437 0.47178 0.0
H1171 H 0.20481 0.42721 0.36808 0.0
H1172 H 0.17998 0.4273 0.43533 0.0
H1173 H 0.12685 0.41653 0.34961 0.0
H1174 H 0.06825 0.48091 0.45363 0.0
H1175 H 0.07996 0.44838 0.44878 0.0
C1176 C 0.89274 0.84485 0.87284 0.0
C1177 C 0.90488 0.82901 0.86854 0.0
C1178 C 0.89282 0.85885 0.83292 0.0
C1179 C 0.91499 0.89107 0.78435 0.0
H1180 H 0.93115 0.88411 0.6351 0.0
C1181 C 0.97137 0.93974 0.70646 0.0
C1182 C 0.98688 0.92919 0.68665 0.0
C1183 C 0.95322 0.93176 0.70738 0.0
C1184 C 0.92655 0.88641 0.67659 0.0
H1185 H 0.9248 0.81442 0.81523 0.0
H1186 H 0.92478 0.83845 0.7463 0.0
H1187 H 0.91166 0.85987 0.67792 0.0
H1188 H 0.99497 0.90323 0.64451 0.0
H1189 H 0.9638 0.88888 0.6488 0.0
H1190 H 0.93117 0.91654 0.7854 0.0
C1191 C 0.91517 0.84021 0.78026 0.0
C1192 C 0.91529 0.87256 0.701 0.0
C1193 C 0.91519 0.82632 0.82019 0.0
C1194 C 0.98343 0.91144 0.6619 0.0
C1195 C 0.96538 0.90335 0.6635 0.0
C1196 C 0.92632 0.9048 0.76018 0.0
C1197 C 0.90495 0.85719 0.78782 0.0
C1198 C 0.91045 0.87418 0.75624 0.0
C1199 C 0.95028 0.91294 0.68932 0.0
C1200 C 0.93331 0.90203 0.70717 0.0
H1201 H 0.8842 0.84712 0.90883 0.0
H1202 H 0.8845 0.87162 0.83937 0.0
H1203 H 0.9116 0.89282 0.827 0.0
H1204 H 0.97343 0.95353 0.72533 0.0
H1205 H 0.94182 0.93982 0.72605 0.0
C1206 C 0.68031 0.92284 0.83713 0.0
C1207 C 0.69753 0.93207 0.84891 0.0
C1208 C 0.66903 0.92883 0.79376 0.0
C1209 C 0.66639 0.96309 0.67835 0.0
H1210 H 0.61655 0.97306 0.73845 0.0
C1211 C 0.61945 0.02729 0.61989 0.0
C1212 C 0.59961 0.02514 0.62178 0.0
C1213 C 0.63143 0.01223 0.63409 0.0
C1214 C 0.63021 0.9701 0.72015 0.0
H1215 H 0.71719 0.95363 0.82121 0.0
H1216 H 0.6976 0.96404 0.74653 0.0
H1217 H 0.63768 0.95146 0.78429 0.0
H1218 H 0.57708 1.00487 0.63722 0.0
H1219 H 0.59772 0.97887 0.66015 0.0
H1220 H 0.65898 0.98259 0.61533 0.0
C1221 C 0.6928 0.95206 0.77006 0.0
C1222 C 0.64236 0.95758 0.74647 0.0
C1223 C 0.70409 0.94605 0.81317 0.0
C1224 C 0.59219 0.00733 0.63598 0.0
C1225 C 0.60407 0.9923 0.64926 0.0
C1226 C 0.65415 0.97567 0.65184 0.0
C1227 C 0.6747 0.94423 0.76165 0.0
C1228 C 0.66079 0.95431 0.72685 0.0
C1229 C 0.62381 0.9947 0.65012 0.0
C1230 C 0.63611 0.97967 0.67332 0.0
H1231 H 0.67505 0.91178 0.86333 0.0
H1232 H 0.65532 0.9222 0.7875 0.0
H1233 H 0.68044 0.96072 0.66191 0.0
H1234 H 0.62575 0.04079 0.60961 0.0
H1235 H 0.64661 0.01462 0.6349 0.0
C1236 C 0.61777 0.68057 0.862 0.0
C1237 C 0.61023 0.6985 0.84926 0.0
C1238 C 0.61566 0.66523 0.82601 0.0
C1239 C 0.57992 0.65231 0.72316 0.0
H1240 H 0.60164 0.60244 0.74638 0.0
C1241 C 0.53314 0.58798 0.6955 0.0
C1242 C 0.53188 0.57828 0.74492 0.0
C1243 C 0.54875 0.59958 0.68485 0.0
C1244 C 0.59555 0.6163 0.73871 0.0
H1245 H 0.59789 0.71503 0.784 0.0
H1246 H 0.59573 0.68879 0.71999 0.0
H1247 H 0.62042 0.63076 0.76715 0.0
H1248 H 0.54689 0.57129 0.81898 0.0
H1249 H 0.57388 0.59184 0.80116 0.0
H1250 H 0.55486 0.63797 0.6969 0.0
C1251 C 0.60201 0.68619 0.7594 0.0
C1252 C 0.60624 0.63256 0.75095 0.0
C1253 C 0.60357 0.70142 0.79606 0.0
C1254 C 0.54729 0.579 0.78117 0.0
C1255 C 0.56291 0.59053 0.77046 0.0
C1256 C 0.56941 0.63612 0.7102 0.0
C1257 C 0.60647 0.66759 0.77566 0.0
C1258 C 0.59811 0.65079 0.74665 0.0
C1259 C 0.56335 0.60168 0.72346 0.0
C1260 C 0.57667 0.61797 0.72087 0.0
H1261 H 0.62383 0.67794 0.90166 0.0
H1262 H 0.61962 0.65129 0.84025 0.0
H1263 H 0.57289 0.66591 0.71943 0.0
H1264 H 0.52148 0.5877 0.66678 0.0
H1265 H 0.54879 0.60786 0.64802 0.0
C1266 C 0.81689 0.60602 0.77671 0.0
C1267 C 0.81967 0.61171 0.83114 0.0
C1268 C 0.83201 0.60605 0.74007 0.0
C1269 C 0.88508 0.61382 0.73274 0.0
H1270 H 0.88289 0.56293 0.67143 0.0
C1271 C 0.94052 0.55752 0.76448 0.0
C1272 C 0.9415 0.54169 0.72937 0.0
C1273 C 0.92912 0.57304 0.75154 0.0
C1274 C 0.88385 0.57741 0.68663 0.0
H1275 H 0.8397 0.62504 0.88672 0.0
H1276 H 0.86621 0.6237 0.82486 0.0
H1277 H 0.85394 0.57894 0.69509 0.0
H1278 H 0.93338 0.53078 0.64985 0.0
H1279 H 0.91345 0.55793 0.6272 0.0
H1280 H 0.91538 0.61114 0.72884 0.0
C1281 C 0.85246 0.61932 0.80966 0.0
C1282 C 0.86706 0.58674 0.70034 0.0
C1283 C 0.83723 0.61976 0.84582 0.0
C1284 C 0.93272 0.54267 0.67812 0.0
C1285 C 0.92126 0.55821 0.66517 0.0
C1286 C 0.90196 0.60433 0.71957 0.0
C1287 C 0.85036 0.61123 0.7574 0.0
C1288 C 0.86745 0.60458 0.72683 0.0
C1289 C 0.9184 0.57299 0.70326 0.0
C1290 C 0.9015 0.58556 0.69945 0.0
H1291 H 0.80355 0.59994 0.76333 0.0
H1292 H 0.8296 0.60049 0.69945 0.0
H1293 H 0.88597 0.62782 0.75123 0.0
H1294 H 0.94764 0.55739 0.80354 0.0
H1295 H 0.92733 0.58418 0.78182 0.0
C1296 C 0.01065 0.18772 0.90353 0.0
C1297 C 0.02885 0.19589 0.90516 0.0
C1298 C 0.00686 0.17181 0.8699 0.0
C1299 C 0.02547 0.1433 0.7516 0.0
H1300 H 0.99677 0.10233 0.81538 0.0
C1301 C 0.01951 0.06829 0.64735 0.0
C1302 C 1.0023 0.05843 0.65302 0.0
C1303 C 0.02282 0.08531 0.67661 0.0
C1304 C 1.0046 0.11367 0.79634 0.0
H1305 H 0.05703 0.19423 0.87046 0.0
H1306 H 0.05042 0.16687 0.81175 0.0
H1307 H 1.00131 0.13187 0.86621 0.0
H1308 H 0.9747 0.05928 0.69116 0.0
H1309 H 0.98029 0.08872 0.74169 0.0
H1310 H 0.02868 0.12513 0.68159 0.0
C1311 C 0.03902 0.17261 0.83636 0.0
C1312 C 0.0072 0.13072 0.82571 0.0
C1313 C 0.04284 0.18832 0.87025 0.0
C1314 C 0.9883 0.06628 0.68707 0.0
C1315 C 0.99158 0.08318 0.71632 0.0
C1316 C 0.02276 0.12627 0.72204 0.0
C1317 C 0.0211 0.16378 0.83651 0.0
C1318 C 0.01769 0.14583 0.80392 0.0
C1319 C 0.00892 0.093 0.71193 0.0
C1320 C 0.01225 0.11114 0.74383 0.0
H1321 H 0.99961 0.19303 0.9302 0.0
H1322 H 0.9928 0.16562 0.8707 0.0
H1323 H 0.03349 0.1546 0.73305 0.0
H1324 H 0.03034 0.06291 0.62008 0.0
H1325 H 0.03639 0.09228 0.67207 0.0
C1326 C 0.32871 0.0439 0.85829 0.0
C1327 C 0.32766 0.03632 0.9107 0.0
C1328 C 0.3435 0.03873 0.82301 0.0
C1329 C 0.38415 1.00465 0.8035 0.0
H1330 H 0.40535 0.04608 0.72084 0.0
C1331 C 0.45745 0.99895 0.69608 0.0
C1332 C 0.45892 0.00682 0.64413 0.0
C1333 C 0.44131 1.0023 0.72814 0.0
C1334 C 0.39952 0.03428 0.74318 0.0
H1335 H 0.34111 0.01719 0.96702 0.0
H1336 H 0.36688 0.00801 0.90582 0.0
H1337 H 0.37691 0.05136 0.77501 0.0
H1338 H 0.44414 0.02294 0.5831 0.0
H1339 H 0.41597 0.029 0.63883 0.0
H1340 H 0.40705 0.98768 0.77214 0.0
C1341 C 0.35611 0.01766 0.8911 0.0
C1342 C 0.38309 0.03728 0.7742 0.0
C1343 C 0.34124 0.0228 0.92623 0.0
C1344 C 0.44368 0.0175 0.62401 0.0
C1345 C 0.42752 0.02083 0.6559 0.0
C1346 C 0.40066 1.00169 0.77264 0.0
C1347 C 0.35784 0.02602 0.83954 0.0
C1348 C 0.37509 0.02251 0.80487 0.0
C1349 C 0.42606 0.01324 0.70845 0.0
C1350 C 0.40858 0.01645 0.74197 0.0
H1351 H 0.31869 0.0547 0.84578 0.0
H1352 H 0.34404 0.04521 0.78339 0.0
H1353 H 0.3784 0.99283 0.82586 0.0
H1354 H 0.46878 0.99014 0.71178 0.0
H1355 H 0.44078 0.99629 0.7684 0.0
C1356 C 0.46313 0.32961 0.83901 0.0
C1357 C 0.47588 0.32186 0.87677 0.0
C1358 C 0.46939 0.34229 0.79963 0.0
C1359 C 0.50686 0.37782 0.78123 0.0
H1360 H 0.48326 0.38377 0.63996 0.0
C1361 C 0.52238 0.44358 0.65036 0.0
C1362 C 0.50634 0.45242 0.62785 0.0
C1363 C 0.52108 0.42529 0.67201 0.0
C1364 C 0.48995 0.38237 0.67938 0.0
H1365 H 0.50537 0.32042 0.9009 0.0
H1366 H 0.51649 0.34251 0.83147 0.0
H1367 H 0.47701 0.35526 0.69261 0.0
H1368 H 0.47676 0.44834 0.60631 0.0
H1369 H 0.47436 0.41676 0.64494 0.0
H1370 H 0.51928 0.40515 0.76901 0.0
C1371 C 0.50156 0.33891 0.83271 0.0
C1372 C 0.48639 0.36598 0.70955 0.0
C1373 C 0.49527 0.32607 0.87203 0.0
C1374 C 0.48929 0.44212 0.62451 0.0
C1375 C 0.48798 0.42387 0.64615 0.0
C1376 C 0.5104 0.3942 0.75113 0.0
C1377 C 0.48859 0.34766 0.79712 0.0
C1378 C 0.49447 0.36367 0.76145 0.0
C1379 C 0.50374 0.41537 0.67142 0.0
C1380 C 0.50167 0.3969 0.70029 0.0
H1381 H 0.44808 0.32664 0.84187 0.0
H1382 H 0.45893 0.34879 0.77343 0.0
H1383 H 0.51311 0.37674 0.82131 0.0
H1384 H 0.5358 0.45103 0.65312 0.0
H1385 H 0.53361 0.41907 0.69017 0.0
C1386 C 0.1944 0.47356 0.86102 0.0
C1387 C 0.20301 0.48816 0.89188 0.0
C1388 C 0.17981 0.47751 0.82408 0.0
C1389 C 0.14218 0.51306 0.79845 0.0
H1390 H 0.13452 0.48365 0.66602 0.0
C1391 C 0.07606 0.52487 0.66168 0.0
C1392 C 0.06699 0.5085 0.64107 0.0
C1393 C 0.09403 0.5237 0.68618 0.0
C1394 C 0.13632 0.49191 0.70308 0.0
H1395 H 0.20343 0.51855 0.9062 0.0
H1396 H 0.17801 0.52557 0.84107 0.0
H1397 H 0.16363 0.47961 0.71854 0.0
H1398 H 0.07044 0.47824 0.62683 0.0
H1399 H 0.10147 0.47611 0.67025 0.0
H1400 H 0.11472 0.52505 0.78373 0.0
C1401 C 0.18246 0.51096 0.84598 0.0
C1402 C 0.15309 0.48961 0.73325 0.0
C1403 C 0.19722 0.50699 0.88283 0.0
C1404 C 0.07678 0.49109 0.64331 0.0
C1405 C 0.09475 0.48991 0.66776 0.0
C1406 C 0.12539 0.51533 0.76834 0.0
C1407 C 0.17326 0.49621 0.81689 0.0
C1408 C 0.15618 0.49995 0.78185 0.0
C1409 C 0.10353 0.50614 0.69053 0.0
C1410 C 0.12206 0.50461 0.72054 0.0
H1411 H 0.19854 0.45889 0.8669 0.0
H1412 H 0.17308 0.46571 0.80304 0.0
H1413 H 0.14382 0.52108 0.83596 0.0
H1414 H 0.06906 0.53856 0.66026 0.0
H1415 H 0.10042 0.53659 0.70212 0.0
C1416 C 0.00711 0.83319 0.29143 0.0
C1417 C 0.98885 0.82536 0.28604 0.0
C1418 C 0.0105 0.84863 0.32718 0.0
C1419 C 0.98424 0.88758 0.40251 0.0
H1420 H 0.03338 0.89668 0.46857 0.0
C1421 C 0.99826 0.95249 0.54806 0.0
C1422 C 0.01517 0.96251 0.53857 0.0
C1423 C 0.99498 0.93471 0.52267 0.0
C1424 C 0.01956 0.89444 0.45026 0.0
H1425 H 0.96009 0.82704 0.31633 0.0
H1426 H 0.96604 0.85313 0.37989 0.0
H1427 H 0.02811 0.86775 0.41525 0.0
H1428 H 0.04239 0.96107 0.49831 0.0
H1429 H 0.03668 0.93049 0.45376 0.0
H1430 H 0.9757 0.91424 0.43811 0.0
C1431 C 0.97772 0.84799 0.35534 0.0
C1432 C 0.01653 0.87778 0.41928 0.0
C1433 C 0.97432 0.83277 0.31925 0.0
C1434 C 0.02907 0.95388 0.50564 0.0
C1435 C 0.02584 0.93622 0.48039 0.0
C1436 C 0.98722 0.90413 0.43396 0.0
C1437 C 0.99575 0.85659 0.35904 0.0
C1438 C 0.99887 0.87409 0.39429 0.0
C1439 C 0.00866 0.92641 0.48782 0.0
C1440 C 1.005 0.90798 0.45779 0.0
H1441 H 0.01856 0.82803 0.26593 0.0
H1442 H 0.02456 0.8548 0.32801 0.0
H1443 H 0.97051 0.88568 0.38344 0.0
H1444 H 0.98754 0.95844 0.57476 0.0
H1445 H 0.98171 0.92748 0.53027 0.0
C1446 C 0.68718 1.00298 0.31394 0.0
C1447 C 0.69457 0.98461 0.30574 0.0
C1448 C 0.67118 1.0059 0.34712 0.0
C1449 C 0.6415 0.9844 0.45508 0.0
H1450 H 0.60048 0.01319 0.39066 0.0
C1451 C 0.56527 0.9842 0.54576 0.0
C1452 C 0.55436 1.00082 0.54178 0.0
C1453 C 0.58283 0.98268 0.51909 0.0
C1454 C 0.61184 1.00537 0.40996 0.0
H1455 H 0.69146 0.95508 0.32751 0.0
H1456 H 0.66403 0.96023 0.38662 0.0
H1457 H 0.63079 0.01062 0.34376 0.0
H1458 H 0.55367 0.02929 0.50985 0.0
H1459 H 0.58432 0.02694 0.46433 0.0
H1460 H 0.6227 0.97936 0.52172 0.0
C1461 C 0.67045 0.97238 0.36734 0.0
C1462 C 0.62928 1.00388 0.38283 0.0
C1463 C 0.68619 0.96942 0.33348 0.0
C1464 C 0.56155 0.01609 0.51206 0.0
C1465 C 0.57916 0.01468 0.48592 0.0
C1466 C 0.62413 0.9861 0.48263 0.0
C1467 C 0.66241 0.99058 0.37357 0.0
C1468 C 0.64431 0.99323 0.4047 0.0
C1469 C 0.59011 0.99794 0.48881 0.0
C1470 C 0.60892 0.99646 0.46025 0.0
H1471 H 0.69317 0.01491 0.29254 0.0
H1472 H 0.66545 0.02013 0.3513 0.0
H1473 H 0.65282 0.97622 0.4734 0.0
H1474 H 0.56021 0.97239 0.56952 0.0
H1475 H 0.59063 0.96948 0.52205 0.0
C1476 C 0.54862 0.69494 0.33042 0.0
C1477 C 0.53559 0.69915 0.28905 0.0
C1478 C 0.54434 0.68137 0.36957 0.0
C1479 C 0.50637 0.65078 0.42722 0.0
H1480 H 0.54795 0.61521 0.44456 0.0
C1481 C 0.49688 0.57518 0.5172 0.0
C1482 C 0.51212 0.56718 0.54592 0.0
C1483 C 0.49873 0.59295 0.49252 0.0
C1484 C 0.53625 0.62512 0.44128 0.0
H1485 H 0.50752 0.69323 0.25757 0.0
H1486 H 0.49988 0.66947 0.3263 0.0
H1487 H 0.55257 0.64368 0.39175 0.0
H1488 H 0.54089 0.57212 0.57404 0.0
H1489 H 0.54397 0.60317 0.53264 0.0
H1490 H 0.49 0.63198 0.47654 0.0
C1491 C 0.51335 0.67681 0.32894 0.0
C1492 C 0.53891 0.64153 0.41077 0.0
C1493 C 0.51765 0.69049 0.28972 0.0
C1494 C 0.52893 0.57776 0.55164 0.0
C1495 C 0.53073 0.59556 0.5275 0.0
C1496 C 0.50372 0.63434 0.45816 0.0
C1497 C 0.52698 0.67152 0.36798 0.0
C1498 C 0.52403 0.65458 0.40312 0.0
C1499 C 0.51585 0.60322 0.49633 0.0
C1500 C 0.51863 0.62123 0.46546 0.0
H1501 H 0.56262 0.70129 0.3304 0.0
H1502 H 0.55502 0.67797 0.39966 0.0
H1503 H 0.49463 0.66056 0.4224 0.0
H1504 H 0.48381 0.56735 0.51149 0.0
H1505 H 0.48701 0.59822 0.46851 0.0
C1506 C 0.81995 0.53628 0.31115 0.0
C1507 C 0.82279 0.53051 0.25695 0.0
C1508 C 0.83369 0.53232 0.35119 0.0
C1509 C 0.87888 0.50464 0.37607 0.0
H1510 H 0.88941 0.54537 0.47889 0.0
C1511 C 0.94328 0.49989 0.5226 0.0
C1512 C 0.95363 0.51663 0.53304 0.0
C1513 C 0.92557 0.50048 0.49632 0.0
C1514 C 0.88685 0.53387 0.45024 0.0
H1515 H 0.84183 0.51551 0.20269 0.0
H1516 H 0.86557 0.50863 0.27136 0.0
H1517 H 0.86191 0.5475 0.41937 0.0
H1518 H 0.95235 0.54734 0.52796 0.0
H1519 H 0.9222 0.54838 0.48015 0.0
H1520 H 0.90436 0.49152 0.40446 0.0
C1521 C 0.85276 0.51591 0.28402 0.0
C1522 C 0.87075 0.53495 0.4165 0.0
C1523 C 0.83907 0.51982 0.24434 0.0
C1524 C 0.9452 0.53406 0.51912 0.0
C1525 C 0.9276 0.53467 0.4923 0.0
C1526 C 0.89505 0.50365 0.40937 0.0
C1527 C 0.85063 0.52257 0.33787 0.0
C1528 C 0.86665 0.52049 0.37814 0.0
C1529 C 0.91761 0.51785 0.4794 0.0
C1530 C 0.8995 0.51837 0.44658 0.0
H1531 H 0.80773 0.54487 0.32187 0.0
H1532 H 0.83128 0.53744 0.39222 0.0
H1533 H 0.87617 0.49299 0.34802 0.0
H1534 H 0.94898 0.4862 0.53369 0.0
H1535 H 0.91821 0.48721 0.48892 0.0
loop_
_geom_bond_atom_site_label_1
_geom_bond_atom_site_label_2
_geom_bond_distance
_geom_bond_site_symmetry_2
_ccdc_geom_bond_type
C0 C1 1.391 . S
C0 C4 1.391 . S
C0 H42 0.948 . S
C1 C0 1.391 . S
C1 C2 1.391 . S
C2 C1 1.391 . S
C2 H58 0.947 . S
C2 C59 1.392 . S
C3 C4 1.391 . S
C3 C7 1.397 . S
C3 C59 1.419 . S
C4 C0 1.391 . S
C4 C3 1.391 . S
C4 C5 1.399 . S
C5 C4 1.399 . S
C5 C8 1.396 . S
C5 C17 1.453 . S
C5 C18 1.684 . S
H6 C30 0.948 . S
C7 C3 1.397 . S
C7 C8 1.394 . S
C7 C26 1.723 . S
C8 C5 1.396 . S
C8 C7 1.394 . S
C8 C38 1.723 . S
H9 C32 0.947 . S
H10 C33 0.948 . S
H11 C39 0.982 . S
H12 C40 0.979 1_554 S
H13 C40 0.980 . S
H14 C40 0.983 . S
H15 C39 0.979 1_556 S
H16 C39 0.977 1_556 S
C17 C5 1.453 . S
C17 H46 0.982 . S
C17 H47 0.979 . S
C17 H48 0.977 . S
C18 C5 1.684 . S
C18 H43 0.979 . S
C18 H44 0.980 . S
C18 H45 0.983 . S
C19 C20 1.391 1_554 S
C19 C24 1.391 . S
C19 H49 0.948 . S
C20 C19 1.391 1_556 S
C20 C21 1.391 . S
C21 C20 1.391 . S
C21 C22 1.392 . S
C21 H50 0.947 . S
C22 C21 1.392 . S
C22 C23 1.419 1_556 S
C22 H51 0.948 . S
C23 C22 1.419 1_554 S
C23 C24 1.391 . S
C23 C27 1.397 . S
C24 C19 1.391 . S
C24 C23 1.391 . S
C24 C25 1.399 . S
C25 C24 1.399 . S
C25 C26 1.396 . S
C25 C28 1.453 . S
C25 C29 1.684 . S
C26 C7 1.723 . S
C26 C25 1.396 . S
C26 C27 1.394 . S
C27 C23 1.397 . S
C27 C26 1.394 . S
C27 C37 1.723 . S
C28 C25 1.453 . S
C28 H52 0.982 . S
C28 H53 0.979 . S
C28 H54 0.977 . S
C29 C25 1.684 . S
C29 H55 0.979 . S
C29 H56 0.980 . S
C29 H57 0.983 . S
C30 H6 0.948 . S
C30 C31 1.391 . S
C30 C35 1.391 . S
C31 C30 1.391 . S
C31 C32 1.391 . S
C32 H9 0.947 . S
C32 C31 1.391 . S
C32 C33 1.392 . S
C33 H10 0.948 . S
C33 C32 1.392 . S
C33 C34 1.419 . S
C34 C33 1.419 . S
C34 C35 1.391 . S
C34 C38 1.397 . S
C35 C30 1.391 . S
C35 C34 1.391 . S
C35 C36 1.399 . S
C36 C35 1.399 . S
C36 C37 1.396 . S
C36 C39 1.453 . S
C36 C40 1.684 1_554 S
C37 C27 1.723 . S
C37 C36 1.396 . S
C37 C38 1.394 . S
C38 C8 1.723 . S
C38 C34 1.397 . S
C38 C37 1.394 . S
C39 H11 0.982 . S
C39 H15 0.979 1_554 S
C39 H16 0.977 1_554 S
C39 C36 1.453 . S
C40 H12 0.979 1_556 S
C40 H13 0.980 . S
C40 H14 0.983 . S
C40 C36 1.684 1_556 S
H41 C59 0.948 . S
H42 C0 0.948 . S
H43 C18 0.979 . S
H44 C18 0.980 . S
H45 C18 0.983 . S
H46 C17 0.982 . S
H47 C17 0.979 . S
H48 C17 0.977 . S
H49 C19 0.948 . S
H50 C21 0.947 . S
H51 C22 0.948 . S
H52 C28 0.982 . S
H53 C28 0.979 . S
H54 C28 0.977 . S
H55 C29 0.979 . S
H56 C29 0.980 . S
H57 C29 0.983 . S
H58 C2 0.947 . S
C59 C2 1.392 . S
C59 C3 1.419 . S
C59 H41 0.948 . S
C60 C61 1.391 . S
C60 C64 1.391 1_556 S
C60 H102 0.948 . S
C61 C60 1.391 . S
C61 C62 1.391 1_556 S
C62 C61 1.391 1_554 S
C62 H118 0.947 . S
C62 C119 1.392 . S
C63 C64 1.391 . S
C63 C67 1.397 . S
C63 C119 1.419 . S
C64 C60 1.391 1_554 S
C64 C63 1.391 . S
C64 C65 1.399 . S
C65 C64 1.399 . S
C65 C68 1.396 . S
C65 C77 1.453 . S
C65 C78 1.684 1_554 S
H66 C90 0.948 . S
C67 C63 1.397 . S
C67 C68 1.394 . S
C67 C86 1.723 . S
C68 C65 1.396 . S
C68 C67 1.394 . S
C68 C98 1.723 . S
H69 C92 0.947 . S
H70 C93 0.948 . S
H71 C99 0.982 . S
H72 C100 0.979 . S
H73 C100 0.980 . S
H74 C100 0.983 . S
H75 C99 0.979 . S
H76 C99 0.977 . S
C77 C65 1.453 . S
C77 H106 0.982 . S
C77 H107 0.979 1_554 S
C77 H108 0.977 . S
C78 C65 1.684 1_556 S
C78 H103 0.979 . S
C78 H104 0.980 . S
C78 H105 0.983 . S
C79 C80 1.391 . S
C79 C84 1.391 . S
C79 H109 0.948 . S
C80 C79 1.391 . S
C80 C81 1.391 . S
C81 C80 1.391 . S
C81 C82 1.392 . S
C81 H110 0.947 . S
C82 C81 1.392 . S
C82 C83 1.419 . S
C82 H111 0.948 . S
C83 C82 1.419 . S
C83 C84 1.391 . S
C83 C87 1.397 . S
C84 C79 1.391 . S
C84 C83 1.391 . S
C84 C85 1.399 . S
C85 C84 1.399 . S
C85 C86 1.396 . S
C85 C88 1.453 . S
C85 C89 1.684 . S
C86 C67 1.723 . S
C86 C85 1.396 . S
C86 C87 1.394 . S
C87 C83 1.397 . S
C87 C86 1.394 . S
C87 C97 1.723 . S
C88 C85 1.453 . S
C88 H112 0.982 . S
C88 H113 0.979 . S
C88 H114 0.977 . S
C89 C85 1.684 . S
C89 H115 0.979 . S
C89 H116 0.980 . S
C89 H117 0.983 . S
C90 H66 0.948 . S
C90 C91 1.391 . S
C90 C95 1.391 . S
C91 C90 1.391 . S
C91 C92 1.391 . S
C92 H69 0.947 . S
C92 C91 1.391 . S
C92 C93 1.392 . S
C93 H70 0.948 . S
C93 C92 1.392 . S
C93 C94 1.419 . S
C94 C93 1.419 . S
C94 C95 1.391 . S
C94 C98 1.397 . S
C95 C90 1.391 . S
C95 C94 1.391 . S
C95 C96 1.399 . S
C96 C95 1.399 . S
C96 C97 1.396 . S
C96 C99 1.453 . S
C96 C100 1.684 . S
C97 C87 1.723 . S
C97 C96 1.396 . S
C97 C98 1.394 . S
C98 C68 1.723 . S
C98 C94 1.397 . S
C98 C97 1.394 . S
C99 H71 0.982 . S
C99 H75 0.979 . S
C99 H76 0.977 . S
C99 C96 1.453 . S
C100 H72 0.979 . S
C100 H73 0.980 . S
C100 H74 0.983 . S
C100 C96 1.684 . S
H101 C119 0.948 . S
H102 C60 0.948 . S
H103 C78 0.979 . S
H104 C78 0.980 . S
H105 C78 0.983 . S
H106 C77 0.982 . S
H107 C77 0.979 1_556 S
H108 C77 0.977 . S
H109 C79 0.948 . S
H110 C81 0.947 . S
H111 C82 0.948 . S
H112 C88 0.982 . S
H113 C88 0.979 . S
H114 C88 0.977 . S
H115 C89 0.979 . S
H116 C89 0.980 . S
H117 C89 0.983 . S
H118 C62 0.947 . S
C119 C62 1.392 . S
C119 C63 1.419 . S
C119 H101 0.948 . S
C120 C121 1.391 . S
C120 C124 1.391 . S
C120 H162 0.948 . S
C121 C120 1.391 . S
C121 C122 1.391 . S
C122 C121 1.391 . S
C122 H178 0.947 . S
C122 C179 1.392 . S
C123 C124 1.391 . S
C123 C127 1.397 . S
C123 C179 1.419 . S
C124 C120 1.391 . S
C124 C123 1.391 . S
C124 C125 1.399 . S
C125 C124 1.399 . S
C125 C128 1.396 . S
C125 C137 1.453 . S
C125 C138 1.684 . S
H126 C150 0.948 . S
C127 C123 1.397 . S
C127 C128 1.394 . S
C127 C146 1.723 . S
C128 C125 1.396 . S
C128 C127 1.394 . S
C128 C158 1.723 . S
H129 C152 0.947 . S
H130 C153 0.948 . S
H131 C159 0.982 . S
H132 C160 0.979 . S
H133 C160 0.980 . S
H134 C160 0.983 . S
H135 C159 0.979 . S
H136 C159 0.977 . S
C137 C125 1.453 . S
C137 H166 0.982 . S
C137 H167 0.979 . S
C137 H168 0.977 . S
C138 C125 1.684 . S
C138 H163 0.979 . S
C138 H164 0.980 . S
C138 H165 0.983 . S
C139 C140 1.391 . S
C139 C144 1.391 1_556 S
C139 H169 0.948 . S
C140 C139 1.391 . S
C140 C141 1.391 1_556 S
C141 C140 1.391 1_554 S
C141 C142 1.392 . S
C141 H170 0.947 . S
C142 C141 1.392 . S
C142 C143 1.419 . S
C142 H171 0.948 . S
C143 C142 1.419 . S
C143 C144 1.391 . S
C143 C147 1.397 . S
C144 C139 1.391 1_554 S
C144 C143 1.391 . S
C144 C145 1.399 . S
C145 C144 1.399 . S
C145 C146 1.396 . S
C145 C148 1.453 . S
C145 C149 1.684 1_554 S
C146 C127 1.723 . S
C146 C145 1.396 . S
C146 C147 1.394 . S
C147 C143 1.397 . S
C147 C146 1.394 . S
C147 C157 1.723 . S
C148 C145 1.453 . S
C148 H172 0.982 . S
C148 H173 0.979 1_554 S
C148 H174 0.977 . S
C149 C145 1.684 1_556 S
C149 H175 0.979 . S
C149 H176 0.980 . S
C149 H177 0.983 . S
C150 H126 0.948 . S
C150 C151 1.391 . S
C150 C155 1.391 . S
C151 C150 1.391 . S
C151 C152 1.391 . S
C152 H129 0.947 . S
C152 C151 1.391 . S
C152 C153 1.392 . S
C153 H130 0.948 . S
C153 C152 1.392 . S
C153 C154 1.419 . S
C154 C153 1.419 . S
C154 C155 1.391 . S
C154 C158 1.397 . S
C155 C150 1.391 . S
C155 C154 1.391 . S
C155 C156 1.399 . S
C156 C155 1.399 . S
C156 C157 1.396 . S
C156 C159 1.453 . S
C156 C160 1.684 . S
C157 C147 1.723 . S
C157 C156 1.396 . S
C157 C158 1.394 . S
C158 C128 1.723 . S
C158 C154 1.397 . S
C158 C157 1.394 . S
C159 H131 0.982 . S
C159 H135 0.979 . S
C159 H136 0.977 . S
C159 C156 1.453 . S
C160 H132 0.979 . S
C160 H133 0.980 . S
C160 H134 0.983 . S
C160 C156 1.684 . S
H161 C179 0.948 . S
H162 C120 0.948 . S
H163 C138 0.979 . S
H164 C138 0.980 . S
H165 C138 0.983 . S
H166 C137 0.982 . S
H167 C137 0.979 . S
H168 C137 0.977 . S
H169 C139 0.948 . S
H170 C141 0.947 . S
H171 C142 0.948 . S
H172 C148 0.982 . S
H173 C148 0.979 1_556 S
H174 C148 0.977 . S
H175 C149 0.979 . S
H176 C149 0.980 . S
H177 C149 0.983 . S
H178 C122 0.947 . S
C179 C122 1.392 . S
C179 C123 1.419 . S
C179 H161 0.948 . S
C180 C181 1.391 . S
C180 C184 1.391 . S
C180 H222 0.948 . S
C181 C180 1.391 . S
C181 C182 1.391 . S
C182 C181 1.391 . S
C182 H238 0.947 . S
C182 C239 1.392 . S
C183 C184 1.391 . S
C183 C187 1.397 . S
C183 C239 1.419 . S
C184 C180 1.391 . S
C184 C183 1.391 . S
C184 C185 1.399 . S
C185 C184 1.399 . S
C185 C188 1.396 . S
C185 C197 1.453 . S
C185 C198 1.684 . S
H186 C210 0.948 . S
C187 C183 1.397 . S
C187 C188 1.394 . S
C187 C206 1.723 . S
C188 C185 1.396 . S
C188 C187 1.394 . S
C188 C218 1.723 . S
H189 C212 0.947 . S
H190 C213 0.948 . S
H191 C219 0.982 . S
H192 C220 0.979 1_554 S
H193 C220 0.980 . S
H194 C220 0.983 . S
H195 C219 0.979 1_556 S
H196 C219 0.977 1_556 S
C197 C185 1.453 . S
C197 H226 0.982 . S
C197 H227 0.979 . S
C197 H228 0.977 . S
C198 C185 1.684 . S
C198 H223 0.979 . S
C198 H224 0.980 . S
C198 H225 0.983 . S
C199 C200 1.391 1_554 S
C199 C204 1.391 . S
C199 H229 0.948 . S
C200 C199 1.391 1_556 S
C200 C201 1.391 . S
C201 C200 1.391 . S
C201 C202 1.392 . S
C201 H230 0.947 . S
C202 C201 1.392 . S
C202 C203 1.419 1_556 S
C202 H231 0.948 . S
C203 C202 1.419 1_554 S
C203 C204 1.391 . S
C203 C207 1.397 . S
C204 C199 1.391 . S
C204 C203 1.391 . S
C204 C205 1.399 . S
C205 C204 1.399 . S
C205 C206 1.396 . S
C205 C208 1.453 . S
C205 C209 1.684 . S
C206 C187 1.723 . S
C206 C205 1.396 . S
C206 C207 1.394 . S
C207 C203 1.397 . S
C207 C206 1.394 . S
C207 C217 1.723 . S
C208 C205 1.453 . S
C208 H232 0.982 . S
C208 H233 0.979 . S
C208 H234 0.977 . S
C209 C205 1.684 . S
C209 H235 0.979 . S
C209 H236 0.980 . S
C209 H237 0.983 . S
C210 H186 0.948 . S
C210 C211 1.391 . S
C210 C215 1.391 . S
C211 C210 1.391 . S
C211 C212 1.391 . S
C212 H189 0.947 . S
C212 C211 1.391 . S
C212 C213 1.392 . S
C213 H190 0.948 . S
C213 C212 1.392 . S
C213 C214 1.419 . S
C214 C213 1.419 . S
C214 C215 1.391 . S
C214 C218 1.397 . S
C215 C210 1.391 . S
C215 C214 1.391 . S
C215 C216 1.399 . S
C216 C215 1.399 . S
C216 C217 1.396 . S
C216 C219 1.453 . S
C216 C220 1.684 1_554 S
C217 C207 1.723 . S
C217 C216 1.396 . S
C217 C218 1.394 . S
C218 C188 1.723 . S
C218 C214 1.397 . S
C218 C217 1.394 . S
C219 H191 0.982 . S
C219 H195 0.979 1_554 S
C219 H196 0.977 1_554 S
C219 C216 1.453 . S
C220 H192 0.979 1_556 S
C220 H193 0.980 . S
C220 H194 0.983 . S
C220 C216 1.684 1_556 S
H221 C239 0.948 . S
H222 C180 0.948 . S
H223 C198 0.979 . S
H224 C198 0.980 . S
H225 C198 0.983 . S
H226 C197 0.982 . S
H227 C197 0.979 . S
H228 C197 0.977 . S
H229 C199 0.948 . S
H230 C201 0.947 . S
H231 C202 0.948 . S
H232 C208 0.982 . S
H233 C208 0.979 . S
H234 C208 0.977 . S
H235 C209 0.979 . S
H236 C209 0.980 . S
H237 C209 0.983 . S
H238 C182 0.947 . S
C239 C182 1.392 . S
C239 C183 1.419 . S
C239 H221 0.948 . S
C240 C241 1.391 . S
C240 C244 1.391 . S
C240 H282 0.948 1_554 S
C241 C240 1.391 . S
C241 C242 1.391 . S
C242 C241 1.391 . S
C242 H298 0.947 . S
C242 C299 1.392 . S
C243 C244 1.391 . S
C243 C247 1.397 . S
C243 C299 1.419 . S
C244 C240 1.391 . S
C244 C243 1.391 . S
C244 C245 1.399 1_554 S
C245 C244 1.399 1_556 S
C245 C248 1.396 . S
C245 C257 1.453 . S
C245 C258 1.684 . S
H246 C270 0.948 . S
C247 C243 1.397 . S
C247 C248 1.394 1_554 S
C247 C266 1.723 . S
C248 C245 1.396 . S
C248 C247 1.394 1_556 S
C248 C278 1.723 . S
H249 C272 0.947 . S
H250 C273 0.948 . S
H251 C279 0.982 . S
H252 C280 0.979 . S
H253 C280 0.980 . S
H254 C280 0.983 . S
H255 C279 0.979 . S
H256 C279 0.977 . S
C257 C245 1.453 . S
C257 H286 0.982 . S
C257 H287 0.979 . S
C257 H288 0.977 . S
C258 C245 1.684 . S
C258 H283 0.979 . S
C258 H284 0.980 . S
C258 H285 0.983 . S
C259 C260 1.391 . S
C259 C264 1.391 . S
C259 H289 0.948 . S
C260 C259 1.391 . S
C260 C261 1.391 . S
C261 C260 1.391 . S
C261 C262 1.392 . S
C261 H290 0.947 . S
C262 C261 1.392 . S
C262 C263 1.419 . S
C262 H291 0.948 . S
C263 C262 1.419 . S
C263 C264 1.391 . S
C263 C267 1.397 . S
C264 C259 1.391 . S
C264 C263 1.391 . S
C264 C265 1.399 . S
C265 C264 1.399 . S
C265 C266 1.396 . S
C265 C268 1.453 . S
C265 C269 1.684 . S
C266 C247 1.723 . S
C266 C265 1.396 . S
C266 C267 1.394 . S
C267 C263 1.397 . S
C267 C266 1.394 . S
C267 C277 1.723 1_554 S
C268 C265 1.453 . S
C268 H292 0.982 . S
C268 H293 0.979 . S
C268 H294 0.977 . S
C269 C265 1.684 . S
C269 H295 0.979 . S
C269 H296 0.980 . S
C269 H297 0.983 . S
C270 H246 0.948 . S
C270 C271 1.391 . S
C270 C275 1.391 . S
C271 C270 1.391 . S
C271 C272 1.391 . S
C272 H249 0.947 . S
C272 C271 1.391 . S
C272 C273 1.392 . S
C273 H250 0.948 . S
C273 C272 1.392 . S
C273 C274 1.419 . S
C274 C273 1.419 . S
C274 C275 1.391 . S
C274 C278 1.397 . S
C275 C270 1.391 . S
C275 C274 1.391 . S
C275 C276 1.399 . S
C276 C275 1.399 . S
C276 C277 1.396 . S
C276 C279 1.453 . S
C276 C280 1.684 . S
C277 C267 1.723 1_556 S
C277 C276 1.396 . S
C277 C278 1.394 . S
C278 C248 1.723 . S
C278 C274 1.397 . S
C278 C277 1.394 . S
C279 H251 0.982 . S
C279 H255 0.979 . S
C279 H256 0.977 . S
C279 C276 1.453 . S
C280 H252 0.979 . S
C280 H253 0.980 . S
C280 H254 0.983 . S
C280 C276 1.684 . S
H281 C299 0.948 . S
H282 C240 0.948 1_556 S
H283 C258 0.979 . S
H284 C258 0.980 . S
H285 C258 0.983 . S
H286 C257 0.982 . S
H287 C257 0.979 . S
H288 C257 0.977 . S
H289 C259 0.948 . S
H290 C261 0.947 . S
H291 C262 0.948 . S
H292 C268 0.982 . S
H293 C268 0.979 . S
H294 C268 0.977 . S
H295 C269 0.979 . S
H296 C269 0.980 . S
H297 C269 0.983 . S
H298 C242 0.947 . S
C299 C242 1.392 . S
C299 C243 1.419 . S
C299 H281 0.948 . S
C300 C301 1.391 . S
C300 C304 1.391 . S
C300 H342 0.948 . S
C301 C300 1.391 . S
C301 C302 1.391 . S
C302 C301 1.391 . S
C302 H358 0.947 . S
C302 C359 1.392 . S
C303 C304 1.391 . S
C303 C307 1.397 . S
C303 C359 1.419 . S
C304 C300 1.391 . S
C304 C303 1.391 . S
C304 C305 1.399 . S
C305 C304 1.399 . S
C305 C308 1.396 . S
C305 C317 1.453 . S
C305 C318 1.684 . S
H306 C330 0.948 1_556 S
C307 C303 1.397 . S
C307 C308 1.394 . S
C307 C326 1.723 1_554 S
C308 C305 1.396 . S
C308 C307 1.394 . S
C308 C338 1.723 . S
H309 C332 0.947 . S
H310 C333 0.948 . S
H311 C339 0.982 . S
H312 C340 0.979 . S
H313 C340 0.980 . S
H314 C340 0.983 . S
H315 C339 0.979 . S
H316 C339 0.977 . S
C317 C305 1.453 . S
C317 H346 0.982 . S
C317 H347 0.979 . S
C317 H348 0.977 . S
C318 C305 1.684 . S
C318 H343 0.979 . S
C318 H344 0.980 . S
C318 H345 0.983 . S
C319 C320 1.391 . S
C319 C324 1.391 . S
C319 H349 0.948 . S
C320 C319 1.391 . S
C320 C321 1.391 . S
C321 C320 1.391 . S
C321 C322 1.392 . S
C321 H350 0.947 . S
C322 C321 1.392 . S
C322 C323 1.419 . S
C322 H351 0.948 . S
C323 C322 1.419 . S
C323 C324 1.391 . S
C323 C327 1.397 . S
C324 C319 1.391 . S
C324 C323 1.391 . S
C324 C325 1.399 . S
C325 C324 1.399 . S
C325 C326 1.396 . S
C325 C328 1.453 . S
C325 C329 1.684 . S
C326 C307 1.723 1_556 S
C326 C325 1.396 . S
C326 C327 1.394 . S
C327 C323 1.397 . S
C327 C326 1.394 . S
C327 C337 1.723 . S
C328 C325 1.453 . S
C328 H352 0.982 . S
C328 H353 0.979 . S
C328 H354 0.977 . S
C329 C325 1.684 . S
C329 H355 0.979 . S
C329 H356 0.980 . S
C329 H357 0.983 . S
C330 H306 0.948 1_554 S
C330 C331 1.391 . S
C330 C335 1.391 . S
C331 C330 1.391 . S
C331 C332 1.391 . S
C332 H309 0.947 . S
C332 C331 1.391 . S
C332 C333 1.392 . S
C333 H310 0.948 . S
C333 C332 1.392 . S
C333 C334 1.419 . S
C334 C333 1.419 . S
C334 C335 1.391 . S
C334 C338 1.397 . S
C335 C330 1.391 . S
C335 C334 1.391 . S
C335 C336 1.399 1_554 S
C336 C335 1.399 1_556 S
C336 C337 1.396 . S
C336 C339 1.453 . S
C336 C340 1.684 . S
C337 C327 1.723 . S
C337 C336 1.396 . S
C337 C338 1.394 1_556 S
C338 C308 1.723 . S
C338 C334 1.397 . S
C338 C337 1.394 1_554 S
C339 H311 0.982 . S
C339 H315 0.979 . S
C339 H316 0.977 . S
C339 C336 1.453 . S
C340 H312 0.979 . S
C340 H313 0.980 . S
C340 H314 0.983 . S
C340 C336 1.684 . S
H341 C359 0.948 . S
H342 C300 0.948 . S
H343 C318 0.979 . S
H344 C318 0.980 . S
H345 C318 0.983 . S
H346 C317 0.982 . S
H347 C317 0.979 . S
H348 C317 0.977 . S
H349 C319 0.948 . S
H350 C321 0.947 . S
H351 C322 0.948 . S
H352 C328 0.982 . S
H353 C328 0.979 . S
H354 C328 0.977 . S
H355 C329 0.979 . S
H356 C329 0.980 . S
H357 C329 0.983 . S
H358 C302 0.947 . S
C359 C302 1.392 . S
C359 C303 1.419 . S
C359 H341 0.948 . S
C360 C361 1.391 . S
C360 C364 1.391 . S
C360 H402 0.948 . S
C361 C360 1.391 . S
C361 C362 1.391 . S
C362 C361 1.391 . S
C362 H418 0.947 . S
C362 C419 1.392 . S
C363 C364 1.391 . S
C363 C367 1.397 . S
C363 C419 1.419 . S
C364 C360 1.391 . S
C364 C363 1.391 . S
C364 C365 1.399 . S
C365 C364 1.399 . S
C365 C368 1.396 . S
C365 C377 1.453 . S
C365 C378 1.684 . S
H366 C390 0.948 . S
C367 C363 1.397 . S
C367 C368 1.394 . S
C367 C386 1.723 1_556 S
C368 C365 1.396 . S
C368 C367 1.394 . S
C368 C398 1.723 1_556 S
H369 C392 0.947 . S
H370 C393 0.948 . S
H371 C399 0.982 . S
H372 C400 0.979 . S
H373 C400 0.980 . S
H374 C400 0.983 . S
H375 C399 0.979 . S
H376 C399 0.977 . S
C377 C365 1.453 . S
C377 H406 0.982 . S
C377 H407 0.979 . S
C377 H408 0.977 . S
C378 C365 1.684 . S
C378 H403 0.979 . S
C378 H404 0.980 . S
C378 H405 0.983 . S
C379 C380 1.391 . S
C379 C384 1.391 . S
C379 H409 0.948 . S
C380 C379 1.391 . S
C380 C381 1.391 . S
C381 C380 1.391 . S
C381 C382 1.392 . S
C381 H410 0.947 . S
C382 C381 1.392 . S
C382 C383 1.419 . S
C382 H411 0.948 . S
C383 C382 1.419 . S
C383 C384 1.391 . S
C383 C387 1.397 . S
C384 C379 1.391 . S
C384 C383 1.391 . S
C384 C385 1.399 . S
C385 C384 1.399 . S
C385 C386 1.396 . S
C385 C388 1.453 . S
C385 C389 1.685 1_554 S
C386 C367 1.723 1_554 S
C386 C385 1.396 . S
C386 C387 1.394 . S
C387 C383 1.397 . S
C387 C386 1.394 . S
C387 C397 1.723 . S
C388 C385 1.453 . S
C388 H412 0.982 . S
C388 H413 0.979 . S
C388 H414 0.977 1_554 S
C389 C385 1.685 1_556 S
C389 H415 0.979 1_556 S
C389 H416 0.977 . S
C389 H417 0.984 1_556 S
C390 H366 0.948 . S
C390 C391 1.391 . S
C390 C395 1.391 . S
C391 C390 1.391 . S
C391 C392 1.391 1_554 S
C392 H369 0.947 . S
C392 C391 1.391 1_556 S
C392 C393 1.392 . S
C393 H370 0.948 . S
C393 C392 1.392 . S
C393 C394 1.419 1_556 S
C394 C393 1.419 1_554 S
C394 C395 1.391 . S
C394 C398 1.397 . S
C395 C390 1.391 . S
C395 C394 1.391 . S
C395 C396 1.399 . S
C396 C395 1.399 . S
C396 C397 1.396 . S
C396 C399 1.453 . S
C396 C400 1.684 . S
C397 C387 1.723 . S
C397 C396 1.396 . S
C397 C398 1.394 . S
C398 C368 1.723 1_554 S
C398 C394 1.397 . S
C398 C397 1.394 . S
C399 H371 0.982 . S
C399 H375 0.979 . S
C399 H376 0.977 . S
C399 C396 1.453 . S
C400 H372 0.979 . S
C400 H373 0.980 . S
C400 H374 0.983 . S
C400 C396 1.684 . S
H401 C419 0.948 . S
H402 C360 0.948 . S
H403 C378 0.979 . S
H404 C378 0.980 . S
H405 C378 0.983 . S
H406 C377 0.982 . S
H407 C377 0.979 . S
H408 C377 0.977 . S
H409 C379 0.948 . S
H410 C381 0.947 . S
H411 C382 0.948 . S
H412 C388 0.982 . S
H413 C388 0.979 . S
H414 C388 0.977 1_556 S
H415 C389 0.979 1_554 S
H416 C389 0.977 . S
H417 C389 0.984 1_554 S
H418 C362 0.947 . S
C419 C362 1.392 . S
C419 C363 1.419 . S
C419 H401 0.948 . S
C420 C421 1.391 . S
C420 C424 1.391 . S
C420 H462 0.948 . S
C421 C420 1.391 . S
C421 C422 1.391 . S
C422 C421 1.391 . S
C422 H478 0.947 . S
C422 C479 1.392 . S
C423 C424 1.391 . S
C423 C427 1.397 . S
C423 C479 1.419 . S
C424 C420 1.391 . S
C424 C423 1.391 . S
C424 C425 1.399 . S
C425 C424 1.399 . S
C425 C428 1.396 . S
C425 C437 1.453 . S
C425 C438 1.684 . S
H426 C450 0.948 . S
C427 C423 1.397 . S
C427 C428 1.394 . S
C427 C446 1.723 1_556 S
C428 C425 1.396 . S
C428 C427 1.394 . S
C428 C458 1.723 1_556 S
H429 C452 0.947 1_556 S
H430 C453 0.948 . S
H431 C459 0.982 . S
H432 C460 0.979 . S
H433 C460 0.980 . S
H434 C460 0.983 . S
H435 C459 0.979 . S
H436 C459 0.977 . S
C437 C425 1.453 . S
C437 H466 0.982 . S
C437 H467 0.979 . S
C437 H468 0.977 . S
C438 C425 1.684 . S
C438 H463 0.979 . S
C438 H464 0.980 . S
C438 H465 0.983 . S
C439 C440 1.391 . S
C439 C444 1.391 . S
C439 H469 0.948 . S
C440 C439 1.391 . S
C440 C441 1.391 . S
C441 C440 1.391 . S
C441 C442 1.392 . S
C441 H470 0.947 . S
C442 C441 1.392 . S
C442 C443 1.419 . S
C442 H471 0.948 . S
C443 C442 1.419 . S
C443 C444 1.391 . S
C443 C447 1.397 . S
C444 C439 1.391 . S
C444 C443 1.391 . S
C444 C445 1.399 . S
C445 C444 1.399 . S
C445 C446 1.396 . S
C445 C448 1.453 . S
C445 C449 1.684 . S
C446 C427 1.723 1_554 S
C446 C445 1.396 . S
C446 C447 1.394 . S
C447 C443 1.397 . S
C447 C446 1.394 . S
C447 C457 1.723 . S
C448 C445 1.453 . S
C448 H472 0.982 . S
C448 H473 0.979 . S
C448 H474 0.977 1_554 S
C449 C445 1.684 . S
C449 H475 0.979 . S
C449 H476 0.980 1_554 S
C449 H477 0.983 . S
C450 H426 0.948 . S
C450 C451 1.391 . S
C450 C455 1.391 . S
C451 C450 1.391 . S
C451 C452 1.391 . S
C452 H429 0.947 1_554 S
C452 C451 1.391 . S
C452 C453 1.392 1_554 S
C453 H430 0.948 . S
C453 C452 1.392 1_556 S
C453 C454 1.419 1_556 S
C454 C453 1.419 1_554 S
C454 C455 1.391 . S
C454 C458 1.397 . S
C455 C450 1.391 . S
C455 C454 1.391 . S
C455 C456 1.399 . S
C456 C455 1.399 . S
C456 C457 1.396 . S
C456 C459 1.453 . S
C456 C460 1.684 . S
C457 C447 1.723 . S
C457 C456 1.396 . S
C457 C458 1.394 . S
C458 C428 1.723 1_554 S
C458 C454 1.397 . S
C458 C457 1.394 . S
C459 H431 0.982 . S
C459 H435 0.979 . S
C459 H436 0.977 . S
C459 C456 1.453 . S
C460 H432 0.979 . S
C460 H433 0.980 . S
C460 H434 0.983 . S
C460 C456 1.684 . S
H461 C479 0.948 . S
H462 C420 0.948 . S
H463 C438 0.979 . S
H464 C438 0.980 . S
H465 C438 0.983 . S
H466 C437 0.982 . S
H467 C437 0.979 . S
H468 C437 0.977 . S
H469 C439 0.948 . S
H470 C441 0.947 . S
H471 C442 0.948 . S
H472 C448 0.982 . S
H473 C448 0.979 . S
H474 C448 0.977 1_556 S
H475 C449 0.979 . S
H476 C449 0.980 1_556 S
H477 C449 0.983 . S
H478 C422 0.947 . S
C479 C422 1.392 . S
C479 C423 1.419 . S
C479 H461 0.948 . S
Eu480 N511 2.657 1_565 S
Eu480 N518 2.609 . S
Eu480 O524 2.558 . S
Eu480 O525 2.612 1_455 S
Eu480 O527 2.339 1_455 S
Eu480 O528 2.563 . S
Eu480 O529 2.419 . S
Eu480 O531 2.380 1_565 S
Eu480 O532 2.432 . S
Eu480 C544 2.848 . S
C481 C484 1.416 1_545 S
C481 C485 1.411 . S
C481 N488 1.377 . S
C482 C484 1.439 . S
C482 C486 1.423 . S
C482 C494 1.392 . S
C483 C485 1.420 1_565 S
C483 C486 1.351 . S
C483 H506 0.931 . S
C484 C481 1.416 1_565 S
C484 C482 1.439 . S
C484 N492 1.357 1_565 S
C485 C481 1.411 . S
C485 C483 1.420 1_545 S
C485 C490 1.395 . S
C486 C482 1.423 . S
C486 C483 1.351 . S
C486 H498 0.930 . S
C487 C489 1.400 . S
C487 C490 1.386 . S
C487 H499 0.930 . S
N488 C481 1.377 . S
N488 C489 1.321 . S
N488 Eu491 2.609 . S
C489 C487 1.400 . S
C489 N488 1.321 . S
C489 H496 0.930 . S
C490 C485 1.395 . S
C490 C487 1.386 . S
C490 H509 0.930 . S
Eu491 N488 2.609 . S
Eu491 N492 2.657 . S
Eu491 O525 2.380 1_545 S
Eu491 O526 2.432 . S
Eu491 O530 2.558 . S
Eu491 O531 2.612 1_655 S
Eu491 O533 2.339 1_655 S
Eu491 O534 2.563 1_655 S
Eu491 O535 2.419 . S
Eu491 C555 2.848 . S
N492 C484 1.357 1_545 S
N492 Eu491 2.657 . S
N492 C493 1.334 1_645 S
C493 N492 1.334 1_465 S
C493 C495 1.413 . S
C493 H500 0.929 . S
C494 C482 1.392 . S
C494 C495 1.367 1_655 S
C494 H502 0.930 . S
C495 C493 1.413 . S
C495 C494 1.367 1_455 S
C495 H497 0.930 . S
H496 C489 0.930 . S
H497 C495 0.930 . S
H498 C486 0.930 . S
H499 C487 0.930 . S
H500 C493 0.929 . S
H501 C515 0.930 1_655 S
H502 C494 0.930 . S
H503 C521 0.930 . S
H504 C512 0.929 1_655 S
H505 C519 0.930 . S
H506 C483 0.931 . S
H507 C513 0.930 . S
H508 C546 0.930 . S
H509 C490 0.930 . S
H510 C545 0.931 . S
N511 Eu480 2.657 1_545 S
N511 C512 1.334 . S
N511 C516 1.362 . S
C512 H504 0.929 1_455 S
C512 N511 1.334 . S
C512 C515 1.413 . S
C513 H507 0.930 . S
C513 C514 1.392 . S
C513 C515 1.367 . S
C514 C513 1.392 . S
C514 C516 1.420 . S
C514 C546 1.423 . S
C515 H501 0.930 1_455 S
C515 C512 1.413 . S
C515 C513 1.367 . S
C516 N511 1.362 . S
C516 C514 1.420 . S
C516 C520 1.429 . S
H517 C522 0.930 . S
N518 Eu480 2.609 . S
N518 C520 1.377 1_565 S
N518 C521 1.321 . S
C519 H505 0.930 . S
C519 C521 1.400 . S
C519 C522 1.386 . S
C520 C516 1.429 . S
C520 N518 1.377 1_545 S
C520 C523 1.411 . S
C521 H503 0.930 . S
C521 N518 1.321 . S
C521 C519 1.400 . S
C522 H517 0.930 . S
C522 C519 1.386 . S
C522 C523 1.395 1_565 S
C523 C520 1.411 . S
C523 C522 1.395 1_545 S
C523 C545 1.420 . S
O524 Eu480 2.558 . S
O524 C544 1.257 . S
O525 Eu480 2.612 1_655 S
O525 Eu491 2.380 1_565 S
O525 C536 1.276 . S
O526 Eu491 2.432 . S
O526 C543 1.264 . S
O527 Eu480 2.339 1_655 S
O527 C543 1.254 1_565 S
O528 Eu480 2.563 . S
O528 C536 1.235 1_455 S
O529 Eu480 2.419 . S
O529 C544 1.249 . S
O530 Eu491 2.558 . S
O530 C555 1.257 . S
O531 Eu480 2.380 1_545 S
O531 Eu491 2.612 1_455 S
O531 C547 1.276 . S
O532 Eu480 2.432 . S
O532 C554 1.264 1_565 S
O533 Eu491 2.339 1_455 S
O533 C554 1.254 . S
O534 Eu491 2.563 1_455 S
O534 C547 1.235 . S
O535 Eu491 2.419 . S
O535 C555 1.249 . S
C536 O525 1.276 . S
C536 O528 1.235 1_655 S
C537 C539 1.393 . S
C537 C541 1.395 . S
C537 C544 1.492 . S
C538 C539 1.392 . S
C538 C540 1.386 . S
C539 C537 1.393 . S
C539 C538 1.392 . S
C539 H556 0.930 1_455 S
C540 C538 1.386 . S
C540 C542 1.395 . S
C540 H557 0.930 . S
C541 C537 1.395 . S
C541 C542 1.379 . S
C541 H558 0.930 . S
C542 C540 1.395 . S
C542 C541 1.379 . S
C542 H559 0.930 . S
C543 O526 1.264 . S
C543 O527 1.254 1_545 S
C544 Eu480 2.848 . S
C544 O524 1.257 . S
C544 O529 1.249 . S
C544 C537 1.492 . S
C545 H510 0.931 . S
C545 C523 1.420 . S
C545 C546 1.351 . S
C546 H508 0.930 . S
C546 C514 1.423 . S
C546 C545 1.351 . S
C547 O531 1.276 . S
C547 O534 1.235 . S
C548 C549 1.393 . S
C548 C552 1.395 . S
C548 C555 1.492 . S
C549 C548 1.393 . S
C549 C550 1.392 . S
C549 H560 0.930 1_655 S
C550 C549 1.392 . S
C550 C551 1.386 . S
C551 C550 1.386 . S
C551 C553 1.395 . S
C551 H561 0.930 . S
C552 C548 1.395 . S
C552 C553 1.379 . S
C552 H562 0.930 . S
C553 C551 1.395 . S
C553 C552 1.379 . S
C553 H563 0.930 . S
C554 O532 1.264 1_545 S
C554 O533 1.254 . S
C555 Eu491 2.848 . S
C555 O530 1.257 . S
C555 O535 1.249 . S
C555 C548 1.492 . S
H556 C539 0.930 1_655 S
H557 C540 0.930 . S
H558 C541 0.930 . S
H559 C542 0.930 . S
H560 C549 0.930 1_455 S
H561 C551 0.930 . S
H562 C552 0.930 . S
H563 C553 0.930 . S
Eu564 N595 2.657 . S
Eu564 N602 2.609 . S
Eu564 O608 2.558 . S
Eu564 O609 2.612 1_545 S
Eu564 O611 2.339 1_545 S
Eu564 O612 2.563 . S
Eu564 O613 2.419 . S
Eu564 O615 2.380 . S
Eu564 O616 2.432 . S
Eu564 C628 2.848 . S
C565 C568 1.429 . S
C565 C569 1.411 . S
C565 N572 1.377 . S
C566 C568 1.420 . S
C566 C570 1.423 . S
C566 C578 1.392 . S
C567 C569 1.420 . S
C567 C570 1.351 . S
C567 H590 0.931 . S
C568 C565 1.429 . S
C568 C566 1.420 . S
C568 N576 1.362 . S
C569 C565 1.411 . S
C569 C567 1.420 . S
C569 C574 1.395 . S
C570 C566 1.423 . S
C570 C567 1.351 . S
C570 H582 0.930 . S
C571 C573 1.400 . S
C571 C574 1.386 . S
C571 H583 0.930 . S
N572 C565 1.377 . S
N572 C573 1.321 . S
N572 Eu575 2.609 . S
C573 C571 1.400 . S
C573 N572 1.321 . S
C573 H580 0.930 . S
C574 C569 1.395 . S
C574 C571 1.386 . S
C574 H593 0.930 . S
Eu575 N572 2.609 . S
Eu575 N576 2.657 . S
Eu575 O609 2.380 . S
Eu575 O610 2.432 . S
Eu575 O614 2.558 . S
Eu575 O615 2.612 1_565 S
Eu575 O617 2.339 1_565 S
Eu575 O618 2.563 1_565 S
Eu575 O619 2.419 . S
Eu575 C639 2.848 . S
N576 C568 1.362 . S
N576 Eu575 2.657 . S
N576 C577 1.334 1_565 S
C577 N576 1.334 1_545 S
C577 C579 1.413 . S
C577 H584 0.929 . S
C578 C566 1.392 . S
C578 C579 1.367 1_565 S
C578 H586 0.930 . S
C579 C577 1.413 . S
C579 C578 1.367 1_545 S
C579 H581 0.930 . S
H580 C573 0.930 . S
H581 C579 0.930 . S
H582 C570 0.930 . S
H583 C571 0.930 . S
H584 C577 0.929 . S
H585 C599 0.930 1_565 S
H586 C578 0.930 . S
H587 C605 0.930 . S
H588 C596 0.929 1_565 S
H589 C603 0.930 . S
H590 C567 0.931 . S
H591 C597 0.930 . S
H592 C630 0.930 . S
H593 C574 0.930 . S
H594 C629 0.931 . S
N595 Eu564 2.657 . S
N595 C596 1.334 . S
N595 C600 1.362 . S
C596 H588 0.929 1_545 S
C596 N595 1.334 . S
C596 C599 1.413 . S
C597 H591 0.930 . S
C597 C598 1.392 . S
C597 C599 1.367 . S
C598 C597 1.392 . S
C598 C600 1.420 . S
C598 C630 1.423 . S
C599 H585 0.930 1_545 S
C599 C596 1.413 . S
C599 C597 1.367 . S
C600 N595 1.362 . S
C600 C598 1.420 . S
C600 C604 1.429 . S
H601 C606 0.930 . S
N602 Eu564 2.609 . S
N602 C604 1.377 . S
N602 C605 1.321 . S
C603 H589 0.930 . S
C603 C605 1.400 . S
C603 C606 1.386 . S
C604 C600 1.429 . S
C604 N602 1.377 . S
C604 C607 1.411 . S
C605 H587 0.930 . S
C605 N602 1.321 . S
C605 C603 1.400 . S
C606 H601 0.930 . S
C606 C603 1.386 . S
C606 C607 1.395 . S
C607 C604 1.411 . S
C607 C606 1.395 . S
C607 C629 1.420 . S
O608 Eu564 2.558 . S
O608 C628 1.257 . S
O609 Eu564 2.612 1_565 S
O609 Eu575 2.380 . S
O609 C620 1.276 . S
O610 Eu575 2.432 . S
O610 C627 1.264 . S
O611 Eu564 2.339 1_565 S
O611 C627 1.254 . S
O612 Eu564 2.563 . S
O612 C620 1.235 1_545 S
O613 Eu564 2.419 . S
O613 C628 1.249 . S
O614 Eu575 2.558 . S
O614 C639 1.257 . S
O615 Eu564 2.380 . S
O615 Eu575 2.612 1_545 S
O615 C631 1.276 . S
O616 Eu564 2.432 . S
O616 C638 1.264 . S
O617 Eu575 2.339 1_545 S
O617 C638 1.254 . S
O618 Eu575 2.563 1_545 S
O618 C631 1.235 . S
O619 Eu575 2.419 . S
O619 C639 1.249 . S
C620 O609 1.276 . S
C620 O612 1.235 1_565 S
C621 C623 1.393 . S
C621 C625 1.395 . S
C621 C628 1.492 . S
C622 C623 1.392 . S
C622 C624 1.386 . S
C623 C621 1.393 . S
C623 C622 1.392 . S
C623 H640 0.958 . S
C624 C622 1.386 . S
C624 C626 1.395 . S
C624 H641 0.930 . S
C625 C621 1.395 . S
C625 C626 1.379 . S
C625 H642 0.930 . S
C626 C624 1.395 . S
C626 C625 1.379 . S
C626 H643 0.930 . S
C627 O610 1.264 . S
C627 O611 1.254 . S
C628 Eu564 2.848 . S
C628 O608 1.257 . S
C628 O613 1.249 . S
C628 C621 1.492 . S
C629 H594 0.931 . S
C629 C607 1.420 . S
C629 C630 1.351 . S
C630 H592 0.930 . S
C630 C598 1.423 . S
C630 C629 1.351 . S
C631 O615 1.276 . S
C631 O618 1.235 . S
C632 C633 1.393 . S
C632 C636 1.395 . S
C632 C639 1.492 . S
C633 C632 1.393 . S
C633 C634 1.392 . S
C633 H644 0.930 1_565 S
C634 C633 1.392 . S
C634 C635 1.386 . S
C635 C634 1.386 . S
C635 C637 1.395 . S
C635 H645 0.930 . S
C636 C632 1.395 . S
C636 C637 1.379 . S
C636 H646 0.930 . S
C637 C635 1.395 . S
C637 C636 1.379 . S
C637 H647 0.930 . S
C638 O616 1.264 . S
C638 O617 1.254 . S
C639 Eu575 2.848 . S
C639 O614 1.257 . S
C639 O619 1.249 . S
C639 C632 1.492 . S
H640 C623 0.958 . S
H641 C624 0.930 . S
H642 C625 0.930 . S
H643 C626 0.930 . S
H644 C633 0.930 1_545 S
H645 C635 0.930 . S
H646 C636 0.930 . S
H647 C637 0.930 . S
Eu648 N679 2.657 . S
Eu648 N686 2.609 . S
Eu648 O692 2.558 . S
Eu648 O693 2.612 . S
Eu648 O695 2.339 . S
Eu648 O696 2.563 . S
Eu648 O697 2.419 . S
Eu648 O699 2.380 . S
Eu648 O700 2.432 . S
Eu648 C712 2.848 . S
C649 C652 1.429 . S
C649 C653 1.411 . S
C649 N656 1.377 . S
C650 C652 1.420 . S
C650 C654 1.423 . S
C650 C662 1.392 . S
C651 C653 1.420 . S
C651 C654 1.351 . S
C651 H674 0.931 . S
C652 C649 1.429 . S
C652 C650 1.420 . S
C652 N660 1.362 . S
C653 C649 1.411 . S
C653 C651 1.420 . S
C653 C658 1.395 . S
C654 C650 1.423 . S
C654 C651 1.351 . S
C654 H666 0.930 . S
C655 C657 1.400 . S
C655 C658 1.386 . S
C655 H667 0.930 . S
N656 C649 1.377 . S
N656 C657 1.321 . S
N656 Eu659 2.609 . S
C657 C655 1.400 . S
C657 N656 1.321 . S
C657 H664 0.930 . S
C658 C653 1.395 . S
C658 C655 1.386 . S
C658 H677 0.930 . S
Eu659 N656 2.609 . S
Eu659 N660 2.657 . S
Eu659 O693 2.380 . S
Eu659 O694 2.432 . S
Eu659 O698 2.558 . S
Eu659 O699 2.612 . S
Eu659 O701 2.339 . S
Eu659 O702 2.563 . S
Eu659 O703 2.419 . S
Eu659 C723 2.848 . S
N660 C652 1.362 . S
N660 Eu659 2.657 . S
N660 C661 1.334 . S
C661 N660 1.334 . S
C661 C663 1.413 . S
C661 H668 0.929 . S
C662 C650 1.392 . S
C662 C663 1.367 . S
C662 H670 0.930 . S
C663 C661 1.413 . S
C663 C662 1.367 . S
C663 H665 0.930 . S
H664 C657 0.930 . S
H665 C663 0.930 . S
H666 C654 0.930 . S
H667 C655 0.930 . S
H668 C661 0.929 . S
H669 C683 0.930 . S
H670 C662 0.930 . S
H671 C689 0.930 . S
H672 C680 0.929 . S
H673 C687 0.930 . S
H674 C651 0.931 . S
H675 C681 0.930 . S
H676 C714 0.930 . S
H677 C658 0.930 . S
H678 C713 0.931 . S
N679 Eu648 2.657 . S
N679 C680 1.334 . S
N679 C684 1.362 . S
C680 H672 0.929 . S
C680 N679 1.334 . S
C680 C683 1.413 . S
C681 H675 0.930 . S
C681 C682 1.392 . S
C681 C683 1.367 . S
C682 C681 1.392 . S
C682 C684 1.420 . S
C682 C714 1.423 . S
C683 H669 0.930 . S
C683 C680 1.413 . S
C683 C681 1.367 . S
C684 N679 1.362 . S
C684 C682 1.420 . S
C684 C688 1.429 . S
H685 C690 0.930 . S
N686 Eu648 2.609 . S
N686 C688 1.377 . S
N686 C689 1.321 . S
C687 H673 0.930 . S
C687 C689 1.400 . S
C687 C690 1.386 . S
C688 C684 1.429 . S
C688 N686 1.377 . S
C688 C691 1.411 . S
C689 H671 0.930 . S
C689 N686 1.321 . S
C689 C687 1.400 . S
C690 H685 0.930 . S
C690 C687 1.386 . S
C690 C691 1.395 . S
C691 C688 1.411 . S
C691 C690 1.395 . S
C691 C713 1.420 . S
O692 Eu648 2.558 . S
O692 C712 1.257 . S
O693 Eu648 2.612 . S
O693 Eu659 2.380 . S
O693 C704 1.276 . S
O694 Eu659 2.432 . S
O694 C711 1.264 . S
O695 Eu648 2.339 . S
O695 C711 1.254 . S
O696 Eu648 2.563 . S
O696 C704 1.235 . S
O697 Eu648 2.419 . S
O697 C712 1.249 . S
O698 Eu659 2.558 . S
O698 C723 1.257 . S
O699 Eu648 2.380 . S
O699 Eu659 2.612 . S
O699 C715 1.276 . S
O700 Eu648 2.432 . S
O700 C722 1.264 . S
O701 Eu659 2.339 . S
O701 C722 1.254 . S
O702 Eu659 2.563 . S
O702 C715 1.235 . S
O703 Eu659 2.419 . S
O703 C723 1.249 . S
C704 O693 1.276 . S
C704 O696 1.235 . S
C705 C707 1.393 . S
C705 C709 1.395 . S
C705 C712 1.492 . S
C706 C707 1.392 . S
C706 C708 1.386 . S
C707 C705 1.393 . S
C707 C706 1.392 . S
C707 H724 0.930 . S
C708 C706 1.386 . S
C708 C710 1.395 . S
C708 H725 0.930 . S
C709 C705 1.395 . S
C709 C710 1.379 . S
C709 H726 0.930 . S
C710 C708 1.395 . S
C710 C709 1.379 . S
C710 H727 0.930 . S
C711 O694 1.264 . S
C711 O695 1.254 . S
C712 Eu648 2.848 . S
C712 O692 1.257 . S
C712 O697 1.249 . S
C712 C705 1.492 . S
C713 H678 0.931 . S
C713 C691 1.420 . S
C713 C714 1.351 . S
C714 H676 0.930 . S
C714 C682 1.423 . S
C714 C713 1.351 . S
C715 O699 1.276 . S
C715 O702 1.235 . S
C716 C717 1.393 . S
C716 C720 1.395 . S
C716 C723 1.492 . S
C717 C716 1.393 . S
C717 C718 1.392 . S
C717 H728 0.930 . S
C718 C717 1.392 . S
C718 C719 1.386 . S
C719 C718 1.386 . S
C719 C721 1.395 . S
C719 H729 0.930 . S
C720 C716 1.395 . S
C720 C721 1.379 . S
C720 H730 0.930 . S
C721 C719 1.395 . S
C721 C720 1.379 . S
C721 H731 0.930 . S
C722 O700 1.264 . S
C722 O701 1.254 . S
C723 Eu659 2.848 . S
C723 O698 1.257 . S
C723 O703 1.249 . S
C723 C716 1.492 . S
H724 C707 0.930 . S
H725 C708 0.930 . S
H726 C709 0.930 . S
H727 C710 0.930 . S
H728 C717 0.930 . S
H729 C719 0.930 . S
H730 C720 0.930 . S
H731 C721 0.930 . S
Eu732 N763 2.657 . S
Eu732 N770 2.609 . S
Eu732 O776 2.558 . S
Eu732 O777 2.612 . S
Eu732 O779 2.339 . S
Eu732 O780 2.563 . S
Eu732 O781 2.419 . S
Eu732 O783 2.404 . S
Eu732 O784 2.432 1_455 S
Eu732 C796 2.848 . S
C733 C736 1.429 . S
C733 C737 1.411 . S
C733 N740 1.377 . S
C734 C736 1.420 . S
C734 C738 1.423 . S
C734 C746 1.392 . S
C735 C737 1.420 . S
C735 C738 1.351 . S
C735 H758 0.931 . S
C736 C733 1.429 . S
C736 C734 1.420 . S
C736 N744 1.362 . S
C737 C733 1.411 . S
C737 C735 1.420 . S
C737 C742 1.395 . S
C738 C734 1.423 . S
C738 C735 1.351 . S
C738 H750 0.930 . S
C739 C741 1.400 . S
C739 C742 1.386 1_455 S
C739 H751 0.930 . S
N740 C733 1.377 . S
N740 C741 1.321 1_655 S
N740 Eu743 2.609 . S
C741 C739 1.400 . S
C741 N740 1.321 1_455 S
C741 H748 0.930 . S
C742 C737 1.395 . S
C742 C739 1.386 1_655 S
C742 H761 0.930 . S
Eu743 N740 2.609 . S
Eu743 N744 2.657 . S
Eu743 O777 2.380 1_655 S
Eu743 O778 2.432 1_655 S
Eu743 O782 2.558 . S
Eu743 O783 2.598 1_655 S
Eu743 O785 2.339 . S
Eu743 O786 2.563 . S
Eu743 O787 2.419 . S
Eu743 C807 2.848 . S
N744 C736 1.362 . S
N744 Eu743 2.657 . S
N744 C745 1.334 . S
C745 N744 1.334 . S
C745 C747 1.413 . S
C745 H752 0.929 . S
C746 C734 1.392 . S
C746 C747 1.367 . S
C746 H754 0.930 . S
C747 C745 1.413 . S
C747 C746 1.367 . S
C747 H749 0.930 . S
H748 C741 0.930 . S
H749 C747 0.930 . S
H750 C738 0.930 . S
H751 C739 0.930 . S
H752 C745 0.929 . S
H753 C767 0.930 . S
H754 C746 0.930 . S
H755 C773 0.930 1_655 S
H756 C764 0.929 . S
H757 C771 0.930 1_655 S
H758 C735 0.931 . S
H759 C765 0.930 . S
H760 C798 0.930 . S
H761 C742 0.930 . S
H762 C797 0.931 . S
N763 Eu732 2.657 . S
N763 C764 1.334 . S
N763 C768 1.362 . S
C764 H756 0.929 . S
C764 N763 1.334 . S
C764 C767 1.413 . S
C765 H759 0.930 . S
C765 C766 1.392 . S
C765 C767 1.367 . S
C766 C765 1.392 . S
C766 C768 1.420 . S
C766 C798 1.423 . S
C767 H753 0.930 . S
C767 C764 1.413 . S
C767 C765 1.367 . S
C768 N763 1.362 . S
C768 C766 1.420 . S
C768 C772 1.429 . S
H769 C774 0.930 . S
N770 Eu732 2.609 . S
N770 C772 1.377 . S
N770 C773 1.321 . S
C771 H757 0.930 1_455 S
C771 C773 1.400 . S
C771 C774 1.386 . S
C772 C768 1.429 . S
C772 N770 1.377 . S
C772 C775 1.411 . S
C773 H755 0.930 1_455 S
C773 N770 1.321 . S
C773 C771 1.400 . S
C774 H769 0.930 . S
C774 C771 1.386 . S
C774 C775 1.395 . S
C775 C772 1.411 . S
C775 C774 1.395 . S
C775 C797 1.420 . S
O776 Eu732 2.558 . S
O776 C796 1.257 . S
O777 Eu732 2.612 . S
O777 Eu743 2.380 1_455 S
O777 C788 1.276 . S
O778 Eu743 2.432 1_455 S
O778 C795 1.264 . S
O779 Eu732 2.339 . S
O779 C795 1.254 . S
O780 Eu732 2.563 . S
O780 C788 1.235 . S
O781 Eu732 2.419 . S
O781 C796 1.249 . S
O782 Eu743 2.558 . S
O782 C807 1.257 . S
O783 Eu732 2.404 . S
O783 Eu743 2.598 1_455 S
O783 C799 1.260 1_455 S
O784 Eu732 2.432 1_655 S
O784 C806 1.264 . S
O785 Eu743 2.339 . S
O785 C806 1.254 . S
O786 Eu743 2.563 . S
O786 C799 1.235 . S
O787 Eu743 2.419 . S
O787 C807 1.249 . S
C788 O777 1.276 . S
C788 O780 1.235 . S
C789 C791 1.393 . S
C789 C793 1.395 . S
C789 C796 1.492 . S
C790 C791 1.392 . S
C790 C792 1.386 . S
C791 C789 1.393 . S
C791 C790 1.392 . S
C791 H808 0.930 . S
C792 C790 1.386 . S
C792 C794 1.395 . S
C792 H809 0.930 . S
C793 C789 1.395 . S
C793 C794 1.379 . S
C793 H810 0.930 . S
C794 C792 1.395 . S
C794 C793 1.379 . S
C794 H811 0.930 . S
C795 O778 1.264 . S
C795 O779 1.254 . S
C796 Eu732 2.848 . S
C796 O776 1.257 . S
C796 O781 1.249 . S
C796 C789 1.492 . S
C797 H762 0.931 . S
C797 C775 1.420 . S
C797 C798 1.351 . S
C798 H760 0.930 . S
C798 C766 1.423 . S
C798 C797 1.351 . S
C799 O783 1.260 1_655 S
C799 O786 1.235 . S
C800 C801 1.393 . S
C800 C804 1.395 . S
C800 C807 1.492 . S
C801 C800 1.393 . S
C801 C802 1.392 . S
C801 H812 0.930 . S
C802 C801 1.392 . S
C802 C803 1.386 . S
C803 C802 1.386 . S
C803 C805 1.395 . S
C803 H813 0.930 . S
C804 C800 1.395 . S
C804 C805 1.379 . S
C804 H814 0.930 . S
C805 C803 1.395 . S
C805 C804 1.379 . S
C805 H815 0.930 . S
C806 O784 1.264 . S
C806 O785 1.254 . S
C807 Eu743 2.848 . S
C807 O782 1.257 . S
C807 O787 1.249 . S
C807 C800 1.492 . S
H808 C791 0.930 . S
H809 C792 0.930 . S
H810 C793 0.930 . S
H811 C794 0.930 . S
H812 C801 0.930 . S
H813 C803 0.930 . S
H814 C804 0.930 . S
H815 C805 0.930 . S
C816 C817 1.349 . S
C816 C818 1.327 . S
C816 H841 0.950 . S
C817 C816 1.349 . S
C817 C833 1.349 . S
C818 C816 1.327 . S
C818 C837 1.429 . S
C818 H842 0.950 . S
C819 C836 1.574 . S
C819 C838 1.368 . S
C819 H843 0.949 . S
H820 C824 0.949 . S
C821 C822 1.349 . S
C821 C823 1.327 . S
C821 H844 0.950 . S
C822 C821 1.349 . S
C822 C834 1.349 . S
C823 C821 1.327 . S
C823 C839 1.429 . S
C823 H845 0.950 . S
C824 H820 0.949 . S
C824 C832 1.574 . S
C824 C840 1.368 . S
H825 C833 0.950 . S
H826 C831 0.950 . S
H827 C832 0.949 . S
H828 C834 0.950 1_565 S
H829 C835 0.950 . S
H830 C836 0.949 . S
C831 H826 0.950 . S
C831 C833 1.327 . S
C831 C837 1.429 . S
C832 C824 1.574 . S
C832 H827 0.949 . S
C832 C838 1.368 . S
C833 C817 1.349 . S
C833 H825 0.950 . S
C833 C831 1.327 . S
C834 C822 1.349 . S
C834 H828 0.950 1_545 S
C834 C835 1.327 . S
C835 H829 0.950 . S
C835 C834 1.327 . S
C835 C839 1.429 . S
C836 C819 1.574 . S
C836 H830 0.949 . S
C836 C840 1.368 . S
C837 C818 1.429 . S
C837 C831 1.429 . S
C837 C838 1.523 . S
C838 C819 1.368 . S
C838 C832 1.368 . S
C838 C837 1.523 . S
C839 C823 1.429 . S
C839 C835 1.429 . S
C839 C840 1.523 . S
C840 C824 1.368 . S
C840 C836 1.368 . S
C840 C839 1.523 . S
H841 C816 0.950 . S
H842 C818 0.950 . S
H843 C819 0.949 . S
H844 C821 0.950 . S
H845 C823 0.950 . S
C846 C847 1.349 . S
C846 C848 1.327 . S
C846 H871 0.950 . S
C847 C846 1.349 . S
C847 C863 1.349 . S
C848 C846 1.327 . S
C848 C867 1.429 . S
C848 H872 0.950 . S
C849 C866 1.574 . S
C849 C868 1.368 . S
C849 H873 0.949 . S
H850 C854 0.949 . S
C851 C852 1.349 . S
C851 C853 1.327 . S
C851 H874 0.950 . S
C852 C851 1.349 . S
C852 C864 1.349 . S
C853 C851 1.327 . S
C853 C869 1.429 . S
C853 H875 0.950 . S
C854 H850 0.949 . S
C854 C862 1.574 . S
C854 C870 1.368 . S
H855 C863 0.950 . S
H856 C861 0.950 . S
H857 C862 0.949 . S
H858 C864 0.950 . S
H859 C865 0.950 . S
H860 C866 0.949 . S
C861 H856 0.950 . S
C861 C863 1.327 . S
C861 C867 1.429 . S
C862 C854 1.574 . S
C862 H857 0.949 . S
C862 C868 1.368 . S
C863 C847 1.349 . S
C863 H855 0.950 . S
C863 C861 1.327 . S
C864 C852 1.349 . S
C864 H858 0.950 . S
C864 C865 1.327 . S
C865 H859 0.950 . S
C865 C864 1.327 . S
C865 C869 1.429 . S
C866 C849 1.574 . S
C866 H860 0.949 . S
C866 C870 1.368 . S
C867 C848 1.429 . S
C867 C861 1.429 . S
C867 C868 1.523 . S
C868 C849 1.368 . S
C868 C862 1.368 . S
C868 C867 1.523 . S
C869 C853 1.429 . S
C869 C865 1.429 . S
C869 C870 1.523 . S
C870 C854 1.368 . S
C870 C866 1.368 . S
C870 C869 1.523 . S
H871 C846 0.950 . S
H872 C848 0.950 . S
H873 C849 0.949 . S
H874 C851 0.950 . S
H875 C853 0.950 . S
C876 C877 1.349 . S
C876 C878 1.327 . S
C876 H901 0.950 . S
C877 C876 1.349 . S
C877 C893 1.349 . S
C878 C876 1.327 . S
C878 C897 1.429 . S
C878 H902 0.950 . S
C879 C896 1.574 . S
C879 C898 1.368 . S
C879 H903 0.949 . S
H880 C884 0.949 . S
C881 C882 1.349 . S
C881 C883 1.327 . S
C881 H904 0.950 . S
C882 C881 1.349 . S
C882 C894 1.349 . S
C883 C881 1.327 . S
C883 C899 1.429 . S
C883 H905 0.950 . S
C884 H880 0.949 . S
C884 C892 1.574 . S
C884 C900 1.368 . S
H885 C893 0.950 . S
H886 C891 0.950 . S
H887 C892 0.949 . S
H888 C894 0.950 . S
H889 C895 0.950 . S
H890 C896 0.949 . S
C891 H886 0.950 . S
C891 C893 1.327 . S
C891 C897 1.429 . S
C892 C884 1.574 . S
C892 H887 0.949 . S
C892 C898 1.368 . S
C893 C877 1.349 . S
C893 H885 0.950 . S
C893 C891 1.327 . S
C894 C882 1.349 . S
C894 H888 0.950 . S
C894 C895 1.327 . S
C895 H889 0.950 . S
C895 C894 1.327 . S
C895 C899 1.429 . S
C896 C879 1.574 . S
C896 H890 0.949 . S
C896 C900 1.368 . S
C897 C878 1.429 . S
C897 C891 1.429 . S
C897 C898 1.523 . S
C898 C879 1.368 . S
C898 C892 1.368 . S
C898 C897 1.523 . S
C899 C883 1.429 . S
C899 C895 1.429 . S
C899 C900 1.523 . S
C900 C884 1.368 . S
C900 C896 1.368 . S
C900 C899 1.523 . S
H901 C876 0.950 . S
H902 C878 0.950 . S
H903 C879 0.949 . S
H904 C881 0.950 . S
H905 C883 0.950 . S
C906 C907 1.349 . S
C906 C908 1.327 . S
C906 H931 0.950 . S
C907 C906 1.349 . S
C907 C923 1.349 . S
C908 C906 1.327 . S
C908 C927 1.429 . S
C908 H932 0.950 . S
C909 C926 1.574 . S
C909 C928 1.368 . S
C909 H933 0.949 . S
H910 C914 0.949 . S
C911 C912 1.349 . S
C911 C913 1.327 . S
C911 H934 0.950 . S
C912 C911 1.349 . S
C912 C924 1.349 . S
C913 C911 1.327 . S
C913 C929 1.429 . S
C913 H935 0.950 . S
C914 H910 0.949 . S
C914 C922 1.574 . S
C914 C930 1.368 . S
H915 C923 0.950 . S
H916 C921 0.950 . S
H917 C922 0.949 . S
H918 C924 0.950 . S
H919 C925 0.950 . S
H920 C926 0.949 . S
C921 H916 0.950 . S
C921 C923 1.327 . S
C921 C927 1.429 . S
C922 C914 1.574 . S
C922 H917 0.949 . S
C922 C928 1.368 . S
C923 C907 1.349 . S
C923 H915 0.950 . S
C923 C921 1.327 . S
C924 C912 1.349 . S
C924 H918 0.950 . S
C924 C925 1.327 . S
C925 H919 0.950 . S
C925 C924 1.327 . S
C925 C929 1.429 . S
C926 C909 1.574 . S
C926 H920 0.949 . S
C926 C930 1.368 . S
C927 C908 1.429 . S
C927 C921 1.429 . S
C927 C928 1.523 . S
C928 C909 1.368 . S
C928 C922 1.368 . S
C928 C927 1.523 . S
C929 C913 1.429 . S
C929 C925 1.429 . S
C929 C930 1.523 . S
C930 C914 1.368 . S
C930 C926 1.368 . S
C930 C929 1.523 . S
H931 C906 0.950 . S
H932 C908 0.950 . S
H933 C909 0.949 . S
H934 C911 0.950 . S
H935 C913 0.950 . S
C936 C937 1.349 . S
C936 C938 1.327 1_554 S
C936 H961 0.950 . S
C937 C936 1.349 . S
C937 C953 1.349 . S
C938 C936 1.327 1_556 S
C938 C957 1.429 . S
C938 H962 0.950 . S
C939 C956 1.574 . S
C939 C958 1.368 . S
C939 H963 0.949 . S
H940 C944 0.949 . S
C941 C942 1.349 1_545 S
C941 C943 1.327 1_545 S
C941 H964 0.950 . S
C942 C941 1.349 1_565 S
C942 C954 1.349 . S
C943 C941 1.327 1_565 S
C943 C959 1.429 . S
C943 H965 0.950 1_565 S
C944 H940 0.949 . S
C944 C952 1.574 . S
C944 C960 1.368 . S
H945 C953 0.950 . S
H946 C951 0.950 . S
H947 C952 0.949 . S
H948 C954 0.950 . S
H949 C955 0.950 . S
H950 C956 0.951 . S
C951 H946 0.950 . S
C951 C953 1.327 1_556 S
C951 C957 1.429 . S
C952 C944 1.574 . S
C952 H947 0.949 . S
C952 C958 1.368 . S
C953 C937 1.349 . S
C953 H945 0.950 . S
C953 C951 1.327 1_554 S
C954 C942 1.349 . S
C954 H948 0.950 . S
C954 C955 1.327 . S
C955 H949 0.950 . S
C955 C954 1.327 . S
C955 C959 1.429 . S
C956 C939 1.574 . S
C956 H950 0.951 . S
C956 C960 1.368 . S
C957 C938 1.429 . S
C957 C951 1.429 . S
C957 C958 1.523 . S
C958 C939 1.368 . S
C958 C952 1.368 . S
C958 C957 1.523 . S
C959 C943 1.429 . S
C959 C955 1.429 . S
C959 C960 1.523 . S
C960 C944 1.368 . S
C960 C956 1.368 . S
C960 C959 1.523 . S
H961 C936 0.950 . S
H962 C938 0.950 . S
H963 C939 0.949 . S
H964 C941 0.950 . S
H965 C943 0.950 1_545 S
C966 C967 1.349 . S
C966 C968 1.327 1_554 S
C966 H991 0.950 . S
C967 C966 1.349 . S
C967 C983 1.353 . S
C968 C966 1.327 1_556 S
C968 C987 1.429 . S
C968 H992 0.950 . S
C969 C986 1.574 . S
C969 C988 1.368 . S
C969 H993 0.949 . S
H970 C974 0.949 . S
C971 C972 1.349 . S
C971 C973 1.327 . S
C971 H994 0.950 . S
C972 C971 1.349 . S
C972 C984 1.349 . S
C973 C971 1.327 . S
C973 C989 1.429 . S
C973 H995 0.950 . S
C974 H970 0.949 . S
C974 C982 1.574 . S
C974 C990 1.368 . S
H975 C983 0.950 . S
H976 C981 0.950 . S
H977 C982 0.949 . S
H978 C984 0.950 . S
H979 C985 0.950 . S
H980 C986 0.949 . S
C981 H976 0.950 . S
C981 C983 1.323 1_556 S
C981 C987 1.429 . S
C982 C974 1.574 . S
C982 H977 0.949 . S
C982 C988 1.368 . S
C983 C967 1.353 . S
C983 H975 0.950 . S
C983 C981 1.323 1_554 S
C984 C972 1.349 . S
C984 H978 0.950 . S
C984 C985 1.327 . S
C985 H979 0.950 . S
C985 C984 1.327 . S
C985 C989 1.429 . S
C986 C969 1.574 . S
C986 H980 0.949 . S
C986 C990 1.368 . S
C987 C968 1.429 . S
C987 C981 1.429 . S
C987 C988 1.523 . S
C988 C969 1.368 . S
C988 C982 1.368 . S
C988 C987 1.523 . S
C989 C973 1.429 . S
C989 C985 1.429 . S
C989 C990 1.523 . S
C990 C974 1.368 . S
C990 C986 1.368 . S
C990 C989 1.523 . S
H991 C966 0.950 . S
H992 C968 0.950 . S
H993 C969 0.949 . S
H994 C971 0.950 . S
H995 C973 0.950 . S
C996 C997 1.349 1_556 S
C996 C998 1.327 . S
C996 H1021 0.950 . S
C997 C996 1.349 1_554 S
C997 C1013 1.349 . S
C998 C996 1.327 . S
C998 C1017 1.429 . S
C998 H1022 0.950 . S
C999 C1016 1.574 . S
C999 C1018 1.368 . S
C999 H1023 0.949 . S
H1000 C1004 0.949 . S
C1001 C1002 1.349 . S
C1001 C1003 1.327 . S
C1001 H1024 0.950 . S
C1002 C1001 1.349 . S
C1002 C1014 1.349 . S
C1003 C1001 1.327 . S
C1003 C1019 1.429 . S
C1003 H1025 0.950 . S
C1004 H1000 0.949 . S
C1004 C1012 1.574 . S
C1004 C1020 1.368 . S
H1005 C1013 0.950 . S
H1006 C1011 0.948 1_554 S
H1007 C1012 0.949 . S
H1008 C1014 0.950 . S
H1009 C1015 0.950 . S
H1010 C1016 0.949 . S
C1011 H1006 0.948 1_556 S
C1011 C1013 1.314 1_556 S
C1011 C1017 1.444 . S
C1012 C1004 1.574 . S
C1012 H1007 0.949 . S
C1012 C1018 1.368 . S
C1013 C997 1.349 . S
C1013 H1005 0.950 . S
C1013 C1011 1.314 1_554 S
C1014 C1002 1.349 . S
C1014 H1008 0.950 . S
C1014 C1015 1.327 . S
C1015 H1009 0.950 . S
C1015 C1014 1.327 . S
C1015 C1019 1.429 . S
C1016 C999 1.574 . S
C1016 H1010 0.949 . S
C1016 C1020 1.368 . S
C1017 C998 1.429 . S
C1017 C1011 1.444 . S
C1017 C1018 1.523 . S
C1018 C999 1.368 . S
C1018 C1012 1.368 . S
C1018 C1017 1.523 . S
C1019 C1003 1.429 . S
C1019 C1015 1.429 . S
C1019 C1020 1.523 . S
C1020 C1004 1.368 . S
C1020 C1016 1.368 . S
C1020 C1019 1.523 . S
H1021 C996 0.950 . S
H1022 C998 0.950 . S
H1023 C999 0.949 . S
H1024 C1001 0.950 . S
H1025 C1003 0.950 . S
C1026 C1027 1.349 . S
C1026 C1028 1.327 . S
C1026 H1051 0.950 . S
C1027 C1026 1.349 . S
C1027 C1043 1.349 1_554 S
C1028 C1026 1.327 . S
C1028 C1047 1.429 1_554 S
C1028 H1052 0.950 . S
C1029 C1046 1.574 . S
C1029 C1048 1.368 . S
C1029 H1053 0.949 . S
H1030 C1034 0.949 . S
C1031 C1032 1.349 . S
C1031 C1033 1.327 . S
C1031 H1054 0.950 . S
C1032 C1031 1.349 . S
C1032 C1044 1.349 . S
C1033 C1031 1.327 . S
C1033 C1049 1.429 . S
C1033 H1055 0.950 . S
C1034 H1030 0.949 . S
C1034 C1042 1.574 . S
C1034 C1050 1.368 . S
H1035 C1043 0.950 . S
H1036 C1041 0.950 . S
H1037 C1042 0.949 . S
H1038 C1044 0.950 . S
H1039 C1045 0.950 . S
H1040 C1046 0.949 . S
C1041 H1036 0.950 . S
C1041 C1043 1.327 . S
C1041 C1047 1.429 . S
C1042 C1034 1.574 . S
C1042 H1037 0.949 . S
C1042 C1048 1.368 . S
C1043 C1027 1.349 1_556 S
C1043 H1035 0.950 . S
C1043 C1041 1.327 . S
C1044 C1032 1.349 . S
C1044 H1038 0.950 . S
C1044 C1045 1.327 . S
C1045 H1039 0.950 . S
C1045 C1044 1.327 . S
C1045 C1049 1.429 . S
C1046 C1029 1.574 . S
C1046 H1040 0.949 . S
C1046 C1050 1.368 . S
C1047 C1028 1.429 1_556 S
C1047 C1041 1.429 . S
C1047 C1048 1.523 . S
C1048 C1029 1.368 . S
C1048 C1042 1.368 . S
C1048 C1047 1.523 . S
C1049 C1033 1.429 . S
C1049 C1045 1.429 . S
C1049 C1050 1.523 . S
C1050 C1034 1.368 . S
C1050 C1046 1.368 . S
C1050 C1049 1.523 . S
H1051 C1026 0.950 . S
H1052 C1028 0.950 . S
H1053 C1029 0.949 . S
H1054 C1031 0.950 . S
H1055 C1033 0.950 . S
C1056 C1057 1.349 . S
C1056 C1058 1.327 . S
C1056 H1081 0.950 . S
C1057 C1056 1.349 . S
C1057 C1073 1.349 . S
C1058 C1056 1.327 . S
C1058 C1077 1.429 . S
C1058 H1082 0.950 . S
C1059 C1076 1.574 . S
C1059 C1078 1.368 . S
C1059 H1083 0.949 . S
H1060 C1064 0.949 . S
C1061 C1062 1.349 . S
C1061 C1063 1.327 . S
C1061 H1084 0.950 . S
C1062 C1061 1.349 . S
C1062 C1074 1.349 . S
C1063 C1061 1.327 . S
C1063 C1079 1.429 . S
C1063 H1085 0.950 . S
C1064 H1060 0.949 . S
C1064 C1072 1.574 . S
C1064 C1080 1.368 . S
H1065 C1073 0.950 . S
H1066 C1071 0.950 . S
H1067 C1072 0.949 . S
H1068 C1074 0.950 1_655 S
H1069 C1075 0.950 . S
H1070 C1076 0.949 . S
C1071 H1066 0.950 . S
C1071 C1073 1.327 . S
C1071 C1077 1.429 . S
C1072 C1064 1.574 . S
C1072 H1067 0.949 . S
C1072 C1078 1.368 . S
C1073 C1057 1.349 . S
C1073 H1065 0.950 . S
C1073 C1071 1.327 . S
C1074 C1062 1.349 . S
C1074 H1068 0.950 1_455 S
C1074 C1075 1.327 . S
C1075 H1069 0.950 . S
C1075 C1074 1.327 . S
C1075 C1079 1.429 . S
C1076 C1059 1.574 . S
C1076 H1070 0.949 . S
C1076 C1080 1.368 . S
C1077 C1058 1.429 . S
C1077 C1071 1.429 . S
C1077 C1078 1.523 . S
C1078 C1059 1.368 . S
C1078 C1072 1.368 . S
C1078 C1077 1.523 . S
C1079 C1063 1.429 . S
C1079 C1075 1.429 . S
C1079 C1080 1.523 . S
C1080 C1064 1.368 . S
C1080 C1076 1.368 . S
C1080 C1079 1.523 . S
H1081 C1056 0.950 . S
H1082 C1058 0.950 . S
H1083 C1059 0.949 . S
H1084 C1061 0.950 . S
H1085 C1063 0.950 . S
C1086 C1087 1.349 . S
C1086 C1088 1.327 . S
C1086 H1111 0.950 . S
C1087 C1086 1.349 . S
C1087 C1103 1.349 . S
C1088 C1086 1.327 . S
C1088 C1107 1.429 . S
C1088 H1112 0.950 . S
C1089 C1106 1.574 . S
C1089 C1108 1.368 . S
C1089 H1113 0.949 . S
H1090 C1094 0.949 . S
C1091 C1092 1.349 . S
C1091 C1093 1.327 . S
C1091 H1114 0.950 . S
C1092 C1091 1.349 . S
C1092 C1104 1.349 . S
C1093 C1091 1.327 . S
C1093 C1109 1.429 . S
C1093 H1115 0.950 . S
C1094 H1090 0.949 . S
C1094 C1102 1.574 . S
C1094 C1110 1.368 . S
H1095 C1103 0.950 . S
H1096 C1101 0.950 . S
H1097 C1102 0.949 . S
H1098 C1104 0.950 . S
H1099 C1105 0.950 . S
H1100 C1106 0.949 . S
C1101 H1096 0.950 . S
C1101 C1103 1.327 . S
C1101 C1107 1.429 . S
C1102 C1094 1.574 . S
C1102 H1097 0.949 . S
C1102 C1108 1.368 . S
C1103 C1087 1.349 . S
C1103 H1095 0.950 . S
C1103 C1101 1.327 . S
C1104 C1092 1.349 . S
C1104 H1098 0.950 . S
C1104 C1105 1.327 . S
C1105 H1099 0.950 . S
C1105 C1104 1.327 . S
C1105 C1109 1.429 . S
C1106 C1089 1.574 . S
C1106 H1100 0.949 . S
C1106 C1110 1.368 . S
C1107 C1088 1.429 . S
C1107 C1101 1.429 . S
C1107 C1108 1.523 . S
C1108 C1089 1.368 . S
C1108 C1102 1.368 . S
C1108 C1107 1.523 . S
C1109 C1093 1.429 . S
C1109 C1105 1.429 . S
C1109 C1110 1.523 . S
C1110 C1094 1.368 . S
C1110 C1106 1.368 . S
C1110 C1109 1.523 . S
H1111 C1086 0.950 . S
H1112 C1088 0.950 . S
H1113 C1089 0.949 . S
H1114 C1091 0.950 . S
H1115 C1093 0.950 . S
C1116 C1117 1.349 . S
C1116 C1118 1.327 . S
C1116 H1141 0.950 . S
C1117 C1116 1.349 . S
C1117 C1133 1.349 . S
C1118 C1116 1.327 . S
C1118 C1137 1.429 . S
C1118 H1142 0.950 . S
C1119 C1136 1.574 . S
C1119 C1138 1.368 . S
C1119 H1143 0.949 . S
H1120 C1124 0.949 . S
C1121 C1122 1.349 . S
C1121 C1123 1.327 . S
C1121 H1144 0.950 . S
C1122 C1121 1.349 . S
C1122 C1134 1.349 . S
C1123 C1121 1.327 . S
C1123 C1139 1.429 . S
C1123 H1145 0.950 . S
C1124 H1120 0.949 . S
C1124 C1132 1.574 . S
C1124 C1140 1.368 . S
H1125 C1133 0.950 . S
H1126 C1131 0.950 . S
H1127 C1132 0.949 . S
H1128 C1134 0.950 . S
H1129 C1135 0.950 . S
H1130 C1136 0.949 . S
C1131 H1126 0.950 . S
C1131 C1133 1.327 . S
C1131 C1137 1.429 . S
C1132 C1124 1.574 . S
C1132 H1127 0.949 . S
C1132 C1138 1.368 . S
C1133 C1117 1.349 . S
C1133 H1125 0.950 . S
C1133 C1131 1.327 . S
C1134 C1122 1.349 . S
C1134 H1128 0.950 . S
C1134 C1135 1.327 . S
C1135 H1129 0.950 . S
C1135 C1134 1.327 . S
C1135 C1139 1.429 . S
C1136 C1119 1.574 . S
C1136 H1130 0.949 . S
C1136 C1140 1.368 . S
C1137 C1118 1.429 . S
C1137 C1131 1.429 . S
C1137 C1138 1.523 . S
C1138 C1119 1.368 . S
C1138 C1132 1.368 . S
C1138 C1137 1.523 . S
C1139 C1123 1.429 . S
C1139 C1135 1.429 . S
C1139 C1140 1.523 . S
C1140 C1124 1.368 . S
C1140 C1136 1.368 . S
C1140 C1139 1.523 . S
H1141 C1116 0.950 . S
H1142 C1118 0.950 . S
H1143 C1119 0.949 . S
H1144 C1121 0.950 . S
H1145 C1123 0.950 . S
C1146 C1147 1.349 . S
C1146 C1148 1.327 . S
C1146 H1171 0.950 . S
C1147 C1146 1.349 . S
C1147 C1163 1.349 . S
C1148 C1146 1.327 . S
C1148 C1167 1.429 . S
C1148 H1172 0.950 . S
C1149 C1166 1.574 . S
C1149 C1168 1.368 . S
C1149 H1173 0.949 . S
H1150 C1154 0.949 . S
C1151 C1152 1.349 . S
C1151 C1153 1.327 . S
C1151 H1174 0.950 . S
C1152 C1151 1.349 . S
C1152 C1164 1.349 . S
C1153 C1151 1.327 . S
C1153 C1169 1.429 . S
C1153 H1175 0.950 . S
C1154 H1150 0.949 . S
C1154 C1162 1.574 . S
C1154 C1170 1.368 . S
H1155 C1163 0.950 . S
H1156 C1161 0.950 . S
H1157 C1162 0.949 . S
H1158 C1164 0.950 . S
H1159 C1165 0.950 . S
H1160 C1166 0.949 . S
C1161 H1156 0.950 . S
C1161 C1163 1.327 . S
C1161 C1167 1.429 . S
C1162 C1154 1.574 . S
C1162 H1157 0.949 . S
C1162 C1168 1.368 . S
C1163 C1147 1.349 . S
C1163 H1155 0.950 . S
C1163 C1161 1.327 . S
C1164 C1152 1.349 . S
C1164 H1158 0.950 . S
C1164 C1165 1.327 . S
C1165 H1159 0.950 . S
C1165 C1164 1.327 . S
C1165 C1169 1.429 . S
C1166 C1149 1.574 . S
C1166 H1160 0.949 . S
C1166 C1170 1.368 . S
C1167 C1148 1.429 . S
C1167 C1161 1.429 . S
C1167 C1168 1.523 . S
C1168 C1149 1.368 . S
C1168 C1162 1.368 . S
C1168 C1167 1.523 . S
C1169 C1153 1.429 . S
C1169 C1165 1.429 . S
C1169 C1170 1.523 . S
C1170 C1154 1.368 . S
C1170 C1166 1.368 . S
C1170 C1169 1.523 . S
H1171 C1146 0.950 . S
H1172 C1148 0.950 . S
H1173 C1149 0.949 . S
H1174 C1151 0.950 . S
H1175 C1153 0.950 . S
C1176 C1177 1.349 . S
C1176 C1178 1.327 . S
C1176 H1201 0.950 . S
C1177 C1176 1.349 . S
C1177 C1193 1.349 . S
C1178 C1176 1.327 . S
C1178 C1197 1.429 . S
C1178 H1202 0.950 . S
C1179 C1196 1.574 . S
C1179 C1198 1.368 . S
C1179 H1203 0.949 . S
H1180 C1184 0.949 . S
C1181 C1182 1.349 . S
C1181 C1183 1.327 . S
C1181 H1204 0.950 . S
C1182 C1181 1.349 . S
C1182 C1194 1.349 1_455 S
C1183 C1181 1.327 . S
C1183 C1199 1.429 1_455 S
C1183 H1205 0.950 . S
C1184 H1180 0.949 . S
C1184 C1192 1.574 . S
C1184 C1200 1.368 . S
H1185 C1193 0.950 1_554 S
H1186 C1191 0.950 . S
H1187 C1192 0.949 . S
H1188 C1194 0.950 . S
H1189 C1195 0.950 . S
H1190 C1196 0.949 . S
C1191 H1186 0.950 . S
C1191 C1193 1.327 . S
C1191 C1197 1.429 . S
C1192 C1184 1.574 . S
C1192 H1187 0.949 . S
C1192 C1198 1.368 . S
C1193 C1177 1.349 . S
C1193 H1185 0.950 1_556 S
C1193 C1191 1.327 . S
C1194 C1182 1.349 1_655 S
C1194 H1188 0.950 . S
C1194 C1195 1.327 . S
C1195 H1189 0.950 . S
C1195 C1194 1.327 . S
C1195 C1199 1.429 . S
C1196 C1179 1.574 . S
C1196 H1190 0.949 . S
C1196 C1200 1.368 . S
C1197 C1178 1.429 . S
C1197 C1191 1.429 . S
C1197 C1198 1.523 . S
C1198 C1179 1.368 . S
C1198 C1192 1.368 . S
C1198 C1197 1.523 . S
C1199 C1183 1.429 1_655 S
C1199 C1195 1.429 . S
C1199 C1200 1.523 . S
C1200 C1184 1.368 . S
C1200 C1196 1.368 . S
C1200 C1199 1.523 . S
H1201 C1176 0.950 . S
H1202 C1178 0.950 . S
H1203 C1179 0.949 . S
H1204 C1181 0.950 . S
H1205 C1183 0.950 . S
C1206 C1207 1.349 . S
C1206 C1208 1.327 . S
C1206 H1231 0.950 . S
C1207 C1206 1.349 . S
C1207 C1223 1.349 . S
C1208 C1206 1.327 . S
C1208 C1227 1.429 . S
C1208 H1232 0.950 . S
C1209 C1226 1.574 . S
C1209 C1228 1.368 . S
C1209 H1233 0.949 . S
H1210 C1214 0.949 . S
C1211 C1212 1.349 . S
C1211 C1213 1.327 . S
C1211 H1234 0.950 . S
C1212 C1211 1.349 . S
C1212 C1224 1.349 1_545 S
C1213 C1211 1.327 . S
C1213 C1229 1.429 1_545 S
C1213 H1235 0.950 . S
C1214 H1210 0.949 . S
C1214 C1222 1.574 . S
C1214 C1230 1.368 . S
H1215 C1223 0.950 1_554 S
H1216 C1221 0.950 . S
H1217 C1222 0.949 . S
H1218 C1224 0.950 . S
H1219 C1225 0.950 . S
H1220 C1226 0.949 1_545 S
C1221 H1216 0.950 . S
C1221 C1223 1.327 . S
C1221 C1227 1.429 . S
C1222 C1214 1.574 . S
C1222 H1217 0.949 . S
C1222 C1228 1.368 . S
C1223 C1207 1.349 . S
C1223 H1215 0.950 1_556 S
C1223 C1221 1.327 . S
C1224 C1212 1.349 1_565 S
C1224 H1218 0.950 . S
C1224 C1225 1.327 . S
C1225 H1219 0.950 . S
C1225 C1224 1.327 . S
C1225 C1229 1.429 . S
C1226 C1209 1.574 . S
C1226 H1220 0.949 1_565 S
C1226 C1230 1.368 . S
C1227 C1208 1.429 . S
C1227 C1221 1.429 . S
C1227 C1228 1.523 . S
C1228 C1209 1.368 . S
C1228 C1222 1.368 . S
C1228 C1227 1.523 . S
C1229 C1213 1.429 1_565 S
C1229 C1225 1.429 . S
C1229 C1230 1.523 . S
C1230 C1214 1.368 . S
C1230 C1226 1.368 . S
C1230 C1229 1.523 . S
H1231 C1206 0.950 . S
H1232 C1208 0.950 . S
H1233 C1209 0.949 . S
H1234 C1211 0.950 . S
H1235 C1213 0.950 . S
C1236 C1237 1.349 . S
C1236 C1238 1.327 . S
C1236 H1261 0.950 . S
C1237 C1236 1.349 . S
C1237 C1253 1.349 . S
C1238 C1236 1.327 . S
C1238 C1257 1.429 . S
C1238 H1262 0.950 . S
C1239 C1256 1.574 . S
C1239 C1258 1.368 . S
C1239 H1263 0.949 . S
H1240 C1244 0.949 . S
C1241 C1242 1.349 . S
C1241 C1243 1.327 . S
C1241 H1264 0.950 . S
C1242 C1241 1.349 . S
C1242 C1254 1.349 . S
C1243 C1241 1.327 . S
C1243 C1259 1.429 . S
C1243 H1265 0.950 . S
C1244 H1240 0.949 . S
C1244 C1252 1.574 . S
C1244 C1260 1.368 . S
H1245 C1253 0.950 1_554 S
H1246 C1251 0.950 . S
H1247 C1252 0.949 . S
H1248 C1254 0.950 . S
H1249 C1255 0.950 . S
H1250 C1256 0.949 . S
C1251 H1246 0.950 . S
C1251 C1253 1.327 . S
C1251 C1257 1.429 . S
C1252 C1244 1.574 . S
C1252 H1247 0.949 . S
C1252 C1258 1.368 . S
C1253 C1237 1.349 . S
C1253 H1245 0.950 1_556 S
C1253 C1251 1.327 . S
C1254 C1242 1.349 . S
C1254 H1248 0.950 . S
C1254 C1255 1.327 . S
C1255 H1249 0.950 . S
C1255 C1254 1.327 . S
C1255 C1259 1.429 . S
C1256 C1239 1.574 . S
C1256 H1250 0.949 . S
C1256 C1260 1.368 . S
C1257 C1238 1.429 . S
C1257 C1251 1.429 . S
C1257 C1258 1.523 . S
C1258 C1239 1.368 . S
C1258 C1252 1.368 . S
C1258 C1257 1.523 . S
C1259 C1243 1.429 . S
C1259 C1255 1.429 . S
C1259 C1260 1.523 . S
C1260 C1244 1.368 . S
C1260 C1256 1.368 . S
C1260 C1259 1.523 . S
H1261 C1236 0.950 . S
H1262 C1238 0.950 . S
H1263 C1239 0.949 . S
H1264 C1241 0.950 . S
H1265 C1243 0.950 . S
C1266 C1267 1.349 . S
C1266 C1268 1.327 . S
C1266 H1291 0.950 1_556 S
C1267 C1266 1.349 . S
C1267 C1283 1.349 . S
C1268 C1266 1.327 . S
C1268 C1287 1.429 . S
C1268 H1292 0.950 . S
C1269 C1286 1.574 . S
C1269 C1288 1.368 . S
C1269 H1293 0.949 . S
H1270 C1274 0.949 . S
C1271 C1272 1.349 . S
C1271 C1273 1.327 . S
C1271 H1294 0.950 . S
C1272 C1271 1.349 . S
C1272 C1284 1.349 . S
C1273 C1271 1.327 . S
C1273 C1289 1.429 . S
C1273 H1295 0.950 . S
C1274 H1270 0.949 . S
C1274 C1282 1.574 . S
C1274 C1290 1.368 . S
H1275 C1283 0.950 . S
H1276 C1281 0.950 . S
H1277 C1282 0.949 . S
H1278 C1284 0.950 . S
H1279 C1285 0.950 . S
H1280 C1286 0.949 . S
C1281 H1276 0.950 . S
C1281 C1283 1.327 . S
C1281 C1287 1.429 . S
C1282 C1274 1.574 . S
C1282 H1277 0.949 . S
C1282 C1288 1.368 . S
C1283 C1267 1.349 . S
C1283 H1275 0.950 . S
C1283 C1281 1.327 . S
C1284 C1272 1.349 . S
C1284 H1278 0.950 . S
C1284 C1285 1.327 . S
C1285 H1279 0.950 . S
C1285 C1284 1.327 . S
C1285 C1289 1.429 . S
C1286 C1269 1.574 . S
C1286 H1280 0.949 . S
C1286 C1290 1.368 . S
C1287 C1268 1.429 . S
C1287 C1281 1.429 . S
C1287 C1288 1.523 . S
C1288 C1269 1.368 . S
C1288 C1282 1.368 . S
C1288 C1287 1.523 . S
C1289 C1273 1.429 . S
C1289 C1285 1.429 . S
C1289 C1290 1.523 . S
C1290 C1274 1.368 . S
C1290 C1286 1.368 . S
C1290 C1289 1.523 . S
H1291 C1266 0.950 1_554 S
H1292 C1268 0.950 . S
H1293 C1269 0.949 . S
H1294 C1271 0.950 . S
H1295 C1273 0.950 . S
C1296 C1297 1.349 . S
C1296 C1298 1.327 . S
C1296 H1321 0.950 . S
C1297 C1296 1.349 . S
C1297 C1313 1.349 . S
C1298 C1296 1.327 . S
C1298 C1317 1.429 . S
C1298 H1322 0.950 . S
C1299 C1316 1.574 . S
C1299 C1318 1.368 . S
C1299 H1323 0.949 . S
H1300 C1304 0.949 . S
C1301 C1302 1.349 . S
C1301 C1303 1.327 . S
C1301 H1324 0.950 . S
C1302 C1301 1.349 . S
C1302 C1314 1.349 . S
C1303 C1301 1.327 . S
C1303 C1319 1.429 . S
C1303 H1325 0.950 . S
C1304 H1300 0.949 . S
C1304 C1312 1.574 . S
C1304 C1320 1.368 . S
H1305 C1313 0.950 . S
H1306 C1311 0.950 . S
H1307 C1312 0.949 . S
H1308 C1314 0.950 . S
H1309 C1315 0.950 . S
H1310 C1316 0.949 . S
C1311 H1306 0.950 . S
C1311 C1313 1.327 . S
C1311 C1317 1.429 . S
C1312 C1304 1.574 . S
C1312 H1307 0.949 . S
C1312 C1318 1.368 . S
C1313 C1297 1.349 . S
C1313 H1305 0.950 . S
C1313 C1311 1.327 . S
C1314 C1302 1.349 . S
C1314 H1308 0.950 . S
C1314 C1315 1.327 . S
C1315 H1309 0.950 . S
C1315 C1314 1.327 . S
C1315 C1319 1.429 . S
C1316 C1299 1.574 . S
C1316 H1310 0.949 . S
C1316 C1320 1.368 . S
C1317 C1298 1.429 . S
C1317 C1311 1.429 . S
C1317 C1318 1.523 . S
C1318 C1299 1.368 . S
C1318 C1312 1.368 . S
C1318 C1317 1.523 . S
C1319 C1303 1.429 . S
C1319 C1315 1.429 . S
C1319 C1320 1.523 . S
C1320 C1304 1.368 . S
C1320 C1316 1.368 . S
C1320 C1319 1.523 . S
H1321 C1296 0.950 . S
H1322 C1298 0.950 . S
H1323 C1299 0.949 . S
H1324 C1301 0.950 . S
H1325 C1303 0.950 . S
C1326 C1327 1.349 . S
C1326 C1328 1.327 . S
C1326 H1351 0.950 . S
C1327 C1326 1.349 . S
C1327 C1343 1.349 . S
C1328 C1326 1.327 . S
C1328 C1347 1.429 . S
C1328 H1352 0.950 . S
C1329 C1346 1.574 . S
C1329 C1348 1.368 . S
C1329 H1353 0.949 . S
H1330 C1334 0.949 . S
C1331 C1332 1.349 . S
C1331 C1333 1.327 . S
C1331 H1354 0.950 . S
C1332 C1331 1.349 . S
C1332 C1344 1.349 . S
C1333 C1331 1.327 . S
C1333 C1349 1.429 . S
C1333 H1355 0.950 . S
C1334 H1330 0.949 . S
C1334 C1342 1.574 . S
C1334 C1350 1.368 . S
H1335 C1343 0.950 . S
H1336 C1341 0.950 . S
H1337 C1342 0.949 . S
H1338 C1344 0.950 . S
H1339 C1345 0.950 . S
H1340 C1346 0.949 . S
C1341 H1336 0.950 . S
C1341 C1343 1.327 . S
C1341 C1347 1.429 . S
C1342 C1334 1.574 . S
C1342 H1337 0.949 . S
C1342 C1348 1.368 . S
C1343 C1327 1.349 . S
C1343 H1335 0.950 . S
C1343 C1341 1.327 . S
C1344 C1332 1.349 . S
C1344 H1338 0.950 . S
C1344 C1345 1.327 . S
C1345 H1339 0.950 . S
C1345 C1344 1.327 . S
C1345 C1349 1.429 . S
C1346 C1329 1.574 . S
C1346 H1340 0.949 . S
C1346 C1350 1.368 . S
C1347 C1328 1.429 . S
C1347 C1341 1.429 . S
C1347 C1348 1.523 . S
C1348 C1329 1.368 . S
C1348 C1342 1.368 . S
C1348 C1347 1.523 . S
C1349 C1333 1.429 . S
C1349 C1345 1.429 . S
C1349 C1350 1.523 . S
C1350 C1334 1.368 . S
C1350 C1346 1.368 . S
C1350 C1349 1.523 . S
H1351 C1326 0.950 . S
H1352 C1328 0.950 . S
H1353 C1329 0.949 . S
H1354 C1331 0.950 . S
H1355 C1333 0.950 . S
C1356 C1357 1.349 . S
C1356 C1358 1.327 . S
C1356 H1381 0.950 . S
C1357 C1356 1.349 . S
C1357 C1373 1.349 . S
C1358 C1356 1.327 . S
C1358 C1377 1.429 . S
C1358 H1382 0.950 . S
C1359 C1376 1.574 . S
C1359 C1378 1.368 . S
C1359 H1383 0.949 . S
H1360 C1364 0.949 . S
C1361 C1362 1.349 . S
C1361 C1363 1.327 . S
C1361 H1384 0.950 . S
C1362 C1361 1.349 . S
C1362 C1374 1.349 . S
C1363 C1361 1.327 . S
C1363 C1379 1.429 . S
C1363 H1385 0.950 . S
C1364 H1360 0.949 . S
C1364 C1372 1.574 . S
C1364 C1380 1.368 . S
H1365 C1373 0.950 . S
H1366 C1371 0.950 . S
H1367 C1372 0.949 . S
H1368 C1374 0.950 . S
H1369 C1375 0.950 . S
H1370 C1376 0.949 . S
C1371 H1366 0.950 . S
C1371 C1373 1.327 . S
C1371 C1377 1.429 . S
C1372 C1364 1.574 . S
C1372 H1367 0.949 . S
C1372 C1378 1.368 . S
C1373 C1357 1.349 . S
C1373 H1365 0.950 . S
C1373 C1371 1.327 . S
C1374 C1362 1.349 . S
C1374 H1368 0.950 . S
C1374 C1375 1.327 . S
C1375 H1369 0.950 . S
C1375 C1374 1.327 . S
C1375 C1379 1.429 . S
C1376 C1359 1.574 . S
C1376 H1370 0.949 . S
C1376 C1380 1.368 . S
C1377 C1358 1.429 . S
C1377 C1371 1.429 . S
C1377 C1378 1.523 . S
C1378 C1359 1.368 . S
C1378 C1372 1.368 . S
C1378 C1377 1.523 . S
C1379 C1363 1.429 . S
C1379 C1375 1.429 . S
C1379 C1380 1.523 . S
C1380 C1364 1.368 . S
C1380 C1376 1.368 . S
C1380 C1379 1.523 . S
H1381 C1356 0.950 . S
H1382 C1358 0.950 . S
H1383 C1359 0.949 . S
H1384 C1361 0.950 . S
H1385 C1363 0.950 . S
C1386 C1387 1.349 . S
C1386 C1388 1.327 . S
C1386 H1411 0.950 . S
C1387 C1386 1.349 . S
C1387 C1403 1.349 . S
C1388 C1386 1.327 . S
C1388 C1407 1.429 . S
C1388 H1412 0.950 . S
C1389 C1406 1.574 . S
C1389 C1408 1.368 . S
C1389 H1413 0.949 . S
H1390 C1394 0.949 . S
C1391 C1392 1.349 . S
C1391 C1393 1.327 . S
C1391 H1414 0.950 . S
C1392 C1391 1.349 . S
C1392 C1404 1.349 . S
C1393 C1391 1.327 . S
C1393 C1409 1.429 . S
C1393 H1415 0.950 . S
C1394 H1390 0.949 . S
C1394 C1402 1.574 . S
C1394 C1410 1.368 . S
H1395 C1403 0.950 . S
H1396 C1401 0.950 . S
H1397 C1402 0.949 . S
H1398 C1404 0.950 . S
H1399 C1405 0.950 . S
H1400 C1406 0.949 . S
C1401 H1396 0.950 . S
C1401 C1403 1.327 . S
C1401 C1407 1.429 . S
C1402 C1394 1.574 . S
C1402 H1397 0.949 . S
C1402 C1408 1.368 . S
C1403 C1387 1.349 . S
C1403 H1395 0.950 . S
C1403 C1401 1.327 . S
C1404 C1392 1.349 . S
C1404 H1398 0.950 . S
C1404 C1405 1.327 . S
C1405 H1399 0.950 . S
C1405 C1404 1.327 . S
C1405 C1409 1.429 . S
C1406 C1389 1.574 . S
C1406 H1400 0.949 . S
C1406 C1410 1.368 . S
C1407 C1388 1.429 . S
C1407 C1401 1.429 . S
C1407 C1408 1.523 . S
C1408 C1389 1.368 . S
C1408 C1402 1.368 . S
C1408 C1407 1.523 . S
C1409 C1393 1.429 . S
C1409 C1405 1.429 . S
C1409 C1410 1.523 . S
C1410 C1394 1.368 . S
C1410 C1406 1.368 . S
C1410 C1409 1.523 . S
H1411 C1386 0.950 . S
H1412 C1388 0.950 . S
H1413 C1389 0.949 . S
H1414 C1391 0.950 . S
H1415 C1393 0.950 . S
C1416 C1417 1.349 . S
C1416 C1418 1.327 . S
C1416 H1441 0.950 . S
C1417 C1416 1.349 . S
C1417 C1433 1.349 . S
C1418 C1416 1.327 . S
C1418 C1437 1.429 . S
C1418 H1442 0.950 . S
C1419 C1436 1.574 . S
C1419 C1438 1.368 . S
C1419 H1443 0.949 . S
H1420 C1424 0.949 . S
C1421 C1422 1.349 . S
C1421 C1423 1.327 . S
C1421 H1444 0.950 . S
C1422 C1421 1.349 . S
C1422 C1434 1.349 . S
C1423 C1421 1.327 . S
C1423 C1439 1.429 . S
C1423 H1445 0.950 . S
C1424 H1420 0.949 . S
C1424 C1432 1.574 . S
C1424 C1440 1.368 . S
H1425 C1433 0.950 . S
H1426 C1431 0.950 . S
H1427 C1432 0.949 . S
H1428 C1434 0.950 . S
H1429 C1435 0.950 . S
H1430 C1436 0.949 . S
C1431 H1426 0.950 . S
C1431 C1433 1.327 . S
C1431 C1437 1.429 . S
C1432 C1424 1.574 . S
C1432 H1427 0.949 . S
C1432 C1438 1.368 . S
C1433 C1417 1.349 . S
C1433 H1425 0.950 . S
C1433 C1431 1.327 . S
C1434 C1422 1.349 . S
C1434 H1428 0.950 . S
C1434 C1435 1.327 . S
C1435 H1429 0.950 . S
C1435 C1434 1.327 . S
C1435 C1439 1.429 . S
C1436 C1419 1.574 . S
C1436 H1430 0.949 . S
C1436 C1440 1.368 . S
C1437 C1418 1.429 . S
C1437 C1431 1.429 . S
C1437 C1438 1.523 . S
C1438 C1419 1.368 . S
C1438 C1432 1.368 . S
C1438 C1437 1.523 . S
C1439 C1423 1.429 . S
C1439 C1435 1.429 . S
C1439 C1440 1.523 . S
C1440 C1424 1.368 . S
C1440 C1436 1.368 . S
C1440 C1439 1.523 . S
H1441 C1416 0.950 . S
H1442 C1418 0.950 . S
H1443 C1419 0.949 . S
H1444 C1421 0.950 . S
H1445 C1423 0.950 . S
C1446 C1447 1.349 . S
C1446 C1448 1.327 . S
C1446 H1471 0.950 . S
C1447 C1446 1.349 . S
C1447 C1463 1.349 . S
C1448 C1446 1.327 . S
C1448 C1467 1.429 . S
C1448 H1472 0.950 . S
C1449 C1466 1.574 . S
C1449 C1468 1.368 . S
C1449 H1473 0.949 . S
H1450 C1454 0.949 . S
C1451 C1452 1.349 . S
C1451 C1453 1.327 . S
C1451 H1474 0.950 . S
C1452 C1451 1.349 . S
C1452 C1464 1.349 . S
C1453 C1451 1.327 . S
C1453 C1469 1.429 . S
C1453 H1475 0.950 . S
C1454 H1450 0.949 . S
C1454 C1462 1.574 . S
C1454 C1470 1.368 . S
H1455 C1463 0.950 . S
H1456 C1461 0.950 . S
H1457 C1462 0.949 . S
H1458 C1464 0.950 . S
H1459 C1465 0.950 . S
H1460 C1466 0.949 . S
C1461 H1456 0.950 . S
C1461 C1463 1.327 . S
C1461 C1467 1.429 . S
C1462 C1454 1.574 . S
C1462 H1457 0.949 . S
C1462 C1468 1.368 . S
C1463 C1447 1.349 . S
C1463 H1455 0.950 . S
C1463 C1461 1.327 . S
C1464 C1452 1.349 . S
C1464 H1458 0.950 . S
C1464 C1465 1.327 . S
C1465 H1459 0.950 . S
C1465 C1464 1.327 . S
C1465 C1469 1.429 . S
C1466 C1449 1.574 . S
C1466 H1460 0.949 . S
C1466 C1470 1.368 . S
C1467 C1448 1.429 . S
C1467 C1461 1.429 . S
C1467 C1468 1.523 . S
C1468 C1449 1.368 . S
C1468 C1462 1.368 . S
C1468 C1467 1.523 . S
C1469 C1453 1.429 . S
C1469 C1465 1.429 . S
C1469 C1470 1.523 . S
C1470 C1454 1.368 . S
C1470 C1466 1.368 . S
C1470 C1469 1.523 . S
H1471 C1446 0.950 . S
H1472 C1448 0.950 . S
H1473 C1449 0.949 . S
H1474 C1451 0.950 . S
H1475 C1453 0.950 . S
C1476 C1477 1.349 . S
C1476 C1478 1.327 . S
C1476 H1501 0.950 . S
C1477 C1476 1.349 . S
C1477 C1493 1.349 . S
C1478 C1476 1.327 . S
C1478 C1497 1.429 . S
C1478 H1502 0.950 . S
C1479 C1496 1.574 . S
C1479 C1498 1.368 . S
C1479 H1503 0.949 . S
H1480 C1484 0.949 . S
C1481 C1482 1.349 . S
C1481 C1483 1.327 . S
C1481 H1504 0.950 . S
C1482 C1481 1.349 . S
C1482 C1494 1.349 . S
C1483 C1481 1.327 . S
C1483 C1499 1.429 . S
C1483 H1505 0.950 . S
C1484 H1480 0.949 . S
C1484 C1492 1.574 . S
C1484 C1500 1.368 . S
H1485 C1493 0.950 . S
H1486 C1491 0.950 . S
H1487 C1492 0.949 . S
H1488 C1494 0.950 . S
H1489 C1495 0.950 . S
H1490 C1496 0.949 . S
C1491 H1486 0.950 . S
C1491 C1493 1.327 . S
C1491 C1497 1.429 . S
C1492 C1484 1.574 . S
C1492 H1487 0.949 . S
C1492 C1498 1.368 . S
C1493 C1477 1.349 . S
C1493 H1485 0.950 . S
C1493 C1491 1.327 . S
C1494 C1482 1.349 . S
C1494 H1488 0.950 . S
C1494 C1495 1.327 . S
C1495 H1489 0.950 . S
C1495 C1494 1.327 . S
C1495 C1499 1.429 . S
C1496 C1479 1.574 . S
C1496 H1490 0.949 . S
C1496 C1500 1.368 . S
C1497 C1478 1.429 . S
C1497 C1491 1.429 . S
C1497 C1498 1.523 . S
C1498 C1479 1.368 . S
C1498 C1492 1.368 . S
C1498 C1497 1.523 . S
C1499 C1483 1.429 . S
C1499 C1495 1.429 . S
C1499 C1500 1.523 . S
C1500 C1484 1.368 . S
C1500 C1496 1.368 . S
C1500 C1499 1.523 . S
H1501 C1476 0.950 . S
H1502 C1478 0.950 . S
H1503 C1479 0.949 . S
H1504 C1481 0.950 . S
H1505 C1483 0.950 . S
C1506 C1507 1.349 . S
C1506 C1508 1.327 . S
C1506 H1531 0.950 . S
C1507 C1506 1.349 . S
C1507 C1523 1.349 . S
C1508 C1506 1.327 . S
C1508 C1527 1.429 . S
C1508 H1532 0.950 . S
C1509 C1526 1.574 . S
C1509 C1528 1.368 . S
C1509 H1533 0.949 . S
H1510 C1514 0.949 . S
C1511 C1512 1.349 . S
C1511 C1513 1.327 . S
C1511 H1534 0.950 . S
C1512 C1511 1.349 . S
C1512 C1524 1.349 . S
C1513 C1511 1.327 . S
C1513 C1529 1.429 . S
C1513 H1535 0.950 . S
C1514 H1510 0.949 . S
C1514 C1522 1.574 . S
C1514 C1530 1.368 . S
H1515 C1523 0.950 . S
H1516 C1521 0.950 . S
H1517 C1522 0.949 . S
H1518 C1524 0.950 . S
H1519 C1525 0.950 . S
H1520 C1526 0.949 . S
C1521 H1516 0.950 . S
C1521 C1523 1.327 . S
C1521 C1527 1.429 . S
C1522 C1514 1.574 . S
C1522 H1517 0.949 . S
C1522 C1528 1.368 . S
C1523 C1507 1.349 . S
C1523 H1515 0.950 . S
C1523 C1521 1.327 . S
C1524 C1512 1.349 . S
C1524 H1518 0.950 . S
C1524 C1525 1.327 . S
C1525 H1519 0.950 . S
C1525 C1524 1.327 . S
C1525 C1529 1.429 . S
C1526 C1509 1.574 . S
C1526 H1520 0.949 . S
C1526 C1530 1.368 . S
C1527 C1508 1.429 . S
C1527 C1521 1.429 . S
C1527 C1528 1.523 . S
C1528 C1509 1.368 . S
C1528 C1522 1.368 . S
C1528 C1527 1.523 . S
C1529 C1513 1.429 . S
C1529 C1525 1.429 . S
C1529 C1530 1.523 . S
C1530 C1514 1.368 . S
C1530 C1526 1.368 . S
C1530 C1529 1.523 . S
H1531 C1506 0.950 . S
H1532 C1508 0.950 . S
H1533 C1509 0.949 . S
H1534 C1511 0.950 . S
H1535 C1513 0.950 . S
C817 C391 2.162 . S
C822 C554 2.112 . S
C852 C638 2.148 . S
C847 C451 2.195 . S
C882 C704 2.124 . S
C877 C241 2.057 . S
C912 C788 2.100 . S
C907 C331 2.032 . S
C942 C543 2.112 1_565 S
C937 C121 1.953 . S
C967 C211 2.134 . S
C972 C627 2.148 . S
C997 C31 2.269 . S
C1002 C715 2.124 . S
C1027 C91 2.100 . S
C1032 C799 2.100 . S
C1062 C550 0.426 1_455 S
C1057 C301 0.581 . S
C1092 C634 0.399 1_545 S
C1087 C380 0.322 . S
C1122 C706 0.441 . S
C1117 C440 0.291 . S
C1147 C260 0.595 . S
C1152 C790 0.449 . S
C1177 C61 0.474 . S
C1182 C538 0.426 . S
C1212 C622 0.399 . S
C1207 C140 0.446 . S
C1242 C718 0.441 . S
C1237 C200 0.480 . S
C1267 C20 0.498 . S
C1272 C802 0.449 . S
C1297 C320 2.690 . S
C1302 C547 2.715 . S
C1327 C361 2.386 . S
C1332 C631 2.665 . S
C1362 C711 2.661 . S
C1357 C421 2.260 . S
C1392 C795 2.703 . S
C1387 C271 2.544 . S
C1417 C80 2.746 . S
C1422 C536 2.715 . S
C1452 C620 2.665 . S
C1447 C151 2.695 . S
C1482 C722 2.661 . S
C1477 C181 2.196 . S
C1507 C1 2.234 . S
C1512 C806 2.703 . S
