# Generated by pormake.
# Topology apo, (3,6)-cn, num edge types: 1
# Building blocks:
#     Node 0, Type 0, BuildingBlock: BETDAH_clean_linker_0, # of connection points: 3
#     Node 1, Type 0, BuildingBlock: BETDAH_clean_linker_0, # of connection points: 3
#     Node 2, Type 0, BuildingBlock: BETDAH_clean_linker_0, # of connection points: 3
#     Node 3, Type 0, BuildingBlock: BETDAH_clean_linker_0, # of connection points: 3
#     Node 4, Type 0, BuildingBlock: BETDAH_clean_linker_0, # of connection points: 3
#     Node 5, Type 0, BuildingBlock: BETDAH_clean_linker_0, # of connection points: 3
#     Node 6, Type 0, BuildingBlock: BETDAH_clean_linker_0, # of connection points: 3
#     Node 7, Type 0, BuildingBlock: BETDAH_clean_linker_0, # of connection points: 3
#     Node 8, Type 1, BuildingBlock: MIDCAF_clean_sbu_0, # of connection points: 6
#     Node 9, Type 1, BuildingBlock: MIDCAF_clean_sbu_0, # of connection points: 6
#     Node 10, Type 1, BuildingBlock: MIDCAF_clean_sbu_0, # of connection points: 6
#     Node 11, Type 1, BuildingBlock: MIDCAF_clean_sbu_0, # of connection points: 6
#     Edge 12, Type (0, 1), BuildingBlock: CIFDUS_clean_linker_0, # of connection points: 2
#     Edge 13, Type (0, 1), BuildingBlock: CIFDUS_clean_linker_0, # of connection points: 2
#     Edge 14, Type (0, 1), BuildingBlock: CIFDUS_clean_linker_0, # of connection points: 2
#     Edge 15, Type (0, 1), BuildingBlock: CIFDUS_clean_linker_0, # of connection points: 2
#     Edge 16, Type (0, 1), BuildingBlock: CIFDUS_clean_linker_0, # of connection points: 2
#     Edge 17, Type (0, 1), BuildingBlock: CIFDUS_clean_linker_0, # of connection points: 2
#     Edge 18, Type (0, 1), BuildingBlock: CIFDUS_clean_linker_0, # of connection points: 2
#     Edge 19, Type (0, 1), BuildingBlock: CIFDUS_clean_linker_0, # of connection points: 2
#     Edge 20, Type (0, 1), BuildingBlock: CIFDUS_clean_linker_0, # of connection points: 2
#     Edge 21, Type (0, 1), BuildingBlock: CIFDUS_clean_linker_0, # of connection points: 2
#     Edge 22, Type (0, 1), BuildingBlock: CIFDUS_clean_linker_0, # of connection points: 2
#     Edge 23, Type (0, 1), BuildingBlock: CIFDUS_clean_linker_0, # of connection points: 2
#     Edge 24, Type (0, 1), BuildingBlock: CIFDUS_clean_linker_0, # of connection points: 2
#     Edge 25, Type (0, 1), BuildingBlock: CIFDUS_clean_linker_0, # of connection points: 2
#     Edge 26, Type (0, 1), BuildingBlock: CIFDUS_clean_linker_0, # of connection points: 2
#     Edge 27, Type (0, 1), BuildingBlock: CIFDUS_clean_linker_0, # of connection points: 2
#     Edge 28, Type (0, 1), BuildingBlock: CIFDUS_clean_linker_0, # of connection points: 2
#     Edge 29, Type (0, 1), BuildingBlock: CIFDUS_clean_linker_0, # of connection points: 2
#     Edge 30, Type (0, 1), BuildingBlock: CIFDUS_clean_linker_0, # of connection points: 2
#     Edge 31, Type (0, 1), BuildingBlock: CIFDUS_clean_linker_0, # of connection points: 2
#     Edge 32, Type (0, 1), BuildingBlock: CIFDUS_clean_linker_0, # of connection points: 2
#     Edge 33, Type (0, 1), BuildingBlock: CIFDUS_clean_linker_0, # of connection points: 2
#     Edge 34, Type (0, 1), BuildingBlock: CIFDUS_clean_linker_0, # of connection points: 2
#     Edge 35, Type (0, 1), BuildingBlock: CIFDUS_clean_linker_0, # of connection points: 2
# Relax obj value: 0.013
# Max RMSD: 0.063
# Mean RMSD: 0.052
data_MOF--net-apo--node1-MIDCAF_clean_sbu_0--node2-BETDAH_clean_linker_0--edge1-CIFDUS_clean_linker_0
_symmetry_space_group_name_H-M    P1
_symmetry_Int_Tables_number       1
_symmetry_cell_setting            triclinic
loop_
_symmetry_equiv_pos_as_xyz
'x, y, z'
_cell_length_a     32.077117
_cell_length_b     36.420977
_cell_length_c     29.951183
_cell_angle_alpha  88.892056
_cell_angle_beta   89.927081
_cell_angle_gamma 90.191811
loop_
_atom_site_label
_atom_site_type_symbol
_atom_site_fract_x
_atom_site_fract_y
_atom_site_fract_z
_atom_type_partial_charge
H0 H 0.42831 0.38538 0.43451 0.0
H1 H 0.34928 0.34077 0.33266 0.0
H2 H 0.32529 0.31581 0.47147 0.0
C3 C 0.40253 0.36795 0.42482 0.0
C4 C 0.37866 0.35045 0.45833 0.0
C5 C 0.39242 0.36479 0.37934 0.0
C6 C 0.35803 0.34289 0.36743 0.0
C7 C 0.33399 0.32499 0.40079 0.0
C8 C 0.34453 0.32888 0.44593 0.0
N9 N 0.29729 0.30493 0.39079 0.0
C10 C 0.28795 0.28911 0.35009 0.0
H11 H 0.11354 0.11241 0.91246 0.0
H12 H 0.12757 0.16259 0.78216 0.0
H13 H 0.18744 0.21043 0.89589 0.0
C14 C 0.12593 0.13417 0.89103 0.0
C15 C 0.15089 0.16159 0.90981 0.0
C16 C 0.11726 0.13409 0.84511 0.0
C17 C 0.13381 0.16221 0.81772 0.0
C18 C 0.15968 0.18928 0.83555 0.0
C19 C 0.16797 0.18922 0.88184 0.0
N20 N 0.17721 0.21599 0.80597 0.0
C21 C 0.21856 0.227 0.8088 0.0
H22 H 0.92323 0.12104 0.57606 0.0
H23 H 0.86316 0.15855 0.69543 0.0
H24 H 0.88525 0.23383 0.58548 0.0
C25 C 0.90856 0.14281 0.59457 0.0
C26 C 0.90475 0.17796 0.57492 0.0
C27 C 0.89423 0.13573 0.63826 0.0
C28 C 0.87442 0.16379 0.66176 0.0
C29 C 0.87142 0.19926 0.6428 0.0
C30 C 0.88737 0.20635 0.59985 0.0
N31 N 0.85439 0.22861 0.66718 0.0
C32 C 0.8161 0.22613 0.68883 0.0
H33 H 0.63033 0.38138 0.08203 0.0
H34 H 0.65501 0.36077 0.22145 0.0
H35 H 0.71274 0.2941 0.1217 0.0
C36 C 0.64631 0.36621 0.10835 0.0
C37 C 0.67289 0.33743 0.09669 0.0
C38 C 0.63976 0.37537 0.15311 0.0
C39 C 0.65907 0.35404 0.18664 0.0
C40 C 0.68567 0.32508 0.17579 0.0
C41 C 0.69256 0.31662 0.13053 0.0
N42 N 0.70508 0.30534 0.21137 0.0
C43 C 0.74333 0.28798 0.20749 0.0
H44 H 0.59283 0.61602 0.59591 0.0
H45 H 0.69198 0.63007 0.69168 0.0
H46 H 0.70099 0.67968 0.56086 0.0
C47 C 0.62223 0.62808 0.60582 0.0
C48 C 0.64387 0.65019 0.5746 0.0
C49 C 0.63949 0.6196 0.64804 0.0
C50 C 0.67814 0.63551 0.65928 0.0
C51 C 0.70038 0.65685 0.62774 0.0
C52 C 0.68354 0.66347 0.58523 0.0
N53 N 0.74118 0.66954 0.63682 0.0
C54 C 0.7516 0.68836 0.67516 0.0
H55 H 0.88337 0.88544 0.08744 0.0
H56 H 0.83581 0.77551 0.10797 0.0
H57 H 0.86212 0.84355 0.22055 0.0
C58 C 0.87281 0.86337 0.10958 0.0
C59 C 0.87421 0.86829 0.15579 0.0
C60 C 0.85902 0.83005 0.09174 0.0
C61 C 0.84612 0.80153 0.12108 0.0
C62 C 0.84683 0.8066 0.16757 0.0
C63 C 0.86125 0.83984 0.18474 0.0
N64 N 0.83476 0.77789 0.19742 0.0
C65 C 0.793 0.77045 0.20607 0.0
H66 H 0.1064 0.87428 0.45619 0.0
H67 H 0.11633 0.82706 0.32606 0.0
H68 H 0.16405 0.76874 0.44115 0.0
C69 C 0.11649 0.85226 0.43492 0.0
C70 C 0.13585 0.82134 0.45434 0.0
C71 C 0.10907 0.85472 0.38876 0.0
C72 C 0.12213 0.82594 0.3617 0.0
C73 C 0.14291 0.79555 0.38019 0.0
C74 C 0.1494 0.79294 0.42667 0.0
N75 N 0.15523 0.76713 0.35151 0.0
C76 C 0.19649 0.75626 0.34786 0.0
H77 H 0.37345 0.60927 0.95955 0.0
H78 H 0.31913 0.70779 0.90325 0.0
H79 H 0.35866 0.62072 0.81769 0.0
C80 C 0.3622 0.62501 0.93093 0.0
C81 C 0.36741 0.61078 0.8882 0.0
C82 C 0.34532 0.66014 0.93689 0.0
C83 C 0.3319 0.68057 0.8991 0.0
C84 C 0.33625 0.66603 0.85593 0.0
C85 C 0.3549 0.63164 0.85087 0.0
N86 N 0.32325 0.68531 0.81669 0.0
C87 C 0.294 0.71336 0.81591 0.0
Zn88 Zn 0.07575 0.12282 0.31332 0.0
Zn89 Zn 0.99674 0.12727 0.17378 0.0
Zn90 Zn 0.03253 0.12753 0.24253 0.0
C91 C 0.07311 0.14822 0.14833 0.0
C92 C 0.98471 0.05847 0.20116 0.0
O93 O 0.99287 0.15157 0.29571 0.0
O94 O 0.03725 0.14988 0.35217 0.0
C95 C 0.12448 0.16428 0.2569 0.0
O96 O 0.0727 0.15517 0.19039 0.0
O97 O 0.04414 0.12942 0.1318 0.0
O98 O 0.96416 0.08127 0.17805 0.0
O99 O 0.01623 0.06971 0.22401 0.0
O100 O 0.12702 0.14783 0.29419 0.0
O101 O 0.09146 0.1606 0.23271 0.0
O102 O 0.04472 0.06842 0.25883 0.0
O103 O 0.07861 0.06942 0.32313 0.0
C104 C 0.0627 0.05159 0.29179 0.0
O105 O 0.97395 0.15913 0.25271 0.0
O106 O 0.96489 0.17272 0.18152 0.0
C107 C 1.00169 0.15781 0.33691 0.0
C108 C 0.95472 0.17736 0.2217 0.0
Zn109 Zn 0.56297 0.36236 0.72094 0.0
Zn110 Zn 0.49531 0.34922 0.85985 0.0
Zn111 Zn 0.52838 0.35918 0.78718 0.0
C112 C 0.48933 0.42457 0.84138 0.0
C113 C 0.44465 0.31179 0.80394 0.0
O114 O 0.58738 0.32599 0.78968 0.0
O115 O 0.58962 0.31348 0.71823 0.0
C116 C 0.57843 0.4282 0.75475 0.0
O117 O 0.51426 0.41568 0.80957 0.0
O118 O 0.47514 0.39991 0.86744 0.0
O119 O 0.453 0.31274 0.84499 0.0
O120 O 0.468 0.32949 0.77568 0.0
O121 O 0.59951 0.40479 0.73412 0.0
O122 O 0.54429 0.41814 0.77431 0.0
O123 O 0.48508 0.33958 0.73356 0.0
O124 O 0.5159 0.37218 0.6804 0.0
C125 C 0.48512 0.35329 0.69349 0.0
O126 O 0.57349 0.32971 0.83353 0.0
O127 O 0.54029 0.33172 0.89811 0.0
C128 C 0.60324 0.30781 0.75721 0.0
C129 C 0.5722 0.32334 0.87609 0.0
Zn130 Zn 0.03545 0.86955 0.84637 0.0
Zn131 Zn 0.95504 0.86308 0.69859 0.0
Zn132 Zn 0.99878 0.86349 0.77139 0.0
C133 C 0.96384 0.93556 0.71385 0.0
C134 C 0.90923 0.82207 0.75871 0.0
O135 O 0.06102 0.83649 0.76452 0.0
O136 O 0.09039 0.85131 0.82836 0.0
C137 C 0.01729 0.94006 0.82207 0.0
O138 O 0.98492 0.92101 0.74637 0.0
O139 O 0.94575 0.9155 0.68606 0.0
O140 O 0.90652 0.83522 0.71961 0.0
O141 O 0.94138 0.82922 0.78296 0.0
O142 O 0.02942 0.92269 0.85642 0.0
O143 O 0.00623 0.92264 0.7869 0.0
O144 O 0.96023 0.83524 0.82474 0.0
O145 O 1.00146 0.83621 0.88379 0.0
C146 C 0.96772 0.82655 0.86594 0.0
O147 O 0.03988 0.83613 0.72273 0.0
O148 O 0.998 0.83648 0.66399 0.0
C149 C 0.09272 0.8359 0.79108 0.0
C150 C 0.03246 0.82813 0.68178 0.0
Zn151 Zn 0.52177 0.64903 0.17612 0.0
Zn152 Zn 0.46247 0.61241 0.31719 0.0
Zn153 Zn 0.49248 0.62699 0.24722 0.0
C154 C 0.53842 0.63397 0.34157 0.0
C155 C 0.45586 0.54843 0.27363 0.0
O156 O 0.44162 0.65441 0.20588 0.0
O157 O 0.47404 0.66562 0.14193 0.0
C158 C 0.57147 0.68299 0.23364 0.0
O159 O 0.53593 0.64625 0.30091 0.0
O160 O 0.51082 0.61248 0.35683 0.0
O161 O 0.43652 0.56479 0.30394 0.0
O162 O 0.48363 0.56584 0.25025 0.0
O163 O 0.56043 0.68746 0.1936 0.0
O164 O 0.55152 0.65983 0.25911 0.0
O165 O 0.51109 0.57557 0.21568 0.0
O166 O 0.54629 0.60093 0.15977 0.0
C167 C 0.53528 0.57249 0.18162 0.0
O168 O 0.43067 0.65577 0.25144 0.0
O169 O 0.42466 0.65392 0.32463 0.0
C170 C 0.44099 0.66566 0.16461 0.0
C171 C 0.41197 0.66591 0.28737 0.0
H172 H 0.12894 0.8919 0.3116 0.0
H173 H 0.04228 0.89175 0.42204 0.0
H174 H 0.01569 0.95135 0.39733 0.0
H175 H 0.02389 0.00701 0.35053 0.0
H176 H 0.11018 0.00776 0.24039 0.0
H177 H 0.12923 0.94387 0.25773 0.0
C178 C 0.10352 0.90444 0.32962 0.0
C179 C 0.08839 0.88779 0.36928 0.0
C180 C 0.08831 0.9388 0.31521 0.0
C181 C 0.05542 0.9045 0.3922 0.0
C182 C 0.03998 0.93848 0.37796 0.0
C183 C 0.04587 0.99262 0.32961 0.0
C184 C 0.06549 0.01149 0.29417 0.0
C185 C 0.0572 0.95642 0.34047 0.0
C186 C 0.0944 0.99325 0.26747 0.0
C187 C 0.10554 0.95696 0.27769 0.0
H188 H 0.43529 0.59198 0.83884 0.0
H189 H 0.34066 0.54733 0.9269 0.0
H190 H 0.37069 0.48609 0.92062 0.0
H191 H 0.42287 0.44549 0.8899 0.0
H192 H 0.52081 0.48916 0.80601 0.0
H193 H 0.49051 0.55073 0.81033 0.0
C194 C 0.42127 0.56869 0.85635 0.0
C195 C 0.38572 0.57389 0.88307 0.0
C196 C 0.43921 0.53361 0.8532 0.0
C197 C 0.36804 0.5438 0.90621 0.0
C198 C 0.38518 0.50888 0.90263 0.0
C199 C 0.43792 0.46842 0.87267 0.0
C200 C 0.47367 0.46257 0.84645 0.0
C201 C 0.42073 0.50352 0.8763 0.0
C202 C 0.49259 0.49276 0.8248 0.0
C203 C 0.47541 0.52797 0.82778 0.0
H204 H 0.67793 0.56875 0.70202 0.0
H205 H 0.55564 0.60517 0.66059 0.0
H206 H 0.52459 0.55031 0.69495 0.0
H207 H 0.53384 0.48762 0.72674 0.0
H208 H 0.65561 0.45362 0.77134 0.0
H209 H 0.68508 0.51249 0.7466 0.0
C210 C 0.64432 0.56565 0.70167 0.0
C211 C 0.6195 0.59091 0.67748 0.0
C212 C 0.62652 0.53426 0.72196 0.0
C213 C 0.57593 0.58569 0.67746 0.0
C214 C 0.558 0.55436 0.69738 0.0
C215 C 0.5664 0.49387 0.73287 0.0
C216 C 0.59243 0.46671 0.75155 0.0
C217 C 0.5832 0.52778 0.71826 0.0
C218 C 0.63494 0.47443 0.75763 0.0
C219 C 0.65183 0.50795 0.74319 0.0
H220 H 0.95334 0.88915 0.175 0.0
H221 H 0.82622 0.92686 0.17326 0.0
H222 H 0.84936 0.98899 0.19126 0.0
H223 H 0.906 0.03335 0.20053 0.0
H224 H 0.03357 0.99698 0.20072 0.0
H225 H 0.01037 0.93329 0.19145 0.0
C226 C 0.93089 0.91098 0.1795 0.0
C227 C 0.88824 0.90385 0.17308 0.0
C228 C 0.94456 0.94666 0.18945 0.0
C229 C 0.85914 0.93202 0.17841 0.0
C230 C 0.87239 0.96744 0.18847 0.0
C231 C 0.92867 0.01136 0.19909 0.0
C232 C 0.97142 0.01962 0.20153 0.0
C233 C 0.91503 0.97521 0.193 0.0
C234 C 1.00053 0.99103 0.19989 0.0
C235 C 0.98722 0.95476 0.194 0.0
H236 H 0.96794 0.10133 0.65228 0.0
H237 H 0.8355 0.08875 0.67177 0.0
H238 H 0.84593 0.02621 0.70127 0.0
H239 H 0.89239 0.97355 0.71552 0.0
H240 H 0.02478 0.98602 0.69687 0.0
H241 H 0.0152 0.05053 0.67415 0.0
C242 C 0.94151 0.08486 0.66336 0.0
C243 C 0.90096 0.09918 0.65944 0.0
C244 C 0.94788 0.04918 0.68071 0.0
C245 C 0.8669 0.07805 0.6744 0.0
C246 C 0.87288 0.04238 0.69117 0.0
C247 C 0.91911 0.99078 0.70739 0.0
C248 C 0.95929 0.97557 0.7085 0.0
C249 C 0.91314 0.02747 0.69372 0.0
C250 C 0.99377 -0.00235 0.6974 0.0
C251 C 0.98817 0.03429 0.6838 0.0
H252 H 0.63681 0.44016 0.107 0.0
H253 H 0.58668 0.38547 0.22458 0.0
H254 H 0.54856 0.44119 0.24336 0.0
H255 H 0.53172 0.50647 0.22717 0.0
H256 H 0.57935 0.55817 0.1066 0.0
H257 H 0.61522 0.50205 0.0876 0.0
C258 C 0.61681 0.43985 0.13621 0.0
C259 C 0.61471 0.40842 0.16418 0.0
C260 C 0.59438 0.47152 0.14625 0.0
C261 C 0.58948 0.40934 0.20267 0.0
C262 C 0.56739 0.44114 0.21328 0.0
C263 C 0.5492 0.50519 0.19641 0.0
C264 C 0.55274 0.53662 0.16859 0.0
C265 C 0.56987 0.47253 0.18543 0.0
C266 C 0.57613 0.53458 0.12893 0.0
C267 C 0.5968 0.50246 0.11796 0.0
H268 H 0.35951 0.40622 0.31133 0.0
H269 H 0.47652 0.37702 0.37304 0.0
H270 H 0.51056 0.42919 0.33565 0.0
H271 H 0.50244 0.49051 0.30049 0.0
H272 H 0.3854 0.52 0.23986 0.0
H273 H 0.35623 0.45998 0.26062 0.0
C274 C 0.39279 0.41035 0.31523 0.0
C275 C 0.41511 0.38838 0.34603 0.0
C276 C 0.41209 0.44081 0.29411 0.0
C277 C 0.45832 0.39418 0.3505 0.0
C278 C 0.47784 0.42404 0.32915 0.0
C279 C 0.47141 0.48289 0.28957 0.0
C280 C 0.44622 0.50928 0.26817 0.0
C281 C 0.45447 0.44873 0.30298 0.0
C282 C 0.4055 0.49974 0.25567 0.0
C283 C 0.38864 0.46562 0.26813 0.0
H284 H 0.04705 0.10143 0.87815 0.0
H285 H 0.13504 0.09628 0.76942 0.0
H286 H 0.10526 0.0377 0.74686 0.0
H287 H 0.06347 0.98289 0.76699 0.0
H288 H 0.98014 0.98597 0.8796 0.0
H289 H 0.99887 0.05016 0.8921 0.0
C290 C 0.05938 0.08767 0.8492 0.0
C291 C 0.09371 0.10287 0.82605 0.0
C292 C 0.04319 0.05337 0.83749 0.0
C293 C 0.10865 0.08522 0.78788 0.0
C294 C 0.09188 0.05152 0.7752 0.0
C295 C 0.0482 -0.00175 0.79298 0.0
C296 C 0.02008 0.98028 0.82195 0.0
C297 C 0.06038 0.03463 0.8009 0.0
C298 C 1.00154 -0.00033 0.85671 0.0
C299 C 0.01247 0.03619 0.86399 0.0
H300 H 0.13188 0.21441 0.96984 0.0
H301 H 0.1826 0.10548 0.95966 0.0
H302 H 0.17205 0.09467 0.03954 0.0
H303 H 0.13301 0.11079 0.10681 0.0
H304 H 0.07949 0.21839 0.11724 0.0
H305 H 0.10742 0.23574 0.04357 0.0
C306 C 0.14216 0.18895 0.98558 0.0
C307 C 0.15734 0.16053 0.95891 0.0
C308 C 0.13495 0.18257 0.03156 0.0
C309 C 0.17041 0.12756 0.97955 0.0
C310 C 0.16418 0.1213 0.02518 0.0
C311 C 0.12943 0.13863 0.09383 0.0
C312 C 0.10452 0.16338 0.11722 0.0
C313 C 0.14427 0.14779 0.05088 0.0
C314 C 0.09919 0.19915 0.09997 0.0
C315 C 0.11457 0.20881 0.0575 0.0
H316 H 0.38719 0.29957 0.52661 0.0
H317 H 0.39198 0.41597 0.49722 0.0
H318 H 0.41844 0.42741 0.57187 0.0
H319 H 0.4496 0.40393 0.6408 0.0
H320 H 0.44825 0.28796 0.67123 0.0
H321 H 0.40984 0.27666 0.60175 0.0
C322 C 0.39328 0.32743 0.537 0.0
C323 C 0.38858 0.35684 0.50608 0.0
C324 C 0.40909 0.33383 0.58014 0.0
C325 C 0.39635 0.39284 0.52001 0.0
C326 C 0.4113 0.39942 0.56275 0.0
C327 C 0.43976 0.37628 0.63279 0.0
C328 C 0.45167 0.3468 0.66078 0.0
C329 C 0.41916 0.37008 0.59242 0.0
C330 C 0.43899 0.31108 0.65026 0.0
C331 C 0.41756 0.30464 0.61027 0.0
H332 H 0.64723 0.27712 0.05255 0.0
H333 H 0.70705 0.38221 0.0333 0.0
H334 H 0.69084 0.38158 0.95366 0.0
H335 H 0.64284 0.35938 0.89608 0.0
H336 H 0.57776 0.25711 0.91747 0.0
H337 H 0.61387 0.24735 0.98842 0.0
C338 C 0.65843 0.29892 0.03039 0.0
C339 C 0.67791 0.3298 0.04858 0.0
C340 C 0.64741 0.29903 0.98487 0.0
C341 C 0.69192 0.35821 0.01982 0.0
C342 C 0.68229 0.358 0.97436 0.0
C343 C 0.63857 0.33398 0.9151 0.0
C344 C 0.6078 0.30899 0.90179 0.0
C345 C 0.65764 0.32973 0.95718 0.0
C346 C 0.60168 0.27651 0.92701 0.0
C347 C 0.62178 0.27128 0.96802 0.0
H348 H 0.88093 0.14455 0.49871 0.0
H349 H 0.96412 0.22721 0.54879 0.0
H350 H 0.99713 0.23351 0.47525 0.0
H351 H 0.00854 0.20905 0.4002 0.0
H352 H 0.92563 0.1264 0.34982 0.0
H353 H 0.88525 0.12734 0.41925 0.0
C354 C 0.90588 0.1643 0.49314 0.0
C355 C 0.92061 0.18504 0.52904 0.0
C356 C 0.92446 0.16792 0.45067 0.0
C357 C 0.9525 0.21091 0.52158 0.0
C358 C 0.97137 0.21445 0.47961 0.0
C359 C 0.98063 0.19234 0.40386 0.0
C360 C 0.96973 0.16799 0.36987 0.0
C361 C 0.95839 0.19234 0.4443 0.0
C362 C 0.93401 0.14595 0.37513 0.0
C363 C 0.9114 0.14603 0.41516 0.0
H364 H 0.89777 0.77562 0.04699 0.0
H365 H 0.82666 0.87466 0.02664 0.0
H366 H 0.84587 0.87637 0.94763 0.0
H367 H 0.89523 0.85744 0.88956 0.0
H368 H 0.97202 0.76235 0.91261 0.0
H369 H 0.9373 0.75026 0.98415 0.0
C370 C 0.88532 0.79677 0.02483 0.0
C371 C 0.8613 0.82522 0.04263 0.0
C372 C 0.8978 0.79831 0.97972 0.0
C373 C 0.84562 0.85271 0.01369 0.0
C374 C 0.85668 0.85374 0.96854 0.0
C375 C 0.90271 0.83305 0.9093 0.0
C376 C 0.93577 0.81061 0.89589 0.0
C377 C 0.88448 0.82777 0.95173 0.0
C378 C 0.94621 0.77965 0.92216 0.0
C379 C 0.92682 0.77313 0.96341 0.0
H380 H 0.67169 0.63059 0.49254 0.0
H381 H 0.5727 0.68768 0.55906 0.0
H382 H 0.53527 0.69504 0.48838 0.0
H383 H 0.52598 0.6773 0.41067 0.0
H384 H 0.61982 0.61296 0.34613 0.0
H385 H 0.66483 0.61734 0.41193 0.0
C386 C 0.64235 0.64528 0.4911 0.0
C387 C 0.62473 0.65855 0.53067 0.0
C388 C 0.62034 0.64827 0.45053 0.0
C389 C 0.58655 0.67717 0.52888 0.0
C390 C 0.56523 0.68137 0.48855 0.0
C391 C 0.55705 0.66557 0.41052 0.0
C392 C 0.57043 0.64614 0.37314 0.0
C393 C 0.5812 0.66605 0.44951 0.0
C394 C 0.60986 0.62962 0.37371 0.0
C395 C 0.63511 0.63142 0.41177 0.0
H396 H 0.32014 0.62919 0.01615 0.0
H397 H 0.37726 0.72666 0.95917 0.0
H398 H 0.40317 0.74346 0.03263 0.0
H399 H 0.42491 0.7215 0.10711 0.0
H400 H 0.37248 0.62167 0.16262 0.0
H401 H 0.32839 0.61523 0.09664 0.0
C402 C 0.33706 0.65475 0.02019 0.0
C403 C 0.34756 0.67625 0.98212 0.0
C404 C 0.35313 0.66353 0.06236 0.0
C405 C 0.36889 0.70957 0.98782 0.0
C406 C 0.38411 0.71898 0.02983 0.0
C407 C 0.4022 0.69941 0.10567 0.0
C408 C 0.40209 0.67195 0.13941 0.0
C409 C 0.37863 0.69497 0.06662 0.0
C410 C 0.37285 0.64329 0.13725 0.0
C411 C 0.34821 0.63926 0.09907 0.0
H412 H 0.10175 0.76797 0.50704 0.0
H413 H 0.17077 0.86941 0.51207 0.0
H414 H 0.15265 0.87572 0.59087 0.0
H415 H 0.10352 0.85992 0.65175 0.0
H416 H 0.02911 0.76178 0.64344 0.0
H417 H 0.06368 0.74582 0.57371 0.0
C418 C 0.11425 0.79057 0.526 0.0
C419 C 0.13723 0.81834 0.50383 0.0
C420 C 0.10213 0.7948 0.57081 0.0
C421 C 0.15285 0.8478 0.52852 0.0
C422 C 0.14221 0.85154 0.57349 0.0
C423 C 0.09649 0.83418 0.63567 0.0
C424 C 0.06411 0.8119 0.65258 0.0
C425 C 0.1149 0.82633 0.59421 0.0
C426 C 0.05432 0.77907 0.63108 0.0
C427 C 0.0737 0.77022 0.5909 0.0
H428 H 0.22312 0.30351 0.29537 0.0
H429 H 0.3154 0.22224 0.33003 0.0
H430 H 0.2757 0.1754 0.29083 0.0
H431 H 0.20741 0.15551 0.26358 0.0
H432 H 0.11325 0.23571 0.23162 0.0
H433 H 0.16133 0.2853 0.25096 0.0
C434 C 0.23522 0.27587 0.29258 0.0
C435 C 0.27186 0.26601 0.31545 0.0
C436 C 0.21159 0.24889 0.27083 0.0
C437 C 0.28728 0.23023 0.31236 0.0
C438 C 0.26443 0.20343 0.29026 0.0
C439 C 0.19822 0.18397 0.25877 0.0
C440 C 0.15685 0.19206 0.2468 0.0
C441 C 0.22547 0.21205 0.27163 0.0
C442 C 0.14505 0.22889 0.24061 0.0
C443 C 0.17234 0.2572 0.25248 0.0
H444 H 0.26078 0.27057 0.75082 0.0
H445 H 0.27324 0.20381 0.87037 0.0
H446 H 0.34718 0.22022 0.87525 0.0
H447 H 0.40627 0.25677 0.84872 0.0
H448 H 0.39382 0.32718 0.73218 0.0
H449 H 0.32233 0.30507 0.7215 0.0
C450 C 0.27997 0.25965 0.77772 0.0
C451 C 0.2621 0.23646 0.81057 0.0
C452 C 0.32235 0.26943 0.78034 0.0
C453 C 0.28671 0.22202 0.84514 0.0
C454 C 0.32885 0.23126 0.84778 0.0
C455 C 0.38816 0.26689 0.82052 0.0
C456 C 0.40541 0.29342 0.79107 0.0
C457 C 0.34677 0.25534 0.81596 0.0
C458 C 0.38164 0.30616 0.75465 0.0
C459 C 0.3405 0.29398 0.74908 0.0
H460 H 0.78995 0.261 0.76231 0.0
H461 H 0.74837 0.19715 0.65118 0.0
H462 H 0.67573 0.21149 0.66863 0.0
H463 H 0.62591 0.25038 0.70746 0.0
H464 H 0.6668 0.31635 0.81712 0.0
H465 H 0.73759 0.29214 0.80956 0.0
C466 C 0.76474 0.24948 0.74287 0.0
C467 C 0.77398 0.22821 0.70552 0.0
C468 C 0.72309 0.25841 0.75276 0.0
C469 C 0.74158 0.21351 0.68013 0.0
C470 C 0.70017 0.22185 0.68999 0.0
C471 C 0.65009 0.25865 0.73053 0.0
C472 C 0.64136 0.28542 0.76241 0.0
C473 C 0.69075 0.24544 0.72508 0.0
C474 C 0.67274 0.29567 0.79241 0.0
C475 C 0.71335 0.28219 0.78768 0.0
H476 H 0.7826 0.24966 0.27242 0.0
H477 H 0.79479 0.29072 0.13711 0.0
H478 H 0.86411 0.26318 0.13169 0.0
H479 H 0.91909 0.22537 0.16396 0.0
H480 H 0.90699 0.18138 0.29803 0.0
H481 H 0.84022 0.21307 0.30624 0.0
C482 C 0.80069 0.25246 0.2419 0.0
C483 C 0.78402 0.27166 0.20496 0.0
C484 C 0.84043 0.23645 0.23911 0.0
C485 C 0.80727 0.27565 0.16563 0.0
C486 C 0.84681 0.26008 0.16265 0.0
C487 C 0.90214 0.22286 0.19525 0.0
C488 C 0.91802 0.20082 0.23041 0.0
C489 C 0.86345 0.24016 0.19901 0.0
C490 C 0.89572 0.19832 0.2707 0.0
C491 C 0.8573 0.21615 0.27514 0.0
H492 H 0.81678 0.67857 0.73073 0.0
H493 H 0.72157 0.75528 0.69009 0.0
H494 H 0.75893 0.80506 0.72649 0.0
H495 H 0.82616 0.82827 0.75258 0.0
H496 H 0.92345 0.75266 0.78991 0.0
H497 H 0.87745 0.70069 0.77417 0.0
C498 C 0.80359 0.70594 0.73155 0.0
C499 C 0.76684 0.71367 0.70777 0.0
C500 C 0.82586 0.73457 0.75169 0.0
C501 C 0.74987 0.74901 0.7084 0.0
C502 C 0.77135 0.77745 0.72896 0.0
C503 C 0.83644 0.80036 0.75942 0.0
C504 C 0.8781 0.79409 0.77171 0.0
C505 C 0.81046 0.77088 0.74839 0.0
C506 C 0.89139 0.75802 0.78057 0.0
C507 C 0.8653 0.72833 0.77073 0.0
H508 H 0.76115 0.71654 0.25879 0.0
H509 H 0.72807 0.80767 0.17225 0.0
H510 H 0.654 0.79244 0.18092 0.0
H511 H 0.59999 0.74903 0.2057 0.0
H512 H 0.63281 0.65503 0.28729 0.0
H513 H 0.7053 0.67618 0.29005 0.0
C514 C 0.73749 0.73319 0.2424 0.0
C515 C 0.74951 0.7629 0.2146 0.0
C516 C 0.69504 0.72395 0.24722 0.0
C517 C 0.71912 0.78454 0.19352 0.0
C518 C 0.67691 0.77587 0.19856 0.0
C519 C 0.62283 0.73376 0.22517 0.0
C520 C 0.611 0.7007 0.24687 0.0
C521 C 0.66464 0.74512 0.2244 0.0
C522 C 0.64085 0.68106 0.27169 0.0
C523 C 0.68251 0.69278 0.2723 0.0
H524 H 0.23048 0.7311 0.27247 0.0
H525 H 0.25722 0.75683 0.4093 0.0
H526 H 0.32897 0.73517 0.40034 0.0
H527 H 0.38178 0.70499 0.35548 0.0
H528 H 0.35508 0.67624 0.21955 0.0
H529 H 0.28592 0.70406 0.22548 0.0
C530 C 0.25231 0.73208 0.30007 0.0
C531 C 0.23908 0.74507 0.34159 0.0
C532 C 0.29332 0.71936 0.29462 0.0
C533 C 0.2671 0.74661 0.37724 0.0
C534 C 0.30797 0.73433 0.37205 0.0
C535 C 0.36106 0.70516 0.32687 0.0
C536 C 0.37355 0.68839 0.28704 0.0
C537 C 0.32113 0.72011 0.33115 0.0
C538 C 0.34648 0.68925 0.25027 0.0
C539 C 0.30672 0.70477 0.25393 0.0
H540 H 0.22893 0.71457 0.75965 0.0
H541 H 0.28926 0.77458 0.86411 0.0
H542 H 0.23427 0.82112 0.86078 0.0
H543 H 0.16706 0.84186 0.83225 0.0
H544 H 0.10363 0.78045 0.73081 0.0
H545 H 0.16254 0.73795 0.72746 0.0
C546 C 0.22993 0.73806 0.78136 0.0
C547 C 0.26253 0.7414 0.81233 0.0
C548 C 0.198 0.76444 0.77942 0.0
C549 C 0.26411 0.77168 0.84029 0.0
C550 C 0.2328 0.7982 0.83828 0.0
C551 C 0.1662 0.81945 0.80892 0.0
C552 C 0.13081 0.81432 0.78188 0.0
C553 C 0.19931 0.7945 0.80851 0.0
C554 C 0.13056 0.78534 0.7516 0.0
C555 C 0.16404 0.76073 0.75015 0.0
loop_
_geom_bond_atom_site_label_1
_geom_bond_atom_site_label_2
_geom_bond_distance
_geom_bond_site_symmetry_2
_ccdc_geom_bond_type
H0 C3 0.929 . S
H1 C6 0.929 . S
H2 C8 0.930 . S
C3 H0 0.929 . S
C3 C4 1.398 . S
C3 C5 1.396 . S
C4 C3 1.398 . S
C4 C8 1.407 . S
C5 C3 1.396 . S
C5 C6 1.394 . S
C6 H1 0.929 . S
C6 C5 1.394 . S
C6 C7 1.382 . S
C7 C6 1.382 . S
C7 C8 1.392 . S
C7 N9 1.420 . S
C8 H2 0.930 . S
C8 C4 1.407 . S
C8 C7 1.392 . S
N9 C7 1.420 . S
N9 C10 1.244 . S
C10 N9 1.244 . S
H11 C14 0.929 . S
H12 C17 0.929 . S
H13 C19 0.930 . S
C14 H11 0.929 . S
C14 C15 1.398 . S
C14 C16 1.396 . S
C15 C14 1.398 . S
C15 C19 1.407 . S
C16 C14 1.396 . S
C16 C17 1.394 . S
C17 H12 0.929 . S
C17 C16 1.394 . S
C17 C18 1.382 . S
C18 C17 1.382 . S
C18 C19 1.392 . S
C18 N20 1.420 . S
C19 H13 0.930 . S
C19 C15 1.407 . S
C19 C18 1.392 . S
N20 C18 1.420 . S
N20 C21 1.244 . S
C21 N20 1.244 . S
H22 C25 0.929 . S
H23 C28 0.929 . S
H24 C30 0.930 . S
C25 H22 0.929 . S
C25 C26 1.398 . S
C25 C27 1.396 . S
C26 C25 1.398 . S
C26 C30 1.407 . S
C27 C25 1.396 . S
C27 C28 1.394 . S
C28 H23 0.929 . S
C28 C27 1.394 . S
C28 C29 1.382 . S
C29 C28 1.382 . S
C29 C30 1.392 . S
C29 N31 1.420 . S
C30 H24 0.930 . S
C30 C26 1.407 . S
C30 C29 1.392 . S
N31 C29 1.420 . S
N31 C32 1.244 . S
C32 N31 1.244 . S
H33 C36 0.929 . S
H34 C39 0.929 . S
H35 C41 0.930 . S
C36 H33 0.929 . S
C36 C37 1.398 . S
C36 C38 1.396 . S
C37 C36 1.398 . S
C37 C41 1.407 . S
C38 C36 1.396 . S
C38 C39 1.394 . S
C39 H34 0.929 . S
C39 C38 1.394 . S
C39 C40 1.382 . S
C40 C39 1.382 . S
C40 C41 1.392 . S
C40 N42 1.420 . S
C41 H35 0.930 . S
C41 C37 1.407 . S
C41 C40 1.392 . S
N42 C40 1.420 . S
N42 C43 1.244 . S
C43 N42 1.244 . S
H44 C47 0.929 . S
H45 C50 0.929 . S
H46 C52 0.930 . S
C47 H44 0.929 . S
C47 C48 1.398 . S
C47 C49 1.396 . S
C48 C47 1.398 . S
C48 C52 1.407 . S
C49 C47 1.396 . S
C49 C50 1.394 . S
C50 H45 0.929 . S
C50 C49 1.394 . S
C50 C51 1.382 . S
C51 C50 1.382 . S
C51 C52 1.392 . S
C51 N53 1.420 . S
C52 H46 0.930 . S
C52 C48 1.407 . S
C52 C51 1.392 . S
N53 C51 1.420 . S
N53 C54 1.244 . S
C54 N53 1.244 . S
H55 C58 0.929 . S
H56 C61 0.929 . S
H57 C63 0.930 . S
C58 H55 0.929 . S
C58 C59 1.398 . S
C58 C60 1.396 . S
C59 C58 1.398 . S
C59 C63 1.407 . S
C60 C58 1.396 . S
C60 C61 1.394 . S
C61 H56 0.929 . S
C61 C60 1.394 . S
C61 C62 1.382 . S
C62 C61 1.382 . S
C62 C63 1.392 . S
C62 N64 1.420 . S
C63 H57 0.930 . S
C63 C59 1.407 . S
C63 C62 1.392 . S
N64 C62 1.420 . S
N64 C65 1.244 . S
C65 N64 1.244 . S
H66 C69 0.929 . S
H67 C72 0.929 . S
H68 C74 0.930 . S
C69 H66 0.929 . S
C69 C70 1.398 . S
C69 C71 1.396 . S
C70 C69 1.398 . S
C70 C74 1.407 . S
C71 C69 1.396 . S
C71 C72 1.394 . S
C72 H67 0.929 . S
C72 C71 1.394 . S
C72 C73 1.382 . S
C73 C72 1.382 . S
C73 C74 1.392 . S
C73 N75 1.420 . S
C74 H68 0.930 . S
C74 C70 1.407 . S
C74 C73 1.392 . S
N75 C73 1.420 . S
N75 C76 1.244 . S
C76 N75 1.244 . S
H77 C80 0.929 . S
H78 C83 0.929 . S
H79 C85 0.930 . S
C80 H77 0.929 . S
C80 C81 1.398 . S
C80 C82 1.396 . S
C81 C80 1.398 . S
C81 C85 1.407 . S
C82 C80 1.396 . S
C82 C83 1.394 . S
C83 H78 0.929 . S
C83 C82 1.394 . S
C83 C84 1.382 . S
C84 C83 1.382 . S
C84 C85 1.392 . S
C84 N86 1.420 . S
C85 H79 0.930 . S
C85 C81 1.407 . S
C85 C84 1.392 . S
N86 C84 1.420 . S
N86 C87 1.244 . S
C87 N86 1.244 . S
Zn88 O94 1.920 . S
Zn88 O100 1.898 . S
Zn88 O103 1.905 . S
Zn89 O97 1.905 1_655 S
Zn89 O98 1.898 . S
Zn89 O106 1.920 . S
Zn90 O93 2.080 1_455 S
Zn90 O96 2.114 . S
Zn90 O99 2.120 1_455 S
Zn90 O101 2.120 . S
Zn90 O102 2.114 . S
Zn90 O105 2.080 1_455 S
C91 O96 1.166 . S
C91 O97 1.182 . S
C92 O98 1.167 . S
C92 O99 1.299 . S
O93 Zn90 2.080 1_655 S
O93 C107 1.305 . S
O94 Zn88 1.920 . S
O94 C107 1.234 1_455 S
C95 O100 1.167 . S
C95 O101 1.299 . S
O96 Zn90 2.114 . S
O96 C91 1.166 . S
O97 Zn89 1.905 1_455 S
O97 C91 1.182 . S
O98 Zn89 1.898 . S
O98 C92 1.167 . S
O99 Zn90 2.120 1_655 S
O99 C92 1.299 . S
O100 Zn88 1.898 . S
O100 C95 1.167 . S
O101 Zn90 2.120 . S
O101 C95 1.299 . S
O102 Zn90 2.114 . S
O102 C104 1.166 . S
O103 Zn88 1.905 . S
O103 C104 1.182 . S
C104 O102 1.166 . S
C104 O103 1.182 . S
O105 Zn90 2.080 1_655 S
O105 C108 1.305 . S
O106 Zn89 1.920 . S
O106 C108 1.234 . S
C107 O93 1.305 . S
C107 O94 1.234 1_655 S
C108 O105 1.305 . S
C108 O106 1.234 . S
Zn109 O115 1.920 . S
Zn109 O121 1.898 . S
Zn109 O124 1.905 . S
Zn110 O118 1.905 . S
Zn110 O119 1.898 . S
Zn110 O127 1.920 . S
Zn111 O114 2.080 . S
Zn111 O117 2.114 . S
Zn111 O120 2.120 . S
Zn111 O122 2.120 . S
Zn111 O123 2.114 . S
Zn111 O126 2.080 . S
C112 O117 1.166 . S
C112 O118 1.182 . S
C113 O119 1.167 . S
C113 O120 1.299 . S
O114 Zn111 2.080 . S
O114 C128 1.305 . S
O115 Zn109 1.920 . S
O115 C128 1.234 . S
C116 O121 1.167 . S
C116 O122 1.299 . S
O117 Zn111 2.114 . S
O117 C112 1.166 . S
O118 Zn110 1.905 . S
O118 C112 1.182 . S
O119 Zn110 1.898 . S
O119 C113 1.167 . S
O120 Zn111 2.120 . S
O120 C113 1.299 . S
O121 Zn109 1.898 . S
O121 C116 1.167 . S
O122 Zn111 2.120 . S
O122 C116 1.299 . S
O123 Zn111 2.114 . S
O123 C125 1.166 . S
O124 Zn109 1.905 . S
O124 C125 1.182 . S
C125 O123 1.166 . S
C125 O124 1.182 . S
O126 Zn111 2.080 . S
O126 C129 1.305 . S
O127 Zn110 1.920 . S
O127 C129 1.234 . S
C128 O114 1.305 . S
C128 O115 1.234 . S
C129 O126 1.305 . S
C129 O127 1.234 . S
Zn130 O136 1.920 . S
Zn130 O142 1.898 . S
Zn130 O145 1.905 1_455 S
Zn131 O139 1.905 . S
Zn131 O140 1.898 . S
Zn131 O148 1.920 1_655 S
Zn132 O135 2.080 . S
Zn132 O138 2.114 1_455 S
Zn132 O141 2.120 1_455 S
Zn132 O143 2.120 . S
Zn132 O144 2.114 1_455 S
Zn132 O147 2.080 . S
C133 O138 1.166 . S
C133 O139 1.182 . S
C134 O140 1.167 . S
C134 O141 1.299 . S
O135 Zn132 2.080 . S
O135 C149 1.305 . S
O136 Zn130 1.920 . S
O136 C149 1.234 . S
C137 O142 1.167 . S
C137 O143 1.299 . S
O138 Zn132 2.114 1_655 S
O138 C133 1.166 . S
O139 Zn131 1.905 . S
O139 C133 1.182 . S
O140 Zn131 1.898 . S
O140 C134 1.167 . S
O141 Zn132 2.120 1_655 S
O141 C134 1.299 . S
O142 Zn130 1.898 . S
O142 C137 1.167 . S
O143 Zn132 2.120 . S
O143 C137 1.299 . S
O144 Zn132 2.114 1_655 S
O144 C146 1.166 . S
O145 Zn130 1.905 1_655 S
O145 C146 1.182 . S
C146 O144 1.166 . S
C146 O145 1.182 . S
O147 Zn132 2.080 . S
O147 C150 1.305 . S
O148 Zn131 1.920 1_455 S
O148 C150 1.234 . S
C149 O135 1.305 . S
C149 O136 1.234 . S
C150 O147 1.305 . S
C150 O148 1.234 . S
Zn151 O157 1.920 . S
Zn151 O163 1.898 . S
Zn151 O166 1.905 . S
Zn152 O160 1.905 . S
Zn152 O161 1.898 . S
Zn152 O169 1.920 . S
Zn153 O156 2.080 . S
Zn153 O159 2.114 . S
Zn153 O162 2.120 . S
Zn153 O164 2.120 . S
Zn153 O165 2.114 . S
Zn153 O168 2.080 . S
C154 O159 1.166 . S
C154 O160 1.182 . S
C155 O161 1.167 . S
C155 O162 1.299 . S
O156 Zn153 2.080 . S
O156 C170 1.305 . S
O157 Zn151 1.920 . S
O157 C170 1.234 . S
C158 O163 1.167 . S
C158 O164 1.299 . S
O159 Zn153 2.114 . S
O159 C154 1.166 . S
O160 Zn152 1.905 . S
O160 C154 1.182 . S
O161 Zn152 1.898 . S
O161 C155 1.167 . S
O162 Zn153 2.120 . S
O162 C155 1.299 . S
O163 Zn151 1.898 . S
O163 C158 1.167 . S
O164 Zn153 2.120 . S
O164 C158 1.299 . S
O165 Zn153 2.114 . S
O165 C167 1.166 . S
O166 Zn151 1.905 . S
O166 C167 1.182 . S
C167 O165 1.166 . S
C167 O166 1.182 . S
O168 Zn153 2.080 . S
O168 C171 1.305 . S
O169 Zn152 1.920 . S
O169 C171 1.234 . S
C170 O156 1.305 . S
C170 O157 1.234 . S
C171 O168 1.305 . S
C171 O169 1.234 . S
H172 C178 0.930 . S
H173 C181 0.930 . S
H174 C182 0.930 . S
H175 C183 0.930 . S
H176 C186 0.930 . S
H177 C187 0.930 . S
C178 H172 0.930 . S
C178 C179 1.355 . S
C178 C180 1.415 . S
C179 C178 1.355 . S
C179 C181 1.419 . S
C180 C178 1.415 . S
C180 C185 1.425 . S
C180 C187 1.409 . S
C181 H173 0.930 . S
C181 C179 1.419 . S
C181 C182 1.362 . S
C182 H174 0.930 . S
C182 C181 1.362 . S
C182 C185 1.409 . S
C183 H175 0.930 . S
C183 C184 1.355 1_565 S
C183 C185 1.415 . S
C184 C183 1.355 1_545 S
C184 C186 1.419 . S
C185 C180 1.425 . S
C185 C182 1.409 . S
C185 C183 1.415 . S
C186 H176 0.930 . S
C186 C184 1.419 . S
C186 C187 1.362 1_545 S
C187 H177 0.930 . S
C187 C180 1.409 . S
C187 C186 1.362 1_565 S
H188 C194 0.930 . S
H189 C197 0.930 . S
H190 C198 0.930 . S
H191 C199 0.930 . S
H192 C202 0.930 . S
H193 C203 0.930 . S
C194 H188 0.930 . S
C194 C195 1.355 . S
C194 C196 1.415 . S
C195 C194 1.355 . S
C195 C197 1.419 . S
C196 C194 1.415 . S
C196 C201 1.425 . S
C196 C203 1.409 . S
C197 H189 0.930 . S
C197 C195 1.419 . S
C197 C198 1.362 . S
C198 H190 0.930 . S
C198 C197 1.362 . S
C198 C201 1.409 . S
C199 H191 0.930 . S
C199 C200 1.355 . S
C199 C201 1.415 . S
C200 C199 1.355 . S
C200 C202 1.419 . S
C201 C196 1.425 . S
C201 C198 1.409 . S
C201 C199 1.415 . S
C202 H192 0.930 . S
C202 C200 1.419 . S
C202 C203 1.362 . S
C203 H193 0.930 . S
C203 C196 1.409 . S
C203 C202 1.362 . S
H204 C210 0.930 . S
H205 C213 0.930 . S
H206 C214 0.930 . S
H207 C215 0.930 . S
H208 C218 0.930 . S
H209 C219 0.930 . S
C210 H204 0.930 . S
C210 C211 1.355 . S
C210 C212 1.415 . S
C211 C210 1.355 . S
C211 C213 1.419 . S
C212 C210 1.415 . S
C212 C217 1.425 . S
C212 C219 1.409 . S
C213 H205 0.930 . S
C213 C211 1.419 . S
C213 C214 1.362 . S
C214 H206 0.930 . S
C214 C213 1.362 . S
C214 C217 1.409 . S
C215 H207 0.930 . S
C215 C216 1.355 . S
C215 C217 1.415 . S
C216 C215 1.355 . S
C216 C218 1.419 . S
C217 C212 1.425 . S
C217 C214 1.409 . S
C217 C215 1.415 . S
C218 H208 0.930 . S
C218 C216 1.419 . S
C218 C219 1.362 . S
C219 H209 0.930 . S
C219 C212 1.409 . S
C219 C218 1.362 . S
H220 C226 0.930 . S
H221 C229 0.930 . S
H222 C230 0.930 . S
H223 C231 0.920 1_545 S
H224 C234 0.930 . S
H225 C235 0.930 . S
C226 H220 0.930 . S
C226 C227 1.355 . S
C226 C228 1.415 . S
C227 C226 1.355 . S
C227 C229 1.419 . S
C228 C226 1.415 . S
C228 C233 1.425 . S
C228 C235 1.409 . S
C229 H221 0.930 . S
C229 C227 1.419 . S
C229 C230 1.362 . S
C230 H222 0.930 . S
C230 C229 1.362 . S
C230 C233 1.409 . S
C231 H223 0.920 1_565 S
C231 C232 1.344 1_565 S
C231 C233 1.435 . S
C232 C231 1.344 1_545 S
C232 C234 1.419 . S
C233 C228 1.425 . S
C233 C230 1.409 . S
C233 C231 1.435 . S
C234 H224 0.930 . S
C234 C232 1.419 . S
C234 C235 1.362 1_545 S
C235 H225 0.930 . S
C235 C228 1.409 . S
C235 C234 1.362 1_565 S
H236 C242 0.930 . S
H237 C245 0.930 . S
H238 C246 0.930 . S
H239 C247 0.930 . S
H240 C250 0.930 1_455 S
H241 C251 0.930 . S
C242 H236 0.930 . S
C242 C243 1.355 . S
C242 C244 1.415 . S
C243 C242 1.355 . S
C243 C245 1.419 . S
C244 C242 1.415 . S
C244 C249 1.425 . S
C244 C251 1.409 . S
C245 H237 0.930 . S
C245 C243 1.419 . S
C245 C246 1.362 . S
C246 H238 0.930 . S
C246 C245 1.362 . S
C246 C249 1.409 . S
C247 H239 0.930 . S
C247 C248 1.355 . S
C247 C249 1.415 1_565 S
C248 C247 1.355 . S
C248 C250 1.419 1_565 S
C249 C244 1.425 . S
C249 C246 1.409 . S
C249 C247 1.415 1_545 S
C250 H240 0.930 1_655 S
C250 C248 1.419 1_545 S
C250 C251 1.362 . S
C251 H241 0.930 . S
C251 C244 1.409 . S
C251 C250 1.362 . S
H252 C258 0.930 . S
H253 C261 0.930 . S
H254 C262 0.930 . S
H255 C263 0.930 . S
H256 C266 0.930 . S
H257 C267 0.930 . S
C258 H252 0.930 . S
C258 C259 1.355 . S
C258 C260 1.415 . S
C259 C258 1.355 . S
C259 C261 1.419 . S
C260 C258 1.415 . S
C260 C265 1.425 . S
C260 C267 1.409 . S
C261 H253 0.930 . S
C261 C259 1.419 . S
C261 C262 1.362 . S
C262 H254 0.930 . S
C262 C261 1.362 . S
C262 C265 1.409 . S
C263 H255 0.930 . S
C263 C264 1.355 . S
C263 C265 1.415 . S
C264 C263 1.355 . S
C264 C266 1.419 . S
C265 C260 1.425 . S
C265 C262 1.409 . S
C265 C263 1.415 . S
C266 H256 0.930 . S
C266 C264 1.419 . S
C266 C267 1.362 . S
C267 H257 0.930 . S
C267 C260 1.409 . S
C267 C266 1.362 . S
H268 C274 0.930 . S
H269 C277 0.930 . S
H270 C278 0.930 . S
H271 C279 0.930 . S
H272 C282 0.930 . S
H273 C283 0.930 . S
C274 H268 0.930 . S
C274 C275 1.355 . S
C274 C276 1.415 . S
C275 C274 1.355 . S
C275 C277 1.419 . S
C276 C274 1.415 . S
C276 C281 1.425 . S
C276 C283 1.409 . S
C277 H269 0.930 . S
C277 C275 1.419 . S
C277 C278 1.362 . S
C278 H270 0.930 . S
C278 C277 1.362 . S
C278 C281 1.409 . S
C279 H271 0.930 . S
C279 C280 1.355 . S
C279 C281 1.415 . S
C280 C279 1.355 . S
C280 C282 1.419 . S
C281 C276 1.425 . S
C281 C278 1.409 . S
C281 C279 1.415 . S
C282 H272 0.930 . S
C282 C280 1.419 . S
C282 C283 1.362 . S
C283 H273 0.930 . S
C283 C276 1.409 . S
C283 C282 1.362 . S
H284 C290 0.930 . S
H285 C293 0.930 . S
H286 C294 0.930 . S
H287 C295 0.930 . S
H288 C298 0.930 . S
H289 C299 0.930 . S
C290 H284 0.930 . S
C290 C291 1.355 . S
C290 C292 1.415 . S
C291 C290 1.355 . S
C291 C293 1.419 . S
C292 C290 1.415 . S
C292 C297 1.425 . S
C292 C299 1.409 . S
C293 H285 0.930 . S
C293 C291 1.419 . S
C293 C294 1.362 . S
C294 H286 0.930 . S
C294 C293 1.362 . S
C294 C297 1.409 . S
C295 H287 0.930 . S
C295 C296 1.355 . S
C295 C297 1.415 1_565 S
C296 C295 1.355 . S
C296 C298 1.419 1_565 S
C297 C292 1.425 . S
C297 C294 1.409 . S
C297 C295 1.415 1_545 S
C298 H288 0.930 . S
C298 C296 1.419 1_545 S
C298 C299 1.362 . S
C299 H289 0.930 . S
C299 C292 1.409 . S
C299 C298 1.362 . S
H300 C306 0.929 1_556 S
H301 C309 0.930 . S
H302 C310 0.930 . S
H303 C311 0.930 . S
H304 C314 0.930 . S
H305 C315 0.930 . S
C306 H300 0.929 1_554 S
C306 C307 1.354 1_554 S
C306 C308 1.416 . S
C307 C306 1.354 1_556 S
C307 C309 1.419 1_556 S
C308 C306 1.416 . S
C308 C313 1.425 . S
C308 C315 1.409 . S
C309 H301 0.930 . S
C309 C307 1.419 1_554 S
C309 C310 1.362 . S
C310 H302 0.930 . S
C310 C309 1.362 . S
C310 C313 1.409 . S
C311 H303 0.930 . S
C311 C312 1.355 . S
C311 C313 1.415 . S
C312 C311 1.355 . S
C312 C314 1.419 . S
C313 C308 1.425 . S
C313 C310 1.409 . S
C313 C311 1.415 . S
C314 H304 0.930 . S
C314 C312 1.419 . S
C314 C315 1.362 . S
C315 H305 0.930 . S
C315 C308 1.409 . S
C315 C314 1.362 . S
H316 C322 0.930 . S
H317 C325 0.930 . S
H318 C326 0.930 . S
H319 C327 0.930 . S
H320 C330 0.930 . S
H321 C331 0.930 . S
C322 H316 0.930 . S
C322 C323 1.355 . S
C322 C324 1.415 . S
C323 C322 1.355 . S
C323 C325 1.419 . S
C324 C322 1.415 . S
C324 C329 1.425 . S
C324 C331 1.409 . S
C325 H317 0.930 . S
C325 C323 1.419 . S
C325 C326 1.362 . S
C326 H318 0.930 . S
C326 C325 1.362 . S
C326 C329 1.409 . S
C327 H319 0.930 . S
C327 C328 1.355 . S
C327 C329 1.415 . S
C328 C327 1.355 . S
C328 C330 1.419 . S
C329 C324 1.425 . S
C329 C326 1.409 . S
C329 C327 1.415 . S
C330 H320 0.930 . S
C330 C328 1.419 . S
C330 C331 1.362 . S
C331 H321 0.930 . S
C331 C324 1.409 . S
C331 C330 1.362 . S
H332 C338 0.930 1_554 S
H333 C341 0.930 1_554 S
H334 C342 0.930 . S
H335 C343 0.930 . S
H336 C346 0.930 . S
H337 C347 0.930 . S
C338 H332 0.930 1_556 S
C338 C339 1.355 1_556 S
C338 C340 1.415 . S
C339 C338 1.355 1_554 S
C339 C341 1.419 1_554 S
C340 C338 1.415 . S
C340 C345 1.425 . S
C340 C347 1.409 . S
C341 H333 0.930 1_556 S
C341 C339 1.419 1_556 S
C341 C342 1.362 . S
C342 H334 0.930 . S
C342 C341 1.362 . S
C342 C345 1.409 . S
C343 H335 0.930 . S
C343 C344 1.355 . S
C343 C345 1.415 . S
C344 C343 1.355 . S
C344 C346 1.419 . S
C345 C340 1.425 . S
C345 C342 1.409 . S
C345 C343 1.415 . S
C346 H336 0.930 . S
C346 C344 1.419 . S
C346 C347 1.362 . S
C347 H337 0.930 . S
C347 C340 1.409 . S
C347 C346 1.362 . S
H348 C354 0.930 . S
H349 C357 0.930 . S
H350 C358 0.930 . S
H351 C359 0.930 . S
H352 C362 0.930 . S
H353 C363 0.930 . S
C354 H348 0.930 . S
C354 C355 1.355 . S
C354 C356 1.415 . S
C355 C354 1.355 . S
C355 C357 1.419 . S
C356 C354 1.415 . S
C356 C361 1.425 . S
C356 C363 1.409 . S
C357 H349 0.930 . S
C357 C355 1.419 . S
C357 C358 1.362 . S
C358 H350 0.930 . S
C358 C357 1.362 . S
C358 C361 1.409 . S
C359 H351 0.930 . S
C359 C360 1.355 . S
C359 C361 1.415 . S
C360 C359 1.355 . S
C360 C362 1.419 . S
C361 C356 1.425 . S
C361 C358 1.409 . S
C361 C359 1.415 . S
C362 H352 0.930 . S
C362 C360 1.419 . S
C362 C363 1.362 . S
C363 H353 0.930 . S
C363 C356 1.409 . S
C363 C362 1.362 . S
H364 C370 0.930 . S
H365 C373 0.930 . S
H366 C374 0.930 . S
H367 C375 0.930 . S
H368 C378 0.930 . S
H369 C379 0.930 . S
C370 H364 0.930 . S
C370 C371 1.355 1_556 S
C370 C372 1.415 . S
C371 C370 1.355 1_554 S
C371 C373 1.419 . S
C372 C370 1.415 . S
C372 C377 1.425 . S
C372 C379 1.409 . S
C373 H365 0.930 . S
C373 C371 1.419 . S
C373 C374 1.362 1_554 S
C374 H366 0.930 . S
C374 C373 1.362 1_556 S
C374 C377 1.409 . S
C375 H367 0.930 . S
C375 C376 1.355 . S
C375 C377 1.415 . S
C376 C375 1.355 . S
C376 C378 1.419 . S
C377 C372 1.425 . S
C377 C374 1.409 . S
C377 C375 1.415 . S
C378 H368 0.930 . S
C378 C376 1.419 . S
C378 C379 1.362 . S
C379 H369 0.930 . S
C379 C372 1.409 . S
C379 C378 1.362 . S
H380 C386 0.930 . S
H381 C389 0.930 . S
H382 C390 0.930 . S
H383 C391 0.930 . S
H384 C394 0.930 . S
H385 C395 0.930 . S
C386 H380 0.930 . S
C386 C387 1.355 . S
C386 C388 1.415 . S
C387 C386 1.355 . S
C387 C389 1.419 . S
C388 C386 1.415 . S
C388 C393 1.425 . S
C388 C395 1.409 . S
C389 H381 0.930 . S
C389 C387 1.419 . S
C389 C390 1.362 . S
C390 H382 0.930 . S
C390 C389 1.362 . S
C390 C393 1.409 . S
C391 H383 0.930 . S
C391 C392 1.355 . S
C391 C393 1.415 . S
C392 C391 1.355 . S
C392 C394 1.419 . S
C393 C388 1.425 . S
C393 C390 1.409 . S
C393 C391 1.415 . S
C394 H384 0.930 . S
C394 C392 1.419 . S
C394 C395 1.362 . S
C395 H385 0.930 . S
C395 C388 1.409 . S
C395 C394 1.362 . S
H396 C402 0.930 1_556 S
H397 C405 0.930 . S
H398 C406 0.930 . S
H399 C407 0.930 . S
H400 C410 0.930 . S
H401 C411 0.930 . S
C402 H396 0.930 1_554 S
C402 C403 1.355 1_554 S
C402 C404 1.415 . S
C403 C402 1.355 1_556 S
C403 C405 1.419 . S
C404 C402 1.415 . S
C404 C409 1.425 . S
C404 C411 1.409 . S
C405 H397 0.930 . S
C405 C403 1.419 . S
C405 C406 1.362 1_556 S
C406 H398 0.930 . S
C406 C405 1.362 1_554 S
C406 C409 1.409 . S
C407 H399 0.930 . S
C407 C408 1.355 . S
C407 C409 1.415 . S
C408 C407 1.355 . S
C408 C410 1.419 . S
C409 C404 1.425 . S
C409 C406 1.409 . S
C409 C407 1.415 . S
C410 H400 0.930 . S
C410 C408 1.419 . S
C410 C411 1.362 . S
C411 H401 0.930 . S
C411 C404 1.409 . S
C411 C410 1.362 . S
H412 C418 0.930 . S
H413 C421 0.930 . S
H414 C422 0.930 . S
H415 C423 0.930 . S
H416 C426 0.930 . S
H417 C427 0.930 . S
C418 H412 0.930 . S
C418 C419 1.355 . S
C418 C420 1.415 . S
C419 C418 1.355 . S
C419 C421 1.419 . S
C420 C418 1.415 . S
C420 C425 1.425 . S
C420 C427 1.409 . S
C421 H413 0.930 . S
C421 C419 1.419 . S
C421 C422 1.362 . S
C422 H414 0.930 . S
C422 C421 1.362 . S
C422 C425 1.409 . S
C423 H415 0.930 . S
C423 C424 1.355 . S
C423 C425 1.415 . S
C424 C423 1.355 . S
C424 C426 1.419 . S
C425 C420 1.425 . S
C425 C422 1.409 . S
C425 C423 1.415 . S
C426 H416 0.930 . S
C426 C424 1.419 . S
C426 C427 1.362 . S
C427 H417 0.930 . S
C427 C420 1.409 . S
C427 C426 1.362 . S
H428 C434 0.930 . S
H429 C437 0.930 . S
H430 C438 0.930 . S
H431 C439 0.930 . S
H432 C442 0.930 . S
H433 C443 0.930 . S
C434 H428 0.930 . S
C434 C435 1.355 . S
C434 C436 1.415 . S
C435 C434 1.355 . S
C435 C437 1.419 . S
C436 C434 1.415 . S
C436 C441 1.425 . S
C436 C443 1.409 . S
C437 H429 0.930 . S
C437 C435 1.419 . S
C437 C438 1.362 . S
C438 H430 0.930 . S
C438 C437 1.362 . S
C438 C441 1.409 . S
C439 H431 0.930 . S
C439 C440 1.355 . S
C439 C441 1.415 . S
C440 C439 1.355 . S
C440 C442 1.419 . S
C441 C436 1.425 . S
C441 C438 1.409 . S
C441 C439 1.415 . S
C442 H432 0.930 . S
C442 C440 1.419 . S
C442 C443 1.362 . S
C443 H433 0.930 . S
C443 C436 1.409 . S
C443 C442 1.362 . S
H444 C450 0.930 . S
H445 C453 0.930 . S
H446 C454 0.930 . S
H447 C455 0.930 . S
H448 C458 0.930 . S
H449 C459 0.930 . S
C450 H444 0.930 . S
C450 C451 1.355 . S
C450 C452 1.415 . S
C451 C450 1.355 . S
C451 C453 1.419 . S
C452 C450 1.415 . S
C452 C457 1.425 . S
C452 C459 1.409 . S
C453 H445 0.930 . S
C453 C451 1.419 . S
C453 C454 1.362 . S
C454 H446 0.930 . S
C454 C453 1.362 . S
C454 C457 1.409 . S
C455 H447 0.930 . S
C455 C456 1.355 . S
C455 C457 1.415 . S
C456 C455 1.355 . S
C456 C458 1.419 . S
C457 C452 1.425 . S
C457 C454 1.409 . S
C457 C455 1.415 . S
C458 H448 0.930 . S
C458 C456 1.419 . S
C458 C459 1.362 . S
C459 H449 0.930 . S
C459 C452 1.409 . S
C459 C458 1.362 . S
H460 C466 0.930 . S
H461 C469 0.930 . S
H462 C470 0.930 . S
H463 C471 0.930 . S
H464 C474 0.930 . S
H465 C475 0.930 . S
C466 H460 0.930 . S
C466 C467 1.355 . S
C466 C468 1.415 . S
C467 C466 1.355 . S
C467 C469 1.419 . S
C468 C466 1.415 . S
C468 C473 1.425 . S
C468 C475 1.409 . S
C469 H461 0.930 . S
C469 C467 1.419 . S
C469 C470 1.362 . S
C470 H462 0.930 . S
C470 C469 1.362 . S
C470 C473 1.409 . S
C471 H463 0.930 . S
C471 C472 1.355 . S
C471 C473 1.415 . S
C472 C471 1.355 . S
C472 C474 1.419 . S
C473 C468 1.425 . S
C473 C470 1.409 . S
C473 C471 1.415 . S
C474 H464 0.930 . S
C474 C472 1.419 . S
C474 C475 1.362 . S
C475 H465 0.930 . S
C475 C468 1.409 . S
C475 C474 1.362 . S
H476 C482 0.930 . S
H477 C485 0.930 . S
H478 C486 0.930 . S
H479 C487 0.930 . S
H480 C490 0.930 . S
H481 C491 0.930 . S
C482 H476 0.930 . S
C482 C483 1.355 . S
C482 C484 1.415 . S
C483 C482 1.355 . S
C483 C485 1.419 . S
C484 C482 1.415 . S
C484 C489 1.425 . S
C484 C491 1.409 . S
C485 H477 0.930 . S
C485 C483 1.419 . S
C485 C486 1.362 . S
C486 H478 0.930 . S
C486 C485 1.362 . S
C486 C489 1.409 . S
C487 H479 0.930 . S
C487 C488 1.355 . S
C487 C489 1.415 . S
C488 C487 1.355 . S
C488 C490 1.419 . S
C489 C484 1.425 . S
C489 C486 1.409 . S
C489 C487 1.415 . S
C490 H480 0.930 . S
C490 C488 1.419 . S
C490 C491 1.362 . S
C491 H481 0.930 . S
C491 C484 1.409 . S
C491 C490 1.362 . S
H492 C498 0.930 . S
H493 C501 0.930 . S
H494 C502 0.930 . S
H495 C503 0.930 . S
H496 C506 0.930 . S
H497 C507 0.930 . S
C498 H492 0.930 . S
C498 C499 1.355 . S
C498 C500 1.415 . S
C499 C498 1.355 . S
C499 C501 1.419 . S
C500 C498 1.415 . S
C500 C505 1.425 . S
C500 C507 1.409 . S
C501 H493 0.930 . S
C501 C499 1.419 . S
C501 C502 1.362 . S
C502 H494 0.930 . S
C502 C501 1.362 . S
C502 C505 1.409 . S
C503 H495 0.930 . S
C503 C504 1.355 . S
C503 C505 1.415 . S
C504 C503 1.355 . S
C504 C506 1.419 . S
C505 C500 1.425 . S
C505 C502 1.409 . S
C505 C503 1.415 . S
C506 H496 0.930 . S
C506 C504 1.419 . S
C506 C507 1.362 . S
C507 H497 0.930 . S
C507 C500 1.409 . S
C507 C506 1.362 . S
H508 C514 0.930 . S
H509 C517 0.930 . S
H510 C518 0.930 . S
H511 C519 0.930 . S
H512 C522 0.930 . S
H513 C523 0.930 . S
C514 H508 0.930 . S
C514 C515 1.355 . S
C514 C516 1.415 . S
C515 C514 1.355 . S
C515 C517 1.419 . S
C516 C514 1.415 . S
C516 C521 1.425 . S
C516 C523 1.409 . S
C517 H509 0.930 . S
C517 C515 1.419 . S
C517 C518 1.362 . S
C518 H510 0.930 . S
C518 C517 1.362 . S
C518 C521 1.409 . S
C519 H511 0.930 . S
C519 C520 1.355 . S
C519 C521 1.415 . S
C520 C519 1.355 . S
C520 C522 1.419 . S
C521 C516 1.425 . S
C521 C518 1.409 . S
C521 C519 1.415 . S
C522 H512 0.930 . S
C522 C520 1.419 . S
C522 C523 1.362 . S
C523 H513 0.930 . S
C523 C516 1.409 . S
C523 C522 1.362 . S
H524 C530 0.930 . S
H525 C533 0.930 . S
H526 C534 0.930 . S
H527 C535 0.930 . S
H528 C538 0.930 . S
H529 C539 0.930 . S
C530 H524 0.930 . S
C530 C531 1.355 . S
C530 C532 1.415 . S
C531 C530 1.355 . S
C531 C533 1.419 . S
C532 C530 1.415 . S
C532 C537 1.425 . S
C532 C539 1.409 . S
C533 H525 0.930 . S
C533 C531 1.419 . S
C533 C534 1.362 . S
C534 H526 0.930 . S
C534 C533 1.362 . S
C534 C537 1.409 . S
C535 H527 0.930 . S
C535 C536 1.355 . S
C535 C537 1.415 . S
C536 C535 1.355 . S
C536 C538 1.419 . S
C537 C532 1.425 . S
C537 C534 1.409 . S
C537 C535 1.415 . S
C538 H528 0.930 . S
C538 C536 1.419 . S
C538 C539 1.362 . S
C539 H529 0.930 . S
C539 C532 1.409 . S
C539 C538 1.362 . S
H540 C546 0.930 . S
H541 C549 0.930 . S
H542 C550 0.930 . S
H543 C551 0.930 . S
H544 C554 0.930 . S
H545 C555 0.930 . S
C546 H540 0.930 . S
C546 C547 1.355 . S
C546 C548 1.415 . S
C547 C546 1.355 . S
C547 C549 1.419 . S
C548 C546 1.415 . S
C548 C553 1.425 . S
C548 C555 1.409 . S
C549 H541 0.930 . S
C549 C547 1.419 . S
C549 C550 1.362 . S
C550 H542 0.930 . S
C550 C549 1.362 . S
C550 C553 1.409 . S
C551 H543 0.930 . S
C551 C552 1.355 . S
C551 C553 1.415 . S
C552 C551 1.355 . S
C552 C554 1.419 . S
C553 C548 1.425 . S
C553 C550 1.409 . S
C553 C551 1.415 . S
C554 H544 0.930 . S
C554 C552 1.419 . S
C554 C555 1.362 . S
C555 H545 0.930 . S
C555 C548 1.409 . S
C555 C554 1.362 . S
C179 C71 1.417 . S
C184 C104 1.378 . S
C200 C112 1.321 . S
C195 C81 1.378 . S
C216 C116 1.392 . S
C211 C49 1.407 . S
C227 C59 1.390 . S
C232 C92 1.249 . S
C248 C133 1.392 . S
C243 C27 1.415 . S
C264 C167 1.365 . S
C259 C38 1.447 . S
C275 C5 1.421 . S
C280 C155 1.304 . S
C291 C16 1.425 . S
C296 C137 1.438 . S
C312 C91 1.232 . S
C307 C15 1.438 . S
C328 C125 1.298 . S
C323 C4 1.444 . S
C344 C129 1.237 . S
C339 C37 1.431 . S
C360 C107 1.371 . S
C355 C26 1.447 . S
C376 C146 1.429 . S
C371 C60 1.466 . S
C387 C48 1.514 . S
C392 C154 1.329 . S
C408 C170 1.366 . S
C403 C82 1.513 . S
C419 C70 1.480 . S
C424 C150 1.391 . S
C440 C95 1.365 . S
C435 C10 1.492 . S
C456 C113 1.363 . S
C451 C21 1.518 . S
C467 C32 1.467 . S
C472 C128 1.344 . S
C488 C108 1.319 . S
C483 C43 1.516 . S
C504 C134 1.375 . S
C499 C54 1.559 . S
C515 C65 1.504 . S
C520 C158 1.313 . S
C531 C76 1.547 . S
C536 C171 1.379 . S
C547 C87 1.511 . S
C552 C149 1.286 . S
