# Generated by pormake.
# Topology zzz, (3,6)-cn, num edge types: 1
# Building blocks:
#     Node 0, Type 0, BuildingBlock: BETDIP_clean_linker_0, # of connection points: 3
#     Node 1, Type 0, BuildingBlock: BETDIP_clean_linker_0, # of connection points: 3
#     Node 2, Type 0, BuildingBlock: BETDIP_clean_linker_0, # of connection points: 3
#     Node 3, Type 0, BuildingBlock: BETDIP_clean_linker_0, # of connection points: 3
#     Node 4, Type 0, BuildingBlock: BETDIP_clean_linker_0, # of connection points: 3
#     Node 5, Type 0, BuildingBlock: BETDIP_clean_linker_0, # of connection points: 3
#     Node 6, Type 0, BuildingBlock: BETDIP_clean_linker_0, # of connection points: 3
#     Node 7, Type 0, BuildingBlock: BETDIP_clean_linker_0, # of connection points: 3
#     Node 8, Type 1, BuildingBlock: KUMJIN_clean_sbu_0, # of connection points: 6
#     Node 9, Type 1, BuildingBlock: KUMJIN_clean_sbu_0, # of connection points: 6
#     Node 10, Type 1, BuildingBlock: KUMJIN_clean_sbu_0, # of connection points: 6
#     Node 11, Type 1, BuildingBlock: KUMJIN_clean_sbu_0, # of connection points: 6
#     Edge 12, Type (0, 1), BuildingBlock: OJICUG_clean_linker_0, # of connection points: 2
#     Edge 13, Type (0, 1), BuildingBlock: OJICUG_clean_linker_0, # of connection points: 2
#     Edge 14, Type (0, 1), BuildingBlock: OJICUG_clean_linker_0, # of connection points: 2
#     Edge 15, Type (0, 1), BuildingBlock: OJICUG_clean_linker_0, # of connection points: 2
#     Edge 16, Type (0, 1), BuildingBlock: OJICUG_clean_linker_0, # of connection points: 2
#     Edge 17, Type (0, 1), BuildingBlock: OJICUG_clean_linker_0, # of connection points: 2
#     Edge 18, Type (0, 1), BuildingBlock: OJICUG_clean_linker_0, # of connection points: 2
#     Edge 19, Type (0, 1), BuildingBlock: OJICUG_clean_linker_0, # of connection points: 2
#     Edge 20, Type (0, 1), BuildingBlock: OJICUG_clean_linker_0, # of connection points: 2
#     Edge 21, Type (0, 1), BuildingBlock: OJICUG_clean_linker_0, # of connection points: 2
#     Edge 22, Type (0, 1), BuildingBlock: OJICUG_clean_linker_0, # of connection points: 2
#     Edge 23, Type (0, 1), BuildingBlock: OJICUG_clean_linker_0, # of connection points: 2
#     Edge 24, Type (0, 1), BuildingBlock: OJICUG_clean_linker_0, # of connection points: 2
#     Edge 25, Type (0, 1), BuildingBlock: OJICUG_clean_linker_0, # of connection points: 2
#     Edge 26, Type (0, 1), BuildingBlock: OJICUG_clean_linker_0, # of connection points: 2
#     Edge 27, Type (0, 1), BuildingBlock: OJICUG_clean_linker_0, # of connection points: 2
#     Edge 28, Type (0, 1), BuildingBlock: OJICUG_clean_linker_0, # of connection points: 2
#     Edge 29, Type (0, 1), BuildingBlock: OJICUG_clean_linker_0, # of connection points: 2
#     Edge 30, Type (0, 1), BuildingBlock: OJICUG_clean_linker_0, # of connection points: 2
#     Edge 31, Type (0, 1), BuildingBlock: OJICUG_clean_linker_0, # of connection points: 2
#     Edge 32, Type (0, 1), BuildingBlock: OJICUG_clean_linker_0, # of connection points: 2
#     Edge 33, Type (0, 1), BuildingBlock: OJICUG_clean_linker_0, # of connection points: 2
#     Edge 34, Type (0, 1), BuildingBlock: OJICUG_clean_linker_0, # of connection points: 2
#     Edge 35, Type (0, 1), BuildingBlock: OJICUG_clean_linker_0, # of connection points: 2
# Relax obj value: 0.236
# Max RMSD: 0.183
# Mean RMSD: 0.118
data_MOF--net-zzz--node1-KUMJIN_clean_sbu_0--node2-BETDIP_clean_linker_0--edge1-OJICUG_clean_linker_0
_symmetry_space_group_name_H-M    P1
_symmetry_Int_Tables_number       1
_symmetry_cell_setting            triclinic
loop_
_symmetry_equiv_pos_as_xyz
'x, y, z'
_cell_length_a     36.676609
_cell_length_b     36.719777
_cell_length_c     10.920378
_cell_angle_alpha  92.191856
_cell_angle_beta   90.213317
_cell_angle_gamma 90.023171
loop_
_atom_site_label
_atom_site_type_symbol
_atom_site_fract_x
_atom_site_fract_y
_atom_site_fract_z
_atom_type_partial_charge
H0 H 0.77251 0.57199 0.54185 0.0
H1 H 0.75184 0.5469 0.15768 0.0
H2 H 0.85994 0.53734 0.29879 0.0
H3 H 0.71564 0.60822 0.21269 0.0
C4 C 0.69974 0.58767 0.25782 0.0
C5 C 0.78231 0.56397 0.45145 0.0
C6 C 0.82059 0.55547 0.43392 0.0
C7 C 0.75702 0.56191 0.34892 0.0
C8 C 0.77038 0.55036 0.23478 0.0
C9 C 0.80679 0.5417 0.21791 0.0
C10 C 0.83168 0.54476 0.31517 0.0
N11 N 0.71821 0.56927 0.35583 0.0
H12 H 1.01665 0.7968 0.48736 0.0
H13 H 0.05684 0.77212 0.12062 0.0
H14 H 0.07211 0.87848 0.27982 0.0
H15 H 0.98995 0.74243 0.12802 0.0
C16 C 1.00525 0.72473 0.18697 0.0
C17 C 0.03009 0.80533 0.40519 0.0
C18 C 0.04462 0.84216 0.40118 0.0
C19 C 0.0335 0.77962 0.30067 0.0
C20 C 0.05221 0.79106 0.1976 0.0
C21 C 0.0666 0.82594 0.1937 0.0
C22 C 0.06175 0.85117 0.29119 0.0
N23 N 1.02092 0.74195 0.29751 0.0
H24 H 0.77634 0.03885 0.45698 0.0
H25 H 0.81419 0.97919 0.13361 0.0
H26 H 0.70012 0.99505 0.1908 0.0
H27 H 0.86924 0.97435 0.29357 0.0
C28 C 0.8686 1.00258 0.26728 0.0
C29 C 0.77066 1.02218 0.37524 0.0
C30 C 0.73336 1.01368 0.34254 0.0
C31 C 0.80042 1.00985 0.29772 0.0
C32 C 0.79231 0.98795 0.19438 0.0
C33 C 0.75681 0.98533 0.15048 0.0
C34 C 0.7276 0.99659 0.22659 0.0
N35 N 0.83724 0.02377 0.30735 0.0
H36 H 0.54858 0.78568 0.43863 0.0
H37 H 0.45062 0.82686 0.27132 0.0
H38 H 0.44619 0.73063 0.47932 0.0
H39 H 0.49251 0.82768 0.11055 0.0
C40 C 0.51109 0.84624 0.1594 0.0
C41 C 0.51939 0.78443 0.42391 0.0
C42 C 0.49848 0.75636 0.47804 0.0
C43 C 0.50217 0.81017 0.34714 0.0
C44 C 0.4643 0.80755 0.32827 0.0
C45 C 0.44434 0.77812 0.37 0.0
C46 C 0.46123 0.75406 0.4493 0.0
N47 N 0.52234 0.83684 0.2809 0.0
H48 H 0.28808 0.53974 0.04658 0.0
H49 H 0.31139 0.47878 0.3671 0.0
H50 H 0.20059 0.49481 0.25403 0.0
H51 H 0.33842 0.53817 0.42006 0.0
C52 C 0.35732 0.53406 0.34461 0.0
C53 C 0.2789 0.52353 0.12125 0.0
C54 C 0.2408 0.51441 0.13112 0.0
C55 C 0.3046 0.51223 0.2125 0.0
C56 C 0.29194 0.48957 0.30297 0.0
C57 C 0.25477 0.48695 0.328 0.0
C58 C 0.22957 0.49734 0.23777 0.0
N59 N 0.34183 0.52545 0.22422 0.0
H60 H 0.06406 0.27857 0.08594 0.0
H61 H 0.97357 0.3208 0.30209 0.0
H62 H 0.9615 0.22105 0.0936 0.0
H63 H 0.99395 0.37577 0.22897 0.0
C64 C 1.02117 0.37284 0.26706 0.0
C65 C 0.03588 0.27701 0.11433 0.0
C66 C 1.01436 0.24516 0.07825 0.0
C67 C 1.02037 0.30642 0.19069 0.0
C68 C 0.98474 0.30167 0.23423 0.0
C69 C 0.964 0.27109 0.2005 0.0
C70 C 0.9781 0.24472 0.11777 0.0
N71 N 0.0402 0.33903 0.23381 0.0
H72 H 0.29613 0.05365 0.96514 0.0
H73 H 0.26305 0.97508 0.22863 0.0
H74 H 0.36592 0.96333 0.05039 0.0
H75 H 0.20372 0.99143 0.10808 0.0
C76 C 0.20792 1.01721 0.1585 0.0
C77 C 0.30135 0.02903 0.01366 0.0
C78 C 0.33421 1.0084 0.98818 0.0
C79 C 0.27475 1.01658 0.1005 0.0
C80 C 0.28214 0.98446 0.16122 0.0
C81 C 0.31462 0.96536 0.14256 0.0
C82 C 0.34009 0.97754 0.05805 0.0
N83 N 0.24167 0.03622 0.13408 0.0
H84 H 0.49275 0.29507 0.03492 0.0
H85 H 0.57198 0.25454 0.29036 0.0
H86 H 0.58787 0.35857 0.13554 0.0
H87 H 0.55116 0.1985 0.11511 0.0
C88 C 0.52795 0.20205 0.17606 0.0
C89 C 0.51824 0.29825 0.08446 0.0
C90 C 0.5399 0.33026 0.07022 0.0
C91 C 0.53065 0.26983 0.16108 0.0
C92 C 0.56332 0.27484 0.22687 0.0
C93 C 0.58384 0.3066 0.21729 0.0
C94 C 0.57233 0.33346 0.13823 0.0
N95 N 0.51021 0.23701 0.17891 0.0
Eu96 Eu 0.07425 0.03903 0.83327 0.0
C97 C 0.92959 1.00044 0.60061 0.0
C98 C 0.94345 0.94642 0.47491 0.0
C99 C 0.88307 0.95402 0.56256 0.0
C100 C 0.95439 0.97975 0.53268 0.0
C101 C 0.89323 0.98839 0.61213 0.0
C102 C 0.90816 0.93304 0.4942 0.0
C103 C 0.87805 0.04743 0.70256 0.0
N104 N 0.94003 0.03392 0.64519 0.0
C105 C 0.91423 0.05833 0.68774 0.0
C106 C 0.86765 1.01203 0.66703 0.0
Eu107 Eu 1.00245 0.05011 0.61625 0.0
N108 N 0.98801 0.99387 0.5128 0.0
C109 C 1.01034 0.97798 0.42639 0.0
C110 C 0.96749 0.92864 0.39339 0.0
C111 C 1.00066 0.94506 0.3664 0.0
H112 H 0.92183 0.086 0.71326 0.0
H113 H 1.01892 0.93225 0.30011 0.0
H114 H 0.89946 0.90732 0.45169 0.0
H115 H 0.85813 0.06645 0.74021 0.0
H116 H 0.036 0.99016 0.40485 0.0
H117 H 0.03843 0.05314 0.31375 0.0
H118 H 0.96005 0.90312 0.34675 0.0
H119 H 0.1079 0.1046 0.64954 0.0
H120 H 0.04868 1.0201 0.12195 0.0
H121 H 0.13749 0.16405 0.6709 0.0
H122 H 0.8554 0.94416 0.57173 0.0
H123 H 0.06633 0.11421 0.35482 0.0
H124 H 0.1031 0.16577 0.27492 0.0
H125 H 0.83947 1.00382 0.67711 0.0
H126 H 0.13083 0.19524 0.09964 0.0
N127 N 0.07186 0.06573 0.03485 0.0
C128 C 0.05796 0.04803 0.13204 0.0
C129 C 0.06884 0.10064 0.26537 0.0
C130 C 0.08702 0.11711 0.16983 0.0
C131 C 0.05359 0.06623 0.24452 0.0
C132 C 0.08746 0.09904 0.05314 0.0
H133 H 0.14371 0.19486 0.87495 0.0
N134 N 0.0988 0.09943 0.84105 0.0
C135 C 0.12788 0.15078 0.7515 0.0
C136 C 0.10221 0.11597 0.95395 0.0
C137 C 0.1113 0.11654 0.74013 0.0
C138 C 0.13141 0.16804 0.86674 0.0
C139 C 0.11803 0.15097 0.96956 0.0
O140 O 0.13179 0.02789 0.79619 0.0
O141 O 0.04408 1.00944 0.67731 0.0
O142 O 0.9732 0.03436 0.79143 0.0
O143 O 1.01944 0.03228 0.93651 0.0
O144 O 0.05149 0.9806 0.83166 0.0
O145 O 0.10743 1.00924 0.96169 0.0
O146 O 0.97937 0.05469 0.43278 0.0
O147 O 0.0412 0.08166 0.74388 0.0
O148 O 0.10502 0.03954 0.65203 0.0
O149 O 0.05804 0.04399 0.51097 0.0
O150 O 0.9876 0.09862 0.74511 0.0
O151 O 0.99796 0.10304 0.5295 0.0
C152 C 0.03839 0.97813 0.72159 0.0
C153 C 0.15284 0.97213 0.86671 0.0
C154 C 0.15019 0.90606 0.87526 0.0
C155 C 0.13391 0.94034 0.89294 0.0
C156 C 0.18565 0.90358 0.82792 0.0
C157 C 0.18815 0.96945 0.81809 0.0
C158 C 0.20435 0.93524 0.79804 0.0
C159 C 0.98433 0.03136 0.90573 0.0
C160 C 0.13596 1.00799 0.89091 0.0
C161 C 0.11893 0.16836 0.08627 0.0
C162 C 0.10319 0.15159 0.18606 0.0
C163 C 1.01914 0.10493 0.79376 0.0
C164 C 0.94181 0.10677 0.42284 0.0
C165 C 0.93878 0.14469 0.41903 0.0
C166 C 0.90436 0.16148 0.41037 0.0
C167 C 0.87279 0.14006 0.40728 0.0
C168 C 0.90977 0.0856 0.41714 0.0
C169 C 0.87556 0.10229 0.41207 0.0
C170 C 0.09354 0.04137 0.53775 0.0
C171 C 0.97815 0.08996 0.43933 0.0
H172 H 0.10699 0.94224 0.93326 0.0
H173 H 0.19897 0.87736 0.81625 0.0
H174 H 0.20324 0.99376 0.79677 0.0
H175 H 0.23172 0.93332 0.76164 0.0
H176 H 0.9634 0.16107 0.4194 0.0
H177 H 0.84615 0.1525 0.39947 0.0
H178 H 0.91098 0.05622 0.41941 0.0
H179 H 0.85103 0.08605 0.41159 0.0
Eu180 Eu 0.54113 0.05867 0.78011 0.0
C181 C 0.59815 0.95787 0.44779 0.0
C182 C 0.6036 0.97686 0.23886 0.0
C183 C 0.64971 0.93753 0.32239 0.0
C184 C 0.584 0.97618 0.34962 0.0
C185 C 0.63114 0.93814 0.43449 0.0
C186 C 0.63604 0.95705 0.22508 0.0
C187 C 0.62644 0.92245 0.64588 0.0
N188 N 0.58045 0.9602 0.55698 0.0
C189 C 0.59417 0.94254 0.65525 0.0
C190 C 0.645 0.92015 0.53499 0.0
Eu191 Eu 0.52257 0.98992 0.55522 0.0
N192 N 0.55122 0.99323 0.36143 0.0
C193 C 0.53513 1.00768 0.26116 0.0
C194 C 0.58997 0.99752 0.14467 0.0
C195 C 0.55545 1.01297 0.15608 0.0
H196 H 0.58069 0.94336 0.74162 0.0
H197 H 0.54443 0.02927 0.08533 0.0
H198 H 0.65056 0.95644 0.13891 0.0
H199 H 0.63701 0.90879 0.72462 0.0
H200 H 0.50739 1.01767 0.26509 0.0
H201 H 0.43911 0.0267 0.13115 0.0
H202 H 0.60533 1.00027 0.06128 0.0
H203 H 0.56346 0.14062 0.67424 0.0
H204 H 0.4838 1.01265 0.97395 0.0
H205 H 0.54549 0.20504 0.70273 0.0
H206 H 0.67499 0.92255 0.31067 0.0
H207 H 0.41928 0.09014 0.17231 0.0
H208 H 0.42299 0.15557 0.12123 0.0
H209 H 0.67021 0.90483 0.52836 0.0
H210 H 0.45053 0.20364 1.00167 0.0
N211 N 0.4926 0.06786 0.92526 0.0
C212 C 0.47713 0.04073 0.99059 0.0
C213 C 0.43976 0.08427 0.10309 0.0
C214 C 0.45467 0.11196 0.03488 0.0
C215 C 0.45097 0.0485 0.08045 0.0
C216 C 0.48149 0.10294 0.94591 0.0
H217 H 0.49609 0.22233 0.84681 0.0
N218 N 0.52339 0.12107 0.79646 0.0
C219 C 0.53146 0.18429 0.75227 0.0
C220 C 0.49697 0.13016 0.87868 0.0
C221 C 0.54145 0.14773 0.73611 0.0
C222 C 0.50356 0.1939 0.83345 0.0
C223 C 0.48621 0.16687 0.89878 0.0
O224 O 0.57347 0.09773 0.89319 0.0
O225 O 0.56943 1.02032 0.64189 0.0
O226 O 0.51594 0.96219 0.7375 0.0
O227 O 0.54021 1.00402 0.88018 0.0
O228 O 0.58215 0.07448 0.63226 0.0
O229 O 0.58589 0.04083 0.89327 0.0
O230 O 0.51806 0.93085 0.55023 0.0
O231 O 0.49689 1.02031 0.71652 0.0
O232 O 0.5149 0.08799 0.62087 0.0
O233 O 0.52024 0.04529 0.46078 0.0
O234 O 0.46505 1.01461 0.56402 0.0
O235 O 0.48493 0.9617 0.42741 0.0
C236 C 0.59024 0.04255 0.58797 0.0
C237 C 0.63512 0.07997 0.87004 0.0
C238 C 0.69204 0.05023 0.81056 0.0
C239 C 0.66048 0.05219 0.88271 0.0
C240 C 0.69983 0.07879 0.73272 0.0
C241 C 0.64322 0.10859 0.79245 0.0
C242 C 0.67562 0.10805 0.72505 0.0
C243 C 0.52767 0.97089 0.84948 0.0
C244 C 0.59804 0.07361 0.91603 0.0
C245 C 0.45912 0.17565 0.98526 0.0
C246 C 0.44352 0.1483 0.05351 0.0
C247 C 0.46513 0.02768 0.67604 0.0
C248 C 0.46117 0.90505 0.49332 0.0
C249 C 0.42911 0.90797 0.42518 0.0
C250 C 0.39937 0.88507 0.44535 0.0
C251 C 0.40172 0.85834 0.53289 0.0
C252 C 0.46368 0.8777 0.58009 0.0
C253 C 0.43407 0.8545 0.59941 0.0
C254 C 0.5147 0.07929 0.50246 0.0
C255 C 0.49206 0.92958 0.46917 0.0
H256 H 0.65452 0.03106 0.94635 0.0
H257 H 0.72431 0.07834 0.67755 0.0
H258 H 0.62397 0.13047 0.77973 0.0
H259 H 0.68148 0.12985 0.66412 0.0
H260 H 0.42688 0.92863 0.35704 0.0
H261 H 0.37876 0.84067 0.54955 0.0
H262 H 0.48841 0.87415 0.63278 0.0
H263 H 0.4362 0.83361 0.66637 0.0
Eu264 Eu 0.56877 0.53659 0.69715 0.0
C265 C 0.4187 0.50702 0.93319 0.0
C266 C 0.37268 0.52585 0.78897 0.0
C267 C 0.35829 0.47953 0.93415 0.0
C268 C 0.40871 0.52772 0.83505 0.0
C269 C 0.39319 0.48357 0.98625 0.0
C270 C 0.34802 0.50069 0.83582 0.0
C271 C 0.43607 0.47476 0.15096 0.0
N272 N 0.45186 0.51314 0.98583 0.0
C273 C 0.46032 0.49846 0.0958 0.0
C274 C 0.40262 0.46677 0.09485 0.0
Eu275 Eu 0.49051 0.55585 0.89227 0.0
N276 N 0.43268 0.55284 0.79498 0.0
C277 C 0.42122 0.579 0.71791 0.0
C278 C 0.36173 0.55102 0.70324 0.0
C279 C 0.3859 0.57812 0.66931 0.0
H280 H 0.48606 0.50465 0.14013 0.0
H281 H 0.37736 0.59839 0.60578 0.0
H282 H 0.3204 0.49866 0.80059 0.0
H283 H 0.44315 0.46281 0.23695 0.0
H284 H 0.43939 0.60039 0.69161 0.0
H285 H 0.66778 0.47824 0.01445 0.0
H286 H 0.33429 0.55069 0.66639 0.0
H287 H 0.58848 0.5901 0.46435 0.0
H288 H 0.60986 0.48281 0.90737 0.0
H289 H 0.6367 0.63255 0.40224 0.0
H290 H 0.33843 0.46149 0.97318 0.0
H291 H 0.7169 0.52252 0.97975 0.0
H292 H 0.7397 0.57567 0.8662 0.0
H293 H 0.38366 0.44883 0.13882 0.0
H294 H 0.73091 0.61851 0.70113 0.0
N295 N 0.62388 0.53094 0.81326 0.0
C296 C 0.63021 0.50294 0.89011 0.0
C297 C 0.69109 0.52509 0.93241 0.0
C298 C 0.68557 0.55229 0.8484 0.0
C299 C 0.66348 0.49999 0.95181 0.0
C300 C 0.65145 0.55427 0.78813 0.0
H301 H 0.69279 0.63972 0.52711 0.0
N302 N 0.6152 0.57644 0.6296 0.0
C303 C 0.63976 0.61778 0.48555 0.0
C304 C 0.6467 0.57815 0.69473 0.0
C305 C 0.61243 0.59399 0.52151 0.0
C306 C 0.67128 0.62184 0.55649 0.0
C307 C 0.67562 0.60101 0.66012 0.0
O308 O 0.5721 0.47893 0.64116 0.0
O309 O 0.50726 0.5344 0.70464 0.0
O310 O 0.49388 0.49349 0.87296 0.0
O311 O 0.55433 0.48759 0.81422 0.0
O312 O 0.52951 0.54893 0.54048 0.0
O313 O 0.5954 0.51909 0.52595 0.0
O314 O 0.47041 0.61157 0.91677 0.0
O315 O 0.55225 0.56044 0.88166 0.0
O316 O 0.55804 0.59794 0.68187 0.0
O317 O 0.50098 0.60522 0.77211 0.0
O318 O 0.5317 0.54668 0.04756 0.0
O319 O 0.47279 0.57717 0.07271 0.0
C320 C 0.49914 0.54309 0.59566 0.0
C321 C 0.62679 0.4631 0.54169 0.0
C322 C 0.65527 0.40372 0.50691 0.0
C323 C 0.62399 0.42567 0.51663 0.0
C324 C 0.68976 0.41958 0.52513 0.0
C325 C 0.66143 0.47877 0.56062 0.0
C326 C 0.69271 0.45696 0.55345 0.0
C327 C 0.52371 0.47353 0.85722 0.0
C328 C 0.59302 0.48471 0.54821 0.0
C329 C 0.70858 0.60092 0.72572 0.0
C330 C 0.7136 0.57651 0.8195 0.0
C331 C 0.56157 0.55274 0.99036 0.0
C332 C 0.4239 0.61983 0.0629 0.0
C333 C 0.41775 0.6568 0.08999 0.0
C334 C 0.38275 0.66961 0.12243 0.0
C335 C 0.35354 0.64506 0.12459 0.0
C336 C 0.39436 0.59555 0.06578 0.0
C337 C 0.35934 0.60819 0.09477 0.0
C338 C 0.52878 0.6179 0.70835 0.0
C339 C 0.4612 0.60782 0.03046 0.0
H340 H 0.59726 0.41386 0.49901 0.0
H341 H 0.71422 0.40323 0.51515 0.0
H342 H 0.66442 0.50773 0.57947 0.0
H343 H 0.71933 0.46922 0.56724 0.0
H344 H 0.44071 0.67546 0.0909 0.0
H345 H 0.32658 0.65427 0.15142 0.0
H346 H 0.39835 0.56682 0.04962 0.0
H347 H 0.33679 0.58926 0.0969 0.0
Eu348 Eu 0.04594 0.5773 0.6752 0.0
C349 C 0.08082 0.4794 0.07999 0.0
C350 C 0.11243 0.42514 1.00261 0.0
C351 C 0.12947 0.45241 0.19969 0.0
C352 C 0.08615 0.45285 0.98817 0.0
C353 C 0.10347 0.47991 0.18524 0.0
C354 C 0.13362 0.42482 0.10949 0.0
C355 C 0.07423 0.53537 0.25434 0.0
N356 N 0.05523 0.50582 0.06369 0.0
C357 C 0.0514 0.53309 0.15186 0.0
C358 C 0.10029 0.50867 0.27155 0.0
Eu359 Eu 0.02422 0.50396 0.86826 0.0
N360 N 0.06753 0.45557 0.88094 0.0
C361 C 0.07185 0.42942 0.78942 0.0
C362 C 0.11741 0.39903 0.90773 0.0
C363 C 0.09681 0.40106 0.801 0.0
H364 H 0.03144 0.554 0.14583 0.0
H365 H 0.10009 0.38076 0.72736 0.0
H366 H 0.15393 0.40384 0.12199 0.0
H367 H 0.07172 0.55803 0.31987 0.0
H368 H 0.05573 0.42982 0.70761 0.0
H369 H 1.01287 0.71519 0.85076 0.0
H370 H 0.13716 0.3773 0.91582 0.0
H371 H 1.0099 0.53135 0.42766 0.0
H372 H 0.04149 0.6547 0.85183 0.0
H373 H 0.96922 0.54221 0.25489 0.0
H374 H 0.14649 0.45219 0.2806 0.0
H375 H 0.97443 0.73201 0.67526 0.0
H376 H 0.9463 0.71431 0.47225 0.0
H377 H 0.11794 0.5106 0.3514 0.0
H378 H 0.9347 0.66745 0.31019 0.0
N379 N 1.01744 0.6358 0.68407 0.0
C380 C 0.02339 0.66087 0.77773 0.0
C381 C 0.98653 0.7051 0.67629 0.0
C382 C 0.98112 0.6798 0.57897 0.0
C383 C 1.00792 0.69562 0.77587 0.0
C384 C 0.99771 0.64518 0.58435 0.0
H385 H 0.94262 0.6032 0.22951 0.0
N386 N 1.00784 0.58586 0.50083 0.0
C387 C 0.9759 0.56431 0.31959 0.0
C388 C 0.99258 0.61938 0.49006 0.0
C389 C 0.99932 0.55831 0.41805 0.0
C390 C 0.96104 0.59878 0.3053 0.0
C391 C 0.96901 0.62678 0.39152 0.0
O392 O 0.08967 0.5884 0.54596 0.0
O393 O 0.03271 0.51752 0.67605 0.0
O394 O 0.08541 0.50609 0.82616 0.0
O395 O 0.08809 0.56775 0.8325 0.0
O396 O 0.06831 0.53072 0.54518 0.0
O397 O 0.08366 0.62211 0.71093 0.0
O398 O 0.98771 0.46973 0.97259 0.0
O399 O 0.03479 0.56459 0.86991 0.0
O400 O 0.98326 0.57834 0.69278 0.0
O401 O 0.97327 0.51891 0.74942 0.0
O402 O 0.99259 0.54867 0.97906 0.0
O403 O 0.99942 0.4561 0.78169 0.0
C404 C 0.05216 0.50324 0.59154 0.0
C405 C 0.14289 0.60598 0.65931 0.0
C406 C 0.19196 0.56202 0.68779 0.0
C407 C 0.15952 0.57252 0.62974 0.0
C408 C 0.20833 0.58662 0.77372 0.0
C409 C 0.16008 0.63035 0.74322 0.0
C410 C 0.19266 0.62068 0.79975 0.0
C411 C 0.10435 0.53598 0.85048 0.0
C412 C 0.105 0.61262 0.62075 0.0
C413 C 0.95279 0.66128 0.38524 0.0
C414 C 0.95918 0.68787 0.47798 0.0
C415 C 1.0102 0.57698 0.94202 0.0
C416 C 0.94167 0.44133 0.84688 0.0
C417 C 0.915 0.46538 0.8904 0.0
C418 C 0.87874 0.46174 0.85118 0.0
C419 C 0.86904 0.43308 0.76872 0.0
C420 C 0.93196 0.41287 0.76346 0.0
C421 C 0.89572 0.40877 0.72482 0.0
C422 C 0.96118 0.54991 0.70286 0.0
C423 C 0.98007 0.44838 0.87664 0.0
H424 H 0.14673 0.55461 0.5614 0.0
H425 H 0.23299 0.57965 0.82206 0.0
H426 H 0.14751 0.65623 0.76874 0.0
H427 H 0.20538 0.63929 0.86627 0.0
H428 H 0.92255 0.48711 0.95565 0.0
H429 H 0.84104 0.42956 0.73868 0.0
H430 H 0.9525 0.39432 0.72672 0.0
H431 H 0.88836 0.38684 0.66042 0.0
C432 C 0.18305 0.05272 0.35178 0.0
C433 C 0.17839 0.02758 0.25191 0.0
H434 H 0.16064 0.07645 0.51978 0.0
C435 C 0.14501 1.00825 0.24626 0.0
H436 H 0.20835 0.06775 0.36181 0.0
C437 C 0.11752 1.01352 0.33553 0.0
C438 C 0.12206 0.03816 0.43632 0.0
H439 H 0.14034 0.98804 0.17306 0.0
H440 H 0.09307 0.99721 0.32709 0.0
C441 C 0.15555 0.05756 0.44305 0.0
C442 C 0.50009 0.17401 0.36695 0.0
C443 C 0.51884 0.17038 0.25475 0.0
H444 H 0.48387 0.14835 0.53293 0.0
C445 C 0.5333 0.13588 0.22167 0.0
H446 H 0.48893 0.20017 0.39654 0.0
C447 C 0.53033 0.10629 0.29902 0.0
C448 C 0.51292 0.10987 0.41341 0.0
H449 H 0.54816 0.13197 0.13658 0.0
H450 H 0.54368 0.08116 0.27165 0.0
C451 C 0.4974 0.14422 0.44553 0.0
C452 C 0.40604 0.50647 0.47665 0.0
C453 C 0.39676 0.53109 0.38493 0.0
H454 H 0.44477 0.49042 0.61438 0.0
C455 C 0.42229 0.55854 0.36129 0.0
H456 H 0.38672 0.48562 0.50068 0.0
C457 C 0.45536 0.56171 0.42834 0.0
C458 C 0.46371 0.5383 0.52449 0.0
H459 H 0.41578 0.57906 0.2965 0.0
H460 H 0.47384 0.58371 0.4084 0.0
C461 C 0.43907 0.50968 0.54414 0.0
C462 C 0.06744 0.41452 0.38982 0.0
C463 C 0.03154 0.40305 0.3617 0.0
H464 H 0.10212 0.45489 0.48216 0.0
C465 C 1.00305 0.42383 0.41707 0.0
H466 H 0.09025 0.39978 0.34952 0.0
C467 C 1.00974 0.45485 0.49479 0.0
C468 C 0.04539 0.46737 0.51915 0.0
H469 H 0.97495 0.41636 0.3983 0.0
H470 H 0.9867 0.46996 0.53205 0.0
C471 C 0.07419 0.44642 0.4657 0.0
C472 C 0.89595 0.04249 0.09902 0.0
C473 C 0.89894 1.01406 0.1817 0.0
H474 H 0.92004 0.07007 0.94768 0.0
C475 C 0.93099 0.99277 0.17469 0.0
H476 H 0.87174 0.05936 0.0995 0.0
C477 C 0.95905 0.99929 0.08998 0.0
C478 C 0.9556 0.02657 1.00394 0.0
H479 H 0.93393 0.97008 0.23347 0.0
H480 H 0.98284 0.98182 0.08849 0.0
C481 C 0.92364 0.04832 1.01071 0.0
C482 C 0.55008 0.899 0.08654 0.0
C483 C 0.51582 0.88252 0.1021 0.0
H484 H 0.58113 0.93851 0.98896 0.0
C485 C 0.48569 0.89713 0.04031 0.0
H486 H 0.57407 0.88775 0.12907 0.0
C487 C 0.48957 0.92667 0.96335 0.0
C488 C 0.52381 0.94259 0.9444 0.0
H489 H 0.45902 0.88473 0.04823 0.0
H490 H 0.46578 0.93644 0.91544 0.0
C491 C 0.55407 0.92832 1.00685 0.0
C492 C 0.65178 0.59879 0.09621 0.0
C493 C 0.66323 0.57817 0.19653 0.0
H494 H 0.61208 0.60744 0.95378 0.0
C495 C 0.64021 0.54945 0.22967 0.0
H496 H 0.66836 0.62131 0.06741 0.0
C497 C 0.60747 0.5415 0.16314 0.0
C498 C 0.59699 0.56134 0.05947 0.0
H499 H 0.6475 0.53299 0.30622 0.0
H500 H 0.59057 0.51919 0.19157 0.0
C501 C 0.61943 0.5907 0.02959 0.0
C502 C 0.97638 0.66985 0.07639 0.0
C503 C 1.00659 0.6846 0.14249 0.0
H504 H 0.95343 0.62533 0.96645 0.0
C505 C 0.03835 0.6628 0.14391 0.0
H506 H 0.95155 0.68566 0.07052 0.0
C507 C 0.03989 0.62831 0.07871 0.0
C508 C 1.00955 0.61402 1.01131 0.0
H509 H 0.06256 0.67307 0.19049 0.0
H510 H 0.06507 0.61294 0.0799 0.0
C511 C 0.97751 0.63514 0.01508 0.0
C512 C 0.9034 0.24168 0.21894 0.0
C513 C 0.93267 0.26043 0.27592 0.0
H514 H 0.87087 0.19341 0.22014 0.0
C515 C 0.93974 0.25505 0.4005 0.0
H516 H 0.89681 0.24611 0.12385 0.0
C517 C 0.92499 0.22485 0.45567 0.0
C518 C 0.90274 0.20064 0.38676 0.0
H519 H 0.96155 0.26972 0.44803 0.0
H520 H 0.93534 0.21747 0.54443 0.0
C521 C 0.88866 0.21137 0.27404 0.0
C522 C 0.32163 0.94026 0.35044 0.0
C523 C 0.32478 0.93528 0.22263 0.0
H524 H 0.34291 0.92602 0.52493 0.0
C525 C 0.34421 0.90502 0.17442 0.0
H526 H 0.30691 0.96332 0.39041 0.0
C527 C 0.36482 0.88372 0.25186 0.0
C528 C 0.36574 0.89226 0.378 0.0
H529 H 0.34645 0.90015 0.07625 0.0
H530 H 0.38334 0.86358 0.21202 0.0
C531 C 0.34202 0.91874 0.42782 0.0
C532 C 0.64528 0.33261 0.26284 0.0
C533 C 0.61348 0.31586 0.30495 0.0
H534 H 0.68499 0.37428 0.29938 0.0
C535 C 0.605 0.31886 0.43017 0.0
H536 H 0.65255 0.33021 0.16678 0.0
C537 C 0.62364 0.34401 0.5062 0.0
C538 C 0.65078 0.36612 0.45708 0.0
H539 H 0.58075 0.30603 0.46511 0.0
H540 H 0.61336 0.34987 0.59777 0.0
C541 C 0.66396 0.35771 0.33896 0.0
C542 C 0.26493 0.50506 0.54778 0.0
C543 C 0.24331 0.48612 0.45901 0.0
H544 H 0.26539 0.5456 0.69077 0.0
C545 C 0.2069 0.47905 0.48916 0.0
H546 H 0.29383 0.50902 0.53585 0.0
C547 C 0.19039 0.49954 0.58394 0.0
C548 C 0.21026 0.52755 0.6461 0.0
H549 H 0.19013 0.4617 0.43006 0.0
H550 H 0.16125 0.49678 0.59642 0.0
C551 C 0.24839 0.5264 0.63935 0.0
C552 C 0.12715 0.83799 0.1055 0.0
C553 C 0.08922 0.8362 0.09016 0.0
H554 H 0.17701 0.86109 0.04374 0.0
C555 C 0.07299 0.85009 0.98557 0.0
H556 H 0.13992 0.82736 0.18634 0.0
C557 C 0.09416 0.86915 0.90357 0.0
C558 C 0.13159 0.87459 0.92654 0.0
H559 H 0.04369 0.84891 0.97299 0.0
H560 H 0.08076 0.88268 0.82925 0.0
C561 C 0.14833 0.85691 0.02346 0.0
C562 C 0.77119 1.01056 0.95024 0.0
C563 C 0.75173 0.98456 0.01611 0.0
H564 H 0.76629 0.05312 0.82447 0.0
C565 C 0.72027 0.96906 0.96339 0.0
H566 H 0.79653 1.02214 0.98502 0.0
C567 C 0.70366 0.98615 0.8661 0.0
C568 C 0.71761 1.01979 0.82882 0.0
H569 H 0.7057 0.94777 1.00873 0.0
H570 H 0.6765 0.97736 0.83926 0.0
C571 C 0.75389 0.02848 0.85654 0.0
C572 C 0.41177 0.76465 0.17419 0.0
C573 C 0.41087 0.76567 0.30325 0.0
H574 H 0.40219 0.73178 1.01158 0.0
C575 C 0.38578 0.74301 0.36106 0.0
H576 H 0.42971 0.78237 0.1251 0.0
C577 C 0.3704 0.71342 0.29519 0.0
C578 C 0.37919 0.70744 0.17108 0.0
H579 H 0.38307 0.7443 0.4599 0.0
H580 H 0.35658 0.69257 0.34514 0.0
C581 C 0.39607 0.73541 0.10831 0.0
C582 C 0.80508 0.49052 0.06472 0.0
C583 C 0.81807 0.52527 0.10032 0.0
H584 H 0.81441 0.44257 0.95236 0.0
C585 C 0.84438 0.54228 0.03016 0.0
H586 H 0.78427 0.47739 0.11774 0.0
C587 C 0.86055 0.523 0.9328 0.0
C588 C 0.85154 0.48613 0.90893 0.0
H589 H 0.85402 0.56944 0.05556 0.0
H590 H 0.88295 0.53552 0.88559 0.0
C591 C 0.82189 0.47087 0.96924 0.0
C592 C 0.03697 0.20716 0.88651 0.0
C593 C 0.02672 0.20942 1.01144 0.0
H594 H 0.04348 0.17309 0.72112 0.0
C595 C 1.01795 0.17574 0.06425 0.0
H596 H 0.04265 0.23195 0.83951 0.0
C597 C 1.01677 0.14232 0.99507 0.0
C598 C 0.02669 0.13994 0.87068 0.0
H599 H 1.00915 0.17561 0.15885 0.0
H600 H 1.00727 0.11816 0.03913 0.0
C601 C 0.03705 0.17313 0.81781 0.0
C602 C 0.38158 0.98654 0.83083 0.0
C603 C 0.36403 1.01628 0.89331 0.0
H604 H 0.42651 0.96664 0.72133 0.0
C605 C 0.37908 0.05115 0.8748 0.0
H606 H 0.37081 0.95921 0.83713 0.0
C607 C 0.41125 0.05544 0.80288 0.0
C608 C 0.43023 0.02497 0.75085 0.0
H609 H 0.36691 0.07498 0.91941 0.0
H610 H 0.42178 0.08258 0.79069 0.0
C611 C 0.41393 0.9907 0.76342 0.0
C612 C 0.55859 0.37741 0.91986 0.0
C613 C 0.53073 0.36221 0.99104 0.0
H614 H 0.57867 0.42324 0.82507 0.0
C615 C 0.49818 0.38239 1.00433 0.0
H616 H 0.58401 0.36283 0.90595 0.0
C617 C 0.49485 0.41753 0.95522 0.0
C618 C 0.52426 0.43405 0.89457 0.0
H619 H 0.47607 0.37198 0.05832 0.0
H620 H 0.46957 0.43213 0.96834 0.0
C621 C 0.5556 0.41255 0.87384 0.0
C622 C 0.19631 0.49644 0.95983 0.0
C623 C 0.21059 0.52379 0.04077 0.0
H624 H 0.15295 0.47872 0.83791 0.0
C625 C 0.18955 0.55595 0.05643 0.0
H626 H 0.21046 0.47066 0.9486 0.0
C627 C 0.15593 0.56058 0.99302 0.0
C628 C 0.14159 0.53295 0.9129 0.0
H629 H 0.19843 0.57708 0.12173 0.0
H630 H 0.1406 0.58545 1.00979 0.0
C631 C 0.16271 0.5009 0.89751 0.0
C632 C 0.07351 0.89828 0.51286 0.0
C633 C 0.04411 0.8729 0.50342 0.0
H634 H 0.09422 0.95028 0.5807 0.0
C635 C 1.01379 0.88131 0.57947 0.0
H636 H 0.09849 0.89297 0.46285 0.0
C637 C 1.01206 0.91465 0.65233 0.0
C638 C 0.04004 0.94142 0.64948 0.0
H639 H 0.99052 0.86316 0.57794 0.0
H640 H 0.98792 0.92024 0.7066 0.0
C641 C 0.07128 0.93169 0.58163 0.0
C642 C 0.68908 1.00719 0.52398 0.0
C643 C 0.69921 0.02483 0.41643 0.0
H644 H 0.64771 0.99854 0.66086 0.0
C645 C 0.67258 0.04807 0.36663 0.0
H646 H 0.70787 0.9883 0.56436 0.0
C647 C 0.63783 0.05356 0.42175 0.0
C648 C 0.6273 0.03509 0.52707 0.0
H649 H 0.67841 0.0616 0.2825 0.0
H650 H 0.61868 0.07177 0.37968 0.0
C651 C 0.65402 1.0124 0.5782 0.0
C652 C 0.54004 0.70139 0.50489 0.0
C653 C 0.51357 0.72572 0.55265 0.0
H654 H 0.56532 0.64896 0.51386 0.0
C655 C 0.49489 0.71542 0.659 0.0
H656 H 0.55437 0.70763 0.42173 0.0
C657 C 0.50064 0.68129 0.71072 0.0
C658 C 0.52571 0.656 0.65948 0.0
H659 H 0.474 0.73309 0.69832 0.0
H660 H 0.48451 0.67437 0.78935 0.0
C661 C 0.54607 0.66723 0.55769 0.0
C662 C 0.87138 0.58725 0.56099 0.0
C663 C 0.85084 0.55547 0.53143 0.0
H664 H 0.92084 0.61084 0.63751 0.0
C665 C 0.86667 0.5221 0.56507 0.0
H666 H 0.86152 0.61339 0.5323 0.0
C667 C 0.90138 0.52045 0.62305 0.0
C668 C 0.92223 0.5521 0.65073 0.0
H669 H 0.85304 0.49674 0.53961 0.0
H670 H 0.91268 0.49396 0.64077 0.0
C671 C 0.90608 0.58563 0.61983 0.0
loop_
_geom_bond_atom_site_label_1
_geom_bond_atom_site_label_2
_geom_bond_distance
_geom_bond_site_symmetry_2
_ccdc_geom_bond_type
H0 C5 0.930 . S
H1 C8 0.930 . S
H2 C10 0.930 . S
H3 C4 1.016 . S
C4 H3 1.016 . S
C4 N11 1.286 . S
C5 H0 0.930 . S
C5 C6 1.397 . S
C5 C7 1.361 . S
C6 C5 1.397 . S
C6 C10 1.390 . S
C7 C5 1.361 . S
C7 C8 1.393 . S
C7 N11 1.413 . S
C8 H1 0.930 . S
C8 C7 1.393 . S
C8 C9 1.399 . S
C9 C8 1.399 . S
C9 C10 1.381 . S
C10 H2 0.930 . S
C10 C6 1.390 . S
C10 C9 1.381 . S
N11 C4 1.286 . S
N11 C7 1.413 . S
H12 C17 0.930 . S
H13 C20 0.930 . S
H14 C22 0.930 . S
H15 C16 1.016 . S
C16 H15 1.016 . S
C16 N23 1.286 . S
C17 H12 0.930 . S
C17 C18 1.397 . S
C17 C19 1.361 . S
C18 C17 1.397 . S
C18 C22 1.390 . S
C19 C17 1.361 . S
C19 C20 1.393 . S
C19 N23 1.413 . S
C20 H13 0.930 . S
C20 C19 1.393 . S
C20 C21 1.399 . S
C21 C20 1.399 . S
C21 C22 1.381 . S
C22 H14 0.930 . S
C22 C18 1.390 . S
C22 C21 1.381 . S
N23 C16 1.286 . S
N23 C19 1.413 . S
H24 C29 0.930 . S
H25 C32 0.930 . S
H26 C34 0.930 . S
H27 C28 1.016 . S
C28 H27 1.016 . S
C28 N35 1.286 . S
C29 H24 0.930 . S
C29 C30 1.397 . S
C29 C31 1.361 . S
C30 C29 1.397 . S
C30 C34 1.390 . S
C31 C29 1.361 . S
C31 C32 1.393 . S
C31 N35 1.413 . S
C32 H25 0.930 . S
C32 C31 1.393 . S
C32 C33 1.399 . S
C33 C32 1.399 . S
C33 C34 1.381 . S
C34 H26 0.930 . S
C34 C30 1.390 . S
C34 C33 1.381 . S
N35 C28 1.286 . S
N35 C31 1.413 . S
H36 C41 0.930 . S
H37 C44 0.930 . S
H38 C46 0.930 . S
H39 C40 1.016 . S
C40 H39 1.016 . S
C40 N47 1.286 . S
C41 H36 0.930 . S
C41 C42 1.397 . S
C41 C43 1.361 . S
C42 C41 1.397 . S
C42 C46 1.390 . S
C43 C41 1.361 . S
C43 C44 1.393 . S
C43 N47 1.413 . S
C44 H37 0.930 . S
C44 C43 1.393 . S
C44 C45 1.399 . S
C45 C44 1.399 . S
C45 C46 1.381 . S
C46 H38 0.930 . S
C46 C42 1.390 . S
C46 C45 1.381 . S
N47 C40 1.286 . S
N47 C43 1.413 . S
H48 C53 0.930 . S
H49 C56 0.930 . S
H50 C58 0.930 . S
H51 C52 1.016 . S
C52 H51 1.016 . S
C52 N59 1.286 . S
C53 H48 0.930 . S
C53 C54 1.397 . S
C53 C55 1.361 1_556 S
C54 C53 1.397 . S
C54 C58 1.390 . S
C55 C53 1.361 1_554 S
C55 C56 1.393 . S
C55 N59 1.413 . S
C56 H49 0.930 . S
C56 C55 1.393 . S
C56 C57 1.399 . S
C57 C56 1.399 . S
C57 C58 1.381 1_554 S
C58 H50 0.930 . S
C58 C54 1.390 . S
C58 C57 1.381 1_556 S
N59 C52 1.286 . S
N59 C55 1.413 . S
H60 C65 0.930 . S
H61 C68 0.930 . S
H62 C70 0.930 . S
H63 C64 1.016 . S
C64 H63 1.016 . S
C64 N71 1.286 . S
C65 H60 0.930 . S
C65 C66 1.397 . S
C65 C67 1.361 1_556 S
C66 C65 1.397 . S
C66 C70 1.390 . S
C67 C65 1.361 1_554 S
C67 C68 1.393 . S
C67 N71 1.413 . S
C68 H61 0.930 . S
C68 C67 1.393 . S
C68 C69 1.399 . S
C69 C68 1.399 . S
C69 C70 1.381 1_554 S
C70 H62 0.930 . S
C70 C66 1.390 . S
C70 C69 1.381 1_556 S
N71 C64 1.286 . S
N71 C67 1.413 . S
H72 C77 0.930 . S
H73 C80 0.930 . S
H74 C82 0.930 . S
H75 C76 1.016 . S
C76 H75 1.016 . S
C76 N83 1.286 . S
C77 H72 0.930 . S
C77 C78 1.397 . S
C77 C79 1.361 1_556 S
C78 C77 1.397 . S
C78 C82 1.390 . S
C79 C77 1.361 1_554 S
C79 C80 1.393 . S
C79 N83 1.413 . S
C80 H73 0.930 . S
C80 C79 1.393 . S
C80 C81 1.399 . S
C81 C80 1.399 . S
C81 C82 1.381 1_554 S
C82 H74 0.930 . S
C82 C78 1.390 . S
C82 C81 1.381 1_556 S
N83 C76 1.286 . S
N83 C79 1.413 . S
H84 C89 0.930 . S
H85 C92 0.930 . S
H86 C94 0.930 . S
H87 C88 1.016 . S
C88 H87 1.016 . S
C88 N95 1.286 . S
C89 H84 0.930 . S
C89 C90 1.397 . S
C89 C91 1.361 1_556 S
C90 C89 1.397 . S
C90 C94 1.390 . S
C91 C89 1.361 1_554 S
C91 C92 1.393 . S
C91 N95 1.413 . S
C92 H85 0.930 . S
C92 C91 1.393 . S
C92 C93 1.399 . S
C93 C92 1.399 . S
C93 C94 1.381 1_554 S
C94 H86 0.930 . S
C94 C90 1.390 . S
C94 C93 1.381 1_556 S
N95 C88 1.286 . S
N95 C91 1.413 . S
Eu96 N127 2.657 1_566 S
Eu96 N134 2.609 1_565 S
Eu96 O140 2.558 . S
Eu96 O141 2.612 1_455 S
Eu96 O143 2.339 1_455 S
Eu96 O144 2.563 . S
Eu96 O145 2.419 1_556 S
Eu96 O147 2.380 1_565 S
Eu96 O148 2.432 . S
Eu96 C160 2.848 . S
C97 C100 1.429 . S
C97 C101 1.411 . S
C97 N104 1.377 1_565 S
C98 C100 1.420 . S
C98 C102 1.423 . S
C98 C110 1.392 . S
C99 C101 1.420 . S
C99 C102 1.351 . S
C99 H122 0.931 . S
C100 C97 1.429 . S
C100 C98 1.420 . S
C100 N108 1.362 . S
C101 C97 1.411 . S
C101 C99 1.420 . S
C101 C106 1.395 1_565 S
C102 C98 1.423 . S
C102 C99 1.351 . S
C102 H114 0.930 . S
C103 C105 1.400 . S
C103 C106 1.386 . S
C103 H115 0.930 . S
N104 C97 1.377 1_545 S
N104 C105 1.321 . S
N104 Eu107 2.609 . S
C105 C103 1.400 . S
C105 N104 1.321 . S
C105 H112 0.930 . S
C106 C101 1.395 1_545 S
C106 C103 1.386 . S
C106 H125 0.930 . S
Eu107 N104 2.609 . S
Eu107 N108 2.657 1_545 S
Eu107 O141 2.380 1_545 S
Eu107 O142 2.432 . S
Eu107 O146 2.558 . S
Eu107 O147 2.612 1_655 S
Eu107 O149 2.339 1_655 S
Eu107 O150 2.563 1_655 S
Eu107 O151 2.419 . S
Eu107 C171 2.848 . S
N108 C100 1.362 . S
N108 Eu107 2.657 1_565 S
N108 C109 1.334 1_655 S
C109 N108 1.334 1_455 S
C109 C111 1.413 . S
C109 H116 0.929 . S
C110 C98 1.392 . S
C110 C111 1.367 1_655 S
C110 H118 0.930 . S
C111 C109 1.413 . S
C111 C110 1.367 1_455 S
C111 H113 0.930 . S
H112 C105 0.930 . S
H113 C111 0.930 . S
H114 C102 0.930 . S
H115 C103 0.930 . S
H116 C109 0.929 . S
H117 C131 0.930 1_655 S
H118 C110 0.930 . S
H119 C137 0.930 . S
H120 C128 0.929 1_655 S
H121 C135 0.930 . S
H122 C99 0.931 . S
H123 C129 0.930 . S
H124 C162 0.930 . S
H125 C106 0.930 . S
H126 C161 0.931 . S
N127 Eu96 2.657 1_544 S
N127 C128 1.334 . S
N127 C132 1.362 . S
C128 H120 0.929 1_455 S
C128 N127 1.334 . S
C128 C131 1.413 . S
C129 H123 0.930 . S
C129 C130 1.392 . S
C129 C131 1.367 . S
C130 C129 1.392 . S
C130 C132 1.420 . S
C130 C162 1.423 . S
C131 H117 0.930 1_455 S
C131 C128 1.413 . S
C131 C129 1.367 . S
C132 N127 1.362 . S
C132 C130 1.420 . S
C132 C136 1.429 . S
H133 C138 0.930 . S
N134 Eu96 2.609 1_545 S
N134 C136 1.377 1_556 S
N134 C137 1.321 1_545 S
C135 H121 0.930 . S
C135 C137 1.400 . S
C135 C138 1.386 1_566 S
C136 C132 1.429 . S
C136 N134 1.377 1_554 S
C136 C139 1.411 . S
C137 H119 0.930 . S
C137 N134 1.321 1_565 S
C137 C135 1.400 . S
C138 H133 0.930 . S
C138 C135 1.386 1_544 S
C138 C139 1.395 . S
C139 C136 1.411 . S
C139 C138 1.395 . S
C139 C161 1.420 . S
O140 Eu96 2.558 . S
O140 C160 1.257 . S
O141 Eu96 2.612 1_655 S
O141 Eu107 2.380 1_565 S
O141 C152 1.276 . S
O142 Eu107 2.432 . S
O142 C159 1.264 . S
O143 Eu96 2.339 1_655 S
O143 C159 1.254 1_565 S
O144 Eu96 2.563 . S
O144 C152 1.235 1_455 S
O145 Eu96 2.419 1_554 S
O145 C160 1.249 1_554 S
O146 Eu107 2.558 . S
O146 C171 1.257 . S
O147 Eu96 2.380 1_545 S
O147 Eu107 2.612 1_455 S
O147 C163 1.276 . S
O148 Eu96 2.432 . S
O148 C170 1.264 1_565 S
O149 Eu107 2.339 1_455 S
O149 C170 1.254 . S
O150 Eu107 2.563 1_455 S
O150 C163 1.235 . S
O151 Eu107 2.419 . S
O151 C171 1.249 . S
C152 O141 1.276 . S
C152 O144 1.235 1_655 S
C153 C155 1.393 . S
C153 C157 1.395 . S
C153 C160 1.492 1_554 S
C154 C155 1.392 . S
C154 C156 1.386 . S
C155 C153 1.393 . S
C155 C154 1.392 . S
C155 H172 0.930 . S
C156 C154 1.386 . S
C156 C158 1.395 . S
C156 H173 0.930 . S
C157 C153 1.395 . S
C157 C158 1.379 . S
C157 H174 0.930 . S
C158 C156 1.395 . S
C158 C157 1.379 . S
C158 H175 0.930 . S
C159 O142 1.264 . S
C159 O143 1.254 1_545 S
C160 Eu96 2.848 . S
C160 O140 1.257 . S
C160 O145 1.249 1_556 S
C160 C153 1.492 1_556 S
C161 H126 0.931 . S
C161 C139 1.420 . S
C161 C162 1.351 . S
C162 H124 0.930 . S
C162 C130 1.423 . S
C162 C161 1.351 . S
C163 O147 1.276 . S
C163 O150 1.235 . S
C164 C165 1.393 . S
C164 C168 1.395 . S
C164 C171 1.492 . S
C165 C164 1.393 . S
C165 C166 1.392 . S
C165 H176 0.930 1_655 S
C166 C165 1.392 . S
C166 C167 1.386 . S
C167 C166 1.386 . S
C167 C169 1.395 . S
C167 H177 0.930 . S
C168 C164 1.395 . S
C168 C169 1.379 . S
C168 H178 0.930 . S
C169 C167 1.395 . S
C169 C168 1.379 . S
C169 H179 0.930 . S
C170 O148 1.264 1_545 S
C170 O149 1.254 . S
C171 Eu107 2.848 . S
C171 O146 1.257 . S
C171 O151 1.249 . S
C171 C164 1.492 . S
H172 C155 0.930 . S
H173 C156 0.930 . S
H174 C157 0.930 . S
H175 C158 0.930 . S
H176 C165 0.930 1_455 S
H177 C167 0.930 . S
H178 C168 0.930 . S
H179 C169 0.930 . S
Eu180 N211 2.657 1_556 S
Eu180 N218 2.609 . S
Eu180 O224 2.558 . S
Eu180 O225 2.612 1_545 S
Eu180 O227 2.339 1_545 S
Eu180 O228 2.563 . S
Eu180 O229 2.419 1_556 S
Eu180 O231 2.380 . S
Eu180 O232 2.432 . S
Eu180 C244 2.845 1_556 S
C181 C184 1.429 . S
C181 C185 1.411 . S
C181 N188 1.377 . S
C182 C184 1.420 . S
C182 C186 1.423 . S
C182 C194 1.392 . S
C183 C185 1.420 . S
C183 C186 1.351 . S
C183 H206 0.931 . S
C184 C181 1.429 . S
C184 C182 1.420 . S
C184 N192 1.362 . S
C185 C181 1.411 . S
C185 C183 1.420 . S
C185 C190 1.395 . S
C186 C182 1.423 . S
C186 C183 1.351 . S
C186 H198 0.930 . S
C187 C189 1.400 . S
C187 C190 1.386 . S
C187 H199 0.930 . S
N188 C181 1.377 . S
N188 C189 1.321 . S
N188 Eu191 2.609 . S
C189 C187 1.400 . S
C189 N188 1.321 . S
C189 H196 0.930 . S
C190 C185 1.395 . S
C190 C187 1.386 . S
C190 H209 0.930 . S
Eu191 N188 2.609 . S
Eu191 N192 2.657 . S
Eu191 O225 2.380 . S
Eu191 O226 2.432 . S
Eu191 O230 2.558 . S
Eu191 O231 2.612 1_565 S
Eu191 O233 2.339 1_565 S
Eu191 O234 2.563 1_565 S
Eu191 O235 2.419 . S
Eu191 C255 2.848 . S
N192 C184 1.362 . S
N192 Eu191 2.657 . S
N192 C193 1.334 1_565 S
C193 N192 1.334 1_545 S
C193 C195 1.413 . S
C193 H200 0.929 . S
C194 C182 1.392 . S
C194 C195 1.367 1_565 S
C194 H202 0.930 . S
C195 C193 1.413 . S
C195 C194 1.367 1_545 S
C195 H197 0.930 . S
H196 C189 0.930 . S
H197 C195 0.930 . S
H198 C186 0.930 . S
H199 C187 0.930 . S
H200 C193 0.929 . S
H201 C215 0.930 1_565 S
H202 C194 0.930 . S
H203 C221 0.930 . S
H204 C212 0.929 1_565 S
H205 C219 0.930 . S
H206 C183 0.931 . S
H207 C213 0.930 . S
H208 C246 0.930 . S
H209 C190 0.930 . S
H210 C245 0.931 . S
N211 Eu180 2.657 1_554 S
N211 C212 1.334 . S
N211 C216 1.362 . S
C212 H204 0.929 1_545 S
C212 N211 1.334 . S
C212 C215 1.413 . S
C213 H207 0.930 . S
C213 C214 1.392 . S
C213 C215 1.367 . S
C214 C213 1.392 . S
C214 C216 1.420 . S
C214 C246 1.423 . S
C215 H201 0.930 1_545 S
C215 C212 1.413 . S
C215 C213 1.367 . S
C216 N211 1.362 . S
C216 C214 1.420 . S
C216 C220 1.429 . S
H217 C222 0.930 . S
N218 Eu180 2.609 . S
N218 C220 1.377 1_556 S
N218 C221 1.321 . S
C219 H205 0.930 . S
C219 C221 1.400 . S
C219 C222 1.386 1_556 S
C220 C216 1.429 . S
C220 N218 1.377 1_554 S
C220 C223 1.411 . S
C221 H203 0.930 . S
C221 N218 1.321 . S
C221 C219 1.400 . S
C222 H217 0.930 . S
C222 C219 1.386 1_554 S
C222 C223 1.395 . S
C223 C220 1.411 . S
C223 C222 1.395 . S
C223 C245 1.420 . S
O224 Eu180 2.558 . S
O224 C244 1.253 1_556 S
O225 Eu180 2.612 1_565 S
O225 Eu191 2.380 . S
O225 C236 1.276 . S
O226 Eu191 2.432 . S
O226 C243 1.264 . S
O227 Eu180 2.339 1_565 S
O227 C243 1.254 . S
O228 Eu180 2.563 . S
O228 C236 1.235 1_545 S
O229 Eu180 2.419 1_554 S
O229 C244 1.250 . S
O230 Eu191 2.558 . S
O230 C255 1.257 . S
O231 Eu180 2.380 . S
O231 Eu191 2.612 1_545 S
O231 C247 1.276 . S
O232 Eu180 2.432 . S
O232 C254 1.264 . S
O233 Eu191 2.339 1_545 S
O233 C254 1.254 . S
O234 Eu191 2.563 1_545 S
O234 C247 1.235 . S
O235 Eu191 2.419 . S
O235 C255 1.249 . S
C236 O225 1.276 . S
C236 O228 1.235 1_565 S
C237 C239 1.393 . S
C237 C241 1.395 . S
C237 C244 1.495 . S
C238 C239 1.392 . S
C238 C240 1.386 . S
C239 C237 1.393 . S
C239 C238 1.392 . S
C239 H256 0.930 . S
C240 C238 1.386 . S
C240 C242 1.395 . S
C240 H257 0.930 . S
C241 C237 1.395 . S
C241 C242 1.379 . S
C241 H258 0.930 . S
C242 C240 1.395 . S
C242 C241 1.379 . S
C242 H259 0.930 . S
C243 O226 1.264 . S
C243 O227 1.254 . S
C244 Eu180 2.845 1_554 S
C244 O224 1.253 1_554 S
C244 O229 1.250 . S
C244 C237 1.495 . S
C245 H210 0.931 . S
C245 C223 1.420 . S
C245 C246 1.351 . S
C246 H208 0.930 . S
C246 C214 1.423 . S
C246 C245 1.351 . S
C247 O231 1.276 . S
C247 O234 1.235 . S
C248 C249 1.393 . S
C248 C252 1.395 . S
C248 C255 1.492 . S
C249 C248 1.393 . S
C249 C250 1.392 . S
C249 H260 0.930 1_565 S
C250 C249 1.392 . S
C250 C251 1.386 . S
C251 C250 1.386 . S
C251 C253 1.395 . S
C251 H261 0.930 . S
C252 C248 1.395 . S
C252 C253 1.379 . S
C252 H262 0.930 . S
C253 C251 1.395 . S
C253 C252 1.379 . S
C253 H263 0.930 . S
C254 O232 1.264 . S
C254 O233 1.254 . S
C255 Eu191 2.848 . S
C255 O230 1.257 . S
C255 O235 1.249 . S
C255 C248 1.492 . S
H256 C239 0.930 . S
H257 C240 0.930 . S
H258 C241 0.930 . S
H259 C242 0.930 . S
H260 C249 0.930 1_545 S
H261 C251 0.930 . S
H262 C252 0.930 . S
H263 C253 0.930 . S
Eu264 N295 2.657 . S
Eu264 N302 2.609 . S
Eu264 O308 2.558 . S
Eu264 O309 2.612 . S
Eu264 O311 2.339 . S
Eu264 O312 2.563 . S
Eu264 O313 2.419 . S
Eu264 O315 2.380 . S
Eu264 O316 2.432 . S
Eu264 C328 2.848 . S
C265 C268 1.429 . S
C265 C269 1.411 . S
C265 N272 1.377 . S
C266 C268 1.420 . S
C266 C270 1.423 . S
C266 C278 1.392 . S
C267 C269 1.420 . S
C267 C270 1.351 . S
C267 H290 0.931 . S
C268 C265 1.429 . S
C268 C266 1.420 . S
C268 N276 1.362 . S
C269 C265 1.411 . S
C269 C267 1.420 . S
C269 C274 1.395 1_556 S
C270 C266 1.423 . S
C270 C267 1.351 . S
C270 H282 0.930 . S
C271 C273 1.400 . S
C271 C274 1.386 . S
C271 H283 0.930 . S
N272 C265 1.377 . S
N272 C273 1.321 1_556 S
N272 Eu275 2.609 . S
C273 C271 1.400 . S
C273 N272 1.321 1_554 S
C273 H280 0.930 . S
C274 C269 1.395 1_554 S
C274 C271 1.386 . S
C274 H293 0.930 . S
Eu275 N272 2.609 . S
Eu275 N276 2.657 . S
Eu275 O309 2.380 . S
Eu275 O310 2.432 . S
Eu275 O314 2.558 1_556 S
Eu275 O315 2.612 . S
Eu275 O317 2.339 . S
Eu275 O318 2.563 . S
Eu275 O319 2.419 . S
Eu275 C339 2.848 1_556 S
N276 C268 1.362 . S
N276 Eu275 2.657 . S
N276 C277 1.334 . S
C277 N276 1.334 . S
C277 C279 1.413 . S
C277 H284 0.929 . S
C278 C266 1.392 . S
C278 C279 1.367 . S
C278 H286 0.930 . S
C279 C277 1.413 . S
C279 C278 1.367 . S
C279 H281 0.930 . S
H280 C273 0.930 . S
H281 C279 0.930 . S
H282 C270 0.930 . S
H283 C271 0.930 . S
H284 C277 0.929 . S
H285 C299 0.930 . S
H286 C278 0.930 . S
H287 C305 0.930 . S
H288 C296 0.929 . S
H289 C303 0.930 . S
H290 C267 0.931 . S
H291 C297 0.930 . S
H292 C330 0.930 . S
H293 C274 0.930 . S
H294 C329 0.931 . S
N295 Eu264 2.657 . S
N295 C296 1.334 . S
N295 C300 1.362 . S
C296 H288 0.929 . S
C296 N295 1.334 . S
C296 C299 1.413 . S
C297 H291 0.930 . S
C297 C298 1.392 . S
C297 C299 1.367 . S
C298 C297 1.392 . S
C298 C300 1.420 . S
C298 C330 1.423 . S
C299 H285 0.930 . S
C299 C296 1.413 . S
C299 C297 1.367 . S
C300 N295 1.362 . S
C300 C298 1.420 . S
C300 C304 1.429 . S
H301 C306 0.930 . S
N302 Eu264 2.609 . S
N302 C304 1.377 . S
N302 C305 1.321 . S
C303 H289 0.930 . S
C303 C305 1.400 . S
C303 C306 1.386 . S
C304 C300 1.429 . S
C304 N302 1.377 . S
C304 C307 1.411 . S
C305 H287 0.930 . S
C305 N302 1.321 . S
C305 C303 1.400 . S
C306 H301 0.930 . S
C306 C303 1.386 . S
C306 C307 1.395 . S
C307 C304 1.411 . S
C307 C306 1.395 . S
C307 C329 1.420 . S
O308 Eu264 2.558 . S
O308 C328 1.257 . S
O309 Eu264 2.612 . S
O309 Eu275 2.380 . S
O309 C320 1.276 . S
O310 Eu275 2.432 . S
O310 C327 1.264 . S
O311 Eu264 2.339 . S
O311 C327 1.254 . S
O312 Eu264 2.563 . S
O312 C320 1.235 . S
O313 Eu264 2.419 . S
O313 C328 1.249 . S
O314 Eu275 2.558 1_554 S
O314 C339 1.257 . S
O315 Eu264 2.380 . S
O315 Eu275 2.612 . S
O315 C331 1.276 . S
O316 Eu264 2.432 . S
O316 C338 1.264 . S
O317 Eu275 2.339 . S
O317 C338 1.254 . S
O318 Eu275 2.563 . S
O318 C331 1.235 . S
O319 Eu275 2.419 . S
O319 C339 1.249 1_556 S
C320 O309 1.276 . S
C320 O312 1.235 . S
C321 C323 1.393 . S
C321 C325 1.395 . S
C321 C328 1.492 . S
C322 C323 1.392 . S
C322 C324 1.386 . S
C323 C321 1.393 . S
C323 C322 1.392 . S
C323 H340 0.930 . S
C324 C322 1.386 . S
C324 C326 1.395 . S
C324 H341 0.930 . S
C325 C321 1.395 . S
C325 C326 1.379 . S
C325 H342 0.930 . S
C326 C324 1.395 . S
C326 C325 1.379 . S
C326 H343 0.930 . S
C327 O310 1.264 . S
C327 O311 1.254 . S
C328 Eu264 2.848 . S
C328 O308 1.257 . S
C328 O313 1.249 . S
C328 C321 1.492 . S
C329 H294 0.931 . S
C329 C307 1.420 . S
C329 C330 1.351 . S
C330 H292 0.930 . S
C330 C298 1.423 . S
C330 C329 1.351 . S
C331 O315 1.276 . S
C331 O318 1.235 . S
C332 C333 1.393 . S
C332 C336 1.395 . S
C332 C339 1.492 . S
C333 C332 1.393 . S
C333 C334 1.392 . S
C333 H344 0.930 . S
C334 C333 1.392 . S
C334 C335 1.386 . S
C335 C334 1.386 . S
C335 C337 1.395 . S
C335 H345 0.930 . S
C336 C332 1.395 . S
C336 C337 1.379 . S
C336 H346 0.930 . S
C337 C335 1.395 . S
C337 C336 1.379 . S
C337 H347 0.930 . S
C338 O316 1.264 . S
C338 O317 1.254 . S
C339 Eu275 2.848 1_554 S
C339 O314 1.257 . S
C339 O319 1.249 1_554 S
C339 C332 1.492 . S
H340 C323 0.930 . S
H341 C324 0.930 . S
H342 C325 0.930 . S
H343 C326 0.930 . S
H344 C333 0.930 . S
H345 C335 0.930 . S
H346 C336 0.930 . S
H347 C337 0.930 . S
Eu348 N379 2.657 . S
Eu348 N386 2.609 . S
Eu348 O392 2.558 . S
Eu348 O393 2.612 . S
Eu348 O395 2.339 . S
Eu348 O396 2.563 . S
Eu348 O397 2.419 . S
Eu348 O399 2.380 . S
Eu348 O400 2.432 1_455 S
Eu348 C412 2.848 . S
C349 C352 1.429 . S
C349 C353 1.411 . S
C349 N356 1.376 1_655 S
C350 C352 1.420 . S
C350 C354 1.423 . S
C350 C362 1.392 . S
C351 C353 1.420 . S
C351 C354 1.351 . S
C351 H374 0.931 . S
C352 C349 1.429 . S
C352 C350 1.420 . S
C352 N360 1.362 . S
C353 C349 1.411 . S
C353 C351 1.420 . S
C353 C358 1.395 1_656 S
C354 C350 1.423 . S
C354 C351 1.351 . S
C354 H366 0.930 . S
C355 C357 1.400 . S
C355 C358 1.386 . S
C355 H367 0.930 . S
N356 C349 1.376 1_455 S
N356 C357 1.322 1_556 S
N356 Eu359 2.609 1_455 S
C357 C355 1.400 . S
C357 N356 1.322 1_554 S
C357 H364 0.930 . S
C358 C353 1.395 1_454 S
C358 C355 1.386 . S
C358 H377 0.930 . S
Eu359 N356 2.609 1_655 S
Eu359 N360 2.657 . S
Eu359 O393 2.380 1_655 S
Eu359 O394 2.432 1_655 S
Eu359 O398 2.558 1_556 S
Eu359 O399 2.612 1_655 S
Eu359 O401 2.339 . S
Eu359 O402 2.563 . S
Eu359 O403 2.419 . S
Eu359 C423 2.848 1_556 S
N360 C352 1.362 . S
N360 Eu359 2.657 . S
N360 C361 1.334 . S
C361 N360 1.334 . S
C361 C363 1.413 . S
C361 H368 0.929 . S
C362 C350 1.392 . S
C362 C363 1.367 . S
C362 H370 0.930 . S
C363 C361 1.413 . S
C363 C362 1.367 . S
C363 H365 0.930 . S
H364 C357 0.930 . S
H365 C363 0.930 . S
H366 C354 0.930 . S
H367 C355 0.930 . S
H368 C361 0.929 . S
H369 C383 0.930 . S
H370 C362 0.930 . S
H371 C389 0.930 . S
H372 C380 0.929 . S
H373 C387 0.930 . S
H374 C351 0.931 . S
H375 C381 0.930 . S
H376 C414 0.930 . S
H377 C358 0.930 . S
H378 C413 0.931 . S
N379 Eu348 2.657 . S
N379 C380 1.334 . S
N379 C384 1.362 . S
C380 H372 0.929 . S
C380 N379 1.334 . S
C380 C383 1.413 . S
C381 H375 0.930 . S
C381 C382 1.392 . S
C381 C383 1.367 . S
C382 C381 1.392 . S
C382 C384 1.420 . S
C382 C414 1.423 . S
C383 H369 0.930 . S
C383 C380 1.413 . S
C383 C381 1.367 . S
C384 N379 1.362 . S
C384 C382 1.420 . S
C384 C388 1.429 . S
H385 C390 0.928 1_655 S
N386 Eu348 2.609 . S
N386 C388 1.377 . S
N386 C389 1.321 1_455 S
C387 H373 0.930 . S
C387 C389 1.400 . S
C387 C390 1.386 1_655 S
C388 C384 1.429 . S
C388 N386 1.377 . S
C388 C391 1.411 . S
C389 H371 0.930 . S
C389 N386 1.321 1_655 S
C389 C387 1.400 . S
C390 H385 0.928 1_455 S
C390 C387 1.386 1_455 S
C390 C391 1.395 . S
C391 C388 1.411 . S
C391 C390 1.395 . S
C391 C413 1.420 . S
O392 Eu348 2.558 . S
O392 C412 1.257 . S
O393 Eu348 2.612 . S
O393 Eu359 2.380 1_455 S
O393 C404 1.276 . S
O394 Eu359 2.432 1_455 S
O394 C411 1.264 . S
O395 Eu348 2.339 . S
O395 C411 1.254 . S
O396 Eu348 2.563 . S
O396 C404 1.235 . S
O397 Eu348 2.419 . S
O397 C412 1.249 . S
O398 Eu359 2.558 1_554 S
O398 C423 1.257 . S
O399 Eu348 2.380 . S
O399 Eu359 2.612 1_455 S
O399 C415 1.276 1_455 S
O400 Eu348 2.432 1_655 S
O400 C422 1.264 . S
O401 Eu359 2.339 . S
O401 C422 1.254 . S
O402 Eu359 2.563 . S
O402 C415 1.235 . S
O403 Eu359 2.419 . S
O403 C423 1.249 1_556 S
C404 O393 1.276 . S
C404 O396 1.235 . S
C405 C407 1.393 . S
C405 C409 1.395 . S
C405 C412 1.492 . S
C406 C407 1.392 . S
C406 C408 1.386 . S
C407 C405 1.393 . S
C407 C406 1.392 . S
C407 H424 0.930 . S
C408 C406 1.386 . S
C408 C410 1.395 . S
C408 H425 0.930 . S
C409 C405 1.395 . S
C409 C410 1.379 . S
C409 H426 0.930 . S
C410 C408 1.395 . S
C410 C409 1.379 . S
C410 H427 0.930 . S
C411 O394 1.264 . S
C411 O395 1.254 . S
C412 Eu348 2.848 . S
C412 O392 1.257 . S
C412 O397 1.249 . S
C412 C405 1.492 . S
C413 H378 0.931 . S
C413 C391 1.420 . S
C413 C414 1.351 . S
C414 H376 0.930 . S
C414 C382 1.423 . S
C414 C413 1.351 . S
C415 O399 1.276 1_655 S
C415 O402 1.235 . S
C416 C417 1.393 . S
C416 C420 1.395 . S
C416 C423 1.492 . S
C417 C416 1.393 . S
C417 C418 1.392 . S
C417 H428 0.930 . S
C418 C417 1.392 . S
C418 C419 1.386 . S
C419 C418 1.386 . S
C419 C421 1.395 . S
C419 H429 0.930 . S
C420 C416 1.395 . S
C420 C421 1.379 . S
C420 H430 0.930 . S
C421 C419 1.395 . S
C421 C420 1.379 . S
C421 H431 0.930 . S
C422 O400 1.264 . S
C422 O401 1.254 . S
C423 Eu359 2.848 1_554 S
C423 O398 1.257 . S
C423 O403 1.249 1_554 S
C423 C416 1.492 . S
H424 C407 0.930 . S
H425 C408 0.930 . S
H426 C409 0.930 . S
H427 C410 0.930 . S
H428 C417 0.930 . S
H429 C419 0.930 . S
H430 C420 0.930 . S
H431 C421 0.930 . S
C432 C433 1.387 . S
C432 H436 0.950 . S
C432 C441 1.390 . S
C433 C432 1.387 . S
C433 C435 1.387 . S
H434 C441 0.950 . S
C435 C433 1.387 . S
C435 C437 1.390 . S
C435 H439 0.950 . S
H436 C432 0.950 . S
C437 C435 1.390 . S
C437 C438 1.387 . S
C437 H440 0.950 1_545 S
C438 C437 1.387 . S
C438 C441 1.387 . S
H439 C435 0.950 . S
H440 C437 0.950 1_565 S
C441 C432 1.390 . S
C441 H434 0.950 . S
C441 C438 1.387 . S
C442 C443 1.387 . S
C442 H446 0.950 . S
C442 C451 1.390 . S
C443 C442 1.387 . S
C443 C445 1.387 . S
H444 C451 0.950 . S
C445 C443 1.387 . S
C445 C447 1.390 . S
C445 H449 0.950 . S
H446 C442 0.950 . S
C447 C445 1.390 . S
C447 C448 1.387 . S
C447 H450 0.950 . S
C448 C447 1.387 . S
C448 C451 1.387 . S
H449 C445 0.950 . S
H450 C447 0.950 . S
C451 C442 1.390 . S
C451 H444 0.950 . S
C451 C448 1.387 . S
C452 C453 1.387 . S
C452 H456 0.950 . S
C452 C461 1.390 . S
C453 C452 1.387 . S
C453 C455 1.387 . S
H454 C461 0.950 . S
C455 C453 1.387 . S
C455 C457 1.390 . S
C455 H459 0.950 . S
H456 C452 0.950 . S
C457 C455 1.390 . S
C457 C458 1.387 . S
C457 H460 0.950 . S
C458 C457 1.387 . S
C458 C461 1.387 . S
H459 C455 0.950 . S
H460 C457 0.950 . S
C461 C452 1.390 . S
C461 H454 0.950 . S
C461 C458 1.387 . S
C462 C463 1.387 . S
C462 H466 0.950 . S
C462 C471 1.390 . S
C463 C462 1.387 . S
C463 C465 1.387 . S
H464 C471 0.950 . S
C465 C463 1.387 . S
C465 C467 1.390 . S
C465 H469 0.950 1_455 S
H466 C462 0.950 . S
C467 C465 1.390 . S
C467 C468 1.387 . S
C467 H470 0.950 1_455 S
C468 C467 1.387 . S
C468 C471 1.387 . S
H469 C465 0.950 1_655 S
H470 C467 0.950 1_655 S
C471 C462 1.390 . S
C471 H464 0.950 . S
C471 C468 1.387 . S
C472 C473 1.387 . S
C472 H476 0.950 1_565 S
C472 C481 1.390 1_565 S
C473 C472 1.387 . S
C473 C475 1.387 . S
H474 C481 0.950 1_556 S
C475 C473 1.387 . S
C475 C477 1.390 . S
C475 H479 0.950 . S
H476 C472 0.950 1_545 S
C477 C475 1.390 . S
C477 C478 1.387 . S
C477 H480 0.950 . S
C478 C477 1.387 . S
C478 C481 1.387 1_565 S
H479 C475 0.950 . S
H480 C477 0.950 . S
C481 C472 1.390 1_545 S
C481 H474 0.950 1_554 S
C481 C478 1.387 1_545 S
C482 C483 1.387 . S
C482 H486 0.950 . S
C482 C491 1.390 . S
C483 C482 1.387 . S
C483 C485 1.387 . S
H484 C491 0.950 1_556 S
C485 C483 1.387 . S
C485 C487 1.390 . S
C485 H489 0.950 . S
H486 C482 0.950 . S
C487 C485 1.390 . S
C487 C488 1.387 . S
C487 H490 0.950 . S
C488 C487 1.387 . S
C488 C491 1.387 . S
H489 C485 0.950 . S
H490 C487 0.950 . S
C491 C482 1.390 . S
C491 H484 0.950 1_554 S
C491 C488 1.387 . S
C492 C493 1.387 . S
C492 H496 0.950 . S
C492 C501 1.390 . S
C493 C492 1.387 . S
C493 C495 1.387 . S
H494 C501 0.950 1_556 S
C495 C493 1.387 . S
C495 C497 1.390 . S
C495 H499 0.950 . S
H496 C492 0.950 . S
C497 C495 1.390 . S
C497 C498 1.388 . S
C497 H500 0.950 . S
C498 C497 1.388 . S
C498 C501 1.388 . S
H499 C495 0.950 . S
H500 C497 0.950 . S
C501 C492 1.390 . S
C501 H494 0.950 1_554 S
C501 C498 1.388 . S
C502 C503 1.387 . S
C502 H506 0.950 . S
C502 C511 1.390 . S
C503 C502 1.387 . S
C503 C505 1.387 1_655 S
H504 C511 0.950 . S
C505 C503 1.387 1_455 S
C505 C507 1.390 . S
C505 H509 0.950 . S
H506 C502 0.950 . S
C507 C505 1.390 . S
C507 C508 1.387 1_455 S
C507 H510 0.950 . S
C508 C507 1.387 1_655 S
C508 C511 1.387 . S
H509 C505 0.950 . S
H510 C507 0.950 . S
C511 C502 1.390 . S
C511 H504 0.950 . S
C511 C508 1.387 . S
C512 C513 1.387 . S
C512 H516 0.950 . S
C512 C521 1.390 1_455 S
C513 C512 1.387 . S
C513 C515 1.387 . S
H514 C521 0.950 . S
C515 C513 1.387 . S
C515 C517 1.390 . S
C515 H519 0.950 . S
H516 C512 0.950 . S
C517 C515 1.390 . S
C517 C518 1.368 1_455 S
C517 H520 0.950 . S
C518 C517 1.368 1_655 S
C518 C521 1.390 . S
H519 C515 0.950 . S
H520 C517 0.950 . S
C521 C512 1.390 1_655 S
C521 H514 0.950 . S
C521 C518 1.390 . S
C522 C523 1.387 . S
C522 H526 0.950 . S
C522 C531 1.390 . S
C523 C522 1.387 . S
C523 C525 1.387 . S
H524 C531 0.950 . S
C525 C523 1.387 . S
C525 C527 1.390 . S
C525 H529 0.950 1_554 S
H526 C522 0.950 . S
C527 C525 1.390 . S
C527 C528 1.387 1_545 S
C527 H530 0.950 1_545 S
C528 C527 1.387 1_565 S
C528 C531 1.387 1_565 S
H529 C525 0.950 1_556 S
H530 C527 0.950 1_565 S
C531 C522 1.390 . S
C531 H524 0.950 . S
C531 C528 1.387 1_545 S
C532 C533 1.387 . S
C532 H536 0.950 1_554 S
C532 C541 1.390 . S
C533 C532 1.387 . S
C533 C535 1.387 . S
H534 C541 0.950 . S
C535 C533 1.387 . S
C535 C537 1.390 . S
C535 H539 0.950 . S
H536 C532 0.950 1_556 S
C537 C535 1.390 . S
C537 C538 1.387 . S
C537 H540 0.950 . S
C538 C537 1.387 . S
C538 C541 1.387 . S
H539 C535 0.950 . S
H540 C537 0.950 . S
C541 C532 1.390 . S
C541 H534 0.950 . S
C541 C538 1.387 . S
C542 C543 1.387 . S
C542 H546 0.956 . S
C542 C551 1.390 . S
C543 C542 1.387 . S
C543 C545 1.387 . S
H544 C551 0.950 . S
C545 C543 1.387 . S
C545 C547 1.390 . S
C545 H549 0.950 . S
H546 C542 0.956 . S
C547 C545 1.390 . S
C547 C548 1.387 . S
C547 H550 0.950 . S
C548 C547 1.387 . S
C548 C551 1.387 . S
H549 C545 0.950 . S
H550 C547 0.950 . S
C551 C542 1.390 . S
C551 H544 0.950 . S
C551 C548 1.387 . S
C552 C553 1.387 . S
C552 H556 0.950 . S
C552 C561 1.390 1_655 S
C553 C552 1.387 . S
C553 C555 1.387 . S
H554 C561 0.950 . S
C555 C553 1.387 . S
C555 C557 1.390 . S
C555 H559 0.950 . S
H556 C552 0.950 . S
C557 C555 1.390 . S
C557 C558 1.387 1_655 S
C557 H560 0.950 1_655 S
C558 C557 1.387 1_455 S
C558 C561 1.387 . S
H559 C555 0.950 . S
H560 C557 0.950 1_455 S
C561 C552 1.390 1_455 S
C561 H554 0.950 . S
C561 C558 1.387 . S
C562 C563 1.375 1_545 S
C562 H566 0.951 . S
C562 C571 1.402 . S
C563 C562 1.375 1_565 S
C563 C565 1.387 . S
H564 C571 0.950 . S
C565 C563 1.387 . S
C565 C567 1.390 . S
C565 H569 0.950 . S
H566 C562 0.951 . S
C567 C565 1.390 . S
C567 C568 1.387 1_565 S
C567 H570 0.950 . S
C568 C567 1.387 1_545 S
C568 C571 1.387 . S
H569 C565 0.950 . S
H570 C567 0.950 . S
C571 C562 1.402 . S
C571 H564 0.950 . S
C571 C568 1.387 . S
C572 C573 1.387 . S
C572 H576 0.950 . S
C572 C581 1.390 . S
C573 C572 1.387 . S
C573 C575 1.387 . S
H574 C581 0.950 . S
C575 C573 1.387 . S
C575 C577 1.390 . S
C575 H579 0.950 . S
H576 C572 0.950 . S
C577 C575 1.390 . S
C577 C578 1.387 . S
C577 H580 0.950 . S
C578 C577 1.387 . S
C578 C581 1.387 . S
H579 C575 0.950 . S
H580 C577 0.950 . S
C581 C572 1.390 . S
C581 H574 0.950 . S
C581 C578 1.387 . S
C582 C583 1.387 . S
C582 H586 0.950 . S
C582 C591 1.390 . S
C583 C582 1.387 . S
C583 C585 1.387 . S
H584 C591 0.950 . S
C585 C583 1.387 . S
C585 C587 1.390 . S
C585 H589 0.950 . S
H586 C582 0.950 . S
C587 C585 1.390 . S
C587 C588 1.387 . S
C587 H590 0.950 . S
C588 C587 1.387 . S
C588 C591 1.387 . S
H589 C585 0.950 . S
H590 C587 0.950 . S
C591 C582 1.390 . S
C591 H584 0.950 . S
C591 C588 1.387 . S
C592 C593 1.387 . S
C592 H596 0.950 . S
C592 C601 1.390 . S
C593 C592 1.387 . S
C593 C595 1.387 . S
H594 C601 0.950 . S
C595 C593 1.387 . S
C595 C597 1.390 . S
C595 H599 0.950 . S
H596 C592 0.950 . S
C597 C595 1.390 . S
C597 C598 1.387 . S
C597 H600 0.950 . S
C598 C597 1.387 . S
C598 C601 1.387 . S
H599 C595 0.950 . S
H600 C597 0.950 . S
C601 C592 1.390 . S
C601 H594 0.950 . S
C601 C598 1.387 . S
C602 C603 1.387 . S
C602 H606 0.950 . S
C602 C611 1.390 . S
C603 C602 1.387 . S
C603 C605 1.387 . S
H604 C611 0.950 . S
C605 C603 1.387 . S
C605 C607 1.390 . S
C605 H609 0.950 . S
H606 C602 0.950 . S
C607 C605 1.390 . S
C607 C608 1.387 . S
C607 H610 0.950 . S
C608 C607 1.387 . S
C608 C611 1.387 . S
H609 C605 0.950 . S
H610 C607 0.950 . S
C611 C602 1.390 . S
C611 H604 0.950 . S
C611 C608 1.387 . S
C612 C613 1.387 . S
C612 H616 0.950 1_556 S
C612 C621 1.390 . S
C613 C612 1.387 . S
C613 C615 1.387 . S
H614 C621 0.950 1_554 S
C615 C613 1.387 . S
C615 C617 1.390 . S
C615 H619 0.950 . S
H616 C612 0.950 1_554 S
C617 C615 1.390 . S
C617 C618 1.387 . S
C617 H620 0.950 . S
C618 C617 1.387 . S
C618 C621 1.387 . S
H619 C615 0.950 . S
H620 C617 0.950 . S
C621 C612 1.390 . S
C621 H614 0.950 1_556 S
C621 C618 1.387 . S
C622 C623 1.387 . S
C622 H626 0.950 . S
C622 C631 1.390 . S
C623 C622 1.387 . S
C623 C625 1.387 . S
H624 C631 0.950 . S
C625 C623 1.387 . S
C625 C627 1.390 . S
C625 H629 0.950 1_556 S
H626 C622 0.950 . S
C627 C625 1.390 . S
C627 C628 1.387 . S
C627 H630 0.950 1_556 S
C628 C627 1.387 . S
C628 C631 1.387 . S
H629 C625 0.950 1_554 S
H630 C627 0.950 1_554 S
C631 C622 1.390 . S
C631 H624 0.950 . S
C631 C628 1.387 . S
C632 C633 1.387 . S
C632 H636 0.950 . S
C632 C641 1.390 . S
C633 C632 1.387 . S
C633 C635 1.387 . S
H634 C641 0.950 . S
C635 C633 1.387 . S
C635 C637 1.390 . S
C635 H639 0.950 . S
H636 C632 0.950 . S
C637 C635 1.390 . S
C637 C638 1.387 . S
C637 H640 0.950 . S
C638 C637 1.387 . S
C638 C641 1.387 . S
H639 C635 0.950 . S
H640 C637 0.950 . S
C641 C632 1.390 . S
C641 H634 0.950 . S
C641 C638 1.387 . S
C642 C643 1.387 . S
C642 H646 0.950 . S
C642 C651 1.390 . S
C643 C642 1.387 . S
C643 C645 1.387 . S
H644 C651 0.950 . S
C645 C643 1.387 . S
C645 C647 1.390 . S
C645 H649 0.950 . S
H646 C642 0.950 . S
C647 C645 1.390 . S
C647 C648 1.387 . S
C647 H650 0.950 . S
C648 C647 1.387 . S
C648 C651 1.387 . S
H649 C645 0.950 . S
H650 C647 0.950 . S
C651 C642 1.390 . S
C651 H644 0.950 . S
C651 C648 1.387 . S
C652 C653 1.387 . S
C652 H656 0.950 . S
C652 C661 1.390 . S
C653 C652 1.387 . S
C653 C655 1.387 . S
H654 C661 0.950 . S
C655 C653 1.387 . S
C655 C657 1.390 . S
C655 H659 0.950 . S
H656 C652 0.950 . S
C657 C655 1.390 . S
C657 C658 1.387 . S
C657 H660 0.950 . S
C658 C657 1.387 . S
C658 C661 1.387 . S
H659 C655 0.950 . S
H660 C657 0.950 . S
C661 C652 1.390 . S
C661 H654 0.950 . S
C661 C658 1.387 . S
C662 C663 1.387 . S
C662 H666 0.950 . S
C662 C671 1.390 . S
C663 C662 1.387 . S
C663 C665 1.387 . S
H664 C671 0.950 . S
C665 C663 1.387 . S
C665 C667 1.390 . S
C665 H669 0.950 . S
H666 C662 0.950 . S
C667 C665 1.390 . S
C667 C668 1.387 . S
C667 H670 0.950 . S
C668 C667 1.387 . S
C668 C671 1.387 . S
H669 C665 0.950 . S
H670 C667 0.950 . S
C671 C662 1.390 . S
C671 H664 0.950 . S
C671 C668 1.387 . S
C433 C76 1.940 . S
C438 C170 2.104 . S
C448 C254 2.114 . S
C443 C88 1.948 . S
C458 C320 2.020 . S
C453 C52 2.019 . S
C468 C404 2.013 . S
C463 C64 2.011 . S
C478 C159 2.103 1_564 S
C473 C28 1.951 . S
C483 C40 1.963 . S
C488 C243 2.115 1_554 S
C493 C4 2.035 . S
C498 C331 2.023 1_554 S
C503 C16 2.026 . S
C508 C415 2.017 1_554 S
C518 C166 0.962 . S
C513 C69 0.891 . S
C528 C250 0.904 . S
C523 C81 0.868 . S
C538 C322 0.882 . S
C533 C93 0.842 . S
C543 C57 0.868 . S
C548 C406 0.916 . S
C553 C21 0.884 . S
C558 C154 0.940 . S
C568 C238 0.906 . S
C563 C33 0.854 . S
C578 C334 0.882 . S
C573 C45 0.834 . S
C583 C9 0.860 . S
C588 C418 0.918 . S
C593 C66 2.127 . S
C598 C163 2.230 . S
C603 C78 2.105 . S
C608 C247 2.206 . S
C618 C327 2.298 . S
C613 C90 2.027 . S
C628 C411 2.320 . S
C623 C54 2.048 . S
C633 C18 2.116 . S
C638 C152 2.230 . S
C648 C236 2.206 . S
C643 C30 2.096 . S
C658 C338 2.300 . S
C653 C42 2.016 . S
C663 C6 2.035 . S
C668 C422 2.318 . S
