# Generated by pormake.
# Topology ssb, (4,4)-cn, num edge types: 1
# Building blocks:
#     Node 0, Type 0, BuildingBlock: NAHDIM_clean_linker_0, # of connection points: 4
#     Node 1, Type 0, BuildingBlock: NAHDIM_clean_linker_0, # of connection points: 4
#     Node 2, Type 0, BuildingBlock: NAHDIM_clean_linker_0, # of connection points: 4
#     Node 3, Type 0, BuildingBlock: NAHDIM_clean_linker_0, # of connection points: 4
#     Node 4, Type 0, BuildingBlock: NAHDIM_clean_linker_0, # of connection points: 4
#     Node 5, Type 0, BuildingBlock: NAHDIM_clean_linker_0, # of connection points: 4
#     Node 6, Type 0, BuildingBlock: NAHDIM_clean_linker_0, # of connection points: 4
#     Node 7, Type 0, BuildingBlock: NAHDIM_clean_linker_0, # of connection points: 4
#     Node 8, Type 1, BuildingBlock: KOZSID_clean_sbu_0, # of connection points: 4
#     Node 9, Type 1, BuildingBlock: KOZSID_clean_sbu_0, # of connection points: 4
#     Node 10, Type 1, BuildingBlock: KOZSID_clean_sbu_0, # of connection points: 4
#     Node 11, Type 1, BuildingBlock: KOZSID_clean_sbu_0, # of connection points: 4
#     Node 12, Type 1, BuildingBlock: KOZSID_clean_sbu_0, # of connection points: 4
#     Node 13, Type 1, BuildingBlock: KOZSID_clean_sbu_0, # of connection points: 4
#     Node 14, Type 1, BuildingBlock: KOZSID_clean_sbu_0, # of connection points: 4
#     Node 15, Type 1, BuildingBlock: KOZSID_clean_sbu_0, # of connection points: 4
#     Edge 16, Type (0, 1), BuildingBlock: EZIPEK_clean_linker_0, # of connection points: 2
#     Edge 17, Type (0, 1), BuildingBlock: EZIPEK_clean_linker_0, # of connection points: 2
#     Edge 18, Type (0, 1), BuildingBlock: EZIPEK_clean_linker_0, # of connection points: 2
#     Edge 19, Type (0, 1), BuildingBlock: EZIPEK_clean_linker_0, # of connection points: 2
#     Edge 20, Type (0, 1), BuildingBlock: EZIPEK_clean_linker_0, # of connection points: 2
#     Edge 21, Type (0, 1), BuildingBlock: EZIPEK_clean_linker_0, # of connection points: 2
#     Edge 22, Type (0, 1), BuildingBlock: EZIPEK_clean_linker_0, # of connection points: 2
#     Edge 23, Type (0, 1), BuildingBlock: EZIPEK_clean_linker_0, # of connection points: 2
#     Edge 24, Type (0, 1), BuildingBlock: EZIPEK_clean_linker_0, # of connection points: 2
#     Edge 25, Type (0, 1), BuildingBlock: EZIPEK_clean_linker_0, # of connection points: 2
#     Edge 26, Type (0, 1), BuildingBlock: EZIPEK_clean_linker_0, # of connection points: 2
#     Edge 27, Type (0, 1), BuildingBlock: EZIPEK_clean_linker_0, # of connection points: 2
#     Edge 28, Type (0, 1), BuildingBlock: EZIPEK_clean_linker_0, # of connection points: 2
#     Edge 29, Type (0, 1), BuildingBlock: EZIPEK_clean_linker_0, # of connection points: 2
#     Edge 30, Type (0, 1), BuildingBlock: EZIPEK_clean_linker_0, # of connection points: 2
#     Edge 31, Type (0, 1), BuildingBlock: EZIPEK_clean_linker_0, # of connection points: 2
#     Edge 32, Type (0, 1), BuildingBlock: EZIPEK_clean_linker_0, # of connection points: 2
#     Edge 33, Type (0, 1), BuildingBlock: EZIPEK_clean_linker_0, # of connection points: 2
#     Edge 34, Type (0, 1), BuildingBlock: EZIPEK_clean_linker_0, # of connection points: 2
#     Edge 35, Type (0, 1), BuildingBlock: EZIPEK_clean_linker_0, # of connection points: 2
#     Edge 36, Type (0, 1), BuildingBlock: EZIPEK_clean_linker_0, # of connection points: 2
#     Edge 37, Type (0, 1), BuildingBlock: EZIPEK_clean_linker_0, # of connection points: 2
#     Edge 38, Type (0, 1), BuildingBlock: EZIPEK_clean_linker_0, # of connection points: 2
#     Edge 39, Type (0, 1), BuildingBlock: EZIPEK_clean_linker_0, # of connection points: 2
#     Edge 40, Type (0, 1), BuildingBlock: EZIPEK_clean_linker_0, # of connection points: 2
#     Edge 41, Type (0, 1), BuildingBlock: EZIPEK_clean_linker_0, # of connection points: 2
#     Edge 42, Type (0, 1), BuildingBlock: EZIPEK_clean_linker_0, # of connection points: 2
#     Edge 43, Type (0, 1), BuildingBlock: EZIPEK_clean_linker_0, # of connection points: 2
#     Edge 44, Type (0, 1), BuildingBlock: EZIPEK_clean_linker_0, # of connection points: 2
#     Edge 45, Type (0, 1), BuildingBlock: EZIPEK_clean_linker_0, # of connection points: 2
#     Edge 46, Type (0, 1), BuildingBlock: EZIPEK_clean_linker_0, # of connection points: 2
#     Edge 47, Type (0, 1), BuildingBlock: EZIPEK_clean_linker_0, # of connection points: 2
# Relax obj value: 0.005
# Max RMSD: 0.054
# Mean RMSD: 0.033
data_MOF--net-ssb--node1-KOZSID_clean_sbu_0--node2-NAHDIM_clean_linker_0--edge1-EZIPEK_clean_linker_0
_symmetry_space_group_name_H-M    P1
_symmetry_Int_Tables_number       1
_symmetry_cell_setting            triclinic
loop_
_symmetry_equiv_pos_as_xyz
'x, y, z'
_cell_length_a     59.252599
_cell_length_b     59.106441
_cell_length_c     43.294563
_cell_angle_alpha  92.34371
_cell_angle_beta   94.921442
_cell_angle_gamma 90.006464
loop_
_atom_site_label
_atom_site_type_symbol
_atom_site_fract_x
_atom_site_fract_y
_atom_site_fract_z
_atom_type_partial_charge
C0 C 0.32956 0.10574 0.35166 0.0
C1 C 0.3135 0.11785 0.37298 0.0
C2 C 0.29663 0.14958 0.34398 0.0
C3 C 0.30928 0.16764 0.35894 0.0
C4 C 0.30959 0.18894 0.34576 0.0
C5 C 0.29721 0.19227 0.3169 0.0
C6 C 0.28396 0.17434 0.30221 0.0
C7 C 0.28356 0.15335 0.31626 0.0
C8 C 0.32351 0.20782 0.36244 0.0
C9 C 0.27077 0.1771 0.27119 0.0
C10 C 0.42117 0.19235 0.20498 0.0
C11 C 0.4084 0.20987 0.18484 0.0
C12 C 0.3824 0.2301 0.21755 0.0
C13 C 0.36177 0.22035 0.2051 0.0
C14 C 0.34219 0.22257 0.22091 0.0
C15 C 0.34324 0.23459 0.2499 0.0
C16 C 0.36377 0.24492 0.26219 0.0
C17 C 0.38303 0.24281 0.24555 0.0
C18 C 0.3204 0.21171 0.20683 0.0
C19 C 0.36547 0.25772 0.29318 0.0
C20 C 0.25779 0.36538 0.21024 0.0
C21 C 0.25356 0.34428 0.19479 0.0
C22 C 0.25415 0.32427 0.21127 0.0
C23 C 0.25966 0.32536 0.24379 0.0
C24 C 0.26448 0.34661 0.25926 0.0
C25 C 0.26306 0.36637 0.24232 0.0
C26 C 0.24793 0.30209 0.19409 0.0
C27 C 0.2705 0.34853 0.29385 0.0
C28 C 0.14817 0.24809 0.38182 0.0
C29 C 0.14755 0.27388 0.37851 0.0
C30 C 0.17168 0.28036 0.33662 0.0
C31 C 0.17284 0.27294 0.30579 0.0
C32 C 0.19334 0.27345 0.2919 0.0
C33 C 0.213 0.2821 0.30923 0.0
C34 C 0.21184 0.29017 0.34025 0.0
C35 C 0.19116 0.28922 0.35367 0.0
C36 C 0.19399 0.26484 0.25869 0.0
C37 C 0.2324 0.30008 0.35902 0.0
C38 C 0.30003 0.21367 0.30072 0.0
C39 C 0.31944 0.21577 0.28494 0.0
C40 C 0.32318 0.23486 0.26812 0.0
C41 C 0.30727 0.25268 0.2671 0.0
C42 C 0.31053 0.27215 0.25036 0.0
C43 C 0.29455 0.28945 0.24912 0.0
C44 C 0.27452 0.2877 0.26406 0.0
C45 C 0.25777 0.30479 0.26209 0.0
C46 C 0.2381 0.3024 0.27729 0.0
C47 C 0.23457 0.28347 0.29449 0.0
C48 C 0.25104 0.26621 0.2968 0.0
C49 C 0.24795 0.24689 0.31394 0.0
C50 C 0.26411 0.2298 0.31565 0.0
C51 C 0.28383 0.23127 0.3 0.0
C52 C 0.28746 0.2508 0.28298 0.0
C53 C 0.27104 0.26829 0.28138 0.0
C54 C 0.28888 0.39806 0.17383 0.0
C55 C 0.26422 0.38992 0.16766 0.0
O56 O 0.29617 0.12851 0.35557 0.0
O57 O 0.15132 0.27942 0.34863 0.0
O58 O 0.25543 0.38513 0.19532 0.0
O59 O 0.40186 0.22809 0.20317 0.0
H60 H 0.3249 0.1302 0.38633 0.0
H61 H 0.33944 0.11855 0.34035 0.0
H62 H 0.32049 0.09519 0.33284 0.0
H63 H 0.34174 0.09498 0.36538 0.0
H64 H 0.31882 0.16552 0.38099 0.0
H65 H 0.27358 0.13948 0.30509 0.0
H66 H 0.33856 0.21109 0.34964 0.0
H67 H 0.32945 0.20366 0.38657 0.0
H68 H 0.31347 0.22368 0.36307 0.0
H69 H 0.26235 0.16112 0.26201 0.0
H70 H 0.28223 0.18284 0.25407 0.0
H71 H 0.25762 0.19028 0.27346 0.0
H72 H 0.39369 0.20003 0.17416 0.0
H73 H 0.42844 0.17896 0.19006 0.0
H74 H 0.40917 0.18413 0.21945 0.0
H75 H 0.43489 0.19997 0.22104 0.0
H76 H 0.36054 0.21117 0.18297 0.0
H77 H 0.39891 0.25055 0.25478 0.0
H78 H 0.30627 0.22403 0.20721 0.0
H79 H 0.31612 0.19724 0.22082 0.0
H80 H 0.32165 0.20537 0.18253 0.0
H81 H 0.38281 0.26442 0.29979 0.0
H82 H 0.36066 0.24643 0.31144 0.0
H83 H 0.35341 0.27209 0.29244 0.0
H84 H 0.26562 0.37424 0.15301 0.0
H85 H 0.24881 0.34341 0.17011 0.0
H86 H 0.26608 0.38277 0.25409 0.0
H87 H 0.2628 0.29067 0.19523 0.0
H88 H 0.24224 0.30438 0.16929 0.0
H89 H 0.2342 0.29358 0.20519 0.0
H90 H 0.2776 0.36546 0.30143 0.0
H91 H 0.283 0.33535 0.30108 0.0
H92 H 0.25505 0.34577 0.30603 0.0
H93 H 0.16158 0.28001 0.39527 0.0
H94 H 0.1441 0.24383 0.40549 0.0
H95 H 0.16546 0.24172 0.37844 0.0
H96 H 0.13622 0.23892 0.36463 0.0
H97 H 0.15762 0.26644 0.29274 0.0
H98 H 0.19029 0.296 0.3771 0.0
H99 H 0.20732 0.25174 0.25718 0.0
H100 H 0.19842 0.27896 0.24416 0.0
H101 H 0.17751 0.25747 0.24896 0.0
H102 H 0.22864 0.30598 0.38272 0.0
H103 H 0.23901 0.31459 0.34695 0.0
H104 H 0.24601 0.28718 0.36102 0.0
H105 H 0.33165 0.20207 0.2852 0.0
H106 H 0.3255 0.27424 0.23805 0.0
H107 H 0.29796 0.3041 0.23602 0.0
H108 H 0.2252 0.31545 0.2755 0.0
H109 H 0.23295 0.24475 0.32618 0.0
H110 H 0.26087 0.21531 0.32917 0.0
H111 H 0.29561 0.40279 0.15179 0.0
H112 H 0.29952 0.38418 0.18366 0.0
H113 H 0.29067 0.41277 0.19056 0.0
C114 C 0.62154 0.1623 0.16063 0.0
C115 C 0.62178 0.18802 0.15685 0.0
C116 C 0.65901 0.20493 0.17316 0.0
C117 C 0.65323 0.22102 0.19582 0.0
C118 C 0.66978 0.22997 0.21811 0.0
C119 C 0.69249 0.22266 0.2176 0.0
C120 C 0.69852 0.20732 0.19377 0.0
C121 C 0.68167 0.19889 0.17155 0.0
C122 C 0.66291 0.24674 0.24278 0.0
C123 C 0.72257 0.19919 0.1925 0.0
C124 C 0.73026 0.11966 0.4155 0.0
C125 C 0.73722 0.14074 0.40079 0.0
C126 C 0.72214 0.16826 0.36375 0.0
C127 C 0.74191 0.17186 0.34883 0.0
C128 C 0.74284 0.18876 0.32709 0.0
C129 C 0.72414 0.2035 0.32171 0.0
C130 C 0.70465 0.20064 0.33804 0.0
C131 C 0.70371 0.18267 0.35814 0.0
C132 C 0.76359 0.19006 0.30918 0.0
C133 C 0.68447 0.21614 0.33381 0.0
C134 C 0.8423 0.29992 0.36796 0.0
C135 C 0.84046 0.28017 0.34891 0.0
C136 C 0.82285 0.27746 0.32531 0.0
C137 C 0.80602 0.29445 0.32176 0.0
C138 C 0.80784 0.31441 0.3411 0.0
C139 C 0.82631 0.31708 0.36356 0.0
C140 C 0.82258 0.25653 0.30401 0.0
C141 C 0.79033 0.3329 0.33814 0.0
C142 C 0.79938 0.3623 0.09597 0.0
C143 C 0.78459 0.36352 0.12331 0.0
C144 C 0.78934 0.34093 0.16918 0.0
C145 C 0.80233 0.32202 0.17697 0.0
C146 C 0.79614 0.30757 0.1997 0.0
C147 C 0.77704 0.31289 0.21616 0.0
C148 C 0.76367 0.33203 0.20812 0.0
C149 C 0.76976 0.34565 0.18421 0.0
C150 C 0.81061 0.2871 0.20687 0.0
C151 C 0.74366 0.33871 0.22575 0.0
C152 C 0.70914 0.22877 0.24413 0.0
C153 C 0.70943 0.21526 0.26985 0.0
C154 C 0.72387 0.22001 0.29653 0.0
C155 C 0.73843 0.23907 0.2977 0.0
C156 C 0.75236 0.2452 0.32463 0.0
C157 C 0.76792 0.26285 0.32472 0.0
C158 C 0.77008 0.27503 0.29788 0.0
C159 C 0.78716 0.29162 0.29694 0.0
C160 C 0.78811 0.30417 0.27045 0.0
C161 C 0.77305 0.3001 0.24412 0.0
C162 C 0.75641 0.2829 0.24416 0.0
C163 C 0.74149 0.27761 0.21781 0.0
C164 C 0.72559 0.26024 0.21795 0.0
C165 C 0.72443 0.24713 0.24416 0.0
C166 C 0.73917 0.25225 0.27108 0.0
C167 C 0.75504 0.27027 0.27116 0.0
C168 C 0.85466 0.29869 0.4426 0.0
C169 C 0.86465 0.28796 0.41376 0.0
O170 O 0.64336 0.19536 0.1519 0.0
O171 O 0.79705 0.35523 0.14876 0.0
O172 O 0.85971 0.30286 0.39025 0.0
O173 O 0.71984 0.15061 0.38252 0.0
H174 H 0.61719 0.19454 0.17967 0.0
H175 H 0.63427 0.15777 0.17971 0.0
H176 H 0.62534 0.15251 0.13937 0.0
H177 H 0.60459 0.15689 0.16682 0.0
H178 H 0.63591 0.22668 0.19617 0.0
H179 H 0.68597 0.18685 0.15344 0.0
H180 H 0.66434 0.23869 0.26558 0.0
H181 H 0.64523 0.25271 0.23793 0.0
H182 H 0.67449 0.2616 0.24464 0.0
H183 H 0.7246 0.18776 0.17192 0.0
H184 H 0.72784 0.18999 0.21377 0.0
H185 H 0.73416 0.21389 0.19188 0.0
H186 H 0.74649 0.15351 0.41684 0.0
H187 H 0.75036 0.09511 0.39675 0.0
H188 H 0.7112 0.1189 0.41251 0.0
H189 H 0.73124 0.12415 0.44109 0.0
H190 H 0.75638 0.16095 0.35282 0.0
H191 H 0.68853 0.17988 0.36978 0.0
H192 H 0.75898 0.19386 0.28455 0.0
H193 H 0.77335 0.17401 0.3098 0.0
H194 H 0.77493 0.20374 0.3197 0.0
H195 H 0.67395 0.21584 0.35383 0.0
H196 H 0.6737 0.21045 0.31268 0.0
H197 H 0.68989 0.23386 0.33085 0.0
H198 H 0.856 0.27145 0.40783 0.0
H199 H 0.85316 0.26708 0.35205 0.0
H200 H 0.82805 0.33235 0.3783 0.0
H201 H 0.81012 0.2442 0.31118 0.0
H202 H 0.83939 0.24814 0.30493 0.0
H203 H 0.81755 0.26072 0.27961 0.0
H204 H 0.79206 0.34532 0.35817 0.0
H205 H 0.77299 0.32555 0.33627 0.0
H206 H 0.7923 0.34207 0.31667 0.0
H207 H 0.77042 0.35159 0.11655 0.0
H208 H 0.80502 0.3446 0.09177 0.0
H209 H 0.78968 0.36784 0.07449 0.0
H210 H 0.81463 0.37324 0.10089 0.0
H211 H 0.81747 0.31864 0.16518 0.0
H212 H 0.75996 0.36057 0.17832 0.0
H213 H 0.79989 0.27226 0.21082 0.0
H214 H 0.82182 0.29076 0.22837 0.0
H215 H 0.82146 0.2826 0.18785 0.0
H216 H 0.73585 0.3548 0.21785 0.0
H217 H 0.74903 0.34068 0.25093 0.0
H218 H 0.7306 0.32517 0.2227 0.0
H219 H 0.6983 0.20061 0.26894 0.0
H220 H 0.75161 0.23618 0.34579 0.0
H221 H 0.7785 0.26661 0.34596 0.0
H222 H 0.80148 0.31666 0.26978 0.0
H223 H 0.74204 0.2868 0.19676 0.0
H224 H 0.71453 0.25687 0.19704 0.0
H225 H 0.86421 0.31431 0.45076 0.0
H226 H 0.85477 0.28706 0.46201 0.0
H227 H 0.83669 0.30338 0.43669 0.0
C228 C 0.67508 0.90795 0.32915 0.0
C229 C 0.69229 0.89644 0.35199 0.0
C230 C 0.70884 0.8638 0.32472 0.0
C231 C 0.69739 0.84613 0.33775 0.0
C232 C 0.69784 0.82392 0.32509 0.0
C233 C 0.70955 0.81924 0.29844 0.0
C234 C 0.72132 0.83688 0.28544 0.0
C235 C 0.72116 0.85882 0.29919 0.0
C236 C 0.68548 0.80548 0.34005 0.0
C237 C 0.73364 0.8327 0.25666 0.0
C238 C 0.57217 0.7265 0.16809 0.0
C239 C 0.58965 0.74532 0.16528 0.0
C240 C 0.61746 0.75786 0.20704 0.0
C241 C 0.63356 0.76935 0.19168 0.0
C242 C 0.65584 0.77224 0.20513 0.0
C243 C 0.66188 0.76398 0.23494 0.0
C244 C 0.64543 0.75283 0.25077 0.0
C245 C 0.62337 0.74994 0.23656 0.0
C246 C 0.67277 0.78462 0.18783 0.0
C247 C 0.65101 0.74443 0.28298 0.0
C248 C 0.75878 0.64225 0.206 0.0
C249 C 0.76079 0.66274 0.19102 0.0
C250 C 0.7598 0.68365 0.20743 0.0
C251 C 0.75626 0.68418 0.23938 0.0
C252 C 0.75399 0.66359 0.25445 0.0
C253 C 0.75564 0.64291 0.23763 0.0
C254 C 0.76326 0.70518 0.19076 0.0
C255 C 0.75022 0.66341 0.28846 0.0
C256 C 0.8842 0.777 0.39664 0.0
C257 C 0.87093 0.75508 0.3881 0.0
C258 C 0.84379 0.74892 0.34197 0.0
C259 C 0.83912 0.75549 0.31148 0.0
C260 C 0.81837 0.75018 0.29472 0.0
C261 C 0.80184 0.73796 0.30895 0.0
C262 C 0.80665 0.7307 0.33956 0.0
C263 C 0.82767 0.73612 0.35574 0.0
C264 C 0.81405 0.75773 0.26186 0.0
C265 C 0.78955 0.71724 0.35514 0.0
C266 C 0.70802 0.79628 0.28302 0.0
C267 C 0.68777 0.79044 0.26565 0.0
C268 C 0.68459 0.76908 0.25094 0.0
C269 C 0.70241 0.75312 0.25267 0.0
C270 C 0.7001 0.7317 0.23735 0.0
C271 C 0.71783 0.71618 0.23911 0.0
C272 C 0.73855 0.72152 0.25619 0.0
C273 C 0.7569 0.70613 0.25751 0.0
C274 C 0.77707 0.71192 0.27525 0.0
C275 C 0.7796 0.73272 0.29167 0.0
C276 C 0.76158 0.74844 0.29033 0.0
C277 C 0.76362 0.76961 0.30642 0.0
C278 C 0.74606 0.78524 0.30426 0.0
C279 C 0.72579 0.78032 0.28593 0.0
C280 C 0.72308 0.75879 0.27029 0.0
C281 C 0.74106 0.74288 0.27234 0.0
C282 C 0.72852 0.60726 0.15923 0.0
C283 C 0.75316 0.61564 0.16088 0.0
O284 O 0.70893 0.88563 0.33621 0.0
O285 O 0.8642 0.75496 0.35672 0.0
O286 O 0.76084 0.62164 0.19128 0.0
O287 O 0.59587 0.75504 0.19443 0.0
H288 H 0.68166 0.88424 0.363 0.0
H289 H 0.66505 0.89479 0.31495 0.0
H290 H 0.68321 0.91864 0.31283 0.0
H291 H 0.66315 0.91849 0.34199 0.0
H292 H 0.68827 0.84917 0.35801 0.0
H293 H 0.73016 0.87242 0.28944 0.0
H294 H 0.66975 0.80093 0.32532 0.0
H295 H 0.68074 0.81087 0.36351 0.0
H296 H 0.69609 0.79003 0.34202 0.0
H297 H 0.73982 0.84866 0.24755 0.0
H298 H 0.72234 0.82387 0.23821 0.0
H299 H 0.74842 0.82157 0.26203 0.0
H300 H 0.60413 0.73571 0.15706 0.0
H301 H 0.56668 0.71884 0.14478 0.0
H302 H 0.55704 0.7328 0.17909 0.0
H303 H 0.5799 0.71298 0.1826 0.0
H304 H 0.62852 0.77668 0.1697 0.0
H305 H 0.6106 0.74147 0.24842 0.0
H306 H 0.67666 0.80134 0.19971 0.0
H307 H 0.66631 0.78741 0.16342 0.0
H308 H 0.68884 0.77496 0.18791 0.0
H309 H 0.63611 0.73673 0.2925 0.0
H310 H 0.65741 0.75866 0.29889 0.0
H311 H 0.66465 0.73158 0.28252 0.0
H312 H 0.75207 0.6306 0.14624 0.0
H313 H 0.76397 0.66269 0.16685 0.0
H314 H 0.75434 0.62707 0.24913 0.0
H315 H 0.74735 0.71513 0.18938 0.0
H316 H 0.76817 0.7018 0.16682 0.0
H317 H 0.77661 0.71579 0.20384 0.0
H318 H 0.74527 0.64636 0.29552 0.0
H319 H 0.73684 0.67572 0.29399 0.0
H320 H 0.76608 0.66862 0.30245 0.0
H321 H 0.85579 0.75652 0.40141 0.0
H322 H 0.88943 0.7782 0.42193 0.0
H323 H 0.87343 0.79186 0.39074 0.0
H324 H 0.89957 0.77773 0.38367 0.0
H325 H 0.85183 0.76502 0.30089 0.0
H326 H 0.83141 0.73014 0.37885 0.0
H327 H 0.7998 0.76993 0.26048 0.0
H328 H 0.80905 0.74298 0.24604 0.0
H329 H 0.82915 0.76594 0.25354 0.0
H330 H 0.79545 0.71365 0.3795 0.0
H331 H 0.78612 0.70091 0.34197 0.0
H332 H 0.77331 0.72662 0.35497 0.0
H333 H 0.67405 0.80263 0.26398 0.0
H334 H 0.68458 0.72677 0.22369 0.0
H335 H 0.71514 0.69995 0.22682 0.0
H336 H 0.79117 0.70018 0.27588 0.0
H337 H 0.77889 0.77438 0.32075 0.0
H338 H 0.7486 0.80129 0.31706 0.0
H339 H 0.7262 0.59357 0.1754 0.0
H340 H 0.72287 0.60105 0.13524 0.0
H341 H 0.71734 0.6215 0.16556 0.0
C342 C 0.38272 0.82542 0.1562 0.0
C343 C 0.38182 0.79962 0.14994 0.0
C344 C 0.34456 0.78954 0.16456 0.0
C345 C 0.34973 0.77682 0.19084 0.0
C346 C 0.33389 0.77441 0.21278 0.0
C347 C 0.31256 0.7851 0.20833 0.0
C348 C 0.3072 0.79765 0.18155 0.0
C349 C 0.32321 0.79938 0.15969 0.0
C350 C 0.33993 0.76042 0.24067 0.0
C351 C 0.28467 0.8094 0.17617 0.0
C352 C 0.33973 0.88026 0.4073 0.0
C353 C 0.31981 0.87672 0.38263 0.0
C354 C 0.30363 0.84123 0.36034 0.0
C355 C 0.29126 0.84962 0.33422 0.0
C356 C 0.28385 0.83507 0.30898 0.0
C357 C 0.28924 0.81177 0.30982 0.0
C358 C 0.30123 0.80321 0.33653 0.0
C359 C 0.30786 0.81806 0.36175 0.0
C360 C 0.2706 0.84465 0.2812 0.0
C361 C 0.30768 0.77854 0.33805 0.0
C362 C 0.16321 0.72731 0.33667 0.0
C363 C 0.16074 0.74467 0.31549 0.0
C364 C 0.17626 0.74711 0.29317 0.0
C365 C 0.19472 0.73198 0.29228 0.0
C366 C 0.19699 0.71421 0.31328 0.0
C367 C 0.18095 0.71193 0.33496 0.0
C368 C 0.1728 0.76569 0.27034 0.0
C369 C 0.21623 0.69752 0.3127 0.0
C370 C 0.24906 0.65438 0.0743 0.0
C371 C 0.23867 0.64863 0.1043 0.0
C372 C 0.22093 0.67675 0.13793 0.0
C373 C 0.21033 0.69781 0.13676 0.0
C374 C 0.2097 0.71184 0.16354 0.0
C375 C 0.22008 0.70449 0.192 0.0
C376 C 0.22934 0.68249 0.19373 0.0
C377 C 0.22935 0.6687 0.16666 0.0
C378 C 0.19892 0.7349 0.16115 0.0
C379 C 0.23984 0.67382 0.22395 0.0
C380 C 0.29599 0.78334 0.23193 0.0
C381 C 0.29883 0.79768 0.25837 0.0
C382 C 0.28413 0.79675 0.28184 0.0
C383 C 0.26572 0.78136 0.27875 0.0
C384 C 0.25038 0.78019 0.30169 0.0
C385 C 0.23256 0.76466 0.29858 0.0
C386 C 0.22923 0.74996 0.27219 0.0
C387 C 0.21113 0.73417 0.2686 0.0
C388 C 0.20836 0.71981 0.2421 0.0
C389 C 0.22339 0.72057 0.21909 0.0
C390 C 0.24165 0.73609 0.22223 0.0
C391 C 0.25728 0.73697 0.19959 0.0
C392 C 0.27509 0.75239 0.20272 0.0
C393 C 0.278 0.76752 0.22864 0.0
C394 C 0.2627 0.76667 0.25202 0.0
C395 C 0.24447 0.75095 0.24878 0.0
C396 C 0.14995 0.73937 0.4095 0.0
C397 C 0.13954 0.74198 0.3761 0.0
O398 O 0.35969 0.79224 0.14325 0.0
O399 O 0.22272 0.66486 0.11084 0.0
O400 O 0.14831 0.7246 0.35836 0.0
O401 O 0.31159 0.85499 0.38467 0.0
H402 H 0.38893 0.79294 0.17223 0.0
H403 H 0.37386 0.82995 0.17719 0.0
H404 H 0.37453 0.83489 0.13677 0.0
H405 H 0.4006 0.83117 0.1606 0.0
H406 H 0.36598 0.76849 0.19402 0.0
H407 H 0.31936 0.80893 0.13905 0.0
H408 H 0.34101 0.77156 0.26202 0.0
H409 H 0.35637 0.75155 0.23931 0.0
H410 H 0.32647 0.74765 0.24286 0.0
H411 H 0.28386 0.81999 0.15549 0.0
H412 H 0.28145 0.8203 0.19683 0.0
H413 H 0.2709 0.79658 0.1728 0.0
H414 H 0.32731 0.8779 0.36012 0.0
H415 H 0.34732 0.89733 0.40581 0.0
H416 H 0.33412 0.87853 0.43094 0.0
H417 H 0.35302 0.86741 0.40359 0.0
H418 H 0.28727 0.86747 0.3336 0.0
H419 H 0.31719 0.81179 0.38227 0.0
H420 H 0.2813 0.84444 0.26136 0.0
H421 H 0.2651 0.86234 0.28586 0.0
H422 H 0.25542 0.83402 0.27418 0.0
H423 H 0.31841 0.77495 0.3596 0.0
H424 H 0.31702 0.77337 0.31775 0.0
H425 H 0.29216 0.76796 0.3371 0.0
H426 H 0.1451 0.75859 0.36838 0.0
H427 H 0.1464 0.75601 0.31593 0.0
H428 H 0.1824 0.69834 0.35107 0.0
H429 H 0.1868 0.7782 0.27449 0.0
H430 H 0.15649 0.77469 0.27232 0.0
H431 H 0.17318 0.75856 0.24626 0.0
H432 H 0.21754 0.68692 0.33339 0.0
H433 H 0.23258 0.7065 0.31149 0.0
H434 H 0.21344 0.68616 0.29167 0.0
H435 H 0.25328 0.65031 0.12175 0.0
H436 H 0.26184 0.64144 0.06861 0.0
H437 H 0.25768 0.67111 0.07741 0.0
H438 H 0.23607 0.65524 0.05436 0.0
H439 H 0.20328 0.70359 0.11453 0.0
H440 H 0.23609 0.65182 0.16804 0.0
H441 H 0.21236 0.74809 0.16342 0.0
H442 H 0.18785 0.73805 0.18031 0.0
H443 H 0.18872 0.73671 0.13863 0.0
H444 H 0.2471 0.65661 0.22111 0.0
H445 H 0.2268 0.67327 0.24082 0.0
H446 H 0.25347 0.68553 0.23395 0.0
H447 H 0.3129 0.80956 0.26092 0.0
H448 H 0.25205 0.79121 0.32236 0.0
H449 H 0.2214 0.76436 0.31708 0.0
H450 H 0.19444 0.70777 0.23947 0.0
H451 H 0.25596 0.72575 0.17912 0.0
H452 H 0.28655 0.75228 0.18455 0.0
H453 H 0.14424 0.72323 0.41867 0.0
H454 H 0.14535 0.75358 0.42523 0.0
H455 H 0.16872 0.73909 0.40991 0.0
C456 C 0.12287 0.67231 0.63441 0.0
C457 C 0.12238 0.69826 0.63743 0.0
C458 C 0.16006 0.71354 0.65354 0.0
C459 C 0.15614 0.72839 0.6785 0.0
C460 C 0.17392 0.73497 0.70054 0.0
C461 C 0.19594 0.72624 0.69761 0.0
C462 C 0.19996 0.71159 0.672 0.0
C463 C 0.18196 0.70579 0.64991 0.0
C464 C 0.1691 0.751 0.72719 0.0
C465 C 0.22309 0.70168 0.66836 0.0
C466 C 0.23991 0.65639 0.9253 0.0
C467 C 0.23671 0.65235 0.89004 0.0
C468 C 0.22507 0.68146 0.85297 0.0
C469 C 0.23829 0.67424 0.82905 0.0
C470 C 0.24053 0.68774 0.80354 0.0
C471 C 0.2291 0.70872 0.8018 0.0
C472 C 0.21546 0.71584 0.8256 0.0
C473 C 0.21357 0.70203 0.85083 0.0
C474 C 0.25489 0.6795 0.77824 0.0
C475 C 0.20276 0.73795 0.82424 0.0
C476 C 0.34415 0.80927 0.84607 0.0
C477 C 0.34699 0.78966 0.82752 0.0
C478 C 0.33171 0.78424 0.80171 0.0
C479 C 0.31264 0.79827 0.79519 0.0
C480 C 0.30986 0.81817 0.81389 0.0
C481 C 0.32598 0.82365 0.83875 0.0
C482 C 0.33599 0.76352 0.78151 0.0
C483 C 0.28976 0.83354 0.80787 0.0
C484 C 0.25065 0.86916 0.58363 0.0
C485 C 0.26925 0.87759 0.60833 0.0
C486 C 0.28132 0.84565 0.64116 0.0
C487 C 0.29725 0.82832 0.64488 0.0
C488 C 0.29663 0.81307 0.66883 0.0
C489 C 0.2799 0.81556 0.69014 0.0
C490 C 0.26377 0.83315 0.68674 0.0
C491 C 0.26429 0.84764 0.66191 0.0
C492 C 0.31397 0.79441 0.67146 0.0
C493 C 0.24611 0.83691 0.7096 0.0
C494 C 0.21426 0.73115 0.72254 0.0
C495 C 0.21447 0.7185 0.74909 0.0
C496 C 0.23043 0.72268 0.77429 0.0
C497 C 0.24677 0.73999 0.77317 0.0
C498 C 0.26266 0.74506 0.79849 0.0
C499 C 0.2785 0.76232 0.79729 0.0
C500 C 0.27938 0.77486 0.77047 0.0
C501 C 0.29563 0.79223 0.76887 0.0
C502 C 0.29563 0.80467 0.7421 0.0
C503 C 0.27976 0.80041 0.71672 0.0
C504 C 0.26362 0.78285 0.71769 0.0
C505 C 0.24757 0.77786 0.69247 0.0
C506 C 0.23127 0.76107 0.69405 0.0
C507 C 0.23074 0.74825 0.72062 0.0
C508 C 0.24703 0.7527 0.74611 0.0
C509 C 0.26342 0.77008 0.7447 0.0
C510 C 0.35262 0.81112 0.92308 0.0
C511 C 0.36394 0.80052 0.8953 0.0
O512 O 0.14321 0.70717 0.63184 0.0
O513 O 0.28337 0.85995 0.6176 0.0
O514 O 0.35898 0.81466 0.87094 0.0
O515 O 0.22245 0.66897 0.87809 0.0
H516 H 0.11941 0.7016 0.66202 0.0
H517 H 0.13672 0.66576 0.65052 0.0
H518 H 0.12557 0.66593 0.61061 0.0
H519 H 0.10658 0.66526 0.64076 0.0
H520 H 0.13928 0.73504 0.68054 0.0
H521 H 0.18476 0.69462 0.63014 0.0
H522 H 0.16999 0.74159 0.74892 0.0
H523 H 0.15207 0.7588 0.72371 0.0
H524 H 0.18207 0.76466 0.73025 0.0
H525 H 0.22312 0.68969 0.64792 0.0
H526 H 0.22907 0.69265 0.68951 0.0
H527 H 0.23538 0.71549 0.66569 0.0
H528 H 0.25386 0.65469 0.8822 0.0
H529 H 0.22344 0.6552 0.93565 0.0
H530 H 0.24713 0.67354 0.93108 0.0
H531 H 0.25176 0.64373 0.93588 0.0
H532 H 0.24653 0.65795 0.82983 0.0
H533 H 0.20315 0.7073 0.8692 0.0
H534 H 0.24413 0.67722 0.75604 0.0
H535 H 0.2634 0.6632 0.78358 0.0
H536 H 0.268 0.69238 0.77482 0.0
H537 H 0.19332 0.74133 0.84502 0.0
H538 H 0.19056 0.73765 0.80328 0.0
H539 H 0.21478 0.75212 0.82225 0.0
H540 H 0.35597 0.7837 0.88934 0.0
H541 H 0.3614 0.77881 0.83302 0.0
H542 H 0.32411 0.83884 0.85317 0.0
H543 H 0.32409 0.74984 0.78623 0.0
H544 H 0.35354 0.75712 0.78603 0.0
H545 H 0.33303 0.7673 0.75657 0.0
H546 H 0.28841 0.84644 0.82701 0.0
H547 H 0.27383 0.82349 0.8048 0.0
H548 H 0.29139 0.84246 0.7861 0.0
H549 H 0.25968 0.88424 0.62754 0.0
H550 H 0.24062 0.88367 0.57444 0.0
H551 H 0.23897 0.85766 0.59429 0.0
H552 H 0.25751 0.85955 0.56405 0.0
H553 H 0.31025 0.82675 0.62878 0.0
H554 H 0.25139 0.86046 0.65946 0.0
H555 H 0.30555 0.77793 0.6744 0.0
H556 H 0.32591 0.7979 0.6923 0.0
H557 H 0.32387 0.7929 0.65081 0.0
H558 H 0.23731 0.85338 0.70673 0.0
H559 H 0.25396 0.83638 0.73379 0.0
H560 H 0.23322 0.82321 0.70618 0.0
H561 H 0.20182 0.70536 0.75032 0.0
H562 H 0.26292 0.73585 0.81962 0.0
H563 H 0.2901 0.76564 0.81767 0.0
H564 H 0.30795 0.81818 0.7412 0.0
H565 H 0.24732 0.78701 0.67129 0.0
H566 H 0.21914 0.75818 0.67411 0.0
H567 H 0.36085 0.82756 0.93068 0.0
H568 H 0.35341 0.79997 0.94309 0.0
H569 H 0.33442 0.81428 0.91627 0.0
C570 C 0.17823 0.39161 0.86632 0.0
C571 C 0.20074 0.3851 0.88411 0.0
C572 C 0.21363 0.3545 0.84996 0.0
C573 C 0.20316 0.33619 0.86282 0.0
C574 C 0.20163 0.31495 0.84718 0.0
C575 C 0.21053 0.31205 0.81802 0.0
C576 C 0.2212 0.33039 0.80509 0.0
C577 C 0.2229 0.35133 0.82153 0.0
C578 C 0.19049 0.29558 0.86184 0.0
C579 C 0.23066 0.32788 0.77386 0.0
C580 C 0.08577 0.31699 0.72157 0.0
C581 C 0.09715 0.3017 0.69808 0.0
C582 C 0.11965 0.27099 0.71981 0.0
C583 C 0.13908 0.27309 0.70376 0.0
C584 C 0.16056 0.26828 0.7181 0.0
C585 C 0.16249 0.26095 0.74891 0.0
C586 C 0.14267 0.25616 0.76358 0.0
C587 C 0.12138 0.26118 0.7487 0.0
C588 C 0.18128 0.273 0.70141 0.0
C589 C 0.14409 0.24765 0.79604 0.0
C590 C 0.24571 0.12877 0.74253 0.0
C591 C 0.25118 0.14574 0.72269 0.0
C592 C 0.25363 0.16836 0.73373 0.0
C593 C 0.25024 0.17399 0.76509 0.0
C594 C 0.24478 0.15683 0.78506 0.0
C595 C 0.24293 0.13436 0.77356 0.0
C596 C 0.26025 0.18615 0.71214 0.0
C597 C 0.24112 0.16217 0.81866 0.0
C598 C 0.37068 0.28015 0.90352 0.0
C599 C 0.3694 0.25418 0.90107 0.0
C600 C 0.34267 0.24106 0.85688 0.0
C601 C 0.33905 0.24359 0.82492 0.0
C602 C 0.31817 0.23805 0.80873 0.0
C603 C 0.3006 0.22934 0.82495 0.0
C604 C 0.30433 0.22603 0.85716 0.0
C605 C 0.32537 0.23192 0.87287 0.0
C606 C 0.31476 0.24178 0.77437 0.0
C607 C 0.28602 0.21634 0.87496 0.0
C608 C 0.20843 0.28981 0.80105 0.0
C609 C 0.18812 0.28486 0.78344 0.0
C610 C 0.18441 0.26384 0.76789 0.0
C611 C 0.2014 0.24706 0.77017 0.0
C612 C 0.19805 0.22546 0.75573 0.0
C613 C 0.215 0.2091 0.75833 0.0
C614 C 0.23604 0.21392 0.77498 0.0
C615 C 0.25347 0.19758 0.77763 0.0
C616 C 0.27427 0.20311 0.7939 0.0
C617 C 0.27808 0.22447 0.80833 0.0
C618 C 0.26074 0.24086 0.80664 0.0
C619 C 0.2639 0.26232 0.82161 0.0
C620 C 0.24671 0.2783 0.82007 0.0
C621 C 0.22588 0.27359 0.80298 0.0
C622 C 0.22233 0.2521 0.78755 0.0
C623 C 0.23973 0.23563 0.78965 0.0
C624 C 0.22293 0.07568 0.70829 0.0
C625 C 0.2347 0.09832 0.70431 0.0
O626 O 0.21543 0.37536 0.86426 0.0
O627 O 0.36343 0.24671 0.87072 0.0
O628 O 0.24381 0.1067 0.73296 0.0
O629 O 0.09953 0.27995 0.70901 0.0
H630 H 0.1957 0.37283 0.90087 0.0
H631 H 0.16887 0.37603 0.85756 0.0
H632 H 0.1807 0.40188 0.84605 0.0
H633 H 0.16744 0.40121 0.88201 0.0
H634 H 0.19646 0.33807 0.88519 0.0
H635 H 0.23109 0.36553 0.81194 0.0
H636 H 0.17482 0.29042 0.84737 0.0
H637 H 0.18597 0.30011 0.88568 0.0
H638 H 0.20197 0.28072 0.86281 0.0
H639 H 0.23722 0.34415 0.76621 0.0
H640 H 0.21733 0.32131 0.75616 0.0
H641 H 0.24465 0.31539 0.77499 0.0
H642 H 0.11419 0.30907 0.69712 0.0
H643 H 0.0836 0.33432 0.71277 0.0
H644 H 0.06899 0.31031 0.72635 0.0
H645 H 0.09662 0.31816 0.74383 0.0
H646 H 0.13754 0.27975 0.68072 0.0
H647 H 0.10619 0.2591 0.76059 0.0
H648 H 0.19335 0.25868 0.70368 0.0
H649 H 0.19 0.28836 0.71219 0.0
H650 H 0.17695 0.27581 0.67638 0.0
H651 H 0.12767 0.24052 0.80174 0.0
H652 H 0.14881 0.26191 0.81284 0.0
H653 H 0.15739 0.23448 0.79896 0.0
H654 H 0.22063 0.10958 0.69641 0.0
H655 H 0.25422 0.14131 0.69895 0.0
H656 H 0.23901 0.12101 0.78871 0.0
H657 H 0.24666 0.19902 0.70953 0.0
H658 H 0.26324 0.17886 0.68879 0.0
H659 H 0.27589 0.19501 0.72219 0.0
H660 H 0.2345 0.14737 0.83012 0.0
H661 H 0.22905 0.17644 0.82053 0.0
H662 H 0.25743 0.16751 0.83139 0.0
H663 H 0.35585 0.2505 0.91604 0.0
H664 H 0.37462 0.28594 0.92814 0.0
H665 H 0.35404 0.28736 0.89523 0.0
H666 H 0.38371 0.2872 0.88973 0.0
H667 H 0.35265 0.2503 0.81274 0.0
H668 H 0.32816 0.22887 0.89732 0.0
H669 H 0.30058 0.25377 0.76965 0.0
H670 H 0.31005 0.22554 0.76164 0.0
H671 H 0.33018 0.24864 0.76514 0.0
H672 H 0.29181 0.21405 0.89972 0.0
H673 H 0.28035 0.19971 0.86417 0.0
H674 H 0.27113 0.22777 0.87379 0.0
H675 H 0.17493 0.29762 0.78185 0.0
H676 H 0.18224 0.22098 0.74248 0.0
H677 H 0.21147 0.19269 0.74692 0.0
H678 H 0.2876 0.19051 0.79568 0.0
H679 H 0.27964 0.26699 0.83489 0.0
H680 H 0.25004 0.29446 0.83229 0.0
H681 H 0.23504 0.06279 0.71753 0.0
H682 H 0.2147 0.06914 0.68564 0.0
H683 H 0.20961 0.07805 0.72469 0.0
C684 C 0.88374 0.33857 0.66531 0.0
C685 C 0.8823 0.31259 0.66342 0.0
C686 C 0.84524 0.30196 0.67846 0.0
C687 C 0.8508 0.28835 0.70372 0.0
C688 C 0.83512 0.28457 0.7254 0.0
C689 C 0.81353 0.29478 0.72174 0.0
C690 C 0.80775 0.30825 0.696 0.0
C691 C 0.82365 0.3114 0.67436 0.0
C692 C 0.84151 0.26942 0.75197 0.0
C693 C 0.78478 0.31921 0.69135 0.0
C694 C 0.79594 0.35332 0.95042 0.0
C695 C 0.78458 0.36609 0.92293 0.0
C696 C 0.7939 0.34736 0.8749 0.0
C697 C 0.77407 0.34875 0.85499 0.0
C698 C 0.77052 0.33426 0.82852 0.0
C699 C 0.78655 0.31704 0.82304 0.0
C700 C 0.80626 0.31522 0.84385 0.0
C701 C 0.80995 0.33086 0.86902 0.0
C702 C 0.7499 0.33785 0.80625 0.0
C703 C 0.82376 0.2971 0.83935 0.0
C704 C 0.66379 0.23303 0.83842 0.0
C705 C 0.66171 0.24604 0.81192 0.0
C706 C 0.67865 0.24573 0.79129 0.0
C707 C 0.69785 0.23184 0.79703 0.0
C708 C 0.69943 0.21778 0.82276 0.0
C709 C 0.68223 0.21848 0.84311 0.0
C710 C 0.67619 0.26051 0.76357 0.0
C711 C 0.71956 0.20253 0.82912 0.0
C712 C 0.76787 0.14035 0.61402 0.0
C713 C 0.74462 0.13596 0.62598 0.0
C714 C 0.73269 0.17084 0.65303 0.0
C715 C 0.7169 0.18841 0.65193 0.0
C716 C 0.71634 0.20461 0.67651 0.0
C717 C 0.73192 0.20301 0.70297 0.0
C718 C 0.74781 0.18516 0.70444 0.0
C719 C 0.74829 0.1695 0.67932 0.0
C720 C 0.69924 0.2235 0.67413 0.0
C721 C 0.76446 0.18269 0.73254 0.0
C722 C 0.79692 0.291 0.74465 0.0
C723 C 0.79798 0.3051 0.77138 0.0
C724 C 0.78355 0.30184 0.79474 0.0
C725 C 0.76715 0.28429 0.79095 0.0
C726 C 0.75229 0.2804 0.81382 0.0
C727 C 0.73559 0.26377 0.80914 0.0
C728 C 0.73372 0.24975 0.78198 0.0
C729 C 0.71665 0.23301 0.77677 0.0
C730 C 0.71627 0.21821 0.75073 0.0
C731 C 0.73212 0.22024 0.7289 0.0
C732 C 0.74832 0.23793 0.73254 0.0
C733 C 0.76358 0.24134 0.71003 0.0
C734 C 0.7795 0.25872 0.71391 0.0
C735 C 0.78081 0.27331 0.7405 0.0
C736 C 0.76572 0.27011 0.76359 0.0
C737 C 0.74927 0.25256 0.7594 0.0
C738 C 0.64775 0.26007 0.90124 0.0
C739 C 0.6365 0.25276 0.86904 0.0
O740 O 0.86004 0.30556 0.65703 0.0
O741 O 0.73228 0.15579 0.62829 0.0
O742 O 0.64805 0.23367 0.85943 0.0
O743 O 0.79838 0.36255 0.89899 0.0
H744 H 0.88874 0.3079 0.68706 0.0
H745 H 0.87395 0.34529 0.68443 0.0
H746 H 0.87684 0.34631 0.64364 0.0
H747 H 0.90165 0.34406 0.67041 0.0
H748 H 0.86717 0.28029 0.70622 0.0
H749 H 0.81947 0.32158 0.65442 0.0
H750 H 0.84123 0.2793 0.77427 0.0
H751 H 0.85861 0.26192 0.75072 0.0
H752 H 0.82892 0.25551 0.75205 0.0
H753 H 0.78329 0.33 0.67086 0.0
H754 H 0.78151 0.32977 0.7123 0.0
H755 H 0.77145 0.30592 0.68817 0.0
H756 H 0.76757 0.35849 0.91636 0.0
H757 H 0.81221 0.36165 0.95909 0.0
H758 H 0.79963 0.33562 0.94277 0.0
H759 H 0.78516 0.35223 0.96995 0.0
H760 H 0.76176 0.36177 0.85951 0.0
H761 H 0.82527 0.33006 0.88452 0.0
H762 H 0.75387 0.33503 0.7818 0.0
H763 H 0.74298 0.35521 0.80911 0.0
H764 H 0.73645 0.32568 0.81082 0.0
H765 H 0.83442 0.29422 0.86122 0.0
H766 H 0.83505 0.30256 0.82188 0.0
H767 H 0.81568 0.28082 0.83079 0.0
H768 H 0.63832 0.26693 0.85344 0.0
H769 H 0.6468 0.25628 0.80703 0.0
H770 H 0.68337 0.2081 0.86324 0.0
H771 H 0.69001 0.27331 0.7655 0.0
H772 H 0.65969 0.26949 0.76155 0.0
H773 H 0.67777 0.25007 0.74195 0.0
H774 H 0.71796 0.19217 0.84967 0.0
H775 H 0.73522 0.21292 0.83313 0.0
H776 H 0.72147 0.19104 0.80858 0.0
H777 H 0.74882 0.12912 0.64923 0.0
H778 H 0.77657 0.12404 0.60951 0.0
H779 H 0.77869 0.15034 0.63183 0.0
H780 H 0.76673 0.15004 0.59262 0.0
H781 H 0.70498 0.18943 0.6316 0.0
H782 H 0.76107 0.15647 0.68058 0.0
H783 H 0.70793 0.24013 0.67844 0.0
H784 H 0.68721 0.22184 0.6922 0.0
H785 H 0.68946 0.22337 0.65105 0.0
H786 H 0.77357 0.16627 0.73191 0.0
H787 H 0.75558 0.18405 0.75411 0.0
H788 H 0.77715 0.19657 0.73366 0.0
H789 H 0.81047 0.31862 0.77426 0.0
H790 H 0.7532 0.29036 0.83543 0.0
H791 H 0.72432 0.26186 0.82728 0.0
H792 H 0.70341 0.20506 0.74734 0.0
H793 H 0.76329 0.23071 0.68903 0.0
H794 H 0.79076 0.26056 0.69576 0.0
H795 H 0.6449 0.24704 0.91831 0.0
H796 H 0.6413 0.27654 0.90983 0.0
H797 H 0.6663 0.26203 0.90005 0.0
C798 C 0.80268 0.59381 0.80075 0.0
C799 C 0.8012 0.61333 0.82497 0.0
C800 C 0.78714 0.64972 0.80718 0.0
C801 C 0.79998 0.6652 0.82675 0.0
C802 C 0.80321 0.68747 0.81784 0.0
C803 C 0.79339 0.69425 0.78871 0.0
C804 C 0.78003 0.67869 0.76922 0.0
C805 C 0.77677 0.65669 0.77902 0.0
C806 C 0.81715 0.70372 0.83948 0.0
C807 C 0.76951 0.68518 0.73784 0.0
C808 C 0.93634 0.70963 0.71413 0.0
C809 C 0.91703 0.72033 0.69374 0.0
C810 C 0.88847 0.74247 0.71828 0.0
C811 C 0.86907 0.73781 0.69824 0.0
C812 C 0.8475 0.73853 0.70926 0.0
C813 C 0.8454 0.74448 0.74087 0.0
C814 C 0.86488 0.7507 0.76062 0.0
C815 C 0.88625 0.74974 0.74895 0.0
C816 C 0.82703 0.73228 0.68743 0.0
C817 C 0.86316 0.75752 0.79429 0.0
C818 C 0.76441 0.88015 0.72532 0.0
C819 C 0.75853 0.86238 0.7037 0.0
C820 C 0.75722 0.84 0.71326 0.0
C821 C 0.76217 0.83544 0.74499 0.0
C822 C 0.76856 0.85338 0.76663 0.0
C823 C 0.7692 0.87556 0.75653 0.0
C824 C 0.74978 0.82138 0.68972 0.0
C825 C 0.774 0.8493 0.80063 0.0
C826 C 0.65731 0.76692 0.89302 0.0
C827 C 0.64838 0.78574 0.87163 0.0
C828 C 0.67228 0.78283 0.82782 0.0
C829 C 0.6724 0.77681 0.79629 0.0
C830 C 0.69225 0.77836 0.78099 0.0
C831 C 0.71248 0.78604 0.79783 0.0
C832 C 0.71257 0.79209 0.82976 0.0
C833 C 0.69248 0.79052 0.84442 0.0
C834 C 0.69166 0.77175 0.74691 0.0
C835 C 0.73394 0.80022 0.84843 0.0
C836 C 0.79774 0.71731 0.7781 0.0
C837 C 0.81823 0.72113 0.76547 0.0
C838 C 0.82323 0.7421 0.75389 0.0
C839 C 0.80728 0.75986 0.75451 0.0
C840 C 0.81163 0.7811 0.74271 0.0
C841 C 0.79567 0.7984 0.74324 0.0
C842 C 0.77478 0.79507 0.75557 0.0
C843 C 0.7584 0.81247 0.75623 0.0
C844 C 0.73806 0.80868 0.76932 0.0
C845 C 0.73358 0.78804 0.7821 0.0
C846 C 0.74952 0.77031 0.78126 0.0
C847 C 0.74538 0.74925 0.79371 0.0
C848 C 0.76119 0.7319 0.79284 0.0
C849 C 0.78172 0.73496 0.77952 0.0
C850 C 0.78641 0.75622 0.76732 0.0
C851 C 0.77019 0.77385 0.76793 0.0
C852 C 0.7862 0.93186 0.69935 0.0
C853 C 0.77233 0.91031 0.69072 0.0
O854 O 0.7841 0.62808 0.8152 0.0
O855 O 0.65241 0.7808 0.84106 0.0
O856 O 0.76452 0.90204 0.71727 0.0
O857 O 0.9095 0.73975 0.70867 0.0
H858 H 0.81775 0.62188 0.82457 0.0
H859 H 0.80593 0.60069 0.77804 0.0
H860 H 0.78692 0.58359 0.79736 0.0
H861 H 0.81693 0.58242 0.80797 0.0
H862 H 0.80717 0.65997 0.84912 0.0
H863 H 0.76661 0.6446 0.76433 0.0
H864 H 0.83307 0.70782 0.8291 0.0
H865 H 0.82158 0.6966 0.86257 0.0
H866 H 0.80777 0.7198 0.84266 0.0
H867 H 0.76136 0.67052 0.72436 0.0
H868 H 0.78258 0.69244 0.72418 0.0
H869 H 0.75648 0.69839 0.74087 0.0
H870 H 0.90384 0.7071 0.69285 0.0
H871 H 0.94276 0.69431 0.70203 0.0
H872 H 0.92992 0.70441 0.73616 0.0
H873 H 0.95068 0.72145 0.72028 0.0
H874 H 0.87084 0.73348 0.67409 0.0
H875 H 0.90139 0.75377 0.76403 0.0
H876 H 0.81432 0.74607 0.68779 0.0
H877 H 0.819 0.71679 0.69529 0.0
H878 H 0.83141 0.72908 0.66319 0.0
H879 H 0.87963 0.76351 0.80598 0.0
H880 H 0.8573 0.74282 0.80668 0.0
H881 H 0.85043 0.77117 0.79627 0.0
H882 H 0.78493 0.89823 0.6823 0.0
H883 H 0.75405 0.86608 0.6797 0.0
H884 H 0.77351 0.88951 0.77302 0.0
H885 H 0.76312 0.80822 0.68919 0.0
H886 H 0.74628 0.82774 0.666 0.0
H887 H 0.73422 0.81313 0.69656 0.0
H888 H 0.78289 0.86398 0.81309 0.0
H889 H 0.78469 0.834 0.80376 0.0
H890 H 0.75799 0.84642 0.81144 0.0
H891 H 0.658 0.8011 0.88047 0.0
H892 H 0.65218 0.77033 0.91686 0.0
H893 H 0.67608 0.76637 0.89454 0.0
H894 H 0.65109 0.7499 0.88469 0.0
H895 H 0.6568 0.77088 0.78365 0.0
H896 H 0.69289 0.7953 0.86881 0.0
H897 H 0.70401 0.75797 0.74331 0.0
H898 H 0.6968 0.78643 0.73388 0.0
H899 H 0.67459 0.76594 0.73715 0.0
H900 H 0.73131 0.80395 0.87322 0.0
H901 H 0.74018 0.81581 0.83848 0.0
H902 H 0.74736 0.7872 0.8471 0.0
H903 H 0.83045 0.70749 0.76444 0.0
H904 H 0.82741 0.78455 0.73289 0.0
H905 H 0.79988 0.81441 0.73384 0.0
H906 H 0.72573 0.82222 0.77027 0.0
H907 H 0.72983 0.74591 0.80418 0.0
H908 H 0.75711 0.71604 0.80277 0.0
H909 H 0.77575 0.94538 0.70945 0.0
H910 H 0.79336 0.93829 0.67847 0.0
H911 H 0.80049 0.9281 0.71669 0.0
C912 C 0.04046 0.31659 0.55929 0.0
C913 C 0.04804 0.33811 0.56934 0.0
C914 C 0.03815 0.35286 0.54887 0.0
C915 C 0.02497 0.33965 0.5277 0.0
N916 N 0.02598 0.31733 0.53339 0.0
Co917 Co 0.00877 0.29232 0.50938 0.0
N918 N 0.98957 0.31441 0.48492 0.0
C919 C 0.99127 0.33725 0.48683 0.0
C920 C 0.97408 0.34797 0.47004 0.0
C921 C 0.96028 0.33097 0.45717 0.0
C922 C 0.97007 0.31079 0.46664 0.0
N923 N 0.99216 0.26735 0.48453 0.0
C924 C 0.97363 0.26828 0.46406 0.0
C925 C 0.96754 0.24701 0.45133 0.0
C926 C 0.9825 0.23203 0.4649 0.0
C927 C 0.99687 0.24499 0.48492 0.0
N928 N 0.02678 0.27016 0.53518 0.0
C929 C 0.02577 0.24729 0.53215 0.0
C930 C 0.03945 0.2366 0.55413 0.0
C931 C 0.04941 0.25366 0.57271 0.0
C932 C 0.04119 0.27383 0.56088 0.0
N933 N 0.986 0.29268 0.5399 0.0
C934 C 0.95166 0.29377 0.5803 0.0
C935 C 0.95928 0.27314 0.56838 0.0
C936 C 0.97661 0.27296 0.54848 0.0
C937 C 0.96193 0.31374 0.57266 0.0
C938 C 0.97894 0.31283 0.55243 0.0
N939 N 0.03199 0.29204 0.47853 0.0
C940 C 0.0628 0.27326 0.4547 0.0
C941 C 0.06696 0.29242 0.43855 0.0
C942 C 0.05303 0.31117 0.44158 0.0
C943 C 0.03575 0.31063 0.46157 0.0
C944 C 0.04532 0.27337 0.47422 0.0
H945 H 0.02592 0.32558 0.46288 0.0
H946 H 0.04326 0.25809 0.48559 0.0
H947 H 0.98179 0.25682 0.53955 0.0
H948 H 0.98593 0.32864 0.54678 0.0
C949 C 0.00842 0.34802 0.50622 0.0
C950 C 0.04692 0.29601 0.57545 0.0
C951 C 0.96012 0.28855 0.45836 0.0
C952 C 0.01216 0.23648 0.50794 0.0
H953 H 0.05907 0.34285 0.58978 0.0
H954 H 0.03934 0.37115 0.55037 0.0
H955 H 0.97143 0.36601 0.4683 0.0
H956 H 0.94459 0.33322 0.44293 0.0
H957 H 0.95316 0.2427 0.43501 0.0
H958 H 0.98208 0.21376 0.46192 0.0
H959 H 0.04175 0.21857 0.55652 0.0
H960 H 0.06118 0.25152 0.59291 0.0
H961 H 0.95163 0.25734 0.574 0.0
H962 H 0.95642 0.33 0.58171 0.0
H963 H 0.07317 0.25827 0.45247 0.0
H964 H 0.0557 0.32626 0.42895 0.0
C965 C 0.69472 0.04534 0.54639 0.0
C966 C 0.67467 0.05516 0.55449 0.0
C967 C 0.65758 0.04041 0.54392 0.0
C968 C 0.66813 0.02251 0.53 0.0
N969 N 0.69076 0.02514 0.53109 0.0
Co970 Co 0.71243 0.00356 0.51371 0.0
N971 N 0.68795 0.98804 0.48662 0.0
C972 C 0.66558 0.98969 0.48959 0.0
C973 C 0.65271 0.97683 0.46755 0.0
C974 C 0.66797 0.96624 0.44978 0.0
C975 C 0.68935 0.97325 0.46208 0.0
N976 N 0.73407 0.98143 0.49722 0.0
C977 C 0.73153 0.96691 0.47217 0.0
C978 C 0.75078 0.95378 0.46976 0.0
C979 C 0.76573 0.96012 0.4945 0.0
C980 C 0.75486 0.97675 0.51053 0.0
N981 N 0.73703 0.01936 0.54019 0.0
C982 C 0.7577 0.01103 0.54848 0.0
C983 C 0.77104 0.02596 0.5671 0.0
C984 C 0.75785 0.04478 0.57087 0.0
C985 C 0.73713 0.0402 0.55432 0.0
N986 N 0.70801 0.98316 0.54722 0.0
C987 C 0.71682 0.95273 0.59409 0.0
C988 C 0.71704 0.97605 0.60101 0.0
C989 C 0.71197 0.99097 0.57733 0.0
C990 C 0.70868 0.94493 0.56424 0.0
C991 C 0.70462 0.96051 0.541 0.0
N992 N 0.71741 0.02422 0.48077 0.0
C993 C 0.74409 0.04432 0.4532 0.0
C994 C 0.72733 0.05958 0.44316 0.0
C995 C 0.70508 0.05586 0.45029 0.0
C996 C 0.70038 0.03773 0.46866 0.0
C997 C 0.73892 0.02708 0.4724 0.0
H998 H 0.68317 0.0353 0.4742 0.0
H999 H 0.75266 0.01678 0.4816 0.0
H1000 H 0.71321 0.00882 0.58302 0.0
H1001 H 0.70037 0.95417 0.51772 0.0
C1002 C 0.65731 0.00543 0.51084 0.0
C1003 C 0.71727 0.05494 0.55507 0.0
C1004 C 0.71051 0.96365 0.45205 0.0
C1005 C 0.76486 0.99071 0.53483 0.0
H1006 H 0.67261 0.07127 0.5667 0.0
H1007 H 0.63958 0.04296 0.545 0.0
H1008 H 0.63443 0.97562 0.46437 0.0
H1009 H 0.66386 0.95436 0.43043 0.0
H1010 H 0.75358 0.94073 0.45224 0.0
H1011 H 0.78275 0.95385 0.49962 0.0
H1012 H 0.78846 0.02371 0.57615 0.0
H1013 H 0.76278 0.05996 0.58464 0.0
H1014 H 0.72249 0.98274 0.62413 0.0
H1015 H 0.7075 0.92696 0.55833 0.0
H1016 H 0.76138 0.04625 0.44735 0.0
H1017 H 0.69159 0.06721 0.44256 0.0
C1018 C 0.03758 0.73872 0.53764 0.0
C1019 C 0.049 0.75898 0.54523 0.0
C1020 C 0.04102 0.7741 0.52386 0.0
C1021 C 0.02516 0.76233 0.50458 0.0
N1022 N 0.0224 0.74079 0.5127 0.0
Co1023 Co 0.0015 0.71799 0.49053 0.0
N1024 N 0.98418 0.74191 0.46794 0.0
C1025 C 0.99114 0.76326 0.46443 0.0
C1026 C 0.97538 0.7759 0.44769 0.0
C1027 C 0.95741 0.76157 0.44006 0.0
C1028 C 0.96332 0.74091 0.45256 0.0
N1029 N 0.98087 0.69534 0.4679 0.0
C1030 C 0.96041 0.6983 0.4522 0.0
C1031 C 0.95153 0.67787 0.43972 0.0
C1032 C 0.96712 0.66156 0.44791 0.0
C1033 C 0.98455 0.67292 0.46485 0.0
N1034 N 0.01858 0.69407 0.51366 0.0
C1035 C 0.01784 0.67169 0.50633 0.0
C1036 C 0.03167 0.65927 0.52623 0.0
C1037 C 0.04206 0.67482 0.5471 0.0
C1038 C 0.034 0.69596 0.53869 0.0
N1039 N 0.98127 0.72085 0.52372 0.0
C1040 C 0.95625 0.72485 0.57535 0.0
C1041 C 0.96114 0.70353 0.56248 0.0
C1042 C 0.97345 0.7019 0.53646 0.0
C1043 C 0.96307 0.74417 0.56098 0.0
C1044 C 0.97578 0.7418 0.53537 0.0
N1045 N 0.02199 0.71529 0.4573 0.0
C1046 C 0.06046 0.71408 0.44389 0.0
C1047 C 0.05368 0.72169 0.41458 0.0
C1048 C 0.03056 0.72381 0.40563 0.0
C1049 C 0.01486 0.72005 0.42733 0.0
C1050 C 0.04438 0.71092 0.46477 0.0
H1051 H 0.99714 0.72222 0.42029 0.0
H1052 H 0.05042 0.70607 0.48741 0.0
H1053 H 0.97716 0.68527 0.52719 0.0
H1054 H 0.98162 0.75693 0.52548 0.0
C1055 C 0.01068 0.7717 0.48133 0.0
C1056 C 0.04384 0.71737 0.55208 0.0
C1057 C 0.94962 0.72029 0.44727 0.0
C1058 C 0.00228 0.66287 0.48276 0.0
H1059 H 0.06221 0.76227 0.56373 0.0
H1060 H 0.04591 0.79168 0.52284 0.0
H1061 H 0.97645 0.79363 0.44262 0.0
H1062 H 0.94184 0.7658 0.42663 0.0
H1063 H 0.93549 0.67509 0.42616 0.0
H1064 H 0.96545 0.64348 0.44322 0.0
H1065 H 0.03378 0.64107 0.52584 0.0
H1066 H 0.0547 0.6711 0.56574 0.0
H1067 H 0.95583 0.68824 0.57285 0.0
H1068 H 0.95928 0.76093 0.5702 0.0
H1069 H 0.07826 0.71197 0.45129 0.0
H1070 H 0.02481 0.72939 0.38277 0.0
C1071 C 0.31616 0.97283 0.55706 0.0
C1072 C 0.33644 0.96545 0.57166 0.0
C1073 C 0.35223 0.98192 0.5683 0.0
C1074 C 0.34075 0.99838 0.55194 0.0
N1075 N 0.31876 0.99321 0.54462 0.0
Co1076 Co 0.29609 0.01243 0.52168 0.0
N1077 N 0.32015 0.03069 0.5052 0.0
C1078 C 0.3421 0.03158 0.51617 0.0
C1079 C 0.35474 0.04579 0.50012 0.0
C1080 C 0.33975 0.05456 0.47787 0.0
C1081 C 0.31873 0.0452 0.48167 0.0
N1082 N 0.2734 0.03199 0.49942 0.0
C1083 C 0.27591 0.04655 0.47663 0.0
C1084 C 0.25563 0.05734 0.46818 0.0
C1085 C 0.23999 0.04938 0.48666 0.0
C1086 C 0.25153 0.03421 0.50526 0.0
N1087 N 0.27203 0.99394 0.53778 0.0
C1088 C 0.2502 0.99988 0.53905 0.0
C1089 C 0.23751 0.98352 0.55116 0.0
C1090 C 0.25235 0.9663 0.55816 0.0
C1091 C 0.27336 0.97321 0.55003 0.0
N1092 N 0.29609 0.03304 0.55815 0.0
C1093 C 0.28597 0.06212 0.60729 0.0
C1094 C 0.287 0.03874 0.61084 0.0
C1095 C 0.29254 0.02457 0.5862 0.0
C1096 C 0.29261 0.07086 0.57989 0.0
C1097 C 0.2973 0.05595 0.5554 0.0
N1098 N 0.29569 0.99165 0.48547 0.0
C1099 C 0.27422 0.96803 0.44699 0.0
C1100 C 0.29391 0.95643 0.44058 0.0
C1101 C 0.31471 0.96382 0.45524 0.0
C1102 C 0.31527 0.98169 0.47739 0.0
C1103 C 0.27545 0.98544 0.46981 0.0
H1104 H 0.33141 0.9868 0.48891 0.0
H1105 H 0.25985 0.99317 0.47569 0.0
H1106 H 0.2926 0.00666 0.58928 0.0
H1107 H 0.30077 0.0629 0.53382 0.0
C1108 C 0.35063 0.01671 0.53862 0.0
C1109 C 0.29454 0.96081 0.55718 0.0
C1110 C 0.29754 0.05212 0.46463 0.0
C1111 C 0.24172 0.01922 0.52451 0.0
H1112 H 0.33945 0.94984 0.58357 0.0
H1113 H 0.37011 0.98151 0.57587 0.0
H1114 H 0.37278 0.04897 0.50365 0.0
H1115 H 0.34375 0.06672 0.46112 0.0
H1116 H 0.25256 0.06989 0.45081 0.0
H1117 H 0.22219 0.05362 0.48592 0.0
H1118 H 0.2195 0.98376 0.55374 0.0
H1119 H 0.24824 0.95063 0.56853 0.0
H1120 H 0.28255 0.03139 0.63203 0.0
H1121 H 0.29259 0.08895 0.57671 0.0
H1122 H 0.25792 0.96284 0.43568 0.0
H1123 H 0.3303 0.95537 0.4503 0.0
C1124 C 0.53816 0.80964 0.05073 0.0
C1125 C 0.54843 0.82903 0.0646 0.0
C1126 C 0.54253 0.84645 0.04547 0.0
C1127 C 0.52904 0.83677 0.02107 0.0
N1128 N 0.526 0.8144 0.02389 0.0
Co1129 Co 0.50789 0.79387 0.99407 0.0
N1130 N 0.49123 0.81954 0.97495 0.0
C1131 C 0.49755 0.84144 0.97743 0.0
C1132 C 0.48171 0.85536 0.96299 0.0
C1133 C 0.46449 0.84126 0.95063 0.0
C1134 C 0.47091 0.81945 0.95805 0.0
N1135 N 0.49015 0.77335 0.96396 0.0
C1136 C 0.47064 0.77729 0.94663 0.0
C1137 C 0.46424 0.75861 0.92739 0.0
C1138 C 0.48049 0.74242 0.93307 0.0
C1139 C 0.49583 0.75213 0.9553 0.0
N1140 N 0.52434 0.76805 0.01302 0.0
C1141 C 0.52613 0.74713 -7e-05 0.0
C1142 C 0.53867 0.73279 0.01868 0.0
C1143 C 0.54533 0.74556 0.04503 0.0
C1144 C 0.53656 0.76713 0.04075 0.0
N1145 N 0.48492 0.79168 0.02343 0.0
C1146 C 0.4506 0.78955 0.06342 0.0
C1147 C 0.45788 0.76988 0.04816 0.0
C1148 C 0.47529 0.77128 0.02846 0.0
C1149 C 0.46121 0.81012 0.05905 0.0
C1150 C 0.47816 0.81086 0.03876 0.0
N1151 N 0.53095 0.7962 0.96478 0.0
C1152 C 0.57009 0.79422 0.95453 0.0
C1153 C 0.5641 0.79675 0.92302 0.0
C1154 C 0.54134 0.79972 0.91267 0.0
C1155 C 0.52495 0.79934 0.93402 0.0
C1156 C 0.55329 0.79408 0.97504 0.0
H1157 H 0.50742 0.80121 0.92557 0.0
H1158 H 0.55837 0.79185 -0.00084 0.0
H1159 H 0.48062 0.756 0.01674 0.0
H1160 H 0.48555 0.82706 0.03515 0.0
C1161 C 0.51581 0.84847 0.99847 0.0
C1162 C 0.54187 0.78674 0.06201 0.0
C1163 C 0.4584 0.79877 0.9471 0.0
C1164 C 0.51315 0.74079 0.97237 0.0
H1165 H 0.55923 0.83035 0.08606 0.0
H1166 H 0.54688 0.86417 0.04952 0.0
H1167 H 0.48205 0.87366 0.96279 0.0
H1168 H 0.44909 0.84643 0.93761 0.0
H1169 H 0.44941 0.7569 0.91104 0.0
H1170 H 0.48058 0.72532 0.92313 0.0
H1171 H 0.542 0.71501 0.01419 0.0
H1172 H 0.5557 0.73969 0.06488 0.0
H1173 H 0.44999 0.75368 0.05119 0.0
H1174 H 0.45599 0.8256 0.07063 0.0
H1175 H 0.58764 0.79205 0.96316 0.0
H1176 H 0.5363 0.80183 0.88832 0.0
C1177 C 0.19849 0.54281 0.05855 0.0
C1178 C 0.17778 0.54803 0.06977 0.0
C1179 C 0.16153 0.53795 0.04943 0.0
C1180 C 0.17322 0.52698 0.0273 0.0
N1181 N 0.1959 0.52901 0.03273 0.0
Co1182 Co 0.2192 0.51386 0.00844 0.0
N1183 N 0.1958 0.49436 0.98465 0.0
C1184 C 0.17319 0.49731 0.98302 0.0
C1185 C 0.16142 0.48098 0.96481 0.0
C1186 C 0.17759 0.46685 0.95423 0.0
C1187 C 0.19837 0.47542 0.96669 0.0
N1188 N 0.24231 0.49872 0.98407 0.0
C1189 C 0.24077 0.47944 0.9661 0.0
C1190 C 0.26095 0.47475 0.95313 0.0
C1191 C 0.27565 0.49187 0.96325 0.0
C1192 C 0.26363 0.50592 0.98177 0.0
N1193 N 0.24267 0.5333 0.03258 0.0
C1194 C 0.26422 0.53608 0.0256 0.0
C1195 C 0.27624 0.55145 0.045 0.0
C1196 C 0.26124 0.55938 0.06508 0.0
C1197 C 0.24075 0.54831 0.05684 0.0
N1198 N 0.22351 0.49087 0.03977 0.0
C1199 C 0.23026 0.45801 0.0843 0.0
C1200 C 0.24869 0.4681 0.07219 0.0
C1201 C 0.24497 0.4845 0.05004 0.0
C1202 C 0.20835 0.46458 0.07385 0.0
C1203 C 0.20534 0.48094 0.05142 0.0
N1204 N 0.21531 0.53677 0.97668 0.0
C1205 C 0.21835 0.57562 0.96286 0.0
C1206 C 0.21576 0.56922 0.93147 0.0
C1207 C 0.21202 0.5464 0.92279 0.0
C1208 C 0.21201 0.53042 0.94582 0.0
C1209 C 0.21808 0.55922 0.98492 0.0
H1210 H 0.21016 0.51289 0.93849 0.0
H1211 H 0.22112 0.56485 0.00853 0.0
H1212 H 0.25954 0.49194 0.04123 0.0
H1213 H 0.18831 0.48545 0.04352 0.0
C1214 C 0.16361 0.51287 0.00309 0.0
C1215 C 0.21909 0.55568 0.06823 0.0
C1216 C 0.22014 0.46599 0.95937 0.0
C1217 C 0.27278 0.52358 0.00121 0.0
H1218 H 0.17474 0.55929 0.08932 0.0
H1219 H 0.14336 0.5386 0.0506 0.0
H1220 H 0.14323 0.47901 0.96081 0.0
H1221 H 0.17447 0.45194 0.93911 0.0
H1222 H 0.26462 0.46049 0.9379 0.0
H1223 H 0.29325 0.49338 0.95866 0.0
H1224 H 0.29369 0.55666 0.04423 0.0
H1225 H 0.26491 0.57269 0.08262 0.0
H1226 H 0.26586 0.46335 0.07984 0.0
H1227 H 0.19373 0.457 0.08279 0.0
H1228 H 0.22127 0.59319 0.97033 0.0
H1229 H 0.20996 0.54093 0.89853 0.0
C1230 C 0.47297 0.2462 0.96867 0.0
C1231 C 0.46888 0.26862 0.96162 0.0
C1232 C 0.4885 0.28033 0.97039 0.0
C1233 C 0.50335 0.26454 0.98254 0.0
N1234 N 0.49421 0.24366 0.9822 0.0
Co1235 Co 0.50948 0.21608 0.99823 0.0
N1236 N 0.53315 0.23443 0.02304 0.0
C1237 C 0.53843 0.25616 0.01857 0.0
C1238 C 0.5562 0.26415 0.03841 0.0
C1239 C 0.56266 0.24628 0.05629 0.0
C1240 C 0.54836 0.22833 0.04629 0.0
N1241 N 0.52474 0.1885 0.01434 0.0
C1242 C 0.54003 0.1863 0.03913 0.0
C1243 C 0.54586 0.16376 0.04282 0.0
C1244 C 0.53416 0.15155 0.01903 0.0
C1245 C 0.52176 0.16723 0.00234 0.0
N1246 N 0.48601 0.19778 0.97307 0.0
C1247 C 0.48745 0.17565 0.96486 0.0
C1248 C 0.46876 0.16771 0.94671 0.0
C1249 C 0.45477 0.18605 0.94309 0.0
C1250 C 0.46576 0.20417 0.95937 0.0
N1251 N 0.52825 0.2153 0.96336 0.0
C1252 C 0.5567 0.22384 0.91748 0.0
C1253 C 0.5656 0.21643 0.94614 0.0
C1254 C 0.55104 0.21212 0.96871 0.0
C1255 C 0.53323 0.22494 0.91099 0.0
C1256 C 0.51924 0.22041 0.93435 0.0
N1257 N 0.49084 0.21717 0.03319 0.0
C1258 C 0.46724 0.19862 0.06695 0.0
C1259 C 0.46453 0.21909 0.08352 0.0
C1260 C 0.47509 0.23857 0.07453 0.0
C1261 C 0.48822 0.23724 0.04933 0.0
C1262 C 0.4805 0.19802 0.04179 0.0
H1263 H 0.4962 0.25249 0.04285 0.0
H1264 H 0.48236 0.18209 0.02928 0.0
H1265 H 0.55835 0.20768 0.99112 0.0
H1266 H 0.50127 0.22235 0.92955 0.0
C1267 C 0.52434 0.26925 -0.00116 0.0
C1268 C 0.45726 0.22746 0.9594 0.0
C1269 C 0.55113 0.2053 0.05736 0.0
C1270 C 0.50472 0.16231 0.97861 0.0
H1271 H 0.45348 0.27573 0.95083 0.0
H1272 H 0.49132 0.29835 0.96906 0.0
H1273 H 0.56326 0.28109 0.04024 0.0
H1274 H 0.57654 0.24635 0.07425 0.0
H1275 H 0.55766 0.15691 0.06048 0.0
H1276 H 0.53418 0.13336 0.015 0.0
H1277 H 0.46536 0.15051 0.93801 0.0
H1278 H 0.43844 0.18611 0.92981 0.0
H1279 H 0.58375 0.21531 0.95165 0.0
H1280 H 0.52592 0.2305 0.8888 0.0
H1281 H 0.45906 0.1833 0.07331 0.0
H1282 H 0.4731 0.25468 0.08683 0.0
C1283 C 0.76548 0.54472 0.05681 0.0
C1284 C 0.74541 0.55667 0.05867 0.0
C1285 C 0.73131 0.54987 0.03324 0.0
C1286 C 0.74348 0.53422 0.01734 0.0
N1287 N 0.76428 0.5306 0.03136 0.0
Co1288 Co 0.78761 0.51032 0.01529 0.0
N1289 N 0.76461 0.49359 0.98738 0.0
C1290 C 0.74368 0.50082 0.97816 0.0
C1291 C 0.73171 0.48546 0.9585 0.0
C1292 C 0.74608 0.46749 0.95511 0.0
C1293 C 0.76605 0.47299 0.97298 0.0
N1294 N 0.81098 0.49044 0.99832 0.0
C1295 C 0.80851 0.47007 0.98303 0.0
C1296 C 0.8293 0.46155 0.97574 0.0
C1297 C 0.84528 0.47739 0.98671 0.0
C1298 C 0.83339 0.49459 0.00012 0.0
N1299 N 0.81062 0.52687 0.04358 0.0
C1300 C 0.83316 0.52674 0.04145 0.0
C1301 C 0.84482 0.5395 0.06481 0.0
C1302 C 0.82857 0.54836 0.08253 0.0
C1303 C 0.80784 0.54058 0.06881 0.0
N1304 N 0.78348 0.48881 0.0476 0.0
C1305 C 0.77678 0.45271 0.08586 0.0
C1306 C 0.79841 0.4579 0.07731 0.0
C1307 C 0.80151 0.47644 0.05924 0.0
C1308 C 0.75897 0.4674 0.07725 0.0
C1309 C 0.76244 0.48472 0.05704 0.0
N1310 N 0.79169 0.53156 0.9827 0.0
C1311 C 0.79472 0.56976 0.96621 0.0
C1312 C 0.79509 0.56177 0.93544 0.0
C1313 C 0.79416 0.53847 0.92872 0.0
C1314 C 0.79254 0.52364 0.95268 0.0
C1315 C 0.79303 0.55435 0.98952 0.0
H1316 H 0.79164 0.50577 0.94679 0.0
H1317 H 0.79242 0.56087 0.01296 0.0
H1318 H 0.81844 0.48012 0.05364 0.0
H1319 H 0.74795 0.49429 0.04837 0.0
C1320 C 0.73489 0.52029 0.99212 0.0
C1321 C 0.78585 0.54861 0.07807 0.0
C1322 C 0.78661 0.45917 0.97383 0.0
C1323 C 0.8428 0.51203 0.02005 0.0
H1324 H 0.74147 0.56921 0.07631 0.0
H1325 H 0.71404 0.55524 0.02754 0.0
H1326 H 0.71437 0.48679 0.94862 0.0
H1327 H 0.7424 0.45224 0.94089 0.0
H1328 H 0.83257 0.44558 0.96385 0.0
H1329 H 0.86347 0.47594 0.98639 0.0
H1330 H 0.86298 0.54166 0.06896 0.0
H1331 H 0.83157 0.5597 0.10274 0.0
H1332 H 0.81286 0.44747 0.08425 0.0
H1333 H 0.74219 0.46469 0.08458 0.0
H1334 H 0.79538 0.58776 0.97206 0.0
H1335 H 0.79443 0.53181 0.90506 0.0
C1336 C 0.12569 0.30104 0.41194 0.0
C1337 C 0.12522 0.28422 0.38751 0.0
C1338 C 0.08423 0.28007 0.39003 0.0
C1339 C 0.08609 0.29252 0.41875 0.0
N1340 N 0.10859 0.31506 0.45773 0.0
N1341 N 0.10126 0.26452 0.34622 0.0
C1342 C 0.10672 0.30342 0.42969 0.0
C1343 C 0.1038 0.27594 0.37424 0.0
N1344 N 0.14374 0.31548 0.41708 0.0
N1345 N 0.06372 0.27174 0.37782 0.0
H1346 H 0.11422 0.26187 0.33165 0.0
H1347 H 0.11422 0.26187 0.33165 0.0
H1348 H 0.04871 0.27486 0.38821 0.0
H1349 H 0.06178 0.26209 0.35701 0.0
H1350 H 0.14423 0.32917 0.43306 0.0
H1351 H 0.15677 0.3157 0.40234 0.0
H1352 H 0.124 0.32096 0.46848 0.0
H1353 H 0.09502 0.31746 0.47132 0.0
C1354 C 0.76957 0.11788 0.41889 0.0
C1355 C 0.75085 0.12579 0.38435 0.0
C1356 C 0.7195 0.084 0.38777 0.0
C1357 C 0.73365 0.07941 0.42609 0.0
N1358 N 0.76887 0.09167 0.46962 0.0
N1359 N 0.71982 0.10998 0.33548 0.0
C1360 C 0.75876 0.09559 0.44116 0.0
C1361 C 0.72923 0.10618 0.36428 0.0
N1362 N 0.78788 0.1305 0.42912 0.0
N1363 N 0.70271 0.06992 0.3759 0.0
H1364 H 0.72547 0.12353 0.32345 0.0
H1365 H 0.70706 0.09952 0.32475 0.0
H1366 H 0.69766 0.05626 0.38814 0.0
H1367 H 0.69467 0.07212 0.35387 0.0
H1368 H 0.79772 0.12684 0.4494 0.0
H1369 H 0.79252 0.14412 0.41639 0.0
H1370 H 0.78311 0.10088 0.47859 0.0
H1371 H 0.76207 0.08023 0.48401 0.0
C1372 C 0.90484 0.7286 0.3807 0.0
C1373 C 0.88596 0.73477 0.39753 0.0
C1374 C 0.90718 0.72333 0.44564 0.0
C1375 C 0.92698 0.72159 0.42959 0.0
N1376 N 0.94416 0.71852 0.381 0.0
N1377 N 0.86618 0.72637 0.44197 0.0
C1378 C 0.92555 0.72269 0.3969 0.0
C1379 C 0.88617 0.72827 0.4288 0.0
N1380 N 0.9036 0.72738 0.34918 0.0
N1381 N 0.90869 0.72134 0.47709 0.0
H1382 H 0.85058 0.72813 0.42923 0.0
H1383 H 0.86488 0.72032 0.46399 0.0
H1384 H 0.9237 0.71695 0.48982 0.0
H1385 H 0.89546 0.7251 0.49076 0.0
H1386 H 0.88866 0.72859 0.33483 0.0
H1387 H 0.88866 0.72859 0.33483 0.0
H1388 H 0.94386 0.71973 0.35697 0.0
H1389 H 0.95976 0.71376 0.39176 0.0
C1390 C 0.28857 0.89468 0.41285 0.0
C1391 C 0.302 0.8952 0.38729 0.0
C1392 C 0.3011 0.9367 0.38998 0.0
C1393 C 0.29289 0.93583 0.41973 0.0
N1394 N 0.27674 0.91437 0.45883 0.0
N1395 N 0.30992 0.91595 0.34288 0.0
C1396 C 0.28554 0.91497 0.43069 0.0
C1397 C 0.30468 0.91609 0.37299 0.0
N1398 N 0.27768 0.8752 0.41885 0.0
N1399 N 0.30628 0.95717 0.37874 0.0
H1400 H 0.31057 0.90099 0.32936 0.0
H1401 H 0.31098 0.93042 0.33018 0.0
H1402 H 0.3026 0.97252 0.38997 0.0
H1403 H 0.31478 0.95906 0.35895 0.0
H1404 H 0.26648 0.87407 0.43596 0.0
H1405 H 0.27691 0.8611 0.40362 0.0
H1406 H 0.27363 0.89944 0.4697 0.0
H1407 H 0.27376 0.92883 0.47242 0.0
C1408 C 0.08316 0.71645 0.6268 0.0
C1409 C 0.10345 0.70776 0.61509 0.0
C1410 C 0.08607 0.71331 0.56227 0.0
C1411 C 0.06472 0.71662 0.57406 0.0
N1412 N 0.04238 0.72013 0.6178 0.0
N1413 N 0.12339 0.69928 0.56828 0.0
C1414 C 0.06309 0.71782 0.60642 0.0
C1415 C 0.10474 0.70657 0.58214 0.0
N1416 N 0.08321 0.72494 0.65664 0.0
N1417 N 0.08872 0.71634 0.53171 0.0
H1418 H 0.13841 0.69357 0.57956 0.0
H1419 H 0.13841 0.69357 0.57956 0.0
H1420 H 0.07641 0.72391 0.51707 0.0
H1421 H 0.10401 0.71344 0.5219 0.0
H1422 H 0.06917 0.73278 0.66528 0.0
H1423 H 0.09789 0.72761 0.67131 0.0
H1424 H 0.03991 0.71846 0.64115 0.0
H1425 H 0.02745 0.72212 0.60354 0.0
C1426 C 0.27293 0.08274 0.68723 0.0
C1427 C 0.25251 0.09529 0.68063 0.0
C1428 C 0.25594 0.08875 0.62505 0.0
C1429 C 0.27639 0.07676 0.63163 0.0
N1430 N 0.30823 0.06975 0.66821 0.0
N1431 N 0.232 0.11859 0.64273 0.0
C1432 C 0.28624 0.07641 0.66252 0.0
C1433 C 0.24648 0.10115 0.64942 0.0
N1434 N 0.27919 0.07554 0.71632 0.0
N1435 N 0.24456 0.08724 0.59621 0.0
H1436 H 0.22615 0.12964 0.65958 0.0
H1437 H 0.22854 0.12413 0.62025 0.0
H1438 H 0.24999 0.07743 0.57776 0.0
H1439 H 0.2284 0.09395 0.59158 0.0
H1440 H 0.2923 0.06406 0.72076 0.0
H1441 H 0.27058 0.07927 0.73576 0.0
H1442 H 0.31697 0.07112 0.69016 0.0
H1443 H 0.31836 0.06523 0.65038 0.0
C1444 C 0.91618 0.28898 0.64887 0.0
C1445 C 0.89716 0.30243 0.63907 0.0
C1446 C 0.91141 0.30372 0.58747 0.0
C1447 C 0.93231 0.29478 0.59973 0.0
N1448 N 0.95553 0.28042 0.64307 0.0
N1449 N 0.87451 0.31739 0.59446 0.0
C1450 C 0.93492 0.28761 0.63061 0.0
C1451 C 0.894 0.3081 0.60721 0.0
N1452 N 0.91584 0.27635 0.67453 0.0
N1453 N 0.9081 0.30845 0.55675 0.0
H1454 H 0.86006 0.32054 0.60602 0.0
H1455 H 0.86006 0.32054 0.60602 0.0
H1456 H 0.92016 0.30509 0.54101 0.0
H1457 H 0.89303 0.31527 0.54691 0.0
H1458 H 0.92858 0.26496 0.68121 0.0
H1459 H 0.9014 0.27456 0.68631 0.0
H1460 H 0.95894 0.27756 0.6666 0.0
H1461 H 0.96977 0.27918 0.63053 0.0
C1462 C 0.75662 0.91017 0.63414 0.0
C1463 C 0.75306 0.9153 0.66577 0.0
C1464 C 0.71951 0.93715 0.64735 0.0
C1465 C 0.72727 0.93711 0.61736 0.0
N1466 N 0.75653 0.92611 0.58387 0.0
N1467 N 0.73033 0.93598 0.70206 0.0
C1468 C 0.74659 0.92413 0.61099 0.0
C1469 C 0.73404 0.92914 0.67239 0.0
N1470 N 0.76935 0.89202 0.62583 0.0
N1471 N 0.69835 0.94505 0.65195 0.0
H1472 H 0.74003 0.93116 0.72179 0.0
H1473 H 0.71837 0.94823 0.70705 0.0
H1474 H 0.68731 0.95077 0.63385 0.0
H1475 H 0.691 0.94358 0.67281 0.0
H1476 H 0.77097 0.88714 0.6027 0.0
H1477 H 0.77539 0.87996 0.6413 0.0
H1478 H 0.77194 0.91847 0.57993 0.0
H1479 H 0.75096 0.93724 0.56682 0.0
C1480 C 0.94417 0.73876 0.65897 0.0
C1481 C 0.92434 0.72541 0.66141 0.0
C1482 C 0.92229 0.71824 0.60468 0.0
C1483 C 0.94457 0.72674 0.60437 0.0
N1484 N 0.9783 0.74217 0.63285 0.0
N1485 N 0.89408 0.70221 0.6341 0.0
C1486 C 0.95591 0.73636 0.63188 0.0
C1487 C 0.91312 0.71522 0.63356 0.0
N1488 N 0.95185 0.75397 0.68211 0.0
N1489 N 0.90959 0.71365 0.57725 0.0
H1490 H 0.88436 0.70117 0.6528 0.0
H1491 H 0.88805 0.69156 0.61542 0.0
H1492 H 0.91567 0.71604 0.55569 0.0
H1493 H 0.89236 0.70981 0.57588 0.0
H1494 H 0.96494 0.76538 0.67964 0.0
H1495 H 0.94385 0.7571 0.70228 0.0
H1496 H 0.98788 0.74692 0.65343 0.0
H1497 H 0.98792 0.74007 0.61388 0.0
C1498 C 0.28631 0.91702 0.61755 0.0
C1499 C 0.28314 0.89735 0.59781 0.0
C1500 C 0.29675 0.91813 0.55502 0.0
C1501 C 0.29388 0.93861 0.57249 0.0
N1502 N 0.28913 0.95786 0.62173 0.0
N1503 N 0.2965 0.87685 0.5538 0.0
C1504 C 0.29 0.93812 0.60436 0.0
C1505 C 0.29192 0.8971 0.56824 0.0
N1506 N 0.28699 0.9152 0.64899 0.0
N1507 N 0.30374 0.919 0.52581 0.0
H1508 H 0.29537 0.86155 0.56469 0.0
H1509 H 0.30323 0.87505 0.53246 0.0
H1510 H 0.30777 0.93416 0.51601 0.0
H1511 H 0.30556 0.90495 0.51104 0.0
H1512 H 0.29104 0.92858 0.66487 0.0
H1513 H 0.28636 0.89957 0.65928 0.0
H1514 H 0.28328 0.9589 0.64375 0.0
H1515 H 0.2934 0.97346 0.61355 0.0
C1516 C 0.09261 0.31099 0.64016 0.0
C1517 C 0.08374 0.30121 0.66615 0.0
C1518 C 0.04906 0.29106 0.63315 0.0
C1519 C 0.05967 0.29752 0.60674 0.0
N1520 N 0.09387 0.3082 0.58449 0.0
N1521 N 0.05513 0.27896 0.68625 0.0
C1522 C 0.08225 0.30562 0.61004 0.0
C1523 C 0.06226 0.29032 0.66212 0.0
N1524 N 0.10985 0.32647 0.64386 0.0
N1525 N 0.02637 0.28635 0.63077 0.0
H1526 H 0.04052 0.26901 0.68498 0.0
H1527 H 0.04052 0.26901 0.68498 0.0
H1528 H 0.01621 0.28687 0.6099 0.0
H1529 H 0.01722 0.28408 0.64991 0.0
H1530 H 0.11551 0.33495 0.62532 0.0
H1531 H 0.11619 0.33353 0.66527 0.0
H1532 H 0.1111 0.31212 0.58603 0.0
H1533 H 0.08684 0.30429 0.56197 0.0
C1534 C 0.72842 0.11758 0.57347 0.0
C1535 C 0.73071 0.11784 0.60644 0.0
C1536 C 0.71785 0.07844 0.60502 0.0
C1537 C 0.71948 0.0772 0.57246 0.0
N1538 N 0.72312 0.09623 0.52483 0.0
N1539 N 0.71534 0.10272 0.65105 0.0
C1540 C 0.72359 0.09699 0.55645 0.0
C1541 C 0.72156 0.09952 0.62152 0.0
N1542 N 0.72973 0.13685 0.55761 0.0
N1543 N 0.71367 0.05934 0.62037 0.0
H1544 H 0.71602 0.1186 0.66258 0.0
H1545 H 0.70684 0.09058 0.66246 0.0
H1546 H 0.71004 0.04372 0.60904 0.0
H1547 H 0.71516 0.05868 0.64446 0.0
H1548 H 0.73099 0.15302 0.56822 0.0
H1549 H 0.73099 0.15302 0.56822 0.0
H1550 H 0.72651 0.11042 0.51237 0.0
H1551 H 0.7194 0.08148 0.51128 0.0
C1552 C 0.8978 0.2721 0.44751 0.0
C1553 C 0.89034 0.28342 0.42021 0.0
C1554 C 0.93038 0.29184 0.41326 0.0
C1555 C 0.93619 0.28627 0.44449 0.0
N1556 N 0.92485 0.27201 0.4923 0.0
N1557 N 0.90129 0.29668 0.37137 0.0
C1558 C 0.91977 0.2765 0.46182 0.0
C1559 C 0.90715 0.29119 0.40125 0.0
N1560 N 0.88427 0.25637 0.45907 0.0
N1561 N 0.94723 0.29666 0.39479 0.0
H1562 H 0.88692 0.29003 0.35876 0.0
H1563 H 0.91131 0.3065 0.35849 0.0
H1564 H 0.96434 0.29683 0.40283 0.0
H1565 H 0.94465 0.29905 0.37109 0.0
H1566 H 0.88979 0.24629 0.47742 0.0
H1567 H 0.8686 0.25151 0.44797 0.0
H1568 H 0.91271 0.26688 0.50665 0.0
H1569 H 0.94064 0.27549 0.50393 0.0
C1570 C 0.70449 0.90598 0.40887 0.0
C1571 C 0.70301 0.91269 0.3777 0.0
C1572 C 0.71233 0.95177 0.3957 0.0
C1573 C 0.70959 0.94574 0.42652 0.0
N1574 N 0.70368 0.91696 0.46308 0.0
N1575 N 0.71813 0.93861 0.34318 0.0
C1576 C 0.70614 0.92274 0.43333 0.0
C1577 C 0.7107 0.93467 0.37145 0.0
N1578 N 0.70599 0.88352 0.415 0.0
N1579 N 0.71575 0.97394 0.38948 0.0
H1580 H 0.71958 0.92566 0.3264 0.0
H1581 H 0.72561 0.95374 0.33786 0.0
H1582 H 0.71777 0.98676 0.40681 0.0
H1583 H 0.71519 0.97983 0.36709 0.0
H1584 H 0.70904 0.87745 0.4372 0.0
H1585 H 0.70731 0.87102 0.39759 0.0
H1586 H 0.69783 0.90122 0.46889 0.0
H1587 H 0.70638 0.92832 0.48195 0.0
C1588 C 0.10206 0.75739 0.39354 0.0
C1589 C 0.11347 0.74137 0.375 0.0
C1590 C 0.08069 0.71588 0.37335 0.0
C1591 C 0.07128 0.73022 0.39578 0.0
N1592 N 0.07043 0.76669 0.42292 0.0
N1593 N 0.10613 0.71368 0.33269 0.0
C1594 C 0.08093 0.75177 0.40393 0.0
C1595 C 0.10064 0.72292 0.36041 0.0
N1596 N 0.11104 0.77814 0.40214 0.0
N1597 N 0.07107 0.69528 0.36516 0.0
H1598 H 0.11792 0.72127 0.31985 0.0
H1599 H 0.0965 0.70111 0.32017 0.0
H1600 H 0.05595 0.69003 0.37337 0.0
H1601 H 0.07879 0.68305 0.35163 0.0
H1602 H 0.12611 0.7843 0.39486 0.0
H1603 H 0.12611 0.7843 0.39486 0.0
H1604 H 0.0774 0.78244 0.43019 0.0
H1605 H 0.05466 0.76344 0.43087 0.0
C1606 C 0.29589 0.08 0.38649 0.0
C1607 C 0.30362 0.10216 0.39595 0.0
C1608 C 0.30004 0.093 0.45023 0.0
C1609 C 0.29811 0.06971 0.44081 0.0
N1610 N 0.29381 0.04072 0.39991 0.0
N1611 N 0.30591 0.13176 0.43614 0.0
C1612 C 0.29576 0.06312 0.40888 0.0
C1613 C 0.30337 0.10931 0.42771 0.0
N1614 N 0.28724 0.07553 0.35664 0.0
N1615 N 0.298 0.09949 0.48054 0.0
H1616 H 0.30394 0.14443 0.4201 0.0
H1617 H 0.30948 0.13802 0.45883 0.0
H1618 H 0.29525 0.08803 0.49739 0.0
H1619 H 0.29747 0.11619 0.48894 0.0
H1620 H 0.27978 0.0601 0.34902 0.0
H1621 H 0.2847 0.08824 0.34072 0.0
H1622 H 0.29456 0.03483 0.377 0.0
H1623 H 0.29303 0.0279 0.41566 0.0
C1624 C 0.60704 0.77209 0.87166 0.0
C1625 C 0.62309 0.7901 0.87396 0.0
C1626 C 0.59586 0.81479 0.89822 0.0
C1627 C 0.58198 0.79562 0.90121 0.0
N1628 N 0.57226 0.75668 0.88668 0.0
N1629 N 0.62713 0.83064 0.87342 0.0
C1630 C 0.58673 0.77463 0.88623 0.0
C1631 C 0.61573 0.81222 0.88223 0.0
N1632 N 0.61042 0.75237 0.85542 0.0
N1633 N 0.59052 0.83517 0.91171 0.0
H1634 H 0.64039 0.82911 0.85908 0.0
H1635 H 0.62175 0.84725 0.87681 0.0
H1636 H 0.57549 0.83782 0.92225 0.0
H1637 H 0.60139 0.84909 0.91373 0.0
H1638 H 0.62407 0.74945 0.84212 0.0
H1639 H 0.62407 0.74945 0.84212 0.0
H1640 H 0.57557 0.74085 0.87649 0.0
H1641 H 0.55705 0.75764 0.89713 0.0
C1642 C 0.20482 0.62279 0.88771 0.0
C1643 C 0.22752 0.62821 0.88253 0.0
C1644 C 0.23944 0.59002 0.89655 0.0
C1645 C 0.21814 0.58675 0.90842 0.0
N1646 N 0.17965 0.5985 0.91304 0.0
N1647 N 0.26228 0.61299 0.8659 0.0
C1648 C 0.20039 0.60251 0.90272 0.0
C1649 C 0.24349 0.61041 0.88159 0.0
N1650 N 0.18752 0.63628 0.87667 0.0
N1651 N 0.25632 0.57452 0.90174 0.0
H1652 H 0.26471 0.62719 0.85307 0.0
H1653 H 0.27388 0.60012 0.86232 0.0
H1654 H 0.25386 0.55917 0.91203 0.0
H1655 H 0.27307 0.57731 0.89736 0.0
H1656 H 0.17049 0.63264 0.87826 0.0
H1657 H 0.18994 0.64921 0.86168 0.0
H1658 H 0.16688 0.61056 0.9135 0.0
H1659 H 0.17559 0.5832 0.92249 0.0
C1660 C 0.41232 0.24678 0.89787 0.0
C1661 C 0.39199 0.24347 0.91284 0.0
C1662 C 0.41468 0.22788 0.95722 0.0
C1663 C 0.4347 0.2321 0.94279 0.0
N1664 N 0.45239 0.24106 0.89655 0.0
N1665 N 0.37457 0.22037 0.94936 0.0
C1666 C 0.43337 0.23991 0.91221 0.0
C1667 C 0.39331 0.23095 0.94042 0.0
N1668 N 0.41254 0.25599 0.86954 0.0
N1669 N 0.41602 0.22118 0.98715 0.0
H1670 H 0.35934 0.21911 0.93548 0.0
H1671 H 0.37508 0.20976 0.96803 0.0
H1672 H 0.4314 0.21809 -0.00014 0.0
H1673 H 0.40199 0.22042 2e-05 0.0
H1674 H 0.39838 0.26117 0.85576 0.0
H1675 H 0.39838 0.26117 0.85576 0.0
H1676 H 0.45219 0.2469 0.8741 0.0
H1677 H 0.46817 0.23544 0.90551 0.0
C1678 C 0.78929 0.40963 0.9145 0.0
C1679 C 0.78139 0.3915 0.93182 0.0
C1680 C 0.77632 0.41825 0.97539 0.0
C1681 C 0.78539 0.43588 0.9592 0.0
N1682 N 0.79499 0.45016 0.9107 0.0
N1683 N 0.75578 0.383 0.97044 0.0
C1684 C 0.79042 0.43209 0.92798 0.0
C1685 C 0.77128 0.39718 0.95973 0.0
N1686 N 0.79449 0.40588 0.88468 0.0
N1687 N 0.77288 0.42138 0.00604 0.0
H1688 H 0.75014 0.3682 0.95828 0.0
H1689 H 0.7466 0.38735 0.9893 0.0
H1690 H 0.77612 0.43672 0.01838 0.0
H1691 H 0.76889 0.40804 0.01965 0.0
H1692 H 0.80492 0.41649 0.87353 0.0
H1693 H 0.78694 0.39299 0.87037 0.0
H1694 H 0.79655 0.44909 0.88694 0.0
H1695 H 0.79574 0.4668 0.91971 0.0
C1696 C 0.60787 0.18848 0.09845 0.0
C1697 C 0.60468 0.19485 0.13011 0.0
C1698 C 0.56579 0.20672 0.11354 0.0
C1699 C 0.56942 0.20103 0.08237 0.0
N1700 N 0.59514 0.1894 0.04435 0.0
N1701 N 0.58309 0.21895 0.16373 0.0
C1702 C 0.59083 0.19301 0.07468 0.0
C1703 C 0.58433 0.20648 0.13663 0.0
N1704 N 0.62706 0.17836 0.08942 0.0
N1705 N 0.54453 0.21227 0.12123 0.0
H1706 H 0.59691 0.22242 0.17965 0.0
H1707 H 0.56919 0.22899 0.1682 0.0
H1708 H 0.5306 0.21297 0.10482 0.0
H1709 H 0.54037 0.21407 0.1441 0.0
H1710 H 0.64123 0.17416 0.10392 0.0
H1711 H 0.64123 0.17416 0.10392 0.0
H1712 H 0.61069 0.18354 0.03768 0.0
H1713 H 0.58348 0.19281 0.02582 0.0
C1714 C 0.76869 0.57497 0.15413 0.0
C1715 C 0.76894 0.59817 0.14673 0.0
C1716 C 0.78853 0.58867 0.10049 0.0
C1717 C 0.78444 0.56536 0.10464 0.0
N1718 N 0.77278 0.53571 0.13629 0.0
N1719 N 0.79065 0.62654 0.124 0.0
C1720 C 0.77562 0.55831 0.13216 0.0
C1721 C 0.78259 0.60488 0.12339 0.0
N1722 N 0.76286 0.5691 0.18257 0.0
N1723 N 0.79663 0.59552 0.07376 0.0
H1724 H 0.7882 0.63809 0.14224 0.0
H1725 H 0.8022 0.63204 0.10906 0.0
H1726 H 0.80172 0.58428 0.0566 0.0
H1727 H 0.79699 0.61239 0.06775 0.0
H1728 H 0.76381 0.55271 0.19044 0.0
H1729 H 0.7593 0.58114 0.19972 0.0
H1730 H 0.7639 0.52929 0.15373 0.0
H1731 H 0.77871 0.52321 0.1213 0.0
C1732 C 0.41507 0.77754 0.13027 0.0
C1733 C 0.39637 0.79215 0.12372 0.0
C1734 C 0.41067 0.79965 0.07347 0.0
C1735 C 0.43136 0.78896 0.0832 0.0
N1736 N 0.45421 0.76936 0.12247 0.0
N1737 N 0.37349 0.81133 0.08306 0.0
C1738 C 0.43377 0.77812 0.1119 0.0
C1739 C 0.39319 0.80133 0.09369 0.0
N1740 N 0.4144 0.76209 0.1528 0.0
N1741 N 0.40756 0.80859 0.04479 0.0
H1742 H 0.35895 0.81234 0.09497 0.0
H1743 H 0.35895 0.81234 0.09497 0.0
H1744 H 0.41971 0.80773 0.02878 0.0
H1745 H 0.39265 0.81674 0.03693 0.0
H1746 H 0.42685 0.74988 0.15689 0.0
H1747 H 0.39989 0.75927 0.16414 0.0
H1748 H 0.4575 0.76362 0.14484 0.0
H1749 H 0.46849 0.76971 0.11001 0.0
C1750 C 0.23755 0.40072 0.12102 0.0
C1751 C 0.24938 0.40733 0.14991 0.0
C1752 C 0.24164 0.44727 0.13901 0.0
C1753 C 0.23414 0.44056 0.10796 0.0
N1754 N 0.22511 0.411 0.0688 0.0
N1755 N 0.25307 0.43611 0.19137 0.0
C1756 C 0.23179 0.4173 0.09892 0.0
C1757 C 0.24852 0.43044 0.16054 0.0
N1758 N 0.23051 0.37881 0.11553 0.0
N1759 N 0.24299 0.46982 0.14745 0.0
H1760 H 0.25703 0.42425 0.20806 0.0
H1761 H 0.25077 0.45222 0.20116 0.0
H1762 H 0.23676 0.48243 0.13287 0.0
H1763 H 0.25106 0.47624 0.16826 0.0
H1764 H 0.22029 0.37331 0.09589 0.0
H1765 H 0.23209 0.36685 0.1326 0.0
H1766 H 0.22605 0.39442 0.05989 0.0
H1767 H 0.22005 0.42258 0.05209 0.0
C1768 C 0.41188 0.21886 0.12797 0.0
C1769 C 0.42205 0.21825 0.15896 0.0
C1770 C 0.45963 0.22234 0.14052 0.0
C1771 C 0.44981 0.22035 0.10952 0.0
N1772 N 0.41687 0.22278 0.0732 0.0
N1773 N 0.45336 0.23243 0.19372 0.0
C1774 C 0.42593 0.22044 0.10305 0.0
C1775 C 0.44528 0.22407 0.16505 0.0
N1776 N 0.38883 0.21843 0.12256 0.0
N1777 N 0.48263 0.22183 0.14667 0.0
H1778 H 0.44281 0.23593 0.21135 0.0
H1779 H 0.46979 0.23865 0.19865 0.0
H1780 H 0.49378 0.22072 0.12931 0.0
H1781 H 0.49051 0.22071 0.16902 0.0
H1782 H 0.38016 0.21544 0.10087 0.0
H1783 H 0.37817 0.22176 0.1401 0.0
H1784 H 0.39968 0.22449 0.06666 0.0
H1785 H 0.42682 0.22446 0.05472 0.0
C1786 C 0.757 0.39447 0.10868 0.0
C1787 C 0.77631 0.3881 0.12803 0.0
C1788 C 0.78826 0.42808 0.13053 0.0
C1789 C 0.77353 0.43189 0.10363 0.0
N1790 N 0.74226 0.41773 0.06779 0.0
N1791 N 0.80826 0.40113 0.1631 0.0
C1792 C 0.7572 0.41501 0.09318 0.0
C1793 C 0.79116 0.40566 0.14112 0.0
N1794 N 0.73849 0.38079 0.10355 0.0
N1795 N 0.79891 0.44605 0.14646 0.0
H1796 H 0.80846 0.38696 0.17653 0.0
H1797 H 0.82192 0.41206 0.1688 0.0
H1798 H 0.79623 0.46272 0.13996 0.0
H1799 H 0.80831 0.44474 0.16777 0.0
H1800 H 0.73627 0.36616 0.11568 0.0
H1801 H 0.73627 0.36616 0.11568 0.0
H1802 H 0.7304 0.40528 0.05988 0.0
H1803 H 0.74259 0.43133 0.05336 0.0
C1804 C 0.59129 0.76671 0.11454 0.0
C1805 C 0.58046 0.76303 0.14225 0.0
C1806 C 0.54597 0.78128 0.11947 0.0
C1807 C 0.55619 0.78311 0.09143 0.0
N1808 N 0.59035 0.78553 0.06562 0.0
N1809 N 0.55133 0.77646 0.17469 0.0
C1810 C 0.57952 0.77857 0.09022 0.0
C1811 C 0.5591 0.7736 0.14599 0.0
N1812 N 0.61238 0.75825 0.11056 0.0
N1813 N 0.52343 0.7859 0.12042 0.0
H1814 H 0.56031 0.77155 0.19499 0.0
H1815 H 0.53696 0.7859 0.17879 0.0
H1816 H 0.51356 0.79243 0.10174 0.0
H1817 H 0.51428 0.78201 0.13903 0.0
H1818 H 0.619 0.7569 0.08904 0.0
H1819 H 0.62344 0.75222 0.12824 0.0
H1820 H 0.60785 0.78495 0.06476 0.0
H1821 H 0.58204 0.79404 0.04736 0.0
C1822 C 0.23697 0.60653 0.11937 0.0
C1823 C 0.22804 0.62478 0.10119 0.0
C1824 C 0.2073 0.59717 0.0654 0.0
C1825 C 0.21747 0.5792 0.08243 0.0
N1826 N 0.23327 0.56703 0.13174 0.0
N1827 N 0.19678 0.6364 0.06482 0.0
C1828 C 0.22914 0.58409 0.11167 0.0
C1829 C 0.21051 0.6198 0.07705 0.0
N1830 N 0.25373 0.6099 0.14286 0.0
N1831 N 0.1954 0.59314 0.03727 0.0
H1832 H 0.19841 0.65356 0.07056 0.0
H1833 H 0.18205 0.63285 0.05052 0.0
H1834 H 0.19009 0.57727 0.02855 0.0
H1835 H 0.19154 0.60582 0.02163 0.0
H1836 H 0.26288 0.5966 0.15283 0.0
H1837 H 0.25956 0.6255 0.152 0.0
H1838 H 0.23986 0.56981 0.15468 0.0
H1839 H 0.22778 0.55044 0.12627 0.0
C1840 C 0.39612 0.78417 0.93032 0.0
C1841 C 0.38963 0.797 0.90385 0.0
C1842 C 0.42996 0.80739 0.90219 0.0
C1843 C 0.43464 0.79929 0.93242 0.0
N1844 N 0.42172 0.78093 0.97634 0.0
N1845 N 0.40266 0.81637 0.8601 0.0
C1846 C 0.41757 0.78794 0.94673 0.0
C1847 C 0.40717 0.80747 0.8885 0.0
N1848 N 0.38218 0.76765 0.93923 0.0
N1849 N 0.44751 0.81341 0.88559 0.0
H1850 H 0.39 0.80996 0.84404 0.0
H1851 H 0.41284 0.82863 0.85156 0.0
H1852 H 0.46443 0.81291 0.89443 0.0
H1853 H 0.44563 0.81714 0.86222 0.0
H1854 H 0.38717 0.75637 0.95638 0.0
H1855 H 0.36666 0.76338 0.92731 0.0
H1856 H 0.40916 0.77456 0.98906 0.0
H1857 H 0.43722 0.78356 0.98925 0.0
C1858 C 0.21925 0.40365 0.93421 0.0
C1859 C 0.21232 0.4053 0.90215 0.0
C1860 C 0.21798 0.44635 0.9066 0.0
C1861 C 0.22048 0.44496 0.93937 0.0
N1862 N 0.22449 0.4228 0.98493 0.0
N1863 N 0.21738 0.42642 0.85661 0.0
C1864 C 0.22179 0.42372 0.95334 0.0
C1865 C 0.21547 0.42613 0.88781 0.0
N1866 N 0.22478 0.38302 0.9458 0.0
N1867 N 0.21684 0.46702 0.89353 0.0
H1868 H 0.2172 0.41176 0.84241 0.0
H1869 H 0.22183 0.44076 0.84532 0.0
H1870 H 0.21964 0.4822 0.90637 0.0
H1871 H 0.21187 0.46925 0.8702 0.0
H1872 H 0.23154 0.38082 0.96847 0.0
H1873 H 0.22544 0.36836 0.93165 0.0
H1874 H 0.22262 0.408 0.9967 0.0
H1875 H 0.22741 0.43717 -0.00045 0.0
C1876 C 0.59735 0.26399 0.88506 0.0
C1877 C 0.61113 0.24785 0.87053 0.0
C1878 C 0.58296 0.21835 0.87558 0.0
C1879 C 0.57227 0.23309 0.89633 0.0
N1880 N 0.56744 0.27056 0.91915 0.0
N1881 N 0.60816 0.21555 0.83455 0.0
C1882 C 0.57851 0.25631 0.8999 0.0
C1883 C 0.60135 0.22662 0.86039 0.0
N1884 N 0.60196 0.28655 0.88373 0.0
N1885 N 0.57611 0.19629 0.87136 0.0
H1886 H 0.61888 0.2232 0.82016 0.0
H1887 H 0.60061 0.20069 0.82488 0.0
H1888 H 0.562 0.19002 0.88116 0.0
H1889 H 0.58508 0.18408 0.85947 0.0
H1890 H 0.59149 0.2993 0.89159 0.0
H1891 H 0.61511 0.29254 0.87172 0.0
H1892 H 0.57307 0.28684 0.92595 0.0
H1893 H 0.55312 0.26571 0.92969 0.0
C1894 C 0.81606 0.6042 0.88049 0.0
C1895 C 0.79755 0.60423 0.85703 0.0
C1896 C 0.7756 0.58164 0.89075 0.0
C1897 C 0.79562 0.5777 0.90992 0.0
N1898 N 0.83576 0.58334 0.92149 0.0
N1899 N 0.75888 0.59184 0.84062 0.0
C1900 C 0.81609 0.58848 0.90441 0.0
C1901 C 0.77696 0.59286 0.86251 0.0
N1902 N 0.83318 0.61976 0.88111 0.0
N1903 N 0.75516 0.57489 0.89974 0.0
H1904 H 0.7578 0.60045 0.82013 0.0
H1905 H 0.74514 0.58102 0.84184 0.0
H1906 H 0.75358 0.56644 0.92015 0.0
H1907 H 0.73967 0.5796 0.88866 0.0
H1908 H 0.84595 0.62129 0.89919 0.0
H1909 H 0.83309 0.6333 0.86654 0.0
H1910 H 0.85162 0.58867 0.9159 0.0
H1911 H 0.83645 0.57217 0.93959 0.0
loop_
_geom_bond_atom_site_label_1
_geom_bond_atom_site_label_2
_geom_bond_distance
_geom_bond_site_symmetry_2
_ccdc_geom_bond_type
C0 C1 1.560 . S
C0 H61 0.959 . S
C0 H62 0.959 . S
C0 H63 0.960 . S
C1 C0 1.560 . S
C1 O56 1.426 . S
C1 H60 0.980 . S
C2 C3 1.407 . S
C2 C7 1.418 . S
C2 O56 1.334 . S
C3 C2 1.407 . S
C3 C4 1.360 . S
C3 H64 0.929 . S
C4 C3 1.360 . S
C4 C5 1.401 . S
C4 C8 1.527 . S
C5 C4 1.401 . S
C5 C6 1.405 . S
C5 C38 1.587 . S
C6 C5 1.405 . S
C6 C7 1.332 . S
C6 C9 1.496 . S
C7 C2 1.418 . S
C7 C6 1.332 . S
C7 H65 0.929 . S
C8 C4 1.527 . S
C8 H66 0.959 . S
C8 H67 0.961 . S
C8 H68 0.961 . S
C9 C6 1.496 . S
C9 H69 0.960 . S
C9 H70 0.960 . S
C9 H71 0.961 . S
C10 C11 1.517 . S
C10 H73 0.961 . S
C10 H74 0.960 . S
C10 H75 0.959 . S
C11 C10 1.517 . S
C11 O59 1.468 . S
C11 H72 0.980 . S
C12 C13 1.349 . S
C12 C17 1.367 . S
C12 O59 1.408 . S
C13 C12 1.349 . S
C13 C14 1.407 . S
C13 H76 0.930 . S
C14 C13 1.407 . S
C14 C15 1.449 . S
C14 C18 1.535 . S
C15 C14 1.449 . S
C15 C16 1.384 . S
C15 C40 1.553 . S
C16 C15 1.384 . S
C16 C17 1.364 . S
C16 C19 1.450 . S
C17 C12 1.367 . S
C17 C16 1.364 . S
C17 H77 0.931 . S
C18 C14 1.535 . S
C18 H78 0.959 . S
C18 H79 0.961 . S
C18 H80 0.959 . S
C19 C16 1.450 . S
C19 H81 0.960 . S
C19 H82 0.960 . S
C19 H83 0.960 . S
C20 C21 1.309 . S
C20 C25 1.304 . S
C20 O58 1.435 . S
C21 C20 1.309 . S
C21 C22 1.476 . S
C21 H85 0.930 . S
C22 C21 1.476 . S
C22 C23 1.400 . S
C22 C26 1.567 . S
C23 C22 1.400 . S
C23 C24 1.373 . S
C23 C45 1.432 . S
C24 C23 1.373 . S
C24 C25 1.339 . S
C24 C27 1.530 . S
C25 C20 1.304 . S
C25 C24 1.339 . S
C25 H86 0.930 . S
C26 C22 1.567 . S
C26 H87 0.961 . S
C26 H88 0.960 . S
C26 H89 0.958 . S
C27 C24 1.530 . S
C27 H90 0.961 . S
C27 H91 0.960 . S
C27 H92 0.960 . S
C28 C29 1.530 . S
C28 H94 0.961 . S
C28 H95 0.961 . S
C28 H96 0.959 . S
C29 C28 1.530 . S
C29 O57 1.412 . S
C29 H93 0.980 . S
C30 C31 1.288 . S
C30 C35 1.377 . S
C30 O57 1.393 . S
C31 C30 1.288 . S
C31 C32 1.369 . S
C31 H97 0.932 . S
C32 C31 1.369 . S
C32 C33 1.398 . S
C32 C36 1.527 . S
C33 C32 1.398 . S
C33 C34 1.380 . S
C33 C47 1.497 . S
C34 C33 1.380 . S
C34 C35 1.383 . S
C34 C37 1.603 . S
C35 C30 1.377 . S
C35 C34 1.383 . S
C35 H98 0.929 . S
C36 C32 1.527 . S
C36 H99 0.961 . S
C36 H100 0.959 . S
C36 H101 0.959 . S
C37 C34 1.603 . S
C37 H102 0.960 . S
C37 H103 0.962 . S
C37 H104 0.961 . S
C38 C5 1.587 . S
C38 C39 1.360 . S
C38 C51 1.412 . S
C39 C38 1.360 . S
C39 C40 1.365 . S
C39 H105 0.929 . S
C40 C15 1.553 . S
C40 C39 1.365 . S
C40 C41 1.404 . S
C41 C40 1.404 . S
C41 C42 1.395 . S
C41 C52 1.451 . S
C42 C41 1.395 . S
C42 C43 1.322 . S
C42 H106 0.930 . S
C43 C42 1.322 . S
C43 C44 1.459 . S
C43 H107 0.929 . S
C44 C43 1.459 . S
C44 C45 1.445 . S
C44 C53 1.395 . S
C45 C23 1.432 . S
C45 C44 1.445 . S
C45 C46 1.370 . S
C46 C45 1.370 . S
C46 C47 1.438 . S
C46 H108 0.930 . S
C47 C33 1.497 . S
C47 C46 1.438 . S
C47 C48 1.360 . S
C48 C47 1.360 . S
C48 C49 1.401 . S
C48 C53 1.446 . S
C49 C48 1.401 . S
C49 C50 1.347 . S
C49 H109 0.929 . S
C50 C49 1.347 . S
C50 C51 1.455 . S
C50 H110 0.930 . S
C51 C38 1.412 . S
C51 C50 1.455 . S
C51 C52 1.331 . S
C52 C41 1.451 . S
C52 C51 1.331 . S
C52 C53 1.497 . S
C53 C44 1.395 . S
C53 C48 1.446 . S
C53 C52 1.497 . S
C54 C55 1.582 . S
C54 H111 0.962 . S
C54 H112 0.959 . S
C54 H113 0.958 . S
C55 C54 1.582 . S
C55 O58 1.458 . S
C55 H84 0.980 . S
O56 C1 1.426 . S
O56 C2 1.334 . S
O57 C29 1.412 . S
O57 C30 1.393 . S
O58 C20 1.435 . S
O58 C55 1.458 . S
O59 C11 1.468 . S
O59 C12 1.408 . S
H60 C1 0.980 . S
H61 C0 0.959 . S
H62 C0 0.959 . S
H63 C0 0.960 . S
H64 C3 0.929 . S
H65 C7 0.929 . S
H66 C8 0.959 . S
H67 C8 0.961 . S
H68 C8 0.961 . S
H69 C9 0.960 . S
H70 C9 0.960 . S
H71 C9 0.961 . S
H72 C11 0.980 . S
H73 C10 0.961 . S
H74 C10 0.960 . S
H75 C10 0.959 . S
H76 C13 0.930 . S
H77 C17 0.931 . S
H78 C18 0.959 . S
H79 C18 0.961 . S
H80 C18 0.959 . S
H81 C19 0.960 . S
H82 C19 0.960 . S
H83 C19 0.960 . S
H84 C55 0.980 . S
H85 C21 0.930 . S
H86 C25 0.930 . S
H87 C26 0.961 . S
H88 C26 0.960 . S
H89 C26 0.958 . S
H90 C27 0.961 . S
H91 C27 0.960 . S
H92 C27 0.960 . S
H93 C29 0.980 . S
H94 C28 0.961 . S
H95 C28 0.961 . S
H96 C28 0.959 . S
H97 C31 0.932 . S
H98 C35 0.929 . S
H99 C36 0.961 . S
H100 C36 0.959 . S
H101 C36 0.959 . S
H102 C37 0.960 . S
H103 C37 0.962 . S
H104 C37 0.961 . S
H105 C39 0.929 . S
H106 C42 0.930 . S
H107 C43 0.929 . S
H108 C46 0.930 . S
H109 C49 0.929 . S
H110 C50 0.930 . S
H111 C54 0.962 . S
H112 C54 0.959 . S
H113 C54 0.958 . S
C114 C115 1.560 . S
C114 H175 0.959 . S
C114 H176 0.959 . S
C114 H177 0.960 . S
C115 C114 1.560 . S
C115 O170 1.426 . S
C115 H174 0.980 . S
C116 C117 1.407 . S
C116 C121 1.418 . S
C116 O170 1.334 . S
C117 C116 1.407 . S
C117 C118 1.360 . S
C117 H178 0.929 . S
C118 C117 1.360 . S
C118 C119 1.401 . S
C118 C122 1.527 . S
C119 C118 1.401 . S
C119 C120 1.405 . S
C119 C152 1.587 . S
C120 C119 1.405 . S
C120 C121 1.332 . S
C120 C123 1.496 . S
C121 C116 1.418 . S
C121 C120 1.332 . S
C121 H179 0.929 . S
C122 C118 1.527 . S
C122 H180 0.959 . S
C122 H181 0.961 . S
C122 H182 0.961 . S
C123 C120 1.496 . S
C123 H183 0.960 . S
C123 H184 0.960 . S
C123 H185 0.961 . S
C124 C125 1.517 . S
C124 H187 0.961 . S
C124 H188 0.960 . S
C124 H189 0.959 . S
C125 C124 1.517 . S
C125 O173 1.468 . S
C125 H186 0.980 . S
C126 C127 1.349 . S
C126 C131 1.367 . S
C126 O173 1.408 . S
C127 C126 1.349 . S
C127 C128 1.407 . S
C127 H190 0.930 . S
C128 C127 1.407 . S
C128 C129 1.449 . S
C128 C132 1.535 . S
C129 C128 1.449 . S
C129 C130 1.384 . S
C129 C154 1.553 . S
C130 C129 1.384 . S
C130 C131 1.364 . S
C130 C133 1.450 . S
C131 C126 1.367 . S
C131 C130 1.364 . S
C131 H191 0.931 . S
C132 C128 1.535 . S
C132 H192 0.959 . S
C132 H193 0.961 . S
C132 H194 0.959 . S
C133 C130 1.450 . S
C133 H195 0.960 . S
C133 H196 0.960 . S
C133 H197 0.960 . S
C134 C135 1.309 . S
C134 C139 1.304 . S
C134 O172 1.435 . S
C135 C134 1.309 . S
C135 C136 1.476 . S
C135 H199 0.930 . S
C136 C135 1.476 . S
C136 C137 1.400 . S
C136 C140 1.567 . S
C137 C136 1.400 . S
C137 C138 1.373 . S
C137 C159 1.432 . S
C138 C137 1.373 . S
C138 C139 1.339 . S
C138 C141 1.530 . S
C139 C134 1.304 . S
C139 C138 1.339 . S
C139 H200 0.930 . S
C140 C136 1.567 . S
C140 H201 0.961 . S
C140 H202 0.960 . S
C140 H203 0.958 . S
C141 C138 1.530 . S
C141 H204 0.961 . S
C141 H205 0.960 . S
C141 H206 0.960 . S
C142 C143 1.530 . S
C142 H208 0.961 . S
C142 H209 0.961 . S
C142 H210 0.959 . S
C143 C142 1.530 . S
C143 O171 1.412 . S
C143 H207 0.980 . S
C144 C145 1.288 . S
C144 C149 1.377 . S
C144 O171 1.393 . S
C145 C144 1.288 . S
C145 C146 1.369 . S
C145 H211 0.932 . S
C146 C145 1.369 . S
C146 C147 1.398 . S
C146 C150 1.527 . S
C147 C146 1.398 . S
C147 C148 1.380 . S
C147 C161 1.497 . S
C148 C147 1.380 . S
C148 C149 1.383 . S
C148 C151 1.603 . S
C149 C144 1.377 . S
C149 C148 1.383 . S
C149 H212 0.929 . S
C150 C146 1.527 . S
C150 H213 0.961 . S
C150 H214 0.959 . S
C150 H215 0.959 . S
C151 C148 1.603 . S
C151 H216 0.960 . S
C151 H217 0.962 . S
C151 H218 0.961 . S
C152 C119 1.587 . S
C152 C153 1.360 . S
C152 C165 1.412 . S
C153 C152 1.360 . S
C153 C154 1.365 . S
C153 H219 0.929 . S
C154 C129 1.553 . S
C154 C153 1.365 . S
C154 C155 1.404 . S
C155 C154 1.404 . S
C155 C156 1.395 . S
C155 C166 1.451 . S
C156 C155 1.395 . S
C156 C157 1.322 . S
C156 H220 0.930 . S
C157 C156 1.322 . S
C157 C158 1.459 . S
C157 H221 0.929 . S
C158 C157 1.459 . S
C158 C159 1.445 . S
C158 C167 1.395 . S
C159 C137 1.432 . S
C159 C158 1.445 . S
C159 C160 1.370 . S
C160 C159 1.370 . S
C160 C161 1.438 . S
C160 H222 0.930 . S
C161 C147 1.497 . S
C161 C160 1.438 . S
C161 C162 1.360 . S
C162 C161 1.360 . S
C162 C163 1.401 . S
C162 C167 1.446 . S
C163 C162 1.401 . S
C163 C164 1.347 . S
C163 H223 0.929 . S
C164 C163 1.347 . S
C164 C165 1.455 . S
C164 H224 0.930 . S
C165 C152 1.412 . S
C165 C164 1.455 . S
C165 C166 1.331 . S
C166 C155 1.451 . S
C166 C165 1.331 . S
C166 C167 1.497 . S
C167 C158 1.395 . S
C167 C162 1.446 . S
C167 C166 1.497 . S
C168 C169 1.582 . S
C168 H225 0.962 . S
C168 H226 0.959 . S
C168 H227 0.958 . S
C169 C168 1.582 . S
C169 O172 1.458 . S
C169 H198 0.980 . S
O170 C115 1.426 . S
O170 C116 1.334 . S
O171 C143 1.412 . S
O171 C144 1.393 . S
O172 C134 1.435 . S
O172 C169 1.458 . S
O173 C125 1.468 . S
O173 C126 1.408 . S
H174 C115 0.980 . S
H175 C114 0.959 . S
H176 C114 0.959 . S
H177 C114 0.960 . S
H178 C117 0.929 . S
H179 C121 0.929 . S
H180 C122 0.959 . S
H181 C122 0.961 . S
H182 C122 0.961 . S
H183 C123 0.960 . S
H184 C123 0.960 . S
H185 C123 0.961 . S
H186 C125 0.980 . S
H187 C124 0.961 . S
H188 C124 0.960 . S
H189 C124 0.959 . S
H190 C127 0.930 . S
H191 C131 0.931 . S
H192 C132 0.959 . S
H193 C132 0.961 . S
H194 C132 0.959 . S
H195 C133 0.960 . S
H196 C133 0.960 . S
H197 C133 0.960 . S
H198 C169 0.980 . S
H199 C135 0.930 . S
H200 C139 0.930 . S
H201 C140 0.961 . S
H202 C140 0.960 . S
H203 C140 0.958 . S
H204 C141 0.961 . S
H205 C141 0.960 . S
H206 C141 0.960 . S
H207 C143 0.980 . S
H208 C142 0.961 . S
H209 C142 0.961 . S
H210 C142 0.959 . S
H211 C145 0.932 . S
H212 C149 0.929 . S
H213 C150 0.961 . S
H214 C150 0.959 . S
H215 C150 0.959 . S
H216 C151 0.960 . S
H217 C151 0.962 . S
H218 C151 0.961 . S
H219 C153 0.929 . S
H220 C156 0.930 . S
H221 C157 0.929 . S
H222 C160 0.930 . S
H223 C163 0.929 . S
H224 C164 0.930 . S
H225 C168 0.962 . S
H226 C168 0.959 . S
H227 C168 0.958 . S
C228 C229 1.560 . S
C228 H289 0.959 . S
C228 H290 0.959 . S
C228 H291 0.960 . S
C229 C228 1.560 . S
C229 O284 1.426 . S
C229 H288 0.980 . S
C230 C231 1.407 . S
C230 C235 1.418 . S
C230 O284 1.334 . S
C231 C230 1.407 . S
C231 C232 1.360 . S
C231 H292 0.929 . S
C232 C231 1.360 . S
C232 C233 1.401 . S
C232 C236 1.527 . S
C233 C232 1.401 . S
C233 C234 1.405 . S
C233 C266 1.587 . S
C234 C233 1.405 . S
C234 C235 1.332 . S
C234 C237 1.496 . S
C235 C230 1.418 . S
C235 C234 1.332 . S
C235 H293 0.929 . S
C236 C232 1.527 . S
C236 H294 0.959 . S
C236 H295 0.961 . S
C236 H296 0.961 . S
C237 C234 1.496 . S
C237 H297 0.960 . S
C237 H298 0.960 . S
C237 H299 0.961 . S
C238 C239 1.517 . S
C238 H301 0.961 . S
C238 H302 0.960 . S
C238 H303 0.959 . S
C239 C238 1.517 . S
C239 O287 1.468 . S
C239 H300 0.980 . S
C240 C241 1.349 . S
C240 C245 1.367 . S
C240 O287 1.408 . S
C241 C240 1.349 . S
C241 C242 1.407 . S
C241 H304 0.930 . S
C242 C241 1.407 . S
C242 C243 1.449 . S
C242 C246 1.535 . S
C243 C242 1.449 . S
C243 C244 1.384 . S
C243 C268 1.553 . S
C244 C243 1.384 . S
C244 C245 1.364 . S
C244 C247 1.450 . S
C245 C240 1.367 . S
C245 C244 1.364 . S
C245 H305 0.931 . S
C246 C242 1.535 . S
C246 H306 0.959 . S
C246 H307 0.961 . S
C246 H308 0.959 . S
C247 C244 1.450 . S
C247 H309 0.960 . S
C247 H310 0.960 . S
C247 H311 0.960 . S
C248 C249 1.309 . S
C248 C253 1.304 . S
C248 O286 1.435 . S
C249 C248 1.309 . S
C249 C250 1.476 . S
C249 H313 0.930 . S
C250 C249 1.476 . S
C250 C251 1.400 . S
C250 C254 1.567 . S
C251 C250 1.400 . S
C251 C252 1.373 . S
C251 C273 1.432 . S
C252 C251 1.373 . S
C252 C253 1.339 . S
C252 C255 1.530 . S
C253 C248 1.304 . S
C253 C252 1.339 . S
C253 H314 0.930 . S
C254 C250 1.567 . S
C254 H315 0.961 . S
C254 H316 0.960 . S
C254 H317 0.958 . S
C255 C252 1.530 . S
C255 H318 0.961 . S
C255 H319 0.960 . S
C255 H320 0.960 . S
C256 C257 1.530 . S
C256 H322 0.961 . S
C256 H323 0.961 . S
C256 H324 0.959 . S
C257 C256 1.530 . S
C257 O285 1.412 . S
C257 H321 0.980 . S
C258 C259 1.288 . S
C258 C263 1.377 . S
C258 O285 1.393 . S
C259 C258 1.288 . S
C259 C260 1.369 . S
C259 H325 0.932 . S
C260 C259 1.369 . S
C260 C261 1.398 . S
C260 C264 1.527 . S
C261 C260 1.398 . S
C261 C262 1.380 . S
C261 C275 1.497 . S
C262 C261 1.380 . S
C262 C263 1.383 . S
C262 C265 1.603 . S
C263 C258 1.377 . S
C263 C262 1.383 . S
C263 H326 0.929 . S
C264 C260 1.527 . S
C264 H327 0.961 . S
C264 H328 0.959 . S
C264 H329 0.959 . S
C265 C262 1.603 . S
C265 H330 0.960 . S
C265 H331 0.962 . S
C265 H332 0.961 . S
C266 C233 1.587 . S
C266 C267 1.360 . S
C266 C279 1.412 . S
C267 C266 1.360 . S
C267 C268 1.365 . S
C267 H333 0.929 . S
C268 C243 1.553 . S
C268 C267 1.365 . S
C268 C269 1.404 . S
C269 C268 1.404 . S
C269 C270 1.395 . S
C269 C280 1.451 . S
C270 C269 1.395 . S
C270 C271 1.322 . S
C270 H334 0.930 . S
C271 C270 1.322 . S
C271 C272 1.459 . S
C271 H335 0.929 . S
C272 C271 1.459 . S
C272 C273 1.445 . S
C272 C281 1.395 . S
C273 C251 1.432 . S
C273 C272 1.445 . S
C273 C274 1.370 . S
C274 C273 1.370 . S
C274 C275 1.438 . S
C274 H336 0.930 . S
C275 C261 1.497 . S
C275 C274 1.438 . S
C275 C276 1.360 . S
C276 C275 1.360 . S
C276 C277 1.401 . S
C276 C281 1.446 . S
C277 C276 1.401 . S
C277 C278 1.347 . S
C277 H337 0.929 . S
C278 C277 1.347 . S
C278 C279 1.455 . S
C278 H338 0.930 . S
C279 C266 1.412 . S
C279 C278 1.455 . S
C279 C280 1.331 . S
C280 C269 1.451 . S
C280 C279 1.331 . S
C280 C281 1.497 . S
C281 C272 1.395 . S
C281 C276 1.446 . S
C281 C280 1.497 . S
C282 C283 1.582 . S
C282 H339 0.962 . S
C282 H340 0.959 . S
C282 H341 0.958 . S
C283 C282 1.582 . S
C283 O286 1.458 . S
C283 H312 0.980 . S
O284 C229 1.426 . S
O284 C230 1.334 . S
O285 C257 1.412 . S
O285 C258 1.393 . S
O286 C248 1.435 . S
O286 C283 1.458 . S
O287 C239 1.468 . S
O287 C240 1.408 . S
H288 C229 0.980 . S
H289 C228 0.959 . S
H290 C228 0.959 . S
H291 C228 0.960 . S
H292 C231 0.929 . S
H293 C235 0.929 . S
H294 C236 0.959 . S
H295 C236 0.961 . S
H296 C236 0.961 . S
H297 C237 0.960 . S
H298 C237 0.960 . S
H299 C237 0.961 . S
H300 C239 0.980 . S
H301 C238 0.961 . S
H302 C238 0.960 . S
H303 C238 0.959 . S
H304 C241 0.930 . S
H305 C245 0.931 . S
H306 C246 0.959 . S
H307 C246 0.961 . S
H308 C246 0.959 . S
H309 C247 0.960 . S
H310 C247 0.960 . S
H311 C247 0.960 . S
H312 C283 0.980 . S
H313 C249 0.930 . S
H314 C253 0.930 . S
H315 C254 0.961 . S
H316 C254 0.960 . S
H317 C254 0.958 . S
H318 C255 0.961 . S
H319 C255 0.960 . S
H320 C255 0.960 . S
H321 C257 0.980 . S
H322 C256 0.961 . S
H323 C256 0.961 . S
H324 C256 0.959 . S
H325 C259 0.932 . S
H326 C263 0.929 . S
H327 C264 0.961 . S
H328 C264 0.959 . S
H329 C264 0.959 . S
H330 C265 0.960 . S
H331 C265 0.962 . S
H332 C265 0.961 . S
H333 C267 0.929 . S
H334 C270 0.930 . S
H335 C271 0.929 . S
H336 C274 0.930 . S
H337 C277 0.929 . S
H338 C278 0.930 . S
H339 C282 0.962 . S
H340 C282 0.959 . S
H341 C282 0.958 . S
C342 C343 1.560 . S
C342 H403 0.959 . S
C342 H404 0.959 . S
C342 H405 0.960 . S
C343 C342 1.560 . S
C343 O398 1.426 . S
C343 H402 0.980 . S
C344 C345 1.407 . S
C344 C349 1.418 . S
C344 O398 1.334 . S
C345 C344 1.407 . S
C345 C346 1.360 . S
C345 H406 0.929 . S
C346 C345 1.360 . S
C346 C347 1.401 . S
C346 C350 1.527 . S
C347 C346 1.401 . S
C347 C348 1.405 . S
C347 C380 1.587 . S
C348 C347 1.405 . S
C348 C349 1.332 . S
C348 C351 1.496 . S
C349 C344 1.418 . S
C349 C348 1.332 . S
C349 H407 0.929 . S
C350 C346 1.527 . S
C350 H408 0.959 . S
C350 H409 0.961 . S
C350 H410 0.961 . S
C351 C348 1.496 . S
C351 H411 0.960 . S
C351 H412 0.960 . S
C351 H413 0.961 . S
C352 C353 1.517 . S
C352 H415 0.961 . S
C352 H416 0.960 . S
C352 H417 0.959 . S
C353 C352 1.517 . S
C353 O401 1.468 . S
C353 H414 0.980 . S
C354 C355 1.349 . S
C354 C359 1.367 . S
C354 O401 1.408 . S
C355 C354 1.349 . S
C355 C356 1.407 . S
C355 H418 0.930 . S
C356 C355 1.407 . S
C356 C357 1.449 . S
C356 C360 1.535 . S
C357 C356 1.449 . S
C357 C358 1.384 . S
C357 C382 1.553 . S
C358 C357 1.384 . S
C358 C359 1.364 . S
C358 C361 1.450 . S
C359 C354 1.367 . S
C359 C358 1.364 . S
C359 H419 0.931 . S
C360 C356 1.535 . S
C360 H420 0.959 . S
C360 H421 0.961 . S
C360 H422 0.959 . S
C361 C358 1.450 . S
C361 H423 0.960 . S
C361 H424 0.960 . S
C361 H425 0.960 . S
C362 C363 1.309 . S
C362 C367 1.304 . S
C362 O400 1.435 . S
C363 C362 1.309 . S
C363 C364 1.476 . S
C363 H427 0.930 . S
C364 C363 1.476 . S
C364 C365 1.400 . S
C364 C368 1.567 . S
C365 C364 1.400 . S
C365 C366 1.373 . S
C365 C387 1.432 . S
C366 C365 1.373 . S
C366 C367 1.339 . S
C366 C369 1.530 . S
C367 C362 1.304 . S
C367 C366 1.339 . S
C367 H428 0.930 . S
C368 C364 1.567 . S
C368 H429 0.961 . S
C368 H430 0.960 . S
C368 H431 0.958 . S
C369 C366 1.530 . S
C369 H432 0.961 . S
C369 H433 0.960 . S
C369 H434 0.960 . S
C370 C371 1.530 . S
C370 H436 0.961 . S
C370 H437 0.961 . S
C370 H438 0.959 . S
C371 C370 1.530 . S
C371 O399 1.412 . S
C371 H435 0.980 . S
C372 C373 1.288 . S
C372 C377 1.377 . S
C372 O399 1.393 . S
C373 C372 1.288 . S
C373 C374 1.369 . S
C373 H439 0.932 . S
C374 C373 1.369 . S
C374 C375 1.398 . S
C374 C378 1.527 . S
C375 C374 1.398 . S
C375 C376 1.380 . S
C375 C389 1.497 . S
C376 C375 1.380 . S
C376 C377 1.383 . S
C376 C379 1.603 . S
C377 C372 1.377 . S
C377 C376 1.383 . S
C377 H440 0.929 . S
C378 C374 1.527 . S
C378 H441 0.961 . S
C378 H442 0.959 . S
C378 H443 0.959 . S
C379 C376 1.603 . S
C379 H444 0.960 . S
C379 H445 0.962 . S
C379 H446 0.961 . S
C380 C347 1.587 . S
C380 C381 1.360 . S
C380 C393 1.412 . S
C381 C380 1.360 . S
C381 C382 1.365 . S
C381 H447 0.929 . S
C382 C357 1.553 . S
C382 C381 1.365 . S
C382 C383 1.404 . S
C383 C382 1.404 . S
C383 C384 1.395 . S
C383 C394 1.451 . S
C384 C383 1.395 . S
C384 C385 1.322 . S
C384 H448 0.930 . S
C385 C384 1.322 . S
C385 C386 1.459 . S
C385 H449 0.929 . S
C386 C385 1.459 . S
C386 C387 1.445 . S
C386 C395 1.395 . S
C387 C365 1.432 . S
C387 C386 1.445 . S
C387 C388 1.370 . S
C388 C387 1.370 . S
C388 C389 1.438 . S
C388 H450 0.930 . S
C389 C375 1.497 . S
C389 C388 1.438 . S
C389 C390 1.360 . S
C390 C389 1.360 . S
C390 C391 1.401 . S
C390 C395 1.446 . S
C391 C390 1.401 . S
C391 C392 1.347 . S
C391 H451 0.929 . S
C392 C391 1.347 . S
C392 C393 1.455 . S
C392 H452 0.930 . S
C393 C380 1.412 . S
C393 C392 1.455 . S
C393 C394 1.331 . S
C394 C383 1.451 . S
C394 C393 1.331 . S
C394 C395 1.497 . S
C395 C386 1.395 . S
C395 C390 1.446 . S
C395 C394 1.497 . S
C396 C397 1.582 . S
C396 H453 0.962 . S
C396 H454 0.959 . S
C396 H455 0.958 . S
C397 C396 1.582 . S
C397 O400 1.458 . S
C397 H426 0.980 . S
O398 C343 1.426 . S
O398 C344 1.334 . S
O399 C371 1.412 . S
O399 C372 1.393 . S
O400 C362 1.435 . S
O400 C397 1.458 . S
O401 C353 1.468 . S
O401 C354 1.408 . S
H402 C343 0.980 . S
H403 C342 0.959 . S
H404 C342 0.959 . S
H405 C342 0.960 . S
H406 C345 0.929 . S
H407 C349 0.929 . S
H408 C350 0.959 . S
H409 C350 0.961 . S
H410 C350 0.961 . S
H411 C351 0.960 . S
H412 C351 0.960 . S
H413 C351 0.961 . S
H414 C353 0.980 . S
H415 C352 0.961 . S
H416 C352 0.960 . S
H417 C352 0.959 . S
H418 C355 0.930 . S
H419 C359 0.931 . S
H420 C360 0.959 . S
H421 C360 0.961 . S
H422 C360 0.959 . S
H423 C361 0.960 . S
H424 C361 0.960 . S
H425 C361 0.960 . S
H426 C397 0.980 . S
H427 C363 0.930 . S
H428 C367 0.930 . S
H429 C368 0.961 . S
H430 C368 0.960 . S
H431 C368 0.958 . S
H432 C369 0.961 . S
H433 C369 0.960 . S
H434 C369 0.960 . S
H435 C371 0.980 . S
H436 C370 0.961 . S
H437 C370 0.961 . S
H438 C370 0.959 . S
H439 C373 0.932 . S
H440 C377 0.929 . S
H441 C378 0.961 . S
H442 C378 0.959 . S
H443 C378 0.959 . S
H444 C379 0.960 . S
H445 C379 0.962 . S
H446 C379 0.961 . S
H447 C381 0.929 . S
H448 C384 0.930 . S
H449 C385 0.929 . S
H450 C388 0.930 . S
H451 C391 0.929 . S
H452 C392 0.930 . S
H453 C396 0.962 . S
H454 C396 0.959 . S
H455 C396 0.958 . S
C456 C457 1.560 . S
C456 H517 0.959 . S
C456 H518 0.959 . S
C456 H519 0.960 . S
C457 C456 1.560 . S
C457 O512 1.426 . S
C457 H516 0.980 . S
C458 C459 1.407 . S
C458 C463 1.418 . S
C458 O512 1.334 . S
C459 C458 1.407 . S
C459 C460 1.360 . S
C459 H520 0.929 . S
C460 C459 1.360 . S
C460 C461 1.401 . S
C460 C464 1.527 . S
C461 C460 1.401 . S
C461 C462 1.405 . S
C461 C494 1.587 . S
C462 C461 1.405 . S
C462 C463 1.332 . S
C462 C465 1.496 . S
C463 C458 1.418 . S
C463 C462 1.332 . S
C463 H521 0.929 . S
C464 C460 1.527 . S
C464 H522 0.959 . S
C464 H523 0.961 . S
C464 H524 0.961 . S
C465 C462 1.496 . S
C465 H525 0.960 . S
C465 H526 0.960 . S
C465 H527 0.961 . S
C466 C467 1.517 . S
C466 H529 0.961 . S
C466 H530 0.960 . S
C466 H531 0.959 . S
C467 C466 1.517 . S
C467 O515 1.468 . S
C467 H528 0.980 . S
C468 C469 1.349 . S
C468 C473 1.367 . S
C468 O515 1.408 . S
C469 C468 1.349 . S
C469 C470 1.407 . S
C469 H532 0.930 . S
C470 C469 1.407 . S
C470 C471 1.449 . S
C470 C474 1.535 . S
C471 C470 1.449 . S
C471 C472 1.384 . S
C471 C496 1.553 . S
C472 C471 1.384 . S
C472 C473 1.364 . S
C472 C475 1.450 . S
C473 C468 1.367 . S
C473 C472 1.364 . S
C473 H533 0.931 . S
C474 C470 1.535 . S
C474 H534 0.959 . S
C474 H535 0.961 . S
C474 H536 0.959 . S
C475 C472 1.450 . S
C475 H537 0.960 . S
C475 H538 0.960 . S
C475 H539 0.960 . S
C476 C477 1.309 . S
C476 C481 1.304 . S
C476 O514 1.435 . S
C477 C476 1.309 . S
C477 C478 1.476 . S
C477 H541 0.930 . S
C478 C477 1.476 . S
C478 C479 1.400 . S
C478 C482 1.567 . S
C479 C478 1.400 . S
C479 C480 1.373 . S
C479 C501 1.432 . S
C480 C479 1.373 . S
C480 C481 1.339 . S
C480 C483 1.530 . S
C481 C476 1.304 . S
C481 C480 1.339 . S
C481 H542 0.930 . S
C482 C478 1.567 . S
C482 H543 0.961 . S
C482 H544 0.960 . S
C482 H545 0.958 . S
C483 C480 1.530 . S
C483 H546 0.961 . S
C483 H547 0.960 . S
C483 H548 0.960 . S
C484 C485 1.530 . S
C484 H550 0.961 . S
C484 H551 0.961 . S
C484 H552 0.959 . S
C485 C484 1.530 . S
C485 O513 1.412 . S
C485 H549 0.980 . S
C486 C487 1.288 . S
C486 C491 1.377 . S
C486 O513 1.393 . S
C487 C486 1.288 . S
C487 C488 1.369 . S
C487 H553 0.932 . S
C488 C487 1.369 . S
C488 C489 1.398 . S
C488 C492 1.527 . S
C489 C488 1.398 . S
C489 C490 1.380 . S
C489 C503 1.497 . S
C490 C489 1.380 . S
C490 C491 1.383 . S
C490 C493 1.603 . S
C491 C486 1.377 . S
C491 C490 1.383 . S
C491 H554 0.929 . S
C492 C488 1.527 . S
C492 H555 0.961 . S
C492 H556 0.959 . S
C492 H557 0.959 . S
C493 C490 1.603 . S
C493 H558 0.960 . S
C493 H559 0.962 . S
C493 H560 0.961 . S
C494 C461 1.587 . S
C494 C495 1.360 . S
C494 C507 1.412 . S
C495 C494 1.360 . S
C495 C496 1.365 . S
C495 H561 0.929 . S
C496 C471 1.553 . S
C496 C495 1.365 . S
C496 C497 1.404 . S
C497 C496 1.404 . S
C497 C498 1.395 . S
C497 C508 1.451 . S
C498 C497 1.395 . S
C498 C499 1.322 . S
C498 H562 0.930 . S
C499 C498 1.322 . S
C499 C500 1.459 . S
C499 H563 0.929 . S
C500 C499 1.459 . S
C500 C501 1.445 . S
C500 C509 1.395 . S
C501 C479 1.432 . S
C501 C500 1.445 . S
C501 C502 1.370 . S
C502 C501 1.370 . S
C502 C503 1.438 . S
C502 H564 0.930 . S
C503 C489 1.497 . S
C503 C502 1.438 . S
C503 C504 1.360 . S
C504 C503 1.360 . S
C504 C505 1.401 . S
C504 C509 1.446 . S
C505 C504 1.401 . S
C505 C506 1.347 . S
C505 H565 0.929 . S
C506 C505 1.347 . S
C506 C507 1.455 . S
C506 H566 0.930 . S
C507 C494 1.412 . S
C507 C506 1.455 . S
C507 C508 1.331 . S
C508 C497 1.451 . S
C508 C507 1.331 . S
C508 C509 1.497 . S
C509 C500 1.395 . S
C509 C504 1.446 . S
C509 C508 1.497 . S
C510 C511 1.582 . S
C510 H567 0.962 . S
C510 H568 0.959 . S
C510 H569 0.958 . S
C511 C510 1.582 . S
C511 O514 1.458 . S
C511 H540 0.980 . S
O512 C457 1.426 . S
O512 C458 1.334 . S
O513 C485 1.412 . S
O513 C486 1.393 . S
O514 C476 1.435 . S
O514 C511 1.458 . S
O515 C467 1.468 . S
O515 C468 1.408 . S
H516 C457 0.980 . S
H517 C456 0.959 . S
H518 C456 0.959 . S
H519 C456 0.960 . S
H520 C459 0.929 . S
H521 C463 0.929 . S
H522 C464 0.959 . S
H523 C464 0.961 . S
H524 C464 0.961 . S
H525 C465 0.960 . S
H526 C465 0.960 . S
H527 C465 0.961 . S
H528 C467 0.980 . S
H529 C466 0.961 . S
H530 C466 0.960 . S
H531 C466 0.959 . S
H532 C469 0.930 . S
H533 C473 0.931 . S
H534 C474 0.959 . S
H535 C474 0.961 . S
H536 C474 0.959 . S
H537 C475 0.960 . S
H538 C475 0.960 . S
H539 C475 0.960 . S
H540 C511 0.980 . S
H541 C477 0.930 . S
H542 C481 0.930 . S
H543 C482 0.961 . S
H544 C482 0.960 . S
H545 C482 0.958 . S
H546 C483 0.961 . S
H547 C483 0.960 . S
H548 C483 0.960 . S
H549 C485 0.980 . S
H550 C484 0.961 . S
H551 C484 0.961 . S
H552 C484 0.959 . S
H553 C487 0.932 . S
H554 C491 0.929 . S
H555 C492 0.961 . S
H556 C492 0.959 . S
H557 C492 0.959 . S
H558 C493 0.960 . S
H559 C493 0.962 . S
H560 C493 0.961 . S
H561 C495 0.929 . S
H562 C498 0.930 . S
H563 C499 0.929 . S
H564 C502 0.930 . S
H565 C505 0.929 . S
H566 C506 0.930 . S
H567 C510 0.962 . S
H568 C510 0.959 . S
H569 C510 0.958 . S
C570 C571 1.560 . S
C570 H631 0.959 . S
C570 H632 0.959 . S
C570 H633 0.960 . S
C571 C570 1.560 . S
C571 O626 1.426 . S
C571 H630 0.980 . S
C572 C573 1.407 . S
C572 C577 1.418 . S
C572 O626 1.334 . S
C573 C572 1.407 . S
C573 C574 1.360 . S
C573 H634 0.929 . S
C574 C573 1.360 . S
C574 C575 1.401 . S
C574 C578 1.527 . S
C575 C574 1.401 . S
C575 C576 1.405 . S
C575 C608 1.587 . S
C576 C575 1.405 . S
C576 C577 1.332 . S
C576 C579 1.496 . S
C577 C572 1.418 . S
C577 C576 1.332 . S
C577 H635 0.929 . S
C578 C574 1.527 . S
C578 H636 0.959 . S
C578 H637 0.961 . S
C578 H638 0.961 . S
C579 C576 1.496 . S
C579 H639 0.960 . S
C579 H640 0.960 . S
C579 H641 0.961 . S
C580 C581 1.517 . S
C580 H643 0.961 . S
C580 H644 0.960 . S
C580 H645 0.959 . S
C581 C580 1.517 . S
C581 O629 1.468 . S
C581 H642 0.980 . S
C582 C583 1.349 . S
C582 C587 1.367 . S
C582 O629 1.408 . S
C583 C582 1.349 . S
C583 C584 1.407 . S
C583 H646 0.930 . S
C584 C583 1.407 . S
C584 C585 1.449 . S
C584 C588 1.535 . S
C585 C584 1.449 . S
C585 C586 1.384 . S
C585 C610 1.553 . S
C586 C585 1.384 . S
C586 C587 1.364 . S
C586 C589 1.450 . S
C587 C582 1.367 . S
C587 C586 1.364 . S
C587 H647 0.931 . S
C588 C584 1.535 . S
C588 H648 0.959 . S
C588 H649 0.961 . S
C588 H650 0.959 . S
C589 C586 1.450 . S
C589 H651 0.960 . S
C589 H652 0.960 . S
C589 H653 0.960 . S
C590 C591 1.309 . S
C590 C595 1.304 . S
C590 O628 1.435 . S
C591 C590 1.309 . S
C591 C592 1.476 . S
C591 H655 0.930 . S
C592 C591 1.476 . S
C592 C593 1.400 . S
C592 C596 1.567 . S
C593 C592 1.400 . S
C593 C594 1.373 . S
C593 C615 1.432 . S
C594 C593 1.373 . S
C594 C595 1.339 . S
C594 C597 1.530 . S
C595 C590 1.304 . S
C595 C594 1.339 . S
C595 H656 0.930 . S
C596 C592 1.567 . S
C596 H657 0.961 . S
C596 H658 0.960 . S
C596 H659 0.958 . S
C597 C594 1.530 . S
C597 H660 0.961 . S
C597 H661 0.960 . S
C597 H662 0.960 . S
C598 C599 1.530 . S
C598 H664 0.961 . S
C598 H665 0.961 . S
C598 H666 0.959 . S
C599 C598 1.530 . S
C599 O627 1.412 . S
C599 H663 0.980 . S
C600 C601 1.288 . S
C600 C605 1.377 . S
C600 O627 1.393 . S
C601 C600 1.288 . S
C601 C602 1.369 . S
C601 H667 0.932 . S
C602 C601 1.369 . S
C602 C603 1.398 . S
C602 C606 1.527 . S
C603 C602 1.398 . S
C603 C604 1.380 . S
C603 C617 1.497 . S
C604 C603 1.380 . S
C604 C605 1.383 . S
C604 C607 1.603 . S
C605 C600 1.377 . S
C605 C604 1.383 . S
C605 H668 0.929 . S
C606 C602 1.527 . S
C606 H669 0.961 . S
C606 H670 0.959 . S
C606 H671 0.959 . S
C607 C604 1.603 . S
C607 H672 0.960 . S
C607 H673 0.962 . S
C607 H674 0.961 . S
C608 C575 1.587 . S
C608 C609 1.360 . S
C608 C621 1.412 . S
C609 C608 1.360 . S
C609 C610 1.365 . S
C609 H675 0.929 . S
C610 C585 1.553 . S
C610 C609 1.365 . S
C610 C611 1.404 . S
C611 C610 1.404 . S
C611 C612 1.395 . S
C611 C622 1.451 . S
C612 C611 1.395 . S
C612 C613 1.322 . S
C612 H676 0.930 . S
C613 C612 1.322 . S
C613 C614 1.459 . S
C613 H677 0.929 . S
C614 C613 1.459 . S
C614 C615 1.445 . S
C614 C623 1.395 . S
C615 C593 1.432 . S
C615 C614 1.445 . S
C615 C616 1.370 . S
C616 C615 1.370 . S
C616 C617 1.438 . S
C616 H678 0.930 . S
C617 C603 1.497 . S
C617 C616 1.438 . S
C617 C618 1.360 . S
C618 C617 1.360 . S
C618 C619 1.401 . S
C618 C623 1.446 . S
C619 C618 1.401 . S
C619 C620 1.347 . S
C619 H679 0.929 . S
C620 C619 1.347 . S
C620 C621 1.455 . S
C620 H680 0.930 . S
C621 C608 1.412 . S
C621 C620 1.455 . S
C621 C622 1.331 . S
C622 C611 1.451 . S
C622 C621 1.331 . S
C622 C623 1.497 . S
C623 C614 1.395 . S
C623 C618 1.446 . S
C623 C622 1.497 . S
C624 C625 1.582 . S
C624 H681 0.962 . S
C624 H682 0.959 . S
C624 H683 0.958 . S
C625 C624 1.582 . S
C625 O628 1.458 . S
C625 H654 0.980 . S
O626 C571 1.426 . S
O626 C572 1.334 . S
O627 C599 1.412 . S
O627 C600 1.393 . S
O628 C590 1.435 . S
O628 C625 1.458 . S
O629 C581 1.468 . S
O629 C582 1.408 . S
H630 C571 0.980 . S
H631 C570 0.959 . S
H632 C570 0.959 . S
H633 C570 0.960 . S
H634 C573 0.929 . S
H635 C577 0.929 . S
H636 C578 0.959 . S
H637 C578 0.961 . S
H638 C578 0.961 . S
H639 C579 0.960 . S
H640 C579 0.960 . S
H641 C579 0.961 . S
H642 C581 0.980 . S
H643 C580 0.961 . S
H644 C580 0.960 . S
H645 C580 0.959 . S
H646 C583 0.930 . S
H647 C587 0.931 . S
H648 C588 0.959 . S
H649 C588 0.961 . S
H650 C588 0.959 . S
H651 C589 0.960 . S
H652 C589 0.960 . S
H653 C589 0.960 . S
H654 C625 0.980 . S
H655 C591 0.930 . S
H656 C595 0.930 . S
H657 C596 0.961 . S
H658 C596 0.960 . S
H659 C596 0.958 . S
H660 C597 0.961 . S
H661 C597 0.960 . S
H662 C597 0.960 . S
H663 C599 0.980 . S
H664 C598 0.961 . S
H665 C598 0.961 . S
H666 C598 0.959 . S
H667 C601 0.932 . S
H668 C605 0.929 . S
H669 C606 0.961 . S
H670 C606 0.959 . S
H671 C606 0.959 . S
H672 C607 0.960 . S
H673 C607 0.962 . S
H674 C607 0.961 . S
H675 C609 0.929 . S
H676 C612 0.930 . S
H677 C613 0.929 . S
H678 C616 0.930 . S
H679 C619 0.929 . S
H680 C620 0.930 . S
H681 C624 0.962 . S
H682 C624 0.959 . S
H683 C624 0.958 . S
C684 C685 1.560 . S
C684 H745 0.959 . S
C684 H746 0.959 . S
C684 H747 0.960 . S
C685 C684 1.560 . S
C685 O740 1.426 . S
C685 H744 0.980 . S
C686 C687 1.407 . S
C686 C691 1.418 . S
C686 O740 1.334 . S
C687 C686 1.407 . S
C687 C688 1.360 . S
C687 H748 0.929 . S
C688 C687 1.360 . S
C688 C689 1.401 . S
C688 C692 1.527 . S
C689 C688 1.401 . S
C689 C690 1.405 . S
C689 C722 1.587 . S
C690 C689 1.405 . S
C690 C691 1.332 . S
C690 C693 1.496 . S
C691 C686 1.418 . S
C691 C690 1.332 . S
C691 H749 0.929 . S
C692 C688 1.527 . S
C692 H750 0.959 . S
C692 H751 0.961 . S
C692 H752 0.961 . S
C693 C690 1.496 . S
C693 H753 0.960 . S
C693 H754 0.960 . S
C693 H755 0.961 . S
C694 C695 1.517 . S
C694 H757 0.961 . S
C694 H758 0.960 . S
C694 H759 0.959 . S
C695 C694 1.517 . S
C695 O743 1.468 . S
C695 H756 0.980 . S
C696 C697 1.349 . S
C696 C701 1.367 . S
C696 O743 1.408 . S
C697 C696 1.349 . S
C697 C698 1.407 . S
C697 H760 0.930 . S
C698 C697 1.407 . S
C698 C699 1.449 . S
C698 C702 1.535 . S
C699 C698 1.449 . S
C699 C700 1.384 . S
C699 C724 1.553 . S
C700 C699 1.384 . S
C700 C701 1.364 . S
C700 C703 1.450 . S
C701 C696 1.367 . S
C701 C700 1.364 . S
C701 H761 0.931 . S
C702 C698 1.535 . S
C702 H762 0.959 . S
C702 H763 0.961 . S
C702 H764 0.959 . S
C703 C700 1.450 . S
C703 H765 0.960 . S
C703 H766 0.960 . S
C703 H767 0.960 . S
C704 C705 1.309 . S
C704 C709 1.304 . S
C704 O742 1.435 . S
C705 C704 1.309 . S
C705 C706 1.476 . S
C705 H769 0.930 . S
C706 C705 1.476 . S
C706 C707 1.400 . S
C706 C710 1.567 . S
C707 C706 1.400 . S
C707 C708 1.373 . S
C707 C729 1.432 . S
C708 C707 1.373 . S
C708 C709 1.339 . S
C708 C711 1.530 . S
C709 C704 1.304 . S
C709 C708 1.339 . S
C709 H770 0.930 . S
C710 C706 1.567 . S
C710 H771 0.961 . S
C710 H772 0.960 . S
C710 H773 0.958 . S
C711 C708 1.530 . S
C711 H774 0.961 . S
C711 H775 0.960 . S
C711 H776 0.960 . S
C712 C713 1.530 . S
C712 H778 0.961 . S
C712 H779 0.961 . S
C712 H780 0.959 . S
C713 C712 1.530 . S
C713 O741 1.412 . S
C713 H777 0.980 . S
C714 C715 1.288 . S
C714 C719 1.377 . S
C714 O741 1.393 . S
C715 C714 1.288 . S
C715 C716 1.369 . S
C715 H781 0.932 . S
C716 C715 1.369 . S
C716 C717 1.398 . S
C716 C720 1.527 . S
C717 C716 1.398 . S
C717 C718 1.380 . S
C717 C731 1.497 . S
C718 C717 1.380 . S
C718 C719 1.383 . S
C718 C721 1.603 . S
C719 C714 1.377 . S
C719 C718 1.383 . S
C719 H782 0.929 . S
C720 C716 1.527 . S
C720 H783 0.961 . S
C720 H784 0.959 . S
C720 H785 0.959 . S
C721 C718 1.603 . S
C721 H786 0.960 . S
C721 H787 0.962 . S
C721 H788 0.961 . S
C722 C689 1.587 . S
C722 C723 1.360 . S
C722 C735 1.412 . S
C723 C722 1.360 . S
C723 C724 1.365 . S
C723 H789 0.929 . S
C724 C699 1.553 . S
C724 C723 1.365 . S
C724 C725 1.404 . S
C725 C724 1.404 . S
C725 C726 1.395 . S
C725 C736 1.451 . S
C726 C725 1.395 . S
C726 C727 1.322 . S
C726 H790 0.930 . S
C727 C726 1.322 . S
C727 C728 1.459 . S
C727 H791 0.929 . S
C728 C727 1.459 . S
C728 C729 1.445 . S
C728 C737 1.395 . S
C729 C707 1.432 . S
C729 C728 1.445 . S
C729 C730 1.370 . S
C730 C729 1.370 . S
C730 C731 1.438 . S
C730 H792 0.930 . S
C731 C717 1.497 . S
C731 C730 1.438 . S
C731 C732 1.360 . S
C732 C731 1.360 . S
C732 C733 1.401 . S
C732 C737 1.446 . S
C733 C732 1.401 . S
C733 C734 1.347 . S
C733 H793 0.929 . S
C734 C733 1.347 . S
C734 C735 1.455 . S
C734 H794 0.930 . S
C735 C722 1.412 . S
C735 C734 1.455 . S
C735 C736 1.331 . S
C736 C725 1.451 . S
C736 C735 1.331 . S
C736 C737 1.497 . S
C737 C728 1.395 . S
C737 C732 1.446 . S
C737 C736 1.497 . S
C738 C739 1.582 . S
C738 H795 0.962 . S
C738 H796 0.959 . S
C738 H797 0.958 . S
C739 C738 1.582 . S
C739 O742 1.458 . S
C739 H768 0.980 . S
O740 C685 1.426 . S
O740 C686 1.334 . S
O741 C713 1.412 . S
O741 C714 1.393 . S
O742 C704 1.435 . S
O742 C739 1.458 . S
O743 C695 1.468 . S
O743 C696 1.408 . S
H744 C685 0.980 . S
H745 C684 0.959 . S
H746 C684 0.959 . S
H747 C684 0.960 . S
H748 C687 0.929 . S
H749 C691 0.929 . S
H750 C692 0.959 . S
H751 C692 0.961 . S
H752 C692 0.961 . S
H753 C693 0.960 . S
H754 C693 0.960 . S
H755 C693 0.961 . S
H756 C695 0.980 . S
H757 C694 0.961 . S
H758 C694 0.960 . S
H759 C694 0.959 . S
H760 C697 0.930 . S
H761 C701 0.931 . S
H762 C702 0.959 . S
H763 C702 0.961 . S
H764 C702 0.959 . S
H765 C703 0.960 . S
H766 C703 0.960 . S
H767 C703 0.960 . S
H768 C739 0.980 . S
H769 C705 0.930 . S
H770 C709 0.930 . S
H771 C710 0.961 . S
H772 C710 0.960 . S
H773 C710 0.958 . S
H774 C711 0.961 . S
H775 C711 0.960 . S
H776 C711 0.960 . S
H777 C713 0.980 . S
H778 C712 0.961 . S
H779 C712 0.961 . S
H780 C712 0.959 . S
H781 C715 0.932 . S
H782 C719 0.929 . S
H783 C720 0.961 . S
H784 C720 0.959 . S
H785 C720 0.959 . S
H786 C721 0.960 . S
H787 C721 0.962 . S
H788 C721 0.961 . S
H789 C723 0.929 . S
H790 C726 0.930 . S
H791 C727 0.929 . S
H792 C730 0.930 . S
H793 C733 0.929 . S
H794 C734 0.930 . S
H795 C738 0.962 . S
H796 C738 0.959 . S
H797 C738 0.958 . S
C798 C799 1.560 . S
C798 H859 0.959 . S
C798 H860 0.959 . S
C798 H861 0.960 . S
C799 C798 1.560 . S
C799 O854 1.426 . S
C799 H858 0.980 . S
C800 C801 1.407 . S
C800 C805 1.418 . S
C800 O854 1.334 . S
C801 C800 1.407 . S
C801 C802 1.360 . S
C801 H862 0.929 . S
C802 C801 1.360 . S
C802 C803 1.401 . S
C802 C806 1.527 . S
C803 C802 1.401 . S
C803 C804 1.405 . S
C803 C836 1.587 . S
C804 C803 1.405 . S
C804 C805 1.332 . S
C804 C807 1.496 . S
C805 C800 1.418 . S
C805 C804 1.332 . S
C805 H863 0.929 . S
C806 C802 1.527 . S
C806 H864 0.959 . S
C806 H865 0.961 . S
C806 H866 0.961 . S
C807 C804 1.496 . S
C807 H867 0.960 . S
C807 H868 0.960 . S
C807 H869 0.961 . S
C808 C809 1.517 . S
C808 H871 0.961 . S
C808 H872 0.960 . S
C808 H873 0.959 . S
C809 C808 1.517 . S
C809 O857 1.468 . S
C809 H870 0.980 . S
C810 C811 1.349 . S
C810 C815 1.367 . S
C810 O857 1.408 . S
C811 C810 1.349 . S
C811 C812 1.407 . S
C811 H874 0.930 . S
C812 C811 1.407 . S
C812 C813 1.449 . S
C812 C816 1.535 . S
C813 C812 1.449 . S
C813 C814 1.384 . S
C813 C838 1.553 . S
C814 C813 1.384 . S
C814 C815 1.364 . S
C814 C817 1.450 . S
C815 C810 1.367 . S
C815 C814 1.364 . S
C815 H875 0.931 . S
C816 C812 1.535 . S
C816 H876 0.959 . S
C816 H877 0.961 . S
C816 H878 0.959 . S
C817 C814 1.450 . S
C817 H879 0.960 . S
C817 H880 0.960 . S
C817 H881 0.960 . S
C818 C819 1.309 . S
C818 C823 1.304 . S
C818 O856 1.435 . S
C819 C818 1.309 . S
C819 C820 1.476 . S
C819 H883 0.930 . S
C820 C819 1.476 . S
C820 C821 1.400 . S
C820 C824 1.567 . S
C821 C820 1.400 . S
C821 C822 1.373 . S
C821 C843 1.432 . S
C822 C821 1.373 . S
C822 C823 1.339 . S
C822 C825 1.530 . S
C823 C818 1.304 . S
C823 C822 1.339 . S
C823 H884 0.930 . S
C824 C820 1.567 . S
C824 H885 0.961 . S
C824 H886 0.960 . S
C824 H887 0.958 . S
C825 C822 1.530 . S
C825 H888 0.961 . S
C825 H889 0.960 . S
C825 H890 0.960 . S
C826 C827 1.530 . S
C826 H892 0.961 . S
C826 H893 0.961 . S
C826 H894 0.959 . S
C827 C826 1.530 . S
C827 O855 1.412 . S
C827 H891 0.980 . S
C828 C829 1.288 . S
C828 C833 1.377 . S
C828 O855 1.393 . S
C829 C828 1.288 . S
C829 C830 1.369 . S
C829 H895 0.932 . S
C830 C829 1.369 . S
C830 C831 1.398 . S
C830 C834 1.527 . S
C831 C830 1.398 . S
C831 C832 1.380 . S
C831 C845 1.497 . S
C832 C831 1.380 . S
C832 C833 1.383 . S
C832 C835 1.603 . S
C833 C828 1.377 . S
C833 C832 1.383 . S
C833 H896 0.929 . S
C834 C830 1.527 . S
C834 H897 0.961 . S
C834 H898 0.959 . S
C834 H899 0.959 . S
C835 C832 1.603 . S
C835 H900 0.960 . S
C835 H901 0.962 . S
C835 H902 0.961 . S
C836 C803 1.587 . S
C836 C837 1.360 . S
C836 C849 1.412 . S
C837 C836 1.360 . S
C837 C838 1.365 . S
C837 H903 0.929 . S
C838 C813 1.553 . S
C838 C837 1.365 . S
C838 C839 1.404 . S
C839 C838 1.404 . S
C839 C840 1.395 . S
C839 C850 1.451 . S
C840 C839 1.395 . S
C840 C841 1.322 . S
C840 H904 0.930 . S
C841 C840 1.322 . S
C841 C842 1.459 . S
C841 H905 0.929 . S
C842 C841 1.459 . S
C842 C843 1.445 . S
C842 C851 1.395 . S
C843 C821 1.432 . S
C843 C842 1.445 . S
C843 C844 1.370 . S
C844 C843 1.370 . S
C844 C845 1.438 . S
C844 H906 0.930 . S
C845 C831 1.497 . S
C845 C844 1.438 . S
C845 C846 1.360 . S
C846 C845 1.360 . S
C846 C847 1.401 . S
C846 C851 1.446 . S
C847 C846 1.401 . S
C847 C848 1.347 . S
C847 H907 0.929 . S
C848 C847 1.347 . S
C848 C849 1.455 . S
C848 H908 0.930 . S
C849 C836 1.412 . S
C849 C848 1.455 . S
C849 C850 1.331 . S
C850 C839 1.451 . S
C850 C849 1.331 . S
C850 C851 1.497 . S
C851 C842 1.395 . S
C851 C846 1.446 . S
C851 C850 1.497 . S
C852 C853 1.582 . S
C852 H909 0.962 . S
C852 H910 0.959 . S
C852 H911 0.958 . S
C853 C852 1.582 . S
C853 O856 1.458 . S
C853 H882 0.980 . S
O854 C799 1.426 . S
O854 C800 1.334 . S
O855 C827 1.412 . S
O855 C828 1.393 . S
O856 C818 1.435 . S
O856 C853 1.458 . S
O857 C809 1.468 . S
O857 C810 1.408 . S
H858 C799 0.980 . S
H859 C798 0.959 . S
H860 C798 0.959 . S
H861 C798 0.960 . S
H862 C801 0.929 . S
H863 C805 0.929 . S
H864 C806 0.959 . S
H865 C806 0.961 . S
H866 C806 0.961 . S
H867 C807 0.960 . S
H868 C807 0.960 . S
H869 C807 0.961 . S
H870 C809 0.980 . S
H871 C808 0.961 . S
H872 C808 0.960 . S
H873 C808 0.959 . S
H874 C811 0.930 . S
H875 C815 0.931 . S
H876 C816 0.959 . S
H877 C816 0.961 . S
H878 C816 0.959 . S
H879 C817 0.960 . S
H880 C817 0.960 . S
H881 C817 0.960 . S
H882 C853 0.980 . S
H883 C819 0.930 . S
H884 C823 0.930 . S
H885 C824 0.961 . S
H886 C824 0.960 . S
H887 C824 0.958 . S
H888 C825 0.961 . S
H889 C825 0.960 . S
H890 C825 0.960 . S
H891 C827 0.980 . S
H892 C826 0.961 . S
H893 C826 0.961 . S
H894 C826 0.959 . S
H895 C829 0.932 . S
H896 C833 0.929 . S
H897 C834 0.961 . S
H898 C834 0.959 . S
H899 C834 0.959 . S
H900 C835 0.960 . S
H901 C835 0.962 . S
H902 C835 0.961 . S
H903 C837 0.929 . S
H904 C840 0.930 . S
H905 C841 0.929 . S
H906 C844 0.930 . S
H907 C847 0.929 . S
H908 C848 0.930 . S
H909 C852 0.962 . S
H910 C852 0.959 . S
H911 C852 0.958 . S
C912 C913 1.443 . S
C912 N916 1.376 . S
C912 C950 1.389 . S
C913 C912 1.443 . S
C913 C914 1.340 . S
C913 H953 0.951 . S
C914 C913 1.340 . S
C914 C915 1.439 . S
C914 H954 0.950 . S
C915 C914 1.439 . S
C915 N916 1.374 . S
C915 C949 1.395 . S
N916 C912 1.376 . S
N916 C915 1.374 . S
N916 Co917 2.008 . S
Co917 N916 2.008 . S
Co917 N918 1.995 1_455 S
Co917 N923 2.008 1_455 S
Co917 N928 1.995 . S
Co917 N933 2.282 1_455 S
Co917 N939 2.282 . S
N918 Co917 1.995 1_655 S
N918 C919 1.376 . S
N918 C922 1.383 . S
C919 N918 1.376 . S
C919 C920 1.446 . S
C919 C949 1.391 1_655 S
C920 C919 1.446 . S
C920 C921 1.339 . S
C920 H955 0.949 . S
C921 C920 1.339 . S
C921 C922 1.439 . S
C921 H956 0.950 . S
C922 N918 1.383 . S
C922 C921 1.439 . S
C922 C951 1.392 . S
N923 Co917 2.008 1_655 S
N923 C924 1.376 . S
N923 C927 1.374 . S
C924 N923 1.376 . S
C924 C925 1.443 . S
C924 C951 1.389 . S
C925 C924 1.443 . S
C925 C926 1.340 . S
C925 H957 0.951 . S
C926 C925 1.340 . S
C926 C927 1.439 . S
C926 H958 0.950 . S
C927 N923 1.374 . S
C927 C926 1.439 . S
C927 C952 1.395 1_655 S
N928 Co917 1.995 . S
N928 C929 1.376 . S
N928 C932 1.383 . S
C929 N928 1.376 . S
C929 C930 1.446 . S
C929 C952 1.391 . S
C930 C929 1.446 . S
C930 C931 1.339 . S
C930 H959 0.949 . S
C931 C930 1.339 . S
C931 C932 1.439 . S
C931 H960 0.950 . S
C932 N928 1.383 . S
C932 C931 1.439 . S
C932 C950 1.392 . S
N933 Co917 2.282 1_655 S
N933 C936 1.332 . S
N933 C938 1.332 . S
C934 C935 1.386 . S
C934 C937 1.388 . S
C935 C934 1.386 . S
C935 C936 1.382 . S
C935 H961 0.950 . S
C936 N933 1.332 . S
C936 C935 1.382 . S
C936 H947 0.952 . S
C937 C934 1.388 . S
C937 C938 1.382 . S
C937 H962 0.950 . S
C938 N933 1.332 . S
C938 C937 1.382 . S
C938 H948 0.948 . S
N939 Co917 2.282 . S
N939 C943 1.332 . S
N939 C944 1.332 . S
C940 C941 1.388 . S
C940 C944 1.382 . S
C940 H963 0.950 . S
C941 C940 1.388 . S
C941 C942 1.386 . S
C942 C941 1.386 . S
C942 C943 1.382 . S
C942 H964 0.950 . S
C943 N939 1.332 . S
C943 C942 1.382 . S
C943 H945 0.952 . S
C944 N939 1.332 . S
C944 C940 1.382 . S
C944 H946 0.948 . S
H945 C943 0.952 . S
H946 C944 0.948 . S
H947 C936 0.952 . S
H948 C938 0.948 . S
C949 C915 1.395 . S
C949 C919 1.391 1_455 S
C950 C912 1.389 . S
C950 C932 1.392 . S
C951 C922 1.392 . S
C951 C924 1.389 . S
C952 C927 1.395 1_455 S
C952 C929 1.391 . S
H953 C913 0.951 . S
H954 C914 0.950 . S
H955 C920 0.949 . S
H956 C921 0.950 . S
H957 C925 0.951 . S
H958 C926 0.950 . S
H959 C930 0.949 . S
H960 C931 0.950 . S
H961 C935 0.950 . S
H962 C937 0.950 . S
H963 C940 0.950 . S
H964 C942 0.950 . S
C965 C966 1.443 . S
C965 N969 1.376 . S
C965 C1003 1.389 . S
C966 C965 1.443 . S
C966 C967 1.340 . S
C966 H1006 0.951 . S
C967 C966 1.340 . S
C967 C968 1.439 . S
C967 H1007 0.950 . S
C968 C967 1.439 . S
C968 N969 1.374 . S
C968 C1002 1.395 . S
N969 C965 1.376 . S
N969 C968 1.374 . S
N969 Co970 2.008 . S
Co970 N969 2.008 . S
Co970 N971 1.995 1_545 S
Co970 N976 2.008 1_545 S
Co970 N981 1.995 . S
Co970 N986 2.282 1_545 S
Co970 N992 2.282 . S
N971 Co970 1.995 1_565 S
N971 C972 1.376 . S
N971 C975 1.383 . S
C972 N971 1.376 . S
C972 C973 1.446 . S
C972 C1002 1.391 1_565 S
C973 C972 1.446 . S
C973 C974 1.339 . S
C973 H1008 0.949 . S
C974 C973 1.339 . S
C974 C975 1.439 . S
C974 H1009 0.950 . S
C975 N971 1.383 . S
C975 C974 1.439 . S
C975 C1004 1.392 . S
N976 Co970 2.008 1_565 S
N976 C977 1.376 . S
N976 C980 1.374 . S
C977 N976 1.376 . S
C977 C978 1.443 . S
C977 C1004 1.389 . S
C978 C977 1.443 . S
C978 C979 1.340 . S
C978 H1010 0.951 . S
C979 C978 1.340 . S
C979 C980 1.439 . S
C979 H1011 0.950 . S
C980 N976 1.374 . S
C980 C979 1.439 . S
C980 C1005 1.395 1_565 S
N981 Co970 1.995 . S
N981 C982 1.376 . S
N981 C985 1.383 . S
C982 N981 1.376 . S
C982 C983 1.446 . S
C982 C1005 1.391 . S
C983 C982 1.446 . S
C983 C984 1.339 . S
C983 H1012 0.949 . S
C984 C983 1.339 . S
C984 C985 1.439 . S
C984 H1013 0.950 . S
C985 N981 1.383 . S
C985 C984 1.439 . S
C985 C1003 1.392 . S
N986 Co970 2.282 1_565 S
N986 C989 1.332 . S
N986 C991 1.332 . S
C987 C988 1.386 . S
C987 C990 1.388 . S
C988 C987 1.386 . S
C988 C989 1.382 . S
C988 H1014 0.950 . S
C989 N986 1.332 . S
C989 C988 1.382 . S
C989 H1000 0.952 . S
C990 C987 1.388 . S
C990 C991 1.382 . S
C990 H1015 0.950 . S
C991 N986 1.332 . S
C991 C990 1.382 . S
C991 H1001 0.948 . S
N992 Co970 2.282 . S
N992 C996 1.332 . S
N992 C997 1.332 . S
C993 C994 1.388 . S
C993 C997 1.382 . S
C993 H1016 0.950 . S
C994 C993 1.388 . S
C994 C995 1.386 . S
C995 C994 1.386 . S
C995 C996 1.382 . S
C995 H1017 0.950 . S
C996 N992 1.332 . S
C996 C995 1.382 . S
C996 H998 0.952 . S
C997 N992 1.332 . S
C997 C993 1.382 . S
C997 H999 0.948 . S
H998 C996 0.952 . S
H999 C997 0.948 . S
H1000 C989 0.952 . S
H1001 C991 0.948 . S
C1002 C968 1.395 . S
C1002 C972 1.391 1_545 S
C1003 C965 1.389 . S
C1003 C985 1.392 . S
C1004 C975 1.392 . S
C1004 C977 1.389 . S
C1005 C980 1.395 1_545 S
C1005 C982 1.391 . S
H1006 C966 0.951 . S
H1007 C967 0.950 . S
H1008 C973 0.949 . S
H1009 C974 0.950 . S
H1010 C978 0.951 . S
H1011 C979 0.950 . S
H1012 C983 0.949 . S
H1013 C984 0.950 . S
H1014 C988 0.950 . S
H1015 C990 0.950 . S
H1016 C993 0.950 . S
H1017 C995 0.950 . S
C1018 C1019 1.443 . S
C1018 N1022 1.376 . S
C1018 C1056 1.389 . S
C1019 C1018 1.443 . S
C1019 C1020 1.340 . S
C1019 H1059 0.951 . S
C1020 C1019 1.340 . S
C1020 C1021 1.439 . S
C1020 H1060 0.950 . S
C1021 C1020 1.439 . S
C1021 N1022 1.374 . S
C1021 C1055 1.395 . S
N1022 C1018 1.376 . S
N1022 C1021 1.374 . S
N1022 Co1023 2.008 . S
Co1023 N1022 2.008 . S
Co1023 N1024 1.995 1_455 S
Co1023 N1029 2.008 1_455 S
Co1023 N1034 1.995 . S
Co1023 N1039 2.282 1_455 S
Co1023 N1045 2.282 . S
N1024 Co1023 1.995 1_655 S
N1024 C1025 1.376 . S
N1024 C1028 1.383 . S
C1025 N1024 1.376 . S
C1025 C1026 1.446 . S
C1025 C1055 1.391 1_655 S
C1026 C1025 1.446 . S
C1026 C1027 1.339 . S
C1026 H1061 0.949 . S
C1027 C1026 1.339 . S
C1027 C1028 1.439 . S
C1027 H1062 0.950 . S
C1028 N1024 1.383 . S
C1028 C1027 1.439 . S
C1028 C1057 1.392 . S
N1029 Co1023 2.008 1_655 S
N1029 C1030 1.376 . S
N1029 C1033 1.374 . S
C1030 N1029 1.376 . S
C1030 C1031 1.443 . S
C1030 C1057 1.389 . S
C1031 C1030 1.443 . S
C1031 C1032 1.340 . S
C1031 H1063 0.951 . S
C1032 C1031 1.340 . S
C1032 C1033 1.439 . S
C1032 H1064 0.950 . S
C1033 N1029 1.374 . S
C1033 C1032 1.439 . S
C1033 C1058 1.398 1_655 S
N1034 Co1023 1.995 . S
N1034 C1035 1.376 . S
N1034 C1038 1.383 . S
C1035 N1034 1.376 . S
C1035 C1036 1.446 . S
C1035 C1058 1.388 . S
C1036 C1035 1.446 . S
C1036 C1037 1.339 . S
C1036 H1065 0.949 . S
C1037 C1036 1.339 . S
C1037 C1038 1.439 . S
C1037 H1066 0.950 . S
C1038 N1034 1.383 . S
C1038 C1037 1.439 . S
C1038 C1056 1.392 . S
N1039 Co1023 2.282 1_655 S
N1039 C1042 1.332 . S
N1039 C1044 1.332 . S
C1040 C1041 1.386 . S
C1040 C1043 1.388 . S
C1041 C1040 1.386 . S
C1041 C1042 1.382 . S
C1041 H1067 0.950 . S
C1042 N1039 1.332 . S
C1042 C1041 1.382 . S
C1042 H1053 0.952 . S
C1043 C1040 1.388 . S
C1043 C1044 1.382 . S
C1043 H1068 0.950 . S
C1044 N1039 1.332 . S
C1044 C1043 1.382 . S
C1044 H1054 0.948 . S
N1045 Co1023 2.282 . S
N1045 C1049 1.332 . S
N1045 C1050 1.332 . S
C1046 C1047 1.388 . S
C1046 C1050 1.382 . S
C1046 H1069 0.950 . S
C1047 C1046 1.388 . S
C1047 C1048 1.386 . S
C1048 C1047 1.386 . S
C1048 C1049 1.382 . S
C1048 H1070 0.950 . S
C1049 N1045 1.332 . S
C1049 C1048 1.382 . S
C1049 H1051 0.952 . S
C1050 N1045 1.332 . S
C1050 C1046 1.382 . S
C1050 H1052 0.948 . S
H1051 C1049 0.952 . S
H1052 C1050 0.948 . S
H1053 C1042 0.952 . S
H1054 C1044 0.948 . S
C1055 C1021 1.395 . S
C1055 C1025 1.391 1_455 S
C1056 C1018 1.389 . S
C1056 C1038 1.392 . S
C1057 C1028 1.392 . S
C1057 C1030 1.389 . S
C1058 C1033 1.398 1_455 S
C1058 C1035 1.388 . S
H1059 C1019 0.951 . S
H1060 C1020 0.950 . S
H1061 C1026 0.949 . S
H1062 C1027 0.950 . S
H1063 C1031 0.951 . S
H1064 C1032 0.950 . S
H1065 C1036 0.949 . S
H1066 C1037 0.950 . S
H1067 C1041 0.950 . S
H1068 C1043 0.950 . S
H1069 C1046 0.950 . S
H1070 C1048 0.950 . S
C1071 C1072 1.443 . S
C1071 N1075 1.376 . S
C1071 C1109 1.389 . S
C1072 C1071 1.443 . S
C1072 C1073 1.340 . S
C1072 H1112 0.951 . S
C1073 C1072 1.340 . S
C1073 C1074 1.439 . S
C1073 H1113 0.950 . S
C1074 C1073 1.439 . S
C1074 N1075 1.374 . S
C1074 C1108 1.395 1_565 S
N1075 C1071 1.376 . S
N1075 C1074 1.374 . S
N1075 Co1076 2.008 1_565 S
Co1076 N1075 2.008 1_545 S
Co1076 N1077 1.995 . S
Co1076 N1082 2.008 . S
Co1076 N1087 1.995 1_545 S
Co1076 N1092 2.282 . S
Co1076 N1098 2.282 1_545 S
N1077 Co1076 1.995 . S
N1077 C1078 1.376 . S
N1077 C1081 1.383 . S
C1078 N1077 1.376 . S
C1078 C1079 1.446 . S
C1078 C1108 1.391 . S
C1079 C1078 1.446 . S
C1079 C1080 1.339 . S
C1079 H1114 0.949 . S
C1080 C1079 1.339 . S
C1080 C1081 1.439 . S
C1080 H1115 0.950 . S
C1081 N1077 1.383 . S
C1081 C1080 1.439 . S
C1081 C1110 1.392 . S
N1082 Co1076 2.008 . S
N1082 C1083 1.376 . S
N1082 C1086 1.374 . S
C1083 N1082 1.376 . S
C1083 C1084 1.443 . S
C1083 C1110 1.389 . S
C1084 C1083 1.443 . S
C1084 C1085 1.340 . S
C1084 H1116 0.951 . S
C1085 C1084 1.340 . S
C1085 C1086 1.439 . S
C1085 H1117 0.950 . S
C1086 N1082 1.374 . S
C1086 C1085 1.439 . S
C1086 C1111 1.395 . S
N1087 Co1076 1.995 1_565 S
N1087 C1088 1.376 . S
N1087 C1091 1.383 . S
C1088 N1087 1.376 . S
C1088 C1089 1.446 . S
C1088 C1111 1.391 1_565 S
C1089 C1088 1.446 . S
C1089 C1090 1.339 . S
C1089 H1118 0.949 . S
C1090 C1089 1.339 . S
C1090 C1091 1.439 . S
C1090 H1119 0.950 . S
C1091 N1087 1.383 . S
C1091 C1090 1.439 . S
C1091 C1109 1.392 . S
N1092 Co1076 2.282 . S
N1092 C1095 1.332 . S
N1092 C1097 1.332 . S
C1093 C1094 1.386 . S
C1093 C1096 1.388 . S
C1094 C1093 1.386 . S
C1094 C1095 1.382 . S
C1094 H1120 0.950 . S
C1095 N1092 1.332 . S
C1095 C1094 1.382 . S
C1095 H1106 0.952 . S
C1096 C1093 1.388 . S
C1096 C1097 1.382 . S
C1096 H1121 0.950 . S
C1097 N1092 1.332 . S
C1097 C1096 1.382 . S
C1097 H1107 0.948 . S
N1098 Co1076 2.282 1_565 S
N1098 C1102 1.332 . S
N1098 C1103 1.332 . S
C1099 C1100 1.388 . S
C1099 C1103 1.382 . S
C1099 H1122 0.950 . S
C1100 C1099 1.388 . S
C1100 C1101 1.386 . S
C1101 C1100 1.386 . S
C1101 C1102 1.382 . S
C1101 H1123 0.950 . S
C1102 N1098 1.332 . S
C1102 C1101 1.382 . S
C1102 H1104 0.952 . S
C1103 N1098 1.332 . S
C1103 C1099 1.382 . S
C1103 H1105 0.948 . S
H1104 C1102 0.952 . S
H1105 C1103 0.948 . S
H1106 C1095 0.952 . S
H1107 C1097 0.948 . S
C1108 C1074 1.395 1_545 S
C1108 C1078 1.391 . S
C1109 C1071 1.389 . S
C1109 C1091 1.392 . S
C1110 C1081 1.392 . S
C1110 C1083 1.389 . S
C1111 C1086 1.395 . S
C1111 C1088 1.391 1_545 S
H1112 C1072 0.951 . S
H1113 C1073 0.950 . S
H1114 C1079 0.949 . S
H1115 C1080 0.950 . S
H1116 C1084 0.951 . S
H1117 C1085 0.950 . S
H1118 C1089 0.949 . S
H1119 C1090 0.950 . S
H1120 C1094 0.950 . S
H1121 C1096 0.950 . S
H1122 C1099 0.950 . S
H1123 C1101 0.950 . S
C1124 C1125 1.443 . S
C1124 N1128 1.376 . S
C1124 C1162 1.389 . S
C1125 C1124 1.443 . S
C1125 C1126 1.340 . S
C1125 H1165 0.951 . S
C1126 C1125 1.340 . S
C1126 C1127 1.439 . S
C1126 H1166 0.950 . S
C1127 C1126 1.439 . S
C1127 N1128 1.374 . S
C1127 C1161 1.383 1_554 S
N1128 C1124 1.376 . S
N1128 C1127 1.374 . S
N1128 Co1129 2.012 . S
Co1129 N1128 2.012 . S
Co1129 N1130 1.990 1_554 S
Co1129 N1135 2.004 1_554 S
Co1129 N1140 2.000 . S
Co1129 N1145 2.289 . S
Co1129 N1151 2.276 1_554 S
N1130 Co1129 1.990 1_556 S
N1130 C1131 1.376 . S
N1130 C1134 1.383 . S
C1131 N1130 1.376 . S
C1131 C1132 1.446 . S
C1131 C1161 1.403 . S
C1132 C1131 1.446 . S
C1132 C1133 1.339 . S
C1132 H1167 0.949 . S
C1133 C1132 1.339 . S
C1133 C1134 1.439 . S
C1133 H1168 0.950 . S
C1134 N1130 1.383 . S
C1134 C1133 1.439 . S
C1134 C1163 1.392 . S
N1135 Co1129 2.004 1_556 S
N1135 C1136 1.376 . S
N1135 C1139 1.374 . S
C1136 N1135 1.376 . S
C1136 C1137 1.443 . S
C1136 C1163 1.389 . S
C1137 C1136 1.443 . S
C1137 C1138 1.340 . S
C1137 H1169 0.951 . S
C1138 C1137 1.340 . S
C1138 C1139 1.439 . S
C1138 H1170 0.950 . S
C1139 N1135 1.374 . S
C1139 C1138 1.439 . S
C1139 C1164 1.395 1_556 S
N1140 Co1129 2.000 . S
N1140 C1141 1.376 . S
N1140 C1144 1.383 . S
C1141 N1140 1.376 . S
C1141 C1142 1.446 . S
C1141 C1164 1.391 . S
C1142 C1141 1.446 . S
C1142 C1143 1.339 . S
C1142 H1171 0.949 . S
C1143 C1142 1.339 . S
C1143 C1144 1.439 . S
C1143 H1172 0.950 . S
C1144 N1140 1.383 . S
C1144 C1143 1.439 . S
C1144 C1162 1.392 . S
N1145 Co1129 2.289 . S
N1145 C1148 1.332 . S
N1145 C1150 1.332 . S
C1146 C1147 1.386 . S
C1146 C1149 1.388 . S
C1147 C1146 1.386 . S
C1147 C1148 1.382 . S
C1147 H1173 0.950 . S
C1148 N1145 1.332 . S
C1148 C1147 1.382 . S
C1148 H1159 0.952 . S
C1149 C1146 1.388 . S
C1149 C1150 1.382 . S
C1149 H1174 0.950 . S
C1150 N1145 1.332 . S
C1150 C1149 1.382 . S
C1150 H1160 0.948 . S
N1151 Co1129 2.276 1_556 S
N1151 C1155 1.332 . S
N1151 C1156 1.332 . S
C1152 C1153 1.388 . S
C1152 C1156 1.382 . S
C1152 H1175 0.950 . S
C1153 C1152 1.388 . S
C1153 C1154 1.386 . S
C1154 C1153 1.386 . S
C1154 C1155 1.382 . S
C1154 H1176 0.950 . S
C1155 N1151 1.332 . S
C1155 C1154 1.382 . S
C1155 H1157 0.952 . S
C1156 N1151 1.332 . S
C1156 C1152 1.382 . S
C1156 H1158 0.948 . S
H1157 C1155 0.952 . S
H1158 C1156 0.948 . S
H1159 C1148 0.952 . S
H1160 C1150 0.948 . S
C1161 C1127 1.383 1_556 S
C1161 C1131 1.403 . S
C1162 C1124 1.389 . S
C1162 C1144 1.392 . S
C1163 C1134 1.392 . S
C1163 C1136 1.389 . S
C1164 C1139 1.395 1_554 S
C1164 C1141 1.391 . S
H1165 C1125 0.951 . S
H1166 C1126 0.950 . S
H1167 C1132 0.949 . S
H1168 C1133 0.950 . S
H1169 C1137 0.951 . S
H1170 C1138 0.950 . S
H1171 C1142 0.949 . S
H1172 C1143 0.950 . S
H1173 C1147 0.950 . S
H1174 C1149 0.950 . S
H1175 C1152 0.950 . S
H1176 C1154 0.950 . S
C1177 C1178 1.443 . S
C1177 N1181 1.376 . S
C1177 C1215 1.389 . S
C1178 C1177 1.443 . S
C1178 C1179 1.340 . S
C1178 H1218 0.951 . S
C1179 C1178 1.340 . S
C1179 C1180 1.439 . S
C1179 H1219 0.950 . S
C1180 C1179 1.439 . S
C1180 N1181 1.374 . S
C1180 C1214 1.395 . S
N1181 C1177 1.376 . S
N1181 C1180 1.374 . S
N1181 Co1182 2.008 . S
Co1182 N1181 2.008 . S
Co1182 N1183 1.995 1_554 S
Co1182 N1188 2.007 . S
Co1182 N1193 1.995 . S
Co1182 N1198 2.282 . S
Co1182 N1204 2.282 1_554 S
N1183 Co1182 1.995 1_556 S
N1183 C1184 1.376 . S
N1183 C1187 1.383 . S
C1184 N1183 1.376 . S
C1184 C1185 1.446 . S
C1184 C1214 1.391 1_556 S
C1185 C1184 1.446 . S
C1185 C1186 1.339 . S
C1185 H1220 0.949 . S
C1186 C1185 1.339 . S
C1186 C1187 1.439 . S
C1186 H1221 0.950 . S
C1187 N1183 1.383 . S
C1187 C1186 1.439 . S
C1187 C1216 1.392 . S
N1188 Co1182 2.007 . S
N1188 C1189 1.378 1_554 S
N1188 C1192 1.373 . S
C1189 N1188 1.378 1_556 S
C1189 C1190 1.443 . S
C1189 C1216 1.389 . S
C1190 C1189 1.443 . S
C1190 C1191 1.340 . S
C1190 H1222 0.951 . S
C1191 C1190 1.340 . S
C1191 C1192 1.439 1_556 S
C1191 H1223 0.950 . S
C1192 N1188 1.373 . S
C1192 C1191 1.439 1_554 S
C1192 C1217 1.395 . S
N1193 Co1182 1.995 . S
N1193 C1194 1.376 . S
N1193 C1197 1.383 . S
C1194 N1193 1.376 . S
C1194 C1195 1.446 . S
C1194 C1217 1.391 . S
C1195 C1194 1.446 . S
C1195 C1196 1.339 . S
C1195 H1224 0.949 . S
C1196 C1195 1.339 . S
C1196 C1197 1.439 . S
C1196 H1225 0.950 . S
C1197 N1193 1.383 . S
C1197 C1196 1.439 . S
C1197 C1215 1.392 . S
N1198 Co1182 2.282 . S
N1198 C1201 1.332 . S
N1198 C1203 1.332 . S
C1199 C1200 1.386 . S
C1199 C1202 1.388 . S
C1200 C1199 1.386 . S
C1200 C1201 1.382 . S
C1200 H1226 0.950 . S
C1201 N1198 1.332 . S
C1201 C1200 1.382 . S
C1201 H1212 0.952 . S
C1202 C1199 1.388 . S
C1202 C1203 1.382 . S
C1202 H1227 0.950 . S
C1203 N1198 1.332 . S
C1203 C1202 1.382 . S
C1203 H1213 0.948 . S
N1204 Co1182 2.282 1_556 S
N1204 C1208 1.332 . S
N1204 C1209 1.332 . S
C1205 C1206 1.388 . S
C1205 C1209 1.382 . S
C1205 H1228 0.950 . S
C1206 C1205 1.388 . S
C1206 C1207 1.386 . S
C1207 C1206 1.386 . S
C1207 C1208 1.382 . S
C1207 H1229 0.950 . S
C1208 N1204 1.332 . S
C1208 C1207 1.382 . S
C1208 H1210 0.952 . S
C1209 N1204 1.332 . S
C1209 C1205 1.382 . S
C1209 H1211 0.948 . S
H1210 C1208 0.952 . S
H1211 C1209 0.948 . S
H1212 C1201 0.952 . S
H1213 C1203 0.948 . S
C1214 C1180 1.395 . S
C1214 C1184 1.391 1_554 S
C1215 C1177 1.389 . S
C1215 C1197 1.392 . S
C1216 C1187 1.392 . S
C1216 C1189 1.389 . S
C1217 C1192 1.395 . S
C1217 C1194 1.391 . S
H1218 C1178 0.951 . S
H1219 C1179 0.950 . S
H1220 C1185 0.949 . S
H1221 C1186 0.950 . S
H1222 C1190 0.951 . S
H1223 C1191 0.950 . S
H1224 C1195 0.949 . S
H1225 C1196 0.950 . S
H1226 C1200 0.950 . S
H1227 C1202 0.950 . S
H1228 C1205 0.950 . S
H1229 C1207 0.950 . S
C1230 C1231 1.443 . S
C1230 N1234 1.374 1_556 S
C1230 C1268 1.389 . S
C1231 C1230 1.443 . S
C1231 C1232 1.340 . S
C1231 H1271 0.951 . S
C1232 C1231 1.340 . S
C1232 C1233 1.439 1_556 S
C1232 H1272 0.950 . S
C1233 C1232 1.439 1_554 S
C1233 N1234 1.375 . S
C1233 C1267 1.395 . S
N1234 C1230 1.374 1_554 S
N1234 C1233 1.375 . S
N1234 Co1235 2.010 . S
Co1235 N1234 2.010 . S
Co1235 N1236 1.995 . S
Co1235 N1241 2.008 . S
Co1235 N1246 1.995 1_554 S
Co1235 N1251 2.282 1_554 S
Co1235 N1257 2.282 . S
N1236 Co1235 1.995 . S
N1236 C1237 1.376 . S
N1236 C1240 1.383 . S
C1237 N1236 1.376 . S
C1237 C1238 1.446 . S
C1237 C1267 1.391 . S
C1238 C1237 1.446 . S
C1238 C1239 1.339 . S
C1238 H1273 0.949 . S
C1239 C1238 1.339 . S
C1239 C1240 1.439 . S
C1239 H1274 0.950 . S
C1240 N1236 1.383 . S
C1240 C1239 1.439 . S
C1240 C1269 1.392 . S
N1241 Co1235 2.008 . S
N1241 C1242 1.376 . S
N1241 C1245 1.374 . S
C1242 N1241 1.376 . S
C1242 C1243 1.443 . S
C1242 C1269 1.389 . S
C1243 C1242 1.443 . S
C1243 C1244 1.340 . S
C1243 H1275 0.951 . S
C1244 C1243 1.340 . S
C1244 C1245 1.439 . S
C1244 H1276 0.950 . S
C1245 N1241 1.374 . S
C1245 C1244 1.439 . S
C1245 C1270 1.395 . S
N1246 Co1235 1.995 1_556 S
N1246 C1247 1.376 . S
N1246 C1250 1.383 . S
C1247 N1246 1.376 . S
C1247 C1248 1.446 . S
C1247 C1270 1.391 1_556 S
C1248 C1247 1.446 . S
C1248 C1249 1.339 . S
C1248 H1277 0.949 . S
C1249 C1248 1.339 . S
C1249 C1250 1.439 . S
C1249 H1278 0.950 . S
C1250 N1246 1.383 . S
C1250 C1249 1.439 . S
C1250 C1268 1.392 . S
N1251 Co1235 2.282 1_556 S
N1251 C1254 1.332 . S
N1251 C1256 1.332 . S
C1252 C1253 1.386 . S
C1252 C1255 1.388 . S
C1253 C1252 1.386 . S
C1253 C1254 1.382 . S
C1253 H1279 0.950 . S
C1254 N1251 1.332 . S
C1254 C1253 1.382 . S
C1254 H1265 0.952 . S
C1255 C1252 1.388 . S
C1255 C1256 1.382 . S
C1255 H1280 0.950 . S
C1256 N1251 1.332 . S
C1256 C1255 1.382 . S
C1256 H1266 0.948 . S
N1257 Co1235 2.282 . S
N1257 C1261 1.332 . S
N1257 C1262 1.332 . S
C1258 C1259 1.388 . S
C1258 C1262 1.382 . S
C1258 H1281 0.950 . S
C1259 C1258 1.388 . S
C1259 C1260 1.386 . S
C1260 C1259 1.386 . S
C1260 C1261 1.382 . S
C1260 H1282 0.950 . S
C1261 N1257 1.332 . S
C1261 C1260 1.382 . S
C1261 H1263 0.952 . S
C1262 N1257 1.332 . S
C1262 C1258 1.382 . S
C1262 H1264 0.948 . S
H1263 C1261 0.952 . S
H1264 C1262 0.948 . S
H1265 C1254 0.952 . S
H1266 C1256 0.948 . S
C1267 C1233 1.395 . S
C1267 C1237 1.391 . S
C1268 C1230 1.389 . S
C1268 C1250 1.392 . S
C1269 C1240 1.392 . S
C1269 C1242 1.389 . S
C1270 C1245 1.395 . S
C1270 C1247 1.391 1_554 S
H1271 C1231 0.951 . S
H1272 C1232 0.950 . S
H1273 C1238 0.949 . S
H1274 C1239 0.950 . S
H1275 C1243 0.951 . S
H1276 C1244 0.950 . S
H1277 C1248 0.949 . S
H1278 C1249 0.950 . S
H1279 C1253 0.950 . S
H1280 C1255 0.950 . S
H1281 C1258 0.950 . S
H1282 C1260 0.950 . S
C1283 C1284 1.443 . S
C1283 N1287 1.376 . S
C1283 C1321 1.389 . S
C1284 C1283 1.443 . S
C1284 C1285 1.340 . S
C1284 H1324 0.951 . S
C1285 C1284 1.340 . S
C1285 C1286 1.439 . S
C1285 H1325 0.950 . S
C1286 C1285 1.439 . S
C1286 N1287 1.374 . S
C1286 C1320 1.395 . S
N1287 C1283 1.376 . S
N1287 C1286 1.374 . S
N1287 Co1288 2.008 . S
Co1288 N1287 2.008 . S
Co1288 N1289 1.995 1_554 S
Co1288 N1294 2.008 . S
Co1288 N1299 1.995 . S
Co1288 N1304 2.282 . S
Co1288 N1310 2.282 1_554 S
N1289 Co1288 1.995 1_556 S
N1289 C1290 1.376 . S
N1289 C1293 1.383 . S
C1290 N1289 1.376 . S
C1290 C1291 1.446 . S
C1290 C1320 1.391 1_556 S
C1291 C1290 1.446 . S
C1291 C1292 1.339 . S
C1291 H1326 0.949 . S
C1292 C1291 1.339 . S
C1292 C1293 1.439 . S
C1292 H1327 0.950 . S
C1293 N1289 1.383 . S
C1293 C1292 1.439 . S
C1293 C1322 1.392 . S
N1294 Co1288 2.008 . S
N1294 C1295 1.376 1_554 S
N1294 C1298 1.374 . S
C1295 N1294 1.376 1_556 S
C1295 C1296 1.443 . S
C1295 C1322 1.389 . S
C1296 C1295 1.443 . S
C1296 C1297 1.340 . S
C1296 H1328 0.951 . S
C1297 C1296 1.340 . S
C1297 C1298 1.439 1_556 S
C1297 H1329 0.950 . S
C1298 N1294 1.374 . S
C1298 C1297 1.439 1_554 S
C1298 C1323 1.395 . S
N1299 Co1288 1.995 . S
N1299 C1300 1.376 . S
N1299 C1303 1.383 . S
C1300 N1299 1.376 . S
C1300 C1301 1.446 . S
C1300 C1323 1.391 . S
C1301 C1300 1.446 . S
C1301 C1302 1.339 . S
C1301 H1330 0.949 . S
C1302 C1301 1.339 . S
C1302 C1303 1.439 . S
C1302 H1331 0.950 . S
C1303 N1299 1.383 . S
C1303 C1302 1.439 . S
C1303 C1321 1.392 . S
N1304 Co1288 2.282 . S
N1304 C1307 1.332 . S
N1304 C1309 1.332 . S
C1305 C1306 1.386 . S
C1305 C1308 1.388 . S
C1306 C1305 1.386 . S
C1306 C1307 1.382 . S
C1306 H1332 0.950 . S
C1307 N1304 1.332 . S
C1307 C1306 1.382 . S
C1307 H1318 0.952 . S
C1308 C1305 1.388 . S
C1308 C1309 1.382 . S
C1308 H1333 0.950 . S
C1309 N1304 1.332 . S
C1309 C1308 1.382 . S
C1309 H1319 0.948 . S
N1310 Co1288 2.282 1_556 S
N1310 C1314 1.332 . S
N1310 C1315 1.332 . S
C1311 C1312 1.388 . S
C1311 C1315 1.382 . S
C1311 H1334 0.950 . S
C1312 C1311 1.388 . S
C1312 C1313 1.386 . S
C1313 C1312 1.386 . S
C1313 C1314 1.382 . S
C1313 H1335 0.950 . S
C1314 N1310 1.332 . S
C1314 C1313 1.382 . S
C1314 H1316 0.952 . S
C1315 N1310 1.332 . S
C1315 C1311 1.382 . S
C1315 H1317 0.948 . S
H1316 C1314 0.952 . S
H1317 C1315 0.948 . S
H1318 C1307 0.952 . S
H1319 C1309 0.948 . S
C1320 C1286 1.395 . S
C1320 C1290 1.391 1_554 S
C1321 C1283 1.389 . S
C1321 C1303 1.392 . S
C1322 C1293 1.392 . S
C1322 C1295 1.389 . S
C1323 C1298 1.395 . S
C1323 C1300 1.391 . S
H1324 C1284 0.951 . S
H1325 C1285 0.950 . S
H1326 C1291 0.949 . S
H1327 C1292 0.950 . S
H1328 C1296 0.951 . S
H1329 C1297 0.950 . S
H1330 C1301 0.949 . S
H1331 C1302 0.950 . S
H1332 C1306 0.950 . S
H1333 C1308 0.950 . S
H1334 C1311 0.950 . S
H1335 C1313 0.950 . S
C1336 C1337 1.363 . S
C1336 C1342 1.379 . S
C1336 N1344 1.356 . S
C1337 C1336 1.363 . S
C1337 C1343 1.363 . S
C1338 C1339 1.363 . S
C1338 C1343 1.379 . S
C1338 N1345 1.356 . S
C1339 C1338 1.363 . S
C1339 C1342 1.363 . S
N1340 C1342 1.356 . S
N1340 H1352 0.984 . S
N1340 H1353 0.985 . S
N1341 C1343 1.356 . S
N1341 H1346 0.984 . S
N1341 H1347 0.985 . S
C1342 C1336 1.379 . S
C1342 C1339 1.363 . S
C1342 N1340 1.356 . S
C1343 C1337 1.363 . S
C1343 C1338 1.379 . S
C1343 N1341 1.356 . S
N1344 C1336 1.356 . S
N1344 H1350 0.984 . S
N1344 H1351 0.984 . S
N1345 C1338 1.356 . S
N1345 H1348 0.984 . S
N1345 H1349 0.985 . S
H1346 N1341 0.984 . S
H1347 N1341 0.985 . S
H1348 N1345 0.984 . S
H1349 N1345 0.985 . S
H1350 N1344 0.984 . S
H1351 N1344 0.984 . S
H1352 N1340 0.984 . S
H1353 N1340 0.985 . S
C1354 C1355 1.363 . S
C1354 C1360 1.379 . S
C1354 N1362 1.356 . S
C1355 C1354 1.363 . S
C1355 C1361 1.363 . S
C1356 C1357 1.363 . S
C1356 C1361 1.379 . S
C1356 N1363 1.356 . S
C1357 C1356 1.363 . S
C1357 C1360 1.363 . S
N1358 C1360 1.356 . S
N1358 H1370 0.984 . S
N1358 H1371 0.985 . S
N1359 C1361 1.356 . S
N1359 H1364 0.984 . S
N1359 H1365 0.985 . S
C1360 C1354 1.379 . S
C1360 C1357 1.363 . S
C1360 N1358 1.356 . S
C1361 C1355 1.363 . S
C1361 C1356 1.379 . S
C1361 N1359 1.356 . S
N1362 C1354 1.356 . S
N1362 H1368 0.984 . S
N1362 H1369 0.984 . S
N1363 C1356 1.356 . S
N1363 H1366 0.984 . S
N1363 H1367 0.985 . S
H1364 N1359 0.984 . S
H1365 N1359 0.985 . S
H1366 N1363 0.984 . S
H1367 N1363 0.985 . S
H1368 N1362 0.984 . S
H1369 N1362 0.984 . S
H1370 N1358 0.984 . S
H1371 N1358 0.985 . S
C1372 C1373 1.363 . S
C1372 C1378 1.379 . S
C1372 N1380 1.356 . S
C1373 C1372 1.363 . S
C1373 C1379 1.363 . S
C1374 C1375 1.363 . S
C1374 C1379 1.379 . S
C1374 N1381 1.356 . S
C1375 C1374 1.363 . S
C1375 C1378 1.363 . S
N1376 C1378 1.356 . S
N1376 H1388 0.984 . S
N1376 H1389 0.985 . S
N1377 C1379 1.356 . S
N1377 H1382 0.984 . S
N1377 H1383 0.985 . S
C1378 C1372 1.379 . S
C1378 C1375 1.363 . S
C1378 N1376 1.356 . S
C1379 C1373 1.363 . S
C1379 C1374 1.379 . S
C1379 N1377 1.356 . S
N1380 C1372 1.356 . S
N1380 H1386 0.984 . S
N1380 H1387 0.984 . S
N1381 C1374 1.356 . S
N1381 H1384 0.984 . S
N1381 H1385 0.985 . S
H1382 N1377 0.984 . S
H1383 N1377 0.985 . S
H1384 N1381 0.984 . S
H1385 N1381 0.985 . S
H1386 N1380 0.984 . S
H1387 N1380 0.984 . S
H1388 N1376 0.984 . S
H1389 N1376 0.985 . S
C1390 C1391 1.363 . S
C1390 C1396 1.379 . S
C1390 N1398 1.356 . S
C1391 C1390 1.363 . S
C1391 C1397 1.363 . S
C1392 C1393 1.363 . S
C1392 C1397 1.379 . S
C1392 N1399 1.356 . S
C1393 C1392 1.363 . S
C1393 C1396 1.363 . S
N1394 C1396 1.356 . S
N1394 H1406 0.984 . S
N1394 H1407 0.985 . S
N1395 C1397 1.356 . S
N1395 H1400 0.984 . S
N1395 H1401 0.985 . S
C1396 C1390 1.379 . S
C1396 C1393 1.363 . S
C1396 N1394 1.356 . S
C1397 C1391 1.363 . S
C1397 C1392 1.379 . S
C1397 N1395 1.356 . S
N1398 C1390 1.356 . S
N1398 H1404 0.984 . S
N1398 H1405 0.984 . S
N1399 C1392 1.356 . S
N1399 H1402 0.984 . S
N1399 H1403 0.985 . S
H1400 N1395 0.984 . S
H1401 N1395 0.985 . S
H1402 N1399 0.984 . S
H1403 N1399 0.985 . S
H1404 N1398 0.984 . S
H1405 N1398 0.984 . S
H1406 N1394 0.984 . S
H1407 N1394 0.985 . S
C1408 C1409 1.363 . S
C1408 C1414 1.379 . S
C1408 N1416 1.356 . S
C1409 C1408 1.363 . S
C1409 C1415 1.363 . S
C1410 C1411 1.363 . S
C1410 C1415 1.379 . S
C1410 N1417 1.356 . S
C1411 C1410 1.363 . S
C1411 C1414 1.363 . S
N1412 C1414 1.356 . S
N1412 H1424 0.984 . S
N1412 H1425 0.985 . S
N1413 C1415 1.356 . S
N1413 H1418 0.984 . S
N1413 H1419 0.985 . S
C1414 C1408 1.379 . S
C1414 C1411 1.363 . S
C1414 N1412 1.356 . S
C1415 C1409 1.363 . S
C1415 C1410 1.379 . S
C1415 N1413 1.356 . S
N1416 C1408 1.356 . S
N1416 H1422 0.984 . S
N1416 H1423 0.984 . S
N1417 C1410 1.356 . S
N1417 H1420 0.984 . S
N1417 H1421 0.985 . S
H1418 N1413 0.984 . S
H1419 N1413 0.985 . S
H1420 N1417 0.984 . S
H1421 N1417 0.985 . S
H1422 N1416 0.984 . S
H1423 N1416 0.984 . S
H1424 N1412 0.984 . S
H1425 N1412 0.985 . S
C1426 C1427 1.363 . S
C1426 C1432 1.379 . S
C1426 N1434 1.356 . S
C1427 C1426 1.363 . S
C1427 C1433 1.363 . S
C1428 C1429 1.363 . S
C1428 C1433 1.379 . S
C1428 N1435 1.356 . S
C1429 C1428 1.363 . S
C1429 C1432 1.363 . S
N1430 C1432 1.356 . S
N1430 H1442 0.984 . S
N1430 H1443 0.985 . S
N1431 C1433 1.356 . S
N1431 H1436 0.984 . S
N1431 H1437 0.985 . S
C1432 C1426 1.379 . S
C1432 C1429 1.363 . S
C1432 N1430 1.356 . S
C1433 C1427 1.363 . S
C1433 C1428 1.379 . S
C1433 N1431 1.356 . S
N1434 C1426 1.356 . S
N1434 H1440 0.984 . S
N1434 H1441 0.984 . S
N1435 C1428 1.356 . S
N1435 H1438 0.984 . S
N1435 H1439 0.985 . S
H1436 N1431 0.984 . S
H1437 N1431 0.985 . S
H1438 N1435 0.984 . S
H1439 N1435 0.985 . S
H1440 N1434 0.984 . S
H1441 N1434 0.984 . S
H1442 N1430 0.984 . S
H1443 N1430 0.985 . S
C1444 C1445 1.363 . S
C1444 C1450 1.379 . S
C1444 N1452 1.356 . S
C1445 C1444 1.363 . S
C1445 C1451 1.363 . S
C1446 C1447 1.363 . S
C1446 C1451 1.379 . S
C1446 N1453 1.356 . S
C1447 C1446 1.363 . S
C1447 C1450 1.363 . S
N1448 C1450 1.356 . S
N1448 H1460 0.984 . S
N1448 H1461 0.985 . S
N1449 C1451 1.356 . S
N1449 H1454 0.984 . S
N1449 H1455 0.985 . S
C1450 C1444 1.379 . S
C1450 C1447 1.363 . S
C1450 N1448 1.356 . S
C1451 C1445 1.363 . S
C1451 C1446 1.379 . S
C1451 N1449 1.356 . S
N1452 C1444 1.356 . S
N1452 H1458 0.984 . S
N1452 H1459 0.984 . S
N1453 C1446 1.356 . S
N1453 H1456 0.984 . S
N1453 H1457 0.985 . S
H1454 N1449 0.984 . S
H1455 N1449 0.985 . S
H1456 N1453 0.984 . S
H1457 N1453 0.985 . S
H1458 N1452 0.984 . S
H1459 N1452 0.984 . S
H1460 N1448 0.984 . S
H1461 N1448 0.985 . S
C1462 C1463 1.363 . S
C1462 C1468 1.379 . S
C1462 N1470 1.356 . S
C1463 C1462 1.363 . S
C1463 C1469 1.363 . S
C1464 C1465 1.363 . S
C1464 C1469 1.379 . S
C1464 N1471 1.356 . S
C1465 C1464 1.363 . S
C1465 C1468 1.363 . S
N1466 C1468 1.356 . S
N1466 H1478 0.984 . S
N1466 H1479 0.985 . S
N1467 C1469 1.356 . S
N1467 H1472 0.984 . S
N1467 H1473 0.985 . S
C1468 C1462 1.379 . S
C1468 C1465 1.363 . S
C1468 N1466 1.356 . S
C1469 C1463 1.363 . S
C1469 C1464 1.379 . S
C1469 N1467 1.356 . S
N1470 C1462 1.356 . S
N1470 H1476 0.984 . S
N1470 H1477 0.984 . S
N1471 C1464 1.356 . S
N1471 H1474 0.984 . S
N1471 H1475 0.985 . S
H1472 N1467 0.984 . S
H1473 N1467 0.985 . S
H1474 N1471 0.984 . S
H1475 N1471 0.985 . S
H1476 N1470 0.984 . S
H1477 N1470 0.984 . S
H1478 N1466 0.984 . S
H1479 N1466 0.985 . S
C1480 C1481 1.363 . S
C1480 C1486 1.379 . S
C1480 N1488 1.356 . S
C1481 C1480 1.363 . S
C1481 C1487 1.363 . S
C1482 C1483 1.363 . S
C1482 C1487 1.379 . S
C1482 N1489 1.356 . S
C1483 C1482 1.363 . S
C1483 C1486 1.363 . S
N1484 C1486 1.356 . S
N1484 H1496 0.984 . S
N1484 H1497 0.985 . S
N1485 C1487 1.356 . S
N1485 H1490 0.984 . S
N1485 H1491 0.985 . S
C1486 C1480 1.379 . S
C1486 C1483 1.363 . S
C1486 N1484 1.356 . S
C1487 C1481 1.363 . S
C1487 C1482 1.379 . S
C1487 N1485 1.356 . S
N1488 C1480 1.356 . S
N1488 H1494 0.984 . S
N1488 H1495 0.984 . S
N1489 C1482 1.356 . S
N1489 H1492 0.984 . S
N1489 H1493 0.985 . S
H1490 N1485 0.984 . S
H1491 N1485 0.985 . S
H1492 N1489 0.984 . S
H1493 N1489 0.985 . S
H1494 N1488 0.984 . S
H1495 N1488 0.984 . S
H1496 N1484 0.984 . S
H1497 N1484 0.985 . S
C1498 C1499 1.363 . S
C1498 C1504 1.379 . S
C1498 N1506 1.356 . S
C1499 C1498 1.363 . S
C1499 C1505 1.363 . S
C1500 C1501 1.363 . S
C1500 C1505 1.379 . S
C1500 N1507 1.356 . S
C1501 C1500 1.363 . S
C1501 C1504 1.363 . S
N1502 C1504 1.356 . S
N1502 H1514 0.984 . S
N1502 H1515 0.985 . S
N1503 C1505 1.356 . S
N1503 H1508 0.984 . S
N1503 H1509 0.985 . S
C1504 C1498 1.379 . S
C1504 C1501 1.363 . S
C1504 N1502 1.356 . S
C1505 C1499 1.363 . S
C1505 C1500 1.379 . S
C1505 N1503 1.356 . S
N1506 C1498 1.356 . S
N1506 H1512 0.984 . S
N1506 H1513 0.984 . S
N1507 C1500 1.356 . S
N1507 H1510 0.984 . S
N1507 H1511 0.985 . S
H1508 N1503 0.984 . S
H1509 N1503 0.985 . S
H1510 N1507 0.984 . S
H1511 N1507 0.985 . S
H1512 N1506 0.984 . S
H1513 N1506 0.984 . S
H1514 N1502 0.984 . S
H1515 N1502 0.985 . S
C1516 C1517 1.363 . S
C1516 C1522 1.379 . S
C1516 N1524 1.356 . S
C1517 C1516 1.363 . S
C1517 C1523 1.363 . S
C1518 C1519 1.363 . S
C1518 C1523 1.379 . S
C1518 N1525 1.356 . S
C1519 C1518 1.363 . S
C1519 C1522 1.363 . S
N1520 C1522 1.356 . S
N1520 H1532 0.984 . S
N1520 H1533 0.985 . S
N1521 C1523 1.356 . S
N1521 H1526 0.984 . S
N1521 H1527 0.985 . S
C1522 C1516 1.379 . S
C1522 C1519 1.363 . S
C1522 N1520 1.356 . S
C1523 C1517 1.363 . S
C1523 C1518 1.379 . S
C1523 N1521 1.356 . S
N1524 C1516 1.356 . S
N1524 H1530 0.984 . S
N1524 H1531 0.984 . S
N1525 C1518 1.356 . S
N1525 H1528 0.984 . S
N1525 H1529 0.985 . S
H1526 N1521 0.984 . S
H1527 N1521 0.985 . S
H1528 N1525 0.984 . S
H1529 N1525 0.985 . S
H1530 N1524 0.984 . S
H1531 N1524 0.984 . S
H1532 N1520 0.984 . S
H1533 N1520 0.985 . S
C1534 C1535 1.363 . S
C1534 C1540 1.379 . S
C1534 N1542 1.356 . S
C1535 C1534 1.363 . S
C1535 C1541 1.363 . S
C1536 C1537 1.363 . S
C1536 C1541 1.379 . S
C1536 N1543 1.356 . S
C1537 C1536 1.363 . S
C1537 C1540 1.363 . S
N1538 C1540 1.356 . S
N1538 H1550 0.984 . S
N1538 H1551 0.985 . S
N1539 C1541 1.356 . S
N1539 H1544 0.984 . S
N1539 H1545 0.985 . S
C1540 C1534 1.379 . S
C1540 C1537 1.363 . S
C1540 N1538 1.356 . S
C1541 C1535 1.363 . S
C1541 C1536 1.379 . S
C1541 N1539 1.356 . S
N1542 C1534 1.356 . S
N1542 H1548 0.984 . S
N1542 H1549 0.984 . S
N1543 C1536 1.356 . S
N1543 H1546 0.984 . S
N1543 H1547 0.985 . S
H1544 N1539 0.984 . S
H1545 N1539 0.985 . S
H1546 N1543 0.984 . S
H1547 N1543 0.985 . S
H1548 N1542 0.984 . S
H1549 N1542 0.984 . S
H1550 N1538 0.984 . S
H1551 N1538 0.985 . S
C1552 C1553 1.363 . S
C1552 C1558 1.379 . S
C1552 N1560 1.356 . S
C1553 C1552 1.363 . S
C1553 C1559 1.363 . S
C1554 C1555 1.363 . S
C1554 C1559 1.379 . S
C1554 N1561 1.356 . S
C1555 C1554 1.363 . S
C1555 C1558 1.363 . S
N1556 C1558 1.356 . S
N1556 H1568 0.984 . S
N1556 H1569 0.985 . S
N1557 C1559 1.356 . S
N1557 H1562 0.984 . S
N1557 H1563 0.985 . S
C1558 C1552 1.379 . S
C1558 C1555 1.363 . S
C1558 N1556 1.356 . S
C1559 C1553 1.363 . S
C1559 C1554 1.379 . S
C1559 N1557 1.356 . S
N1560 C1552 1.356 . S
N1560 H1566 0.984 . S
N1560 H1567 0.984 . S
N1561 C1554 1.356 . S
N1561 H1564 0.984 . S
N1561 H1565 0.985 . S
H1562 N1557 0.984 . S
H1563 N1557 0.985 . S
H1564 N1561 0.984 . S
H1565 N1561 0.985 . S
H1566 N1560 0.984 . S
H1567 N1560 0.984 . S
H1568 N1556 0.984 . S
H1569 N1556 0.985 . S
C1570 C1571 1.363 . S
C1570 C1576 1.379 . S
C1570 N1578 1.356 . S
C1571 C1570 1.363 . S
C1571 C1577 1.363 . S
C1572 C1573 1.363 . S
C1572 C1577 1.379 . S
C1572 N1579 1.356 . S
C1573 C1572 1.363 . S
C1573 C1576 1.363 . S
N1574 C1576 1.356 . S
N1574 H1586 0.984 . S
N1574 H1587 0.985 . S
N1575 C1577 1.356 . S
N1575 H1580 0.984 . S
N1575 H1581 0.985 . S
C1576 C1570 1.379 . S
C1576 C1573 1.363 . S
C1576 N1574 1.356 . S
C1577 C1571 1.363 . S
C1577 C1572 1.379 . S
C1577 N1575 1.356 . S
N1578 C1570 1.356 . S
N1578 H1584 0.984 . S
N1578 H1585 0.984 . S
N1579 C1572 1.356 . S
N1579 H1582 0.984 . S
N1579 H1583 0.985 . S
H1580 N1575 0.984 . S
H1581 N1575 0.985 . S
H1582 N1579 0.984 . S
H1583 N1579 0.985 . S
H1584 N1578 0.984 . S
H1585 N1578 0.984 . S
H1586 N1574 0.984 . S
H1587 N1574 0.985 . S
C1588 C1589 1.363 . S
C1588 C1594 1.379 . S
C1588 N1596 1.356 . S
C1589 C1588 1.363 . S
C1589 C1595 1.363 . S
C1590 C1591 1.363 . S
C1590 C1595 1.379 . S
C1590 N1597 1.356 . S
C1591 C1590 1.363 . S
C1591 C1594 1.363 . S
N1592 C1594 1.356 . S
N1592 H1604 0.984 . S
N1592 H1605 0.985 . S
N1593 C1595 1.356 . S
N1593 H1598 0.984 . S
N1593 H1599 0.985 . S
C1594 C1588 1.379 . S
C1594 C1591 1.363 . S
C1594 N1592 1.356 . S
C1595 C1589 1.363 . S
C1595 C1590 1.379 . S
C1595 N1593 1.356 . S
N1596 C1588 1.356 . S
N1596 H1602 0.984 . S
N1596 H1603 0.984 . S
N1597 C1590 1.356 . S
N1597 H1600 0.984 . S
N1597 H1601 0.985 . S
H1598 N1593 0.984 . S
H1599 N1593 0.985 . S
H1600 N1597 0.984 . S
H1601 N1597 0.985 . S
H1602 N1596 0.984 . S
H1603 N1596 0.984 . S
H1604 N1592 0.984 . S
H1605 N1592 0.985 . S
C1606 C1607 1.363 . S
C1606 C1612 1.379 . S
C1606 N1614 1.356 . S
C1607 C1606 1.363 . S
C1607 C1613 1.363 . S
C1608 C1609 1.363 . S
C1608 C1613 1.379 . S
C1608 N1615 1.356 . S
C1609 C1608 1.363 . S
C1609 C1612 1.363 . S
N1610 C1612 1.356 . S
N1610 H1622 0.984 . S
N1610 H1623 0.985 . S
N1611 C1613 1.356 . S
N1611 H1616 0.984 . S
N1611 H1617 0.985 . S
C1612 C1606 1.379 . S
C1612 C1609 1.363 . S
C1612 N1610 1.356 . S
C1613 C1607 1.363 . S
C1613 C1608 1.379 . S
C1613 N1611 1.356 . S
N1614 C1606 1.356 . S
N1614 H1620 0.984 . S
N1614 H1621 0.984 . S
N1615 C1608 1.356 . S
N1615 H1618 0.984 . S
N1615 H1619 0.985 . S
H1616 N1611 0.984 . S
H1617 N1611 0.985 . S
H1618 N1615 0.984 . S
H1619 N1615 0.985 . S
H1620 N1614 0.984 . S
H1621 N1614 0.984 . S
H1622 N1610 0.984 . S
H1623 N1610 0.985 . S
C1624 C1625 1.363 . S
C1624 C1630 1.379 . S
C1624 N1632 1.356 . S
C1625 C1624 1.363 . S
C1625 C1631 1.363 . S
C1626 C1627 1.363 . S
C1626 C1631 1.379 . S
C1626 N1633 1.356 . S
C1627 C1626 1.363 . S
C1627 C1630 1.363 . S
N1628 C1630 1.356 . S
N1628 H1640 0.984 . S
N1628 H1641 0.985 . S
N1629 C1631 1.356 . S
N1629 H1634 0.984 . S
N1629 H1635 0.985 . S
C1630 C1624 1.379 . S
C1630 C1627 1.363 . S
C1630 N1628 1.356 . S
C1631 C1625 1.363 . S
C1631 C1626 1.379 . S
C1631 N1629 1.356 . S
N1632 C1624 1.356 . S
N1632 H1638 0.984 . S
N1632 H1639 0.984 . S
N1633 C1626 1.356 . S
N1633 H1636 0.984 . S
N1633 H1637 0.985 . S
H1634 N1629 0.984 . S
H1635 N1629 0.985 . S
H1636 N1633 0.984 . S
H1637 N1633 0.985 . S
H1638 N1632 0.984 . S
H1639 N1632 0.984 . S
H1640 N1628 0.984 . S
H1641 N1628 0.985 . S
C1642 C1643 1.363 . S
C1642 C1648 1.379 . S
C1642 N1650 1.356 . S
C1643 C1642 1.363 . S
C1643 C1649 1.363 . S
C1644 C1645 1.363 . S
C1644 C1649 1.379 . S
C1644 N1651 1.356 . S
C1645 C1644 1.363 . S
C1645 C1648 1.363 . S
N1646 C1648 1.356 . S
N1646 H1658 0.984 . S
N1646 H1659 0.985 . S
N1647 C1649 1.356 . S
N1647 H1652 0.984 . S
N1647 H1653 0.985 . S
C1648 C1642 1.379 . S
C1648 C1645 1.363 . S
C1648 N1646 1.356 . S
C1649 C1643 1.363 . S
C1649 C1644 1.379 . S
C1649 N1647 1.356 . S
N1650 C1642 1.356 . S
N1650 H1656 0.984 . S
N1650 H1657 0.984 . S
N1651 C1644 1.356 . S
N1651 H1654 0.984 . S
N1651 H1655 0.985 . S
H1652 N1647 0.984 . S
H1653 N1647 0.985 . S
H1654 N1651 0.984 . S
H1655 N1651 0.985 . S
H1656 N1650 0.984 . S
H1657 N1650 0.984 . S
H1658 N1646 0.984 . S
H1659 N1646 0.985 . S
C1660 C1661 1.363 . S
C1660 C1666 1.379 . S
C1660 N1668 1.356 . S
C1661 C1660 1.363 . S
C1661 C1667 1.363 . S
C1662 C1663 1.363 . S
C1662 C1667 1.379 . S
C1662 N1669 1.356 . S
C1663 C1662 1.363 . S
C1663 C1666 1.363 . S
N1664 C1666 1.356 . S
N1664 H1676 0.984 . S
N1664 H1677 0.985 . S
N1665 C1667 1.356 . S
N1665 H1670 0.984 . S
N1665 H1671 0.985 . S
C1666 C1660 1.379 . S
C1666 C1663 1.363 . S
C1666 N1664 1.356 . S
C1667 C1661 1.363 . S
C1667 C1662 1.379 . S
C1667 N1665 1.356 . S
N1668 C1660 1.356 . S
N1668 H1674 0.984 . S
N1668 H1675 0.984 . S
N1669 C1662 1.356 . S
N1669 H1672 0.984 . S
N1669 H1673 0.985 . S
H1670 N1665 0.984 . S
H1671 N1665 0.985 . S
H1672 N1669 0.984 . S
H1673 N1669 0.985 . S
H1674 N1668 0.984 . S
H1675 N1668 0.984 . S
H1676 N1664 0.984 . S
H1677 N1664 0.985 . S
C1678 C1679 1.363 . S
C1678 C1684 1.379 . S
C1678 N1686 1.356 . S
C1679 C1678 1.363 . S
C1679 C1685 1.363 . S
C1680 C1681 1.363 . S
C1680 C1685 1.379 . S
C1680 N1687 1.356 . S
C1681 C1680 1.363 . S
C1681 C1684 1.363 . S
N1682 C1684 1.356 . S
N1682 H1694 0.984 . S
N1682 H1695 0.985 . S
N1683 C1685 1.356 . S
N1683 H1688 0.984 . S
N1683 H1689 0.985 . S
C1684 C1678 1.379 . S
C1684 C1681 1.363 . S
C1684 N1682 1.356 . S
C1685 C1679 1.363 . S
C1685 C1680 1.379 . S
C1685 N1683 1.356 . S
N1686 C1678 1.356 . S
N1686 H1692 0.984 . S
N1686 H1693 0.984 . S
N1687 C1680 1.356 . S
N1687 H1690 0.984 . S
N1687 H1691 0.985 . S
H1688 N1683 0.984 . S
H1689 N1683 0.985 . S
H1690 N1687 0.984 . S
H1691 N1687 0.985 . S
H1692 N1686 0.984 . S
H1693 N1686 0.984 . S
H1694 N1682 0.984 . S
H1695 N1682 0.985 . S
C1696 C1697 1.363 . S
C1696 C1702 1.379 . S
C1696 N1704 1.356 . S
C1697 C1696 1.363 . S
C1697 C1703 1.363 . S
C1698 C1699 1.363 . S
C1698 C1703 1.379 . S
C1698 N1705 1.356 . S
C1699 C1698 1.363 . S
C1699 C1702 1.363 . S
N1700 C1702 1.356 . S
N1700 H1712 0.984 . S
N1700 H1713 0.985 . S
N1701 C1703 1.356 . S
N1701 H1706 0.984 . S
N1701 H1707 0.985 . S
C1702 C1696 1.379 . S
C1702 C1699 1.363 . S
C1702 N1700 1.356 . S
C1703 C1697 1.363 . S
C1703 C1698 1.379 . S
C1703 N1701 1.356 . S
N1704 C1696 1.356 . S
N1704 H1710 0.984 . S
N1704 H1711 0.984 . S
N1705 C1698 1.356 . S
N1705 H1708 0.984 . S
N1705 H1709 0.985 . S
H1706 N1701 0.984 . S
H1707 N1701 0.985 . S
H1708 N1705 0.984 . S
H1709 N1705 0.985 . S
H1710 N1704 0.984 . S
H1711 N1704 0.984 . S
H1712 N1700 0.984 . S
H1713 N1700 0.985 . S
C1714 C1715 1.363 . S
C1714 C1720 1.379 . S
C1714 N1722 1.356 . S
C1715 C1714 1.363 . S
C1715 C1721 1.363 . S
C1716 C1717 1.363 . S
C1716 C1721 1.379 . S
C1716 N1723 1.356 . S
C1717 C1716 1.363 . S
C1717 C1720 1.363 . S
N1718 C1720 1.356 . S
N1718 H1730 0.984 . S
N1718 H1731 0.985 . S
N1719 C1721 1.356 . S
N1719 H1724 0.984 . S
N1719 H1725 0.985 . S
C1720 C1714 1.379 . S
C1720 C1717 1.363 . S
C1720 N1718 1.356 . S
C1721 C1715 1.363 . S
C1721 C1716 1.379 . S
C1721 N1719 1.356 . S
N1722 C1714 1.356 . S
N1722 H1728 0.984 . S
N1722 H1729 0.984 . S
N1723 C1716 1.356 . S
N1723 H1726 0.984 . S
N1723 H1727 0.985 . S
H1724 N1719 0.984 . S
H1725 N1719 0.985 . S
H1726 N1723 0.984 . S
H1727 N1723 0.985 . S
H1728 N1722 0.984 . S
H1729 N1722 0.984 . S
H1730 N1718 0.984 . S
H1731 N1718 0.985 . S
C1732 C1733 1.363 . S
C1732 C1738 1.379 . S
C1732 N1740 1.356 . S
C1733 C1732 1.363 . S
C1733 C1739 1.363 . S
C1734 C1735 1.363 . S
C1734 C1739 1.379 . S
C1734 N1741 1.356 . S
C1735 C1734 1.363 . S
C1735 C1738 1.363 . S
N1736 C1738 1.356 . S
N1736 H1748 0.984 . S
N1736 H1749 0.985 . S
N1737 C1739 1.356 . S
N1737 H1742 0.984 . S
N1737 H1743 0.985 . S
C1738 C1732 1.379 . S
C1738 C1735 1.363 . S
C1738 N1736 1.356 . S
C1739 C1733 1.363 . S
C1739 C1734 1.379 . S
C1739 N1737 1.356 . S
N1740 C1732 1.356 . S
N1740 H1746 0.984 . S
N1740 H1747 0.984 . S
N1741 C1734 1.356 . S
N1741 H1744 0.984 . S
N1741 H1745 0.985 . S
H1742 N1737 0.984 . S
H1743 N1737 0.985 . S
H1744 N1741 0.984 . S
H1745 N1741 0.985 . S
H1746 N1740 0.984 . S
H1747 N1740 0.984 . S
H1748 N1736 0.984 . S
H1749 N1736 0.985 . S
C1750 C1751 1.363 . S
C1750 C1756 1.379 . S
C1750 N1758 1.356 . S
C1751 C1750 1.363 . S
C1751 C1757 1.363 . S
C1752 C1753 1.363 . S
C1752 C1757 1.379 . S
C1752 N1759 1.356 . S
C1753 C1752 1.363 . S
C1753 C1756 1.363 . S
N1754 C1756 1.356 . S
N1754 H1766 0.984 . S
N1754 H1767 0.985 . S
N1755 C1757 1.356 . S
N1755 H1760 0.984 . S
N1755 H1761 0.985 . S
C1756 C1750 1.379 . S
C1756 C1753 1.363 . S
C1756 N1754 1.356 . S
C1757 C1751 1.363 . S
C1757 C1752 1.379 . S
C1757 N1755 1.356 . S
N1758 C1750 1.356 . S
N1758 H1764 0.984 . S
N1758 H1765 0.984 . S
N1759 C1752 1.356 . S
N1759 H1762 0.984 . S
N1759 H1763 0.985 . S
H1760 N1755 0.984 . S
H1761 N1755 0.985 . S
H1762 N1759 0.984 . S
H1763 N1759 0.985 . S
H1764 N1758 0.984 . S
H1765 N1758 0.984 . S
H1766 N1754 0.984 . S
H1767 N1754 0.985 . S
C1768 C1769 1.363 . S
C1768 C1774 1.379 . S
C1768 N1776 1.356 . S
C1769 C1768 1.363 . S
C1769 C1775 1.363 . S
C1770 C1771 1.363 . S
C1770 C1775 1.379 . S
C1770 N1777 1.356 . S
C1771 C1770 1.363 . S
C1771 C1774 1.363 . S
N1772 C1774 1.356 . S
N1772 H1784 0.984 . S
N1772 H1785 0.985 . S
N1773 C1775 1.356 . S
N1773 H1778 0.984 . S
N1773 H1779 0.985 . S
C1774 C1768 1.379 . S
C1774 C1771 1.363 . S
C1774 N1772 1.356 . S
C1775 C1769 1.363 . S
C1775 C1770 1.379 . S
C1775 N1773 1.356 . S
N1776 C1768 1.356 . S
N1776 H1782 0.984 . S
N1776 H1783 0.984 . S
N1777 C1770 1.356 . S
N1777 H1780 0.984 . S
N1777 H1781 0.985 . S
H1778 N1773 0.984 . S
H1779 N1773 0.985 . S
H1780 N1777 0.984 . S
H1781 N1777 0.985 . S
H1782 N1776 0.984 . S
H1783 N1776 0.984 . S
H1784 N1772 0.984 . S
H1785 N1772 0.985 . S
C1786 C1787 1.363 . S
C1786 C1792 1.379 . S
C1786 N1794 1.356 . S
C1787 C1786 1.363 . S
C1787 C1793 1.363 . S
C1788 C1789 1.363 . S
C1788 C1793 1.379 . S
C1788 N1795 1.356 . S
C1789 C1788 1.363 . S
C1789 C1792 1.363 . S
N1790 C1792 1.356 . S
N1790 H1802 0.984 . S
N1790 H1803 0.985 . S
N1791 C1793 1.356 . S
N1791 H1796 0.984 . S
N1791 H1797 0.985 . S
C1792 C1786 1.379 . S
C1792 C1789 1.363 . S
C1792 N1790 1.356 . S
C1793 C1787 1.363 . S
C1793 C1788 1.379 . S
C1793 N1791 1.356 . S
N1794 C1786 1.356 . S
N1794 H1800 0.984 . S
N1794 H1801 0.984 . S
N1795 C1788 1.356 . S
N1795 H1798 0.984 . S
N1795 H1799 0.985 . S
H1796 N1791 0.984 . S
H1797 N1791 0.985 . S
H1798 N1795 0.984 . S
H1799 N1795 0.985 . S
H1800 N1794 0.984 . S
H1801 N1794 0.984 . S
H1802 N1790 0.984 . S
H1803 N1790 0.985 . S
C1804 C1805 1.363 . S
C1804 C1810 1.379 . S
C1804 N1812 1.356 . S
C1805 C1804 1.363 . S
C1805 C1811 1.363 . S
C1806 C1807 1.363 . S
C1806 C1811 1.379 . S
C1806 N1813 1.356 . S
C1807 C1806 1.363 . S
C1807 C1810 1.363 . S
N1808 C1810 1.356 . S
N1808 H1820 0.984 . S
N1808 H1821 0.985 . S
N1809 C1811 1.356 . S
N1809 H1814 0.984 . S
N1809 H1815 0.985 . S
C1810 C1804 1.379 . S
C1810 C1807 1.363 . S
C1810 N1808 1.356 . S
C1811 C1805 1.363 . S
C1811 C1806 1.379 . S
C1811 N1809 1.356 . S
N1812 C1804 1.356 . S
N1812 H1818 0.984 . S
N1812 H1819 0.984 . S
N1813 C1806 1.356 . S
N1813 H1816 0.984 . S
N1813 H1817 0.985 . S
H1814 N1809 0.984 . S
H1815 N1809 0.985 . S
H1816 N1813 0.984 . S
H1817 N1813 0.985 . S
H1818 N1812 0.984 . S
H1819 N1812 0.984 . S
H1820 N1808 0.984 . S
H1821 N1808 0.985 . S
C1822 C1823 1.363 . S
C1822 C1828 1.379 . S
C1822 N1830 1.356 . S
C1823 C1822 1.363 . S
C1823 C1829 1.363 . S
C1824 C1825 1.363 . S
C1824 C1829 1.379 . S
C1824 N1831 1.356 . S
C1825 C1824 1.363 . S
C1825 C1828 1.363 . S
N1826 C1828 1.356 . S
N1826 H1838 0.984 . S
N1826 H1839 0.985 . S
N1827 C1829 1.356 . S
N1827 H1832 0.984 . S
N1827 H1833 0.985 . S
C1828 C1822 1.379 . S
C1828 C1825 1.363 . S
C1828 N1826 1.356 . S
C1829 C1823 1.363 . S
C1829 C1824 1.379 . S
C1829 N1827 1.356 . S
N1830 C1822 1.356 . S
N1830 H1836 0.984 . S
N1830 H1837 0.984 . S
N1831 C1824 1.356 . S
N1831 H1834 0.984 . S
N1831 H1835 0.985 . S
H1832 N1827 0.984 . S
H1833 N1827 0.985 . S
H1834 N1831 0.984 . S
H1835 N1831 0.985 . S
H1836 N1830 0.984 . S
H1837 N1830 0.984 . S
H1838 N1826 0.984 . S
H1839 N1826 0.985 . S
C1840 C1841 1.363 . S
C1840 C1846 1.379 . S
C1840 N1848 1.356 . S
C1841 C1840 1.363 . S
C1841 C1847 1.363 . S
C1842 C1843 1.363 . S
C1842 C1847 1.379 . S
C1842 N1849 1.356 . S
C1843 C1842 1.363 . S
C1843 C1846 1.363 . S
N1844 C1846 1.356 . S
N1844 H1856 0.984 . S
N1844 H1857 0.985 . S
N1845 C1847 1.356 . S
N1845 H1850 0.984 . S
N1845 H1851 0.985 . S
C1846 C1840 1.379 . S
C1846 C1843 1.363 . S
C1846 N1844 1.356 . S
C1847 C1841 1.363 . S
C1847 C1842 1.379 . S
C1847 N1845 1.356 . S
N1848 C1840 1.356 . S
N1848 H1854 0.984 . S
N1848 H1855 0.984 . S
N1849 C1842 1.356 . S
N1849 H1852 0.984 . S
N1849 H1853 0.985 . S
H1850 N1845 0.984 . S
H1851 N1845 0.985 . S
H1852 N1849 0.984 . S
H1853 N1849 0.985 . S
H1854 N1848 0.984 . S
H1855 N1848 0.984 . S
H1856 N1844 0.984 . S
H1857 N1844 0.985 . S
C1858 C1859 1.363 . S
C1858 C1864 1.379 . S
C1858 N1866 1.356 . S
C1859 C1858 1.363 . S
C1859 C1865 1.363 . S
C1860 C1861 1.363 . S
C1860 C1865 1.379 . S
C1860 N1867 1.356 . S
C1861 C1860 1.363 . S
C1861 C1864 1.363 . S
N1862 C1864 1.356 . S
N1862 H1874 0.984 . S
N1862 H1875 0.985 . S
N1863 C1865 1.356 . S
N1863 H1868 0.984 . S
N1863 H1869 0.985 . S
C1864 C1858 1.379 . S
C1864 C1861 1.363 . S
C1864 N1862 1.356 . S
C1865 C1859 1.363 . S
C1865 C1860 1.379 . S
C1865 N1863 1.356 . S
N1866 C1858 1.356 . S
N1866 H1872 0.984 . S
N1866 H1873 0.984 . S
N1867 C1860 1.356 . S
N1867 H1870 0.984 . S
N1867 H1871 0.985 . S
H1868 N1863 0.984 . S
H1869 N1863 0.985 . S
H1870 N1867 0.984 . S
H1871 N1867 0.985 . S
H1872 N1866 0.984 . S
H1873 N1866 0.984 . S
H1874 N1862 0.984 . S
H1875 N1862 0.985 . S
C1876 C1877 1.363 . S
C1876 C1882 1.379 . S
C1876 N1884 1.356 . S
C1877 C1876 1.363 . S
C1877 C1883 1.363 . S
C1878 C1879 1.363 . S
C1878 C1883 1.379 . S
C1878 N1885 1.356 . S
C1879 C1878 1.363 . S
C1879 C1882 1.363 . S
N1880 C1882 1.356 . S
N1880 H1892 0.984 . S
N1880 H1893 0.985 . S
N1881 C1883 1.356 . S
N1881 H1886 0.984 . S
N1881 H1887 0.985 . S
C1882 C1876 1.379 . S
C1882 C1879 1.363 . S
C1882 N1880 1.356 . S
C1883 C1877 1.363 . S
C1883 C1878 1.379 . S
C1883 N1881 1.356 . S
N1884 C1876 1.356 . S
N1884 H1890 0.984 . S
N1884 H1891 0.984 . S
N1885 C1878 1.356 . S
N1885 H1888 0.984 . S
N1885 H1889 0.985 . S
H1886 N1881 0.984 . S
H1887 N1881 0.985 . S
H1888 N1885 0.984 . S
H1889 N1885 0.985 . S
H1890 N1884 0.984 . S
H1891 N1884 0.984 . S
H1892 N1880 0.984 . S
H1893 N1880 0.985 . S
C1894 C1895 1.363 . S
C1894 C1900 1.379 . S
C1894 N1902 1.356 . S
C1895 C1894 1.363 . S
C1895 C1901 1.363 . S
C1896 C1897 1.363 . S
C1896 C1901 1.379 . S
C1896 N1903 1.356 . S
C1897 C1896 1.363 . S
C1897 C1900 1.363 . S
N1898 C1900 1.356 . S
N1898 H1910 0.984 . S
N1898 H1911 0.985 . S
N1899 C1901 1.356 . S
N1899 H1904 0.984 . S
N1899 H1905 0.985 . S
C1900 C1894 1.379 . S
C1900 C1897 1.363 . S
C1900 N1898 1.356 . S
C1901 C1895 1.363 . S
C1901 C1896 1.379 . S
C1901 N1899 1.356 . S
N1902 C1894 1.356 . S
N1902 H1908 0.984 . S
N1902 H1909 0.984 . S
N1903 C1896 1.356 . S
N1903 H1906 0.984 . S
N1903 H1907 0.985 . S
H1904 N1899 0.984 . S
H1905 N1899 0.985 . S
H1906 N1903 0.984 . S
H1907 N1903 0.985 . S
H1908 N1902 0.984 . S
H1909 N1902 0.984 . S
H1910 N1898 0.984 . S
H1911 N1898 0.985 . S
C1339 C941 1.468 . S
C1337 C29 1.191 . S
C1357 C994 1.517 . S
C1355 C125 0.719 . S
C1375 C1057 1.572 . S
C1373 C257 1.275 . S
C1393 C1100 1.443 . S
C1391 C353 0.695 . S
C1409 C457 1.155 . S
C1411 C1056 1.524 . S
C1429 C1093 1.525 . S
C1427 C625 1.315 . S
C1447 C934 1.448 . S
C1445 C685 1.118 . S
C1465 C987 1.383 . S
C1463 C853 1.166 . S
C1483 C1040 1.663 . S
C1481 C809 1.130 . S
C1501 C1109 1.776 . S
C1499 C485 1.494 . S
C1519 C950 1.756 . S
C1517 C581 1.149 . S
C1537 C1003 1.694 . S
C1535 C713 1.380 . S
C1555 C951 1.718 . S
C1553 C169 1.261 . S
C1573 C1004 1.746 . S
C1571 C229 1.354 . S
C1591 C1047 1.634 . S
C1589 C397 1.162 . S
C1609 C1110 1.657 . S
C1607 C1 1.297 . S
C1627 C1153 1.439 . S
C1625 C827 1.140 . S
C1643 C467 0.995 . S
C1645 C1206 1.856 . S
C1661 C599 1.333 . S
C1663 C1268 1.601 . S
C1679 C695 1.001 . S
C1681 C1322 1.831 . S
C1697 C115 1.154 . S
C1699 C1269 1.492 . S
C1715 C283 1.616 . S
C1717 C1321 1.922 . S
C1733 C343 1.116 . S
C1735 C1146 1.478 . S
C1753 C1199 1.740 . S
C1751 C55 1.435 . S
C1771 C1259 1.612 . S
C1769 C11 1.092 . S
C1787 C143 1.092 . S
C1789 C1305 1.320 . S
C1805 C239 1.186 . S
C1807 C1162 1.815 . S
C1823 C371 1.091 . S
C1825 C1215 1.299 . S
C1843 C1163 1.653 . S
C1841 C511 1.199 . S
C1861 C1216 1.369 . S
C1859 C571 1.021 . S
C1877 C739 1.215 . S
C1879 C1252 1.671 . S
C1897 C1312 1.220 . S
C1895 C799 0.988 . S
