# Generated by pormake.
# Topology tsx, (6,3)-cn, num edge types: 1
# Building blocks:
#     Node 0, Type 0, BuildingBlock: LEVNOQ01_clean_sbu_1, # of connection points: 6
#     Node 1, Type 0, BuildingBlock: LEVNOQ01_clean_sbu_1, # of connection points: 6
#     Node 2, Type 1, BuildingBlock: INOVEN_clean_linker_0, # of connection points: 3
#     Node 3, Type 1, BuildingBlock: INOVEN_clean_linker_0, # of connection points: 3
#     Node 4, Type 1, BuildingBlock: INOVEN_clean_linker_0, # of connection points: 3
#     Node 5, Type 1, BuildingBlock: INOVEN_clean_linker_0, # of connection points: 3
#     Edge 6, Type (0, 1), BuildingBlock: MIFKUJ_clean_linker_0, # of connection points: 2
#     Edge 7, Type (0, 1), BuildingBlock: MIFKUJ_clean_linker_0, # of connection points: 2
#     Edge 8, Type (0, 1), BuildingBlock: MIFKUJ_clean_linker_0, # of connection points: 2
#     Edge 9, Type (0, 1), BuildingBlock: MIFKUJ_clean_linker_0, # of connection points: 2
#     Edge 10, Type (0, 1), BuildingBlock: MIFKUJ_clean_linker_0, # of connection points: 2
#     Edge 11, Type (0, 1), BuildingBlock: MIFKUJ_clean_linker_0, # of connection points: 2
#     Edge 12, Type (0, 1), BuildingBlock: MIFKUJ_clean_linker_0, # of connection points: 2
#     Edge 13, Type (0, 1), BuildingBlock: MIFKUJ_clean_linker_0, # of connection points: 2
#     Edge 14, Type (0, 1), BuildingBlock: MIFKUJ_clean_linker_0, # of connection points: 2
#     Edge 15, Type (0, 1), BuildingBlock: MIFKUJ_clean_linker_0, # of connection points: 2
#     Edge 16, Type (0, 1), BuildingBlock: MIFKUJ_clean_linker_0, # of connection points: 2
#     Edge 17, Type (0, 1), BuildingBlock: MIFKUJ_clean_linker_0, # of connection points: 2
# Relax obj value: 0.091
# Max RMSD: 0.143
# Mean RMSD: 0.106
data_MOF--net-tsx--node1-LEVNOQ01_clean_sbu_1--node2-INOVEN_clean_linker_0--edge1-MIFKUJ_clean_linker_0
_symmetry_space_group_name_H-M    P1
_symmetry_Int_Tables_number       1
_symmetry_cell_setting            triclinic
loop_
_symmetry_equiv_pos_as_xyz
'x, y, z'
_cell_length_a     24.670675
_cell_length_b     29.65683
_cell_length_c     44.436609
_cell_angle_alpha  97.637454
_cell_angle_beta   100.56908
_cell_angle_gamma 90.410835
loop_
_atom_site_label
_atom_site_type_symbol
_atom_site_fract_x
_atom_site_fract_y
_atom_site_fract_z
_atom_type_partial_charge
O0 O 0.07149 0.04675 0.08951 0.0
Mg1 Mg 0.12425 0.03682 0.05752 0.0
O2 O 0.00741 0.00614 0.0552 0.0
Mg3 Mg 0.02677 0.0061 0.00511 0.0
O4 O 0.09577 0.0631 0.01743 0.0
O5 O 0.1698 0.09156 0.05204 0.0
O6 O 0.04641 0.00471 0.95488 0.0
O7 O 0.96507 0.06613 -0.00072 0.0
Mg8 Mg 0.92671 0.97664 0.95406 0.0
O9 O 0.95792 0.94843 0.99279 0.0
O10 O 0.97729 0.96912 0.92115 0.0
O11 O 0.89231 0.0404 0.96403 0.0
O12 O 0.88363 0.92003 0.95813 0.0
C13 C 0.13497 0.94067 0.02868 0.0
C14 C 0.02569 0.02497 0.0828 0.0
C15 C 0.13585 0.09339 0.02646 0.0
C16 C 0.02522 0.9873 0.92732 0.0
C17 C 0.91755 0.07229 0.98349 0.0
C18 C 0.91792 0.91802 0.98355 0.0
O19 O 0.15748 0.97183 0.04969 0.0
O20 O 0.08945 0.94713 0.01096 0.0
O21 O 0.65473 0.54822 0.58484 0.0
Mg22 Mg 0.68976 0.55213 0.54554 0.0
O23 O 0.5715 0.52867 0.55762 0.0
Mg24 Mg 0.57589 0.52917 0.50522 0.0
O25 O 0.64314 0.58791 0.51416 0.0
O26 O 0.72636 0.61216 0.5413 0.0
O27 O 0.5885 0.53514 0.45336 0.0
O28 O 0.51222 0.58733 0.50391 0.0
Mg29 Mg 0.50694 0.49747 0.46191 0.0
O30 O 0.50502 0.4695 0.50091 0.0
O31 O 0.55763 0.46771 0.43218 0.0
O32 O 0.47003 0.56157 0.45691 0.0
O33 O 0.44371 0.45298 0.45661 0.0
C34 C 0.68861 0.46002 0.5122 0.0
C35 C 0.60476 0.53654 0.58356 0.0
C36 C 0.68339 0.61836 0.52104 0.0
C37 C 0.5851 0.50297 0.43098 0.0
C38 C 0.47633 0.5923 0.48008 0.0
C39 C 0.46172 0.44639 0.4847 0.0
O40 O 0.72184 0.4916 0.52677 0.0
O41 O 0.63727 0.46774 0.50464 0.0
H42 H 0.0429 0.95335 0.47657 0.0
H43 H 0.06402 0.89592 0.38512 0.0
H44 H 0.94765 0.00049 0.39632 0.0
N45 N 0.96697 0.01309 0.4578 0.0
N46 N 0.91954 0.02606 0.44844 0.0
C47 C 0.0317 0.9512 0.45168 0.0
C48 C 0.05691 0.91942 0.43243 0.0
C49 C 0.99116 0.97972 0.43871 0.0
C50 C 0.97754 0.97754 0.40641 0.0
C51 C 0.00395 0.94778 0.38701 0.0
C52 C 0.04272 0.91826 0.40012 0.0
H53 H -0.00096 0.04322 0.53089 0.0
H54 H 0.95924 0.98732 0.6093 0.0
H55 H 0.09099 0.08676 0.62243 0.0
N56 N 0.08247 0.09819 0.56288 0.0
N57 N 0.12198 0.12028 0.58036 0.0
C58 C 0.00631 0.04153 0.55549 0.0
C59 C 0.97284 0.01265 0.56776 0.0
C60 C 0.04911 0.06845 0.5751 0.0
C61 C 0.0586 0.0658 0.60702 0.0
C62 C 0.02648 0.03679 0.61951 0.0
C63 C 0.98339 0.01063 0.59979 0.0
H64 H 0.58568 0.50227 0.98228 0.0
H65 H 0.62105 0.43651 0.89593 0.0
H66 H 0.518 0.55248 0.89714 0.0
N67 N 0.5167 0.5626 0.9579 0.0
N68 N 0.47753 0.5818 0.94324 0.0
C69 C 0.58184 0.5006 0.95746 0.0
C70 C 0.60818 0.4664 0.94091 0.0
C71 C 0.54791 0.53101 0.94165 0.0
C72 C 0.54267 0.52816 0.90933 0.0
C73 C 0.56877 0.49429 0.89255 0.0
C74 C 0.60143 0.46347 0.9086 0.0
H75 H 0.47709 0.49049 0.01829 0.0
H76 H 0.44346 0.44894 0.1028 0.0
H77 H 0.56011 0.55812 0.10637 0.0
N78 N 0.5501 0.55741 0.04584 0.0
N79 N 0.5657 0.59627 0.05921 0.0
C80 C 0.4836 0.49436 0.0433 0.0
C81 C 0.45557 0.46518 0.05836 0.0
C82 C 0.5204 0.52859 0.06064 0.0
C83 C 0.52989 0.533 0.09305 0.0
C84 C 0.50304 0.50408 0.10844 0.0
C85 C 0.46556 0.47052 0.09094 0.0
H86 H 0.07012 0.16349 0.01074 0.0
H87 H 0.10238 0.23464 -0.00408 0.0
H88 H 0.25913 0.17482 0.98834 0.0
H89 H 0.22706 0.10459 0.0031 0.0
H90 H 0.18407 0.28245 0.0336 0.0
H91 H 0.32867 0.22647 0.94485 0.0
H92 H 0.32432 0.17242 0.89724 0.0
H93 H 0.14744 0.17359 0.88066 0.0
H94 H 0.15052 0.22852 0.92772 0.0
H95 H 0.44553 0.37772 0.06962 0.0
H96 H 0.37173 0.32185 0.04626 0.0
H97 H 0.30138 0.41369 0.98329 0.0
H98 H 0.37487 0.47085 0.00725 0.0
H99 H 0.30633 0.30697 0.95973 0.0
H100 H 0.23421 0.41824 0.02966 0.0
H101 H 0.24078 0.47082 0.07818 0.0
H102 H 0.26759 0.35849 0.13037 0.0
H103 H 0.26212 0.30532 0.08217 0.0
C104 C 0.11038 0.16506 0.00439 0.0
C105 C 0.14616 0.12879 0.00782 0.0
C106 C 0.12895 0.20573 -0.00385 0.0
C107 C 0.18321 0.21018 0.99092 0.0
C108 C 0.21686 0.17221 0.99165 0.0
C109 C 0.19858 0.13201 0.00017 0.0
C110 C 0.20896 0.25568 0.99085 0.0
C111 C 0.20949 0.28826 0.0169 0.0
C112 C 0.24196 0.26368 0.96899 0.0
C113 C 0.23989 0.2317 0.93999 0.0
C114 C 0.2888 0.21569 0.9309 0.0
C115 C 0.28654 0.18478 0.904 0.0
C116 C 0.23561 0.16958 0.88594 0.0
C117 C 0.18683 0.1854 0.89466 0.0
C118 C 0.18883 0.21643 0.92146 0.0
C119 C 0.41463 0.38609 0.05068 0.0
C120 C 0.41553 0.42907 0.04067 0.0
C121 C 0.37275 0.35395 0.0372 0.0
C122 C 0.33103 0.36382 0.01324 0.0
C123 C 0.33342 0.40548 0.00172 0.0
C124 C 0.37541 0.438 0.01541 0.0
C125 C 0.28274 0.33186 0.00301 0.0
C126 C 0.27875 0.30181 0.97546 0.0
C127 C 0.24598 0.32619 0.02325 0.0
C128 C 0.24794 0.35784 0.05229 0.0
C129 C 0.2418 0.40479 0.0515 0.0
C130 C 0.24532 0.4347 0.07894 0.0
C131 C 0.25465 0.41801 0.10735 0.0
C132 C 0.26033 0.37136 0.10835 0.0
C133 C 0.25694 0.34132 0.08097 0.0
H134 H 0.25742 0.44122 0.12858 0.0
H135 H 0.23394 0.14553 0.86518 0.0
H136 H 0.21617 0.90827 0.06974 0.0
H137 H 0.27157 0.84176 0.06099 0.0
H138 H 0.17684 0.80912 0.96871 0.0
H139 H 0.11999 0.87534 0.97762 0.0
H140 H 0.20152 0.73303 -0.0055 0.0
H141 H 0.30226 0.86763 0.98281 0.0
H142 H 0.3446 0.94465 -0.00087 0.0
H143 H 0.44867 0.89774 0.07652 0.0
H144 H 0.40639 0.82053 0.06088 0.0
H145 H 0.38807 0.61473 0.91379 0.0
H146 H 0.32724 0.67031 0.93489 0.0
H147 H 0.43051 0.67706 0.02508 0.0
H148 H 0.49147 0.62085 0.00373 0.0
H149 H 0.40327 0.76259 0.00695 0.0
H150 H 0.30936 0.62487 0.01409 0.0
H151 H 0.26844 0.5478 -0.00419 0.0
H152 H 0.15259 0.60014 0.92541 0.0
H153 H 0.19339 0.67746 0.94294 0.0
C154 C 0.20667 0.88674 0.04764 0.0
C155 C 0.16407 0.89744 0.0242 0.0
C156 C 0.23855 0.84875 0.04267 0.0
C157 C 0.22924 0.82101 0.01396 0.0
C158 C 0.18497 0.83021 0.991 0.0
C159 C 0.15254 0.86807 -0.0039 0.0
C160 C 0.26737 0.78389 0.00742 0.0
C161 C 0.24555 0.73955 -0.00299 0.0
C162 C 0.32514 0.7921 0.01153 0.0
C163 C 0.35073 0.83845 0.02088 0.0
C164 C 0.33388 0.87383 0.00344 0.0
C165 C 0.35791 0.9175 0.01254 0.0
C166 C 0.39918 0.92612 0.0389 0.0
C167 C 0.41662 0.89104 0.05615 0.0
C168 C 0.39266 0.84731 0.04717 0.0
C169 C 0.39734 0.62796 0.93816 0.0
C170 C 0.44377 0.61354 0.95714 0.0
C171 C 0.36263 0.65944 0.95021 0.0
C172 C 0.37389 0.67731 0.98163 0.0
C173 C 0.42088 0.66334 0.00081 0.0
C174 C 0.45554 0.63129 0.98868 0.0
C175 C 0.3373 0.71196 -0.00638 0.0
C176 C 0.35936 0.75591 0.00495 0.0
C177 C 0.2798 0.7034 0.99021 0.0
C178 C 0.2547 0.65698 0.97974 0.0
C179 C 0.27541 0.61993 -0.00543 0.0
C180 C 0.25219 0.57619 0.98436 0.0
C181 C 0.20799 0.56907 0.95944 0.0
C182 C 0.18683 0.60571 0.94472 0.0
C183 C 0.20995 0.64952 0.95481 0.0
H184 H 0.19008 0.53518 0.95156 0.0
H185 H 0.41774 0.95995 0.0459 0.0
H186 H 0.86964 0.92647 0.03375 0.0
H187 H 0.82052 0.86499 0.05016 0.0
H188 H 0.89072 0.76675 0.98865 0.0
H189 H 0.93765 0.82877 0.97127 0.0
H190 H 0.78577 0.75534 0.97644 0.0
H191 H 0.9174 0.77177 0.07138 0.0
H192 H 0.97405 0.81171 0.11917 0.0
H193 H 0.82755 0.857 0.15173 0.0
H194 H 0.77003 0.81784 0.10402 0.0
H195 H 0.63512 0.57285 0.01898 0.0
H196 H 0.70733 0.62297 0.0088 0.0
H197 H 0.64938 0.73515 0.06566 0.0
H198 H 0.57893 0.68442 0.07672 0.0
H199 H 0.75635 0.73224 0.08078 0.0
H200 H 0.62577 0.72282 0.98439 0.0
H201 H 0.56735 0.68009 0.93826 0.0
H202 H 0.71113 0.62182 0.90905 0.0
H203 H 0.77037 0.66357 0.95534 0.0
C204 C 0.87657 0.89155 0.02492 0.0
C205 C 0.90802 0.88205 0.00172 0.0
C206 C 0.84829 0.85632 0.03418 0.0
C207 C 0.85177 0.81097 0.02067 0.0
C208 C 0.88714 0.80135 -0.00065 0.0
C209 C 0.91462 0.83666 0.98975 0.0
C210 C 0.81318 0.77489 0.02553 0.0
C211 C 0.78027 0.7497 -0.00066 0.0
C212 C 0.80471 0.76814 0.0553 0.0
C213 C 0.83937 0.79197 0.084 0.0
C214 C 0.89725 0.79049 0.08863 0.0
C215 C 0.92953 0.81292 0.11576 0.0
C216 C 0.90441 0.83674 0.13852 0.0
C217 C 0.84697 0.83838 0.13415 0.0
C218 C 0.81451 0.81602 0.10709 0.0
C219 C 0.63724 0.60843 0.02867 0.0
C220 C 0.60133 0.62534 0.04836 0.0
C221 C 0.67859 0.63702 0.02299 0.0
C222 C 0.6838 0.68298 0.03643 0.0
C223 C 0.64652 0.69985 0.05521 0.0
C224 C 0.60597 0.67117 0.06123 0.0
C225 C 0.72867 0.71356 0.03178 0.0
C226 C 0.76256 0.73765 0.05796 0.0
C227 C 0.73787 0.71949 0.00205 0.0
C228 C 0.70249 0.69604 0.97348 0.0
C229 C 0.64493 0.70081 0.96817 0.0
C230 C 0.61165 0.67672 0.94201 0.0
C231 C 0.6355 0.64819 0.92076 0.0
C232 C 0.69271 0.6439 0.92555 0.0
C233 C 0.72617 0.66779 0.95174 0.0
H234 H 0.60966 0.62944 0.90058 0.0
H235 H 0.92946 0.85397 0.15953 0.0
H236 H 0.96192 0.15437 0.01598 0.0
H237 H 0.91841 0.22887 0.01687 0.0
H238 H 0.77076 0.16556 0.95892 0.0
H239 H 0.8133 0.09201 0.95777 0.0
H240 H 0.80607 0.23903 0.93652 0.0
H241 H 0.77716 0.19948 0.03556 0.0
H242 H 0.80869 0.18066 0.08824 0.0
H243 H 0.90124 0.30753 0.1134 0.0
H244 H 0.87079 0.32681 0.06069 0.0
H245 H 0.58471 0.37612 0.93261 0.0
H246 H 0.64594 0.31613 0.94925 0.0
H247 H 0.76733 0.41757 -0.00073 0.0
H248 H 0.70501 0.4781 0.983 0.0
H249 H 0.76283 0.33583 0.02858 0.0
H250 H 0.78284 0.37947 0.93146 0.0
H251 H 0.74853 0.39936 0.87935 0.0
H252 H 0.67505 0.26527 0.85044 0.0
H253 H 0.70788 0.24487 0.90259 0.0
C254 C 0.92001 0.15637 0.00369 0.0
C255 C 0.89131 0.11719 0.98662 0.0
C256 C 0.89522 0.19892 0.00425 0.0
C257 C 0.84138 0.20278 0.98783 0.0
C258 C 0.81246 0.16351 0.97155 0.0
C259 C 0.83696 0.12134 0.97097 0.0
C260 C 0.81485 0.24742 0.98609 0.0
C261 C 0.79664 0.26012 0.95668 0.0
C262 C 0.80423 0.27588 0.01245 0.0
C263 C 0.82228 0.26432 0.0441 0.0
C264 C 0.80462 0.22317 0.05225 0.0
C265 C 0.82221 0.21246 0.08212 0.0
C266 C 0.8571 0.24281 0.10412 0.0
C267 C 0.87432 0.284 0.09631 0.0
C268 C 0.85689 0.29485 0.06645 0.0
C269 C 0.62383 0.38555 0.94786 0.0
C270 C 0.64052 0.43148 0.95641 0.0
C271 C 0.65879 0.35136 0.95731 0.0
C272 C 0.71156 0.36243 0.97503 0.0
C273 C 0.72681 0.40836 0.98557 0.0
C274 C 0.69135 0.4428 0.97629 0.0
C275 C 0.75216 0.32598 0.97893 0.0
C276 C 0.77324 0.31511 0.00855 0.0
C277 C 0.76589 0.29911 0.95276 0.0
C278 C 0.74761 0.31072 0.92102 0.0
C279 C 0.75915 0.35428 0.91404 0.0
C280 C 0.73993 0.36566 0.88449 0.0
C281 C 0.70959 0.33362 0.8616 0.0
C282 C 0.69856 0.29006 0.86819 0.0
C283 C 0.7175 0.27856 0.89775 0.0
H284 H 0.69468 0.34251 0.83875 0.0
H285 H 0.87067 0.23446 0.12724 0.0
H286 H 0.7187 0.63274 0.46873 0.0
H287 H 0.75025 0.7067 0.45816 0.0
H288 H 0.68253 0.77372 0.53456 0.0
H289 H 0.65055 0.6999 0.54479 0.0
H290 H 0.68302 0.82973 0.48827 0.0
H291 H 0.8089 0.73399 0.54804 0.0
H292 H 0.85776 0.66278 0.55512 0.0
H293 H 0.93255 0.6751 0.47648 0.0
H294 H 0.88338 0.74609 0.46869 0.0
H295 H 0.86796 -0.00137 0.57677 0.0
H296 H 0.8027 0.93746 0.5508 0.0
H297 H 0.91154 0.89687 0.48699 0.0
H298 H 0.97804 0.95749 0.5138 0.0
H299 H 0.88738 0.82747 0.51286 0.0
H300 H 0.77969 0.93535 0.4623 0.0
H301 H 0.73123 0.00684 0.45594 0.0
H302 H 0.62353 0.9743 0.51618 0.0
H303 H 0.67175 0.90288 0.52334 0.0
C304 C 0.70796 0.66352 0.48211 0.0
C305 C 0.68168 0.66088 0.50731 0.0
C306 C 0.7264 0.70574 0.47626 0.0
C307 C 0.71962 0.74575 0.49592 0.0
C308 C 0.68816 0.74344 0.51904 0.0
C309 C 0.66967 0.70125 0.52482 0.0
C310 C 0.75352 0.78775 0.4965 0.0
C311 C 0.7277 0.82941 0.49353 0.0
C312 C 0.81191 0.78721 0.50264 0.0
C313 C 0.842 0.74495 0.50756 0.0
C314 C 0.83551 0.72133 0.53216 0.0
C315 C 0.86325 0.68104 0.5363 0.0
C316 C 0.89811 0.66435 0.5162 0.0
C317 C 0.90543 0.68801 0.49198 0.0
C318 C 0.87763 0.72825 0.48768 0.0
C319 C 0.87753 0.9772 0.55683 0.0
C320 C 0.92851 0.98243 0.5476 0.0
C321 C 0.83984 0.94245 0.54173 0.0
C322 C 0.85193 0.91236 0.51681 0.0
C323 C 0.90119 0.91956 0.50616 0.0
C324 C 0.93905 0.95442 0.52134 0.0
C325 C 0.81711 0.87008 0.50524 0.0
C326 C 0.8428 0.82812 0.50651 0.0
C327 C 0.75875 0.87061 0.49752 0.0
C328 C 0.72951 0.91365 0.4934 0.0
C329 C 0.74592 0.94352 0.47439 0.0
C330 C 0.71847 0.98404 0.47061 0.0
C331 C 0.6743 -0.00498 0.48559 0.0
C332 C 0.65765 0.96564 0.50451 0.0
C333 C 0.68497 0.92507 0.50839 0.0
H334 H 0.65289 0.02625 0.48247 0.0
H335 H 0.91957 0.63316 0.51944 0.0
H336 H 0.79492 0.4338 0.52662 0.0
H337 H 0.8308 0.35789 0.51906 0.0
H338 H 0.66813 0.30411 0.4759 0.0
H339 H 0.6312 0.38063 0.48401 0.0
H340 H 0.71931 0.24888 0.51552 0.0
H341 H 0.76652 0.31983 0.43291 0.0
H342 H 0.80538 0.37921 0.40836 0.0
H343 H 0.9664 0.36138 0.46075 0.0
H344 H 0.92826 0.30232 0.48593 0.0
H345 H 0.81348 0.04297 0.43925 0.0
H346 H 0.77133 0.11463 0.45543 0.0
H347 H 0.93017 0.16802 0.50571 0.0
H348 H 0.97204 0.09595 0.48976 0.0
H349 H 0.87965 0.22244 0.46315 0.0
H350 H 0.83153 0.14723 0.54342 0.0
H351 H 0.7919 0.08532 0.5653 0.0
H352 H 0.63091 0.10903 0.51525 0.0
H353 H 0.66978 0.17024 0.4923 0.0
C354 C 0.76651 0.40605 0.51534 0.0
C355 C 0.71005 0.41359 0.50575 0.0
C356 C 0.78728 0.36249 0.51098 0.0
C357 C 0.75243 0.3252 0.49656 0.0
C358 C 0.69591 0.33235 0.48704 0.0
C359 C 0.67491 0.37616 0.4915 0.0
C360 C 0.77561 0.27906 0.49156 0.0
C361 C 0.75384 0.24291 0.50367 0.0
C362 C 0.82152 0.27138 0.47669 0.0
C363 C 0.84444 0.30699 0.46157 0.0
C364 C 0.81012 0.32886 0.43941 0.0
C365 C 0.83202 0.36241 0.42533 0.0
C366 C 0.88828 0.37417 0.43306 0.0
C367 C 0.9228 0.35232 0.45483 0.0
C368 C 0.90107 0.31879 0.46899 0.0
C369 C 0.83878 0.06956 0.45466 0.0
C370 C 0.8955 0.06383 0.46359 0.0
C371 C 0.81485 0.11048 0.46379 0.0
C372 C 0.84756 0.14675 0.48179 0.0
C373 C 0.90412 0.14043 0.49189 0.0
C374 C 0.92793 0.09914 0.48304 0.0
C375 C 0.82371 0.1924 0.4873 0.0
C376 C 0.84524 0.22843 0.47512 0.0
C377 C 0.77739 0.19968 0.50182 0.0
C378 C 0.75374 0.16312 0.51585 0.0
C379 C 0.78776 0.13897 0.53679 0.0
C380 C 0.76542 0.104 0.54942 0.0
C381 C 0.70894 0.09323 0.54165 0.0
C382 C 0.67467 0.11743 0.52124 0.0
C383 C 0.69686 0.15222 0.50837 0.0
H384 H 0.6917 0.06613 0.55144 0.0
H385 H 0.90516 0.40013 0.42212 0.0
H386 H 0.47588 0.42703 0.5449 0.0
H387 H 0.42134 0.37172 0.56476 0.0
H388 H 0.32641 0.33347 0.47304 0.0
H389 H 0.37942 0.38796 0.45332 0.0
H390 H 0.26038 0.34926 0.51433 0.0
H391 H 0.42778 0.26783 0.50555 0.0
H392 H 0.52785 0.25593 0.51733 0.0
H393 H 0.52087 0.25889 0.61341 0.0
H394 H 0.421 0.27197 0.60232 0.0
H395 H 0.1172 0.14431 0.52252 0.0
H396 H 0.17897 0.20051 0.5088 0.0
H397 H 0.2666 0.2229 0.60325 0.0
H398 H 0.20553 0.1663 0.61667 0.0
H399 H 0.33767 0.21884 0.56534 0.0
H400 H 0.17272 0.29826 0.57549 0.0
H401 H 0.07304 0.31228 0.56572 0.0
H402 H 0.0755 0.31519 0.46964 0.0
H403 H 0.17516 0.30053 0.47874 0.0
C404 C 0.44354 0.40661 0.52904 0.0
C405 C 0.43187 0.41217 0.49757 0.0
C406 C 0.41248 0.37503 0.54038 0.0
C407 C 0.36966 0.34855 0.52033 0.0
C408 C 0.35883 0.35375 0.48897 0.0
C409 C 0.38945 0.38502 0.47774 0.0
C410 C 0.33473 0.31576 0.53142 0.0
C411 C 0.27729 0.32053 0.52528 0.0
C412 C 0.35686 0.27905 0.54651 0.0
C413 C 0.41701 0.27148 0.55315 0.0
C414 C 0.44769 0.26649 0.52924 0.0
C415 C 0.50439 0.2595 0.53579 0.0
C416 C 0.53077 0.25689 0.56612 0.0
C417 C 0.50045 0.26111 0.58994 0.0
C418 C 0.44382 0.26839 0.58355 0.0
C419 C 0.14983 0.16115 0.5402 0.0
C420 C 0.15699 0.15136 0.57073 0.0
C421 C 0.18492 0.19334 0.53243 0.0
C422 C 0.22714 0.21628 0.55511 0.0
C423 C 0.23451 0.20568 0.58538 0.0
C424 C 0.19965 0.17358 0.59305 0.0
C425 C 0.26327 0.2518 0.54756 0.0
C426 C 0.3208 0.24767 0.55451 0.0
C427 C 0.24132 0.28937 0.5334 0.0
C428 C 0.18132 0.29786 0.52776 0.0
C429 C 0.15193 0.30148 0.55222 0.0
C430 C 0.09546 0.30961 0.54682 0.0
C431 C 0.06797 0.31454 0.51708 0.0
C432 C 0.09688 0.31132 0.49266 0.0
C433 C 0.15336 0.30313 0.49793 0.0
H434 H 0.02433 0.32103 0.51299 0.0
H435 H 0.57465 0.25143 0.57115 0.0
H436 H 0.4802 0.66948 0.52298 0.0
H437 H 0.41594 0.73248 0.52135 0.0
H438 H 0.32374 0.66575 0.43467 0.0
H439 H 0.38799 0.60421 0.43565 0.0
H440 H 0.33383 0.75077 0.43074 0.0
H441 H 0.28297 0.66512 0.50769 0.0
H442 H 0.29953 0.63165 0.55638 0.0
H443 H 0.34163 0.7642 0.60784 0.0
H444 H 0.32594 0.79838 0.55939 0.0
H445 H 0.06732 0.82952 0.41231 0.0
H446 H 0.14467 0.78143 0.42743 0.0
H447 H 0.22107 0.88987 0.49697 0.0
H448 H 0.14377 0.93892 0.48149 0.0
H449 H 0.22956 0.79634 0.51479 0.0
H450 H 0.26786 0.88157 0.43594 0.0
H451 H 0.24494 0.91226 0.38639 0.0
H452 H 0.22217 0.77651 0.33751 0.0
H453 H 0.24404 0.74499 0.38683 0.0
C454 C 0.44636 0.66849 0.50353 0.0
C455 C 0.4394 0.63174 0.47945 0.0
C456 C 0.40943 0.70438 0.5027 0.0
C457 C 0.36447 0.70383 0.478 0.0
C458 C 0.35805 0.6673 0.45394 0.0
C459 C 0.39498 0.63192 0.45458 0.0
C460 C 0.32358 0.74075 0.47657 0.0
C461 C 0.31107 0.7605 0.44917 0.0
C462 C 0.29462 0.75472 0.50084 0.0
C463 C 0.30398 0.7342 0.52992 0.0
C464 C 0.29618 0.68706 0.52938 0.0
C465 C 0.30533 0.66798 0.55693 0.0
C466 C 0.32181 0.69576 0.58518 0.0
C467 C 0.329 0.74271 0.58594 0.0
C468 C 0.31997 0.76195 0.55845 0.0
C469 C 0.10034 0.84317 0.43097 0.0
C470 C 0.09977 0.88838 0.44531 0.0
C471 C 0.14441 0.81553 0.43969 0.0
C472 C 0.18897 0.83228 0.46302 0.0
C473 C 0.18708 0.87633 0.47887 0.0
C474 C 0.14284 0.90426 0.47003 0.0
C475 C 0.23897 0.80467 0.46864 0.0
C476 C 0.25317 0.78698 0.4967 0.0
C477 C 0.26927 0.7921 0.44488 0.0
C478 C 0.25727 0.81094 0.41511 0.0
C479 C 0.25764 0.85826 0.41464 0.0
C480 C 0.24486 0.87581 0.38659 0.0
C481 C 0.23203 0.84636 0.35882 0.0
C482 C 0.23211 0.79929 0.35904 0.0
C483 C 0.24476 0.78156 0.38704 0.0
H484 H 0.22209 0.86001 0.33713 0.0
H485 H 0.32886 0.68092 0.60648 0.0
H486 H 0.01918 0.08339 0.13415 0.0
H487 H -0.00046 0.06332 0.18264 0.0
H488 H 0.95635 0.92577 0.13913 0.0
H489 H 0.97399 0.94627 0.08998 0.0
H490 H 0.89721 0.95183 0.18589 0.0
H491 H 0.08425 0.94798 0.17389 0.0
H492 H 0.17031 0.97592 0.16092 0.0
H493 H 0.18017 0.08868 0.23333 0.0
H494 H 0.09358 0.06185 0.24639 0.0
H495 H 0.98411 0.87804 0.33859 0.0
H496 H 0.97382 0.88423 0.28313 0.0
H497 H 0.9942 0.03018 0.3046 0.0
H498 H 0.00425 0.02432 0.35961 0.0
H499 H 0.06585 0.98676 0.26633 0.0
H500 H 0.87167 0.98903 0.27489 0.0
H501 H 0.78682 0.95663 0.28663 0.0
H502 H 0.79512 0.8388 0.22025 0.0
H503 H 0.88065 0.87019 0.20857 0.0
C504 C 0.00357 0.0493 0.13464 0.0
C505 C -0.00131 0.01624 0.10851 0.0
C506 C 0.99263 0.03778 0.16237 0.0
C507 C 0.97811 -0.00731 0.1647 0.0
C508 C 0.96788 0.96064 0.13788 0.0
C509 C 0.97786 0.97243 0.10981 0.0
C510 C 0.98099 0.9785 0.19574 0.0
C511 C 0.93425 0.95889 0.20339 0.0
C512 C 0.02966 0.98702 0.21846 0.0
C513 C 0.08217 0.00307 0.21096 0.0
C514 C 0.10456 0.97891 0.18692 0.0
C515 C 0.15346 -0.00547 0.17955 0.0
C516 C 0.18064 0.0341 0.19626 0.0
C517 C 0.15904 0.05806 0.2204 0.0
C518 C 0.11006 0.04264 0.22781 0.0
C519 C 0.98597 0.91139 0.33135 0.0
C520 C 0.99472 0.95072 0.35337 0.0
C521 C 0.9798 0.91488 0.29975 0.0
C522 C 0.98302 0.95769 0.28985 0.0
C523 C 0.99134 -0.00312 0.3118 0.0
C524 C 0.9968 -0.00652 0.34319 0.0
C525 C 0.98136 0.96216 0.25691 0.0
C526 C 0.02886 0.97947 0.2488 0.0
C527 C 0.93385 0.95065 0.23383 0.0
C528 C 0.88276 0.93174 0.24106 0.0
C529 C 0.8557 0.956 0.26304 0.0
C530 C 0.80744 0.93786 0.26965 0.0
C531 C 0.78566 0.89563 0.25426 0.0
C532 C 0.81206 0.87148 0.23219 0.0
C533 C 0.8604 0.88944 0.22555 0.0
H534 H 0.74826 0.88166 0.25938 0.0
H535 H 0.2185 0.04614 0.19052 0.0
H536 H 0.09631 0.05517 0.91996 0.0
H537 H 0.12332 0.06777 0.87102 0.0
H538 H 0.04284 0.93988 0.82711 0.0
H539 H 0.01683 0.92708 0.87548 0.0
H540 H 0.1298 0.95509 0.8024 0.0
H541 H 0.97237 0.04063 0.83019 0.0
H542 H 0.93009 0.09733 0.86393 0.0
H543 H 0.04482 0.20049 0.85251 0.0
H544 H 0.08821 0.14416 0.81902 0.0
H545 H 0.9534 0.03505 0.65887 0.0
H546 H 0.9743 0.03079 0.71443 0.0
H547 H 0.14824 0.02894 0.71187 0.0
H548 H 0.12758 0.03186 0.65622 0.0
H549 H 0.03341 0.08737 0.76248 0.0
H550 H 0.20847 0.96012 0.76478 0.0
H551 H 0.24149 0.89829 0.73039 0.0
H552 H 0.07642 0.87107 0.67948 0.0
H553 H 0.04238 0.9323 0.7138 0.0
C554 C 0.0862 0.02916 0.90007 0.0
C555 C 0.05376 0.99051 0.90126 0.0
C556 C 0.10133 0.03647 0.87213 0.0
C557 C 0.08416 0.00513 0.84527 0.0
C558 C 0.05645 0.96459 0.84743 0.0
C559 C 0.04128 0.95743 0.87509 0.0
C560 C 0.08727 0.0163 0.81406 0.0
C561 C 0.1098 0.98454 0.79381 0.0
C562 C 0.06033 0.05429 0.80267 0.0
C563 C 0.03384 0.08818 0.82243 0.0
C564 C 0.98869 0.07537 0.83501 0.0
C565 C 0.96455 0.10742 0.85408 0.0
C566 C 0.98486 0.15246 0.86043 0.0
C567 C 0.02919 0.16558 0.84761 0.0
C568 C 0.05358 0.13362 0.8286 0.0
C569 C 0.99603 0.03332 0.6701 0.0
C570 C 0.0388 0.03371 0.65316 0.0
C571 C 0.00798 0.03142 0.70188 0.0
C572 C 0.06283 0.02954 0.71726 0.0
C573 C 0.10564 0.03017 0.70045 0.0
C574 C 0.09374 0.03208 0.66869 0.0
C575 C 0.07477 0.02556 0.75071 0.0
C576 C 0.05508 0.05873 0.77126 0.0
C577 C 0.10323 0.98832 0.76222 0.0
C578 C 0.12309 0.95118 0.74159 0.0
C579 C 0.17926 0.94087 0.74627 0.0
C580 C 0.19813 0.90593 0.7268 0.0
C581 C 0.16111 0.8809 0.70268 0.0
C582 C 0.1051 0.89062 0.69807 0.0
C583 C 0.08601 0.92548 0.7175 0.0
H584 H 0.17581 0.8539 0.68762 0.0
H585 H 0.96616 0.17721 0.87522 0.0
H586 H 0.67092 0.5245 0.63751 0.0
H587 H 0.64438 0.51022 0.68548 0.0
H588 H 0.47272 0.51766 0.64462 0.0
H589 H 0.49902 0.53112 0.59551 0.0
H590 H 0.51932 0.57264 0.70963 0.0
H591 H 0.49573 0.42407 0.65307 0.0
H592 H 0.52045 0.35924 0.61802 0.0
H593 H 0.66825 0.34291 0.6832 0.0
H594 H 0.64507 0.40846 0.71836 0.0
H595 H 0.47376 0.50518 0.85154 0.0
H596 H 0.46276 0.50536 0.79576 0.0
H597 H 0.63437 0.47476 0.79995 0.0
H598 H 0.64614 0.47546 0.85587 0.0
H599 H 0.56544 0.42578 0.74884 0.0
H600 H 0.59643 0.58113 0.80004 0.0
H601 H 0.57536 0.64801 0.83477 0.0
H602 H 0.41412 0.65191 0.77901 0.0
H603 H 0.43395 0.58448 0.74424 0.0
C604 C 0.62741 0.52333 0.63854 0.0
C605 C 0.58704 0.52915 0.61266 0.0
C606 C 0.61239 0.51498 0.66601 0.0
C607 C 0.55673 0.51276 0.66848 0.0
C608 C 0.51595 0.51924 0.64301 0.0
C609 C 0.531 0.52683 0.61507 0.0
C610 C 0.54282 0.50366 0.69812 0.0
C611 C 0.52763 0.54015 0.71797 0.0
C612 C 0.555 0.46152 0.70904 0.0
C613 C 0.56882 0.42146 0.68828 0.0
C614 C 0.53375 0.40692 0.65984 0.0
C615 C 0.54745 0.36998 0.63995 0.0
C616 C 0.59593 0.34696 0.64836 0.0
C617 C 0.63071 0.36078 0.67672 0.0
C618 C 0.61729 0.39784 0.69665 0.0
C619 C 0.50929 0.49867 0.84065 0.0
C620 C 0.56108 0.49097 0.85829 0.0
C621 C 0.50276 0.49843 0.80872 0.0
C622 C 0.54783 0.49043 0.79378 0.0
C623 C 0.599 0.48085 0.81105 0.0
C624 C 0.60565 0.48126 0.84302 0.0
C625 C 0.54287 0.49503 0.76057 0.0
C626 C 0.5552 0.4578 0.74023 0.0
C627 C 0.52799 0.53651 0.74919 0.0
C628 C 0.51641 0.57746 0.76977 0.0
C629 C 0.55634 0.59605 0.79533 0.0
C630 C 0.54464 0.63407 0.815 0.0
C631 C 0.49337 0.65412 0.80915 0.0
C632 C 0.45377 0.63628 0.78355 0.0
C633 C 0.46521 0.59816 0.76385 0.0
H634 H 0.48438 0.68355 0.82441 0.0
H635 H 0.60654 0.3184 0.63292 0.0
H636 H 0.60061 0.43718 0.38513 0.0
H637 H 0.60363 0.44651 0.3319 0.0
H638 H 0.6068 0.59251 0.3558 0.0
H639 H 0.60303 0.58326 0.40946 0.0
H640 H 0.524 0.5639 0.309 0.0
H641 H 0.7163 0.53928 0.33041 0.0
H642 H 0.80107 0.50164 0.35127 0.0
H643 H 0.74495 0.37839 0.2909 0.0
H644 H 0.65942 0.41503 0.26998 0.0
H645 H 0.51656 0.58216 0.14992 0.0
H646 H 0.54503 0.58926 0.20602 0.0
H647 H 0.54664 0.44299 0.20082 0.0
H648 H 0.52006 0.43564 0.14451 0.0
H649 H 0.63747 0.4826 0.23906 0.0
H650 H 0.44088 0.50341 0.22396 0.0
H651 H 0.35404 0.53919 0.20411 0.0
H652 H 0.41798 0.66851 0.25366 0.0
H653 H 0.50554 0.63358 0.27348 0.0
C654 C 0.60348 0.47134 0.37928 0.0
C655 C 0.60104 0.50949 0.40137 0.0
C656 C 0.6055 0.47664 0.34882 0.0
C657 C 0.60548 0.52022 0.33981 0.0
C658 C 0.60684 0.55856 0.36228 0.0
C659 C 0.60506 0.55325 0.39294 0.0
C660 C 0.59677 0.52488 0.30644 0.0
C661 C 0.5497 0.54716 0.2938 0.0
C662 C 0.62943 0.50199 0.28652 0.0
C663 C 0.68123 0.47991 0.29872 0.0
C664 C 0.72185 0.50407 0.32169 0.0
C665 C 0.77007 0.48291 0.33352 0.0
C666 C 0.77835 0.43764 0.32245 0.0
C667 C 0.73849 0.41347 0.29945 0.0
C668 C 0.69016 0.43445 0.28755 0.0
C669 C 0.52317 0.55148 0.1607 0.0
C670 C 0.51605 0.5083 0.14274 0.0
C671 C 0.53913 0.55561 0.19279 0.0
C672 C 0.54775 0.51666 0.20763 0.0
C673 C 0.54031 0.47351 0.18982 0.0
C674 C 0.52446 0.46934 0.15769 0.0
C675 C 0.56418 0.52078 0.24174 0.0
C676 C 0.61254 0.5001 0.2544 0.0
C677 C 0.53264 0.54501 0.26174 0.0
C678 C 0.47998 0.566 0.2499 0.0
C679 C 0.43659 0.53956 0.23041 0.0
C680 C 0.38721 0.55966 0.21921 0.0
C681 C 0.38056 0.60613 0.22754 0.0
C682 C 0.42323 0.63255 0.24718 0.0
C683 C 0.47272 0.61261 0.25842 0.0
H684 H 0.3423 0.62163 0.21885 0.0
H685 H 0.81568 0.4213 0.33167 0.0
loop_
_geom_bond_atom_site_label_1
_geom_bond_atom_site_label_2
_geom_bond_distance
_geom_bond_site_symmetry_2
_ccdc_geom_bond_type
O0 Mg1 1.990 . S
O0 C14 1.253 . S
Mg1 O0 1.990 . S
Mg1 O4 2.180 . S
Mg1 O5 2.117 . S
Mg1 O19 2.030 1_545 S
O2 Mg3 2.072 . S
O2 C14 1.260 . S
Mg3 O2 2.072 . S
Mg3 O4 2.099 . S
Mg3 O6 2.079 1_554 S
Mg3 O7 2.072 . S
Mg3 O9 2.099 1_444 S
Mg3 O20 2.079 1_545 S
O4 Mg1 2.180 . S
O4 Mg3 2.099 . S
O4 C15 1.279 . S
O5 Mg1 2.117 . S
O5 C15 1.250 . S
O6 Mg3 2.079 1_556 S
O6 C16 1.264 . S
O7 Mg3 2.072 . S
O7 C17 1.260 1_454 S
Mg8 O9 2.180 . S
Mg8 O10 2.030 1_565 S
Mg8 O11 1.990 1_565 S
Mg8 O12 2.117 . S
O9 Mg3 2.099 1_666 S
O9 Mg8 2.180 . S
O9 C18 1.278 1_556 S
O10 Mg8 2.030 1_545 S
O10 C16 1.248 1_655 S
O11 Mg8 1.990 1_545 S
O11 C17 1.253 . S
O12 Mg8 2.117 . S
O12 C18 1.250 1_556 S
C13 O19 1.248 . S
C13 O20 1.264 . S
C14 O0 1.253 . S
C14 O2 1.260 . S
C15 O4 1.279 . S
C15 O5 1.250 . S
C16 O6 1.264 . S
C16 O10 1.248 1_455 S
C17 O7 1.260 1_656 S
C17 O11 1.253 . S
C18 O9 1.278 1_554 S
C18 O12 1.250 1_554 S
O19 Mg1 2.030 1_565 S
O19 C13 1.248 . S
O20 Mg3 2.079 1_565 S
O20 C13 1.264 . S
O21 Mg22 1.990 . S
O21 C35 1.253 . S
Mg22 O21 1.990 . S
Mg22 O25 2.180 . S
Mg22 O26 2.117 . S
Mg22 O40 2.030 . S
O23 Mg24 2.072 . S
O23 C35 1.260 . S
Mg24 O23 2.072 . S
Mg24 O25 2.099 . S
Mg24 O27 2.079 . S
Mg24 O28 2.072 . S
Mg24 O30 2.099 . S
Mg24 O41 2.079 . S
O25 Mg22 2.180 . S
O25 Mg24 2.099 . S
O25 C36 1.279 . S
O26 Mg22 2.117 . S
O26 C36 1.250 . S
O27 Mg24 2.079 . S
O27 C37 1.264 . S
O28 Mg24 2.072 . S
O28 C38 1.260 . S
Mg29 O30 2.180 . S
Mg29 O31 2.030 . S
Mg29 O32 1.990 . S
Mg29 O33 2.117 . S
O30 Mg24 2.099 . S
O30 Mg29 2.180 . S
O30 C39 1.279 . S
O31 Mg29 2.030 . S
O31 C37 1.248 . S
O32 Mg29 1.990 . S
O32 C38 1.253 . S
O33 Mg29 2.117 . S
O33 C39 1.250 . S
C34 O40 1.248 . S
C34 O41 1.264 . S
C35 O21 1.253 . S
C35 O23 1.260 . S
C36 O25 1.279 . S
C36 O26 1.250 . S
C37 O27 1.264 . S
C37 O31 1.248 . S
C38 O28 1.260 . S
C38 O32 1.253 . S
C39 O30 1.279 . S
C39 O33 1.250 . S
O40 Mg22 2.030 . S
O40 C34 1.248 . S
O41 Mg24 2.079 . S
O41 C34 1.264 . S
H42 C47 0.929 . S
H43 C52 0.931 . S
H44 C50 0.930 . S
N45 N46 1.234 1_455 S
N45 C49 1.453 . S
N46 N45 1.234 1_655 S
C47 H42 0.929 . S
C47 C48 1.373 . S
C47 C49 1.368 1_565 S
C48 C47 1.373 . S
C48 C52 1.397 . S
C49 N45 1.453 . S
C49 C47 1.368 1_545 S
C49 C50 1.373 . S
C50 H44 0.930 . S
C50 C49 1.373 . S
C50 C51 1.371 1_545 S
C51 C50 1.371 1_565 S
C51 C52 1.383 . S
C52 H43 0.931 . S
C52 C48 1.397 . S
C52 C51 1.383 . S
H53 C58 0.929 . S
H54 C63 0.931 . S
H55 C61 0.930 . S
N56 N57 1.234 . S
N56 C60 1.453 . S
N57 N56 1.234 . S
C58 H53 0.929 . S
C58 C59 1.373 . S
C58 C60 1.368 1_655 S
C59 C58 1.373 . S
C59 C63 1.397 . S
C60 N56 1.453 . S
C60 C58 1.368 1_455 S
C60 C61 1.373 . S
C61 H55 0.930 . S
C61 C60 1.373 . S
C61 C62 1.371 1_455 S
C62 C61 1.371 1_655 S
C62 C63 1.383 . S
C63 H54 0.931 . S
C63 C59 1.397 . S
C63 C62 1.383 . S
H64 C69 0.929 . S
H65 C74 0.931 . S
H66 C72 0.930 . S
N67 N68 1.234 . S
N67 C71 1.453 . S
N68 N67 1.234 . S
C69 H64 0.929 . S
C69 C70 1.373 . S
C69 C71 1.368 . S
C70 C69 1.373 . S
C70 C74 1.397 . S
C71 N67 1.453 . S
C71 C69 1.368 . S
C71 C72 1.373 . S
C72 H66 0.930 . S
C72 C71 1.373 . S
C72 C73 1.371 . S
C73 C72 1.371 . S
C73 C74 1.383 . S
C74 H65 0.931 . S
C74 C70 1.397 . S
C74 C73 1.383 . S
H75 C80 0.929 . S
H76 C85 0.931 . S
H77 C83 0.930 . S
N78 N79 1.234 . S
N78 C82 1.453 . S
N79 N78 1.234 . S
C80 H75 0.929 . S
C80 C81 1.373 . S
C80 C82 1.368 . S
C81 C80 1.373 . S
C81 C85 1.397 . S
C82 N78 1.453 . S
C82 C80 1.368 . S
C82 C83 1.373 . S
C83 H77 0.930 . S
C83 C82 1.373 . S
C83 C84 1.371 . S
C84 C83 1.371 . S
C84 C85 1.383 . S
C85 H76 0.931 . S
C85 C81 1.397 . S
C85 C84 1.383 . S
H86 C104 0.951 . S
H87 C106 0.955 . S
H88 C108 0.950 . S
H89 C109 0.950 . S
H90 C111 0.950 . S
H91 C114 0.950 . S
H92 C115 0.950 . S
H93 C117 0.950 . S
H94 C118 0.950 . S
H95 C119 0.951 . S
H96 C121 0.951 . S
H97 C123 0.950 . S
H98 C124 0.950 . S
H99 C126 0.950 1_556 S
H100 C129 0.950 . S
H101 C130 0.950 . S
H102 C132 0.950 . S
H103 C133 0.950 . S
C104 H86 0.951 . S
C104 C105 1.366 1_556 S
C104 C106 1.387 . S
C105 C104 1.366 1_554 S
C105 C109 1.385 . S
C106 H87 0.955 . S
C106 C104 1.387 . S
C106 C107 1.361 1_556 S
C107 C106 1.361 1_554 S
C107 C108 1.414 . S
C107 C110 1.499 . S
C108 H88 0.950 . S
C108 C107 1.414 . S
C108 C109 1.374 . S
C109 H89 0.950 . S
C109 C105 1.385 . S
C109 C108 1.374 . S
C110 C107 1.499 . S
C110 C111 1.373 . S
C110 C112 1.389 . S
C111 H90 0.950 . S
C111 C110 1.373 . S
C111 C127 1.377 . S
C112 C110 1.389 . S
C112 C113 1.524 1_554 S
C112 C126 1.377 . S
C113 C112 1.524 1_556 S
C113 C114 1.397 . S
C113 C118 1.363 . S
C114 H91 0.950 . S
C114 C113 1.397 . S
C114 C115 1.334 . S
C115 H92 0.950 . S
C115 C114 1.334 . S
C115 C116 1.287 . S
C116 C115 1.287 . S
C116 C117 1.524 . S
C116 H135 0.913 . S
C117 H93 0.950 . S
C117 C116 1.524 . S
C117 C118 1.415 . S
C118 H94 0.950 . S
C118 C113 1.363 . S
C118 C117 1.415 . S
C119 H95 0.951 . S
C119 C120 1.366 . S
C119 C121 1.388 . S
C120 C119 1.366 . S
C120 C124 1.385 . S
C121 H96 0.951 . S
C121 C119 1.388 . S
C121 C122 1.366 . S
C122 C121 1.366 . S
C122 C123 1.414 . S
C122 C125 1.499 . S
C123 H97 0.950 . S
C123 C122 1.414 . S
C123 C124 1.374 . S
C124 H98 0.950 . S
C124 C120 1.385 . S
C124 C123 1.374 . S
C125 C122 1.499 . S
C125 C126 1.373 . S
C125 C127 1.389 . S
C126 H99 0.950 1_554 S
C126 C112 1.377 . S
C126 C125 1.373 . S
C127 C111 1.377 . S
C127 C125 1.389 . S
C127 C128 1.524 . S
C128 C127 1.524 . S
C128 C129 1.397 . S
C128 C133 1.363 . S
C129 H100 0.950 . S
C129 C128 1.397 . S
C129 C130 1.334 . S
C130 H101 0.950 . S
C130 C129 1.334 . S
C130 C131 1.287 . S
C131 C130 1.287 . S
C131 C132 1.524 . S
C131 H134 0.999 . S
C132 H102 0.950 . S
C132 C131 1.524 . S
C132 C133 1.415 . S
C133 H103 0.950 . S
C133 C128 1.363 . S
C133 C132 1.415 . S
H134 C131 0.999 . S
H135 C116 0.913 . S
H136 C154 0.951 . S
H137 C156 0.951 . S
H138 C158 0.950 . S
H139 C159 0.950 . S
H140 C161 0.950 . S
H141 C164 0.950 . S
H142 C165 0.950 . S
H143 C167 0.950 . S
H144 C168 0.950 . S
H145 C169 0.951 . S
H146 C171 0.951 . S
H147 C173 0.950 . S
H148 C174 0.950 . S
H149 C176 0.950 . S
H150 C179 0.950 . S
H151 C180 0.950 . S
H152 C182 0.950 . S
H153 C183 0.950 . S
C154 H136 0.951 . S
C154 C155 1.366 . S
C154 C156 1.388 . S
C155 C154 1.366 . S
C155 C159 1.385 1_554 S
C156 H137 0.951 . S
C156 C154 1.388 . S
C156 C157 1.366 . S
C157 C156 1.366 . S
C157 C158 1.414 1_554 S
C157 C160 1.495 1_554 S
C158 H138 0.950 . S
C158 C157 1.414 1_556 S
C158 C159 1.374 . S
C159 H139 0.950 . S
C159 C155 1.385 1_556 S
C159 C158 1.374 . S
C160 C157 1.495 1_556 S
C160 C161 1.390 . S
C160 C162 1.376 1_556 S
C161 H140 0.950 . S
C161 C160 1.390 . S
C161 C177 1.377 . S
C162 C160 1.376 1_554 S
C162 C163 1.524 . S
C162 C176 1.377 . S
C163 C162 1.524 . S
C163 C164 1.397 . S
C163 C168 1.363 . S
C164 H141 0.950 . S
C164 C163 1.397 . S
C164 C165 1.334 . S
C165 H142 0.950 . S
C165 C164 1.334 . S
C165 C166 1.287 . S
C166 C165 1.287 . S
C166 C167 1.524 . S
C166 H185 0.913 . S
C167 H143 0.950 . S
C167 C166 1.524 . S
C167 C168 1.415 . S
C168 H144 0.950 . S
C168 C163 1.363 . S
C168 C167 1.415 . S
C169 H145 0.951 . S
C169 C170 1.366 . S
C169 C171 1.388 . S
C170 C169 1.366 . S
C170 C174 1.385 1_556 S
C171 H146 0.951 . S
C171 C169 1.388 . S
C171 C172 1.366 . S
C172 C171 1.366 . S
C172 C173 1.414 1_556 S
C172 C175 1.499 . S
C173 H147 0.950 . S
C173 C172 1.414 1_554 S
C173 C174 1.374 . S
C174 H148 0.950 . S
C174 C170 1.385 1_554 S
C174 C173 1.374 . S
C175 C172 1.499 . S
C175 C176 1.373 1_556 S
C175 C177 1.389 . S
C176 H149 0.950 . S
C176 C162 1.377 . S
C176 C175 1.373 1_554 S
C177 C161 1.377 . S
C177 C175 1.389 . S
C177 C178 1.524 . S
C178 C177 1.524 . S
C178 C179 1.397 . S
C178 C183 1.363 . S
C179 H150 0.950 . S
C179 C178 1.397 . S
C179 C180 1.334 . S
C180 H151 0.950 . S
C180 C179 1.334 . S
C180 C181 1.287 . S
C181 C180 1.287 . S
C181 C182 1.524 . S
C181 H184 0.999 . S
C182 H152 0.950 . S
C182 C181 1.524 . S
C182 C183 1.415 . S
C183 H153 0.950 . S
C183 C178 1.363 . S
C183 C182 1.415 . S
H184 C181 0.999 . S
H185 C166 0.913 . S
H186 C204 0.951 . S
H187 C206 0.951 1_556 S
H188 C208 0.950 . S
H189 C209 0.950 . S
H190 C211 0.950 . S
H191 C214 0.950 . S
H192 C215 0.950 . S
H193 C217 0.950 . S
H194 C218 0.950 . S
H195 C219 0.951 . S
H196 C221 0.951 . S
H197 C223 0.950 . S
H198 C224 0.950 . S
H199 C226 0.950 . S
H200 C229 0.950 . S
H201 C230 0.950 . S
H202 C232 0.950 . S
H203 C233 0.950 . S
C204 H186 0.951 . S
C204 C205 1.366 1_556 S
C204 C206 1.388 1_556 S
C205 C204 1.366 1_554 S
C205 C209 1.385 . S
C206 H187 0.951 1_554 S
C206 C204 1.388 1_554 S
C206 C207 1.366 . S
C207 C206 1.366 . S
C207 C208 1.414 . S
C207 C210 1.499 . S
C208 H188 0.950 . S
C208 C207 1.414 . S
C208 C209 1.374 . S
C209 H189 0.950 . S
C209 C205 1.385 . S
C209 C208 1.374 . S
C210 C207 1.499 . S
C210 C211 1.373 . S
C210 C212 1.389 . S
C211 H190 0.950 . S
C211 C210 1.373 . S
C211 C227 1.377 . S
C212 C210 1.389 . S
C212 C213 1.524 . S
C212 C226 1.377 . S
C213 C212 1.524 . S
C213 C214 1.397 . S
C213 C218 1.363 . S
C214 H191 0.950 . S
C214 C213 1.397 . S
C214 C215 1.334 . S
C215 H192 0.950 . S
C215 C214 1.334 . S
C215 C216 1.287 . S
C216 C215 1.287 . S
C216 C217 1.524 . S
C216 H235 0.915 1_565 S
C217 H193 0.950 . S
C217 C216 1.524 . S
C217 C218 1.415 . S
C218 H194 0.950 . S
C218 C213 1.363 . S
C218 C217 1.415 . S
C219 H195 0.951 . S
C219 C220 1.366 . S
C219 C221 1.388 . S
C220 C219 1.366 . S
C220 C224 1.385 . S
C221 H196 0.951 . S
C221 C219 1.388 . S
C221 C222 1.366 . S
C222 C221 1.366 . S
C222 C223 1.414 . S
C222 C225 1.499 . S
C223 H197 0.950 . S
C223 C222 1.414 . S
C223 C224 1.374 . S
C224 H198 0.950 . S
C224 C220 1.385 . S
C224 C223 1.374 . S
C225 C222 1.499 . S
C225 C226 1.373 . S
C225 C227 1.389 . S
C226 H199 0.950 . S
C226 C212 1.377 . S
C226 C225 1.373 . S
C227 C211 1.377 . S
C227 C225 1.389 . S
C227 C228 1.524 . S
C228 C227 1.524 . S
C228 C229 1.397 1_554 S
C228 C233 1.363 . S
C229 H200 0.950 . S
C229 C228 1.397 1_556 S
C229 C230 1.334 . S
C230 H201 0.950 . S
C230 C229 1.334 . S
C230 C231 1.287 . S
C231 C230 1.287 . S
C231 C232 1.524 1_556 S
C231 H234 0.999 . S
C232 H202 0.950 . S
C232 C231 1.524 1_554 S
C232 C233 1.415 . S
C233 H203 0.950 . S
C233 C228 1.363 . S
C233 C232 1.415 . S
H234 C231 0.999 . S
H235 C216 0.915 1_545 S
H236 C254 0.951 . S
H237 C256 0.951 1_554 S
H238 C258 0.950 . S
H239 C259 0.950 . S
H240 C261 0.950 . S
H241 C264 0.950 . S
H242 C265 0.950 . S
H243 C267 0.950 . S
H244 C268 0.950 . S
H245 C269 0.951 . S
H246 C271 0.951 . S
H247 C273 0.950 . S
H248 C274 0.950 . S
H249 C276 0.960 . S
H250 C279 0.950 . S
H251 C280 0.950 . S
H252 C282 0.950 . S
H253 C283 0.950 . S
C254 H236 0.951 . S
C254 C255 1.366 1_554 S
C254 C256 1.388 1_554 S
C255 C254 1.366 1_556 S
C255 C259 1.385 . S
C256 H237 0.951 1_556 S
C256 C254 1.388 1_556 S
C256 C257 1.366 . S
C257 C256 1.366 . S
C257 C258 1.414 . S
C257 C260 1.499 . S
C258 H238 0.950 . S
C258 C257 1.414 . S
C258 C259 1.374 . S
C259 H239 0.950 . S
C259 C255 1.385 . S
C259 C258 1.374 . S
C260 C257 1.499 . S
C260 C261 1.373 . S
C260 C262 1.389 1_556 S
C261 H240 0.950 . S
C261 C260 1.373 . S
C261 C277 1.377 . S
C262 C260 1.389 1_554 S
C262 C263 1.524 . S
C262 C276 1.380 . S
C263 C262 1.524 . S
C263 C264 1.397 . S
C263 C268 1.363 . S
C264 H241 0.950 . S
C264 C263 1.397 . S
C264 C265 1.334 . S
C265 H242 0.950 . S
C265 C264 1.334 . S
C265 C266 1.287 . S
C266 C265 1.287 . S
C266 C267 1.524 . S
C266 H285 0.913 . S
C267 H243 0.950 . S
C267 C266 1.524 . S
C267 C268 1.415 . S
C268 H244 0.950 . S
C268 C263 1.363 . S
C268 C267 1.415 . S
C269 H245 0.951 . S
C269 C270 1.366 . S
C269 C271 1.388 . S
C270 C269 1.366 . S
C270 C274 1.385 . S
C271 H246 0.951 . S
C271 C269 1.388 . S
C271 C272 1.366 . S
C272 C271 1.366 . S
C272 C273 1.414 . S
C272 C275 1.499 . S
C273 H247 0.950 . S
C273 C272 1.414 . S
C273 C274 1.374 . S
C274 H248 0.950 . S
C274 C270 1.385 . S
C274 C273 1.374 . S
C275 C272 1.499 . S
C275 C276 1.360 1_556 S
C275 C277 1.389 . S
C276 H249 0.960 . S
C276 C262 1.380 . S
C276 C275 1.360 1_554 S
C277 C261 1.377 . S
C277 C275 1.389 . S
C277 C278 1.524 . S
C278 C277 1.524 . S
C278 C279 1.397 . S
C278 C283 1.363 . S
C279 H250 0.950 . S
C279 C278 1.397 . S
C279 C280 1.334 . S
C280 H251 0.950 . S
C280 C279 1.334 . S
C280 C281 1.287 . S
C281 C280 1.287 . S
C281 C282 1.524 . S
C281 H284 0.999 . S
C282 H252 0.950 . S
C282 C281 1.524 . S
C282 C283 1.415 . S
C283 H253 0.950 . S
C283 C278 1.363 . S
C283 C282 1.415 . S
H284 C281 0.999 . S
H285 C266 0.913 . S
H286 C304 0.951 . S
H287 C306 0.951 . S
H288 C308 0.950 . S
H289 C309 0.950 . S
H290 C311 0.950 . S
H291 C314 0.950 . S
H292 C315 0.950 . S
H293 C317 0.950 . S
H294 C318 0.950 . S
H295 C319 0.951 . S
H296 C321 0.951 . S
H297 C323 0.950 . S
H298 C324 0.950 . S
H299 C326 0.950 . S
H300 C329 0.950 . S
H301 C330 0.950 . S
H302 C332 0.950 . S
H303 C333 0.950 . S
C304 H286 0.951 . S
C304 C305 1.366 . S
C304 C306 1.388 . S
C305 C304 1.366 . S
C305 C309 1.385 . S
C306 H287 0.951 . S
C306 C304 1.388 . S
C306 C307 1.366 . S
C307 C306 1.366 . S
C307 C308 1.414 . S
C307 C310 1.499 . S
C308 H288 0.950 . S
C308 C307 1.414 . S
C308 C309 1.374 . S
C309 H289 0.950 . S
C309 C305 1.385 . S
C309 C308 1.374 . S
C310 C307 1.499 . S
C310 C311 1.373 . S
C310 C312 1.389 . S
C311 H290 0.950 . S
C311 C310 1.373 . S
C311 C327 1.377 . S
C312 C310 1.389 . S
C312 C313 1.524 . S
C312 C326 1.377 . S
C313 C312 1.524 . S
C313 C314 1.397 . S
C313 C318 1.363 . S
C314 H291 0.950 . S
C314 C313 1.397 . S
C314 C315 1.334 . S
C315 H292 0.950 . S
C315 C314 1.334 . S
C315 C316 1.287 . S
C316 C315 1.287 . S
C316 C317 1.524 . S
C316 H335 0.913 . S
C317 H293 0.950 . S
C317 C316 1.524 . S
C317 C318 1.415 . S
C318 H294 0.950 . S
C318 C313 1.363 . S
C318 C317 1.415 . S
C319 H295 0.951 . S
C319 C320 1.366 . S
C319 C321 1.388 . S
C320 C319 1.366 . S
C320 C324 1.385 . S
C321 H296 0.951 . S
C321 C319 1.388 . S
C321 C322 1.366 . S
C322 C321 1.366 . S
C322 C323 1.414 . S
C322 C325 1.499 . S
C323 H297 0.950 . S
C323 C322 1.414 . S
C323 C324 1.374 . S
C324 H298 0.950 . S
C324 C320 1.385 . S
C324 C323 1.374 . S
C325 C322 1.499 . S
C325 C326 1.373 . S
C325 C327 1.389 . S
C326 H299 0.950 . S
C326 C312 1.377 . S
C326 C325 1.373 . S
C327 C311 1.377 . S
C327 C325 1.389 . S
C327 C328 1.524 . S
C328 C327 1.524 . S
C328 C329 1.397 . S
C328 C333 1.363 . S
C329 H300 0.950 . S
C329 C328 1.397 . S
C329 C330 1.334 . S
C330 H301 0.950 . S
C330 C329 1.334 . S
C330 C331 1.287 . S
C331 C330 1.287 . S
C331 C332 1.524 . S
C331 H334 0.999 . S
C332 H302 0.950 . S
C332 C331 1.524 . S
C332 C333 1.415 . S
C333 H303 0.950 . S
C333 C328 1.363 . S
C333 C332 1.415 . S
H334 C331 0.999 . S
H335 C316 0.913 . S
H336 C354 0.951 . S
H337 C356 0.951 . S
H338 C358 0.950 . S
H339 C359 0.950 . S
H340 C361 0.950 . S
H341 C364 0.950 . S
H342 C365 0.950 . S
H343 C367 0.950 . S
H344 C368 0.950 . S
H345 C369 0.951 . S
H346 C371 0.951 . S
H347 C373 0.950 . S
H348 C374 0.950 1_455 S
H349 C376 0.950 . S
H350 C379 0.950 . S
H351 C380 0.950 . S
H352 C382 0.950 . S
H353 C383 0.950 . S
C354 H336 0.951 . S
C354 C355 1.366 . S
C354 C356 1.388 . S
C355 C354 1.366 . S
C355 C359 1.385 . S
C356 H337 0.951 . S
C356 C354 1.388 . S
C356 C357 1.366 . S
C357 C356 1.366 . S
C357 C358 1.414 . S
C357 C360 1.499 . S
C358 H338 0.950 . S
C358 C357 1.414 . S
C358 C359 1.374 . S
C359 H339 0.950 . S
C359 C355 1.385 . S
C359 C358 1.374 . S
C360 C357 1.499 . S
C360 C361 1.373 . S
C360 C362 1.389 . S
C361 H340 0.950 . S
C361 C360 1.373 . S
C361 C377 1.377 . S
C362 C360 1.389 . S
C362 C363 1.524 . S
C362 C376 1.377 . S
C363 C362 1.524 . S
C363 C364 1.397 . S
C363 C368 1.363 . S
C364 H341 0.950 . S
C364 C363 1.397 . S
C364 C365 1.334 . S
C365 H342 0.950 . S
C365 C364 1.334 . S
C365 C366 1.287 . S
C366 C365 1.287 . S
C366 C367 1.524 . S
C366 H385 0.913 . S
C367 H343 0.950 . S
C367 C366 1.524 . S
C367 C368 1.415 . S
C368 H344 0.950 . S
C368 C363 1.363 . S
C368 C367 1.415 . S
C369 H345 0.951 . S
C369 C370 1.366 . S
C369 C371 1.388 . S
C370 C369 1.366 . S
C370 C374 1.385 . S
C371 H346 0.951 . S
C371 C369 1.388 . S
C371 C372 1.366 . S
C372 C371 1.366 . S
C372 C373 1.414 . S
C372 C375 1.499 . S
C373 H347 0.950 . S
C373 C372 1.414 . S
C373 C374 1.374 . S
C374 H348 0.950 1_655 S
C374 C370 1.385 . S
C374 C373 1.374 . S
C375 C372 1.499 . S
C375 C376 1.373 . S
C375 C377 1.389 . S
C376 H349 0.950 . S
C376 C362 1.377 . S
C376 C375 1.373 . S
C377 C361 1.377 . S
C377 C375 1.389 . S
C377 C378 1.524 . S
C378 C377 1.524 . S
C378 C379 1.397 . S
C378 C383 1.363 . S
C379 H350 0.950 . S
C379 C378 1.397 . S
C379 C380 1.334 . S
C380 H351 0.950 . S
C380 C379 1.334 . S
C380 C381 1.287 . S
C381 C380 1.287 . S
C381 C382 1.524 . S
C381 H384 0.999 . S
C382 H352 0.950 . S
C382 C381 1.524 . S
C382 C383 1.415 . S
C383 H353 0.950 . S
C383 C378 1.363 . S
C383 C382 1.415 . S
H384 C381 0.999 . S
H385 C366 0.913 . S
H386 C404 0.951 . S
H387 C406 0.951 . S
H388 C408 0.950 . S
H389 C409 0.950 . S
H390 C411 0.950 . S
H391 C414 0.950 . S
H392 C415 0.950 . S
H393 C417 0.950 . S
H394 C418 0.950 . S
H395 C419 0.951 . S
H396 C421 0.951 . S
H397 C423 0.950 . S
H398 C424 0.950 . S
H399 C426 0.950 . S
H400 C429 0.950 . S
H401 C430 0.950 . S
H402 C432 0.950 . S
H403 C433 0.950 . S
C404 H386 0.951 . S
C404 C405 1.366 . S
C404 C406 1.388 . S
C405 C404 1.366 . S
C405 C409 1.385 . S
C406 H387 0.951 . S
C406 C404 1.388 . S
C406 C407 1.366 . S
C407 C406 1.366 . S
C407 C408 1.414 . S
C407 C410 1.499 . S
C408 H388 0.950 . S
C408 C407 1.414 . S
C408 C409 1.374 . S
C409 H389 0.950 . S
C409 C405 1.385 . S
C409 C408 1.374 . S
C410 C407 1.499 . S
C410 C411 1.373 . S
C410 C412 1.389 . S
C411 H390 0.950 . S
C411 C410 1.373 . S
C411 C427 1.377 . S
C412 C410 1.389 . S
C412 C413 1.524 . S
C412 C426 1.377 . S
C413 C412 1.524 . S
C413 C414 1.397 . S
C413 C418 1.363 . S
C414 H391 0.950 . S
C414 C413 1.397 . S
C414 C415 1.334 . S
C415 H392 0.950 . S
C415 C414 1.334 . S
C415 C416 1.287 . S
C416 C415 1.287 . S
C416 C417 1.524 . S
C416 H435 0.913 . S
C417 H393 0.950 . S
C417 C416 1.524 . S
C417 C418 1.415 . S
C418 H394 0.950 . S
C418 C413 1.363 . S
C418 C417 1.415 . S
C419 H395 0.951 . S
C419 C420 1.366 . S
C419 C421 1.388 . S
C420 C419 1.366 . S
C420 C424 1.385 . S
C421 H396 0.951 . S
C421 C419 1.388 . S
C421 C422 1.366 . S
C422 C421 1.366 . S
C422 C423 1.414 . S
C422 C425 1.499 . S
C423 H397 0.950 . S
C423 C422 1.414 . S
C423 C424 1.374 . S
C424 H398 0.950 . S
C424 C420 1.385 . S
C424 C423 1.374 . S
C425 C422 1.499 . S
C425 C426 1.373 . S
C425 C427 1.389 . S
C426 H399 0.950 . S
C426 C412 1.377 . S
C426 C425 1.373 . S
C427 C411 1.377 . S
C427 C425 1.389 . S
C427 C428 1.524 . S
C428 C427 1.524 . S
C428 C429 1.397 . S
C428 C433 1.363 . S
C429 H400 0.950 . S
C429 C428 1.397 . S
C429 C430 1.334 . S
C430 H401 0.950 . S
C430 C429 1.334 . S
C430 C431 1.287 . S
C431 C430 1.287 . S
C431 C432 1.524 . S
C431 H434 0.999 . S
C432 H402 0.950 . S
C432 C431 1.524 . S
C432 C433 1.415 . S
C433 H403 0.950 . S
C433 C428 1.363 . S
C433 C432 1.415 . S
H434 C431 0.999 . S
H435 C416 0.913 . S
H436 C454 0.951 . S
H437 C456 0.951 . S
H438 C458 0.950 . S
H439 C459 0.950 . S
H440 C461 0.950 . S
H441 C464 0.950 . S
H442 C465 0.950 . S
H443 C467 0.950 . S
H444 C468 0.950 . S
H445 C469 0.951 . S
H446 C471 0.951 . S
H447 C473 0.950 . S
H448 C474 0.950 . S
H449 C476 0.950 . S
H450 C479 0.950 . S
H451 C480 0.950 . S
H452 C482 0.950 . S
H453 C483 0.950 . S
C454 H436 0.951 . S
C454 C455 1.366 . S
C454 C456 1.388 . S
C455 C454 1.366 . S
C455 C459 1.385 . S
C456 H437 0.951 . S
C456 C454 1.388 . S
C456 C457 1.366 . S
C457 C456 1.366 . S
C457 C458 1.414 . S
C457 C460 1.499 . S
C458 H438 0.950 . S
C458 C457 1.414 . S
C458 C459 1.374 . S
C459 H439 0.950 . S
C459 C455 1.385 . S
C459 C458 1.374 . S
C460 C457 1.499 . S
C460 C461 1.373 . S
C460 C462 1.389 . S
C461 H440 0.950 . S
C461 C460 1.373 . S
C461 C477 1.377 . S
C462 C460 1.389 . S
C462 C463 1.524 . S
C462 C476 1.377 . S
C463 C462 1.524 . S
C463 C464 1.397 . S
C463 C468 1.363 . S
C464 H441 0.950 . S
C464 C463 1.397 . S
C464 C465 1.334 . S
C465 H442 0.950 . S
C465 C464 1.334 . S
C465 C466 1.287 . S
C466 C465 1.287 . S
C466 C467 1.524 . S
C466 H485 0.913 . S
C467 H443 0.950 . S
C467 C466 1.524 . S
C467 C468 1.415 . S
C468 H444 0.950 . S
C468 C463 1.363 . S
C468 C467 1.415 . S
C469 H445 0.951 . S
C469 C470 1.366 . S
C469 C471 1.388 . S
C470 C469 1.366 . S
C470 C474 1.385 . S
C471 H446 0.951 . S
C471 C469 1.388 . S
C471 C472 1.366 . S
C472 C471 1.366 . S
C472 C473 1.414 . S
C472 C475 1.499 . S
C473 H447 0.950 . S
C473 C472 1.414 . S
C473 C474 1.374 . S
C474 H448 0.950 . S
C474 C470 1.385 . S
C474 C473 1.374 . S
C475 C472 1.499 . S
C475 C476 1.373 . S
C475 C477 1.389 . S
C476 H449 0.950 . S
C476 C462 1.377 . S
C476 C475 1.373 . S
C477 C461 1.377 . S
C477 C475 1.389 . S
C477 C478 1.524 . S
C478 C477 1.524 . S
C478 C479 1.397 . S
C478 C483 1.363 . S
C479 H450 0.950 . S
C479 C478 1.397 . S
C479 C480 1.334 . S
C480 H451 0.950 . S
C480 C479 1.334 . S
C480 C481 1.287 . S
C481 C480 1.287 . S
C481 C482 1.524 . S
C481 H484 0.999 . S
C482 H452 0.950 . S
C482 C481 1.524 . S
C482 C483 1.415 . S
C483 H453 0.950 . S
C483 C478 1.363 . S
C483 C482 1.415 . S
H484 C481 0.999 . S
H485 C466 0.913 . S
H486 C504 0.951 . S
H487 C506 0.951 . S
H488 C508 0.950 . S
H489 C509 0.950 . S
H490 C511 0.950 1_655 S
H491 C514 0.950 . S
H492 C515 0.950 . S
H493 C517 0.950 . S
H494 C518 0.950 . S
H495 C519 0.951 . S
H496 C521 0.951 . S
H497 C523 0.950 . S
H498 C524 0.950 . S
H499 C526 0.950 . S
H500 C529 0.950 . S
H501 C530 0.950 . S
H502 C532 0.950 . S
H503 C533 0.950 . S
C504 H486 0.951 . S
C504 C505 1.366 . S
C504 C506 1.388 . S
C505 C504 1.366 . S
C505 C509 1.385 1_545 S
C506 H487 0.951 . S
C506 C504 1.388 . S
C506 C507 1.353 1_545 S
C507 C506 1.353 1_565 S
C507 C508 1.424 . S
C507 C510 1.501 . S
C508 H488 0.950 . S
C508 C507 1.424 . S
C508 C509 1.374 . S
C509 H489 0.950 . S
C509 C505 1.385 1_565 S
C509 C508 1.374 . S
C510 C507 1.501 . S
C510 C511 1.373 . S
C510 C512 1.389 1_565 S
C511 H490 0.950 1_455 S
C511 C510 1.373 . S
C511 C527 1.377 . S
C512 C510 1.389 1_545 S
C512 C513 1.524 . S
C512 C526 1.377 . S
C513 C512 1.524 . S
C513 C514 1.397 1_545 S
C513 C518 1.363 . S
C514 H491 0.950 . S
C514 C513 1.397 1_565 S
C514 C515 1.334 . S
C515 H492 0.950 . S
C515 C514 1.334 . S
C515 C516 1.287 1_565 S
C516 C515 1.287 1_545 S
C516 C517 1.524 . S
C516 H535 0.913 . S
C517 H493 0.950 . S
C517 C516 1.524 . S
C517 C518 1.415 . S
C518 H494 0.950 . S
C518 C513 1.363 . S
C518 C517 1.415 . S
C519 H495 0.951 . S
C519 C520 1.366 . S
C519 C521 1.388 . S
C520 C519 1.366 . S
C520 C524 1.385 1_565 S
C521 H496 0.951 . S
C521 C519 1.388 . S
C521 C522 1.366 . S
C522 C521 1.366 . S
C522 C523 1.414 1_565 S
C522 C525 1.498 1_565 S
C523 H497 0.950 . S
C523 C522 1.414 1_545 S
C523 C524 1.374 . S
C524 H498 0.950 . S
C524 C520 1.385 1_545 S
C524 C523 1.374 . S
C525 C522 1.498 1_545 S
C525 C526 1.374 . S
C525 C527 1.389 1_545 S
C526 H499 0.950 . S
C526 C512 1.377 . S
C526 C525 1.374 . S
C527 C511 1.377 . S
C527 C525 1.389 1_565 S
C527 C528 1.524 1_455 S
C528 C527 1.524 1_655 S
C528 C529 1.397 1_565 S
C528 C533 1.363 . S
C529 H500 0.950 . S
C529 C528 1.397 1_545 S
C529 C530 1.334 . S
C530 H501 0.950 . S
C530 C529 1.334 . S
C530 C531 1.287 1_545 S
C531 C530 1.287 1_565 S
C531 C532 1.524 . S
C531 H534 0.999 . S
C532 H502 0.950 . S
C532 C531 1.524 . S
C532 C533 1.415 . S
C533 H503 0.950 . S
C533 C528 1.363 . S
C533 C532 1.415 . S
H534 C531 0.999 . S
H535 C516 0.913 . S
H536 C554 0.951 . S
H537 C556 0.951 . S
H538 C558 0.950 1_565 S
H539 C559 0.940 1_565 S
H540 C561 0.950 . S
H541 C564 0.950 . S
H542 C565 0.950 . S
H543 C567 0.950 . S
H544 C568 0.950 . S
H545 C569 0.951 . S
H546 C571 0.951 . S
H547 C573 0.950 . S
H548 C574 0.950 . S
H549 C576 0.950 . S
H550 C579 0.950 . S
H551 C580 0.950 . S
H552 C582 0.950 . S
H553 C583 0.950 . S
C554 H536 0.951 . S
C554 C555 1.366 . S
C554 C556 1.388 . S
C555 C554 1.366 . S
C555 C559 1.391 1_455 S
C556 H537 0.951 . S
C556 C554 1.388 . S
C556 C557 1.366 . S
C557 C556 1.366 . S
C557 C558 1.414 1_455 S
C557 C560 1.499 . S
C558 H538 0.950 1_545 S
C558 C557 1.414 1_655 S
C558 C559 1.377 . S
C559 H539 0.940 1_545 S
C559 C555 1.391 1_655 S
C559 C558 1.377 . S
C560 C557 1.499 . S
C560 C561 1.373 1_545 S
C560 C562 1.389 . S
C561 H540 0.950 . S
C561 C560 1.373 1_565 S
C561 C577 1.377 1_565 S
C562 C560 1.389 . S
C562 C563 1.524 . S
C562 C576 1.377 . S
C563 C562 1.524 . S
C563 C564 1.397 1_455 S
C563 C568 1.363 . S
C564 H541 0.950 . S
C564 C563 1.397 1_655 S
C564 C565 1.334 . S
C565 H542 0.950 . S
C565 C564 1.334 . S
C565 C566 1.300 . S
C566 C565 1.300 . S
C566 C567 1.505 1_655 S
C566 H585 0.918 . S
C567 H543 0.950 . S
C567 C566 1.505 1_455 S
C567 C568 1.415 . S
C568 H544 0.950 . S
C568 C563 1.363 . S
C568 C567 1.415 . S
C569 H545 0.951 . S
C569 C570 1.366 . S
C569 C571 1.388 . S
C570 C569 1.366 . S
C570 C574 1.385 1_655 S
C571 H546 0.951 . S
C571 C569 1.388 . S
C571 C572 1.366 1_655 S
C572 C571 1.366 1_455 S
C572 C573 1.414 . S
C572 C575 1.499 . S
C573 H547 0.950 . S
C573 C572 1.414 . S
C573 C574 1.374 . S
C574 H548 0.950 . S
C574 C570 1.385 1_455 S
C574 C573 1.374 . S
C575 C572 1.499 . S
C575 C576 1.373 . S
C575 C577 1.389 . S
C576 H549 0.950 . S
C576 C562 1.377 . S
C576 C575 1.373 . S
C577 C561 1.377 1_545 S
C577 C575 1.389 . S
C577 C578 1.524 1_545 S
C578 C577 1.524 1_565 S
C578 C579 1.397 . S
C578 C583 1.363 1_455 S
C579 H550 0.950 . S
C579 C578 1.397 . S
C579 C580 1.334 . S
C580 H551 0.950 . S
C580 C579 1.334 . S
C580 C581 1.287 . S
C581 C580 1.287 . S
C581 C582 1.524 1_455 S
C581 H584 0.999 . S
C582 H552 0.950 . S
C582 C581 1.524 1_655 S
C582 C583 1.415 . S
C583 H553 0.950 . S
C583 C578 1.363 1_655 S
C583 C582 1.415 . S
H584 C581 0.999 . S
H585 C566 0.918 . S
H586 C604 0.951 . S
H587 C606 0.951 . S
H588 C608 0.950 . S
H589 C609 0.950 . S
H590 C611 0.950 . S
H591 C614 0.950 . S
H592 C615 0.950 . S
H593 C617 0.950 . S
H594 C618 0.950 . S
H595 C619 0.951 . S
H596 C621 0.951 . S
H597 C623 0.950 . S
H598 C624 0.950 . S
H599 C626 0.950 . S
H600 C629 0.950 . S
H601 C630 0.950 . S
H602 C632 0.950 . S
H603 C633 0.950 . S
C604 H586 0.951 . S
C604 C605 1.366 . S
C604 C606 1.388 . S
C605 C604 1.366 . S
C605 C609 1.385 . S
C606 H587 0.951 . S
C606 C604 1.388 . S
C606 C607 1.366 . S
C607 C606 1.366 . S
C607 C608 1.414 . S
C607 C610 1.499 . S
C608 H588 0.950 . S
C608 C607 1.414 . S
C608 C609 1.374 . S
C609 H589 0.950 . S
C609 C605 1.385 . S
C609 C608 1.374 . S
C610 C607 1.499 . S
C610 C611 1.373 . S
C610 C612 1.389 . S
C611 H590 0.950 . S
C611 C610 1.373 . S
C611 C627 1.377 . S
C612 C610 1.389 . S
C612 C613 1.524 . S
C612 C626 1.377 . S
C613 C612 1.524 . S
C613 C614 1.397 . S
C613 C618 1.363 . S
C614 H591 0.950 . S
C614 C613 1.397 . S
C614 C615 1.334 . S
C615 H592 0.950 . S
C615 C614 1.334 . S
C615 C616 1.287 . S
C616 C615 1.287 . S
C616 C617 1.524 . S
C616 H635 0.913 . S
C617 H593 0.950 . S
C617 C616 1.524 . S
C617 C618 1.415 . S
C618 H594 0.950 . S
C618 C613 1.363 . S
C618 C617 1.415 . S
C619 H595 0.951 . S
C619 C620 1.366 . S
C619 C621 1.388 . S
C620 C619 1.366 . S
C620 C624 1.385 . S
C621 H596 0.951 . S
C621 C619 1.388 . S
C621 C622 1.366 . S
C622 C621 1.366 . S
C622 C623 1.414 . S
C622 C625 1.499 . S
C623 H597 0.950 . S
C623 C622 1.414 . S
C623 C624 1.374 . S
C624 H598 0.950 . S
C624 C620 1.385 . S
C624 C623 1.374 . S
C625 C622 1.499 . S
C625 C626 1.373 . S
C625 C627 1.389 . S
C626 H599 0.950 . S
C626 C612 1.377 . S
C626 C625 1.373 . S
C627 C611 1.377 . S
C627 C625 1.389 . S
C627 C628 1.524 . S
C628 C627 1.524 . S
C628 C629 1.397 . S
C628 C633 1.363 . S
C629 H600 0.950 . S
C629 C628 1.397 . S
C629 C630 1.334 . S
C630 H601 0.950 . S
C630 C629 1.334 . S
C630 C631 1.287 . S
C631 C630 1.287 . S
C631 C632 1.524 . S
C631 H634 0.999 . S
C632 H602 0.950 . S
C632 C631 1.524 . S
C632 C633 1.415 . S
C633 H603 0.950 . S
C633 C628 1.363 . S
C633 C632 1.415 . S
H634 C631 0.999 . S
H635 C616 0.913 . S
H636 C654 0.951 . S
H637 C656 0.951 . S
H638 C658 0.950 . S
H639 C659 0.950 . S
H640 C661 0.950 . S
H641 C664 0.950 . S
H642 C665 0.950 . S
H643 C667 0.950 . S
H644 C668 0.950 . S
H645 C669 0.951 . S
H646 C671 0.951 . S
H647 C673 0.950 . S
H648 C674 0.950 . S
H649 C676 0.950 . S
H650 C679 0.950 . S
H651 C680 0.950 . S
H652 C682 0.950 . S
H653 C683 0.950 . S
C654 H636 0.951 . S
C654 C655 1.366 . S
C654 C656 1.388 . S
C655 C654 1.366 . S
C655 C659 1.385 . S
C656 H637 0.951 . S
C656 C654 1.388 . S
C656 C657 1.366 . S
C657 C656 1.366 . S
C657 C658 1.414 . S
C657 C660 1.499 . S
C658 H638 0.950 . S
C658 C657 1.414 . S
C658 C659 1.374 . S
C659 H639 0.950 . S
C659 C655 1.385 . S
C659 C658 1.374 . S
C660 C657 1.499 . S
C660 C661 1.373 . S
C660 C662 1.389 . S
C661 H640 0.950 . S
C661 C660 1.373 . S
C661 C677 1.377 . S
C662 C660 1.389 . S
C662 C663 1.524 . S
C662 C676 1.377 . S
C663 C662 1.524 . S
C663 C664 1.397 . S
C663 C668 1.363 . S
C664 H641 0.950 . S
C664 C663 1.397 . S
C664 C665 1.334 . S
C665 H642 0.950 . S
C665 C664 1.334 . S
C665 C666 1.287 . S
C666 C665 1.287 . S
C666 C667 1.524 . S
C666 H685 0.913 . S
C667 H643 0.950 . S
C667 C666 1.524 . S
C667 C668 1.415 . S
C668 H644 0.950 . S
C668 C663 1.363 . S
C668 C667 1.415 . S
C669 H645 0.951 . S
C669 C670 1.366 . S
C669 C671 1.388 . S
C670 C669 1.366 . S
C670 C674 1.385 . S
C671 H646 0.951 . S
C671 C669 1.388 . S
C671 C672 1.366 . S
C672 C671 1.366 . S
C672 C673 1.414 . S
C672 C675 1.499 . S
C673 H647 0.950 . S
C673 C672 1.414 . S
C673 C674 1.374 . S
C674 H648 0.950 . S
C674 C670 1.385 . S
C674 C673 1.374 . S
C675 C672 1.499 . S
C675 C676 1.373 . S
C675 C677 1.389 . S
C676 H649 0.950 . S
C676 C662 1.377 . S
C676 C675 1.373 . S
C677 C661 1.377 . S
C677 C675 1.389 . S
C677 C678 1.524 . S
C678 C677 1.524 . S
C678 C679 1.397 . S
C678 C683 1.363 . S
C679 H650 0.950 . S
C679 C678 1.397 . S
C679 C680 1.334 . S
C680 H651 0.950 . S
C680 C679 1.334 . S
C680 C681 1.287 . S
C681 C680 1.287 . S
C681 C682 1.524 . S
C681 H684 0.999 . S
C682 H652 0.950 . S
C682 C681 1.524 . S
C682 C683 1.415 . S
C683 H653 0.950 . S
C683 C678 1.363 . S
C683 C682 1.415 . S
H684 C681 0.999 . S
H685 C666 0.913 . S
C120 C81 1.429 . S
C105 C15 1.280 . S
C155 C13 1.374 . S
C170 N68 1.349 . S
C205 C18 1.255 . S
C220 N79 1.398 . S
C255 C17 1.407 . S
C270 C70 1.447 . S
C305 C36 1.281 . S
C320 C59 1.428 1_565 S
C355 C34 1.373 . S
C370 N46 1.349 . S
C420 N57 1.398 . S
C405 C39 1.254 . S
C470 C48 1.447 . S
C455 C38 1.407 . S
C505 C14 1.575 . S
C520 C51 1.621 . S
C555 C16 1.380 . S
C570 C62 1.406 . S
C620 C73 1.621 . S
C605 C35 1.574 . S
C655 C37 1.380 . S
C670 C84 1.406 . S
