# Generated by pormake.
# Topology pth, (4,4)-cn, num edge types: 1
# Building blocks:
#     Node 0, Type 0, BuildingBlock: GALJAG_clean_sbu_0, # of connection points: 4
#     Node 1, Type 0, BuildingBlock: GALJAG_clean_sbu_0, # of connection points: 4
#     Node 2, Type 0, BuildingBlock: GALJAG_clean_sbu_0, # of connection points: 4
#     Node 3, Type 1, BuildingBlock: NAHDIM_clean_linker_0, # of connection points: 4
#     Node 4, Type 1, BuildingBlock: NAHDIM_clean_linker_0, # of connection points: 4
#     Node 5, Type 1, BuildingBlock: NAHDIM_clean_linker_0, # of connection points: 4
#     Edge 6, Type (0, 1), BuildingBlock: XIVTED_clean_linker_0, # of connection points: 2
#     Edge 7, Type (0, 1), BuildingBlock: XIVTED_clean_linker_0, # of connection points: 2
#     Edge 8, Type (0, 1), BuildingBlock: XIVTED_clean_linker_0, # of connection points: 2
#     Edge 9, Type (0, 1), BuildingBlock: XIVTED_clean_linker_0, # of connection points: 2
#     Edge 10, Type (0, 1), BuildingBlock: XIVTED_clean_linker_0, # of connection points: 2
#     Edge 11, Type (0, 1), BuildingBlock: XIVTED_clean_linker_0, # of connection points: 2
#     Edge 12, Type (0, 1), BuildingBlock: XIVTED_clean_linker_0, # of connection points: 2
#     Edge 13, Type (0, 1), BuildingBlock: XIVTED_clean_linker_0, # of connection points: 2
#     Edge 14, Type (0, 1), BuildingBlock: XIVTED_clean_linker_0, # of connection points: 2
#     Edge 15, Type (0, 1), BuildingBlock: XIVTED_clean_linker_0, # of connection points: 2
#     Edge 16, Type (0, 1), BuildingBlock: XIVTED_clean_linker_0, # of connection points: 2
#     Edge 17, Type (0, 1), BuildingBlock: XIVTED_clean_linker_0, # of connection points: 2
# Relax obj value: 0.024
# Max RMSD: 0.068
# Mean RMSD: 0.066
data_MOF--net-pth--node1-GALJAG_clean_sbu_0--node2-NAHDIM_clean_linker_0--edge1-XIVTED_clean_linker_0
_symmetry_space_group_name_H-M    P1
_symmetry_Int_Tables_number       1
_symmetry_cell_setting            triclinic
loop_
_symmetry_equiv_pos_as_xyz
'x, y, z'
_cell_length_a     32.544213
_cell_length_b     32.468378
_cell_length_c     79.019347
_cell_angle_alpha  89.871505
_cell_angle_beta   90.772231
_cell_angle_gamma 119.9909
loop_
_atom_site_label
_atom_site_type_symbol
_atom_site_fract_x
_atom_site_fract_y
_atom_site_fract_z
_atom_type_partial_charge
In0 In 0.02002 0.04437 0.04762 0.0
O1 O 0.01462 0.11137 0.05085 0.0
O2 O 0.99178 0.06246 0.07115 0.0
C3 C 0.9387 0.98838 0.03013 0.0
C4 C 0.09779 0.09863 0.02898 0.0
C5 C 0.04444 0.98869 0.06561 0.0
O6 O 0.94653 0.97852 0.04482 0.0
O7 O 0.97082 0.02765 0.02458 0.0
O8 O 0.02991 0.97981 0.05047 0.0
O9 O 0.04912 0.02701 0.07137 0.0
C10 C 0.99905 0.10203 0.0657 0.0
O11 O 0.09439 0.10801 0.04419 0.0
O12 O 0.06312 0.06046 0.02349 0.0
In13 In 0.00741 0.03797 0.38097 0.0
O14 O 0.0599 0.11639 0.3756 0.0
O15 O 0.00532 0.07716 0.35742 0.0
C16 C 0.08097 0.04547 0.39973 0.0
C17 C 0.93623 0.03541 0.3992 0.0
C18 C 0.97444 0.95684 0.36275 0.0
O19 O 0.06866 0.0239 0.38572 0.0
O20 O 0.05698 0.06433 0.4041 0.0
O21 O 0.96021 0.95715 0.3775 0.0
O22 O 0.00445 0.99715 0.35725 0.0
C23 C 0.04083 0.11648 0.36159 0.0
O24 O 0.94857 0.05574 0.38508 0.0
O25 O 0.95873 0.01503 0.40391 0.0
In26 In 0.02026 0.03476 0.71356 0.0
O27 O 0.97153 0.95469 0.71734 0.0
O28 O 0.98096 0.00038 0.73794 0.0
C29 C 0.07787 0.0127 0.69625 0.0
C30 C 0.96209 0.05615 0.69581 0.0
C31 C 0.08339 0.11804 0.7284 0.0
O32 O 0.086 0.02715 0.71137 0.0
O33 O 0.04037 0.00886 0.68986 0.0
O34 O 0.0604 0.1159 0.71516 0.0
O35 O 0.07443 0.07827 0.73423 0.0
C36 C 0.96146 0.95834 0.7324 0.0
O37 O 0.95905 0.05 0.71162 0.0
O38 O 0.99415 0.05111 0.68897 0.0
C39 C 0.85893 0.65162 0.28215 0.0
C40 C 0.90265 0.66807 0.29376 0.0
C41 C 0.95806 0.65406 0.27686 0.0
C42 C 0.00261 0.67698 0.26937 0.0
C43 C 0.0202 0.6513 0.26087 0.0
C44 C 0.99146 0.60135 0.25923 0.0
C45 C 0.94658 0.57767 0.26706 0.0
C46 C 0.9307 0.6042 0.27609 0.0
C47 C 0.06924 0.67783 0.25347 0.0
C48 C 0.91499 0.52441 0.26568 0.0
C49 C 0.16883 0.41362 0.27697 0.0
C50 C 0.13046 0.40459 0.28988 0.0
C51 C 0.07831 0.42795 0.27473 0.0
C52 C 0.03312 0.41012 0.26755 0.0
C53 C 0.01963 0.44015 0.25953 0.0
C54 C 0.05273 0.48933 0.25839 0.0
C55 C 0.09829 0.50796 0.26595 0.0
C56 C 0.11056 0.47712 0.27419 0.0
C57 C 0.97026 0.41912 0.25202 0.0
C58 C 0.13428 0.56029 0.265 0.0
C59 C 0.0787 0.43313 0.15044 0.0
C60 C 0.03266 0.41463 0.15666 0.0
C61 C 0.01915 0.44425 0.16483 0.0
C62 C 0.05255 0.49324 0.16688 0.0
C63 C 0.09831 0.51229 0.15994 0.0
C64 C 0.11059 0.48192 0.15159 0.0
C65 C 0.96946 0.42305 0.17153 0.0
C66 C 0.13459 0.56438 0.16176 0.0
C67 C 0.90758 0.73327 0.15377 0.0
C68 C 0.95429 0.73496 0.14988 0.0
C69 C 0.96205 0.6641 0.15139 0.0
C70 C 0.93256 0.61487 0.15224 0.0
C71 C 0.94781 0.58632 0.16039 0.0
C72 C 0.99421 0.60769 0.16742 0.0
C73 C 0.02523 0.65724 0.16566 0.0
C74 C 0.00873 0.68502 0.15772 0.0
C75 C 0.91395 0.53358 0.16188 0.0
C76 C 0.07553 0.68091 0.17244 0.0
C77 C 0.00794 0.57414 0.249 0.0
C78 C 0.02399 0.54694 0.25753 0.0
C79 C 0.04006 0.52065 0.24865 0.0
C80 C 0.04148 0.52236 0.23077 0.0
C81 C 0.05869 0.49736 0.22149 0.0
C82 C 0.0586 0.49805 0.20389 0.0
C83 C 0.04152 0.52396 0.19488 0.0
C84 C 0.04012 0.52387 0.17698 0.0
C85 C 0.02493 0.55167 0.1684 0.0
C86 C 0.00961 0.57865 0.17725 0.0
C87 C 0.0086 0.5774 0.19515 0.0
C88 C 0.99092 0.60198 0.20443 0.0
C89 C 0.99019 0.60059 0.22203 0.0
C90 C 0.0077 0.57508 0.23108 0.0
C91 C 0.02498 0.54945 0.22196 0.0
C92 C 0.0252 0.55041 0.20399 0.0
C93 C 0.12968 0.36342 0.1549 0.0
C94 C 0.08334 0.36057 0.14906 0.0
O95 O 0.94302 0.68177 0.28432 0.0
O96 O 0.94438 0.69034 0.1444 0.0
O97 O 0.09328 0.40488 0.14319 0.0
O98 O 0.089 0.39612 0.28171 0.0
H99 H 0.89694 0.63862 0.30241 0.0
H100 H 0.85178 0.61973 0.27473 0.0
H101 H 0.86423 0.68006 0.27311 0.0
H102 H 0.8271 0.6422 0.28984 0.0
H103 H 0.02373 0.71541 0.27022 0.0
H104 H 0.89665 0.58575 0.28219 0.0
H105 H 0.08876 0.6584 0.25586 0.0
H106 H 0.09035 0.71433 0.2588 0.0
H107 H 0.06628 0.68077 0.23957 0.0
H108 H 0.87893 0.51215 0.27064 0.0
H109 H 0.93114 0.5067 0.27297 0.0
H110 H 0.91166 0.5128 0.25227 0.0
H111 H 0.14336 0.43599 0.29842 0.0
H112 H 0.20155 0.41914 0.28359 0.0
H113 H 0.17807 0.44591 0.26945 0.0
H114 H 0.15632 0.38303 0.26809 0.0
H115 H 0.00838 0.37221 0.26815 0.0
H116 H 0.14548 0.49165 0.2799 0.0
H117 H 0.9537 0.44026 0.25595 0.0
H118 H 0.94699 0.38156 0.25587 0.0
H119 H 0.97228 0.42036 0.238 0.0
H120 H 0.16883 0.56902 0.27097 0.0
H121 H 0.12039 0.58108 0.27146 0.0
H122 H 0.14026 0.5717 0.25157 0.0
H123 H 0.05987 0.34993 0.16028 0.0
H124 H 0.00728 0.37711 0.15512 0.0
H125 H 0.14577 0.49588 0.14645 0.0
H126 H 0.97075 0.4232 0.18558 0.0
H127 H 0.94613 0.38588 0.1671 0.0
H128 H 0.95345 0.44483 0.16754 0.0
H129 H 0.16911 0.57336 0.15607 0.0
H130 H 0.1405 0.57448 0.17536 0.0
H131 H 0.12105 0.58602 0.15552 0.0
H132 H 0.97537 0.74498 0.16192 0.0
H133 H 0.91443 0.76849 0.15839 0.0
H134 H 0.88857 0.70657 0.16378 0.0
H135 H 0.88438 0.72314 0.14229 0.0
H136 H 0.89685 0.59908 0.14704 0.0
H137 H 0.03225 0.72297 0.15644 0.0
H138 H 0.91014 0.52293 0.17539 0.0
H139 H 0.92848 0.51378 0.15515 0.0
H140 H 0.87827 0.52286 0.15649 0.0
H141 H 0.0968 0.71843 0.16825 0.0
H142 H 0.09323 0.66106 0.16827 0.0
H143 H 0.07512 0.6804 0.18649 0.0
H144 H 0.0234 0.54573 0.27125 0.0
H145 H 0.07232 0.47682 0.22772 0.0
H146 H 0.07212 0.47798 0.19744 0.0
H147 H 0.0245 0.55189 0.15467 0.0
H148 H 0.97713 0.62237 0.19819 0.0
H149 H 0.97573 0.61985 0.22844 0.0
H150 H 0.15493 0.37393 0.14426 0.0
H151 H 0.12273 0.32851 0.15989 0.0
H152 H 0.14638 0.39031 0.16518 0.0
C153 C 0.27336 0.88181 0.63201 0.0
C154 C 0.29832 0.93619 0.63314 0.0
C155 C 0.34945 0.97583 0.60937 0.0
C156 C 0.37248 0.02418 0.60543 0.0
C157 C 0.41564 0.0456 0.59677 0.0
C158 C 0.43529 0.01748 0.59159 0.0
C159 C 0.41179 0.9684 0.59544 0.0
C160 C 0.36908 0.94812 0.60434 0.0
C161 C 0.43999 0.09808 0.59298 0.0
C162 C 0.43126 0.93719 0.5898 0.0
C163 C 0.79619 0.20334 0.61823 0.0
C164 C 0.76416 0.15673 0.62752 0.0
C165 C 0.69498 0.11012 0.60866 0.0
C166 C 0.67078 0.06754 0.59959 0.0
C167 C 0.62767 0.05436 0.59124 0.0
C168 C 0.60916 0.08561 0.59149 0.0
C169 C 0.63313 0.12863 0.60082 0.0
C170 C 0.67555 0.14022 0.60951 0.0
C171 C 0.60231 0.00724 0.58201 0.0
C172 C 0.61432 0.16269 0.60139 0.0
C173 C 0.6942 0.12442 0.4839 0.0
C174 C 0.66805 0.07778 0.48999 0.0
C175 C 0.62459 0.0622 0.49805 0.0
C176 C 0.60718 0.09404 0.5001 0.0
C177 C 0.63247 0.14037 0.49328 0.0
C178 C 0.67552 0.15477 0.48507 0.0
C179 C 0.5977 0.01197 0.50464 0.0
C180 C 0.61468 0.17501 0.49509 0.0
C181 C 0.21868 0.92137 0.49053 0.0
C182 C 0.26043 0.96856 0.48471 0.0
C183 C 0.34158 0.98314 0.48527 0.0
C184 C 0.36484 0.95702 0.48686 0.0
C185 C 0.41012 0.97714 0.49438 0.0
C186 C 0.43291 0.02496 0.50002 0.0
C187 C 0.41089 0.05261 0.49731 0.0
C188 C 0.36525 0.03131 0.49 0.0
C189 C 0.43284 0.94682 0.49686 0.0
C190 C 0.43499 0.10417 0.50262 0.0
C191 C 0.47955 0.03891 0.58164 0.0
C192 C 0.52259 0.05476 0.59033 0.0
C193 C 0.56536 0.07356 0.58165 0.0
C194 C 0.56552 0.07753 0.56381 0.0
C195 C 0.60802 0.09738 0.55471 0.0
C196 C 0.60758 0.09862 0.53712 0.0
C197 C 0.56463 0.08033 0.52793 0.0
C198 C 0.56361 0.0794 0.51002 0.0
C199 C 0.52043 0.06208 0.50127 0.0
C200 C 0.47783 0.04471 0.50996 0.0
C201 C 0.47801 0.04424 0.52787 0.0
C202 C 0.43561 0.02569 0.537 0.0
C203 C 0.43605 0.02439 0.5546 0.0
C204 C 0.47886 0.04141 0.56377 0.0
C205 C 0.52202 0.06068 0.55483 0.0
C206 C 0.52159 0.06209 0.53687 0.0
C207 C 0.81571 0.17845 0.48822 0.0
C208 C 0.77241 0.13177 0.4825 0.0
O209 O 0.30693 0.95595 0.61711 0.0
O210 O 0.29626 0.96068 0.47927 0.0
O211 O 0.73737 0.14109 0.47681 0.0
O212 O 0.73709 0.12072 0.61605 0.0
H213 H 0.33249 0.94909 0.64024 0.0
H214 H 0.29776 0.87021 0.62718 0.0
H215 H 0.24173 0.86773 0.62349 0.0
H216 H 0.26194 0.86596 0.64477 0.0
H217 H 0.35659 0.04509 0.60923 0.0
H218 H 0.35045 0.91043 0.60689 0.0
H219 H 0.47703 0.11587 0.59796 0.0
H220 H 0.42134 0.11546 0.59858 0.0
H221 H 0.44169 0.1034 0.57906 0.0
H222 H 0.40859 0.8996 0.59371 0.0
H223 H 0.46746 0.95082 0.59521 0.0
H224 H 0.43424 0.93839 0.5758 0.0
H225 H 0.7406 0.16223 0.63618 0.0
H226 H 0.81885 0.23169 0.62747 0.0
H227 H 0.77463 0.21538 0.61105 0.0
H228 H 0.81932 0.1987 0.60913 0.0
H229 H 0.68585 0.0444 0.59911 0.0
H230 H 0.69355 0.17312 0.61662 0.0
H231 H 0.6066 0.01343 0.56817 0.0
H232 H 0.56374 0.98857 0.58467 0.0
H233 H 0.61659 0.98365 0.5856 0.0
H234 H 0.63909 0.19644 0.60803 0.0
H235 H 0.57987 0.14574 0.60802 0.0
H236 H 0.60783 0.17106 0.58833 0.0
H237 H 0.76046 0.10817 0.49378 0.0
H238 H 0.68153 0.05355 0.48844 0.0
H239 H 0.69566 0.19043 0.48003 0.0
H240 H 0.5983 0.0127 0.51869 0.0
H241 H 0.61315 0.9901 0.50036 0.0
H242 H 0.56 0.99458 0.5004 0.0
H243 H 0.63906 0.21012 0.4894 0.0
H244 H 0.6104 0.18026 0.5087 0.0
H245 H 0.57926 0.16022 0.48887 0.0
H246 H 0.27236 0.99283 0.4959 0.0
H247 H 0.18951 0.92672 0.49509 0.0
H248 H 0.2303 0.90681 0.50111 0.0
H249 H 0.20501 0.89497 0.48001 0.0
H250 H 0.34651 0.92011 0.48284 0.0
H251 H 0.34801 0.05218 0.48809 0.0
H252 H 0.44037 0.94527 0.51052 0.0
H253 H 0.46722 0.96308 0.49019 0.0
H254 H 0.41003 0.90997 0.49203 0.0
H255 H 0.41594 0.12228 0.49776 0.0
H256 H 0.47202 0.12333 0.49801 0.0
H257 H 0.43658 0.10659 0.51665 0.0
H258 H 0.52267 0.05141 0.60399 0.0
H259 H 0.64213 0.11178 0.56109 0.0
H260 H 0.64137 0.11384 0.53081 0.0
H261 H 0.51987 0.06129 0.48754 0.0
H262 H 0.40149 0.01159 0.53067 0.0
H263 H 0.40229 0.00946 0.56091 0.0
H264 H 0.82953 0.20416 0.4776 0.0
H265 H 0.84428 0.17195 0.49295 0.0
H266 H 0.80574 0.19449 0.49865 0.0
C267 C 0.77726 0.67396 0.81887 0.0
C268 C 0.74656 0.68007 0.8053 0.0
C269 C 0.67168 0.65655 0.82013 0.0
C270 C 0.64339 0.67372 0.82663 0.0
C271 C 0.60092 0.64359 0.8349 0.0
C272 C 0.58696 0.59508 0.83708 0.0
C273 C 0.61492 0.57711 0.83028 0.0
C274 C 0.65676 0.60791 0.82169 0.0
C275 C 0.57129 0.66381 0.84148 0.0
C276 C 0.60096 0.52552 0.83231 0.0
C277 C 0.24657 0.33635 0.78483 0.0
C278 C 0.2755 0.37903 0.79542 0.0
C279 C 0.33699 0.40379 0.81744 0.0
C280 C 0.36357 0.38856 0.82676 0.0
C281 C 0.40438 0.42095 0.83582 0.0
C282 C 0.41783 0.46971 0.83603 0.0
C283 C 0.3908 0.4854 0.8267 0.0
C284 C 0.35086 0.4523 0.81733 0.0
C285 C 0.43301 0.40292 0.84515 0.0
C286 C 0.40383 0.537 0.82677 0.0
C287 C 0.32348 0.4215 0.94224 0.0
C288 C 0.35162 0.40236 0.93713 0.0
C289 C 0.39603 0.43139 0.92982 0.0
C290 C 0.41216 0.48035 0.92741 0.0
C291 C 0.3848 0.50006 0.93331 0.0
C292 C 0.34096 0.47033 0.94088 0.0
C293 C 0.42517 0.40956 0.92429 0.0
C294 C 0.40112 0.55216 0.93111 0.0
C295 C 0.78786 0.72742 0.94034 0.0
C296 C 0.7468 0.7326 0.94704 0.0
C297 C 0.66961 0.66034 0.94565 0.0
C298 C 0.6534 0.61167 0.94461 0.0
C299 C 0.61086 0.58088 0.93605 0.0
C300 C 0.58351 0.59936 0.92876 0.0
C301 C 0.59842 0.64822 0.93067 0.0
C302 C 0.6415 0.67829 0.93907 0.0
C303 C 0.59577 0.52891 0.93439 0.0
C304 C 0.56925 0.66877 0.92358 0.0
C305 C 0.5437 0.56359 0.84682 0.0
C306 C 0.50215 0.53297 0.83783 0.0
C307 C 0.45975 0.50394 0.84623 0.0
C308 C 0.45823 0.50631 0.86406 0.0
C309 C 0.41561 0.47957 0.87284 0.0
C310 C 0.41472 0.48109 0.8904 0.0
C311 C 0.45645 0.50931 0.89991 0.0
C312 C 0.45613 0.51022 0.91781 0.0
C313 C 0.49796 0.53968 0.92684 0.0
C314 C 0.54054 0.56813 0.91847 0.0
C315 C 0.54182 0.56685 0.90059 0.0
C316 C 0.58433 0.59407 0.89179 0.0
C317 C 0.5851 0.59298 0.8742 0.0
C318 C 0.54342 0.56453 0.86472 0.0
C319 C 0.50039 0.53615 0.87334 0.0
C320 C 0.49955 0.53745 0.89129 0.0
C321 C 0.20013 0.34621 0.9385 0.0
C322 C 0.24694 0.34822 0.943 0.0
O323 O 0.71304 0.6884 0.81274 0.0
O324 O 0.71227 0.68902 0.9532 0.0
O325 O 0.27932 0.39389 0.94845 0.0
O326 O 0.29835 0.37055 0.80874 0.0
H327 H 0.72846 0.64738 0.79732 0.0
H328 H 0.75542 0.64251 0.82686 0.0
H329 H 0.79486 0.70576 0.82726 0.0
H330 H 0.80488 0.66864 0.81281 0.0
H331 H 0.65492 0.71116 0.82523 0.0
H332 H 0.67772 0.59373 0.81649 0.0
H333 H 0.53344 0.64049 0.83782 0.0
H334 H 0.5834 0.70022 0.83666 0.0
H335 H 0.57354 0.66543 0.85551 0.0
H336 H 0.62843 0.5179 0.82752 0.0
H337 H 0.56726 0.50282 0.82527 0.0
H338 H 0.59471 0.51536 0.84586 0.0
H339 H 0.25838 0.40015 0.79886 0.0
H340 H 0.28441 0.35424 0.7601 0.0
H341 H 0.2089 0.32901 0.78582 0.0
H342 H 0.24008 0.30455 0.79267 0.0
H343 H 0.3526 0.35106 0.82669 0.0
H344 H 0.33028 0.46436 0.8102 0.0
H345 H 0.42762 0.40349 0.85897 0.0
H346 H 0.47146 0.42622 0.84274 0.0
H347 H 0.42247 0.36593 0.84141 0.0
H348 H 0.37658 0.54269 0.82028 0.0
H349 H 0.43815 0.5585 0.82028 0.0
H350 H 0.40849 0.55036 0.83999 0.0
H351 H 0.25928 0.33922 0.93122 0.0
H352 H 0.33888 0.36477 0.9388 0.0
H353 H 0.31922 0.48478 0.94516 0.0
H354 H 0.42517 0.4081 0.91026 0.0
H355 H 0.41101 0.3729 0.92921 0.0
H356 H 0.46256 0.4318 0.92868 0.0
H357 H 0.37486 0.56158 0.93584 0.0
H358 H 0.40754 0.56175 0.91752 0.0
H359 H 0.43522 0.57388 0.93805 0.0
H360 H 0.73284 0.7443 0.93624 0.0
H361 H 0.81592 0.76178 0.93516 0.0
H362 H 0.77481 0.70047 0.93001 0.0
H363 H 0.80351 0.71577 0.95057 0.0
H364 H 0.67507 0.59815 0.95004 0.0
H365 H 0.65313 0.71572 0.94053 0.0
H366 H 0.59134 0.51864 0.92081 0.0
H367 H 0.56089 0.507 0.94048 0.0
H368 H 0.62181 0.52045 0.94031 0.0
H369 H 0.58286 0.70605 0.9278 0.0
H370 H 0.53172 0.64684 0.92747 0.0
H371 H 0.56983 0.6681 0.90954 0.0
H372 H 0.50288 0.53156 0.82413 0.0
H373 H 0.38239 0.45714 0.86621 0.0
H374 H 0.38085 0.45969 0.89643 0.0
H375 H 0.49736 0.54052 0.94056 0.0
H376 H 0.61756 0.61657 0.89839 0.0
H377 H 0.61887 0.61464 0.86814 0.0
H378 H 0.18569 0.35503 0.94972 0.0
H379 H 0.1736 0.31016 0.93382 0.0
H380 H 0.20598 0.37224 0.92835 0.0
H381 H 0.96751 0.09092 0.09822 0.0
H382 H 0.09841 0.36966 0.11453 0.0
H383 H 0.02759 0.19468 0.05838 0.0
H384 H 0.01738 0.26627 0.15261 0.0
H385 H 0.06717 0.30624 0.09327 0.0
H386 H 0.97861 0.15406 0.11777 0.0
C387 C 0.98223 0.12687 0.09352 0.0
C388 C 0.99709 0.13769 0.07671 0.0
C389 C 0.05551 0.29746 0.10621 0.0
C390 C 0.0107 0.21024 0.09905 0.0
C391 C 0.07324 0.33371 0.11834 0.0
C392 C 0.0599 0.32325 0.13532 0.0
C393 C 0.025 0.25022 0.11114 0.0
C394 C 0.02809 0.27586 0.13962 0.0
C395 C 0.98869 0.16294 0.10469 0.0
C396 C 0.01588 0.18482 0.07127 0.0
N397 N 0.01203 0.24104 0.12765 0.0
N398 N 0.0228 0.21948 0.08247 0.0
H399 H 0.90577 0.99681 0.4305 0.0
H400 H 0.78346 0.15274 0.44839 0.0
H401 H 0.88959 0.08437 0.39288 0.0
H402 H 0.79477 0.06101 0.48541 0.0
H403 H 0.81478 0.12178 0.42699 0.0
H404 H 0.85747 0.01301 0.44984 0.0
C405 C 0.89153 0.01895 0.42624 0.0
C406 C 0.90203 0.03962 0.41013 0.0
C407 C 0.80979 0.10787 0.43973 0.0
C408 C 0.84717 0.05877 0.43223 0.0
C409 C 0.79173 0.12541 0.45191 0.0
C410 C 0.78603 0.10898 0.46864 0.0
C411 C 0.82291 0.07415 0.44434 0.0
C412 C 0.79821 0.07426 0.47262 0.0
C413 C 0.86403 0.02829 0.43729 0.0
C414 C 0.88257 0.06793 0.40523 0.0
N415 N 0.81633 0.05821 0.46059 0.0
N416 N 0.85649 0.07707 0.4163 0.0
H417 H 0.91632 0.86418 0.72343 0.0
H418 H 0.78879 0.7754 0.81288 0.0
H419 H 0.93368 0.95817 0.76486 0.0
H420 H 0.77622 0.67979 0.77276 0.0
H421 H 0.84057 0.84285 0.79511 0.0
H422 H 0.86349 0.79613 0.7409 0.0
C423 C 0.90899 0.87048 0.7362 0.0
C424 C 0.92941 0.91686 0.74273 0.0
C425 C 0.82641 0.80717 0.79013 0.0
C426 C 0.86906 0.83928 0.76276 0.0
C427 C 0.79677 0.7687 0.80026 0.0
C428 C 0.77772 0.72199 0.79419 0.0
C429 C 0.83737 0.79901 0.77379 0.0
C430 C 0.78975 0.71526 0.77784 0.0
C431 C 0.87887 0.83164 0.74617 0.0
C432 C 0.91872 0.923 0.75934 0.0
N433 N 0.81873 0.75335 0.76819 0.0
N434 N 0.88929 0.88468 0.76877 0.0
H435 H 0.0199 0.89727 0.05763 0.0
H436 H 0.02308 0.82804 0.15457 0.0
H437 H 0.07383 0.99902 0.09869 0.0
H438 H 0.94369 0.72666 0.11505 0.0
H439 H 0.05766 0.89088 0.1333 0.0
H440 H 0.00869 0.83474 0.0775 0.0
C441 C 0.03037 0.90666 0.07076 0.0
C442 C 0.04724 0.95327 0.07658 0.0
C443 C 0.03331 0.85475 0.12924 0.0
C444 C 0.03401 0.88187 0.09938 0.0
C445 C 0.01374 0.81891 0.14136 0.0
C446 C 0.98086 0.77207 0.13654 0.0
C447 C 0.01959 0.84375 0.11217 0.0
C448 C 0.96931 0.76221 0.11928 0.0
C449 C 0.02368 0.87089 0.08211 0.0
C450 C 0.06029 0.96344 0.09371 0.0
N451 N 0.98845 0.79781 0.10773 0.0
N452 N 0.05287 0.9279 0.10456 0.0
H453 H 0.11171 0.08706 0.43087 0.0
H454 H 0.24929 0.94613 0.45066 0.0
H455 H 0.13233 0.00137 0.39403 0.0
H456 H 0.23328 0.03583 0.48699 0.0
H457 H 0.21439 0.97314 0.4288 0.0
H458 H 0.16413 0.07638 0.45059 0.0
C459 C 0.12776 0.06648 0.42686 0.0
C460 C 0.11729 0.04463 0.41087 0.0
C461 C 0.21912 0.9875 0.44149 0.0
C462 C 0.17689 0.03185 0.4334 0.0
C463 C 0.23921 0.97222 0.45394 0.0
C464 C 0.2446 0.9892 0.4706 0.0
C465 C 0.2036 0.01943 0.44578 0.0
C466 C 0.2301 0.02223 0.47426 0.0
C467 C 0.15763 0.06033 0.43813 0.0
C468 C 0.13919 0.01854 0.40629 0.0
N469 N 0.20997 0.03604 0.46198 0.0
N470 N 0.16756 0.01245 0.41757 0.0
H471 H 0.09557 0.20648 0.72263 0.0
H472 H 0.34682 0.34555 0.78635 0.0
H473 H 0.152 0.13293 0.75177 0.0
H474 H 0.24843 0.42146 0.76595 0.0
H475 H 0.27716 0.26127 0.76853 0.0
H476 H 0.15594 0.28182 0.73544 0.0
C477 C 0.12067 0.20623 0.73171 0.0
C478 C 0.11884 0.16352 0.7362 0.0
C479 C 0.27456 0.2932 0.76843 0.0
C480 C 0.1879 0.24913 0.75062 0.0
C481 C 0.31922 0.34561 0.77857 0.0
C482 C 0.30113 0.39148 0.78045 0.0
C483 C 0.22508 0.29346 0.75839 0.0
C484 C 0.25721 0.39343 0.76567 0.0
C485 C 0.15493 0.24912 0.73902 0.0
C486 C 0.1521 0.16508 0.74804 0.0
N487 N 0.22092 0.34165 0.75734 0.0
N488 N 0.18557 0.20734 0.75477 0.0
H489 H 0.89648 0.07747 0.70795 0.0
H490 H 0.82206 0.12413 0.61599 0.0
H491 H 0.95878 0.0661 0.66159 0.0
H492 H 0.77425 0.15564 0.66227 0.0
H493 H 0.8696 0.09916 0.6326 0.0
H494 H 0.84814 0.10216 0.69155 0.0
C495 C 0.89985 0.08002 0.69432 0.0
C496 C 0.93166 0.06975 0.6861 0.0
C497 C 0.84879 0.11158 0.63915 0.0
C498 C 0.87662 0.09796 0.66729 0.0
C499 C 0.8217 0.12583 0.62968 0.0
C500 C 0.79411 0.14185 0.63778 0.0
C501 C 0.8483 0.11316 0.6569 0.0
C502 C 0.79489 0.14337 0.65554 0.0
C503 C 0.87238 0.09424 0.68498 0.0
C504 C 0.93473 0.07372 0.66843 0.0
N505 N 0.82146 0.12906 0.66452 0.0
N506 N 0.90753 0.08747 0.65962 0.0
H507 H 0.91462 0.00086 0.998 0.0
H508 H 0.75833 0.72271 0.98129 0.0
H509 H 0.87419 0.89608 0.03747 0.0
H510 H 0.77822 0.82779 0.94388 0.0
H511 H 0.79549 0.78574 0.0026 0.0
H512 H 0.85914 0.93873 0.97861 0.0
C513 C 0.89342 0.96492 0.00267 0.0
C514 C 0.89931 0.95349 0.01931 0.0
C515 C 0.79103 0.79501 0.9898 0.0
C516 C 0.83641 0.88208 0.99713 0.0
C517 C 0.76969 0.75899 0.97765 0.0
C518 C 0.76454 0.77002 0.96085 0.0
C519 C 0.80831 0.84255 0.98506 0.0
C520 C 0.781 0.81778 0.95674 0.0
C521 C 0.86183 0.92942 0.99158 0.0
C522 C 0.87091 0.90639 0.02471 0.0
N523 N 0.80246 0.85232 0.96872 0.0
N524 N 0.84119 0.87227 0.01358 0.0
H525 H 0.92319 0.86417 0.37336 0.0
H526 H 0.93539 0.75947 0.28303 0.0
H527 H 0.99145 0.94983 0.32959 0.0
H528 H 0.88604 0.67283 0.32779 0.0
H529 H 0.94912 0.82845 0.29967 0.0
H530 H 0.90252 0.79246 0.35668 0.0
C531 C 0.93346 0.86782 0.36022 0.0
C532 C 0.95911 0.91293 0.35283 0.0
C533 C 0.93536 0.79445 0.30591 0.0
C534 C 0.93568 0.83144 0.33375 0.0
C535 C 0.92753 0.75508 0.29641 0.0
C536 C 0.91022 0.71055 0.3041 0.0
C537 C 0.92561 0.78945 0.32329 0.0
C538 C 0.89994 0.70667 0.32143 0.0
C539 C 0.92183 0.82697 0.35074 0.0
C540 C 0.97179 0.91576 0.33581 0.0
N541 N 0.90798 0.74571 0.33049 0.0
N542 N 0.95996 0.87563 0.32687 0.0
H543 H 0.0686 0.98212 0.66346 0.0
H544 H 0.30841 0.96938 0.66587 0.0
H545 H 0.16063 0.01886 0.70741 0.0
H546 H 0.21702 0.93433 0.62186 0.0
H547 H 0.25544 0.98891 0.68123 0.0
H548 H 0.12299 0.96517 0.64792 0.0
C549 C 0.10024 0.98656 0.66984 0.0
C550 C 0.1101 0.00184 0.68675 0.0
C551 C 0.24707 0.97719 0.66818 0.0
C552 C 0.17258 0.98262 0.66905 0.0
C553 C 0.27737 0.9662 0.65942 0.0
C554 C 0.26735 0.9508 0.64252 0.0
C555 C 0.20621 0.97234 0.66004 0.0
C556 C 0.22628 0.94661 0.63481 0.0
C557 C 0.13133 0.97695 0.66096 0.0
C558 C 0.15165 0.00709 0.69439 0.0
N559 N 0.19724 0.9573 0.64363 0.0
N560 N 0.18135 0.99748 0.68549 0.0
H561 H 0.16542 0.19031 0.03635 0.0
H562 H 0.22599 0.25602 0.93888 0.0
H563 H 0.11261 0.08696 0.99579 0.0
H564 H 0.24701 0.35787 0.97781 0.0
H565 H 0.20162 0.1943 0.96052 0.0
H566 H 0.21359 0.25214 0.01599 0.0
C567 C 0.16479 0.18042 0.02322 0.0
C568 C 0.13451 0.13357 0.01769 0.0
C569 C 0.21238 0.23034 0.96436 0.0
C570 C 0.18909 0.20414 0.99435 0.0
C571 C 0.22644 0.26553 0.95204 0.0
C572 C 0.23896 0.31215 0.95658 0.0
C573 C 0.21056 0.24178 0.98135 0.0
C574 C 0.23818 0.32251 0.97378 0.0
C575 C 0.19205 0.21579 0.0116 0.0
C576 C 0.13513 0.12275 0.00055 0.0
N577 N 0.22397 0.28754 0.98553 0.0
N578 N 0.16154 0.1579 0.98944 0.0
H579 H 0.10952 0.20802 0.36922 0.0
H580 H 0.07831 0.31045 0.28064 0.0
H581 H 0.01029 0.12225 0.32988 0.0
H582 H 0.15946 0.40061 0.32257 0.0
H583 H 0.05937 0.24064 0.29776 0.0
H584 H 0.13435 0.27869 0.3516 0.0
C585 C 0.09315 0.20406 0.35685 0.0
C586 C 0.0577 0.1593 0.351 0.0
C587 C 0.08124 0.27564 0.30327 0.0
C588 C 0.0859 0.23968 0.33084 0.0
C589 C 0.092 0.31546 0.2935 0.0
C590 C 0.11967 0.36132 0.30034 0.0
C591 C 0.09861 0.28155 0.31997 0.0
C592 C 0.13738 0.36584 0.31694 0.0
C593 C 0.10724 0.24436 0.34683 0.0
C594 C 0.03762 0.1561 0.33491 0.0
N595 N 0.12638 0.32641 0.32624 0.0
N596 N 0.05198 0.19573 0.3254 0.0
loop_
_geom_bond_atom_site_label_1
_geom_bond_atom_site_label_2
_geom_bond_distance
_geom_bond_site_symmetry_2
_ccdc_geom_bond_type
In0 O1 2.294 1_455 S
In0 O2 2.326 . S
In0 O6 2.266 1_445 S
In0 O7 2.326 1_445 S
In0 O8 2.266 1_545 S
In0 O9 2.326 1_445 S
In0 O11 2.294 . S
In0 O12 2.326 . S
O1 In0 2.294 1_655 S
O1 C10 1.240 1_655 S
O2 In0 2.326 . S
O2 C10 1.252 . S
C3 O6 1.252 . S
C3 O7 1.260 . S
C4 O11 1.240 . S
C4 O12 1.252 . S
C5 O8 1.252 . S
C5 O9 1.260 1_455 S
O6 In0 2.266 1_665 S
O6 C3 1.252 . S
O7 In0 2.326 1_665 S
O7 C3 1.260 . S
O8 In0 2.266 1_565 S
O8 C5 1.252 . S
O9 In0 2.326 1_665 S
O9 C5 1.260 1_655 S
C10 O1 1.240 1_455 S
C10 O2 1.252 . S
O11 In0 2.294 . S
O11 C4 1.240 . S
O12 In0 2.326 . S
O12 C4 1.252 . S
In13 O14 2.294 . S
In13 O15 2.326 1_455 S
In13 O19 2.266 . S
In13 O20 2.326 . S
In13 O21 2.266 1_445 S
In13 O22 2.326 . S
In13 O24 2.294 1_455 S
In13 O25 2.326 1_455 S
O14 In13 2.294 . S
O14 C23 1.240 . S
O15 In13 2.326 1_655 S
O15 C23 1.252 1_655 S
C16 O19 1.252 . S
C16 O20 1.260 . S
C17 O24 1.240 . S
C17 O25 1.252 . S
C18 O21 1.252 1_455 S
C18 O22 1.260 1_565 S
O19 In13 2.266 . S
O19 C16 1.252 . S
O20 In13 2.326 . S
O20 C16 1.260 . S
O21 In13 2.266 1_665 S
O21 C18 1.252 1_655 S
O22 In13 2.326 . S
O22 C18 1.260 1_545 S
C23 O14 1.240 . S
C23 O15 1.252 1_455 S
O24 In13 2.294 1_655 S
O24 C17 1.240 . S
O25 In13 2.326 1_655 S
O25 C17 1.252 . S
In26 O27 2.294 1_445 S
In26 O28 2.326 1_455 S
In26 O32 2.266 . S
In26 O33 2.326 . S
In26 O34 2.266 . S
In26 O35 2.326 . S
In26 O37 2.294 1_455 S
In26 O38 2.326 1_445 S
O27 In26 2.294 1_665 S
O27 C36 1.240 . S
O28 In26 2.326 1_655 S
O28 C36 1.252 1_545 S
C29 O32 1.252 . S
C29 O33 1.260 . S
C30 O37 1.240 . S
C30 O38 1.252 1_545 S
C31 O34 1.252 . S
C31 O35 1.260 . S
O32 In26 2.266 . S
O32 C29 1.252 . S
O33 In26 2.326 . S
O33 C29 1.260 . S
O34 In26 2.266 . S
O34 C31 1.252 . S
O35 In26 2.326 . S
O35 C31 1.260 . S
C36 O27 1.240 . S
C36 O28 1.252 1_565 S
O37 In26 2.294 1_655 S
O37 C30 1.240 . S
O38 In26 2.326 1_665 S
O38 C30 1.252 1_565 S
C39 C40 1.560 . S
C39 H100 0.959 . S
C39 H101 0.959 . S
C39 H102 0.960 . S
C40 C39 1.560 . S
C40 O95 1.426 . S
C40 H99 0.980 1_655 S
C41 C42 1.407 1_655 S
C41 C46 1.418 . S
C41 O95 1.334 . S
C42 C41 1.407 1_455 S
C42 C43 1.360 . S
C42 H103 0.929 . S
C43 C42 1.360 . S
C43 C44 1.401 . S
C43 C47 1.527 . S
C44 C43 1.401 . S
C44 C45 1.405 1_455 S
C44 C77 1.587 . S
C45 C44 1.405 1_655 S
C45 C46 1.332 . S
C45 C48 1.496 . S
C46 C41 1.418 . S
C46 C45 1.332 . S
C46 H104 0.929 . S
C47 C43 1.527 . S
C47 H105 0.959 . S
C47 H106 0.961 . S
C47 H107 0.961 . S
C48 C45 1.496 . S
C48 H108 0.960 . S
C48 H109 0.960 . S
C48 H110 0.961 . S
C49 C50 1.517 . S
C49 H112 0.961 . S
C49 H113 0.960 . S
C49 H114 0.959 . S
C50 C49 1.517 . S
C50 O98 1.468 . S
C50 H111 0.980 . S
C51 C52 1.349 . S
C51 C56 1.367 . S
C51 O98 1.408 . S
C52 C51 1.349 . S
C52 C53 1.407 . S
C52 H115 0.930 . S
C53 C52 1.407 . S
C53 C54 1.449 . S
C53 C57 1.535 1_455 S
C54 C53 1.449 . S
C54 C55 1.384 . S
C54 C79 1.553 . S
C55 C54 1.384 . S
C55 C56 1.364 . S
C55 C58 1.450 . S
C56 C51 1.367 . S
C56 C55 1.364 . S
C56 H116 0.931 . S
C57 C53 1.535 1_655 S
C57 H117 0.959 . S
C57 H118 0.961 . S
C57 H119 0.959 . S
C58 C55 1.450 . S
C58 H120 0.960 . S
C58 H121 0.960 . S
C58 H122 0.960 . S
C59 C60 1.309 . S
C59 C64 1.304 . S
C59 O97 1.435 . S
C60 C59 1.309 . S
C60 C61 1.476 . S
C60 H124 0.930 1_455 S
C61 C60 1.476 . S
C61 C62 1.400 . S
C61 C65 1.567 1_455 S
C62 C61 1.400 . S
C62 C63 1.373 . S
C62 C84 1.432 . S
C63 C62 1.373 . S
C63 C64 1.339 . S
C63 C66 1.530 . S
C64 C59 1.304 . S
C64 C63 1.339 . S
C64 H125 0.930 . S
C65 C61 1.567 1_655 S
C65 H126 0.961 . S
C65 H127 0.960 . S
C65 H128 0.958 . S
C66 C63 1.530 . S
C66 H129 0.961 . S
C66 H130 0.960 . S
C66 H131 0.960 . S
C67 C68 1.530 1_655 S
C67 H133 0.961 . S
C67 H134 0.961 . S
C67 H135 0.959 . S
C68 C67 1.530 1_455 S
C68 O96 1.412 1_455 S
C68 H132 0.980 . S
C69 C70 1.288 . S
C69 C74 1.377 1_655 S
C69 O96 1.393 . S
C70 C69 1.288 . S
C70 C71 1.369 . S
C70 H136 0.932 . S
C71 C70 1.369 . S
C71 C72 1.398 1_655 S
C71 C75 1.527 . S
C72 C71 1.398 1_455 S
C72 C73 1.380 . S
C72 C86 1.497 . S
C73 C72 1.380 . S
C73 C74 1.383 . S
C73 C76 1.603 . S
C74 C69 1.377 1_455 S
C74 C73 1.383 . S
C74 H137 0.929 . S
C75 C71 1.527 . S
C75 H138 0.961 . S
C75 H139 0.959 . S
C75 H140 0.959 . S
C76 C73 1.603 . S
C76 H141 0.960 . S
C76 H142 0.962 . S
C76 H143 0.961 . S
C77 C44 1.587 . S
C77 C78 1.360 . S
C77 C90 1.412 . S
C78 C77 1.360 . S
C78 C79 1.365 . S
C78 H144 0.929 . S
C79 C54 1.553 . S
C79 C78 1.365 . S
C79 C80 1.404 . S
C80 C79 1.404 . S
C80 C81 1.395 . S
C80 C91 1.451 . S
C81 C80 1.395 . S
C81 C82 1.322 . S
C81 H145 0.930 . S
C82 C81 1.322 . S
C82 C83 1.459 . S
C82 H146 0.929 . S
C83 C82 1.459 . S
C83 C84 1.445 . S
C83 C92 1.395 . S
C84 C62 1.432 . S
C84 C83 1.445 . S
C84 C85 1.370 . S
C85 C84 1.370 . S
C85 C86 1.438 . S
C85 H147 0.930 . S
C86 C72 1.497 . S
C86 C85 1.438 . S
C86 C87 1.360 . S
C87 C86 1.360 . S
C87 C88 1.401 . S
C87 C92 1.446 . S
C88 C87 1.401 . S
C88 C89 1.347 . S
C88 H148 0.929 . S
C89 C88 1.347 . S
C89 C90 1.455 . S
C89 H149 0.930 . S
C90 C77 1.412 . S
C90 C89 1.455 . S
C90 C91 1.331 . S
C91 C80 1.451 . S
C91 C90 1.331 . S
C91 C92 1.497 . S
C92 C83 1.395 . S
C92 C87 1.446 . S
C92 C91 1.497 . S
C93 C94 1.582 . S
C93 H150 0.962 . S
C93 H151 0.959 . S
C93 H152 0.958 . S
C94 C93 1.582 . S
C94 O97 1.458 . S
C94 H123 0.980 . S
O95 C40 1.426 . S
O95 C41 1.334 . S
O96 C68 1.412 1_655 S
O96 C69 1.393 . S
O97 C59 1.435 . S
O97 C94 1.458 . S
O98 C50 1.468 . S
O98 C51 1.408 . S
H99 C40 0.980 1_455 S
H100 C39 0.959 . S
H101 C39 0.959 . S
H102 C39 0.960 . S
H103 C42 0.929 . S
H104 C46 0.929 . S
H105 C47 0.959 . S
H106 C47 0.961 . S
H107 C47 0.961 . S
H108 C48 0.960 . S
H109 C48 0.960 . S
H110 C48 0.961 . S
H111 C50 0.980 . S
H112 C49 0.961 . S
H113 C49 0.960 . S
H114 C49 0.959 . S
H115 C52 0.930 . S
H116 C56 0.931 . S
H117 C57 0.959 . S
H118 C57 0.961 . S
H119 C57 0.959 . S
H120 C58 0.960 . S
H121 C58 0.960 . S
H122 C58 0.960 . S
H123 C94 0.980 . S
H124 C60 0.930 1_655 S
H125 C64 0.930 . S
H126 C65 0.961 . S
H127 C65 0.960 . S
H128 C65 0.958 . S
H129 C66 0.961 . S
H130 C66 0.960 . S
H131 C66 0.960 . S
H132 C68 0.980 . S
H133 C67 0.961 . S
H134 C67 0.961 . S
H135 C67 0.959 . S
H136 C70 0.932 . S
H137 C74 0.929 . S
H138 C75 0.961 . S
H139 C75 0.959 . S
H140 C75 0.959 . S
H141 C76 0.960 . S
H142 C76 0.962 . S
H143 C76 0.961 . S
H144 C78 0.929 . S
H145 C81 0.930 . S
H146 C82 0.929 . S
H147 C85 0.930 . S
H148 C88 0.929 . S
H149 C89 0.930 . S
H150 C93 0.962 . S
H151 C93 0.959 . S
H152 C93 0.958 . S
C153 C154 1.560 1_565 S
C153 H214 0.959 . S
C153 H215 0.959 . S
C153 H216 0.960 . S
C154 C153 1.560 1_545 S
C154 O209 1.426 1_545 S
C154 H213 0.980 . S
C155 C156 1.407 . S
C155 C160 1.418 1_545 S
C155 O209 1.334 1_545 S
C156 C155 1.407 . S
C156 C157 1.360 . S
C156 H217 0.929 . S
C157 C156 1.360 . S
C157 C158 1.401 . S
C157 C161 1.527 . S
C158 C157 1.401 . S
C158 C159 1.405 1_545 S
C158 C191 1.587 . S
C159 C158 1.405 1_565 S
C159 C160 1.332 . S
C159 C162 1.496 . S
C160 C155 1.418 1_565 S
C160 C159 1.332 . S
C160 H218 0.929 . S
C161 C157 1.527 . S
C161 H219 0.959 . S
C161 H220 0.961 . S
C161 H221 0.961 . S
C162 C159 1.496 . S
C162 H222 0.960 . S
C162 H223 0.960 . S
C162 H224 0.961 . S
C163 C164 1.517 . S
C163 H226 0.961 . S
C163 H227 0.960 . S
C163 H228 0.959 . S
C164 C163 1.517 . S
C164 O212 1.468 . S
C164 H225 0.980 . S
C165 C166 1.349 . S
C165 C170 1.367 . S
C165 O212 1.408 . S
C166 C165 1.349 . S
C166 C167 1.407 . S
C166 H229 0.930 . S
C167 C166 1.407 . S
C167 C168 1.449 . S
C167 C171 1.535 1_545 S
C168 C167 1.449 . S
C168 C169 1.384 . S
C168 C193 1.553 . S
C169 C168 1.384 . S
C169 C170 1.364 . S
C169 C172 1.450 . S
C170 C165 1.367 . S
C170 C169 1.364 . S
C170 H230 0.931 . S
C171 C167 1.535 1_565 S
C171 H231 0.948 1_565 S
C171 H232 0.961 . S
C171 H233 0.959 . S
C172 C169 1.450 . S
C172 H234 0.960 . S
C172 H235 0.960 . S
C172 H236 0.960 . S
C173 C174 1.309 . S
C173 C178 1.304 . S
C173 O211 1.435 . S
C174 C173 1.309 . S
C174 C175 1.476 . S
C174 H238 0.930 . S
C175 C174 1.476 . S
C175 C176 1.400 . S
C175 C179 1.567 1_545 S
C176 C175 1.400 . S
C176 C177 1.373 . S
C176 C198 1.432 . S
C177 C176 1.373 . S
C177 C178 1.339 . S
C177 C180 1.530 . S
C178 C173 1.304 . S
C178 C177 1.339 . S
C178 H239 0.930 . S
C179 C175 1.567 1_565 S
C179 H240 0.961 . S
C179 H241 0.960 . S
C179 H242 0.958 . S
C180 C177 1.530 . S
C180 H243 0.961 . S
C180 H244 0.960 . S
C180 H245 0.960 . S
C181 C182 1.530 . S
C181 H247 0.961 . S
C181 H248 0.961 1_545 S
C181 H249 0.959 1_545 S
C182 C181 1.530 . S
C182 O210 1.412 . S
C182 H246 0.980 . S
C183 C184 1.288 1_545 S
C183 C188 1.377 . S
C183 O210 1.393 . S
C184 C183 1.288 1_565 S
C184 C185 1.369 . S
C184 H250 0.932 . S
C185 C184 1.369 . S
C185 C186 1.398 1_565 S
C185 C189 1.527 . S
C186 C185 1.398 1_545 S
C186 C187 1.380 . S
C186 C200 1.497 . S
C187 C186 1.380 . S
C187 C188 1.383 . S
C187 C190 1.603 . S
C188 C183 1.377 . S
C188 C187 1.383 . S
C188 H251 0.929 . S
C189 C185 1.527 . S
C189 H252 0.961 . S
C189 H253 0.959 . S
C189 H254 0.959 . S
C190 C187 1.603 . S
C190 H255 0.960 . S
C190 H256 0.962 . S
C190 H257 0.961 . S
C191 C158 1.587 . S
C191 C192 1.360 . S
C191 C204 1.412 . S
C192 C191 1.360 . S
C192 C193 1.365 . S
C192 H258 0.929 . S
C193 C168 1.553 . S
C193 C192 1.365 . S
C193 C194 1.404 . S
C194 C193 1.404 . S
C194 C195 1.395 . S
C194 C205 1.451 . S
C195 C194 1.395 . S
C195 C196 1.322 . S
C195 H259 0.930 . S
C196 C195 1.322 . S
C196 C197 1.459 . S
C196 H260 0.929 . S
C197 C196 1.459 . S
C197 C198 1.445 . S
C197 C206 1.395 . S
C198 C176 1.432 . S
C198 C197 1.445 . S
C198 C199 1.370 . S
C199 C198 1.370 . S
C199 C200 1.438 . S
C199 H261 0.930 . S
C200 C186 1.497 . S
C200 C199 1.438 . S
C200 C201 1.360 . S
C201 C200 1.360 . S
C201 C202 1.401 . S
C201 C206 1.446 . S
C202 C201 1.401 . S
C202 C203 1.347 . S
C202 H262 0.929 . S
C203 C202 1.347 . S
C203 C204 1.455 . S
C203 H263 0.930 . S
C204 C191 1.412 . S
C204 C203 1.455 . S
C204 C205 1.331 . S
C205 C194 1.451 . S
C205 C204 1.331 . S
C205 C206 1.497 . S
C206 C197 1.395 . S
C206 C201 1.446 . S
C206 C205 1.497 . S
C207 C208 1.582 . S
C207 H264 0.962 . S
C207 H265 0.959 . S
C207 H266 0.958 . S
C208 C207 1.582 . S
C208 O211 1.458 . S
C208 H237 0.980 . S
O209 C154 1.426 1_565 S
O209 C155 1.334 1_565 S
O210 C182 1.412 . S
O210 C183 1.393 . S
O211 C173 1.435 . S
O211 C208 1.458 . S
O212 C164 1.468 . S
O212 C165 1.408 . S
H213 C154 0.980 . S
H214 C153 0.959 . S
H215 C153 0.959 . S
H216 C153 0.960 . S
H217 C156 0.929 . S
H218 C160 0.929 . S
H219 C161 0.959 . S
H220 C161 0.961 . S
H221 C161 0.961 . S
H222 C162 0.960 . S
H223 C162 0.960 . S
H224 C162 0.961 . S
H225 C164 0.980 . S
H226 C163 0.961 . S
H227 C163 0.960 . S
H228 C163 0.959 . S
H229 C166 0.930 . S
H230 C170 0.931 . S
H231 C171 0.948 1_545 S
H232 C171 0.961 . S
H233 C171 0.959 . S
H234 C172 0.960 . S
H235 C172 0.960 . S
H236 C172 0.960 . S
H237 C208 0.980 . S
H238 C174 0.930 . S
H239 C178 0.930 . S
H240 C179 0.961 . S
H241 C179 0.960 . S
H242 C179 0.958 . S
H243 C180 0.961 . S
H244 C180 0.960 . S
H245 C180 0.960 . S
H246 C182 0.980 . S
H247 C181 0.961 . S
H248 C181 0.961 1_565 S
H249 C181 0.959 1_565 S
H250 C184 0.932 . S
H251 C188 0.929 . S
H252 C189 0.961 . S
H253 C189 0.959 . S
H254 C189 0.959 . S
H255 C190 0.960 . S
H256 C190 0.962 . S
H257 C190 0.961 . S
H258 C192 0.929 . S
H259 C195 0.930 . S
H260 C196 0.929 . S
H261 C199 0.930 . S
H262 C202 0.929 . S
H263 C203 0.930 . S
H264 C207 0.962 . S
H265 C207 0.959 . S
H266 C207 0.958 . S
C267 C268 1.560 . S
C267 H328 0.959 . S
C267 H329 0.959 . S
C267 H330 0.960 . S
C268 C267 1.560 . S
C268 O323 1.426 . S
C268 H327 0.980 . S
C269 C270 1.407 . S
C269 C274 1.418 . S
C269 O323 1.334 . S
C270 C269 1.407 . S
C270 C271 1.360 . S
C270 H331 0.929 . S
C271 C270 1.360 . S
C271 C272 1.401 . S
C271 C275 1.527 . S
C272 C271 1.401 . S
C272 C273 1.405 . S
C272 C305 1.587 . S
C273 C272 1.405 . S
C273 C274 1.332 . S
C273 C276 1.496 . S
C274 C269 1.418 . S
C274 C273 1.332 . S
C274 H332 0.929 . S
C275 C271 1.527 . S
C275 H333 0.959 . S
C275 H334 0.961 . S
C275 H335 0.961 . S
C276 C273 1.496 . S
C276 H336 0.960 . S
C276 H337 0.960 . S
C276 H338 0.961 . S
C277 C278 1.517 . S
C277 H340 0.961 . S
C277 H341 0.960 . S
C277 H342 0.959 . S
C278 C277 1.517 . S
C278 O326 1.468 . S
C278 H339 0.980 . S
C279 C280 1.349 . S
C279 C284 1.367 . S
C279 O326 1.408 . S
C280 C279 1.349 . S
C280 C281 1.407 . S
C280 H343 0.930 . S
C281 C280 1.407 . S
C281 C282 1.449 . S
C281 C285 1.535 . S
C282 C281 1.449 . S
C282 C283 1.384 . S
C282 C307 1.553 . S
C283 C282 1.384 . S
C283 C284 1.364 . S
C283 C286 1.450 . S
C284 C279 1.367 . S
C284 C283 1.364 . S
C284 H344 0.931 . S
C285 C281 1.535 . S
C285 H345 0.959 . S
C285 H346 0.961 . S
C285 H347 0.959 . S
C286 C283 1.450 . S
C286 H348 0.960 . S
C286 H349 0.960 . S
C286 H350 0.960 . S
C287 C288 1.309 . S
C287 C292 1.304 . S
C287 O325 1.435 . S
C288 C287 1.309 . S
C288 C289 1.476 . S
C288 H352 0.930 . S
C289 C288 1.476 . S
C289 C290 1.400 . S
C289 C293 1.567 . S
C290 C289 1.400 . S
C290 C291 1.373 . S
C290 C312 1.432 . S
C291 C290 1.373 . S
C291 C292 1.339 . S
C291 C294 1.530 . S
C292 C287 1.304 . S
C292 C291 1.339 . S
C292 H353 0.930 . S
C293 C289 1.567 . S
C293 H354 0.961 . S
C293 H355 0.960 . S
C293 H356 0.958 . S
C294 C291 1.530 . S
C294 H357 0.961 . S
C294 H358 0.960 . S
C294 H359 0.960 . S
C295 C296 1.530 . S
C295 H361 0.961 . S
C295 H362 0.961 . S
C295 H363 0.959 . S
C296 C295 1.530 . S
C296 O324 1.412 . S
C296 H360 0.980 . S
C297 C298 1.288 . S
C297 C302 1.377 . S
C297 O324 1.393 . S
C298 C297 1.288 . S
C298 C299 1.369 . S
C298 H364 0.932 . S
C299 C298 1.369 . S
C299 C300 1.398 . S
C299 C303 1.527 . S
C300 C299 1.398 . S
C300 C301 1.380 . S
C300 C314 1.497 . S
C301 C300 1.380 . S
C301 C302 1.383 . S
C301 C304 1.603 . S
C302 C297 1.377 . S
C302 C301 1.383 . S
C302 H365 0.929 . S
C303 C299 1.527 . S
C303 H366 0.961 . S
C303 H367 0.959 . S
C303 H368 0.959 . S
C304 C301 1.603 . S
C304 H369 0.960 . S
C304 H370 0.962 . S
C304 H371 0.961 . S
C305 C272 1.587 . S
C305 C306 1.360 . S
C305 C318 1.412 . S
C306 C305 1.360 . S
C306 C307 1.365 . S
C306 H372 0.929 . S
C307 C282 1.553 . S
C307 C306 1.365 . S
C307 C308 1.404 . S
C308 C307 1.404 . S
C308 C309 1.395 . S
C308 C319 1.451 . S
C309 C308 1.395 . S
C309 C310 1.322 . S
C309 H373 0.930 . S
C310 C309 1.322 . S
C310 C311 1.459 . S
C310 H374 0.929 . S
C311 C310 1.459 . S
C311 C312 1.445 . S
C311 C320 1.395 . S
C312 C290 1.432 . S
C312 C311 1.445 . S
C312 C313 1.370 . S
C313 C312 1.370 . S
C313 C314 1.438 . S
C313 H375 0.930 . S
C314 C300 1.497 . S
C314 C313 1.438 . S
C314 C315 1.360 . S
C315 C314 1.360 . S
C315 C316 1.401 . S
C315 C320 1.446 . S
C316 C315 1.401 . S
C316 C317 1.347 . S
C316 H376 0.929 . S
C317 C316 1.347 . S
C317 C318 1.455 . S
C317 H377 0.930 . S
C318 C305 1.412 . S
C318 C317 1.455 . S
C318 C319 1.331 . S
C319 C308 1.451 . S
C319 C318 1.331 . S
C319 C320 1.497 . S
C320 C311 1.395 . S
C320 C315 1.446 . S
C320 C319 1.497 . S
C321 C322 1.582 . S
C321 H378 0.962 . S
C321 H379 0.959 . S
C321 H380 0.958 . S
C322 C321 1.582 . S
C322 O325 1.458 . S
C322 H351 0.980 . S
O323 C268 1.426 . S
O323 C269 1.334 . S
O324 C296 1.412 . S
O324 C297 1.393 . S
O325 C287 1.435 . S
O325 C322 1.458 . S
O326 C278 1.468 . S
O326 C279 1.408 . S
H327 C268 0.980 . S
H328 C267 0.959 . S
H329 C267 0.959 . S
H330 C267 0.960 . S
H331 C270 0.929 . S
H332 C274 0.929 . S
H333 C275 0.959 . S
H334 C275 0.961 . S
H335 C275 0.961 . S
H336 C276 0.960 . S
H337 C276 0.960 . S
H338 C276 0.961 . S
H339 C278 0.980 . S
H340 C277 0.961 . S
H341 C277 0.960 . S
H342 C277 0.959 . S
H343 C280 0.930 . S
H344 C284 0.931 . S
H345 C285 0.959 . S
H346 C285 0.961 . S
H347 C285 0.959 . S
H348 C286 0.960 . S
H349 C286 0.960 . S
H350 C286 0.960 . S
H351 C322 0.980 . S
H352 C288 0.930 . S
H353 C292 0.930 . S
H354 C293 0.961 . S
H355 C293 0.960 . S
H356 C293 0.958 . S
H357 C294 0.961 . S
H358 C294 0.960 . S
H359 C294 0.960 . S
H360 C296 0.980 . S
H361 C295 0.961 . S
H362 C295 0.961 . S
H363 C295 0.959 . S
H364 C298 0.932 . S
H365 C302 0.929 . S
H366 C303 0.961 . S
H367 C303 0.959 . S
H368 C303 0.959 . S
H369 C304 0.960 . S
H370 C304 0.962 . S
H371 C304 0.961 . S
H372 C306 0.929 . S
H373 C309 0.930 . S
H374 C310 0.929 . S
H375 C313 0.930 . S
H376 C316 0.929 . S
H377 C317 0.930 . S
H378 C321 0.962 . S
H379 C321 0.959 . S
H380 C321 0.958 . S
H381 C387 0.930 . S
H382 C391 0.930 . S
H383 C396 0.929 . S
H384 C394 0.929 . S
H385 C389 0.929 . S
H386 C395 0.929 . S
C387 H381 0.930 . S
C387 C388 1.367 . S
C387 C395 1.378 . S
C388 C387 1.367 . S
C388 C396 1.433 1_455 S
C389 H385 0.929 . S
C389 C391 1.378 . S
C389 C393 1.350 1_655 S
C390 C393 1.463 . S
C390 C395 1.350 . S
C390 N398 1.427 1_455 S
C391 H382 0.930 . S
C391 C389 1.378 . S
C391 C392 1.367 1_655 S
C392 C391 1.367 1_455 S
C392 C394 1.433 . S
C393 C389 1.350 1_455 S
C393 C390 1.463 . S
C393 N397 1.427 . S
C394 H384 0.929 . S
C394 C392 1.433 . S
C394 N397 1.384 . S
C395 H386 0.929 . S
C395 C387 1.378 . S
C395 C390 1.350 . S
C396 H383 0.929 . S
C396 C388 1.433 1_655 S
C396 N398 1.384 . S
N397 C393 1.427 . S
N397 C394 1.384 . S
N398 C390 1.427 1_655 S
N398 C396 1.384 . S
H399 C405 0.930 . S
H400 C409 0.930 . S
H401 C414 0.929 . S
H402 C412 0.929 . S
H403 C407 0.929 . S
H404 C413 0.929 . S
C405 H399 0.930 . S
C405 C406 1.367 . S
C405 C413 1.378 . S
C406 C405 1.367 . S
C406 C414 1.433 . S
C407 H403 0.929 . S
C407 C409 1.378 . S
C407 C411 1.350 . S
C408 C411 1.463 . S
C408 C413 1.350 . S
C408 N416 1.427 . S
C409 H400 0.930 . S
C409 C407 1.378 . S
C409 C410 1.367 . S
C410 C409 1.367 . S
C410 C412 1.433 . S
C411 C407 1.350 . S
C411 C408 1.463 . S
C411 N415 1.427 . S
C412 H402 0.929 . S
C412 C410 1.433 . S
C412 N415 1.384 . S
C413 H404 0.929 . S
C413 C405 1.378 . S
C413 C408 1.350 . S
C414 H401 0.929 . S
C414 C406 1.433 . S
C414 N416 1.384 . S
N415 C411 1.427 . S
N415 C412 1.384 . S
N416 C408 1.427 . S
N416 C414 1.384 . S
H417 C423 0.930 . S
H418 C427 0.930 . S
H419 C432 0.929 . S
H420 C430 0.929 . S
H421 C425 0.929 . S
H422 C431 0.929 . S
C423 H417 0.930 . S
C423 C424 1.367 . S
C423 C431 1.378 . S
C424 C423 1.367 . S
C424 C432 1.433 . S
C425 H421 0.929 . S
C425 C427 1.378 . S
C425 C429 1.350 . S
C426 C429 1.463 . S
C426 C431 1.350 . S
C426 N434 1.427 . S
C427 H418 0.930 . S
C427 C425 1.378 . S
C427 C428 1.367 . S
C428 C427 1.367 . S
C428 C430 1.433 . S
C429 C425 1.350 . S
C429 C426 1.463 . S
C429 N433 1.427 . S
C430 H420 0.929 . S
C430 C428 1.433 . S
C430 N433 1.384 . S
C431 H422 0.929 . S
C431 C423 1.378 . S
C431 C426 1.350 . S
C432 H419 0.929 . S
C432 C424 1.433 . S
C432 N434 1.384 . S
N433 C429 1.427 . S
N433 C430 1.384 . S
N434 C426 1.427 . S
N434 C432 1.384 . S
H435 C441 0.930 . S
H436 C445 0.930 1_655 S
H437 C450 0.929 . S
H438 C448 0.929 . S
H439 C443 0.929 1_655 S
H440 C449 0.929 . S
C441 H435 0.930 . S
C441 C442 1.367 . S
C441 C449 1.378 . S
C442 C441 1.367 . S
C442 C450 1.433 1_455 S
C443 H439 0.929 1_455 S
C443 C445 1.378 . S
C443 C447 1.350 . S
C444 C447 1.463 . S
C444 C449 1.350 . S
C444 N452 1.408 1_455 S
C445 H436 0.930 1_455 S
C445 C443 1.378 . S
C445 C446 1.367 . S
C446 C445 1.367 . S
C446 C448 1.433 . S
C447 C443 1.350 . S
C447 C444 1.463 . S
C447 N451 1.427 . S
C448 H438 0.929 . S
C448 C446 1.433 . S
C448 N451 1.384 . S
C449 H440 0.929 . S
C449 C441 1.378 . S
C449 C444 1.350 . S
C450 H437 0.929 . S
C450 C442 1.433 1_655 S
C450 N452 1.397 . S
N451 C447 1.427 . S
N451 C448 1.384 . S
N452 C444 1.408 1_655 S
N452 C450 1.397 . S
H453 C459 0.930 . S
H454 C463 0.930 . S
H455 C468 0.929 . S
H456 C466 0.929 . S
H457 C461 0.929 . S
H458 C467 0.929 . S
C459 H453 0.930 . S
C459 C460 1.367 . S
C459 C467 1.378 . S
C460 C459 1.367 . S
C460 C468 1.433 . S
C461 H457 0.929 . S
C461 C463 1.378 . S
C461 C465 1.350 . S
C462 C465 1.463 . S
C462 C467 1.350 . S
C462 N470 1.427 . S
C463 H454 0.930 . S
C463 C461 1.378 . S
C463 C464 1.367 . S
C464 C463 1.367 . S
C464 C466 1.433 . S
C465 C461 1.350 . S
C465 C462 1.463 . S
C465 N469 1.427 . S
C466 H456 0.929 . S
C466 C464 1.433 . S
C466 N469 1.384 . S
C467 H458 0.929 . S
C467 C459 1.378 . S
C467 C462 1.350 . S
C468 H455 0.929 . S
C468 C460 1.433 . S
C468 N470 1.384 . S
N469 C465 1.427 . S
N469 C466 1.384 . S
N470 C462 1.427 . S
N470 C468 1.384 . S
H471 C477 0.930 . S
H472 C481 0.930 . S
H473 C486 0.929 . S
H474 C484 0.929 . S
H475 C479 0.929 . S
H476 C485 0.929 . S
C477 H471 0.930 . S
C477 C478 1.367 . S
C477 C485 1.378 . S
C478 C477 1.367 . S
C478 C486 1.433 . S
C479 H475 0.929 . S
C479 C481 1.378 . S
C479 C483 1.350 . S
C480 C483 1.463 . S
C480 C485 1.350 . S
C480 N488 1.427 . S
C481 H472 0.930 . S
C481 C479 1.378 . S
C481 C482 1.367 . S
C482 C481 1.367 . S
C482 C484 1.433 . S
C483 C479 1.350 . S
C483 C480 1.463 . S
C483 N487 1.427 . S
C484 H474 0.929 . S
C484 C482 1.433 . S
C484 N487 1.384 . S
C485 H476 0.929 . S
C485 C477 1.378 . S
C485 C480 1.350 . S
C486 H473 0.929 . S
C486 C478 1.433 . S
C486 N488 1.384 . S
N487 C483 1.427 . S
N487 C484 1.384 . S
N488 C480 1.427 . S
N488 C486 1.384 . S
H489 C495 0.930 . S
H490 C499 0.930 . S
H491 C504 0.929 . S
H492 C502 0.929 . S
H493 C497 0.929 . S
H494 C503 0.929 . S
C495 H489 0.930 . S
C495 C496 1.367 . S
C495 C503 1.378 . S
C496 C495 1.367 . S
C496 C504 1.433 . S
C497 H493 0.929 . S
C497 C499 1.378 . S
C497 C501 1.350 . S
C498 C501 1.463 . S
C498 C503 1.350 . S
C498 N506 1.427 . S
C499 H490 0.930 . S
C499 C497 1.378 . S
C499 C500 1.367 . S
C500 C499 1.367 . S
C500 C502 1.433 . S
C501 C497 1.350 . S
C501 C498 1.463 . S
C501 N505 1.427 . S
C502 H492 0.929 . S
C502 C500 1.433 . S
C502 N505 1.384 . S
C503 H494 0.929 . S
C503 C495 1.378 . S
C503 C498 1.350 . S
C504 H491 0.929 . S
C504 C496 1.433 . S
C504 N506 1.384 . S
N505 C501 1.427 . S
N505 C502 1.384 . S
N506 C498 1.427 . S
N506 C504 1.384 . S
H507 C513 0.948 . S
H508 C517 0.930 . S
H509 C522 0.929 . S
H510 C520 0.929 . S
H511 C515 0.929 1_554 S
H512 C521 0.929 . S
C513 H507 0.948 . S
C513 C514 1.328 1_556 S
C513 C521 1.400 . S
C514 C513 1.328 1_554 S
C514 C522 1.433 . S
C515 H511 0.929 1_556 S
C515 C517 1.378 . S
C515 C519 1.350 . S
C516 C519 1.463 . S
C516 C521 1.350 . S
C516 N524 1.427 1_556 S
C517 H508 0.930 . S
C517 C515 1.378 . S
C517 C518 1.367 . S
C518 C517 1.367 . S
C518 C520 1.433 . S
C519 C515 1.350 . S
C519 C516 1.463 . S
C519 N523 1.427 . S
C520 H510 0.929 . S
C520 C518 1.433 . S
C520 N523 1.384 . S
C521 H512 0.929 . S
C521 C513 1.400 . S
C521 C516 1.350 . S
C522 H509 0.929 . S
C522 C514 1.433 . S
C522 N524 1.384 . S
N523 C519 1.427 . S
N523 C520 1.384 . S
N524 C516 1.427 1_554 S
N524 C522 1.384 . S
H525 C531 0.930 . S
H526 C535 0.930 . S
H527 C540 0.929 . S
H528 C538 0.923 . S
H529 C533 0.929 . S
H530 C539 0.923 . S
C531 H525 0.930 . S
C531 C532 1.367 . S
C531 C539 1.378 . S
C532 C531 1.367 . S
C532 C540 1.433 . S
C533 H529 0.929 . S
C533 C535 1.378 . S
C533 C537 1.350 . S
C534 C537 1.463 . S
C534 C539 1.350 . S
C534 N542 1.427 . S
C535 H526 0.930 . S
C535 C533 1.378 . S
C535 C536 1.367 . S
C536 C535 1.367 . S
C536 C538 1.432 1_455 S
C537 C533 1.350 . S
C537 C534 1.463 . S
C537 N541 1.427 . S
C538 H528 0.923 . S
C538 C536 1.432 1_655 S
C538 N541 1.392 1_655 S
C539 H530 0.923 . S
C539 C531 1.378 . S
C539 C534 1.350 . S
C540 H527 0.929 . S
C540 C532 1.433 . S
C540 N542 1.384 . S
N541 C537 1.427 . S
N541 C538 1.392 1_455 S
N542 C534 1.427 . S
N542 C540 1.384 . S
H543 C549 0.930 . S
H544 C553 0.930 . S
H545 C558 0.929 . S
H546 C556 0.929 . S
H547 C551 0.929 . S
H548 C557 0.929 . S
C549 H543 0.930 . S
C549 C550 1.367 . S
C549 C557 1.378 . S
C550 C549 1.367 . S
C550 C558 1.433 . S
C551 H547 0.929 . S
C551 C553 1.378 . S
C551 C555 1.350 . S
C552 C555 1.463 . S
C552 C557 1.350 . S
C552 N560 1.427 . S
C553 H544 0.930 . S
C553 C551 1.378 . S
C553 C554 1.367 . S
C554 C553 1.367 . S
C554 C556 1.433 . S
C555 C551 1.350 . S
C555 C552 1.463 . S
C555 N559 1.427 . S
C556 H546 0.929 . S
C556 C554 1.433 . S
C556 N559 1.384 . S
C557 H548 0.929 . S
C557 C549 1.378 . S
C557 C552 1.350 . S
C558 H545 0.929 . S
C558 C550 1.433 . S
C558 N560 1.384 . S
N559 C555 1.427 . S
N559 C556 1.384 . S
N560 C552 1.427 . S
N560 C558 1.384 . S
H561 C567 0.930 . S
H562 C571 0.930 . S
H563 C576 0.929 . S
H564 C574 0.929 . S
H565 C569 0.929 . S
H566 C575 0.929 . S
C567 H561 0.930 . S
C567 C568 1.367 . S
C567 C575 1.378 . S
C568 C567 1.367 . S
C568 C576 1.433 1_554 S
C569 H565 0.929 . S
C569 C571 1.378 . S
C569 C573 1.350 . S
C570 C573 1.463 . S
C570 C575 1.350 1_556 S
C570 N578 1.427 . S
C571 H562 0.930 . S
C571 C569 1.378 . S
C571 C572 1.367 . S
C572 C571 1.367 . S
C572 C574 1.433 . S
C573 C569 1.350 . S
C573 C570 1.463 . S
C573 N577 1.427 . S
C574 H564 0.929 . S
C574 C572 1.433 . S
C574 N577 1.384 . S
C575 H566 0.929 . S
C575 C567 1.378 . S
C575 C570 1.350 1_554 S
C576 H563 0.929 . S
C576 C568 1.433 1_556 S
C576 N578 1.384 . S
N577 C573 1.427 . S
N577 C574 1.384 . S
N578 C570 1.427 . S
N578 C576 1.384 . S
H579 C585 0.930 . S
H580 C589 0.930 . S
H581 C594 0.929 . S
H582 C592 0.929 . S
H583 C587 0.929 . S
H584 C593 0.929 . S
C585 H579 0.930 . S
C585 C586 1.367 . S
C585 C593 1.378 . S
C586 C585 1.367 . S
C586 C594 1.433 . S
C587 H583 0.929 . S
C587 C589 1.378 . S
C587 C591 1.350 . S
C588 C591 1.463 . S
C588 C593 1.350 . S
C588 N596 1.427 . S
C589 H580 0.930 . S
C589 C587 1.378 . S
C589 C590 1.367 . S
C590 C589 1.367 . S
C590 C592 1.433 . S
C591 C587 1.350 . S
C591 C588 1.463 . S
C591 N595 1.427 . S
C592 H582 0.929 . S
C592 C590 1.433 . S
C592 N595 1.384 . S
C593 H584 0.929 . S
C593 C585 1.378 . S
C593 C588 1.350 . S
C594 H581 0.929 . S
C594 C586 1.433 . S
C594 N596 1.384 . S
N595 C591 1.427 . S
N595 C592 1.384 . S
N596 C588 1.427 . S
N596 C594 1.384 . S
C392 C94 1.172 . S
C388 C10 1.612 . S
C406 C17 1.619 . S
C410 C208 1.178 . S
C424 C36 1.388 . S
C428 C268 1.143 . S
C442 C5 1.481 . S
C446 C68 1.139 . S
C464 C182 1.166 . S
C460 C16 1.491 . S
C478 C31 1.531 . S
C482 C278 0.986 . S
C500 C164 0.991 . S
C496 C30 1.534 . S
C514 C3 1.485 . S
C518 C296 1.172 . S
C536 C40 1.144 1_455 S
C532 C18 1.390 . S
C554 C154 1.110 . S
C550 C29 1.394 . S
C572 C322 1.152 . S
C568 C4 1.616 . S
C586 C23 1.523 . S
C590 C50 0.974 . S
