# Generated by pormake.
# Topology nom, (4,4)-cn, num edge types: 1
# Building blocks:
#     Node 0, Type 0, BuildingBlock: KUFVIS_clean_linker_0, # of connection points: 4
#     Node 1, Type 0, BuildingBlock: KUFVIS_clean_linker_0, # of connection points: 4
#     Node 2, Type 0, BuildingBlock: KUFVIS_clean_linker_0, # of connection points: 4
#     Node 3, Type 0, BuildingBlock: KUFVIS_clean_linker_0, # of connection points: 4
#     Node 4, Type 0, BuildingBlock: KUFVIS_clean_linker_0, # of connection points: 4
#     Node 5, Type 0, BuildingBlock: KUFVIS_clean_linker_0, # of connection points: 4
#     Node 6, Type 1, BuildingBlock: GALJAG_clean_sbu_0, # of connection points: 4
#     Node 7, Type 1, BuildingBlock: GALJAG_clean_sbu_0, # of connection points: 4
#     Node 8, Type 1, BuildingBlock: GALJAG_clean_sbu_0, # of connection points: 4
#     Node 9, Type 1, BuildingBlock: GALJAG_clean_sbu_0, # of connection points: 4
#     Node 10, Type 1, BuildingBlock: GALJAG_clean_sbu_0, # of connection points: 4
#     Node 11, Type 1, BuildingBlock: GALJAG_clean_sbu_0, # of connection points: 4
#     Edge 12, Type (0, 1), BuildingBlock: AJUNOK_clean_linker_0, # of connection points: 2
#     Edge 13, Type (0, 1), BuildingBlock: AJUNOK_clean_linker_0, # of connection points: 2
#     Edge 14, Type (0, 1), BuildingBlock: AJUNOK_clean_linker_0, # of connection points: 2
#     Edge 15, Type (0, 1), BuildingBlock: AJUNOK_clean_linker_0, # of connection points: 2
#     Edge 16, Type (0, 1), BuildingBlock: AJUNOK_clean_linker_0, # of connection points: 2
#     Edge 17, Type (0, 1), BuildingBlock: AJUNOK_clean_linker_0, # of connection points: 2
#     Edge 18, Type (0, 1), BuildingBlock: AJUNOK_clean_linker_0, # of connection points: 2
#     Edge 19, Type (0, 1), BuildingBlock: AJUNOK_clean_linker_0, # of connection points: 2
#     Edge 20, Type (0, 1), BuildingBlock: AJUNOK_clean_linker_0, # of connection points: 2
#     Edge 21, Type (0, 1), BuildingBlock: AJUNOK_clean_linker_0, # of connection points: 2
#     Edge 22, Type (0, 1), BuildingBlock: AJUNOK_clean_linker_0, # of connection points: 2
#     Edge 23, Type (0, 1), BuildingBlock: AJUNOK_clean_linker_0, # of connection points: 2
#     Edge 24, Type (0, 1), BuildingBlock: AJUNOK_clean_linker_0, # of connection points: 2
#     Edge 25, Type (0, 1), BuildingBlock: AJUNOK_clean_linker_0, # of connection points: 2
#     Edge 26, Type (0, 1), BuildingBlock: AJUNOK_clean_linker_0, # of connection points: 2
#     Edge 27, Type (0, 1), BuildingBlock: AJUNOK_clean_linker_0, # of connection points: 2
#     Edge 28, Type (0, 1), BuildingBlock: AJUNOK_clean_linker_0, # of connection points: 2
#     Edge 29, Type (0, 1), BuildingBlock: AJUNOK_clean_linker_0, # of connection points: 2
#     Edge 30, Type (0, 1), BuildingBlock: AJUNOK_clean_linker_0, # of connection points: 2
#     Edge 31, Type (0, 1), BuildingBlock: AJUNOK_clean_linker_0, # of connection points: 2
#     Edge 32, Type (0, 1), BuildingBlock: AJUNOK_clean_linker_0, # of connection points: 2
#     Edge 33, Type (0, 1), BuildingBlock: AJUNOK_clean_linker_0, # of connection points: 2
#     Edge 34, Type (0, 1), BuildingBlock: AJUNOK_clean_linker_0, # of connection points: 2
#     Edge 35, Type (0, 1), BuildingBlock: AJUNOK_clean_linker_0, # of connection points: 2
# Relax obj value: 0.012
# Max RMSD: 0.070
# Mean RMSD: 0.062
data_MOF--net-nom--node1-GALJAG_clean_sbu_0--node2-KUFVIS_clean_linker_0--edge1-AJUNOK_clean_linker_0
_symmetry_space_group_name_H-M    P1
_symmetry_Int_Tables_number       1
_symmetry_cell_setting            triclinic
loop_
_symmetry_equiv_pos_as_xyz
'x, y, z'
_cell_length_a     32.889981
_cell_length_b     32.581655
_cell_length_c     36.879374
_cell_angle_alpha  90.13629
_cell_angle_beta   89.923615
_cell_angle_gamma 119.96143
loop_
_atom_site_label
_atom_site_type_symbol
_atom_site_fract_x
_atom_site_fract_y
_atom_site_fract_z
_atom_type_partial_charge
H0 H 0.206 0.63765 0.34424 0.0
H1 H 0.10606 0.61687 0.26149 0.0
H2 H 0.05944 0.55315 0.36759 0.0
H3 H 0.9962 0.56261 0.35222 0.0
H4 H 0.89583 0.48398 0.26925 0.0
H5 H 0.04217 0.54409 0.24623 0.0
C6 C 0.16978 0.62186 0.33534 0.0
C7 C 0.13375 0.59468 0.3596 0.0
C8 C 0.1602 0.62955 0.29998 0.0
C9 C 0.11326 0.61044 0.2889 0.0
C10 C 0.07597 0.5823 0.31306 0.0
C11 C 0.08695 0.57517 0.34866 0.0
C12 C 1.02598 0.55745 0.30068 0.0
C13 C 0.98886 0.54885 0.32479 0.0
C14 C 0.94187 0.52144 0.31359 0.0
C15 C 0.93209 0.50403 0.2782 0.0
C16 C 0.96795 0.5122 0.25402 0.0
C17 C 1.0148 0.53909 0.26508 0.0
H18 H 0.6033 0.19951 0.51155 0.0
H19 H 0.52792 0.09517 0.42977 0.0
H20 H 0.54189 0.05275 0.53842 0.0
H21 H 0.47159 0.98822 0.52384 0.0
H22 H 0.44359 0.8825 0.44337 0.0
H23 H 0.53185 1.0289 0.41625 0.0
C24 C 0.58312 0.16255 0.50346 0.0
C25 C 0.57371 0.12728 0.52885 0.0
C26 C 0.5675 0.15125 0.46775 0.0
C27 C 0.54047 0.10344 0.45743 0.0
C28 C 0.53064 0.06681 0.48271 0.0
C29 C 0.5475 0.07955 0.51861 0.0
C30 C 0.50511 1.01568 0.47151 0.0
C31 C 0.47707 0.97952 0.49658 0.0
C32 C 0.45567 0.93164 0.48644 0.0
C33 C 0.46109 0.91959 0.45119 0.0
C34 C 0.4877 0.95445 0.42572 0.0
C35 C 0.50996 1.00239 0.43592 0.0
H36 H 0.60336 0.43746 0.59927 0.0
H37 H 0.52766 0.46335 0.68241 0.0
H38 H 0.53694 0.51818 0.57387 0.0
H39 H 0.46346 0.50549 0.59037 0.0
H40 H 0.43492 0.58269 0.671 0.0
H41 H 0.53247 0.53571 0.69507 0.0
C42 C 0.58285 0.45349 0.60787 0.0
C43 C 0.5714 0.47792 0.58264 0.0
C44 C 0.5677 0.44849 0.6438 0.0
C45 C 0.53983 0.46791 0.65462 0.0
C46 C 0.52833 0.49356 0.62961 0.0
C47 C 0.54431 0.49804 0.59346 0.0
C48 C 0.50136 0.51714 0.64126 0.0
C49 C 0.46996 0.52116 0.61718 0.0
C50 C 0.446 0.54474 0.62801 0.0
C51 C 0.45354 0.56455 0.66264 0.0
C52 C 0.48446 0.56132 0.68675 0.0
C53 C 0.50803 0.5373 0.67627 0.0
H54 H 0.20818 0.59813 0.76994 0.0
H55 H 0.10626 0.52102 0.85221 0.0
H56 H 0.06224 0.53961 0.74566 0.0
H57 H 0.99769 0.46614 0.76101 0.0
H58 H 0.8972 0.44737 0.84284 0.0
H59 H 0.04368 0.53259 0.86645 0.0
C60 C 0.17173 0.57828 0.77847 0.0
C61 C 0.13635 0.57069 0.75401 0.0
C62 C 0.16122 0.56111 0.81382 0.0
C63 C 0.11409 0.53441 0.82473 0.0
C64 C 0.07747 0.52611 0.80026 0.0
C65 C 0.08928 0.54428 0.7647 0.0
C66 C 1.0274 0.50198 0.81232 0.0
C67 C 0.99029 0.4733 0.78818 0.0
C68 C 0.94331 0.45444 0.79907 0.0
C69 C 0.93349 0.46311 0.83413 0.0
C70 C 0.96937 0.49099 0.85833 0.0
C71 C 1.01623 0.51015 0.8476 0.0
H72 H 0.49921 0.88576 0.01167 0.0
H73 H 0.57562 0.98912 0.92972 0.0
H74 H 0.56421 0.03303 0.03861 0.0
H75 H 0.63735 0.09557 0.02285 0.0
H76 H 0.66509 0.20195 0.94326 0.0
H77 H 0.57057 0.05623 0.91731 0.0
C78 C 0.51993 0.9226 0.00354 0.0
C79 C 0.53035 0.95821 0.02898 0.0
C80 C 0.5355 0.93344 0.96779 0.0
C81 C 0.56321 0.98109 0.95742 0.0
C82 C 0.57405 1.018 -0.01724 0.0
C83 C 0.55751 1.00582 0.01876 0.0
C84 C 0.60048 0.06896 0.97154 0.0
C85 C 0.63091 0.1047 -0.00392 0.0
C86 C 0.65384 0.15256 -0.01419 0.0
C87 C 0.64671 0.16492 0.95121 0.0
C88 C 0.61703 0.13044 0.92651 0.0
C89 C 0.59416 0.08251 0.93652 0.0
H90 H 0.49729 0.64333 0.09854 0.0
H91 H 0.57483 0.61974 0.18121 0.0
H92 H 0.56384 0.56274 0.07295 0.0
H93 H 0.63685 0.57459 0.08873 0.0
H94 H 0.66829 0.50103 0.17013 0.0
H95 H 0.57102 0.54847 0.19456 0.0
C96 C 0.51813 0.6277 0.10711 0.0
C97 C 0.52911 0.60268 0.08199 0.0
C98 C 0.53395 0.63356 0.14287 0.0
C99 C 0.56215 0.6145 0.15356 0.0
C100 C 0.57331 0.58836 0.12859 0.0
C101 C 0.5567 0.58311 0.09258 0.0
C102 C 0.60057 0.56507 0.14021 0.0
C103 C 0.63118 0.56003 0.11583 0.0
C104 C 0.65541 0.53682 0.12672 0.0
C105 C 0.64922 0.51865 0.16177 0.0
C106 C 0.6193 0.5231 0.1863 0.0
C107 C 0.59503 0.54631 0.17557 0.0
In108 In 0.66583 0.42534 0.38511 0.0
O109 O 0.7436 0.48345 0.38928 0.0
O110 O 0.7266 0.42057 0.36022 0.0
C111 C 0.63586 0.45254 0.4438 0.0
C112 C 0.63994 0.454 0.32495 0.0
C113 C 0.63251 0.33296 0.40178 0.0
O114 O 0.67799 0.46283 0.43965 0.0
O115 O 0.60882 0.42807 0.41851 0.0
O116 O 0.60912 0.34621 0.38294 0.0
O117 O 0.67156 0.36614 0.41257 0.0
C118 C 0.75837 0.46037 0.37148 0.0
O119 O 0.63376 0.41274 0.32832 0.0
O120 O 0.65952 0.48068 0.35172 0.0
In121 In 0.27861 0.65375 0.55628 0.0
O122 O 0.33755 0.63785 0.5419 0.0
O123 O 0.29139 0.59945 0.58491 0.0
C124 C 0.2232 0.62003 0.4972 0.0
C125 C 0.22435 0.63462 0.6156 0.0
C126 C 0.33521 0.74886 0.54791 0.0
O127 O 0.25939 0.61644 0.50122 0.0
O128 O 0.21564 0.64113 0.52265 0.0
O129 O 0.29383 0.72635 0.53601 0.0
O130 O 0.34807 0.72354 0.56458 0.0
C131 C 0.32652 0.60682 0.56622 0.0
O132 O 0.26276 0.67292 0.61205 0.0
O133 O 0.21388 0.60621 0.58942 0.0
In134 In 0.66697 0.2739 0.72702 0.0
O135 O 0.74404 0.29132 0.72615 0.0
O136 O 0.7285 0.34146 0.74949 0.0
C137 C 0.6402 0.21811 0.6673 0.0
C138 C 0.6389 0.22077 0.78809 0.0
C139 C 0.63219 0.3313 0.70981 0.0
O140 O 0.68166 0.25125 0.67232 0.0
O141 O 0.61208 0.21332 0.69235 0.0
O142 O 0.60902 0.29404 0.72823 0.0
O143 O 0.67208 0.33889 0.69994 0.0
C144 C 0.7596 0.33125 0.74114 0.0
O145 O 0.63492 0.25699 0.78382 0.0
O146 O 0.65741 0.21165 0.76167 0.0
In147 In 0.43694 0.6586 0.88545 0.0
O148 O 0.35925 0.59974 0.88714 0.0
O149 O 0.37642 0.66505 0.8622 0.0
C150 C 0.46413 0.62924 0.94441 0.0
C151 C 0.46447 0.63259 0.82454 0.0
C152 C 0.47058 0.75084 0.90288 0.0
O153 O 0.42233 0.61934 0.93921 0.0
O154 O 0.49243 0.65462 0.92008 0.0
O155 O 0.49428 0.73746 0.88448 0.0
O156 O 0.43114 0.71778 0.9131 0.0
C157 C 0.3446 0.62435 0.8716 0.0
O158 O 0.46987 0.6734 0.82892 0.0
O159 O 0.44479 0.60488 0.85071 0.0
In160 In 0.82689 0.43112 0.05569 0.0
O161 O 0.84286 0.41168 0.1112 0.0
O162 O 0.89109 0.47899 0.08936 0.0
C163 C 0.77601 0.33573 0.04587 0.0
C164 C 0.77559 0.47475 0.06542 0.0
C165 C 0.88181 0.46702 -0.00331 0.0
O166 O 0.76231 0.35766 0.0662 0.0
O167 O 0.81497 0.36186 0.03082 0.0
O168 O 0.84357 0.46692 0.00022 0.0
O169 O 0.89179 0.44871 0.02272 0.0
C170 C 0.8809 0.45024 0.11516 0.0
O171 O 0.76324 0.44051 0.04373 0.0
O172 O 0.81359 0.48682 0.08171 0.0
In173 In 0.4357 0.8097 0.22574 0.0
O174 O 0.49316 0.78888 0.22746 0.0
O175 O 0.43066 0.74482 0.19822 0.0
C176 C 0.46266 0.8646 0.28604 0.0
C177 C 0.46333 0.86608 0.16655 0.0
C178 C 0.34338 0.75155 0.24036 0.0
O179 O 0.4689 0.82966 0.28215 0.0
O180 O 0.44256 0.87148 0.25966 0.0
O181 O 0.35797 0.7897 0.22299 0.0
O182 O 0.37526 0.74346 0.25068 0.0
C183 C 0.4702 0.75193 0.20857 0.0
O184 O 0.42167 0.83321 0.1713 0.0
O185 O 0.49123 0.87014 0.19151 0.0
C186 C 0.2338 0.64151 0.27175 0.0
C187 C 0.20095 0.65687 0.27573 0.0
C188 C 0.27908 0.67191 0.25876 0.0
C189 C 0.29326 0.71881 0.24888 0.0
H190 H 0.22533 0.60657 0.28102 0.0
H191 H 0.30373 0.65903 0.2578 0.0
S192 S 0.21878 0.77467 0.25046 0.0
N193 N 0.18428 0.72067 0.26625 0.0
N194 N 0.26937 0.77787 0.2408 0.0
C195 C 0.25965 0.73355 0.25007 0.0
C196 C 0.21344 0.70252 0.26371 0.0
C197 C 0.5508 0.20523 0.43021 0.0
C198 C 0.58258 0.19111 0.44204 0.0
C199 C 0.56698 0.25041 0.41501 0.0
C200 C 0.6154 0.28294 0.41184 0.0
H201 H 0.51354 0.18256 0.43494 0.0
H202 H 0.54159 0.26096 0.40787 0.0
S203 S 0.71217 0.25998 0.43435 0.0
N204 N 0.66398 0.2108 0.44589 0.0
N205 N 0.69445 0.29555 0.41795 0.0
C206 C 0.64715 0.26774 0.42129 0.0
C207 C 0.6307 0.22183 0.43621 0.0
C208 C 0.3662 0.53132 0.61554 0.0
C209 C 0.41297 0.55037 0.60418 0.0
C210 C 0.33751 0.54768 0.60118 0.0
C211 C 0.35458 0.58391 0.57502 0.0
H212 H 0.35276 0.50597 0.63756 0.0
H213 H 0.30252 0.53362 0.61224 0.0
S214 S 0.47313 0.64143 0.53333 0.0
N215 N 0.47398 0.60405 0.56309 0.0
N216 N 0.42 0.63482 0.53564 0.0
C217 C 0.40017 0.60054 0.56132 0.0
C218 C 0.42942 0.58375 0.57605 0.0
C219 C 0.87072 0.44228 0.76912 0.0
C220 C 0.90271 0.42623 0.77494 0.0
C221 C 0.82521 0.41164 0.75663 0.0
C222 C 0.80993 0.36376 0.74918 0.0
H223 H 0.87999 0.47809 0.77666 0.0
H224 H 0.80124 0.42522 0.75419 0.0
S225 S 0.88191 0.3055 0.7564 0.0
N226 N 0.91742 0.36053 0.76988 0.0
N227 N 0.8319 0.30276 0.74543 0.0
C228 C 0.84269 0.34809 0.75225 0.0
C229 C 0.88913 0.37941 0.76534 0.0
C230 C 0.55215 0.87898 0.9307 0.0
C231 C 0.52035 0.89326 0.94228 0.0
C232 C 0.536 0.83354 0.91588 0.0
C233 C 0.4876 0.80093 0.91282 0.0
H234 H 0.58941 0.90174 0.93537 0.0
H235 H 0.56143 0.82292 0.90891 0.0
S236 S 0.39075 0.8242 0.93461 0.0
N237 N 0.43893 0.87358 0.94595 0.0
N238 N 0.40851 0.78838 0.91863 0.0
C239 C 0.4558 0.81625 0.92197 0.0
C240 C 0.47222 0.86241 0.93655 0.0
C241 C 0.73528 0.5519 0.11197 0.0
C242 C 0.68759 0.53015 0.10258 0.0
C243 C 0.7642 0.53557 0.09786 0.0
C244 C 0.74642 0.49658 0.07401 0.0
H245 H 0.74951 0.57964 0.13233 0.0
H246 H 0.80012 0.55204 0.10735 0.0
S247 S 0.6248 0.43071 0.03813 0.0
N248 N 0.62458 0.47051 0.06586 0.0
N249 N 0.67887 0.43967 0.03892 0.0
C250 C 0.69956 0.47682 0.0623 0.0
C251 C 0.67013 0.49364 0.07673 0.0
C252 C 0.37776 0.87209 0.51062 0.0
C253 C 0.42675 0.89246 0.51152 0.0
C254 C 0.34835 0.82657 0.52455 0.0
C255 C 0.36694 0.79977 0.53973 0.0
H256 H 0.36209 0.8901 0.4968 0.0
H257 H 0.31075 0.81137 0.5217 0.0
S258 S 0.49343 0.8393 0.55066 0.0
N259 N 0.49284 0.88419 0.53044 0.0
N260 N 0.43785 0.79884 0.55712 0.0
C261 C 0.41604 0.8212 0.54288 0.0
C262 C 0.44589 0.86749 0.52855 0.0
C263 C 0.63073 0.4381 0.6715 0.0
C264 C 0.58261 0.42295 0.66885 0.0
C265 C 0.64628 0.40888 0.68632 0.0
C266 C 0.61437 0.36338 0.69933 0.0
H267 H 0.65649 0.4718 0.66001 0.0
H268 H 0.68363 0.42146 0.68628 0.0
S269 S 0.48477 0.30899 0.70203 0.0
N270 N 0.50323 0.36113 0.68282 0.0
N271 N 0.53242 0.30618 0.71151 0.0
C272 C 0.56626 0.34909 0.69928 0.0
C273 C 0.55038 0.37893 0.68387 0.0
C274 C 0.21689 0.54237 0.84595 0.0
C275 C 0.20134 0.57458 0.83851 0.0
C276 C 0.26267 0.55832 0.85886 0.0
C277 C 0.29439 0.607 0.86395 0.0
H278 H 0.1948 0.50521 0.83934 0.0
H279 H 0.27421 0.53275 0.86258 0.0
S280 S 0.26806 0.7045 0.85282 0.0
N281 N 0.21912 0.65631 0.84082 0.0
N282 N 0.30501 0.68642 0.86451 0.0
C283 C 0.27794 0.63897 0.85899 0.0
C284 C 0.2314 0.62269 0.84643 0.0
C285 C 0.66883 0.21413 0.03222 0.0
C286 C 0.68629 0.19141 0.00993 0.0
C287 C 0.69873 0.25983 0.04597 0.0
C288 C 0.74692 0.28447 0.03736 0.0
H289 H 0.63141 0.19793 0.03686 0.0
H290 H 0.68341 0.27706 0.0614 0.0
S291 S 0.81017 0.23746 -0.01659 0.0
N292 N 0.75481 0.19458 -0.01743 0.0
N293 N 0.81123 0.28022 0.00825 0.0
C294 C 0.76513 0.2605 0.01723 0.0
C295 C 0.73472 0.21402 0.0035 0.0
C296 C 0.47118 0.6445 0.17066 0.0
C297 C 0.51927 0.6595 0.16789 0.0
C298 C 0.4558 0.674 0.18536 0.0
C299 C 0.48785 0.71961 0.19819 0.0
H300 H 0.4453 0.61068 0.15933 0.0
H301 H 0.41847 0.66153 0.18541 0.0
S302 S 0.61742 0.77375 0.20056 0.0
N303 N 0.59877 0.72136 0.18155 0.0
N304 N 0.56989 0.77681 0.21009 0.0
C305 C 0.53593 0.73377 0.19805 0.0
C306 C 0.55164 0.70366 0.18272 0.0
C307 C 0.86832 0.46001 0.34222 0.0
C308 C 0.9012 0.50838 0.33777 0.0
C309 C 0.82289 0.44509 0.35473 0.0
C310 C 0.80861 0.47795 0.36366 0.0
H311 H 0.87687 0.43338 0.33357 0.0
H312 H 0.79821 0.40739 0.35604 0.0
S313 S 0.883 0.60882 0.36047 0.0
N314 N 0.91771 0.58922 0.34574 0.0
N315 N 0.83233 0.56126 0.37034 0.0
C316 C 0.84221 0.52653 0.36205 0.0
C317 C 0.88857 0.54174 0.34886 0.0
C318 C 0.13617 0.60987 0.4258 0.0
C319 C 0.14682 0.58909 0.3967 0.0
C320 C 0.15931 0.61736 0.45909 0.0
C321 C 0.19391 0.60443 0.46418 0.0
H322 H 0.11241 0.6235 0.42202 0.0
H323 H 0.15187 0.6358 0.48024 0.0
S324 S 0.2281 0.54132 0.39783 0.0
N325 N 0.1892 0.55008 0.37615 0.0
N326 N 0.23291 0.56414 0.4387 0.0
C327 C 0.20185 0.58 0.43615 0.0
C328 C 0.17818 0.57229 0.40237 0.0
C329 C 0.56089 0.13275 0.59492 0.0
C330 C 0.59203 0.14199 0.56599 0.0
C331 C 0.57712 0.15602 0.62831 0.0
C332 C 0.62498 0.18925 0.63374 0.0
H333 H 0.52351 0.10967 0.59103 0.0
H334 H 0.55165 0.14947 0.64941 0.0
S335 S 0.72111 0.22063 0.56742 0.0
N336 N 0.67301 0.18254 0.54564 0.0
N337 N 0.70379 0.22623 0.60826 0.0
C338 C 0.65675 0.1962 0.60564 0.0
C339 C 0.64019 0.17256 0.57177 0.0
C340 C 0.4734 0.5528 0.75371 0.0
C341 C 0.48991 0.58233 0.7232 0.0
C342 C 0.46722 0.56999 0.78695 0.0
C343 C 0.47737 0.61726 0.79071 0.0
H344 H 0.46246 0.51554 0.75129 0.0
H345 H 0.45244 0.54546 0.80938 0.0
S346 S 0.52764 0.71009 0.71965 0.0
N347 N 0.52079 0.6618 0.69938 0.0
N348 N 0.5095 0.69441 0.76178 0.0
C349 C 0.497 0.64785 0.76091 0.0
C350 C 0.50318 0.63029 0.72715 0.0
C351 C 0.96922 0.47916 0.92488 0.0
C352 C 0.95625 0.49717 0.89536 0.0
C353 C 0.94676 0.47218 0.95845 0.0
C354 C 0.91052 0.48283 0.9634 0.0
H355 H 0.99435 0.46718 0.92132 0.0
H356 H 0.95599 0.45572 0.97994 0.0
S357 S 0.87021 0.5391 0.89599 0.0
N358 N 0.91012 0.53183 0.87428 0.0
N359 N 0.86753 0.51848 0.93732 0.0
C360 C 0.90025 0.50473 0.93491 0.0
C361 C 0.92327 0.51201 0.90086 0.0
C362 C 0.54343 0.9516 0.09475 0.0
C363 C 0.51224 0.94385 0.06619 0.0
C364 C 0.52702 0.92786 0.12789 0.0
C365 C 0.47893 0.89559 0.13341 0.0
H366 H 0.58091 0.97375 0.09067 0.0
H367 H 0.55247 0.93319 0.14866 0.0
S368 S 0.38278 0.86842 0.06819 0.0
N369 N 0.43111 0.90588 0.0464 0.0
N370 N 0.39999 0.86131 0.10857 0.0
C371 C 0.4472 0.89024 0.10577 0.0
C372 C 0.46395 0.91439 0.07216 0.0
C373 C 0.60527 0.45686 0.22756 0.0
C374 C 0.61534 0.50391 0.22328 0.0
C375 C 0.61128 0.44041 0.26102 0.0
C376 C 0.62789 0.47052 0.2914 0.0
H377 H 0.59465 0.4332 0.2044 0.0
H378 H 0.60473 0.40441 0.26261 0.0
S379 S 0.65493 0.59563 0.29503 0.0
N380 N 0.63931 0.57939 0.25253 0.0
N381 N 0.65045 0.54864 0.31572 0.0
C382 C 0.6354 0.51688 0.28798 0.0
C383 C 0.62907 0.53353 0.25384 0.0
C384 C 0.50193 0.90387 0.38263 0.0
C385 C 0.49001 0.93929 0.38826 0.0
C386 C 0.49486 0.88137 0.34897 0.0
C387 C 0.47537 0.89327 0.31971 0.0
H388 H 0.51495 0.89207 0.40492 0.0
H389 H 0.50304 0.85315 0.34636 0.0
S390 S 0.44212 0.98675 0.31974 0.0
N391 N 0.46083 0.98753 0.3614 0.0
N392 N 0.44775 0.94559 0.29784 0.0
C393 C 0.46584 0.9306 0.32441 0.0
C394 C 0.47319 0.95358 0.35876 0.0
C395 C 0.63565 0.4971 0.5385 0.0
C396 C 0.58782 0.48068 0.54493 0.0
C397 C 0.65112 0.48984 0.50503 0.0
C398 C 0.61925 0.46563 0.4768 0.0
H399 H 0.66099 0.5136 0.56018 0.0
H400 H 0.68806 0.50147 0.5019 0.0
S401 S 0.49081 0.42018 0.47891 0.0
N402 N 0.50918 0.44273 0.51976 0.0
N403 N 0.53806 0.42917 0.45647 0.0
C404 C 0.57167 0.45181 0.48213 0.0
C405 C 0.55599 0.45939 0.5163 0.0
C406 C 0.13661 0.55913 0.68735 0.0
C407 C 0.15017 0.59008 0.7171 0.0
C408 C 0.1591 0.57471 0.6538 0.0
C409 C 0.19594 0.62165 0.64907 0.0
H410 H 0.11086 0.52198 0.69069 0.0
H411 H 0.1493 0.54903 0.63208 0.0
S412 S 0.23827 0.71819 0.71729 0.0
N413 N 0.19775 0.67093 0.73874 0.0
N414 N 0.24039 0.70032 0.67575 0.0
C415 C 0.20696 0.65381 0.67787 0.0
C416 C 0.18392 0.63797 0.7119 0.0
C417 C 0.62913 0.13269 0.85961 0.0
C418 C 0.6124 0.14597 0.88987 0.0
C419 C 0.6357 0.15576 0.82622 0.0
C420 C 0.62574 0.19286 0.82207 0.0
H421 H 0.63988 0.10636 0.86232 0.0
H422 H 0.65061 0.14581 0.80401 0.0
S423 S 0.5749 0.23594 0.89224 0.0
N424 N 0.58142 0.19471 0.91293 0.0
N425 N 0.59353 0.23809 0.85031 0.0
C426 C 0.60596 0.20411 0.8516 0.0
C427 C 0.59934 0.18064 0.88549 0.0
C428 C 0.54343 0.62389 0.01658 0.0
C429 C 0.51174 0.59889 0.04457 0.0
C430 C 0.52749 0.63169 -0.01655 0.0
C431 C 0.47938 0.61479 0.97737 0.0
H432 H 0.58087 0.64015 0.02118 0.0
H433 H 0.55328 0.65304 0.96319 0.0
S434 S 0.38216 0.54155 0.04084 0.0
N435 N 0.43024 0.55311 0.06314 0.0
N436 N 0.39999 0.56736 0.00095 0.0
C437 C 0.44722 0.58678 0.00436 0.0
C438 C 0.4635 0.57893 0.03797 0.0
C439 C 0.96795 0.52506 0.18762 0.0
C440 C 0.95482 0.49348 0.21683 0.0
C441 C 0.94558 0.50997 0.15396 0.0
C442 C 0.90929 0.4629 0.14861 0.0
H443 H 0.99319 0.56228 0.19151 0.0
H444 H 0.95499 0.53608 0.13271 0.0
S445 S 0.86838 0.36493 0.21515 0.0
N446 N 0.90832 0.41204 0.23722 0.0
N447 N 0.86595 0.38352 0.17402 0.0
C448 C 0.89878 0.43018 0.17681 0.0
C449 C 0.92169 0.44553 0.21094 0.0
loop_
_geom_bond_atom_site_label_1
_geom_bond_atom_site_label_2
_geom_bond_distance
_geom_bond_site_symmetry_2
_ccdc_geom_bond_type
H0 C6 0.930 . S
H1 C9 0.931 . S
H2 C11 0.931 . S
H3 C13 0.930 . S
H4 C15 0.930 . S
H5 C17 0.916 1_455 S
C6 H0 0.930 . S
C6 C7 1.380 . S
C6 C8 1.394 . S
C7 C6 1.380 . S
C7 C11 1.382 . S
C8 C6 1.394 . S
C8 C9 1.400 . S
C9 H1 0.931 . S
C9 C8 1.400 . S
C9 C10 1.375 . S
C10 C9 1.375 . S
C10 C11 1.415 . S
C10 C12 1.501 1_455 S
C11 H2 0.931 . S
C11 C7 1.382 . S
C11 C10 1.415 . S
C12 C10 1.501 1_655 S
C12 C13 1.384 . S
C12 C17 1.408 . S
C13 H3 0.930 . S
C13 C12 1.384 . S
C13 C14 1.389 . S
C14 C13 1.389 . S
C14 C15 1.405 . S
C15 H4 0.930 . S
C15 C14 1.405 . S
C15 C16 1.364 . S
C16 C15 1.364 . S
C16 C17 1.400 . S
C17 H5 0.916 1_655 S
C17 C12 1.408 . S
C17 C16 1.400 . S
H18 C24 0.930 . S
H19 C27 0.931 . S
H20 C29 0.931 . S
H21 C31 0.930 . S
H22 C33 0.930 . S
H23 C35 0.921 1_545 S
C24 H18 0.930 . S
C24 C25 1.380 . S
C24 C26 1.394 . S
C25 C24 1.380 . S
C25 C29 1.382 . S
C26 C24 1.394 . S
C26 C27 1.400 . S
C27 H19 0.931 . S
C27 C26 1.400 . S
C27 C28 1.375 . S
C28 C27 1.375 . S
C28 C29 1.415 . S
C28 C30 1.501 1_545 S
C29 H20 0.931 . S
C29 C25 1.382 . S
C29 C28 1.415 . S
C30 C28 1.501 1_565 S
C30 C31 1.384 . S
C30 C35 1.408 . S
C31 H21 0.930 . S
C31 C30 1.384 . S
C31 C32 1.389 . S
C32 C31 1.389 . S
C32 C33 1.405 . S
C33 H22 0.930 . S
C33 C32 1.405 . S
C33 C34 1.364 . S
C34 C33 1.364 . S
C34 C35 1.400 . S
C35 H23 0.921 1_565 S
C35 C30 1.408 . S
C35 C34 1.400 . S
H36 C42 0.930 . S
H37 C45 0.931 . S
H38 C47 0.931 . S
H39 C49 0.930 . S
H40 C51 0.930 . S
H41 C53 0.931 . S
C42 H36 0.930 . S
C42 C43 1.380 . S
C42 C44 1.394 . S
C43 C42 1.380 . S
C43 C47 1.382 . S
C44 C42 1.394 . S
C44 C45 1.400 . S
C45 H37 0.931 . S
C45 C44 1.400 . S
C45 C46 1.375 . S
C46 C45 1.375 . S
C46 C47 1.415 . S
C46 C48 1.501 . S
C47 H38 0.931 . S
C47 C43 1.382 . S
C47 C46 1.415 . S
C48 C46 1.501 . S
C48 C49 1.384 . S
C48 C53 1.408 . S
C49 H39 0.930 . S
C49 C48 1.384 . S
C49 C50 1.389 . S
C50 C49 1.389 . S
C50 C51 1.405 . S
C51 H40 0.930 . S
C51 C50 1.405 . S
C51 C52 1.364 . S
C52 C51 1.364 . S
C52 C53 1.400 . S
C53 H41 0.931 . S
C53 C48 1.408 . S
C53 C52 1.400 . S
H54 C60 0.930 . S
H55 C63 0.931 . S
H56 C65 0.931 . S
H57 C67 0.930 . S
H58 C69 0.930 . S
H59 C71 0.929 . S
C60 H54 0.930 . S
C60 C61 1.380 . S
C60 C62 1.394 . S
C61 C60 1.380 . S
C61 C65 1.382 . S
C62 C60 1.394 . S
C62 C63 1.400 . S
C63 H55 0.931 . S
C63 C62 1.400 . S
C63 C64 1.375 . S
C64 C63 1.375 . S
C64 C65 1.415 . S
C64 C66 1.501 1_455 S
C65 H56 0.931 . S
C65 C61 1.382 . S
C65 C64 1.415 . S
C66 C64 1.501 1_655 S
C66 C67 1.384 . S
C66 C71 1.408 . S
C67 H57 0.930 . S
C67 C66 1.384 . S
C67 C68 1.389 . S
C68 C67 1.389 . S
C68 C69 1.405 . S
C69 H58 0.930 . S
C69 C68 1.405 . S
C69 C70 1.364 . S
C70 C69 1.364 . S
C70 C71 1.400 . S
C71 H59 0.929 . S
C71 C66 1.408 . S
C71 C70 1.400 . S
H72 C78 0.930 . S
H73 C81 0.931 . S
H74 C83 0.922 1_545 S
H75 C85 0.930 . S
H76 C87 0.930 . S
H77 C89 0.931 . S
C78 H72 0.930 . S
C78 C79 1.380 . S
C78 C80 1.394 1_554 S
C79 C78 1.380 . S
C79 C83 1.382 . S
C80 C78 1.394 1_556 S
C80 C81 1.400 . S
C81 H73 0.931 . S
C81 C80 1.400 . S
C81 C82 1.375 . S
C82 C81 1.375 . S
C82 C83 1.415 1_556 S
C82 C84 1.501 1_565 S
C83 H74 0.922 1_565 S
C83 C79 1.382 . S
C83 C82 1.415 1_554 S
C84 C82 1.501 1_545 S
C84 C85 1.384 1_556 S
C84 C89 1.408 . S
C85 H75 0.930 . S
C85 C84 1.384 1_554 S
C85 C86 1.389 1_554 S
C86 C85 1.389 1_556 S
C86 C87 1.405 . S
C87 H76 0.930 . S
C87 C86 1.405 . S
C87 C88 1.364 . S
C88 C87 1.364 . S
C88 C89 1.400 . S
C89 H77 0.931 . S
C89 C84 1.408 . S
C89 C88 1.400 . S
H90 C96 0.930 . S
H91 C99 0.931 . S
H92 C101 0.931 . S
H93 C103 0.930 . S
H94 C105 0.930 . S
H95 C107 0.931 . S
C96 H90 0.930 . S
C96 C97 1.380 . S
C96 C98 1.394 . S
C97 C96 1.380 . S
C97 C101 1.382 . S
C98 C96 1.394 . S
C98 C99 1.400 . S
C99 H91 0.931 . S
C99 C98 1.400 . S
C99 C100 1.375 . S
C100 C99 1.375 . S
C100 C101 1.415 . S
C100 C102 1.501 . S
C101 H92 0.931 . S
C101 C97 1.382 . S
C101 C100 1.415 . S
C102 C100 1.501 . S
C102 C103 1.384 . S
C102 C107 1.408 . S
C103 H93 0.930 . S
C103 C102 1.384 . S
C103 C104 1.389 . S
C104 C103 1.389 . S
C104 C105 1.405 . S
C105 H94 0.930 . S
C105 C104 1.405 . S
C105 C106 1.364 . S
C106 C105 1.364 . S
C106 C107 1.400 . S
C107 H95 0.931 . S
C107 C102 1.408 . S
C107 C106 1.400 . S
In108 O109 2.294 . S
In108 O110 2.326 . S
In108 O114 2.266 . S
In108 O115 2.326 . S
In108 O116 2.266 . S
In108 O117 2.326 . S
In108 O119 2.294 . S
In108 O120 2.326 . S
O109 In108 2.294 . S
O109 C118 1.240 . S
O110 In108 2.326 . S
O110 C118 1.252 . S
C111 O114 1.252 . S
C111 O115 1.260 . S
C112 O119 1.240 . S
C112 O120 1.252 . S
C113 O116 1.252 . S
C113 O117 1.260 . S
O114 In108 2.266 . S
O114 C111 1.252 . S
O115 In108 2.326 . S
O115 C111 1.260 . S
O116 In108 2.266 . S
O116 C113 1.252 . S
O117 In108 2.326 . S
O117 C113 1.260 . S
C118 O109 1.240 . S
C118 O110 1.252 . S
O119 In108 2.294 . S
O119 C112 1.240 . S
O120 In108 2.326 . S
O120 C112 1.252 . S
In121 O122 2.294 . S
In121 O123 2.326 . S
In121 O127 2.266 . S
In121 O128 2.326 . S
In121 O129 2.266 . S
In121 O130 2.326 . S
In121 O132 2.294 . S
In121 O133 2.326 . S
O122 In121 2.294 . S
O122 C131 1.240 . S
O123 In121 2.326 . S
O123 C131 1.252 . S
C124 O127 1.252 . S
C124 O128 1.260 . S
C125 O132 1.240 . S
C125 O133 1.252 . S
C126 O129 1.252 . S
C126 O130 1.260 . S
O127 In121 2.266 . S
O127 C124 1.252 . S
O128 In121 2.326 . S
O128 C124 1.260 . S
O129 In121 2.266 . S
O129 C126 1.252 . S
O130 In121 2.326 . S
O130 C126 1.260 . S
C131 O122 1.240 . S
C131 O123 1.252 . S
O132 In121 2.294 . S
O132 C125 1.240 . S
O133 In121 2.326 . S
O133 C125 1.252 . S
In134 O135 2.294 . S
In134 O136 2.326 . S
In134 O140 2.266 . S
In134 O141 2.326 . S
In134 O142 2.266 . S
In134 O143 2.326 . S
In134 O145 2.294 . S
In134 O146 2.326 . S
O135 In134 2.294 . S
O135 C144 1.240 . S
O136 In134 2.326 . S
O136 C144 1.252 . S
C137 O140 1.252 . S
C137 O141 1.260 . S
C138 O145 1.240 . S
C138 O146 1.252 . S
C139 O142 1.252 . S
C139 O143 1.260 . S
O140 In134 2.266 . S
O140 C137 1.252 . S
O141 In134 2.326 . S
O141 C137 1.260 . S
O142 In134 2.266 . S
O142 C139 1.252 . S
O143 In134 2.326 . S
O143 C139 1.260 . S
C144 O135 1.240 . S
C144 O136 1.252 . S
O145 In134 2.294 . S
O145 C138 1.240 . S
O146 In134 2.326 . S
O146 C138 1.252 . S
In147 O148 2.294 . S
In147 O149 2.326 . S
In147 O153 2.266 . S
In147 O154 2.326 . S
In147 O155 2.266 . S
In147 O156 2.326 . S
In147 O158 2.294 . S
In147 O159 2.326 . S
O148 In147 2.294 . S
O148 C157 1.240 . S
O149 In147 2.326 . S
O149 C157 1.252 . S
C150 O153 1.252 . S
C150 O154 1.260 . S
C151 O158 1.240 . S
C151 O159 1.252 . S
C152 O155 1.252 . S
C152 O156 1.260 . S
O153 In147 2.266 . S
O153 C150 1.252 . S
O154 In147 2.326 . S
O154 C150 1.260 . S
O155 In147 2.266 . S
O155 C152 1.252 . S
O156 In147 2.326 . S
O156 C152 1.260 . S
C157 O148 1.240 . S
C157 O149 1.252 . S
O158 In147 2.294 . S
O158 C151 1.240 . S
O159 In147 2.326 . S
O159 C151 1.252 . S
In160 O161 2.294 . S
In160 O162 2.326 . S
In160 O166 2.266 . S
In160 O167 2.326 . S
In160 O168 2.266 . S
In160 O169 2.326 . S
In160 O171 2.294 . S
In160 O172 2.326 . S
O161 In160 2.294 . S
O161 C170 1.240 . S
O162 In160 2.326 . S
O162 C170 1.252 . S
C163 O166 1.252 . S
C163 O167 1.260 . S
C164 O171 1.240 . S
C164 O172 1.252 . S
C165 O168 1.252 . S
C165 O169 1.260 . S
O166 In160 2.266 . S
O166 C163 1.252 . S
O167 In160 2.326 . S
O167 C163 1.260 . S
O168 In160 2.266 . S
O168 C165 1.252 . S
O169 In160 2.326 . S
O169 C165 1.260 . S
C170 O161 1.240 . S
C170 O162 1.252 . S
O171 In160 2.294 . S
O171 C164 1.240 . S
O172 In160 2.326 . S
O172 C164 1.252 . S
In173 O174 2.294 . S
In173 O175 2.326 . S
In173 O179 2.266 . S
In173 O180 2.326 . S
In173 O181 2.266 . S
In173 O182 2.326 . S
In173 O184 2.294 . S
In173 O185 2.326 . S
O174 In173 2.294 . S
O174 C183 1.240 . S
O175 In173 2.326 . S
O175 C183 1.252 . S
C176 O179 1.252 . S
C176 O180 1.260 . S
C177 O184 1.240 . S
C177 O185 1.252 . S
C178 O181 1.252 . S
C178 O182 1.260 . S
O179 In173 2.266 . S
O179 C176 1.252 . S
O180 In173 2.326 . S
O180 C176 1.260 . S
O181 In173 2.266 . S
O181 C178 1.252 . S
O182 In173 2.326 . S
O182 C178 1.260 . S
C183 O174 1.240 . S
C183 O175 1.252 . S
O184 In173 2.294 . S
O184 C177 1.240 . S
O185 In173 2.326 . S
O185 C177 1.252 . S
C186 C187 1.369 . S
C186 C188 1.419 . S
C186 H190 0.930 . S
C187 C186 1.369 . S
C187 C196 1.429 . S
C188 C186 1.419 . S
C188 C189 1.363 . S
C188 H191 0.929 . S
C189 C188 1.363 . S
C189 C195 1.428 . S
H190 C186 0.930 . S
H191 C188 0.929 . S
S192 N193 1.613 . S
S192 N194 1.610 . S
N193 S192 1.613 . S
N193 C196 1.350 . S
N194 S192 1.610 . S
N194 C195 1.351 . S
C195 C189 1.428 . S
C195 N194 1.351 . S
C195 C196 1.434 . S
C196 C187 1.429 . S
C196 N193 1.350 . S
C196 C195 1.434 . S
C197 C198 1.369 . S
C197 C199 1.419 . S
C197 H201 0.930 . S
C198 C197 1.369 . S
C198 C207 1.429 . S
C199 C197 1.419 . S
C199 C200 1.363 . S
C199 H202 0.929 . S
C200 C199 1.363 . S
C200 C206 1.428 . S
H201 C197 0.930 . S
H202 C199 0.929 . S
S203 N204 1.613 . S
S203 N205 1.610 . S
N204 S203 1.613 . S
N204 C207 1.350 . S
N205 S203 1.610 . S
N205 C206 1.351 . S
C206 C200 1.428 . S
C206 N205 1.351 . S
C206 C207 1.434 . S
C207 C198 1.429 . S
C207 N204 1.350 . S
C207 C206 1.434 . S
C208 C209 1.369 . S
C208 C210 1.419 . S
C208 H212 0.930 . S
C209 C208 1.369 . S
C209 C218 1.429 . S
C210 C208 1.419 . S
C210 C211 1.363 . S
C210 H213 0.929 . S
C211 C210 1.363 . S
C211 C217 1.428 . S
H212 C208 0.930 . S
H213 C210 0.929 . S
S214 N215 1.613 . S
S214 N216 1.610 . S
N215 S214 1.613 . S
N215 C218 1.350 . S
N216 S214 1.610 . S
N216 C217 1.351 . S
C217 C211 1.428 . S
C217 N216 1.351 . S
C217 C218 1.434 . S
C218 C209 1.429 . S
C218 N215 1.350 . S
C218 C217 1.434 . S
C219 C220 1.369 . S
C219 C221 1.419 . S
C219 H223 0.930 . S
C220 C219 1.369 . S
C220 C229 1.429 . S
C221 C219 1.419 . S
C221 C222 1.363 . S
C221 H224 0.929 . S
C222 C221 1.363 . S
C222 C228 1.428 . S
H223 C219 0.930 . S
H224 C221 0.929 . S
S225 N226 1.613 . S
S225 N227 1.610 . S
N226 S225 1.613 . S
N226 C229 1.350 . S
N227 S225 1.610 . S
N227 C228 1.351 . S
C228 C222 1.428 . S
C228 N227 1.351 . S
C228 C229 1.434 . S
C229 C220 1.429 . S
C229 N226 1.350 . S
C229 C228 1.434 . S
C230 C231 1.369 . S
C230 C232 1.419 . S
C230 H234 0.930 . S
C231 C230 1.369 . S
C231 C240 1.429 . S
C232 C230 1.419 . S
C232 C233 1.363 . S
C232 H235 0.929 . S
C233 C232 1.363 . S
C233 C239 1.428 . S
H234 C230 0.930 . S
H235 C232 0.929 . S
S236 N237 1.613 . S
S236 N238 1.610 1_554 S
N237 S236 1.613 . S
N237 C240 1.350 1_554 S
N238 S236 1.610 1_556 S
N238 C239 1.351 . S
C239 C233 1.428 . S
C239 N238 1.351 . S
C239 C240 1.434 . S
C240 C231 1.429 . S
C240 N237 1.350 1_556 S
C240 C239 1.434 . S
C241 C242 1.369 . S
C241 C243 1.419 . S
C241 H245 0.930 . S
C242 C241 1.369 . S
C242 C251 1.429 . S
C243 C241 1.419 . S
C243 C244 1.363 . S
C243 H246 0.929 . S
C244 C243 1.363 . S
C244 C250 1.428 . S
H245 C241 0.930 . S
H246 C243 0.929 . S
S247 N248 1.613 . S
S247 N249 1.610 . S
N248 S247 1.613 . S
N248 C251 1.350 . S
N249 S247 1.610 . S
N249 C250 1.351 . S
C250 C244 1.428 . S
C250 N249 1.351 . S
C250 C251 1.434 . S
C251 C242 1.429 . S
C251 N248 1.350 . S
C251 C250 1.434 . S
C252 C253 1.369 . S
C252 C254 1.419 . S
C252 H256 0.930 . S
C253 C252 1.369 . S
C253 C262 1.429 . S
C254 C252 1.419 . S
C254 C255 1.363 . S
C254 H257 0.929 . S
C255 C254 1.363 . S
C255 C261 1.428 . S
H256 C252 0.930 . S
H257 C254 0.929 . S
S258 N259 1.613 . S
S258 N260 1.610 . S
N259 S258 1.613 . S
N259 C262 1.350 . S
N260 S258 1.610 . S
N260 C261 1.351 . S
C261 C255 1.428 . S
C261 N260 1.351 . S
C261 C262 1.434 . S
C262 C253 1.429 . S
C262 N259 1.350 . S
C262 C261 1.434 . S
C263 C264 1.369 . S
C263 C265 1.419 . S
C263 H267 0.930 . S
C264 C263 1.369 . S
C264 C273 1.429 . S
C265 C263 1.419 . S
C265 C266 1.363 . S
C265 H268 0.929 . S
C266 C265 1.363 . S
C266 C272 1.428 . S
H267 C263 0.930 . S
H268 C265 0.929 . S
S269 N270 1.613 . S
S269 N271 1.610 . S
N270 S269 1.613 . S
N270 C273 1.350 . S
N271 S269 1.610 . S
N271 C272 1.351 . S
C272 C266 1.428 . S
C272 N271 1.351 . S
C272 C273 1.434 . S
C273 C264 1.429 . S
C273 N270 1.350 . S
C273 C272 1.434 . S
C274 C275 1.369 . S
C274 C276 1.419 . S
C274 H278 0.930 . S
C275 C274 1.369 . S
C275 C284 1.429 . S
C276 C274 1.419 . S
C276 C277 1.363 . S
C276 H279 0.929 . S
C277 C276 1.363 . S
C277 C283 1.428 . S
H278 C274 0.930 . S
H279 C276 0.929 . S
S280 N281 1.613 . S
S280 N282 1.610 . S
N281 S280 1.613 . S
N281 C284 1.350 . S
N282 S280 1.610 . S
N282 C283 1.351 . S
C283 C277 1.428 . S
C283 N282 1.351 . S
C283 C284 1.434 . S
C284 C275 1.429 . S
C284 N281 1.350 . S
C284 C283 1.434 . S
C285 C286 1.369 . S
C285 C287 1.419 . S
C285 H289 0.930 . S
C286 C285 1.369 . S
C286 C295 1.429 1_554 S
C287 C285 1.419 . S
C287 C288 1.363 . S
C287 H290 0.929 . S
C288 C287 1.363 . S
C288 C294 1.428 . S
H289 C285 0.930 . S
H290 C287 0.929 . S
S291 N292 1.613 . S
S291 N293 1.610 . S
N292 S291 1.613 . S
N292 C295 1.350 . S
N293 S291 1.610 . S
N293 C294 1.351 1_556 S
C294 C288 1.428 . S
C294 N293 1.351 1_554 S
C294 C295 1.434 1_554 S
C295 C286 1.429 1_556 S
C295 N292 1.350 . S
C295 C294 1.434 1_556 S
C296 C297 1.369 . S
C296 C298 1.419 . S
C296 H300 0.930 . S
C297 C296 1.369 . S
C297 C306 1.429 . S
C298 C296 1.419 . S
C298 C299 1.363 . S
C298 H301 0.929 . S
C299 C298 1.363 . S
C299 C305 1.428 . S
H300 C296 0.930 . S
H301 C298 0.929 . S
S302 N303 1.613 . S
S302 N304 1.610 . S
N303 S302 1.613 . S
N303 C306 1.350 . S
N304 S302 1.610 . S
N304 C305 1.351 . S
C305 C299 1.428 . S
C305 N304 1.351 . S
C305 C306 1.434 . S
C306 C297 1.429 . S
C306 N303 1.350 . S
C306 C305 1.434 . S
C307 C308 1.369 . S
C307 C309 1.419 . S
C307 H311 0.930 . S
C308 C307 1.369 . S
C308 C317 1.429 . S
C309 C307 1.419 . S
C309 C310 1.363 . S
C309 H312 0.929 . S
C310 C309 1.363 . S
C310 C316 1.428 . S
H311 C307 0.930 . S
H312 C309 0.929 . S
S313 N314 1.613 . S
S313 N315 1.610 . S
N314 S313 1.613 . S
N314 C317 1.350 . S
N315 S313 1.610 . S
N315 C316 1.351 . S
C316 C310 1.428 . S
C316 N315 1.351 . S
C316 C317 1.434 . S
C317 C308 1.429 . S
C317 N314 1.350 . S
C317 C316 1.434 . S
C318 C319 1.369 . S
C318 C320 1.419 . S
C318 H322 0.930 . S
C319 C318 1.369 . S
C319 C328 1.429 . S
C320 C318 1.419 . S
C320 C321 1.363 . S
C320 H323 0.929 . S
C321 C320 1.363 . S
C321 C327 1.428 . S
H322 C318 0.930 . S
H323 C320 0.929 . S
S324 N325 1.613 . S
S324 N326 1.610 . S
N325 S324 1.613 . S
N325 C328 1.350 . S
N326 S324 1.610 . S
N326 C327 1.351 . S
C327 C321 1.428 . S
C327 N326 1.351 . S
C327 C328 1.434 . S
C328 C319 1.429 . S
C328 N325 1.350 . S
C328 C327 1.434 . S
C329 C330 1.369 . S
C329 C331 1.419 . S
C329 H333 0.930 . S
C330 C329 1.369 . S
C330 C339 1.429 . S
C331 C329 1.419 . S
C331 C332 1.363 . S
C331 H334 0.929 . S
C332 C331 1.363 . S
C332 C338 1.428 . S
H333 C329 0.930 . S
H334 C331 0.929 . S
S335 N336 1.613 . S
S335 N337 1.610 . S
N336 S335 1.613 . S
N336 C339 1.350 . S
N337 S335 1.610 . S
N337 C338 1.351 . S
C338 C332 1.428 . S
C338 N337 1.351 . S
C338 C339 1.434 . S
C339 C330 1.429 . S
C339 N336 1.350 . S
C339 C338 1.434 . S
C340 C341 1.369 . S
C340 C342 1.419 . S
C340 H344 0.930 . S
C341 C340 1.369 . S
C341 C350 1.429 . S
C342 C340 1.419 . S
C342 C343 1.363 . S
C342 H345 0.929 . S
C343 C342 1.363 . S
C343 C349 1.428 . S
H344 C340 0.930 . S
H345 C342 0.929 . S
S346 N347 1.613 . S
S346 N348 1.610 . S
N347 S346 1.613 . S
N347 C350 1.350 . S
N348 S346 1.610 . S
N348 C349 1.351 . S
C349 C343 1.428 . S
C349 N348 1.351 . S
C349 C350 1.434 . S
C350 C341 1.429 . S
C350 N347 1.350 . S
C350 C349 1.434 . S
C351 C352 1.369 . S
C351 C353 1.419 . S
C351 H355 0.930 . S
C352 C351 1.369 . S
C352 C361 1.429 . S
C353 C351 1.419 . S
C353 C354 1.363 . S
C353 H356 0.929 . S
C354 C353 1.363 . S
C354 C360 1.428 . S
H355 C351 0.930 . S
H356 C353 0.929 . S
S357 N358 1.613 . S
S357 N359 1.610 . S
N358 S357 1.613 . S
N358 C361 1.350 . S
N359 S357 1.610 . S
N359 C360 1.351 . S
C360 C354 1.428 . S
C360 N359 1.351 . S
C360 C361 1.434 . S
C361 C352 1.429 . S
C361 N358 1.350 . S
C361 C360 1.434 . S
C362 C363 1.369 . S
C362 C364 1.419 . S
C362 H366 0.930 . S
C363 C362 1.369 . S
C363 C372 1.429 . S
C364 C362 1.419 . S
C364 C365 1.363 . S
C364 H367 0.929 . S
C365 C364 1.363 . S
C365 C371 1.428 . S
H366 C362 0.930 . S
H367 C364 0.929 . S
S368 N369 1.613 . S
S368 N370 1.610 . S
N369 S368 1.613 . S
N369 C372 1.350 . S
N370 S368 1.610 . S
N370 C371 1.351 . S
C371 C365 1.428 . S
C371 N370 1.351 . S
C371 C372 1.434 . S
C372 C363 1.429 . S
C372 N369 1.350 . S
C372 C371 1.434 . S
C373 C374 1.369 . S
C373 C375 1.419 . S
C373 H377 0.930 . S
C374 C373 1.369 . S
C374 C383 1.429 . S
C375 C373 1.419 . S
C375 C376 1.363 . S
C375 H378 0.929 . S
C376 C375 1.363 . S
C376 C382 1.428 . S
H377 C373 0.930 . S
H378 C375 0.929 . S
S379 N380 1.613 . S
S379 N381 1.610 . S
N380 S379 1.613 . S
N380 C383 1.350 . S
N381 S379 1.610 . S
N381 C382 1.351 . S
C382 C376 1.428 . S
C382 N381 1.351 . S
C382 C383 1.434 . S
C383 C374 1.429 . S
C383 N380 1.350 . S
C383 C382 1.434 . S
C384 C385 1.369 . S
C384 C386 1.419 . S
C384 H388 0.930 . S
C385 C384 1.369 . S
C385 C394 1.429 . S
C386 C384 1.419 . S
C386 C387 1.363 . S
C386 H389 0.929 . S
C387 C386 1.363 . S
C387 C393 1.428 . S
H388 C384 0.930 . S
H389 C386 0.929 . S
S390 N391 1.613 . S
S390 N392 1.610 . S
N391 S390 1.613 . S
N391 C394 1.350 . S
N392 S390 1.610 . S
N392 C393 1.351 . S
C393 C387 1.428 . S
C393 N392 1.351 . S
C393 C394 1.434 . S
C394 C385 1.429 . S
C394 N391 1.350 . S
C394 C393 1.434 . S
C395 C396 1.369 . S
C395 C397 1.419 . S
C395 H399 0.930 . S
C396 C395 1.369 . S
C396 C405 1.429 . S
C397 C395 1.419 . S
C397 C398 1.363 . S
C397 H400 0.929 . S
C398 C397 1.363 . S
C398 C404 1.428 . S
H399 C395 0.930 . S
H400 C397 0.929 . S
S401 N402 1.613 . S
S401 N403 1.610 . S
N402 S401 1.613 . S
N402 C405 1.350 . S
N403 S401 1.610 . S
N403 C404 1.351 . S
C404 C398 1.428 . S
C404 N403 1.351 . S
C404 C405 1.434 . S
C405 C396 1.429 . S
C405 N402 1.350 . S
C405 C404 1.434 . S
C406 C407 1.369 . S
C406 C408 1.419 . S
C406 H410 0.930 . S
C407 C406 1.369 . S
C407 C416 1.429 . S
C408 C406 1.419 . S
C408 C409 1.363 . S
C408 H411 0.929 . S
C409 C408 1.363 . S
C409 C415 1.428 . S
H410 C406 0.930 . S
H411 C408 0.929 . S
S412 N413 1.613 . S
S412 N414 1.610 . S
N413 S412 1.613 . S
N413 C416 1.350 . S
N414 S412 1.610 . S
N414 C415 1.351 . S
C415 C409 1.428 . S
C415 N414 1.351 . S
C415 C416 1.434 . S
C416 C407 1.429 . S
C416 N413 1.350 . S
C416 C415 1.434 . S
C417 C418 1.369 . S
C417 C419 1.419 . S
C417 H421 0.930 . S
C418 C417 1.369 . S
C418 C427 1.429 . S
C419 C417 1.419 . S
C419 C420 1.363 . S
C419 H422 0.929 . S
C420 C419 1.363 . S
C420 C426 1.428 . S
H421 C417 0.930 . S
H422 C419 0.929 . S
S423 N424 1.613 . S
S423 N425 1.610 . S
N424 S423 1.613 . S
N424 C427 1.350 . S
N425 S423 1.610 . S
N425 C426 1.351 . S
C426 C420 1.428 . S
C426 N425 1.351 . S
C426 C427 1.434 . S
C427 C418 1.429 . S
C427 N424 1.350 . S
C427 C426 1.434 . S
C428 C429 1.369 . S
C428 C430 1.419 1_554 S
C428 H432 0.930 . S
C429 C428 1.369 . S
C429 C438 1.429 . S
C430 C428 1.419 1_556 S
C430 C431 1.363 1_556 S
C430 H433 0.929 . S
C431 C430 1.363 1_554 S
C431 C437 1.428 . S
H432 C428 0.930 . S
H433 C430 0.929 . S
S434 N435 1.613 . S
S434 N436 1.610 . S
N435 S434 1.613 . S
N435 C438 1.350 . S
N436 S434 1.610 . S
N436 C437 1.351 . S
C437 C431 1.428 . S
C437 N436 1.351 . S
C437 C438 1.434 . S
C438 C429 1.429 . S
C438 N435 1.350 . S
C438 C437 1.434 . S
C439 C440 1.369 . S
C439 C441 1.419 . S
C439 H443 0.930 . S
C440 C439 1.369 . S
C440 C449 1.429 . S
C441 C439 1.419 . S
C441 C442 1.363 . S
C441 H444 0.929 . S
C442 C441 1.363 . S
C442 C448 1.428 . S
H443 C439 0.930 . S
H444 C441 0.929 . S
S445 N446 1.613 . S
S445 N447 1.610 . S
N446 S445 1.613 . S
N446 C449 1.350 . S
N447 S445 1.610 . S
N447 C448 1.351 . S
C448 C442 1.428 . S
C448 N447 1.351 . S
C448 C449 1.434 . S
C449 C440 1.429 . S
C449 N446 1.350 . S
C449 C448 1.434 . S
C189 C178 1.577 . S
C187 C8 1.540 . S
C198 C26 1.539 . S
C200 C113 1.583 . S
C209 C50 1.546 . S
C211 C131 1.585 . S
C220 C68 1.537 . S
C222 C144 1.572 . S
C233 C152 1.581 . S
C231 C80 1.537 . S
C242 C104 1.540 . S
C244 C164 1.579 . S
C253 C32 1.546 . S
C255 C126 1.590 . S
C264 C44 1.541 . S
C266 C139 1.579 . S
C275 C62 1.533 . S
C277 C157 1.575 . S
C288 C163 1.584 . S
C286 C86 1.538 1_554 S
C299 C183 1.569 . S
C297 C98 1.534 . S
C310 C118 1.578 . S
C308 C14 1.541 . S
C319 C7 1.521 . S
C321 C124 1.570 . S
C330 C25 1.525 . S
C332 C137 1.569 . S
C343 C151 1.565 . S
C341 C52 1.518 . S
C352 C70 1.532 . S
C354 C165 1.573 1_556 S
C365 C177 1.563 . S
C363 C79 1.519 . S
C376 C112 1.565 . S
C374 C106 1.523 . S
C387 C176 1.567 . S
C385 C34 1.528 . S
C396 C43 1.522 . S
C398 C111 1.567 . S
C409 C125 1.568 . S
C407 C61 1.523 . S
C418 C88 1.515 . S
C420 C138 1.562 . S
C429 C97 1.519 . S
C431 C150 1.571 1_554 S
C440 C16 1.521 . S
C442 C170 1.569 . S
