# Generated by pormake.
# Topology eea, (3,6)-cn, num edge types: 1
# Building blocks:
#     Node 0, Type 0, BuildingBlock: MIDCAF_clean_linker_0, # of connection points: 3
#     Node 1, Type 0, BuildingBlock: MIDCAF_clean_linker_0, # of connection points: 3
#     Node 2, Type 0, BuildingBlock: MIDCAF_clean_linker_0, # of connection points: 3
#     Node 3, Type 0, BuildingBlock: MIDCAF_clean_linker_0, # of connection points: 3
#     Node 4, Type 0, BuildingBlock: MIDCAF_clean_linker_0, # of connection points: 3
#     Node 5, Type 0, BuildingBlock: MIDCAF_clean_linker_0, # of connection points: 3
#     Node 6, Type 0, BuildingBlock: MIDCAF_clean_linker_0, # of connection points: 3
#     Node 7, Type 0, BuildingBlock: MIDCAF_clean_linker_0, # of connection points: 3
#     Node 8, Type 0, BuildingBlock: MIDCAF_clean_linker_0, # of connection points: 3
#     Node 9, Type 0, BuildingBlock: MIDCAF_clean_linker_0, # of connection points: 3
#     Node 10, Type 0, BuildingBlock: MIDCAF_clean_linker_0, # of connection points: 3
#     Node 11, Type 0, BuildingBlock: MIDCAF_clean_linker_0, # of connection points: 3
#     Node 12, Type 0, BuildingBlock: MIDCAF_clean_linker_0, # of connection points: 3
#     Node 13, Type 0, BuildingBlock: MIDCAF_clean_linker_0, # of connection points: 3
#     Node 14, Type 0, BuildingBlock: MIDCAF_clean_linker_0, # of connection points: 3
#     Node 15, Type 0, BuildingBlock: MIDCAF_clean_linker_0, # of connection points: 3
#     Node 16, Type 0, BuildingBlock: MIDCAF_clean_linker_0, # of connection points: 3
#     Node 17, Type 0, BuildingBlock: MIDCAF_clean_linker_0, # of connection points: 3
#     Node 18, Type 1, BuildingBlock: KUMJIN_clean_sbu_0, # of connection points: 6
#     Node 19, Type 1, BuildingBlock: KUMJIN_clean_sbu_0, # of connection points: 6
#     Node 20, Type 1, BuildingBlock: KUMJIN_clean_sbu_0, # of connection points: 6
#     Node 21, Type 1, BuildingBlock: KUMJIN_clean_sbu_0, # of connection points: 6
#     Node 22, Type 1, BuildingBlock: KUMJIN_clean_sbu_0, # of connection points: 6
#     Node 23, Type 1, BuildingBlock: KUMJIN_clean_sbu_0, # of connection points: 6
#     Node 24, Type 1, BuildingBlock: KUMJIN_clean_sbu_0, # of connection points: 6
#     Node 25, Type 1, BuildingBlock: KUMJIN_clean_sbu_0, # of connection points: 6
#     Node 26, Type 1, BuildingBlock: KUMJIN_clean_sbu_0, # of connection points: 6
#     Edge 27, Type (0, 1), BuildingBlock: OJICUG_clean_linker_0, # of connection points: 2
#     Edge 28, Type (0, 1), BuildingBlock: OJICUG_clean_linker_0, # of connection points: 2
#     Edge 29, Type (0, 1), BuildingBlock: OJICUG_clean_linker_0, # of connection points: 2
#     Edge 30, Type (0, 1), BuildingBlock: OJICUG_clean_linker_0, # of connection points: 2
#     Edge 31, Type (0, 1), BuildingBlock: OJICUG_clean_linker_0, # of connection points: 2
#     Edge 32, Type (0, 1), BuildingBlock: OJICUG_clean_linker_0, # of connection points: 2
#     Edge 33, Type (0, 1), BuildingBlock: OJICUG_clean_linker_0, # of connection points: 2
#     Edge 34, Type (0, 1), BuildingBlock: OJICUG_clean_linker_0, # of connection points: 2
#     Edge 35, Type (0, 1), BuildingBlock: OJICUG_clean_linker_0, # of connection points: 2
#     Edge 36, Type (0, 1), BuildingBlock: OJICUG_clean_linker_0, # of connection points: 2
#     Edge 37, Type (0, 1), BuildingBlock: OJICUG_clean_linker_0, # of connection points: 2
#     Edge 38, Type (0, 1), BuildingBlock: OJICUG_clean_linker_0, # of connection points: 2
#     Edge 39, Type (0, 1), BuildingBlock: OJICUG_clean_linker_0, # of connection points: 2
#     Edge 40, Type (0, 1), BuildingBlock: OJICUG_clean_linker_0, # of connection points: 2
#     Edge 41, Type (0, 1), BuildingBlock: OJICUG_clean_linker_0, # of connection points: 2
#     Edge 42, Type (0, 1), BuildingBlock: OJICUG_clean_linker_0, # of connection points: 2
#     Edge 43, Type (0, 1), BuildingBlock: OJICUG_clean_linker_0, # of connection points: 2
#     Edge 44, Type (0, 1), BuildingBlock: OJICUG_clean_linker_0, # of connection points: 2
#     Edge 45, Type (0, 1), BuildingBlock: OJICUG_clean_linker_0, # of connection points: 2
#     Edge 46, Type (0, 1), BuildingBlock: OJICUG_clean_linker_0, # of connection points: 2
#     Edge 47, Type (0, 1), BuildingBlock: OJICUG_clean_linker_0, # of connection points: 2
#     Edge 48, Type (0, 1), BuildingBlock: OJICUG_clean_linker_0, # of connection points: 2
#     Edge 49, Type (0, 1), BuildingBlock: OJICUG_clean_linker_0, # of connection points: 2
#     Edge 50, Type (0, 1), BuildingBlock: OJICUG_clean_linker_0, # of connection points: 2
#     Edge 51, Type (0, 1), BuildingBlock: OJICUG_clean_linker_0, # of connection points: 2
#     Edge 52, Type (0, 1), BuildingBlock: OJICUG_clean_linker_0, # of connection points: 2
#     Edge 53, Type (0, 1), BuildingBlock: OJICUG_clean_linker_0, # of connection points: 2
#     Edge 54, Type (0, 1), BuildingBlock: OJICUG_clean_linker_0, # of connection points: 2
#     Edge 55, Type (0, 1), BuildingBlock: OJICUG_clean_linker_0, # of connection points: 2
#     Edge 56, Type (0, 1), BuildingBlock: OJICUG_clean_linker_0, # of connection points: 2
#     Edge 57, Type (0, 1), BuildingBlock: OJICUG_clean_linker_0, # of connection points: 2
#     Edge 58, Type (0, 1), BuildingBlock: OJICUG_clean_linker_0, # of connection points: 2
#     Edge 59, Type (0, 1), BuildingBlock: OJICUG_clean_linker_0, # of connection points: 2
#     Edge 60, Type (0, 1), BuildingBlock: OJICUG_clean_linker_0, # of connection points: 2
#     Edge 61, Type (0, 1), BuildingBlock: OJICUG_clean_linker_0, # of connection points: 2
#     Edge 62, Type (0, 1), BuildingBlock: OJICUG_clean_linker_0, # of connection points: 2
#     Edge 63, Type (0, 1), BuildingBlock: OJICUG_clean_linker_0, # of connection points: 2
#     Edge 64, Type (0, 1), BuildingBlock: OJICUG_clean_linker_0, # of connection points: 2
#     Edge 65, Type (0, 1), BuildingBlock: OJICUG_clean_linker_0, # of connection points: 2
#     Edge 66, Type (0, 1), BuildingBlock: OJICUG_clean_linker_0, # of connection points: 2
#     Edge 67, Type (0, 1), BuildingBlock: OJICUG_clean_linker_0, # of connection points: 2
#     Edge 68, Type (0, 1), BuildingBlock: OJICUG_clean_linker_0, # of connection points: 2
#     Edge 69, Type (0, 1), BuildingBlock: OJICUG_clean_linker_0, # of connection points: 2
#     Edge 70, Type (0, 1), BuildingBlock: OJICUG_clean_linker_0, # of connection points: 2
#     Edge 71, Type (0, 1), BuildingBlock: OJICUG_clean_linker_0, # of connection points: 2
#     Edge 72, Type (0, 1), BuildingBlock: OJICUG_clean_linker_0, # of connection points: 2
#     Edge 73, Type (0, 1), BuildingBlock: OJICUG_clean_linker_0, # of connection points: 2
#     Edge 74, Type (0, 1), BuildingBlock: OJICUG_clean_linker_0, # of connection points: 2
#     Edge 75, Type (0, 1), BuildingBlock: OJICUG_clean_linker_0, # of connection points: 2
#     Edge 76, Type (0, 1), BuildingBlock: OJICUG_clean_linker_0, # of connection points: 2
#     Edge 77, Type (0, 1), BuildingBlock: OJICUG_clean_linker_0, # of connection points: 2
#     Edge 78, Type (0, 1), BuildingBlock: OJICUG_clean_linker_0, # of connection points: 2
#     Edge 79, Type (0, 1), BuildingBlock: OJICUG_clean_linker_0, # of connection points: 2
#     Edge 80, Type (0, 1), BuildingBlock: OJICUG_clean_linker_0, # of connection points: 2
# Relax obj value: 0.008
# Max RMSD: 0.090
# Mean RMSD: 0.072
data_MOF--net-eea--node1-KUMJIN_clean_sbu_0--node2-MIDCAF_clean_linker_0--edge1-OJICUG_clean_linker_0
_symmetry_space_group_name_H-M    P1
_symmetry_Int_Tables_number       1
_symmetry_cell_setting            triclinic
loop_
_symmetry_equiv_pos_as_xyz
'x, y, z'
_cell_length_a     47.883993
_cell_length_b     49.231626
_cell_length_c     71.673265
_cell_angle_alpha  89.964216
_cell_angle_beta   89.983122
_cell_angle_gamma 119.94958
loop_
_atom_site_label
_atom_site_type_symbol
_atom_site_fract_x
_atom_site_fract_y
_atom_site_fract_z
_atom_type_partial_charge
C0 C 0.23101 0.01255 0.40863 0.0
C1 C 0.2185 0.0066 0.39041 0.0
C2 C 0.21399 0.0294 0.38129 0.0
C3 C 0.222 0.05761 0.39016 0.0
H4 H 0.191 0.12676 0.39819 0.0
H5 H 0.17533 0.16174 0.3837 0.0
H6 H 0.26429 0.24159 0.40272 0.0
H7 H 0.27864 0.20629 0.41831 0.0
H8 H 0.29836 0.18533 0.46149 0.0
H9 H 0.32557 0.19626 0.49171 0.0
H10 H 0.30929 0.10179 0.49361 0.0
H11 H 0.28206 0.09066 0.46369 0.0
H12 H 0.24881 0.04459 0.43149 0.0
H13 H 0.23424 0.99525 0.41616 0.0
H14 H 0.20478 0.02569 0.36717 0.0
H15 H 0.21849 0.07477 0.38265 0.0
N16 N 0.23619 0.11428 0.40981 0.0
N17 N 0.26252 0.15006 0.43413 0.0
N18 N 0.26104 0.10172 0.43372 0.0
C19 C 0.24528 0.14233 0.418 0.0
C20 C 0.27031 0.12965 0.44214 0.0
C21 C 0.24417 0.09392 0.41753 0.0
C22 C 0.236 0.16387 0.40938 0.0
C23 C 0.2071 0.15183 0.39931 0.0
C24 C 0.19827 0.17196 0.39085 0.0
C25 C 0.21854 0.20468 0.39185 0.0
C26 C 0.24764 0.21662 0.40191 0.0
C27 C 0.25605 0.19643 0.41078 0.0
C28 C 0.28786 0.13707 0.46014 0.0
C29 C 0.30063 0.1669 0.46833 0.0
C30 C 0.31636 0.17324 0.48558 0.0
C31 C 0.31935 0.14981 0.49504 0.0
C32 C 0.30695 0.12017 0.48676 0.0
C33 C 0.29149 0.1139 0.46952 0.0
C34 C 0.23486 0.06371 0.40831 0.0
C35 C 0.23919 0.04081 0.41745 0.0
C36 C 0.99031 0.2217 0.40241 0.0
C37 C 1.00095 0.21377 0.3861 0.0
C38 C 0.984 0.18267 0.37972 0.0
C39 C 0.95662 0.16014 0.38927 0.0
H40 H 0.87412 0.0739 0.38152 0.0
H41 H 0.8365 0.02436 0.36665 0.0
H42 H 0.77676 0.99651 0.41603 0.0
H43 H 0.8138 0.04607 0.43076 0.0
H44 H 0.82825 0.09178 0.46264 0.0
H45 H 0.81273 0.10292 0.49264 0.0
H46 H 0.89863 0.19413 0.49315 0.0
H47 H 0.91464 0.18288 0.46304 0.0
H48 H 0.95573 0.20629 0.42451 0.0
H49 H 1.00317 0.24537 0.40785 0.0
H50 H 0.99159 0.17589 0.36717 0.0
H51 H 0.94394 0.13645 0.38387 0.0
N52 N 0.89652 0.11625 0.40749 0.0
N53 N 0.86209 0.10153 0.43336 0.0
N54 N 0.90876 0.15096 0.43266 0.0
C55 C 0.86926 0.09465 0.41631 0.0
C56 C 0.88161 0.12952 0.44169 0.0
C57 C 0.91644 0.14447 0.41555 0.0
C58 C 0.84703 0.06415 0.40734 0.0
C59 C 0.853 0.05723 0.38923 0.0
C60 C 0.83149 0.02874 0.38073 0.0
C61 C 0.80353 0.00651 0.39012 0.0
C62 C 0.79776 0.01332 0.40827 0.0
C63 C 0.8192 0.04174 0.41677 0.0
C64 C 0.87272 0.13647 0.46027 0.0
C65 C 0.84399 0.11425 0.46907 0.0
C66 C 0.83492 0.12069 0.48629 0.0
C67 C 0.85428 0.14951 0.49527 0.0
C68 C 0.88326 0.17161 0.48667 0.0
C69 C 0.89235 0.1652 0.46935 0.0
C70 C 0.94583 0.16815 0.40555 0.0
C71 C 0.9632 0.19919 0.41205 0.0
C72 C 0.78436 0.76756 0.40261 0.0
C73 C 0.79092 0.78545 0.38624 0.0
C74 C 0.82216 0.79928 0.37862 0.0
C75 C 0.8461 0.79483 0.38707 0.0
H76 H 0.94172 0.80635 0.3802 0.0
H77 H 0.99086 0.81453 0.36435 0.0
H78 H 1.00243 0.75752 0.40594 0.0
H79 H 0.95399 0.74943 0.42171 0.0
H80 H 0.91368 0.73065 0.45865 0.0
H81 H 0.90168 0.70678 0.48959 0.0
H82 H 0.81998 0.72102 0.49391 0.0
H83 H 0.83199 0.74509 0.46304 0.0
H84 H 0.80201 0.74945 0.42374 0.0
H85 H 0.76071 0.75693 0.409 0.0
H86 H 0.82792 0.81313 0.36597 0.0
H87 H 0.86983 0.80558 0.38078 0.0
N88 N 0.89203 0.77787 0.40376 0.0
N89 N 0.90769 0.75944 0.42975 0.0
N90 N 0.85892 0.75961 0.43035 0.0
C91 C 0.91384 0.77169 0.41218 0.0
C92 C 0.88043 0.75349 0.439 0.0
C93 C 0.86435 0.77171 0.41277 0.0
C94 C 0.9437 0.77717 0.40228 0.0
C95 C 0.95475 0.79554 0.38595 0.0
C96 C 0.98297 0.80036 0.3769 0.0
C97 C 1.00043 0.78647 0.3838 0.0
C98 C 0.98935 0.7682 0.40009 0.0
C99 C 0.96157 0.76374 0.40922 0.0
C100 C 0.87376 0.73977 0.45819 0.0
C101 C 0.89322 0.72887 0.46618 0.0
C102 C 0.88626 0.71502 0.48393 0.0
C103 C 0.85981 0.71188 0.49427 0.0
C104 C 0.84073 0.72332 0.48645 0.0
C105 C 0.84752 0.73694 0.46864 0.0
C106 C 0.83945 0.77689 0.4035 0.0
C107 C 0.80825 0.76347 0.41115 0.0
C108 C 0.01954 0.23076 0.61572 0.0
C109 C 0.00835 0.21271 0.6321 0.0
C110 C 0.02583 0.19899 0.63922 0.0
C111 C 0.05418 0.2038 0.63034 0.0
H112 H 0.13861 0.19274 0.63603 0.0
H113 H 0.17996 0.18431 0.65087 0.0
H114 H 0.24845 0.24198 0.60875 0.0
H115 H 0.20778 0.25036 0.59402 0.0
H116 H 0.18365 0.26214 0.5567 0.0
H117 H 0.19711 0.28634 0.52601 0.0
H118 H 0.10783 0.28802 0.52497 0.0
H119 H 0.09394 0.2632 0.5557 0.0
H120 H 0.05514 0.24938 0.59421 0.0
H121 H 0.00645 0.2413 0.60969 0.0
H122 H 0.01789 0.18501 0.65183 0.0
H123 H 0.06722 0.19317 0.63629 0.0
N124 N 0.11709 0.22134 0.61301 0.0
N125 N 0.15121 0.24031 0.5869 0.0
N126 N 0.10236 0.24032 0.58685 0.0
C127 C 0.14512 0.22774 0.60435 0.0
C128 C 0.13006 0.24657 0.57796 0.0
C129 C 0.09557 0.22768 0.60434 0.0
C130 C 0.1697 0.22224 0.61378 0.0
C131 C 0.16251 0.20365 0.62997 0.0
C132 C 0.18613 0.19869 0.63843 0.0
C133 C 0.21757 0.21264 0.63105 0.0
C134 C 0.22465 0.23123 0.61495 0.0
C135 C 0.20111 0.23584 0.60642 0.0
C136 C 0.1377 0.26075 0.55888 0.0
C137 C 0.16672 0.26753 0.54999 0.0
C138 C 0.17459 0.28162 0.53235 0.0
C139 C 0.15372 0.28941 0.52298 0.0
C140 C 0.1244 0.28213 0.53166 0.0
C141 C 0.11652 0.26804 0.54938 0.0
C142 C 0.06538 0.22201 0.61395 0.0
C143 C 0.04746 0.23521 0.60675 0.0
C144 C 0.78065 0.78948 0.60658 0.0
C145 C 0.79225 0.79493 0.62502 0.0
C146 C 0.79554 0.82131 0.63451 0.0
C147 C 0.78741 0.84177 0.6258 0.0
H148 H 0.79023 0.92436 0.63404 0.0
H149 H 0.80319 0.97319 0.64956 0.0
H150 H 0.77628 0.00445 0.59989 0.0
H151 H 0.76249 0.95533 0.58449 0.0
H152 H 0.72849 0.90838 0.55233 0.0
H153 H 0.69974 0.89592 0.5229 0.0
H154 H 0.6907 0.80412 0.52361 0.0
H155 H 0.7202 0.81675 0.55302 0.0
H156 H 0.76358 0.80502 0.58365 0.0
H157 H 0.77828 0.76961 0.59878 0.0
H158 H 0.80392 0.82594 0.64882 0.0
H159 H 0.79013 0.86176 0.63362 0.0
N160 N 0.77453 0.88558 0.60671 0.0
N161 N 0.75174 0.89869 0.58191 0.0
N162 N 0.75171 0.85105 0.5815 0.0
C163 C 0.76702 0.90601 0.59863 0.0
C164 C 0.74392 0.87127 0.57324 0.0
C165 C 0.76708 0.85812 0.59826 0.0
C166 C 0.77525 0.93585 0.60801 0.0
C167 C 0.78707 0.94162 0.6264 0.0
C168 C 0.79466 0.96969 0.63529 0.0
C169 C 0.79074 0.99269 0.62597 0.0
C170 C 0.77907 0.98699 0.60756 0.0
C171 C 0.77133 0.95887 0.5987 0.0
C172 C 0.72668 0.86355 0.55513 0.0
C173 C 0.72044 0.88549 0.54628 0.0
C174 C 0.70371 0.87829 0.52942 0.0
C175 C 0.6927 0.84894 0.52096 0.0
C176 C 0.6991 0.82704 0.52969 0.0
C177 C 0.71592 0.83426 0.5466 0.0
C178 C 0.77565 0.83627 0.60739 0.0
C179 C 0.77235 0.80987 0.59788 0.0
C180 C 0.20919 0.98265 0.60847 0.0
C181 C 0.20357 0.98954 0.62664 0.0
C182 C 0.17578 0.96729 0.63615 0.0
C183 C 0.15429 0.93871 0.62774 0.0
H184 H 0.06406 0.85929 0.63385 0.0
H185 H 0.01661 0.82008 0.65079 0.0
H186 H 0.00497 0.7499 0.61061 0.0
H187 H 0.05223 0.78878 0.59371 0.0
H188 H 0.09533 0.81018 0.5562 0.0
H189 H 0.10962 0.79919 0.52551 0.0
H190 H 0.18666 0.89525 0.5213 0.0
H191 H 0.17233 0.90641 0.5517 0.0
H192 H 0.19299 0.94972 0.58606 0.0
H193 H 0.23008 -0.00054 0.60064 0.0
H194 H 0.17089 0.97173 0.65024 0.0
H195 H 0.1333 0.92204 0.63555 0.0
N196 N 0.11106 0.8793 0.60994 0.0
N197 N 0.09813 0.84445 0.5848 0.0
N198 N 0.14432 0.89424 0.58353 0.0
C199 C 0.09107 0.85094 0.60208 0.0
C200 C 0.1247 0.86608 0.57539 0.0
C201 C 0.13779 0.90107 0.60078 0.0
C202 C 0.06209 0.82725 0.61238 0.0
C203 C 0.05145 0.83548 0.62863 0.0
C204 C 0.02419 0.81308 0.63832 0.0
C205 C 0.00721 0.78188 0.63212 0.0
C206 C 0.01784 0.77366 0.61591 0.0
C207 C 0.04483 0.79605 0.60613 0.0
C208 C 0.13267 0.85918 0.55654 0.0
C209 C 0.11523 0.82901 0.54871 0.0
C210 C 0.12352 0.82265 0.53115 0.0
C211 C 0.14928 0.84634 0.52092 0.0
C212 C 0.16643 0.87654 0.52866 0.0
C213 C 0.1583 0.88286 0.54622 0.0
C214 C 0.16006 0.9317 0.60961 0.0
C215 C 0.18773 0.95413 0.60006 0.0
C216 C 0.89782 0.34633 0.74318 0.0
C217 C 0.88537 0.34052 0.72494 0.0
C218 C 0.88078 0.36333 0.71592 0.0
C219 C 0.88867 0.39142 0.72488 0.0
H220 H 0.85781 0.46028 0.73266 0.0
H221 H 0.8425 0.49524 0.71775 0.0
H222 H 0.93092 0.57511 0.73734 0.0
H223 H 0.94493 0.53987 0.75329 0.0
H224 H 0.96469 0.51888 0.79637 0.0
H225 H 0.99245 0.53 0.82641 0.0
H226 H 0.97768 0.43605 0.82783 0.0
H227 H 0.94989 0.42473 0.79809 0.0
H228 H 0.91548 0.37818 0.76614 0.0
H229 H 0.90111 0.32899 0.75064 0.0
H230 H 0.87161 0.35973 0.70178 0.0
H231 H 0.88512 0.4086 0.71743 0.0
N232 N 0.90268 0.44785 0.74465 0.0
N233 N 0.92915 0.48369 0.76891 0.0
N234 N 0.92776 0.43538 0.76847 0.0
C235 C 0.91176 0.47589 0.75282 0.0
C236 C 0.93704 0.46333 0.77688 0.0
C237 C 0.91075 0.42754 0.75232 0.0
C238 C 0.90253 0.49742 0.74415 0.0
C239 C 0.87385 0.48536 0.73383 0.0
C240 C 0.86524 0.50546 0.72513 0.0
C241 C 0.88548 0.53817 0.72616 0.0
C242 C 0.9143 0.55014 0.73649 0.0
C243 C 0.92251 0.52998 0.74558 0.0
C244 C 0.95489 0.47086 0.7948 0.0
C245 C 0.96741 0.50061 0.80306 0.0
C246 C 0.98346 0.50706 0.82021 0.0
C247 C 0.98705 0.48383 0.8295 0.0
C248 C 0.97489 0.45428 0.82113 0.0
C249 C 0.95909 0.4479 0.80399 0.0
C250 C 0.9015 0.3974 0.74303 0.0
C251 C 0.90589 0.37448 0.7521 0.0
C252 C 0.65902 0.5564 0.73419 0.0
C253 C 0.66963 0.54848 0.71787 0.0
C254 C 0.65258 0.51741 0.71143 0.0
C255 C 0.62516 0.49488 0.72096 0.0
H256 H 0.54876 0.40117 0.71879 0.0
H257 H 0.51126 0.35106 0.70452 0.0
H258 H 0.43711 0.34036 0.74321 0.0
H259 H 0.47488 0.38963 0.75789 0.0
H260 H 0.5018 0.42551 0.79695 0.0
H261 H 0.4877 0.43724 0.82728 0.0
H262 H 0.56731 0.53214 0.82354 0.0
H263 H 0.58139 0.52061 0.79295 0.0
H264 H 0.62451 0.54103 0.75628 0.0
H265 H 0.67195 0.58003 0.73968 0.0
H266 H 0.66018 0.51066 0.69887 0.0
H267 H 0.6124 0.4712 0.71554 0.0
N268 N 0.56491 0.45107 0.73941 0.0
N269 N 0.53078 0.43696 0.76545 0.0
N270 N 0.57784 0.48604 0.76449 0.0
C271 C 0.53759 0.42983 0.74837 0.0
C272 C 0.55077 0.4649 0.77368 0.0
C273 C 0.58514 0.47931 0.74736 0.0
C274 C 0.51491 0.39943 0.73952 0.0
C275 C 0.52446 0.38808 0.72426 0.0
C276 C 0.50285 0.35938 0.716 0.0
C277 C 0.47103 0.34152 0.72267 0.0
C278 C 0.46152 0.35305 0.73789 0.0
C279 C 0.48321 0.3815 0.74627 0.0
C280 C 0.54274 0.47212 0.7924 0.0
C281 C 0.51642 0.44892 0.80253 0.0
C282 C 0.50842 0.45556 0.82002 0.0
C283 C 0.5264 0.4856 0.82786 0.0
C284 C 0.55279 0.50883 0.81781 0.0
C285 C 0.56095 0.50214 0.80031 0.0
C286 C 0.61446 0.50288 0.73728 0.0
C287 C 0.6319 0.53391 0.7438 0.0
C288 C 0.4533 0.10393 0.73734 0.0
C289 C 0.45977 0.12133 0.72078 0.0
C290 C 0.49085 0.13456 0.71298 0.0
C291 C 0.51466 0.1299 0.72142 0.0
H292 H 0.60992 0.14083 0.71469 0.0
H293 H 0.65901 0.14896 0.69883 0.0
H294 H 0.67026 0.0915 0.74024 0.0
H295 H 0.62181 0.08343 0.75601 0.0
H296 H 0.58001 0.06289 0.79268 0.0
H297 H 0.56709 0.03829 0.82345 0.0
H298 H 0.48701 0.05501 0.82789 0.0
H299 H 0.49992 0.07976 0.79725 0.0
H300 H 0.47081 0.08591 0.75858 0.0
H301 H 0.42977 0.09376 0.74386 0.0
H302 H 0.49653 0.14801 0.70018 0.0
H303 H 0.53823 0.1401 0.71497 0.0
N304 N 0.56032 0.11265 0.7382 0.0
N305 N 0.57537 0.09329 0.76403 0.0
N306 N 0.52696 0.09414 0.76466 0.0
C307 C 0.58182 0.10595 0.74656 0.0
C308 C 0.54811 0.08747 0.77325 0.0
C309 C 0.53267 0.10663 0.74719 0.0
C310 C 0.6117 0.11141 0.73667 0.0
C311 C 0.62286 0.1299 0.72039 0.0
C312 C 0.65106 0.1347 0.71134 0.0
C313 C 0.66844 0.12068 0.71818 0.0
C314 C 0.65725 0.10228 0.73442 0.0
C315 C 0.62947 0.09783 0.74356 0.0
C316 C 0.54098 0.0733 0.79233 0.0
C317 C 0.55972 0.0615 0.80022 0.0
C318 C 0.55222 0.04722 0.81786 0.0
C319 C 0.52596 0.04458 0.82819 0.0
C320 C 0.5076 0.0569 0.82046 0.0
C321 C 0.51492 0.07093 0.80276 0.0
C322 C 0.50803 0.11231 0.738 0.0
C323 C 0.47704 0.09961 0.74586 0.0
C324 C 0.68524 0.56224 0.94833 0.0
C325 C 0.67425 0.54434 0.96477 0.0
C326 C 0.69183 0.53071 0.97186 0.0
C327 C 0.72013 0.53553 0.96291 0.0
H328 H 0.80466 0.5252 0.96885 0.0
H329 H 0.84608 0.51711 0.98389 0.0
H330 H 0.91453 0.57431 0.94162 0.0
H331 H 0.87379 0.58237 0.9267 0.0
H332 H 0.84995 0.59447 0.88952 0.0
H333 H 0.86375 0.61894 0.85893 0.0
H334 H 0.77431 0.62028 0.85752 0.0
H335 H 0.76007 0.59519 0.88818 0.0
H336 H 0.72067 0.5808 0.92671 0.0
H337 H 0.67207 0.57273 0.94233 0.0
H338 H 0.68405 0.51684 0.98452 0.0
H339 H 0.73328 0.525 0.96885 0.0
N340 N 0.78301 0.55327 0.94561 0.0
N341 N 0.81728 0.57244 0.91958 0.0
N342 N 0.7683 0.5722 0.91941 0.0
C343 C 0.81113 0.55983 0.93701 0.0
C344 C 0.7961 0.57861 0.91059 0.0
C345 C 0.76145 0.5595 0.93689 0.0
C346 C 0.83573 0.55446 0.94652 0.0
C347 C 0.82857 0.53608 0.9628 0.0
C348 C 0.85223 0.53131 0.97137 0.0
C349 C 0.88368 0.54524 0.96402 0.0
C350 C 0.89072 0.56359 0.94781 0.0
C351 C 0.86715 0.56802 0.93917 0.0
C352 C 0.80389 0.59289 0.89153 0.0
C353 C 0.83305 0.59983 0.88276 0.0
C354 C 0.84111 0.61408 0.86516 0.0
C355 C 0.82031 0.62188 0.85571 0.0
C356 C 0.79084 0.61441 0.86427 0.0
C357 C 0.78276 0.60017 0.88195 0.0
C358 C 0.73118 0.55366 0.94648 0.0
C359 C 0.71312 0.56671 0.93929 0.0
C360 C 0.44855 0.12363 0.93846 0.0
C361 C 0.4611 0.12991 0.9567 0.0
C362 C 0.4657 0.1572 0.96567 0.0
C363 C 0.45763 0.17752 0.95672 0.0
H364 H 0.48815 0.2777 0.94891 0.0
H365 H 0.50255 0.32741 0.96372 0.0
H366 H 0.41045 0.31647 0.9473 0.0
H367 H 0.39741 0.26798 0.93133 0.0
H368 H 0.38727 0.23703 0.88579 0.0
H369 H 0.35787 0.22351 0.85658 0.0
H370 H 0.3547 0.13426 0.85643 0.0
H371 H 0.38496 0.14806 0.8856 0.0
H372 H 0.43045 0.1382 0.91555 0.0
H373 H 0.44522 0.10308 0.93101 0.0
H374 H 0.47486 0.16256 0.9798 0.0
H375 H 0.46115 0.1981 0.96421 0.0
N376 N 0.44292 0.22003 0.93756 0.0
N377 N 0.41539 0.23026 0.9141 0.0
N378 N 0.4172 0.18352 0.91356 0.0
C379 C 0.43322 0.23914 0.92994 0.0
C380 C 0.40745 0.20259 0.90571 0.0
C381 C 0.43486 0.19209 0.92955 0.0
C382 C 0.44174 0.26915 0.93896 0.0
C383 C 0.47113 0.28611 0.94844 0.0
C384 C 0.47921 0.31451 0.95707 0.0
C385 C 0.45767 0.32616 0.95686 0.0
C386 C 0.42806 0.30881 0.94746 0.0
C387 C 0.4204 0.28085 0.93839 0.0
C388 C 0.38861 0.19367 0.88811 0.0
C389 C 0.38029 0.21444 0.87963 0.0
C390 C 0.36318 0.2066 0.86289 0.0
C391 C 0.3538 0.17775 0.85417 0.0
C392 C 0.36187 0.15683 0.86268 0.0
C393 C 0.3791 0.1647 0.87946 0.0
C394 C 0.44453 0.17097 0.93862 0.0
C395 C 0.44024 0.14386 0.92954 0.0
C396 C 0.87602 0.31565 0.94295 0.0
C397 C 0.87048 0.3225 0.96115 0.0
C398 C 0.84268 0.30023 0.97065 0.0
C399 C 0.82108 0.27171 0.9622 0.0
H400 H 0.73017 0.19218 0.96801 0.0
H401 H 0.68227 0.15283 0.98458 0.0
H402 H 0.67052 0.08339 0.94382 0.0
H403 H 0.7182 0.12239 0.92729 0.0
H404 H 0.76188 0.14388 0.89017 0.0
H405 H 0.77634 0.13316 0.85945 0.0
H406 H 0.85332 0.22929 0.85551 0.0
H407 H 0.83882 0.24019 0.88594 0.0
H408 H 0.85966 0.28285 0.92047 0.0
H409 H 0.89689 0.33246 0.93511 0.0
H410 H 0.83785 0.30462 0.98476 0.0
H411 H 0.80008 0.25504 0.97001 0.0
N412 N 0.77745 0.21249 0.94417 0.0
N413 N 0.76447 0.17798 0.91883 0.0
N414 N 0.81088 0.2276 0.91781 0.0
C415 C 0.75736 0.18428 0.93615 0.0
C416 C 0.79116 0.19961 0.90953 0.0
C417 C 0.80433 0.23427 0.9351 0.0
C418 C 0.72817 0.16052 0.94628 0.0
C419 C 0.71744 0.1685 0.96259 0.0
C420 C 0.68991 0.14602 0.97207 0.0
C421 C 0.67275 0.11498 0.96559 0.0
C422 C 0.6835 0.10701 0.94933 0.0
C423 C 0.71075 0.12948 0.93976 0.0
C424 C 0.79918 0.1929 0.89064 0.0
C425 C 0.7818 0.16279 0.88273 0.0
C426 C 0.79019 0.15658 0.86515 0.0
C427 C 0.81599 0.18037 0.855 0.0
C428 C 0.83307 0.21051 0.86282 0.0
C429 C 0.82484 0.21668 0.88039 0.0
C430 C 0.82676 0.26477 0.94403 0.0
C431 C 0.85446 0.28719 0.9345 0.0
C432 C 0.58113 0.69132 0.06762 0.0
C433 C 0.55148 0.67382 0.05829 0.0
C434 C 0.52986 0.68538 0.05804 0.0
C435 C 0.53786 0.71379 0.06663 0.0
H436 H 0.54824 0.80246 0.05128 0.0
H437 H 0.5341 0.83795 0.03605 0.0
H438 H 0.56214 0.89592 0.08546 0.0
H439 H 0.57732 0.86084 0.10058 0.0
H440 H 0.62546 0.85139 0.12986 0.0
H441 H 0.65345 0.86329 0.15987 0.0
H442 H 0.6431 0.77102 0.16085 0.0
H443 H 0.61515 0.75895 0.13113 0.0
H444 H 0.61167 0.73222 0.08372 0.0
H445 H 0.59881 0.68375 0.06779 0.0
H446 H 0.50649 0.67237 0.05145 0.0
H447 H 0.52076 0.7221 0.06619 0.0
N448 N 0.56602 0.77992 0.07778 0.0
N449 N 0.5907 0.81556 0.10234 0.0
N450 N 0.59259 0.76886 0.10142 0.0
C451 C 0.5737 0.80756 0.08609 0.0
C452 C 0.60014 0.79619 0.11011 0.0
C453 C 0.57547 0.76058 0.08533 0.0
C454 C 0.56407 0.82881 0.07718 0.0
C455 C 0.55134 0.8227 0.05898 0.0
C456 C 0.54301 0.84299 0.05024 0.0
C457 C 0.54698 0.86982 0.0595 0.0
C458 C 0.55926 0.87572 0.0778 0.0
C459 C 0.56782 0.85551 0.08652 0.0
C460 C 0.61791 0.80417 0.12806 0.0
C461 C 0.62919 0.83366 0.13646 0.0
C462 C 0.64536 0.84056 0.15359 0.0
C463 C 0.65028 0.81801 0.16272 0.0
C464 C 0.63928 0.78871 0.15426 0.0
C465 C 0.6234 0.7819 0.13713 0.0
C466 C 0.56723 0.73083 0.07611 0.0
C467 C 0.58869 0.71928 0.07666 0.0
C468 C 0.32367 0.89141 0.06805 0.0
C469 C 0.33454 0.88365 0.05176 0.0
C470 C 0.3176 0.85262 0.04524 0.0
C471 C 0.29015 0.82997 0.05469 0.0
H472 H 0.20774 0.74288 0.04701 0.0
H473 H 0.17018 0.69307 0.03235 0.0
H474 H 0.11097 0.6654 0.08194 0.0
H475 H 0.14792 0.71514 0.09646 0.0
H476 H 0.16239 0.76021 0.12831 0.0
H477 H 0.14676 0.77088 0.15839 0.0
H478 H 0.23202 0.86255 0.15902 0.0
H479 H 0.24816 0.85179 0.12879 0.0
H480 H 0.28891 0.87572 0.09006 0.0
H481 H 0.33649 0.91501 0.07359 0.0
H482 H 0.32534 0.84596 0.03271 0.0
H483 H 0.27757 0.80632 0.04921 0.0
N484 N 0.23016 0.78561 0.07294 0.0
N485 N 0.19601 0.77053 0.09895 0.0
N486 N 0.24236 0.82017 0.0982 0.0
C487 C 0.20308 0.76381 0.08183 0.0
C488 C 0.21541 0.79852 0.10729 0.0
C489 C 0.24996 0.81386 0.08101 0.0
C490 C 0.18091 0.7332 0.07293 0.0
C491 C 0.18674 0.72619 0.05481 0.0
C492 C 0.16526 0.69755 0.04642 0.0
C493 C 0.13746 0.67529 0.05593 0.0
C494 C 0.13182 0.68221 0.07408 0.0
C495 C 0.15322 0.71076 0.08246 0.0
C496 C 0.20654 0.8052 0.12596 0.0
C497 C 0.17798 0.7827 0.13477 0.0
C498 C 0.16884 0.78886 0.15204 0.0
C499 C 0.18797 0.81766 0.16107 0.0
C500 C 0.21683 0.84004 0.15249 0.0
C501 C 0.22599 0.83391 0.1351 0.0
C502 C 0.27924 0.83776 0.071 0.0
C503 C 0.29648 0.86877 0.07758 0.0
C504 C 0.11884 0.43555 0.0702 0.0
C505 C 0.12536 0.45339 0.05381 0.0
C506 C 0.15658 0.46718 0.04616 0.0
C507 C 0.18053 0.46273 0.0546 0.0
H508 H 0.27589 0.47421 0.04764 0.0
H509 H 0.32485 0.48236 0.03161 0.0
H510 H 0.33735 0.42617 0.07336 0.0
H511 H 0.28905 0.41811 0.08932 0.0
H512 H 0.24837 0.39894 0.12637 0.0
H513 H 0.23604 0.3748 0.15726 0.0
H514 H 0.1534 0.38766 0.16099 0.0
H515 H 0.16575 0.41201 0.13023 0.0
H516 H 0.13651 0.41747 0.09133 0.0
H517 H 0.09521 0.42495 0.07661 0.0
H518 H 0.16232 0.48099 0.0335 0.0
H519 H 0.20424 0.47344 0.04829 0.0
N520 N 0.22656 0.44593 0.07132 0.0
N521 N 0.24219 0.42738 0.09727 0.0
N522 N 0.19333 0.4274 0.09784 0.0
C523 C 0.24839 0.43977 0.07973 0.0
C524 C 0.21484 0.42129 0.10649 0.0
C525 C 0.19882 0.43964 0.0803 0.0
C526 C 0.2783 0.44542 0.06981 0.0
C527 C 0.28909 0.46359 0.05339 0.0
C528 C 0.31722 0.46841 0.04424 0.0
C529 C 0.33487 0.45471 0.05111 0.0
C530 C 0.32411 0.4367 0.06752 0.0
C531 C 0.29641 0.43225 0.07676 0.0
C532 C 0.20803 0.4074 0.12565 0.0
C533 C 0.22764 0.3968 0.13377 0.0
C534 C 0.22048 0.38279 0.15149 0.0
C535 C 0.19367 0.37919 0.16166 0.0
C536 C 0.17443 0.39032 0.15369 0.0
C537 C 0.18143 0.40412 0.13593 0.0
C538 C 0.17391 0.44482 0.07104 0.0
C539 C 0.14273 0.43145 0.07872 0.0
C540 C 0.35069 0.89477 0.28098 0.0
C541 C 0.3395 0.87675 0.29737 0.0
C542 C 0.35682 0.86284 0.30444 0.0
C543 C 0.38504 0.86745 0.29551 0.0
H544 H 0.4692 0.85678 0.30176 0.0
H545 H 0.51049 0.84856 0.31689 0.0
H546 H 0.57838 0.90344 0.27381 0.0
H547 H 0.53782 0.91162 0.2588 0.0
H548 H 0.51438 0.9245 0.22198 0.0
H549 H 0.52875 0.94943 0.19154 0.0
H550 H 0.44111 0.95414 0.19066 0.0
H551 H 0.42627 0.92856 0.22117 0.0
H552 H 0.38622 0.91318 0.25941 0.0
H553 H 0.33771 0.90546 0.27499 0.0
H554 H 0.34887 0.84889 0.31706 0.0
H555 H 0.39797 0.85667 0.30143 0.0
N556 N 0.44768 0.88448 0.27819 0.0
N557 N 0.48198 0.90341 0.25217 0.0
N558 N 0.43343 0.904 0.25207 0.0
C559 C 0.47567 0.89068 0.26957 0.0
C560 C 0.46111 0.91006 0.24323 0.0
C561 C 0.42641 0.89117 0.26952 0.0
C562 C 0.50003 0.88492 0.27903 0.0
C563 C 0.49294 0.86708 0.29554 0.0
C564 C 0.51651 0.86223 0.30416 0.0
C565 C 0.54778 0.87555 0.29662 0.0
C566 C 0.55471 0.89322 0.28014 0.0
C567 C 0.53123 0.89773 0.27145 0.0
C568 C 0.46917 0.92456 0.22424 0.0
C569 C 0.49799 0.9307 0.21537 0.0
C570 C 0.50639 0.94522 0.19786 0.0
C571 C 0.48628 0.95411 0.18862 0.0
C572 C 0.45711 0.94743 0.19727 0.0
C573 C 0.44868 0.93289 0.21486 0.0
C574 C 0.39628 0.88565 0.27912 0.0
C575 C 0.37851 0.89903 0.27195 0.0
C576 C 0.1056 0.45186 0.27453 0.0
C577 C 0.1175 0.45759 0.29291 0.0
C578 C 0.12036 0.48379 0.30241 0.0
C579 C 0.11172 0.50389 0.29373 0.0
H580 H 0.11556 0.58694 0.30161 0.0
H581 H 0.13008 0.63649 0.31672 0.0
H582 H 0.10348 0.66765 0.26689 0.0
H583 H 0.08815 0.61785 0.25191 0.0
H584 H 0.05321 0.5706 0.22012 0.0
H585 H 0.02559 0.55878 0.19034 0.0
H586 H 0.01705 0.46718 0.19065 0.0
H587 H 0.04545 0.4792 0.22044 0.0
H588 H 0.08794 0.46692 0.25164 0.0
H589 H 0.1035 0.4321 0.26672 0.0
H590 H 0.12891 0.4886 0.31668 0.0
H591 H 0.11423 0.52381 0.30154 0.0
N592 N 0.09897 0.54763 0.27451 0.0
N593 N 0.07657 0.56091 0.24959 0.0
N594 N 0.07599 0.51299 0.24935 0.0
C595 C 0.09177 0.56821 0.26633 0.0
C596 C 0.0685 0.53336 0.241 0.0
C597 C 0.09127 0.52004 0.26615 0.0
C598 C 0.10063 0.59834 0.27554 0.0
C599 C 0.11277 0.60432 0.29385 0.0
C600 C 0.12127 0.63281 0.3025 0.0
C601 C 0.11794 0.65601 0.29301 0.0
C602 C 0.10586 0.65006 0.27469 0.0
C603 C 0.09722 0.62153 0.26607 0.0
C604 C 0.0516 0.52585 0.22277 0.0
C605 C 0.04549 0.54788 0.21393 0.0
C606 C 0.0294 0.54103 0.19686 0.0
C607 C 0.0189 0.51196 0.18816 0.0
C608 C 0.02508 0.48991 0.19692 0.0
C609 C 0.04125 0.49677 0.21404 0.0
C610 C 0.09986 0.49823 0.27533 0.0
C611 C 0.09679 0.47191 0.26585 0.0
C612 C 0.54491 0.64356 0.27848 0.0
C613 C 0.5354 0.65518 0.29366 0.0
C614 C 0.50341 0.63762 0.30011 0.0
C615 C 0.48167 0.60911 0.29173 0.0
H616 H 0.39359 0.52662 0.30028 0.0
H617 H 0.34613 0.48743 0.31728 0.0
H618 H 0.33429 0.41719 0.2771 0.0
H619 H 0.38148 0.456 0.26015 0.0
H620 H 0.42437 0.47673 0.22283 0.0
H621 H 0.43844 0.46542 0.19216 0.0
H622 H 0.51773 0.56048 0.18849 0.0
H623 H 0.50366 0.57197 0.21888 0.0
H624 H 0.53141 0.60706 0.25839 0.0
H625 H 0.56943 0.65602 0.27332 0.0
H626 H 0.49498 0.64603 0.31154 0.0
H627 H 0.45726 0.59624 0.29705 0.0
N628 N 0.44113 0.54616 0.27658 0.0
N629 N 0.42789 0.51124 0.25145 0.0
N630 N 0.47508 0.56026 0.25048 0.0
C631 C 0.42075 0.51798 0.26863 0.0
C632 C 0.45495 0.53238 0.24222 0.0
C633 C 0.46843 0.56737 0.26761 0.0
C634 C 0.3915 0.49451 0.27883 0.0
C635 C 0.38089 0.50281 0.29506 0.0
C636 C 0.35364 0.48043 0.30479 0.0
C637 C 0.33667 0.4492 0.29863 0.0
C638 C 0.34717 0.44097 0.28237 0.0
C639 C 0.37413 0.46333 0.27256 0.0
C640 C 0.46287 0.52526 0.22343 0.0
C641 C 0.44473 0.49527 0.21547 0.0
C642 C 0.45288 0.48872 0.19791 0.0
C643 C 0.47919 0.51206 0.18785 0.0
C644 C 0.49707 0.54208 0.19573 0.0
C645 C 0.48909 0.54858 0.21328 0.0
C646 C 0.49124 0.59765 0.27653 0.0
C647 C 0.52308 0.6153 0.26996 0.0
Eu648 Eu 0.48806 0.97531 0.98705 0.0
C649 C 0.56169 0.09908 0.03431 0.0
C650 C 0.6178 0.11306 0.03277 0.0
C651 C 0.60363 0.15385 0.03601 0.0
C652 C 0.58476 0.09026 0.03252 0.0
C653 C 0.57082 0.13092 0.03643 0.0
C654 C 0.62709 0.14493 0.03416 0.0
C655 C 0.51454 0.11485 0.0405 0.0
N656 N 0.53027 0.07635 0.03475 0.0
C657 C 0.50673 0.0836 0.0384 0.0
C658 C 0.54671 0.13867 0.03931 0.0
Eu659 Eu 0.51857 0.02413 0.02996 0.0
N660 N 0.57493 0.05928 0.03129 0.0
C661 C 0.59694 0.04935 0.03162 0.0
C662 C 0.64049 0.10308 0.03205 0.0
C663 C 0.62999 0.07105 0.03173 0.0
H664 H 0.48181 0.06529 0.03919 0.0
H665 H 0.64732 0.06304 0.03149 0.0
H666 H 0.65234 0.1628 0.03421 0.0
H667 H 0.49576 0.12055 0.043 0.0
H668 H 0.58925 0.02472 0.03125 0.0
H669 H 0.35917 0.93575 0.98594 0.0
H670 H 0.66609 0.11984 0.03214 0.0
H671 H 0.52514 0.93454 0.97742 0.0
H672 H 0.41719 0.97431 0.98605 0.0
H673 H 0.51145 0.8794 0.97344 0.0
H674 H 0.61113 0.17847 0.03746 0.0
H675 H 0.3407 0.87902 0.98516 0.0
H676 H 0.35475 0.83628 0.98284 0.0
H677 H 0.55272 0.16286 0.04099 0.0
H678 H 0.39616 0.82093 0.97932 0.0
N679 N 0.43176 0.93993 0.98583 0.0
C680 C 0.40961 0.9497 0.98563 0.0
C681 C 0.36628 0.89588 0.98519 0.0
C682 C 0.38909 0.88607 0.98432 0.0
C683 C 0.37661 0.92787 0.98559 0.0
C684 C 0.42209 0.90899 0.98452 0.0
H685 H 0.45461 0.83686 0.97555 0.0
N686 N 0.47665 0.92321 0.98209 0.0
C687 C 0.4926 0.88495 0.97607 0.0
C688 C 0.44528 0.90036 0.98258 0.0
C689 C 0.50026 0.91614 0.97828 0.0
C690 C 0.4605 0.86101 0.97731 0.0
C691 C 0.4363 0.86857 0.98036 0.0
O692 O 0.51258 0.98241 0.96023 0.0
O693 O 0.52864 0.01724 1.00051 0.0
O694 O 0.51247 0.05319 0.00756 0.0
O695 O 0.47396 0.0132 0.98887 0.0
O696 O 0.54105 0.99066 0.98394 0.0
O697 O 0.47047 0.9876 0.96204 0.0
O698 O 0.49482 0.0185 0.05691 0.0
O699 O 0.47805 0.98228 0.01649 0.0
O700 O 0.49439 0.94621 0.00932 0.0
O701 O 0.53256 0.98614 0.02821 0.0
O702 O 0.46553 0.00866 0.03312 0.0
O703 O 0.5352 0.01057 0.05484 0.0
C704 C 0.55225 0.01566 0.99396 0.0
C705 C 0.48187 0.97284 0.93277 0.0
C706 C 0.48461 0.9764 0.89862 0.0
C707 C 0.4935 0.99081 0.91632 0.0
C708 C 0.4636 0.94378 0.89775 0.0
C709 C 0.46095 0.94043 0.93151 0.0
C710 C 0.45185 0.92604 0.91406 0.0
C711 C 0.49015 0.04287 0.99435 0.0
C712 C 0.4925 0.98806 0.95112 0.0
C713 C 0.40354 0.84551 0.98084 0.0
C714 C 0.37996 0.85425 0.98285 0.0
C715 C 0.45437 0.98367 0.02309 0.0
C716 C 0.52586 0.02679 0.08415 0.0
C717 C 0.51529 0.00887 0.10067 0.0
C718 C 0.52647 0.02311 0.11827 0.0
C719 C 0.54812 0.05565 0.11893 0.0
C720 C 0.54749 0.05908 0.08522 0.0
C721 C 0.55847 0.07338 0.10255 0.0
C722 C 0.5166 0.95653 0.02259 0.0
C723 C 0.51408 0.01155 0.0659 0.0
H724 H 0.50994 0.01585 0.91733 0.0
H725 H 0.45592 0.93198 0.88442 0.0
H726 H 0.4518 0.92627 0.94399 0.0
H727 H 0.43565 0.90099 0.91317 0.0
H728 H 0.4988 0.98384 0.09978 0.0
H729 H 0.55683 0.06753 0.13216 0.0
H730 H 0.55581 0.07318 0.07268 0.0
H731 H 0.57508 0.09837 0.10329 0.0
Eu732 Eu 0.0309 0.50706 0.98848 0.0
C733 C 0.8998 0.45678 0.03055 0.0
C734 C 0.88537 0.49712 0.02675 0.0
C735 C 0.84335 0.4426 0.02987 0.0
C736 C 0.90891 0.48796 0.02801 0.0
C737 C 0.86694 0.43382 0.03195 0.0
C738 C 0.85255 0.4742 0.02725 0.0
C739 C 0.88325 0.3957 0.03895 0.0
N740 N 0.92318 0.44914 0.03266 0.0
C741 C 0.91551 0.41935 0.03752 0.0
C742 C 0.85883 0.40288 0.03591 0.0
Eu743 Eu 0.97717 0.4901 0.02927 0.0
N744 N 0.94082 0.50951 0.0277 0.0
C745 C 0.95082 0.54079 0.02752 0.0
C746 C 0.89553 0.52909 0.02549 0.0
C747 C 0.92839 0.55103 0.02615 0.0
H748 H 0.93433 0.41369 0.03976 0.0
H749 H 0.9365 0.57584 0.02552 0.0
H750 H 0.83412 0.48076 0.02609 0.0
H751 H 0.87725 0.37197 0.04235 0.0
H752 H 0.97613 0.55801 0.0279 0.0
H753 H 0.07171 0.42142 0.99243 0.0
H754 H 0.87821 0.53708 0.02441 0.0
H755 H 0.07363 0.58345 0.97789 0.0
H756 H 0.03202 0.43918 0.99005 0.0
H757 H 0.13068 0.62517 0.97516 0.0
H758 H 0.81796 0.42526 0.03071 0.0
H759 H 0.12999 0.46023 0.99331 0.0
H760 H 0.17403 0.51655 0.99142 0.0
H761 H 0.83386 0.38454 0.03709 0.0
H762 H 0.19011 0.572 0.98671 0.0
N763 N 0.0673 0.4877 0.99002 0.0
C764 C 0.05733 0.45642 0.99033 0.0
C765 C 0.11265 0.46819 0.99222 0.0
C766 C 0.12277 0.50014 0.99085 0.0
C767 C 0.07979 0.44622 0.99169 0.0
C768 C 0.0992 0.50926 0.9896 0.0
H769 H 0.17413 0.61266 0.98034 0.0
N770 N 0.08485 0.54804 0.98499 0.0
C771 C 0.12472 0.60146 0.97859 0.0
C772 C 0.10826 0.54043 0.98704 0.0
C773 C 0.09248 0.57781 0.9801 0.0
C774 C 0.14917 0.59432 0.98158 0.0
C775 C 0.14111 0.5634 0.98557 0.0
O776 O 0.02749 0.5233 0.96072 0.0
O777 O 0.98616 0.50458 0.99949 0.0
O778 O 0.94919 0.45395 1.00716 0.0
O779 O 0.99142 0.45531 0.99015 0.0
O780 O 0.01431 0.54222 0.98246 0.0
O781 O 0.02289 0.47748 0.96407 0.0
O782 O 0.97968 0.47354 0.05712 0.0
O783 O 0.02183 0.49255 0.01825 0.0
O784 O 0.05893 0.54327 0.01052 0.0
O785 O 0.01673 0.54184 0.02762 0.0
O786 O 0.99395 0.45507 0.03539 0.0
O787 O 0.98584 0.51996 0.0536 0.0
C788 C 0.98775 0.52834 0.99179 0.0
C789 C 0.04446 0.50434 0.93568 0.0
C790 C 0.04866 0.50612 0.90175 0.0
C791 C 0.03008 0.49955 0.91807 0.0
C792 C 0.08199 0.51768 0.90331 0.0
C793 C 0.07767 0.51561 0.93703 0.0
C794 C 0.09633 0.52227 0.92088 0.0
C795 C 0.96056 0.44159 0.99505 0.0
C796 C 0.0245 0.49851 0.95235 0.0
C797 C 0.16473 0.55465 0.98761 0.0
C798 C 0.15558 0.52307 0.99027 0.0
C799 C 0.02044 0.46893 0.02601 0.0
C800 C 0.96301 0.49338 0.08188 0.0
C801 C 0.97642 0.49651 0.09967 0.0
C802 C 0.9575 0.49097 0.11578 0.0
C803 C 0.92483 0.48219 0.11375 0.0
C804 C 0.93045 0.4847 0.08012 0.0
C805 C 0.91147 0.47911 0.09601 0.0
C806 C 0.04756 0.55562 0.02263 0.0
C807 C 0.98328 0.49864 0.06541 0.0
H808 H 0.00444 0.49119 0.91711 0.0
H809 H 0.09685 0.52272 0.89097 0.0
H810 H 0.08915 0.51939 0.95049 0.0
H811 H 0.12197 0.53101 0.92199 0.0
H812 H 1.00174 0.50367 0.10092 0.0
H813 H 0.90951 0.47741 0.12585 0.0
H814 H 0.91973 0.48221 0.06652 0.0
H815 H 0.88631 0.4723 0.09457 0.0
Eu816 Eu 0.51881 0.4895 0.02924 0.0
C817 C 0.44943 0.54534 0.98167 0.0
C818 C 0.39283 0.50641 0.98409 0.0
C819 C 0.40893 0.56122 0.97945 0.0
C820 C 0.42556 0.51455 0.98422 0.0
C821 C 0.44138 0.56892 0.9787 0.0
C822 C 0.38469 0.53002 0.98218 0.0
C823 C 0.49772 0.60524 0.97268 0.0
N824 N 0.48047 0.5519 0.98086 0.0
C825 C 0.50448 0.58105 0.97577 0.0
C826 C 0.46609 0.59928 0.97445 0.0
Eu827 Eu 0.49026 0.51006 0.98649 0.0
N828 N 0.43426 0.4923 0.98572 0.0
C829 C 0.41138 0.46125 0.98563 0.0
C830 C 0.36927 0.4747 0.98527 0.0
C831 C 0.3786 0.452 0.98574 0.0
H832 H 0.529 0.58583 0.97451 0.0
H833 H 0.36058 0.42737 0.98623 0.0
H834 H 0.35969 0.52426 0.98224 0.0
H835 H 0.5169 0.62847 0.96902 0.0
H836 H 0.41823 0.44345 0.98605 0.0
H837 H 0.6484 0.57263 0.02954 0.0
H838 H 0.34387 0.46748 0.9853 0.0
H839 H 0.48032 0.41372 0.04116 0.0
H840 H 0.59071 0.55633 0.02966 0.0
H841 H 0.49264 0.37123 0.04667 0.0
H842 H 0.40227 0.57906 0.97741 0.0
H843 H 0.66535 0.53271 0.0306 0.0
H844 H 0.64978 0.476 0.03373 0.0
H845 H 0.4609 0.61804 0.97202 0.0
H846 H 0.60737 0.42113 0.03854 0.0
N847 N 0.57486 0.50751 0.0301 0.0
C848 C 0.59765 0.5386 0.03014 0.0
C849 C 0.63993 0.52538 0.03061 0.0
C850 C 0.61647 0.49364 0.03181 0.0
C851 C 0.63046 0.54798 0.03006 0.0
C852 C 0.5837 0.48537 0.03165 0.0
H853 H 0.54876 0.38194 0.0438 0.0
N854 N 0.52884 0.44783 0.03492 0.0
C855 C 0.51178 0.39451 0.04306 0.0
C856 C 0.55992 0.45453 0.03418 0.0
C857 C 0.50488 0.41861 0.03995 0.0
C858 C 0.54347 0.40064 0.04137 0.0
C859 C 0.56811 0.43105 0.03716 0.0
O860 O 0.49398 0.47344 0.056 0.0
O861 O 0.47904 0.49401 0.01606 0.0
O862 O 0.49797 0.54643 0.00815 0.0
O863 O 0.53402 0.54145 0.02784 0.0
O864 O 0.46542 0.45455 0.03209 0.0
O865 O 0.53825 0.51798 0.05437 0.0
O866 O 0.5147 0.52603 0.95962 0.0
O867 O 0.52999 0.50555 0.99968 0.0
O868 O 0.51103 0.45307 0.00757 0.0
O869 O 0.47501 0.45812 0.98789 0.0
O870 O 0.5437 0.54486 0.98353 0.0
O871 O 0.47057 0.48137 0.96147 0.0
C872 C 0.4549 0.46972 0.02248 0.0
C873 C 0.52591 0.49067 0.0831 0.0
C874 C 0.52236 0.48822 0.11715 0.0
C875 C 0.51371 0.49546 0.09984 0.0
C876 C 0.54347 0.47609 0.11737 0.0
C877 C 0.54701 0.4787 0.08363 0.0
C878 C 0.5557 0.47144 0.10072 0.0
C879 C 0.51933 0.55663 0.02188 0.0
C880 C 0.51567 0.49753 0.06523 0.0
C881 C 0.6006 0.4389 0.03648 0.0
C882 C 0.62475 0.47014 0.03376 0.0
C883 C 0.55419 0.52974 0.99321 0.0
C884 C 0.48219 0.50856 0.93275 0.0
C885 C 0.49381 0.50345 0.9159 0.0
C886 C 0.48463 0.51043 0.89869 0.0
C887 C 0.46361 0.52266 0.89867 0.0
C888 C 0.46114 0.52059 0.93243 0.0
C889 C 0.45194 0.52762 0.91544 0.0
C890 C 0.48971 0.44293 0.99382 0.0
C891 C 0.49289 0.50186 0.9505 0.0
H892 H 0.49712 0.5044 0.09934 0.0
H893 H 0.55095 0.47065 0.13044 0.0
H894 H 0.55668 0.47493 0.07089 0.0
H895 H 0.57204 0.46224 0.10106 0.0
H896 H 0.51036 0.49444 0.91623 0.0
H897 H 0.45577 0.52792 0.88567 0.0
H898 H 0.45187 0.52457 0.94526 0.0
H899 H 0.43565 0.53688 0.91526 0.0
Eu900 Eu 0.15416 0.30776 0.32041 0.0
C901 C 0.22588 0.43084 0.36787 0.0
C902 C 0.28205 0.445 0.36643 0.0
C903 C 0.26767 0.48566 0.36954 0.0
C904 C 0.24905 0.42212 0.36615 0.0
C905 C 0.23489 0.46265 0.36999 0.0
C906 C 0.29122 0.47685 0.36773 0.0
C907 C 0.1786 0.44635 0.37429 0.0
N908 N 0.1945 0.40803 0.36837 0.0
C909 C 0.1709 0.41513 0.37218 0.0
C910 C 0.21071 0.47027 0.37297 0.0
Eu911 Eu 0.18303 0.3559 0.36364 0.0
N912 N 0.23934 0.39115 0.36503 0.0
C913 C 0.26143 0.38132 0.36557 0.0
C914 C 0.30483 0.43512 0.36586 0.0
C915 C 0.29444 0.40311 0.3657 0.0
H916 H 0.14603 0.39671 0.37307 0.0
H917 H 0.31185 0.39519 0.36562 0.0
H918 H 0.31645 0.49479 0.3678 0.0
H919 H 0.15977 0.45195 0.37689 0.0
H920 H 0.25382 0.35669 0.36537 0.0
H921 H 0.02426 0.26347 0.32049 0.0
H922 H 0.33041 0.45195 0.36598 0.0
H923 H 0.19331 0.27047 0.3074 0.0
H924 H 0.08176 0.30368 0.3204 0.0
H925 H 0.18172 0.21648 0.30123 0.0
H926 H 0.27508 0.51026 0.37097 0.0
H927 H 0.00798 0.20729 0.31882 0.0
H928 H 0.02426 0.16632 0.31491 0.0
H929 H 0.21663 0.49444 0.37465 0.0
H930 H 0.06715 0.1535 0.30948 0.0
N931 N 0.09822 0.27074 0.3194 0.0
C932 C 0.07514 0.27932 0.31965 0.0
C933 C 0.03334 0.22487 0.31883 0.0
C934 C 0.05707 0.21635 0.31727 0.0
C935 C 0.04243 0.25655 0.31971 0.0
C936 C 0.08973 0.24018 0.31747 0.0
H937 H 0.12589 0.17212 0.30394 0.0
N938 N 0.14467 0.25674 0.31385 0.0
C939 C 0.16239 0.22075 0.30507 0.0
C940 C 0.11375 0.23294 0.31454 0.0
C941 C 0.16886 0.25131 0.30857 0.0
C942 C 0.13086 0.19577 0.30667 0.0
C943 C 0.10597 0.20172 0.31118 0.0
O944 O 0.17979 0.31832 0.29374 0.0
O945 O 0.19389 0.34998 0.33422 0.0
O946 O 0.17583 0.38453 0.3414 0.0
O947 O 0.13817 0.34419 0.3226 0.0
O948 O 0.20738 0.3241 0.31777 0.0
O949 O 0.13517 0.31895 0.29558 0.0
O950 O 0.15882 0.35037 0.39044 0.0
O951 O 0.14336 0.31346 0.35003 0.0
O952 O 0.16242 0.27859 0.34179 0.0
O953 O 0.1972 0.31801 0.36235 0.0
O954 O 0.12985 0.33948 0.36643 0.0
O955 O 0.19971 0.34321 0.38882 0.0
C956 C 0.21792 0.34893 0.32789 0.0
C957 C 0.14902 0.30688 0.26619 0.0
C958 C 0.15307 0.31086 0.23206 0.0
C959 C 0.16075 0.32514 0.24984 0.0
C960 C 0.1332 0.27808 0.23102 0.0
C961 C 0.12924 0.27431 0.26473 0.0
C962 C 0.12137 0.26005 0.24722 0.0
C963 C 0.1534 0.37376 0.32827 0.0
C964 C 0.15833 0.32193 0.28466 0.0
C965 C 0.0736 0.17768 0.31183 0.0
C966 C 0.04919 0.18498 0.31492 0.0
C967 C 0.11934 0.31439 0.35654 0.0
C968 C 0.18978 0.3597 0.41785 0.0
C969 C 0.17995 0.34203 0.4345 0.0
C970 C 0.191 0.35674 0.452 0.0
C971 C 0.21174 0.38946 0.45244 0.0
C972 C 0.21054 0.39218 0.41872 0.0
C973 C 0.22137 0.40693 0.43595 0.0
C974 C 0.18319 0.28887 0.35587 0.0
C975 C 0.17829 0.34401 0.39969 0.0
H976 H 0.17629 0.3503 0.25098 0.0
H977 H 0.12645 0.26635 0.21763 0.0
H978 H 0.12 0.25993 0.27711 0.0
H979 H 0.10605 0.23488 0.24619 0.0
H980 H 0.16415 0.31686 0.43377 0.0
H981 H 0.22031 0.40168 0.46559 0.0
H982 H 0.21834 0.40609 0.40609 0.0
H983 H 0.23729 0.43206 0.43653 0.0
Eu984 Eu 0.69574 0.83975 0.32164 0.0
C985 C 0.56565 0.79086 0.36536 0.0
C986 C 0.55204 0.83147 0.36032 0.0
C987 C 0.50948 0.77765 0.36522 0.0
C988 C 0.57518 0.82181 0.3618 0.0
C989 C 0.53276 0.76858 0.36777 0.0
C990 C 0.51911 0.80906 0.36146 0.0
C991 C 0.54869 0.73121 0.37736 0.0
N992 N 0.58879 0.78307 0.36804 0.0
C993 C 0.58098 0.75422 0.37485 0.0
C994 C 0.52441 0.73824 0.37346 0.0
Eu995 Eu 0.64293 0.82254 0.36296 0.0
N996 N 0.6072 0.84284 0.36108 0.0
C997 C 0.61772 0.87424 0.36052 0.0
C998 C 0.56274 0.86346 0.35842 0.0
C999 C 0.59573 0.88498 0.35887 0.0
H1000 H 0.59972 0.74869 0.37779 0.0
H1001 H 0.60427 0.90984 0.35785 0.0
H1002 H 0.50097 0.81597 0.3601 0.0
H1003 H 0.54256 0.70809 0.38225 0.0
H1004 H 0.6431 0.8912 0.36073 0.0
H1005 H 0.73347 0.75172 0.32428 0.0
H1006 H 0.54576 0.87184 0.35716 0.0
H1007 H 0.7399 0.91625 0.31174 0.0
H1008 H 0.6948 0.77081 0.32244 0.0
H1009 H 0.79738 0.95709 0.30909 0.0
H1010 H 0.48405 0.76079 0.36676 0.0
H1011 H 0.79203 0.78948 0.32516 0.0
H1012 H 0.83702 0.84541 0.32365 0.0
H1013 H 0.49942 0.72044 0.37549 0.0
H1014 H 0.85445 0.9013 0.31954 0.0
N1015 N 0.73097 0.81903 0.32269 0.0
C1016 C 0.72025 0.7876 0.32271 0.0
C1017 C 0.77515 0.79803 0.32431 0.0
C1018 C 0.78602 0.83017 0.32324 0.0
C1019 C 0.74212 0.77665 0.32377 0.0
C1020 C 0.76303 0.84007 0.32228 0.0
H1021 H 0.83986 0.9431 0.31382 0.0
N1022 N 0.75003 0.87996 0.31837 0.0
C1023 C 0.79082 0.93315 0.31229 0.0
C1024 C 0.77287 0.87151 0.32012 0.0
C1025 C 0.75837 0.91002 0.31375 0.0
C1026 C 0.81473 0.92516 0.31502 0.0
C1027 C 0.8059 0.89394 0.31868 0.0
O1028 O 0.69317 0.85786 0.29432 0.0
O1029 O 0.65065 0.83637 0.33294 0.0
O1030 O 0.6147 0.78306 0.34259 0.0
O1031 O 0.65542 0.78844 0.32206 0.0
O1032 O 0.67918 0.87502 0.31653 0.0
O1033 O 0.68814 0.81168 0.29657 0.0
O1034 O 0.64761 0.80727 0.39082 0.0
O1035 O 0.68712 0.82481 0.35131 0.0
O1036 O 0.72436 0.87542 0.3438 0.0
O1037 O 0.68245 0.87418 0.36099 0.0
O1038 O 0.65974 0.78746 0.36866 0.0
O1039 O 0.65292 0.85322 0.38703 0.0
C1040 C 0.65228 0.86036 0.32549 0.0
C1041 C 0.70979 0.83993 0.26856 0.0
C1042 C 0.71332 0.84194 0.2346 0.0
C1043 C 0.69498 0.8348 0.25106 0.0
C1044 C 0.74683 0.85442 0.23593 0.0
C1045 C 0.74317 0.85208 0.26967 0.0
C1046 C 0.76159 0.85932 0.25339 0.0
C1047 C 0.62566 0.77281 0.32889 0.0
C1048 C 0.68998 0.83344 0.28537 0.0
C1049 C 0.82894 0.88437 0.32041 0.0
C1050 C 0.81901 0.85255 0.32272 0.0
C1051 C 0.68584 0.80111 0.35891 0.0
C1052 C 0.63176 0.82754 0.41571 0.0
C1053 C 0.64592 0.83098 0.43329 0.0
C1054 C 0.62773 0.82588 0.44966 0.0
C1055 C 0.59501 0.81718 0.44811 0.0
C1056 C 0.59918 0.81902 0.41441 0.0
C1057 C 0.5809 0.81381 0.43057 0.0
C1058 C 0.71325 0.88778 0.35605 0.0
C1059 C 0.65131 0.83248 0.39895 0.0
H1060 H 0.6692 0.82571 0.25028 0.0
H1061 H 0.76152 0.85992 0.22348 0.0
H1062 H 0.75497 0.8561 0.28304 0.0
H1063 H 0.78737 0.86876 0.25431 0.0
H1064 H 0.67127 0.83808 0.43416 0.0
H1065 H 0.58025 0.81274 0.46044 0.0
H1066 H 0.58792 0.81641 0.40098 0.0
H1067 H 0.55572 0.80711 0.42951 0.0
Eu1068 Eu 0.18569 0.82251 0.36207 0.0
C1069 C 0.11428 0.87801 0.31638 0.0
C1070 C 0.05767 0.83894 0.31839 0.0
C1071 C 0.0738 0.89403 0.31534 0.0
C1072 C 0.0904 0.84706 0.31828 0.0
C1073 C 0.10627 0.90182 0.3145 0.0
C1074 C 0.04954 0.86265 0.3173 0.0
C1075 C 0.16282 0.93886 0.30974 0.0
N1076 N 0.14535 0.88468 0.31552 0.0
C1077 C 0.16953 0.91441 0.3116 0.0
C1078 C 0.13108 0.93261 0.31141 0.0
Eu1079 Eu 0.15509 0.84244 0.3198 0.0
N1080 N 0.09909 0.82475 0.3192 0.0
C1081 C 0.07618 0.79371 0.31892 0.0
C1082 C 0.0341 0.8072 0.31916 0.0
C1083 C 0.04341 0.78448 0.31917 0.0
H1084 H 0.19413 0.91939 0.31042 0.0
H1085 H 0.02538 0.75985 0.31945 0.0
H1086 H 0.02455 0.85689 0.31754 0.0
H1087 H 0.18212 0.9625 0.30705 0.0
H1088 H 0.08298 0.77589 0.31906 0.0
H1089 H 0.31544 0.90493 0.3618 0.0
H1090 H 0.0087 0.79999 0.31936 0.0
H1091 H 0.14665 0.74579 0.37211 0.0
H1092 H 0.25786 0.88899 0.36231 0.0
H1093 H 0.1586 0.70272 0.37591 0.0
H1094 H 0.06716 0.91202 0.31409 0.0
H1095 H 0.33203 0.86472 0.36225 0.0
H1096 H 0.31611 0.80785 0.36458 0.0
H1097 H 0.12593 0.95157 0.30991 0.0
H1098 H 0.27347 0.75284 0.36851 0.0
N1099 N 0.24168 0.8401 0.36256 0.0
C1100 C 0.26462 0.87114 0.36259 0.0
C1101 C 0.30664 0.85756 0.36249 0.0
C1102 C 0.28304 0.82585 0.36353 0.0
C1103 C 0.29738 0.88031 0.36228 0.0
C1104 C 0.25033 0.81779 0.36369 0.0
H1105 H 0.21472 0.71347 0.373 0.0
N1106 N 0.19539 0.78031 0.36672 0.0
C1107 C 0.1779 0.72627 0.37301 0.0
C1108 C 0.22643 0.78691 0.36584 0.0
C1109 C 0.17123 0.75071 0.3709 0.0
C1110 C 0.20959 0.73242 0.37131 0.0
C1111 C 0.23441 0.76311 0.36795 0.0
O1112 O 0.16218 0.8064 0.38915 0.0
O1113 O 0.14535 0.82657 0.34939 0.0
O1114 O 0.16257 0.87767 0.34214 0.0
O1115 O 0.20139 0.87456 0.36017 0.0
O1116 O 0.13232 0.7879 0.36603 0.0
O1117 O 0.20563 0.85159 0.38697 0.0
O1118 O 0.1781 0.85935 0.29267 0.0
O1119 O 0.19537 0.83823 0.33243 0.0
O1120 O 0.1775 0.78664 0.33999 0.0
O1121 O 0.13936 0.79039 0.32158 0.0
O1122 O 0.20851 0.87697 0.31588 0.0
O1123 O 0.13572 0.81334 0.29489 0.0
C1124 C 0.12145 0.80262 0.35627 0.0
C1125 C 0.19493 0.82487 0.41588 0.0
C1126 C 0.19248 0.8231 0.44998 0.0
C1127 C 0.18308 0.82977 0.43273 0.0
C1128 C 0.21406 0.81151 0.45002 0.0
C1129 C 0.21643 0.81337 0.41623 0.0
C1130 C 0.22594 0.80676 0.43325 0.0
C1131 C 0.18564 0.88905 0.35486 0.0
C1132 C 0.18375 0.83096 0.39811 0.0
C1133 C 0.26686 0.77082 0.36708 0.0
C1134 C 0.29114 0.80214 0.36485 0.0
C1135 C 0.21933 0.86211 0.32555 0.0
C1136 C 0.14478 0.84023 0.26619 0.0
C1137 C 0.15605 0.83549 0.24908 0.0
C1138 C 0.14495 0.84099 0.23207 0.0
C1139 C 0.12252 0.85156 0.23254 0.0
C1140 C 0.12242 0.8507 0.26634 0.0
C1141 C 0.1114 0.85636 0.24956 0.0
C1142 C 0.15453 0.77548 0.32719 0.0
C1143 C 0.15694 0.83454 0.28371 0.0
H1144 H 0.16611 0.83827 0.43236 0.0
H1145 H 0.22212 0.80651 0.46302 0.0
H1146 H 0.22574 0.80943 0.40338 0.0
H1147 H 0.24259 0.79792 0.43346 0.0
H1148 H 0.1731 0.82707 0.24905 0.0
H1149 H 0.11379 0.85641 0.21975 0.0
H1150 H 0.11355 0.85452 0.27937 0.0
H1151 H 0.09421 0.86455 0.24975 0.0
Eu1152 Eu 0.82358 0.64197 0.6533 0.0
C1153 C 0.89576 0.76493 0.70099 0.0
C1154 C 0.95186 0.77875 0.69979 0.0
C1155 C 0.9378 0.81965 0.70285 0.0
C1156 C 0.91881 0.75602 0.69937 0.0
C1157 C 0.90495 0.79678 0.70315 0.0
C1158 C 0.96121 0.81065 0.70115 0.0
C1159 C 0.84868 0.78082 0.7071 0.0
N1160 N 0.86431 0.74226 0.70132 0.0
C1161 C 0.8408 0.74955 0.70497 0.0
C1162 C 0.88088 0.80459 0.70597 0.0
Eu1163 Eu 0.85258 0.69006 0.69657 0.0
N1164 N 0.90892 0.72502 0.69819 0.0
C1165 C 0.93085 0.715 0.69877 0.0
C1166 C 0.97449 0.76868 0.69928 0.0
C1167 C 0.96391 0.73663 0.69904 0.0
H1168 H 0.81586 0.73125 0.70571 0.0
H1169 H 0.98119 0.72856 0.699 0.0
H1170 H 0.98648 0.82847 0.70133 0.0
H1171 H 0.82993 0.78656 0.70957 0.0
H1172 H 0.92308 0.69033 0.69851 0.0
H1173 H 0.69427 0.60072 0.65256 0.0
H1174 H 1.0001 0.78539 0.69951 0.0
H1175 H 0.8612 0.60302 0.64084 0.0
H1176 H 0.7521 0.63986 0.65275 0.0
H1177 H 0.84828 0.54855 0.63485 0.0
H1178 H 0.94535 0.84427 0.70432 0.0
H1179 H 0.67657 0.54419 0.65105 0.0
H1180 H 0.69143 0.50217 0.64751 0.0
H1181 H 0.88694 0.8288 0.70767 0.0
H1182 H 0.73339 0.48793 0.64252 0.0
N1183 N 0.76736 0.606 0.65204 0.0
C1184 C 0.74488 0.61535 0.65206 0.0
C1185 C 0.70207 0.56131 0.65118 0.0
C1186 C 0.72522 0.55198 0.64987 0.0
C1187 C 0.71196 0.59319 0.65197 0.0
C1188 C 0.7581 0.57523 0.65022 0.0
H1189 H 0.7919 0.50513 0.63735 0.0
N1190 N 0.81276 0.59045 0.64697 0.0
C1191 C 0.82929 0.55344 0.63851 0.0
C1192 C 0.78159 0.56719 0.64754 0.0
C1193 C 0.83652 0.58426 0.64189 0.0
C1194 C 0.79746 0.52899 0.64 0.0
C1195 C 0.77305 0.53574 0.64428 0.0
O1196 O 0.84882 0.65103 0.62656 0.0
O1197 O 0.86358 0.68379 0.66721 0.0
O1198 O 0.84657 0.71922 0.67425 0.0
O1199 O 0.80869 0.67927 0.65531 0.0
O1200 O 0.87666 0.65762 0.65073 0.0
O1201 O 0.80581 0.65457 0.62849 0.0
O1202 O 0.82788 0.68418 0.72324 0.0
O1203 O 0.81278 0.64793 0.68282 0.0
O1204 O 0.83122 0.61257 0.67487 0.0
O1205 O 0.86635 0.65195 0.69533 0.0
O1206 O 0.79944 0.67413 0.69915 0.0
O1207 O 0.86905 0.67743 0.72187 0.0
C1208 C 0.88745 0.6824 0.66092 0.0
C1209 C 0.81791 0.64086 0.59913 0.0
C1210 C 0.82048 0.64444 0.56498 0.0
C1211 C 0.82926 0.65889 0.58268 0.0
C1212 C 0.79988 0.61175 0.56411 0.0
C1213 C 0.79737 0.60838 0.59785 0.0
C1214 C 0.7884 0.59396 0.58042 0.0
C1215 C 0.8244 0.70885 0.66097 0.0
C1216 C 0.82824 0.65604 0.61752 0.0
C1217 C 0.74043 0.51228 0.64479 0.0
C1218 C 0.71655 0.52039 0.64763 0.0
C1219 C 0.78883 0.64907 0.68922 0.0
C1220 C 0.8583 0.69339 0.75086 0.0
C1221 C 0.84815 0.67552 0.76743 0.0
C1222 C 0.85871 0.69004 0.78502 0.0
C1223 C 0.87928 0.72278 0.78563 0.0
C1224 C 0.87887 0.72589 0.7519 0.0
C1225 C 0.88921 0.74045 0.76922 0.0
C1226 C 0.85191 0.62272 0.68899 0.0
C1227 C 0.84731 0.67791 0.7326 0.0
H1228 H 0.84536 0.68399 0.58368 0.0
H1229 H 0.79229 0.59993 0.55078 0.0
H1230 H 0.78836 0.59418 0.61032 0.0
H1231 H 0.7725 0.56886 0.57953 0.0
H1232 H 0.8325 0.65034 0.76657 0.0
H1233 H 0.88747 0.73485 0.79885 0.0
H1234 H 0.8869 0.73996 0.73934 0.0
H1235 H 0.90498 0.76559 0.76993 0.0
Eu1236 Eu 0.36431 0.17326 0.65419 0.0
C1237 C 0.23398 0.12446 0.69652 0.0
C1238 C 0.22093 0.16587 0.69333 0.0
C1239 C 0.17794 0.11167 0.69597 0.0
C1240 C 0.24388 0.15592 0.69436 0.0
C1241 C 0.20092 0.10206 0.69782 0.0
C1242 C 0.18793 0.14352 0.6937 0.0
C1243 C 0.21586 0.06279 0.70435 0.0
N1244 N 0.25677 0.11598 0.69841 0.0
C1245 C 0.24834 0.0859 0.70304 0.0
C1246 C 0.19201 0.07081 0.70148 0.0
Eu1247 Eu 0.31113 0.15616 0.69535 0.0
N1248 N 0.27596 0.17694 0.69414 0.0
C1249 C 0.28671 0.20838 0.69425 0.0
C1250 C 0.23186 0.19803 0.69239 0.0
C1251 C 0.26488 0.21938 0.69313 0.0
H1252 H 0.26676 0.07964 0.70515 0.0
H1253 H 0.27357 0.24431 0.69273 0.0
H1254 H 0.16995 0.15069 0.69271 0.0
H1255 H 0.20923 0.03882 0.70755 0.0
H1256 H 0.31216 0.22514 0.69468 0.0
H1257 H 0.40232 0.08551 0.65978 0.0
H1258 H 0.21501 0.20662 0.69149 0.0
H1259 H 0.408 0.24706 0.63939 0.0
H1260 H 0.36373 0.10439 0.65665 0.0
H1261 H 0.4653 0.28752 0.6352 0.0
H1262 H 0.15241 0.09476 0.69673 0.0
H1263 H 0.46087 0.12331 0.66066 0.0
H1264 H 0.50588 0.1791 0.65783 0.0
H1265 H 0.16686 0.05289 0.70257 0.0
H1266 H 0.52315 0.23435 0.65116 0.0
N1267 N 0.3998 0.1527 0.65631 0.0
C1268 C 0.38913 0.12127 0.65693 0.0
C1269 C 0.444 0.1318 0.65927 0.0
C1270 C 0.45486 0.16382 0.65734 0.0
C1271 C 0.41099 0.11039 0.65873 0.0
C1272 C 0.43185 0.17362 0.65571 0.0
H1273 H 0.50816 0.27491 0.64227 0.0
N1274 N 0.41859 0.21257 0.64935 0.0
C1275 C 0.45899 0.26436 0.64013 0.0
C1276 C 0.44158 0.20463 0.65217 0.0
C1277 C 0.42662 0.24145 0.64249 0.0
C1278 C 0.48311 0.25719 0.6442 0.0
C1279 C 0.47454 0.2268 0.6499 0.0
O1280 O 0.35943 0.1885 0.62637 0.0
O1281 O 0.31996 0.17104 0.66565 0.0
O1282 O 0.28267 0.12056 0.67309 0.0
O1283 O 0.32467 0.12166 0.65608 0.0
O1284 O 0.34776 0.20849 0.64839 0.0
O1285 O 0.35526 0.143 0.62999 0.0
O1286 O 0.31255 0.13781 0.72283 0.0
O1287 O 0.35621 0.15943 0.68421 0.0
O1288 O 0.39235 0.21282 0.67452 0.0
O1289 O 0.35151 0.20746 0.69495 0.0
O1290 O 0.32778 0.12099 0.70073 0.0
O1291 O 0.31927 0.18461 0.72029 0.0
C1292 C 0.32153 0.19488 0.65804 0.0
C1293 C 0.37614 0.1692 0.60138 0.0
C1294 C 0.38021 0.17122 0.56745 0.0
C1295 C 0.36178 0.16505 0.58381 0.0
C1296 C 0.41337 0.18184 0.56895 0.0
C1297 C 0.40915 0.17944 0.60266 0.0
C1298 C 0.42767 0.1858 0.58648 0.0
C1299 C 0.29383 0.10816 0.6609 0.0
C1300 C 0.3564 0.16362 0.61814 0.0
C1301 C 0.49768 0.21758 0.65259 0.0
C1302 C 0.48784 0.18612 0.65635 0.0
C1303 C 0.35468 0.13557 0.69177 0.0
C1304 C 0.29604 0.15676 0.74818 0.0
C1305 C 0.30975 0.16037 0.76592 0.0
C1306 C 0.29089 0.15436 0.78211 0.0
C1307 C 0.25795 0.14463 0.78019 0.0
C1308 C 0.26324 0.14719 0.74653 0.0
C1309 C 0.24431 0.14113 0.7625 0.0
C1310 C 0.38128 0.22311 0.68813 0.0
C1311 C 0.31632 0.16258 0.73164 0.0
H1312 H 0.33629 0.15739 0.5829 0.0
H1313 H 0.4281 0.18654 0.55658 0.0
H1314 H 0.42058 0.18258 0.61609 0.0
H1315 H 0.45316 0.19375 0.58754 0.0
H1316 H 0.33526 0.16828 0.76706 0.0
H1317 H 0.24267 0.13945 0.79235 0.0
H1318 H 0.25229 0.14439 0.73299 0.0
H1319 H 0.21895 0.13362 0.76116 0.0
Eu1320 Eu 0.85375 0.15723 0.69625 0.0
C1321 C 0.78173 0.21189 0.65047 0.0
C1322 C 0.72523 0.17249 0.65251 0.0
C1323 C 0.7409 0.22747 0.64943 0.0
C1324 C 0.75803 0.18087 0.65239 0.0
C1325 C 0.77345 0.23551 0.64858 0.0
C1326 C 0.71683 0.19601 0.65141 0.0
C1327 C 0.8299 0.27288 0.64378 0.0
N1328 N 0.81288 0.21881 0.6496 0.0
C1329 C 0.83688 0.24861 0.64566 0.0
C1330 C 0.79808 0.26637 0.64546 0.0
Eu1331 Eu 0.82307 0.17686 0.65392 0.0
N1332 N 0.76699 0.15875 0.65333 0.0
C1333 C 0.74428 0.12765 0.65307 0.0
C1334 C 0.70186 0.14069 0.65331 0.0
C1335 C 0.71144 0.11816 0.65333 0.0
H1336 H 0.86154 0.25378 0.64448 0.0
H1337 H 0.69356 0.09348 0.65362 0.0
H1338 H 0.69178 0.19005 0.65166 0.0
H1339 H 0.84906 0.29658 0.64108 0.0
H1340 H 0.75128 0.10997 0.6532 0.0
H1341 H 0.98338 0.24012 0.69635 0.0
H1342 H 0.67642 0.13328 0.65351 0.0
H1343 H 0.81492 0.0804 0.70604 0.0
H1344 H 0.92574 0.22392 0.69668 0.0
H1345 H 0.82712 0.0375 0.70983 0.0
H1346 H 0.73406 0.24531 0.64817 0.0
H1347 H 1.00024 0.20012 0.6969 0.0
H1348 H 0.98459 0.14332 0.69918 0.0
H1349 H 0.79272 0.2852 0.64395 0.0
H1350 H 0.94211 0.0882 0.70293 0.0
N1351 N 0.90978 0.17508 0.69692 0.0
C1352 C 0.93262 0.20615 0.69699 0.0
C1353 C 0.97483 0.19284 0.69706 0.0
C1354 C 0.95134 0.16109 0.69803 0.0
C1355 C 0.96541 0.21548 0.69679 0.0
C1356 C 0.91858 0.15287 0.69809 0.0
H1357 H 0.88337 0.04857 0.70717 0.0
N1358 N 0.86366 0.11517 0.70091 0.0
C1359 C 0.84637 0.06112 0.70704 0.0
C1360 C 0.89477 0.12193 0.70015 0.0
C1361 C 0.83955 0.08547 0.70494 0.0
C1362 C 0.87814 0.06746 0.70549 0.0
C1363 C 0.90289 0.09823 0.70226 0.0
O1364 O 0.83011 0.14096 0.72328 0.0
O1365 O 0.81327 0.16101 0.68351 0.0
O1366 O 0.83038 0.21211 0.67621 0.0
O1367 O 0.86925 0.2092 0.69431 0.0
O1368 O 0.80041 0.12231 0.70007 0.0
O1369 O 0.87338 0.18631 0.72117 0.0
O1370 O 0.84588 0.19388 0.62675 0.0
O1371 O 0.86351 0.17307 0.66663 0.0
O1372 O 0.84632 0.12175 0.67409 0.0
O1373 O 0.80786 0.12492 0.65569 0.0
O1374 O 0.87645 0.21161 0.64996 0.0
O1375 O 0.80389 0.14761 0.62905 0.0
C1376 C 0.78943 0.13695 0.69034 0.0
C1377 C 0.86266 0.15959 0.75007 0.0
C1378 C 0.85998 0.15773 0.78416 0.0
C1379 C 0.85062 0.16435 0.76689 0.0
C1380 C 0.88171 0.14633 0.78427 0.0
C1381 C 0.88433 0.14828 0.75049 0.0
C1382 C 0.89379 0.14172 0.76754 0.0
C1383 C 0.8534 0.22356 0.68896 0.0
C1384 C 0.85151 0.16559 0.73227 0.0
C1385 C 0.93539 0.1061 0.70151 0.0
C1386 C 0.95958 0.13748 0.69937 0.0
C1387 C 0.8874 0.19697 0.65973 0.0
C1388 C 0.81253 0.17426 0.60029 0.0
C1389 C 0.82348 0.16906 0.5832 0.0
C1390 C 0.81216 0.17425 0.56617 0.0
C1391 C 0.78984 0.18494 0.56661 0.0
C1392 C 0.79026 0.18484 0.60041 0.0
C1393 C 0.77903 0.19018 0.58362 0.0
C1394 C 0.82347 0.1104 0.66124 0.0
C1395 C 0.82491 0.1689 0.61783 0.0
H1396 H 0.83353 0.17271 0.76647 0.0
H1397 H 0.88974 0.14138 0.7973 0.0
H1398 H 0.89379 0.14444 0.73767 0.0
H1399 H 0.91057 0.13303 0.7678 0.0
H1400 H 0.84044 0.16054 0.5832 0.0
H1401 H 0.78096 0.18957 0.5538 0.0
H1402 H 0.78163 0.18901 0.61343 0.0
H1403 H 0.76192 0.19846 0.58377 0.0
C1404 C 0.36822 0.93819 0.03928 0.0
C1405 C 0.36375 0.90799 0.04192 0.0
H1406 H 0.40034 0.98556 0.03083 0.0
C1407 C 0.38829 0.90198 0.03623 0.0
H1408 H 0.3496 0.94345 0.04325 0.0
C1409 C 0.41743 0.9262 0.02912 0.0
C1410 C 0.42223 0.95665 0.02722 0.0
H1411 H 0.38563 0.87898 0.03817 0.0
H1412 H 0.4366 0.92136 0.02588 0.0
C1413 C 0.39715 0.96224 0.03206 0.0
C1414 C 0.10497 0.48718 0.03955 0.0
C1415 C 0.0994 0.45742 0.04501 0.0
H1416 H 0.08429 0.51441 0.02958 0.0
C1417 C 0.06813 0.43154 0.04309 0.0
H1418 H 0.12868 0.50763 0.04104 0.0
C1419 C 0.04291 0.43538 0.03632 0.0
C1420 C 0.04829 0.46513 0.03118 0.0
H1421 H 0.06306 0.40827 0.04704 0.0
H1422 H 0.01899 0.41506 0.03532 0.0
C1423 C 0.07957 0.49106 0.03293 0.0
C1424 C 0.55436 0.62423 0.05605 0.0
C1425 C 0.54318 0.64371 0.0489 0.0
H1426 H 0.55617 0.58202 0.05303 0.0
C1427 C 0.52387 0.63404 0.03276 0.0
H1428 H 0.56852 0.63026 0.06871 0.0
C1429 C 0.51574 0.60562 0.02416 0.0
C1430 C 0.5276 0.58662 0.03105 0.0
H1431 H 0.51511 0.64845 0.0266 0.0
H1432 H 0.50017 0.59866 0.0121 0.0
C1433 C 0.54699 0.59626 0.04711 0.0
C1434 C 0.88246 0.36943 0.98076 0.0
C1435 C 0.89362 0.35279 0.97011 0.0
H1436 H 0.89466 0.41057 0.99667 0.0
C1437 C 0.92706 0.36553 0.96788 0.0
H1438 H 0.85688 0.36056 0.98252 0.0
C1439 C 0.9488 0.39425 0.97602 0.0
C1440 C 0.93763 0.41091 0.98662 0.0
H1441 H 0.93648 0.35314 0.95996 0.0
H1442 H 0.97437 0.40331 0.97402 0.0
C1443 C 0.90419 0.39817 0.98887 0.0
C1444 C 0.64038 0.56647 0.97663 0.0
C1445 C 0.6447 0.54044 0.97432 0.0
H1446 H 0.60869 0.58331 0.98478 0.0
C1447 C 0.61977 0.51077 0.98006 0.0
H1448 H 0.65921 0.58969 0.9726 0.0
C1449 C 0.59057 0.50709 0.98699 0.0
C1450 C 0.58607 0.53313 0.9887 0.0
H1451 H 0.62226 0.49022 0.97839 0.0
H1452 H 0.57119 0.48379 0.99037 0.0
C1453 C 0.6115 0.56284 0.9837 0.0
C1454 C 0.44837 0.07523 0.96448 0.0
C1455 C 0.46865 0.10774 0.96652 0.0
H1456 H 0.4391 0.02941 0.97168 0.0
C1457 C 0.49583 0.11878 0.97817 0.0
H1458 H 0.42689 0.06588 0.95593 0.0
C1459 C 0.50264 0.09777 0.98746 0.0
C1460 C 0.48248 0.06529 0.98522 0.0
H1461 H 0.51218 0.14367 0.97988 0.0
H1462 H 0.52399 0.10703 0.99612 0.0
C1463 C 0.45526 0.05428 0.97365 0.0
C1464 C 0.61898 0.09713 0.98097 0.0
C1465 C 0.64339 0.09084 0.97542 0.0
H1466 H 0.5706 0.07811 0.99113 0.0
C1467 C 0.63862 0.06054 0.97812 0.0
H1468 H 0.62188 0.12021 0.97898 0.0
C1469 C 0.60952 0.03666 0.98527 0.0
C1470 C 0.58456 0.04252 0.98996 0.0
H1471 H 0.65713 0.05508 0.97424 0.0
H1472 H 0.60609 0.01326 0.98654 0.0
C1473 C 0.58967 0.07308 0.98801 0.0
C1474 C 0.94066 0.56654 0.97505 0.0
C1475 C 0.90935 0.54084 0.9729 0.0
H1476 H 0.98966 0.58258 0.98294 0.0
C1477 C 0.90352 0.51089 0.97814 0.0
H1478 H 0.94594 0.58995 0.97129 0.0
C1479 C 0.92873 0.50668 0.98474 0.0
C1480 C 0.96007 0.53244 0.98667 0.0
H1481 H 0.87978 0.49056 0.97647 0.0
H1482 H 0.92383 0.48321 0.98792 0.0
C1483 C 0.96569 0.56237 0.98178 0.0
C1484 C 0.48508 0.36554 0.98262 0.0
C1485 C 0.46599 0.35617 0.96639 0.0
H1486 H 0.5085 0.40056 1.00353 0.0
C1487 C 0.45498 0.37582 0.95931 0.0
H1488 H 0.49368 0.35098 0.98875 0.0
C1489 C 0.46231 0.40366 0.96837 0.0
C1490 C 0.48148 0.41302 0.98454 0.0
H1491 H 0.44098 0.37001 0.94659 0.0
H1492 H 0.45326 0.41803 0.96249 0.0
C1493 C 0.49314 0.39384 0.99139 0.0
C1494 C 0.08095 0.63212 0.04929 0.0
C1495 C 0.11439 0.64489 0.04706 0.0
H1496 H 0.03367 0.59413 0.04333 0.0
C1497 C 0.12559 0.62815 0.03656 0.0
H1498 H 0.07148 0.64459 0.05709 0.0
C1499 C 0.1039 0.59924 0.02862 0.0
C1500 C 0.07046 0.58644 0.0309 0.0
H1501 H 0.15118 0.63706 0.03479 0.0
H1502 H 0.11345 0.58675 0.02093 0.0
C1503 C 0.05924 0.60322 0.04133 0.0
C1504 C 0.38926 0.48845 0.0358 0.0
C1505 C 0.36434 0.4587 0.04143 0.0
H1506 H 0.43786 0.51557 0.02556 0.0
C1507 C 0.36866 0.43271 0.03896 0.0
H1508 H 0.38676 0.50897 0.03761 0.0
C1509 C 0.39757 0.43643 0.03187 0.0
C1510 C 0.423 0.46622 0.027 0.0
H1511 H 0.34984 0.40943 0.0429 0.0
H1512 H 0.40041 0.416 0.03068 0.0
C1513 C 0.41848 0.49223 0.02885 0.0
C1514 C 0.55885 0.92441 0.05227 0.0
C1515 C 0.53904 0.89191 0.04992 0.0
H1516 H 0.56747 0.97015 0.04547 0.0
C1517 C 0.51195 0.88079 0.03819 0.0
H1518 H 0.58024 0.93383 0.06089 0.0
C1519 C 0.50481 0.90172 0.02909 0.0
C1520 C 0.52453 0.9342 0.03159 0.0
H1521 H 0.49594 0.85588 0.03624 0.0
H1522 H 0.48355 0.89239 0.02034 0.0
C1523 C 0.55163 0.94528 0.04327 0.0
C1524 C 0.05451 0.23244 0.37021 0.0
C1525 C 0.02977 0.23811 0.37599 0.0
H1526 H 0.10272 0.25235 0.3595 0.0
C1527 C 0.03362 0.26802 0.37317 0.0
H1528 H 0.05226 0.20964 0.37225 0.0
C1529 C 0.06219 0.2922 0.36573 0.0
C1530 C 0.08754 0.28704 0.36085 0.0
H1531 H 0.0148 0.27297 0.37719 0.0
H1532 H 0.06492 0.31533 0.36437 0.0
C1533 C 0.08332 0.25682 0.36284 0.0
C1534 C 0.73371 0.76362 0.37548 0.0
C1535 C 0.76497 0.7895 0.37744 0.0
H1536 H 0.68455 0.74717 0.3678 0.0
C1537 C 0.7705 0.8193 0.37209 0.0
H1538 H 0.72867 0.74033 0.37934 0.0
C1539 C 0.74507 0.82321 0.36558 0.0
C1540 C 0.71379 0.79729 0.36381 0.0
H1541 H 0.7942 0.83975 0.37362 0.0
H1542 H 0.74976 0.84659 0.36237 0.0
C1543 C 0.70847 0.7675 0.3688 0.0
C1544 C 0.18242 0.96105 0.36995 0.0
C1545 C 0.21034 0.97675 0.38095 0.0
H1546 H 0.15259 0.92096 0.35319 0.0
C1547 C 0.23035 0.96362 0.38298 0.0
H1548 H 0.16626 0.97032 0.36831 0.0
C1549 C 0.22243 0.93525 0.37441 0.0
C1550 C 0.19442 0.91946 0.36351 0.0
H1551 H 0.25233 0.9754 0.39109 0.0
H1552 H 0.23835 0.92577 0.37631 0.0
C1553 C 0.17455 0.93271 0.36131 0.0
C1554 C 0.55794 0.68926 0.32216 0.0
C1555 C 0.55879 0.68535 0.30276 0.0
H1556 H 0.57874 0.71959 0.34559 0.0
C1557 C 0.58236 0.71046 0.29216 0.0
H1558 H 0.54075 0.67029 0.33088 0.0
C1559 C 0.60441 0.73863 0.30074 0.0
C1560 C 0.60309 0.74256 0.32006 0.0
H1561 H 0.58353 0.70862 0.27716 0.0
H1562 H 0.62203 0.75762 0.29218 0.0
C1563 C 0.57974 0.71758 0.33066 0.0
C1564 C 0.3056 0.89894 0.30913 0.0
C1565 C 0.30991 0.8729 0.30684 0.0
H1566 H 0.27384 0.91576 0.31719 0.0
C1567 C 0.28494 0.84322 0.31252 0.0
H1568 H 0.32446 0.92216 0.30513 0.0
C1569 C 0.25572 0.83954 0.31938 0.0
C1570 C 0.25124 0.86559 0.3211 0.0
H1571 H 0.28741 0.82267 0.31085 0.0
H1572 H 0.23631 0.81624 0.3227 0.0
C1573 C 0.27667 0.89531 0.31613 0.0
C1574 C 0.10791 0.40364 0.29969 0.0
C1575 C 0.12667 0.4362 0.3022 0.0
H1576 H 0.10147 0.35851 0.30596 0.0
C1577 C 0.15414 0.44811 0.31368 0.0
H1578 H 0.08631 0.39365 0.29122 0.0
C1579 C 0.16273 0.42788 0.32233 0.0
C1580 C 0.14405 0.39534 0.31966 0.0
H1581 H 0.16936 0.47312 0.31571 0.0
H1582 H 0.18427 0.43781 0.33085 0.0
C1583 C 0.11653 0.38347 0.30827 0.0
C1584 C 0.28307 0.43076 0.31436 0.0
C1585 C 0.30788 0.42504 0.30883 0.0
H1586 H 0.23469 0.41095 0.32471 0.0
C1587 C 0.30401 0.39516 0.31188 0.0
H1588 H 0.28532 0.45352 0.31212 0.0
C1589 C 0.27532 0.37104 0.31926 0.0
C1590 C 0.24988 0.37624 0.32385 0.0
H1591 H 0.32288 0.39017 0.30805 0.0
H1592 H 0.27254 0.34791 0.32075 0.0
C1593 C 0.25415 0.40645 0.32165 0.0
C1594 C 0.56787 0.84179 0.31135 0.0
C1595 C 0.57352 0.8715 0.30569 0.0
H1596 H 0.58849 0.8147 0.32178 0.0
C1597 C 0.60476 0.8974 0.30765 0.0
H1598 H 0.54416 0.82135 0.30985 0.0
C1599 C 0.62989 0.89364 0.31461 0.0
C1600 C 0.62447 0.86395 0.31993 0.0
H1601 H 0.60988 0.92063 0.30357 0.0
H1602 H 0.65378 0.914 0.31566 0.0
C1603 C 0.59321 0.83799 0.31819 0.0
C1604 C 0.15496 0.70158 0.3132 0.0
C1605 C 0.12705 0.68634 0.30214 0.0
H1606 H 0.18571 0.74178 0.32966 0.0
C1607 C 0.10803 0.70044 0.29969 0.0
H1608 H 0.17037 0.69153 0.31516 0.0
C1609 C 0.1169 0.72929 0.30791 0.0
C1610 C 0.14489 0.74463 0.31886 0.0
H1611 H 0.08611 0.68907 0.29152 0.0
H1612 H 0.10169 0.73949 0.30567 0.0
C1613 C 0.16379 0.73042 0.32148 0.0
C1614 C 0.74697 0.96381 0.38318 0.0
C1615 C 0.78039 0.97633 0.38107 0.0
H1616 H 0.69962 0.92626 0.37693 0.0
C1617 C 0.79149 0.95959 0.37048 0.0
H1618 H 0.73758 0.9763 0.39103 0.0
C1619 C 0.7697 0.93092 0.36232 0.0
C1620 C 0.73628 0.91838 0.36448 0.0
H1621 H 0.81706 0.96831 0.3688 0.0
H1622 H 0.77914 0.9184 0.35456 0.0
C1623 C 0.72517 0.93516 0.37501 0.0
C1624 C 0.05515 0.82062 0.36901 0.0
C1625 C 0.03016 0.79072 0.37433 0.0
H1626 H 0.10402 0.84812 0.35932 0.0
C1627 C 0.0347 0.76486 0.37184 0.0
H1628 H 0.05249 0.84105 0.37086 0.0
C1629 C 0.0639 0.76887 0.36504 0.0
C1630 C 0.08933 0.7988 0.36045 0.0
H1631 H 0.01585 0.74148 0.37558 0.0
H1632 H 0.06692 0.74854 0.36385 0.0
C1633 C 0.08461 0.82467 0.36233 0.0
C1634 C 0.21826 0.25561 0.39031 0.0
C1635 C 0.20933 0.22617 0.38253 0.0
H1636 H 0.21752 0.2984 0.38798 0.0
C1637 C 0.19135 0.21743 0.36586 0.0
H1638 H 0.23132 0.26299 0.40336 0.0
C1639 C 0.18239 0.23747 0.35733 0.0
C1640 C 0.19199 0.26713 0.36492 0.0
H1641 H 0.18436 0.19521 0.35921 0.0
H1642 H 0.1681 0.2297 0.34476 0.0
C1643 C 0.21001 0.27591 0.38153 0.0
C1644 C 0.70269 0.60285 0.70518 0.0
C1645 C 0.69861 0.57281 0.7079 0.0
H1646 H 0.73443 0.65028 0.69675 0.0
C1647 C 0.72338 0.56709 0.7023 0.0
H1648 H 0.68386 0.60785 0.70908 0.0
C1649 C 0.75244 0.59151 0.69523 0.0
C1650 C 0.75688 0.62183 0.69334 0.0
H1651 H 0.72096 0.54421 0.7043 0.0
H1652 H 0.77183 0.58696 0.69203 0.0
C1653 C 0.73153 0.62708 0.69803 0.0
C1654 C 0.40257 0.09914 0.71004 0.0
C1655 C 0.43378 0.12513 0.71184 0.0
H1656 H 0.35347 0.08222 0.70204 0.0
C1657 C 0.43924 0.15472 0.70605 0.0
H1658 H 0.39759 0.076 0.71424 0.0
C1659 C 0.41378 0.1583 0.69917 0.0
C1660 C 0.38258 0.13221 0.6975 0.0
H1661 H 0.46292 0.17525 0.70743 0.0
H1662 H 0.41837 0.1815 0.69545 0.0
C1663 C 0.37732 0.10266 0.70302 0.0
C1664 C 0.84959 0.29514 0.70429 0.0
C1665 C 0.87744 0.31084 0.71535 0.0
H1666 H 0.82005 0.25519 0.68735 0.0
C1667 C 0.89762 0.2979 0.71731 0.0
H1668 H 0.83333 0.30429 0.7027 0.0
C1669 C 0.88992 0.26968 0.70861 0.0
C1670 C 0.86198 0.25388 0.69767 0.0
H1671 H 0.91955 0.30969 0.72546 0.0
H1672 H 0.90597 0.26033 0.71048 0.0
C1673 C 0.84196 0.26696 0.69552 0.0
C1674 C 0.2156 0.03648 0.64626 0.0
C1675 C 0.22671 0.01979 0.63563 0.0
H1676 H 0.22791 0.07758 0.66227 0.0
C1677 C 0.26014 0.03235 0.63351 0.0
H1678 H 0.19002 0.02773 0.64795 0.0
C1679 C 0.28192 0.06094 0.64175 0.0
C1680 C 0.27079 0.07764 0.65236 0.0
H1681 H 0.26953 0.0199 0.62561 0.0
H1682 H 0.30748 0.06985 0.63984 0.0
C1683 C 0.23737 0.0651 0.65448 0.0
C1684 C 0.95369 0.17881 0.64708 0.0
C1685 C 0.97858 0.20859 0.64148 0.0
H1686 H 0.90497 0.15148 0.65705 0.0
C1687 C 0.97396 0.23446 0.6437 0.0
H1688 H 0.95639 0.15837 0.64545 0.0
C1689 C 0.94483 0.23056 0.65056 0.0
C1690 C 0.9195 0.20074 0.65545 0.0
H1691 H 0.99272 0.25776 0.63976 0.0
H1692 H 0.94177 0.25089 0.65157 0.0
C1693 C 0.92428 0.17486 0.6538 0.0
C1694 C 0.78114 0.74048 0.63182 0.0
C1695 C 0.80052 0.77297 0.63441 0.0
H1696 H 0.77333 0.69487 0.63819 0.0
C1697 C 0.82767 0.78424 0.6461 0.0
H1698 H 0.75975 0.73098 0.62319 0.0
C1699 C 0.83533 0.76346 0.6549 0.0
C1700 C 0.81602 0.73099 0.65217 0.0
H1701 H 0.84335 0.80917 0.6482 0.0
H1702 H 0.85665 0.77291 0.6636 0.0
C1703 C 0.78884 0.71975 0.64055 0.0
C1704 C 0.95356 0.76393 0.64767 0.0
C1705 C 0.97813 0.75783 0.64219 0.0
H1706 H 0.90517 0.74466 0.65788 0.0
C1707 C 0.97377 0.72775 0.64517 0.0
H1708 H 0.95618 0.78686 0.64547 0.0
C1709 C 0.94484 0.70383 0.65246 0.0
C1710 C 0.91966 0.70944 0.65701 0.0
H1711 H 0.99243 0.72245 0.64137 0.0
H1712 H 0.94168 0.68055 0.6539 0.0
C1713 C 0.92442 0.73984 0.65486 0.0
C1714 C 0.23729 0.17792 0.6448 0.0
C1715 C 0.24319 0.20799 0.6398 0.0
H1716 H 0.2575 0.14995 0.65419 0.0
C1717 C 0.27456 0.23359 0.64199 0.0
H1718 H 0.2135 0.15767 0.64308 0.0
C1719 C 0.29956 0.2292 0.64853 0.0
C1720 C 0.29385 0.19916 0.6532 0.0
H1721 H 0.27991 0.25708 0.6384 0.0
H1722 H 0.32357 0.24933 0.64972 0.0
C1723 C 0.26246 0.1735 0.65122 0.0
C1724 C 0.8264 0.03802 0.64667 0.0
C1725 C 0.79881 0.02254 0.63538 0.0
H1726 H 0.85597 0.07799 0.66358 0.0
C1727 C 0.77911 0.03592 0.63299 0.0
H1728 H 0.84232 0.02854 0.64859 0.0
C1729 C 0.78701 0.06434 0.64149 0.0
C1730 C 0.8147 0.07992 0.65267 0.0
H1731 H 0.7574 0.02432 0.62464 0.0
H1732 H 0.77133 0.07402 0.6393 0.0
C1733 C 0.83425 0.06641 0.65523 0.0
C1734 C 0.42479 0.28593 0.72455 0.0
C1735 C 0.44779 0.31113 0.71376 0.0
H1736 H 0.38565 0.2385 0.72483 0.0
C1737 C 0.44818 0.30711 0.69434 0.0
H1738 H 0.424 0.28789 0.73956 0.0
C1739 C 0.42648 0.2786 0.68601 0.0
C1740 C 0.40371 0.25353 0.69681 0.0
H1741 H 0.46493 0.32614 0.68549 0.0
H1742 H 0.42706 0.27651 0.67106 0.0
C1743 C 0.40284 0.25755 0.71614 0.0
C1744 C 0.70279 0.09912 0.70622 0.0
C1745 C 0.69818 0.12495 0.70869 0.0
H1746 H 0.73502 0.08285 0.69815 0.0
C1747 C 0.72308 0.15484 0.70327 0.0
H1748 H 0.684 0.07575 0.71001 0.0
C1749 C 0.75252 0.15891 0.69651 0.0
C1750 C 0.7573 0.13307 0.69463 0.0
H1751 H 0.72039 0.17525 0.7051 0.0
H1752 H 0.77184 0.18236 0.69341 0.0
C1753 C 0.73195 0.10315 0.69933 0.0
C1754 C 0.88523 0.58905 0.72427 0.0
C1755 C 0.87656 0.55964 0.71655 0.0
H1756 H 0.88476 0.63189 0.72162 0.0
C1757 C 0.85921 0.55097 0.69965 0.0
H1758 H 0.89777 0.59635 0.73748 0.0
C1759 C 0.85069 0.57112 0.69081 0.0
C1760 C 0.86011 0.60077 0.69833 0.0
H1761 H 0.85243 0.52875 0.69307 0.0
H1762 H 0.83694 0.56346 0.67805 0.0
C1763 C 0.87743 0.60943 0.71519 0.0
C1764 C 0.52866 0.9943 0.1673 0.0
C1765 C 0.49634 0.97111 0.17034 0.0
H1766 H 0.56345 0.02828 0.14864 0.0
C1767 C 0.474 0.96463 0.15586 0.0
H1768 H 0.54653 0.00024 0.17815 0.0
C1769 C 0.48374 0.98099 0.13885 0.0
C1770 C 0.51602 0.00445 0.13596 0.0
H1771 H 0.44898 0.94675 0.1576 0.0
H1772 H 0.46584 0.9757 0.12811 0.0
C1773 C 0.53833 0.01068 0.1504 0.0
C1774 C 0.00908 0.4898 0.1557 0.0
C1775 C 1.00194 0.50502 0.16993 0.0
H1776 H 1.00038 0.47306 0.12756 0.0
C1777 C 0.97915 0.51448 0.16642 0.0
H1778 H 0.02668 0.48241 0.15789 0.0
C1779 C 0.96441 0.50951 0.14897 0.0
C1780 C 0.97205 0.49488 0.13461 0.0
H1781 H 0.97277 0.52588 0.17716 0.0
H1782 H 0.94758 0.51779 0.14661 0.0
C1783 C 0.9943 0.48479 0.13824 0.0
C1784 C 0.48914 0.47719 0.16651 0.0
C1785 C 0.48855 0.50515 0.16939 0.0
H1786 H 0.50006 0.44985 0.1478 0.0
C1787 C 0.4981 0.52698 0.15471 0.0
H1788 H 0.48217 0.45999 0.17757 0.0
C1789 C 0.50851 0.52125 0.13768 0.0
C1790 C 0.5098 0.49362 0.13495 0.0
H1791 H 0.49761 0.5486 0.15639 0.0
H1792 H 0.51629 0.53884 0.12681 0.0
C1793 C 0.49972 0.47154 0.14952 0.0
C1794 C 0.98902 0.46758 0.86233 0.0
C1795 C 1.00285 0.48995 0.84802 0.0
H1796 H 0.99276 0.45508 0.89043 0.0
C1797 C 0.03191 0.51783 0.85148 0.0
H1798 H 0.96648 0.446 0.86013 0.0
C1799 C 0.04698 0.52304 0.86888 0.0
C1800 C 0.03308 0.50063 0.88318 0.0
H1801 H 0.04321 0.53538 0.84066 0.0
H1802 H 0.06931 0.54476 0.87122 0.0
C1803 C 0.00392 0.47289 0.87973 0.0
C1804 C 0.51672 0.5207 0.84912 0.0
C1805 C 0.51716 0.49265 0.84629 0.0
H1806 H 0.50629 0.54836 0.86785 0.0
C1807 C 0.50772 0.47094 0.86103 0.0
H1808 H 0.52359 0.53779 0.83801 0.0
C1809 C 0.49765 0.47692 0.87809 0.0
C1810 C 0.49661 0.50468 0.8808 0.0
H1811 H 0.5081 0.44926 0.85937 0.0
H1812 H 0.49001 0.45945 0.88903 0.0
C1813 C 0.50647 0.52659 0.86615 0.0
C1814 C 0.51721 -0.00011 0.84917 0.0
C1815 C 0.51703 0.02814 0.84663 0.0
H1816 H 0.50742 0.96168 0.86745 0.0
C1817 C 0.50731 0.03992 0.86167 0.0
H1818 H 0.52428 0.98996 0.83789 0.0
C1819 C 0.4976 0.02365 0.87868 0.0
C1820 C 0.497 0.99499 0.88102 0.0
H1821 H 0.50716 0.06176 0.86028 0.0
H1822 H 0.48974 0.0331 0.88984 0.0
C1823 C 0.50723 0.98351 0.86609 0.0
C1824 C 0.19508 0.32967 0.50124 0.0
C1825 C 0.1631 0.3059 0.50452 0.0
H1826 H 0.22894 0.36377 0.48225 0.0
C1827 C 0.14039 0.29837 0.49011 0.0
H1828 H 0.21321 0.33642 0.51201 0.0
C1829 C 0.14944 0.31432 0.47295 0.0
C1830 C 0.18136 0.33841 0.46983 0.0
H1831 H 0.11562 0.28 0.49204 0.0
H1832 H 0.13126 0.30824 0.46228 0.0
C1833 C 0.20405 0.34565 0.48418 0.0
C1834 C 0.65197 0.85096 0.49984 0.0
C1835 C 0.67486 0.84152 0.50302 0.0
H1836 H 0.61943 0.85372 0.48053 0.0
C1837 C 0.68118 0.82576 0.48875 0.0
H1838 H 0.6462 0.86276 0.51064 0.0
C1839 C 0.66548 0.82018 0.47156 0.0
C1840 C 0.64313 0.83027 0.46825 0.0
H1841 H 0.69882 0.81836 0.4907 0.0
H1842 H 0.67095 0.80806 0.46084 0.0
C1843 C 0.63632 0.84543 0.48266 0.0
C1844 C 0.1676 0.86122 0.48766 0.0
C1845 C 0.15881 0.83963 0.50244 0.0
H1846 H 0.18517 0.87304 0.45964 0.0
C1847 C 0.16024 0.81209 0.49961 0.0
H1848 H 0.16646 0.88251 0.4893 0.0
C1849 C 0.17084 0.80659 0.48257 0.0
C1850 C 0.18009 0.82841 0.46789 0.0
H1851 H 0.15389 0.79508 0.51072 0.0
H1852 H 0.17177 0.7852 0.48088 0.0
C1853 C 0.17803 0.85564 0.47059 0.0
C1854 C 0.65341 0.80208 0.19547 0.0
C1855 C 0.66635 0.8246 0.18118 0.0
H1856 H 0.65821 0.78987 0.22347 0.0
C1857 C 0.69486 0.85303 0.18458 0.0
H1858 H 0.6313 0.78007 0.19331 0.0
C1859 C 0.71031 0.85865 0.20188 0.0
C1860 C 0.69731 0.83608 0.21615 0.0
H1861 H 0.70548 0.87071 0.17377 0.0
H1862 H 0.73223 0.88077 0.20416 0.0
C1863 C 0.66866 0.80779 0.21278 0.0
C1864 C 0.1448 0.81533 0.18207 0.0
C1865 C 0.17734 0.82426 0.17922 0.0
H1866 H 0.1091 0.81325 0.20089 0.0
C1867 C 0.19932 0.83905 0.19388 0.0
H1868 H 0.12728 0.80422 0.17102 0.0
C1869 C 0.18888 0.84443 0.21104 0.0
C1870 C 0.15628 0.83536 0.21388 0.0
H1871 H 0.2245 0.84602 0.1922 0.0
H1872 H 0.20641 0.85596 0.22204 0.0
C1873 C 0.13442 0.82081 0.19915 0.0
C1874 C 0.17417 0.37392 0.19501 0.0
C1875 C 0.18507 0.36287 0.18015 0.0
H1876 H 0.15581 0.36644 0.22302 0.0
C1877 C 0.18672 0.33542 0.18291 0.0
H1878 H 0.17288 0.39515 0.19346 0.0
C1879 C 0.17697 0.31902 0.19982 0.0
C1880 C 0.16548 0.32969 0.21455 0.0
H1881 H 0.19473 0.32605 0.17178 0.0
H1882 H 0.17827 0.29779 0.20134 0.0
C1883 C 0.16467 0.35763 0.21203 0.0
C1884 C 0.80751 0.63114 0.82277 0.0
C1885 C 0.82996 0.63859 0.83733 0.0
H1886 H 0.79886 0.64124 0.79489 0.0
C1887 C 0.86196 0.6625 0.83426 0.0
H1888 H 0.78274 0.61268 0.82454 0.0
C1889 C 0.8712 0.67868 0.81727 0.0
C1890 C 0.84878 0.6715 0.80277 0.0
H1891 H 0.87989 0.6692 0.84515 0.0
H1892 H 0.89609 0.69689 0.81551 0.0
C1893 C 0.81684 0.64728 0.80568 0.0
C1894 C 0.34412 0.15547 0.82174 0.0
C1895 C 0.33632 0.17002 0.83607 0.0
H1896 H 0.33562 0.13868 0.79362 0.0
C1897 C 0.31251 0.17821 0.83273 0.0
H1898 H 0.36253 0.14908 0.82377 0.0
C1899 C 0.29744 0.17269 0.81535 0.0
C1900 C 0.30575 0.15877 0.80089 0.0
H1901 H 0.3056 0.18906 0.84355 0.0
H1902 H 0.27984 0.18005 0.81313 0.0
C1903 C 0.32899 0.14988 0.80436 0.0
C1904 C 0.83451 0.19545 0.82179 0.0
C1905 C 0.82568 0.17379 0.83653 0.0
H1906 H 0.8523 0.20746 0.79381 0.0
C1907 C 0.82726 0.14633 0.83369 0.0
H1908 H 0.83327 0.21669 0.82344 0.0
C1909 C 0.83805 0.14099 0.81667 0.0
C1910 C 0.84736 0.16288 0.80203 0.0
H1911 H 0.82088 0.12928 0.84478 0.0
H1912 H 0.83911 0.11966 0.81498 0.0
C1913 C 0.84513 0.19002 0.80474 0.0
C1914 C 0.36419 0.18337 0.51713 0.0
C1915 C 0.33484 0.15583 0.51365 0.0
H1916 H 0.40168 0.20981 0.53692 0.0
C1917 C 0.32044 0.13363 0.52801 0.0
H1918 H 0.3759 0.20078 0.50628 0.0
C1919 C 0.33514 0.13875 0.54545 0.0
C1920 C 0.36466 0.16611 0.54891 0.0
H1921 H 0.29767 0.11232 0.52578 0.0
H1922 H 0.3236 0.12105 0.55618 0.0
C1923 C 0.37906 0.18839 0.53458 0.0
C1924 C 0.86596 0.17127 0.52798 0.0
C1925 C 0.84384 0.1564 0.51339 0.0
H1926 H 0.8734 0.18863 0.55604 0.0
C1927 C 0.81138 0.14772 0.51629 0.0
H1928 H 0.89108 0.17805 0.52627 0.0
C1929 C 0.80122 0.15355 0.53335 0.0
C1930 C 0.82323 0.16821 0.548 0.0
H1931 H 0.79375 0.13656 0.5053 0.0
H1932 H 0.77596 0.14618 0.53513 0.0
C1933 C 0.85575 0.17701 0.54511 0.0
C1934 C 0.84138 0.70728 0.52781 0.0
C1935 C 0.85143 0.69573 0.51281 0.0
H1936 H 0.82406 0.70043 0.55605 0.0
C1937 C 0.85252 0.66796 0.51547 0.0
H1938 H 0.84053 0.72875 0.52632 0.0
C1939 C 0.84309 0.65179 0.53246 0.0
C1940 C 0.83251 0.663 0.54736 0.0
H1941 H 0.85987 0.65821 0.50422 0.0
H1942 H 0.84393 0.6303 0.53391 0.0
C1943 C 0.83222 0.69122 0.54491 0.0
loop_
_geom_bond_atom_site_label_1
_geom_bond_atom_site_label_2
_geom_bond_distance
_geom_bond_site_symmetry_2
_ccdc_geom_bond_type
C0 C1 1.384 . S
C0 H13 0.947 . S
C0 C35 1.382 . S
C1 C0 1.384 . S
C1 C2 1.378 . S
C2 C1 1.378 . S
C2 C3 1.378 . S
C2 H14 0.952 . S
C3 C2 1.378 . S
C3 H15 0.950 . S
C3 C34 1.383 . S
H4 C23 0.947 . S
H5 C24 0.946 . S
H6 C26 0.953 . S
H7 C27 0.945 . S
H8 C29 0.952 . S
H9 C30 0.949 . S
H10 C32 0.950 . S
H11 C33 0.948 . S
H12 C35 0.951 . S
H13 C0 0.947 . S
H14 C2 0.952 . S
H15 C3 0.950 . S
N16 C19 1.382 . S
N16 C21 1.363 . S
N17 C19 1.371 . S
N17 C20 1.372 . S
N18 C20 1.361 . S
N18 C21 1.377 . S
C19 N16 1.382 . S
C19 N17 1.371 . S
C19 C22 1.480 . S
C20 N17 1.372 . S
C20 N18 1.361 . S
C20 C28 1.457 . S
C21 N16 1.363 . S
C21 N18 1.377 . S
C21 C34 1.479 . S
C22 C19 1.480 . S
C22 C23 1.383 . S
C22 C27 1.385 . S
C23 H4 0.947 . S
C23 C22 1.383 . S
C23 C24 1.388 . S
C24 H5 0.946 . S
C24 C23 1.388 . S
C24 C25 1.384 . S
C25 C24 1.384 . S
C25 C26 1.377 . S
C26 H6 0.953 . S
C26 C25 1.377 . S
C26 C27 1.369 . S
C27 H7 0.945 . S
C27 C22 1.385 . S
C27 C26 1.369 . S
C28 C20 1.457 . S
C28 C29 1.372 . S
C28 C33 1.364 . S
C29 H8 0.952 . S
C29 C28 1.372 . S
C29 C30 1.389 . S
C30 H9 0.949 . S
C30 C29 1.389 . S
C30 C31 1.387 . S
C31 C30 1.387 . S
C31 C32 1.372 . S
C32 H10 0.950 . S
C32 C31 1.372 . S
C32 C33 1.379 . S
C33 H11 0.948 . S
C33 C28 1.364 . S
C33 C32 1.379 . S
C34 C3 1.383 . S
C34 C21 1.479 . S
C34 C35 1.398 . S
C35 C0 1.382 . S
C35 H12 0.951 . S
C35 C34 1.398 . S
C36 C37 1.384 . S
C36 H49 0.947 1_655 S
C36 C71 1.382 . S
C37 C36 1.384 . S
C37 C38 1.378 . S
C38 C37 1.378 . S
C38 C39 1.378 . S
C38 H50 0.952 . S
C39 C38 1.378 . S
C39 H51 0.950 . S
C39 C70 1.383 . S
H40 C59 0.947 . S
H41 C60 0.946 . S
H42 C62 0.953 . S
H43 C63 0.945 . S
H44 C65 0.952 . S
H45 C66 0.949 . S
H46 C68 0.950 . S
H47 C69 0.948 . S
H48 C71 0.951 . S
H49 C36 0.947 1_455 S
H50 C38 0.952 . S
H51 C39 0.950 . S
N52 C55 1.382 . S
N52 C57 1.363 . S
N53 C55 1.371 . S
N53 C56 1.372 . S
N54 C56 1.361 . S
N54 C57 1.377 . S
C55 N52 1.382 . S
C55 N53 1.371 . S
C55 C58 1.480 . S
C56 N53 1.372 . S
C56 N54 1.361 . S
C56 C64 1.457 . S
C57 N52 1.363 . S
C57 N54 1.377 . S
C57 C70 1.479 . S
C58 C55 1.480 . S
C58 C59 1.383 . S
C58 C63 1.385 . S
C59 H40 0.947 . S
C59 C58 1.383 . S
C59 C60 1.388 . S
C60 H41 0.946 . S
C60 C59 1.388 . S
C60 C61 1.384 . S
C61 C60 1.384 . S
C61 C62 1.377 . S
C62 H42 0.953 . S
C62 C61 1.377 . S
C62 C63 1.369 . S
C63 H43 0.945 . S
C63 C58 1.385 . S
C63 C62 1.369 . S
C64 C56 1.457 . S
C64 C65 1.372 . S
C64 C69 1.364 . S
C65 H44 0.952 . S
C65 C64 1.372 . S
C65 C66 1.389 . S
C66 H45 0.949 . S
C66 C65 1.389 . S
C66 C67 1.387 . S
C67 C66 1.387 . S
C67 C68 1.372 . S
C68 H46 0.950 . S
C68 C67 1.372 . S
C68 C69 1.379 . S
C69 H47 0.948 . S
C69 C64 1.364 . S
C69 C68 1.379 . S
C70 C39 1.383 . S
C70 C57 1.479 . S
C70 C71 1.398 . S
C71 C36 1.382 . S
C71 H48 0.951 . S
C71 C70 1.398 . S
C72 C73 1.384 . S
C72 H85 0.947 . S
C72 C107 1.382 . S
C73 C72 1.384 . S
C73 C74 1.378 . S
C74 C73 1.378 . S
C74 C75 1.378 . S
C74 H86 0.952 . S
C75 C74 1.378 . S
C75 H87 0.950 . S
C75 C106 1.383 . S
H76 C95 0.947 . S
H77 C96 0.946 . S
H78 C98 0.953 1_455 S
H79 C99 0.945 . S
H80 C101 0.952 . S
H81 C102 0.949 . S
H82 C104 0.950 . S
H83 C105 0.948 . S
H84 C107 0.951 . S
H85 C72 0.947 . S
H86 C74 0.952 . S
H87 C75 0.950 . S
N88 C91 1.382 . S
N88 C93 1.363 . S
N89 C91 1.371 . S
N89 C92 1.372 . S
N90 C92 1.361 . S
N90 C93 1.377 . S
C91 N88 1.382 . S
C91 N89 1.371 . S
C91 C94 1.480 . S
C92 N89 1.372 . S
C92 N90 1.361 . S
C92 C100 1.457 . S
C93 N88 1.363 . S
C93 N90 1.377 . S
C93 C106 1.479 . S
C94 C91 1.480 . S
C94 C95 1.383 . S
C94 C99 1.385 . S
C95 H76 0.947 . S
C95 C94 1.383 . S
C95 C96 1.388 . S
C96 H77 0.946 . S
C96 C95 1.388 . S
C96 C97 1.384 . S
C97 C96 1.384 . S
C97 C98 1.377 . S
C98 H78 0.953 1_655 S
C98 C97 1.377 . S
C98 C99 1.369 . S
C99 H79 0.945 . S
C99 C94 1.385 . S
C99 C98 1.369 . S
C100 C92 1.457 . S
C100 C101 1.372 . S
C100 C105 1.364 . S
C101 H80 0.952 . S
C101 C100 1.372 . S
C101 C102 1.389 . S
C102 H81 0.949 . S
C102 C101 1.389 . S
C102 C103 1.387 . S
C103 C102 1.387 . S
C103 C104 1.372 . S
C104 H82 0.950 . S
C104 C103 1.372 . S
C104 C105 1.379 . S
C105 H83 0.948 . S
C105 C100 1.364 . S
C105 C104 1.379 . S
C106 C75 1.383 . S
C106 C93 1.479 . S
C106 C107 1.398 . S
C107 C72 1.382 . S
C107 H84 0.951 . S
C107 C106 1.398 . S
C108 C109 1.384 . S
C108 H121 0.947 1_455 S
C108 C143 1.382 . S
C109 C108 1.384 . S
C109 C110 1.378 . S
C110 C109 1.378 . S
C110 C111 1.378 . S
C110 H122 0.952 . S
C111 C110 1.378 . S
C111 H123 0.950 . S
C111 C142 1.383 . S
H112 C131 0.947 . S
H113 C132 0.946 . S
H114 C134 0.953 . S
H115 C135 0.945 . S
H116 C137 0.952 . S
H117 C138 0.949 . S
H118 C140 0.950 . S
H119 C141 0.948 . S
H120 C143 0.951 . S
H121 C108 0.947 1_655 S
H122 C110 0.952 . S
H123 C111 0.950 . S
N124 C127 1.382 . S
N124 C129 1.363 . S
N125 C127 1.371 . S
N125 C128 1.372 . S
N126 C128 1.361 . S
N126 C129 1.377 . S
C127 N124 1.382 . S
C127 N125 1.371 . S
C127 C130 1.480 . S
C128 N125 1.372 . S
C128 N126 1.361 . S
C128 C136 1.457 . S
C129 N124 1.363 . S
C129 N126 1.377 . S
C129 C142 1.479 . S
C130 C127 1.480 . S
C130 C131 1.383 . S
C130 C135 1.385 . S
C131 H112 0.947 . S
C131 C130 1.383 . S
C131 C132 1.388 . S
C132 H113 0.946 . S
C132 C131 1.388 . S
C132 C133 1.384 . S
C133 C132 1.384 . S
C133 C134 1.377 . S
C134 H114 0.953 . S
C134 C133 1.377 . S
C134 C135 1.369 . S
C135 H115 0.945 . S
C135 C130 1.385 . S
C135 C134 1.369 . S
C136 C128 1.457 . S
C136 C137 1.372 . S
C136 C141 1.364 . S
C137 H116 0.952 . S
C137 C136 1.372 . S
C137 C138 1.389 . S
C138 H117 0.949 . S
C138 C137 1.389 . S
C138 C139 1.387 . S
C139 C138 1.387 . S
C139 C140 1.372 . S
C140 H118 0.950 . S
C140 C139 1.372 . S
C140 C141 1.379 . S
C141 H119 0.948 . S
C141 C136 1.364 . S
C141 C140 1.379 . S
C142 C111 1.383 . S
C142 C129 1.479 . S
C142 C143 1.398 . S
C143 C108 1.382 . S
C143 H120 0.951 . S
C143 C142 1.398 . S
C144 C145 1.384 . S
C144 H157 0.947 . S
C144 C179 1.382 . S
C145 C144 1.384 . S
C145 C146 1.378 . S
C146 C145 1.378 . S
C146 C147 1.378 . S
C146 H158 0.952 . S
C147 C146 1.378 . S
C147 H159 0.950 . S
C147 C178 1.383 . S
H148 C167 0.947 . S
H149 C168 0.946 . S
H150 C170 0.953 . S
H151 C171 0.945 . S
H152 C173 0.952 . S
H153 C174 0.949 . S
H154 C176 0.950 . S
H155 C177 0.948 . S
H156 C179 0.951 . S
H157 C144 0.947 . S
H158 C146 0.952 . S
H159 C147 0.950 . S
N160 C163 1.382 . S
N160 C165 1.363 . S
N161 C163 1.371 . S
N161 C164 1.372 . S
N162 C164 1.361 . S
N162 C165 1.377 . S
C163 N160 1.382 . S
C163 N161 1.371 . S
C163 C166 1.480 . S
C164 N161 1.372 . S
C164 N162 1.361 . S
C164 C172 1.457 . S
C165 N160 1.363 . S
C165 N162 1.377 . S
C165 C178 1.479 . S
C166 C163 1.480 . S
C166 C167 1.383 . S
C166 C171 1.385 . S
C167 H148 0.947 . S
C167 C166 1.383 . S
C167 C168 1.388 . S
C168 H149 0.946 . S
C168 C167 1.388 . S
C168 C169 1.384 . S
C169 C168 1.384 . S
C169 C170 1.377 . S
C170 H150 0.953 . S
C170 C169 1.377 . S
C170 C171 1.369 . S
C171 H151 0.945 . S
C171 C166 1.385 . S
C171 C170 1.369 . S
C172 C164 1.457 . S
C172 C173 1.372 . S
C172 C177 1.364 . S
C173 H152 0.952 . S
C173 C172 1.372 . S
C173 C174 1.389 . S
C174 H153 0.949 . S
C174 C173 1.389 . S
C174 C175 1.387 . S
C175 C174 1.387 . S
C175 C176 1.372 . S
C176 H154 0.950 . S
C176 C175 1.372 . S
C176 C177 1.379 . S
C177 H155 0.948 . S
C177 C172 1.364 . S
C177 C176 1.379 . S
C178 C147 1.383 . S
C178 C165 1.479 . S
C178 C179 1.398 . S
C179 C144 1.382 . S
C179 H156 0.951 . S
C179 C178 1.398 . S
C180 C181 1.384 . S
C180 H193 0.947 . S
C180 C215 1.382 . S
C181 C180 1.384 . S
C181 C182 1.378 . S
C182 C181 1.378 . S
C182 C183 1.378 . S
C182 H194 0.952 . S
C183 C182 1.378 . S
C183 H195 0.950 . S
C183 C214 1.383 . S
H184 C203 0.947 . S
H185 C204 0.946 . S
H186 C206 0.953 . S
H187 C207 0.945 . S
H188 C209 0.952 . S
H189 C210 0.949 . S
H190 C212 0.950 . S
H191 C213 0.948 . S
H192 C215 0.951 . S
H193 C180 0.947 . S
H194 C182 0.952 . S
H195 C183 0.950 . S
N196 C199 1.382 . S
N196 C201 1.363 . S
N197 C199 1.371 . S
N197 C200 1.372 . S
N198 C200 1.361 . S
N198 C201 1.377 . S
C199 N196 1.382 . S
C199 N197 1.371 . S
C199 C202 1.480 . S
C200 N197 1.372 . S
C200 N198 1.361 . S
C200 C208 1.457 . S
C201 N196 1.363 . S
C201 N198 1.377 . S
C201 C214 1.479 . S
C202 C199 1.480 . S
C202 C203 1.383 . S
C202 C207 1.385 . S
C203 H184 0.947 . S
C203 C202 1.383 . S
C203 C204 1.388 . S
C204 H185 0.946 . S
C204 C203 1.388 . S
C204 C205 1.384 . S
C205 C204 1.384 . S
C205 C206 1.377 . S
C206 H186 0.953 . S
C206 C205 1.377 . S
C206 C207 1.369 . S
C207 H187 0.945 . S
C207 C202 1.385 . S
C207 C206 1.369 . S
C208 C200 1.457 . S
C208 C209 1.372 . S
C208 C213 1.364 . S
C209 H188 0.952 . S
C209 C208 1.372 . S
C209 C210 1.389 . S
C210 H189 0.949 . S
C210 C209 1.389 . S
C210 C211 1.387 . S
C211 C210 1.387 . S
C211 C212 1.372 . S
C212 H190 0.950 . S
C212 C211 1.372 . S
C212 C213 1.379 . S
C213 H191 0.948 . S
C213 C208 1.364 . S
C213 C212 1.379 . S
C214 C183 1.383 . S
C214 C201 1.479 . S
C214 C215 1.398 . S
C215 C180 1.382 . S
C215 H192 0.951 . S
C215 C214 1.398 . S
C216 C217 1.384 . S
C216 H229 0.947 . S
C216 C251 1.382 . S
C217 C216 1.384 . S
C217 C218 1.378 . S
C218 C217 1.378 . S
C218 C219 1.378 . S
C218 H230 0.952 . S
C219 C218 1.378 . S
C219 H231 0.950 . S
C219 C250 1.383 . S
H220 C239 0.947 . S
H221 C240 0.946 . S
H222 C242 0.953 . S
H223 C243 0.945 . S
H224 C245 0.952 . S
H225 C246 0.949 . S
H226 C248 0.950 . S
H227 C249 0.948 . S
H228 C251 0.951 . S
H229 C216 0.947 . S
H230 C218 0.952 . S
H231 C219 0.950 . S
N232 C235 1.382 . S
N232 C237 1.363 . S
N233 C235 1.371 . S
N233 C236 1.372 . S
N234 C236 1.361 . S
N234 C237 1.377 . S
C235 N232 1.382 . S
C235 N233 1.371 . S
C235 C238 1.480 . S
C236 N233 1.372 . S
C236 N234 1.361 . S
C236 C244 1.457 . S
C237 N232 1.363 . S
C237 N234 1.377 . S
C237 C250 1.479 . S
C238 C235 1.480 . S
C238 C239 1.383 . S
C238 C243 1.385 . S
C239 H220 0.947 . S
C239 C238 1.383 . S
C239 C240 1.388 . S
C240 H221 0.946 . S
C240 C239 1.388 . S
C240 C241 1.384 . S
C241 C240 1.384 . S
C241 C242 1.377 . S
C242 H222 0.953 . S
C242 C241 1.377 . S
C242 C243 1.369 . S
C243 H223 0.945 . S
C243 C238 1.385 . S
C243 C242 1.369 . S
C244 C236 1.457 . S
C244 C245 1.372 . S
C244 C249 1.364 . S
C245 H224 0.952 . S
C245 C244 1.372 . S
C245 C246 1.389 . S
C246 H225 0.949 . S
C246 C245 1.389 . S
C246 C247 1.387 . S
C247 C246 1.387 . S
C247 C248 1.372 . S
C248 H226 0.950 . S
C248 C247 1.372 . S
C248 C249 1.379 . S
C249 H227 0.948 . S
C249 C244 1.364 . S
C249 C248 1.379 . S
C250 C219 1.383 . S
C250 C237 1.479 . S
C250 C251 1.398 . S
C251 C216 1.382 . S
C251 H228 0.951 . S
C251 C250 1.398 . S
C252 C253 1.384 . S
C252 H265 0.947 . S
C252 C287 1.382 . S
C253 C252 1.384 . S
C253 C254 1.378 . S
C254 C253 1.378 . S
C254 C255 1.378 . S
C254 H266 0.952 . S
C255 C254 1.378 . S
C255 H267 0.950 . S
C255 C286 1.383 . S
H256 C275 0.947 . S
H257 C276 0.946 . S
H258 C278 0.953 . S
H259 C279 0.945 . S
H260 C281 0.952 . S
H261 C282 0.949 . S
H262 C284 0.950 . S
H263 C285 0.948 . S
H264 C287 0.951 . S
H265 C252 0.947 . S
H266 C254 0.952 . S
H267 C255 0.950 . S
N268 C271 1.382 . S
N268 C273 1.363 . S
N269 C271 1.371 . S
N269 C272 1.372 . S
N270 C272 1.361 . S
N270 C273 1.377 . S
C271 N268 1.382 . S
C271 N269 1.371 . S
C271 C274 1.480 . S
C272 N269 1.372 . S
C272 N270 1.361 . S
C272 C280 1.457 . S
C273 N268 1.363 . S
C273 N270 1.377 . S
C273 C286 1.479 . S
C274 C271 1.480 . S
C274 C275 1.383 . S
C274 C279 1.385 . S
C275 H256 0.947 . S
C275 C274 1.383 . S
C275 C276 1.388 . S
C276 H257 0.946 . S
C276 C275 1.388 . S
C276 C277 1.384 . S
C277 C276 1.384 . S
C277 C278 1.377 . S
C278 H258 0.953 . S
C278 C277 1.377 . S
C278 C279 1.369 . S
C279 H259 0.945 . S
C279 C274 1.385 . S
C279 C278 1.369 . S
C280 C272 1.457 . S
C280 C281 1.372 . S
C280 C285 1.364 . S
C281 H260 0.952 . S
C281 C280 1.372 . S
C281 C282 1.389 . S
C282 H261 0.949 . S
C282 C281 1.389 . S
C282 C283 1.387 . S
C283 C282 1.387 . S
C283 C284 1.372 . S
C284 H262 0.950 . S
C284 C283 1.372 . S
C284 C285 1.379 . S
C285 H263 0.948 . S
C285 C280 1.364 . S
C285 C284 1.379 . S
C286 C255 1.383 . S
C286 C273 1.479 . S
C286 C287 1.398 . S
C287 C252 1.382 . S
C287 H264 0.951 . S
C287 C286 1.398 . S
C288 C289 1.384 . S
C288 H301 0.947 . S
C288 C323 1.382 . S
C289 C288 1.384 . S
C289 C290 1.378 . S
C290 C289 1.378 . S
C290 C291 1.378 . S
C290 H302 0.952 . S
C291 C290 1.378 . S
C291 H303 0.950 . S
C291 C322 1.383 . S
H292 C311 0.947 . S
H293 C312 0.946 . S
H294 C314 0.953 . S
H295 C315 0.945 . S
H296 C317 0.952 . S
H297 C318 0.949 . S
H298 C320 0.950 . S
H299 C321 0.948 . S
H300 C323 0.951 . S
H301 C288 0.947 . S
H302 C290 0.952 . S
H303 C291 0.950 . S
N304 C307 1.382 . S
N304 C309 1.363 . S
N305 C307 1.371 . S
N305 C308 1.372 . S
N306 C308 1.361 . S
N306 C309 1.377 . S
C307 N304 1.382 . S
C307 N305 1.371 . S
C307 C310 1.480 . S
C308 N305 1.372 . S
C308 N306 1.361 . S
C308 C316 1.457 . S
C309 N304 1.363 . S
C309 N306 1.377 . S
C309 C322 1.479 . S
C310 C307 1.480 . S
C310 C311 1.383 . S
C310 C315 1.385 . S
C311 H292 0.947 . S
C311 C310 1.383 . S
C311 C312 1.388 . S
C312 H293 0.946 . S
C312 C311 1.388 . S
C312 C313 1.384 . S
C313 C312 1.384 . S
C313 C314 1.377 . S
C314 H294 0.953 . S
C314 C313 1.377 . S
C314 C315 1.369 . S
C315 H295 0.945 . S
C315 C310 1.385 . S
C315 C314 1.369 . S
C316 C308 1.457 . S
C316 C317 1.372 . S
C316 C321 1.364 . S
C317 H296 0.952 . S
C317 C316 1.372 . S
C317 C318 1.389 . S
C318 H297 0.949 . S
C318 C317 1.389 . S
C318 C319 1.387 . S
C319 C318 1.387 . S
C319 C320 1.372 . S
C320 H298 0.950 . S
C320 C319 1.372 . S
C320 C321 1.379 . S
C321 H299 0.948 . S
C321 C316 1.364 . S
C321 C320 1.379 . S
C322 C291 1.383 . S
C322 C309 1.479 . S
C322 C323 1.398 . S
C323 C288 1.382 . S
C323 H300 0.951 . S
C323 C322 1.398 . S
C324 C325 1.384 . S
C324 H337 0.947 . S
C324 C359 1.382 . S
C325 C324 1.384 . S
C325 C326 1.378 . S
C326 C325 1.378 . S
C326 C327 1.378 . S
C326 H338 0.952 . S
C327 C326 1.378 . S
C327 H339 0.950 . S
C327 C358 1.383 . S
H328 C347 0.947 . S
H329 C348 0.946 . S
H330 C350 0.953 . S
H331 C351 0.945 . S
H332 C353 0.952 . S
H333 C354 0.949 . S
H334 C356 0.950 . S
H335 C357 0.948 . S
H336 C359 0.951 . S
H337 C324 0.947 . S
H338 C326 0.952 . S
H339 C327 0.950 . S
N340 C343 1.382 . S
N340 C345 1.363 . S
N341 C343 1.371 . S
N341 C344 1.372 . S
N342 C344 1.361 . S
N342 C345 1.377 . S
C343 N340 1.382 . S
C343 N341 1.371 . S
C343 C346 1.480 . S
C344 N341 1.372 . S
C344 N342 1.361 . S
C344 C352 1.457 . S
C345 N340 1.363 . S
C345 N342 1.377 . S
C345 C358 1.479 . S
C346 C343 1.480 . S
C346 C347 1.383 . S
C346 C351 1.385 . S
C347 H328 0.947 . S
C347 C346 1.383 . S
C347 C348 1.388 . S
C348 H329 0.946 . S
C348 C347 1.388 . S
C348 C349 1.384 . S
C349 C348 1.384 . S
C349 C350 1.377 . S
C350 H330 0.953 . S
C350 C349 1.377 . S
C350 C351 1.369 . S
C351 H331 0.945 . S
C351 C346 1.385 . S
C351 C350 1.369 . S
C352 C344 1.457 . S
C352 C353 1.372 . S
C352 C357 1.364 . S
C353 H332 0.952 . S
C353 C352 1.372 . S
C353 C354 1.389 . S
C354 H333 0.949 . S
C354 C353 1.389 . S
C354 C355 1.387 . S
C355 C354 1.387 . S
C355 C356 1.372 . S
C356 H334 0.950 . S
C356 C355 1.372 . S
C356 C357 1.379 . S
C357 H335 0.948 . S
C357 C352 1.364 . S
C357 C356 1.379 . S
C358 C327 1.383 . S
C358 C345 1.479 . S
C358 C359 1.398 . S
C359 C324 1.382 . S
C359 H336 0.951 . S
C359 C358 1.398 . S
C360 C361 1.384 . S
C360 H373 0.947 . S
C360 C395 1.382 . S
C361 C360 1.384 . S
C361 C362 1.378 . S
C362 C361 1.378 . S
C362 C363 1.378 . S
C362 H374 0.952 . S
C363 C362 1.378 . S
C363 H375 0.950 . S
C363 C394 1.383 . S
H364 C383 0.947 . S
H365 C384 0.946 . S
H366 C386 0.953 . S
H367 C387 0.945 . S
H368 C389 0.952 . S
H369 C390 0.949 . S
H370 C392 0.950 . S
H371 C393 0.948 . S
H372 C395 0.951 . S
H373 C360 0.947 . S
H374 C362 0.952 . S
H375 C363 0.950 . S
N376 C379 1.382 . S
N376 C381 1.363 . S
N377 C379 1.371 . S
N377 C380 1.372 . S
N378 C380 1.361 . S
N378 C381 1.377 . S
C379 N376 1.382 . S
C379 N377 1.371 . S
C379 C382 1.480 . S
C380 N377 1.372 . S
C380 N378 1.361 . S
C380 C388 1.457 . S
C381 N376 1.363 . S
C381 N378 1.377 . S
C381 C394 1.479 . S
C382 C379 1.480 . S
C382 C383 1.383 . S
C382 C387 1.385 . S
C383 H364 0.947 . S
C383 C382 1.383 . S
C383 C384 1.388 . S
C384 H365 0.946 . S
C384 C383 1.388 . S
C384 C385 1.384 . S
C385 C384 1.384 . S
C385 C386 1.377 . S
C386 H366 0.953 . S
C386 C385 1.377 . S
C386 C387 1.369 . S
C387 H367 0.945 . S
C387 C382 1.385 . S
C387 C386 1.369 . S
C388 C380 1.457 . S
C388 C389 1.372 . S
C388 C393 1.364 . S
C389 H368 0.952 . S
C389 C388 1.372 . S
C389 C390 1.389 . S
C390 H369 0.949 . S
C390 C389 1.389 . S
C390 C391 1.387 . S
C391 C390 1.387 . S
C391 C392 1.372 . S
C392 H370 0.950 . S
C392 C391 1.372 . S
C392 C393 1.379 . S
C393 H371 0.948 . S
C393 C388 1.364 . S
C393 C392 1.379 . S
C394 C363 1.383 . S
C394 C381 1.479 . S
C394 C395 1.398 . S
C395 C360 1.382 . S
C395 H372 0.951 . S
C395 C394 1.398 . S
C396 C397 1.384 . S
C396 H409 0.947 . S
C396 C431 1.382 . S
C397 C396 1.384 . S
C397 C398 1.378 . S
C398 C397 1.378 . S
C398 C399 1.378 . S
C398 H410 0.952 . S
C399 C398 1.378 . S
C399 H411 0.950 . S
C399 C430 1.383 . S
H400 C419 0.947 . S
H401 C420 0.946 . S
H402 C422 0.953 . S
H403 C423 0.945 . S
H404 C425 0.952 . S
H405 C426 0.949 . S
H406 C428 0.950 . S
H407 C429 0.948 . S
H408 C431 0.951 . S
H409 C396 0.947 . S
H410 C398 0.952 . S
H411 C399 0.950 . S
N412 C415 1.382 . S
N412 C417 1.363 . S
N413 C415 1.371 . S
N413 C416 1.372 . S
N414 C416 1.361 . S
N414 C417 1.377 . S
C415 N412 1.382 . S
C415 N413 1.371 . S
C415 C418 1.480 . S
C416 N413 1.372 . S
C416 N414 1.361 . S
C416 C424 1.457 . S
C417 N412 1.363 . S
C417 N414 1.377 . S
C417 C430 1.479 . S
C418 C415 1.480 . S
C418 C419 1.383 . S
C418 C423 1.385 . S
C419 H400 0.947 . S
C419 C418 1.383 . S
C419 C420 1.388 . S
C420 H401 0.946 . S
C420 C419 1.388 . S
C420 C421 1.384 . S
C421 C420 1.384 . S
C421 C422 1.377 . S
C422 H402 0.953 . S
C422 C421 1.377 . S
C422 C423 1.369 . S
C423 H403 0.945 . S
C423 C418 1.385 . S
C423 C422 1.369 . S
C424 C416 1.457 . S
C424 C425 1.372 . S
C424 C429 1.364 . S
C425 H404 0.952 . S
C425 C424 1.372 . S
C425 C426 1.389 . S
C426 H405 0.949 . S
C426 C425 1.389 . S
C426 C427 1.387 . S
C427 C426 1.387 . S
C427 C428 1.372 . S
C428 H406 0.950 . S
C428 C427 1.372 . S
C428 C429 1.379 . S
C429 H407 0.948 . S
C429 C424 1.364 . S
C429 C428 1.379 . S
C430 C399 1.383 . S
C430 C417 1.479 . S
C430 C431 1.398 . S
C431 C396 1.382 . S
C431 H408 0.951 . S
C431 C430 1.398 . S
C432 C433 1.384 . S
C432 H445 0.947 . S
C432 C467 1.382 . S
C433 C432 1.384 . S
C433 C434 1.378 . S
C434 C433 1.378 . S
C434 C435 1.378 . S
C434 H446 0.952 . S
C435 C434 1.378 . S
C435 H447 0.950 . S
C435 C466 1.383 . S
H436 C455 0.947 . S
H437 C456 0.946 . S
H438 C458 0.953 . S
H439 C459 0.945 . S
H440 C461 0.952 . S
H441 C462 0.949 . S
H442 C464 0.950 . S
H443 C465 0.948 . S
H444 C467 0.951 . S
H445 C432 0.947 . S
H446 C434 0.952 . S
H447 C435 0.950 . S
N448 C451 1.382 . S
N448 C453 1.363 . S
N449 C451 1.371 . S
N449 C452 1.372 . S
N450 C452 1.361 . S
N450 C453 1.377 . S
C451 N448 1.382 . S
C451 N449 1.371 . S
C451 C454 1.480 . S
C452 N449 1.372 . S
C452 N450 1.361 . S
C452 C460 1.457 . S
C453 N448 1.363 . S
C453 N450 1.377 . S
C453 C466 1.479 . S
C454 C451 1.480 . S
C454 C455 1.383 . S
C454 C459 1.385 . S
C455 H436 0.947 . S
C455 C454 1.383 . S
C455 C456 1.388 . S
C456 H437 0.946 . S
C456 C455 1.388 . S
C456 C457 1.384 . S
C457 C456 1.384 . S
C457 C458 1.377 . S
C458 H438 0.953 . S
C458 C457 1.377 . S
C458 C459 1.369 . S
C459 H439 0.945 . S
C459 C454 1.385 . S
C459 C458 1.369 . S
C460 C452 1.457 . S
C460 C461 1.372 . S
C460 C465 1.364 . S
C461 H440 0.952 . S
C461 C460 1.372 . S
C461 C462 1.389 . S
C462 H441 0.949 . S
C462 C461 1.389 . S
C462 C463 1.387 . S
C463 C462 1.387 . S
C463 C464 1.372 . S
C464 H442 0.950 . S
C464 C463 1.372 . S
C464 C465 1.379 . S
C465 H443 0.948 . S
C465 C460 1.364 . S
C465 C464 1.379 . S
C466 C435 1.383 . S
C466 C453 1.479 . S
C466 C467 1.398 . S
C467 C432 1.382 . S
C467 H444 0.951 . S
C467 C466 1.398 . S
C468 C469 1.384 . S
C468 H481 0.947 . S
C468 C503 1.382 . S
C469 C468 1.384 . S
C469 C470 1.378 . S
C470 C469 1.378 . S
C470 C471 1.378 . S
C470 H482 0.952 . S
C471 C470 1.378 . S
C471 H483 0.950 . S
C471 C502 1.383 . S
H472 C491 0.947 . S
H473 C492 0.946 . S
H474 C494 0.953 . S
H475 C495 0.945 . S
H476 C497 0.952 . S
H477 C498 0.949 . S
H478 C500 0.950 . S
H479 C501 0.948 . S
H480 C503 0.951 . S
H481 C468 0.947 . S
H482 C470 0.952 . S
H483 C471 0.950 . S
N484 C487 1.382 . S
N484 C489 1.363 . S
N485 C487 1.371 . S
N485 C488 1.372 . S
N486 C488 1.361 . S
N486 C489 1.377 . S
C487 N484 1.382 . S
C487 N485 1.371 . S
C487 C490 1.480 . S
C488 N485 1.372 . S
C488 N486 1.361 . S
C488 C496 1.457 . S
C489 N484 1.363 . S
C489 N486 1.377 . S
C489 C502 1.479 . S
C490 C487 1.480 . S
C490 C491 1.383 . S
C490 C495 1.385 . S
C491 H472 0.947 . S
C491 C490 1.383 . S
C491 C492 1.388 . S
C492 H473 0.946 . S
C492 C491 1.388 . S
C492 C493 1.384 . S
C493 C492 1.384 . S
C493 C494 1.377 . S
C494 H474 0.953 . S
C494 C493 1.377 . S
C494 C495 1.369 . S
C495 H475 0.945 . S
C495 C490 1.385 . S
C495 C494 1.369 . S
C496 C488 1.457 . S
C496 C497 1.372 . S
C496 C501 1.364 . S
C497 H476 0.952 . S
C497 C496 1.372 . S
C497 C498 1.389 . S
C498 H477 0.949 . S
C498 C497 1.389 . S
C498 C499 1.387 . S
C499 C498 1.387 . S
C499 C500 1.372 . S
C500 H478 0.950 . S
C500 C499 1.372 . S
C500 C501 1.379 . S
C501 H479 0.948 . S
C501 C496 1.364 . S
C501 C500 1.379 . S
C502 C471 1.383 . S
C502 C489 1.479 . S
C502 C503 1.398 . S
C503 C468 1.382 . S
C503 H480 0.951 . S
C503 C502 1.398 . S
C504 C505 1.384 . S
C504 H517 0.947 . S
C504 C539 1.382 . S
C505 C504 1.384 . S
C505 C506 1.378 . S
C506 C505 1.378 . S
C506 C507 1.378 . S
C506 H518 0.952 . S
C507 C506 1.378 . S
C507 H519 0.950 . S
C507 C538 1.383 . S
H508 C527 0.947 . S
H509 C528 0.946 . S
H510 C530 0.953 . S
H511 C531 0.945 . S
H512 C533 0.952 . S
H513 C534 0.949 . S
H514 C536 0.950 . S
H515 C537 0.948 . S
H516 C539 0.951 . S
H517 C504 0.947 . S
H518 C506 0.952 . S
H519 C507 0.950 . S
N520 C523 1.382 . S
N520 C525 1.363 . S
N521 C523 1.371 . S
N521 C524 1.372 . S
N522 C524 1.361 . S
N522 C525 1.377 . S
C523 N520 1.382 . S
C523 N521 1.371 . S
C523 C526 1.480 . S
C524 N521 1.372 . S
C524 N522 1.361 . S
C524 C532 1.457 . S
C525 N520 1.363 . S
C525 N522 1.377 . S
C525 C538 1.479 . S
C526 C523 1.480 . S
C526 C527 1.383 . S
C526 C531 1.385 . S
C527 H508 0.947 . S
C527 C526 1.383 . S
C527 C528 1.388 . S
C528 H509 0.946 . S
C528 C527 1.388 . S
C528 C529 1.384 . S
C529 C528 1.384 . S
C529 C530 1.377 . S
C530 H510 0.953 . S
C530 C529 1.377 . S
C530 C531 1.369 . S
C531 H511 0.945 . S
C531 C526 1.385 . S
C531 C530 1.369 . S
C532 C524 1.457 . S
C532 C533 1.372 . S
C532 C537 1.364 . S
C533 H512 0.952 . S
C533 C532 1.372 . S
C533 C534 1.389 . S
C534 H513 0.949 . S
C534 C533 1.389 . S
C534 C535 1.387 . S
C535 C534 1.387 . S
C535 C536 1.372 . S
C536 H514 0.950 . S
C536 C535 1.372 . S
C536 C537 1.379 . S
C537 H515 0.948 . S
C537 C532 1.364 . S
C537 C536 1.379 . S
C538 C507 1.383 . S
C538 C525 1.479 . S
C538 C539 1.398 . S
C539 C504 1.382 . S
C539 H516 0.951 . S
C539 C538 1.398 . S
C540 C541 1.384 . S
C540 H553 0.947 . S
C540 C575 1.382 . S
C541 C540 1.384 . S
C541 C542 1.378 . S
C542 C541 1.378 . S
C542 C543 1.378 . S
C542 H554 0.952 . S
C543 C542 1.378 . S
C543 H555 0.950 . S
C543 C574 1.383 . S
H544 C563 0.947 . S
H545 C564 0.946 . S
H546 C566 0.953 . S
H547 C567 0.945 . S
H548 C569 0.952 . S
H549 C570 0.949 . S
H550 C572 0.950 . S
H551 C573 0.948 . S
H552 C575 0.951 . S
H553 C540 0.947 . S
H554 C542 0.952 . S
H555 C543 0.950 . S
N556 C559 1.382 . S
N556 C561 1.363 . S
N557 C559 1.371 . S
N557 C560 1.372 . S
N558 C560 1.361 . S
N558 C561 1.377 . S
C559 N556 1.382 . S
C559 N557 1.371 . S
C559 C562 1.480 . S
C560 N557 1.372 . S
C560 N558 1.361 . S
C560 C568 1.457 . S
C561 N556 1.363 . S
C561 N558 1.377 . S
C561 C574 1.479 . S
C562 C559 1.480 . S
C562 C563 1.383 . S
C562 C567 1.385 . S
C563 H544 0.947 . S
C563 C562 1.383 . S
C563 C564 1.388 . S
C564 H545 0.946 . S
C564 C563 1.388 . S
C564 C565 1.384 . S
C565 C564 1.384 . S
C565 C566 1.377 . S
C566 H546 0.953 . S
C566 C565 1.377 . S
C566 C567 1.369 . S
C567 H547 0.945 . S
C567 C562 1.385 . S
C567 C566 1.369 . S
C568 C560 1.457 . S
C568 C569 1.372 . S
C568 C573 1.364 . S
C569 H548 0.952 . S
C569 C568 1.372 . S
C569 C570 1.389 . S
C570 H549 0.949 . S
C570 C569 1.389 . S
C570 C571 1.387 . S
C571 C570 1.387 . S
C571 C572 1.372 . S
C572 H550 0.950 . S
C572 C571 1.372 . S
C572 C573 1.379 . S
C573 H551 0.948 . S
C573 C568 1.364 . S
C573 C572 1.379 . S
C574 C543 1.383 . S
C574 C561 1.479 . S
C574 C575 1.398 . S
C575 C540 1.382 . S
C575 H552 0.951 . S
C575 C574 1.398 . S
C576 C577 1.384 . S
C576 H589 0.947 . S
C576 C611 1.382 . S
C577 C576 1.384 . S
C577 C578 1.378 . S
C578 C577 1.378 . S
C578 C579 1.378 . S
C578 H590 0.952 . S
C579 C578 1.378 . S
C579 H591 0.950 . S
C579 C610 1.383 . S
H580 C599 0.947 . S
H581 C600 0.946 . S
H582 C602 0.953 . S
H583 C603 0.945 . S
H584 C605 0.952 . S
H585 C606 0.949 . S
H586 C608 0.950 . S
H587 C609 0.948 . S
H588 C611 0.951 . S
H589 C576 0.947 . S
H590 C578 0.952 . S
H591 C579 0.950 . S
N592 C595 1.382 . S
N592 C597 1.363 . S
N593 C595 1.371 . S
N593 C596 1.372 . S
N594 C596 1.361 . S
N594 C597 1.377 . S
C595 N592 1.382 . S
C595 N593 1.371 . S
C595 C598 1.480 . S
C596 N593 1.372 . S
C596 N594 1.361 . S
C596 C604 1.457 . S
C597 N592 1.363 . S
C597 N594 1.377 . S
C597 C610 1.479 . S
C598 C595 1.480 . S
C598 C599 1.383 . S
C598 C603 1.385 . S
C599 H580 0.947 . S
C599 C598 1.383 . S
C599 C600 1.388 . S
C600 H581 0.946 . S
C600 C599 1.388 . S
C600 C601 1.384 . S
C601 C600 1.384 . S
C601 C602 1.377 . S
C602 H582 0.953 . S
C602 C601 1.377 . S
C602 C603 1.369 . S
C603 H583 0.945 . S
C603 C598 1.385 . S
C603 C602 1.369 . S
C604 C596 1.457 . S
C604 C605 1.372 . S
C604 C609 1.364 . S
C605 H584 0.952 . S
C605 C604 1.372 . S
C605 C606 1.389 . S
C606 H585 0.949 . S
C606 C605 1.389 . S
C606 C607 1.387 . S
C607 C606 1.387 . S
C607 C608 1.372 . S
C608 H586 0.950 . S
C608 C607 1.372 . S
C608 C609 1.379 . S
C609 H587 0.948 . S
C609 C604 1.364 . S
C609 C608 1.379 . S
C610 C579 1.383 . S
C610 C597 1.479 . S
C610 C611 1.398 . S
C611 C576 1.382 . S
C611 H588 0.951 . S
C611 C610 1.398 . S
C612 C613 1.384 . S
C612 H625 0.947 . S
C612 C647 1.382 . S
C613 C612 1.384 . S
C613 C614 1.378 . S
C614 C613 1.378 . S
C614 C615 1.378 . S
C614 H626 0.952 . S
C615 C614 1.378 . S
C615 H627 0.950 . S
C615 C646 1.383 . S
H616 C635 0.947 . S
H617 C636 0.946 . S
H618 C638 0.953 . S
H619 C639 0.945 . S
H620 C641 0.952 . S
H621 C642 0.949 . S
H622 C644 0.950 . S
H623 C645 0.948 . S
H624 C647 0.951 . S
H625 C612 0.947 . S
H626 C614 0.952 . S
H627 C615 0.950 . S
N628 C631 1.382 . S
N628 C633 1.363 . S
N629 C631 1.371 . S
N629 C632 1.372 . S
N630 C632 1.361 . S
N630 C633 1.377 . S
C631 N628 1.382 . S
C631 N629 1.371 . S
C631 C634 1.480 . S
C632 N629 1.372 . S
C632 N630 1.361 . S
C632 C640 1.457 . S
C633 N628 1.363 . S
C633 N630 1.377 . S
C633 C646 1.479 . S
C634 C631 1.480 . S
C634 C635 1.383 . S
C634 C639 1.385 . S
C635 H616 0.947 . S
C635 C634 1.383 . S
C635 C636 1.388 . S
C636 H617 0.946 . S
C636 C635 1.388 . S
C636 C637 1.384 . S
C637 C636 1.384 . S
C637 C638 1.377 . S
C638 H618 0.953 . S
C638 C637 1.377 . S
C638 C639 1.369 . S
C639 H619 0.945 . S
C639 C634 1.385 . S
C639 C638 1.369 . S
C640 C632 1.457 . S
C640 C641 1.372 . S
C640 C645 1.364 . S
C641 H620 0.952 . S
C641 C640 1.372 . S
C641 C642 1.389 . S
C642 H621 0.949 . S
C642 C641 1.389 . S
C642 C643 1.387 . S
C643 C642 1.387 . S
C643 C644 1.372 . S
C644 H622 0.950 . S
C644 C643 1.372 . S
C644 C645 1.379 . S
C645 H623 0.948 . S
C645 C640 1.364 . S
C645 C644 1.379 . S
C646 C615 1.383 . S
C646 C633 1.479 . S
C646 C647 1.398 . S
C647 C612 1.382 . S
C647 H624 0.951 . S
C647 C646 1.398 . S
Eu648 N679 2.657 . S
Eu648 N686 2.609 . S
Eu648 O692 2.558 . S
Eu648 O693 2.612 1_565 S
Eu648 O695 2.339 1_565 S
Eu648 O696 2.563 1_565 S
Eu648 O697 2.419 . S
Eu648 O699 2.380 1_556 S
Eu648 O700 2.432 . S
Eu648 C712 2.848 . S
C649 C652 1.429 . S
C649 C653 1.411 . S
C649 N656 1.377 . S
C650 C652 1.420 . S
C650 C654 1.423 . S
C650 C662 1.392 . S
C651 C653 1.420 . S
C651 C654 1.351 . S
C651 H674 0.931 . S
C652 C649 1.429 . S
C652 C650 1.420 . S
C652 N660 1.362 . S
C653 C649 1.411 . S
C653 C651 1.420 . S
C653 C658 1.395 . S
C654 C650 1.423 . S
C654 C651 1.351 . S
C654 H666 0.930 . S
C655 C657 1.400 . S
C655 C658 1.386 . S
C655 H667 0.930 . S
N656 C649 1.377 . S
N656 C657 1.321 . S
N656 Eu659 2.609 . S
C657 C655 1.400 . S
C657 N656 1.321 . S
C657 H664 0.930 . S
C658 C653 1.395 . S
C658 C655 1.386 . S
C658 H677 0.930 . S
Eu659 N656 2.609 . S
Eu659 N660 2.657 . S
Eu659 O693 2.380 1_554 S
Eu659 O694 2.432 . S
Eu659 O698 2.558 . S
Eu659 O699 2.612 1_545 S
Eu659 O701 2.339 1_545 S
Eu659 O702 2.563 1_545 S
Eu659 O703 2.419 . S
Eu659 C723 2.848 . S
N660 C652 1.362 . S
N660 Eu659 2.657 . S
N660 C661 1.334 . S
C661 N660 1.334 . S
C661 C663 1.413 . S
C661 H668 0.929 . S
C662 C650 1.392 . S
C662 C663 1.367 . S
C662 H670 0.930 . S
C663 C661 1.413 . S
C663 C662 1.367 . S
C663 H665 0.930 . S
H664 C657 0.930 . S
H665 C663 0.930 . S
H666 C654 0.930 . S
H667 C655 0.930 . S
H668 C661 0.929 . S
H669 C683 0.930 . S
H670 C662 0.930 . S
H671 C689 0.930 . S
H672 C680 0.929 . S
H673 C687 0.930 . S
H674 C651 0.931 . S
H675 C681 0.930 . S
H676 C714 0.930 . S
H677 C658 0.930 . S
H678 C713 0.931 . S
N679 Eu648 2.657 . S
N679 C680 1.334 . S
N679 C684 1.362 . S
C680 H672 0.929 . S
C680 N679 1.334 . S
C680 C683 1.413 . S
C681 H675 0.930 . S
C681 C682 1.392 . S
C681 C683 1.367 . S
C682 C681 1.392 . S
C682 C684 1.420 . S
C682 C714 1.423 . S
C683 H669 0.930 . S
C683 C680 1.413 . S
C683 C681 1.367 . S
C684 N679 1.362 . S
C684 C682 1.420 . S
C684 C688 1.429 . S
H685 C690 0.930 . S
N686 Eu648 2.609 . S
N686 C688 1.377 . S
N686 C689 1.321 . S
C687 H673 0.930 . S
C687 C689 1.400 . S
C687 C690 1.386 . S
C688 C684 1.429 . S
C688 N686 1.377 . S
C688 C691 1.411 . S
C689 H671 0.930 . S
C689 N686 1.321 . S
C689 C687 1.400 . S
C690 H685 0.930 . S
C690 C687 1.386 . S
C690 C691 1.395 . S
C691 C688 1.411 . S
C691 C690 1.395 . S
C691 C713 1.420 . S
O692 Eu648 2.558 . S
O692 C712 1.257 . S
O693 Eu648 2.612 1_545 S
O693 Eu659 2.380 1_556 S
O693 C704 1.276 . S
O694 Eu659 2.432 . S
O694 C711 1.264 1_554 S
O695 Eu648 2.339 1_545 S
O695 C711 1.254 . S
O696 Eu648 2.563 1_545 S
O696 C704 1.235 . S
O697 Eu648 2.419 . S
O697 C712 1.249 . S
O698 Eu659 2.558 . S
O698 C723 1.257 . S
O699 Eu648 2.380 1_554 S
O699 Eu659 2.612 1_565 S
O699 C715 1.276 . S
O700 Eu648 2.432 . S
O700 C722 1.264 1_556 S
O701 Eu659 2.339 1_565 S
O701 C722 1.254 . S
O702 Eu659 2.563 1_565 S
O702 C715 1.235 . S
O703 Eu659 2.419 . S
O703 C723 1.249 . S
C704 O693 1.276 . S
C704 O696 1.235 . S
C705 C707 1.393 1_565 S
C705 C709 1.395 . S
C705 C712 1.492 . S
C706 C707 1.392 . S
C706 C708 1.386 1_545 S
C707 C705 1.393 1_545 S
C707 C706 1.392 . S
C707 H724 0.930 . S
C708 C706 1.386 1_565 S
C708 C710 1.395 . S
C708 H725 0.930 . S
C709 C705 1.395 . S
C709 C710 1.379 . S
C709 H726 0.930 . S
C710 C708 1.395 . S
C710 C709 1.379 . S
C710 H727 0.930 . S
C711 O694 1.264 1_556 S
C711 O695 1.254 . S
C712 Eu648 2.848 . S
C712 O692 1.257 . S
C712 O697 1.249 . S
C712 C705 1.492 . S
C713 H678 0.931 . S
C713 C691 1.420 . S
C713 C714 1.351 . S
C714 H676 0.930 . S
C714 C682 1.423 . S
C714 C713 1.351 . S
C715 O699 1.276 . S
C715 O702 1.235 . S
C716 C717 1.393 1_545 S
C716 C720 1.395 . S
C716 C723 1.492 . S
C717 C716 1.393 1_565 S
C717 C718 1.392 . S
C717 H728 0.930 . S
C718 C717 1.392 . S
C718 C719 1.386 1_565 S
C719 C718 1.386 1_545 S
C719 C721 1.395 . S
C719 H729 0.930 . S
C720 C716 1.395 . S
C720 C721 1.379 . S
C720 H730 0.930 . S
C721 C719 1.395 . S
C721 C720 1.379 . S
C721 H731 0.930 . S
C722 O700 1.264 1_554 S
C722 O701 1.254 . S
C723 Eu659 2.848 . S
C723 O698 1.257 . S
C723 O703 1.249 . S
C723 C716 1.492 . S
H724 C707 0.930 . S
H725 C708 0.930 . S
H726 C709 0.930 . S
H727 C710 0.930 . S
H728 C717 0.930 . S
H729 C719 0.930 . S
H730 C720 0.930 . S
H731 C721 0.930 . S
Eu732 N763 2.657 . S
Eu732 N770 2.609 . S
Eu732 O776 2.558 . S
Eu732 O777 2.612 1_455 S
Eu732 O779 2.339 1_455 S
Eu732 O780 2.563 1_455 S
Eu732 O781 2.419 . S
Eu732 O783 2.380 1_556 S
Eu732 O784 2.432 . S
Eu732 C796 2.848 . S
C733 C736 1.429 . S
C733 C737 1.411 . S
C733 N740 1.377 . S
C734 C736 1.420 . S
C734 C738 1.423 . S
C734 C746 1.392 . S
C735 C737 1.420 . S
C735 C738 1.351 . S
C735 H758 0.931 . S
C736 C733 1.429 . S
C736 C734 1.420 . S
C736 N744 1.362 . S
C737 C733 1.411 . S
C737 C735 1.420 . S
C737 C742 1.395 . S
C738 C734 1.423 . S
C738 C735 1.351 . S
C738 H750 0.930 . S
C739 C741 1.400 . S
C739 C742 1.386 . S
C739 H751 0.930 . S
N740 C733 1.377 . S
N740 C741 1.321 . S
N740 Eu743 2.609 . S
C741 C739 1.400 . S
C741 N740 1.321 . S
C741 H748 0.930 . S
C742 C737 1.395 . S
C742 C739 1.386 . S
C742 H761 0.930 . S
Eu743 N740 2.609 . S
Eu743 N744 2.657 . S
Eu743 O777 2.380 1_554 S
Eu743 O778 2.432 . S
Eu743 O782 2.558 . S
Eu743 O783 2.612 1_655 S
Eu743 O785 2.339 1_655 S
Eu743 O786 2.563 1_655 S
Eu743 O787 2.419 . S
Eu743 C807 2.848 . S
N744 C736 1.362 . S
N744 Eu743 2.657 . S
N744 C745 1.334 . S
C745 N744 1.334 . S
C745 C747 1.413 . S
C745 H752 0.929 . S
C746 C734 1.392 . S
C746 C747 1.367 . S
C746 H754 0.930 . S
C747 C745 1.413 . S
C747 C746 1.367 . S
C747 H749 0.930 . S
H748 C741 0.930 . S
H749 C747 0.930 . S
H750 C738 0.930 . S
H751 C739 0.930 . S
H752 C745 0.929 . S
H753 C767 0.930 . S
H754 C746 0.930 . S
H755 C773 0.930 . S
H756 C764 0.929 . S
H757 C771 0.930 . S
H758 C735 0.931 . S
H759 C765 0.930 . S
H760 C798 0.930 . S
H761 C742 0.930 . S
H762 C797 0.931 . S
N763 Eu732 2.657 . S
N763 C764 1.334 . S
N763 C768 1.362 . S
C764 H756 0.929 . S
C764 N763 1.334 . S
C764 C767 1.413 . S
C765 H759 0.930 . S
C765 C766 1.392 . S
C765 C767 1.367 . S
C766 C765 1.392 . S
C766 C768 1.420 . S
C766 C798 1.423 . S
C767 H753 0.930 . S
C767 C764 1.413 . S
C767 C765 1.367 . S
C768 N763 1.362 . S
C768 C766 1.420 . S
C768 C772 1.429 . S
H769 C774 0.930 . S
N770 Eu732 2.609 . S
N770 C772 1.377 . S
N770 C773 1.321 . S
C771 H757 0.930 . S
C771 C773 1.400 . S
C771 C774 1.386 . S
C772 C768 1.429 . S
C772 N770 1.377 . S
C772 C775 1.411 . S
C773 H755 0.930 . S
C773 N770 1.321 . S
C773 C771 1.400 . S
C774 H769 0.930 . S
C774 C771 1.386 . S
C774 C775 1.395 . S
C775 C772 1.411 . S
C775 C774 1.395 . S
C775 C797 1.420 . S
O776 Eu732 2.558 . S
O776 C796 1.257 . S
O777 Eu732 2.612 1_655 S
O777 Eu743 2.380 1_556 S
O777 C788 1.276 . S
O778 Eu743 2.432 . S
O778 C795 1.264 1_554 S
O779 Eu732 2.339 1_655 S
O779 C795 1.254 . S
O780 Eu732 2.563 1_655 S
O780 C788 1.235 . S
O781 Eu732 2.419 . S
O781 C796 1.249 . S
O782 Eu743 2.558 . S
O782 C807 1.257 . S
O783 Eu732 2.380 1_554 S
O783 Eu743 2.612 1_455 S
O783 C799 1.276 . S
O784 Eu732 2.432 . S
O784 C806 1.264 1_556 S
O785 Eu743 2.339 1_455 S
O785 C806 1.254 . S
O786 Eu743 2.563 1_455 S
O786 C799 1.235 . S
O787 Eu743 2.419 . S
O787 C807 1.249 . S
C788 O777 1.276 . S
C788 O780 1.235 . S
C789 C791 1.393 1_455 S
C789 C793 1.395 . S
C789 C796 1.492 . S
C790 C791 1.392 . S
C790 C792 1.386 1_655 S
C791 C789 1.393 1_655 S
C791 C790 1.392 . S
C791 H808 0.930 . S
C792 C790 1.386 1_455 S
C792 C794 1.395 . S
C792 H809 0.930 . S
C793 C789 1.395 . S
C793 C794 1.379 . S
C793 H810 0.930 . S
C794 C792 1.395 . S
C794 C793 1.379 . S
C794 H811 0.930 . S
C795 O778 1.264 1_556 S
C795 O779 1.254 . S
C796 Eu732 2.848 . S
C796 O776 1.257 . S
C796 O781 1.249 . S
C796 C789 1.492 . S
C797 H762 0.931 . S
C797 C775 1.420 . S
C797 C798 1.351 . S
C798 H760 0.930 . S
C798 C766 1.423 . S
C798 C797 1.351 . S
C799 O783 1.276 . S
C799 O786 1.235 . S
C800 C801 1.393 1_655 S
C800 C804 1.395 . S
C800 C807 1.492 . S
C801 C800 1.393 1_455 S
C801 C802 1.392 . S
C801 H812 0.930 . S
C802 C801 1.392 . S
C802 C803 1.386 1_455 S
C803 C802 1.386 1_655 S
C803 C805 1.395 . S
C803 H813 0.930 . S
C804 C800 1.395 . S
C804 C805 1.379 . S
C804 H814 0.930 . S
C805 C803 1.395 . S
C805 C804 1.379 . S
C805 H815 0.930 . S
C806 O784 1.264 1_554 S
C806 O785 1.254 . S
C807 Eu743 2.848 . S
C807 O782 1.257 . S
C807 O787 1.249 . S
C807 C800 1.492 . S
H808 C791 0.930 . S
H809 C792 0.930 . S
H810 C793 0.930 . S
H811 C794 0.930 . S
H812 C801 0.930 . S
H813 C803 0.930 . S
H814 C804 0.930 . S
H815 C805 0.930 . S
Eu816 N847 2.657 . S
Eu816 N854 2.609 . S
Eu816 O860 2.558 . S
Eu816 O861 2.612 . S
Eu816 O863 2.339 . S
Eu816 O864 2.563 . S
Eu816 O865 2.419 . S
Eu816 O867 2.380 1_554 S
Eu816 O868 2.432 . S
Eu816 C880 2.848 . S
C817 C820 1.429 . S
C817 C821 1.411 . S
C817 N824 1.377 . S
C818 C820 1.420 . S
C818 C822 1.423 . S
C818 C830 1.392 . S
C819 C821 1.420 . S
C819 C822 1.351 . S
C819 H842 0.931 . S
C820 C817 1.429 . S
C820 C818 1.420 . S
C820 N828 1.362 . S
C821 C817 1.411 . S
C821 C819 1.420 . S
C821 C826 1.395 . S
C822 C818 1.423 . S
C822 C819 1.351 . S
C822 H834 0.930 . S
C823 C825 1.400 . S
C823 C826 1.386 . S
C823 H835 0.930 . S
N824 C817 1.377 . S
N824 C825 1.321 . S
N824 Eu827 2.609 . S
C825 C823 1.400 . S
C825 N824 1.321 . S
C825 H832 0.930 . S
C826 C821 1.395 . S
C826 C823 1.386 . S
C826 H845 0.930 . S
Eu827 N824 2.609 . S
Eu827 N828 2.657 . S
Eu827 O861 2.380 1_556 S
Eu827 O862 2.432 . S
Eu827 O866 2.558 . S
Eu827 O867 2.612 . S
Eu827 O869 2.339 . S
Eu827 O870 2.563 . S
Eu827 O871 2.419 . S
Eu827 C891 2.848 . S
N828 C820 1.362 . S
N828 Eu827 2.657 . S
N828 C829 1.334 . S
C829 N828 1.334 . S
C829 C831 1.413 . S
C829 H836 0.929 . S
C830 C818 1.392 . S
C830 C831 1.367 . S
C830 H838 0.930 . S
C831 C829 1.413 . S
C831 C830 1.367 . S
C831 H833 0.930 . S
H832 C825 0.930 . S
H833 C831 0.930 . S
H834 C822 0.930 . S
H835 C823 0.930 . S
H836 C829 0.929 . S
H837 C851 0.930 . S
H838 C830 0.930 . S
H839 C857 0.930 . S
H840 C848 0.929 . S
H841 C855 0.930 . S
H842 C819 0.931 . S
H843 C849 0.930 . S
H844 C882 0.930 . S
H845 C826 0.930 . S
H846 C881 0.931 . S
N847 Eu816 2.657 . S
N847 C848 1.334 . S
N847 C852 1.362 . S
C848 H840 0.929 . S
C848 N847 1.334 . S
C848 C851 1.413 . S
C849 H843 0.930 . S
C849 C850 1.392 . S
C849 C851 1.367 . S
C850 C849 1.392 . S
C850 C852 1.420 . S
C850 C882 1.423 . S
C851 H837 0.930 . S
C851 C848 1.413 . S
C851 C849 1.367 . S
C852 N847 1.362 . S
C852 C850 1.420 . S
C852 C856 1.429 . S
H853 C858 0.930 . S
N854 Eu816 2.609 . S
N854 C856 1.377 . S
N854 C857 1.321 . S
C855 H841 0.930 . S
C855 C857 1.400 . S
C855 C858 1.386 . S
C856 C852 1.429 . S
C856 N854 1.377 . S
C856 C859 1.411 . S
C857 H839 0.930 . S
C857 N854 1.321 . S
C857 C855 1.400 . S
C858 H853 0.930 . S
C858 C855 1.386 . S
C858 C859 1.395 . S
C859 C856 1.411 . S
C859 C858 1.395 . S
C859 C881 1.420 . S
O860 Eu816 2.558 . S
O860 C880 1.257 . S
O861 Eu816 2.612 . S
O861 Eu827 2.380 1_554 S
O861 C872 1.276 . S
O862 Eu827 2.432 . S
O862 C879 1.264 1_556 S
O863 Eu816 2.339 . S
O863 C879 1.254 . S
O864 Eu816 2.563 . S
O864 C872 1.235 . S
O865 Eu816 2.419 . S
O865 C880 1.249 . S
O866 Eu827 2.558 . S
O866 C891 1.257 . S
O867 Eu816 2.380 1_556 S
O867 Eu827 2.612 . S
O867 C883 1.276 . S
O868 Eu816 2.432 . S
O868 C890 1.264 1_554 S
O869 Eu827 2.339 . S
O869 C890 1.254 . S
O870 Eu827 2.563 . S
O870 C883 1.235 . S
O871 Eu827 2.419 . S
O871 C891 1.249 . S
C872 O861 1.276 . S
C872 O864 1.235 . S
C873 C875 1.393 . S
C873 C877 1.395 . S
C873 C880 1.492 . S
C874 C875 1.392 . S
C874 C876 1.386 . S
C875 C873 1.393 . S
C875 C874 1.392 . S
C875 H892 0.930 . S
C876 C874 1.386 . S
C876 C878 1.395 . S
C876 H893 0.930 . S
C877 C873 1.395 . S
C877 C878 1.379 . S
C877 H894 0.930 . S
C878 C876 1.395 . S
C878 C877 1.379 . S
C878 H895 0.930 . S
C879 O862 1.264 1_554 S
C879 O863 1.254 . S
C880 Eu816 2.848 . S
C880 O860 1.257 . S
C880 O865 1.249 . S
C880 C873 1.492 . S
C881 H846 0.931 . S
C881 C859 1.420 . S
C881 C882 1.351 . S
C882 H844 0.930 . S
C882 C850 1.423 . S
C882 C881 1.351 . S
C883 O867 1.276 . S
C883 O870 1.235 . S
C884 C885 1.393 . S
C884 C888 1.395 . S
C884 C891 1.492 . S
C885 C884 1.393 . S
C885 C886 1.392 . S
C885 H896 0.930 . S
C886 C885 1.392 . S
C886 C887 1.386 . S
C887 C886 1.386 . S
C887 C889 1.395 . S
C887 H897 0.930 . S
C888 C884 1.395 . S
C888 C889 1.379 . S
C888 H898 0.930 . S
C889 C887 1.395 . S
C889 C888 1.379 . S
C889 H899 0.930 . S
C890 O868 1.264 1_556 S
C890 O869 1.254 . S
C891 Eu827 2.848 . S
C891 O866 1.257 . S
C891 O871 1.249 . S
C891 C884 1.492 . S
H892 C875 0.930 . S
H893 C876 0.930 . S
H894 C877 0.930 . S
H895 C878 0.930 . S
H896 C885 0.930 . S
H897 C887 0.930 . S
H898 C888 0.930 . S
H899 C889 0.930 . S
Eu900 N931 2.657 . S
Eu900 N938 2.609 . S
Eu900 O944 2.558 . S
Eu900 O945 2.612 . S
Eu900 O947 2.339 . S
Eu900 O948 2.563 . S
Eu900 O949 2.419 . S
Eu900 O951 2.380 . S
Eu900 O952 2.432 . S
Eu900 C964 2.848 . S
C901 C904 1.429 . S
C901 C905 1.411 . S
C901 N908 1.377 . S
C902 C904 1.420 . S
C902 C906 1.423 . S
C902 C914 1.392 . S
C903 C905 1.420 . S
C903 C906 1.351 . S
C903 H926 0.931 . S
C904 C901 1.429 . S
C904 C902 1.420 . S
C904 N912 1.362 . S
C905 C901 1.411 . S
C905 C903 1.420 . S
C905 C910 1.395 . S
C906 C902 1.423 . S
C906 C903 1.351 . S
C906 H918 0.930 . S
C907 C909 1.400 . S
C907 C910 1.386 . S
C907 H919 0.930 . S
N908 C901 1.377 . S
N908 C909 1.321 . S
N908 Eu911 2.609 . S
C909 C907 1.400 . S
C909 N908 1.321 . S
C909 H916 0.930 . S
C910 C905 1.395 . S
C910 C907 1.386 . S
C910 H929 0.930 . S
Eu911 N908 2.609 . S
Eu911 N912 2.657 . S
Eu911 O945 2.380 . S
Eu911 O946 2.432 . S
Eu911 O950 2.558 . S
Eu911 O951 2.612 . S
Eu911 O953 2.339 . S
Eu911 O954 2.563 . S
Eu911 O955 2.419 . S
Eu911 C975 2.848 . S
N912 C904 1.362 . S
N912 Eu911 2.657 . S
N912 C913 1.334 . S
C913 N912 1.334 . S
C913 C915 1.413 . S
C913 H920 0.929 . S
C914 C902 1.392 . S
C914 C915 1.367 . S
C914 H922 0.930 . S
C915 C913 1.413 . S
C915 C914 1.367 . S
C915 H917 0.930 . S
H916 C909 0.930 . S
H917 C915 0.930 . S
H918 C906 0.930 . S
H919 C907 0.930 . S
H920 C913 0.929 . S
H921 C935 0.930 . S
H922 C914 0.930 . S
H923 C941 0.930 . S
H924 C932 0.929 . S
H925 C939 0.930 . S
H926 C903 0.931 . S
H927 C933 0.930 . S
H928 C966 0.930 . S
H929 C910 0.930 . S
H930 C965 0.931 . S
N931 Eu900 2.657 . S
N931 C932 1.334 . S
N931 C936 1.362 . S
C932 H924 0.929 . S
C932 N931 1.334 . S
C932 C935 1.413 . S
C933 H927 0.930 . S
C933 C934 1.392 . S
C933 C935 1.367 . S
C934 C933 1.392 . S
C934 C936 1.420 . S
C934 C966 1.423 . S
C935 H921 0.930 . S
C935 C932 1.413 . S
C935 C933 1.367 . S
C936 N931 1.362 . S
C936 C934 1.420 . S
C936 C940 1.429 . S
H937 C942 0.930 . S
N938 Eu900 2.609 . S
N938 C940 1.377 . S
N938 C941 1.321 . S
C939 H925 0.930 . S
C939 C941 1.400 . S
C939 C942 1.386 . S
C940 C936 1.429 . S
C940 N938 1.377 . S
C940 C943 1.411 . S
C941 H923 0.930 . S
C941 N938 1.321 . S
C941 C939 1.400 . S
C942 H937 0.930 . S
C942 C939 1.386 . S
C942 C943 1.395 . S
C943 C940 1.411 . S
C943 C942 1.395 . S
C943 C965 1.420 . S
O944 Eu900 2.558 . S
O944 C964 1.257 . S
O945 Eu900 2.612 . S
O945 Eu911 2.380 . S
O945 C956 1.276 . S
O946 Eu911 2.432 . S
O946 C963 1.264 . S
O947 Eu900 2.339 . S
O947 C963 1.254 . S
O948 Eu900 2.563 . S
O948 C956 1.235 . S
O949 Eu900 2.419 . S
O949 C964 1.249 . S
O950 Eu911 2.558 . S
O950 C975 1.257 . S
O951 Eu900 2.380 . S
O951 Eu911 2.612 . S
O951 C967 1.276 . S
O952 Eu900 2.432 . S
O952 C974 1.264 . S
O953 Eu911 2.339 . S
O953 C974 1.254 . S
O954 Eu911 2.563 . S
O954 C967 1.235 . S
O955 Eu911 2.419 . S
O955 C975 1.249 . S
C956 O945 1.276 . S
C956 O948 1.235 . S
C957 C959 1.393 . S
C957 C961 1.395 . S
C957 C964 1.492 . S
C958 C959 1.392 . S
C958 C960 1.386 . S
C959 C957 1.393 . S
C959 C958 1.392 . S
C959 H976 0.930 . S
C960 C958 1.386 . S
C960 C962 1.395 . S
C960 H977 0.930 . S
C961 C957 1.395 . S
C961 C962 1.379 . S
C961 H978 0.930 . S
C962 C960 1.395 . S
C962 C961 1.379 . S
C962 H979 0.930 . S
C963 O946 1.264 . S
C963 O947 1.254 . S
C964 Eu900 2.848 . S
C964 O944 1.257 . S
C964 O949 1.249 . S
C964 C957 1.492 . S
C965 H930 0.931 . S
C965 C943 1.420 . S
C965 C966 1.351 . S
C966 H928 0.930 . S
C966 C934 1.423 . S
C966 C965 1.351 . S
C967 O951 1.276 . S
C967 O954 1.235 . S
C968 C969 1.393 . S
C968 C972 1.395 . S
C968 C975 1.492 . S
C969 C968 1.393 . S
C969 C970 1.392 . S
C969 H980 0.930 . S
C970 C969 1.392 . S
C970 C971 1.386 . S
C971 C970 1.386 . S
C971 C973 1.395 . S
C971 H981 0.930 . S
C972 C968 1.395 . S
C972 C973 1.379 . S
C972 H982 0.930 . S
C973 C971 1.395 . S
C973 C972 1.379 . S
C973 H983 0.930 . S
C974 O952 1.264 . S
C974 O953 1.254 . S
C975 Eu911 2.848 . S
C975 O950 1.257 . S
C975 O955 1.249 . S
C975 C968 1.492 . S
H976 C959 0.930 . S
H977 C960 0.930 . S
H978 C961 0.930 . S
H979 C962 0.930 . S
H980 C969 0.930 . S
H981 C971 0.930 . S
H982 C972 0.930 . S
H983 C973 0.930 . S
Eu984 N1015 2.657 . S
Eu984 N1022 2.609 . S
Eu984 O1028 2.558 . S
Eu984 O1029 2.612 . S
Eu984 O1031 2.339 . S
Eu984 O1032 2.563 . S
Eu984 O1033 2.419 . S
Eu984 O1035 2.380 . S
Eu984 O1036 2.432 . S
Eu984 C1048 2.848 . S
C985 C988 1.429 . S
C985 C989 1.411 . S
C985 N992 1.377 . S
C986 C988 1.420 . S
C986 C990 1.423 . S
C986 C998 1.392 . S
C987 C989 1.420 . S
C987 C990 1.351 . S
C987 H1010 0.931 . S
C988 C985 1.429 . S
C988 C986 1.420 . S
C988 N996 1.362 . S
C989 C985 1.411 . S
C989 C987 1.420 . S
C989 C994 1.395 . S
C990 C986 1.423 . S
C990 C987 1.351 . S
C990 H1002 0.930 . S
C991 C993 1.400 . S
C991 C994 1.386 . S
C991 H1003 0.930 . S
N992 C985 1.377 . S
N992 C993 1.321 . S
N992 Eu995 2.609 . S
C993 C991 1.400 . S
C993 N992 1.321 . S
C993 H1000 0.930 . S
C994 C989 1.395 . S
C994 C991 1.386 . S
C994 H1013 0.930 . S
Eu995 N992 2.609 . S
Eu995 N996 2.657 . S
Eu995 O1029 2.380 . S
Eu995 O1030 2.432 . S
Eu995 O1034 2.558 . S
Eu995 O1035 2.612 . S
Eu995 O1037 2.339 . S
Eu995 O1038 2.563 . S
Eu995 O1039 2.419 . S
Eu995 C1059 2.848 . S
N996 C988 1.362 . S
N996 Eu995 2.657 . S
N996 C997 1.334 . S
C997 N996 1.334 . S
C997 C999 1.413 . S
C997 H1004 0.929 . S
C998 C986 1.392 . S
C998 C999 1.367 . S
C998 H1006 0.930 . S
C999 C997 1.413 . S
C999 C998 1.367 . S
C999 H1001 0.930 . S
H1000 C993 0.930 . S
H1001 C999 0.930 . S
H1002 C990 0.930 . S
H1003 C991 0.930 . S
H1004 C997 0.929 . S
H1005 C1019 0.930 . S
H1006 C998 0.930 . S
H1007 C1025 0.930 . S
H1008 C1016 0.929 . S
H1009 C1023 0.930 . S
H1010 C987 0.931 . S
H1011 C1017 0.930 . S
H1012 C1050 0.930 . S
H1013 C994 0.930 . S
H1014 C1049 0.931 . S
N1015 Eu984 2.657 . S
N1015 C1016 1.334 . S
N1015 C1020 1.362 . S
C1016 H1008 0.929 . S
C1016 N1015 1.334 . S
C1016 C1019 1.413 . S
C1017 H1011 0.930 . S
C1017 C1018 1.392 . S
C1017 C1019 1.367 . S
C1018 C1017 1.392 . S
C1018 C1020 1.420 . S
C1018 C1050 1.423 . S
C1019 H1005 0.930 . S
C1019 C1016 1.413 . S
C1019 C1017 1.367 . S
C1020 N1015 1.362 . S
C1020 C1018 1.420 . S
C1020 C1024 1.429 . S
H1021 C1026 0.930 . S
N1022 Eu984 2.609 . S
N1022 C1024 1.377 . S
N1022 C1025 1.321 . S
C1023 H1009 0.930 . S
C1023 C1025 1.400 . S
C1023 C1026 1.386 . S
C1024 C1020 1.429 . S
C1024 N1022 1.377 . S
C1024 C1027 1.411 . S
C1025 H1007 0.930 . S
C1025 N1022 1.321 . S
C1025 C1023 1.400 . S
C1026 H1021 0.930 . S
C1026 C1023 1.386 . S
C1026 C1027 1.395 . S
C1027 C1024 1.411 . S
C1027 C1026 1.395 . S
C1027 C1049 1.420 . S
O1028 Eu984 2.558 . S
O1028 C1048 1.257 . S
O1029 Eu984 2.612 . S
O1029 Eu995 2.380 . S
O1029 C1040 1.276 . S
O1030 Eu995 2.432 . S
O1030 C1047 1.264 . S
O1031 Eu984 2.339 . S
O1031 C1047 1.254 . S
O1032 Eu984 2.563 . S
O1032 C1040 1.235 . S
O1033 Eu984 2.419 . S
O1033 C1048 1.249 . S
O1034 Eu995 2.558 . S
O1034 C1059 1.257 . S
O1035 Eu984 2.380 . S
O1035 Eu995 2.612 . S
O1035 C1051 1.276 . S
O1036 Eu984 2.432 . S
O1036 C1058 1.264 . S
O1037 Eu995 2.339 . S
O1037 C1058 1.254 . S
O1038 Eu995 2.563 . S
O1038 C1051 1.235 . S
O1039 Eu995 2.419 . S
O1039 C1059 1.249 . S
C1040 O1029 1.276 . S
C1040 O1032 1.235 . S
C1041 C1043 1.393 . S
C1041 C1045 1.395 . S
C1041 C1048 1.492 . S
C1042 C1043 1.392 . S
C1042 C1044 1.386 . S
C1043 C1041 1.393 . S
C1043 C1042 1.392 . S
C1043 H1060 0.930 . S
C1044 C1042 1.386 . S
C1044 C1046 1.395 . S
C1044 H1061 0.930 . S
C1045 C1041 1.395 . S
C1045 C1046 1.379 . S
C1045 H1062 0.930 . S
C1046 C1044 1.395 . S
C1046 C1045 1.379 . S
C1046 H1063 0.930 . S
C1047 O1030 1.264 . S
C1047 O1031 1.254 . S
C1048 Eu984 2.848 . S
C1048 O1028 1.257 . S
C1048 O1033 1.249 . S
C1048 C1041 1.492 . S
C1049 H1014 0.931 . S
C1049 C1027 1.420 . S
C1049 C1050 1.351 . S
C1050 H1012 0.930 . S
C1050 C1018 1.423 . S
C1050 C1049 1.351 . S
C1051 O1035 1.276 . S
C1051 O1038 1.235 . S
C1052 C1053 1.393 . S
C1052 C1056 1.395 . S
C1052 C1059 1.492 . S
C1053 C1052 1.393 . S
C1053 C1054 1.392 . S
C1053 H1064 0.930 . S
C1054 C1053 1.392 . S
C1054 C1055 1.386 . S
C1055 C1054 1.386 . S
C1055 C1057 1.395 . S
C1055 H1065 0.930 . S
C1056 C1052 1.395 . S
C1056 C1057 1.379 . S
C1056 H1066 0.930 . S
C1057 C1055 1.395 . S
C1057 C1056 1.379 . S
C1057 H1067 0.930 . S
C1058 O1036 1.264 . S
C1058 O1037 1.254 . S
C1059 Eu995 2.848 . S
C1059 O1034 1.257 . S
C1059 O1039 1.249 . S
C1059 C1052 1.492 . S
H1060 C1043 0.930 . S
H1061 C1044 0.930 . S
H1062 C1045 0.930 . S
H1063 C1046 0.930 . S
H1064 C1053 0.930 . S
H1065 C1055 0.930 . S
H1066 C1056 0.930 . S
H1067 C1057 0.930 . S
Eu1068 N1099 2.657 . S
Eu1068 N1106 2.609 . S
Eu1068 O1112 2.558 . S
Eu1068 O1113 2.612 . S
Eu1068 O1115 2.339 . S
Eu1068 O1116 2.563 . S
Eu1068 O1117 2.419 . S
Eu1068 O1119 2.380 . S
Eu1068 O1120 2.432 . S
Eu1068 C1132 2.848 . S
C1069 C1072 1.429 . S
C1069 C1073 1.411 . S
C1069 N1076 1.377 . S
C1070 C1072 1.420 . S
C1070 C1074 1.423 . S
C1070 C1082 1.392 . S
C1071 C1073 1.420 . S
C1071 C1074 1.351 . S
C1071 H1094 0.931 . S
C1072 C1069 1.429 . S
C1072 C1070 1.420 . S
C1072 N1080 1.362 . S
C1073 C1069 1.411 . S
C1073 C1071 1.420 . S
C1073 C1078 1.395 . S
C1074 C1070 1.423 . S
C1074 C1071 1.351 . S
C1074 H1086 0.930 . S
C1075 C1077 1.400 . S
C1075 C1078 1.386 . S
C1075 H1087 0.930 . S
N1076 C1069 1.377 . S
N1076 C1077 1.321 . S
N1076 Eu1079 2.609 . S
C1077 C1075 1.400 . S
C1077 N1076 1.321 . S
C1077 H1084 0.930 . S
C1078 C1073 1.395 . S
C1078 C1075 1.386 . S
C1078 H1097 0.930 . S
Eu1079 N1076 2.609 . S
Eu1079 N1080 2.657 . S
Eu1079 O1113 2.380 . S
Eu1079 O1114 2.432 . S
Eu1079 O1118 2.558 . S
Eu1079 O1119 2.612 . S
Eu1079 O1121 2.339 . S
Eu1079 O1122 2.563 . S
Eu1079 O1123 2.419 . S
Eu1079 C1143 2.848 . S
N1080 C1072 1.362 . S
N1080 Eu1079 2.657 . S
N1080 C1081 1.334 . S
C1081 N1080 1.334 . S
C1081 C1083 1.413 . S
C1081 H1088 0.929 . S
C1082 C1070 1.392 . S
C1082 C1083 1.367 . S
C1082 H1090 0.930 . S
C1083 C1081 1.413 . S
C1083 C1082 1.367 . S
C1083 H1085 0.930 . S
H1084 C1077 0.930 . S
H1085 C1083 0.930 . S
H1086 C1074 0.930 . S
H1087 C1075 0.930 . S
H1088 C1081 0.929 . S
H1089 C1103 0.930 . S
H1090 C1082 0.930 . S
H1091 C1109 0.930 . S
H1092 C1100 0.929 . S
H1093 C1107 0.930 . S
H1094 C1071 0.931 . S
H1095 C1101 0.930 . S
H1096 C1134 0.930 . S
H1097 C1078 0.930 . S
H1098 C1133 0.931 . S
N1099 Eu1068 2.657 . S
N1099 C1100 1.334 . S
N1099 C1104 1.362 . S
C1100 H1092 0.929 . S
C1100 N1099 1.334 . S
C1100 C1103 1.413 . S
C1101 H1095 0.930 . S
C1101 C1102 1.392 . S
C1101 C1103 1.367 . S
C1102 C1101 1.392 . S
C1102 C1104 1.420 . S
C1102 C1134 1.423 . S
C1103 H1089 0.930 . S
C1103 C1100 1.413 . S
C1103 C1101 1.367 . S
C1104 N1099 1.362 . S
C1104 C1102 1.420 . S
C1104 C1108 1.429 . S
H1105 C1110 0.930 . S
N1106 Eu1068 2.609 . S
N1106 C1108 1.377 . S
N1106 C1109 1.321 . S
C1107 H1093 0.930 . S
C1107 C1109 1.400 . S
C1107 C1110 1.386 . S
C1108 C1104 1.429 . S
C1108 N1106 1.377 . S
C1108 C1111 1.411 . S
C1109 H1091 0.930 . S
C1109 N1106 1.321 . S
C1109 C1107 1.400 . S
C1110 H1105 0.930 . S
C1110 C1107 1.386 . S
C1110 C1111 1.395 . S
C1111 C1108 1.411 . S
C1111 C1110 1.395 . S
C1111 C1133 1.420 . S
O1112 Eu1068 2.558 . S
O1112 C1132 1.257 . S
O1113 Eu1068 2.612 . S
O1113 Eu1079 2.380 . S
O1113 C1124 1.276 . S
O1114 Eu1079 2.432 . S
O1114 C1131 1.264 . S
O1115 Eu1068 2.339 . S
O1115 C1131 1.254 . S
O1116 Eu1068 2.563 . S
O1116 C1124 1.235 . S
O1117 Eu1068 2.419 . S
O1117 C1132 1.249 . S
O1118 Eu1079 2.558 . S
O1118 C1143 1.257 . S
O1119 Eu1068 2.380 . S
O1119 Eu1079 2.612 . S
O1119 C1135 1.276 . S
O1120 Eu1068 2.432 . S
O1120 C1142 1.264 . S
O1121 Eu1079 2.339 . S
O1121 C1142 1.254 . S
O1122 Eu1079 2.563 . S
O1122 C1135 1.235 . S
O1123 Eu1079 2.419 . S
O1123 C1143 1.249 . S
C1124 O1113 1.276 . S
C1124 O1116 1.235 . S
C1125 C1127 1.393 . S
C1125 C1129 1.395 . S
C1125 C1132 1.492 . S
C1126 C1127 1.392 . S
C1126 C1128 1.386 . S
C1127 C1125 1.393 . S
C1127 C1126 1.392 . S
C1127 H1144 0.930 . S
C1128 C1126 1.386 . S
C1128 C1130 1.395 . S
C1128 H1145 0.930 . S
C1129 C1125 1.395 . S
C1129 C1130 1.379 . S
C1129 H1146 0.930 . S
C1130 C1128 1.395 . S
C1130 C1129 1.379 . S
C1130 H1147 0.930 . S
C1131 O1114 1.264 . S
C1131 O1115 1.254 . S
C1132 Eu1068 2.848 . S
C1132 O1112 1.257 . S
C1132 O1117 1.249 . S
C1132 C1125 1.492 . S
C1133 H1098 0.931 . S
C1133 C1111 1.420 . S
C1133 C1134 1.351 . S
C1134 H1096 0.930 . S
C1134 C1102 1.423 . S
C1134 C1133 1.351 . S
C1135 O1119 1.276 . S
C1135 O1122 1.235 . S
C1136 C1137 1.393 . S
C1136 C1140 1.395 . S
C1136 C1143 1.492 . S
C1137 C1136 1.393 . S
C1137 C1138 1.392 . S
C1137 H1148 0.930 . S
C1138 C1137 1.392 . S
C1138 C1139 1.386 . S
C1139 C1138 1.386 . S
C1139 C1141 1.395 . S
C1139 H1149 0.930 . S
C1140 C1136 1.395 . S
C1140 C1141 1.379 . S
C1140 H1150 0.930 . S
C1141 C1139 1.395 . S
C1141 C1140 1.379 . S
C1141 H1151 0.930 . S
C1142 O1120 1.264 . S
C1142 O1121 1.254 . S
C1143 Eu1079 2.848 . S
C1143 O1118 1.257 . S
C1143 O1123 1.249 . S
C1143 C1136 1.492 . S
H1144 C1127 0.930 . S
H1145 C1128 0.930 . S
H1146 C1129 0.930 . S
H1147 C1130 0.930 . S
H1148 C1137 0.930 . S
H1149 C1139 0.930 . S
H1150 C1140 0.930 . S
H1151 C1141 0.930 . S
Eu1152 N1183 2.657 . S
Eu1152 N1190 2.609 . S
Eu1152 O1196 2.558 . S
Eu1152 O1197 2.612 . S
Eu1152 O1199 2.339 . S
Eu1152 O1200 2.563 . S
Eu1152 O1201 2.419 . S
Eu1152 O1203 2.380 . S
Eu1152 O1204 2.432 . S
Eu1152 C1216 2.848 . S
C1153 C1156 1.429 . S
C1153 C1157 1.411 . S
C1153 N1160 1.377 . S
C1154 C1156 1.420 . S
C1154 C1158 1.423 . S
C1154 C1166 1.392 . S
C1155 C1157 1.420 . S
C1155 C1158 1.351 . S
C1155 H1178 0.931 . S
C1156 C1153 1.429 . S
C1156 C1154 1.420 . S
C1156 N1164 1.362 . S
C1157 C1153 1.411 . S
C1157 C1155 1.420 . S
C1157 C1162 1.395 . S
C1158 C1154 1.423 . S
C1158 C1155 1.351 . S
C1158 H1170 0.930 . S
C1159 C1161 1.400 . S
C1159 C1162 1.386 . S
C1159 H1171 0.930 . S
N1160 C1153 1.377 . S
N1160 C1161 1.321 . S
N1160 Eu1163 2.609 . S
C1161 C1159 1.400 . S
C1161 N1160 1.321 . S
C1161 H1168 0.930 . S
C1162 C1157 1.395 . S
C1162 C1159 1.386 . S
C1162 H1181 0.930 . S
Eu1163 N1160 2.609 . S
Eu1163 N1164 2.657 . S
Eu1163 O1197 2.380 . S
Eu1163 O1198 2.432 . S
Eu1163 O1202 2.558 . S
Eu1163 O1203 2.612 . S
Eu1163 O1205 2.339 . S
Eu1163 O1206 2.563 . S
Eu1163 O1207 2.419 . S
Eu1163 C1227 2.848 . S
N1164 C1156 1.362 . S
N1164 Eu1163 2.657 . S
N1164 C1165 1.334 . S
C1165 N1164 1.334 . S
C1165 C1167 1.413 . S
C1165 H1172 0.929 . S
C1166 C1154 1.392 . S
C1166 C1167 1.367 . S
C1166 H1174 0.930 . S
C1167 C1165 1.413 . S
C1167 C1166 1.367 . S
C1167 H1169 0.930 . S
H1168 C1161 0.930 . S
H1169 C1167 0.930 . S
H1170 C1158 0.930 . S
H1171 C1159 0.930 . S
H1172 C1165 0.929 . S
H1173 C1187 0.930 . S
H1174 C1166 0.930 . S
H1175 C1193 0.930 . S
H1176 C1184 0.929 . S
H1177 C1191 0.930 . S
H1178 C1155 0.931 . S
H1179 C1185 0.930 . S
H1180 C1218 0.930 . S
H1181 C1162 0.930 . S
H1182 C1217 0.931 . S
N1183 Eu1152 2.657 . S
N1183 C1184 1.334 . S
N1183 C1188 1.362 . S
C1184 H1176 0.929 . S
C1184 N1183 1.334 . S
C1184 C1187 1.413 . S
C1185 H1179 0.930 . S
C1185 C1186 1.392 . S
C1185 C1187 1.367 . S
C1186 C1185 1.392 . S
C1186 C1188 1.420 . S
C1186 C1218 1.423 . S
C1187 H1173 0.930 . S
C1187 C1184 1.413 . S
C1187 C1185 1.367 . S
C1188 N1183 1.362 . S
C1188 C1186 1.420 . S
C1188 C1192 1.429 . S
H1189 C1194 0.930 . S
N1190 Eu1152 2.609 . S
N1190 C1192 1.377 . S
N1190 C1193 1.321 . S
C1191 H1177 0.930 . S
C1191 C1193 1.400 . S
C1191 C1194 1.386 . S
C1192 C1188 1.429 . S
C1192 N1190 1.377 . S
C1192 C1195 1.411 . S
C1193 H1175 0.930 . S
C1193 N1190 1.321 . S
C1193 C1191 1.400 . S
C1194 H1189 0.930 . S
C1194 C1191 1.386 . S
C1194 C1195 1.395 . S
C1195 C1192 1.411 . S
C1195 C1194 1.395 . S
C1195 C1217 1.420 . S
O1196 Eu1152 2.558 . S
O1196 C1216 1.257 . S
O1197 Eu1152 2.612 . S
O1197 Eu1163 2.380 . S
O1197 C1208 1.276 . S
O1198 Eu1163 2.432 . S
O1198 C1215 1.264 . S
O1199 Eu1152 2.339 . S
O1199 C1215 1.254 . S
O1200 Eu1152 2.563 . S
O1200 C1208 1.235 . S
O1201 Eu1152 2.419 . S
O1201 C1216 1.249 . S
O1202 Eu1163 2.558 . S
O1202 C1227 1.257 . S
O1203 Eu1152 2.380 . S
O1203 Eu1163 2.612 . S
O1203 C1219 1.276 . S
O1204 Eu1152 2.432 . S
O1204 C1226 1.264 . S
O1205 Eu1163 2.339 . S
O1205 C1226 1.254 . S
O1206 Eu1163 2.563 . S
O1206 C1219 1.235 . S
O1207 Eu1163 2.419 . S
O1207 C1227 1.249 . S
C1208 O1197 1.276 . S
C1208 O1200 1.235 . S
C1209 C1211 1.393 . S
C1209 C1213 1.395 . S
C1209 C1216 1.492 . S
C1210 C1211 1.392 . S
C1210 C1212 1.386 . S
C1211 C1209 1.393 . S
C1211 C1210 1.392 . S
C1211 H1228 0.930 . S
C1212 C1210 1.386 . S
C1212 C1214 1.395 . S
C1212 H1229 0.930 . S
C1213 C1209 1.395 . S
C1213 C1214 1.379 . S
C1213 H1230 0.930 . S
C1214 C1212 1.395 . S
C1214 C1213 1.379 . S
C1214 H1231 0.930 . S
C1215 O1198 1.264 . S
C1215 O1199 1.254 . S
C1216 Eu1152 2.848 . S
C1216 O1196 1.257 . S
C1216 O1201 1.249 . S
C1216 C1209 1.492 . S
C1217 H1182 0.931 . S
C1217 C1195 1.420 . S
C1217 C1218 1.351 . S
C1218 H1180 0.930 . S
C1218 C1186 1.423 . S
C1218 C1217 1.351 . S
C1219 O1203 1.276 . S
C1219 O1206 1.235 . S
C1220 C1221 1.393 . S
C1220 C1224 1.395 . S
C1220 C1227 1.492 . S
C1221 C1220 1.393 . S
C1221 C1222 1.392 . S
C1221 H1232 0.930 . S
C1222 C1221 1.392 . S
C1222 C1223 1.386 . S
C1223 C1222 1.386 . S
C1223 C1225 1.395 . S
C1223 H1233 0.930 . S
C1224 C1220 1.395 . S
C1224 C1225 1.379 . S
C1224 H1234 0.930 . S
C1225 C1223 1.395 . S
C1225 C1224 1.379 . S
C1225 H1235 0.930 . S
C1226 O1204 1.264 . S
C1226 O1205 1.254 . S
C1227 Eu1163 2.848 . S
C1227 O1202 1.257 . S
C1227 O1207 1.249 . S
C1227 C1220 1.492 . S
H1228 C1211 0.930 . S
H1229 C1212 0.930 . S
H1230 C1213 0.930 . S
H1231 C1214 0.930 . S
H1232 C1221 0.930 . S
H1233 C1223 0.930 . S
H1234 C1224 0.930 . S
H1235 C1225 0.930 . S
Eu1236 N1267 2.657 . S
Eu1236 N1274 2.609 . S
Eu1236 O1280 2.558 . S
Eu1236 O1281 2.612 . S
Eu1236 O1283 2.339 . S
Eu1236 O1284 2.563 . S
Eu1236 O1285 2.419 . S
Eu1236 O1287 2.380 . S
Eu1236 O1288 2.432 . S
Eu1236 C1300 2.848 . S
C1237 C1240 1.429 . S
C1237 C1241 1.411 . S
C1237 N1244 1.377 . S
C1238 C1240 1.420 . S
C1238 C1242 1.423 . S
C1238 C1250 1.392 . S
C1239 C1241 1.420 . S
C1239 C1242 1.351 . S
C1239 H1262 0.931 . S
C1240 C1237 1.429 . S
C1240 C1238 1.420 . S
C1240 N1248 1.362 . S
C1241 C1237 1.411 . S
C1241 C1239 1.420 . S
C1241 C1246 1.395 . S
C1242 C1238 1.423 . S
C1242 C1239 1.351 . S
C1242 H1254 0.930 . S
C1243 C1245 1.400 . S
C1243 C1246 1.386 . S
C1243 H1255 0.930 . S
N1244 C1237 1.377 . S
N1244 C1245 1.321 . S
N1244 Eu1247 2.609 . S
C1245 C1243 1.400 . S
C1245 N1244 1.321 . S
C1245 H1252 0.930 . S
C1246 C1241 1.395 . S
C1246 C1243 1.386 . S
C1246 H1265 0.930 . S
Eu1247 N1244 2.609 . S
Eu1247 N1248 2.657 . S
Eu1247 O1281 2.380 . S
Eu1247 O1282 2.432 . S
Eu1247 O1286 2.558 . S
Eu1247 O1287 2.612 . S
Eu1247 O1289 2.339 . S
Eu1247 O1290 2.563 . S
Eu1247 O1291 2.419 . S
Eu1247 C1311 2.848 . S
N1248 C1240 1.362 . S
N1248 Eu1247 2.657 . S
N1248 C1249 1.334 . S
C1249 N1248 1.334 . S
C1249 C1251 1.413 . S
C1249 H1256 0.929 . S
C1250 C1238 1.392 . S
C1250 C1251 1.367 . S
C1250 H1258 0.930 . S
C1251 C1249 1.413 . S
C1251 C1250 1.367 . S
C1251 H1253 0.930 . S
H1252 C1245 0.930 . S
H1253 C1251 0.930 . S
H1254 C1242 0.930 . S
H1255 C1243 0.930 . S
H1256 C1249 0.929 . S
H1257 C1271 0.930 . S
H1258 C1250 0.930 . S
H1259 C1277 0.930 . S
H1260 C1268 0.929 . S
H1261 C1275 0.930 . S
H1262 C1239 0.931 . S
H1263 C1269 0.930 . S
H1264 C1302 0.930 . S
H1265 C1246 0.930 . S
H1266 C1301 0.931 . S
N1267 Eu1236 2.657 . S
N1267 C1268 1.334 . S
N1267 C1272 1.362 . S
C1268 H1260 0.929 . S
C1268 N1267 1.334 . S
C1268 C1271 1.413 . S
C1269 H1263 0.930 . S
C1269 C1270 1.392 . S
C1269 C1271 1.367 . S
C1270 C1269 1.392 . S
C1270 C1272 1.420 . S
C1270 C1302 1.423 . S
C1271 H1257 0.930 . S
C1271 C1268 1.413 . S
C1271 C1269 1.367 . S
C1272 N1267 1.362 . S
C1272 C1270 1.420 . S
C1272 C1276 1.429 . S
H1273 C1278 0.930 . S
N1274 Eu1236 2.609 . S
N1274 C1276 1.377 . S
N1274 C1277 1.321 . S
C1275 H1261 0.930 . S
C1275 C1277 1.400 . S
C1275 C1278 1.386 . S
C1276 C1272 1.429 . S
C1276 N1274 1.377 . S
C1276 C1279 1.411 . S
C1277 H1259 0.930 . S
C1277 N1274 1.321 . S
C1277 C1275 1.400 . S
C1278 H1273 0.930 . S
C1278 C1275 1.386 . S
C1278 C1279 1.395 . S
C1279 C1276 1.411 . S
C1279 C1278 1.395 . S
C1279 C1301 1.420 . S
O1280 Eu1236 2.558 . S
O1280 C1300 1.257 . S
O1281 Eu1236 2.612 . S
O1281 Eu1247 2.380 . S
O1281 C1292 1.276 . S
O1282 Eu1247 2.432 . S
O1282 C1299 1.264 . S
O1283 Eu1236 2.339 . S
O1283 C1299 1.254 . S
O1284 Eu1236 2.563 . S
O1284 C1292 1.235 . S
O1285 Eu1236 2.419 . S
O1285 C1300 1.249 . S
O1286 Eu1247 2.558 . S
O1286 C1311 1.257 . S
O1287 Eu1236 2.380 . S
O1287 Eu1247 2.612 . S
O1287 C1303 1.276 . S
O1288 Eu1236 2.432 . S
O1288 C1310 1.264 . S
O1289 Eu1247 2.339 . S
O1289 C1310 1.254 . S
O1290 Eu1247 2.563 . S
O1290 C1303 1.235 . S
O1291 Eu1247 2.419 . S
O1291 C1311 1.249 . S
C1292 O1281 1.276 . S
C1292 O1284 1.235 . S
C1293 C1295 1.393 . S
C1293 C1297 1.395 . S
C1293 C1300 1.492 . S
C1294 C1295 1.392 . S
C1294 C1296 1.386 . S
C1295 C1293 1.393 . S
C1295 C1294 1.392 . S
C1295 H1312 0.930 . S
C1296 C1294 1.386 . S
C1296 C1298 1.395 . S
C1296 H1313 0.930 . S
C1297 C1293 1.395 . S
C1297 C1298 1.379 . S
C1297 H1314 0.930 . S
C1298 C1296 1.395 . S
C1298 C1297 1.379 . S
C1298 H1315 0.930 . S
C1299 O1282 1.264 . S
C1299 O1283 1.254 . S
C1300 Eu1236 2.848 . S
C1300 O1280 1.257 . S
C1300 O1285 1.249 . S
C1300 C1293 1.492 . S
C1301 H1266 0.931 . S
C1301 C1279 1.420 . S
C1301 C1302 1.351 . S
C1302 H1264 0.930 . S
C1302 C1270 1.423 . S
C1302 C1301 1.351 . S
C1303 O1287 1.276 . S
C1303 O1290 1.235 . S
C1304 C1305 1.393 . S
C1304 C1308 1.395 . S
C1304 C1311 1.492 . S
C1305 C1304 1.393 . S
C1305 C1306 1.392 . S
C1305 H1316 0.930 . S
C1306 C1305 1.392 . S
C1306 C1307 1.386 . S
C1307 C1306 1.386 . S
C1307 C1309 1.395 . S
C1307 H1317 0.930 . S
C1308 C1304 1.395 . S
C1308 C1309 1.379 . S
C1308 H1318 0.930 . S
C1309 C1307 1.395 . S
C1309 C1308 1.379 . S
C1309 H1319 0.930 . S
C1310 O1288 1.264 . S
C1310 O1289 1.254 . S
C1311 Eu1247 2.848 . S
C1311 O1286 1.257 . S
C1311 O1291 1.249 . S
C1311 C1304 1.492 . S
H1312 C1295 0.930 . S
H1313 C1296 0.930 . S
H1314 C1297 0.930 . S
H1315 C1298 0.930 . S
H1316 C1305 0.930 . S
H1317 C1307 0.930 . S
H1318 C1308 0.930 . S
H1319 C1309 0.930 . S
Eu1320 N1351 2.657 . S
Eu1320 N1358 2.609 . S
Eu1320 O1364 2.558 . S
Eu1320 O1365 2.612 . S
Eu1320 O1367 2.339 . S
Eu1320 O1368 2.563 . S
Eu1320 O1369 2.419 . S
Eu1320 O1371 2.380 . S
Eu1320 O1372 2.432 . S
Eu1320 C1384 2.848 . S
C1321 C1324 1.429 . S
C1321 C1325 1.411 . S
C1321 N1328 1.377 . S
C1322 C1324 1.420 . S
C1322 C1326 1.423 . S
C1322 C1334 1.392 . S
C1323 C1325 1.420 . S
C1323 C1326 1.351 . S
C1323 H1346 0.931 . S
C1324 C1321 1.429 . S
C1324 C1322 1.420 . S
C1324 N1332 1.362 . S
C1325 C1321 1.411 . S
C1325 C1323 1.420 . S
C1325 C1330 1.395 . S
C1326 C1322 1.423 . S
C1326 C1323 1.351 . S
C1326 H1338 0.930 . S
C1327 C1329 1.400 . S
C1327 C1330 1.386 . S
C1327 H1339 0.930 . S
N1328 C1321 1.377 . S
N1328 C1329 1.321 . S
N1328 Eu1331 2.609 . S
C1329 C1327 1.400 . S
C1329 N1328 1.321 . S
C1329 H1336 0.930 . S
C1330 C1325 1.395 . S
C1330 C1327 1.386 . S
C1330 H1349 0.930 . S
Eu1331 N1328 2.609 . S
Eu1331 N1332 2.657 . S
Eu1331 O1365 2.380 . S
Eu1331 O1366 2.432 . S
Eu1331 O1370 2.558 . S
Eu1331 O1371 2.612 . S
Eu1331 O1373 2.339 . S
Eu1331 O1374 2.563 . S
Eu1331 O1375 2.419 . S
Eu1331 C1395 2.848 . S
N1332 C1324 1.362 . S
N1332 Eu1331 2.657 . S
N1332 C1333 1.334 . S
C1333 N1332 1.334 . S
C1333 C1335 1.413 . S
C1333 H1340 0.929 . S
C1334 C1322 1.392 . S
C1334 C1335 1.367 . S
C1334 H1342 0.930 . S
C1335 C1333 1.413 . S
C1335 C1334 1.367 . S
C1335 H1337 0.930 . S
H1336 C1329 0.930 . S
H1337 C1335 0.930 . S
H1338 C1326 0.930 . S
H1339 C1327 0.930 . S
H1340 C1333 0.929 . S
H1341 C1355 0.930 . S
H1342 C1334 0.930 . S
H1343 C1361 0.930 . S
H1344 C1352 0.929 . S
H1345 C1359 0.930 . S
H1346 C1323 0.931 . S
H1347 C1353 0.930 . S
H1348 C1386 0.930 . S
H1349 C1330 0.930 . S
H1350 C1385 0.931 . S
N1351 Eu1320 2.657 . S
N1351 C1352 1.334 . S
N1351 C1356 1.362 . S
C1352 H1344 0.929 . S
C1352 N1351 1.334 . S
C1352 C1355 1.413 . S
C1353 H1347 0.930 . S
C1353 C1354 1.392 . S
C1353 C1355 1.367 . S
C1354 C1353 1.392 . S
C1354 C1356 1.420 . S
C1354 C1386 1.423 . S
C1355 H1341 0.930 . S
C1355 C1352 1.413 . S
C1355 C1353 1.367 . S
C1356 N1351 1.362 . S
C1356 C1354 1.420 . S
C1356 C1360 1.429 . S
H1357 C1362 0.930 . S
N1358 Eu1320 2.609 . S
N1358 C1360 1.377 . S
N1358 C1361 1.321 . S
C1359 H1345 0.930 . S
C1359 C1361 1.400 . S
C1359 C1362 1.386 . S
C1360 C1356 1.429 . S
C1360 N1358 1.377 . S
C1360 C1363 1.411 . S
C1361 H1343 0.930 . S
C1361 N1358 1.321 . S
C1361 C1359 1.400 . S
C1362 H1357 0.930 . S
C1362 C1359 1.386 . S
C1362 C1363 1.395 . S
C1363 C1360 1.411 . S
C1363 C1362 1.395 . S
C1363 C1385 1.420 . S
O1364 Eu1320 2.558 . S
O1364 C1384 1.257 . S
O1365 Eu1320 2.612 . S
O1365 Eu1331 2.380 . S
O1365 C1376 1.276 . S
O1366 Eu1331 2.432 . S
O1366 C1383 1.264 . S
O1367 Eu1320 2.339 . S
O1367 C1383 1.254 . S
O1368 Eu1320 2.563 . S
O1368 C1376 1.235 . S
O1369 Eu1320 2.419 . S
O1369 C1384 1.249 . S
O1370 Eu1331 2.558 . S
O1370 C1395 1.257 . S
O1371 Eu1320 2.380 . S
O1371 Eu1331 2.612 . S
O1371 C1387 1.276 . S
O1372 Eu1320 2.432 . S
O1372 C1394 1.264 . S
O1373 Eu1331 2.339 . S
O1373 C1394 1.254 . S
O1374 Eu1331 2.563 . S
O1374 C1387 1.235 . S
O1375 Eu1331 2.419 . S
O1375 C1395 1.249 . S
C1376 O1365 1.276 . S
C1376 O1368 1.235 . S
C1377 C1379 1.393 . S
C1377 C1381 1.395 . S
C1377 C1384 1.492 . S
C1378 C1379 1.392 . S
C1378 C1380 1.386 . S
C1379 C1377 1.393 . S
C1379 C1378 1.392 . S
C1379 H1396 0.930 . S
C1380 C1378 1.386 . S
C1380 C1382 1.395 . S
C1380 H1397 0.930 . S
C1381 C1377 1.395 . S
C1381 C1382 1.379 . S
C1381 H1398 0.930 . S
C1382 C1380 1.395 . S
C1382 C1381 1.379 . S
C1382 H1399 0.930 . S
C1383 O1366 1.264 . S
C1383 O1367 1.254 . S
C1384 Eu1320 2.848 . S
C1384 O1364 1.257 . S
C1384 O1369 1.249 . S
C1384 C1377 1.492 . S
C1385 H1350 0.931 . S
C1385 C1363 1.420 . S
C1385 C1386 1.351 . S
C1386 H1348 0.930 . S
C1386 C1354 1.423 . S
C1386 C1385 1.351 . S
C1387 O1371 1.276 . S
C1387 O1374 1.235 . S
C1388 C1389 1.393 . S
C1388 C1392 1.395 . S
C1388 C1395 1.492 . S
C1389 C1388 1.393 . S
C1389 C1390 1.392 . S
C1389 H1400 0.930 . S
C1390 C1389 1.392 . S
C1390 C1391 1.386 . S
C1391 C1390 1.386 . S
C1391 C1393 1.395 . S
C1391 H1401 0.930 . S
C1392 C1388 1.395 . S
C1392 C1393 1.379 . S
C1392 H1402 0.930 . S
C1393 C1391 1.395 . S
C1393 C1392 1.379 . S
C1393 H1403 0.930 . S
C1394 O1372 1.264 . S
C1394 O1373 1.254 . S
C1395 Eu1331 2.848 . S
C1395 O1370 1.257 . S
C1395 O1375 1.249 . S
C1395 C1388 1.492 . S
H1396 C1379 0.930 . S
H1397 C1380 0.930 . S
H1398 C1381 0.930 . S
H1399 C1382 0.930 . S
H1400 C1389 0.930 . S
H1401 C1391 0.930 . S
H1402 C1392 0.930 . S
H1403 C1393 0.930 . S
C1404 C1405 1.387 . S
C1404 H1408 0.950 . S
C1404 C1413 1.390 . S
C1405 C1404 1.387 . S
C1405 C1407 1.387 . S
H1406 C1413 0.950 . S
C1407 C1405 1.387 . S
C1407 C1409 1.390 . S
C1407 H1411 0.950 . S
H1408 C1404 0.950 . S
C1409 C1407 1.390 . S
C1409 C1410 1.387 . S
C1409 H1412 0.950 1_554 S
C1410 C1409 1.387 . S
C1410 C1413 1.387 . S
H1411 C1407 0.950 . S
H1412 C1409 0.950 1_556 S
C1413 C1404 1.390 . S
C1413 H1406 0.950 . S
C1413 C1410 1.387 . S
C1414 C1415 1.387 . S
C1414 H1418 0.950 . S
C1414 C1423 1.390 . S
C1415 C1414 1.387 . S
C1415 C1417 1.387 . S
H1416 C1423 0.950 . S
C1417 C1415 1.387 . S
C1417 C1419 1.390 . S
C1417 H1421 0.950 . S
H1418 C1414 0.950 . S
C1419 C1417 1.390 . S
C1419 C1420 1.387 . S
C1419 H1422 0.950 . S
C1420 C1419 1.387 . S
C1420 C1423 1.387 . S
H1421 C1417 0.950 . S
H1422 C1419 0.950 . S
C1423 C1414 1.390 . S
C1423 H1416 0.950 . S
C1423 C1420 1.387 . S
C1424 C1425 1.387 . S
C1424 H1428 0.950 . S
C1424 C1433 1.390 . S
C1425 C1424 1.387 . S
C1425 C1427 1.387 . S
H1426 C1433 0.950 . S
C1427 C1425 1.387 . S
C1427 C1429 1.390 . S
C1427 H1431 0.950 . S
H1428 C1424 0.950 . S
C1429 C1427 1.390 . S
C1429 C1430 1.387 . S
C1429 H1432 0.950 . S
C1430 C1429 1.387 . S
C1430 C1433 1.387 . S
H1431 C1427 0.950 . S
H1432 C1429 0.950 . S
C1433 C1424 1.390 . S
C1433 H1426 0.950 . S
C1433 C1430 1.387 . S
C1434 C1435 1.387 . S
C1434 H1438 0.950 . S
C1434 C1443 1.390 . S
C1435 C1434 1.387 . S
C1435 C1437 1.387 . S
H1436 C1443 0.950 . S
C1437 C1435 1.387 . S
C1437 C1439 1.390 . S
C1437 H1441 0.950 . S
H1438 C1434 0.950 . S
C1439 C1437 1.390 . S
C1439 C1440 1.387 . S
C1439 H1442 0.950 . S
C1440 C1439 1.387 . S
C1440 C1443 1.387 . S
H1441 C1437 0.950 . S
H1442 C1439 0.950 . S
C1443 C1434 1.390 . S
C1443 H1436 0.950 . S
C1443 C1440 1.387 . S
C1444 C1445 1.387 . S
C1444 H1448 0.950 . S
C1444 C1453 1.390 . S
C1445 C1444 1.387 . S
C1445 C1447 1.387 . S
H1446 C1453 0.950 1_554 S
C1447 C1445 1.387 . S
C1447 C1449 1.390 . S
C1447 H1451 0.950 . S
H1448 C1444 0.950 . S
C1449 C1447 1.390 . S
C1449 C1450 1.387 . S
C1449 H1452 0.950 . S
C1450 C1449 1.387 . S
C1450 C1453 1.387 . S
H1451 C1447 0.950 . S
H1452 C1449 0.950 . S
C1453 C1444 1.390 . S
C1453 H1446 0.950 1_556 S
C1453 C1450 1.387 . S
C1454 C1455 1.387 . S
C1454 H1458 0.950 . S
C1454 C1463 1.390 . S
C1455 C1454 1.387 . S
C1455 C1457 1.387 . S
H1456 C1463 0.950 . S
C1457 C1455 1.387 . S
C1457 C1459 1.390 . S
C1457 H1461 0.950 . S
H1458 C1454 0.950 . S
C1459 C1457 1.390 . S
C1459 C1460 1.387 . S
C1459 H1462 0.950 . S
C1460 C1459 1.387 . S
C1460 C1463 1.387 . S
H1461 C1457 0.950 . S
H1462 C1459 0.950 . S
C1463 C1454 1.390 . S
C1463 H1456 0.950 . S
C1463 C1460 1.387 . S
C1464 C1465 1.387 . S
C1464 H1468 0.950 . S
C1464 C1473 1.390 . S
C1465 C1464 1.387 . S
C1465 C1467 1.387 . S
H1466 C1473 0.950 1_554 S
C1467 C1465 1.387 . S
C1467 C1469 1.390 . S
C1467 H1471 0.950 . S
H1468 C1464 0.950 . S
C1469 C1467 1.390 . S
C1469 C1470 1.387 . S
C1469 H1472 0.950 . S
C1470 C1469 1.387 . S
C1470 C1473 1.387 . S
H1471 C1467 0.950 . S
H1472 C1469 0.950 . S
C1473 C1464 1.390 . S
C1473 H1466 0.950 1_556 S
C1473 C1470 1.387 . S
C1474 C1475 1.387 . S
C1474 H1478 0.950 . S
C1474 C1483 1.390 . S
C1475 C1474 1.387 . S
C1475 C1477 1.387 . S
H1476 C1483 0.950 1_554 S
C1477 C1475 1.387 . S
C1477 C1479 1.390 . S
C1477 H1481 0.950 . S
H1478 C1474 0.950 . S
C1479 C1477 1.390 . S
C1479 C1480 1.387 . S
C1479 H1482 0.950 . S
C1480 C1479 1.387 . S
C1480 C1483 1.387 . S
H1481 C1477 0.950 . S
H1482 C1479 0.950 . S
C1483 C1474 1.390 . S
C1483 H1476 0.950 1_556 S
C1483 C1480 1.387 . S
C1484 C1485 1.387 . S
C1484 H1488 0.950 . S
C1484 C1493 1.390 . S
C1485 C1484 1.387 . S
C1485 C1487 1.387 . S
H1486 C1493 0.950 1_554 S
C1487 C1485 1.387 . S
C1487 C1489 1.390 . S
C1487 H1491 0.950 . S
H1488 C1484 0.950 . S
C1489 C1487 1.390 . S
C1489 C1490 1.387 . S
C1489 H1492 0.950 . S
C1490 C1489 1.387 . S
C1490 C1493 1.387 . S
H1491 C1487 0.950 . S
H1492 C1489 0.950 . S
C1493 C1484 1.390 . S
C1493 H1486 0.950 1_556 S
C1493 C1490 1.387 . S
C1494 C1495 1.387 . S
C1494 H1498 0.950 . S
C1494 C1503 1.390 . S
C1495 C1494 1.387 . S
C1495 C1497 1.387 . S
H1496 C1503 0.950 . S
C1497 C1495 1.387 . S
C1497 C1499 1.390 . S
C1497 H1501 0.950 . S
H1498 C1494 0.950 . S
C1499 C1497 1.390 . S
C1499 C1500 1.387 . S
C1499 H1502 0.950 . S
C1500 C1499 1.387 . S
C1500 C1503 1.387 . S
H1501 C1497 0.950 . S
H1502 C1499 0.950 . S
C1503 C1494 1.390 . S
C1503 H1496 0.950 . S
C1503 C1500 1.387 . S
C1504 C1505 1.387 . S
C1504 H1508 0.950 . S
C1504 C1513 1.390 . S
C1505 C1504 1.387 . S
C1505 C1507 1.387 . S
H1506 C1513 0.950 . S
C1507 C1505 1.387 . S
C1507 C1509 1.390 . S
C1507 H1511 0.950 . S
H1508 C1504 0.950 . S
C1509 C1507 1.390 . S
C1509 C1510 1.387 . S
C1509 H1512 0.950 . S
C1510 C1509 1.387 . S
C1510 C1513 1.387 . S
H1511 C1507 0.950 . S
H1512 C1509 0.950 . S
C1513 C1504 1.390 . S
C1513 H1506 0.950 . S
C1513 C1510 1.387 . S
C1514 C1515 1.387 . S
C1514 H1518 0.950 . S
C1514 C1523 1.390 . S
C1515 C1514 1.387 . S
C1515 C1517 1.387 . S
H1516 C1523 0.950 . S
C1517 C1515 1.387 . S
C1517 C1519 1.390 . S
C1517 H1521 0.950 . S
H1518 C1514 0.950 . S
C1519 C1517 1.390 . S
C1519 C1520 1.387 . S
C1519 H1522 0.950 . S
C1520 C1519 1.387 . S
C1520 C1523 1.387 . S
H1521 C1517 0.950 . S
H1522 C1519 0.950 . S
C1523 C1514 1.390 . S
C1523 H1516 0.950 . S
C1523 C1520 1.387 . S
C1524 C1525 1.387 . S
C1524 H1528 0.950 . S
C1524 C1533 1.390 . S
C1525 C1524 1.387 . S
C1525 C1527 1.387 . S
H1526 C1533 0.950 . S
C1527 C1525 1.387 . S
C1527 C1529 1.390 . S
C1527 H1531 0.950 . S
H1528 C1524 0.950 . S
C1529 C1527 1.390 . S
C1529 C1530 1.387 . S
C1529 H1532 0.950 . S
C1530 C1529 1.387 . S
C1530 C1533 1.387 . S
H1531 C1527 0.950 . S
H1532 C1529 0.950 . S
C1533 C1524 1.390 . S
C1533 H1526 0.950 . S
C1533 C1530 1.387 . S
C1534 C1535 1.387 . S
C1534 H1538 0.950 . S
C1534 C1543 1.390 . S
C1535 C1534 1.387 . S
C1535 C1537 1.387 . S
H1536 C1543 0.950 . S
C1537 C1535 1.387 . S
C1537 C1539 1.390 . S
C1537 H1541 0.950 . S
H1538 C1534 0.950 . S
C1539 C1537 1.390 . S
C1539 C1540 1.387 . S
C1539 H1542 0.950 . S
C1540 C1539 1.387 . S
C1540 C1543 1.387 . S
H1541 C1537 0.950 . S
H1542 C1539 0.950 . S
C1543 C1534 1.390 . S
C1543 H1536 0.950 . S
C1543 C1540 1.387 . S
C1544 C1545 1.387 . S
C1544 H1548 0.950 . S
C1544 C1553 1.390 . S
C1545 C1544 1.387 . S
C1545 C1547 1.387 . S
H1546 C1553 0.950 . S
C1547 C1545 1.387 . S
C1547 C1549 1.390 . S
C1547 H1551 0.950 . S
H1548 C1544 0.950 . S
C1549 C1547 1.390 . S
C1549 C1550 1.387 . S
C1549 H1552 0.950 . S
C1550 C1549 1.387 . S
C1550 C1553 1.387 . S
H1551 C1547 0.950 . S
H1552 C1549 0.950 . S
C1553 C1544 1.390 . S
C1553 H1546 0.950 . S
C1553 C1550 1.387 . S
C1554 C1555 1.387 . S
C1554 H1558 0.950 . S
C1554 C1563 1.390 . S
C1555 C1554 1.387 . S
C1555 C1557 1.387 . S
H1556 C1563 0.950 . S
C1557 C1555 1.387 . S
C1557 C1559 1.390 . S
C1557 H1561 0.950 . S
H1558 C1554 0.950 . S
C1559 C1557 1.390 . S
C1559 C1560 1.387 . S
C1559 H1562 0.950 . S
C1560 C1559 1.387 . S
C1560 C1563 1.387 . S
H1561 C1557 0.950 . S
H1562 C1559 0.950 . S
C1563 C1554 1.390 . S
C1563 H1556 0.950 . S
C1563 C1560 1.387 . S
C1564 C1565 1.387 . S
C1564 H1568 0.950 . S
C1564 C1573 1.390 . S
C1565 C1564 1.387 . S
C1565 C1567 1.387 . S
H1566 C1573 0.950 . S
C1567 C1565 1.387 . S
C1567 C1569 1.390 . S
C1567 H1571 0.950 . S
H1568 C1564 0.950 . S
C1569 C1567 1.390 . S
C1569 C1570 1.387 . S
C1569 H1572 0.950 . S
C1570 C1569 1.387 . S
C1570 C1573 1.387 . S
H1571 C1567 0.950 . S
H1572 C1569 0.950 . S
C1573 C1564 1.390 . S
C1573 H1566 0.950 . S
C1573 C1570 1.387 . S
C1574 C1575 1.387 . S
C1574 H1578 0.950 . S
C1574 C1583 1.390 . S
C1575 C1574 1.387 . S
C1575 C1577 1.387 . S
H1576 C1583 0.950 . S
C1577 C1575 1.387 . S
C1577 C1579 1.390 . S
C1577 H1581 0.950 . S
H1578 C1574 0.950 . S
C1579 C1577 1.390 . S
C1579 C1580 1.387 . S
C1579 H1582 0.950 . S
C1580 C1579 1.387 . S
C1580 C1583 1.387 . S
H1581 C1577 0.950 . S
H1582 C1579 0.950 . S
C1583 C1574 1.390 . S
C1583 H1576 0.950 . S
C1583 C1580 1.387 . S
C1584 C1585 1.387 . S
C1584 H1588 0.950 . S
C1584 C1593 1.390 . S
C1585 C1584 1.387 . S
C1585 C1587 1.387 . S
H1586 C1593 0.950 . S
C1587 C1585 1.387 . S
C1587 C1589 1.390 . S
C1587 H1591 0.950 . S
H1588 C1584 0.950 . S
C1589 C1587 1.390 . S
C1589 C1590 1.387 . S
C1589 H1592 0.950 . S
C1590 C1589 1.387 . S
C1590 C1593 1.387 . S
H1591 C1587 0.950 . S
H1592 C1589 0.950 . S
C1593 C1584 1.390 . S
C1593 H1586 0.950 . S
C1593 C1590 1.387 . S
C1594 C1595 1.387 . S
C1594 H1598 0.950 . S
C1594 C1603 1.390 . S
C1595 C1594 1.387 . S
C1595 C1597 1.387 . S
H1596 C1603 0.950 . S
C1597 C1595 1.387 . S
C1597 C1599 1.390 . S
C1597 H1601 0.950 . S
H1598 C1594 0.950 . S
C1599 C1597 1.390 . S
C1599 C1600 1.387 . S
C1599 H1602 0.950 . S
C1600 C1599 1.387 . S
C1600 C1603 1.387 . S
H1601 C1597 0.950 . S
H1602 C1599 0.950 . S
C1603 C1594 1.390 . S
C1603 H1596 0.950 . S
C1603 C1600 1.387 . S
C1604 C1605 1.387 . S
C1604 H1608 0.950 . S
C1604 C1613 1.390 . S
C1605 C1604 1.387 . S
C1605 C1607 1.387 . S
H1606 C1613 0.950 . S
C1607 C1605 1.387 . S
C1607 C1609 1.390 . S
C1607 H1611 0.950 . S
H1608 C1604 0.950 . S
C1609 C1607 1.390 . S
C1609 C1610 1.387 . S
C1609 H1612 0.950 . S
C1610 C1609 1.387 . S
C1610 C1613 1.387 . S
H1611 C1607 0.950 . S
H1612 C1609 0.950 . S
C1613 C1604 1.390 . S
C1613 H1606 0.950 . S
C1613 C1610 1.387 . S
C1614 C1615 1.387 . S
C1614 H1618 0.950 . S
C1614 C1623 1.390 . S
C1615 C1614 1.387 . S
C1615 C1617 1.387 . S
H1616 C1623 0.950 . S
C1617 C1615 1.387 . S
C1617 C1619 1.390 . S
C1617 H1621 0.950 . S
H1618 C1614 0.950 . S
C1619 C1617 1.390 . S
C1619 C1620 1.387 . S
C1619 H1622 0.950 . S
C1620 C1619 1.387 . S
C1620 C1623 1.387 . S
H1621 C1617 0.950 . S
H1622 C1619 0.950 . S
C1623 C1614 1.390 . S
C1623 H1616 0.950 . S
C1623 C1620 1.387 . S
C1624 C1625 1.387 . S
C1624 H1628 0.950 . S
C1624 C1633 1.390 . S
C1625 C1624 1.387 . S
C1625 C1627 1.387 . S
H1626 C1633 0.950 . S
C1627 C1625 1.387 . S
C1627 C1629 1.390 . S
C1627 H1631 0.950 . S
H1628 C1624 0.950 . S
C1629 C1627 1.390 . S
C1629 C1630 1.387 . S
C1629 H1632 0.950 . S
C1630 C1629 1.387 . S
C1630 C1633 1.387 . S
H1631 C1627 0.950 . S
H1632 C1629 0.950 . S
C1633 C1624 1.390 . S
C1633 H1626 0.950 . S
C1633 C1630 1.387 . S
C1634 C1635 1.387 . S
C1634 H1638 0.950 . S
C1634 C1643 1.390 . S
C1635 C1634 1.387 . S
C1635 C1637 1.387 . S
H1636 C1643 0.950 . S
C1637 C1635 1.387 . S
C1637 C1639 1.390 . S
C1637 H1641 0.950 . S
H1638 C1634 0.950 . S
C1639 C1637 1.390 . S
C1639 C1640 1.387 . S
C1639 H1642 0.950 . S
C1640 C1639 1.387 . S
C1640 C1643 1.387 . S
H1641 C1637 0.950 . S
H1642 C1639 0.950 . S
C1643 C1634 1.390 . S
C1643 H1636 0.950 . S
C1643 C1640 1.387 . S
C1644 C1645 1.387 . S
C1644 H1648 0.950 . S
C1644 C1653 1.390 . S
C1645 C1644 1.387 . S
C1645 C1647 1.387 . S
H1646 C1653 0.950 . S
C1647 C1645 1.387 . S
C1647 C1649 1.390 . S
C1647 H1651 0.950 . S
H1648 C1644 0.950 . S
C1649 C1647 1.390 . S
C1649 C1650 1.387 . S
C1649 H1652 0.950 . S
C1650 C1649 1.387 . S
C1650 C1653 1.387 . S
H1651 C1647 0.950 . S
H1652 C1649 0.950 . S
C1653 C1644 1.390 . S
C1653 H1646 0.950 . S
C1653 C1650 1.387 . S
C1654 C1655 1.387 . S
C1654 H1658 0.950 . S
C1654 C1663 1.390 . S
C1655 C1654 1.387 . S
C1655 C1657 1.387 . S
H1656 C1663 0.950 . S
C1657 C1655 1.387 . S
C1657 C1659 1.390 . S
C1657 H1661 0.950 . S
H1658 C1654 0.950 . S
C1659 C1657 1.390 . S
C1659 C1660 1.387 . S
C1659 H1662 0.950 . S
C1660 C1659 1.387 . S
C1660 C1663 1.387 . S
H1661 C1657 0.950 . S
H1662 C1659 0.950 . S
C1663 C1654 1.390 . S
C1663 H1656 0.950 . S
C1663 C1660 1.387 . S
C1664 C1665 1.387 . S
C1664 H1668 0.950 . S
C1664 C1673 1.390 . S
C1665 C1664 1.387 . S
C1665 C1667 1.387 . S
H1666 C1673 0.950 . S
C1667 C1665 1.387 . S
C1667 C1669 1.390 . S
C1667 H1671 0.950 . S
H1668 C1664 0.950 . S
C1669 C1667 1.390 . S
C1669 C1670 1.387 . S
C1669 H1672 0.950 . S
C1670 C1669 1.387 . S
C1670 C1673 1.387 . S
H1671 C1667 0.950 . S
H1672 C1669 0.950 . S
C1673 C1664 1.390 . S
C1673 H1666 0.950 . S
C1673 C1670 1.387 . S
C1674 C1675 1.387 . S
C1674 H1678 0.950 . S
C1674 C1683 1.390 . S
C1675 C1674 1.387 . S
C1675 C1677 1.387 . S
H1676 C1683 0.950 . S
C1677 C1675 1.387 . S
C1677 C1679 1.390 . S
C1677 H1681 0.950 . S
H1678 C1674 0.950 . S
C1679 C1677 1.390 . S
C1679 C1680 1.387 . S
C1679 H1682 0.950 . S
C1680 C1679 1.387 . S
C1680 C1683 1.387 . S
H1681 C1677 0.950 . S
H1682 C1679 0.950 . S
C1683 C1674 1.390 . S
C1683 H1676 0.950 . S
C1683 C1680 1.387 . S
C1684 C1685 1.387 . S
C1684 H1688 0.950 . S
C1684 C1693 1.390 . S
C1685 C1684 1.387 . S
C1685 C1687 1.387 . S
H1686 C1693 0.950 . S
C1687 C1685 1.387 . S
C1687 C1689 1.390 . S
C1687 H1691 0.950 . S
H1688 C1684 0.950 . S
C1689 C1687 1.390 . S
C1689 C1690 1.387 . S
C1689 H1692 0.950 . S
C1690 C1689 1.387 . S
C1690 C1693 1.387 . S
H1691 C1687 0.950 . S
H1692 C1689 0.950 . S
C1693 C1684 1.390 . S
C1693 H1686 0.950 . S
C1693 C1690 1.387 . S
C1694 C1695 1.387 . S
C1694 H1698 0.950 . S
C1694 C1703 1.390 . S
C1695 C1694 1.387 . S
C1695 C1697 1.387 . S
H1696 C1703 0.950 . S
C1697 C1695 1.387 . S
C1697 C1699 1.390 . S
C1697 H1701 0.950 . S
H1698 C1694 0.950 . S
C1699 C1697 1.390 . S
C1699 C1700 1.387 . S
C1699 H1702 0.950 . S
C1700 C1699 1.387 . S
C1700 C1703 1.387 . S
H1701 C1697 0.950 . S
H1702 C1699 0.950 . S
C1703 C1694 1.390 . S
C1703 H1696 0.950 . S
C1703 C1700 1.387 . S
C1704 C1705 1.387 . S
C1704 H1708 0.950 . S
C1704 C1713 1.390 . S
C1705 C1704 1.387 . S
C1705 C1707 1.387 . S
H1706 C1713 0.950 . S
C1707 C1705 1.387 . S
C1707 C1709 1.390 . S
C1707 H1711 0.950 . S
H1708 C1704 0.950 . S
C1709 C1707 1.390 . S
C1709 C1710 1.387 . S
C1709 H1712 0.950 . S
C1710 C1709 1.387 . S
C1710 C1713 1.387 . S
H1711 C1707 0.950 . S
H1712 C1709 0.950 . S
C1713 C1704 1.390 . S
C1713 H1706 0.950 . S
C1713 C1710 1.387 . S
C1714 C1715 1.387 . S
C1714 H1718 0.950 . S
C1714 C1723 1.390 . S
C1715 C1714 1.387 . S
C1715 C1717 1.387 . S
H1716 C1723 0.950 . S
C1717 C1715 1.387 . S
C1717 C1719 1.390 . S
C1717 H1721 0.950 . S
H1718 C1714 0.950 . S
C1719 C1717 1.390 . S
C1719 C1720 1.387 . S
C1719 H1722 0.950 . S
C1720 C1719 1.387 . S
C1720 C1723 1.387 . S
H1721 C1717 0.950 . S
H1722 C1719 0.950 . S
C1723 C1714 1.390 . S
C1723 H1716 0.950 . S
C1723 C1720 1.387 . S
C1724 C1725 1.387 . S
C1724 H1728 0.950 . S
C1724 C1733 1.390 . S
C1725 C1724 1.387 . S
C1725 C1727 1.387 . S
H1726 C1733 0.950 . S
C1727 C1725 1.387 . S
C1727 C1729 1.390 . S
C1727 H1731 0.950 . S
H1728 C1724 0.950 . S
C1729 C1727 1.390 . S
C1729 C1730 1.387 . S
C1729 H1732 0.950 . S
C1730 C1729 1.387 . S
C1730 C1733 1.387 . S
H1731 C1727 0.950 . S
H1732 C1729 0.950 . S
C1733 C1724 1.390 . S
C1733 H1726 0.950 . S
C1733 C1730 1.387 . S
C1734 C1735 1.387 . S
C1734 H1738 0.950 . S
C1734 C1743 1.390 . S
C1735 C1734 1.387 . S
C1735 C1737 1.387 . S
H1736 C1743 0.950 . S
C1737 C1735 1.387 . S
C1737 C1739 1.390 . S
C1737 H1741 0.950 . S
H1738 C1734 0.950 . S
C1739 C1737 1.390 . S
C1739 C1740 1.387 . S
C1739 H1742 0.950 . S
C1740 C1739 1.387 . S
C1740 C1743 1.387 . S
H1741 C1737 0.950 . S
H1742 C1739 0.950 . S
C1743 C1734 1.390 . S
C1743 H1736 0.950 . S
C1743 C1740 1.387 . S
C1744 C1745 1.387 . S
C1744 H1748 0.950 . S
C1744 C1753 1.390 . S
C1745 C1744 1.387 . S
C1745 C1747 1.387 . S
H1746 C1753 0.950 . S
C1747 C1745 1.387 . S
C1747 C1749 1.390 . S
C1747 H1751 0.950 . S
H1748 C1744 0.950 . S
C1749 C1747 1.390 . S
C1749 C1750 1.387 . S
C1749 H1752 0.950 . S
C1750 C1749 1.387 . S
C1750 C1753 1.387 . S
H1751 C1747 0.950 . S
H1752 C1749 0.950 . S
C1753 C1744 1.390 . S
C1753 H1746 0.950 . S
C1753 C1750 1.387 . S
C1754 C1755 1.387 . S
C1754 H1758 0.950 . S
C1754 C1763 1.390 . S
C1755 C1754 1.387 . S
C1755 C1757 1.387 . S
H1756 C1763 0.950 . S
C1757 C1755 1.387 . S
C1757 C1759 1.390 . S
C1757 H1761 0.950 . S
H1758 C1754 0.950 . S
C1759 C1757 1.390 . S
C1759 C1760 1.387 . S
C1759 H1762 0.950 . S
C1760 C1759 1.387 . S
C1760 C1763 1.387 . S
H1761 C1757 0.950 . S
H1762 C1759 0.950 . S
C1763 C1754 1.390 . S
C1763 H1756 0.950 . S
C1763 C1760 1.387 . S
C1764 C1765 1.387 . S
C1764 H1768 0.950 . S
C1764 C1773 1.390 . S
C1765 C1764 1.387 . S
C1765 C1767 1.387 . S
H1766 C1773 0.950 . S
C1767 C1765 1.387 . S
C1767 C1769 1.390 . S
C1767 H1771 0.950 . S
H1768 C1764 0.950 . S
C1769 C1767 1.390 . S
C1769 C1770 1.387 . S
C1769 H1772 0.950 . S
C1770 C1769 1.387 . S
C1770 C1773 1.387 . S
H1771 C1767 0.950 . S
H1772 C1769 0.950 . S
C1773 C1764 1.390 . S
C1773 H1766 0.950 . S
C1773 C1770 1.387 . S
C1774 C1775 1.387 . S
C1774 H1778 0.950 . S
C1774 C1783 1.390 . S
C1775 C1774 1.387 . S
C1775 C1777 1.387 . S
H1776 C1783 0.950 . S
C1777 C1775 1.387 . S
C1777 C1779 1.390 . S
C1777 H1781 0.950 . S
H1778 C1774 0.950 . S
C1779 C1777 1.390 . S
C1779 C1780 1.387 . S
C1779 H1782 0.950 . S
C1780 C1779 1.387 . S
C1780 C1783 1.387 . S
H1781 C1777 0.950 . S
H1782 C1779 0.950 . S
C1783 C1774 1.390 . S
C1783 H1776 0.950 . S
C1783 C1780 1.387 . S
C1784 C1785 1.387 . S
C1784 H1788 0.950 . S
C1784 C1793 1.390 . S
C1785 C1784 1.387 . S
C1785 C1787 1.387 . S
H1786 C1793 0.950 . S
C1787 C1785 1.387 . S
C1787 C1789 1.390 . S
C1787 H1791 0.950 . S
H1788 C1784 0.950 . S
C1789 C1787 1.390 . S
C1789 C1790 1.387 . S
C1789 H1792 0.950 . S
C1790 C1789 1.387 . S
C1790 C1793 1.387 . S
H1791 C1787 0.950 . S
H1792 C1789 0.950 . S
C1793 C1784 1.390 . S
C1793 H1786 0.950 . S
C1793 C1790 1.387 . S
C1794 C1795 1.387 . S
C1794 H1798 0.950 . S
C1794 C1803 1.390 . S
C1795 C1794 1.387 . S
C1795 C1797 1.387 . S
H1796 C1803 0.950 . S
C1797 C1795 1.387 . S
C1797 C1799 1.390 . S
C1797 H1801 0.950 . S
H1798 C1794 0.950 . S
C1799 C1797 1.390 . S
C1799 C1800 1.387 . S
C1799 H1802 0.950 . S
C1800 C1799 1.387 . S
C1800 C1803 1.387 . S
H1801 C1797 0.950 . S
H1802 C1799 0.950 . S
C1803 C1794 1.390 . S
C1803 H1796 0.950 . S
C1803 C1800 1.387 . S
C1804 C1805 1.387 . S
C1804 H1808 0.950 . S
C1804 C1813 1.390 . S
C1805 C1804 1.387 . S
C1805 C1807 1.387 . S
H1806 C1813 0.950 . S
C1807 C1805 1.387 . S
C1807 C1809 1.390 . S
C1807 H1811 0.950 . S
H1808 C1804 0.950 . S
C1809 C1807 1.390 . S
C1809 C1810 1.387 . S
C1809 H1812 0.950 . S
C1810 C1809 1.387 . S
C1810 C1813 1.387 . S
H1811 C1807 0.950 . S
H1812 C1809 0.950 . S
C1813 C1804 1.390 . S
C1813 H1806 0.950 . S
C1813 C1810 1.387 . S
C1814 C1815 1.387 . S
C1814 H1818 0.950 . S
C1814 C1823 1.390 . S
C1815 C1814 1.387 . S
C1815 C1817 1.387 . S
H1816 C1823 0.950 . S
C1817 C1815 1.387 . S
C1817 C1819 1.390 . S
C1817 H1821 0.950 . S
H1818 C1814 0.950 . S
C1819 C1817 1.390 . S
C1819 C1820 1.387 . S
C1819 H1822 0.950 . S
C1820 C1819 1.387 . S
C1820 C1823 1.387 . S
H1821 C1817 0.950 . S
H1822 C1819 0.950 . S
C1823 C1814 1.390 . S
C1823 H1816 0.950 . S
C1823 C1820 1.387 . S
C1824 C1825 1.387 . S
C1824 H1828 0.950 . S
C1824 C1833 1.390 . S
C1825 C1824 1.387 . S
C1825 C1827 1.387 . S
H1826 C1833 0.950 . S
C1827 C1825 1.387 . S
C1827 C1829 1.390 . S
C1827 H1831 0.950 . S
H1828 C1824 0.950 . S
C1829 C1827 1.390 . S
C1829 C1830 1.387 . S
C1829 H1832 0.950 . S
C1830 C1829 1.387 . S
C1830 C1833 1.387 . S
H1831 C1827 0.950 . S
H1832 C1829 0.950 . S
C1833 C1824 1.390 . S
C1833 H1826 0.950 . S
C1833 C1830 1.387 . S
C1834 C1835 1.387 . S
C1834 H1838 0.950 . S
C1834 C1843 1.390 . S
C1835 C1834 1.387 . S
C1835 C1837 1.387 . S
H1836 C1843 0.950 . S
C1837 C1835 1.387 . S
C1837 C1839 1.390 . S
C1837 H1841 0.950 . S
H1838 C1834 0.950 . S
C1839 C1837 1.390 . S
C1839 C1840 1.387 . S
C1839 H1842 0.950 . S
C1840 C1839 1.387 . S
C1840 C1843 1.387 . S
H1841 C1837 0.950 . S
H1842 C1839 0.950 . S
C1843 C1834 1.390 . S
C1843 H1836 0.950 . S
C1843 C1840 1.387 . S
C1844 C1845 1.387 . S
C1844 H1848 0.950 . S
C1844 C1853 1.390 . S
C1845 C1844 1.387 . S
C1845 C1847 1.387 . S
H1846 C1853 0.950 . S
C1847 C1845 1.387 . S
C1847 C1849 1.390 . S
C1847 H1851 0.950 . S
H1848 C1844 0.950 . S
C1849 C1847 1.390 . S
C1849 C1850 1.387 . S
C1849 H1852 0.950 . S
C1850 C1849 1.387 . S
C1850 C1853 1.387 . S
H1851 C1847 0.950 . S
H1852 C1849 0.950 . S
C1853 C1844 1.390 . S
C1853 H1846 0.950 . S
C1853 C1850 1.387 . S
C1854 C1855 1.387 . S
C1854 H1858 0.950 . S
C1854 C1863 1.390 . S
C1855 C1854 1.387 . S
C1855 C1857 1.387 . S
H1856 C1863 0.950 . S
C1857 C1855 1.387 . S
C1857 C1859 1.390 . S
C1857 H1861 0.950 . S
H1858 C1854 0.950 . S
C1859 C1857 1.390 . S
C1859 C1860 1.387 . S
C1859 H1862 0.950 . S
C1860 C1859 1.387 . S
C1860 C1863 1.387 . S
H1861 C1857 0.950 . S
H1862 C1859 0.950 . S
C1863 C1854 1.390 . S
C1863 H1856 0.950 . S
C1863 C1860 1.387 . S
C1864 C1865 1.387 . S
C1864 H1868 0.950 . S
C1864 C1873 1.390 . S
C1865 C1864 1.387 . S
C1865 C1867 1.387 . S
H1866 C1873 0.950 . S
C1867 C1865 1.387 . S
C1867 C1869 1.390 . S
C1867 H1871 0.950 . S
H1868 C1864 0.950 . S
C1869 C1867 1.390 . S
C1869 C1870 1.387 . S
C1869 H1872 0.950 . S
C1870 C1869 1.387 . S
C1870 C1873 1.387 . S
H1871 C1867 0.950 . S
H1872 C1869 0.950 . S
C1873 C1864 1.390 . S
C1873 H1866 0.950 . S
C1873 C1870 1.387 . S
C1874 C1875 1.387 . S
C1874 H1878 0.950 . S
C1874 C1883 1.390 . S
C1875 C1874 1.387 . S
C1875 C1877 1.387 . S
H1876 C1883 0.950 . S
C1877 C1875 1.387 . S
C1877 C1879 1.390 . S
C1877 H1881 0.950 . S
H1878 C1874 0.950 . S
C1879 C1877 1.390 . S
C1879 C1880 1.387 . S
C1879 H1882 0.950 . S
C1880 C1879 1.387 . S
C1880 C1883 1.387 . S
H1881 C1877 0.950 . S
H1882 C1879 0.950 . S
C1883 C1874 1.390 . S
C1883 H1876 0.950 . S
C1883 C1880 1.387 . S
C1884 C1885 1.387 . S
C1884 H1888 0.950 . S
C1884 C1893 1.390 . S
C1885 C1884 1.387 . S
C1885 C1887 1.387 . S
H1886 C1893 0.950 . S
C1887 C1885 1.387 . S
C1887 C1889 1.390 . S
C1887 H1891 0.950 . S
H1888 C1884 0.950 . S
C1889 C1887 1.390 . S
C1889 C1890 1.387 . S
C1889 H1892 0.950 . S
C1890 C1889 1.387 . S
C1890 C1893 1.387 . S
H1891 C1887 0.950 . S
H1892 C1889 0.950 . S
C1893 C1884 1.390 . S
C1893 H1886 0.950 . S
C1893 C1890 1.387 . S
C1894 C1895 1.387 . S
C1894 H1898 0.950 . S
C1894 C1903 1.390 . S
C1895 C1894 1.387 . S
C1895 C1897 1.387 . S
H1896 C1903 0.950 . S
C1897 C1895 1.387 . S
C1897 C1899 1.390 . S
C1897 H1901 0.950 . S
H1898 C1894 0.950 . S
C1899 C1897 1.390 . S
C1899 C1900 1.387 . S
C1899 H1902 0.950 . S
C1900 C1899 1.387 . S
C1900 C1903 1.387 . S
H1901 C1897 0.950 . S
H1902 C1899 0.950 . S
C1903 C1894 1.390 . S
C1903 H1896 0.950 . S
C1903 C1900 1.387 . S
C1904 C1905 1.387 . S
C1904 H1908 0.950 . S
C1904 C1913 1.390 . S
C1905 C1904 1.387 . S
C1905 C1907 1.387 . S
H1906 C1913 0.950 . S
C1907 C1905 1.387 . S
C1907 C1909 1.390 . S
C1907 H1911 0.950 . S
H1908 C1904 0.950 . S
C1909 C1907 1.390 . S
C1909 C1910 1.387 . S
C1909 H1912 0.950 . S
C1910 C1909 1.387 . S
C1910 C1913 1.387 . S
H1911 C1907 0.950 . S
H1912 C1909 0.950 . S
C1913 C1904 1.390 . S
C1913 H1906 0.950 . S
C1913 C1910 1.387 . S
C1914 C1915 1.387 . S
C1914 H1918 0.950 . S
C1914 C1923 1.390 . S
C1915 C1914 1.387 . S
C1915 C1917 1.387 . S
H1916 C1923 0.950 . S
C1917 C1915 1.387 . S
C1917 C1919 1.390 . S
C1917 H1921 0.950 . S
H1918 C1914 0.950 . S
C1919 C1917 1.390 . S
C1919 C1920 1.387 . S
C1919 H1922 0.950 . S
C1920 C1919 1.387 . S
C1920 C1923 1.387 . S
H1921 C1917 0.950 . S
H1922 C1919 0.950 . S
C1923 C1914 1.390 . S
C1923 H1916 0.950 . S
C1923 C1920 1.387 . S
C1924 C1925 1.387 . S
C1924 H1928 0.950 . S
C1924 C1933 1.390 . S
C1925 C1924 1.387 . S
C1925 C1927 1.387 . S
H1926 C1933 0.950 . S
C1927 C1925 1.387 . S
C1927 C1929 1.390 . S
C1927 H1931 0.950 . S
H1928 C1924 0.950 . S
C1929 C1927 1.390 . S
C1929 C1930 1.387 . S
C1929 H1932 0.950 . S
C1930 C1929 1.387 . S
C1930 C1933 1.387 . S
H1931 C1927 0.950 . S
H1932 C1929 0.950 . S
C1933 C1924 1.390 . S
C1933 H1926 0.950 . S
C1933 C1930 1.387 . S
C1934 C1935 1.387 . S
C1934 H1938 0.950 . S
C1934 C1943 1.390 . S
C1935 C1934 1.387 . S
C1935 C1937 1.387 . S
H1936 C1943 0.950 . S
C1937 C1935 1.387 . S
C1937 C1939 1.390 . S
C1937 H1941 0.950 . S
H1938 C1934 0.950 . S
C1939 C1937 1.390 . S
C1939 C1940 1.387 . S
C1939 H1942 0.950 . S
C1940 C1939 1.387 . S
C1940 C1943 1.387 . S
H1941 C1937 0.950 . S
H1942 C1939 0.950 . S
C1943 C1934 1.390 . S
C1943 H1936 0.950 . S
C1943 C1940 1.387 . S
C1405 C469 1.489 . S
C1410 C715 1.407 . S
C1415 C505 1.497 . S
C1420 C799 1.425 . S
C1425 C433 1.526 . S
C1430 C879 1.458 . S
C1435 C397 1.478 . S
C1440 C795 1.418 . S
C1450 C883 1.361 . S
C1445 C325 1.443 . S
C1455 C361 1.475 . S
C1460 C711 1.407 . S
C1470 C704 1.409 . S
C1465 C421 1.490 . S
C1480 C788 1.426 . S
C1475 C349 1.495 . S
C1485 C385 1.526 . S
C1490 C890 1.460 . S
C1495 C493 1.477 . S
C1500 C806 1.419 . S
C1505 C529 1.444 . S
C1510 C872 1.363 . S
C1520 C722 1.406 . S
C1515 C457 1.475 . S
C1530 C967 1.406 . S
C1525 C37 1.488 1_455 S
C1535 C73 1.496 . S
C1540 C1051 1.421 . S
C1545 C1 1.525 1_565 S
C1550 C1131 1.456 . S
C1555 C613 1.478 . S
C1560 C1047 1.417 . S
C1565 C541 1.443 . S
C1570 C1135 1.361 . S
C1575 C577 1.476 . S
C1580 C963 1.409 . S
C1585 C637 1.490 . S
C1590 C956 1.408 . S
C1595 C565 1.496 . S
C1600 C1040 1.422 . S
C1610 C1142 1.459 . S
C1605 C601 1.526 . S
C1615 C61 1.476 1_565 S
C1620 C1058 1.418 . S
C1630 C1124 1.362 . S
C1625 C97 1.444 1_455 S
C1635 C25 1.475 . S
C1640 C974 1.406 . S
C1650 C1219 1.404 . S
C1645 C253 1.488 . S
C1655 C289 1.497 . S
C1660 C1303 1.421 . S
C1670 C1383 1.457 . S
C1665 C217 1.526 . S
C1680 C1299 1.416 . S
C1675 C181 1.477 1_545 S
C1690 C1387 1.365 . S
C1685 C109 1.443 1_655 S
C1695 C145 1.475 . S
C1700 C1215 1.409 . S
C1705 C205 1.490 1_655 S
C1710 C1208 1.408 . S
C1715 C133 1.496 . S
C1720 C1292 1.422 . S
C1730 C1394 1.459 . S
C1725 C169 1.526 1_545 S
C1735 C277 1.476 . S
C1740 C1310 1.417 . S
C1745 C313 1.443 . S
C1750 C1376 1.366 . S
C1755 C241 1.475 . S
C1760 C1226 1.406 . S
C1765 C571 1.474 . S
C1770 C718 1.382 . S
C1780 C802 1.369 . S
C1775 C607 1.520 . S
C1785 C643 1.492 . S
C1790 C874 1.366 . S
C1795 C247 1.520 . S
C1800 C790 1.369 . S
C1805 C283 1.493 . S
C1810 C886 1.365 . S
C1820 C706 1.380 . S
C1815 C319 1.474 . S
C1825 C139 1.474 . S
C1830 C970 1.382 . S
C1835 C175 1.519 . S
C1840 C1054 1.371 . S
C1845 C211 1.493 . S
C1850 C1126 1.365 . S
C1855 C463 1.520 . S
C1860 C1042 1.368 . S
C1870 C1138 1.368 . S
C1865 C499 1.492 . S
C1875 C535 1.476 . S
C1880 C958 1.377 . S
C1885 C355 1.475 . S
C1890 C1222 1.378 . S
C1895 C391 1.520 . S
C1900 C1306 1.369 . S
C1910 C1378 1.363 . S
C1905 C427 1.493 . S
C1915 C31 1.520 . S
C1920 C1294 1.372 . S
C1925 C67 1.493 . S
C1930 C1390 1.364 . S
C1935 C103 1.476 . S
C1940 C1210 1.377 . S
