# Generated by pormake.
# Topology ptr, (4,4)-cn, num edge types: 1
# Building blocks:
#     Node 0, Type 0, BuildingBlock: KUFVIS_clean_sbu_0, # of connection points: 4
#     Node 1, Type 0, BuildingBlock: KUFVIS_clean_sbu_0, # of connection points: 4
#     Node 2, Type 0, BuildingBlock: KUFVIS_clean_sbu_0, # of connection points: 4
#     Node 3, Type 0, BuildingBlock: KUFVIS_clean_sbu_0, # of connection points: 4
#     Node 4, Type 0, BuildingBlock: KUFVIS_clean_sbu_0, # of connection points: 4
#     Node 5, Type 0, BuildingBlock: KUFVIS_clean_sbu_0, # of connection points: 4
#     Node 6, Type 0, BuildingBlock: KUFVIS_clean_sbu_0, # of connection points: 4
#     Node 7, Type 0, BuildingBlock: KUFVIS_clean_sbu_0, # of connection points: 4
#     Node 8, Type 0, BuildingBlock: KUFVIS_clean_sbu_0, # of connection points: 4
#     Node 9, Type 0, BuildingBlock: KUFVIS_clean_sbu_0, # of connection points: 4
#     Node 10, Type 0, BuildingBlock: KUFVIS_clean_sbu_0, # of connection points: 4
#     Node 11, Type 0, BuildingBlock: KUFVIS_clean_sbu_0, # of connection points: 4
#     Node 12, Type 0, BuildingBlock: KUFVIS_clean_sbu_0, # of connection points: 4
#     Node 13, Type 0, BuildingBlock: KUFVIS_clean_sbu_0, # of connection points: 4
#     Node 14, Type 0, BuildingBlock: KUFVIS_clean_sbu_0, # of connection points: 4
#     Node 15, Type 0, BuildingBlock: KUFVIS_clean_sbu_0, # of connection points: 4
#     Node 16, Type 0, BuildingBlock: KUFVIS_clean_sbu_0, # of connection points: 4
#     Node 17, Type 0, BuildingBlock: KUFVIS_clean_sbu_0, # of connection points: 4
#     Node 18, Type 1, BuildingBlock: NAHDIM_clean_linker_0, # of connection points: 4
#     Node 19, Type 1, BuildingBlock: NAHDIM_clean_linker_0, # of connection points: 4
#     Node 20, Type 1, BuildingBlock: NAHDIM_clean_linker_0, # of connection points: 4
#     Node 21, Type 1, BuildingBlock: NAHDIM_clean_linker_0, # of connection points: 4
#     Node 22, Type 1, BuildingBlock: NAHDIM_clean_linker_0, # of connection points: 4
#     Node 23, Type 1, BuildingBlock: NAHDIM_clean_linker_0, # of connection points: 4
#     Node 24, Type 1, BuildingBlock: NAHDIM_clean_linker_0, # of connection points: 4
#     Node 25, Type 1, BuildingBlock: NAHDIM_clean_linker_0, # of connection points: 4
#     Node 26, Type 1, BuildingBlock: NAHDIM_clean_linker_0, # of connection points: 4
#     Node 27, Type 1, BuildingBlock: NAHDIM_clean_linker_0, # of connection points: 4
#     Node 28, Type 1, BuildingBlock: NAHDIM_clean_linker_0, # of connection points: 4
#     Node 29, Type 1, BuildingBlock: NAHDIM_clean_linker_0, # of connection points: 4
#     Node 30, Type 1, BuildingBlock: NAHDIM_clean_linker_0, # of connection points: 4
#     Node 31, Type 1, BuildingBlock: NAHDIM_clean_linker_0, # of connection points: 4
#     Node 32, Type 1, BuildingBlock: NAHDIM_clean_linker_0, # of connection points: 4
#     Node 33, Type 1, BuildingBlock: NAHDIM_clean_linker_0, # of connection points: 4
#     Node 34, Type 1, BuildingBlock: NAHDIM_clean_linker_0, # of connection points: 4
#     Node 35, Type 1, BuildingBlock: NAHDIM_clean_linker_0, # of connection points: 4
#     Edge 36, Type (0, 1), BuildingBlock: CIFDUS_clean_linker_0, # of connection points: 2
#     Edge 37, Type (0, 1), BuildingBlock: CIFDUS_clean_linker_0, # of connection points: 2
#     Edge 38, Type (0, 1), BuildingBlock: CIFDUS_clean_linker_0, # of connection points: 2
#     Edge 39, Type (0, 1), BuildingBlock: CIFDUS_clean_linker_0, # of connection points: 2
#     Edge 40, Type (0, 1), BuildingBlock: CIFDUS_clean_linker_0, # of connection points: 2
#     Edge 41, Type (0, 1), BuildingBlock: CIFDUS_clean_linker_0, # of connection points: 2
#     Edge 42, Type (0, 1), BuildingBlock: CIFDUS_clean_linker_0, # of connection points: 2
#     Edge 43, Type (0, 1), BuildingBlock: CIFDUS_clean_linker_0, # of connection points: 2
#     Edge 44, Type (0, 1), BuildingBlock: CIFDUS_clean_linker_0, # of connection points: 2
#     Edge 45, Type (0, 1), BuildingBlock: CIFDUS_clean_linker_0, # of connection points: 2
#     Edge 46, Type (0, 1), BuildingBlock: CIFDUS_clean_linker_0, # of connection points: 2
#     Edge 47, Type (0, 1), BuildingBlock: CIFDUS_clean_linker_0, # of connection points: 2
#     Edge 48, Type (0, 1), BuildingBlock: CIFDUS_clean_linker_0, # of connection points: 2
#     Edge 49, Type (0, 1), BuildingBlock: CIFDUS_clean_linker_0, # of connection points: 2
#     Edge 50, Type (0, 1), BuildingBlock: CIFDUS_clean_linker_0, # of connection points: 2
#     Edge 51, Type (0, 1), BuildingBlock: CIFDUS_clean_linker_0, # of connection points: 2
#     Edge 52, Type (0, 1), BuildingBlock: CIFDUS_clean_linker_0, # of connection points: 2
#     Edge 53, Type (0, 1), BuildingBlock: CIFDUS_clean_linker_0, # of connection points: 2
#     Edge 54, Type (0, 1), BuildingBlock: CIFDUS_clean_linker_0, # of connection points: 2
#     Edge 55, Type (0, 1), BuildingBlock: CIFDUS_clean_linker_0, # of connection points: 2
#     Edge 56, Type (0, 1), BuildingBlock: CIFDUS_clean_linker_0, # of connection points: 2
#     Edge 57, Type (0, 1), BuildingBlock: CIFDUS_clean_linker_0, # of connection points: 2
#     Edge 58, Type (0, 1), BuildingBlock: CIFDUS_clean_linker_0, # of connection points: 2
#     Edge 59, Type (0, 1), BuildingBlock: CIFDUS_clean_linker_0, # of connection points: 2
#     Edge 60, Type (0, 1), BuildingBlock: CIFDUS_clean_linker_0, # of connection points: 2
#     Edge 61, Type (0, 1), BuildingBlock: CIFDUS_clean_linker_0, # of connection points: 2
#     Edge 62, Type (0, 1), BuildingBlock: CIFDUS_clean_linker_0, # of connection points: 2
#     Edge 63, Type (0, 1), BuildingBlock: CIFDUS_clean_linker_0, # of connection points: 2
#     Edge 64, Type (0, 1), BuildingBlock: CIFDUS_clean_linker_0, # of connection points: 2
#     Edge 65, Type (0, 1), BuildingBlock: CIFDUS_clean_linker_0, # of connection points: 2
#     Edge 66, Type (0, 1), BuildingBlock: CIFDUS_clean_linker_0, # of connection points: 2
#     Edge 67, Type (0, 1), BuildingBlock: CIFDUS_clean_linker_0, # of connection points: 2
#     Edge 68, Type (0, 1), BuildingBlock: CIFDUS_clean_linker_0, # of connection points: 2
#     Edge 69, Type (0, 1), BuildingBlock: CIFDUS_clean_linker_0, # of connection points: 2
#     Edge 70, Type (0, 1), BuildingBlock: CIFDUS_clean_linker_0, # of connection points: 2
#     Edge 71, Type (0, 1), BuildingBlock: CIFDUS_clean_linker_0, # of connection points: 2
#     Edge 72, Type (0, 1), BuildingBlock: CIFDUS_clean_linker_0, # of connection points: 2
#     Edge 73, Type (0, 1), BuildingBlock: CIFDUS_clean_linker_0, # of connection points: 2
#     Edge 74, Type (0, 1), BuildingBlock: CIFDUS_clean_linker_0, # of connection points: 2
#     Edge 75, Type (0, 1), BuildingBlock: CIFDUS_clean_linker_0, # of connection points: 2
#     Edge 76, Type (0, 1), BuildingBlock: CIFDUS_clean_linker_0, # of connection points: 2
#     Edge 77, Type (0, 1), BuildingBlock: CIFDUS_clean_linker_0, # of connection points: 2
#     Edge 78, Type (0, 1), BuildingBlock: CIFDUS_clean_linker_0, # of connection points: 2
#     Edge 79, Type (0, 1), BuildingBlock: CIFDUS_clean_linker_0, # of connection points: 2
#     Edge 80, Type (0, 1), BuildingBlock: CIFDUS_clean_linker_0, # of connection points: 2
#     Edge 81, Type (0, 1), BuildingBlock: CIFDUS_clean_linker_0, # of connection points: 2
#     Edge 82, Type (0, 1), BuildingBlock: CIFDUS_clean_linker_0, # of connection points: 2
#     Edge 83, Type (0, 1), BuildingBlock: CIFDUS_clean_linker_0, # of connection points: 2
#     Edge 84, Type (0, 1), BuildingBlock: CIFDUS_clean_linker_0, # of connection points: 2
#     Edge 85, Type (0, 1), BuildingBlock: CIFDUS_clean_linker_0, # of connection points: 2
#     Edge 86, Type (0, 1), BuildingBlock: CIFDUS_clean_linker_0, # of connection points: 2
#     Edge 87, Type (0, 1), BuildingBlock: CIFDUS_clean_linker_0, # of connection points: 2
#     Edge 88, Type (0, 1), BuildingBlock: CIFDUS_clean_linker_0, # of connection points: 2
#     Edge 89, Type (0, 1), BuildingBlock: CIFDUS_clean_linker_0, # of connection points: 2
#     Edge 90, Type (0, 1), BuildingBlock: CIFDUS_clean_linker_0, # of connection points: 2
#     Edge 91, Type (0, 1), BuildingBlock: CIFDUS_clean_linker_0, # of connection points: 2
#     Edge 92, Type (0, 1), BuildingBlock: CIFDUS_clean_linker_0, # of connection points: 2
#     Edge 93, Type (0, 1), BuildingBlock: CIFDUS_clean_linker_0, # of connection points: 2
#     Edge 94, Type (0, 1), BuildingBlock: CIFDUS_clean_linker_0, # of connection points: 2
#     Edge 95, Type (0, 1), BuildingBlock: CIFDUS_clean_linker_0, # of connection points: 2
#     Edge 96, Type (0, 1), BuildingBlock: CIFDUS_clean_linker_0, # of connection points: 2
#     Edge 97, Type (0, 1), BuildingBlock: CIFDUS_clean_linker_0, # of connection points: 2
#     Edge 98, Type (0, 1), BuildingBlock: CIFDUS_clean_linker_0, # of connection points: 2
#     Edge 99, Type (0, 1), BuildingBlock: CIFDUS_clean_linker_0, # of connection points: 2
#     Edge 100, Type (0, 1), BuildingBlock: CIFDUS_clean_linker_0, # of connection points: 2
#     Edge 101, Type (0, 1), BuildingBlock: CIFDUS_clean_linker_0, # of connection points: 2
#     Edge 102, Type (0, 1), BuildingBlock: CIFDUS_clean_linker_0, # of connection points: 2
#     Edge 103, Type (0, 1), BuildingBlock: CIFDUS_clean_linker_0, # of connection points: 2
#     Edge 104, Type (0, 1), BuildingBlock: CIFDUS_clean_linker_0, # of connection points: 2
#     Edge 105, Type (0, 1), BuildingBlock: CIFDUS_clean_linker_0, # of connection points: 2
#     Edge 106, Type (0, 1), BuildingBlock: CIFDUS_clean_linker_0, # of connection points: 2
#     Edge 107, Type (0, 1), BuildingBlock: CIFDUS_clean_linker_0, # of connection points: 2
# Relax obj value: 0.038
# Max RMSD: 0.204
# Mean RMSD: 0.072
data_MOF--net-ptr--node1-KUFVIS_clean_sbu_0--node2-NAHDIM_clean_linker_0--edge1-CIFDUS_clean_linker_0
_symmetry_space_group_name_H-M    P1
_symmetry_Int_Tables_number       1
_symmetry_cell_setting            triclinic
loop_
_symmetry_equiv_pos_as_xyz
'x, y, z'
_cell_length_a     85.928014
_cell_length_b     85.046771
_cell_length_c     73.119832
_cell_angle_alpha  90.545175
_cell_angle_beta   91.118223
_cell_angle_gamma 119.52914
loop_
_atom_site_label
_atom_site_type_symbol
_atom_site_fract_x
_atom_site_fract_y
_atom_site_fract_z
_atom_type_partial_charge
Mn0 Mn 1.00016 0.33301 0.99767 0.0
Mn1 Mn 0.03761 0.3738 0.99795 0.0
C2 C 0.0026 0.35412 0.97677 0.0
C3 C 0.98482 0.30266 0.98877 0.0
C4 C 0.00835 0.36312 0.02561 0.0
O5 O 0.01797 0.32923 0.0129 0.0
O6 O 0.04307 0.35592 0.0097 0.0
C7 C 0.05948 0.36563 0.97291 0.0
N8 N 0.05164 0.37567 0.97727 0.0
C9 C 0.06326 0.39379 0.9506 0.0
C10 C 0.07156 0.38372 0.94589 0.0
C11 C 0.06963 0.36956 0.95708 0.0
C12 C 0.05341 0.38932 0.96661 0.0
H13 H 0.05798 0.35469 0.98144 0.0
C14 C 0.03479 0.33961 0.01529 0.0
O15 O 0.98063 0.30844 0.00333 0.0
O16 O 0.99804 0.31452 0.97944 0.0
N17 N 0.03432 0.39226 0.98677 0.0
C18 C 0.0246 0.39996 0.99264 0.0
C19 C 0.02458 0.41394 0.98259 0.0
C20 C 0.03466 0.41997 0.96673 0.0
C21 C 0.04473 0.412 0.96107 0.0
C22 C 0.04431 0.39818 0.97169 0.0
H23 H 0.0168 0.39538 0.0048 0.0
O24 O 0.98701 0.34073 0.98058 0.0
O25 O 0.01637 0.35452 0.98501 0.0
O26 O 0.99762 0.34767 0.01847 0.0
O27 O 0.02391 0.37352 0.01953 0.0
C28 C 0.05483 0.41694 0.94509 0.0
C29 C 0.06408 0.40783 0.93985 0.0
H30 H 0.07932 0.38664 0.93364 0.0
H31 H 0.07592 0.36167 0.95349 0.0
H32 H 0.01675 0.42 0.98703 0.0
H33 H 0.03446 0.43063 0.95891 0.0
H34 H 0.05536 0.42753 0.93658 0.0
H35 H 0.07159 0.41158 0.9274 0.0
Mn36 Mn 0.65478 0.65723 0.02967 0.0
Mn37 Mn 0.65449 0.61799 0.02139 0.0
C38 C 0.63896 0.63289 0.04827 0.0
C39 C 0.66795 0.68578 0.04359 0.0
C40 C 0.63315 0.63087 0.99859 0.0
O41 O 0.67568 0.6645 0.01267 0.0
O42 O 0.67616 0.63825 0.01084 0.0
C43 C 0.68614 0.62419 0.04381 0.0
N44 N 0.66834 0.61405 0.03965 0.0
C45 C 0.66472 0.59233 0.06241 0.0
C46 C 0.68306 0.60248 0.06685 0.0
C47 C 0.6938 0.6185 0.05754 0.0
C48 C 0.65787 0.59861 0.04851 0.0
H49 H 0.69443 0.63655 0.03673 0.0
C50 C 0.68277 0.6551 0.00753 0.0
O51 O 0.65734 0.68181 0.02932 0.0
O52 O 0.67131 0.67338 0.04941 0.0
N53 N 0.6343 0.59739 0.03115 0.0
C54 C 0.61667 0.58992 0.02616 0.0
C55 C 0.60399 0.57423 0.03477 0.0
C56 C 0.60958 0.56633 0.0483 0.0
C57 C 0.62781 0.57417 0.05309 0.0
C58 C 0.63984 0.58975 0.04398 0.0
H59 H 0.61229 0.59595 0.0158 0.0
O60 O 0.63517 0.64587 0.04756 0.0
O61 O 0.65201 0.63464 0.03822 0.0
O62 O 0.63692 0.64489 0.0083 0.0
O63 O 0.63956 0.62044 0.00195 0.0
C64 C 0.63447 0.5674 0.06685 0.0
C65 C 0.65291 0.57647 0.07151 0.0
H66 H 0.68899 0.5982 0.07752 0.0
H67 H 0.70794 0.62645 0.06096 0.0
H68 H 0.58994 0.56829 0.03104 0.0
H69 H 0.59974 0.55434 0.05504 0.0
H70 H 0.62547 0.5554 0.07416 0.0
H71 H 0.65782 0.5713 0.08232 0.0
Mn72 Mn 0.33348 0.9932 0.01525 0.0
Mn73 Mn 0.37171 0.03328 0.01502 0.0
C74 C 0.35616 0.99878 0.0361 0.0
C75 C 0.30407 0.97639 0.02461 0.0
C76 C 0.36241 0.00298 0.98715 0.0
O77 O 0.32698 0.00896 0.99982 0.0
O78 O 0.35201 0.03597 0.00332 0.0
C79 C 0.36197 0.05422 0.04031 0.0
N80 N 0.37312 0.04776 0.03579 0.0
C81 C 0.39204 0.06215 0.06238 0.0
C82 C 0.38084 0.06906 0.06726 0.0
C83 C 0.36572 0.06504 0.0562 0.0
C84 C 0.38768 0.05152 0.04634 0.0
H85 H 0.35031 0.0511 0.03188 0.0
C86 C 0.33583 0.02596 0.99745 0.0
O87 O 0.30945 0.97174 0.01009 0.0
O88 O 0.31577 0.99074 0.03359 0.0
N89 N 0.39184 0.03276 0.02604 0.0
C90 C 0.40068 0.02418 0.01999 0.0
C91 C 0.4158 0.0263 0.02986 0.0
C92 C 0.42177 0.03734 0.04574 0.0
C93 C 0.4126 0.04621 0.05156 0.0
C94 C 0.39768 0.04367 0.04111 0.0
H95 H 0.39616 0.01568 0.0078 0.0
O96 O 0.34366 0.98234 0.03241 0.0
O97 O 0.35473 0.01152 0.02781 0.0
O98 O 0.34795 0.9912 0.99431 0.0
O99 O 0.37172 0.01918 0.9934 0.0
C100 C 0.41744 0.05715 0.06756 0.0
C101 C 0.40715 0.06509 0.07298 0.0
H102 H 0.38362 0.07732 0.07955 0.0
H103 H 0.35696 0.07024 0.05993 0.0
H104 H 0.42279 0.01938 0.0253 0.0
H105 H 0.43332 0.03877 0.05343 0.0
H106 H 0.42888 0.0593 0.07596 0.0
H107 H 0.41085 0.07324 0.08545 0.0
Mn108 Mn 0.9966 0.66702 0.00418 0.0
Mn109 Mn 0.03568 0.6669 0.00819 0.0
C110 C 0.00275 0.65009 0.98378 0.0
C111 C 0.98081 0.68095 0.99336 0.0
C112 C 0.00453 0.64656 0.03342 0.0
O113 O 0.012 0.68864 0.02099 0.0
O114 O 0.03868 0.68975 0.01926 0.0
C115 C 0.05811 0.69716 0.98413 0.0
N116 N 0.0509 0.67943 0.98848 0.0
C117 C 0.06531 0.67378 0.96337 0.0
C118 C 0.07301 0.69202 0.95871 0.0
C119 C 0.06935 0.70374 0.96912 0.0
C120 C 0.05431 0.66802 0.97856 0.0
H121 H 0.05526 0.70619 0.99202 0.0
C122 C 0.02885 0.69641 0.02422 0.0
O123 O 0.97549 0.67047 0.00738 0.0
O124 O 0.99524 0.68328 0.98566 0.0
N125 N 0.03456 0.64563 0.99767 0.0
C126 C 0.02517 0.62821 0.00323 0.0
C127 C 0.02678 0.61464 0.99381 0.0
C128 C 0.03809 0.61913 0.97884 0.0
C129 C 0.04774 0.63716 0.97346 0.0
C130 C 0.04569 0.65013 0.98345 0.0
H131 H 0.01643 0.62465 0.01471 0.0
O132 O 0.98638 0.64656 0.98587 0.0
O133 O 0.01496 0.66359 0.99345 0.0
O134 O 0.99332 0.64968 0.02482 0.0
O135 O 0.02085 0.65322 0.02892 0.0
C136 C 0.05901 0.64272 0.95833 0.0
C137 C 0.06779 0.66102 0.95329 0.0
H138 H 0.08159 0.69712 0.94707 0.0
H139 H 0.07516 0.71781 0.96554 0.0
H140 H 0.01926 0.60075 0.99801 0.0
H141 H 0.03915 0.60859 0.97148 0.0
H142 H 0.0608 0.63299 0.95031 0.0
H143 H 0.0762 0.66507 0.94147 0.0
Mn144 Mn 0.346 0.35863 0.01129 0.0
Mn145 Mn 0.38377 0.35609 0.00679 0.0
C146 C 0.36888 0.37227 0.03297 0.0
C147 C 0.31664 0.34658 0.02085 0.0
C148 C 0.37525 0.38079 0.98428 0.0
O149 O 0.33865 0.33803 0.99274 0.0
O150 O 0.36396 0.33618 0.99217 0.0
C151 C 0.37288 0.32173 0.02569 0.0
N152 N 0.3844 0.33975 0.02414 0.0
C153 C 0.40292 0.33959 0.04918 0.0
C154 C 0.39131 0.32101 0.05098 0.0
C155 C 0.3762 0.31205 0.03922 0.0
C156 C 0.39894 0.34851 0.03543 0.0
H157 H 0.36126 0.31481 0.01667 0.0
C158 C 0.34764 0.33069 0.98726 0.0
O159 O 0.32275 0.35804 0.00769 0.0
O160 O 0.32759 0.34201 0.02843 0.0
N161 N 0.40396 0.37449 0.02031 0.0
C162 C 0.41321 0.39261 0.01746 0.0
C163 C 0.42833 0.40368 0.02856 0.0
C164 C 0.43388 0.39598 0.04235 0.0
C165 C 0.42426 0.37726 0.04489 0.0
C166 C 0.40934 0.36691 0.03336 0.0
H167 H 0.40901 0.3986 0.00687 0.0
O168 O 0.35705 0.37748 0.03117 0.0
O169 O 0.36686 0.35914 0.02213 0.0
O170 O 0.36072 0.37708 0.99207 0.0
O171 O 0.38467 0.37346 0.9885 0.0
C172 C 0.42872 0.36852 0.0586 0.0
C173 C 0.41808 0.34969 0.06072 0.0
H174 H 0.39377 0.31351 0.06146 0.0
H175 H 0.36713 0.29773 0.04059 0.0
H176 H 0.43568 0.41811 0.02652 0.0
H177 H 0.44547 0.40458 0.05097 0.0
H178 H 0.44015 0.37618 0.06776 0.0
H179 H 0.42148 0.34316 0.0715 0.0
Mn180 Mn 0.6606 0.99959 0.01354 0.0
Mn181 Mn 0.62278 0.95908 0.01279 0.0
C182 C 0.63664 0.9954 0.99525 0.0
C183 C 0.68942 0.01779 0.00304 0.0
C184 C 0.63355 0.98678 0.04387 0.0
O185 O 0.66817 0.98283 0.02557 0.0
O186 O 0.64338 0.9559 0.02048 0.0
C187 C 0.63077 0.94111 0.98244 0.0
N188 N 0.61986 0.94662 0.99 0.0
C189 C 0.59832 0.93319 0.96511 0.0
C190 C 0.60927 0.92727 0.9571 0.0
C191 C 0.62561 0.93132 0.96576 0.0
C192 C 0.60422 0.94299 0.98168 0.0
H193 H 0.64331 0.94416 0.9891 0.0
C194 C 0.65974 0.9656 0.02591 0.0
O195 O 0.68467 0.02086 0.01884 0.0
O196 O 0.67743 0.00413 0.9934 0.0
N197 N 0.60168 0.9599 0.00545 0.0
C198 C 0.59307 0.96732 0.01454 0.0
C199 C 0.57677 0.96501 0.00736 0.0
C200 C 0.56936 0.95487 0.9911 0.0
C201 C 0.5783 0.9471 0.98216 0.0
C202 C 0.59452 0.94989 0.98994 0.0
H203 H 0.59861 0.97499 0.02712 0.0
O204 O 0.64932 0.01158 0.99959 0.0
O205 O 0.63867 0.98212 0.0012 0.0
O206 O 0.64722 0.9995 0.03644 0.0
O207 O 0.62427 0.97098 0.03665 0.0
C208 C 0.57188 0.93691 0.96572 0.0
C209 C 0.58189 0.92997 0.95719 0.0
H210 H 0.60534 0.91971 0.94424 0.0
H211 H 0.63417 0.92687 0.95962 0.0
H212 H 0.56994 0.97102 0.01436 0.0
H213 H 0.55684 0.95321 0.98555 0.0
H214 H 0.55941 0.93456 0.95936 0.0
H215 H 0.57696 0.92241 0.94439 0.0
Mn216 Mn 0.66823 0.67373 0.33884 0.0
Mn217 Mn 0.70636 0.71219 0.35011 0.0
C218 C 0.67827 0.69824 0.31997 0.0
C219 C 0.65392 0.6452 0.32482 0.0
C220 C 0.67105 0.70052 0.36855 0.0
O221 O 0.68009 0.66575 0.3582 0.0
O222 O 0.70636 0.69152 0.36264 0.0
C223 C 0.73259 0.7045 0.33232 0.0
N224 N 0.72513 0.71527 0.33443 0.0
C225 C 0.74503 0.73645 0.31282 0.0
C226 C 0.75301 0.72564 0.3105 0.0
C227 C 0.74674 0.70958 0.32027 0.0
C228 C 0.73107 0.73076 0.32512 0.0
H229 H 0.72777 0.69212 0.33977 0.0
C230 C 0.69576 0.67471 0.36551 0.0
O231 O 0.64631 0.64943 0.33764 0.0
O232 O 0.6699 0.65735 0.32043 0.0
N233 N 0.70812 0.7332 0.33882 0.0
C234 C 0.69813 0.74138 0.34164 0.0
C235 C 0.70216 0.75724 0.33229 0.0
C236 C 0.7165 0.76459 0.32027 0.0
C237 C 0.72669 0.75602 0.31774 0.0
C238 C 0.7221 0.7403 0.3275 0.0
H239 H 0.68707 0.73578 0.35083 0.0
O240 O 0.66165 0.68558 0.31912 0.0
O241 O 0.68861 0.69604 0.33167 0.0
O242 O 0.66147 0.68653 0.3585 0.0
O243 O 0.6879 0.71055 0.36684 0.0
C244 C 0.74095 0.7622 0.30557 0.0
C245 C 0.75011 0.75242 0.3031 0.0
H246 H 0.76385 0.72946 0.30112 0.0
H247 H 0.75277 0.70113 0.31848 0.0
H248 H 0.6942 0.76374 0.33427 0.0
H249 H 0.71945 0.77671 0.31294 0.0
H250 H 0.74478 0.77429 0.2978 0.0
H251 H 0.76085 0.75716 0.29349 0.0
Mn252 Mn 0.31566 0.99069 0.36182 0.0
Mn253 Mn 0.31301 0.95048 0.35219 0.0
C254 C 0.29917 0.96629 0.38013 0.0
C255 C 0.32993 0.01918 0.37597 0.0
C256 C 0.29215 0.96493 0.33101 0.0
O257 O 0.33599 0.99729 0.34423 0.0
O258 O 0.33459 0.97024 0.34092 0.0
C259 C 0.3451 0.95544 0.37294 0.0
N260 N 0.32713 0.9458 0.36945 0.0
C261 C 0.32373 0.92329 0.39113 0.0
C262 C 0.34222 0.93292 0.3949 0.0
C263 C 0.35294 0.94909 0.38581 0.0
C264 C 0.31668 0.93028 0.37819 0.0
H265 H 0.35337 0.96785 0.36595 0.0
C266 C 0.34195 0.98724 0.33801 0.0
O267 O 0.3192 0.01563 0.36189 0.0
O268 O 0.33288 0.00639 0.38147 0.0
N269 N 0.29287 0.93015 0.36236 0.0
C270 C 0.27515 0.92309 0.35797 0.0
C271 C 0.26253 0.90727 0.36643 0.0
C272 C 0.26826 0.89877 0.37913 0.0
C273 C 0.28658 0.90615 0.38323 0.0
C274 C 0.29854 0.92194 0.37437 0.0
H275 H 0.27067 0.92952 0.34818 0.0
O276 O 0.29632 0.97991 0.37998 0.0
O277 O 0.31187 0.96746 0.36981 0.0
O278 O 0.29723 0.9792 0.34079 0.0
O279 O 0.29769 0.95368 0.33377 0.0
C280 C 0.29342 0.89865 0.39601 0.0
C281 C 0.31199 0.9072 0.39994 0.0
H282 H 0.34831 0.9281 0.40485 0.0
H283 H 0.3672 0.95664 0.38869 0.0
H284 H 0.24841 0.90166 0.36319 0.0
H285 H 0.25848 0.88664 0.38572 0.0
H286 H 0.2845 0.88648 0.40312 0.0
H287 H 0.31706 0.90147 0.41002 0.0
Mn288 Mn 0.01498 0.32928 0.34337 0.0
Mn289 Mn 0.05564 0.36692 0.34624 0.0
C290 C 0.03411 0.33374 0.36798 0.0
C291 C 0.98439 0.3142 0.34892 0.0
C292 C 0.04711 0.33486 0.32113 0.0
O293 O 0.01248 0.34604 0.32524 0.0
O294 O 0.03935 0.37099 0.32981 0.0
C295 C 0.04545 0.39126 0.36525 0.0
N296 N 0.05574 0.3832 0.36449 0.0
C297 C 0.07178 0.3985 0.39227 0.0
C298 C 0.06143 0.40706 0.39328 0.0
C299 C 0.04817 0.40338 0.37974 0.0
C300 C 0.06846 0.38656 0.3775 0.0
H301 H 0.03525 0.38847 0.35487 0.0
C302 C 0.02363 0.36262 0.32238 0.0
O303 O 0.99097 0.30885 0.336 0.0
O304 O 0.99553 0.32858 0.35828 0.0
N305 N 0.07281 0.36512 0.36189 0.0
C306 C 0.08103 0.35508 0.35941 0.0
C307 C 0.09439 0.35688 0.372 0.0
C308 C 0.0993 0.3691 0.38689 0.0
C309 C 0.0908 0.37943 0.38905 0.0
C310 C 0.07763 0.37713 0.37602 0.0
H311 H 0.07732 0.34565 0.34802 0.0
O312 O 0.02129 0.31762 0.36362 0.0
O313 O 0.03529 0.34679 0.35793 0.0
O314 O 0.03094 0.32496 0.32587 0.0
O315 O 0.05715 0.35088 0.32751 0.0
C316 C 0.0946 0.39165 0.40384 0.0
C317 C 0.08506 0.40114 0.40547 0.0
H318 H 0.06345 0.41638 0.40446 0.0
H319 H 0.04007 0.40987 0.38048 0.0
H320 H 0.10085 0.3488 0.37027 0.0
H321 H 0.10947 0.3703 0.39669 0.0
H322 H 0.10464 0.39364 0.41418 0.0
H323 H 0.08793 0.4103 0.41704 0.0
Mn324 Mn 0.65786 0.9807 0.3354 0.0
Mn325 Mn 0.69722 0.98233 0.34454 0.0
C326 C 0.66717 0.9652 0.31655 0.0
C327 C 0.64179 0.9936 0.32283 0.0
C328 C 0.66372 0.96048 0.36633 0.0
O329 O 0.67086 0.00212 0.35321 0.0
O330 O 0.69825 0.00466 0.35464 0.0
C331 C 0.72151 0.01334 0.32219 0.0
N332 N 0.71436 0.99559 0.32647 0.0
C333 C 0.73231 0.99123 0.30431 0.0
C334 C 0.73998 0.0095 0.29979 0.0
C335 C 0.73451 0.02058 0.30873 0.0
C336 C 0.71946 0.98479 0.31789 0.0
H337 H 0.71728 0.02188 0.32896 0.0
C338 C 0.68743 0.01059 0.35799 0.0
O339 O 0.63579 0.98257 0.33635 0.0
O340 O 0.65712 0.99701 0.31643 0.0
N341 N 0.69794 0.96164 0.33503 0.0
C342 C 0.68832 0.94405 0.34003 0.0
C343 C 0.69154 0.93102 0.3317 0.0
C344 C 0.70468 0.9362 0.31842 0.0
C345 C 0.71449 0.95439 0.31358 0.0
C346 C 0.71076 0.9668 0.32241 0.0
H347 H 0.67821 0.93996 0.35023 0.0
O348 O 0.6504 0.96081 0.31665 0.0
O349 O 0.67792 0.97868 0.32722 0.0
O350 O 0.6532 0.96307 0.35593 0.0
O351 O 0.68056 0.96794 0.36393 0.0
C352 C 0.72761 0.96064 0.30012 0.0
C353 C 0.73655 0.97905 0.29552 0.0
H354 H 0.74992 0.0151 0.28933 0.0
H355 H 0.74027 0.03466 0.30522 0.0
H356 H 0.68389 0.917 0.33549 0.0
H357 H 0.70703 0.92608 0.31193 0.0
H358 H 0.73075 0.95135 0.29302 0.0
H359 H 0.74639 0.98363 0.28493 0.0
Mn360 Mn 0.00857 0.69402 0.35169 0.0
Mn361 Mn 0.04855 0.69662 0.34505 0.0
C362 C 0.03156 0.7091 0.37298 0.0
C363 C 0.97915 0.6785 0.36139 0.0
C364 C 0.03542 0.71864 0.32409 0.0
O365 O 0.00309 0.67451 0.33229 0.0
O366 O 0.02961 0.67514 0.33136 0.0
C367 C 0.04316 0.66367 0.36379 0.0
N368 N 0.05259 0.68193 0.36197 0.0
C369 C 0.07389 0.68485 0.3855 0.0
C370 C 0.06445 0.66606 0.38757 0.0
C371 C 0.04898 0.65544 0.37671 0.0
C372 C 0.06745 0.69229 0.37239 0.0
H373 H 0.03129 0.65546 0.35542 0.0
C374 C 0.01301 0.66827 0.32672 0.0
O375 O 0.9841 0.69055 0.34881 0.0
O376 O 0.99139 0.67548 0.36852 0.0
N377 N 0.06798 0.71671 0.35774 0.0
C378 C 0.07485 0.73471 0.35487 0.0
C379 C 0.08991 0.74727 0.36524 0.0
C380 C 0.09782 0.74119 0.37831 0.0
C381 C 0.09061 0.7226 0.3809 0.0
C382 C 0.07561 0.71072 0.37015 0.0
H383 H 0.06885 0.73946 0.34482 0.0
O384 O 0.01827 0.71231 0.37217 0.0
O385 O 0.03083 0.69695 0.3615 0.0
O386 O 0.02127 0.71373 0.33306 0.0
O387 O 0.04613 0.71251 0.32694 0.0
C388 C 0.09752 0.71539 0.39394 0.0
C389 C 0.0892 0.69653 0.3962 0.0
H390 H 0.06885 0.65967 0.39758 0.0
H391 H 0.04158 0.64094 0.37828 0.0
H392 H 0.09538 0.7616 0.36317 0.0
H393 H 0.10935 0.75093 0.38636 0.0
H394 H 0.10908 0.72425 0.40249 0.0
H395 H 0.09448 0.69117 0.40646 0.0
Mn396 Mn 0.32472 0.33858 0.35118 0.0
Mn397 Mn 0.28518 0.29973 0.35122 0.0
C398 C 0.30185 0.33507 0.33159 0.0
C399 C 0.3541 0.35505 0.34158 0.0
C400 C 0.29711 0.32915 0.38065 0.0
O401 O 0.33044 0.3212 0.36475 0.0
O402 O 0.30442 0.29513 0.36075 0.0
C403 C 0.29189 0.27839 0.32342 0.0
N404 N 0.2819 0.28571 0.32944 0.0
C405 C 0.26132 0.2729 0.30369 0.0
C406 C 0.27132 0.26511 0.29728 0.0
C407 C 0.2867 0.26792 0.30717 0.0
C408 C 0.26711 0.28315 0.32001 0.0
H409 H 0.30374 0.28054 0.33096 0.0
C410 C 0.3209 0.30409 0.36607 0.0
O411 O 0.34911 0.359 0.35678 0.0
O412 O 0.34199 0.34145 0.33195 0.0
N413 N 0.26549 0.30219 0.34203 0.0
C414 C 0.25803 0.31163 0.3494 0.0
C415 C 0.24298 0.31092 0.34071 0.0
C416 C 0.23565 0.30041 0.32464 0.0
C417 C 0.24343 0.29066 0.31741 0.0
C418 C 0.25839 0.29184 0.3267 0.0
H419 H 0.26359 0.31973 0.36175 0.0
O420 O 0.31504 0.35107 0.33568 0.0
O421 O 0.30268 0.32152 0.33871 0.0
O422 O 0.31143 0.34059 0.37312 0.0
O423 O 0.28689 0.31322 0.37413 0.0
C424 C 0.23715 0.28012 0.30116 0.0
C425 C 0.24607 0.27121 0.29432 0.0
H426 H 0.26741 0.25711 0.2847 0.0
H427 H 0.29454 0.26204 0.30226 0.0
H428 H 0.23705 0.3185 0.34636 0.0
H429 H 0.22412 0.30001 0.3179 0.0
H430 H 0.22564 0.27899 0.29365 0.0
H431 H 0.24128 0.26338 0.28166 0.0
Mn432 Mn 0.32653 0.01037 0.66714 0.0
Mn433 Mn 0.36408 0.0509 0.67187 0.0
C434 C 0.33056 0.03352 0.64821 0.0
C435 C 0.31197 0.98099 0.65517 0.0
C436 C 0.3331 0.03763 0.69779 0.0
O437 O 0.3433 0.00505 0.68247 0.0
O438 O 0.3687 0.0319 0.68205 0.0
C439 C 0.38759 0.04523 0.6468 0.0
N440 N 0.37953 0.05486 0.65191 0.0
C441 C 0.3938 0.07627 0.62811 0.0
C442 C 0.40236 0.06666 0.62267 0.0
C443 C 0.39919 0.05103 0.63202 0.0
C444 C 0.38239 0.06984 0.64294 0.0
H445 H 0.38519 0.03322 0.65396 0.0
C446 C 0.35996 0.01515 0.68614 0.0
O447 O 0.30674 0.98515 0.6701 0.0
O448 O 0.32564 0.99385 0.64725 0.0
N449 N 0.3616 0.07049 0.6624 0.0
C450 C 0.35139 0.07751 0.66859 0.0
C451 C 0.35235 0.09271 0.66013 0.0
C452 C 0.36392 0.10064 0.64555 0.0
C453 C 0.37443 0.0933 0.63955 0.0
C454 C 0.37292 0.07814 0.64851 0.0
H455 H 0.34252 0.07152 0.67982 0.0
O456 O 0.31466 0.01991 0.65041 0.0
O457 O 0.34363 0.03298 0.65691 0.0
O458 O 0.32263 0.02299 0.68906 0.0
O459 O 0.34904 0.0485 0.69297 0.0
C460 C 0.38613 0.10023 0.62484 0.0
C461 C 0.39584 0.09175 0.61915 0.0
H462 H 0.41126 0.07104 0.61123 0.0
H463 H 0.40567 0.04348 0.62784 0.0
H464 H 0.34419 0.0983 0.66484 0.0
H465 H 0.36454 0.1123 0.639 0.0
H466 H 0.38754 0.11191 0.61762 0.0
H467 H 0.40457 0.09703 0.60763 0.0
Mn468 Mn 0.98534 0.31764 0.68431 0.0
Mn469 Mn 0.98301 0.27789 0.67332 0.0
C470 C 0.96761 0.2923 0.70096 0.0
C471 C 0.99916 0.34525 0.70011 0.0
C472 C 0.9639 0.2939 0.65152 0.0
O473 O 0.00675 0.32502 0.66802 0.0
O474 O 0.00564 0.29813 0.66429 0.0
C475 C 0.01321 0.28092 0.69621 0.0
N476 N 0.99552 0.27179 0.69125 0.0
C477 C 0.98999 0.24788 0.71197 0.0
C478 C 0.00818 0.25696 0.7172 0.0
C479 C 0.01982 0.27358 0.70934 0.0
C480 C 0.98418 0.25584 0.69881 0.0
H481 H 0.0222 0.29371 0.6902 0.0
C482 C 0.01324 0.31528 0.66225 0.0
O483 O 0.98923 0.34273 0.68556 0.0
O484 O 0.00149 0.33197 0.70518 0.0
N485 N 0.96187 0.25721 0.68152 0.0
C486 C 0.94453 0.25084 0.67594 0.0
C487 C 0.93104 0.23475 0.6832 0.0
C488 C 0.93553 0.22529 0.69596 0.0
C489 C 0.95349 0.23201 0.70135 0.0
C490 C 0.96636 0.24809 0.69363 0.0
H491 H 0.94099 0.25803 0.66612 0.0
O492 O 0.96488 0.306 0.70115 0.0
O493 O 0.98086 0.29396 0.69128 0.0
O494 O 0.96817 0.30749 0.66212 0.0
O495 O 0.96934 0.28255 0.65412 0.0
C496 C 0.95909 0.22355 0.71433 0.0
C497 C 0.97733 0.23146 0.7196 0.0
H498 H 0.01331 0.25139 0.72739 0.0
H499 H 0.03385 0.28072 0.71338 0.0
H500 H 0.91721 0.22966 0.67898 0.0
H501 H 0.92507 0.21295 0.70162 0.0
H502 H 0.94943 0.21111 0.72056 0.0
H503 H 0.98142 0.22499 0.72982 0.0
Mn504 Mn 0.67663 0.66358 0.68325 0.0
Mn505 Mn 0.71443 0.70242 0.67433 0.0
C506 C 0.70227 0.67229 0.70112 0.0
C507 C 0.6488 0.64801 0.69675 0.0
C508 C 0.70095 0.66788 0.6516 0.0
O509 O 0.66776 0.67698 0.66672 0.0
O510 O 0.6933 0.7035 0.66467 0.0
C511 C 0.70893 0.72785 0.69761 0.0
N512 N 0.71918 0.72045 0.69271 0.0
C513 C 0.74315 0.74062 0.71325 0.0
C514 C 0.73289 0.74852 0.71847 0.0
C515 C 0.71565 0.74202 0.7107 0.0
C516 C 0.73563 0.72636 0.70036 0.0
H517 H 0.69576 0.72301 0.69151 0.0
C518 C 0.67645 0.69338 0.66172 0.0
O519 O 0.65262 0.64167 0.68236 0.0
O520 O 0.66117 0.66354 0.70333 0.0
N521 N 0.73612 0.70355 0.68299 0.0
C522 C 0.74412 0.69417 0.6768 0.0
C523 C 0.76126 0.69868 0.68358 0.0
C524 C 0.77014 0.71301 0.69636 0.0
C525 C 0.7618 0.72269 0.70224 0.0
C526 C 0.74466 0.7175 0.69511 0.0
H527 H 0.73749 0.68334 0.66677 0.0
O528 O 0.68949 0.65559 0.70069 0.0
O529 O 0.69951 0.68349 0.69146 0.0
O530 O 0.68782 0.65793 0.66157 0.0
O531 O 0.71113 0.68479 0.6547 0.0
C532 C 0.76982 0.73731 0.7149 0.0
C533 C 0.76049 0.74625 0.72042 0.0
H534 H 0.73806 0.75952 0.72848 0.0
H535 H 0.70763 0.74801 0.71469 0.0
H536 H 0.76764 0.6912 0.67891 0.0
H537 H 0.78336 0.71645 0.70155 0.0
H538 H 0.78306 0.74163 0.72066 0.0
H539 H 0.76669 0.7573 0.73037 0.0
Mn540 Mn 0.3236 0.32312 0.66961 0.0
Mn541 Mn 0.36542 0.32981 0.67503 0.0
C542 C 0.33481 0.3121 0.64758 0.0
C543 C 0.30488 0.33446 0.66092 0.0
C544 C 0.3338 0.3029 0.6968 0.0
O545 O 0.33507 0.34265 0.68957 0.0
O546 O 0.36398 0.34967 0.68815 0.0
C547 C 0.38589 0.36357 0.65468 0.0
N548 N 0.38092 0.34588 0.65719 0.0
C549 C 0.39923 0.34612 0.63259 0.0
C550 C 0.40465 0.36438 0.62983 0.0
C551 C 0.39791 0.37312 0.64089 0.0
C552 C 0.38728 0.33732 0.64659 0.0
H553 H 0.38068 0.37032 0.66311 0.0
C554 C 0.35162 0.35264 0.69389 0.0
O555 O 0.30014 0.32189 0.67296 0.0
O556 O 0.32036 0.34016 0.65362 0.0
N557 N 0.36857 0.31161 0.66274 0.0
C558 C 0.36118 0.29371 0.66644 0.0
C559 C 0.36604 0.28285 0.65615 0.0
C560 C 0.37853 0.29052 0.64227 0.0
C561 C 0.38606 0.30901 0.63881 0.0
C562 C 0.38078 0.31918 0.64957 0.0
H563 H 0.35161 0.28772 0.67711 0.0
O564 O 0.31766 0.30574 0.64849 0.0
O565 O 0.34474 0.32495 0.65927 0.0
O566 O 0.32172 0.30412 0.68758 0.0
O567 O 0.35052 0.3127 0.69394 0.0
C568 C 0.39834 0.31766 0.62486 0.0
C569 C 0.40491 0.3362 0.62175 0.0
H570 H 0.41384 0.37177 0.61915 0.0
H571 H 0.40195 0.38719 0.63877 0.0
H572 H 0.36014 0.26858 0.65888 0.0
H573 H 0.38211 0.28206 0.63425 0.0
H574 H 0.4026 0.31012 0.61626 0.0
H575 H 0.41413 0.34263 0.6108 0.0
Mn576 Mn 0.68045 0.01844 0.66338 0.0
Mn577 Mn 0.71557 0.01114 0.6615 0.0
C578 C 0.70475 0.03407 0.68314 0.0
C579 C 0.65234 0.01093 0.67417 0.0
C580 C 0.70815 0.03304 0.63362 0.0
O581 O 0.67045 0.99466 0.64897 0.0
O582 O 0.69381 0.98957 0.65119 0.0
C583 C 0.70425 0.98124 0.68755 0.0
N584 N 0.71641 0.9982 0.68238 0.0
C585 C 0.73597 0.00187 0.70805 0.0
C586 C 0.72371 0.9844 0.71358 0.0
C587 C 0.70777 0.97406 0.70331 0.0
C588 C 0.73179 0.00827 0.69217 0.0
H589 H 0.69196 0.97327 0.67973 0.0
C590 C 0.67757 0.98472 0.64647 0.0
O591 O 0.65809 0.01952 0.65902 0.0
O592 O 0.6628 0.00639 0.68286 0.0
N593 N 0.73729 0.0309 0.67143 0.0
C594 C 0.74708 0.04795 0.665 0.0
C595 C 0.76305 0.06031 0.67423 0.0
C596 C 0.76883 0.05501 0.6899 0.0
C597 C 0.7586 0.03736 0.69619 0.0
C598 C 0.74285 0.02559 0.68638 0.0
H599 H 0.74268 0.05214 0.653 0.0
O600 O 0.69392 0.04027 0.67968 0.0
O601 O 0.70093 0.01888 0.67503 0.0
O602 O 0.69481 0.03246 0.64151 0.0
O603 O 0.71633 0.02491 0.63952 0.0
C604 C 0.76323 0.0311 0.71203 0.0
C605 C 0.75194 0.01335 0.71793 0.0
H606 H 0.7263 0.97887 0.72581 0.0
H607 H 0.69819 0.96061 0.70755 0.0
H608 H 0.77085 0.07392 0.66931 0.0
H609 H 0.78108 0.06463 0.69707 0.0
H610 H 0.7753 0.03991 0.71994 0.0
H611 H 0.7555 0.00879 0.73029 0.0
Mn612 Mn 0.98919 0.67374 0.67879 0.0
Mn613 Mn 0.94809 0.63676 0.67839 0.0
C614 C 0.96833 0.67003 0.65633 0.0
C615 C 0.01929 0.68864 0.67129 0.0
C616 C 0.95991 0.66835 0.70511 0.0
O617 O 0.99251 0.65631 0.69524 0.0
O618 O 0.96534 0.63147 0.69167 0.0
C619 C 0.95475 0.61191 0.65548 0.0
N620 N 0.94545 0.62077 0.65854 0.0
C621 C 0.92702 0.60733 0.63145 0.0
C622 C 0.93632 0.59796 0.62807 0.0
C623 C 0.95027 0.60029 0.64013 0.0
C624 C 0.932 0.61862 0.64704 0.0
H625 H 0.96552 0.6137 0.66468 0.0
C626 C 0.98158 0.63959 0.69781 0.0
O627 O 0.01357 0.69365 0.68525 0.0
O628 O 0.00753 0.67466 0.66181 0.0
N629 N 0.93027 0.64005 0.66562 0.0
C630 C 0.9234 0.65094 0.67018 0.0
C631 C 0.90977 0.65075 0.65911 0.0
C632 C 0.90326 0.6393 0.64355 0.0
C633 C 0.91041 0.6281 0.63923 0.0
C634 C 0.92391 0.62879 0.65082 0.0
H635 H 0.92837 0.6598 0.6821 0.0
O636 O 0.9817 0.68599 0.66026 0.0
O637 O 0.96766 0.65673 0.66556 0.0
O638 O 0.97519 0.67823 0.69836 0.0
O639 O 0.94905 0.65235 0.6992 0.0
C640 C 0.90496 0.61657 0.62363 0.0
C641 C 0.91325 0.60619 0.61975 0.0
H642 H 0.93298 0.58907 0.61618 0.0
H643 H 0.95757 0.59318 0.63757 0.0
H644 H 0.90435 0.65948 0.66251 0.0
H645 H 0.89287 0.63934 0.63494 0.0
H646 H 0.89459 0.6158 0.61438 0.0
H647 H 0.90912 0.59758 0.60758 0.0
C648 C 0.20699 0.27911 0.04837 0.0
C649 C 0.2179 0.29565 0.06091 0.0
C650 C 0.20318 0.29168 0.08978 0.0
C651 C 0.20381 0.30827 0.09283 0.0
C652 C 0.19114 0.30943 0.10376 0.0
C653 C 0.17744 0.29357 0.11157 0.0
C654 C 0.17695 0.27683 0.10866 0.0
C655 C 0.19008 0.27619 0.09806 0.0
C656 C 0.19235 0.32756 0.10688 0.0
C657 C 0.16241 0.25958 0.11648 0.0
C658 C 0.05816 0.30012 0.0642 0.0
C659 C 0.06799 0.29261 0.07454 0.0
C660 C 0.0961 0.3029 0.0919 0.0
C661 C 0.09416 0.28558 0.09389 0.0
C662 C 0.10719 0.28326 0.10345 0.0
C663 C 0.1225 0.29853 0.11103 0.0
C664 C 0.1247 0.316 0.10867 0.0
C665 C 0.11139 0.31792 0.09921 0.0
C666 C 0.10448 0.26446 0.10573 0.0
C667 C 0.14101 0.33263 0.11633 0.0
C668 C 0.09654 0.30213 0.22925 0.0
C669 C 0.09416 0.28492 0.2249 0.0
C670 C 0.10725 0.28308 0.21537 0.0
C671 C 0.12294 0.29872 0.21003 0.0
C672 C 0.12535 0.31603 0.21443 0.0
C673 C 0.1121 0.31748 0.22399 0.0
C674 C 0.10428 0.26444 0.21087 0.0
C675 C 0.14191 0.33301 0.20896 0.0
C676 C 0.25413 0.32527 0.22295 0.0
C677 C 0.24364 0.3224 0.24055 0.0
C678 C 0.21219 0.30516 0.22984 0.0
C679 C 0.19687 0.28808 0.22896 0.0
C680 C 0.18127 0.28518 0.21946 0.0
C681 C 0.18097 0.29982 0.21077 0.0
C682 C 0.19624 0.31723 0.21196 0.0
C683 C 0.21171 0.31969 0.2213 0.0
C684 C 0.1652 0.26646 0.21846 0.0
C685 C 0.19634 0.33327 0.20314 0.0
C686 C 0.16337 0.29442 0.12236 0.0
C687 C 0.1496 0.29533 0.11278 0.0
C688 C 0.13597 0.29627 0.12198 0.0
C689 C 0.13572 0.29584 0.1413 0.0
C690 C 0.1219 0.29622 0.15096 0.0
C691 C 0.12205 0.29636 0.16999 0.0
C692 C 0.13606 0.29622 0.18011 0.0
C693 C 0.13667 0.29705 0.19946 0.0
C694 C 0.15108 0.29743 0.20909 0.0
C695 C 0.16499 0.297 0.19989 0.0
C696 C 0.16438 0.29571 0.18056 0.0
C697 C 0.178 0.29495 0.17089 0.0
C698 C 0.17769 0.29447 0.15185 0.0
C699 C 0.16369 0.29462 0.14173 0.0
C700 C 0.14973 0.29521 0.15121 0.0
C701 C 0.14997 0.29555 0.17064 0.0
C702 C 0.06074 0.29839 0.25927 0.0
C703 C 0.06862 0.29121 0.24585 0.0
O704 O 0.21515 0.29035 0.07899 0.0
O705 O 0.22702 0.30692 0.23886 0.0
O706 O 0.0843 0.30458 0.23851 0.0
O707 O 0.08361 0.30572 0.08317 0.0
H708 H 0.21318 0.3055 0.05817 0.0
H709 H 0.19254 0.27303 0.05131 0.0
H710 H 0.21113 0.26877 0.05059 0.0
H711 H 0.20885 0.28307 0.0338 0.0
H712 H 0.2143 0.32032 0.08674 0.0
H713 H 0.18986 0.26348 0.0957 0.0
H714 H 0.18098 0.32773 0.0996 0.0
H715 H 0.20502 0.33885 0.10186 0.0
H716 H 0.19136 0.32989 0.12168 0.0
H717 H 0.16282 0.24747 0.11134 0.0
H718 H 0.14906 0.258 0.113 0.0
H719 H 0.16392 0.26021 0.13162 0.0
H720 H 0.05956 0.28111 0.08351 0.0
H721 H 0.05977 0.29346 0.03664 0.0
H722 H 0.06362 0.31448 0.06932 0.0
H723 H 0.04505 0.2949 0.07128 0.0
H724 H 0.08246 0.27382 0.08817 0.0
H725 H 0.11284 0.33122 0.09752 0.0
H726 H 0.11568 0.26354 0.09946 0.0
H727 H 0.09167 0.25391 0.09933 0.0
H728 H 0.10463 0.26163 0.12051 0.0
H729 H 0.14142 0.34531 0.11201 0.0
H730 H 0.15335 0.33278 0.11183 0.0
H731 H 0.14105 0.33231 0.1315 0.0
H732 H 0.05908 0.28144 0.23535 0.0
H733 H 0.08213 0.27291 0.22883 0.0
H734 H 0.11383 0.33069 0.22743 0.0
H735 H 0.10389 0.26252 0.19579 0.0
H736 H 0.09163 0.2536 0.21644 0.0
H737 H 0.11562 0.26303 0.2165 0.0
H738 H 0.14165 0.34546 0.21316 0.0
H739 H 0.14327 0.33296 0.19389 0.0
H740 H 0.15394 0.33339 0.21532 0.0
H741 H 0.242 0.33444 0.24274 0.0
H742 H 0.26803 0.33666 0.22491 0.0
H743 H 0.24768 0.32863 0.21152 0.0
H744 H 0.25455 0.31288 0.21888 0.0
H745 H 0.19727 0.27693 0.23559 0.0
H746 H 0.2233 0.33304 0.22166 0.0
H747 H 0.16133 0.26213 0.20393 0.0
H748 H 0.15368 0.26662 0.22491 0.0
H749 H 0.16775 0.25636 0.22544 0.0
H750 H 0.20832 0.34626 0.20734 0.0
H751 H 0.18417 0.33393 0.20675 0.0
H752 H 0.19619 0.33175 0.18804 0.0
H753 H 0.1496 0.29554 0.09794 0.0
H754 H 0.11083 0.29647 0.14392 0.0
H755 H 0.11111 0.29676 0.17665 0.0
H756 H 0.15176 0.29867 0.22391 0.0
H757 H 0.18914 0.29483 0.17794 0.0
H758 H 0.18864 0.2941 0.14517 0.0
H759 H 0.06301 0.28746 0.28436 0.0
H760 H 0.04744 0.29525 0.2529 0.0
H761 H 0.06713 0.31339 0.25704 0.0
C762 C 0.74284 0.93856 0.04452 0.0
C763 C 0.72705 0.93055 0.05738 0.0
C764 C 0.72909 0.91929 0.08725 0.0
C765 C 0.71145 0.90509 0.0885 0.0
C766 C 0.70735 0.89063 0.10018 0.0
C767 C 0.72122 0.89029 0.11063 0.0
C768 C 0.73893 0.90491 0.10981 0.0
C769 C 0.74256 0.91941 0.09834 0.0
C770 C 0.68824 0.87554 0.10108 0.0
C771 C 0.75411 0.90498 0.12062 0.0
C772 C 0.71323 0.75884 0.07533 0.0
C773 C 0.7205 0.77658 0.08516 0.0
C774 C 0.71275 0.80027 0.09009 0.0
C775 C 0.72704 0.811 0.1023 0.0
C776 C 0.72731 0.82529 0.11232 0.0
C777 C 0.71266 0.82851 0.11062 0.0
C778 C 0.69825 0.81769 0.09832 0.0
C779 C 0.69866 0.80392 0.08798 0.0
C780 C 0.74334 0.83698 0.12463 0.0
C781 C 0.68237 0.82062 0.09609 0.0
C782 C 0.69408 0.79461 0.22999 0.0
C783 C 0.7111 0.8058 0.22295 0.0
C784 C 0.71449 0.821 0.21271 0.0
C785 C 0.70044 0.82476 0.20893 0.0
C786 C 0.68328 0.81346 0.21594 0.0
C787 C 0.68043 0.7987 0.2266 0.0
C788 C 0.73316 0.8331 0.20605 0.0
C789 C 0.66792 0.81695 0.21219 0.0
C790 C 0.72446 0.95847 0.21805 0.0
C791 C 0.71036 0.94421 0.23029 0.0
C792 C 0.71437 0.91786 0.22818 0.0
C793 C 0.729 0.91506 0.22675 0.0
C794 C 0.72744 0.89994 0.21718 0.0
C795 C 0.71071 0.88721 0.20919 0.0
C796 C 0.69563 0.88952 0.2114 0.0
C797 C 0.69761 0.90483 0.22091 0.0
C798 C 0.74372 0.89773 0.2153 0.0
C799 C 0.67748 0.87588 0.20355 0.0
C800 C 0.71736 0.87415 0.1215 0.0
C801 C 0.71644 0.85926 0.11222 0.0
C802 C 0.71266 0.84345 0.12136 0.0
C803 C 0.70961 0.84237 0.14037 0.0
C804 C 0.70507 0.82646 0.14992 0.0
C805 C 0.70289 0.8258 0.16877 0.0
C806 C 0.7052 0.84103 0.1788 0.0
C807 C 0.70377 0.84076 0.19806 0.0
C808 C 0.70573 0.85603 0.20751 0.0
C809 C 0.70902 0.87162 0.19827 0.0
C810 C 0.71073 0.87225 0.17905 0.0
C811 C 0.71415 0.88778 0.16934 0.0
C812 C 0.71604 0.88835 0.15046 0.0
C813 C 0.71486 0.87351 0.1406 0.0
C814 C 0.71111 0.85759 0.15008 0.0
C815 C 0.70898 0.85694 0.16932 0.0
C816 C 0.69701 0.75981 0.22363 0.0
C817 C 0.69963 0.77057 0.24149 0.0
O818 O 0.73352 0.93287 0.0753 0.0
O819 O 0.7168 0.93316 0.23676 0.0
O820 O 0.69017 0.77986 0.24016 0.0
O821 O 0.71207 0.78631 0.08021 0.0
H822 H 0.7191 0.91589 0.05361 0.0
H823 H 0.75063 0.93138 0.04606 0.0
H824 H 0.75191 0.95314 0.04772 0.0
H825 H 0.73797 0.93696 0.03006 0.0
H826 H 0.70092 0.90531 0.0803 0.0
H827 H 0.7561 0.93057 0.0974 0.0
H828 H 0.68702 0.86314 0.09453 0.0
H829 H 0.67873 0.87891 0.09399 0.0
H830 H 0.68435 0.87245 0.11555 0.0
H831 H 0.76727 0.91681 0.11759 0.0
H832 H 0.75461 0.89242 0.11755 0.0
H833 H 0.7518 0.90522 0.13548 0.0
H834 H 0.73538 0.78484 0.08578 0.0
H835 H 0.72473 0.75989 0.06726 0.0
H836 H 0.70556 0.75947 0.06292 0.0
H837 H 0.70117 0.73974 0.09612 0.0
H838 H 0.73816 0.80847 0.10384 0.0
H839 H 0.68774 0.79561 0.07848 0.0
H840 H 0.74755 0.8515 0.12305 0.0
H841 H 0.7549 0.83498 0.12174 0.0
H842 H 0.73976 0.83353 0.13911 0.0
H843 H 0.67102 0.80922 0.08852 0.0
H844 H 0.6864 0.83315 0.08835 0.0
H845 H 0.67774 0.82236 0.10964 0.0
H846 H 0.71409 0.78021 0.24403 0.0
H847 H 0.72189 0.80296 0.22553 0.0
H848 H 0.66737 0.79004 0.23214 0.0
H849 H 0.73332 0.8313 0.19102 0.0
H850 H 0.74311 0.83001 0.21254 0.0
H851 H 0.73736 0.84752 0.20893 0.0
H852 H 0.65493 0.80558 0.21646 0.0
H853 H 0.66693 0.81924 0.19738 0.0
H854 H 0.67038 0.82936 0.21978 0.0
H855 H 0.6981 0.93648 0.22154 0.0
H856 H 0.71948 0.96718 0.21204 0.0
H857 H 0.72728 0.95167 0.20657 0.0
H858 H 0.73718 0.96692 0.22592 0.0
H859 H 0.7418 0.92505 0.23272 0.0
H860 H 0.68604 0.9065 0.22278 0.0
H861 H 0.74639 0.89711 0.20059 0.0
H862 H 0.74117 0.8848 0.2214 0.0
H863 H 0.75583 0.90897 0.2221 0.0
H864 H 0.66689 0.87913 0.20727 0.0
H865 H 0.67373 0.86219 0.20851 0.0
H866 H 0.67801 0.87541 0.1884 0.0
H867 H 0.7188 0.86002 0.09764 0.0
H868 H 0.70326 0.81436 0.14295 0.0
H869 H 0.69951 0.81323 0.1754 0.0
H870 H 0.70464 0.85576 0.22228 0.0
H871 H 0.71546 0.89971 0.17623 0.0
H872 H 0.71866 0.90065 0.1437 0.0
H873 H 0.70491 0.75269 0.22406 0.0
H874 H 0.70161 0.76902 0.21185 0.0
H875 H 0.68265 0.74971 0.22125 0.0
C876 C 0.19418 0.93198 0.0525 0.0
C877 C 0.20707 0.93398 0.06832 0.0
C878 C 0.19036 0.90639 0.08616 0.0
C879 C 0.17805 0.911 0.09348 0.0
C880 C 0.1646 0.8992 0.10506 0.0
C881 C 0.1634 0.88249 0.10943 0.0
C882 C 0.17587 0.87791 0.10233 0.0
C883 C 0.1892 0.88995 0.09079 0.0
C884 C 0.15147 0.90446 0.1124 0.0
C885 C 0.17494 0.86018 0.10673 0.0
C886 C 0.0523 0.80567 0.04196 0.0
C887 C 0.06061 0.79819 0.05561 0.0
C888 C 0.07205 0.81161 0.08575 0.0
C889 C 0.08576 0.8073 0.08789 0.0
C890 C 0.10038 0.81743 0.09991 0.0
C891 C 0.10136 0.8323 0.10981 0.0
C892 C 0.0872 0.83626 0.10813 0.0
C893 C 0.07253 0.8256 0.09634 0.0
C894 C 0.11499 0.81254 0.10167 0.0
C895 C 0.08787 0.85214 0.11825 0.0
C896 C 0.07653 0.80308 0.22637 0.0
C897 C 0.09014 0.79934 0.22152 0.0
C898 C 0.10539 0.81227 0.21269 0.0
C899 C 0.10715 0.82934 0.20887 0.0
C900 C 0.09394 0.83349 0.21465 0.0
C901 C 0.07882 0.82029 0.22344 0.0
C902 C 0.11945 0.8076 0.20709 0.0
C903 C 0.09558 0.85168 0.21107 0.0
C904 C 0.23229 0.94405 0.22881 0.0
C905 C 0.2235 0.93118 0.24461 0.0
C906 C 0.20108 0.90287 0.22893 0.0
C907 C 0.19749 0.88558 0.22353 0.0
C908 C 0.18191 0.87391 0.21337 0.0
C909 C 0.16951 0.87968 0.20862 0.0
C910 C 0.17293 0.89711 0.21416 0.0
C911 C 0.18873 0.90859 0.22418 0.0
C912 C 0.17872 0.85544 0.20764 0.0
C913 C 0.15989 0.90359 0.20942 0.0
C914 C 0.14845 0.86936 0.12057 0.0
C915 C 0.13253 0.85724 0.11133 0.0
C916 C 0.11778 0.84449 0.12076 0.0
C917 C 0.11886 0.84372 0.14002 0.0
C918 C 0.10438 0.8309 0.14993 0.0
C919 C 0.10547 0.83048 0.16891 0.0
C920 C 0.12114 0.84278 0.17871 0.0
C921 C 0.12234 0.84251 0.19802 0.0
C922 C 0.13816 0.8548 0.20733 0.0
C923 C 0.15298 0.86743 0.19785 0.0
C924 C 0.15202 0.86798 0.17854 0.0
C925 C 0.16667 0.8805 0.16857 0.0
C926 C 0.16555 0.881 0.14958 0.0
C927 C 0.14977 0.86893 0.13984 0.0
C928 C 0.13488 0.85609 0.1496 0.0
C929 C 0.13601 0.85563 0.16897 0.0
C930 C 0.03346 0.76536 0.22352 0.0
C931 C 0.05266 0.77198 0.2305 0.0
O932 O 0.20333 0.91714 0.07448 0.0
O933 O 0.21658 0.91341 0.23859 0.0
O934 O 0.06105 0.79049 0.2338 0.0
O935 O 0.05849 0.80284 0.07324 0.0
H936 H 0.20553 0.94192 0.07962 0.0
H937 H 0.18023 0.92555 0.05725 0.0
H938 H 0.1947 0.92345 0.0412 0.0
H939 H 0.19767 0.94548 0.04714 0.0
H940 H 0.17862 0.92361 0.0901 0.0
H941 H 0.19872 0.88649 0.08514 0.0
H942 H 0.13776 0.89468 0.10723 0.0
H943 H 0.15462 0.91826 0.10836 0.0
H944 H 0.15143 0.90387 0.12757 0.0
H945 H 0.18597 0.85886 0.10058 0.0
H946 H 0.16197 0.84882 0.10157 0.0
H947 H 0.17556 0.85889 0.12179 0.0
H948 H 0.07509 0.8048 0.05237 0.0
H949 H 0.05353 0.80176 0.02774 0.0
H950 H 0.05942 0.82066 0.04312 0.0
H951 H 0.03795 0.80059 0.04471 0.0
H952 H 0.0851 0.79611 0.08004 0.0
H953 H 0.06176 0.82867 0.09468 0.0
H954 H 0.11858 0.81236 0.11632 0.0
H955 H 0.12713 0.82292 0.09492 0.0
H956 H 0.11102 0.79916 0.09524 0.0
H957 H 0.07638 0.85413 0.11447 0.0
H958 H 0.10049 0.86469 0.11532 0.0
H959 H 0.08776 0.85002 0.13321 0.0
H960 H 0.05917 0.76861 0.21929 0.0
H961 H 0.08888 0.78634 0.22457 0.0
H962 H 0.06841 0.82316 0.22755 0.0
H963 H 0.12067 0.8083 0.19199 0.0
H964 H 0.1163 0.79387 0.21139 0.0
H965 H 0.13265 0.81762 0.21322 0.0
H966 H 0.08462 0.85311 0.21724 0.0
H967 H 0.09532 0.85358 0.19609 0.0
H968 H 0.1086 0.86259 0.21669 0.0
H969 H 0.21261 0.93319 0.25011 0.0
H970 H 0.23787 0.95831 0.23359 0.0
H971 H 0.22231 0.94139 0.21764 0.0
H972 H 0.24324 0.94224 0.22319 0.0
H973 H 0.20707 0.88128 0.22724 0.0
H974 H 0.19126 0.92193 0.22818 0.0
H975 H 0.17659 0.8536 0.19257 0.0
H976 H 0.1664 0.8449 0.214 0.0
H977 H 0.19006 0.85331 0.2117 0.0
H978 H 0.16407 0.91719 0.21542 0.0
H979 H 0.14643 0.89389 0.2144 0.0
H980 H 0.15869 0.90416 0.19433 0.0
H981 H 0.1316 0.85778 0.09655 0.0
H982 H 0.09201 0.82109 0.14311 0.0
H983 H 0.09385 0.82037 0.1758 0.0
H984 H 0.13899 0.85444 0.22213 0.0
H985 H 0.17917 0.89011 0.17534 0.0
H986 H 0.17722 0.89096 0.14263 0.0
H987 H 0.02629 0.75045 0.22134 0.0
H988 H 0.03369 0.77171 0.21025 0.0
H989 H 0.02598 0.76903 0.23331 0.0
C990 C 0.29265 0.09487 0.96833 0.0
C991 C 0.29886 0.08743 0.95257 0.0
C992 C 0.30557 0.11042 0.92906 0.0
C993 C 0.28778 0.10593 0.92491 0.0
C994 C 0.28395 0.11639 0.91281 0.0
C995 C 0.29816 0.13148 0.90455 0.0
C996 C 0.31603 0.13568 0.90827 0.0
C997 C 0.31947 0.12508 0.9205 0.0
C998 C 0.26475 0.11148 0.90897 0.0
C999 C 0.33151 0.15154 0.89955 0.0
C1000 C 0.27956 0.24339 0.91118 0.0
C1001 C 0.28745 0.23945 0.92837 0.0
C1002 C 0.29735 0.21872 0.91602 0.0
C1003 C 0.31238 0.21803 0.91025 0.0
C1004 C 0.31082 0.2024 0.9019 0.0
C1005 C 0.29372 0.18694 0.89948 0.0
C1006 C 0.27841 0.18738 0.90559 0.0
C1007 C 0.28035 0.20331 0.91375 0.0
C1008 C 0.32746 0.20246 0.89554 0.0
C1009 C 0.26002 0.17106 0.90331 0.0
C1010 C 0.27962 0.20084 0.78144 0.0
C1011 C 0.29644 0.20289 0.78617 0.0
C1012 C 0.29786 0.18958 0.79607 0.0
C1013 C 0.28213 0.17385 0.80119 0.0
C1014 C 0.26518 0.17134 0.79561 0.0
C1015 C 0.26416 0.18485 0.78564 0.0
C1016 C 0.31616 0.19246 0.80136 0.0
C1017 C 0.24818 0.15464 0.80066 0.0
C1018 C 0.27886 0.04943 0.79165 0.0
C1019 C 0.28194 0.06107 0.77479 0.0
C1020 C 0.29156 0.09159 0.78769 0.0
C1021 C 0.30641 0.1087 0.79078 0.0
C1022 C 0.30486 0.12246 0.7998 0.0
C1023 C 0.28793 0.11901 0.80577 0.0
C1024 C 0.27276 0.10176 0.80259 0.0
C1025 C 0.27472 0.08816 0.79365 0.0
C1026 C 0.32133 0.14068 0.80301 0.0
C1027 C 0.25452 0.09771 0.80874 0.0
C1028 C 0.29443 0.1433 0.89255 0.0
C1029 C 0.29436 0.15821 0.90068 0.0
C1030 C 0.29195 0.17052 0.89016 0.0
C1031 C 0.28924 0.1678 0.871 0.0
C1032 C 0.28678 0.17993 0.86002 0.0
C1033 C 0.28463 0.17744 0.84112 0.0
C1034 C 0.285 0.1628 0.83244 0.0
C1035 C 0.28345 0.16053 0.81317 0.0
C1036 C 0.28399 0.1459 0.80496 0.0
C1037 C 0.28621 0.13347 0.81549 0.0
C1038 C 0.28779 0.13551 0.83478 0.0
C1039 C 0.2902 0.12335 0.84578 0.0
C1040 C 0.29218 0.12574 0.86471 0.0
C1041 C 0.2919 0.14043 0.87338 0.0
C1042 C 0.28931 0.15275 0.86257 0.0
C1043 C 0.28722 0.15027 0.84326 0.0
C1044 C 0.27614 0.23788 0.788 0.0
C1045 C 0.28768 0.2323 0.777 0.0
O1046 O 0.31007 0.10126 0.9413 0.0
O1047 O 0.29428 0.07896 0.77901 0.0
O1048 O 0.27789 0.21396 0.77274 0.0
O1049 O 0.30004 0.23457 0.92357 0.0
H1050 H 0.28701 0.07722 0.94446 0.0
H1051 H 0.2847 0.10099 0.96304 0.0
H1052 H 0.30433 0.10541 0.97636 0.0
H1053 H 0.28406 0.0838 0.97757 0.0
H1054 H 0.2768 0.09445 0.93115 0.0
H1055 H 0.33314 0.12837 0.92366 0.0
H1056 H 0.26269 0.12286 0.91331 0.0
H1057 H 0.25516 0.09914 0.91619 0.0
H1058 H 0.26171 0.10923 0.89404 0.0
H1059 H 0.34454 0.15238 0.90305 0.0
H1060 H 0.33204 0.16425 0.90421 0.0
H1061 H 0.32956 0.15053 0.88445 0.0
H1062 H 0.27658 0.22836 0.93602 0.0
H1063 H 0.26954 0.24742 0.91498 0.0
H1064 H 0.27274 0.23118 0.90214 0.0
H1065 H 0.29029 0.25445 0.90339 0.0
H1066 H 0.32543 0.22996 0.91212 0.0
H1067 H 0.26856 0.20357 0.91824 0.0
H1068 H 0.32597 0.19867 0.88078 0.0
H1069 H 0.3293 0.19224 0.90315 0.0
H1070 H 0.33966 0.21585 0.89768 0.0
H1071 H 0.24952 0.17326 0.9095 0.0
H1072 H 0.25985 0.15919 0.90973 0.0
H1073 H 0.25668 0.16774 0.88853 0.0
H1074 H 0.29954 0.23547 0.78593 0.0
H1075 H 0.30847 0.21486 0.78213 0.0
H1076 H 0.25125 0.18326 0.78159 0.0
H1077 H 0.31792 0.19353 0.81648 0.0
H1078 H 0.32708 0.20489 0.79541 0.0
H1079 H 0.31741 0.18067 0.79672 0.0
H1080 H 0.23604 0.15455 0.79499 0.0
H1081 H 0.24733 0.15379 0.81578 0.0
H1082 H 0.24835 0.1424 0.7955 0.0
H1083 H 0.26906 0.05997 0.77005 0.0
H1084 H 0.26903 0.03507 0.78829 0.0
H1085 H 0.27347 0.05404 0.80289 0.0
H1086 H 0.29161 0.05037 0.79657 0.0
H1087 H 0.31933 0.11121 0.78615 0.0
H1088 H 0.26307 0.07498 0.79148 0.0
H1089 H 0.32309 0.14434 0.81782 0.0
H1090 H 0.31965 0.15114 0.79569 0.0
H1091 H 0.33365 0.14095 0.79822 0.0
H1092 H 0.24391 0.08385 0.80464 0.0
H1093 H 0.25105 0.10762 0.80285 0.0
H1094 H 0.25474 0.09916 0.82387 0.0
H1095 H 0.29667 0.16053 0.91535 0.0
H1096 H 0.28655 0.19154 0.8659 0.0
H1097 H 0.28283 0.18725 0.8334 0.0
H1098 H 0.28305 0.1444 0.79017 0.0
H1099 H 0.29066 0.11187 0.83986 0.0
H1100 H 0.29406 0.116 0.87247 0.0
H1101 H 0.26358 0.23458 0.7803 0.0
H1102 H 0.28363 0.25262 0.79122 0.0
H1103 H 0.27253 0.23053 0.80109 0.0
C1104 C 0.79703 0.0631 0.96716 0.0
C1105 C 0.78487 0.06791 0.9558 0.0
C1106 C 0.7979 0.07794 0.92614 0.0
C1107 C 0.79736 0.09398 0.92373 0.0
C1108 C 0.80956 0.1075 0.9124 0.0
C1109 C 0.82269 0.10495 0.90353 0.0
C1110 C 0.82296 0.08854 0.90566 0.0
C1111 C 0.81029 0.07508 0.91671 0.0
C1112 C 0.80861 0.12462 0.91015 0.0
C1113 C 0.83688 0.08542 0.89665 0.0
C1114 C 0.9396 0.19052 0.95624 0.0
C1115 C 0.93854 0.20352 0.94253 0.0
C1116 C 0.90813 0.18755 0.92856 0.0
C1117 C 0.91013 0.17441 0.9187 0.0
C1118 C 0.89615 0.16158 0.90737 0.0
C1119 C 0.87999 0.16214 0.90558 0.0
C1120 C 0.87807 0.17554 0.91525 0.0
C1121 C 0.89212 0.18795 0.92675 0.0
C1122 C 0.89855 0.14729 0.89749 0.0
C1123 C 0.86111 0.17665 0.91359 0.0
C1124 C 0.90282 0.19633 0.7875 0.0
C1125 C 0.90663 0.18335 0.79485 0.0
C1126 C 0.89351 0.16839 0.80404 0.0
C1127 C 0.87644 0.16672 0.80646 0.0
C1128 C 0.87257 0.17972 0.79892 0.0
C1129 C 0.88574 0.19418 0.78927 0.0
C1130 C 0.89792 0.15441 0.81118 0.0
C1131 C 0.85455 0.17845 0.80112 0.0
C1132 C 0.75456 0.0464 0.7947 0.0
C1133 C 0.75937 0.05924 0.77855 0.0
C1134 C 0.7912 0.08041 0.78411 0.0
C1135 C 0.80689 0.07965 0.78735 0.0
C1136 C 0.82134 0.09338 0.79746 0.0
C1137 C 0.82009 0.10834 0.80421 0.0
C1138 C 0.80456 0.1096 0.80028 0.0
C1139 C 0.79029 0.09565 0.79021 0.0
C1140 C 0.83782 0.09176 0.80122 0.0
C1141 C 0.80302 0.12564 0.80686 0.0
C1142 C 0.83677 0.11987 0.89301 0.0
C1143 C 0.85123 0.13364 0.90289 0.0
C1144 C 0.8649 0.14833 0.8941 0.0
C1145 C 0.86418 0.14947 0.87486 0.0
C1146 C 0.87736 0.16438 0.86563 0.0
C1147 C 0.87675 0.16518 0.84665 0.0
C1148 C 0.86305 0.15099 0.83614 0.0
C1149 C 0.8626 0.15139 0.81679 0.0
C1150 C 0.84862 0.13716 0.80683 0.0
C1151 C 0.83487 0.12257 0.81564 0.0
C1152 C 0.83511 0.12187 0.83496 0.0
C1153 C 0.82142 0.10741 0.84426 0.0
C1154 C 0.8218 0.10682 0.86327 0.0
C1155 C 0.83602 0.12053 0.8737 0.0
C1156 C 0.84985 0.13535 0.8646 0.0
C1157 C 0.84935 0.13606 0.84522 0.0
C1158 C 0.93942 0.22857 0.79958 0.0
C1159 C 0.9336 0.21947 0.78053 0.0
O1160 O 0.78649 0.065 0.93741 0.0
O1161 O 0.77736 0.06633 0.77495 0.0
O1162 O 0.91511 0.21107 0.77857 0.0
O1163 O 0.92102 0.19987 0.94018 0.0
H1164 H 0.78923 0.08242 0.95859 0.0
H1165 H 0.81113 0.07162 0.96313 0.0
H1166 H 0.79312 0.04866 0.96491 0.0
H1167 H 0.7962 0.06561 0.98196 0.0
H1168 H 0.78737 0.09588 0.93067 0.0
H1169 H 0.8104 0.06251 0.91855 0.0
H1170 H 0.82026 0.13595 0.91741 0.0
H1171 H 0.79618 0.12347 0.91578 0.0
H1172 H 0.80926 0.12805 0.89546 0.0
H1173 H 0.83601 0.07245 0.90068 0.0
H1174 H 0.85049 0.09665 0.90033 0.0
H1175 H 0.83515 0.08525 0.88156 0.0
H1176 H 0.94376 0.20197 0.92922 0.0
H1177 H 0.93187 0.17637 0.95097 0.0
H1178 H 0.93404 0.19135 0.96957 0.0
H1179 H 0.95374 0.19384 0.95847 0.0
H1180 H 0.9224 0.17384 0.91994 0.0
H1181 H 0.89069 0.19811 0.93441 0.0
H1182 H 0.88725 0.13365 0.90033 0.0
H1183 H 0.91129 0.14772 0.90155 0.0
H1184 H 0.89849 0.14924 0.88251 0.0
H1185 H 0.86261 0.18922 0.92004 0.0
H1186 H 0.85016 0.16489 0.92037 0.0
H1187 H 0.85707 0.17607 0.89897 0.0
H1188 H 0.93815 0.20939 0.77885 0.0
H1189 H 0.91969 0.18463 0.79331 0.0
H1190 H 0.8829 0.20418 0.78341 0.0
H1191 H 0.89958 0.15577 0.8263 0.0
H1192 H 0.91049 0.15597 0.80549 0.0
H1193 H 0.88686 0.14057 0.80779 0.0
H1194 H 0.85454 0.19092 0.79675 0.0
H1195 H 0.8505 0.17592 0.8156 0.0
H1196 H 0.84435 0.1669 0.79269 0.0
H1197 H 0.75633 0.06998 0.78277 0.0
H1198 H 0.74007 0.04012 0.79751 0.0
H1199 H 0.76216 0.05411 0.8072 0.0
H1200 H 0.75812 0.03571 0.79192 0.0
H1201 H 0.80759 0.06799 0.78231 0.0
H1202 H 0.77865 0.09693 0.78697 0.0
H1203 H 0.84004 0.09166 0.81622 0.0
H1204 H 0.84973 0.10369 0.7958 0.0
H1205 H 0.83674 0.07931 0.79494 0.0
H1206 H 0.79026 0.12486 0.80224 0.0
H1207 H 0.81434 0.1383 0.80177 0.0
H1208 H 0.80387 0.12647 0.82204 0.0
H1209 H 0.85187 0.1329 0.91768 0.0
H1210 H 0.88831 0.17561 0.87299 0.0
H1211 H 0.88724 0.17702 0.84032 0.0
H1212 H 0.84831 0.13756 0.792 0.0
H1213 H 0.81024 0.09636 0.83695 0.0
H1214 H 0.81089 0.09539 0.8697 0.0
H1215 H 0.95416 0.23507 0.80167 0.0
H1216 H 0.93319 0.21839 0.81039 0.0
H1217 H 0.93527 0.23896 0.8013 0.0
C1218 C 0.7888 0.72565 0.97098 0.0
C1219 C 0.77443 0.71601 0.95582 0.0
C1220 C 0.79054 0.70567 0.93562 0.0
C1221 C 0.80296 0.72266 0.92897 0.0
C1222 C 0.81711 0.72457 0.91815 0.0
C1223 C 0.81871 0.7092 0.91378 0.0
C1224 C 0.80591 0.69203 0.92002 0.0
C1225 C 0.79197 0.69052 0.93082 0.0
C1226 C 0.83044 0.74302 0.91148 0.0
C1227 C 0.80709 0.67531 0.91547 0.0
C1228 C 0.9275 0.74233 0.9833 0.0
C1229 C 0.9193 0.72531 0.97107 0.0
C1230 C 0.90838 0.72605 0.94032 0.0
C1231 C 0.8937 0.70853 0.93869 0.0
C1232 C 0.87955 0.70456 0.92622 0.0
C1233 C 0.88001 0.7185 0.91538 0.0
C1234 C 0.8951 0.73607 0.91666 0.0
C1235 C 0.90928 0.73951 0.92888 0.0
C1236 C 0.86391 0.68556 0.92498 0.0
C1237 C 0.89599 0.75138 0.9056 0.0
C1238 C 0.90344 0.70407 0.79904 0.0
C1239 C 0.88868 0.68783 0.80441 0.0
C1240 C 0.87436 0.68786 0.81329 0.0
C1241 C 0.87465 0.70443 0.81655 0.0
C1242 C 0.88906 0.72071 0.81032 0.0
C1243 C 0.90325 0.72029 0.80154 0.0
C1244 C 0.85898 0.67021 0.81937 0.0
C1245 C 0.88961 0.73855 0.81325 0.0
C1246 C 0.74864 0.69728 0.768 0.0
C1247 C 0.7636 0.70349 0.78178 0.0
C1248 C 0.78384 0.69392 0.7951 0.0
C1249 C 0.78631 0.67923 0.79895 0.0
C1250 C 0.80147 0.68155 0.8089 0.0
C1251 C 0.81464 0.69911 0.81487 0.0
C1252 C 0.81247 0.71413 0.81062 0.0
C1253 C 0.79699 0.71136 0.80101 0.0
C1254 C 0.80332 0.66523 0.81321 0.0
C1255 C 0.82642 0.7331 0.81638 0.0
C1256 C 0.83402 0.71103 0.90313 0.0
C1257 C 0.84956 0.71437 0.91281 0.0
C1258 C 0.86411 0.71503 0.9039 0.0
C1259 C 0.86321 0.71232 0.8847 0.0
C1260 C 0.87734 0.71235 0.8753 0.0
C1261 C 0.87636 0.70986 0.85637 0.0
C1262 C 0.86118 0.70719 0.84612 0.0
C1263 C 0.86009 0.70473 0.82687 0.0
C1264 C 0.84483 0.70218 0.8171 0.0
C1265 C 0.8304 0.70173 0.82607 0.0
C1266 C 0.83114 0.7039 0.84533 0.0
C1267 C 0.81671 0.70313 0.85483 0.0
C1268 C 0.81763 0.70549 0.87375 0.0
C1269 C 0.83299 0.70867 0.88391 0.0
C1270 C 0.84765 0.70933 0.87466 0.0
C1271 C 0.84667 0.70684 0.85535 0.0
C1272 C 0.9427 0.70542 0.80722 0.0
C1273 C 0.92548 0.69401 0.79583 0.0
O1274 O 0.77706 0.70314 0.94676 0.0
O1275 O 0.76871 0.69072 0.78564 0.0
O1276 O 0.91789 0.70459 0.79119 0.0
O1277 O 0.92176 0.73038 0.95291 0.0
H1278 H 0.77488 0.72605 0.94588 0.0
H1279 H 0.80229 0.73321 0.96516 0.0
H1280 H 0.78879 0.71572 0.98075 0.0
H1281 H 0.78626 0.73551 0.97857 0.0
H1282 H 0.80179 0.73446 0.93224 0.0
H1283 H 0.78221 0.67746 0.93588 0.0
H1284 H 0.844 0.74686 0.91705 0.0
H1285 H 0.82709 0.75358 0.91561 0.0
H1286 H 0.83097 0.74263 0.89632 0.0
H1287 H 0.79595 0.66292 0.92122 0.0
H1288 H 0.81996 0.67693 0.92091 0.0
H1289 H 0.80687 0.67349 0.90039 0.0
H1290 H 0.90477 0.71762 0.97406 0.0
H1291 H 0.92552 0.73866 0.99795 0.0
H1292 H 0.9209 0.75046 0.98019 0.0
H1293 H 0.94205 0.75077 0.98093 0.0
H1294 H 0.89331 0.69799 0.94722 0.0
H1295 H 0.92081 0.75295 0.93015 0.0
H1296 H 0.8599 0.68127 0.91045 0.0
H1297 H 0.85232 0.68518 0.93182 0.0
H1298 H 0.867 0.67572 0.93169 0.0
H1299 H 0.90794 0.76455 0.90935 0.0
H1300 H 0.8838 0.75252 0.90765 0.0
H1301 H 0.89644 0.74857 0.89083 0.0
H1302 H 0.91664 0.68272 0.80473 0.0
H1303 H 0.8882 0.67508 0.80159 0.0
H1304 H 0.91451 0.73271 0.79699 0.0
H1305 H 0.85758 0.67074 0.8344 0.0
H1306 H 0.8608 0.65847 0.81593 0.0
H1307 H 0.84633 0.66807 0.81276 0.0
H1308 H 0.90137 0.7499 0.80689 0.0
H1309 H 0.89013 0.7415 0.82815 0.0
H1310 H 0.87722 0.73779 0.80742 0.0
H1311 H 0.76226 0.71025 0.79433 0.0
H1312 H 0.76053 0.7143 0.74563 0.0
H1313 H 0.73729 0.69707 0.77565 0.0
H1314 H 0.74225 0.68211 0.76692 0.0
H1315 H 0.77616 0.66584 0.7943 0.0
H1316 H 0.79533 0.72291 0.79816 0.0
H1317 H 0.80569 0.66484 0.82815 0.0
H1318 H 0.81508 0.6662 0.80616 0.0
H1319 H 0.79128 0.65238 0.80882 0.0
H1320 H 0.82392 0.74347 0.80996 0.0
H1321 H 0.83995 0.7357 0.81268 0.0
H1322 H 0.82642 0.73467 0.83146 0.0
H1323 H 0.85024 0.71624 0.92757 0.0
H1324 H 0.88933 0.71432 0.88249 0.0
H1325 H 0.88769 0.7101 0.84988 0.0
H1326 H 0.84414 0.70043 0.80233 0.0
H1327 H 0.80451 0.70069 0.84776 0.0
H1328 H 0.80614 0.70483 0.8803 0.0
H1329 H 0.95207 0.71784 0.79997 0.0
H1330 H 0.94946 0.69744 0.8103 0.0
H1331 H 0.93942 0.7096 0.82038 0.0
C1332 C 0.87428 0.59231 0.38158 0.0
C1333 C 0.87977 0.60977 0.3925 0.0
C1334 C 0.86462 0.6098 0.42021 0.0
C1335 C 0.86595 0.62687 0.41922 0.0
C1336 C 0.8542 0.63076 0.4288 0.0
C1337 C 0.84066 0.61717 0.43932 0.0
C1338 C 0.83947 0.59998 0.44047 0.0
C1339 C 0.85175 0.59668 0.43119 0.0
C1340 C 0.85617 0.64935 0.42752 0.0
C1341 C 0.82505 0.585 0.45123 0.0
C1342 C 0.72413 0.62832 0.38753 0.0
C1343 C 0.73393 0.61981 0.39607 0.0
C1344 C 0.76308 0.62951 0.4113 0.0
C1345 C 0.75872 0.61253 0.41834 0.0
C1346 C 0.77101 0.61047 0.42962 0.0
C1347 C 0.78787 0.62569 0.43403 0.0
C1348 C 0.79226 0.64275 0.4269 0.0
C1349 C 0.77981 0.64439 0.41557 0.0
C1350 C 0.76598 0.59211 0.43697 0.0
C1351 C 0.81006 0.6593 0.43139 0.0
C1352 C 0.76533 0.6453 0.55072 0.0
C1353 C 0.76187 0.62762 0.54677 0.0
C1354 C 0.77452 0.62461 0.53782 0.0
C1355 C 0.79078 0.63954 0.53242 0.0
C1356 C 0.79421 0.65732 0.53621 0.0
C1357 C 0.78147 0.65993 0.54542 0.0
C1358 C 0.77052 0.60546 0.53414 0.0
C1359 C 0.81132 0.67358 0.53053 0.0
C1360 C 0.92296 0.67255 0.55291 0.0
C1361 C 0.91088 0.67039 0.56902 0.0
C1362 C 0.88025 0.65024 0.55708 0.0
C1363 C 0.86532 0.63296 0.55799 0.0
C1364 C 0.84961 0.62815 0.5476 0.0
C1365 C 0.84885 0.641 0.53604 0.0
C1366 C 0.86385 0.65854 0.5351 0.0
C1367 C 0.87939 0.66294 0.54549 0.0
C1368 C 0.83386 0.60933 0.5489 0.0
C1369 C 0.86349 0.67269 0.52303 0.0
C1370 C 0.82755 0.62077 0.44881 0.0
C1371 C 0.81374 0.6207 0.43828 0.0
C1372 C 0.80093 0.62398 0.44628 0.0
C1373 C 0.80144 0.62677 0.46542 0.0
C1374 C 0.78844 0.62952 0.47399 0.0
C1375 C 0.7892 0.63253 0.49281 0.0
C1376 C 0.80313 0.63315 0.50376 0.0
C1377 C 0.80426 0.6366 0.52285 0.0
C1378 C 0.81888 0.6382 0.53313 0.0
C1379 C 0.83245 0.63633 0.5249 0.0
C1380 C 0.83108 0.63197 0.50602 0.0
C1381 C 0.84416 0.62933 0.49745 0.0
C1382 C 0.843 0.62559 0.47875 0.0
C1383 C 0.82875 0.62439 0.46787 0.0
C1384 C 0.81548 0.62711 0.47623 0.0
C1385 C 0.81648 0.63058 0.49538 0.0
C1386 C 0.72309 0.63106 0.5495 0.0
C1387 C 0.73672 0.63697 0.56548 0.0
O1388 O 0.8755 0.6056 0.41065 0.0
O1389 O 0.89508 0.654 0.56748 0.0
O1390 O 0.75367 0.64902 0.55951 0.0
O1391 O 0.75164 0.63221 0.40044 0.0
H1392 H 0.87194 0.6158 0.38646 0.0
H1393 H 0.85964 0.58312 0.38251 0.0
H1394 H 0.88132 0.58527 0.38702 0.0
H1395 H 0.87747 0.59529 0.36692 0.0
H1396 H 0.87624 0.63717 0.41104 0.0
H1397 H 0.85097 0.58359 0.43194 0.0
H1398 H 0.84505 0.64855 0.41884 0.0
H1399 H 0.86902 0.65917 0.4214 0.0
H1400 H 0.85536 0.65452 0.44127 0.0
H1401 H 0.82449 0.57182 0.44873 0.0
H1402 H 0.81177 0.58353 0.44763 0.0
H1403 H 0.82766 0.58839 0.46607 0.0
H1404 H 0.73218 0.60737 0.38896 0.0
H1405 H 0.70482 0.6248 0.40693 0.0
H1406 H 0.7204 0.62224 0.37328 0.0
H1407 H 0.73455 0.64205 0.38282 0.0
H1408 H 0.74581 0.60088 0.41507 0.0
H1409 H 0.78302 0.65741 0.41008 0.0
H1410 H 0.77601 0.58819 0.43288 0.0
H1411 H 0.75252 0.58151 0.43197 0.0
H1412 H 0.76614 0.59268 0.45215 0.0
H1413 H 0.81137 0.67162 0.42484 0.0
H1414 H 0.82106 0.65708 0.42677 0.0
H1415 H 0.81176 0.66169 0.44644 0.0
H1416 H 0.73667 0.62492 0.57132 0.0
H1417 H 0.74941 0.6161 0.5506 0.0
H1418 H 0.78402 0.67351 0.54848 0.0
H1419 H 0.7693 0.60274 0.51916 0.0
H1420 H 0.75793 0.59534 0.54047 0.0
H1421 H 0.78172 0.60366 0.53949 0.0
H1422 H 0.81115 0.68642 0.53283 0.0
H1423 H 0.81363 0.67231 0.51583 0.0
H1424 H 0.82277 0.67426 0.53852 0.0
H1425 H 0.90796 0.68175 0.56872 0.0
H1426 H 0.93618 0.68497 0.5549 0.0
H1427 H 0.91681 0.67377 0.53991 0.0
H1428 H 0.92499 0.66069 0.55145 0.0
H1429 H 0.86603 0.62321 0.56691 0.0
H1430 H 0.89074 0.67634 0.54436 0.0
H1431 H 0.82979 0.60294 0.53503 0.0
H1432 H 0.82231 0.61008 0.55448 0.0
H1433 H 0.83687 0.6006 0.5578 0.0
H1434 H 0.87556 0.68618 0.52517 0.0
H1435 H 0.85145 0.67391 0.52571 0.0
H1436 H 0.86271 0.66854 0.50845 0.0
H1437 H 0.81313 0.61838 0.4236 0.0
H1438 H 0.77747 0.62932 0.46624 0.0
H1439 H 0.77881 0.63455 0.49863 0.0
H1440 H 0.82003 0.64155 0.54763 0.0
H1441 H 0.85544 0.63013 0.50512 0.0
H1442 H 0.85351 0.6238 0.47289 0.0
H1443 H 0.72288 0.64296 0.54359 0.0
H1444 H 0.70948 0.62136 0.55419 0.0
H1445 H 0.72658 0.62427 0.53859 0.0
C1446 C 0.40092 0.27247 0.37603 0.0
C1447 C 0.38626 0.26499 0.39022 0.0
C1448 C 0.3902 0.25321 0.4191 0.0
C1449 C 0.37267 0.23893 0.42093 0.0
C1450 C 0.36917 0.22434 0.43219 0.0
C1451 C 0.3835 0.22403 0.44174 0.0
C1452 C 0.40109 0.23876 0.44044 0.0
C1453 C 0.40416 0.25332 0.4293 0.0
C1454 C 0.35019 0.20911 0.43369 0.0
C1455 C 0.41667 0.23891 0.45049 0.0
C1456 C 0.37624 0.0925 0.40632 0.0
C1457 C 0.38384 0.11047 0.41577 0.0
C1458 C 0.37597 0.13411 0.4208 0.0
C1459 C 0.39038 0.14496 0.43283 0.0
C1460 C 0.39078 0.15939 0.44272 0.0
C1461 C 0.37615 0.16265 0.44105 0.0
C1462 C 0.36165 0.15176 0.42888 0.0
C1463 C 0.36193 0.13783 0.41868 0.0
C1464 C 0.40687 0.17115 0.45493 0.0
C1465 C 0.34579 0.15472 0.42667 0.0
C1466 C 0.35574 0.12593 0.5578 0.0
C1467 C 0.37303 0.138 0.55202 0.0
C1468 C 0.37651 0.15377 0.54282 0.0
C1469 C 0.3623 0.15728 0.53896 0.0
C1470 C 0.34494 0.14529 0.54512 0.0
C1471 C 0.34198 0.12992 0.55475 0.0
C1472 C 0.39538 0.16667 0.53724 0.0
C1473 C 0.32947 0.1486 0.54137 0.0
C1474 C 0.38027 0.28945 0.55348 0.0
C1475 C 0.36647 0.27338 0.56425 0.0
C1476 C 0.37262 0.24847 0.56 0.0
C1477 C 0.38779 0.24655 0.55857 0.0
C1478 C 0.38718 0.23212 0.54851 0.0
C1479 C 0.37086 0.21913 0.53997 0.0
C1480 C 0.35528 0.22059 0.542 0.0
C1481 C 0.3563 0.23523 0.55205 0.0
C1482 C 0.40399 0.23083 0.5468 0.0
C1483 C 0.33755 0.20667 0.53352 0.0
C1484 C 0.38016 0.20795 0.45242 0.0
C1485 C 0.37969 0.19334 0.44299 0.0
C1486 C 0.37607 0.17748 0.45195 0.0
C1487 C 0.37275 0.1761 0.47091 0.0
C1488 C 0.36832 0.16012 0.48027 0.0
C1489 C 0.36574 0.15912 0.49904 0.0
C1490 C 0.36751 0.17406 0.5092 0.0
C1491 C 0.36557 0.17341 0.5284 0.0
C1492 C 0.36689 0.18834 0.53799 0.0
C1493 C 0.37007 0.204 0.52893 0.0
C1494 C 0.37236 0.20504 0.50979 0.0
C1495 C 0.37576 0.22066 0.50027 0.0
C1496 C 0.37814 0.22159 0.48145 0.0
C1497 C 0.3774 0.20701 0.47147 0.0
C1498 C 0.37378 0.19105 0.48075 0.0
C1499 C 0.3712 0.19005 0.49993 0.0
C1500 C 0.34916 0.08828 0.54468 0.0
C1501 C 0.35828 0.09883 0.56244 0.0
O1502 O 0.39407 0.26694 0.40747 0.0
O1503 O 0.37412 0.26299 0.56945 0.0
O1504 O 0.35188 0.11052 0.56664 0.0
O1505 O 0.37511 0.11998 0.41108 0.0
H1506 H 0.37755 0.25043 0.38645 0.0
H1507 H 0.40808 0.26459 0.3761 0.0
H1508 H 0.41083 0.28687 0.37912 0.0
H1509 H 0.39497 0.27133 0.36211 0.0
H1510 H 0.36175 0.23917 0.41354 0.0
H1511 H 0.4176 0.26455 0.42797 0.0
H1512 H 0.34899 0.1966 0.42747 0.0
H1513 H 0.34037 0.2121 0.42669 0.0
H1514 H 0.34671 0.20643 0.4483 0.0
H1515 H 0.42959 0.25117 0.44768 0.0
H1516 H 0.41756 0.22677 0.44644 0.0
H1517 H 0.41452 0.23832 0.46544 0.0
H1518 H 0.3987 0.11881 0.41574 0.0
H1519 H 0.3874 0.0934 0.39776 0.0
H1520 H 0.36804 0.09277 0.39423 0.0
H1521 H 0.36517 0.07391 0.42769 0.0
H1522 H 0.40147 0.14238 0.43437 0.0
H1523 H 0.35091 0.12944 0.40931 0.0
H1524 H 0.41109 0.18566 0.45322 0.0
H1525 H 0.41839 0.16908 0.45203 0.0
H1526 H 0.40334 0.16783 0.46944 0.0
H1527 H 0.33447 0.14342 0.41896 0.0
H1528 H 0.34987 0.16737 0.41913 0.0
H1529 H 0.34108 0.15628 0.44025 0.0
H1530 H 0.37297 0.10652 0.56057 0.0
H1531 H 0.38394 0.13542 0.55496 0.0
H1532 H 0.32875 0.12062 0.55953 0.0
H1533 H 0.3963 0.16573 0.52219 0.0
H1534 H 0.4053 0.1636 0.54386 0.0
H1535 H 0.39904 0.18082 0.54082 0.0
H1536 H 0.31647 0.13696 0.54523 0.0
H1537 H 0.32872 0.15129 0.52664 0.0
H1538 H 0.33159 0.16072 0.5493 0.0
H1539 H 0.3547 0.26571 0.55485 0.0
H1540 H 0.37424 0.29736 0.54779 0.0
H1541 H 0.38479 0.28445 0.54177 0.0
H1542 H 0.39216 0.29832 0.56231 0.0
H1543 H 0.40024 0.25667 0.56505 0.0
H1544 H 0.34429 0.23611 0.5539 0.0
H1545 H 0.40707 0.23076 0.53213 0.0
H1546 H 0.40187 0.21792 0.55259 0.0
H1547 H 0.4157 0.2422 0.55398 0.0
H1548 H 0.32654 0.20941 0.53683 0.0
H1549 H 0.33407 0.19302 0.5384 0.0
H1550 H 0.33862 0.20646 0.51842 0.0
H1551 H 0.38216 0.19431 0.42843 0.0
H1552 H 0.36688 0.14821 0.4732 0.0
H1553 H 0.36245 0.14649 0.50549 0.0
H1554 H 0.36536 0.18774 0.5527 0.0
H1555 H 0.37667 0.23237 0.50726 0.0
H1556 H 0.38073 0.23396 0.47485 0.0
H1557 H 0.35419 0.0789 0.54105 0.0
H1558 H 0.35212 0.09776 0.53324 0.0
H1559 H 0.33443 0.08038 0.54618 0.0
C1560 C 0.87267 0.26725 0.37222 0.0
C1561 C 0.8852 0.26848 0.38809 0.0
C1562 C 0.86846 0.23953 0.4039 0.0
C1563 C 0.85544 0.24301 0.41135 0.0
C1564 C 0.84185 0.23017 0.42214 0.0
C1565 C 0.8413 0.21359 0.42569 0.0
C1566 C 0.85447 0.21013 0.41841 0.0
C1567 C 0.86784 0.22314 0.40757 0.0
C1568 C 0.82794 0.23425 0.42965 0.0
C1569 C 0.85434 0.19262 0.42199 0.0
C1570 C 0.73137 0.12232 0.35953 0.0
C1571 C 0.74104 0.11733 0.37421 0.0
C1572 C 0.75258 0.13446 0.40275 0.0
C1573 C 0.76768 0.1324 0.40551 0.0
C1574 C 0.78209 0.14463 0.4168 0.0
C1575 C 0.78142 0.15929 0.42534 0.0
C1576 C 0.766 0.16111 0.42291 0.0
C1577 C 0.75162 0.14844 0.41186 0.0
C1578 C 0.79812 0.14201 0.41941 0.0
C1579 C 0.76486 0.17663 0.43167 0.0
C1580 C 0.75701 0.12966 0.54277 0.0
C1581 C 0.77143 0.12735 0.53757 0.0
C1582 C 0.78588 0.14098 0.52832 0.0
C1583 C 0.78604 0.15732 0.52445 0.0
C1584 C 0.77191 0.15998 0.53038 0.0
C1585 C 0.75762 0.14612 0.53959 0.0
C1586 C 0.80095 0.13789 0.52257 0.0
C1587 C 0.7718 0.17735 0.5267 0.0
C1588 C 0.90746 0.27649 0.5472 0.0
C1589 C 0.89883 0.26273 0.56234 0.0
C1590 C 0.87773 0.23449 0.5456 0.0
C1591 C 0.87515 0.21767 0.53973 0.0
C1592 C 0.85988 0.20563 0.52936 0.0
C1593 C 0.84677 0.21052 0.52487 0.0
C1594 C 0.8492 0.22749 0.53082 0.0
C1595 C 0.86471 0.23937 0.54106 0.0
C1596 C 0.85778 0.18769 0.52319 0.0
C1597 C 0.83541 0.23304 0.52631 0.0
C1598 C 0.82665 0.19965 0.43658 0.0
C1599 C 0.81135 0.18653 0.42713 0.0
C1600 C 0.79704 0.17293 0.43641 0.0
C1601 C 0.79787 0.17242 0.45571 0.0
C1602 C 0.78376 0.15889 0.46547 0.0
C1603 C 0.78461 0.15859 0.48447 0.0
C1604 C 0.7997 0.17169 0.49445 0.0
C1605 C 0.80073 0.17142 0.51377 0.0
C1606 C 0.81606 0.18444 0.52325 0.0
C1607 C 0.83054 0.19781 0.51395 0.0
C1608 C 0.82968 0.19843 0.49464 0.0
C1609 C 0.84396 0.21172 0.48485 0.0
C1610 C 0.843 0.21219 0.46584 0.0
C1611 C 0.82775 0.19933 0.45589 0.0
C1612 C 0.81326 0.18571 0.46548 0.0
C1613 C 0.81419 0.18532 0.48488 0.0
C1614 C 0.71822 0.09284 0.53426 0.0
C1615 C 0.73425 0.09813 0.54735 0.0
O1616 O 0.88168 0.25135 0.39302 0.0
O1617 O 0.89297 0.24539 0.55548 0.0
O1618 O 0.74257 0.11655 0.55125 0.0
O1619 O 0.73891 0.12333 0.39116 0.0
H1620 H 0.88309 0.27545 0.39995 0.0
H1621 H 0.85854 0.26006 0.37645 0.0
H1622 H 0.8739 0.25976 0.3603 0.0
H1623 H 0.87592 0.28101 0.36792 0.0
H1624 H 0.85561 0.25558 0.40872 0.0
H1625 H 0.8779 0.22054 0.40182 0.0
H1626 H 0.8144 0.22372 0.42477 0.0
H1627 H 0.83007 0.24769 0.42551 0.0
H1628 H 0.82826 0.23387 0.44482 0.0
H1629 H 0.86605 0.19237 0.41615 0.0
H1630 H 0.84193 0.18118 0.4159 0.0
H1631 H 0.85428 0.19047 0.43695 0.0
H1632 H 0.75541 0.12453 0.3705 0.0
H1633 H 0.73252 0.11721 0.34587 0.0
H1634 H 0.73755 0.13726 0.35902 0.0
H1635 H 0.71699 0.11664 0.36258 0.0
H1636 H 0.76819 0.12124 0.39885 0.0
H1637 H 0.73981 0.14978 0.40975 0.0
H1638 H 0.80164 0.14268 0.4342 0.0
H1639 H 0.80978 0.15307 0.41266 0.0
H1640 H 0.79574 0.12888 0.41354 0.0
H1641 H 0.75251 0.17687 0.42734 0.0
H1642 H 0.77667 0.18967 0.42809 0.0
H1643 H 0.76503 0.17557 0.44678 0.0
H1644 H 0.74334 0.09444 0.54024 0.0
H1645 H 0.77162 0.11508 0.54089 0.0
H1646 H 0.74662 0.14792 0.54399 0.0
H1647 H 0.80229 0.13904 0.5075 0.0
H1648 H 0.79882 0.12441 0.52653 0.0
H1649 H 0.81375 0.14846 0.52893 0.0
H1650 H 0.76012 0.17755 0.53272 0.0
H1651 H 0.77146 0.17916 0.5117 0.0
H1652 H 0.78427 0.189 0.53241 0.0
H1653 H 0.88736 0.26371 0.56786 0.0
H1654 H 0.89761 0.27377 0.53587 0.0
H1655 H 0.91901 0.27573 0.5416 0.0
H1656 H 0.91217 0.29041 0.55263 0.0
H1657 H 0.88525 0.21403 0.54327 0.0
H1658 H 0.8665 0.25236 0.54538 0.0
H1659 H 0.85568 0.18606 0.5081 0.0
H1660 H 0.84577 0.17657 0.52943 0.0
H1661 H 0.8696 0.18629 0.52705 0.0
H1662 H 0.83892 0.2464 0.5325 0.0
H1663 H 0.82215 0.22275 0.53126 0.0
H1664 H 0.8341 0.2337 0.51124 0.0
H1665 H 0.81061 0.18685 0.41232 0.0
H1666 H 0.77185 0.1484 0.45853 0.0
H1667 H 0.7733 0.14791 0.49123 0.0
H1668 H 0.81683 0.18401 0.53805 0.0
H1669 H 0.85605 0.22195 0.49177 0.0
H1670 H 0.85438 0.22275 0.45904 0.0
H1671 H 0.71113 0.07803 0.53134 0.0
H1672 H 0.72293 0.09991 0.52112 0.0
H1673 H 0.70869 0.09665 0.54013 0.0
C1674 C 0.96917 0.41799 0.28903 0.0
C1675 C 0.97583 0.41179 0.27261 0.0
C1676 C 0.98824 0.43946 0.25429 0.0
C1677 C 0.97184 0.43797 0.24856 0.0
C1678 C 0.97136 0.45191 0.23885 0.0
C1679 C 0.98757 0.46754 0.23463 0.0
C1680 C 0.00409 0.46892 0.24009 0.0
C1681 C 0.00418 0.45482 0.24982 0.0
C1682 C 0.95353 0.44996 0.23308 0.0
C1683 C 0.02163 0.48532 0.23569 0.0
C1684 C 0.98118 0.5853 0.24272 0.0
C1685 C 0.9846 0.58092 0.2622 0.0
C1686 C 0.99311 0.5579 0.25446 0.0
C1687 C 0.00799 0.55595 0.25102 0.0
C1688 C 0.00617 0.54046 0.24207 0.0
C1689 C 0.98891 0.52638 0.23678 0.0
C1690 C 0.97367 0.52781 0.24112 0.0
C1691 C 0.97591 0.54362 0.24984 0.0
C1692 C 0.02274 0.53937 0.23782 0.0
C1693 C 0.95506 0.51284 0.23606 0.0
C1694 C 0.97941 0.55407 0.12285 0.0
C1695 C 0.99641 0.55603 0.12633 0.0
C1696 C 0.99824 0.5419 0.13392 0.0
C1697 C 0.98274 0.52545 0.13792 0.0
C1698 C 0.96562 0.5231 0.13342 0.0
C1699 C 0.96419 0.53744 0.12579 0.0
C1700 C 0.01669 0.54468 0.13813 0.0
C1701 C 0.94883 0.50565 0.13726 0.0
C1702 C 0.9879 0.40602 0.1246 0.0
C1703 C 0.98792 0.4145 0.10619 0.0
C1704 C 0.99488 0.4451 0.11633 0.0
C1705 C 0.00904 0.46259 0.11958 0.0
C1706 C 0.00662 0.47549 0.12928 0.0
C1707 C 0.98942 0.47085 0.13553 0.0
C1708 C 0.97482 0.45338 0.13163 0.0
C1709 C 0.97772 0.44059 0.12226 0.0
C1710 C 0.02252 0.49398 0.13315 0.0
C1711 C 0.95621 0.44813 0.13765 0.0
C1712 C 0.98725 0.48237 0.22437 0.0
C1713 C 0.98731 0.49651 0.23435 0.0
C1714 C 0.98705 0.51089 0.22551 0.0
C1715 C 0.98617 0.51097 0.20617 0.0
C1716 C 0.98536 0.52496 0.19685 0.0
C1717 C 0.98452 0.52494 0.17784 0.0
C1718 C 0.98491 0.51118 0.16737 0.0
C1719 C 0.98437 0.51124 0.14802 0.0
C1720 C 0.98547 0.49774 0.13803 0.0
C1721 C 0.987 0.48402 0.14687 0.0
C1722 C 0.98699 0.48343 0.16621 0.0
C1723 C 0.98816 0.46964 0.17556 0.0
C1724 C 0.98799 0.46911 0.19457 0.0
C1725 C 0.98713 0.48262 0.20502 0.0
C1726 C 0.98635 0.49685 0.19591 0.0
C1727 C 0.986 0.49711 0.17648 0.0
C1728 C 0.97594 0.59059 0.13477 0.0
C1729 C 0.98719 0.58583 0.12227 0.0
O1730 O 0.98944 0.42659 0.26416 0.0
O1731 O 0.99849 0.43315 0.10753 0.0
O1732 O 0.97721 0.56786 0.11659 0.0
O1733 O 0.99608 0.57383 0.26205 0.0
H1734 H 0.96457 0.40406 0.26262 0.0
H1735 H 0.96347 0.42657 0.28459 0.0
H1736 H 0.98036 0.42593 0.29901 0.0
H1737 H 0.95851 0.40611 0.29599 0.0
H1738 H 0.95937 0.42604 0.25163 0.0
H1739 H 0.01677 0.45581 0.25418 0.0
H1740 H 0.95231 0.46143 0.23883 0.0
H1741 H 0.94208 0.4371 0.23765 0.0
H1742 H 0.95268 0.45047 0.21795 0.0
H1743 H 0.03334 0.48411 0.24047 0.0
H1744 H 0.02242 0.49752 0.24224 0.0
H1745 H 0.02241 0.48735 0.22068 0.0
H1746 H 0.9717 0.571 0.26822 0.0
H1747 H 0.97241 0.59148 0.24296 0.0
H1748 H 0.97437 0.57283 0.23404 0.0
H1749 H 0.99401 0.59484 0.23635 0.0
H1750 H 0.02118 0.56695 0.25486 0.0
H1751 H 0.96423 0.54477 0.25281 0.0
H1752 H 0.02327 0.53739 0.22286 0.0
H1753 H 0.0222 0.52753 0.24467 0.0
H1754 H 0.03522 0.55171 0.24242 0.0
H1755 H 0.94455 0.51506 0.24219 0.0
H1756 H 0.95331 0.49965 0.24062 0.0
H1757 H 0.95313 0.51197 0.22095 0.0
H1758 H 0.99908 0.58822 0.13074 0.0
H1759 H 0.00828 0.56857 0.12317 0.0
H1760 H 0.95114 0.53594 0.12268 0.0
H1761 H 0.0185 0.54399 0.15312 0.0
H1762 H 0.02742 0.55791 0.13336 0.0
H1763 H 0.0182 0.53371 0.13153 0.0
H1764 H 0.93656 0.50564 0.13215 0.0
H1765 H 0.94785 0.50345 0.15223 0.0
H1766 H 0.94944 0.49412 0.13074 0.0
H1767 H 0.97399 0.41086 0.10208 0.0
H1768 H 0.97958 0.39106 0.12353 0.0
H1769 H 0.98222 0.41091 0.1353 0.0
H1770 H 0.00176 0.40964 0.12896 0.0
H1771 H 0.02218 0.46599 0.11483 0.0
H1772 H 0.96652 0.42718 0.11972 0.0
H1773 H 0.02388 0.49718 0.14805 0.0
H1774 H 0.02041 0.50432 0.12611 0.0
H1775 H 0.03521 0.49504 0.12844 0.0
H1776 H 0.94593 0.43502 0.13143 0.0
H1777 H 0.95281 0.45874 0.13392 0.0
H1778 H 0.95566 0.44698 0.15275 0.0
H1779 H 0.98786 0.49648 0.24919 0.0
H1780 H 0.98525 0.53604 0.20412 0.0
H1781 H 0.98376 0.53599 0.17147 0.0
H1782 H 0.98536 0.49804 0.1232 0.0
H1783 H 0.98909 0.45901 0.16829 0.0
H1784 H 0.98875 0.45808 0.20098 0.0
H1785 H 0.96307 0.58753 0.12793 0.0
H1786 H 0.98344 0.60516 0.1388 0.0
H1787 H 0.97288 0.58253 0.14738 0.0
C1788 C 0.46165 0.38939 0.31345 0.0
C1789 C 0.45272 0.39788 0.30207 0.0
C1790 C 0.465 0.41073 0.27279 0.0
C1791 C 0.46114 0.42489 0.2718 0.0
C1792 C 0.47118 0.43983 0.26079 0.0
C1793 C 0.48562 0.44072 0.25092 0.0
C1794 C 0.48936 0.42627 0.25177 0.0
C1795 C 0.47869 0.41124 0.2624 0.0
C1796 C 0.46651 0.45473 0.25994 0.0
C1797 C 0.50485 0.42684 0.24181 0.0
C1798 C 0.59908 0.57358 0.29553 0.0
C1799 C 0.59013 0.55578 0.28564 0.0
C1800 C 0.56007 0.53291 0.27514 0.0
C1801 C 0.5654 0.52219 0.26525 0.0
C1802 C 0.55301 0.50753 0.25425 0.0
C1803 C 0.53506 0.50383 0.2527 0.0
C1804 C 0.52973 0.51474 0.26251 0.0
C1805 C 0.54228 0.52898 0.2738 0.0
C1806 C 0.55911 0.4959 0.24442 0.0
C1807 C 0.51078 0.51135 0.26113 0.0
C1808 C 0.55535 0.53569 0.13317 0.0
C1809 C 0.56125 0.52469 0.14158 0.0
C1810 C 0.54942 0.50944 0.15135 0.0
C1811 C 0.53147 0.50547 0.15328 0.0
C1812 C 0.52552 0.51654 0.14482 0.0
C1813 C 0.5375 0.53133 0.13465 0.0
C1814 C 0.55611 0.49757 0.15954 0.0
C1815 C 0.50653 0.5128 0.14655 0.0
C1816 C 0.42237 0.37221 0.13958 0.0
C1817 C 0.42449 0.38726 0.12674 0.0
C1818 C 0.45471 0.41261 0.13163 0.0
C1819 C 0.47173 0.41481 0.13507 0.0
C1820 C 0.48476 0.42983 0.14517 0.0
C1821 C 0.48068 0.44306 0.15169 0.0
C1822 C 0.46374 0.44131 0.14752 0.0
C1823 C 0.45094 0.42612 0.13746 0.0
C1824 C 0.50279 0.43144 0.14914 0.0
C1825 C 0.45916 0.45546 0.15381 0.0
C1826 C 0.49727 0.4571 0.24039 0.0
C1827 C 0.51009 0.47239 0.25017 0.0
C1828 C 0.52173 0.48825 0.24128 0.0
C1829 C 0.5207 0.48892 0.22198 0.0
C1830 C 0.53198 0.50471 0.21257 0.0
C1831 C 0.53128 0.50504 0.19355 0.0
C1832 C 0.51925 0.48959 0.1832 0.0
C1833 C 0.51884 0.48957 0.16383 0.0
C1834 C 0.5063 0.47415 0.15403 0.0
C1835 C 0.49403 0.45866 0.163 0.0
C1836 C 0.49448 0.45827 0.18233 0.0
C1837 C 0.48248 0.44282 0.19179 0.0
C1838 C 0.48319 0.44248 0.21081 0.0
C1839 C 0.49604 0.45752 0.22109 0.0
C1840 C 0.50798 0.47341 0.21186 0.0
C1841 C 0.50723 0.47376 0.19245 0.0
C1842 C 0.59101 0.57101 0.14262 0.0
C1843 C 0.58481 0.56035 0.12438 0.0
O1844 O 0.45575 0.39646 0.28372 0.0
O1845 O 0.44237 0.39747 0.12243 0.0
O1846 O 0.56627 0.55052 0.12348 0.0
O1847 O 0.5716 0.54708 0.2861 0.0
H1848 H 0.459 0.41237 0.30651 0.0
H1849 H 0.47624 0.39644 0.31097 0.0
H1850 H 0.45593 0.37485 0.30967 0.0
H1851 H 0.45976 0.39066 0.32828 0.0
H1852 H 0.45022 0.4242 0.27958 0.0
H1853 H 0.48143 0.40011 0.26321 0.0
H1854 H 0.47677 0.46669 0.26784 0.0
H1855 H 0.45323 0.45063 0.26576 0.0
H1856 H 0.46649 0.45887 0.24558 0.0
H1857 H 0.50736 0.4157 0.24582 0.0
H1858 H 0.51723 0.43994 0.2446 0.0
H1859 H 0.50198 0.42567 0.22685 0.0
H1860 H 0.59581 0.54678 0.28872 0.0
H1861 H 0.60705 0.57194 0.30703 0.0
H1862 H 0.58882 0.57378 0.30478 0.0
H1863 H 0.61116 0.59238 0.27454 0.0
H1864 H 0.57912 0.52501 0.26625 0.0
H1865 H 0.53829 0.53732 0.28148 0.0
H1866 H 0.54978 0.48138 0.24687 0.0
H1867 H 0.57283 0.49915 0.24884 0.0
H1868 H 0.55901 0.49798 0.22947 0.0
H1869 H 0.50944 0.52257 0.26738 0.0
H1870 H 0.50186 0.49873 0.26832 0.0
H1871 H 0.50611 0.5095 0.2466 0.0
H1872 H 0.59046 0.55112 0.12326 0.0
H1873 H 0.57496 0.5277 0.14043 0.0
H1874 H 0.53305 0.53984 0.12804 0.0
H1875 H 0.55745 0.49958 0.17462 0.0
H1876 H 0.56935 0.5007 0.15427 0.0
H1877 H 0.54644 0.48309 0.15656 0.0
H1878 H 0.50475 0.52409 0.14145 0.0
H1879 H 0.50251 0.51043 0.16105 0.0
H1880 H 0.49738 0.50038 0.13851 0.0
H1881 H 0.41983 0.39543 0.13441 0.0
H1882 H 0.40819 0.36384 0.14346 0.0
H1883 H 0.43052 0.3783 0.15233 0.0
H1884 H 0.42712 0.36354 0.13306 0.0
H1885 H 0.47461 0.40447 0.13019 0.0
H1886 H 0.43812 0.42499 0.13401 0.0
H1887 H 0.50521 0.43194 0.16416 0.0
H1888 H 0.51348 0.44426 0.14358 0.0
H1889 H 0.50388 0.41999 0.14311 0.0
H1890 H 0.44557 0.45237 0.14903 0.0
H1891 H 0.46909 0.46887 0.14865 0.0
H1892 H 0.45986 0.45645 0.16898 0.0
H1893 H 0.51108 0.47191 0.26495 0.0
H1894 H 0.54159 0.51697 0.2198 0.0
H1895 H 0.54036 0.51754 0.18705 0.0
H1896 H 0.50599 0.47423 0.13918 0.0
H1897 H 0.47244 0.43077 0.1846 0.0
H1898 H 0.47362 0.43022 0.21734 0.0
H1899 H 0.58581 0.58063 0.1437 0.0
H1900 H 0.60584 0.57867 0.14389 0.0
H1901 H 0.58602 0.56166 0.15427 0.0
C1902 C 0.44753 0.02685 0.29888 0.0
C1903 C 0.43266 0.01805 0.28403 0.0
C1904 C 0.44821 0.0081 0.26272 0.0
C1905 C 0.46038 0.02523 0.25615 0.0
C1906 C 0.4749 0.02765 0.24566 0.0
C1907 C 0.47723 0.01266 0.24157 0.0
C1908 C 0.46458 0.99529 0.24752 0.0
C1909 C 0.45017 0.99324 0.25792 0.0
C1910 C 0.488 0.04631 0.23926 0.0
C1911 C 0.46658 0.97899 0.24329 0.0
C1912 C 0.58989 0.0555 0.31675 0.0
C1913 C 0.58077 0.03886 0.30401 0.0
C1914 C 0.56899 0.03861 0.27342 0.0
C1915 C 0.55552 0.02044 0.27207 0.0
C1916 C 0.54124 0.01484 0.25932 0.0
C1917 C 0.54031 0.02776 0.24794 0.0
C1918 C 0.55407 0.04606 0.24916 0.0
C1919 C 0.56846 0.05114 0.26162 0.0
C1920 C 0.52705 0.99515 0.25817 0.0
C1921 C 0.55339 0.06038 0.23766 0.0
C1922 C 0.57677 0.02596 0.13405 0.0
C1923 C 0.56333 0.00833 0.13793 0.0
C1924 C 0.54725 0.00523 0.14568 0.0
C1925 C 0.54448 0.02001 0.1494 0.0
C1926 C 0.55768 0.03767 0.1448 0.0
C1927 C 0.57361 0.04038 0.13705 0.0
C1928 C 0.53324 0.98618 0.15003 0.0
C1929 C 0.55504 0.0537 0.14832 0.0
C1930 C 0.41369 0.99179 0.12903 0.0
C1931 C 0.42536 0.00321 0.11346 0.0
C1932 C 0.45254 0.0017 0.12009 0.0
C1933 C 0.45669 0.98794 0.12282 0.0
C1934 C 0.47119 0.99073 0.13423 0.0
C1935 C 0.48212 0.00793 0.14261 0.0
C1936 C 0.47851 0.02219 0.13913 0.0
C1937 C 0.46362 0.01887 0.12805 0.0
C1938 C 0.47468 0.97523 0.13752 0.0
C1939 C 0.49033 0.04093 0.14714 0.0
C1940 C 0.49352 0.01532 0.2322 0.0
C1941 C 0.50871 0.01971 0.2431 0.0
C1942 C 0.52456 0.02232 0.23543 0.0
C1943 C 0.52534 0.02042 0.21628 0.0
C1944 C 0.5409 0.02248 0.20813 0.0
C1945 C 0.54176 0.02128 0.18922 0.0
C1946 C 0.52705 0.01785 0.17774 0.0
C1947 C 0.52796 0.01706 0.15848 0.0
C1948 C 0.51312 0.01373 0.14747 0.0
C1949 C 0.49721 0.01097 0.15516 0.0
C1950 C 0.49598 0.0115 0.17441 0.0
C1951 C 0.48009 0.00846 0.18266 0.0
C1952 C 0.4792 0.00962 0.20158 0.0
C1953 C 0.49414 0.01374 0.21299 0.0
C1954 C 0.51015 0.0164 0.20501 0.0
C1955 C 0.51104 0.0152 0.18571 0.0
C1956 C 0.61762 0.03284 0.14481 0.0
C1957 C 0.60245 0.02101 0.13119 0.0
O1958 O 0.43462 0.00527 0.27388 0.0
O1959 O 0.43794 0.99803 0.1095 0.0
O1960 O 0.59267 0.02956 0.12696 0.0
O1961 O 0.58256 0.04449 0.28607 0.0
H1962 H 0.43317 0.0286 0.27478 0.0
H1963 H 0.46086 0.03438 0.29271 0.0
H1964 H 0.4475 0.0164 0.30791 0.0
H1965 H 0.44556 0.03662 0.30735 0.0
H1966 H 0.45879 0.03679 0.25934 0.0
H1967 H 0.44061 0.98005 0.26285 0.0
H1968 H 0.50134 0.05081 0.24582 0.0
H1969 H 0.48376 0.05639 0.2426 0.0
H1970 H 0.4895 0.04597 0.22424 0.0
H1971 H 0.45531 0.96631 0.24842 0.0
H1972 H 0.47927 0.9809 0.24963 0.0
H1973 H 0.46735 0.97752 0.22828 0.0
H1974 H 0.56637 0.03152 0.30759 0.0
H1975 H 0.58848 0.05136 0.33126 0.0
H1976 H 0.58354 0.06403 0.3148 0.0
H1977 H 0.60435 0.06372 0.31379 0.0
H1978 H 0.5562 0.01065 0.28094 0.0
H1979 H 0.57903 0.06511 0.26273 0.0
H1980 H 0.51448 0.99353 0.26389 0.0
H1981 H 0.53106 0.98647 0.2659 0.0
H1982 H 0.52417 0.99035 0.24367 0.0
H1983 H 0.56366 0.07425 0.24216 0.0
H1984 H 0.53998 0.05928 0.23826 0.0
H1985 H 0.55573 0.05838 0.22317 0.0
H1986 H 0.59411 0.00798 0.13804 0.0
H1987 H 0.56517 0.99692 0.13471 0.0
H1988 H 0.58389 0.05388 0.13366 0.0
H1989 H 0.53071 0.98521 0.16492 0.0
H1990 H 0.5373 0.97609 0.14609 0.0
H1991 H 0.52046 0.98271 0.14273 0.0
H1992 H 0.5664 0.06652 0.14357 0.0
H1993 H 0.55352 0.05508 0.1632 0.0
H1994 H 0.54255 0.05151 0.14126 0.0
H1995 H 0.43211 0.01769 0.11779 0.0
H1996 H 0.40355 0.99578 0.13242 0.0
H1997 H 0.42212 0.99389 0.14152 0.0
H1998 H 0.40674 0.9772 0.1251 0.0
H1999 H 0.44818 0.97481 0.11638 0.0
H2000 H 0.46093 0.0298 0.12538 0.0
H2001 H 0.47576 0.97348 0.15244 0.0
H2002 H 0.48762 0.9783 0.1315 0.0
H2003 H 0.46398 0.9623 0.13137 0.0
H2004 H 0.48732 0.05106 0.14097 0.0
H2005 H 0.50464 0.04523 0.14507 0.0
H2006 H 0.48834 0.04085 0.16209 0.0
H2007 H 0.50822 0.02122 0.2578 0.0
H2008 H 0.55264 0.02517 0.21628 0.0
H2009 H 0.55417 0.02318 0.18372 0.0
H2010 H 0.514 0.01338 0.1327 0.0
H2011 H 0.46817 0.00527 0.17456 0.0
H2012 H 0.4667 0.00734 0.20715 0.0
H2013 H 0.62634 0.04647 0.13925 0.0
H2014 H 0.62586 0.0264 0.14803 0.0
H2015 H 0.61193 0.03449 0.15773 0.0
C2016 C 0.54692 0.96669 0.7174 0.0
C2017 C 0.56176 0.984 0.72659 0.0
C2018 C 0.55117 0.98607 0.75637 0.0
C2019 C 0.55412 0.00376 0.75791 0.0
C2020 C 0.54328 0.00778 0.76892 0.0
C2021 C 0.529 0.99369 0.77828 0.0
C2022 C 0.52617 0.97582 0.77685 0.0
C2023 C 0.5376 0.97234 0.76619 0.0
C2024 C 0.54693 0.02702 0.77033 0.0
C2025 C 0.51084 0.96029 0.78615 0.0
C2026 C 0.4134 0.00709 0.72967 0.0
C2027 C 0.42259 0.99973 0.74129 0.0
C2028 C 0.45194 0.00943 0.75576 0.0
C2029 C 0.44827 0.99197 0.76054 0.0
C2030 C 0.46096 0.98937 0.77044 0.0
C2031 C 0.47758 0.0045 0.77569 0.0
C2032 C 0.48144 0.02203 0.77058 0.0
C2033 C 0.46854 0.02424 0.76065 0.0
C2034 C 0.45651 0.97048 0.77555 0.0
C2035 C 0.49908 0.03843 0.7759 0.0
C2036 C 0.44461 0.00156 0.89245 0.0
C2037 C 0.44171 0.98519 0.88446 0.0
C2038 C 0.45553 0.98417 0.87555 0.0
C2039 C 0.47249 0.99986 0.87438 0.0
C2040 C 0.47547 0.01632 0.88246 0.0
C2041 C 0.4615 0.0169 0.89149 0.0
C2042 C 0.45196 0.96634 0.86725 0.0
C2043 C 0.49336 0.03333 0.8814 0.0
C2044 C 0.54248 0.95646 0.93065 0.0
C2045 C 0.55897 0.96903 0.91967 0.0
C2046 C 0.54835 0.98694 0.90244 0.0
C2047 C 0.53566 0.97269 0.89118 0.0
C2048 C 0.52427 0.97536 0.87915 0.0
C2049 C 0.52614 0.9928 0.87775 0.0
C2050 C 0.53947 0.00733 0.88845 0.0
C2051 C 0.55026 0.00414 0.90078 0.0
C2052 C 0.50999 0.95941 0.86825 0.0
C2053 C 0.5421 0.02619 0.88716 0.0
C2054 C 0.51638 0.99739 0.78861 0.0
C2055 C 0.50362 0.99962 0.77852 0.0
C2056 C 0.49063 0.00209 0.78722 0.0
C2057 C 0.48997 0.00193 0.80651 0.0
C2058 C 0.47676 0.00388 0.81565 0.0
C2059 C 0.47586 0.00313 0.83461 0.0
C2060 C 0.48818 0.00048 0.84517 0.0
C2061 C 0.48702 0.99913 0.8644 0.0
C2062 C 0.49961 0.9967 0.87451 0.0
C2063 C 0.5135 0.99565 0.86596 0.0
C2064 C 0.51485 0.9969 0.84671 0.0
C2065 C 0.52871 0.99605 0.83762 0.0
C2066 C 0.52939 0.99643 0.8186 0.0
C2067 C 0.51632 0.99782 0.80796 0.0
C2068 C 0.50281 0.99968 0.81691 0.0
C2069 C 0.50198 0.99908 0.83628 0.0
C2070 C 0.40361 0.9893 0.88448 0.0
C2071 C 0.4137 0.99063 0.90246 0.0
O2072 O 0.56126 0.982 0.74539 0.0
O2073 O 0.55876 0.98475 0.9153 0.0
O2074 O 0.43167 0.00334 0.90111 0.0
O2075 O 0.43989 0.01259 0.74657 0.0
H2076 H 0.5594 0.99536 0.72289 0.0
H2077 H 0.53367 0.96403 0.7222 0.0
H2078 H 0.54869 0.95495 0.72082 0.0
H2079 H 0.54704 0.96808 0.7023 0.0
H2080 H 0.56494 0.01438 0.7505 0.0
H2081 H 0.53557 0.95875 0.76493 0.0
H2082 H 0.53642 0.02823 0.76244 0.0
H2083 H 0.56015 0.03674 0.76482 0.0
H2084 H 0.54647 0.03082 0.7848 0.0
H2085 H 0.50888 0.94698 0.78138 0.0
H2086 H 0.4982 0.96059 0.7836 0.0
H2087 H 0.51353 0.96153 0.80114 0.0
H2088 H 0.41461 0.99122 0.75277 0.0
H2089 H 0.40971 0.99367 0.70413 0.0
H2090 H 0.42126 0.02226 0.73139 0.0
H2091 H 0.40188 0.0056 0.73802 0.0
H2092 H 0.43553 0.98034 0.7567 0.0
H2093 H 0.47129 0.03763 0.75681 0.0
H2094 H 0.46706 0.96763 0.77074 0.0
H2095 H 0.44338 0.96004 0.76965 0.0
H2096 H 0.45619 0.96938 0.79067 0.0
H2097 H 0.50012 0.05112 0.77066 0.0
H2098 H 0.51024 0.03688 0.77049 0.0
H2099 H 0.50072 0.03959 0.79104 0.0
H2100 H 0.41226 0.97721 0.90561 0.0
H2101 H 0.42875 0.97315 0.88504 0.0
H2102 H 0.46364 0.02946 0.8977 0.0
H2103 H 0.45272 0.96737 0.85214 0.0
H2104 H 0.43859 0.95505 0.8707 0.0
H2105 H 0.46235 0.96307 0.87209 0.0
H2106 H 0.49321 0.04528 0.88746 0.0
H2107 H 0.49731 0.03609 0.86691 0.0
H2108 H 0.50371 0.03144 0.88877 0.0
H2109 H 0.55907 0.96188 0.90688 0.0
H2110 H 0.54316 0.94424 0.93466 0.0
H2111 H 0.52996 0.95191 0.92244 0.0
H2112 H 0.54167 0.96345 0.94321 0.0
H2113 H 0.53426 0.95937 0.89191 0.0
H2114 H 0.56018 0.01509 0.90938 0.0
H2115 H 0.51333 0.96101 0.85356 0.0
H2116 H 0.49683 0.95877 0.86953 0.0
H2117 H 0.50869 0.94639 0.87275 0.0
H2118 H 0.55485 0.03644 0.89394 0.0
H2119 H 0.5309 0.0267 0.89389 0.0
H2120 H 0.54202 0.02982 0.87262 0.0
H2121 H 0.5037 0.99927 0.76369 0.0
H2122 H 0.46682 0.00583 0.80825 0.0
H2123 H 0.46529 0.00456 0.84087 0.0
H2124 H 0.49852 0.99552 0.88925 0.0
H2125 H 0.53906 0.99486 0.84511 0.0
H2126 H 0.54023 0.99551 0.81232 0.0
H2127 H 0.40495 0.00263 0.88114 0.0
H2128 H 0.38919 0.97921 0.88557 0.0
H2129 H 0.40903 0.98492 0.87308 0.0
C2130 C 0.05198 0.59637 0.71924 0.0
C2131 C 0.03595 0.59095 0.73151 0.0
C2132 C 0.03615 0.57695 0.76017 0.0
C2133 C 0.01818 0.56337 0.76075 0.0
C2134 C 0.01319 0.54769 0.7708 0.0
C2135 C 0.02651 0.54555 0.78035 0.0
C2136 C 0.04457 0.55954 0.78027 0.0
C2137 C 0.04912 0.57523 0.77037 0.0
C2138 C 0.99375 0.53328 0.77101 0.0
C2139 C 0.05911 0.55774 0.79028 0.0
C2140 C 0.01323 0.4153 0.73164 0.0
C2141 C 0.02109 0.43253 0.74247 0.0
C2142 C 0.01287 0.45504 0.75213 0.0
C2143 C 0.02775 0.46488 0.764 0.0
C2144 C 0.02885 0.47881 0.77537 0.0
C2145 C 0.01455 0.48262 0.77527 0.0
C2146 C 0.99952 0.47264 0.7634 0.0
C2147 C 0.99901 0.45914 0.75181 0.0
C2148 C 0.04536 0.48952 0.78741 0.0
C2149 C 0.98397 0.47622 0.76294 0.0
C2150 C 0.99242 0.44072 0.89158 0.0
C2151 C 0.01011 0.45282 0.88692 0.0
C2152 C 0.01429 0.46884 0.87781 0.0
C2153 C 0.00048 0.47272 0.87319 0.0
C2154 C 0.9827 0.46066 0.87814 0.0
C2155 C 0.97896 0.44491 0.88751 0.0
C2156 C 0.0335 0.48172 0.87332 0.0
C2157 C 0.96765 0.46442 0.87356 0.0
C2158 C 0.02362 0.60481 0.88757 0.0
C2159 C 0.01182 0.59176 0.90217 0.0
C2160 C 0.01634 0.56578 0.8983 0.0
C2161 C 0.03089 0.56288 0.89651 0.0
C2162 C 0.02925 0.54804 0.88634 0.0
C2163 C 0.01253 0.53569 0.87806 0.0
C2164 C 0.99751 0.53801 0.88066 0.0
C2165 C 0.99956 0.55301 0.89082 0.0
C2166 C 0.04545 0.54577 0.88406 0.0
C2167 C 0.97938 0.52475 0.87246 0.0
C2168 C 0.02161 0.52842 0.78983 0.0
C2169 C 0.02012 0.51388 0.77936 0.0
C2170 C 0.0155 0.49729 0.78727 0.0
C2171 C 0.01224 0.49506 0.80623 0.0
C2172 C 0.00717 0.47846 0.81461 0.0
C2173 C 0.00456 0.47659 0.83337 0.0
C2174 C 0.00686 0.49122 0.84446 0.0
C2175 C 0.0047 0.48962 0.86361 0.0
C2176 C 0.00673 0.50434 0.87416 0.0
C2177 C 0.01087 0.52072 0.86612 0.0
C2178 C 0.01329 0.52268 0.84703 0.0
C2179 C 0.01755 0.53904 0.83853 0.0
C2180 C 0.0201 0.5409 0.81978 0.0
C2181 C 0.01862 0.52653 0.80883 0.0
C2182 C 0.01406 0.50982 0.81707 0.0
C2183 C 0.01138 0.5079 0.8362 0.0
C2184 C 0.98161 0.39936 0.88255 0.0
C2185 C 0.99401 0.41322 0.89704 0.0
O2186 O 0.04134 0.59168 0.74964 0.0
O2187 O 0.01896 0.58093 0.90738 0.0
O2188 O 0.98798 0.42532 0.90069 0.0
O2189 O 0.01138 0.44154 0.74083 0.0
H2190 H 0.02601 0.57682 0.72718 0.0
H2191 H 0.05666 0.58634 0.7204 0.0
H2192 H 0.0633 0.60985 0.72334 0.0
H2193 H 0.04809 0.59663 0.7047 0.0
H2194 H 0.00808 0.56502 0.7533 0.0
H2195 H 0.06293 0.58593 0.76997 0.0
H2196 H 0.99192 0.52101 0.76361 0.0
H2197 H 0.98486 0.53775 0.76445 0.0
H2198 H 0.98958 0.52946 0.78531 0.0
H2199 H 0.07262 0.56945 0.78813 0.0
H2200 H 0.05897 0.5452 0.78562 0.0
H2201 H 0.05659 0.5566 0.80517 0.0
H2202 H 0.03578 0.4415 0.74114 0.0
H2203 H 0.02363 0.41739 0.72134 0.0
H2204 H 0.00367 0.41584 0.7212 0.0
H2205 H 0.00496 0.39524 0.75173 0.0
H2206 H 0.03865 0.46193 0.76427 0.0
H2207 H 0.98761 0.45149 0.7426 0.0
H2208 H 0.04195 0.48613 0.80193 0.0
H2209 H 0.05042 0.50423 0.78605 0.0
H2210 H 0.05625 0.4866 0.78404 0.0
H2211 H 0.97231 0.4657 0.75489 0.0
H2212 H 0.98821 0.48951 0.75667 0.0
H2213 H 0.97971 0.47682 0.77706 0.0
H2214 H 0.00775 0.42027 0.89163 0.0
H2215 H 0.02075 0.4501 0.8908 0.0
H2216 H 0.96541 0.43561 0.89147 0.0
H2217 H 0.03488 0.48254 0.85825 0.0
H2218 H 0.04285 0.47745 0.87912 0.0
H2219 H 0.03751 0.4955 0.87869 0.0
H2220 H 0.95435 0.45289 0.87681 0.0
H2221 H 0.96769 0.46739 0.8588 0.0
H2222 H 0.96968 0.47653 0.88146 0.0
H2223 H 0.99827 0.58362 0.89577 0.0
H2224 H 0.0181 0.61353 0.88294 0.0
H2225 H 0.02394 0.59701 0.87545 0.0
H2226 H 0.03757 0.61333 0.89293 0.0
H2227 H 0.04371 0.57264 0.90264 0.0
H2228 H 0.98797 0.55457 0.89299 0.0
H2229 H 0.04854 0.54632 0.86933 0.0
H2230 H 0.04257 0.53231 0.88898 0.0
H2231 H 0.05743 0.55637 0.89166 0.0
H2232 H 0.96886 0.52804 0.87636 0.0
H2233 H 0.97543 0.51088 0.87698 0.0
H2234 H 0.98006 0.52474 0.85732 0.0
H2235 H 0.02266 0.51552 0.76483 0.0
H2236 H 0.00526 0.46675 0.80677 0.0
H2237 H 0.0008 0.46353 0.83909 0.0
H2238 H 0.00503 0.50301 0.88884 0.0
H2239 H 0.01903 0.55062 0.84628 0.0
H2240 H 0.02336 0.5538 0.81399 0.0
H2241 H 0.9677 0.39182 0.88748 0.0
H2242 H 0.98627 0.3896 0.87924 0.0
H2243 H 0.98159 0.40635 0.8698 0.0
C2244 C 0.5422 0.6059 0.73206 0.0
C2245 C 0.55518 0.60714 0.74749 0.0
C2246 C 0.5376 0.57863 0.76382 0.0
C2247 C 0.525 0.58287 0.77098 0.0
C2248 C 0.51076 0.57032 0.78134 0.0
C2249 C 0.50941 0.55341 0.78517 0.0
C2250 C 0.52233 0.54928 0.77839 0.0
C2251 C 0.53615 0.56191 0.76768 0.0
C2252 C 0.49706 0.57509 0.78801 0.0
C2253 C 0.5215 0.53152 0.78239 0.0
C2254 C 0.38048 0.44856 0.76011 0.0
C2255 C 0.39518 0.44809 0.74885 0.0
C2256 C 0.4228 0.46579 0.76767 0.0
C2257 C 0.43617 0.4646 0.77768 0.0
C2258 C 0.45042 0.47991 0.7862 0.0
C2259 C 0.45104 0.49682 0.78507 0.0
C2260 C 0.43779 0.49826 0.7746 0.0
C2261 C 0.4239 0.48277 0.76584 0.0
C2262 C 0.46461 0.47789 0.79671 0.0
C2263 C 0.43808 0.51608 0.77308 0.0
C2264 C 0.41521 0.47999 0.89969 0.0
C2265 C 0.42929 0.47647 0.89662 0.0
C2266 C 0.44494 0.4893 0.88824 0.0
C2267 C 0.44655 0.506 0.88298 0.0
C2268 C 0.43275 0.50992 0.88693 0.0
C2269 C 0.41729 0.49688 0.8954 0.0
C2270 C 0.45961 0.48487 0.88467 0.0
C2271 C 0.43415 0.52768 0.88173 0.0
C2272 C 0.56759 0.62522 0.90458 0.0
C2273 C 0.55867 0.61275 0.92064 0.0
C2274 C 0.53805 0.58337 0.90549 0.0
C2275 C 0.53558 0.56618 0.90153 0.0
C2276 C 0.52074 0.55348 0.89108 0.0
C2277 C 0.50799 0.55813 0.88446 0.0
C2278 C 0.51027 0.57544 0.88852 0.0
C2279 C 0.52531 0.58794 0.89898 0.0
C2280 C 0.51873 0.53513 0.88702 0.0
C2281 C 0.49685 0.58074 0.88169 0.0
C2282 C 0.49428 0.53993 0.79595 0.0
C2283 C 0.47997 0.52552 0.78645 0.0
C2284 C 0.46505 0.51268 0.79564 0.0
C2285 C 0.46401 0.51452 0.81475 0.0
C2286 C 0.44874 0.50247 0.82425 0.0
C2287 C 0.44804 0.50402 0.84313 0.0
C2288 C 0.46263 0.51761 0.85327 0.0
C2289 C 0.46224 0.51895 0.87254 0.0
C2290 C 0.47705 0.53249 0.88223 0.0
C2291 C 0.49237 0.54483 0.87319 0.0
C2292 C 0.49293 0.54384 0.8539 0.0
C2293 C 0.50808 0.5561 0.84435 0.0
C2294 C 0.50854 0.55491 0.82538 0.0
C2295 C 0.49394 0.54132 0.81523 0.0
C2296 C 0.47864 0.5287 0.82462 0.0
C2297 C 0.47804 0.5301 0.84394 0.0
C2298 C 0.37323 0.44362 0.89241 0.0
C2299 C 0.39084 0.44905 0.90286 0.0
O2300 O 0.55116 0.59001 0.75301 0.0
O2301 O 0.55292 0.59494 0.91551 0.0
O2302 O 0.3995 0.46747 0.90679 0.0
O2303 O 0.40905 0.45018 0.76046 0.0
H2304 H 0.55414 0.6149 0.75929 0.0
H2305 H 0.52828 0.59953 0.73686 0.0
H2306 H 0.54248 0.59769 0.7203 0.0
H2307 H 0.54588 0.61964 0.72729 0.0
H2308 H 0.52598 0.59581 0.76841 0.0
H2309 H 0.54595 0.55874 0.76221 0.0
H2310 H 0.48332 0.56396 0.78461 0.0
H2311 H 0.49871 0.58775 0.78198 0.0
H2312 H 0.49834 0.5769 0.80312 0.0
H2313 H 0.5337 0.53128 0.77806 0.0
H2314 H 0.50973 0.5204 0.77504 0.0
H2315 H 0.5198 0.5288 0.79726 0.0
H2316 H 0.40012 0.45932 0.73899 0.0
H2317 H 0.36941 0.44724 0.75095 0.0
H2318 H 0.38583 0.46158 0.76779 0.0
H2319 H 0.37522 0.43757 0.77023 0.0
H2320 H 0.43532 0.45151 0.7789 0.0
H2321 H 0.41382 0.48404 0.75795 0.0
H2322 H 0.46291 0.47892 0.8116 0.0
H2323 H 0.47816 0.4889 0.79333 0.0
H2324 H 0.46383 0.46468 0.79378 0.0
H2325 H 0.42626 0.51478 0.76528 0.0
H2326 H 0.45037 0.5259 0.76612 0.0
H2327 H 0.43845 0.52172 0.78695 0.0
H2328 H 0.39876 0.44551 0.8935 0.0
H2329 H 0.42811 0.46374 0.90074 0.0
H2330 H 0.40648 0.49959 0.89817 0.0
H2331 H 0.46119 0.48424 0.86969 0.0
H2332 H 0.4568 0.47177 0.89056 0.0
H2333 H 0.47252 0.49573 0.89055 0.0
H2334 H 0.4224 0.5288 0.88602 0.0
H2335 H 0.4353 0.52918 0.86666 0.0
H2336 H 0.44644 0.53903 0.88812 0.0
H2337 H 0.54709 0.61414 0.92509 0.0
H2338 H 0.57232 0.63951 0.90872 0.0
H2339 H 0.55793 0.62168 0.89289 0.0
H2340 H 0.57917 0.62395 0.89994 0.0
H2341 H 0.54545 0.56277 0.90662 0.0
H2342 H 0.52697 0.60118 0.90189 0.0
H2343 H 0.51804 0.53276 0.87199 0.0
H2344 H 0.50602 0.52447 0.89264 0.0
H2345 H 0.52998 0.53372 0.89294 0.0
H2346 H 0.50029 0.59459 0.88633 0.0
H2347 H 0.48335 0.57101 0.88656 0.0
H2348 H 0.49615 0.58011 0.8665 0.0
H2349 H 0.48053 0.5242 0.77174 0.0
H2350 H 0.43713 0.49168 0.8172 0.0
H2351 H 0.43594 0.49431 0.84967 0.0
H2352 H 0.47676 0.53328 0.89703 0.0
H2353 H 0.51974 0.56679 0.85144 0.0
H2354 H 0.52057 0.56468 0.81878 0.0
H2355 H 0.36579 0.4288 0.88966 0.0
H2356 H 0.37609 0.45056 0.8791 0.0
H2357 H 0.36466 0.44753 0.90023 0.0
C2358 C 0.60553 0.73283 0.62955 0.0
C2359 C 0.61304 0.72666 0.61387 0.0
C2360 C 0.62247 0.75273 0.5934 0.0
C2361 C 0.60535 0.74952 0.58795 0.0
C2362 C 0.60331 0.76222 0.57749 0.0
C2363 C 0.61867 0.77823 0.5722 0.0
C2364 C 0.6359 0.78115 0.57719 0.0
C2365 C 0.63753 0.76834 0.58772 0.0
C2366 C 0.58479 0.75864 0.57217 0.0
C2367 C 0.65259 0.79792 0.57156 0.0
C2368 C 0.60947 0.87248 0.64143 0.0
C2369 C 0.62367 0.87801 0.62684 0.0
C2370 C 0.61605 0.86144 0.59779 0.0
C2371 C 0.63211 0.86145 0.59468 0.0
C2372 C 0.63244 0.84843 0.583 0.0
C2373 C 0.61633 0.83504 0.5744 0.0
C2374 C 0.6002 0.83531 0.57719 0.0
C2375 C 0.60035 0.84874 0.58864 0.0
C2376 C 0.64997 0.84884 0.58007 0.0
C2377 C 0.58276 0.82121 0.56836 0.0
C2378 C 0.62327 0.87073 0.46014 0.0
C2379 C 0.63885 0.86995 0.46459 0.0
C2380 C 0.63778 0.85445 0.47239 0.0
C2381 C 0.6208 0.83934 0.4755 0.0
C2382 C 0.60511 0.8397 0.47001 0.0
C2383 C 0.60657 0.85541 0.4623 0.0
C2384 C 0.65479 0.85432 0.47767 0.0
C2385 C 0.58681 0.82369 0.47282 0.0
C2386 C 0.60619 0.71187 0.45126 0.0
C2387 C 0.61328 0.7255 0.43579 0.0
C2388 C 0.62377 0.7547 0.45228 0.0
C2389 C 0.63907 0.77018 0.45884 0.0
C2390 C 0.63785 0.78346 0.46923 0.0
C2391 C 0.62081 0.7812 0.47308 0.0
C2392 C 0.60521 0.76567 0.46631 0.0
C2393 C 0.60682 0.75254 0.45598 0.0
C2394 C 0.65477 0.79984 0.47623 0.0
C2395 C 0.58686 0.76291 0.47015 0.0
C2396 C 0.61689 0.79218 0.56176 0.0
C2397 C 0.61629 0.80601 0.57168 0.0
C2398 C 0.61633 0.82054 0.56285 0.0
C2399 C 0.61692 0.82134 0.54355 0.0
C2400 C 0.61751 0.836 0.53425 0.0
C2401 C 0.61825 0.83675 0.51527 0.0
C2402 C 0.61848 0.82288 0.50484 0.0
C2403 C 0.61948 0.82366 0.48555 0.0
C2404 C 0.61984 0.80974 0.47559 0.0
C2405 C 0.61939 0.795 0.48441 0.0
C2406 C 0.6184 0.79398 0.5037 0.0
C2407 C 0.61812 0.77946 0.51303 0.0
C2408 C 0.61751 0.77877 0.53203 0.0
C2409 C 0.6171 0.79255 0.54243 0.0
C2410 C 0.61719 0.80722 0.53331 0.0
C2411 C 0.61792 0.80797 0.51393 0.0
C2412 C 0.62704 0.91196 0.4694 0.0
C2413 C 0.63626 0.90358 0.45848 0.0
O2414 O 0.62528 0.74137 0.60415 0.0
O2415 O 0.62614 0.74233 0.44262 0.0
O2416 O 0.6238 0.88588 0.45361 0.0
O2417 O 0.61531 0.8734 0.60968 0.0
H2418 H 0.60194 0.71716 0.60449 0.0
H2419 H 0.59787 0.73922 0.62422 0.0
H2420 H 0.61655 0.7428 0.6387 0.0
H2421 H 0.59632 0.72105 0.63772 0.0
H2422 H 0.59358 0.73724 0.59185 0.0
H2423 H 0.65067 0.77058 0.59183 0.0
H2424 H 0.58266 0.76954 0.57791 0.0
H2425 H 0.57417 0.74543 0.5771 0.0
H2426 H 0.58346 0.75881 0.55704 0.0
H2427 H 0.665 0.79799 0.57625 0.0
H2428 H 0.65271 0.81008 0.57735 0.0
H2429 H 0.65266 0.79894 0.55643 0.0
H2430 H 0.63072 0.87023 0.62971 0.0
H2431 H 0.61591 0.87635 0.6553 0.0
H2432 H 0.60055 0.85759 0.64082 0.0
H2433 H 0.60112 0.87897 0.6392 0.0
H2434 H 0.64438 0.87165 0.60136 0.0
H2435 H 0.58807 0.84899 0.59101 0.0
H2436 H 0.65182 0.84746 0.56526 0.0
H2437 H 0.6498 0.83724 0.58706 0.0
H2438 H 0.66158 0.8615 0.58558 0.0
H2439 H 0.57119 0.82249 0.57301 0.0
H2440 H 0.58038 0.80747 0.57154 0.0
H2441 H 0.58347 0.82252 0.55328 0.0
H2442 H 0.647 0.90421 0.46771 0.0
H2443 H 0.65186 0.88138 0.46198 0.0
H2444 H 0.59463 0.856 0.45843 0.0
H2445 H 0.65517 0.85231 0.49262 0.0
H2446 H 0.66696 0.86707 0.47415 0.0
H2447 H 0.65504 0.84285 0.4706 0.0
H2448 H 0.57596 0.82566 0.46673 0.0
H2449 H 0.58459 0.82142 0.4877 0.0
H2450 H 0.58599 0.81132 0.46665 0.0
H2451 H 0.60204 0.72654 0.42922 0.0
H2452 H 0.59602 0.69834 0.44577 0.0
H2453 H 0.59976 0.71615 0.46171 0.0
H2454 H 0.61729 0.71075 0.45804 0.0
H2455 H 0.65207 0.77175 0.4559 0.0
H2456 H 0.59481 0.74068 0.45096 0.0
H2457 H 0.65468 0.80075 0.49138 0.0
H2458 H 0.6554 0.81226 0.47077 0.0
H2459 H 0.667 0.79947 0.47224 0.0
H2460 H 0.57602 0.75034 0.46356 0.0
H2461 H 0.58572 0.77461 0.46515 0.0
H2462 H 0.5849 0.76225 0.48515 0.0
H2463 H 0.61621 0.80566 0.58651 0.0
H2464 H 0.61748 0.84713 0.54154 0.0
H2465 H 0.6187 0.8484 0.5089 0.0
H2466 H 0.62079 0.81053 0.46082 0.0
H2467 H 0.61844 0.76848 0.50575 0.0
H2468 H 0.61739 0.7673 0.53847 0.0
H2469 H 0.63672 0.92627 0.47315 0.0
H2470 H 0.62181 0.9044 0.4822 0.0
H2471 H 0.61565 0.9114 0.4614 0.0
C2472 C 0.12861 0.72768 0.64232 0.0
C2473 C 0.11824 0.73516 0.63173 0.0
C2474 C 0.13167 0.74874 0.60318 0.0
C2475 C 0.12887 0.76357 0.60174 0.0
C2476 C 0.14031 0.77859 0.59145 0.0
C2477 C 0.15503 0.77884 0.58277 0.0
C2478 C 0.15782 0.7638 0.58427 0.0
C2479 C 0.14582 0.74874 0.59414 0.0
C2480 C 0.13668 0.79417 0.5899 0.0
C2481 C 0.17362 0.7637 0.57572 0.0
C2482 C 0.25942 0.90452 0.64294 0.0
C2483 C 0.24734 0.88619 0.63554 0.0
C2484 C 0.22854 0.87143 0.60841 0.0
C2485 C 0.2302 0.8558 0.60838 0.0
C2486 C 0.21915 0.84091 0.59691 0.0
C2487 C 0.20573 0.84139 0.58576 0.0
C2488 C 0.20376 0.85699 0.58617 0.0
C2489 C 0.21557 0.87199 0.5971 0.0
C2490 C 0.22192 0.8247 0.59671 0.0
C2491 C 0.18912 0.85788 0.57524 0.0
C2492 C 0.23625 0.8711 0.46786 0.0
C2493 C 0.24056 0.85876 0.47598 0.0
C2494 C 0.22754 0.84359 0.48501 0.0
C2495 C 0.21002 0.84102 0.48645 0.0
C2496 C 0.20566 0.85339 0.47818 0.0
C2497 C 0.21878 0.86808 0.46874 0.0
C2498 C 0.23254 0.83034 0.49305 0.0
C2499 C 0.18717 0.85118 0.47934 0.0
C2500 C 0.09021 0.71617 0.47763 0.0
C2501 C 0.09388 0.73013 0.46279 0.0
C2502 C 0.12564 0.75222 0.46525 0.0
C2503 C 0.14147 0.75178 0.46873 0.0
C2504 C 0.15608 0.76621 0.47798 0.0
C2505 C 0.15481 0.78148 0.48362 0.0
C2506 C 0.1392 0.78244 0.47916 0.0
C2507 C 0.12482 0.76784 0.4699 0.0
C2508 C 0.17265 0.76491 0.48228 0.0
C2509 C 0.13758 0.79873 0.48457 0.0
C2510 C 0.16781 0.79499 0.57256 0.0
C2511 C 0.18031 0.81019 0.58267 0.0
C2512 C 0.19346 0.82546 0.57407 0.0
C2513 C 0.19448 0.82546 0.55476 0.0
C2514 C 0.20805 0.84018 0.54564 0.0
C2515 C 0.20862 0.84027 0.52663 0.0
C2516 C 0.19582 0.82551 0.51598 0.0
C2517 C 0.19625 0.82548 0.49662 0.0
C2518 C 0.18301 0.81074 0.48648 0.0
C2519 C 0.16926 0.79599 0.49514 0.0
C2520 C 0.16885 0.7956 0.51446 0.0
C2521 C 0.15535 0.78082 0.52359 0.0
C2522 C 0.15496 0.78059 0.54259 0.0
C2523 C 0.16801 0.79517 0.55323 0.0
C2524 C 0.18155 0.81036 0.54431 0.0
C2525 C 0.18213 0.81046 0.5249 0.0
C2526 C 0.27252 0.90422 0.47994 0.0
C2527 C 0.26687 0.89483 0.46102 0.0
O2528 O 0.1208 0.73425 0.61317 0.0
O2529 O 0.11146 0.73742 0.45742 0.0
O2530 O 0.24837 0.88599 0.45901 0.0
O2531 O 0.23928 0.88625 0.61896 0.0
H2532 H 0.12361 0.74949 0.63635 0.0
H2533 H 0.14307 0.73572 0.63938 0.0
H2534 H 0.12377 0.71335 0.63825 0.0
H2535 H 0.12702 0.72854 0.65728 0.0
H2536 H 0.11765 0.76327 0.60856 0.0
H2537 H 0.14774 0.73712 0.59532 0.0
H2538 H 0.14714 0.80601 0.5978 0.0
H2539 H 0.1234 0.79083 0.59523 0.0
H2540 H 0.13728 0.79816 0.5754 0.0
H2541 H 0.17536 0.75227 0.58047 0.0
H2542 H 0.18612 0.77656 0.57897 0.0
H2543 H 0.17167 0.76247 0.56062 0.0
H2544 H 0.23788 0.87671 0.64558 0.0
H2545 H 0.28537 0.90776 0.64272 0.0
H2546 H 0.25478 0.91441 0.63958 0.0
H2547 H 0.25478 0.91441 0.63958 0.0
H2548 H 0.2403 0.85527 0.617 0.0
H2549 H 0.21439 0.8841 0.59725 0.0
H2550 H 0.21088 0.81347 0.604 0.0
H2551 H 0.23478 0.82769 0.60353 0.0
H2552 H 0.22167 0.81997 0.58244 0.0
H2553 H 0.18689 0.86896 0.58025 0.0
H2554 H 0.17633 0.84492 0.57582 0.0
H2555 H 0.19292 0.86038 0.5607 0.0
H2556 H 0.27176 0.88499 0.45957 0.0
H2557 H 0.25395 0.86073 0.47519 0.0
H2558 H 0.21555 0.87759 0.46231 0.0
H2559 H 0.23325 0.8317 0.50819 0.0
H2560 H 0.2457 0.83266 0.48831 0.0
H2561 H 0.22219 0.81626 0.48934 0.0
H2562 H 0.18672 0.86333 0.47465 0.0
H2563 H 0.18247 0.84841 0.4936 0.0
H2564 H 0.17771 0.83946 0.4706 0.0
H2565 H 0.09141 0.74055 0.46924 0.0
H2566 H 0.07582 0.70902 0.48102 0.0
H2567 H 0.09812 0.72315 0.49026 0.0
H2568 H 0.09428 0.70622 0.4732 0.0
H2569 H 0.1421 0.73981 0.46473 0.0
H2570 H 0.11299 0.7687 0.46631 0.0
H2571 H 0.17456 0.76491 0.49734 0.0
H2572 H 0.18459 0.77691 0.47701 0.0
H2573 H 0.17187 0.7525 0.47625 0.0
H2574 H 0.12485 0.79772 0.47943 0.0
H2575 H 0.14894 0.81115 0.47916 0.0
H2576 H 0.13825 0.80022 0.49971 0.0
H2577 H 0.17981 0.81012 0.59749 0.0
H2578 H 0.21837 0.85184 0.55311 0.0
H2579 H 0.21924 0.85209 0.5204 0.0
H2580 H 0.1832 0.81091 0.47165 0.0
H2581 H 0.14494 0.76921 0.51615 0.0
H2582 H 0.14424 0.76887 0.54885 0.0
H2583 H 0.28728 0.91112 0.48199 0.0
H2584 H 0.26654 0.89416 0.49089 0.0
H2585 H 0.26797 0.91433 0.48144 0.0
C2586 C 0.12197 0.38653 0.63422 0.0
C2587 C 0.109 0.377 0.61794 0.0
C2588 C 0.12732 0.36787 0.59979 0.0
C2589 C 0.13955 0.38511 0.5935 0.0
C2590 C 0.15467 0.38787 0.5839 0.0
C2591 C 0.1576 0.37314 0.5805 0.0
C2592 C 0.14514 0.35573 0.58651 0.0
C2593 C 0.1301 0.35333 0.59598 0.0
C2594 C 0.16763 0.40657 0.57748 0.0
C2595 C 0.14783 0.33971 0.58312 0.0
C2596 C 0.27206 0.4132 0.6555 0.0
C2597 C 0.26275 0.39811 0.64102 0.0
C2598 C 0.24981 0.39993 0.61162 0.0
C2599 C 0.23677 0.38163 0.60958 0.0
C2600 C 0.22242 0.37612 0.59695 0.0
C2601 C 0.22103 0.3892 0.58629 0.0
C2602 C 0.2344 0.40761 0.58805 0.0
C2603 C 0.2488 0.41267 0.6005 0.0
C2604 C 0.20863 0.35633 0.59514 0.0
C2605 C 0.23326 0.42198 0.5771 0.0
C2606 C 0.25456 0.38132 0.47217 0.0
C2607 C 0.24102 0.36394 0.47668 0.0
C2608 C 0.22529 0.36142 0.4848 0.0
C2609 C 0.22287 0.37649 0.48805 0.0
C2610 C 0.2361 0.39387 0.48271 0.0
C2611 C 0.25177 0.39603 0.47479 0.0
C2612 C 0.21129 0.34265 0.49001 0.0
C2613 C 0.23379 0.41018 0.48563 0.0
C2614 C 0.08807 0.33741 0.4705 0.0
C2615 C 0.09876 0.34671 0.45358 0.0
C2616 C 0.12751 0.34855 0.46118 0.0
C2617 C 0.13358 0.33653 0.46558 0.0
C2618 C 0.14917 0.34212 0.47637 0.0
C2619 C 0.15924 0.36041 0.48236 0.0
C2620 C 0.15365 0.37288 0.47713 0.0
C2621 C 0.1377 0.36678 0.46676 0.0
C2622 C 0.15474 0.32843 0.4815 0.0
C2623 C 0.16446 0.39264 0.48258 0.0
C2624 C 0.17392 0.37599 0.57107 0.0
C2625 C 0.18941 0.38117 0.58175 0.0
C2626 C 0.20519 0.38374 0.57393 0.0
C2627 C 0.20564 0.38118 0.55484 0.0
C2628 C 0.2212 0.38342 0.54653 0.0
C2629 C 0.22158 0.38113 0.5277 0.0
C2630 C 0.20636 0.3764 0.51646 0.0
C2631 C 0.20663 0.37411 0.4973 0.0
C2632 C 0.1912 0.3692 0.48657 0.0
C2633 C 0.17533 0.36631 0.49447 0.0
C2634 C 0.17481 0.36856 0.51361 0.0
C2635 C 0.15904 0.36561 0.52205 0.0
C2636 C 0.15874 0.36814 0.54083 0.0
C2637 C 0.17411 0.37343 0.55196 0.0
C2638 C 0.19007 0.37615 0.54381 0.0
C2639 C 0.19043 0.37375 0.52461 0.0
C2640 C 0.29633 0.38684 0.47969 0.0
C2641 C 0.27925 0.37489 0.46832 0.0
O2642 O 0.11279 0.36457 0.60965 0.0
O2643 O 0.11202 0.34213 0.45118 0.0
O2644 O 0.27028 0.38443 0.46496 0.0
O2645 O 0.26346 0.4058 0.62421 0.0
H2646 H 0.11013 0.38717 0.6078 0.0
H2647 H 0.13595 0.39424 0.62963 0.0
H2648 H 0.12116 0.37648 0.64433 0.0
H2649 H 0.1187 0.39622 0.64107 0.0
H2650 H 0.13746 0.39646 0.59608 0.0
H2651 H 0.12054 0.34007 0.60077 0.0
H2652 H 0.18092 0.41135 0.58428 0.0
H2653 H 0.16309 0.41648 0.5805 0.0
H2654 H 0.16936 0.40615 0.56251 0.0
H2655 H 0.13701 0.32709 0.58889 0.0
H2656 H 0.16085 0.34244 0.58931 0.0
H2657 H 0.14829 0.33758 0.56818 0.0
H2658 H 0.24857 0.38987 0.64517 0.0
H2659 H 0.27149 0.4074 0.66919 0.0
H2660 H 0.26523 0.42138 0.65615 0.0
H2661 H 0.28629 0.42225 0.65213 0.0
H2662 H 0.2378 0.37164 0.6178 0.0
H2663 H 0.25905 0.42673 0.60207 0.0
H2664 H 0.20625 0.35197 0.58051 0.0
H2665 H 0.19576 0.35418 0.60057 0.0
H2666 H 0.21273 0.34765 0.60275 0.0
H2667 H 0.24399 0.43582 0.5811 0.0
H2668 H 0.22007 0.42114 0.57896 0.0
H2669 H 0.23437 0.41971 0.56233 0.0
H2670 H 0.27127 0.36285 0.47674 0.0
H2671 H 0.2425 0.35227 0.47374 0.0
H2672 H 0.26212 0.40932 0.4709 0.0
H2673 H 0.20832 0.34252 0.50474 0.0
H2674 H 0.21554 0.33245 0.48739 0.0
H2675 H 0.19871 0.33864 0.48206 0.0
H2676 H 0.24485 0.42258 0.4798 0.0
H2677 H 0.23329 0.41255 0.50051 0.0
H2678 H 0.22091 0.40767 0.47926 0.0
H2679 H 0.10477 0.36156 0.45553 0.0
H2680 H 0.07739 0.34097 0.4726 0.0
H2681 H 0.09703 0.34193 0.48287 0.0
H2682 H 0.08185 0.32249 0.46895 0.0
H2683 H 0.12576 0.32257 0.46092 0.0
H2684 H 0.13352 0.37637 0.46277 0.0
H2685 H 0.15766 0.32918 0.49644 0.0
H2686 H 0.16717 0.33152 0.47434 0.0
H2687 H 0.14431 0.3144 0.47768 0.0
H2688 H 0.15986 0.401 0.47512 0.0
H2689 H 0.17884 0.39785 0.47992 0.0
H2690 H 0.16323 0.39428 0.49746 0.0
H2691 H 0.18916 0.38314 0.59641 0.0
H2692 H 0.2333 0.38704 0.55449 0.0
H2693 H 0.23396 0.38312 0.52207 0.0
H2694 H 0.1915 0.36743 0.47189 0.0
H2695 H 0.14675 0.36139 0.51422 0.0
H2696 H 0.14627 0.36584 0.54652 0.0
H2697 H 0.30405 0.37967 0.48201 0.0
H2698 H 0.29277 0.39003 0.49322 0.0
H2699 H 0.30493 0.39977 0.4728 0.0
H2700 H 0.02801 0.39305 0.04736 0.0
H2701 H 0.97448 0.34815 0.0387 0.0
H2702 H 0.96366 0.36009 0.06271 0.0
H2703 H 0.96914 0.38377 0.08557 0.0
H2704 H 0.02277 0.42801 0.095 0.0
H2705 H 0.03376 0.41584 0.07129 0.0
C2706 C 0.01399 0.38581 0.05075 0.0
C2707 C 0.0021 0.36976 0.04111 0.0
C2708 C 0.00781 0.39273 0.06461 0.0
C2709 C 0.98399 0.36052 0.04585 0.0
C2710 C 0.97774 0.36737 0.05956 0.0
C2711 C 0.98321 0.39077 0.08232 0.0
C2712 C 0.99497 0.40707 0.09159 0.0
C2713 C 0.98949 0.38355 0.06889 0.0
C2714 C 0.0133 0.41573 0.0877 0.0
C2715 C 0.01962 0.40873 0.07421 0.0
H2716 H 0.60411 0.61234 0.05628 0.0
H2717 H 0.65728 0.62494 0.0735 0.0
H2718 H 0.64512 0.60302 0.09799 0.0
H2719 H 0.61929 0.58008 0.11425 0.0
H2720 H 0.5662 0.56965 0.09885 0.0
H2721 H 0.5783 0.59052 0.07372 0.0
C2722 C 0.61293 0.61012 0.06537 0.0
C2723 C 0.63143 0.61947 0.06269 0.0
C2724 C 0.60585 0.59781 0.07964 0.0
C2725 C 0.64291 0.61718 0.07489 0.0
C2726 C 0.63598 0.6048 0.08896 0.0
C2727 C 0.61038 0.58244 0.10544 0.0
C2728 C 0.59188 0.57318 0.10848 0.0
C2729 C 0.61746 0.59493 0.09136 0.0
C2730 C 0.58049 0.57641 0.09689 0.0
C2731 C 0.5874 0.58843 0.0825 0.0
H2732 H 0.37728 0.98388 0.04052 0.0
H2733 H 0.36227 0.02004 0.06617 0.0
H2734 H 0.3829 0.02511 0.09203 0.0
H2735 H 0.40524 0.0192 0.10723 0.0
H2736 H 0.41854 0.9812 0.08255 0.0
H2737 H 0.39885 0.97712 0.0563 0.0
C2738 C 0.37872 0.99298 0.05175 0.0
C2739 C 0.36901 0.00224 0.05121 0.0
C2740 C 0.39038 0.99557 0.06663 0.0
C2741 C 0.3703 0.01343 0.06605 0.0
C2742 C 0.38193 0.01618 0.08086 0.0
C2743 C 0.40389 0.01013 0.09602 0.0
C2744 C 0.41369 0.00089 0.09669 0.0
C2745 C 0.39215 0.00744 0.08121 0.0
C2746 C 0.41151 0.98882 0.08227 0.0
C2747 C 0.40015 0.98638 0.06728 0.0
H2748 H 0.38862 0.02513 0.96453 0.0
H2749 H 0.35162 0.96879 0.97376 0.0
H2750 H 0.36422 0.96012 0.94848 0.0
H2751 H 0.38634 0.96856 0.92421 0.0
H2752 H 0.42249 0.02495 0.91459 0.0
H2753 H 0.40963 0.03355 0.9396 0.0
C2754 C 0.38325 0.01093 0.96104 0.0
C2755 C 0.36925 0.99764 0.97115 0.0
C2756 C 0.39052 0.00604 0.94649 0.0
C2757 C 0.36238 0.97932 0.96624 0.0
C2758 C 0.36962 0.97434 0.95181 0.0
C2759 C 0.39144 0.98271 0.92771 0.0
C2760 C 0.40574 0.99605 0.91796 0.0
C2761 C 0.3838 0.98758 0.94195 0.0
C2762 C 0.41186 0.01439 0.92221 0.0
C2763 C 0.40445 0.01932 0.93645 0.0
H2764 H 0.98445 0.37211 0.97171 0.0
H2765 H 0.0228 0.36051 0.94689 0.0
H2766 H 0.02423 0.3786 0.92043 0.0
H2767 H 0.01405 0.39726 0.9042 0.0
H2768 H 0.97393 0.4069 0.92815 0.0
H2769 H 0.97383 0.39028 0.95518 0.0
C2770 C 0.99323 0.37376 0.96054 0.0
C2771 C 0.0041 0.36575 0.96144 0.0
C2772 C 0.99369 0.38388 0.9453 0.0
C2773 C 0.01493 0.36728 0.94671 0.0
C2774 C 0.0156 0.37745 0.93155 0.0
C2775 C 0.00543 0.39585 0.91544 0.0
C2776 C 0.99438 0.4037 0.91432 0.0
C2777 C 0.00507 0.38585 0.93074 0.0
C2778 C 0.9829 0.40138 0.92878 0.0
C2779 C 0.98274 0.39177 0.94422 0.0
H2780 H 0.60975 0.64318 0.99138 0.0
H2781 H 0.6282 0.6079 0.97 0.0
H2782 H 0.60724 0.59956 0.94404 0.0
H2783 H 0.58354 0.60202 0.92745 0.0
H2784 H 0.56412 0.63629 0.94909 0.0
H2785 H 0.58576 0.64547 0.97478 0.0
C2786 C 0.60925 0.63373 0.981 0.0
C2787 C 0.62058 0.6262 0.98268 0.0
C2788 C 0.59696 0.62876 0.96617 0.0
C2789 C 0.61962 0.61386 0.96915 0.0
C2790 C 0.60764 0.60908 0.95425 0.0
C2791 C 0.5839 0.61134 0.9379 0.0
C2792 C 0.57193 0.61812 0.93663 0.0
C2793 C 0.59619 0.61637 0.95268 0.0
C2794 C 0.57295 0.63061 0.94999 0.0
C2795 C 0.58534 0.63589 0.96463 0.0
H2796 H 0.98942 0.61455 0.9759 0.0
H2797 H 0.02471 0.66787 0.95636 0.0
H2798 H 0.03146 0.65495 0.92968 0.0
H2799 H 0.02717 0.6287 0.91206 0.0
H2800 H 0.99098 0.57497 0.93069 0.0
H2801 H 0.98506 0.5879 0.95791 0.0
C2802 C 0.99866 0.62324 0.96579 0.0
C2803 C 0.00706 0.64205 0.96823 0.0
C2804 C 0.00237 0.61568 0.95046 0.0
C2805 C 0.0186 0.65332 0.95493 0.0
C2806 C 0.02235 0.64594 0.93967 0.0
C2807 C 0.01794 0.61964 0.9219 0.0
C2808 C 0.00942 0.60072 0.91915 0.0
C2809 C 0.01435 0.62713 0.93732 0.0
C2810 C 0.99768 0.58954 0.93245 0.0
C2811 C 0.99423 0.5969 0.94797 0.0
H2812 H 0.36565 0.40628 0.9769 0.0
H2813 H 0.39816 0.38422 0.95733 0.0
H2814 H 0.40632 0.40378 0.93095 0.0
H2815 H 0.40304 0.42604 0.91256 0.0
H2816 H 0.37164 0.4491 0.93259 0.0
H2817 H 0.36428 0.43032 0.95967 0.0
C2818 C 0.37457 0.4058 0.96689 0.0
C2819 C 0.38113 0.39366 0.96903 0.0
C2820 C 0.37935 0.4172 0.95178 0.0
C2821 C 0.3929 0.39341 0.95606 0.0
C2822 C 0.39754 0.40456 0.94091 0.0
C2823 C 0.39466 0.42701 0.92291 0.0
C2824 C 0.38756 0.43863 0.92038 0.0
C2825 C 0.39067 0.41634 0.93851 0.0
C2826 C 0.37698 0.44 0.93407 0.0
C2827 C 0.3728 0.42929 0.94956 0.0
H2828 H 0.62747 0.97721 0.96285 0.0
H2829 H 0.61465 0.00944 0.99866 0.0
H2830 H 0.59026 0.00529 0.97769 0.0
H2831 H 0.5715 0.99088 0.95017 0.0
H2832 H 0.58378 0.95795 0.91463 0.0
H2833 H 0.60965 0.96415 0.93429 0.0
C2834 C 0.6192 0.98318 0.96602 0.0
C2835 C 0.62219 0.99295 0.9825 0.0
C2836 C 0.60527 0.98074 0.95389 0.0
C2837 C 0.61211 0.00143 0.98622 0.0
C2838 C 0.59825 0.99909 0.97424 0.0
C2839 C 0.57993 0.98518 0.94669 0.0
C2840 C 0.57575 0.97398 0.93099 0.0
C2841 C 0.59451 0.9885 0.95822 0.0
C2842 C 0.58677 0.96667 0.92661 0.0
C2843 C 0.60153 0.97019 0.93784 0.0
H2844 H 0.63902 0.01922 0.05706 0.0
H2845 H 0.61404 0.9626 0.06973 0.0
H2846 H 0.60243 0.96822 0.09777 0.0
H2847 H 0.59887 0.98906 0.11845 0.0
H2848 H 0.62255 0.0454 0.1052 0.0
H2849 H 0.63515 0.04006 0.07763 0.0
C2850 C 0.63119 0.00815 0.06606 0.0
C2851 C 0.6275 0.99054 0.06136 0.0
C2852 C 0.62422 0.01141 0.082 0.0
C2853 C 0.61708 0.97629 0.07302 0.0
C2854 C 0.61041 0.97948 0.08905 0.0
C2855 C 0.60677 0.00016 0.1095 0.0
C2856 C 0.60982 0.0176 0.11387 0.0
C2857 C 0.61379 0.99695 0.09361 0.0
C2858 C 0.62007 0.03186 0.10213 0.0
C2859 C 0.62727 0.02881 0.08639 0.0
H2860 H 0.025 0.64116 0.05873 0.0
H2861 H 0.97004 0.62412 0.04353 0.0
H2862 H 0.95986 0.60341 0.06906 0.0
H2863 H 0.96655 0.59011 0.09575 0.0
H2864 H 0.0215 0.60815 0.1116 0.0
H2865 H 0.03167 0.62823 0.08554 0.0
C2866 C 0.01078 0.63293 0.06096 0.0
C2867 C 0.99833 0.63426 0.04919 0.0
C2868 C 0.005 0.62115 0.07575 0.0
C2869 C 0.97996 0.6235 0.0524 0.0
C2870 C 0.9741 0.61158 0.06697 0.0
C2871 C 0.98074 0.59855 0.09356 0.0
C2872 C 0.99326 0.59784 0.10576 0.0
C2873 C 0.9865 0.61032 0.07875 0.0
C2874 C 0.01161 0.60857 0.10253 0.0
C2875 C 0.01743 0.62007 0.08764 0.0
H2876 H 0.37196 0.35071 0.05761 0.0
H2877 H 0.39136 0.40662 0.04528 0.0
H2878 H 0.41043 0.41601 0.07317 0.0
H2879 H 0.42135 0.40808 0.10109 0.0
H2880 H 0.40202 0.35174 0.11257 0.0
H2881 H 0.38333 0.34284 0.08503 0.0
C2882 C 0.38061 0.36494 0.06095 0.0
C2883 C 0.38084 0.37802 0.04925 0.0
C2884 C 0.39144 0.37015 0.0769 0.0
C2885 C 0.39137 0.3964 0.05399 0.0
C2886 C 0.40221 0.40172 0.06989 0.0
C2887 C 0.4131 0.39385 0.09749 0.0
C2888 C 0.41315 0.38078 0.10915 0.0
C2889 C 0.40238 0.38869 0.08143 0.0
C2890 C 0.40237 0.36233 0.10423 0.0
C2891 C 0.39155 0.35711 0.08837 0.0
H2892 H 0.63609 0.69232 0.37003 0.0
H2893 H 0.68687 0.72059 0.39944 0.0
H2894 H 0.67349 0.73035 0.42286 0.0
H2895 H 0.64762 0.7313 0.43486 0.0
H2896 H 0.59702 0.70439 0.40514 0.0
H2897 H 0.61 0.69346 0.38211 0.0
C2898 C 0.64417 0.70052 0.38163 0.0
C2899 C 0.66245 0.70571 0.38296 0.0
C2900 C 0.63646 0.70639 0.39495 0.0
C2901 C 0.6728 0.71648 0.398 0.0
C2902 C 0.66516 0.72206 0.41143 0.0
C2903 C 0.63947 0.72323 0.42323 0.0
C2904 C 0.6215 0.71906 0.42144 0.0
C2905 C 0.64706 0.71723 0.40998 0.0
C2906 C 0.611 0.70809 0.40658 0.0
C2907 C 0.61839 0.70181 0.39347 0.0
H2908 H 0.3151 0.95484 0.40462 0.0
H2909 H 0.26382 0.94756 0.387 0.0
H2910 H 0.24913 0.9251 0.41066 0.0
H2911 H 0.25098 0.90757 0.4361 0.0
H2912 H 0.30214 0.91336 0.45255 0.0
H2913 H 0.31685 0.93653 0.42965 0.0
C2914 C 0.30067 0.94803 0.40581 0.0
C2915 C 0.29039 0.95221 0.39376 0.0
C2916 C 0.29238 0.93506 0.4193 0.0
C2917 C 0.27186 0.94411 0.39591 0.0
C2918 C 0.26351 0.93133 0.40942 0.0
C2919 C 0.26532 0.9137 0.43465 0.0
C2920 C 0.27545 0.90867 0.44613 0.0
C2921 C 0.27363 0.92663 0.42113 0.0
C2922 C 0.29405 0.91702 0.44396 0.0
C2923 C 0.30247 0.93026 0.43088 0.0
H2924 H 0.05235 0.31722 0.37968 0.0
H2925 H 0.03723 0.35665 0.39544 0.0
H2926 H 0.05529 0.36357 0.42377 0.0
H2927 H 0.07728 0.36006 0.44276 0.0
H2928 H 0.0918 0.31997 0.42739 0.0
H2929 H 0.07242 0.31189 0.40007 0.0
C2930 C 0.05304 0.32727 0.38941 0.0
C2931 C 0.04422 0.33701 0.38532 0.0
C2932 C 0.06356 0.33126 0.40553 0.0
C2933 C 0.04456 0.34954 0.39815 0.0
C2934 C 0.05478 0.35341 0.41433 0.0
C2935 C 0.07616 0.34955 0.43341 0.0
C2936 C 0.08641 0.34109 0.43681 0.0
C2937 C 0.06474 0.34472 0.41791 0.0
C2938 C 0.08448 0.32712 0.42486 0.0
C2939 C 0.07329 0.32237 0.40928 0.0
H2940 H 0.02976 0.30291 0.30193 0.0
H2941 H 0.08199 0.3498 0.31318 0.0
H2942 H 0.09814 0.33839 0.29609 0.0
H2943 H 0.10069 0.31217 0.27328 0.0
H2944 H 0.03936 0.25563 0.25995 0.0
H2945 H 0.02334 0.27205 0.28208 0.0
C2946 C 0.04407 0.30997 0.30009 0.0
C2947 C 0.05518 0.32706 0.30862 0.0
C2948 C 0.05127 0.30156 0.28966 0.0
C2949 C 0.07408 0.33669 0.3065 0.0
C2950 C 0.08374 0.33029 0.29672 0.0
C2951 C 0.08648 0.30434 0.27556 0.0
C2952 C 0.07144 0.28363 0.26164 0.0
C2953 C 0.07499 0.31362 0.28804 0.0
C2954 C 0.04754 0.26837 0.26717 0.0
C2955 C 0.03762 0.27913 0.28007 0.0
H2956 H 0.66445 0.71911 0.309 0.0
H2957 H 0.70607 0.70639 0.29793 0.0
H2958 H 0.71694 0.7284 0.27341 0.0
H2959 H 0.71443 0.75119 0.25512 0.0
H2960 H 0.67064 0.76143 0.26415 0.0
H2961 H 0.66104 0.74083 0.28962 0.0
C2962 C 0.67599 0.72135 0.30127 0.0
C2963 C 0.68507 0.71194 0.30573 0.0
C2964 C 0.68179 0.73362 0.28689 0.0
C2965 C 0.6995 0.71424 0.29523 0.0
C2966 C 0.70556 0.72665 0.28111 0.0
C2967 C 0.70273 0.74884 0.2626 0.0
C2968 C 0.69338 0.75792 0.25761 0.0
C2969 C 0.69685 0.73648 0.27689 0.0
C2970 C 0.67825 0.75477 0.26757 0.0
C2971 C 0.67266 0.74291 0.28217 0.0
H2972 H 0.28368 0.94089 0.30265 0.0
H2973 H 0.27085 0.98008 0.32524 0.0
H2974 H 0.2485 0.97294 0.30075 0.0
H2975 H 0.23234 0.95532 0.273 0.0
H2976 H 0.24622 0.91717 0.24982 0.0
H2977 H 0.26838 0.92415 0.27445 0.0
C2978 C 0.276 0.94787 0.30226 0.0
C2979 C 0.27892 0.96095 0.31585 0.0
C2980 C 0.26326 0.94381 0.28807 0.0
C2981 C 0.26894 0.96999 0.31497 0.0
C2982 C 0.2561 0.96588 0.30098 0.0
C2983 C 0.24015 0.94846 0.27346 0.0
C2984 C 0.23721 0.93534 0.25993 0.0
C2985 C 0.2531 0.95277 0.2875 0.0
C2986 C 0.24782 0.92695 0.26034 0.0
C2987 C 0.26057 0.931 0.27437 0.0
H2988 H 0.69194 0.985 0.29236 0.0
H2989 H 0.65609 0.9301 0.30725 0.0
H2990 H 0.66667 0.91893 0.28193 0.0
H2991 H 0.68612 0.92506 0.25549 0.0
H2992 H 0.72224 0.98049 0.2414 0.0
H2993 H 0.7116 0.99109 0.26642 0.0
C2994 C 0.68666 0.97059 0.29015 0.0
C2995 C 0.67374 0.95833 0.30184 0.0
C2996 C 0.69278 0.96439 0.27566 0.0
C2997 C 0.66635 0.93971 0.29853 0.0
C2998 C 0.67238 0.93338 0.2841 0.0
C2999 C 0.69175 0.93947 0.258 0.0
C3000 C 0.70497 0.95176 0.24641 0.0
C3001 C 0.68564 0.94562 0.2726 0.0
C3002 C 0.71206 0.97045 0.24981 0.0
C3003 C 0.70594 0.97665 0.2642 0.0
H3004 H 0.05478 0.72258 0.29381 0.0
H3005 H 0.0241 0.74334 0.3206 0.0
H3006 H 0.02805 0.7628 0.29472 0.0
H3007 H 0.03868 0.77257 0.2637 0.0
H3008 H 0.06744 0.75018 0.236 0.0
H3009 H 0.06606 0.73295 0.2631 0.0
C3010 C 0.04914 0.73152 0.29408 0.0
C3011 C 0.03912 0.73147 0.30909 0.0
C3012 C 0.05106 0.74233 0.27894 0.0
C3013 C 0.03177 0.74303 0.30915 0.0
C3014 C 0.03403 0.75416 0.29436 0.0
C3015 C 0.04463 0.76391 0.26363 0.0
C3016 C 0.05291 0.76244 0.24779 0.0
C3017 C 0.04337 0.75368 0.27905 0.0
C3018 C 0.06084 0.75141 0.24797 0.0
C3019 C 0.06005 0.74154 0.26344 0.0
H3020 H 0.29312 0.31416 0.30098 0.0
H3021 H 0.28279 0.35252 0.32936 0.0
H3022 H 0.26318 0.35136 0.30398 0.0
H3023 H 0.25008 0.34034 0.27329 0.0
H3024 H 0.25911 0.30069 0.24546 0.0
H3025 H 0.2779 0.30116 0.27119 0.0
C3026 C 0.28619 0.32189 0.30172 0.0
C3027 C 0.28883 0.33297 0.31713 0.0
C3028 C 0.27492 0.32106 0.28714 0.0
C3029 C 0.28056 0.34363 0.31771 0.0
C3030 C 0.26941 0.34297 0.30323 0.0
C3031 C 0.25611 0.33175 0.27287 0.0
C3032 C 0.25378 0.32107 0.25714 0.0
C3033 C 0.26663 0.33185 0.28782 0.0
C3034 C 0.26121 0.30956 0.25708 0.0
C3035 C 0.27191 0.30977 0.27182 0.0
H3036 H 0.30645 0.36326 0.39198 0.0
H3037 H 0.27568 0.30745 0.40733 0.0
H3038 H 0.26728 0.31663 0.43556 0.0
H3039 H 0.26917 0.34059 0.45619 0.0
H3040 H 0.29864 0.39621 0.44005 0.0
H3041 H 0.30703 0.38703 0.41179 0.0
C3042 C 0.29797 0.35311 0.40154 0.0
C3043 C 0.29187 0.33471 0.39765 0.0
C3044 C 0.29296 0.35845 0.41759 0.0
C3045 C 0.28059 0.3217 0.41001 0.0
C3046 C 0.2758 0.32694 0.42617 0.0
C3047 C 0.2774 0.35068 0.44646 0.0
C3048 C 0.28355 0.36907 0.45035 0.0
C3049 C 0.28196 0.34528 0.43014 0.0
C3050 C 0.29399 0.38199 0.43748 0.0
C3051 C 0.29875 0.37675 0.42133 0.0
H3052 H 0.68149 0.95533 0.39498 0.0
H3053 H 0.62836 0.93789 0.37279 0.0
H3054 H 0.61536 0.91825 0.3987 0.0
H3055 H 0.61892 0.9066 0.42815 0.0
H3056 H 0.67183 0.9247 0.45097 0.0
H3057 H 0.68505 0.94334 0.42427 0.0
C3058 C 0.66707 0.94719 0.39575 0.0
C3059 C 0.65597 0.9482 0.38194 0.0
C3060 C 0.65961 0.936 0.41081 0.0
C3061 C 0.63728 0.93753 0.38324 0.0
C3062 C 0.62979 0.92624 0.39805 0.0
C3063 C 0.63334 0.91459 0.4272 0.0
C3064 C 0.64438 0.91428 0.44148 0.0
C3065 C 0.64082 0.92547 0.41198 0.0
C3066 C 0.66305 0.92469 0.44013 0.0
C3067 C 0.67061 0.93537 0.42489 0.0
H3068 H 0.03917 0.68944 0.39626 0.0
H3069 H 0.05115 0.74387 0.38536 0.0
H3070 H 0.07157 0.75507 0.41223 0.0
H3071 H 0.08595 0.74916 0.43874 0.0
H3072 H 0.07462 0.69455 0.4485 0.0
H3073 H 0.05415 0.68367 0.42217 0.0
C3074 C 0.04649 0.70377 0.39968 0.0
C3075 C 0.04424 0.71595 0.38867 0.0
C3076 C 0.05816 0.71002 0.41502 0.0
C3077 C 0.05307 0.73438 0.39354 0.0
C3078 C 0.0647 0.74073 0.40885 0.0
C3079 C 0.07894 0.73486 0.4351 0.0
C3080 C 0.08144 0.72272 0.44606 0.0
C3081 C 0.06736 0.72866 0.41966 0.0
C3082 C 0.07267 0.70427 0.44085 0.0
C3083 C 0.06092 0.69797 0.42568 0.0
H3084 H 0.29836 0.0258 0.70617 0.0
H3085 H 0.35262 0.06133 0.72551 0.0
H3086 H 0.34164 0.07119 0.75124 0.0
H3087 H 0.31673 0.07033 0.76784 0.0
H3088 H 0.26253 0.03597 0.74787 0.0
H3089 H 0.27338 0.02485 0.72292 0.0
C3090 C 0.30778 0.03558 0.7161 0.0
C3091 C 0.32629 0.04278 0.71392 0.0
C3092 C 0.3014 0.04147 0.7307 0.0
C3093 C 0.33831 0.0556 0.72682 0.0
C3094 C 0.33205 0.06126 0.74155 0.0
C3095 C 0.3073 0.06054 0.75793 0.0
C3096 C 0.28887 0.05433 0.75941 0.0
C3097 C 0.31364 0.05443 0.74352 0.0
C3098 C 0.2768 0.04122 0.74677 0.0
C3099 C 0.28299 0.03484 0.73255 0.0
H3100 H 0.98293 0.28037 0.72554 0.0
H3101 H 0.93199 0.27307 0.70659 0.0
H3102 H 0.91676 0.25005 0.72965 0.0
H3103 H 0.91811 0.23225 0.75513 0.0
H3104 H 0.96902 0.23809 0.77273 0.0
H3105 H 0.98416 0.26158 0.75027 0.0
C3106 C 0.96846 0.27342 0.72628 0.0
C3107 C 0.95845 0.27779 0.71407 0.0
C3108 C 0.95987 0.26016 0.73941 0.0
C3109 C 0.93983 0.26949 0.71565 0.0
C3110 C 0.93117 0.25639 0.72881 0.0
C3111 C 0.93249 0.23847 0.75404 0.0
C3112 C 0.94243 0.23344 0.76581 0.0
C3113 C 0.94107 0.25159 0.74074 0.0
C3114 C 0.96108 0.24182 0.76401 0.0
C3115 C 0.96975 0.25523 0.75116 0.0
H3116 H 0.71176 0.69761 0.72743 0.0
H3117 H 0.72473 0.65915 0.70306 0.0
H3118 H 0.75198 0.6689 0.72156 0.0
H3119 H 0.7786 0.69196 0.74869 0.0
H3120 H 0.76436 0.73906 0.77694 0.0
H3121 H 0.73239 0.72407 0.75368 0.0
C3122 C 0.72058 0.6919 0.72703 0.0
C3123 C 0.71755 0.67828 0.71405 0.0
C3124 C 0.73536 0.69892 0.73877 0.0
C3125 C 0.72831 0.66994 0.7131 0.0
C3126 C 0.74404 0.67542 0.72361 0.0
C3127 C 0.77042 0.69836 0.74915 0.0
C3128 C 0.77323 0.71494 0.76764 0.0
C3129 C 0.7497 0.68949 0.7362 0.0
C3130 C 0.76145 0.72838 0.76702 0.0
C3131 C 0.7411 0.71827 0.75335 0.0
H3132 H 0.72275 0.68459 0.62323 0.0
H3133 H 0.68848 0.63184 0.64509 0.0
H3134 H 0.69654 0.61782 0.62051 0.0
H3135 H 0.71391 0.62056 0.59317 0.0
H3136 H 0.74715 0.67318 0.57069 0.0
H3137 H 0.7389 0.68718 0.59514 0.0
C3138 C 0.717 0.67002 0.62263 0.0
C3139 C 0.70509 0.65932 0.63608 0.0
C3140 C 0.72161 0.66201 0.6084 0.0
C3141 C 0.69765 0.64043 0.63493 0.0
C3142 C 0.70229 0.63238 0.6209 0.0
C3143 C 0.7194 0.6351 0.59373 0.0
C3144 C 0.73157 0.64583 0.58049 0.0
C3145 C 0.71437 0.64305 0.60765 0.0
C3146 C 0.73817 0.66462 0.581 0.0
C3147 C 0.73338 0.67265 0.59493 0.0
H3148 H 0.35311 0.04157 0.62048 0.0
H3149 H 0.31354 0.05287 0.64269 0.0
H3150 H 0.31815 0.07382 0.61786 0.0
H3151 H 0.33384 0.08914 0.5902 0.0
H3152 H 0.37445 0.07874 0.56881 0.0
H3153 H 0.36889 0.05696 0.59287 0.0
C3154 C 0.34572 0.04886 0.61995 0.0
C3155 C 0.33353 0.04634 0.63361 0.0
C3156 C 0.34854 0.06087 0.60576 0.0
C3157 C 0.32332 0.05506 0.63246 0.0
C3158 C 0.32595 0.06697 0.61829 0.0
C3159 C 0.34166 0.08232 0.59089 0.0
C3160 C 0.35481 0.08582 0.57788 0.0
C3161 C 0.33865 0.07011 0.60497 0.0
C3162 C 0.36443 0.07643 0.5788 0.0
C3163 C 0.36122 0.06396 0.59249 0.0
H3164 H 0.95778 0.27199 0.62177 0.0
H3165 H 0.94224 0.30865 0.64565 0.0
H3166 H 0.92087 0.30221 0.6203 0.0
H3167 H 0.90605 0.28559 0.59162 0.0
H3168 H 0.92266 0.25002 0.56727 0.0
H3169 H 0.94411 0.25661 0.59252 0.0
C3170 C 0.94974 0.27859 0.62146 0.0
C3171 C 0.95157 0.2907 0.63568 0.0
C3172 C 0.93756 0.27493 0.60679 0.0
C3173 C 0.94116 0.29929 0.63489 0.0
C3174 C 0.92888 0.29557 0.62042 0.0
C3175 C 0.91432 0.27922 0.59195 0.0
C3176 C 0.91231 0.26688 0.57791 0.0
C3177 C 0.92686 0.28331 0.60637 0.0
C3178 C 0.92352 0.25916 0.57816 0.0
C3179 C 0.93587 0.26299 0.59255 0.0
H3180 H 0.32854 0.27907 0.636 0.0
H3181 H 0.35672 0.33553 0.62301 0.0
H3182 H 0.36923 0.32896 0.59614 0.0
H3183 H 0.37252 0.30742 0.57692 0.0
H3184 H 0.3443 0.2506 0.58941 0.0
H3185 H 0.33168 0.25713 0.61619 0.0
C3186 C 0.33747 0.28985 0.62724 0.0
C3187 C 0.34221 0.30778 0.63162 0.0
C3188 C 0.34469 0.28596 0.6119 0.0
C3189 C 0.35337 0.32169 0.62006 0.0
C3190 C 0.36043 0.31792 0.6047 0.0
C3191 C 0.3637 0.29632 0.58536 0.0
C3192 C 0.35962 0.27844 0.58113 0.0
C3193 C 0.35634 0.30013 0.60059 0.0
C3194 C 0.34789 0.26449 0.59245 0.0
C3195 C 0.34058 0.26819 0.60771 0.0
H3196 H 0.70115 0.05925 0.62174 0.0
H3197 H 0.73007 0.0314 0.60798 0.0
H3198 H 0.74077 0.04914 0.58038 0.0
H3199 H 0.74161 0.07226 0.55989 0.0
H3200 H 0.71357 0.10081 0.5741 0.0
H3201 H 0.70282 0.08308 0.6018 0.0
C3202 C 0.70974 0.057 0.61268 0.0
C3203 C 0.71467 0.0439 0.6169 0.0
C3204 C 0.71602 0.06738 0.59692 0.0
C3205 C 0.72603 0.04137 0.6051 0.0
C3206 C 0.73216 0.0515 0.58929 0.0
C3207 C 0.7332 0.07464 0.5691 0.0
C3208 C 0.72831 0.08775 0.56492 0.0
C3209 C 0.72721 0.06451 0.58505 0.0
C3210 C 0.71744 0.09073 0.57701 0.0
C3211 C 0.7113 0.0806 0.59282 0.0
H3212 H 0.95063 0.68773 0.6469 0.0
H3213 H 0.96273 0.64693 0.62811 0.0
H3214 H 0.94506 0.64244 0.59991 0.0
H3215 H 0.9263 0.65033 0.58059 0.0
H3216 H 0.91584 0.69263 0.59855 0.0
H3217 H 0.93214 0.6959 0.62733 0.0
C3218 C 0.94925 0.67781 0.63661 0.0
C3219 C 0.95732 0.66719 0.6397 0.0
C3220 C 0.93927 0.6755 0.62038 0.0
C3221 C 0.95601 0.65475 0.62618 0.0
C3222 C 0.94603 0.65229 0.61004 0.0
C3223 C 0.92773 0.66038 0.59071 0.0
C3224 C 0.92023 0.67153 0.5872 0.0
C3225 C 0.93756 0.66256 0.60702 0.0
C3226 C 0.92174 0.68409 0.60076 0.0
C3227 C 0.93109 0.686 0.61721 0.0
H3228 H 0.93468 0.64993 0.73037 0.0
H3229 H 0.97318 0.70389 0.7145 0.0
H3230 H 0.96514 0.71657 0.74032 0.0
H3231 H 0.94784 0.71237 0.76796 0.0
H3232 H 0.9107 0.65844 0.78495 0.0
H3233 H 0.91728 0.64575 0.75799 0.0
C3234 C 0.94125 0.66446 0.7325 0.0
C3235 C 0.95456 0.67591 0.72054 0.0
C3236 C 0.93681 0.67169 0.7476 0.0
C3237 C 0.963 0.69473 0.72358 0.0
C3238 C 0.95838 0.70202 0.73832 0.0
C3239 C 0.94128 0.69784 0.76581 0.0
C3240 C 0.92906 0.68636 0.77863 0.0
C3241 C 0.94545 0.69062 0.75053 0.0
C3242 C 0.92033 0.66756 0.77541 0.0
C3243 C 0.9241 0.6603 0.76001 0.0
H3244 H 0.30033 0.27523 0.70332 0.0
H3245 H 0.35483 0.30134 0.72448 0.0
H3246 H 0.34548 0.2814 0.75059 0.0
H3247 H 0.32164 0.25758 0.76827 0.0
H3248 H 0.26731 0.23099 0.74693 0.0
H3249 H 0.27679 0.25008 0.72001 0.0
C3250 C 0.31019 0.27654 0.7136 0.0
C3251 C 0.32824 0.28992 0.71197 0.0
C3252 C 0.30475 0.26498 0.72859 0.0
C3253 C 0.34084 0.29122 0.72534 0.0
C3254 C 0.33551 0.27984 0.74033 0.0
C3255 C 0.31191 0.25588 0.75764 0.0
C3256 C 0.29378 0.24301 0.75964 0.0
C3257 C 0.31748 0.26683 0.74221 0.0
C3258 C 0.28132 0.24089 0.74572 0.0
C3259 C 0.28674 0.25179 0.73037 0.0
H3260 H 0.70652 0.01549 0.71176 0.0
H3261 H 0.72977 0.06913 0.69034 0.0
H3262 H 0.7491 0.08141 0.7179 0.0
H3263 H 0.75865 0.07675 0.74842 0.0
H3264 H 0.73564 0.02253 0.76899 0.0
H3265 H 0.71718 0.01064 0.74139 0.0
C3266 C 0.71611 0.02981 0.71302 0.0
C3267 C 0.71725 0.04138 0.69894 0.0
C3268 C 0.72709 0.03667 0.7288 0.0
C3269 C 0.72904 0.06001 0.70095 0.0
C3270 C 0.74003 0.06698 0.71666 0.0
C3271 C 0.74964 0.06231 0.7468 0.0
C3272 C 0.74838 0.05077 0.76107 0.0
C3273 C 0.73909 0.05542 0.73071 0.0
C3274 C 0.73682 0.03201 0.75863 0.0
C3275 C 0.72617 0.02509 0.74275 0.0
H3276 H 0.02192 0.30565 0.028 0.0
H3277 H 0.07063 0.35685 0.02131 0.0
H3278 H 0.09025 0.34627 0.03306 0.0
H3279 H 0.09748 0.31952 0.04884 0.0
H3280 H 0.04017 0.25808 0.05563 0.0
H3281 H 0.02002 0.27401 0.04011 0.0
C3282 C 0.03632 0.31379 0.02952 0.0
C3283 C 0.04539 0.33201 0.02401 0.0
C3284 C 0.04559 0.30564 0.03645 0.0
C3285 C 0.06435 0.34297 0.02569 0.0
C3286 C 0.07596 0.33707 0.03239 0.0
C3287 C 0.08324 0.31083 0.04648 0.0
C3288 C 0.07069 0.28808 0.05687 0.0
C3289 C 0.06927 0.31953 0.03798 0.0
C3290 C 0.04687 0.27176 0.0507 0.0
C3291 C 0.03438 0.28206 0.04199 0.0
H3292 H 0.70026 0.70476 0.0603 0.0
H3293 H 0.65009 0.70362 0.04899 0.0
H3294 H 0.65703 0.72963 0.06858 0.0
H3295 H 0.67996 0.75902 0.09316 0.0
H3296 H 0.74008 0.76118 0.10695 0.0
H3297 H 0.72783 0.72935 0.0836 0.0
C3298 C 0.69186 0.71079 0.06228 0.0
C3299 C 0.6747 0.70304 0.05383 0.0
C3300 C 0.69808 0.72591 0.07361 0.0
C3301 C 0.66308 0.71031 0.05595 0.0
C3302 C 0.66679 0.72518 0.06733 0.0
C3303 C 0.68852 0.75306 0.09214 0.0
C3304 C 0.71251 0.76535 0.10001 0.0
C3305 C 0.68281 0.73406 0.07709 0.0
C3306 C 0.72669 0.75442 0.10094 0.0
C3307 C 0.71937 0.73529 0.08559 0.0
H3308 H 0.28849 0.98633 0.05066 0.0
H3309 H 0.27782 0.94314 0.01221 0.0
H3310 H 0.24708 0.92599 0.02266 0.0
H3311 H 0.22322 0.92337 0.04278 0.0
H3312 H 0.23386 0.96727 0.08022 0.0
H3313 H 0.2647 0.98398 0.07023 0.0
C3314 C 0.27946 0.97314 0.04458 0.0
C3315 C 0.28543 0.96599 0.03072 0.0
C3316 C 0.26181 0.96348 0.05051 0.0
C3317 C 0.27353 0.94896 0.02289 0.0
C3318 C 0.25597 0.93914 0.02888 0.0
C3319 C 0.23231 0.93662 0.04869 0.0
C3320 C 0.22625 0.94408 0.06221 0.0
C3321 C 0.24996 0.94628 0.04267 0.0
C3322 C 0.23818 0.96122 0.06982 0.0
C3323 C 0.2558 0.97079 0.0641 0.0
H3324 H 0.34929 0.0618 0.99067 0.0
H3325 H 0.30178 0.00969 0.9826 0.0
H3326 H 0.28651 0.024 0.96766 0.0
H3327 H 0.28629 0.05139 0.95752 0.0
H3328 H 0.33357 0.10341 0.96595 0.0
H3329 H 0.34925 0.08903 0.98008 0.0
C3330 C 0.33563 0.05351 0.98558 0.0
C3331 C 0.32676 0.03466 0.98782 0.0
C3332 C 0.32685 0.06181 0.97703 0.0
C3333 C 0.30901 0.02422 0.98113 0.0
C3334 C 0.30022 0.03239 0.97256 0.0
C3335 C 0.30009 0.05952 0.96227 0.0
C3336 C 0.30886 0.07838 0.96037 0.0
C3337 C 0.30897 0.05118 0.97051 0.0
C3338 C 0.32664 0.08883 0.96695 0.0
C3339 C 0.33558 0.08062 0.9751 0.0
H3340 H 0.99217 0.28646 0.96061 0.0
H3341 H 0.95479 0.27573 0.0037 0.0
H3342 H 0.93741 0.24421 0.99336 0.0
H3343 H 0.9324 0.21987 0.97163 0.0
H3344 H 0.96994 0.23035 0.92886 0.0
H3345 H 0.9877 0.26182 0.93951 0.0
C3346 C 0.98024 0.27721 0.96776 0.0
C3347 C 0.97474 0.28345 0.98285 0.0
C3348 C 0.97032 0.25909 0.96177 0.0
C3349 C 0.95931 0.27128 0.99204 0.0
C3350 C 0.94935 0.25326 0.98612 0.0
C3351 C 0.94452 0.22906 0.96471 0.0
C3352 C 0.9498 0.22285 0.94942 0.0
C3353 C 0.95467 0.24705 0.97095 0.0
C3354 C 0.96555 0.23485 0.94059 0.0
C3355 C 0.9757 0.25282 0.94668 0.0
H3356 H 0.69889 0.68851 0.99205 0.0
H3357 H 0.70533 0.64187 0.00118 0.0
H3358 H 0.73385 0.65647 0.98608 0.0
H3359 H 0.75734 0.68254 0.97091 0.0
H3360 H 0.75117 0.72905 0.96072 0.0
H3361 H 0.72228 0.71451 0.9758 0.0
C3362 C 0.70652 0.68153 0.99071 0.0
C3363 C 0.69989 0.66409 0.99779 0.0
C3364 C 0.72298 0.68997 0.98184 0.0
C3365 C 0.70997 0.65524 0.99583 0.0
C3366 C 0.72636 0.66359 0.98722 0.0
C3367 C 0.74955 0.6894 0.97172 0.0
C3368 C 0.75618 0.70667 0.96432 0.0
C3369 C 0.73299 0.68094 0.98022 0.0
C3370 C 0.74616 0.71559 0.966 0.0
C3371 C 0.7297 0.70731 0.97466 0.0
H3372 H 0.94812 0.67524 0.00339 0.0
H3373 H 0.99178 0.70738 0.96806 0.0
H3374 H 0.97639 0.72338 0.95745 0.0
H3375 H 0.95101 0.72905 0.95904 0.0
H3376 H 0.90722 0.69676 0.99407 0.0
H3377 H 0.92213 0.67999 0.00394 0.0
C3378 C 0.95424 0.68571 0.99334 0.0
C3379 C 0.9711 0.69016 0.9866 0.0
C3380 C 0.94526 0.6948 0.9872 0.0
C3381 C 0.97881 0.70369 0.97349 0.0
C3382 C 0.97002 0.71287 0.96741 0.0
C3383 C 0.94461 0.71813 0.96859 0.0
C3384 C 0.92789 0.71392 0.97557 0.0
C3385 C 0.9533 0.70861 0.97425 0.0
C3386 C 0.91995 0.70003 0.98828 0.0
C3387 C 0.92851 0.69052 0.994 0.0
H3388 H 0.31223 0.30555 0.98459 0.0
H3389 H 0.36342 0.32027 0.96165 0.0
H3390 H 0.34935 0.29385 0.94111 0.0
H3391 H 0.3227 0.2665 0.92987 0.0
H3392 H 0.27169 0.25037 0.95393 0.0
H3393 H 0.28545 0.27756 0.97367 0.0
C3394 C 0.32026 0.303 0.97501 0.0
C3395 C 0.33883 0.31486 0.97461 0.0
C3396 C 0.31214 0.28753 0.9635 0.0
C3397 C 0.34911 0.31129 0.96229 0.0
C3398 C 0.34108 0.29621 0.95051 0.0
C3399 C 0.3146 0.26877 0.93959 0.0
C3400 C 0.29624 0.25617 0.94075 0.0
C3401 C 0.32264 0.28418 0.95109 0.0
C3402 C 0.2859 0.25969 0.95305 0.0
C3403 C 0.29375 0.27524 0.96429 0.0
H3404 H 0.70432 0.01136 0.97351 0.0
H3405 H 0.71549 0.05005 0.01743 0.0
H3406 H 0.7456 0.06916 0.00618 0.0
H3407 H 0.7689 0.07469 0.98408 0.0
H3408 H 0.75819 0.03523 0.94116 0.0
H3409 H 0.72776 0.01666 0.95173 0.0
C3410 C 0.71333 0.024 0.9806 0.0
C3411 C 0.70766 0.0293 0.99625 0.0
C3412 C 0.73067 0.03482 0.97417 0.0
C3413 C 0.71953 0.04564 0.00536 0.0
C3414 C 0.73674 0.05659 0.99892 0.0
C3415 C 0.7598 0.06211 0.97695 0.0
C3416 C 0.76566 0.05663 0.96157 0.0
C3417 C 0.74245 0.05131 0.98335 0.0
C3418 C 0.75392 0.04003 0.95274 0.0
C3419 C 0.73653 0.02934 0.95886 0.0
H3420 H 0.6918 0.98002 0.04468 0.0
H3421 H 0.64962 0.92992 0.02107 0.0
H3422 H 0.66624 0.91462 0.02957 0.0
H3423 H 0.69339 0.9157 0.04225 0.0
H3424 H 0.73541 0.96541 0.06635 0.0
H3425 H 0.71819 0.9806 0.05919 0.0
C3426 C 0.6862 0.96574 0.04145 0.0
C3427 C 0.66951 0.95621 0.03213 0.0
C3428 C 0.69581 0.95694 0.04644 0.0
C3429 C 0.66241 0.93764 0.02824 0.0
C3430 C 0.67193 0.92885 0.03305 0.0
C3431 C 0.69868 0.92981 0.04611 0.0
C3432 C 0.71566 0.93945 0.05475 0.0
C3433 C 0.68871 0.9384 0.04196 0.0
C3434 C 0.72236 0.95773 0.05967 0.0
C3435 C 0.71255 0.96641 0.05554 0.0
H3436 H 0.01321 0.71385 0.04075 0.0
H3437 H 0.06467 0.72071 0.02626 0.0
H3438 H 0.07907 0.7524 0.03584 0.0
H3439 H 0.07676 0.77883 0.04564 0.0
H3440 H 0.02563 0.77208 0.06087 0.0
H3441 H 0.01141 0.73967 0.05372 0.0
C3442 C 0.0276 0.7222 0.03986 0.0
C3443 C 0.03776 0.71488 0.03254 0.0
C3444 C 0.03585 0.7405 0.04535 0.0
C3445 C 0.05644 0.72591 0.03175 0.0
C3446 C 0.06472 0.74411 0.03715 0.0
C3447 C 0.06254 0.77022 0.04757 0.0
C3448 C 0.05219 0.77787 0.05339 0.0
C3449 C 0.0545 0.75163 0.04355 0.0
C3450 C 0.03381 0.76652 0.0561 0.0
C3451 C 0.02569 0.74801 0.05204 0.0
H3452 H 0.29956 0.32104 0.04652 0.0
H3453 H 0.29186 0.35547 0.00873 0.0
H3454 H 0.2611 0.34332 0.01838 0.0
H3455 H 0.23613 0.32249 0.03706 0.0
H3456 H 0.2433 0.28733 0.07416 0.0
H3457 H 0.2745 0.30021 0.06535 0.0
C3458 C 0.29117 0.32591 0.04043 0.0
C3459 C 0.29802 0.33915 0.02691 0.0
C3460 C 0.27341 0.31879 0.04598 0.0
C3461 C 0.28694 0.34528 0.01913 0.0
C3462 C 0.26933 0.33835 0.02466 0.0
C3463 C 0.24463 0.31784 0.04338 0.0
C3464 C 0.23756 0.30433 0.05657 0.0
C3465 C 0.26242 0.32508 0.03803 0.0
C3466 C 0.24854 0.29803 0.06429 0.0
C3467 C 0.26635 0.30531 0.05917 0.0
H3468 H 0.68415 0.6387 0.36577 0.0
H3469 H 0.72134 0.69022 0.39178 0.0
H3470 H 0.73474 0.6778 0.41228 0.0
H3471 H 0.74037 0.64926 0.42535 0.0
H3472 H 0.69647 0.58745 0.3954 0.0
H3473 H 0.68071 0.60526 0.37469 0.0
C3474 C 0.69476 0.64631 0.37582 0.0
C3475 C 0.7023 0.66526 0.37776 0.0
C3476 C 0.70109 0.63711 0.38635 0.0
C3477 C 0.71624 0.67577 0.3908 0.0
C3478 C 0.72411 0.66883 0.40284 0.0
C3479 C 0.72873 0.6409 0.41671 0.0
C3480 C 0.72219 0.61712 0.41029 0.0
C3481 C 0.7186 0.65064 0.40246 0.0
C3482 C 0.70079 0.60161 0.39775 0.0
C3483 C 0.69172 0.61297 0.38426 0.0
H3484 H 0.36279 0.03814 0.39184 0.0
H3485 H 0.31229 0.03692 0.38267 0.0
H3486 H 0.31992 0.06315 0.40214 0.0
H3487 H 0.34378 0.09304 0.42563 0.0
H3488 H 0.40447 0.09566 0.43674 0.0
H3489 H 0.39131 0.06329 0.41401 0.0
C3490 C 0.35448 0.0442 0.39425 0.0
C3491 C 0.33705 0.03638 0.38643 0.0
C3492 C 0.36113 0.05953 0.40537 0.0
C3493 C 0.32551 0.04366 0.38914 0.0
C3494 C 0.32962 0.05868 0.40045 0.0
C3495 C 0.3523 0.08707 0.42426 0.0
C3496 C 0.37657 0.09959 0.43102 0.0
C3497 C 0.346 0.06774 0.40952 0.0
C3498 C 0.39084 0.08873 0.43135 0.0
C3499 C 0.38292 0.06924 0.41638 0.0
H3500 H 0.967 0.32338 0.3738 0.0
H3501 H 0.95878 0.28174 0.33435 0.0
H3502 H 0.9276 0.26387 0.34311 0.0
H3503 H 0.90277 0.25978 0.36249 0.0
H3504 H 0.91089 0.30182 0.40132 0.0
H3505 H 0.94202 0.31974 0.39242 0.0
C3506 C 0.95837 0.31043 0.36705 0.0
C3507 C 0.96523 0.3039 0.35346 0.0
C3508 C 0.94046 0.30024 0.37215 0.0
C3509 C 0.95385 0.28711 0.34483 0.0
C3510 C 0.93602 0.27685 0.34987 0.0
C3511 C 0.91138 0.27289 0.36895 0.0
C3512 C 0.90455 0.27942 0.3826 0.0
C3513 C 0.92921 0.28322 0.3636 0.0
C3514 C 0.91583 0.29644 0.39085 0.0
C3515 C 0.93362 0.30671 0.38574 0.0
H3516 H 0.99073 0.3517 0.30609 0.0
H3517 H 0.04363 0.39805 0.31336 0.0
H3518 H 0.03379 0.41693 0.29799 0.0
H3519 H 0.00984 0.421 0.28453 0.0
H3520 H 0.95695 0.37509 0.27669 0.0
H3521 H 0.96712 0.3554 0.29035 0.0
C3522 C 1.00018 0.36587 0.30412 0.0
C3523 C 0.01788 0.37337 0.31106 0.0
C3524 C 0.99442 0.37681 0.29527 0.0
C3525 C 0.0299 0.39181 0.30831 0.0
C3526 C 0.02429 0.40271 0.29953 0.0
C3527 C 0.00061 0.40662 0.28543 0.0
C3528 C 0.98273 0.39945 0.27927 0.0
C3529 C 0.00653 0.39544 0.29325 0.0
C3530 C 0.97085 0.38086 0.28105 0.0
C3531 C 0.97664 0.36963 0.28892 0.0
H3532 H 0.61973 0.62873 0.31269 0.0
H3533 H 0.66809 0.62488 0.3147 0.0
H3534 H 0.65594 0.59759 0.29562 0.0
H3535 H 0.62814 0.56891 0.27353 0.0
H3536 H 0.57174 0.57542 0.26693 0.0
H3537 H 0.58926 0.60708 0.29096 0.0
C3538 C 0.62655 0.62136 0.30899 0.0
C3539 C 0.64449 0.62779 0.31467 0.0
C3540 C 0.61779 0.60635 0.29747 0.0
C3541 C 0.65433 0.61908 0.30979 0.0
C3542 C 0.64754 0.60337 0.2988 0.0
C3543 C 0.62118 0.57637 0.2761 0.0
C3544 C 0.59692 0.56684 0.27044 0.0
C3545 C 0.63038 0.59562 0.29149 0.0
C3546 C 0.58536 0.58051 0.27192 0.0
C3547 C 0.59599 0.59958 0.28757 0.0
H3548 H 0.36153 0.97175 0.32736 0.0
H3549 H 0.35961 0.02146 0.32422 0.0
H3550 H 0.38692 0.03496 0.30659 0.0
H3551 H 0.41177 0.03283 0.2926 0.0
H3552 H 0.41399 0.98343 0.2971 0.0
H3553 H 0.38607 0.96962 0.31355 0.0
C3554 C 0.36697 0.98551 0.32276 0.0
C3555 C 0.35842 0.99552 0.32711 0.0
C3556 C 0.38272 0.99324 0.31278 0.0
C3557 C 0.36586 0.01341 0.32112 0.0
C3558 C 0.38148 0.02115 0.31101 0.0
C3559 C 0.40596 0.01896 0.29698 0.0
C3560 C 0.41468 0.00902 0.29313 0.0
C3561 C 0.39005 0.0112 0.3068 0.0
C3562 C 0.40732 0.99123 0.2994 0.0
C3563 C 0.39142 0.98336 0.30893 0.0
H3564 H 0.60842 0.98642 0.33146 0.0
H3565 H 0.6531 0.02089 0.29828 0.0
H3566 H 0.63769 0.03721 0.28851 0.0
H3567 H 0.6123 0.04292 0.29104 0.0
H3568 H 0.5679 0.0085 0.32446 0.0
H3569 H 0.58238 0.99086 0.33245 0.0
C3570 C 0.61475 0.99742 0.32198 0.0
C3571 C 0.63193 0.00252 0.31571 0.0
C3572 C 0.60586 0.00676 0.31649 0.0
C3573 C 0.63989 0.01672 0.30334 0.0
C3574 C 0.6311 0.02608 0.29778 0.0
C3575 C 0.6057 0.03136 0.2998 0.0
C3576 C 0.58897 0.02687 0.30699 0.0
C3577 C 0.6142 0.02139 0.30448 0.0
C3578 C 0.58068 0.01207 0.3186 0.0
C3579 C 0.58898 0.00204 0.32324 0.0
H3580 H 0.03025 0.6549 0.30648 0.0
H3581 H 0.97739 0.64456 0.3201 0.0
H3582 H 0.96407 0.61666 0.30164 0.0
H3583 H 0.96746 0.59485 0.282 0.0
H3584 H 0.02035 0.60608 0.26753 0.0
H3585 H 0.03359 0.63391 0.28601 0.0
C3586 C 0.0158 0.64658 0.30543 0.0
C3587 C 0.00487 0.65182 0.31476 0.0
C3588 C 0.00822 0.6306 0.29475 0.0
C3589 C 0.98616 0.64091 0.31305 0.0
C3590 C 0.97852 0.6249 0.30254 0.0
C3591 C 0.98188 0.60335 0.28306 0.0
C3592 C 0.99289 0.59807 0.27392 0.0
C3593 C 0.98942 0.61954 0.29344 0.0
C3594 C 0.01156 0.60951 0.27488 0.0
C3595 C 0.01915 0.6255 0.28534 0.0
H3596 H 0.36931 0.34758 0.31287 0.0
H3597 H 0.38093 0.38608 0.35711 0.0
H3598 H 0.41202 0.40317 0.34802 0.0
H3599 H 0.4362 0.40664 0.32822 0.0
H3600 H 0.42508 0.36756 0.28481 0.0
H3601 H 0.39352 0.35131 0.29275 0.0
C3602 C 0.37863 0.35976 0.32046 0.0
C3603 C 0.37281 0.36553 0.33566 0.0
C3604 C 0.39657 0.36945 0.31526 0.0
C3605 C 0.38507 0.3813 0.3454 0.0
C3606 C 0.40286 0.3911 0.3402 0.0
C3607 C 0.42678 0.39471 0.32035 0.0
C3608 C 0.43288 0.38857 0.30569 0.0
C3609 C 0.40878 0.38525 0.32524 0.0
C3610 C 0.42065 0.37281 0.29588 0.0
C3611 C 0.40263 0.36345 0.3005 0.0
H3612 H 0.35403 0.3175 0.38236 0.0
H3613 H 0.30763 0.26753 0.36438 0.0
H3614 H 0.32334 0.25098 0.37147 0.0
H3615 H 0.35106 0.25099 0.38025 0.0
H3616 H 0.39731 0.30064 0.39869 0.0
H3617 H 0.38082 0.317 0.394 0.0
C3618 C 0.34727 0.30296 0.38015 0.0
C3619 C 0.32972 0.29386 0.37263 0.0
C3620 C 0.3564 0.29347 0.3842 0.0
C3621 C 0.32114 0.27497 0.37009 0.0
C3622 C 0.33014 0.26546 0.37407 0.0
C3623 C 0.35745 0.26535 0.38343 0.0
C3624 C 0.37545 0.27466 0.38953 0.0
C3625 C 0.34789 0.27462 0.38074 0.0
C3626 C 0.38352 0.29324 0.39378 0.0
C3627 C 0.3741 0.30258 0.39109 0.0
H3628 H 0.72251 0.03633 0.36123 0.0
H3629 H 0.66936 0.02691 0.37186 0.0
H3630 H 0.68159 0.05887 0.37992 0.0
H3631 H 0.70701 0.09002 0.38082 0.0
H3632 H 0.75958 0.09942 0.36762 0.0
H3633 H 0.74799 0.06693 0.36396 0.0
C3634 C 0.71358 0.04114 0.36558 0.0
C3635 C 0.695 0.02919 0.36577 0.0
C3636 C 0.7206 0.05962 0.36958 0.0
C3637 C 0.6837 0.03579 0.37146 0.0
C3638 C 0.69067 0.05409 0.37602 0.0
C3639 C 0.71591 0.08491 0.37724 0.0
C3640 C 0.73406 0.09712 0.37417 0.0
C3641 C 0.70904 0.06622 0.3746 0.0
C3642 C 0.74552 0.09032 0.36985 0.0
C3643 C 0.7389 0.07175 0.36773 0.0
H3644 H 0.96436 0.65204 0.38674 0.0
H3645 H 0.95135 0.68201 0.34788 0.0
H3646 H 0.91981 0.66424 0.35499 0.0
H3647 H 0.89565 0.63913 0.37091 0.0
H3648 H 0.90817 0.60874 0.40953 0.0
H3649 H 0.94013 0.62776 0.40396 0.0
C3650 C 0.95463 0.65475 0.37993 0.0
C3651 C 0.96022 0.66827 0.36672 0.0
C3652 C 0.93641 0.64441 0.38404 0.0
C3653 C 0.94744 0.67165 0.35805 0.0
C3654 C 0.92937 0.66149 0.3621 0.0
C3655 C 0.90542 0.63687 0.37831 0.0
C3656 C 0.8996 0.6227 0.39074 0.0
C3657 C 0.92368 0.6477 0.37489 0.0
C3658 C 0.91237 0.61972 0.40005 0.0
C3659 C 0.93061 0.63053 0.3968 0.0
H3660 H 0.39587 0.0288 0.68721 0.0
H3661 H 0.34562 0.98372 0.70407 0.0
H3662 H 0.35926 0.96782 0.7185 0.0
H3663 H 0.38945 0.96447 0.73094 0.0
H3664 H 0.44938 0.01669 0.70963 0.0
H3665 H 0.42946 0.03203 0.69219 0.0
C3666 C 0.38875 0.01607 0.69414 0.0
C3667 C 0.36988 0.00696 0.69504 0.0
C3668 C 0.3986 0.00878 0.70163 0.0
C3669 C 0.36006 0.99003 0.70373 0.0
C3670 C 0.36771 0.98062 0.71215 0.0
C3671 C 0.39684 0.97644 0.72294 0.0
C3672 C 0.42167 0.99053 0.72495 0.0
C3673 C 0.38598 0.98761 0.71237 0.0
C3674 C 0.43491 0.0097 0.70951 0.0
C3675 C 0.42249 0.01953 0.69949 0.0
H3676 H 0.98076 0.36148 0.71042 0.0
H3677 H 0.03225 0.36406 0.71453 0.0
H3678 H 0.04561 0.39016 0.7354 0.0
H3679 H 0.04468 0.41798 0.75743 0.0
H3680 H 0.98219 0.4125 0.75666 0.0
H3681 H 0.97024 0.3822 0.73113 0.0
C3682 C 0.9944 0.36832 0.71581 0.0
C3683 C 0.00622 0.3619 0.71141 0.0
C3684 C 0.99959 0.3826 0.72808 0.0
C3685 C 0.02403 0.36986 0.71852 0.0
C3686 C 0.03191 0.38487 0.73056 0.0
C3687 C 0.0307 0.41092 0.7532 0.0
C3688 C 0.01571 0.42059 0.7571 0.0
C3689 C 0.02205 0.39254 0.73674 0.0
C3690 C 0.991 0.40744 0.75271 0.0
C3691 C 0.98398 0.38924 0.73617 0.0
H3692 H 0.63504 0.65952 0.72374 0.0
H3693 H 0.62267 0.61362 0.68846 0.0
H3694 H 0.59318 0.59675 0.70161 0.0
H3695 H 0.57053 0.59518 0.72258 0.0
H3696 H 0.58218 0.64132 0.75702 0.0
H3697 H 0.6123 0.65787 0.7449 0.0
C3698 C 0.62591 0.6458 0.71899 0.0
C3699 C 0.63107 0.63787 0.70513 0.0
C3700 C 0.60883 0.63619 0.72649 0.0
C3701 C 0.61904 0.6201 0.69907 0.0
C3702 C 0.60216 0.61041 0.70659 0.0
C3703 C 0.57973 0.60882 0.72749 0.0
C3704 C 0.57418 0.61696 0.74077 0.0
C3705 C 0.59687 0.61834 0.72023 0.0
C3706 C 0.58617 0.63471 0.74692 0.0
C3707 C 0.60337 0.64419 0.73994 0.0
H3708 H 0.6419 0.6768 0.64774 0.0
H3709 H 0.68928 0.7291 0.65556 0.0
H3710 H 0.67395 0.74363 0.64165 0.0
H3711 H 0.64721 0.74192 0.62777 0.0
H3712 H 0.59975 0.69019 0.61878 0.0
H3713 H 0.61491 0.67507 0.63282 0.0
C3714 C 0.64886 0.69136 0.64636 0.0
C3715 C 0.66676 0.70175 0.65271 0.0
C3716 C 0.63997 0.69978 0.63815 0.0
C3717 C 0.67556 0.72064 0.65075 0.0
C3718 C 0.6668 0.72905 0.64282 0.0
C3719 C 0.64025 0.7273 0.62862 0.0
C3720 C 0.62253 0.71714 0.62184 0.0
C3721 C 0.64904 0.71878 0.6365 0.0
C3722 C 0.61352 0.69826 0.62358 0.0
C3723 C 0.62217 0.68964 0.63165 0.0
H3724 H 0.29743 0.95028 0.67423 0.0
H3725 H 0.30724 0.97191 0.61968 0.0
H3726 H 0.29295 0.94258 0.60412 0.0
H3727 H 0.27339 0.90378 0.6033 0.0
H3728 H 0.26415 0.8772 0.66792 0.0
H3729 H 0.28234 0.91379 0.68262 0.0
C3730 C 0.29594 0.94784 0.65956 0.0
C3731 C 0.3028 0.96242 0.64745 0.0
C3732 C 0.28779 0.9302 0.65296 0.0
C3733 C 0.30164 0.96005 0.62812 0.0
C3734 C 0.29342 0.94324 0.61893 0.0
C3735 C 0.27579 0.9056 0.61795 0.0
C3736 C 0.26394 0.88671 0.63412 0.0
C3737 C 0.28609 0.92754 0.6287 0.0
C3738 C 0.27011 0.88866 0.659 0.0
C3739 C 0.28045 0.91139 0.66798 0.0
H3740 H 0.0313 0.34947 0.64875 0.0
H3741 H 0.03502 0.30105 0.65604 0.0
H3742 H 0.06452 0.31563 0.64288 0.0
H3743 H 0.08973 0.34229 0.63023 0.0
H3744 H 0.08615 0.39053 0.62182 0.0
H3745 H 0.05622 0.3759 0.63465 0.0
C3746 C 0.03854 0.34209 0.6474 0.0
C3747 C 0.03089 0.32418 0.65345 0.0
C3748 C 0.05555 0.35051 0.63964 0.0
C3749 C 0.04047 0.31481 0.65148 0.0
C3750 C 0.05741 0.32315 0.64399 0.0
C3751 C 0.0823 0.34952 0.63088 0.0
C3752 C 0.09 0.36736 0.62468 0.0
C3753 C 0.06511 0.341 0.63811 0.0
C3754 C 0.08035 0.37667 0.62617 0.0
C3755 C 0.06329 0.36834 0.63356 0.0
H3756 H 0.31301 0.36318 0.63923 0.0
H3757 H 0.27172 0.32468 0.6735 0.0
H3758 H 0.25449 0.34021 0.66915 0.0
H3759 H 0.25216 0.36599 0.65748 0.0
H3760 H 0.29378 0.40502 0.62406 0.0
H3761 H 0.30984 0.388 0.62612 0.0
C3762 C 0.30014 0.35806 0.64558 0.0
C3763 C 0.29371 0.34284 0.65675 0.0
C3764 C 0.29039 0.3672 0.64322 0.0
C3765 C 0.27702 0.3364 0.66489 0.0
C3766 C 0.26716 0.34529 0.66244 0.0
C3767 C 0.2646 0.37057 0.65041 0.0
C3768 C 0.27167 0.38658 0.64045 0.0
C3769 C 0.27386 0.36088 0.65191 0.0
C3770 C 0.28796 0.39259 0.63159 0.0
C3771 C 0.29718 0.38291 0.63285 0.0
H3772 H 0.68572 0.95762 0.64487 0.0
H3773 H 0.64344 0.96954 0.63175 0.0
H3774 H 0.62359 0.93792 0.62286 0.0
H3775 H 0.61751 0.90639 0.62109 0.0
H3776 H 0.65941 0.89455 0.63591 0.0
H3777 H 0.68019 0.92666 0.64158 0.0
C3778 C 0.67225 0.95342 0.63986 0.0
C3779 C 0.66611 0.96601 0.63911 0.0
C3780 C 0.66078 0.93516 0.63513 0.0
C3781 C 0.64855 0.96018 0.63259 0.0
C3782 C 0.63715 0.94207 0.62751 0.0
C3783 C 0.63123 0.9109 0.62543 0.0
C3784 C 0.63687 0.8981 0.62825 0.0
C3785 C 0.64301 0.92937 0.6291 0.0
C3786 C 0.65473 0.90412 0.63373 0.0
C3787 C 0.6666 0.92247 0.63702 0.0
H3788 H 0.03542 0.68149 0.64311 0.0
H3789 H 0.04584 0.71903 0.68801 0.0
H3790 H 0.07695 0.73681 0.67934 0.0
H3791 H 0.1013 0.74181 0.65908 0.0
H3792 H 0.09145 0.70403 0.6147 0.0
H3793 H 0.06006 0.68631 0.62301 0.0
C3794 C 0.04451 0.69354 0.651 0.0
C3795 C 0.03828 0.69891 0.66617 0.0
C3796 C 0.06247 0.70375 0.64595 0.0
C3797 C 0.05026 0.71455 0.67628 0.0
C3798 C 0.06807 0.72478 0.67132 0.0
C3799 C 0.0922 0.7298 0.65112 0.0
C3800 C 0.09856 0.72454 0.63601 0.0
C3801 C 0.0743 0.71955 0.65615 0.0
C3802 C 0.08678 0.70864 0.62611 0.0
C3803 C 0.06886 0.69844 0.63093 0.0
H3804 H 0.01462 0.65084 0.71385 0.0
H3805 H 0.96371 0.603 0.70194 0.0
H3806 H 0.97572 0.58402 0.71253 0.0
H3807 H 0.00132 0.58071 0.7224 0.0
H3808 H 0.05201 0.62816 0.73528 0.0
H3809 H 0.0394 0.64752 0.72718 0.0
C3810 C 0.00607 0.63628 0.71377 0.0
C3811 C 0.98834 0.62844 0.70681 0.0
C3812 C 0.01307 0.62531 0.71984 0.0
C3813 C 0.97744 0.60951 0.70705 0.0
C3814 C 0.9843 0.59857 0.71307 0.0
C3815 C 0.00957 0.59529 0.72355 0.0
C3816 C 0.02773 0.60299 0.7288 0.0
C3817 C 0.0022 0.6063 0.71903 0.0
C3818 C 0.03813 0.6219 0.73074 0.0
C3819 C 0.0309 0.63297 0.72617 0.0
H3820 H 0.38451 0.38259 0.69758 0.0
H3821 H 0.33042 0.35933 0.71636 0.0
H3822 H 0.33878 0.38642 0.73502 0.0
H3823 H 0.36118 0.41649 0.74577 0.0
H3824 H 0.41513 0.44053 0.72615 0.0
H3825 H 0.40693 0.41317 0.70797 0.0
C3826 C 0.37456 0.38338 0.70584 0.0
C3827 C 0.35688 0.36888 0.70562 0.0
C3828 C 0.37938 0.39912 0.71632 0.0
C3829 C 0.34412 0.37027 0.71624 0.0
C3830 C 0.34889 0.38577 0.72692 0.0
C3831 C 0.3713 0.41601 0.73759 0.0
C3832 C 0.38893 0.43077 0.7375 0.0
C3833 C 0.36647 0.40031 0.72702 0.0
C3834 C 0.40152 0.42941 0.72655 0.0
C3835 C 0.39685 0.41377 0.71616 0.0
H3836 H 0.63638 0.9919 0.70444 0.0
H3837 H 0.62922 0.0214 0.66041 0.0
H3838 H 0.60098 0.01606 0.67306 0.0
H3839 H 0.57833 0.00311 0.69667 0.0
H3840 H 0.58491 0.97276 0.7401 0.0
H3841 H 0.61338 0.97839 0.72771 0.0
C3842 C 0.62862 0.99713 0.69759 0.0
C3843 C 0.63492 0.00705 0.68152 0.0
C3844 C 0.61236 0.99398 0.70492 0.0
C3845 C 0.62468 0.01369 0.67279 0.0
C3846 C 0.60854 0.01069 0.68003 0.0
C3847 C 0.58612 0.99791 0.7035 0.0
C3848 C 0.57979 0.98801 0.71956 0.0
C3849 C 0.6023 0.00092 0.69612 0.0
C3850 C 0.58972 0.98084 0.728 0.0
C3851 C 0.60594 0.98395 0.72085 0.0
loop_
_geom_bond_atom_site_label_1
_geom_bond_atom_site_label_2
_geom_bond_distance
_geom_bond_site_symmetry_2
_ccdc_geom_bond_type
Mn0 O5 2.095 1_655 S
Mn0 O15 2.162 . S
Mn0 O16 2.297 1_554 S
Mn0 O24 2.385 1_554 S
Mn0 O25 2.209 1_654 S
Mn0 O26 2.094 . S
Mn1 O6 2.121 . S
Mn1 N8 2.257 1_554 S
Mn1 N17 2.282 . S
Mn1 O25 2.215 1_554 S
Mn1 O27 2.117 . S
C2 O24 1.234 1_455 S
C2 O25 1.283 . S
C3 O15 1.281 1_556 S
C3 O16 1.236 . S
C4 O26 1.256 . S
C4 O27 1.219 1_655 S
O5 Mn0 2.095 1_455 S
O5 C14 1.250 . S
O6 Mn1 2.121 . S
O6 C14 1.258 . S
C7 N8 1.326 . S
C7 C11 1.460 . S
C7 H13 0.925 1_556 S
N8 Mn1 2.257 1_556 S
N8 C7 1.326 . S
N8 C12 1.362 . S
C9 C10 1.258 . S
C9 C12 1.431 . S
C9 C29 1.449 . S
C10 C9 1.258 . S
C10 C11 1.477 . S
C10 H30 0.931 . S
C11 C7 1.460 . S
C11 C10 1.477 . S
C11 H31 0.930 . S
C12 N8 1.362 . S
C12 C9 1.431 . S
C12 C22 1.476 . S
H13 C7 0.925 1_554 S
C14 O5 1.250 . S
C14 O6 1.258 . S
O15 Mn0 2.162 . S
O15 C3 1.281 1_554 S
O16 Mn0 2.297 1_556 S
O16 C3 1.236 . S
N17 Mn1 2.282 . S
N17 C18 1.328 . S
N17 C22 1.318 1_554 S
C18 N17 1.328 . S
C18 C19 1.457 1_554 S
C18 H23 0.929 . S
C19 C18 1.457 1_556 S
C19 C20 1.291 . S
C19 H32 0.926 1_556 S
C20 C19 1.291 . S
C20 C21 1.373 . S
C20 H33 0.929 . S
C21 C20 1.373 . S
C21 C22 1.396 . S
C21 C28 1.403 . S
C22 C12 1.476 . S
C22 N17 1.318 1_556 S
C22 C21 1.396 . S
H23 C18 0.929 . S
O24 Mn0 2.385 1_556 S
O24 C2 1.234 1_655 S
O25 Mn0 2.209 1_456 S
O25 Mn1 2.215 1_556 S
O25 C2 1.283 . S
O26 Mn0 2.094 . S
O26 C4 1.256 . S
O27 Mn1 2.117 . S
O27 C4 1.219 1_455 S
C28 C21 1.403 . S
C28 C29 1.399 . S
C28 H34 0.929 . S
C29 C9 1.449 . S
C29 C28 1.399 . S
C29 H35 0.930 . S
H30 C10 0.931 . S
H31 C11 0.930 . S
H32 C19 0.926 1_554 S
H33 C20 0.929 . S
H34 C28 0.929 . S
H35 C29 0.930 . S
Mn36 O41 2.095 1_554 S
Mn36 O51 2.162 . S
Mn36 O52 2.297 . S
Mn36 O60 2.385 . S
Mn36 O61 2.209 . S
Mn36 O62 2.094 1_554 S
Mn37 O42 2.121 1_554 S
Mn37 N44 2.257 . S
Mn37 N53 2.282 . S
Mn37 O61 2.215 . S
Mn37 O63 2.117 1_554 S
C38 O60 1.234 . S
C38 O61 1.283 . S
C39 O51 1.281 . S
C39 O52 1.236 . S
C40 O62 1.240 . S
C40 O63 1.264 . S
O41 Mn36 2.095 1_556 S
O41 C50 1.250 . S
O42 Mn37 2.121 1_556 S
O42 C50 1.258 . S
C43 N44 1.326 . S
C43 C47 1.460 . S
C43 H49 0.929 . S
N44 Mn37 2.257 . S
N44 C43 1.326 . S
N44 C48 1.362 . S
C45 C46 1.258 . S
C45 C48 1.431 . S
C45 C65 1.449 . S
C46 C45 1.258 . S
C46 C47 1.477 . S
C46 H66 0.931 . S
C47 C43 1.460 . S
C47 C46 1.477 . S
C47 H67 0.930 . S
C48 N44 1.362 . S
C48 C45 1.431 . S
C48 C58 1.476 . S
H49 C43 0.929 . S
C50 O41 1.250 . S
C50 O42 1.258 . S
O51 Mn36 2.162 . S
O51 C39 1.281 . S
O52 Mn36 2.297 . S
O52 C39 1.236 . S
N53 Mn37 2.282 . S
N53 C54 1.328 . S
N53 C58 1.318 . S
C54 N53 1.328 . S
C54 C55 1.457 . S
C54 H59 0.929 . S
C55 C54 1.457 . S
C55 C56 1.291 . S
C55 H68 0.931 . S
C56 C55 1.291 . S
C56 C57 1.373 . S
C56 H69 0.929 . S
C57 C56 1.373 . S
C57 C58 1.396 . S
C57 C64 1.403 . S
C58 C48 1.476 . S
C58 N53 1.318 . S
C58 C57 1.396 . S
H59 C54 0.929 . S
O60 Mn36 2.385 . S
O60 C38 1.234 . S
O61 Mn36 2.209 . S
O61 Mn37 2.215 . S
O61 C38 1.283 . S
O62 Mn36 2.094 1_556 S
O62 C40 1.240 . S
O63 Mn37 2.117 1_556 S
O63 C40 1.264 . S
C64 C57 1.403 . S
C64 C65 1.399 . S
C64 H70 0.929 . S
C65 C45 1.449 . S
C65 C64 1.399 . S
C65 H71 0.930 . S
H66 C46 0.931 . S
H67 C47 0.930 . S
H68 C55 0.931 . S
H69 C56 0.929 . S
H70 C64 0.929 . S
H71 C65 0.930 . S
Mn72 O77 2.095 1_564 S
Mn72 O87 2.162 . S
Mn72 O88 2.297 . S
Mn72 O96 2.385 . S
Mn72 O97 2.209 1_565 S
Mn72 O98 2.094 1_554 S
Mn73 O78 2.113 1_554 S
Mn73 N80 2.287 . S
Mn73 N89 2.300 . S
Mn73 O97 2.251 . S
Mn73 O99 2.089 1_554 S
C74 O96 1.234 1_545 S
C74 O97 1.283 . S
C75 O87 1.281 . S
C75 O88 1.236 . S
C76 O98 1.240 . S
C76 O99 1.264 1_565 S
O77 Mn72 2.095 1_546 S
O77 C86 1.250 . S
O78 Mn73 2.113 1_556 S
O78 C86 1.258 . S
C79 N80 1.326 . S
C79 C83 1.460 . S
C79 H85 0.929 . S
N80 Mn73 2.287 . S
N80 C79 1.326 . S
N80 C84 1.362 . S
C81 C82 1.258 . S
C81 C84 1.431 . S
C81 C101 1.449 . S
C82 C81 1.258 . S
C82 C83 1.477 . S
C82 H102 0.931 . S
C83 C79 1.460 . S
C83 C82 1.477 . S
C83 H103 0.930 . S
C84 N80 1.362 . S
C84 C81 1.431 . S
C84 C94 1.476 . S
H85 C79 0.929 . S
C86 O77 1.250 . S
C86 O78 1.258 . S
O87 Mn72 2.162 . S
O87 C75 1.281 . S
O88 Mn72 2.297 . S
O88 C75 1.236 . S
N89 Mn73 2.300 . S
N89 C90 1.328 . S
N89 C94 1.318 . S
C90 N89 1.328 . S
C90 C91 1.457 . S
C90 H95 0.929 . S
C91 C90 1.457 . S
C91 C92 1.291 . S
C91 H104 0.931 . S
C92 C91 1.291 . S
C92 C93 1.373 . S
C92 H105 0.929 . S
C93 C92 1.373 . S
C93 C94 1.396 . S
C93 C100 1.403 . S
C94 C84 1.476 . S
C94 N89 1.318 . S
C94 C93 1.396 . S
H95 C90 0.929 . S
O96 Mn72 2.385 . S
O96 C74 1.234 1_565 S
O97 Mn72 2.209 1_545 S
O97 Mn73 2.251 . S
O97 C74 1.283 . S
O98 Mn72 2.094 1_556 S
O98 C76 1.240 . S
O99 Mn73 2.089 1_556 S
O99 C76 1.264 1_545 S
C100 C93 1.403 . S
C100 C101 1.399 . S
C100 H106 0.929 . S
C101 C81 1.449 . S
C101 C100 1.399 . S
C101 H107 0.930 . S
H102 C82 0.931 . S
H103 C83 0.930 . S
H104 C91 0.931 . S
H105 C92 0.929 . S
H106 C100 0.929 . S
H107 C101 0.930 . S
Mn108 O113 2.095 1_655 S
Mn108 O123 2.162 . S
Mn108 O124 2.297 1_554 S
Mn108 O132 2.385 1_554 S
Mn108 O133 2.209 1_654 S
Mn108 O134 2.094 . S
Mn109 O114 2.121 . S
Mn109 N116 2.257 . S
Mn109 N125 2.282 . S
Mn109 O133 2.215 1_554 S
Mn109 O135 2.117 . S
C110 O132 1.234 1_455 S
C110 O133 1.283 . S
C111 O123 1.281 1_556 S
C111 O124 1.236 . S
C112 O134 1.240 . S
C112 O135 1.264 1_655 S
O113 Mn108 2.095 1_455 S
O113 C122 1.250 . S
O114 Mn109 2.121 . S
O114 C122 1.258 . S
C115 N116 1.323 1_556 S
C115 C119 1.471 . S
C115 H121 0.922 1_556 S
N116 Mn109 2.257 . S
N116 C115 1.323 1_554 S
N116 C120 1.362 1_554 S
C117 C118 1.258 . S
C117 C120 1.431 . S
C117 C137 1.449 . S
C118 C117 1.258 . S
C118 C119 1.477 . S
C118 H138 0.931 . S
C119 C115 1.471 . S
C119 C118 1.477 . S
C119 H139 0.930 . S
C120 N116 1.362 1_556 S
C120 C117 1.431 . S
C120 C130 1.476 . S
H121 C115 0.922 1_554 S
C122 O113 1.250 . S
C122 O114 1.258 . S
O123 Mn108 2.162 . S
O123 C111 1.281 1_554 S
O124 Mn108 2.297 1_556 S
O124 C111 1.236 . S
N125 Mn109 2.282 . S
N125 C126 1.328 . S
N125 C130 1.318 1_554 S
C126 N125 1.328 . S
C126 C127 1.457 . S
C126 H131 0.929 . S
C127 C126 1.457 . S
C127 C128 1.291 1_554 S
C127 H140 0.931 . S
C128 C127 1.291 1_556 S
C128 C129 1.373 . S
C128 H141 0.929 . S
C129 C128 1.373 . S
C129 C130 1.396 . S
C129 C136 1.403 . S
C130 C120 1.476 . S
C130 N125 1.318 1_556 S
C130 C129 1.396 . S
H131 C126 0.929 . S
O132 Mn108 2.385 1_556 S
O132 C110 1.234 1_655 S
O133 Mn108 2.209 1_456 S
O133 Mn109 2.215 1_556 S
O133 C110 1.283 . S
O134 Mn108 2.094 . S
O134 C112 1.240 . S
O135 Mn109 2.117 . S
O135 C112 1.264 1_455 S
C136 C129 1.403 . S
C136 C137 1.399 . S
C136 H142 0.929 . S
C137 C117 1.449 . S
C137 C136 1.399 . S
C137 H143 0.930 . S
H138 C118 0.931 . S
H139 C119 0.930 . S
H140 C127 0.931 . S
H141 C128 0.929 . S
H142 C136 0.929 . S
H143 C137 0.930 . S
Mn144 O149 2.095 1_554 S
Mn144 O159 2.162 . S
Mn144 O160 2.297 . S
Mn144 O168 2.385 . S
Mn144 O169 2.209 . S
Mn144 O170 2.094 1_554 S
Mn145 O150 2.121 . S
Mn145 N152 2.257 1_556 S
Mn145 N161 2.282 1_556 S
Mn145 O169 2.215 1_556 S
Mn145 O171 2.117 . S
C146 O168 1.234 . S
C146 O169 1.283 . S
C147 O159 1.281 . S
C147 O160 1.236 . S
C148 O170 1.240 . S
C148 O171 1.264 . S
O149 Mn144 2.095 1_556 S
O149 C158 1.250 . S
O150 Mn145 2.121 . S
O150 C158 1.258 . S
C151 N152 1.326 . S
C151 C155 1.460 . S
C151 H157 0.929 . S
N152 Mn145 2.257 1_554 S
N152 C151 1.326 . S
N152 C156 1.362 . S
C153 C154 1.258 . S
C153 C156 1.431 . S
C153 C173 1.449 . S
C154 C153 1.258 . S
C154 C155 1.477 . S
C154 H174 0.931 . S
C155 C151 1.460 . S
C155 C154 1.477 . S
C155 H175 0.930 . S
C156 N152 1.362 . S
C156 C153 1.431 . S
C156 C166 1.476 . S
H157 C151 0.929 . S
C158 O149 1.250 . S
C158 O150 1.258 . S
O159 Mn144 2.162 . S
O159 C147 1.281 . S
O160 Mn144 2.297 . S
O160 C147 1.236 . S
N161 Mn145 2.282 1_554 S
N161 C162 1.328 . S
N161 C166 1.318 . S
C162 N161 1.328 . S
C162 C163 1.457 . S
C162 H167 0.929 1_554 S
C163 C162 1.457 . S
C163 C164 1.291 . S
C163 H176 0.931 . S
C164 C163 1.291 . S
C164 C165 1.373 . S
C164 H177 0.929 . S
C165 C164 1.373 . S
C165 C166 1.396 . S
C165 C172 1.403 . S
C166 C156 1.476 . S
C166 N161 1.318 . S
C166 C165 1.396 . S
H167 C162 0.929 1_556 S
O168 Mn144 2.385 . S
O168 C146 1.234 . S
O169 Mn144 2.209 . S
O169 Mn145 2.215 1_554 S
O169 C146 1.283 . S
O170 Mn144 2.094 1_556 S
O170 C148 1.240 . S
O171 Mn145 2.117 . S
O171 C148 1.264 . S
C172 C165 1.403 . S
C172 C173 1.399 . S
C172 H178 0.929 . S
C173 C153 1.449 . S
C173 C172 1.399 . S
C173 H179 0.930 . S
H174 C154 0.931 . S
H175 C155 0.930 . S
H176 C163 0.931 . S
H177 C164 0.929 . S
H178 C172 0.929 . S
H179 C173 0.930 . S
Mn180 O185 2.095 1_545 S
Mn180 O195 2.162 . S
Mn180 O196 2.297 1_554 S
Mn180 O204 2.385 1_554 S
Mn180 O205 2.209 1_544 S
Mn180 O206 2.094 . S
Mn181 O186 2.121 . S
Mn181 N188 2.257 . S
Mn181 N197 2.282 . S
Mn181 O205 2.215 1_554 S
Mn181 O207 2.117 . S
C182 O204 1.234 1_565 S
C182 O205 1.283 . S
C183 O195 1.281 1_556 S
C183 O196 1.236 . S
C184 O206 1.240 . S
C184 O207 1.264 1_545 S
O185 Mn180 2.095 1_565 S
O185 C194 1.250 . S
O186 Mn181 2.121 . S
O186 C194 1.258 . S
C187 N188 1.325 1_556 S
C187 C191 1.465 . S
C187 H193 0.926 1_556 S
N188 Mn181 2.257 . S
N188 C187 1.325 1_554 S
N188 C192 1.362 1_554 S
C189 C190 1.258 . S
C189 C192 1.431 . S
C189 C209 1.449 . S
C190 C189 1.258 . S
C190 C191 1.477 . S
C190 H210 0.931 . S
C191 C187 1.465 . S
C191 C190 1.477 . S
C191 H211 0.930 . S
C192 N188 1.362 1_556 S
C192 C189 1.431 . S
C192 C202 1.476 . S
H193 C187 0.926 1_554 S
C194 O185 1.250 . S
C194 O186 1.258 . S
O195 Mn180 2.162 . S
O195 C183 1.281 1_554 S
O196 Mn180 2.297 1_556 S
O196 C183 1.236 . S
N197 Mn181 2.282 . S
N197 C198 1.328 . S
N197 C202 1.318 1_554 S
C198 N197 1.328 . S
C198 C199 1.457 . S
C198 H203 0.929 . S
C199 C198 1.457 . S
C199 C200 1.291 1_554 S
C199 H212 0.931 . S
C200 C199 1.291 1_556 S
C200 C201 1.373 . S
C200 H213 0.929 . S
C201 C200 1.373 . S
C201 C202 1.396 . S
C201 C208 1.403 . S
C202 C192 1.476 . S
C202 N197 1.318 1_556 S
C202 C201 1.396 . S
H203 C198 0.929 . S
O204 Mn180 2.385 1_556 S
O204 C182 1.234 1_545 S
O205 Mn180 2.209 1_566 S
O205 Mn181 2.215 1_556 S
O205 C182 1.283 . S
O206 Mn180 2.094 . S
O206 C184 1.240 . S
O207 Mn181 2.117 . S
O207 C184 1.264 1_565 S
C208 C201 1.403 . S
C208 C209 1.399 . S
C208 H214 0.929 . S
C209 C189 1.449 . S
C209 C208 1.399 . S
C209 H215 0.930 . S
H210 C190 0.931 . S
H211 C191 0.930 . S
H212 C199 0.931 . S
H213 C200 0.929 . S
H214 C208 0.929 . S
H215 C209 0.930 . S
Mn216 O221 2.095 . S
Mn216 O231 2.162 . S
Mn216 O232 2.297 . S
Mn216 O240 2.385 . S
Mn216 O241 2.209 . S
Mn216 O242 2.094 . S
Mn217 O222 2.121 . S
Mn217 N224 2.257 . S
Mn217 N233 2.282 . S
Mn217 O241 2.215 . S
Mn217 O243 2.117 . S
C218 O240 1.234 . S
C218 O241 1.283 . S
C219 O231 1.281 . S
C219 O232 1.236 . S
C220 O242 1.240 . S
C220 O243 1.264 . S
O221 Mn216 2.095 . S
O221 C230 1.250 . S
O222 Mn217 2.121 . S
O222 C230 1.258 . S
C223 N224 1.326 . S
C223 C227 1.460 . S
C223 H229 0.929 . S
N224 Mn217 2.257 . S
N224 C223 1.326 . S
N224 C228 1.362 . S
C225 C226 1.258 . S
C225 C228 1.431 . S
C225 C245 1.449 . S
C226 C225 1.258 . S
C226 C227 1.477 . S
C226 H246 0.931 . S
C227 C223 1.460 . S
C227 C226 1.477 . S
C227 H247 0.930 . S
C228 N224 1.362 . S
C228 C225 1.431 . S
C228 C238 1.476 . S
H229 C223 0.929 . S
C230 O221 1.250 . S
C230 O222 1.258 . S
O231 Mn216 2.162 . S
O231 C219 1.281 . S
O232 Mn216 2.297 . S
O232 C219 1.236 . S
N233 Mn217 2.282 . S
N233 C234 1.328 . S
N233 C238 1.318 . S
C234 N233 1.328 . S
C234 C235 1.457 . S
C234 H239 0.929 . S
C235 C234 1.457 . S
C235 C236 1.291 . S
C235 H248 0.931 . S
C236 C235 1.291 . S
C236 C237 1.373 . S
C236 H249 0.929 . S
C237 C236 1.373 . S
C237 C238 1.396 . S
C237 C244 1.403 . S
C238 C228 1.476 . S
C238 N233 1.318 . S
C238 C237 1.396 . S
H239 C234 0.929 . S
O240 Mn216 2.385 . S
O240 C218 1.234 . S
O241 Mn216 2.209 . S
O241 Mn217 2.215 . S
O241 C218 1.283 . S
O242 Mn216 2.094 . S
O242 C220 1.240 . S
O243 Mn217 2.117 . S
O243 C220 1.264 . S
C244 C237 1.403 . S
C244 C245 1.399 . S
C244 H250 0.929 . S
C245 C225 1.449 . S
C245 C244 1.399 . S
C245 H251 0.930 . S
H246 C226 0.931 . S
H247 C227 0.930 . S
H248 C235 0.931 . S
H249 C236 0.929 . S
H250 C244 0.929 . S
H251 C245 0.930 . S
Mn252 O257 2.095 . S
Mn252 O267 2.162 1_565 S
Mn252 O268 2.297 1_565 S
Mn252 O276 2.385 . S
Mn252 O277 2.209 . S
Mn252 O278 2.094 . S
Mn253 O258 2.121 . S
Mn253 N260 2.257 . S
Mn253 N269 2.282 . S
Mn253 O277 2.215 . S
Mn253 O279 2.117 . S
C254 O276 1.234 . S
C254 O277 1.283 . S
C255 O267 1.281 . S
C255 O268 1.236 . S
C256 O278 1.240 . S
C256 O279 1.264 . S
O257 Mn252 2.095 . S
O257 C266 1.250 . S
O258 Mn253 2.121 . S
O258 C266 1.258 . S
C259 N260 1.326 . S
C259 C263 1.460 . S
C259 H265 0.929 . S
N260 Mn253 2.257 . S
N260 C259 1.326 . S
N260 C264 1.362 . S
C261 C262 1.258 . S
C261 C264 1.431 . S
C261 C281 1.449 . S
C262 C261 1.258 . S
C262 C263 1.477 . S
C262 H282 0.931 . S
C263 C259 1.460 . S
C263 C262 1.477 . S
C263 H283 0.930 . S
C264 N260 1.362 . S
C264 C261 1.431 . S
C264 C274 1.476 . S
H265 C259 0.929 . S
C266 O257 1.250 . S
C266 O258 1.258 . S
O267 Mn252 2.162 1_545 S
O267 C255 1.281 . S
O268 Mn252 2.297 1_545 S
O268 C255 1.236 . S
N269 Mn253 2.282 . S
N269 C270 1.328 . S
N269 C274 1.318 . S
C270 N269 1.328 . S
C270 C271 1.457 . S
C270 H275 0.929 . S
C271 C270 1.457 . S
C271 C272 1.291 . S
C271 H284 0.931 . S
C272 C271 1.291 . S
C272 C273 1.373 . S
C272 H285 0.929 . S
C273 C272 1.373 . S
C273 C274 1.396 . S
C273 C280 1.403 . S
C274 C264 1.476 . S
C274 N269 1.318 . S
C274 C273 1.396 . S
H275 C270 0.929 . S
O276 Mn252 2.385 . S
O276 C254 1.234 . S
O277 Mn252 2.209 . S
O277 Mn253 2.215 . S
O277 C254 1.283 . S
O278 Mn252 2.094 . S
O278 C256 1.240 . S
O279 Mn253 2.117 . S
O279 C256 1.264 . S
C280 C273 1.403 . S
C280 C281 1.399 . S
C280 H286 0.929 . S
C281 C261 1.449 . S
C281 C280 1.399 . S
C281 H287 0.930 . S
H282 C262 0.931 . S
H283 C263 0.930 . S
H284 C271 0.931 . S
H285 C272 0.929 . S
H286 C280 0.929 . S
H287 C281 0.930 . S
Mn288 O293 2.095 . S
Mn288 O303 2.162 1_455 S
Mn288 O304 2.297 1_455 S
Mn288 O312 2.385 . S
Mn288 O313 2.209 . S
Mn288 O314 2.094 . S
Mn289 O294 2.121 . S
Mn289 N296 2.257 . S
Mn289 N305 2.282 . S
Mn289 O313 2.215 . S
Mn289 O315 2.117 . S
C290 O312 1.234 . S
C290 O313 1.283 . S
C291 O303 1.281 . S
C291 O304 1.236 . S
C292 O314 1.240 . S
C292 O315 1.264 . S
O293 Mn288 2.095 . S
O293 C302 1.250 . S
O294 Mn289 2.121 . S
O294 C302 1.258 . S
C295 N296 1.326 . S
C295 C299 1.460 . S
C295 H301 0.929 . S
N296 Mn289 2.257 . S
N296 C295 1.326 . S
N296 C300 1.362 . S
C297 C298 1.258 . S
C297 C300 1.431 . S
C297 C317 1.449 . S
C298 C297 1.258 . S
C298 C299 1.477 . S
C298 H318 0.931 . S
C299 C295 1.460 . S
C299 C298 1.477 . S
C299 H319 0.930 . S
C300 N296 1.362 . S
C300 C297 1.431 . S
C300 C310 1.476 . S
H301 C295 0.929 . S
C302 O293 1.250 . S
C302 O294 1.258 . S
O303 Mn288 2.162 1_655 S
O303 C291 1.281 . S
O304 Mn288 2.297 1_655 S
O304 C291 1.236 . S
N305 Mn289 2.282 . S
N305 C306 1.328 . S
N305 C310 1.318 . S
C306 N305 1.328 . S
C306 C307 1.457 . S
C306 H311 0.929 . S
C307 C306 1.457 . S
C307 C308 1.291 . S
C307 H320 0.931 . S
C308 C307 1.291 . S
C308 C309 1.373 . S
C308 H321 0.929 . S
C309 C308 1.373 . S
C309 C310 1.396 . S
C309 C316 1.403 . S
C310 C300 1.476 . S
C310 N305 1.318 . S
C310 C309 1.396 . S
H311 C306 0.929 . S
O312 Mn288 2.385 . S
O312 C290 1.234 . S
O313 Mn288 2.209 . S
O313 Mn289 2.215 . S
O313 C290 1.283 . S
O314 Mn288 2.094 . S
O314 C292 1.240 . S
O315 Mn289 2.117 . S
O315 C292 1.264 . S
C316 C309 1.403 . S
C316 C317 1.399 . S
C316 H322 0.929 . S
C317 C297 1.449 . S
C317 C316 1.399 . S
C317 H323 0.930 . S
H318 C298 0.931 . S
H319 C299 0.930 . S
H320 C307 0.931 . S
H321 C308 0.929 . S
H322 C316 0.929 . S
H323 C317 0.930 . S
Mn324 O329 2.095 . S
Mn324 O339 2.162 . S
Mn324 O340 2.297 . S
Mn324 O348 2.385 . S
Mn324 O349 2.209 . S
Mn324 O350 2.094 . S
Mn325 O330 2.121 1_565 S
Mn325 N332 2.257 . S
Mn325 N341 2.282 . S
Mn325 O349 2.215 . S
Mn325 O351 2.117 . S
C326 O348 1.234 . S
C326 O349 1.283 . S
C327 O339 1.281 . S
C327 O340 1.236 . S
C328 O350 1.240 . S
C328 O351 1.264 . S
O329 Mn324 2.095 . S
O329 C338 1.250 1_565 S
O330 Mn325 2.121 1_545 S
O330 C338 1.258 . S
C331 N332 1.326 1_545 S
C331 C335 1.460 . S
C331 H337 0.929 . S
N332 Mn325 2.257 . S
N332 C331 1.326 1_565 S
N332 C336 1.362 . S
C333 C334 1.258 1_565 S
C333 C336 1.431 . S
C333 C353 1.449 . S
C334 C333 1.258 1_545 S
C334 C335 1.477 . S
C334 H354 0.931 . S
C335 C331 1.460 . S
C335 C334 1.477 . S
C335 H355 0.930 . S
C336 N332 1.362 . S
C336 C333 1.431 . S
C336 C346 1.476 . S
H337 C331 0.929 . S
C338 O329 1.250 1_545 S
C338 O330 1.258 . S
O339 Mn324 2.162 . S
O339 C327 1.281 . S
O340 Mn324 2.297 . S
O340 C327 1.236 . S
N341 Mn325 2.282 . S
N341 C342 1.328 . S
N341 C346 1.318 . S
C342 N341 1.328 . S
C342 C343 1.457 . S
C342 H347 0.929 . S
C343 C342 1.457 . S
C343 C344 1.291 . S
C343 H356 0.931 . S
C344 C343 1.291 . S
C344 C345 1.373 . S
C344 H357 0.929 . S
C345 C344 1.373 . S
C345 C346 1.396 . S
C345 C352 1.403 . S
C346 C336 1.476 . S
C346 N341 1.318 . S
C346 C345 1.396 . S
H347 C342 0.929 . S
O348 Mn324 2.385 . S
O348 C326 1.234 . S
O349 Mn324 2.209 . S
O349 Mn325 2.215 . S
O349 C326 1.283 . S
O350 Mn324 2.094 . S
O350 C328 1.240 . S
O351 Mn325 2.117 . S
O351 C328 1.264 . S
C352 C345 1.403 . S
C352 C353 1.399 . S
C352 H358 0.929 . S
C353 C333 1.449 . S
C353 C352 1.399 . S
C353 H359 0.930 . S
H354 C334 0.931 . S
H355 C335 0.930 . S
H356 C343 0.931 . S
H357 C344 0.929 . S
H358 C352 0.929 . S
H359 C353 0.930 . S
Mn360 O365 2.095 . S
Mn360 O375 2.162 1_455 S
Mn360 O376 2.297 1_455 S
Mn360 O384 2.385 . S
Mn360 O385 2.209 . S
Mn360 O386 2.094 . S
Mn361 O366 2.121 . S
Mn361 N368 2.257 . S
Mn361 N377 2.282 . S
Mn361 O385 2.215 . S
Mn361 O387 2.117 . S
C362 O384 1.234 . S
C362 O385 1.283 . S
C363 O375 1.281 . S
C363 O376 1.236 . S
C364 O386 1.240 . S
C364 O387 1.264 . S
O365 Mn360 2.095 . S
O365 C374 1.250 . S
O366 Mn361 2.121 . S
O366 C374 1.258 . S
C367 N368 1.326 . S
C367 C371 1.460 . S
C367 H373 0.929 . S
N368 Mn361 2.257 . S
N368 C367 1.326 . S
N368 C372 1.362 . S
C369 C370 1.258 . S
C369 C372 1.431 . S
C369 C389 1.449 . S
C370 C369 1.258 . S
C370 C371 1.477 . S
C370 H390 0.931 . S
C371 C367 1.460 . S
C371 C370 1.477 . S
C371 H391 0.930 . S
C372 N368 1.362 . S
C372 C369 1.431 . S
C372 C382 1.476 . S
H373 C367 0.929 . S
C374 O365 1.250 . S
C374 O366 1.258 . S
O375 Mn360 2.162 1_655 S
O375 C363 1.281 . S
O376 Mn360 2.297 1_655 S
O376 C363 1.236 . S
N377 Mn361 2.282 . S
N377 C378 1.328 . S
N377 C382 1.318 . S
C378 N377 1.328 . S
C378 C379 1.457 . S
C378 H383 0.929 . S
C379 C378 1.457 . S
C379 C380 1.291 . S
C379 H392 0.931 . S
C380 C379 1.291 . S
C380 C381 1.373 . S
C380 H393 0.929 . S
C381 C380 1.373 . S
C381 C382 1.396 . S
C381 C388 1.403 . S
C382 C372 1.476 . S
C382 N377 1.318 . S
C382 C381 1.396 . S
H383 C378 0.929 . S
O384 Mn360 2.385 . S
O384 C362 1.234 . S
O385 Mn360 2.209 . S
O385 Mn361 2.215 . S
O385 C362 1.283 . S
O386 Mn360 2.094 . S
O386 C364 1.240 . S
O387 Mn361 2.117 . S
O387 C364 1.264 . S
C388 C381 1.403 . S
C388 C389 1.399 . S
C388 H394 0.929 . S
C389 C369 1.449 . S
C389 C388 1.399 . S
C389 H395 0.930 . S
H390 C370 0.931 . S
H391 C371 0.930 . S
H392 C379 0.931 . S
H393 C380 0.929 . S
H394 C388 0.929 . S
H395 C389 0.930 . S
Mn396 O401 2.095 . S
Mn396 O411 2.162 . S
Mn396 O412 2.297 . S
Mn396 O420 2.385 . S
Mn396 O421 2.209 . S
Mn396 O422 2.094 . S
Mn397 O402 2.121 . S
Mn397 N404 2.257 . S
Mn397 N413 2.282 . S
Mn397 O421 2.215 . S
Mn397 O423 2.117 . S
C398 O420 1.234 . S
C398 O421 1.283 . S
C399 O411 1.281 . S
C399 O412 1.236 . S
C400 O422 1.240 . S
C400 O423 1.264 . S
O401 Mn396 2.095 . S
O401 C410 1.250 . S
O402 Mn397 2.121 . S
O402 C410 1.258 . S
C403 N404 1.326 . S
C403 C407 1.460 . S
C403 H409 0.929 . S
N404 Mn397 2.257 . S
N404 C403 1.326 . S
N404 C408 1.362 . S
C405 C406 1.258 . S
C405 C408 1.431 . S
C405 C425 1.449 . S
C406 C405 1.258 . S
C406 C407 1.477 . S
C406 H426 0.931 . S
C407 C403 1.460 . S
C407 C406 1.477 . S
C407 H427 0.930 . S
C408 N404 1.362 . S
C408 C405 1.431 . S
C408 C418 1.476 . S
H409 C403 0.929 . S
C410 O401 1.250 . S
C410 O402 1.258 . S
O411 Mn396 2.162 . S
O411 C399 1.281 . S
O412 Mn396 2.297 . S
O412 C399 1.236 . S
N413 Mn397 2.282 . S
N413 C414 1.328 . S
N413 C418 1.318 . S
C414 N413 1.328 . S
C414 C415 1.457 . S
C414 H419 0.929 . S
C415 C414 1.457 . S
C415 C416 1.291 . S
C415 H428 0.931 . S
C416 C415 1.291 . S
C416 C417 1.373 . S
C416 H429 0.929 . S
C417 C416 1.373 . S
C417 C418 1.396 . S
C417 C424 1.403 . S
C418 C408 1.476 . S
C418 N413 1.318 . S
C418 C417 1.396 . S
H419 C414 0.929 . S
O420 Mn396 2.385 . S
O420 C398 1.234 . S
O421 Mn396 2.209 . S
O421 Mn397 2.215 . S
O421 C398 1.283 . S
O422 Mn396 2.094 . S
O422 C400 1.240 . S
O423 Mn397 2.117 . S
O423 C400 1.264 . S
C424 C417 1.403 . S
C424 C425 1.399 . S
C424 H430 0.929 . S
C425 C405 1.449 . S
C425 C424 1.399 . S
C425 H431 0.930 . S
H426 C406 0.931 . S
H427 C407 0.930 . S
H428 C415 0.931 . S
H429 C416 0.929 . S
H430 C424 0.929 . S
H431 C425 0.930 . S
Mn432 O437 2.095 . S
Mn432 O447 2.162 1_545 S
Mn432 O448 2.297 1_545 S
Mn432 O456 2.385 . S
Mn432 O457 2.209 . S
Mn432 O458 2.094 . S
Mn433 O438 2.121 . S
Mn433 N440 2.257 . S
Mn433 N449 2.282 . S
Mn433 O457 2.215 . S
Mn433 O459 2.117 . S
C434 O456 1.234 . S
C434 O457 1.283 . S
C435 O447 1.281 . S
C435 O448 1.236 . S
C436 O458 1.240 . S
C436 O459 1.264 . S
O437 Mn432 2.095 . S
O437 C446 1.250 . S
O438 Mn433 2.121 . S
O438 C446 1.258 . S
C439 N440 1.326 . S
C439 C443 1.460 . S
C439 H445 0.929 . S
N440 Mn433 2.257 . S
N440 C439 1.326 . S
N440 C444 1.362 . S
C441 C442 1.258 . S
C441 C444 1.431 . S
C441 C461 1.449 . S
C442 C441 1.258 . S
C442 C443 1.477 . S
C442 H462 0.931 . S
C443 C439 1.460 . S
C443 C442 1.477 . S
C443 H463 0.930 . S
C444 N440 1.362 . S
C444 C441 1.431 . S
C444 C454 1.476 . S
H445 C439 0.929 . S
C446 O437 1.250 . S
C446 O438 1.258 . S
O447 Mn432 2.162 1_565 S
O447 C435 1.281 . S
O448 Mn432 2.297 1_565 S
O448 C435 1.236 . S
N449 Mn433 2.282 . S
N449 C450 1.328 . S
N449 C454 1.318 . S
C450 N449 1.328 . S
C450 C451 1.457 . S
C450 H455 0.929 . S
C451 C450 1.457 . S
C451 C452 1.291 . S
C451 H464 0.931 . S
C452 C451 1.291 . S
C452 C453 1.373 . S
C452 H465 0.929 . S
C453 C452 1.373 . S
C453 C454 1.396 . S
C453 C460 1.403 . S
C454 C444 1.476 . S
C454 N449 1.318 . S
C454 C453 1.396 . S
H455 C450 0.929 . S
O456 Mn432 2.385 . S
O456 C434 1.234 . S
O457 Mn432 2.209 . S
O457 Mn433 2.215 . S
O457 C434 1.283 . S
O458 Mn432 2.094 . S
O458 C436 1.240 . S
O459 Mn433 2.117 . S
O459 C436 1.264 . S
C460 C453 1.403 . S
C460 C461 1.399 . S
C460 H466 0.929 . S
C461 C441 1.449 . S
C461 C460 1.399 . S
C461 H467 0.930 . S
H462 C442 0.931 . S
H463 C443 0.930 . S
H464 C451 0.931 . S
H465 C452 0.929 . S
H466 C460 0.929 . S
H467 C461 0.930 . S
Mn468 O473 2.095 . S
Mn468 O483 2.162 . S
Mn468 O484 2.297 . S
Mn468 O492 2.385 . S
Mn468 O493 2.209 . S
Mn468 O494 2.094 . S
Mn469 O474 2.121 1_655 S
Mn469 N476 2.257 . S
Mn469 N485 2.282 . S
Mn469 O493 2.215 . S
Mn469 O495 2.117 . S
C470 O492 1.234 . S
C470 O493 1.283 . S
C471 O483 1.281 . S
C471 O484 1.236 . S
C472 O494 1.240 . S
C472 O495 1.264 . S
O473 Mn468 2.095 . S
O473 C482 1.250 1_655 S
O474 Mn469 2.121 1_455 S
O474 C482 1.258 . S
C475 N476 1.326 1_455 S
C475 C479 1.460 . S
C475 H481 0.929 . S
N476 Mn469 2.257 . S
N476 C475 1.326 1_655 S
N476 C480 1.362 . S
C477 C478 1.258 1_655 S
C477 C480 1.431 . S
C477 C497 1.449 . S
C478 C477 1.258 1_455 S
C478 C479 1.477 . S
C478 H498 0.931 . S
C479 C475 1.460 . S
C479 C478 1.477 . S
C479 H499 0.930 . S
C480 N476 1.362 . S
C480 C477 1.431 . S
C480 C490 1.476 . S
H481 C475 0.929 . S
C482 O473 1.250 1_455 S
C482 O474 1.258 . S
O483 Mn468 2.162 . S
O483 C471 1.281 . S
O484 Mn468 2.297 . S
O484 C471 1.236 . S
N485 Mn469 2.282 . S
N485 C486 1.328 . S
N485 C490 1.318 . S
C486 N485 1.328 . S
C486 C487 1.457 . S
C486 H491 0.929 . S
C487 C486 1.457 . S
C487 C488 1.291 . S
C487 H500 0.931 . S
C488 C487 1.291 . S
C488 C489 1.373 . S
C488 H501 0.929 . S
C489 C488 1.373 . S
C489 C490 1.396 . S
C489 C496 1.403 . S
C490 C480 1.476 . S
C490 N485 1.318 . S
C490 C489 1.396 . S
H491 C486 0.929 . S
O492 Mn468 2.385 . S
O492 C470 1.234 . S
O493 Mn468 2.209 . S
O493 Mn469 2.215 . S
O493 C470 1.283 . S
O494 Mn468 2.094 . S
O494 C472 1.240 . S
O495 Mn469 2.117 . S
O495 C472 1.264 . S
C496 C489 1.403 . S
C496 C497 1.399 . S
C496 H502 0.929 . S
C497 C477 1.449 . S
C497 C496 1.399 . S
C497 H503 0.930 . S
H498 C478 0.931 . S
H499 C479 0.930 . S
H500 C487 0.931 . S
H501 C488 0.929 . S
H502 C496 0.929 . S
H503 C497 0.930 . S
Mn504 O509 2.095 . S
Mn504 O519 2.162 . S
Mn504 O520 2.297 . S
Mn504 O528 2.385 . S
Mn504 O529 2.209 . S
Mn504 O530 2.094 . S
Mn505 O510 2.121 . S
Mn505 N512 2.257 . S
Mn505 N521 2.282 . S
Mn505 O529 2.215 . S
Mn505 O531 2.117 . S
C506 O528 1.234 . S
C506 O529 1.283 . S
C507 O519 1.281 . S
C507 O520 1.236 . S
C508 O530 1.240 . S
C508 O531 1.264 . S
O509 Mn504 2.095 . S
O509 C518 1.250 . S
O510 Mn505 2.121 . S
O510 C518 1.258 . S
C511 N512 1.326 . S
C511 C515 1.460 . S
C511 H517 0.929 . S
N512 Mn505 2.257 . S
N512 C511 1.326 . S
N512 C516 1.362 . S
C513 C514 1.258 . S
C513 C516 1.431 . S
C513 C533 1.449 . S
C514 C513 1.258 . S
C514 C515 1.477 . S
C514 H534 0.931 . S
C515 C511 1.460 . S
C515 C514 1.477 . S
C515 H535 0.930 . S
C516 N512 1.362 . S
C516 C513 1.431 . S
C516 C526 1.476 . S
H517 C511 0.929 . S
C518 O509 1.250 . S
C518 O510 1.258 . S
O519 Mn504 2.162 . S
O519 C507 1.281 . S
O520 Mn504 2.297 . S
O520 C507 1.236 . S
N521 Mn505 2.282 . S
N521 C522 1.328 . S
N521 C526 1.318 . S
C522 N521 1.328 . S
C522 C523 1.457 . S
C522 H527 0.929 . S
C523 C522 1.457 . S
C523 C524 1.291 . S
C523 H536 0.931 . S
C524 C523 1.291 . S
C524 C525 1.373 . S
C524 H537 0.929 . S
C525 C524 1.373 . S
C525 C526 1.396 . S
C525 C532 1.403 . S
C526 C516 1.476 . S
C526 N521 1.318 . S
C526 C525 1.396 . S
H527 C522 0.929 . S
O528 Mn504 2.385 . S
O528 C506 1.234 . S
O529 Mn504 2.209 . S
O529 Mn505 2.215 . S
O529 C506 1.283 . S
O530 Mn504 2.094 . S
O530 C508 1.240 . S
O531 Mn505 2.117 . S
O531 C508 1.264 . S
C532 C525 1.403 . S
C532 C533 1.399 . S
C532 H538 0.929 . S
C533 C513 1.449 . S
C533 C532 1.399 . S
C533 H539 0.930 . S
H534 C514 0.931 . S
H535 C515 0.930 . S
H536 C523 0.931 . S
H537 C524 0.929 . S
H538 C532 0.929 . S
H539 C533 0.930 . S
Mn540 O545 2.095 . S
Mn540 O555 2.162 . S
Mn540 O556 2.297 . S
Mn540 O564 2.385 . S
Mn540 O565 2.209 . S
Mn540 O566 2.094 . S
Mn541 O546 2.121 . S
Mn541 N548 2.257 . S
Mn541 N557 2.282 . S
Mn541 O565 2.215 . S
Mn541 O567 2.117 . S
C542 O564 1.234 . S
C542 O565 1.283 . S
C543 O555 1.281 . S
C543 O556 1.236 . S
C544 O566 1.240 . S
C544 O567 1.264 . S
O545 Mn540 2.095 . S
O545 C554 1.250 . S
O546 Mn541 2.121 . S
O546 C554 1.258 . S
C547 N548 1.326 . S
C547 C551 1.460 . S
C547 H553 0.929 . S
N548 Mn541 2.257 . S
N548 C547 1.326 . S
N548 C552 1.362 . S
C549 C550 1.258 . S
C549 C552 1.431 . S
C549 C569 1.449 . S
C550 C549 1.258 . S
C550 C551 1.477 . S
C550 H570 0.931 . S
C551 C547 1.460 . S
C551 C550 1.477 . S
C551 H571 0.930 . S
C552 N548 1.362 . S
C552 C549 1.431 . S
C552 C562 1.476 . S
H553 C547 0.929 . S
C554 O545 1.250 . S
C554 O546 1.258 . S
O555 Mn540 2.162 . S
O555 C543 1.281 . S
O556 Mn540 2.297 . S
O556 C543 1.236 . S
N557 Mn541 2.282 . S
N557 C558 1.328 . S
N557 C562 1.318 . S
C558 N557 1.328 . S
C558 C559 1.457 . S
C558 H563 0.929 . S
C559 C558 1.457 . S
C559 C560 1.291 . S
C559 H572 0.931 . S
C560 C559 1.291 . S
C560 C561 1.373 . S
C560 H573 0.929 . S
C561 C560 1.373 . S
C561 C562 1.396 . S
C561 C568 1.403 . S
C562 C552 1.476 . S
C562 N557 1.318 . S
C562 C561 1.396 . S
H563 C558 0.929 . S
O564 Mn540 2.385 . S
O564 C542 1.234 . S
O565 Mn540 2.209 . S
O565 Mn541 2.215 . S
O565 C542 1.283 . S
O566 Mn540 2.094 . S
O566 C544 1.240 . S
O567 Mn541 2.117 . S
O567 C544 1.264 . S
C568 C561 1.403 . S
C568 C569 1.399 . S
C568 H574 0.929 . S
C569 C549 1.449 . S
C569 C568 1.399 . S
C569 H575 0.930 . S
H570 C550 0.931 . S
H571 C551 0.930 . S
H572 C559 0.931 . S
H573 C560 0.929 . S
H574 C568 0.929 . S
H575 C569 0.930 . S
Mn576 O581 2.095 . S
Mn576 O591 2.162 . S
Mn576 O592 2.297 . S
Mn576 O600 2.385 . S
Mn576 O601 2.209 . S
Mn576 O602 2.094 . S
Mn577 O582 2.121 1_545 S
Mn577 N584 2.257 . S
Mn577 N593 2.282 . S
Mn577 O601 2.215 . S
Mn577 O603 2.117 . S
C578 O600 1.234 . S
C578 O601 1.283 . S
C579 O591 1.281 . S
C579 O592 1.236 . S
C580 O602 1.240 . S
C580 O603 1.264 . S
O581 Mn576 2.095 . S
O581 C590 1.250 1_545 S
O582 Mn577 2.121 1_565 S
O582 C590 1.258 . S
C583 N584 1.326 1_565 S
C583 C587 1.460 . S
C583 H589 0.929 . S
N584 Mn577 2.257 . S
N584 C583 1.326 1_545 S
N584 C588 1.362 . S
C585 C586 1.258 1_545 S
C585 C588 1.431 . S
C585 C605 1.449 . S
C586 C585 1.258 1_565 S
C586 C587 1.477 . S
C586 H606 0.931 . S
C587 C583 1.460 . S
C587 C586 1.477 . S
C587 H607 0.930 . S
C588 N584 1.362 . S
C588 C585 1.431 . S
C588 C598 1.476 . S
H589 C583 0.929 . S
C590 O581 1.250 1_565 S
C590 O582 1.258 . S
O591 Mn576 2.162 . S
O591 C579 1.281 . S
O592 Mn576 2.297 . S
O592 C579 1.236 . S
N593 Mn577 2.282 . S
N593 C594 1.328 . S
N593 C598 1.318 . S
C594 N593 1.328 . S
C594 C595 1.457 . S
C594 H599 0.929 . S
C595 C594 1.457 . S
C595 C596 1.291 . S
C595 H608 0.931 . S
C596 C595 1.291 . S
C596 C597 1.373 . S
C596 H609 0.929 . S
C597 C596 1.373 . S
C597 C598 1.396 . S
C597 C604 1.403 . S
C598 C588 1.476 . S
C598 N593 1.318 . S
C598 C597 1.396 . S
H599 C594 0.929 . S
O600 Mn576 2.385 . S
O600 C578 1.234 . S
O601 Mn576 2.209 . S
O601 Mn577 2.215 . S
O601 C578 1.283 . S
O602 Mn576 2.094 . S
O602 C580 1.240 . S
O603 Mn577 2.117 . S
O603 C580 1.264 . S
C604 C597 1.403 . S
C604 C605 1.399 . S
C604 H610 0.929 . S
C605 C585 1.449 . S
C605 C604 1.399 . S
C605 H611 0.930 . S
H606 C586 0.931 . S
H607 C587 0.930 . S
H608 C595 0.931 . S
H609 C596 0.929 . S
H610 C604 0.929 . S
H611 C605 0.930 . S
Mn612 O617 2.095 . S
Mn612 O627 2.162 1_655 S
Mn612 O628 2.297 1_655 S
Mn612 O636 2.385 . S
Mn612 O637 2.209 . S
Mn612 O638 2.094 . S
Mn613 O618 2.121 . S
Mn613 N620 2.257 . S
Mn613 N629 2.282 . S
Mn613 O637 2.215 . S
Mn613 O639 2.117 . S
C614 O636 1.234 . S
C614 O637 1.283 . S
C615 O627 1.281 . S
C615 O628 1.236 . S
C616 O638 1.240 . S
C616 O639 1.264 . S
O617 Mn612 2.095 . S
O617 C626 1.250 . S
O618 Mn613 2.121 . S
O618 C626 1.258 . S
C619 N620 1.326 . S
C619 C623 1.460 . S
C619 H625 0.929 . S
N620 Mn613 2.257 . S
N620 C619 1.326 . S
N620 C624 1.362 . S
C621 C622 1.258 . S
C621 C624 1.431 . S
C621 C641 1.449 . S
C622 C621 1.258 . S
C622 C623 1.477 . S
C622 H642 0.931 . S
C623 C619 1.460 . S
C623 C622 1.477 . S
C623 H643 0.930 . S
C624 N620 1.362 . S
C624 C621 1.431 . S
C624 C634 1.476 . S
H625 C619 0.929 . S
C626 O617 1.250 . S
C626 O618 1.258 . S
O627 Mn612 2.162 1_455 S
O627 C615 1.281 . S
O628 Mn612 2.297 1_455 S
O628 C615 1.236 . S
N629 Mn613 2.282 . S
N629 C630 1.328 . S
N629 C634 1.318 . S
C630 N629 1.328 . S
C630 C631 1.457 . S
C630 H635 0.929 . S
C631 C630 1.457 . S
C631 C632 1.291 . S
C631 H644 0.931 . S
C632 C631 1.291 . S
C632 C633 1.373 . S
C632 H645 0.929 . S
C633 C632 1.373 . S
C633 C634 1.396 . S
C633 C640 1.403 . S
C634 C624 1.476 . S
C634 N629 1.318 . S
C634 C633 1.396 . S
H635 C630 0.929 . S
O636 Mn612 2.385 . S
O636 C614 1.234 . S
O637 Mn612 2.209 . S
O637 Mn613 2.215 . S
O637 C614 1.283 . S
O638 Mn612 2.094 . S
O638 C616 1.240 . S
O639 Mn613 2.117 . S
O639 C616 1.264 . S
C640 C633 1.403 . S
C640 C641 1.399 . S
C640 H646 0.929 . S
C641 C621 1.449 . S
C641 C640 1.399 . S
C641 H647 0.930 . S
H642 C622 0.931 . S
H643 C623 0.930 . S
H644 C631 0.931 . S
H645 C632 0.929 . S
H646 C640 0.929 . S
H647 C641 0.930 . S
C648 C649 1.560 . S
C648 H709 0.959 . S
C648 H710 0.959 . S
C648 H711 0.960 . S
C649 C648 1.560 . S
C649 O704 1.426 . S
C649 H708 0.980 . S
C650 C651 1.407 . S
C650 C655 1.418 . S
C650 O704 1.334 . S
C651 C650 1.407 . S
C651 C652 1.360 . S
C651 H712 0.929 . S
C652 C651 1.360 . S
C652 C653 1.401 . S
C652 C656 1.527 . S
C653 C652 1.401 . S
C653 C654 1.405 . S
C653 C686 1.587 . S
C654 C653 1.405 . S
C654 C655 1.332 . S
C654 C657 1.496 . S
C655 C650 1.418 . S
C655 C654 1.332 . S
C655 H713 0.929 . S
C656 C652 1.527 . S
C656 H714 0.959 . S
C656 H715 0.961 . S
C656 H716 0.961 . S
C657 C654 1.496 . S
C657 H717 0.960 . S
C657 H718 0.960 . S
C657 H719 0.961 . S
C658 C659 1.517 . S
C658 H721 0.961 . S
C658 H722 0.960 . S
C658 H723 0.959 . S
C659 C658 1.517 . S
C659 O707 1.468 . S
C659 H720 0.980 . S
C660 C661 1.349 . S
C660 C665 1.367 . S
C660 O707 1.408 . S
C661 C660 1.349 . S
C661 C662 1.407 . S
C661 H724 0.930 . S
C662 C661 1.407 . S
C662 C663 1.449 . S
C662 C666 1.535 . S
C663 C662 1.449 . S
C663 C664 1.384 . S
C663 C688 1.553 . S
C664 C663 1.384 . S
C664 C665 1.364 . S
C664 C667 1.450 . S
C665 C660 1.367 . S
C665 C664 1.364 . S
C665 H725 0.931 . S
C666 C662 1.535 . S
C666 H726 0.959 . S
C666 H727 0.961 . S
C666 H728 0.959 . S
C667 C664 1.450 . S
C667 H729 0.960 . S
C667 H730 0.960 . S
C667 H731 0.960 . S
C668 C669 1.309 . S
C668 C673 1.304 . S
C668 O706 1.435 . S
C669 C668 1.309 . S
C669 C670 1.476 . S
C669 H733 0.930 . S
C670 C669 1.476 . S
C670 C671 1.400 . S
C670 C674 1.567 . S
C671 C670 1.400 . S
C671 C672 1.373 . S
C671 C693 1.432 . S
C672 C671 1.373 . S
C672 C673 1.339 . S
C672 C675 1.530 . S
C673 C668 1.304 . S
C673 C672 1.339 . S
C673 H734 0.930 . S
C674 C670 1.567 . S
C674 H735 0.961 . S
C674 H736 0.960 . S
C674 H737 0.958 . S
C675 C672 1.530 . S
C675 H738 0.961 . S
C675 H739 0.960 . S
C675 H740 0.960 . S
C676 C677 1.530 . S
C676 H742 0.961 . S
C676 H743 0.961 . S
C676 H744 0.959 . S
C677 C676 1.530 . S
C677 O705 1.412 . S
C677 H741 0.980 . S
C678 C679 1.288 . S
C678 C683 1.377 . S
C678 O705 1.393 . S
C679 C678 1.288 . S
C679 C680 1.369 . S
C679 H745 0.932 . S
C680 C679 1.369 . S
C680 C681 1.398 . S
C680 C684 1.527 . S
C681 C680 1.398 . S
C681 C682 1.380 . S
C681 C695 1.497 . S
C682 C681 1.380 . S
C682 C683 1.383 . S
C682 C685 1.603 . S
C683 C678 1.377 . S
C683 C682 1.383 . S
C683 H746 0.929 . S
C684 C680 1.527 . S
C684 H747 0.961 . S
C684 H748 0.959 . S
C684 H749 0.959 . S
C685 C682 1.603 . S
C685 H750 0.960 . S
C685 H751 0.962 . S
C685 H752 0.961 . S
C686 C653 1.587 . S
C686 C687 1.360 . S
C686 C699 1.412 . S
C687 C686 1.360 . S
C687 C688 1.365 . S
C687 H753 0.929 . S
C688 C663 1.553 . S
C688 C687 1.365 . S
C688 C689 1.404 . S
C689 C688 1.404 . S
C689 C690 1.395 . S
C689 C700 1.451 . S
C690 C689 1.395 . S
C690 C691 1.322 . S
C690 H754 0.930 . S
C691 C690 1.322 . S
C691 C692 1.459 . S
C691 H755 0.929 . S
C692 C691 1.459 . S
C692 C693 1.445 . S
C692 C701 1.395 . S
C693 C671 1.432 . S
C693 C692 1.445 . S
C693 C694 1.370 . S
C694 C693 1.370 . S
C694 C695 1.438 . S
C694 H756 0.930 . S
C695 C681 1.497 . S
C695 C694 1.438 . S
C695 C696 1.360 . S
C696 C695 1.360 . S
C696 C697 1.401 . S
C696 C701 1.446 . S
C697 C696 1.401 . S
C697 C698 1.347 . S
C697 H757 0.929 . S
C698 C697 1.347 . S
C698 C699 1.455 . S
C698 H758 0.930 . S
C699 C686 1.412 . S
C699 C698 1.455 . S
C699 C700 1.331 . S
C700 C689 1.451 . S
C700 C699 1.331 . S
C700 C701 1.497 . S
C701 C692 1.395 . S
C701 C696 1.446 . S
C701 C700 1.497 . S
C702 C703 1.582 . S
C702 H759 0.962 . S
C702 H760 0.959 . S
C702 H761 0.958 . S
C703 C702 1.582 . S
C703 O706 1.458 . S
C703 H732 0.980 . S
O704 C649 1.426 . S
O704 C650 1.334 . S
O705 C677 1.412 . S
O705 C678 1.393 . S
O706 C668 1.435 . S
O706 C703 1.458 . S
O707 C659 1.468 . S
O707 C660 1.408 . S
H708 C649 0.980 . S
H709 C648 0.959 . S
H710 C648 0.959 . S
H711 C648 0.960 . S
H712 C651 0.929 . S
H713 C655 0.929 . S
H714 C656 0.959 . S
H715 C656 0.961 . S
H716 C656 0.961 . S
H717 C657 0.960 . S
H718 C657 0.960 . S
H719 C657 0.961 . S
H720 C659 0.980 . S
H721 C658 0.961 . S
H722 C658 0.960 . S
H723 C658 0.959 . S
H724 C661 0.930 . S
H725 C665 0.931 . S
H726 C666 0.959 . S
H727 C666 0.961 . S
H728 C666 0.959 . S
H729 C667 0.960 . S
H730 C667 0.960 . S
H731 C667 0.960 . S
H732 C703 0.980 . S
H733 C669 0.930 . S
H734 C673 0.930 . S
H735 C674 0.961 . S
H736 C674 0.960 . S
H737 C674 0.958 . S
H738 C675 0.961 . S
H739 C675 0.960 . S
H740 C675 0.960 . S
H741 C677 0.980 . S
H742 C676 0.961 . S
H743 C676 0.961 . S
H744 C676 0.959 . S
H745 C679 0.932 . S
H746 C683 0.929 . S
H747 C684 0.961 . S
H748 C684 0.959 . S
H749 C684 0.959 . S
H750 C685 0.960 . S
H751 C685 0.962 . S
H752 C685 0.961 . S
H753 C687 0.929 . S
H754 C690 0.930 . S
H755 C691 0.929 . S
H756 C694 0.930 . S
H757 C697 0.929 . S
H758 C698 0.930 . S
H759 C702 0.962 . S
H760 C702 0.959 . S
H761 C702 0.958 . S
C762 C763 1.560 . S
C762 H823 0.959 . S
C762 H824 0.959 . S
C762 H825 0.960 . S
C763 C762 1.560 . S
C763 O818 1.426 . S
C763 H822 0.980 . S
C764 C765 1.407 . S
C764 C769 1.418 . S
C764 O818 1.334 . S
C765 C764 1.407 . S
C765 C766 1.360 . S
C765 H826 0.929 . S
C766 C765 1.360 . S
C766 C767 1.401 . S
C766 C770 1.527 . S
C767 C766 1.401 . S
C767 C768 1.405 . S
C767 C800 1.587 . S
C768 C767 1.405 . S
C768 C769 1.332 . S
C768 C771 1.496 . S
C769 C764 1.418 . S
C769 C768 1.332 . S
C769 H827 0.929 . S
C770 C766 1.527 . S
C770 H828 0.959 . S
C770 H829 0.961 . S
C770 H830 0.961 . S
C771 C768 1.496 . S
C771 H831 0.960 . S
C771 H832 0.960 . S
C771 H833 0.961 . S
C772 C773 1.517 . S
C772 H835 0.961 . S
C772 H836 0.960 . S
C772 H837 0.959 . S
C773 C772 1.517 . S
C773 O821 1.468 . S
C773 H834 0.980 . S
C774 C775 1.349 . S
C774 C779 1.367 . S
C774 O821 1.408 . S
C775 C774 1.349 . S
C775 C776 1.407 . S
C775 H838 0.930 . S
C776 C775 1.407 . S
C776 C777 1.449 . S
C776 C780 1.535 . S
C777 C776 1.449 . S
C777 C778 1.384 . S
C777 C802 1.553 . S
C778 C777 1.384 . S
C778 C779 1.364 . S
C778 C781 1.450 . S
C779 C774 1.367 . S
C779 C778 1.364 . S
C779 H839 0.931 . S
C780 C776 1.535 . S
C780 H840 0.959 . S
C780 H841 0.961 . S
C780 H842 0.959 . S
C781 C778 1.450 . S
C781 H843 0.960 . S
C781 H844 0.960 . S
C781 H845 0.960 . S
C782 C783 1.309 . S
C782 C787 1.304 . S
C782 O820 1.435 . S
C783 C782 1.309 . S
C783 C784 1.476 . S
C783 H847 0.930 . S
C784 C783 1.476 . S
C784 C785 1.400 . S
C784 C788 1.567 . S
C785 C784 1.400 . S
C785 C786 1.373 . S
C785 C807 1.432 . S
C786 C785 1.373 . S
C786 C787 1.339 . S
C786 C789 1.530 . S
C787 C782 1.304 . S
C787 C786 1.339 . S
C787 H848 0.930 . S
C788 C784 1.567 . S
C788 H849 0.961 . S
C788 H850 0.960 . S
C788 H851 0.958 . S
C789 C786 1.530 . S
C789 H852 0.961 . S
C789 H853 0.960 . S
C789 H854 0.960 . S
C790 C791 1.530 . S
C790 H856 0.961 . S
C790 H857 0.961 . S
C790 H858 0.959 . S
C791 C790 1.530 . S
C791 O819 1.412 . S
C791 H855 0.980 . S
C792 C793 1.288 . S
C792 C797 1.377 . S
C792 O819 1.393 . S
C793 C792 1.288 . S
C793 C794 1.369 . S
C793 H859 0.932 . S
C794 C793 1.369 . S
C794 C795 1.398 . S
C794 C798 1.527 . S
C795 C794 1.398 . S
C795 C796 1.380 . S
C795 C809 1.497 . S
C796 C795 1.380 . S
C796 C797 1.383 . S
C796 C799 1.603 . S
C797 C792 1.377 . S
C797 C796 1.383 . S
C797 H860 0.929 . S
C798 C794 1.527 . S
C798 H861 0.961 . S
C798 H862 0.959 . S
C798 H863 0.959 . S
C799 C796 1.603 . S
C799 H864 0.960 . S
C799 H865 0.962 . S
C799 H866 0.961 . S
C800 C767 1.587 . S
C800 C801 1.360 . S
C800 C813 1.412 . S
C801 C800 1.360 . S
C801 C802 1.365 . S
C801 H867 0.929 . S
C802 C777 1.553 . S
C802 C801 1.365 . S
C802 C803 1.404 . S
C803 C802 1.404 . S
C803 C804 1.395 . S
C803 C814 1.451 . S
C804 C803 1.395 . S
C804 C805 1.322 . S
C804 H868 0.930 . S
C805 C804 1.322 . S
C805 C806 1.459 . S
C805 H869 0.929 . S
C806 C805 1.459 . S
C806 C807 1.445 . S
C806 C815 1.395 . S
C807 C785 1.432 . S
C807 C806 1.445 . S
C807 C808 1.370 . S
C808 C807 1.370 . S
C808 C809 1.438 . S
C808 H870 0.930 . S
C809 C795 1.497 . S
C809 C808 1.438 . S
C809 C810 1.360 . S
C810 C809 1.360 . S
C810 C811 1.401 . S
C810 C815 1.446 . S
C811 C810 1.401 . S
C811 C812 1.347 . S
C811 H871 0.929 . S
C812 C811 1.347 . S
C812 C813 1.455 . S
C812 H872 0.930 . S
C813 C800 1.412 . S
C813 C812 1.455 . S
C813 C814 1.331 . S
C814 C803 1.451 . S
C814 C813 1.331 . S
C814 C815 1.497 . S
C815 C806 1.395 . S
C815 C810 1.446 . S
C815 C814 1.497 . S
C816 C817 1.582 . S
C816 H873 0.962 . S
C816 H874 0.959 . S
C816 H875 0.958 . S
C817 C816 1.582 . S
C817 O820 1.458 . S
C817 H846 0.980 . S
O818 C763 1.426 . S
O818 C764 1.334 . S
O819 C791 1.412 . S
O819 C792 1.393 . S
O820 C782 1.435 . S
O820 C817 1.458 . S
O821 C773 1.468 . S
O821 C774 1.408 . S
H822 C763 0.980 . S
H823 C762 0.959 . S
H824 C762 0.959 . S
H825 C762 0.960 . S
H826 C765 0.929 . S
H827 C769 0.929 . S
H828 C770 0.959 . S
H829 C770 0.961 . S
H830 C770 0.961 . S
H831 C771 0.960 . S
H832 C771 0.960 . S
H833 C771 0.961 . S
H834 C773 0.980 . S
H835 C772 0.961 . S
H836 C772 0.960 . S
H837 C772 0.959 . S
H838 C775 0.930 . S
H839 C779 0.931 . S
H840 C780 0.959 . S
H841 C780 0.961 . S
H842 C780 0.959 . S
H843 C781 0.960 . S
H844 C781 0.960 . S
H845 C781 0.960 . S
H846 C817 0.980 . S
H847 C783 0.930 . S
H848 C787 0.930 . S
H849 C788 0.961 . S
H850 C788 0.960 . S
H851 C788 0.958 . S
H852 C789 0.961 . S
H853 C789 0.960 . S
H854 C789 0.960 . S
H855 C791 0.980 . S
H856 C790 0.961 . S
H857 C790 0.961 . S
H858 C790 0.959 . S
H859 C793 0.932 . S
H860 C797 0.929 . S
H861 C798 0.961 . S
H862 C798 0.959 . S
H863 C798 0.959 . S
H864 C799 0.960 . S
H865 C799 0.962 . S
H866 C799 0.961 . S
H867 C801 0.929 . S
H868 C804 0.930 . S
H869 C805 0.929 . S
H870 C808 0.930 . S
H871 C811 0.929 . S
H872 C812 0.930 . S
H873 C816 0.962 . S
H874 C816 0.959 . S
H875 C816 0.958 . S
C876 C877 1.560 . S
C876 H937 0.959 . S
C876 H938 0.959 . S
C876 H939 0.960 . S
C877 C876 1.560 . S
C877 O932 1.426 . S
C877 H936 0.980 . S
C878 C879 1.407 . S
C878 C883 1.418 . S
C878 O932 1.334 . S
C879 C878 1.407 . S
C879 C880 1.360 . S
C879 H940 0.929 . S
C880 C879 1.360 . S
C880 C881 1.401 . S
C880 C884 1.527 . S
C881 C880 1.401 . S
C881 C882 1.405 . S
C881 C914 1.587 . S
C882 C881 1.405 . S
C882 C883 1.332 . S
C882 C885 1.496 . S
C883 C878 1.418 . S
C883 C882 1.332 . S
C883 H941 0.929 . S
C884 C880 1.527 . S
C884 H942 0.959 . S
C884 H943 0.961 . S
C884 H944 0.961 . S
C885 C882 1.496 . S
C885 H945 0.960 . S
C885 H946 0.960 . S
C885 H947 0.961 . S
C886 C887 1.517 . S
C886 H949 0.961 . S
C886 H950 0.960 . S
C886 H951 0.959 . S
C887 C886 1.517 . S
C887 O935 1.468 . S
C887 H948 0.980 . S
C888 C889 1.349 . S
C888 C893 1.367 . S
C888 O935 1.408 . S
C889 C888 1.349 . S
C889 C890 1.407 . S
C889 H952 0.930 . S
C890 C889 1.407 . S
C890 C891 1.449 . S
C890 C894 1.535 . S
C891 C890 1.449 . S
C891 C892 1.384 . S
C891 C916 1.553 . S
C892 C891 1.384 . S
C892 C893 1.364 . S
C892 C895 1.450 . S
C893 C888 1.367 . S
C893 C892 1.364 . S
C893 H953 0.931 . S
C894 C890 1.535 . S
C894 H954 0.959 . S
C894 H955 0.961 . S
C894 H956 0.959 . S
C895 C892 1.450 . S
C895 H957 0.960 . S
C895 H958 0.960 . S
C895 H959 0.960 . S
C896 C897 1.309 . S
C896 C901 1.304 . S
C896 O934 1.435 . S
C897 C896 1.309 . S
C897 C898 1.476 . S
C897 H961 0.930 . S
C898 C897 1.476 . S
C898 C899 1.400 . S
C898 C902 1.567 . S
C899 C898 1.400 . S
C899 C900 1.373 . S
C899 C921 1.432 . S
C900 C899 1.373 . S
C900 C901 1.339 . S
C900 C903 1.530 . S
C901 C896 1.304 . S
C901 C900 1.339 . S
C901 H962 0.930 . S
C902 C898 1.567 . S
C902 H963 0.961 . S
C902 H964 0.960 . S
C902 H965 0.958 . S
C903 C900 1.530 . S
C903 H966 0.961 . S
C903 H967 0.960 . S
C903 H968 0.960 . S
C904 C905 1.530 . S
C904 H970 0.961 . S
C904 H971 0.961 . S
C904 H972 0.959 . S
C905 C904 1.530 . S
C905 O933 1.412 . S
C905 H969 0.980 . S
C906 C907 1.288 . S
C906 C911 1.377 . S
C906 O933 1.393 . S
C907 C906 1.288 . S
C907 C908 1.369 . S
C907 H973 0.932 . S
C908 C907 1.369 . S
C908 C909 1.398 . S
C908 C912 1.527 . S
C909 C908 1.398 . S
C909 C910 1.380 . S
C909 C923 1.497 . S
C910 C909 1.380 . S
C910 C911 1.383 . S
C910 C913 1.603 . S
C911 C906 1.377 . S
C911 C910 1.383 . S
C911 H974 0.929 . S
C912 C908 1.527 . S
C912 H975 0.961 . S
C912 H976 0.959 . S
C912 H977 0.959 . S
C913 C910 1.603 . S
C913 H978 0.960 . S
C913 H979 0.962 . S
C913 H980 0.961 . S
C914 C881 1.587 . S
C914 C915 1.360 . S
C914 C927 1.412 . S
C915 C914 1.360 . S
C915 C916 1.365 . S
C915 H981 0.929 . S
C916 C891 1.553 . S
C916 C915 1.365 . S
C916 C917 1.404 . S
C917 C916 1.404 . S
C917 C918 1.395 . S
C917 C928 1.451 . S
C918 C917 1.395 . S
C918 C919 1.322 . S
C918 H982 0.930 . S
C919 C918 1.322 . S
C919 C920 1.459 . S
C919 H983 0.929 . S
C920 C919 1.459 . S
C920 C921 1.445 . S
C920 C929 1.395 . S
C921 C899 1.432 . S
C921 C920 1.445 . S
C921 C922 1.370 . S
C922 C921 1.370 . S
C922 C923 1.438 . S
C922 H984 0.930 . S
C923 C909 1.497 . S
C923 C922 1.438 . S
C923 C924 1.360 . S
C924 C923 1.360 . S
C924 C925 1.401 . S
C924 C929 1.446 . S
C925 C924 1.401 . S
C925 C926 1.347 . S
C925 H985 0.929 . S
C926 C925 1.347 . S
C926 C927 1.455 . S
C926 H986 0.930 . S
C927 C914 1.412 . S
C927 C926 1.455 . S
C927 C928 1.331 . S
C928 C917 1.451 . S
C928 C927 1.331 . S
C928 C929 1.497 . S
C929 C920 1.395 . S
C929 C924 1.446 . S
C929 C928 1.497 . S
C930 C931 1.582 . S
C930 H987 0.962 . S
C930 H988 0.959 . S
C930 H989 0.958 . S
C931 C930 1.582 . S
C931 O934 1.458 . S
C931 H960 0.980 . S
O932 C877 1.426 . S
O932 C878 1.334 . S
O933 C905 1.412 . S
O933 C906 1.393 . S
O934 C896 1.435 . S
O934 C931 1.458 . S
O935 C887 1.468 . S
O935 C888 1.408 . S
H936 C877 0.980 . S
H937 C876 0.959 . S
H938 C876 0.959 . S
H939 C876 0.960 . S
H940 C879 0.929 . S
H941 C883 0.929 . S
H942 C884 0.959 . S
H943 C884 0.961 . S
H944 C884 0.961 . S
H945 C885 0.960 . S
H946 C885 0.960 . S
H947 C885 0.961 . S
H948 C887 0.980 . S
H949 C886 0.961 . S
H950 C886 0.960 . S
H951 C886 0.959 . S
H952 C889 0.930 . S
H953 C893 0.931 . S
H954 C894 0.959 . S
H955 C894 0.961 . S
H956 C894 0.959 . S
H957 C895 0.960 . S
H958 C895 0.960 . S
H959 C895 0.960 . S
H960 C931 0.980 . S
H961 C897 0.930 . S
H962 C901 0.930 . S
H963 C902 0.961 . S
H964 C902 0.960 . S
H965 C902 0.958 . S
H966 C903 0.961 . S
H967 C903 0.960 . S
H968 C903 0.960 . S
H969 C905 0.980 . S
H970 C904 0.961 . S
H971 C904 0.961 . S
H972 C904 0.959 . S
H973 C907 0.932 . S
H974 C911 0.929 . S
H975 C912 0.961 . S
H976 C912 0.959 . S
H977 C912 0.959 . S
H978 C913 0.960 . S
H979 C913 0.962 . S
H980 C913 0.961 . S
H981 C915 0.929 . S
H982 C918 0.930 . S
H983 C919 0.929 . S
H984 C922 0.930 . S
H985 C925 0.929 . S
H986 C926 0.930 . S
H987 C930 0.962 . S
H988 C930 0.959 . S
H989 C930 0.958 . S
C990 C991 1.560 . S
C990 H1051 0.959 . S
C990 H1052 0.959 . S
C990 H1053 0.960 . S
C991 C990 1.560 . S
C991 O1046 1.426 . S
C991 H1050 0.980 . S
C992 C993 1.407 . S
C992 C997 1.418 . S
C992 O1046 1.334 . S
C993 C992 1.407 . S
C993 C994 1.360 . S
C993 H1054 0.929 . S
C994 C993 1.360 . S
C994 C995 1.401 . S
C994 C998 1.527 . S
C995 C994 1.401 . S
C995 C996 1.405 . S
C995 C1028 1.587 . S
C996 C995 1.405 . S
C996 C997 1.332 . S
C996 C999 1.496 . S
C997 C992 1.418 . S
C997 C996 1.332 . S
C997 H1055 0.929 . S
C998 C994 1.527 . S
C998 H1056 0.959 . S
C998 H1057 0.961 . S
C998 H1058 0.961 . S
C999 C996 1.496 . S
C999 H1059 0.960 . S
C999 H1060 0.960 . S
C999 H1061 0.961 . S
C1000 C1001 1.517 . S
C1000 H1063 0.961 . S
C1000 H1064 0.960 . S
C1000 H1065 0.959 . S
C1001 C1000 1.517 . S
C1001 O1049 1.468 . S
C1001 H1062 0.980 . S
C1002 C1003 1.349 . S
C1002 C1007 1.367 . S
C1002 O1049 1.408 . S
C1003 C1002 1.349 . S
C1003 C1004 1.407 . S
C1003 H1066 0.930 . S
C1004 C1003 1.407 . S
C1004 C1005 1.449 . S
C1004 C1008 1.535 . S
C1005 C1004 1.449 . S
C1005 C1006 1.384 . S
C1005 C1030 1.553 . S
C1006 C1005 1.384 . S
C1006 C1007 1.364 . S
C1006 C1009 1.450 . S
C1007 C1002 1.367 . S
C1007 C1006 1.364 . S
C1007 H1067 0.931 . S
C1008 C1004 1.535 . S
C1008 H1068 0.959 . S
C1008 H1069 0.961 . S
C1008 H1070 0.959 . S
C1009 C1006 1.450 . S
C1009 H1071 0.960 . S
C1009 H1072 0.960 . S
C1009 H1073 0.960 . S
C1010 C1011 1.309 . S
C1010 C1015 1.304 . S
C1010 O1048 1.435 . S
C1011 C1010 1.309 . S
C1011 C1012 1.476 . S
C1011 H1075 0.930 . S
C1012 C1011 1.476 . S
C1012 C1013 1.400 . S
C1012 C1016 1.567 . S
C1013 C1012 1.400 . S
C1013 C1014 1.373 . S
C1013 C1035 1.432 . S
C1014 C1013 1.373 . S
C1014 C1015 1.339 . S
C1014 C1017 1.530 . S
C1015 C1010 1.304 . S
C1015 C1014 1.339 . S
C1015 H1076 0.930 . S
C1016 C1012 1.567 . S
C1016 H1077 0.961 . S
C1016 H1078 0.960 . S
C1016 H1079 0.958 . S
C1017 C1014 1.530 . S
C1017 H1080 0.961 . S
C1017 H1081 0.960 . S
C1017 H1082 0.960 . S
C1018 C1019 1.530 . S
C1018 H1084 0.961 . S
C1018 H1085 0.961 . S
C1018 H1086 0.959 . S
C1019 C1018 1.530 . S
C1019 O1047 1.412 . S
C1019 H1083 0.980 . S
C1020 C1021 1.288 . S
C1020 C1025 1.377 . S
C1020 O1047 1.393 . S
C1021 C1020 1.288 . S
C1021 C1022 1.369 . S
C1021 H1087 0.932 . S
C1022 C1021 1.369 . S
C1022 C1023 1.398 . S
C1022 C1026 1.527 . S
C1023 C1022 1.398 . S
C1023 C1024 1.380 . S
C1023 C1037 1.497 . S
C1024 C1023 1.380 . S
C1024 C1025 1.383 . S
C1024 C1027 1.603 . S
C1025 C1020 1.377 . S
C1025 C1024 1.383 . S
C1025 H1088 0.929 . S
C1026 C1022 1.527 . S
C1026 H1089 0.961 . S
C1026 H1090 0.959 . S
C1026 H1091 0.959 . S
C1027 C1024 1.603 . S
C1027 H1092 0.960 . S
C1027 H1093 0.962 . S
C1027 H1094 0.961 . S
C1028 C995 1.587 . S
C1028 C1029 1.360 . S
C1028 C1041 1.412 . S
C1029 C1028 1.360 . S
C1029 C1030 1.365 . S
C1029 H1095 0.929 . S
C1030 C1005 1.553 . S
C1030 C1029 1.365 . S
C1030 C1031 1.404 . S
C1031 C1030 1.404 . S
C1031 C1032 1.395 . S
C1031 C1042 1.451 . S
C1032 C1031 1.395 . S
C1032 C1033 1.322 . S
C1032 H1096 0.930 . S
C1033 C1032 1.322 . S
C1033 C1034 1.459 . S
C1033 H1097 0.929 . S
C1034 C1033 1.459 . S
C1034 C1035 1.445 . S
C1034 C1043 1.395 . S
C1035 C1013 1.432 . S
C1035 C1034 1.445 . S
C1035 C1036 1.370 . S
C1036 C1035 1.370 . S
C1036 C1037 1.438 . S
C1036 H1098 0.930 . S
C1037 C1023 1.497 . S
C1037 C1036 1.438 . S
C1037 C1038 1.360 . S
C1038 C1037 1.360 . S
C1038 C1039 1.401 . S
C1038 C1043 1.446 . S
C1039 C1038 1.401 . S
C1039 C1040 1.347 . S
C1039 H1099 0.929 . S
C1040 C1039 1.347 . S
C1040 C1041 1.455 . S
C1040 H1100 0.930 . S
C1041 C1028 1.412 . S
C1041 C1040 1.455 . S
C1041 C1042 1.331 . S
C1042 C1031 1.451 . S
C1042 C1041 1.331 . S
C1042 C1043 1.497 . S
C1043 C1034 1.395 . S
C1043 C1038 1.446 . S
C1043 C1042 1.497 . S
C1044 C1045 1.582 . S
C1044 H1101 0.962 . S
C1044 H1102 0.959 . S
C1044 H1103 0.958 . S
C1045 C1044 1.582 . S
C1045 O1048 1.458 . S
C1045 H1074 0.980 . S
O1046 C991 1.426 . S
O1046 C992 1.334 . S
O1047 C1019 1.412 . S
O1047 C1020 1.393 . S
O1048 C1010 1.435 . S
O1048 C1045 1.458 . S
O1049 C1001 1.468 . S
O1049 C1002 1.408 . S
H1050 C991 0.980 . S
H1051 C990 0.959 . S
H1052 C990 0.959 . S
H1053 C990 0.960 . S
H1054 C993 0.929 . S
H1055 C997 0.929 . S
H1056 C998 0.959 . S
H1057 C998 0.961 . S
H1058 C998 0.961 . S
H1059 C999 0.960 . S
H1060 C999 0.960 . S
H1061 C999 0.961 . S
H1062 C1001 0.980 . S
H1063 C1000 0.961 . S
H1064 C1000 0.960 . S
H1065 C1000 0.959 . S
H1066 C1003 0.930 . S
H1067 C1007 0.931 . S
H1068 C1008 0.959 . S
H1069 C1008 0.961 . S
H1070 C1008 0.959 . S
H1071 C1009 0.960 . S
H1072 C1009 0.960 . S
H1073 C1009 0.960 . S
H1074 C1045 0.980 . S
H1075 C1011 0.930 . S
H1076 C1015 0.930 . S
H1077 C1016 0.961 . S
H1078 C1016 0.960 . S
H1079 C1016 0.958 . S
H1080 C1017 0.961 . S
H1081 C1017 0.960 . S
H1082 C1017 0.960 . S
H1083 C1019 0.980 . S
H1084 C1018 0.961 . S
H1085 C1018 0.961 . S
H1086 C1018 0.959 . S
H1087 C1021 0.932 . S
H1088 C1025 0.929 . S
H1089 C1026 0.961 . S
H1090 C1026 0.959 . S
H1091 C1026 0.959 . S
H1092 C1027 0.960 . S
H1093 C1027 0.962 . S
H1094 C1027 0.961 . S
H1095 C1029 0.929 . S
H1096 C1032 0.930 . S
H1097 C1033 0.929 . S
H1098 C1036 0.930 . S
H1099 C1039 0.929 . S
H1100 C1040 0.930 . S
H1101 C1044 0.962 . S
H1102 C1044 0.959 . S
H1103 C1044 0.958 . S
C1104 C1105 1.560 . S
C1104 H1165 0.959 . S
C1104 H1166 0.959 . S
C1104 H1167 0.960 . S
C1105 C1104 1.560 . S
C1105 O1160 1.426 . S
C1105 H1164 0.980 . S
C1106 C1107 1.407 . S
C1106 C1111 1.418 . S
C1106 O1160 1.334 . S
C1107 C1106 1.407 . S
C1107 C1108 1.360 . S
C1107 H1168 0.929 . S
C1108 C1107 1.360 . S
C1108 C1109 1.401 . S
C1108 C1112 1.527 . S
C1109 C1108 1.401 . S
C1109 C1110 1.405 . S
C1109 C1142 1.587 . S
C1110 C1109 1.405 . S
C1110 C1111 1.332 . S
C1110 C1113 1.496 . S
C1111 C1106 1.418 . S
C1111 C1110 1.332 . S
C1111 H1169 0.929 . S
C1112 C1108 1.527 . S
C1112 H1170 0.959 . S
C1112 H1171 0.961 . S
C1112 H1172 0.961 . S
C1113 C1110 1.496 . S
C1113 H1173 0.960 . S
C1113 H1174 0.960 . S
C1113 H1175 0.961 . S
C1114 C1115 1.517 . S
C1114 H1177 0.961 . S
C1114 H1178 0.960 . S
C1114 H1179 0.959 . S
C1115 C1114 1.517 . S
C1115 O1163 1.468 . S
C1115 H1176 0.980 . S
C1116 C1117 1.349 . S
C1116 C1121 1.367 . S
C1116 O1163 1.408 . S
C1117 C1116 1.349 . S
C1117 C1118 1.407 . S
C1117 H1180 0.930 . S
C1118 C1117 1.407 . S
C1118 C1119 1.449 . S
C1118 C1122 1.535 . S
C1119 C1118 1.449 . S
C1119 C1120 1.384 . S
C1119 C1144 1.553 . S
C1120 C1119 1.384 . S
C1120 C1121 1.364 . S
C1120 C1123 1.450 . S
C1121 C1116 1.367 . S
C1121 C1120 1.364 . S
C1121 H1181 0.931 . S
C1122 C1118 1.535 . S
C1122 H1182 0.959 . S
C1122 H1183 0.961 . S
C1122 H1184 0.959 . S
C1123 C1120 1.450 . S
C1123 H1185 0.960 . S
C1123 H1186 0.960 . S
C1123 H1187 0.960 . S
C1124 C1125 1.309 . S
C1124 C1129 1.304 . S
C1124 O1162 1.435 . S
C1125 C1124 1.309 . S
C1125 C1126 1.476 . S
C1125 H1189 0.930 . S
C1126 C1125 1.476 . S
C1126 C1127 1.400 . S
C1126 C1130 1.567 . S
C1127 C1126 1.400 . S
C1127 C1128 1.373 . S
C1127 C1149 1.432 . S
C1128 C1127 1.373 . S
C1128 C1129 1.339 . S
C1128 C1131 1.530 . S
C1129 C1124 1.304 . S
C1129 C1128 1.339 . S
C1129 H1190 0.930 . S
C1130 C1126 1.567 . S
C1130 H1191 0.961 . S
C1130 H1192 0.960 . S
C1130 H1193 0.958 . S
C1131 C1128 1.530 . S
C1131 H1194 0.961 . S
C1131 H1195 0.960 . S
C1131 H1196 0.960 . S
C1132 C1133 1.530 . S
C1132 H1198 0.961 . S
C1132 H1199 0.961 . S
C1132 H1200 0.959 . S
C1133 C1132 1.530 . S
C1133 O1161 1.412 . S
C1133 H1197 0.980 . S
C1134 C1135 1.288 . S
C1134 C1139 1.377 . S
C1134 O1161 1.393 . S
C1135 C1134 1.288 . S
C1135 C1136 1.369 . S
C1135 H1201 0.932 . S
C1136 C1135 1.369 . S
C1136 C1137 1.398 . S
C1136 C1140 1.527 . S
C1137 C1136 1.398 . S
C1137 C1138 1.380 . S
C1137 C1151 1.497 . S
C1138 C1137 1.380 . S
C1138 C1139 1.383 . S
C1138 C1141 1.603 . S
C1139 C1134 1.377 . S
C1139 C1138 1.383 . S
C1139 H1202 0.929 . S
C1140 C1136 1.527 . S
C1140 H1203 0.961 . S
C1140 H1204 0.959 . S
C1140 H1205 0.959 . S
C1141 C1138 1.603 . S
C1141 H1206 0.960 . S
C1141 H1207 0.962 . S
C1141 H1208 0.961 . S
C1142 C1109 1.587 . S
C1142 C1143 1.360 . S
C1142 C1155 1.412 . S
C1143 C1142 1.360 . S
C1143 C1144 1.365 . S
C1143 H1209 0.929 . S
C1144 C1119 1.553 . S
C1144 C1143 1.365 . S
C1144 C1145 1.404 . S
C1145 C1144 1.404 . S
C1145 C1146 1.395 . S
C1145 C1156 1.451 . S
C1146 C1145 1.395 . S
C1146 C1147 1.322 . S
C1146 H1210 0.930 . S
C1147 C1146 1.322 . S
C1147 C1148 1.459 . S
C1147 H1211 0.929 . S
C1148 C1147 1.459 . S
C1148 C1149 1.445 . S
C1148 C1157 1.395 . S
C1149 C1127 1.432 . S
C1149 C1148 1.445 . S
C1149 C1150 1.370 . S
C1150 C1149 1.370 . S
C1150 C1151 1.438 . S
C1150 H1212 0.930 . S
C1151 C1137 1.497 . S
C1151 C1150 1.438 . S
C1151 C1152 1.360 . S
C1152 C1151 1.360 . S
C1152 C1153 1.401 . S
C1152 C1157 1.446 . S
C1153 C1152 1.401 . S
C1153 C1154 1.347 . S
C1153 H1213 0.929 . S
C1154 C1153 1.347 . S
C1154 C1155 1.455 . S
C1154 H1214 0.930 . S
C1155 C1142 1.412 . S
C1155 C1154 1.455 . S
C1155 C1156 1.331 . S
C1156 C1145 1.451 . S
C1156 C1155 1.331 . S
C1156 C1157 1.497 . S
C1157 C1148 1.395 . S
C1157 C1152 1.446 . S
C1157 C1156 1.497 . S
C1158 C1159 1.582 . S
C1158 H1215 0.962 . S
C1158 H1216 0.959 . S
C1158 H1217 0.958 . S
C1159 C1158 1.582 . S
C1159 O1162 1.458 . S
C1159 H1188 0.980 . S
O1160 C1105 1.426 . S
O1160 C1106 1.334 . S
O1161 C1133 1.412 . S
O1161 C1134 1.393 . S
O1162 C1124 1.435 . S
O1162 C1159 1.458 . S
O1163 C1115 1.468 . S
O1163 C1116 1.408 . S
H1164 C1105 0.980 . S
H1165 C1104 0.959 . S
H1166 C1104 0.959 . S
H1167 C1104 0.960 . S
H1168 C1107 0.929 . S
H1169 C1111 0.929 . S
H1170 C1112 0.959 . S
H1171 C1112 0.961 . S
H1172 C1112 0.961 . S
H1173 C1113 0.960 . S
H1174 C1113 0.960 . S
H1175 C1113 0.961 . S
H1176 C1115 0.980 . S
H1177 C1114 0.961 . S
H1178 C1114 0.960 . S
H1179 C1114 0.959 . S
H1180 C1117 0.930 . S
H1181 C1121 0.931 . S
H1182 C1122 0.959 . S
H1183 C1122 0.961 . S
H1184 C1122 0.959 . S
H1185 C1123 0.960 . S
H1186 C1123 0.960 . S
H1187 C1123 0.960 . S
H1188 C1159 0.980 . S
H1189 C1125 0.930 . S
H1190 C1129 0.930 . S
H1191 C1130 0.961 . S
H1192 C1130 0.960 . S
H1193 C1130 0.958 . S
H1194 C1131 0.961 . S
H1195 C1131 0.960 . S
H1196 C1131 0.960 . S
H1197 C1133 0.980 . S
H1198 C1132 0.961 . S
H1199 C1132 0.961 . S
H1200 C1132 0.959 . S
H1201 C1135 0.932 . S
H1202 C1139 0.929 . S
H1203 C1140 0.961 . S
H1204 C1140 0.959 . S
H1205 C1140 0.959 . S
H1206 C1141 0.960 . S
H1207 C1141 0.962 . S
H1208 C1141 0.961 . S
H1209 C1143 0.929 . S
H1210 C1146 0.930 . S
H1211 C1147 0.929 . S
H1212 C1150 0.930 . S
H1213 C1153 0.929 . S
H1214 C1154 0.930 . S
H1215 C1158 0.962 . S
H1216 C1158 0.959 . S
H1217 C1158 0.958 . S
C1218 C1219 1.560 . S
C1218 H1279 0.959 . S
C1218 H1280 0.959 . S
C1218 H1281 0.960 . S
C1219 C1218 1.560 . S
C1219 O1274 1.426 . S
C1219 H1278 0.980 . S
C1220 C1221 1.407 . S
C1220 C1225 1.418 . S
C1220 O1274 1.334 . S
C1221 C1220 1.407 . S
C1221 C1222 1.360 . S
C1221 H1282 0.929 . S
C1222 C1221 1.360 . S
C1222 C1223 1.401 . S
C1222 C1226 1.527 . S
C1223 C1222 1.401 . S
C1223 C1224 1.405 . S
C1223 C1256 1.587 . S
C1224 C1223 1.405 . S
C1224 C1225 1.332 . S
C1224 C1227 1.496 . S
C1225 C1220 1.418 . S
C1225 C1224 1.332 . S
C1225 H1283 0.929 . S
C1226 C1222 1.527 . S
C1226 H1284 0.959 . S
C1226 H1285 0.961 . S
C1226 H1286 0.961 . S
C1227 C1224 1.496 . S
C1227 H1287 0.960 . S
C1227 H1288 0.960 . S
C1227 H1289 0.961 . S
C1228 C1229 1.517 . S
C1228 H1291 0.961 . S
C1228 H1292 0.960 . S
C1228 H1293 0.959 . S
C1229 C1228 1.517 . S
C1229 O1277 1.468 . S
C1229 H1290 0.980 . S
C1230 C1231 1.349 . S
C1230 C1235 1.367 . S
C1230 O1277 1.408 . S
C1231 C1230 1.349 . S
C1231 C1232 1.407 . S
C1231 H1294 0.930 . S
C1232 C1231 1.407 . S
C1232 C1233 1.449 . S
C1232 C1236 1.535 . S
C1233 C1232 1.449 . S
C1233 C1234 1.384 . S
C1233 C1258 1.553 . S
C1234 C1233 1.384 . S
C1234 C1235 1.364 . S
C1234 C1237 1.450 . S
C1235 C1230 1.367 . S
C1235 C1234 1.364 . S
C1235 H1295 0.931 . S
C1236 C1232 1.535 . S
C1236 H1296 0.959 . S
C1236 H1297 0.961 . S
C1236 H1298 0.959 . S
C1237 C1234 1.450 . S
C1237 H1299 0.960 . S
C1237 H1300 0.960 . S
C1237 H1301 0.960 . S
C1238 C1239 1.309 . S
C1238 C1243 1.304 . S
C1238 O1276 1.435 . S
C1239 C1238 1.309 . S
C1239 C1240 1.476 . S
C1239 H1303 0.930 . S
C1240 C1239 1.476 . S
C1240 C1241 1.400 . S
C1240 C1244 1.567 . S
C1241 C1240 1.400 . S
C1241 C1242 1.373 . S
C1241 C1263 1.432 . S
C1242 C1241 1.373 . S
C1242 C1243 1.339 . S
C1242 C1245 1.530 . S
C1243 C1238 1.304 . S
C1243 C1242 1.339 . S
C1243 H1304 0.930 . S
C1244 C1240 1.567 . S
C1244 H1305 0.961 . S
C1244 H1306 0.960 . S
C1244 H1307 0.958 . S
C1245 C1242 1.530 . S
C1245 H1308 0.961 . S
C1245 H1309 0.960 . S
C1245 H1310 0.960 . S
C1246 C1247 1.530 . S
C1246 H1312 0.961 . S
C1246 H1313 0.961 . S
C1246 H1314 0.959 . S
C1247 C1246 1.530 . S
C1247 O1275 1.412 . S
C1247 H1311 0.980 . S
C1248 C1249 1.288 . S
C1248 C1253 1.377 . S
C1248 O1275 1.393 . S
C1249 C1248 1.288 . S
C1249 C1250 1.369 . S
C1249 H1315 0.932 . S
C1250 C1249 1.369 . S
C1250 C1251 1.398 . S
C1250 C1254 1.527 . S
C1251 C1250 1.398 . S
C1251 C1252 1.380 . S
C1251 C1265 1.497 . S
C1252 C1251 1.380 . S
C1252 C1253 1.383 . S
C1252 C1255 1.603 . S
C1253 C1248 1.377 . S
C1253 C1252 1.383 . S
C1253 H1316 0.929 . S
C1254 C1250 1.527 . S
C1254 H1317 0.961 . S
C1254 H1318 0.959 . S
C1254 H1319 0.959 . S
C1255 C1252 1.603 . S
C1255 H1320 0.960 . S
C1255 H1321 0.962 . S
C1255 H1322 0.961 . S
C1256 C1223 1.587 . S
C1256 C1257 1.360 . S
C1256 C1269 1.412 . S
C1257 C1256 1.360 . S
C1257 C1258 1.365 . S
C1257 H1323 0.929 . S
C1258 C1233 1.553 . S
C1258 C1257 1.365 . S
C1258 C1259 1.404 . S
C1259 C1258 1.404 . S
C1259 C1260 1.395 . S
C1259 C1270 1.451 . S
C1260 C1259 1.395 . S
C1260 C1261 1.322 . S
C1260 H1324 0.930 . S
C1261 C1260 1.322 . S
C1261 C1262 1.459 . S
C1261 H1325 0.929 . S
C1262 C1261 1.459 . S
C1262 C1263 1.445 . S
C1262 C1271 1.395 . S
C1263 C1241 1.432 . S
C1263 C1262 1.445 . S
C1263 C1264 1.370 . S
C1264 C1263 1.370 . S
C1264 C1265 1.438 . S
C1264 H1326 0.930 . S
C1265 C1251 1.497 . S
C1265 C1264 1.438 . S
C1265 C1266 1.360 . S
C1266 C1265 1.360 . S
C1266 C1267 1.401 . S
C1266 C1271 1.446 . S
C1267 C1266 1.401 . S
C1267 C1268 1.347 . S
C1267 H1327 0.929 . S
C1268 C1267 1.347 . S
C1268 C1269 1.455 . S
C1268 H1328 0.930 . S
C1269 C1256 1.412 . S
C1269 C1268 1.455 . S
C1269 C1270 1.331 . S
C1270 C1259 1.451 . S
C1270 C1269 1.331 . S
C1270 C1271 1.497 . S
C1271 C1262 1.395 . S
C1271 C1266 1.446 . S
C1271 C1270 1.497 . S
C1272 C1273 1.582 . S
C1272 H1329 0.962 . S
C1272 H1330 0.959 . S
C1272 H1331 0.958 . S
C1273 C1272 1.582 . S
C1273 O1276 1.458 . S
C1273 H1302 0.980 . S
O1274 C1219 1.426 . S
O1274 C1220 1.334 . S
O1275 C1247 1.412 . S
O1275 C1248 1.393 . S
O1276 C1238 1.435 . S
O1276 C1273 1.458 . S
O1277 C1229 1.468 . S
O1277 C1230 1.408 . S
H1278 C1219 0.980 . S
H1279 C1218 0.959 . S
H1280 C1218 0.959 . S
H1281 C1218 0.960 . S
H1282 C1221 0.929 . S
H1283 C1225 0.929 . S
H1284 C1226 0.959 . S
H1285 C1226 0.961 . S
H1286 C1226 0.961 . S
H1287 C1227 0.960 . S
H1288 C1227 0.960 . S
H1289 C1227 0.961 . S
H1290 C1229 0.980 . S
H1291 C1228 0.961 . S
H1292 C1228 0.960 . S
H1293 C1228 0.959 . S
H1294 C1231 0.930 . S
H1295 C1235 0.931 . S
H1296 C1236 0.959 . S
H1297 C1236 0.961 . S
H1298 C1236 0.959 . S
H1299 C1237 0.960 . S
H1300 C1237 0.960 . S
H1301 C1237 0.960 . S
H1302 C1273 0.980 . S
H1303 C1239 0.930 . S
H1304 C1243 0.930 . S
H1305 C1244 0.961 . S
H1306 C1244 0.960 . S
H1307 C1244 0.958 . S
H1308 C1245 0.961 . S
H1309 C1245 0.960 . S
H1310 C1245 0.960 . S
H1311 C1247 0.980 . S
H1312 C1246 0.961 . S
H1313 C1246 0.961 . S
H1314 C1246 0.959 . S
H1315 C1249 0.932 . S
H1316 C1253 0.929 . S
H1317 C1254 0.961 . S
H1318 C1254 0.959 . S
H1319 C1254 0.959 . S
H1320 C1255 0.960 . S
H1321 C1255 0.962 . S
H1322 C1255 0.961 . S
H1323 C1257 0.929 . S
H1324 C1260 0.930 . S
H1325 C1261 0.929 . S
H1326 C1264 0.930 . S
H1327 C1267 0.929 . S
H1328 C1268 0.930 . S
H1329 C1272 0.962 . S
H1330 C1272 0.959 . S
H1331 C1272 0.958 . S
C1332 C1333 1.560 . S
C1332 H1393 0.959 . S
C1332 H1394 0.959 . S
C1332 H1395 0.960 . S
C1333 C1332 1.560 . S
C1333 O1388 1.426 . S
C1333 H1392 0.980 . S
C1334 C1335 1.407 . S
C1334 C1339 1.418 . S
C1334 O1388 1.334 . S
C1335 C1334 1.407 . S
C1335 C1336 1.360 . S
C1335 H1396 0.929 . S
C1336 C1335 1.360 . S
C1336 C1337 1.401 . S
C1336 C1340 1.527 . S
C1337 C1336 1.401 . S
C1337 C1338 1.405 . S
C1337 C1370 1.587 . S
C1338 C1337 1.405 . S
C1338 C1339 1.332 . S
C1338 C1341 1.496 . S
C1339 C1334 1.418 . S
C1339 C1338 1.332 . S
C1339 H1397 0.929 . S
C1340 C1336 1.527 . S
C1340 H1398 0.959 . S
C1340 H1399 0.961 . S
C1340 H1400 0.961 . S
C1341 C1338 1.496 . S
C1341 H1401 0.960 . S
C1341 H1402 0.960 . S
C1341 H1403 0.961 . S
C1342 C1343 1.517 . S
C1342 H1405 0.961 . S
C1342 H1406 0.960 . S
C1342 H1407 0.959 . S
C1343 C1342 1.517 . S
C1343 O1391 1.468 . S
C1343 H1404 0.980 . S
C1344 C1345 1.349 . S
C1344 C1349 1.367 . S
C1344 O1391 1.408 . S
C1345 C1344 1.349 . S
C1345 C1346 1.407 . S
C1345 H1408 0.930 . S
C1346 C1345 1.407 . S
C1346 C1347 1.449 . S
C1346 C1350 1.535 . S
C1347 C1346 1.449 . S
C1347 C1348 1.384 . S
C1347 C1372 1.553 . S
C1348 C1347 1.384 . S
C1348 C1349 1.364 . S
C1348 C1351 1.450 . S
C1349 C1344 1.367 . S
C1349 C1348 1.364 . S
C1349 H1409 0.931 . S
C1350 C1346 1.535 . S
C1350 H1410 0.959 . S
C1350 H1411 0.961 . S
C1350 H1412 0.959 . S
C1351 C1348 1.450 . S
C1351 H1413 0.960 . S
C1351 H1414 0.960 . S
C1351 H1415 0.960 . S
C1352 C1353 1.309 . S
C1352 C1357 1.304 . S
C1352 O1390 1.435 . S
C1353 C1352 1.309 . S
C1353 C1354 1.476 . S
C1353 H1417 0.930 . S
C1354 C1353 1.476 . S
C1354 C1355 1.400 . S
C1354 C1358 1.567 . S
C1355 C1354 1.400 . S
C1355 C1356 1.373 . S
C1355 C1377 1.432 . S
C1356 C1355 1.373 . S
C1356 C1357 1.339 . S
C1356 C1359 1.530 . S
C1357 C1352 1.304 . S
C1357 C1356 1.339 . S
C1357 H1418 0.930 . S
C1358 C1354 1.567 . S
C1358 H1419 0.961 . S
C1358 H1420 0.960 . S
C1358 H1421 0.958 . S
C1359 C1356 1.530 . S
C1359 H1422 0.961 . S
C1359 H1423 0.960 . S
C1359 H1424 0.960 . S
C1360 C1361 1.530 . S
C1360 H1426 0.961 . S
C1360 H1427 0.961 . S
C1360 H1428 0.959 . S
C1361 C1360 1.530 . S
C1361 O1389 1.412 . S
C1361 H1425 0.980 . S
C1362 C1363 1.288 . S
C1362 C1367 1.377 . S
C1362 O1389 1.393 . S
C1363 C1362 1.288 . S
C1363 C1364 1.369 . S
C1363 H1429 0.932 . S
C1364 C1363 1.369 . S
C1364 C1365 1.398 . S
C1364 C1368 1.527 . S
C1365 C1364 1.398 . S
C1365 C1366 1.380 . S
C1365 C1379 1.497 . S
C1366 C1365 1.380 . S
C1366 C1367 1.383 . S
C1366 C1369 1.603 . S
C1367 C1362 1.377 . S
C1367 C1366 1.383 . S
C1367 H1430 0.929 . S
C1368 C1364 1.527 . S
C1368 H1431 0.961 . S
C1368 H1432 0.959 . S
C1368 H1433 0.959 . S
C1369 C1366 1.603 . S
C1369 H1434 0.960 . S
C1369 H1435 0.962 . S
C1369 H1436 0.961 . S
C1370 C1337 1.587 . S
C1370 C1371 1.360 . S
C1370 C1383 1.412 . S
C1371 C1370 1.360 . S
C1371 C1372 1.365 . S
C1371 H1437 0.929 . S
C1372 C1347 1.553 . S
C1372 C1371 1.365 . S
C1372 C1373 1.404 . S
C1373 C1372 1.404 . S
C1373 C1374 1.395 . S
C1373 C1384 1.451 . S
C1374 C1373 1.395 . S
C1374 C1375 1.322 . S
C1374 H1438 0.930 . S
C1375 C1374 1.322 . S
C1375 C1376 1.459 . S
C1375 H1439 0.929 . S
C1376 C1375 1.459 . S
C1376 C1377 1.445 . S
C1376 C1385 1.395 . S
C1377 C1355 1.432 . S
C1377 C1376 1.445 . S
C1377 C1378 1.370 . S
C1378 C1377 1.370 . S
C1378 C1379 1.438 . S
C1378 H1440 0.930 . S
C1379 C1365 1.497 . S
C1379 C1378 1.438 . S
C1379 C1380 1.360 . S
C1380 C1379 1.360 . S
C1380 C1381 1.401 . S
C1380 C1385 1.446 . S
C1381 C1380 1.401 . S
C1381 C1382 1.347 . S
C1381 H1441 0.929 . S
C1382 C1381 1.347 . S
C1382 C1383 1.455 . S
C1382 H1442 0.930 . S
C1383 C1370 1.412 . S
C1383 C1382 1.455 . S
C1383 C1384 1.331 . S
C1384 C1373 1.451 . S
C1384 C1383 1.331 . S
C1384 C1385 1.497 . S
C1385 C1376 1.395 . S
C1385 C1380 1.446 . S
C1385 C1384 1.497 . S
C1386 C1387 1.582 . S
C1386 H1443 0.962 . S
C1386 H1444 0.959 . S
C1386 H1445 0.958 . S
C1387 C1386 1.582 . S
C1387 O1390 1.458 . S
C1387 H1416 0.980 . S
O1388 C1333 1.426 . S
O1388 C1334 1.334 . S
O1389 C1361 1.412 . S
O1389 C1362 1.393 . S
O1390 C1352 1.435 . S
O1390 C1387 1.458 . S
O1391 C1343 1.468 . S
O1391 C1344 1.408 . S
H1392 C1333 0.980 . S
H1393 C1332 0.959 . S
H1394 C1332 0.959 . S
H1395 C1332 0.960 . S
H1396 C1335 0.929 . S
H1397 C1339 0.929 . S
H1398 C1340 0.959 . S
H1399 C1340 0.961 . S
H1400 C1340 0.961 . S
H1401 C1341 0.960 . S
H1402 C1341 0.960 . S
H1403 C1341 0.961 . S
H1404 C1343 0.980 . S
H1405 C1342 0.961 . S
H1406 C1342 0.960 . S
H1407 C1342 0.959 . S
H1408 C1345 0.930 . S
H1409 C1349 0.931 . S
H1410 C1350 0.959 . S
H1411 C1350 0.961 . S
H1412 C1350 0.959 . S
H1413 C1351 0.960 . S
H1414 C1351 0.960 . S
H1415 C1351 0.960 . S
H1416 C1387 0.980 . S
H1417 C1353 0.930 . S
H1418 C1357 0.930 . S
H1419 C1358 0.961 . S
H1420 C1358 0.960 . S
H1421 C1358 0.958 . S
H1422 C1359 0.961 . S
H1423 C1359 0.960 . S
H1424 C1359 0.960 . S
H1425 C1361 0.980 . S
H1426 C1360 0.961 . S
H1427 C1360 0.961 . S
H1428 C1360 0.959 . S
H1429 C1363 0.932 . S
H1430 C1367 0.929 . S
H1431 C1368 0.961 . S
H1432 C1368 0.959 . S
H1433 C1368 0.959 . S
H1434 C1369 0.960 . S
H1435 C1369 0.962 . S
H1436 C1369 0.961 . S
H1437 C1371 0.929 . S
H1438 C1374 0.930 . S
H1439 C1375 0.929 . S
H1440 C1378 0.930 . S
H1441 C1381 0.929 . S
H1442 C1382 0.930 . S
H1443 C1386 0.962 . S
H1444 C1386 0.959 . S
H1445 C1386 0.958 . S
C1446 C1447 1.560 . S
C1446 H1507 0.959 . S
C1446 H1508 0.959 . S
C1446 H1509 0.960 . S
C1447 C1446 1.560 . S
C1447 O1502 1.426 . S
C1447 H1506 0.980 . S
C1448 C1449 1.407 . S
C1448 C1453 1.418 . S
C1448 O1502 1.334 . S
C1449 C1448 1.407 . S
C1449 C1450 1.360 . S
C1449 H1510 0.929 . S
C1450 C1449 1.360 . S
C1450 C1451 1.401 . S
C1450 C1454 1.527 . S
C1451 C1450 1.401 . S
C1451 C1452 1.405 . S
C1451 C1484 1.587 . S
C1452 C1451 1.405 . S
C1452 C1453 1.332 . S
C1452 C1455 1.496 . S
C1453 C1448 1.418 . S
C1453 C1452 1.332 . S
C1453 H1511 0.929 . S
C1454 C1450 1.527 . S
C1454 H1512 0.959 . S
C1454 H1513 0.961 . S
C1454 H1514 0.961 . S
C1455 C1452 1.496 . S
C1455 H1515 0.960 . S
C1455 H1516 0.960 . S
C1455 H1517 0.961 . S
C1456 C1457 1.517 . S
C1456 H1519 0.961 . S
C1456 H1520 0.960 . S
C1456 H1521 0.959 . S
C1457 C1456 1.517 . S
C1457 O1505 1.468 . S
C1457 H1518 0.980 . S
C1458 C1459 1.349 . S
C1458 C1463 1.367 . S
C1458 O1505 1.408 . S
C1459 C1458 1.349 . S
C1459 C1460 1.407 . S
C1459 H1522 0.930 . S
C1460 C1459 1.407 . S
C1460 C1461 1.449 . S
C1460 C1464 1.535 . S
C1461 C1460 1.449 . S
C1461 C1462 1.384 . S
C1461 C1486 1.553 . S
C1462 C1461 1.384 . S
C1462 C1463 1.364 . S
C1462 C1465 1.450 . S
C1463 C1458 1.367 . S
C1463 C1462 1.364 . S
C1463 H1523 0.931 . S
C1464 C1460 1.535 . S
C1464 H1524 0.959 . S
C1464 H1525 0.961 . S
C1464 H1526 0.959 . S
C1465 C1462 1.450 . S
C1465 H1527 0.960 . S
C1465 H1528 0.960 . S
C1465 H1529 0.960 . S
C1466 C1467 1.309 . S
C1466 C1471 1.304 . S
C1466 O1504 1.435 . S
C1467 C1466 1.309 . S
C1467 C1468 1.476 . S
C1467 H1531 0.930 . S
C1468 C1467 1.476 . S
C1468 C1469 1.400 . S
C1468 C1472 1.567 . S
C1469 C1468 1.400 . S
C1469 C1470 1.373 . S
C1469 C1491 1.432 . S
C1470 C1469 1.373 . S
C1470 C1471 1.339 . S
C1470 C1473 1.530 . S
C1471 C1466 1.304 . S
C1471 C1470 1.339 . S
C1471 H1532 0.930 . S
C1472 C1468 1.567 . S
C1472 H1533 0.961 . S
C1472 H1534 0.960 . S
C1472 H1535 0.958 . S
C1473 C1470 1.530 . S
C1473 H1536 0.961 . S
C1473 H1537 0.960 . S
C1473 H1538 0.960 . S
C1474 C1475 1.530 . S
C1474 H1540 0.961 . S
C1474 H1541 0.961 . S
C1474 H1542 0.959 . S
C1475 C1474 1.530 . S
C1475 O1503 1.412 . S
C1475 H1539 0.980 . S
C1476 C1477 1.288 . S
C1476 C1481 1.377 . S
C1476 O1503 1.393 . S
C1477 C1476 1.288 . S
C1477 C1478 1.369 . S
C1477 H1543 0.932 . S
C1478 C1477 1.369 . S
C1478 C1479 1.398 . S
C1478 C1482 1.527 . S
C1479 C1478 1.398 . S
C1479 C1480 1.380 . S
C1479 C1493 1.497 . S
C1480 C1479 1.380 . S
C1480 C1481 1.383 . S
C1480 C1483 1.603 . S
C1481 C1476 1.377 . S
C1481 C1480 1.383 . S
C1481 H1544 0.929 . S
C1482 C1478 1.527 . S
C1482 H1545 0.961 . S
C1482 H1546 0.959 . S
C1482 H1547 0.959 . S
C1483 C1480 1.603 . S
C1483 H1548 0.960 . S
C1483 H1549 0.962 . S
C1483 H1550 0.961 . S
C1484 C1451 1.587 . S
C1484 C1485 1.360 . S
C1484 C1497 1.412 . S
C1485 C1484 1.360 . S
C1485 C1486 1.365 . S
C1485 H1551 0.929 . S
C1486 C1461 1.553 . S
C1486 C1485 1.365 . S
C1486 C1487 1.404 . S
C1487 C1486 1.404 . S
C1487 C1488 1.395 . S
C1487 C1498 1.451 . S
C1488 C1487 1.395 . S
C1488 C1489 1.322 . S
C1488 H1552 0.930 . S
C1489 C1488 1.322 . S
C1489 C1490 1.459 . S
C1489 H1553 0.929 . S
C1490 C1489 1.459 . S
C1490 C1491 1.445 . S
C1490 C1499 1.395 . S
C1491 C1469 1.432 . S
C1491 C1490 1.445 . S
C1491 C1492 1.370 . S
C1492 C1491 1.370 . S
C1492 C1493 1.438 . S
C1492 H1554 0.930 . S
C1493 C1479 1.497 . S
C1493 C1492 1.438 . S
C1493 C1494 1.360 . S
C1494 C1493 1.360 . S
C1494 C1495 1.401 . S
C1494 C1499 1.446 . S
C1495 C1494 1.401 . S
C1495 C1496 1.347 . S
C1495 H1555 0.929 . S
C1496 C1495 1.347 . S
C1496 C1497 1.455 . S
C1496 H1556 0.930 . S
C1497 C1484 1.412 . S
C1497 C1496 1.455 . S
C1497 C1498 1.331 . S
C1498 C1487 1.451 . S
C1498 C1497 1.331 . S
C1498 C1499 1.497 . S
C1499 C1490 1.395 . S
C1499 C1494 1.446 . S
C1499 C1498 1.497 . S
C1500 C1501 1.582 . S
C1500 H1557 0.962 . S
C1500 H1558 0.959 . S
C1500 H1559 0.958 . S
C1501 C1500 1.582 . S
C1501 O1504 1.458 . S
C1501 H1530 0.980 . S
O1502 C1447 1.426 . S
O1502 C1448 1.334 . S
O1503 C1475 1.412 . S
O1503 C1476 1.393 . S
O1504 C1466 1.435 . S
O1504 C1501 1.458 . S
O1505 C1457 1.468 . S
O1505 C1458 1.408 . S
H1506 C1447 0.980 . S
H1507 C1446 0.959 . S
H1508 C1446 0.959 . S
H1509 C1446 0.960 . S
H1510 C1449 0.929 . S
H1511 C1453 0.929 . S
H1512 C1454 0.959 . S
H1513 C1454 0.961 . S
H1514 C1454 0.961 . S
H1515 C1455 0.960 . S
H1516 C1455 0.960 . S
H1517 C1455 0.961 . S
H1518 C1457 0.980 . S
H1519 C1456 0.961 . S
H1520 C1456 0.960 . S
H1521 C1456 0.959 . S
H1522 C1459 0.930 . S
H1523 C1463 0.931 . S
H1524 C1464 0.959 . S
H1525 C1464 0.961 . S
H1526 C1464 0.959 . S
H1527 C1465 0.960 . S
H1528 C1465 0.960 . S
H1529 C1465 0.960 . S
H1530 C1501 0.980 . S
H1531 C1467 0.930 . S
H1532 C1471 0.930 . S
H1533 C1472 0.961 . S
H1534 C1472 0.960 . S
H1535 C1472 0.958 . S
H1536 C1473 0.961 . S
H1537 C1473 0.960 . S
H1538 C1473 0.960 . S
H1539 C1475 0.980 . S
H1540 C1474 0.961 . S
H1541 C1474 0.961 . S
H1542 C1474 0.959 . S
H1543 C1477 0.932 . S
H1544 C1481 0.929 . S
H1545 C1482 0.961 . S
H1546 C1482 0.959 . S
H1547 C1482 0.959 . S
H1548 C1483 0.960 . S
H1549 C1483 0.962 . S
H1550 C1483 0.961 . S
H1551 C1485 0.929 . S
H1552 C1488 0.930 . S
H1553 C1489 0.929 . S
H1554 C1492 0.930 . S
H1555 C1495 0.929 . S
H1556 C1496 0.930 . S
H1557 C1500 0.962 . S
H1558 C1500 0.959 . S
H1559 C1500 0.958 . S
C1560 C1561 1.560 . S
C1560 H1621 0.959 . S
C1560 H1622 0.959 . S
C1560 H1623 0.960 . S
C1561 C1560 1.560 . S
C1561 O1616 1.426 . S
C1561 H1620 0.980 . S
C1562 C1563 1.407 . S
C1562 C1567 1.418 . S
C1562 O1616 1.334 . S
C1563 C1562 1.407 . S
C1563 C1564 1.360 . S
C1563 H1624 0.929 . S
C1564 C1563 1.360 . S
C1564 C1565 1.401 . S
C1564 C1568 1.527 . S
C1565 C1564 1.401 . S
C1565 C1566 1.405 . S
C1565 C1598 1.587 . S
C1566 C1565 1.405 . S
C1566 C1567 1.332 . S
C1566 C1569 1.496 . S
C1567 C1562 1.418 . S
C1567 C1566 1.332 . S
C1567 H1625 0.929 . S
C1568 C1564 1.527 . S
C1568 H1626 0.959 . S
C1568 H1627 0.961 . S
C1568 H1628 0.961 . S
C1569 C1566 1.496 . S
C1569 H1629 0.960 . S
C1569 H1630 0.960 . S
C1569 H1631 0.961 . S
C1570 C1571 1.517 . S
C1570 H1633 0.961 . S
C1570 H1634 0.960 . S
C1570 H1635 0.959 . S
C1571 C1570 1.517 . S
C1571 O1619 1.468 . S
C1571 H1632 0.980 . S
C1572 C1573 1.349 . S
C1572 C1577 1.367 . S
C1572 O1619 1.408 . S
C1573 C1572 1.349 . S
C1573 C1574 1.407 . S
C1573 H1636 0.930 . S
C1574 C1573 1.407 . S
C1574 C1575 1.449 . S
C1574 C1578 1.535 . S
C1575 C1574 1.449 . S
C1575 C1576 1.384 . S
C1575 C1600 1.553 . S
C1576 C1575 1.384 . S
C1576 C1577 1.364 . S
C1576 C1579 1.450 . S
C1577 C1572 1.367 . S
C1577 C1576 1.364 . S
C1577 H1637 0.931 . S
C1578 C1574 1.535 . S
C1578 H1638 0.959 . S
C1578 H1639 0.961 . S
C1578 H1640 0.959 . S
C1579 C1576 1.450 . S
C1579 H1641 0.960 . S
C1579 H1642 0.960 . S
C1579 H1643 0.960 . S
C1580 C1581 1.309 . S
C1580 C1585 1.304 . S
C1580 O1618 1.435 . S
C1581 C1580 1.309 . S
C1581 C1582 1.476 . S
C1581 H1645 0.930 . S
C1582 C1581 1.476 . S
C1582 C1583 1.400 . S
C1582 C1586 1.567 . S
C1583 C1582 1.400 . S
C1583 C1584 1.373 . S
C1583 C1605 1.432 . S
C1584 C1583 1.373 . S
C1584 C1585 1.339 . S
C1584 C1587 1.530 . S
C1585 C1580 1.304 . S
C1585 C1584 1.339 . S
C1585 H1646 0.930 . S
C1586 C1582 1.567 . S
C1586 H1647 0.961 . S
C1586 H1648 0.960 . S
C1586 H1649 0.958 . S
C1587 C1584 1.530 . S
C1587 H1650 0.961 . S
C1587 H1651 0.960 . S
C1587 H1652 0.960 . S
C1588 C1589 1.530 . S
C1588 H1654 0.961 . S
C1588 H1655 0.961 . S
C1588 H1656 0.959 . S
C1589 C1588 1.530 . S
C1589 O1617 1.412 . S
C1589 H1653 0.980 . S
C1590 C1591 1.288 . S
C1590 C1595 1.377 . S
C1590 O1617 1.393 . S
C1591 C1590 1.288 . S
C1591 C1592 1.369 . S
C1591 H1657 0.932 . S
C1592 C1591 1.369 . S
C1592 C1593 1.398 . S
C1592 C1596 1.527 . S
C1593 C1592 1.398 . S
C1593 C1594 1.380 . S
C1593 C1607 1.497 . S
C1594 C1593 1.380 . S
C1594 C1595 1.383 . S
C1594 C1597 1.603 . S
C1595 C1590 1.377 . S
C1595 C1594 1.383 . S
C1595 H1658 0.929 . S
C1596 C1592 1.527 . S
C1596 H1659 0.961 . S
C1596 H1660 0.959 . S
C1596 H1661 0.959 . S
C1597 C1594 1.603 . S
C1597 H1662 0.960 . S
C1597 H1663 0.962 . S
C1597 H1664 0.961 . S
C1598 C1565 1.587 . S
C1598 C1599 1.360 . S
C1598 C1611 1.412 . S
C1599 C1598 1.360 . S
C1599 C1600 1.365 . S
C1599 H1665 0.929 . S
C1600 C1575 1.553 . S
C1600 C1599 1.365 . S
C1600 C1601 1.404 . S
C1601 C1600 1.404 . S
C1601 C1602 1.395 . S
C1601 C1612 1.451 . S
C1602 C1601 1.395 . S
C1602 C1603 1.322 . S
C1602 H1666 0.930 . S
C1603 C1602 1.322 . S
C1603 C1604 1.459 . S
C1603 H1667 0.929 . S
C1604 C1603 1.459 . S
C1604 C1605 1.445 . S
C1604 C1613 1.395 . S
C1605 C1583 1.432 . S
C1605 C1604 1.445 . S
C1605 C1606 1.370 . S
C1606 C1605 1.370 . S
C1606 C1607 1.438 . S
C1606 H1668 0.930 . S
C1607 C1593 1.497 . S
C1607 C1606 1.438 . S
C1607 C1608 1.360 . S
C1608 C1607 1.360 . S
C1608 C1609 1.401 . S
C1608 C1613 1.446 . S
C1609 C1608 1.401 . S
C1609 C1610 1.347 . S
C1609 H1669 0.929 . S
C1610 C1609 1.347 . S
C1610 C1611 1.455 . S
C1610 H1670 0.930 . S
C1611 C1598 1.412 . S
C1611 C1610 1.455 . S
C1611 C1612 1.331 . S
C1612 C1601 1.451 . S
C1612 C1611 1.331 . S
C1612 C1613 1.497 . S
C1613 C1604 1.395 . S
C1613 C1608 1.446 . S
C1613 C1612 1.497 . S
C1614 C1615 1.582 . S
C1614 H1671 0.962 . S
C1614 H1672 0.959 . S
C1614 H1673 0.958 . S
C1615 C1614 1.582 . S
C1615 O1618 1.458 . S
C1615 H1644 0.980 . S
O1616 C1561 1.426 . S
O1616 C1562 1.334 . S
O1617 C1589 1.412 . S
O1617 C1590 1.393 . S
O1618 C1580 1.435 . S
O1618 C1615 1.458 . S
O1619 C1571 1.468 . S
O1619 C1572 1.408 . S
H1620 C1561 0.980 . S
H1621 C1560 0.959 . S
H1622 C1560 0.959 . S
H1623 C1560 0.960 . S
H1624 C1563 0.929 . S
H1625 C1567 0.929 . S
H1626 C1568 0.959 . S
H1627 C1568 0.961 . S
H1628 C1568 0.961 . S
H1629 C1569 0.960 . S
H1630 C1569 0.960 . S
H1631 C1569 0.961 . S
H1632 C1571 0.980 . S
H1633 C1570 0.961 . S
H1634 C1570 0.960 . S
H1635 C1570 0.959 . S
H1636 C1573 0.930 . S
H1637 C1577 0.931 . S
H1638 C1578 0.959 . S
H1639 C1578 0.961 . S
H1640 C1578 0.959 . S
H1641 C1579 0.960 . S
H1642 C1579 0.960 . S
H1643 C1579 0.960 . S
H1644 C1615 0.980 . S
H1645 C1581 0.930 . S
H1646 C1585 0.930 . S
H1647 C1586 0.961 . S
H1648 C1586 0.960 . S
H1649 C1586 0.958 . S
H1650 C1587 0.961 . S
H1651 C1587 0.960 . S
H1652 C1587 0.960 . S
H1653 C1589 0.980 . S
H1654 C1588 0.961 . S
H1655 C1588 0.961 . S
H1656 C1588 0.959 . S
H1657 C1591 0.932 . S
H1658 C1595 0.929 . S
H1659 C1596 0.961 . S
H1660 C1596 0.959 . S
H1661 C1596 0.959 . S
H1662 C1597 0.960 . S
H1663 C1597 0.962 . S
H1664 C1597 0.961 . S
H1665 C1599 0.929 . S
H1666 C1602 0.930 . S
H1667 C1603 0.929 . S
H1668 C1606 0.930 . S
H1669 C1609 0.929 . S
H1670 C1610 0.930 . S
H1671 C1614 0.962 . S
H1672 C1614 0.959 . S
H1673 C1614 0.958 . S
C1674 C1675 1.560 . S
C1674 H1735 0.959 . S
C1674 H1736 0.959 . S
C1674 H1737 0.960 . S
C1675 C1674 1.560 . S
C1675 O1730 1.426 . S
C1675 H1734 0.980 . S
C1676 C1677 1.407 1_455 S
C1676 C1681 1.418 . S
C1676 O1730 1.334 . S
C1677 C1676 1.407 1_655 S
C1677 C1678 1.360 . S
C1677 H1738 0.929 . S
C1678 C1677 1.360 . S
C1678 C1679 1.401 1_655 S
C1678 C1682 1.527 . S
C1679 C1678 1.401 1_455 S
C1679 C1680 1.405 . S
C1679 C1712 1.587 1_455 S
C1680 C1679 1.405 . S
C1680 C1681 1.332 . S
C1680 C1683 1.496 . S
C1681 C1676 1.418 . S
C1681 C1680 1.332 . S
C1681 H1739 0.929 . S
C1682 C1678 1.527 . S
C1682 H1740 0.959 . S
C1682 H1741 0.961 . S
C1682 H1742 0.961 . S
C1683 C1680 1.496 . S
C1683 H1743 0.960 . S
C1683 H1744 0.960 . S
C1683 H1745 0.961 . S
C1684 C1685 1.517 . S
C1684 H1747 0.975 . S
C1684 H1748 0.960 . S
C1684 H1749 0.959 . S
C1685 C1684 1.517 . S
C1685 O1733 1.468 . S
C1685 H1746 0.980 1_655 S
C1686 C1687 1.349 . S
C1686 C1691 1.367 . S
C1686 O1733 1.408 . S
C1687 C1686 1.349 . S
C1687 C1688 1.368 1_655 S
C1687 H1750 0.930 1_655 S
C1688 C1687 1.368 1_455 S
C1688 C1689 1.415 1_455 S
C1688 C1692 1.604 . S
C1689 C1688 1.415 1_655 S
C1689 C1690 1.384 . S
C1689 C1714 1.553 . S
C1690 C1689 1.384 . S
C1690 C1691 1.364 . S
C1690 C1693 1.450 . S
C1691 C1686 1.367 . S
C1691 C1690 1.364 . S
C1691 H1751 0.931 . S
C1692 C1688 1.604 . S
C1692 H1752 0.959 . S
C1692 H1753 0.961 . S
C1692 H1754 0.959 . S
C1693 C1690 1.450 . S
C1693 H1755 0.960 . S
C1693 H1756 0.960 . S
C1693 H1757 0.960 . S
C1694 C1695 1.309 . S
C1694 C1699 1.304 . S
C1694 O1732 1.435 . S
C1695 C1694 1.309 . S
C1695 C1696 1.447 1_655 S
C1695 H1759 0.930 1_655 S
C1696 C1695 1.447 1_455 S
C1696 C1697 1.381 1_455 S
C1696 C1700 1.615 . S
C1697 C1696 1.381 1_655 S
C1697 C1698 1.373 . S
C1697 C1719 1.432 . S
C1698 C1697 1.373 . S
C1698 C1699 1.339 . S
C1698 C1701 1.530 . S
C1699 C1694 1.304 . S
C1699 C1698 1.339 . S
C1699 H1760 0.930 . S
C1700 C1696 1.615 . S
C1700 H1761 0.961 . S
C1700 H1762 0.960 . S
C1700 H1763 0.958 . S
C1701 C1698 1.530 . S
C1701 H1764 0.961 . S
C1701 H1765 0.960 . S
C1701 H1766 0.960 . S
C1702 C1703 1.510 1_455 S
C1702 H1768 0.961 . S
C1702 H1769 0.961 . S
C1702 H1770 0.959 . S
C1703 C1702 1.510 1_655 S
C1703 O1731 1.407 1_655 S
C1703 H1767 0.987 . S
C1704 C1705 1.288 . S
C1704 C1709 1.377 1_455 S
C1704 O1731 1.393 . S
C1705 C1704 1.288 . S
C1705 C1706 1.369 . S
C1705 H1771 0.932 . S
C1706 C1705 1.369 . S
C1706 C1707 1.398 1_455 S
C1706 C1710 1.527 . S
C1707 C1706 1.398 1_655 S
C1707 C1708 1.380 . S
C1707 C1721 1.497 . S
C1708 C1707 1.380 . S
C1708 C1709 1.383 . S
C1708 C1711 1.603 . S
C1709 C1704 1.377 1_655 S
C1709 C1708 1.383 . S
C1709 H1772 0.929 . S
C1710 C1706 1.527 . S
C1710 H1773 0.961 . S
C1710 H1774 0.959 . S
C1710 H1775 0.959 . S
C1711 C1708 1.603 . S
C1711 H1776 0.960 . S
C1711 H1777 0.962 . S
C1711 H1778 0.961 . S
C1712 C1679 1.587 1_655 S
C1712 C1713 1.360 . S
C1712 C1725 1.412 . S
C1713 C1712 1.360 . S
C1713 C1714 1.365 . S
C1713 H1779 0.929 . S
C1714 C1689 1.553 . S
C1714 C1713 1.365 . S
C1714 C1715 1.404 . S
C1715 C1714 1.404 . S
C1715 C1716 1.395 . S
C1715 C1726 1.451 . S
C1716 C1715 1.395 . S
C1716 C1717 1.322 . S
C1716 H1780 0.930 . S
C1717 C1716 1.322 . S
C1717 C1718 1.459 . S
C1717 H1781 0.929 . S
C1718 C1717 1.459 . S
C1718 C1719 1.445 . S
C1718 C1727 1.395 . S
C1719 C1697 1.432 . S
C1719 C1718 1.445 . S
C1719 C1720 1.370 . S
C1720 C1719 1.370 . S
C1720 C1721 1.438 . S
C1720 H1782 0.930 . S
C1721 C1707 1.497 . S
C1721 C1720 1.438 . S
C1721 C1722 1.360 . S
C1722 C1721 1.360 . S
C1722 C1723 1.401 . S
C1722 C1727 1.446 . S
C1723 C1722 1.401 . S
C1723 C1724 1.347 . S
C1723 H1783 0.929 . S
C1724 C1723 1.347 . S
C1724 C1725 1.455 . S
C1724 H1784 0.930 . S
C1725 C1712 1.412 . S
C1725 C1724 1.455 . S
C1725 C1726 1.331 . S
C1726 C1715 1.451 . S
C1726 C1725 1.331 . S
C1726 C1727 1.497 . S
C1727 C1718 1.395 . S
C1727 C1722 1.446 . S
C1727 C1726 1.497 . S
C1728 C1729 1.582 . S
C1728 H1785 0.962 . S
C1728 H1786 0.959 . S
C1728 H1787 0.958 . S
C1729 C1728 1.582 . S
C1729 O1732 1.458 . S
C1729 H1758 0.980 . S
O1730 C1675 1.426 . S
O1730 C1676 1.334 . S
O1731 C1703 1.407 1_455 S
O1731 C1704 1.393 . S
O1732 C1694 1.435 . S
O1732 C1729 1.458 . S
O1733 C1685 1.468 . S
O1733 C1686 1.408 . S
H1734 C1675 0.980 . S
H1735 C1674 0.959 . S
H1736 C1674 0.959 . S
H1737 C1674 0.960 . S
H1738 C1677 0.929 . S
H1739 C1681 0.929 . S
H1740 C1682 0.959 . S
H1741 C1682 0.961 . S
H1742 C1682 0.961 . S
H1743 C1683 0.960 . S
H1744 C1683 0.960 . S
H1745 C1683 0.961 . S
H1746 C1685 0.980 1_455 S
H1747 C1684 0.975 . S
H1748 C1684 0.960 . S
H1749 C1684 0.959 . S
H1750 C1687 0.930 1_455 S
H1751 C1691 0.931 . S
H1752 C1692 0.959 . S
H1753 C1692 0.961 . S
H1754 C1692 0.959 . S
H1755 C1693 0.960 . S
H1756 C1693 0.960 . S
H1757 C1693 0.960 . S
H1758 C1729 0.980 . S
H1759 C1695 0.930 1_455 S
H1760 C1699 0.930 . S
H1761 C1700 0.961 . S
H1762 C1700 0.960 . S
H1763 C1700 0.958 . S
H1764 C1701 0.961 . S
H1765 C1701 0.960 . S
H1766 C1701 0.960 . S
H1767 C1703 0.987 . S
H1768 C1702 0.961 . S
H1769 C1702 0.961 . S
H1770 C1702 0.959 . S
H1771 C1705 0.932 . S
H1772 C1709 0.929 . S
H1773 C1710 0.961 . S
H1774 C1710 0.959 . S
H1775 C1710 0.959 . S
H1776 C1711 0.960 . S
H1777 C1711 0.962 . S
H1778 C1711 0.961 . S
H1779 C1713 0.929 . S
H1780 C1716 0.930 . S
H1781 C1717 0.929 . S
H1782 C1720 0.930 . S
H1783 C1723 0.929 . S
H1784 C1724 0.930 . S
H1785 C1728 0.962 . S
H1786 C1728 0.959 . S
H1787 C1728 0.958 . S
C1788 C1789 1.560 . S
C1788 H1849 0.959 . S
C1788 H1850 0.959 . S
C1788 H1851 0.960 . S
C1789 C1788 1.560 . S
C1789 O1844 1.426 . S
C1789 H1848 0.980 . S
C1790 C1791 1.407 . S
C1790 C1795 1.418 . S
C1790 O1844 1.334 . S
C1791 C1790 1.407 . S
C1791 C1792 1.360 . S
C1791 H1852 0.929 . S
C1792 C1791 1.360 . S
C1792 C1793 1.401 . S
C1792 C1796 1.527 . S
C1793 C1792 1.401 . S
C1793 C1794 1.405 . S
C1793 C1826 1.587 . S
C1794 C1793 1.405 . S
C1794 C1795 1.332 . S
C1794 C1797 1.496 . S
C1795 C1790 1.418 . S
C1795 C1794 1.332 . S
C1795 H1853 0.929 . S
C1796 C1792 1.527 . S
C1796 H1854 0.959 . S
C1796 H1855 0.961 . S
C1796 H1856 0.961 . S
C1797 C1794 1.496 . S
C1797 H1857 0.960 . S
C1797 H1858 0.960 . S
C1797 H1859 0.961 . S
C1798 C1799 1.517 . S
C1798 H1861 0.961 . S
C1798 H1862 0.960 . S
C1798 H1863 0.959 . S
C1799 C1798 1.517 . S
C1799 O1847 1.468 . S
C1799 H1860 0.980 . S
C1800 C1801 1.349 . S
C1800 C1805 1.367 . S
C1800 O1847 1.408 . S
C1801 C1800 1.349 . S
C1801 C1802 1.407 . S
C1801 H1864 0.930 . S
C1802 C1801 1.407 . S
C1802 C1803 1.449 . S
C1802 C1806 1.535 . S
C1803 C1802 1.449 . S
C1803 C1804 1.384 . S
C1803 C1828 1.553 . S
C1804 C1803 1.384 . S
C1804 C1805 1.364 . S
C1804 C1807 1.450 . S
C1805 C1800 1.367 . S
C1805 C1804 1.364 . S
C1805 H1865 0.931 . S
C1806 C1802 1.535 . S
C1806 H1866 0.959 . S
C1806 H1867 0.961 . S
C1806 H1868 0.959 . S
C1807 C1804 1.450 . S
C1807 H1869 0.960 . S
C1807 H1870 0.960 . S
C1807 H1871 0.960 . S
C1808 C1809 1.309 . S
C1808 C1813 1.304 . S
C1808 O1846 1.435 . S
C1809 C1808 1.309 . S
C1809 C1810 1.476 . S
C1809 H1873 0.930 . S
C1810 C1809 1.476 . S
C1810 C1811 1.400 . S
C1810 C1814 1.567 . S
C1811 C1810 1.400 . S
C1811 C1812 1.373 . S
C1811 C1833 1.432 . S
C1812 C1811 1.373 . S
C1812 C1813 1.339 . S
C1812 C1815 1.530 . S
C1813 C1808 1.304 . S
C1813 C1812 1.339 . S
C1813 H1874 0.930 . S
C1814 C1810 1.567 . S
C1814 H1875 0.961 . S
C1814 H1876 0.960 . S
C1814 H1877 0.958 . S
C1815 C1812 1.530 . S
C1815 H1878 0.961 . S
C1815 H1879 0.960 . S
C1815 H1880 0.960 . S
C1816 C1817 1.530 . S
C1816 H1882 0.961 . S
C1816 H1883 0.961 . S
C1816 H1884 0.959 . S
C1817 C1816 1.530 . S
C1817 O1845 1.412 . S
C1817 H1881 0.980 . S
C1818 C1819 1.288 . S
C1818 C1823 1.377 . S
C1818 O1845 1.393 . S
C1819 C1818 1.288 . S
C1819 C1820 1.369 . S
C1819 H1885 0.932 . S
C1820 C1819 1.369 . S
C1820 C1821 1.398 . S
C1820 C1824 1.527 . S
C1821 C1820 1.398 . S
C1821 C1822 1.380 . S
C1821 C1835 1.497 . S
C1822 C1821 1.380 . S
C1822 C1823 1.383 . S
C1822 C1825 1.603 . S
C1823 C1818 1.377 . S
C1823 C1822 1.383 . S
C1823 H1886 0.929 . S
C1824 C1820 1.527 . S
C1824 H1887 0.961 . S
C1824 H1888 0.959 . S
C1824 H1889 0.959 . S
C1825 C1822 1.603 . S
C1825 H1890 0.960 . S
C1825 H1891 0.962 . S
C1825 H1892 0.961 . S
C1826 C1793 1.587 . S
C1826 C1827 1.360 . S
C1826 C1839 1.412 . S
C1827 C1826 1.360 . S
C1827 C1828 1.365 . S
C1827 H1893 0.929 . S
C1828 C1803 1.553 . S
C1828 C1827 1.365 . S
C1828 C1829 1.404 . S
C1829 C1828 1.404 . S
C1829 C1830 1.395 . S
C1829 C1840 1.451 . S
C1830 C1829 1.395 . S
C1830 C1831 1.322 . S
C1830 H1894 0.930 . S
C1831 C1830 1.322 . S
C1831 C1832 1.459 . S
C1831 H1895 0.929 . S
C1832 C1831 1.459 . S
C1832 C1833 1.445 . S
C1832 C1841 1.395 . S
C1833 C1811 1.432 . S
C1833 C1832 1.445 . S
C1833 C1834 1.370 . S
C1834 C1833 1.370 . S
C1834 C1835 1.438 . S
C1834 H1896 0.930 . S
C1835 C1821 1.497 . S
C1835 C1834 1.438 . S
C1835 C1836 1.360 . S
C1836 C1835 1.360 . S
C1836 C1837 1.401 . S
C1836 C1841 1.446 . S
C1837 C1836 1.401 . S
C1837 C1838 1.347 . S
C1837 H1897 0.929 . S
C1838 C1837 1.347 . S
C1838 C1839 1.455 . S
C1838 H1898 0.930 . S
C1839 C1826 1.412 . S
C1839 C1838 1.455 . S
C1839 C1840 1.331 . S
C1840 C1829 1.451 . S
C1840 C1839 1.331 . S
C1840 C1841 1.497 . S
C1841 C1832 1.395 . S
C1841 C1836 1.446 . S
C1841 C1840 1.497 . S
C1842 C1843 1.582 . S
C1842 H1899 0.962 . S
C1842 H1900 0.959 . S
C1842 H1901 0.958 . S
C1843 C1842 1.582 . S
C1843 O1846 1.458 . S
C1843 H1872 0.980 . S
O1844 C1789 1.426 . S
O1844 C1790 1.334 . S
O1845 C1817 1.412 . S
O1845 C1818 1.393 . S
O1846 C1808 1.435 . S
O1846 C1843 1.458 . S
O1847 C1799 1.468 . S
O1847 C1800 1.408 . S
H1848 C1789 0.980 . S
H1849 C1788 0.959 . S
H1850 C1788 0.959 . S
H1851 C1788 0.960 . S
H1852 C1791 0.929 . S
H1853 C1795 0.929 . S
H1854 C1796 0.959 . S
H1855 C1796 0.961 . S
H1856 C1796 0.961 . S
H1857 C1797 0.960 . S
H1858 C1797 0.960 . S
H1859 C1797 0.961 . S
H1860 C1799 0.980 . S
H1861 C1798 0.961 . S
H1862 C1798 0.960 . S
H1863 C1798 0.959 . S
H1864 C1801 0.930 . S
H1865 C1805 0.931 . S
H1866 C1806 0.959 . S
H1867 C1806 0.961 . S
H1868 C1806 0.959 . S
H1869 C1807 0.960 . S
H1870 C1807 0.960 . S
H1871 C1807 0.960 . S
H1872 C1843 0.980 . S
H1873 C1809 0.930 . S
H1874 C1813 0.930 . S
H1875 C1814 0.961 . S
H1876 C1814 0.960 . S
H1877 C1814 0.958 . S
H1878 C1815 0.961 . S
H1879 C1815 0.960 . S
H1880 C1815 0.960 . S
H1881 C1817 0.980 . S
H1882 C1816 0.961 . S
H1883 C1816 0.961 . S
H1884 C1816 0.959 . S
H1885 C1819 0.932 . S
H1886 C1823 0.929 . S
H1887 C1824 0.961 . S
H1888 C1824 0.959 . S
H1889 C1824 0.959 . S
H1890 C1825 0.960 . S
H1891 C1825 0.962 . S
H1892 C1825 0.961 . S
H1893 C1827 0.929 . S
H1894 C1830 0.930 . S
H1895 C1831 0.929 . S
H1896 C1834 0.930 . S
H1897 C1837 0.929 . S
H1898 C1838 0.930 . S
H1899 C1842 0.962 . S
H1900 C1842 0.959 . S
H1901 C1842 0.958 . S
C1902 C1903 1.560 . S
C1902 H1963 0.959 . S
C1902 H1964 0.959 . S
C1902 H1965 0.960 . S
C1903 C1902 1.560 . S
C1903 O1958 1.426 . S
C1903 H1962 0.980 . S
C1904 C1905 1.407 1_565 S
C1904 C1909 1.418 . S
C1904 O1958 1.334 . S
C1905 C1904 1.407 1_545 S
C1905 C1906 1.360 . S
C1905 H1966 0.929 . S
C1906 C1905 1.360 . S
C1906 C1907 1.401 1_545 S
C1906 C1910 1.527 . S
C1907 C1906 1.401 1_565 S
C1907 C1908 1.405 . S
C1907 C1940 1.587 1_565 S
C1908 C1907 1.405 . S
C1908 C1909 1.332 . S
C1908 C1911 1.496 . S
C1909 C1904 1.418 . S
C1909 C1908 1.332 . S
C1909 H1967 0.929 . S
C1910 C1906 1.527 . S
C1910 H1968 0.959 . S
C1910 H1969 0.961 . S
C1910 H1970 0.961 . S
C1911 C1908 1.496 . S
C1911 H1971 0.960 . S
C1911 H1972 0.960 . S
C1911 H1973 0.961 . S
C1912 C1913 1.517 . S
C1912 H1975 0.909 1_545 S
C1912 H1976 0.960 . S
C1912 H1977 0.959 . S
C1913 C1912 1.517 . S
C1913 O1961 1.468 . S
C1913 H1974 0.980 1_545 S
C1914 C1915 1.349 . S
C1914 C1919 1.367 . S
C1914 O1961 1.408 . S
C1915 C1914 1.349 . S
C1915 C1916 1.407 1_545 S
C1915 H1978 0.930 1_545 S
C1916 C1915 1.407 1_565 S
C1916 C1917 1.449 1_565 S
C1916 C1920 1.535 . S
C1917 C1916 1.449 1_545 S
C1917 C1918 1.384 . S
C1917 C1942 1.553 . S
C1918 C1917 1.384 . S
C1918 C1919 1.364 . S
C1918 C1921 1.450 . S
C1919 C1914 1.367 . S
C1919 C1918 1.364 . S
C1919 H1979 0.931 . S
C1920 C1916 1.535 . S
C1920 H1980 0.959 . S
C1920 H1981 0.961 . S
C1920 H1982 0.959 . S
C1921 C1918 1.450 . S
C1921 H1983 0.960 . S
C1921 H1984 0.960 . S
C1921 H1985 0.960 . S
C1922 C1923 1.309 . S
C1922 C1927 1.304 . S
C1922 O1960 1.435 . S
C1923 C1922 1.309 . S
C1923 C1924 1.485 1_545 S
C1923 H1987 0.930 1_545 S
C1924 C1923 1.485 1_565 S
C1924 C1925 1.367 1_565 S
C1924 C1928 1.590 . S
C1925 C1924 1.367 1_545 S
C1925 C1926 1.373 . S
C1925 C1947 1.432 . S
C1926 C1925 1.373 . S
C1926 C1927 1.339 . S
C1926 C1929 1.530 . S
C1927 C1922 1.304 . S
C1927 C1926 1.339 . S
C1927 H1988 0.930 . S
C1928 C1924 1.590 . S
C1928 H1989 0.961 . S
C1928 H1990 0.960 . S
C1928 H1991 0.958 . S
C1929 C1926 1.530 . S
C1929 H1992 0.961 . S
C1929 H1993 0.960 . S
C1929 H1994 0.960 . S
C1930 C1931 1.530 1_565 S
C1930 H1996 0.961 . S
C1930 H1997 0.961 . S
C1930 H1998 0.959 . S
C1931 C1930 1.530 1_545 S
C1931 O1959 1.412 1_545 S
C1931 H1995 0.980 . S
C1932 C1933 1.288 . S
C1932 C1937 1.377 1_565 S
C1932 O1959 1.393 . S
C1933 C1932 1.288 . S
C1933 C1934 1.369 . S
C1933 H1999 0.932 . S
C1934 C1933 1.369 . S
C1934 C1935 1.398 1_565 S
C1934 C1938 1.527 . S
C1935 C1934 1.398 1_545 S
C1935 C1936 1.380 . S
C1935 C1949 1.497 . S
C1936 C1935 1.380 . S
C1936 C1937 1.383 . S
C1936 C1939 1.603 . S
C1937 C1932 1.377 1_545 S
C1937 C1936 1.383 . S
C1937 H2000 0.929 . S
C1938 C1934 1.527 . S
C1938 H2001 0.961 . S
C1938 H2002 0.959 . S
C1938 H2003 0.959 . S
C1939 C1936 1.603 . S
C1939 H2004 0.960 . S
C1939 H2005 0.962 . S
C1939 H2006 0.961 . S
C1940 C1907 1.587 1_545 S
C1940 C1941 1.360 . S
C1940 C1953 1.412 . S
C1941 C1940 1.360 . S
C1941 C1942 1.365 . S
C1941 H2007 0.929 . S
C1942 C1917 1.553 . S
C1942 C1941 1.365 . S
C1942 C1943 1.404 . S
C1943 C1942 1.404 . S
C1943 C1944 1.395 . S
C1943 C1954 1.451 . S
C1944 C1943 1.395 . S
C1944 C1945 1.322 . S
C1944 H2008 0.930 . S
C1945 C1944 1.322 . S
C1945 C1946 1.459 . S
C1945 H2009 0.929 . S
C1946 C1945 1.459 . S
C1946 C1947 1.445 . S
C1946 C1955 1.395 . S
C1947 C1925 1.432 . S
C1947 C1946 1.445 . S
C1947 C1948 1.370 . S
C1948 C1947 1.370 . S
C1948 C1949 1.438 . S
C1948 H2010 0.930 . S
C1949 C1935 1.497 . S
C1949 C1948 1.438 . S
C1949 C1950 1.360 . S
C1950 C1949 1.360 . S
C1950 C1951 1.401 . S
C1950 C1955 1.446 . S
C1951 C1950 1.401 . S
C1951 C1952 1.347 . S
C1951 H2011 0.929 . S
C1952 C1951 1.347 . S
C1952 C1953 1.455 . S
C1952 H2012 0.930 . S
C1953 C1940 1.412 . S
C1953 C1952 1.455 . S
C1953 C1954 1.331 . S
C1954 C1943 1.451 . S
C1954 C1953 1.331 . S
C1954 C1955 1.497 . S
C1955 C1946 1.395 . S
C1955 C1950 1.446 . S
C1955 C1954 1.497 . S
C1956 C1957 1.582 . S
C1956 H2013 0.962 . S
C1956 H2014 0.959 . S
C1956 H2015 0.958 . S
C1957 C1956 1.582 . S
C1957 O1960 1.458 . S
C1957 H1986 0.980 . S
O1958 C1903 1.426 . S
O1958 C1904 1.334 . S
O1959 C1931 1.412 1_565 S
O1959 C1932 1.393 . S
O1960 C1922 1.435 . S
O1960 C1957 1.458 . S
O1961 C1913 1.468 . S
O1961 C1914 1.408 . S
H1962 C1903 0.980 . S
H1963 C1902 0.959 . S
H1964 C1902 0.959 . S
H1965 C1902 0.960 . S
H1966 C1905 0.929 . S
H1967 C1909 0.929 . S
H1968 C1910 0.959 . S
H1969 C1910 0.961 . S
H1970 C1910 0.961 . S
H1971 C1911 0.960 . S
H1972 C1911 0.960 . S
H1973 C1911 0.961 . S
H1974 C1913 0.980 1_565 S
H1975 C1912 0.909 1_565 S
H1976 C1912 0.960 . S
H1977 C1912 0.959 . S
H1978 C1915 0.930 1_565 S
H1979 C1919 0.931 . S
H1980 C1920 0.959 . S
H1981 C1920 0.961 . S
H1982 C1920 0.959 . S
H1983 C1921 0.960 . S
H1984 C1921 0.960 . S
H1985 C1921 0.960 . S
H1986 C1957 0.980 . S
H1987 C1923 0.930 1_565 S
H1988 C1927 0.930 . S
H1989 C1928 0.961 . S
H1990 C1928 0.960 . S
H1991 C1928 0.958 . S
H1992 C1929 0.961 . S
H1993 C1929 0.960 . S
H1994 C1929 0.960 . S
H1995 C1931 0.980 . S
H1996 C1930 0.961 . S
H1997 C1930 0.961 . S
H1998 C1930 0.959 . S
H1999 C1933 0.932 . S
H2000 C1937 0.929 . S
H2001 C1938 0.961 . S
H2002 C1938 0.959 . S
H2003 C1938 0.959 . S
H2004 C1939 0.960 . S
H2005 C1939 0.962 . S
H2006 C1939 0.961 . S
H2007 C1941 0.929 . S
H2008 C1944 0.930 . S
H2009 C1945 0.929 . S
H2010 C1948 0.930 . S
H2011 C1951 0.929 . S
H2012 C1952 0.930 . S
H2013 C1956 0.962 . S
H2014 C1956 0.959 . S
H2015 C1956 0.958 . S
C2016 C2017 1.560 . S
C2016 H2077 0.959 . S
C2016 H2078 0.959 . S
C2016 H2079 0.960 . S
C2017 C2016 1.560 . S
C2017 O2072 1.426 . S
C2017 H2076 0.980 1_565 S
C2018 C2019 1.407 1_565 S
C2018 C2023 1.418 . S
C2018 O2072 1.334 . S
C2019 C2018 1.407 1_545 S
C2019 C2020 1.360 . S
C2019 H2080 0.929 . S
C2020 C2019 1.360 . S
C2020 C2021 1.401 . S
C2020 C2024 1.527 . S
C2021 C2020 1.401 . S
C2021 C2022 1.405 1_545 S
C2021 C2054 1.587 . S
C2022 C2021 1.405 1_565 S
C2022 C2023 1.332 . S
C2022 C2025 1.496 . S
C2023 C2018 1.418 . S
C2023 C2022 1.332 . S
C2023 H2081 0.929 . S
C2024 C2020 1.527 . S
C2024 H2082 0.959 . S
C2024 H2083 0.961 . S
C2024 H2084 0.961 . S
C2025 C2022 1.496 . S
C2025 H2085 0.960 . S
C2025 H2086 0.960 . S
C2025 H2087 0.961 . S
C2026 C2027 1.517 . S
C2026 H2089 0.961 . S
C2026 H2090 0.960 . S
C2026 H2091 0.959 . S
C2027 C2026 1.517 . S
C2027 O2075 1.468 . S
C2027 H2088 0.980 . S
C2028 C2029 1.349 . S
C2028 C2033 1.367 . S
C2028 O2075 1.408 . S
C2029 C2028 1.349 . S
C2029 C2030 1.407 . S
C2029 H2092 0.920 1_545 S
C2030 C2029 1.407 . S
C2030 C2031 1.449 . S
C2030 C2034 1.535 1_545 S
C2031 C2030 1.449 . S
C2031 C2032 1.384 . S
C2031 C2056 1.553 . S
C2032 C2031 1.384 . S
C2032 C2033 1.364 . S
C2032 C2035 1.450 . S
C2033 C2028 1.367 . S
C2033 C2032 1.364 . S
C2033 H2093 0.931 . S
C2034 C2030 1.535 1_565 S
C2034 H2094 0.959 . S
C2034 H2095 0.961 . S
C2034 H2096 0.959 . S
C2035 C2032 1.450 . S
C2035 H2097 0.960 . S
C2035 H2098 0.960 . S
C2035 H2099 0.960 . S
C2036 C2037 1.309 1_545 S
C2036 C2041 1.304 . S
C2036 O2074 1.435 . S
C2037 C2036 1.309 1_565 S
C2037 C2038 1.476 . S
C2037 H2101 0.930 . S
C2038 C2037 1.476 . S
C2038 C2039 1.400 1_565 S
C2038 C2042 1.567 . S
C2039 C2038 1.400 1_545 S
C2039 C2040 1.373 . S
C2039 C2061 1.432 . S
C2040 C2039 1.373 . S
C2040 C2041 1.339 . S
C2040 C2043 1.530 . S
C2041 C2036 1.304 . S
C2041 C2040 1.339 . S
C2041 H2102 0.930 . S
C2042 C2038 1.567 . S
C2042 H2103 0.961 . S
C2042 H2104 0.960 . S
C2042 H2105 0.958 . S
C2043 C2040 1.530 . S
C2043 H2106 0.961 . S
C2043 H2107 0.960 . S
C2043 H2108 0.960 . S
C2044 C2045 1.530 . S
C2044 H2110 0.961 . S
C2044 H2111 0.961 . S
C2044 H2112 0.959 . S
C2045 C2044 1.530 . S
C2045 O2073 1.412 . S
C2045 H2109 0.984 . S
C2046 C2047 1.288 . S
C2046 C2051 1.377 1_565 S
C2046 O2073 1.393 . S
C2047 C2046 1.288 . S
C2047 C2048 1.369 . S
C2047 H2113 0.932 . S
C2048 C2047 1.369 . S
C2048 C2049 1.398 . S
C2048 C2052 1.527 . S
C2049 C2048 1.398 . S
C2049 C2050 1.380 1_565 S
C2049 C2063 1.497 1_565 S
C2050 C2049 1.380 1_545 S
C2050 C2051 1.383 . S
C2050 C2053 1.603 . S
C2051 C2046 1.377 1_545 S
C2051 C2050 1.383 . S
C2051 H2114 0.929 . S
C2052 C2048 1.527 . S
C2052 H2115 0.961 . S
C2052 H2116 0.959 . S
C2052 H2117 0.959 . S
C2053 C2050 1.603 . S
C2053 H2118 0.960 . S
C2053 H2119 0.962 . S
C2053 H2120 0.961 . S
C2054 C2021 1.587 . S
C2054 C2055 1.360 . S
C2054 C2067 1.412 . S
C2055 C2054 1.360 . S
C2055 C2056 1.365 . S
C2055 H2121 0.929 . S
C2056 C2031 1.553 . S
C2056 C2055 1.365 . S
C2056 C2057 1.404 . S
C2057 C2056 1.404 . S
C2057 C2058 1.395 . S
C2057 C2068 1.451 . S
C2058 C2057 1.395 . S
C2058 C2059 1.322 . S
C2058 H2122 0.930 . S
C2059 C2058 1.322 . S
C2059 C2060 1.459 . S
C2059 H2123 0.929 . S
C2060 C2059 1.459 . S
C2060 C2061 1.445 . S
C2060 C2069 1.395 . S
C2061 C2039 1.432 . S
C2061 C2060 1.445 . S
C2061 C2062 1.370 . S
C2062 C2061 1.370 . S
C2062 C2063 1.438 . S
C2062 H2124 0.930 . S
C2063 C2049 1.497 1_545 S
C2063 C2062 1.438 . S
C2063 C2064 1.360 . S
C2064 C2063 1.360 . S
C2064 C2065 1.401 . S
C2064 C2069 1.446 . S
C2065 C2064 1.401 . S
C2065 C2066 1.347 . S
C2065 H2125 0.977 . S
C2066 C2065 1.347 . S
C2066 C2067 1.455 . S
C2066 H2126 0.930 . S
C2067 C2054 1.412 . S
C2067 C2066 1.455 . S
C2067 C2068 1.331 . S
C2068 C2057 1.451 . S
C2068 C2067 1.331 . S
C2068 C2069 1.497 . S
C2069 C2060 1.395 . S
C2069 C2064 1.446 . S
C2069 C2068 1.497 . S
C2070 C2071 1.600 . S
C2070 H2127 0.962 . S
C2070 H2128 0.959 . S
C2070 H2129 0.958 . S
C2071 C2070 1.600 . S
C2071 O2074 1.466 . S
C2071 H2100 0.980 1_545 S
O2072 C2017 1.426 . S
O2072 C2018 1.334 . S
O2073 C2045 1.412 . S
O2073 C2046 1.393 . S
O2074 C2036 1.435 . S
O2074 C2071 1.466 . S
O2075 C2027 1.468 . S
O2075 C2028 1.408 . S
H2076 C2017 0.980 1_545 S
H2077 C2016 0.959 . S
H2078 C2016 0.959 . S
H2079 C2016 0.960 . S
H2080 C2019 0.929 . S
H2081 C2023 0.929 . S
H2082 C2024 0.959 . S
H2083 C2024 0.961 . S
H2084 C2024 0.961 . S
H2085 C2025 0.960 . S
H2086 C2025 0.960 . S
H2087 C2025 0.961 . S
H2088 C2027 0.980 . S
H2089 C2026 0.961 . S
H2090 C2026 0.960 . S
H2091 C2026 0.959 . S
H2092 C2029 0.920 1_565 S
H2093 C2033 0.931 . S
H2094 C2034 0.959 . S
H2095 C2034 0.961 . S
H2096 C2034 0.959 . S
H2097 C2035 0.960 . S
H2098 C2035 0.960 . S
H2099 C2035 0.960 . S
H2100 C2071 0.980 1_565 S
H2101 C2037 0.930 . S
H2102 C2041 0.930 . S
H2103 C2042 0.961 . S
H2104 C2042 0.960 . S
H2105 C2042 0.958 . S
H2106 C2043 0.961 . S
H2107 C2043 0.960 . S
H2108 C2043 0.960 . S
H2109 C2045 0.984 . S
H2110 C2044 0.961 . S
H2111 C2044 0.961 . S
H2112 C2044 0.959 . S
H2113 C2047 0.932 . S
H2114 C2051 0.929 . S
H2115 C2052 0.961 . S
H2116 C2052 0.959 . S
H2117 C2052 0.959 . S
H2118 C2053 0.960 . S
H2119 C2053 0.962 . S
H2120 C2053 0.961 . S
H2121 C2055 0.929 . S
H2122 C2058 0.930 . S
H2123 C2059 0.929 . S
H2124 C2062 0.930 . S
H2125 C2065 0.977 . S
H2126 C2066 0.930 . S
H2127 C2070 0.962 . S
H2128 C2070 0.959 . S
H2129 C2070 0.958 . S
C2130 C2131 1.560 . S
C2130 H2191 0.959 . S
C2130 H2192 0.959 . S
C2130 H2193 0.960 . S
C2131 C2130 1.560 . S
C2131 O2186 1.426 . S
C2131 H2190 0.980 1_455 S
C2132 C2133 1.407 1_455 S
C2132 C2137 1.418 . S
C2132 O2186 1.334 . S
C2133 C2132 1.407 1_655 S
C2133 C2134 1.360 . S
C2133 H2194 0.929 . S
C2134 C2133 1.360 . S
C2134 C2135 1.401 . S
C2134 C2138 1.527 . S
C2135 C2134 1.401 . S
C2135 C2136 1.405 1_655 S
C2135 C2168 1.587 . S
C2136 C2135 1.405 1_455 S
C2136 C2137 1.332 . S
C2136 C2139 1.496 . S
C2137 C2132 1.418 . S
C2137 C2136 1.332 . S
C2137 H2195 0.929 . S
C2138 C2134 1.527 . S
C2138 H2196 0.959 . S
C2138 H2197 0.961 . S
C2138 H2198 0.961 . S
C2139 C2136 1.496 . S
C2139 H2199 0.960 . S
C2139 H2200 0.960 . S
C2139 H2201 0.961 . S
C2140 C2141 1.517 . S
C2140 H2203 0.961 . S
C2140 H2204 0.960 . S
C2140 H2205 0.959 . S
C2141 C2140 1.517 . S
C2141 O2189 1.468 . S
C2141 H2202 0.980 . S
C2142 C2143 1.349 . S
C2142 C2147 1.367 . S
C2142 O2189 1.408 . S
C2143 C2142 1.349 . S
C2143 C2144 1.407 . S
C2143 H2206 0.973 . S
C2144 C2143 1.407 . S
C2144 C2145 1.449 . S
C2144 C2148 1.535 1_655 S
C2145 C2144 1.449 . S
C2145 C2146 1.384 . S
C2145 C2170 1.553 . S
C2146 C2145 1.384 . S
C2146 C2147 1.364 . S
C2146 C2149 1.450 . S
C2147 C2142 1.367 . S
C2147 C2146 1.364 . S
C2147 H2207 0.931 . S
C2148 C2144 1.535 1_455 S
C2148 H2208 0.959 . S
C2148 H2209 0.961 . S
C2148 H2210 0.959 . S
C2149 C2146 1.450 . S
C2149 H2211 0.960 . S
C2149 H2212 0.960 . S
C2149 H2213 0.960 . S
C2150 C2151 1.309 1_655 S
C2150 C2155 1.304 . S
C2150 O2188 1.435 . S
C2151 C2150 1.309 1_455 S
C2151 C2152 1.476 . S
C2151 H2215 0.930 . S
C2152 C2151 1.476 . S
C2152 C2153 1.400 1_455 S
C2152 C2156 1.567 . S
C2153 C2152 1.400 1_655 S
C2153 C2154 1.373 . S
C2153 C2175 1.432 . S
C2154 C2153 1.373 . S
C2154 C2155 1.339 . S
C2154 C2157 1.530 . S
C2155 C2150 1.304 . S
C2155 C2154 1.339 . S
C2155 H2216 0.930 . S
C2156 C2152 1.567 . S
C2156 H2217 0.961 . S
C2156 H2218 0.960 . S
C2156 H2219 0.958 . S
C2157 C2154 1.530 . S
C2157 H2220 0.961 . S
C2157 H2221 0.960 . S
C2157 H2222 0.960 . S
C2158 C2159 1.530 . S
C2158 H2224 0.961 . S
C2158 H2225 0.961 . S
C2158 H2226 0.959 . S
C2159 C2158 1.530 . S
C2159 O2187 1.412 . S
C2159 H2223 0.980 . S
C2160 C2161 1.288 . S
C2160 C2165 1.377 1_455 S
C2160 O2187 1.393 . S
C2161 C2160 1.288 . S
C2161 C2162 1.369 . S
C2161 H2227 0.932 . S
C2162 C2161 1.369 . S
C2162 C2163 1.398 . S
C2162 C2166 1.527 . S
C2163 C2162 1.398 . S
C2163 C2164 1.380 1_455 S
C2163 C2177 1.497 1_455 S
C2164 C2163 1.380 1_655 S
C2164 C2165 1.383 . S
C2164 C2167 1.603 . S
C2165 C2160 1.377 1_655 S
C2165 C2164 1.383 . S
C2165 H2228 0.929 . S
C2166 C2162 1.527 . S
C2166 H2229 0.961 . S
C2166 H2230 0.959 . S
C2166 H2231 0.959 . S
C2167 C2164 1.603 . S
C2167 H2232 0.960 . S
C2167 H2233 0.962 . S
C2167 H2234 0.961 . S
C2168 C2135 1.587 . S
C2168 C2169 1.360 . S
C2168 C2181 1.412 . S
C2169 C2168 1.360 . S
C2169 C2170 1.365 . S
C2169 H2235 0.929 . S
C2170 C2145 1.553 . S
C2170 C2169 1.365 . S
C2170 C2171 1.404 . S
C2171 C2170 1.404 . S
C2171 C2172 1.395 . S
C2171 C2182 1.451 . S
C2172 C2171 1.395 . S
C2172 C2173 1.322 . S
C2172 H2236 0.930 . S
C2173 C2172 1.322 . S
C2173 C2174 1.459 . S
C2173 H2237 0.929 . S
C2174 C2173 1.459 . S
C2174 C2175 1.445 . S
C2174 C2183 1.395 . S
C2175 C2153 1.432 . S
C2175 C2174 1.445 . S
C2175 C2176 1.370 . S
C2176 C2175 1.370 . S
C2176 C2177 1.438 . S
C2176 H2238 0.930 . S
C2177 C2163 1.497 1_655 S
C2177 C2176 1.438 . S
C2177 C2178 1.360 . S
C2178 C2177 1.360 . S
C2178 C2179 1.401 . S
C2178 C2183 1.446 . S
C2179 C2178 1.401 . S
C2179 C2180 1.347 . S
C2179 H2239 0.916 . S
C2180 C2179 1.347 . S
C2180 C2181 1.455 . S
C2180 H2240 0.930 . S
C2181 C2168 1.412 . S
C2181 C2180 1.455 . S
C2181 C2182 1.331 . S
C2182 C2171 1.451 . S
C2182 C2181 1.331 . S
C2182 C2183 1.497 . S
C2183 C2174 1.395 . S
C2183 C2178 1.446 . S
C2183 C2182 1.497 . S
C2184 C2185 1.580 1_655 S
C2184 H2241 0.969 . S
C2184 H2242 0.959 . S
C2184 H2243 0.958 . S
C2185 C2184 1.580 1_455 S
C2185 O2188 1.411 1_455 S
C2185 H2214 1.000 . S
O2186 C2131 1.426 . S
O2186 C2132 1.334 . S
O2187 C2159 1.412 . S
O2187 C2160 1.393 . S
O2188 C2150 1.435 . S
O2188 C2185 1.411 1_655 S
O2189 C2141 1.468 . S
O2189 C2142 1.408 . S
H2190 C2131 0.980 1_655 S
H2191 C2130 0.959 . S
H2192 C2130 0.959 . S
H2193 C2130 0.960 . S
H2194 C2133 0.929 . S
H2195 C2137 0.929 . S
H2196 C2138 0.959 . S
H2197 C2138 0.961 . S
H2198 C2138 0.961 . S
H2199 C2139 0.960 . S
H2200 C2139 0.960 . S
H2201 C2139 0.961 . S
H2202 C2141 0.980 . S
H2203 C2140 0.961 . S
H2204 C2140 0.960 . S
H2205 C2140 0.959 . S
H2206 C2143 0.973 . S
H2207 C2147 0.931 . S
H2208 C2148 0.959 . S
H2209 C2148 0.961 . S
H2210 C2148 0.959 . S
H2211 C2149 0.960 . S
H2212 C2149 0.960 . S
H2213 C2149 0.960 . S
H2214 C2185 1.000 . S
H2215 C2151 0.930 . S
H2216 C2155 0.930 . S
H2217 C2156 0.961 . S
H2218 C2156 0.960 . S
H2219 C2156 0.958 . S
H2220 C2157 0.961 . S
H2221 C2157 0.960 . S
H2222 C2157 0.960 . S
H2223 C2159 0.980 . S
H2224 C2158 0.961 . S
H2225 C2158 0.961 . S
H2226 C2158 0.959 . S
H2227 C2161 0.932 . S
H2228 C2165 0.929 . S
H2229 C2166 0.961 . S
H2230 C2166 0.959 . S
H2231 C2166 0.959 . S
H2232 C2167 0.960 . S
H2233 C2167 0.962 . S
H2234 C2167 0.961 . S
H2235 C2169 0.929 . S
H2236 C2172 0.930 . S
H2237 C2173 0.929 . S
H2238 C2176 0.930 . S
H2239 C2179 0.916 . S
H2240 C2180 0.930 . S
H2241 C2184 0.969 . S
H2242 C2184 0.959 . S
H2243 C2184 0.958 . S
C2244 C2245 1.560 . S
C2244 H2305 0.959 . S
C2244 H2306 0.959 . S
C2244 H2307 0.960 . S
C2245 C2244 1.560 . S
C2245 O2300 1.426 . S
C2245 H2304 0.980 . S
C2246 C2247 1.407 . S
C2246 C2251 1.418 . S
C2246 O2300 1.334 . S
C2247 C2246 1.407 . S
C2247 C2248 1.360 . S
C2247 H2308 0.929 . S
C2248 C2247 1.360 . S
C2248 C2249 1.401 . S
C2248 C2252 1.527 . S
C2249 C2248 1.401 . S
C2249 C2250 1.405 . S
C2249 C2282 1.587 . S
C2250 C2249 1.405 . S
C2250 C2251 1.332 . S
C2250 C2253 1.496 . S
C2251 C2246 1.418 . S
C2251 C2250 1.332 . S
C2251 H2309 0.929 . S
C2252 C2248 1.527 . S
C2252 H2310 0.959 . S
C2252 H2311 0.961 . S
C2252 H2312 0.961 . S
C2253 C2250 1.496 . S
C2253 H2313 0.960 . S
C2253 H2314 0.960 . S
C2253 H2315 0.961 . S
C2254 C2255 1.517 . S
C2254 H2317 0.961 . S
C2254 H2318 0.960 . S
C2254 H2319 0.959 . S
C2255 C2254 1.517 . S
C2255 O2303 1.468 . S
C2255 H2316 0.980 . S
C2256 C2257 1.349 . S
C2256 C2261 1.367 . S
C2256 O2303 1.408 . S
C2257 C2256 1.349 . S
C2257 C2258 1.407 . S
C2257 H2320 0.930 . S
C2258 C2257 1.407 . S
C2258 C2259 1.449 . S
C2258 C2262 1.535 . S
C2259 C2258 1.449 . S
C2259 C2260 1.384 . S
C2259 C2284 1.553 . S
C2260 C2259 1.384 . S
C2260 C2261 1.364 . S
C2260 C2263 1.450 . S
C2261 C2256 1.367 . S
C2261 C2260 1.364 . S
C2261 H2321 0.931 . S
C2262 C2258 1.535 . S
C2262 H2322 0.959 . S
C2262 H2323 0.961 . S
C2262 H2324 0.959 . S
C2263 C2260 1.450 . S
C2263 H2325 0.960 . S
C2263 H2326 0.960 . S
C2263 H2327 0.960 . S
C2264 C2265 1.309 . S
C2264 C2269 1.304 . S
C2264 O2302 1.435 . S
C2265 C2264 1.309 . S
C2265 C2266 1.476 . S
C2265 H2329 0.930 . S
C2266 C2265 1.476 . S
C2266 C2267 1.400 . S
C2266 C2270 1.567 . S
C2267 C2266 1.400 . S
C2267 C2268 1.373 . S
C2267 C2289 1.432 . S
C2268 C2267 1.373 . S
C2268 C2269 1.339 . S
C2268 C2271 1.530 . S
C2269 C2264 1.304 . S
C2269 C2268 1.339 . S
C2269 H2330 0.930 . S
C2270 C2266 1.567 . S
C2270 H2331 0.961 . S
C2270 H2332 0.960 . S
C2270 H2333 0.958 . S
C2271 C2268 1.530 . S
C2271 H2334 0.961 . S
C2271 H2335 0.960 . S
C2271 H2336 0.960 . S
C2272 C2273 1.530 . S
C2272 H2338 0.961 . S
C2272 H2339 0.961 . S
C2272 H2340 0.959 . S
C2273 C2272 1.530 . S
C2273 O2301 1.412 . S
C2273 H2337 0.980 . S
C2274 C2275 1.288 . S
C2274 C2279 1.377 . S
C2274 O2301 1.393 . S
C2275 C2274 1.288 . S
C2275 C2276 1.369 . S
C2275 H2341 0.932 . S
C2276 C2275 1.369 . S
C2276 C2277 1.398 . S
C2276 C2280 1.527 . S
C2277 C2276 1.398 . S
C2277 C2278 1.380 . S
C2277 C2291 1.497 . S
C2278 C2277 1.380 . S
C2278 C2279 1.383 . S
C2278 C2281 1.603 . S
C2279 C2274 1.377 . S
C2279 C2278 1.383 . S
C2279 H2342 0.929 . S
C2280 C2276 1.527 . S
C2280 H2343 0.961 . S
C2280 H2344 0.959 . S
C2280 H2345 0.959 . S
C2281 C2278 1.603 . S
C2281 H2346 0.960 . S
C2281 H2347 0.962 . S
C2281 H2348 0.961 . S
C2282 C2249 1.587 . S
C2282 C2283 1.360 . S
C2282 C2295 1.412 . S
C2283 C2282 1.360 . S
C2283 C2284 1.365 . S
C2283 H2349 0.929 . S
C2284 C2259 1.553 . S
C2284 C2283 1.365 . S
C2284 C2285 1.404 . S
C2285 C2284 1.404 . S
C2285 C2286 1.395 . S
C2285 C2296 1.451 . S
C2286 C2285 1.395 . S
C2286 C2287 1.322 . S
C2286 H2350 0.930 . S
C2287 C2286 1.322 . S
C2287 C2288 1.459 . S
C2287 H2351 0.929 . S
C2288 C2287 1.459 . S
C2288 C2289 1.445 . S
C2288 C2297 1.395 . S
C2289 C2267 1.432 . S
C2289 C2288 1.445 . S
C2289 C2290 1.370 . S
C2290 C2289 1.370 . S
C2290 C2291 1.438 . S
C2290 H2352 0.930 . S
C2291 C2277 1.497 . S
C2291 C2290 1.438 . S
C2291 C2292 1.360 . S
C2292 C2291 1.360 . S
C2292 C2293 1.401 . S
C2292 C2297 1.446 . S
C2293 C2292 1.401 . S
C2293 C2294 1.347 . S
C2293 H2353 0.929 . S
C2294 C2293 1.347 . S
C2294 C2295 1.455 . S
C2294 H2354 0.930 . S
C2295 C2282 1.412 . S
C2295 C2294 1.455 . S
C2295 C2296 1.331 . S
C2296 C2285 1.451 . S
C2296 C2295 1.331 . S
C2296 C2297 1.497 . S
C2297 C2288 1.395 . S
C2297 C2292 1.446 . S
C2297 C2296 1.497 . S
C2298 C2299 1.582 . S
C2298 H2355 0.962 . S
C2298 H2356 0.959 . S
C2298 H2357 0.958 . S
C2299 C2298 1.582 . S
C2299 O2302 1.458 . S
C2299 H2328 0.980 . S
O2300 C2245 1.426 . S
O2300 C2246 1.334 . S
O2301 C2273 1.412 . S
O2301 C2274 1.393 . S
O2302 C2264 1.435 . S
O2302 C2299 1.458 . S
O2303 C2255 1.468 . S
O2303 C2256 1.408 . S
H2304 C2245 0.980 . S
H2305 C2244 0.959 . S
H2306 C2244 0.959 . S
H2307 C2244 0.960 . S
H2308 C2247 0.929 . S
H2309 C2251 0.929 . S
H2310 C2252 0.959 . S
H2311 C2252 0.961 . S
H2312 C2252 0.961 . S
H2313 C2253 0.960 . S
H2314 C2253 0.960 . S
H2315 C2253 0.961 . S
H2316 C2255 0.980 . S
H2317 C2254 0.961 . S
H2318 C2254 0.960 . S
H2319 C2254 0.959 . S
H2320 C2257 0.930 . S
H2321 C2261 0.931 . S
H2322 C2262 0.959 . S
H2323 C2262 0.961 . S
H2324 C2262 0.959 . S
H2325 C2263 0.960 . S
H2326 C2263 0.960 . S
H2327 C2263 0.960 . S
H2328 C2299 0.980 . S
H2329 C2265 0.930 . S
H2330 C2269 0.930 . S
H2331 C2270 0.961 . S
H2332 C2270 0.960 . S
H2333 C2270 0.958 . S
H2334 C2271 0.961 . S
H2335 C2271 0.960 . S
H2336 C2271 0.960 . S
H2337 C2273 0.980 . S
H2338 C2272 0.961 . S
H2339 C2272 0.961 . S
H2340 C2272 0.959 . S
H2341 C2275 0.932 . S
H2342 C2279 0.929 . S
H2343 C2280 0.961 . S
H2344 C2280 0.959 . S
H2345 C2280 0.959 . S
H2346 C2281 0.960 . S
H2347 C2281 0.962 . S
H2348 C2281 0.961 . S
H2349 C2283 0.929 . S
H2350 C2286 0.930 . S
H2351 C2287 0.929 . S
H2352 C2290 0.930 . S
H2353 C2293 0.929 . S
H2354 C2294 0.930 . S
H2355 C2298 0.962 . S
H2356 C2298 0.959 . S
H2357 C2298 0.958 . S
C2358 C2359 1.560 . S
C2358 H2419 0.959 . S
C2358 H2420 0.959 . S
C2358 H2421 0.960 . S
C2359 C2358 1.560 . S
C2359 O2414 1.426 . S
C2359 H2418 0.980 . S
C2360 C2361 1.407 . S
C2360 C2365 1.418 . S
C2360 O2414 1.334 . S
C2361 C2360 1.407 . S
C2361 C2362 1.360 . S
C2361 H2422 0.929 . S
C2362 C2361 1.360 . S
C2362 C2363 1.401 . S
C2362 C2366 1.527 . S
C2363 C2362 1.401 . S
C2363 C2364 1.405 . S
C2363 C2396 1.587 . S
C2364 C2363 1.405 . S
C2364 C2365 1.332 . S
C2364 C2367 1.496 . S
C2365 C2360 1.418 . S
C2365 C2364 1.332 . S
C2365 H2423 0.929 . S
C2366 C2362 1.527 . S
C2366 H2424 0.959 . S
C2366 H2425 0.961 . S
C2366 H2426 0.961 . S
C2367 C2364 1.496 . S
C2367 H2427 0.960 . S
C2367 H2428 0.960 . S
C2367 H2429 0.961 . S
C2368 C2369 1.517 . S
C2368 H2431 0.961 . S
C2368 H2432 0.960 . S
C2368 H2433 0.959 . S
C2369 C2368 1.517 . S
C2369 O2417 1.468 . S
C2369 H2430 0.980 . S
C2370 C2371 1.349 . S
C2370 C2375 1.367 . S
C2370 O2417 1.408 . S
C2371 C2370 1.349 . S
C2371 C2372 1.407 . S
C2371 H2434 0.930 . S
C2372 C2371 1.407 . S
C2372 C2373 1.449 . S
C2372 C2376 1.535 . S
C2373 C2372 1.449 . S
C2373 C2374 1.384 . S
C2373 C2398 1.553 . S
C2374 C2373 1.384 . S
C2374 C2375 1.364 . S
C2374 C2377 1.450 . S
C2375 C2370 1.367 . S
C2375 C2374 1.364 . S
C2375 H2435 0.931 . S
C2376 C2372 1.535 . S
C2376 H2436 0.959 . S
C2376 H2437 0.961 . S
C2376 H2438 0.959 . S
C2377 C2374 1.450 . S
C2377 H2439 0.960 . S
C2377 H2440 0.960 . S
C2377 H2441 0.960 . S
C2378 C2379 1.309 . S
C2378 C2383 1.304 . S
C2378 O2416 1.435 . S
C2379 C2378 1.309 . S
C2379 C2380 1.476 . S
C2379 H2443 0.930 . S
C2380 C2379 1.476 . S
C2380 C2381 1.400 . S
C2380 C2384 1.567 . S
C2381 C2380 1.400 . S
C2381 C2382 1.373 . S
C2381 C2403 1.432 . S
C2382 C2381 1.373 . S
C2382 C2383 1.339 . S
C2382 C2385 1.530 . S
C2383 C2378 1.304 . S
C2383 C2382 1.339 . S
C2383 H2444 0.930 . S
C2384 C2380 1.567 . S
C2384 H2445 0.961 . S
C2384 H2446 0.960 . S
C2384 H2447 0.958 . S
C2385 C2382 1.530 . S
C2385 H2448 0.961 . S
C2385 H2449 0.960 . S
C2385 H2450 0.960 . S
C2386 C2387 1.530 . S
C2386 H2452 0.961 . S
C2386 H2453 0.961 . S
C2386 H2454 0.959 . S
C2387 C2386 1.530 . S
C2387 O2415 1.412 . S
C2387 H2451 0.980 . S
C2388 C2389 1.288 . S
C2388 C2393 1.377 . S
C2388 O2415 1.393 . S
C2389 C2388 1.288 . S
C2389 C2390 1.369 . S
C2389 H2455 0.932 . S
C2390 C2389 1.369 . S
C2390 C2391 1.398 . S
C2390 C2394 1.527 . S
C2391 C2390 1.398 . S
C2391 C2392 1.380 . S
C2391 C2405 1.497 . S
C2392 C2391 1.380 . S
C2392 C2393 1.383 . S
C2392 C2395 1.603 . S
C2393 C2388 1.377 . S
C2393 C2392 1.383 . S
C2393 H2456 0.929 . S
C2394 C2390 1.527 . S
C2394 H2457 0.961 . S
C2394 H2458 0.959 . S
C2394 H2459 0.959 . S
C2395 C2392 1.603 . S
C2395 H2460 0.960 . S
C2395 H2461 0.962 . S
C2395 H2462 0.961 . S
C2396 C2363 1.587 . S
C2396 C2397 1.360 . S
C2396 C2409 1.412 . S
C2397 C2396 1.360 . S
C2397 C2398 1.365 . S
C2397 H2463 0.929 . S
C2398 C2373 1.553 . S
C2398 C2397 1.365 . S
C2398 C2399 1.404 . S
C2399 C2398 1.404 . S
C2399 C2400 1.395 . S
C2399 C2410 1.451 . S
C2400 C2399 1.395 . S
C2400 C2401 1.322 . S
C2400 H2464 0.930 . S
C2401 C2400 1.322 . S
C2401 C2402 1.459 . S
C2401 H2465 0.929 . S
C2402 C2401 1.459 . S
C2402 C2403 1.445 . S
C2402 C2411 1.395 . S
C2403 C2381 1.432 . S
C2403 C2402 1.445 . S
C2403 C2404 1.370 . S
C2404 C2403 1.370 . S
C2404 C2405 1.438 . S
C2404 H2466 0.930 . S
C2405 C2391 1.497 . S
C2405 C2404 1.438 . S
C2405 C2406 1.360 . S
C2406 C2405 1.360 . S
C2406 C2407 1.401 . S
C2406 C2411 1.446 . S
C2407 C2406 1.401 . S
C2407 C2408 1.347 . S
C2407 H2467 0.929 . S
C2408 C2407 1.347 . S
C2408 C2409 1.455 . S
C2408 H2468 0.930 . S
C2409 C2396 1.412 . S
C2409 C2408 1.455 . S
C2409 C2410 1.331 . S
C2410 C2399 1.451 . S
C2410 C2409 1.331 . S
C2410 C2411 1.497 . S
C2411 C2402 1.395 . S
C2411 C2406 1.446 . S
C2411 C2410 1.497 . S
C2412 C2413 1.582 . S
C2412 H2469 0.962 . S
C2412 H2470 0.959 . S
C2412 H2471 0.958 . S
C2413 C2412 1.582 . S
C2413 O2416 1.458 . S
C2413 H2442 0.980 . S
O2414 C2359 1.426 . S
O2414 C2360 1.334 . S
O2415 C2387 1.412 . S
O2415 C2388 1.393 . S
O2416 C2378 1.435 . S
O2416 C2413 1.458 . S
O2417 C2369 1.468 . S
O2417 C2370 1.408 . S
H2418 C2359 0.980 . S
H2419 C2358 0.959 . S
H2420 C2358 0.959 . S
H2421 C2358 0.960 . S
H2422 C2361 0.929 . S
H2423 C2365 0.929 . S
H2424 C2366 0.959 . S
H2425 C2366 0.961 . S
H2426 C2366 0.961 . S
H2427 C2367 0.960 . S
H2428 C2367 0.960 . S
H2429 C2367 0.961 . S
H2430 C2369 0.980 . S
H2431 C2368 0.961 . S
H2432 C2368 0.960 . S
H2433 C2368 0.959 . S
H2434 C2371 0.930 . S
H2435 C2375 0.931 . S
H2436 C2376 0.959 . S
H2437 C2376 0.961 . S
H2438 C2376 0.959 . S
H2439 C2377 0.960 . S
H2440 C2377 0.960 . S
H2441 C2377 0.960 . S
H2442 C2413 0.980 . S
H2443 C2379 0.930 . S
H2444 C2383 0.930 . S
H2445 C2384 0.961 . S
H2446 C2384 0.960 . S
H2447 C2384 0.958 . S
H2448 C2385 0.961 . S
H2449 C2385 0.960 . S
H2450 C2385 0.960 . S
H2451 C2387 0.980 . S
H2452 C2386 0.961 . S
H2453 C2386 0.961 . S
H2454 C2386 0.959 . S
H2455 C2389 0.932 . S
H2456 C2393 0.929 . S
H2457 C2394 0.961 . S
H2458 C2394 0.959 . S
H2459 C2394 0.959 . S
H2460 C2395 0.960 . S
H2461 C2395 0.962 . S
H2462 C2395 0.961 . S
H2463 C2397 0.929 . S
H2464 C2400 0.930 . S
H2465 C2401 0.929 . S
H2466 C2404 0.930 . S
H2467 C2407 0.929 . S
H2468 C2408 0.930 . S
H2469 C2412 0.962 . S
H2470 C2412 0.959 . S
H2471 C2412 0.958 . S
C2472 C2473 1.560 . S
C2472 H2533 0.959 . S
C2472 H2534 0.959 . S
C2472 H2535 0.960 . S
C2473 C2472 1.560 . S
C2473 O2528 1.426 . S
C2473 H2532 0.980 . S
C2474 C2475 1.407 . S
C2474 C2479 1.418 . S
C2474 O2528 1.334 . S
C2475 C2474 1.407 . S
C2475 C2476 1.360 . S
C2475 H2536 0.929 . S
C2476 C2475 1.360 . S
C2476 C2477 1.401 . S
C2476 C2480 1.527 . S
C2477 C2476 1.401 . S
C2477 C2478 1.405 . S
C2477 C2510 1.587 . S
C2478 C2477 1.405 . S
C2478 C2479 1.332 . S
C2478 C2481 1.496 . S
C2479 C2474 1.418 . S
C2479 C2478 1.332 . S
C2479 H2537 0.929 . S
C2480 C2476 1.527 . S
C2480 H2538 0.959 . S
C2480 H2539 0.961 . S
C2480 H2540 0.961 . S
C2481 C2478 1.496 . S
C2481 H2541 0.960 . S
C2481 H2542 0.960 . S
C2481 H2543 0.961 . S
C2482 C2483 1.517 . S
C2482 H2545 0.961 . S
C2482 H2546 0.960 . S
C2482 H2547 0.959 . S
C2483 C2482 1.517 . S
C2483 O2531 1.468 . S
C2483 H2544 0.980 . S
C2484 C2485 1.349 . S
C2484 C2489 1.367 . S
C2484 O2531 1.408 . S
C2485 C2484 1.349 . S
C2485 C2486 1.407 . S
C2485 H2548 0.930 . S
C2486 C2485 1.407 . S
C2486 C2487 1.449 . S
C2486 C2490 1.535 . S
C2487 C2486 1.449 . S
C2487 C2488 1.384 . S
C2487 C2512 1.553 . S
C2488 C2487 1.384 . S
C2488 C2489 1.364 . S
C2488 C2491 1.450 . S
C2489 C2484 1.367 . S
C2489 C2488 1.364 . S
C2489 H2549 0.931 . S
C2490 C2486 1.535 . S
C2490 H2550 0.959 . S
C2490 H2551 0.961 . S
C2490 H2552 0.959 . S
C2491 C2488 1.450 . S
C2491 H2553 0.960 . S
C2491 H2554 0.960 . S
C2491 H2555 0.960 . S
C2492 C2493 1.309 . S
C2492 C2497 1.304 . S
C2492 O2530 1.435 . S
C2493 C2492 1.309 . S
C2493 C2494 1.476 . S
C2493 H2557 0.930 . S
C2494 C2493 1.476 . S
C2494 C2495 1.400 . S
C2494 C2498 1.567 . S
C2495 C2494 1.400 . S
C2495 C2496 1.373 . S
C2495 C2517 1.432 . S
C2496 C2495 1.373 . S
C2496 C2497 1.339 . S
C2496 C2499 1.530 . S
C2497 C2492 1.304 . S
C2497 C2496 1.339 . S
C2497 H2558 0.930 . S
C2498 C2494 1.567 . S
C2498 H2559 0.961 . S
C2498 H2560 0.960 . S
C2498 H2561 0.958 . S
C2499 C2496 1.530 . S
C2499 H2562 0.961 . S
C2499 H2563 0.960 . S
C2499 H2564 0.960 . S
C2500 C2501 1.530 . S
C2500 H2566 0.961 . S
C2500 H2567 0.961 . S
C2500 H2568 0.959 . S
C2501 C2500 1.530 . S
C2501 O2529 1.412 . S
C2501 H2565 0.980 . S
C2502 C2503 1.288 . S
C2502 C2507 1.377 . S
C2502 O2529 1.393 . S
C2503 C2502 1.288 . S
C2503 C2504 1.369 . S
C2503 H2569 0.932 . S
C2504 C2503 1.369 . S
C2504 C2505 1.398 . S
C2504 C2508 1.527 . S
C2505 C2504 1.398 . S
C2505 C2506 1.380 . S
C2505 C2519 1.497 . S
C2506 C2505 1.380 . S
C2506 C2507 1.383 . S
C2506 C2509 1.603 . S
C2507 C2502 1.377 . S
C2507 C2506 1.383 . S
C2507 H2570 0.929 . S
C2508 C2504 1.527 . S
C2508 H2571 0.961 . S
C2508 H2572 0.959 . S
C2508 H2573 0.959 . S
C2509 C2506 1.603 . S
C2509 H2574 0.960 . S
C2509 H2575 0.962 . S
C2509 H2576 0.961 . S
C2510 C2477 1.587 . S
C2510 C2511 1.360 . S
C2510 C2523 1.412 . S
C2511 C2510 1.360 . S
C2511 C2512 1.365 . S
C2511 H2577 0.929 . S
C2512 C2487 1.553 . S
C2512 C2511 1.365 . S
C2512 C2513 1.404 . S
C2513 C2512 1.404 . S
C2513 C2514 1.395 . S
C2513 C2524 1.451 . S
C2514 C2513 1.395 . S
C2514 C2515 1.322 . S
C2514 H2578 0.930 . S
C2515 C2514 1.322 . S
C2515 C2516 1.459 . S
C2515 H2579 0.929 . S
C2516 C2515 1.459 . S
C2516 C2517 1.445 . S
C2516 C2525 1.395 . S
C2517 C2495 1.432 . S
C2517 C2516 1.445 . S
C2517 C2518 1.370 . S
C2518 C2517 1.370 . S
C2518 C2519 1.438 . S
C2518 H2580 0.930 . S
C2519 C2505 1.497 . S
C2519 C2518 1.438 . S
C2519 C2520 1.360 . S
C2520 C2519 1.360 . S
C2520 C2521 1.401 . S
C2520 C2525 1.446 . S
C2521 C2520 1.401 . S
C2521 C2522 1.347 . S
C2521 H2581 0.929 . S
C2522 C2521 1.347 . S
C2522 C2523 1.455 . S
C2522 H2582 0.930 . S
C2523 C2510 1.412 . S
C2523 C2522 1.455 . S
C2523 C2524 1.331 . S
C2524 C2513 1.451 . S
C2524 C2523 1.331 . S
C2524 C2525 1.497 . S
C2525 C2516 1.395 . S
C2525 C2520 1.446 . S
C2525 C2524 1.497 . S
C2526 C2527 1.582 . S
C2526 H2583 0.962 . S
C2526 H2584 0.959 . S
C2526 H2585 0.958 . S
C2527 C2526 1.582 . S
C2527 O2530 1.458 . S
C2527 H2556 0.980 . S
O2528 C2473 1.426 . S
O2528 C2474 1.334 . S
O2529 C2501 1.412 . S
O2529 C2502 1.393 . S
O2530 C2492 1.435 . S
O2530 C2527 1.458 . S
O2531 C2483 1.468 . S
O2531 C2484 1.408 . S
H2532 C2473 0.980 . S
H2533 C2472 0.959 . S
H2534 C2472 0.959 . S
H2535 C2472 0.960 . S
H2536 C2475 0.929 . S
H2537 C2479 0.929 . S
H2538 C2480 0.959 . S
H2539 C2480 0.961 . S
H2540 C2480 0.961 . S
H2541 C2481 0.960 . S
H2542 C2481 0.960 . S
H2543 C2481 0.961 . S
H2544 C2483 0.980 . S
H2545 C2482 0.961 . S
H2546 C2482 0.960 . S
H2547 C2482 0.959 . S
H2548 C2485 0.930 . S
H2549 C2489 0.931 . S
H2550 C2490 0.959 . S
H2551 C2490 0.961 . S
H2552 C2490 0.959 . S
H2553 C2491 0.960 . S
H2554 C2491 0.960 . S
H2555 C2491 0.960 . S
H2556 C2527 0.980 . S
H2557 C2493 0.930 . S
H2558 C2497 0.930 . S
H2559 C2498 0.961 . S
H2560 C2498 0.960 . S
H2561 C2498 0.958 . S
H2562 C2499 0.961 . S
H2563 C2499 0.960 . S
H2564 C2499 0.960 . S
H2565 C2501 0.980 . S
H2566 C2500 0.961 . S
H2567 C2500 0.961 . S
H2568 C2500 0.959 . S
H2569 C2503 0.932 . S
H2570 C2507 0.929 . S
H2571 C2508 0.961 . S
H2572 C2508 0.959 . S
H2573 C2508 0.959 . S
H2574 C2509 0.960 . S
H2575 C2509 0.962 . S
H2576 C2509 0.961 . S
H2577 C2511 0.929 . S
H2578 C2514 0.930 . S
H2579 C2515 0.929 . S
H2580 C2518 0.930 . S
H2581 C2521 0.929 . S
H2582 C2522 0.930 . S
H2583 C2526 0.962 . S
H2584 C2526 0.959 . S
H2585 C2526 0.958 . S
C2586 C2587 1.560 . S
C2586 H2647 0.959 . S
C2586 H2648 0.959 . S
C2586 H2649 0.960 . S
C2587 C2586 1.560 . S
C2587 O2642 1.426 . S
C2587 H2646 0.980 . S
C2588 C2589 1.407 . S
C2588 C2593 1.418 . S
C2588 O2642 1.334 . S
C2589 C2588 1.407 . S
C2589 C2590 1.360 . S
C2589 H2650 0.929 . S
C2590 C2589 1.360 . S
C2590 C2591 1.401 . S
C2590 C2594 1.527 . S
C2591 C2590 1.401 . S
C2591 C2592 1.405 . S
C2591 C2624 1.587 . S
C2592 C2591 1.405 . S
C2592 C2593 1.332 . S
C2592 C2595 1.496 . S
C2593 C2588 1.418 . S
C2593 C2592 1.332 . S
C2593 H2651 0.929 . S
C2594 C2590 1.527 . S
C2594 H2652 0.959 . S
C2594 H2653 0.961 . S
C2594 H2654 0.961 . S
C2595 C2592 1.496 . S
C2595 H2655 0.960 . S
C2595 H2656 0.960 . S
C2595 H2657 0.961 . S
C2596 C2597 1.517 . S
C2596 H2659 0.961 . S
C2596 H2660 0.960 . S
C2596 H2661 0.959 . S
C2597 C2596 1.517 . S
C2597 O2645 1.468 . S
C2597 H2658 0.980 . S
C2598 C2599 1.349 . S
C2598 C2603 1.367 . S
C2598 O2645 1.408 . S
C2599 C2598 1.349 . S
C2599 C2600 1.407 . S
C2599 H2662 0.930 . S
C2600 C2599 1.407 . S
C2600 C2601 1.449 . S
C2600 C2604 1.535 . S
C2601 C2600 1.449 . S
C2601 C2602 1.384 . S
C2601 C2626 1.553 . S
C2602 C2601 1.384 . S
C2602 C2603 1.364 . S
C2602 C2605 1.450 . S
C2603 C2598 1.367 . S
C2603 C2602 1.364 . S
C2603 H2663 0.931 . S
C2604 C2600 1.535 . S
C2604 H2664 0.959 . S
C2604 H2665 0.961 . S
C2604 H2666 0.959 . S
C2605 C2602 1.450 . S
C2605 H2667 0.960 . S
C2605 H2668 0.960 . S
C2605 H2669 0.960 . S
C2606 C2607 1.309 . S
C2606 C2611 1.304 . S
C2606 O2644 1.435 . S
C2607 C2606 1.309 . S
C2607 C2608 1.476 . S
C2607 H2671 0.930 . S
C2608 C2607 1.476 . S
C2608 C2609 1.400 . S
C2608 C2612 1.567 . S
C2609 C2608 1.400 . S
C2609 C2610 1.373 . S
C2609 C2631 1.432 . S
C2610 C2609 1.373 . S
C2610 C2611 1.339 . S
C2610 C2613 1.530 . S
C2611 C2606 1.304 . S
C2611 C2610 1.339 . S
C2611 H2672 0.930 . S
C2612 C2608 1.567 . S
C2612 H2673 0.961 . S
C2612 H2674 0.960 . S
C2612 H2675 0.958 . S
C2613 C2610 1.530 . S
C2613 H2676 0.961 . S
C2613 H2677 0.960 . S
C2613 H2678 0.960 . S
C2614 C2615 1.530 . S
C2614 H2680 0.961 . S
C2614 H2681 0.961 . S
C2614 H2682 0.959 . S
C2615 C2614 1.530 . S
C2615 O2643 1.412 . S
C2615 H2679 0.980 . S
C2616 C2617 1.288 . S
C2616 C2621 1.377 . S
C2616 O2643 1.393 . S
C2617 C2616 1.288 . S
C2617 C2618 1.369 . S
C2617 H2683 0.932 . S
C2618 C2617 1.369 . S
C2618 C2619 1.398 . S
C2618 C2622 1.527 . S
C2619 C2618 1.398 . S
C2619 C2620 1.380 . S
C2619 C2633 1.497 . S
C2620 C2619 1.380 . S
C2620 C2621 1.383 . S
C2620 C2623 1.603 . S
C2621 C2616 1.377 . S
C2621 C2620 1.383 . S
C2621 H2684 0.929 . S
C2622 C2618 1.527 . S
C2622 H2685 0.961 . S
C2622 H2686 0.959 . S
C2622 H2687 0.959 . S
C2623 C2620 1.603 . S
C2623 H2688 0.960 . S
C2623 H2689 0.962 . S
C2623 H2690 0.961 . S
C2624 C2591 1.587 . S
C2624 C2625 1.360 . S
C2624 C2637 1.412 . S
C2625 C2624 1.360 . S
C2625 C2626 1.365 . S
C2625 H2691 0.929 . S
C2626 C2601 1.553 . S
C2626 C2625 1.365 . S
C2626 C2627 1.404 . S
C2627 C2626 1.404 . S
C2627 C2628 1.395 . S
C2627 C2638 1.451 . S
C2628 C2627 1.395 . S
C2628 C2629 1.322 . S
C2628 H2692 0.930 . S
C2629 C2628 1.322 . S
C2629 C2630 1.459 . S
C2629 H2693 0.929 . S
C2630 C2629 1.459 . S
C2630 C2631 1.445 . S
C2630 C2639 1.395 . S
C2631 C2609 1.432 . S
C2631 C2630 1.445 . S
C2631 C2632 1.370 . S
C2632 C2631 1.370 . S
C2632 C2633 1.438 . S
C2632 H2694 0.930 . S
C2633 C2619 1.497 . S
C2633 C2632 1.438 . S
C2633 C2634 1.360 . S
C2634 C2633 1.360 . S
C2634 C2635 1.401 . S
C2634 C2639 1.446 . S
C2635 C2634 1.401 . S
C2635 C2636 1.347 . S
C2635 H2695 0.929 . S
C2636 C2635 1.347 . S
C2636 C2637 1.455 . S
C2636 H2696 0.930 . S
C2637 C2624 1.412 . S
C2637 C2636 1.455 . S
C2637 C2638 1.331 . S
C2638 C2627 1.451 . S
C2638 C2637 1.331 . S
C2638 C2639 1.497 . S
C2639 C2630 1.395 . S
C2639 C2634 1.446 . S
C2639 C2638 1.497 . S
C2640 C2641 1.582 . S
C2640 H2697 0.962 . S
C2640 H2698 0.959 . S
C2640 H2699 0.958 . S
C2641 C2640 1.582 . S
C2641 O2644 1.458 . S
C2641 H2670 0.980 . S
O2642 C2587 1.426 . S
O2642 C2588 1.334 . S
O2643 C2615 1.412 . S
O2643 C2616 1.393 . S
O2644 C2606 1.435 . S
O2644 C2641 1.458 . S
O2645 C2597 1.468 . S
O2645 C2598 1.408 . S
H2646 C2587 0.980 . S
H2647 C2586 0.959 . S
H2648 C2586 0.959 . S
H2649 C2586 0.960 . S
H2650 C2589 0.929 . S
H2651 C2593 0.929 . S
H2652 C2594 0.959 . S
H2653 C2594 0.961 . S
H2654 C2594 0.961 . S
H2655 C2595 0.960 . S
H2656 C2595 0.960 . S
H2657 C2595 0.961 . S
H2658 C2597 0.980 . S
H2659 C2596 0.961 . S
H2660 C2596 0.960 . S
H2661 C2596 0.959 . S
H2662 C2599 0.930 . S
H2663 C2603 0.931 . S
H2664 C2604 0.959 . S
H2665 C2604 0.961 . S
H2666 C2604 0.959 . S
H2667 C2605 0.960 . S
H2668 C2605 0.960 . S
H2669 C2605 0.960 . S
H2670 C2641 0.980 . S
H2671 C2607 0.930 . S
H2672 C2611 0.930 . S
H2673 C2612 0.961 . S
H2674 C2612 0.960 . S
H2675 C2612 0.958 . S
H2676 C2613 0.961 . S
H2677 C2613 0.960 . S
H2678 C2613 0.960 . S
H2679 C2615 0.980 . S
H2680 C2614 0.961 . S
H2681 C2614 0.961 . S
H2682 C2614 0.959 . S
H2683 C2617 0.932 . S
H2684 C2621 0.929 . S
H2685 C2622 0.961 . S
H2686 C2622 0.959 . S
H2687 C2622 0.959 . S
H2688 C2623 0.960 . S
H2689 C2623 0.962 . S
H2690 C2623 0.961 . S
H2691 C2625 0.929 . S
H2692 C2628 0.930 . S
H2693 C2629 0.929 . S
H2694 C2632 0.930 . S
H2695 C2635 0.929 . S
H2696 C2636 0.930 . S
H2697 C2640 0.962 . S
H2698 C2640 0.959 . S
H2699 C2640 0.958 . S
H2700 C2706 0.930 . S
H2701 C2709 0.892 1_455 S
H2702 C2710 0.930 1_455 S
H2703 C2711 0.930 . S
H2704 C2714 0.930 . S
H2705 C2715 0.930 . S
C2706 H2700 0.930 . S
C2706 C2707 1.355 . S
C2706 C2708 1.415 . S
C2707 C2706 1.355 . S
C2707 C2709 1.439 . S
C2708 C2706 1.415 . S
C2708 C2713 1.425 . S
C2708 C2715 1.409 . S
C2709 H2701 0.892 1_655 S
C2709 C2707 1.439 . S
C2709 C2710 1.384 . S
C2710 H2702 0.930 1_655 S
C2710 C2709 1.384 . S
C2710 C2713 1.409 . S
C2711 H2703 0.930 . S
C2711 C2712 1.355 . S
C2711 C2713 1.415 . S
C2712 C2711 1.355 . S
C2712 C2714 1.419 . S
C2713 C2708 1.425 . S
C2713 C2710 1.409 . S
C2713 C2711 1.415 . S
C2714 H2704 0.930 . S
C2714 C2712 1.419 . S
C2714 C2715 1.362 . S
C2715 H2705 0.930 . S
C2715 C2708 1.409 . S
C2715 C2714 1.362 . S
H2716 C2722 0.930 . S
H2717 C2725 0.930 . S
H2718 C2726 0.930 . S
H2719 C2727 0.930 . S
H2720 C2730 0.930 . S
H2721 C2731 0.930 . S
C2722 H2716 0.930 . S
C2722 C2723 1.355 . S
C2722 C2724 1.415 . S
C2723 C2722 1.355 . S
C2723 C2725 1.419 . S
C2724 C2722 1.415 . S
C2724 C2729 1.425 . S
C2724 C2731 1.409 . S
C2725 H2717 0.930 . S
C2725 C2723 1.419 . S
C2725 C2726 1.362 . S
C2726 H2718 0.930 . S
C2726 C2725 1.362 . S
C2726 C2729 1.409 . S
C2727 H2719 0.930 . S
C2727 C2728 1.355 . S
C2727 C2729 1.415 . S
C2728 C2727 1.355 . S
C2728 C2730 1.419 . S
C2729 C2724 1.425 . S
C2729 C2726 1.409 . S
C2729 C2727 1.415 . S
C2730 H2720 0.930 . S
C2730 C2728 1.419 . S
C2730 C2731 1.362 . S
C2731 H2721 0.930 . S
C2731 C2724 1.409 . S
C2731 C2730 1.362 . S
H2732 C2738 0.930 . S
H2733 C2741 0.930 . S
H2734 C2742 0.930 . S
H2735 C2743 0.930 . S
H2736 C2746 0.930 . S
H2737 C2747 0.930 . S
C2738 H2732 0.930 . S
C2738 C2739 1.355 1_565 S
C2738 C2740 1.426 1_565 S
C2739 C2738 1.355 1_545 S
C2739 C2741 1.419 . S
C2740 C2738 1.426 1_545 S
C2740 C2745 1.463 . S
C2740 C2747 1.363 1_545 S
C2741 H2733 0.930 . S
C2741 C2739 1.419 . S
C2741 C2742 1.362 . S
C2742 H2734 0.930 . S
C2742 C2741 1.362 . S
C2742 C2745 1.409 . S
C2743 H2735 0.930 . S
C2743 C2744 1.355 . S
C2743 C2745 1.415 . S
C2744 C2743 1.355 . S
C2744 C2746 1.419 1_545 S
C2745 C2740 1.463 . S
C2745 C2742 1.409 . S
C2745 C2743 1.415 . S
C2746 H2736 0.930 . S
C2746 C2744 1.419 1_565 S
C2746 C2747 1.362 . S
C2747 H2737 0.930 . S
C2747 C2740 1.363 1_565 S
C2747 C2746 1.362 . S
H2748 C2754 0.930 . S
H2749 C2757 0.930 . S
H2750 C2758 0.930 . S
H2751 C2759 0.930 . S
H2752 C2762 0.930 . S
H2753 C2763 0.930 . S
C2754 H2748 0.930 . S
C2754 C2755 1.355 . S
C2754 C2756 1.415 . S
C2755 C2754 1.355 . S
C2755 C2757 1.419 . S
C2756 C2754 1.415 . S
C2756 C2761 1.425 . S
C2756 C2763 1.409 . S
C2757 H2749 0.930 . S
C2757 C2755 1.419 . S
C2757 C2758 1.362 . S
C2758 H2750 0.930 . S
C2758 C2757 1.362 . S
C2758 C2761 1.409 . S
C2759 H2751 0.930 . S
C2759 C2760 1.355 . S
C2759 C2761 1.415 . S
C2760 C2759 1.355 . S
C2760 C2762 1.419 . S
C2761 C2756 1.425 . S
C2761 C2758 1.409 . S
C2761 C2759 1.415 . S
C2762 H2752 0.930 . S
C2762 C2760 1.419 . S
C2762 C2763 1.362 . S
C2763 H2753 0.930 . S
C2763 C2756 1.409 . S
C2763 C2762 1.362 . S
H2764 C2770 0.930 . S
H2765 C2773 0.930 . S
H2766 C2774 0.930 . S
H2767 C2775 0.930 . S
H2768 C2778 0.930 . S
H2769 C2779 0.930 . S
C2770 H2764 0.930 . S
C2770 C2771 1.355 . S
C2770 C2772 1.415 . S
C2771 C2770 1.355 . S
C2771 C2773 1.419 . S
C2772 C2770 1.415 . S
C2772 C2777 1.425 . S
C2772 C2779 1.409 . S
C2773 H2765 0.930 . S
C2773 C2771 1.419 . S
C2773 C2774 1.362 . S
C2774 H2766 0.930 . S
C2774 C2773 1.362 . S
C2774 C2777 1.409 . S
C2775 H2767 0.930 . S
C2775 C2776 1.355 . S
C2775 C2777 1.415 . S
C2776 C2775 1.355 . S
C2776 C2778 1.419 . S
C2777 C2772 1.425 . S
C2777 C2774 1.409 . S
C2777 C2775 1.415 . S
C2778 H2768 0.930 . S
C2778 C2776 1.419 . S
C2778 C2779 1.362 . S
C2779 H2769 0.930 . S
C2779 C2772 1.409 . S
C2779 C2778 1.362 . S
H2780 C2786 0.930 . S
H2781 C2789 0.930 . S
H2782 C2790 0.930 . S
H2783 C2791 0.930 . S
H2784 C2794 0.930 . S
H2785 C2795 0.930 . S
C2786 H2780 0.930 . S
C2786 C2787 1.355 . S
C2786 C2788 1.415 . S
C2787 C2786 1.355 . S
C2787 C2789 1.419 . S
C2788 C2786 1.415 . S
C2788 C2793 1.425 . S
C2788 C2795 1.409 . S
C2789 H2781 0.930 . S
C2789 C2787 1.419 . S
C2789 C2790 1.362 . S
C2790 H2782 0.930 . S
C2790 C2789 1.362 . S
C2790 C2793 1.409 . S
C2791 H2783 0.930 . S
C2791 C2792 1.355 . S
C2791 C2793 1.415 . S
C2792 C2791 1.355 . S
C2792 C2794 1.419 . S
C2793 C2788 1.425 . S
C2793 C2790 1.409 . S
C2793 C2791 1.415 . S
C2794 H2784 0.930 . S
C2794 C2792 1.419 . S
C2794 C2795 1.362 . S
C2795 H2785 0.930 . S
C2795 C2788 1.409 . S
C2795 C2794 1.362 . S
H2796 C2802 0.929 1_655 S
H2797 C2805 0.930 . S
H2798 C2806 0.930 . S
H2799 C2807 0.930 . S
H2800 C2810 0.930 . S
H2801 C2811 0.930 . S
C2802 H2796 0.929 1_455 S
C2802 C2803 1.355 . S
C2802 C2804 1.414 . S
C2803 C2802 1.355 . S
C2803 C2805 1.419 . S
C2804 C2802 1.414 . S
C2804 C2809 1.427 . S
C2804 C2811 1.409 1_455 S
C2805 H2797 0.930 . S
C2805 C2803 1.419 . S
C2805 C2806 1.362 . S
C2806 H2798 0.930 . S
C2806 C2805 1.362 . S
C2806 C2809 1.409 . S
C2807 H2799 0.930 . S
C2807 C2808 1.355 . S
C2807 C2809 1.415 . S
C2808 C2807 1.355 . S
C2808 C2810 1.419 1_455 S
C2809 C2804 1.427 . S
C2809 C2806 1.409 . S
C2809 C2807 1.415 . S
C2810 H2800 0.930 . S
C2810 C2808 1.419 1_655 S
C2810 C2811 1.362 . S
C2811 H2801 0.930 . S
C2811 C2804 1.409 1_655 S
C2811 C2810 1.362 . S
H2812 C2818 0.930 . S
H2813 C2821 0.930 . S
H2814 C2822 0.930 . S
H2815 C2823 0.930 . S
H2816 C2826 0.930 . S
H2817 C2827 0.930 . S
C2818 H2812 0.930 . S
C2818 C2819 1.355 . S
C2818 C2820 1.415 . S
C2819 C2818 1.355 . S
C2819 C2821 1.419 . S
C2820 C2818 1.415 . S
C2820 C2825 1.425 . S
C2820 C2827 1.409 . S
C2821 H2813 0.930 . S
C2821 C2819 1.419 . S
C2821 C2822 1.362 . S
C2822 H2814 0.930 . S
C2822 C2821 1.362 . S
C2822 C2825 1.409 . S
C2823 H2815 0.930 . S
C2823 C2824 1.355 . S
C2823 C2825 1.415 . S
C2824 C2823 1.355 . S
C2824 C2826 1.419 . S
C2825 C2820 1.425 . S
C2825 C2822 1.409 . S
C2825 C2823 1.415 . S
C2826 H2816 0.930 . S
C2826 C2824 1.419 . S
C2826 C2827 1.362 . S
C2827 H2817 0.930 . S
C2827 C2820 1.409 . S
C2827 C2826 1.362 . S
H2828 C2834 0.930 . S
H2829 C2837 0.930 . S
H2830 C2838 0.930 . S
H2831 C2839 0.930 . S
H2832 C2842 0.930 . S
H2833 C2843 0.930 . S
C2834 H2828 0.930 . S
C2834 C2835 1.355 . S
C2834 C2836 1.415 . S
C2835 C2834 1.355 . S
C2835 C2837 1.419 1_565 S
C2836 C2834 1.415 . S
C2836 C2841 1.435 . S
C2836 C2843 1.409 . S
C2837 H2829 0.930 . S
C2837 C2835 1.419 1_545 S
C2837 C2838 1.362 . S
C2838 H2830 0.930 . S
C2838 C2837 1.362 . S
C2838 C2841 1.406 1_545 S
C2839 H2831 0.930 . S
C2839 C2840 1.355 1_545 S
C2839 C2841 1.408 1_545 S
C2840 C2839 1.355 1_565 S
C2840 C2842 1.419 . S
C2841 C2836 1.435 . S
C2841 C2838 1.406 1_565 S
C2841 C2839 1.408 1_565 S
C2842 H2832 0.930 . S
C2842 C2840 1.419 . S
C2842 C2843 1.362 . S
C2843 H2833 0.930 . S
C2843 C2836 1.409 . S
C2843 C2842 1.362 . S
H2844 C2850 0.930 . S
H2845 C2853 0.930 . S
H2846 C2854 0.930 . S
H2847 C2855 0.930 . S
H2848 C2858 0.930 . S
H2849 C2859 0.930 . S
C2850 H2844 0.930 . S
C2850 C2851 1.355 . S
C2850 C2852 1.415 . S
C2851 C2850 1.355 . S
C2851 C2853 1.419 . S
C2852 C2850 1.415 . S
C2852 C2857 1.425 . S
C2852 C2859 1.409 . S
C2853 H2845 0.930 . S
C2853 C2851 1.419 . S
C2853 C2854 1.362 . S
C2854 H2846 0.930 . S
C2854 C2853 1.362 . S
C2854 C2857 1.409 . S
C2855 H2847 0.930 . S
C2855 C2856 1.355 . S
C2855 C2857 1.415 . S
C2856 C2855 1.355 . S
C2856 C2858 1.419 . S
C2857 C2852 1.425 . S
C2857 C2854 1.409 . S
C2857 C2855 1.415 . S
C2858 H2848 0.930 . S
C2858 C2856 1.419 . S
C2858 C2859 1.362 . S
C2859 H2849 0.930 . S
C2859 C2852 1.409 . S
C2859 C2858 1.362 . S
H2860 C2866 0.930 . S
H2861 C2869 0.930 . S
H2862 C2870 0.930 . S
H2863 C2871 0.930 . S
H2864 C2874 0.930 1_455 S
H2865 C2875 0.930 . S
C2866 H2860 0.930 . S
C2866 C2867 1.355 . S
C2866 C2868 1.415 . S
C2867 C2866 1.355 . S
C2867 C2869 1.419 . S
C2868 C2866 1.415 . S
C2868 C2873 1.425 . S
C2868 C2875 1.409 . S
C2869 H2861 0.930 . S
C2869 C2867 1.419 . S
C2869 C2870 1.362 . S
C2870 H2862 0.930 . S
C2870 C2869 1.362 . S
C2870 C2873 1.409 . S
C2871 H2863 0.930 . S
C2871 C2872 1.355 . S
C2871 C2873 1.415 . S
C2872 C2871 1.355 . S
C2872 C2874 1.419 . S
C2873 C2868 1.425 . S
C2873 C2870 1.409 . S
C2873 C2871 1.415 . S
C2874 H2864 0.930 1_655 S
C2874 C2872 1.419 . S
C2874 C2875 1.362 . S
C2875 H2865 0.930 . S
C2875 C2868 1.409 . S
C2875 C2874 1.362 . S
H2876 C2882 0.930 . S
H2877 C2885 0.930 . S
H2878 C2886 0.930 . S
H2879 C2887 0.930 . S
H2880 C2890 0.930 . S
H2881 C2891 0.930 . S
C2882 H2876 0.930 . S
C2882 C2883 1.355 . S
C2882 C2884 1.415 . S
C2883 C2882 1.355 . S
C2883 C2885 1.419 . S
C2884 C2882 1.415 . S
C2884 C2889 1.425 . S
C2884 C2891 1.409 . S
C2885 H2877 0.930 . S
C2885 C2883 1.419 . S
C2885 C2886 1.362 . S
C2886 H2878 0.930 . S
C2886 C2885 1.362 . S
C2886 C2889 1.409 . S
C2887 H2879 0.930 . S
C2887 C2888 1.355 . S
C2887 C2889 1.415 . S
C2888 C2887 1.355 . S
C2888 C2890 1.419 . S
C2889 C2884 1.425 . S
C2889 C2886 1.409 . S
C2889 C2887 1.415 . S
C2890 H2880 0.930 . S
C2890 C2888 1.419 . S
C2890 C2891 1.362 . S
C2891 H2881 0.930 . S
C2891 C2884 1.409 . S
C2891 C2890 1.362 . S
H2892 C2898 0.930 . S
H2893 C2901 0.930 . S
H2894 C2902 0.930 . S
H2895 C2903 0.930 . S
H2896 C2906 0.930 . S
H2897 C2907 0.930 . S
C2898 H2892 0.930 . S
C2898 C2899 1.355 . S
C2898 C2900 1.415 . S
C2899 C2898 1.355 . S
C2899 C2901 1.419 . S
C2900 C2898 1.415 . S
C2900 C2905 1.425 . S
C2900 C2907 1.409 . S
C2901 H2893 0.930 . S
C2901 C2899 1.419 . S
C2901 C2902 1.362 . S
C2902 H2894 0.930 . S
C2902 C2901 1.362 . S
C2902 C2905 1.409 . S
C2903 H2895 0.930 . S
C2903 C2904 1.355 . S
C2903 C2905 1.415 . S
C2904 C2903 1.355 . S
C2904 C2906 1.419 . S
C2905 C2900 1.425 . S
C2905 C2902 1.409 . S
C2905 C2903 1.415 . S
C2906 H2896 0.930 . S
C2906 C2904 1.419 . S
C2906 C2907 1.362 . S
C2907 H2897 0.930 . S
C2907 C2900 1.409 . S
C2907 C2906 1.362 . S
H2908 C2914 0.930 . S
H2909 C2917 0.930 . S
H2910 C2918 0.930 . S
H2911 C2919 0.930 . S
H2912 C2922 0.930 . S
H2913 C2923 0.930 . S
C2914 H2908 0.930 . S
C2914 C2915 1.355 . S
C2914 C2916 1.415 . S
C2915 C2914 1.355 . S
C2915 C2917 1.419 . S
C2916 C2914 1.415 . S
C2916 C2921 1.425 . S
C2916 C2923 1.409 . S
C2917 H2909 0.930 . S
C2917 C2915 1.419 . S
C2917 C2918 1.362 . S
C2918 H2910 0.930 . S
C2918 C2917 1.362 . S
C2918 C2921 1.409 . S
C2919 H2911 0.930 . S
C2919 C2920 1.355 . S
C2919 C2921 1.415 . S
C2920 C2919 1.355 . S
C2920 C2922 1.419 . S
C2921 C2916 1.425 . S
C2921 C2918 1.409 . S
C2921 C2919 1.415 . S
C2922 H2912 0.930 . S
C2922 C2920 1.419 . S
C2922 C2923 1.362 . S
C2923 H2913 0.930 . S
C2923 C2916 1.409 . S
C2923 C2922 1.362 . S
H2924 C2930 0.930 . S
H2925 C2933 0.930 . S
H2926 C2934 0.930 . S
H2927 C2935 0.930 . S
H2928 C2938 0.930 . S
H2929 C2939 0.930 . S
C2930 H2924 0.930 . S
C2930 C2931 1.355 . S
C2930 C2932 1.415 . S
C2931 C2930 1.355 . S
C2931 C2933 1.419 . S
C2932 C2930 1.415 . S
C2932 C2937 1.425 . S
C2932 C2939 1.409 . S
C2933 H2925 0.930 . S
C2933 C2931 1.419 . S
C2933 C2934 1.362 . S
C2934 H2926 0.930 . S
C2934 C2933 1.362 . S
C2934 C2937 1.409 . S
C2935 H2927 0.930 . S
C2935 C2936 1.355 . S
C2935 C2937 1.415 . S
C2936 C2935 1.355 . S
C2936 C2938 1.419 . S
C2937 C2932 1.425 . S
C2937 C2934 1.409 . S
C2937 C2935 1.415 . S
C2938 H2928 0.930 . S
C2938 C2936 1.419 . S
C2938 C2939 1.362 . S
C2939 H2929 0.930 . S
C2939 C2932 1.409 . S
C2939 C2938 1.362 . S
H2940 C2946 0.930 . S
H2941 C2949 0.930 . S
H2942 C2950 0.930 . S
H2943 C2951 0.930 . S
H2944 C2954 0.930 . S
H2945 C2955 0.930 . S
C2946 H2940 0.930 . S
C2946 C2947 1.355 . S
C2946 C2948 1.415 . S
C2947 C2946 1.355 . S
C2947 C2949 1.419 . S
C2948 C2946 1.415 . S
C2948 C2953 1.425 . S
C2948 C2955 1.409 . S
C2949 H2941 0.930 . S
C2949 C2947 1.419 . S
C2949 C2950 1.362 . S
C2950 H2942 0.930 . S
C2950 C2949 1.362 . S
C2950 C2953 1.409 . S
C2951 H2943 0.930 . S
C2951 C2952 1.355 . S
C2951 C2953 1.415 . S
C2952 C2951 1.355 . S
C2952 C2954 1.419 . S
C2953 C2948 1.425 . S
C2953 C2950 1.409 . S
C2953 C2951 1.415 . S
C2954 H2944 0.930 . S
C2954 C2952 1.419 . S
C2954 C2955 1.362 . S
C2955 H2945 0.930 . S
C2955 C2948 1.409 . S
C2955 C2954 1.362 . S
H2956 C2962 0.930 . S
H2957 C2965 0.930 . S
H2958 C2966 0.930 . S
H2959 C2967 0.930 . S
H2960 C2970 0.930 . S
H2961 C2971 0.930 . S
C2962 H2956 0.930 . S
C2962 C2963 1.355 . S
C2962 C2964 1.415 . S
C2963 C2962 1.355 . S
C2963 C2965 1.419 . S
C2964 C2962 1.415 . S
C2964 C2969 1.425 . S
C2964 C2971 1.409 . S
C2965 H2957 0.930 . S
C2965 C2963 1.419 . S
C2965 C2966 1.362 . S
C2966 H2958 0.930 . S
C2966 C2965 1.362 . S
C2966 C2969 1.409 . S
C2967 H2959 0.930 . S
C2967 C2968 1.355 . S
C2967 C2969 1.415 . S
C2968 C2967 1.355 . S
C2968 C2970 1.419 . S
C2969 C2964 1.425 . S
C2969 C2966 1.409 . S
C2969 C2967 1.415 . S
C2970 H2960 0.930 . S
C2970 C2968 1.419 . S
C2970 C2971 1.362 . S
C2971 H2961 0.930 . S
C2971 C2964 1.409 . S
C2971 C2970 1.362 . S
H2972 C2978 0.930 . S
H2973 C2981 0.930 . S
H2974 C2982 0.930 . S
H2975 C2983 0.930 . S
H2976 C2986 0.930 . S
H2977 C2987 0.930 . S
C2978 H2972 0.930 . S
C2978 C2979 1.355 . S
C2978 C2980 1.415 . S
C2979 C2978 1.355 . S
C2979 C2981 1.419 . S
C2980 C2978 1.415 . S
C2980 C2985 1.425 . S
C2980 C2987 1.409 . S
C2981 H2973 0.930 . S
C2981 C2979 1.419 . S
C2981 C2982 1.362 . S
C2982 H2974 0.930 . S
C2982 C2981 1.362 . S
C2982 C2985 1.409 . S
C2983 H2975 0.930 . S
C2983 C2984 1.355 . S
C2983 C2985 1.415 . S
C2984 C2983 1.355 . S
C2984 C2986 1.419 . S
C2985 C2980 1.425 . S
C2985 C2982 1.409 . S
C2985 C2983 1.415 . S
C2986 H2976 0.930 . S
C2986 C2984 1.419 . S
C2986 C2987 1.362 . S
C2987 H2977 0.930 . S
C2987 C2980 1.409 . S
C2987 C2986 1.362 . S
H2988 C2994 0.930 . S
H2989 C2997 0.930 . S
H2990 C2998 0.930 . S
H2991 C2999 0.930 . S
H2992 C3002 0.930 . S
H2993 C3003 0.930 . S
C2994 H2988 0.930 . S
C2994 C2995 1.355 . S
C2994 C2996 1.415 . S
C2995 C2994 1.355 . S
C2995 C2997 1.419 . S
C2996 C2994 1.415 . S
C2996 C3001 1.425 . S
C2996 C3003 1.409 . S
C2997 H2989 0.930 . S
C2997 C2995 1.419 . S
C2997 C2998 1.362 . S
C2998 H2990 0.930 . S
C2998 C2997 1.362 . S
C2998 C3001 1.409 . S
C2999 H2991 0.930 . S
C2999 C3000 1.355 . S
C2999 C3001 1.415 . S
C3000 C2999 1.355 . S
C3000 C3002 1.419 . S
C3001 C2996 1.425 . S
C3001 C2998 1.409 . S
C3001 C2999 1.415 . S
C3002 H2992 0.930 . S
C3002 C3000 1.419 . S
C3002 C3003 1.362 . S
C3003 H2993 0.930 . S
C3003 C2996 1.409 . S
C3003 C3002 1.362 . S
H3004 C3010 0.930 . S
H3005 C3013 0.930 . S
H3006 C3014 0.930 . S
H3007 C3015 0.930 . S
H3008 C3018 0.930 . S
H3009 C3019 0.930 . S
C3010 H3004 0.930 . S
C3010 C3011 1.355 . S
C3010 C3012 1.415 . S
C3011 C3010 1.355 . S
C3011 C3013 1.419 . S
C3012 C3010 1.415 . S
C3012 C3017 1.425 . S
C3012 C3019 1.409 . S
C3013 H3005 0.930 . S
C3013 C3011 1.419 . S
C3013 C3014 1.362 . S
C3014 H3006 0.930 . S
C3014 C3013 1.362 . S
C3014 C3017 1.409 . S
C3015 H3007 0.930 . S
C3015 C3016 1.355 . S
C3015 C3017 1.415 . S
C3016 C3015 1.355 . S
C3016 C3018 1.419 . S
C3017 C3012 1.425 . S
C3017 C3014 1.409 . S
C3017 C3015 1.415 . S
C3018 H3008 0.930 . S
C3018 C3016 1.419 . S
C3018 C3019 1.362 . S
C3019 H3009 0.930 . S
C3019 C3012 1.409 . S
C3019 C3018 1.362 . S
H3020 C3026 0.930 . S
H3021 C3029 0.930 . S
H3022 C3030 0.930 . S
H3023 C3031 0.930 . S
H3024 C3034 0.930 . S
H3025 C3035 0.930 . S
C3026 H3020 0.930 . S
C3026 C3027 1.355 . S
C3026 C3028 1.415 . S
C3027 C3026 1.355 . S
C3027 C3029 1.419 . S
C3028 C3026 1.415 . S
C3028 C3033 1.425 . S
C3028 C3035 1.409 . S
C3029 H3021 0.930 . S
C3029 C3027 1.419 . S
C3029 C3030 1.362 . S
C3030 H3022 0.930 . S
C3030 C3029 1.362 . S
C3030 C3033 1.409 . S
C3031 H3023 0.930 . S
C3031 C3032 1.355 . S
C3031 C3033 1.415 . S
C3032 C3031 1.355 . S
C3032 C3034 1.419 . S
C3033 C3028 1.425 . S
C3033 C3030 1.409 . S
C3033 C3031 1.415 . S
C3034 H3024 0.930 . S
C3034 C3032 1.419 . S
C3034 C3035 1.362 . S
C3035 H3025 0.930 . S
C3035 C3028 1.409 . S
C3035 C3034 1.362 . S
H3036 C3042 0.930 . S
H3037 C3045 0.930 . S
H3038 C3046 0.930 . S
H3039 C3047 0.930 . S
H3040 C3050 0.930 . S
H3041 C3051 0.930 . S
C3042 H3036 0.930 . S
C3042 C3043 1.355 . S
C3042 C3044 1.415 . S
C3043 C3042 1.355 . S
C3043 C3045 1.419 . S
C3044 C3042 1.415 . S
C3044 C3049 1.425 . S
C3044 C3051 1.409 . S
C3045 H3037 0.930 . S
C3045 C3043 1.419 . S
C3045 C3046 1.362 . S
C3046 H3038 0.930 . S
C3046 C3045 1.362 . S
C3046 C3049 1.409 . S
C3047 H3039 0.930 . S
C3047 C3048 1.355 . S
C3047 C3049 1.415 . S
C3048 C3047 1.355 . S
C3048 C3050 1.419 . S
C3049 C3044 1.425 . S
C3049 C3046 1.409 . S
C3049 C3047 1.415 . S
C3050 H3040 0.930 . S
C3050 C3048 1.419 . S
C3050 C3051 1.362 . S
C3051 H3041 0.930 . S
C3051 C3044 1.409 . S
C3051 C3050 1.362 . S
H3052 C3058 0.930 . S
H3053 C3061 0.930 . S
H3054 C3062 0.930 . S
H3055 C3063 0.930 . S
H3056 C3066 0.930 . S
H3057 C3067 0.930 . S
C3058 H3052 0.930 . S
C3058 C3059 1.355 . S
C3058 C3060 1.415 . S
C3059 C3058 1.355 . S
C3059 C3061 1.419 . S
C3060 C3058 1.415 . S
C3060 C3065 1.425 . S
C3060 C3067 1.409 . S
C3061 H3053 0.930 . S
C3061 C3059 1.419 . S
C3061 C3062 1.362 . S
C3062 H3054 0.930 . S
C3062 C3061 1.362 . S
C3062 C3065 1.409 . S
C3063 H3055 0.930 . S
C3063 C3064 1.355 . S
C3063 C3065 1.415 . S
C3064 C3063 1.355 . S
C3064 C3066 1.419 . S
C3065 C3060 1.425 . S
C3065 C3062 1.409 . S
C3065 C3063 1.415 . S
C3066 H3056 0.930 . S
C3066 C3064 1.419 . S
C3066 C3067 1.362 . S
C3067 H3057 0.930 . S
C3067 C3060 1.409 . S
C3067 C3066 1.362 . S
H3068 C3074 0.930 . S
H3069 C3077 0.930 . S
H3070 C3078 0.930 . S
H3071 C3079 0.930 . S
H3072 C3082 0.930 . S
H3073 C3083 0.930 . S
C3074 H3068 0.930 . S
C3074 C3075 1.355 . S
C3074 C3076 1.415 . S
C3075 C3074 1.355 . S
C3075 C3077 1.419 . S
C3076 C3074 1.415 . S
C3076 C3081 1.425 . S
C3076 C3083 1.409 . S
C3077 H3069 0.930 . S
C3077 C3075 1.419 . S
C3077 C3078 1.362 . S
C3078 H3070 0.930 . S
C3078 C3077 1.362 . S
C3078 C3081 1.409 . S
C3079 H3071 0.930 . S
C3079 C3080 1.355 . S
C3079 C3081 1.415 . S
C3080 C3079 1.355 . S
C3080 C3082 1.419 . S
C3081 C3076 1.425 . S
C3081 C3078 1.409 . S
C3081 C3079 1.415 . S
C3082 H3072 0.930 . S
C3082 C3080 1.419 . S
C3082 C3083 1.362 . S
C3083 H3073 0.930 . S
C3083 C3076 1.409 . S
C3083 C3082 1.362 . S
H3084 C3090 0.930 . S
H3085 C3093 0.930 . S
H3086 C3094 0.930 . S
H3087 C3095 0.930 . S
H3088 C3098 0.930 . S
H3089 C3099 0.930 . S
C3090 H3084 0.930 . S
C3090 C3091 1.355 . S
C3090 C3092 1.415 . S
C3091 C3090 1.355 . S
C3091 C3093 1.419 . S
C3092 C3090 1.415 . S
C3092 C3097 1.425 . S
C3092 C3099 1.409 . S
C3093 H3085 0.930 . S
C3093 C3091 1.419 . S
C3093 C3094 1.362 . S
C3094 H3086 0.930 . S
C3094 C3093 1.362 . S
C3094 C3097 1.409 . S
C3095 H3087 0.930 . S
C3095 C3096 1.355 . S
C3095 C3097 1.415 . S
C3096 C3095 1.355 . S
C3096 C3098 1.419 . S
C3097 C3092 1.425 . S
C3097 C3094 1.409 . S
C3097 C3095 1.415 . S
C3098 H3088 0.930 . S
C3098 C3096 1.419 . S
C3098 C3099 1.362 . S
C3099 H3089 0.930 . S
C3099 C3092 1.409 . S
C3099 C3098 1.362 . S
H3100 C3106 0.930 . S
H3101 C3109 0.930 . S
H3102 C3110 0.930 . S
H3103 C3111 0.930 . S
H3104 C3114 0.930 . S
H3105 C3115 0.930 . S
C3106 H3100 0.930 . S
C3106 C3107 1.355 . S
C3106 C3108 1.415 . S
C3107 C3106 1.355 . S
C3107 C3109 1.419 . S
C3108 C3106 1.415 . S
C3108 C3113 1.425 . S
C3108 C3115 1.409 . S
C3109 H3101 0.930 . S
C3109 C3107 1.419 . S
C3109 C3110 1.362 . S
C3110 H3102 0.930 . S
C3110 C3109 1.362 . S
C3110 C3113 1.409 . S
C3111 H3103 0.930 . S
C3111 C3112 1.355 . S
C3111 C3113 1.415 . S
C3112 C3111 1.355 . S
C3112 C3114 1.419 . S
C3113 C3108 1.425 . S
C3113 C3110 1.409 . S
C3113 C3111 1.415 . S
C3114 H3104 0.930 . S
C3114 C3112 1.419 . S
C3114 C3115 1.362 . S
C3115 H3105 0.930 . S
C3115 C3108 1.409 . S
C3115 C3114 1.362 . S
H3116 C3122 0.930 . S
H3117 C3125 0.930 . S
H3118 C3126 0.930 . S
H3119 C3127 0.930 . S
H3120 C3130 0.930 . S
H3121 C3131 0.930 . S
C3122 H3116 0.930 . S
C3122 C3123 1.355 . S
C3122 C3124 1.415 . S
C3123 C3122 1.355 . S
C3123 C3125 1.419 . S
C3124 C3122 1.415 . S
C3124 C3129 1.425 . S
C3124 C3131 1.409 . S
C3125 H3117 0.930 . S
C3125 C3123 1.419 . S
C3125 C3126 1.362 . S
C3126 H3118 0.930 . S
C3126 C3125 1.362 . S
C3126 C3129 1.409 . S
C3127 H3119 0.930 . S
C3127 C3128 1.355 . S
C3127 C3129 1.415 . S
C3128 C3127 1.355 . S
C3128 C3130 1.419 . S
C3129 C3124 1.425 . S
C3129 C3126 1.409 . S
C3129 C3127 1.415 . S
C3130 H3120 0.930 . S
C3130 C3128 1.419 . S
C3130 C3131 1.362 . S
C3131 H3121 0.930 . S
C3131 C3124 1.409 . S
C3131 C3130 1.362 . S
H3132 C3138 0.930 . S
H3133 C3141 0.930 . S
H3134 C3142 0.930 . S
H3135 C3143 0.930 . S
H3136 C3146 0.930 . S
H3137 C3147 0.930 . S
C3138 H3132 0.930 . S
C3138 C3139 1.355 . S
C3138 C3140 1.415 . S
C3139 C3138 1.355 . S
C3139 C3141 1.419 . S
C3140 C3138 1.415 . S
C3140 C3145 1.425 . S
C3140 C3147 1.409 . S
C3141 H3133 0.930 . S
C3141 C3139 1.419 . S
C3141 C3142 1.362 . S
C3142 H3134 0.930 . S
C3142 C3141 1.362 . S
C3142 C3145 1.409 . S
C3143 H3135 0.930 . S
C3143 C3144 1.355 . S
C3143 C3145 1.415 . S
C3144 C3143 1.355 . S
C3144 C3146 1.419 . S
C3145 C3140 1.425 . S
C3145 C3142 1.409 . S
C3145 C3143 1.415 . S
C3146 H3136 0.930 . S
C3146 C3144 1.419 . S
C3146 C3147 1.362 . S
C3147 H3137 0.930 . S
C3147 C3140 1.409 . S
C3147 C3146 1.362 . S
H3148 C3154 0.930 . S
H3149 C3157 0.930 . S
H3150 C3158 0.930 . S
H3151 C3159 0.930 . S
H3152 C3162 0.930 . S
H3153 C3163 0.930 . S
C3154 H3148 0.930 . S
C3154 C3155 1.355 . S
C3154 C3156 1.415 . S
C3155 C3154 1.355 . S
C3155 C3157 1.419 . S
C3156 C3154 1.415 . S
C3156 C3161 1.425 . S
C3156 C3163 1.409 . S
C3157 H3149 0.930 . S
C3157 C3155 1.419 . S
C3157 C3158 1.362 . S
C3158 H3150 0.930 . S
C3158 C3157 1.362 . S
C3158 C3161 1.409 . S
C3159 H3151 0.930 . S
C3159 C3160 1.355 . S
C3159 C3161 1.415 . S
C3160 C3159 1.355 . S
C3160 C3162 1.419 . S
C3161 C3156 1.425 . S
C3161 C3158 1.409 . S
C3161 C3159 1.415 . S
C3162 H3152 0.930 . S
C3162 C3160 1.419 . S
C3162 C3163 1.362 . S
C3163 H3153 0.930 . S
C3163 C3156 1.409 . S
C3163 C3162 1.362 . S
H3164 C3170 0.930 . S
H3165 C3173 0.930 . S
H3166 C3174 0.930 . S
H3167 C3175 0.930 . S
H3168 C3178 0.930 . S
H3169 C3179 0.930 . S
C3170 H3164 0.930 . S
C3170 C3171 1.355 . S
C3170 C3172 1.415 . S
C3171 C3170 1.355 . S
C3171 C3173 1.419 . S
C3172 C3170 1.415 . S
C3172 C3177 1.425 . S
C3172 C3179 1.409 . S
C3173 H3165 0.930 . S
C3173 C3171 1.419 . S
C3173 C3174 1.362 . S
C3174 H3166 0.930 . S
C3174 C3173 1.362 . S
C3174 C3177 1.409 . S
C3175 H3167 0.930 . S
C3175 C3176 1.355 . S
C3175 C3177 1.415 . S
C3176 C3175 1.355 . S
C3176 C3178 1.419 . S
C3177 C3172 1.425 . S
C3177 C3174 1.409 . S
C3177 C3175 1.415 . S
C3178 H3168 0.930 . S
C3178 C3176 1.419 . S
C3178 C3179 1.362 . S
C3179 H3169 0.930 . S
C3179 C3172 1.409 . S
C3179 C3178 1.362 . S
H3180 C3186 0.930 . S
H3181 C3189 0.930 . S
H3182 C3190 0.930 . S
H3183 C3191 0.930 . S
H3184 C3194 0.930 . S
H3185 C3195 0.930 . S
C3186 H3180 0.930 . S
C3186 C3187 1.355 . S
C3186 C3188 1.415 . S
C3187 C3186 1.355 . S
C3187 C3189 1.419 . S
C3188 C3186 1.415 . S
C3188 C3193 1.425 . S
C3188 C3195 1.409 . S
C3189 H3181 0.930 . S
C3189 C3187 1.419 . S
C3189 C3190 1.362 . S
C3190 H3182 0.930 . S
C3190 C3189 1.362 . S
C3190 C3193 1.409 . S
C3191 H3183 0.930 . S
C3191 C3192 1.355 . S
C3191 C3193 1.415 . S
C3192 C3191 1.355 . S
C3192 C3194 1.419 . S
C3193 C3188 1.425 . S
C3193 C3190 1.409 . S
C3193 C3191 1.415 . S
C3194 H3184 0.930 . S
C3194 C3192 1.419 . S
C3194 C3195 1.362 . S
C3195 H3185 0.930 . S
C3195 C3188 1.409 . S
C3195 C3194 1.362 . S
H3196 C3202 0.930 . S
H3197 C3205 0.930 . S
H3198 C3206 0.930 . S
H3199 C3207 0.930 . S
H3200 C3210 0.930 . S
H3201 C3211 0.930 . S
C3202 H3196 0.930 . S
C3202 C3203 1.355 . S
C3202 C3204 1.415 . S
C3203 C3202 1.355 . S
C3203 C3205 1.419 . S
C3204 C3202 1.415 . S
C3204 C3209 1.425 . S
C3204 C3211 1.409 . S
C3205 H3197 0.930 . S
C3205 C3203 1.419 . S
C3205 C3206 1.362 . S
C3206 H3198 0.930 . S
C3206 C3205 1.362 . S
C3206 C3209 1.409 . S
C3207 H3199 0.930 . S
C3207 C3208 1.355 . S
C3207 C3209 1.415 . S
C3208 C3207 1.355 . S
C3208 C3210 1.419 . S
C3209 C3204 1.425 . S
C3209 C3206 1.409 . S
C3209 C3207 1.415 . S
C3210 H3200 0.930 . S
C3210 C3208 1.419 . S
C3210 C3211 1.362 . S
C3211 H3201 0.930 . S
C3211 C3204 1.409 . S
C3211 C3210 1.362 . S
H3212 C3218 0.930 . S
H3213 C3221 0.930 . S
H3214 C3222 0.930 . S
H3215 C3223 0.930 . S
H3216 C3226 0.930 . S
H3217 C3227 0.930 . S
C3218 H3212 0.930 . S
C3218 C3219 1.355 . S
C3218 C3220 1.415 . S
C3219 C3218 1.355 . S
C3219 C3221 1.419 . S
C3220 C3218 1.415 . S
C3220 C3225 1.425 . S
C3220 C3227 1.409 . S
C3221 H3213 0.930 . S
C3221 C3219 1.419 . S
C3221 C3222 1.362 . S
C3222 H3214 0.930 . S
C3222 C3221 1.362 . S
C3222 C3225 1.409 . S
C3223 H3215 0.930 . S
C3223 C3224 1.355 . S
C3223 C3225 1.415 . S
C3224 C3223 1.355 . S
C3224 C3226 1.419 . S
C3225 C3220 1.425 . S
C3225 C3222 1.409 . S
C3225 C3223 1.415 . S
C3226 H3216 0.930 . S
C3226 C3224 1.419 . S
C3226 C3227 1.362 . S
C3227 H3217 0.930 . S
C3227 C3220 1.409 . S
C3227 C3226 1.362 . S
H3228 C3234 0.930 . S
H3229 C3237 0.930 . S
H3230 C3238 0.930 . S
H3231 C3239 0.930 . S
H3232 C3242 0.930 . S
H3233 C3243 0.930 . S
C3234 H3228 0.930 . S
C3234 C3235 1.355 . S
C3234 C3236 1.415 . S
C3235 C3234 1.355 . S
C3235 C3237 1.419 . S
C3236 C3234 1.415 . S
C3236 C3241 1.425 . S
C3236 C3243 1.409 . S
C3237 H3229 0.930 . S
C3237 C3235 1.419 . S
C3237 C3238 1.362 . S
C3238 H3230 0.930 . S
C3238 C3237 1.362 . S
C3238 C3241 1.409 . S
C3239 H3231 0.930 . S
C3239 C3240 1.355 . S
C3239 C3241 1.415 . S
C3240 C3239 1.355 . S
C3240 C3242 1.419 . S
C3241 C3236 1.425 . S
C3241 C3238 1.409 . S
C3241 C3239 1.415 . S
C3242 H3232 0.930 . S
C3242 C3240 1.419 . S
C3242 C3243 1.362 . S
C3243 H3233 0.930 . S
C3243 C3236 1.409 . S
C3243 C3242 1.362 . S
H3244 C3250 0.930 . S
H3245 C3253 0.930 . S
H3246 C3254 0.930 . S
H3247 C3255 0.930 . S
H3248 C3258 0.930 . S
H3249 C3259 0.930 . S
C3250 H3244 0.930 . S
C3250 C3251 1.355 . S
C3250 C3252 1.415 . S
C3251 C3250 1.355 . S
C3251 C3253 1.419 . S
C3252 C3250 1.415 . S
C3252 C3257 1.425 . S
C3252 C3259 1.409 . S
C3253 H3245 0.930 . S
C3253 C3251 1.419 . S
C3253 C3254 1.362 . S
C3254 H3246 0.930 . S
C3254 C3253 1.362 . S
C3254 C3257 1.409 . S
C3255 H3247 0.930 . S
C3255 C3256 1.355 . S
C3255 C3257 1.415 . S
C3256 C3255 1.355 . S
C3256 C3258 1.419 . S
C3257 C3252 1.425 . S
C3257 C3254 1.409 . S
C3257 C3255 1.415 . S
C3258 H3248 0.930 . S
C3258 C3256 1.419 . S
C3258 C3259 1.362 . S
C3259 H3249 0.930 . S
C3259 C3252 1.409 . S
C3259 C3258 1.362 . S
H3260 C3266 0.930 . S
H3261 C3269 0.930 . S
H3262 C3270 0.930 . S
H3263 C3271 0.930 . S
H3264 C3274 0.930 . S
H3265 C3275 0.930 . S
C3266 H3260 0.930 . S
C3266 C3267 1.355 . S
C3266 C3268 1.415 . S
C3267 C3266 1.355 . S
C3267 C3269 1.419 . S
C3268 C3266 1.415 . S
C3268 C3273 1.425 . S
C3268 C3275 1.409 . S
C3269 H3261 0.930 . S
C3269 C3267 1.419 . S
C3269 C3270 1.362 . S
C3270 H3262 0.930 . S
C3270 C3269 1.362 . S
C3270 C3273 1.409 . S
C3271 H3263 0.930 . S
C3271 C3272 1.355 . S
C3271 C3273 1.415 . S
C3272 C3271 1.355 . S
C3272 C3274 1.419 . S
C3273 C3268 1.425 . S
C3273 C3270 1.409 . S
C3273 C3271 1.415 . S
C3274 H3264 0.930 . S
C3274 C3272 1.419 . S
C3274 C3275 1.362 . S
C3275 H3265 0.930 . S
C3275 C3268 1.409 . S
C3275 C3274 1.362 . S
H3276 C3282 0.930 . S
H3277 C3285 0.930 . S
H3278 C3286 0.930 . S
H3279 C3287 0.930 . S
H3280 C3290 0.930 . S
H3281 C3291 0.930 . S
C3282 H3276 0.930 . S
C3282 C3283 1.355 . S
C3282 C3284 1.415 . S
C3283 C3282 1.355 . S
C3283 C3285 1.419 . S
C3284 C3282 1.415 . S
C3284 C3289 1.425 . S
C3284 C3291 1.409 . S
C3285 H3277 0.930 . S
C3285 C3283 1.419 . S
C3285 C3286 1.362 . S
C3286 H3278 0.930 . S
C3286 C3285 1.362 . S
C3286 C3289 1.409 . S
C3287 H3279 0.930 . S
C3287 C3288 1.355 . S
C3287 C3289 1.415 . S
C3288 C3287 1.355 . S
C3288 C3290 1.419 . S
C3289 C3284 1.425 . S
C3289 C3286 1.409 . S
C3289 C3287 1.415 . S
C3290 H3280 0.930 . S
C3290 C3288 1.419 . S
C3290 C3291 1.362 . S
C3291 H3281 0.930 . S
C3291 C3284 1.409 . S
C3291 C3290 1.362 . S
H3292 C3298 0.930 . S
H3293 C3301 0.930 . S
H3294 C3302 0.930 . S
H3295 C3303 0.930 . S
H3296 C3306 0.930 . S
H3297 C3307 0.930 . S
C3298 H3292 0.930 . S
C3298 C3299 1.355 . S
C3298 C3300 1.415 . S
C3299 C3298 1.355 . S
C3299 C3301 1.419 . S
C3300 C3298 1.415 . S
C3300 C3305 1.425 . S
C3300 C3307 1.409 . S
C3301 H3293 0.930 . S
C3301 C3299 1.419 . S
C3301 C3302 1.362 . S
C3302 H3294 0.930 . S
C3302 C3301 1.362 . S
C3302 C3305 1.409 . S
C3303 H3295 0.930 . S
C3303 C3304 1.355 . S
C3303 C3305 1.415 . S
C3304 C3303 1.355 . S
C3304 C3306 1.419 . S
C3305 C3300 1.425 . S
C3305 C3302 1.409 . S
C3305 C3303 1.415 . S
C3306 H3296 0.930 . S
C3306 C3304 1.419 . S
C3306 C3307 1.362 . S
C3307 H3297 0.930 . S
C3307 C3300 1.409 . S
C3307 C3306 1.362 . S
H3308 C3314 0.930 . S
H3309 C3317 0.930 . S
H3310 C3318 0.930 . S
H3311 C3319 0.930 . S
H3312 C3322 0.930 . S
H3313 C3323 0.930 . S
C3314 H3308 0.930 . S
C3314 C3315 1.355 . S
C3314 C3316 1.415 . S
C3315 C3314 1.355 . S
C3315 C3317 1.419 . S
C3316 C3314 1.415 . S
C3316 C3321 1.425 . S
C3316 C3323 1.409 . S
C3317 H3309 0.930 . S
C3317 C3315 1.419 . S
C3317 C3318 1.362 . S
C3318 H3310 0.930 . S
C3318 C3317 1.362 . S
C3318 C3321 1.409 . S
C3319 H3311 0.930 . S
C3319 C3320 1.355 . S
C3319 C3321 1.415 . S
C3320 C3319 1.355 . S
C3320 C3322 1.419 . S
C3321 C3316 1.425 . S
C3321 C3318 1.409 . S
C3321 C3319 1.415 . S
C3322 H3312 0.930 . S
C3322 C3320 1.419 . S
C3322 C3323 1.362 . S
C3323 H3313 0.930 . S
C3323 C3316 1.409 . S
C3323 C3322 1.362 . S
H3324 C3330 0.930 . S
H3325 C3333 0.930 1_554 S
H3326 C3334 0.930 1_554 S
H3327 C3335 0.930 . S
H3328 C3338 0.930 . S
H3329 C3339 0.930 . S
C3330 H3324 0.930 . S
C3330 C3331 1.355 . S
C3330 C3332 1.415 . S
C3331 C3330 1.355 . S
C3331 C3333 1.419 . S
C3332 C3330 1.415 . S
C3332 C3337 1.425 . S
C3332 C3339 1.409 . S
C3333 H3325 0.930 1_556 S
C3333 C3331 1.419 . S
C3333 C3334 1.362 . S
C3334 H3326 0.930 1_556 S
C3334 C3333 1.362 . S
C3334 C3337 1.409 . S
C3335 H3327 0.930 . S
C3335 C3336 1.355 . S
C3335 C3337 1.415 . S
C3336 C3335 1.355 . S
C3336 C3338 1.419 . S
C3337 C3332 1.425 . S
C3337 C3334 1.409 . S
C3337 C3335 1.415 . S
C3338 H3328 0.930 . S
C3338 C3336 1.419 . S
C3338 C3339 1.362 . S
C3339 H3329 0.930 . S
C3339 C3332 1.409 . S
C3339 C3338 1.362 . S
H3340 C3346 0.930 . S
H3341 C3349 0.910 1_554 S
H3342 C3350 0.930 . S
H3343 C3351 0.930 . S
H3344 C3354 0.930 . S
H3345 C3355 0.930 . S
C3346 H3340 0.930 . S
C3346 C3347 1.355 . S
C3346 C3348 1.415 . S
C3347 C3346 1.355 . S
C3347 C3349 1.419 . S
C3348 C3346 1.415 . S
C3348 C3353 1.425 . S
C3348 C3355 1.409 . S
C3349 H3341 0.910 1_556 S
C3349 C3347 1.419 . S
C3349 C3350 1.362 . S
C3350 H3342 0.930 . S
C3350 C3349 1.362 . S
C3350 C3353 1.409 . S
C3351 H3343 0.930 . S
C3351 C3352 1.355 . S
C3351 C3353 1.415 . S
C3352 C3351 1.355 . S
C3352 C3354 1.419 . S
C3353 C3348 1.425 . S
C3353 C3350 1.409 . S
C3353 C3351 1.415 . S
C3354 H3344 0.930 . S
C3354 C3352 1.419 . S
C3354 C3355 1.362 . S
C3355 H3345 0.930 . S
C3355 C3348 1.409 . S
C3355 C3354 1.362 . S
H3356 C3362 0.930 1_554 S
H3357 C3365 0.930 . S
H3358 C3366 0.930 . S
H3359 C3367 0.930 . S
H3360 C3370 0.930 . S
H3361 C3371 0.933 . S
C3362 H3356 0.930 1_556 S
C3362 C3363 1.355 . S
C3362 C3364 1.415 . S
C3363 C3362 1.355 . S
C3363 C3365 1.419 . S
C3364 C3362 1.415 . S
C3364 C3369 1.425 . S
C3364 C3371 1.409 . S
C3365 H3357 0.930 . S
C3365 C3363 1.419 . S
C3365 C3366 1.362 . S
C3366 H3358 0.930 . S
C3366 C3365 1.362 . S
C3366 C3369 1.409 . S
C3367 H3359 0.930 . S
C3367 C3368 1.355 . S
C3367 C3369 1.415 . S
C3368 C3367 1.355 . S
C3368 C3370 1.419 . S
C3369 C3364 1.425 . S
C3369 C3366 1.409 . S
C3369 C3367 1.415 . S
C3370 H3360 0.930 . S
C3370 C3368 1.419 . S
C3370 C3371 1.362 . S
C3371 H3361 0.933 . S
C3371 C3364 1.409 . S
C3371 C3370 1.362 . S
H3372 C3378 0.930 . S
H3373 C3381 0.930 . S
H3374 C3382 0.930 . S
H3375 C3383 0.930 . S
H3376 C3386 0.930 . S
H3377 C3387 0.930 . S
C3378 H3372 0.930 . S
C3378 C3379 1.355 . S
C3378 C3380 1.415 . S
C3379 C3378 1.355 . S
C3379 C3381 1.419 . S
C3380 C3378 1.415 . S
C3380 C3385 1.425 . S
C3380 C3387 1.409 . S
C3381 H3373 0.930 . S
C3381 C3379 1.419 . S
C3381 C3382 1.362 . S
C3382 H3374 0.930 . S
C3382 C3381 1.362 . S
C3382 C3385 1.409 . S
C3383 H3375 0.930 . S
C3383 C3384 1.355 . S
C3383 C3385 1.415 . S
C3384 C3383 1.355 . S
C3384 C3386 1.419 . S
C3385 C3380 1.425 . S
C3385 C3382 1.409 . S
C3385 C3383 1.415 . S
C3386 H3376 0.930 . S
C3386 C3384 1.419 . S
C3386 C3387 1.362 . S
C3387 H3377 0.930 . S
C3387 C3380 1.409 . S
C3387 C3386 1.362 . S
H3388 C3394 0.930 . S
H3389 C3397 0.930 . S
H3390 C3398 0.930 . S
H3391 C3399 0.930 . S
H3392 C3402 0.930 . S
H3393 C3403 0.930 . S
C3394 H3388 0.930 . S
C3394 C3395 1.355 . S
C3394 C3396 1.415 . S
C3395 C3394 1.355 . S
C3395 C3397 1.419 . S
C3396 C3394 1.415 . S
C3396 C3401 1.425 . S
C3396 C3403 1.409 . S
C3397 H3389 0.930 . S
C3397 C3395 1.419 . S
C3397 C3398 1.362 . S
C3398 H3390 0.930 . S
C3398 C3397 1.362 . S
C3398 C3401 1.409 . S
C3399 H3391 0.930 . S
C3399 C3400 1.355 . S
C3399 C3401 1.415 . S
C3400 C3399 1.355 . S
C3400 C3402 1.419 . S
C3401 C3396 1.425 . S
C3401 C3398 1.409 . S
C3401 C3399 1.415 . S
C3402 H3392 0.930 . S
C3402 C3400 1.419 . S
C3402 C3403 1.362 . S
C3403 H3393 0.930 . S
C3403 C3396 1.409 . S
C3403 C3402 1.362 . S
H3404 C3410 0.930 . S
H3405 C3413 0.930 1_554 S
H3406 C3414 0.935 1_554 S
H3407 C3415 0.930 . S
H3408 C3418 0.930 . S
H3409 C3419 0.930 . S
C3410 H3404 0.930 . S
C3410 C3411 1.355 . S
C3410 C3412 1.415 . S
C3411 C3410 1.355 . S
C3411 C3413 1.419 . S
C3412 C3410 1.415 . S
C3412 C3417 1.425 . S
C3412 C3419 1.409 . S
C3413 H3405 0.930 1_556 S
C3413 C3411 1.419 . S
C3413 C3414 1.362 . S
C3414 H3406 0.935 1_556 S
C3414 C3413 1.362 . S
C3414 C3417 1.409 . S
C3415 H3407 0.930 . S
C3415 C3416 1.355 . S
C3415 C3417 1.415 . S
C3416 C3415 1.355 . S
C3416 C3418 1.419 . S
C3417 C3412 1.425 . S
C3417 C3414 1.409 . S
C3417 C3415 1.415 . S
C3418 H3408 0.930 . S
C3418 C3416 1.419 . S
C3418 C3419 1.362 . S
C3419 H3409 0.930 . S
C3419 C3412 1.409 . S
C3419 C3418 1.362 . S
H3420 C3426 0.930 . S
H3421 C3429 0.930 . S
H3422 C3430 0.930 . S
H3423 C3431 0.930 . S
H3424 C3434 0.930 . S
H3425 C3435 0.930 . S
C3426 H3420 0.930 . S
C3426 C3427 1.355 . S
C3426 C3428 1.415 . S
C3427 C3426 1.355 . S
C3427 C3429 1.419 . S
C3428 C3426 1.415 . S
C3428 C3433 1.425 . S
C3428 C3435 1.409 . S
C3429 H3421 0.930 . S
C3429 C3427 1.419 . S
C3429 C3430 1.362 . S
C3430 H3422 0.930 . S
C3430 C3429 1.362 . S
C3430 C3433 1.409 . S
C3431 H3423 0.930 . S
C3431 C3432 1.355 . S
C3431 C3433 1.415 . S
C3432 C3431 1.355 . S
C3432 C3434 1.419 . S
C3433 C3428 1.425 . S
C3433 C3430 1.409 . S
C3433 C3431 1.415 . S
C3434 H3424 0.930 . S
C3434 C3432 1.419 . S
C3434 C3435 1.362 . S
C3435 H3425 0.930 . S
C3435 C3428 1.409 . S
C3435 C3434 1.362 . S
H3436 C3442 0.930 . S
H3437 C3445 0.930 . S
H3438 C3446 0.930 . S
H3439 C3447 0.930 . S
H3440 C3450 0.930 . S
H3441 C3451 0.930 . S
C3442 H3436 0.930 . S
C3442 C3443 1.355 . S
C3442 C3444 1.415 . S
C3443 C3442 1.355 . S
C3443 C3445 1.419 . S
C3444 C3442 1.415 . S
C3444 C3449 1.425 . S
C3444 C3451 1.409 . S
C3445 H3437 0.930 . S
C3445 C3443 1.419 . S
C3445 C3446 1.362 . S
C3446 H3438 0.930 . S
C3446 C3445 1.362 . S
C3446 C3449 1.409 . S
C3447 H3439 0.930 . S
C3447 C3448 1.355 . S
C3447 C3449 1.415 . S
C3448 C3447 1.355 . S
C3448 C3450 1.419 . S
C3449 C3444 1.425 . S
C3449 C3446 1.409 . S
C3449 C3447 1.415 . S
C3450 H3440 0.930 . S
C3450 C3448 1.419 . S
C3450 C3451 1.362 . S
C3451 H3441 0.930 . S
C3451 C3444 1.409 . S
C3451 C3450 1.362 . S
H3452 C3458 0.930 . S
H3453 C3461 0.930 . S
H3454 C3462 0.930 . S
H3455 C3463 0.930 . S
H3456 C3466 0.930 . S
H3457 C3467 0.930 . S
C3458 H3452 0.930 . S
C3458 C3459 1.355 . S
C3458 C3460 1.415 . S
C3459 C3458 1.355 . S
C3459 C3461 1.419 . S
C3460 C3458 1.415 . S
C3460 C3465 1.425 . S
C3460 C3467 1.409 . S
C3461 H3453 0.930 . S
C3461 C3459 1.419 . S
C3461 C3462 1.362 . S
C3462 H3454 0.930 . S
C3462 C3461 1.362 . S
C3462 C3465 1.409 . S
C3463 H3455 0.930 . S
C3463 C3464 1.355 . S
C3463 C3465 1.415 . S
C3464 C3463 1.355 . S
C3464 C3466 1.419 . S
C3465 C3460 1.425 . S
C3465 C3462 1.409 . S
C3465 C3463 1.415 . S
C3466 H3456 0.930 . S
C3466 C3464 1.419 . S
C3466 C3467 1.362 . S
C3467 H3457 0.930 . S
C3467 C3460 1.409 . S
C3467 C3466 1.362 . S
H3468 C3474 0.930 . S
H3469 C3477 0.930 . S
H3470 C3478 0.930 . S
H3471 C3479 0.930 . S
H3472 C3482 0.930 . S
H3473 C3483 0.930 . S
C3474 H3468 0.930 . S
C3474 C3475 1.355 . S
C3474 C3476 1.415 . S
C3475 C3474 1.355 . S
C3475 C3477 1.419 . S
C3476 C3474 1.415 . S
C3476 C3481 1.425 . S
C3476 C3483 1.409 . S
C3477 H3469 0.930 . S
C3477 C3475 1.419 . S
C3477 C3478 1.362 . S
C3478 H3470 0.930 . S
C3478 C3477 1.362 . S
C3478 C3481 1.409 . S
C3479 H3471 0.930 . S
C3479 C3480 1.355 . S
C3479 C3481 1.415 . S
C3480 C3479 1.355 . S
C3480 C3482 1.419 . S
C3481 C3476 1.425 . S
C3481 C3478 1.409 . S
C3481 C3479 1.415 . S
C3482 H3472 0.930 . S
C3482 C3480 1.419 . S
C3482 C3483 1.362 . S
C3483 H3473 0.930 . S
C3483 C3476 1.409 . S
C3483 C3482 1.362 . S
H3484 C3490 0.930 . S
H3485 C3493 0.930 . S
H3486 C3494 0.930 . S
H3487 C3495 0.930 . S
H3488 C3498 0.930 . S
H3489 C3499 0.930 . S
C3490 H3484 0.930 . S
C3490 C3491 1.355 . S
C3490 C3492 1.415 . S
C3491 C3490 1.355 . S
C3491 C3493 1.419 . S
C3492 C3490 1.415 . S
C3492 C3497 1.425 . S
C3492 C3499 1.409 . S
C3493 H3485 0.930 . S
C3493 C3491 1.419 . S
C3493 C3494 1.362 . S
C3494 H3486 0.930 . S
C3494 C3493 1.362 . S
C3494 C3497 1.409 . S
C3495 H3487 0.930 . S
C3495 C3496 1.355 . S
C3495 C3497 1.415 . S
C3496 C3495 1.355 . S
C3496 C3498 1.419 . S
C3497 C3492 1.425 . S
C3497 C3494 1.409 . S
C3497 C3495 1.415 . S
C3498 H3488 0.930 . S
C3498 C3496 1.419 . S
C3498 C3499 1.362 . S
C3499 H3489 0.930 . S
C3499 C3492 1.409 . S
C3499 C3498 1.362 . S
H3500 C3506 0.930 . S
H3501 C3509 0.930 . S
H3502 C3510 0.930 . S
H3503 C3511 0.930 . S
H3504 C3514 0.930 . S
H3505 C3515 0.930 . S
C3506 H3500 0.930 . S
C3506 C3507 1.355 . S
C3506 C3508 1.415 . S
C3507 C3506 1.355 . S
C3507 C3509 1.419 . S
C3508 C3506 1.415 . S
C3508 C3513 1.425 . S
C3508 C3515 1.409 . S
C3509 H3501 0.930 . S
C3509 C3507 1.419 . S
C3509 C3510 1.362 . S
C3510 H3502 0.930 . S
C3510 C3509 1.362 . S
C3510 C3513 1.409 . S
C3511 H3503 0.930 . S
C3511 C3512 1.355 . S
C3511 C3513 1.415 . S
C3512 C3511 1.355 . S
C3512 C3514 1.419 . S
C3513 C3508 1.425 . S
C3513 C3510 1.409 . S
C3513 C3511 1.415 . S
C3514 H3504 0.930 . S
C3514 C3512 1.419 . S
C3514 C3515 1.362 . S
C3515 H3505 0.930 . S
C3515 C3508 1.409 . S
C3515 C3514 1.362 . S
H3516 C3522 0.930 . S
H3517 C3525 0.930 . S
H3518 C3526 0.930 . S
H3519 C3527 0.930 . S
H3520 C3530 0.930 . S
H3521 C3531 0.930 . S
C3522 H3516 0.930 . S
C3522 C3523 1.353 1_655 S
C3522 C3524 1.415 1_655 S
C3523 C3522 1.353 1_455 S
C3523 C3525 1.419 . S
C3524 C3522 1.415 1_455 S
C3524 C3529 1.425 . S
C3524 C3531 1.409 1_455 S
C3525 H3517 0.930 . S
C3525 C3523 1.419 . S
C3525 C3526 1.362 . S
C3526 H3518 0.930 . S
C3526 C3525 1.362 . S
C3526 C3529 1.409 . S
C3527 H3519 0.930 . S
C3527 C3528 1.355 . S
C3527 C3529 1.415 . S
C3528 C3527 1.355 . S
C3528 C3530 1.419 1_455 S
C3529 C3524 1.425 . S
C3529 C3526 1.409 . S
C3529 C3527 1.415 . S
C3530 H3520 0.930 . S
C3530 C3528 1.419 1_655 S
C3530 C3531 1.362 . S
C3531 H3521 0.930 . S
C3531 C3524 1.409 1_655 S
C3531 C3530 1.362 . S
H3532 C3538 0.930 . S
H3533 C3541 0.930 . S
H3534 C3542 0.930 . S
H3535 C3543 0.930 . S
H3536 C3546 0.930 . S
H3537 C3547 0.930 . S
C3538 H3532 0.930 . S
C3538 C3539 1.355 . S
C3538 C3540 1.415 . S
C3539 C3538 1.355 . S
C3539 C3541 1.419 . S
C3540 C3538 1.415 . S
C3540 C3545 1.425 . S
C3540 C3547 1.409 . S
C3541 H3533 0.930 . S
C3541 C3539 1.419 . S
C3541 C3542 1.362 . S
C3542 H3534 0.930 . S
C3542 C3541 1.362 . S
C3542 C3545 1.409 . S
C3543 H3535 0.930 . S
C3543 C3544 1.355 . S
C3543 C3545 1.415 . S
C3544 C3543 1.355 . S
C3544 C3546 1.419 . S
C3545 C3540 1.425 . S
C3545 C3542 1.409 . S
C3545 C3543 1.415 . S
C3546 H3536 0.930 . S
C3546 C3544 1.419 . S
C3546 C3547 1.362 . S
C3547 H3537 0.930 . S
C3547 C3540 1.409 . S
C3547 C3546 1.362 . S
H3548 C3554 0.930 . S
H3549 C3557 0.930 . S
H3550 C3558 0.930 . S
H3551 C3559 0.930 . S
H3552 C3562 0.930 . S
H3553 C3563 0.930 . S
C3554 H3548 0.930 . S
C3554 C3555 1.355 . S
C3554 C3556 1.415 . S
C3555 C3554 1.355 . S
C3555 C3557 1.419 . S
C3556 C3554 1.415 . S
C3556 C3561 1.425 . S
C3556 C3563 1.409 . S
C3557 H3549 0.930 . S
C3557 C3555 1.419 . S
C3557 C3558 1.362 . S
C3558 H3550 0.930 . S
C3558 C3557 1.362 . S
C3558 C3561 1.409 . S
C3559 H3551 0.930 . S
C3559 C3560 1.355 . S
C3559 C3561 1.415 . S
C3560 C3559 1.355 . S
C3560 C3562 1.419 . S
C3561 C3556 1.425 . S
C3561 C3558 1.409 . S
C3561 C3559 1.415 . S
C3562 H3552 0.930 . S
C3562 C3560 1.419 . S
C3562 C3563 1.362 . S
C3563 H3553 0.930 . S
C3563 C3556 1.409 . S
C3563 C3562 1.362 . S
H3564 C3570 0.930 . S
H3565 C3573 0.930 . S
H3566 C3574 0.930 . S
H3567 C3575 0.930 . S
H3568 C3578 0.930 . S
H3569 C3579 0.930 . S
C3570 H3564 0.930 . S
C3570 C3571 1.355 . S
C3570 C3572 1.415 . S
C3571 C3570 1.355 . S
C3571 C3573 1.419 1_565 S
C3572 C3570 1.415 . S
C3572 C3577 1.442 . S
C3572 C3579 1.409 . S
C3573 H3565 0.930 . S
C3573 C3571 1.419 1_545 S
C3573 C3574 1.362 . S
C3574 H3566 0.930 . S
C3574 C3573 1.362 . S
C3574 C3577 1.416 1_545 S
C3575 H3567 0.930 . S
C3575 C3576 1.355 1_545 S
C3575 C3577 1.394 1_545 S
C3576 C3575 1.355 1_565 S
C3576 C3578 1.419 . S
C3577 C3572 1.442 . S
C3577 C3574 1.416 1_565 S
C3577 C3575 1.394 1_565 S
C3578 H3568 0.930 . S
C3578 C3576 1.419 . S
C3578 C3579 1.362 . S
C3579 H3569 0.930 . S
C3579 C3572 1.409 . S
C3579 C3578 1.362 . S
H3580 C3586 0.930 . S
H3581 C3589 0.930 . S
H3582 C3590 0.930 . S
H3583 C3591 0.930 . S
H3584 C3594 0.930 . S
H3585 C3595 0.930 . S
C3586 H3580 0.930 . S
C3586 C3587 1.355 . S
C3586 C3588 1.415 . S
C3587 C3586 1.355 . S
C3587 C3589 1.419 1_455 S
C3588 C3586 1.415 . S
C3588 C3593 1.425 1_455 S
C3588 C3595 1.409 . S
C3589 H3581 0.930 . S
C3589 C3587 1.419 1_655 S
C3589 C3590 1.362 . S
C3590 H3582 0.930 . S
C3590 C3589 1.362 . S
C3590 C3593 1.409 . S
C3591 H3583 0.930 . S
C3591 C3592 1.355 1_655 S
C3591 C3593 1.415 . S
C3592 C3591 1.355 1_455 S
C3592 C3594 1.419 . S
C3593 C3588 1.425 1_655 S
C3593 C3590 1.409 . S
C3593 C3591 1.415 . S
C3594 H3584 0.930 . S
C3594 C3592 1.419 . S
C3594 C3595 1.362 . S
C3595 H3585 0.930 . S
C3595 C3588 1.409 . S
C3595 C3594 1.362 . S
H3596 C3602 0.930 . S
H3597 C3605 0.930 . S
H3598 C3606 0.930 . S
H3599 C3607 0.930 . S
H3600 C3610 0.930 . S
H3601 C3611 0.930 . S
C3602 H3596 0.930 . S
C3602 C3603 1.355 . S
C3602 C3604 1.415 . S
C3603 C3602 1.355 . S
C3603 C3605 1.419 . S
C3604 C3602 1.415 . S
C3604 C3609 1.425 . S
C3604 C3611 1.409 . S
C3605 H3597 0.930 . S
C3605 C3603 1.419 . S
C3605 C3606 1.362 . S
C3606 H3598 0.930 . S
C3606 C3605 1.362 . S
C3606 C3609 1.409 . S
C3607 H3599 0.930 . S
C3607 C3608 1.355 . S
C3607 C3609 1.415 . S
C3608 C3607 1.355 . S
C3608 C3610 1.419 . S
C3609 C3604 1.425 . S
C3609 C3606 1.409 . S
C3609 C3607 1.415 . S
C3610 H3600 0.930 . S
C3610 C3608 1.419 . S
C3610 C3611 1.362 . S
C3611 H3601 0.930 . S
C3611 C3604 1.409 . S
C3611 C3610 1.362 . S
H3612 C3618 0.930 . S
H3613 C3621 0.930 . S
H3614 C3622 0.930 . S
H3615 C3623 0.930 . S
H3616 C3626 0.930 . S
H3617 C3627 0.930 . S
C3618 H3612 0.930 . S
C3618 C3619 1.355 . S
C3618 C3620 1.415 . S
C3619 C3618 1.355 . S
C3619 C3621 1.419 . S
C3620 C3618 1.415 . S
C3620 C3625 1.425 . S
C3620 C3627 1.409 . S
C3621 H3613 0.930 . S
C3621 C3619 1.419 . S
C3621 C3622 1.362 . S
C3622 H3614 0.930 . S
C3622 C3621 1.362 . S
C3622 C3625 1.409 . S
C3623 H3615 0.930 . S
C3623 C3624 1.355 . S
C3623 C3625 1.415 . S
C3624 C3623 1.355 . S
C3624 C3626 1.419 . S
C3625 C3620 1.425 . S
C3625 C3622 1.409 . S
C3625 C3623 1.415 . S
C3626 H3616 0.930 . S
C3626 C3624 1.419 . S
C3626 C3627 1.362 . S
C3627 H3617 0.930 . S
C3627 C3620 1.409 . S
C3627 C3626 1.362 . S
H3628 C3634 0.930 . S
H3629 C3637 0.930 . S
H3630 C3638 0.930 . S
H3631 C3639 0.930 . S
H3632 C3642 0.930 . S
H3633 C3643 0.930 . S
C3634 H3628 0.930 . S
C3634 C3635 1.355 . S
C3634 C3636 1.415 . S
C3635 C3634 1.355 . S
C3635 C3637 1.419 . S
C3636 C3634 1.415 . S
C3636 C3641 1.425 . S
C3636 C3643 1.409 . S
C3637 H3629 0.930 . S
C3637 C3635 1.419 . S
C3637 C3638 1.362 . S
C3638 H3630 0.930 . S
C3638 C3637 1.362 . S
C3638 C3641 1.409 . S
C3639 H3631 0.930 . S
C3639 C3640 1.355 . S
C3639 C3641 1.415 . S
C3640 C3639 1.355 . S
C3640 C3642 1.419 . S
C3641 C3636 1.425 . S
C3641 C3638 1.409 . S
C3641 C3639 1.415 . S
C3642 H3632 0.930 . S
C3642 C3640 1.419 . S
C3642 C3643 1.362 . S
C3643 H3633 0.930 . S
C3643 C3636 1.409 . S
C3643 C3642 1.362 . S
H3644 C3650 0.930 . S
H3645 C3653 0.930 . S
H3646 C3654 0.930 . S
H3647 C3655 0.930 . S
H3648 C3658 0.930 . S
H3649 C3659 0.930 . S
C3650 H3644 0.930 . S
C3650 C3651 1.355 . S
C3650 C3652 1.415 . S
C3651 C3650 1.355 . S
C3651 C3653 1.419 . S
C3652 C3650 1.415 . S
C3652 C3657 1.425 . S
C3652 C3659 1.409 . S
C3653 H3645 0.930 . S
C3653 C3651 1.419 . S
C3653 C3654 1.362 . S
C3654 H3646 0.930 . S
C3654 C3653 1.362 . S
C3654 C3657 1.409 . S
C3655 H3647 0.930 . S
C3655 C3656 1.355 . S
C3655 C3657 1.415 . S
C3656 C3655 1.355 . S
C3656 C3658 1.419 . S
C3657 C3652 1.425 . S
C3657 C3654 1.409 . S
C3657 C3655 1.415 . S
C3658 H3648 0.930 . S
C3658 C3656 1.419 . S
C3658 C3659 1.362 . S
C3659 H3649 0.930 . S
C3659 C3652 1.409 . S
C3659 C3658 1.362 . S
H3660 C3666 0.930 . S
H3661 C3669 0.930 1_565 S
H3662 C3670 0.930 . S
H3663 C3671 0.930 1_565 S
H3664 C3674 0.930 . S
H3665 C3675 0.930 . S
C3666 H3660 0.930 . S
C3666 C3667 1.355 . S
C3666 C3668 1.415 . S
C3667 C3666 1.355 . S
C3667 C3669 1.419 . S
C3668 C3666 1.415 . S
C3668 C3673 1.425 . S
C3668 C3675 1.409 . S
C3669 H3661 0.930 1_545 S
C3669 C3667 1.419 . S
C3669 C3670 1.362 1_545 S
C3670 H3662 0.930 . S
C3670 C3669 1.362 1_565 S
C3670 C3673 1.409 1_565 S
C3671 H3663 0.930 1_545 S
C3671 C3672 1.355 . S
C3671 C3673 1.415 . S
C3672 C3671 1.355 . S
C3672 C3674 1.419 . S
C3673 C3668 1.425 . S
C3673 C3670 1.409 1_545 S
C3673 C3671 1.415 . S
C3674 H3664 0.930 . S
C3674 C3672 1.419 . S
C3674 C3675 1.362 . S
C3675 H3665 0.930 . S
C3675 C3668 1.409 . S
C3675 C3674 1.362 . S
H3676 C3682 0.930 . S
H3677 C3685 0.930 . S
H3678 C3686 0.930 . S
H3679 C3687 0.930 . S
H3680 C3690 0.930 . S
H3681 C3691 0.930 . S
C3682 H3676 0.930 . S
C3682 C3683 1.355 . S
C3682 C3684 1.415 . S
C3683 C3682 1.355 . S
C3683 C3685 1.419 1_655 S
C3684 C3682 1.415 . S
C3684 C3689 1.425 . S
C3684 C3691 1.409 . S
C3685 H3677 0.930 . S
C3685 C3683 1.419 1_455 S
C3685 C3686 1.362 . S
C3686 H3678 0.930 . S
C3686 C3685 1.362 . S
C3686 C3689 1.409 1_455 S
C3687 H3679 0.930 . S
C3687 C3688 1.355 1_455 S
C3687 C3689 1.415 1_455 S
C3688 C3687 1.355 1_655 S
C3688 C3690 1.419 . S
C3689 C3684 1.425 . S
C3689 C3686 1.409 1_655 S
C3689 C3687 1.415 1_655 S
C3690 H3680 0.930 . S
C3690 C3688 1.419 . S
C3690 C3691 1.362 . S
C3691 H3681 0.930 . S
C3691 C3684 1.409 . S
C3691 C3690 1.362 . S
H3692 C3698 0.930 . S
H3693 C3701 0.930 . S
H3694 C3702 0.930 . S
H3695 C3703 0.930 . S
H3696 C3706 0.930 . S
H3697 C3707 0.930 . S
C3698 H3692 0.930 . S
C3698 C3699 1.355 . S
C3698 C3700 1.415 . S
C3699 C3698 1.355 . S
C3699 C3701 1.419 . S
C3700 C3698 1.415 . S
C3700 C3705 1.425 . S
C3700 C3707 1.409 . S
C3701 H3693 0.930 . S
C3701 C3699 1.419 . S
C3701 C3702 1.362 . S
C3702 H3694 0.930 . S
C3702 C3701 1.362 . S
C3702 C3705 1.409 . S
C3703 H3695 0.930 . S
C3703 C3704 1.355 . S
C3703 C3705 1.415 . S
C3704 C3703 1.355 . S
C3704 C3706 1.419 . S
C3705 C3700 1.425 . S
C3705 C3702 1.409 . S
C3705 C3703 1.415 . S
C3706 H3696 0.930 . S
C3706 C3704 1.419 . S
C3706 C3707 1.362 . S
C3707 H3697 0.930 . S
C3707 C3700 1.409 . S
C3707 C3706 1.362 . S
H3708 C3714 0.930 . S
H3709 C3717 0.930 . S
H3710 C3718 0.930 . S
H3711 C3719 0.930 . S
H3712 C3722 0.930 . S
H3713 C3723 0.930 . S
C3714 H3708 0.930 . S
C3714 C3715 1.355 . S
C3714 C3716 1.415 . S
C3715 C3714 1.355 . S
C3715 C3717 1.419 . S
C3716 C3714 1.415 . S
C3716 C3721 1.425 . S
C3716 C3723 1.409 . S
C3717 H3709 0.930 . S
C3717 C3715 1.419 . S
C3717 C3718 1.362 . S
C3718 H3710 0.930 . S
C3718 C3717 1.362 . S
C3718 C3721 1.409 . S
C3719 H3711 0.930 . S
C3719 C3720 1.355 . S
C3719 C3721 1.415 . S
C3720 C3719 1.355 . S
C3720 C3722 1.419 . S
C3721 C3716 1.425 . S
C3721 C3718 1.409 . S
C3721 C3719 1.415 . S
C3722 H3712 0.930 . S
C3722 C3720 1.419 . S
C3722 C3723 1.362 . S
C3723 H3713 0.930 . S
C3723 C3716 1.409 . S
C3723 C3722 1.362 . S
H3724 C3730 0.930 . S
H3725 C3733 0.930 . S
H3726 C3734 0.930 . S
H3727 C3735 0.930 . S
H3728 C3738 0.930 . S
H3729 C3739 0.930 . S
C3730 H3724 0.930 . S
C3730 C3731 1.355 . S
C3730 C3732 1.415 . S
C3731 C3730 1.355 . S
C3731 C3733 1.419 . S
C3732 C3730 1.415 . S
C3732 C3737 1.425 . S
C3732 C3739 1.409 . S
C3733 H3725 0.930 . S
C3733 C3731 1.419 . S
C3733 C3734 1.362 . S
C3734 H3726 0.930 . S
C3734 C3733 1.362 . S
C3734 C3737 1.409 . S
C3735 H3727 0.930 . S
C3735 C3736 1.355 . S
C3735 C3737 1.415 . S
C3736 C3735 1.355 . S
C3736 C3738 1.419 . S
C3737 C3732 1.425 . S
C3737 C3734 1.409 . S
C3737 C3735 1.415 . S
C3738 H3728 0.930 . S
C3738 C3736 1.419 . S
C3738 C3739 1.362 . S
C3739 H3729 0.930 . S
C3739 C3732 1.409 . S
C3739 C3738 1.362 . S
H3740 C3746 0.930 . S
H3741 C3749 0.930 . S
H3742 C3750 0.930 . S
H3743 C3751 0.930 . S
H3744 C3754 0.930 . S
H3745 C3755 0.930 . S
C3746 H3740 0.930 . S
C3746 C3747 1.355 . S
C3746 C3748 1.415 . S
C3747 C3746 1.355 . S
C3747 C3749 1.419 . S
C3748 C3746 1.415 . S
C3748 C3753 1.425 . S
C3748 C3755 1.409 . S
C3749 H3741 0.930 . S
C3749 C3747 1.419 . S
C3749 C3750 1.362 . S
C3750 H3742 0.930 . S
C3750 C3749 1.362 . S
C3750 C3753 1.409 . S
C3751 H3743 0.930 . S
C3751 C3752 1.355 . S
C3751 C3753 1.415 . S
C3752 C3751 1.355 . S
C3752 C3754 1.419 . S
C3753 C3748 1.425 . S
C3753 C3750 1.409 . S
C3753 C3751 1.415 . S
C3754 H3744 0.930 . S
C3754 C3752 1.419 . S
C3754 C3755 1.362 . S
C3755 H3745 0.930 . S
C3755 C3748 1.409 . S
C3755 C3754 1.362 . S
H3756 C3762 0.930 . S
H3757 C3765 0.930 . S
H3758 C3766 0.930 . S
H3759 C3767 0.930 . S
H3760 C3770 0.930 . S
H3761 C3771 0.930 . S
C3762 H3756 0.930 . S
C3762 C3763 1.355 . S
C3762 C3764 1.415 . S
C3763 C3762 1.355 . S
C3763 C3765 1.419 . S
C3764 C3762 1.415 . S
C3764 C3769 1.425 . S
C3764 C3771 1.409 . S
C3765 H3757 0.930 . S
C3765 C3763 1.419 . S
C3765 C3766 1.362 . S
C3766 H3758 0.930 . S
C3766 C3765 1.362 . S
C3766 C3769 1.409 . S
C3767 H3759 0.930 . S
C3767 C3768 1.355 . S
C3767 C3769 1.415 . S
C3768 C3767 1.355 . S
C3768 C3770 1.419 . S
C3769 C3764 1.425 . S
C3769 C3766 1.409 . S
C3769 C3767 1.415 . S
C3770 H3760 0.930 . S
C3770 C3768 1.419 . S
C3770 C3771 1.362 . S
C3771 H3761 0.930 . S
C3771 C3764 1.409 . S
C3771 C3770 1.362 . S
H3772 C3778 0.930 . S
H3773 C3781 0.930 . S
H3774 C3782 0.930 . S
H3775 C3783 0.930 . S
H3776 C3786 0.930 . S
H3777 C3787 0.930 . S
C3778 H3772 0.930 . S
C3778 C3779 1.355 . S
C3778 C3780 1.415 . S
C3779 C3778 1.355 . S
C3779 C3781 1.419 . S
C3780 C3778 1.415 . S
C3780 C3785 1.425 . S
C3780 C3787 1.409 . S
C3781 H3773 0.930 . S
C3781 C3779 1.419 . S
C3781 C3782 1.362 . S
C3782 H3774 0.930 . S
C3782 C3781 1.362 . S
C3782 C3785 1.409 . S
C3783 H3775 0.930 . S
C3783 C3784 1.355 . S
C3783 C3785 1.415 . S
C3784 C3783 1.355 . S
C3784 C3786 1.419 . S
C3785 C3780 1.425 . S
C3785 C3782 1.409 . S
C3785 C3783 1.415 . S
C3786 H3776 0.930 . S
C3786 C3784 1.419 . S
C3786 C3787 1.362 . S
C3787 H3777 0.930 . S
C3787 C3780 1.409 . S
C3787 C3786 1.362 . S
H3788 C3794 0.930 . S
H3789 C3797 0.930 . S
H3790 C3798 0.930 . S
H3791 C3799 0.930 . S
H3792 C3802 0.930 . S
H3793 C3803 0.930 . S
C3794 H3788 0.930 . S
C3794 C3795 1.355 . S
C3794 C3796 1.415 . S
C3795 C3794 1.355 . S
C3795 C3797 1.419 . S
C3796 C3794 1.415 . S
C3796 C3801 1.425 . S
C3796 C3803 1.409 . S
C3797 H3789 0.930 . S
C3797 C3795 1.419 . S
C3797 C3798 1.362 . S
C3798 H3790 0.930 . S
C3798 C3797 1.362 . S
C3798 C3801 1.409 . S
C3799 H3791 0.930 . S
C3799 C3800 1.355 . S
C3799 C3801 1.415 . S
C3800 C3799 1.355 . S
C3800 C3802 1.419 . S
C3801 C3796 1.425 . S
C3801 C3798 1.409 . S
C3801 C3799 1.415 . S
C3802 H3792 0.930 . S
C3802 C3800 1.419 . S
C3802 C3803 1.362 . S
C3803 H3793 0.930 . S
C3803 C3796 1.409 . S
C3803 C3802 1.362 . S
H3804 C3810 0.930 . S
H3805 C3813 0.930 . S
H3806 C3814 0.930 . S
H3807 C3815 0.930 . S
H3808 C3818 0.930 . S
H3809 C3819 0.930 . S
C3810 H3804 0.930 . S
C3810 C3811 1.355 1_455 S
C3810 C3812 1.399 . S
C3811 C3810 1.355 1_655 S
C3811 C3813 1.419 . S
C3812 C3810 1.399 . S
C3812 C3817 1.401 1_455 S
C3812 C3819 1.449 . S
C3813 H3805 0.930 . S
C3813 C3811 1.419 . S
C3813 C3814 1.362 . S
C3814 H3806 0.930 . S
C3814 C3813 1.362 . S
C3814 C3817 1.409 . S
C3815 H3807 0.930 . S
C3815 C3816 1.355 . S
C3815 C3817 1.415 . S
C3816 C3815 1.355 . S
C3816 C3818 1.419 1_655 S
C3817 C3812 1.401 1_655 S
C3817 C3814 1.409 . S
C3817 C3815 1.415 . S
C3818 H3808 0.930 . S
C3818 C3816 1.419 1_455 S
C3818 C3819 1.362 . S
C3819 H3809 0.930 . S
C3819 C3812 1.449 . S
C3819 C3818 1.362 . S
H3820 C3826 0.930 . S
H3821 C3829 0.930 . S
H3822 C3830 0.930 . S
H3823 C3831 0.930 . S
H3824 C3834 0.930 . S
H3825 C3835 0.930 . S
C3826 H3820 0.930 . S
C3826 C3827 1.355 . S
C3826 C3828 1.415 . S
C3827 C3826 1.355 . S
C3827 C3829 1.419 . S
C3828 C3826 1.415 . S
C3828 C3833 1.425 . S
C3828 C3835 1.409 . S
C3829 H3821 0.930 . S
C3829 C3827 1.419 . S
C3829 C3830 1.362 . S
C3830 H3822 0.930 . S
C3830 C3829 1.362 . S
C3830 C3833 1.409 . S
C3831 H3823 0.930 . S
C3831 C3832 1.355 . S
C3831 C3833 1.415 . S
C3832 C3831 1.355 . S
C3832 C3834 1.419 . S
C3833 C3828 1.425 . S
C3833 C3830 1.409 . S
C3833 C3831 1.415 . S
C3834 H3824 0.930 . S
C3834 C3832 1.419 . S
C3834 C3835 1.362 . S
C3835 H3825 0.930 . S
C3835 C3828 1.409 . S
C3835 C3834 1.362 . S
H3836 C3842 0.980 . S
H3837 C3845 0.930 . S
H3838 C3846 0.930 . S
H3839 C3847 0.930 . S
H3840 C3850 0.930 . S
H3841 C3851 0.930 . S
C3842 H3836 0.980 . S
C3842 C3843 1.355 . S
C3842 C3844 1.415 . S
C3843 C3842 1.355 . S
C3843 C3845 1.419 . S
C3844 C3842 1.415 . S
C3844 C3849 1.425 . S
C3844 C3851 1.409 1_545 S
C3845 H3837 0.930 . S
C3845 C3843 1.419 . S
C3845 C3846 1.362 . S
C3846 H3838 0.930 . S
C3846 C3845 1.362 . S
C3846 C3849 1.409 . S
C3847 H3839 0.930 . S
C3847 C3848 1.355 . S
C3847 C3849 1.415 . S
C3848 C3847 1.355 . S
C3848 C3850 1.419 1_545 S
C3849 C3844 1.425 . S
C3849 C3846 1.409 . S
C3849 C3847 1.415 . S
C3850 H3840 0.930 . S
C3850 C3848 1.419 1_565 S
C3850 C3851 1.362 . S
C3851 H3841 0.930 . S
C3851 C3844 1.409 1_565 S
C3851 C3850 1.362 . S
C2707 C4 1.336 . S
C2712 C1703 1.167 . S
C2723 C38 1.915 . S
C2728 C1843 1.195 . S
C2744 C1931 1.120 . S
C2739 C74 1.354 . S
C2755 C76 1.377 . S
C2760 C2071 1.096 1_565 S
C2771 C2 1.437 . S
C2776 C2185 1.223 . S
C2787 C40 1.714 . S
C2792 C2273 1.168 . S
C2803 C110 1.378 . S
C2808 C2159 1.193 . S
C2824 C2299 1.462 . S
C2819 C148 1.637 . S
C2840 C2045 1.088 . S
C2835 C182 1.343 . S
C2851 C184 1.439 . S
C2856 C1957 1.144 . S
C2872 C1729 0.951 . S
C2867 C112 1.322 . S
C2883 C146 1.709 . S
C2888 C1817 1.560 . S
C2899 C220 1.838 . S
C2904 C2387 1.367 . S
C2915 C254 2.018 . S
C2920 C2527 1.259 . S
C2936 C2615 1.352 . S
C2931 C290 1.848 . S
C2947 C292 1.765 . S
C2952 C703 1.044 . S
C2963 C218 1.926 . S
C2968 C817 1.177 . S
C2979 C256 1.795 . S
C2984 C905 1.286 . S
C2995 C326 1.696 . S
C3000 C791 1.513 . S
C3011 C364 1.725 . S
C3016 C931 1.520 . S
C3032 C677 1.633 . S
C3027 C398 1.778 . S
C3048 C2641 1.617 . S
C3043 C400 1.827 . S
C3064 C2413 1.382 . S
C3059 C328 1.613 . S
C3080 C2501 1.697 . S
C3075 C362 1.814 . S
C3091 C436 1.714 . S
C3096 C1019 1.279 . S
C3107 C470 2.000 . S
C3112 C1159 1.267 . S
C3123 C506 1.855 . S
C3128 C1247 1.276 . S
C3139 C508 1.904 . S
C3144 C1387 1.261 . S
C3160 C1501 1.175 . S
C3155 C434 1.894 . S
C3176 C1589 1.250 . S
C3171 C472 1.806 . S
C3192 C1475 1.660 . S
C3187 C542 1.838 . S
C3208 C1615 1.573 . S
C3203 C580 1.743 . S
C3219 C614 1.741 . S
C3224 C1361 1.624 . S
C3240 C1273 1.519 . S
C3235 C616 1.688 . S
C3251 C544 1.649 . S
C3256 C1045 1.378 . S
C3272 C1133 1.593 . S
C3267 C578 1.766 . S
C3288 C659 1.122 . S
C3283 C14 1.920 . S
C3299 C39 1.717 . S
C3304 C773 0.932 . S
C3320 C877 1.289 . S
C3315 C75 1.737 . S
C3336 C991 1.222 . S
C3331 C86 1.622 . S
C3352 C1115 1.035 . S
C3347 C3 1.803 . S
C3368 C1219 1.181 . S
C3363 C50 1.719 . S
C3379 C111 1.937 . S
C3384 C1229 1.489 . S
C3395 C158 1.800 . S
C3400 C1001 1.388 . S
C3411 C183 1.983 . S
C3416 C1105 1.838 . S
C3427 C194 1.892 . S
C3432 C763 1.721 . S
C3448 C887 1.554 . S
C3443 C122 1.921 . S
C3459 C147 1.749 . S
C3464 C649 1.586 . S
C3480 C1343 0.928 . S
C3475 C230 1.817 . S
C3491 C255 1.849 . S
C3496 C1457 1.117 . S
C3507 C291 1.766 . S
C3512 C1561 1.389 . S
C3528 C1675 1.010 . S
C3523 C302 1.115 . S
C3539 C219 1.693 . S
C3544 C1799 0.885 . S
C3555 C266 1.322 . S
C3560 C1903 1.205 . S
C3571 C327 1.379 . S
C3576 C1913 0.850 1_565 S
C3587 C374 1.326 . S
C3592 C1685 1.005 1_455 S
C3608 C1789 1.664 . S
C3603 C399 1.913 . S
C3619 C410 1.802 . S
C3624 C1447 1.623 . S
C3635 C338 1.907 . S
C3640 C1571 1.551 . S
C3656 C1333 1.722 . S
C3651 C363 1.867 . S
C3672 C2027 0.817 . S
C3667 C446 1.409 . S
C3683 C471 1.340 . S
C3688 C2141 0.848 . S
C3699 C507 1.661 . S
C3704 C2245 1.287 . S
C3720 C2359 1.145 . S
C3715 C518 1.551 . S
C3736 C2483 0.968 . S
C3731 C435 1.819 . S
C3747 C482 1.829 . S
C3752 C2587 1.424 . S
C3763 C543 1.838 . S
C3768 C2597 1.518 . S
C3779 C590 1.917 . S
C3784 C2369 1.500 . S
C3800 C2473 1.783 . S
C3795 C615 2.002 . S
C3816 C2131 1.088 1_655 S
C3811 C626 1.222 . S
C3832 C2255 1.353 . S
C3827 C554 1.802 . S
C3843 C579 1.307 . S
C3848 C2017 1.157 1_545 S
