# Generated by pormake.
# Topology ssa, (4,4)-cn, num edge types: 1
# Building blocks:
#     Node 0, Type 0, BuildingBlock: KOZSID_clean_sbu_0, # of connection points: 4
#     Node 1, Type 0, BuildingBlock: KOZSID_clean_sbu_0, # of connection points: 4
#     Node 2, Type 0, BuildingBlock: KOZSID_clean_sbu_0, # of connection points: 4
#     Node 3, Type 0, BuildingBlock: KOZSID_clean_sbu_0, # of connection points: 4
#     Node 4, Type 0, BuildingBlock: KOZSID_clean_sbu_0, # of connection points: 4
#     Node 5, Type 0, BuildingBlock: KOZSID_clean_sbu_0, # of connection points: 4
#     Node 6, Type 1, BuildingBlock: MUDLON_clean_linker_0, # of connection points: 4
#     Node 7, Type 1, BuildingBlock: MUDLON_clean_linker_0, # of connection points: 4
#     Node 8, Type 1, BuildingBlock: MUDLON_clean_linker_0, # of connection points: 4
#     Node 9, Type 1, BuildingBlock: MUDLON_clean_linker_0, # of connection points: 4
#     Node 10, Type 1, BuildingBlock: MUDLON_clean_linker_0, # of connection points: 4
#     Node 11, Type 1, BuildingBlock: MUDLON_clean_linker_0, # of connection points: 4
#     Edge 12, Type (0, 1), BuildingBlock: MIFKUJ_clean_linker_0, # of connection points: 2
#     Edge 13, Type (0, 1), BuildingBlock: MIFKUJ_clean_linker_0, # of connection points: 2
#     Edge 14, Type (0, 1), BuildingBlock: MIFKUJ_clean_linker_0, # of connection points: 2
#     Edge 15, Type (0, 1), BuildingBlock: MIFKUJ_clean_linker_0, # of connection points: 2
#     Edge 16, Type (0, 1), BuildingBlock: MIFKUJ_clean_linker_0, # of connection points: 2
#     Edge 17, Type (0, 1), BuildingBlock: MIFKUJ_clean_linker_0, # of connection points: 2
#     Edge 18, Type (0, 1), BuildingBlock: MIFKUJ_clean_linker_0, # of connection points: 2
#     Edge 19, Type (0, 1), BuildingBlock: MIFKUJ_clean_linker_0, # of connection points: 2
#     Edge 20, Type (0, 1), BuildingBlock: MIFKUJ_clean_linker_0, # of connection points: 2
#     Edge 21, Type (0, 1), BuildingBlock: MIFKUJ_clean_linker_0, # of connection points: 2
#     Edge 22, Type (0, 1), BuildingBlock: MIFKUJ_clean_linker_0, # of connection points: 2
#     Edge 23, Type (0, 1), BuildingBlock: MIFKUJ_clean_linker_0, # of connection points: 2
#     Edge 24, Type (0, 1), BuildingBlock: MIFKUJ_clean_linker_0, # of connection points: 2
#     Edge 25, Type (0, 1), BuildingBlock: MIFKUJ_clean_linker_0, # of connection points: 2
#     Edge 26, Type (0, 1), BuildingBlock: MIFKUJ_clean_linker_0, # of connection points: 2
#     Edge 27, Type (0, 1), BuildingBlock: MIFKUJ_clean_linker_0, # of connection points: 2
#     Edge 28, Type (0, 1), BuildingBlock: MIFKUJ_clean_linker_0, # of connection points: 2
#     Edge 29, Type (0, 1), BuildingBlock: MIFKUJ_clean_linker_0, # of connection points: 2
#     Edge 30, Type (0, 1), BuildingBlock: MIFKUJ_clean_linker_0, # of connection points: 2
#     Edge 31, Type (0, 1), BuildingBlock: MIFKUJ_clean_linker_0, # of connection points: 2
#     Edge 32, Type (0, 1), BuildingBlock: MIFKUJ_clean_linker_0, # of connection points: 2
#     Edge 33, Type (0, 1), BuildingBlock: MIFKUJ_clean_linker_0, # of connection points: 2
#     Edge 34, Type (0, 1), BuildingBlock: MIFKUJ_clean_linker_0, # of connection points: 2
#     Edge 35, Type (0, 1), BuildingBlock: MIFKUJ_clean_linker_0, # of connection points: 2
# Relax obj value: 0.005
# Max RMSD: 0.044
# Mean RMSD: 0.024
data_MOF--net-ssa--node1-KOZSID_clean_sbu_0--node2-MUDLON_clean_linker_0--edge1-MIFKUJ_clean_linker_0
_symmetry_space_group_name_H-M    P1
_symmetry_Int_Tables_number       1
_symmetry_cell_setting            triclinic
loop_
_symmetry_equiv_pos_as_xyz
'x, y, z'
_cell_length_a     90.118419
_cell_length_b     91.645805
_cell_length_c     51.170708
_cell_angle_alpha  87.995559
_cell_angle_beta   89.924291
_cell_angle_gamma 121.61423
loop_
_atom_site_label
_atom_site_type_symbol
_atom_site_fract_x
_atom_site_fract_y
_atom_site_fract_z
_atom_type_partial_charge
C0 C 0.97809 0.50272 0.04295 0.0
C1 C 0.9635 0.49884 0.05789 0.0
C2 C 0.96345 0.48982 0.07968 0.0
C3 C 0.97787 0.48859 0.07673 0.0
N4 N 0.98731 0.49651 0.05456 0.0
Co5 Co 0.00839 0.49659 0.04151 0.0
N6 N 0.00779 0.48257 0.07298 0.0
C7 C 0.99656 0.47713 0.09372 0.0
C8 C 0.99993 0.46858 0.11303 0.0
C9 C 0.01434 0.46876 0.1043 0.0
C10 C 0.01887 0.47737 0.07999 0.0
N11 N 0.02902 0.49609 0.0279 0.0
C12 C 0.03768 0.48908 0.03877 0.0
C13 C 0.05117 0.49139 0.02254 0.0
C14 C 0.05122 0.50046 0.00079 0.0
C15 C 0.03776 0.50305 0.00489 0.0
N16 N 0.00942 0.51114 0.01056 0.0
C17 C 0.02164 0.51796 0.99105 0.0
C18 C 0.01911 0.5277 0.97279 0.0
C19 C 0.0043 0.52695 0.98098 0.0
C20 C 0.99857 0.51662 0.00375 0.0
N21 N 0.02405 0.51779 0.06038 0.0
C22 C 0.04647 0.54776 0.08709 0.0
C23 C 0.05144 0.5448 0.06299 0.0
C24 C 0.04009 0.52995 0.04999 0.0
C25 C 0.03009 0.53553 0.09762 0.0
C26 C 0.01923 0.52068 0.08417 0.0
N27 N 0.99274 0.47547 0.02261 0.0
C28 C 0.98382 0.46045 0.98227 0.0
C29 C 0.96964 0.44618 0.99494 0.0
C30 C 0.9674 0.44671 0.02185 0.0
C31 C 0.979 0.46136 0.03519 0.0
C32 C 0.99511 0.47479 0.99633 0.0
H33 H 0.97649 0.46105 0.05562 0.0
H34 H 0.0056 0.48522 0.98544 0.0
H35 H 0.04464 0.52864 0.03156 0.0
H36 H 0.00706 0.51171 0.0935 0.0
C37 C 0.98286 0.48006 0.09434 0.0
C38 C 0.98231 0.51175 0.01745 0.0
C39 C 0.03414 0.48081 0.06477 0.0
C40 C 0.03418 0.51346 0.98893 0.0
H41 H 0.95374 0.50197 0.05335 0.0
H42 H 0.95389 0.48454 0.09558 0.0
H43 H 0.99286 0.46303 0.13137 0.0
H44 H 0.02088 0.46335 0.11481 0.0
H45 H 0.06028 0.4873 0.02634 0.0
H46 H 0.06035 0.5051 0.98435 0.0
H47 H 0.02676 0.53409 0.95514 0.0
H48 H 0.99817 0.53296 0.97098 0.0
H49 H 0.06398 0.55404 0.05399 0.0
H50 H 0.02579 0.53726 0.11641 0.0
H51 H 0.98634 0.46054 0.96154 0.0
H52 H 0.95655 0.436 0.03254 0.0
C53 C 0.55774 0.02058 0.54569 0.0
C54 C 0.56185 0.01618 0.56968 0.0
C55 C 0.5473 0.00139 0.57864 0.0
C56 C 0.53525 0.99752 0.55961 0.0
N57 N 0.54126 0.00886 0.53888 0.0
Co58 Co 0.52826 0.00775 0.50647 0.0
N59 N 0.50629 0.98702 0.52092 0.0
C60 C 0.50382 0.97941 0.54499 0.0
C61 C 0.48736 0.96544 0.5494 0.0
C62 C 0.47879 0.96399 0.52676 0.0
C63 C 0.49059 0.97722 0.50978 0.0
N64 N 0.5155 0.00615 0.47354 0.0
C65 C 0.49916 0.99418 0.46654 0.0
C66 C 0.49561 0.99758 0.44141 0.0
C67 C 0.51034 0.01203 0.43201 0.0
C68 C 0.52198 0.01663 0.45185 0.0
N69 N 0.55002 0.02896 0.49255 0.0
C70 C 0.55207 0.0374 0.46932 0.0
C71 C 0.56796 0.05228 0.46592 0.0
C72 C 0.57653 0.0536 0.48849 0.0
C73 C 0.56536 0.0393 0.50434 0.0
N74 N 0.53564 0.99289 0.49098 0.0
C75 C 0.54439 0.97087 0.46764 0.0
C76 C 0.54839 0.98633 0.45508 0.0
C77 C 0.54394 0.99705 0.46698 0.0
C78 C 0.53623 0.96678 0.49231 0.0
C79 C 0.53208 0.9779 0.50356 0.0
N80 N 0.52084 0.02258 0.52193 0.0
C81 C 0.51434 0.04502 0.5173 0.0
C82 C 0.51149 0.04438 0.54421 0.0
C83 C 0.51313 0.03253 0.55978 0.0
C84 C 0.51759 0.0217 0.54831 0.0
C85 C 0.51913 0.0342 0.50667 0.0
H86 H 0.51838 0.01278 0.56122 0.0
H87 H 0.52152 0.03561 0.4861 0.0
H88 H 0.54716 0.00853 0.45621 0.0
H89 H 0.52586 0.974 0.52236 0.0
C90 C 0.51772 0.98447 0.56184 0.0
C91 C 0.56965 0.03642 0.53077 0.0
C92 C 0.48658 0.97937 0.48285 0.0
C93 C 0.53882 0.03104 0.4511 0.0
H94 H 0.57399 0.02318 0.57993 0.0
H95 H 0.54553 0.99458 0.59722 0.0
H96 H 0.48238 0.95694 0.56665 0.0
H97 H 0.46552 0.95402 0.52296 0.0
H98 H 0.48362 0.99034 0.43092 0.0
H99 H 0.51233 0.01843 0.413 0.0
H100 H 0.57264 0.06124 0.44919 0.0
H101 H 0.58942 0.06409 0.49287 0.0
H102 H 0.55459 0.99001 0.43583 0.0
H103 H 0.53312 0.95507 0.50302 0.0
H104 H 0.51328 0.05411 0.50456 0.0
H105 H 0.51081 0.0315 0.58074 0.0
C106 C 0.55769 0.52425 0.96931 0.0
C107 C 0.5636 0.53338 0.94548 0.0
C108 C 0.55018 0.53448 0.93554 0.0
C109 C 0.53688 0.52596 0.95371 0.0
N110 N 0.541 0.51955 0.9748 0.0
Co111 Co 0.52533 0.50582 0.00548 0.0
N112 N 0.50555 0.50739 0.99072 0.0
C113 C 0.50553 0.51519 0.96778 0.0
C114 C 0.49036 0.51488 0.9635 0.0
C115 C 0.48013 0.50659 0.98516 0.0
C116 C 0.48968 0.50226 0.00142 0.0
N117 N 0.50965 0.49206 0.0361 0.0
C118 C 0.49335 0.48828 0.04232 0.0
C119 C 0.48716 0.47861 0.06566 0.0
C120 C 0.50016 0.47651 0.07482 0.0
C121 C 0.51345 0.48491 0.05658 0.0
N122 N 0.54514 0.50436 0.02037 0.0
C123 C 0.54507 0.49639 0.04319 0.0
C124 C 0.56056 0.4975 0.04815 0.0
C125 C 0.57117 0.50664 0.0272 0.0
C126 C 0.56146 0.51054 0.01057 0.0
N127 N 0.5332 0.52723 0.02415 0.0
C128 C 0.5435 0.55734 0.0511 0.0
C129 C 0.54188 0.54284 0.06396 0.0
C130 C 0.53686 0.52811 0.05022 0.0
C131 C 0.53997 0.55649 0.02442 0.0
C132 C 0.53484 0.54143 0.01147 0.0
N133 N 0.5175 0.48437 0.98672 0.0
C134 C 0.5125 0.45573 0.98568 0.0
C135 C 0.50867 0.45483 0.95916 0.0
C136 C 0.50889 0.46877 0.94682 0.0
C137 C 0.51318 0.48322 0.96088 0.0
C138 C 0.51687 0.47049 0.99895 0.0
H139 H 0.51306 0.49333 0.95029 0.0
H140 H 0.51991 0.47041 0.01897 0.0
H141 H 0.53589 0.51754 0.06117 0.0
H142 H 0.53221 0.54159 0.99122 0.0
C143 C 0.52034 0.52362 0.95142 0.0
C144 C 0.56827 0.51997 0.98559 0.0
C145 C 0.48352 0.49412 0.02739 0.0
C146 C 0.53007 0.48747 0.05912 0.0
H147 H 0.57625 0.53855 0.93607 0.0
H148 H 0.55008 0.54061 0.91713 0.0
H149 H 0.48732 0.52047 0.94697 0.0
H150 H 0.46728 0.5044 0.98883 0.0
H151 H 0.47467 0.4739 0.07536 0.0
H152 H 0.50013 0.4701 0.093 0.0
H153 H 0.5637 0.49211 0.06486 0.0
H154 H 0.5845 0.50995 0.02435 0.0
H155 H 0.5442 0.54269 0.0847 0.0
H156 H 0.54128 0.56743 0.0134 0.0
H157 H 0.51258 0.44527 0.99607 0.0
H158 H 0.5057 0.46854 0.92638 0.0
C159 C 0.00823 0.47807 0.54957 0.0
C160 C 0.991 0.47001 0.5417 0.0
C161 C 0.98994 0.48106 0.52406 0.0
C162 C 0.00628 0.49556 0.52305 0.0
N163 N 0.0174 0.49424 0.539 0.0
Co164 Co 0.03999 0.51384 0.54953 0.0
N165 N 0.0423 0.52693 0.51681 0.0
C166 C 0.02912 0.52436 0.50139 0.0
C167 C 0.03469 0.53567 0.48011 0.0
C168 C 0.05242 0.54604 0.48258 0.0
C169 C 0.05668 0.54051 0.50541 0.0
N170 N 0.06245 0.53352 0.56019 0.0
C171 C 0.07521 0.54662 0.54536 0.0
C172 C 0.08868 0.55805 0.56089 0.0
C173 C 0.08392 0.55185 0.58632 0.0
C174 C 0.06789 0.53703 0.58492 0.0
N175 N 0.03756 0.50081 0.58244 0.0
C176 C 0.04453 0.50794 0.60523 0.0
C177 C 0.03771 0.49636 0.6261 0.0
C178 C 0.02576 0.48104 0.6156 0.0
C179 C 0.02651 0.48395 0.58861 0.0
N180 N 0.05222 0.50415 0.53297 0.0
C181 C 0.07193 0.49342 0.5069 0.0
C182 C 0.07582 0.49908 0.5325 0.0
C183 C 0.06573 0.50427 0.54525 0.0
C184 C 0.05755 0.49268 0.49504 0.0
C185 C 0.04789 0.49811 0.50838 0.0
N186 N 0.02769 0.52364 0.56606 0.0
C187 C 0.00315 0.51964 0.59118 0.0
C188 C 0.00902 0.53705 0.58768 0.0
C189 C 0.02463 0.54775 0.57364 0.0
C190 C 0.0337 0.54076 0.5628 0.0
C191 C 0.01272 0.51324 0.58048 0.0
H192 H 0.04548 0.54919 0.55155 0.0
H193 H 0.00783 0.49979 0.58371 0.0
H194 H 0.06909 0.50877 0.56483 0.0
H195 H 0.03719 0.49787 0.49855 0.0
C196 C 0.01227 0.50999 0.50595 0.0
C197 C 0.0152 0.47127 0.56947 0.0
C198 C 0.07399 0.54944 0.5172 0.0
C199 C 0.05857 0.52502 0.60554 0.0
H200 H 0.9801 0.45773 0.54863 0.0
H201 H 0.97859 0.47883 0.51348 0.0
H202 H 0.0269 0.53612 0.46438 0.0
H203 H 0.06112 0.55667 0.46942 0.0
H204 H 0.10051 0.5698 0.55457 0.0
H205 H 0.09143 0.55733 0.60364 0.0
H206 H 0.04094 0.49873 0.6465 0.0
H207 H 0.01708 0.46931 0.62678 0.0
H208 H 0.08665 0.49959 0.54254 0.0
H209 H 0.05413 0.48851 0.47523 0.0
H210 H 0.99128 0.51102 0.60231 0.0
H211 H 0.02958 0.56131 0.57058 0.0
C212 C 0.5026 0.99606 0.0487 0.0
C213 C 0.50067 0.99971 0.07418 0.0
C214 C 0.51582 0.01431 0.08 0.0
C215 C 0.5262 0.01864 0.05803 0.0
N216 N 0.51858 0.00776 0.03836 0.0
Co217 Co 0.52983 0.00824 0.0042 0.0
N218 N 0.55217 0.0297 0.01298 0.0
C219 C 0.55538 0.03878 0.03475 0.0
C220 C 0.57162 0.05336 0.03479 0.0
C221 C 0.57921 0.05376 0.01149 0.0
C222 C 0.56711 0.03931 0.99861 0.0
N223 N 0.54131 0.0083 0.97053 0.0
C224 C 0.55753 0.01957 0.96067 0.0
C225 C 0.56038 0.0147 0.9367 0.0
C226 C 0.54538 0.99984 0.93114 0.0
C227 C 0.5343 0.99649 0.95196 0.0
N228 N 0.50727 0.98725 0.99488 0.0
C229 C 0.50369 0.97896 0.97222 0.0
C230 C 0.48688 0.96541 0.97093 0.0
C231 C 0.47924 0.96493 0.99422 0.0
C232 C 0.49196 0.97816 0.00856 0.0
N233 N 0.52187 0.02273 0.98735 0.0
C234 C 0.51212 0.0443 0.96246 0.0
C235 C 0.51158 0.03093 0.94933 0.0
C236 C 0.51646 0.0204 0.96201 0.0
C237 C 0.51727 0.04645 0.9885 0.0
C238 C 0.52203 0.03559 0.00047 0.0
N239 N 0.53782 0.99375 0.02108 0.0
C240 C 0.53791 0.96738 0.02385 0.0
C241 C 0.54798 0.97261 0.04619 0.0
C242 C 0.55313 0.98866 0.05555 0.0
C243 C 0.54785 0.9989 0.04292 0.0
C244 C 0.53317 0.97814 0.01153 0.0
H245 H 0.55192 0.01082 0.0514 0.0
H246 H 0.52567 0.97348 0.9944 0.0
H247 H 0.51584 0.01054 0.95082 0.0
H248 H 0.52598 0.03799 0.02026 0.0
C249 C 0.54308 0.03292 0.05519 0.0
C250 C 0.48903 0.98119 0.03536 0.0
C251 C 0.57039 0.03535 0.97273 0.0
C252 C 0.51676 0.98342 0.95337 0.0
H253 H 0.48957 0.99251 0.08742 0.0
H254 H 0.51896 0.02089 0.0982 0.0
H255 H 0.57727 0.06257 0.04997 0.0
H256 H 0.59219 0.06359 0.0047 0.0
H257 H 0.57198 0.02139 0.92426 0.0
H258 H 0.54269 0.99264 0.91364 0.0
H259 H 0.48098 0.95671 0.95516 0.0
H260 H 0.46587 0.9557 1.00012 0.0
H261 H 0.50735 0.02851 0.9293 0.0
H262 H 0.51803 0.0567 0.99948 0.0
H263 H 0.53382 0.95509 0.01576 0.0
H264 H 0.56086 0.99316 0.07295 0.0
C265 C 0.53214 0.54185 0.50748 0.0
C266 C 0.52946 0.55215 0.52367 0.0
C267 C 0.52012 0.54211 0.54496 0.0
C268 C 0.51778 0.52637 0.54072 0.0
N269 N 0.52515 0.52573 0.51806 0.0
Co270 Co 0.52547 0.50554 0.50479 0.0
N271 N 0.51124 0.49066 0.53579 0.0
C272 C 0.50453 0.49506 0.55552 0.0
C273 C 0.4949 0.482 0.57363 0.0
C274 C 0.49558 0.46844 0.56511 0.0
C275 C 0.50579 0.4741 0.54231 0.0
N276 N 0.52603 0.48539 0.49177 0.0
C277 C 0.51971 0.46951 0.50295 0.0
C278 C 0.52375 0.45967 0.48793 0.0
C279 C 0.53287 0.46962 0.46645 0.0
C280 C 0.53399 0.48494 0.46963 0.0
N281 N 0.53946 0.52036 0.47356 0.0
C282 C 0.54534 0.51564 0.45312 0.0
C283 C 0.55364 0.5282 0.43385 0.0
C284 C 0.553 0.54178 0.44236 0.0
C285 C 0.54445 0.53676 0.46663 0.0
N286 N 0.54723 0.51268 0.524 0.0
C287 C 0.57764 0.52164 0.55189 0.0
C288 C 0.57658 0.51819 0.52536 0.0
C289 C 0.56139 0.51379 0.51191 0.0
C290 C 0.56332 0.52079 0.56409 0.0
C291 C 0.5484 0.51634 0.54992 0.0
N292 N 0.50368 0.49835 0.48558 0.0
C293 C 0.48664 0.4879 0.4466 0.0
C294 C 0.47286 0.4884 0.45811 0.0
C295 C 0.47479 0.49395 0.48366 0.0
C296 C 0.49017 0.49886 0.49687 0.0
C297 C 0.50176 0.49283 0.46057 0.0
H298 H 0.4908 0.50303 0.51619 0.0
H299 H 0.51172 0.49214 0.45062 0.0
H300 H 0.56137 0.51118 0.49181 0.0
H301 H 0.53796 0.51587 0.56043 0.0
C302 C 0.50817 0.51179 0.55715 0.0
C303 C 0.54108 0.5479 0.48204 0.0
C304 C 0.51029 0.46339 0.52801 0.0
C305 C 0.54262 0.49921 0.45236 0.0
H306 H 0.53367 0.56551 0.52035 0.0
H307 H 0.51543 0.54579 0.56144 0.0
H308 H 0.48836 0.48237 0.59113 0.0
H309 H 0.48942 0.45585 0.57478 0.0
H310 H 0.52064 0.44671 0.49217 0.0
H311 H 0.53825 0.46618 0.45057 0.0
H312 H 0.55927 0.52749 0.4156 0.0
H313 H 0.55807 0.55391 0.43165 0.0
H314 H 0.58727 0.51853 0.51506 0.0
H315 H 0.5636 0.52366 0.58451 0.0
H316 H 0.48595 0.48396 0.42671 0.0
H317 H 0.46442 0.49437 0.49363 0.0
H318 H 0.32033 0.47486 0.25422 0.0
N319 N 0.29533 0.44472 0.23362 0.0
H320 H 0.33904 0.4779 0.29047 0.0
H321 H 0.29247 0.41986 0.26566 0.0
H322 H 0.31123 0.4228 0.30236 0.0
H323 H 0.30168 0.42526 0.20437 0.0
H324 H 0.32374 0.4348 0.16938 0.0
H325 H 0.31305 0.47688 0.21025 0.0
H326 H 0.3355 0.4867 0.17548 0.0
H327 H 0.29191 0.46967 0.25647 0.0
H328 H 0.26491 0.42394 0.21232 0.0
H329 H 0.26507 0.46957 0.26181 0.0
H330 H 0.23815 0.42439 0.21588 0.0
H331 H 0.19338 0.47412 0.27336 0.0
H332 H 0.18328 0.48121 0.31262 0.0
H333 H 0.15659 0.42805 0.33962 0.0
H334 H 0.16668 0.42109 0.30016 0.0
H335 H 0.15147 0.41916 0.24576 0.0
H336 H 0.13364 0.4232 0.21399 0.0
H337 H 0.17783 0.47341 0.19199 0.0
H338 H 0.19518 0.46951 0.22473 0.0
H339 H 0.21589 0.47145 0.25369 0.0
H340 H 0.24344 0.47342 0.24424 0.0
H341 H 0.21658 0.41801 0.24676 0.0
N342 N 0.1837 0.44188 0.2592 0.0
H343 H 0.18902 0.41635 0.25437 0.0
C344 C 0.30487 0.44706 0.25728 0.0
C345 C 0.31793 0.46342 0.26491 0.0
C346 C 0.32864 0.46515 0.28576 0.0
C347 C 0.32664 0.45058 0.29925 0.0
C348 C 0.31317 0.43426 0.29219 0.0
C349 C 0.30238 0.43255 0.27142 0.0
C350 C 0.30586 0.45034 0.20998 0.0
C351 C 0.30868 0.43859 0.1976 0.0
C352 C 0.32128 0.44408 0.17764 0.0
C353 C 0.33146 0.46153 0.16984 0.0
C354 C 0.32798 0.4732 0.18132 0.0
C355 C 0.31516 0.46762 0.20111 0.0
C356 C 0.28035 0.4465 0.23445 0.0
C357 C 0.28029 0.4597 0.24759 0.0
C358 C 0.26484 0.45973 0.25041 0.0
C359 C 0.24922 0.44679 0.23968 0.0
C360 C 0.24969 0.43426 0.22518 0.0
C361 C 0.26503 0.43407 0.22282 0.0
C362 C 0.18077 0.44703 0.28395 0.0
C363 C 0.18578 0.46409 0.28806 0.0
C364 C 0.17997 0.46812 0.31051 0.0
C365 C 0.16899 0.45515 0.32908 0.0
C366 C 0.16483 0.43828 0.3255 0.0
C367 C 0.17069 0.4343 0.30315 0.0
C368 C 0.17465 0.4439 0.23754 0.0
C369 C 0.15734 0.4309 0.23372 0.0
C370 C 0.1472 0.43324 0.21544 0.0
C371 C 0.15423 0.44868 0.20036 0.0
C372 C 0.17186 0.46147 0.20353 0.0
C373 C 0.18192 0.45917 0.22209 0.0
C374 C 0.20032 0.44369 0.25428 0.0
C375 C 0.2159 0.45975 0.25175 0.0
C376 C 0.23174 0.46084 0.24666 0.0
C377 C 0.23237 0.44588 0.24447 0.0
C378 C 0.21669 0.42985 0.24752 0.0
C379 C 0.2009 0.42882 0.25216 0.0
H380 H 0.74503 0.13996 0.76455 0.0
N381 N 0.75385 0.16972 0.74098 0.0
H382 H 0.72411 0.12517 0.80083 0.0
H383 H 0.73934 0.18354 0.77094 0.0
H384 H 0.71895 0.16921 0.80768 0.0
H385 H 0.73253 0.18096 0.72442 0.0
H386 H 0.71167 0.16915 0.68923 0.0
H387 H 0.75167 0.14815 0.70587 0.0
H388 H 0.73055 0.13589 0.67101 0.0
H389 H 0.78509 0.17369 0.74163 0.0
H390 H 0.75943 0.20226 0.7403 0.0
H391 H 0.81337 0.20036 0.74311 0.0
H392 H 0.78743 0.22891 0.7436 0.0
H393 H 0.89091 0.28347 0.79357 0.0
H394 H 0.89735 0.30179 0.83082 0.0
H395 H 0.85978 0.31438 0.80402 0.0
H396 H 0.85332 0.29584 0.76692 0.0
H397 H 0.86621 0.30212 0.7243 0.0
H398 H 0.88628 0.32134 0.68974 0.0
H399 H 0.91777 0.29891 0.70067 0.0
H400 H 0.89721 0.27922 0.73499 0.0
H401 H 0.85943 0.24797 0.7748 0.0
H402 H 0.83106 0.22167 0.77139 0.0
H403 H 0.81378 0.24919 0.72254 0.0
N404 N 0.86975 0.27889 0.75463 0.0
H405 H 0.84179 0.27553 0.72751 0.0
C406 C 0.74385 0.16284 0.76505 0.0
C407 C 0.73963 0.14651 0.7743 0.0
C408 C 0.7277 0.13812 0.79508 0.0
C409 C 0.71973 0.14595 0.80713 0.0
C410 C 0.72461 0.16268 0.79859 0.0
C411 C 0.73647 0.17102 0.77767 0.0
C412 C 0.74374 0.16546 0.71765 0.0
C413 C 0.73255 0.17152 0.71238 0.0
C414 C 0.72046 0.16458 0.69241 0.0
C415 C 0.71929 0.15143 0.67742 0.0
C416 C 0.73118 0.14611 0.6819 0.0
C417 C 0.74326 0.15308 0.70182 0.0
C418 C 0.77015 0.18589 0.74126 0.0
C419 C 0.78559 0.18575 0.74191 0.0
C420 C 0.80173 0.20104 0.74301 0.0
C421 C 0.8028 0.21691 0.74389 0.0
C422 C 0.78723 0.21702 0.74277 0.0
C423 C 0.77108 0.20168 0.74124 0.0
C424 C 0.8718 0.28842 0.77749 0.0
C425 C 0.8839 0.29 0.79603 0.0
C426 C 0.88749 0.3004 0.81729 0.0
C427 C 0.87909 0.30956 0.82031 0.0
C428 C 0.86658 0.30761 0.80204 0.0
C429 C 0.86287 0.29703 0.78086 0.0
C430 C 0.88 0.28891 0.73195 0.0
C431 C 0.87702 0.30083 0.71876 0.0
C432 C 0.88859 0.31192 0.69903 0.0
C433 C 0.90355 0.31157 0.69249 0.0
C434 C 0.90634 0.29944 0.70533 0.0
C435 C 0.89459 0.28815 0.72476 0.0
C436 C 0.85292 0.26367 0.75116 0.0
C437 C 0.84949 0.24826 0.76333 0.0
C438 C 0.83327 0.2332 0.76115 0.0
C439 C 0.82005 0.23313 0.74639 0.0
C440 C 0.82351 0.24869 0.73427 0.0
C441 C 0.83971 0.26384 0.73683 0.0
H442 H 0.57033 0.83714 0.27648 0.0
N443 N 0.60385 0.84578 0.26645 0.0
H444 H 0.56109 0.84909 0.31024 0.0
H445 H 0.62214 0.86285 0.30713 0.0
H446 H 0.61293 0.87455 0.34151 0.0
H447 H 0.62361 0.87801 0.24887 0.0
H448 H 0.61757 0.89226 0.21311 0.0
H449 H 0.57827 0.82967 0.23007 0.0
H450 H 0.5727 0.84352 0.19335 0.0
H451 H 0.57452 0.81347 0.26927 0.0
H452 H 0.63057 0.84146 0.26391 0.0
H453 H 0.57363 0.78646 0.2674 0.0
H454 H 0.63003 0.81459 0.26399 0.0
H455 H 0.57175 0.71073 0.28248 0.0
H456 H 0.56368 0.69027 0.31911 0.0
H457 H 0.61655 0.71905 0.34642 0.0
H458 H 0.62473 0.73905 0.30848 0.0
H459 H 0.62625 0.72918 0.24632 0.0
H460 H 0.61974 0.70933 0.21133 0.0
H461 H 0.56854 0.70227 0.20479 0.0
H462 H 0.57566 0.72291 0.23885 0.0
H463 H 0.57922 0.74091 0.29093 0.0
H464 H 0.57855 0.76705 0.29012 0.0
H465 H 0.62428 0.79183 0.23902 0.0
N466 N 0.60481 0.7369 0.26864 0.0
H467 H 0.62559 0.76595 0.24164 0.0
C468 C 0.59701 0.84924 0.28926 0.0
C469 C 0.57957 0.84489 0.29103 0.0
C470 C 0.57429 0.85174 0.31039 0.0
C471 C 0.58635 0.863 0.32832 0.0
C472 C 0.60342 0.8662 0.32767 0.0
C473 C 0.60867 0.8594 0.30827 0.0
C474 C 0.60154 0.85281 0.24223 0.0
C475 C 0.61268 0.87039 0.23645 0.0
C476 C 0.60921 0.87849 0.21587 0.0
C477 C 0.59455 0.8691 0.20028 0.0
C478 C 0.58391 0.85126 0.20522 0.0
C479 C 0.58723 0.84322 0.22613 0.0
C480 C 0.60267 0.8295 0.26622 0.0
C481 C 0.58665 0.8138 0.26771 0.0
C482 C 0.5862 0.79831 0.26696 0.0
C483 C 0.60176 0.7982 0.26529 0.0
C484 C 0.61773 0.81403 0.26447 0.0
C485 C 0.61813 0.82945 0.2647 0.0
C486 C 0.59898 0.72634 0.2925 0.0
C487 C 0.58162 0.71274 0.29635 0.0
C488 C 0.57695 0.7011 0.31763 0.0
C489 C 0.58948 0.70286 0.33573 0.0
C490 C 0.60662 0.71707 0.33261 0.0
C491 C 0.61131 0.72862 0.31113 0.0
C492 C 0.60141 0.72733 0.24535 0.0
C493 C 0.6138 0.72362 0.23684 0.0
C494 C 0.60995 0.71213 0.21708 0.0
C495 C 0.59346 0.70388 0.2056 0.0
C496 C 0.58139 0.70839 0.2131 0.0
C497 C 0.58537 0.72011 0.23271 0.0
C498 C 0.60275 0.75151 0.2667 0.0
C499 C 0.58918 0.75192 0.27963 0.0
C500 C 0.58869 0.76695 0.27892 0.0
C501 C 0.60151 0.78178 0.26481 0.0
C502 C 0.61449 0.78095 0.25082 0.0
C503 C 0.61517 0.76607 0.25201 0.0
H504 H 0.88872 0.59808 0.83344 0.0
N505 N 0.87037 0.58149 0.79243 0.0
H506 H 0.89836 0.58677 0.86914 0.0
H507 H 0.85884 0.54755 0.80295 0.0
H508 H 0.86749 0.53601 0.83907 0.0
H509 H 0.85935 0.55544 0.75868 0.0
H510 H 0.8775 0.55319 0.7255 0.0
H511 H 0.90126 0.60648 0.77431 0.0
H512 H 0.9192 0.60491 0.74 0.0
H513 H 0.8662 0.60742 0.78063 0.0
H514 H 0.83723 0.55273 0.79619 0.0
H515 H 0.83898 0.60683 0.77553 0.0
H516 H 0.81004 0.55211 0.79291 0.0
H517 H 0.747 0.59927 0.79434 0.0
H518 H 0.72608 0.59191 0.83022 0.0
H519 H 0.72652 0.54564 0.84783 0.0
H520 H 0.74708 0.55295 0.8112 0.0
H521 H 0.73426 0.54716 0.76631 0.0
H522 H 0.71377 0.53772 0.73063 0.0
H523 H 0.73866 0.59004 0.69988 0.0
H524 H 0.75952 0.59928 0.73534 0.0
H525 H 0.78888 0.60425 0.79546 0.0
H526 H 0.8157 0.60401 0.79973 0.0
H527 H 0.79066 0.55436 0.7653 0.0
N528 N 0.75884 0.58041 0.77646 0.0
H529 H 0.76371 0.55427 0.7627 0.0
C530 C 0.87295 0.57376 0.81562 0.0
C531 C 0.88376 0.58446 0.83497 0.0
C532 C 0.88921 0.57793 0.85539 0.0
C533 C 0.88384 0.56047 0.85689 0.0
C534 C 0.87216 0.54958 0.83828 0.0
C535 C 0.86693 0.55616 0.81772 0.0
C536 C 0.87916 0.58104 0.76927 0.0
C537 C 0.87236 0.5663 0.75455 0.0
C538 C 0.88274 0.56512 0.73539 0.0
C539 C 0.9 0.57876 0.73036 0.0
C540 C 0.90618 0.59396 0.74383 0.0
C541 C 0.8959 0.595 0.7632 0.0
C542 C 0.85388 0.58026 0.78921 0.0
C543 C 0.85394 0.59531 0.78319 0.0
C544 C 0.83833 0.59494 0.78055 0.0
C545 C 0.82218 0.57945 0.78421 0.0
C546 C 0.82215 0.56427 0.78974 0.0
C547 C 0.83782 0.56463 0.79195 0.0
C548 C 0.74862 0.57675 0.80016 0.0
C549 C 0.74281 0.58772 0.8063 0.0
C550 C 0.73089 0.58349 0.8269 0.0
C551 C 0.72455 0.56814 0.84197 0.0
C552 C 0.73094 0.55744 0.83642 0.0
C553 C 0.74283 0.56167 0.81564 0.0
C554 C 0.74852 0.57399 0.75341 0.0
C555 C 0.73564 0.55654 0.75152 0.0
C556 C 0.72379 0.55118 0.73121 0.0
C557 C 0.72442 0.56314 0.71255 0.0
C558 C 0.73789 0.58044 0.71373 0.0
C559 C 0.74981 0.58577 0.73399 0.0
C560 C 0.77431 0.57948 0.7785 0.0
C561 C 0.78921 0.59331 0.78894 0.0
C562 C 0.80459 0.59319 0.79111 0.0
C563 C 0.80553 0.57926 0.78253 0.0
C564 C 0.79046 0.56525 0.77235 0.0
C565 C 0.77497 0.56527 0.77058 0.0
H566 H 0.19919 0.70482 0.28925 0.0
N567 N 0.19422 0.73183 0.28592 0.0
H568 H 0.19005 0.68397 0.3258 0.0
H569 H 0.18595 0.73549 0.33407 0.0
H570 H 0.178 0.7154 0.37166 0.0
H571 H 0.16039 0.71817 0.27923 0.0
H572 H 0.14219 0.69751 0.24714 0.0
H573 H 0.20618 0.72317 0.24322 0.0
H574 H 0.18827 0.70324 0.21023 0.0
H575 H 0.22628 0.73582 0.27852 0.0
H576 H 0.19939 0.76302 0.28351 0.0
H577 H 0.25397 0.76302 0.27099 0.0
H578 H 0.22694 0.79028 0.27767 0.0
H579 H 0.33072 0.84012 0.28667 0.0
H580 H 0.34996 0.8549 0.32243 0.0
H581 H 0.32217 0.88063 0.33662 0.0
H582 H 0.30307 0.86593 0.30015 0.0
H583 H 0.30901 0.87157 0.23762 0.0
H584 H 0.32914 0.88646 0.20059 0.0
H585 H 0.34635 0.8504 0.20709 0.0
H586 H 0.32504 0.83485 0.24265 0.0
H587 H 0.30213 0.8158 0.28793 0.0
H588 H 0.27529 0.78779 0.2912 0.0
H589 H 0.24872 0.80838 0.24766 0.0
N590 N 0.30572 0.84564 0.26707 0.0
H591 H 0.27539 0.83662 0.24615 0.0
C592 C 0.19278 0.72149 0.30878 0.0
C593 C 0.19476 0.7073 0.30726 0.0
C594 C 0.18963 0.69542 0.32838 0.0
C595 C 0.18284 0.69771 0.35165 0.0
C596 C 0.18256 0.71285 0.35382 0.0
C597 C 0.18731 0.72449 0.3325 0.0
C598 C 0.18461 0.72231 0.26371 0.0
C599 C 0.16656 0.71521 0.26385 0.0
C600 C 0.15619 0.70343 0.24538 0.0
C601 C 0.1637 0.69855 0.22607 0.0
C602 C 0.18197 0.70641 0.22508 0.0
C603 C 0.19231 0.71805 0.24382 0.0
C604 C 0.21077 0.74747 0.28115 0.0
C605 C 0.22636 0.74768 0.27789 0.0
C606 C 0.24222 0.76328 0.27389 0.0
C607 C 0.2428 0.77897 0.27351 0.0
C608 C 0.22708 0.77856 0.27709 0.0
C609 C 0.21129 0.76299 0.28067 0.0
C610 C 0.31539 0.85193 0.2907 0.0
C611 C 0.32849 0.84866 0.2977 0.0
C612 C 0.33949 0.8571 0.31832 0.0
C613 C 0.33769 0.86905 0.33231 0.0
C614 C 0.32406 0.87169 0.32602 0.0
C615 C 0.31304 0.86321 0.30539 0.0
C616 C 0.31582 0.8524 0.24312 0.0
C617 C 0.31689 0.86672 0.23056 0.0
C618 C 0.3286 0.87533 0.20965 0.0
C619 C 0.33982 0.86999 0.20119 0.0
C620 C 0.33798 0.85496 0.21294 0.0
C621 C 0.32594 0.84613 0.23354 0.0
C622 C 0.29067 0.82848 0.26727 0.0
C623 C 0.29056 0.81436 0.27918 0.0
C624 C 0.27514 0.7982 0.2808 0.0
C625 C 0.25963 0.79576 0.27007 0.0
C626 C 0.26017 0.80979 0.25691 0.0
C627 C 0.27545 0.82594 0.25576 0.0
H628 H 0.42969 0.13672 0.72185 0.0
N629 N 0.44922 0.16648 0.74418 0.0
H630 H 0.43826 0.12541 0.68608 0.0
H631 H 0.47843 0.185 0.71287 0.0
H632 H 0.48725 0.17372 0.67723 0.0
H633 H 0.48298 0.17693 0.75599 0.0
H634 H 0.49228 0.16496 0.79087 0.0
H635 H 0.42966 0.1452 0.78357 0.0
H636 H 0.43893 0.13303 0.81876 0.0
H637 H 0.42749 0.17329 0.71983 0.0
H638 H 0.47389 0.19699 0.76588 0.0
H639 H 0.42784 0.20008 0.71783 0.0
H640 H 0.47366 0.2233 0.76552 0.0
H641 H 0.42451 0.28218 0.72485 0.0
H642 H 0.42933 0.3023 0.68835 0.0
H643 H 0.48022 0.30989 0.6739 0.0
H644 H 0.47514 0.28958 0.70983 0.0
H645 H 0.48059 0.30051 0.75389 0.0
H646 H 0.48948 0.32087 0.78846 0.0
H647 H 0.43705 0.29246 0.82128 0.0
H648 H 0.42813 0.2725 0.78575 0.0
H649 H 0.42074 0.24275 0.74384 0.0
H650 H 0.42177 0.21669 0.74353 0.0
H651 H 0.47814 0.24751 0.74185 0.0
N652 N 0.44716 0.27483 0.74439 0.0
H653 H 0.47682 0.27333 0.74408 0.0
C654 C 0.45344 0.16157 0.72014 0.0
C655 C 0.44206 0.14499 0.71168 0.0
C656 C 0.44697 0.13859 0.69124 0.0
C657 C 0.46349 0.14865 0.67902 0.0
C658 C 0.47452 0.16563 0.68651 0.0
C659 C 0.46949 0.1721 0.7068 0.0
C660 C 0.45551 0.16188 0.76706 0.0
C661 C 0.47327 0.16757 0.76976 0.0
C662 C 0.47858 0.16065 0.78969 0.0
C663 C 0.46631 0.14791 0.80736 0.0
C664 C 0.4487 0.14291 0.80554 0.0
C665 C 0.44338 0.14982 0.78549 0.0
C666 C 0.45044 0.18286 0.74317 0.0
C667 C 0.43768 0.18423 0.72965 0.0
C668 C 0.43783 0.19955 0.72877 0.0
C669 C 0.45064 0.21391 0.74185 0.0
C670 C 0.46368 0.21265 0.75497 0.0
C671 C 0.4637 0.19738 0.75542 0.0
C672 C 0.44938 0.28435 0.72017 0.0
C673 C 0.4365 0.28788 0.71334 0.0
C674 C 0.43936 0.29948 0.69267 0.0
C675 C 0.45525 0.30784 0.67842 0.0
C676 C 0.46778 0.30357 0.68434 0.0
C677 C 0.4649 0.29194 0.70504 0.0
C678 C 0.45359 0.28505 0.76711 0.0
C679 C 0.47107 0.29845 0.76873 0.0
C680 C 0.47617 0.31009 0.78868 0.0
C681 C 0.46393 0.30847 0.80752 0.0
C682 C 0.44673 0.29433 0.80679 0.0
C683 C 0.44163 0.2828 0.7867 0.0
C684 C 0.44861 0.25995 0.74362 0.0
C685 C 0.43329 0.24381 0.7434 0.0
C686 C 0.43395 0.22894 0.74297 0.0
C687 C 0.45006 0.22989 0.74234 0.0
C688 C 0.46548 0.24618 0.74257 0.0
C689 C 0.46477 0.26106 0.74347 0.0
H690 H 0.03126 0.44979 0.07082 0.0
H691 H 0.05225 0.44363 0.09094 0.0
H692 H 0.08639 0.4974 0.10523 0.0
H693 H 0.06549 0.5035 0.08469 0.0
H694 H 0.10464 0.48414 0.08785 0.0
H695 H 0.06043 0.46892 0.15356 0.0
H696 H 0.0304 0.45412 0.17164 0.0
H697 H 0.02497 0.40533 0.16052 0.0
H698 H 0.05488 0.41985 0.14189 0.0
H699 H 0.155 0.47874 0.19088 0.0
H700 H 0.13532 0.48337 0.16418 0.0
H701 H 0.10742 0.43025 0.14427 0.0
H702 H 0.12751 0.42558 0.17005 0.0
H703 H 0.08591 0.44198 0.16288 0.0
H704 H 0.13138 0.45817 0.09885 0.0
H705 H 0.16165 0.47378 0.08162 0.0
H706 H 0.16505 0.52178 0.09143 0.0
H707 H 0.13487 0.50646 0.1091 0.0
C708 C 0.04329 0.46021 0.07826 0.0
C709 C 0.04685 0.47705 0.07653 0.0
C710 C 0.05522 0.45672 0.08976 0.0
C711 C 0.0708 0.47003 0.09987 0.0
C712 C 0.07447 0.48694 0.09759 0.0
C713 C 0.06256 0.49042 0.08601 0.0
C714 C 0.08314 0.46634 0.1133 0.0
C715 C 0.10058 0.47504 0.10441 0.0
C716 C 0.07777 0.45423 0.13462 0.0
C717 C 0.05984 0.44547 0.14606 0.0
C718 C 0.05279 0.45503 0.15477 0.0
C719 C 0.03579 0.4467 0.16514 0.0
C720 C 0.02577 0.4288 0.16717 0.0
C721 C 0.03274 0.4192 0.15889 0.0
C722 C 0.04972 0.42747 0.14842 0.0
C723 C 0.14498 0.46809 0.18035 0.0
C724 C 0.14292 0.45176 0.18269 0.0
C725 C 0.13365 0.47076 0.16523 0.0
C726 C 0.11994 0.45716 0.15226 0.0
C727 C 0.1179 0.4409 0.15425 0.0
C728 C 0.12935 0.43825 0.16911 0.0
C729 C 0.10738 0.45983 0.13747 0.0
C730 C 0.08992 0.45097 0.14617 0.0
C731 C 0.11276 0.47191 0.11617 0.0
C732 C 0.13092 0.48117 0.10554 0.0
C733 C 0.13863 0.47206 0.09756 0.0
C734 C 0.15576 0.48085 0.08767 0.0
C735 C 0.16528 0.49876 0.08549 0.0
C736 C 0.15767 0.50791 0.09315 0.0
C737 C 0.14055 0.49918 0.10309 0.0
H738 H 0.17854 0.50554 0.07781 0.0
H739 H 0.01261 0.42237 0.17521 0.0
H740 H 0.60339 0.04741 0.51763 0.0
H741 H 0.62984 0.069 0.53916 0.0
H742 H 0.59823 0.07651 0.59406 0.0
H743 H 0.57188 0.05538 0.57184 0.0
H744 H 0.6259 0.10635 0.57976 0.0
H745 H 0.61561 0.0515 0.60958 0.0
H746 H 0.61055 0.02258 0.60464 0.0
H747 H 0.66019 0.04432 0.56503 0.0
H748 H 0.66543 0.07338 0.56937 0.0
H749 H 0.68515 0.14182 0.68389 0.0
H750 H 0.66091 0.12446 0.65546 0.0
H751 H 0.6961 0.12218 0.60095 0.0
H752 H 0.72056 0.13978 0.6292 0.0
H753 H 0.66773 0.09068 0.6126 0.0
H754 H 0.67833 0.14615 0.58599 0.0
H755 H 0.68278 0.17469 0.59264 0.0
H756 H 0.63185 0.15127 0.62863 0.0
H757 H 0.62719 0.12258 0.62253 0.0
C758 C 0.6022 0.05385 0.53413 0.0
C759 C 0.58574 0.04988 0.54314 0.0
C760 C 0.61725 0.06607 0.54652 0.0
C761 C 0.61602 0.07423 0.56847 0.0
C762 C 0.59952 0.07041 0.57718 0.0
C763 C 0.5845 0.05833 0.56461 0.0
C764 C 0.63186 0.08646 0.58276 0.0
C765 C 0.63496 0.10287 0.58715 0.0
C766 C 0.64388 0.08205 0.59199 0.0
C767 C 0.64083 0.0646 0.58956 0.0
C768 C 0.62539 0.05011 0.59965 0.0
C769 C 0.6225 0.03369 0.59698 0.0
C770 C 0.63503 0.03161 0.58447 0.0
C771 C 0.65049 0.04595 0.57468 0.0
C772 C 0.65343 0.0624 0.57725 0.0
C773 C 0.68785 0.138 0.66557 0.0
C774 C 0.70485 0.14226 0.65882 0.0
C775 C 0.67393 0.128 0.64936 0.0
C776 C 0.6767 0.1221 0.62599 0.0
C777 C 0.69367 0.12657 0.61893 0.0
C778 C 0.70763 0.1366 0.63512 0.0
C779 C 0.66172 0.11054 0.60968 0.0
C780 C 0.65876 0.09423 0.60499 0.0
C781 C 0.64974 0.11497 0.60044 0.0
C782 C 0.65247 0.13221 0.60398 0.0
C783 C 0.66813 0.14709 0.59549 0.0
C784 C 0.67068 0.16329 0.59914 0.0
C785 C 0.65762 0.16479 0.6111 0.0
C786 C 0.64196 0.15008 0.61938 0.0
C787 C 0.63935 0.13385 0.61581 0.0
H788 H 0.65963 0.17735 0.6139 0.0
H789 H 0.63277 0.01889 0.58243 0.0
H790 H 0.53153 0.5793 0.04472 0.0
H791 H 0.53983 0.60495 0.06889 0.0
H792 H 0.57497 0.59652 0.11474 0.0
H793 H 0.56722 0.5712 0.09019 0.0
H794 H 0.55312 0.60272 0.14479 0.0
H795 H 0.59118 0.6272 0.06859 0.0
H796 H 0.59794 0.63251 0.02125 0.0
H797 H 0.56653 0.65496 0.0141 0.0
H798 H 0.55938 0.64956 0.06138 0.0
H799 H 0.60192 0.67927 0.20892 0.0
H800 H 0.59305 0.6554 0.18068 0.0
H801 H 0.5639 0.67148 0.134 0.0
H802 H 0.57351 0.69611 0.16154 0.0
H803 H 0.5806 0.66122 0.10342 0.0
H804 H 0.54324 0.63809 0.17905 0.0
H805 H 0.53566 0.6326 0.22615 0.0
H806 H 0.56415 0.60712 0.23418 0.0
H807 H 0.57213 0.61268 0.18718 0.0
C808 C 0.54123 0.58302 0.05965 0.0
C809 C 0.54869 0.57312 0.06548 0.0
C810 C 0.54589 0.59765 0.07352 0.0
C811 C 0.55804 0.60264 0.09354 0.0
C812 C 0.5655 0.59283 0.09943 0.0
C813 C 0.56097 0.57829 0.08545 0.0
C814 C 0.56275 0.61788 0.10878 0.0
C815 C 0.55931 0.61554 0.13582 0.0
C816 C 0.57025 0.63449 0.09686 0.0
C817 C 0.57459 0.6378 0.06846 0.0
C818 C 0.58559 0.63313 0.05689 0.0
C819 C 0.58952 0.63618 0.03007 0.0
C820 C 0.58263 0.64402 0.01466 0.0
C821 C 0.57183 0.64886 0.02605 0.0
C822 C 0.56785 0.64582 0.05286 0.0
C823 C 0.59391 0.67801 0.19237 0.0
C824 C 0.58848 0.6897 0.18752 0.0
C825 C 0.58864 0.66416 0.17642 0.0
C826 C 0.57754 0.66145 0.15551 0.0
C827 C 0.57238 0.67326 0.15015 0.0
C828 C 0.57777 0.68725 0.16604 0.0
C829 C 0.57125 0.64612 0.13958 0.0
C830 C 0.57433 0.6484 0.11241 0.0
C831 C 0.56324 0.62939 0.15134 0.0
C832 C 0.5584 0.62593 0.17961 0.0
C833 C 0.548 0.63143 0.19089 0.0
C834 C 0.54361 0.62828 0.21757 0.0
C835 C 0.54945 0.61955 0.23316 0.0
C836 C 0.55965 0.6139 0.22208 0.0
C837 C 0.56409 0.61703 0.19542 0.0
H838 H 0.54604 0.61713 0.25381 0.0
H839 H 0.58569 0.64638 0.99391 0.0
H840 H 0.02041 0.56438 0.61882 0.0
H841 H 0.00263 0.57373 0.64052 0.0
H842 H 0.95684 0.53432 0.6032 0.0
H843 H 0.97449 0.52478 0.58178 0.0
H844 H 0.96016 0.56776 0.60396 0.0
H845 H 0.9619 0.52541 0.66092 0.0
H846 H 0.97672 0.51336 0.68583 0.0
H847 H 0.00295 0.55866 0.73051 0.0
H848 H 0.98848 0.5711 0.70553 0.0
H849 H 0.89242 0.56158 0.68443 0.0
H850 H 0.91174 0.55649 0.65797 0.0
H851 H 0.95408 0.58671 0.7094 0.0
H852 H 0.93468 0.59094 0.73678 0.0
H853 H 0.95348 0.55903 0.70051 0.0
H854 H 0.95145 0.60135 0.64611 0.0
H855 H 0.93782 0.61455 0.62099 0.0
H856 H 0.9137 0.57145 0.57156 0.0
H857 H 0.927 0.55787 0.59662 0.0
C858 C 0.0066 0.5579 0.61501 0.0
C859 C 0.99876 0.54382 0.5988 0.0
C860 C 0.99648 0.56321 0.62742 0.0
C861 C 0.97844 0.55465 0.62349 0.0
C862 C 0.97074 0.54108 0.60641 0.0
C863 C 0.98079 0.5356 0.59435 0.0
C864 C 0.96739 0.55908 0.6385 0.0
C865 C 0.95854 0.56575 0.62505 0.0
C866 C 0.96566 0.55677 0.66602 0.0
C867 C 0.97427 0.54927 0.68115 0.0
C868 C 0.97096 0.53287 0.67588 0.0
C869 C 0.97927 0.52596 0.69004 0.0
C870 C 0.99081 0.53526 0.70969 0.0
C871 C 0.99403 0.55148 0.71525 0.0
C872 C 0.98577 0.55847 0.70111 0.0
C873 C 0.90582 0.5671 0.69018 0.0
C874 C 0.91195 0.57673 0.71276 0.0
C875 C 0.91693 0.56436 0.67481 0.0
C876 C 0.93446 0.57139 0.68148 0.0
C877 C 0.94064 0.5812 0.70377 0.0
C878 C 0.92954 0.58378 0.71926 0.0
C879 C 0.94617 0.56786 0.66609 0.0
C880 C 0.95513 0.56123 0.67945 0.0
C881 C 0.94813 0.57041 0.63852 0.0
C882 C 0.94009 0.57852 0.62341 0.0
C883 C 0.94313 0.59462 0.63002 0.0
C884 C 0.93548 0.60218 0.61576 0.0
C885 C 0.92486 0.59382 0.59474 0.0
C886 C 0.92191 0.5779 0.58788 0.0
C887 C 0.92951 0.57027 0.60208 0.0
H888 H 0.91896 0.5997 0.58372 0.0
H889 H 0.99723 0.52989 0.72064 0.0
H890 H 0.46406 0.98675 0.05376 0.0
H891 H 0.43767 0.96663 0.07971 0.0
H892 H 0.45002 0.92733 0.07347 0.0
H893 H 0.47681 0.94765 0.04842 0.0
H894 H 0.41175 0.91844 0.06438 0.0
H895 H 0.46011 0.94255 0.12458 0.0
H896 H 0.48606 0.96706 0.14329 0.0
H897 H 0.45527 0.98764 0.16755 0.0
H898 H 0.42919 0.9634 0.14848 0.0
H899 H 0.3536 0.85941 0.16327 0.0
H900 H 0.37825 0.87735 0.13345 0.0
H901 H 0.38237 0.92271 0.16353 0.0
H902 H 0.35882 0.90505 0.19477 0.0
H903 H 0.41278 0.92831 0.15928 0.0
H904 H 0.36482 0.90609 0.10138 0.0
H905 H 0.33834 0.88405 0.08 0.0
H906 H 0.3666 0.86235 0.04925 0.0
H907 H 0.39322 0.88414 0.07075 0.0
C908 C 0.46106 0.9738 0.05794 0.0
C909 C 0.47244 0.96872 0.04946 0.0
C910 C 0.44602 0.96234 0.07257 0.0
C911 C 0.44198 0.94556 0.0784 0.0
C912 C 0.45294 0.94023 0.069 0.0
C913 C 0.46818 0.9518 0.05484 0.0
C914 C 0.42696 0.93398 0.09587 0.0
C915 C 0.41196 0.92037 0.08521 0.0
C916 C 0.42719 0.93695 0.12279 0.0
C917 C 0.44275 0.95126 0.13487 0.0
C918 C 0.45891 0.95238 0.13371 0.0
C919 C 0.47364 0.96621 0.1444 0.0
C920 C 0.47233 0.97892 0.15654 0.0
C921 C 0.45627 0.97779 0.1581 0.0
C922 C 0.44151 0.96401 0.14736 0.0
C923 C 0.35982 0.8732 0.16375 0.0
C924 C 0.35405 0.88069 0.18149 0.0
C925 C 0.3738 0.88347 0.14636 0.0
C926 C 0.38208 0.90143 0.1459 0.0
C927 C 0.37622 0.9089 0.16339 0.0
C928 C 0.3625 0.8987 0.18105 0.0
C929 C 0.39722 0.91255 0.12796 0.0
C930 C 0.41238 0.92618 0.13851 0.0
C931 C 0.39695 0.90978 0.10081 0.0
C932 C 0.38096 0.89663 0.08792 0.0
C933 C 0.36536 0.89653 0.09024 0.0
C934 C 0.35033 0.8841 0.07807 0.0
C935 C 0.35078 0.87178 0.06334 0.0
C936 C 0.36627 0.87189 0.06071 0.0
C937 C 0.38133 0.88428 0.07287 0.0
H938 H 0.33913 0.86217 0.05392 0.0
H939 H 0.48375 0.98963 0.16479 0.0
H940 H 0.48661 0.43183 0.51052 0.0
H941 H 0.47746 0.40379 0.53166 0.0
H942 H 0.51376 0.42907 0.59342 0.0
H943 H 0.52334 0.45698 0.57167 0.0
H944 H 0.51356 0.40137 0.58219 0.0
H945 H 0.47007 0.41528 0.59963 0.0
H946 H 0.44865 0.42326 0.58783 0.0
H947 H 0.41924 0.37691 0.54623 0.0
H948 H 0.44067 0.36879 0.55745 0.0
H949 H 0.44846 0.33334 0.68328 0.0
H950 H 0.45734 0.35812 0.6537 0.0
H951 H 0.48051 0.33965 0.60062 0.0
H952 H 0.47165 0.31471 0.6303 0.0
H953 H 0.45073 0.36303 0.60516 0.0
H954 H 0.51773 0.37437 0.57356 0.0
H955 H 0.53992 0.36858 0.59019 0.0
H956 H 0.5232 0.36778 0.66913 0.0
H957 H 0.5011 0.3738 0.65298 0.0
C958 C 0.49277 0.43127 0.52839 0.0
C959 C 0.50562 0.4464 0.53961 0.0
C960 C 0.4875 0.41533 0.54051 0.0
C961 C 0.49475 0.41434 0.56433 0.0
C962 C 0.508 0.4295 0.57506 0.0
C963 C 0.5134 0.44541 0.56276 0.0
C964 C 0.48798 0.39765 0.57887 0.0
C965 C 0.49981 0.39292 0.58702 0.0
C966 C 0.47007 0.38676 0.58562 0.0
C967 C 0.45706 0.39151 0.57915 0.0
C968 C 0.45909 0.40684 0.58783 0.0
C969 C 0.44695 0.41139 0.58126 0.0
C970 C 0.43261 0.40062 0.56624 0.0
C971 C 0.43037 0.38526 0.55783 0.0
C972 C 0.4425 0.38067 0.56429 0.0
C973 C 0.45515 0.33434 0.66508 0.0
C974 C 0.45936 0.32205 0.65914 0.0
C975 C 0.46027 0.34856 0.64821 0.0
C976 C 0.46973 0.35084 0.62506 0.0
C977 C 0.47344 0.33829 0.61858 0.0
C978 C 0.46839 0.32406 0.63554 0.0
C979 C 0.47632 0.36675 0.60848 0.0
C980 C 0.46445 0.37134 0.59995 0.0
C981 C 0.49426 0.37777 0.60209 0.0
C982 C 0.50762 0.37431 0.61202 0.0
C983 C 0.51883 0.373 0.59446 0.0
C984 C 0.53139 0.36968 0.60381 0.0
C985 C 0.53292 0.36774 0.6307 0.0
C986 C 0.52195 0.36921 0.64831 0.0
C987 C 0.50939 0.37255 0.63907 0.0
H988 H 0.54265 0.36516 0.63789 0.0
H989 H 0.42322 0.40416 0.56117 0.0
H990 H 0.52388 0.93592 0.46611 0.0
H991 H 0.53032 0.91649 0.44426 0.0
H992 H 0.58041 0.95949 0.41851 0.0
H993 H 0.57404 0.97899 0.44027 0.0
H994 H 0.56447 0.93891 0.37942 0.0
H995 H 0.57631 0.93157 0.4689 0.0
H996 H 0.56971 0.92525 0.51619 0.0
H997 H 0.52709 0.87472 0.50074 0.0
H998 H 0.53329 0.88082 0.45331 0.0
H999 H 0.60624 0.89691 0.33868 0.0
H1000 H 0.59814 0.91377 0.36414 0.0
H1001 H 0.54771 0.86861 0.38165 0.0
H1002 H 0.55591 0.85143 0.3566 0.0
H1003 H 0.56207 0.88889 0.42464 0.0
H1004 H 0.55122 0.89616 0.33489 0.0
H1005 H 0.55825 0.90274 0.28773 0.0
H1006 H 0.59945 0.9538 0.30395 0.0
H1007 H 0.59286 0.94744 0.35124 0.0
C1008 C 0.53636 0.94121 0.45606 0.0
C1009 C 0.54847 0.959 0.45495 0.0
C1010 C 0.54001 0.93009 0.44356 0.0
C1011 C 0.55592 0.93651 0.42994 0.0
C1012 C 0.56804 0.95425 0.42886 0.0
C1013 C 0.56436 0.96539 0.44125 0.0
C1014 C 0.5598 0.92484 0.41619 0.0
C1015 C 0.56415 0.9281 0.38941 0.0
C1016 C 0.55888 0.91043 0.42903 0.0
C1017 C 0.55515 0.90672 0.45754 0.0
C1018 C 0.56544 0.91916 0.47557 0.0
C1019 C 0.56179 0.91561 0.5024 0.0
C1020 C 0.54796 0.89961 0.51146 0.0
C1021 C 0.53778 0.88711 0.49369 0.0
C1022 C 0.54137 0.89061 0.46684 0.0
C1023 C 0.59355 0.89044 0.34837 0.0
C1024 C 0.58173 0.87279 0.34564 0.0
C1025 C 0.58887 0.90015 0.36268 0.0
C1026 C 0.57224 0.89248 0.37446 0.0
C1027 C 0.56058 0.87477 0.37259 0.0
C1028 C 0.56525 0.86501 0.35817 0.0
C1029 C 0.56699 0.90317 0.38804 0.0
C1030 C 0.56232 0.89968 0.4147 0.0
C1031 C 0.56766 0.91742 0.37512 0.0
C1032 C 0.57164 0.92127 0.34665 0.0
C1033 C 0.56188 0.90875 0.32842 0.0
C1034 C 0.56577 0.91245 0.30166 0.0
C1035 C 0.5793 0.92868 0.29286 0.0
C1036 C 0.58897 0.94124 0.3108 0.0
C1037 C 0.58516 0.9376 0.33758 0.0
H1038 H 0.58228 0.93155 0.27215 0.0
H1039 H 0.54516 0.89688 0.53224 0.0
H1040 H 0.59812 0.55133 0.98492 0.0
H1041 H 0.62648 0.55954 0.96526 0.0
H1042 H 0.60573 0.50716 0.94438 0.0
H1043 H 0.57745 0.49898 0.9644 0.0
H1044 H 0.63902 0.52168 0.96116 0.0
H1045 H 0.60779 0.53589 0.90006 0.0
H1046 H 0.59139 0.54924 0.88545 0.0
H1047 H 0.6356 0.59912 0.89959 0.0
H1048 H 0.6522 0.58603 0.91469 0.0
H1049 H 0.69629 0.53593 0.85318 0.0
H1050 H 0.67169 0.52789 0.88284 0.0
H1051 H 0.69572 0.58037 0.90505 0.0
H1052 H 0.72067 0.58849 0.87602 0.0
H1053 H 0.66166 0.56646 0.88942 0.0
H1054 H 0.69344 0.55151 0.94811 0.0
H1055 H 0.70929 0.5374 0.96177 0.0
H1056 H 0.66353 0.48804 0.95045 0.0
H1057 H 0.64746 0.50186 0.93635 0.0
C1058 C 0.59979 0.54161 0.9764 0.0
C1059 C 0.58578 0.5246 0.97593 0.0
C1060 C 0.6159 0.54627 0.96514 0.0
C1061 C 0.61814 0.53399 0.95306 0.0
C1062 C 0.60428 0.51682 0.95359 0.0
C1063 C 0.58818 0.51217 0.9649 0.0
C1064 C 0.63457 0.53924 0.93854 0.0
C1065 C 0.64391 0.53136 0.94532 0.0
C1066 C 0.64105 0.55204 0.91812 0.0
C1067 C 0.63118 0.55997 0.90877 0.0
C1068 C 0.61398 0.5497 0.90024 0.0
C1069 C 0.60465 0.55722 0.89184 0.0
C1070 C 0.61243 0.57502 0.89166 0.0
C1071 C 0.62958 0.58533 0.89979 0.0
C1072 C 0.63896 0.57787 0.90826 0.0
C1073 C 0.69662 0.54571 0.86485 0.0
C1074 C 0.71049 0.56289 0.86208 0.0
C1075 C 0.68247 0.54109 0.88172 0.0
C1076 C 0.68189 0.55354 0.89613 0.0
C1077 C 0.69589 0.57059 0.894 0.0
C1078 C 0.7101 0.57521 0.8773 0.0
C1079 C 0.66617 0.54895 0.91208 0.0
C1080 C 0.65688 0.55689 0.90543 0.0
C1081 C 0.65968 0.5361 0.93241 0.0
C1082 C 0.66929 0.52774 0.94093 0.0
C1083 C 0.68679 0.53765 0.94831 0.0
C1084 C 0.69581 0.5297 0.95618 0.0
C1085 C 0.68744 0.51183 0.95692 0.0
C1086 C 0.67001 0.50188 0.94984 0.0
C1087 C 0.66093 0.50976 0.94193 0.0
H1088 H 0.69444 0.5057 0.96302 0.0
H1089 H 0.60518 0.58081 0.88517 0.0
H1090 H 0.07786 0.58076 0.51547 0.0
H1091 H 0.09929 0.60634 0.48952 0.0
H1092 H 0.12321 0.57913 0.46272 0.0
H1093 H 0.10153 0.55336 0.48864 0.0
H1094 H 0.14739 0.61565 0.47667 0.0
H1095 H 0.09796 0.58041 0.42301 0.0
H1096 H 0.06652 0.56318 0.41428 0.0
H1097 H 0.06223 0.60709 0.42508 0.0
H1098 H 0.09363 0.62455 0.43417 0.0
H1099 H 0.19224 0.67458 0.3677 0.0
H1100 H 0.17608 0.64957 0.39759 0.0
H1101 H 0.13885 0.66442 0.41339 0.0
H1102 H 0.15403 0.68854 0.38223 0.0
H1103 H 0.1222 0.63259 0.40421 0.0
H1104 H 0.17053 0.66805 0.45855 0.0
H1105 H 0.20148 0.68583 0.46992 0.0
H1106 H 0.20777 0.64297 0.46067 0.0
H1107 H 0.17688 0.62498 0.44891 0.0
C1108 C 0.08787 0.58039 0.50428 0.0
C1109 C 0.08813 0.56524 0.50372 0.0
C1110 C 0.10006 0.59493 0.48954 0.0
C1111 C 0.11273 0.59454 0.47414 0.0
C1112 C 0.11354 0.57964 0.47457 0.0
C1113 C 0.10119 0.56499 0.48921 0.0
C1114 C 0.12409 0.60927 0.45604 0.0
C1115 C 0.14201 0.61928 0.46054 0.0
C1116 C 0.11691 0.61412 0.43544 0.0
C1117 C 0.09811 0.60374 0.42945 0.0
C1118 C 0.09029 0.58637 0.42365 0.0
C1119 C 0.07249 0.57657 0.41859 0.0
C1120 C 0.06238 0.58403 0.41918 0.0
C1121 C 0.07008 0.60133 0.42466 0.0
C1122 C 0.08788 0.61119 0.42971 0.0
C1123 C 0.18059 0.67252 0.37746 0.0
C1124 C 0.1745 0.68369 0.37237 0.0
C1125 C 0.17147 0.6583 0.39486 0.0
C1126 C 0.15627 0.65512 0.40794 0.0
C1127 C 0.15052 0.66655 0.40355 0.0
C1128 C 0.15943 0.68056 0.38591 0.0
C1129 C 0.14566 0.63941 0.42498 0.0
C1130 C 0.12776 0.62907 0.42021 0.0
C1131 C 0.15288 0.63444 0.44549 0.0
C1132 C 0.17144 0.64523 0.45257 0.0
C1133 C 0.17855 0.66246 0.45873 0.0
C1134 C 0.19607 0.67256 0.46529 0.0
C1135 C 0.2066 0.66555 0.46594 0.0
C1136 C 0.1996 0.64839 0.46011 0.0
C1137 C 0.18209 0.63823 0.45352 0.0
H1138 H 0.22016 0.67339 0.47102 0.0
H1139 H 0.04859 0.5764 0.41534 0.0
H1140 H 0.5206 0.05757 0.91221 0.0
H1141 H 0.51297 0.07653 0.88959 0.0
H1142 H 0.48645 0.07722 0.95935 0.0
H1143 H 0.49349 0.05766 0.98192 0.0
H1144 H 0.46745 0.0731 0.91647 0.0
H1145 H 0.52635 0.1116 0.9412 0.0
H1146 H 0.55759 0.12192 0.94495 0.0
H1147 H 0.56331 0.12525 0.86126 0.0
H1148 H 0.53204 0.11472 0.857 0.0
H1149 H 0.45686 0.13929 0.85926 0.0
H1150 H 0.46508 0.12341 0.88937 0.0
H1151 H 0.49564 0.11999 0.8276 0.0
H1152 H 0.48772 0.13599 0.79772 0.0
H1153 H 0.51286 0.12726 0.87125 0.0
H1154 H 0.454 0.08613 0.84627 0.0
H1155 H 0.42264 0.07503 0.84157 0.0
H1156 H 0.41682 0.07604 0.92468 0.0
H1157 H 0.44822 0.08737 0.92983 0.0
C1158 C 0.513 0.0616 0.92272 0.0
C1159 C 0.50764 0.05607 0.94889 0.0
C1160 C 0.50882 0.07262 0.90983 0.0
C1161 C 0.49936 0.0785 0.92289 0.0
C1162 C 0.49386 0.07292 0.94895 0.0
C1163 C 0.49801 0.06185 0.96188 0.0
C1164 C 0.49499 0.09023 0.90906 0.0
C1165 C 0.47739 0.08511 0.90698 0.0
C1166 C 0.50795 0.10574 0.8963 0.0
C1167 C 0.52681 0.11226 0.8988 0.0
C1168 C 0.53424 0.11444 0.9236 0.0
C1169 C 0.55196 0.12034 0.92582 0.0
C1170 C 0.56242 0.12421 0.90336 0.0
C1171 C 0.55519 0.12224 0.87864 0.0
C1172 C 0.53748 0.11633 0.87631 0.0
C1173 C 0.46535 0.13515 0.85218 0.0
C1174 C 0.47169 0.13893 0.82617 0.0
C1175 C 0.47002 0.12607 0.86936 0.0
C1176 C 0.48085 0.12035 0.86068 0.0
C1177 C 0.48735 0.12433 0.83481 0.0
C1178 C 0.48284 0.13352 0.81775 0.0
C1179 C 0.48529 0.10997 0.87818 0.0
C1180 C 0.50292 0.11536 0.88099 0.0
C1181 C 0.47235 0.09466 0.89147 0.0
C1182 C 0.45348 0.08778 0.8884 0.0
C1183 C 0.44605 0.08411 0.86352 0.0
C1184 C 0.42827 0.07775 0.86078 0.0
C1185 C 0.41776 0.07488 0.88281 0.0
C1186 C 0.42499 0.0783 0.90763 0.0
C1187 C 0.44277 0.08468 0.91047 0.0
H1188 H 0.40399 0.06996 0.88065 0.0
H1189 H 0.57613 0.12877 0.90512 0.0
H1190 H 0.45321 0.50327 0.45835 0.0
H1191 H 0.42688 0.4951 0.43388 0.0
H1192 H 0.42978 0.45427 0.3998 0.0
H1193 H 0.45589 0.46207 0.42465 0.0
H1194 H 0.42452 0.47354 0.36322 0.0
H1195 H 0.39978 0.44486 0.44614 0.0
H1196 H 0.3957 0.44246 0.49408 0.0
H1197 H 0.37915 0.47869 0.49001 0.0
H1198 H 0.38338 0.4815 0.44203 0.0
H1199 H 0.34241 0.43212 0.30457 0.0
H1200 H 0.36579 0.43712 0.33407 0.0
H1201 H 0.36383 0.47865 0.36752 0.0
H1202 H 0.34016 0.47352 0.33831 0.0
H1203 H 0.36822 0.45851 0.40495 0.0
H1204 H 0.39376 0.48789 0.32253 0.0
H1205 H 0.39795 0.49058 0.27459 0.0
H1206 H 0.41327 0.4534 0.27788 0.0
H1207 H 0.40891 0.45029 0.32584 0.0
C1208 C 0.44812 0.49238 0.44598 0.0
C1209 C 0.45669 0.48332 0.44351 0.0
C1210 C 0.43309 0.48777 0.43194 0.0
C1211 C 0.42633 0.47401 0.41517 0.0
C1212 C 0.43482 0.46495 0.41261 0.0
C1213 C 0.4498 0.46949 0.42673 0.0
C1214 C 0.41066 0.46938 0.39972 0.0
C1215 C 0.41213 0.46999 0.37236 0.0
C1216 C 0.39465 0.46519 0.41166 0.0
C1217 C 0.39207 0.46352 0.44051 0.0
C1218 C 0.39542 0.45243 0.45548 0.0
C1219 C 0.39305 0.45097 0.48266 0.0
C1220 C 0.38722 0.46045 0.49509 0.0
C1221 C 0.3837 0.47137 0.48035 0.0
C1222 C 0.38606 0.47289 0.45316 0.0
C1223 C 0.34669 0.44208 0.31858 0.0
C1224 C 0.33949 0.45247 0.31907 0.0
C1225 C 0.36014 0.44501 0.33527 0.0
C1226 C 0.36667 0.45839 0.35272 0.0
C1227 C 0.359 0.4683 0.35411 0.0
C1228 C 0.34558 0.46542 0.33732 0.0
C1229 C 0.38209 0.4626 0.3685 0.0
C1230 C 0.38059 0.46199 0.39586 0.0
C1231 C 0.39812 0.46683 0.35658 0.0
C1232 C 0.40082 0.46872 0.32775 0.0
C1233 C 0.39788 0.48017 0.31301 0.0
C1234 C 0.40031 0.48179 0.28584 0.0
C1235 C 0.40583 0.47213 0.27319 0.0
C1236 C 0.40897 0.46085 0.2877 0.0
C1237 C 0.40653 0.45916 0.31488 0.0
H1238 H 0.40771 0.4734 0.25215 0.0
H1239 H 0.38539 0.4593 0.51614 0.0
H1240 H 0.95489 0.41219 0.00969 0.0
H1241 H 0.93587 0.38724 0.98406 0.0
H1242 H 0.93802 0.4207 0.92078 0.0
H1243 H 0.95655 0.44564 0.94656 0.0
H1244 H 0.90537 0.39283 0.92791 0.0
H1245 H 0.96407 0.4041 0.92003 0.0
H1246 H 0.99158 0.4083 0.93707 0.0
H1247 H 0.96376 0.35789 0.97406 0.0
H1248 H 0.93604 0.35349 0.95751 0.0
H1249 H 0.88595 0.34233 0.81671 0.0
H1250 H 0.89764 0.36362 0.85035 0.0
H1251 H 0.89581 0.32597 0.90553 0.0
H1252 H 0.88434 0.30468 0.87174 0.0
H1253 H 0.92624 0.3541 0.9065 0.0
H1254 H 0.86781 0.34145 0.91084 0.0
H1255 H 0.84019 0.33708 0.89407 0.0
H1256 H 0.86674 0.38936 0.86447 0.0
H1257 H 0.89459 0.39398 0.88074 0.0
C1258 C 0.9511 0.41422 0.99048 0.0
C1259 C 0.95738 0.43092 0.98007 0.0
C1260 C 0.94033 0.39996 0.97578 0.0
C1261 C 0.93571 0.40212 0.95037 0.0
C1262 C 0.94147 0.41873 0.9403 0.0
C1263 C 0.95221 0.43298 0.95496 0.0
C1264 C 0.92555 0.3872 0.93372 0.0
C1265 C 0.90996 0.3844 0.92306 0.0
C1266 C 0.9313 0.37594 0.92799 0.0
C1267 C 0.94797 0.37854 0.93778 0.0
C1268 C 0.96381 0.39396 0.93196 0.0
C1269 C 0.97944 0.39637 0.9415 0.0
C1270 C 0.97941 0.38339 0.9567 0.0
C1271 C 0.96376 0.36795 0.96232 0.0
C1272 C 0.94809 0.36549 0.95286 0.0
C1273 C 0.88768 0.33849 0.83617 0.0
C1274 C 0.88424 0.32184 0.84158 0.0
C1275 C 0.89436 0.35068 0.85542 0.0
C1276 C 0.89749 0.34639 0.8806 0.0
C1277 C 0.89355 0.32961 0.88626 0.0
C1278 C 0.88701 0.31746 0.86694 0.0
C1279 C 0.90607 0.35975 0.90034 0.0
C1280 C 0.92144 0.36231 0.91157 0.0
C1281 C 0.90005 0.37074 0.90663 0.0
C1282 C 0.88332 0.36802 0.89685 0.0
C1283 C 0.86779 0.35198 0.90058 0.0
C1284 C 0.85209 0.34946 0.89119 0.0
C1285 C 0.85172 0.36292 0.87817 0.0
C1286 C 0.86705 0.37894 0.87455 0.0
C1287 C 0.88279 0.38152 0.88389 0.0
H1288 H 0.83954 0.36095 0.87091 0.0
H1289 H 0.99152 0.38528 0.96407 0.0
H1290 H 0.96347 0.49678 0.9747 0.0
H1291 H 0.94476 0.50427 0.9504 0.0
H1292 H 0.95445 0.54218 0.00657 0.0
H1293 H 0.97331 0.53472 0.03082 0.0
H1294 H 0.9189 0.52251 0.99013 0.0
H1295 H 0.97713 0.55587 0.95341 0.0
H1296 H 0.0044 0.55981 0.93519 0.0
H1297 H 0.97628 0.52756 0.87203 0.0
H1298 H 0.94878 0.52322 0.89011 0.0
H1299 H 0.89212 0.56925 0.9081 0.0
H1300 H 0.9073 0.56032 0.93808 0.0
H1301 H 0.90779 0.5277 0.87974 0.0
H1302 H 0.89358 0.53722 0.8493 0.0
H1303 H 0.9386 0.54566 0.89923 0.0
H1304 H 0.8804 0.51166 0.93533 0.0
H1305 H 0.85262 0.50634 0.95383 0.0
H1306 H 0.87973 0.53836 0.01771 0.0
H1307 H 0.90772 0.54406 0.99939 0.0
C1308 C 0.96138 0.50655 0.98193 0.0
C1309 C 0.96971 0.51521 0.00448 0.0
C1310 C 0.95075 0.51082 0.96813 0.0
C1311 C 0.94834 0.52385 0.97665 0.0
C1312 C 0.95612 0.53206 0.99978 0.0
C1313 C 0.96687 0.52785 0.01353 0.0
C1314 C 0.93868 0.52964 0.96034 0.0
C1315 C 0.92327 0.52779 0.97036 0.0
C1316 C 0.9443 0.53623 0.93445 0.0
C1317 C 0.96088 0.53911 0.92324 0.0
C1318 C 0.97675 0.54953 0.93572 0.0
C1319 C 0.99225 0.55185 0.92541 0.0
C1320 C 0.99207 0.54391 0.9025 0.0
C1321 C 0.9764 0.53369 0.88979 0.0
C1322 C 0.96085 0.53132 0.90005 0.0
C1323 C 0.89548 0.56019 0.90164 0.0
C1324 C 0.89156 0.55395 0.87625 0.0
C1325 C 0.90399 0.55495 0.91892 0.0
C1326 C 0.90857 0.54322 0.91125 0.0
C1327 C 0.90437 0.53674 0.88613 0.0
C1328 C 0.89602 0.54206 0.86882 0.0
C1329 C 0.91851 0.53829 0.92874 0.0
C1330 C 0.93413 0.5404 0.91898 0.0
C1331 C 0.91298 0.53184 0.95478 0.0
C1332 C 0.89617 0.52844 0.96583 0.0
C1333 C 0.88045 0.51769 0.9532 0.0
C1334 C 0.86467 0.51458 0.96368 0.0
C1335 C 0.86442 0.52205 0.98689 0.0
C1336 C 0.87995 0.5326 0.99971 0.0
C1337 C 0.89578 0.53577 0.9893 0.0
H1338 H 0.85218 0.51962 0.99497 0.0
H1339 H 0.00408 0.54569 0.89457 0.0
H1340 H 0.48205 0.95664 0.44647 0.0
H1341 H 0.45506 0.93681 0.42426 0.0
H1342 H 0.42692 0.95312 0.47113 0.0
H1343 H 0.454 0.973 0.49331 0.0
H1344 H 0.40815 0.91765 0.46425 0.0
H1345 H 0.43956 0.97031 0.41248 0.0
H1346 H 0.46546 0.99405 0.38927 0.0
H1347 H 0.46687 0.95842 0.33856 0.0
H1348 H 0.44111 0.93442 0.36173 0.0
H1349 H 0.35263 0.90337 0.33904 0.0
H1350 H 0.37597 0.92136 0.36848 0.0
H1351 H 0.37662 0.87707 0.3982 0.0
H1352 H 0.35285 0.85886 0.36931 0.0
H1353 H 0.40827 0.92756 0.36824 0.0
H1354 H 0.39027 0.88357 0.46172 0.0
H1355 H 0.364 0.86095 0.48579 0.0
H1356 H 0.33429 0.88146 0.45389 0.0
H1357 H 0.36042 0.90433 0.42992 0.0
C1358 C 0.47001 0.95576 0.45217 0.0
C1359 C 0.46994 0.96623 0.47145 0.0
C1360 C 0.45467 0.94451 0.43952 0.0
C1361 C 0.43904 0.94362 0.44593 0.0
C1362 C 0.43884 0.9536 0.46597 0.0
C1363 C 0.45423 0.96493 0.47855 0.0
C1364 C 0.42324 0.93311 0.43054 0.0
C1365 C 0.40814 0.91977 0.44326 0.0
C1366 C 0.42318 0.93612 0.40325 0.0
C1367 C 0.43849 0.95056 0.38898 0.0
C1368 C 0.44546 0.96753 0.39648 0.0
C1369 C 0.4601 0.98103 0.38332 0.0
C1370 C 0.46783 0.97774 0.3625 0.0
C1371 C 0.46088 0.96095 0.35472 0.0
C1372 C 0.44624 0.94739 0.36784 0.0
C1373 C 0.35744 0.89736 0.35226 0.0
C1374 C 0.35083 0.87965 0.35186 0.0
C1375 C 0.37091 0.90771 0.3689 0.0
C1376 C 0.37802 0.90057 0.38559 0.0
C1377 C 0.37122 0.88284 0.38568 0.0
C1378 C 0.35773 0.87247 0.36901 0.0
C1379 C 0.39315 0.91185 0.40183 0.0
C1380 C 0.4082 0.92538 0.38923 0.0
C1381 C 0.39304 0.90913 0.42926 0.0
C1382 C 0.37728 0.89556 0.44383 0.0
C1383 C 0.37814 0.88329 0.45993 0.0
C1384 C 0.36327 0.87042 0.47354 0.0
C1385 C 0.34747 0.86974 0.47131 0.0
C1386 C 0.34652 0.88196 0.45552 0.0
C1387 C 0.36135 0.89486 0.44189 0.0
H1388 H 0.33597 0.85976 0.48185 0.0
H1389 H 0.47918 0.98821 0.35236 0.0
H1390 H 0.48761 0.42094 0.97429 0.0
H1391 H 0.48126 0.39594 0.94971 0.0
H1392 H 0.51479 0.42936 0.88627 0.0
H1393 H 0.52098 0.45436 0.91061 0.0
H1394 H 0.48633 0.40476 0.86732 0.0
H1395 H 0.52737 0.40767 0.9289 0.0
H1396 H 0.53976 0.40933 0.97241 0.0
H1397 H 0.49447 0.36095 0.99625 0.0
H1398 H 0.48169 0.35912 0.95298 0.0
H1399 H 0.49461 0.32718 0.83371 0.0
H1400 H 0.50332 0.35198 0.86039 0.0
H1401 H 0.45264 0.34542 0.85107 0.0
H1402 H 0.44413 0.32126 0.82348 0.0
H1403 H 0.49224 0.35752 0.90525 0.0
H1404 H 0.45656 0.3839 0.84384 0.0
H1405 H 0.44738 0.38372 0.79839 0.0
H1406 H 0.48802 0.3765 0.77079 0.0
H1407 H 0.4976 0.37689 0.81602 0.0
C1408 C 0.49372 0.42294 0.95517 0.0
C1409 C 0.50478 0.43961 0.94436 0.0
C1410 C 0.49011 0.40865 0.94116 0.0
C1411 C 0.4977 0.41075 0.91624 0.0
C1412 C 0.50874 0.4274 0.90542 0.0
C1413 C 0.51223 0.44168 0.91932 0.0
C1414 C 0.49382 0.39562 0.90113 0.0
C1415 C 0.48764 0.39445 0.87566 0.0
C1416 C 0.49585 0.3823 0.91174 0.0
C1417 C 0.50351 0.38333 0.93777 0.0
C1418 C 0.51999 0.39745 0.94348 0.0
C1419 C 0.52709 0.39841 0.96809 0.0
C1420 C 0.51789 0.38527 0.9871 0.0
C1421 C 0.50158 0.37113 0.98151 0.0
C1422 C 0.49441 0.37011 0.95694 0.0
C1423 C 0.48533 0.33104 0.8373 0.0
C1424 C 0.4687 0.32226 0.82626 0.0
C1425 C 0.49028 0.34512 0.85275 0.0
C1426 C 0.47873 0.35071 0.85739 0.0
C1427 C 0.46187 0.3415 0.84741 0.0
C1428 C 0.45695 0.32752 0.83187 0.0
C1429 C 0.48444 0.36656 0.87173 0.0
C1430 C 0.49095 0.36785 0.89699 0.0
C1431 C 0.48317 0.38024 0.86069 0.0
C1432 C 0.47768 0.38026 0.83336 0.0
C1433 C 0.46358 0.38235 0.82806 0.0
C1434 C 0.45831 0.3822 0.80234 0.0
C1435 C 0.46708 0.38005 0.78172 0.0
C1436 C 0.4812 0.37811 0.78678 0.0
C1437 C 0.48654 0.37827 0.81246 0.0
H1438 H 0.46296 0.37991 0.76183 0.0
H1439 H 0.52341 0.38604 0.00614 0.0
H1440 H 0.06164 0.46618 0.47574 0.0
H1441 H 0.08014 0.4599 0.44938 0.0
H1442 H 0.12599 0.50419 0.47837 0.0
H1443 H 0.10754 0.51072 0.50447 0.0
H1444 H 0.12732 0.50271 0.4252 0.0
H1445 H 0.11545 0.46479 0.49969 0.0
H1446 H 0.09685 0.44237 0.53303 0.0
H1447 H 0.07079 0.40645 0.47292 0.0
H1448 H 0.08907 0.42873 0.43917 0.0
H1449 H 0.18409 0.4822 0.36171 0.0
H1450 H 0.16963 0.48883 0.39584 0.0
H1451 H 0.12053 0.44337 0.37885 0.0
H1452 H 0.13493 0.43658 0.34521 0.0
H1453 H 0.12314 0.4465 0.42948 0.0
H1454 H 0.13223 0.48436 0.35515 0.0
H1455 H 0.1496 0.50656 0.32079 0.0
H1456 H 0.17958 0.54224 0.37944 0.0
H1457 H 0.16253 0.52016 0.41415 0.0
C1458 C 0.07566 0.47456 0.47654 0.0
C1459 C 0.08313 0.48893 0.49221 0.0
C1460 C 0.08622 0.47089 0.46162 0.0
C1461 C 0.10445 0.4815 0.46208 0.0
C1462 C 0.11196 0.4958 0.47782 0.0
C1463 C 0.1014 0.49943 0.49286 0.0
C1464 C 0.11561 0.47799 0.44534 0.0
C1465 C 0.12667 0.49054 0.42644 0.0
C1466 C 0.11445 0.46197 0.4466 0.0
C1467 C 0.10355 0.44848 0.46688 0.0
C1468 C 0.10568 0.45214 0.49356 0.0
C1469 C 0.0952 0.43945 0.51254 0.0
C1470 C 0.08262 0.42301 0.5051 0.0
C1471 C 0.08053 0.4192 0.47866 0.0
C1472 C 0.09096 0.43185 0.4596 0.0
C1473 C 0.17023 0.47362 0.36537 0.0
C1474 C 0.16065 0.45886 0.35081 0.0
C1475 C 0.16196 0.47742 0.38483 0.0
C1476 C 0.14392 0.4667 0.38973 0.0
C1477 C 0.13446 0.4518 0.37555 0.0
C1478 C 0.14272 0.44791 0.35633 0.0
C1479 C 0.13469 0.47114 0.40902 0.0
C1480 C 0.12397 0.45875 0.42841 0.0
C1481 C 0.13603 0.48726 0.40806 0.0
C1482 C 0.14624 0.50056 0.38722 0.0
C1483 C 0.14262 0.4969 0.3607 0.0
C1484 C 0.15239 0.50947 0.34117 0.0
C1485 C 0.16572 0.52578 0.34793 0.0
C1486 C 0.16928 0.52958 0.37423 0.0
C1487 C 0.15956 0.51705 0.39384 0.0
H1488 H 0.17327 0.5355 0.33278 0.0
H1489 H 0.07451 0.4132 0.51982 0.0
H1490 H 0.57594 0.0623 0.94144 0.0
H1491 H 0.60236 0.0823 0.91551 0.0
H1492 H 0.62739 0.05601 0.94512 0.0
H1493 H 0.60095 0.03612 0.97125 0.0
H1494 H 0.64949 0.09113 0.94364 0.0
H1495 H 0.61037 0.04787 0.88609 0.0
H1496 H 0.58228 0.02987 0.86477 0.0
H1497 H 0.58591 0.07485 0.82939 0.0
H1498 H 0.61389 0.09315 0.85092 0.0
H1499 H 0.71755 0.12366 0.84652 0.0
H1500 H 0.69291 0.10579 0.87652 0.0
H1501 H 0.66528 0.12855 0.8435 0.0
H1502 H 0.68945 0.14582 0.81265 0.0
H1503 H 0.64464 0.09503 0.84739 0.0
H1504 H 0.68371 0.13841 0.90502 0.0
H1505 H 0.71146 0.15649 0.92719 0.0
H1506 H 0.70793 0.11155 0.96254 0.0
H1507 H 0.68026 0.09318 0.9403 0.0
C1508 C 0.58718 0.06095 0.94242 0.0
C1509 C 0.58659 0.04779 0.95803 0.0
C1510 C 0.60219 0.07229 0.92766 0.0
C1511 C 0.61677 0.07051 0.9282 0.0
C1512 C 0.6163 0.05759 0.94443 0.0
C1513 C 0.60125 0.04624 0.95921 0.0
C1514 C 0.63223 0.08176 0.9111 0.0
C1515 C 0.6485 0.09186 0.92256 0.0
C1516 C 0.63084 0.0829 0.88366 0.0
C1517 C 0.61416 0.07189 0.87031 0.0
C1518 C 0.60513 0.05393 0.8739 0.0
C1519 C 0.58922 0.04367 0.86177 0.0
C1520 C 0.5823 0.05121 0.84577 0.0
C1521 C 0.59128 0.06903 0.84181 0.0
C1522 C 0.60717 0.07935 0.85397 0.0
C1523 C 0.70623 0.12486 0.84561 0.0
C1524 C 0.70553 0.13622 0.82713 0.0
C1525 C 0.69221 0.11476 0.86298 0.0
C1526 C 0.67729 0.11593 0.86245 0.0
C1527 C 0.67667 0.12745 0.84434 0.0
C1528 C 0.69062 0.13747 0.82688 0.0
C1529 C 0.66197 0.10462 0.87989 0.0
C1530 C 0.64568 0.0944 0.86847 0.0
C1531 C 0.66338 0.1034 0.90735 0.0
C1532 C 0.67999 0.11442 0.92078 0.0
C1533 C 0.68892 0.13238 0.91736 0.0
C1534 C 0.70462 0.14268 0.92997 0.0
C1535 C 0.71147 0.13517 0.94621 0.0
C1536 C 0.70261 0.11735 0.94993 0.0
C1537 C 0.68691 0.10699 0.93734 0.0
H1538 H 0.72363 0.14317 0.95596 0.0
H1539 H 0.56998 0.04325 0.8364 0.0
H1540 H 0.51935 0.559 0.46854 0.0
H1541 H 0.5272 0.587 0.44895 0.0
H1542 H 0.58163 0.60315 0.45054 0.0
H1543 H 0.57374 0.57546 0.47158 0.0
H1544 H 0.57876 0.62891 0.46147 0.0
H1545 H 0.55634 0.5879 0.39438 0.0
H1546 H 0.53493 0.56114 0.37374 0.0
H1547 H 0.49738 0.57652 0.37445 0.0
H1548 H 0.5185 0.60328 0.39548 0.0
H1549 H 0.6097 0.69058 0.35379 0.0
H1550 H 0.60117 0.66618 0.38408 0.0
H1551 H 0.55016 0.65893 0.39366 0.0
H1552 H 0.55878 0.68383 0.36421 0.0
H1553 H 0.55033 0.62937 0.37874 0.0
H1554 H 0.57551 0.67234 0.4432 0.0
H1555 H 0.59856 0.69918 0.46175 0.0
H1556 H 0.63312 0.68015 0.46274 0.0
H1557 H 0.61036 0.65328 0.44382 0.0
C1558 C 0.53297 0.56866 0.46493 0.0
C1559 C 0.54597 0.56514 0.47118 0.0
C1560 C 0.53746 0.58458 0.45361 0.0
C1561 C 0.55499 0.59707 0.44769 0.0
C1562 C 0.56802 0.59372 0.45479 0.0
C1563 C 0.56354 0.57791 0.46661 0.0
C1564 C 0.55972 0.61335 0.43324 0.0
C1565 C 0.57264 0.62898 0.44327 0.0
C1566 C 0.5516 0.61352 0.40963 0.0
C1567 C 0.53894 0.59751 0.39675 0.0
C1568 C 0.54348 0.58553 0.39029 0.0
C1569 C 0.5314 0.57036 0.37851 0.0
C1570 C 0.51479 0.56711 0.37285 0.0
C1571 C 0.51024 0.57904 0.37889 0.0
C1572 C 0.52226 0.59422 0.39073 0.0
C1573 C 0.59683 0.68417 0.36288 0.0
C1574 C 0.58492 0.6892 0.3564 0.0
C1575 C 0.59195 0.67014 0.38009 0.0
C1576 C 0.57504 0.66077 0.39106 0.0
C1577 C 0.56326 0.66598 0.38529 0.0
C1578 C 0.56819 0.68016 0.36833 0.0
C1579 C 0.56933 0.64482 0.40697 0.0
C1580 C 0.55629 0.62926 0.3971 0.0
C1581 C 0.57759 0.64472 0.43038 0.0
C1582 C 0.59127 0.66084 0.44188 0.0
C1583 C 0.58807 0.67393 0.44716 0.0
C1584 C 0.60108 0.68914 0.45779 0.0
C1585 C 0.6173 0.69139 0.46337 0.0
C1586 C 0.62055 0.6784 0.45839 0.0
C1587 C 0.60759 0.66317 0.44774 0.0
H1588 H 0.62735 0.70317 0.47159 0.0
H1589 H 0.50546 0.55536 0.36373 0.0
H1590 H 0.52731 0.06515 0.58472 0.0
H1591 H 0.51984 0.08438 0.60474 0.0
H1592 H 0.47774 0.06887 0.55093 0.0
H1593 H 0.48576 0.05018 0.53011 0.0
H1594 H 0.49249 0.10133 0.55675 0.0
H1595 H 0.47114 0.05302 0.61651 0.0
H1596 H 0.47235 0.03129 0.64465 0.0
H1597 H 0.51132 0.07093 0.69113 0.0
H1598 H 0.51051 0.09293 0.66304 0.0
H1599 H 0.44619 0.1283 0.63814 0.0
H1600 H 0.45523 0.1122 0.61203 0.0
H1601 H 0.50365 0.13462 0.65305 0.0
H1602 H 0.49471 0.15068 0.67919 0.0
H1603 H 0.48486 0.09853 0.65319 0.0
H1604 H 0.50458 0.14672 0.59179 0.0
H1605 H 0.50107 0.16708 0.5637 0.0
H1606 H 0.46171 0.12541 0.52062 0.0
H1607 H 0.4648 0.10476 0.54871 0.0
C1608 C 0.51646 0.06587 0.57723 0.0
C1609 C 0.507 0.05612 0.55606 0.0
C1610 C 0.51215 0.0768 0.58871 0.0
C1611 C 0.49797 0.07782 0.57975 0.0
C1612 C 0.4887 0.06829 0.55825 0.0
C1613 C 0.49324 0.05759 0.54642 0.0
C1614 C 0.49275 0.08871 0.59297 0.0
C1615 C 0.4906 0.10054 0.57781 0.0
C1616 C 0.49041 0.08783 0.6205 0.0
C1617 C 0.49088 0.07463 0.63752 0.0
C1618 C 0.48005 0.05711 0.63262 0.0
C1619 C 0.48066 0.04475 0.64858 0.0
C1620 C 0.49194 0.04973 0.66962 0.0
C1621 C 0.5026 0.06709 0.6748 0.0
C1622 C 0.50207 0.07951 0.65888 0.0
C1623 C 0.45886 0.12996 0.64129 0.0
C1624 C 0.46976 0.14075 0.66066 0.0
C1625 C 0.46403 0.12082 0.62632 0.0
C1626 C 0.48011 0.12225 0.63064 0.0
C1627 C 0.49121 0.13339 0.64942 0.0
C1628 C 0.48614 0.14265 0.66417 0.0
C1629 C 0.48484 0.11121 0.617 0.0
C1630 C 0.48679 0.09929 0.63213 0.0
C1631 C 0.48663 0.11177 0.58948 0.0
C1632 C 0.4848 0.12418 0.57253 0.0
C1633 C 0.49506 0.14188 0.57648 0.0
C1634 C 0.49317 0.15348 0.56053 0.0
C1635 C 0.48114 0.14754 0.54044 0.0
C1636 C 0.47101 0.12999 0.53622 0.0
C1637 C 0.47284 0.11834 0.55213 0.0
H1638 H 0.4797 0.15654 0.5281 0.0
H1639 H 0.49239 0.04013 0.68195 0.0
H1640 H 0.48206 0.51231 0.06686 0.0
H1641 H 0.45597 0.50859 0.08875 0.0
H1642 H 0.42343 0.4682 0.03703 0.0
H1643 H 0.44962 0.47205 0.01505 0.0
H1644 H 0.41102 0.48944 0.04489 0.0
H1645 H 0.43034 0.4584 0.09688 0.0
H1646 H 0.45168 0.45458 0.1214 0.0
H1647 H 0.45821 0.49261 0.17466 0.0
H1648 H 0.43715 0.49691 0.15013 0.0
H1649 H 0.33267 0.44766 0.12392 0.0
H1650 H 0.35857 0.45536 0.09728 0.0
H1651 H 0.39043 0.49634 0.14844 0.0
H1652 H 0.36461 0.48861 0.17526 0.0
H1653 H 0.40326 0.47541 0.14038 0.0
H1654 H 0.38308 0.50579 0.08831 0.0
H1655 H 0.36176 0.50932 0.06319 0.0
H1656 H 0.35631 0.47164 0.01008 0.0
H1657 H 0.37743 0.46769 0.03511 0.0
C1658 C 0.4693 0.50277 0.06013 0.0
C1659 C 0.46769 0.49247 0.03938 0.0
C1660 C 0.45445 0.50061 0.0726 0.0
C1661 C 0.43776 0.48801 0.06466 0.0
C1662 C 0.43618 0.47801 0.04343 0.0
C1663 C 0.45106 0.48016 0.03096 0.0
C1664 C 0.422 0.48481 0.07922 0.0
C1665 C 0.40921 0.48619 0.06571 0.0
C1666 C 0.4198 0.48083 0.10647 0.0
C1667 C 0.43229 0.4781 0.1215 0.0
C1668 C 0.43642 0.46605 0.1137 0.0
C1669 C 0.44846 0.46378 0.12761 0.0
C1670 C 0.45633 0.47337 0.14954 0.0
C1671 C 0.45213 0.48521 0.15764 0.0
C1672 C 0.44014 0.48757 0.14374 0.0
C1673 C 0.34517 0.45844 0.12928 0.0
C1674 C 0.34661 0.46755 0.15165 0.0
C1675 C 0.35994 0.46287 0.11399 0.0
C1676 C 0.37642 0.47645 0.12085 0.0
C1677 C 0.37782 0.48584 0.14279 0.0
C1678 C 0.36305 0.48151 0.15795 0.0
C1679 C 0.3923 0.48015 0.10611 0.0
C1680 C 0.4051 0.47877 0.11959 0.0
C1681 C 0.39443 0.484 0.07884 0.0
C1682 C 0.38171 0.48632 0.06375 0.0
C1683 C 0.37722 0.49814 0.07142 0.0
C1684 C 0.36519 0.50024 0.05716 0.0
C1685 C 0.35765 0.49068 0.0351 0.0
C1686 C 0.36215 0.47902 0.0272 0.0
C1687 C 0.37416 0.47686 0.0414 0.0
H1688 H 0.34835 0.49233 0.02408 0.0
H1689 H 0.46564 0.4716 0.16029 0.0
H1690 H 0.02593 0.45421 0.60438 0.0
H1691 H 0.00887 0.42413 0.61823 0.0
H1692 H 0.9762 0.41383 0.55161 0.0
H1693 H 0.99341 0.44383 0.53751 0.0
H1694 H 0.95787 0.4057 0.6005 0.0
H1695 H 0.99842 0.39563 0.55687 0.0
H1696 H 0.02745 0.40082 0.54555 0.0
H1697 H 0.03441 0.39053 0.62564 0.0
H1698 H 0.00553 0.38554 0.63754 0.0
H1699 H 0.89839 0.32101 0.64373 0.0
H1700 H 0.91978 0.34492 0.61515 0.0
H1701 H 0.95978 0.35625 0.67126 0.0
H1702 H 0.93854 0.33196 0.69937 0.0
H1703 H 0.97371 0.36268 0.62404 0.0
H1704 H 0.937 0.37727 0.66959 0.0
H1705 H 0.90927 0.37399 0.68414 0.0
H1706 H 0.89676 0.37818 0.60436 0.0
H1707 H 0.92433 0.38125 0.58931 0.0
C1708 C 0.01457 0.44589 0.59333 0.0
C1709 C 0.0088 0.45231 0.57282 0.0
C1710 C 0.00521 0.42843 0.60078 0.0
C1711 C 0.99053 0.41691 0.58688 0.0
C1712 C 0.98686 0.4227 0.56354 0.0
C1713 C 0.99636 0.44013 0.55607 0.0
C1714 C 0.97787 0.39959 0.59834 0.0
C1715 C 0.96119 0.39611 0.60508 0.0
C1716 C 0.98248 0.38743 0.60524 0.0
C1717 C 0.99984 0.39034 0.59814 0.0
C1718 C 0.00619 0.39462 0.57212 0.0
C1719 C 0.02262 0.3975 0.56559 0.0
C1720 C 0.03278 0.39604 0.58488 0.0
C1721 C 0.02652 0.39166 0.61073 0.0
C1722 C 0.01012 0.38879 0.61737 0.0
C1723 C 0.91181 0.32848 0.64973 0.0
C1724 C 0.9168 0.32474 0.67381 0.0
C1725 C 0.92402 0.34215 0.63345 0.0
C1726 C 0.94135 0.35265 0.64129 0.0
C1727 C 0.94652 0.34838 0.66476 0.0
C1728 C 0.93437 0.33451 0.68084 0.0
C1729 C 0.95367 0.36879 0.62617 0.0
C1730 C 0.97028 0.37213 0.619 0.0
C1731 C 0.9492 0.3811 0.61932 0.0
C1732 C 0.93262 0.37928 0.62831 0.0
C1733 C 0.92827 0.37736 0.65514 0.0
C1734 C 0.91259 0.37556 0.66348 0.0
C1735 C 0.90123 0.37582 0.64518 0.0
C1736 C 0.90555 0.37794 0.61851 0.0
C1737 C 0.9212 0.37971 0.61006 0.0
H1738 H 0.88911 0.37443 0.65168 0.0
H1739 H 0.04549 0.39828 0.57978 0.0
H1740 H 0.5802 0.98081 0.06247 0.0
H1741 H 0.58799 0.9621 0.08618 0.0
H1742 H 0.53443 0.92033 0.0851 0.0
H1743 H 0.52661 0.93891 0.06112 0.0
H1744 H 0.55109 0.92689 0.1357 0.0
H1745 H 0.56045 0.91833 0.04588 0.0
H1746 H 0.57314 0.92807 0.00134 0.0
H1747 H 0.62467 0.95178 0.03206 0.0
H1748 H 0.61228 0.94239 0.07685 0.0
H1749 H 0.56172 0.86136 0.18718 0.0
H1750 H 0.55382 0.87758 0.15794 0.0
H1751 H 0.60821 0.91439 0.14093 0.0
H1752 H 0.61625 0.89748 0.16855 0.0
H1753 H 0.59105 0.9105 0.09887 0.0
H1754 H 0.58373 0.92068 0.18734 0.0
H1755 H 0.5729 0.9131 0.23304 0.0
H1756 H 0.5202 0.88982 0.2073 0.0
H1757 H 0.53069 0.89689 0.16135 0.0
C1758 C 0.57012 0.96762 0.06727 0.0
C1759 C 0.55282 0.96126 0.05995 0.0
C1760 C 0.57458 0.95696 0.08069 0.0
C1761 C 0.56178 0.93985 0.08726 0.0
C1762 C 0.54448 0.9335 0.08012 0.0
C1763 C 0.54006 0.94407 0.06634 0.0
C1764 C 0.56637 0.92867 0.10206 0.0
C1765 C 0.55961 0.92306 0.12758 0.0
C1766 C 0.57799 0.92426 0.09168 0.0
C1767 C 0.58544 0.9298 0.06474 0.0
C1768 C 0.57449 0.92575 0.04316 0.0
C1769 C 0.58163 0.93118 0.01786 0.0
C1770 C 0.5997 0.94058 0.01387 0.0
C1771 C 0.61068 0.94452 0.03518 0.0
C1772 C 0.6036 0.93913 0.06052 0.0
C1773 C 0.57205 0.87262 0.17671 0.0
C1774 C 0.58968 0.87814 0.18052 0.0
C1775 C 0.56749 0.88207 0.16027 0.0
C1776 C 0.58042 0.89748 0.14779 0.0
C1777 C 0.59799 0.90263 0.15057 0.0
C1778 C 0.60257 0.89303 0.16665 0.0
C1779 C 0.57566 0.90853 0.13264 0.0
C1780 C 0.58245 0.91421 0.10707 0.0
C1781 C 0.56435 0.91334 0.14322 0.0
C1782 C 0.55799 0.90916 0.17086 0.0
C1783 C 0.56982 0.91383 0.1914 0.0
C1784 C 0.56375 0.90964 0.21736 0.0
C1785 C 0.54588 0.90099 0.22308 0.0
C1786 C 0.53404 0.89651 0.20284 0.0
C1787 C 0.54004 0.90059 0.17682 0.0
H1788 H 0.5412 0.89778 0.2432 0.0
H1789 H 0.6052 0.94477 0.99427 0.0
H1790 H 0.61192 0.54221 0.53607 0.0
H1791 H 0.63781 0.54928 0.56114 0.0
H1792 H 0.60503 0.5179 0.62659 0.0
H1793 H 0.57913 0.51065 0.60164 0.0
H1794 H 0.63096 0.54867 0.64175 0.0
H1795 H 0.62552 0.5041 0.58785 0.0
H1796 H 0.62314 0.49031 0.54624 0.0
H1797 H 0.6727 0.53335 0.52013 0.0
H1798 H 0.67527 0.54751 0.56146 0.0
H1799 H 0.68954 0.54096 0.7214 0.0
H1800 H 0.66586 0.53402 0.69164 0.0
H1801 H 0.70301 0.56711 0.63134 0.0
H1802 H 0.72698 0.5737 0.66085 0.0
H1803 H 0.67626 0.53735 0.61174 0.0
H1804 H 0.68227 0.58149 0.66601 0.0
H1805 H 0.68482 0.5954 0.70754 0.0
H1806 H 0.63427 0.55353 0.73262 0.0
H1807 H 0.63152 0.53924 0.69138 0.0
C1808 C 0.61022 0.53666 0.5557 0.0
C1809 C 0.59345 0.52588 0.56687 0.0
C1810 C 0.62504 0.54074 0.57001 0.0
C1811 C 0.62335 0.53403 0.59568 0.0
C1812 C 0.60663 0.52328 0.60685 0.0
C1813 C 0.59184 0.5192 0.59259 0.0
C1814 C 0.63894 0.53845 0.61122 0.0
C1815 C 0.64076 0.54601 0.63531 0.0
C1816 C 0.652 0.53547 0.60244 0.0
C1817 C 0.6505 0.52695 0.57763 0.0
C1818 C 0.63585 0.51069 0.57314 0.0
C1819 C 0.63447 0.50279 0.54963 0.0
C1820 C 0.64774 0.51097 0.53053 0.0
C1821 C 0.66242 0.52704 0.53493 0.0
C1822 C 0.66385 0.53501 0.5584 0.0
C1823 C 0.69276 0.54649 0.70164 0.0
C1824 C 0.71019 0.55791 0.69353 0.0
C1825 C 0.67917 0.54265 0.68474 0.0
C1826 C 0.68266 0.55027 0.65944 0.0
C1827 C 0.70004 0.56117 0.65086 0.0
C1828 C 0.71369 0.56502 0.66779 0.0
C1829 C 0.66808 0.54726 0.64245 0.0
C1830 C 0.66649 0.54005 0.61809 0.0
C1831 C 0.65522 0.5506 0.65092 0.0
C1832 C 0.65676 0.55922 0.67568 0.0
C1833 C 0.67175 0.57519 0.68046 0.0
C1834 C 0.67322 0.58315 0.70394 0.0
C1835 C 0.65973 0.57534 0.72273 0.0
C1836 C 0.64471 0.55956 0.71805 0.0
C1837 C 0.64319 0.55153 0.69462 0.0
H1838 H 0.66089 0.58152 0.7409 0.0
H1839 H 0.64665 0.50483 0.51233 0.0
H1840 H 0.03905 0.57011 0.10871 0.0
H1841 H 0.05911 0.59647 0.13105 0.0
H1842 H 0.10072 0.587 0.11958 0.0
H1843 H 0.08079 0.56076 0.09703 0.0
H1844 H 0.09702 0.59572 0.17181 0.0
H1845 H 0.10104 0.6156 0.08181 0.0
H1846 H 0.08904 0.61894 0.04032 0.0
H1847 H 0.06776 0.64488 0.07945 0.0
H1848 H 0.07942 0.64146 0.12129 0.0
H1849 H 0.16886 0.67355 0.20855 0.0
H1850 H 0.14929 0.64901 0.18309 0.0
H1851 H 0.11269 0.66586 0.18 0.0
H1852 H 0.13278 0.69117 0.20397 0.0
H1853 H 0.1129 0.65316 0.13543 0.0
H1854 H 0.10783 0.6339 0.22465 0.0
H1855 H 0.11804 0.6301 0.26757 0.0
H1856 H 0.13874 0.60237 0.23249 0.0
H1857 H 0.12887 0.60622 0.18926 0.0
C1858 C 0.05246 0.57365 0.11108 0.0
C1859 C 0.05841 0.56346 0.10112 0.0
C1860 C 0.0639 0.58871 0.12369 0.0
C1861 C 0.08139 0.59368 0.12681 0.0
C1862 C 0.08727 0.58337 0.1173 0.0
C1863 C 0.07592 0.56847 0.10435 0.0
C1864 C 0.0936 0.60963 0.14006 0.0
C1865 C 0.10069 0.60831 0.16374 0.0
C1866 C 0.09787 0.62596 0.12989 0.0
C1867 C 0.09094 0.6281 0.10473 0.0
C1868 C 0.09366 0.62187 0.08162 0.0
C1869 C 0.08695 0.62381 0.05803 0.0
C1870 C 0.0776 0.63208 0.05726 0.0
C1871 C 0.07498 0.63846 0.08008 0.0
C1872 C 0.08165 0.63653 0.10373 0.0
C1873 C 0.15687 0.67235 0.20194 0.0
C1874 C 0.15241 0.68437 0.20856 0.0
C1875 C 0.14553 0.6581 0.18769 0.0
C1876 C 0.12929 0.65532 0.1802 0.0
C1877 C 0.12507 0.66763 0.18579 0.0
C1878 C 0.13652 0.68202 0.19975 0.0
C1879 C 0.11655 0.63934 0.1672 0.0
C1880 C 0.10928 0.64061 0.1436 0.0
C1881 C 0.11185 0.6229 0.17769 0.0
C1882 C 0.11775 0.6205 0.20367 0.0
C1883 C 0.11467 0.6271 0.22605 0.0
C1884 C 0.12038 0.62492 0.25044 0.0
C1885 C 0.12907 0.61604 0.25274 0.0
C1886 C 0.13203 0.60927 0.23067 0.0
C1887 C 0.12636 0.61144 0.20622 0.0
H1888 H 0.13348 0.61436 0.27164 0.0
H1889 H 0.07241 0.63357 0.03898 0.0
loop_
_geom_bond_atom_site_label_1
_geom_bond_atom_site_label_2
_geom_bond_distance
_geom_bond_site_symmetry_2
_ccdc_geom_bond_type
C0 C1 1.443 . S
C0 N4 1.376 . S
C0 C38 1.389 . S
C1 C0 1.443 . S
C1 C2 1.340 . S
C1 H41 0.951 . S
C2 C1 1.340 . S
C2 C3 1.439 . S
C2 H42 0.950 . S
C3 C2 1.439 . S
C3 N4 1.374 . S
C3 C37 1.395 . S
N4 C0 1.376 . S
N4 C3 1.374 . S
N4 Co5 2.008 1_655 S
Co5 N4 2.008 1_455 S
Co5 N6 1.974 . S
Co5 N11 2.008 . S
Co5 N16 1.995 . S
Co5 N21 2.282 . S
Co5 N27 2.282 1_455 S
N6 Co5 1.974 . S
N6 C7 1.331 1_455 S
N6 C10 1.459 . S
C7 N6 1.331 1_655 S
C7 C8 1.446 . S
C7 C37 1.391 . S
C8 C7 1.446 . S
C8 C9 1.339 1_655 S
C8 H43 0.949 . S
C9 C8 1.339 1_455 S
C9 C10 1.439 . S
C9 H44 0.950 . S
C10 N6 1.459 . S
C10 C9 1.439 . S
C10 C39 1.392 . S
N11 Co5 2.008 . S
N11 C12 1.376 . S
N11 C15 1.374 . S
C12 N11 1.376 . S
C12 C13 1.443 . S
C12 C39 1.389 . S
C13 C12 1.443 . S
C13 C14 1.340 . S
C13 H45 0.951 . S
C14 C13 1.340 . S
C14 C15 1.439 . S
C14 H46 0.950 . S
C15 N11 1.374 . S
C15 C14 1.439 . S
C15 C40 1.395 1_554 S
N16 Co5 1.995 . S
N16 C17 1.376 1_554 S
N16 C20 1.383 1_455 S
C17 N16 1.376 1_556 S
C17 C18 1.446 . S
C17 C40 1.391 . S
C18 C17 1.446 . S
C18 C19 1.339 1_455 S
C18 H47 0.949 . S
C19 C18 1.339 1_655 S
C19 C20 1.439 1_556 S
C19 H48 0.950 . S
C20 N16 1.383 1_655 S
C20 C19 1.439 1_554 S
C20 C38 1.392 . S
N21 Co5 2.282 . S
N21 C24 1.332 . S
N21 C26 1.332 . S
C22 C23 1.386 . S
C22 C25 1.388 . S
C23 C22 1.386 . S
C23 C24 1.382 . S
C23 H49 0.950 . S
C24 N21 1.332 . S
C24 C23 1.382 . S
C24 H35 0.952 . S
C25 C22 1.388 . S
C25 C26 1.382 . S
C25 H50 0.950 . S
C26 N21 1.332 . S
C26 C25 1.382 . S
C26 H36 0.948 . S
N27 Co5 2.282 1_655 S
N27 C31 1.332 . S
N27 C32 1.332 . S
C28 C29 1.371 1_556 S
C28 C32 1.382 1_556 S
C28 H51 0.950 . S
C29 C28 1.371 1_554 S
C29 C30 1.423 . S
C30 C29 1.423 . S
C30 C31 1.382 . S
C30 H52 0.950 . S
C31 N27 1.332 . S
C31 C30 1.382 . S
C31 H33 0.952 . S
C32 N27 1.332 . S
C32 C28 1.382 1_554 S
C32 H34 0.948 1_554 S
H33 C31 0.952 . S
H34 C32 0.948 1_556 S
H35 C24 0.952 . S
H36 C26 0.948 . S
C37 C3 1.395 . S
C37 C7 1.391 . S
C38 C0 1.389 . S
C38 C20 1.392 . S
C39 C10 1.392 . S
C39 C12 1.389 . S
C40 C15 1.395 1_556 S
C40 C17 1.391 . S
H41 C1 0.951 . S
H42 C2 0.950 . S
H43 C8 0.949 . S
H44 C9 0.950 . S
H45 C13 0.951 . S
H46 C14 0.950 . S
H47 C18 0.949 . S
H48 C19 0.950 . S
H49 C23 0.950 . S
H50 C25 0.950 . S
H51 C28 0.950 . S
H52 C30 0.950 . S
C53 C54 1.443 . S
C53 N57 1.376 . S
C53 C91 1.389 . S
C54 C53 1.443 . S
C54 C55 1.340 . S
C54 H94 0.951 . S
C55 C54 1.340 . S
C55 C56 1.439 1_545 S
C55 H95 0.950 1_545 S
C56 C55 1.439 1_565 S
C56 N57 1.374 1_565 S
C56 C90 1.395 . S
N57 C53 1.376 . S
N57 C56 1.374 1_545 S
N57 Co58 2.008 . S
Co58 N57 2.008 . S
Co58 N59 1.995 1_545 S
Co58 N64 2.008 . S
Co58 N69 1.995 . S
Co58 N74 2.282 1_545 S
Co58 N80 2.282 . S
N59 Co58 1.995 1_565 S
N59 C60 1.376 . S
N59 C63 1.383 . S
C60 N59 1.376 . S
C60 C61 1.446 . S
C60 C90 1.391 . S
C61 C60 1.446 . S
C61 C62 1.339 . S
C61 H96 0.949 . S
C62 C61 1.339 . S
C62 C63 1.439 . S
C62 H97 0.950 . S
C63 N59 1.383 . S
C63 C62 1.439 . S
C63 C92 1.392 . S
N64 Co58 2.008 . S
N64 C65 1.376 1_545 S
N64 C68 1.374 . S
C65 N64 1.376 1_565 S
C65 C66 1.443 . S
C65 C92 1.389 . S
C66 C65 1.443 . S
C66 C67 1.340 1_565 S
C66 H98 0.951 . S
C67 C66 1.340 1_545 S
C67 C68 1.439 . S
C67 H99 0.950 . S
C68 N64 1.374 . S
C68 C67 1.439 . S
C68 C93 1.395 . S
N69 Co58 1.995 . S
N69 C70 1.376 . S
N69 C73 1.383 . S
C70 N69 1.376 . S
C70 C71 1.446 . S
C70 C93 1.391 . S
C71 C70 1.446 . S
C71 C72 1.339 . S
C71 H100 0.949 . S
C72 C71 1.339 . S
C72 C73 1.439 . S
C72 H101 0.950 . S
C73 N69 1.383 . S
C73 C72 1.439 . S
C73 C91 1.392 . S
N74 Co58 2.282 1_565 S
N74 C77 1.332 . S
N74 C79 1.332 . S
C75 C76 1.386 . S
C75 C78 1.388 . S
C76 C75 1.386 . S
C76 C77 1.382 . S
C76 H102 0.950 . S
C77 N74 1.332 . S
C77 C76 1.382 . S
C77 H88 0.952 1_565 S
C78 C75 1.388 . S
C78 C79 1.382 . S
C78 H103 0.950 . S
C79 N74 1.332 . S
C79 C78 1.382 . S
C79 H89 0.948 . S
N80 Co58 2.282 . S
N80 C84 1.332 . S
N80 C85 1.332 . S
C81 C82 1.388 . S
C81 C85 1.382 . S
C81 H104 0.950 . S
C82 C81 1.388 . S
C82 C83 1.386 . S
C83 C82 1.386 . S
C83 C84 1.382 . S
C83 H105 0.950 . S
C84 N80 1.332 . S
C84 C83 1.382 . S
C84 H86 0.952 . S
C85 N80 1.332 . S
C85 C81 1.382 . S
C85 H87 0.948 . S
H86 C84 0.952 . S
H87 C85 0.948 . S
H88 C77 0.952 1_545 S
H89 C79 0.948 . S
C90 C56 1.395 . S
C90 C60 1.391 . S
C91 C53 1.389 . S
C91 C73 1.392 . S
C92 C63 1.392 . S
C92 C65 1.389 . S
C93 C68 1.395 . S
C93 C70 1.391 . S
H94 C54 0.951 . S
H95 C55 0.950 1_565 S
H96 C61 0.949 . S
H97 C62 0.950 . S
H98 C66 0.951 . S
H99 C67 0.950 . S
H100 C71 0.949 . S
H101 C72 0.950 . S
H102 C76 0.950 . S
H103 C78 0.950 . S
H104 C81 0.950 . S
H105 C83 0.950 . S
C106 C107 1.443 . S
C106 N110 1.376 . S
C106 C144 1.389 . S
C107 C106 1.443 . S
C107 C108 1.340 . S
C107 H147 0.951 . S
C108 C107 1.340 . S
C108 C109 1.439 . S
C108 H148 0.950 . S
C109 C108 1.439 . S
C109 N110 1.374 . S
C109 C143 1.395 . S
N110 C106 1.376 . S
N110 C109 1.374 . S
N110 Co111 2.008 1_556 S
Co111 N110 2.008 1_554 S
Co111 N112 1.995 1_554 S
Co111 N117 2.008 . S
Co111 N122 1.995 . S
Co111 N127 2.282 . S
Co111 N133 2.282 1_554 S
N112 Co111 1.995 1_556 S
N112 C113 1.376 . S
N112 C116 1.383 1_556 S
C113 N112 1.376 . S
C113 C114 1.446 . S
C113 C143 1.391 . S
C114 C113 1.446 . S
C114 C115 1.339 . S
C114 H149 0.949 . S
C115 C114 1.339 . S
C115 C116 1.439 1_556 S
C115 H150 0.950 . S
C116 N112 1.383 1_554 S
C116 C115 1.439 1_554 S
C116 C145 1.392 . S
N117 Co111 2.008 . S
N117 C118 1.376 . S
N117 C121 1.374 . S
C118 N117 1.376 . S
C118 C119 1.443 . S
C118 C145 1.389 . S
C119 C118 1.443 . S
C119 C120 1.340 . S
C119 H151 0.951 . S
C120 C119 1.340 . S
C120 C121 1.439 . S
C120 H152 0.950 . S
C121 N117 1.374 . S
C121 C120 1.439 . S
C121 C146 1.395 . S
N122 Co111 1.995 . S
N122 C123 1.376 . S
N122 C126 1.383 . S
C123 N122 1.376 . S
C123 C124 1.446 . S
C123 C146 1.391 . S
C124 C123 1.446 . S
C124 C125 1.339 . S
C124 H153 0.949 . S
C125 C124 1.339 . S
C125 C126 1.439 . S
C125 H154 0.950 . S
C126 N122 1.383 . S
C126 C125 1.439 . S
C126 C144 1.392 1_554 S
N127 Co111 2.282 . S
N127 C130 1.332 . S
N127 C132 1.332 . S
C128 C129 1.386 . S
C128 C131 1.388 . S
C129 C128 1.386 . S
C129 C130 1.382 . S
C129 H155 0.950 . S
C130 N127 1.332 . S
C130 C129 1.382 . S
C130 H141 0.952 . S
C131 C128 1.388 . S
C131 C132 1.382 . S
C131 H156 0.950 . S
C132 N127 1.332 . S
C132 C131 1.382 . S
C132 H142 0.948 1_554 S
N133 Co111 2.282 1_556 S
N133 C137 1.332 . S
N133 C138 1.332 . S
C134 C135 1.388 . S
C134 C138 1.382 . S
C134 H157 0.950 . S
C135 C134 1.388 . S
C135 C136 1.386 . S
C136 C135 1.386 . S
C136 C137 1.382 . S
C136 H158 0.950 . S
C137 N133 1.332 . S
C137 C136 1.382 . S
C137 H139 0.952 . S
C138 N133 1.332 . S
C138 C134 1.382 . S
C138 H140 0.948 1_556 S
H139 C137 0.952 . S
H140 C138 0.948 1_554 S
H141 C130 0.952 . S
H142 C132 0.948 1_556 S
C143 C109 1.395 . S
C143 C113 1.391 . S
C144 C106 1.389 . S
C144 C126 1.392 1_556 S
C145 C116 1.392 . S
C145 C118 1.389 . S
C146 C121 1.395 . S
C146 C123 1.391 . S
H147 C107 0.951 . S
H148 C108 0.950 . S
H149 C114 0.949 . S
H150 C115 0.950 . S
H151 C119 0.951 . S
H152 C120 0.950 . S
H153 C124 0.949 . S
H154 C125 0.950 . S
H155 C129 0.950 . S
H156 C131 0.950 . S
H157 C134 0.950 . S
H158 C136 0.950 . S
C159 C160 1.471 . S
C159 N163 1.376 . S
C159 C197 1.389 . S
C160 C159 1.471 . S
C160 C161 1.331 . S
C160 H200 0.937 1_455 S
C161 C160 1.331 . S
C161 C162 1.439 . S
C161 H201 0.950 1_455 S
C162 C161 1.439 . S
C162 N163 1.374 . S
C162 C196 1.395 . S
N163 C159 1.376 . S
N163 C162 1.374 . S
N163 Co164 2.008 . S
Co164 N163 2.008 . S
Co164 N165 1.995 . S
Co164 N170 2.008 . S
Co164 N175 1.995 . S
Co164 N180 2.282 . S
Co164 N186 2.282 . S
N165 Co164 1.995 . S
N165 C166 1.376 . S
N165 C169 1.383 . S
C166 N165 1.376 . S
C166 C167 1.446 . S
C166 C196 1.391 . S
C167 C166 1.446 . S
C167 C168 1.339 . S
C167 H202 0.949 . S
C168 C167 1.339 . S
C168 C169 1.439 . S
C168 H203 0.950 . S
C169 N165 1.383 . S
C169 C168 1.439 . S
C169 C198 1.392 . S
N170 Co164 2.008 . S
N170 C171 1.376 . S
N170 C174 1.374 . S
C171 N170 1.376 . S
C171 C172 1.443 . S
C171 C198 1.389 . S
C172 C171 1.443 . S
C172 C173 1.340 . S
C172 H204 0.951 . S
C173 C172 1.340 . S
C173 C174 1.439 . S
C173 H205 0.950 . S
C174 N170 1.374 . S
C174 C173 1.439 . S
C174 C199 1.395 . S
N175 Co164 1.995 . S
N175 C176 1.376 . S
N175 C179 1.383 . S
C176 N175 1.376 . S
C176 C177 1.446 . S
C176 C199 1.391 . S
C177 C176 1.446 . S
C177 C178 1.339 . S
C177 H206 0.949 . S
C178 C177 1.339 . S
C178 C179 1.439 . S
C178 H207 0.950 . S
C179 N175 1.383 . S
C179 C178 1.439 . S
C179 C197 1.392 . S
N180 Co164 2.282 . S
N180 C183 1.332 . S
N180 C185 1.332 . S
C181 C182 1.386 . S
C181 C184 1.388 . S
C182 C181 1.386 . S
C182 C183 1.382 . S
C182 H208 0.950 . S
C183 N180 1.332 . S
C183 C182 1.382 . S
C183 H194 0.952 . S
C184 C181 1.388 . S
C184 C185 1.382 . S
C184 H209 0.950 . S
C185 N180 1.332 . S
C185 C184 1.382 . S
C185 H195 0.948 . S
N186 Co164 2.282 . S
N186 C190 1.332 . S
N186 C191 1.332 . S
C187 C188 1.388 . S
C187 C191 1.382 . S
C187 H210 0.950 . S
C188 C187 1.388 . S
C188 C189 1.386 . S
C189 C188 1.386 . S
C189 C190 1.382 . S
C189 H211 0.950 . S
C190 N186 1.332 . S
C190 C189 1.382 . S
C190 H192 0.952 . S
C191 N186 1.332 . S
C191 C187 1.382 . S
C191 H193 0.948 . S
H192 C190 0.952 . S
H193 C191 0.948 . S
H194 C183 0.952 . S
H195 C185 0.948 . S
C196 C162 1.395 . S
C196 C166 1.391 . S
C197 C159 1.389 . S
C197 C179 1.392 . S
C198 C169 1.392 . S
C198 C171 1.389 . S
C199 C174 1.395 . S
C199 C176 1.391 . S
H200 C160 0.937 1_655 S
H201 C161 0.950 1_655 S
H202 C167 0.949 . S
H203 C168 0.950 . S
H204 C172 0.951 . S
H205 C173 0.950 . S
H206 C177 0.949 . S
H207 C178 0.950 . S
H208 C182 0.950 . S
H209 C184 0.950 . S
H210 C187 0.950 . S
H211 C189 0.950 . S
C212 C213 1.443 . S
C212 N216 1.376 1_565 S
C212 C250 1.389 . S
C213 C212 1.443 . S
C213 C214 1.340 1_565 S
C213 H253 0.951 . S
C214 C213 1.340 1_545 S
C214 C215 1.439 . S
C214 H254 0.950 . S
C215 C214 1.439 . S
C215 N216 1.374 . S
C215 C249 1.395 . S
N216 C212 1.376 1_545 S
N216 C215 1.374 . S
N216 Co217 2.008 . S
Co217 N216 2.008 . S
Co217 N218 1.995 . S
Co217 N223 2.008 1_554 S
Co217 N228 1.995 1_544 S
Co217 N233 2.282 1_554 S
Co217 N239 2.282 1_545 S
N218 Co217 1.995 . S
N218 C219 1.376 . S
N218 C222 1.383 1_554 S
C219 N218 1.376 . S
C219 C220 1.446 . S
C219 C249 1.391 . S
C220 C219 1.446 . S
C220 C221 1.339 . S
C220 H255 0.949 . S
C221 C220 1.339 . S
C221 C222 1.439 1_554 S
C221 H256 0.953 . S
C222 N218 1.383 1_556 S
C222 C221 1.439 1_556 S
C222 C251 1.392 . S
N223 Co217 2.008 1_556 S
N223 C224 1.376 . S
N223 C227 1.340 1_545 S
C224 N223 1.376 . S
C224 C225 1.443 . S
C224 C251 1.389 . S
C225 C224 1.443 . S
C225 C226 1.340 . S
C225 H257 0.951 . S
C226 C225 1.340 . S
C226 C227 1.436 1_545 S
C226 H258 0.968 . S
C227 N223 1.340 1_565 S
C227 C226 1.436 1_565 S
C227 C252 1.428 . S
N228 Co217 1.995 1_566 S
N228 C229 1.376 . S
N228 C232 1.383 1_556 S
C229 N228 1.376 . S
C229 C230 1.446 . S
C229 C252 1.391 . S
C230 C229 1.446 . S
C230 C231 1.339 . S
C230 H259 0.949 . S
C231 C230 1.339 . S
C231 C232 1.439 1_556 S
C231 H260 0.950 1_556 S
C232 N228 1.383 1_554 S
C232 C231 1.439 1_554 S
C232 C250 1.392 . S
N233 Co217 2.282 1_556 S
N233 C236 1.332 . S
N233 C238 1.332 . S
C234 C235 1.386 . S
C234 C237 1.388 . S
C235 C234 1.386 . S
C235 C236 1.382 . S
C235 H261 0.950 . S
C236 N233 1.332 . S
C236 C235 1.382 . S
C236 H247 0.952 . S
C237 C234 1.388 . S
C237 C238 1.382 . S
C237 H262 0.950 . S
C238 N233 1.332 . S
C238 C237 1.382 . S
C238 H248 0.948 1_556 S
N239 Co217 2.282 1_565 S
N239 C243 1.332 . S
N239 C244 1.332 . S
C240 C241 1.388 . S
C240 C244 1.382 . S
C240 H263 0.950 . S
C241 C240 1.388 . S
C241 C242 1.386 . S
C242 C241 1.386 . S
C242 C243 1.382 . S
C242 H264 0.950 . S
C243 N239 1.332 . S
C243 C242 1.382 . S
C243 H245 0.952 1_565 S
C244 N239 1.332 . S
C244 C240 1.382 . S
C244 H246 0.955 . S
H245 C243 0.952 1_545 S
H246 C244 0.955 . S
H247 C236 0.952 . S
H248 C238 0.948 1_554 S
C249 C215 1.395 . S
C249 C219 1.391 . S
C250 C212 1.389 . S
C250 C232 1.392 . S
C251 C222 1.392 . S
C251 C224 1.389 . S
C252 C227 1.428 . S
C252 C229 1.391 . S
H253 C213 0.951 . S
H254 C214 0.950 . S
H255 C220 0.949 . S
H256 C221 0.953 . S
H257 C225 0.951 . S
H258 C226 0.968 . S
H259 C230 0.949 . S
H260 C231 0.950 1_554 S
H261 C235 0.950 . S
H262 C237 0.950 . S
H263 C240 0.950 . S
H264 C242 0.950 . S
C265 C266 1.443 . S
C265 N269 1.376 . S
C265 C303 1.389 . S
C266 C265 1.443 . S
C266 C267 1.340 . S
C266 H306 0.951 . S
C267 C266 1.340 . S
C267 C268 1.439 . S
C267 H307 0.950 . S
C268 C267 1.439 . S
C268 N269 1.374 . S
C268 C302 1.395 . S
N269 C265 1.376 . S
N269 C268 1.374 . S
N269 Co270 2.008 . S
Co270 N269 2.008 . S
Co270 N271 1.995 . S
Co270 N276 2.008 . S
Co270 N281 1.995 . S
Co270 N286 2.282 . S
Co270 N292 2.282 . S
N271 Co270 1.995 . S
N271 C272 1.376 . S
N271 C275 1.383 . S
C272 N271 1.376 . S
C272 C273 1.446 . S
C272 C302 1.391 . S
C273 C272 1.446 . S
C273 C274 1.339 . S
C273 H308 0.949 . S
C274 C273 1.339 . S
C274 C275 1.439 . S
C274 H309 0.950 . S
C275 N271 1.383 . S
C275 C274 1.439 . S
C275 C304 1.392 . S
N276 Co270 2.008 . S
N276 C277 1.376 . S
N276 C280 1.374 . S
C277 N276 1.376 . S
C277 C278 1.443 . S
C277 C304 1.389 . S
C278 C277 1.443 . S
C278 C279 1.340 . S
C278 H310 0.951 . S
C279 C278 1.340 . S
C279 C280 1.439 . S
C279 H311 0.950 . S
C280 N276 1.374 . S
C280 C279 1.439 . S
C280 C305 1.395 . S
N281 Co270 1.995 . S
N281 C282 1.376 . S
N281 C285 1.383 . S
C282 N281 1.376 . S
C282 C283 1.446 . S
C282 C305 1.391 . S
C283 C282 1.446 . S
C283 C284 1.339 . S
C283 H312 0.949 . S
C284 C283 1.339 . S
C284 C285 1.439 . S
C284 H313 0.950 . S
C285 N281 1.383 . S
C285 C284 1.439 . S
C285 C303 1.392 . S
N286 Co270 2.282 . S
N286 C289 1.332 . S
N286 C291 1.332 . S
C287 C288 1.386 . S
C287 C290 1.388 . S
C288 C287 1.386 . S
C288 C289 1.382 . S
C288 H314 0.950 . S
C289 N286 1.332 . S
C289 C288 1.382 . S
C289 H300 0.952 . S
C290 C287 1.388 . S
C290 C291 1.382 . S
C290 H315 0.950 . S
C291 N286 1.332 . S
C291 C290 1.382 . S
C291 H301 0.948 . S
N292 Co270 2.282 . S
N292 C296 1.332 . S
N292 C297 1.332 . S
C293 C294 1.388 . S
C293 C297 1.382 . S
C293 H316 0.950 . S
C294 C293 1.388 . S
C294 C295 1.386 . S
C295 C294 1.386 . S
C295 C296 1.382 . S
C295 H317 0.950 . S
C296 N292 1.332 . S
C296 C295 1.382 . S
C296 H298 0.952 . S
C297 N292 1.332 . S
C297 C293 1.382 . S
C297 H299 0.948 . S
H298 C296 0.952 . S
H299 C297 0.948 . S
H300 C289 0.952 . S
H301 C291 0.948 . S
C302 C268 1.395 . S
C302 C272 1.391 . S
C303 C265 1.389 . S
C303 C285 1.392 . S
C304 C275 1.392 . S
C304 C277 1.389 . S
C305 C280 1.395 . S
C305 C282 1.391 . S
H306 C266 0.951 . S
H307 C267 0.950 . S
H308 C273 0.949 . S
H309 C274 0.950 . S
H310 C278 0.951 . S
H311 C279 0.950 . S
H312 C283 0.949 . S
H313 C284 0.950 . S
H314 C288 0.950 . S
H315 C290 0.950 . S
H316 C293 0.950 . S
H317 C295 0.950 . S
H318 C345 0.929 . S
N319 C344 1.433 . S
N319 C350 1.435 . S
N319 C356 1.423 . S
H320 C346 0.930 . S
H321 C349 0.931 . S
H322 C348 0.929 . S
H323 C351 0.930 . S
H324 C352 0.932 . S
H325 C355 0.929 . S
H326 C354 0.931 . S
H327 C357 0.929 . S
H328 C361 0.932 . S
H329 C358 0.931 . S
H330 C360 0.929 . S
H331 C363 0.929 . S
H332 C364 0.930 . S
H333 C366 0.929 . S
H334 C367 0.931 . S
H335 C369 0.930 . S
H336 C370 0.932 . S
H337 C372 0.931 . S
H338 C373 0.929 . S
H339 C375 0.929 . S
H340 C376 0.931 . S
H341 C378 0.929 . S
N342 C362 1.433 . S
N342 C368 1.435 . S
N342 C374 1.423 . S
H343 C379 0.932 . S
C344 N319 1.433 . S
C344 C345 1.363 . S
C344 C349 1.370 . S
C345 H318 0.929 . S
C345 C344 1.363 . S
C345 C346 1.385 . S
C346 H320 0.930 . S
C346 C345 1.385 . S
C346 C347 1.357 . S
C347 C346 1.357 . S
C347 C348 1.406 . S
C348 H322 0.929 . S
C348 C347 1.406 . S
C348 C349 1.391 . S
C349 H321 0.931 . S
C349 C344 1.370 . S
C349 C348 1.391 . S
C350 N319 1.435 . S
C350 C351 1.358 . S
C350 C355 1.371 . S
C351 H323 0.930 . S
C351 C350 1.358 . S
C351 C352 1.405 . S
C352 H324 0.932 . S
C352 C351 1.405 . S
C352 C353 1.383 . S
C353 C352 1.383 . S
C353 C354 1.393 . S
C354 H326 0.931 . S
C354 C353 1.393 . S
C354 C355 1.382 . S
C355 H325 0.929 . S
C355 C350 1.371 . S
C355 C354 1.382 . S
C356 N319 1.423 . S
C356 C357 1.362 . S
C356 C361 1.388 . S
C357 H327 0.929 . S
C357 C356 1.362 . S
C357 C358 1.376 . S
C358 H329 0.931 . S
C358 C357 1.376 . S
C358 C359 1.396 . S
C359 C358 1.396 . S
C359 C360 1.348 . S
C359 C377 1.472 . S
C360 H330 0.929 . S
C360 C359 1.348 . S
C360 C361 1.443 . S
C361 H328 0.932 . S
C361 C356 1.388 . S
C361 C360 1.443 . S
C362 N342 1.433 . S
C362 C363 1.363 . S
C362 C367 1.370 . S
C363 H331 0.929 . S
C363 C362 1.363 . S
C363 C364 1.385 . S
C364 H332 0.930 . S
C364 C363 1.385 . S
C364 C365 1.357 . S
C365 C364 1.357 . S
C365 C366 1.406 . S
C366 H333 0.929 . S
C366 C365 1.406 . S
C366 C367 1.391 . S
C367 H334 0.931 . S
C367 C362 1.370 . S
C367 C366 1.391 . S
C368 N342 1.435 . S
C368 C369 1.358 . S
C368 C373 1.371 . S
C369 H335 0.930 . S
C369 C368 1.358 . S
C369 C370 1.405 . S
C370 H336 0.932 . S
C370 C369 1.405 . S
C370 C371 1.383 . S
C371 C370 1.383 . S
C371 C372 1.393 . S
C372 H337 0.931 . S
C372 C371 1.393 . S
C372 C373 1.382 . S
C373 H338 0.929 . S
C373 C368 1.371 . S
C373 C372 1.382 . S
C374 N342 1.423 . S
C374 C375 1.362 . S
C374 C379 1.388 . S
C375 H339 0.929 . S
C375 C374 1.362 . S
C375 C376 1.376 . S
C376 H340 0.931 . S
C376 C375 1.376 . S
C376 C377 1.396 . S
C377 C359 1.472 . S
C377 C376 1.396 . S
C377 C378 1.348 . S
C378 H341 0.929 . S
C378 C377 1.348 . S
C378 C379 1.443 . S
C379 H343 0.932 . S
C379 C374 1.388 . S
C379 C378 1.443 . S
H380 C407 0.929 . S
N381 C406 1.433 . S
N381 C412 1.435 . S
N381 C418 1.423 . S
H382 C408 0.930 . S
H383 C411 0.931 . S
H384 C410 0.929 . S
H385 C413 0.930 . S
H386 C414 0.932 . S
H387 C417 0.929 . S
H388 C416 0.931 . S
H389 C419 0.929 . S
H390 C423 0.932 . S
H391 C420 0.931 . S
H392 C422 0.929 . S
H393 C425 0.929 . S
H394 C426 0.930 . S
H395 C428 0.929 . S
H396 C429 0.931 . S
H397 C431 0.930 . S
H398 C432 0.932 . S
H399 C434 0.931 . S
H400 C435 0.929 . S
H401 C437 0.929 . S
H402 C438 0.931 . S
H403 C440 0.929 . S
N404 C424 1.433 . S
N404 C430 1.435 . S
N404 C436 1.423 . S
H405 C441 0.932 . S
C406 N381 1.433 . S
C406 C407 1.363 . S
C406 C411 1.370 . S
C407 H380 0.929 . S
C407 C406 1.363 . S
C407 C408 1.385 . S
C408 H382 0.930 . S
C408 C407 1.385 . S
C408 C409 1.357 . S
C409 C408 1.357 . S
C409 C410 1.406 . S
C410 H384 0.929 . S
C410 C409 1.406 . S
C410 C411 1.391 . S
C411 H383 0.931 . S
C411 C406 1.370 . S
C411 C410 1.391 . S
C412 N381 1.435 . S
C412 C413 1.358 . S
C412 C417 1.371 . S
C413 H385 0.930 . S
C413 C412 1.358 . S
C413 C414 1.405 . S
C414 H386 0.932 . S
C414 C413 1.405 . S
C414 C415 1.383 . S
C415 C414 1.383 . S
C415 C416 1.393 . S
C416 H388 0.931 . S
C416 C415 1.393 . S
C416 C417 1.382 . S
C417 H387 0.929 . S
C417 C412 1.371 . S
C417 C416 1.382 . S
C418 N381 1.423 . S
C418 C419 1.362 . S
C418 C423 1.388 . S
C419 H389 0.929 . S
C419 C418 1.362 . S
C419 C420 1.376 . S
C420 H391 0.931 . S
C420 C419 1.376 . S
C420 C421 1.396 . S
C421 C420 1.396 . S
C421 C422 1.348 . S
C421 C439 1.472 . S
C422 H392 0.929 . S
C422 C421 1.348 . S
C422 C423 1.443 . S
C423 H390 0.932 . S
C423 C418 1.388 . S
C423 C422 1.443 . S
C424 N404 1.433 . S
C424 C425 1.363 . S
C424 C429 1.370 . S
C425 H393 0.929 . S
C425 C424 1.363 . S
C425 C426 1.385 . S
C426 H394 0.930 . S
C426 C425 1.385 . S
C426 C427 1.357 . S
C427 C426 1.357 . S
C427 C428 1.406 . S
C428 H395 0.929 . S
C428 C427 1.406 . S
C428 C429 1.391 . S
C429 H396 0.931 . S
C429 C424 1.370 . S
C429 C428 1.391 . S
C430 N404 1.435 . S
C430 C431 1.358 . S
C430 C435 1.371 . S
C431 H397 0.930 . S
C431 C430 1.358 . S
C431 C432 1.405 . S
C432 H398 0.932 . S
C432 C431 1.405 . S
C432 C433 1.383 . S
C433 C432 1.383 . S
C433 C434 1.393 . S
C434 H399 0.931 . S
C434 C433 1.393 . S
C434 C435 1.382 . S
C435 H400 0.929 . S
C435 C430 1.371 . S
C435 C434 1.382 . S
C436 N404 1.423 . S
C436 C437 1.362 . S
C436 C441 1.388 . S
C437 H401 0.929 . S
C437 C436 1.362 . S
C437 C438 1.376 . S
C438 H402 0.931 . S
C438 C437 1.376 . S
C438 C439 1.396 . S
C439 C421 1.472 . S
C439 C438 1.396 . S
C439 C440 1.348 . S
C440 H403 0.929 . S
C440 C439 1.348 . S
C440 C441 1.443 . S
C441 H405 0.932 . S
C441 C436 1.388 . S
C441 C440 1.443 . S
H442 C469 0.929 . S
N443 C468 1.433 . S
N443 C474 1.435 . S
N443 C480 1.423 . S
H444 C470 0.930 . S
H445 C473 0.931 . S
H446 C472 0.929 . S
H447 C475 0.930 . S
H448 C476 0.932 . S
H449 C479 0.929 . S
H450 C478 0.931 . S
H451 C481 0.929 . S
H452 C485 0.932 . S
H453 C482 0.931 . S
H454 C484 0.929 . S
H455 C487 0.929 . S
H456 C488 0.930 . S
H457 C490 0.929 . S
H458 C491 0.931 . S
H459 C493 0.930 . S
H460 C494 0.932 . S
H461 C496 0.931 . S
H462 C497 0.929 . S
H463 C499 0.929 . S
H464 C500 0.931 . S
H465 C502 0.929 . S
N466 C486 1.433 . S
N466 C492 1.435 . S
N466 C498 1.423 . S
H467 C503 0.932 . S
C468 N443 1.433 . S
C468 C469 1.363 . S
C468 C473 1.370 . S
C469 H442 0.929 . S
C469 C468 1.363 . S
C469 C470 1.385 . S
C470 H444 0.930 . S
C470 C469 1.385 . S
C470 C471 1.357 . S
C471 C470 1.357 . S
C471 C472 1.406 . S
C472 H446 0.929 . S
C472 C471 1.406 . S
C472 C473 1.391 . S
C473 H445 0.931 . S
C473 C468 1.370 . S
C473 C472 1.391 . S
C474 N443 1.435 . S
C474 C475 1.358 . S
C474 C479 1.371 . S
C475 H447 0.930 . S
C475 C474 1.358 . S
C475 C476 1.405 . S
C476 H448 0.932 . S
C476 C475 1.405 . S
C476 C477 1.383 . S
C477 C476 1.383 . S
C477 C478 1.393 . S
C478 H450 0.931 . S
C478 C477 1.393 . S
C478 C479 1.382 . S
C479 H449 0.929 . S
C479 C474 1.371 . S
C479 C478 1.382 . S
C480 N443 1.423 . S
C480 C481 1.362 . S
C480 C485 1.388 . S
C481 H451 0.929 . S
C481 C480 1.362 . S
C481 C482 1.376 . S
C482 H453 0.931 . S
C482 C481 1.376 . S
C482 C483 1.396 . S
C483 C482 1.396 . S
C483 C484 1.348 . S
C483 C501 1.472 . S
C484 H454 0.929 . S
C484 C483 1.348 . S
C484 C485 1.443 . S
C485 H452 0.932 . S
C485 C480 1.388 . S
C485 C484 1.443 . S
C486 N466 1.433 . S
C486 C487 1.363 . S
C486 C491 1.370 . S
C487 H455 0.929 . S
C487 C486 1.363 . S
C487 C488 1.385 . S
C488 H456 0.930 . S
C488 C487 1.385 . S
C488 C489 1.357 . S
C489 C488 1.357 . S
C489 C490 1.406 . S
C490 H457 0.929 . S
C490 C489 1.406 . S
C490 C491 1.391 . S
C491 H458 0.931 . S
C491 C486 1.370 . S
C491 C490 1.391 . S
C492 N466 1.435 . S
C492 C493 1.358 . S
C492 C497 1.371 . S
C493 H459 0.930 . S
C493 C492 1.358 . S
C493 C494 1.405 . S
C494 H460 0.932 . S
C494 C493 1.405 . S
C494 C495 1.383 . S
C495 C494 1.383 . S
C495 C496 1.393 . S
C496 H461 0.931 . S
C496 C495 1.393 . S
C496 C497 1.382 . S
C497 H462 0.929 . S
C497 C492 1.371 . S
C497 C496 1.382 . S
C498 N466 1.423 . S
C498 C499 1.362 . S
C498 C503 1.388 . S
C499 H463 0.929 . S
C499 C498 1.362 . S
C499 C500 1.376 . S
C500 H464 0.931 . S
C500 C499 1.376 . S
C500 C501 1.396 . S
C501 C483 1.472 . S
C501 C500 1.396 . S
C501 C502 1.348 . S
C502 H465 0.929 . S
C502 C501 1.348 . S
C502 C503 1.443 . S
C503 H467 0.932 . S
C503 C498 1.388 . S
C503 C502 1.443 . S
H504 C531 0.929 . S
N505 C530 1.433 . S
N505 C536 1.435 . S
N505 C542 1.423 . S
H506 C532 0.930 . S
H507 C535 0.931 . S
H508 C534 0.929 . S
H509 C537 0.930 . S
H510 C538 0.932 . S
H511 C541 0.929 . S
H512 C540 0.931 . S
H513 C543 0.929 . S
H514 C547 0.932 . S
H515 C544 0.931 . S
H516 C546 0.929 . S
H517 C549 0.929 . S
H518 C550 0.930 . S
H519 C552 0.929 . S
H520 C553 0.931 . S
H521 C555 0.930 . S
H522 C556 0.932 . S
H523 C558 0.931 . S
H524 C559 0.929 . S
H525 C561 0.929 . S
H526 C562 0.931 . S
H527 C564 0.929 . S
N528 C548 1.433 . S
N528 C554 1.435 . S
N528 C560 1.423 . S
H529 C565 0.932 . S
C530 N505 1.433 . S
C530 C531 1.363 . S
C530 C535 1.370 . S
C531 H504 0.929 . S
C531 C530 1.363 . S
C531 C532 1.385 . S
C532 H506 0.930 . S
C532 C531 1.385 . S
C532 C533 1.357 . S
C533 C532 1.357 . S
C533 C534 1.406 . S
C534 H508 0.929 . S
C534 C533 1.406 . S
C534 C535 1.391 . S
C535 H507 0.931 . S
C535 C530 1.370 . S
C535 C534 1.391 . S
C536 N505 1.435 . S
C536 C537 1.358 . S
C536 C541 1.371 . S
C537 H509 0.930 . S
C537 C536 1.358 . S
C537 C538 1.405 . S
C538 H510 0.932 . S
C538 C537 1.405 . S
C538 C539 1.383 . S
C539 C538 1.383 . S
C539 C540 1.393 . S
C540 H512 0.931 . S
C540 C539 1.393 . S
C540 C541 1.382 . S
C541 H511 0.929 . S
C541 C536 1.371 . S
C541 C540 1.382 . S
C542 N505 1.423 . S
C542 C543 1.362 . S
C542 C547 1.388 . S
C543 H513 0.929 . S
C543 C542 1.362 . S
C543 C544 1.376 . S
C544 H515 0.931 . S
C544 C543 1.376 . S
C544 C545 1.396 . S
C545 C544 1.396 . S
C545 C546 1.348 . S
C545 C563 1.472 . S
C546 H516 0.929 . S
C546 C545 1.348 . S
C546 C547 1.443 . S
C547 H514 0.932 . S
C547 C542 1.388 . S
C547 C546 1.443 . S
C548 N528 1.433 . S
C548 C549 1.363 . S
C548 C553 1.370 . S
C549 H517 0.929 . S
C549 C548 1.363 . S
C549 C550 1.385 . S
C550 H518 0.930 . S
C550 C549 1.385 . S
C550 C551 1.357 . S
C551 C550 1.357 . S
C551 C552 1.406 . S
C552 H519 0.929 . S
C552 C551 1.406 . S
C552 C553 1.391 . S
C553 H520 0.931 . S
C553 C548 1.370 . S
C553 C552 1.391 . S
C554 N528 1.435 . S
C554 C555 1.358 . S
C554 C559 1.371 . S
C555 H521 0.930 . S
C555 C554 1.358 . S
C555 C556 1.405 . S
C556 H522 0.932 . S
C556 C555 1.405 . S
C556 C557 1.383 . S
C557 C556 1.383 . S
C557 C558 1.393 . S
C558 H523 0.931 . S
C558 C557 1.393 . S
C558 C559 1.382 . S
C559 H524 0.929 . S
C559 C554 1.371 . S
C559 C558 1.382 . S
C560 N528 1.423 . S
C560 C561 1.362 . S
C560 C565 1.388 . S
C561 H525 0.929 . S
C561 C560 1.362 . S
C561 C562 1.376 . S
C562 H526 0.931 . S
C562 C561 1.376 . S
C562 C563 1.396 . S
C563 C545 1.472 . S
C563 C562 1.396 . S
C563 C564 1.348 . S
C564 H527 0.929 . S
C564 C563 1.348 . S
C564 C565 1.443 . S
C565 H529 0.932 . S
C565 C560 1.388 . S
C565 C564 1.443 . S
H566 C593 0.929 . S
N567 C592 1.433 . S
N567 C598 1.435 . S
N567 C604 1.423 . S
H568 C594 0.930 . S
H569 C597 0.931 . S
H570 C596 0.929 . S
H571 C599 0.930 . S
H572 C600 0.932 . S
H573 C603 0.929 . S
H574 C602 0.931 . S
H575 C605 0.929 . S
H576 C609 0.932 . S
H577 C606 0.931 . S
H578 C608 0.929 . S
H579 C611 0.929 . S
H580 C612 0.930 . S
H581 C614 0.929 . S
H582 C615 0.931 . S
H583 C617 0.930 . S
H584 C618 0.932 . S
H585 C620 0.931 . S
H586 C621 0.929 . S
H587 C623 0.929 . S
H588 C624 0.931 . S
H589 C626 0.929 . S
N590 C610 1.433 . S
N590 C616 1.435 . S
N590 C622 1.423 . S
H591 C627 0.932 . S
C592 N567 1.433 . S
C592 C593 1.363 . S
C592 C597 1.370 . S
C593 H566 0.929 . S
C593 C592 1.363 . S
C593 C594 1.385 . S
C594 H568 0.930 . S
C594 C593 1.385 . S
C594 C595 1.357 . S
C595 C594 1.357 . S
C595 C596 1.406 . S
C596 H570 0.929 . S
C596 C595 1.406 . S
C596 C597 1.391 . S
C597 H569 0.931 . S
C597 C592 1.370 . S
C597 C596 1.391 . S
C598 N567 1.435 . S
C598 C599 1.358 . S
C598 C603 1.371 . S
C599 H571 0.930 . S
C599 C598 1.358 . S
C599 C600 1.405 . S
C600 H572 0.932 . S
C600 C599 1.405 . S
C600 C601 1.383 . S
C601 C600 1.383 . S
C601 C602 1.393 . S
C602 H574 0.931 . S
C602 C601 1.393 . S
C602 C603 1.382 . S
C603 H573 0.929 . S
C603 C598 1.371 . S
C603 C602 1.382 . S
C604 N567 1.423 . S
C604 C605 1.362 . S
C604 C609 1.388 . S
C605 H575 0.929 . S
C605 C604 1.362 . S
C605 C606 1.376 . S
C606 H577 0.931 . S
C606 C605 1.376 . S
C606 C607 1.396 . S
C607 C606 1.396 . S
C607 C608 1.348 . S
C607 C625 1.472 . S
C608 H578 0.929 . S
C608 C607 1.348 . S
C608 C609 1.443 . S
C609 H576 0.932 . S
C609 C604 1.388 . S
C609 C608 1.443 . S
C610 N590 1.433 . S
C610 C611 1.363 . S
C610 C615 1.370 . S
C611 H579 0.929 . S
C611 C610 1.363 . S
C611 C612 1.385 . S
C612 H580 0.930 . S
C612 C611 1.385 . S
C612 C613 1.357 . S
C613 C612 1.357 . S
C613 C614 1.406 . S
C614 H581 0.929 . S
C614 C613 1.406 . S
C614 C615 1.391 . S
C615 H582 0.931 . S
C615 C610 1.370 . S
C615 C614 1.391 . S
C616 N590 1.435 . S
C616 C617 1.358 . S
C616 C621 1.371 . S
C617 H583 0.930 . S
C617 C616 1.358 . S
C617 C618 1.405 . S
C618 H584 0.932 . S
C618 C617 1.405 . S
C618 C619 1.383 . S
C619 C618 1.383 . S
C619 C620 1.393 . S
C620 H585 0.931 . S
C620 C619 1.393 . S
C620 C621 1.382 . S
C621 H586 0.929 . S
C621 C616 1.371 . S
C621 C620 1.382 . S
C622 N590 1.423 . S
C622 C623 1.362 . S
C622 C627 1.388 . S
C623 H587 0.929 . S
C623 C622 1.362 . S
C623 C624 1.376 . S
C624 H588 0.931 . S
C624 C623 1.376 . S
C624 C625 1.396 . S
C625 C607 1.472 . S
C625 C624 1.396 . S
C625 C626 1.348 . S
C626 H589 0.929 . S
C626 C625 1.348 . S
C626 C627 1.443 . S
C627 H591 0.932 . S
C627 C622 1.388 . S
C627 C626 1.443 . S
H628 C655 0.929 . S
N629 C654 1.433 . S
N629 C660 1.435 . S
N629 C666 1.423 . S
H630 C656 0.930 . S
H631 C659 0.931 . S
H632 C658 0.929 . S
H633 C661 0.930 . S
H634 C662 0.932 . S
H635 C665 0.929 . S
H636 C664 0.931 . S
H637 C667 0.929 . S
H638 C671 0.932 . S
H639 C668 0.931 . S
H640 C670 0.929 . S
H641 C673 0.929 . S
H642 C674 0.930 . S
H643 C676 0.929 . S
H644 C677 0.931 . S
H645 C679 0.930 . S
H646 C680 0.932 . S
H647 C682 0.931 . S
H648 C683 0.929 . S
H649 C685 0.929 . S
H650 C686 0.931 . S
H651 C688 0.929 . S
N652 C672 1.433 . S
N652 C678 1.435 . S
N652 C684 1.423 . S
H653 C689 0.932 . S
C654 N629 1.433 . S
C654 C655 1.363 . S
C654 C659 1.370 . S
C655 H628 0.929 . S
C655 C654 1.363 . S
C655 C656 1.385 . S
C656 H630 0.930 . S
C656 C655 1.385 . S
C656 C657 1.357 . S
C657 C656 1.357 . S
C657 C658 1.406 . S
C658 H632 0.929 . S
C658 C657 1.406 . S
C658 C659 1.391 . S
C659 H631 0.931 . S
C659 C654 1.370 . S
C659 C658 1.391 . S
C660 N629 1.435 . S
C660 C661 1.358 . S
C660 C665 1.371 . S
C661 H633 0.930 . S
C661 C660 1.358 . S
C661 C662 1.405 . S
C662 H634 0.932 . S
C662 C661 1.405 . S
C662 C663 1.383 . S
C663 C662 1.383 . S
C663 C664 1.393 . S
C664 H636 0.931 . S
C664 C663 1.393 . S
C664 C665 1.382 . S
C665 H635 0.929 . S
C665 C660 1.371 . S
C665 C664 1.382 . S
C666 N629 1.423 . S
C666 C667 1.362 . S
C666 C671 1.388 . S
C667 H637 0.929 . S
C667 C666 1.362 . S
C667 C668 1.376 . S
C668 H639 0.931 . S
C668 C667 1.376 . S
C668 C669 1.396 . S
C669 C668 1.396 . S
C669 C670 1.348 . S
C669 C687 1.472 . S
C670 H640 0.929 . S
C670 C669 1.348 . S
C670 C671 1.443 . S
C671 H638 0.932 . S
C671 C666 1.388 . S
C671 C670 1.443 . S
C672 N652 1.433 . S
C672 C673 1.363 . S
C672 C677 1.370 . S
C673 H641 0.929 . S
C673 C672 1.363 . S
C673 C674 1.385 . S
C674 H642 0.930 . S
C674 C673 1.385 . S
C674 C675 1.357 . S
C675 C674 1.357 . S
C675 C676 1.406 . S
C676 H643 0.929 . S
C676 C675 1.406 . S
C676 C677 1.391 . S
C677 H644 0.931 . S
C677 C672 1.370 . S
C677 C676 1.391 . S
C678 N652 1.435 . S
C678 C679 1.358 . S
C678 C683 1.371 . S
C679 H645 0.930 . S
C679 C678 1.358 . S
C679 C680 1.405 . S
C680 H646 0.932 . S
C680 C679 1.405 . S
C680 C681 1.383 . S
C681 C680 1.383 . S
C681 C682 1.393 . S
C682 H647 0.931 . S
C682 C681 1.393 . S
C682 C683 1.382 . S
C683 H648 0.929 . S
C683 C678 1.371 . S
C683 C682 1.382 . S
C684 N652 1.423 . S
C684 C685 1.362 . S
C684 C689 1.388 . S
C685 H649 0.929 . S
C685 C684 1.362 . S
C685 C686 1.376 . S
C686 H650 0.931 . S
C686 C685 1.376 . S
C686 C687 1.396 . S
C687 C669 1.472 . S
C687 C686 1.396 . S
C687 C688 1.348 . S
C688 H651 0.929 . S
C688 C687 1.348 . S
C688 C689 1.443 . S
C689 H653 0.932 . S
C689 C684 1.388 . S
C689 C688 1.443 . S
H690 C708 0.951 . S
H691 C710 0.951 . S
H692 C712 0.950 . S
H693 C713 0.950 . S
H694 C715 0.950 . S
H695 C718 0.950 . S
H696 C719 0.950 . S
H697 C721 0.950 . S
H698 C722 0.950 . S
H699 C723 0.951 . S
H700 C725 0.951 . S
H701 C727 0.950 . S
H702 C728 0.950 . S
H703 C730 0.950 . S
H704 C733 0.950 . S
H705 C734 0.950 . S
H706 C736 0.950 . S
H707 C737 0.950 . S
C708 H690 0.951 . S
C708 C709 1.366 . S
C708 C710 1.388 . S
C709 C708 1.366 . S
C709 C713 1.385 . S
C710 H691 0.951 . S
C710 C708 1.388 . S
C710 C711 1.366 . S
C711 C710 1.366 . S
C711 C712 1.414 . S
C711 C714 1.499 . S
C712 H692 0.950 . S
C712 C711 1.414 . S
C712 C713 1.374 . S
C713 H693 0.950 . S
C713 C709 1.385 . S
C713 C712 1.374 . S
C714 C711 1.499 . S
C714 C715 1.373 . S
C714 C716 1.389 . S
C715 H694 0.950 . S
C715 C714 1.373 . S
C715 C731 1.377 . S
C716 C714 1.389 . S
C716 C717 1.524 . S
C716 C730 1.377 . S
C717 C716 1.524 . S
C717 C718 1.397 . S
C717 C722 1.363 . S
C718 H695 0.950 . S
C718 C717 1.397 . S
C718 C719 1.334 . S
C719 H696 0.950 . S
C719 C718 1.334 . S
C719 C720 1.287 . S
C720 C719 1.287 . S
C720 C721 1.524 . S
C720 H739 0.913 . S
C721 H697 0.950 . S
C721 C720 1.524 . S
C721 C722 1.415 . S
C722 H698 0.950 . S
C722 C717 1.363 . S
C722 C721 1.415 . S
C723 H699 0.951 . S
C723 C724 1.366 . S
C723 C725 1.388 . S
C724 C723 1.366 . S
C724 C728 1.385 . S
C725 H700 0.951 . S
C725 C723 1.388 . S
C725 C726 1.366 . S
C726 C725 1.366 . S
C726 C727 1.414 . S
C726 C729 1.499 . S
C727 H701 0.950 . S
C727 C726 1.414 . S
C727 C728 1.374 . S
C728 H702 0.950 . S
C728 C724 1.385 . S
C728 C727 1.374 . S
C729 C726 1.499 . S
C729 C730 1.373 . S
C729 C731 1.389 . S
C730 H703 0.950 . S
C730 C716 1.377 . S
C730 C729 1.373 . S
C731 C715 1.377 . S
C731 C729 1.389 . S
C731 C732 1.524 . S
C732 C731 1.524 . S
C732 C733 1.397 . S
C732 C737 1.363 . S
C733 H704 0.950 . S
C733 C732 1.397 . S
C733 C734 1.334 . S
C734 H705 0.950 . S
C734 C733 1.334 . S
C734 C735 1.287 . S
C735 C734 1.287 . S
C735 C736 1.524 . S
C735 H738 0.999 . S
C736 H706 0.950 . S
C736 C735 1.524 . S
C736 C737 1.415 . S
C737 H707 0.950 . S
C737 C732 1.363 . S
C737 C736 1.415 . S
H738 C735 0.999 . S
H739 C720 0.913 . S
H740 C758 0.951 . S
H741 C760 0.951 . S
H742 C762 0.950 . S
H743 C763 0.950 . S
H744 C765 0.950 . S
H745 C768 0.950 . S
H746 C769 0.950 . S
H747 C771 0.950 . S
H748 C772 0.950 . S
H749 C773 0.951 . S
H750 C775 0.951 . S
H751 C777 0.950 . S
H752 C778 0.950 . S
H753 C780 0.950 . S
H754 C783 0.950 . S
H755 C784 0.950 . S
H756 C786 0.950 . S
H757 C787 0.950 . S
C758 H740 0.951 . S
C758 C759 1.366 . S
C758 C760 1.388 . S
C759 C758 1.366 . S
C759 C763 1.385 . S
C760 H741 0.951 . S
C760 C758 1.388 . S
C760 C761 1.366 . S
C761 C760 1.366 . S
C761 C762 1.414 . S
C761 C764 1.499 . S
C762 H742 0.950 . S
C762 C761 1.414 . S
C762 C763 1.374 . S
C763 H743 0.950 . S
C763 C759 1.385 . S
C763 C762 1.374 . S
C764 C761 1.499 . S
C764 C765 1.373 . S
C764 C766 1.389 . S
C765 H744 0.950 . S
C765 C764 1.373 . S
C765 C781 1.377 . S
C766 C764 1.389 . S
C766 C767 1.524 . S
C766 C780 1.377 . S
C767 C766 1.524 . S
C767 C768 1.397 . S
C767 C772 1.363 . S
C768 H745 0.950 . S
C768 C767 1.397 . S
C768 C769 1.334 . S
C769 H746 0.950 . S
C769 C768 1.334 . S
C769 C770 1.287 . S
C770 C769 1.287 . S
C770 C771 1.524 . S
C770 H789 0.913 . S
C771 H747 0.950 . S
C771 C770 1.524 . S
C771 C772 1.415 . S
C772 H748 0.950 . S
C772 C767 1.363 . S
C772 C771 1.415 . S
C773 H749 0.951 . S
C773 C774 1.366 . S
C773 C775 1.388 . S
C774 C773 1.366 . S
C774 C778 1.385 . S
C775 H750 0.951 . S
C775 C773 1.388 . S
C775 C776 1.366 . S
C776 C775 1.366 . S
C776 C777 1.414 . S
C776 C779 1.499 . S
C777 H751 0.950 . S
C777 C776 1.414 . S
C777 C778 1.374 . S
C778 H752 0.950 . S
C778 C774 1.385 . S
C778 C777 1.374 . S
C779 C776 1.499 . S
C779 C780 1.373 . S
C779 C781 1.389 . S
C780 H753 0.950 . S
C780 C766 1.377 . S
C780 C779 1.373 . S
C781 C765 1.377 . S
C781 C779 1.389 . S
C781 C782 1.524 . S
C782 C781 1.524 . S
C782 C783 1.397 . S
C782 C787 1.363 . S
C783 H754 0.950 . S
C783 C782 1.397 . S
C783 C784 1.334 . S
C784 H755 0.950 . S
C784 C783 1.334 . S
C784 C785 1.287 . S
C785 C784 1.287 . S
C785 C786 1.524 . S
C785 H788 0.999 . S
C786 H756 0.950 . S
C786 C785 1.524 . S
C786 C787 1.415 . S
C787 H757 0.950 . S
C787 C782 1.363 . S
C787 C786 1.415 . S
H788 C785 0.999 . S
H789 C770 0.913 . S
H790 C808 0.951 . S
H791 C810 0.951 . S
H792 C812 0.950 . S
H793 C813 0.950 . S
H794 C815 0.950 . S
H795 C818 0.950 . S
H796 C819 0.950 . S
H797 C821 0.950 . S
H798 C822 0.950 . S
H799 C823 0.951 . S
H800 C825 0.951 . S
H801 C827 0.950 . S
H802 C828 0.950 . S
H803 C830 0.950 . S
H804 C833 0.950 . S
H805 C834 0.950 . S
H806 C836 0.950 . S
H807 C837 0.950 . S
C808 H790 0.951 . S
C808 C809 1.366 . S
C808 C810 1.388 . S
C809 C808 1.366 . S
C809 C813 1.385 . S
C810 H791 0.951 . S
C810 C808 1.388 . S
C810 C811 1.366 . S
C811 C810 1.366 . S
C811 C812 1.414 . S
C811 C814 1.499 . S
C812 H792 0.950 . S
C812 C811 1.414 . S
C812 C813 1.374 . S
C813 H793 0.950 . S
C813 C809 1.385 . S
C813 C812 1.374 . S
C814 C811 1.499 . S
C814 C815 1.373 . S
C814 C816 1.389 . S
C815 H794 0.950 . S
C815 C814 1.373 . S
C815 C831 1.377 . S
C816 C814 1.389 . S
C816 C817 1.524 . S
C816 C830 1.377 . S
C817 C816 1.524 . S
C817 C818 1.397 . S
C817 C822 1.363 . S
C818 H795 0.950 . S
C818 C817 1.397 . S
C818 C819 1.334 . S
C819 H796 0.950 . S
C819 C818 1.334 . S
C819 C820 1.287 . S
C820 C819 1.287 . S
C820 C821 1.524 . S
C820 H839 0.913 . S
C821 H797 0.950 . S
C821 C820 1.524 . S
C821 C822 1.415 . S
C822 H798 0.950 . S
C822 C817 1.363 . S
C822 C821 1.415 . S
C823 H799 0.951 . S
C823 C824 1.366 . S
C823 C825 1.388 . S
C824 C823 1.366 . S
C824 C828 1.385 . S
C825 H800 0.951 . S
C825 C823 1.388 . S
C825 C826 1.366 . S
C826 C825 1.366 . S
C826 C827 1.414 . S
C826 C829 1.499 . S
C827 H801 0.950 . S
C827 C826 1.414 . S
C827 C828 1.374 . S
C828 H802 0.950 . S
C828 C824 1.385 . S
C828 C827 1.374 . S
C829 C826 1.499 . S
C829 C830 1.373 . S
C829 C831 1.389 . S
C830 H803 0.950 . S
C830 C816 1.377 . S
C830 C829 1.373 . S
C831 C815 1.377 . S
C831 C829 1.389 . S
C831 C832 1.524 . S
C832 C831 1.524 . S
C832 C833 1.397 . S
C832 C837 1.363 . S
C833 H804 0.950 . S
C833 C832 1.397 . S
C833 C834 1.334 . S
C834 H805 0.950 . S
C834 C833 1.334 . S
C834 C835 1.287 . S
C835 C834 1.287 . S
C835 C836 1.524 . S
C835 H838 0.999 . S
C836 H806 0.950 . S
C836 C835 1.524 . S
C836 C837 1.415 . S
C837 H807 0.950 . S
C837 C832 1.363 . S
C837 C836 1.415 . S
H838 C835 0.999 . S
H839 C820 0.913 . S
H840 C858 0.951 . S
H841 C860 0.951 . S
H842 C862 0.950 . S
H843 C863 0.950 . S
H844 C865 0.950 . S
H845 C868 0.950 . S
H846 C869 0.950 . S
H847 C871 0.950 . S
H848 C872 0.950 . S
H849 C873 0.951 . S
H850 C875 0.951 . S
H851 C877 0.950 . S
H852 C878 0.950 . S
H853 C880 0.950 . S
H854 C883 0.950 . S
H855 C884 0.950 . S
H856 C886 0.950 . S
H857 C887 0.950 . S
C858 H840 0.951 . S
C858 C859 1.366 1_455 S
C858 C860 1.388 1_455 S
C859 C858 1.366 1_655 S
C859 C863 1.385 . S
C860 H841 0.951 . S
C860 C858 1.388 1_655 S
C860 C861 1.366 . S
C861 C860 1.366 . S
C861 C862 1.414 . S
C861 C864 1.499 . S
C862 H842 0.950 . S
C862 C861 1.414 . S
C862 C863 1.374 . S
C863 H843 0.950 . S
C863 C859 1.385 . S
C863 C862 1.374 . S
C864 C861 1.499 . S
C864 C865 1.373 . S
C864 C866 1.389 . S
C865 H844 0.950 . S
C865 C864 1.373 . S
C865 C881 1.377 . S
C866 C864 1.389 . S
C866 C867 1.524 . S
C866 C880 1.377 . S
C867 C866 1.524 . S
C867 C868 1.397 . S
C867 C872 1.363 . S
C868 H845 0.950 . S
C868 C867 1.397 . S
C868 C869 1.334 . S
C869 H846 0.950 . S
C869 C868 1.334 . S
C869 C870 1.287 . S
C870 C869 1.287 . S
C870 C871 1.524 . S
C870 H889 0.913 . S
C871 H847 0.950 . S
C871 C870 1.524 . S
C871 C872 1.415 . S
C872 H848 0.950 . S
C872 C867 1.363 . S
C872 C871 1.415 . S
C873 H849 0.951 . S
C873 C874 1.366 . S
C873 C875 1.388 . S
C874 C873 1.366 . S
C874 C878 1.385 . S
C875 H850 0.951 . S
C875 C873 1.388 . S
C875 C876 1.366 . S
C876 C875 1.366 . S
C876 C877 1.414 . S
C876 C879 1.499 . S
C877 H851 0.950 . S
C877 C876 1.414 . S
C877 C878 1.374 . S
C878 H852 0.950 . S
C878 C874 1.385 . S
C878 C877 1.374 . S
C879 C876 1.499 . S
C879 C880 1.373 . S
C879 C881 1.389 . S
C880 H853 0.950 . S
C880 C866 1.377 . S
C880 C879 1.373 . S
C881 C865 1.377 . S
C881 C879 1.389 . S
C881 C882 1.524 . S
C882 C881 1.524 . S
C882 C883 1.397 . S
C882 C887 1.363 . S
C883 H854 0.950 . S
C883 C882 1.397 . S
C883 C884 1.334 . S
C884 H855 0.950 . S
C884 C883 1.334 . S
C884 C885 1.287 . S
C885 C884 1.287 . S
C885 C886 1.524 . S
C885 H888 0.999 . S
C886 H856 0.950 . S
C886 C885 1.524 . S
C886 C887 1.415 . S
C887 H857 0.950 . S
C887 C882 1.363 . S
C887 C886 1.415 . S
H888 C885 0.999 . S
H889 C870 0.913 . S
H890 C908 0.951 . S
H891 C910 0.951 . S
H892 C912 0.950 . S
H893 C913 0.950 . S
H894 C915 0.950 . S
H895 C918 0.950 . S
H896 C919 0.950 . S
H897 C921 0.950 . S
H898 C922 0.950 . S
H899 C923 0.951 . S
H900 C925 0.951 . S
H901 C927 0.950 . S
H902 C928 0.950 . S
H903 C930 0.950 . S
H904 C933 0.950 . S
H905 C934 0.950 . S
H906 C936 0.950 . S
H907 C937 0.950 . S
C908 H890 0.951 . S
C908 C909 1.366 . S
C908 C910 1.388 . S
C909 C908 1.366 . S
C909 C913 1.385 . S
C910 H891 0.951 . S
C910 C908 1.388 . S
C910 C911 1.366 . S
C911 C910 1.366 . S
C911 C912 1.414 . S
C911 C914 1.499 . S
C912 H892 0.950 . S
C912 C911 1.414 . S
C912 C913 1.374 . S
C913 H893 0.950 . S
C913 C909 1.385 . S
C913 C912 1.374 . S
C914 C911 1.499 . S
C914 C915 1.373 . S
C914 C916 1.389 . S
C915 H894 0.950 . S
C915 C914 1.373 . S
C915 C931 1.377 . S
C916 C914 1.389 . S
C916 C917 1.524 . S
C916 C930 1.377 . S
C917 C916 1.524 . S
C917 C918 1.397 . S
C917 C922 1.363 . S
C918 H895 0.950 . S
C918 C917 1.397 . S
C918 C919 1.334 . S
C919 H896 0.950 . S
C919 C918 1.334 . S
C919 C920 1.287 . S
C920 C919 1.287 . S
C920 C921 1.524 . S
C920 H939 0.913 . S
C921 H897 0.950 . S
C921 C920 1.524 . S
C921 C922 1.415 . S
C922 H898 0.950 . S
C922 C917 1.363 . S
C922 C921 1.415 . S
C923 H899 0.951 . S
C923 C924 1.366 . S
C923 C925 1.388 . S
C924 C923 1.366 . S
C924 C928 1.385 . S
C925 H900 0.951 . S
C925 C923 1.388 . S
C925 C926 1.366 . S
C926 C925 1.366 . S
C926 C927 1.414 . S
C926 C929 1.499 . S
C927 H901 0.950 . S
C927 C926 1.414 . S
C927 C928 1.374 . S
C928 H902 0.950 . S
C928 C924 1.385 . S
C928 C927 1.374 . S
C929 C926 1.499 . S
C929 C930 1.373 . S
C929 C931 1.389 . S
C930 H903 0.950 . S
C930 C916 1.377 . S
C930 C929 1.373 . S
C931 C915 1.377 . S
C931 C929 1.389 . S
C931 C932 1.524 . S
C932 C931 1.524 . S
C932 C933 1.397 . S
C932 C937 1.363 . S
C933 H904 0.950 . S
C933 C932 1.397 . S
C933 C934 1.334 . S
C934 H905 0.950 . S
C934 C933 1.334 . S
C934 C935 1.287 . S
C935 C934 1.287 . S
C935 C936 1.524 . S
C935 H938 0.999 . S
C936 H906 0.950 . S
C936 C935 1.524 . S
C936 C937 1.415 . S
C937 H907 0.950 . S
C937 C932 1.363 . S
C937 C936 1.415 . S
H938 C935 0.999 . S
H939 C920 0.913 . S
H940 C958 0.951 . S
H941 C960 0.951 . S
H942 C962 0.950 . S
H943 C963 0.950 . S
H944 C965 0.950 . S
H945 C968 0.950 . S
H946 C969 0.950 . S
H947 C971 0.950 . S
H948 C972 0.950 . S
H949 C973 0.951 . S
H950 C975 0.951 . S
H951 C977 0.950 . S
H952 C978 0.950 . S
H953 C980 0.950 . S
H954 C983 0.950 . S
H955 C984 0.950 . S
H956 C986 0.950 . S
H957 C987 0.950 . S
C958 H940 0.951 . S
C958 C959 1.366 . S
C958 C960 1.388 . S
C959 C958 1.366 . S
C959 C963 1.385 . S
C960 H941 0.951 . S
C960 C958 1.388 . S
C960 C961 1.366 . S
C961 C960 1.366 . S
C961 C962 1.414 . S
C961 C964 1.499 . S
C962 H942 0.950 . S
C962 C961 1.414 . S
C962 C963 1.374 . S
C963 H943 0.950 . S
C963 C959 1.385 . S
C963 C962 1.374 . S
C964 C961 1.499 . S
C964 C965 1.373 . S
C964 C966 1.389 . S
C965 H944 0.950 . S
C965 C964 1.373 . S
C965 C981 1.377 . S
C966 C964 1.389 . S
C966 C967 1.524 . S
C966 C980 1.377 . S
C967 C966 1.524 . S
C967 C968 1.397 . S
C967 C972 1.363 . S
C968 H945 0.950 . S
C968 C967 1.397 . S
C968 C969 1.334 . S
C969 H946 0.950 . S
C969 C968 1.334 . S
C969 C970 1.287 . S
C970 C969 1.287 . S
C970 C971 1.524 . S
C970 H989 0.913 . S
C971 H947 0.950 . S
C971 C970 1.524 . S
C971 C972 1.415 . S
C972 H948 0.950 . S
C972 C967 1.363 . S
C972 C971 1.415 . S
C973 H949 0.951 . S
C973 C974 1.366 . S
C973 C975 1.388 . S
C974 C973 1.366 . S
C974 C978 1.385 . S
C975 H950 0.951 . S
C975 C973 1.388 . S
C975 C976 1.366 . S
C976 C975 1.366 . S
C976 C977 1.414 . S
C976 C979 1.499 . S
C977 H951 0.950 . S
C977 C976 1.414 . S
C977 C978 1.374 . S
C978 H952 0.950 . S
C978 C974 1.385 . S
C978 C977 1.374 . S
C979 C976 1.499 . S
C979 C980 1.373 . S
C979 C981 1.389 . S
C980 H953 0.950 . S
C980 C966 1.377 . S
C980 C979 1.373 . S
C981 C965 1.377 . S
C981 C979 1.389 . S
C981 C982 1.524 . S
C982 C981 1.524 . S
C982 C983 1.397 . S
C982 C987 1.363 . S
C983 H954 0.950 . S
C983 C982 1.397 . S
C983 C984 1.334 . S
C984 H955 0.950 . S
C984 C983 1.334 . S
C984 C985 1.287 . S
C985 C984 1.287 . S
C985 C986 1.524 . S
C985 H988 0.999 . S
C986 H956 0.950 . S
C986 C985 1.524 . S
C986 C987 1.415 . S
C987 H957 0.950 . S
C987 C982 1.363 . S
C987 C986 1.415 . S
H988 C985 0.999 . S
H989 C970 0.913 . S
H990 C1008 0.951 . S
H991 C1010 0.951 . S
H992 C1012 0.950 . S
H993 C1013 0.950 . S
H994 C1015 0.950 . S
H995 C1018 0.950 . S
H996 C1019 0.950 . S
H997 C1021 0.950 . S
H998 C1022 0.950 . S
H999 C1023 0.951 . S
H1000 C1025 0.951 . S
H1001 C1027 0.950 . S
H1002 C1028 0.950 . S
H1003 C1030 0.950 . S
H1004 C1033 0.950 . S
H1005 C1034 0.950 . S
H1006 C1036 0.950 . S
H1007 C1037 0.950 . S
C1008 H990 0.951 . S
C1008 C1009 1.366 . S
C1008 C1010 1.388 . S
C1009 C1008 1.366 . S
C1009 C1013 1.385 . S
C1010 H991 0.951 . S
C1010 C1008 1.388 . S
C1010 C1011 1.366 . S
C1011 C1010 1.366 . S
C1011 C1012 1.414 . S
C1011 C1014 1.499 . S
C1012 H992 0.950 . S
C1012 C1011 1.414 . S
C1012 C1013 1.374 . S
C1013 H993 0.950 . S
C1013 C1009 1.385 . S
C1013 C1012 1.374 . S
C1014 C1011 1.499 . S
C1014 C1015 1.373 . S
C1014 C1016 1.389 . S
C1015 H994 0.950 . S
C1015 C1014 1.373 . S
C1015 C1031 1.377 . S
C1016 C1014 1.389 . S
C1016 C1017 1.524 . S
C1016 C1030 1.377 . S
C1017 C1016 1.524 . S
C1017 C1018 1.397 . S
C1017 C1022 1.363 . S
C1018 H995 0.950 . S
C1018 C1017 1.397 . S
C1018 C1019 1.334 . S
C1019 H996 0.950 . S
C1019 C1018 1.334 . S
C1019 C1020 1.287 . S
C1020 C1019 1.287 . S
C1020 C1021 1.524 . S
C1020 H1039 0.913 . S
C1021 H997 0.950 . S
C1021 C1020 1.524 . S
C1021 C1022 1.415 . S
C1022 H998 0.950 . S
C1022 C1017 1.363 . S
C1022 C1021 1.415 . S
C1023 H999 0.951 . S
C1023 C1024 1.366 . S
C1023 C1025 1.388 . S
C1024 C1023 1.366 . S
C1024 C1028 1.385 . S
C1025 H1000 0.951 . S
C1025 C1023 1.388 . S
C1025 C1026 1.366 . S
C1026 C1025 1.366 . S
C1026 C1027 1.414 . S
C1026 C1029 1.499 . S
C1027 H1001 0.950 . S
C1027 C1026 1.414 . S
C1027 C1028 1.374 . S
C1028 H1002 0.950 . S
C1028 C1024 1.385 . S
C1028 C1027 1.374 . S
C1029 C1026 1.499 . S
C1029 C1030 1.373 . S
C1029 C1031 1.389 . S
C1030 H1003 0.950 . S
C1030 C1016 1.377 . S
C1030 C1029 1.373 . S
C1031 C1015 1.377 . S
C1031 C1029 1.389 . S
C1031 C1032 1.524 . S
C1032 C1031 1.524 . S
C1032 C1033 1.397 . S
C1032 C1037 1.363 . S
C1033 H1004 0.950 . S
C1033 C1032 1.397 . S
C1033 C1034 1.334 . S
C1034 H1005 0.950 . S
C1034 C1033 1.334 . S
C1034 C1035 1.287 . S
C1035 C1034 1.287 . S
C1035 C1036 1.524 . S
C1035 H1038 0.999 . S
C1036 H1006 0.950 . S
C1036 C1035 1.524 . S
C1036 C1037 1.415 . S
C1037 H1007 0.950 . S
C1037 C1032 1.363 . S
C1037 C1036 1.415 . S
H1038 C1035 0.999 . S
H1039 C1020 0.913 . S
H1040 C1058 0.951 . S
H1041 C1060 0.951 . S
H1042 C1062 0.950 . S
H1043 C1063 0.950 . S
H1044 C1065 0.950 . S
H1045 C1068 0.950 . S
H1046 C1069 0.950 . S
H1047 C1071 0.950 . S
H1048 C1072 0.950 . S
H1049 C1073 0.951 . S
H1050 C1075 0.951 . S
H1051 C1077 0.950 . S
H1052 C1078 0.950 . S
H1053 C1080 0.950 . S
H1054 C1083 0.950 . S
H1055 C1084 0.950 . S
H1056 C1086 0.950 . S
H1057 C1087 0.950 . S
C1058 H1040 0.951 . S
C1058 C1059 1.366 . S
C1058 C1060 1.388 . S
C1059 C1058 1.366 . S
C1059 C1063 1.385 . S
C1060 H1041 0.951 . S
C1060 C1058 1.388 . S
C1060 C1061 1.366 . S
C1061 C1060 1.366 . S
C1061 C1062 1.414 . S
C1061 C1064 1.499 . S
C1062 H1042 0.950 . S
C1062 C1061 1.414 . S
C1062 C1063 1.374 . S
C1063 H1043 0.950 . S
C1063 C1059 1.385 . S
C1063 C1062 1.374 . S
C1064 C1061 1.499 . S
C1064 C1065 1.373 . S
C1064 C1066 1.389 . S
C1065 H1044 0.950 . S
C1065 C1064 1.373 . S
C1065 C1081 1.377 . S
C1066 C1064 1.389 . S
C1066 C1067 1.524 . S
C1066 C1080 1.377 . S
C1067 C1066 1.524 . S
C1067 C1068 1.397 . S
C1067 C1072 1.363 . S
C1068 H1045 0.950 . S
C1068 C1067 1.397 . S
C1068 C1069 1.334 . S
C1069 H1046 0.950 . S
C1069 C1068 1.334 . S
C1069 C1070 1.287 . S
C1070 C1069 1.287 . S
C1070 C1071 1.524 . S
C1070 H1089 0.913 . S
C1071 H1047 0.950 . S
C1071 C1070 1.524 . S
C1071 C1072 1.415 . S
C1072 H1048 0.950 . S
C1072 C1067 1.363 . S
C1072 C1071 1.415 . S
C1073 H1049 0.951 . S
C1073 C1074 1.366 . S
C1073 C1075 1.388 . S
C1074 C1073 1.366 . S
C1074 C1078 1.385 . S
C1075 H1050 0.951 . S
C1075 C1073 1.388 . S
C1075 C1076 1.366 . S
C1076 C1075 1.366 . S
C1076 C1077 1.414 . S
C1076 C1079 1.499 . S
C1077 H1051 0.950 . S
C1077 C1076 1.414 . S
C1077 C1078 1.374 . S
C1078 H1052 0.950 . S
C1078 C1074 1.385 . S
C1078 C1077 1.374 . S
C1079 C1076 1.499 . S
C1079 C1080 1.373 . S
C1079 C1081 1.389 . S
C1080 H1053 0.950 . S
C1080 C1066 1.377 . S
C1080 C1079 1.373 . S
C1081 C1065 1.377 . S
C1081 C1079 1.389 . S
C1081 C1082 1.524 . S
C1082 C1081 1.524 . S
C1082 C1083 1.397 . S
C1082 C1087 1.363 . S
C1083 H1054 0.950 . S
C1083 C1082 1.397 . S
C1083 C1084 1.334 . S
C1084 H1055 0.950 . S
C1084 C1083 1.334 . S
C1084 C1085 1.287 . S
C1085 C1084 1.287 . S
C1085 C1086 1.524 . S
C1085 H1088 0.999 . S
C1086 H1056 0.950 . S
C1086 C1085 1.524 . S
C1086 C1087 1.415 . S
C1087 H1057 0.950 . S
C1087 C1082 1.363 . S
C1087 C1086 1.415 . S
H1088 C1085 0.999 . S
H1089 C1070 0.913 . S
H1090 C1108 0.951 . S
H1091 C1110 0.951 . S
H1092 C1112 0.950 . S
H1093 C1113 0.950 . S
H1094 C1115 0.950 . S
H1095 C1118 0.950 . S
H1096 C1119 0.950 . S
H1097 C1121 0.950 . S
H1098 C1122 0.950 . S
H1099 C1123 0.951 . S
H1100 C1125 0.951 . S
H1101 C1127 0.950 . S
H1102 C1128 0.950 . S
H1103 C1130 0.950 . S
H1104 C1133 0.950 . S
H1105 C1134 0.950 . S
H1106 C1136 0.950 . S
H1107 C1137 0.950 . S
C1108 H1090 0.951 . S
C1108 C1109 1.366 . S
C1108 C1110 1.388 . S
C1109 C1108 1.366 . S
C1109 C1113 1.385 . S
C1110 H1091 0.951 . S
C1110 C1108 1.388 . S
C1110 C1111 1.366 . S
C1111 C1110 1.366 . S
C1111 C1112 1.414 . S
C1111 C1114 1.499 . S
C1112 H1092 0.950 . S
C1112 C1111 1.414 . S
C1112 C1113 1.374 . S
C1113 H1093 0.950 . S
C1113 C1109 1.385 . S
C1113 C1112 1.374 . S
C1114 C1111 1.499 . S
C1114 C1115 1.373 . S
C1114 C1116 1.389 . S
C1115 H1094 0.950 . S
C1115 C1114 1.373 . S
C1115 C1131 1.377 . S
C1116 C1114 1.389 . S
C1116 C1117 1.524 . S
C1116 C1130 1.377 . S
C1117 C1116 1.524 . S
C1117 C1118 1.397 . S
C1117 C1122 1.363 . S
C1118 H1095 0.950 . S
C1118 C1117 1.397 . S
C1118 C1119 1.334 . S
C1119 H1096 0.950 . S
C1119 C1118 1.334 . S
C1119 C1120 1.287 . S
C1120 C1119 1.287 . S
C1120 C1121 1.524 . S
C1120 H1139 0.913 . S
C1121 H1097 0.950 . S
C1121 C1120 1.524 . S
C1121 C1122 1.415 . S
C1122 H1098 0.950 . S
C1122 C1117 1.363 . S
C1122 C1121 1.415 . S
C1123 H1099 0.951 . S
C1123 C1124 1.366 . S
C1123 C1125 1.388 . S
C1124 C1123 1.366 . S
C1124 C1128 1.385 . S
C1125 H1100 0.951 . S
C1125 C1123 1.388 . S
C1125 C1126 1.366 . S
C1126 C1125 1.366 . S
C1126 C1127 1.414 . S
C1126 C1129 1.499 . S
C1127 H1101 0.950 . S
C1127 C1126 1.414 . S
C1127 C1128 1.374 . S
C1128 H1102 0.950 . S
C1128 C1124 1.385 . S
C1128 C1127 1.374 . S
C1129 C1126 1.499 . S
C1129 C1130 1.373 . S
C1129 C1131 1.389 . S
C1130 H1103 0.950 . S
C1130 C1116 1.377 . S
C1130 C1129 1.373 . S
C1131 C1115 1.377 . S
C1131 C1129 1.389 . S
C1131 C1132 1.524 . S
C1132 C1131 1.524 . S
C1132 C1133 1.397 . S
C1132 C1137 1.363 . S
C1133 H1104 0.950 . S
C1133 C1132 1.397 . S
C1133 C1134 1.334 . S
C1134 H1105 0.950 . S
C1134 C1133 1.334 . S
C1134 C1135 1.287 . S
C1135 C1134 1.287 . S
C1135 C1136 1.524 . S
C1135 H1138 0.999 . S
C1136 H1106 0.950 . S
C1136 C1135 1.524 . S
C1136 C1137 1.415 . S
C1137 H1107 0.950 . S
C1137 C1132 1.363 . S
C1137 C1136 1.415 . S
H1138 C1135 0.999 . S
H1139 C1120 0.913 . S
H1140 C1158 0.951 . S
H1141 C1160 0.951 . S
H1142 C1162 0.950 . S
H1143 C1163 0.950 . S
H1144 C1165 0.950 . S
H1145 C1168 0.950 . S
H1146 C1169 0.950 . S
H1147 C1171 0.950 . S
H1148 C1172 0.950 . S
H1149 C1173 0.951 . S
H1150 C1175 0.951 . S
H1151 C1177 0.950 . S
H1152 C1178 0.950 . S
H1153 C1180 0.950 . S
H1154 C1183 0.950 . S
H1155 C1184 0.950 . S
H1156 C1186 0.950 . S
H1157 C1187 0.950 . S
C1158 H1140 0.951 . S
C1158 C1159 1.366 . S
C1158 C1160 1.388 . S
C1159 C1158 1.366 . S
C1159 C1163 1.385 . S
C1160 H1141 0.951 . S
C1160 C1158 1.388 . S
C1160 C1161 1.366 . S
C1161 C1160 1.366 . S
C1161 C1162 1.414 . S
C1161 C1164 1.499 . S
C1162 H1142 0.950 . S
C1162 C1161 1.414 . S
C1162 C1163 1.374 . S
C1163 H1143 0.950 . S
C1163 C1159 1.385 . S
C1163 C1162 1.374 . S
C1164 C1161 1.499 . S
C1164 C1165 1.373 . S
C1164 C1166 1.389 . S
C1165 H1144 0.950 . S
C1165 C1164 1.373 . S
C1165 C1181 1.377 . S
C1166 C1164 1.389 . S
C1166 C1167 1.524 . S
C1166 C1180 1.377 . S
C1167 C1166 1.524 . S
C1167 C1168 1.397 . S
C1167 C1172 1.363 . S
C1168 H1145 0.950 . S
C1168 C1167 1.397 . S
C1168 C1169 1.334 . S
C1169 H1146 0.950 . S
C1169 C1168 1.334 . S
C1169 C1170 1.287 . S
C1170 C1169 1.287 . S
C1170 C1171 1.524 . S
C1170 H1189 0.913 . S
C1171 H1147 0.950 . S
C1171 C1170 1.524 . S
C1171 C1172 1.415 . S
C1172 H1148 0.950 . S
C1172 C1167 1.363 . S
C1172 C1171 1.415 . S
C1173 H1149 0.951 . S
C1173 C1174 1.366 . S
C1173 C1175 1.388 . S
C1174 C1173 1.366 . S
C1174 C1178 1.385 . S
C1175 H1150 0.951 . S
C1175 C1173 1.388 . S
C1175 C1176 1.366 . S
C1176 C1175 1.366 . S
C1176 C1177 1.414 . S
C1176 C1179 1.499 . S
C1177 H1151 0.950 . S
C1177 C1176 1.414 . S
C1177 C1178 1.374 . S
C1178 H1152 0.950 . S
C1178 C1174 1.385 . S
C1178 C1177 1.374 . S
C1179 C1176 1.499 . S
C1179 C1180 1.373 . S
C1179 C1181 1.389 . S
C1180 H1153 0.950 . S
C1180 C1166 1.377 . S
C1180 C1179 1.373 . S
C1181 C1165 1.377 . S
C1181 C1179 1.389 . S
C1181 C1182 1.524 . S
C1182 C1181 1.524 . S
C1182 C1183 1.397 . S
C1182 C1187 1.363 . S
C1183 H1154 0.950 . S
C1183 C1182 1.397 . S
C1183 C1184 1.334 . S
C1184 H1155 0.950 . S
C1184 C1183 1.334 . S
C1184 C1185 1.287 . S
C1185 C1184 1.287 . S
C1185 C1186 1.524 . S
C1185 H1188 0.999 . S
C1186 H1156 0.950 . S
C1186 C1185 1.524 . S
C1186 C1187 1.415 . S
C1187 H1157 0.950 . S
C1187 C1182 1.363 . S
C1187 C1186 1.415 . S
H1188 C1185 0.999 . S
H1189 C1170 0.913 . S
H1190 C1208 0.951 . S
H1191 C1210 0.951 . S
H1192 C1212 0.950 . S
H1193 C1213 0.950 . S
H1194 C1215 0.950 . S
H1195 C1218 0.950 . S
H1196 C1219 0.950 . S
H1197 C1221 0.950 . S
H1198 C1222 0.950 . S
H1199 C1223 0.951 . S
H1200 C1225 0.951 . S
H1201 C1227 0.950 . S
H1202 C1228 0.950 . S
H1203 C1230 0.950 . S
H1204 C1233 0.950 . S
H1205 C1234 0.950 . S
H1206 C1236 0.950 . S
H1207 C1237 0.950 . S
C1208 H1190 0.951 . S
C1208 C1209 1.366 . S
C1208 C1210 1.388 . S
C1209 C1208 1.366 . S
C1209 C1213 1.385 . S
C1210 H1191 0.951 . S
C1210 C1208 1.388 . S
C1210 C1211 1.366 . S
C1211 C1210 1.366 . S
C1211 C1212 1.414 . S
C1211 C1214 1.499 . S
C1212 H1192 0.950 . S
C1212 C1211 1.414 . S
C1212 C1213 1.374 . S
C1213 H1193 0.950 . S
C1213 C1209 1.385 . S
C1213 C1212 1.374 . S
C1214 C1211 1.499 . S
C1214 C1215 1.373 . S
C1214 C1216 1.389 . S
C1215 H1194 0.950 . S
C1215 C1214 1.373 . S
C1215 C1231 1.377 . S
C1216 C1214 1.389 . S
C1216 C1217 1.524 . S
C1216 C1230 1.377 . S
C1217 C1216 1.524 . S
C1217 C1218 1.397 . S
C1217 C1222 1.363 . S
C1218 H1195 0.950 . S
C1218 C1217 1.397 . S
C1218 C1219 1.334 . S
C1219 H1196 0.950 . S
C1219 C1218 1.334 . S
C1219 C1220 1.287 . S
C1220 C1219 1.287 . S
C1220 C1221 1.524 . S
C1220 H1239 0.913 . S
C1221 H1197 0.950 . S
C1221 C1220 1.524 . S
C1221 C1222 1.415 . S
C1222 H1198 0.950 . S
C1222 C1217 1.363 . S
C1222 C1221 1.415 . S
C1223 H1199 0.951 . S
C1223 C1224 1.366 . S
C1223 C1225 1.388 . S
C1224 C1223 1.366 . S
C1224 C1228 1.385 . S
C1225 H1200 0.951 . S
C1225 C1223 1.388 . S
C1225 C1226 1.366 . S
C1226 C1225 1.366 . S
C1226 C1227 1.414 . S
C1226 C1229 1.499 . S
C1227 H1201 0.950 . S
C1227 C1226 1.414 . S
C1227 C1228 1.374 . S
C1228 H1202 0.950 . S
C1228 C1224 1.385 . S
C1228 C1227 1.374 . S
C1229 C1226 1.499 . S
C1229 C1230 1.373 . S
C1229 C1231 1.389 . S
C1230 H1203 0.950 . S
C1230 C1216 1.377 . S
C1230 C1229 1.373 . S
C1231 C1215 1.377 . S
C1231 C1229 1.389 . S
C1231 C1232 1.524 . S
C1232 C1231 1.524 . S
C1232 C1233 1.397 . S
C1232 C1237 1.363 . S
C1233 H1204 0.950 . S
C1233 C1232 1.397 . S
C1233 C1234 1.334 . S
C1234 H1205 0.950 . S
C1234 C1233 1.334 . S
C1234 C1235 1.287 . S
C1235 C1234 1.287 . S
C1235 C1236 1.524 . S
C1235 H1238 0.999 . S
C1236 H1206 0.950 . S
C1236 C1235 1.524 . S
C1236 C1237 1.415 . S
C1237 H1207 0.950 . S
C1237 C1232 1.363 . S
C1237 C1236 1.415 . S
H1238 C1235 0.999 . S
H1239 C1220 0.913 . S
H1240 C1258 0.951 1_554 S
H1241 C1260 0.951 . S
H1242 C1262 0.950 . S
H1243 C1263 0.950 . S
H1244 C1265 0.950 . S
H1245 C1268 0.950 . S
H1246 C1269 0.950 . S
H1247 C1271 0.950 1_554 S
H1248 C1272 0.950 . S
H1249 C1273 0.951 . S
H1250 C1275 0.951 . S
H1251 C1277 0.950 . S
H1252 C1278 0.950 . S
H1253 C1280 0.950 . S
H1254 C1283 0.950 . S
H1255 C1284 0.950 . S
H1256 C1286 0.950 . S
H1257 C1287 0.950 . S
C1258 H1240 0.951 1_556 S
C1258 C1259 1.366 . S
C1258 C1260 1.388 . S
C1259 C1258 1.366 . S
C1259 C1263 1.385 . S
C1260 H1241 0.951 . S
C1260 C1258 1.388 . S
C1260 C1261 1.366 . S
C1261 C1260 1.366 . S
C1261 C1262 1.414 . S
C1261 C1264 1.499 . S
C1262 H1242 0.950 . S
C1262 C1261 1.414 . S
C1262 C1263 1.374 . S
C1263 H1243 0.950 . S
C1263 C1259 1.385 . S
C1263 C1262 1.374 . S
C1264 C1261 1.499 . S
C1264 C1265 1.373 . S
C1264 C1266 1.389 . S
C1265 H1244 0.950 . S
C1265 C1264 1.373 . S
C1265 C1281 1.377 . S
C1266 C1264 1.389 . S
C1266 C1267 1.524 . S
C1266 C1280 1.377 . S
C1267 C1266 1.524 . S
C1267 C1268 1.397 . S
C1267 C1272 1.363 . S
C1268 H1245 0.950 . S
C1268 C1267 1.397 . S
C1268 C1269 1.334 . S
C1269 H1246 0.950 . S
C1269 C1268 1.334 . S
C1269 C1270 1.287 . S
C1270 C1269 1.287 . S
C1270 C1271 1.524 . S
C1270 H1289 0.937 . S
C1271 H1247 0.950 1_556 S
C1271 C1270 1.524 . S
C1271 C1272 1.415 . S
C1272 H1248 0.950 . S
C1272 C1267 1.363 . S
C1272 C1271 1.415 . S
C1273 H1249 0.951 . S
C1273 C1274 1.366 . S
C1273 C1275 1.388 . S
C1274 C1273 1.366 . S
C1274 C1278 1.385 . S
C1275 H1250 0.951 . S
C1275 C1273 1.388 . S
C1275 C1276 1.366 . S
C1276 C1275 1.366 . S
C1276 C1277 1.414 . S
C1276 C1279 1.499 . S
C1277 H1251 0.950 . S
C1277 C1276 1.414 . S
C1277 C1278 1.374 . S
C1278 H1252 0.950 . S
C1278 C1274 1.385 . S
C1278 C1277 1.374 . S
C1279 C1276 1.499 . S
C1279 C1280 1.373 . S
C1279 C1281 1.389 . S
C1280 H1253 0.950 . S
C1280 C1266 1.377 . S
C1280 C1279 1.373 . S
C1281 C1265 1.377 . S
C1281 C1279 1.389 . S
C1281 C1282 1.524 . S
C1282 C1281 1.524 . S
C1282 C1283 1.397 . S
C1282 C1287 1.363 . S
C1283 H1254 0.950 . S
C1283 C1282 1.397 . S
C1283 C1284 1.334 . S
C1284 H1255 0.950 . S
C1284 C1283 1.334 . S
C1284 C1285 1.287 . S
C1285 C1284 1.287 . S
C1285 C1286 1.524 . S
C1285 H1288 0.999 . S
C1286 H1256 0.950 . S
C1286 C1285 1.524 . S
C1286 C1287 1.415 . S
C1287 H1257 0.950 . S
C1287 C1282 1.363 . S
C1287 C1286 1.415 . S
H1288 C1285 0.999 . S
H1289 C1270 0.937 . S
H1290 C1308 0.951 . S
H1291 C1310 0.951 . S
H1292 C1312 0.950 . S
H1293 C1313 0.950 . S
H1294 C1315 0.950 . S
H1295 C1318 0.950 . S
H1296 C1319 0.950 . S
H1297 C1321 0.950 . S
H1298 C1322 0.950 . S
H1299 C1323 0.951 . S
H1300 C1325 0.951 . S
H1301 C1327 0.950 . S
H1302 C1328 0.950 . S
H1303 C1330 0.950 . S
H1304 C1333 0.950 . S
H1305 C1334 0.950 . S
H1306 C1336 0.950 . S
H1307 C1337 0.950 1_554 S
C1308 H1290 0.951 . S
C1308 C1309 1.366 1_556 S
C1308 C1310 1.388 . S
C1309 C1308 1.366 1_554 S
C1309 C1313 1.385 . S
C1310 H1291 0.951 . S
C1310 C1308 1.388 . S
C1310 C1311 1.366 . S
C1311 C1310 1.366 . S
C1311 C1312 1.414 1_556 S
C1311 C1314 1.499 . S
C1312 H1292 0.950 . S
C1312 C1311 1.414 1_554 S
C1312 C1313 1.374 . S
C1313 H1293 0.950 . S
C1313 C1309 1.385 . S
C1313 C1312 1.374 . S
C1314 C1311 1.499 . S
C1314 C1315 1.373 . S
C1314 C1316 1.389 . S
C1315 H1294 0.950 . S
C1315 C1314 1.373 . S
C1315 C1331 1.377 . S
C1316 C1314 1.389 . S
C1316 C1317 1.524 . S
C1316 C1330 1.377 . S
C1317 C1316 1.524 . S
C1317 C1318 1.397 . S
C1317 C1322 1.363 . S
C1318 H1295 0.950 . S
C1318 C1317 1.397 . S
C1318 C1319 1.334 . S
C1319 H1296 0.950 . S
C1319 C1318 1.334 . S
C1319 C1320 1.287 . S
C1320 C1319 1.287 . S
C1320 C1321 1.524 . S
C1320 H1339 0.913 1_655 S
C1321 H1297 0.950 . S
C1321 C1320 1.524 . S
C1321 C1322 1.415 . S
C1322 H1298 0.950 . S
C1322 C1317 1.363 . S
C1322 C1321 1.415 . S
C1323 H1299 0.951 . S
C1323 C1324 1.366 . S
C1323 C1325 1.388 . S
C1324 C1323 1.366 . S
C1324 C1328 1.385 . S
C1325 H1300 0.951 . S
C1325 C1323 1.388 . S
C1325 C1326 1.366 . S
C1326 C1325 1.366 . S
C1326 C1327 1.414 . S
C1326 C1329 1.499 . S
C1327 H1301 0.950 . S
C1327 C1326 1.414 . S
C1327 C1328 1.374 . S
C1328 H1302 0.950 . S
C1328 C1324 1.385 . S
C1328 C1327 1.374 . S
C1329 C1326 1.499 . S
C1329 C1330 1.373 . S
C1329 C1331 1.389 . S
C1330 H1303 0.950 . S
C1330 C1316 1.377 . S
C1330 C1329 1.373 . S
C1331 C1315 1.377 . S
C1331 C1329 1.389 . S
C1331 C1332 1.524 . S
C1332 C1331 1.524 . S
C1332 C1333 1.397 . S
C1332 C1337 1.363 . S
C1333 H1304 0.950 . S
C1333 C1332 1.397 . S
C1333 C1334 1.334 . S
C1334 H1305 0.950 . S
C1334 C1333 1.334 . S
C1334 C1335 1.287 . S
C1335 C1334 1.287 . S
C1335 C1336 1.524 1_556 S
C1335 H1338 0.999 . S
C1336 H1306 0.950 . S
C1336 C1335 1.524 1_554 S
C1336 C1337 1.415 1_554 S
C1337 H1307 0.950 1_556 S
C1337 C1332 1.363 . S
C1337 C1336 1.415 1_556 S
H1338 C1335 0.999 . S
H1339 C1320 0.913 1_455 S
H1340 C1358 0.951 . S
H1341 C1360 0.951 . S
H1342 C1362 0.950 . S
H1343 C1363 0.950 . S
H1344 C1365 0.950 . S
H1345 C1368 0.950 . S
H1346 C1369 0.950 . S
H1347 C1371 0.950 . S
H1348 C1372 0.950 . S
H1349 C1373 0.951 . S
H1350 C1375 0.951 . S
H1351 C1377 0.950 . S
H1352 C1378 0.950 . S
H1353 C1380 0.950 . S
H1354 C1383 0.950 . S
H1355 C1384 0.950 . S
H1356 C1386 0.950 . S
H1357 C1387 0.950 . S
C1358 H1340 0.951 . S
C1358 C1359 1.366 . S
C1358 C1360 1.388 . S
C1359 C1358 1.366 . S
C1359 C1363 1.385 . S
C1360 H1341 0.951 . S
C1360 C1358 1.388 . S
C1360 C1361 1.366 . S
C1361 C1360 1.366 . S
C1361 C1362 1.414 . S
C1361 C1364 1.499 . S
C1362 H1342 0.950 . S
C1362 C1361 1.414 . S
C1362 C1363 1.374 . S
C1363 H1343 0.950 . S
C1363 C1359 1.385 . S
C1363 C1362 1.374 . S
C1364 C1361 1.499 . S
C1364 C1365 1.373 . S
C1364 C1366 1.389 . S
C1365 H1344 0.950 . S
C1365 C1364 1.373 . S
C1365 C1381 1.377 . S
C1366 C1364 1.389 . S
C1366 C1367 1.524 . S
C1366 C1380 1.377 . S
C1367 C1366 1.524 . S
C1367 C1368 1.397 . S
C1367 C1372 1.363 . S
C1368 H1345 0.950 . S
C1368 C1367 1.397 . S
C1368 C1369 1.334 . S
C1369 H1346 0.950 . S
C1369 C1368 1.334 . S
C1369 C1370 1.287 . S
C1370 C1369 1.287 . S
C1370 C1371 1.524 . S
C1370 H1389 0.913 . S
C1371 H1347 0.950 . S
C1371 C1370 1.524 . S
C1371 C1372 1.415 . S
C1372 H1348 0.950 . S
C1372 C1367 1.363 . S
C1372 C1371 1.415 . S
C1373 H1349 0.951 . S
C1373 C1374 1.366 . S
C1373 C1375 1.388 . S
C1374 C1373 1.366 . S
C1374 C1378 1.385 . S
C1375 H1350 0.951 . S
C1375 C1373 1.388 . S
C1375 C1376 1.366 . S
C1376 C1375 1.366 . S
C1376 C1377 1.414 . S
C1376 C1379 1.499 . S
C1377 H1351 0.950 . S
C1377 C1376 1.414 . S
C1377 C1378 1.374 . S
C1378 H1352 0.950 . S
C1378 C1374 1.385 . S
C1378 C1377 1.374 . S
C1379 C1376 1.499 . S
C1379 C1380 1.373 . S
C1379 C1381 1.389 . S
C1380 H1353 0.950 . S
C1380 C1366 1.377 . S
C1380 C1379 1.373 . S
C1381 C1365 1.377 . S
C1381 C1379 1.389 . S
C1381 C1382 1.524 . S
C1382 C1381 1.524 . S
C1382 C1383 1.397 . S
C1382 C1387 1.363 . S
C1383 H1354 0.950 . S
C1383 C1382 1.397 . S
C1383 C1384 1.334 . S
C1384 H1355 0.950 . S
C1384 C1383 1.334 . S
C1384 C1385 1.287 . S
C1385 C1384 1.287 . S
C1385 C1386 1.524 . S
C1385 H1388 0.999 . S
C1386 H1356 0.950 . S
C1386 C1385 1.524 . S
C1386 C1387 1.415 . S
C1387 H1357 0.950 . S
C1387 C1382 1.363 . S
C1387 C1386 1.415 . S
H1388 C1385 0.999 . S
H1389 C1370 0.913 . S
H1390 C1408 0.951 . S
H1391 C1410 0.951 . S
H1392 C1412 0.950 . S
H1393 C1413 0.950 . S
H1394 C1415 0.950 . S
H1395 C1418 0.950 . S
H1396 C1419 0.950 . S
H1397 C1421 0.950 . S
H1398 C1422 0.950 . S
H1399 C1423 0.951 . S
H1400 C1425 0.951 . S
H1401 C1427 0.950 . S
H1402 C1428 0.950 . S
H1403 C1430 0.950 . S
H1404 C1433 0.950 . S
H1405 C1434 0.950 . S
H1406 C1436 0.950 . S
H1407 C1437 0.950 . S
C1408 H1390 0.951 . S
C1408 C1409 1.366 . S
C1408 C1410 1.388 . S
C1409 C1408 1.366 . S
C1409 C1413 1.385 . S
C1410 H1391 0.951 . S
C1410 C1408 1.388 . S
C1410 C1411 1.366 . S
C1411 C1410 1.366 . S
C1411 C1412 1.414 . S
C1411 C1414 1.499 . S
C1412 H1392 0.950 . S
C1412 C1411 1.414 . S
C1412 C1413 1.374 . S
C1413 H1393 0.950 . S
C1413 C1409 1.385 . S
C1413 C1412 1.374 . S
C1414 C1411 1.499 . S
C1414 C1415 1.373 . S
C1414 C1416 1.389 . S
C1415 H1394 0.950 . S
C1415 C1414 1.373 . S
C1415 C1431 1.377 . S
C1416 C1414 1.389 . S
C1416 C1417 1.524 . S
C1416 C1430 1.377 . S
C1417 C1416 1.524 . S
C1417 C1418 1.397 . S
C1417 C1422 1.363 . S
C1418 H1395 0.950 . S
C1418 C1417 1.397 . S
C1418 C1419 1.334 . S
C1419 H1396 0.950 . S
C1419 C1418 1.334 . S
C1419 C1420 1.287 . S
C1420 C1419 1.287 . S
C1420 C1421 1.524 . S
C1420 H1439 0.913 . S
C1421 H1397 0.950 . S
C1421 C1420 1.524 . S
C1421 C1422 1.415 . S
C1422 H1398 0.950 . S
C1422 C1417 1.363 . S
C1422 C1421 1.415 . S
C1423 H1399 0.951 . S
C1423 C1424 1.366 . S
C1423 C1425 1.388 . S
C1424 C1423 1.366 . S
C1424 C1428 1.385 . S
C1425 H1400 0.951 . S
C1425 C1423 1.388 . S
C1425 C1426 1.366 . S
C1426 C1425 1.366 . S
C1426 C1427 1.414 . S
C1426 C1429 1.499 . S
C1427 H1401 0.950 . S
C1427 C1426 1.414 . S
C1427 C1428 1.374 . S
C1428 H1402 0.950 . S
C1428 C1424 1.385 . S
C1428 C1427 1.374 . S
C1429 C1426 1.499 . S
C1429 C1430 1.373 . S
C1429 C1431 1.389 . S
C1430 H1403 0.950 . S
C1430 C1416 1.377 . S
C1430 C1429 1.373 . S
C1431 C1415 1.377 . S
C1431 C1429 1.389 . S
C1431 C1432 1.524 . S
C1432 C1431 1.524 . S
C1432 C1433 1.397 . S
C1432 C1437 1.363 . S
C1433 H1404 0.950 . S
C1433 C1432 1.397 . S
C1433 C1434 1.334 . S
C1434 H1405 0.950 . S
C1434 C1433 1.334 . S
C1434 C1435 1.287 . S
C1435 C1434 1.287 . S
C1435 C1436 1.524 . S
C1435 H1438 0.999 . S
C1436 H1406 0.950 . S
C1436 C1435 1.524 . S
C1436 C1437 1.415 . S
C1437 H1407 0.950 . S
C1437 C1432 1.363 . S
C1437 C1436 1.415 . S
H1438 C1435 0.999 . S
H1439 C1420 0.913 . S
H1440 C1458 0.951 . S
H1441 C1460 0.951 . S
H1442 C1462 0.950 . S
H1443 C1463 0.950 . S
H1444 C1465 0.950 . S
H1445 C1468 0.950 . S
H1446 C1469 0.950 . S
H1447 C1471 0.950 . S
H1448 C1472 0.950 . S
H1449 C1473 0.951 . S
H1450 C1475 0.951 . S
H1451 C1477 0.950 . S
H1452 C1478 0.950 . S
H1453 C1480 0.950 . S
H1454 C1483 0.950 . S
H1455 C1484 0.950 . S
H1456 C1486 0.950 . S
H1457 C1487 0.950 . S
C1458 H1440 0.951 . S
C1458 C1459 1.366 . S
C1458 C1460 1.388 . S
C1459 C1458 1.366 . S
C1459 C1463 1.385 . S
C1460 H1441 0.951 . S
C1460 C1458 1.388 . S
C1460 C1461 1.366 . S
C1461 C1460 1.366 . S
C1461 C1462 1.414 . S
C1461 C1464 1.499 . S
C1462 H1442 0.950 . S
C1462 C1461 1.414 . S
C1462 C1463 1.374 . S
C1463 H1443 0.950 . S
C1463 C1459 1.385 . S
C1463 C1462 1.374 . S
C1464 C1461 1.499 . S
C1464 C1465 1.373 . S
C1464 C1466 1.389 . S
C1465 H1444 0.950 . S
C1465 C1464 1.373 . S
C1465 C1481 1.377 . S
C1466 C1464 1.389 . S
C1466 C1467 1.524 . S
C1466 C1480 1.377 . S
C1467 C1466 1.524 . S
C1467 C1468 1.397 . S
C1467 C1472 1.363 . S
C1468 H1445 0.950 . S
C1468 C1467 1.397 . S
C1468 C1469 1.334 . S
C1469 H1446 0.950 . S
C1469 C1468 1.334 . S
C1469 C1470 1.287 . S
C1470 C1469 1.287 . S
C1470 C1471 1.524 . S
C1470 H1489 0.913 . S
C1471 H1447 0.950 . S
C1471 C1470 1.524 . S
C1471 C1472 1.415 . S
C1472 H1448 0.950 . S
C1472 C1467 1.363 . S
C1472 C1471 1.415 . S
C1473 H1449 0.951 . S
C1473 C1474 1.366 . S
C1473 C1475 1.388 . S
C1474 C1473 1.366 . S
C1474 C1478 1.385 . S
C1475 H1450 0.951 . S
C1475 C1473 1.388 . S
C1475 C1476 1.366 . S
C1476 C1475 1.366 . S
C1476 C1477 1.414 . S
C1476 C1479 1.499 . S
C1477 H1451 0.950 . S
C1477 C1476 1.414 . S
C1477 C1478 1.374 . S
C1478 H1452 0.950 . S
C1478 C1474 1.385 . S
C1478 C1477 1.374 . S
C1479 C1476 1.499 . S
C1479 C1480 1.373 . S
C1479 C1481 1.389 . S
C1480 H1453 0.950 . S
C1480 C1466 1.377 . S
C1480 C1479 1.373 . S
C1481 C1465 1.377 . S
C1481 C1479 1.389 . S
C1481 C1482 1.524 . S
C1482 C1481 1.524 . S
C1482 C1483 1.397 . S
C1482 C1487 1.363 . S
C1483 H1454 0.950 . S
C1483 C1482 1.397 . S
C1483 C1484 1.334 . S
C1484 H1455 0.950 . S
C1484 C1483 1.334 . S
C1484 C1485 1.287 . S
C1485 C1484 1.287 . S
C1485 C1486 1.524 . S
C1485 H1488 0.999 . S
C1486 H1456 0.950 . S
C1486 C1485 1.524 . S
C1486 C1487 1.415 . S
C1487 H1457 0.950 . S
C1487 C1482 1.363 . S
C1487 C1486 1.415 . S
H1488 C1485 0.999 . S
H1489 C1470 0.913 . S
H1490 C1508 0.951 . S
H1491 C1510 0.951 . S
H1492 C1512 0.950 . S
H1493 C1513 0.950 . S
H1494 C1515 0.950 . S
H1495 C1518 0.950 . S
H1496 C1519 0.950 . S
H1497 C1521 0.950 . S
H1498 C1522 0.950 . S
H1499 C1523 0.951 . S
H1500 C1525 0.951 . S
H1501 C1527 0.950 . S
H1502 C1528 0.950 . S
H1503 C1530 0.950 . S
H1504 C1533 0.950 . S
H1505 C1534 0.950 . S
H1506 C1536 0.950 . S
H1507 C1537 0.950 . S
C1508 H1490 0.951 . S
C1508 C1509 1.366 . S
C1508 C1510 1.388 . S
C1509 C1508 1.366 . S
C1509 C1513 1.385 . S
C1510 H1491 0.951 . S
C1510 C1508 1.388 . S
C1510 C1511 1.366 . S
C1511 C1510 1.366 . S
C1511 C1512 1.414 . S
C1511 C1514 1.499 . S
C1512 H1492 0.950 . S
C1512 C1511 1.414 . S
C1512 C1513 1.374 . S
C1513 H1493 0.950 . S
C1513 C1509 1.385 . S
C1513 C1512 1.374 . S
C1514 C1511 1.499 . S
C1514 C1515 1.373 . S
C1514 C1516 1.389 . S
C1515 H1494 0.950 . S
C1515 C1514 1.373 . S
C1515 C1531 1.377 . S
C1516 C1514 1.389 . S
C1516 C1517 1.524 . S
C1516 C1530 1.377 . S
C1517 C1516 1.524 . S
C1517 C1518 1.397 . S
C1517 C1522 1.363 . S
C1518 H1495 0.950 . S
C1518 C1517 1.397 . S
C1518 C1519 1.334 . S
C1519 H1496 0.950 . S
C1519 C1518 1.334 . S
C1519 C1520 1.287 . S
C1520 C1519 1.287 . S
C1520 C1521 1.524 . S
C1520 H1539 0.913 . S
C1521 H1497 0.950 . S
C1521 C1520 1.524 . S
C1521 C1522 1.415 . S
C1522 H1498 0.950 . S
C1522 C1517 1.363 . S
C1522 C1521 1.415 . S
C1523 H1499 0.951 . S
C1523 C1524 1.366 . S
C1523 C1525 1.388 . S
C1524 C1523 1.366 . S
C1524 C1528 1.385 . S
C1525 H1500 0.951 . S
C1525 C1523 1.388 . S
C1525 C1526 1.366 . S
C1526 C1525 1.366 . S
C1526 C1527 1.414 . S
C1526 C1529 1.499 . S
C1527 H1501 0.950 . S
C1527 C1526 1.414 . S
C1527 C1528 1.374 . S
C1528 H1502 0.950 . S
C1528 C1524 1.385 . S
C1528 C1527 1.374 . S
C1529 C1526 1.499 . S
C1529 C1530 1.373 . S
C1529 C1531 1.389 . S
C1530 H1503 0.950 . S
C1530 C1516 1.377 . S
C1530 C1529 1.373 . S
C1531 C1515 1.377 . S
C1531 C1529 1.389 . S
C1531 C1532 1.524 . S
C1532 C1531 1.524 . S
C1532 C1533 1.397 . S
C1532 C1537 1.363 . S
C1533 H1504 0.950 . S
C1533 C1532 1.397 . S
C1533 C1534 1.334 . S
C1534 H1505 0.950 . S
C1534 C1533 1.334 . S
C1534 C1535 1.287 . S
C1535 C1534 1.287 . S
C1535 C1536 1.524 . S
C1535 H1538 0.999 . S
C1536 H1506 0.950 . S
C1536 C1535 1.524 . S
C1536 C1537 1.415 . S
C1537 H1507 0.950 . S
C1537 C1532 1.363 . S
C1537 C1536 1.415 . S
H1538 C1535 0.999 . S
H1539 C1520 0.913 . S
H1540 C1558 0.951 . S
H1541 C1560 0.951 . S
H1542 C1562 0.950 . S
H1543 C1563 0.950 . S
H1544 C1565 0.950 . S
H1545 C1568 0.950 . S
H1546 C1569 0.950 . S
H1547 C1571 0.950 . S
H1548 C1572 0.950 . S
H1549 C1573 0.951 . S
H1550 C1575 0.951 . S
H1551 C1577 0.950 . S
H1552 C1578 0.950 . S
H1553 C1580 0.950 . S
H1554 C1583 0.950 . S
H1555 C1584 0.950 . S
H1556 C1586 0.950 . S
H1557 C1587 0.950 . S
C1558 H1540 0.951 . S
C1558 C1559 1.366 . S
C1558 C1560 1.388 . S
C1559 C1558 1.366 . S
C1559 C1563 1.385 . S
C1560 H1541 0.951 . S
C1560 C1558 1.388 . S
C1560 C1561 1.366 . S
C1561 C1560 1.366 . S
C1561 C1562 1.414 . S
C1561 C1564 1.499 . S
C1562 H1542 0.950 . S
C1562 C1561 1.414 . S
C1562 C1563 1.374 . S
C1563 H1543 0.950 . S
C1563 C1559 1.385 . S
C1563 C1562 1.374 . S
C1564 C1561 1.499 . S
C1564 C1565 1.373 . S
C1564 C1566 1.389 . S
C1565 H1544 0.950 . S
C1565 C1564 1.373 . S
C1565 C1581 1.377 . S
C1566 C1564 1.389 . S
C1566 C1567 1.524 . S
C1566 C1580 1.377 . S
C1567 C1566 1.524 . S
C1567 C1568 1.397 . S
C1567 C1572 1.363 . S
C1568 H1545 0.950 . S
C1568 C1567 1.397 . S
C1568 C1569 1.334 . S
C1569 H1546 0.950 . S
C1569 C1568 1.334 . S
C1569 C1570 1.287 . S
C1570 C1569 1.287 . S
C1570 C1571 1.524 . S
C1570 H1589 0.913 . S
C1571 H1547 0.950 . S
C1571 C1570 1.524 . S
C1571 C1572 1.415 . S
C1572 H1548 0.950 . S
C1572 C1567 1.363 . S
C1572 C1571 1.415 . S
C1573 H1549 0.951 . S
C1573 C1574 1.366 . S
C1573 C1575 1.388 . S
C1574 C1573 1.366 . S
C1574 C1578 1.385 . S
C1575 H1550 0.951 . S
C1575 C1573 1.388 . S
C1575 C1576 1.366 . S
C1576 C1575 1.366 . S
C1576 C1577 1.414 . S
C1576 C1579 1.499 . S
C1577 H1551 0.950 . S
C1577 C1576 1.414 . S
C1577 C1578 1.374 . S
C1578 H1552 0.950 . S
C1578 C1574 1.385 . S
C1578 C1577 1.374 . S
C1579 C1576 1.499 . S
C1579 C1580 1.373 . S
C1579 C1581 1.389 . S
C1580 H1553 0.950 . S
C1580 C1566 1.377 . S
C1580 C1579 1.373 . S
C1581 C1565 1.377 . S
C1581 C1579 1.389 . S
C1581 C1582 1.524 . S
C1582 C1581 1.524 . S
C1582 C1583 1.397 . S
C1582 C1587 1.363 . S
C1583 H1554 0.950 . S
C1583 C1582 1.397 . S
C1583 C1584 1.334 . S
C1584 H1555 0.950 . S
C1584 C1583 1.334 . S
C1584 C1585 1.287 . S
C1585 C1584 1.287 . S
C1585 C1586 1.524 . S
C1585 H1588 0.999 . S
C1586 H1556 0.950 . S
C1586 C1585 1.524 . S
C1586 C1587 1.415 . S
C1587 H1557 0.950 . S
C1587 C1582 1.363 . S
C1587 C1586 1.415 . S
H1588 C1585 0.999 . S
H1589 C1570 0.913 . S
H1590 C1608 0.951 . S
H1591 C1610 0.951 . S
H1592 C1612 0.950 . S
H1593 C1613 0.950 . S
H1594 C1615 0.950 . S
H1595 C1618 0.950 . S
H1596 C1619 0.950 . S
H1597 C1621 0.950 . S
H1598 C1622 0.950 . S
H1599 C1623 0.951 . S
H1600 C1625 0.951 . S
H1601 C1627 0.950 . S
H1602 C1628 0.950 . S
H1603 C1630 0.950 . S
H1604 C1633 0.950 . S
H1605 C1634 0.950 . S
H1606 C1636 0.950 . S
H1607 C1637 0.950 . S
C1608 H1590 0.951 . S
C1608 C1609 1.366 . S
C1608 C1610 1.388 . S
C1609 C1608 1.366 . S
C1609 C1613 1.385 . S
C1610 H1591 0.951 . S
C1610 C1608 1.388 . S
C1610 C1611 1.366 . S
C1611 C1610 1.366 . S
C1611 C1612 1.414 . S
C1611 C1614 1.499 . S
C1612 H1592 0.950 . S
C1612 C1611 1.414 . S
C1612 C1613 1.374 . S
C1613 H1593 0.950 . S
C1613 C1609 1.385 . S
C1613 C1612 1.374 . S
C1614 C1611 1.499 . S
C1614 C1615 1.373 . S
C1614 C1616 1.389 . S
C1615 H1594 0.950 . S
C1615 C1614 1.373 . S
C1615 C1631 1.377 . S
C1616 C1614 1.389 . S
C1616 C1617 1.524 . S
C1616 C1630 1.377 . S
C1617 C1616 1.524 . S
C1617 C1618 1.397 . S
C1617 C1622 1.363 . S
C1618 H1595 0.950 . S
C1618 C1617 1.397 . S
C1618 C1619 1.334 . S
C1619 H1596 0.950 . S
C1619 C1618 1.334 . S
C1619 C1620 1.287 . S
C1620 C1619 1.287 . S
C1620 C1621 1.524 . S
C1620 H1639 0.913 . S
C1621 H1597 0.950 . S
C1621 C1620 1.524 . S
C1621 C1622 1.415 . S
C1622 H1598 0.950 . S
C1622 C1617 1.363 . S
C1622 C1621 1.415 . S
C1623 H1599 0.951 . S
C1623 C1624 1.366 . S
C1623 C1625 1.388 . S
C1624 C1623 1.366 . S
C1624 C1628 1.385 . S
C1625 H1600 0.951 . S
C1625 C1623 1.388 . S
C1625 C1626 1.366 . S
C1626 C1625 1.366 . S
C1626 C1627 1.414 . S
C1626 C1629 1.499 . S
C1627 H1601 0.950 . S
C1627 C1626 1.414 . S
C1627 C1628 1.374 . S
C1628 H1602 0.950 . S
C1628 C1624 1.385 . S
C1628 C1627 1.374 . S
C1629 C1626 1.499 . S
C1629 C1630 1.373 . S
C1629 C1631 1.389 . S
C1630 H1603 0.950 . S
C1630 C1616 1.377 . S
C1630 C1629 1.373 . S
C1631 C1615 1.377 . S
C1631 C1629 1.389 . S
C1631 C1632 1.524 . S
C1632 C1631 1.524 . S
C1632 C1633 1.397 . S
C1632 C1637 1.363 . S
C1633 H1604 0.950 . S
C1633 C1632 1.397 . S
C1633 C1634 1.334 . S
C1634 H1605 0.950 . S
C1634 C1633 1.334 . S
C1634 C1635 1.287 . S
C1635 C1634 1.287 . S
C1635 C1636 1.524 . S
C1635 H1638 0.999 . S
C1636 H1606 0.950 . S
C1636 C1635 1.524 . S
C1636 C1637 1.415 . S
C1637 H1607 0.950 . S
C1637 C1632 1.363 . S
C1637 C1636 1.415 . S
H1638 C1635 0.999 . S
H1639 C1620 0.913 . S
H1640 C1658 0.951 . S
H1641 C1660 0.951 . S
H1642 C1662 0.950 . S
H1643 C1663 0.950 . S
H1644 C1665 0.950 . S
H1645 C1668 0.950 . S
H1646 C1669 0.950 . S
H1647 C1671 0.950 . S
H1648 C1672 0.950 . S
H1649 C1673 0.951 . S
H1650 C1675 0.951 . S
H1651 C1677 0.950 . S
H1652 C1678 0.950 . S
H1653 C1680 0.950 . S
H1654 C1683 0.950 . S
H1655 C1684 0.950 . S
H1656 C1686 0.950 . S
H1657 C1687 0.950 . S
C1658 H1640 0.951 . S
C1658 C1659 1.366 . S
C1658 C1660 1.388 . S
C1659 C1658 1.366 . S
C1659 C1663 1.385 . S
C1660 H1641 0.951 . S
C1660 C1658 1.388 . S
C1660 C1661 1.366 . S
C1661 C1660 1.366 . S
C1661 C1662 1.414 . S
C1661 C1664 1.499 . S
C1662 H1642 0.950 . S
C1662 C1661 1.414 . S
C1662 C1663 1.374 . S
C1663 H1643 0.950 . S
C1663 C1659 1.385 . S
C1663 C1662 1.374 . S
C1664 C1661 1.499 . S
C1664 C1665 1.373 . S
C1664 C1666 1.389 . S
C1665 H1644 0.950 . S
C1665 C1664 1.373 . S
C1665 C1681 1.377 . S
C1666 C1664 1.389 . S
C1666 C1667 1.524 . S
C1666 C1680 1.377 . S
C1667 C1666 1.524 . S
C1667 C1668 1.397 . S
C1667 C1672 1.363 . S
C1668 H1645 0.950 . S
C1668 C1667 1.397 . S
C1668 C1669 1.334 . S
C1669 H1646 0.950 . S
C1669 C1668 1.334 . S
C1669 C1670 1.287 . S
C1670 C1669 1.287 . S
C1670 C1671 1.524 . S
C1670 H1689 0.913 . S
C1671 H1647 0.950 . S
C1671 C1670 1.524 . S
C1671 C1672 1.415 . S
C1672 H1648 0.950 . S
C1672 C1667 1.363 . S
C1672 C1671 1.415 . S
C1673 H1649 0.951 . S
C1673 C1674 1.366 . S
C1673 C1675 1.388 . S
C1674 C1673 1.366 . S
C1674 C1678 1.385 . S
C1675 H1650 0.951 . S
C1675 C1673 1.388 . S
C1675 C1676 1.366 . S
C1676 C1675 1.366 . S
C1676 C1677 1.414 . S
C1676 C1679 1.499 . S
C1677 H1651 0.950 . S
C1677 C1676 1.414 . S
C1677 C1678 1.374 . S
C1678 H1652 0.950 . S
C1678 C1674 1.385 . S
C1678 C1677 1.374 . S
C1679 C1676 1.499 . S
C1679 C1680 1.373 . S
C1679 C1681 1.389 . S
C1680 H1653 0.950 . S
C1680 C1666 1.377 . S
C1680 C1679 1.373 . S
C1681 C1665 1.377 . S
C1681 C1679 1.389 . S
C1681 C1682 1.524 . S
C1682 C1681 1.524 . S
C1682 C1683 1.397 . S
C1682 C1687 1.363 . S
C1683 H1654 0.950 . S
C1683 C1682 1.397 . S
C1683 C1684 1.334 . S
C1684 H1655 0.950 . S
C1684 C1683 1.334 . S
C1684 C1685 1.287 . S
C1685 C1684 1.287 . S
C1685 C1686 1.524 . S
C1685 H1688 0.999 . S
C1686 H1656 0.950 . S
C1686 C1685 1.524 . S
C1686 C1687 1.415 . S
C1687 H1657 0.950 . S
C1687 C1682 1.363 . S
C1687 C1686 1.415 . S
H1688 C1685 0.999 . S
H1689 C1670 0.913 . S
H1690 C1708 0.951 . S
H1691 C1710 0.972 . S
H1692 C1712 0.950 . S
H1693 C1713 0.950 . S
H1694 C1715 0.950 . S
H1695 C1718 0.950 . S
H1696 C1719 0.950 . S
H1697 C1721 0.950 . S
H1698 C1722 0.950 . S
H1699 C1723 0.951 . S
H1700 C1725 0.951 . S
H1701 C1727 0.950 . S
H1702 C1728 0.950 . S
H1703 C1730 0.950 . S
H1704 C1733 0.950 . S
H1705 C1734 0.950 . S
H1706 C1736 0.950 . S
H1707 C1737 0.950 . S
C1708 H1690 0.951 . S
C1708 C1709 1.366 . S
C1708 C1710 1.388 1_455 S
C1709 C1708 1.366 . S
C1709 C1713 1.385 1_455 S
C1710 H1691 0.972 . S
C1710 C1708 1.388 1_655 S
C1710 C1711 1.366 . S
C1711 C1710 1.366 . S
C1711 C1712 1.414 . S
C1711 C1714 1.499 . S
C1712 H1692 0.950 . S
C1712 C1711 1.414 . S
C1712 C1713 1.374 . S
C1713 H1693 0.950 . S
C1713 C1709 1.385 1_655 S
C1713 C1712 1.374 . S
C1714 C1711 1.499 . S
C1714 C1715 1.373 . S
C1714 C1716 1.389 . S
C1715 H1694 0.950 . S
C1715 C1714 1.373 . S
C1715 C1731 1.377 . S
C1716 C1714 1.389 . S
C1716 C1717 1.524 . S
C1716 C1730 1.377 . S
C1717 C1716 1.524 . S
C1717 C1718 1.397 . S
C1717 C1722 1.363 . S
C1718 H1695 0.950 . S
C1718 C1717 1.397 . S
C1718 C1719 1.334 1_655 S
C1719 H1696 0.950 . S
C1719 C1718 1.334 1_455 S
C1719 C1720 1.287 . S
C1720 C1719 1.287 . S
C1720 C1721 1.524 . S
C1720 H1739 0.913 . S
C1721 H1697 0.950 . S
C1721 C1720 1.524 . S
C1721 C1722 1.415 1_455 S
C1722 H1698 0.950 . S
C1722 C1717 1.363 . S
C1722 C1721 1.415 1_655 S
C1723 H1699 0.951 . S
C1723 C1724 1.366 . S
C1723 C1725 1.388 . S
C1724 C1723 1.366 . S
C1724 C1728 1.385 . S
C1725 H1700 0.951 . S
C1725 C1723 1.388 . S
C1725 C1726 1.366 . S
C1726 C1725 1.366 . S
C1726 C1727 1.414 . S
C1726 C1729 1.499 . S
C1727 H1701 0.950 . S
C1727 C1726 1.414 . S
C1727 C1728 1.374 . S
C1728 H1702 0.950 . S
C1728 C1724 1.385 . S
C1728 C1727 1.374 . S
C1729 C1726 1.499 . S
C1729 C1730 1.373 . S
C1729 C1731 1.389 . S
C1730 H1703 0.950 . S
C1730 C1716 1.377 . S
C1730 C1729 1.373 . S
C1731 C1715 1.377 . S
C1731 C1729 1.389 . S
C1731 C1732 1.524 . S
C1732 C1731 1.524 . S
C1732 C1733 1.397 . S
C1732 C1737 1.363 . S
C1733 H1704 0.950 . S
C1733 C1732 1.397 . S
C1733 C1734 1.334 . S
C1734 H1705 0.950 . S
C1734 C1733 1.334 . S
C1734 C1735 1.287 . S
C1735 C1734 1.287 . S
C1735 C1736 1.524 . S
C1735 H1738 0.999 . S
C1736 H1706 0.950 . S
C1736 C1735 1.524 . S
C1736 C1737 1.415 . S
C1737 H1707 0.950 . S
C1737 C1732 1.363 . S
C1737 C1736 1.415 . S
H1738 C1735 0.999 . S
H1739 C1720 0.913 . S
H1740 C1758 0.951 . S
H1741 C1760 0.951 . S
H1742 C1762 0.950 . S
H1743 C1763 0.950 . S
H1744 C1765 0.950 . S
H1745 C1768 0.950 . S
H1746 C1769 0.950 . S
H1747 C1771 0.950 . S
H1748 C1772 0.950 . S
H1749 C1773 0.951 . S
H1750 C1775 0.951 . S
H1751 C1777 0.950 . S
H1752 C1778 0.950 . S
H1753 C1780 0.950 . S
H1754 C1783 0.950 . S
H1755 C1784 0.950 . S
H1756 C1786 0.950 . S
H1757 C1787 0.950 . S
C1758 H1740 0.951 . S
C1758 C1759 1.366 . S
C1758 C1760 1.388 . S
C1759 C1758 1.366 . S
C1759 C1763 1.385 . S
C1760 H1741 0.951 . S
C1760 C1758 1.388 . S
C1760 C1761 1.366 . S
C1761 C1760 1.366 . S
C1761 C1762 1.414 . S
C1761 C1764 1.499 . S
C1762 H1742 0.950 . S
C1762 C1761 1.414 . S
C1762 C1763 1.374 . S
C1763 H1743 0.950 . S
C1763 C1759 1.385 . S
C1763 C1762 1.374 . S
C1764 C1761 1.499 . S
C1764 C1765 1.373 . S
C1764 C1766 1.389 . S
C1765 H1744 0.950 . S
C1765 C1764 1.373 . S
C1765 C1781 1.377 . S
C1766 C1764 1.389 . S
C1766 C1767 1.524 . S
C1766 C1780 1.377 . S
C1767 C1766 1.524 . S
C1767 C1768 1.397 . S
C1767 C1772 1.363 . S
C1768 H1745 0.950 . S
C1768 C1767 1.397 . S
C1768 C1769 1.334 . S
C1769 H1746 0.950 . S
C1769 C1768 1.334 . S
C1769 C1770 1.287 . S
C1770 C1769 1.287 . S
C1770 C1771 1.524 . S
C1770 H1789 0.913 . S
C1771 H1747 0.950 . S
C1771 C1770 1.524 . S
C1771 C1772 1.415 . S
C1772 H1748 0.950 . S
C1772 C1767 1.363 . S
C1772 C1771 1.415 . S
C1773 H1749 0.951 . S
C1773 C1774 1.366 . S
C1773 C1775 1.388 . S
C1774 C1773 1.366 . S
C1774 C1778 1.385 . S
C1775 H1750 0.951 . S
C1775 C1773 1.388 . S
C1775 C1776 1.366 . S
C1776 C1775 1.366 . S
C1776 C1777 1.414 . S
C1776 C1779 1.499 . S
C1777 H1751 0.950 . S
C1777 C1776 1.414 . S
C1777 C1778 1.374 . S
C1778 H1752 0.950 . S
C1778 C1774 1.385 . S
C1778 C1777 1.374 . S
C1779 C1776 1.499 . S
C1779 C1780 1.373 . S
C1779 C1781 1.389 . S
C1780 H1753 0.950 . S
C1780 C1766 1.377 . S
C1780 C1779 1.373 . S
C1781 C1765 1.377 . S
C1781 C1779 1.389 . S
C1781 C1782 1.524 . S
C1782 C1781 1.524 . S
C1782 C1783 1.397 . S
C1782 C1787 1.363 . S
C1783 H1754 0.950 . S
C1783 C1782 1.397 . S
C1783 C1784 1.334 . S
C1784 H1755 0.950 . S
C1784 C1783 1.334 . S
C1784 C1785 1.287 . S
C1785 C1784 1.287 . S
C1785 C1786 1.524 . S
C1785 H1788 0.999 . S
C1786 H1756 0.950 . S
C1786 C1785 1.524 . S
C1786 C1787 1.415 . S
C1787 H1757 0.950 . S
C1787 C1782 1.363 . S
C1787 C1786 1.415 . S
H1788 C1785 0.999 . S
H1789 C1770 0.913 . S
H1790 C1808 0.951 . S
H1791 C1810 0.951 . S
H1792 C1812 0.950 . S
H1793 C1813 0.950 . S
H1794 C1815 0.950 . S
H1795 C1818 0.950 . S
H1796 C1819 0.950 . S
H1797 C1821 0.950 . S
H1798 C1822 0.950 . S
H1799 C1823 0.951 . S
H1800 C1825 0.951 . S
H1801 C1827 0.950 . S
H1802 C1828 0.950 . S
H1803 C1830 0.950 . S
H1804 C1833 0.950 . S
H1805 C1834 0.950 . S
H1806 C1836 0.950 . S
H1807 C1837 0.950 . S
C1808 H1790 0.951 . S
C1808 C1809 1.366 . S
C1808 C1810 1.388 . S
C1809 C1808 1.366 . S
C1809 C1813 1.385 . S
C1810 H1791 0.951 . S
C1810 C1808 1.388 . S
C1810 C1811 1.366 . S
C1811 C1810 1.366 . S
C1811 C1812 1.414 . S
C1811 C1814 1.499 . S
C1812 H1792 0.950 . S
C1812 C1811 1.414 . S
C1812 C1813 1.374 . S
C1813 H1793 0.950 . S
C1813 C1809 1.385 . S
C1813 C1812 1.374 . S
C1814 C1811 1.499 . S
C1814 C1815 1.373 . S
C1814 C1816 1.389 . S
C1815 H1794 0.950 . S
C1815 C1814 1.373 . S
C1815 C1831 1.377 . S
C1816 C1814 1.389 . S
C1816 C1817 1.524 . S
C1816 C1830 1.377 . S
C1817 C1816 1.524 . S
C1817 C1818 1.397 . S
C1817 C1822 1.363 . S
C1818 H1795 0.950 . S
C1818 C1817 1.397 . S
C1818 C1819 1.334 . S
C1819 H1796 0.950 . S
C1819 C1818 1.334 . S
C1819 C1820 1.287 . S
C1820 C1819 1.287 . S
C1820 C1821 1.524 . S
C1820 H1839 0.913 . S
C1821 H1797 0.950 . S
C1821 C1820 1.524 . S
C1821 C1822 1.415 . S
C1822 H1798 0.950 . S
C1822 C1817 1.363 . S
C1822 C1821 1.415 . S
C1823 H1799 0.951 . S
C1823 C1824 1.366 . S
C1823 C1825 1.388 . S
C1824 C1823 1.366 . S
C1824 C1828 1.385 . S
C1825 H1800 0.951 . S
C1825 C1823 1.388 . S
C1825 C1826 1.366 . S
C1826 C1825 1.366 . S
C1826 C1827 1.414 . S
C1826 C1829 1.499 . S
C1827 H1801 0.950 . S
C1827 C1826 1.414 . S
C1827 C1828 1.374 . S
C1828 H1802 0.950 . S
C1828 C1824 1.385 . S
C1828 C1827 1.374 . S
C1829 C1826 1.499 . S
C1829 C1830 1.373 . S
C1829 C1831 1.389 . S
C1830 H1803 0.950 . S
C1830 C1816 1.377 . S
C1830 C1829 1.373 . S
C1831 C1815 1.377 . S
C1831 C1829 1.389 . S
C1831 C1832 1.524 . S
C1832 C1831 1.524 . S
C1832 C1833 1.397 . S
C1832 C1837 1.363 . S
C1833 H1804 0.950 . S
C1833 C1832 1.397 . S
C1833 C1834 1.334 . S
C1834 H1805 0.950 . S
C1834 C1833 1.334 . S
C1834 C1835 1.287 . S
C1835 C1834 1.287 . S
C1835 C1836 1.524 . S
C1835 H1838 0.999 . S
C1836 H1806 0.950 . S
C1836 C1835 1.524 . S
C1836 C1837 1.415 . S
C1837 H1807 0.950 . S
C1837 C1832 1.363 . S
C1837 C1836 1.415 . S
H1838 C1835 0.999 . S
H1839 C1820 0.913 . S
H1840 C1858 0.951 . S
H1841 C1860 0.951 . S
H1842 C1862 0.950 . S
H1843 C1863 0.950 . S
H1844 C1865 0.950 . S
H1845 C1868 0.950 . S
H1846 C1869 0.950 . S
H1847 C1871 0.950 . S
H1848 C1872 0.950 . S
H1849 C1873 0.951 . S
H1850 C1875 0.951 . S
H1851 C1877 0.950 . S
H1852 C1878 0.950 . S
H1853 C1880 0.950 . S
H1854 C1883 0.950 . S
H1855 C1884 0.950 . S
H1856 C1886 0.950 . S
H1857 C1887 0.950 . S
C1858 H1840 0.951 . S
C1858 C1859 1.366 . S
C1858 C1860 1.388 . S
C1859 C1858 1.366 . S
C1859 C1863 1.385 . S
C1860 H1841 0.951 . S
C1860 C1858 1.388 . S
C1860 C1861 1.366 . S
C1861 C1860 1.366 . S
C1861 C1862 1.414 . S
C1861 C1864 1.499 . S
C1862 H1842 0.950 . S
C1862 C1861 1.414 . S
C1862 C1863 1.374 . S
C1863 H1843 0.950 . S
C1863 C1859 1.385 . S
C1863 C1862 1.374 . S
C1864 C1861 1.499 . S
C1864 C1865 1.373 . S
C1864 C1866 1.389 . S
C1865 H1844 0.950 . S
C1865 C1864 1.373 . S
C1865 C1881 1.377 . S
C1866 C1864 1.389 . S
C1866 C1867 1.524 . S
C1866 C1880 1.377 . S
C1867 C1866 1.524 . S
C1867 C1868 1.397 . S
C1867 C1872 1.363 . S
C1868 H1845 0.950 . S
C1868 C1867 1.397 . S
C1868 C1869 1.334 . S
C1869 H1846 0.950 . S
C1869 C1868 1.334 . S
C1869 C1870 1.287 . S
C1870 C1869 1.287 . S
C1870 C1871 1.524 . S
C1870 H1889 0.913 . S
C1871 H1847 0.950 . S
C1871 C1870 1.524 . S
C1871 C1872 1.415 . S
C1872 H1848 0.950 . S
C1872 C1867 1.363 . S
C1872 C1871 1.415 . S
C1873 H1849 0.951 . S
C1873 C1874 1.366 . S
C1873 C1875 1.388 . S
C1874 C1873 1.366 . S
C1874 C1878 1.385 . S
C1875 H1850 0.951 . S
C1875 C1873 1.388 . S
C1875 C1876 1.366 . S
C1876 C1875 1.366 . S
C1876 C1877 1.414 . S
C1876 C1879 1.499 . S
C1877 H1851 0.950 . S
C1877 C1876 1.414 . S
C1877 C1878 1.374 . S
C1878 H1852 0.950 . S
C1878 C1874 1.385 . S
C1878 C1877 1.374 . S
C1879 C1876 1.499 . S
C1879 C1880 1.373 . S
C1879 C1881 1.389 . S
C1880 H1853 0.950 . S
C1880 C1866 1.377 . S
C1880 C1879 1.373 . S
C1881 C1865 1.377 . S
C1881 C1879 1.389 . S
C1881 C1882 1.524 . S
C1882 C1881 1.524 . S
C1882 C1883 1.397 . S
C1882 C1887 1.363 . S
C1883 H1854 0.950 . S
C1883 C1882 1.397 . S
C1883 C1884 1.334 . S
C1884 H1855 0.950 . S
C1884 C1883 1.334 . S
C1884 C1885 1.287 . S
C1885 C1884 1.287 . S
C1885 C1886 1.524 . S
C1885 H1888 0.999 . S
C1886 H1856 0.950 . S
C1886 C1885 1.524 . S
C1886 C1887 1.415 . S
C1887 H1857 0.950 . S
C1887 C1882 1.363 . S
C1887 C1886 1.415 . S
H1888 C1885 0.999 . S
H1889 C1870 0.913 . S
C709 C39 1.743 . S
C724 C371 1.661 . S
C759 C91 1.750 . S
C774 C415 1.700 . S
C824 C495 1.412 . S
C809 C128 1.460 . S
C874 C539 1.475 . S
C859 C188 1.512 1_655 S
C924 C619 1.606 . S
C909 C250 1.667 . S
C974 C675 1.763 . S
C959 C304 1.913 . S
C1009 C75 1.874 . S
C1024 C471 1.670 . S
C1059 C144 1.753 . S
C1074 C551 1.626 . S
C1124 C595 1.680 . S
C1109 C198 1.837 . S
C1174 C663 1.441 . S
C1159 C234 1.469 . S
C1209 C294 1.513 . S
C1224 C347 1.402 . S
C1274 C427 1.606 . S
C1259 C29 1.659 1_556 S
C1324 C533 1.781 . S
C1309 C38 1.898 . S
C1359 C92 1.719 . S
C1374 C613 1.574 . S
C1424 C681 1.470 . S
C1409 C135 1.495 . S
C1459 C181 1.670 . S
C1474 C365 1.559 . S
C1509 C251 1.599 . S
C1524 C409 1.516 . S
C1559 C303 1.941 . S
C1574 C489 1.738 . S
C1609 C82 1.845 . S
C1624 C657 1.689 . S
C1674 C353 1.690 . S
C1659 C145 1.781 . S
C1709 C197 1.669 . S
C1724 C433 1.616 . S
C1759 C241 1.434 . S
C1774 C477 1.384 . S
C1809 C287 1.581 . S
C1824 C557 1.547 . S
C1859 C22 1.541 . S
C1874 C601 1.484 . S
