# Generated by pormake.
# Topology zzz, (3,6)-cn, num edge types: 1
# Building blocks:
#     Node 0, Type 0, BuildingBlock: QEWDON_clean_linker_0, # of connection points: 3
#     Node 1, Type 0, BuildingBlock: QEWDON_clean_linker_0, # of connection points: 3
#     Node 2, Type 0, BuildingBlock: QEWDON_clean_linker_0, # of connection points: 3
#     Node 3, Type 0, BuildingBlock: QEWDON_clean_linker_0, # of connection points: 3
#     Node 4, Type 0, BuildingBlock: QEWDON_clean_linker_0, # of connection points: 3
#     Node 5, Type 0, BuildingBlock: QEWDON_clean_linker_0, # of connection points: 3
#     Node 6, Type 0, BuildingBlock: QEWDON_clean_linker_0, # of connection points: 3
#     Node 7, Type 0, BuildingBlock: QEWDON_clean_linker_0, # of connection points: 3
#     Node 8, Type 1, BuildingBlock: CUKXOW_clean_sbu_0, # of connection points: 6
#     Node 9, Type 1, BuildingBlock: CUKXOW_clean_sbu_0, # of connection points: 6
#     Node 10, Type 1, BuildingBlock: CUKXOW_clean_sbu_0, # of connection points: 6
#     Node 11, Type 1, BuildingBlock: CUKXOW_clean_sbu_0, # of connection points: 6
#     Edge 12, Type (0, 1), BuildingBlock: KIFKEQ_clean_linker_1, # of connection points: 2
#     Edge 13, Type (0, 1), BuildingBlock: KIFKEQ_clean_linker_1, # of connection points: 2
#     Edge 14, Type (0, 1), BuildingBlock: KIFKEQ_clean_linker_1, # of connection points: 2
#     Edge 15, Type (0, 1), BuildingBlock: KIFKEQ_clean_linker_1, # of connection points: 2
#     Edge 16, Type (0, 1), BuildingBlock: KIFKEQ_clean_linker_1, # of connection points: 2
#     Edge 17, Type (0, 1), BuildingBlock: KIFKEQ_clean_linker_1, # of connection points: 2
#     Edge 18, Type (0, 1), BuildingBlock: KIFKEQ_clean_linker_1, # of connection points: 2
#     Edge 19, Type (0, 1), BuildingBlock: KIFKEQ_clean_linker_1, # of connection points: 2
#     Edge 20, Type (0, 1), BuildingBlock: KIFKEQ_clean_linker_1, # of connection points: 2
#     Edge 21, Type (0, 1), BuildingBlock: KIFKEQ_clean_linker_1, # of connection points: 2
#     Edge 22, Type (0, 1), BuildingBlock: KIFKEQ_clean_linker_1, # of connection points: 2
#     Edge 23, Type (0, 1), BuildingBlock: KIFKEQ_clean_linker_1, # of connection points: 2
#     Edge 24, Type (0, 1), BuildingBlock: KIFKEQ_clean_linker_1, # of connection points: 2
#     Edge 25, Type (0, 1), BuildingBlock: KIFKEQ_clean_linker_1, # of connection points: 2
#     Edge 26, Type (0, 1), BuildingBlock: KIFKEQ_clean_linker_1, # of connection points: 2
#     Edge 27, Type (0, 1), BuildingBlock: KIFKEQ_clean_linker_1, # of connection points: 2
#     Edge 28, Type (0, 1), BuildingBlock: KIFKEQ_clean_linker_1, # of connection points: 2
#     Edge 29, Type (0, 1), BuildingBlock: KIFKEQ_clean_linker_1, # of connection points: 2
#     Edge 30, Type (0, 1), BuildingBlock: KIFKEQ_clean_linker_1, # of connection points: 2
#     Edge 31, Type (0, 1), BuildingBlock: KIFKEQ_clean_linker_1, # of connection points: 2
#     Edge 32, Type (0, 1), BuildingBlock: KIFKEQ_clean_linker_1, # of connection points: 2
#     Edge 33, Type (0, 1), BuildingBlock: KIFKEQ_clean_linker_1, # of connection points: 2
#     Edge 34, Type (0, 1), BuildingBlock: KIFKEQ_clean_linker_1, # of connection points: 2
#     Edge 35, Type (0, 1), BuildingBlock: KIFKEQ_clean_linker_1, # of connection points: 2
# Relax obj value: 0.026
# Max RMSD: 0.091
# Mean RMSD: 0.034
data_MOF--net-zzz--node1-CUKXOW_clean_sbu_0--node2-QEWDON_clean_linker_0--edge1-KIFKEQ_clean_linker_1
_symmetry_space_group_name_H-M    P1
_symmetry_Int_Tables_number       1
_symmetry_cell_setting            triclinic
loop_
_symmetry_equiv_pos_as_xyz
'x, y, z'
_cell_length_a     54.745385
_cell_length_b     57.103597
_cell_length_c     15.813743
_cell_angle_alpha  93.462112
_cell_angle_beta   86.575382
_cell_angle_gamma 93.236885
loop_
_atom_site_label
_atom_site_type_symbol
_atom_site_fract_x
_atom_site_fract_y
_atom_site_fract_z
_atom_type_partial_charge
H0 H 0.78149 0.515 0.97277 0.0
C1 C 0.78782 0.51071 0.03333 0.0
C2 C 0.8098 0.49925 0.03571 0.0
C3 C 0.77504 0.51814 0.1095 0.0
H4 H 0.83638 0.48733 0.11566 0.0
C5 C 0.81866 0.49487 0.11409 0.0
C6 C 0.80697 0.50319 0.19004 0.0
C7 C 0.78498 0.5145 0.18769 0.0
C8 C 0.75296 0.53207 0.10792 0.0
H9 H 0.77609 0.52114 0.24669 0.0
C10 C 0.73369 0.525 0.05497 0.0
C11 C 0.71298 0.5386 0.05423 0.0
C12 C 0.75124 0.55289 0.15972 0.0
H13 H 0.7659 0.55899 0.19996 0.0
C14 C 0.73077 0.56629 0.15938 0.0
H15 H 0.73485 0.50905 0.01447 0.0
C16 C 0.71177 0.55924 0.10724 0.0
H17 H 0.69596 0.56988 0.10893 0.0
H18 H 0.72965 0.58225 0.19966 0.0
H19 H 0.99073 0.78911 0.89783 0.0
C20 C 0.99663 0.79581 0.95932 0.0
C21 C 0.00803 0.81843 0.96839 0.0
C22 C 0.99134 0.78257 0.03123 0.0
H23 H 0.02185 0.84542 0.05586 0.0
C24 C 0.01438 0.82744 0.04881 0.0
C25 C 0.00823 0.81499 0.12131 0.0
C26 C 0.99688 0.79242 0.11211 0.0
C27 C 0.97675 0.76 0.02473 0.0
H28 H 0.99153 0.78286 0.16807 0.0
C29 C 0.98601 0.73999 0.97999 0.0
C30 C 0.97191 0.7185 0.97737 0.0
C31 C 0.95339 0.75842 0.06631 0.0
H32 H 0.94599 0.77361 0.10109 0.0
C33 C 0.93936 0.7373 0.06337 0.0
H34 H 1.00407 0.74113 0.94801 0.0
C35 C 0.94851 0.71748 0.01948 0.0
H36 H 0.93737 0.70119 0.01964 0.0
H37 H 0.92138 0.73625 0.09575 0.0
H38 H 0.72724 0.97691 0.95688 0.0
C39 C 0.71853 0.98203 0.01804 0.0
C40 C 0.69607 0.99284 0.02191 0.0
C41 C 0.72899 0.97671 0.0936 0.0
H42 H 0.66666 0.00645 0.10276 0.0
C43 C 0.68442 0.9988 0.10059 0.0
C44 C 0.6941 0.99311 0.17594 0.0
C45 C 0.71638 0.98203 0.17244 0.0
C46 C 0.75193 0.96389 0.09064 0.0
H47 H 0.72375 0.97738 0.23093 0.0
C48 C 0.77294 0.97123 0.04093 0.0
C49 C 0.79463 0.95892 0.03982 0.0
C50 C 0.75281 0.94404 0.13857 0.0
H51 H 0.73689 0.93785 0.17651 0.0
C52 C 0.77414 0.9318 0.13743 0.0
H53 H 0.77241 0.9865 0.0037 0.0
C54 C 0.7949 0.93916 0.08875 0.0
H55 H 0.81134 0.92955 0.09049 0.0
H56 H 0.77462 0.91658 0.17478 0.0
H57 H 0.54727 0.73278 0.95568 0.0
C58 C 0.54382 0.72581 0.01776 0.0
C59 C 0.53054 0.70417 0.02577 0.0
C60 C 0.55392 0.73764 0.08958 0.0
H61 H 0.51783 0.67748 0.11041 0.0
C62 C 0.52702 0.69474 0.1054 0.0
C63 C 0.53785 0.70567 0.17625 0.0
C64 C 0.55115 0.72718 0.1684 0.0
C65 C 0.56898 0.75995 0.08225 0.0
H66 H 0.55966 0.73556 0.22341 0.0
C67 C 0.56013 0.77927 0.04421 0.0
C68 C 0.57372 0.80099 0.04548 0.0
C69 C 0.59198 0.76235 0.1179 0.0
H70 H 0.59935 0.7477 0.14655 0.0
C71 C 0.60567 0.78369 0.11743 0.0
H72 H 0.54232 0.77774 0.0173 0.0
C73 C 0.59652 0.80297 0.08228 0.0
H74 H 0.60729 0.81949 0.08354 0.0
H75 H 0.62331 0.78536 0.14531 0.0
H76 H 0.24023 0.53592 0.41373 0.0
C77 C 0.2316 0.52685 0.36023 0.0
C78 C 0.20659 0.51995 0.36731 0.0
C79 C 0.2449 0.52363 0.28161 0.0
H80 H 0.17564 0.50472 0.30268 0.0
C81 C 0.19521 0.50911 0.29724 0.0
C82 C 0.20783 0.50653 0.21813 0.0
C83 C 0.23275 0.51375 0.2105 0.0
C84 C 0.27059 0.5331 0.27041 0.0
H85 H 0.24249 0.51223 0.14886 0.0
C86 C 0.28891 0.52685 0.32274 0.0
C87 C 0.31345 0.5352 0.30768 0.0
C88 C 0.2769 0.54833 0.20512 0.0
H89 H 0.2631 0.5536 0.16479 0.0
C90 C 0.30097 0.55709 0.19155 0.0
H91 H 0.28424 0.51489 0.37261 0.0
C92 C 0.31913 0.55055 0.24209 0.0
H93 H 0.33771 0.55764 0.23004 0.0
H94 H 0.3056 0.56892 0.14136 0.0
H95 H 1.00434 0.22452 0.5102 0.0
C96 C 0.01355 0.21853 0.4509 0.0
C97 C 0.02496 0.19701 0.44519 0.0
C98 C 0.01248 0.23137 0.37811 0.0
H99 H 0.04221 0.17116 0.36196 0.0
C100 C 0.03525 0.18861 0.36672 0.0
C101 C 0.03356 0.20066 0.29281 0.0
C102 C 0.02253 0.22238 0.2995 0.0
C103 C 0.99686 0.25168 0.37971 0.0
H104 H 0.02054 0.23176 0.24294 0.0
C105 C 1.00405 0.27376 0.41776 0.0
C106 C 0.98939 0.29312 0.41225 0.0
C107 C 0.97472 0.24892 0.33889 0.0
H108 H 0.96893 0.23205 0.30942 0.0
C109 C 0.95993 0.26784 0.3354 0.0
H110 H 0.02128 0.27605 0.44835 0.0
C111 C 0.96722 0.28981 0.37136 0.0
H112 H 0.95548 0.3043 0.36724 0.0
H113 H 0.94285 0.26554 0.30397 0.0
H114 H 0.294 0.02374 0.44893 0.0
C115 C 0.30373 0.02906 0.39091 0.0
C116 C 0.32823 0.03795 0.39288 0.0
C117 C 0.29253 0.02527 0.31294 0.0
H118 H 0.36031 0.04917 0.31741 0.0
C119 C 0.34101 0.0437 0.31684 0.0
C120 C 0.3305 0.03929 0.23876 0.0
C121 C 0.30617 0.0303 0.23705 0.0
C122 C 0.26789 0.01313 0.30856 0.0
H123 H 0.29817 0.02642 0.17637 0.0
C124 C 0.24738 0.0212 0.35809 0.0
C125 C 0.22398 0.01006 0.34799 0.0
C126 C 0.26485 0.99333 0.25209 0.0
H127 H 0.28036 0.98654 0.21446 0.0
C128 C 0.24187 0.98201 0.24368 0.0
H129 H 0.24944 0.03651 0.40151 0.0
C130 C 0.22155 0.99036 0.29073 0.0
H131 H 0.20382 0.98133 0.28265 0.0
H132 H 0.23976 0.96677 0.20006 0.0
H133 H 0.51366 0.29274 0.37719 0.0
C134 C 0.50403 0.30164 0.33167 0.0
C135 C 0.50001 0.32568 0.34592 0.0
C136 C 0.49694 0.2896 0.25566 0.0
H137 H 0.48645 0.35622 0.29573 0.0
C138 C 0.48849 0.33744 0.28564 0.0
C139 C 0.482 0.32603 0.20901 0.0
C140 C 0.48602 0.30206 0.19457 0.0
C141 C 0.50263 0.26463 0.23575 0.0
H142 H 0.48107 0.29326 0.13488 0.0
C143 C 0.49754 0.24736 0.29555 0.0
C144 C 0.50141 0.22356 0.27252 0.0
C145 C 0.51261 0.25785 0.15444 0.0
H146 H 0.51723 0.27075 0.10778 0.0
C147 C 0.51679 0.23438 0.13222 0.0
H148 H 0.48978 0.25224 0.35838 0.0
C149 C 0.51104 0.2173 0.19048 0.0
H150 H 0.51435 0.19913 0.17174 0.0
H151 H 0.52441 0.22939 0.0694 0.0
Tb152 Tb 1.00548 0.99053 0.63024 0.0
C153 C 0.05763 0.01477 0.64043 0.0
Tb154 Tb 0.01543 0.02547 0.78271 0.0
O155 O 0.00747 0.01941 0.54363 0.0
O156 O 0.99641 0.02494 0.67094 0.0
O157 O 0.04503 0.99508 0.61807 0.0
C158 C 0.02382 0.06537 0.87566 0.0
O159 O 0.04839 0.03072 0.69664 0.0
C160 C 0.01884 0.98095 0.80844 0.0
C161 C 0.96217 1.00103 0.77026 0.0
O162 O 0.03799 0.04777 0.86931 0.0
O163 O 1.00489 0.06025 0.83139 0.0
O164 O 0.01307 0.99652 0.86894 0.0
O165 O 0.02476 0.99119 0.74161 0.0
O166 O 0.97625 0.01763 0.80921 0.0
O167 O 0.96999 0.98821 0.7018 0.0
C168 C 0.9986 0.95072 0.53561 0.0
O169 O 0.99679 0.95262 0.61782 0.0
O170 O 1.00362 0.97135 0.50667 0.0
C171 C 1.002 0.03508 0.60382 0.0
Tb172 Tb 0.51031 0.04007 0.67146 0.0
C173 C 0.54832 0.00612 0.58403 0.0
Tb174 Tb 0.51417 0.99105 0.74391 0.0
O175 O 0.54757 0.05118 0.70303 0.0
O176 O 0.52766 0.02599 0.77229 0.0
O177 O 0.5341 0.02365 0.57251 0.0
C178 C 0.52663 0.9512 0.80626 0.0
O179 O 0.54488 0.99255 0.64945 0.0
C180 C 0.47567 0.99561 0.6563 0.0
C181 C 0.47654 0.02522 0.83258 0.0
O182 O 0.51681 0.95286 0.73434 0.0
O183 O 0.52955 0.97204 0.84322 0.0
O184 O 0.4766 0.9806 0.71418 0.0
O185 O 0.49682 0.00519 0.64329 0.0
O186 O 0.49061 0.0075 0.84377 0.0
O187 O 0.47978 0.03863 0.76654 0.0
C188 C 0.49787 0.0789 0.60173 0.0
O189 O 0.50408 0.07778 0.67931 0.0
O190 O 0.49841 0.05809 0.56386 0.0
C191 C 0.54869 0.03591 0.75996 0.0
Tb192 Tb 0.52358 0.52936 0.61447 0.0
C193 C 0.4654 0.51625 0.62063 0.0
Tb194 Tb 0.49963 0.49835 0.75394 0.0
O195 O 0.53987 0.49906 0.54492 0.0
O196 O 0.50761 0.49524 0.62177 0.0
O197 O 0.4847 0.52848 0.58747 0.0
C198 C 0.48711 0.46037 0.8406 0.0
O199 O 0.46705 0.50188 0.68302 0.0
C200 C 0.50035 0.54392 0.78723 0.0
C201 C 0.55766 0.51129 0.74634 0.0
O202 O 0.49451 0.46029 0.76126 0.0
O203 O 0.48684 0.48195 0.87187 0.0
O204 O 0.48368 0.5295 0.82054 0.0
O205 O 0.51626 0.53223 0.74618 0.0
O206 O 0.53924 0.49674 0.7733 0.0
O207 O 0.55459 0.52789 0.69303 0.0
C208 C 0.53102 0.56921 0.53512 0.0
O209 O 0.54386 0.55074 0.51938 0.0
O210 O 0.51405 0.56487 0.59337 0.0
C211 C 0.52405 0.4842 0.5804 0.0
Tb212 Tb 0.99217 0.51368 0.6251 0.0
C213 C 0.00791 0.46098 0.64637 0.0
Tb214 Tb 0.02605 0.5037 0.76723 0.0
O215 O 0.02311 0.52984 0.55019 0.0
O216 O 0.02824 0.5039 0.63403 0.0
O217 O 0.99357 0.4753 0.61115 0.0
C218 C 0.06662 0.50182 0.8518 0.0
O219 O 0.02391 0.46862 0.70334 0.0
C220 C 0.97878 0.49888 0.80371 0.0
C221 C 0.00992 0.55621 0.74579 0.0
O222 O 0.04444 0.49694 0.88224 0.0
O223 O 0.06583 0.50805 0.77459 0.0
O224 O 0.99471 0.48734 0.84015 0.0
O225 O 0.98995 0.51364 0.75793 0.0
O226 O 0.02565 0.54257 0.77811 0.0
O227 O 0.99279 0.54768 0.69443 0.0
C228 C 0.95082 0.51205 0.54345 0.0
O229 O 0.9701 0.52567 0.52594 0.0
O230 O 0.95512 0.49926 0.60516 0.0
C231 C 0.03911 0.51875 0.58793 0.0
H232 H 0.18231 0.02159 0.28041 0.0
H233 H 0.21498 0.01731 0.52016 0.0
H234 H 0.14257 0.02749 0.35421 0.0
H235 H 0.17483 0.02299 0.59485 0.0
H236 H 0.09569 0.04511 0.69311 0.0
H237 H 0.13732 0.04934 0.62554 0.0
H238 H 0.11712 0.99691 0.43031 0.0
H239 H 0.07624 0.99267 0.49653 0.0
C240 C 0.18102 0.02238 0.34916 0.0
C241 C 0.20159 0.01868 0.3946 0.0
C242 C 0.15828 0.02569 0.39142 0.0
C243 C 0.15548 0.02524 0.48024 0.0
C244 C 0.17644 0.02344 0.52636 0.0
C245 C 0.19938 0.02019 0.48375 0.0
C246 C 0.10021 0.03463 0.6355 0.0
C247 C 0.08266 0.0185 0.60042 0.0
C248 C 0.12401 0.03699 0.59713 0.0
C249 C 0.13042 0.02361 0.52221 0.0
C250 C 0.11271 0.00776 0.48716 0.0
C251 C 0.08925 0.00519 0.52573 0.0
H252 H 0.51952 0.21951 0.42789 0.0
H253 H 0.47054 0.18513 0.2502 0.0
H254 H 0.51541 0.18507 0.51341 0.0
H255 H 0.46536 0.15113 0.33695 0.0
H256 H 0.4915 0.0836 0.43475 0.0
H257 H 0.48902 0.11975 0.3628 0.0
H258 H 0.49178 0.15974 0.60354 0.0
H259 H 0.49531 0.12335 0.67485 0.0
C260 C 0.50732 0.2048 0.40865 0.0
C261 C 0.49549 0.20481 0.33239 0.0
C262 C 0.50489 0.18505 0.45759 0.0
C263 C 0.49032 0.16504 0.43161 0.0
C264 C 0.47727 0.16586 0.3579 0.0
C265 C 0.48001 0.18541 0.30853 0.0
C266 C 0.49134 0.10011 0.47232 0.0
C267 C 0.49371 0.1007 0.56022 0.0
C268 C 0.48973 0.1209 0.4312 0.0
C269 C 0.49018 0.14284 0.47713 0.0
C270 C 0.49176 0.14328 0.5658 0.0
C271 C 0.49359 0.12242 0.60683 0.0
H272 H 0.31452 0.53342 0.48117 0.0
H273 H 0.35788 0.52051 0.24764 0.0
H274 H 0.35022 0.52687 0.56227 0.0
H275 H 0.39321 0.51406 0.3279 0.0
H276 H 0.45656 0.54102 0.48472 0.0
H277 H 0.41865 0.54274 0.41462 0.0
H278 H 0.38183 0.49695 0.59468 0.0
H279 H 0.42023 0.49513 0.66629 0.0
C280 C 0.3315 0.52876 0.44729 0.0
C281 C 0.33355 0.52794 0.35806 0.0
C282 C 0.35191 0.52502 0.49364 0.0
C283 C 0.37464 0.52042 0.45137 0.0
C284 C 0.37613 0.51815 0.36229 0.0
C285 C 0.35588 0.52184 0.31631 0.0
C286 C 0.4405 0.53126 0.50998 0.0
C287 C 0.44161 0.51777 0.58105 0.0
C288 C 0.41872 0.53217 0.46924 0.0
C289 C 0.39732 0.51972 0.49835 0.0
C290 C 0.39807 0.5067 0.57079 0.0
C291 C 0.42007 0.50562 0.61154 0.0
H292 H 1.00414 0.30697 0.57164 0.0
H293 H 0.99158 0.33334 0.32886 0.0
H294 H 0.01047 0.34745 0.63119 0.0
H295 H 0.99831 0.37345 0.38704 0.0
H296 H 0.97584 0.43889 0.53854 0.0
H297 H 0.97428 0.3983 0.48424 0.0
H298 H 0.03589 0.38492 0.62934 0.0
H299 H 0.03727 0.42589 0.68553 0.0
C300 C 1.00325 0.3214 0.53073 0.0
C301 C 0.99701 0.31708 0.44606 0.0
C302 C 0.00686 0.34456 0.56469 0.0
C303 C 1.00438 0.36372 0.51433 0.0
C304 C 0.99965 0.35917 0.42831 0.0
C305 C 0.99593 0.33618 0.39478 0.0
C306 C 0.98913 0.42742 0.55914 0.0
C307 C 0.00682 0.43582 0.61604 0.0
C308 C 0.98832 0.40408 0.52743 0.0
C309 C 1.00521 0.38838 0.55132 0.0
C310 C 0.0226 0.39654 0.60974 0.0
C311 C 0.02342 0.42004 0.6417 0.0
H312 H 0.81497 1.00372 0.02491 0.0
H313 H 0.82578 0.9314 0.9423 0.0
H314 H 0.85428 0.01547 0.95355 0.0
H315 H 0.86522 0.94291 0.87405 0.0
H316 H 0.92655 0.9714 0.7017 0.0
H317 H 0.88492 0.9631 0.75839 0.0
H318 H 0.89769 0.01205 0.97226 0.0
H319 H 0.93928 0.02083 0.91445 0.0
C320 C 0.82559 0.99038 0.99075 0.0
C321 C 0.8173 0.9666 0.98977 0.0
C322 C 0.84826 0.99706 0.95073 0.0
C323 C 0.86306 0.98014 0.9084 0.0
C324 C 0.8543 0.95649 0.90521 0.0
C325 C 0.83175 0.94983 0.94518 0.0
C326 C 0.92052 0.98053 0.76062 0.0
C327 C 0.93643 0.99671 0.80366 0.0
C328 C 0.8966 0.97567 0.79337 0.0
C329 C 0.88791 0.98677 0.87028 0.0
C330 C 0.90363 1.00335 0.91241 0.0
C331 C 0.92758 0.00827 0.87949 0.0
H332 H 0.56138 0.80677 0.88361 0.0
H333 H 0.56503 0.84257 0.13071 0.0
H334 H 0.55 0.84297 0.82472 0.0
H335 H 0.55228 0.87841 0.07413 0.0
H336 H 0.55605 0.94568 0.93578 0.0
H337 H 0.56661 0.90902 0.99234 0.0
H338 H 0.52047 0.87009 0.81408 0.0
H339 H 0.51123 0.90679 0.75481 0.0
C340 C 0.55922 0.82233 0.92548 0.0
C341 C 0.56414 0.82201 0.01138 0.0
C342 C 0.55261 0.8431 0.89205 0.0
C343 C 0.55037 0.86388 0.94428 0.0
C344 C 0.55444 0.86309 0.03114 0.0
C345 C 0.56149 0.84249 0.064 0.0
C346 C 0.54826 0.92923 0.9088 0.0
C347 C 0.53286 0.92902 0.84104 0.0
C348 C 0.55412 0.90816 0.9416 0.0
C349 C 0.5443 0.88637 0.90844 0.0
C350 C 0.52876 0.88635 0.8406 0.0
C351 C 0.52329 0.90741 0.80686 0.0
H352 H 0.69004 0.56662 0.95453 0.0
H353 H 0.68934 0.49516 0.02972 0.0
H354 H 0.65379 0.55701 0.87534 0.0
H355 H 0.65308 0.48522 0.94792 0.0
H356 H 0.60078 0.53156 0.68523 0.0
H357 H 0.63988 0.53504 0.75098 0.0
H358 H 0.60913 0.49398 0.95594 0.0
H359 H 0.56984 0.49002 0.88873 0.0
C360 C 0.68223 0.54875 0.95341 0.0
C361 C 0.69246 0.53169 -0.00118 0.0
C362 C 0.66155 0.54316 0.90728 0.0
C363 C 0.65049 0.52031 0.90507 0.0
C364 C 0.66104 0.50303 0.94888 0.0
C365 C 0.68192 0.50864 -0.00506 0.0
C366 C 0.60233 0.52306 0.74394 0.0
C367 C 0.58203 0.5108 0.78236 0.0
C368 C 0.62479 0.52513 0.78181 0.0
C369 C 0.62757 0.51515 0.85951 0.0
C370 C 0.60765 0.50182 0.89589 0.0
C371 C 0.5851 0.49962 0.85757 0.0
H372 H 0.01725 0.70038 0.98318 0.0
H373 H 0.94738 0.68744 0.87147 0.0
H374 H 0.03044 0.66243 0.92076 0.0
H375 H 0.96005 0.64959 0.81187 0.0
H376 H 0.99218 0.59058 0.65967 0.0
H377 H 0.98691 0.63131 0.70695 0.0
H378 H 0.02119 0.62025 0.93935 0.0
H379 H 0.02716 0.5793 0.89033 0.0
C380 C 1.00486 0.68958 0.94441 0.0
C381 C 0.98124 0.69685 0.93251 0.0
C382 C 0.01229 0.66775 0.9095 0.0
C383 C 0.99632 0.65288 0.86133 0.0
C384 C 0.97301 0.66062 0.84753 0.0
C385 C 0.96562 0.68228 0.88242 0.0
C386 C 0.99883 0.59684 0.72059 0.0
C387 C 0.00972 0.58159 0.77189 0.0
C388 C 0.99572 0.62023 0.74785 0.0
C389 C 1.00315 0.629 0.82775 0.0
C390 C 0.0153 0.61411 0.87732 0.0
C391 C 0.01865 0.59062 0.84945 0.0
H392 H 0.061 0.17538 0.51623 0.0
H393 H 0.98251 0.17945 0.52085 0.0
H394 H 0.05587 0.13671 0.575 0.0
H395 H 0.97731 0.14078 0.57988 0.0
H396 H 0.97874 0.06913 0.70037 0.0
H397 H 0.98529 0.11187 0.69273 0.0
H398 H 0.03958 0.10112 0.48646 0.0
H399 H 0.03308 0.05862 0.49457 0.0
C400 C 0.04268 0.16849 0.53395 0.0
C401 C 0.02215 0.18026 0.51345 0.0
C402 C 0.03973 0.14625 0.56646 0.0
C403 C 0.0162 0.13551 0.57971 0.0
C404 C 0.99566 0.14861 0.56998 0.0
C405 C 0.99862 0.17087 0.53694 0.0
C406 C 0.99224 0.07602 0.65414 0.0
C407 C 1.0055 0.06072 0.59823 0.0
C408 C 0.99593 0.1004 0.64968 0.0
C409 C 0.01319 0.10982 0.5899 0.0
C410 C 0.02651 0.09439 0.53439 0.0
C411 C 0.02258 0.07008 0.53815 0.0
H412 H 0.331 1.0004 0.48908 0.0
H413 H 0.35988 0.07159 0.46129 0.0
H414 H 0.36591 0.99261 0.56976 0.0
H415 H 0.39504 0.06374 0.54147 0.0
H416 H 0.46821 0.02356 0.52661 0.0
H417 H 0.42924 0.03791 0.48872 0.0
H418 H 0.39164 1.00132 0.69386 0.0
H419 H 0.43057 0.98736 0.73219 0.0
C420 C 0.34417 0.01473 0.50384 0.0
C421 C 0.34288 0.03652 0.46809 0.0
C422 C 0.36434 0.01021 0.54941 0.0
C423 C 0.38353 0.0274 0.55981 0.0
C424 C 0.38079 0.05001 0.53264 0.0
C425 C 0.36053 0.05459 0.48773 0.0
C426 C 0.45169 0.01906 0.56447 0.0
C427 C 0.45241 1.00449 0.6323 0.0
C428 C 0.42938 0.02726 0.54309 0.0
C429 C 0.40738 0.02085 0.58883 0.0
C430 C 0.40824 0.00648 0.65733 0.0
C431 C 0.43052 0.99841 0.67889 0.0
H432 H 0.47909 0.33713 0.50253 0.0
H433 H 0.54378 0.34928 0.33929 0.0
H434 H 0.48874 0.37368 0.58501 0.0
H435 H 0.55266 0.38644 0.41611 0.0
H436 H 0.56299 0.4567 0.54675 0.0
H437 H 0.56202 0.41401 0.52156 0.0
H438 H 0.48284 0.41164 0.55496 0.0
H439 H 0.48428 0.45381 0.5851 0.0
C440 C 0.49597 0.34716 0.48684 0.0
C441 C 0.5108 0.34044 0.4152 0.0
C442 C 0.50125 0.36843 0.53258 0.0
C443 C 0.52099 0.38368 0.50555 0.0
C444 C 0.53732 0.37543 0.43964 0.0
C445 C 0.53235 0.35395 0.39545 0.0
C446 C 0.54548 0.44685 0.54938 0.0
C447 C 0.52371 0.45843 0.56714 0.0
C448 C 0.54485 0.42238 0.53488 0.0
C449 C 0.52234 0.40906 0.53559 0.0
C450 C 0.50063 0.4209 0.55557 0.0
C451 C 0.50136 0.44522 0.57178 0.0
H452 H 0.19408 0.49721 0.51199 0.0
H453 H 0.18071 0.55848 0.37946 0.0
H454 H 0.15522 0.50105 0.59445 0.0
H455 H 0.14119 0.5613 0.45413 0.0
H456 H 0.07237 0.48559 0.58747 0.0
H457 H 0.11643 0.4904 0.56345 0.0
H458 H 0.11042 0.56552 0.5523 0.0
H459 H 0.06591 0.55991 0.56858 0.0
C460 C 0.1832 0.51205 0.50315 0.0
C461 C 0.19026 0.52759 0.43988 0.0
C462 C 0.16056 0.51396 0.54856 0.0
C463 C 0.14421 0.53084 0.52872 0.0
C464 C 0.15285 0.548 0.47216 0.0
C465 C 0.17573 0.5465 0.42907 0.0
C466 C 0.08061 0.50308 0.57951 0.0
C467 C 0.0659 0.5223 0.57771 0.0
C468 C 0.10603 0.50602 0.56722 0.0
C469 C 0.11748 0.52843 0.55521 0.0
C470 C 0.10253 0.54786 0.55853 0.0
C471 C 0.07698 0.54475 0.56803 0.0
H472 H 0.04862 0.83927 0.89117 0.0
H473 H 0.96968 0.83741 0.90313 0.0
H474 H 0.05014 0.87799 0.83236 0.0
H475 H 0.9711 0.87631 0.84546 0.0
H476 H 0.99058 0.95627 0.92296 0.0
H477 H 0.98652 0.91361 0.93233 0.0
H478 H 0.03791 0.90497 0.71622 0.0
H479 H 0.04178 0.94777 0.70645 0.0
C480 C 0.03163 0.84662 0.87675 0.0
C481 C 0.00904 0.83533 0.90092 0.0
C482 C 0.03247 0.86887 0.84386 0.0
C483 C 0.01072 0.88031 0.83597 0.0
C484 C 0.98813 0.86796 0.85185 0.0
C485 C 0.9873 0.84556 0.88352 0.0
C486 C 1.00094 0.94523 0.87741 0.0
C487 C 0.01655 0.95523 0.81431 0.0
C488 C 0.9984 0.92083 0.88201 0.0
C489 C 0.01172 0.90596 0.82438 0.0
C490 C 0.02737 0.916 0.76118 0.0
C491 C 0.02962 0.94043 0.75581 0.0
H492 H 0.69258 0.03229 0.93731 0.0
H493 H 0.66593 0.96 0.94716 0.0
H494 H 0.65747 0.04072 0.85759 0.0
H495 H 0.63056 0.96836 0.86835 0.0
H496 H 0.55632 0.00782 0.88908 0.0
H497 H 0.59545 0.99376 0.92713 0.0
H498 H 0.633 0.03196 0.72603 0.0
H499 H 0.5939 0.04537 0.68668 0.0
C500 C 0.67988 0.01797 0.91825 0.0
C501 C 0.68207 0.99545 0.94675 0.0
C502 C 0.65965 0.0228 0.87352 0.0
C503 C 0.64111 0.00525 0.8581 0.0
C504 C 0.64446 0.98224 0.88023 0.0
C505 C 0.66487 0.97736 0.9239 0.0
C506 C 0.57286 0.01267 0.8519 0.0
C507 C 0.57206 0.02744 0.78468 0.0
C508 C 0.59525 1.00469 0.87353 0.0
C509 C 0.61725 0.01165 0.82897 0.0
C510 C 0.61636 0.02635 0.76144 0.0
C511 C 0.59399 0.03411 0.73938 0.0
H512 H 0.48551 0.68992 0.9708 0.0
H513 H 0.56271 0.68064 0.9235 0.0
H514 H 0.47616 0.6528 0.89153 0.0
H515 H 0.55396 0.64295 0.85105 0.0
H516 H 0.53696 0.57384 0.729 0.0
H517 H 0.54132 0.616 0.75296 0.0
H518 H 0.47555 0.61411 0.91943 0.0
H519 H 0.46966 0.57207 0.88533 0.0
C520 C 0.50044 0.6803 0.94031 0.0
C521 C 0.5248 0.68818 0.95208 0.0
C522 C 0.49517 0.65868 0.89678 0.0
C523 C 0.51421 0.64418 0.86665 0.0
C524 C 0.5386 0.65334 0.872 0.0
C525 C 0.54377 0.67519 0.91337 0.0
C526 C 0.52296 0.58256 0.76836 0.0
C527 C 0.50268 0.56969 0.80386 0.0
C528 C 0.52571 0.60685 0.78366 0.0
C529 C 0.50901 0.61889 0.83919 0.0
C530 C 0.48862 0.60586 0.87477 0.0
C531 C 0.48535 0.5816 0.85643 0.0
H532 H 0.83199 0.53403 0.94687 0.0
H533 H 0.82823 0.45889 0.9638 0.0
H534 H 0.87198 0.53224 0.87288 0.0
H535 H 0.86784 0.45661 0.88495 0.0
H536 H 0.95169 0.46732 0.89848 0.0
H537 H 0.90745 0.46533 0.92817 0.0
H538 H 0.90095 0.5229 0.76646 0.0
H539 H 0.94525 0.52603 0.74341 0.0
C540 C 0.83914 0.51695 0.93001 0.0
C541 C 0.82711 0.49662 0.96092 0.0
C542 C 0.86226 0.51585 0.88792 0.0
C543 C 0.87364 0.4943 0.8748 0.0
C544 C 0.86008 0.47361 0.89643 0.0
C545 C 0.83713 0.47479 0.9399 0.0
C546 C 0.94072 0.47948 0.86939 0.0
C547 C 0.95188 0.49673 0.81843 0.0
C548 C 0.91526 0.47816 0.88522 0.0
C549 C 0.90035 0.49389 0.84943 0.0
C550 C 0.91167 0.51069 0.79625 0.0
C551 C 0.93712 0.51233 0.7822 0.0
H552 H 0.00811 0.20034 0.14793 0.0
H553 H 0.0711 0.17164 0.24764 0.0
H554 H 0.00977 0.17136 0.02967 0.0
H555 H 0.07101 0.14097 0.13555 0.0
H556 H 0.06754 0.08515 0.92636 0.0
H557 H 0.07465 0.12286 0.00455 0.0
H558 H 0.99668 0.13308 0.01468 0.0
H559 H 0.99029 0.09655 0.93104 0.0
C560 C 0.02266 0.18818 0.14398 0.0
C561 C 0.03901 0.18794 0.20915 0.0
C562 C 0.02325 0.17106 0.07687 0.0
C563 C 0.03973 0.15289 0.07453 0.0
C564 C 0.05779 0.15433 0.13464 0.0
C565 C 0.05768 0.17187 0.20009 0.0
C566 C 0.05207 0.09569 0.9451 0.0
C567 C 0.02836 0.08794 0.92364 0.0
C568 C 0.05606 0.11731 0.99022 0.0
C569 C 0.03629 0.13132 0.01688 0.0
C570 C 0.01259 0.12339 0.99401 0.0
C571 C 0.00877 0.10217 0.947 0.0
H572 H 0.33773 1.00394 0.11847 0.0
H573 H 0.36135 0.07555 0.18765 0.0
H574 H 0.37236 1.00123 0.01385 0.0
H575 H 0.39606 0.07285 0.08351 0.0
H576 H 0.45566 0.99567 0.94988 0.0
H577 H 0.41748 1.00025 0.03565 0.0
H578 H 0.40909 0.06705 0.92956 0.0
H579 H 0.44729 0.06263 0.84411 0.0
C580 C 0.34984 0.01935 0.10913 0.0
C581 C 0.34688 0.03998 0.16087 0.0
C582 C 0.36986 0.01769 0.05031 0.0
C583 C 0.38713 0.0367 0.04166 0.0
C584 C 0.38306 0.05792 0.08872 0.0
C585 C 0.36318 0.05951 0.14807 0.0
C586 C 0.44584 0.01145 0.94545 0.0
C587 C 0.45465 0.02884 0.89054 0.0
C588 C 0.42379 0.01391 0.9937 0.0
C589 C 0.41018 0.0339 0.98858 0.0
C590 C 0.4192 0.05148 0.93488 0.0
C591 C 0.44112 0.04893 0.88607 0.0
H592 H 0.44651 0.35794 0.21753 0.0
H593 H 0.5026 0.32767 0.04862 0.0
H594 H 0.44281 0.38896 0.12005 0.0
H595 H 0.49949 0.35891 0.95218 0.0
H596 H 0.47574 0.4579 0.00997 0.0
H597 H 0.46909 0.42261 0.08946 0.0
H598 H 0.4777 0.37956 0.85617 0.0
H599 H 0.48511 0.415 0.77732 0.0
C600 C 0.45758 0.35762 0.15838 0.0
C601 C 0.47491 0.34051 0.14069 0.0
C602 C 0.45568 0.37551 0.103 0.0
C603 C 0.47123 0.37676 0.02912 0.0
C604 C 0.48712 0.35848 0.00815 0.0
C605 C 0.48887 0.34048 0.0633 0.0
C606 C 0.47598 0.44088 0.9758 0.0
C607 C 0.48112 0.43913 0.88783 0.0
C608 C 0.47195 0.42062 0.02111 0.0
C609 C 0.47283 0.39816 0.97926 0.0
C610 C 0.47718 0.39653 0.89059 0.0
C611 C 0.48134 0.41681 0.84539 0.0
H612 H 0.17636 0.46836 0.19369 0.0
H613 H 0.20544 0.53119 0.07716 0.0
H614 H 0.14383 0.46427 0.09393 0.0
H615 H 0.17266 0.5275 0.97838 0.0
H616 H 0.11369 0.50981 0.78998 0.0
H617 H 0.15128 0.50669 0.86388 0.0
H618 H 0.10793 0.48667 0.08809 0.0
H619 H 0.07056 0.48932 0.01354 0.0
C620 C 0.17617 0.48089 0.14495 0.0
C621 C 0.19332 0.50012 0.14322 0.0
C622 C 0.15739 0.47874 0.08853 0.0
C623 C 0.15527 0.49588 0.02953 0.0
C624 C 0.17375 0.51395 0.02286 0.0
C625 C 0.19264 0.51602 0.07915 0.0
C626 C 0.11229 0.50466 0.85501 0.0
C627 C 0.08926 0.49989 0.89636 0.0
C628 C 0.13379 0.50289 0.89731 0.0
C629 C 0.13268 0.49628 0.98176 0.0
C630 C 0.10954 0.49133 0.02254 0.0
C631 C 0.08808 0.49308 0.98024 0.0
H632 H 0.04714 0.84153 0.18102 0.0
H633 H 0.97242 0.81846 0.24859 0.0
H634 H 0.04508 0.87267 0.29362 0.0
H635 H 0.97059 0.84941 0.36248 0.0
H636 H 0.98721 0.90642 0.58758 0.0
H637 H 0.99134 0.86918 0.50258 0.0
H638 H 0.01621 0.90784 0.28452 0.0
H639 H 0.01166 0.94478 0.36822 0.0
C640 C 0.0306 0.84259 0.22198 0.0
C641 C 0.00983 0.82781 0.20532 0.0
C642 C 0.02939 0.86045 0.286 0.0
C643 C 0.00752 0.86365 0.33523 0.0
C644 C 0.98765 0.84727 0.32513 0.0
C645 C 0.98877 0.82948 0.26035 0.0
C646 C 0.99329 0.90685 0.52119 0.0
C647 C 0.99903 0.92839 0.4841 0.0
C648 C 0.99574 0.88563 0.47295 0.0
C649 C 1.00447 0.88573 0.38766 0.0
C650 C 0.00987 0.90731 0.35065 0.0
C651 C 0.00703 0.92843 0.39824 0.0
H652 H 0.67717 0.9596 0.2831 0.0
H653 H 0.67513 0.0335 0.24345 0.0
H654 H 0.64261 0.96259 0.38772 0.0
H655 H 0.64105 0.03679 0.3495 0.0
H656 H 0.5603 0.02636 0.43343 0.0
H657 H 0.59847 0.02395 0.34686 0.0
H658 H 0.62574 0.97806 0.52297 0.0
H659 H 0.58736 0.97997 0.60842 0.0
C660 C 0.66993 0.97667 0.29945 0.0
C661 C 0.67871 0.99632 0.25543 0.0
C662 C 0.65004 0.97839 0.35895 0.0
C663 C 0.63869 0.99984 0.37558 0.0
C664 C 0.64891 0.01988 0.33647 0.0
C665 C 0.66864 0.01811 0.27674 0.0
C666 C 0.57434 0.01561 0.45335 0.0
C667 C 0.57064 1.00323 0.52749 0.0
C668 C 0.59637 0.01444 0.40427 0.0
C669 C 0.61533 1.00102 0.42848 0.0
C670 C 0.61149 0.98841 0.5021 0.0
C671 C 0.58941 0.98947 0.55096 0.0
H672 H 0.4987 0.68711 0.26784 0.0
H673 H 0.57772 0.69268 0.25279 0.0
H674 H 0.49924 0.65621 0.36748 0.0
H675 H 0.5784 0.6617 0.3532 0.0
H676 H 0.56376 0.58122 0.4049 0.0
H677 H 0.56728 0.61851 0.3348 0.0
H678 H 0.51033 0.64561 0.50846 0.0
H679 H 0.50666 0.60845 0.57736 0.0
C680 C 0.51615 0.68224 0.28839 0.0
C681 C 0.53814 0.69226 0.25315 0.0
C682 C 0.51651 0.66453 0.34526 0.0
C683 C 0.53889 0.65635 0.36737 0.0
C684 C 0.56091 0.66748 0.33644 0.0
C685 C 0.56052 0.68541 0.28008 0.0
C686 C 0.5522 0.59526 0.42825 0.0
C687 C 0.53472 0.5919 0.49547 0.0
C688 C 0.55433 0.61665 0.38879 0.0
C689 C 0.53899 0.63495 0.41604 0.0
C690 C 0.52218 0.63176 0.48545 0.0
C691 C 0.52008 0.61047 0.52476 0.0
H692 H 0.8202 0.54178 0.28885 0.0
H693 H 0.82645 0.46669 0.26114 0.0
H694 H 0.85311 0.5449 0.38768 0.0
H695 H 0.85931 0.46973 0.35982 0.0
H696 H 0.91091 0.4829 0.57511 0.0
H697 H 0.87177 0.48126 0.50781 0.0
H698 H 0.89821 0.53857 0.35484 0.0
H699 H 0.93743 0.54017 0.42226 0.0
C700 C 0.82795 0.52586 0.30664 0.0
C701 C 0.8208 0.50398 0.26776 0.0
C702 C 0.847 0.52768 0.36211 0.0
C703 C 0.859 0.50761 0.38033 0.0
C704 C 0.85036 0.48549 0.34717 0.0
C705 C 0.83152 0.48371 0.29098 0.0
C706 C 0.90832 0.49517 0.52716 0.0
C707 C 0.92722 0.51152 0.50308 0.0
C708 C 0.88592 0.49424 0.48886 0.0
C709 C 0.88191 0.50983 0.42641 0.0
C710 C 0.90067 0.52655 0.40371 0.0
C711 C 0.92318 0.52733 0.44155 0.0
loop_
_geom_bond_atom_site_label_1
_geom_bond_atom_site_label_2
_geom_bond_distance
_geom_bond_site_symmetry_2
_ccdc_geom_bond_type
H0 C1 0.949 1_556 S
C1 H0 0.949 1_554 S
C1 C2 1.395 . S
C1 C3 1.391 . S
C2 C1 1.395 . S
C2 C5 1.390 . S
C3 C1 1.391 . S
C3 C7 1.387 . S
C3 C8 1.491 . S
H4 C5 0.950 . S
C5 C2 1.390 . S
C5 H4 0.950 . S
C5 C6 1.378 . S
C6 C5 1.378 . S
C6 C7 1.409 . S
C7 C3 1.387 . S
C7 C6 1.409 . S
C7 H9 0.951 . S
C8 C3 1.491 . S
C8 C10 1.382 . S
C8 C12 1.404 . S
H9 C7 0.951 . S
C10 C8 1.382 . S
C10 C11 1.390 . S
C10 H15 0.949 1_554 S
C11 C10 1.390 . S
C11 C16 1.399 . S
C12 C8 1.404 . S
C12 H13 0.950 . S
C12 C14 1.375 . S
H13 C12 0.950 . S
C14 C12 1.375 . S
C14 C16 1.382 . S
C14 H18 0.950 . S
H15 C10 0.949 1_556 S
C16 C11 1.399 . S
C16 C14 1.382 . S
C16 H17 0.952 . S
H17 C16 0.952 . S
H18 C14 0.950 . S
H19 C20 0.949 . S
C20 H19 0.949 . S
C20 C21 1.395 . S
C20 C22 1.391 1_556 S
C21 C20 1.395 . S
C21 C24 1.390 1_556 S
C22 C20 1.391 1_554 S
C22 C26 1.387 . S
C22 C27 1.491 . S
H23 C24 0.950 . S
C24 C21 1.390 1_554 S
C24 H23 0.950 . S
C24 C25 1.378 . S
C25 C24 1.378 . S
C25 C26 1.409 . S
C26 C22 1.387 . S
C26 C25 1.409 . S
C26 H28 0.951 . S
C27 C22 1.491 . S
C27 C29 1.382 1_554 S
C27 C31 1.404 . S
H28 C26 0.951 . S
C29 C27 1.382 1_556 S
C29 C30 1.390 . S
C29 H34 0.949 . S
C30 C29 1.390 . S
C30 C35 1.399 1_556 S
C31 C27 1.404 . S
C31 H32 0.950 . S
C31 C33 1.375 . S
H32 C31 0.950 . S
C33 C31 1.375 . S
C33 C35 1.382 . S
C33 H37 0.950 . S
H34 C29 0.949 . S
C35 C30 1.399 1_554 S
C35 C33 1.382 . S
C35 H36 0.952 . S
H36 C35 0.952 . S
H37 C33 0.950 . S
H38 C39 0.949 1_556 S
C39 H38 0.949 1_554 S
C39 C40 1.395 . S
C39 C41 1.391 . S
C40 C39 1.395 . S
C40 C43 1.390 . S
C41 C39 1.391 . S
C41 C45 1.387 . S
C41 C46 1.491 . S
H42 C43 0.950 . S
C43 C40 1.390 . S
C43 H42 0.950 . S
C43 C44 1.378 . S
C44 C43 1.378 . S
C44 C45 1.409 . S
C45 C41 1.387 . S
C45 C44 1.409 . S
C45 H47 0.951 . S
C46 C41 1.491 . S
C46 C48 1.382 . S
C46 C50 1.404 . S
H47 C45 0.951 . S
C48 C46 1.382 . S
C48 C49 1.390 . S
C48 H53 0.949 1_554 S
C49 C48 1.390 . S
C49 C54 1.399 . S
C50 C46 1.404 . S
C50 H51 0.950 . S
C50 C52 1.375 . S
H51 C50 0.950 . S
C52 C50 1.375 . S
C52 C54 1.382 . S
C52 H56 0.950 . S
H53 C48 0.949 1_556 S
C54 C49 1.399 . S
C54 C52 1.382 . S
C54 H55 0.952 . S
H55 C54 0.952 . S
H56 C52 0.950 . S
H57 C58 0.949 1_556 S
C58 H57 0.949 1_554 S
C58 C59 1.395 . S
C58 C60 1.391 . S
C59 C58 1.395 . S
C59 C62 1.390 . S
C60 C58 1.391 . S
C60 C64 1.387 . S
C60 C65 1.491 . S
H61 C62 0.950 . S
C62 C59 1.390 . S
C62 H61 0.950 . S
C62 C63 1.378 . S
C63 C62 1.378 . S
C63 C64 1.409 . S
C64 C60 1.387 . S
C64 C63 1.409 . S
C64 H66 0.951 . S
C65 C60 1.491 . S
C65 C67 1.382 . S
C65 C69 1.404 . S
H66 C64 0.951 . S
C67 C65 1.382 . S
C67 C68 1.390 . S
C67 H72 0.949 . S
C68 C67 1.390 . S
C68 C73 1.399 . S
C69 C65 1.404 . S
C69 H70 0.950 . S
C69 C71 1.375 . S
H70 C69 0.950 . S
C71 C69 1.375 . S
C71 C73 1.382 . S
C71 H75 0.950 . S
H72 C67 0.949 . S
C73 C68 1.399 . S
C73 C71 1.382 . S
C73 H74 0.952 . S
H74 C73 0.952 . S
H75 C71 0.950 . S
H76 C77 0.949 . S
C77 H76 0.949 . S
C77 C78 1.395 . S
C77 C79 1.391 . S
C78 C77 1.395 . S
C78 C81 1.390 . S
C79 C77 1.391 . S
C79 C83 1.387 . S
C79 C84 1.491 . S
H80 C81 0.950 . S
C81 C78 1.390 . S
C81 H80 0.950 . S
C81 C82 1.378 . S
C82 C81 1.378 . S
C82 C83 1.409 . S
C83 C79 1.387 . S
C83 C82 1.409 . S
C83 H85 0.951 . S
C84 C79 1.491 . S
C84 C86 1.382 . S
C84 C88 1.404 . S
H85 C83 0.951 . S
C86 C84 1.382 . S
C86 C87 1.390 . S
C86 H91 0.949 . S
C87 C86 1.390 . S
C87 C92 1.399 . S
C88 C84 1.404 . S
C88 H89 0.950 . S
C88 C90 1.375 . S
H89 C88 0.950 . S
C90 C88 1.375 . S
C90 C92 1.382 . S
C90 H94 0.950 . S
H91 C86 0.949 . S
C92 C87 1.399 . S
C92 C90 1.382 . S
C92 H93 0.952 . S
H93 C92 0.952 . S
H94 C90 0.950 . S
H95 C96 0.949 . S
C96 H95 0.949 . S
C96 C97 1.395 . S
C96 C98 1.391 . S
C97 C96 1.395 . S
C97 C100 1.390 . S
C98 C96 1.391 . S
C98 C102 1.387 . S
C98 C103 1.491 . S
H99 C100 0.950 . S
C100 C97 1.390 . S
C100 H99 0.950 . S
C100 C101 1.378 . S
C101 C100 1.378 . S
C101 C102 1.409 . S
C102 C98 1.387 . S
C102 C101 1.409 . S
C102 H104 0.951 . S
C103 C98 1.491 . S
C103 C105 1.382 . S
C103 C107 1.404 . S
H104 C102 0.951 . S
C105 C103 1.382 . S
C105 C106 1.390 . S
C105 H110 0.949 . S
C106 C105 1.390 . S
C106 C111 1.399 . S
C107 C103 1.404 . S
C107 H108 0.950 . S
C107 C109 1.375 . S
H108 C107 0.950 . S
C109 C107 1.375 . S
C109 C111 1.382 . S
C109 H113 0.942 1_455 S
H110 C105 0.949 . S
C111 C106 1.399 . S
C111 C109 1.382 . S
C111 H112 0.952 . S
H112 C111 0.952 . S
H113 C109 0.942 1_655 S
H114 C115 0.949 . S
C115 H114 0.949 . S
C115 C116 1.395 . S
C115 C117 1.391 . S
C116 C115 1.395 . S
C116 C119 1.390 . S
C117 C115 1.391 . S
C117 C121 1.387 . S
C117 C122 1.491 . S
H118 C119 0.950 . S
C119 C116 1.390 . S
C119 H118 0.950 . S
C119 C120 1.378 . S
C120 C119 1.378 . S
C120 C121 1.409 . S
C121 C117 1.387 . S
C121 C120 1.409 . S
C121 H123 0.951 . S
C122 C117 1.491 . S
C122 C124 1.382 . S
C122 C126 1.404 . S
H123 C121 0.951 . S
C124 C122 1.382 . S
C124 C125 1.390 . S
C124 H129 0.949 . S
C125 C124 1.390 . S
C125 C130 1.399 . S
C126 C122 1.404 . S
C126 H127 0.950 . S
C126 C128 1.375 . S
H127 C126 0.950 . S
C128 C126 1.375 . S
C128 C130 1.382 . S
C128 H132 0.950 . S
H129 C124 0.949 . S
C130 C125 1.399 . S
C130 C128 1.382 . S
C130 H131 0.952 . S
H131 C130 0.952 . S
H132 C128 0.950 . S
H133 C134 0.949 . S
C134 H133 0.949 . S
C134 C135 1.395 . S
C134 C136 1.391 . S
C135 C134 1.395 . S
C135 C138 1.390 . S
C136 C134 1.391 . S
C136 C140 1.387 . S
C136 C141 1.491 . S
H137 C138 0.950 . S
C138 C135 1.390 . S
C138 H137 0.950 . S
C138 C139 1.378 . S
C139 C138 1.378 . S
C139 C140 1.409 . S
C140 C136 1.387 . S
C140 C139 1.409 . S
C140 H142 0.951 . S
C141 C136 1.491 . S
C141 C143 1.382 . S
C141 C145 1.404 . S
H142 C140 0.951 . S
C143 C141 1.382 . S
C143 C144 1.390 . S
C143 H148 0.949 . S
C144 C143 1.390 . S
C144 C149 1.399 . S
C145 C141 1.404 . S
C145 H146 0.950 . S
C145 C147 1.375 . S
H146 C145 0.950 . S
C147 C145 1.375 . S
C147 C149 1.382 . S
C147 H151 0.950 . S
H148 C143 0.949 . S
C149 C144 1.399 . S
C149 C147 1.382 . S
C149 H150 0.952 . S
H150 C149 0.952 . S
H151 C147 0.950 . S
Tb152 O155 2.453 1_565 S
Tb152 O156 2.596 1_665 S
Tb152 O157 2.374 1_665 S
Tb152 O165 2.343 1_655 S
Tb152 O167 2.353 1_565 S
Tb152 O169 2.427 . S
Tb152 O170 2.513 1_655 S
C153 O157 1.251 . S
C153 O159 1.263 . S
Tb154 O156 2.343 . S
Tb154 O159 2.353 . S
Tb154 O162 2.427 . S
Tb154 O163 2.513 1_455 S
Tb154 O164 2.453 1_545 S
Tb154 O165 2.596 1_545 S
Tb154 O166 2.374 1_455 S
O155 Tb152 2.453 1_545 S
O155 C171 1.245 1_655 S
O156 Tb152 2.596 1_445 S
O156 Tb154 2.343 . S
O156 C171 1.259 . S
O157 Tb152 2.374 1_445 S
O157 C153 1.251 . S
C158 O162 1.275 . S
C158 O163 1.246 1_455 S
O159 C153 1.263 . S
O159 Tb154 2.353 . S
C160 O164 1.245 . S
C160 O165 1.259 . S
C161 O166 1.250 . S
C161 O167 1.263 . S
O162 Tb154 2.427 . S
O162 C158 1.275 . S
O163 Tb154 2.513 1_655 S
O163 C158 1.246 1_655 S
O164 Tb154 2.453 1_565 S
O164 C160 1.245 . S
O165 Tb152 2.343 1_455 S
O165 Tb154 2.596 1_565 S
O165 C160 1.259 . S
O166 Tb154 2.374 1_655 S
O166 C161 1.250 . S
O167 Tb152 2.353 1_545 S
O167 C161 1.263 . S
C168 O169 1.275 . S
C168 O170 1.246 1_655 S
O169 Tb152 2.427 . S
O169 C168 1.275 . S
O170 Tb152 2.513 1_455 S
O170 C168 1.246 1_455 S
C171 O155 1.245 1_455 S
C171 O156 1.259 . S
Tb172 O175 2.453 . S
Tb172 O176 2.596 1_545 S
Tb172 O177 2.374 . S
Tb172 O185 2.343 . S
Tb172 O187 2.353 . S
Tb172 O189 2.427 . S
Tb172 O190 2.513 . S
C173 O177 1.251 1_565 S
C173 O179 1.263 . S
Tb174 O176 2.343 . S
Tb174 O179 2.353 . S
Tb174 O182 2.427 . S
Tb174 O183 2.513 . S
Tb174 O184 2.453 . S
Tb174 O185 2.596 1_565 S
Tb174 O186 2.374 . S
O175 Tb172 2.453 . S
O175 C191 1.245 . S
O176 Tb172 2.596 1_565 S
O176 Tb174 2.343 . S
O176 C191 1.259 1_565 S
O177 Tb172 2.374 . S
O177 C173 1.251 1_545 S
C178 O182 1.275 . S
C178 O183 1.246 . S
O179 C173 1.263 . S
O179 Tb174 2.353 . S
C180 O184 1.245 1_545 S
C180 O185 1.259 . S
C181 O186 1.250 1_545 S
C181 O187 1.263 . S
O182 Tb174 2.427 . S
O182 C178 1.275 . S
O183 Tb174 2.513 . S
O183 C178 1.246 . S
O184 Tb174 2.453 . S
O184 C180 1.245 1_565 S
O185 Tb172 2.343 . S
O185 Tb174 2.596 1_545 S
O185 C180 1.259 . S
O186 Tb174 2.374 . S
O186 C181 1.250 1_565 S
O187 Tb172 2.353 . S
O187 C181 1.263 . S
C188 O189 1.275 . S
C188 O190 1.246 . S
O189 Tb172 2.427 . S
O189 C188 1.275 . S
O190 Tb172 2.513 . S
O190 C188 1.246 . S
C191 O175 1.245 . S
C191 O176 1.259 1_545 S
Tb192 O195 2.453 . S
Tb192 O196 2.596 . S
Tb192 O197 2.374 . S
Tb192 O205 2.343 . S
Tb192 O207 2.353 . S
Tb192 O209 2.427 . S
Tb192 O210 2.513 . S
C193 O197 1.251 . S
C193 O199 1.263 . S
Tb194 O196 2.343 . S
Tb194 O199 2.353 . S
Tb194 O202 2.427 . S
Tb194 O203 2.513 . S
Tb194 O204 2.453 . S
Tb194 O205 2.596 . S
Tb194 O206 2.374 . S
O195 Tb192 2.453 . S
O195 C211 1.245 . S
O196 Tb192 2.596 . S
O196 Tb194 2.343 . S
O196 C211 1.259 . S
O197 Tb192 2.374 . S
O197 C193 1.251 . S
C198 O202 1.275 . S
C198 O203 1.246 . S
O199 C193 1.263 . S
O199 Tb194 2.353 . S
C200 O204 1.245 . S
C200 O205 1.259 . S
C201 O206 1.250 . S
C201 O207 1.263 . S
O202 Tb194 2.427 . S
O202 C198 1.275 . S
O203 Tb194 2.513 . S
O203 C198 1.246 . S
O204 Tb194 2.453 . S
O204 C200 1.245 . S
O205 Tb192 2.343 . S
O205 Tb194 2.596 . S
O205 C200 1.259 . S
O206 Tb194 2.374 . S
O206 C201 1.250 . S
O207 Tb192 2.353 . S
O207 C201 1.263 . S
C208 O209 1.275 . S
C208 O210 1.246 . S
O209 Tb192 2.427 . S
O209 C208 1.275 . S
O210 Tb192 2.513 . S
O210 C208 1.246 . S
C211 O195 1.245 . S
C211 O196 1.259 . S
Tb212 O215 2.453 1_655 S
Tb212 O216 2.596 1_655 S
Tb212 O217 2.371 1_655 S
Tb212 O225 2.343 . S
Tb212 O227 2.353 1_655 S
Tb212 O229 2.427 . S
Tb212 O230 2.513 . S
C213 O217 1.261 . S
C213 O219 1.263 . S
Tb214 O216 2.343 . S
Tb214 O219 2.353 . S
Tb214 O222 2.427 . S
Tb214 O223 2.513 . S
Tb214 O224 2.453 1_455 S
Tb214 O225 2.596 1_455 S
Tb214 O226 2.374 . S
O215 Tb212 2.453 1_455 S
O215 C231 1.245 . S
O216 Tb212 2.596 1_455 S
O216 Tb214 2.343 . S
O216 C231 1.259 . S
O217 Tb212 2.371 1_455 S
O217 C213 1.261 . S
C218 O222 1.275 . S
C218 O223 1.246 . S
O219 C213 1.263 . S
O219 Tb214 2.353 . S
C220 O224 1.245 . S
C220 O225 1.259 . S
C221 O226 1.250 . S
C221 O227 1.263 . S
O222 Tb214 2.427 . S
O222 C218 1.275 . S
O223 Tb214 2.513 . S
O223 C218 1.246 . S
O224 Tb214 2.453 1_655 S
O224 C220 1.245 . S
O225 Tb212 2.343 . S
O225 Tb214 2.596 1_655 S
O225 C220 1.259 . S
O226 Tb214 2.374 . S
O226 C221 1.250 . S
O227 Tb212 2.353 1_455 S
O227 C221 1.263 . S
C228 O229 1.275 . S
C228 O230 1.246 . S
O229 Tb212 2.427 . S
O229 C228 1.275 . S
O230 Tb212 2.513 . S
O230 C228 1.246 . S
C231 O215 1.245 . S
C231 O216 1.259 . S
H232 C240 0.950 . S
H233 C245 0.950 . S
H234 C242 0.950 . S
H235 C244 0.950 . S
H236 C246 0.950 . S
H237 C248 0.950 . S
H238 C250 0.950 . S
H239 C251 0.950 . S
C240 H232 0.950 . S
C240 C241 1.386 . S
C240 C242 1.391 . S
C241 C240 1.386 . S
C241 C245 1.393 . S
C242 H234 0.950 . S
C242 C240 1.391 . S
C242 C243 1.400 . S
C243 C242 1.400 . S
C243 C244 1.398 . S
C243 C249 1.491 . S
C244 H235 0.950 . S
C244 C243 1.398 . S
C244 C245 1.391 . S
C245 H233 0.950 . S
C245 C241 1.393 . S
C245 C244 1.391 . S
C246 H236 0.950 . S
C246 C247 1.386 . S
C246 C248 1.391 . S
C247 C246 1.386 . S
C247 C251 1.393 . S
C248 H237 0.950 . S
C248 C246 1.391 . S
C248 C249 1.400 . S
C249 C243 1.491 . S
C249 C248 1.400 . S
C249 C250 1.398 . S
C250 H238 0.950 . S
C250 C249 1.398 . S
C250 C251 1.391 . S
C251 H239 0.950 . S
C251 C247 1.393 . S
C251 C250 1.391 . S
H252 C260 0.950 . S
H253 C265 0.950 . S
H254 C262 0.950 . S
H255 C264 0.950 . S
H256 C266 0.950 . S
H257 C268 0.950 . S
H258 C270 0.950 . S
H259 C271 0.950 . S
C260 H252 0.950 . S
C260 C261 1.386 . S
C260 C262 1.391 . S
C261 C260 1.386 . S
C261 C265 1.393 . S
C262 H254 0.950 . S
C262 C260 1.391 . S
C262 C263 1.400 . S
C263 C262 1.400 . S
C263 C264 1.398 . S
C263 C269 1.491 . S
C264 H255 0.950 . S
C264 C263 1.398 . S
C264 C265 1.391 . S
C265 H253 0.950 . S
C265 C261 1.393 . S
C265 C264 1.391 . S
C266 H256 0.950 . S
C266 C267 1.386 . S
C266 C268 1.391 . S
C267 C266 1.386 . S
C267 C271 1.393 . S
C268 H257 0.950 . S
C268 C266 1.391 . S
C268 C269 1.400 . S
C269 C263 1.491 . S
C269 C268 1.400 . S
C269 C270 1.398 . S
C270 H258 0.950 . S
C270 C269 1.398 . S
C270 C271 1.391 . S
C271 H259 0.950 . S
C271 C267 1.393 . S
C271 C270 1.391 . S
H272 C280 0.950 . S
H273 C285 0.950 . S
H274 C282 0.950 . S
H275 C284 0.950 . S
H276 C286 0.950 . S
H277 C288 0.950 . S
H278 C290 0.950 . S
H279 C291 0.950 . S
C280 H272 0.950 . S
C280 C281 1.386 . S
C280 C282 1.391 . S
C281 C280 1.386 . S
C281 C285 1.393 . S
C282 H274 0.950 . S
C282 C280 1.391 . S
C282 C283 1.400 . S
C283 C282 1.400 . S
C283 C284 1.398 . S
C283 C289 1.491 . S
C284 H275 0.950 . S
C284 C283 1.398 . S
C284 C285 1.391 . S
C285 H273 0.950 . S
C285 C281 1.393 . S
C285 C284 1.391 . S
C286 H276 0.950 . S
C286 C287 1.386 . S
C286 C288 1.391 . S
C287 C286 1.386 . S
C287 C291 1.393 . S
C288 H277 0.950 . S
C288 C286 1.391 . S
C288 C289 1.400 . S
C289 C283 1.491 . S
C289 C288 1.400 . S
C289 C290 1.398 . S
C290 H278 0.950 . S
C290 C289 1.398 . S
C290 C291 1.391 . S
C291 H279 0.950 . S
C291 C287 1.393 . S
C291 C290 1.391 . S
H292 C300 0.950 . S
H293 C305 0.950 . S
H294 C302 0.950 . S
H295 C304 0.950 . S
H296 C306 0.950 . S
H297 C308 0.950 . S
H298 C310 0.950 . S
H299 C311 0.950 . S
C300 H292 0.950 . S
C300 C301 1.386 . S
C300 C302 1.391 . S
C301 C300 1.386 . S
C301 C305 1.393 . S
C302 H294 0.950 . S
C302 C300 1.391 . S
C302 C303 1.400 . S
C303 C302 1.400 . S
C303 C304 1.398 . S
C303 C309 1.491 . S
C304 H295 0.950 . S
C304 C303 1.398 . S
C304 C305 1.391 . S
C305 H293 0.950 . S
C305 C301 1.393 . S
C305 C304 1.391 . S
C306 H296 0.950 . S
C306 C307 1.386 . S
C306 C308 1.391 . S
C307 C306 1.386 . S
C307 C311 1.393 . S
C308 H297 0.950 . S
C308 C306 1.391 . S
C308 C309 1.400 . S
C309 C303 1.491 . S
C309 C308 1.400 . S
C309 C310 1.398 . S
C310 H298 0.950 . S
C310 C309 1.398 . S
C310 C311 1.391 . S
C311 H299 0.950 . S
C311 C307 1.393 . S
C311 C310 1.391 . S
H312 C320 0.947 1_554 S
H313 C325 0.950 . S
H314 C322 0.950 1_554 S
H315 C324 0.950 . S
H316 C326 0.950 . S
H317 C328 0.950 . S
H318 C330 0.950 1_545 S
H319 C331 0.950 . S
C320 H312 0.947 1_556 S
C320 C321 1.387 . S
C320 C322 1.392 . S
C321 C320 1.387 . S
C321 C325 1.393 . S
C322 H314 0.950 1_556 S
C322 C320 1.392 . S
C322 C323 1.400 . S
C323 C322 1.400 . S
C323 C324 1.398 . S
C323 C329 1.491 . S
C324 H315 0.950 . S
C324 C323 1.398 . S
C324 C325 1.391 . S
C325 H313 0.950 . S
C325 C321 1.393 . S
C325 C324 1.391 . S
C326 H316 0.950 . S
C326 C327 1.386 . S
C326 C328 1.391 . S
C327 C326 1.386 . S
C327 C331 1.393 1_565 S
C328 H317 0.950 . S
C328 C326 1.391 . S
C328 C329 1.400 . S
C329 C323 1.491 . S
C329 C328 1.400 . S
C329 C330 1.398 . S
C330 H318 0.950 1_565 S
C330 C329 1.398 . S
C330 C331 1.391 1_565 S
C331 H319 0.950 . S
C331 C327 1.393 1_545 S
C331 C330 1.391 1_545 S
H332 C340 0.950 . S
H333 C345 0.950 . S
H334 C342 0.950 . S
H335 C344 0.950 . S
H336 C346 0.950 . S
H337 C348 0.950 . S
H338 C350 0.950 . S
H339 C351 0.950 . S
C340 H332 0.950 . S
C340 C341 1.386 . S
C340 C342 1.391 . S
C341 C340 1.386 . S
C341 C345 1.393 1_556 S
C342 H334 0.950 . S
C342 C340 1.391 . S
C342 C343 1.400 . S
C343 C342 1.400 . S
C343 C344 1.398 1_556 S
C343 C349 1.491 . S
C344 H335 0.950 . S
C344 C343 1.398 1_554 S
C344 C345 1.391 . S
C345 H333 0.950 . S
C345 C341 1.393 1_554 S
C345 C344 1.391 . S
C346 H336 0.950 . S
C346 C347 1.386 . S
C346 C348 1.391 . S
C347 C346 1.386 . S
C347 C351 1.393 . S
C348 H337 0.950 . S
C348 C346 1.391 . S
C348 C349 1.400 . S
C349 C343 1.491 . S
C349 C348 1.400 . S
C349 C350 1.398 . S
C350 H338 0.950 . S
C350 C349 1.398 . S
C350 C351 1.391 . S
C351 H339 0.950 . S
C351 C347 1.393 . S
C351 C350 1.391 . S
H352 C360 0.950 1_554 S
H353 C365 0.950 . S
H354 C362 0.950 . S
H355 C364 0.950 . S
H356 C366 0.950 . S
H357 C368 0.950 . S
H358 C370 0.950 . S
H359 C371 0.950 . S
C360 H352 0.950 1_556 S
C360 C361 1.386 . S
C360 C362 1.391 . S
C361 C360 1.386 . S
C361 C365 1.393 . S
C362 H354 0.950 . S
C362 C360 1.391 . S
C362 C363 1.400 . S
C363 C362 1.400 . S
C363 C364 1.398 . S
C363 C369 1.491 . S
C364 H355 0.950 . S
C364 C363 1.398 . S
C364 C365 1.391 . S
C365 H353 0.950 . S
C365 C361 1.393 . S
C365 C364 1.391 . S
C366 H356 0.950 . S
C366 C367 1.386 . S
C366 C368 1.391 . S
C367 C366 1.386 . S
C367 C371 1.393 . S
C368 H357 0.950 . S
C368 C366 1.391 . S
C368 C369 1.400 . S
C369 C363 1.491 . S
C369 C368 1.400 . S
C369 C370 1.398 . S
C370 H358 0.950 . S
C370 C369 1.398 . S
C370 C371 1.391 . S
C371 H359 0.950 . S
C371 C367 1.393 . S
C371 C370 1.391 . S
H372 C380 0.950 1_554 S
H373 C385 0.950 . S
H374 C382 0.950 . S
H375 C384 0.950 . S
H376 C386 0.950 . S
H377 C388 0.950 . S
H378 C390 0.950 . S
H379 C391 0.942 1_455 S
C380 H372 0.950 1_556 S
C380 C381 1.386 . S
C380 C382 1.391 . S
C381 C380 1.386 . S
C381 C385 1.393 . S
C382 H374 0.950 . S
C382 C380 1.391 . S
C382 C383 1.400 . S
C383 C382 1.400 . S
C383 C384 1.398 . S
C383 C389 1.491 . S
C384 H375 0.950 . S
C384 C383 1.398 . S
C384 C385 1.391 . S
C385 H373 0.950 . S
C385 C381 1.393 . S
C385 C384 1.391 . S
C386 H376 0.950 . S
C386 C387 1.386 . S
C386 C388 1.391 . S
C387 C386 1.386 . S
C387 C391 1.396 . S
C388 H377 0.950 . S
C388 C386 1.391 . S
C388 C389 1.400 . S
C389 C383 1.491 . S
C389 C388 1.400 . S
C389 C390 1.398 . S
C390 H378 0.950 . S
C390 C389 1.398 . S
C390 C391 1.396 . S
C391 H379 0.942 1_655 S
C391 C387 1.396 . S
C391 C390 1.396 . S
H392 C400 0.950 . S
H393 C405 0.950 . S
H394 C402 0.950 . S
H395 C404 0.950 . S
H396 C406 0.974 . S
H397 C408 0.950 1_655 S
H398 C410 0.950 . S
H399 C411 0.950 . S
C400 H392 0.950 . S
C400 C401 1.386 . S
C400 C402 1.391 . S
C401 C400 1.386 . S
C401 C405 1.393 . S
C402 H394 0.950 . S
C402 C400 1.391 . S
C402 C403 1.400 . S
C403 C402 1.400 . S
C403 C404 1.398 . S
C403 C409 1.491 . S
C404 H395 0.950 . S
C404 C403 1.398 . S
C404 C405 1.391 . S
C405 H393 0.950 . S
C405 C401 1.393 . S
C405 C404 1.391 . S
C406 H396 0.974 . S
C406 C407 1.367 1_655 S
C406 C408 1.387 1_655 S
C407 C406 1.367 1_455 S
C407 C411 1.393 . S
C408 H397 0.950 1_455 S
C408 C406 1.387 1_455 S
C408 C409 1.400 . S
C409 C403 1.491 . S
C409 C408 1.400 . S
C409 C410 1.398 . S
C410 H398 0.950 . S
C410 C409 1.398 . S
C410 C411 1.391 . S
C411 H399 0.950 . S
C411 C407 1.393 . S
C411 C410 1.391 . S
H412 C420 0.950 . S
H413 C425 0.950 . S
H414 C422 0.950 . S
H415 C424 0.950 . S
H416 C426 0.950 . S
H417 C428 0.950 . S
H418 C430 0.950 1_565 S
H419 C431 0.923 1_565 S
C420 H412 0.950 . S
C420 C421 1.386 . S
C420 C422 1.391 . S
C421 C420 1.386 . S
C421 C425 1.393 . S
C422 H414 0.950 . S
C422 C420 1.391 . S
C422 C423 1.400 . S
C423 C422 1.400 . S
C423 C424 1.398 . S
C423 C429 1.491 . S
C424 H415 0.950 . S
C424 C423 1.398 . S
C424 C425 1.391 . S
C425 H413 0.950 . S
C425 C421 1.393 . S
C425 C424 1.391 . S
C426 H416 0.950 . S
C426 C427 1.386 . S
C426 C428 1.391 . S
C427 C426 1.386 . S
C427 C431 1.411 . S
C428 H417 0.950 . S
C428 C426 1.391 . S
C428 C429 1.400 . S
C429 C423 1.491 . S
C429 C428 1.400 . S
C429 C430 1.398 . S
C430 H418 0.950 1_545 S
C430 C429 1.398 . S
C430 C431 1.400 . S
C431 H419 0.923 1_545 S
C431 C427 1.411 . S
C431 C430 1.400 . S
H432 C440 0.950 . S
H433 C445 0.950 . S
H434 C442 0.950 . S
H435 C444 0.950 . S
H436 C446 0.950 . S
H437 C448 0.950 . S
H438 C450 0.950 . S
H439 C451 0.950 . S
C440 H432 0.950 . S
C440 C441 1.386 . S
C440 C442 1.391 . S
C441 C440 1.386 . S
C441 C445 1.393 . S
C442 H434 0.950 . S
C442 C440 1.391 . S
C442 C443 1.400 . S
C443 C442 1.400 . S
C443 C444 1.398 . S
C443 C449 1.491 . S
C444 H435 0.950 . S
C444 C443 1.398 . S
C444 C445 1.391 . S
C445 H433 0.950 . S
C445 C441 1.393 . S
C445 C444 1.391 . S
C446 H436 0.950 . S
C446 C447 1.386 . S
C446 C448 1.391 . S
C447 C446 1.386 . S
C447 C451 1.393 . S
C448 H437 0.950 . S
C448 C446 1.391 . S
C448 C449 1.400 . S
C449 C443 1.491 . S
C449 C448 1.400 . S
C449 C450 1.398 . S
C450 H438 0.950 . S
C450 C449 1.398 . S
C450 C451 1.391 . S
C451 H439 0.950 . S
C451 C447 1.393 . S
C451 C450 1.391 . S
H452 C460 0.950 . S
H453 C465 0.950 . S
H454 C462 0.950 . S
H455 C464 0.950 . S
H456 C466 0.950 . S
H457 C468 0.950 . S
H458 C470 0.950 . S
H459 C471 0.950 . S
C460 H452 0.950 . S
C460 C461 1.386 . S
C460 C462 1.391 . S
C461 C460 1.386 . S
C461 C465 1.393 . S
C462 H454 0.950 . S
C462 C460 1.391 . S
C462 C463 1.400 . S
C463 C462 1.400 . S
C463 C464 1.398 . S
C463 C469 1.491 . S
C464 H455 0.950 . S
C464 C463 1.398 . S
C464 C465 1.391 . S
C465 H453 0.950 . S
C465 C461 1.393 . S
C465 C464 1.391 . S
C466 H456 0.950 . S
C466 C467 1.386 . S
C466 C468 1.391 . S
C467 C466 1.386 . S
C467 C471 1.393 . S
C468 H457 0.950 . S
C468 C466 1.391 . S
C468 C469 1.400 . S
C469 C463 1.491 . S
C469 C468 1.400 . S
C469 C470 1.398 . S
C470 H458 0.950 . S
C470 C469 1.398 . S
C470 C471 1.391 . S
C471 H459 0.950 . S
C471 C467 1.393 . S
C471 C470 1.391 . S
H472 C480 0.950 . S
H473 C485 0.950 1_554 S
H474 C482 0.950 . S
H475 C484 0.950 . S
H476 C486 0.950 . S
H477 C488 0.950 . S
H478 C490 0.950 . S
H479 C491 0.950 . S
C480 H472 0.950 . S
C480 C481 1.386 . S
C480 C482 1.391 . S
C481 C480 1.386 . S
C481 C485 1.393 . S
C482 H474 0.950 . S
C482 C480 1.391 . S
C482 C483 1.400 . S
C483 C482 1.400 . S
C483 C484 1.398 . S
C483 C489 1.491 . S
C484 H475 0.950 . S
C484 C483 1.398 . S
C484 C485 1.391 . S
C485 H473 0.950 1_556 S
C485 C481 1.393 . S
C485 C484 1.391 . S
C486 H476 0.950 . S
C486 C487 1.386 . S
C486 C488 1.391 . S
C487 C486 1.386 . S
C487 C491 1.393 1_655 S
C488 H477 0.950 . S
C488 C486 1.391 . S
C488 C489 1.400 . S
C489 C483 1.491 . S
C489 C488 1.400 . S
C489 C490 1.398 . S
C490 H478 0.950 . S
C490 C489 1.398 . S
C490 C491 1.391 1_655 S
C491 H479 0.950 . S
C491 C487 1.393 1_455 S
C491 C490 1.391 1_455 S
H492 C500 0.950 . S
H493 C505 0.950 . S
H494 C502 0.950 . S
H495 C504 0.950 1_554 S
H496 C506 0.950 . S
H497 C508 0.950 . S
H498 C510 0.950 . S
H499 C511 0.966 . S
C500 H492 0.950 . S
C500 C501 1.386 . S
C500 C502 1.391 . S
C501 C500 1.386 . S
C501 C505 1.393 1_556 S
C502 H494 0.950 . S
C502 C500 1.391 . S
C502 C503 1.400 . S
C503 C502 1.400 . S
C503 C504 1.398 . S
C503 C509 1.491 . S
C504 H495 0.950 1_556 S
C504 C503 1.398 . S
C504 C505 1.391 1_556 S
C505 H493 0.950 . S
C505 C501 1.393 1_554 S
C505 C504 1.391 1_554 S
C506 H496 0.950 . S
C506 C507 1.386 . S
C506 C508 1.391 . S
C507 C506 1.386 . S
C507 C511 1.387 1_565 S
C508 H497 0.950 . S
C508 C506 1.391 . S
C508 C509 1.400 . S
C509 C503 1.491 . S
C509 C508 1.400 . S
C509 C510 1.398 . S
C510 H498 0.950 . S
C510 C509 1.398 . S
C510 C511 1.381 1_565 S
C511 H499 0.966 . S
C511 C507 1.387 1_545 S
C511 C510 1.381 1_545 S
H512 C520 0.950 1_554 S
H513 C525 0.950 . S
H514 C522 0.950 . S
H515 C524 0.950 . S
H516 C526 0.950 . S
H517 C528 0.950 . S
H518 C530 0.950 . S
H519 C531 0.950 . S
C520 H512 0.950 1_556 S
C520 C521 1.386 . S
C520 C522 1.391 . S
C521 C520 1.386 . S
C521 C525 1.393 . S
C522 H514 0.950 . S
C522 C520 1.391 . S
C522 C523 1.400 . S
C523 C522 1.400 . S
C523 C524 1.398 . S
C523 C529 1.491 . S
C524 H515 0.950 . S
C524 C523 1.398 . S
C524 C525 1.391 . S
C525 H513 0.950 . S
C525 C521 1.393 . S
C525 C524 1.391 . S
C526 H516 0.950 . S
C526 C527 1.386 . S
C526 C528 1.391 . S
C527 C526 1.386 . S
C527 C531 1.393 . S
C528 H517 0.950 . S
C528 C526 1.391 . S
C528 C529 1.400 . S
C529 C523 1.491 . S
C529 C528 1.400 . S
C529 C530 1.398 . S
C530 H518 0.950 . S
C530 C529 1.398 . S
C530 C531 1.391 . S
C531 H519 0.950 . S
C531 C527 1.393 . S
C531 C530 1.391 . S
H532 C540 0.950 . S
H533 C545 0.950 . S
H534 C542 0.950 . S
H535 C544 0.950 1_554 S
H536 C546 0.950 . S
H537 C548 0.950 . S
H538 C550 0.950 . S
H539 C551 0.950 . S
C540 H532 0.950 . S
C540 C541 1.386 . S
C540 C542 1.391 . S
C541 C540 1.386 . S
C541 C545 1.393 1_556 S
C542 H534 0.950 . S
C542 C540 1.391 . S
C542 C543 1.400 . S
C543 C542 1.400 . S
C543 C544 1.398 . S
C543 C549 1.491 . S
C544 H535 0.950 1_556 S
C544 C543 1.398 . S
C544 C545 1.391 1_556 S
C545 H533 0.950 . S
C545 C541 1.393 1_554 S
C545 C544 1.391 1_554 S
C546 H536 0.950 . S
C546 C547 1.386 . S
C546 C548 1.391 . S
C547 C546 1.386 . S
C547 C551 1.393 . S
C548 H537 0.950 . S
C548 C546 1.391 . S
C548 C549 1.400 . S
C549 C543 1.491 . S
C549 C548 1.400 . S
C549 C550 1.398 . S
C550 H538 0.950 . S
C550 C549 1.398 . S
C550 C551 1.391 . S
C551 H539 0.950 . S
C551 C547 1.393 . S
C551 C550 1.391 . S
H552 C560 0.950 . S
H553 C565 0.950 . S
H554 C562 0.979 . S
H555 C564 0.950 . S
H556 C566 0.950 . S
H557 C568 0.950 . S
H558 C570 0.950 1_655 S
H559 C571 0.950 1_655 S
C560 H552 0.950 . S
C560 C561 1.386 . S
C560 C562 1.391 . S
C561 C560 1.386 . S
C561 C565 1.393 . S
C562 H554 0.979 . S
C562 C560 1.391 . S
C562 C563 1.400 . S
C563 C562 1.400 . S
C563 C564 1.398 . S
C563 C569 1.491 . S
C564 H555 0.950 . S
C564 C563 1.398 . S
C564 C565 1.391 . S
C565 H553 0.950 . S
C565 C561 1.393 . S
C565 C564 1.391 . S
C566 H556 0.950 . S
C566 C567 1.386 . S
C566 C568 1.391 . S
C567 C566 1.386 . S
C567 C571 1.393 . S
C568 H557 0.950 . S
C568 C566 1.391 . S
C568 C569 1.400 1_556 S
C569 C563 1.491 . S
C569 C568 1.400 1_554 S
C569 C570 1.398 . S
C570 H558 0.950 1_455 S
C570 C569 1.398 . S
C570 C571 1.391 1_554 S
C571 H559 0.950 1_455 S
C571 C567 1.393 . S
C571 C570 1.391 1_556 S
H572 C580 0.950 . S
H573 C585 0.950 . S
H574 C582 0.950 1_556 S
H575 C584 0.950 . S
H576 C586 0.950 . S
H577 C588 0.950 . S
H578 C590 0.950 . S
H579 C591 0.950 . S
C580 H572 0.950 . S
C580 C581 1.386 . S
C580 C582 1.391 . S
C581 C580 1.386 . S
C581 C585 1.393 . S
C582 H574 0.950 1_554 S
C582 C580 1.391 . S
C582 C583 1.400 . S
C583 C582 1.400 . S
C583 C584 1.398 . S
C583 C589 1.487 1_554 S
C584 H575 0.950 . S
C584 C583 1.398 . S
C584 C585 1.391 . S
C585 H573 0.950 . S
C585 C581 1.393 . S
C585 C584 1.391 . S
C586 H576 0.950 . S
C586 C587 1.386 . S
C586 C588 1.391 1_556 S
C587 C586 1.386 . S
C587 C591 1.393 . S
C588 H577 0.950 . S
C588 C586 1.391 1_554 S
C588 C589 1.398 1_554 S
C589 C583 1.487 1_556 S
C589 C588 1.398 1_556 S
C589 C590 1.405 . S
C590 H578 0.950 . S
C590 C589 1.405 . S
C590 C591 1.391 . S
C591 H579 0.950 . S
C591 C587 1.393 . S
C591 C590 1.391 . S
H592 C600 0.950 . S
H593 C605 0.950 . S
H594 C602 0.950 1_556 S
H595 C604 0.950 . S
H596 C606 0.950 . S
H597 C608 0.950 . S
H598 C610 0.950 . S
H599 C611 0.950 . S
C600 H592 0.950 . S
C600 C601 1.386 . S
C600 C602 1.391 . S
C601 C600 1.386 . S
C601 C605 1.393 . S
C602 H594 0.950 1_554 S
C602 C600 1.391 . S
C602 C603 1.400 . S
C603 C602 1.400 . S
C603 C604 1.398 . S
C603 C609 1.491 1_554 S
C604 H595 0.950 . S
C604 C603 1.398 . S
C604 C605 1.391 . S
C605 H593 0.950 . S
C605 C601 1.393 . S
C605 C604 1.391 . S
C606 H596 0.950 . S
C606 C607 1.386 . S
C606 C608 1.391 1_556 S
C607 C606 1.386 . S
C607 C611 1.393 . S
C608 H597 0.950 . S
C608 C606 1.391 1_554 S
C608 C609 1.400 1_554 S
C609 C603 1.491 1_556 S
C609 C608 1.400 1_556 S
C609 C610 1.398 . S
C610 H598 0.950 . S
C610 C609 1.398 . S
C610 C611 1.391 . S
C611 H599 0.950 . S
C611 C607 1.393 . S
C611 C610 1.391 . S
H612 C620 0.950 . S
H613 C625 0.950 . S
H614 C622 0.950 . S
H615 C624 0.950 . S
H616 C626 0.950 . S
H617 C628 0.950 . S
H618 C630 0.950 . S
H619 C631 0.950 . S
C620 H612 0.950 . S
C620 C621 1.386 . S
C620 C622 1.391 . S
C621 C620 1.386 . S
C621 C625 1.393 . S
C622 H614 0.950 . S
C622 C620 1.391 . S
C622 C623 1.400 . S
C623 C622 1.400 . S
C623 C624 1.398 . S
C623 C629 1.491 . S
C624 H615 0.950 . S
C624 C623 1.398 . S
C624 C625 1.391 . S
C625 H613 0.950 . S
C625 C621 1.393 . S
C625 C624 1.391 . S
C626 H616 0.950 . S
C626 C627 1.386 . S
C626 C628 1.391 . S
C627 C626 1.386 . S
C627 C631 1.393 . S
C628 H617 0.950 . S
C628 C626 1.391 . S
C628 C629 1.400 1_556 S
C629 C623 1.491 . S
C629 C628 1.400 1_554 S
C629 C630 1.398 . S
C630 H618 0.950 . S
C630 C629 1.398 . S
C630 C631 1.391 1_554 S
C631 H619 0.950 . S
C631 C627 1.393 . S
C631 C630 1.391 1_556 S
H632 C640 0.950 . S
H633 C645 0.950 . S
H634 C642 0.950 . S
H635 C644 0.950 . S
H636 C646 0.950 . S
H637 C648 0.950 . S
H638 C650 0.950 1_455 S
H639 C651 0.950 . S
C640 H632 0.950 . S
C640 C641 1.386 . S
C640 C642 1.391 . S
C641 C640 1.386 . S
C641 C645 1.393 . S
C642 H634 0.950 . S
C642 C640 1.391 . S
C642 C643 1.400 . S
C643 C642 1.400 . S
C643 C644 1.398 . S
C643 C649 1.491 . S
C644 H635 0.950 . S
C644 C643 1.398 . S
C644 C645 1.391 . S
C645 H633 0.950 . S
C645 C641 1.393 . S
C645 C644 1.391 . S
C646 H636 0.950 . S
C646 C647 1.386 . S
C646 C648 1.391 . S
C647 C646 1.386 . S
C647 C651 1.393 1_655 S
C648 H637 0.950 . S
C648 C646 1.391 . S
C648 C649 1.400 . S
C649 C643 1.491 . S
C649 C648 1.400 . S
C649 C650 1.398 . S
C650 H638 0.950 1_655 S
C650 C649 1.398 . S
C650 C651 1.391 1_655 S
C651 H639 0.950 . S
C651 C647 1.393 1_455 S
C651 C650 1.391 1_455 S
H652 C660 0.950 . S
H653 C665 0.950 . S
H654 C662 0.950 . S
H655 C664 0.950 . S
H656 C666 0.950 . S
H657 C668 0.950 1_545 S
H658 C670 0.950 . S
H659 C671 0.950 . S
C660 H652 0.950 . S
C660 C661 1.386 . S
C660 C662 1.391 . S
C661 C660 1.386 . S
C661 C665 1.393 . S
C662 H654 0.950 . S
C662 C660 1.391 . S
C662 C663 1.400 . S
C663 C662 1.400 . S
C663 C664 1.398 . S
C663 C669 1.491 . S
C664 H655 0.950 . S
C664 C663 1.398 . S
C664 C665 1.391 . S
C665 H653 0.950 . S
C665 C661 1.393 . S
C665 C664 1.391 . S
C666 H656 0.950 . S
C666 C667 1.386 1_545 S
C666 C668 1.391 1_545 S
C667 C666 1.386 1_565 S
C667 C671 1.393 . S
C668 H657 0.950 1_565 S
C668 C666 1.391 1_565 S
C668 C669 1.400 . S
C669 C663 1.491 . S
C669 C668 1.400 . S
C669 C670 1.398 . S
C670 H658 0.950 . S
C670 C669 1.398 . S
C670 C671 1.391 . S
C671 H659 0.950 . S
C671 C667 1.393 . S
C671 C670 1.391 . S
H672 C680 0.950 . S
H673 C685 0.950 . S
H674 C682 0.950 . S
H675 C684 0.950 . S
H676 C686 0.950 . S
H677 C688 0.950 . S
H678 C690 0.950 . S
H679 C691 0.950 . S
C680 H672 0.950 . S
C680 C681 1.386 . S
C680 C682 1.391 . S
C681 C680 1.386 . S
C681 C685 1.393 . S
C682 H674 0.950 . S
C682 C680 1.391 . S
C682 C683 1.400 . S
C683 C682 1.400 . S
C683 C684 1.398 . S
C683 C689 1.491 . S
C684 H675 0.950 . S
C684 C683 1.398 . S
C684 C685 1.391 . S
C685 H673 0.950 . S
C685 C681 1.393 . S
C685 C684 1.391 . S
C686 H676 0.950 . S
C686 C687 1.386 . S
C686 C688 1.391 . S
C687 C686 1.386 . S
C687 C691 1.393 . S
C688 H677 0.950 . S
C688 C686 1.391 . S
C688 C689 1.400 . S
C689 C683 1.491 . S
C689 C688 1.400 . S
C689 C690 1.398 . S
C690 H678 0.950 . S
C690 C689 1.398 . S
C690 C691 1.391 . S
C691 H679 0.950 . S
C691 C687 1.393 . S
C691 C690 1.391 . S
H692 C700 0.950 . S
H693 C705 0.950 . S
H694 C702 0.950 . S
H695 C704 0.950 . S
H696 C706 0.950 . S
H697 C708 0.950 . S
H698 C710 0.950 . S
H699 C711 0.950 . S
C700 H692 0.950 . S
C700 C701 1.386 . S
C700 C702 1.391 . S
C701 C700 1.386 . S
C701 C705 1.393 . S
C702 H694 0.950 . S
C702 C700 1.391 . S
C702 C703 1.400 . S
C703 C702 1.400 . S
C703 C704 1.398 . S
C703 C709 1.491 . S
C704 H695 0.950 . S
C704 C703 1.398 . S
C704 C705 1.391 . S
C705 H693 0.950 . S
C705 C701 1.393 . S
C705 C704 1.391 . S
C706 H696 0.950 . S
C706 C707 1.386 . S
C706 C708 1.391 . S
C707 C706 1.386 . S
C707 C711 1.393 . S
C708 H697 0.950 . S
C708 C706 1.391 . S
C708 C709 1.400 . S
C709 C703 1.491 . S
C709 C708 1.400 . S
C709 C710 1.398 . S
C710 H698 0.950 . S
C710 C709 1.398 . S
C710 C711 1.391 . S
C711 H699 0.950 . S
C711 C707 1.393 . S
C711 C710 1.391 . S
C241 C125 1.493 . S
C247 C153 1.662 . S
C267 C188 1.600 . S
C261 C144 1.477 . S
C287 C193 1.379 . S
C281 C87 1.311 . S
C307 C213 1.490 . S
C301 C106 1.358 . S
C327 C161 1.656 1_565 S
C321 C49 1.597 1_556 S
C341 C68 1.576 1_556 S
C347 C178 1.607 . S
C361 C11 1.344 1_556 S
C367 C201 1.379 . S
C381 C30 1.417 . S
C387 C221 1.490 1_655 S
C407 C171 1.339 . S
C401 C97 1.325 . S
C427 C180 1.103 . S
C421 C116 1.059 . S
C447 C211 1.390 . S
C441 C135 1.371 . S
C461 C78 1.044 . S
C467 C231 1.080 . S
C481 C21 1.316 . S
C487 C160 1.345 1_655 S
C507 C191 1.092 1_565 S
C501 C40 1.090 1_556 S
C527 C200 1.387 . S
C521 C59 1.373 1_556 S
C541 C2 1.049 1_556 S
C547 C220 1.071 . S
C561 C101 1.456 . S
C567 C158 1.445 . S
C581 C120 1.478 . S
C587 C181 1.520 . S
C607 C198 1.565 . S
C601 C139 1.518 . S
C627 C218 1.599 . S
C621 C82 1.567 . S
C641 C25 1.447 . S
C647 C168 1.460 . S
C667 C173 1.519 . S
C661 C44 1.486 . S
C687 C208 1.565 . S
C681 C63 1.516 . S
C701 C6 1.587 . S
C707 C228 1.587 . S
