# Generated by pormake.
# Topology pto, (3,4)-cn, num edge types: 1
# Building blocks:
#     Node 0, Type 0, BuildingBlock: MIDCAF_clean_linker_0, # of connection points: 3
#     Node 1, Type 0, BuildingBlock: MIDCAF_clean_linker_0, # of connection points: 3
#     Node 2, Type 0, BuildingBlock: MIDCAF_clean_linker_0, # of connection points: 3
#     Node 3, Type 0, BuildingBlock: MIDCAF_clean_linker_0, # of connection points: 3
#     Node 4, Type 0, BuildingBlock: MIDCAF_clean_linker_0, # of connection points: 3
#     Node 5, Type 0, BuildingBlock: MIDCAF_clean_linker_0, # of connection points: 3
#     Node 6, Type 0, BuildingBlock: MIDCAF_clean_linker_0, # of connection points: 3
#     Node 7, Type 0, BuildingBlock: MIDCAF_clean_linker_0, # of connection points: 3
#     Node 8, Type 1, BuildingBlock: NAWXER_clean_sbu_0, # of connection points: 4
#     Node 9, Type 1, BuildingBlock: NAWXER_clean_sbu_0, # of connection points: 4
#     Node 10, Type 1, BuildingBlock: NAWXER_clean_sbu_0, # of connection points: 4
#     Node 11, Type 1, BuildingBlock: NAWXER_clean_sbu_0, # of connection points: 4
#     Node 12, Type 1, BuildingBlock: NAWXER_clean_sbu_0, # of connection points: 4
#     Node 13, Type 1, BuildingBlock: NAWXER_clean_sbu_0, # of connection points: 4
#     Edge 14, Type (0, 1), BuildingBlock: AJUNOK_clean_linker_0, # of connection points: 2
#     Edge 15, Type (0, 1), BuildingBlock: AJUNOK_clean_linker_0, # of connection points: 2
#     Edge 16, Type (0, 1), BuildingBlock: AJUNOK_clean_linker_0, # of connection points: 2
#     Edge 17, Type (0, 1), BuildingBlock: AJUNOK_clean_linker_0, # of connection points: 2
#     Edge 18, Type (0, 1), BuildingBlock: AJUNOK_clean_linker_0, # of connection points: 2
#     Edge 19, Type (0, 1), BuildingBlock: AJUNOK_clean_linker_0, # of connection points: 2
#     Edge 20, Type (0, 1), BuildingBlock: AJUNOK_clean_linker_0, # of connection points: 2
#     Edge 21, Type (0, 1), BuildingBlock: AJUNOK_clean_linker_0, # of connection points: 2
#     Edge 22, Type (0, 1), BuildingBlock: AJUNOK_clean_linker_0, # of connection points: 2
#     Edge 23, Type (0, 1), BuildingBlock: AJUNOK_clean_linker_0, # of connection points: 2
#     Edge 24, Type (0, 1), BuildingBlock: AJUNOK_clean_linker_0, # of connection points: 2
#     Edge 25, Type (0, 1), BuildingBlock: AJUNOK_clean_linker_0, # of connection points: 2
#     Edge 26, Type (0, 1), BuildingBlock: AJUNOK_clean_linker_0, # of connection points: 2
#     Edge 27, Type (0, 1), BuildingBlock: AJUNOK_clean_linker_0, # of connection points: 2
#     Edge 28, Type (0, 1), BuildingBlock: AJUNOK_clean_linker_0, # of connection points: 2
#     Edge 29, Type (0, 1), BuildingBlock: AJUNOK_clean_linker_0, # of connection points: 2
#     Edge 30, Type (0, 1), BuildingBlock: AJUNOK_clean_linker_0, # of connection points: 2
#     Edge 31, Type (0, 1), BuildingBlock: AJUNOK_clean_linker_0, # of connection points: 2
#     Edge 32, Type (0, 1), BuildingBlock: AJUNOK_clean_linker_0, # of connection points: 2
#     Edge 33, Type (0, 1), BuildingBlock: AJUNOK_clean_linker_0, # of connection points: 2
#     Edge 34, Type (0, 1), BuildingBlock: AJUNOK_clean_linker_0, # of connection points: 2
#     Edge 35, Type (0, 1), BuildingBlock: AJUNOK_clean_linker_0, # of connection points: 2
#     Edge 36, Type (0, 1), BuildingBlock: AJUNOK_clean_linker_0, # of connection points: 2
#     Edge 37, Type (0, 1), BuildingBlock: AJUNOK_clean_linker_0, # of connection points: 2
# Relax obj value: 0.000
# Max RMSD: 0.002
# Mean RMSD: 0.001
data_MOF--net-pto--node1-NAWXER_clean_sbu_0--node2-MIDCAF_clean_linker_0--edge1-AJUNOK_clean_linker_0
_symmetry_space_group_name_H-M    P1
_symmetry_Int_Tables_number       1
_symmetry_cell_setting            triclinic
loop_
_symmetry_equiv_pos_as_xyz
'x, y, z'
_cell_length_a     41.404202
_cell_length_b     39.078651
_cell_length_c     36.630087
_cell_angle_alpha  89.651333
_cell_angle_beta   90.126521
_cell_angle_gamma 90.212613
loop_
_atom_site_label
_atom_site_type_symbol
_atom_site_fract_x
_atom_site_fract_y
_atom_site_fract_z
_atom_type_partial_charge
C0 C 0.33964 0.21901 0.17086 0.0
C1 C 0.3519 0.25068 0.15857 0.0
C2 C 0.33986 0.28079 0.17429 0.0
C3 C 0.3153 0.27941 0.20035 0.0
H4 H 0.21656 0.32231 0.21612 0.0
H5 H 0.17913 0.36986 0.22186 0.0
H6 H 0.16401 0.34381 0.33541 0.0
H7 H 0.19997 0.29486 0.32891 0.0
H8 H 0.18923 0.20072 0.31876 0.0
H9 H 0.17924 0.15261 0.35991 0.0
H10 H 0.27791 0.11964 0.34611 0.0
H11 H 0.28747 0.16685 0.30364 0.0
H12 H 0.3061 0.19284 0.20597 0.0
H13 H 0.34841 0.19531 0.15941 0.0
H14 H 0.34956 0.30558 0.16662 0.0
H15 H 0.30648 0.30322 0.21151 0.0
N16 N 0.25664 0.27482 0.24319 0.0
N17 N 0.22686 0.24627 0.28841 0.0
N18 N 0.27013 0.21849 0.25991 0.0
C19 C 0.2322 0.27467 0.26785 0.0
C20 C 0.24555 0.21806 0.2846 0.0
C21 C 0.27581 0.2469 0.2391 0.0
C22 C 0.2112 0.3049 0.27204 0.0
C23 C 0.20547 0.32695 0.24238 0.0
C24 C 0.18423 0.35445 0.24583 0.0
C25 C 0.16899 0.36116 0.27935 0.0
C26 C 0.17521 0.33933 0.30918 0.0
C27 C 0.19587 0.31135 0.30549 0.0
C28 C 0.23918 0.1876 0.30785 0.0
C29 C 0.20871 0.18296 0.32415 0.0
C30 C 0.20295 0.15542 0.34782 0.0
C31 C 0.22759 0.13199 0.35604 0.0
C32 C 0.25803 0.13653 0.33952 0.0
C33 C 0.26364 0.16378 0.31538 0.0
C34 C 0.30258 0.24784 0.21214 0.0
C35 C 0.31535 0.21759 0.19749 0.0
C36 C 0.17935 0.64215 0.81986 0.0
C37 C 0.14978 0.65116 0.8036 0.0
C38 C 0.14696 0.68319 0.7864 0.0
C39 C 0.17333 0.70545 0.78462 0.0
H40 H 0.19974 0.80115 0.7484 0.0
H41 H 0.19389 0.84889 0.70583 0.0
H42 H 0.29721 0.85079 0.68993 0.0
H43 H 0.30323 0.804 0.73375 0.0
H44 H 0.33796 0.77514 0.81838 0.0
H45 H 0.3876 0.76316 0.85148 0.0
H46 H 0.35606 0.65904 0.86994 0.0
H47 H 0.30551 0.67143 0.83801 0.0
H48 H 0.2285 0.65647 0.8302 0.0
H49 H 0.18232 0.61737 0.83281 0.0
H50 H 0.12438 0.69084 0.77382 0.0
H51 H 0.17025 0.72973 0.77065 0.0
N52 N 0.22937 0.74764 0.77445 0.0
N53 N 0.28381 0.76071 0.78534 0.0
N54 N 0.26046 0.71153 0.81167 0.0
C55 C 0.25518 0.76851 0.76903 0.0
C56 C 0.2866 0.73229 0.80687 0.0
C57 C 0.23171 0.71912 0.7956 0.0
C58 C 0.252 0.79877 0.74461 0.0
C59 C 0.22128 0.81197 0.73614 0.0
C60 C 0.21788 0.83929 0.71162 0.0
C61 C 0.24506 0.85395 0.69467 0.0
C62 C 0.27581 0.84082 0.70325 0.0
C63 C 0.27927 0.8138 0.7282 0.0
C64 C 0.31767 0.72427 0.8254 0.0
C65 C 0.34165 0.74956 0.82912 0.0
C66 C 0.37035 0.74256 0.84785 0.0
C67 C 0.37621 0.70986 0.86274 0.0
C68 C 0.35236 0.68445 0.85878 0.0
C69 C 0.32339 0.69159 0.84042 0.0
C70 C 0.20328 0.6962 0.79994 0.0
C71 C 0.20584 0.66448 0.81811 0.0
C72 C 0.69273 0.70137 0.16962 0.0
C73 C 0.66885 0.72674 0.16734 0.0
C74 C 0.67066 0.7548 0.19109 0.0
C75 C 0.69656 0.75832 0.21533 0.0
H76 H 0.73791 0.82735 0.28682 0.0
H77 H 0.74405 0.8785 0.32418 0.0
H78 H 0.83966 0.84641 0.35595 0.0
H79 H 0.8339 0.79522 0.31855 0.0
H80 H 0.85226 0.71966 0.31037 0.0
H81 H 0.89461 0.67697 0.31533 0.0
H82 H 0.84379 0.61278 0.23868 0.0
H83 H 0.80135 0.65577 0.23302 0.0
H84 H 0.73709 0.68521 0.19439 0.0
H85 H 0.69192 0.67947 0.15166 0.0
H86 H 0.65221 0.77438 0.19052 0.0
H87 H 0.69736 0.78066 0.23267 0.0
N88 N 0.75414 0.76894 0.25866 0.0
N89 N 0.80252 0.74877 0.28386 0.0
N90 N 0.77224 0.7136 0.24494 0.0
C91 C 0.78054 0.77418 0.2801 0.0
C92 C 0.79863 0.71843 0.26656 0.0
C93 C 0.7498 0.73874 0.24089 0.0
C94 C 0.78519 0.80681 0.30004 0.0
C95 C 0.76041 0.83126 0.30137 0.0
C96 C 0.76389 0.86055 0.32275 0.0
C97 C 0.79221 0.8661 0.34314 0.0
C98 C 0.81763 0.84269 0.34043 0.0
C99 C 0.81413 0.81327 0.3192 0.0
C100 C 0.82336 0.69133 0.27106 0.0
C101 C 0.84983 0.69638 0.29469 0.0
C102 C 0.87402 0.67176 0.2979 0.0
C103 C 0.87233 0.64145 0.27767 0.0
C104 C 0.84566 0.63599 0.25458 0.0
C105 C 0.82136 0.66061 0.25138 0.0
C106 C 0.72125 0.7337 0.2167 0.0
C107 C 0.71867 0.70481 0.19402 0.0
C108 C 0.81258 0.17533 0.67901 0.0
C109 C 0.78698 0.15375 0.66904 0.0
C110 C 0.75872 0.15351 0.69027 0.0
C111 C 0.75558 0.17554 0.72001 0.0
H112 H 0.7117 0.19344 0.83232 0.0
H113 H 0.66399 0.19413 0.87145 0.0
H114 H 0.6647 0.30474 0.86842 0.0
H115 H 0.71359 0.30385 0.83169 0.0
H116 H 0.81331 0.31096 0.84705 0.0
H117 H 0.85592 0.3546 0.85038 0.0
H118 H 0.86935 0.34754 0.73372 0.0
H119 H 0.82854 0.30281 0.73088 0.0
H120 H 0.82936 0.21449 0.71488 0.0
H121 H 0.83461 0.17595 0.66311 0.0
H122 H 0.7388 0.13666 0.68344 0.0
H123 H 0.73316 0.17531 0.73519 0.0
N124 N 0.75015 0.2235 0.78063 0.0
N125 N 0.76788 0.27418 0.80881 0.0
N126 N 0.79797 0.25022 0.76133 0.0
C127 C 0.74577 0.24844 0.80595 0.0
C128 C 0.79408 0.27509 0.78658 0.0
C129 C 0.77633 0.22426 0.75818 0.0
C130 C 0.71645 0.24858 0.82908 0.0
C131 C 0.70158 0.21784 0.84011 0.0
C132 C 0.67398 0.21829 0.86221 0.0
C133 C 0.66002 0.24951 0.87282 0.0
C134 C 0.67487 0.28019 0.86128 0.0
C135 C 0.70289 0.27972 0.84008 0.0
C136 C 0.818 0.30316 0.78881 0.0
C137 C 0.82552 0.31877 0.82223 0.0
C138 C 0.84987 0.34374 0.8241 0.0
C139 C 0.86674 0.35387 0.79248 0.0
C140 C 0.85796 0.33929 0.75888 0.0
C141 C 0.83428 0.31389 0.75716 0.0
C142 C 0.78061 0.19838 0.72904 0.0
C143 C 0.8094 0.19751 0.70859 0.0
C144 C 0.67788 0.78428 0.82582 0.0
C145 C 0.66859 0.75473 0.84518 0.0
C146 C 0.68143 0.72295 0.83471 0.0
C147 C 0.70316 0.72085 0.80562 0.0
H148 H 0.78677 0.66993 0.76934 0.0
H149 H 0.83131 0.62964 0.77016 0.0
H150 H 0.87081 0.67679 0.67321 0.0
H151 H 0.8258 0.71732 0.67186 0.0
H152 H 0.79178 0.78979 0.64242 0.0
H153 H 0.78673 0.83827 0.60017 0.0
H154 H 0.69335 0.86199 0.64537 0.0
H155 H 0.69796 0.81365 0.68709 0.0
H156 H 0.70545 0.80534 0.78179 0.0
H157 H 0.66871 0.80917 0.83338 0.0
H158 H 0.67407 0.69953 0.84832 0.0
H159 H 0.71238 0.69603 0.79787 0.0
N160 N 0.75621 0.72399 0.7512 0.0
N161 N 0.77306 0.74705 0.69487 0.0
N162 N 0.72993 0.77171 0.72652 0.0
C163 C 0.77645 0.72317 0.72195 0.0
C164 C 0.74949 0.77121 0.69693 0.0
C165 C 0.73306 0.74835 0.75368 0.0
C166 C 0.80274 0.69729 0.72075 0.0
C167 C 0.80479 0.67187 0.74803 0.0
C168 C 0.83043 0.64877 0.74865 0.0
C169 C 0.85485 0.6505 0.72217 0.0
C170 C 0.85236 0.67499 0.69405 0.0
C171 C 0.82659 0.69823 0.69338 0.0
C172 C 0.74548 0.79798 0.66842 0.0
C173 C 0.76995 0.80495 0.64292 0.0
C174 C 0.7671 0.83274 0.61883 0.0
C175 C 0.7396 0.85379 0.61952 0.0
C176 C 0.71458 0.84594 0.64388 0.0
C177 C 0.71747 0.81838 0.66805 0.0
C178 C 0.71176 0.75036 0.78585 0.0
C179 C 0.69901 0.78208 0.79633 0.0
C180 C 0.78424 0.19627 0.32658 0.0
C181 C 0.75375 0.18478 0.33855 0.0
C182 C 0.72596 0.1992 0.32286 0.0
C183 C 0.72854 0.22473 0.29615 0.0
H184 H 0.68759 0.25302 0.19393 0.0
H185 H 0.63957 0.26387 0.15774 0.0
H186 H 0.66963 0.36897 0.14207 0.0
H187 H 0.71897 0.35747 0.177 0.0
H188 H 0.80009 0.36573 0.18492 0.0
H189 H 0.84931 0.39971 0.17918 0.0
H190 H 0.90038 0.32634 0.24607 0.0
H191 H 0.85104 0.29271 0.25275 0.0
H192 H 0.81067 0.23037 0.29157 0.0
H193 H 0.80615 0.185 0.33737 0.0
H194 H 0.70215 0.19102 0.33156 0.0
H195 H 0.70653 0.23537 0.28489 0.0
N196 N 0.73504 0.27183 0.23595 0.0
N197 N 0.76407 0.31482 0.20534 0.0
N198 N 0.78937 0.28146 0.25066 0.0
C199 C 0.73613 0.29709 0.21045 0.0
C200 C 0.79091 0.30702 0.22521 0.0
C201 C 0.76136 0.2639 0.2563 0.0
C202 C 0.70709 0.30439 0.18826 0.0
C203 C 0.68405 0.27847 0.18276 0.0
C204 C 0.65638 0.28476 0.16216 0.0
C205 C 0.65068 0.3173 0.14698 0.0
C206 C 0.67359 0.34343 0.15274 0.0
C207 C 0.70174 0.33691 0.17288 0.0
C208 C 0.82141 0.32655 0.21959 0.0
C209 C 0.82185 0.35657 0.19814 0.0
C210 C 0.85019 0.37594 0.19449 0.0
C211 C 0.87884 0.36559 0.2119 0.0
C212 C 0.87864 0.33507 0.23244 0.0
C213 C 0.8503 0.31582 0.2363 0.0
C214 C 0.75901 0.23664 0.28457 0.0
C215 C 0.78685 0.22212 0.30013 0.0
C216 C 0.29252 0.17032 0.68285 0.0
C217 C 0.27851 0.168 0.64811 0.0
C218 C 0.26106 0.19593 0.63411 0.0
C219 C 0.25727 0.22564 0.65489 0.0
H220 H 0.18874 0.30498 0.68233 0.0
H221 H 0.14123 0.342 0.68033 0.0
H222 H 0.18488 0.40794 0.76073 0.0
H223 H 0.23203 0.37114 0.76323 0.0
H224 H 0.31039 0.35413 0.78858 0.0
H225 H 0.35272 0.36169 0.83465 0.0
H226 H 0.36135 0.25186 0.84484 0.0
H227 H 0.32062 0.24447 0.79772 0.0
H228 H 0.30033 0.20094 0.73011 0.0
H229 H 0.30606 0.14906 0.69414 0.0
H230 H 0.24991 0.19449 0.60738 0.0
H231 H 0.24361 0.24678 0.64356 0.0
N232 N 0.24426 0.2824 0.70616 0.0
N233 N 0.26436 0.3164 0.75394 0.0
N234 N 0.29022 0.26527 0.73891 0.0
C235 C 0.24195 0.31092 0.72729 0.0
C236 C 0.28849 0.29362 0.75988 0.0
C237 C 0.26852 0.25951 0.71187 0.0
C238 C 0.21426 0.33483 0.72314 0.0
C239 C 0.18842 0.32758 0.69929 0.0
C240 C 0.16122 0.34885 0.69798 0.0
C241 C 0.15935 0.37783 0.72041 0.0
C242 C 0.18553 0.3856 0.74337 0.0
C243 C 0.21263 0.36446 0.74469 0.0
C244 C 0.31238 0.29874 0.7894 0.0
C245 C 0.32129 0.33169 0.80088 0.0
C246 C 0.34537 0.33599 0.82744 0.0
C247 C 0.3604 0.30736 0.84354 0.0
C248 C 0.35071 0.27447 0.83259 0.0
C249 C 0.32724 0.27022 0.80567 0.0
C250 C 0.27141 0.22805 0.68973 0.0
C251 C 0.2892 0.20008 0.70334 0.0
C252 C 0.19244 0.66201 0.19925 0.0
C253 C 0.16675 0.66111 0.22425 0.0
C254 C 0.16586 0.68573 0.25206 0.0
C255 C 0.19014 0.71054 0.25498 0.0
H256 H 0.23313 0.77776 0.33044 0.0
H257 H 0.23806 0.81445 0.38397 0.0
H258 H 0.30964 0.87583 0.32812 0.0
H259 H 0.30548 0.83898 0.27516 0.0
H260 H 0.32018 0.82339 0.18904 0.0
H261 H 0.36455 0.82861 0.14567 0.0
H262 H 0.3589 0.71994 0.12512 0.0
H263 H 0.31323 0.71522 0.1668 0.0
H264 H 0.23622 0.68668 0.18244 0.0
H265 H 0.19423 0.64296 0.17801 0.0
H266 H 0.1463 0.68581 0.27165 0.0
H267 H 0.18857 0.72903 0.27681 0.0
N268 N 0.24313 0.75868 0.26296 0.0
N269 N 0.28874 0.78626 0.23886 0.0
N270 N 0.26468 0.74106 0.20687 0.0
C271 C 0.26662 0.78297 0.26589 0.0
C272 C 0.28802 0.76548 0.20941 0.0
C273 C 0.24188 0.73772 0.23338 0.0
C274 C 0.26891 0.80531 0.29843 0.0
C275 C 0.25002 0.79898 0.3296 0.0
C276 C 0.25288 0.81994 0.3603 0.0
C277 C 0.27463 0.84769 0.36046 0.0
C278 C 0.29337 0.85408 0.32927 0.0
C279 C 0.29067 0.83309 0.29872 0.0
C280 C 0.31338 0.76886 0.18136 0.0
C281 C 0.32832 0.80069 0.175 0.0
C282 C 0.35397 0.80361 0.15046 0.0
C283 C 0.3658 0.77458 0.1325 0.0
C284 C 0.3503 0.74288 0.13833 0.0
C285 C 0.32416 0.74011 0.16224 0.0
C286 C 0.21595 0.71144 0.23009 0.0
C287 C 0.21668 0.68696 0.20204 0.0
C288 C 0.98718 0.46121 0.21932 0.0
C289 C 0.06802 0.55382 0.22419 0.0
O290 O 0.99484 0.4707 0.2516 0.0
Zn291 Zn 0.02565 0.50634 0.27833 0.0
O292 O 1.00085 0.4755 0.19208 0.0
Zn293 Zn 0.02782 0.50752 0.21975 0.0
O294 O 0.06217 0.47483 0.24601 0.0
O295 O 0.05402 0.47622 0.30568 0.0
O296 O 0.05603 0.54054 0.19552 0.0
O297 O 0.05851 0.54315 0.25558 0.0
O298 O 0.99449 0.53479 0.3034 0.0
O299 O 0.99215 0.53972 0.24348 0.0
C300 C 0.06967 0.46512 0.2784 0.0
C301 C 0.98153 0.54788 0.27508 0.0
C302 C 0.96373 0.46146 0.78865 0.0
C303 C 0.04474 0.55226 0.79094 0.0
O304 O 0.97509 0.47654 0.8165 0.0
Zn305 Zn 1.00327 0.50779 0.79042 0.0
O306 O 0.97239 0.47097 0.75656 0.0
Zn307 Zn 1.0033 0.50896 0.73235 0.0
O308 O 0.03304 0.48088 0.70485 0.0
O309 O 0.03777 0.47456 0.76447 0.0
O310 O 0.03613 0.544 0.75847 0.0
O311 O 0.03141 0.53753 0.81806 0.0
O312 O 0.9699 0.5431 0.76643 0.0
O313 O 0.97335 0.53913 0.70667 0.0
C314 C 0.04688 0.4668 0.73208 0.0
C315 C 0.96069 0.55278 0.73459 0.0
C316 C 0.23543 0.95521 0.57809 0.0
C317 C 0.22429 0.03227 0.47275 0.0
O318 O 0.20906 0.96493 0.56351 0.0
Zn319 Zn 0.22791 0.99386 0.52568 0.0
O320 O 0.26243 0.96507 0.56451 0.0
Zn321 Zn 0.27971 0.99589 0.5202 0.0
O322 O 0.30371 0.03206 0.54472 0.0
O323 O 0.25134 0.0328 0.55644 0.0
O324 O 0.25347 0.0245 0.48064 0.0
O325 O 0.20118 0.02107 0.49238 0.0
O326 O 0.24815 0.95702 0.48977 0.0
O327 O 0.30114 0.96274 0.48919 0.0
C328 C 0.27974 0.04503 0.56124 0.0
C329 C 0.27578 0.94757 0.47791 0.0
C330 C 0.5666 0.72105 0.05707 0.0
C331 C 0.48656 0.70587 0.95882 0.0
O332 O 0.55341 0.69294 0.04773 0.0
Zn333 Zn 0.52573 0.71138 0.00882 0.0
O334 O 0.55767 0.74881 0.04135 0.0
Zn335 Zn 0.52538 0.76584 0.99981 0.0
O336 O 0.49473 0.79386 0.02616 0.0
O337 O 0.48933 0.73848 0.03745 0.0
O338 O 0.49497 0.73697 0.96432 0.0
O339 O 0.49834 0.68201 0.97854 0.0
O340 O 0.56069 0.73058 0.97058 0.0
O341 O 0.55447 0.78665 0.96512 0.0
C342 C 0.47993 0.76933 0.04184 0.0
C343 C 0.56916 0.75935 0.95647 0.0
C344 C 0.74173 0.97816 0.53177 0.0
C345 C 0.74793 0.07326 0.44405 0.0
O346 O 0.71754 0.99285 0.51694 0.0
Zn347 Zn 0.74237 0.02557 0.48766 0.0
O348 O 0.77034 0.98848 0.52426 0.0
Zn349 Zn 0.79489 0.02495 0.4911 0.0
O350 O 0.81608 0.05275 0.52848 0.0
O351 O 0.76294 0.05769 0.52823 0.0
O352 O 0.77538 0.06304 0.45591 0.0
O353 O 0.72221 0.05802 0.45412 0.0
O354 O 0.7653 0.99113 0.45238 0.0
O355 O 0.8183 0.99434 0.45778 0.0
C356 C 0.79052 0.06616 0.54132 0.0
C357 C 0.79336 0.9806 0.44353 0.0
C358 C 0.53877 0.31794 0.05319 0.0
C359 C 0.46031 0.3107 0.95488 0.0
O360 O 0.53136 0.28693 0.04548 0.0
Zn361 Zn 0.50039 0.26042 0.00775 0.0
O362 O 0.52544 0.34257 0.0362 0.0
Zn363 Zn 0.49913 0.31469 0.00461 0.0
O364 O 0.46405 0.29196 0.04073 0.0
O365 O 0.47103 0.23601 0.04006 0.0
O366 O 0.47191 0.33749 0.96939 0.0
O367 O 0.46909 0.28109 0.96637 0.0
O368 O 0.53113 0.23474 0.97893 0.0
O369 O 0.536 0.29072 0.97215 0.0
C370 C 0.45581 0.26193 0.05167 0.0
C371 C 0.54558 0.26034 0.96485 0.0
C372 C 0.11583 0.38441 0.30096 0.0
C373 C 0.14539 0.38969 0.2826 0.0
C374 C 0.0919 0.40977 0.3014 0.0
C375 C 0.09656 0.441 0.28304 0.0
H376 H 0.11055 0.36002 0.31385 0.0
H377 H 0.06905 0.40425 0.31457 0.0
S378 S 0.17078 0.46978 0.23548 0.0
N379 N 0.17914 0.43058 0.2496 0.0
N380 N 0.13344 0.47732 0.2489 0.0
C381 C 0.12631 0.44727 0.26599 0.0
C382 C 0.15091 0.42184 0.26614 0.0
C383 C 0.10778 0.6197 0.76817 0.0
C384 C 0.12253 0.62643 0.80196 0.0
C385 C 0.0825 0.59606 0.76519 0.0
C386 C 0.07072 0.57816 0.79592 0.0
H387 H 0.11622 0.63243 0.74359 0.0
H388 H 0.07229 0.5917 0.73836 0.0
S389 S 0.10037 0.5877 0.89113 0.0
N390 N 0.1231 0.61428 0.86706 0.0
N391 N 0.07549 0.56958 0.86164 0.0
C392 C 0.08499 0.58502 0.83009 0.0
C393 C 0.11095 0.60911 0.83305 0.0
C394 C 0.9131 0.60609 0.24537 0.0
C395 C 0.89952 0.61684 0.27842 0.0
C396 C 0.93961 0.58407 0.24487 0.0
C397 C 0.9537 0.57167 0.27742 0.0
H398 H 0.9035 0.61525 0.21958 0.0
H399 H 0.94909 0.57679 0.2185 0.0
S400 S 0.92619 0.5913 0.37138 0.0
N401 N 0.90132 0.61294 0.34464 0.0
N402 N 0.95139 0.57145 0.34384 0.0
C403 C 0.94015 0.58203 0.31079 0.0
C404 C 0.91307 0.60465 0.31125 0.0
C405 C 0.88952 0.40986 0.8148 0.0
C406 C 0.8932 0.37979 0.79415 0.0
C407 C 0.91312 0.43579 0.81424 0.0
C408 C 0.94089 0.43271 0.79256 0.0
H409 H 0.86778 0.41392 0.83056 0.0
H410 H 0.90899 0.45896 0.82962 0.0
S411 S 0.96457 0.35751 0.73786 0.0
N412 N 0.92909 0.34697 0.75518 0.0
N413 N 0.97237 0.39647 0.75273 0.0
C414 C 0.94553 0.40241 0.773 0.0
C415 C 0.92196 0.37576 0.77415 0.0
C416 C 0.20663 0.11144 0.41682 0.0
C417 C 0.22222 0.10423 0.3835 0.0
C418 C 0.20488 0.08692 0.44498 0.0
C419 C 0.21884 0.05453 0.44081 0.0
H420 H 0.1972 0.13677 0.42195 0.0
H421 H 0.19442 0.0941 0.47091 0.0
S422 S 0.25792 0.02084 0.35762 0.0
N423 N 0.24803 0.06052 0.34669 0.0
N424 N 0.24587 0.01516 0.40018 0.0
C425 C 0.23278 0.0463 0.40712 0.0
C426 C 0.23419 0.07096 0.37832 0.0
C427 C 0.40465 0.68647 0.91838 0.0
C428 C 0.40629 0.70316 0.88415 0.0
C429 C 0.43177 0.68454 0.94149 0.0
C430 C 0.46134 0.69941 0.93121 0.0
H431 H 0.38182 0.67658 0.92835 0.0
H432 H 0.42895 0.67354 0.96852 0.0
S433 S 0.48007 0.74084 0.84249 0.0
N434 N 0.44148 0.73038 0.83934 0.0
N435 N 0.49182 0.72803 0.88344 0.0
C436 C 0.4639 0.71412 0.89629 0.0
C437 C 0.43656 0.71566 0.87259 0.0
C438 C 0.81898 0.91885 0.36884 0.0
C439 C 0.79382 0.89446 0.36977 0.0
C440 C 0.81965 0.94642 0.39348 0.0
C441 C 0.79516 0.95025 0.41966 0.0
H442 H 0.83778 0.91702 0.34843 0.0
H443 H 0.83878 0.9653 0.3913 0.0
S444 S 0.72712 0.89 0.43698 0.0
N445 N 0.74611 0.87383 0.40152 0.0
N446 N 0.74724 0.92508 0.44763 0.0
C447 C 0.77087 0.92496 0.42187 0.0
C448 C 0.77021 0.89721 0.39696 0.0
C449 C 0.62855 0.27527 0.92436 0.0
C450 C 0.63065 0.25058 0.89655 0.0
C451 C 0.60095 0.27809 0.94617 0.0
C452 C 0.57451 0.25584 0.94177 0.0
H453 H 0.64847 0.29264 0.92948 0.0
H454 H 0.60045 0.29769 0.96698 0.0
S455 S 0.5667 0.18748 0.87269 0.0
N456 N 0.60275 0.20427 0.86511 0.0
N457 N 0.55163 0.20858 0.90763 0.0
C458 C 0.57624 0.23068 0.91469 0.0
C459 C 0.60411 0.22825 0.89177 0.0
C460 C 0.21694 0.87941 0.63993 0.0
C461 C 0.24116 0.8818 0.66697 0.0
C462 C 0.21415 0.90412 0.61209 0.0
C463 C 0.23575 0.93185 0.61 0.0
H464 H 0.20063 0.85768 0.63955 0.0
H465 H 0.19586 0.90068 0.59121 0.0
S466 S 0.30039 0.95276 0.67656 0.0
N467 N 0.28468 0.91657 0.69196 0.0
N468 N 0.28017 0.96216 0.63894 0.0
C469 C 0.2592 0.93534 0.63754 0.0
C470 C 0.26175 0.91053 0.66616 0.0
C471 C 0.62415 0.69546 0.13429 0.0
C472 C 0.6431 0.72514 0.13893 0.0
C473 C 0.59947 0.69412 0.10779 0.0
C474 C 0.59291 0.72239 0.08491 0.0
H475 H 0.62814 0.6733 0.1516 0.0
H476 H 0.58529 0.67089 0.10547 0.0
S477 S 0.63815 0.80487 0.08378 0.0
N478 N 0.65526 0.7824 0.11676 0.0
N479 N 0.60918 0.78023 0.0674 0.0
C480 C 0.61234 0.75191 0.08885 0.0
C481 C 0.63732 0.75319 0.11571 0.0
C482 C 0.81498 0.11052 0.62952 0.0
C483 C 0.78894 0.13293 0.63535 0.0
C484 C 0.81621 0.08976 0.59829 0.0
C485 C 0.79147 0.09085 0.5719 0.0
H486 H 0.83404 0.10838 0.6497 0.0
H487 H 0.83604 0.07198 0.59544 0.0
S488 S 0.72079 0.14917 0.57186 0.0
N489 N 0.73986 0.15763 0.61039 0.0
N490 N 0.74204 0.11895 0.55192 0.0
C491 C 0.76621 0.11445 0.57668 0.0
C492 C 0.76496 0.13538 0.60835 0.0
C493 C 0.40411 0.2303 0.13088 0.0
C494 C 0.37734 0.2525 0.12973 0.0
C495 C 0.42909 0.23283 0.10503 0.0
C496 C 0.42844 0.25795 0.07737 0.0
H497 H 0.4062 0.21136 0.15245 0.0
H498 H 0.4495 0.21568 0.10737 0.0
S499 S 0.36207 0.31924 0.05914 0.0
N500 N 0.35029 0.29794 0.09586 0.0
N501 N 0.39771 0.30347 0.0484 0.0
C502 C 0.40145 0.27956 0.07519 0.0
C503 C 0.37582 0.27666 0.10106 0.0
C504 C 0.89274 0.60739 0.69481 0.0
C505 C 0.88319 0.62729 0.72479 0.0
C506 C 0.91823 0.5838 0.69784 0.0
C507 C 0.93512 0.5793 0.73097 0.0
H508 H 0.87986 0.60941 0.66911 0.0
H509 H 0.92421 0.56846 0.6743 0.0
S510 S 0.922 0.62858 0.81614 0.0
N511 N 0.89444 0.64325 0.78751 0.0
N512 N 0.942 0.59911 0.79346 0.0
C513 C 0.9265 0.6001 0.7607 0.0
C514 C 0.90066 0.62401 0.75755 0.0
C515 C 0.92356 0.39527 0.24494 0.0
C516 C 0.90799 0.38806 0.21174 0.0
C517 C 0.9496 0.41809 0.24659 0.0
C518 C 0.96137 0.43488 0.21511 0.0
H519 H 0.91495 0.38396 0.2702 0.0
H520 H 0.96014 0.42303 0.27314 0.0
S521 S 0.93061 0.42284 0.12077 0.0
N522 N 0.90737 0.39783 0.14612 0.0
N523 N 0.95629 0.4412 0.14922 0.0
C524 C 0.94669 0.42713 0.18144 0.0
C525 C 0.91998 0.40374 0.17977 0.0
C526 C 0.11598 0.40689 0.75582 0.0
C527 C 0.12964 0.3991 0.72179 0.0
C528 C 0.08892 0.42807 0.75856 0.0
C529 C 0.07429 0.44262 0.72737 0.0
H530 H 0.12639 0.39656 0.7807 0.0
H531 H 0.07972 0.43337 0.78559 0.0
S532 S 0.10058 0.4297 0.63153 0.0
N533 N 0.12642 0.40708 0.65607 0.0
N534 N 0.07538 0.44694 0.66102 0.0
C535 C 0.08736 0.4345 0.69298 0.0
C536 C 0.115 0.41273 0.69024 0.0
C537 C 0.13312 0.61613 0.25489 0.0
C538 C 0.14168 0.63368 0.22272 0.0
C539 C 0.10949 0.59044 0.25477 0.0
C540 C 0.09328 0.581 0.22246 0.0
H541 H 0.145 0.62209 0.28046 0.0
H542 H 0.10404 0.57779 0.28044 0.0
S543 S 0.10621 0.61974 0.13082 0.0
N544 N 0.1317 0.6404 0.15763 0.0
N545 N 0.08743 0.59169 0.15727 0.0
C546 C 0.10169 0.59824 0.18994 0.0
C547 C 0.12583 0.6246 0.1901 0.0
C548 C 0.76457 0.90861 0.59905 0.0
C549 C 0.73845 0.88568 0.5974 0.0
C550 C 0.76451 0.93904 0.57885 0.0
C551 C 0.73837 0.94789 0.55603 0.0
H552 H 0.78526 0.90303 0.61621 0.0
H553 H 0.78549 0.95559 0.58085 0.0
S554 S 0.66402 0.89636 0.542 0.0
N555 N 0.68555 0.8737 0.57141 0.0
N556 N 0.68549 0.93114 0.53311 0.0
C557 C 0.71173 0.9255 0.55461 0.0
C558 C 0.71179 0.89434 0.57535 0.0
C559 C 0.59144 0.30861 0.13644 0.0
C560 C 0.62098 0.32304 0.12484 0.0
C561 C 0.5642 0.30869 0.11375 0.0
C562 C 0.56519 0.32413 0.07913 0.0
H563 H 0.58966 0.296 0.16278 0.0
H564 H 0.54248 0.29569 0.12289 0.0
S565 S 0.63566 0.36642 0.0359 0.0
N566 N 0.64911 0.35361 0.07619 0.0
N567 N 0.59722 0.3551 0.03439 0.0
C568 C 0.5938 0.34031 0.06784 0.0
C569 C 0.62186 0.33956 0.09056 0.0
C570 C 0.29639 0.13534 0.59305 0.0
C571 C 0.28101 0.13583 0.62727 0.0
C572 C 0.2979 0.10509 0.57255 0.0
C573 C 0.28345 0.07474 0.5854 0.0
H574 H 0.30701 0.15855 0.58199 0.0
H575 H 0.30907 0.10584 0.54584 0.0
S576 S 0.24126 0.06247 0.67366 0.0
N577 N 0.25229 0.10314 0.67361 0.0
N578 N 0.25426 0.04667 0.63467 0.0
C579 C 0.2686 0.07482 0.61982 0.0
C580 C 0.2676 0.1053 0.64089 0.0
C581 C 0.3946 0.75851 0.07513 0.0
C582 C 0.39444 0.77686 0.10808 0.0
C583 C 0.4222 0.75734 0.05324 0.0
C584 C 0.45041 0.77513 0.06297 0.0
H585 H 0.37342 0.74436 0.06646 0.0
H586 H 0.42166 0.74192 0.02873 0.0
S587 S 0.4631 0.82709 0.14584 0.0
N588 N 0.42554 0.81307 0.14935 0.0
N589 N 0.47689 0.81195 0.10688 0.0
C590 C 0.45046 0.79461 0.0949 0.0
C591 C 0.42255 0.79528 0.11776 0.0
C592 C 0.72906 0.13013 0.36246 0.0
C593 C 0.75087 0.15761 0.36704 0.0
C594 C 0.72707 0.10342 0.38825 0.0
C595 C 0.74709 0.10315 0.41924 0.0
H596 H 0.71404 0.12874 0.33826 0.0
H597 H 0.71071 0.08227 0.38318 0.0
S598 S 0.80483 0.1711 0.44675 0.0
N599 N 0.79015 0.18452 0.40726 0.0
N600 N 0.78714 0.13392 0.45494 0.0
C601 C 0.76803 0.13102 0.42488 0.0
C602 C 0.76977 0.15833 0.39897 0.0
C603 C 0.4141 0.28988 0.86886 0.0
C604 C 0.38675 0.31113 0.87097 0.0
C605 C 0.43812 0.29051 0.89576 0.0
C606 C 0.43617 0.31301 0.92538 0.0
H607 H 0.41681 0.27219 0.84642 0.0
H608 H 0.45831 0.2731 0.89348 0.0
S609 S 0.3699 0.37375 0.94429 0.0
N610 N 0.35908 0.355 0.90584 0.0
N611 N 0.40517 0.35713 0.9556 0.0
C612 C 0.40964 0.33517 0.92745 0.0
C613 C 0.38473 0.33406 0.9004 0.0
C614 C 0.24732 0.88396 0.40685 0.0
C615 C 0.27612 0.8713 0.39207 0.0
C616 C 0.24772 0.90796 0.43498 0.0
C617 C 0.27696 0.92048 0.44964 0.0
H618 H 0.22418 0.87598 0.39589 0.0
H619 H 0.22469 0.91725 0.44473 0.0
S620 S 0.35921 0.89332 0.42237 0.0
N621 N 0.33479 0.87128 0.39556 0.0
N622 N 0.33561 0.91691 0.44829 0.0
C623 C 0.30603 0.90739 0.43573 0.0
C624 C 0.30559 0.88275 0.407 0.0
C625 C 0.61683 0.77772 0.87058 0.0
C626 C 0.64446 0.75709 0.87509 0.0
C627 C 0.59303 0.7794 0.89765 0.0
C628 C 0.59575 0.76006 0.92989 0.0
H629 H 0.61311 0.79204 0.84552 0.0
H630 H 0.57181 0.79493 0.89274 0.0
S631 S 0.66462 0.70518 0.95719 0.0
N632 N 0.67438 0.7196 0.91619 0.0
N633 N 0.62889 0.72165 0.9663 0.0
C634 C 0.62348 0.74006 0.93528 0.0
C635 C 0.648 0.73881 0.90807 0.0
loop_
_geom_bond_atom_site_label_1
_geom_bond_atom_site_label_2
_geom_bond_distance
_geom_bond_site_symmetry_2
_ccdc_geom_bond_type
C0 C1 1.384 . S
C0 H13 0.947 . S
C0 C35 1.382 . S
C1 C0 1.384 . S
C1 C2 1.378 . S
C2 C1 1.378 . S
C2 C3 1.378 . S
C2 H14 0.952 . S
C3 C2 1.378 . S
C3 H15 0.950 . S
C3 C34 1.383 . S
H4 C23 0.947 . S
H5 C24 0.946 . S
H6 C26 0.953 . S
H7 C27 0.945 . S
H8 C29 0.952 . S
H9 C30 0.949 . S
H10 C32 0.950 . S
H11 C33 0.948 . S
H12 C35 0.951 . S
H13 C0 0.947 . S
H14 C2 0.952 . S
H15 C3 0.950 . S
N16 C19 1.382 . S
N16 C21 1.363 . S
N17 C19 1.371 . S
N17 C20 1.372 . S
N18 C20 1.361 . S
N18 C21 1.377 . S
C19 N16 1.382 . S
C19 N17 1.371 . S
C19 C22 1.480 . S
C20 N17 1.372 . S
C20 N18 1.361 . S
C20 C28 1.457 . S
C21 N16 1.363 . S
C21 N18 1.377 . S
C21 C34 1.479 . S
C22 C19 1.480 . S
C22 C23 1.383 . S
C22 C27 1.385 . S
C23 H4 0.947 . S
C23 C22 1.383 . S
C23 C24 1.388 . S
C24 H5 0.946 . S
C24 C23 1.388 . S
C24 C25 1.384 . S
C25 C24 1.384 . S
C25 C26 1.377 . S
C26 H6 0.953 . S
C26 C25 1.377 . S
C26 C27 1.369 . S
C27 H7 0.945 . S
C27 C22 1.385 . S
C27 C26 1.369 . S
C28 C20 1.457 . S
C28 C29 1.372 . S
C28 C33 1.364 . S
C29 H8 0.952 . S
C29 C28 1.372 . S
C29 C30 1.389 . S
C30 H9 0.949 . S
C30 C29 1.389 . S
C30 C31 1.387 . S
C31 C30 1.387 . S
C31 C32 1.372 . S
C32 H10 0.950 . S
C32 C31 1.372 . S
C32 C33 1.379 . S
C33 H11 0.948 . S
C33 C28 1.364 . S
C33 C32 1.379 . S
C34 C3 1.383 . S
C34 C21 1.479 . S
C34 C35 1.398 . S
C35 C0 1.382 . S
C35 H12 0.951 . S
C35 C34 1.398 . S
C36 C37 1.384 . S
C36 H49 0.947 . S
C36 C71 1.382 . S
C37 C36 1.384 . S
C37 C38 1.378 . S
C38 C37 1.378 . S
C38 C39 1.378 . S
C38 H50 0.952 . S
C39 C38 1.378 . S
C39 H51 0.950 . S
C39 C70 1.383 . S
H40 C59 0.947 . S
H41 C60 0.946 . S
H42 C62 0.953 . S
H43 C63 0.945 . S
H44 C65 0.952 . S
H45 C66 0.949 . S
H46 C68 0.950 . S
H47 C69 0.948 . S
H48 C71 0.951 . S
H49 C36 0.947 . S
H50 C38 0.952 . S
H51 C39 0.950 . S
N52 C55 1.382 . S
N52 C57 1.363 . S
N53 C55 1.371 . S
N53 C56 1.372 . S
N54 C56 1.361 . S
N54 C57 1.377 . S
C55 N52 1.382 . S
C55 N53 1.371 . S
C55 C58 1.480 . S
C56 N53 1.372 . S
C56 N54 1.361 . S
C56 C64 1.457 . S
C57 N52 1.363 . S
C57 N54 1.377 . S
C57 C70 1.479 . S
C58 C55 1.480 . S
C58 C59 1.383 . S
C58 C63 1.385 . S
C59 H40 0.947 . S
C59 C58 1.383 . S
C59 C60 1.388 . S
C60 H41 0.946 . S
C60 C59 1.388 . S
C60 C61 1.384 . S
C61 C60 1.384 . S
C61 C62 1.377 . S
C62 H42 0.953 . S
C62 C61 1.377 . S
C62 C63 1.369 . S
C63 H43 0.945 . S
C63 C58 1.385 . S
C63 C62 1.369 . S
C64 C56 1.457 . S
C64 C65 1.372 . S
C64 C69 1.364 . S
C65 H44 0.952 . S
C65 C64 1.372 . S
C65 C66 1.389 . S
C66 H45 0.949 . S
C66 C65 1.389 . S
C66 C67 1.387 . S
C67 C66 1.387 . S
C67 C68 1.372 . S
C68 H46 0.950 . S
C68 C67 1.372 . S
C68 C69 1.379 . S
C69 H47 0.948 . S
C69 C64 1.364 . S
C69 C68 1.379 . S
C70 C39 1.383 . S
C70 C57 1.479 . S
C70 C71 1.398 . S
C71 C36 1.382 . S
C71 H48 0.951 . S
C71 C70 1.398 . S
C72 C73 1.384 . S
C72 H85 0.947 . S
C72 C107 1.382 . S
C73 C72 1.384 . S
C73 C74 1.378 . S
C74 C73 1.378 . S
C74 C75 1.378 . S
C74 H86 0.952 . S
C75 C74 1.378 . S
C75 H87 0.950 . S
C75 C106 1.383 . S
H76 C95 0.947 . S
H77 C96 0.946 . S
H78 C98 0.953 . S
H79 C99 0.945 . S
H80 C101 0.952 . S
H81 C102 0.949 . S
H82 C104 0.950 . S
H83 C105 0.948 . S
H84 C107 0.951 . S
H85 C72 0.947 . S
H86 C74 0.952 . S
H87 C75 0.950 . S
N88 C91 1.382 . S
N88 C93 1.363 . S
N89 C91 1.371 . S
N89 C92 1.372 . S
N90 C92 1.361 . S
N90 C93 1.377 . S
C91 N88 1.382 . S
C91 N89 1.371 . S
C91 C94 1.480 . S
C92 N89 1.372 . S
C92 N90 1.361 . S
C92 C100 1.457 . S
C93 N88 1.363 . S
C93 N90 1.377 . S
C93 C106 1.479 . S
C94 C91 1.480 . S
C94 C95 1.383 . S
C94 C99 1.385 . S
C95 H76 0.947 . S
C95 C94 1.383 . S
C95 C96 1.388 . S
C96 H77 0.946 . S
C96 C95 1.388 . S
C96 C97 1.384 . S
C97 C96 1.384 . S
C97 C98 1.377 . S
C98 H78 0.953 . S
C98 C97 1.377 . S
C98 C99 1.369 . S
C99 H79 0.945 . S
C99 C94 1.385 . S
C99 C98 1.369 . S
C100 C92 1.457 . S
C100 C101 1.372 . S
C100 C105 1.364 . S
C101 H80 0.952 . S
C101 C100 1.372 . S
C101 C102 1.389 . S
C102 H81 0.949 . S
C102 C101 1.389 . S
C102 C103 1.387 . S
C103 C102 1.387 . S
C103 C104 1.372 . S
C104 H82 0.950 . S
C104 C103 1.372 . S
C104 C105 1.379 . S
C105 H83 0.948 . S
C105 C100 1.364 . S
C105 C104 1.379 . S
C106 C75 1.383 . S
C106 C93 1.479 . S
C106 C107 1.398 . S
C107 C72 1.382 . S
C107 H84 0.951 . S
C107 C106 1.398 . S
C108 C109 1.384 . S
C108 H121 0.947 . S
C108 C143 1.382 . S
C109 C108 1.384 . S
C109 C110 1.378 . S
C110 C109 1.378 . S
C110 C111 1.378 . S
C110 H122 0.952 . S
C111 C110 1.378 . S
C111 H123 0.950 . S
C111 C142 1.383 . S
H112 C131 0.947 . S
H113 C132 0.946 . S
H114 C134 0.953 . S
H115 C135 0.945 . S
H116 C137 0.952 . S
H117 C138 0.949 . S
H118 C140 0.950 . S
H119 C141 0.948 . S
H120 C143 0.951 . S
H121 C108 0.947 . S
H122 C110 0.952 . S
H123 C111 0.950 . S
N124 C127 1.382 . S
N124 C129 1.363 . S
N125 C127 1.371 . S
N125 C128 1.372 . S
N126 C128 1.361 . S
N126 C129 1.377 . S
C127 N124 1.382 . S
C127 N125 1.371 . S
C127 C130 1.480 . S
C128 N125 1.372 . S
C128 N126 1.361 . S
C128 C136 1.457 . S
C129 N124 1.363 . S
C129 N126 1.377 . S
C129 C142 1.479 . S
C130 C127 1.480 . S
C130 C131 1.383 . S
C130 C135 1.385 . S
C131 H112 0.947 . S
C131 C130 1.383 . S
C131 C132 1.388 . S
C132 H113 0.946 . S
C132 C131 1.388 . S
C132 C133 1.384 . S
C133 C132 1.384 . S
C133 C134 1.377 . S
C134 H114 0.953 . S
C134 C133 1.377 . S
C134 C135 1.369 . S
C135 H115 0.945 . S
C135 C130 1.385 . S
C135 C134 1.369 . S
C136 C128 1.457 . S
C136 C137 1.372 . S
C136 C141 1.364 . S
C137 H116 0.952 . S
C137 C136 1.372 . S
C137 C138 1.389 . S
C138 H117 0.949 . S
C138 C137 1.389 . S
C138 C139 1.387 . S
C139 C138 1.387 . S
C139 C140 1.372 . S
C140 H118 0.950 . S
C140 C139 1.372 . S
C140 C141 1.379 . S
C141 H119 0.948 . S
C141 C136 1.364 . S
C141 C140 1.379 . S
C142 C111 1.383 . S
C142 C129 1.479 . S
C142 C143 1.398 . S
C143 C108 1.382 . S
C143 H120 0.951 . S
C143 C142 1.398 . S
C144 C145 1.384 . S
C144 H157 0.947 . S
C144 C179 1.382 . S
C145 C144 1.384 . S
C145 C146 1.378 . S
C146 C145 1.378 . S
C146 C147 1.378 . S
C146 H158 0.952 . S
C147 C146 1.378 . S
C147 H159 0.950 . S
C147 C178 1.383 . S
H148 C167 0.947 . S
H149 C168 0.946 . S
H150 C170 0.953 . S
H151 C171 0.945 . S
H152 C173 0.952 . S
H153 C174 0.949 . S
H154 C176 0.950 . S
H155 C177 0.948 . S
H156 C179 0.951 . S
H157 C144 0.947 . S
H158 C146 0.952 . S
H159 C147 0.950 . S
N160 C163 1.382 . S
N160 C165 1.363 . S
N161 C163 1.371 . S
N161 C164 1.372 . S
N162 C164 1.361 . S
N162 C165 1.377 . S
C163 N160 1.382 . S
C163 N161 1.371 . S
C163 C166 1.480 . S
C164 N161 1.372 . S
C164 N162 1.361 . S
C164 C172 1.457 . S
C165 N160 1.363 . S
C165 N162 1.377 . S
C165 C178 1.479 . S
C166 C163 1.480 . S
C166 C167 1.383 . S
C166 C171 1.385 . S
C167 H148 0.947 . S
C167 C166 1.383 . S
C167 C168 1.388 . S
C168 H149 0.946 . S
C168 C167 1.388 . S
C168 C169 1.384 . S
C169 C168 1.384 . S
C169 C170 1.377 . S
C170 H150 0.953 . S
C170 C169 1.377 . S
C170 C171 1.369 . S
C171 H151 0.945 . S
C171 C166 1.385 . S
C171 C170 1.369 . S
C172 C164 1.457 . S
C172 C173 1.372 . S
C172 C177 1.364 . S
C173 H152 0.952 . S
C173 C172 1.372 . S
C173 C174 1.389 . S
C174 H153 0.949 . S
C174 C173 1.389 . S
C174 C175 1.387 . S
C175 C174 1.387 . S
C175 C176 1.372 . S
C176 H154 0.950 . S
C176 C175 1.372 . S
C176 C177 1.379 . S
C177 H155 0.948 . S
C177 C172 1.364 . S
C177 C176 1.379 . S
C178 C147 1.383 . S
C178 C165 1.479 . S
C178 C179 1.398 . S
C179 C144 1.382 . S
C179 H156 0.951 . S
C179 C178 1.398 . S
C180 C181 1.384 . S
C180 H193 0.947 . S
C180 C215 1.382 . S
C181 C180 1.384 . S
C181 C182 1.378 . S
C182 C181 1.378 . S
C182 C183 1.378 . S
C182 H194 0.952 . S
C183 C182 1.378 . S
C183 H195 0.950 . S
C183 C214 1.383 . S
H184 C203 0.947 . S
H185 C204 0.946 . S
H186 C206 0.953 . S
H187 C207 0.945 . S
H188 C209 0.952 . S
H189 C210 0.949 . S
H190 C212 0.950 . S
H191 C213 0.948 . S
H192 C215 0.951 . S
H193 C180 0.947 . S
H194 C182 0.952 . S
H195 C183 0.950 . S
N196 C199 1.382 . S
N196 C201 1.363 . S
N197 C199 1.371 . S
N197 C200 1.372 . S
N198 C200 1.361 . S
N198 C201 1.377 . S
C199 N196 1.382 . S
C199 N197 1.371 . S
C199 C202 1.480 . S
C200 N197 1.372 . S
C200 N198 1.361 . S
C200 C208 1.457 . S
C201 N196 1.363 . S
C201 N198 1.377 . S
C201 C214 1.479 . S
C202 C199 1.480 . S
C202 C203 1.383 . S
C202 C207 1.385 . S
C203 H184 0.947 . S
C203 C202 1.383 . S
C203 C204 1.388 . S
C204 H185 0.946 . S
C204 C203 1.388 . S
C204 C205 1.384 . S
C205 C204 1.384 . S
C205 C206 1.377 . S
C206 H186 0.953 . S
C206 C205 1.377 . S
C206 C207 1.369 . S
C207 H187 0.945 . S
C207 C202 1.385 . S
C207 C206 1.369 . S
C208 C200 1.457 . S
C208 C209 1.372 . S
C208 C213 1.364 . S
C209 H188 0.952 . S
C209 C208 1.372 . S
C209 C210 1.389 . S
C210 H189 0.949 . S
C210 C209 1.389 . S
C210 C211 1.387 . S
C211 C210 1.387 . S
C211 C212 1.372 . S
C212 H190 0.950 . S
C212 C211 1.372 . S
C212 C213 1.379 . S
C213 H191 0.948 . S
C213 C208 1.364 . S
C213 C212 1.379 . S
C214 C183 1.383 . S
C214 C201 1.479 . S
C214 C215 1.398 . S
C215 C180 1.382 . S
C215 H192 0.951 . S
C215 C214 1.398 . S
C216 C217 1.384 . S
C216 H229 0.947 . S
C216 C251 1.382 . S
C217 C216 1.384 . S
C217 C218 1.378 . S
C218 C217 1.378 . S
C218 C219 1.378 . S
C218 H230 0.952 . S
C219 C218 1.378 . S
C219 H231 0.950 . S
C219 C250 1.383 . S
H220 C239 0.947 . S
H221 C240 0.946 . S
H222 C242 0.953 . S
H223 C243 0.945 . S
H224 C245 0.952 . S
H225 C246 0.949 . S
H226 C248 0.950 . S
H227 C249 0.948 . S
H228 C251 0.951 . S
H229 C216 0.947 . S
H230 C218 0.952 . S
H231 C219 0.950 . S
N232 C235 1.382 . S
N232 C237 1.363 . S
N233 C235 1.371 . S
N233 C236 1.372 . S
N234 C236 1.361 . S
N234 C237 1.377 . S
C235 N232 1.382 . S
C235 N233 1.371 . S
C235 C238 1.480 . S
C236 N233 1.372 . S
C236 N234 1.361 . S
C236 C244 1.457 . S
C237 N232 1.363 . S
C237 N234 1.377 . S
C237 C250 1.479 . S
C238 C235 1.480 . S
C238 C239 1.383 . S
C238 C243 1.385 . S
C239 H220 0.947 . S
C239 C238 1.383 . S
C239 C240 1.388 . S
C240 H221 0.946 . S
C240 C239 1.388 . S
C240 C241 1.384 . S
C241 C240 1.384 . S
C241 C242 1.377 . S
C242 H222 0.953 . S
C242 C241 1.377 . S
C242 C243 1.369 . S
C243 H223 0.945 . S
C243 C238 1.385 . S
C243 C242 1.369 . S
C244 C236 1.457 . S
C244 C245 1.372 . S
C244 C249 1.364 . S
C245 H224 0.952 . S
C245 C244 1.372 . S
C245 C246 1.389 . S
C246 H225 0.949 . S
C246 C245 1.389 . S
C246 C247 1.387 . S
C247 C246 1.387 . S
C247 C248 1.372 . S
C248 H226 0.950 . S
C248 C247 1.372 . S
C248 C249 1.379 . S
C249 H227 0.948 . S
C249 C244 1.364 . S
C249 C248 1.379 . S
C250 C219 1.383 . S
C250 C237 1.479 . S
C250 C251 1.398 . S
C251 C216 1.382 . S
C251 H228 0.951 . S
C251 C250 1.398 . S
C252 C253 1.384 . S
C252 H265 0.947 . S
C252 C287 1.382 . S
C253 C252 1.384 . S
C253 C254 1.378 . S
C254 C253 1.378 . S
C254 C255 1.378 . S
C254 H266 0.952 . S
C255 C254 1.378 . S
C255 H267 0.950 . S
C255 C286 1.383 . S
H256 C275 0.947 . S
H257 C276 0.946 . S
H258 C278 0.953 . S
H259 C279 0.945 . S
H260 C281 0.952 . S
H261 C282 0.949 . S
H262 C284 0.950 . S
H263 C285 0.948 . S
H264 C287 0.951 . S
H265 C252 0.947 . S
H266 C254 0.952 . S
H267 C255 0.950 . S
N268 C271 1.382 . S
N268 C273 1.363 . S
N269 C271 1.371 . S
N269 C272 1.372 . S
N270 C272 1.361 . S
N270 C273 1.377 . S
C271 N268 1.382 . S
C271 N269 1.371 . S
C271 C274 1.480 . S
C272 N269 1.372 . S
C272 N270 1.361 . S
C272 C280 1.457 . S
C273 N268 1.363 . S
C273 N270 1.377 . S
C273 C286 1.479 . S
C274 C271 1.480 . S
C274 C275 1.383 . S
C274 C279 1.385 . S
C275 H256 0.947 . S
C275 C274 1.383 . S
C275 C276 1.388 . S
C276 H257 0.946 . S
C276 C275 1.388 . S
C276 C277 1.384 . S
C277 C276 1.384 . S
C277 C278 1.377 . S
C278 H258 0.953 . S
C278 C277 1.377 . S
C278 C279 1.369 . S
C279 H259 0.945 . S
C279 C274 1.385 . S
C279 C278 1.369 . S
C280 C272 1.457 . S
C280 C281 1.372 . S
C280 C285 1.364 . S
C281 H260 0.952 . S
C281 C280 1.372 . S
C281 C282 1.389 . S
C282 H261 0.949 . S
C282 C281 1.389 . S
C282 C283 1.387 . S
C283 C282 1.387 . S
C283 C284 1.372 . S
C284 H262 0.950 . S
C284 C283 1.372 . S
C284 C285 1.379 . S
C285 H263 0.948 . S
C285 C280 1.364 . S
C285 C284 1.379 . S
C286 C255 1.383 . S
C286 C273 1.479 . S
C286 C287 1.398 . S
C287 C252 1.382 . S
C287 H264 0.951 . S
C287 C286 1.398 . S
C288 O290 1.247 . S
C288 O292 1.258 . S
C289 O296 1.247 . S
C289 O297 1.258 . S
O290 C288 1.247 . S
O290 Zn291 2.028 1_655 S
Zn291 O290 2.028 1_455 S
Zn291 O295 2.035 . S
Zn291 O297 2.035 . S
Zn291 O298 2.028 1_455 S
O292 C288 1.258 . S
O292 Zn293 2.035 1_655 S
Zn293 O292 2.035 1_455 S
Zn293 O294 2.028 . S
Zn293 O296 2.028 . S
Zn293 O299 2.035 1_455 S
O294 Zn293 2.028 . S
O294 C300 1.247 . S
O295 Zn291 2.035 . S
O295 C300 1.258 . S
O296 C289 1.247 . S
O296 Zn293 2.028 . S
O297 C289 1.258 . S
O297 Zn291 2.035 . S
O298 Zn291 2.028 1_655 S
O298 C301 1.247 . S
O299 Zn293 2.035 1_655 S
O299 C301 1.258 . S
C300 O294 1.247 . S
C300 O295 1.258 . S
C301 O298 1.247 . S
C301 O299 1.258 . S
C302 O304 1.247 . S
C302 O306 1.258 . S
C303 O310 1.247 . S
C303 O311 1.258 . S
O304 C302 1.247 . S
O304 Zn305 2.028 1_655 S
Zn305 O304 2.028 1_455 S
Zn305 O309 2.035 . S
Zn305 O311 2.035 . S
Zn305 O312 2.028 1_455 S
O306 C302 1.258 . S
O306 Zn307 2.035 1_655 S
Zn307 O306 2.035 1_455 S
Zn307 O308 2.028 . S
Zn307 O310 2.028 . S
Zn307 O313 2.035 1_455 S
O308 Zn307 2.028 . S
O308 C314 1.247 . S
O309 Zn305 2.035 . S
O309 C314 1.258 . S
O310 C303 1.247 . S
O310 Zn307 2.028 . S
O311 C303 1.258 . S
O311 Zn305 2.035 . S
O312 Zn305 2.028 1_655 S
O312 C315 1.247 . S
O313 Zn307 2.035 1_655 S
O313 C315 1.258 . S
C314 O308 1.247 . S
C314 O309 1.258 . S
C315 O312 1.247 . S
C315 O313 1.258 . S
C316 O318 1.247 . S
C316 O320 1.258 . S
C317 O324 1.247 . S
C317 O325 1.258 . S
O318 C316 1.247 . S
O318 Zn319 2.028 1_565 S
Zn319 O318 2.028 1_545 S
Zn319 O323 2.035 . S
Zn319 O325 2.035 . S
Zn319 O326 2.028 1_545 S
O320 C316 1.258 . S
O320 Zn321 2.035 1_565 S
Zn321 O320 2.035 1_545 S
Zn321 O322 2.028 . S
Zn321 O324 2.028 . S
Zn321 O327 2.035 1_545 S
O322 Zn321 2.028 . S
O322 C328 1.247 . S
O323 Zn319 2.035 . S
O323 C328 1.258 . S
O324 C317 1.247 . S
O324 Zn321 2.028 . S
O325 C317 1.258 . S
O325 Zn319 2.035 . S
O326 Zn319 2.028 1_565 S
O326 C329 1.247 . S
O327 Zn321 2.035 1_565 S
O327 C329 1.258 . S
C328 O322 1.247 . S
C328 O323 1.258 . S
C329 O326 1.247 . S
C329 O327 1.258 . S
C330 O332 1.247 . S
C330 O334 1.258 . S
C331 O338 1.247 . S
C331 O339 1.258 . S
O332 C330 1.247 . S
O332 Zn333 2.028 . S
Zn333 O332 2.028 . S
Zn333 O337 2.035 . S
Zn333 O339 2.035 1_554 S
Zn333 O340 2.028 1_554 S
O334 C330 1.258 . S
O334 Zn335 2.035 . S
Zn335 O334 2.035 . S
Zn335 O336 2.028 . S
Zn335 O338 2.028 1_554 S
Zn335 O341 2.035 1_554 S
O336 Zn335 2.028 . S
O336 C342 1.247 . S
O337 Zn333 2.035 . S
O337 C342 1.258 . S
O338 C331 1.247 . S
O338 Zn335 2.028 1_556 S
O339 C331 1.258 . S
O339 Zn333 2.035 1_556 S
O340 Zn333 2.028 1_556 S
O340 C343 1.247 . S
O341 Zn335 2.035 1_556 S
O341 C343 1.258 . S
C342 O336 1.247 . S
C342 O337 1.258 . S
C343 O340 1.247 . S
C343 O341 1.258 . S
C344 O346 1.247 . S
C344 O348 1.258 . S
C345 O352 1.247 . S
C345 O353 1.258 . S
O346 C344 1.247 . S
O346 Zn347 2.028 1_565 S
Zn347 O346 2.028 1_545 S
Zn347 O351 2.035 . S
Zn347 O353 2.035 . S
Zn347 O354 2.028 1_545 S
O348 C344 1.258 . S
O348 Zn349 2.035 1_565 S
Zn349 O348 2.035 1_545 S
Zn349 O350 2.028 . S
Zn349 O352 2.028 . S
Zn349 O355 2.035 1_545 S
O350 Zn349 2.028 . S
O350 C356 1.247 . S
O351 Zn347 2.035 . S
O351 C356 1.258 . S
O352 C345 1.247 . S
O352 Zn349 2.028 . S
O353 C345 1.258 . S
O353 Zn347 2.035 . S
O354 Zn347 2.028 1_565 S
O354 C357 1.247 . S
O355 Zn349 2.035 1_565 S
O355 C357 1.258 . S
C356 O350 1.247 . S
C356 O351 1.258 . S
C357 O354 1.247 . S
C357 O355 1.258 . S
C358 O360 1.247 . S
C358 O362 1.258 . S
C359 O366 1.247 . S
C359 O367 1.258 . S
O360 C358 1.247 . S
O360 Zn361 2.035 . S
Zn361 O360 2.035 . S
Zn361 O365 2.043 . S
Zn361 O367 2.028 1_554 S
Zn361 O368 2.020 1_554 S
O362 C358 1.258 . S
O362 Zn363 2.034 1_554 S
Zn363 O362 2.034 1_556 S
Zn363 O364 2.026 1_556 S
Zn363 O366 2.029 . S
Zn363 O369 2.037 . S
O364 Zn363 2.026 1_554 S
O364 C370 1.247 . S
O365 Zn361 2.043 . S
O365 C370 1.258 . S
O366 C359 1.247 . S
O366 Zn363 2.029 . S
O367 C359 1.258 . S
O367 Zn361 2.028 1_556 S
O368 Zn361 2.020 1_556 S
O368 C371 1.247 . S
O369 Zn363 2.037 . S
O369 C371 1.258 . S
C370 O364 1.247 . S
C370 O365 1.258 . S
C371 O368 1.247 . S
C371 O369 1.258 . S
C372 C373 1.369 . S
C372 C374 1.419 . S
C372 H376 0.930 . S
C373 C372 1.369 . S
C373 C382 1.429 . S
C374 C372 1.419 . S
C374 C375 1.363 . S
C374 H377 0.929 . S
C375 C374 1.363 . S
C375 C381 1.428 . S
H376 C372 0.930 . S
H377 C374 0.929 . S
S378 N379 1.613 . S
S378 N380 1.610 . S
N379 S378 1.613 . S
N379 C382 1.350 . S
N380 S378 1.610 . S
N380 C381 1.351 . S
C381 C375 1.428 . S
C381 N380 1.351 . S
C381 C382 1.434 . S
C382 C373 1.429 . S
C382 N379 1.350 . S
C382 C381 1.434 . S
C383 C384 1.369 . S
C383 C385 1.419 . S
C383 H387 0.930 . S
C384 C383 1.369 . S
C384 C393 1.429 . S
C385 C383 1.419 . S
C385 C386 1.363 . S
C385 H388 0.929 . S
C386 C385 1.363 . S
C386 C392 1.428 . S
H387 C383 0.930 . S
H388 C385 0.929 . S
S389 N390 1.613 . S
S389 N391 1.610 . S
N390 S389 1.613 . S
N390 C393 1.350 . S
N391 S389 1.610 . S
N391 C392 1.351 . S
C392 C386 1.428 . S
C392 N391 1.351 . S
C392 C393 1.434 . S
C393 C384 1.429 . S
C393 N390 1.350 . S
C393 C392 1.434 . S
C394 C395 1.369 . S
C394 C396 1.419 . S
C394 H398 0.930 . S
C395 C394 1.369 . S
C395 C404 1.429 . S
C396 C394 1.419 . S
C396 C397 1.363 . S
C396 H399 0.929 . S
C397 C396 1.363 . S
C397 C403 1.428 . S
H398 C394 0.930 . S
H399 C396 0.929 . S
S400 N401 1.613 . S
S400 N402 1.610 . S
N401 S400 1.613 . S
N401 C404 1.350 . S
N402 S400 1.610 . S
N402 C403 1.351 . S
C403 C397 1.428 . S
C403 N402 1.351 . S
C403 C404 1.434 . S
C404 C395 1.429 . S
C404 N401 1.350 . S
C404 C403 1.434 . S
C405 C406 1.369 . S
C405 C407 1.419 . S
C405 H409 0.930 . S
C406 C405 1.369 . S
C406 C415 1.429 . S
C407 C405 1.419 . S
C407 C408 1.363 . S
C407 H410 0.929 . S
C408 C407 1.363 . S
C408 C414 1.428 . S
H409 C405 0.930 . S
H410 C407 0.929 . S
S411 N412 1.613 . S
S411 N413 1.610 . S
N412 S411 1.613 . S
N412 C415 1.350 . S
N413 S411 1.610 . S
N413 C414 1.351 . S
C414 C408 1.428 . S
C414 N413 1.351 . S
C414 C415 1.434 . S
C415 C406 1.429 . S
C415 N412 1.350 . S
C415 C414 1.434 . S
C416 C417 1.369 . S
C416 C418 1.419 . S
C416 H420 0.930 . S
C417 C416 1.369 . S
C417 C426 1.429 . S
C418 C416 1.419 . S
C418 C419 1.363 . S
C418 H421 0.929 . S
C419 C418 1.363 . S
C419 C425 1.428 . S
H420 C416 0.930 . S
H421 C418 0.929 . S
S422 N423 1.613 . S
S422 N424 1.610 . S
N423 S422 1.613 . S
N423 C426 1.350 . S
N424 S422 1.610 . S
N424 C425 1.351 . S
C425 C419 1.428 . S
C425 N424 1.351 . S
C425 C426 1.434 . S
C426 C417 1.429 . S
C426 N423 1.350 . S
C426 C425 1.434 . S
C427 C428 1.369 . S
C427 C429 1.419 . S
C427 H431 0.930 . S
C428 C427 1.369 . S
C428 C437 1.429 . S
C429 C427 1.419 . S
C429 C430 1.363 . S
C429 H432 0.929 . S
C430 C429 1.363 . S
C430 C436 1.428 . S
H431 C427 0.930 . S
H432 C429 0.929 . S
S433 N434 1.613 . S
S433 N435 1.610 . S
N434 S433 1.613 . S
N434 C437 1.350 . S
N435 S433 1.610 . S
N435 C436 1.351 . S
C436 C430 1.428 . S
C436 N435 1.351 . S
C436 C437 1.434 . S
C437 C428 1.429 . S
C437 N434 1.350 . S
C437 C436 1.434 . S
C438 C439 1.369 . S
C438 C440 1.419 . S
C438 H442 0.930 . S
C439 C438 1.369 . S
C439 C448 1.429 . S
C440 C438 1.419 . S
C440 C441 1.363 . S
C440 H443 0.929 . S
C441 C440 1.363 . S
C441 C447 1.428 . S
H442 C438 0.930 . S
H443 C440 0.929 . S
S444 N445 1.613 . S
S444 N446 1.610 . S
N445 S444 1.613 . S
N445 C448 1.350 . S
N446 S444 1.610 . S
N446 C447 1.351 . S
C447 C441 1.428 . S
C447 N446 1.351 . S
C447 C448 1.434 . S
C448 C439 1.429 . S
C448 N445 1.350 . S
C448 C447 1.434 . S
C449 C450 1.369 . S
C449 C451 1.419 . S
C449 H453 0.930 . S
C450 C449 1.369 . S
C450 C459 1.429 . S
C451 C449 1.419 . S
C451 C452 1.363 . S
C451 H454 0.929 . S
C452 C451 1.363 . S
C452 C458 1.428 . S
H453 C449 0.930 . S
H454 C451 0.929 . S
S455 N456 1.613 . S
S455 N457 1.610 . S
N456 S455 1.613 . S
N456 C459 1.350 . S
N457 S455 1.610 . S
N457 C458 1.351 . S
C458 C452 1.428 . S
C458 N457 1.351 . S
C458 C459 1.434 . S
C459 C450 1.429 . S
C459 N456 1.350 . S
C459 C458 1.434 . S
C460 C461 1.369 . S
C460 C462 1.419 . S
C460 H464 0.930 . S
C461 C460 1.369 . S
C461 C470 1.429 . S
C462 C460 1.419 . S
C462 C463 1.363 . S
C462 H465 0.929 . S
C463 C462 1.363 . S
C463 C469 1.428 . S
H464 C460 0.930 . S
H465 C462 0.929 . S
S466 N467 1.613 . S
S466 N468 1.610 . S
N467 S466 1.613 . S
N467 C470 1.350 . S
N468 S466 1.610 . S
N468 C469 1.351 . S
C469 C463 1.428 . S
C469 N468 1.351 . S
C469 C470 1.434 . S
C470 C461 1.429 . S
C470 N467 1.350 . S
C470 C469 1.434 . S
C471 C472 1.369 . S
C471 C473 1.419 . S
C471 H475 0.930 . S
C472 C471 1.369 . S
C472 C481 1.429 . S
C473 C471 1.419 . S
C473 C474 1.363 . S
C473 H476 0.929 . S
C474 C473 1.363 . S
C474 C480 1.428 . S
H475 C471 0.930 . S
H476 C473 0.929 . S
S477 N478 1.613 . S
S477 N479 1.610 . S
N478 S477 1.613 . S
N478 C481 1.350 . S
N479 S477 1.610 . S
N479 C480 1.351 . S
C480 C474 1.428 . S
C480 N479 1.351 . S
C480 C481 1.434 . S
C481 C472 1.429 . S
C481 N478 1.350 . S
C481 C480 1.434 . S
C482 C483 1.369 . S
C482 C484 1.419 . S
C482 H486 0.930 . S
C483 C482 1.369 . S
C483 C492 1.429 . S
C484 C482 1.419 . S
C484 C485 1.363 . S
C484 H487 0.929 . S
C485 C484 1.363 . S
C485 C491 1.428 . S
H486 C482 0.930 . S
H487 C484 0.929 . S
S488 N489 1.613 . S
S488 N490 1.610 . S
N489 S488 1.613 . S
N489 C492 1.350 . S
N490 S488 1.610 . S
N490 C491 1.351 . S
C491 C485 1.428 . S
C491 N490 1.351 . S
C491 C492 1.434 . S
C492 C483 1.429 . S
C492 N489 1.350 . S
C492 C491 1.434 . S
C493 C494 1.369 . S
C493 C495 1.419 . S
C493 H497 0.930 . S
C494 C493 1.369 . S
C494 C503 1.429 . S
C495 C493 1.419 . S
C495 C496 1.363 . S
C495 H498 0.929 . S
C496 C495 1.363 . S
C496 C502 1.428 . S
H497 C493 0.930 . S
H498 C495 0.929 . S
S499 N500 1.613 . S
S499 N501 1.610 . S
N500 S499 1.613 . S
N500 C503 1.350 . S
N501 S499 1.610 . S
N501 C502 1.351 . S
C502 C496 1.428 . S
C502 N501 1.351 . S
C502 C503 1.434 . S
C503 C494 1.429 . S
C503 N500 1.350 . S
C503 C502 1.434 . S
C504 C505 1.369 . S
C504 C506 1.419 . S
C504 H508 0.930 . S
C505 C504 1.369 . S
C505 C514 1.429 . S
C506 C504 1.419 . S
C506 C507 1.363 . S
C506 H509 0.929 . S
C507 C506 1.363 . S
C507 C513 1.428 . S
H508 C504 0.930 . S
H509 C506 0.929 . S
S510 N511 1.613 . S
S510 N512 1.610 . S
N511 S510 1.613 . S
N511 C514 1.350 . S
N512 S510 1.610 . S
N512 C513 1.351 . S
C513 C507 1.428 . S
C513 N512 1.351 . S
C513 C514 1.434 . S
C514 C505 1.429 . S
C514 N511 1.350 . S
C514 C513 1.434 . S
C515 C516 1.369 . S
C515 C517 1.419 . S
C515 H519 0.930 . S
C516 C515 1.369 . S
C516 C525 1.429 . S
C517 C515 1.419 . S
C517 C518 1.363 . S
C517 H520 0.929 . S
C518 C517 1.363 . S
C518 C524 1.428 . S
H519 C515 0.930 . S
H520 C517 0.929 . S
S521 N522 1.613 . S
S521 N523 1.610 . S
N522 S521 1.613 . S
N522 C525 1.350 . S
N523 S521 1.610 . S
N523 C524 1.351 . S
C524 C518 1.428 . S
C524 N523 1.351 . S
C524 C525 1.434 . S
C525 C516 1.429 . S
C525 N522 1.350 . S
C525 C524 1.434 . S
C526 C527 1.369 . S
C526 C528 1.419 . S
C526 H530 0.930 . S
C527 C526 1.369 . S
C527 C536 1.429 . S
C528 C526 1.419 . S
C528 C529 1.363 . S
C528 H531 0.929 . S
C529 C528 1.363 . S
C529 C535 1.428 . S
H530 C526 0.930 . S
H531 C528 0.929 . S
S532 N533 1.613 . S
S532 N534 1.610 . S
N533 S532 1.613 . S
N533 C536 1.350 . S
N534 S532 1.610 . S
N534 C535 1.351 . S
C535 C529 1.428 . S
C535 N534 1.351 . S
C535 C536 1.434 . S
C536 C527 1.429 . S
C536 N533 1.350 . S
C536 C535 1.434 . S
C537 C538 1.369 . S
C537 C539 1.419 . S
C537 H541 0.930 . S
C538 C537 1.369 . S
C538 C547 1.429 . S
C539 C537 1.419 . S
C539 C540 1.363 . S
C539 H542 0.929 . S
C540 C539 1.363 . S
C540 C546 1.428 . S
H541 C537 0.930 . S
H542 C539 0.929 . S
S543 N544 1.613 . S
S543 N545 1.610 . S
N544 S543 1.613 . S
N544 C547 1.350 . S
N545 S543 1.610 . S
N545 C546 1.351 . S
C546 C540 1.428 . S
C546 N545 1.351 . S
C546 C547 1.434 . S
C547 C538 1.429 . S
C547 N544 1.350 . S
C547 C546 1.434 . S
C548 C549 1.369 . S
C548 C550 1.419 . S
C548 H552 0.930 . S
C549 C548 1.369 . S
C549 C558 1.429 . S
C550 C548 1.419 . S
C550 C551 1.363 . S
C550 H553 0.929 . S
C551 C550 1.363 . S
C551 C557 1.428 . S
H552 C548 0.930 . S
H553 C550 0.929 . S
S554 N555 1.613 . S
S554 N556 1.610 . S
N555 S554 1.613 . S
N555 C558 1.350 . S
N556 S554 1.610 . S
N556 C557 1.351 . S
C557 C551 1.428 . S
C557 N556 1.351 . S
C557 C558 1.434 . S
C558 C549 1.429 . S
C558 N555 1.350 . S
C558 C557 1.434 . S
C559 C560 1.369 . S
C559 C561 1.419 . S
C559 H563 0.930 . S
C560 C559 1.369 . S
C560 C569 1.429 . S
C561 C559 1.419 . S
C561 C562 1.363 . S
C561 H564 0.929 . S
C562 C561 1.363 . S
C562 C568 1.428 . S
H563 C559 0.930 . S
H564 C561 0.929 . S
S565 N566 1.613 . S
S565 N567 1.610 . S
N566 S565 1.613 . S
N566 C569 1.350 . S
N567 S565 1.610 . S
N567 C568 1.351 . S
C568 C562 1.428 . S
C568 N567 1.351 . S
C568 C569 1.434 . S
C569 C560 1.429 . S
C569 N566 1.350 . S
C569 C568 1.434 . S
C570 C571 1.369 . S
C570 C572 1.419 . S
C570 H574 0.930 . S
C571 C570 1.369 . S
C571 C580 1.429 . S
C572 C570 1.419 . S
C572 C573 1.363 . S
C572 H575 0.929 . S
C573 C572 1.363 . S
C573 C579 1.428 . S
H574 C570 0.930 . S
H575 C572 0.929 . S
S576 N577 1.613 . S
S576 N578 1.610 . S
N577 S576 1.613 . S
N577 C580 1.350 . S
N578 S576 1.610 . S
N578 C579 1.351 . S
C579 C573 1.428 . S
C579 N578 1.351 . S
C579 C580 1.434 . S
C580 C571 1.429 . S
C580 N577 1.350 . S
C580 C579 1.434 . S
C581 C582 1.369 . S
C581 C583 1.419 . S
C581 H585 0.930 . S
C582 C581 1.369 . S
C582 C591 1.429 . S
C583 C581 1.419 . S
C583 C584 1.363 . S
C583 H586 0.929 . S
C584 C583 1.363 . S
C584 C590 1.428 . S
H585 C581 0.930 . S
H586 C583 0.929 . S
S587 N588 1.613 . S
S587 N589 1.610 . S
N588 S587 1.613 . S
N588 C591 1.350 . S
N589 S587 1.610 . S
N589 C590 1.351 . S
C590 C584 1.428 . S
C590 N589 1.351 . S
C590 C591 1.434 . S
C591 C582 1.429 . S
C591 N588 1.350 . S
C591 C590 1.434 . S
C592 C593 1.369 . S
C592 C594 1.419 . S
C592 H596 0.930 . S
C593 C592 1.369 . S
C593 C602 1.429 . S
C594 C592 1.419 . S
C594 C595 1.363 . S
C594 H597 0.929 . S
C595 C594 1.363 . S
C595 C601 1.428 . S
H596 C592 0.930 . S
H597 C594 0.929 . S
S598 N599 1.613 . S
S598 N600 1.610 . S
N599 S598 1.613 . S
N599 C602 1.350 . S
N600 S598 1.610 . S
N600 C601 1.351 . S
C601 C595 1.428 . S
C601 N600 1.351 . S
C601 C602 1.434 . S
C602 C593 1.429 . S
C602 N599 1.350 . S
C602 C601 1.434 . S
C603 C604 1.369 . S
C603 C605 1.419 . S
C603 H607 0.930 . S
C604 C603 1.369 . S
C604 C613 1.429 . S
C605 C603 1.419 . S
C605 C606 1.363 . S
C605 H608 0.929 . S
C606 C605 1.363 . S
C606 C612 1.428 . S
H607 C603 0.930 . S
H608 C605 0.929 . S
S609 N610 1.613 . S
S609 N611 1.610 . S
N610 S609 1.613 . S
N610 C613 1.350 . S
N611 S609 1.610 . S
N611 C612 1.351 . S
C612 C606 1.428 . S
C612 N611 1.351 . S
C612 C613 1.434 . S
C613 C604 1.429 . S
C613 N610 1.350 . S
C613 C612 1.434 . S
C614 C615 1.369 . S
C614 C616 1.419 . S
C614 H618 0.930 . S
C615 C614 1.369 . S
C615 C624 1.429 . S
C616 C614 1.419 . S
C616 C617 1.363 . S
C616 H619 0.929 . S
C617 C616 1.363 . S
C617 C623 1.428 . S
H618 C614 0.930 . S
H619 C616 0.929 . S
S620 N621 1.613 . S
S620 N622 1.610 . S
N621 S620 1.613 . S
N621 C624 1.350 . S
N622 S620 1.610 . S
N622 C623 1.351 . S
C623 C617 1.428 . S
C623 N622 1.351 . S
C623 C624 1.434 . S
C624 C615 1.429 . S
C624 N621 1.350 . S
C624 C623 1.434 . S
C625 C626 1.369 . S
C625 C627 1.419 . S
C625 H629 0.930 . S
C626 C625 1.369 . S
C626 C635 1.429 . S
C627 C625 1.419 . S
C627 C628 1.363 . S
C627 H630 0.929 . S
C628 C627 1.363 . S
C628 C634 1.428 . S
H629 C625 0.930 . S
H630 C627 0.929 . S
S631 N632 1.613 . S
S631 N633 1.610 . S
N632 S631 1.613 . S
N632 C635 1.350 . S
N633 S631 1.610 . S
N633 C634 1.351 . S
C634 C628 1.428 . S
C634 N633 1.351 . S
C634 C635 1.434 . S
C635 C626 1.429 . S
C635 N632 1.350 . S
C635 C634 1.434 . S
C375 C300 1.508 . S
C373 C25 1.509 . S
C386 C303 1.506 . S
C384 C37 1.509 . S
C397 C301 1.515 . S
C395 C103 1.510 . S
C408 C302 1.507 . S
C406 C139 1.510 . S
C419 C317 1.502 . S
C417 C31 1.503 . S
C430 C331 1.504 . S
C428 C67 1.506 . S
C439 C97 1.503 . S
C441 C357 1.509 . S
C452 C371 1.498 . S
C450 C133 1.498 . S
C463 C316 1.501 . S
C461 C61 1.502 . S
C472 C73 1.508 . S
C474 C330 1.509 . S
C485 C356 1.504 . S
C483 C109 1.506 . S
C496 C370 1.502 . S
C494 C1 1.503 . S
C505 C169 1.498 . S
C507 C315 1.506 . S
C518 C288 1.507 . S
C516 C211 1.499 . S
C527 C241 1.500 . S
C529 C314 1.501 . S
C538 C253 1.503 . S
C540 C289 1.509 . S
C551 C344 1.508 . S
C549 C175 1.505 . S
C562 C358 1.503 . S
C560 C205 1.497 . S
C573 C328 1.501 . S
C571 C217 1.502 . S
C582 C283 1.510 . S
C584 C342 1.510 . S
C595 C345 1.509 . S
C593 C181 1.504 . S
C606 C359 1.505 . S
C604 C247 1.506 . S
C617 C329 1.504 . S
C615 C277 1.499 . S
C626 C145 1.505 . S
C628 C343 1.509 . S
