# Generated by pormake.
# Topology nom, (4,4)-cn, num edge types: 1
# Building blocks:
#     Node 0, Type 0, BuildingBlock: AZAVOO_clean_linker_0, # of connection points: 4
#     Node 1, Type 0, BuildingBlock: AZAVOO_clean_linker_0, # of connection points: 4
#     Node 2, Type 0, BuildingBlock: AZAVOO_clean_linker_0, # of connection points: 4
#     Node 3, Type 0, BuildingBlock: AZAVOO_clean_linker_0, # of connection points: 4
#     Node 4, Type 0, BuildingBlock: AZAVOO_clean_linker_0, # of connection points: 4
#     Node 5, Type 0, BuildingBlock: AZAVOO_clean_linker_0, # of connection points: 4
#     Node 6, Type 1, BuildingBlock: NAHDIM_clean_sbu_0, # of connection points: 4
#     Node 7, Type 1, BuildingBlock: NAHDIM_clean_sbu_0, # of connection points: 4
#     Node 8, Type 1, BuildingBlock: NAHDIM_clean_sbu_0, # of connection points: 4
#     Node 9, Type 1, BuildingBlock: NAHDIM_clean_sbu_0, # of connection points: 4
#     Node 10, Type 1, BuildingBlock: NAHDIM_clean_sbu_0, # of connection points: 4
#     Node 11, Type 1, BuildingBlock: NAHDIM_clean_sbu_0, # of connection points: 4
#     Edge 12, Type (0, 1), BuildingBlock: UVAHIK_clean_linker_0, # of connection points: 2
#     Edge 13, Type (0, 1), BuildingBlock: UVAHIK_clean_linker_0, # of connection points: 2
#     Edge 14, Type (0, 1), BuildingBlock: UVAHIK_clean_linker_0, # of connection points: 2
#     Edge 15, Type (0, 1), BuildingBlock: UVAHIK_clean_linker_0, # of connection points: 2
#     Edge 16, Type (0, 1), BuildingBlock: UVAHIK_clean_linker_0, # of connection points: 2
#     Edge 17, Type (0, 1), BuildingBlock: UVAHIK_clean_linker_0, # of connection points: 2
#     Edge 18, Type (0, 1), BuildingBlock: UVAHIK_clean_linker_0, # of connection points: 2
#     Edge 19, Type (0, 1), BuildingBlock: UVAHIK_clean_linker_0, # of connection points: 2
#     Edge 20, Type (0, 1), BuildingBlock: UVAHIK_clean_linker_0, # of connection points: 2
#     Edge 21, Type (0, 1), BuildingBlock: UVAHIK_clean_linker_0, # of connection points: 2
#     Edge 22, Type (0, 1), BuildingBlock: UVAHIK_clean_linker_0, # of connection points: 2
#     Edge 23, Type (0, 1), BuildingBlock: UVAHIK_clean_linker_0, # of connection points: 2
#     Edge 24, Type (0, 1), BuildingBlock: UVAHIK_clean_linker_0, # of connection points: 2
#     Edge 25, Type (0, 1), BuildingBlock: UVAHIK_clean_linker_0, # of connection points: 2
#     Edge 26, Type (0, 1), BuildingBlock: UVAHIK_clean_linker_0, # of connection points: 2
#     Edge 27, Type (0, 1), BuildingBlock: UVAHIK_clean_linker_0, # of connection points: 2
#     Edge 28, Type (0, 1), BuildingBlock: UVAHIK_clean_linker_0, # of connection points: 2
#     Edge 29, Type (0, 1), BuildingBlock: UVAHIK_clean_linker_0, # of connection points: 2
#     Edge 30, Type (0, 1), BuildingBlock: UVAHIK_clean_linker_0, # of connection points: 2
#     Edge 31, Type (0, 1), BuildingBlock: UVAHIK_clean_linker_0, # of connection points: 2
#     Edge 32, Type (0, 1), BuildingBlock: UVAHIK_clean_linker_0, # of connection points: 2
#     Edge 33, Type (0, 1), BuildingBlock: UVAHIK_clean_linker_0, # of connection points: 2
#     Edge 34, Type (0, 1), BuildingBlock: UVAHIK_clean_linker_0, # of connection points: 2
#     Edge 35, Type (0, 1), BuildingBlock: UVAHIK_clean_linker_0, # of connection points: 2
# Relax obj value: 0.150
# Max RMSD: 0.223
# Mean RMSD: 0.170
data_MOF--net-nom--node1-NAHDIM_clean_sbu_0--node2-AZAVOO_clean_linker_0--edge1-UVAHIK_clean_linker_0
_symmetry_space_group_name_H-M    P1
_symmetry_Int_Tables_number       1
_symmetry_cell_setting            triclinic
loop_
_symmetry_equiv_pos_as_xyz
'x, y, z'
_cell_length_a     58.685293
_cell_length_b     62.14421
_cell_length_c     74.754751
_cell_angle_alpha  89.948169
_cell_angle_beta   90.424263
_cell_angle_gamma 122.23068
loop_
_atom_site_label
_atom_site_type_symbol
_atom_site_fract_x
_atom_site_fract_y
_atom_site_fract_z
_atom_type_partial_charge
H0 H 0.06593 0.47318 0.19076 0.0
H1 H 0.20675 0.61304 0.36121 0.0
H2 H 0.00563 0.45505 0.27942 0.0
H3 H 0.97113 0.43381 0.25628 0.0
H4 H 0.95901 0.49664 0.25634 0.0
H5 H 0.99454 0.51824 0.27906 0.0
H6 H 0.06816 0.48151 0.26879 0.0
H7 H 0.07005 0.47335 0.23698 0.0
H8 H 0.04222 0.52334 0.22356 0.0
H9 H 0.04082 0.53162 0.25539 0.0
H10 H 0.1162 0.51461 0.29746 0.0
H11 H 0.16219 0.53974 0.28574 0.0
H12 H 0.14213 0.58934 0.25905 0.0
H13 H 0.09656 0.5643 0.27078 0.0
H14 H 0.09049 0.50787 0.33795 0.0
H15 H 0.13126 0.52889 0.35658 0.0
H16 H 0.15695 0.60021 0.3302 0.0
H17 H 0.11592 0.57904 0.31186 0.0
H18 H 0.02546 0.48575 0.34652 0.0
H19 H 0.03002 0.49296 0.37884 0.0
H20 H 0.07882 0.57416 0.36975 0.0
H21 H 0.07243 0.56669 0.33765 0.0
H22 H 0.97904 0.46412 0.31713 0.0
H23 H 0.93688 0.4591 0.32768 0.0
H24 H 0.97582 0.54087 0.32974 0.0
H25 H 0.0174 0.54566 0.31892 0.0
O26 O 0.06518 0.47678 0.20326 0.0
O27 O 0.05062 0.50249 0.1971 0.0
O28 O 0.17624 0.56716 0.36728 0.0
O29 O 0.19047 0.60425 0.35402 0.0
C30 C 0.02752 0.50304 0.29177 0.0
C31 C 0.05271 0.51161 0.28374 0.0
C32 C 0.07662 0.52519 0.29396 0.0
C33 C 0.07531 0.52905 0.31245 0.0
C34 C 0.05021 0.52115 0.32037 0.0
C35 C 0.02642 0.50894 0.30986 0.0
C36 C 0.00262 0.48818 0.28085 0.0
C37 C 0.99505 0.46392 0.27473 0.0
C38 C 0.97523 0.45178 0.26153 0.0
C39 C 0.96243 0.46362 0.25431 0.0
C40 C 0.9688 0.4872 0.2614 0.0
C41 C 0.98882 0.49944 0.27454 0.0
C42 C 0.05418 0.507 0.26438 0.0
C43 C 0.06258 0.49073 0.25895 0.0
C44 C 0.06358 0.48607 0.24077 0.0
C45 C 0.0562 0.49763 0.22772 0.0
C46 C 0.04796 0.51407 0.23326 0.0
C47 C 0.04706 0.51877 0.25142 0.0
C48 C 0.10313 0.53771 0.28499 0.0
C49 C 0.12171 0.53066 0.28883 0.0
C50 C 0.14792 0.54504 0.28218 0.0
C51 C 0.15578 0.56653 0.2715 0.0
C52 C 0.13663 0.57269 0.267 0.0
C53 C 0.11058 0.55845 0.27373 0.0
C54 C 0.10035 0.54189 0.3235 0.0
C55 C 0.10497 0.52803 0.33622 0.0
C56 C 0.12827 0.54008 0.34683 0.0
C57 C 0.14741 0.56624 0.34485 0.0
C58 C 0.14267 0.58005 0.33205 0.0
C59 C 0.11931 0.56799 0.32151 0.0
C60 C 0.04905 0.52568 0.33976 0.0
C61 C 0.03647 0.50509 0.35158 0.0
C62 C 0.0394 0.50927 0.37005 0.0
C63 C 0.05528 0.53414 0.377 0.0
C64 C 0.06629 0.55475 0.36502 0.0
C65 C 0.06292 0.55054 0.3466 0.0
C66 C 0.0012 0.50525 0.31723 0.0
C67 C 0.97838 0.48088 0.31994 0.0
C68 C 0.95444 0.47807 0.32604 0.0
C69 C 0.95303 0.49961 0.3294 0.0
C70 C 0.97616 0.52393 0.327 0.0
C71 C -3e-05 0.5267 0.32096 0.0
C72 C 0.05713 0.49252 0.20843 0.0
C73 C 0.17219 0.57914 0.35609 0.0
H74 H 0.52528 0.08159 0.36707 0.0
H75 H 0.48315 0.17035 0.54628 0.0
H76 H 0.51571 0.02772 0.45748 0.0
H77 H 0.51707 -0.00152 0.43633 0.0
H78 H 0.43008 0.95197 0.43613 0.0
H79 H 0.42894 0.98149 0.45746 0.0
H80 H 0.52747 0.07803 0.44522 0.0
H81 H 0.53473 0.08422 0.41295 0.0
H82 H 0.44878 0.03605 0.40389 0.0
H83 H 0.44181 0.03025 0.43623 0.0
H84 H 0.53371 0.11098 0.47175 0.0
H85 H 0.54822 0.15302 0.45953 0.0
H86 H 0.4656 0.12678 0.44622 0.0
H87 H 0.4513 0.08452 0.45813 0.0
H88 H 0.52164 0.09434 0.51439 0.0
H89 H 0.52988 0.1293 0.53407 0.0
H90 H 0.45565 0.12108 0.51546 0.0
H91 H 0.44753 0.08596 0.49601 0.0
H92 H 0.50393 0.03703 0.52186 0.0
H93 H 0.50636 0.04051 0.55443 0.0
H94 H 0.43506 0.0446 0.55432 0.0
H95 H 0.43318 0.04158 0.52161 0.0
H96 H 0.4903 0.99452 0.49288 0.0
H97 H 0.46981 0.95151 0.50523 0.0
H98 H 0.39581 0.9492 0.51401 0.0
H99 H 0.41638 0.99198 0.5017 0.0
O100 O 0.52195 0.07898 0.37978 0.0
O101 O 0.47762 0.05399 0.37585 0.0
O102 O 0.51828 0.15992 0.54784 0.0
O103 O 0.48042 0.15661 0.53861 0.0
C104 C 0.4721 0.02623 0.47019 0.0
C105 C 0.47972 0.04996 0.46259 0.0
C106 C 0.48288 0.06981 0.47357 0.0
C107 C 0.47886 0.06617 0.49215 0.0
C108 C 0.47056 0.04225 0.49971 0.0
C109 C 0.46649 0.02205 0.48866 0.0
C110 C 0.47224 0.00675 0.45889 0.0
C111 C 0.49696 0.01107 0.45299 0.0
C112 C 0.49768 0.99446 0.44087 0.0
C113 C 0.47367 0.97311 0.43444 0.0
C114 C 0.44889 0.96822 0.44093 0.0
C115 C 0.44818 0.98501 0.45305 0.0
C116 C 0.48411 0.05389 0.44302 0.0
C117 C 0.51024 0.06903 0.43624 0.0
C118 C 0.51432 0.07243 0.4178 0.0
C119 C 0.49233 0.06066 0.40583 0.0
C120 C 0.46616 0.04542 0.41273 0.0
C121 C 0.46211 0.04207 0.43118 0.0
C122 C 0.49153 0.09485 0.46572 0.0
C123 C 0.51883 0.1143 0.46603 0.0
C124 C 0.52705 0.13816 0.45903 0.0
C125 C 0.50798 0.14299 0.45193 0.0
C126 C 0.48061 0.12346 0.45168 0.0
C127 C 0.47246 0.09943 0.4584 0.0
C128 C 0.48402 0.08769 0.50379 0.0
C129 C 0.5072 0.10014 0.5146 0.0
C130 C 0.51185 0.12009 0.52582 0.0
C131 C 0.49341 0.12799 0.52634 0.0
C132 C 0.47026 0.1155 0.51538 0.0
C133 C 0.4656 0.0955 0.50422 0.0
C134 C 0.46851 0.03925 0.51942 0.0
C135 C 0.48845 0.03802 0.52893 0.0
C136 C 0.48975 0.03996 0.54755 0.0
C137 C 0.47105 0.0431 0.55698 0.0
C138 C 0.45004 0.04264 0.54743 0.0
C139 C 0.4488 0.04075 0.52878 0.0
C140 C 0.45475 0.99627 0.49633 0.0
C141 C 0.46965 0.98464 0.49744 0.0
C142 C 0.45793 0.96012 0.50448 0.0
C143 C 0.43122 0.94701 0.51064 0.0
C144 C 0.41654 0.95892 0.50964 0.0
C145 C 0.42819 0.98329 0.50253 0.0
C146 C 0.49674 0.06427 0.38625 0.0
C147 C 0.49822 0.14914 0.53826 0.0
H148 H 0.59599 0.54668 0.7545 0.0
H149 H 0.58047 0.43446 0.57256 0.0
H150 H 0.57498 0.59079 0.66504 0.0
H151 H 0.56802 0.61653 0.68634 0.0
H152 H 0.48239 0.56059 0.68545 0.0
H153 H 0.48959 0.53523 0.66376 0.0
H154 H 0.59733 0.55388 0.67643 0.0
H155 H 0.60496 0.55484 0.70873 0.0
H156 H 0.51887 0.51226 0.71712 0.0
H157 H 0.51153 0.51118 0.68479 0.0
H158 H 0.60564 0.52332 0.64585 0.0
H159 H 0.61789 0.49396 0.65779 0.0
H160 H 0.53736 0.4462 0.67853 0.0
H161 H 0.52539 0.4755 0.6666 0.0
H162 H 0.59738 0.54124 0.60687 0.0
H163 H 0.61226 0.52019 0.5867 0.0
H164 H 0.5455 0.44694 0.60362 0.0
H165 H 0.53067 0.46825 0.62356 0.0
H166 H 0.56988 0.57505 0.60181 0.0
H167 H 0.57315 0.57857 0.56916 0.0
H168 H 0.5152 0.49775 0.56447 0.0
H169 H 0.5118 0.49449 0.59708 0.0
H170 H 0.53914 0.5912 0.63218 0.0
H171 H 0.50606 0.60133 0.62232 0.0
H172 H 0.45281 0.52321 0.60526 0.0
H173 H 0.48469 0.51294 0.61662 0.0
O174 O 0.59251 0.54604 0.74177 0.0
O175 O 0.54809 0.52425 0.74536 0.0
O176 O 0.60891 0.4814 0.57209 0.0
O177 O 0.57503 0.44327 0.58042 0.0
C178 C 0.53787 0.54507 0.65127 0.0
C179 C 0.54939 0.53203 0.65867 0.0
C180 C 0.55635 0.51821 0.64742 0.0
C181 C 0.55385 0.51917 0.62869 0.0
C182 C 0.54212 0.53209 0.62137 0.0
C183 C 0.53264 0.54373 0.63272 0.0
C184 C 0.53279 0.56119 0.66298 0.0
C185 C 0.5547 0.5843 0.6693 0.0
C186 C 0.55069 0.59889 0.68149 0.0
C187 C 0.52469 0.5905 0.68766 0.0
C188 C 0.50262 0.56769 0.6808 0.0
C189 C 0.50667 0.55312 0.66852 0.0
C190 C 0.5539 0.53258 0.6783 0.0
C191 C 0.58016 0.54474 0.68528 0.0
C192 C 0.58445 0.54528 0.70373 0.0
C193 C 0.56252 0.53367 0.71552 0.0
C194 C 0.53621 0.52144 0.70843 0.0
C195 C 0.53195 0.52087 0.68998 0.0
C196 C 0.56463 0.50149 0.65536 0.0
C197 C 0.59075 0.50655 0.65304 0.0
C198 C 0.59766 0.48977 0.65982 0.0
C199 C 0.57859 0.46781 0.66913 0.0
C200 C 0.55262 0.46314 0.67168 0.0
C201 C 0.54571 0.47979 0.66482 0.0
C202 C 0.56301 0.50626 0.61669 0.0
C203 C 0.58601 0.52065 0.60618 0.0
C204 C 0.59446 0.50858 0.59469 0.0
C205 C 0.58007 0.48186 0.59356 0.0
C206 C 0.55706 0.46753 0.60417 0.0
C207 C 0.54857 0.47964 0.61561 0.0
C208 C 0.5409 0.53447 0.60173 0.0
C209 C 0.55748 0.55824 0.59368 0.0
C210 C 0.55938 0.5602 0.5751 0.0
C211 C 0.54456 0.53842 0.56432 0.0
C212 C 0.52667 0.5149 0.57243 0.0
C213 C 0.52487 0.51294 0.59103 0.0
C214 C 0.51423 0.55123 0.62536 0.0
C215 C 0.52019 0.57627 0.62648 0.0
C216 C 0.50135 0.58208 0.62061 0.0
C217 C 0.47646 0.56303 0.61317 0.0
C218 C 0.47127 0.53826 0.61139 0.0
C219 C 0.48973 0.5324 0.61763 0.0
C220 C 0.56715 0.53431 0.73511 0.0
C221 C 0.58896 0.46894 0.58136 0.0
H222 H 0.04372 0.44173 0.93619 0.0
H223 H 0.18673 0.51067 0.75805 0.0
H224 H 0.99018 0.44766 0.846 0.0
H225 H 0.95486 0.4307 0.86841 0.0
H226 H 0.93357 0.35436 0.85526 0.0
H227 H 0.96962 0.3718 0.83291 0.0
H228 H 0.04825 0.46963 0.86095 0.0
H229 H 0.04939 0.46547 0.89346 0.0
H230 H 0.01907 0.38538 0.88709 0.0
H231 H 0.01833 0.3899 0.8546 0.0
H232 H 0.09164 0.49616 0.83218 0.0
H233 H 0.13593 0.51603 0.84657 0.0
H234 H 0.12382 0.44181 0.85509 0.0
H235 H 0.07929 0.42205 0.84073 0.0
H236 H 0.07454 0.49577 0.79243 0.0
H237 H 0.11596 0.52128 0.77534 0.0
H238 H 0.13447 0.46317 0.78285 0.0
H239 H 0.09277 0.43768 0.79969 0.0
H240 H 0.01168 0.46547 0.78258 0.0
H241 H 0.02041 0.48189 0.75204 0.0
H242 H 0.05782 0.43943 0.74065 0.0
H243 H 0.04757 0.42208 0.77082 0.0
H244 H 0.96626 0.43467 0.80963 0.0
H245 H 0.92103 0.40983 0.79636 0.0
H246 H 0.9414 0.35909 0.77227 0.0
H247 H 0.98647 0.38392 0.78568 0.0
O248 O 0.04325 0.44298 0.9233 0.0
O249 O 0.02751 0.40188 0.9193 0.0
O250 O 0.15964 0.53015 0.76113 0.0
O251 O 0.17023 0.50097 0.76475 0.0
C252 C 0.00705 0.42212 0.82695 0.0
C253 C 0.03217 0.43258 0.83575 0.0
C254 C 0.05618 0.44599 0.82592 0.0
C255 C 0.05516 0.44921 0.8073 0.0
C256 C 0.02996 0.43805 0.79837 0.0
C257 C 0.00587 0.42417 0.80819 0.0
C258 C 0.98238 0.41094 0.83789 0.0
C259 C 0.97745 0.42724 0.84767 0.0
C260 C 0.95717 0.41747 0.86042 0.0
C261 C 0.94141 0.39115 0.86365 0.0
C262 C 0.94555 0.37473 0.85317 0.0
C263 C 0.96591 0.38458 0.84033 0.0
C264 C 0.03328 0.43009 0.85546 0.0
C265 C 0.04204 0.45126 0.86662 0.0
C266 C 0.04258 0.4488 0.88517 0.0
C267 C 0.03431 0.42509 0.89288 0.0
C268 C 0.02558 0.40391 0.8816 0.0
C269 C 0.02511 0.40642 0.86305 0.0
C270 C 0.0825 0.45775 0.83528 0.0
C271 C 0.09858 0.48423 0.83718 0.0
C272 C 0.12383 0.4955 0.84535 0.0
C273 C 0.13339 0.48045 0.85181 0.0
C274 C 0.11688 0.45384 0.85034 0.0
C275 C 0.09158 0.44256 0.84209 0.0
C276 C 0.08063 0.46485 0.79723 0.0
C277 C 0.08754 0.48856 0.79031 0.0
C278 C 0.11123 0.5031 0.78059 0.0
C279 C 0.12853 0.49425 0.77772 0.0
C280 C 0.1216 0.47054 0.78481 0.0
C281 C 0.09784 0.45597 0.79446 0.0
C282 C 0.02924 0.44279 0.77896 0.0
C283 C 0.02083 0.45899 0.77325 0.0
C284 C 0.02621 0.46865 0.75586 0.0
C285 C 0.04036 0.46246 0.74396 0.0
C286 C 0.04675 0.44455 0.74934 0.0
C287 C 0.04103 0.43466 0.76664 0.0
C288 C 0.97947 0.41087 0.7988 0.0
C289 C 0.96094 0.41824 0.80143 0.0
C290 C 0.93518 0.40406 0.79386 0.0
C291 C 0.92765 0.38242 0.78339 0.0
C292 C 0.94669 0.37577 0.78016 0.0
C293 C 0.97238 0.38986 0.78784 0.0
C294 C 0.03478 0.42251 0.9126 0.0
C295 C 0.1537 0.50961 0.76737 0.0
H296 H 0.38219 0.97877 0.87133 0.0
H297 H 0.37114 0.82107 0.02787 0.0
H298 H 0.41784 0.0246 0.96062 0.0
H299 H 0.44095 0.05983 0.9396 0.0
H300 H 0.51666 0.06743 0.95331 0.0
H301 H 0.49305 0.03101 0.97316 0.0
H302 H 0.37701 0.96459 0.94891 0.0
H303 H 0.3711 0.96764 0.91675 0.0
H304 H 0.45593 -0.00196 0.90891 0.0
H305 H 0.46146 0.99451 0.94102 0.0
H306 H 0.35969 0.91187 0.97353 0.0
H307 H 0.34408 0.87139 0.95798 0.0
H308 H 0.42318 0.90355 0.9351 0.0
H309 H 0.43858 0.94324 0.95082 0.0
H310 H 0.37284 0.92848 0.01637 0.0
H311 H 0.35314 0.88666 0.03039 0.0
H312 H 0.41081 0.87554 0.00305 0.0
H313 H 0.43051 0.91749 0.98934 0.0
H314 H 0.41293 0.98531 0.03364 0.0
H315 H 0.42209 0.98037 0.06502 0.0
H316 H 0.47044 0.95099 0.04751 0.0
H317 H 0.46154 0.95634 0.0164 0.0
H318 H 0.43899 0.03793 0.00545 0.0
H319 H 0.47247 0.0764 0.02188 0.0
H320 H 0.52449 0.047 0.02564 0.0
H321 H 0.49137 0.0091 0.00905 0.0
O322 O 0.38496 0.97768 0.88399 0.0
O323 O 0.42875 0.99347 0.88072 0.0
O324 O 0.34952 0.84443 0.03643 0.0
O325 O 0.37857 0.83769 0.02255 0.0
C326 C 0.43896 -7e-05 0.97737 0.0
C327 C 0.42309 0.9777 0.96689 0.0
C328 C 0.4116 0.95345 0.97479 0.0
C329 C 0.41481 0.95133 0.99333 0.0
C330 C 0.43067 0.97344 0.00379 0.0
C331 C 0.44313 -0.00227 0.99578 0.0
C332 C 0.45369 0.0251 0.96837 0.0
C333 C 0.4395 0.03426 0.95934 0.0
C334 C 0.45281 0.05451 0.94738 0.0
C335 C 0.48065 0.06623 0.94448 0.0
C336 C 0.49511 0.05844 0.95483 0.0
C337 C 0.48172 0.03789 0.96648 0.0
C338 C 0.4197 0.97961 0.94732 0.0
C339 C 0.39427 0.97189 0.94021 0.0
C340 C 0.39097 0.97368 0.92185 0.0
C341 C 0.41307 0.98318 0.91026 0.0
C342 C 0.43851 0.99073 0.91745 0.0
C343 C 0.44175 0.98884 0.9358 0.0
C344 C 0.40023 0.93052 0.96323 0.0
C345 C 0.37337 0.91024 0.96482 0.0
C346 C 0.36453 0.88721 0.95598 0.0
C347 C 0.38237 0.88438 0.94525 0.0
C348 C 0.40877 0.90526 0.94295 0.0
C349 C 0.41764 0.92801 0.95194 0.0
C350 C 0.40289 0.92587 0.00172 0.0
C351 C 0.38116 0.91696 0.01344 0.0
C352 C 0.36995 0.89308 0.02141 0.0
C353 C 0.38035 0.87771 0.01779 0.0
C354 C 0.40226 0.88683 0.00609 0.0
C355 C 0.41349 0.91074 -0.00181 0.0
C356 C 0.43639 0.97097 0.0228 0.0
C357 C 0.42556 0.97791 0.03666 0.0
C358 C 0.43075 0.97501 0.05451 0.0
C359 C 0.44704 0.96535 0.05871 0.0
C360 C 0.45813 0.9588 0.04473 0.0
C361 C 0.45284 0.96158 0.02696 0.0
C362 C 0.46262 0.02061 0.00628 0.0
C363 C 0.45756 0.03981 0.00995 0.0
C364 C 0.47665 0.06169 0.01928 0.0
C365 C 0.50093 0.06452 0.02518 0.0
C366 C 0.50573 0.04511 0.0216 0.0
C367 C 0.48685 0.02346 0.01213 0.0
C368 C 0.40951 0.98513 0.89077 0.0
C369 C 0.36848 0.85231 0.02618 0.0
H370 H 0.54962 0.51427 0.01618 0.0
H371 H 0.6126 0.45852 0.20153 0.0
H372 H 0.50972 0.54169 0.10221 0.0
H373 H 0.50334 0.56593 0.0792 0.0
H374 H 0.57967 0.63307 0.094 0.0
H375 H 0.58603 0.60838 0.11692 0.0
H376 H 0.52782 0.50161 0.09296 0.0
H377 H 0.53046 0.49963 0.0604 0.0
H378 H 0.60091 0.57606 0.06058 0.0
H379 H 0.59823 0.57764 0.09315 0.0
H380 H 0.54057 0.47402 0.12408 0.0
H381 H 0.55879 0.44937 0.11236 0.0
H382 H 0.63294 0.51937 0.09918 0.0
H383 H 0.61454 0.5437 0.11081 0.0
H384 H 0.5266 0.48412 0.16318 0.0
H385 H 0.53484 0.45752 0.18296 0.0
H386 H 0.62019 0.50523 0.17245 0.0
H387 H 0.61167 0.53185 0.1529 0.0
H388 H 0.5108 0.52139 0.17208 0.0
H389 H 0.50713 0.51621 0.20472 0.0
H390 H 0.59399 0.56006 0.20923 0.0
H391 H 0.59739 0.56504 0.17676 0.0
H392 H 0.50673 0.56027 0.14088 0.0
H393 H 0.50094 0.59381 0.15282 0.0
H394 H 0.58319 0.63432 0.17224 0.0
H395 H 0.58877 0.60084 0.16023 0.0
O396 O 0.54903 0.51541 0.02907 0.0
O397 O 0.58511 0.55479 0.02988 0.0
O398 O 0.56473 0.44492 0.19888 0.0
O399 O 0.60877 0.46871 0.19379 0.0
C400 C 0.55389 0.55746 0.12285 0.0
C401 C 0.56082 0.54097 0.11513 0.0
C402 C 0.56613 0.52573 0.12619 0.0
C403 C 0.56345 0.52621 0.14491 0.0
C404 C 0.55662 0.5428 0.15256 0.0
C405 C 0.55243 0.55885 0.14159 0.0
C406 C 0.54835 0.57331 0.11109 0.0
C407 C 0.52476 0.56177 0.10072 0.0
C408 C 0.52111 0.57569 0.08767 0.0
C409 C 0.54106 0.6014 0.08479 0.0
C410 C 0.56409 0.61325 0.09586 0.0
C411 C 0.56768 0.59927 0.10898 0.0
C412 C 0.56274 0.5398 0.09538 0.0
C413 C 0.54385 0.51786 0.08593 0.0
C414 C 0.54538 0.5168 0.06734 0.0
C415 C 0.56586 0.53771 0.05788 0.0
C416 C 0.58485 0.55964 0.06744 0.0
C417 C 0.58333 0.56063 0.08603 0.0
C418 C 0.57627 0.51059 0.11827 0.0
C419 C 0.56067 0.48393 0.11855 0.0
C420 C 0.57112 0.46995 0.11191 0.0
C421 C 0.59728 0.48245 0.10483 0.0
C422 C 0.61258 0.50918 0.10428 0.0
C423 C 0.60217 0.5231 0.11097 0.0
C424 C 0.56853 0.50985 0.15661 0.0
C425 C 0.54705 0.48879 0.1652 0.0
C426 C 0.55182 0.47363 0.17647 0.0
C427 C 0.5782 0.47924 0.17928 0.0
C428 C 0.59965 0.50036 0.17058 0.0
C429 C 0.59485 0.51555 0.15937 0.0
C430 C 0.55435 0.54348 0.17219 0.0
C431 C 0.52895 0.53037 0.18023 0.0
C432 C 0.5269 0.52737 0.19878 0.0
C433 C 0.55027 0.53773 0.20946 0.0
C434 C 0.57564 0.55219 0.20137 0.0
C435 C 0.57766 0.55495 0.18285 0.0
C436 C 0.54813 0.57813 0.14974 0.0
C437 C 0.52339 0.57634 0.1478 0.0
C438 C 0.52018 0.59552 0.15456 0.0
C439 C 0.54163 0.61669 0.16345 0.0
C440 C 0.5662 0.6181 0.16566 0.0
C441 C 0.56943 0.59903 0.1588 0.0
C442 C 0.56734 0.53658 0.03811 0.0
C443 C 0.58338 0.4632 0.19124 0.0
C444 C 0.61876 0.4056 0.41039 0.0
O445 O 0.61855 0.41989 0.42322 0.0
O446 O 0.69105 0.46569 0.38957 0.0
Zn447 Zn 0.65165 0.45358 0.39137 0.0
O448 O 0.64393 0.47137 0.41066 0.0
C449 C 0.64075 0.48122 0.36598 0.0
O450 O 0.65501 0.49959 0.37757 0.0
O451 O 0.63134 0.41586 0.39601 0.0
C452 C 0.62002 0.46672 0.41029 0.0
O453 O 0.60288 0.45043 0.39841 0.0
C454 C 0.70675 0.48148 0.37792 0.0
O455 O 0.69773 0.49194 0.36705 0.0
O456 O 0.63761 0.45956 0.36849 0.0
C457 C 0.2762 0.6818 0.55511 0.0
O458 O 0.27808 0.66637 0.54408 0.0
O459 O 0.26796 0.62523 0.56933 0.0
Zn460 Zn 0.23943 0.63409 0.5688 0.0
O461 O 0.216 0.62114 0.54661 0.0
C462 C 0.20963 0.59859 0.5967 0.0
O463 O 0.22 0.58667 0.58916 0.0
O464 O 0.25962 0.67229 0.56794 0.0
C465 C 0.19655 0.59833 0.54421 0.0
O466 O 0.1913 0.58112 0.55641 0.0
C467 C 0.26664 0.60584 0.56256 0.0
O468 O 0.24465 0.58864 0.55412 0.0
O469 O 0.21572 0.62016 0.59067 0.0
C470 C 0.59999 0.25735 0.7232 0.0
O471 O 0.61006 0.24793 0.71236 0.0
O472 O 0.63325 0.2296 0.7464 0.0
Zn473 Zn 0.59381 0.2168 0.74432 0.0
O474 O 0.57528 0.19057 0.72485 0.0
C475 C 0.58538 0.19083 0.77729 0.0
O476 O 0.60449 0.18834 0.77059 0.0
O477 O 0.59096 0.24679 0.73826 0.0
C478 C 0.5764 0.17083 0.72298 0.0
O479 O 0.59075 0.16658 0.73433 0.0
C480 C 0.64866 0.23021 0.73429 0.0
O481 O 0.63884 0.22125 0.71827 0.0
O482 O 0.5767 0.20234 0.7682 0.0
C483 C 0.44078 0.69817 0.90541 0.0
O484 O 0.43565 0.6799 0.91667 0.0
O485 O 0.423 0.64034 0.88772 0.0
Zn486 Zn 0.45996 0.67203 0.8876 0.0
O487 O 0.48237 0.67235 0.90806 0.0
C488 C 0.46921 0.6529 0.85628 0.0
O489 O 0.45354 0.63181 0.86514 0.0
O490 O 0.45329 0.70016 0.89108 0.0
C491 C 0.48737 0.65505 0.91051 0.0
O492 O 0.47863 0.63651 0.89878 0.0
C493 C 0.41079 0.62361 0.89974 0.0
O494 O 0.42301 0.62545 0.91497 0.0
O495 O 0.47624 0.67408 0.86355 0.0
C496 C 0.74722 0.36489 0.07425 0.0
O497 O 0.74403 0.34767 0.08592 0.0
O498 O 0.75009 0.31366 0.05915 0.0
Zn499 Zn 0.78078 0.34993 0.06084 0.0
O500 O 0.80146 0.35685 0.08389 0.0
C501 C 0.81049 0.34351 0.03335 0.0
O502 O 0.80408 0.3232 0.04278 0.0
O503 O 0.76349 0.37033 0.06142 0.0
C504 C 0.82633 0.36494 0.08555 0.0
O505 O 0.84072 0.36856 0.07119 0.0
C506 C 0.74339 0.2965 0.07085 0.0
O507 O 0.75826 0.30161 0.08533 0.0
O508 O 0.80348 0.35847 0.03888 0.0
C509 C 0.49168 0.80726 0.22102 0.0
O510 O 0.47518 0.80974 0.21053 0.0
O511 O 0.43387 0.79502 0.24877 0.0
Zn512 Zn 0.47056 0.82654 0.2457 0.0
O513 O 0.46803 0.84913 0.22759 0.0
C514 C 0.47453 0.8318 0.28382 0.0
O515 O 0.46018 0.80684 0.28288 0.0
O516 O 0.49458 0.81471 0.23718 0.0
C517 C 0.48835 0.86699 0.21953 0.0
O518 O 0.51241 0.87139 0.22321 0.0
C519 C 0.41599 0.78561 0.23652 0.0
O520 O 0.42094 0.79724 0.22104 0.0
O521 O 0.48251 0.8446 0.26943 0.0
C522 C 0.19091 0.59541 0.24943 0.0
C523 C 0.18431 0.58398 0.2664 0.0
C524 C 0.21734 0.61477 0.2456 0.0
C525 C 0.27777 0.6645 0.26892 0.0
H526 H 0.31169 0.67472 0.22273 0.0
C527 C 0.3856 0.74846 0.25591 0.0
C528 C 0.39019 0.76139 0.23961 0.0
C529 C 0.36138 0.72549 0.25886 0.0
C530 C 0.30236 0.6722 0.23565 0.0
H531 H 0.20048 0.58306 0.29238 0.0
H532 H 0.24671 0.61645 0.28556 0.0
H533 H 0.26814 0.63581 0.22829 0.0
H534 H 0.37298 0.76028 0.21359 0.0
H535 H 0.33045 0.72031 0.21887 0.0
H536 H 0.31162 0.70097 0.27622 0.0
C537 C 0.23137 0.6107 0.2753 0.0
C538 C 0.27748 0.64991 0.23884 0.0
C539 C 0.20495 0.59135 0.27913 0.0
C540 C 0.37006 0.75079 0.22629 0.0
C541 C 0.34578 0.72779 0.22926 0.0
C542 C 0.30258 0.68674 0.26573 0.0
C543 C 0.2377 0.6231 0.25868 0.0
C544 C 0.26487 0.64589 0.25549 0.0
C545 C 0.34115 0.71494 0.24561 0.0
C546 C 0.3151 0.69092 0.24903 0.0
H547 H 0.17547 0.58993 0.23929 0.0
H548 H 0.22153 0.62401 0.2327 0.0
H549 H 0.26833 0.66224 0.28176 0.0
H550 H 0.40075 0.75601 0.26642 0.0
H551 H 0.35858 0.71589 0.27151 0.0
C552 C 0.53792 0.18087 0.43309 0.0
C553 C 0.51671 0.16862 0.4453 0.0
C554 C 0.54722 0.20568 0.42759 0.0
C555 C 0.53023 0.2556 0.42775 0.0
H556 H 0.60741 0.30075 0.42202 0.0
C557 C 0.58634 0.36558 0.4266 0.0
C558 C 0.60517 0.37785 0.41286 0.0
C559 C 0.57405 0.33943 0.42923 0.0
C560 C 0.5858 0.28828 0.42341 0.0
H561 H 0.4884 0.17236 0.46129 0.0
H562 H 0.50519 0.21603 0.45224 0.0
H563 H 0.58872 0.25619 0.42913 0.0
H564 H 0.62576 0.37238 0.39101 0.0
H565 H 0.60464 0.32675 0.3959 0.0
H566 H 0.52771 0.28826 0.42271 0.0
C567 C 0.51421 0.20636 0.44645 0.0
C568 C 0.57501 0.26269 0.4274 0.0
C569 C 0.50464 0.18139 0.45172 0.0
C570 C 0.61131 0.36345 0.40171 0.0
C571 C 0.59933 0.33739 0.40452 0.0
C572 C 0.5411 0.28132 0.42402 0.0
C573 C 0.53582 0.21893 0.43445 0.0
C574 C 0.54708 0.246 0.42964 0.0
C575 C 0.5807 0.32519 0.41835 0.0
C576 C 0.56897 0.29785 0.42184 0.0
H577 H 0.54732 0.17124 0.42782 0.0
H578 H 0.56346 0.21449 0.41802 0.0
H579 H 0.5086 0.24326 0.42908 0.0
H580 H 0.58113 0.37617 0.43535 0.0
H581 H 0.55986 0.33045 0.44006 0.0
C582 C 0.46275 0.59214 0.60026 0.0
C583 C 0.45559 0.56853 0.60766 0.0
C584 C 0.44289 0.5969 0.59499 0.0
C585 C 0.36942 0.57152 0.60019 0.0
H586 H 0.3807 0.61389 0.55894 0.0
C587 C 0.28433 0.57725 0.56582 0.0
C588 C 0.28906 0.60191 0.56551 0.0
C589 C 0.30517 0.5735 0.57017 0.0
C590 C 0.37739 0.60205 0.57049 0.0
H591 H 0.42163 0.53167 0.61568 0.0
H592 H 0.38742 0.53924 0.60544 0.0
H593 H 0.4161 0.60674 0.56835 0.0
H594 H 0.31944 0.64203 0.56871 0.0
H595 H 0.35609 0.63542 0.57576 0.0
H596 H 0.33027 0.56616 0.6018 0.0
C597 C 0.40831 0.55446 0.60411 0.0
C598 C 0.39771 0.59809 0.57601 0.0
C599 C 0.42808 0.5499 0.60968 0.0
C600 C 0.31522 0.6228 0.56894 0.0
C601 C 0.33618 0.61907 0.57288 0.0
C602 C 0.34896 0.57504 0.59443 0.0
C603 C 0.41537 0.57805 0.59676 0.0
C604 C 0.394 0.58275 0.59096 0.0
C605 C 0.33119 0.59437 0.57385 0.0
C606 C 0.35278 0.59033 0.57956 0.0
H607 H 0.48368 0.6069 0.59832 0.0
H608 H 0.44921 0.61545 0.58965 0.0
H609 H 0.36596 0.56015 0.61203 0.0
H610 H 0.26434 0.56082 0.5633 0.0
H611 H 0.30094 0.55428 0.57079 0.0
C612 C 0.89412 0.35605 0.75929 0.0
C613 C 0.89958 0.36595 0.77679 0.0
C614 C 0.86754 0.33957 0.75348 0.0
C615 C 0.79967 0.29498 0.77075 0.0
H616 H 0.77432 0.3052 0.7254 0.0
C617 C 0.68762 0.25105 0.75558 0.0
C618 C 0.67775 0.24233 0.73819 0.0
C619 C 0.71513 0.26377 0.75929 0.0
C620 C 0.78119 0.3018 0.73795 0.0
H621 H 0.88155 0.36629 0.80192 0.0
H622 H 0.83526 0.33775 0.79175 0.0
H623 H 0.82189 0.3325 0.73365 0.0
H624 H 0.68906 0.23967 0.7111 0.0
H625 H 0.73737 0.26186 0.71766 0.0
H626 H 0.7591 0.26451 0.7752 0.0
C627 C 0.85149 0.34261 0.78255 0.0
C628 C 0.8084 0.31747 0.74269 0.0
C629 C 0.87797 0.3592 0.7883 0.0
C630 C 0.69604 0.24619 0.72464 0.0
C631 C 0.7237 0.25901 0.72836 0.0
C632 C 0.77257 0.27927 0.766 0.0
C633 C 0.84599 0.33248 0.76513 0.0
C634 C 0.81776 0.31456 0.75931 0.0
C635 C 0.73354 0.26808 0.74572 0.0
C636 C 0.76288 0.28286 0.74974 0.0
H637 H 0.9104 0.36106 0.75011 0.0
H638 H 0.86388 0.33199 0.74 0.0
H639 H 0.80645 0.29196 0.78349 0.0
H640 H 0.67412 0.24842 0.76635 0.0
H641 H 0.72204 0.27085 0.77274 0.0
C642 C 0.38389 0.85703 0.92135 0.0
C643 C 0.37518 0.85918 0.93834 0.0
C644 C 0.3835 0.83513 0.91661 0.0
C645 C 0.39039 0.78708 0.93937 0.0
H646 H 0.38386 0.76035 0.89148 0.0
C647 C 0.41489 0.71091 0.92421 0.0
C648 C 0.43021 0.71466 0.90883 0.0
C649 C 0.40392 0.72569 0.92726 0.0
C650 C 0.38587 0.76774 0.9049 0.0
H651 H 0.35689 0.8392 0.96302 0.0
H652 H 0.35553 0.80066 0.95455 0.0
H653 H 0.36895 0.78965 0.89734 0.0
H654 H 0.44602 0.73684 0.88458 0.0
H655 H 0.42723 0.76306 0.89011 0.0
H656 H 0.40798 0.76587 0.94687 0.0
C657 C 0.36321 0.81613 0.94505 0.0
C658 C 0.37723 0.7844 0.90827 0.0
C659 C 0.36366 0.83808 0.94981 0.0
C660 C 0.43435 0.73354 0.89656 0.0
C661 C 0.42337 0.74837 0.89964 0.0
C662 C 0.39898 0.77046 0.93601 0.0
C663 C 0.37432 0.81493 0.92876 0.0
C664 C 0.3798 0.79456 0.92549 0.0
C665 C 0.40806 0.7446 0.91504 0.0
C666 C 0.39722 0.76092 0.9187 0.0
H667 H 0.39258 0.87293 0.91217 0.0
H668 H 0.39226 0.83487 0.90397 0.0
H669 H 0.39323 0.79498 0.9527 0.0
H670 H 0.41115 0.6964 0.93387 0.0
H671 H 0.39198 0.72214 0.93915 0.0
C672 C 0.60617 0.44761 0.10917 0.0
C673 C 0.60925 0.46789 0.09885 0.0
C674 C 0.61935 0.43528 0.10442 0.0
C675 C 0.6787 0.4464 0.08005 0.0
H676 H 0.64572 0.37371 0.08598 0.0
C677 C 0.73389 0.39479 0.06314 0.0
C678 C 0.73121 0.37677 0.07572 0.0
C679 C 0.71812 0.40541 0.06443 0.0
C680 C 0.65524 0.39406 0.08436 0.0
H681 H 0.62752 0.49038 0.07502 0.0
H682 H 0.65056 0.4688 0.06671 0.0
H683 H 0.6189 0.39258 0.09057 0.0
H684 H 0.71005 0.3559 0.09957 0.0
H685 H 0.68284 0.37459 0.10188 0.0
H686 H 0.71516 0.44793 0.07412 0.0
C687 C 0.63831 0.46273 0.07863 0.0
C688 C 0.63988 0.40485 0.08698 0.0
C689 C 0.62511 0.47506 0.08338 0.0
C690 C 0.71257 0.36969 0.08963 0.0
C691 C 0.69681 0.38024 0.09088 0.0
C692 C 0.69406 0.4356 0.07742 0.0
C693 C 0.63588 0.44296 0.08925 0.0
C694 C 0.65154 0.43118 0.08509 0.0
C695 C 0.69932 0.39814 0.07827 0.0
C696 C 0.68259 0.40937 0.07982 0.0
H697 H 0.5944 0.44188 0.12131 0.0
H698 H 0.61738 0.42035 0.11302 0.0
H699 H 0.68836 0.46681 0.07873 0.0
H700 H 0.74804 0.40059 0.05225 0.0
H701 H 0.72037 0.41905 0.05445 0.0
C702 C 0.40175 0.91342 0.53285 0.0
C703 C 0.41829 0.92075 0.5177 0.0
C704 C 0.38802 0.88825 0.53876 0.0
C705 C 0.38597 0.82782 0.53499 0.0
H706 H 0.31085 0.79716 0.54759 0.0
C707 C 0.31226 0.71952 0.53862 0.0
C708 C 0.29335 0.70964 0.5525 0.0
C709 C 0.32851 0.74571 0.53593 0.0
C710 C 0.33191 0.80553 0.54438 0.0
H711 H 0.4337 0.90752 0.49702 0.0
H712 H 0.40967 0.86355 0.50729 0.0
H713 H 0.33787 0.84224 0.54017 0.0
H714 H 0.27677 0.71954 0.57454 0.0
H715 H 0.30531 0.76546 0.56985 0.0
H716 H 0.37985 0.79098 0.53892 0.0
C717 C 0.4076 0.87733 0.51476 0.0
C718 C 0.34741 0.83137 0.54013 0.0
C719 C 0.42137 0.90252 0.50886 0.0
C720 C 0.29111 0.72656 0.5637 0.0
C721 C 0.30737 0.75284 0.56098 0.0
C722 C 0.37047 0.80199 0.53923 0.0
C723 C 0.3905 0.86984 0.52964 0.0
C724 C 0.37454 0.84275 0.53519 0.0
C725 C 0.32625 0.76268 0.54705 0.0
C726 C 0.34317 0.79048 0.54376 0.0
H727 H 0.39934 0.92714 0.54011 0.0
H728 H 0.37538 0.88319 0.55045 0.0
H729 H 0.40693 0.83611 0.53154 0.0
H730 H 0.31449 0.70704 0.52972 0.0
H731 H 0.34255 0.75265 0.52491 0.0
C732 C 0.59905 0.44165 0.6646 0.0
C733 C 0.58521 0.4492 0.67561 0.0
C734 C 0.60322 0.4225 0.67009 0.0
C735 C 0.60301 0.38661 0.70972 0.0
H736 H 0.58741 0.33425 0.67481 0.0
C737 C 0.58855 0.29018 0.72933 0.0
C738 C 0.59963 0.28013 0.71798 0.0
C739 C 0.58836 0.31176 0.72432 0.0
C740 C 0.59219 0.34887 0.68467 0.0
H741 H 0.56593 0.4434 0.70133 0.0
H742 H 0.57287 0.40975 0.71082 0.0
H743 H 0.58534 0.37087 0.6659 0.0
H744 H 0.6194 0.28499 0.69254 0.0
H745 H 0.61927 0.3227 0.68392 0.0
H746 H 0.60962 0.36445 0.72853 0.0
C747 C 0.58062 0.41869 0.69798 0.0
C748 C 0.59104 0.36989 0.67955 0.0
C749 C 0.57641 0.43778 0.69247 0.0
C750 C 0.61058 0.29216 0.70156 0.0
C751 C 0.61041 0.31373 0.69657 0.0
C752 C 0.60418 0.36559 0.71484 0.0
C753 C 0.5937 0.41056 0.68673 0.0
C754 C 0.59628 0.38892 0.69204 0.0
C755 C 0.59925 0.32375 0.70787 0.0
C756 C 0.59864 0.34641 0.70239 0.0
H757 H 0.6059 0.44996 0.65148 0.0
H758 H 0.61365 0.41686 0.66122 0.0
H759 H 0.60748 0.40113 0.71959 0.0
H760 H 0.57992 0.28133 0.74205 0.0
H761 H 0.5793 0.31882 0.73323 0.0
C762 C 0.1663 0.48352 0.875 0.0
C763 C 0.16099 0.49272 0.85934 0.0
C764 C 0.19244 0.49573 0.88212 0.0
C765 C 0.25677 0.55771 0.881 0.0
H766 H 0.28987 0.52057 0.89576 0.0
C767 C 0.3695 0.60331 0.88069 0.0
C768 C 0.38194 0.60412 0.89703 0.0
C769 C 0.34176 0.58747 0.87855 0.0
C770 C 0.28065 0.53107 0.89194 0.0
H771 H 0.17897 0.52107 0.83842 0.0
H772 H 0.22433 0.54225 0.85073 0.0
H773 H 0.24187 0.49717 0.88743 0.0
H774 H 0.3752 0.58765 0.92355 0.0
H775 H 0.32617 0.5594 0.91958 0.0
H776 H 0.29563 0.59147 0.88469 0.0
C777 C 0.2083 0.52607 0.85781 0.0
C778 C 0.25329 0.51777 0.8872 0.0
C779 C 0.18232 0.51394 0.85074 0.0
C780 C 0.36615 0.58754 0.91085 0.0
C781 C 0.3382 0.5714 0.9086 0.0
C782 C 0.28397 0.57089 0.88557 0.0
C783 C 0.21362 0.51733 0.87368 0.0
C784 C 0.24136 0.531 0.88114 0.0
C785 C 0.32583 0.57189 0.8926 0.0
C786 C 0.29629 0.55768 0.89057 0.0
H787 H 0.15017 0.46722 0.88192 0.0
H788 H 0.19598 0.48862 0.89439 0.0
H789 H 0.24797 0.56845 0.87683 0.0
H790 H 0.38103 0.61555 0.86967 0.0
H791 H 0.33262 0.58783 0.86599 0.0
C792 C 0.5361 0.08709 0.04905 0.0
C793 C 0.52203 0.08817 0.03414 0.0
C794 C 0.55804 0.10932 0.05625 0.0
C795 C 0.5932 0.17987 0.05549 0.0
H796 H 0.65668 0.17739 0.06571 0.0
C797 C 0.69981 0.2685 0.05479 0.0
C798 C 0.71767 0.27182 0.0687 0.0
C799 C 0.67491 0.24582 0.05307 0.0
C800 C 0.639 0.17829 0.06318 0.0
H801 H 0.51938 0.11334 0.01536 0.0
H802 H 0.55783 0.15212 0.02772 0.0
H803 H 0.61412 0.13822 0.05857 0.0
H804 H 0.72352 0.25374 0.09159 0.0
H805 H 0.67986 0.2137 0.08836 0.0
H806 H 0.61846 0.22012 0.05943 0.0
C807 C 0.55168 0.13419 0.03411 0.0
C808 C 0.61459 0.15586 0.05913 0.0
C809 C 0.52965 0.11197 0.02699 0.0
C810 C 0.7102 0.25175 0.08073 0.0
C811 C 0.68527 0.22886 0.07888 0.0
C812 C 0.61764 0.20229 0.05941 0.0
C813 C 0.56645 0.13309 0.04861 0.0
C814 C 0.59153 0.15647 0.05488 0.0
C815 C 0.66732 0.22582 0.06512 0.0
C816 C 0.64089 0.20177 0.06293 0.0
H817 H 0.53039 0.06898 0.05497 0.0
H818 H 0.56867 0.10786 0.06762 0.0
H819 H 0.57571 0.18094 0.05263 0.0
H820 H 0.70489 0.28356 0.04529 0.0
H821 H 0.66166 0.24383 0.04216 0.0
C822 C 0.54901 0.64891 0.18675 0.0
C823 C 0.53878 0.63769 0.1699 0.0
C824 C 0.54707 0.66924 0.19255 0.0
C825 C 0.53824 0.72018 0.17579 0.0
H826 H 0.5144 0.72039 0.22398 0.0
C827 C 0.49857 0.78314 0.19722 0.0
C828 C 0.50357 0.7928 0.21476 0.0
C829 C 0.50673 0.76679 0.19183 0.0
C830 C 0.52158 0.7209 0.21059 0.0
H831 H 0.51866 0.63908 0.14589 0.0
H832 H 0.51495 0.67435 0.1561 0.0
H833 H 0.52047 0.68623 0.21457 0.0
H834 H 0.52232 0.79389 0.24015 0.0
H835 H 0.53691 0.76555 0.23064 0.0
H836 H 0.53909 0.75468 0.17173 0.0
C837 C 0.52466 0.66756 0.16477 0.0
C838 C 0.52496 0.70126 0.20518 0.0
C839 C 0.52648 0.64716 0.15901 0.0
C840 C 0.51804 0.78668 0.22656 0.0
C841 C 0.52622 0.77029 0.22116 0.0
C842 C 0.53495 0.73985 0.18121 0.0
C843 C 0.53501 0.67887 0.18157 0.0
C844 C 0.53294 0.70049 0.18764 0.0
C845 C 0.52016 0.75974 0.20384 0.0
C846 C 0.52618 0.74024 0.19859 0.0
H847 H 0.55843 0.64189 0.19548 0.0
H848 H 0.55534 0.67765 0.20552 0.0
H849 H 0.54489 0.72034 0.16228 0.0
H850 H 0.4875 0.78748 0.18777 0.0
H851 H 0.50147 0.75882 0.17845 0.0
C852 C 0.91931 0.5124 0.32703 0.0
C853 C 0.92744 0.49699 0.33491 0.0
C854 C 0.89562 0.51057 0.33235 0.0
C855 C 0.84783 0.49015 0.3695 0.0
H856 H 0.80098 0.49166 0.33334 0.0
C857 C 0.74192 0.47132 0.38471 0.0
C858 C 0.73378 0.48569 0.37521 0.0
C859 C 0.76622 0.47335 0.38071 0.0
C860 C 0.81402 0.49157 0.34363 0.0
H861 H 0.91706 0.46749 0.35451 0.0
H862 H 0.87531 0.46409 0.36375 0.0
H863 H 0.8414 0.49289 0.3243 0.0
H864 H 0.74544 0.51439 0.35471 0.0
H865 H 0.78797 0.51821 0.34797 0.0
H866 H 0.82039 0.48892 0.38883 0.0
C867 C 0.88749 0.47775 0.35354 0.0
C868 C 0.83714 0.49219 0.33844 0.0
C869 C 0.91121 0.4795 0.34814 0.0
C870 C 0.75098 0.50288 0.36217 0.0
C871 C 0.77528 0.50495 0.35821 0.0
C872 C 0.82466 0.48958 0.37471 0.0
C873 C 0.87947 0.49328 0.34569 0.0
C874 C 0.85439 0.49165 0.3513 0.0
C875 C 0.78291 0.48981 0.36717 0.0
C876 C 0.80759 0.49045 0.36182 0.0
H877 H 0.93124 0.52585 0.31664 0.0
H878 H 0.89014 0.52298 0.32616 0.0
H879 H 0.8609 0.48999 0.37973 0.0
H880 H 0.72912 0.45789 0.39484 0.0
H881 H 0.77143 0.46131 0.38779 0.0
C882 C 0.06765 0.52187 0.40583 0.0
C883 C 0.06266 0.53857 0.39635 0.0
C884 C 0.07806 0.52766 0.42323 0.0
C885 C 0.12287 0.58188 0.45038 0.0
H886 H 0.09693 0.53492 0.49025 0.0
C887 C 0.17847 0.61031 0.51828 0.0
C888 C 0.1794 0.59147 0.52804 0.0
C889 C 0.16188 0.60383 0.50319 0.0
C890 C 0.10468 0.54816 0.4792 0.0
H891 H 0.06316 0.57369 0.39837 0.0
H892 H 0.08243 0.5842 0.42853 0.0
H893 H 0.07099 0.52301 0.46236 0.0
H894 H 0.16394 0.55115 0.5296 0.0
H895 H 0.136 0.53992 0.50278 0.0
H896 H 0.15723 0.60651 0.46658 0.0
C897 C 0.07817 0.56664 0.42236 0.0
C898 C 0.08966 0.54138 0.46331 0.0
C899 C 0.06729 0.56066 0.40506 0.0
C900 C 0.16351 0.56605 0.52238 0.0
C901 C 0.1473 0.55961 0.50707 0.0
C902 C 0.13814 0.58849 0.46612 0.0
C903 C 0.08411 0.55042 0.43144 0.0
C904 C 0.09871 0.55815 0.44875 0.0
C905 C 0.14622 0.57842 0.49727 0.0
C906 C 0.12935 0.57167 0.48073 0.0
H907 H 0.06485 0.50493 0.39955 0.0
H908 H 0.08273 0.51497 0.42992 0.0
H909 H 0.13048 0.59497 0.43922 0.0
H910 H 0.19025 0.63005 0.52247 0.0
H911 H 0.16121 0.6188 0.49627 0.0
C912 C 0.48465 0.03799 0.58795 0.0
C913 C 0.4752 0.04946 0.57637 0.0
C914 C 0.49169 0.04637 0.60565 0.0
C915 C 0.48518 0.08465 0.64093 0.0
H916 H 0.55557 0.09987 0.6563 0.0
C917 C 0.54653 0.15784 0.69594 0.0
C918 C 0.56192 0.15312 0.70792 0.0
C919 C 0.53326 0.14157 0.68149 0.0
C920 C 0.53566 0.09532 0.65239 0.0
H921 H 0.46524 0.07838 0.57446 0.0
H922 H 0.47719 0.09271 0.60526 0.0
H923 H 0.53617 0.077 0.6283 0.0
H924 H 0.57515 0.12736 0.71424 0.0
H925 H 0.55182 0.09883 0.68895 0.0
H926 H 0.48496 0.10352 0.6648 0.0
C927 C 0.47886 0.07705 0.60076 0.0
C928 C 0.52453 0.0822 0.63634 0.0
C929 C 0.47194 0.06877 0.58309 0.0
C930 C 0.56351 0.13158 0.70522 0.0
C931 C 0.55023 0.11528 0.6907 0.0
C932 C 0.49629 0.09773 0.65698 0.0
C933 C 0.48931 0.0663 0.61215 0.0
C934 C 0.49945 0.07724 0.63024 0.0
C935 C 0.53503 0.12016 0.67864 0.0
C936 C 0.52193 0.10375 0.66268 0.0
H937 H 0.48706 0.02285 0.58325 0.0
H938 H 0.49938 0.03751 0.61418 0.0
H939 H 0.46562 0.08074 0.63673 0.0
H940 H 0.5449 0.17429 0.69759 0.0
H941 H 0.52211 0.14615 0.67228 0.0
C942 C 0.53874 0.61361 0.71692 0.0
C943 C 0.52091 0.60444 0.70222 0.0
C944 C 0.53408 0.62471 0.73147 0.0
C945 C 0.52495 0.65518 0.75875 0.0
H946 H 0.45188 0.61512 0.77646 0.0
C947 C 0.49217 0.67363 0.82741 0.0
C948 C 0.47653 0.65153 0.83765 0.0
C949 C 0.49767 0.67178 0.80948 0.0
C950 C 0.47235 0.62658 0.77164 0.0
H951 H 0.48494 0.60087 0.69086 0.0
H952 H 0.47668 0.62024 0.71644 0.0
H953 H 0.46209 0.60602 0.74699 0.0
H954 H 0.45483 0.61026 0.83721 0.0
H955 H 0.46456 0.60714 0.80619 0.0
H956 H 0.53538 0.6748 0.78391 0.0
C957 C 0.49413 0.61858 0.71671 0.0
C958 C 0.47814 0.62158 0.75466 0.0
C959 C 0.49881 0.60744 0.70211 0.0
C960 C 0.46683 0.62766 0.8297 0.0
C961 C 0.47219 0.62584 0.81186 0.0
C962 C 0.51913 0.66021 0.77576 0.0
C963 C 0.51145 0.62688 0.73169 0.0
C964 C 0.50466 0.63529 0.74826 0.0
C965 C 0.48743 0.64783 0.80151 0.0
C966 C 0.49294 0.64536 0.78258 0.0
H967 H 0.55569 0.61119 0.71756 0.0
H968 H 0.54751 0.63043 0.74293 0.0
H969 H 0.54551 0.66628 0.75405 0.0
H970 H 0.49991 0.69229 0.83318 0.0
H971 H 0.50951 0.68903 0.80179 0.0
C972 C 0.9074 0.39219 0.88314 0.0
C973 C 0.92265 0.3815 0.87901 0.0
C974 C 0.89317 0.38618 0.89914 0.0
C975 C 0.86571 0.34078 0.93648 0.0
H976 H 0.87946 0.39958 0.96388 0.0
C977 C 0.83401 0.33297 0.01039 0.0
C978 C 0.82398 0.34797 0.0159 0.0
C979 C 0.84563 0.33647 0.99353 0.0
C980 C 0.87505 0.3829 0.95633 0.0
H981 H 0.93385 0.35517 0.88808 0.0
H982 H 0.90853 0.34432 0.91589 0.0
H983 H 0.89834 0.40541 0.93411 0.0
H984 H 0.81829 0.37842 0.00803 0.0
H985 H 0.83793 0.38413 0.97857 0.0
H986 H 0.84216 0.31822 0.95862 0.0
C987 C 0.90764 0.35736 0.90672 0.0
C988 C 0.8859 0.38626 0.93927 0.0
C989 C 0.92204 0.3635 0.89075 0.0
C990 C 0.826 0.36667 0.00426 0.0
C991 C 0.83739 0.37002 0.98736 0.0
C992 C 0.85462 0.33738 0.95352 0.0
C993 C 0.89371 0.36921 0.91129 0.0
C994 C 0.88135 0.36526 0.92916 0.0
C995 C 0.84729 0.35492 0.98175 0.0
C996 C 0.85918 0.35842 0.96367 0.0
H997 H 0.90707 0.40578 0.87423 0.0
H998 H 0.88218 0.39523 0.90219 0.0
H999 H 0.86178 0.32426 0.92892 0.0
H1000 H 0.83285 0.31847 0.01908 0.0
H1001 H 0.85345 0.3248 0.98978 0.0
C1002 C 0.43025 0.94934 0.08963 0.0
C1003 C 0.45174 0.96107 0.07754 0.0
C1004 C 0.43409 0.9427 0.10676 0.0
C1005 C 0.48613 0.95295 0.14012 0.0
H1006 H 0.43297 0.88377 0.15404 0.0
C1007 C 0.50608 0.89856 0.19447 0.0
C1008 C 0.48454 0.88149 0.20539 0.0
C1009 C 0.50193 0.91089 0.18034 0.0
C1010 C 0.44779 0.90329 0.15056 0.0
H1011 H 0.49441 0.97643 0.07425 0.0
H1012 H 0.50103 0.96457 0.10404 0.0
H1013 H 0.42586 0.90122 0.12699 0.0
H1014 H 0.44198 0.86476 0.21053 0.0
H1015 H 0.43487 0.88654 0.18612 0.0
H1016 H 0.50827 0.9548 0.16359 0.0
C1017 C 0.48125 0.96055 0.10034 0.0
C1018 C 0.44369 0.9133 0.13503 0.0
C1019 C 0.4774 0.9671 0.08321 0.0
C1020 C 0.45897 0.87763 0.20226 0.0
C1021 C 0.45485 0.89002 0.1882 0.0
C1022 C 0.49021 0.94294 0.15571 0.0
C1023 C 0.4595 0.94777 0.11217 0.0
C1024 C 0.46295 0.93813 0.12951 0.0
C1025 C 0.47616 0.90647 0.17688 0.0
C1026 C 0.47121 0.91787 0.161 0.0
H1027 H 0.41023 0.94433 0.08562 0.0
H1028 H 0.41701 0.93314 0.11566 0.0
H1029 H 0.5012 0.97225 0.13631 0.0
H1030 H 0.52602 0.90193 0.19652 0.0
H1031 H 0.51873 0.92321 0.17176 0.0
C1032 C 0.53284 0.50526 0.23368 0.0
C1033 C 0.54865 0.53089 0.22856 0.0
C1034 C 0.53574 0.49783 0.25074 0.0
C1035 C 0.5666 0.52086 0.29558 0.0
H1036 H 0.5835 0.46866 0.2913 0.0
C1037 C 0.63255 0.50966 0.34715 0.0
C1038 C 0.62668 0.48513 0.35112 0.0
C1039 C 0.61852 0.51333 0.33359 0.0
C1040 C 0.57833 0.48287 0.29289 0.0
H1041 H 0.57799 0.56913 0.23763 0.0
H1042 H 0.58318 0.55617 0.26744 0.0
H1043 H 0.56445 0.47818 0.26585 0.0
H1044 H 0.60124 0.44514 0.3442 0.0
H1045 H 0.57645 0.45149 0.3207 0.0
H1046 H 0.58102 0.52587 0.32256 0.0
C1047 C 0.56854 0.54181 0.25833 0.0
C1048 C 0.56736 0.48831 0.27828 0.0
C1049 C 0.56574 0.54922 0.24124 0.0
C1050 C 0.60643 0.46431 0.34131 0.0
C1051 C 0.59223 0.46796 0.32784 0.0
C1052 C 0.5774 0.51528 0.31026 0.0
C1053 C 0.55441 0.51593 0.26296 0.0
C1054 C 0.56195 0.50774 0.27935 0.0
C1055 C 0.59815 0.49253 0.3238 0.0
C1056 C 0.584 0.49664 0.30893 0.0
H1057 H 0.51963 0.4907 0.22413 0.0
H1058 H 0.52439 0.47779 0.25406 0.0
H1059 H 0.5624 0.53578 0.29678 0.0
H1060 H 0.64808 0.52608 0.35447 0.0
H1061 H 0.62398 0.53256 0.33059 0.0
C1062 C 0.4919 0.96816 0.40571 0.0
C1063 C 0.47469 0.95687 0.42037 0.0
C1064 C 0.49318 0.95318 0.39237 0.0
C1065 C 0.45499 0.88887 0.37257 0.0
H1066 H 0.52348 0.91084 0.35021 0.0
C1067 C 0.46482 0.83073 0.31647 0.0
C1068 C 0.47843 0.8448 0.30117 0.0
C1069 C 0.46605 0.84312 0.33238 0.0
C1070 C 0.50422 0.90451 0.35631 0.0
H1071 H 0.44533 0.92102 0.4326 0.0
H1072 H 0.44773 0.89467 0.40931 0.0
H1073 H 0.52192 0.9346 0.37563 0.0
H1074 H 0.50499 0.88286 0.2908 0.0
H1075 H 0.50722 0.90445 0.31859 0.0
H1076 H 0.43731 0.85887 0.35314 0.0
C1077 C 0.46001 0.91517 0.40804 0.0
C1078 C 0.50328 0.91814 0.37083 0.0
C1079 C 0.45864 0.93022 0.42138 0.0
C1080 C 0.49423 0.87148 0.30234 0.0
C1081 C 0.49561 0.88384 0.31828 0.0
C1082 C 0.45596 0.87514 0.35812 0.0
C1083 C 0.47735 0.9265 0.39339 0.0
C1084 C 0.47859 0.91076 0.37893 0.0
C1085 C 0.48111 0.8698 0.33335 0.0
C1086 C 0.48052 0.88307 0.34966 0.0
H1087 H 0.50411 0.98867 0.40438 0.0
H1088 H 0.50625 0.96256 0.38108 0.0
H1089 H 0.4356 0.88282 0.37834 0.0
H1090 H 0.45252 0.81015 0.31604 0.0
H1091 H 0.45492 0.83182 0.34385 0.0
C1092 C 0.57691 0.55159 0.53916 0.0
C1093 C 0.55014 0.53945 0.54498 0.0
C1094 C 0.58256 0.54878 0.52155 0.0
C1095 C 0.55188 0.50151 0.48576 0.0
H1096 H 0.61715 0.54979 0.46063 0.0
C1097 C 0.58454 0.47296 0.42258 0.0
C1098 C 0.61132 0.4791 0.42295 0.0
C1099 C 0.5758 0.48384 0.43488 0.0
C1100 C 0.59883 0.53616 0.4675 0.0
H1101 H 0.50829 0.51669 0.53668 0.0
H1102 H 0.51813 0.51213 0.50569 0.0
H1103 H 0.60312 0.5639 0.48647 0.0
H1104 H 0.65019 0.50214 0.43608 0.0
H1105 H 0.6348 0.52099 0.45775 0.0
H1106 H 0.54792 0.47366 0.46713 0.0
C1107 C 0.53476 0.52331 0.51486 0.0
C1108 C 0.59078 0.54421 0.48227 0.0
C1109 C 0.52911 0.52595 0.53256 0.0
C1110 C 0.6294 0.49694 0.43553 0.0
C1111 C 0.62066 0.5079 0.44782 0.0
C1112 C 0.5598 0.49354 0.47096 0.0
C1113 C 0.56154 0.53388 0.50935 0.0
C1114 C 0.56762 0.52679 0.49188 0.0
C1115 C 0.59367 0.50116 0.44777 0.0
C1116 C 0.58373 0.51061 0.46198 0.0
H1117 H 0.59353 0.56185 0.5485 0.0
H1118 H 0.6034 0.5569 0.51788 0.0
H1119 H 0.5342 0.48744 0.493 0.0
H1120 H 0.57014 0.45945 0.41294 0.0
H1121 H 0.55495 0.47849 0.43443 0.0
C1122 C 0.06153 0.5029 0.72622 0.0
C1123 C 0.0511 0.4766 0.72689 0.0
C1124 C 0.07491 0.51701 0.71104 0.0
C1125 C 0.08956 0.51114 0.66337 0.0
H1126 H 0.15511 0.57631 0.67289 0.0
C1127 C 0.17793 0.55993 0.61428 0.0
C1128 C 0.1897 0.58607 0.61114 0.0
C1129 C 0.15862 0.54766 0.62756 0.0
C1130 C 0.13667 0.55832 0.67001 0.0
H1131 H 0.04529 0.44436 0.71161 0.0
H1132 H 0.06957 0.46907 0.68547 0.0
H1133 H 0.12494 0.55256 0.69742 0.0
H1134 H 0.19055 0.61988 0.61953 0.0
H1135 H 0.15706 0.5984 0.64315 0.0
H1136 H 0.10219 0.51654 0.63604 0.0
C1137 C 0.06706 0.47879 0.69656 0.0
C1138 C 0.11927 0.5447 0.68404 0.0
C1139 C 0.0534 0.46462 0.71168 0.0
C1140 C 0.18183 0.59973 0.62165 0.0
C1141 C 0.16274 0.58748 0.63516 0.0
C1142 C 0.10715 0.52463 0.64939 0.0
C1143 C 0.07852 0.50527 0.6962 0.0
C1144 C 0.09567 0.52075 0.68096 0.0
C1145 C 0.15087 0.5613 0.63816 0.0
C1146 C 0.13105 0.54817 0.65263 0.0
H1147 H 0.06048 0.51291 0.73771 0.0
H1148 H 0.083 0.53726 0.71112 0.0
H1149 H 0.07134 0.49303 0.66042 0.0
H1150 H 0.18346 0.54882 0.60638 0.0
H1151 H 0.15005 0.52754 0.62975 0.0
C1152 C 0.48644 0.10166 0.92458 0.0
C1153 C 0.49396 0.08439 0.92945 0.0
C1154 C 0.49743 0.11698 0.90941 0.0
C1155 C 0.55446 0.14248 0.87823 0.0
H1156 H 0.50475 0.14108 0.84307 0.0
C1157 C 0.58391 0.16734 0.80481 0.0
C1158 C 0.57488 0.18099 0.79536 0.0
C1159 C 0.57461 0.15842 0.82201 0.0
C1160 C 0.51898 0.14207 0.85286 0.0
H1161 H 0.51895 0.06975 0.922 0.0
H1162 H 0.53848 0.09681 0.89607 0.0
H1163 H 0.48807 0.12136 0.87226 0.0
H1164 H 0.54893 0.19597 0.79656 0.0
H1165 H 0.53285 0.18053 0.82677 0.0
H1166 H 0.58533 0.16286 0.85887 0.0
C1167 C 0.52432 0.09872 0.90406 0.0
C1168 C 0.50941 0.13078 0.86957 0.0
C1169 C 0.51317 0.08327 0.91903 0.0
C1170 C 0.55621 0.18543 0.80348 0.0
C1171 C 0.54694 0.17653 0.82076 0.0
C1172 C 0.56405 0.15387 0.8616 0.0
C1173 C 0.51636 0.11551 0.89896 0.0
C1174 C 0.52697 0.13035 0.88225 0.0
C1175 C 0.55614 0.16301 0.83025 0.0
C1176 C 0.54632 0.15324 0.84855 0.0
H1177 H 0.47191 0.10323 0.93238 0.0
H1178 H 0.49108 0.1299 0.90583 0.0
H1179 H 0.56851 0.14277 0.88786 0.0
H1180 H 0.59816 0.16345 0.79892 0.0
H1181 H 0.58169 0.1476 0.82877 0.0
C1182 C 0.56108 0.62843 0.05762 0.0
C1183 C 0.53894 0.61469 0.06904 0.0
C1184 C 0.5579 0.637 0.04108 0.0
C1185 C 0.50575 0.61793 0.00733 0.0
H1186 H 0.5567 0.68191 0.98448 0.0
C1187 C 0.49944 0.63208 0.93228 0.0
C1188 C 0.49932 0.65393 0.92766 0.0
C1189 C 0.50724 0.62956 0.94944 0.0
C1190 C 0.54232 0.664 0.99074 0.0
H1191 H 0.49675 0.60103 0.0728 0.0
H1192 H 0.49117 0.61595 0.04385 0.0
H1193 H 0.56365 0.67497 0.01582 0.0
H1194 H 0.50893 0.69097 0.93699 0.0
H1195 H 0.52261 0.68652 0.96694 0.0
H1196 H 0.48439 0.60688 0.98241 0.0
C1197 C 0.51084 0.6197 0.04759 0.0
C1198 C 0.54633 0.66001 0.0086 0.0
C1199 C 0.51403 0.61119 0.06413 0.0
C1200 C 0.50865 0.67382 0.94019 0.0
C1201 C 0.51662 0.67136 0.95731 0.0
C1202 C 0.50188 0.62182 0.9895 0.0
C1203 C 0.53252 0.6319 0.03567 0.0
C1204 C 0.52801 0.63695 0.01705 0.0
C1205 C 0.51525 0.64891 0.96224 0.0
C1206 C 0.52013 0.64484 0.98102 0.0
H1207 H 0.58046 0.63117 0.06095 0.0
H1208 H 0.5749 0.64622 0.0321 0.0
H1209 H 0.49153 0.59981 0.01341 0.0
H1210 H 0.4925 0.61648 0.92291 0.0
H1211 H 0.5064 0.61221 0.95285 0.0
C1212 C 0.94667 0.46835 0.22414 0.0
C1213 C 0.94468 0.45254 0.23829 0.0
C1214 C 0.93246 0.45791 0.20818 0.0
C1215 C 0.87664 0.39845 0.18754 0.0
H1216 H 0.91473 0.43062 0.14375 0.0
C1217 C 0.8244 0.37164 0.11835 0.0
C1218 C 0.83919 0.37215 0.10346 0.0
C1219 C 0.8368 0.38007 0.13507 0.0
C1220 C 0.9039 0.42119 0.15583 0.0
H1221 H 0.92515 0.41333 0.24702 0.0
H1222 H 0.90098 0.39509 0.21899 0.0
H1223 H 0.93658 0.44806 0.17245 0.0
H1224 H 0.87842 0.38112 0.09461 0.0
H1225 H 0.89998 0.39533 0.12393 0.0
H1226 H 0.84427 0.37111 0.17086 0.0
C1227 C 0.91331 0.41559 0.22029 0.0
C1228 C 0.91627 0.43146 0.17232 0.0
C1229 C 0.92739 0.42605 0.23631 0.0
C1230 C 0.8665 0.38063 0.10579 0.0
C1231 C 0.8789 0.38894 0.12257 0.0
C1232 C 0.86432 0.38808 0.17102 0.0
C1233 C 0.91607 0.4314 0.20591 0.0
C1234 C 0.90274 0.42033 0.18839 0.0
C1235 C 0.86427 0.38908 0.13736 0.0
C1236 C 0.87775 0.3994 0.15496 0.0
H1237 H 0.96002 0.48881 0.22508 0.0
H1238 H 0.93465 0.47068 0.19752 0.0
H1239 H 0.86556 0.38948 0.19964 0.0
H1240 H 0.80331 0.36528 0.11703 0.0
H1241 H 0.82499 0.38023 0.14607 0.0
loop_
_geom_bond_atom_site_label_1
_geom_bond_atom_site_label_2
_geom_bond_distance
_geom_bond_site_symmetry_2
_ccdc_geom_bond_type
H0 O26 0.856 . S
H1 O29 0.854 . S
H2 C37 0.930 1_455 S
H3 C38 0.930 . S
H4 C40 0.930 . S
H5 C41 0.930 . S
H6 C43 0.931 . S
H7 C44 0.930 . S
H8 C46 0.930 . S
H9 C47 0.929 . S
H10 C49 0.930 . S
H11 C50 0.931 . S
H12 C52 0.930 . S
H13 C53 0.929 . S
H14 C55 0.931 . S
H15 C56 0.930 . S
H16 C58 0.930 . S
H17 C59 0.932 . S
H18 C61 0.930 . S
H19 C62 0.929 . S
H20 C64 0.931 . S
H21 C65 0.930 . S
H22 C67 0.929 . S
H23 C68 0.931 . S
H24 C70 0.930 . S
H25 C71 0.926 1_455 S
O26 H0 0.856 . S
O26 C72 1.300 . S
O27 C72 1.209 . S
O28 C73 1.199 . S
O29 H1 0.854 . S
O29 C73 1.297 . S
C30 C31 1.404 . S
C30 C35 1.397 . S
C30 C36 1.492 . S
C31 C30 1.404 . S
C31 C32 1.396 . S
C31 C42 1.492 . S
C32 C31 1.396 . S
C32 C33 1.397 . S
C32 C48 1.509 . S
C33 C32 1.397 . S
C33 C34 1.412 . S
C33 C54 1.485 . S
C34 C33 1.412 . S
C34 C35 1.388 . S
C34 C60 1.490 . S
C35 C30 1.397 . S
C35 C34 1.388 . S
C35 C66 1.519 1_455 S
C36 C30 1.492 . S
C36 C37 1.363 1_455 S
C36 C41 1.390 1_455 S
C37 H2 0.930 1_655 S
C37 C36 1.363 1_655 S
C37 C38 1.372 . S
C38 H3 0.930 . S
C38 C37 1.372 . S
C38 C39 1.383 . S
C39 C38 1.383 . S
C39 C40 1.395 . S
C40 H4 0.930 . S
C40 C39 1.395 . S
C40 C41 1.362 . S
C41 H5 0.930 . S
C41 C36 1.390 1_655 S
C41 C40 1.362 . S
C42 C31 1.492 . S
C42 C43 1.377 . S
C42 C47 1.397 . S
C43 H6 0.931 . S
C43 C42 1.377 . S
C43 C44 1.376 . S
C44 H7 0.930 . S
C44 C43 1.376 . S
C44 C45 1.376 . S
C45 C44 1.376 . S
C45 C46 1.378 . S
C45 C72 1.486 . S
C46 H8 0.930 . S
C46 C45 1.378 . S
C46 C47 1.376 . S
C47 H9 0.929 . S
C47 C42 1.397 . S
C47 C46 1.376 . S
C48 C32 1.509 . S
C48 C49 1.391 . S
C48 C53 1.386 . S
C49 H10 0.930 . S
C49 C48 1.391 . S
C49 C50 1.375 . S
C50 H11 0.931 . S
C50 C49 1.375 . S
C50 C51 1.375 . S
C51 C50 1.375 . S
C51 C52 1.361 . S
C52 H12 0.930 . S
C52 C51 1.361 . S
C52 C53 1.399 . S
C53 H13 0.929 . S
C53 C48 1.386 . S
C53 C52 1.399 . S
C54 C33 1.485 . S
C54 C55 1.394 . S
C54 C59 1.360 . S
C55 H14 0.931 . S
C55 C54 1.394 . S
C55 C56 1.372 . S
C56 H15 0.930 . S
C56 C55 1.372 . S
C56 C57 1.397 . S
C57 C56 1.397 . S
C57 C58 1.390 . S
C57 C73 1.476 . S
C58 H16 0.930 . S
C58 C57 1.390 . S
C58 C59 1.366 . S
C59 H17 0.932 . S
C59 C54 1.360 . S
C59 C58 1.366 . S
C60 C34 1.490 . S
C60 C61 1.380 . S
C60 C65 1.386 . S
C61 H18 0.930 . S
C61 C60 1.380 . S
C61 C62 1.381 . S
C62 H19 0.929 . S
C62 C61 1.381 . S
C62 C63 1.371 . S
C63 C62 1.371 . S
C63 C64 1.380 . S
C64 H20 0.931 . S
C64 C63 1.380 . S
C64 C65 1.387 . S
C65 H21 0.930 . S
C65 C60 1.386 . S
C65 C64 1.387 . S
C66 C35 1.519 1_655 S
C66 C67 1.377 . S
C66 C71 1.361 . S
C67 H22 0.929 . S
C67 C66 1.377 . S
C67 C68 1.386 . S
C68 H23 0.931 . S
C68 C67 1.386 . S
C68 C69 1.363 . S
C69 C68 1.363 . S
C69 C70 1.385 . S
C70 H24 0.930 . S
C70 C69 1.385 . S
C70 C71 1.396 . S
C71 H25 0.926 1_655 S
C71 C66 1.361 . S
C71 C70 1.396 . S
C72 O26 1.300 . S
C72 O27 1.209 . S
C72 C45 1.486 . S
C73 O28 1.199 . S
C73 O29 1.297 . S
C73 C57 1.476 . S
H74 O100 0.856 . S
H75 O103 0.854 . S
H76 C111 0.930 . S
H77 C112 0.930 . S
H78 C114 0.930 . S
H79 C115 0.930 . S
H80 C117 0.931 . S
H81 C118 0.930 . S
H82 C120 0.930 . S
H83 C121 0.929 . S
H84 C123 0.930 . S
H85 C124 0.931 . S
H86 C126 0.930 . S
H87 C127 0.929 . S
H88 C129 0.931 . S
H89 C130 0.930 . S
H90 C132 0.930 . S
H91 C133 0.932 . S
H92 C135 0.930 . S
H93 C136 0.929 . S
H94 C138 0.931 . S
H95 C139 0.930 . S
H96 C141 0.929 1_545 S
H97 C142 0.931 . S
H98 C144 0.930 . S
H99 C145 0.914 1_545 S
O100 H74 0.856 . S
O100 C146 1.300 . S
O101 C146 1.209 . S
O102 C147 1.199 . S
O103 H75 0.854 . S
O103 C147 1.297 . S
C104 C105 1.404 . S
C104 C109 1.397 . S
C104 C110 1.492 . S
C105 C104 1.404 . S
C105 C106 1.396 . S
C105 C116 1.492 . S
C106 C105 1.396 . S
C106 C107 1.397 . S
C106 C122 1.509 . S
C107 C106 1.397 . S
C107 C108 1.412 . S
C107 C128 1.485 . S
C108 C107 1.412 . S
C108 C109 1.388 . S
C108 C134 1.490 . S
C109 C104 1.397 . S
C109 C108 1.388 . S
C109 C140 1.519 . S
C110 C104 1.492 . S
C110 C111 1.363 . S
C110 C115 1.390 1_545 S
C111 H76 0.930 . S
C111 C110 1.363 . S
C111 C112 1.372 1_545 S
C112 H77 0.930 . S
C112 C111 1.372 1_565 S
C112 C113 1.383 . S
C113 C112 1.383 . S
C113 C114 1.395 . S
C114 H78 0.930 . S
C114 C113 1.395 . S
C114 C115 1.362 . S
C115 H79 0.930 . S
C115 C110 1.390 1_565 S
C115 C114 1.362 . S
C116 C105 1.492 . S
C116 C117 1.377 . S
C116 C121 1.397 . S
C117 H80 0.931 . S
C117 C116 1.377 . S
C117 C118 1.376 . S
C118 H81 0.930 . S
C118 C117 1.376 . S
C118 C119 1.376 . S
C119 C118 1.376 . S
C119 C120 1.378 . S
C119 C146 1.486 . S
C120 H82 0.930 . S
C120 C119 1.378 . S
C120 C121 1.376 . S
C121 H83 0.929 . S
C121 C116 1.397 . S
C121 C120 1.376 . S
C122 C106 1.509 . S
C122 C123 1.391 . S
C122 C127 1.386 . S
C123 H84 0.930 . S
C123 C122 1.391 . S
C123 C124 1.375 . S
C124 H85 0.931 . S
C124 C123 1.375 . S
C124 C125 1.375 . S
C125 C124 1.375 . S
C125 C126 1.361 . S
C126 H86 0.930 . S
C126 C125 1.361 . S
C126 C127 1.399 . S
C127 H87 0.929 . S
C127 C122 1.386 . S
C127 C126 1.399 . S
C128 C107 1.485 . S
C128 C129 1.394 . S
C128 C133 1.360 . S
C129 H88 0.931 . S
C129 C128 1.394 . S
C129 C130 1.372 . S
C130 H89 0.930 . S
C130 C129 1.372 . S
C130 C131 1.397 . S
C131 C130 1.397 . S
C131 C132 1.390 . S
C131 C147 1.476 . S
C132 H90 0.930 . S
C132 C131 1.390 . S
C132 C133 1.366 . S
C133 H91 0.932 . S
C133 C128 1.360 . S
C133 C132 1.366 . S
C134 C108 1.490 . S
C134 C135 1.380 . S
C134 C139 1.386 . S
C135 H92 0.930 . S
C135 C134 1.380 . S
C135 C136 1.381 . S
C136 H93 0.929 . S
C136 C135 1.381 . S
C136 C137 1.371 . S
C137 C136 1.371 . S
C137 C138 1.380 . S
C138 H94 0.931 . S
C138 C137 1.380 . S
C138 C139 1.387 . S
C139 H95 0.930 . S
C139 C134 1.386 . S
C139 C138 1.387 . S
C140 C109 1.519 . S
C140 C141 1.377 1_545 S
C140 C145 1.363 1_545 S
C141 H96 0.929 1_565 S
C141 C140 1.377 1_565 S
C141 C142 1.386 . S
C142 H97 0.931 . S
C142 C141 1.386 . S
C142 C143 1.363 . S
C143 C142 1.363 . S
C143 C144 1.385 . S
C144 H98 0.930 . S
C144 C143 1.385 . S
C144 C145 1.408 . S
C145 H99 0.914 1_565 S
C145 C140 1.363 1_565 S
C145 C144 1.408 . S
C146 O100 1.300 . S
C146 O101 1.209 . S
C146 C119 1.486 . S
C147 O102 1.199 . S
C147 O103 1.297 . S
C147 C131 1.476 . S
H148 O174 0.856 . S
H149 O177 0.854 . S
H150 C185 0.930 . S
H151 C186 0.930 . S
H152 C188 0.930 . S
H153 C189 0.930 . S
H154 C191 0.931 . S
H155 C192 0.930 . S
H156 C194 0.930 . S
H157 C195 0.929 . S
H158 C197 0.930 . S
H159 C198 0.931 . S
H160 C200 0.930 . S
H161 C201 0.929 . S
H162 C203 0.931 . S
H163 C204 0.930 . S
H164 C206 0.930 . S
H165 C207 0.932 . S
H166 C209 0.930 . S
H167 C210 0.929 . S
H168 C212 0.931 . S
H169 C213 0.930 . S
H170 C215 0.929 . S
H171 C216 0.931 . S
H172 C218 0.930 . S
H173 C219 0.929 . S
O174 H148 0.856 . S
O174 C220 1.300 . S
O175 C220 1.209 . S
O176 C221 1.199 . S
O177 H149 0.854 . S
O177 C221 1.297 . S
C178 C179 1.404 . S
C178 C183 1.397 . S
C178 C184 1.492 . S
C179 C178 1.404 . S
C179 C180 1.396 . S
C179 C190 1.492 . S
C180 C179 1.396 . S
C180 C181 1.397 . S
C180 C196 1.509 . S
C181 C180 1.397 . S
C181 C182 1.412 . S
C181 C202 1.485 . S
C182 C181 1.412 . S
C182 C183 1.388 . S
C182 C208 1.490 . S
C183 C178 1.397 . S
C183 C182 1.388 . S
C183 C214 1.519 . S
C184 C178 1.492 . S
C184 C185 1.363 . S
C184 C189 1.390 . S
C185 H150 0.930 . S
C185 C184 1.363 . S
C185 C186 1.372 . S
C186 H151 0.930 . S
C186 C185 1.372 . S
C186 C187 1.383 . S
C187 C186 1.383 . S
C187 C188 1.395 . S
C188 H152 0.930 . S
C188 C187 1.395 . S
C188 C189 1.362 . S
C189 H153 0.930 . S
C189 C184 1.390 . S
C189 C188 1.362 . S
C190 C179 1.492 . S
C190 C191 1.377 . S
C190 C195 1.397 . S
C191 H154 0.931 . S
C191 C190 1.377 . S
C191 C192 1.376 . S
C192 H155 0.930 . S
C192 C191 1.376 . S
C192 C193 1.376 . S
C193 C192 1.376 . S
C193 C194 1.378 . S
C193 C220 1.486 . S
C194 H156 0.930 . S
C194 C193 1.378 . S
C194 C195 1.376 . S
C195 H157 0.929 . S
C195 C190 1.397 . S
C195 C194 1.376 . S
C196 C180 1.509 . S
C196 C197 1.391 . S
C196 C201 1.386 . S
C197 H158 0.930 . S
C197 C196 1.391 . S
C197 C198 1.375 . S
C198 H159 0.931 . S
C198 C197 1.375 . S
C198 C199 1.375 . S
C199 C198 1.375 . S
C199 C200 1.361 . S
C200 H160 0.930 . S
C200 C199 1.361 . S
C200 C201 1.399 . S
C201 H161 0.929 . S
C201 C196 1.386 . S
C201 C200 1.399 . S
C202 C181 1.485 . S
C202 C203 1.394 . S
C202 C207 1.360 . S
C203 H162 0.931 . S
C203 C202 1.394 . S
C203 C204 1.372 . S
C204 H163 0.930 . S
C204 C203 1.372 . S
C204 C205 1.397 . S
C205 C204 1.397 . S
C205 C206 1.390 . S
C205 C221 1.476 . S
C206 H164 0.930 . S
C206 C205 1.390 . S
C206 C207 1.366 . S
C207 H165 0.932 . S
C207 C202 1.360 . S
C207 C206 1.366 . S
C208 C182 1.490 . S
C208 C209 1.380 . S
C208 C213 1.386 . S
C209 H166 0.930 . S
C209 C208 1.380 . S
C209 C210 1.381 . S
C210 H167 0.929 . S
C210 C209 1.381 . S
C210 C211 1.371 . S
C211 C210 1.371 . S
C211 C212 1.380 . S
C212 H168 0.931 . S
C212 C211 1.380 . S
C212 C213 1.387 . S
C213 H169 0.930 . S
C213 C208 1.386 . S
C213 C212 1.387 . S
C214 C183 1.519 . S
C214 C215 1.377 . S
C214 C219 1.361 . S
C215 H170 0.929 . S
C215 C214 1.377 . S
C215 C216 1.386 . S
C216 H171 0.931 . S
C216 C215 1.386 . S
C216 C217 1.363 . S
C217 C216 1.363 . S
C217 C218 1.385 . S
C218 H172 0.930 . S
C218 C217 1.385 . S
C218 C219 1.396 . S
C219 H173 0.929 . S
C219 C214 1.361 . S
C219 C218 1.396 . S
C220 O174 1.300 . S
C220 O175 1.209 . S
C220 C193 1.486 . S
C221 O176 1.199 . S
C221 O177 1.297 . S
C221 C205 1.476 . S
H222 O248 0.856 . S
H223 O251 0.854 . S
H224 C259 0.930 1_455 S
H225 C260 0.930 . S
H226 C262 0.930 . S
H227 C263 0.930 . S
H228 C265 0.931 . S
H229 C266 0.930 . S
H230 C268 0.930 . S
H231 C269 0.929 . S
H232 C271 0.930 . S
H233 C272 0.931 . S
H234 C274 0.930 . S
H235 C275 0.929 . S
H236 C277 0.931 . S
H237 C278 0.930 . S
H238 C280 0.930 . S
H239 C281 0.932 . S
H240 C283 0.930 . S
H241 C284 0.929 . S
H242 C286 0.931 . S
H243 C287 0.930 . S
H244 C289 0.929 . S
H245 C290 0.931 . S
H246 C292 0.930 . S
H247 C293 0.929 . S
O248 H222 0.856 . S
O248 C294 1.300 . S
O249 C294 1.209 . S
O250 C295 1.199 . S
O251 H223 0.854 . S
O251 C295 1.297 . S
C252 C253 1.404 . S
C252 C257 1.397 . S
C252 C258 1.492 1_455 S
C253 C252 1.404 . S
C253 C254 1.396 . S
C253 C264 1.492 . S
C254 C253 1.396 . S
C254 C255 1.397 . S
C254 C270 1.509 . S
C255 C254 1.397 . S
C255 C256 1.412 . S
C255 C276 1.485 . S
C256 C255 1.412 . S
C256 C257 1.388 . S
C256 C282 1.490 . S
C257 C252 1.397 . S
C257 C256 1.388 . S
C257 C288 1.519 1_455 S
C258 C252 1.492 1_655 S
C258 C259 1.363 . S
C258 C263 1.390 . S
C259 H224 0.930 1_655 S
C259 C258 1.363 . S
C259 C260 1.372 . S
C260 H225 0.930 . S
C260 C259 1.372 . S
C260 C261 1.383 . S
C261 C260 1.383 . S
C261 C262 1.395 . S
C262 H226 0.930 . S
C262 C261 1.395 . S
C262 C263 1.362 . S
C263 H227 0.930 . S
C263 C258 1.390 . S
C263 C262 1.362 . S
C264 C253 1.492 . S
C264 C265 1.377 . S
C264 C269 1.397 . S
C265 H228 0.931 . S
C265 C264 1.377 . S
C265 C266 1.376 . S
C266 H229 0.930 . S
C266 C265 1.376 . S
C266 C267 1.376 . S
C267 C266 1.376 . S
C267 C268 1.378 . S
C267 C294 1.486 . S
C268 H230 0.930 . S
C268 C267 1.378 . S
C268 C269 1.376 . S
C269 H231 0.929 . S
C269 C264 1.397 . S
C269 C268 1.376 . S
C270 C254 1.509 . S
C270 C271 1.391 . S
C270 C275 1.386 . S
C271 H232 0.930 . S
C271 C270 1.391 . S
C271 C272 1.375 . S
C272 H233 0.931 . S
C272 C271 1.375 . S
C272 C273 1.375 . S
C273 C272 1.375 . S
C273 C274 1.361 . S
C274 H234 0.930 . S
C274 C273 1.361 . S
C274 C275 1.399 . S
C275 H235 0.929 . S
C275 C270 1.386 . S
C275 C274 1.399 . S
C276 C255 1.485 . S
C276 C277 1.394 . S
C276 C281 1.360 . S
C277 H236 0.931 . S
C277 C276 1.394 . S
C277 C278 1.372 . S
C278 H237 0.930 . S
C278 C277 1.372 . S
C278 C279 1.397 . S
C279 C278 1.397 . S
C279 C280 1.390 . S
C279 C295 1.476 . S
C280 H238 0.930 . S
C280 C279 1.390 . S
C280 C281 1.366 . S
C281 H239 0.932 . S
C281 C276 1.360 . S
C281 C280 1.366 . S
C282 C256 1.490 . S
C282 C283 1.380 . S
C282 C287 1.386 . S
C283 H240 0.930 . S
C283 C282 1.380 . S
C283 C284 1.381 . S
C284 H241 0.929 . S
C284 C283 1.381 . S
C284 C285 1.371 . S
C285 C284 1.371 . S
C285 C286 1.380 . S
C286 H242 0.931 . S
C286 C285 1.380 . S
C286 C287 1.387 . S
C287 H243 0.930 . S
C287 C282 1.386 . S
C287 C286 1.387 . S
C288 C257 1.519 1_655 S
C288 C289 1.377 . S
C288 C293 1.361 . S
C289 H244 0.929 . S
C289 C288 1.377 . S
C289 C290 1.386 . S
C290 H245 0.931 . S
C290 C289 1.386 . S
C290 C291 1.363 . S
C291 C290 1.363 . S
C291 C292 1.385 . S
C292 H246 0.930 . S
C292 C291 1.385 . S
C292 C293 1.396 . S
C293 H247 0.929 . S
C293 C288 1.361 . S
C293 C292 1.396 . S
C294 O248 1.300 . S
C294 O249 1.209 . S
C294 C267 1.486 . S
C295 O250 1.199 . S
C295 O251 1.297 . S
C295 C279 1.476 . S
H296 O322 0.856 . S
H297 O325 0.854 . S
H298 C333 0.930 . S
H299 C334 0.930 . S
H300 C336 0.930 . S
H301 C337 0.930 . S
H302 C339 0.931 . S
H303 C340 0.930 . S
H304 C342 0.930 . S
H305 C343 0.929 . S
H306 C345 0.930 . S
H307 C346 0.931 . S
H308 C348 0.930 . S
H309 C349 0.929 . S
H310 C351 0.931 . S
H311 C352 0.930 . S
H312 C354 0.930 . S
H313 C355 0.932 1_556 S
H314 C357 0.930 . S
H315 C358 0.929 . S
H316 C360 0.931 . S
H317 C361 0.930 . S
H318 C363 0.929 . S
H319 C364 0.931 . S
H320 C366 0.930 . S
H321 C367 0.929 . S
O322 H296 0.856 . S
O322 C368 1.300 . S
O323 C368 1.209 . S
O324 C369 1.199 . S
O325 H297 0.854 . S
O325 C369 1.297 . S
C326 C327 1.404 . S
C326 C331 1.397 . S
C326 C332 1.492 1_565 S
C327 C326 1.404 . S
C327 C328 1.396 . S
C327 C338 1.492 . S
C328 C327 1.396 . S
C328 C329 1.397 . S
C328 C344 1.509 . S
C329 C328 1.397 . S
C329 C330 1.412 1_556 S
C329 C350 1.485 1_556 S
C330 C329 1.412 1_554 S
C330 C331 1.388 1_554 S
C330 C356 1.490 . S
C331 C326 1.397 . S
C331 C330 1.388 1_556 S
C331 C362 1.519 1_565 S
C332 C326 1.492 1_545 S
C332 C333 1.363 . S
C332 C337 1.390 . S
C333 H298 0.930 . S
C333 C332 1.363 . S
C333 C334 1.372 . S
C334 H299 0.930 . S
C334 C333 1.372 . S
C334 C335 1.383 . S
C335 C334 1.383 . S
C335 C336 1.395 . S
C336 H300 0.930 . S
C336 C335 1.395 . S
C336 C337 1.362 . S
C337 H301 0.930 . S
C337 C332 1.390 . S
C337 C336 1.362 . S
C338 C327 1.492 . S
C338 C339 1.377 . S
C338 C343 1.397 . S
C339 H302 0.931 . S
C339 C338 1.377 . S
C339 C340 1.376 . S
C340 H303 0.930 . S
C340 C339 1.376 . S
C340 C341 1.376 . S
C341 C340 1.376 . S
C341 C342 1.378 . S
C341 C368 1.486 . S
C342 H304 0.930 . S
C342 C341 1.378 . S
C342 C343 1.376 . S
C343 H305 0.929 . S
C343 C338 1.397 . S
C343 C342 1.376 . S
C344 C328 1.509 . S
C344 C345 1.391 . S
C344 C349 1.386 . S
C345 H306 0.930 . S
C345 C344 1.391 . S
C345 C346 1.375 . S
C346 H307 0.931 . S
C346 C345 1.375 . S
C346 C347 1.375 . S
C347 C346 1.375 . S
C347 C348 1.361 . S
C348 H308 0.930 . S
C348 C347 1.361 . S
C348 C349 1.399 . S
C349 H309 0.929 . S
C349 C344 1.386 . S
C349 C348 1.399 . S
C350 C329 1.485 1_554 S
C350 C351 1.394 . S
C350 C355 1.360 . S
C351 H310 0.931 . S
C351 C350 1.394 . S
C351 C352 1.372 . S
C352 H311 0.930 . S
C352 C351 1.372 . S
C352 C353 1.397 . S
C353 C352 1.397 . S
C353 C354 1.390 . S
C353 C369 1.476 . S
C354 H312 0.930 . S
C354 C353 1.390 . S
C354 C355 1.366 . S
C355 H313 0.932 1_554 S
C355 C350 1.360 . S
C355 C354 1.366 . S
C356 C330 1.490 . S
C356 C357 1.380 . S
C356 C361 1.386 . S
C357 H314 0.930 . S
C357 C356 1.380 . S
C357 C358 1.381 . S
C358 H315 0.929 . S
C358 C357 1.381 . S
C358 C359 1.371 . S
C359 C358 1.371 . S
C359 C360 1.380 . S
C360 H316 0.931 . S
C360 C359 1.380 . S
C360 C361 1.387 . S
C361 H317 0.930 . S
C361 C356 1.386 . S
C361 C360 1.387 . S
C362 C331 1.519 1_545 S
C362 C363 1.377 . S
C362 C367 1.361 1_556 S
C363 H318 0.929 . S
C363 C362 1.377 . S
C363 C364 1.386 1_556 S
C364 H319 0.931 . S
C364 C363 1.386 1_554 S
C364 C365 1.363 . S
C365 C364 1.363 . S
C365 C366 1.385 . S
C366 H320 0.930 . S
C366 C365 1.385 . S
C366 C367 1.396 . S
C367 H321 0.929 . S
C367 C362 1.361 1_554 S
C367 C366 1.396 . S
C368 O322 1.300 . S
C368 O323 1.209 . S
C368 C341 1.486 . S
C369 O324 1.199 . S
C369 O325 1.297 . S
C369 C353 1.476 . S
H370 O396 0.856 . S
H371 O399 0.854 . S
H372 C407 0.930 . S
H373 C408 0.930 . S
H374 C410 0.930 . S
H375 C411 0.930 . S
H376 C413 0.931 . S
H377 C414 0.930 . S
H378 C416 0.930 . S
H379 C417 0.929 . S
H380 C419 0.930 . S
H381 C420 0.931 . S
H382 C422 0.930 . S
H383 C423 0.929 . S
H384 C425 0.931 . S
H385 C426 0.930 . S
H386 C428 0.930 . S
H387 C429 0.932 . S
H388 C431 0.930 . S
H389 C432 0.929 . S
H390 C434 0.931 . S
H391 C435 0.930 . S
H392 C437 0.929 . S
H393 C438 0.931 . S
H394 C440 0.930 . S
H395 C441 0.929 . S
O396 H370 0.856 . S
O396 C442 1.300 . S
O397 C442 1.209 . S
O398 C443 1.199 . S
O399 H371 0.854 . S
O399 C443 1.297 . S
C400 C401 1.404 . S
C400 C405 1.397 . S
C400 C406 1.492 . S
C401 C400 1.404 . S
C401 C402 1.396 . S
C401 C412 1.492 . S
C402 C401 1.396 . S
C402 C403 1.397 . S
C402 C418 1.509 . S
C403 C402 1.397 . S
C403 C404 1.412 . S
C403 C424 1.485 . S
C404 C403 1.412 . S
C404 C405 1.388 . S
C404 C430 1.490 . S
C405 C400 1.397 . S
C405 C404 1.388 . S
C405 C436 1.519 . S
C406 C400 1.492 . S
C406 C407 1.363 . S
C406 C411 1.390 . S
C407 H372 0.930 . S
C407 C406 1.363 . S
C407 C408 1.372 . S
C408 H373 0.930 . S
C408 C407 1.372 . S
C408 C409 1.383 . S
C409 C408 1.383 . S
C409 C410 1.395 . S
C410 H374 0.930 . S
C410 C409 1.395 . S
C410 C411 1.362 . S
C411 H375 0.930 . S
C411 C406 1.390 . S
C411 C410 1.362 . S
C412 C401 1.492 . S
C412 C413 1.377 . S
C412 C417 1.397 . S
C413 H376 0.931 . S
C413 C412 1.377 . S
C413 C414 1.376 . S
C414 H377 0.930 . S
C414 C413 1.376 . S
C414 C415 1.376 . S
C415 C414 1.376 . S
C415 C416 1.378 . S
C415 C442 1.486 . S
C416 H378 0.930 . S
C416 C415 1.378 . S
C416 C417 1.376 . S
C417 H379 0.929 . S
C417 C412 1.397 . S
C417 C416 1.376 . S
C418 C402 1.509 . S
C418 C419 1.391 . S
C418 C423 1.386 . S
C419 H380 0.930 . S
C419 C418 1.391 . S
C419 C420 1.375 . S
C420 H381 0.931 . S
C420 C419 1.375 . S
C420 C421 1.375 . S
C421 C420 1.375 . S
C421 C422 1.361 . S
C422 H382 0.930 . S
C422 C421 1.361 . S
C422 C423 1.399 . S
C423 H383 0.929 . S
C423 C418 1.386 . S
C423 C422 1.399 . S
C424 C403 1.485 . S
C424 C425 1.394 . S
C424 C429 1.360 . S
C425 H384 0.931 . S
C425 C424 1.394 . S
C425 C426 1.372 . S
C426 H385 0.930 . S
C426 C425 1.372 . S
C426 C427 1.397 . S
C427 C426 1.397 . S
C427 C428 1.390 . S
C427 C443 1.476 . S
C428 H386 0.930 . S
C428 C427 1.390 . S
C428 C429 1.366 . S
C429 H387 0.932 . S
C429 C424 1.360 . S
C429 C428 1.366 . S
C430 C404 1.490 . S
C430 C431 1.380 . S
C430 C435 1.386 . S
C431 H388 0.930 . S
C431 C430 1.380 . S
C431 C432 1.381 . S
C432 H389 0.929 . S
C432 C431 1.381 . S
C432 C433 1.371 . S
C433 C432 1.371 . S
C433 C434 1.380 . S
C434 H390 0.931 . S
C434 C433 1.380 . S
C434 C435 1.387 . S
C435 H391 0.930 . S
C435 C430 1.386 . S
C435 C434 1.387 . S
C436 C405 1.519 . S
C436 C437 1.377 . S
C436 C441 1.361 . S
C437 H392 0.929 . S
C437 C436 1.377 . S
C437 C438 1.386 . S
C438 H393 0.931 . S
C438 C437 1.386 . S
C438 C439 1.363 . S
C439 C438 1.363 . S
C439 C440 1.385 . S
C440 H394 0.930 . S
C440 C439 1.385 . S
C440 C441 1.396 . S
C441 H395 0.929 . S
C441 C436 1.361 . S
C441 C440 1.396 . S
C442 O396 1.300 . S
C442 O397 1.209 . S
C442 C415 1.486 . S
C443 O398 1.199 . S
C443 O399 1.297 . S
C443 C427 1.476 . S
C444 O445 1.160 . S
C444 O451 1.185 . S
O445 C444 1.160 . S
O446 Zn447 1.899 . S
O446 C454 1.284 . S
Zn447 O446 1.899 . S
Zn447 O448 2.032 . S
Zn447 O451 2.086 . S
Zn447 O456 1.977 . S
O448 Zn447 2.032 . S
O448 C452 1.278 . S
C449 O450 1.203 . S
C449 O456 1.267 . S
O450 C449 1.203 . S
O451 C444 1.185 . S
O451 Zn447 2.086 . S
C452 O448 1.278 . S
C452 O453 1.211 . S
O453 C452 1.211 . S
C454 O446 1.284 . S
C454 O455 1.273 . S
O455 C454 1.273 . S
O456 Zn447 1.977 . S
O456 C449 1.267 . S
C457 O458 1.160 . S
C457 O464 1.185 . S
O458 C457 1.160 . S
O459 Zn460 1.899 . S
O459 C467 1.284 . S
Zn460 O459 1.899 . S
Zn460 O461 2.032 . S
Zn460 O464 2.086 . S
Zn460 O469 1.977 . S
O461 Zn460 2.032 . S
O461 C465 1.278 . S
C462 O463 1.203 . S
C462 O469 1.267 . S
O463 C462 1.203 . S
O464 C457 1.185 . S
O464 Zn460 2.086 . S
C465 O461 1.278 . S
C465 O466 1.211 . S
O466 C465 1.211 . S
C467 O459 1.284 . S
C467 O468 1.273 . S
O468 C467 1.273 . S
O469 Zn460 1.977 . S
O469 C462 1.267 . S
C470 O471 1.160 . S
C470 O477 1.185 . S
O471 C470 1.160 . S
O472 Zn473 1.899 . S
O472 C480 1.284 . S
Zn473 O472 1.899 . S
Zn473 O474 2.032 . S
Zn473 O477 2.086 . S
Zn473 O482 1.977 . S
O474 Zn473 2.032 . S
O474 C478 1.278 . S
C475 O476 1.203 . S
C475 O482 1.267 . S
O476 C475 1.203 . S
O477 C470 1.185 . S
O477 Zn473 2.086 . S
C478 O474 1.278 . S
C478 O479 1.211 . S
O479 C478 1.211 . S
C480 O472 1.284 . S
C480 O481 1.273 . S
O481 C480 1.273 . S
O482 Zn473 1.977 . S
O482 C475 1.267 . S
C483 O484 1.160 . S
C483 O490 1.185 . S
O484 C483 1.160 . S
O485 Zn486 1.899 . S
O485 C493 1.284 . S
Zn486 O485 1.899 . S
Zn486 O487 2.032 . S
Zn486 O490 2.086 . S
Zn486 O495 1.977 . S
O487 Zn486 2.032 . S
O487 C491 1.278 . S
C488 O489 1.203 . S
C488 O495 1.267 . S
O489 C488 1.203 . S
O490 C483 1.185 . S
O490 Zn486 2.086 . S
C491 O487 1.278 . S
C491 O492 1.211 . S
O492 C491 1.211 . S
C493 O485 1.284 . S
C493 O494 1.273 . S
O494 C493 1.273 . S
O495 Zn486 1.977 . S
O495 C488 1.267 . S
C496 O497 1.160 . S
C496 O503 1.185 . S
O497 C496 1.160 . S
O498 Zn499 1.899 . S
O498 C506 1.284 . S
Zn499 O498 1.899 . S
Zn499 O500 2.032 . S
Zn499 O503 2.086 . S
Zn499 O508 1.977 . S
O500 Zn499 2.032 . S
O500 C504 1.278 . S
C501 O502 1.203 . S
C501 O508 1.267 . S
O502 C501 1.203 . S
O503 C496 1.185 . S
O503 Zn499 2.086 . S
C504 O500 1.278 . S
C504 O505 1.211 . S
O505 C504 1.211 . S
C506 O498 1.284 . S
C506 O507 1.273 . S
O507 C506 1.273 . S
O508 Zn499 1.977 . S
O508 C501 1.267 . S
C509 O510 1.160 . S
C509 O516 1.185 . S
O510 C509 1.160 . S
O511 Zn512 1.899 . S
O511 C519 1.284 . S
Zn512 O511 1.899 . S
Zn512 O513 2.032 . S
Zn512 O516 2.086 . S
Zn512 O521 1.977 . S
O513 Zn512 2.032 . S
O513 C517 1.278 . S
C514 O515 1.203 . S
C514 O521 1.267 . S
O515 C514 1.203 . S
O516 C509 1.185 . S
O516 Zn512 2.086 . S
C517 O513 1.278 . S
C517 O518 1.211 . S
O518 C517 1.211 . S
C519 O511 1.284 . S
C519 O520 1.273 . S
O520 C519 1.273 . S
O521 Zn512 1.977 . S
O521 C514 1.267 . S
C522 C523 1.349 . S
C522 C524 1.327 . S
C522 H547 0.950 . S
C523 C522 1.349 . S
C523 C539 1.349 . S
C524 C522 1.327 . S
C524 C543 1.429 . S
C524 H548 0.950 . S
C525 C542 1.574 . S
C525 C544 1.368 . S
C525 H549 0.949 . S
H526 C530 0.949 . S
C527 C528 1.349 . S
C527 C529 1.327 . S
C527 H550 0.950 . S
C528 C527 1.349 . S
C528 C540 1.349 . S
C529 C527 1.327 . S
C529 C545 1.429 . S
C529 H551 0.950 . S
C530 H526 0.949 . S
C530 C538 1.574 . S
C530 C546 1.368 . S
H531 C539 0.950 . S
H532 C537 0.950 . S
H533 C538 0.949 . S
H534 C540 0.950 . S
H535 C541 0.950 . S
H536 C542 0.949 . S
C537 H532 0.950 . S
C537 C539 1.327 . S
C537 C543 1.429 . S
C538 C530 1.574 . S
C538 H533 0.949 . S
C538 C544 1.368 . S
C539 C523 1.349 . S
C539 H531 0.950 . S
C539 C537 1.327 . S
C540 C528 1.349 . S
C540 H534 0.950 . S
C540 C541 1.327 . S
C541 H535 0.950 . S
C541 C540 1.327 . S
C541 C545 1.429 . S
C542 C525 1.574 . S
C542 H536 0.949 . S
C542 C546 1.368 . S
C543 C524 1.429 . S
C543 C537 1.429 . S
C543 C544 1.523 . S
C544 C525 1.368 . S
C544 C538 1.368 . S
C544 C543 1.523 . S
C545 C529 1.429 . S
C545 C541 1.429 . S
C545 C546 1.523 . S
C546 C530 1.368 . S
C546 C542 1.368 . S
C546 C545 1.523 . S
H547 C522 0.950 . S
H548 C524 0.950 . S
H549 C525 0.949 . S
H550 C527 0.950 . S
H551 C529 0.950 . S
C552 C553 1.349 . S
C552 C554 1.327 . S
C552 H577 0.950 . S
C553 C552 1.349 . S
C553 C569 1.349 . S
C554 C552 1.327 . S
C554 C573 1.429 . S
C554 H578 0.950 . S
C555 C572 1.574 . S
C555 C574 1.368 . S
C555 H579 0.949 . S
H556 C560 0.949 . S
C557 C558 1.349 . S
C557 C559 1.327 . S
C557 H580 0.950 . S
C558 C557 1.349 . S
C558 C570 1.349 . S
C559 C557 1.327 . S
C559 C575 1.429 . S
C559 H581 0.950 . S
C560 H556 0.949 . S
C560 C568 1.574 . S
C560 C576 1.368 . S
H561 C569 0.950 . S
H562 C567 0.950 . S
H563 C568 0.949 . S
H564 C570 0.950 . S
H565 C571 0.950 . S
H566 C572 0.949 . S
C567 H562 0.950 . S
C567 C569 1.327 . S
C567 C573 1.429 . S
C568 C560 1.574 . S
C568 H563 0.949 . S
C568 C574 1.368 . S
C569 C553 1.349 . S
C569 H561 0.950 . S
C569 C567 1.327 . S
C570 C558 1.349 . S
C570 H564 0.950 . S
C570 C571 1.327 . S
C571 H565 0.950 . S
C571 C570 1.327 . S
C571 C575 1.429 . S
C572 C555 1.574 . S
C572 H566 0.949 . S
C572 C576 1.368 . S
C573 C554 1.429 . S
C573 C567 1.429 . S
C573 C574 1.523 . S
C574 C555 1.368 . S
C574 C568 1.368 . S
C574 C573 1.523 . S
C575 C559 1.429 . S
C575 C571 1.429 . S
C575 C576 1.523 . S
C576 C560 1.368 . S
C576 C572 1.368 . S
C576 C575 1.523 . S
H577 C552 0.950 . S
H578 C554 0.950 . S
H579 C555 0.949 . S
H580 C557 0.950 . S
H581 C559 0.950 . S
C582 C583 1.349 . S
C582 C584 1.327 . S
C582 H607 0.950 . S
C583 C582 1.349 . S
C583 C599 1.349 . S
C584 C582 1.327 . S
C584 C603 1.429 . S
C584 H608 0.950 . S
C585 C602 1.574 . S
C585 C604 1.368 . S
C585 H609 0.949 . S
H586 C590 0.949 . S
C587 C588 1.349 . S
C587 C589 1.327 . S
C587 H610 0.950 . S
C588 C587 1.349 . S
C588 C600 1.349 . S
C589 C587 1.327 . S
C589 C605 1.429 . S
C589 H611 0.950 . S
C590 H586 0.949 . S
C590 C598 1.574 . S
C590 C606 1.368 . S
H591 C599 0.950 . S
H592 C597 0.950 . S
H593 C598 0.949 . S
H594 C600 0.950 . S
H595 C601 0.950 . S
H596 C602 0.949 . S
C597 H592 0.950 . S
C597 C599 1.327 . S
C597 C603 1.429 . S
C598 C590 1.574 . S
C598 H593 0.949 . S
C598 C604 1.368 . S
C599 C583 1.349 . S
C599 H591 0.950 . S
C599 C597 1.327 . S
C600 C588 1.349 . S
C600 H594 0.950 . S
C600 C601 1.327 . S
C601 H595 0.950 . S
C601 C600 1.327 . S
C601 C605 1.429 . S
C602 C585 1.574 . S
C602 H596 0.949 . S
C602 C606 1.368 . S
C603 C584 1.429 . S
C603 C597 1.429 . S
C603 C604 1.523 . S
C604 C585 1.368 . S
C604 C598 1.368 . S
C604 C603 1.523 . S
C605 C589 1.429 . S
C605 C601 1.429 . S
C605 C606 1.523 . S
C606 C590 1.368 . S
C606 C602 1.368 . S
C606 C605 1.523 . S
H607 C582 0.950 . S
H608 C584 0.950 . S
H609 C585 0.949 . S
H610 C587 0.950 . S
H611 C589 0.950 . S
C612 C613 1.349 . S
C612 C614 1.327 . S
C612 H637 0.950 . S
C613 C612 1.349 . S
C613 C629 1.349 . S
C614 C612 1.327 . S
C614 C633 1.429 . S
C614 H638 0.950 . S
C615 C632 1.574 . S
C615 C634 1.368 . S
C615 H639 0.949 . S
H616 C620 0.949 . S
C617 C618 1.349 . S
C617 C619 1.327 . S
C617 H640 0.950 . S
C618 C617 1.349 . S
C618 C630 1.349 . S
C619 C617 1.327 . S
C619 C635 1.429 . S
C619 H641 0.950 . S
C620 H616 0.949 . S
C620 C628 1.574 . S
C620 C636 1.368 . S
H621 C629 0.950 . S
H622 C627 0.950 . S
H623 C628 0.949 . S
H624 C630 0.950 . S
H625 C631 0.950 . S
H626 C632 0.949 . S
C627 H622 0.950 . S
C627 C629 1.327 . S
C627 C633 1.429 . S
C628 C620 1.574 . S
C628 H623 0.949 . S
C628 C634 1.368 . S
C629 C613 1.349 . S
C629 H621 0.950 . S
C629 C627 1.327 . S
C630 C618 1.349 . S
C630 H624 0.950 . S
C630 C631 1.327 . S
C631 H625 0.950 . S
C631 C630 1.327 . S
C631 C635 1.429 . S
C632 C615 1.574 . S
C632 H626 0.949 . S
C632 C636 1.368 . S
C633 C614 1.429 . S
C633 C627 1.429 . S
C633 C634 1.523 . S
C634 C615 1.368 . S
C634 C628 1.368 . S
C634 C633 1.523 . S
C635 C619 1.429 . S
C635 C631 1.429 . S
C635 C636 1.523 . S
C636 C620 1.368 . S
C636 C632 1.368 . S
C636 C635 1.523 . S
H637 C612 0.950 . S
H638 C614 0.950 . S
H639 C615 0.949 . S
H640 C617 0.950 . S
H641 C619 0.950 . S
C642 C643 1.349 . S
C642 C644 1.327 . S
C642 H667 0.950 . S
C643 C642 1.349 . S
C643 C659 1.349 . S
C644 C642 1.327 . S
C644 C663 1.429 . S
C644 H668 0.950 . S
C645 C662 1.574 . S
C645 C664 1.368 . S
C645 H669 0.949 . S
H646 C650 0.949 . S
C647 C648 1.349 . S
C647 C649 1.327 . S
C647 H670 0.950 . S
C648 C647 1.349 . S
C648 C660 1.349 . S
C649 C647 1.327 . S
C649 C665 1.429 . S
C649 H671 0.950 . S
C650 H646 0.949 . S
C650 C658 1.574 . S
C650 C666 1.368 . S
H651 C659 0.950 . S
H652 C657 0.950 . S
H653 C658 0.949 . S
H654 C660 0.950 . S
H655 C661 0.950 . S
H656 C662 0.949 . S
C657 H652 0.950 . S
C657 C659 1.327 . S
C657 C663 1.429 . S
C658 C650 1.574 . S
C658 H653 0.949 . S
C658 C664 1.368 . S
C659 C643 1.349 . S
C659 H651 0.950 . S
C659 C657 1.327 . S
C660 C648 1.349 . S
C660 H654 0.950 . S
C660 C661 1.327 . S
C661 H655 0.950 . S
C661 C660 1.327 . S
C661 C665 1.429 . S
C662 C645 1.574 . S
C662 H656 0.949 . S
C662 C666 1.368 . S
C663 C644 1.429 . S
C663 C657 1.429 . S
C663 C664 1.523 . S
C664 C645 1.368 . S
C664 C658 1.368 . S
C664 C663 1.523 . S
C665 C649 1.429 . S
C665 C661 1.429 . S
C665 C666 1.523 . S
C666 C650 1.368 . S
C666 C662 1.368 . S
C666 C665 1.523 . S
H667 C642 0.950 . S
H668 C644 0.950 . S
H669 C645 0.949 . S
H670 C647 0.950 . S
H671 C649 0.950 . S
C672 C673 1.349 . S
C672 C674 1.327 . S
C672 H697 0.950 . S
C673 C672 1.349 . S
C673 C689 1.349 . S
C674 C672 1.327 . S
C674 C693 1.429 . S
C674 H698 0.950 . S
C675 C692 1.574 . S
C675 C694 1.368 . S
C675 H699 0.949 . S
H676 C680 0.949 . S
C677 C678 1.349 . S
C677 C679 1.327 . S
C677 H700 0.950 . S
C678 C677 1.349 . S
C678 C690 1.349 . S
C679 C677 1.327 . S
C679 C695 1.429 . S
C679 H701 0.950 . S
C680 H676 0.949 . S
C680 C688 1.574 . S
C680 C696 1.368 . S
H681 C689 0.950 . S
H682 C687 0.950 . S
H683 C688 0.949 . S
H684 C690 0.950 . S
H685 C691 0.950 . S
H686 C692 0.949 . S
C687 H682 0.950 . S
C687 C689 1.327 . S
C687 C693 1.429 . S
C688 C680 1.574 . S
C688 H683 0.949 . S
C688 C694 1.368 . S
C689 C673 1.349 . S
C689 H681 0.950 . S
C689 C687 1.327 . S
C690 C678 1.349 . S
C690 H684 0.950 . S
C690 C691 1.327 . S
C691 H685 0.950 . S
C691 C690 1.327 . S
C691 C695 1.429 . S
C692 C675 1.574 . S
C692 H686 0.949 . S
C692 C696 1.368 . S
C693 C674 1.429 . S
C693 C687 1.429 . S
C693 C694 1.523 . S
C694 C675 1.368 . S
C694 C688 1.368 . S
C694 C693 1.523 . S
C695 C679 1.429 . S
C695 C691 1.429 . S
C695 C696 1.523 . S
C696 C680 1.368 . S
C696 C692 1.368 . S
C696 C695 1.523 . S
H697 C672 0.950 . S
H698 C674 0.950 . S
H699 C675 0.949 . S
H700 C677 0.950 . S
H701 C679 0.950 . S
C702 C703 1.349 . S
C702 C704 1.327 . S
C702 H727 0.950 . S
C703 C702 1.349 . S
C703 C719 1.349 . S
C704 C702 1.327 . S
C704 C723 1.429 . S
C704 H728 0.950 . S
C705 C722 1.574 . S
C705 C724 1.368 . S
C705 H729 0.949 . S
H706 C710 0.949 . S
C707 C708 1.349 . S
C707 C709 1.327 . S
C707 H730 0.950 . S
C708 C707 1.349 . S
C708 C720 1.349 . S
C709 C707 1.327 . S
C709 C725 1.429 . S
C709 H731 0.950 . S
C710 H706 0.949 . S
C710 C718 1.574 . S
C710 C726 1.368 . S
H711 C719 0.950 . S
H712 C717 0.950 . S
H713 C718 0.949 . S
H714 C720 0.950 . S
H715 C721 0.950 . S
H716 C722 0.949 . S
C717 H712 0.950 . S
C717 C719 1.327 . S
C717 C723 1.429 . S
C718 C710 1.574 . S
C718 H713 0.949 . S
C718 C724 1.368 . S
C719 C703 1.349 . S
C719 H711 0.950 . S
C719 C717 1.327 . S
C720 C708 1.349 . S
C720 H714 0.950 . S
C720 C721 1.327 . S
C721 H715 0.950 . S
C721 C720 1.327 . S
C721 C725 1.429 . S
C722 C705 1.574 . S
C722 H716 0.949 . S
C722 C726 1.368 . S
C723 C704 1.429 . S
C723 C717 1.429 . S
C723 C724 1.523 . S
C724 C705 1.368 . S
C724 C718 1.368 . S
C724 C723 1.523 . S
C725 C709 1.429 . S
C725 C721 1.429 . S
C725 C726 1.523 . S
C726 C710 1.368 . S
C726 C722 1.368 . S
C726 C725 1.523 . S
H727 C702 0.950 . S
H728 C704 0.950 . S
H729 C705 0.949 . S
H730 C707 0.950 . S
H731 C709 0.950 . S
C732 C733 1.349 . S
C732 C734 1.327 . S
C732 H757 0.950 . S
C733 C732 1.349 . S
C733 C749 1.349 . S
C734 C732 1.327 . S
C734 C753 1.429 . S
C734 H758 0.950 . S
C735 C752 1.574 . S
C735 C754 1.368 . S
C735 H759 0.949 . S
H736 C740 0.949 . S
C737 C738 1.349 . S
C737 C739 1.327 . S
C737 H760 0.950 . S
C738 C737 1.349 . S
C738 C750 1.349 . S
C739 C737 1.327 . S
C739 C755 1.429 . S
C739 H761 0.950 . S
C740 H736 0.949 . S
C740 C748 1.574 . S
C740 C756 1.368 . S
H741 C749 0.950 . S
H742 C747 0.950 . S
H743 C748 0.949 . S
H744 C750 0.950 . S
H745 C751 0.950 . S
H746 C752 0.949 . S
C747 H742 0.950 . S
C747 C749 1.327 . S
C747 C753 1.429 . S
C748 C740 1.574 . S
C748 H743 0.949 . S
C748 C754 1.368 . S
C749 C733 1.349 . S
C749 H741 0.950 . S
C749 C747 1.327 . S
C750 C738 1.349 . S
C750 H744 0.950 . S
C750 C751 1.327 . S
C751 H745 0.950 . S
C751 C750 1.327 . S
C751 C755 1.429 . S
C752 C735 1.574 . S
C752 H746 0.949 . S
C752 C756 1.368 . S
C753 C734 1.429 . S
C753 C747 1.429 . S
C753 C754 1.523 . S
C754 C735 1.368 . S
C754 C748 1.368 . S
C754 C753 1.523 . S
C755 C739 1.429 . S
C755 C751 1.429 . S
C755 C756 1.523 . S
C756 C740 1.368 . S
C756 C752 1.368 . S
C756 C755 1.523 . S
H757 C732 0.950 . S
H758 C734 0.950 . S
H759 C735 0.949 . S
H760 C737 0.950 . S
H761 C739 0.950 . S
C762 C763 1.349 . S
C762 C764 1.327 . S
C762 H787 0.950 . S
C763 C762 1.349 . S
C763 C779 1.349 . S
C764 C762 1.327 . S
C764 C783 1.429 . S
C764 H788 0.950 . S
C765 C782 1.574 . S
C765 C784 1.368 . S
C765 H789 0.949 . S
H766 C770 0.949 . S
C767 C768 1.349 . S
C767 C769 1.327 . S
C767 H790 0.950 . S
C768 C767 1.349 . S
C768 C780 1.349 . S
C769 C767 1.327 . S
C769 C785 1.429 . S
C769 H791 0.950 . S
C770 H766 0.949 . S
C770 C778 1.574 . S
C770 C786 1.368 . S
H771 C779 0.950 . S
H772 C777 0.950 . S
H773 C778 0.949 . S
H774 C780 0.950 . S
H775 C781 0.950 . S
H776 C782 0.949 . S
C777 H772 0.950 . S
C777 C779 1.327 . S
C777 C783 1.429 . S
C778 C770 1.574 . S
C778 H773 0.949 . S
C778 C784 1.368 . S
C779 C763 1.349 . S
C779 H771 0.950 . S
C779 C777 1.327 . S
C780 C768 1.349 . S
C780 H774 0.950 . S
C780 C781 1.327 . S
C781 H775 0.950 . S
C781 C780 1.327 . S
C781 C785 1.429 . S
C782 C765 1.574 . S
C782 H776 0.949 . S
C782 C786 1.368 . S
C783 C764 1.429 . S
C783 C777 1.429 . S
C783 C784 1.523 . S
C784 C765 1.368 . S
C784 C778 1.368 . S
C784 C783 1.523 . S
C785 C769 1.429 . S
C785 C781 1.429 . S
C785 C786 1.523 . S
C786 C770 1.368 . S
C786 C782 1.368 . S
C786 C785 1.523 . S
H787 C762 0.950 . S
H788 C764 0.950 . S
H789 C765 0.949 . S
H790 C767 0.950 . S
H791 C769 0.950 . S
C792 C793 1.349 . S
C792 C794 1.327 . S
C792 H817 0.950 . S
C793 C792 1.349 . S
C793 C809 1.349 . S
C794 C792 1.327 . S
C794 C813 1.429 . S
C794 H818 0.950 . S
C795 C812 1.574 . S
C795 C814 1.368 . S
C795 H819 0.949 . S
H796 C800 0.949 . S
C797 C798 1.349 . S
C797 C799 1.327 . S
C797 H820 0.950 . S
C798 C797 1.349 . S
C798 C810 1.349 . S
C799 C797 1.327 . S
C799 C815 1.429 . S
C799 H821 0.950 . S
C800 H796 0.949 . S
C800 C808 1.574 . S
C800 C816 1.368 . S
H801 C809 0.950 . S
H802 C807 0.950 . S
H803 C808 0.949 . S
H804 C810 0.950 . S
H805 C811 0.950 . S
H806 C812 0.949 . S
C807 H802 0.950 . S
C807 C809 1.327 . S
C807 C813 1.429 . S
C808 C800 1.574 . S
C808 H803 0.949 . S
C808 C814 1.368 . S
C809 C793 1.349 . S
C809 H801 0.950 . S
C809 C807 1.327 . S
C810 C798 1.349 . S
C810 H804 0.950 . S
C810 C811 1.327 . S
C811 H805 0.950 . S
C811 C810 1.327 . S
C811 C815 1.429 . S
C812 C795 1.574 . S
C812 H806 0.949 . S
C812 C816 1.368 . S
C813 C794 1.429 . S
C813 C807 1.429 . S
C813 C814 1.523 . S
C814 C795 1.368 . S
C814 C808 1.368 . S
C814 C813 1.523 . S
C815 C799 1.429 . S
C815 C811 1.429 . S
C815 C816 1.523 . S
C816 C800 1.368 . S
C816 C812 1.368 . S
C816 C815 1.523 . S
H817 C792 0.950 . S
H818 C794 0.950 . S
H819 C795 0.949 . S
H820 C797 0.950 . S
H821 C799 0.950 . S
C822 C823 1.349 . S
C822 C824 1.327 . S
C822 H847 0.950 . S
C823 C822 1.349 . S
C823 C839 1.349 . S
C824 C822 1.327 . S
C824 C843 1.429 . S
C824 H848 0.950 . S
C825 C842 1.574 . S
C825 C844 1.368 . S
C825 H849 0.949 . S
H826 C830 0.949 . S
C827 C828 1.349 . S
C827 C829 1.327 . S
C827 H850 0.950 . S
C828 C827 1.349 . S
C828 C840 1.349 . S
C829 C827 1.327 . S
C829 C845 1.429 . S
C829 H851 0.950 . S
C830 H826 0.949 . S
C830 C838 1.574 . S
C830 C846 1.368 . S
H831 C839 0.950 . S
H832 C837 0.950 . S
H833 C838 0.949 . S
H834 C840 0.950 . S
H835 C841 0.950 . S
H836 C842 0.949 . S
C837 H832 0.950 . S
C837 C839 1.327 . S
C837 C843 1.429 . S
C838 C830 1.574 . S
C838 H833 0.949 . S
C838 C844 1.368 . S
C839 C823 1.349 . S
C839 H831 0.950 . S
C839 C837 1.327 . S
C840 C828 1.349 . S
C840 H834 0.950 . S
C840 C841 1.327 . S
C841 H835 0.950 . S
C841 C840 1.327 . S
C841 C845 1.429 . S
C842 C825 1.574 . S
C842 H836 0.949 . S
C842 C846 1.368 . S
C843 C824 1.429 . S
C843 C837 1.429 . S
C843 C844 1.523 . S
C844 C825 1.368 . S
C844 C838 1.368 . S
C844 C843 1.523 . S
C845 C829 1.429 . S
C845 C841 1.429 . S
C845 C846 1.523 . S
C846 C830 1.368 . S
C846 C842 1.368 . S
C846 C845 1.523 . S
H847 C822 0.950 . S
H848 C824 0.950 . S
H849 C825 0.949 . S
H850 C827 0.950 . S
H851 C829 0.950 . S
C852 C853 1.349 . S
C852 C854 1.327 . S
C852 H877 0.950 . S
C853 C852 1.349 . S
C853 C869 1.349 . S
C854 C852 1.327 . S
C854 C873 1.429 . S
C854 H878 0.950 . S
C855 C872 1.574 . S
C855 C874 1.368 . S
C855 H879 0.949 . S
H856 C860 0.949 . S
C857 C858 1.349 . S
C857 C859 1.327 . S
C857 H880 0.950 . S
C858 C857 1.349 . S
C858 C870 1.349 . S
C859 C857 1.327 . S
C859 C875 1.429 . S
C859 H881 0.950 . S
C860 H856 0.949 . S
C860 C868 1.574 . S
C860 C876 1.368 . S
H861 C869 0.950 . S
H862 C867 0.950 . S
H863 C868 0.949 . S
H864 C870 0.950 . S
H865 C871 0.950 . S
H866 C872 0.949 . S
C867 H862 0.950 . S
C867 C869 1.327 . S
C867 C873 1.429 . S
C868 C860 1.574 . S
C868 H863 0.949 . S
C868 C874 1.368 . S
C869 C853 1.349 . S
C869 H861 0.950 . S
C869 C867 1.327 . S
C870 C858 1.349 . S
C870 H864 0.950 . S
C870 C871 1.327 . S
C871 H865 0.950 . S
C871 C870 1.327 . S
C871 C875 1.429 . S
C872 C855 1.574 . S
C872 H866 0.949 . S
C872 C876 1.368 . S
C873 C854 1.429 . S
C873 C867 1.429 . S
C873 C874 1.523 . S
C874 C855 1.368 . S
C874 C868 1.368 . S
C874 C873 1.523 . S
C875 C859 1.429 . S
C875 C871 1.429 . S
C875 C876 1.523 . S
C876 C860 1.368 . S
C876 C872 1.368 . S
C876 C875 1.523 . S
H877 C852 0.950 . S
H878 C854 0.950 . S
H879 C855 0.949 . S
H880 C857 0.950 . S
H881 C859 0.950 . S
C882 C883 1.349 . S
C882 C884 1.327 . S
C882 H907 0.950 . S
C883 C882 1.349 . S
C883 C899 1.349 . S
C884 C882 1.327 . S
C884 C903 1.429 . S
C884 H908 0.950 . S
C885 C902 1.574 . S
C885 C904 1.368 . S
C885 H909 0.949 . S
H886 C890 0.949 . S
C887 C888 1.349 . S
C887 C889 1.327 . S
C887 H910 0.950 . S
C888 C887 1.349 . S
C888 C900 1.349 . S
C889 C887 1.327 . S
C889 C905 1.429 . S
C889 H911 0.950 . S
C890 H886 0.949 . S
C890 C898 1.574 . S
C890 C906 1.368 . S
H891 C899 0.950 . S
H892 C897 0.950 . S
H893 C898 0.949 . S
H894 C900 0.950 . S
H895 C901 0.950 . S
H896 C902 0.949 . S
C897 H892 0.950 . S
C897 C899 1.327 . S
C897 C903 1.429 . S
C898 C890 1.574 . S
C898 H893 0.949 . S
C898 C904 1.368 . S
C899 C883 1.349 . S
C899 H891 0.950 . S
C899 C897 1.327 . S
C900 C888 1.349 . S
C900 H894 0.950 . S
C900 C901 1.327 . S
C901 H895 0.950 . S
C901 C900 1.327 . S
C901 C905 1.429 . S
C902 C885 1.574 . S
C902 H896 0.949 . S
C902 C906 1.368 . S
C903 C884 1.429 . S
C903 C897 1.429 . S
C903 C904 1.523 . S
C904 C885 1.368 . S
C904 C898 1.368 . S
C904 C903 1.523 . S
C905 C889 1.429 . S
C905 C901 1.429 . S
C905 C906 1.523 . S
C906 C890 1.368 . S
C906 C902 1.368 . S
C906 C905 1.523 . S
H907 C882 0.950 . S
H908 C884 0.950 . S
H909 C885 0.949 . S
H910 C887 0.950 . S
H911 C889 0.950 . S
C912 C913 1.349 . S
C912 C914 1.327 . S
C912 H937 0.950 . S
C913 C912 1.349 . S
C913 C929 1.349 . S
C914 C912 1.327 . S
C914 C933 1.429 . S
C914 H938 0.950 . S
C915 C932 1.574 . S
C915 C934 1.368 . S
C915 H939 0.949 . S
H916 C920 0.949 . S
C917 C918 1.349 . S
C917 C919 1.327 . S
C917 H940 0.950 . S
C918 C917 1.349 . S
C918 C930 1.349 . S
C919 C917 1.327 . S
C919 C935 1.429 . S
C919 H941 0.950 . S
C920 H916 0.949 . S
C920 C928 1.574 . S
C920 C936 1.368 . S
H921 C929 0.950 . S
H922 C927 0.950 . S
H923 C928 0.949 . S
H924 C930 0.950 . S
H925 C931 0.950 . S
H926 C932 0.949 . S
C927 H922 0.950 . S
C927 C929 1.327 . S
C927 C933 1.429 . S
C928 C920 1.574 . S
C928 H923 0.949 . S
C928 C934 1.368 . S
C929 C913 1.349 . S
C929 H921 0.950 . S
C929 C927 1.327 . S
C930 C918 1.349 . S
C930 H924 0.950 . S
C930 C931 1.327 . S
C931 H925 0.950 . S
C931 C930 1.327 . S
C931 C935 1.429 . S
C932 C915 1.574 . S
C932 H926 0.949 . S
C932 C936 1.368 . S
C933 C914 1.429 . S
C933 C927 1.429 . S
C933 C934 1.523 . S
C934 C915 1.368 . S
C934 C928 1.368 . S
C934 C933 1.523 . S
C935 C919 1.429 . S
C935 C931 1.429 . S
C935 C936 1.523 . S
C936 C920 1.368 . S
C936 C932 1.368 . S
C936 C935 1.523 . S
H937 C912 0.950 . S
H938 C914 0.950 . S
H939 C915 0.949 . S
H940 C917 0.950 . S
H941 C919 0.950 . S
C942 C943 1.349 . S
C942 C944 1.327 . S
C942 H967 0.950 . S
C943 C942 1.349 . S
C943 C959 1.349 . S
C944 C942 1.327 . S
C944 C963 1.429 . S
C944 H968 0.950 . S
C945 C962 1.574 . S
C945 C964 1.368 . S
C945 H969 0.949 . S
H946 C950 0.949 . S
C947 C948 1.349 . S
C947 C949 1.327 . S
C947 H970 0.950 . S
C948 C947 1.349 . S
C948 C960 1.349 . S
C949 C947 1.327 . S
C949 C965 1.429 . S
C949 H971 0.950 . S
C950 H946 0.949 . S
C950 C958 1.574 . S
C950 C966 1.368 . S
H951 C959 0.950 . S
H952 C957 0.950 . S
H953 C958 0.949 . S
H954 C960 0.950 . S
H955 C961 0.950 . S
H956 C962 0.949 . S
C957 H952 0.950 . S
C957 C959 1.327 . S
C957 C963 1.429 . S
C958 C950 1.574 . S
C958 H953 0.949 . S
C958 C964 1.368 . S
C959 C943 1.349 . S
C959 H951 0.950 . S
C959 C957 1.327 . S
C960 C948 1.349 . S
C960 H954 0.950 . S
C960 C961 1.327 . S
C961 H955 0.950 . S
C961 C960 1.327 . S
C961 C965 1.429 . S
C962 C945 1.574 . S
C962 H956 0.949 . S
C962 C966 1.368 . S
C963 C944 1.429 . S
C963 C957 1.429 . S
C963 C964 1.523 . S
C964 C945 1.368 . S
C964 C958 1.368 . S
C964 C963 1.523 . S
C965 C949 1.429 . S
C965 C961 1.429 . S
C965 C966 1.523 . S
C966 C950 1.368 . S
C966 C962 1.368 . S
C966 C965 1.523 . S
H967 C942 0.950 . S
H968 C944 0.950 . S
H969 C945 0.949 . S
H970 C947 0.950 . S
H971 C949 0.950 . S
C972 C973 1.349 . S
C972 C974 1.327 . S
C972 H997 0.950 . S
C973 C972 1.349 . S
C973 C989 1.349 . S
C974 C972 1.327 . S
C974 C993 1.429 . S
C974 H998 0.950 . S
C975 C992 1.574 . S
C975 C994 1.368 . S
C975 H999 0.949 . S
H976 C980 0.949 . S
C977 C978 1.349 . S
C977 C979 1.327 1_554 S
C977 H1000 0.950 . S
C978 C977 1.349 . S
C978 C990 1.349 . S
C979 C977 1.327 1_556 S
C979 C995 1.429 . S
C979 H1001 0.950 . S
C980 H976 0.949 . S
C980 C988 1.574 . S
C980 C996 1.368 . S
H981 C989 0.950 . S
H982 C987 0.950 . S
H983 C988 0.949 . S
H984 C990 0.950 . S
H985 C991 0.950 . S
H986 C992 0.949 . S
C987 H982 0.950 . S
C987 C989 1.327 . S
C987 C993 1.429 . S
C988 C980 1.574 . S
C988 H983 0.949 . S
C988 C994 1.368 . S
C989 C973 1.349 . S
C989 H981 0.950 . S
C989 C987 1.327 . S
C990 C978 1.349 . S
C990 H984 0.950 . S
C990 C991 1.327 1_554 S
C991 H985 0.950 . S
C991 C990 1.327 1_556 S
C991 C995 1.429 . S
C992 C975 1.574 . S
C992 H986 0.949 . S
C992 C996 1.368 . S
C993 C974 1.429 . S
C993 C987 1.429 . S
C993 C994 1.523 . S
C994 C975 1.368 . S
C994 C988 1.368 . S
C994 C993 1.523 . S
C995 C979 1.429 . S
C995 C991 1.429 . S
C995 C996 1.523 . S
C996 C980 1.368 . S
C996 C992 1.368 . S
C996 C995 1.523 . S
H997 C972 0.950 . S
H998 C974 0.950 . S
H999 C975 0.949 . S
H1000 C977 0.950 . S
H1001 C979 0.950 . S
C1002 C1003 1.349 . S
C1002 C1004 1.327 . S
C1002 H1027 0.950 . S
C1003 C1002 1.349 . S
C1003 C1019 1.349 . S
C1004 C1002 1.327 . S
C1004 C1023 1.429 . S
C1004 H1028 0.950 . S
C1005 C1022 1.574 . S
C1005 C1024 1.368 . S
C1005 H1029 0.949 . S
H1006 C1010 0.949 . S
C1007 C1008 1.349 . S
C1007 C1009 1.327 . S
C1007 H1030 0.950 . S
C1008 C1007 1.349 . S
C1008 C1020 1.349 . S
C1009 C1007 1.327 . S
C1009 C1025 1.429 . S
C1009 H1031 0.950 . S
C1010 H1006 0.949 . S
C1010 C1018 1.574 . S
C1010 C1026 1.368 . S
H1011 C1019 0.950 1_545 S
H1012 C1017 0.950 . S
H1013 C1018 0.949 . S
H1014 C1020 0.950 . S
H1015 C1021 0.950 . S
H1016 C1022 0.949 . S
C1017 H1012 0.950 . S
C1017 C1019 1.327 . S
C1017 C1023 1.429 . S
C1018 C1010 1.574 . S
C1018 H1013 0.949 . S
C1018 C1024 1.368 . S
C1019 C1003 1.349 . S
C1019 H1011 0.950 1_565 S
C1019 C1017 1.327 . S
C1020 C1008 1.349 . S
C1020 H1014 0.950 . S
C1020 C1021 1.327 . S
C1021 H1015 0.950 . S
C1021 C1020 1.327 . S
C1021 C1025 1.429 . S
C1022 C1005 1.574 . S
C1022 H1016 0.949 . S
C1022 C1026 1.368 . S
C1023 C1004 1.429 . S
C1023 C1017 1.429 . S
C1023 C1024 1.523 . S
C1024 C1005 1.368 . S
C1024 C1018 1.368 . S
C1024 C1023 1.523 . S
C1025 C1009 1.429 . S
C1025 C1021 1.429 . S
C1025 C1026 1.523 . S
C1026 C1010 1.368 . S
C1026 C1022 1.368 . S
C1026 C1025 1.523 . S
H1027 C1002 0.950 . S
H1028 C1004 0.950 . S
H1029 C1005 0.949 . S
H1030 C1007 0.950 . S
H1031 C1009 0.950 . S
C1032 C1033 1.349 . S
C1032 C1034 1.327 . S
C1032 H1057 0.950 . S
C1033 C1032 1.349 . S
C1033 C1049 1.349 . S
C1034 C1032 1.327 . S
C1034 C1053 1.429 . S
C1034 H1058 0.950 . S
C1035 C1052 1.574 . S
C1035 C1054 1.368 . S
C1035 H1059 0.949 . S
H1036 C1040 0.949 . S
C1037 C1038 1.349 . S
C1037 C1039 1.327 . S
C1037 H1060 0.950 . S
C1038 C1037 1.349 . S
C1038 C1050 1.349 . S
C1039 C1037 1.327 . S
C1039 C1055 1.429 . S
C1039 H1061 0.950 . S
C1040 H1036 0.949 . S
C1040 C1048 1.574 . S
C1040 C1056 1.368 . S
H1041 C1049 0.950 . S
H1042 C1047 0.950 . S
H1043 C1048 0.949 . S
H1044 C1050 0.950 . S
H1045 C1051 0.950 . S
H1046 C1052 0.949 . S
C1047 H1042 0.950 . S
C1047 C1049 1.327 . S
C1047 C1053 1.429 . S
C1048 C1040 1.574 . S
C1048 H1043 0.949 . S
C1048 C1054 1.368 . S
C1049 C1033 1.349 . S
C1049 H1041 0.950 . S
C1049 C1047 1.327 . S
C1050 C1038 1.349 . S
C1050 H1044 0.950 . S
C1050 C1051 1.327 . S
C1051 H1045 0.950 . S
C1051 C1050 1.327 . S
C1051 C1055 1.429 . S
C1052 C1035 1.574 . S
C1052 H1046 0.949 . S
C1052 C1056 1.368 . S
C1053 C1034 1.429 . S
C1053 C1047 1.429 . S
C1053 C1054 1.523 . S
C1054 C1035 1.368 . S
C1054 C1048 1.368 . S
C1054 C1053 1.523 . S
C1055 C1039 1.429 . S
C1055 C1051 1.429 . S
C1055 C1056 1.523 . S
C1056 C1040 1.368 . S
C1056 C1052 1.368 . S
C1056 C1055 1.523 . S
H1057 C1032 0.950 . S
H1058 C1034 0.950 . S
H1059 C1035 0.949 . S
H1060 C1037 0.950 . S
H1061 C1039 0.950 . S
C1062 C1063 1.349 . S
C1062 C1064 1.327 . S
C1062 H1087 0.950 . S
C1063 C1062 1.349 . S
C1063 C1079 1.349 . S
C1064 C1062 1.327 . S
C1064 C1083 1.429 . S
C1064 H1088 0.950 . S
C1065 C1082 1.574 . S
C1065 C1084 1.368 . S
C1065 H1089 0.949 . S
H1066 C1070 0.949 . S
C1067 C1068 1.349 . S
C1067 C1069 1.327 . S
C1067 H1090 0.950 . S
C1068 C1067 1.349 . S
C1068 C1080 1.349 . S
C1069 C1067 1.327 . S
C1069 C1085 1.429 . S
C1069 H1091 0.950 . S
C1070 H1066 0.949 . S
C1070 C1078 1.574 . S
C1070 C1086 1.368 . S
H1071 C1079 0.950 . S
H1072 C1077 0.950 . S
H1073 C1078 0.949 . S
H1074 C1080 0.950 . S
H1075 C1081 0.950 . S
H1076 C1082 0.949 . S
C1077 H1072 0.950 . S
C1077 C1079 1.327 . S
C1077 C1083 1.429 . S
C1078 C1070 1.574 . S
C1078 H1073 0.949 . S
C1078 C1084 1.368 . S
C1079 C1063 1.349 . S
C1079 H1071 0.950 . S
C1079 C1077 1.327 . S
C1080 C1068 1.349 . S
C1080 H1074 0.950 . S
C1080 C1081 1.327 . S
C1081 H1075 0.950 . S
C1081 C1080 1.327 . S
C1081 C1085 1.429 . S
C1082 C1065 1.574 . S
C1082 H1076 0.949 . S
C1082 C1086 1.368 . S
C1083 C1064 1.429 . S
C1083 C1077 1.429 . S
C1083 C1084 1.523 . S
C1084 C1065 1.368 . S
C1084 C1078 1.368 . S
C1084 C1083 1.523 . S
C1085 C1069 1.429 . S
C1085 C1081 1.429 . S
C1085 C1086 1.523 . S
C1086 C1070 1.368 . S
C1086 C1082 1.368 . S
C1086 C1085 1.523 . S
H1087 C1062 0.950 . S
H1088 C1064 0.950 . S
H1089 C1065 0.949 . S
H1090 C1067 0.950 . S
H1091 C1069 0.950 . S
C1092 C1093 1.349 . S
C1092 C1094 1.327 . S
C1092 H1117 0.950 . S
C1093 C1092 1.349 . S
C1093 C1109 1.349 . S
C1094 C1092 1.327 . S
C1094 C1113 1.429 . S
C1094 H1118 0.950 . S
C1095 C1112 1.574 . S
C1095 C1114 1.368 . S
C1095 H1119 0.949 . S
H1096 C1100 0.949 . S
C1097 C1098 1.349 . S
C1097 C1099 1.327 . S
C1097 H1120 0.950 . S
C1098 C1097 1.349 . S
C1098 C1110 1.349 . S
C1099 C1097 1.327 . S
C1099 C1115 1.429 . S
C1099 H1121 0.950 . S
C1100 H1096 0.949 . S
C1100 C1108 1.574 . S
C1100 C1116 1.368 . S
H1101 C1109 0.950 . S
H1102 C1107 0.950 . S
H1103 C1108 0.949 . S
H1104 C1110 0.950 . S
H1105 C1111 0.950 . S
H1106 C1112 0.949 . S
C1107 H1102 0.950 . S
C1107 C1109 1.327 . S
C1107 C1113 1.429 . S
C1108 C1100 1.574 . S
C1108 H1103 0.949 . S
C1108 C1114 1.368 . S
C1109 C1093 1.349 . S
C1109 H1101 0.950 . S
C1109 C1107 1.327 . S
C1110 C1098 1.349 . S
C1110 H1104 0.950 . S
C1110 C1111 1.327 . S
C1111 H1105 0.950 . S
C1111 C1110 1.327 . S
C1111 C1115 1.429 . S
C1112 C1095 1.574 . S
C1112 H1106 0.949 . S
C1112 C1116 1.368 . S
C1113 C1094 1.429 . S
C1113 C1107 1.429 . S
C1113 C1114 1.523 . S
C1114 C1095 1.368 . S
C1114 C1108 1.368 . S
C1114 C1113 1.523 . S
C1115 C1099 1.429 . S
C1115 C1111 1.429 . S
C1115 C1116 1.523 . S
C1116 C1100 1.368 . S
C1116 C1112 1.368 . S
C1116 C1115 1.523 . S
H1117 C1092 0.950 . S
H1118 C1094 0.950 . S
H1119 C1095 0.949 . S
H1120 C1097 0.950 . S
H1121 C1099 0.950 . S
C1122 C1123 1.349 . S
C1122 C1124 1.327 . S
C1122 H1147 0.950 . S
C1123 C1122 1.349 . S
C1123 C1139 1.349 . S
C1124 C1122 1.327 . S
C1124 C1143 1.429 . S
C1124 H1148 0.950 . S
C1125 C1142 1.574 . S
C1125 C1144 1.368 . S
C1125 H1149 0.949 . S
H1126 C1130 0.949 . S
C1127 C1128 1.349 . S
C1127 C1129 1.327 . S
C1127 H1150 0.950 . S
C1128 C1127 1.349 . S
C1128 C1140 1.349 . S
C1129 C1127 1.327 . S
C1129 C1145 1.429 . S
C1129 H1151 0.950 . S
C1130 H1126 0.949 . S
C1130 C1138 1.574 . S
C1130 C1146 1.368 . S
H1131 C1139 0.950 . S
H1132 C1137 0.950 . S
H1133 C1138 0.949 . S
H1134 C1140 0.950 . S
H1135 C1141 0.950 . S
H1136 C1142 0.949 . S
C1137 H1132 0.950 . S
C1137 C1139 1.327 . S
C1137 C1143 1.429 . S
C1138 C1130 1.574 . S
C1138 H1133 0.949 . S
C1138 C1144 1.368 . S
C1139 C1123 1.349 . S
C1139 H1131 0.950 . S
C1139 C1137 1.327 . S
C1140 C1128 1.349 . S
C1140 H1134 0.950 . S
C1140 C1141 1.327 . S
C1141 H1135 0.950 . S
C1141 C1140 1.327 . S
C1141 C1145 1.429 . S
C1142 C1125 1.574 . S
C1142 H1136 0.949 . S
C1142 C1146 1.368 . S
C1143 C1124 1.429 . S
C1143 C1137 1.429 . S
C1143 C1144 1.523 . S
C1144 C1125 1.368 . S
C1144 C1138 1.368 . S
C1144 C1143 1.523 . S
C1145 C1129 1.429 . S
C1145 C1141 1.429 . S
C1145 C1146 1.523 . S
C1146 C1130 1.368 . S
C1146 C1142 1.368 . S
C1146 C1145 1.523 . S
H1147 C1122 0.950 . S
H1148 C1124 0.950 . S
H1149 C1125 0.949 . S
H1150 C1127 0.950 . S
H1151 C1129 0.950 . S
C1152 C1153 1.349 . S
C1152 C1154 1.327 . S
C1152 H1177 0.950 . S
C1153 C1152 1.349 . S
C1153 C1169 1.349 . S
C1154 C1152 1.327 . S
C1154 C1173 1.429 . S
C1154 H1178 0.950 . S
C1155 C1172 1.574 . S
C1155 C1174 1.368 . S
C1155 H1179 0.949 . S
H1156 C1160 0.949 . S
C1157 C1158 1.349 . S
C1157 C1159 1.327 . S
C1157 H1180 0.950 . S
C1158 C1157 1.349 . S
C1158 C1170 1.349 . S
C1159 C1157 1.327 . S
C1159 C1175 1.429 . S
C1159 H1181 0.950 . S
C1160 H1156 0.949 . S
C1160 C1168 1.574 . S
C1160 C1176 1.368 . S
H1161 C1169 0.950 . S
H1162 C1167 0.950 . S
H1163 C1168 0.949 . S
H1164 C1170 0.950 . S
H1165 C1171 0.950 . S
H1166 C1172 0.949 . S
C1167 H1162 0.950 . S
C1167 C1169 1.327 . S
C1167 C1173 1.429 . S
C1168 C1160 1.574 . S
C1168 H1163 0.949 . S
C1168 C1174 1.368 . S
C1169 C1153 1.349 . S
C1169 H1161 0.950 . S
C1169 C1167 1.327 . S
C1170 C1158 1.349 . S
C1170 H1164 0.950 . S
C1170 C1171 1.327 . S
C1171 H1165 0.950 . S
C1171 C1170 1.327 . S
C1171 C1175 1.429 . S
C1172 C1155 1.574 . S
C1172 H1166 0.949 . S
C1172 C1176 1.368 . S
C1173 C1154 1.429 . S
C1173 C1167 1.429 . S
C1173 C1174 1.523 . S
C1174 C1155 1.368 . S
C1174 C1168 1.368 . S
C1174 C1173 1.523 . S
C1175 C1159 1.429 . S
C1175 C1171 1.429 . S
C1175 C1176 1.523 . S
C1176 C1160 1.368 . S
C1176 C1172 1.368 . S
C1176 C1175 1.523 . S
H1177 C1152 0.950 . S
H1178 C1154 0.950 . S
H1179 C1155 0.949 . S
H1180 C1157 0.950 . S
H1181 C1159 0.950 . S
C1182 C1183 1.349 . S
C1182 C1184 1.327 . S
C1182 H1207 0.950 . S
C1183 C1182 1.349 . S
C1183 C1199 1.349 . S
C1184 C1182 1.327 . S
C1184 C1203 1.429 . S
C1184 H1208 0.950 . S
C1185 C1202 1.521 1_554 S
C1185 C1204 1.368 . S
C1185 H1209 0.949 . S
H1186 C1190 0.949 . S
C1187 C1188 1.349 . S
C1187 C1189 1.327 . S
C1187 H1210 0.950 . S
C1188 C1187 1.349 . S
C1188 C1200 1.349 . S
C1189 C1187 1.327 . S
C1189 C1205 1.429 . S
C1189 H1211 0.950 . S
C1190 H1186 0.949 . S
C1190 C1198 1.574 1_556 S
C1190 C1206 1.368 . S
H1191 C1199 0.950 . S
H1192 C1197 0.950 . S
H1193 C1198 0.949 . S
H1194 C1200 0.950 . S
H1195 C1201 0.950 . S
H1196 C1202 0.973 . S
C1197 H1192 0.950 . S
C1197 C1199 1.327 . S
C1197 C1203 1.429 . S
C1198 C1190 1.574 1_554 S
C1198 H1193 0.949 . S
C1198 C1204 1.368 . S
C1199 C1183 1.349 . S
C1199 H1191 0.950 . S
C1199 C1197 1.327 . S
C1200 C1188 1.349 . S
C1200 H1194 0.950 . S
C1200 C1201 1.327 . S
C1201 H1195 0.950 . S
C1201 C1200 1.327 . S
C1201 C1205 1.429 . S
C1202 C1185 1.521 1_556 S
C1202 H1196 0.973 . S
C1202 C1206 1.397 . S
C1203 C1184 1.429 . S
C1203 C1197 1.429 . S
C1203 C1204 1.523 . S
C1204 C1185 1.368 . S
C1204 C1198 1.368 . S
C1204 C1203 1.523 . S
C1205 C1189 1.429 . S
C1205 C1201 1.429 . S
C1205 C1206 1.523 . S
C1206 C1190 1.368 . S
C1206 C1202 1.397 . S
C1206 C1205 1.523 . S
H1207 C1182 0.950 . S
H1208 C1184 0.950 . S
H1209 C1185 0.949 . S
H1210 C1187 0.950 . S
H1211 C1189 0.950 . S
C1212 C1213 1.349 . S
C1212 C1214 1.327 . S
C1212 H1237 0.950 . S
C1213 C1212 1.349 . S
C1213 C1229 1.349 . S
C1214 C1212 1.327 . S
C1214 C1233 1.429 . S
C1214 H1238 0.950 . S
C1215 C1232 1.574 . S
C1215 C1234 1.368 . S
C1215 H1239 0.949 . S
H1216 C1220 0.949 . S
C1217 C1218 1.349 . S
C1217 C1219 1.327 . S
C1217 H1240 0.950 . S
C1218 C1217 1.349 . S
C1218 C1230 1.349 . S
C1219 C1217 1.327 . S
C1219 C1235 1.429 . S
C1219 H1241 0.950 . S
C1220 H1216 0.949 . S
C1220 C1228 1.574 . S
C1220 C1236 1.368 . S
H1221 C1229 0.950 . S
H1222 C1227 0.950 . S
H1223 C1228 0.949 . S
H1224 C1230 0.950 . S
H1225 C1231 0.950 . S
H1226 C1232 0.949 . S
C1227 H1222 0.950 . S
C1227 C1229 1.327 . S
C1227 C1233 1.429 . S
C1228 C1220 1.574 . S
C1228 H1223 0.949 . S
C1228 C1234 1.368 . S
C1229 C1213 1.349 . S
C1229 H1221 0.950 . S
C1229 C1227 1.327 . S
C1230 C1218 1.349 . S
C1230 H1224 0.950 . S
C1230 C1231 1.327 . S
C1231 H1225 0.950 . S
C1231 C1230 1.327 . S
C1231 C1235 1.429 . S
C1232 C1215 1.574 . S
C1232 H1226 0.949 . S
C1232 C1236 1.368 . S
C1233 C1214 1.429 . S
C1233 C1227 1.429 . S
C1233 C1234 1.523 . S
C1234 C1215 1.368 . S
C1234 C1228 1.368 . S
C1234 C1233 1.523 . S
C1235 C1219 1.429 . S
C1235 C1231 1.429 . S
C1235 C1236 1.523 . S
C1236 C1220 1.368 . S
C1236 C1232 1.368 . S
C1236 C1235 1.523 . S
H1237 C1212 0.950 . S
H1238 C1214 0.950 . S
H1239 C1215 0.949 . S
H1240 C1217 0.950 . S
H1241 C1219 0.950 . S
C528 C519 1.266 . S
C523 C51 1.248 . S
C553 C125 1.394 . S
C558 C444 1.325 . S
C583 C217 2.717 . S
C588 C467 2.748 . S
C613 C291 1.413 . S
C618 C480 1.410 . S
C648 C483 0.724 . S
C643 C347 0.719 . S
C673 C421 0.624 . S
C678 C496 0.635 . S
C703 C143 2.284 . S
C708 C457 2.191 . S
C733 C199 1.482 . S
C738 C470 1.429 . S
C763 C273 0.249 . S
C768 C493 0.233 . S
C798 C506 1.645 . S
C793 C365 1.617 . S
C828 C509 1.718 . S
C823 C439 1.829 . S
C858 C454 2.512 . S
C853 C69 2.487 . S
C883 C63 1.281 . S
C888 C465 1.336 . S
C913 C137 1.409 . S
C918 C478 1.455 . S
C948 C488 1.207 . S
C943 C187 1.204 . S
C973 C261 1.380 . S
C978 C501 1.366 . S
C1008 C517 1.405 . S
C1003 C359 1.329 . S
C1038 C449 0.921 . S
C1033 C433 0.910 . S
C1068 C514 1.482 . S
C1063 C113 1.549 . S
C1093 C211 1.245 . S
C1098 C452 1.301 . S
C1128 C462 1.390 . S
C1123 C285 1.381 . S
C1153 C335 1.267 . S
C1158 C475 1.296 . S
C1183 C409 1.171 . S
C1188 C491 1.200 . S
C1213 C39 1.600 . S
C1218 C504 1.624 . S
