# Generated by pormake.
# Topology tsx, (6,3)-cn, num edge types: 1
# Building blocks:
#     Node 0, Type 0, BuildingBlock: FUNLAD_clean_sbu_0, # of connection points: 6
#     Node 1, Type 0, BuildingBlock: FUNLAD_clean_sbu_0, # of connection points: 6
#     Node 2, Type 1, BuildingBlock: QEWDON_clean_linker_0, # of connection points: 3
#     Node 3, Type 1, BuildingBlock: QEWDON_clean_linker_0, # of connection points: 3
#     Node 4, Type 1, BuildingBlock: QEWDON_clean_linker_0, # of connection points: 3
#     Node 5, Type 1, BuildingBlock: QEWDON_clean_linker_0, # of connection points: 3
#     Edge 6, Type (0, 1), BuildingBlock: MIFKUJ_clean_linker_0, # of connection points: 2
#     Edge 7, Type (0, 1), BuildingBlock: MIFKUJ_clean_linker_0, # of connection points: 2
#     Edge 8, Type (0, 1), BuildingBlock: MIFKUJ_clean_linker_0, # of connection points: 2
#     Edge 9, Type (0, 1), BuildingBlock: MIFKUJ_clean_linker_0, # of connection points: 2
#     Edge 10, Type (0, 1), BuildingBlock: MIFKUJ_clean_linker_0, # of connection points: 2
#     Edge 11, Type (0, 1), BuildingBlock: MIFKUJ_clean_linker_0, # of connection points: 2
#     Edge 12, Type (0, 1), BuildingBlock: MIFKUJ_clean_linker_0, # of connection points: 2
#     Edge 13, Type (0, 1), BuildingBlock: MIFKUJ_clean_linker_0, # of connection points: 2
#     Edge 14, Type (0, 1), BuildingBlock: MIFKUJ_clean_linker_0, # of connection points: 2
#     Edge 15, Type (0, 1), BuildingBlock: MIFKUJ_clean_linker_0, # of connection points: 2
#     Edge 16, Type (0, 1), BuildingBlock: MIFKUJ_clean_linker_0, # of connection points: 2
#     Edge 17, Type (0, 1), BuildingBlock: MIFKUJ_clean_linker_0, # of connection points: 2
# Relax obj value: 0.116
# Max RMSD: 0.174
# Mean RMSD: 0.150
data_MOF--net-tsx--node1-FUNLAD_clean_sbu_0--node2-QEWDON_clean_linker_0--edge1-MIFKUJ_clean_linker_0
_symmetry_space_group_name_H-M    P1
_symmetry_Int_Tables_number       1
_symmetry_cell_setting            triclinic
loop_
_symmetry_equiv_pos_as_xyz
'x, y, z'
_cell_length_a     26.709656
_cell_length_b     29.7345
_cell_length_c     48.850378
_cell_angle_alpha  90.692328
_cell_angle_beta   107.19746
_cell_angle_gamma 90.114467
loop_
_atom_site_label
_atom_site_type_symbol
_atom_site_fract_x
_atom_site_fract_y
_atom_site_fract_z
_atom_type_partial_charge
C0 C 0.94699 0.93368 0.99001 0.0
N1 N 0.02174 0.00767 0.06434 0.0
C2 C 0.97843 -0.00183 0.07252 0.0
C3 C 0.98118 -0.0016 0.10147 0.0
C4 C 0.02873 0.00919 0.12209 0.0
C5 C 0.07273 0.01918 0.11313 0.0
C6 C 0.06844 0.01789 0.08397 0.0
Zn7 Zn 0.01567 0.00774 0.0218 0.0
C8 C 0.09512 0.95301 0.00807 0.0
N9 N -0.00125 0.00944 0.93238 0.0
C10 C 0.95091 0.00855 0.91234 0.0
C11 C 0.04362 0.01286 0.92474 0.0
C12 C 0.04147 0.01581 0.89596 0.0
C13 C 0.99266 0.01577 0.87489 0.0
C14 C 0.94693 0.01195 0.88329 0.0
Zn15 Zn 0.00454 0.00832 0.97487 0.0
O16 O 0.96711 0.95056 0.01486 0.0
C17 C 0.92472 0.06247 0.99006 0.0
O18 O 0.95576 0.95175 0.96847 0.0
H19 H 0.08122 0.01401 0.94102 0.0
H20 H 0.94156 -0.00941 0.05656 0.0
H21 H 0.91577 0.00568 0.91891 0.0
O22 O 0.95055 0.04867 0.01459 0.0
O23 O 0.93879 0.0513 0.96825 0.0
H24 H 0.10244 0.0251 0.07702 0.0
O25 O 0.05351 0.06481 0.98139 0.0
O26 O 0.06492 0.06461 0.02777 0.0
O27 O 0.07043 0.9651 0.9828 0.0
O28 O 0.08035 0.96677 0.02905 0.0
C29 C 0.07429 0.08167 0.0061 0.0
H30 H 0.94636 -0.00915 0.10766 0.0
H31 H 0.11018 0.02722 0.12854 0.0
H32 H 0.07757 0.01918 0.89031 0.0
H33 H 0.90859 0.01142 0.86757 0.0
C34 C 0.45664 0.43878 0.49636 0.0
N35 N 0.54136 0.49905 0.57411 0.0
C36 C 0.49858 0.49268 0.58332 0.0
C37 C 0.5041 0.48845 0.61241 0.0
C38 C 0.55428 0.48977 0.63236 0.0
C39 C 0.59795 0.49504 0.62213 0.0
C40 C 0.59052 0.50002 0.5928 0.0
Zn41 Zn 0.52921 0.50924 0.53151 0.0
C42 C 0.60235 0.46258 0.50811 0.0
N43 N 0.49519 0.53028 0.44179 0.0
C44 C 0.44832 0.52135 0.42199 0.0
C45 C 0.5369 0.54526 0.43381 0.0
C46 C 0.53251 0.55197 0.40507 0.0
C47 C 0.48517 0.54184 0.38396 0.0
C48 C 0.44255 0.52653 0.39281 0.0
Zn49 Zn 0.50664 0.51976 0.48442 0.0
O50 O 0.48157 0.45078 0.52182 0.0
C51 C 0.43293 0.56609 0.50821 0.0
O52 O 0.45904 0.46259 0.47543 0.0
H53 H 0.5741 0.55163 0.44975 0.0
H54 H 0.45984 0.49168 0.56812 0.0
H55 H 0.41565 0.5094 0.42876 0.0
O56 O 0.46373 0.54924 0.53064 0.0
O57 O 0.44129 0.55941 0.48419 0.0
H58 H 0.624 0.50509 0.585 0.0
O59 O 0.55439 0.57734 0.49412 0.0
O60 O 0.57808 0.56664 0.54055 0.0
O61 O 0.57224 0.4789 0.48523 0.0
O62 O 0.59382 0.47034 0.5319 0.0
C63 C 0.5808 0.58939 0.51921 0.0
H64 H 0.4691 0.48533 0.61912 0.0
H65 H 0.63748 0.49547 0.63656 0.0
H66 H 0.56619 0.56478 0.39956 0.0
H67 H 0.40546 0.51754 0.37743 0.0
H68 H 0.05697 0.04607 0.42858 0.0
C69 C 0.07764 0.01687 0.43936 0.0
C70 C 0.09407 0.98343 0.42354 0.0
C71 C 0.08865 0.01337 0.46909 0.0
H72 H 0.13288 0.91941 0.42572 0.0
C73 C 0.12012 0.94561 0.43774 0.0
C74 C 0.13009 0.94148 0.46747 0.0
C75 C 0.1148 0.97573 0.48317 0.0
C76 C 0.07261 0.04945 0.48512 0.0
H77 H 0.12295 0.97297 0.50619 0.0
C78 C 0.00918 0.06642 0.47402 0.0
C79 C -0.00465 0.13606 0.5048 0.0
C80 C 0.11769 0.07566 0.51262 0.0
H81 H 0.15715 0.06265 0.5179 0.0
C82 C 0.10916 0.12064 0.53268 0.0
H83 H 0.98289 0.04826 0.4557 0.0
C84 C 0.05351 0.14982 0.52985 0.0
H85 H 0.05508 0.1783 0.54408 0.0
H86 H 0.14362 0.1322 0.54916 0.0
H87 H 0.98011 0.07592 0.56645 0.0
C88 C 0.96162 0.04384 0.55862 0.0
C89 C 0.9517 0.01318 0.5779 0.0
C90 C 0.9494 0.03257 0.5294 0.0
H91 H 0.92191 0.94743 0.58269 0.0
C92 C 0.92993 0.97116 0.56779 0.0
C93 C 0.91738 0.95975 0.5386 0.0
C94 C 0.9262 -0.00902 0.51926 0.0
C95 C 0.96797 0.06164 0.51058 0.0
H96 H 0.91777 0.982 0.49676 0.0
C97 C 0.03313 0.0731 0.52018 0.0
C98 C 0.05497 0.12785 0.48321 0.0
C99 C 0.92593 0.08352 0.48068 0.0
H100 H 0.88518 0.07408 0.47639 0.0
C101 C 0.93954 0.11899 0.45661 0.0
H102 H 0.05743 0.05776 0.53991 0.0
C103 C -0.0015 0.14056 0.45689 0.0
H104 H 0.00031 0.16325 0.44006 0.0
H105 H 0.90641 0.12917 0.43905 0.0
H106 H 0.55126 0.547 0.93535 0.0
C107 C 0.57955 0.52287 0.94722 0.0
C108 C 0.60524 0.49461 0.93264 0.0
C109 C 0.59353 0.52225 0.97727 0.0
H110 H 0.66086 0.44096 0.93668 0.0
C111 C 0.64213 0.46386 0.94804 0.0
C112 C 0.65361 0.46128 0.97784 0.0
C113 C 0.62983 0.49089 0.99249 0.0
C114 C 0.57335 0.55625 0.99299 0.0
H115 H 0.63946 0.48938 0.01565 0.0
C116 C 0.50794 0.56688 0.98339 0.0
C117 C 0.4881 0.63213 0.01562 0.0
C118 C 0.61637 0.58527 0.02 0.0
H119 H 0.65722 0.57639 0.0244 0.0
C120 C 0.6038 0.62733 0.0409 0.0
H121 H 0.48285 0.54708 0.96549 0.0
C122 C 0.54531 0.65028 0.03967 0.0
H123 H 0.5443 0.6775 0.05439 0.0
H124 H 0.63751 0.64139 0.05687 0.0
H125 H 0.48331 0.56725 0.07743 0.0
C126 C 0.4661 0.53487 0.06931 0.0
C127 C 0.44956 0.50594 0.08732 0.0
C128 C 0.45722 0.52328 0.04036 0.0
H129 H 0.4151 0.44167 0.09077 0.0
C130 C 0.4277 0.46414 0.07673 0.0
C131 C 0.42093 0.4515 0.0481 0.0
C132 C 0.43441 0.48183 0.02969 0.0
C133 C 0.4714 0.55487 0.02129 0.0
H134 H 0.42835 0.47284 0.00736 0.0
C135 C 0.53458 0.57258 0.02959 0.0
C136 C 0.54544 0.63223 0.99222 0.0
C137 C 0.42476 0.57444 0.99232 0.0
H138 H 0.38561 0.5612 0.98892 0.0
C139 C 0.43136 0.61288 0.96802 0.0
H140 H 0.56229 0.55799 0.04857 0.0
C141 C 0.48624 0.64062 0.96709 0.0
H142 H 0.4837 0.66411 0.94999 0.0
H143 H 0.39605 0.62065 0.95113 0.0
H144 H 0.15898 0.09916 0.05179 0.0
H145 H 0.22555 0.15733 0.05573 0.0
H146 H 0.1393 0.20663 0.97232 0.0
H147 H 0.07433 0.14669 0.96764 0.0
H148 H 0.23748 0.2066 0.9763 0.0
H149 H 0.13726 0.2595 0.03686 0.0
H150 H 0.0954 0.25459 0.07546 0.0
H151 H 0.24577 0.23531 0.13718 0.0
H152 H 0.28848 0.23947 0.09886 0.0
H153 H 0.34109 0.43315 -0.00047 0.0
H154 H 0.29076 0.36289 0.98806 0.0
H155 H 0.39661 0.30093 0.06214 0.0
H156 H 0.4474 0.37074 0.07349 0.0
H157 H 0.29194 0.30575 0.06249 0.0
H158 H 0.39108 0.2599 -0.00072 0.0
H159 H 0.42854 0.26893 0.95919 0.0
H160 H 0.27396 0.28187 0.90057 0.0
H161 H 0.23556 0.27357 0.94038 0.0
C162 C 0.15414 0.12272 0.03446 0.0
C163 C 0.11157 0.11895 0.00954 0.0
C164 C 0.19208 0.15588 0.03669 0.0
C165 C 0.18693 0.18673 0.01448 0.0
C166 C 0.14408 0.18311 0.98966 0.0
C167 C 0.10687 0.14918 0.9871 0.0
C168 C 0.22609 0.22294 0.01721 0.0
C169 C 0.249 0.22862 0.995 0.0
C170 C 0.24155 0.25123 0.04178 0.0
C171 C 0.21601 0.2494 0.06494 0.0
C172 C 0.16137 0.25397 0.05864 0.0
C173 C 0.13749 0.25132 0.08047 0.0
C174 C 0.16789 0.24452 0.10874 0.0
C175 C 0.22226 0.24052 0.11526 0.0
C176 C 0.24634 0.24306 0.0935 0.0
C177 C 0.35457 0.40404 0.01275 0.0
C178 C 0.39741 0.40736 0.03765 0.0
C179 C 0.32589 0.36403 0.0062 0.0
C180 C 0.34 0.3271 0.02442 0.0
C181 C 0.3852 0.3293 0.04796 0.0
C182 C 0.41389 0.36912 0.05446 0.0
C183 C 0.30336 0.28919 0.0217 0.0
C184 C 0.28066 0.28345 0.04389 0.0
C185 C 0.28741 0.26168 0.99688 0.0
C186 C 0.31046 0.2665 0.97289 0.0
C187 C 0.36507 0.26507 0.97789 0.0
C188 C 0.38648 0.26997 0.9552 0.0
C189 C 0.35366 0.27608 0.92736 0.0
C190 C 0.29934 0.27717 0.92215 0.0
C191 C 0.27774 0.27231 0.94476 0.0
H192 H 0.3703 0.27987 0.90983 0.0
H193 H 0.14932 0.24244 0.12561 0.0
H194 H 0.12479 0.90348 0.96823 0.0
H195 H 0.19153 0.84489 0.97739 0.0
H196 H 0.22965 0.87133 0.06831 0.0
H197 H 0.1631 0.93004 0.05942 0.0
H198 H 0.317 0.85988 0.0503 0.0
H199 H 0.1597 0.78462 0.04497 0.0
H200 H 0.066 0.76574 0.02554 0.0
H201 H 0.09265 0.71105 0.94932 0.0
H202 H 0.18649 0.73075 0.968 0.0
H203 H 0.41451 0.61439 0.04398 0.0
H204 H 0.34697 0.66511 0.05058 0.0
H205 H 0.39627 0.76579 0.00097 0.0
H206 H 0.46386 0.71543 0.99454 0.0
H207 H 0.26323 0.70642 0.01118 0.0
H208 H 0.39959 0.86529 0.03346 0.0
H209 H 0.49275 0.88307 0.05703 0.0
H210 H 0.50676 0.76551 0.10892 0.0
H211 H 0.41356 0.7474 0.086 0.0
C212 C 0.14774 0.89715 0.99013 0.0
C213 C 0.13856 0.92099 0.01312 0.0
C214 C 0.18553 0.86358 0.99533 0.0
C215 C 0.21463 0.85357 0.02353 0.0
C216 C 0.20717 0.87857 0.04644 0.0
C217 C 0.16916 0.91194 0.0413 0.0
C218 C 0.25233 0.81642 0.02888 0.0
C219 C 0.30538 0.82623 0.04198 0.0
C220 C 0.23643 0.77221 0.0191 0.0
C221 C 0.18017 0.75947 0.00783 0.0
C222 C 0.14557 0.76887 0.02397 0.0
C223 C 0.09239 0.75799 0.01309 0.0
C224 C 0.07333 0.73716 0.98621 0.0
C225 C 0.10748 0.72717 0.97015 0.0
C226 C 0.1607 0.73821 0.98088 0.0
C227 C 0.40987 0.64671 0.03375 0.0
C228 C 0.44226 0.66001 0.01723 0.0
C229 C 0.37164 0.67575 0.03777 0.0
C230 C 0.36679 0.71893 0.02619 0.0
C231 C 0.39954 0.73246 0.01005 0.0
C232 C 0.4375 0.70348 0.00599 0.0
C233 C 0.32809 0.75069 0.03102 0.0
C234 C 0.2748 0.73983 0.01996 0.0
C235 C 0.34365 0.79355 0.04352 0.0
C236 C 0.39956 0.80487 0.05786 0.0
C237 C 0.42242 0.84341 0.05004 0.0
C238 C 0.47529 0.8535 0.06325 0.0
C239 C 0.50568 0.82539 0.08441 0.0
C240 C 0.48324 0.78719 0.09246 0.0
C241 C 0.4304 0.77697 0.07934 0.0
H242 H 0.54661 0.83324 0.09458 0.0
H243 H 0.03212 0.72874 0.97783 0.0
H244 H 0.9058 0.89741 0.02934 0.0
H245 H 0.84536 0.8343 0.02258 0.0
H246 H 0.85161 0.81579 0.93583 0.0
H247 H 0.91123 0.88035 0.94218 0.0
H248 H 0.75484 0.8143 0.93628 0.0
H249 H 0.90477 0.73454 0.98707 0.0
H250 H 0.9881 0.7188 0.02395 0.0
H251 H 0.91118 0.72807 0.08952 0.0
H252 H 0.82727 0.74378 0.05304 0.0
H253 H 0.59884 0.614 0.95363 0.0
H254 H 0.67215 0.65582 0.9456 0.0
H255 H 0.65799 0.75637 0.00715 0.0
H256 H 0.58374 0.71542 0.01453 0.0
H257 H 0.76722 0.6994 0.01083 0.0
H258 H 0.62186 0.79768 0.95528 0.0
H259 H 0.54009 0.80742 0.9159 0.0
H260 H 0.61453 0.75405 0.85579 0.0
H261 H 0.69654 0.74341 0.89497 0.0
C262 C 0.89483 0.87966 0.00891 0.0
C263 C 0.91303 0.89381 0.98626 0.0
C264 C 0.86065 0.84328 0.00515 0.0
C265 C 0.84486 0.8198 0.97887 0.0
C266 C 0.86368 0.83334 0.95632 0.0
C267 C 0.89755 0.87018 0.95997 0.0
C268 C 0.80493 0.784 0.97461 0.0
C269 C 0.75817 0.78843 0.95218 0.0
C270 C 0.80936 0.74989 0.99512 0.0
C271 C 0.85971 0.74048 0.01728 0.0
C272 C 0.90565 0.73347 0.00937 0.0
C273 C 0.95301 0.72451 0.03021 0.0
C274 C 0.95502 0.72266 0.05908 0.0
C275 C 0.90958 0.72951 0.06715 0.0
C276 C 0.86204 0.73824 0.04638 0.0
C277 C 0.61205 0.64447 0.96581 0.0
C278 C 0.58886 0.65937 0.98659 0.0
C279 C 0.65333 0.66852 0.96094 0.0
C280 C 0.67083 0.70826 0.97638 0.0
C281 C 0.64536 0.72503 0.99559 0.0
C282 C 0.60357 0.70134 7e-05 0.0
C283 C 0.71719 0.73175 0.97361 0.0
C284 C 0.76493 0.72455 0.99459 0.0
C285 C 0.71407 0.76248 0.95148 0.0
C286 C 0.66496 0.76917 0.92805 0.0
C287 C 0.62057 0.78756 0.93372 0.0
C288 C 0.57425 0.79336 0.91143 0.0
C289 C 0.57205 0.7812 0.88337 0.0
C290 C 0.61624 0.76335 0.87754 0.0
C291 C 0.66263 0.75744 0.89977 0.0
H292 H 0.53617 0.78573 0.86614 0.0
H293 H 0.99176 0.7158 0.07518 0.0
H294 H 0.88017 0.11962 0.94617 0.0
H295 H 0.8253 0.18457 0.94875 0.0
H296 H 0.81956 0.14304 0.03207 0.0
H297 H 0.87413 0.07838 0.02977 0.0
H298 H 0.72753 0.20276 0.96061 0.0
H299 H 0.85897 0.23559 0.07543 0.0
H300 H 0.94697 0.21556 0.10646 0.0
H301 H 0.00256 0.20403 0.0327 0.0
H302 H 0.91511 0.22457 0.00132 0.0
H303 H 0.62646 0.3941 0.0074 0.0
H304 H 0.67168 0.32193 0.01833 0.0
H305 H 0.80035 0.37432 0.99164 0.0
H306 H 0.75481 0.44618 0.98024 0.0
H307 H 0.82846 0.30752 0.03733 0.0
H308 H 0.70966 0.33636 0.94219 0.0
H309 H 0.62395 0.36027 0.91049 0.0
H310 H 0.54831 0.25191 0.94043 0.0
H311 H 0.63348 0.22829 0.97308 0.0
C312 C 0.86583 0.12363 0.96461 0.0
C313 C 0.88226 0.0947 0.98804 0.0
C314 C 0.83449 0.16058 0.96602 0.0
C315 C 0.81949 0.1687 0.99083 0.0
C316 C 0.83147 0.13739 0.01294 0.0
C317 C 0.86275 0.10065 0.01159 0.0
C318 C 0.79827 0.21273 0.99545 0.0
C319 C 0.74927 0.22551 0.9775 0.0
C320 C 0.82727 0.24241 0.01733 0.0
C321 C 0.88037 0.23113 0.03605 0.0
C322 C 0.89005 0.22895 0.06588 0.0
C323 C 0.93981 0.21749 0.08351 0.0
C324 C 0.98027 0.20838 0.07154 0.0
C325 C 0.97113 0.21092 0.04193 0.0
C326 C 0.92146 0.22242 0.02421 0.0
C327 C 0.66544 0.39069 0.00515 0.0
C328 C 0.68732 0.425 0.99281 0.0
C329 C 0.69109 0.34963 0.01134 0.0
C330 C 0.73882 0.34302 0.00541 0.0
C331 C 0.76354 0.37911 0.99637 0.0
C332 C 0.73758 0.41991 0.98979 0.0
C333 C 0.75745 0.29725 0.00277 0.0
C334 C 0.8062 0.28431 0.02088 0.0
C335 C 0.72867 0.26777 0.98072 0.0
C336 C 0.67781 0.28088 0.96031 0.0
C337 C 0.67471 0.31784 0.94218 0.0
C338 C 0.62625 0.33134 0.92404 0.0
C339 C 0.58074 0.3076 0.92343 0.0
C340 C 0.58361 0.27029 0.94095 0.0
C341 C 0.63194 0.25689 0.95932 0.0
H342 H 0.54325 0.31808 0.90935 0.0
H343 H 0.01872 0.19944 0.08522 0.0
H344 H 0.67607 0.59882 0.55902 0.0
H345 H 0.74272 0.65579 0.55977 0.0
H346 H 0.63458 0.72171 0.48805 0.0
H347 H 0.56917 0.66339 0.48627 0.0
H348 H 0.72412 0.7165 0.47882 0.0
H349 H 0.66786 0.76255 0.56039 0.0
H350 H 0.65044 0.75238 0.6068 0.0
H351 H 0.81213 0.71981 0.64621 0.0
H352 H 0.83036 0.72929 0.59995 0.0
H353 H 0.82773 0.94015 0.49608 0.0
H354 H 0.78029 0.86828 0.48861 0.0
H355 H 0.90869 0.80735 0.55257 0.0
H356 H 0.95593 0.87912 0.56017 0.0
H357 H 0.81811 0.80367 0.56609 0.0
H358 H 0.8752 0.76878 0.48454 0.0
H359 H 0.8909 0.78224 0.43806 0.0
H360 H 0.72566 0.79783 0.3982 0.0
H361 H 0.70897 0.78512 0.44454 0.0
C362 C 0.66642 0.62598 0.54379 0.0
C363 C 0.61761 0.62712 0.52272 0.0
C364 C 0.70445 0.65843 0.54417 0.0
C365 C 0.69351 0.69324 0.52408 0.0
C366 C 0.64403 0.69503 0.50362 0.0
C367 C 0.60656 0.66201 0.50279 0.0
C368 C 0.73369 0.72744 0.52383 0.0
C369 C 0.74433 0.7359 0.49784 0.0
C370 C 0.76126 0.7517 0.54883 0.0
C371 C 0.75032 0.74615 0.57666 0.0
C372 C 0.6996 0.75292 0.57892 0.0
C373 C 0.6896 0.74733 0.6052 0.0
C374 C 0.73012 0.73532 0.62942 0.0
C375 C 0.78076 0.72903 0.62743 0.0
C376 C 0.79096 0.73454 0.6012 0.0
C377 C 0.84643 0.91095 0.50775 0.0
C378 C 0.89486 0.91501 0.52899 0.0
C379 C 0.81946 0.86996 0.50347 0.0
C380 C 0.84098 0.83269 0.52021 0.0
C381 C 0.89142 0.83584 0.53959 0.0
C382 C 0.91822 0.87673 0.54393 0.0
C383 C 0.80772 0.79336 0.52098 0.0
C384 C 0.79838 0.78391 0.54712 0.0
C385 C 0.78099 0.7687 0.49606 0.0
C386 C 0.79088 0.77631 0.46811 0.0
C387 C 0.84222 0.77545 0.46593 0.0
C388 C 0.8513 0.78287 0.43959 0.0
C389 C 0.80932 0.79097 0.41521 0.0
C390 C 0.75815 0.79157 0.41711 0.0
C391 C 0.74885 0.7842 0.4434 0.0
H392 H 0.81643 0.79671 0.39483 0.0
H393 H 0.7223 0.731 0.64974 0.0
H394 H 0.69707 0.45527 0.54808 0.0
H395 H 0.76759 0.40339 0.54727 0.0
H396 H 0.67229 0.34858 0.46622 0.0
H397 H 0.60355 0.40265 0.4661 0.0
H398 H 0.7752 0.32002 0.5502 0.0
H399 H 0.74197 0.30518 0.42697 0.0
H400 H 0.71387 0.35303 0.38428 0.0
H401 H 0.76255 0.47103 0.43709 0.0
H402 H 0.79159 0.42388 0.48003 0.0
H403 H 0.90968 0.1283 0.52613 0.0
H404 H 0.84336 0.18474 0.52517 0.0
H405 H 0.92734 0.27968 0.48853 0.0
H406 H 0.98972 0.22147 0.48615 0.0
H407 H 0.83401 0.29184 0.46431 0.0
H408 H 0.93022 0.27749 0.56326 0.0
H409 H 0.96934 0.23664 0.60812 0.0
H410 H 0.81639 0.19354 0.60914 0.0
H411 H 0.77638 0.23367 0.56407 0.0
C412 C 0.69177 0.43252 0.52994 0.0
C413 C 0.64545 0.433 0.50702 0.0
C414 C 0.73182 0.40279 0.52954 0.0
C415 C 0.72558 0.37238 0.50653 0.0
C416 C 0.67878 0.37257 0.48379 0.0
C417 C 0.63943 0.40327 0.48377 0.0
C418 C 0.76729 0.33956 0.50673 0.0
C419 C 0.78838 0.31412 0.53149 0.0
C420 C 0.78524 0.33235 0.48254 0.0
C421 C 0.7685 0.36097 0.45675 0.0
C422 C 0.7469 0.34132 0.42945 0.0
C423 C 0.73076 0.36832 0.40521 0.0
C424 C 0.73627 0.41504 0.40798 0.0
C425 C 0.75813 0.43485 0.43498 0.0
C426 C 0.77438 0.408 0.45928 0.0
C427 C 0.91277 0.16055 0.51677 0.0
C428 C 0.95304 0.16963 0.5045 0.0
C429 C 0.87555 0.19329 0.51693 0.0
C430 C 0.88039 0.23674 0.50694 0.0
C431 C 0.92209 0.2463 0.49593 0.0
C432 C 0.95788 0.21304 0.49466 0.0
C433 C 0.84225 0.27242 0.50784 0.0
C434 C 0.82142 0.29813 0.48318 0.0
C435 C 0.82657 0.28142 0.53262 0.0
C436 C 0.85035 0.25831 0.56017 0.0
C437 C 0.90495 0.25919 0.57301 0.0
C438 C 0.92728 0.23614 0.59846 0.0
C439 C 0.89538 0.2124 0.61143 0.0
C440 C 0.84105 0.2119 0.59905 0.0
C441 C 0.81851 0.23485 0.57358 0.0
H442 H 0.91276 0.19445 0.63108 0.0
H443 H 0.72369 0.43589 0.3892 0.0
H444 H 0.47603 0.36242 0.52745 0.0
H445 H 0.42133 0.29474 0.52026 0.0
H446 H 0.31017 0.35629 0.44771 0.0
H447 H 0.36667 0.4225 0.45374 0.0
H448 H 0.33442 0.28685 0.52721 0.0
H449 H 0.23273 0.28438 0.40294 0.0
H450 H 0.25735 0.29635 0.35874 0.0
H451 H 0.41763 0.26613 0.40339 0.0
H452 H 0.39392 0.25329 0.44776 0.0
H453 H 0.08159 0.21493 0.49807 0.0
H454 H 0.1592 0.25597 0.49601 0.0
H455 H 0.20964 0.14048 0.45699 0.0
H456 H 0.13038 0.09985 0.45791 0.0
H457 H 0.23194 0.21747 0.43465 0.0
H458 H 0.26535 0.15795 0.52749 0.0
H459 H 0.24714 0.13895 0.57261 0.0
H460 H 0.23768 0.27932 0.59205 0.0
H461 H 0.25555 0.2992 0.54694 0.0
C462 C 0.44027 0.36099 0.50972 0.0
C463 C 0.42513 0.39747 0.49122 0.0
C464 C 0.40916 0.32237 0.50556 0.0
C465 C 0.3618 0.32011 0.48328 0.0
C466 C 0.3472 0.35649 0.46452 0.0
C467 C 0.37912 0.39456 0.46817 0.0
C468 C 0.32465 0.28248 0.48177 0.0
C469 C 0.31274 0.27128 0.50697 0.0
C470 C 0.29709 0.26107 0.45554 0.0
C471 C 0.31153 0.26808 0.42876 0.0
C472 C 0.27317 0.27995 0.4033 0.0
C473 C 0.28699 0.28698 0.37822 0.0
C474 C 0.33903 0.28209 0.37827 0.0
C475 C 0.37735 0.27003 0.4034 0.0
C476 C 0.36375 0.26293 0.42854 0.0
C477 C 0.10929 0.19811 0.48924 0.0
C478 C 0.10201 0.15304 0.48017 0.0
C479 C 0.15355 0.22161 0.48801 0.0
C480 C 0.19113 0.20049 0.47749 0.0
C481 C 0.18167 0.15686 0.46591 0.0
C482 C 0.13681 0.13349 0.46683 0.0
C483 C 0.24082 0.22405 0.47977 0.0
C484 C 0.25488 0.23242 0.45484 0.0
C485 C 0.2718 0.24168 0.50639 0.0
C486 C 0.26167 0.23004 0.53378 0.0
C487 C 0.25923 0.18477 0.54134 0.0
C488 C 0.24903 0.17385 0.56693 0.0
C489 C 0.24116 0.2079 0.58516 0.0
C490 C 0.24379 0.25297 0.5779 0.0
C491 C 0.25414 0.2641 0.55237 0.0
H492 H 0.23309 0.19936 0.60492 0.0
H493 H 0.34965 0.2876 0.35884 0.0
H494 H 0.40862 0.58955 0.5569 0.0
H495 H 0.34303 0.64374 0.56163 0.0
H496 H 0.29409 0.66221 0.47008 0.0
H497 H 0.35936 0.60793 0.46508 0.0
H498 H 0.34503 0.73011 0.54848 0.0
H499 H 0.16776 0.69046 0.44693 0.0
H500 H 0.1208 0.6237 0.4214 0.0
H501 H 0.17433 0.54646 0.49816 0.0
H502 H 0.22095 0.6129 0.52432 0.0
H503 H 0.22407 0.90909 0.46644 0.0
H504 H 0.26516 0.83884 0.48696 0.0
H505 H 0.13598 0.81233 0.52069 0.0
H506 H 0.09494 0.88337 0.50042 0.0
H507 H 0.16051 0.74074 0.48745 0.0
H508 H 0.24359 0.83033 0.56826 0.0
H509 H 0.28935 0.89668 0.59499 0.0
H510 H 0.42088 0.87171 0.56352 0.0
H511 H 0.37562 0.80562 0.53622 0.0
C512 C 0.38333 0.6046 0.53769 0.0
C513 C 0.38952 0.59489 0.5106 0.0
C514 C 0.34582 0.63543 0.54048 0.0
C515 C 0.31356 0.65669 0.51623 0.0
C516 C 0.31806 0.64556 0.48903 0.0
C517 C 0.35567 0.61484 0.48622 0.0
C518 C 0.28001 0.69463 0.51936 0.0
C519 C 0.3044 0.7322 0.53555 0.0
C520 C 0.2266 0.69676 0.50317 0.0
C521 C 0.19806 0.65674 0.48759 0.0
C522 C 0.16923 0.65936 0.45845 0.0
C523 C 0.14273 0.62152 0.44384 0.0
C524 C 0.14464 0.58085 0.45814 0.0
C525 C 0.17299 0.57795 0.48709 0.0
C526 C 0.19953 0.61568 0.50181 0.0
C527 C 0.20489 0.88849 0.47856 0.0
C528 C 0.15657 0.90122 0.48192 0.0
C529 C 0.22838 0.84865 0.49036 0.0
C530 C 0.20363 0.82078 0.50545 0.0
C531 C 0.15565 0.8337 0.50924 0.0
C532 C 0.13247 0.87409 0.49779 0.0
C533 C 0.22676 0.77666 0.51502 0.0
C534 C 0.20054 0.73803 0.50117 0.0
C535 C 0.27829 0.77336 0.53362 0.0
C536 C 0.30608 0.81298 0.55013 0.0
C537 C 0.28215 0.83912 0.56689 0.0
C538 C 0.30802 0.87669 0.58217 0.0
C539 C 0.35799 0.88841 0.58095 0.0
C540 C 0.3822 0.86255 0.56447 0.0
C541 C 0.35648 0.82497 0.54913 0.0
H542 H 0.37796 0.91751 0.59279 0.0
H543 H 0.12412 0.5516 0.44678 0.0
H544 H 0.06917 0.07534 0.16156 0.0
H545 H 0.07681 0.07517 0.21276 0.0
H546 H 0.00594 0.943 0.20306 0.0
H547 H -0.00339 0.94387 0.15171 0.0
H548 H 0.96843 -0.00813 0.23689 0.0
H549 H 0.14185 0.96117 0.23065 0.0
H550 H 0.22137 0.97581 0.21625 0.0
H551 H 0.24559 0.10072 0.26348 0.0
H552 H 0.16578 0.0871 0.27785 0.0
H553 H 0.05673 0.92031 0.38132 0.0
H554 H 0.04287 0.92878 0.32981 0.0
H555 H 0.09654 0.06646 0.34403 0.0
H556 H 0.11119 0.05802 0.39561 0.0
H557 H 0.14157 0.01911 0.30847 0.0
H558 H 0.96977 0.0464 0.31687 0.0
H559 H 0.89137 0.02959 0.33182 0.0
H560 H 0.86544 0.90815 0.281 0.0
H561 H 0.94419 0.9239 0.26607 0.0
C562 C 0.05528 0.04633 0.17046 0.0
C563 C 0.0326 0.00951 0.15287 0.0
C564 C 0.05974 0.04618 0.19966 0.0
C565 C 0.04278 0.00872 0.21184 0.0
C566 C 0.0193 0.97225 0.19413 0.0
C567 C 0.01405 0.97272 0.16486 0.0
C568 C 0.05002 0.00712 0.24309 0.0
C569 C 0.00642 -0.00266 0.25252 0.0
C570 C 0.09935 0.01527 0.26352 0.0
C571 C 0.14757 0.02332 0.25509 0.0
C572 C 0.16395 -0.0081 0.23781 0.0
C573 C 0.20909 -1e-05 0.22967 0.0
C574 C 0.23844 0.03923 0.23888 0.0
C575 C 0.22278 0.07038 0.25633 0.0
C576 C 0.17762 0.06248 0.26449 0.0
C577 C 0.06572 0.95229 0.37344 0.0
C578 C 0.0849 0.98854 0.39238 0.0
C579 C 0.05744 0.95719 0.34406 0.0
C580 C 0.06827 -0.00164 0.33319 0.0
C581 C 0.08779 0.0345 0.35206 0.0
C582 C 0.09578 0.02971 0.38142 0.0
C583 C 0.06017 0.00338 0.30213 0.0
C584 C 0.10358 0.01384 0.29279 0.0
C585 C 0.01081 -0.00449 0.2818 0.0
C586 C 0.96316 0.98615 0.29055 0.0
C587 C 0.94759 0.01593 0.30905 0.0
C588 C 0.90304 0.00662 0.31749 0.0
C589 C 0.87351 0.96777 0.30742 0.0
C590 C 0.88839 0.93821 0.28881 0.0
C591 C 0.93295 0.94734 0.28033 0.0
H592 H 0.83903 0.96062 0.31398 0.0
H593 H 0.27337 0.04544 0.23255 0.0
H594 H 0.93005 0.07207 0.83588 0.0
H595 H 0.92664 0.08102 0.78562 0.0
H596 H 0.0447 0.97867 0.79486 0.0
H597 H 0.04909 0.97049 0.84528 0.0
H598 H 0.06534 0.04498 0.76543 0.0
H599 H 0.9127 0.95745 0.76166 0.0
H600 H 0.82971 0.93915 0.77157 0.0
H601 H 0.75955 0.05837 0.72813 0.0
H602 H 0.84243 0.07772 0.71831 0.0
H603 H 0.01176 0.96465 0.62203 0.0
H604 H 0.02346 0.97666 0.67319 0.0
H605 H 0.93037 0.09711 0.65433 0.0
H606 H 0.91905 0.0854 0.6029 0.0
H607 H 0.89674 0.03124 0.68808 0.0
H608 H 0.05258 0.11084 0.68718 0.0
H609 H 0.13588 0.12097 0.67584 0.0
H610 H 0.20043 0.00656 0.72681 0.0
H611 H 0.11723 -0.00471 0.73812 0.0
C612 C 0.95499 0.05133 0.82707 0.0
C613 C 0.98965 0.02044 0.84434 0.0
C614 C 0.95306 0.05647 0.79841 0.0
C615 C 0.98502 0.03017 0.78638 0.0
C616 C 0.01982 -0.00056 0.80369 0.0
C617 C 0.02223 -0.00529 0.83244 0.0
C618 C 0.982 0.0343 0.75572 0.0
C619 C 0.0285 0.04168 0.74853 0.0
C620 C 0.93382 0.03081 0.73366 0.0
C621 C 0.88396 0.01932 0.73957 0.0
C622 C 0.87971 0.97997 0.75445 0.0
C623 C 0.83267 0.96937 0.76 0.0
C624 C 0.78943 -0.00234 0.75057 0.0
C625 C 0.79311 0.03655 0.73548 0.0
C626 C 0.8401 0.04734 0.7299 0.0
C627 C 0.99459 -0.00592 0.6289 0.0
C628 C 0.9644 0.02405 0.60873 0.0
C629 C 0.00142 0.00098 0.65804 0.0
C630 C 0.97783 0.03778 0.66742 0.0
C631 C 0.94894 0.0686 0.64739 0.0
C632 C 0.94272 0.06203 0.61818 0.0
C633 C 0.98002 0.04149 0.69792 0.0
C634 C 0.93338 0.03535 0.70506 0.0
C635 C 0.02817 0.04509 0.71986 0.0
C636 C 0.07849 0.05207 0.71335 0.0
C637 C 0.08439 0.08763 0.69581 0.0
C638 C 0.13163 0.09362 0.68941 0.0
C639 C 0.17339 0.06439 0.70056 0.0
C640 C 0.16804 0.02918 0.71819 0.0
C641 C 0.12087 0.02302 0.72463 0.0
H642 H 0.20992 0.06907 0.69557 0.0
H643 H 0.75304 0.98938 0.75488 0.0
H644 H 0.49534 0.44093 0.65921 0.0
H645 H 0.50106 0.44225 0.71003 0.0
H646 H 0.63447 0.53138 0.7276 0.0
H647 H 0.62723 0.53298 0.67662 0.0
H648 H 0.63449 0.44219 0.76425 0.0
H649 H 0.54736 0.58453 0.72955 0.0
H650 H 0.47806 0.62848 0.69605 0.0
H651 H 0.36018 0.55082 0.7181 0.0
H652 H 0.4289 0.50592 0.75141 0.0
H653 H 0.67701 0.51353 0.90545 0.0
H654 H 0.66493 0.51216 0.85389 0.0
H655 H 0.50116 0.47954 0.83831 0.0
H656 H 0.51303 0.48271 0.89019 0.0
H657 H 0.51158 0.53546 0.79936 0.0
H658 H 0.59118 0.39688 0.83543 0.0
H659 H 0.65495 0.3463 0.86726 0.0
H660 H 0.77977 0.40724 0.8418 0.0
H661 H 0.71676 0.45826 0.80981 0.0
C662 C 0.52555 0.46136 0.67371 0.0
C663 C 0.56052 0.48721 0.6636 0.0
C664 C 0.52896 0.46167 0.70277 0.0
C665 C 0.56798 0.48706 0.72229 0.0
C666 C 0.60416 0.51155 0.71266 0.0
C667 C 0.60015 0.51207 0.68353 0.0
C668 C 0.57038 0.48873 0.75277 0.0
C669 C 0.60815 0.46291 0.77211 0.0
C670 C 0.53442 0.51436 0.7625 0.0
C671 C 0.4932 0.54152 0.74266 0.0
C672 C 0.50666 0.57651 0.72701 0.0
C673 C 0.4675 0.60166 0.70811 0.0
C674 C 0.41474 0.59234 0.70486 0.0
C675 C 0.40105 0.55794 0.72058 0.0
C676 C 0.44009 0.53265 0.73948 0.0
C677 C 0.63838 0.50653 0.89092 0.0
C678 C 0.59596 0.4979 0.90151 0.0
C679 C 0.63155 0.50542 0.86155 0.0
C680 C 0.58246 0.49452 0.8423 0.0
C681 C 0.53945 0.48767 0.85282 0.0
C682 C 0.54615 0.48952 0.88232 0.0
C683 C 0.57674 0.48964 0.81131 0.0
C684 C 0.53805 0.51459 0.79171 0.0
C685 C 0.6112 0.46234 0.80123 0.0
C686 C 0.64929 0.43165 0.82039 0.0
C687 C 0.63227 0.3997 0.83675 0.0
C688 C 0.66827 0.37093 0.85481 0.0
C689 C 0.7214 0.37374 0.85669 0.0
C690 C 0.73861 0.40516 0.84037 0.0
C691 C 0.70275 0.43392 0.8222 0.0
H692 H 0.7492 0.35146 0.87072 0.0
H693 H 0.38447 0.61186 0.69023 0.0
H694 H 0.39918 0.56537 0.33935 0.0
H695 H 0.39217 0.56694 0.28832 0.0
H696 H 0.55511 0.53165 0.30732 0.0
H697 H 0.56201 0.52675 0.358 0.0
H698 H 0.50961 0.60955 0.26431 0.0
H699 H 0.49195 0.45181 0.28761 0.0
H700 H 0.45238 0.39083 0.30821 0.0
H701 H 0.30012 0.42411 0.25262 0.0
H702 H 0.3388 0.48583 0.23204 0.0
H703 H 0.53577 0.53209 0.13055 0.0
H704 H 0.5403 0.54698 0.18075 0.0
H705 H 0.37297 0.52656 0.15982 0.0
H706 H 0.36897 0.51002 0.11009 0.0
H707 H 0.41801 0.48105 0.20429 0.0
H708 H 0.43267 0.63244 0.17657 0.0
H709 H 0.46811 0.69535 0.15543 0.0
H710 H 0.61858 0.67916 0.21762 0.0
H711 H 0.58427 0.61564 0.23887 0.0
C712 C 0.4335 0.5575 0.33278 0.0
C713 C 0.48115 0.54579 0.35301 0.0
C714 C 0.42951 0.55903 0.30364 0.0
C715 C 0.47327 0.54975 0.29431 0.0
C716 C 0.52118 0.5395 0.31432 0.0
C717 C 0.52498 0.53695 0.34334 0.0
C718 C 0.46812 0.54719 0.26347 0.0
C719 C 0.48996 0.58143 0.25107 0.0
C720 C 0.44133 0.51101 0.24637 0.0
C721 C 0.41814 0.47378 0.25859 0.0
C722 C 0.44997 0.44644 0.28002 0.0
C723 C 0.42772 0.41168 0.29164 0.0
C724 C 0.37373 0.40371 0.28181 0.0
C725 C 0.34191 0.4304 0.26027 0.0
C726 C 0.36397 0.46526 0.24862 0.0
C727 C 0.50007 0.53142 0.13677 0.0
C728 C 0.45213 0.5197 0.11676 0.0
C729 C 0.50254 0.54008 0.16533 0.0
C730 C 0.45687 0.53814 0.17403 0.0
C731 C 0.40872 0.52802 0.15366 0.0
C732 C 0.40642 0.51866 0.12532 0.0
C733 C 0.45952 0.54356 0.20463 0.0
C734 C 0.43732 0.50962 0.21718 0.0
C735 C 0.48531 0.58046 0.22167 0.0
C736 C 0.50599 0.61899 0.20916 0.0
C737 C 0.47342 0.64207 0.18563 0.0
C738 C 0.49329 0.67788 0.17363 0.0
C739 C 0.54559 0.69118 0.18514 0.0
C740 C 0.57808 0.66878 0.20872 0.0
C741 C 0.55843 0.6329 0.22076 0.0
H742 H 0.5609 0.71889 0.17581 0.0
H743 H 0.35658 0.37677 0.29082 0.0
loop_
_geom_bond_atom_site_label_1
_geom_bond_atom_site_label_2
_geom_bond_distance
_geom_bond_site_symmetry_2
_ccdc_geom_bond_type
C0 O16 1.251 . S
C0 O18 1.254 1_554 S
N1 C2 1.333 . S
N1 C6 1.307 . S
N1 Zn7 2.020 . S
C2 N1 1.333 . S
C2 C3 1.379 . S
C2 H20 0.952 1_445 S
C3 C2 1.379 . S
C3 C4 1.390 . S
C3 H30 0.949 1_445 S
C4 C3 1.390 . S
C4 C5 1.357 . S
C5 C4 1.357 . S
C5 C6 1.370 . S
C5 H31 0.950 . S
C6 N1 1.307 . S
C6 C5 1.370 . S
C6 H24 0.948 . S
Zn7 N1 2.020 . S
Zn7 O16 2.039 1_445 S
Zn7 O22 2.034 1_455 S
Zn7 O26 2.025 . S
Zn7 O28 2.024 1_545 S
C8 O27 1.246 1_554 S
C8 O28 1.249 . S
N9 C10 1.307 1_455 S
N9 C11 1.333 . S
N9 Zn15 2.020 . S
C10 N9 1.307 1_655 S
C10 C14 1.370 . S
C10 H21 0.948 1_545 S
C11 N9 1.333 . S
C11 C12 1.379 . S
C11 H19 0.952 . S
C12 C11 1.379 . S
C12 C13 1.390 1_455 S
C12 H32 0.949 . S
C13 C12 1.390 1_655 S
C13 C14 1.357 . S
C14 C10 1.370 . S
C14 C13 1.357 . S
C14 H33 0.950 1_545 S
Zn15 N9 2.020 . S
Zn15 O18 2.025 1_445 S
Zn15 O23 2.024 1_455 S
Zn15 O25 2.039 . S
Zn15 O27 2.034 1_545 S
O16 C0 1.251 . S
O16 Zn7 2.039 1_665 S
C17 O22 1.275 . S
C17 O23 1.215 1_554 S
O18 C0 1.254 1_556 S
O18 Zn15 2.025 1_665 S
H19 C11 0.952 . S
H20 C2 0.952 1_665 S
H21 C10 0.948 1_565 S
O22 Zn7 2.034 1_655 S
O22 C17 1.275 . S
O23 Zn15 2.024 1_655 S
O23 C17 1.215 1_556 S
H24 C6 0.948 . S
O25 Zn15 2.039 . S
O25 C29 1.251 1_556 S
O26 Zn7 2.025 . S
O26 C29 1.254 . S
O27 C8 1.246 1_556 S
O27 Zn15 2.034 1_565 S
O28 Zn7 2.024 1_565 S
O28 C8 1.249 . S
C29 O25 1.251 1_554 S
C29 O26 1.254 . S
H30 C3 0.949 1_665 S
H31 C5 0.950 . S
H32 C12 0.949 . S
H33 C14 0.950 1_565 S
C34 O50 1.251 . S
C34 O52 1.254 . S
N35 C36 1.333 . S
N35 C40 1.307 . S
N35 Zn41 2.020 . S
C36 N35 1.333 . S
C36 C37 1.379 . S
C36 H54 0.952 . S
C37 C36 1.379 . S
C37 C38 1.390 . S
C37 H64 0.949 . S
C38 C37 1.390 . S
C38 C39 1.357 . S
C39 C38 1.357 . S
C39 C40 1.370 . S
C39 H65 0.950 . S
C40 N35 1.307 . S
C40 C39 1.370 . S
C40 H58 0.948 . S
Zn41 N35 2.020 . S
Zn41 O50 2.039 . S
Zn41 O56 2.034 . S
Zn41 O60 2.025 . S
Zn41 O62 2.024 . S
C42 O61 1.246 . S
C42 O62 1.249 . S
N43 C44 1.307 . S
N43 C45 1.333 . S
N43 Zn49 2.020 . S
C44 N43 1.307 . S
C44 C48 1.370 . S
C44 H55 0.948 . S
C45 N43 1.333 . S
C45 C46 1.379 . S
C45 H53 0.952 . S
C46 C45 1.379 . S
C46 C47 1.390 . S
C46 H66 0.949 . S
C47 C46 1.390 . S
C47 C48 1.357 . S
C48 C44 1.370 . S
C48 C47 1.357 . S
C48 H67 0.950 . S
Zn49 N43 2.020 . S
Zn49 O52 2.025 . S
Zn49 O57 2.024 . S
Zn49 O59 2.039 . S
Zn49 O61 2.034 . S
O50 C34 1.251 . S
O50 Zn41 2.039 . S
C51 O56 1.246 . S
C51 O57 1.249 . S
O52 C34 1.254 . S
O52 Zn49 2.025 . S
H53 C45 0.952 . S
H54 C36 0.952 . S
H55 C44 0.948 . S
O56 Zn41 2.034 . S
O56 C51 1.246 . S
O57 Zn49 2.024 . S
O57 C51 1.249 . S
H58 C40 0.948 . S
O59 Zn49 2.039 . S
O59 C63 1.251 . S
O60 Zn41 2.025 . S
O60 C63 1.254 . S
O61 C42 1.246 . S
O61 Zn49 2.034 . S
O62 Zn41 2.024 . S
O62 C42 1.249 . S
C63 O59 1.251 . S
C63 O60 1.254 . S
H64 C37 0.949 . S
H65 C39 0.950 . S
H66 C46 0.949 . S
H67 C48 0.950 . S
H68 C69 0.949 . S
C69 H68 0.949 . S
C69 C70 1.395 . S
C69 C71 1.391 . S
C70 C69 1.395 . S
C70 C73 1.390 1_545 S
C71 C69 1.391 . S
C71 C75 1.387 . S
C71 C76 1.491 . S
H72 C73 0.950 . S
C73 C70 1.390 1_565 S
C73 H72 0.950 . S
C73 C74 1.378 . S
C74 C73 1.378 . S
C74 C75 1.409 1_565 S
C75 C71 1.387 . S
C75 C74 1.409 1_545 S
C75 H77 0.951 1_545 S
C76 C71 1.491 . S
C76 C78 1.382 1_455 S
C76 C80 1.404 . S
H77 C75 0.951 1_565 S
C78 C76 1.382 1_655 S
C78 C79 1.390 . S
C78 H83 0.949 . S
C79 C78 1.390 . S
C79 C84 1.399 1_655 S
C80 C76 1.404 . S
C80 H81 0.950 . S
C80 C82 1.375 . S
H81 C80 0.950 . S
C82 C80 1.375 . S
C82 C84 1.382 . S
C82 H86 0.950 . S
H83 C78 0.949 . S
C84 C79 1.399 1_455 S
C84 C82 1.382 . S
C84 H85 0.952 . S
H85 C84 0.952 . S
H86 C82 0.950 . S
H87 C88 0.955 . S
C88 H87 0.955 . S
C88 C89 1.389 1_455 S
C88 C90 1.391 1_455 S
C89 C88 1.389 1_655 S
C89 C92 1.390 1_545 S
C90 C88 1.391 1_655 S
C90 C94 1.387 . S
C90 C95 1.491 1_655 S
H91 C92 0.950 . S
C92 C89 1.390 1_565 S
C92 H91 0.950 . S
C92 C93 1.378 . S
C93 C92 1.378 . S
C93 C94 1.409 1_565 S
C94 C90 1.387 . S
C94 C93 1.409 1_545 S
C94 H96 0.949 1_545 S
C95 C90 1.491 1_455 S
C95 C97 1.382 . S
C95 C99 1.404 1_455 S
H96 C94 0.949 1_565 S
C97 C95 1.382 . S
C97 C98 1.390 . S
C97 H102 0.949 . S
C98 C97 1.390 . S
C98 C103 1.399 . S
C99 C95 1.404 1_655 S
C99 H100 0.950 . S
C99 C101 1.375 . S
H100 C99 0.950 . S
C101 C99 1.375 . S
C101 C103 1.382 1_655 S
C101 H105 0.950 . S
H102 C97 0.949 . S
C103 C98 1.399 . S
C103 C101 1.382 1_455 S
C103 H104 0.952 . S
H104 C103 0.952 . S
H105 C101 0.950 . S
H106 C107 0.949 . S
C107 H106 0.949 . S
C107 C108 1.395 . S
C107 C109 1.391 . S
C108 C107 1.395 . S
C108 C111 1.390 . S
C109 C107 1.391 . S
C109 C113 1.387 . S
C109 C114 1.491 1_556 S
H110 C111 0.950 . S
C111 C108 1.390 . S
C111 H110 0.950 . S
C111 C112 1.378 . S
C112 C111 1.378 . S
C112 C113 1.409 . S
C113 C109 1.387 . S
C113 C112 1.409 . S
C113 H115 0.951 1_556 S
C114 C109 1.491 1_554 S
C114 C116 1.382 1_554 S
C114 C118 1.404 . S
H115 C113 0.951 1_554 S
C116 C114 1.382 1_556 S
C116 C117 1.390 1_556 S
C116 H121 0.949 . S
C117 C116 1.390 1_554 S
C117 C122 1.399 . S
C118 C114 1.404 . S
C118 H119 0.950 . S
C118 C120 1.375 . S
H119 C118 0.950 . S
C120 C118 1.375 . S
C120 C122 1.382 . S
C120 H124 0.950 . S
H121 C116 0.949 . S
C122 C117 1.399 . S
C122 C120 1.382 . S
C122 H123 0.952 . S
H123 C122 0.952 . S
H124 C120 0.950 . S
H125 C126 0.949 . S
C126 H125 0.949 . S
C126 C127 1.395 . S
C126 C128 1.391 . S
C127 C126 1.395 . S
C127 C130 1.390 . S
C128 C126 1.391 . S
C128 C132 1.387 . S
C128 C133 1.491 . S
H129 C130 0.950 . S
C130 C127 1.390 . S
C130 H129 0.950 . S
C130 C131 1.378 . S
C131 C130 1.378 . S
C131 C132 1.409 . S
C132 C128 1.387 . S
C132 C131 1.409 . S
C132 H134 0.951 1_554 S
C133 C128 1.491 . S
C133 C135 1.382 . S
C133 C137 1.404 1_554 S
H134 C132 0.951 1_556 S
C135 C133 1.382 . S
C135 C136 1.390 . S
C135 H140 0.949 . S
C136 C135 1.390 . S
C136 C141 1.399 1_554 S
C137 C133 1.404 1_556 S
C137 H138 0.950 . S
C137 C139 1.375 . S
H138 C137 0.950 . S
C139 C137 1.375 . S
C139 C141 1.382 . S
C139 H143 0.950 . S
H140 C135 0.949 . S
C141 C136 1.399 1_556 S
C141 C139 1.382 . S
C141 H142 0.952 . S
H142 C141 0.952 . S
H143 C139 0.950 . S
H144 C162 0.951 . S
H145 C164 0.951 . S
H146 C166 0.950 1_556 S
H147 C167 0.950 1_556 S
H148 C169 0.950 . S
H149 C172 0.950 . S
H150 C173 0.950 . S
H151 C175 0.950 . S
H152 C176 0.950 . S
H153 C177 0.951 . S
H154 C179 0.951 . S
H155 C181 0.950 . S
H156 C182 0.950 . S
H157 C184 0.950 . S
H158 C187 0.950 . S
H159 C188 0.950 . S
H160 C190 0.950 . S
H161 C191 0.950 . S
C162 H144 0.951 . S
C162 C163 1.366 . S
C162 C164 1.388 . S
C163 C162 1.366 . S
C163 C167 1.385 . S
C164 H145 0.951 . S
C164 C162 1.388 . S
C164 C165 1.366 . S
C165 C164 1.366 . S
C165 C166 1.414 . S
C165 C168 1.499 . S
C166 H146 0.950 1_554 S
C166 C165 1.414 . S
C166 C167 1.374 . S
C167 H147 0.950 1_554 S
C167 C163 1.385 . S
C167 C166 1.374 . S
C168 C165 1.499 . S
C168 C169 1.373 1_554 S
C168 C170 1.389 . S
C169 H148 0.950 . S
C169 C168 1.373 1_556 S
C169 C185 1.377 . S
C170 C168 1.389 . S
C170 C171 1.524 . S
C170 C184 1.377 . S
C171 C170 1.524 . S
C171 C172 1.397 . S
C171 C176 1.363 . S
C172 H149 0.950 . S
C172 C171 1.397 . S
C172 C173 1.334 . S
C173 H150 0.950 . S
C173 C172 1.334 . S
C173 C174 1.287 . S
C174 C173 1.287 . S
C174 C175 1.524 . S
C174 H193 0.913 . S
C175 H151 0.950 . S
C175 C174 1.524 . S
C175 C176 1.415 . S
C176 H152 0.950 . S
C176 C171 1.363 . S
C176 C175 1.415 . S
C177 H153 0.951 . S
C177 C178 1.366 . S
C177 C179 1.388 . S
C178 C177 1.366 . S
C178 C182 1.385 . S
C179 H154 0.951 . S
C179 C177 1.388 . S
C179 C180 1.366 . S
C180 C179 1.366 . S
C180 C181 1.414 . S
C180 C183 1.499 . S
C181 H155 0.950 . S
C181 C180 1.414 . S
C181 C182 1.374 . S
C182 H156 0.950 . S
C182 C178 1.385 . S
C182 C181 1.374 . S
C183 C180 1.499 . S
C183 C184 1.373 . S
C183 C185 1.389 1_554 S
C184 H157 0.950 . S
C184 C170 1.377 . S
C184 C183 1.373 . S
C185 C169 1.377 . S
C185 C183 1.389 1_556 S
C185 C186 1.524 . S
C186 C185 1.524 . S
C186 C187 1.397 . S
C186 C191 1.363 . S
C187 H158 0.950 . S
C187 C186 1.397 . S
C187 C188 1.334 . S
C188 H159 0.950 . S
C188 C187 1.334 . S
C188 C189 1.287 . S
C189 C188 1.287 . S
C189 C190 1.524 . S
C189 H192 0.999 . S
C190 H160 0.950 . S
C190 C189 1.524 . S
C190 C191 1.415 . S
C191 H161 0.950 . S
C191 C186 1.363 . S
C191 C190 1.415 . S
H192 C189 0.999 . S
H193 C174 0.913 . S
H194 C212 0.951 . S
H195 C214 0.951 . S
H196 C216 0.950 . S
H197 C217 0.950 . S
H198 C219 0.950 . S
H199 C222 0.950 . S
H200 C223 0.950 . S
H201 C225 0.950 . S
H202 C226 0.950 . S
H203 C227 0.951 . S
H204 C229 0.951 . S
H205 C231 0.950 . S
H206 C232 0.950 . S
H207 C234 0.950 1_556 S
H208 C237 0.950 . S
H209 C238 0.950 . S
H210 C240 0.950 . S
H211 C241 0.950 . S
C212 H194 0.951 . S
C212 C213 1.366 1_556 S
C212 C214 1.388 . S
C213 C212 1.366 1_554 S
C213 C217 1.385 . S
C214 H195 0.951 . S
C214 C212 1.388 . S
C214 C215 1.366 1_556 S
C215 C214 1.366 1_554 S
C215 C216 1.414 . S
C215 C218 1.499 . S
C216 H196 0.950 . S
C216 C215 1.414 . S
C216 C217 1.374 . S
C217 H197 0.950 . S
C217 C213 1.385 . S
C217 C216 1.374 . S
C218 C215 1.499 . S
C218 C219 1.373 . S
C218 C220 1.389 . S
C219 H198 0.950 . S
C219 C218 1.373 . S
C219 C235 1.377 . S
C220 C218 1.389 . S
C220 C221 1.520 . S
C220 C234 1.377 . S
C221 C220 1.520 . S
C221 C222 1.419 . S
C221 C226 1.346 1_554 S
C222 H199 0.950 . S
C222 C221 1.419 . S
C222 C223 1.334 . S
C223 H200 0.950 . S
C223 C222 1.334 . S
C223 C224 1.287 . S
C224 C223 1.287 . S
C224 C225 1.524 1_554 S
C224 H243 0.913 . S
C225 H201 0.950 . S
C225 C224 1.524 1_556 S
C225 C226 1.415 . S
C226 H202 0.950 . S
C226 C221 1.346 1_556 S
C226 C225 1.415 . S
C227 H203 0.951 . S
C227 C228 1.366 . S
C227 C229 1.388 . S
C228 C227 1.366 . S
C228 C232 1.385 1_554 S
C229 H204 0.951 . S
C229 C227 1.388 . S
C229 C230 1.366 . S
C230 C229 1.366 . S
C230 C231 1.414 1_554 S
C230 C233 1.499 . S
C231 H205 0.950 . S
C231 C230 1.414 1_556 S
C231 C232 1.374 . S
C232 H206 0.950 . S
C232 C228 1.385 1_556 S
C232 C231 1.374 . S
C233 C230 1.499 . S
C233 C234 1.373 . S
C233 C235 1.389 . S
C234 H207 0.950 1_554 S
C234 C220 1.377 . S
C234 C233 1.373 . S
C235 C219 1.377 . S
C235 C233 1.389 . S
C235 C236 1.524 . S
C236 C235 1.524 . S
C236 C237 1.397 1_554 S
C236 C241 1.363 . S
C237 H208 0.950 . S
C237 C236 1.397 1_556 S
C237 C238 1.334 . S
C238 H209 0.950 . S
C238 C237 1.334 . S
C238 C239 1.287 1_556 S
C239 C238 1.287 1_554 S
C239 C240 1.524 . S
C239 H242 0.999 . S
C240 H210 0.950 . S
C240 C239 1.524 . S
C240 C241 1.415 . S
C241 H211 0.950 . S
C241 C236 1.363 . S
C241 C240 1.415 . S
H242 C239 0.999 . S
H243 C224 0.913 . S
H244 C262 0.951 . S
H245 C264 0.951 . S
H246 C266 0.950 . S
H247 C267 0.950 . S
H248 C269 0.950 . S
H249 C272 0.950 . S
H250 C273 0.950 . S
H251 C275 0.950 . S
H252 C276 0.950 . S
H253 C277 0.951 . S
H254 C279 0.951 . S
H255 C281 0.950 . S
H256 C282 0.950 . S
H257 C284 0.950 . S
H258 C287 0.950 . S
H259 C288 0.950 . S
H260 C290 0.950 . S
H261 C291 0.950 . S
C262 H244 0.951 . S
C262 C263 1.366 . S
C262 C264 1.388 . S
C263 C262 1.366 . S
C263 C267 1.385 1_554 S
C264 H245 0.951 . S
C264 C262 1.388 . S
C264 C265 1.366 . S
C265 C264 1.366 . S
C265 C266 1.414 1_554 S
C265 C268 1.499 . S
C266 H246 0.950 . S
C266 C265 1.414 1_556 S
C266 C267 1.374 . S
C267 H247 0.950 . S
C267 C263 1.385 1_556 S
C267 C266 1.374 . S
C268 C265 1.499 . S
C268 C269 1.373 1_554 S
C268 C270 1.389 . S
C269 H248 0.950 . S
C269 C268 1.373 1_556 S
C269 C285 1.377 . S
C270 C268 1.389 . S
C270 C271 1.524 . S
C270 C284 1.377 . S
C271 C270 1.524 . S
C271 C272 1.397 . S
C271 C276 1.363 . S
C272 H249 0.950 . S
C272 C271 1.397 . S
C272 C273 1.334 . S
C273 H250 0.950 . S
C273 C272 1.334 . S
C273 C274 1.287 . S
C274 C273 1.287 . S
C274 C275 1.524 . S
C274 H293 0.913 . S
C275 H251 0.950 . S
C275 C274 1.524 . S
C275 C276 1.415 . S
C276 H252 0.950 . S
C276 C271 1.363 . S
C276 C275 1.415 . S
C277 H253 0.951 . S
C277 C278 1.366 1_556 S
C277 C279 1.388 . S
C278 C277 1.366 1_554 S
C278 C282 1.385 . S
C279 H254 0.951 . S
C279 C277 1.388 . S
C279 C280 1.366 1_556 S
C280 C279 1.366 1_554 S
C280 C281 1.414 . S
C280 C283 1.499 . S
C281 H255 0.950 . S
C281 C280 1.414 . S
C281 C282 1.374 . S
C282 H256 0.950 . S
C282 C278 1.385 . S
C282 C281 1.374 . S
C283 C280 1.499 . S
C283 C284 1.373 . S
C283 C285 1.389 1_554 S
C284 H257 0.950 . S
C284 C270 1.377 . S
C284 C283 1.373 . S
C285 C269 1.377 . S
C285 C283 1.389 1_556 S
C285 C286 1.524 . S
C286 C285 1.524 . S
C286 C287 1.397 . S
C286 C291 1.363 . S
C287 H258 0.950 . S
C287 C286 1.397 . S
C287 C288 1.334 . S
C288 H259 0.950 . S
C288 C287 1.334 . S
C288 C289 1.287 . S
C289 C288 1.287 . S
C289 C290 1.524 . S
C289 H292 0.999 . S
C290 H260 0.950 . S
C290 C289 1.524 . S
C290 C291 1.415 . S
C291 H261 0.950 . S
C291 C286 1.363 . S
C291 C290 1.415 . S
H292 C289 0.999 . S
H293 C274 0.913 . S
H294 C312 0.945 . S
H295 C314 0.954 1_554 S
H296 C316 0.950 . S
H297 C317 0.950 . S
H298 C319 0.950 . S
H299 C322 0.950 . S
H300 C323 0.950 . S
H301 C325 0.950 . S
H302 C326 0.950 . S
H303 C327 0.951 . S
H304 C329 0.951 . S
H305 C331 0.950 . S
H306 C332 0.950 . S
H307 C334 0.950 . S
H308 C337 0.950 . S
H309 C338 0.950 . S
H310 C340 0.950 . S
H311 C341 0.950 . S
C312 H294 0.945 . S
C312 C313 1.371 1_554 S
C312 C314 1.394 1_554 S
C313 C312 1.371 1_556 S
C313 C317 1.380 . S
C314 H295 0.954 1_556 S
C314 C312 1.394 1_556 S
C314 C315 1.363 . S
C315 C314 1.363 . S
C315 C316 1.414 . S
C315 C318 1.499 . S
C316 H296 0.950 . S
C316 C315 1.414 . S
C316 C317 1.374 . S
C317 H297 0.950 . S
C317 C313 1.380 . S
C317 C316 1.374 . S
C318 C315 1.499 . S
C318 C319 1.373 . S
C318 C320 1.389 1_556 S
C319 H298 0.950 . S
C319 C318 1.373 . S
C319 C335 1.377 . S
C320 C318 1.389 1_554 S
C320 C321 1.524 . S
C320 C334 1.377 . S
C321 C320 1.524 . S
C321 C322 1.397 . S
C321 C326 1.363 . S
C322 H299 0.950 . S
C322 C321 1.397 . S
C322 C323 1.334 . S
C323 H300 0.950 . S
C323 C322 1.334 . S
C323 C324 1.287 . S
C324 C323 1.287 . S
C324 C325 1.524 . S
C324 H343 0.913 . S
C325 H301 0.950 . S
C325 C324 1.524 . S
C325 C326 1.415 . S
C326 H302 0.950 . S
C326 C321 1.363 . S
C326 C325 1.415 . S
C327 H303 0.951 . S
C327 C328 1.366 . S
C327 C329 1.388 . S
C328 C327 1.366 . S
C328 C332 1.385 . S
C329 H304 0.951 . S
C329 C327 1.388 . S
C329 C330 1.366 . S
C330 C329 1.366 . S
C330 C331 1.414 . S
C330 C333 1.499 . S
C331 H305 0.950 . S
C331 C330 1.414 . S
C331 C332 1.374 . S
C332 H306 0.950 . S
C332 C328 1.385 . S
C332 C331 1.374 . S
C333 C330 1.499 . S
C333 C334 1.373 1_556 S
C333 C335 1.389 . S
C334 H307 0.950 . S
C334 C320 1.377 . S
C334 C333 1.373 1_554 S
C335 C319 1.377 . S
C335 C333 1.389 . S
C335 C336 1.524 . S
C336 C335 1.524 . S
C336 C337 1.397 . S
C336 C341 1.363 . S
C337 H308 0.950 . S
C337 C336 1.397 . S
C337 C338 1.334 . S
C338 H309 0.950 . S
C338 C337 1.334 . S
C338 C339 1.287 . S
C339 C338 1.287 . S
C339 C340 1.524 . S
C339 H342 0.999 . S
C340 H310 0.950 . S
C340 C339 1.524 . S
C340 C341 1.415 . S
C341 H311 0.950 . S
C341 C336 1.363 . S
C341 C340 1.415 . S
H342 C339 0.999 . S
H343 C324 0.913 . S
H344 C362 0.951 . S
H345 C364 0.951 . S
H346 C366 0.950 . S
H347 C367 0.950 . S
H348 C369 0.950 . S
H349 C372 0.950 . S
H350 C373 0.950 . S
H351 C375 0.950 . S
H352 C376 0.950 . S
H353 C377 0.951 . S
H354 C379 0.951 . S
H355 C381 0.950 . S
H356 C382 0.950 . S
H357 C384 0.950 . S
H358 C387 0.950 . S
H359 C388 0.950 . S
H360 C390 0.950 . S
H361 C391 0.950 . S
C362 H344 0.951 . S
C362 C363 1.366 . S
C362 C364 1.388 . S
C363 C362 1.366 . S
C363 C367 1.385 . S
C364 H345 0.951 . S
C364 C362 1.388 . S
C364 C365 1.366 . S
C365 C364 1.366 . S
C365 C366 1.414 . S
C365 C368 1.499 . S
C366 H346 0.950 . S
C366 C365 1.414 . S
C366 C367 1.374 . S
C367 H347 0.950 . S
C367 C363 1.385 . S
C367 C366 1.374 . S
C368 C365 1.499 . S
C368 C369 1.373 . S
C368 C370 1.389 . S
C369 H348 0.950 . S
C369 C368 1.373 . S
C369 C385 1.377 . S
C370 C368 1.389 . S
C370 C371 1.524 . S
C370 C384 1.377 . S
C371 C370 1.524 . S
C371 C372 1.397 . S
C371 C376 1.363 . S
C372 H349 0.950 . S
C372 C371 1.397 . S
C372 C373 1.334 . S
C373 H350 0.950 . S
C373 C372 1.334 . S
C373 C374 1.287 . S
C374 C373 1.287 . S
C374 C375 1.524 . S
C374 H393 0.913 . S
C375 H351 0.950 . S
C375 C374 1.524 . S
C375 C376 1.415 . S
C376 H352 0.950 . S
C376 C371 1.363 . S
C376 C375 1.415 . S
C377 H353 0.951 . S
C377 C378 1.366 . S
C377 C379 1.388 . S
C378 C377 1.366 . S
C378 C382 1.385 . S
C379 H354 0.951 . S
C379 C377 1.388 . S
C379 C380 1.366 . S
C380 C379 1.366 . S
C380 C381 1.414 . S
C380 C383 1.499 . S
C381 H355 0.950 . S
C381 C380 1.414 . S
C381 C382 1.374 . S
C382 H356 0.950 . S
C382 C378 1.385 . S
C382 C381 1.374 . S
C383 C380 1.499 . S
C383 C384 1.373 . S
C383 C385 1.389 . S
C384 H357 0.950 . S
C384 C370 1.377 . S
C384 C383 1.373 . S
C385 C369 1.377 . S
C385 C383 1.389 . S
C385 C386 1.524 . S
C386 C385 1.524 . S
C386 C387 1.397 . S
C386 C391 1.363 . S
C387 H358 0.950 . S
C387 C386 1.397 . S
C387 C388 1.334 . S
C388 H359 0.950 . S
C388 C387 1.334 . S
C388 C389 1.287 . S
C389 C388 1.287 . S
C389 C390 1.524 . S
C389 H392 0.999 . S
C390 H360 0.950 . S
C390 C389 1.524 . S
C390 C391 1.415 . S
C391 H361 0.950 . S
C391 C386 1.363 . S
C391 C390 1.415 . S
H392 C389 0.999 . S
H393 C374 0.913 . S
H394 C412 0.951 . S
H395 C414 0.951 . S
H396 C416 0.950 . S
H397 C417 0.950 . S
H398 C419 0.950 . S
H399 C422 0.950 . S
H400 C423 0.950 . S
H401 C425 0.950 . S
H402 C426 0.950 . S
H403 C427 0.951 . S
H404 C429 0.951 . S
H405 C431 0.950 . S
H406 C432 0.950 . S
H407 C434 0.950 . S
H408 C437 0.950 . S
H409 C438 0.950 . S
H410 C440 0.950 . S
H411 C441 0.950 . S
C412 H394 0.951 . S
C412 C413 1.366 . S
C412 C414 1.388 . S
C413 C412 1.366 . S
C413 C417 1.385 . S
C414 H395 0.951 . S
C414 C412 1.388 . S
C414 C415 1.366 . S
C415 C414 1.366 . S
C415 C416 1.414 . S
C415 C418 1.499 . S
C416 H396 0.950 . S
C416 C415 1.414 . S
C416 C417 1.374 . S
C417 H397 0.950 . S
C417 C413 1.385 . S
C417 C416 1.374 . S
C418 C415 1.499 . S
C418 C419 1.373 . S
C418 C420 1.389 . S
C419 H398 0.950 . S
C419 C418 1.373 . S
C419 C435 1.377 . S
C420 C418 1.389 . S
C420 C421 1.524 . S
C420 C434 1.377 . S
C421 C420 1.524 . S
C421 C422 1.397 . S
C421 C426 1.363 . S
C422 H399 0.950 . S
C422 C421 1.397 . S
C422 C423 1.334 . S
C423 H400 0.950 . S
C423 C422 1.334 . S
C423 C424 1.287 . S
C424 C423 1.287 . S
C424 C425 1.524 . S
C424 H443 0.913 . S
C425 H401 0.950 . S
C425 C424 1.524 . S
C425 C426 1.415 . S
C426 H402 0.950 . S
C426 C421 1.363 . S
C426 C425 1.415 . S
C427 H403 0.951 . S
C427 C428 1.366 . S
C427 C429 1.388 . S
C428 C427 1.366 . S
C428 C432 1.385 . S
C429 H404 0.951 . S
C429 C427 1.388 . S
C429 C430 1.366 . S
C430 C429 1.366 . S
C430 C431 1.414 . S
C430 C433 1.499 . S
C431 H405 0.950 . S
C431 C430 1.414 . S
C431 C432 1.374 . S
C432 H406 0.950 . S
C432 C428 1.385 . S
C432 C431 1.374 . S
C433 C430 1.499 . S
C433 C434 1.373 . S
C433 C435 1.389 . S
C434 H407 0.950 . S
C434 C420 1.377 . S
C434 C433 1.373 . S
C435 C419 1.377 . S
C435 C433 1.389 . S
C435 C436 1.524 . S
C436 C435 1.524 . S
C436 C437 1.397 . S
C436 C441 1.363 . S
C437 H408 0.950 . S
C437 C436 1.397 . S
C437 C438 1.334 . S
C438 H409 0.950 . S
C438 C437 1.334 . S
C438 C439 1.287 . S
C439 C438 1.287 . S
C439 C440 1.524 . S
C439 H442 0.999 . S
C440 H410 0.950 . S
C440 C439 1.524 . S
C440 C441 1.415 . S
C441 H411 0.950 . S
C441 C436 1.363 . S
C441 C440 1.415 . S
H442 C439 0.999 . S
H443 C424 0.913 . S
H444 C462 0.951 . S
H445 C464 0.951 . S
H446 C466 0.950 . S
H447 C467 0.950 . S
H448 C469 0.950 . S
H449 C472 0.950 . S
H450 C473 0.950 . S
H451 C475 0.950 . S
H452 C476 0.950 . S
H453 C477 0.951 . S
H454 C479 0.951 . S
H455 C481 0.950 . S
H456 C482 0.950 . S
H457 C484 0.950 . S
H458 C487 0.950 . S
H459 C488 0.950 . S
H460 C490 0.950 . S
H461 C491 0.950 . S
C462 H444 0.951 . S
C462 C463 1.366 . S
C462 C464 1.388 . S
C463 C462 1.366 . S
C463 C467 1.385 . S
C464 H445 0.951 . S
C464 C462 1.388 . S
C464 C465 1.366 . S
C465 C464 1.366 . S
C465 C466 1.414 . S
C465 C468 1.499 . S
C466 H446 0.950 . S
C466 C465 1.414 . S
C466 C467 1.374 . S
C467 H447 0.950 . S
C467 C463 1.385 . S
C467 C466 1.374 . S
C468 C465 1.499 . S
C468 C469 1.373 . S
C468 C470 1.389 . S
C469 H448 0.950 . S
C469 C468 1.373 . S
C469 C485 1.377 . S
C470 C468 1.389 . S
C470 C471 1.524 . S
C470 C484 1.377 . S
C471 C470 1.524 . S
C471 C472 1.397 . S
C471 C476 1.363 . S
C472 H449 0.950 . S
C472 C471 1.397 . S
C472 C473 1.334 . S
C473 H450 0.950 . S
C473 C472 1.334 . S
C473 C474 1.287 . S
C474 C473 1.287 . S
C474 C475 1.524 . S
C474 H493 0.913 . S
C475 H451 0.950 . S
C475 C474 1.524 . S
C475 C476 1.415 . S
C476 H452 0.950 . S
C476 C471 1.363 . S
C476 C475 1.415 . S
C477 H453 0.951 . S
C477 C478 1.366 . S
C477 C479 1.388 . S
C478 C477 1.366 . S
C478 C482 1.385 . S
C479 H454 0.951 . S
C479 C477 1.388 . S
C479 C480 1.366 . S
C480 C479 1.366 . S
C480 C481 1.414 . S
C480 C483 1.499 . S
C481 H455 0.950 . S
C481 C480 1.414 . S
C481 C482 1.374 . S
C482 H456 0.950 . S
C482 C478 1.385 . S
C482 C481 1.374 . S
C483 C480 1.499 . S
C483 C484 1.373 . S
C483 C485 1.389 . S
C484 H457 0.950 . S
C484 C470 1.377 . S
C484 C483 1.373 . S
C485 C469 1.377 . S
C485 C483 1.389 . S
C485 C486 1.524 . S
C486 C485 1.524 . S
C486 C487 1.397 . S
C486 C491 1.363 . S
C487 H458 0.950 . S
C487 C486 1.397 . S
C487 C488 1.334 . S
C488 H459 0.950 . S
C488 C487 1.334 . S
C488 C489 1.287 . S
C489 C488 1.287 . S
C489 C490 1.524 . S
C489 H492 0.999 . S
C490 H460 0.950 . S
C490 C489 1.524 . S
C490 C491 1.415 . S
C491 H461 0.950 . S
C491 C486 1.363 . S
C491 C490 1.415 . S
H492 C489 0.999 . S
H493 C474 0.913 . S
H494 C512 0.951 . S
H495 C514 0.951 . S
H496 C516 0.950 . S
H497 C517 0.950 . S
H498 C519 0.950 . S
H499 C522 0.950 . S
H500 C523 0.950 . S
H501 C525 0.950 . S
H502 C526 0.950 . S
H503 C527 0.951 . S
H504 C529 0.951 . S
H505 C531 0.950 . S
H506 C532 0.950 . S
H507 C534 0.950 . S
H508 C537 0.950 . S
H509 C538 0.950 . S
H510 C540 0.950 . S
H511 C541 0.950 . S
C512 H494 0.951 . S
C512 C513 1.366 . S
C512 C514 1.388 . S
C513 C512 1.366 . S
C513 C517 1.385 . S
C514 H495 0.951 . S
C514 C512 1.388 . S
C514 C515 1.366 . S
C515 C514 1.366 . S
C515 C516 1.414 . S
C515 C518 1.499 . S
C516 H496 0.950 . S
C516 C515 1.414 . S
C516 C517 1.374 . S
C517 H497 0.950 . S
C517 C513 1.385 . S
C517 C516 1.374 . S
C518 C515 1.499 . S
C518 C519 1.373 . S
C518 C520 1.389 . S
C519 H498 0.950 . S
C519 C518 1.373 . S
C519 C535 1.377 . S
C520 C518 1.389 . S
C520 C521 1.524 . S
C520 C534 1.377 . S
C521 C520 1.524 . S
C521 C522 1.397 . S
C521 C526 1.363 . S
C522 H499 0.950 . S
C522 C521 1.397 . S
C522 C523 1.334 . S
C523 H500 0.950 . S
C523 C522 1.334 . S
C523 C524 1.287 . S
C524 C523 1.287 . S
C524 C525 1.524 . S
C524 H543 0.913 . S
C525 H501 0.950 . S
C525 C524 1.524 . S
C525 C526 1.415 . S
C526 H502 0.950 . S
C526 C521 1.363 . S
C526 C525 1.415 . S
C527 H503 0.951 . S
C527 C528 1.366 . S
C527 C529 1.388 . S
C528 C527 1.366 . S
C528 C532 1.385 . S
C529 H504 0.951 . S
C529 C527 1.388 . S
C529 C530 1.366 . S
C530 C529 1.366 . S
C530 C531 1.414 . S
C530 C533 1.499 . S
C531 H505 0.950 . S
C531 C530 1.414 . S
C531 C532 1.374 . S
C532 H506 0.950 . S
C532 C528 1.385 . S
C532 C531 1.374 . S
C533 C530 1.499 . S
C533 C534 1.373 . S
C533 C535 1.389 . S
C534 H507 0.950 . S
C534 C520 1.377 . S
C534 C533 1.373 . S
C535 C519 1.377 . S
C535 C533 1.389 . S
C535 C536 1.524 . S
C536 C535 1.524 . S
C536 C537 1.397 . S
C536 C541 1.363 . S
C537 H508 0.950 . S
C537 C536 1.397 . S
C537 C538 1.334 . S
C538 H509 0.950 . S
C538 C537 1.334 . S
C538 C539 1.287 . S
C539 C538 1.287 . S
C539 C540 1.524 . S
C539 H542 0.999 . S
C540 H510 0.950 . S
C540 C539 1.524 . S
C540 C541 1.415 . S
C541 H511 0.950 . S
C541 C536 1.363 . S
C541 C540 1.415 . S
H542 C539 0.999 . S
H543 C524 0.913 . S
H544 C562 0.951 . S
H545 C564 0.951 . S
H546 C566 0.950 . S
H547 C567 0.950 . S
H548 C569 0.950 . S
H549 C572 0.950 . S
H550 C573 0.950 . S
H551 C575 0.950 . S
H552 C576 0.950 . S
H553 C577 0.951 . S
H554 C579 0.951 . S
H555 C581 0.950 . S
H556 C582 0.950 . S
H557 C584 0.950 . S
H558 C587 0.950 1_545 S
H559 C588 0.950 . S
H560 C590 0.950 . S
H561 C591 0.950 . S
C562 H544 0.951 . S
C562 C563 1.366 . S
C562 C564 1.388 . S
C563 C562 1.366 . S
C563 C567 1.385 1_545 S
C564 H545 0.951 . S
C564 C562 1.388 . S
C564 C565 1.366 . S
C565 C564 1.366 . S
C565 C566 1.414 1_545 S
C565 C568 1.499 . S
C566 H546 0.950 . S
C566 C565 1.414 1_565 S
C566 C567 1.374 . S
C567 H547 0.950 . S
C567 C563 1.385 1_565 S
C567 C566 1.374 . S
C568 C565 1.499 . S
C568 C569 1.373 1_545 S
C568 C570 1.389 . S
C569 H548 0.950 . S
C569 C568 1.373 1_565 S
C569 C585 1.377 . S
C570 C568 1.389 . S
C570 C571 1.524 . S
C570 C584 1.377 . S
C571 C570 1.524 . S
C571 C572 1.397 . S
C571 C576 1.363 . S
C572 H549 0.950 . S
C572 C571 1.397 . S
C572 C573 1.334 . S
C573 H550 0.950 . S
C573 C572 1.334 . S
C573 C574 1.287 . S
C574 C573 1.287 . S
C574 C575 1.524 . S
C574 H593 0.913 . S
C575 H551 0.950 . S
C575 C574 1.524 . S
C575 C576 1.415 . S
C576 H552 0.950 . S
C576 C571 1.363 . S
C576 C575 1.415 . S
C577 H553 0.951 . S
C577 C578 1.366 1_565 S
C577 C579 1.388 . S
C578 C577 1.366 1_545 S
C578 C582 1.385 . S
C579 H554 0.951 . S
C579 C577 1.388 . S
C579 C580 1.366 1_565 S
C580 C579 1.366 1_545 S
C580 C581 1.414 . S
C580 C583 1.499 . S
C581 H555 0.950 . S
C581 C580 1.414 . S
C581 C582 1.374 . S
C582 H556 0.950 . S
C582 C578 1.385 . S
C582 C581 1.374 . S
C583 C580 1.499 . S
C583 C584 1.373 . S
C583 C585 1.389 1_545 S
C584 H557 0.950 . S
C584 C570 1.377 . S
C584 C583 1.373 . S
C585 C569 1.377 . S
C585 C583 1.389 1_565 S
C585 C586 1.524 1_455 S
C586 C585 1.524 1_655 S
C586 C587 1.397 . S
C586 C591 1.363 . S
C587 H558 0.950 1_565 S
C587 C586 1.397 . S
C587 C588 1.334 . S
C588 H559 0.950 . S
C588 C587 1.334 . S
C588 C589 1.287 . S
C589 C588 1.287 . S
C589 C590 1.524 . S
C589 H592 0.999 . S
C590 H560 0.950 . S
C590 C589 1.524 . S
C590 C591 1.415 . S
C591 H561 0.950 . S
C591 C586 1.363 . S
C591 C590 1.415 . S
H592 C589 0.999 . S
H593 C574 0.913 . S
H594 C612 0.951 . S
H595 C614 0.951 . S
H596 C616 0.950 . S
H597 C617 0.950 . S
H598 C619 0.950 . S
H599 C622 0.950 . S
H600 C623 0.950 . S
H601 C625 0.950 . S
H602 C626 0.950 . S
H603 C627 0.951 . S
H604 C629 0.951 . S
H605 C631 0.950 . S
H606 C632 0.950 . S
H607 C634 0.950 . S
H608 C637 0.950 . S
H609 C638 0.950 . S
H610 C640 0.950 . S
H611 C641 0.950 1_565 S
C612 H594 0.951 . S
C612 C613 1.366 . S
C612 C614 1.388 . S
C613 C612 1.366 . S
C613 C617 1.385 1_645 S
C614 H595 0.951 . S
C614 C612 1.388 . S
C614 C615 1.366 . S
C615 C614 1.366 . S
C615 C616 1.414 1_645 S
C615 C618 1.499 . S
C616 H596 0.950 . S
C616 C615 1.414 1_465 S
C616 C617 1.374 . S
C617 H597 0.950 . S
C617 C613 1.385 1_465 S
C617 C616 1.374 . S
C618 C615 1.499 . S
C618 C619 1.373 1_655 S
C618 C620 1.389 . S
C619 H598 0.950 . S
C619 C618 1.373 1_455 S
C619 C635 1.377 . S
C620 C618 1.389 . S
C620 C621 1.524 . S
C620 C634 1.377 . S
C621 C620 1.524 . S
C621 C622 1.397 1_545 S
C621 C626 1.363 . S
C622 H599 0.950 . S
C622 C621 1.397 1_565 S
C622 C623 1.334 . S
C623 H600 0.950 . S
C623 C622 1.334 . S
C623 C624 1.287 . S
C624 C623 1.287 . S
C624 C625 1.524 1_565 S
C624 H643 0.913 . S
C625 H601 0.950 . S
C625 C624 1.524 1_545 S
C625 C626 1.415 . S
C626 H602 0.950 . S
C626 C621 1.363 . S
C626 C625 1.415 . S
C627 H603 0.951 . S
C627 C628 1.366 1_465 S
C627 C629 1.388 . S
C628 C627 1.366 1_645 S
C628 C632 1.385 . S
C629 H604 0.951 . S
C629 C627 1.388 . S
C629 C630 1.366 1_465 S
C630 C629 1.366 1_645 S
C630 C631 1.414 . S
C630 C633 1.499 . S
C631 H605 0.950 . S
C631 C630 1.414 . S
C631 C632 1.374 . S
C632 H606 0.950 . S
C632 C628 1.385 . S
C632 C631 1.374 . S
C633 C630 1.499 . S
C633 C634 1.373 . S
C633 C635 1.389 1_655 S
C634 H607 0.950 . S
C634 C620 1.377 . S
C634 C633 1.373 . S
C635 C619 1.377 . S
C635 C633 1.389 1_455 S
C635 C636 1.524 . S
C636 C635 1.524 . S
C636 C637 1.397 . S
C636 C641 1.363 . S
C637 H608 0.950 . S
C637 C636 1.397 . S
C637 C638 1.334 . S
C638 H609 0.950 . S
C638 C637 1.334 . S
C638 C639 1.287 . S
C639 C638 1.287 . S
C639 C640 1.524 . S
C639 H642 0.999 . S
C640 H610 0.950 . S
C640 C639 1.524 . S
C640 C641 1.415 . S
C641 H611 0.950 1_545 S
C641 C636 1.363 . S
C641 C640 1.415 . S
H642 C639 0.999 . S
H643 C624 0.913 . S
H644 C662 0.951 . S
H645 C664 0.951 . S
H646 C666 0.950 . S
H647 C667 0.950 . S
H648 C669 0.950 . S
H649 C672 0.950 . S
H650 C673 0.950 . S
H651 C675 0.950 . S
H652 C676 0.950 . S
H653 C677 0.951 . S
H654 C679 0.951 . S
H655 C681 0.950 . S
H656 C682 0.950 . S
H657 C684 0.950 . S
H658 C687 0.950 . S
H659 C688 0.950 . S
H660 C690 0.950 . S
H661 C691 0.950 . S
C662 H644 0.951 . S
C662 C663 1.366 . S
C662 C664 1.388 . S
C663 C662 1.366 . S
C663 C667 1.385 . S
C664 H645 0.951 . S
C664 C662 1.388 . S
C664 C665 1.366 . S
C665 C664 1.366 . S
C665 C666 1.414 . S
C665 C668 1.499 . S
C666 H646 0.950 . S
C666 C665 1.414 . S
C666 C667 1.374 . S
C667 H647 0.950 . S
C667 C663 1.385 . S
C667 C666 1.374 . S
C668 C665 1.499 . S
C668 C669 1.373 . S
C668 C670 1.389 . S
C669 H648 0.950 . S
C669 C668 1.373 . S
C669 C685 1.377 . S
C670 C668 1.389 . S
C670 C671 1.524 . S
C670 C684 1.377 . S
C671 C670 1.524 . S
C671 C672 1.397 . S
C671 C676 1.363 . S
C672 H649 0.950 . S
C672 C671 1.397 . S
C672 C673 1.334 . S
C673 H650 0.950 . S
C673 C672 1.334 . S
C673 C674 1.287 . S
C674 C673 1.287 . S
C674 C675 1.524 . S
C674 H693 0.913 . S
C675 H651 0.950 . S
C675 C674 1.524 . S
C675 C676 1.415 . S
C676 H652 0.950 . S
C676 C671 1.363 . S
C676 C675 1.415 . S
C677 H653 0.951 . S
C677 C678 1.366 . S
C677 C679 1.388 . S
C678 C677 1.366 . S
C678 C682 1.385 . S
C679 H654 0.951 . S
C679 C677 1.388 . S
C679 C680 1.366 . S
C680 C679 1.366 . S
C680 C681 1.414 . S
C680 C683 1.499 . S
C681 H655 0.950 . S
C681 C680 1.414 . S
C681 C682 1.374 . S
C682 H656 0.950 . S
C682 C678 1.385 . S
C682 C681 1.374 . S
C683 C680 1.499 . S
C683 C684 1.373 . S
C683 C685 1.389 . S
C684 H657 0.950 . S
C684 C670 1.377 . S
C684 C683 1.373 . S
C685 C669 1.377 . S
C685 C683 1.389 . S
C685 C686 1.524 . S
C686 C685 1.524 . S
C686 C687 1.397 . S
C686 C691 1.363 . S
C687 H658 0.950 . S
C687 C686 1.397 . S
C687 C688 1.334 . S
C688 H659 0.950 . S
C688 C687 1.334 . S
C688 C689 1.287 . S
C689 C688 1.287 . S
C689 C690 1.524 . S
C689 H692 0.999 . S
C690 H660 0.950 . S
C690 C689 1.524 . S
C690 C691 1.415 . S
C691 H661 0.950 . S
C691 C686 1.363 . S
C691 C690 1.415 . S
H692 C689 0.999 . S
H693 C674 0.913 . S
H694 C712 0.951 . S
H695 C714 0.951 . S
H696 C716 0.950 . S
H697 C717 0.950 . S
H698 C719 0.950 . S
H699 C722 0.950 . S
H700 C723 0.950 . S
H701 C725 0.950 . S
H702 C726 0.950 . S
H703 C727 0.951 . S
H704 C729 0.951 . S
H705 C731 0.950 . S
H706 C732 0.950 . S
H707 C734 0.950 . S
H708 C737 0.950 . S
H709 C738 0.950 . S
H710 C740 0.950 . S
H711 C741 0.950 . S
C712 H694 0.951 . S
C712 C713 1.366 . S
C712 C714 1.388 . S
C713 C712 1.366 . S
C713 C717 1.385 . S
C714 H695 0.951 . S
C714 C712 1.388 . S
C714 C715 1.366 . S
C715 C714 1.366 . S
C715 C716 1.414 . S
C715 C718 1.499 . S
C716 H696 0.950 . S
C716 C715 1.414 . S
C716 C717 1.374 . S
C717 H697 0.950 . S
C717 C713 1.385 . S
C717 C716 1.374 . S
C718 C715 1.499 . S
C718 C719 1.373 . S
C718 C720 1.389 . S
C719 H698 0.950 . S
C719 C718 1.373 . S
C719 C735 1.377 . S
C720 C718 1.389 . S
C720 C721 1.524 . S
C720 C734 1.377 . S
C721 C720 1.524 . S
C721 C722 1.397 . S
C721 C726 1.363 . S
C722 H699 0.950 . S
C722 C721 1.397 . S
C722 C723 1.334 . S
C723 H700 0.950 . S
C723 C722 1.334 . S
C723 C724 1.287 . S
C724 C723 1.287 . S
C724 C725 1.524 . S
C724 H743 0.913 . S
C725 H701 0.950 . S
C725 C724 1.524 . S
C725 C726 1.415 . S
C726 H702 0.950 . S
C726 C721 1.363 . S
C726 C725 1.415 . S
C727 H703 0.951 . S
C727 C728 1.366 . S
C727 C729 1.388 . S
C728 C727 1.366 . S
C728 C732 1.385 . S
C729 H704 0.951 . S
C729 C727 1.388 . S
C729 C730 1.366 . S
C730 C729 1.366 . S
C730 C731 1.414 . S
C730 C733 1.499 . S
C731 H705 0.950 . S
C731 C730 1.414 . S
C731 C732 1.374 . S
C732 H706 0.950 . S
C732 C728 1.385 . S
C732 C731 1.374 . S
C733 C730 1.499 . S
C733 C734 1.373 . S
C733 C735 1.389 . S
C734 H707 0.950 . S
C734 C720 1.377 . S
C734 C733 1.373 . S
C735 C719 1.377 . S
C735 C733 1.389 . S
C735 C736 1.524 . S
C736 C735 1.524 . S
C736 C737 1.397 . S
C736 C741 1.363 . S
C737 H708 0.950 . S
C737 C736 1.397 . S
C737 C738 1.334 . S
C738 H709 0.950 . S
C738 C737 1.334 . S
C738 C739 1.287 . S
C739 C738 1.287 . S
C739 C740 1.524 . S
C739 H742 0.999 . S
C740 H710 0.950 . S
C740 C739 1.524 . S
C740 C741 1.415 . S
C741 H711 0.950 . S
C741 C736 1.363 . S
C741 C740 1.415 . S
H742 C739 0.999 . S
H743 C724 0.913 . S
C178 C131 1.529 . S
C163 C29 1.557 . S
C213 C8 1.364 . S
C228 C117 1.329 . S
C263 C0 1.374 . S
C278 C136 1.336 . S
C313 C17 1.572 1_556 S
C328 C112 1.537 . S
C363 C63 1.557 . S
C378 C93 1.529 . S
C413 C42 1.364 . S
C428 C79 1.328 . S
C478 C98 1.336 . S
C463 C34 1.374 . S
C528 C74 1.536 . S
C513 C51 1.563 . S
C563 C4 1.552 . S
C578 C70 1.541 . S
C613 C13 1.542 . S
C628 C89 1.528 . S
C678 C108 1.541 . S
C663 C38 1.552 . S
C713 C47 1.542 . S
C728 C127 1.528 . S
