# Generated by pormake.
# Topology wbl, (4,4)-cn, num edge types: 1
# Building blocks:
#     Node 0, Type 0, BuildingBlock: MUDLON_clean_linker_0, # of connection points: 4
#     Node 1, Type 0, BuildingBlock: MUDLON_clean_linker_0, # of connection points: 4
#     Node 2, Type 0, BuildingBlock: MUDLON_clean_linker_0, # of connection points: 4
#     Node 3, Type 0, BuildingBlock: MUDLON_clean_linker_0, # of connection points: 4
#     Node 4, Type 0, BuildingBlock: MUDLON_clean_linker_0, # of connection points: 4
#     Node 5, Type 0, BuildingBlock: MUDLON_clean_linker_0, # of connection points: 4
#     Node 6, Type 0, BuildingBlock: MUDLON_clean_linker_0, # of connection points: 4
#     Node 7, Type 0, BuildingBlock: MUDLON_clean_linker_0, # of connection points: 4
#     Node 8, Type 1, BuildingBlock: GALJAG_clean_sbu_0, # of connection points: 4
#     Node 9, Type 1, BuildingBlock: GALJAG_clean_sbu_0, # of connection points: 4
#     Node 10, Type 1, BuildingBlock: GALJAG_clean_sbu_0, # of connection points: 4
#     Node 11, Type 1, BuildingBlock: GALJAG_clean_sbu_0, # of connection points: 4
#     Node 12, Type 1, BuildingBlock: GALJAG_clean_sbu_0, # of connection points: 4
#     Node 13, Type 1, BuildingBlock: GALJAG_clean_sbu_0, # of connection points: 4
#     Node 14, Type 1, BuildingBlock: GALJAG_clean_sbu_0, # of connection points: 4
#     Node 15, Type 1, BuildingBlock: GALJAG_clean_sbu_0, # of connection points: 4
#     Edge 16, Type (0, 1), None
#     Edge 17, Type (0, 1), None
#     Edge 18, Type (0, 1), None
#     Edge 19, Type (0, 1), None
#     Edge 20, Type (0, 1), None
#     Edge 21, Type (0, 1), None
#     Edge 22, Type (0, 1), None
#     Edge 23, Type (0, 1), None
#     Edge 24, Type (0, 1), None
#     Edge 25, Type (0, 1), None
#     Edge 26, Type (0, 1), None
#     Edge 27, Type (0, 1), None
#     Edge 28, Type (0, 1), None
#     Edge 29, Type (0, 1), None
#     Edge 30, Type (0, 1), None
#     Edge 31, Type (0, 1), None
#     Edge 32, Type (0, 1), None
#     Edge 33, Type (0, 1), None
#     Edge 34, Type (0, 1), None
#     Edge 35, Type (0, 1), None
#     Edge 36, Type (0, 1), None
#     Edge 37, Type (0, 1), None
#     Edge 38, Type (0, 1), None
#     Edge 39, Type (0, 1), None
#     Edge 40, Type (0, 1), None
#     Edge 41, Type (0, 1), None
#     Edge 42, Type (0, 1), None
#     Edge 43, Type (0, 1), None
#     Edge 44, Type (0, 1), None
#     Edge 45, Type (0, 1), None
#     Edge 46, Type (0, 1), None
#     Edge 47, Type (0, 1), None
# Relax obj value: 0.110
# Max RMSD: 0.164
# Mean RMSD: 0.149
data_MOF--net-wbl--node1-GALJAG_clean_sbu_0--node2-MUDLON_clean_linker_0--edge1-none
_symmetry_space_group_name_H-M    P1
_symmetry_Int_Tables_number       1
_symmetry_cell_setting            triclinic
loop_
_symmetry_equiv_pos_as_xyz
'x, y, z'
_cell_length_a     30.975864
_cell_length_b     31.042423
_cell_length_c     48.579074
_cell_angle_alpha  89.993412
_cell_angle_beta   90.056739
_cell_angle_gamma 89.995601
loop_
_atom_site_label
_atom_site_type_symbol
_atom_site_fract_x
_atom_site_fract_y
_atom_site_fract_z
_atom_type_partial_charge
H0 H 0.15878 0.80985 0.37287 0.0
N1 N 0.09773 0.86885 0.35706 0.0
H2 H 0.1805 0.79064 0.41902 0.0
H3 H 0.0605 0.89418 0.40628 0.0
H4 H 0.08411 0.87592 0.45257 0.0
H5 H 0.1024 0.81066 0.31678 0.0
H6 H 0.16353 0.79711 0.28571 0.0
H7 H 0.17145 0.91721 0.35284 0.0
H8 H 0.23123 0.90527 0.32126 0.0
H9 H 0.11714 0.94869 0.37832 0.0
H10 H 0.02604 0.87978 0.32774 0.0
H11 H 0.0742 0.01388 0.37396 0.0
H12 H 0.98375 0.94562 0.3219 0.0
H13 H 0.9141 0.21365 0.37798 0.0
H14 H 0.89287 0.23243 0.42522 0.0
H15 H 0.8765 0.0974 0.44374 0.0
H16 H 0.89577 0.07902 0.39691 0.0
H17 H 0.8364 0.09839 0.35864 0.0
H18 H 0.77492 0.11143 0.32849 0.0
H19 H 0.85002 0.2033 0.28209 0.0
H20 H 0.91291 0.18797 0.31157 0.0
H21 H 1.00207 0.13405 0.35094 0.0
H22 H 0.04912 0.07097 0.34722 0.0
H23 H 0.93655 0.98855 0.34659 0.0
N24 N 0.91645 0.13568 0.35506 0.0
H25 H 0.89053 0.05102 0.34869 0.0
C26 C 0.11034 0.85705 0.38517 0.0
C27 C 0.14239 0.82544 0.38982 0.0
C28 C 0.15456 0.81371 0.41646 0.0
C29 C 0.13474 0.8326 0.43943 0.0
C30 C 0.1007 0.86164 0.4352 0.0
C31 C 0.0878 0.87274 0.40847 0.0
C32 C 0.13196 0.86514 0.33693 0.0
C33 C 0.1302 0.83178 0.31748 0.0
C34 C 0.16507 0.82409 0.29981 0.0
C35 C 0.20199 0.85031 0.30095 0.0
C36 C 0.20296 0.88487 0.31963 0.0
C37 C 0.1686 0.89191 0.33769 0.0
C38 C 0.07427 0.90891 0.35376 0.0
C39 C 0.08825 0.94777 0.3658 0.0
C40 C 0.06363 0.98529 0.36312 0.0
C41 C 0.02505 0.98526 0.34774 0.0
C42 C 0.01252 0.94682 0.33454 0.0
C43 C 0.03674 0.90912 0.33768 0.0
C44 C 0.90716 0.14503 0.38366 0.0
C45 C 0.90636 0.18816 0.39237 0.0
C46 C 0.89431 0.19881 0.41932 0.0
C47 C 0.88346 0.16635 0.43822 0.0
C48 C 0.88529 0.12313 0.42975 0.0
C49 C 0.89641 0.11256 0.40274 0.0
C50 C 0.87986 0.1414 0.33693 0.0
C51 C 0.84035 0.1202 0.34147 0.0
C52 C 0.80504 0.12789 0.32426 0.0
C53 C 0.80788 0.15808 0.30278 0.0
C54 C 0.84711 0.17963 0.29837 0.0
C55 C 0.88293 0.17091 0.31513 0.0
C56 C 0.94271 0.09782 0.35016 0.0
C57 C 0.9877 0.10233 0.34946 0.0
C58 C 0.01452 0.06612 0.34764 0.0
C59 C 0.99684 0.02431 0.34684 0.0
C60 C 0.95162 0.02001 0.34667 0.0
C61 C 0.92492 0.05619 0.34806 0.0
H62 H 0.81167 0.34821 0.62053 0.0
N63 N 0.86434 0.4156 0.60467 0.0
H64 H 0.79276 0.3268 0.66676 0.0
H65 H 0.88198 0.45753 0.65326 0.0
H66 H 0.86437 0.43414 0.69972 0.0
H67 H 0.80403 0.40697 0.56579 0.0
H68 H 0.79276 0.34509 0.53496 0.0
H69 H 0.91768 0.34558 0.59886 0.0
H70 H 0.90801 0.2855 0.56743 0.0
H71 H 0.94276 0.39786 0.62872 0.0
H72 H 0.87672 0.48683 0.57513 0.0
H73 H 0.00781 0.44146 0.62618 0.0
H74 H 0.94253 0.5301 0.57149 0.0
H75 H 0.20854 0.59819 0.63148 0.0
H76 H 0.22779 0.61987 0.67855 0.0
H77 H 0.09322 0.64327 0.69609 0.0
H78 H 0.07444 0.62336 0.64926 0.0
H79 H 0.09427 0.67887 0.60941 0.0
H80 H 0.10926 0.7383 0.57804 0.0
H81 H 0.20086 0.65897 0.53432 0.0
H82 H 0.18382 0.59838 0.56511 0.0
H83 H 0.12935 0.513 0.60427 0.0
H84 H 0.06636 0.46591 0.59963 0.0
H85 H 0.98339 0.57791 0.59843 0.0
N86 N 0.13069 0.59839 0.60819 0.0
H87 H 0.04597 0.62415 0.60175 0.0
C88 C 0.85201 0.40277 0.63262 0.0
C89 C 0.82423 0.36733 0.63733 0.0
C90 C 0.81262 0.35521 0.66401 0.0
C91 C 0.82794 0.37823 0.68684 0.0
C92 C 0.85294 0.41522 0.68245 0.0
C93 C 0.86364 0.42811 0.6557 0.0
C94 C 0.86193 0.38145 0.5844 0.0
C95 C 0.82718 0.38082 0.56584 0.0
C96 C 0.82078 0.34554 0.54831 0.0
C97 C 0.84971 0.31071 0.54865 0.0
C98 C 0.88552 0.31219 0.5664 0.0
C99 C 0.89124 0.3468 0.58438 0.0
C100 C 0.90445 0.43942 0.60232 0.0
C101 C 0.94248 0.4264 0.61593 0.0
C102 C 0.9799 0.45141 0.61435 0.0
C103 C 0.9806 0.48961 0.59874 0.0
C104 C 0.94304 0.50147 0.58422 0.0
C105 C 0.90543 0.47669 0.5861 0.0
C106 C 0.14014 0.60857 0.63665 0.0
C107 C 0.18323 0.60761 0.64561 0.0
C108 C 0.19414 0.6199 0.67247 0.0
C109 C 0.16195 0.63281 0.69107 0.0
C110 C 0.11869 0.63284 0.68235 0.0
C111 C 0.1079 0.62142 0.65537 0.0
C112 C 0.13732 0.63368 0.58926 0.0
C113 C 0.1165 0.67362 0.59259 0.0
C114 C 0.12524 0.70772 0.57465 0.0
C115 C 0.15597 0.70312 0.55357 0.0
C116 C 0.17681 0.66328 0.55025 0.0
C117 C 0.16717 0.62877 0.56779 0.0
C118 C 0.09283 0.57211 0.60343 0.0
C119 C 0.09753 0.52724 0.60259 0.0
C120 C 0.06141 0.50042 0.60018 0.0
C121 C 0.01953 0.51796 0.59883 0.0
C122 C 0.015 0.56307 0.59896 0.0
C123 C 0.05114 0.5898 0.60105 0.0
H124 H 0.65816 0.30485 0.87294 0.0
N125 N 0.593 0.36011 0.85757 0.0
H126 H 0.6817 0.28706 0.91888 0.0
H127 H 0.55459 0.38205 0.90694 0.0
H128 H 0.58013 0.3654 0.95312 0.0
H129 H 0.60078 0.2999 0.81864 0.0
H130 H 0.66244 0.2882 0.78759 0.0
H131 H 0.66357 0.41267 0.85155 0.0
H132 H 0.72335 0.40265 0.81989 0.0
H133 H 0.61078 0.4396 0.87995 0.0
H134 H 0.52087 0.37066 0.82849 0.0
H135 H 0.56702 0.50426 0.87613 0.0
H136 H 0.47748 0.43606 0.82345 0.0
H137 H 0.41187 0.70438 0.87872 0.0
H138 H 0.39173 0.72479 0.92588 0.0
H139 H 0.36594 0.59129 0.94457 0.0
H140 H 0.38427 0.57142 0.89773 0.0
H141 H 0.32915 0.5903 0.85805 0.0
H142 H 0.26901 0.60563 0.82716 0.0
H143 H 0.34861 0.69545 0.78217 0.0
H144 H 0.40978 0.67816 0.81253 0.0
H145 H 0.49552 0.62433 0.85207 0.0
H146 H 0.54244 0.56114 0.84865 0.0
H147 H 0.42983 0.47881 0.84882 0.0
N148 N 0.40999 0.62618 0.85612 0.0
H149 H 0.38376 0.54161 0.85076 0.0
C150 C 0.60664 0.34859 0.88554 0.0
C151 C 0.64086 0.3192 0.88995 0.0
C152 C 0.65415 0.30826 0.9165 0.0
C153 C 0.63345 0.32575 0.93959 0.0
C154 C 0.59738 0.35232 0.93563 0.0
C155 C 0.58332 0.36249 0.90898 0.0
C156 C 0.62698 0.35744 0.83716 0.0
C157 C 0.62718 0.32277 0.81861 0.0
C158 C 0.66235 0.31609 0.80099 0.0
C159 C 0.69748 0.34469 0.8012 0.0
C160 C 0.69645 0.38039 0.81897 0.0
C161 C 0.66197 0.38636 0.83706 0.0
C162 C 0.56874 0.39983 0.85478 0.0
C163 C 0.58197 0.43855 0.86736 0.0
C164 C 0.55686 0.47577 0.86503 0.0
C165 C 0.51839 0.47562 0.84956 0.0
C166 C 0.50629 0.4373 0.83606 0.0
C167 C 0.53113 0.39989 0.83875 0.0
C168 C 0.40023 0.63643 0.88451 0.0
C169 C 0.40219 0.67956 0.89311 0.0
C170 C 0.39077 0.69114 0.92001 0.0
C171 C 0.37774 0.65957 0.93898 0.0
C172 C 0.37648 0.61629 0.93055 0.0
C173 C 0.38703 0.60486 0.90356 0.0
C174 C 0.37443 0.63252 0.83728 0.0
C175 C 0.33429 0.61217 0.84104 0.0
C176 C 0.29979 0.62111 0.82337 0.0
C177 C 0.30424 0.6515 0.8021 0.0
C178 C 0.34437 0.67167 0.79825 0.0
C179 C 0.37923 0.66188 0.81555 0.0
C180 C 0.43612 0.58815 0.85175 0.0
C181 C 0.4811 0.5926 0.85091 0.0
C182 C 0.50784 0.55635 0.84923 0.0
C183 C 0.49009 0.51457 0.84871 0.0
C184 C 0.44486 0.51029 0.84875 0.0
C185 C 0.41821 0.54655 0.85005 0.0
H186 H 0.31675 0.84499 0.1219 0.0
N187 N 0.36837 0.91312 0.1058 0.0
H188 H 0.29775 0.82397 0.16804 0.0
H189 H 0.3859 0.95531 0.15428 0.0
H190 H 0.36806 0.93229 0.20085 0.0
H191 H 0.30612 0.9047 0.06821 0.0
H192 H 0.29317 0.84294 0.03758 0.0
H193 H 0.42182 0.84354 0.09841 0.0
H194 H 0.41038 0.78345 0.06711 0.0
H195 H 0.44685 0.89524 0.1297 0.0
H196 H 0.38098 0.98364 0.07567 0.0
H197 H 0.51218 0.93842 0.12665 0.0
H198 H 0.44705 0.02625 0.07132 0.0
H199 H 0.71317 0.0952 0.13115 0.0
H200 H 0.73144 0.11763 0.17826 0.0
H201 H 0.59634 0.14002 0.19472 0.0
H202 H 0.57855 0.11935 0.14796 0.0
H203 H 0.59888 0.1749 0.10888 0.0
H204 H 0.61358 0.23469 0.07783 0.0
H205 H 0.70577 0.15645 0.03382 0.0
H206 H 0.68897 0.09537 0.0643 0.0
H207 H 0.63397 0.00907 0.10436 0.0
H208 H 0.57082 0.96211 0.1002 0.0
H209 H 0.48838 0.07445 0.09717 0.0
N210 N 0.63566 0.09458 0.10732 0.0
H211 H 0.55106 0.12044 0.09991 0.0
C212 C 0.35638 0.9002 0.1338 0.0
C213 C 0.32905 0.86446 0.13861 0.0
C214 C 0.31738 0.85252 0.16528 0.0
C215 C 0.33219 0.87596 0.18809 0.0
C216 C 0.35696 0.91309 0.18362 0.0
C217 C 0.36777 0.92578 0.15682 0.0
C218 C 0.36513 0.87926 0.08537 0.0
C219 C 0.32934 0.87864 0.06764 0.0
C220 C 0.32198 0.84341 0.05024 0.0
C221 C 0.35094 0.8086 0.04984 0.0
C222 C 0.38782 0.81012 0.06668 0.0
C223 C 0.39454 0.8447 0.08458 0.0
C224 C 0.40859 0.93666 0.10321 0.0
C225 C 0.44665 0.92363 0.11677 0.0
C226 C 0.48424 0.94834 0.11484 0.0
C227 C 0.48509 0.98618 0.09886 0.0
C228 C 0.44748 0.99796 0.08436 0.0
C229 C 0.4097 0.97355 0.08664 0.0
C230 C 0.64458 0.10496 0.13583 0.0
C231 C 0.68754 0.10454 0.14507 0.0
C232 C 0.6979 0.11729 0.17194 0.0
C233 C 0.66527 0.13018 0.19023 0.0
C234 C 0.62217 0.1297 0.18122 0.0
C235 C 0.61193 0.11777 0.15427 0.0
C236 C 0.64216 0.1301 0.08854 0.0
C237 C 0.62118 0.16992 0.09207 0.0
C238 C 0.62979 0.20426 0.07432 0.0
C239 C 0.66057 0.20008 0.05325 0.0
C240 C 0.68169 0.16043 0.04976 0.0
C241 C 0.67215 0.12563 0.06711 0.0
C242 C 0.59777 0.06832 0.1025 0.0
C243 C 0.60225 0.02341 0.10233 0.0
C244 C 0.56601 0.99665 0.10022 0.0
C245 C 0.5242 0.01433 0.09854 0.0
C246 C 0.51991 0.05945 0.09796 0.0
C247 C 0.55615 0.08608 0.09971 0.0
H248 H 0.16561 0.69434 0.90831 0.0
N249 N 0.09708 0.64299 0.92446 0.0
H250 H 0.18606 0.71388 0.86207 0.0
H251 H 0.05397 0.62671 0.8762 0.0
H252 H 0.07646 0.64496 0.82962 0.0
H253 H 0.10566 0.70508 0.962 0.0
H254 H 0.16778 0.71812 0.99246 0.0
H255 H 0.16689 0.58967 0.93179 0.0
H256 H 0.22729 0.60118 0.96292 0.0
H257 H 0.11567 0.56525 0.9001 0.0
H258 H 0.02627 0.62937 0.95428 0.0
H259 H 0.07256 0.49986 0.90231 0.0
H260 H 0.98361 0.56324 0.95766 0.0
H261 H 0.91432 0.29841 0.89642 0.0
H262 H 0.89146 0.27994 0.84945 0.0
H263 H 0.87078 0.4148 0.8322 0.0
H264 H 0.89181 0.43286 0.87891 0.0
H265 H 0.83514 0.41212 0.91853 0.0
H266 H 0.77572 0.39754 0.95002 0.0
H267 H 0.85517 0.30623 0.99398 0.0
H268 H 0.91582 0.32291 0.96306 0.0
H269 H 1.00149 0.37763 0.92342 0.0
H270 H 0.04844 0.44063 0.92833 0.0
H271 H 0.93581 0.52283 0.93054 0.0
N272 N 0.91583 0.37592 0.9199 0.0
H273 H 0.88976 0.46028 0.92694 0.0
C274 C 0.10973 0.65546 0.8965 0.0
C275 C 0.14571 0.68252 0.89165 0.0
C276 C 0.15733 0.6945 0.86495 0.0
C277 C 0.13335 0.68019 0.84224 0.0
C278 C 0.09605 0.65567 0.84679 0.0
C279 C 0.08364 0.64464 0.87359 0.0
C280 C 0.13109 0.64621 0.94485 0.0
C281 C 0.1318 0.68193 0.96255 0.0
C282 C 0.16724 0.68935 0.97984 0.0
C283 C 0.20215 0.66049 0.98018 0.0
C284 C 0.20054 0.62366 0.9634 0.0
C285 C 0.16576 0.6169 0.9456 0.0
C286 C 0.07381 0.60262 0.92678 0.0
C287 C 0.08712 0.56502 0.91293 0.0
C288 C 0.06242 0.52741 0.91433 0.0
C289 C 0.02426 0.52611 0.93003 0.0
C290 C 0.01219 0.56321 0.94485 0.0
C291 C 0.03663 0.601 0.94313 0.0
C292 C 0.90536 0.36691 0.8914 0.0
C293 C 0.90528 0.32396 0.88237 0.0
C294 C 0.89231 0.31349 0.85557 0.0
C295 C 0.87976 0.34597 0.83708 0.0
C296 C 0.88088 0.38909 0.84585 0.0
C297 C 0.89296 0.39946 0.87277 0.0
C298 C 0.88045 0.36925 0.93879 0.0
C299 C 0.84042 0.39001 0.9354 0.0
C300 C 0.80633 0.38148 0.95341 0.0
C301 C 0.81097 0.35102 0.97462 0.0
C302 C 0.85083 0.33008 0.97794 0.0
C303 C 0.88538 0.33953 0.96034 0.0
C304 C 0.94208 0.41375 0.92477 0.0
C305 C 0.98708 0.40927 0.92538 0.0
C306 C 0.01383 0.44541 0.92794 0.0
C307 C 0.99606 0.48709 0.92969 0.0
C308 C 0.95084 0.49138 0.92974 0.0
C309 C 0.9242 0.45524 0.92749 0.0
H310 H 0.70552 0.34922 0.15632 0.0
N311 N 0.65026 0.41406 0.17206 0.0
H312 H 0.72398 0.3271 0.11018 0.0
H313 H 0.62904 0.45387 0.12303 0.0
H314 H 0.64634 0.42982 0.07668 0.0
H315 H 0.70952 0.40626 0.21168 0.0
H316 H 0.72065 0.34465 0.24277 0.0
H317 H 0.59813 0.34304 0.177 0.0
H318 H 0.60761 0.28314 0.20867 0.0
H319 H 0.57082 0.39661 0.14929 0.0
H320 H 0.63948 0.48561 0.20148 0.0
H321 H 0.50605 0.44038 0.15294 0.0
H322 H 0.57397 0.52898 0.20633 0.0
H323 H 0.30613 0.5966 0.14988 0.0
H324 H 0.28608 0.61815 0.1029 0.0
H325 H 0.42016 0.64332 0.08481 0.0
H326 H 0.43969 0.62351 0.1315 0.0
H327 H 0.42112 0.67784 0.17138 0.0
H328 H 0.40611 0.73756 0.20247 0.0
H329 H 0.31425 0.6588 0.24639 0.0
H330 H 0.33137 0.59786 0.21591 0.0
H331 H 0.38567 0.51215 0.17651 0.0
H332 H 0.44872 0.46496 0.18015 0.0
H333 H 0.53182 0.5769 0.18071 0.0
N334 N 0.38429 0.59754 0.17275 0.0
H335 H 0.46921 0.62319 0.17853 0.0
C336 C 0.66211 0.40117 0.14403 0.0
C337 C 0.69148 0.36705 0.13941 0.0
C338 C 0.70282 0.35459 0.11276 0.0
C339 C 0.68573 0.37607 0.0898 0.0
C340 C 0.65915 0.412 0.09404 0.0
C341 C 0.64859 0.42521 0.12078 0.0
C342 C 0.65275 0.37979 0.19225 0.0
C343 C 0.68685 0.37972 0.2113 0.0
C344 C 0.69316 0.34459 0.22898 0.0
C345 C 0.66479 0.30931 0.22829 0.0
C346 C 0.62964 0.31017 0.20997 0.0
C347 C 0.62402 0.34467 0.19186 0.0
C348 C 0.61044 0.4382 0.17485 0.0
C349 C 0.57176 0.4252 0.16201 0.0
C350 C 0.53449 0.45032 0.16424 0.0
C351 C 0.53456 0.48855 0.17983 0.0
C352 C 0.57281 0.50037 0.19362 0.0
C353 C 0.61027 0.47553 0.19103 0.0
C354 C 0.37434 0.6078 0.14438 0.0
C355 C 0.33116 0.60641 0.13564 0.0
C356 C 0.31978 0.61866 0.10885 0.0
C357 C 0.35162 0.63199 0.09012 0.0
C358 C 0.39496 0.63261 0.09866 0.0
C359 C 0.40619 0.62119 0.12555 0.0
C360 C 0.37802 0.63285 0.19169 0.0
C361 C 0.39891 0.67272 0.18823 0.0
C362 C 0.39012 0.70701 0.20599 0.0
C363 C 0.35926 0.70268 0.22701 0.0
C364 C 0.33841 0.66289 0.2305 0.0
C365 C 0.34811 0.62818 0.21315 0.0
C366 C 0.42224 0.57122 0.17716 0.0
C367 C 0.41754 0.52635 0.17787 0.0
C368 C 0.4537 0.49947 0.17968 0.0
C369 C 0.49565 0.51695 0.1805 0.0
C370 C 0.50019 0.56206 0.18056 0.0
C371 C 0.46401 0.58885 0.17912 0.0
H372 H 0.35602 0.81064 0.40657 0.0
N373 N 0.41667 0.87004 0.42233 0.0
H374 H 0.33428 0.79136 0.36044 0.0
H375 H 0.45352 0.89579 0.37307 0.0
H376 H 0.42987 0.87745 0.32681 0.0
H377 H 0.41228 0.81161 0.46249 0.0
H378 H 0.35113 0.79749 0.49345 0.0
H379 H 0.34276 0.91809 0.42669 0.0
H380 H 0.28297 0.90559 0.45816 0.0
H381 H 0.39682 0.94988 0.4012 0.0
H382 H 0.48843 0.88118 0.45153 0.0
H383 H 0.4397 0.01513 0.40537 0.0
H384 H 0.53064 0.94709 0.4572 0.0
H385 H 0.60098 0.21475 0.4004 0.0
H386 H 0.62212 0.23322 0.35309 0.0
H387 H 0.63694 0.09799 0.33466 0.0
H388 H 0.61779 0.0799 0.38153 0.0
H389 H 0.6779 0.09942 0.41977 0.0
H390 H 0.73937 0.11213 0.45 0.0
H391 H 0.66448 0.20409 0.49645 0.0
H392 H 0.60159 0.18906 0.46691 0.0
H393 H 0.51229 0.13537 0.42775 0.0
H394 H 0.46517 0.0724 0.43178 0.0
H395 H 0.57761 0.98979 0.43223 0.0
N396 N 0.5979 0.13683 0.42341 0.0
H397 H 0.62371 0.05215 0.42981 0.0
C398 C 0.40405 0.85823 0.39424 0.0
C399 C 0.37222 0.82639 0.38961 0.0
C400 C 0.36004 0.81464 0.36298 0.0
C401 C 0.37963 0.83372 0.34 0.0
C402 C 0.41345 0.86302 0.34419 0.0
C403 C 0.42637 0.87415 0.37092 0.0
C404 C 0.38248 0.86611 0.44249 0.0
C405 C 0.38437 0.83259 0.46183 0.0
C406 C 0.34949 0.82458 0.47943 0.0
C407 C 0.31243 0.8506 0.47832 0.0
C408 C 0.31133 0.88532 0.45976 0.0
C409 C 0.34571 0.89269 0.44177 0.0
C410 C 0.43996 0.91019 0.42564 0.0
C411 C 0.42579 0.94903 0.41364 0.0
C412 C 0.45039 0.98659 0.4162 0.0
C413 C 0.48911 0.98662 0.43143 0.0
C414 C 0.50177 0.94823 0.44465 0.0
C415 C 0.47758 0.9105 0.44162 0.0
C416 C 0.60717 0.14605 0.39477 0.0
C417 C 0.60836 0.18915 0.38602 0.0
C418 C 0.62036 0.19964 0.35903 0.0
C419 C 0.63074 0.16702 0.34012 0.0
C420 C 0.6285 0.12384 0.34864 0.0
C421 C 0.61746 0.11344 0.37569 0.0
C422 C 0.63454 0.14249 0.44151 0.0
C423 C 0.674 0.12118 0.43697 0.0
C424 C 0.70929 0.12866 0.45423 0.0
C425 C 0.70651 0.15877 0.47575 0.0
C426 C 0.66734 0.18046 0.48015 0.0
C427 C 0.63152 0.17193 0.46335 0.0
C428 C 0.5716 0.09904 0.42842 0.0
C429 C 0.52661 0.10363 0.42925 0.0
C430 C 0.49975 0.06748 0.43126 0.0
C431 C 0.51737 0.02565 0.43212 0.0
C432 C 0.56259 0.02127 0.43212 0.0
C433 C 0.58932 0.05739 0.43055 0.0
H434 H 0.1987 0.84767 0.65716 0.0
N435 N 0.14927 0.9178 0.67277 0.0
H436 H 0.21664 0.82505 0.61119 0.0
H437 H 0.13288 0.95948 0.62398 0.0
H438 H 0.14961 0.93483 0.57755 0.0
H439 H 0.21219 0.90819 0.70986 0.0
H440 H 0.22421 0.84637 0.74064 0.0
H441 H 0.09401 0.84997 0.68121 0.0
H442 H 0.10454 0.79004 0.71263 0.0
H443 H 0.07063 0.90074 0.64882 0.0
H444 H 0.1375 0.98894 0.70249 0.0
H445 H 0.0057 0.94449 0.65187 0.0
H446 H 0.0718 0.03221 0.70676 0.0
H447 H 0.80473 0.09938 0.64853 0.0
H448 H 0.78539 0.12001 0.60124 0.0
H449 H 0.91975 0.14481 0.5838 0.0
H450 H 0.93857 0.12595 0.63075 0.0
H451 H 0.91875 0.1812 0.66992 0.0
H452 H 0.9036 0.24114 0.70084 0.0
H453 H 0.81344 0.16184 0.7458 0.0
H454 H 0.83049 0.10085 0.71537 0.0
H455 H 0.88438 0.01512 0.67515 0.0
H456 H 0.94761 0.96819 0.67894 0.0
H457 H 0.03013 0.0805 0.68085 0.0
N458 N 0.88266 0.10056 0.67184 0.0
H459 H 0.9673 0.12655 0.67842 0.0
C460 C 0.1608 0.90393 0.64487 0.0
C461 C 0.18691 0.8672 0.64032 0.0
C462 C 0.19797 0.8543 0.61374 0.0
C463 C 0.18374 0.87768 0.59077 0.0
C464 C 0.16021 0.91568 0.59494 0.0
C465 C 0.15006 0.92935 0.62165 0.0
C466 C 0.15199 0.88429 0.69347 0.0
C467 C 0.18824 0.88283 0.71082 0.0
C468 C 0.1951 0.84754 0.72829 0.0
C469 C 0.16518 0.81358 0.72913 0.0
C470 C 0.1279 0.81601 0.7127 0.0
C471 C 0.12167 0.85057 0.69474 0.0
C472 C 0.10937 0.94197 0.67516 0.0
C473 C 0.07116 0.92925 0.66165 0.0
C474 C 0.03379 0.95428 0.66358 0.0
C475 C 0.0333 0.99219 0.67948 0.0
C476 C 0.0711 1.00383 0.69383 0.0
C477 C 0.10866 0.97904 0.69157 0.0
C478 C 0.87303 0.11051 0.64336 0.0
C479 C 0.82997 0.10893 0.63437 0.0
C480 C 0.819 0.12062 0.60739 0.0
C481 C 0.85111 0.13356 0.58875 0.0
C482 C 0.89432 0.13437 0.59757 0.0
C483 C 0.90515 0.12352 0.62462 0.0
C484 C 0.87627 0.13608 0.69063 0.0
C485 C 0.89677 0.1761 0.68689 0.0
C486 C 0.88795 0.21049 0.70459 0.0
C487 C 0.85756 0.20606 0.72588 0.0
C488 C 0.83722 0.16607 0.72969 0.0
C489 C 0.84686 0.13131 0.71236 0.0
C490 C 0.92064 0.07436 0.67645 0.0
C491 C 0.91615 0.02946 0.67684 0.0
C492 C 0.95242 1.00273 0.67874 0.0
C493 C 0.99425 0.02041 0.67999 0.0
C494 C 0.99857 0.06553 0.68036 0.0
C495 C 0.96229 0.09217 0.6788 0.0
In496 In 0.32165 0.68969 0.01476 0.0
O497 O 0.30284 0.75803 0.02805 0.0
O498 O 0.36923 0.74068 0.02934 0.0
C499 C 0.24211 0.67053 0.99554 0.0
C500 C 0.33982 0.64841 0.06253 0.0
C501 C 0.36219 0.67154 0.96674 0.0
O502 O 0.25307 0.70856 1.00167 0.0
O503 O 0.27034 0.64228 1.00051 0.0
O504 O 0.35585 0.64391 0.98531 0.0
O505 O 0.35022 0.70919 0.97291 0.0
C506 C 0.34093 0.76885 0.03434 0.0
O507 O 0.3676 0.65523 0.04409 0.0
O508 O 0.3021 0.66047 0.05638 0.0
In509 In 0.31871 0.81644 0.2643 0.0
O510 O 0.30931 0.74502 0.25373 0.0
O511 O 0.37005 0.77386 0.2449 0.0
C512 C 0.24112 0.83946 0.28496 0.0
C513 C 0.3242 0.8594 0.21616 0.0
C514 C 0.36246 0.82501 0.31212 0.0
O515 O 0.24825 0.80216 0.27555 0.0
O516 O 0.27221 0.86543 0.28251 0.0
O517 O 0.36881 0.84982 0.29188 0.0
O518 O 0.33617 0.7948 0.30756 0.0
C519 C 0.34643 0.74085 0.24325 0.0
O520 O 0.3482 0.86839 0.23644 0.0
O521 O 0.2961 0.83092 0.22085 0.0
In522 In 0.19596 0.81624 0.51512 0.0
O523 O 0.16699 0.86897 0.5426 0.0
O524 O 0.21896 0.83143 0.55835 0.0
C525 C 0.15196 0.82406 0.46733 0.0
C526 C 0.16857 0.74104 0.53699 0.0
C527 C 0.27333 0.83949 0.49427 0.0
O528 O 0.14527 0.8488 0.48756 0.0
O529 O 0.17867 0.79423 0.47191 0.0
O530 O 0.26641 0.80216 0.5037 0.0
O531 O 0.24214 0.86531 0.49674 0.0
C532 C 0.19116 0.86028 0.56286 0.0
O533 O 0.2055 0.74499 0.5262 0.0
O534 O 0.14493 0.77402 0.53522 0.0
In535 In 0.19064 0.69433 0.76531 0.0
O536 O 0.14117 0.66336 0.79418 0.0
O537 O 0.17654 0.71742 0.80886 0.0
C538 C 0.1734 0.65 0.71854 0.0
C539 C 0.26592 0.66481 0.78601 0.0
C540 C 0.17415 0.77376 0.74483 0.0
O541 O 0.14555 0.65659 0.737 0.0
O542 O 0.21073 0.66354 0.72435 0.0
O543 O 0.21177 0.76207 0.75156 0.0
O544 O 0.14516 0.74637 0.74972 0.0
C545 C 0.14939 0.68824 0.81409 0.0
O546 O 0.26275 0.70148 0.77481 0.0
O547 O 0.23196 0.64234 0.78519 0.0
In548 In 0.82304 0.19155 0.51318 0.0
O549 O 0.80325 0.26027 0.52524 0.0
O550 O 0.86929 0.24257 0.5291 0.0
C551 C 0.74555 0.16934 0.49188 0.0
C552 C 0.83982 0.14961 0.56097 0.0
C553 C 0.86656 0.17704 0.46585 0.0
O554 O 0.75243 0.20625 0.50198 0.0
O555 O 0.77671 0.1434 0.49398 0.0
O556 O 0.86173 0.14883 0.48427 0.0
O557 O 0.85145 0.21363 0.47187 0.0
C558 C 0.84077 0.27094 0.5329 0.0
O559 O 0.86805 0.15669 0.54287 0.0
O560 O 0.80223 0.16148 0.55439 0.0
In561 In 0.81568 0.3192 0.7634 0.0
O562 O 0.846 0.36915 0.73464 0.0
O563 O 0.79139 0.33434 0.72018 0.0
C564 C 0.86166 0.33508 0.80975 0.0
C565 C 0.84456 0.24424 0.74211 0.0
C566 C 0.7369 0.33591 0.78502 0.0
O567 O 0.85518 0.36314 0.79142 0.0
O568 O 0.84714 0.29817 0.80401 0.0
O569 O 0.74759 0.29864 0.77713 0.0
O570 O 0.76491 0.36453 0.78072 0.0
C571 C 0.82054 0.3615 0.71491 0.0
O572 O 0.80814 0.24733 0.75371 0.0
O573 O 0.86712 0.27811 0.74279 0.0
In574 In 0.69783 0.31375 0.01439 0.0
O575 O 0.70929 0.24282 0.02576 0.0
O576 O 0.64822 0.2707 0.03496 0.0
C577 C 0.77311 0.33914 0.99151 0.0
C578 C 0.69316 0.35856 0.06189 0.0
C579 C 0.65184 0.31857 0.96731 0.0
O580 O 0.76877 0.30252 1.00261 0.0
O581 O 0.74053 0.36333 0.99342 0.0
O582 O 0.64502 0.34371 0.98733 0.0
O583 O 0.67981 0.28984 0.97178 0.0
C584 C 0.67253 0.23821 0.0367 0.0
O585 O 0.66814 0.36604 0.04186 0.0
O586 O 0.72183 0.33063 0.05721 0.0
In587 In 0.69153 0.19102 0.26512 0.0
O588 O 0.6521 0.14909 0.29408 0.0
O589 O 0.66323 0.2138 0.30634 0.0
C590 C 0.67589 0.14751 0.21779 0.0
C591 C 0.76884 0.16876 0.28667 0.0
C592 C 0.67361 0.26984 0.24439 0.0
O593 O 0.64731 0.15483 0.23563 0.0
O594 O 0.71323 0.16014 0.22439 0.0
O595 O 0.71087 0.25986 0.2529 0.0
O596 O 0.64536 0.24109 0.24782 0.0
C597 C 0.64763 0.17745 0.31244 0.0
O598 O 0.76223 0.20552 0.27627 0.0
O599 O 0.73749 0.14303 0.28478 0.0
loop_
_geom_bond_atom_site_label_1
_geom_bond_atom_site_label_2
_geom_bond_distance
_geom_bond_site_symmetry_2
_ccdc_geom_bond_type
H0 C27 0.929 . S
N1 C26 1.433 . S
N1 C32 1.435 . S
N1 C38 1.423 . S
H2 C28 0.930 . S
H3 C31 0.931 . S
H4 C30 0.929 . S
H5 C33 0.930 . S
H6 C34 0.932 . S
H7 C37 0.929 . S
H8 C36 0.931 . S
H9 C39 0.929 . S
H10 C43 0.932 . S
H11 C40 0.931 . S
H12 C42 0.929 . S
H13 C45 0.929 . S
H14 C46 0.930 . S
H15 C48 0.929 . S
H16 C49 0.931 . S
H17 C51 0.930 . S
H18 C52 0.932 . S
H19 C54 0.931 . S
H20 C55 0.929 . S
H21 C57 0.929 . S
H22 C58 0.931 1_455 S
H23 C60 0.929 . S
N24 C44 1.433 . S
N24 C50 1.435 . S
N24 C56 1.423 . S
H25 C61 0.932 . S
C26 N1 1.433 . S
C26 C27 1.363 . S
C26 C31 1.370 . S
C27 H0 0.929 . S
C27 C26 1.363 . S
C27 C28 1.385 . S
C28 H2 0.930 . S
C28 C27 1.385 . S
C28 C29 1.357 . S
C29 C28 1.357 . S
C29 C30 1.406 . S
C30 H4 0.929 . S
C30 C29 1.406 . S
C30 C31 1.391 . S
C31 H3 0.931 . S
C31 C26 1.370 . S
C31 C30 1.391 . S
C32 N1 1.435 . S
C32 C33 1.358 . S
C32 C37 1.371 . S
C33 H5 0.930 . S
C33 C32 1.358 . S
C33 C34 1.405 . S
C34 H6 0.932 . S
C34 C33 1.405 . S
C34 C35 1.383 . S
C35 C34 1.383 . S
C35 C36 1.393 . S
C36 H8 0.931 . S
C36 C35 1.393 . S
C36 C37 1.382 . S
C37 H7 0.929 . S
C37 C32 1.371 . S
C37 C36 1.382 . S
C38 N1 1.423 . S
C38 C39 1.362 . S
C38 C43 1.388 . S
C39 H9 0.929 . S
C39 C38 1.362 . S
C39 C40 1.376 1_565 S
C40 H11 0.931 . S
C40 C39 1.376 1_545 S
C40 C41 1.396 . S
C41 C40 1.396 . S
C41 C42 1.348 1_545 S
C41 C59 1.472 . S
C42 H12 0.929 . S
C42 C41 1.348 1_565 S
C42 C43 1.443 . S
C43 H10 0.932 . S
C43 C38 1.388 . S
C43 C42 1.443 . S
C44 N24 1.433 . S
C44 C45 1.363 . S
C44 C49 1.370 . S
C45 H13 0.929 . S
C45 C44 1.363 . S
C45 C46 1.385 . S
C46 H14 0.930 . S
C46 C45 1.385 . S
C46 C47 1.357 . S
C47 C46 1.357 . S
C47 C48 1.406 . S
C48 H15 0.929 . S
C48 C47 1.406 . S
C48 C49 1.391 . S
C49 H16 0.931 . S
C49 C44 1.370 . S
C49 C48 1.391 . S
C50 N24 1.435 . S
C50 C51 1.358 . S
C50 C55 1.371 . S
C51 H17 0.930 . S
C51 C50 1.358 . S
C51 C52 1.405 . S
C52 H18 0.932 . S
C52 C51 1.405 . S
C52 C53 1.383 . S
C53 C52 1.383 . S
C53 C54 1.393 . S
C54 H19 0.931 . S
C54 C53 1.393 . S
C54 C55 1.382 . S
C55 H20 0.929 . S
C55 C50 1.371 . S
C55 C54 1.382 . S
C56 N24 1.423 . S
C56 C57 1.362 . S
C56 C61 1.388 . S
C57 H21 0.929 . S
C57 C56 1.362 . S
C57 C58 1.376 . S
C58 H22 0.931 1_655 S
C58 C57 1.376 . S
C58 C59 1.396 1_655 S
C59 C41 1.472 . S
C59 C58 1.396 1_455 S
C59 C60 1.348 1_455 S
C60 H23 0.929 . S
C60 C59 1.348 1_655 S
C60 C61 1.443 . S
C61 H25 0.932 . S
C61 C56 1.388 . S
C61 C60 1.443 . S
H62 C89 0.929 . S
N63 C88 1.433 . S
N63 C94 1.435 . S
N63 C100 1.423 . S
H64 C90 0.930 . S
H65 C93 0.931 . S
H66 C92 0.929 . S
H67 C95 0.930 . S
H68 C96 0.932 . S
H69 C99 0.929 . S
H70 C98 0.931 . S
H71 C101 0.929 . S
H72 C105 0.932 . S
H73 C102 0.931 . S
H74 C104 0.929 . S
H75 C107 0.929 . S
H76 C108 0.930 . S
H77 C110 0.929 . S
H78 C111 0.931 . S
H79 C113 0.930 . S
H80 C114 0.932 . S
H81 C116 0.931 . S
H82 C117 0.929 . S
H83 C119 0.929 . S
H84 C120 0.931 . S
H85 C122 0.929 . S
N86 C106 1.433 . S
N86 C112 1.435 . S
N86 C118 1.423 . S
H87 C123 0.932 . S
C88 N63 1.433 . S
C88 C89 1.363 . S
C88 C93 1.370 . S
C89 H62 0.929 . S
C89 C88 1.363 . S
C89 C90 1.385 . S
C90 H64 0.930 . S
C90 C89 1.385 . S
C90 C91 1.357 . S
C91 C90 1.357 . S
C91 C92 1.406 . S
C92 H66 0.929 . S
C92 C91 1.406 . S
C92 C93 1.391 . S
C93 H65 0.931 . S
C93 C88 1.370 . S
C93 C92 1.391 . S
C94 N63 1.435 . S
C94 C95 1.358 . S
C94 C99 1.371 . S
C95 H67 0.930 . S
C95 C94 1.358 . S
C95 C96 1.405 . S
C96 H68 0.932 . S
C96 C95 1.405 . S
C96 C97 1.383 . S
C97 C96 1.383 . S
C97 C98 1.393 . S
C98 H70 0.931 . S
C98 C97 1.393 . S
C98 C99 1.382 . S
C99 H69 0.929 . S
C99 C94 1.371 . S
C99 C98 1.382 . S
C100 N63 1.423 . S
C100 C101 1.362 . S
C100 C105 1.388 . S
C101 H71 0.929 . S
C101 C100 1.362 . S
C101 C102 1.376 1_655 S
C102 H73 0.931 . S
C102 C101 1.376 1_455 S
C102 C103 1.396 . S
C103 C102 1.396 . S
C103 C104 1.348 1_455 S
C103 C121 1.472 . S
C104 H74 0.929 . S
C104 C103 1.348 1_655 S
C104 C105 1.443 . S
C105 H72 0.932 . S
C105 C100 1.388 . S
C105 C104 1.443 . S
C106 N86 1.433 . S
C106 C107 1.363 . S
C106 C111 1.370 . S
C107 H75 0.929 . S
C107 C106 1.363 . S
C107 C108 1.385 . S
C108 H76 0.930 . S
C108 C107 1.385 . S
C108 C109 1.357 . S
C109 C108 1.357 . S
C109 C110 1.406 . S
C110 H77 0.929 . S
C110 C109 1.406 . S
C110 C111 1.391 . S
C111 H78 0.931 . S
C111 C106 1.370 . S
C111 C110 1.391 . S
C112 N86 1.435 . S
C112 C113 1.358 . S
C112 C117 1.371 . S
C113 H79 0.930 . S
C113 C112 1.358 . S
C113 C114 1.405 . S
C114 H80 0.932 . S
C114 C113 1.405 . S
C114 C115 1.383 . S
C115 C114 1.383 . S
C115 C116 1.393 . S
C116 H81 0.931 . S
C116 C115 1.393 . S
C116 C117 1.382 . S
C117 H82 0.929 . S
C117 C112 1.371 . S
C117 C116 1.382 . S
C118 N86 1.423 . S
C118 C119 1.362 . S
C118 C123 1.388 . S
C119 H83 0.929 . S
C119 C118 1.362 . S
C119 C120 1.376 . S
C120 H84 0.931 . S
C120 C119 1.376 . S
C120 C121 1.396 . S
C121 C103 1.472 . S
C121 C120 1.396 . S
C121 C122 1.348 . S
C122 H85 0.929 . S
C122 C121 1.348 . S
C122 C123 1.443 . S
C123 H87 0.932 . S
C123 C118 1.388 . S
C123 C122 1.443 . S
H124 C151 0.929 . S
N125 C150 1.433 . S
N125 C156 1.435 . S
N125 C162 1.423 . S
H126 C152 0.930 . S
H127 C155 0.931 . S
H128 C154 0.929 . S
H129 C157 0.930 . S
H130 C158 0.932 . S
H131 C161 0.929 . S
H132 C160 0.931 . S
H133 C163 0.929 . S
H134 C167 0.932 . S
H135 C164 0.931 . S
H136 C166 0.929 . S
H137 C169 0.929 . S
H138 C170 0.930 . S
H139 C172 0.929 . S
H140 C173 0.931 . S
H141 C175 0.930 . S
H142 C176 0.932 . S
H143 C178 0.931 . S
H144 C179 0.929 . S
H145 C181 0.929 . S
H146 C182 0.931 . S
H147 C184 0.929 . S
N148 C168 1.433 . S
N148 C174 1.435 . S
N148 C180 1.423 . S
H149 C185 0.932 . S
C150 N125 1.433 . S
C150 C151 1.363 . S
C150 C155 1.370 . S
C151 H124 0.929 . S
C151 C150 1.363 . S
C151 C152 1.385 . S
C152 H126 0.930 . S
C152 C151 1.385 . S
C152 C153 1.357 . S
C153 C152 1.357 . S
C153 C154 1.406 . S
C154 H128 0.929 . S
C154 C153 1.406 . S
C154 C155 1.391 . S
C155 H127 0.931 . S
C155 C150 1.370 . S
C155 C154 1.391 . S
C156 N125 1.435 . S
C156 C157 1.358 . S
C156 C161 1.371 . S
C157 H129 0.930 . S
C157 C156 1.358 . S
C157 C158 1.405 . S
C158 H130 0.932 . S
C158 C157 1.405 . S
C158 C159 1.383 . S
C159 C158 1.383 . S
C159 C160 1.393 . S
C160 H132 0.931 . S
C160 C159 1.393 . S
C160 C161 1.382 . S
C161 H131 0.929 . S
C161 C156 1.371 . S
C161 C160 1.382 . S
C162 N125 1.423 . S
C162 C163 1.362 . S
C162 C167 1.388 . S
C163 H133 0.929 . S
C163 C162 1.362 . S
C163 C164 1.376 . S
C164 H135 0.931 . S
C164 C163 1.376 . S
C164 C165 1.396 . S
C165 C164 1.396 . S
C165 C166 1.348 . S
C165 C183 1.472 . S
C166 H136 0.929 . S
C166 C165 1.348 . S
C166 C167 1.443 . S
C167 H134 0.932 . S
C167 C162 1.388 . S
C167 C166 1.443 . S
C168 N148 1.433 . S
C168 C169 1.363 . S
C168 C173 1.370 . S
C169 H137 0.929 . S
C169 C168 1.363 . S
C169 C170 1.385 . S
C170 H138 0.930 . S
C170 C169 1.385 . S
C170 C171 1.357 . S
C171 C170 1.357 . S
C171 C172 1.406 . S
C172 H139 0.929 . S
C172 C171 1.406 . S
C172 C173 1.391 . S
C173 H140 0.931 . S
C173 C168 1.370 . S
C173 C172 1.391 . S
C174 N148 1.435 . S
C174 C175 1.358 . S
C174 C179 1.371 . S
C175 H141 0.930 . S
C175 C174 1.358 . S
C175 C176 1.405 . S
C176 H142 0.932 . S
C176 C175 1.405 . S
C176 C177 1.383 . S
C177 C176 1.383 . S
C177 C178 1.393 . S
C178 H143 0.931 . S
C178 C177 1.393 . S
C178 C179 1.382 . S
C179 H144 0.929 . S
C179 C174 1.371 . S
C179 C178 1.382 . S
C180 N148 1.423 . S
C180 C181 1.362 . S
C180 C185 1.388 . S
C181 H145 0.929 . S
C181 C180 1.362 . S
C181 C182 1.376 . S
C182 H146 0.931 . S
C182 C181 1.376 . S
C182 C183 1.396 . S
C183 C165 1.472 . S
C183 C182 1.396 . S
C183 C184 1.348 . S
C184 H147 0.929 . S
C184 C183 1.348 . S
C184 C185 1.443 . S
C185 H149 0.932 . S
C185 C180 1.388 . S
C185 C184 1.443 . S
H186 C213 0.929 . S
N187 C212 1.433 . S
N187 C218 1.435 . S
N187 C224 1.423 . S
H188 C214 0.930 . S
H189 C217 0.931 . S
H190 C216 0.929 . S
H191 C219 0.930 . S
H192 C220 0.932 . S
H193 C223 0.929 . S
H194 C222 0.931 1_556 S
H195 C225 0.929 . S
H196 C229 0.932 . S
H197 C226 0.931 . S
H198 C228 0.929 . S
H199 C231 0.929 . S
H200 C232 0.930 . S
H201 C234 0.929 . S
H202 C235 0.931 . S
H203 C237 0.930 . S
H204 C238 0.932 . S
H205 C240 0.931 1_556 S
H206 C241 0.929 . S
H207 C243 0.929 . S
H208 C244 0.931 1_565 S
H209 C246 0.929 . S
N210 C230 1.433 . S
N210 C236 1.435 . S
N210 C242 1.423 . S
H211 C247 0.932 . S
C212 N187 1.433 . S
C212 C213 1.363 . S
C212 C217 1.370 . S
C213 H186 0.929 . S
C213 C212 1.363 . S
C213 C214 1.385 . S
C214 H188 0.930 . S
C214 C213 1.385 . S
C214 C215 1.357 . S
C215 C214 1.357 . S
C215 C216 1.406 . S
C216 H190 0.929 . S
C216 C215 1.406 . S
C216 C217 1.391 . S
C217 H189 0.931 . S
C217 C212 1.370 . S
C217 C216 1.391 . S
C218 N187 1.435 . S
C218 C219 1.358 . S
C218 C223 1.371 . S
C219 H191 0.930 . S
C219 C218 1.358 . S
C219 C220 1.405 . S
C220 H192 0.932 . S
C220 C219 1.405 . S
C220 C221 1.383 . S
C221 C220 1.383 . S
C221 C222 1.393 . S
C222 H194 0.931 1_554 S
C222 C221 1.393 . S
C222 C223 1.382 . S
C223 H193 0.929 . S
C223 C218 1.371 . S
C223 C222 1.382 . S
C224 N187 1.423 . S
C224 C225 1.362 . S
C224 C229 1.388 . S
C225 H195 0.929 . S
C225 C224 1.362 . S
C225 C226 1.376 . S
C226 H197 0.931 . S
C226 C225 1.376 . S
C226 C227 1.396 . S
C227 C226 1.396 . S
C227 C228 1.348 . S
C227 C245 1.472 1_565 S
C228 H198 0.929 . S
C228 C227 1.348 . S
C228 C229 1.443 . S
C229 H196 0.932 . S
C229 C224 1.388 . S
C229 C228 1.443 . S
C230 N210 1.433 . S
C230 C231 1.363 . S
C230 C235 1.370 . S
C231 H199 0.929 . S
C231 C230 1.363 . S
C231 C232 1.385 . S
C232 H200 0.930 . S
C232 C231 1.385 . S
C232 C233 1.357 . S
C233 C232 1.357 . S
C233 C234 1.406 . S
C234 H201 0.929 . S
C234 C233 1.406 . S
C234 C235 1.391 . S
C235 H202 0.931 . S
C235 C230 1.370 . S
C235 C234 1.391 . S
C236 N210 1.435 . S
C236 C237 1.358 . S
C236 C241 1.371 . S
C237 H203 0.930 . S
C237 C236 1.358 . S
C237 C238 1.405 . S
C238 H204 0.932 . S
C238 C237 1.405 . S
C238 C239 1.383 . S
C239 C238 1.383 . S
C239 C240 1.393 . S
C240 H205 0.931 1_554 S
C240 C239 1.393 . S
C240 C241 1.382 . S
C241 H206 0.929 . S
C241 C236 1.371 . S
C241 C240 1.382 . S
C242 N210 1.423 . S
C242 C243 1.362 . S
C242 C247 1.388 . S
C243 H207 0.929 . S
C243 C242 1.362 . S
C243 C244 1.376 . S
C244 H208 0.931 1_545 S
C244 C243 1.376 . S
C244 C245 1.396 . S
C245 C227 1.472 1_545 S
C245 C244 1.396 . S
C245 C246 1.348 . S
C246 H209 0.929 . S
C246 C245 1.348 . S
C246 C247 1.443 . S
C247 H211 0.932 . S
C247 C242 1.388 . S
C247 C246 1.443 . S
H248 C275 0.929 . S
N249 C274 1.433 . S
N249 C280 1.435 . S
N249 C286 1.423 . S
H250 C276 0.930 . S
H251 C279 0.931 . S
H252 C278 0.929 . S
H253 C281 0.930 . S
H254 C282 0.932 . S
H255 C285 0.929 . S
H256 C284 0.931 1_554 S
H257 C287 0.929 . S
H258 C291 0.932 . S
H259 C288 0.931 . S
H260 C290 0.929 . S
H261 C293 0.929 . S
H262 C294 0.930 . S
H263 C296 0.929 . S
H264 C297 0.931 . S
H265 C299 0.930 . S
H266 C300 0.932 . S
H267 C302 0.931 1_554 S
H268 C303 0.929 . S
H269 C305 0.929 . S
H270 C306 0.931 1_455 S
H271 C308 0.929 . S
N272 C292 1.433 . S
N272 C298 1.435 . S
N272 C304 1.423 . S
H273 C309 0.932 . S
C274 N249 1.433 . S
C274 C275 1.363 . S
C274 C279 1.370 . S
C275 H248 0.929 . S
C275 C274 1.363 . S
C275 C276 1.385 . S
C276 H250 0.930 . S
C276 C275 1.385 . S
C276 C277 1.357 . S
C277 C276 1.357 . S
C277 C278 1.406 . S
C278 H252 0.929 . S
C278 C277 1.406 . S
C278 C279 1.391 . S
C279 H251 0.931 . S
C279 C274 1.370 . S
C279 C278 1.391 . S
C280 N249 1.435 . S
C280 C281 1.358 . S
C280 C285 1.371 . S
C281 H253 0.930 . S
C281 C280 1.358 . S
C281 C282 1.405 . S
C282 H254 0.932 . S
C282 C281 1.405 . S
C282 C283 1.383 . S
C283 C282 1.383 . S
C283 C284 1.393 . S
C284 H256 0.931 1_556 S
C284 C283 1.393 . S
C284 C285 1.382 . S
C285 H255 0.929 . S
C285 C280 1.371 . S
C285 C284 1.382 . S
C286 N249 1.423 . S
C286 C287 1.362 . S
C286 C291 1.388 . S
C287 H257 0.929 . S
C287 C286 1.362 . S
C287 C288 1.376 . S
C288 H259 0.931 . S
C288 C287 1.376 . S
C288 C289 1.396 . S
C289 C288 1.396 . S
C289 C290 1.348 . S
C289 C307 1.490 . S
C290 H260 0.929 . S
C290 C289 1.348 . S
C290 C291 1.443 . S
C291 H258 0.932 . S
C291 C286 1.388 . S
C291 C290 1.443 . S
C292 N272 1.433 . S
C292 C293 1.363 . S
C292 C297 1.370 . S
C293 H261 0.929 . S
C293 C292 1.363 . S
C293 C294 1.385 . S
C294 H262 0.930 . S
C294 C293 1.385 . S
C294 C295 1.357 . S
C295 C294 1.357 . S
C295 C296 1.406 . S
C296 H263 0.929 . S
C296 C295 1.406 . S
C296 C297 1.391 . S
C297 H264 0.931 . S
C297 C292 1.370 . S
C297 C296 1.391 . S
C298 N272 1.435 . S
C298 C299 1.358 . S
C298 C303 1.371 . S
C299 H265 0.930 . S
C299 C298 1.358 . S
C299 C300 1.405 . S
C300 H266 0.932 . S
C300 C299 1.405 . S
C300 C301 1.383 . S
C301 C300 1.383 . S
C301 C302 1.393 . S
C302 H267 0.931 1_556 S
C302 C301 1.393 . S
C302 C303 1.382 . S
C303 H268 0.929 . S
C303 C298 1.371 . S
C303 C302 1.382 . S
C304 N272 1.423 . S
C304 C305 1.362 . S
C304 C309 1.388 . S
C305 H269 0.929 . S
C305 C304 1.362 . S
C305 C306 1.376 . S
C306 H270 0.931 1_655 S
C306 C305 1.376 . S
C306 C307 1.394 1_655 S
C307 C289 1.490 . S
C307 C306 1.394 1_455 S
C307 C308 1.331 1_455 S
C308 H271 0.929 . S
C308 C307 1.331 1_655 S
C308 C309 1.443 . S
C309 H273 0.932 . S
C309 C304 1.388 . S
C309 C308 1.443 . S
H310 C337 0.929 . S
N311 C336 1.433 . S
N311 C342 1.435 . S
N311 C348 1.423 . S
H312 C338 0.930 . S
H313 C341 0.931 . S
H314 C340 0.929 . S
H315 C343 0.930 . S
H316 C344 0.932 . S
H317 C347 0.929 . S
H318 C346 0.931 . S
H319 C349 0.929 . S
H320 C353 0.932 . S
H321 C350 0.931 . S
H322 C352 0.929 . S
H323 C355 0.929 . S
H324 C356 0.930 . S
H325 C358 0.929 . S
H326 C359 0.931 . S
H327 C361 0.930 . S
H328 C362 0.932 . S
H329 C364 0.931 . S
H330 C365 0.929 . S
H331 C367 0.929 . S
H332 C368 0.931 . S
H333 C370 0.929 . S
N334 C354 1.433 . S
N334 C360 1.435 . S
N334 C366 1.423 . S
H335 C371 0.932 . S
C336 N311 1.433 . S
C336 C337 1.363 . S
C336 C341 1.370 . S
C337 H310 0.929 . S
C337 C336 1.363 . S
C337 C338 1.385 . S
C338 H312 0.930 . S
C338 C337 1.385 . S
C338 C339 1.357 . S
C339 C338 1.357 . S
C339 C340 1.406 . S
C340 H314 0.929 . S
C340 C339 1.406 . S
C340 C341 1.391 . S
C341 H313 0.931 . S
C341 C336 1.370 . S
C341 C340 1.391 . S
C342 N311 1.435 . S
C342 C343 1.358 . S
C342 C347 1.371 . S
C343 H315 0.930 . S
C343 C342 1.358 . S
C343 C344 1.405 . S
C344 H316 0.932 . S
C344 C343 1.405 . S
C344 C345 1.383 . S
C345 C344 1.383 . S
C345 C346 1.393 . S
C346 H318 0.931 . S
C346 C345 1.393 . S
C346 C347 1.382 . S
C347 H317 0.929 . S
C347 C342 1.371 . S
C347 C346 1.382 . S
C348 N311 1.423 . S
C348 C349 1.362 . S
C348 C353 1.388 . S
C349 H319 0.929 . S
C349 C348 1.362 . S
C349 C350 1.376 . S
C350 H321 0.931 . S
C350 C349 1.376 . S
C350 C351 1.396 . S
C351 C350 1.396 . S
C351 C352 1.348 . S
C351 C369 1.472 . S
C352 H322 0.929 . S
C352 C351 1.348 . S
C352 C353 1.443 . S
C353 H320 0.932 . S
C353 C348 1.388 . S
C353 C352 1.443 . S
C354 N334 1.433 . S
C354 C355 1.363 . S
C354 C359 1.370 . S
C355 H323 0.929 . S
C355 C354 1.363 . S
C355 C356 1.385 . S
C356 H324 0.930 . S
C356 C355 1.385 . S
C356 C357 1.357 . S
C357 C356 1.357 . S
C357 C358 1.406 . S
C358 H325 0.929 . S
C358 C357 1.406 . S
C358 C359 1.391 . S
C359 H326 0.931 . S
C359 C354 1.370 . S
C359 C358 1.391 . S
C360 N334 1.435 . S
C360 C361 1.358 . S
C360 C365 1.371 . S
C361 H327 0.930 . S
C361 C360 1.358 . S
C361 C362 1.405 . S
C362 H328 0.932 . S
C362 C361 1.405 . S
C362 C363 1.383 . S
C363 C362 1.383 . S
C363 C364 1.393 . S
C364 H329 0.931 . S
C364 C363 1.393 . S
C364 C365 1.382 . S
C365 H330 0.929 . S
C365 C360 1.371 . S
C365 C364 1.382 . S
C366 N334 1.423 . S
C366 C367 1.362 . S
C366 C371 1.388 . S
C367 H331 0.929 . S
C367 C366 1.362 . S
C367 C368 1.376 . S
C368 H332 0.931 . S
C368 C367 1.376 . S
C368 C369 1.396 . S
C369 C351 1.472 . S
C369 C368 1.396 . S
C369 C370 1.348 . S
C370 H333 0.929 . S
C370 C369 1.348 . S
C370 C371 1.443 . S
C371 H335 0.932 . S
C371 C366 1.388 . S
C371 C370 1.443 . S
H372 C399 0.929 . S
N373 C398 1.433 . S
N373 C404 1.435 . S
N373 C410 1.423 . S
H374 C400 0.930 . S
H375 C403 0.931 . S
H376 C402 0.929 . S
H377 C405 0.930 . S
H378 C406 0.932 . S
H379 C409 0.929 . S
H380 C408 0.931 . S
H381 C411 0.929 . S
H382 C415 0.932 . S
H383 C412 0.931 . S
H384 C414 0.929 . S
H385 C417 0.929 . S
H386 C418 0.930 . S
H387 C420 0.929 . S
H388 C421 0.931 . S
H389 C423 0.930 . S
H390 C424 0.932 . S
H391 C426 0.931 . S
H392 C427 0.929 . S
H393 C429 0.929 . S
H394 C430 0.931 . S
H395 C432 0.929 . S
N396 C416 1.433 . S
N396 C422 1.435 . S
N396 C428 1.423 . S
H397 C433 0.932 . S
C398 N373 1.433 . S
C398 C399 1.363 . S
C398 C403 1.370 . S
C399 H372 0.929 . S
C399 C398 1.363 . S
C399 C400 1.385 . S
C400 H374 0.930 . S
C400 C399 1.385 . S
C400 C401 1.357 . S
C401 C400 1.357 . S
C401 C402 1.406 . S
C402 H376 0.929 . S
C402 C401 1.406 . S
C402 C403 1.391 . S
C403 H375 0.931 . S
C403 C398 1.370 . S
C403 C402 1.391 . S
C404 N373 1.435 . S
C404 C405 1.358 . S
C404 C409 1.371 . S
C405 H377 0.930 . S
C405 C404 1.358 . S
C405 C406 1.405 . S
C406 H378 0.932 . S
C406 C405 1.405 . S
C406 C407 1.383 . S
C407 C406 1.383 . S
C407 C408 1.393 . S
C408 H380 0.931 . S
C408 C407 1.393 . S
C408 C409 1.382 . S
C409 H379 0.929 . S
C409 C404 1.371 . S
C409 C408 1.382 . S
C410 N373 1.423 . S
C410 C411 1.362 . S
C410 C415 1.388 . S
C411 H381 0.929 . S
C411 C410 1.362 . S
C411 C412 1.376 1_565 S
C412 H383 0.931 . S
C412 C411 1.376 1_545 S
C412 C413 1.396 . S
C413 C412 1.396 . S
C413 C414 1.348 1_545 S
C413 C431 1.472 . S
C414 H384 0.929 . S
C414 C413 1.348 1_565 S
C414 C415 1.443 . S
C415 H382 0.932 . S
C415 C410 1.388 . S
C415 C414 1.443 . S
C416 N396 1.433 . S
C416 C417 1.363 . S
C416 C421 1.370 . S
C417 H385 0.929 . S
C417 C416 1.363 . S
C417 C418 1.385 . S
C418 H386 0.930 . S
C418 C417 1.385 . S
C418 C419 1.357 . S
C419 C418 1.357 . S
C419 C420 1.406 . S
C420 H387 0.929 . S
C420 C419 1.406 . S
C420 C421 1.391 . S
C421 H388 0.931 . S
C421 C416 1.370 . S
C421 C420 1.391 . S
C422 N396 1.435 . S
C422 C423 1.358 . S
C422 C427 1.371 . S
C423 H389 0.930 . S
C423 C422 1.358 . S
C423 C424 1.405 . S
C424 H390 0.932 . S
C424 C423 1.405 . S
C424 C425 1.383 . S
C425 C424 1.383 . S
C425 C426 1.393 . S
C426 H391 0.931 . S
C426 C425 1.393 . S
C426 C427 1.382 . S
C427 H392 0.929 . S
C427 C422 1.371 . S
C427 C426 1.382 . S
C428 N396 1.423 . S
C428 C429 1.362 . S
C428 C433 1.388 . S
C429 H393 0.929 . S
C429 C428 1.362 . S
C429 C430 1.376 . S
C430 H394 0.931 . S
C430 C429 1.376 . S
C430 C431 1.396 . S
C431 C413 1.472 . S
C431 C430 1.396 . S
C431 C432 1.348 . S
C432 H395 0.929 . S
C432 C431 1.348 . S
C432 C433 1.443 . S
C433 H397 0.932 . S
C433 C428 1.388 . S
C433 C432 1.443 . S
H434 C461 0.929 . S
N435 C460 1.433 . S
N435 C466 1.435 . S
N435 C472 1.423 . S
H436 C462 0.930 . S
H437 C465 0.931 . S
H438 C464 0.929 . S
H439 C467 0.930 . S
H440 C468 0.932 . S
H441 C471 0.929 . S
H442 C470 0.931 . S
H443 C473 0.929 . S
H444 C477 0.932 . S
H445 C474 0.931 . S
H446 C476 0.929 . S
H447 C479 0.929 . S
H448 C480 0.930 . S
H449 C482 0.929 . S
H450 C483 0.931 . S
H451 C485 0.930 . S
H452 C486 0.932 . S
H453 C488 0.931 . S
H454 C489 0.929 . S
H455 C491 0.929 . S
H456 C492 0.931 1_565 S
H457 C494 0.929 . S
N458 C478 1.433 . S
N458 C484 1.435 . S
N458 C490 1.423 . S
H459 C495 0.932 . S
C460 N435 1.433 . S
C460 C461 1.363 . S
C460 C465 1.370 . S
C461 H434 0.929 . S
C461 C460 1.363 . S
C461 C462 1.385 . S
C462 H436 0.930 . S
C462 C461 1.385 . S
C462 C463 1.357 . S
C463 C462 1.357 . S
C463 C464 1.406 . S
C464 H438 0.929 . S
C464 C463 1.406 . S
C464 C465 1.391 . S
C465 H437 0.931 . S
C465 C460 1.370 . S
C465 C464 1.391 . S
C466 N435 1.435 . S
C466 C467 1.358 . S
C466 C471 1.371 . S
C467 H439 0.930 . S
C467 C466 1.358 . S
C467 C468 1.405 . S
C468 H440 0.932 . S
C468 C467 1.405 . S
C468 C469 1.383 . S
C469 C468 1.383 . S
C469 C470 1.393 . S
C470 H442 0.931 . S
C470 C469 1.393 . S
C470 C471 1.382 . S
C471 H441 0.929 . S
C471 C466 1.371 . S
C471 C470 1.382 . S
C472 N435 1.423 . S
C472 C473 1.362 . S
C472 C477 1.388 . S
C473 H443 0.929 . S
C473 C472 1.362 . S
C473 C474 1.376 1_455 S
C474 H445 0.931 . S
C474 C473 1.376 1_655 S
C474 C475 1.396 . S
C475 C474 1.396 . S
C475 C476 1.348 1_655 S
C475 C493 1.461 1_565 S
C476 H446 0.929 . S
C476 C475 1.348 1_455 S
C476 C477 1.443 . S
C477 H444 0.932 . S
C477 C472 1.388 . S
C477 C476 1.443 . S
C478 N458 1.433 . S
C478 C479 1.363 . S
C478 C483 1.370 . S
C479 H447 0.929 . S
C479 C478 1.363 . S
C479 C480 1.385 . S
C480 H448 0.930 . S
C480 C479 1.385 . S
C480 C481 1.357 . S
C481 C480 1.357 . S
C481 C482 1.406 . S
C482 H449 0.929 . S
C482 C481 1.406 . S
C482 C483 1.391 . S
C483 H450 0.931 . S
C483 C478 1.370 . S
C483 C482 1.391 . S
C484 N458 1.435 . S
C484 C485 1.358 . S
C484 C489 1.371 . S
C485 H451 0.930 . S
C485 C484 1.358 . S
C485 C486 1.405 . S
C486 H452 0.932 . S
C486 C485 1.405 . S
C486 C487 1.383 . S
C487 C486 1.383 . S
C487 C488 1.393 . S
C488 H453 0.931 . S
C488 C487 1.393 . S
C488 C489 1.382 . S
C489 H454 0.929 . S
C489 C484 1.371 . S
C489 C488 1.382 . S
C490 N458 1.423 . S
C490 C491 1.362 . S
C490 C495 1.388 . S
C491 H455 0.929 . S
C491 C490 1.362 . S
C491 C492 1.376 . S
C492 H456 0.931 1_545 S
C492 C491 1.376 . S
C492 C493 1.397 . S
C493 C475 1.461 1_545 S
C493 C492 1.397 . S
C493 C494 1.358 . S
C494 H457 0.929 . S
C494 C493 1.358 . S
C494 C495 1.443 . S
C495 H459 0.932 . S
C495 C490 1.388 . S
C495 C494 1.443 . S
In496 O497 2.294 . S
In496 O498 2.326 . S
In496 O502 2.266 1_554 S
In496 O503 2.326 1_554 S
In496 O504 2.266 1_554 S
In496 O505 2.326 1_554 S
In496 O507 2.294 . S
In496 O508 2.326 . S
O497 In496 2.294 . S
O497 C506 1.240 . S
O498 In496 2.326 . S
O498 C506 1.252 . S
C499 O502 1.252 . S
C499 O503 1.260 . S
C500 O507 1.240 . S
C500 O508 1.252 . S
C501 O504 1.252 . S
C501 O505 1.260 . S
O502 In496 2.266 1_556 S
O502 C499 1.252 . S
O503 In496 2.326 1_556 S
O503 C499 1.260 . S
O504 In496 2.266 1_556 S
O504 C501 1.252 . S
O505 In496 2.326 1_556 S
O505 C501 1.260 . S
C506 O497 1.240 . S
C506 O498 1.252 . S
O507 In496 2.294 . S
O507 C500 1.240 . S
O508 In496 2.326 . S
O508 C500 1.252 . S
In509 O510 2.294 . S
In509 O511 2.326 . S
In509 O515 2.266 . S
In509 O516 2.326 . S
In509 O517 2.266 . S
In509 O518 2.326 . S
In509 O520 2.294 . S
In509 O521 2.326 . S
O510 In509 2.294 . S
O510 C519 1.240 . S
O511 In509 2.326 . S
O511 C519 1.252 . S
C512 O515 1.252 . S
C512 O516 1.260 . S
C513 O520 1.240 . S
C513 O521 1.252 . S
C514 O517 1.252 . S
C514 O518 1.260 . S
O515 In509 2.266 . S
O515 C512 1.252 . S
O516 In509 2.326 . S
O516 C512 1.260 . S
O517 In509 2.266 . S
O517 C514 1.252 . S
O518 In509 2.326 . S
O518 C514 1.260 . S
C519 O510 1.240 . S
C519 O511 1.252 . S
O520 In509 2.294 . S
O520 C513 1.240 . S
O521 In509 2.326 . S
O521 C513 1.252 . S
In522 O523 2.294 . S
In522 O524 2.326 . S
In522 O528 2.266 . S
In522 O529 2.326 . S
In522 O530 2.266 . S
In522 O531 2.326 . S
In522 O533 2.294 . S
In522 O534 2.326 . S
O523 In522 2.294 . S
O523 C532 1.240 . S
O524 In522 2.326 . S
O524 C532 1.252 . S
C525 O528 1.252 . S
C525 O529 1.260 . S
C526 O533 1.240 . S
C526 O534 1.252 . S
C527 O530 1.252 . S
C527 O531 1.260 . S
O528 In522 2.266 . S
O528 C525 1.252 . S
O529 In522 2.326 . S
O529 C525 1.260 . S
O530 In522 2.266 . S
O530 C527 1.252 . S
O531 In522 2.326 . S
O531 C527 1.260 . S
C532 O523 1.240 . S
C532 O524 1.252 . S
O533 In522 2.294 . S
O533 C526 1.240 . S
O534 In522 2.326 . S
O534 C526 1.252 . S
In535 O536 2.294 . S
In535 O537 2.326 . S
In535 O541 2.266 . S
In535 O542 2.326 . S
In535 O543 2.266 . S
In535 O544 2.326 . S
In535 O546 2.294 . S
In535 O547 2.326 . S
O536 In535 2.294 . S
O536 C545 1.240 . S
O537 In535 2.326 . S
O537 C545 1.252 . S
C538 O541 1.252 . S
C538 O542 1.260 . S
C539 O546 1.240 . S
C539 O547 1.252 . S
C540 O543 1.252 . S
C540 O544 1.260 . S
O541 In535 2.266 . S
O541 C538 1.252 . S
O542 In535 2.326 . S
O542 C538 1.260 . S
O543 In535 2.266 . S
O543 C540 1.252 . S
O544 In535 2.326 . S
O544 C540 1.260 . S
C545 O536 1.240 . S
C545 O537 1.252 . S
O546 In535 2.294 . S
O546 C539 1.240 . S
O547 In535 2.326 . S
O547 C539 1.252 . S
In548 O549 2.294 . S
In548 O550 2.326 . S
In548 O554 2.266 . S
In548 O555 2.326 . S
In548 O556 2.266 . S
In548 O557 2.326 . S
In548 O559 2.294 . S
In548 O560 2.326 . S
O549 In548 2.294 . S
O549 C558 1.240 . S
O550 In548 2.326 . S
O550 C558 1.252 . S
C551 O554 1.252 . S
C551 O555 1.260 . S
C552 O559 1.240 . S
C552 O560 1.252 . S
C553 O556 1.252 . S
C553 O557 1.260 . S
O554 In548 2.266 . S
O554 C551 1.252 . S
O555 In548 2.326 . S
O555 C551 1.260 . S
O556 In548 2.266 . S
O556 C553 1.252 . S
O557 In548 2.326 . S
O557 C553 1.260 . S
C558 O549 1.240 . S
C558 O550 1.252 . S
O559 In548 2.294 . S
O559 C552 1.240 . S
O560 In548 2.326 . S
O560 C552 1.252 . S
In561 O562 2.294 . S
In561 O563 2.326 . S
In561 O567 2.266 . S
In561 O568 2.326 . S
In561 O569 2.266 . S
In561 O570 2.326 . S
In561 O572 2.294 . S
In561 O573 2.326 . S
O562 In561 2.294 . S
O562 C571 1.240 . S
O563 In561 2.326 . S
O563 C571 1.252 . S
C564 O567 1.252 . S
C564 O568 1.260 . S
C565 O572 1.240 . S
C565 O573 1.252 . S
C566 O569 1.252 . S
C566 O570 1.260 . S
O567 In561 2.266 . S
O567 C564 1.252 . S
O568 In561 2.326 . S
O568 C564 1.260 . S
O569 In561 2.266 . S
O569 C566 1.252 . S
O570 In561 2.326 . S
O570 C566 1.260 . S
C571 O562 1.240 . S
C571 O563 1.252 . S
O572 In561 2.294 . S
O572 C565 1.240 . S
O573 In561 2.326 . S
O573 C565 1.252 . S
In574 O575 2.294 . S
In574 O576 2.326 . S
In574 O580 2.266 1_554 S
In574 O581 2.326 1_554 S
In574 O582 2.266 1_554 S
In574 O583 2.326 1_554 S
In574 O585 2.294 . S
In574 O586 2.326 . S
O575 In574 2.294 . S
O575 C584 1.240 . S
O576 In574 2.326 . S
O576 C584 1.252 . S
C577 O580 1.252 . S
C577 O581 1.260 . S
C578 O585 1.240 . S
C578 O586 1.252 . S
C579 O582 1.252 . S
C579 O583 1.260 . S
O580 In574 2.266 1_556 S
O580 C577 1.252 . S
O581 In574 2.326 1_556 S
O581 C577 1.260 . S
O582 In574 2.266 1_556 S
O582 C579 1.252 . S
O583 In574 2.326 1_556 S
O583 C579 1.260 . S
C584 O575 1.240 . S
C584 O576 1.252 . S
O585 In574 2.294 . S
O585 C578 1.240 . S
O586 In574 2.326 . S
O586 C578 1.252 . S
In587 O588 2.294 . S
In587 O589 2.326 . S
In587 O593 2.266 . S
In587 O594 2.326 . S
In587 O595 2.266 . S
In587 O596 2.326 . S
In587 O598 2.294 . S
In587 O599 2.326 . S
O588 In587 2.294 . S
O588 C597 1.240 . S
O589 In587 2.326 . S
O589 C597 1.252 . S
C590 O593 1.252 . S
C590 O594 1.260 . S
C591 O598 1.240 . S
C591 O599 1.252 . S
C592 O595 1.252 . S
C592 O596 1.260 . S
O593 In587 2.266 . S
O593 C590 1.252 . S
O594 In587 2.326 . S
O594 C590 1.260 . S
O595 In587 2.266 . S
O595 C592 1.252 . S
O596 In587 2.326 . S
O596 C592 1.260 . S
C597 O588 1.240 . S
C597 O589 1.252 . S
O598 In587 2.294 . S
O598 C591 1.240 . S
O599 In587 2.326 . S
O599 C591 1.252 . S
C512 C35 1.554 . S
C526 C115 1.613 . S
C539 C177 1.625 . S
C221 C506 1.575 . S
C283 C499 1.578 . S
C363 C519 1.639 . S
C527 C407 1.551 . S
C540 C469 1.568 . S
C159 C566 1.554 . S
C584 C239 1.614 . S
C53 C591 1.625 . S
C558 C97 1.575 . S
C425 C551 1.648 . S
C487 C565 1.639 . S
C577 C301 1.619 . S
C345 C592 1.568 . S
C525 C29 2.705 . S
C538 C109 2.591 . S
C171 C501 2.573 . S
C215 C513 2.674 . S
C277 C545 2.668 . S
C500 C357 2.556 . S
C514 C401 2.704 . S
C532 C463 2.687 . S
C579 C153 2.705 . S
C590 C233 2.591 . S
C47 C553 2.574 . S
C571 C91 2.674 . S
C597 C419 2.552 . S
C481 C552 2.556 . S
C564 C295 2.584 . S
C578 C339 2.686 . S
