# Generated by pormake.
# Topology pto, (3,4)-cn, num edge types: 1
# Building blocks:
#     Node 0, Type 0, BuildingBlock: CUQRIR_clean_linker_1, # of connection points: 3
#     Node 1, Type 0, BuildingBlock: CUQRIR_clean_linker_1, # of connection points: 3
#     Node 2, Type 0, BuildingBlock: CUQRIR_clean_linker_1, # of connection points: 3
#     Node 3, Type 0, BuildingBlock: CUQRIR_clean_linker_1, # of connection points: 3
#     Node 4, Type 0, BuildingBlock: CUQRIR_clean_linker_1, # of connection points: 3
#     Node 5, Type 0, BuildingBlock: CUQRIR_clean_linker_1, # of connection points: 3
#     Node 6, Type 0, BuildingBlock: CUQRIR_clean_linker_1, # of connection points: 3
#     Node 7, Type 0, BuildingBlock: CUQRIR_clean_linker_1, # of connection points: 3
#     Node 8, Type 1, BuildingBlock: NAWXER_clean_sbu_0, # of connection points: 4
#     Node 9, Type 1, BuildingBlock: NAWXER_clean_sbu_0, # of connection points: 4
#     Node 10, Type 1, BuildingBlock: NAWXER_clean_sbu_0, # of connection points: 4
#     Node 11, Type 1, BuildingBlock: NAWXER_clean_sbu_0, # of connection points: 4
#     Node 12, Type 1, BuildingBlock: NAWXER_clean_sbu_0, # of connection points: 4
#     Node 13, Type 1, BuildingBlock: NAWXER_clean_sbu_0, # of connection points: 4
#     Edge 14, Type (0, 1), BuildingBlock: EYOCIG_clean_linker_4, # of connection points: 2
#     Edge 15, Type (0, 1), BuildingBlock: EYOCIG_clean_linker_4, # of connection points: 2
#     Edge 16, Type (0, 1), BuildingBlock: EYOCIG_clean_linker_4, # of connection points: 2
#     Edge 17, Type (0, 1), BuildingBlock: EYOCIG_clean_linker_4, # of connection points: 2
#     Edge 18, Type (0, 1), BuildingBlock: EYOCIG_clean_linker_4, # of connection points: 2
#     Edge 19, Type (0, 1), BuildingBlock: EYOCIG_clean_linker_4, # of connection points: 2
#     Edge 20, Type (0, 1), BuildingBlock: EYOCIG_clean_linker_4, # of connection points: 2
#     Edge 21, Type (0, 1), BuildingBlock: EYOCIG_clean_linker_4, # of connection points: 2
#     Edge 22, Type (0, 1), BuildingBlock: EYOCIG_clean_linker_4, # of connection points: 2
#     Edge 23, Type (0, 1), BuildingBlock: EYOCIG_clean_linker_4, # of connection points: 2
#     Edge 24, Type (0, 1), BuildingBlock: EYOCIG_clean_linker_4, # of connection points: 2
#     Edge 25, Type (0, 1), BuildingBlock: EYOCIG_clean_linker_4, # of connection points: 2
#     Edge 26, Type (0, 1), BuildingBlock: EYOCIG_clean_linker_4, # of connection points: 2
#     Edge 27, Type (0, 1), BuildingBlock: EYOCIG_clean_linker_4, # of connection points: 2
#     Edge 28, Type (0, 1), BuildingBlock: EYOCIG_clean_linker_4, # of connection points: 2
#     Edge 29, Type (0, 1), BuildingBlock: EYOCIG_clean_linker_4, # of connection points: 2
#     Edge 30, Type (0, 1), BuildingBlock: EYOCIG_clean_linker_4, # of connection points: 2
#     Edge 31, Type (0, 1), BuildingBlock: EYOCIG_clean_linker_4, # of connection points: 2
#     Edge 32, Type (0, 1), BuildingBlock: EYOCIG_clean_linker_4, # of connection points: 2
#     Edge 33, Type (0, 1), BuildingBlock: EYOCIG_clean_linker_4, # of connection points: 2
#     Edge 34, Type (0, 1), BuildingBlock: EYOCIG_clean_linker_4, # of connection points: 2
#     Edge 35, Type (0, 1), BuildingBlock: EYOCIG_clean_linker_4, # of connection points: 2
#     Edge 36, Type (0, 1), BuildingBlock: EYOCIG_clean_linker_4, # of connection points: 2
#     Edge 37, Type (0, 1), BuildingBlock: EYOCIG_clean_linker_4, # of connection points: 2
# Relax obj value: 0.021
# Max RMSD: 0.154
# Mean RMSD: 0.073
data_MOF--net-pto--node1-NAWXER_clean_sbu_0--node2-CUQRIR_clean_linker_1--edge1-EYOCIG_clean_linker_4
_symmetry_space_group_name_H-M    P1
_symmetry_Int_Tables_number       1
_symmetry_cell_setting            triclinic
loop_
_symmetry_equiv_pos_as_xyz
'x, y, z'
_cell_length_a     30.488669
_cell_length_b     27.843103
_cell_length_c     26.281631
_cell_angle_alpha  78.464506
_cell_angle_beta   95.733078
_cell_angle_gamma 95.823127
loop_
_atom_site_label
_atom_site_type_symbol
_atom_site_fract_x
_atom_site_fract_y
_atom_site_fract_z
_atom_type_partial_charge
C0 C 0.28082 0.31382 0.28447 0.0
N1 N 0.31262 0.2863 0.27641 0.0
N2 N 0.26894 0.34485 0.23982 0.0
C3 C 0.26028 0.30937 0.33499 0.0
C4 C 0.29451 0.33554 0.2045 0.0
N5 N 0.32082 0.29961 0.22672 0.0
C6 C 0.2941 0.36254 0.14887 0.0
H7 H 0.22899 0.28534 0.33393 0.0
H8 H 0.25216 0.34599 0.34011 0.0
H9 H 0.28251 0.29291 0.3686 0.0
H10 H 0.30736 0.40126 0.14834 0.0
H11 H 0.25955 0.36329 0.13103 0.0
H12 H 0.31427 0.34572 0.12536 0.0
C13 C 0.27244 0.74604 0.75778 0.0
N14 N 0.31176 0.76112 0.78043 0.0
N15 N 0.25587 0.70357 0.78619 0.0
C16 C 0.25043 0.77152 0.70706 0.0
C17 C 0.28608 0.69306 0.82709 0.0
N18 N 0.32051 0.72796 0.82338 0.0
C19 C 0.28247 0.64787 0.86917 0.0
H20 H 0.2231 0.79141 0.71559 0.0
H21 H 0.23565 0.7441 0.68351 0.0
H22 H 0.27386 0.79816 0.68395 0.0
H23 H 0.29016 0.61572 0.85363 0.0
H24 H 0.24806 0.64078 0.88088 0.0
H25 H 0.30562 0.65159 0.90379 0.0
C26 C 0.87904 0.79042 0.31559 0.0
N27 N 0.85793 0.76106 0.284 0.0
N28 N 0.85067 0.81922 0.32859 0.0
C29 C 0.9273 0.79073 0.33466 0.0
C30 C 0.81132 0.80637 0.304 0.0
N31 N 0.81562 0.77075 0.27671 0.0
C32 C 0.76936 0.82978 0.30576 0.0
H33 H 0.9306 0.76652 0.37366 0.0
H34 H 0.94098 0.82835 0.33887 0.0
H35 H 0.94694 0.77697 0.30811 0.0
H36 H 0.77276 0.86847 0.28449 0.0
H37 H 0.76419 0.83057 0.34678 0.0
H38 H 0.74018 0.81008 0.28803 0.0
C39 C 0.73069 0.22515 0.74373 0.0
N40 N 0.76699 0.24485 0.71904 0.0
N41 N 0.71645 0.2579 0.76867 0.0
C42 C 0.70881 0.17438 0.74347 0.0
C43 C 0.7448 0.29839 0.7579 0.0
N44 N 0.7754 0.29036 0.72749 0.0
C45 C 0.74418 0.34404 0.78015 0.0
H46 H 0.67941 0.17722 0.71483 0.0
H47 H 0.6971 0.1578 0.78227 0.0
H48 H 0.73139 0.15016 0.73225 0.0
H49 H 0.75432 0.33552 0.82252 0.0
H50 H 0.71002 0.35565 0.7756 0.0
H51 H 0.76687 0.37462 0.76122 0.0
C52 C 0.79522 0.69615 0.82145 0.0
N53 N 0.82193 0.72025 0.78484 0.0
N54 N 0.76746 0.72688 0.83236 0.0
C55 C 0.79665 0.64302 0.84743 0.0
C56 C 0.77859 0.7707 0.8017 0.0
N57 N 0.81217 0.76676 0.77318 0.0
C58 C 0.75632 0.81685 0.79949 0.0
H59 H 0.77005 0.62075 0.8285 0.0
H60 H 0.79057 0.63826 0.88917 0.0
H61 H 0.82898 0.62927 0.8442 0.0
H62 H 0.76736 0.83191 0.83511 0.0
H63 H 0.71994 0.80825 0.79892 0.0
H64 H 0.76434 0.84509 0.76473 0.0
C65 C 0.76924 0.27501 0.25988 0.0
N66 N 0.81048 0.29217 0.27499 0.0
N67 N 0.75324 0.3049 0.21672 0.0
C68 C 0.7457 0.22712 0.28443 0.0
C69 C 0.78545 0.34145 0.20622 0.0
N70 N 0.82051 0.33364 0.24173 0.0
C71 C 0.7832 0.38284 0.15968 0.0
H72 H 0.75292 0.19781 0.26418 0.0
H73 H 0.70937 0.22975 0.28007 0.0
H74 H 0.75687 0.21674 0.32633 0.0
H75 H 0.75594 0.40536 0.16288 0.0
H76 H 0.77517 0.36756 0.12364 0.0
H77 H 0.81455 0.40679 0.1564 0.0
C78 C 0.2469 0.2919 0.77129 0.0
N79 N 0.27546 0.25913 0.76758 0.0
N80 N 0.21629 0.29553 0.7302 0.0
C81 C 0.24966 0.32122 0.81393 0.0
C82 C 0.22723 0.26392 0.70158 0.0
N83 N 0.26382 0.24221 0.72416 0.0
C84 C 0.20214 0.25483 0.65186 0.0
H85 H 0.22866 0.30138 0.84493 0.0
H86 H 0.23725 0.35794 0.79888 0.0
H87 H 0.28414 0.32573 0.83144 0.0
H88 H 0.207 0.28802 0.62099 0.0
H89 H 0.16623 0.24868 0.65744 0.0
H90 H 0.21316 0.22261 0.63921 0.0
C91 C 0.31277 0.77924 0.33201 0.0
N92 N 0.31791 0.75226 0.2957 0.0
N93 N 0.35083 0.80644 0.3421 0.0
C94 C 0.27079 0.77906 0.35759 0.0
C95 C 0.37938 0.79486 0.3113 0.0
N96 N 0.35966 0.76152 0.2834 0.0
C97 C 0.42626 0.81731 0.30814 0.0
H98 H 0.2508 0.80819 0.33434 0.0
H99 H 0.27825 0.78688 0.39749 0.0
H100 H 0.25094 0.74314 0.35946 0.0
H101 H 0.44562 0.80426 0.34554 0.0
H102 H 0.42673 0.85793 0.30287 0.0
H103 H 0.44219 0.80783 0.27575 0.0
C104 C 0.99662 0.49488 0.22119 0.0
C105 C 0.13268 0.62281 0.23219 0.0
O106 O 0.01691 0.50124 0.26432 0.0
Zn107 Zn 0.06361 0.55571 0.25183 0.0
O108 O 1.00825 0.52152 0.17864 0.0
Zn109 Zn 0.05721 0.57855 0.16354 0.0
O110 O 0.09823 0.52812 0.15408 0.0
O111 O 0.10303 0.50761 0.23957 0.0
O112 O 0.11298 0.62074 0.18747 0.0
O113 O 0.11666 0.59699 0.2728 0.0
O114 O 0.01991 0.6036 0.2539 0.0
O115 O 0.01233 0.62722 0.1688 0.0
C116 C 0.11395 0.50204 0.19621 0.0
C117 C 1.0015 0.62933 0.21392 0.0
C118 C 0.94246 0.45553 0.67947 0.0
C119 C 0.07635 0.58055 0.70173 0.0
O120 O 0.96017 0.45918 0.72429 0.0
Zn121 Zn 0.0099 0.5013 0.7512 0.0
O122 O 0.95615 0.48309 0.63857 0.0
Zn123 Zn 1.0067 0.53477 0.64139 0.0
O124 O 0.04897 0.48091 0.6547 0.0
O125 O 0.05159 0.45492 0.74023 0.0
O126 O 0.05974 0.58056 0.65542 0.0
O127 O 0.0599 0.55254 0.74037 0.0
O128 O 0.96989 0.55327 0.75106 0.0
O129 O 0.96704 0.57893 0.66555 0.0
C130 C 0.06359 0.45298 0.69589 0.0
C131 C 0.95585 0.58179 0.71005 0.0
C132 C 0.37925 0.96488 0.62917 0.0
C133 C 0.38014 0.11293 0.46982 0.0
O134 O 0.34468 0.97854 0.6016 0.0
Zn135 Zn 0.3564 0.03517 0.54532 0.0
O136 O 0.41668 0.98802 0.61928 0.0
Zn137 Zn 0.42748 0.04783 0.55916 0.0
O138 O 0.40359 0.09225 0.60417 0.0
O139 O 0.33225 0.0756 0.58616 0.0
O140 O 0.41753 0.10346 0.49425 0.0
O141 O 0.34545 0.08722 0.48447 0.0
O142 O 0.34795 0.98852 0.49838 0.0
O143 O 0.42064 0.99647 0.50967 0.0
C144 C 0.36347 0.09835 0.60952 0.0
C145 C 0.38512 0.97683 0.48956 0.0
C146 C 0.63234 0.71146 0.13405 0.0
C147 C 0.49564 0.70462 0.99752 0.0
O148 O 0.61282 0.66937 0.13046 0.0
Zn149 Zn 0.55689 0.64797 0.08434 0.0
O150 O 0.61628 0.75003 0.10736 0.0
Zn151 Zn 0.56336 0.73031 0.06291 0.0
O152 O 0.51973 0.7312 0.11467 0.0
O153 O 0.51201 0.65074 0.13754 0.0
O154 O 0.51633 0.74474 1.00573 0.0
O155 O 0.50724 0.66382 0.02434 0.0
O156 O 0.59799 0.6409 0.02941 0.0
O157 O 0.60287 0.72163 0.01007 0.0
C158 C 0.50139 0.693 0.14142 0.0
C159 C 0.61366 0.6812 1.00248 0.0
C160 C 0.88301 0.96986 0.61695 0.0
C161 C 0.88509 0.1229 0.46363 0.0
O162 O 0.84877 0.98538 0.59004 0.0
Zn163 Zn 0.86273 0.04329 0.53654 0.0
O164 O 0.92075 0.99299 0.60858 0.0
Zn165 Zn 0.93353 0.05523 0.55105 0.0
O166 O 0.91026 0.09989 0.59656 0.0
O167 O 0.83899 0.08321 0.57837 0.0
O168 O 0.9224 0.11259 0.48784 0.0
O169 O 0.8504 0.09626 0.47682 0.0
O170 O 0.85559 0.99819 0.48793 0.0
O171 O 0.92825 1.00655 0.49856 0.0
C172 C 0.8701 0.10631 0.60148 0.0
C173 C 0.89269 0.98732 0.47803 0.0
C174 C 0.57651 0.23797 0.07424 0.0
C175 C 0.44476 0.22097 0.94016 0.0
O176 O 0.55995 0.19469 0.07203 0.0
Zn177 Zn 0.50842 0.17789 0.0236 0.0
O178 O 0.56104 0.2755 0.04551 0.0
Zn179 Zn 0.51194 0.2861 0.9907 0.0
O180 O 0.47078 0.27837 0.04654 0.0
O181 O 0.4678 0.19727 0.07107 0.0
O182 O 0.46231 0.26318 0.94484 0.0
O183 O 0.45846 0.18194 0.96814 0.0
O184 O 0.55069 0.19112 0.96675 0.0
O185 O 0.55318 0.27225 0.94236 0.0
C186 C 0.45636 0.23883 0.07517 0.0
C187 C 0.56512 0.23092 0.9384 0.0
C188 C 0.20733 0.4059 0.21967 0.0
C189 C 0.23551 0.37738 0.23033 0.0
C190 C 0.17435 0.43924 0.20583 0.0
C191 C 0.14676 0.46852 0.19696 0.0
C192 C 0.18597 0.65328 0.75401 0.0
C193 C 0.21853 0.67446 0.77136 0.0
C194 C 0.14838 0.63102 0.7299 0.0
C195 C 0.11588 0.61006 0.71218 0.0
C196 C 0.90297 0.70416 0.24531 0.0
C197 C 0.87882 0.72895 0.26087 0.0
C198 C 0.93639 0.67887 0.23076 0.0
C199 C 0.96578 0.65709 0.22063 0.0
C200 C 0.84088 0.35248 0.69487 0.0
C201 C 0.81095 0.32312 0.70942 0.0
C202 C 0.87572 0.38847 0.68192 0.0
C203 C 0.90574 0.41995 0.67645 0.0
C204 C 0.35065 0.22018 0.34719 0.0
C205 C 0.33377 0.25045 0.31357 0.0
C206 C 0.36691 0.18445 0.389 0.0
C207 C 0.37626 0.15282 0.426 0.0
C208 C 0.39206 0.7199 0.88714 0.0
C209 C 0.36006 0.72605 0.85617 0.0
C210 C 0.42798 0.71058 0.92546 0.0
C211 C 0.45849 0.70551 0.95875 0.0
C212 C 0.87277 0.88609 0.38592 0.0
C213 C 0.86122 0.8556 0.35927 0.0
C214 C 0.88623 0.92161 0.41746 0.0
C215 C 0.89339 0.95175 0.44525 0.0
C216 C 0.65531 0.24168 0.83392 0.0
C217 C 0.68357 0.24927 0.80381 0.0
C218 C 0.62338 0.2336 0.87048 0.0
C219 C 0.59676 0.22987 0.90213 0.0
C220 C 0.35547 0.84153 0.7368 0.0
C221 C 0.33827 0.80378 0.76046 0.0
C222 C 0.36872 0.88548 0.70252 0.0
C223 C 0.37586 0.9219 0.6698 0.0
C224 C 0.74914 0.7337 0.22079 0.0
C225 C 0.78149 0.74898 0.24575 0.0
C226 C 0.70872 0.72134 0.19186 0.0
C227 C 0.6739 0.7151 0.16608 0.0
C228 C 0.81795 0.19779 0.67515 0.0
C229 C 0.79485 0.22014 0.69524 0.0
C230 C 0.84264 0.16862 0.65222 0.0
C231 C 0.85907 0.14143 0.6305 0.0
C232 C 0.37412 0.26243 0.17644 0.0
C233 C 0.35001 0.27834 0.20141 0.0
C234 C 0.40213 0.24868 0.14339 0.0
C235 C 0.42671 0.24162 0.11311 0.0
C236 C 0.87593 0.67699 0.7413 0.0
C237 C 0.85156 0.69893 0.76 0.0
C238 C 0.90338 0.6467 0.72404 0.0
C239 C 0.92712 0.61812 0.71459 0.0
C240 C 0.89368 0.39069 0.23444 0.0
C241 C 0.8611 0.36247 0.24058 0.0
C242 C 0.92951 0.42678 0.22513 0.0
C243 C 0.95978 0.45837 0.22066 0.0
C244 C 0.15521 0.35688 0.70655 0.0
C245 C 0.18333 0.32844 0.71718 0.0
C246 C 0.12295 0.3909 0.6966 0.0
C247 C 0.09583 0.42007 0.69303 0.0
C248 C 0.25123 0.70027 0.25643 0.0
C249 C 0.28382 0.72336 0.27244 0.0
C250 C 0.2102 0.67456 0.24311 0.0
C251 C 0.17483 0.65154 0.23628 0.0
C252 C 0.85255 0.84122 0.71352 0.0
C253 C 0.8351 0.80553 0.74053 0.0
C254 C 0.8691 0.88568 0.68243 0.0
C255 C 0.87876 0.92417 0.65377 0.0
C256 C 0.68367 0.27982 0.15993 0.0
C257 C 0.71613 0.29348 0.18439 0.0
C258 C 0.64659 0.26012 0.13293 0.0
C259 C 0.61479 0.24589 0.10784 0.0
C260 C 0.31156 0.18724 0.68603 0.0
C261 C 0.28927 0.21262 0.70325 0.0
C262 C 0.33625 0.15797 0.66341 0.0
C263 C 0.35266 0.13199 0.64028 0.0
C264 C 0.40528 0.72302 0.22483 0.0
C265 C 0.38129 0.73858 0.25078 0.0
C266 C 0.43787 0.70847 0.19708 0.0
C267 C 0.46644 0.69872 0.17268 0.0
C268 C 0.85784 0.23859 0.34872 0.0
C269 C 0.83895 0.2663 0.31411 0.0
C270 C 0.87315 0.2005 0.38878 0.0
C271 C 0.88134 0.1659 0.42312 0.0
C272 C 0.34192 0.23315 0.83348 0.0
C273 C 0.31135 0.24487 0.80282 0.0
C274 C 0.37744 0.22255 0.87058 0.0
C275 C 0.40788 0.21832 0.90313 0.0
C276 C 0.36921 0.87125 0.40242 0.0
C277 C 0.3594 0.84106 0.37505 0.0
C278 C 0.38047 0.90801 0.43285 0.0
C279 C 0.38618 0.93956 0.45897 0.0
C280 C 0.70559 0.70418 0.89732 0.0
C281 C 0.73403 0.71524 0.86717 0.0
C282 C 0.67282 0.69127 0.93342 0.0
C283 C 0.6458 0.6829 0.96542 0.0
loop_
_geom_bond_atom_site_label_1
_geom_bond_atom_site_label_2
_geom_bond_distance
_geom_bond_site_symmetry_2
_ccdc_geom_bond_type
C0 N1 1.317 . S
C0 N2 1.348 . S
C0 C3 1.485 . S
N1 C0 1.317 . S
N1 N5 1.370 . S
N2 C0 1.348 . S
N2 C4 1.346 . S
C3 C0 1.485 . S
C3 H7 0.960 . S
C3 H8 0.961 . S
C3 H9 0.960 . S
C4 N2 1.346 . S
C4 N5 1.307 . S
C4 C6 1.486 . S
N5 N1 1.370 . S
N5 C4 1.307 . S
C6 C4 1.486 . S
C6 H10 0.960 . S
C6 H11 0.960 . S
C6 H12 0.959 . S
H7 C3 0.960 . S
H8 C3 0.961 . S
H9 C3 0.960 . S
H10 C6 0.960 . S
H11 C6 0.960 . S
H12 C6 0.959 . S
C13 N14 1.317 . S
C13 N15 1.348 . S
C13 C16 1.485 . S
N14 C13 1.317 . S
N14 N18 1.370 . S
N15 C13 1.348 . S
N15 C17 1.346 . S
C16 C13 1.485 . S
C16 H20 0.960 . S
C16 H21 0.961 . S
C16 H22 0.960 . S
C17 N15 1.346 . S
C17 N18 1.307 . S
C17 C19 1.486 . S
N18 N14 1.370 . S
N18 C17 1.307 . S
C19 C17 1.486 . S
C19 H23 0.960 . S
C19 H24 0.960 . S
C19 H25 0.959 . S
H20 C16 0.960 . S
H21 C16 0.961 . S
H22 C16 0.960 . S
H23 C19 0.960 . S
H24 C19 0.960 . S
H25 C19 0.959 . S
C26 N27 1.317 . S
C26 N28 1.348 . S
C26 C29 1.485 . S
N27 C26 1.317 . S
N27 N31 1.370 . S
N28 C26 1.348 . S
N28 C30 1.346 . S
C29 C26 1.485 . S
C29 H33 0.960 . S
C29 H34 0.961 . S
C29 H35 0.960 . S
C30 N28 1.346 . S
C30 N31 1.307 . S
C30 C32 1.486 . S
N31 N27 1.370 . S
N31 C30 1.307 . S
C32 C30 1.486 . S
C32 H36 0.960 . S
C32 H37 0.960 . S
C32 H38 0.959 . S
H33 C29 0.960 . S
H34 C29 0.961 . S
H35 C29 0.960 . S
H36 C32 0.960 . S
H37 C32 0.960 . S
H38 C32 0.959 . S
C39 N40 1.317 . S
C39 N41 1.348 . S
C39 C42 1.485 . S
N40 C39 1.317 . S
N40 N44 1.370 . S
N41 C39 1.348 . S
N41 C43 1.346 . S
C42 C39 1.485 . S
C42 H46 0.960 . S
C42 H47 0.961 . S
C42 H48 0.960 . S
C43 N41 1.346 . S
C43 N44 1.307 . S
C43 C45 1.486 . S
N44 N40 1.370 . S
N44 C43 1.307 . S
C45 C43 1.486 . S
C45 H49 0.960 . S
C45 H50 0.960 . S
C45 H51 0.959 . S
H46 C42 0.960 . S
H47 C42 0.961 . S
H48 C42 0.960 . S
H49 C45 0.960 . S
H50 C45 0.960 . S
H51 C45 0.959 . S
C52 N53 1.317 . S
C52 N54 1.348 . S
C52 C55 1.485 . S
N53 C52 1.317 . S
N53 N57 1.370 . S
N54 C52 1.348 . S
N54 C56 1.346 . S
C55 C52 1.485 . S
C55 H59 0.960 . S
C55 H60 0.961 . S
C55 H61 0.960 . S
C56 N54 1.346 . S
C56 N57 1.307 . S
C56 C58 1.486 . S
N57 N53 1.370 . S
N57 C56 1.307 . S
C58 C56 1.486 . S
C58 H62 0.960 . S
C58 H63 0.960 . S
C58 H64 0.959 . S
H59 C55 0.960 . S
H60 C55 0.961 . S
H61 C55 0.960 . S
H62 C58 0.960 . S
H63 C58 0.960 . S
H64 C58 0.959 . S
C65 N66 1.317 . S
C65 N67 1.348 . S
C65 C68 1.485 . S
N66 C65 1.317 . S
N66 N70 1.370 . S
N67 C65 1.348 . S
N67 C69 1.346 . S
C68 C65 1.485 . S
C68 H72 0.960 . S
C68 H73 0.961 . S
C68 H74 0.960 . S
C69 N67 1.346 . S
C69 N70 1.307 . S
C69 C71 1.486 . S
N70 N66 1.370 . S
N70 C69 1.307 . S
C71 C69 1.486 . S
C71 H75 0.960 . S
C71 H76 0.960 . S
C71 H77 0.959 . S
H72 C68 0.960 . S
H73 C68 0.961 . S
H74 C68 0.960 . S
H75 C71 0.960 . S
H76 C71 0.960 . S
H77 C71 0.959 . S
C78 N79 1.317 . S
C78 N80 1.348 . S
C78 C81 1.485 . S
N79 C78 1.317 . S
N79 N83 1.370 . S
N80 C78 1.348 . S
N80 C82 1.346 . S
C81 C78 1.485 . S
C81 H85 0.960 . S
C81 H86 0.961 . S
C81 H87 0.960 . S
C82 N80 1.346 . S
C82 N83 1.307 . S
C82 C84 1.486 . S
N83 N79 1.370 . S
N83 C82 1.307 . S
C84 C82 1.486 . S
C84 H88 0.960 . S
C84 H89 0.960 . S
C84 H90 0.959 . S
H85 C81 0.960 . S
H86 C81 0.961 . S
H87 C81 0.960 . S
H88 C84 0.960 . S
H89 C84 0.960 . S
H90 C84 0.959 . S
C91 N92 1.317 . S
C91 N93 1.348 . S
C91 C94 1.485 . S
N92 C91 1.317 . S
N92 N96 1.370 . S
N93 C91 1.348 . S
N93 C95 1.346 . S
C94 C91 1.485 . S
C94 H98 0.960 . S
C94 H99 0.961 . S
C94 H100 0.960 . S
C95 N93 1.346 . S
C95 N96 1.307 . S
C95 C97 1.486 . S
N96 N92 1.370 . S
N96 C95 1.307 . S
C97 C95 1.486 . S
C97 H101 0.960 . S
C97 H102 0.960 . S
C97 H103 0.959 . S
H98 C94 0.960 . S
H99 C94 0.961 . S
H100 C94 0.960 . S
H101 C97 0.960 . S
H102 C97 0.960 . S
H103 C97 0.959 . S
C104 O106 1.247 1_655 S
C104 O108 1.258 . S
C105 O112 1.247 . S
C105 O113 1.258 . S
O106 C104 1.247 1_455 S
O106 Zn107 2.028 . S
Zn107 O106 2.028 . S
Zn107 O111 2.035 . S
Zn107 O113 2.035 . S
Zn107 O114 2.028 . S
O108 C104 1.258 . S
O108 Zn109 2.035 1_655 S
Zn109 O108 2.035 1_455 S
Zn109 O110 2.028 . S
Zn109 O112 2.028 . S
Zn109 O115 2.035 . S
O110 Zn109 2.028 . S
O110 C116 1.247 . S
O111 Zn107 2.035 . S
O111 C116 1.258 . S
O112 C105 1.247 . S
O112 Zn109 2.028 . S
O113 C105 1.258 . S
O113 Zn107 2.035 . S
O114 Zn107 2.028 . S
O114 C117 1.247 1_455 S
O115 Zn109 2.035 . S
O115 C117 1.258 1_455 S
C116 O110 1.247 . S
C116 O111 1.258 . S
C117 O114 1.247 1_655 S
C117 O115 1.258 1_655 S
C118 O120 1.247 . S
C118 O122 1.258 . S
C119 O126 1.247 . S
C119 O127 1.258 . S
O120 C118 1.247 . S
O120 Zn121 2.028 1_655 S
Zn121 O120 2.028 1_455 S
Zn121 O125 2.035 . S
Zn121 O127 2.035 . S
Zn121 O128 2.028 1_455 S
O122 C118 1.258 . S
O122 Zn123 2.035 . S
Zn123 O122 2.035 . S
Zn123 O124 2.028 1_655 S
Zn123 O126 2.028 1_655 S
Zn123 O129 2.035 . S
O124 Zn123 2.028 1_455 S
O124 C130 1.247 . S
O125 Zn121 2.035 . S
O125 C130 1.258 . S
O126 C119 1.247 . S
O126 Zn123 2.028 1_455 S
O127 C119 1.258 . S
O127 Zn121 2.035 . S
O128 Zn121 2.028 1_655 S
O128 C131 1.247 . S
O129 Zn123 2.035 . S
O129 C131 1.258 . S
C130 O124 1.247 . S
C130 O125 1.258 . S
C131 O128 1.247 . S
C131 O129 1.258 . S
C132 O134 1.247 . S
C132 O136 1.258 . S
C133 O140 1.247 . S
C133 O141 1.258 . S
O134 C132 1.247 . S
O134 Zn135 2.028 1_565 S
Zn135 O134 2.028 1_545 S
Zn135 O139 2.035 . S
Zn135 O141 2.035 . S
Zn135 O142 2.028 1_545 S
O136 C132 1.258 . S
O136 Zn137 2.035 1_565 S
Zn137 O136 2.035 1_545 S
Zn137 O138 2.028 . S
Zn137 O140 2.028 . S
Zn137 O143 2.035 1_545 S
O138 Zn137 2.028 . S
O138 C144 1.247 . S
O139 Zn135 2.035 . S
O139 C144 1.258 . S
O140 C133 1.247 . S
O140 Zn137 2.028 . S
O141 C133 1.258 . S
O141 Zn135 2.035 . S
O142 Zn135 2.028 1_565 S
O142 C145 1.247 . S
O143 Zn137 2.035 1_565 S
O143 C145 1.258 . S
C144 O138 1.247 . S
C144 O139 1.258 . S
C145 O142 1.247 . S
C145 O143 1.258 . S
C146 O148 1.247 . S
C146 O150 1.258 . S
C147 O154 1.247 . S
C147 O155 1.258 1_556 S
O148 C146 1.247 . S
O148 Zn149 2.028 . S
Zn149 O148 2.028 . S
Zn149 O153 2.035 . S
Zn149 O155 2.035 . S
Zn149 O156 2.028 . S
O150 C146 1.258 . S
O150 Zn151 2.035 . S
Zn151 O150 2.035 . S
Zn151 O152 2.028 . S
Zn151 O154 2.028 1_554 S
Zn151 O157 2.035 1_554 S
O152 Zn151 2.028 . S
O152 C158 1.247 . S
O153 Zn149 2.035 . S
O153 C158 1.258 . S
O154 C147 1.247 . S
O154 Zn151 2.028 1_556 S
O155 C147 1.258 1_554 S
O155 Zn149 2.035 . S
O156 Zn149 2.028 . S
O156 C159 1.247 1_554 S
O157 Zn151 2.035 1_556 S
O157 C159 1.258 . S
C158 O152 1.247 . S
C158 O153 1.258 . S
C159 O156 1.247 1_556 S
C159 O157 1.258 . S
C160 O162 1.247 . S
C160 O164 1.258 . S
C161 O168 1.247 . S
C161 O169 1.258 . S
O162 C160 1.247 . S
O162 Zn163 2.028 1_565 S
Zn163 O162 2.028 1_545 S
Zn163 O167 2.035 . S
Zn163 O169 2.035 . S
Zn163 O170 2.028 1_545 S
O164 C160 1.258 . S
O164 Zn165 2.035 1_565 S
Zn165 O164 2.035 1_545 S
Zn165 O166 2.028 . S
Zn165 O168 2.028 . S
Zn165 O171 2.035 . S
O166 Zn165 2.028 . S
O166 C172 1.247 . S
O167 Zn163 2.035 . S
O167 C172 1.258 . S
O168 C161 1.247 . S
O168 Zn165 2.028 . S
O169 C161 1.258 . S
O169 Zn163 2.035 . S
O170 Zn163 2.028 1_565 S
O170 C173 1.247 . S
O171 Zn165 2.035 . S
O171 C173 1.258 1_545 S
C172 O166 1.247 . S
C172 O167 1.258 . S
C173 O170 1.247 . S
C173 O171 1.258 1_565 S
C174 O176 1.247 . S
C174 O178 1.258 . S
C175 O182 1.247 . S
C175 O183 1.258 . S
O176 C174 1.247 . S
O176 Zn177 2.028 . S
Zn177 O176 2.028 . S
Zn177 O181 2.035 . S
Zn177 O183 2.035 1_554 S
Zn177 O184 2.028 1_554 S
O178 C174 1.258 . S
O178 Zn179 2.035 1_554 S
Zn179 O178 2.035 1_556 S
Zn179 O180 2.028 1_556 S
Zn179 O182 2.028 . S
Zn179 O185 2.035 . S
O180 Zn179 2.028 1_554 S
O180 C186 1.247 . S
O181 Zn177 2.035 . S
O181 C186 1.258 . S
O182 C175 1.247 . S
O182 Zn179 2.028 . S
O183 C175 1.258 . S
O183 Zn177 2.035 1_556 S
O184 Zn177 2.028 1_556 S
O184 C187 1.247 . S
O185 Zn179 2.035 . S
O185 C187 1.258 . S
C186 O180 1.247 . S
C186 O181 1.258 . S
C187 O184 1.247 . S
C187 O185 1.258 . S
C188 C189 1.170 . S
C188 C190 1.380 . S
C189 C188 1.170 . S
C190 C188 1.380 . S
C190 C191 1.170 . S
C191 C190 1.170 . S
C192 C193 1.170 . S
C192 C194 1.380 . S
C193 C192 1.170 . S
C194 C192 1.380 . S
C194 C195 1.170 . S
C195 C194 1.170 . S
C196 C197 1.170 . S
C196 C198 1.380 . S
C197 C196 1.170 . S
C198 C196 1.380 . S
C198 C199 1.170 . S
C199 C198 1.170 . S
C200 C201 1.170 . S
C200 C202 1.380 . S
C201 C200 1.170 . S
C202 C200 1.380 . S
C202 C203 1.170 . S
C203 C202 1.170 . S
C204 C205 1.170 . S
C204 C206 1.380 . S
C205 C204 1.170 . S
C206 C204 1.380 . S
C206 C207 1.170 . S
C207 C206 1.170 . S
C208 C209 1.170 . S
C208 C210 1.380 . S
C209 C208 1.170 . S
C210 C208 1.380 . S
C210 C211 1.170 . S
C211 C210 1.170 . S
C212 C213 1.170 . S
C212 C214 1.380 . S
C213 C212 1.170 . S
C214 C212 1.380 . S
C214 C215 1.170 . S
C215 C214 1.170 . S
C216 C217 1.170 . S
C216 C218 1.380 . S
C217 C216 1.170 . S
C218 C216 1.380 . S
C218 C219 1.170 . S
C219 C218 1.170 . S
C220 C221 1.170 . S
C220 C222 1.380 . S
C221 C220 1.170 . S
C222 C220 1.380 . S
C222 C223 1.170 . S
C223 C222 1.170 . S
C224 C225 1.170 . S
C224 C226 1.380 . S
C225 C224 1.170 . S
C226 C224 1.380 . S
C226 C227 1.170 . S
C227 C226 1.170 . S
C228 C229 1.170 . S
C228 C230 1.380 . S
C229 C228 1.170 . S
C230 C228 1.380 . S
C230 C231 1.170 . S
C231 C230 1.170 . S
C232 C233 1.170 . S
C232 C234 1.380 . S
C233 C232 1.170 . S
C234 C232 1.380 . S
C234 C235 1.170 . S
C235 C234 1.170 . S
C236 C237 1.170 . S
C236 C238 1.380 . S
C237 C236 1.170 . S
C238 C236 1.380 . S
C238 C239 1.170 . S
C239 C238 1.170 . S
C240 C241 1.170 . S
C240 C242 1.380 . S
C241 C240 1.170 . S
C242 C240 1.380 . S
C242 C243 1.170 . S
C243 C242 1.170 . S
C244 C245 1.170 . S
C244 C246 1.380 . S
C245 C244 1.170 . S
C246 C244 1.380 . S
C246 C247 1.170 . S
C247 C246 1.170 . S
C248 C249 1.170 . S
C248 C250 1.380 . S
C249 C248 1.170 . S
C250 C248 1.380 . S
C250 C251 1.170 . S
C251 C250 1.170 . S
C252 C253 1.170 . S
C252 C254 1.380 . S
C253 C252 1.170 . S
C254 C252 1.380 . S
C254 C255 1.170 . S
C255 C254 1.170 . S
C256 C257 1.170 . S
C256 C258 1.380 . S
C257 C256 1.170 . S
C258 C256 1.380 . S
C258 C259 1.170 . S
C259 C258 1.170 . S
C260 C261 1.170 . S
C260 C262 1.380 . S
C261 C260 1.170 . S
C262 C260 1.380 . S
C262 C263 1.170 . S
C263 C262 1.170 . S
C264 C265 1.170 . S
C264 C266 1.380 . S
C265 C264 1.170 . S
C266 C264 1.380 . S
C266 C267 1.170 . S
C267 C266 1.170 . S
C268 C269 1.170 . S
C268 C270 1.380 . S
C269 C268 1.170 . S
C270 C268 1.380 . S
C270 C271 1.170 . S
C271 C270 1.170 . S
C272 C273 1.170 . S
C272 C274 1.380 . S
C273 C272 1.170 . S
C274 C272 1.380 . S
C274 C275 1.170 . S
C275 C274 1.170 . S
C276 C277 1.170 . S
C276 C278 1.380 . S
C277 C276 1.170 . S
C278 C276 1.380 . S
C278 C279 1.170 . S
C279 C278 1.170 . S
C280 C281 1.170 . S
C280 C282 1.380 . S
C281 C280 1.170 . S
C282 C280 1.380 . S
C282 C283 1.170 . S
C283 C282 1.170 . S
C191 C116 1.449 . S
C189 N2 1.451 . S
C195 C119 1.491 . S
C193 N15 1.472 . S
C199 C117 1.644 . S
C197 N27 1.648 . S
C203 C118 1.496 . S
C201 N44 1.512 . S
C207 C133 1.627 . S
C205 N1 1.679 . S
C211 C147 1.642 . S
C209 N18 1.659 . S
C213 N28 1.666 . S
C215 C173 1.647 . S
C219 C187 1.512 . S
C217 N41 1.507 . S
C223 C132 1.595 . S
C221 N14 1.635 . S
C225 N31 1.750 . S
C227 C146 1.748 . S
C231 C172 1.710 . S
C229 N40 1.729 . S
C235 C186 1.585 . S
C233 N5 1.590 . S
C237 N53 1.652 . S
C239 C131 1.627 . S
C243 C104 1.614 . S
C241 N70 1.629 . S
C245 N80 1.508 . S
C247 C130 1.513 . S
C249 N92 1.735 . S
C251 C105 1.732 . S
C255 C160 1.676 . S
C253 N57 1.722 . S
C259 C174 1.465 . S
C257 N67 1.460 . S
C263 C144 1.669 . S
C261 N83 1.701 . S
C265 N96 1.677 . S
C267 C158 1.671 . S
C271 C161 1.615 . S
C269 N66 1.655 . S
C275 C175 1.443 . S
C273 N79 1.453 . S
C279 C145 1.614 . S
C277 N93 1.658 . S
C281 N54 1.488 . S
C283 C159 1.480 . S
