# Generated by pormake.
# Topology pts, (4,4)-cn, num edge types: 1
# Building blocks:
#     Node 0, Type 0, BuildingBlock: NAWXER_clean_linker_0, # of connection points: 4
#     Node 1, Type 0, BuildingBlock: NAWXER_clean_linker_0, # of connection points: 4
#     Node 2, Type 1, BuildingBlock: UXUYUI_clean_sbu_0, # of connection points: 4
#     Node 3, Type 1, BuildingBlock: UXUYUI_clean_sbu_0, # of connection points: 4
#     Edge 4, Type (0, 1), BuildingBlock: OJICUG_clean_linker_0, # of connection points: 2
#     Edge 5, Type (0, 1), BuildingBlock: OJICUG_clean_linker_0, # of connection points: 2
#     Edge 6, Type (0, 1), BuildingBlock: OJICUG_clean_linker_0, # of connection points: 2
#     Edge 7, Type (0, 1), BuildingBlock: OJICUG_clean_linker_0, # of connection points: 2
#     Edge 8, Type (0, 1), BuildingBlock: OJICUG_clean_linker_0, # of connection points: 2
#     Edge 9, Type (0, 1), BuildingBlock: OJICUG_clean_linker_0, # of connection points: 2
#     Edge 10, Type (0, 1), BuildingBlock: OJICUG_clean_linker_0, # of connection points: 2
#     Edge 11, Type (0, 1), BuildingBlock: OJICUG_clean_linker_0, # of connection points: 2
# Relax obj value: 0.000
# Max RMSD: 0.009
# Mean RMSD: 0.008
data_MOF--net-pts--node1-UXUYUI_clean_sbu_0--node2-NAWXER_clean_linker_0--edge1-OJICUG_clean_linker_0
_symmetry_space_group_name_H-M    P1
_symmetry_Int_Tables_number       1
_symmetry_cell_setting            triclinic
loop_
_symmetry_equiv_pos_as_xyz
'x, y, z'
_cell_length_a     28.822287
_cell_length_b     28.824306
_cell_length_c     40.956419
_cell_angle_alpha  90.012994
_cell_angle_beta   89.994142
_cell_angle_gamma 89.986898
loop_
_atom_site_label
_atom_site_type_symbol
_atom_site_fract_x
_atom_site_fract_y
_atom_site_fract_z
_atom_type_partial_charge
C0 C 0.66035 0.032 0.95745 0.0
C1 C 0.66401 1.00102 0.93097 0.0
C2 C 0.62086 0.03227 0.97726 0.0
C3 C 0.58471 1.0005 0.97178 0.0
C4 C 0.62708 0.9702 0.92502 0.0
C5 C 0.58802 0.96991 0.94522 0.0
C6 C 0.54209 1.00061 0.99213 0.0
C7 C 0.65968 0.97201 0.06157 0.0
C8 C 0.6641 0.00376 0.08753 0.0
C9 C 0.62015 0.97209 0.04179 0.0
C10 C 0.58472 0.00478 0.0469 0.0
C11 C 0.62793 0.03562 0.09307 0.0
C12 C 0.58876 0.03609 0.07299 0.0
C13 C 0.5421 0.005 0.02661 0.0
C14 C 0.34563 0.9684 0.06464 0.0
C15 C 0.33655 0.00563 0.08584 0.0
C16 C 0.38509 0.96873 0.0448 0.0
C17 C 0.41633 0.00605 0.04615 0.0
C18 C 0.36762 0.04314 0.08692 0.0
C19 C 0.40753 0.04305 0.06752 0.0
C20 C 0.45928 0.00553 0.0265 0.0
C21 C 0.34419 0.03564 0.95524 0.0
C22 C 0.33649 0.99951 0.93284 0.0
C23 C 0.38366 0.03555 0.97505 0.0
C24 C 0.41622 0.99945 0.97267 0.0
C25 C 0.369 0.9633 0.93064 0.0
C26 C 0.40878 0.96355 0.95015 0.0
C27 C 0.45924 1.00029 0.9923 0.0
H28 H 0.68807 0.05604 0.96307 0.0
H29 H 0.6186 0.05754 0.99675 0.0
H30 H 0.62788 0.94663 0.90445 0.0
H31 H 0.56025 0.94567 0.94002 0.0
H32 H 0.68684 0.94716 0.05634 0.0
H33 H 0.61729 0.94642 0.02259 0.0
H34 H 0.62945 0.05985 0.11324 0.0
H35 H 0.56153 0.06108 0.07785 0.0
H36 H 0.3221 0.93916 0.06334 0.0
H37 H 0.39164 0.9395 0.02882 0.0
H38 H 0.36152 0.07204 0.10328 0.0
H39 H 0.43145 0.07196 0.06906 0.0
H40 H 0.31959 0.06388 0.95749 0.0
H41 H 0.38917 0.0641 0.99181 0.0
H42 H 0.36412 0.93529 0.91334 0.0
H43 H 0.43373 0.93563 0.94774 0.0
N44 N 0.50056 0.99798 0.97645 0.0
N45 N 0.50061 0.00774 0.04233 0.0
C46 C 0.03202 0.66025 0.56085 0.0
C47 C 1.00099 0.66395 0.5873 0.0
C48 C 0.03227 0.62076 0.54103 0.0
C49 C 1.00045 0.58466 0.54649 0.0
C50 C 0.97011 0.62706 0.59322 0.0
C51 C 0.96982 0.588 0.57302 0.0
C52 C 1.00054 0.54203 0.52614 0.0
C53 C 0.97204 0.65962 0.4567 0.0
C54 C 0.0038 0.66403 0.43075 0.0
C55 C 0.9721 0.6201 0.47648 0.0
C56 C 0.00477 0.58465 0.47137 0.0
C57 C 0.03564 0.62785 0.42522 0.0
C58 C 0.03609 0.58868 0.44529 0.0
C59 C 0.00497 0.54204 0.49166 0.0
C60 C 0.96837 0.34557 0.45362 0.0
C61 C 0.00561 0.33648 0.43244 0.0
C62 C 0.96868 0.38503 0.47346 0.0
C63 C 0.00601 0.41627 0.47212 0.0
C64 C 0.04313 0.36755 0.43137 0.0
C65 C 0.04302 0.40746 0.45077 0.0
C66 C 0.00547 0.45922 0.49177 0.0
C67 C 0.03556 0.34418 0.56306 0.0
C68 C 0.9994 0.33646 0.58542 0.0
C69 C 0.03548 0.38365 0.54325 0.0
C70 C 0.99936 0.41618 0.54559 0.0
C71 C 0.96315 0.36894 0.58759 0.0
C72 C 0.96341 0.40871 0.56807 0.0
C73 C 1.0002 0.45919 0.52597 0.0
H74 H 0.0561 0.68794 0.55525 0.0
H75 H 0.05757 0.61846 0.52156 0.0
H76 H 0.9465 0.6279 0.61377 0.0
H77 H 0.94553 0.56027 0.57819 0.0
H78 H 0.9472 0.6868 0.46193 0.0
H79 H 0.94641 0.61725 0.49567 0.0
H80 H 0.05988 0.62936 0.40505 0.0
H81 H 0.06107 0.56144 0.44043 0.0
H82 H 0.93912 0.32204 0.45491 0.0
H83 H 0.93944 0.39159 0.48943 0.0
H84 H 0.07205 0.36144 0.41503 0.0
H85 H 0.07194 0.43138 0.44924 0.0
H86 H 0.06383 0.31961 0.56084 0.0
H87 H 0.06407 0.38917 0.52652 0.0
H88 H 0.93511 0.36404 0.60486 0.0
H89 H 0.93547 0.43364 0.57046 0.0
N90 N 0.99789 0.50051 0.54182 0.0
N91 N 0.00771 0.50055 0.47594 0.0
Li92 Li 0.00355 0.04465 0.28078 0.0
Li93 Li 1.00098 0.95911 0.28121 0.0
Li94 Li 0.04475 0.00346 0.23752 0.0
Li95 Li 0.9592 1.00086 0.23709 0.0
C96 C 0.08604 0.01633 0.30838 0.0
N97 N 0.14596 0.04978 0.35544 0.0
C98 C 0.0878 0.99547 0.33916 0.0
C99 C 0.11515 0.05379 0.30138 0.0
C100 C 0.11824 0.013 0.36266 0.0
C101 C 0.14508 0.07032 0.32555 0.0
C102 C 0.90977 0.99097 0.3018 0.0
C103 C 0.84013 0.9451 0.30644 0.0
N104 N 0.83103 0.96534 0.33576 0.0
C105 C 0.89953 0.01165 0.33181 0.0
C106 C 0.8797 0.95769 0.28886 0.0
C107 C 0.85963 0.99808 0.34867 0.0
C108 C 0.99398 0.14018 0.29529 0.0
N109 N 0.00315 0.09781 0.30838 0.0
C110 C 0.01234 0.13114 0.36143 0.0
C111 C 0.01137 0.09254 0.34086 0.0
C112 C 0.0034 0.17532 0.34855 0.0
C113 C 0.99366 0.17965 0.31511 0.0
H114 H 0.98679 0.1433 0.26948 0.0
H115 H 0.01691 0.05833 0.35086 0.0
C116 C 0.0264 0.86806 0.29892 0.0
N117 N 1.00119 0.90557 0.30846 0.0
C118 C 0.02764 0.82821 0.31833 0.0
C119 C 0.97706 0.8664 0.35699 0.0
C120 C 0.9773 0.90566 0.33708 0.0
C121 C 0.00244 0.82702 0.34767 0.0
H122 H 0.04553 0.86915 0.27621 0.0
H123 H 0.9588 0.93632 0.34471 0.0
C124 C 0.01638 0.08594 0.20992 0.0
N125 N 0.04977 0.14587 0.16285 0.0
C126 C 0.99548 0.08769 0.17915 0.0
C127 C 0.05383 0.11505 0.21691 0.0
C128 C 0.01299 0.11813 0.15564 0.0
C129 C 0.07033 0.14499 0.19274 0.0
C130 C 0.99112 0.90967 0.21648 0.0
C131 C 0.01181 0.89949 0.18646 0.0
C132 C 0.95788 0.87956 0.22941 0.0
C133 C 0.99829 0.8596 0.16957 0.0
C134 C 0.94533 0.84 0.21179 0.0
N135 N 0.96558 0.83095 0.18248 0.0
C136 C 0.14028 0.99391 0.223 0.0
C137 C 0.09263 0.01131 0.17744 0.0
C138 C 0.17975 0.9936 0.20318 0.0
N139 N 0.0979 0.00308 0.20992 0.0
C140 C 0.13122 0.0123 0.15687 0.0
C141 C 0.17541 0.00336 0.16975 0.0
H142 H 0.14341 0.9867 0.24881 0.0
H143 H 0.05841 0.01686 0.16744 0.0
C144 C 0.86815 0.02628 0.21938 0.0
N145 N 0.90566 1.00106 0.20985 0.0
C146 C 0.82829 0.02752 0.19997 0.0
C147 C 0.86646 0.97692 0.16131 0.0
C148 C 0.90573 0.97715 0.18123 0.0
C149 C 0.82709 0.00232 0.17063 0.0
H150 H 0.86925 0.04541 0.24209 0.0
H151 H 0.93638 0.95863 0.1736 0.0
O152 O 0.05638 0.9997 0.28512 0.0
O153 O 0.94871 0.00389 0.28504 0.0
O154 O 0.99977 0.05627 0.23318 0.0
O155 O 0.00401 0.94861 0.23326 0.0
H156 H 0.06567 0.96625 0.34488 0.0
H157 H 0.11465 0.06986 0.27754 0.0
H158 H 0.1198 0.99738 0.38665 0.0
H159 H 0.16767 0.09942 0.32052 0.0
H160 H 0.81658 0.91934 0.29674 0.0
H161 H 0.92231 0.03769 0.34206 0.0
H162 H 0.88656 0.94206 0.26537 0.0
H163 H 0.8514 0.0136 0.37202 0.0
H164 H 0.01923 0.12645 0.38722 0.0
H165 H 0.98654 0.21324 0.30437 0.0
H166 H 0.04757 0.79845 0.3103 0.0
H167 H 0.95788 0.86709 0.37974 0.0
H168 H 0.96627 0.06554 0.17343 0.0
H169 H 0.06993 0.11456 0.24074 0.0
H170 H 0.99735 0.11969 0.13165 0.0
H171 H 0.09943 0.16759 0.19776 0.0
H172 H 0.03783 0.92231 0.17623 0.0
H173 H 0.94224 0.88637 0.2529 0.0
H174 H 0.01381 0.85141 0.14622 0.0
H175 H 0.9196 0.81641 0.22148 0.0
H176 H 0.21335 0.98648 0.21392 0.0
H177 H 0.12652 0.0192 0.13108 0.0
H178 H 0.79854 0.04746 0.208 0.0
H179 H 0.86714 0.95773 0.13857 0.0
Li180 Li 0.95858 0.00292 0.78098 0.0
Li181 Li 0.04446 1.00051 0.78104 0.0
Li182 Li 1.00047 0.04445 0.7372 0.0
Li183 Li 0.00296 0.95858 0.73725 0.0
C184 C 0.98923 0.09169 0.80397 0.0
N185 N 0.96073 0.16509 0.84241 0.0
C186 C 0.01026 0.09966 0.8342 0.0
C187 C 0.9541 0.12131 0.79311 0.0
C188 C 0.99524 0.13688 0.85334 0.0
C189 C 0.94008 0.15816 0.81295 0.0
C190 C 0.01383 0.91233 0.80457 0.0
C191 C 0.06169 0.84506 0.81397 0.0
N192 N 0.04217 0.83997 0.844 0.0
C193 C 0.99386 0.90619 0.83536 0.0
C194 C 0.04769 0.88133 0.79362 0.0
C195 C 0.00882 0.86949 0.855 0.0
C196 C 0.86586 0.98153 0.79722 0.0
N197 N 0.90511 0.00246 0.80826 0.0
C198 C 0.86782 0.02244 0.85846 0.0
C199 C 0.907 0.02199 0.83846 0.0
C200 C 0.82673 0.00145 0.8476 0.0
C201 C 0.82605 0.9804 0.81669 0.0
H202 H 0.86553 0.96565 0.77329 0.0
H203 H 0.93899 0.0369 0.8472 0.0
C204 C 0.13818 0.01845 0.79718 0.0
N205 N 0.09755 1.00088 0.80866 0.0
C206 C 0.17761 0.019 0.81703 0.0
C207 C 0.13253 0.98377 0.86017 0.0
C208 C 0.09388 0.98448 0.83967 0.0
C209 C 0.17509 1.0011 0.84887 0.0
H210 H 0.13994 0.03209 0.77262 0.0
H211 H 0.06085 0.97234 0.84864 0.0
C212 C 0.91245 0.01368 0.71351 0.0
N213 N 0.84036 0.04184 0.67376 0.0
C214 C 0.90658 0.99364 0.68271 0.0
C215 C 0.88132 0.04753 0.7243 0.0
C216 C 0.87002 0.00851 0.66291 0.0
C217 C 0.84518 0.06143 0.70379 0.0
C218 C 0.09177 0.98943 0.71429 0.0
C219 C 0.09969 0.01052 0.68407 0.0
C220 C 0.12153 0.95444 0.72516 0.0
C221 C 0.13701 0.99567 0.66496 0.0
C222 C 0.15848 0.94059 0.70535 0.0
N223 N 0.16536 0.96128 0.67589 0.0
C224 C 0.0182 0.13822 0.72111 0.0
C225 C 0.98455 0.09384 0.67854 0.0
C226 C 0.01874 0.17766 0.70128 0.0
N227 N 1.0008 0.09755 0.70959 0.0
C228 C 0.98381 0.13249 0.65804 0.0
C229 C 1.00099 0.17509 0.66939 0.0
H230 H 0.03173 0.14001 0.7457 0.0
H231 H 0.97254 0.06078 0.66953 0.0
C232 C 0.98137 0.86594 0.72095 0.0
N233 N 0.00253 0.9051 0.70997 0.0
C234 C 0.98023 0.82611 0.70149 0.0
C235 C 0.02271 0.86769 0.65985 0.0
C236 C 0.02228 0.90689 0.67985 0.0
C237 C 0.0015 0.82669 0.67065 0.0
H238 H 0.96533 0.86569 0.74483 0.0
H239 H 0.03737 0.93881 0.67115 0.0
O240 O 0.0035 0.05535 0.78502 0.0
O241 O 0.99952 0.94804 0.78507 0.0
O242 O 0.94803 0.99946 0.73317 0.0
O243 O 0.05534 0.00354 0.73322 0.0
H244 H 0.03769 0.07715 0.84285 0.0
H245 H 0.93808 0.11611 0.76954 0.0
H246 H 0.01102 0.14335 0.87687 0.0
H247 H 0.91286 0.18133 0.80488 0.0
H248 H 0.08796 0.82085 0.80586 0.0
H249 H 0.96733 0.92974 0.84407 0.0
H250 H 0.06275 0.88502 0.76959 0.0
H251 H 0.9939 0.86447 0.87898 0.0
H252 H 0.86982 0.03829 0.8824 0.0
H253 H 0.79491 0.96385 0.80755 0.0
H254 H 0.20986 0.03268 0.80745 0.0
H255 H 0.12901 0.97051 0.8848 0.0
H256 H 0.93024 0.96713 0.67412 0.0
H257 H 0.8848 0.06263 0.74833 0.0
H258 H 0.8652 0.99354 0.63892 0.0
H259 H 0.82088 0.08769 0.71179 0.0
H260 H 0.07707 0.03785 0.67541 0.0
H261 H 0.11638 0.93839 0.74873 0.0
H262 H 0.14343 0.01149 0.64144 0.0
H263 H 0.18176 0.91348 0.71342 0.0
H264 H 0.03229 0.20993 0.71089 0.0
H265 H 0.97068 0.12894 0.63339 0.0
H266 H 0.96351 0.79505 0.71059 0.0
H267 H 0.03874 0.86962 0.63597 0.0
C268 C 0.28618 0.96653 0.1273 0.0
C269 C 0.29515 0.00499 0.10721 0.0
H270 H 0.24135 0.93623 0.16326 0.0
C271 C 0.26459 0.04293 0.10783 0.0
H272 H 0.30943 0.93699 0.12736 0.0
C273 C 0.22543 0.04222 0.12797 0.0
C274 C 0.21671 0.00396 0.1483 0.0
H275 H 0.27074 0.07289 0.09246 0.0
H276 H 0.20224 0.0718 0.12798 0.0
C277 C 0.24752 0.96621 0.14792 0.0
C278 C 0.95994 0.26746 0.61021 0.0
C279 C 0.99985 0.29502 0.60683 0.0
H280 H 0.92918 0.2077 0.63258 0.0
C281 C 0.04011 0.28297 0.62422 0.0
H282 H 0.92853 0.27587 0.59695 0.0
C283 C 0.04038 0.24427 0.64477 0.0
C284 C 1.00058 0.2165 0.64796 0.0
H285 H 0.07124 0.30385 0.62223 0.0
H286 H 0.07189 0.23569 0.65787 0.0
C287 C 0.96041 0.22837 0.6304 0.0
C288 C 0.72418 0.04506 0.1215 0.0
C289 C 0.70594 0.00339 0.10894 0.0
H290 H 0.77661 0.07731 0.15087 0.0
C291 C 0.72795 0.96137 0.11713 0.0
H292 H 0.7088 0.07817 0.11529 0.0
C293 C 0.7673 0.96108 0.13707 0.0
C294 C 0.7852 0.0027 0.14966 0.0
H295 H 0.71449 0.92851 0.10854 0.0
H296 H 0.78336 0.92818 0.14306 0.0
C297 C 0.76315 0.04467 0.14181 0.0
C298 C 0.04277 0.72929 0.61582 0.0
C299 C 1.00112 0.70575 0.60882 0.0
H300 H 0.07538 0.786 0.64074 0.0
C301 C 0.95961 0.72245 0.62268 0.0
H302 H 0.0756 0.71706 0.60627 0.0
C303 C 0.95982 0.76132 0.64311 0.0
C304 C 0.00137 0.78488 0.64967 0.0
H305 H 0.9267 0.70598 0.61743 0.0
H306 H 0.92733 0.77354 0.65327 0.0
C307 C 0.0428 0.76863 0.63576 0.0
C308 C 0.26754 0.96003 0.90799 0.0
C309 C 0.29504 0.99996 0.91144 0.0
H310 H 0.20783 0.92924 0.88556 0.0
C311 C 0.28291 0.04027 0.89412 0.0
H312 H 0.27601 0.92859 0.92119 0.0
C313 C 0.2442 0.04053 0.87356 0.0
C314 C 0.2165 1.0007 0.87031 0.0
H315 H 0.30374 0.07141 0.89616 0.0
H316 H 0.23557 0.07207 0.86052 0.0
C317 C 0.22845 0.9605 0.8878 0.0
C318 C 0.96654 0.28609 0.39097 0.0
C319 C 0.00499 0.29508 0.41108 0.0
H320 H 0.93626 0.24126 0.355 0.0
C321 C 0.04293 0.26452 0.41047 0.0
H322 H 0.937 0.30934 0.39089 0.0
C323 C 0.04223 0.22535 0.39033 0.0
C324 C 0.00398 0.21663 0.36999 0.0
H325 H 0.07288 0.27067 0.42585 0.0
H326 H 0.07182 0.20216 0.39034 0.0
C327 C 0.96624 0.24744 0.37036 0.0
C328 C 0.72243 0.95963 0.89552 0.0
C329 C 0.70581 1.00113 0.90945 0.0
H330 H 0.77343 0.92735 0.86487 0.0
C331 C 0.72944 0.04275 0.90252 0.0
H332 H 0.7059 0.92674 0.90072 0.0
C333 C 0.76878 0.04276 0.88257 0.0
C334 C 0.78493 0.00134 0.8686 0.0
H335 H 0.71729 0.07557 0.91211 0.0
H336 H 0.78622 0.07531 0.87765 0.0
C337 C 0.76128 0.95983 0.87508 0.0
C338 C 0.04513 0.72409 0.39679 0.0
C339 C 0.00345 0.70587 0.40935 0.0
H340 H 0.07742 0.7765 0.36743 0.0
C341 C 0.96144 0.72791 0.40115 0.0
H342 H 0.07824 0.7087 0.40301 0.0
C343 C 0.96118 0.76725 0.38122 0.0
C344 C 0.00281 0.78513 0.36864 0.0
H345 H 0.92857 0.71445 0.40974 0.0
H346 H 0.92828 0.78333 0.37523 0.0
C347 C 0.04476 0.76306 0.37649 0.0
loop_
_geom_bond_atom_site_label_1
_geom_bond_atom_site_label_2
_geom_bond_distance
_geom_bond_site_symmetry_2
_ccdc_geom_bond_type
C0 C1 1.384 1_545 S
C0 C2 1.384 . S
C0 H28 0.931 . S
C1 C0 1.384 1_565 S
C1 C4 1.382 . S
C2 C0 1.384 . S
C2 C3 1.381 1_545 S
C2 H29 0.930 . S
C3 C2 1.381 1_565 S
C3 C5 1.381 . S
C3 C6 1.487 . S
C4 C1 1.382 . S
C4 C5 1.387 . S
C4 H30 0.930 . S
C5 C3 1.381 . S
C5 C4 1.387 . S
C5 H31 0.931 . S
C6 C3 1.487 . S
C6 C13 1.399 1_566 S
C6 N44 1.343 . S
C7 C8 1.384 1_565 S
C7 C9 1.384 . S
C7 H32 0.931 . S
C8 C7 1.384 1_545 S
C8 C11 1.382 . S
C9 C7 1.384 . S
C9 C10 1.381 1_565 S
C9 H33 0.930 . S
C10 C9 1.381 1_545 S
C10 C12 1.381 . S
C10 C13 1.487 . S
C11 C8 1.382 . S
C11 C12 1.387 . S
C11 H34 0.930 . S
C12 C10 1.381 . S
C12 C11 1.387 . S
C12 H35 0.931 . S
C13 C6 1.399 1_544 S
C13 C10 1.487 . S
C13 N45 1.343 . S
C14 C15 1.384 1_565 S
C14 C16 1.384 . S
C14 H36 0.931 . S
C15 C14 1.384 1_545 S
C15 C18 1.382 . S
C16 C14 1.384 . S
C16 C17 1.381 1_565 S
C16 H37 0.930 . S
C17 C16 1.381 1_545 S
C17 C19 1.381 . S
C17 C20 1.487 . S
C18 C15 1.382 . S
C18 C19 1.387 . S
C18 H38 0.930 . S
C19 C17 1.381 . S
C19 C18 1.387 . S
C19 H39 0.931 . S
C20 C17 1.487 . S
C20 C27 1.399 1_544 S
C20 N45 1.343 . S
C21 C22 1.384 1_545 S
C21 C23 1.384 . S
C21 H40 0.931 . S
C22 C21 1.384 1_565 S
C22 C25 1.382 . S
C23 C21 1.384 . S
C23 C24 1.381 1_545 S
C23 H41 0.930 . S
C24 C23 1.381 1_565 S
C24 C26 1.381 . S
C24 C27 1.487 . S
C25 C22 1.382 . S
C25 C26 1.387 . S
C25 H42 0.930 . S
C26 C24 1.381 . S
C26 C25 1.387 . S
C26 H43 0.931 . S
C27 C20 1.399 1_566 S
C27 C24 1.487 . S
C27 N44 1.343 . S
H28 C0 0.931 . S
H29 C2 0.930 . S
H30 C4 0.930 . S
H31 C5 0.931 . S
H32 C7 0.931 . S
H33 C9 0.930 . S
H34 C11 0.930 . S
H35 C12 0.931 . S
H36 C14 0.931 . S
H37 C16 0.930 . S
H38 C18 0.930 . S
H39 C19 0.931 . S
H40 C21 0.931 . S
H41 C23 0.930 . S
H42 C25 0.930 . S
H43 C26 0.931 . S
N44 C6 1.343 . S
N44 C27 1.343 . S
N45 C13 1.343 . S
N45 C20 1.343 . S
C46 C47 1.384 1_455 S
C46 C48 1.384 . S
C46 H74 0.931 . S
C47 C46 1.384 1_655 S
C47 C50 1.382 . S
C48 C46 1.384 . S
C48 C49 1.381 1_455 S
C48 H75 0.930 . S
C49 C48 1.381 1_655 S
C49 C51 1.381 . S
C49 C52 1.487 . S
C50 C47 1.382 . S
C50 C51 1.387 . S
C50 H76 0.930 . S
C51 C49 1.381 . S
C51 C50 1.387 . S
C51 H77 0.931 . S
C52 C49 1.487 . S
C52 C59 1.399 1_655 S
C52 N90 1.343 . S
C53 C54 1.384 1_655 S
C53 C55 1.384 . S
C53 H78 0.931 . S
C54 C53 1.384 1_455 S
C54 C57 1.382 . S
C55 C53 1.384 . S
C55 C56 1.381 1_655 S
C55 H79 0.930 . S
C56 C55 1.381 1_455 S
C56 C58 1.381 . S
C56 C59 1.487 . S
C57 C54 1.382 . S
C57 C58 1.387 . S
C57 H80 0.930 . S
C58 C56 1.381 . S
C58 C57 1.387 . S
C58 H81 0.931 . S
C59 C52 1.399 1_455 S
C59 C56 1.487 . S
C59 N91 1.343 . S
C60 C61 1.384 1_655 S
C60 C62 1.384 . S
C60 H82 0.931 . S
C61 C60 1.384 1_455 S
C61 C64 1.382 . S
C62 C60 1.384 . S
C62 C63 1.381 1_655 S
C62 H83 0.930 . S
C63 C62 1.381 1_455 S
C63 C65 1.381 . S
C63 C66 1.487 . S
C64 C61 1.382 . S
C64 C65 1.387 . S
C64 H84 0.930 . S
C65 C63 1.381 . S
C65 C64 1.387 . S
C65 H85 0.931 . S
C66 C63 1.487 . S
C66 C73 1.399 1_455 S
C66 N91 1.343 . S
C67 C68 1.384 1_455 S
C67 C69 1.384 . S
C67 H86 0.931 . S
C68 C67 1.384 1_655 S
C68 C71 1.382 . S
C69 C67 1.384 . S
C69 C70 1.381 1_455 S
C69 H87 0.930 . S
C70 C69 1.381 1_655 S
C70 C72 1.381 . S
C70 C73 1.487 . S
C71 C68 1.382 . S
C71 C72 1.387 . S
C71 H88 0.930 . S
C72 C70 1.381 . S
C72 C71 1.387 . S
C72 H89 0.931 . S
C73 C66 1.399 1_655 S
C73 C70 1.487 . S
C73 N90 1.343 . S
H74 C46 0.931 . S
H75 C48 0.930 . S
H76 C50 0.930 . S
H77 C51 0.931 . S
H78 C53 0.931 . S
H79 C55 0.930 . S
H80 C57 0.930 . S
H81 C58 0.931 . S
H82 C60 0.931 . S
H83 C62 0.930 . S
H84 C64 0.930 . S
H85 C65 0.931 . S
H86 C67 0.931 . S
H87 C69 0.930 . S
H88 C71 0.930 . S
H89 C72 0.931 . S
N90 C52 1.343 . S
N90 C73 1.343 . S
N91 C59 1.343 . S
N91 C66 1.343 . S
Li92 N109 1.990 . S
Li92 O152 1.956 1_545 S
Li92 O153 1.970 1_455 S
Li92 O154 1.961 1_455 S
Li93 N117 1.990 . S
Li93 O152 1.970 1_655 S
Li93 O153 1.956 1_565 S
Li93 O155 1.961 1_655 S
Li94 N139 1.990 . S
Li94 O152 1.961 1_545 S
Li94 O154 1.956 1_455 S
Li94 O155 1.970 1_545 S
Li95 N145 1.990 . S
Li95 O153 1.961 1_565 S
Li95 O154 1.970 1_565 S
Li95 O155 1.956 1_655 S
C96 C98 1.348 1_545 S
C96 C99 1.356 . S
C96 O152 1.325 1_545 S
N97 C100 1.314 1_545 S
N97 C101 1.279 . S
C98 C96 1.348 1_565 S
C98 C100 1.353 . S
C98 H156 0.929 . S
C99 C96 1.356 . S
C99 C101 1.358 . S
C99 H157 0.930 . S
C100 N97 1.314 1_565 S
C100 C98 1.353 . S
C100 H158 0.930 . S
C101 N97 1.279 . S
C101 C99 1.358 . S
C101 H159 0.930 . S
C102 C105 1.348 . S
C102 C106 1.356 1_545 S
C102 O153 1.325 . S
C103 N104 1.279 . S
C103 C106 1.358 . S
C103 H160 0.930 . S
N104 C103 1.279 . S
N104 C107 1.314 1_565 S
C105 C102 1.348 . S
C105 C107 1.353 . S
C105 H161 0.929 . S
C106 C102 1.356 1_565 S
C106 C103 1.358 . S
C106 H162 0.930 . S
C107 N104 1.314 1_545 S
C107 C105 1.353 . S
C107 H163 0.930 . S
C108 N109 1.314 1_655 S
C108 C113 1.353 . S
C108 H114 0.930 . S
N109 Li92 1.990 . S
N109 C108 1.314 1_455 S
N109 C111 1.279 . S
C110 C111 1.358 . S
C110 C112 1.356 . S
C110 H164 0.930 . S
C111 N109 1.279 . S
C111 C110 1.358 . S
C111 H115 0.930 . S
C112 C110 1.356 . S
C112 C113 1.348 1_455 S
C113 C108 1.353 . S
C113 C112 1.348 1_655 S
C113 H165 0.929 . S
H114 C108 0.930 . S
H115 C111 0.930 . S
C116 N117 1.314 1_455 S
C116 C118 1.353 . S
C116 H122 0.930 . S
N117 Li93 1.990 . S
N117 C116 1.314 1_655 S
N117 C120 1.279 . S
C118 C116 1.353 . S
C118 C121 1.348 . S
C118 H166 0.929 . S
C119 C120 1.358 . S
C119 C121 1.356 1_655 S
C119 H167 0.930 . S
C120 N117 1.279 . S
C120 C119 1.358 . S
C120 H123 0.930 . S
C121 C118 1.348 . S
C121 C119 1.356 1_455 S
H122 C116 0.930 . S
H123 C120 0.930 . S
C124 C126 1.348 1_455 S
C124 C127 1.356 . S
C124 O154 1.325 1_455 S
N125 C128 1.314 1_455 S
N125 C129 1.279 . S
C126 C124 1.348 1_655 S
C126 C128 1.353 . S
C126 H168 0.929 . S
C127 C124 1.356 . S
C127 C129 1.358 . S
C127 H169 0.930 . S
C128 N125 1.314 1_655 S
C128 C126 1.353 . S
C128 H170 0.930 . S
C129 N125 1.279 . S
C129 C127 1.358 . S
C129 H171 0.930 . S
C130 C131 1.348 . S
C130 C132 1.356 1_455 S
C130 O155 1.325 . S
C131 C130 1.348 . S
C131 C133 1.353 . S
C131 H172 0.929 . S
C132 C130 1.356 1_655 S
C132 C134 1.358 . S
C132 H173 0.930 . S
C133 C131 1.353 . S
C133 N135 1.314 1_455 S
C133 H174 0.930 . S
C134 C132 1.358 . S
C134 N135 1.279 . S
C134 H175 0.930 . S
N135 C133 1.314 1_655 S
N135 C134 1.279 . S
C136 C138 1.353 . S
C136 N139 1.314 1_565 S
C136 H142 0.930 . S
C137 N139 1.279 . S
C137 C140 1.358 . S
C137 H143 0.930 . S
C138 C136 1.353 . S
C138 C141 1.348 1_565 S
C138 H176 0.929 . S
N139 Li94 1.990 . S
N139 C136 1.314 1_545 S
N139 C137 1.279 . S
C140 C137 1.358 . S
C140 C141 1.356 . S
C140 H177 0.930 . S
C141 C138 1.348 1_545 S
C141 C140 1.356 . S
H142 C136 0.930 . S
H143 C137 0.930 . S
C144 N145 1.314 1_545 S
C144 C146 1.353 . S
C144 H150 0.930 . S
N145 Li95 1.990 . S
N145 C144 1.314 1_565 S
N145 C148 1.279 . S
C146 C144 1.353 . S
C146 C149 1.348 . S
C146 H178 0.929 . S
C147 C148 1.358 . S
C147 C149 1.356 1_565 S
C147 H179 0.930 . S
C148 N145 1.279 . S
C148 C147 1.358 . S
C148 H151 0.930 . S
C149 C146 1.348 . S
C149 C147 1.356 1_545 S
H150 C144 0.930 . S
H151 C148 0.930 . S
O152 Li92 1.956 1_565 S
O152 Li93 1.970 1_455 S
O152 Li94 1.961 1_565 S
O152 C96 1.325 1_565 S
O153 Li92 1.970 1_655 S
O153 Li93 1.956 1_545 S
O153 Li95 1.961 1_545 S
O153 C102 1.325 . S
O154 Li92 1.961 1_655 S
O154 Li94 1.956 1_655 S
O154 Li95 1.970 1_545 S
O154 C124 1.325 1_655 S
O155 Li93 1.961 1_455 S
O155 Li94 1.970 1_565 S
O155 Li95 1.956 1_455 S
O155 C130 1.325 . S
H156 C98 0.929 . S
H157 C99 0.930 . S
H158 C100 0.930 . S
H159 C101 0.930 . S
H160 C103 0.930 . S
H161 C105 0.929 . S
H162 C106 0.930 . S
H163 C107 0.930 . S
H164 C110 0.930 . S
H165 C113 0.929 . S
H166 C118 0.929 . S
H167 C119 0.930 . S
H168 C126 0.929 . S
H169 C127 0.930 . S
H170 C128 0.930 . S
H171 C129 0.930 . S
H172 C131 0.929 . S
H173 C132 0.930 . S
H174 C133 0.930 . S
H175 C134 0.930 . S
H176 C138 0.929 . S
H177 C140 0.930 . S
H178 C146 0.929 . S
H179 C147 0.930 . S
Li180 N197 1.990 . S
Li180 O240 1.956 1_655 S
Li180 O241 1.970 1_545 S
Li180 O242 1.961 1_545 S
Li181 N205 1.990 . S
Li181 O240 1.970 1_565 S
Li181 O241 1.956 1_455 S
Li181 O243 1.961 1_565 S
Li182 N227 1.990 . S
Li182 O240 1.961 1_655 S
Li182 O242 1.956 1_545 S
Li182 O243 1.970 1_655 S
Li183 N233 1.990 . S
Li183 O241 1.961 1_455 S
Li183 O242 1.970 1_455 S
Li183 O243 1.956 1_565 S
C184 C186 1.348 . S
C184 C187 1.356 1_455 S
C184 O240 1.325 . S
N185 C188 1.314 1_655 S
N185 C189 1.279 . S
C186 C184 1.348 . S
C186 C188 1.353 . S
C186 H244 0.929 . S
C187 C184 1.356 1_655 S
C187 C189 1.358 . S
C187 H245 0.930 . S
C188 N185 1.314 1_455 S
C188 C186 1.353 . S
C188 H246 0.930 . S
C189 N185 1.279 . S
C189 C187 1.358 . S
C189 H247 0.930 . S
C190 C193 1.348 1_455 S
C190 C194 1.356 . S
C190 O241 1.325 1_455 S
C191 N192 1.279 . S
C191 C194 1.358 . S
C191 H248 0.930 . S
N192 C191 1.279 . S
N192 C195 1.314 1_455 S
C193 C190 1.348 1_655 S
C193 C195 1.353 . S
C193 H249 0.929 . S
C194 C190 1.356 . S
C194 C191 1.358 . S
C194 H250 0.930 . S
C195 N192 1.314 1_655 S
C195 C193 1.353 . S
C195 H251 0.930 . S
C196 N197 1.314 1_565 S
C196 C201 1.353 . S
C196 H202 0.930 . S
N197 Li180 1.990 . S
N197 C196 1.314 1_545 S
N197 C199 1.279 . S
C198 C199 1.358 . S
C198 C200 1.356 . S
C198 H252 0.930 . S
C199 N197 1.279 . S
C199 C198 1.358 . S
C199 H203 0.930 . S
C200 C198 1.356 . S
C200 C201 1.348 1_545 S
C201 C196 1.353 . S
C201 C200 1.348 1_565 S
C201 H253 0.929 . S
H202 C196 0.930 . S
H203 C199 0.930 . S
C204 N205 1.314 1_545 S
C204 C206 1.353 . S
C204 H210 0.930 . S
N205 Li181 1.990 . S
N205 C204 1.314 1_565 S
N205 C208 1.279 . S
C206 C204 1.353 . S
C206 C209 1.348 . S
C206 H254 0.929 . S
C207 C208 1.358 . S
C207 C209 1.356 1_565 S
C207 H255 0.930 . S
C208 N205 1.279 . S
C208 C207 1.358 . S
C208 H211 0.930 . S
C209 C206 1.348 . S
C209 C207 1.356 1_545 S
H210 C204 0.930 . S
H211 C208 0.930 . S
C212 C214 1.348 1_545 S
C212 C215 1.356 . S
C212 O242 1.325 1_545 S
N213 C216 1.314 1_545 S
N213 C217 1.279 . S
C214 C212 1.348 1_565 S
C214 C216 1.353 . S
C214 H256 0.929 . S
C215 C212 1.356 . S
C215 C217 1.358 . S
C215 H257 0.930 . S
C216 N213 1.314 1_565 S
C216 C214 1.353 . S
C216 H258 0.930 . S
C217 N213 1.279 . S
C217 C215 1.358 . S
C217 H259 0.930 . S
C218 C219 1.348 . S
C218 C220 1.356 1_545 S
C218 O243 1.325 . S
C219 C218 1.348 . S
C219 C221 1.353 . S
C219 H260 0.929 . S
C220 C218 1.356 1_565 S
C220 C222 1.358 . S
C220 H261 0.930 . S
C221 C219 1.353 . S
C221 N223 1.314 1_545 S
C221 H262 0.930 . S
C222 C220 1.358 . S
C222 N223 1.279 . S
C222 H263 0.930 . S
N223 C221 1.314 1_565 S
N223 C222 1.279 . S
C224 C226 1.353 . S
C224 N227 1.314 1_455 S
C224 H230 0.930 . S
C225 N227 1.279 . S
C225 C228 1.358 . S
C225 H231 0.930 . S
C226 C224 1.353 . S
C226 C229 1.348 . S
C226 H264 0.929 . S
N227 Li182 1.990 . S
N227 C224 1.314 1_655 S
N227 C225 1.279 . S
C228 C225 1.358 . S
C228 C229 1.356 1_655 S
C228 H265 0.930 . S
C229 C226 1.348 . S
C229 C228 1.356 1_455 S
H230 C224 0.930 . S
H231 C225 0.930 . S
C232 N233 1.314 1_655 S
C232 C234 1.353 . S
C232 H238 0.930 . S
N233 Li183 1.990 . S
N233 C232 1.314 1_455 S
N233 C236 1.279 . S
C234 C232 1.353 . S
C234 C237 1.348 1_655 S
C234 H266 0.929 . S
C235 C236 1.358 . S
C235 C237 1.356 . S
C235 H267 0.930 . S
C236 N233 1.279 . S
C236 C235 1.358 . S
C236 H239 0.930 . S
C237 C234 1.348 1_455 S
C237 C235 1.356 . S
H238 C232 0.930 . S
H239 C236 0.930 . S
O240 Li180 1.956 1_455 S
O240 Li181 1.970 1_545 S
O240 Li182 1.961 1_455 S
O240 C184 1.325 . S
O241 Li180 1.970 1_565 S
O241 Li181 1.956 1_655 S
O241 Li183 1.961 1_655 S
O241 C190 1.325 1_655 S
O242 Li180 1.961 1_565 S
O242 Li182 1.956 1_565 S
O242 Li183 1.970 1_655 S
O242 C212 1.325 1_565 S
O243 Li181 1.961 1_545 S
O243 Li182 1.970 1_455 S
O243 Li183 1.956 1_545 S
O243 C218 1.325 . S
H244 C186 0.929 . S
H245 C187 0.930 . S
H246 C188 0.930 . S
H247 C189 0.930 . S
H248 C191 0.930 . S
H249 C193 0.929 . S
H250 C194 0.930 . S
H251 C195 0.930 . S
H252 C198 0.930 . S
H253 C201 0.929 . S
H254 C206 0.929 . S
H255 C207 0.930 . S
H256 C214 0.929 . S
H257 C215 0.930 . S
H258 C216 0.930 . S
H259 C217 0.930 . S
H260 C219 0.929 . S
H261 C220 0.930 . S
H262 C221 0.930 . S
H263 C222 0.930 . S
H264 C226 0.929 . S
H265 C228 0.930 . S
H266 C234 0.929 . S
H267 C235 0.930 . S
C268 C269 1.387 . S
C268 H272 0.950 . S
C268 C277 1.390 . S
C269 C268 1.387 . S
C269 C271 1.388 1_565 S
H270 C277 0.950 . S
C271 C269 1.388 1_545 S
C271 C273 1.390 . S
C271 H275 0.950 . S
H272 C268 0.950 . S
C273 C271 1.390 . S
C273 C274 1.370 1_545 S
C273 H276 0.950 . S
C274 C273 1.370 1_565 S
C274 C277 1.404 . S
H275 C271 0.950 . S
H276 C273 0.950 . S
C277 C268 1.390 . S
C277 H270 0.950 . S
C277 C274 1.404 . S
C278 C279 1.383 1_655 S
C278 H282 0.950 . S
C278 C287 1.390 . S
C279 C278 1.383 1_455 S
C279 C281 1.392 . S
H280 C287 0.950 . S
C281 C279 1.392 . S
C281 C283 1.390 . S
C281 H285 0.950 . S
H282 C278 0.950 . S
C283 C281 1.390 . S
C283 C284 1.409 . S
C283 H286 0.950 . S
C284 C283 1.409 . S
C284 C287 1.366 1_455 S
H285 C281 0.950 . S
H286 C283 0.950 . S
C287 C278 1.390 . S
C287 H280 0.950 . S
C287 C284 1.366 1_655 S
C288 C289 1.392 . S
C288 H292 0.950 . S
C288 C297 1.390 . S
C289 C288 1.392 . S
C289 C291 1.383 1_545 S
H290 C297 0.950 . S
C291 C289 1.383 1_565 S
C291 C293 1.390 . S
C291 H295 0.950 . S
H292 C288 0.950 . S
C293 C291 1.390 . S
C293 C294 1.365 1_565 S
C293 H296 0.950 . S
C294 C293 1.365 1_545 S
C294 C297 1.409 . S
H295 C291 0.950 . S
H296 C293 0.950 . S
C297 C288 1.390 . S
C297 H290 0.950 . S
C297 C294 1.409 . S
C298 C299 1.386 1_455 S
C298 H302 0.950 . S
C298 C307 1.390 . S
C299 C298 1.386 1_655 S
C299 C301 1.389 . S
H300 C307 0.950 . S
C301 C299 1.389 . S
C301 C303 1.390 . S
C301 H305 0.950 . S
H302 C298 0.950 . S
C303 C301 1.390 . S
C303 C304 1.402 . S
C303 H306 0.950 . S
C304 C303 1.402 . S
C304 C307 1.373 1_655 S
H305 C301 0.950 . S
H306 C303 0.950 . S
C307 C298 1.390 . S
C307 H300 0.950 . S
C307 C304 1.373 1_455 S
C308 C309 1.383 1_565 S
C308 H312 0.950 . S
C308 C317 1.390 . S
C309 C308 1.383 1_545 S
C309 C311 1.392 . S
H310 C317 0.950 . S
C311 C309 1.392 . S
C311 C313 1.390 . S
C311 H315 0.950 . S
H312 C308 0.950 . S
C313 C311 1.390 . S
C313 C314 1.409 . S
C313 H316 0.950 . S
C314 C313 1.409 . S
C314 C317 1.366 1_545 S
H315 C311 0.950 . S
H316 C313 0.950 . S
C317 C308 1.390 . S
C317 H310 0.950 . S
C317 C314 1.366 1_565 S
C318 C319 1.388 . S
C318 H322 0.950 . S
C318 C327 1.390 . S
C319 C318 1.388 . S
C319 C321 1.387 1_655 S
H320 C327 0.950 . S
C321 C319 1.387 1_455 S
C321 C323 1.390 . S
C321 H325 0.950 . S
H322 C318 0.950 . S
C323 C321 1.390 . S
C323 C324 1.371 1_455 S
C323 H326 0.950 . S
C324 C323 1.371 1_655 S
C324 C327 1.404 . S
H325 C321 0.950 . S
H326 C323 0.950 . S
C327 C318 1.390 . S
C327 H320 0.950 . S
C327 C324 1.404 . S
C328 C329 1.387 . S
C328 H332 0.950 . S
C328 C337 1.390 . S
C329 C328 1.387 . S
C329 C331 1.388 1_565 S
H330 C337 0.950 . S
C331 C329 1.388 1_545 S
C331 C333 1.390 . S
C331 H335 0.950 . S
H332 C328 0.950 . S
C333 C331 1.390 . S
C333 C334 1.371 1_545 S
C333 H336 0.950 . S
C334 C333 1.371 1_565 S
C334 C337 1.404 . S
H335 C331 0.950 . S
H336 C333 0.950 . S
C337 C328 1.390 . S
C337 H330 0.950 . S
C337 C334 1.404 . S
C338 C339 1.392 . S
C338 H342 0.950 . S
C338 C347 1.390 . S
C339 C338 1.392 . S
C339 C341 1.383 1_455 S
H340 C347 0.950 . S
C341 C339 1.383 1_655 S
C341 C343 1.390 . S
C341 H345 0.950 . S
H342 C338 0.950 . S
C343 C341 1.390 . S
C343 C344 1.387 1_655 S
C343 H346 0.950 . S
C344 C343 1.387 1_455 S
C344 C347 1.387 . S
H345 C341 0.950 . S
H346 C343 0.950 . S
C347 C338 1.390 . S
C347 H340 0.950 . S
C347 C344 1.387 . S
C274 C141 1.493 1_565 S
C269 C15 1.489 1_565 S
C284 C229 1.493 . S
C279 C68 1.491 1_455 S
C294 C149 1.493 . S
C289 C8 1.491 . S
C304 C237 1.493 1_655 S
C299 C47 1.494 . S
C314 C209 1.493 . S
C309 C22 1.494 1_545 S
C324 C112 1.493 1_655 S
C319 C61 1.491 1_655 S
C334 C200 1.493 1_565 S
C329 C1 1.496 . S
C339 C54 1.492 . S
C344 C121 1.495 . S
