# Generated by pormake.
# Topology pyr, (3,6)-cn, num edge types: 1
# Building blocks:
#     Node 0, Type 0, BuildingBlock: VETTIZ_charged_linker_0, # of connection points: 3
#     Node 1, Type 0, BuildingBlock: VETTIZ_charged_linker_0, # of connection points: 3
#     Node 2, Type 0, BuildingBlock: VETTIZ_charged_linker_0, # of connection points: 3
#     Node 3, Type 0, BuildingBlock: VETTIZ_charged_linker_0, # of connection points: 3
#     Node 4, Type 0, BuildingBlock: VETTIZ_charged_linker_0, # of connection points: 3
#     Node 5, Type 0, BuildingBlock: VETTIZ_charged_linker_0, # of connection points: 3
#     Node 6, Type 0, BuildingBlock: VETTIZ_charged_linker_0, # of connection points: 3
#     Node 7, Type 0, BuildingBlock: VETTIZ_charged_linker_0, # of connection points: 3
#     Node 8, Type 1, BuildingBlock: FUNLAD_clean_sbu_0, # of connection points: 6
#     Node 9, Type 1, BuildingBlock: FUNLAD_clean_sbu_0, # of connection points: 6
#     Node 10, Type 1, BuildingBlock: FUNLAD_clean_sbu_0, # of connection points: 6
#     Node 11, Type 1, BuildingBlock: FUNLAD_clean_sbu_0, # of connection points: 6
#     Edge 12, Type (0, 1), None
#     Edge 13, Type (0, 1), None
#     Edge 14, Type (0, 1), None
#     Edge 15, Type (0, 1), None
#     Edge 16, Type (0, 1), None
#     Edge 17, Type (0, 1), None
#     Edge 18, Type (0, 1), None
#     Edge 19, Type (0, 1), None
#     Edge 20, Type (0, 1), None
#     Edge 21, Type (0, 1), None
#     Edge 22, Type (0, 1), None
#     Edge 23, Type (0, 1), None
#     Edge 24, Type (0, 1), None
#     Edge 25, Type (0, 1), None
#     Edge 26, Type (0, 1), None
#     Edge 27, Type (0, 1), None
#     Edge 28, Type (0, 1), None
#     Edge 29, Type (0, 1), None
#     Edge 30, Type (0, 1), None
#     Edge 31, Type (0, 1), None
#     Edge 32, Type (0, 1), None
#     Edge 33, Type (0, 1), None
#     Edge 34, Type (0, 1), None
#     Edge 35, Type (0, 1), None
# Relax obj value: 0.163
# Max RMSD: 0.091
# Mean RMSD: 0.047
data_MOF--net-pry--node1-FUNLAD_clean_sbu_0--node2-VETTIZ_charged_linker_0--edge1-none
_symmetry_space_group_name_H-M    P1
_symmetry_Int_Tables_number       1
_symmetry_cell_setting            triclinic
loop_
_symmetry_equiv_pos_as_xyz
'x, y, z'
_cell_length_a     23.66232
_cell_length_b     25.340316
_cell_length_c     25.290402
_cell_angle_alpha  89.717012
_cell_angle_beta   89.931755
_cell_angle_gamma 83.093082
loop_
_atom_site_label
_atom_site_type_symbol
_atom_site_fract_x
_atom_site_fract_y
_atom_site_fract_z
_atom_type_partial_charge
C0 C 0.09989 0.07586 0.35674 0.0
C1 C 0.06043 0.10012 0.39359 0.0
C2 C 0.03494 0.15256 0.38136 0.0
C3 C 0.08709 0.15438 0.29743 0.0
C4 C 0.11319 0.10371 0.31025 0.0
C5 C 0.15892 0.08489 0.27114 0.0
H6 H 0.31666 0.12537 0.05519 0.0
C7 C 0.11139 0.17197 0.24549 0.0
C8 C 0.15405 0.13033 0.23114 0.0
H9 H 0.34307 0.99588 0.16762 0.0
H10 H 0.25666 1.03003 0.21355 0.0
H11 H 0.28335 0.21694 0.13636 0.0
H12 H 0.18682 0.12117 1.0414 0.0
H13 H 0.14017 0.17963 0.05086 0.0
H14 H 0.20694 0.18248 1.01661 0.0
H15 H 0.27792 0.22056 0.06559 0.0
H16 H 0.22795 0.25979 0.10725 0.0
C17 C 0.21695 0.07914 0.30057 0.0
C18 C 0.14381 1.03279 0.24602 0.0
C19 C 0.04639 0.35092 0.14367 0.0
C20 C 0.06096 0.36939 0.0922 0.0
C21 C 0.09858 0.33498 0.06151 0.0
C22 C 0.12299 0.28559 0.08099 0.0
C23 C 0.10989 0.26834 0.13212 0.0
C24 C 0.0705 0.29947 0.16238 0.0
C25 C 0.05949 0.2703 0.21431 0.0
C26 C 0.09998 0.21777 0.21019 0.0
C27 C 0.13022 0.21874 0.16198 0.0
C28 C 0.07528 0.30404 0.26126 0.0
C29 C 0.9967 0.26009 0.21572 0.0
C30 C 0.30375 0.10404 0.08951 0.0
C31 C 0.33737 0.0581 0.10795 0.0
C32 C 0.31826 1.03143 0.15246 0.0
C33 C 0.26825 0.05175 0.17948 0.0
C34 C 0.2368 0.0995 0.16212 0.0
C35 C 0.25426 0.12391 0.11705 0.0
C36 C 0.21596 0.17373 0.10352 0.0
C37 C 0.17448 0.17744 0.14983 0.0
C38 C 0.18644 0.13371 0.18394 0.0
C39 C 0.25282 0.22043 0.10273 0.0
C40 C 0.18606 0.16422 0.05029 0.0
H41 H 0.02664 0.21883 0.32724 0.0
H42 H 0.12185 0.03667 0.36486 0.0
H43 H 0.09764 0.03616 0.23639 0.0
H44 H 0.16617 1.02336 0.20828 0.0
H45 H 0.15352 0.99861 0.27355 0.0
H46 H 0.21587 0.10598 0.33535 0.0
H47 H 0.22868 0.03788 0.3152 0.0
H48 H 0.25195 0.0909 0.27583 0.0
H49 H 0.01689 0.37572 0.16844 0.0
H50 H 0.11093 0.34705 1.02242 0.0
H51 H 0.15246 0.26309 0.05529 0.0
H52 H 0.11924 0.31469 0.25639 0.0
H53 H 0.04567 0.34146 0.26396 0.0
H54 H 0.074 0.28244 0.29918 0.0
H55 H 0.98571 0.23925 0.17923 0.0
H56 H 0.98753 0.23493 0.24965 0.0
H57 H 0.96821 0.2982 0.21827 0.0
H58 H 1.00474 0.17305 0.40875 0.0
C59 C 0.04744 0.17929 0.33379 0.0
C60 C 0.20849 0.95016 0.59777 0.0
C61 C 0.17256 0.99476 0.61519 0.0
C62 C 0.18918 1.02209 0.66017 0.0
C63 C 0.27402 0.95789 0.67109 0.0
C64 C 0.25846 0.93278 0.62587 0.0
C65 C 0.3004 0.88604 0.61151 0.0
H66 H 0.50651 0.6918 0.67618 0.0
C67 C 0.32681 0.9266 0.69258 0.0
C68 C 0.3417 0.88422 0.65775 0.0
H69 H 0.41623 0.72101 0.5282 0.0
H70 H 0.37139 0.80343 0.56094 0.0
H71 H 0.53327 0.82873 0.68486 0.0
H72 H 0.40454 0.74649 0.76228 0.0
H73 H 0.44536 0.78163 0.80598 0.0
H74 H 0.47913 0.72456 0.77138 0.0
H75 H 0.55316 0.77135 0.72599 0.0
H76 H 0.53123 0.83515 0.75479 0.0
C77 C 0.32896 0.89948 0.55848 0.0
C78 C 0.2679 0.83637 0.60976 0.0
C79 C 0.41635 0.98555 0.86366 0.0
C80 C 0.45855 0.96196 0.89875 0.0
C81 C 0.48494 0.9103 0.88599 0.0
C82 C 0.4712 0.88384 0.83911 0.0
C83 C 0.42947 0.90829 0.80418 0.0
C84 C 0.40182 0.9579 0.81782 0.0
C85 C 0.35372 0.97548 0.78018 0.0
C86 C 0.35956 0.93089 0.73957 0.0
C87 C 0.40458 0.89093 0.75295 0.0
C88 C 0.36435 1.02916 0.7551 0.0
C89 C 0.29703 0.97768 0.81132 0.0
C90 C 0.47721 0.71652 0.65098 0.0
C91 C 0.46435 0.69886 0.59923 0.0
C92 C 0.42717 0.7329 0.56763 0.0
C93 C 0.40078 0.78124 0.58703 0.0
C94 C 0.41162 0.79743 0.63881 0.0
C95 C 0.45142 0.767 0.6694 0.0
C96 C 0.46109 0.79565 0.72131 0.0
C97 C 0.41834 0.84654 0.71727 0.0
C98 C 0.38852 0.84532 0.66911 0.0
C99 C 0.52311 0.80841 0.72216 0.0
C100 C 0.44701 0.76021 0.76802 0.0
H101 H 0.24946 1.02612 0.72228 0.0
H102 H 0.19776 0.92873 0.56294 0.0
H103 H 0.23809 0.8363 0.64382 0.0
H104 H 0.29573 0.79839 0.6127 0.0
H105 H 0.24248 0.83591 0.5729 0.0
H106 H 0.32348 0.9429 0.54978 0.0
H107 H 0.31069 0.87962 0.52455 0.0
H108 H 0.37576 0.88845 0.55922 0.0
H109 H 0.39357 1.02412 0.87266 0.0
H110 H 0.51687 0.89038 0.91226 0.0
H111 H 0.4928 0.84478 0.83209 0.0
H112 H 0.40953 1.02792 0.74245 0.0
H113 H 0.3553 0.06213 0.78382 0.0
H114 H 0.33857 0.03895 0.71927 0.0
H115 H 0.29988 0.94704 0.84319 0.0
H116 H 0.26108 0.96869 0.78649 0.0
H117 H 0.28597 1.01707 0.8302 0.0
H118 H 0.16252 0.05681 0.67453 0.0
C119 C 0.2395 1.0039 0.68817 0.0
C120 C 0.58231 0.31411 0.05765 0.0
C121 C 0.52543 0.30381 0.05055 0.0
C122 C 0.48083 0.34579 0.05693 0.0
C123 C 0.54989 0.40726 0.05608 0.0
C124 C 0.59348 0.36698 0.06163 0.0
C125 C 0.65018 0.38865 0.0634 0.0
H126 H 0.8146 0.55039 0.95316 0.0
C127 C 0.57319 0.45401 1.03709 0.0
C128 C 0.63172 0.44689 0.04748 0.0
H129 H 0.8506 0.46125 0.0977 0.0
H130 H 0.75 0.44913 0.10548 0.0
H131 H 0.69675 0.61171 1.01111 0.0
H132 H 0.74733 0.51475 0.88919 0.0
H133 H 0.67784 0.49427 0.88902 0.0
H134 H 0.68926 0.56173 0.87273 0.0
H135 H 0.72426 0.6209 0.94572 0.0
H136 H 0.64894 0.62478 0.95772 0.0
C137 C 0.67358 0.38205 0.12045 0.0
C138 C 0.69148 0.35957 1.02276 0.0
C139 C 0.4933 0.50752 0.85881 0.0
C140 C 0.51477 0.53722 0.81875 0.0
C141 C 0.55338 0.57352 0.83072 0.0
C142 C 0.57516 0.57552 0.88201 0.0
C143 C 0.56057 0.53867 0.91951 0.0
C144 C 0.51739 0.5082 0.909 0.0
C145 C 0.50885 0.47007 0.9526 0.0
C146 C 0.55293 0.48487 0.9927 0.0
C147 C 0.5872 0.52056 0.96972 0.0
C148 C 0.44632 0.47973 0.97164 0.0
C149 C 0.52449 0.41295 0.93079 0.0
C150 C 0.80158 0.52511 0.98446 0.0
C151 C 0.84072 0.50368 1.02283 0.0
C152 C 0.8216 0.47543 0.06621 0.0
C153 C 0.76454 0.46663 0.07008 0.0
C154 C 0.72717 0.48475 1.02956 0.0
C155 C 0.7444 0.51613 0.98942 0.0
C156 C 0.69431 0.54294 0.95865 0.0
C157 C 0.64501 0.51914 0.98563 0.0
C158 C 0.66602 0.48353 1.02562 0.0
C159 C 0.69077 0.60342 0.96844 0.0
C160 C 0.70212 0.52767 0.89943 0.0
H161 H 0.45951 0.43045 0.06402 0.0
H162 H 0.61697 0.28209 0.05707 0.0
H163 H 0.67281 0.36302 0.98238 0.0
H164 H 0.73261 0.37631 1.02189 0.0
H165 H 0.70111 0.31678 1.03301 0.0
H166 H 0.65827 0.34746 0.14087 0.0
H167 H 0.72063 0.37356 0.12101 0.0
H168 H 0.66012 0.41792 0.14459 0.0
H169 H 0.4629 0.48012 0.84975 0.0
H170 H 0.56898 0.59783 0.79988 0.0
H171 H 0.60444 0.60349 0.89017 0.0
H172 H 0.41749 0.50139 0.94199 0.0
H173 H 0.42852 0.44187 0.97931 0.0
H174 H 0.44299 0.50368 1.008 0.0
H175 H 0.56941 0.40712 0.91686 0.0
H176 H 0.51932 0.38185 0.96033 0.0
H177 H 0.49654 0.40497 0.89726 0.0
H178 H 0.43662 0.33899 0.05448 0.0
C179 C 0.4933 0.3981 0.06082 0.0
C180 C 0.99529 0.72393 0.50676 0.0
C181 C 0.97559 0.76393 0.54223 0.0
C182 C 0.94021 0.75198 0.58465 0.0
C183 C 0.9361 0.66429 0.54903 0.0
C184 C 0.97552 0.67446 0.51121 0.0
C185 C 0.98971 0.62909 0.4744 0.0
H186 H 0.89271 0.5008 0.31883 0.0
C187 C 0.91907 0.61122 0.53905 0.0
C188 C 0.95606 0.58758 0.49984 0.0
H189 H 0.07075 0.52276 0.33417 0.0
H190 H 0.06088 0.51889 0.43095 0.0
H191 H 0.881 0.41788 0.39727 0.0
H192 H 0.82932 0.57531 0.40313 0.0
H193 H 0.78288 0.53181 0.43177 0.0
H194 H 0.81067 0.51837 0.36739 0.0
H195 H 0.81942 0.43382 0.4358 0.0
H196 H 0.88812 0.41929 0.46788 0.0
C197 C 0.05495 0.61349 0.47343 0.0
C198 C 0.96583 0.64684 0.4192 0.0
C199 C 0.71268 0.57897 0.57263 0.0
C200 C 0.68355 0.53614 0.55739 0.0
C201 C 0.71432 0.4892 0.53804 0.0
C202 C 0.77286 0.48681 0.52909 0.0
C203 C 0.79918 0.53251 0.53695 0.0
C204 C 0.77152 0.57573 0.56276 0.0
C205 C 0.81268 0.61453 0.57771 0.0
C206 C 0.86741 0.58954 0.5504 0.0
C207 C 0.8568 0.54271 0.52476 0.0
C208 C 0.81849 0.61346 0.63849 0.0
C209 C 0.79024 0.66997 0.55554 0.0
C210 C 0.92992 0.50483 0.34252 0.0
C211 C 0.98115 0.51689 0.31922 0.0
C212 C 0.02967 0.51815 0.35135 0.0
C213 C 0.02408 0.51743 0.40634 0.0
C214 C 0.96958 0.51772 0.42755 0.0
C215 C 0.92562 0.50409 0.39752 0.0
C216 C 0.87371 0.49886 0.43082 0.0
C217 C 0.89254 0.52128 0.48343 0.0
C218 C 0.94621 0.53849 0.4773 0.0
C219 C 0.86511 0.43936 0.43362 0.0
C220 C 0.82125 0.53312 0.40699 0.0
H221 H 0.89408 0.6944 0.62116 0.0
H222 H 0.02286 0.73187 0.47418 0.0
H223 H 0.98538 0.68181 0.4044 0.0
H224 H 0.91891 0.6578 0.42093 0.0
H225 H 0.97469 0.61561 0.3891 0.0
H226 H 0.07918 0.6434 0.4921 0.0
H227 H 0.07152 0.60838 0.43245 0.0
H228 H 0.06604 0.57619 0.4954 0.0
H229 H 0.6899 0.61418 0.5902 0.0
H230 H 0.69274 0.45508 0.52852 0.0
H231 H 0.7966 0.45004 0.51707 0.0
H232 H 0.82281 0.57188 0.65367 0.0
H233 H 0.78039 0.63566 0.65729 0.0
H234 H 0.85671 0.63013 0.65226 0.0
H235 H 0.78988 0.66941 0.51158 0.0
H236 H 0.81572 0.70111 0.56841 0.0
H237 H 0.7462 0.68267 0.56944 0.0
H238 H 0.92594 0.78201 0.61365 0.0
C239 C 0.92109 0.70181 0.58863 0.0
C240 C 0.93118 0.73655 0.99819 0.0
C241 C 0.96955 0.69561 0.9766 0.0
C242 C 0.99198 0.70504 0.92556 0.0
C243 C 0.93733 0.79353 0.91915 0.0
C244 C 0.91523 0.78392 0.96883 0.0
C245 C 0.87017 0.82754 0.98488 0.0
H246 H 0.68284 0.04139 0.92774 0.0
C247 C 0.90919 0.84678 0.89874 0.0
C248 C 0.86915 0.86552 0.93791 0.0
H249 H 0.69552 0.94182 0.06768 0.0
H250 H 0.78269 0.89541 1.0366 0.0
H251 H 0.72729 0.95262 0.83909 0.0
H252 H 0.81252 0.05997 0.93149 0.0
H253 H 0.85858 0.04377 0.87783 0.0
H254 H 0.78796 0.07764 0.86618 0.0
H255 H 0.71655 1.02401 0.83512 0.0
H256 H 0.77215 0.98646 0.79814 0.0
C257 C 0.81333 0.80291 0.99087 0.0
C258 C 0.89078 0.85318 1.03586 0.0
C259 C 0.96139 0.93859 0.72192 0.0
C260 C 0.94305 0.98996 0.69993 0.0
C261 C 0.90122 1.02285 0.72795 0.0
C262 C 0.87734 1.0058 0.77506 0.0
C263 C 0.89566 0.95522 0.79645 0.0
C264 C 0.93794 0.92248 0.77089 0.0
C265 C 0.9535 0.87111 0.80283 0.0
C266 C 0.91457 0.87938 0.85184 0.0
C267 C 0.87964 0.92864 0.84622 0.0
C268 C 0.93923 0.82381 0.76942 0.0
C269 C 0.01686 0.86663 0.81805 0.0
C270 C 0.705 1.01001 0.95177 0.0
C271 C 0.68085 0.99439 0.99966 0.0
C272 C 0.7119 0.95401 1.0301 0.0
C273 C 0.76288 0.9267 1.01183 0.0
C274 C 0.78421 0.93942 0.96223 0.0
C275 C 0.75704 0.982 0.93405 0.0
C276 C 0.78964 0.9918 0.88415 0.0
C277 C 0.83721 0.94497 0.88499 0.0
C278 C 0.83313 0.91427 0.93075 0.0
C279 C 0.74946 0.98884 0.83634 0.0
C280 C 0.81324 0.0461 0.88979 0.0
H281 H 0.9951 0.75752 0.85885 0.0
H282 H 0.91163 0.73094 1.03623 0.0
H283 H 0.93778 0.8534 1.03539 0.0
H284 H 0.8734 0.89547 1.03997 0.0
H285 H 0.87997 0.83097 0.07172 0.0
H286 H 0.81245 0.76757 0.96505 0.0
H287 H 0.8069 0.78981 1.03219 0.0
H288 H 0.7757 0.83008 0.97825 0.0
H289 H 0.99394 0.91217 0.70207 0.0
H290 H 0.88589 0.06201 0.71273 0.0
H291 H 0.84495 1.03295 0.79307 0.0
H292 H 0.89486 0.8313 0.75429 0.0
H293 H 0.96836 0.81758 0.73491 0.0
H294 H 0.94228 0.78657 0.79258 0.0
H295 H 0.02643 0.90358 0.83793 0.0
H296 H 0.02894 0.83333 0.84566 0.0
H297 H 0.04427 0.8606 0.78236 0.0
H298 H 0.02138 0.67455 0.90708 0.0
C299 C 0.97667 0.75338 0.89725 0.0
C300 C 0.8063 0.12861 0.49493 0.0
C301 C 0.84275 0.08388 0.47886 0.0
C302 C 0.82628 0.05427 0.4354 0.0
C303 C 0.7402 0.11634 0.42325 0.0
C304 C 0.75575 0.1438 0.46695 0.0
C305 C 0.71306 0.19036 0.47993 0.0
H306 H 0.50455 0.37947 0.4094 0.0
C307 C 0.68661 0.14558 0.40136 0.0
C308 C 0.67127 0.1893 0.43435 0.0
H309 H 0.59623 0.35668 0.55738 0.0
H310 H 0.64097 0.27327 0.52775 0.0
H311 H 0.47904 0.24092 0.40763 0.0
H312 H 0.60574 0.32013 0.32346 0.0
H313 H 0.56328 0.28324 0.28283 0.0
H314 H 0.53097 0.34205 0.31555 0.0
H315 H 0.45783 0.29658 0.36464 0.0
H316 H 0.47997 0.2319 0.33793 0.0
C317 C 0.68562 0.1785 0.534 0.0
C318 C 0.74443 0.24078 0.47895 0.0
C319 C 0.59746 0.07616 0.23503 0.0
C320 C 0.55459 0.09712 0.1994 0.0
C321 C 0.52682 0.14884 0.21013 0.0
C322 C 0.54009 0.17798 0.25545 0.0
C323 C 0.58268 0.15623 0.29086 0.0
C324 C 0.61141 0.10644 0.2793 0.0
C325 C 0.66013 0.09179 0.31696 0.0
C326 C 0.65354 0.13835 0.35527 0.0
C327 C 0.60758 0.17683 0.34069 0.0
C328 C 0.65103 0.03906 0.34493 0.0
C329 C 0.71643 0.08922 0.28508 0.0
C330 C 0.53428 0.35597 0.43519 0.0
C331 C 0.54757 0.37584 0.48601 0.0
C332 C 0.58505 0.34321 0.51857 0.0
C333 C 0.61141 0.29422 0.50101 0.0
C334 C 0.60036 0.27587 0.45013 0.0
C335 C 0.56014 0.3047 0.4187 0.0
C336 C 0.55008 0.27329 0.36846 0.0
C337 C 0.59342 0.2229 0.3743 0.0
C338 C 0.62367 0.22684 0.42187 0.0
C339 C 0.4883 0.25992 0.36937 0.0
C340 C 0.56301 0.30643 0.31969 0.0
H341 H 0.76557 0.04635 0.37463 0.0
H342 H 0.81697 0.15171 0.52863 0.0
H343 H 0.77383 0.23989 0.44449 0.0
H344 H 0.7159 0.2782 0.47468 0.0
H345 H 0.77015 0.24334 0.51536 0.0
H346 H 0.69261 0.13554 0.54469 0.0
H347 H 0.70349 0.20051 0.56665 0.0
H348 H 0.63863 0.18817 0.53344 0.0
H349 H 0.62137 0.03775 0.22748 0.0
H350 H 0.49436 0.16687 0.18328 0.0
H351 H 0.51762 0.21697 0.26084 0.0
H352 H 0.60604 0.03997 0.35808 0.0
H353 H 0.66068 1.00477 0.31784 0.0
H354 H 0.67718 1.03162 0.3809 0.0
H355 H 0.71212 0.11714 0.25082 0.0
H356 H 0.75188 0.10172 0.30845 0.0
H357 H 0.72916 0.04867 0.26937 0.0
H358 H 0.85338 1.01933 0.42216 0.0
C359 C 0.77541 0.07026 0.40754 0.0
C360 C 0.52332 0.56198 0.22473 0.0
C361 C 0.49944 0.53482 0.26538 0.0
C362 C 0.46057 0.49865 0.25385 0.0
C363 C 0.45824 0.52864 0.16331 0.0
C364 C 0.50151 0.55894 0.17383 0.0
C365 C 0.51264 0.59459 0.12881 0.0
H366 H 0.41009 0.77702 1.00913 0.0
C367 C 0.43389 0.5448 0.11164 0.0
C368 C 0.46967 0.57879 0.08811 0.0
H369 H 0.58914 0.72051 1.03035 0.0
H370 H 0.56735 0.62925 1.0192 0.0
H371 H 0.34874 0.70562 0.08278 0.0
H372 H 0.37931 0.69959 0.92352 0.0
H373 H 0.36896 0.63091 0.9295 0.0
H374 H 0.31201 0.68337 0.94313 0.0
H375 H 0.32405 0.74547 1.02611 0.0
H376 H 0.29174 0.68773 1.04236 0.0
C377 C 0.49745 0.6528 0.14775 0.0
C378 C 0.57584 0.58258 0.11221 0.0
C379 C 0.2202 0.54097 0.09217 0.0
C380 C 0.18189 0.56188 0.05297 0.0
C381 C 0.2021 0.58889 1.00923 0.0
C382 C 0.25947 0.59685 1.00572 0.0
C383 C 0.29621 0.57895 0.04684 0.0
C384 C 0.27765 0.54908 0.08762 0.0
C385 C 0.32646 0.52358 0.12065 0.0
C386 C 0.37666 0.54622 0.09417 0.0
C387 C 0.35747 0.57997 0.05207 0.0
C388 C 0.31647 0.54132 0.17907 0.0
C389 C 0.33053 0.46271 0.11307 0.0
C390 C 0.44478 0.74522 1.01229 0.0
C391 C 0.5002 0.75598 1.02618 0.0
C392 C 0.54545 0.71408 1.02331 0.0
C393 C 0.53345 0.66161 1.0189 0.0
C394 C 0.47667 0.6524 1.02006 0.0
C395 C 0.43385 0.6922 1.00918 0.0
C396 C 0.37701 0.67067 1.00636 0.0
C397 C 0.39352 0.61448 1.02895 0.0
C398 C 0.45155 0.6076 1.04177 0.0
C399 C 0.33293 0.7042 1.04147 0.0
C400 C 0.35827 0.67073 0.94767 0.0
H401 H 0.41154 0.46639 0.19426 0.0
H402 H 0.55397 0.58922 0.2335 0.0
H403 H 0.60292 0.56209 0.14381 0.0
H404 H 0.58019 0.55651 0.07726 0.0
H405 H 0.59501 0.61952 0.10348 0.0
H406 H 0.45258 0.65959 0.16176 0.0
H407 H 0.52562 0.66227 0.18056 0.0
H408 H 0.50238 0.68233 0.11664 0.0
H409 H 0.20629 0.51692 0.12409 0.0
H410 H 0.17362 0.60306 0.97737 0.0
H411 H 0.27442 0.61447 0.97061 0.0
H412 H 0.27157 0.5577 0.18693 0.0
H413 H 0.32521 0.50767 0.20717 0.0
H414 H 0.34285 0.57306 0.18986 0.0
H415 H 0.32487 0.45277 0.07073 0.0
H416 H 0.37256 0.44209 0.12443 0.0
H417 H 0.29708 0.4458 0.13635 0.0
H418 H 0.44321 0.47617 0.28523 0.0
C419 C 0.4411 0.49422 0.20203 0.0
C420 C 0.01585 0.35757 0.57834 0.0
C421 C 0.03641 0.31619 0.54476 0.0
C422 C 0.07169 0.32666 0.50177 0.0
C423 C 0.07446 0.41598 0.53355 0.0
C424 C 0.03505 0.40706 0.5718 0.0
C425 C 0.02108 0.4535 0.6073 0.0
H426 H 0.12067 0.58136 0.75809 0.0
C427 C 0.09155 0.46929 0.5418 0.0
C428 C 0.05466 0.49426 0.58042 0.0
H429 H 0.94243 0.55916 0.74545 0.0
H430 H 0.95044 0.56472 0.64853 0.0
H431 H 0.13057 0.66628 0.67767 0.0
H432 H 0.18231 0.50885 0.67638 0.0
H433 H 0.22872 0.55115 0.64586 0.0
H434 H 0.20151 0.56701 0.70973 0.0
H435 H 0.19193 0.64937 0.63908 0.0
H436 H 0.12305 0.66291 0.60718 0.0
C437 C 0.95585 0.4691 0.60827 0.0
C438 C 0.04531 0.43714 0.66275 0.0
C439 C 0.29921 0.49743 0.51055 0.0
C440 C 0.32867 0.54026 0.52502 0.0
C441 C 0.29814 0.58851 0.54144 0.0
C442 C 0.23923 0.59229 0.54859 0.0
C443 C 0.21231 0.54676 0.54192 0.0
C444 C 0.24002 0.50209 0.51862 0.0
C445 C 0.19857 0.46329 0.50452 0.0
C446 C 0.14352 0.49013 0.52992 0.0
C447 C 0.15431 0.53776 0.55386 0.0
C448 C 0.19409 0.46184 0.44367 0.0
C449 C 0.21969 0.40863 0.52928 0.0
C450 C 0.08278 0.57815 0.7352 0.0
C451 C 0.0324 0.56469 0.75911 0.0
C452 C 0.98304 0.56464 0.72779 0.0
C453 C 0.98754 0.56641 0.6727 0.0
C454 C 0.04164 0.5664 0.6507 0.0
C455 C 0.08598 0.58011 0.68017 0.0
C456 C 0.13779 0.5844 0.64643 0.0
C457 C 0.11868 0.5606 0.59462 0.0
C458 C 0.06481 0.54396 0.60147 0.0
C459 C 0.14628 0.64382 0.64182 0.0
C460 C 0.19044 0.55085 0.67089 0.0
H461 H 0.11703 0.38329 0.46264 0.0
H462 H 0.98836 0.35067 0.61132 0.0
H463 H 0.02536 0.40297 0.67893 0.0
H464 H 0.09213 0.42554 0.66081 0.0
H465 H 0.03733 0.46924 0.69196 0.0
H466 H 0.93156 0.43843 0.59108 0.0
H467 H 0.93952 0.47573 0.64916 0.0
H468 H 0.9446 0.50549 0.58487 0.0
H469 H 0.32195 0.46123 0.49489 0.0
H470 H 0.3201 0.62262 0.55004 0.0
H471 H 0.2157 0.62982 0.55862 0.0
H472 H 0.19255 0.50255 0.42659 0.0
H473 H 0.23144 0.437 0.42644 0.0
H474 H 0.15484 0.4468 0.43008 0.0
H475 H 0.21809 0.41083 0.57317 0.0
H476 H 0.19475 0.37708 0.51647 0.0
H477 H 0.26425 0.39518 0.51738 0.0
H478 H 0.08662 0.29541 0.47425 0.0
C479 C 0.08996 0.37697 0.49548 0.0
C480 C 0.04705 0.07315 0.44547 0.0
N481 N 0.01261 0.15716 0.58238 0.0
C482 C 0.06556 0.1702 0.57105 0.0
C483 C 0.07375 0.22211 0.55933 0.0
C484 C 0.02719 0.26146 0.55894 0.0
C485 C 0.97356 0.24833 0.57465 0.0
C486 C 0.96708 0.19529 0.58611 0.0
Zn487 Zn 1.00394 0.08036 0.56467 0.0
C488 C 0.89847 0.0697 0.50584 0.0
N489 N 1.00206 0.92395 0.51164 0.0
C490 C 0.0469 0.8854 0.50578 0.0
C491 C 0.94915 0.91126 0.52378 0.0
C492 C 0.94015 0.85915 0.53323 0.0
C493 C 0.98589 0.81906 0.5308 0.0
C494 C 0.03959 0.83207 0.51499 0.0
Zn495 Zn 0.01121 1.0008 0.52934 0.0
O496 O 0.03508 0.10169 0.48614 0.0
C497 C 0.11695 1.01049 0.58818 0.0
O498 O 0.04439 1.02306 0.45007 0.0
H499 H 0.91427 0.9416 0.53152 0.0
H500 H 0.10111 0.14004 0.56531 0.0
H501 H 0.08896 0.89612 0.49777 0.0
O502 O 0.08866 0.0555 0.59659 0.0
O503 O 0.09543 0.97798 0.55837 0.0
H504 H 0.9251 0.18426 0.59384 0.0
O505 O 0.97879 0.97966 0.60955 0.0
O506 O 0.97011 0.06005 0.64176 0.0
O507 O 0.92715 1.0249 0.49794 0.0
O508 O 0.9196 0.10289 0.53512 0.0
C509 C 0.96587 1.0106 0.6485 0.0
H510 H 0.11604 0.231 0.5489 0.0
H511 H 0.93672 0.27815 0.5755 0.0
H512 H 0.89783 0.85057 0.54395 0.0
H513 H 0.07587 0.80179 0.51218 0.0
C514 C 0.62115 1.01276 1.01624 0.0
N515 N 0.49447 0.14701 1.01064 0.0
C516 C 0.53741 0.16848 0.98571 0.0
C517 C 0.54746 0.22056 0.99692 0.0
C518 C 0.51276 0.25066 1.03378 0.0
C519 C 0.46559 0.22952 0.05443 0.0
C520 C 0.45709 0.17779 1.04227 0.0
Zn521 Zn 0.50356 0.06687 1.02841 0.0
C522 C 0.47377 0.98951 0.94917 0.0
N523 N 0.52058 0.9084 0.08982 0.0
C524 C 0.56666 0.87781 0.06898 0.0
C525 C 0.4718 0.88645 0.09966 0.0
C526 C 0.46511 0.83607 0.08053 0.0
C527 C 0.50881 0.80773 0.05067 0.0
C528 C 0.56123 0.82806 0.04772 0.0
Zn529 Zn 0.51163 0.98913 0.07082 0.0
O530 O 0.59316 0.05633 1.00147 0.0
C531 C 0.54074 0.06767 0.14969 0.0
O532 O 0.59616 0.98159 0.04468 0.0
H533 H 0.43592 0.90901 0.11851 0.0
H534 H 0.56687 0.14423 0.96061 0.0
H535 H 0.60693 0.89284 0.06407 0.0
O536 O 0.52851 0.09387 0.10721 0.0
O537 O 0.53963 1.01725 0.14848 0.0
H538 H 0.42389 0.16161 0.06366 0.0
O539 O 0.42539 1.00032 0.09907 0.0
O540 O 0.41611 0.07386 0.05339 0.0
O541 O 0.48473 0.96249 0.99158 0.0
O542 O 0.47711 0.03952 0.95077 0.0
C543 C 0.39465 0.04224 0.08444 0.0
H544 H 0.58329 0.23632 0.97852 0.0
H545 H 0.43762 0.25121 0.08289 0.0
H546 H 0.42512 0.8205 0.08765 0.0
H547 H 0.5972 0.80736 1.02694 0.0
C548 C 0.52725 0.43086 0.50578 0.0
N549 N 0.49573 0.50212 0.65852 0.0
C550 C 0.45142 0.53036 0.68437 0.0
C551 C 0.45563 0.54097 0.73796 0.0
C552 C 0.50577 0.52223 0.76425 0.0
C553 C 0.54802 0.48826 0.73848 0.0
C554 C 0.54187 0.4782 0.68493 0.0
Zn555 Zn 0.50442 0.52211 0.58216 0.0
C556 C 0.62132 0.54119 0.55585 0.0
N557 N 0.51648 0.57331 0.425 0.0
C558 C 0.47004 0.59591 0.39807 0.0
C559 C 0.56158 0.54574 0.39966 0.0
C560 C 0.55802 0.5343 0.34622 0.0
C561 C 0.50762 0.55133 0.31955 0.0
C562 C 0.46443 0.58476 0.34468 0.0
Zn563 Zn 0.5076 0.55332 0.50139 0.0
O564 O 0.52112 0.43992 0.55531 0.0
C565 C 0.39083 0.53455 0.52742 0.0
O566 O 0.52367 0.47051 0.47455 0.0
H567 H 0.59759 0.52693 0.42171 0.0
H568 H 0.41564 0.55011 0.66263 0.0
H569 H 0.43489 0.6178 0.41893 0.0
O570 O 0.41558 0.52012 0.57043 0.0
O571 O 0.41926 0.55116 0.48979 0.0
H572 H 0.57643 0.45592 0.66361 0.0
O573 O 0.48975 0.63575 0.52848 0.0
O574 O 0.48923 0.60441 0.60907 0.0
O575 O 0.59602 0.55626 0.51332 0.0
O576 O 0.5934 0.52359 0.59336 0.0
C577 C 0.48442 0.6443 0.57819 0.0
H578 H 0.42201 0.56634 0.75767 0.0
H579 H 0.58651 0.47207 0.75893 0.0
H580 H 0.59234 0.50936 0.327 0.0
H581 H 0.4257 0.59968 0.32391 0.0
C582 C 0.9828 0.64171 1.00371 0.0
N583 N 0.9842 0.55729 0.1562 0.0
C584 C 0.0135 0.58481 0.19061 0.0
C585 C 0.01271 0.57285 0.24471 0.0
C586 C 0.98233 0.53169 0.26277 0.0
C587 C 0.95099 0.50582 0.22658 0.0
C588 C 0.95203 0.51955 0.17377 0.0
Zn589 Zn 1.0039 0.54826 0.07827 0.0
C590 C 0.89972 0.51585 1.02239 0.0
N591 N 0.03783 0.51021 0.91869 0.0
C592 C 0.0718 0.54695 0.90217 0.0
C593 C 1.00453 0.48748 0.88373 0.0
C594 C 1.00239 0.50411 0.83076 0.0
C595 C 0.03377 0.54524 0.81441 0.0
C596 C 0.06951 0.56567 0.85083 0.0
Zn597 Zn 0.01838 0.5183 0.99716 0.0
O598 O 0.98009 0.63409 0.05385 0.0
C599 C 0.12259 0.55053 0.0533 0.0
O600 O 0.99662 0.60129 0.97509 0.0
H601 H 0.97662 0.45949 0.89744 0.0
H602 H 0.0402 0.61344 0.17596 0.0
H603 H 0.09547 0.56787 0.92963 0.0
O604 O 0.08961 0.56279 0.09206 0.0
O605 O 0.10329 0.5309 1.01223 0.0
H606 H 0.93167 0.49524 0.14667 0.0
O607 O 0.041 0.43424 1.02023 0.0
O608 O 0.02782 0.46345 0.10092 0.0
O609 O 0.9324 0.50482 0.98319 0.0
O610 O 0.91925 0.53446 0.0639 0.0
C611 C 0.04082 0.4244 0.07005 0.0
H612 H 0.03656 0.59464 0.27181 0.0
H613 H 0.92801 0.47319 0.23831 0.0
H614 H 0.97539 0.48597 0.80343 0.0
H615 H 0.09346 0.59817 0.84093 0.0
loop_
_geom_bond_atom_site_label_1
_geom_bond_atom_site_label_2
_geom_bond_distance
_geom_bond_site_symmetry_2
_ccdc_geom_bond_type
C0 C1 1.391 . S
C0 C4 1.391 . S
C0 H42 0.933 1_545 S
C1 C0 1.391 . S
C1 C2 1.391 1_455 S
C2 C1 1.391 1_655 S
C2 H58 0.947 . S
C2 C59 1.392 1_655 S
C3 C4 1.391 . S
C3 C7 1.397 . S
C3 C59 1.419 . S
C4 C0 1.391 . S
C4 C3 1.391 . S
C4 C5 1.399 . S
C5 C4 1.399 . S
C5 C8 1.396 . S
C5 C17 1.453 . S
C5 C18 1.684 1_545 S
H6 C30 0.948 . S
C7 C3 1.397 . S
C7 C8 1.394 . S
C7 C26 1.723 . S
C8 C5 1.396 . S
C8 C7 1.394 . S
C8 C38 1.723 . S
H9 C32 0.947 . S
H10 C33 0.941 1_565 S
H11 C39 0.982 . S
H12 C40 0.979 . S
H13 C40 0.980 . S
H14 C40 0.983 . S
H15 C39 0.979 . S
H16 C39 0.977 . S
C17 C5 1.453 . S
C17 H46 0.982 . S
C17 H47 0.979 . S
C17 H48 0.977 . S
C18 C5 1.684 1_565 S
C18 H43 0.979 . S
C18 H44 0.980 . S
C18 H45 0.983 . S
C19 C20 1.391 . S
C19 C24 1.391 . S
C19 H49 0.948 1_455 S
C20 C19 1.391 . S
C20 C21 1.391 . S
C21 C20 1.391 . S
C21 C22 1.392 . S
C21 H50 0.947 1_554 S
C22 C21 1.392 . S
C22 C23 1.419 . S
C22 H51 0.948 . S
C23 C22 1.419 . S
C23 C24 1.391 . S
C23 C27 1.397 . S
C24 C19 1.391 . S
C24 C23 1.391 . S
C24 C25 1.399 . S
C25 C24 1.399 . S
C25 C26 1.396 . S
C25 C28 1.453 . S
C25 C29 1.684 1_455 S
C26 C7 1.723 . S
C26 C25 1.396 . S
C26 C27 1.394 . S
C27 C23 1.397 . S
C27 C26 1.394 . S
C27 C37 1.723 . S
C28 C25 1.453 . S
C28 H52 0.982 . S
C28 H53 0.979 1_455 S
C28 H54 0.977 . S
C29 C25 1.684 1_655 S
C29 H55 0.979 . S
C29 H56 0.980 . S
C29 H57 0.983 . S
C30 H6 0.948 . S
C30 C31 1.391 . S
C30 C35 1.391 . S
C31 C30 1.391 . S
C31 C32 1.391 1_545 S
C32 H9 0.947 . S
C32 C31 1.391 1_565 S
C32 C33 1.392 1_565 S
C33 H10 0.941 1_545 S
C33 C32 1.392 1_545 S
C33 C34 1.419 . S
C34 C33 1.419 . S
C34 C35 1.391 . S
C34 C38 1.397 . S
C35 C30 1.391 . S
C35 C34 1.391 . S
C35 C36 1.399 . S
C36 C35 1.399 . S
C36 C37 1.396 . S
C36 C39 1.453 . S
C36 C40 1.684 1_554 S
C37 C27 1.723 . S
C37 C36 1.396 . S
C37 C38 1.394 . S
C38 C8 1.723 . S
C38 C34 1.397 . S
C38 C37 1.394 . S
C39 H11 0.982 . S
C39 H15 0.979 . S
C39 H16 0.977 . S
C39 C36 1.453 . S
C40 H12 0.979 . S
C40 H13 0.980 . S
C40 H14 0.983 . S
C40 C36 1.684 1_556 S
H41 C59 0.948 1_655 S
H42 C0 0.933 1_565 S
H43 C18 0.979 . S
H44 C18 0.980 . S
H45 C18 0.983 . S
H46 C17 0.982 . S
H47 C17 0.979 . S
H48 C17 0.977 . S
H49 C19 0.948 1_655 S
H50 C21 0.947 1_556 S
H51 C22 0.948 . S
H52 C28 0.982 . S
H53 C28 0.979 1_655 S
H54 C28 0.977 . S
H55 C29 0.979 . S
H56 C29 0.980 . S
H57 C29 0.983 . S
H58 C2 0.947 . S
C59 C2 1.392 1_455 S
C59 C3 1.419 . S
C59 H41 0.948 1_455 S
C60 C61 1.391 . S
C60 C64 1.391 . S
C60 H102 0.948 . S
C61 C60 1.391 . S
C61 C62 1.391 . S
C62 C61 1.391 . S
C62 H118 0.947 1_565 S
C62 C119 1.392 . S
C63 C64 1.391 . S
C63 C67 1.397 . S
C63 C119 1.419 . S
C64 C60 1.391 . S
C64 C63 1.391 . S
C64 C65 1.399 . S
C65 C64 1.399 . S
C65 C68 1.396 . S
C65 C77 1.453 . S
C65 C78 1.684 . S
H66 C90 0.948 . S
C67 C63 1.397 . S
C67 C68 1.394 . S
C67 C86 1.723 . S
C68 C65 1.396 . S
C68 C67 1.394 . S
C68 C98 1.723 . S
H69 C92 0.947 . S
H70 C93 0.948 . S
H71 C99 0.982 . S
H72 C100 0.979 . S
H73 C100 0.980 . S
H74 C100 0.983 . S
H75 C99 0.979 . S
H76 C99 0.977 . S
C77 C65 1.453 . S
C77 H106 0.982 . S
C77 H107 0.979 . S
C77 H108 0.977 . S
C78 C65 1.684 . S
C78 H103 0.979 . S
C78 H104 0.980 . S
C78 H105 0.983 . S
C79 C80 1.391 . S
C79 C84 1.391 . S
C79 H109 0.948 . S
C80 C79 1.391 . S
C80 C81 1.391 . S
C81 C80 1.391 . S
C81 C82 1.392 . S
C81 H110 0.947 . S
C82 C81 1.392 . S
C82 C83 1.419 . S
C82 H111 0.948 . S
C83 C82 1.419 . S
C83 C84 1.391 . S
C83 C87 1.397 . S
C84 C79 1.391 . S
C84 C83 1.391 . S
C84 C85 1.399 . S
C85 C84 1.399 . S
C85 C86 1.396 . S
C85 C88 1.453 1_565 S
C85 C89 1.684 . S
C86 C67 1.723 . S
C86 C85 1.396 . S
C86 C87 1.394 . S
C87 C83 1.397 . S
C87 C86 1.394 . S
C87 C97 1.723 . S
C88 C85 1.453 1_545 S
C88 H112 0.982 . S
C88 H113 0.979 . S
C88 H114 0.977 . S
C89 C85 1.684 . S
C89 H115 0.979 . S
C89 H116 0.980 . S
C89 H117 0.983 1_565 S
C90 H66 0.948 . S
C90 C91 1.391 . S
C90 C95 1.391 . S
C91 C90 1.391 . S
C91 C92 1.391 . S
C92 H69 0.947 . S
C92 C91 1.391 . S
C92 C93 1.392 . S
C93 H70 0.948 . S
C93 C92 1.392 . S
C93 C94 1.419 . S
C94 C93 1.419 . S
C94 C95 1.391 . S
C94 C98 1.397 . S
C95 C90 1.391 . S
C95 C94 1.391 . S
C95 C96 1.399 . S
C96 C95 1.399 . S
C96 C97 1.396 . S
C96 C99 1.453 . S
C96 C100 1.684 . S
C97 C87 1.723 . S
C97 C96 1.396 . S
C97 C98 1.394 . S
C98 C68 1.723 . S
C98 C94 1.397 . S
C98 C97 1.394 . S
C99 H71 0.982 . S
C99 H75 0.979 . S
C99 H76 0.977 . S
C99 C96 1.453 . S
C100 H72 0.979 . S
C100 H73 0.980 . S
C100 H74 0.983 . S
C100 C96 1.684 . S
H101 C119 0.948 . S
H102 C60 0.948 . S
H103 C78 0.979 . S
H104 C78 0.980 . S
H105 C78 0.983 . S
H106 C77 0.982 . S
H107 C77 0.979 . S
H108 C77 0.977 . S
H109 C79 0.948 . S
H110 C81 0.947 . S
H111 C82 0.948 . S
H112 C88 0.982 . S
H113 C88 0.979 . S
H114 C88 0.977 . S
H115 C89 0.979 . S
H116 C89 0.980 . S
H117 C89 0.983 1_545 S
H118 C62 0.947 1_545 S
C119 C62 1.392 . S
C119 C63 1.419 . S
C119 H101 0.948 . S
C120 C121 1.391 1_554 S
C120 C124 1.391 1_554 S
C120 H162 0.948 . S
C121 C120 1.391 1_556 S
C121 C122 1.391 . S
C122 C121 1.391 . S
C122 H178 0.947 . S
C122 C179 1.392 . S
C123 C124 1.391 . S
C123 C127 1.397 . S
C123 C179 1.419 . S
C124 C120 1.391 1_556 S
C124 C123 1.391 . S
C124 C125 1.399 . S
C125 C124 1.399 . S
C125 C128 1.396 . S
C125 C137 1.453 1_556 S
C125 C138 1.684 1_556 S
H126 C150 0.948 . S
C127 C123 1.397 . S
C127 C128 1.394 . S
C127 C146 1.723 . S
C128 C125 1.396 . S
C128 C127 1.394 . S
C128 C158 1.723 . S
H129 C152 0.947 . S
H130 C153 0.948 . S
H131 C159 0.982 . S
H132 C160 0.979 . S
H133 C160 0.980 . S
H134 C160 0.983 . S
H135 C159 0.979 . S
H136 C159 0.977 . S
C137 C125 1.453 1_554 S
C137 H166 0.982 . S
C137 H167 0.979 . S
C137 H168 0.977 . S
C138 C125 1.684 1_554 S
C138 H163 0.979 1_554 S
C138 H164 0.980 . S
C138 H165 0.983 . S
C139 C140 1.391 . S
C139 C144 1.391 . S
C139 H169 0.948 . S
C140 C139 1.391 . S
C140 C141 1.391 . S
C141 C140 1.391 . S
C141 C142 1.392 . S
C141 H170 0.947 . S
C142 C141 1.392 . S
C142 C143 1.419 . S
C142 H171 0.948 . S
C143 C142 1.419 . S
C143 C144 1.391 . S
C143 C147 1.397 . S
C144 C139 1.391 . S
C144 C143 1.391 . S
C144 C145 1.399 . S
C145 C144 1.399 . S
C145 C146 1.396 . S
C145 C148 1.453 . S
C145 C149 1.684 . S
C146 C127 1.723 . S
C146 C145 1.396 . S
C146 C147 1.394 . S
C147 C143 1.397 . S
C147 C146 1.394 . S
C147 C157 1.723 . S
C148 C145 1.453 . S
C148 H172 0.982 . S
C148 H173 0.979 . S
C148 H174 0.977 . S
C149 C145 1.684 . S
C149 H175 0.979 . S
C149 H176 0.980 . S
C149 H177 0.983 . S
C150 H126 0.948 . S
C150 C151 1.391 1_556 S
C150 C155 1.391 . S
C151 C150 1.391 1_554 S
C151 C152 1.391 . S
C152 H129 0.947 . S
C152 C151 1.391 . S
C152 C153 1.392 . S
C153 H130 0.948 . S
C153 C152 1.392 . S
C153 C154 1.419 1_554 S
C154 C153 1.419 1_556 S
C154 C155 1.391 . S
C154 C158 1.397 . S
C155 C150 1.391 . S
C155 C154 1.391 . S
C155 C156 1.399 . S
C156 C155 1.399 . S
C156 C157 1.396 . S
C156 C159 1.453 . S
C156 C160 1.684 . S
C157 C147 1.723 . S
C157 C156 1.396 . S
C157 C158 1.394 . S
C158 C128 1.723 . S
C158 C154 1.397 . S
C158 C157 1.394 . S
C159 H131 0.982 . S
C159 H135 0.979 . S
C159 H136 0.977 . S
C159 C156 1.453 . S
C160 H132 0.979 . S
C160 H133 0.980 . S
C160 H134 0.983 . S
C160 C156 1.684 . S
H161 C179 0.948 . S
H162 C120 0.948 . S
H163 C138 0.979 1_556 S
H164 C138 0.980 . S
H165 C138 0.983 . S
H166 C137 0.982 . S
H167 C137 0.979 . S
H168 C137 0.977 . S
H169 C139 0.948 . S
H170 C141 0.947 . S
H171 C142 0.948 . S
H172 C148 0.982 . S
H173 C148 0.979 . S
H174 C148 0.977 . S
H175 C149 0.979 . S
H176 C149 0.980 . S
H177 C149 0.983 . S
H178 C122 0.947 . S
C179 C122 1.392 . S
C179 C123 1.419 . S
C179 H161 0.948 . S
C180 C181 1.391 . S
C180 C184 1.391 . S
C180 H222 0.948 . S
C181 C180 1.391 . S
C181 C182 1.391 . S
C182 C181 1.391 . S
C182 H238 0.947 . S
C182 C239 1.392 . S
C183 C184 1.391 . S
C183 C187 1.397 . S
C183 C239 1.419 . S
C184 C180 1.391 . S
C184 C183 1.391 . S
C184 C185 1.399 . S
C185 C184 1.399 . S
C185 C188 1.396 . S
C185 C197 1.453 . S
C185 C198 1.684 . S
H186 C210 0.948 . S
C187 C183 1.397 . S
C187 C188 1.394 . S
C187 C206 1.723 . S
C188 C185 1.396 . S
C188 C187 1.394 . S
C188 C218 1.723 . S
H189 C212 0.947 . S
H190 C213 0.948 . S
H191 C219 0.982 . S
H192 C220 0.979 . S
H193 C220 0.980 . S
H194 C220 0.983 . S
H195 C219 0.979 . S
H196 C219 0.977 . S
C197 C185 1.453 . S
C197 H226 0.982 . S
C197 H227 0.979 1_655 S
C197 H228 0.977 . S
C198 C185 1.684 . S
C198 H223 0.979 . S
C198 H224 0.980 . S
C198 H225 0.983 . S
C199 C200 1.391 . S
C199 C204 1.391 . S
C199 H229 0.948 . S
C200 C199 1.391 . S
C200 C201 1.391 . S
C201 C200 1.391 . S
C201 C202 1.392 . S
C201 H230 0.947 . S
C202 C201 1.392 . S
C202 C203 1.419 . S
C202 H231 0.948 . S
C203 C202 1.419 . S
C203 C204 1.391 . S
C203 C207 1.397 . S
C204 C199 1.391 . S
C204 C203 1.391 . S
C204 C205 1.399 . S
C205 C204 1.399 . S
C205 C206 1.396 . S
C205 C208 1.453 . S
C205 C209 1.684 . S
C206 C187 1.723 . S
C206 C205 1.396 . S
C206 C207 1.394 . S
C207 C203 1.397 . S
C207 C206 1.394 . S
C207 C217 1.723 . S
C208 C205 1.453 . S
C208 H232 0.982 . S
C208 H233 0.979 . S
C208 H234 0.977 . S
C209 C205 1.684 . S
C209 H235 0.979 . S
C209 H236 0.980 . S
C209 H237 0.983 . S
C210 H186 0.948 . S
C210 C211 1.391 . S
C210 C215 1.391 . S
C211 C210 1.391 . S
C211 C212 1.391 . S
C212 H189 0.947 . S
C212 C211 1.391 . S
C212 C213 1.392 . S
C213 H190 0.948 . S
C213 C212 1.392 . S
C213 C214 1.419 . S
C214 C213 1.419 . S
C214 C215 1.391 . S
C214 C218 1.397 . S
C215 C210 1.391 . S
C215 C214 1.391 . S
C215 C216 1.399 . S
C216 C215 1.399 . S
C216 C217 1.396 . S
C216 C219 1.453 . S
C216 C220 1.684 . S
C217 C207 1.723 . S
C217 C216 1.396 . S
C217 C218 1.394 . S
C218 C188 1.723 . S
C218 C214 1.397 . S
C218 C217 1.394 . S
C219 H191 0.982 . S
C219 H195 0.979 . S
C219 H196 0.977 . S
C219 C216 1.453 . S
C220 H192 0.979 . S
C220 H193 0.980 . S
C220 H194 0.983 . S
C220 C216 1.684 . S
H221 C239 0.948 . S
H222 C180 0.948 . S
H223 C198 0.979 . S
H224 C198 0.980 . S
H225 C198 0.983 . S
H226 C197 0.982 . S
H227 C197 0.979 1_455 S
H228 C197 0.977 . S
H229 C199 0.948 . S
H230 C201 0.947 . S
H231 C202 0.948 . S
H232 C208 0.982 . S
H233 C208 0.979 . S
H234 C208 0.977 . S
H235 C209 0.979 . S
H236 C209 0.980 . S
H237 C209 0.983 . S
H238 C182 0.947 . S
C239 C182 1.392 . S
C239 C183 1.419 . S
C239 H221 0.948 . S
C240 C241 1.391 . S
C240 C244 1.391 . S
C240 H282 0.948 . S
C241 C240 1.391 . S
C241 C242 1.391 1_655 S
C242 C241 1.391 1_455 S
C242 H298 0.947 . S
C242 C299 1.392 1_455 S
C243 C244 1.391 . S
C243 C247 1.397 . S
C243 C299 1.419 . S
C244 C240 1.391 . S
C244 C243 1.391 . S
C244 C245 1.399 . S
C245 C244 1.399 . S
C245 C248 1.396 . S
C245 C257 1.453 . S
C245 C258 1.684 1_556 S
H246 C270 0.948 1_545 S
C247 C243 1.397 . S
C247 C248 1.394 . S
C247 C266 1.723 . S
C248 C245 1.396 . S
C248 C247 1.394 . S
C248 C278 1.723 . S
H249 C272 0.947 1_554 S
H250 C273 0.948 . S
H251 C279 0.982 . S
H252 C280 0.979 . S
H253 C280 0.980 . S
H254 C280 0.983 . S
H255 C279 0.975 1_545 S
H256 C279 0.977 . S
C257 C245 1.453 . S
C257 H286 0.982 . S
C257 H287 0.979 . S
C257 H288 0.977 . S
C258 C245 1.684 1_554 S
C258 H283 0.979 . S
C258 H284 0.980 . S
C258 H285 0.983 . S
C259 C260 1.391 . S
C259 C264 1.391 . S
C259 H289 0.948 1_655 S
C260 C259 1.391 . S
C260 C261 1.391 . S
C261 C260 1.391 . S
C261 C262 1.392 . S
C261 H290 0.947 1_565 S
C262 C261 1.392 . S
C262 C263 1.419 . S
C262 H291 0.948 . S
C263 C262 1.419 . S
C263 C264 1.391 . S
C263 C267 1.397 . S
C264 C259 1.391 . S
C264 C263 1.391 . S
C264 C265 1.399 . S
C265 C264 1.399 . S
C265 C266 1.396 . S
C265 C268 1.453 . S
C265 C269 1.684 1_655 S
C266 C247 1.723 . S
C266 C265 1.396 . S
C266 C267 1.394 . S
C267 C263 1.397 . S
C267 C266 1.394 . S
C267 C277 1.723 . S
C268 C265 1.453 . S
C268 H292 0.982 . S
C268 H293 0.979 1_655 S
C268 H294 0.977 . S
C269 C265 1.684 1_455 S
C269 H295 0.979 . S
C269 H296 0.980 . S
C269 H297 0.983 . S
C270 H246 0.948 1_565 S
C270 C271 1.391 . S
C270 C275 1.391 . S
C271 C270 1.391 . S
C271 C272 1.391 . S
C272 H249 0.947 1_556 S
C272 C271 1.391 . S
C272 C273 1.392 . S
C273 H250 0.948 . S
C273 C272 1.392 . S
C273 C274 1.419 . S
C274 C273 1.419 . S
C274 C275 1.391 . S
C274 C278 1.397 . S
C275 C270 1.391 . S
C275 C274 1.391 . S
C275 C276 1.399 . S
C276 C275 1.399 . S
C276 C277 1.396 . S
C276 C279 1.453 . S
C276 C280 1.684 1_565 S
C277 C267 1.723 . S
C277 C276 1.396 . S
C277 C278 1.394 . S
C278 C248 1.723 . S
C278 C274 1.397 . S
C278 C277 1.394 . S
C279 H251 0.982 . S
C279 H255 0.975 1_565 S
C279 H256 0.977 . S
C279 C276 1.453 . S
C280 H252 0.979 . S
C280 H253 0.980 . S
C280 H254 0.983 . S
C280 C276 1.684 1_545 S
H281 C299 0.948 1_455 S
H282 C240 0.948 . S
H283 C258 0.979 . S
H284 C258 0.980 . S
H285 C258 0.983 . S
H286 C257 0.982 . S
H287 C257 0.979 . S
H288 C257 0.977 . S
H289 C259 0.948 1_455 S
H290 C261 0.947 1_545 S
H291 C262 0.948 . S
H292 C268 0.982 . S
H293 C268 0.979 1_455 S
H294 C268 0.977 . S
H295 C269 0.979 . S
H296 C269 0.980 . S
H297 C269 0.983 . S
H298 C242 0.947 . S
C299 C242 1.392 1_655 S
C299 C243 1.419 . S
C299 H281 0.948 1_655 S
C300 C301 1.391 . S
C300 C304 1.391 . S
C300 H342 0.948 . S
C301 C300 1.391 . S
C301 C302 1.391 . S
C302 C301 1.391 . S
C302 H358 0.947 1_545 S
C302 C359 1.392 . S
C303 C304 1.391 . S
C303 C307 1.397 . S
C303 C359 1.419 . S
C304 C300 1.391 . S
C304 C303 1.391 . S
C304 C305 1.399 . S
C305 C304 1.399 . S
C305 C308 1.396 . S
C305 C317 1.453 . S
C305 C318 1.684 . S
H306 C330 0.948 . S
C307 C303 1.397 . S
C307 C308 1.394 . S
C307 C326 1.723 . S
C308 C305 1.396 . S
C308 C307 1.394 . S
C308 C338 1.723 . S
H309 C332 0.947 . S
H310 C333 0.948 . S
H311 C339 0.982 . S
H312 C340 0.979 . S
H313 C340 0.980 . S
H314 C340 0.983 . S
H315 C339 0.979 . S
H316 C339 0.977 . S
C317 C305 1.453 . S
C317 H346 0.982 . S
C317 H347 0.979 . S
C317 H348 0.977 . S
C318 C305 1.684 . S
C318 H343 0.979 . S
C318 H344 0.980 . S
C318 H345 0.983 . S
C319 C320 1.391 . S
C319 C324 1.391 . S
C319 H349 0.948 . S
C320 C319 1.391 . S
C320 C321 1.391 . S
C321 C320 1.391 . S
C321 C322 1.392 . S
C321 H350 0.947 . S
C322 C321 1.392 . S
C322 C323 1.419 . S
C322 H351 0.948 . S
C323 C322 1.419 . S
C323 C324 1.391 . S
C323 C327 1.397 . S
C324 C319 1.391 . S
C324 C323 1.391 . S
C324 C325 1.399 . S
C325 C324 1.399 . S
C325 C326 1.396 . S
C325 C328 1.453 1_545 S
C325 C329 1.684 . S
C326 C307 1.723 . S
C326 C325 1.396 . S
C326 C327 1.394 . S
C327 C323 1.397 . S
C327 C326 1.394 . S
C327 C337 1.723 . S
C328 C325 1.453 1_565 S
C328 H352 0.982 . S
C328 H353 0.979 . S
C328 H354 0.977 . S
C329 C325 1.684 . S
C329 H355 0.979 . S
C329 H356 0.980 . S
C329 H357 0.983 1_545 S
C330 H306 0.948 . S
C330 C331 1.391 . S
C330 C335 1.391 . S
C331 C330 1.391 . S
C331 C332 1.391 . S
C332 H309 0.947 . S
C332 C331 1.391 . S
C332 C333 1.392 . S
C333 H310 0.948 . S
C333 C332 1.392 . S
C333 C334 1.419 . S
C334 C333 1.419 . S
C334 C335 1.391 . S
C334 C338 1.397 . S
C335 C330 1.391 . S
C335 C334 1.391 . S
C335 C336 1.399 . S
C336 C335 1.399 . S
C336 C337 1.396 . S
C336 C339 1.453 . S
C336 C340 1.684 . S
C337 C327 1.723 . S
C337 C336 1.396 . S
C337 C338 1.394 . S
C338 C308 1.723 . S
C338 C334 1.397 . S
C338 C337 1.394 . S
C339 H311 0.982 . S
C339 H315 0.979 . S
C339 H316 0.977 . S
C339 C336 1.453 . S
C340 H312 0.979 . S
C340 H313 0.980 . S
C340 H314 0.983 . S
C340 C336 1.684 . S
H341 C359 0.948 . S
H342 C300 0.948 . S
H343 C318 0.979 . S
H344 C318 0.980 . S
H345 C318 0.983 . S
H346 C317 0.982 . S
H347 C317 0.979 . S
H348 C317 0.977 . S
H349 C319 0.948 . S
H350 C321 0.947 . S
H351 C322 0.948 . S
H352 C328 0.982 . S
H353 C328 0.979 . S
H354 C328 0.977 . S
H355 C329 0.979 . S
H356 C329 0.980 . S
H357 C329 0.983 1_565 S
H358 C302 0.947 1_565 S
C359 C302 1.392 . S
C359 C303 1.419 . S
C359 H341 0.948 . S
C360 C361 1.391 . S
C360 C364 1.391 . S
C360 H402 0.948 . S
C361 C360 1.391 . S
C361 C362 1.391 . S
C362 C361 1.391 . S
C362 H418 0.947 . S
C362 C419 1.392 . S
C363 C364 1.391 . S
C363 C367 1.397 . S
C363 C419 1.419 . S
C364 C360 1.391 . S
C364 C363 1.391 . S
C364 C365 1.399 . S
C365 C364 1.399 . S
C365 C368 1.396 . S
C365 C377 1.453 . S
C365 C378 1.684 . S
H366 C390 0.948 . S
C367 C363 1.397 . S
C367 C368 1.394 . S
C367 C386 1.723 . S
C368 C365 1.396 . S
C368 C367 1.394 . S
C368 C398 1.723 . S
H369 C392 0.947 . S
H370 C393 0.948 . S
H371 C399 0.982 1_554 S
H372 C400 0.979 . S
H373 C400 0.980 . S
H374 C400 0.983 . S
H375 C399 0.979 . S
H376 C399 0.977 . S
C377 C365 1.453 . S
C377 H406 0.982 . S
C377 H407 0.979 . S
C377 H408 0.977 . S
C378 C365 1.684 . S
C378 H403 0.979 . S
C378 H404 0.980 . S
C378 H405 0.983 . S
C379 C380 1.391 1_554 S
C379 C384 1.391 . S
C379 H409 0.948 . S
C380 C379 1.391 1_556 S
C380 C381 1.391 . S
C381 C380 1.391 . S
C381 C382 1.392 . S
C381 H410 0.947 . S
C382 C381 1.392 . S
C382 C383 1.419 1_556 S
C382 H411 0.948 . S
C383 C382 1.419 1_554 S
C383 C384 1.391 . S
C383 C387 1.397 . S
C384 C379 1.391 . S
C384 C383 1.391 . S
C384 C385 1.399 . S
C385 C384 1.399 . S
C385 C386 1.396 . S
C385 C388 1.453 . S
C385 C389 1.684 . S
C386 C367 1.723 . S
C386 C385 1.396 . S
C386 C387 1.394 . S
C387 C383 1.397 . S
C387 C386 1.394 . S
C387 C397 1.723 . S
C388 C385 1.453 . S
C388 H412 0.982 . S
C388 H413 0.979 . S
C388 H414 0.977 . S
C389 C385 1.684 . S
C389 H415 0.979 . S
C389 H416 0.980 . S
C389 H417 0.983 . S
C390 H366 0.948 . S
C390 C391 1.391 1_556 S
C390 C395 1.391 1_556 S
C391 C390 1.391 1_554 S
C391 C392 1.391 . S
C392 H369 0.947 . S
C392 C391 1.391 . S
C392 C393 1.392 . S
C393 H370 0.948 . S
C393 C392 1.392 . S
C393 C394 1.419 . S
C394 C393 1.419 . S
C394 C395 1.391 . S
C394 C398 1.397 . S
C395 C390 1.391 1_554 S
C395 C394 1.391 . S
C395 C396 1.399 . S
C396 C395 1.399 . S
C396 C397 1.395 . S
C396 C399 1.453 1_554 S
C396 C400 1.685 1_554 S
C397 C387 1.723 . S
C397 C396 1.395 . S
C397 C398 1.394 . S
C398 C368 1.723 . S
C398 C394 1.397 . S
C398 C397 1.394 . S
C399 H371 0.982 1_556 S
C399 H375 0.979 . S
C399 H376 0.977 . S
C399 C396 1.453 1_556 S
C400 H372 0.979 . S
C400 H373 0.980 . S
C400 H374 0.983 . S
C400 C396 1.685 1_556 S
H401 C419 0.948 . S
H402 C360 0.948 . S
H403 C378 0.979 . S
H404 C378 0.980 . S
H405 C378 0.983 . S
H406 C377 0.982 . S
H407 C377 0.979 . S
H408 C377 0.977 . S
H409 C379 0.948 . S
H410 C381 0.947 . S
H411 C382 0.948 . S
H412 C388 0.982 . S
H413 C388 0.979 . S
H414 C388 0.977 . S
H415 C389 0.979 . S
H416 C389 0.980 . S
H417 C389 0.983 . S
H418 C362 0.947 . S
C419 C362 1.392 . S
C419 C363 1.419 . S
C419 H401 0.948 . S
C420 C421 1.391 . S
C420 C424 1.391 . S
C420 H462 0.948 . S
C421 C420 1.391 . S
C421 C422 1.391 . S
C422 C421 1.391 . S
C422 H478 0.947 . S
C422 C479 1.392 . S
C423 C424 1.391 . S
C423 C427 1.397 . S
C423 C479 1.419 . S
C424 C420 1.391 . S
C424 C423 1.391 . S
C424 C425 1.399 . S
C425 C424 1.399 . S
C425 C428 1.396 . S
C425 C437 1.453 . S
C425 C438 1.684 . S
H426 C450 0.948 . S
C427 C423 1.397 . S
C427 C428 1.394 . S
C427 C446 1.723 . S
C428 C425 1.396 . S
C428 C427 1.394 . S
C428 C458 1.723 . S
H429 C452 0.947 . S
H430 C453 0.948 . S
H431 C459 0.982 . S
H432 C460 0.979 . S
H433 C460 0.980 . S
H434 C460 0.983 . S
H435 C459 0.979 . S
H436 C459 0.977 . S
C437 C425 1.453 . S
C437 H466 0.982 . S
C437 H467 0.979 1_455 S
C437 H468 0.977 . S
C438 C425 1.684 . S
C438 H463 0.979 . S
C438 H464 0.980 . S
C438 H465 0.983 . S
C439 C440 1.391 . S
C439 C444 1.391 . S
C439 H469 0.948 . S
C440 C439 1.391 . S
C440 C441 1.391 . S
C441 C440 1.391 . S
C441 C442 1.392 . S
C441 H470 0.947 . S
C442 C441 1.392 . S
C442 C443 1.419 . S
C442 H471 0.948 . S
C443 C442 1.419 . S
C443 C444 1.391 . S
C443 C447 1.397 . S
C444 C439 1.391 . S
C444 C443 1.391 . S
C444 C445 1.399 . S
C445 C444 1.399 . S
C445 C446 1.396 . S
C445 C448 1.453 . S
C445 C449 1.684 . S
C446 C427 1.723 . S
C446 C445 1.396 . S
C446 C447 1.394 . S
C447 C443 1.397 . S
C447 C446 1.394 . S
C447 C457 1.723 . S
C448 C445 1.453 . S
C448 H472 0.982 . S
C448 H473 0.979 . S
C448 H474 0.977 . S
C449 C445 1.684 . S
C449 H475 0.979 . S
C449 H476 0.980 . S
C449 H477 0.983 . S
C450 H426 0.948 . S
C450 C451 1.391 . S
C450 C455 1.391 . S
C451 C450 1.391 . S
C451 C452 1.391 . S
C452 H429 0.947 . S
C452 C451 1.391 . S
C452 C453 1.392 . S
C453 H430 0.948 . S
C453 C452 1.392 . S
C453 C454 1.419 . S
C454 C453 1.419 . S
C454 C455 1.391 . S
C454 C458 1.397 . S
C455 C450 1.391 . S
C455 C454 1.391 . S
C455 C456 1.399 . S
C456 C455 1.399 . S
C456 C457 1.396 . S
C456 C459 1.453 . S
C456 C460 1.684 . S
C457 C447 1.723 . S
C457 C456 1.396 . S
C457 C458 1.394 . S
C458 C428 1.723 . S
C458 C454 1.397 . S
C458 C457 1.394 . S
C459 H431 0.982 . S
C459 H435 0.979 . S
C459 H436 0.977 . S
C459 C456 1.453 . S
C460 H432 0.979 . S
C460 H433 0.980 . S
C460 H434 0.983 . S
C460 C456 1.684 . S
H461 C479 0.948 . S
H462 C420 0.948 . S
H463 C438 0.979 . S
H464 C438 0.980 . S
H465 C438 0.983 . S
H466 C437 0.982 . S
H467 C437 0.979 1_655 S
H468 C437 0.977 . S
H469 C439 0.948 . S
H470 C441 0.947 . S
H471 C442 0.948 . S
H472 C448 0.982 . S
H473 C448 0.979 . S
H474 C448 0.977 . S
H475 C449 0.979 . S
H476 C449 0.980 . S
H477 C449 0.983 . S
H478 C422 0.947 . S
C479 C422 1.392 . S
C479 C423 1.419 . S
C479 H461 0.948 . S
C480 O496 1.251 . S
C480 O498 1.254 1_545 S
N481 C482 1.333 . S
N481 C486 1.307 . S
N481 Zn487 2.020 . S
C482 N481 1.333 . S
C482 C483 1.379 . S
C482 H500 0.952 . S
C483 C482 1.379 . S
C483 C484 1.390 . S
C483 H510 0.949 . S
C484 C483 1.390 . S
C484 C485 1.357 . S
C485 C484 1.357 . S
C485 C486 1.370 . S
C485 H511 0.950 . S
C486 N481 1.307 . S
C486 C485 1.370 . S
C486 H504 0.948 1_455 S
Zn487 N481 2.020 . S
Zn487 O496 2.039 . S
Zn487 O502 2.034 . S
Zn487 O506 2.025 1_455 S
Zn487 O508 2.024 1_455 S
C488 O507 1.246 1_545 S
C488 O508 1.249 . S
N489 C490 1.307 . S
N489 C491 1.333 . S
N489 Zn495 2.020 . S
C490 N489 1.307 . S
C490 C494 1.370 . S
C490 H501 0.948 1_655 S
C491 N489 1.333 . S
C491 C492 1.379 . S
C491 H499 0.952 . S
C492 C491 1.379 . S
C492 C493 1.390 . S
C492 H512 0.949 . S
C493 C492 1.390 . S
C493 C494 1.357 . S
C494 C490 1.370 . S
C494 C493 1.357 . S
C494 H513 0.950 1_655 S
Zn495 N489 2.020 . S
Zn495 O498 2.025 1_655 S
Zn495 O503 2.024 1_655 S
Zn495 O505 2.039 . S
Zn495 O507 2.034 . S
O496 C480 1.251 . S
O496 Zn487 2.039 . S
C497 O502 1.246 1_565 S
C497 O503 1.249 . S
O498 C480 1.254 1_565 S
O498 Zn495 2.025 1_455 S
H499 C491 0.952 . S
H500 C482 0.952 . S
H501 C490 0.948 1_455 S
O502 Zn487 2.034 . S
O502 C497 1.246 1_545 S
O503 Zn495 2.024 1_455 S
O503 C497 1.249 . S
H504 C486 0.948 1_655 S
O505 Zn495 2.039 . S
O505 C509 1.251 . S
O506 Zn487 2.025 1_655 S
O506 C509 1.254 1_545 S
O507 C488 1.246 1_565 S
O507 Zn495 2.034 . S
O508 Zn487 2.024 1_655 S
O508 C488 1.249 . S
C509 O505 1.251 . S
C509 O506 1.254 1_565 S
H510 C483 0.949 . S
H511 C485 0.950 . S
H512 C492 0.949 . S
H513 C494 0.950 1_455 S
C514 O530 1.251 1_565 S
C514 O532 1.254 . S
N515 C516 1.333 . S
N515 C520 1.307 . S
N515 Zn521 2.020 . S
C516 N515 1.333 . S
C516 C517 1.379 . S
C516 H534 0.952 . S
C517 C516 1.379 . S
C517 C518 1.390 . S
C517 H544 0.949 . S
C518 C517 1.390 . S
C518 C519 1.357 . S
C519 C518 1.357 . S
C519 C520 1.370 . S
C519 H545 0.950 . S
C520 N515 1.307 . S
C520 C519 1.370 . S
C520 H538 0.948 . S
Zn521 N515 2.020 . S
Zn521 O530 2.039 . S
Zn521 O536 2.034 1_556 S
Zn521 O540 2.025 1_556 S
Zn521 O542 2.024 . S
C522 O541 1.246 . S
C522 O542 1.249 1_565 S
N523 C524 1.307 . S
N523 C525 1.333 . S
N523 Zn529 2.020 . S
C524 N523 1.307 . S
C524 C528 1.370 . S
C524 H535 0.948 . S
C525 N523 1.333 . S
C525 C526 1.379 . S
C525 H533 0.952 . S
C526 C525 1.379 . S
C526 C527 1.390 . S
C526 H546 0.949 . S
C527 C526 1.390 . S
C527 C528 1.357 . S
C528 C524 1.370 . S
C528 C527 1.357 . S
C528 H547 0.950 . S
Zn529 N523 2.020 . S
Zn529 O532 2.025 1_554 S
Zn529 O537 2.024 . S
Zn529 O539 2.039 . S
Zn529 O541 2.034 1_554 S
O530 C514 1.251 1_545 S
O530 Zn521 2.039 . S
C531 O536 1.246 . S
C531 O537 1.249 1_545 S
O532 C514 1.254 . S
O532 Zn529 2.025 1_556 S
H533 C525 0.952 . S
H534 C516 0.952 . S
H535 C524 0.948 . S
O536 Zn521 2.034 1_554 S
O536 C531 1.246 . S
O537 Zn529 2.024 . S
O537 C531 1.249 1_565 S
H538 C520 0.948 . S
O539 Zn529 2.039 . S
O539 C543 1.251 1_565 S
O540 Zn521 2.025 1_554 S
O540 C543 1.254 . S
O541 C522 1.246 . S
O541 Zn529 2.034 1_556 S
O542 Zn521 2.024 . S
O542 C522 1.249 1_545 S
C543 O539 1.251 1_545 S
C543 O540 1.254 . S
H544 C517 0.949 . S
H545 C519 0.950 . S
H546 C526 0.949 . S
H547 C528 0.950 . S
C548 O564 1.251 . S
C548 O566 1.254 . S
N549 C550 1.333 . S
N549 C554 1.307 . S
N549 Zn555 2.020 . S
C550 N549 1.333 . S
C550 C551 1.379 . S
C550 H568 0.952 . S
C551 C550 1.379 . S
C551 C552 1.390 . S
C551 H578 0.949 . S
C552 C551 1.390 . S
C552 C553 1.357 . S
C553 C552 1.357 . S
C553 C554 1.370 . S
C553 H579 0.950 . S
C554 N549 1.307 . S
C554 C553 1.370 . S
C554 H572 0.948 . S
Zn555 N549 2.020 . S
Zn555 O564 2.039 . S
Zn555 O570 2.034 . S
Zn555 O574 2.025 . S
Zn555 O576 2.024 . S
C556 O575 1.246 . S
C556 O576 1.249 . S
N557 C558 1.307 . S
N557 C559 1.333 . S
N557 Zn563 2.020 . S
C558 N557 1.307 . S
C558 C562 1.370 . S
C558 H569 0.948 . S
C559 N557 1.333 . S
C559 C560 1.379 . S
C559 H567 0.952 . S
C560 C559 1.379 . S
C560 C561 1.390 . S
C560 H580 0.949 . S
C561 C560 1.390 . S
C561 C562 1.357 . S
C562 C558 1.370 . S
C562 C561 1.357 . S
C562 H581 0.950 . S
Zn563 N557 2.020 . S
Zn563 O566 2.025 . S
Zn563 O571 2.024 . S
Zn563 O573 2.039 . S
Zn563 O575 2.034 . S
O564 C548 1.251 . S
O564 Zn555 2.039 . S
C565 O570 1.246 . S
C565 O571 1.249 . S
O566 C548 1.254 . S
O566 Zn563 2.025 . S
H567 C559 0.952 . S
H568 C550 0.952 . S
H569 C558 0.948 . S
O570 Zn555 2.034 . S
O570 C565 1.246 . S
O571 Zn563 2.024 . S
O571 C565 1.249 . S
H572 C554 0.948 . S
O573 Zn563 2.039 . S
O573 C577 1.251 . S
O574 Zn555 2.025 . S
O574 C577 1.254 . S
O575 C556 1.246 . S
O575 Zn563 2.034 . S
O576 Zn555 2.024 . S
O576 C556 1.249 . S
C577 O573 1.251 . S
C577 O574 1.254 . S
H578 C551 0.949 . S
H579 C553 0.950 . S
H580 C560 0.949 . S
H581 C562 0.950 . S
C582 O598 1.251 1_556 S
C582 O600 1.254 . S
N583 C584 1.333 . S
N583 C588 1.307 . S
N583 Zn589 2.020 . S
C584 N583 1.333 . S
C584 C585 1.379 . S
C584 H602 0.952 . S
C585 C584 1.379 . S
C585 C586 1.390 . S
C585 H612 0.949 . S
C586 C585 1.390 . S
C586 C587 1.357 . S
C587 C586 1.357 . S
C587 C588 1.370 . S
C587 H613 0.950 . S
C588 N583 1.307 . S
C588 C587 1.370 . S
C588 H606 0.948 . S
Zn589 N583 2.020 . S
Zn589 O598 2.039 . S
Zn589 O604 2.034 1_655 S
Zn589 O608 2.025 1_655 S
Zn589 O610 2.024 . S
C590 O609 1.246 . S
C590 O610 1.249 1_556 S
N591 C592 1.307 . S
N591 C593 1.333 . S
N591 Zn597 2.020 . S
C592 N591 1.307 . S
C592 C596 1.370 . S
C592 H603 0.948 . S
C593 N591 1.333 . S
C593 C594 1.379 . S
C593 H601 0.952 . S
C594 C593 1.379 . S
C594 C595 1.390 . S
C594 H614 0.949 . S
C595 C594 1.390 . S
C595 C596 1.357 . S
C596 C592 1.370 . S
C596 C595 1.357 . S
C596 H615 0.950 . S
Zn597 N591 2.020 . S
Zn597 O600 2.025 1_455 S
Zn597 O605 2.024 . S
Zn597 O607 2.039 . S
Zn597 O609 2.034 1_455 S
O598 C582 1.251 1_554 S
O598 Zn589 2.039 . S
C599 O604 1.246 . S
C599 O605 1.249 1_554 S
O600 C582 1.254 . S
O600 Zn597 2.025 1_655 S
H601 C593 0.952 . S
H602 C584 0.952 . S
H603 C592 0.948 . S
O604 Zn589 2.034 1_455 S
O604 C599 1.246 . S
O605 Zn597 2.024 . S
O605 C599 1.249 1_556 S
H606 C588 0.948 . S
O607 Zn597 2.039 . S
O607 C611 1.251 1_556 S
O608 Zn589 2.025 1_455 S
O608 C611 1.254 . S
O609 C590 1.246 . S
O609 Zn597 2.034 1_655 S
O610 Zn589 2.024 . S
O610 C590 1.249 1_554 S
C611 O607 1.251 1_554 S
C611 O608 1.254 . S
H612 C585 0.949 . S
H613 C587 0.950 . S
H614 C594 0.949 . S
H615 C596 0.950 . S
C1 C480 3.297 . S
C80 C522 3.170 . S
C552 C140 1.685 . S
C211 C586 1.589 . S
C543 C31 2.483 . S
C497 C61 2.352 . S
C590 C151 1.764 1_556 S
C556 C200 1.842 . S
C20 C611 3.071 . S
C518 C121 1.640 . S
C181 C493 2.042 . S
C91 C577 2.918 . S
C509 C260 3.240 . S
C320 C531 3.170 . S
C361 C561 1.903 . S
C451 C595 1.589 . S
C271 C514 2.388 . S
C488 C301 2.355 . S
C599 C380 2.010 1_554 S
C565 C440 1.842 . S
C241 C582 3.180 . S
C527 C391 1.830 . S
C484 C421 2.041 . S
C331 C548 2.918 . S
