# Generated by pormake.
# Topology pth, (4,4)-cn, num edge types: 1
# Building blocks:
#     Node 0, Type 0, BuildingBlock: CEKHIL_clean_sbu_0, # of connection points: 4
#     Node 1, Type 0, BuildingBlock: CEKHIL_clean_sbu_0, # of connection points: 4
#     Node 2, Type 0, BuildingBlock: CEKHIL_clean_sbu_0, # of connection points: 4
#     Node 3, Type 1, BuildingBlock: AZAVOO_clean_linker_0, # of connection points: 4
#     Node 4, Type 1, BuildingBlock: AZAVOO_clean_linker_0, # of connection points: 4
#     Node 5, Type 1, BuildingBlock: AZAVOO_clean_linker_0, # of connection points: 4
#     Edge 6, Type (0, 1), BuildingBlock: CIFDUS_clean_linker_0, # of connection points: 2
#     Edge 7, Type (0, 1), BuildingBlock: CIFDUS_clean_linker_0, # of connection points: 2
#     Edge 8, Type (0, 1), BuildingBlock: CIFDUS_clean_linker_0, # of connection points: 2
#     Edge 9, Type (0, 1), BuildingBlock: CIFDUS_clean_linker_0, # of connection points: 2
#     Edge 10, Type (0, 1), BuildingBlock: CIFDUS_clean_linker_0, # of connection points: 2
#     Edge 11, Type (0, 1), BuildingBlock: CIFDUS_clean_linker_0, # of connection points: 2
#     Edge 12, Type (0, 1), BuildingBlock: CIFDUS_clean_linker_0, # of connection points: 2
#     Edge 13, Type (0, 1), BuildingBlock: CIFDUS_clean_linker_0, # of connection points: 2
#     Edge 14, Type (0, 1), BuildingBlock: CIFDUS_clean_linker_0, # of connection points: 2
#     Edge 15, Type (0, 1), BuildingBlock: CIFDUS_clean_linker_0, # of connection points: 2
#     Edge 16, Type (0, 1), BuildingBlock: CIFDUS_clean_linker_0, # of connection points: 2
#     Edge 17, Type (0, 1), BuildingBlock: CIFDUS_clean_linker_0, # of connection points: 2
# Relax obj value: 0.113
# Max RMSD: 0.225
# Mean RMSD: 0.145
data_MOF--net-pth--node1-CEKHIL_clean_sbu_0--node2-AZAVOO_clean_linker_0--edge1-CIFDUS_clean_linker_0
_symmetry_space_group_name_H-M    P1
_symmetry_Int_Tables_number       1
_symmetry_cell_setting            triclinic
loop_
_symmetry_equiv_pos_as_xyz
'x, y, z'
_cell_length_a     23.179761
_cell_length_b     23.529247
_cell_length_c     63.973131
_cell_angle_alpha  93.560975
_cell_angle_beta   88.675788
_cell_angle_gamma 120.35466
loop_
_atom_site_label
_atom_site_type_symbol
_atom_site_fract_x
_atom_site_fract_y
_atom_site_fract_z
_atom_type_partial_charge
Co0 Co 0.11263 0.07598 0.09208 0.0
O1 O 0.06598 0.99911 0.10814 0.0
O2 O 0.1601 0.02786 0.09101 0.0
C3 C 0.10778 0.14573 0.11698 0.0
O4 O 0.17654 0.15217 0.07441 0.0
Co5 Co 0.04487 0.1524 0.07879 0.0
O6 O 0.13471 0.2179 0.06917 0.0
C7 C 0.01585 0.02889 0.05504 0.0
C8 C 0.11387 0.98752 0.10329 0.0
C9 C 0.1813 0.20433 0.06723 0.0
O10 O 0.05807 0.02424 0.06646 0.0
O11 O 0.00126 0.07447 0.05801 0.0
O12 O 0.15409 0.13026 0.11751 0.0
O13 O 0.06329 0.11556 0.10227 0.0
Co14 Co 0.04242 0.07164 0.40547 0.0
O15 O 0.99144 0.09435 0.38817 0.0
O16 O 0.08361 0.16712 0.40538 0.0
C17 C 0.04433 0.99711 0.38195 0.0
O18 O 0.10898 0.06573 0.42421 0.0
Co19 Co 0.98111 0.92657 0.41861 0.0
O20 O 0.07334 0.95878 0.42859 0.0
C21 C 0.94923 0.01938 0.44269 0.0
C22 C 0.03618 0.15564 0.39229 0.0
C23 C 0.11684 0.01991 0.43125 0.0
O24 O 0.98668 0.06708 0.43095 0.0
O25 O 0.93801 0.96041 0.43929 0.0
O26 O 0.08746 0.0594 0.38081 0.0
O27 O 0.99863 0.9825 0.39586 0.0
Co28 Co 0.07455 0.10384 0.74636 0.0
O29 O 0.14185 0.13639 0.7251 0.0
O30 O 0.12149 0.05492 0.74508 0.0
C31 C 0.99413 0.1011 0.72624 0.0
O32 O 0.00776 0.05448 0.7693 0.0
Co33 Co 0.0107 0.18444 0.76381 0.0
O34 O 0.94956 0.10442 0.77872 0.0
C35 C 0.15163 0.22911 0.77328 0.0
C36 C 0.15647 0.09259 0.73019 0.0
C37 C 0.96083 0.05698 0.77978 0.0
O38 O 0.14175 0.17155 0.76732 0.0
O39 O 0.10752 0.24584 0.77113 0.0
O40 O 0.00506 0.05194 0.72504 0.0
O41 O 0.03361 0.15059 0.7386 0.0
H42 H 0.99211 0.36483 0.12541 0.0
H43 H 0.18585 0.00172 0.26795 0.0
H44 H 0.00052 0.40876 0.23671 0.0
H45 H 0.00353 0.3182 0.21671 0.0
H46 H 0.21865 0.42233 0.2235 0.0
H47 H 0.21493 0.51211 0.24354 0.0
H48 H 0.98899 0.49867 0.20527 0.0
H49 H 0.97096 0.43887 0.17111 0.0
H50 H 0.17971 0.49497 0.16969 0.0
H51 H 0.19715 0.55528 0.2037 0.0
H52 H 0.00432 0.64766 0.22475 0.0
H53 H 0.99429 0.70709 0.19664 0.0
H54 H 0.17437 0.72499 0.16875 0.0
H55 H 0.18733 0.6714 0.19825 0.0
H56 H 0.01798 0.67373 0.27095 0.0
H57 H 0.02497 0.77989 0.27929 0.0
H58 H 0.21818 0.87911 0.24959 0.0
H59 H 0.21116 0.7726 0.24176 0.0
H60 H 0.02608 0.58698 0.30071 0.0
H61 H 0.02971 0.66028 0.32981 0.0
H62 H 0.2311 0.80499 0.31282 0.0
H63 H 0.22903 0.72827 0.28515 0.0
H64 H 0.0068 0.47835 0.28916 0.0
H65 H 0.00194 0.41581 0.31874 0.0
H66 H 0.21322 0.48519 0.31207 0.0
H67 H 0.2181 0.55216 0.28353 0.0
O68 O 0.00071 0.39041 0.1386 0.0
O69 O 0.10866 0.4215 0.13849 0.0
O70 O 0.08277 0.90565 0.28018 0.0
O71 O 0.18147 0.959 0.26463 0.0
C72 C 0.10841 0.53 0.24571 0.0
C73 C 0.1036 0.56246 0.22845 0.0
C74 C 0.10462 0.62277 0.23174 0.0
C75 C 0.11208 0.65139 0.25229 0.0
C76 C 0.11771 0.61929 0.26955 0.0
C77 C 0.11436 0.55774 0.26631 0.0
C78 C 0.10752 0.46695 0.2415 0.0
C79 C 0.04788 0.4104 0.23474 0.0
C80 C 0.04984 0.35929 0.22304 0.0
C81 C 0.11148 0.36394 0.21812 0.0
C82 C 0.17039 0.41719 0.22705 0.0
C83 C 0.16837 0.46838 0.23867 0.0
C84 C 0.09428 0.53109 0.20695 0.0
C85 C 0.03087 0.49862 0.19742 0.0
C86 C 0.02068 0.46425 0.17797 0.0
C87 C 0.07384 0.46187 0.16771 0.0
C88 C 0.13767 0.4957 0.17717 0.0
C89 C 0.14779 0.53018 0.19658 0.0
C90 C 0.0968 0.65553 0.2137 0.0
C91 C 0.04195 0.66505 0.21267 0.0
C92 C 0.03579 0.69822 0.1963 0.0
C93 C 0.08335 0.72102 0.18015 0.0
C94 C 0.13732 0.70955 0.18098 0.0
C95 C 0.1444 0.67798 0.19772 0.0
C96 C 0.11427 0.71555 0.25588 0.0
C97 C 0.06177 0.71846 0.26627 0.0
C98 C 0.06585 0.77915 0.27098 0.0
C99 C 0.12228 0.83805 0.26516 0.0
C100 C 0.17412 0.83474 0.25434 0.0
C101 C 0.17014 0.77398 0.24975 0.0
C102 C 0.12737 0.65202 0.29082 0.0
C103 C 0.07245 0.6326 0.3041 0.0
C104 C 0.07407 0.67566 0.32041 0.0
C105 C 0.12978 0.73981 0.32324 0.0
C106 C 0.18724 0.75624 0.31124 0.0
C107 C 0.18626 0.71228 0.29535 0.0
C108 C 0.1129 0.52042 0.28438 0.0
C109 C 0.05226 0.48098 0.29439 0.0
C110 C 0.04951 0.4444 0.31114 0.0
C111 C 0.10708 0.44456 0.31787 0.0
C112 C 0.16799 0.48439 0.30769 0.0
C113 C 0.17089 0.52229 0.2912 0.0
C114 C 0.06243 0.4236 0.14738 0.0
C115 C 0.12736 0.90276 0.27046 0.0
H116 H 0.70887 0.07954 0.45251 0.0
H117 H 0.23273 0.14991 0.63235 0.0
H118 H 0.64721 0.00191 0.56663 0.0
H119 H 0.72935 0.00373 0.54218 0.0
H120 H 0.83019 0.21677 0.54411 0.0
H121 H 0.74624 0.214 0.56863 0.0
H122 H 0.57617 0.00551 0.53329 0.0
H123 H 0.62234 0.0162 0.49803 0.0
H124 H 0.68874 0.22454 0.50274 0.0
H125 H 0.64284 0.21317 0.5381 0.0
H126 H 0.45714 0.98963 0.54082 0.0
H127 H 0.37628 0.96666 0.51327 0.0
H128 H 0.39834 0.1592 0.52658 0.0
H129 H 0.48272 0.18314 0.55351 0.0
H130 H 0.38107 0.99586 0.58597 0.0
H131 H 0.27928 0.9925 0.59906 0.0
H132 H 0.39319 0.2024 0.61485 0.0
H133 H 0.49426 0.20506 0.60153 0.0
H134 H 0.45692 0.99713 0.62395 0.0
H135 H 0.3905 0.00418 0.65316 0.0
H136 H 0.5262 0.21463 0.6603 0.0
H137 H 0.5901 0.20742 0.63048 0.0
H138 H 0.62026 0.99393 0.60307 0.0
H139 H 0.6889 0.98161 0.62852 0.0
H140 H 0.7483 0.1766 0.65605 0.0
H141 H 0.68602 0.19091 0.62879 0.0
O142 O 0.68866 0.0759 0.46614 0.0
O143 O 0.71766 0.18177 0.46869 0.0
O144 O 0.21394 0.04339 0.61646 0.0
O145 O 0.27145 0.15025 0.62625 0.0
C146 C 0.62771 0.1044 0.5763 0.0
C147 C 0.58556 0.10381 0.56051 0.0
C148 C 0.52455 0.09998 0.56585 0.0
C149 C 0.50764 0.10142 0.58708 0.0
C150 C 0.54946 0.10175 0.60298 0.0
C151 C 0.60874 0.10117 0.59758 0.0
C152 C 0.69102 0.10779 0.56966 0.0
C153 C 0.68931 0.04919 0.56288 0.0
C154 C 0.7362 0.05044 0.54858 0.0
C155 C 0.78593 0.11046 0.54083 0.0
C156 C 0.79177 0.16966 0.54943 0.0
C157 C 0.7447 0.1683 0.5638 0.0
C158 C 0.60646 0.10862 0.53824 0.0
C159 C 0.60012 0.05325 0.52658 0.0
C160 C 0.62672 0.05956 0.50647 0.0
C161 C 0.65962 0.12132 0.49761 0.0
C162 C 0.66388 0.1763 0.50912 0.0
C163 C 0.63742 0.16992 0.52926 0.0
C164 C 0.47586 0.08804 0.5491 0.0
C165 C 0.4452 0.02721 0.5376 0.0
C166 C 0.39845 0.01396 0.522 0.0
C167 C 0.38026 0.06084 0.51782 0.0
C168 C 0.41168 0.12227 0.52926 0.0
C169 C 0.45932 0.13582 0.54477 0.0
C170 C 0.44485 0.10066 0.59285 0.0
C171 C 0.38361 0.04115 0.59197 0.0
C172 C 0.32571 0.03936 0.59957 0.0
C173 C 0.32824 0.09714 0.60816 0.0
C174 C 0.38951 0.15698 0.60844 0.0
C175 C 0.44726 0.15871 0.60078 0.0
C176 C 0.5285 0.10172 0.62509 0.0
C177 C 0.47414 0.04422 0.63249 0.0
C178 C 0.43599 0.04843 0.64915 0.0
C179 C 0.45221 0.11023 0.65873 0.0
C180 C 0.51163 0.16648 0.65294 0.0
C181 C 0.54915 0.16232 0.63616 0.0
C182 C 0.64865 0.09361 0.61386 0.0
C183 C 0.64934 0.03448 0.61434 0.0
C184 C 0.68776 0.02709 0.62928 0.0
C185 C 0.72481 0.078 0.6446 0.0
C186 C 0.72223 0.13664 0.64434 0.0
C187 C 0.68551 0.14469 0.62893 0.0
C188 C 0.69027 0.12838 0.4766 0.0
C189 C 0.26762 0.09506 0.61713 0.0
H190 H 0.78616 0.77893 0.04204 0.0
H191 H 0.26728 0.18843 0.87706 0.0
H192 H 0.69273 0.75709 0.92277 0.0
H193 H 0.77503 0.85322 0.94376 0.0
H194 H 0.88641 0.75455 0.95304 0.0
H195 H 0.80203 0.65759 0.93264 0.0
H196 H 0.64116 0.69746 0.96217 0.0
H197 H 0.69363 0.74363 0.99652 0.0
H198 H 0.75154 0.5956 0.99773 0.0
H199 H 0.69977 0.55061 0.96315 0.0
H200 H 0.51975 0.5848 0.96119 0.0
H201 H 0.44246 0.52793 0.98918 0.0
H202 H 0.46174 0.35645 0.97443 0.0
H203 H 0.54246 0.41567 0.94709 0.0
H204 H 0.43299 0.49709 0.91901 0.0
H205 H 0.32679 0.3976 0.9092 0.0
H206 H 0.43423 0.29914 0.88792 0.0
H207 H 0.53985 0.39857 0.89809 0.0
H208 H 0.49902 0.5705 0.87984 0.0
H209 H 0.42542 0.50394 0.85078 0.0
H210 H 0.55019 0.41858 0.83705 0.0
H211 H 0.62318 0.48509 0.86675 0.0
H212 H 0.61541 0.68054 0.87655 0.0
H213 H 0.67803 0.75696 0.84954 0.0
H214 H 0.84519 0.72844 0.85985 0.0
H215 H 0.78049 0.64926 0.8861 0.0
O216 O 0.7636 0.75837 0.02883 0.0
O217 O 0.78815 0.67852 0.02944 0.0
O218 O 0.25506 0.27934 0.89369 0.0
O219 O 0.30828 0.22771 0.88164 0.0
C220 C 0.67992 0.63603 0.9214 0.0
C221 C 0.64229 0.59806 0.93826 0.0
C222 C 0.58101 0.53912 0.93439 0.0
C223 C 0.55851 0.51691 0.91358 0.0
C224 C 0.5955 0.55533 0.8967 0.0
C225 C 0.6561 0.61547 0.90057 0.0
C226 C 0.74116 0.7003 0.9264 0.0
C227 C 0.7365 0.75746 0.92855 0.0
C228 C 0.78359 0.81233 0.94068 0.0
C229 C 0.83643 0.81092 0.9506 0.0
C230 C 0.84524 0.75646 0.94615 0.0
C231 C 0.79778 0.70144 0.93419 0.0
C232 C 0.66718 0.62106 0.96013 0.0
C233 C 0.6649 0.67488 0.96994 0.0
C234 C 0.69496 0.70117 0.98955 0.0
C235 C 0.7272 0.6736 0.99981 0.0
C236 C 0.72734 0.61817 0.99022 0.0
C237 C 0.69753 0.59214 0.97054 0.0
C238 C 0.53708 0.50459 0.95216 0.0
C239 C 0.50842 0.53546 0.96428 0.0
C240 C 0.46351 0.50247 0.98012 0.0
C241 C 0.4452 0.43725 0.98396 0.0
C242 C 0.47517 0.40683 0.97206 0.0
C243 C 0.52088 0.44033 0.95632 0.0
C244 C 0.49394 0.45487 0.90928 0.0
C245 C 0.43331 0.45364 0.9125 0.0
C246 C 0.37283 0.3969 0.90677 0.0
C247 C 0.37206 0.34048 0.89768 0.0
C248 C 0.433 0.3417 0.89483 0.0
C249 C 0.49338 0.39834 0.90066 0.0
C250 C 0.56658 0.5329 0.87531 0.0
C251 C 0.51214 0.53963 0.86999 0.0
C252 C 0.4699 0.50116 0.85337 0.0
C253 C 0.48144 0.45526 0.84166 0.0
C254 C 0.5394 0.45275 0.84595 0.0
C255 C 0.58179 0.49146 0.86266 0.0
C256 C 0.69295 0.65861 0.88318 0.0
C257 C 0.66496 0.68964 0.87265 0.0
C258 C 0.70136 0.73418 0.85741 0.0
C259 C 0.76707 0.74948 0.85254 0.0
C260 C 0.79454 0.71741 0.86294 0.0
C261 C 0.7578 0.67238 0.87806 0.0
C262 C 0.76137 0.70331 0.02027 0.0
C263 C 0.30817 0.2808 0.89095 0.0
H264 H 0.17355 0.18671 0.15422 0.0
H265 H 0.02807 0.20032 0.11726 0.0
H266 H 0.01489 0.26737 0.14566 0.0
H267 H 0.04522 0.3223 0.18086 0.0
H268 H 0.18838 0.30597 0.21817 0.0
H269 H 0.20192 0.23949 0.1897 0.0
C270 C 0.13923 0.20467 0.15233 0.0
C271 C 0.10203 0.18888 0.13365 0.0
C272 C 0.13118 0.24219 0.16881 0.0
C273 C 0.05731 0.21193 0.13149 0.0
C274 C 0.04966 0.2501 0.14773 0.0
C275 C 0.07848 0.30319 0.18293 0.0
C276 C 0.11538 0.31863 0.20169 0.0
C277 C 0.08607 0.26519 0.1665 0.0
C278 C 0.15954 0.29488 0.20388 0.0
C279 C 0.16731 0.25694 0.18761 0.0
H280 H 0.9176 0.11625 0.45241 0.0
H281 H 0.92314 0.95323 0.47787 0.0
H282 H 0.88046 0.97181 0.51094 0.0
H283 H 0.83786 0.03079 0.53249 0.0
H284 H 0.82155 0.18765 0.507 0.0
H285 H 0.87378 0.17645 0.4746 0.0
C286 C 0.90943 0.08499 0.46523 0.0
C287 C 0.92276 0.03292 0.46249 0.0
C288 C 0.88354 0.09518 0.48437 0.0
C289 C 0.91214 0.99292 0.47931 0.0
C290 C 0.88814 0.0037 0.49836 0.0
C291 C 0.84558 0.06257 0.51987 0.0
C292 C 0.82563 0.10984 0.52227 0.0
C293 C 0.87302 0.05412 0.50101 0.0
C294 C 0.83738 0.15145 0.50581 0.0
C295 C 0.86654 0.14455 0.48712 0.0
H296 H 0.95871 0.94064 0.78436 0.0
H297 H 0.86878 0.0539 0.80781 0.0
H298 H 0.80173 0.96949 0.83202 0.0
H299 H 0.76986 0.86496 0.84724 0.0
H300 H 0.85582 0.74874 0.82336 0.0
H301 H 0.92369 0.83329 0.799 0.0
C302 C 0.92442 0.94689 0.79474 0.0
C303 C 0.91921 0.00396 0.79417 0.0
C304 C 0.8854 0.89774 0.80871 0.0
C305 C 0.87411 0.01074 0.80776 0.0
C306 C 0.83562 0.96242 0.8217 0.0
C307 C 0.80259 0.8574 0.83651 0.0
C308 C 0.80738 0.80021 0.83722 0.0
C309 C 0.84091 0.90582 0.82235 0.0
C310 C 0.85151 0.79248 0.82344 0.0
C311 C 0.89014 0.84071 0.80937 0.0
H312 H 0.01236 0.8747 0.1176 0.0
H313 H 0.22697 0.98521 0.11218 0.0
H314 H 0.23668 0.9103 0.13483 0.0
H315 H 0.18461 0.82152 0.15916 0.0
H316 H 0.96902 0.70521 0.16219 0.0
H317 H 0.95956 0.7753 0.13776 0.0
C318 C 0.06115 0.88161 0.12111 0.0
C319 C 0.11889 0.93559 0.11345 0.0
C320 C 0.06629 0.83826 0.13403 0.0
C321 C 0.1818 0.9438 0.11787 0.0
C322 C 0.18737 0.90131 0.13095 0.0
C323 C 0.13535 0.81002 0.15416 0.0
C324 C 0.07771 0.75866 0.1631 0.0
C325 C 0.13 0.8494 0.13956 0.0
C326 C 0.01453 0.74567 0.15633 0.0
C327 C 0.0089 0.78537 0.14213 0.0
H328 H 0.13003 0.94192 0.45763 0.0
H329 H 0.23389 0.13944 0.43607 0.0
H330 H 0.32559 0.16976 0.46079 0.0
H331 H 0.3747 0.14 0.48915 0.0
H332 H 0.2645 0.94356 0.51157 0.0
H333 H 0.17709 0.91302 0.4857 0.0
C334 C 0.17296 0.99153 0.45809 0.0
C335 C 0.17519 0.0382 0.44489 0.0
C336 C 0.22435 0.00888 0.47257 0.0
C337 C 0.23093 0.10247 0.44602 0.0
C338 C 0.28327 0.11986 0.46019 0.0
C339 C 0.33131 0.0907 0.48846 0.0
C340 C 0.32675 0.04399 0.50217 0.0
C341 C 0.28016 0.07356 0.4737 0.0
C342 C 0.27029 0.98014 0.50095 0.0
C343 C 0.21992 0.96265 0.48623 0.0
H344 H 0.24204 0.20892 0.79353 0.0
H345 H 0.20703 0.36211 0.77468 0.0
H346 H 0.31006 0.44587 0.79207 0.0
H347 H 0.40628 0.47571 0.81441 0.0
H348 H 0.43769 0.32316 0.83596 0.0
H349 H 0.34157 0.23971 0.81527 0.0
C350 C 0.25734 0.26066 0.7931 0.0
C351 C 0.21646 0.27906 0.783 0.0
C352 C 0.31633 0.30891 0.80354 0.0
C353 C 0.23697 0.34639 0.7826 0.0
C354 C 0.29609 0.39448 0.79247 0.0
C355 C 0.39226 0.42423 0.81456 0.0
C356 C 0.42922 0.40594 0.82678 0.0
C357 C 0.33549 0.37627 0.8033 0.0
C358 C 0.41092 0.339 0.82646 0.0
C359 C 0.35536 0.29102 0.81481 0.0
H360 H 0.87838 0.00128 0.70812 0.0
H361 H 0.0071 0.21283 0.71229 0.0
H362 H 0.9366 0.2242 0.68723 0.0
H363 H 0.84153 0.17455 0.66327 0.0
H364 H 0.70359 0.96421 0.66197 0.0
H365 H 0.77544 0.95201 0.68624 0.0
C366 C 0.89058 0.04973 0.70356 0.0
C367 C 0.94794 0.10605 0.71195 0.0
C368 C 0.84869 0.05622 0.68947 0.0
C369 C 0.96302 0.16868 0.70612 0.0
C370 C 0.92289 0.17528 0.69171 0.0
C371 C 0.82576 0.12599 0.66855 0.0
C372 C 0.76687 0.07052 0.66042 0.0
C373 C 0.86578 0.11942 0.68323 0.0
C374 C 0.74925 0.008 0.66734 0.0
C375 C 0.79007 0.00086 0.68147 0.0
H376 H 0.98069 0.05043 0.01759 0.0
H377 H 0.98078 0.89921 0.05238 0.0
H378 H 0.9269 0.81879 0.02281 0.0
H379 H 0.87698 0.79121 0.98766 0.0
H380 H 0.88365 0.94421 0.95191 0.0
H381 H 0.93759 0.02435 0.98141 0.0
C382 C 0.96873 0.99979 0.01868 0.0
C383 C 0.98397 0.98046 0.03716 0.0
C384 C 0.93927 0.95437 0.00149 0.0
C385 C 0.96941 0.9151 0.03829 0.0
C386 C 0.93866 0.86921 0.02141 0.0
C387 C 0.89163 0.84237 0.98605 0.0
C388 C 0.87625 0.86152 0.9675 0.0
C389 C 0.92333 0.88833 0.00296 0.0
C390 C 0.89419 0.92785 0.96604 0.0
C391 C 0.92517 0.97377 0.98289 0.0
H392 H 0.15611 0.98892 0.37622 0.0
H393 H 0.9456 0.88899 0.36152 0.0
H394 H 0.95346 0.8003 0.34206 0.0
H395 H 0.02026 0.75285 0.32889 0.0
H396 H 0.22843 0.84521 0.34683 0.0
H397 H 0.22166 0.93576 0.36521 0.0
C398 C 0.11231 0.9478 0.36859 0.0
C399 C 0.05061 0.94548 0.36987 0.0
C400 C 0.11675 0.8958 0.35814 0.0
C401 C 0.9936 0.89158 0.36049 0.0
C402 C 0.99808 0.84098 0.34944 0.0
C403 C 0.06395 0.79158 0.33726 0.0
C404 C 0.12475 0.79162 0.33644 0.0
C405 C 0.05933 0.84251 0.34824 0.0
C406 C 0.18109 0.84395 0.34691 0.0
C407 C 0.17726 0.89576 0.35751 0.0
H408 H 0.24105 0.17236 0.70146 0.0
H409 H 0.19424 0.00054 0.73482 0.0
H410 H 0.28336 0.99168 0.71624 0.0
H411 H 0.37354 0.03216 0.68984 0.0
H412 H 0.41706 0.20364 0.65667 0.0
H413 H 0.33085 0.21348 0.67602 0.0
C414 C 0.25023 0.13291 0.70473 0.0
C415 C 0.21084 0.08702 0.71944 0.0
C416 C 0.30139 0.12831 0.69409 0.0
C417 C 0.2238 0.03648 0.72353 0.0
C418 C 0.27475 0.03141 0.71292 0.0
C419 C 0.36427 0.0718 0.68696 0.0
C420 C 0.40256 0.1176 0.672 0.0
C421 C 0.31375 0.07695 0.69807 0.0
C422 C 0.38977 0.16866 0.66843 0.0
C423 C 0.3399 0.17401 0.67935 0.0
H424 H 0.19499 0.30037 0.04275 0.0
H425 H 0.29926 0.20374 0.06239 0.0
H426 H 0.39117 0.26848 0.0388 0.0
H427 H 0.44006 0.3502 0.01166 0.0
H428 H 0.33048 0.44054 0.99108 0.0
H429 H 0.24304 0.38098 0.01616 0.0
C430 C 0.23803 0.29373 0.04211 0.0
C431 C 0.24006 0.2472 0.05442 0.0
C432 C 0.28986 0.32998 0.02826 0.0
C433 C 0.29623 0.23916 0.05313 0.0
C434 C 0.34877 0.27607 0.03959 0.0
C435 C 0.3969 0.35659 0.01259 0.0
C436 C 0.39245 0.40042 0.99955 0.0
C437 C 0.34573 0.32107 0.02687 0.0
C438 C 0.33626 0.4084 0.00116 0.0
C439 C 0.2858 0.37393 0.01542 0.0
H440 H 0.13645 0.28443 0.38935 0.0
H441 H 0.93596 0.14312 0.36792 0.0
H442 H 0.93987 0.22024 0.34356 0.0
H443 H 0.00288 0.32271 0.32606 0.0
H444 H 0.20163 0.46806 0.34791 0.0
H445 H 0.19613 0.39375 0.37391 0.0
C446 C 0.09323 0.27111 0.37963 0.0
C447 C 0.03619 0.2078 0.3804 0.0
C448 C 0.09589 0.31578 0.36537 0.0
C449 C 0.9807 0.19127 0.36761 0.0
C450 C 0.98291 0.23528 0.35357 0.0
C451 C 0.04463 0.33933 0.33678 0.0
C452 C 0.10272 0.40125 0.33477 0.0
C453 C 0.04072 0.297 0.35197 0.0
C454 C 0.15665 0.42032 0.34865 0.0
C455 C 0.15337 0.378 0.36371 0.0
loop_
_geom_bond_atom_site_label_1
_geom_bond_atom_site_label_2
_geom_bond_distance
_geom_bond_site_symmetry_2
_ccdc_geom_bond_type
Co0 O1 2.216 . S
Co0 O2 2.091 . S
Co0 O4 2.004 . S
Co0 O10 2.021 . S
Co0 O12 2.137 . S
Co0 O13 2.244 . S
O1 Co0 2.216 . S
O1 C8 1.247 1_545 S
O2 Co0 2.091 . S
O2 C8 1.261 1_545 S
C3 O12 1.247 . S
C3 O13 1.272 . S
O4 Co0 2.004 . S
O4 C9 1.259 . S
Co5 O6 2.061 . S
Co5 O11 2.052 1_455 S
Co5 O13 2.135 . S
O6 Co5 2.061 . S
O6 C9 1.235 . S
C7 O10 1.238 . S
C7 O11 1.241 1_455 S
C8 O1 1.247 1_565 S
C8 O2 1.261 1_565 S
C9 O4 1.259 . S
C9 O6 1.235 . S
O10 Co0 2.021 . S
O10 C7 1.238 . S
O11 Co5 2.052 1_655 S
O11 C7 1.241 1_655 S
O12 Co0 2.137 . S
O12 C3 1.247 . S
O13 Co0 2.244 . S
O13 C3 1.272 . S
O13 Co5 2.135 . S
Co14 O15 2.216 . S
Co14 O16 2.091 . S
Co14 O18 2.004 . S
Co14 O24 2.021 . S
Co14 O26 2.137 . S
Co14 O27 2.244 1_545 S
O15 Co14 2.216 . S
O15 C22 1.247 . S
O16 Co14 2.091 . S
O16 C22 1.261 . S
C17 O26 1.247 1_565 S
C17 O27 1.272 . S
O18 Co14 2.004 . S
O18 C23 1.259 . S
Co19 O20 2.061 1_565 S
Co19 O25 2.052 1_455 S
Co19 O27 2.135 . S
O20 Co19 2.061 1_545 S
O20 C23 1.235 . S
C21 O24 1.238 . S
C21 O25 1.241 1_445 S
C22 O15 1.247 . S
C22 O16 1.261 . S
C23 O18 1.259 . S
C23 O20 1.235 . S
O24 Co14 2.021 . S
O24 C21 1.238 . S
O25 Co19 2.052 1_655 S
O25 C21 1.241 1_665 S
O26 Co14 2.137 . S
O26 C17 1.247 1_545 S
O27 Co14 2.244 1_565 S
O27 C17 1.272 . S
O27 Co19 2.135 . S
Co28 O29 2.216 . S
Co28 O30 2.091 . S
Co28 O32 2.004 . S
Co28 O38 2.021 . S
Co28 O40 2.137 . S
Co28 O41 2.244 . S
O29 Co28 2.216 . S
O29 C36 1.247 . S
O30 Co28 2.091 . S
O30 C36 1.261 . S
C31 O40 1.247 . S
C31 O41 1.272 . S
O32 Co28 2.004 . S
O32 C37 1.259 . S
Co33 O34 2.061 . S
Co33 O39 2.052 . S
Co33 O41 2.135 . S
O34 Co33 2.061 . S
O34 C37 1.235 . S
C35 O38 1.238 . S
C35 O39 1.241 . S
C36 O29 1.247 . S
C36 O30 1.261 . S
C37 O32 1.259 . S
C37 O34 1.235 . S
O38 Co28 2.021 . S
O38 C35 1.238 . S
O39 Co33 2.052 . S
O39 C35 1.241 . S
O40 Co28 2.137 . S
O40 C31 1.247 . S
O41 Co28 2.244 . S
O41 C31 1.272 . S
O41 Co33 2.135 . S
H42 O68 0.856 . S
H43 O71 0.854 . S
H44 C79 0.932 . S
H45 C80 0.930 . S
H46 C82 0.930 . S
H47 C83 0.930 . S
H48 C85 0.931 1_655 S
H49 C86 0.930 1_655 S
H50 C88 0.930 . S
H51 C89 0.929 . S
H52 C91 0.930 1_655 S
H53 C92 0.931 . S
H54 C94 0.930 . S
H55 C95 0.929 . S
H56 C97 0.931 1_655 S
H57 C98 0.930 1_655 S
H58 C100 0.930 . S
H59 C101 0.932 . S
H60 C103 0.930 . S
H61 C104 0.929 . S
H62 C106 0.931 . S
H63 C107 0.930 . S
H64 C109 0.929 1_655 S
H65 C110 0.931 1_655 S
H66 C112 0.930 . S
H67 C113 0.929 . S
O68 H42 0.856 . S
O68 C114 1.300 . S
O69 C114 1.209 . S
O70 C115 1.199 . S
O71 H43 0.854 . S
O71 C115 1.297 . S
C72 C73 1.404 . S
C72 C77 1.397 . S
C72 C78 1.492 . S
C73 C72 1.404 . S
C73 C74 1.396 . S
C73 C84 1.492 . S
C74 C73 1.396 . S
C74 C75 1.397 . S
C74 C90 1.509 . S
C75 C74 1.397 . S
C75 C76 1.412 . S
C75 C96 1.485 . S
C76 C75 1.412 . S
C76 C77 1.388 . S
C76 C102 1.490 . S
C77 C72 1.397 . S
C77 C76 1.388 . S
C77 C108 1.519 . S
C78 C72 1.492 . S
C78 C79 1.362 1_455 S
C78 C83 1.390 . S
C79 H44 0.932 . S
C79 C78 1.362 1_655 S
C79 C80 1.372 . S
C80 H45 0.930 . S
C80 C79 1.372 . S
C80 C81 1.383 1_655 S
C81 C80 1.383 1_455 S
C81 C82 1.395 . S
C82 H46 0.930 . S
C82 C81 1.395 . S
C82 C83 1.362 . S
C83 H47 0.930 . S
C83 C78 1.390 . S
C83 C82 1.362 . S
C84 C73 1.492 . S
C84 C85 1.377 . S
C84 C89 1.397 . S
C85 H48 0.931 1_455 S
C85 C84 1.377 . S
C85 C86 1.376 . S
C86 H49 0.930 1_455 S
C86 C85 1.376 . S
C86 C87 1.376 . S
C87 C86 1.376 . S
C87 C88 1.378 . S
C87 C114 1.486 . S
C88 H50 0.930 . S
C88 C87 1.378 . S
C88 C89 1.376 . S
C89 H51 0.929 . S
C89 C84 1.397 . S
C89 C88 1.376 . S
C90 C74 1.509 . S
C90 C91 1.391 . S
C90 C95 1.386 . S
C91 H52 0.930 1_455 S
C91 C90 1.391 . S
C91 C92 1.375 . S
C92 H53 0.931 . S
C92 C91 1.375 . S
C92 C93 1.375 . S
C93 C92 1.375 . S
C93 C94 1.361 . S
C94 H54 0.930 . S
C94 C93 1.361 . S
C94 C95 1.399 . S
C95 H55 0.929 . S
C95 C90 1.386 . S
C95 C94 1.399 . S
C96 C75 1.485 . S
C96 C97 1.394 . S
C96 C101 1.360 . S
C97 H56 0.931 1_455 S
C97 C96 1.394 . S
C97 C98 1.372 . S
C98 H57 0.930 1_455 S
C98 C97 1.372 . S
C98 C99 1.397 . S
C99 C98 1.397 . S
C99 C100 1.390 . S
C99 C115 1.476 . S
C100 H58 0.930 . S
C100 C99 1.390 . S
C100 C101 1.366 . S
C101 H59 0.932 . S
C101 C96 1.360 . S
C101 C100 1.366 . S
C102 C76 1.490 . S
C102 C103 1.380 1_455 S
C102 C107 1.386 . S
C103 H60 0.930 . S
C103 C102 1.380 1_655 S
C103 C104 1.381 . S
C104 H61 0.929 . S
C104 C103 1.381 . S
C104 C105 1.371 1_655 S
C105 C104 1.371 1_455 S
C105 C106 1.380 . S
C106 H62 0.931 . S
C106 C105 1.380 . S
C106 C107 1.387 . S
C107 H63 0.930 . S
C107 C102 1.386 . S
C107 C106 1.387 . S
C108 C77 1.519 . S
C108 C109 1.377 . S
C108 C113 1.361 . S
C109 H64 0.929 1_455 S
C109 C108 1.377 . S
C109 C110 1.386 . S
C110 H65 0.931 1_455 S
C110 C109 1.386 . S
C110 C111 1.363 . S
C111 C110 1.363 . S
C111 C112 1.385 . S
C112 H66 0.930 . S
C112 C111 1.385 . S
C112 C113 1.396 . S
C113 H67 0.929 . S
C113 C108 1.361 . S
C113 C112 1.396 . S
C114 O68 1.300 . S
C114 O69 1.209 . S
C114 C87 1.486 . S
C115 O70 1.199 . S
C115 O71 1.297 . S
C115 C99 1.476 . S
H116 O142 0.856 . S
H117 O145 0.854 . S
H118 C153 0.930 1_565 S
H119 C154 0.930 1_565 S
H120 C156 0.930 . S
H121 C157 0.930 . S
H122 C159 0.931 . S
H123 C160 0.930 . S
H124 C162 0.930 . S
H125 C163 0.929 . S
H126 C165 0.930 . S
H127 C166 0.931 . S
H128 C168 0.930 . S
H129 C169 0.929 . S
H130 C171 0.931 . S
H131 C172 0.930 . S
H132 C174 0.930 . S
H133 C175 0.932 . S
H134 C177 0.914 1_565 S
H135 C178 0.929 1_565 S
H136 C180 0.931 . S
H137 C181 0.930 . S
H138 C183 0.929 . S
H139 C184 0.931 . S
H140 C186 0.930 . S
H141 C187 0.929 . S
O142 H116 0.856 . S
O142 C188 1.300 . S
O143 C188 1.209 . S
O144 C189 1.199 . S
O145 H117 0.854 . S
O145 C189 1.297 . S
C146 C147 1.404 . S
C146 C151 1.397 . S
C146 C152 1.492 . S
C147 C146 1.404 . S
C147 C148 1.396 . S
C147 C158 1.492 . S
C148 C147 1.396 . S
C148 C149 1.397 . S
C148 C164 1.509 . S
C149 C148 1.397 . S
C149 C150 1.412 . S
C149 C170 1.485 . S
C150 C149 1.412 . S
C150 C151 1.388 . S
C150 C176 1.490 . S
C151 C146 1.397 . S
C151 C150 1.388 . S
C151 C182 1.519 . S
C152 C146 1.492 . S
C152 C153 1.363 . S
C152 C157 1.390 . S
C153 H118 0.930 1_545 S
C153 C152 1.363 . S
C153 C154 1.372 . S
C154 H119 0.930 1_545 S
C154 C153 1.372 . S
C154 C155 1.383 . S
C155 C154 1.383 . S
C155 C156 1.395 . S
C156 H120 0.930 . S
C156 C155 1.395 . S
C156 C157 1.362 . S
C157 H121 0.930 . S
C157 C152 1.390 . S
C157 C156 1.362 . S
C158 C147 1.492 . S
C158 C159 1.377 . S
C158 C163 1.397 . S
C159 H122 0.931 . S
C159 C158 1.377 . S
C159 C160 1.376 . S
C160 H123 0.930 . S
C160 C159 1.376 . S
C160 C161 1.376 . S
C161 C160 1.376 . S
C161 C162 1.378 . S
C161 C188 1.486 . S
C162 H124 0.930 . S
C162 C161 1.378 . S
C162 C163 1.376 . S
C163 H125 0.929 . S
C163 C158 1.397 . S
C163 C162 1.376 . S
C164 C148 1.509 . S
C164 C165 1.391 . S
C164 C169 1.386 . S
C165 H126 0.930 . S
C165 C164 1.391 . S
C165 C166 1.375 . S
C166 H127 0.931 . S
C166 C165 1.375 . S
C166 C167 1.375 . S
C167 C166 1.375 . S
C167 C168 1.361 . S
C168 H128 0.930 . S
C168 C167 1.361 . S
C168 C169 1.399 . S
C169 H129 0.929 . S
C169 C164 1.386 . S
C169 C168 1.399 . S
C170 C149 1.485 . S
C170 C171 1.394 . S
C170 C175 1.360 . S
C171 H130 0.931 . S
C171 C170 1.394 . S
C171 C172 1.372 . S
C172 H131 0.930 . S
C172 C171 1.372 . S
C172 C173 1.397 . S
C173 C172 1.397 . S
C173 C174 1.390 . S
C173 C189 1.476 . S
C174 H132 0.930 . S
C174 C173 1.390 . S
C174 C175 1.366 . S
C175 H133 0.932 . S
C175 C170 1.360 . S
C175 C174 1.366 . S
C176 C150 1.490 . S
C176 C177 1.380 . S
C176 C181 1.386 . S
C177 H134 0.914 1_545 S
C177 C176 1.380 . S
C177 C178 1.381 . S
C178 H135 0.929 1_545 S
C178 C177 1.381 . S
C178 C179 1.371 . S
C179 C178 1.371 . S
C179 C180 1.380 . S
C180 H136 0.931 . S
C180 C179 1.380 . S
C180 C181 1.387 . S
C181 H137 0.930 . S
C181 C176 1.386 . S
C181 C180 1.387 . S
C182 C151 1.519 . S
C182 C183 1.377 . S
C182 C187 1.361 . S
C183 H138 0.929 . S
C183 C182 1.377 . S
C183 C184 1.386 . S
C184 H139 0.931 . S
C184 C183 1.386 . S
C184 C185 1.363 . S
C185 C184 1.363 . S
C185 C186 1.385 . S
C186 H140 0.930 . S
C186 C185 1.385 . S
C186 C187 1.396 . S
C187 H141 0.929 . S
C187 C182 1.361 . S
C187 C186 1.396 . S
C188 O142 1.300 . S
C188 O143 1.209 . S
C188 C161 1.486 . S
C189 O144 1.199 . S
C189 O145 1.297 . S
C189 C173 1.476 . S
H190 O216 0.856 . S
H191 O219 0.854 . S
H192 C227 0.930 . S
H193 C228 0.930 . S
H194 C230 0.930 . S
H195 C231 0.930 . S
H196 C233 0.931 . S
H197 C234 0.930 . S
H198 C236 0.930 . S
H199 C237 0.929 . S
H200 C239 0.930 . S
H201 C240 0.931 . S
H202 C242 0.930 . S
H203 C243 0.929 . S
H204 C245 0.931 . S
H205 C246 0.930 . S
H206 C248 0.930 . S
H207 C249 0.932 . S
H208 C251 0.930 . S
H209 C252 0.929 . S
H210 C254 0.931 . S
H211 C255 0.930 . S
H212 C257 0.929 . S
H213 C258 0.931 . S
H214 C260 0.930 . S
H215 C261 0.929 . S
O216 H190 0.856 . S
O216 C262 1.300 . S
O217 C262 1.209 . S
O218 C263 1.199 . S
O219 H191 0.854 . S
O219 C263 1.297 . S
C220 C221 1.404 . S
C220 C225 1.397 . S
C220 C226 1.492 . S
C221 C220 1.404 . S
C221 C222 1.396 . S
C221 C232 1.492 . S
C222 C221 1.396 . S
C222 C223 1.397 . S
C222 C238 1.509 . S
C223 C222 1.397 . S
C223 C224 1.412 . S
C223 C244 1.485 . S
C224 C223 1.412 . S
C224 C225 1.388 . S
C224 C250 1.490 . S
C225 C220 1.397 . S
C225 C224 1.388 . S
C225 C256 1.519 . S
C226 C220 1.492 . S
C226 C227 1.363 . S
C226 C231 1.390 . S
C227 H192 0.930 . S
C227 C226 1.363 . S
C227 C228 1.372 . S
C228 H193 0.930 . S
C228 C227 1.372 . S
C228 C229 1.383 . S
C229 C228 1.383 . S
C229 C230 1.395 . S
C230 H194 0.930 . S
C230 C229 1.395 . S
C230 C231 1.362 . S
C231 H195 0.930 . S
C231 C226 1.390 . S
C231 C230 1.362 . S
C232 C221 1.492 . S
C232 C233 1.377 . S
C232 C237 1.397 . S
C233 H196 0.931 . S
C233 C232 1.377 . S
C233 C234 1.376 1_556 S
C234 H197 0.930 . S
C234 C233 1.376 1_554 S
C234 C235 1.376 . S
C235 C234 1.376 . S
C235 C236 1.378 . S
C235 C262 1.486 . S
C236 H198 0.930 . S
C236 C235 1.378 . S
C236 C237 1.376 1_554 S
C237 H199 0.929 . S
C237 C232 1.397 . S
C237 C236 1.376 1_556 S
C238 C222 1.509 . S
C238 C239 1.391 . S
C238 C243 1.386 . S
C239 H200 0.930 . S
C239 C238 1.391 . S
C239 C240 1.375 . S
C240 H201 0.931 . S
C240 C239 1.375 . S
C240 C241 1.375 . S
C241 C240 1.375 . S
C241 C242 1.361 . S
C242 H202 0.930 . S
C242 C241 1.361 . S
C242 C243 1.399 . S
C243 H203 0.929 . S
C243 C238 1.386 . S
C243 C242 1.399 . S
C244 C223 1.485 . S
C244 C245 1.394 . S
C244 C249 1.360 . S
C245 H204 0.931 . S
C245 C244 1.394 . S
C245 C246 1.372 . S
C246 H205 0.930 . S
C246 C245 1.372 . S
C246 C247 1.397 . S
C247 C246 1.397 . S
C247 C248 1.390 . S
C247 C263 1.476 . S
C248 H206 0.930 . S
C248 C247 1.390 . S
C248 C249 1.366 . S
C249 H207 0.932 . S
C249 C244 1.360 . S
C249 C248 1.366 . S
C250 C224 1.490 . S
C250 C251 1.380 . S
C250 C255 1.386 . S
C251 H208 0.930 . S
C251 C250 1.380 . S
C251 C252 1.381 . S
C252 H209 0.929 . S
C252 C251 1.381 . S
C252 C253 1.371 . S
C253 C252 1.371 . S
C253 C254 1.380 . S
C254 H210 0.931 . S
C254 C253 1.380 . S
C254 C255 1.387 . S
C255 H211 0.930 . S
C255 C250 1.386 . S
C255 C254 1.387 . S
C256 C225 1.519 . S
C256 C257 1.377 . S
C256 C261 1.361 . S
C257 H212 0.929 . S
C257 C256 1.377 . S
C257 C258 1.386 . S
C258 H213 0.931 . S
C258 C257 1.386 . S
C258 C259 1.363 . S
C259 C258 1.363 . S
C259 C260 1.385 . S
C260 H214 0.930 . S
C260 C259 1.385 . S
C260 C261 1.396 . S
C261 H215 0.929 . S
C261 C256 1.361 . S
C261 C260 1.396 . S
C262 O216 1.300 . S
C262 O217 1.209 . S
C262 C235 1.486 . S
C263 O218 1.199 . S
C263 O219 1.297 . S
C263 C247 1.476 . S
H264 C270 0.930 . S
H265 C273 0.930 . S
H266 C274 0.930 . S
H267 C275 0.930 . S
H268 C278 0.930 . S
H269 C279 0.930 . S
C270 H264 0.930 . S
C270 C271 1.355 . S
C270 C272 1.415 . S
C271 C270 1.355 . S
C271 C273 1.419 . S
C272 C270 1.415 . S
C272 C277 1.425 . S
C272 C279 1.409 . S
C273 H265 0.930 . S
C273 C271 1.419 . S
C273 C274 1.362 . S
C274 H266 0.930 . S
C274 C273 1.362 . S
C274 C277 1.409 . S
C275 H267 0.930 . S
C275 C276 1.355 . S
C275 C277 1.415 . S
C276 C275 1.355 . S
C276 C278 1.419 . S
C277 C272 1.425 . S
C277 C274 1.409 . S
C277 C275 1.415 . S
C278 H268 0.930 . S
C278 C276 1.419 . S
C278 C279 1.362 . S
C279 H269 0.930 . S
C279 C272 1.409 . S
C279 C278 1.362 . S
H280 C286 0.930 . S
H281 C289 0.930 1_455 S
H282 C290 0.930 . S
H283 C291 0.930 . S
H284 C294 0.930 . S
H285 C295 0.930 . S
C286 H280 0.930 . S
C286 C287 1.355 . S
C286 C288 1.415 . S
C287 C286 1.355 . S
C287 C289 1.419 . S
C288 C286 1.415 . S
C288 C293 1.425 . S
C288 C295 1.409 . S
C289 H281 0.930 1_655 S
C289 C287 1.419 . S
C289 C290 1.362 . S
C290 H282 0.930 . S
C290 C289 1.362 . S
C290 C293 1.409 . S
C291 H283 0.930 . S
C291 C292 1.355 . S
C291 C293 1.415 . S
C292 C291 1.355 . S
C292 C294 1.419 . S
C293 C288 1.425 . S
C293 C290 1.409 . S
C293 C291 1.415 . S
C294 H284 0.930 . S
C294 C292 1.419 . S
C294 C295 1.362 . S
C295 H285 0.930 . S
C295 C288 1.409 . S
C295 C294 1.362 . S
H296 C302 0.930 . S
H297 C305 0.930 1_455 S
H298 C306 0.930 . S
H299 C307 0.930 . S
H300 C310 0.930 . S
H301 C311 0.930 . S
C302 H296 0.930 . S
C302 C303 1.355 . S
C302 C304 1.415 . S
C303 C302 1.355 . S
C303 C305 1.419 1_565 S
C304 C302 1.415 . S
C304 C309 1.425 . S
C304 C311 1.409 . S
C305 H297 0.930 1_655 S
C305 C303 1.419 1_545 S
C305 C306 1.362 1_545 S
C306 H298 0.930 . S
C306 C305 1.362 1_565 S
C306 C309 1.409 . S
C307 H299 0.930 . S
C307 C308 1.355 . S
C307 C309 1.415 . S
C308 C307 1.355 . S
C308 C310 1.419 . S
C309 C304 1.425 . S
C309 C306 1.409 . S
C309 C307 1.415 . S
C310 H300 0.930 . S
C310 C308 1.419 . S
C310 C311 1.362 . S
C311 H301 0.930 . S
C311 C304 1.409 . S
C311 C310 1.362 . S
H312 C318 0.930 . S
H313 C321 0.919 1_545 S
H314 C322 0.930 . S
H315 C323 0.930 . S
H316 C326 0.930 . S
H317 C327 0.930 1_655 S
C318 H312 0.930 . S
C318 C319 1.355 . S
C318 C320 1.415 . S
C319 C318 1.355 . S
C319 C321 1.418 . S
C320 C318 1.415 . S
C320 C325 1.425 . S
C320 C327 1.409 . S
C321 H313 0.919 1_565 S
C321 C319 1.418 . S
C321 C322 1.374 . S
C322 H314 0.930 . S
C322 C321 1.374 . S
C322 C325 1.409 . S
C323 H315 0.930 . S
C323 C324 1.355 . S
C323 C325 1.415 . S
C324 C323 1.355 . S
C324 C326 1.419 . S
C325 C320 1.425 . S
C325 C322 1.409 . S
C325 C323 1.415 . S
C326 H316 0.930 . S
C326 C324 1.419 . S
C326 C327 1.362 . S
C327 H317 0.930 1_455 S
C327 C320 1.409 . S
C327 C326 1.362 . S
H328 C334 0.930 . S
H329 C337 0.930 . S
H330 C338 0.930 . S
H331 C339 0.930 . S
H332 C342 0.930 . S
H333 C343 0.930 . S
C334 H328 0.930 . S
C334 C335 1.355 . S
C334 C336 1.415 . S
C335 C334 1.355 . S
C335 C337 1.419 . S
C336 C334 1.415 . S
C336 C341 1.425 . S
C336 C343 1.409 . S
C337 H329 0.930 . S
C337 C335 1.419 . S
C337 C338 1.362 . S
C338 H330 0.930 . S
C338 C337 1.362 . S
C338 C341 1.409 . S
C339 H331 0.930 . S
C339 C340 1.355 . S
C339 C341 1.415 . S
C340 C339 1.355 . S
C340 C342 1.419 . S
C341 C336 1.425 . S
C341 C338 1.409 . S
C341 C339 1.415 . S
C342 H332 0.930 . S
C342 C340 1.419 . S
C342 C343 1.362 . S
C343 H333 0.930 . S
C343 C336 1.409 . S
C343 C342 1.362 . S
H344 C350 0.930 . S
H345 C353 0.930 . S
H346 C354 0.930 . S
H347 C355 0.930 . S
H348 C358 0.930 . S
H349 C359 0.930 . S
C350 H344 0.930 . S
C350 C351 1.355 . S
C350 C352 1.415 . S
C351 C350 1.355 . S
C351 C353 1.419 . S
C352 C350 1.415 . S
C352 C357 1.425 . S
C352 C359 1.409 . S
C353 H345 0.930 . S
C353 C351 1.419 . S
C353 C354 1.362 . S
C354 H346 0.930 . S
C354 C353 1.362 . S
C354 C357 1.409 . S
C355 H347 0.930 . S
C355 C356 1.355 . S
C355 C357 1.415 . S
C356 C355 1.355 . S
C356 C358 1.419 . S
C357 C352 1.425 . S
C357 C354 1.409 . S
C357 C355 1.415 . S
C358 H348 0.930 . S
C358 C356 1.419 . S
C358 C359 1.362 . S
C359 H349 0.930 . S
C359 C352 1.409 . S
C359 C358 1.362 . S
H360 C366 0.930 . S
H361 C369 0.930 . S
H362 C370 0.930 . S
H363 C371 0.930 . S
H364 C374 0.930 . S
H365 C375 0.930 . S
C366 H360 0.930 . S
C366 C367 1.355 . S
C366 C368 1.415 . S
C367 C366 1.355 . S
C367 C369 1.419 1_655 S
C368 C366 1.415 . S
C368 C373 1.425 . S
C368 C375 1.409 . S
C369 H361 0.930 . S
C369 C367 1.419 1_455 S
C369 C370 1.362 . S
C370 H362 0.930 . S
C370 C369 1.362 . S
C370 C373 1.409 1_455 S
C371 H363 0.930 . S
C371 C372 1.355 . S
C371 C373 1.415 . S
C372 C371 1.355 . S
C372 C374 1.419 . S
C373 C368 1.425 . S
C373 C370 1.409 1_655 S
C373 C371 1.415 . S
C374 H364 0.930 . S
C374 C372 1.419 . S
C374 C375 1.362 . S
C375 H365 0.930 . S
C375 C368 1.409 . S
C375 C374 1.362 . S
H376 C382 0.930 1_545 S
H377 C385 0.930 . S
H378 C386 0.930 . S
H379 C387 0.930 . S
H380 C390 0.930 . S
H381 C391 0.930 1_545 S
C382 H376 0.930 1_565 S
C382 C383 1.355 . S
C382 C384 1.415 . S
C383 C382 1.355 . S
C383 C385 1.419 . S
C384 C382 1.415 . S
C384 C389 1.425 . S
C384 C391 1.409 1_554 S
C385 H377 0.930 . S
C385 C383 1.419 . S
C385 C386 1.362 . S
C386 H378 0.930 . S
C386 C385 1.362 . S
C386 C389 1.409 . S
C387 H379 0.930 . S
C387 C388 1.355 . S
C387 C389 1.415 1_556 S
C388 C387 1.355 . S
C388 C390 1.419 . S
C389 C384 1.425 . S
C389 C386 1.409 . S
C389 C387 1.415 1_554 S
C390 H380 0.930 . S
C390 C388 1.419 . S
C390 C391 1.362 . S
C391 H381 0.930 1_565 S
C391 C384 1.409 1_556 S
C391 C390 1.362 . S
H392 C398 0.930 . S
H393 C401 0.930 . S
H394 C402 0.930 . S
H395 C403 0.930 . S
H396 C406 0.930 . S
H397 C407 0.930 . S
C398 H392 0.930 . S
C398 C399 1.355 . S
C398 C400 1.415 . S
C399 C398 1.355 . S
C399 C401 1.419 1_455 S
C400 C398 1.415 . S
C400 C405 1.425 . S
C400 C407 1.409 . S
C401 H393 0.930 . S
C401 C399 1.419 1_655 S
C401 C402 1.362 . S
C402 H394 0.930 . S
C402 C401 1.362 . S
C402 C405 1.409 1_655 S
C403 H395 0.930 . S
C403 C404 1.355 1_655 S
C403 C405 1.415 1_655 S
C404 C403 1.355 1_455 S
C404 C406 1.419 . S
C405 C400 1.425 . S
C405 C402 1.409 1_455 S
C405 C403 1.415 1_455 S
C406 H396 0.930 . S
C406 C404 1.419 . S
C406 C407 1.362 . S
C407 H397 0.930 . S
C407 C400 1.409 . S
C407 C406 1.362 . S
H408 C414 0.930 . S
H409 C417 0.930 . S
H410 C418 0.930 . S
H411 C419 0.930 . S
H412 C422 0.930 . S
H413 C423 0.930 . S
C414 H408 0.930 . S
C414 C415 1.355 . S
C414 C416 1.415 . S
C415 C414 1.355 . S
C415 C417 1.419 . S
C416 C414 1.415 . S
C416 C421 1.425 . S
C416 C423 1.409 . S
C417 H409 0.930 . S
C417 C415 1.419 . S
C417 C418 1.362 . S
C418 H410 0.930 . S
C418 C417 1.362 . S
C418 C421 1.409 . S
C419 H411 0.930 . S
C419 C420 1.355 . S
C419 C421 1.415 . S
C420 C419 1.355 . S
C420 C422 1.419 . S
C421 C416 1.425 . S
C421 C418 1.409 . S
C421 C419 1.415 . S
C422 H412 0.930 . S
C422 C420 1.419 . S
C422 C423 1.362 . S
C423 H413 0.930 . S
C423 C416 1.409 . S
C423 C422 1.362 . S
H424 C430 0.930 . S
H425 C433 0.930 . S
H426 C434 0.930 . S
H427 C435 0.930 . S
H428 C438 0.930 . S
H429 C439 0.930 . S
C430 H424 0.930 . S
C430 C431 1.355 . S
C430 C432 1.415 . S
C431 C430 1.355 . S
C431 C433 1.419 . S
C432 C430 1.415 . S
C432 C437 1.425 . S
C432 C439 1.409 1_554 S
C433 H425 0.930 . S
C433 C431 1.419 . S
C433 C434 1.362 . S
C434 H426 0.930 . S
C434 C433 1.362 . S
C434 C437 1.409 . S
C435 H427 0.930 . S
C435 C436 1.320 1_554 S
C435 C437 1.415 . S
C436 C435 1.320 1_556 S
C436 C438 1.436 . S
C437 C432 1.425 . S
C437 C434 1.409 . S
C437 C435 1.415 . S
C438 H428 0.930 . S
C438 C436 1.436 . S
C438 C439 1.362 . S
C439 H429 0.930 . S
C439 C432 1.409 1_556 S
C439 C438 1.362 . S
H440 C446 0.930 . S
H441 C449 0.930 . S
H442 C450 0.930 . S
H443 C451 0.930 . S
H444 C454 0.930 . S
H445 C455 0.930 . S
C446 H440 0.930 . S
C446 C447 1.355 . S
C446 C448 1.415 . S
C447 C446 1.355 . S
C447 C449 1.419 . S
C448 C446 1.415 . S
C448 C453 1.425 . S
C448 C455 1.409 . S
C449 H441 0.930 . S
C449 C447 1.419 . S
C449 C450 1.362 . S
C450 H442 0.930 . S
C450 C449 1.362 . S
C450 C453 1.409 . S
C451 H443 0.930 . S
C451 C452 1.355 . S
C451 C453 1.415 . S
C452 C451 1.355 . S
C452 C454 1.419 . S
C453 C448 1.425 . S
C453 C450 1.409 . S
C453 C451 1.415 . S
C454 H444 0.930 . S
C454 C452 1.419 . S
C454 C455 1.362 . S
C455 H445 0.930 . S
C455 C448 1.409 . S
C455 C454 1.362 . S
C276 C81 1.513 . S
C271 C3 1.602 . S
C287 C21 1.462 1_655 S
C292 C155 1.400 . S
C303 C37 2.045 1_665 S
C308 C259 2.084 . S
C319 C8 0.888 . S
C324 C93 0.897 . S
C340 C167 0.856 . S
C335 C23 0.901 . S
C351 C35 1.614 . S
C356 C253 1.484 . S
C372 C185 2.072 . S
C367 C31 2.080 1_655 S
C383 C7 1.573 1_665 S
C388 C229 1.536 . S
C404 C105 1.514 . S
C399 C17 1.686 . S
C420 C179 1.398 . S
C415 C36 1.555 . S
C436 C241 0.901 . S
C431 C9 0.912 . S
C447 C22 2.108 . S
C452 C111 2.111 . S
