# Generated by pormake.
# Topology pth, (4,4)-cn, num edge types: 1
# Building blocks:
#     Node 0, Type 0, BuildingBlock: GALJAG_clean_sbu_0, # of connection points: 4
#     Node 1, Type 0, BuildingBlock: GALJAG_clean_sbu_0, # of connection points: 4
#     Node 2, Type 0, BuildingBlock: GALJAG_clean_sbu_0, # of connection points: 4
#     Node 3, Type 1, BuildingBlock: NAHDIM_clean_linker_0, # of connection points: 4
#     Node 4, Type 1, BuildingBlock: NAHDIM_clean_linker_0, # of connection points: 4
#     Node 5, Type 1, BuildingBlock: NAHDIM_clean_linker_0, # of connection points: 4
#     Edge 6, Type (0, 1), BuildingBlock: MIFKUJ_clean_linker_0, # of connection points: 2
#     Edge 7, Type (0, 1), BuildingBlock: MIFKUJ_clean_linker_0, # of connection points: 2
#     Edge 8, Type (0, 1), BuildingBlock: MIFKUJ_clean_linker_0, # of connection points: 2
#     Edge 9, Type (0, 1), BuildingBlock: MIFKUJ_clean_linker_0, # of connection points: 2
#     Edge 10, Type (0, 1), BuildingBlock: MIFKUJ_clean_linker_0, # of connection points: 2
#     Edge 11, Type (0, 1), BuildingBlock: MIFKUJ_clean_linker_0, # of connection points: 2
#     Edge 12, Type (0, 1), BuildingBlock: MIFKUJ_clean_linker_0, # of connection points: 2
#     Edge 13, Type (0, 1), BuildingBlock: MIFKUJ_clean_linker_0, # of connection points: 2
#     Edge 14, Type (0, 1), BuildingBlock: MIFKUJ_clean_linker_0, # of connection points: 2
#     Edge 15, Type (0, 1), BuildingBlock: MIFKUJ_clean_linker_0, # of connection points: 2
#     Edge 16, Type (0, 1), BuildingBlock: MIFKUJ_clean_linker_0, # of connection points: 2
#     Edge 17, Type (0, 1), BuildingBlock: MIFKUJ_clean_linker_0, # of connection points: 2
# Relax obj value: 0.024
# Max RMSD: 0.067
# Mean RMSD: 0.066
data_MOF--net-pth--node1-GALJAG_clean_sbu_0--node2-NAHDIM_clean_linker_0--edge1-MIFKUJ_clean_linker_0
_symmetry_space_group_name_H-M    P1
_symmetry_Int_Tables_number       1
_symmetry_cell_setting            triclinic
loop_
_symmetry_equiv_pos_as_xyz
'x, y, z'
_cell_length_a     39.460017
_cell_length_b     39.432322
_cell_length_c     95.861865
_cell_angle_alpha  89.873258
_cell_angle_beta   90.778692
_cell_angle_gamma 120.02981
loop_
_atom_site_label
_atom_site_type_symbol
_atom_site_fract_x
_atom_site_fract_y
_atom_site_fract_z
_atom_type_partial_charge
In0 In 0.00426 0.03062 0.03463 0.0
O1 O 0.97911 0.06911 0.04184 0.0
O2 O 0.02629 0.07114 0.05342 0.0
C3 C 0.94494 0.98062 0.01784 0.0
C4 C 0.06212 0.08087 0.01792 0.0
C5 C 0.00838 0.97637 0.05059 0.0
O6 O 0.9393 0.99514 0.02869 0.0
O7 O 0.98033 0.99173 0.0154 0.0
O8 O 0.03397 0.99612 0.04165 0.0
O9 O 0.98095 0.98388 0.05135 0.0
C10 C 0.00264 0.08358 0.05206 0.0
O11 O 0.06866 0.0661 0.0286 0.0
O12 O 0.02656 0.07 0.01563 0.0
In13 In 0.01489 0.04408 0.37869 0.0
O14 O 0.05142 0.101 0.36645 0.0
O15 O 0.98976 0.0695 0.36332 0.0
C16 C 0.06791 0.04281 0.39633 0.0
C17 C 0.96397 0.044 0.39714 0.0
C18 C 0.00403 0.98693 0.3608 0.0
O19 O 0.07351 0.07407 0.39059 0.0
O20 O 0.03573 0.01274 0.39323 0.0
O21 O 0.97696 0.98409 0.36848 0.0
O22 O 0.03621 0.01847 0.36216 0.0
C23 C 0.02207 0.09868 0.3601 0.0
O24 O 0.95444 0.01639 0.38852 0.0
O25 O 0.9991 0.07126 0.3965 0.0
In26 In 0.0049 0.02528 0.71053 0.0
O27 O 0.96795 0.95967 0.71509 0.0
O28 O 0.97097 0.99911 0.73063 0.0
C29 C 0.05779 0.02242 0.69376 0.0
C30 C 0.95648 0.03604 0.69306 0.0
C31 C 0.05369 0.0827 0.72826 0.0
O32 O 0.03771 0.99571 0.70235 0.0
O33 O 0.05134 0.05072 0.69366 0.0
O34 O 0.0222 0.07982 0.72367 0.0
O35 O 0.06042 0.05636 0.72402 0.0
C36 C 0.95754 0.96399 0.72699 0.0
O37 O 0.97695 0.06045 0.7024 0.0
O38 O 0.96025 0.00621 0.69257 0.0
C39 C 0.00982 0.64793 0.30177 0.0
C40 C 0.01777 0.67744 0.29009 0.0
C41 C 0.99901 0.63548 0.26922 0.0
C42 C 0.03571 0.63922 0.26655 0.0
C43 C 0.03925 0.61426 0.25703 0.0
C44 C 0.00542 0.58453 0.25021 0.0
C45 C 0.96855 0.58107 0.25266 0.0
C46 C 0.96597 0.60701 0.26201 0.0
C47 C 0.0792 0.6195 0.25434 0.0
C48 C 0.93189 0.54963 0.24556 0.0
C49 C 0.99922 0.3099 0.27671 0.0
C50 C 0.98791 0.33429 0.2682 0.0
C51 C 0.01326 0.40256 0.26153 0.0
C52 C 0.97987 0.39604 0.25386 0.0
C53 C 0.97934 0.42666 0.24656 0.0
C54 C 0.01334 0.46419 0.24652 0.0
C55 C 0.04722 0.47062 0.25402 0.0
C56 C 0.04648 0.43979 0.26159 0.0
C57 C 0.94225 0.41897 0.23905 0.0
C58 C 0.0841 0.51015 0.25421 0.0
C59 C 0.0352 0.43486 0.15254 0.0
C60 C 0.9991 0.43118 0.15577 0.0
C61 C 0.99651 0.45722 0.16504 0.0
C62 C 0.03105 0.48786 0.17121 0.0
C63 C 0.0677 0.49147 0.1682 0.0
C64 C 0.06942 0.46476 0.15897 0.0
C65 C 0.95689 0.45226 0.16815 0.0
C66 C 0.10505 0.52381 0.17464 0.0
C67 C 0.06917 0.76946 0.16952 0.0
C68 C 0.06281 0.74709 0.15578 0.0
C69 C 0.03205 0.67789 0.16286 0.0
C70 C 0.99686 0.64224 0.16303 0.0
C71 C 0.99459 0.60891 0.16924 0.0
C72 C 0.02858 0.61138 0.17534 0.0
C73 C 0.06451 0.64715 0.17501 0.0
C74 C 0.06587 0.68012 0.16886 0.0
C75 C 0.95582 0.57119 0.16942 0.0
C76 C 0.1014 0.65064 0.18131 0.0
C77 C 0.00861 0.55629 0.24091 0.0
C78 C 0.00854 0.52415 0.24707 0.0
C79 C 0.01302 0.49709 0.2391 0.0
C80 C 0.01731 0.50183 0.22448 0.0
C81 C 0.022 0.47525 0.21611 0.0
C82 C 0.02544 0.47981 0.20171 0.0
C83 C 0.02521 0.51163 0.19515 0.0
C84 C 0.02879 0.51664 0.18053 0.0
C85 C 0.0296 0.54923 0.1744 0.0
C86 C 0.0264 0.57692 0.18247 0.0
C87 C 0.02177 0.57193 0.19706 0.0
C88 C 0.01763 0.59883 0.20545 0.0
C89 C 0.01336 0.59382 0.21981 0.0
C90 C 0.01291 0.56164 0.22633 0.0
C91 C 0.01709 0.53418 0.21808 0.0
C92 C 0.02136 0.53925 0.20342 0.0
C93 C 0.08798 0.44223 0.12691 0.0
C94 C 0.06758 0.40908 0.13754 0.0
O95 O 0.99414 0.65857 0.27857 0.0
O96 O 0.03175 0.70913 0.15692 0.0
O97 O 0.03541 0.40929 0.14308 0.0
O98 O 0.01455 0.37405 0.26911 0.0
H99 H 0.04911 0.69147 0.28732 0.0
H100 H 0.01731 0.62567 0.29828 0.0
H101 H 0.97843 0.63267 0.30466 0.0
H102 H 0.02806 0.66303 0.31114 0.0
H103 H 0.06192 0.66164 0.27166 0.0
H104 H 0.93784 0.60452 0.26402 0.0
H105 H 0.08043 0.59374 0.25837 0.0
H106 H 0.10306 0.64629 0.25942 0.0
H107 H 0.08452 0.62118 0.24294 0.0
H108 H 0.90529 0.55021 0.24884 0.0
H109 H 0.9281 0.52037 0.24796 0.0
H110 H 0.93466 0.55347 0.23407 0.0
H111 H 0.95692 0.32692 0.26949 0.0
H112 H 0.97574 0.29576 0.28478 0.0
H113 H 0.02237 0.33025 0.28439 0.0
H114 H 0.00947 0.27737 0.26177 0.0
H115 H 0.95386 0.36739 0.25368 0.0
H116 H 0.07208 0.44454 0.26753 0.0
H117 H 0.94677 0.42038 0.22762 0.0
H118 H 0.93479 0.44176 0.24182 0.0
H119 H 0.91702 0.38975 0.24156 0.0
H120 H 0.10964 0.50857 0.25843 0.0
H121 H 0.07961 0.53046 0.26089 0.0
H122 H 0.09096 0.52266 0.24355 0.0
H123 H 0.08858 0.41283 0.14608 0.0
H124 H 0.97285 0.40792 0.15084 0.0
H125 H 0.0976 0.46778 0.15679 0.0
H126 H 0.95218 0.44995 0.17959 0.0
H127 H 0.93265 0.42585 0.16301 0.0
H128 H 0.95577 0.47844 0.16452 0.0
H129 H 0.13134 0.52295 0.17114 0.0
H130 H 0.10356 0.52137 0.18618 0.0
H131 H 0.10843 0.5527 0.17188 0.0
H132 H 0.08997 0.74658 0.15323 0.0
H133 H 0.09359 0.80011 0.1685 0.0
H134 H 0.07682 0.75538 0.17807 0.0
H135 H 0.04221 0.76984 0.17244 0.0
H136 H 0.97094 0.64072 0.15838 0.0
H137 H 0.09341 0.70739 0.16892 0.0
H138 H 0.94809 0.56092 0.18033 0.0
H139 H 0.95821 0.54821 0.16359 0.0
H140 H 0.93177 0.57447 0.16468 0.0
H141 H 0.12766 0.67946 0.17915 0.0
H142 H 0.1062 0.62711 0.17716 0.0
H143 H 0.09822 0.64682 0.19278 0.0
H144 H 0.00533 0.52035 0.25829 0.0
H145 H 0.02281 0.45044 0.2206 0.0
H146 H 0.02857 0.45822 0.19578 0.0
H147 H 0.03277 0.5531 0.16319 0.0
H148 H 0.0176 0.62408 0.20101 0.0
H149 H 0.01036 0.61549 0.22574 0.0
H150 H 0.06723 0.43948 0.11844 0.0
H151 H 0.11311 0.44127 0.12224 0.0
H152 H 0.0994 0.47126 0.13197 0.0
C153 C 0.40553 0.03039 0.63884 0.0
C154 C 0.38764 0.04073 0.62642 0.0
C155 C 0.41157 0.0251 0.60553 0.0
C156 C 0.4327 0.06221 0.5994 0.0
C157 C 0.46263 0.07042 0.58994 0.0
C158 C 0.47133 0.04078 0.58645 0.0
C159 C 0.44902 0.00289 0.59218 0.0
C160 C 0.41909 0.99544 0.60157 0.0
C161 C 0.48511 0.11082 0.5837 0.0
C162 C 0.45711 0.97048 0.58847 0.0
C163 C 0.79303 0.1762 0.584 0.0
C164 C 0.75806 0.13902 0.58965 0.0
C165 C 0.69192 0.12906 0.59089 0.0
C166 C 0.67091 0.08863 0.58813 0.0
C167 C 0.63174 0.07038 0.58352 0.0
C168 C 0.6135 0.09316 0.58152 0.0
C169 C 0.63402 0.13348 0.58505 0.0
C170 C 0.6729 0.15077 0.58987 0.0
C171 C 0.61024 0.02705 0.58036 0.0
C172 C 0.61533 0.15856 0.58328 0.0
C173 C 0.66003 0.10161 0.49207 0.0
C174 C 0.64106 0.06362 0.49755 0.0
C175 C 0.60571 0.0494 0.50469 0.0
C176 C 0.58949 0.074 0.50652 0.0
C177 C 0.60767 0.11161 0.50037 0.0
C178 C 0.64251 0.12469 0.49302 0.0
C179 C 0.58634 0.00858 0.51063 0.0
C180 C 0.59101 0.13847 0.50194 0.0
C181 C 0.28319 0.97935 0.51169 0.0
C182 C 0.3123 0.0067 0.50088 0.0
C183 C 0.3724 0.00332 0.50068 0.0
C184 C 0.38339 0.97515 0.503 0.0
C185 C 0.42077 0.98578 0.5083 0.0
C186 C 0.44775 0.02565 0.51118 0.0
C187 C 0.43754 0.05453 0.50808 0.0
C188 C 0.40005 0.04309 0.50274 0.0
C189 C 0.43108 0.9544 0.51123 0.0
C190 C 0.46599 0.09743 0.51069 0.0
C191 C 0.50425 0.04977 0.577 0.0
C192 C 0.54157 0.06434 0.58297 0.0
C193 C 0.57432 0.07575 0.57465 0.0
C194 C 0.56987 0.07223 0.55997 0.0
C195 C 0.60231 0.08421 0.55128 0.0
C196 C 0.59773 0.08078 0.53686 0.0
C197 C 0.56051 0.06532 0.53052 0.0
C198 C 0.55562 0.06181 0.51585 0.0
C199 C 0.51844 0.04782 0.50985 0.0
C200 C 0.48579 0.03714 0.51817 0.0
C201 C 0.48995 0.03945 0.53288 0.0
C202 C 0.4576 0.02839 0.54155 0.0
C203 C 0.46212 0.03141 0.556 0.0
C204 C 0.49918 0.0458 0.56234 0.0
C205 C 0.53214 0.057 0.55381 0.0
C206 C 0.52749 0.05368 0.53906 0.0
C207 C 0.75847 0.15591 0.4959 0.0
C208 C 0.72714 0.11493 0.49112 0.0
O209 O 0.38356 0.01696 0.61513 0.0
O210 O 0.33509 0.99123 0.49641 0.0
O211 O 0.69521 0.11671 0.48581 0.0
O212 O 0.73053 0.14811 0.59442 0.0
H213 H 0.40787 0.07207 0.62399 0.0
H214 H 0.43519 0.03599 0.63616 0.0
H215 H 0.38716 0.99899 0.64162 0.0
H216 H 0.40831 0.04874 0.64805 0.0
H217 H 0.42564 0.08471 0.60187 0.0
H218 H 0.40209 0.96668 0.60617 0.0
H219 H 0.51655 0.12433 0.58663 0.0
H220 H 0.47421 0.1304 0.58725 0.0
H221 H 0.48291 0.1087 0.57215 0.0
H222 H 0.43673 0.94243 0.59365 0.0
H223 H 0.48759 0.9791 0.59159 0.0
H224 H 0.45447 0.96578 0.577 0.0
H225 H 0.74595 0.11803 0.58072 0.0
H226 H 0.81555 0.16967 0.58008 0.0
H227 H 0.8064 0.19914 0.59224 0.0
H228 H 0.78329 0.18784 0.57521 0.0
H229 H 0.68511 0.07137 0.58948 0.0
H230 H 0.68921 0.1818 0.59231 0.0
H231 H 0.60616 0.02246 0.5689 0.0
H232 H 0.58074 0.01272 0.58507 0.0
H233 H 0.62641 0.01254 0.58429 0.0
H234 H 0.63589 0.18983 0.58586 0.0
H235 H 0.58963 0.1476 0.59019 0.0
H236 H 0.60466 0.15653 0.57237 0.0
H237 H 0.71888 0.09557 0.50043 0.0
H238 H 0.65397 0.04521 0.4963 0.0
H239 H 0.65714 0.15369 0.48848 0.0
H240 H 0.59021 0.01038 0.52215 0.0
H241 H 0.599 0.99113 0.50645 0.0
H242 H 0.55441 0.99298 0.50829 0.0
H243 H 0.61012 0.16779 0.49733 0.0
H244 H 0.58685 0.14225 0.51315 0.0
H245 H 0.56188 0.12512 0.49669 0.0
H246 H 0.3303 0.03531 0.50627 0.0
H247 H 0.26378 0.99062 0.51504 0.0
H248 H 0.29939 0.9778 0.52101 0.0
H249 H 0.26494 0.94924 0.50743 0.0
H250 H 0.36211 0.9446 0.50107 0.0
H251 H 0.39251 0.06527 0.50018 0.0
H252 H 0.43607 0.95334 0.52261 0.0
H253 H 0.45872 0.96156 0.50593 0.0
H254 H 0.40767 0.92498 0.5077 0.0
H255 H 0.45384 0.11635 0.50748 0.0
H256 H 0.49334 0.1065 0.50489 0.0
H257 H 0.47386 0.1024 0.52197 0.0
H258 H 0.54528 0.06762 0.59421 0.0
H259 H 0.63173 0.09647 0.5555 0.0
H260 H 0.62387 0.09063 0.53076 0.0
H261 H 0.515 0.04594 0.49858 0.0
H262 H 0.42838 0.01727 0.53728 0.0
H263 H 0.43619 0.02248 0.56214 0.0
H264 H 0.7681 0.17669 0.48701 0.0
H265 H 0.78423 0.15525 0.50039 0.0
H266 H 0.74642 0.16671 0.50406 0.0
C267 C 0.73217 0.63379 0.82587 0.0
C268 C 0.70665 0.64174 0.8157 0.0
C269 C 0.64752 0.62657 0.82894 0.0
C270 C 0.62709 0.6431 0.83498 0.0
C271 C 0.59116 0.61976 0.84151 0.0
C272 C 0.57555 0.57876 0.8422 0.0
C273 C 0.5959 0.56168 0.83606 0.0
C274 C 0.63161 0.58571 0.82942 0.0
C275 C 0.57 0.63897 0.84776 0.0
C276 C 0.58005 0.51805 0.83664 0.0
C277 C 0.35012 0.46221 0.78449 0.0
C278 C 0.34837 0.43285 0.79532 0.0
C279 C 0.37114 0.45886 0.81863 0.0
C280 C 0.39226 0.44021 0.82232 0.0
C281 C 0.4227 0.4569 0.83228 0.0
C282 C 0.43228 0.49311 0.8386 0.0
C283 C 0.41 0.51121 0.83526 0.0
C284 C 0.3792 0.49342 0.82545 0.0
C285 C 0.44523 0.43632 0.83582 0.0
C286 C 0.41953 0.54991 0.84171 0.0
C287 C 0.34868 0.45036 0.92745 0.0
C288 C 0.3638 0.42737 0.92234 0.0
C289 C 0.40058 0.44492 0.91599 0.0
C290 C 0.42205 0.48615 0.91444 0.0
C291 C 0.40717 0.50934 0.91992 0.0
C292 C 0.3709 0.49107 0.92657 0.0
C293 C 0.41634 0.41942 0.91085 0.0
C294 C 0.42926 0.55337 0.91855 0.0
C295 C 0.73885 0.63519 0.93388 0.0
C296 C 0.70718 0.64669 0.93433 0.0
C297 C 0.63794 0.59849 0.93258 0.0
C298 C 0.61621 0.55774 0.9315 0.0
C299 C 0.58098 0.5392 0.9238 0.0
C300 C 0.56663 0.56213 0.91749 0.0
C301 C 0.58735 0.60335 0.91937 0.0
C302 C 0.62319 0.62116 0.92672 0.0
C303 C 0.5597 0.49523 0.92211 0.0
C304 C 0.57204 0.62868 0.91343 0.0
C305 C 0.53822 0.55398 0.84954 0.0
C306 C 0.5037 0.53523 0.84158 0.0
C307 C 0.46731 0.51321 0.84789 0.0
C308 C 0.46504 0.51057 0.86261 0.0
C309 C 0.42888 0.49006 0.86935 0.0
C310 C 0.427 0.48856 0.88385 0.0
C311 C 0.46129 0.50654 0.89217 0.0
C312 C 0.45975 0.50515 0.90692 0.0
C313 C 0.49444 0.5234 0.91484 0.0
C314 C 0.53093 0.54316 0.90845 0.0
C315 C 0.53305 0.54484 0.89372 0.0
C316 C 0.56926 0.56417 0.88693 0.0
C317 C 0.57104 0.56712 0.87247 0.0
C318 C 0.53671 0.55023 0.86422 0.0
C319 C 0.49994 0.52909 0.87079 0.0
C320 C 0.49809 0.52671 0.88557 0.0
C321 C 0.24543 0.40709 0.92811 0.0
C322 C 0.28 0.39983 0.9291 0.0
O323 O 0.68241 0.65128 0.82296 0.0
O324 O 0.67308 0.61518 0.9393 0.0
O325 O 0.31292 0.43426 0.93336 0.0
O326 O 0.34324 0.44433 0.80842 0.0
H327 H 0.6887 0.61517 0.80917 0.0
H328 H 0.71369 0.60845 0.83263 0.0
H329 H 0.74997 0.65968 0.83269 0.0
H330 H 0.75209 0.62688 0.82002 0.0
H331 H 0.63951 0.67459 0.83453 0.0
H332 H 0.64691 0.57229 0.82481 0.0
H333 H 0.53917 0.6242 0.84393 0.0
H334 H 0.58419 0.67063 0.84521 0.0
H335 H 0.56945 0.63589 0.85928 0.0
H336 H 0.60056 0.50952 0.83218 0.0
H337 H 0.5519 0.50269 0.83074 0.0
H338 H 0.57404 0.50789 0.84762 0.0
H339 H 0.37682 0.43334 0.79483 0.0
H340 H 0.35413 0.45352 0.77388 0.0
H341 H 0.37529 0.49176 0.7869 0.0
H342 H 0.32286 0.46393 0.78453 0.0
H343 H 0.38505 0.41273 0.81732 0.0
H344 H 0.3623 0.50727 0.82262 0.0
H345 H 0.44744 0.4342 0.84732 0.0
H346 H 0.47543 0.45365 0.83181 0.0
H347 H 0.4314 0.40641 0.83123 0.0
H348 H 0.40008 0.56068 0.83771 0.0
H349 H 0.45037 0.57223 0.83953 0.0
H350 H 0.4166 0.54686 0.85321 0.0
H351 H 0.28419 0.39134 0.91845 0.0
H352 H 0.34707 0.39583 0.92344 0.0
H353 H 0.35908 0.50848 0.93074 0.0
H354 H 0.41612 0.41926 0.89927 0.0
H355 H 0.3987 0.38872 0.9145 0.0
H356 H 0.44714 0.4314 0.91444 0.0
H357 H 0.4121 0.56681 0.92227 0.0
H358 H 0.43708 0.56168 0.90748 0.0
H359 H 0.45695 0.5658 0.92472 0.0
H360 H 0.70264 0.65372 0.92343 0.0
H361 H 0.76634 0.65945 0.92956 0.0
H362 H 0.72892 0.60904 0.92707 0.0
H363 H 0.74497 0.62806 0.94451 0.0
H364 H 0.62775 0.54059 0.93626 0.0
H365 H 0.63966 0.65273 0.92796 0.0
H366 H 0.55404 0.48721 0.91088 0.0
H367 H 0.53093 0.48229 0.92731 0.0
H368 H 0.57643 0.48203 0.92669 0.0
H369 H 0.58729 0.65859 0.91805 0.0
H370 H 0.54014 0.61516 0.91526 0.0
H371 H 0.57656 0.63138 0.90199 0.0
H372 H 0.50517 0.53793 0.83031 0.0
H373 H 0.40158 0.47542 0.86349 0.0
H374 H 0.39828 0.47297 0.88845 0.0
H375 H 0.49301 0.52246 0.92614 0.0
H376 H 0.59671 0.57762 0.89271 0.0
H377 H 0.59973 0.58279 0.86785 0.0
H378 H 0.23952 0.41551 0.93847 0.0
H379 H 0.21869 0.38038 0.9243 0.0
H380 H 0.25216 0.43118 0.92065 0.0
H381 H 0.05295 0.1194 0.07381 0.0
H382 H 0.05647 0.17013 0.08922 0.0
H383 H 0.95788 0.1659 0.06753 0.0
H384 H 0.95468 0.11533 0.05178 0.0
H385 H 0.01537 0.23984 0.07152 0.0
H386 H 0.9481 0.12683 0.1003 0.0
H387 H 0.937 0.06612 0.11175 0.0
H388 H 0.04539 0.1307 0.13457 0.0
H389 H 0.05745 0.19175 0.1231 0.0
H390 H 0.00306 0.36722 0.12046 0.0
H391 H 0.98497 0.30745 0.10717 0.0
H392 H 0.08512 0.30482 0.12447 0.0
H393 H 0.10308 0.3644 0.13792 0.0
H394 H 0.01989 0.23129 0.12311 0.0
H395 H 0.08994 0.34212 0.09287 0.0
H396 H 0.1027 0.4031 0.08119 0.0
H397 H 0.98979 0.34217 0.061 0.0
H398 H 0.97612 0.28091 0.07274 0.0
C399 C 0.03183 0.12906 0.07235 0.0
C400 C 0.00345 0.11334 0.0616 0.0
C401 C 0.03375 0.15793 0.08123 0.0
C402 C 0.00706 0.17139 0.07968 0.0
C403 C 0.97864 0.15577 0.06895 0.0
C404 C 0.97679 0.12688 0.05999 0.0
C405 C 0.01013 0.20297 0.08893 0.0
C406 C 0.0155 0.23763 0.0828 0.0
C407 C 0.01125 0.20043 0.10366 0.0
C408 C 0.0038 0.16385 0.11076 0.0
C409 C 0.96969 0.12806 0.1077 0.0
C410 C 0.96321 0.09359 0.1142 0.0
C411 C 0.99051 0.09453 0.12386 0.0
C412 C 0.02428 0.13 0.12708 0.0
C413 C 0.03092 0.16457 0.1206 0.0
C414 C 0.02079 0.35347 0.12161 0.0
C415 C 0.05423 0.37018 0.13036 0.0
C416 C 0.01056 0.31949 0.11397 0.0
C417 C 0.03386 0.30187 0.11477 0.0
C418 C 0.06666 0.31787 0.12376 0.0
C419 C 0.07691 0.35188 0.13141 0.0
C420 C 0.02536 0.2681 0.10567 0.0
C421 C 0.01914 0.23317 0.11183 0.0
C422 C 0.02352 0.27035 0.09096 0.0
C423 C 0.03183 0.30705 0.0838 0.0
C424 C 0.06771 0.3418 0.08602 0.0
C425 C 0.07513 0.3764 0.07938 0.0
C426 C 0.04703 0.37654 0.07039 0.0
C427 C 0.0115 0.34203 0.06799 0.0
C428 C 0.0039 0.30736 0.07463 0.0
H429 H 0.05283 0.40335 0.06525 0.0
H430 H 0.98547 0.0678 0.12886 0.0
H431 H 0.88451 0.99603 0.39753 0.0
H432 H 0.83788 0.00236 0.41239 0.0
H433 H 0.9337 0.10081 0.43356 0.0
H434 H 0.98019 0.09532 0.41853 0.0
H435 H 0.82435 0.99871 0.43952 0.0
H436 H 0.91017 0.169 0.44086 0.0
H437 H 0.9547 0.22381 0.42584 0.0
H438 H 0.90606 0.15067 0.38953 0.0
H439 H 0.86086 0.09562 0.40431 0.0
H440 H 0.76507 0.07373 0.49526 0.0
H441 H 0.79832 0.05522 0.47811 0.0
H442 H 0.76057 0.10449 0.44529 0.0
H443 H 0.72868 0.12442 0.4625 0.0
H444 H 0.83327 0.12856 0.44245 0.0
H445 H 0.72171 0.00306 0.44903 0.0
H446 H 0.67216 0.9461 0.46203 0.0
H447 H 0.76177 0.9256 0.47877 0.0
H448 H 0.81197 0.9828 0.46604 0.0
C449 C 0.89557 0.01887 0.40541 0.0
C450 C 0.93591 0.04546 0.40679 0.0
C451 C 0.86893 0.02239 0.41391 0.0
C452 C 0.88227 0.05249 0.42391 0.0
C453 C 0.92269 0.07792 0.4257 0.0
C454 C 0.94924 0.07466 0.41714 0.0
C455 C 0.85411 0.05826 0.43223 0.0
C456 C 0.82616 0.02703 0.44016 0.0
C457 C 0.85572 0.09491 0.43272 0.0
C458 C 0.88236 0.1281 0.42372 0.0
C459 C 0.90884 0.16468 0.42967 0.0
C460 C 0.93422 0.19578 0.42119 0.0
C461 C 0.93329 0.1907 0.40674 0.0
C462 C 0.90685 0.15454 0.40073 0.0
C463 C 0.88137 0.12337 0.40915 0.0
C464 C 0.76333 0.07994 0.48435 0.0
C465 C 0.74358 0.09974 0.48019 0.0
C466 C 0.78218 0.06923 0.47454 0.0
C467 C 0.78142 0.07785 0.46036 0.0
C468 C 0.76136 0.09729 0.45616 0.0
C469 C 0.74288 0.10841 0.46598 0.0
C470 C 0.80404 0.06928 0.45009 0.0
C471 C 0.83108 0.10007 0.44178 0.0
C472 C 0.80075 0.03193 0.44897 0.0
C473 C 0.77066 0.99744 0.45665 0.0
C474 C 0.7309 0.9866 0.45557 0.0
C475 C 0.70269 0.95423 0.46288 0.0
C476 C 0.71382 0.93229 0.47124 0.0
C477 C 0.75319 0.94264 0.47229 0.0
C478 C 0.78154 0.97501 0.46502 0.0
H479 H 0.69193 0.90724 0.47689 0.0
H480 H 0.953 0.21479 0.40021 0.0
H481 H 0.93718 0.96659 0.75388 0.0
H482 H 0.89463 0.91129 0.76874 0.0
H483 H 0.87699 0.831 0.73523 0.0
H484 H 0.91955 0.8862 0.72029 0.0
H485 H 0.80798 0.81391 0.74825 0.0
H486 H 0.93709 0.84079 0.76125 0.0
H487 H 0.00574 0.88217 0.76899 0.0
H488 H 0.9677 0.90897 0.80706 0.0
H489 H 0.89878 0.86816 0.79945 0.0
H490 H 0.72394 0.63888 0.78819 0.0
H491 H 0.76627 0.69346 0.77298 0.0
H492 H 0.7903 0.77484 0.80679 0.0
H493 H 0.74829 0.72032 0.82206 0.0
H494 H 0.85618 0.79117 0.79341 0.0
H495 H 0.72771 0.76549 0.78068 0.0
H496 H 0.65877 0.72539 0.77308 0.0
H497 H 0.69493 0.69769 0.73477 0.0
H498 H 0.76413 0.73719 0.74224 0.0
C499 C 0.92424 0.93715 0.74968 0.0
C500 C 0.93175 0.93066 0.73594 0.0
C501 C 0.90006 0.90562 0.75819 0.0
C502 C 0.88294 0.86707 0.7531 0.0
C503 C 0.88997 0.86054 0.73934 0.0
C504 C 0.91437 0.89206 0.73085 0.0
C505 C 0.85765 0.83359 0.76217 0.0
C506 C 0.81862 0.80855 0.75803 0.0
C507 C 0.87137 0.8273 0.77508 0.0
C508 C 0.91278 0.85173 0.77971 0.0
C509 C 0.94337 0.85577 0.77122 0.0
C510 C 0.98233 0.87907 0.77559 0.0
C511 C 0.99108 0.89827 0.78849 0.0
C512 C 0.96088 0.89412 0.79706 0.0
C513 C 0.92186 0.87088 0.79273 0.0
C514 C 0.73809 0.66845 0.79233 0.0
C515 C 0.73235 0.67544 0.80623 0.0
C516 C 0.76218 0.69958 0.78364 0.0
C517 C 0.78101 0.73825 0.7887 0.0
C518 C 0.77591 0.74525 0.80265 0.0
C519 C 0.75181 0.71416 0.81133 0.0
C520 C 0.80641 0.77142 0.77951 0.0
C521 C 0.8455 0.79644 0.78362 0.0
C522 C 0.79267 0.77779 0.7666 0.0
C523 C 0.75109 0.75395 0.76209 0.0
C524 C 0.72096 0.75056 0.77069 0.0
C525 C 0.68183 0.72799 0.7664 0.0
C526 C 0.67247 0.70891 0.75347 0.0
C527 C 0.70223 0.71243 0.74479 0.0
C528 C 0.74141 0.73493 0.74905 0.0
H529 H 0.64216 0.69147 0.75016 0.0
H530 H 0.02127 0.9163 0.79186 0.0
H531 H 0.95303 0.92604 0.06849 0.0
H532 H 0.95887 0.88274 0.08538 0.0
H533 H 0.0756 0.92007 0.07115 0.0
H534 H 0.06956 0.9629 0.05395 0.0
H535 H 0.03596 0.84244 0.07612 0.0
H536 H 0.06057 0.95949 0.10053 0.0
H537 H 0.04532 0.01007 0.10808 0.0
H538 H 0.94141 0.92227 0.12804 0.0
H539 H 0.95577 0.87106 0.12045 0.0
H540 H 0.112 0.79275 0.13511 0.0
H541 H 0.09902 0.82745 0.11649 0.0
H542 H 0.982 0.78352 0.1317 0.0
H543 H 0.99496 0.74883 0.15042 0.0
H544 H 0.01839 0.86164 0.1261 0.0
H545 H 0.99531 0.74495 0.10264 0.0
H546 H 0.0105 0.69433 0.09512 0.0
H547 H 0.11137 0.7812 0.07345 0.0
H548 H 0.09709 0.83247 0.08102 0.0
C549 C 0.97983 0.9248 0.06888 0.0
C550 C 0.01101 0.94809 0.06 0.0
C551 C 0.98317 0.90015 0.07857 0.0
C552 C 0.01795 0.89876 0.0797 0.0
C553 C 0.04857 0.92085 0.07048 0.0
C554 C 0.04513 0.94534 0.06069 0.0
C555 C 0.02288 0.87536 0.09083 0.0
C556 C 0.03256 0.84692 0.08706 0.0
C557 C 0.01747 0.88058 0.10508 0.0
C558 C 0.00906 0.9114 0.10981 0.0
C559 C 0.03434 0.95094 0.10646 0.0
C560 C 0.02587 0.97973 0.11075 0.0
C561 C 0.99236 0.96938 0.1185 0.0
C562 C 0.96733 0.93024 0.12202 0.0
C563 C 0.97563 0.90132 0.11774 0.0
C564 C 0.08341 0.79022 0.1344 0.0
C565 C 0.05427 0.76759 0.14406 0.0
C566 C 0.076 0.80998 0.12376 0.0
C567 C 0.03937 0.80758 0.12261 0.0
C568 C 0.01038 0.78553 0.13237 0.0
C569 C 0.01774 0.76565 0.14299 0.0
C570 C 0.03176 0.82892 0.11139 0.0
C571 C 0.0216 0.85701 0.11515 0.0
C572 C 0.03676 0.82339 0.09715 0.0
C573 C 0.04532 0.79261 0.0925 0.0
C574 C 0.0209 0.75332 0.09636 0.0
C575 C 0.02932 0.7245 0.09208 0.0
C576 C 0.06193 0.73456 0.08384 0.0
C577 C 0.08614 0.77345 0.07984 0.0
C578 C 0.07787 0.8024 0.08411 0.0
H579 H 0.0684 0.7122 0.08053 0.0
H580 H 0.98585 0.99171 0.12181 0.0
H581 H 0.06742 0.97765 0.40582 0.0
H582 H 0.11272 0.9739 0.42245 0.0
H583 H 0.17749 0.10001 0.42572 0.0
H584 H 0.13272 0.10398 0.40864 0.0
H585 H 0.22645 0.07232 0.42543 0.0
H586 H 0.11209 0.04336 0.45093 0.0
H587 H 0.04155 0.01007 0.45595 0.0
H588 H 0.03811 0.89964 0.45838 0.0
H589 H 0.10856 0.93221 0.45317 0.0
H590 H 0.31573 0.07447 0.49179 0.0
H591 H 0.27844 0.08246 0.47269 0.0
H592 H 0.22392 0.95916 0.46316 0.0
H593 H 0.26176 0.95113 0.48205 0.0
H594 H 0.17101 0.9875 0.4669 0.0
H595 H 0.28777 0.01943 0.44163 0.0
H596 H 0.35874 0.05523 0.43733 0.0
H597 H 0.35811 0.16374 0.4357 0.0
H598 H 0.28718 0.12864 0.4402 0.0
C599 C 0.09137 0.00462 0.41004 0.0
C600 C 0.09636 0.04111 0.40605 0.0
C601 C 0.11718 0.00243 0.41959 0.0
C602 C 0.14804 0.03663 0.42556 0.0
C603 C 0.15377 0.07323 0.4213 0.0
C604 C 0.12814 0.07546 0.41158 0.0
C605 C 0.17366 0.03389 0.43645 0.0
C606 C 0.21437 0.05422 0.43459 0.0
C607 C 0.15789 0.00988 0.44834 0.0
C608 C 0.11553 0.99019 0.45154 0.0
C609 C 0.09623 0.01194 0.45244 0.0
C610 C 0.05627 0.9932 0.45533 0.0
C611 C 0.03534 0.95275 0.45745 0.0
C612 C 0.05435 0.93097 0.45672 0.0
C613 C 0.09431 0.94955 0.45381 0.0
C614 C 0.29607 0.04916 0.48553 0.0
C615 C 0.29123 0.01207 0.48852 0.0
C616 C 0.27491 0.05379 0.47461 0.0
C617 C 0.24845 0.02138 0.46656 0.0
C618 C 0.24415 0.98448 0.46931 0.0
C619 C 0.26566 0.97992 0.4801 0.0
C620 C 0.2236 0.02552 0.45577 0.0
C621 C 0.18302 0.00558 0.45771 0.0
C622 C 0.23957 0.05029 0.44411 0.0
C623 C 0.28222 0.07144 0.44141 0.0
C624 C 0.30282 0.05097 0.44049 0.0
C625 C 0.34303 0.07113 0.43799 0.0
C626 C 0.36295 0.11175 0.43629 0.0
C627 C 0.34266 0.13228 0.43705 0.0
C628 C 0.30244 0.11227 0.43956 0.0
H629 H 0.39408 0.1273 0.43434 0.0
H630 H 0.0044 0.9383 0.45969 0.0
H631 H 0.12915 0.10389 0.73497 0.0
H632 H 0.17579 0.16006 0.749 0.0
H633 H 0.08661 0.19038 0.75666 0.0
H634 H 0.04031 0.13506 0.74216 0.0
H635 H 0.15022 0.25271 0.75011 0.0
H636 H 0.12065 0.14958 0.78245 0.0
H637 H 0.11223 0.0865 0.79061 0.0
H638 H 0.23372 0.12716 0.7833 0.0
H639 H 0.24277 0.19033 0.77492 0.0
H640 H 0.26906 0.40273 0.79841 0.0
H641 H 0.2156 0.33957 0.78993 0.0
H642 H 0.29983 0.30906 0.77526 0.0
H643 H 0.35325 0.37198 0.78376 0.0
H644 H 0.23541 0.24596 0.78726 0.0
H645 H 0.26228 0.34702 0.75325 0.0
H646 H 0.27017 0.41022 0.74549 0.0
H647 H 0.1515 0.37236 0.75668 0.0
H648 H 0.14311 0.30912 0.76471 0.0
C649 C 0.11942 0.12236 0.73975 0.0
C650 C 0.08112 0.11513 0.73748 0.0
C651 C 0.14604 0.15435 0.74785 0.0
C652 C 0.13464 0.17924 0.75409 0.0
C653 C 0.09614 0.17163 0.75198 0.0
C654 C 0.06968 0.13997 0.74372 0.0
C655 C 0.16342 0.21439 0.76216 0.0
C656 C 0.16824 0.251 0.75842 0.0
C657 C 0.18759 0.21248 0.77284 0.0
C658 C 0.18231 0.1746 0.77795 0.0
C659 C 0.14552 0.14499 0.7825 0.0
C660 C 0.14064 0.10922 0.78717 0.0
C661 C 0.1724 0.1028 0.78744 0.0
C662 C 0.20913 0.13217 0.78307 0.0
C663 C 0.21417 0.16798 0.77838 0.0
C664 C 0.27606 0.38218 0.79361 0.0
C665 C 0.31527 0.39214 0.79179 0.0
C666 C 0.24558 0.34625 0.78873 0.0
C667 C 0.2538 0.31981 0.78187 0.0
C668 C 0.29286 0.329 0.78056 0.0
C669 C 0.32332 0.36494 0.7854 0.0
C670 C 0.22204 0.28388 0.77513 0.0
C671 C 0.21686 0.24732 0.77907 0.0
C672 C 0.19732 0.28572 0.7647 0.0
C673 C 0.20221 0.32353 0.75971 0.0
C674 C 0.23797 0.35229 0.75414 0.0
C675 C 0.24252 0.3881 0.74969 0.0
C676 C 0.21139 0.39534 0.75063 0.0
C677 C 0.1756 0.36673 0.75598 0.0
C678 C 0.17093 0.3309 0.76048 0.0
H679 H 0.21497 0.42308 0.74717 0.0
H680 H 0.16855 0.07509 0.79106 0.0
H681 H 0.91814 0.99259 0.67002 0.0
H682 H 0.87888 0.00512 0.65303 0.0
H683 H 0.89818 0.10611 0.67683 0.0
H684 H 0.9377 0.09389 0.69385 0.0
H685 H 0.81984 0.05866 0.66719 0.0
H686 H 0.95146 0.1208 0.64953 0.0
H687 H 0.0121 0.12264 0.64232 0.0
H688 H 0.94767 0.03477 0.61112 0.0
H689 H 0.8865 0.032 0.61829 0.0
H690 H 0.77791 0.16518 0.61673 0.0
H691 H 0.8055 0.14177 0.63481 0.0
H692 H 0.79655 0.05221 0.60669 0.0
H693 H 0.76958 0.07608 0.58851 0.0
H694 H 0.86667 0.08942 0.61851 0.0
H695 H 0.73578 0.02928 0.63475 0.0
H696 H 0.67423 0.02554 0.64188 0.0
H697 H 0.73486 0.10631 0.67546 0.0
H698 H 0.79695 0.11101 0.66839 0.0
C699 C 0.91381 0.01732 0.67168 0.0
C700 C 0.93113 0.04241 0.68321 0.0
C701 C 0.89144 0.02444 0.66197 0.0
C702 C 0.88589 0.05667 0.66365 0.0
C703 C 0.90214 0.08107 0.67537 0.0
C704 C 0.92481 0.07416 0.68504 0.0
C705 C 0.86451 0.06587 0.65287 0.0
C706 C 0.83019 0.06578 0.65657 0.0
C707 C 0.87755 0.07404 0.63895 0.0
C708 C 0.91435 0.07588 0.63456 0.0
C709 C 0.95017 0.10163 0.64121 0.0
C710 C 0.98464 0.10288 0.63712 0.0
C711 C 0.98372 0.07875 0.62629 0.0
C712 C 0.94833 0.0534 0.61951 0.0
C713 C 0.91376 0.05199 0.62359 0.0
C714 C 0.78124 0.1401 0.61452 0.0
C715 C 0.77119 0.12211 0.60129 0.0
C716 C 0.79691 0.12667 0.62484 0.0
C717 C 0.80269 0.09493 0.62216 0.0
C718 C 0.79222 0.07665 0.60901 0.0
C719 C 0.77666 0.09015 0.59866 0.0
C720 C 0.82189 0.08244 0.63278 0.0
C721 C 0.85596 0.082 0.62908 0.0
C722 C 0.8084 0.07351 0.64666 0.0
C723 C 0.77111 0.07077 0.65095 0.0
C724 C 0.73607 0.04651 0.64358 0.0
C725 C 0.70106 0.04417 0.64762 0.0
C726 C 0.70065 0.06575 0.6591 0.0
C727 C 0.73523 0.08965 0.66656 0.0
C728 C 0.77034 0.09213 0.66255 0.0
H729 H 0.67351 0.06388 0.66221 0.0
H730 H 0.01045 0.07975 0.62314 0.0
H731 H 0.86969 0.93059 0.0255 0.0
H732 H 0.81894 0.8755 0.01182 0.0
H733 H 0.89675 0.90893 0.97689 0.0
H734 H 0.94799 0.96316 0.99063 0.0
H735 H 0.80813 0.8833 0.97181 0.0
H736 H 0.90011 0.84666 0.99267 0.0
H737 H 0.93559 0.84035 0.01298 0.0
H738 H 0.82656 0.76756 0.03345 0.0
H739 H 0.79049 0.77401 0.01332 0.0
H740 H 0.75276 0.72291 0.92684 0.0
H741 H 0.78276 0.78107 0.94174 0.0
H742 H 0.72305 0.70981 0.97734 0.0
H743 H 0.69459 0.65126 0.96253 0.0
H744 H 0.79375 0.75454 0.98427 0.0
H745 H 0.69997 0.77883 0.96244 0.0
H746 H 0.66123 0.78552 0.94336 0.0
H747 H 0.76575 0.88055 0.92625 0.0
H748 H 0.80525 0.87407 0.9451 0.0
C749 C 0.87567 0.92654 0.01482 0.0
C750 C 0.91273 0.95089 0.00912 0.0
C751 C 0.84672 0.89517 0.00705 0.0
C752 C 0.85424 0.88837 0.99338 0.0
C753 C 0.89045 0.91396 0.98741 0.0
C754 C 0.91968 0.94471 0.99528 0.0
C755 C 0.82611 0.85238 0.9858 0.0
C756 C 0.8049 0.85506 0.97443 0.0
C757 C 0.82107 0.81556 0.98962 0.0
C758 C 0.84268 0.81121 0.00159 0.0
C759 C 0.88375 0.82962 0.00156 0.0
C760 C 0.90396 0.82596 0.01303 0.0
C761 C 0.88335 0.80368 0.02452 0.0
C762 C 0.84248 0.78488 0.02455 0.0
C763 C 0.82215 0.78852 0.01312 0.0
C764 C 0.74547 0.71983 0.9378 0.0
C765 C 0.72078 0.68265 0.94345 0.0
C766 C 0.76244 0.75312 0.94631 0.0
C767 C 0.75466 0.75009 0.96066 0.0
C768 C 0.72935 0.71301 0.96629 0.0
C769 C 0.71283 0.67957 0.9578 0.0
C770 C 0.7758 0.78505 0.96991 0.0
C771 C 0.79601 0.78237 0.98166 0.0
C772 C 0.77921 0.8217 0.96655 0.0
C773 C 0.75563 0.82575 0.95515 0.0
C774 C 0.71476 0.80096 0.95455 0.0
C775 C 0.69265 0.80475 0.94378 0.0
C776 C 0.71103 0.83339 0.93359 0.0
C777 C 0.75156 0.85836 0.93415 0.0
C778 C 0.77382 0.85467 0.94489 0.0
H779 H 0.69385 0.83628 0.92526 0.0
H780 H 0.89904 0.80089 0.03339 0.0
H781 H 0.93592 0.9218 0.35253 0.0
H782 H 0.92898 0.86833 0.33754 0.0
H783 H 0.05453 0.92695 0.3333 0.0
H784 H 0.0614 0.98089 0.34774 0.0
H785 H 0.02149 0.89666 0.30939 0.0
H786 H 0.0017 0.84988 0.35725 0.0
H787 H 0.96857 0.834 0.37995 0.0
H788 H 0.85954 0.75388 0.35973 0.0
H789 H 0.89199 0.76965 0.33689 0.0
H790 H 0.07154 0.75189 0.29832 0.0
H791 H 0.05995 0.80285 0.30747 0.0
H792 H 0.93532 0.72555 0.3029 0.0
H793 H 0.94684 0.67404 0.29378 0.0
H794 H 0.95582 0.76174 0.32838 0.0
H795 H 0.98085 0.80129 0.28082 0.0
H796 H 0.01645 0.81688 0.25865 0.0
H797 H 0.11813 0.91067 0.27869 0.0
H798 H 0.08335 0.89532 0.30103 0.0
C799 C 0.96194 0.92329 0.3483 0.0
C800 C 0.99921 0.95531 0.35136 0.0
C801 C 0.95797 0.89271 0.33978 0.0
C802 C 0.99128 0.89332 0.33446 0.0
C803 C 0.02839 0.92581 0.33726 0.0
C804 C 0.0323 0.95657 0.34557 0.0
C805 C 0.98818 0.85974 0.32641 0.0
C806 C 0.00724 0.86718 0.31357 0.0
C807 C 0.96853 0.82099 0.33163 0.0
C808 C 0.94915 0.81126 0.34537 0.0
C809 C 0.97062 0.82905 0.35765 0.0
C810 C 0.95197 0.82005 0.37053 0.0
C811 C 0.91195 0.79303 0.37127 0.0
C812 C 0.89052 0.77485 0.35914 0.0
C813 C 0.90902 0.78379 0.34622 0.0
C814 C 0.04168 0.74592 0.29909 0.0
C815 C 0.01011 0.70929 0.29509 0.0
C816 C 0.03509 0.77506 0.30428 0.0
C817 C 0.9968 0.76821 0.30561 0.0
C818 C 0.96509 0.73151 0.30181 0.0
C819 C 0.97168 0.70225 0.29657 0.0
C820 C 0.99034 0.79904 0.31163 0.0
C821 C 0.96941 0.79105 0.32407 0.0
C822 C 0.00858 0.83736 0.3061 0.0
C823 C 0.0295 0.84701 0.29263 0.0
C824 C 0.01088 0.8251 0.28052 0.0
C825 C 0.03091 0.83392 0.26792 0.0
C826 C 0.06954 0.86472 0.26727 0.0
C827 C 0.0882 0.88683 0.27921 0.0
C828 C 0.06831 0.87813 0.29184 0.0
H829 H 0.08501 0.87148 0.2575 0.0
H830 H 0.89756 0.78612 0.38126 0.0
H831 H 0.1163 0.08265 0.67947 0.0
H832 H 0.167 0.08108 0.66562 0.0
H833 H 0.1155 0.95725 0.67354 0.0
H834 H 0.06579 0.95918 0.68795 0.0
H835 H 0.18925 0.98924 0.67697 0.0
H836 H 0.10929 0.99602 0.64068 0.0
H837 H 0.07178 0.02136 0.62806 0.0
H838 H 0.17681 0.13204 0.62268 0.0
H839 H 0.21489 0.10757 0.63544 0.0
H840 H 0.31799 0.97205 0.63021 0.0
H841 H 0.25626 0.9642 0.63889 0.0
H842 H 0.30736 0.08977 0.64027 0.0
H843 H 0.36898 0.09775 0.63162 0.0
H844 H 0.2295 0.0508 0.63041 0.0
H845 H 0.3068 0.04304 0.6689 0.0
H846 H 0.34297 0.0154 0.68103 0.0
H847 H 0.23904 0.90211 0.68131 0.0
H848 H 0.2024 0.929 0.66897 0.0
C849 C 0.11568 0.05506 0.67818 0.0
C850 C 0.08717 0.02104 0.68479 0.0
C851 C 0.14451 0.0541 0.67016 0.0
C852 C 0.1448 0.01889 0.66831 0.0
C853 C 0.11593 0.98476 0.67479 0.0
C854 C 0.08751 0.98587 0.683 0.0
C855 C 0.17645 0.01814 0.6603 0.0
C856 C 0.19741 0.00201 0.66667 0.0
C857 C 0.18765 0.03526 0.64691 0.0
C858 C 0.16491 0.05003 0.63912 0.0
C859 C 0.12436 0.02585 0.63689 0.0
C860 C 0.103 0.04005 0.6297 0.0
C861 C 0.12189 0.07831 0.6246 0.0
C862 C 0.16221 0.10242 0.62664 0.0
C863 C 0.18371 0.08838 0.63384 0.0
C864 C 0.31576 0.9979 0.63217 0.0
C865 C 0.34823 0.03551 0.63023 0.0
C866 C 0.2806 0.99341 0.63713 0.0
C867 C 0.27739 0.02644 0.6403 0.0
C868 C 0.30921 0.06393 0.63783 0.0
C869 C 0.3444 0.06845 0.63294 0.0
C870 C 0.2421 0.02222 0.64717 0.0
C871 C 0.22069 0.03754 0.64062 0.0
C872 C 0.2301 0.00393 0.66031 0.0
C873 C 0.25199 0.98793 0.66789 0.0
C874 C 0.29174 0.01218 0.67146 0.0
C875 C 0.31232 0.99666 0.67838 0.0
C876 C 0.29334 0.957 0.6819 0.0
C877 C 0.25371 0.93281 0.67855 0.0
C878 C 0.23303 0.94818 0.6716 0.0
H879 H 0.30931 0.94504 0.68726 0.0
H880 H 0.10528 0.08926 0.61904 0.0
H881 H 0.13808 0.1312 0.0255 0.0
H882 H 0.18794 0.18512 0.01158 0.0
H883 H 0.10701 0.14989 0.97672 0.0
H884 H 0.05669 0.09696 0.9907 0.0
H885 H 0.19696 0.17413 0.97236 0.0
H886 H 0.10444 0.21291 0.99131 0.0
H887 H 0.07077 0.22168 0.0113 0.0
H888 H 0.18161 0.29626 0.03148 0.0
H889 H 0.21586 0.28738 0.01167 0.0
H890 H 0.23858 0.32165 0.92365 0.0
H891 H 0.21463 0.26745 0.94007 0.0
H892 H 0.27605 0.34898 0.97371 0.0
H893 H 0.29827 0.40348 0.95737 0.0
H894 H 0.20807 0.30305 0.98178 0.0
H895 H 0.30234 0.27984 0.96149 0.0
H896 H 0.34087 0.2715 0.94319 0.0
H897 H 0.2375 0.16969 0.92769 0.0
H898 H 0.19817 0.17773 0.94576 0.0
C899 C 0.13121 0.13466 0.01479 0.0
C900 C 0.09357 0.11018 0.00916 0.0
C901 C 0.15965 0.16533 0.00688 0.0
C902 C 0.15103 0.1712 0.99316 0.0
C903 C 0.11415 0.14553 0.98728 0.0
C904 C 0.08545 0.11554 0.99528 0.0
C905 C 0.17872 0.20631 0.98532 0.0
C906 C 0.19954 0.20242 0.97432 0.0
C907 C 0.18318 0.24333 0.98836 0.0
C908 C 0.16262 0.24911 0.00012 0.0
C909 C 0.12157 0.23089 7e-05 0.0
C910 C 0.1024 0.23593 0.01135 0.0
C911 C 0.12403 0.25941 0.02268 0.0
C912 C 0.16489 0.27801 0.02272 0.0
C913 C 0.18419 0.273 0.01147 0.0
C914 C 0.24759 0.32788 0.93451 0.0
C915 C 0.27076 0.36673 0.93916 0.0
C916 C 0.23413 0.29685 0.9439 0.0
C917 C 0.24406 0.30389 0.95815 0.0
C918 C 0.26812 0.34269 0.96277 0.0
C919 C 0.28106 0.37384 0.9534 0.0
C920 C 0.22591 0.27112 0.9683 0.0
C921 C 0.20661 0.27526 0.97983 0.0
C922 C 0.2238 0.2346 0.96591 0.0
C923 C 0.24723 0.22957 0.95495 0.0
C924 C 0.28773 0.25584 0.95412 0.0
C925 C 0.30974 0.25114 0.94379 0.0
C926 C 0.29163 0.22012 0.93427 0.0
C927 C 0.25149 0.19371 0.93507 0.0
C928 C 0.22932 0.1983 0.94537 0.0
H929 H 0.30873 0.21652 0.92628 0.0
H930 H 0.10914 0.26327 0.0314 0.0
H931 H 0.08823 0.16069 0.34926 0.0
H932 H 0.09147 0.20255 0.32969 0.0
H933 H 0.96533 0.1404 0.32679 0.0
H934 H 0.9619 0.09864 0.34611 0.0
H935 H 0.99871 0.14588 0.3017 0.0
H936 H 0.01565 0.23179 0.34061 0.0
H937 H 0.04865 0.27021 0.3618 0.0
H938 H 0.15487 0.33708 0.33904 0.0
H939 H 0.1226 0.29867 0.31775 0.0
H940 H 0.92547 0.2556 0.25754 0.0
H941 H 0.9441 0.21221 0.27744 0.0
H942 H 0.0864 0.31442 0.27706 0.0
H943 H 0.07148 0.36075 0.25702 0.0
H944 H 0.05712 0.29023 0.30348 0.0
H945 H 0.03859 0.21127 0.26404 0.0
H946 H 0.00701 0.1735 0.24261 0.0
H947 H 0.90623 0.09348 0.26596 0.0
H948 H 0.93692 0.13108 0.28751 0.0
C949 C 0.06126 0.1563 0.34451 0.0
C950 C 0.02482 0.12632 0.34916 0.0
C951 C 0.06314 0.18021 0.33337 0.0
C952 C 0.02861 0.17447 0.32679 0.0
C953 C 0.99232 0.14515 0.33166 0.0
C954 C 0.99042 0.12138 0.34274 0.0
C955 C 0.02966 0.1977 0.31447 0.0
C956 C 0.01114 0.17741 0.30213 0.0
C957 C 0.0475 0.239 0.31485 0.0
C958 C 0.06687 0.26202 0.32764 0.0
C959 C 0.04615 0.25443 0.34016 0.0
C960 C 0.06469 0.27626 0.35218 0.0
C961 C 0.10387 0.30597 0.35178 0.0
C962 C 0.12455 0.314 0.33934 0.0
C963 C 0.10615 0.29222 0.3273 0.0
C964 C 0.95554 0.2654 0.26051 0.0
C965 C 0.99558 0.31611 0.25708 0.0
C966 C 0.96727 0.23945 0.27335 0.0
C967 C 0.01686 0.25934 0.27989 0.0
C968 C 0.05696 0.30417 0.2732 0.0
C969 C 0.04828 0.33237 0.26031 0.0
C970 C 0.02457 0.23809 0.29098 0.0
C971 C 0.04503 0.25876 0.30301 0.0
C972 C 0.00859 0.19709 0.29033 0.0
C973 C 0.98998 0.17423 0.27739 0.0
C974 C 0.00957 0.18579 0.2646 0.0
C975 C 0.99184 0.16437 0.25243 0.0
C976 C 0.95461 0.13116 0.25292 0.0
C977 C 0.93507 0.11922 0.2656 0.0
C978 C 0.95265 0.14054 0.2778 0.0
H979 H 0.94093 0.11463 0.24349 0.0
H980 H 0.11817 0.32286 0.36109 0.0
loop_
_geom_bond_atom_site_label_1
_geom_bond_atom_site_label_2
_geom_bond_distance
_geom_bond_site_symmetry_2
_ccdc_geom_bond_type
In0 O1 2.294 1_455 S
In0 O2 2.326 . S
In0 O6 2.266 1_445 S
In0 O7 2.326 1_445 S
In0 O8 2.266 1_545 S
In0 O9 2.326 1_445 S
In0 O11 2.294 . S
In0 O12 2.326 . S
O1 In0 2.294 1_655 S
O1 C10 1.240 1_655 S
O2 In0 2.326 . S
O2 C10 1.252 . S
C3 O6 1.252 . S
C3 O7 1.260 . S
C4 O11 1.240 . S
C4 O12 1.252 . S
C5 O8 1.252 . S
C5 O9 1.260 1_455 S
O6 In0 2.266 1_665 S
O6 C3 1.252 . S
O7 In0 2.326 1_665 S
O7 C3 1.260 . S
O8 In0 2.266 1_565 S
O8 C5 1.252 . S
O9 In0 2.326 1_665 S
O9 C5 1.260 1_655 S
C10 O1 1.240 1_455 S
C10 O2 1.252 . S
O11 In0 2.294 . S
O11 C4 1.240 . S
O12 In0 2.326 . S
O12 C4 1.252 . S
In13 O14 2.294 . S
In13 O15 2.326 1_455 S
In13 O19 2.266 . S
In13 O20 2.326 . S
In13 O21 2.266 1_445 S
In13 O22 2.326 . S
In13 O24 2.294 1_455 S
In13 O25 2.326 1_455 S
O14 In13 2.294 . S
O14 C23 1.240 . S
O15 In13 2.326 1_655 S
O15 C23 1.252 1_655 S
C16 O19 1.252 . S
C16 O20 1.260 . S
C17 O24 1.240 . S
C17 O25 1.252 . S
C18 O21 1.252 1_455 S
C18 O22 1.260 1_565 S
O19 In13 2.266 . S
O19 C16 1.252 . S
O20 In13 2.326 . S
O20 C16 1.260 . S
O21 In13 2.266 1_665 S
O21 C18 1.252 1_655 S
O22 In13 2.326 . S
O22 C18 1.260 1_545 S
C23 O14 1.240 . S
C23 O15 1.252 1_455 S
O24 In13 2.294 1_655 S
O24 C17 1.240 . S
O25 In13 2.326 1_655 S
O25 C17 1.252 . S
In26 O27 2.294 1_445 S
In26 O28 2.326 1_455 S
In26 O32 2.266 . S
In26 O33 2.326 . S
In26 O34 2.266 . S
In26 O35 2.326 . S
In26 O37 2.294 1_455 S
In26 O38 2.326 1_455 S
O27 In26 2.294 1_665 S
O27 C36 1.240 . S
O28 In26 2.326 1_655 S
O28 C36 1.252 1_545 S
C29 O32 1.252 . S
C29 O33 1.260 . S
C30 O37 1.240 . S
C30 O38 1.252 . S
C31 O34 1.252 . S
C31 O35 1.260 . S
O32 In26 2.266 . S
O32 C29 1.252 . S
O33 In26 2.326 . S
O33 C29 1.260 . S
O34 In26 2.266 . S
O34 C31 1.252 . S
O35 In26 2.326 . S
O35 C31 1.260 . S
C36 O27 1.240 . S
C36 O28 1.252 1_565 S
O37 In26 2.294 1_655 S
O37 C30 1.240 . S
O38 In26 2.326 1_655 S
O38 C30 1.252 . S
C39 C40 1.560 . S
C39 H100 0.959 . S
C39 H101 0.959 . S
C39 H102 0.960 . S
C40 C39 1.560 . S
C40 O95 1.426 . S
C40 H99 0.980 1_655 S
C41 C42 1.407 1_655 S
C41 C46 1.418 . S
C41 O95 1.334 . S
C42 C41 1.407 1_455 S
C42 C43 1.360 . S
C42 H103 0.929 . S
C43 C42 1.360 . S
C43 C44 1.401 . S
C43 C47 1.527 . S
C44 C43 1.401 . S
C44 C45 1.405 1_455 S
C44 C77 1.587 . S
C45 C44 1.405 1_655 S
C45 C46 1.332 . S
C45 C48 1.496 . S
C46 C41 1.418 . S
C46 C45 1.332 . S
C46 H104 0.929 . S
C47 C43 1.527 . S
C47 H105 0.959 . S
C47 H106 0.961 . S
C47 H107 0.961 . S
C48 C45 1.496 . S
C48 H108 0.960 . S
C48 H109 0.960 . S
C48 H110 0.961 . S
C49 C50 1.517 . S
C49 H112 0.961 . S
C49 H113 0.960 . S
C49 H114 0.959 . S
C50 C49 1.517 . S
C50 O98 1.468 . S
C50 H111 0.980 . S
C51 C52 1.349 . S
C51 C56 1.367 . S
C51 O98 1.408 . S
C52 C51 1.349 . S
C52 C53 1.407 . S
C52 H115 0.930 . S
C53 C52 1.407 . S
C53 C54 1.449 . S
C53 C57 1.535 1_455 S
C54 C53 1.449 . S
C54 C55 1.384 . S
C54 C79 1.553 . S
C55 C54 1.384 . S
C55 C56 1.364 . S
C55 C58 1.450 . S
C56 C51 1.367 . S
C56 C55 1.364 . S
C56 H116 0.931 . S
C57 C53 1.535 1_655 S
C57 H117 0.959 . S
C57 H118 0.961 . S
C57 H119 0.959 . S
C58 C55 1.450 . S
C58 H120 0.960 . S
C58 H121 0.960 . S
C58 H122 0.960 . S
C59 C60 1.309 . S
C59 C64 1.304 . S
C59 O97 1.435 . S
C60 C59 1.309 . S
C60 C61 1.476 . S
C60 H124 0.930 1_455 S
C61 C60 1.476 . S
C61 C62 1.400 . S
C61 C65 1.567 1_455 S
C62 C61 1.400 . S
C62 C63 1.373 . S
C62 C84 1.432 . S
C63 C62 1.373 . S
C63 C64 1.339 . S
C63 C66 1.530 . S
C64 C59 1.304 . S
C64 C63 1.339 . S
C64 H125 0.930 . S
C65 C61 1.567 1_655 S
C65 H126 0.961 . S
C65 H127 0.960 . S
C65 H128 0.958 . S
C66 C63 1.530 . S
C66 H129 0.961 . S
C66 H130 0.960 . S
C66 H131 0.960 . S
C67 C68 1.530 1_655 S
C67 H133 0.961 . S
C67 H134 0.961 . S
C67 H135 0.959 . S
C68 C67 1.530 1_455 S
C68 O96 1.412 1_455 S
C68 H132 0.980 . S
C69 C70 1.288 . S
C69 C74 1.377 1_655 S
C69 O96 1.393 . S
C70 C69 1.288 . S
C70 C71 1.369 . S
C70 H136 0.932 . S
C71 C70 1.369 . S
C71 C72 1.398 1_655 S
C71 C75 1.527 . S
C72 C71 1.398 1_455 S
C72 C73 1.380 . S
C72 C86 1.497 . S
C73 C72 1.380 . S
C73 C74 1.383 . S
C73 C76 1.603 . S
C74 C69 1.377 1_455 S
C74 C73 1.383 . S
C74 H137 0.929 . S
C75 C71 1.527 . S
C75 H138 0.961 . S
C75 H139 0.959 . S
C75 H140 0.959 . S
C76 C73 1.603 . S
C76 H141 0.960 . S
C76 H142 0.962 . S
C76 H143 0.961 . S
C77 C44 1.587 . S
C77 C78 1.360 . S
C77 C90 1.412 . S
C78 C77 1.360 . S
C78 C79 1.365 . S
C78 H144 0.929 . S
C79 C54 1.553 . S
C79 C78 1.365 . S
C79 C80 1.404 . S
C80 C79 1.404 . S
C80 C81 1.395 . S
C80 C91 1.451 . S
C81 C80 1.395 . S
C81 C82 1.322 . S
C81 H145 0.930 . S
C82 C81 1.322 . S
C82 C83 1.459 . S
C82 H146 0.929 . S
C83 C82 1.459 . S
C83 C84 1.445 . S
C83 C92 1.395 . S
C84 C62 1.432 . S
C84 C83 1.445 . S
C84 C85 1.370 . S
C85 C84 1.370 . S
C85 C86 1.438 . S
C85 H147 0.930 . S
C86 C72 1.497 . S
C86 C85 1.438 . S
C86 C87 1.360 . S
C87 C86 1.360 . S
C87 C88 1.401 . S
C87 C92 1.446 . S
C88 C87 1.401 . S
C88 C89 1.347 . S
C88 H148 0.929 . S
C89 C88 1.347 . S
C89 C90 1.455 . S
C89 H149 0.930 . S
C90 C77 1.412 . S
C90 C89 1.455 . S
C90 C91 1.331 . S
C91 C80 1.451 . S
C91 C90 1.331 . S
C91 C92 1.497 . S
C92 C83 1.395 . S
C92 C87 1.446 . S
C92 C91 1.497 . S
C93 C94 1.582 . S
C93 H150 0.962 . S
C93 H151 0.959 . S
C93 H152 0.958 . S
C94 C93 1.582 . S
C94 O97 1.458 . S
C94 H123 0.980 . S
O95 C40 1.426 . S
O95 C41 1.334 . S
O96 C68 1.412 1_655 S
O96 C69 1.393 . S
O97 C59 1.435 . S
O97 C94 1.458 . S
O98 C50 1.468 . S
O98 C51 1.408 . S
H99 C40 0.980 1_455 S
H100 C39 0.959 . S
H101 C39 0.959 . S
H102 C39 0.960 . S
H103 C42 0.929 . S
H104 C46 0.929 . S
H105 C47 0.959 . S
H106 C47 0.961 . S
H107 C47 0.961 . S
H108 C48 0.960 . S
H109 C48 0.960 . S
H110 C48 0.961 . S
H111 C50 0.980 . S
H112 C49 0.961 . S
H113 C49 0.960 . S
H114 C49 0.959 . S
H115 C52 0.930 . S
H116 C56 0.931 . S
H117 C57 0.959 . S
H118 C57 0.961 . S
H119 C57 0.959 . S
H120 C58 0.960 . S
H121 C58 0.960 . S
H122 C58 0.960 . S
H123 C94 0.980 . S
H124 C60 0.930 1_655 S
H125 C64 0.930 . S
H126 C65 0.961 . S
H127 C65 0.960 . S
H128 C65 0.958 . S
H129 C66 0.961 . S
H130 C66 0.960 . S
H131 C66 0.960 . S
H132 C68 0.980 . S
H133 C67 0.961 . S
H134 C67 0.961 . S
H135 C67 0.959 . S
H136 C70 0.932 . S
H137 C74 0.929 . S
H138 C75 0.961 . S
H139 C75 0.959 . S
H140 C75 0.959 . S
H141 C76 0.960 . S
H142 C76 0.962 . S
H143 C76 0.961 . S
H144 C78 0.929 . S
H145 C81 0.930 . S
H146 C82 0.929 . S
H147 C85 0.930 . S
H148 C88 0.929 . S
H149 C89 0.930 . S
H150 C93 0.962 . S
H151 C93 0.959 . S
H152 C93 0.958 . S
C153 C154 1.560 1_565 S
C153 H214 0.959 . S
C153 H215 0.959 . S
C153 H216 0.960 1_565 S
C154 C153 1.560 1_545 S
C154 O209 1.413 1_545 S
C154 H213 0.980 . S
C155 C156 1.407 . S
C155 C160 1.418 1_545 S
C155 O209 1.335 1_545 S
C156 C155 1.407 . S
C156 C157 1.360 . S
C156 H217 0.929 . S
C157 C156 1.360 . S
C157 C158 1.401 . S
C157 C161 1.527 . S
C158 C157 1.401 . S
C158 C159 1.405 . S
C158 C191 1.587 . S
C159 C158 1.405 . S
C159 C160 1.332 1_545 S
C159 C162 1.496 1_545 S
C160 C155 1.418 1_565 S
C160 C159 1.332 1_565 S
C160 H218 0.929 . S
C161 C157 1.527 . S
C161 H219 0.959 . S
C161 H220 0.961 . S
C161 H221 0.961 . S
C162 C159 1.496 1_565 S
C162 H222 0.960 . S
C162 H223 0.960 . S
C162 H224 0.961 . S
C163 C164 1.517 . S
C163 H226 0.961 . S
C163 H227 0.960 . S
C163 H228 0.959 . S
C164 C163 1.517 . S
C164 O212 1.468 . S
C164 H225 0.980 . S
C165 C166 1.349 . S
C165 C170 1.367 . S
C165 O212 1.408 . S
C166 C165 1.349 . S
C166 C167 1.407 . S
C166 H229 0.930 . S
C167 C166 1.407 . S
C167 C168 1.449 . S
C167 C171 1.535 . S
C168 C167 1.449 . S
C168 C169 1.384 . S
C168 C193 1.553 . S
C169 C168 1.384 . S
C169 C170 1.364 . S
C169 C172 1.450 . S
C170 C165 1.367 . S
C170 C169 1.364 . S
C170 H230 0.931 . S
C171 C167 1.535 . S
C171 H231 0.959 . S
C171 H232 0.961 1_545 S
C171 H233 0.959 1_545 S
C172 C169 1.450 . S
C172 H234 0.960 . S
C172 H235 0.960 . S
C172 H236 0.960 . S
C173 C174 1.309 . S
C173 C178 1.304 . S
C173 O211 1.435 . S
C174 C173 1.309 . S
C174 C175 1.476 . S
C174 H238 0.930 . S
C175 C174 1.476 . S
C175 C176 1.400 . S
C175 C179 1.567 1_545 S
C176 C175 1.400 . S
C176 C177 1.373 . S
C176 C198 1.432 . S
C177 C176 1.373 . S
C177 C178 1.339 . S
C177 C180 1.530 . S
C178 C173 1.304 . S
C178 C177 1.339 . S
C178 H239 0.930 . S
C179 C175 1.567 1_565 S
C179 H240 0.961 . S
C179 H241 0.960 . S
C179 H242 0.958 . S
C180 C177 1.530 . S
C180 H243 0.961 . S
C180 H244 0.960 . S
C180 H245 0.960 . S
C181 C182 1.530 . S
C181 H247 0.961 . S
C181 H248 0.961 1_545 S
C181 H249 0.959 1_545 S
C182 C181 1.530 . S
C182 O210 1.412 . S
C182 H246 0.980 . S
C183 C184 1.288 1_545 S
C183 C188 1.377 . S
C183 O210 1.393 . S
C184 C183 1.288 1_565 S
C184 C185 1.369 1_565 S
C184 H250 0.932 . S
C185 C184 1.369 1_545 S
C185 C186 1.398 . S
C185 C189 1.527 1_545 S
C186 C185 1.398 . S
C186 C187 1.380 . S
C186 C200 1.497 . S
C187 C186 1.380 . S
C187 C188 1.383 . S
C187 C190 1.603 . S
C188 C183 1.377 . S
C188 C187 1.383 . S
C188 H251 0.929 . S
C189 C185 1.527 1_565 S
C189 H252 0.961 . S
C189 H253 0.959 . S
C189 H254 0.959 . S
C190 C187 1.603 . S
C190 H255 0.960 . S
C190 H256 0.962 . S
C190 H257 0.961 . S
C191 C158 1.587 . S
C191 C192 1.360 . S
C191 C204 1.412 . S
C192 C191 1.360 . S
C192 C193 1.365 . S
C192 H258 0.929 . S
C193 C168 1.553 . S
C193 C192 1.365 . S
C193 C194 1.404 . S
C194 C193 1.404 . S
C194 C195 1.395 . S
C194 C205 1.451 . S
C195 C194 1.395 . S
C195 C196 1.322 . S
C195 H259 0.930 . S
C196 C195 1.322 . S
C196 C197 1.459 . S
C196 H260 0.929 . S
C197 C196 1.459 . S
C197 C198 1.445 . S
C197 C206 1.395 . S
C198 C176 1.432 . S
C198 C197 1.445 . S
C198 C199 1.370 . S
C199 C198 1.370 . S
C199 C200 1.438 . S
C199 H261 0.930 . S
C200 C186 1.497 . S
C200 C199 1.438 . S
C200 C201 1.360 . S
C201 C200 1.360 . S
C201 C202 1.401 . S
C201 C206 1.446 . S
C202 C201 1.401 . S
C202 C203 1.347 . S
C202 H262 0.929 . S
C203 C202 1.347 . S
C203 C204 1.455 . S
C203 H263 0.930 . S
C204 C191 1.412 . S
C204 C203 1.455 . S
C204 C205 1.331 . S
C205 C194 1.451 . S
C205 C204 1.331 . S
C205 C206 1.497 . S
C206 C197 1.395 . S
C206 C201 1.446 . S
C206 C205 1.497 . S
C207 C208 1.582 . S
C207 H264 0.962 . S
C207 H265 0.959 . S
C207 H266 0.958 . S
C208 C207 1.582 . S
C208 O211 1.458 . S
C208 H237 0.980 . S
O209 C154 1.413 1_565 S
O209 C155 1.335 1_565 S
O210 C182 1.412 . S
O210 C183 1.393 . S
O211 C173 1.435 . S
O211 C208 1.458 . S
O212 C164 1.468 . S
O212 C165 1.408 . S
H213 C154 0.980 . S
H214 C153 0.959 . S
H215 C153 0.959 . S
H216 C153 0.960 1_545 S
H217 C156 0.929 . S
H218 C160 0.929 . S
H219 C161 0.959 . S
H220 C161 0.961 . S
H221 C161 0.961 . S
H222 C162 0.960 . S
H223 C162 0.960 . S
H224 C162 0.961 . S
H225 C164 0.980 . S
H226 C163 0.961 . S
H227 C163 0.960 . S
H228 C163 0.959 . S
H229 C166 0.930 . S
H230 C170 0.931 . S
H231 C171 0.959 . S
H232 C171 0.961 1_565 S
H233 C171 0.959 1_565 S
H234 C172 0.960 . S
H235 C172 0.960 . S
H236 C172 0.960 . S
H237 C208 0.980 . S
H238 C174 0.930 . S
H239 C178 0.930 . S
H240 C179 0.961 . S
H241 C179 0.960 . S
H242 C179 0.958 . S
H243 C180 0.961 . S
H244 C180 0.960 . S
H245 C180 0.960 . S
H246 C182 0.980 . S
H247 C181 0.961 . S
H248 C181 0.961 1_565 S
H249 C181 0.959 1_565 S
H250 C184 0.932 . S
H251 C188 0.929 . S
H252 C189 0.961 . S
H253 C189 0.959 . S
H254 C189 0.959 . S
H255 C190 0.960 . S
H256 C190 0.962 . S
H257 C190 0.961 . S
H258 C192 0.929 . S
H259 C195 0.930 . S
H260 C196 0.929 . S
H261 C199 0.930 . S
H262 C202 0.929 . S
H263 C203 0.930 . S
H264 C207 0.962 . S
H265 C207 0.959 . S
H266 C207 0.958 . S
C267 C268 1.560 . S
C267 H328 0.959 . S
C267 H329 0.959 . S
C267 H330 0.960 . S
C268 C267 1.560 . S
C268 O323 1.426 . S
C268 H327 0.980 . S
C269 C270 1.407 . S
C269 C274 1.418 . S
C269 O323 1.334 . S
C270 C269 1.407 . S
C270 C271 1.360 . S
C270 H331 0.929 . S
C271 C270 1.360 . S
C271 C272 1.401 . S
C271 C275 1.527 . S
C272 C271 1.401 . S
C272 C273 1.405 . S
C272 C305 1.587 . S
C273 C272 1.405 . S
C273 C274 1.332 . S
C273 C276 1.496 . S
C274 C269 1.418 . S
C274 C273 1.332 . S
C274 H332 0.929 . S
C275 C271 1.527 . S
C275 H333 0.959 . S
C275 H334 0.961 . S
C275 H335 0.961 . S
C276 C273 1.496 . S
C276 H336 0.960 . S
C276 H337 0.960 . S
C276 H338 0.961 . S
C277 C278 1.517 . S
C277 H340 0.961 . S
C277 H341 0.960 . S
C277 H342 0.959 . S
C278 C277 1.517 . S
C278 O326 1.468 . S
C278 H339 0.980 . S
C279 C280 1.349 . S
C279 C284 1.367 . S
C279 O326 1.408 . S
C280 C279 1.349 . S
C280 C281 1.407 . S
C280 H343 0.930 . S
C281 C280 1.407 . S
C281 C282 1.449 . S
C281 C285 1.535 . S
C282 C281 1.449 . S
C282 C283 1.384 . S
C282 C307 1.553 . S
C283 C282 1.384 . S
C283 C284 1.364 . S
C283 C286 1.450 . S
C284 C279 1.367 . S
C284 C283 1.364 . S
C284 H344 0.931 . S
C285 C281 1.535 . S
C285 H345 0.959 . S
C285 H346 0.961 . S
C285 H347 0.959 . S
C286 C283 1.450 . S
C286 H348 0.960 . S
C286 H349 0.960 . S
C286 H350 0.960 . S
C287 C288 1.309 . S
C287 C292 1.304 . S
C287 O325 1.435 . S
C288 C287 1.309 . S
C288 C289 1.476 . S
C288 H352 0.930 . S
C289 C288 1.476 . S
C289 C290 1.400 . S
C289 C293 1.567 . S
C290 C289 1.400 . S
C290 C291 1.373 . S
C290 C312 1.432 . S
C291 C290 1.373 . S
C291 C292 1.339 . S
C291 C294 1.530 . S
C292 C287 1.304 . S
C292 C291 1.339 . S
C292 H353 0.930 . S
C293 C289 1.567 . S
C293 H354 0.961 . S
C293 H355 0.960 . S
C293 H356 0.958 . S
C294 C291 1.530 . S
C294 H357 0.961 . S
C294 H358 0.960 . S
C294 H359 0.960 . S
C295 C296 1.530 . S
C295 H361 0.961 . S
C295 H362 0.961 . S
C295 H363 0.959 . S
C296 C295 1.530 . S
C296 O324 1.412 . S
C296 H360 0.980 . S
C297 C298 1.288 . S
C297 C302 1.377 . S
C297 O324 1.393 . S
C298 C297 1.288 . S
C298 C299 1.369 . S
C298 H364 0.932 . S
C299 C298 1.369 . S
C299 C300 1.398 . S
C299 C303 1.527 . S
C300 C299 1.398 . S
C300 C301 1.380 . S
C300 C314 1.497 . S
C301 C300 1.380 . S
C301 C302 1.383 . S
C301 C304 1.603 . S
C302 C297 1.377 . S
C302 C301 1.383 . S
C302 H365 0.929 . S
C303 C299 1.527 . S
C303 H366 0.961 . S
C303 H367 0.959 . S
C303 H368 0.959 . S
C304 C301 1.603 . S
C304 H369 0.960 . S
C304 H370 0.962 . S
C304 H371 0.961 . S
C305 C272 1.587 . S
C305 C306 1.360 . S
C305 C318 1.412 . S
C306 C305 1.360 . S
C306 C307 1.365 . S
C306 H372 0.929 . S
C307 C282 1.553 . S
C307 C306 1.365 . S
C307 C308 1.404 . S
C308 C307 1.404 . S
C308 C309 1.395 . S
C308 C319 1.451 . S
C309 C308 1.395 . S
C309 C310 1.322 . S
C309 H373 0.930 . S
C310 C309 1.322 . S
C310 C311 1.459 . S
C310 H374 0.929 . S
C311 C310 1.459 . S
C311 C312 1.445 . S
C311 C320 1.395 . S
C312 C290 1.432 . S
C312 C311 1.445 . S
C312 C313 1.370 . S
C313 C312 1.370 . S
C313 C314 1.438 . S
C313 H375 0.930 . S
C314 C300 1.497 . S
C314 C313 1.438 . S
C314 C315 1.360 . S
C315 C314 1.360 . S
C315 C316 1.401 . S
C315 C320 1.446 . S
C316 C315 1.401 . S
C316 C317 1.347 . S
C316 H376 0.929 . S
C317 C316 1.347 . S
C317 C318 1.455 . S
C317 H377 0.930 . S
C318 C305 1.412 . S
C318 C317 1.455 . S
C318 C319 1.331 . S
C319 C308 1.451 . S
C319 C318 1.331 . S
C319 C320 1.497 . S
C320 C311 1.395 . S
C320 C315 1.446 . S
C320 C319 1.497 . S
C321 C322 1.582 . S
C321 H378 0.962 . S
C321 H379 0.959 . S
C321 H380 0.958 . S
C322 C321 1.582 . S
C322 O325 1.458 . S
C322 H351 0.980 . S
O323 C268 1.426 . S
O323 C269 1.334 . S
O324 C296 1.412 . S
O324 C297 1.393 . S
O325 C287 1.435 . S
O325 C322 1.458 . S
O326 C278 1.468 . S
O326 C279 1.408 . S
H327 C268 0.980 . S
H328 C267 0.959 . S
H329 C267 0.959 . S
H330 C267 0.960 . S
H331 C270 0.929 . S
H332 C274 0.929 . S
H333 C275 0.959 . S
H334 C275 0.961 . S
H335 C275 0.961 . S
H336 C276 0.960 . S
H337 C276 0.960 . S
H338 C276 0.961 . S
H339 C278 0.980 . S
H340 C277 0.961 . S
H341 C277 0.960 . S
H342 C277 0.959 . S
H343 C280 0.930 . S
H344 C284 0.931 . S
H345 C285 0.959 . S
H346 C285 0.961 . S
H347 C285 0.959 . S
H348 C286 0.960 . S
H349 C286 0.960 . S
H350 C286 0.960 . S
H351 C322 0.980 . S
H352 C288 0.930 . S
H353 C292 0.930 . S
H354 C293 0.961 . S
H355 C293 0.960 . S
H356 C293 0.958 . S
H357 C294 0.961 . S
H358 C294 0.960 . S
H359 C294 0.960 . S
H360 C296 0.980 . S
H361 C295 0.961 . S
H362 C295 0.961 . S
H363 C295 0.959 . S
H364 C298 0.932 . S
H365 C302 0.929 . S
H366 C303 0.961 . S
H367 C303 0.959 . S
H368 C303 0.959 . S
H369 C304 0.960 . S
H370 C304 0.962 . S
H371 C304 0.961 . S
H372 C306 0.929 . S
H373 C309 0.930 . S
H374 C310 0.929 . S
H375 C313 0.930 . S
H376 C316 0.929 . S
H377 C317 0.930 . S
H378 C321 0.962 . S
H379 C321 0.959 . S
H380 C321 0.958 . S
H381 C399 0.951 . S
H382 C401 0.951 . S
H383 C403 0.950 . S
H384 C404 0.950 . S
H385 C406 0.950 . S
H386 C409 0.950 . S
H387 C410 0.950 . S
H388 C412 0.950 . S
H389 C413 0.950 . S
H390 C414 0.951 . S
H391 C416 0.951 . S
H392 C418 0.950 . S
H393 C419 0.950 . S
H394 C421 0.950 . S
H395 C424 0.950 . S
H396 C425 0.950 . S
H397 C427 0.926 1_655 S
H398 C428 0.950 . S
C399 H381 0.951 . S
C399 C400 1.366 . S
C399 C401 1.388 . S
C400 C399 1.366 . S
C400 C404 1.385 1_455 S
C401 H382 0.951 . S
C401 C399 1.388 . S
C401 C402 1.366 . S
C402 C401 1.366 . S
C402 C403 1.414 1_455 S
C402 C405 1.499 . S
C403 H383 0.950 . S
C403 C402 1.414 1_655 S
C403 C404 1.374 . S
C404 H384 0.950 . S
C404 C400 1.385 1_655 S
C404 C403 1.374 . S
C405 C402 1.499 . S
C405 C406 1.373 . S
C405 C407 1.389 . S
C406 H385 0.950 . S
C406 C405 1.373 . S
C406 C422 1.377 . S
C407 C405 1.389 . S
C407 C408 1.524 . S
C407 C421 1.377 . S
C408 C407 1.524 . S
C408 C409 1.397 1_455 S
C408 C413 1.363 . S
C409 H386 0.950 . S
C409 C408 1.397 1_655 S
C409 C410 1.334 . S
C410 H387 0.950 . S
C410 C409 1.334 . S
C410 C411 1.287 . S
C411 C410 1.287 . S
C411 C412 1.524 1_655 S
C411 H430 0.913 . S
C412 H388 0.950 . S
C412 C411 1.524 1_455 S
C412 C413 1.415 . S
C413 H389 0.950 . S
C413 C408 1.363 . S
C413 C412 1.415 . S
C414 H390 0.951 . S
C414 C415 1.366 1_655 S
C414 C416 1.388 . S
C415 C414 1.366 1_455 S
C415 C419 1.385 . S
C416 H391 0.951 . S
C416 C414 1.388 . S
C416 C417 1.366 1_655 S
C417 C416 1.366 1_455 S
C417 C418 1.414 . S
C417 C420 1.499 . S
C418 H392 0.950 . S
C418 C417 1.414 . S
C418 C419 1.374 . S
C419 H393 0.950 . S
C419 C415 1.385 . S
C419 C418 1.374 . S
C420 C417 1.499 . S
C420 C421 1.373 . S
C420 C422 1.389 . S
C421 H394 0.950 . S
C421 C407 1.377 . S
C421 C420 1.373 . S
C422 C406 1.377 . S
C422 C420 1.389 . S
C422 C423 1.524 . S
C423 C422 1.524 . S
C423 C424 1.397 . S
C423 C428 1.363 1_455 S
C424 H395 0.950 . S
C424 C423 1.397 . S
C424 C425 1.334 . S
C425 H396 0.950 . S
C425 C424 1.334 . S
C425 C426 1.287 . S
C426 C425 1.287 . S
C426 C427 1.541 . S
C426 H429 0.999 . S
C427 H397 0.926 1_455 S
C427 C426 1.541 . S
C427 C428 1.426 1_455 S
C428 H398 0.950 . S
C428 C423 1.363 1_655 S
C428 C427 1.426 1_655 S
H429 C426 0.999 . S
H430 C411 0.913 . S
H431 C449 0.951 . S
H432 C451 0.951 . S
H433 C453 0.950 . S
H434 C454 0.950 . S
H435 C456 0.950 1_565 S
H436 C459 0.950 . S
H437 C460 0.950 . S
H438 C462 0.950 . S
H439 C463 0.950 . S
H440 C464 0.951 . S
H441 C466 0.951 . S
H442 C468 0.950 . S
H443 C469 0.950 . S
H444 C471 0.950 . S
H445 C474 0.950 . S
H446 C475 0.950 . S
H447 C477 0.950 . S
H448 C478 0.950 . S
C449 H431 0.951 . S
C449 C450 1.366 . S
C449 C451 1.388 . S
C450 C449 1.366 . S
C450 C454 1.385 . S
C451 H432 0.951 . S
C451 C449 1.388 . S
C451 C452 1.366 . S
C452 C451 1.366 . S
C452 C453 1.414 . S
C452 C455 1.499 . S
C453 H433 0.950 . S
C453 C452 1.414 . S
C453 C454 1.374 . S
C454 H434 0.950 . S
C454 C450 1.385 . S
C454 C453 1.374 . S
C455 C452 1.499 . S
C455 C456 1.373 . S
C455 C457 1.389 . S
C456 H435 0.950 1_545 S
C456 C455 1.373 . S
C456 C472 1.377 . S
C457 C455 1.389 . S
C457 C458 1.524 . S
C457 C471 1.377 . S
C458 C457 1.524 . S
C458 C459 1.397 . S
C458 C463 1.363 . S
C459 H436 0.950 . S
C459 C458 1.397 . S
C459 C460 1.334 . S
C460 H437 0.950 . S
C460 C459 1.334 . S
C460 C461 1.287 . S
C461 C460 1.287 . S
C461 C462 1.524 . S
C461 H480 0.913 . S
C462 H438 0.950 . S
C462 C461 1.524 . S
C462 C463 1.415 . S
C463 H439 0.950 . S
C463 C458 1.363 . S
C463 C462 1.415 . S
C464 H440 0.951 . S
C464 C465 1.366 . S
C464 C466 1.388 . S
C465 C464 1.366 . S
C465 C469 1.385 . S
C466 H441 0.951 . S
C466 C464 1.388 . S
C466 C467 1.366 . S
C467 C466 1.366 . S
C467 C468 1.414 . S
C467 C470 1.499 . S
C468 H442 0.950 . S
C468 C467 1.414 . S
C468 C469 1.374 . S
C469 H443 0.950 . S
C469 C465 1.385 . S
C469 C468 1.374 . S
C470 C467 1.499 . S
C470 C471 1.373 . S
C470 C472 1.389 . S
C471 H444 0.950 . S
C471 C457 1.377 . S
C471 C470 1.373 . S
C472 C456 1.377 . S
C472 C470 1.389 . S
C472 C473 1.524 1_545 S
C473 C472 1.524 1_565 S
C473 C474 1.397 . S
C473 C478 1.363 . S
C474 H445 0.950 . S
C474 C473 1.397 . S
C474 C475 1.334 . S
C475 H446 0.950 . S
C475 C474 1.334 . S
C475 C476 1.287 . S
C476 C475 1.287 . S
C476 C477 1.524 . S
C476 H479 0.999 . S
C477 H447 0.950 . S
C477 C476 1.524 . S
C477 C478 1.415 . S
C478 H448 0.950 . S
C478 C473 1.363 . S
C478 C477 1.415 . S
H479 C476 0.999 . S
H480 C461 0.913 . S
H481 C499 0.951 . S
H482 C501 0.951 . S
H483 C503 0.950 . S
H484 C504 0.950 . S
H485 C506 0.950 . S
H486 C509 0.950 . S
H487 C510 0.950 . S
H488 C512 0.950 . S
H489 C513 0.950 . S
H490 C514 0.951 . S
H491 C516 0.951 . S
H492 C518 0.950 . S
H493 C519 0.950 . S
H494 C521 0.950 . S
H495 C524 0.950 . S
H496 C525 0.950 . S
H497 C527 0.950 . S
H498 C528 0.950 . S
C499 H481 0.951 . S
C499 C500 1.366 . S
C499 C501 1.388 . S
C500 C499 1.366 . S
C500 C504 1.385 . S
C501 H482 0.951 . S
C501 C499 1.388 . S
C501 C502 1.366 . S
C502 C501 1.366 . S
C502 C503 1.414 . S
C502 C505 1.499 . S
C503 H483 0.950 . S
C503 C502 1.414 . S
C503 C504 1.374 . S
C504 H484 0.950 . S
C504 C500 1.385 . S
C504 C503 1.374 . S
C505 C502 1.499 . S
C505 C506 1.373 . S
C505 C507 1.389 . S
C506 H485 0.950 . S
C506 C505 1.373 . S
C506 C522 1.377 . S
C507 C505 1.389 . S
C507 C508 1.524 . S
C507 C521 1.377 . S
C508 C507 1.524 . S
C508 C509 1.397 . S
C508 C513 1.363 . S
C509 H486 0.950 . S
C509 C508 1.397 . S
C509 C510 1.334 . S
C510 H487 0.950 . S
C510 C509 1.334 . S
C510 C511 1.287 . S
C511 C510 1.287 . S
C511 C512 1.524 . S
C511 H530 0.913 . S
C512 H488 0.950 . S
C512 C511 1.524 . S
C512 C513 1.415 . S
C513 H489 0.950 . S
C513 C508 1.363 . S
C513 C512 1.415 . S
C514 H490 0.951 . S
C514 C515 1.366 . S
C514 C516 1.388 . S
C515 C514 1.366 . S
C515 C519 1.385 . S
C516 H491 0.951 . S
C516 C514 1.388 . S
C516 C517 1.366 . S
C517 C516 1.366 . S
C517 C518 1.414 . S
C517 C520 1.499 . S
C518 H492 0.950 . S
C518 C517 1.414 . S
C518 C519 1.374 . S
C519 H493 0.950 . S
C519 C515 1.385 . S
C519 C518 1.374 . S
C520 C517 1.499 . S
C520 C521 1.373 . S
C520 C522 1.389 . S
C521 H494 0.950 . S
C521 C507 1.377 . S
C521 C520 1.373 . S
C522 C506 1.377 . S
C522 C520 1.389 . S
C522 C523 1.524 . S
C523 C522 1.524 . S
C523 C524 1.397 . S
C523 C528 1.363 . S
C524 H495 0.950 . S
C524 C523 1.397 . S
C524 C525 1.334 . S
C525 H496 0.950 . S
C525 C524 1.334 . S
C525 C526 1.287 . S
C526 C525 1.287 . S
C526 C527 1.524 . S
C526 H529 0.999 . S
C527 H497 0.950 . S
C527 C526 1.524 . S
C527 C528 1.415 . S
C528 H498 0.950 . S
C528 C523 1.363 . S
C528 C527 1.415 . S
H529 C526 0.999 . S
H530 C511 0.913 . S
H531 C549 0.951 . S
H532 C551 0.951 . S
H533 C553 0.950 . S
H534 C554 0.950 . S
H535 C556 0.950 . S
H536 C559 0.950 . S
H537 C560 0.950 . S
H538 C562 0.950 . S
H539 C563 0.950 . S
H540 C564 0.951 . S
H541 C566 0.951 . S
H542 C568 0.950 . S
H543 C569 0.950 . S
H544 C571 0.950 . S
H545 C574 0.950 . S
H546 C575 0.950 . S
H547 C577 0.950 . S
H548 C578 0.950 . S
C549 H531 0.951 . S
C549 C550 1.366 1_655 S
C549 C551 1.388 . S
C550 C549 1.366 1_455 S
C550 C554 1.385 . S
C551 H532 0.951 . S
C551 C549 1.388 . S
C551 C552 1.366 1_655 S
C552 C551 1.366 1_455 S
C552 C553 1.414 . S
C552 C555 1.499 . S
C553 H533 0.950 . S
C553 C552 1.414 . S
C553 C554 1.374 . S
C554 H534 0.950 . S
C554 C550 1.385 . S
C554 C553 1.374 . S
C555 C552 1.499 . S
C555 C556 1.373 . S
C555 C557 1.389 . S
C556 H535 0.950 . S
C556 C555 1.373 . S
C556 C572 1.377 . S
C557 C555 1.389 . S
C557 C558 1.524 . S
C557 C571 1.377 . S
C558 C557 1.524 . S
C558 C559 1.397 . S
C558 C563 1.363 1_455 S
C559 H536 0.950 . S
C559 C558 1.397 . S
C559 C560 1.334 . S
C560 H537 0.950 . S
C560 C559 1.334 . S
C560 C561 1.287 . S
C561 C560 1.287 . S
C561 C562 1.524 1_455 S
C561 H580 0.913 . S
C562 H538 0.950 . S
C562 C561 1.524 1_655 S
C562 C563 1.415 . S
C563 H539 0.950 . S
C563 C558 1.363 1_655 S
C563 C562 1.415 . S
C564 H540 0.951 . S
C564 C565 1.366 . S
C564 C566 1.388 . S
C565 C564 1.366 . S
C565 C569 1.385 1_455 S
C566 H541 0.951 . S
C566 C564 1.388 . S
C566 C567 1.366 . S
C567 C566 1.366 . S
C567 C568 1.414 1_455 S
C567 C570 1.499 . S
C568 H542 0.950 . S
C568 C567 1.414 1_655 S
C568 C569 1.374 . S
C569 H543 0.950 . S
C569 C565 1.385 1_655 S
C569 C568 1.374 . S
C570 C567 1.499 . S
C570 C571 1.373 . S
C570 C572 1.389 . S
C571 H544 0.950 . S
C571 C557 1.377 . S
C571 C570 1.373 . S
C572 C556 1.377 . S
C572 C570 1.389 . S
C572 C573 1.524 . S
C573 C572 1.524 . S
C573 C574 1.397 1_455 S
C573 C578 1.363 . S
C574 H545 0.950 . S
C574 C573 1.397 1_655 S
C574 C575 1.334 . S
C575 H546 0.950 . S
C575 C574 1.334 . S
C575 C576 1.287 1_655 S
C576 C575 1.287 1_455 S
C576 C577 1.524 . S
C576 H579 0.999 . S
C577 H547 0.950 . S
C577 C576 1.524 . S
C577 C578 1.415 . S
C578 H548 0.950 . S
C578 C573 1.363 . S
C578 C577 1.415 . S
H579 C576 0.999 . S
H580 C561 0.913 . S
H581 C599 0.951 1_565 S
H582 C601 0.951 1_565 S
H583 C603 0.950 . S
H584 C604 0.950 . S
H585 C606 0.950 . S
H586 C609 0.950 . S
H587 C610 0.950 . S
H588 C612 0.950 . S
H589 C613 0.950 . S
H590 C614 0.951 . S
H591 C616 0.951 . S
H592 C618 0.950 1_565 S
H593 C619 0.950 1_565 S
H594 C621 0.950 . S
H595 C624 0.950 . S
H596 C625 0.950 . S
H597 C627 0.950 . S
H598 C628 0.950 . S
C599 H581 0.951 1_545 S
C599 C600 1.366 . S
C599 C601 1.388 . S
C600 C599 1.366 . S
C600 C604 1.385 . S
C601 H582 0.951 1_545 S
C601 C599 1.388 . S
C601 C602 1.366 . S
C602 C601 1.366 . S
C602 C603 1.414 . S
C602 C605 1.499 . S
C603 H583 0.950 . S
C603 C602 1.414 . S
C603 C604 1.374 . S
C604 H584 0.950 . S
C604 C600 1.385 . S
C604 C603 1.374 . S
C605 C602 1.499 . S
C605 C606 1.373 . S
C605 C607 1.389 . S
C606 H585 0.950 . S
C606 C605 1.373 . S
C606 C622 1.377 . S
C607 C605 1.389 . S
C607 C608 1.524 . S
C607 C621 1.377 . S
C608 C607 1.524 . S
C608 C609 1.397 . S
C608 C613 1.363 1_545 S
C609 H586 0.950 . S
C609 C608 1.397 . S
C609 C610 1.334 . S
C610 H587 0.950 . S
C610 C609 1.334 . S
C610 C611 1.287 1_545 S
C611 C610 1.287 1_565 S
C611 C612 1.524 . S
C611 H630 0.913 . S
C612 H588 0.950 . S
C612 C611 1.524 . S
C612 C613 1.415 . S
C613 H589 0.950 . S
C613 C608 1.363 1_565 S
C613 C612 1.415 . S
C614 H590 0.951 . S
C614 C615 1.366 . S
C614 C616 1.388 . S
C615 C614 1.366 . S
C615 C619 1.385 . S
C616 H591 0.951 . S
C616 C614 1.388 . S
C616 C617 1.366 . S
C617 C616 1.366 . S
C617 C618 1.414 . S
C617 C620 1.499 . S
C618 H592 0.950 1_545 S
C618 C617 1.414 . S
C618 C619 1.374 . S
C619 H593 0.950 1_545 S
C619 C615 1.385 . S
C619 C618 1.374 . S
C620 C617 1.499 . S
C620 C621 1.373 . S
C620 C622 1.389 . S
C621 H594 0.950 . S
C621 C607 1.377 . S
C621 C620 1.373 . S
C622 C606 1.377 . S
C622 C620 1.389 . S
C622 C623 1.524 . S
C623 C622 1.524 . S
C623 C624 1.397 . S
C623 C628 1.363 . S
C624 H595 0.950 . S
C624 C623 1.397 . S
C624 C625 1.334 . S
C625 H596 0.950 . S
C625 C624 1.334 . S
C625 C626 1.287 . S
C626 C625 1.287 . S
C626 C627 1.524 . S
C626 H629 0.999 . S
C627 H597 0.950 . S
C627 C626 1.524 . S
C627 C628 1.415 . S
C628 H598 0.950 . S
C628 C623 1.363 . S
C628 C627 1.415 . S
H629 C626 0.999 . S
H630 C611 0.913 . S
H631 C649 0.951 . S
H632 C651 0.951 . S
H633 C653 0.950 . S
H634 C654 0.950 . S
H635 C656 0.950 . S
H636 C659 0.950 . S
H637 C660 0.950 . S
H638 C662 0.950 . S
H639 C663 0.950 . S
H640 C664 0.951 . S
H641 C666 0.951 . S
H642 C668 0.950 . S
H643 C669 0.950 . S
H644 C671 0.950 . S
H645 C674 0.950 . S
H646 C675 0.950 . S
H647 C677 0.950 . S
H648 C678 0.950 . S
C649 H631 0.951 . S
C649 C650 1.366 . S
C649 C651 1.388 . S
C650 C649 1.366 . S
C650 C654 1.385 . S
C651 H632 0.951 . S
C651 C649 1.388 . S
C651 C652 1.366 . S
C652 C651 1.366 . S
C652 C653 1.414 . S
C652 C655 1.499 . S
C653 H633 0.950 . S
C653 C652 1.414 . S
C653 C654 1.374 . S
C654 H634 0.950 . S
C654 C650 1.385 . S
C654 C653 1.374 . S
C655 C652 1.499 . S
C655 C656 1.373 . S
C655 C657 1.389 . S
C656 H635 0.950 . S
C656 C655 1.373 . S
C656 C672 1.377 . S
C657 C655 1.389 . S
C657 C658 1.524 . S
C657 C671 1.377 . S
C658 C657 1.524 . S
C658 C659 1.397 . S
C658 C663 1.363 . S
C659 H636 0.950 . S
C659 C658 1.397 . S
C659 C660 1.334 . S
C660 H637 0.950 . S
C660 C659 1.334 . S
C660 C661 1.287 . S
C661 C660 1.287 . S
C661 C662 1.524 . S
C661 H680 0.913 . S
C662 H638 0.950 . S
C662 C661 1.524 . S
C662 C663 1.415 . S
C663 H639 0.950 . S
C663 C658 1.363 . S
C663 C662 1.415 . S
C664 H640 0.951 . S
C664 C665 1.366 . S
C664 C666 1.388 . S
C665 C664 1.366 . S
C665 C669 1.385 . S
C666 H641 0.951 . S
C666 C664 1.388 . S
C666 C667 1.366 . S
C667 C666 1.366 . S
C667 C668 1.414 . S
C667 C670 1.499 . S
C668 H642 0.950 . S
C668 C667 1.414 . S
C668 C669 1.374 . S
C669 H643 0.950 . S
C669 C665 1.385 . S
C669 C668 1.374 . S
C670 C667 1.499 . S
C670 C671 1.373 . S
C670 C672 1.389 . S
C671 H644 0.950 . S
C671 C657 1.377 . S
C671 C670 1.373 . S
C672 C656 1.377 . S
C672 C670 1.389 . S
C672 C673 1.524 . S
C673 C672 1.524 . S
C673 C674 1.397 . S
C673 C678 1.363 . S
C674 H645 0.950 . S
C674 C673 1.397 . S
C674 C675 1.334 . S
C675 H646 0.950 . S
C675 C674 1.334 . S
C675 C676 1.287 . S
C676 C675 1.287 . S
C676 C677 1.524 . S
C676 H679 0.999 . S
C677 H647 0.950 . S
C677 C676 1.524 . S
C677 C678 1.415 . S
C678 H648 0.950 . S
C678 C673 1.363 . S
C678 C677 1.415 . S
H679 C676 0.999 . S
H680 C661 0.913 . S
H681 C699 0.951 . S
H682 C701 0.951 . S
H683 C703 0.950 . S
H684 C704 0.950 . S
H685 C706 0.950 . S
H686 C709 0.950 . S
H687 C710 0.950 . S
H688 C712 0.950 . S
H689 C713 0.950 . S
H690 C714 0.951 . S
H691 C716 0.951 . S
H692 C718 0.950 . S
H693 C719 0.950 . S
H694 C721 0.950 . S
H695 C724 0.950 . S
H696 C725 0.950 . S
H697 C727 0.950 . S
H698 C728 0.950 . S
C699 H681 0.951 . S
C699 C700 1.366 . S
C699 C701 1.388 . S
C700 C699 1.366 . S
C700 C704 1.385 . S
C701 H682 0.951 . S
C701 C699 1.388 . S
C701 C702 1.366 . S
C702 C701 1.366 . S
C702 C703 1.414 . S
C702 C705 1.499 . S
C703 H683 0.950 . S
C703 C702 1.414 . S
C703 C704 1.374 . S
C704 H684 0.950 . S
C704 C700 1.385 . S
C704 C703 1.374 . S
C705 C702 1.499 . S
C705 C706 1.373 . S
C705 C707 1.389 . S
C706 H685 0.950 . S
C706 C705 1.373 . S
C706 C722 1.377 . S
C707 C705 1.389 . S
C707 C708 1.524 . S
C707 C721 1.377 . S
C708 C707 1.524 . S
C708 C709 1.397 . S
C708 C713 1.363 . S
C709 H686 0.950 . S
C709 C708 1.397 . S
C709 C710 1.334 . S
C710 H687 0.950 . S
C710 C709 1.334 . S
C710 C711 1.287 . S
C711 C710 1.287 . S
C711 C712 1.524 . S
C711 H730 0.913 . S
C712 H688 0.950 . S
C712 C711 1.524 . S
C712 C713 1.415 . S
C713 H689 0.950 . S
C713 C708 1.363 . S
C713 C712 1.415 . S
C714 H690 0.951 . S
C714 C715 1.366 . S
C714 C716 1.388 . S
C715 C714 1.366 . S
C715 C719 1.385 . S
C716 H691 0.951 . S
C716 C714 1.388 . S
C716 C717 1.366 . S
C717 C716 1.366 . S
C717 C718 1.414 . S
C717 C720 1.499 . S
C718 H692 0.950 . S
C718 C717 1.414 . S
C718 C719 1.374 . S
C719 H693 0.950 . S
C719 C715 1.385 . S
C719 C718 1.374 . S
C720 C717 1.499 . S
C720 C721 1.373 . S
C720 C722 1.389 . S
C721 H694 0.950 . S
C721 C707 1.377 . S
C721 C720 1.373 . S
C722 C706 1.377 . S
C722 C720 1.389 . S
C722 C723 1.524 . S
C723 C722 1.524 . S
C723 C724 1.397 1_545 S
C723 C728 1.363 . S
C724 H695 0.950 . S
C724 C723 1.397 1_565 S
C724 C725 1.334 . S
C725 H696 0.950 . S
C725 C724 1.334 . S
C725 C726 1.287 . S
C726 C725 1.287 . S
C726 C727 1.524 1_565 S
C726 H729 0.999 . S
C727 H697 0.950 . S
C727 C726 1.524 1_545 S
C727 C728 1.415 . S
C728 H698 0.950 . S
C728 C723 1.363 . S
C728 C727 1.415 . S
H729 C726 0.999 . S
H730 C711 0.913 . S
H731 C749 0.951 . S
H732 C751 0.951 . S
H733 C753 0.950 . S
H734 C754 0.931 1_556 S
H735 C756 0.950 . S
H736 C759 0.950 . S
H737 C760 0.950 . S
H738 C762 0.950 . S
H739 C763 0.950 . S
H740 C764 0.951 . S
H741 C766 0.951 . S
H742 C768 0.950 . S
H743 C769 0.950 . S
H744 C771 0.950 . S
H745 C774 0.950 . S
H746 C775 0.950 . S
H747 C777 0.950 . S
H748 C778 0.950 . S
C749 H731 0.951 . S
C749 C750 1.366 . S
C749 C751 1.388 . S
C750 C749 1.366 . S
C750 C754 1.385 . S
C751 H732 0.951 . S
C751 C749 1.388 . S
C751 C752 1.381 . S
C752 C751 1.381 . S
C752 C753 1.408 1_554 S
C752 C755 1.489 1_554 S
C753 H733 0.950 . S
C753 C752 1.408 1_556 S
C753 C754 1.374 1_556 S
C754 H734 0.931 1_554 S
C754 C750 1.385 . S
C754 C753 1.374 1_554 S
C755 C752 1.489 1_556 S
C755 C756 1.373 . S
C755 C757 1.389 . S
C756 H735 0.950 . S
C756 C755 1.373 . S
C756 C772 1.377 . S
C757 C755 1.389 . S
C757 C758 1.484 1_556 S
C757 C771 1.377 . S
C758 C757 1.484 1_554 S
C758 C759 1.388 1_554 S
C758 C763 1.409 . S
C759 H736 0.950 . S
C759 C758 1.388 1_556 S
C759 C760 1.334 1_556 S
C760 H737 0.950 . S
C760 C759 1.334 1_554 S
C760 C761 1.287 . S
C761 C760 1.287 . S
C761 C762 1.524 . S
C761 H780 0.913 . S
C762 H738 0.950 . S
C762 C761 1.524 . S
C762 C763 1.415 . S
C763 H739 0.950 . S
C763 C758 1.409 . S
C763 C762 1.415 . S
C764 H740 0.951 . S
C764 C765 1.366 . S
C764 C766 1.388 . S
C765 C764 1.366 . S
C765 C769 1.385 . S
C766 H741 0.951 . S
C766 C764 1.388 . S
C766 C767 1.366 . S
C767 C766 1.366 . S
C767 C768 1.414 . S
C767 C770 1.499 . S
C768 H742 0.950 . S
C768 C767 1.414 . S
C768 C769 1.374 . S
C769 H743 0.950 . S
C769 C765 1.385 . S
C769 C768 1.374 . S
C770 C767 1.499 . S
C770 C771 1.373 . S
C770 C772 1.389 . S
C771 H744 0.950 . S
C771 C757 1.377 . S
C771 C770 1.373 . S
C772 C756 1.377 . S
C772 C770 1.389 . S
C772 C773 1.524 . S
C773 C772 1.524 . S
C773 C774 1.397 . S
C773 C778 1.363 . S
C774 H745 0.950 . S
C774 C773 1.397 . S
C774 C775 1.334 . S
C775 H746 0.950 . S
C775 C774 1.334 . S
C775 C776 1.287 . S
C776 C775 1.287 . S
C776 C777 1.524 . S
C776 H779 0.999 . S
C777 H747 0.950 . S
C777 C776 1.524 . S
C777 C778 1.415 . S
C778 H748 0.950 . S
C778 C773 1.363 . S
C778 C777 1.415 . S
H779 C776 0.999 . S
H780 C761 0.913 . S
H781 C799 0.951 . S
H782 C801 0.951 . S
H783 C803 0.950 . S
H784 C804 0.950 . S
H785 C806 0.950 . S
H786 C809 0.950 1_455 S
H787 C810 0.950 . S
H788 C812 0.950 . S
H789 C813 0.950 . S
H790 C814 0.951 . S
H791 C816 0.951 . S
H792 C818 0.950 . S
H793 C819 0.950 . S
H794 C821 0.950 . S
H795 C824 0.950 . S
H796 C825 0.950 . S
H797 C827 0.950 . S
H798 C828 0.950 . S
C799 H781 0.951 . S
C799 C800 1.366 1_655 S
C799 C801 1.388 . S
C800 C799 1.366 1_455 S
C800 C804 1.385 . S
C801 H782 0.951 . S
C801 C799 1.388 . S
C801 C802 1.366 1_655 S
C802 C801 1.366 1_455 S
C802 C803 1.414 . S
C802 C805 1.499 . S
C803 H783 0.950 . S
C803 C802 1.414 . S
C803 C804 1.374 . S
C804 H784 0.950 . S
C804 C800 1.385 . S
C804 C803 1.374 . S
C805 C802 1.499 . S
C805 C806 1.373 . S
C805 C807 1.389 1_455 S
C806 H785 0.950 . S
C806 C805 1.373 . S
C806 C822 1.377 . S
C807 C805 1.389 1_655 S
C807 C808 1.524 . S
C807 C821 1.377 . S
C808 C807 1.524 . S
C808 C809 1.397 . S
C808 C813 1.363 . S
C809 H786 0.950 1_655 S
C809 C808 1.397 . S
C809 C810 1.334 . S
C810 H787 0.950 . S
C810 C809 1.334 . S
C810 C811 1.287 . S
C811 C810 1.287 . S
C811 C812 1.524 . S
C811 H830 0.913 . S
C812 H788 0.950 . S
C812 C811 1.524 . S
C812 C813 1.415 . S
C813 H789 0.950 . S
C813 C808 1.363 . S
C813 C812 1.415 . S
C814 H790 0.951 . S
C814 C815 1.366 . S
C814 C816 1.388 . S
C815 C814 1.366 . S
C815 C819 1.385 1_455 S
C816 H791 0.951 . S
C816 C814 1.388 . S
C816 C817 1.366 . S
C817 C816 1.366 . S
C817 C818 1.414 1_455 S
C817 C820 1.499 . S
C818 H792 0.950 . S
C818 C817 1.414 1_655 S
C818 C819 1.374 . S
C819 H793 0.950 . S
C819 C815 1.385 1_655 S
C819 C818 1.374 . S
C820 C817 1.499 . S
C820 C821 1.373 1_455 S
C820 C822 1.389 . S
C821 H794 0.950 . S
C821 C807 1.377 . S
C821 C820 1.373 1_655 S
C822 C806 1.377 . S
C822 C820 1.389 . S
C822 C823 1.524 . S
C823 C822 1.524 . S
C823 C824 1.397 . S
C823 C828 1.363 . S
C824 H795 0.950 . S
C824 C823 1.397 . S
C824 C825 1.334 . S
C825 H796 0.950 . S
C825 C824 1.334 . S
C825 C826 1.287 . S
C826 C825 1.287 . S
C826 C827 1.524 . S
C826 H829 0.999 . S
C827 H797 0.950 . S
C827 C826 1.524 . S
C827 C828 1.415 . S
C828 H798 0.950 . S
C828 C823 1.363 . S
C828 C827 1.415 . S
H829 C826 0.999 . S
H830 C811 0.913 . S
H831 C849 0.951 . S
H832 C851 0.951 . S
H833 C853 0.920 1_565 S
H834 C854 0.950 1_565 S
H835 C856 0.949 1_565 S
H836 C859 0.950 . S
H837 C860 0.950 . S
H838 C862 0.950 . S
H839 C863 0.950 . S
H840 C864 0.951 . S
H841 C866 0.957 . S
H842 C868 0.950 . S
H843 C869 0.950 . S
H844 C871 0.950 . S
H845 C874 0.950 . S
H846 C875 0.950 . S
H847 C877 0.950 . S
H848 C878 0.950 . S
C849 H831 0.951 . S
C849 C850 1.366 . S
C849 C851 1.388 . S
C850 C849 1.366 . S
C850 C854 1.385 . S
C851 H832 0.951 . S
C851 C849 1.388 . S
C851 C852 1.366 . S
C852 C851 1.366 . S
C852 C853 1.431 . S
C852 C855 1.499 . S
C853 H833 0.920 1_545 S
C853 C852 1.431 . S
C853 C854 1.387 . S
C854 H834 0.950 1_545 S
C854 C850 1.385 . S
C854 C853 1.387 . S
C855 C852 1.499 . S
C855 C856 1.373 . S
C855 C857 1.389 . S
C856 H835 0.949 1_545 S
C856 C855 1.373 . S
C856 C872 1.377 . S
C857 C855 1.389 . S
C857 C858 1.524 . S
C857 C871 1.377 . S
C858 C857 1.524 . S
C858 C859 1.397 . S
C858 C863 1.363 . S
C859 H836 0.950 . S
C859 C858 1.397 . S
C859 C860 1.334 . S
C860 H837 0.950 . S
C860 C859 1.334 . S
C860 C861 1.287 . S
C861 C860 1.287 . S
C861 C862 1.524 . S
C861 H880 0.913 . S
C862 H838 0.950 . S
C862 C861 1.524 . S
C862 C863 1.415 . S
C863 H839 0.950 . S
C863 C858 1.363 . S
C863 C862 1.415 . S
C864 H840 0.951 . S
C864 C865 1.366 1_565 S
C864 C866 1.393 . S
C865 C864 1.366 1_545 S
C865 C869 1.385 . S
C866 H841 0.957 . S
C866 C864 1.393 . S
C866 C867 1.354 1_565 S
C867 C866 1.354 1_545 S
C867 C868 1.414 . S
C867 C870 1.499 . S
C868 H842 0.950 . S
C868 C867 1.414 . S
C868 C869 1.374 . S
C869 H843 0.950 . S
C869 C865 1.385 . S
C869 C868 1.374 . S
C870 C867 1.499 . S
C870 C871 1.373 . S
C870 C872 1.389 . S
C871 H844 0.950 . S
C871 C857 1.377 . S
C871 C870 1.373 . S
C872 C856 1.377 . S
C872 C870 1.389 . S
C872 C873 1.524 1_545 S
C873 C872 1.524 1_565 S
C873 C874 1.397 1_565 S
C873 C878 1.363 . S
C874 H845 0.950 . S
C874 C873 1.397 1_545 S
C874 C875 1.334 . S
C875 H846 0.950 . S
C875 C874 1.334 . S
C875 C876 1.287 1_545 S
C876 C875 1.287 1_565 S
C876 C877 1.524 . S
C876 H879 0.999 . S
C877 H847 0.950 . S
C877 C876 1.524 . S
C877 C878 1.415 . S
C878 H848 0.950 . S
C878 C873 1.363 . S
C878 C877 1.415 . S
H879 C876 0.999 . S
H880 C861 0.913 . S
H881 C899 0.951 . S
H882 C901 0.951 . S
H883 C903 0.950 . S
H884 C904 0.950 1_556 S
H885 C906 0.950 . S
H886 C909 0.950 . S
H887 C910 0.958 . S
H888 C912 0.950 . S
H889 C913 0.950 . S
H890 C914 0.951 . S
H891 C916 0.951 . S
H892 C918 0.950 . S
H893 C919 0.950 . S
H894 C921 0.950 . S
H895 C924 0.950 . S
H896 C925 0.950 . S
H897 C927 0.950 . S
H898 C928 0.950 . S
C899 H881 0.951 . S
C899 C900 1.366 . S
C899 C901 1.388 . S
C900 C899 1.366 . S
C900 C904 1.385 . S
C901 H882 0.951 . S
C901 C899 1.388 . S
C901 C902 1.366 1_554 S
C902 C901 1.366 1_556 S
C902 C903 1.414 . S
C902 C905 1.499 . S
C903 H883 0.950 . S
C903 C902 1.414 . S
C903 C904 1.374 1_556 S
C904 H884 0.950 1_554 S
C904 C900 1.385 . S
C904 C903 1.374 1_554 S
C905 C902 1.499 . S
C905 C906 1.373 . S
C905 C907 1.389 . S
C906 H885 0.950 . S
C906 C905 1.373 . S
C906 C922 1.377 . S
C907 C905 1.389 . S
C907 C908 1.524 . S
C907 C921 1.377 . S
C908 C907 1.524 . S
C908 C909 1.397 . S
C908 C913 1.363 1_556 S
C909 H886 0.950 . S
C909 C908 1.397 . S
C909 C910 1.334 1_556 S
C910 H887 0.958 . S
C910 C909 1.334 1_554 S
C910 C911 1.287 . S
C911 C910 1.287 . S
C911 C912 1.524 . S
C911 H930 0.913 . S
C912 H888 0.950 . S
C912 C911 1.524 . S
C912 C913 1.415 . S
C913 H889 0.950 . S
C913 C908 1.363 1_554 S
C913 C912 1.415 . S
C914 H890 0.951 . S
C914 C915 1.366 . S
C914 C916 1.388 . S
C915 C914 1.366 . S
C915 C919 1.385 . S
C916 H891 0.951 . S
C916 C914 1.388 . S
C916 C917 1.366 . S
C917 C916 1.366 . S
C917 C918 1.414 . S
C917 C920 1.499 . S
C918 H892 0.950 . S
C918 C917 1.414 . S
C918 C919 1.374 . S
C919 H893 0.950 . S
C919 C915 1.385 . S
C919 C918 1.374 . S
C920 C917 1.499 . S
C920 C921 1.373 . S
C920 C922 1.389 . S
C921 H894 0.950 . S
C921 C907 1.377 . S
C921 C920 1.373 . S
C922 C906 1.377 . S
C922 C920 1.389 . S
C922 C923 1.524 . S
C923 C922 1.524 . S
C923 C924 1.397 . S
C923 C928 1.363 . S
C924 H895 0.950 . S
C924 C923 1.397 . S
C924 C925 1.334 . S
C925 H896 0.950 . S
C925 C924 1.334 . S
C925 C926 1.287 . S
C926 C925 1.287 . S
C926 C927 1.524 . S
C926 H929 0.999 . S
C927 H897 0.950 . S
C927 C926 1.524 . S
C927 C928 1.415 . S
C928 H898 0.950 . S
C928 C923 1.363 . S
C928 C927 1.415 . S
H929 C926 0.999 . S
H930 C911 0.913 . S
H931 C949 0.951 . S
H932 C951 0.951 . S
H933 C953 0.950 . S
H934 C954 0.950 . S
H935 C956 0.950 . S
H936 C959 0.950 . S
H937 C960 0.950 . S
H938 C962 0.950 . S
H939 C963 0.950 . S
H940 C964 0.951 . S
H941 C966 0.951 . S
H942 C968 0.950 . S
H943 C969 0.950 . S
H944 C971 0.950 . S
H945 C974 0.950 . S
H946 C975 0.950 1_455 S
H947 C977 0.950 . S
H948 C978 0.950 . S
C949 H931 0.951 . S
C949 C950 1.366 . S
C949 C951 1.388 . S
C950 C949 1.366 . S
C950 C954 1.385 1_455 S
C951 H932 0.951 . S
C951 C949 1.388 . S
C951 C952 1.366 . S
C952 C951 1.366 . S
C952 C953 1.414 1_455 S
C952 C955 1.499 . S
C953 H933 0.950 . S
C953 C952 1.414 1_655 S
C953 C954 1.374 . S
C954 H934 0.950 . S
C954 C950 1.385 1_655 S
C954 C953 1.374 . S
C955 C952 1.499 . S
C955 C956 1.373 1_455 S
C955 C957 1.389 . S
C956 H935 0.950 . S
C956 C955 1.373 1_655 S
C956 C972 1.377 1_655 S
C957 C955 1.389 . S
C957 C958 1.524 . S
C957 C971 1.377 . S
C958 C957 1.524 . S
C958 C959 1.397 . S
C958 C963 1.363 . S
C959 H936 0.950 . S
C959 C958 1.397 . S
C959 C960 1.334 . S
C960 H937 0.950 . S
C960 C959 1.334 . S
C960 C961 1.287 . S
C961 C960 1.287 . S
C961 C962 1.524 . S
C961 H980 0.913 . S
C962 H938 0.950 . S
C962 C961 1.524 . S
C962 C963 1.415 . S
C963 H939 0.950 . S
C963 C958 1.363 . S
C963 C962 1.415 . S
C964 H940 0.951 . S
C964 C965 1.366 1_655 S
C964 C966 1.388 . S
C965 C964 1.366 1_455 S
C965 C969 1.385 . S
C966 H941 0.951 . S
C966 C964 1.388 . S
C966 C967 1.366 1_655 S
C967 C966 1.366 1_455 S
C967 C968 1.414 . S
C967 C970 1.499 . S
C968 H942 0.950 . S
C968 C967 1.414 . S
C968 C969 1.374 . S
C969 H943 0.950 . S
C969 C965 1.385 . S
C969 C968 1.374 . S
C970 C967 1.499 . S
C970 C971 1.373 . S
C970 C972 1.389 . S
C971 H944 0.950 . S
C971 C957 1.377 . S
C971 C970 1.373 . S
C972 C956 1.377 1_455 S
C972 C970 1.389 . S
C972 C973 1.524 1_455 S
C973 C972 1.524 1_655 S
C973 C974 1.397 1_655 S
C973 C978 1.363 . S
C974 H945 0.950 . S
C974 C973 1.397 1_455 S
C974 C975 1.334 1_455 S
C975 H946 0.950 1_655 S
C975 C974 1.334 1_655 S
C975 C976 1.287 . S
C976 C975 1.287 . S
C976 C977 1.524 . S
C976 H979 0.999 . S
C977 H947 0.950 . S
C977 C976 1.524 . S
C977 C978 1.415 . S
C978 H948 0.950 . S
C978 C973 1.363 . S
C978 C977 1.415 . S
H979 C976 0.999 . S
H980 C961 0.913 . S
C415 C94 1.170 . S
C400 C10 1.622 . S
C450 C17 1.631 . S
C465 C208 1.180 . S
C500 C36 1.366 . S
C515 C268 1.097 . S
C550 C5 1.462 . S
C565 C68 1.154 . S
C615 C182 1.156 . S
C600 C16 1.470 . S
C650 C31 1.536 . S
C665 C278 0.968 . S
C715 C164 0.971 . S
C700 C30 1.537 . S
C750 C3 1.464 . S
C765 C296 1.155 . S
C815 C40 1.097 1_455 S
C800 C18 1.367 . S
C865 C154 1.100 . S
C850 C29 1.371 . S
C915 C322 1.172 . S
C900 C4 1.626 . S
C950 C23 1.525 . S
C965 C50 0.956 . S
