# Generated by pormake.
# Topology apo, (3,6)-cn, num edge types: 1
# Building blocks:
#     Node 0, Type 0, BuildingBlock: VETTIZ_charged_linker_0, # of connection points: 3
#     Node 1, Type 0, BuildingBlock: VETTIZ_charged_linker_0, # of connection points: 3
#     Node 2, Type 0, BuildingBlock: VETTIZ_charged_linker_0, # of connection points: 3
#     Node 3, Type 0, BuildingBlock: VETTIZ_charged_linker_0, # of connection points: 3
#     Node 4, Type 0, BuildingBlock: VETTIZ_charged_linker_0, # of connection points: 3
#     Node 5, Type 0, BuildingBlock: VETTIZ_charged_linker_0, # of connection points: 3
#     Node 6, Type 0, BuildingBlock: VETTIZ_charged_linker_0, # of connection points: 3
#     Node 7, Type 0, BuildingBlock: VETTIZ_charged_linker_0, # of connection points: 3
#     Node 8, Type 1, BuildingBlock: KUMBOL_clean_sbu_1, # of connection points: 6
#     Node 9, Type 1, BuildingBlock: KUMBOL_clean_sbu_1, # of connection points: 6
#     Node 10, Type 1, BuildingBlock: KUMBOL_clean_sbu_1, # of connection points: 6
#     Node 11, Type 1, BuildingBlock: KUMBOL_clean_sbu_1, # of connection points: 6
#     Edge 12, Type (0, 1), BuildingBlock: CIFDUS_clean_linker_0, # of connection points: 2
#     Edge 13, Type (0, 1), BuildingBlock: CIFDUS_clean_linker_0, # of connection points: 2
#     Edge 14, Type (0, 1), BuildingBlock: CIFDUS_clean_linker_0, # of connection points: 2
#     Edge 15, Type (0, 1), BuildingBlock: CIFDUS_clean_linker_0, # of connection points: 2
#     Edge 16, Type (0, 1), BuildingBlock: CIFDUS_clean_linker_0, # of connection points: 2
#     Edge 17, Type (0, 1), BuildingBlock: CIFDUS_clean_linker_0, # of connection points: 2
#     Edge 18, Type (0, 1), BuildingBlock: CIFDUS_clean_linker_0, # of connection points: 2
#     Edge 19, Type (0, 1), BuildingBlock: CIFDUS_clean_linker_0, # of connection points: 2
#     Edge 20, Type (0, 1), BuildingBlock: CIFDUS_clean_linker_0, # of connection points: 2
#     Edge 21, Type (0, 1), BuildingBlock: CIFDUS_clean_linker_0, # of connection points: 2
#     Edge 22, Type (0, 1), BuildingBlock: CIFDUS_clean_linker_0, # of connection points: 2
#     Edge 23, Type (0, 1), BuildingBlock: CIFDUS_clean_linker_0, # of connection points: 2
#     Edge 24, Type (0, 1), BuildingBlock: CIFDUS_clean_linker_0, # of connection points: 2
#     Edge 25, Type (0, 1), BuildingBlock: CIFDUS_clean_linker_0, # of connection points: 2
#     Edge 26, Type (0, 1), BuildingBlock: CIFDUS_clean_linker_0, # of connection points: 2
#     Edge 27, Type (0, 1), BuildingBlock: CIFDUS_clean_linker_0, # of connection points: 2
#     Edge 28, Type (0, 1), BuildingBlock: CIFDUS_clean_linker_0, # of connection points: 2
#     Edge 29, Type (0, 1), BuildingBlock: CIFDUS_clean_linker_0, # of connection points: 2
#     Edge 30, Type (0, 1), BuildingBlock: CIFDUS_clean_linker_0, # of connection points: 2
#     Edge 31, Type (0, 1), BuildingBlock: CIFDUS_clean_linker_0, # of connection points: 2
#     Edge 32, Type (0, 1), BuildingBlock: CIFDUS_clean_linker_0, # of connection points: 2
#     Edge 33, Type (0, 1), BuildingBlock: CIFDUS_clean_linker_0, # of connection points: 2
#     Edge 34, Type (0, 1), BuildingBlock: CIFDUS_clean_linker_0, # of connection points: 2
#     Edge 35, Type (0, 1), BuildingBlock: CIFDUS_clean_linker_0, # of connection points: 2
# Relax obj value: 0.010
# Max RMSD: 0.102
# Mean RMSD: 0.080
data_MOF--net-apo--node1-KUMBOL_clean_sbu_1--node2-VETTIZ_charged_linker_0--edge1-CIFDUS_clean_linker_0
_symmetry_space_group_name_H-M    P1
_symmetry_Int_Tables_number       1
_symmetry_cell_setting            triclinic
loop_
_symmetry_equiv_pos_as_xyz
'x, y, z'
_cell_length_a     26.083143
_cell_length_b     46.673322
_cell_length_c     57.8951
_cell_angle_alpha  90.045394
_cell_angle_beta   89.83252
_cell_angle_gamma 90.824367
loop_
_atom_site_label
_atom_site_type_symbol
_atom_site_fract_x
_atom_site_fract_y
_atom_site_fract_z
_atom_type_partial_charge
C0 C 0.31732 0.36724 0.49157 0.0
C1 C 0.35033 0.38739 0.50225 0.0
C2 C 0.36483 0.41238 0.49012 0.0
C3 C 0.31627 0.39661 0.45693 0.0
C4 C 0.30098 0.37224 0.46881 0.0
C5 C 0.26736 0.35293 0.45417 0.0
H6 H 0.16238 0.32572 0.34883 0.0
C7 C 0.2941 0.39539 0.4336 0.0
C8 C 0.26517 0.36988 0.43172 0.0
H9 H 0.15198 0.27249 0.40965 0.0
H10 H 0.19902 0.30852 0.43174 0.0
H11 H 0.13594 0.38273 0.37328 0.0
H12 H 0.28023 0.34549 0.35521 0.0
H13 H 0.28272 0.38186 0.34722 0.0
H14 H 0.23504 0.35857 0.33453 0.0
H15 H 0.16251 0.38645 0.34484 0.0
H16 H 0.17721 0.41187 0.36752 0.0
C17 C 0.21412 0.3503 0.46586 0.0
C18 C 0.29492 0.32405 0.45105 0.0
C19 C 0.3358 0.47517 0.37657 0.0
C20 C 0.31975 0.4804 0.35387 0.0
C21 C 0.28531 0.46119 0.34314 0.0
C22 C 0.2678 0.4366 0.35472 0.0
C23 C 0.28451 0.43137 0.37738 0.0
C24 C 0.31718 0.45077 0.38807 0.0
C25 C 0.32879 0.4424 0.41254 0.0
C26 C 0.29851 0.41445 0.41459 0.0
C27 C 0.27322 0.40802 0.3939 0.0
C28 C 0.30733 0.46592 0.42873 0.0
C29 C 0.38742 0.43779 0.41449 0.0
C30 C 0.17029 0.32183 0.36692 0.0
C31 C 0.15414 0.29625 0.37752 0.0
C32 C 0.16415 0.29214 0.40119 0.0
C33 C 0.19175 0.31295 0.41387 0.0
C34 C 0.20919 0.3381 0.40273 0.0
C35 C 0.19742 0.34231 0.37972 0.0
C36 C 0.21753 0.37035 0.37061 0.0
C37 C 0.24451 0.38216 0.39174 0.0
C38 C 0.24004 0.36319 0.41055 0.0
C39 C 0.17121 0.38888 0.36351 0.0
C40 C 0.25571 0.36399 0.35074 0.0
H41 H 0.36101 0.43644 0.45942 0.0
H42 H 0.30548 0.34787 0.50051 0.0
H43 H 0.33662 0.32766 0.44791 0.0
H44 H 0.28108 0.31173 0.436 0.0
H45 H 0.29072 0.31054 0.46675 0.0
H46 H 0.20254 0.37122 0.47332 0.0
H47 H 0.21456 0.33437 0.48011 0.0
H48 H 0.18337 0.34441 0.45362 0.0
H49 H 0.36194 0.48988 0.38522 0.0
H50 H 0.2728 0.46495 0.32558 0.0
H51 H 0.24232 0.42251 0.34549 0.0
H52 H 0.27234 0.47566 0.4213 0.0
H53 H 0.33592 0.48345 0.43146 0.0
H54 H 0.29469 0.45747 0.44567 0.0
H55 H 0.40322 0.42889 0.39816 0.0
H56 H 0.39761 0.42199 0.42784 0.0
H57 H 0.40807 0.45829 0.41804 0.0
H58 H 0.3892 0.42852 0.49814 0.0
C59 C 0.34809 0.41707 0.46763 0.0
C60 C 0.34367 0.18399 0.86884 0.0
C61 C 0.35324 0.21126 0.87859 0.0
C62 C 0.33584 0.21625 0.90141 0.0
C63 C 0.29907 0.16821 0.90351 0.0
C64 C 0.31546 0.1634 0.88117 0.0
C65 C 0.29646 0.13518 0.87177 0.0
H66 H 0.15874 0.01272 0.88688 0.0
C67 C 0.26948 0.14258 0.91114 0.0
C68 C 0.26721 0.1234 0.89239 0.0
H69 H 0.23558 0.0424 0.8249 0.0
H70 H 0.26607 0.08457 0.845 0.0
H71 H 0.24868 0.02862 0.92073 0.0
H72 H 0.1124 0.07256 0.90105 0.0
H73 H 0.11959 0.0785 0.93079 0.0
H74 H 0.11182 0.04235 0.92019 0.0
H75 H 0.18712 0.01973 0.93282 0.0
H76 H 0.22868 0.04657 0.94571 0.0
C77 C 0.34348 0.11668 0.86578 0.0
C78 C 0.2606 0.14123 0.85102 0.0
C79 C 0.20042 0.13434 0.99365 0.0
C80 C 0.17053 0.11292 1.00457 0.0
C81 C 0.1574 0.08782 0.99237 0.0
C82 C 0.17252 0.08416 0.96948 0.0
C83 C 0.20102 0.10589 0.95846 0.0
C84 C 0.21503 0.13041 0.97045 0.0
C85 C 0.24418 0.15137 0.95529 0.0
C86 C 0.246 0.13498 0.93253 0.0
C87 C 0.22031 0.10847 0.93463 0.0
C88 C 0.29821 0.15601 0.96565 0.0
C89 C 0.21256 0.17911 0.95332 0.0
C90 C 0.1817 0.02843 0.87757 0.0
C91 C 0.19462 0.02421 0.85425 0.0
C92 C 0.22546 0.04498 0.84293 0.0
C93 C 0.24285 0.06958 0.85459 0.0
C94 C 0.22923 0.07359 0.87786 0.0
C95 C 0.19938 0.05312 0.88895 0.0
C96 C 0.18909 0.06077 0.91371 0.0
C97 C 0.21662 0.08957 0.91549 0.0
C98 C 0.24009 0.09695 0.8945 0.0
C99 C 0.2142 0.03776 0.92919 0.0
C100 C 0.13025 0.06355 0.91684 0.0
H101 H 0.29733 0.20002 0.93115 0.0
H102 H 0.35694 0.1785 0.85172 0.0
H103 H 0.24165 0.16232 0.85286 0.0
H104 H 0.22847 0.12562 0.84969 0.0
H105 H 0.28225 0.14156 0.83447 0.0
H106 H 0.37357 0.11904 0.87926 0.0
H107 H 0.3607 0.12329 0.849 0.0
H108 H 0.33427 0.09353 0.86512 0.0
H109 H 0.21074 0.1539 1.00269 0.0
H110 H 0.13494 0.07096 1.00061 0.0
H111 H 0.16071 0.06464 0.9612 0.0
H112 H 0.31544 0.1351 0.9702 0.0
H113 H 0.29634 0.16915 0.98164 0.0
H114 H 0.32526 0.16647 0.95354 0.0
H115 H 0.17071 0.17434 0.95447 0.0
H116 H 0.21763 0.18988 0.93647 0.0
H117 H 0.22236 0.19441 0.96739 0.0
H118 H 0.34114 0.23693 0.90955 0.0
C119 C 0.30953 0.19482 0.91396 0.0
C120 C 0.79868 0.14063 0.5256 0.0
C121 C 0.82331 0.12075 0.51128 0.0
C122 C 0.84645 0.09673 0.52139 0.0
C123 C 0.81778 0.11205 0.55942 0.0
C124 C 0.79642 0.13594 0.54942 0.0
C125 C 0.7713 0.15515 0.56679 0.0
H126 H 0.69389 0.17856 0.67652 0.0
C127 C 0.80753 0.11345 0.5846 0.0
C128 C 0.78056 0.13879 0.58896 0.0
H129 H 0.6776 0.23417 0.61717 0.0
H130 H 0.72211 0.20036 0.59354 0.0
H131 H 0.67779 0.11626 0.65018 0.0
H132 H 0.80696 0.1692 0.66882 0.0
H133 H 0.83114 0.13433 0.66768 0.0
H134 H 0.78158 0.14284 0.68837 0.0
H135 H 0.69739 0.12433 0.67923 0.0
H136 H 0.72432 0.09484 0.66364 0.0
C137 C 0.71349 0.15658 0.56089 0.0
C138 C 0.79978 0.18456 0.56658 0.0
C139 C 0.86439 0.03321 0.63813 0.0
C140 C 0.86349 0.03003 0.66242 0.0
C141 C 0.84118 0.052 0.67575 0.0
C142 C 0.81934 0.07589 0.66533 0.0
C143 C 0.82071 0.07863 0.64123 0.0
C144 C 0.84379 0.05782 0.62802 0.0
C145 C 0.8455 0.06582 0.60278 0.0
C146 C 0.81882 0.09459 0.60314 0.0
C147 C 0.80369 0.10163 0.62572 0.0
C148 C 0.81457 0.04299 0.58908 0.0
C149 C 0.90243 0.06879 0.59532 0.0
C150 C 0.70007 0.18375 0.65851 0.0
C151 C 0.68089 0.20914 0.64885 0.0
C152 C 0.69018 0.21454 0.62516 0.0
C153 C 0.71671 0.19495 0.6114 0.0
C154 C 0.73517 0.1697 0.62133 0.0
C155 C 0.72749 0.1647 0.64459 0.0
C156 C 0.75316 0.13782 0.65257 0.0
C157 C 0.77594 0.12703 0.63004 0.0
C158 C 0.76483 0.14562 0.61179 0.0
C159 C 0.71125 0.11712 0.66205 0.0
C160 C 0.7952 0.14627 0.67038 0.0
H161 H 0.86118 0.0733 0.55208 0.0
H162 H 0.78136 0.15958 0.51837 0.0
H163 H 0.84066 0.18226 0.56143 0.0
H164 H 0.80138 0.19467 0.58385 0.0
H165 H 0.78189 0.19957 0.5542 0.0
H166 H 0.69831 0.13503 0.55597 0.0
H167 H 0.7069 0.17127 0.54614 0.0
H168 H 0.68958 0.16342 0.57557 0.0
H169 H 0.88081 0.01707 0.62704 0.0
H170 H 0.84131 0.05128 0.69442 0.0
H171 H 0.80272 0.0915 0.67653 0.0
H172 H 0.77812 0.03754 0.59821 0.0
H173 H 0.8367 0.02297 0.58718 0.0
H174 H 0.8032 0.0504 0.57178 0.0
H175 H 0.92651 0.07705 0.60976 0.0
H176 H 0.90837 0.08444 0.58124 0.0
H177 H 0.91804 0.04778 0.58994 0.0
H178 H 0.86561 0.08113 0.51066 0.0
C179 C 0.8436 0.0922 0.54539 0.0
C180 C 0.81995 0.31795 0.16288 0.0
C181 C 0.84499 0.29393 0.15393 0.0
C182 C 0.84145 0.28829 0.12999 0.0
C183 C 0.79073 0.33111 0.12462 0.0
C184 C 0.79397 0.33621 0.14805 0.0
C185 C 0.76882 0.36347 0.15514 0.0
H186 H 0.65813 0.48789 0.12751 0.0
C187 C 0.76189 0.35509 0.11426 0.0
C188 C 0.74934 0.37404 0.13212 0.0
H189 H 0.70076 0.45529 0.19468 0.0
H190 H 0.72626 0.41126 0.17773 0.0
H191 H 0.75377 0.46182 0.09746 0.0
H192 H 0.60305 0.42638 0.11178 0.0
H193 H 0.61938 0.41814 0.0831 0.0
H194 H 0.61255 0.45514 0.09159 0.0
H195 H 0.69587 0.4779 0.08727 0.0
H196 H 0.72527 0.44913 0.0717 0.0
C197 C 0.81102 0.38363 0.16532 0.0
C198 C 0.72419 0.35582 0.17196 0.0
C199 C 0.72841 0.3572 0.02807 0.0
C200 C 0.70366 0.37653 0.01338 0.0
C201 C 0.6807 0.40096 0.02304 0.0
C202 C 0.68377 0.40641 0.04691 0.0
C203 C 0.70983 0.38715 0.06126 0.0
C204 C 0.731 0.36283 0.05175 0.0
C205 C 0.75666 0.34441 0.06944 0.0
C206 C 0.74709 0.36144 0.09126 0.0
C207 C 0.72012 0.38671 0.0864 0.0
C208 C 0.8145 0.34309 0.06343 0.0
C209 C 0.7289 0.31488 0.06996 0.0
C210 C 0.67297 0.47116 0.13846 0.0
C211 C 0.67927 0.47562 0.16243 0.0
C212 C 0.69752 0.45302 0.17611 0.0
C213 C 0.71197 0.4272 0.16623 0.0
C214 C 0.7081 0.42349 0.14229 0.0
C215 C 0.6876 0.44481 0.12877 0.0
C216 C 0.68427 0.43577 0.10372 0.0
C217 C 0.70874 0.40627 0.10454 0.0
C218 C 0.72272 0.39956 0.12723 0.0
C219 C 0.71619 0.45727 0.08909 0.0
C220 C 0.62695 0.43389 0.09697 0.0
H221 H 0.81331 0.30143 0.09726 0.0
H222 H 0.82065 0.32272 0.18118 0.0
H223 H 0.70818 0.33402 0.16843 0.0
H224 H 0.69105 0.37016 0.17007 0.0
H225 H 0.73722 0.35617 0.19021 0.0
H226 H 0.84854 0.38035 0.15656 0.0
H227 H 0.81664 0.37955 0.18403 0.0
H228 H 0.80328 0.40659 0.16275 0.0
H229 H 0.74557 0.33794 0.02127 0.0
H230 H 0.66142 0.41617 0.01207 0.0
H231 H 0.66626 0.42554 0.05324 0.0
H232 H 0.82862 0.36394 0.05639 0.0
H233 H 0.82191 0.32638 0.05021 0.0
H234 H 0.83878 0.33912 0.07865 0.0
H235 H 0.68673 0.31743 0.06824 0.0
H236 H 0.73419 0.30334 0.08639 0.0
H237 H 0.74198 0.30108 0.05552 0.0
H238 H 0.86053 0.27002 0.12253 0.0
C239 C 0.81433 0.3067 0.11531 0.0
C240 C 0.68649 0.53882 0.65975 0.0
C241 C 0.65413 0.51747 0.65056 0.0
C242 C 0.64119 0.5183 0.62699 0.0
C243 C 0.69078 0.5623 0.62231 0.0
C244 C 0.70378 0.56116 0.64544 0.0
C245 C 0.73368 0.58726 0.65305 0.0
H246 H 0.82356 0.72087 0.62995 0.0
C247 C 0.7119 0.58938 0.61269 0.0
C248 C 0.73673 0.60419 0.6307 0.0
H249 H 0.8296 0.67441 0.6944 0.0
H250 H 0.79185 0.63275 0.67615 0.0
H251 H 0.86343 0.66964 0.5997 0.0
H252 H 0.71027 0.69829 0.61321 0.0
H253 H 0.71717 0.6923 0.58329 0.0
H254 H 0.75748 0.71857 0.59725 0.0
H255 H 0.83624 0.69857 0.58374 0.0
H256 H 0.82808 0.6617 0.57471 0.0
C257 C 0.78729 0.57757 0.6611 0.0
C258 C 0.70184 0.60281 0.67182 0.0
C259 C 0.68384 0.61429 0.528 0.0
C260 C 0.69901 0.63797 0.51437 0.0
C261 C 0.72864 0.66004 0.52471 0.0
C262 C 0.74161 0.65906 0.54812 0.0
C263 C 0.72531 0.63565 0.56156 0.0
C264 C 0.69767 0.61352 0.55142 0.0
C265 C 0.68486 0.59005 0.56841 0.0
C266 C 0.7098 0.6017 0.59027 0.0
C267 C 0.73278 0.62863 0.58618 0.0
C268 C 0.71059 0.56222 0.56001 0.0
C269 C 0.62569 0.58782 0.5707 0.0
C270 C 0.81621 0.70176 0.64011 0.0
C271 C 0.82885 0.70101 0.66372 0.0
C272 C 0.82014 0.6755 0.67622 0.0
C273 C 0.79796 0.65138 0.66561 0.0
C274 C 0.78423 0.65266 0.64218 0.0
C275 C 0.79443 0.67732 0.62969 0.0
C276 C 0.77965 0.67413 0.60468 0.0
C277 C 0.75662 0.64399 0.60455 0.0
C278 C 0.75913 0.63165 0.6266 0.0
C279 C 0.82911 0.67629 0.58979 0.0
C280 C 0.7392 0.69705 0.5991 0.0
H281 H 0.64816 0.5401 0.59498 0.0
H282 H 0.6959 0.53891 0.67797 0.0
H283 H 0.66005 0.60075 0.66824 0.0
H284 H 0.70929 0.62612 0.67245 0.0
H285 H 0.70877 0.59359 0.6892 0.0
H286 H 0.8011 0.55943 0.65039 0.0
H287 H 0.78628 0.57029 0.67936 0.0
H288 H 0.81704 0.5945 0.65914 0.0
H289 H 0.66102 0.59695 0.52077 0.0
H290 H 0.74233 0.67814 0.51462 0.0
H291 H 0.76376 0.67667 0.55486 0.0
H292 H 0.74987 0.5669 0.55334 0.0
H293 H 0.68824 0.55206 0.54582 0.0
H294 H 0.7157 0.54638 0.57392 0.0
H295 H 0.60775 0.60909 0.56824 0.0
H296 H 0.61299 0.58088 0.58805 0.0
H297 H 0.60919 0.57302 0.55756 0.0
H298 H 0.61587 0.50206 0.61973 0.0
C299 C 0.65975 0.54046 0.61274 0.0
C300 C 0.67643 0.82532 0.15923 0.0
C301 C 0.65845 0.79906 0.15044 0.0
C302 C 0.66902 0.79192 0.12727 0.0
C303 C 0.71454 0.83728 0.122 0.0
C304 C 0.70478 0.84381 0.14489 0.0
C305 C 0.72959 0.87157 0.15219 0.0
H306 H 0.87105 0.98982 0.12658 0.0
C307 C 0.74579 0.86109 0.11207 0.0
C308 C 0.75508 0.88102 0.12983 0.0
H309 H 0.80967 0.96333 0.19271 0.0
H310 H 0.77249 0.921 0.17542 0.0
H311 H 0.91182 0.92907 0.11274 0.0
H312 H 0.76974 0.96949 0.09519 0.0
H313 H 0.79528 0.95388 0.07005 0.0
H314 H 0.831 0.98178 0.08463 0.0
H315 H 0.90879 0.95649 0.09109 0.0
H316 H 0.89745 0.91919 0.08421 0.0
C317 C 0.76939 0.86505 0.17132 0.0
C318 C 0.68661 0.89224 0.15963 0.0
C319 C 0.79291 0.86168 0.02642 0.0
C320 C 0.8221 0.88077 0.01268 0.0
C321 C 0.84445 0.90519 0.02316 0.0
C322 C 0.83746 0.91078 0.04674 0.0
C323 C 0.80802 0.89167 0.06023 0.0
C324 C 0.78678 0.8674 0.05013 0.0
C325 C 0.75854 0.84894 0.06749 0.0
C326 C 0.76511 0.86654 0.08944 0.0
C327 C 0.79401 0.89165 0.08504 0.0
C328 C 0.78601 0.8198 0.06907 0.0
C329 C 0.70172 0.84658 0.06006 0.0
C330 C 0.84919 0.9749 0.13718 0.0
C331 C 0.84305 0.97983 0.16102 0.0
C332 C 0.81507 0.95982 0.17437 0.0
C333 C 0.79351 0.93525 0.16426 0.0
C334 C 0.8004 0.93029 0.14052 0.0
C335 C 0.82801 0.94984 0.12736 0.0
C336 C 0.83297 0.94017 0.10258 0.0
C337 C 0.80369 0.9117 0.10313 0.0
C338 C 0.78442 0.90627 0.12537 0.0
C339 C 0.89065 0.93615 0.09714 0.0
C340 C 0.80623 0.96246 0.08712 0.0
H341 H 0.70318 0.80451 0.0954 0.0
H342 H 0.66981 0.83099 0.17713 0.0
H343 H 0.65326 0.89041 0.14775 0.0
H344 H 0.69851 0.91501 0.15896 0.0
H345 H 0.67272 0.88719 0.17734 0.0
H346 H 0.78354 0.84272 0.17003 0.0
H347 H 0.75256 0.86767 0.18883 0.0
H348 H 0.80446 0.87857 0.16989 0.0
H349 H 0.77573 0.84257 0.01893 0.0
H350 H 0.86665 0.92037 0.01294 0.0
H351 H 0.85518 0.92986 0.05354 0.0
H352 H 0.82799 0.82246 0.06612 0.0
H353 H 0.77113 0.80448 0.05593 0.0
H354 H 0.78274 0.80995 0.08637 0.0
H355 H 0.68734 0.86789 0.05471 0.0
H356 H 0.67606 0.83931 0.07411 0.0
H357 H 0.69712 0.83172 0.04518 0.0
H358 H 0.65564 0.77164 0.12025 0.0
C359 C 0.69661 0.811 0.11293 0.0
C360 C 0.20212 0.96226 0.36067 0.0
C361 C 0.16517 0.98178 0.36804 0.0
C362 C 0.14786 0.9805 0.39116 0.0
C363 C 0.20023 0.93861 0.39799 0.0
C364 C 0.21825 0.9408 0.37559 0.0
C365 C 0.25301 0.91688 0.36901 0.0
H366 H 0.32606 0.78215 0.38555 0.0
C367 C 0.22161 0.9121 0.40806 0.0
C368 C 0.25223 0.89933 0.39102 0.0
H369 H 0.36598 0.84003 0.32967 0.0
H370 H 0.32914 0.87901 0.35029 0.0
H371 H 0.367 0.82819 0.42366 0.0
H372 H 0.21513 0.80613 0.40037 0.0
H373 H 0.21618 0.80714 0.43091 0.0
H374 H 0.25635 0.78236 0.41585 0.0
H375 H 0.33144 0.79896 0.43623 0.0
H376 H 0.32601 0.83514 0.44704 0.0
C377 C 0.30704 0.92975 0.36375 0.0
C378 C 0.2278 0.90064 0.34846 0.0
C379 C 0.17521 0.88068 0.48994 0.0
C380 C 0.18508 0.85549 0.50236 0.0
C381 C 0.21443 0.83386 0.49205 0.0
C382 C 0.23347 0.83703 0.46956 0.0
C383 C 0.22248 0.86195 0.45709 0.0
C384 C 0.19401 0.88338 0.46727 0.0
C385 C 0.1843 0.9077 0.45079 0.0
C386 C 0.21409 0.89802 0.42962 0.0
C387 C 0.23579 0.87098 0.43339 0.0
C388 C 0.20711 0.93559 0.46117 0.0
C389 C 0.12587 0.9088 0.44618 0.0
C390 C 0.32687 0.80324 0.37779 0.0
C391 C 0.34622 0.80751 0.35521 0.0
C392 C 0.34863 0.83564 0.34633 0.0
C393 C 0.32749 0.85843 0.3584 0.0
C394 C 0.30363 0.85337 0.37971 0.0
C395 C 0.3064 0.8267 0.38986 0.0
C396 C 0.28473 0.82699 0.4141 0.0
C397 C 0.26459 0.8575 0.41564 0.0
C398 C 0.27465 0.87233 0.3951 0.0
C399 C 0.32925 0.82189 0.43125 0.0
C400 C 0.24086 0.8044 0.41558 0.0
H401 H 0.15047 0.95886 0.42352 0.0
H402 H 0.21732 0.96312 0.34324 0.0
H403 H 0.1862 0.89688 0.35181 0.0
H404 H 0.24372 0.87933 0.34524 0.0
H405 H 0.23153 0.91323 0.33225 0.0
H406 H 0.31219 0.95159 0.3712 0.0
H407 H 0.31392 0.93149 0.34486 0.0
H408 H 0.33801 0.917 0.37162 0.0
H409 H 0.15195 0.89736 0.49743 0.0
H410 H 0.22219 0.8143 0.50141 0.0
H411 H 0.25514 0.81969 0.46258 0.0
H412 H 0.24625 0.93182 0.468 0.0
H413 H 0.183 0.9434 0.47565 0.0
H414 H 0.21134 0.9529 0.4483 0.0
H415 H 0.1081 0.88699 0.44685 0.0
H416 H 0.11673 0.9168 0.42875 0.0
H417 H 0.10624 0.9222 0.45927 0.0
H418 H 0.11953 0.99543 0.39735 0.0
C419 C 0.16543 0.95908 0.40623 0.0
C420 C 0.20574 0.68653 0.86093 0.0
C421 C 0.18719 0.71192 0.87107 0.0
C422 C 0.18777 0.71419 0.89542 0.0
C423 C 0.2286 0.66813 0.8987 0.0
C424 C 0.22541 0.66487 0.87505 0.0
C425 C 0.24475 0.63612 0.86728 0.0
H426 H 0.36937 0.51395 0.89278 0.0
C427 C 0.25324 0.64248 0.90833 0.0
C428 C 0.2621 0.62337 0.8901 0.0
H429 H 0.30359 0.53903 0.82738 0.0
H430 H 0.27148 0.58202 0.84475 0.0
H431 H 0.41022 0.57667 0.9084 0.0
H432 H 0.26922 0.53057 0.92279 0.0
H433 H 0.28793 0.5483 0.94825 0.0
H434 H 0.32869 0.52115 0.93613 0.0
H435 H 0.4076 0.54498 0.92597 0.0
H436 H 0.39637 0.57987 0.93804 0.0
C437 C 0.29023 0.64131 0.85049 0.0
C438 C 0.19924 0.61892 0.85669 0.0
C439 C 0.30919 0.64321 0.99205 0.0
C440 C 0.33666 0.62396 1.00573 0.0
C441 C 0.34912 0.59696 0.99659 0.0
C442 C 0.33654 0.58988 0.97367 0.0
C443 C 0.31116 0.61001 0.95983 0.0
C444 C 0.2969 0.63588 0.96932 0.0
C445 C 0.26937 0.65456 0.95243 0.0
C446 C 0.27067 0.63603 0.93092 0.0
C447 C 0.2955 0.61006 0.93525 0.0
C448 C 0.30119 0.68262 0.94946 0.0
C449 C 0.21385 0.65895 0.96134 0.0
C450 C 0.34756 0.52845 0.88219 0.0
C451 C 0.33996 0.52306 0.85847 0.0
C452 C 0.31146 0.54284 0.84548 0.0
C453 C 0.29232 0.56777 0.85565 0.0
C454 C 0.30126 0.57308 0.87916 0.0
C455 C 0.3276 0.55333 0.89214 0.0
C456 C 0.3318 0.56212 0.9171 0.0
C457 C 0.3039 0.59047 0.91687 0.0
C458 C 0.28673 0.59696 0.8945 0.0
C459 C 0.3894 0.56601 0.92291 0.0
C460 C 0.30335 0.53937 0.93202 0.0
H461 H 0.20855 0.69609 0.92748 0.0
H462 H 0.20587 0.68357 0.8424 0.0
H463 H 0.16193 0.62576 0.86409 0.0
H464 H 0.20096 0.59575 0.86058 0.0
H465 H 0.1973 0.62196 0.83769 0.0
H466 H 0.31638 0.65835 0.85729 0.0
H467 H 0.27643 0.64832 0.83329 0.0
H468 H 0.31425 0.6223 0.8481 0.0
H469 H 0.29815 0.66388 0.99883 0.0
H470 H 0.37006 0.58176 1.00693 0.0
H471 H 0.34795 0.56925 0.96746 0.0
H472 H 0.34274 0.67786 0.94787 0.0
H473 H 0.29624 0.69698 0.9646 0.0
H474 H 0.29156 0.69467 0.93375 0.0
H475 H 0.20116 0.64123 0.97296 0.0
H476 H 0.18538 0.65876 0.94719 0.0
H477 H 0.21066 0.67927 0.97121 0.0
H478 H 0.17187 0.73262 0.90407 0.0
C479 C 0.20859 0.69267 0.90917 0.0
C480 C 0.84839 0.12025 0.26374 0.0
C481 C 0.84474 0.06978 0.27398 0.0
C482 C 0.87102 0.09639 0.2737 0.0
C483 C 0.79559 0.06748 0.26424 0.0
C484 C 0.79909 0.11798 0.25393 0.0
C485 C 0.77281 0.0915 0.25429 0.0
N486 N 0.87511 0.14549 0.26316 0.0
C487 C 0.85444 0.1694 0.25363 0.0
C488 C 0.7778 0.14236 0.2439 0.0
C489 C 0.80556 0.16818 0.2438 0.0
Gd490 Gd 0.08104 0.1375 0.23962 0.0
Gd491 Gd 0.95614 0.14518 0.28034 0.0
N492 N 0.91929 0.09906 0.28249 0.0
C493 C 0.86869 0.04624 0.28404 0.0
C494 C 0.94179 0.07651 0.2932 0.0
C495 C 0.91723 0.0497 0.29385 0.0
H496 H 0.97819 0.07911 0.30159 0.0
H497 H 0.93558 0.03176 0.3021 0.0
H498 H 0.06128 0.2054 0.22281 0.0
H499 H 0.87528 0.18956 0.25394 0.0
H500 H 0.11226 0.2496 0.21706 0.0
H501 H 0.8498 0.02542 0.28456 0.0
H502 H 0.77485 0.0472 0.26431 0.0
H503 H 0.15976 0.08958 0.2636 0.0
H504 H 0.73996 0.14149 0.23623 0.0
H505 H 0.78926 0.18719 0.23624 0.0
H506 H 0.28151 0.22463 0.2415 0.0
H507 H 0.7349 0.08935 0.24682 0.0
H508 H 0.30695 0.13011 0.27127 0.0
H509 H 0.25005 0.08764 0.27605 0.0
N510 N 0.16478 0.13323 0.25321 0.0
C511 C 0.19538 0.15677 0.25025 0.0
C512 C 0.18375 0.10854 0.26217 0.0
C513 C 0.26712 0.13125 0.26613 0.0
C514 C 0.23508 0.10725 0.26894 0.0
C515 C 0.24751 0.15637 0.25659 0.0
H516 H 0.3185 0.18102 0.25799 0.0
N517 N 0.12316 0.18188 0.23656 0.0
C518 C 0.17431 0.18154 0.24114 0.0
C519 C 0.18238 0.23102 0.22917 0.0
C520 C 0.20517 0.20629 0.23784 0.0
C521 C 0.10101 0.20569 0.22762 0.0
C522 C 0.13009 0.23069 0.22403 0.0
O523 O 0.94988 0.11882 0.24714 0.0
O524 O 0.02938 0.09889 0.24362 0.0
O525 O 0.08218 0.14385 0.20262 0.0
O526 O 0.12972 0.11124 0.21792 0.0
O527 O 0.02792 0.12696 0.29615 0.0
O528 O 0.06864 0.10312 0.26649 0.0
O529 O 0.09114 0.16628 0.27097 0.0
O530 O 0.01042 0.1831 0.27968 0.0
O531 O 0.94756 0.14119 0.31802 0.0
O532 O 0.90318 0.17239 0.29842 0.0
O533 O 0.00874 0.1565 0.22484 0.0
O534 O 0.97114 0.1808 0.25497 0.0
C535 C 0.98014 0.09872 0.23933 0.0
C536 C 0.06044 0.10781 0.28862 0.0
C537 C 0.10262 0.10467 0.17929 0.0
C538 C 0.10906 0.09576 0.13794 0.0
C539 C 0.05704 0.06428 0.16236 0.0
C540 C 0.06995 0.08074 0.1817 0.0
C541 C 0.07631 0.07175 0.14059 0.0
C542 C 0.12228 0.11202 0.15748 0.0
C543 C 0.11454 0.12335 0.19891 0.0
C544 C 0.25729 0.20579 0.24383 0.0
C545 C 0.27833 0.18096 0.25326 0.0
H546 H 0.20474 0.25047 0.22644 0.0
C547 C 0.06035 0.18328 0.28253 0.0
C548 C 0.97824 0.17638 0.23281 0.0
C549 C 0.88869 0.17201 0.33975 0.0
C550 C 0.86623 0.16743 0.38067 0.0
C551 C 0.83789 0.20854 0.35854 0.0
C552 C 0.86183 0.19787 0.3389 0.0
C553 C 0.83999 0.1935 0.37925 0.0
C554 C 0.8913 0.15689 0.36083 0.0
C555 C 0.91373 0.1615 0.31849 0.0
H556 H 0.03178 0.04582 0.16423 0.0
H557 H 0.05424 0.07496 0.19841 0.0
H558 H 0.06582 0.05867 0.12583 0.0
H559 H 0.14675 0.13088 0.15565 0.0
H560 H 0.81759 0.22857 0.35772 0.0
H561 H 0.85952 0.21005 0.32302 0.0
H562 H 0.82127 0.20243 0.3943 0.0
H563 H 0.91168 0.13685 0.36168 0.0
C564 C 0.67081 0.39404 0.77287 0.0
C565 C 0.66244 0.44315 0.7857 0.0
C566 C 0.64182 0.41522 0.78317 0.0
C567 C 0.71164 0.4496 0.777 0.0
C568 C 0.72091 0.40012 0.76486 0.0
C569 C 0.74086 0.42811 0.76668 0.0
N570 N 0.65015 0.36731 0.77094 0.0
C571 C 0.67845 0.34524 0.76262 0.0
C572 C 0.74954 0.37778 0.75543 0.0
C573 C 0.72835 0.35015 0.75452 0.0
Gd574 Gd 0.45254 0.35697 0.73761 0.0
Gd575 Gd 0.567 0.36045 0.78529 0.0
N576 N 0.5947 0.40813 0.79179 0.0
C577 C 0.63374 0.46352 0.7976 0.0
C578 C 0.5689 0.42723 0.80519 0.0
C579 C 0.58716 0.45537 0.80774 0.0
H580 H 0.53511 0.42072 0.81463 0.0
H581 H 0.56585 0.47057 0.81796 0.0
H582 H 0.45747 0.29188 0.71537 0.0
H583 H 0.66276 0.3238 0.76246 0.0
H584 H 0.4051 0.24708 0.71512 0.0
H585 H 0.64816 0.48523 0.79988 0.0
H586 H 0.72792 0.47099 0.77868 0.0
H587 H 0.37264 0.40835 0.75804 0.0
H588 H 0.78823 0.38154 0.74916 0.0
H589 H 0.75052 0.3326 0.74773 0.0
H590 H 0.25978 0.26923 0.76281 0.0
H591 H 0.77912 0.43326 0.76046 0.0
H592 H 0.24219 0.36634 0.78795 0.0
H593 H 0.29205 0.41068 0.77989 0.0
N594 N 0.37364 0.36268 0.75703 0.0
C595 C 0.34476 0.33836 0.75959 0.0
C596 C 0.35365 0.3886 0.76292 0.0
C597 C 0.27883 0.36505 0.77917 0.0
C598 C 0.30694 0.39011 0.77474 0.0
C599 C 0.29675 0.33886 0.77088 0.0
H600 H 0.23038 0.31352 0.78137 0.0
N601 N 0.40696 0.31361 0.73797 0.0
C602 C 0.36127 0.31327 0.74925 0.0
C603 C 0.34677 0.26409 0.73755 0.0
C604 C 0.33035 0.28826 0.74975 0.0
C605 C 0.42218 0.29067 0.72517 0.0
C606 C 0.39257 0.26544 0.72495 0.0
O607 O 0.58313 0.37607 0.74875 0.0
O608 O 0.50636 0.39527 0.73772 0.0
O609 O 0.46364 0.35244 0.70054 0.0
O610 O 0.39383 0.37057 0.71375 0.0
O611 O 0.49207 0.38245 0.79371 0.0
O612 O 0.46171 0.39786 0.75845 0.0
O613 O 0.46352 0.32049 0.76278 0.0
O614 O 0.4873 0.34556 0.79464 0.0
O615 O 0.59692 0.36538 0.82023 0.0
O616 O 0.59538 0.32317 0.80354 0.0
O617 O 0.52613 0.33508 0.72801 0.0
O618 O 0.56592 0.32096 0.76209 0.0
C619 C 0.55674 0.39476 0.73685 0.0
C620 C 0.46678 0.40083 0.78097 0.0
C621 C 0.42031 0.38488 0.67667 0.0
C622 C 0.40536 0.39599 0.63624 0.0
C623 C 0.43593 0.43307 0.6625 0.0
C624 C 0.43525 0.41342 0.68066 0.0
C625 C 0.42147 0.4244 0.64034 0.0
C626 C 0.40478 0.37628 0.65452 0.0
C627 C 0.41995 0.36389 0.69544 0.0
C628 C 0.28377 0.28835 0.76195 0.0
C629 C 0.26711 0.31356 0.77258 0.0
H630 H 0.324 0.2445 0.73744 0.0
C631 C 0.46698 0.32261 0.78529 0.0
C632 C 0.55664 0.31809 0.73971 0.0
C633 C 0.62952 0.32544 0.8427 0.0
C634 C 0.65332 0.32814 0.88349 0.0
C635 C 0.67271 0.28567 0.86088 0.0
C636 C 0.6505 0.29795 0.84146 0.0
C637 C 0.67424 0.30061 0.88173 0.0
C638 C 0.63068 0.34045 0.86386 0.0
C639 C 0.60677 0.33821 0.82186 0.0
H640 H 0.44736 0.4551 0.66559 0.0
H641 H 0.44584 0.42041 0.69782 0.0
H642 H 0.42201 0.43995 0.62646 0.0
H643 H 0.39273 0.35427 0.65144 0.0
H644 H 0.68882 0.26447 0.85977 0.0
H645 H 0.65006 0.28597 0.82542 0.0
H646 H 0.69134 0.29048 0.89661 0.0
H647 H 0.61457 0.36168 0.86503 0.0
C648 C 0.859 0.81671 0.76147 0.0
C649 C 0.87205 0.76782 0.77395 0.0
C650 C 0.88715 0.79696 0.77388 0.0
C651 C 0.82917 0.75886 0.76104 0.0
C652 C 0.81529 0.80795 0.74891 0.0
C653 C 0.80076 0.77888 0.74862 0.0
N654 N 0.87529 0.84446 0.7612 0.0
C655 C 0.84784 0.86494 0.75013 0.0
C656 C 0.78782 0.82868 0.73682 0.0
C657 C 0.80394 0.85735 0.73761 0.0
Gd658 Gd 0.0709 0.86452 0.73903 0.0
Gd659 Gd 0.94844 0.85556 0.7829 0.0
N660 N 0.92877 0.80628 0.78606 0.0
C661 C 0.90008 0.74861 0.78728 0.0
C662 C 0.95377 0.78797 0.80039 0.0
C663 C 0.94063 0.75882 0.80081 0.0
H664 H 0.9831 0.79573 0.81196 0.0
H665 H 0.96133 0.74431 0.81184 0.0
H666 H 0.05967 0.93337 0.72548 0.0
H667 H 0.85993 0.88709 0.75094 0.0
H668 H 0.11184 0.97802 0.72717 0.0
H669 H 0.88982 0.72604 0.78775 0.0
H670 H 0.8173 0.73652 0.76076 0.0
H671 H 0.15105 0.81067 0.7529 0.0
H672 H 0.75402 0.82281 0.72696 0.0
H673 H 0.78259 0.87359 0.7286 0.0
H674 H 0.27188 0.94817 0.75934 0.0
H675 H 0.76761 0.77168 0.73886 0.0
H676 H 0.29292 0.8483 0.775 0.0
H677 H 0.23796 0.80545 0.76852 0.0
N678 N 0.15403 0.85637 0.75302 0.0
C679 C 0.18453 0.88007 0.75535 0.0
C680 C 0.17339 0.82972 0.75675 0.0
C681 C 0.25413 0.85083 0.76875 0.0
C682 C 0.22318 0.82659 0.76518 0.0
C683 C 0.23539 0.87794 0.76333 0.0
H684 H 0.30539 0.90149 0.77127 0.0
N685 N 0.11656 0.90792 0.74118 0.0
C686 C 0.16563 0.90649 0.74875 0.0
C687 C 0.177 0.95738 0.74236 0.0
C688 C 0.19703 0.93131 0.74984 0.0
C689 C 0.09775 0.93291 0.73262 0.0
C690 C 0.12729 0.95811 0.73348 0.0
O691 O 0.94824 0.8415 0.7451 0.0
O692 O 0.02727 0.8228 0.7391 0.0
O693 O 0.04996 0.86869 0.70284 0.0
O694 O 0.12653 0.85604 0.7121 0.0
O695 O 0.0241 0.83765 0.79526 0.0
O696 O 0.06563 0.82468 0.76147 0.0
O697 O 0.06159 0.89801 0.76704 0.0
O698 O 0.01982 0.87613 0.79788 0.0
O699 O 0.9146 0.84805 0.8171 0.0
O700 O 0.89466 0.88543 0.79749 0.0
O701 O 0.9972 0.88691 0.73028 0.0
O702 O 0.9554 0.89812 0.76447 0.0
C703 C 0.9774 0.8212 0.73682 0.0
C704 C 0.05871 0.82276 0.78397 0.0
C705 C 0.0957 0.84059 0.67605 0.0
C706 C 0.11295 0.83147 0.63516 0.0
C707 C 0.09124 0.79209 0.66131 0.0
C708 C 0.08683 0.81127 0.67968 0.0
C709 C 0.1046 0.80199 0.63929 0.0
C710 C 0.10814 0.85065 0.65384 0.0
C711 C 0.09476 0.8609 0.69536 0.0
C712 C 0.24731 0.92931 0.7582 0.0
C713 C 0.26634 0.90273 0.76506 0.0
H714 H 0.19986 0.97693 0.74299 0.0
C715 C 0.05101 0.89576 0.7892 0.0
C716 C 0.96674 0.90324 0.74262 0.0
C717 C 0.89445 0.8905 0.83837 0.0
C718 C 0.89349 0.89629 0.88049 0.0
C719 C 0.90302 0.93792 0.85567 0.0
C720 C 0.89978 0.92046 0.8362 0.0
C721 C 0.90011 0.92596 0.87765 0.0
C722 C 0.89051 0.87848 0.86078 0.0
C723 C 0.89068 0.87233 0.81727 0.0
H724 H 0.08499 0.7694 0.66421 0.0
H725 H 0.07728 0.80323 0.69674 0.0
H726 H 0.10924 0.78639 0.62563 0.0
H727 H 0.11409 0.87345 0.65123 0.0
H728 H 0.90775 0.96087 0.85371 0.0
H729 H 0.90192 0.93058 0.81939 0.0
H730 H 0.90262 0.93996 0.89256 0.0
H731 H 0.88546 0.85554 0.86289 0.0
C732 C 0.68537 0.6577 0.26801 0.0
C733 C 0.68851 0.70931 0.27286 0.0
C734 C 0.66125 0.68302 0.27385 0.0
C735 C 0.73995 0.70979 0.26564 0.0
C736 C 0.73738 0.658 0.26127 0.0
C737 C 0.76434 0.6842 0.25988 0.0
N738 N 0.65853 0.63264 0.26978 0.0
C739 C 0.6817 0.60711 0.26582 0.0
C740 C 0.76098 0.63189 0.2565 0.0
C741 C 0.73308 0.60632 0.25895 0.0
Gd742 Gd 0.44609 0.64345 0.23909 0.0
Gd743 Gd 0.57212 0.63592 0.2805 0.0
N744 N 0.61127 0.68184 0.2807 0.0
C745 C 0.66347 0.73432 0.2795 0.0
C746 C 0.58769 0.706 0.28829 0.0
C747 C 0.61302 0.73259 0.28749 0.0
H748 H 0.54981 0.70506 0.29538 0.0
H749 H 0.59375 0.75169 0.29327 0.0
H750 H 0.46795 0.57379 0.22591 0.0
H751 H 0.66058 0.58726 0.26832 0.0
H752 H 0.42163 0.52778 0.22655 0.0
H753 H 0.68306 0.75494 0.279 0.0
H754 H 0.76143 0.72981 0.26473 0.0
H755 H 0.36424 0.69147 0.2601 0.0
H756 H 0.80089 0.63122 0.25131 0.0
H757 H 0.75119 0.58598 0.25571 0.0
H758 H 0.25563 0.55072 0.25639 0.0
H759 H 0.80427 0.68487 0.25465 0.0
H760 H 0.22372 0.64816 0.27731 0.0
H761 H 0.27617 0.69271 0.27572 0.0
N762 N 0.36267 0.64672 0.25404 0.0
C763 C 0.33417 0.62212 0.25423 0.0
C764 C 0.34231 0.67186 0.26146 0.0
C765 C 0.26259 0.6475 0.27068 0.0
C766 C 0.29213 0.67266 0.26994 0.0
C767 C 0.28344 0.62181 0.26277 0.0
H768 H 0.21633 0.5953 0.26987 0.0
N769 N 0.40601 0.59778 0.23916 0.0
C770 C 0.35628 0.59697 0.24643 0.0
C771 C 0.35213 0.54581 0.23997 0.0
C772 C 0.32823 0.57089 0.24724 0.0
C773 C 0.42913 0.57336 0.23183 0.0
C774 C 0.40277 0.54708 0.2322 0.0
O775 O 0.58341 0.65967 0.24693 0.0
O776 O 0.50472 0.67956 0.24121 0.0
O777 O 0.4411 0.63885 0.20122 0.0
O778 O 0.39757 0.67148 0.21976 0.0
O779 O 0.50039 0.65702 0.29461 0.0
O780 O 0.4611 0.67949 0.26406 0.0
O781 O 0.43804 0.61821 0.27241 0.0
O782 O 0.51772 0.59925 0.27453 0.0
O783 O 0.56761 0.64095 0.31784 0.0
O784 O 0.61356 0.60737 0.30321 0.0
O785 O 0.51468 0.62132 0.22338 0.0
O786 O 0.56588 0.60193 0.25242 0.0
C787 C 0.55341 0.67726 0.23587 0.0
C788 C 0.46911 0.67638 0.28634 0.0
C789 C 0.38721 0.6713 0.17843 0.0
C790 C 0.36915 0.66762 0.13715 0.0
C791 C 0.34604 0.71048 0.15845 0.0
C792 C 0.36567 0.69874 0.1786 0.0
C793 C 0.34772 0.6951 0.13788 0.0
C794 C 0.38866 0.65563 0.15761 0.0
C795 C 0.40906 0.66001 0.20001 0.0
C796 C 0.27765 0.57056 0.25562 0.0
C797 C 0.2553 0.59594 0.26333 0.0
H798 H 0.33194 0.52536 0.24039 0.0
C799 C 0.46993 0.59967 0.2812 0.0
C800 C 0.55131 0.60424 0.23052 0.0
C801 C 0.64163 0.6278 0.33841 0.0
C802 C 0.67379 0.62985 0.3779 0.0
C803 C 0.72659 0.64743 0.34623 0.0
C804 C 0.68784 0.64026 0.33064 0.0
C805 C 0.71958 0.64239 0.36975 0.0
C806 C 0.63479 0.62243 0.36216 0.0
C807 C 0.60031 0.62075 0.32196 0.0
H808 H 0.32955 0.73162 0.15878 0.0
H809 H 0.36435 0.71133 0.19431 0.0
H810 H 0.3318 0.70465 0.12248 0.0
H811 H 0.40545 0.63453 0.15724 0.0
H812 H 0.76209 0.65702 0.34005 0.0
H813 H 0.69413 0.64447 0.31258 0.0
H814 H 0.75 0.64821 0.38165 0.0
H815 H 0.5992 0.61291 0.36839 0.0
H816 H 0.14345 0.03855 0.37403 0.0
H817 H 0.13786 0.97039 0.32361 0.0
H818 H 0.10856 0.00364 0.29429 0.0
H819 H 0.08419 0.052 0.28275 0.0
H820 H 0.08435 0.11988 0.33329 0.0
H821 H 0.11597 0.08694 0.3627 0.0
C822 C 0.13533 0.03097 0.3567 0.0
C823 C 0.14365 0.00212 0.35099 0.0
C824 C 0.11783 0.05019 0.33985 0.0
C825 C 0.13297 0.99264 0.32838 0.0
C826 C 0.11599 0.0116 0.31158 0.0
C827 C 0.09175 0.05962 0.30014 0.0
C828 C 0.08254 0.0883 0.30584 0.0
C829 C 0.10869 0.04045 0.31705 0.0
C830 C 0.09136 0.09782 0.32854 0.0
C831 C 0.1093 0.07901 0.34535 0.0
H832 H 0.37976 0.51877 0.81497 0.0
H833 H 0.35037 0.46898 0.87659 0.0
H834 H 0.38815 0.42714 0.85832 0.0
H835 H 0.42874 0.40437 0.8246 0.0
H836 H 0.45304 0.45355 0.76239 0.0
H837 H 0.41664 0.49572 0.78095 0.0
C838 C 0.3807 0.4987 0.82436 0.0
C839 C 0.36211 0.49724 0.84721 0.0
C840 C 0.40137 0.4745 0.81358 0.0
C841 C 0.36505 0.47105 0.85915 0.0
C842 C 0.38631 0.44697 0.84865 0.0
C843 C 0.42603 0.42437 0.81517 0.0
C844 C 0.44361 0.42596 0.79222 0.0
C845 C 0.4046 0.44845 0.82588 0.0
C846 C 0.43952 0.45183 0.78006 0.0
C847 C 0.41889 0.47595 0.79068 0.0
H848 H 0.69908 0.47395 0.67392 0.0
H849 H 0.55399 0.51421 0.66185 0.0
H850 H 0.51181 0.48105 0.6888 0.0
H851 H 0.51622 0.44086 0.71558 0.0
H852 H 0.65834 0.39608 0.72407 0.0
H853 H 0.70221 0.43119 0.69941 0.0
C854 C 0.65819 0.47518 0.67717 0.0
C855 C 0.6294 0.49628 0.66602 0.0
C856 C 0.63392 0.45545 0.69215 0.0
C857 C 0.57655 0.4979 0.6702 0.0
C858 C 0.55253 0.47901 0.68558 0.0
C859 C 0.55653 0.43834 0.71172 0.0
C860 C 0.58385 0.41584 0.72182 0.0
C861 C 0.58077 0.45765 0.69656 0.0
C862 C 0.63651 0.41352 0.71702 0.0
C863 C 0.66152 0.43341 0.70265 0.0
H864 H 0.90797 0.9804 0.19726 0.0
H865 H 0.82965 0.03618 0.15025 0.0
H866 H 0.86297 0.07828 0.17112 0.0
H867 H 0.91369 0.09907 0.20338 0.0
H868 H 0.9974 0.04288 0.24813 0.0
H869 H 0.96222 0.00102 0.22785 0.0
C870 C 0.89841 0.00182 0.19159 0.0
C871 C 0.86627 0.00532 0.1724 0.0
C872 C 0.9183 0.02576 0.20343 0.0
C873 C 0.85452 0.03308 0.16496 0.0
C874 C 0.8733 0.05708 0.17697 0.0
C875 C 0.92389 0.07759 0.20864 0.0
C876 C 0.95759 0.07384 0.22724 0.0
C877 C 0.90495 0.05367 0.19634 0.0
C878 C 0.97144 0.0461 0.23381 0.0
C879 C 0.95141 0.02223 0.22223 0.0
H880 H 0.83689 0.00554 0.70412 0.0
H881 H 0.94345 0.99653 0.64719 0.0
H882 H 0.98152 0.95576 0.66624 0.0
H883 H 0.98713 0.92369 0.69948 0.0
H884 H 0.8901 0.93756 0.75895 0.0
H885 H 0.84725 0.97623 0.73865 0.0
C886 C 0.8692 0.99533 0.69591 0.0
C887 C 0.88674 0.0046 0.674 0.0
C888 C 0.89315 0.9728 0.70754 0.0
C889 C 0.92771 0.98988 0.66367 0.0
C890 C 0.95021 0.96664 0.67472 0.0
C891 C 0.95681 0.93521 0.70815 0.0
C892 C 0.94174 0.92747 0.73072 0.0
C893 C 0.93349 0.95807 0.69671 0.0
C894 C 0.90244 0.94284 0.74156 0.0
C895 C 0.87785 0.96499 0.72996 0.0
H896 H 0.59741 0.51059 0.15469 0.0
H897 H 0.73438 0.50299 0.19583 0.0
H898 H 0.70745 0.54254 0.22015 0.0
H899 H 0.64148 0.57589 0.23187 0.0
H900 H 0.50832 0.58746 0.18931 0.0
H901 H 0.53755 0.54998 0.16321 0.0
C902 C 0.62188 0.51801 0.16863 0.0
C903 C 0.66699 0.5032 0.17387 0.0
C904 C 0.60657 0.54118 0.18249 0.0
C905 C 0.69852 0.51333 0.1919 0.0
C906 C 0.68331 0.53603 0.20581 0.0
C907 C 0.61894 0.57045 0.21696 0.0
C908 C 0.57204 0.5839 0.21322 0.0
C909 C 0.63664 0.54946 0.20171 0.0
C910 C 0.5442 0.57706 0.19306 0.0
C911 C 0.56088 0.55561 0.17804 0.0
H912 H 0.41833 0.49146 0.34277 0.0
H913 H 0.26576 0.5245 0.33611 0.0
H914 H 0.29907 0.56528 0.31364 0.0
H915 H 0.37151 0.59091 0.29572 0.0
H916 H 0.52354 0.55587 0.30018 0.0
H917 H 0.49065 0.51657 0.32392 0.0
C918 C 0.39265 0.50777 0.33649 0.0
C919 C 0.33995 0.50535 0.34106 0.0
C920 C 0.41191 0.53064 0.32322 0.0
C921 C 0.30655 0.52618 0.33268 0.0
C922 C 0.32555 0.54939 0.3199 0.0
C923 C 0.39745 0.57461 0.30171 0.0
C924 C 0.44983 0.57626 0.29598 0.0
C925 C 0.37815 0.55174 0.31497 0.0
C926 C 0.48297 0.55511 0.30424 0.0
C927 C 0.46424 0.5326 0.31783 0.0
H928 H 0.09919 0.99955 0.85577 0.0
H929 H 0.2488 0.99052 0.82475 0.0
H930 H 0.21829 0.94887 0.80307 0.0
H931 H 0.14872 0.91556 0.79244 0.0
H932 H 0.99896 0.92489 0.82205 0.0
H933 H 0.03007 0.96505 0.84576 0.0
C934 C 0.12521 0.98832 0.8444 0.0
C935 C 0.1761 0.99831 0.84172 0.0
C936 C 0.10734 0.96442 0.83185 0.0
C937 C 0.20922 0.98361 0.8268 0.0
C938 C 0.19188 0.95972 0.81445 0.0
C939 C 0.12271 0.92693 0.8035 0.0
C940 C 0.07123 0.91811 0.80487 0.0
C941 C 0.14089 0.95019 0.8166 0.0
C942 C 0.0386 0.93163 0.82063 0.0
C943 C 0.05639 0.95463 0.83403 0.0
H944 H 0.2253 0.12174 0.04407 0.0
H945 H 0.07162 0.11041 0.01809 0.0
H946 H 0.03847 0.10592 0.05739 0.0
H947 H 0.05409 0.10029 0.09868 0.0
H948 H 0.20734 0.11051 0.12538 0.0
H949 H 0.23979 0.12073 0.08643 0.0
C950 C 0.18449 0.11899 0.04717 0.0
C951 C 0.15085 0.11621 0.02836 0.0
C952 C 0.16578 0.11581 0.06987 0.0
C953 C 0.09808 0.11243 0.03241 0.0
C954 C 0.07918 0.10973 0.05483 0.0
C955 C 0.09459 0.10477 0.09595 0.0
C956 C 0.1284 0.1041 0.11474 0.0
C957 C 0.11284 0.11046 0.07361 0.0
C958 C 0.18059 0.11073 0.11111 0.0
C959 C 0.19916 0.1165 0.08885 0.0
H960 H 0.29713 0.37151 0.54106 0.0
H961 H 0.44867 0.39412 0.51645 0.0
H962 H 0.48007 0.3967 0.55599 0.0
H963 H 0.46235 0.398 0.59752 0.0
H964 H 0.3122 0.37463 0.62289 0.0
H965 H 0.28231 0.36647 0.58321 0.0
C966 C 0.33723 0.37632 0.5444 0.0
C967 C 0.37031 0.3832 0.52593 0.0
C968 C 0.35508 0.37795 0.5673 0.0
C969 C 0.42225 0.38936 0.53045 0.0
C970 C 0.44026 0.39083 0.55304 0.0
C971 C 0.4233 0.39077 0.59427 0.0
C972 C 0.38921 0.38728 0.61283 0.0
C973 C 0.40666 0.38614 0.57157 0.0
C974 C 0.33889 0.37753 0.60869 0.0
C975 C 0.32184 0.37298 0.58605 0.0
H976 H 0.6231 0.3805 0.98324 0.0
H977 H 0.78396 0.36055 0.98669 0.0
H978 H 0.78328 0.3462 0.94624 0.0
H979 H 0.736 0.33562 0.91086 0.0
H980 H 0.5752 0.35472 0.90657 0.0
H981 H 0.577 0.3738 0.94609 0.0
C982 C 0.6581 0.37345 0.97499 0.0
C983 C 0.70332 0.37113 0.98807 0.0
C984 C 0.65743 0.36503 0.95159 0.0
C985 C 0.7484 0.36193 0.97715 0.0
C986 C 0.74813 0.35383 0.95399 0.0
C987 C 0.70143 0.34415 0.91854 0.0
C988 C 0.65543 0.34342 0.90599 0.0
C989 C 0.70267 0.35463 0.94123 0.0
C990 C 0.61111 0.35506 0.91593 0.0
C991 C 0.61207 0.36577 0.93856 0.0
H992 H 0.90397 0.11842 0.48085 0.0
H993 H 0.74111 0.13271 0.4848 0.0
H994 H 0.73947 0.14518 0.44395 0.0
H995 H 0.78486 0.15605 0.40814 0.0
H996 H 0.94809 0.14419 0.40353 0.0
H997 H 0.94898 0.12589 0.4433 0.0
C998 C 0.86811 0.12383 0.4726 0.0
C999 C 0.8228 0.12501 0.48587 0.0
C1000 C 0.86754 0.13141 0.44902 0.0
C1001 C 0.77658 0.13211 0.47503 0.0
C1002 C 0.77557 0.13916 0.45167 0.0
C1003 C 0.82062 0.14927 0.41579 0.0
C1004 C 0.86642 0.15187 0.40307 0.0
C1005 C 0.82093 0.13956 0.43867 0.0
C1006 C 0.9123 0.1424 0.41299 0.0
C1007 C 0.91284 0.13217 0.43578 0.0
H1008 H 0.91034 0.88317 0.98767 0.0
H1009 H 0.74768 0.86816 0.98092 0.0
H1010 H 0.75626 0.86722 0.93877 0.0
H1011 H 0.80895 0.87683 0.90372 0.0
H1012 H 0.97109 0.89287 0.91103 0.0
H1013 H 0.96419 0.88681 0.95289 0.0
C1014 C 0.87689 0.87938 0.97695 0.0
C1015 C 0.82837 0.87611 0.98738 0.0
C1016 C 0.88212 0.87904 0.95276 0.0
C1017 C 0.78545 0.87073 0.97331 0.0
C1018 C 0.79033 0.87034 0.94919 0.0
C1019 C 0.84287 0.87802 0.91449 0.0
C1020 C 0.89058 0.88501 0.90439 0.0
C1021 C 0.83829 0.87522 0.93868 0.0
C1022 C 0.93418 0.88716 0.91848 0.0
C1023 C 0.93012 0.88398 0.94241 0.0
H1024 H 0.69277 0.59477 0.48216 0.0
H1025 H 0.67176 0.68585 0.49052 0.0
H1026 H 0.65808 0.69088 0.4492 0.0
H1027 H 0.65934 0.67027 0.41019 0.0
H1028 H 0.67674 0.57937 0.40136 0.0
H1029 H 0.68301 0.57319 0.4434 0.0
C1030 C 0.68419 0.61564 0.47506 0.0
C1031 C 0.68465 0.64 0.4895 0.0
C1032 C 0.67556 0.6184 0.45117 0.0
C1033 C 0.67344 0.66684 0.47982 0.0
C1034 C 0.66514 0.66976 0.45617 0.0
C1035 C 0.6634 0.64908 0.41761 0.0
C1036 C 0.66758 0.62529 0.40297 0.0
C1037 C 0.66729 0.64583 0.44163 0.0
C1038 C 0.67308 0.59789 0.41251 0.0
C1039 C 0.67705 0.59444 0.43646 0.0
H1040 H 0.32529 0.59568 0.04689 0.0
H1041 H 0.38761 0.67296 0.01632 0.0
H1042 H 0.40904 0.69167 0.05445 0.0
H1043 H 0.40277 0.68822 0.09634 0.0
H1044 H 0.33746 0.61247 0.1279 0.0
H1045 H 0.32578 0.59057 0.08965 0.0
C1046 C 0.34428 0.61638 0.04867 0.0
C1047 C 0.35427 0.63313 0.02891 0.0
C1048 C 0.35586 0.62726 0.07079 0.0
C1049 C 0.37882 0.65994 0.03134 0.0
C1050 C 0.3912 0.67061 0.05311 0.0
C1051 C 0.38643 0.66678 0.09483 0.0
C1052 C 0.37034 0.65211 0.11479 0.0
C1053 C 0.37871 0.6548 0.07293 0.0
C1054 C 0.35015 0.62415 0.11272 0.0
C1055 C 0.34309 0.61177 0.09086 0.0
H1056 H 0.20617 0.88371 0.5425 0.0
H1057 H 0.11399 0.81539 0.51353 0.0
H1058 H 0.08049 0.80336 0.55186 0.0
H1059 H 0.08039 0.81074 0.59355 0.0
H1060 H 0.17877 0.876 0.62346 0.0
H1061 H 0.20555 0.89131 0.58494 0.0
C1062 C 0.17829 0.86645 0.5447 0.0
C1063 C 0.16226 0.85044 0.52539 0.0
C1064 C 0.1603 0.85914 0.56693 0.0
C1065 C 0.12664 0.82792 0.52827 0.0
C1066 C 0.10762 0.82104 0.55014 0.0
C1067 C 0.10816 0.8281 0.59178 0.0
C1068 C 0.12765 0.84191 0.6116 0.0
C1069 C 0.12483 0.83617 0.56962 0.0
C1070 C 0.16246 0.86503 0.60867 0.0
C1071 C 0.17825 0.87369 0.58658 0.0
H1072 H 0.19079 0.27454 0.33798 0.0
H1073 H 0.06322 0.26732 0.38512 0.0
H1074 H 0.02127 0.23225 0.35937 0.0
H1075 H 0.02097 0.20433 0.32274 0.0
H1076 H 0.15249 0.2105 0.27786 0.0
H1077 H 0.19243 0.24557 0.30301 0.0
C1078 C 0.15376 0.26528 0.3426 0.0
C1079 C 0.1298 0.27357 0.36322 0.0
C1080 C 0.13042 0.24518 0.32794 0.0
C1081 C 0.08231 0.26112 0.36929 0.0
C1082 C 0.05829 0.24125 0.35452 0.0
C1083 C 0.05823 0.21354 0.31847 0.0
C1084 C 0.0835 0.20502 0.2981 0.0
C1085 C 0.08187 0.23328 0.33366 0.0
C1086 C 0.1321 0.21666 0.29311 0.0
C1087 C 0.15509 0.23678 0.30762 0.0
H1088 H 0.35513 0.21741 0.83136 0.0
H1089 H 0.41016 0.25841 0.89381 0.0
H1090 H 0.44802 0.29692 0.87081 0.0
H1091 H 0.46575 0.31913 0.83266 0.0
H1092 H 0.42645 0.27157 0.77121 0.0
H1093 H 0.38366 0.23505 0.79419 0.0
C1094 C 0.37662 0.23403 0.84028 0.0
C1095 C 0.37905 0.23449 0.86462 0.0
C1096 C 0.40106 0.25526 0.82698 0.0
C1097 C 0.40593 0.2574 0.87526 0.0
C1098 C 0.42834 0.27943 0.86206 0.0
C1099 C 0.44792 0.30074 0.82432 0.0
C1100 C 0.44664 0.29904 0.80002 0.0
C1101 C 0.42599 0.27865 0.83787 0.0
C1102 C 0.42513 0.27448 0.78965 0.0
C1103 C 0.4013 0.25325 0.80287 0.0
H1104 H 0.6924 0.22138 0.69513 0.0
H1105 H 0.60239 0.24398 0.63537 0.0
H1106 H 0.55786 0.27972 0.65799 0.0
H1107 H 0.54459 0.30492 0.69431 0.0
H1108 H 0.62608 0.27864 0.75541 0.0
H1109 H 0.67277 0.24344 0.73264 0.0
C1110 C 0.66244 0.23363 0.68702 0.0
C1111 C 0.65177 0.23002 0.66328 0.0
C1112 C 0.63532 0.25358 0.70036 0.0
C1113 C 0.61303 0.24667 0.6533 0.0
C1114 C 0.58694 0.267 0.66632 0.0
C1115 C 0.57244 0.29152 0.7028 0.0
C1116 C 0.58275 0.29516 0.7265 0.0
C1117 C 0.59801 0.27076 0.68979 0.0
C1118 C 0.61831 0.27704 0.7371 0.0
C1119 C 0.64486 0.25673 0.72409 0.0
H1120 H 0.85372 0.23544 0.15326 0.0
H1121 H 0.90479 0.31101 0.19022 0.0
H1122 H 0.94742 0.28133 0.21856 0.0
H1123 H 0.96975 0.23386 0.23338 0.0
H1124 H 0.92687 0.15844 0.19471 0.0
H1125 H 0.88172 0.18797 0.16651 0.0
C1126 C 0.87476 0.24545 0.1673 0.0
C1127 C 0.87495 0.27546 0.16977 0.0
C1128 C 0.90046 0.22825 0.18336 0.0
C1129 C 0.90249 0.28796 0.1882 0.0
C1130 C 0.92726 0.27102 0.2044 0.0
C1131 C 0.95034 0.22402 0.21877 0.0
C1132 C 0.9511 0.19421 0.21605 0.0
C1133 C 0.92605 0.24116 0.20231 0.0
C1134 C 0.92668 0.18149 0.19698 0.0
C1135 C 0.90093 0.19833 0.18091 0.0
H1136 H 0.91218 0.70344 0.69153 0.0
H1137 H 0.79442 0.75599 0.66225 0.0
H1138 H 0.82887 0.79795 0.6828 0.0
H1139 H 0.89322 0.81969 0.70905 0.0
H1140 H 0.01216 0.76693 0.73706 0.0
H1141 H 0.97665 0.72509 0.71715 0.0
C1142 C 0.89402 0.72408 0.68971 0.0
C1143 C 0.85083 0.72665 0.67546 0.0
C1144 C 0.91429 0.74806 0.70136 0.0
C1145 C 0.82802 0.75358 0.67299 0.0
C1146 C 0.84755 0.77751 0.6848 0.0
C1147 C 0.91101 0.79895 0.71085 0.0
C1148 C 0.95487 0.79626 0.72467 0.0
C1149 C 0.89072 0.77501 0.69903 0.0
C1150 C 0.97827 0.76947 0.72656 0.0
C1151 C 0.95796 0.74554 0.7152 0.0
H1152 H 0.68505 0.74505 0.16165 0.0
H1153 H 0.57017 0.8086 0.1742 0.0
H1154 H 0.52577 0.77621 0.20122 0.0
H1155 H 0.52098 0.72998 0.22198 0.0
H1156 H 0.64034 0.66821 0.21142 0.0
H1157 H 0.68162 0.69958 0.18308 0.0
C1158 C 0.64998 0.75158 0.17016 0.0
C1159 C 0.63039 0.77889 0.16581 0.0
C1160 C 0.62567 0.7332 0.18613 0.0
C1161 C 0.58561 0.78751 0.17725 0.0
C1162 C 0.56035 0.76904 0.19269 0.0
C1163 C 0.55585 0.72338 0.21336 0.0
C1164 C 0.57737 0.69675 0.21869 0.0
C1165 C 0.58016 0.74186 0.19738 0.0
C1166 C 0.62301 0.68864 0.20765 0.0
C1167 C 0.64664 0.70653 0.19138 0.0
H1168 H 0.3968 0.7582 0.36719 0.0
H1169 H 0.3298 0.80179 0.30905 0.0
H1170 H 0.36335 0.76603 0.28289 0.0
H1171 H 0.41631 0.7245 0.27601 0.0
H1172 H 0.47404 0.67635 0.33371 0.0
H1173 H 0.44066 0.71216 0.36043 0.0
C1174 C 0.3889 0.75965 0.34887 0.0
C1175 C 0.36225 0.78333 0.34013 0.0
C1176 C 0.40718 0.7384 0.33374 0.0
C1177 C 0.35203 0.78457 0.31627 0.0
C1178 C 0.37086 0.76397 0.30122 0.0
C1179 C 0.42011 0.72111 0.29442 0.0
C1180 C 0.44681 0.69735 0.30271 0.0
C1181 C 0.39923 0.74111 0.3097 0.0
C1182 C 0.45341 0.69434 0.32673 0.0
C1183 C 0.43422 0.71479 0.34207 0.0
H1184 H 0.13986 0.70928 0.82855 0.0
H1185 H 0.19123 0.76971 0.88056 0.0
H1186 H 0.15482 0.80875 0.85874 0.0
H1187 H 0.1071 0.82619 0.82505 0.0
H1188 H 0.0662 0.76718 0.77074 0.0
H1189 H 0.10113 0.72736 0.79293 0.0
C1190 C 0.14419 0.73095 0.83505 0.0
C1191 C 0.16753 0.73604 0.85666 0.0
C1192 C 0.12514 0.75375 0.82187 0.0
C1193 C 0.17187 0.76458 0.86455 0.0
C1194 C 0.15157 0.78717 0.85191 0.0
C1195 C 0.10631 0.80459 0.8181 0.0
C1196 C 0.08396 0.79943 0.79647 0.0
C1197 C 0.12774 0.78201 0.83066 0.0
C1198 C 0.08348 0.77155 0.78736 0.0
C1199 C 0.10321 0.7488 0.80009 0.0
loop_
_geom_bond_atom_site_label_1
_geom_bond_atom_site_label_2
_geom_bond_distance
_geom_bond_site_symmetry_2
_ccdc_geom_bond_type
C0 C1 1.391 . S
C0 C4 1.391 . S
C0 H42 0.948 . S
C1 C0 1.391 . S
C1 C2 1.391 . S
C2 C1 1.391 . S
C2 H58 0.947 . S
C2 C59 1.392 . S
C3 C4 1.391 . S
C3 C7 1.397 . S
C3 C59 1.419 . S
C4 C0 1.391 . S
C4 C3 1.391 . S
C4 C5 1.399 . S
C5 C4 1.399 . S
C5 C8 1.396 . S
C5 C17 1.453 . S
C5 C18 1.684 . S
H6 C30 0.948 . S
C7 C3 1.397 . S
C7 C8 1.394 . S
C7 C26 1.723 . S
C8 C5 1.396 . S
C8 C7 1.394 . S
C8 C38 1.723 . S
H9 C32 0.947 . S
H10 C33 0.948 . S
H11 C39 0.982 . S
H12 C40 0.979 . S
H13 C40 0.980 . S
H14 C40 0.983 . S
H15 C39 0.979 . S
H16 C39 0.977 . S
C17 C5 1.453 . S
C17 H46 0.982 . S
C17 H47 0.979 . S
C17 H48 0.977 . S
C18 C5 1.684 . S
C18 H43 0.979 . S
C18 H44 0.980 . S
C18 H45 0.983 . S
C19 C20 1.391 . S
C19 C24 1.391 . S
C19 H49 0.948 . S
C20 C19 1.391 . S
C20 C21 1.391 . S
C21 C20 1.391 . S
C21 C22 1.392 . S
C21 H50 0.947 . S
C22 C21 1.392 . S
C22 C23 1.419 . S
C22 H51 0.948 . S
C23 C22 1.419 . S
C23 C24 1.391 . S
C23 C27 1.397 . S
C24 C19 1.391 . S
C24 C23 1.391 . S
C24 C25 1.399 . S
C25 C24 1.399 . S
C25 C26 1.396 . S
C25 C28 1.453 . S
C25 C29 1.684 . S
C26 C7 1.723 . S
C26 C25 1.396 . S
C26 C27 1.394 . S
C27 C23 1.397 . S
C27 C26 1.394 . S
C27 C37 1.723 . S
C28 C25 1.453 . S
C28 H52 0.982 . S
C28 H53 0.979 . S
C28 H54 0.977 . S
C29 C25 1.684 . S
C29 H55 0.979 . S
C29 H56 0.980 . S
C29 H57 0.983 . S
C30 H6 0.948 . S
C30 C31 1.391 . S
C30 C35 1.391 . S
C31 C30 1.391 . S
C31 C32 1.391 . S
C32 H9 0.947 . S
C32 C31 1.391 . S
C32 C33 1.392 . S
C33 H10 0.948 . S
C33 C32 1.392 . S
C33 C34 1.419 . S
C34 C33 1.419 . S
C34 C35 1.391 . S
C34 C38 1.397 . S
C35 C30 1.391 . S
C35 C34 1.391 . S
C35 C36 1.399 . S
C36 C35 1.399 . S
C36 C37 1.396 . S
C36 C39 1.453 . S
C36 C40 1.684 . S
C37 C27 1.723 . S
C37 C36 1.396 . S
C37 C38 1.394 . S
C38 C8 1.723 . S
C38 C34 1.397 . S
C38 C37 1.394 . S
C39 H11 0.982 . S
C39 H15 0.979 . S
C39 H16 0.977 . S
C39 C36 1.453 . S
C40 H12 0.979 . S
C40 H13 0.980 . S
C40 H14 0.983 . S
C40 C36 1.684 . S
H41 C59 0.948 . S
H42 C0 0.948 . S
H43 C18 0.979 . S
H44 C18 0.980 . S
H45 C18 0.983 . S
H46 C17 0.982 . S
H47 C17 0.979 . S
H48 C17 0.977 . S
H49 C19 0.948 . S
H50 C21 0.947 . S
H51 C22 0.948 . S
H52 C28 0.982 . S
H53 C28 0.979 . S
H54 C28 0.977 . S
H55 C29 0.979 . S
H56 C29 0.980 . S
H57 C29 0.983 . S
H58 C2 0.947 . S
C59 C2 1.392 . S
C59 C3 1.419 . S
C59 H41 0.948 . S
C60 C61 1.391 . S
C60 C64 1.391 . S
C60 H102 0.948 . S
C61 C60 1.391 . S
C61 C62 1.391 . S
C62 C61 1.391 . S
C62 H118 0.947 . S
C62 C119 1.392 . S
C63 C64 1.391 . S
C63 C67 1.397 . S
C63 C119 1.419 . S
C64 C60 1.391 . S
C64 C63 1.391 . S
C64 C65 1.399 . S
C65 C64 1.399 . S
C65 C68 1.396 . S
C65 C77 1.453 . S
C65 C78 1.684 . S
H66 C90 0.948 . S
C67 C63 1.397 . S
C67 C68 1.394 . S
C67 C86 1.723 . S
C68 C65 1.396 . S
C68 C67 1.394 . S
C68 C98 1.723 . S
H69 C92 0.947 . S
H70 C93 0.948 . S
H71 C99 0.982 . S
H72 C100 0.979 . S
H73 C100 0.980 . S
H74 C100 0.983 . S
H75 C99 0.979 . S
H76 C99 0.977 . S
C77 C65 1.453 . S
C77 H106 0.982 . S
C77 H107 0.979 . S
C77 H108 0.977 . S
C78 C65 1.684 . S
C78 H103 0.979 . S
C78 H104 0.980 . S
C78 H105 0.983 . S
C79 C80 1.391 . S
C79 C84 1.391 . S
C79 H109 0.948 . S
C80 C79 1.391 . S
C80 C81 1.391 . S
C81 C80 1.391 . S
C81 C82 1.392 . S
C81 H110 0.947 . S
C82 C81 1.392 . S
C82 C83 1.419 . S
C82 H111 0.948 . S
C83 C82 1.419 . S
C83 C84 1.391 . S
C83 C87 1.397 . S
C84 C79 1.391 . S
C84 C83 1.391 . S
C84 C85 1.399 . S
C85 C84 1.399 . S
C85 C86 1.396 . S
C85 C88 1.453 . S
C85 C89 1.684 . S
C86 C67 1.723 . S
C86 C85 1.396 . S
C86 C87 1.394 . S
C87 C83 1.397 . S
C87 C86 1.394 . S
C87 C97 1.723 . S
C88 C85 1.453 . S
C88 H112 0.982 . S
C88 H113 0.979 . S
C88 H114 0.977 . S
C89 C85 1.684 . S
C89 H115 0.979 . S
C89 H116 0.980 . S
C89 H117 0.983 . S
C90 H66 0.948 . S
C90 C91 1.391 . S
C90 C95 1.391 . S
C91 C90 1.391 . S
C91 C92 1.391 . S
C92 H69 0.947 . S
C92 C91 1.391 . S
C92 C93 1.392 . S
C93 H70 0.948 . S
C93 C92 1.392 . S
C93 C94 1.419 . S
C94 C93 1.419 . S
C94 C95 1.391 . S
C94 C98 1.397 . S
C95 C90 1.391 . S
C95 C94 1.391 . S
C95 C96 1.399 . S
C96 C95 1.399 . S
C96 C97 1.396 . S
C96 C99 1.453 . S
C96 C100 1.684 . S
C97 C87 1.723 . S
C97 C96 1.396 . S
C97 C98 1.394 . S
C98 C68 1.723 . S
C98 C94 1.397 . S
C98 C97 1.394 . S
C99 H71 0.982 . S
C99 H75 0.979 . S
C99 H76 0.977 . S
C99 C96 1.453 . S
C100 H72 0.979 . S
C100 H73 0.980 . S
C100 H74 0.983 . S
C100 C96 1.684 . S
H101 C119 0.948 . S
H102 C60 0.948 . S
H103 C78 0.979 . S
H104 C78 0.980 . S
H105 C78 0.983 . S
H106 C77 0.982 . S
H107 C77 0.979 . S
H108 C77 0.977 . S
H109 C79 0.948 . S
H110 C81 0.947 . S
H111 C82 0.948 . S
H112 C88 0.982 . S
H113 C88 0.979 . S
H114 C88 0.977 . S
H115 C89 0.979 . S
H116 C89 0.980 . S
H117 C89 0.983 . S
H118 C62 0.947 . S
C119 C62 1.392 . S
C119 C63 1.419 . S
C119 H101 0.948 . S
C120 C121 1.391 . S
C120 C124 1.391 . S
C120 H162 0.948 . S
C121 C120 1.391 . S
C121 C122 1.391 . S
C122 C121 1.391 . S
C122 H178 0.947 . S
C122 C179 1.392 . S
C123 C124 1.391 . S
C123 C127 1.397 . S
C123 C179 1.419 . S
C124 C120 1.391 . S
C124 C123 1.391 . S
C124 C125 1.399 . S
C125 C124 1.399 . S
C125 C128 1.396 . S
C125 C137 1.453 . S
C125 C138 1.684 . S
H126 C150 0.948 . S
C127 C123 1.397 . S
C127 C128 1.394 . S
C127 C146 1.723 . S
C128 C125 1.396 . S
C128 C127 1.394 . S
C128 C158 1.723 . S
H129 C152 0.947 . S
H130 C153 0.948 . S
H131 C159 0.982 . S
H132 C160 0.979 . S
H133 C160 0.980 . S
H134 C160 0.983 . S
H135 C159 0.979 . S
H136 C159 0.977 . S
C137 C125 1.453 . S
C137 H166 0.982 . S
C137 H167 0.979 . S
C137 H168 0.977 . S
C138 C125 1.684 . S
C138 H163 0.979 . S
C138 H164 0.980 . S
C138 H165 0.983 . S
C139 C140 1.391 . S
C139 C144 1.391 . S
C139 H169 0.948 . S
C140 C139 1.391 . S
C140 C141 1.391 . S
C141 C140 1.391 . S
C141 C142 1.392 . S
C141 H170 0.947 . S
C142 C141 1.392 . S
C142 C143 1.419 . S
C142 H171 0.948 . S
C143 C142 1.419 . S
C143 C144 1.391 . S
C143 C147 1.397 . S
C144 C139 1.391 . S
C144 C143 1.391 . S
C144 C145 1.399 . S
C145 C144 1.399 . S
C145 C146 1.396 . S
C145 C148 1.453 . S
C145 C149 1.684 . S
C146 C127 1.723 . S
C146 C145 1.396 . S
C146 C147 1.394 . S
C147 C143 1.397 . S
C147 C146 1.394 . S
C147 C157 1.723 . S
C148 C145 1.453 . S
C148 H172 0.982 . S
C148 H173 0.979 . S
C148 H174 0.977 . S
C149 C145 1.684 . S
C149 H175 0.979 . S
C149 H176 0.980 . S
C149 H177 0.983 . S
C150 H126 0.948 . S
C150 C151 1.391 . S
C150 C155 1.391 . S
C151 C150 1.391 . S
C151 C152 1.391 . S
C152 H129 0.947 . S
C152 C151 1.391 . S
C152 C153 1.392 . S
C153 H130 0.948 . S
C153 C152 1.392 . S
C153 C154 1.419 . S
C154 C153 1.419 . S
C154 C155 1.391 . S
C154 C158 1.397 . S
C155 C150 1.391 . S
C155 C154 1.391 . S
C155 C156 1.399 . S
C156 C155 1.399 . S
C156 C157 1.396 . S
C156 C159 1.453 . S
C156 C160 1.684 . S
C157 C147 1.723 . S
C157 C156 1.396 . S
C157 C158 1.394 . S
C158 C128 1.723 . S
C158 C154 1.397 . S
C158 C157 1.394 . S
C159 H131 0.982 . S
C159 H135 0.979 . S
C159 H136 0.977 . S
C159 C156 1.453 . S
C160 H132 0.979 . S
C160 H133 0.980 . S
C160 H134 0.983 . S
C160 C156 1.684 . S
H161 C179 0.948 . S
H162 C120 0.948 . S
H163 C138 0.979 . S
H164 C138 0.980 . S
H165 C138 0.983 . S
H166 C137 0.982 . S
H167 C137 0.979 . S
H168 C137 0.977 . S
H169 C139 0.948 . S
H170 C141 0.947 . S
H171 C142 0.948 . S
H172 C148 0.982 . S
H173 C148 0.979 . S
H174 C148 0.977 . S
H175 C149 0.979 . S
H176 C149 0.980 . S
H177 C149 0.983 . S
H178 C122 0.947 . S
C179 C122 1.392 . S
C179 C123 1.419 . S
C179 H161 0.948 . S
C180 C181 1.391 . S
C180 C184 1.391 . S
C180 H222 0.948 . S
C181 C180 1.391 . S
C181 C182 1.391 . S
C182 C181 1.391 . S
C182 H238 0.947 . S
C182 C239 1.392 . S
C183 C184 1.391 . S
C183 C187 1.397 . S
C183 C239 1.419 . S
C184 C180 1.391 . S
C184 C183 1.391 . S
C184 C185 1.399 . S
C185 C184 1.399 . S
C185 C188 1.396 . S
C185 C197 1.453 . S
C185 C198 1.684 . S
H186 C210 0.948 . S
C187 C183 1.397 . S
C187 C188 1.394 . S
C187 C206 1.723 . S
C188 C185 1.396 . S
C188 C187 1.394 . S
C188 C218 1.723 . S
H189 C212 0.947 . S
H190 C213 0.948 . S
H191 C219 0.982 . S
H192 C220 0.979 . S
H193 C220 0.980 . S
H194 C220 0.983 . S
H195 C219 0.979 . S
H196 C219 0.977 . S
C197 C185 1.453 . S
C197 H226 0.982 . S
C197 H227 0.979 . S
C197 H228 0.977 . S
C198 C185 1.684 . S
C198 H223 0.979 . S
C198 H224 0.980 . S
C198 H225 0.983 . S
C199 C200 1.391 . S
C199 C204 1.391 . S
C199 H229 0.948 . S
C200 C199 1.391 . S
C200 C201 1.391 . S
C201 C200 1.391 . S
C201 C202 1.392 . S
C201 H230 0.947 . S
C202 C201 1.392 . S
C202 C203 1.419 . S
C202 H231 0.948 . S
C203 C202 1.419 . S
C203 C204 1.391 . S
C203 C207 1.397 . S
C204 C199 1.391 . S
C204 C203 1.391 . S
C204 C205 1.399 . S
C205 C204 1.399 . S
C205 C206 1.396 . S
C205 C208 1.453 . S
C205 C209 1.684 . S
C206 C187 1.723 . S
C206 C205 1.396 . S
C206 C207 1.394 . S
C207 C203 1.397 . S
C207 C206 1.394 . S
C207 C217 1.723 . S
C208 C205 1.453 . S
C208 H232 0.982 . S
C208 H233 0.979 . S
C208 H234 0.977 . S
C209 C205 1.684 . S
C209 H235 0.979 . S
C209 H236 0.980 . S
C209 H237 0.983 . S
C210 H186 0.948 . S
C210 C211 1.391 . S
C210 C215 1.391 . S
C211 C210 1.391 . S
C211 C212 1.391 . S
C212 H189 0.947 . S
C212 C211 1.391 . S
C212 C213 1.392 . S
C213 H190 0.948 . S
C213 C212 1.392 . S
C213 C214 1.419 . S
C214 C213 1.419 . S
C214 C215 1.391 . S
C214 C218 1.397 . S
C215 C210 1.391 . S
C215 C214 1.391 . S
C215 C216 1.399 . S
C216 C215 1.399 . S
C216 C217 1.396 . S
C216 C219 1.453 . S
C216 C220 1.684 . S
C217 C207 1.723 . S
C217 C216 1.396 . S
C217 C218 1.394 . S
C218 C188 1.723 . S
C218 C214 1.397 . S
C218 C217 1.394 . S
C219 H191 0.982 . S
C219 H195 0.979 . S
C219 H196 0.977 . S
C219 C216 1.453 . S
C220 H192 0.979 . S
C220 H193 0.980 . S
C220 H194 0.983 . S
C220 C216 1.684 . S
H221 C239 0.948 . S
H222 C180 0.948 . S
H223 C198 0.979 . S
H224 C198 0.980 . S
H225 C198 0.983 . S
H226 C197 0.982 . S
H227 C197 0.979 . S
H228 C197 0.977 . S
H229 C199 0.948 . S
H230 C201 0.947 . S
H231 C202 0.948 . S
H232 C208 0.982 . S
H233 C208 0.979 . S
H234 C208 0.977 . S
H235 C209 0.979 . S
H236 C209 0.980 . S
H237 C209 0.983 . S
H238 C182 0.947 . S
C239 C182 1.392 . S
C239 C183 1.419 . S
C239 H221 0.948 . S
C240 C241 1.391 . S
C240 C244 1.391 . S
C240 H282 0.948 . S
C241 C240 1.391 . S
C241 C242 1.391 . S
C242 C241 1.391 . S
C242 H298 0.947 . S
C242 C299 1.392 . S
C243 C244 1.391 . S
C243 C247 1.397 . S
C243 C299 1.419 . S
C244 C240 1.391 . S
C244 C243 1.391 . S
C244 C245 1.399 . S
C245 C244 1.399 . S
C245 C248 1.396 . S
C245 C257 1.453 . S
C245 C258 1.684 . S
H246 C270 0.948 . S
C247 C243 1.397 . S
C247 C248 1.394 . S
C247 C266 1.723 . S
C248 C245 1.396 . S
C248 C247 1.394 . S
C248 C278 1.723 . S
H249 C272 0.947 . S
H250 C273 0.948 . S
H251 C279 0.982 . S
H252 C280 0.979 . S
H253 C280 0.980 . S
H254 C280 0.983 . S
H255 C279 0.979 . S
H256 C279 0.977 . S
C257 C245 1.453 . S
C257 H286 0.982 . S
C257 H287 0.979 . S
C257 H288 0.977 . S
C258 C245 1.684 . S
C258 H283 0.979 . S
C258 H284 0.980 . S
C258 H285 0.983 . S
C259 C260 1.391 . S
C259 C264 1.391 . S
C259 H289 0.948 . S
C260 C259 1.391 . S
C260 C261 1.391 . S
C261 C260 1.391 . S
C261 C262 1.392 . S
C261 H290 0.947 . S
C262 C261 1.392 . S
C262 C263 1.419 . S
C262 H291 0.948 . S
C263 C262 1.419 . S
C263 C264 1.391 . S
C263 C267 1.397 . S
C264 C259 1.391 . S
C264 C263 1.391 . S
C264 C265 1.399 . S
C265 C264 1.399 . S
C265 C266 1.396 . S
C265 C268 1.453 . S
C265 C269 1.684 . S
C266 C247 1.723 . S
C266 C265 1.396 . S
C266 C267 1.394 . S
C267 C263 1.397 . S
C267 C266 1.394 . S
C267 C277 1.723 . S
C268 C265 1.453 . S
C268 H292 0.982 . S
C268 H293 0.979 . S
C268 H294 0.977 . S
C269 C265 1.684 . S
C269 H295 0.979 . S
C269 H296 0.980 . S
C269 H297 0.983 . S
C270 H246 0.948 . S
C270 C271 1.391 . S
C270 C275 1.391 . S
C271 C270 1.391 . S
C271 C272 1.391 . S
C272 H249 0.947 . S
C272 C271 1.391 . S
C272 C273 1.392 . S
C273 H250 0.948 . S
C273 C272 1.392 . S
C273 C274 1.419 . S
C274 C273 1.419 . S
C274 C275 1.391 . S
C274 C278 1.397 . S
C275 C270 1.391 . S
C275 C274 1.391 . S
C275 C276 1.399 . S
C276 C275 1.399 . S
C276 C277 1.396 . S
C276 C279 1.453 . S
C276 C280 1.684 . S
C277 C267 1.723 . S
C277 C276 1.396 . S
C277 C278 1.394 . S
C278 C248 1.723 . S
C278 C274 1.397 . S
C278 C277 1.394 . S
C279 H251 0.982 . S
C279 H255 0.979 . S
C279 H256 0.977 . S
C279 C276 1.453 . S
C280 H252 0.979 . S
C280 H253 0.980 . S
C280 H254 0.983 . S
C280 C276 1.684 . S
H281 C299 0.948 . S
H282 C240 0.948 . S
H283 C258 0.979 . S
H284 C258 0.980 . S
H285 C258 0.983 . S
H286 C257 0.982 . S
H287 C257 0.979 . S
H288 C257 0.977 . S
H289 C259 0.948 . S
H290 C261 0.947 . S
H291 C262 0.948 . S
H292 C268 0.982 . S
H293 C268 0.979 . S
H294 C268 0.977 . S
H295 C269 0.979 . S
H296 C269 0.980 . S
H297 C269 0.983 . S
H298 C242 0.947 . S
C299 C242 1.392 . S
C299 C243 1.419 . S
C299 H281 0.948 . S
C300 C301 1.391 . S
C300 C304 1.391 . S
C300 H342 0.948 . S
C301 C300 1.391 . S
C301 C302 1.391 . S
C302 C301 1.391 . S
C302 H358 0.947 . S
C302 C359 1.392 . S
C303 C304 1.391 . S
C303 C307 1.397 . S
C303 C359 1.419 . S
C304 C300 1.391 . S
C304 C303 1.391 . S
C304 C305 1.399 . S
C305 C304 1.399 . S
C305 C308 1.396 . S
C305 C317 1.453 . S
C305 C318 1.684 . S
H306 C330 0.948 . S
C307 C303 1.397 . S
C307 C308 1.394 . S
C307 C326 1.723 . S
C308 C305 1.396 . S
C308 C307 1.394 . S
C308 C338 1.723 . S
H309 C332 0.947 . S
H310 C333 0.948 . S
H311 C339 0.982 . S
H312 C340 0.979 . S
H313 C340 0.980 . S
H314 C340 0.983 . S
H315 C339 0.979 . S
H316 C339 0.977 . S
C317 C305 1.453 . S
C317 H346 0.982 . S
C317 H347 0.979 . S
C317 H348 0.977 . S
C318 C305 1.684 . S
C318 H343 0.979 . S
C318 H344 0.980 . S
C318 H345 0.983 . S
C319 C320 1.391 . S
C319 C324 1.391 . S
C319 H349 0.948 . S
C320 C319 1.391 . S
C320 C321 1.391 . S
C321 C320 1.391 . S
C321 C322 1.392 . S
C321 H350 0.947 . S
C322 C321 1.392 . S
C322 C323 1.419 . S
C322 H351 0.948 . S
C323 C322 1.419 . S
C323 C324 1.391 . S
C323 C327 1.397 . S
C324 C319 1.391 . S
C324 C323 1.391 . S
C324 C325 1.399 . S
C325 C324 1.399 . S
C325 C326 1.396 . S
C325 C328 1.453 . S
C325 C329 1.684 . S
C326 C307 1.723 . S
C326 C325 1.396 . S
C326 C327 1.394 . S
C327 C323 1.397 . S
C327 C326 1.394 . S
C327 C337 1.723 . S
C328 C325 1.453 . S
C328 H352 0.982 . S
C328 H353 0.979 . S
C328 H354 0.977 . S
C329 C325 1.684 . S
C329 H355 0.979 . S
C329 H356 0.980 . S
C329 H357 0.983 . S
C330 H306 0.948 . S
C330 C331 1.391 . S
C330 C335 1.391 . S
C331 C330 1.391 . S
C331 C332 1.391 . S
C332 H309 0.947 . S
C332 C331 1.391 . S
C332 C333 1.392 . S
C333 H310 0.948 . S
C333 C332 1.392 . S
C333 C334 1.419 . S
C334 C333 1.419 . S
C334 C335 1.391 . S
C334 C338 1.397 . S
C335 C330 1.391 . S
C335 C334 1.391 . S
C335 C336 1.399 . S
C336 C335 1.399 . S
C336 C337 1.396 . S
C336 C339 1.453 . S
C336 C340 1.684 . S
C337 C327 1.723 . S
C337 C336 1.396 . S
C337 C338 1.394 . S
C338 C308 1.723 . S
C338 C334 1.397 . S
C338 C337 1.394 . S
C339 H311 0.982 . S
C339 H315 0.979 . S
C339 H316 0.977 . S
C339 C336 1.453 . S
C340 H312 0.979 . S
C340 H313 0.980 . S
C340 H314 0.983 . S
C340 C336 1.684 . S
H341 C359 0.948 . S
H342 C300 0.948 . S
H343 C318 0.979 . S
H344 C318 0.980 . S
H345 C318 0.983 . S
H346 C317 0.982 . S
H347 C317 0.979 . S
H348 C317 0.977 . S
H349 C319 0.948 . S
H350 C321 0.947 . S
H351 C322 0.948 . S
H352 C328 0.982 . S
H353 C328 0.979 . S
H354 C328 0.977 . S
H355 C329 0.979 . S
H356 C329 0.980 . S
H357 C329 0.983 . S
H358 C302 0.947 . S
C359 C302 1.392 . S
C359 C303 1.419 . S
C359 H341 0.948 . S
C360 C361 1.391 . S
C360 C364 1.391 . S
C360 H402 0.948 . S
C361 C360 1.391 . S
C361 C362 1.391 . S
C362 C361 1.391 . S
C362 H418 0.947 . S
C362 C419 1.392 . S
C363 C364 1.391 . S
C363 C367 1.397 . S
C363 C419 1.419 . S
C364 C360 1.391 . S
C364 C363 1.391 . S
C364 C365 1.399 . S
C365 C364 1.399 . S
C365 C368 1.396 . S
C365 C377 1.453 . S
C365 C378 1.684 . S
H366 C390 0.948 . S
C367 C363 1.397 . S
C367 C368 1.394 . S
C367 C386 1.723 . S
C368 C365 1.396 . S
C368 C367 1.394 . S
C368 C398 1.723 . S
H369 C392 0.947 . S
H370 C393 0.948 . S
H371 C399 0.982 . S
H372 C400 0.979 . S
H373 C400 0.980 . S
H374 C400 0.983 . S
H375 C399 0.979 . S
H376 C399 0.977 . S
C377 C365 1.453 . S
C377 H406 0.982 . S
C377 H407 0.979 . S
C377 H408 0.977 . S
C378 C365 1.684 . S
C378 H403 0.979 . S
C378 H404 0.980 . S
C378 H405 0.983 . S
C379 C380 1.391 . S
C379 C384 1.391 . S
C379 H409 0.948 . S
C380 C379 1.391 . S
C380 C381 1.391 . S
C381 C380 1.391 . S
C381 C382 1.392 . S
C381 H410 0.947 . S
C382 C381 1.392 . S
C382 C383 1.419 . S
C382 H411 0.948 . S
C383 C382 1.419 . S
C383 C384 1.391 . S
C383 C387 1.397 . S
C384 C379 1.391 . S
C384 C383 1.391 . S
C384 C385 1.399 . S
C385 C384 1.399 . S
C385 C386 1.396 . S
C385 C388 1.453 . S
C385 C389 1.684 . S
C386 C367 1.723 . S
C386 C385 1.396 . S
C386 C387 1.394 . S
C387 C383 1.397 . S
C387 C386 1.394 . S
C387 C397 1.723 . S
C388 C385 1.453 . S
C388 H412 0.982 . S
C388 H413 0.979 . S
C388 H414 0.977 . S
C389 C385 1.684 . S
C389 H415 0.979 . S
C389 H416 0.980 . S
C389 H417 0.983 . S
C390 H366 0.948 . S
C390 C391 1.391 . S
C390 C395 1.391 . S
C391 C390 1.391 . S
C391 C392 1.391 . S
C392 H369 0.947 . S
C392 C391 1.391 . S
C392 C393 1.392 . S
C393 H370 0.948 . S
C393 C392 1.392 . S
C393 C394 1.419 . S
C394 C393 1.419 . S
C394 C395 1.391 . S
C394 C398 1.397 . S
C395 C390 1.391 . S
C395 C394 1.391 . S
C395 C396 1.399 . S
C396 C395 1.399 . S
C396 C397 1.396 . S
C396 C399 1.453 . S
C396 C400 1.684 . S
C397 C387 1.723 . S
C397 C396 1.396 . S
C397 C398 1.394 . S
C398 C368 1.723 . S
C398 C394 1.397 . S
C398 C397 1.394 . S
C399 H371 0.982 . S
C399 H375 0.979 . S
C399 H376 0.977 . S
C399 C396 1.453 . S
C400 H372 0.979 . S
C400 H373 0.980 . S
C400 H374 0.983 . S
C400 C396 1.684 . S
H401 C419 0.948 . S
H402 C360 0.948 . S
H403 C378 0.979 . S
H404 C378 0.980 . S
H405 C378 0.983 . S
H406 C377 0.982 . S
H407 C377 0.979 . S
H408 C377 0.977 . S
H409 C379 0.948 . S
H410 C381 0.947 . S
H411 C382 0.948 . S
H412 C388 0.982 . S
H413 C388 0.979 . S
H414 C388 0.977 . S
H415 C389 0.979 . S
H416 C389 0.980 . S
H417 C389 0.983 . S
H418 C362 0.947 . S
C419 C362 1.392 . S
C419 C363 1.419 . S
C419 H401 0.948 . S
C420 C421 1.391 . S
C420 C424 1.391 . S
C420 H462 0.948 . S
C421 C420 1.391 . S
C421 C422 1.391 . S
C422 C421 1.391 . S
C422 H478 0.947 . S
C422 C479 1.392 . S
C423 C424 1.391 . S
C423 C427 1.397 . S
C423 C479 1.419 . S
C424 C420 1.391 . S
C424 C423 1.391 . S
C424 C425 1.399 . S
C425 C424 1.399 . S
C425 C428 1.396 . S
C425 C437 1.453 . S
C425 C438 1.684 . S
H426 C450 0.948 . S
C427 C423 1.397 . S
C427 C428 1.394 . S
C427 C446 1.723 . S
C428 C425 1.396 . S
C428 C427 1.394 . S
C428 C458 1.723 . S
H429 C452 0.947 . S
H430 C453 0.948 . S
H431 C459 0.982 . S
H432 C460 0.979 . S
H433 C460 0.980 . S
H434 C460 0.983 . S
H435 C459 0.979 . S
H436 C459 0.977 . S
C437 C425 1.453 . S
C437 H466 0.982 . S
C437 H467 0.979 . S
C437 H468 0.977 . S
C438 C425 1.684 . S
C438 H463 0.979 . S
C438 H464 0.980 . S
C438 H465 0.983 . S
C439 C440 1.391 . S
C439 C444 1.391 . S
C439 H469 0.948 . S
C440 C439 1.391 . S
C440 C441 1.391 . S
C441 C440 1.391 . S
C441 C442 1.392 . S
C441 H470 0.947 . S
C442 C441 1.392 . S
C442 C443 1.419 . S
C442 H471 0.948 . S
C443 C442 1.419 . S
C443 C444 1.391 . S
C443 C447 1.397 . S
C444 C439 1.391 . S
C444 C443 1.391 . S
C444 C445 1.399 . S
C445 C444 1.399 . S
C445 C446 1.396 . S
C445 C448 1.453 . S
C445 C449 1.684 . S
C446 C427 1.723 . S
C446 C445 1.396 . S
C446 C447 1.394 . S
C447 C443 1.397 . S
C447 C446 1.394 . S
C447 C457 1.723 . S
C448 C445 1.453 . S
C448 H472 0.982 . S
C448 H473 0.979 . S
C448 H474 0.977 . S
C449 C445 1.684 . S
C449 H475 0.979 . S
C449 H476 0.980 . S
C449 H477 0.983 . S
C450 H426 0.948 . S
C450 C451 1.391 . S
C450 C455 1.391 . S
C451 C450 1.391 . S
C451 C452 1.391 . S
C452 H429 0.947 . S
C452 C451 1.391 . S
C452 C453 1.392 . S
C453 H430 0.948 . S
C453 C452 1.392 . S
C453 C454 1.419 . S
C454 C453 1.419 . S
C454 C455 1.391 . S
C454 C458 1.397 . S
C455 C450 1.391 . S
C455 C454 1.391 . S
C455 C456 1.399 . S
C456 C455 1.399 . S
C456 C457 1.396 . S
C456 C459 1.453 . S
C456 C460 1.684 . S
C457 C447 1.723 . S
C457 C456 1.396 . S
C457 C458 1.394 . S
C458 C428 1.723 . S
C458 C454 1.397 . S
C458 C457 1.394 . S
C459 H431 0.982 . S
C459 H435 0.979 . S
C459 H436 0.977 . S
C459 C456 1.453 . S
C460 H432 0.979 . S
C460 H433 0.980 . S
C460 H434 0.983 . S
C460 C456 1.684 . S
H461 C479 0.948 . S
H462 C420 0.948 . S
H463 C438 0.979 . S
H464 C438 0.980 . S
H465 C438 0.983 . S
H466 C437 0.982 . S
H467 C437 0.979 . S
H468 C437 0.977 . S
H469 C439 0.948 . S
H470 C441 0.947 . S
H471 C442 0.948 . S
H472 C448 0.982 . S
H473 C448 0.979 . S
H474 C448 0.977 . S
H475 C449 0.979 . S
H476 C449 0.980 . S
H477 C449 0.983 . S
H478 C422 0.947 . S
C479 C422 1.392 . S
C479 C423 1.419 . S
C479 H461 0.948 . S
C480 C482 1.422 . S
C480 C484 1.415 . S
C480 N486 1.369 . S
C481 C482 1.421 . S
C481 C483 1.417 . S
C481 C493 1.422 . S
C482 C480 1.422 . S
C482 C481 1.421 . S
C482 N492 1.359 . S
C483 C481 1.417 . S
C483 C485 1.329 . S
C483 H502 0.930 . S
C484 C480 1.415 . S
C484 C485 1.437 . S
C484 C488 1.413 . S
C485 C483 1.329 . S
C485 C484 1.437 . S
C485 H507 0.929 . S
N486 C480 1.369 . S
N486 C487 1.338 . S
N486 Gd491 2.622 . S
C487 N486 1.338 . S
C487 C489 1.378 . S
C487 H499 0.929 . S
C488 C484 1.413 . S
C488 C489 1.348 . S
C488 H504 0.931 . S
C489 C487 1.378 . S
C489 C488 1.348 . S
C489 H505 0.930 . S
Gd490 N510 2.622 . S
Gd490 N517 2.570 . S
Gd490 O524 2.353 . S
Gd490 O525 2.468 . S
Gd490 O526 2.427 . S
Gd490 O528 2.388 . S
Gd490 O529 2.386 . S
Gd490 O533 2.307 . S
Gd490 C543 2.805 . S
Gd491 N486 2.622 . S
Gd491 N492 2.570 . S
Gd491 O523 2.386 . S
Gd491 O527 2.307 1_655 S
Gd491 O530 2.353 1_655 S
Gd491 O531 2.468 . S
Gd491 O532 2.427 . S
Gd491 O534 2.388 . S
Gd491 C555 2.805 . S
N492 C482 1.359 . S
N492 Gd491 2.570 . S
N492 C494 1.343 . S
C493 C481 1.422 . S
C493 C495 1.321 . S
C493 H501 0.931 . S
C494 N492 1.343 . S
C494 C495 1.390 . S
C494 H496 0.931 . S
C495 C493 1.321 . S
C495 C494 1.390 . S
C495 H497 0.930 . S
H496 C494 0.931 . S
H497 C495 0.930 . S
H498 C521 0.931 . S
H499 C487 0.929 . S
H500 C522 0.930 . S
H501 C493 0.931 . S
H502 C483 0.930 . S
H503 C512 0.929 . S
H504 C488 0.931 . S
H505 C489 0.930 . S
H506 C544 0.930 . S
H507 C485 0.929 . S
H508 C513 0.931 . S
H509 C514 0.930 . S
N510 Gd490 2.622 . S
N510 C511 1.369 . S
N510 C512 1.338 . S
C511 N510 1.369 . S
C511 C515 1.415 . S
C511 C518 1.422 . S
C512 H503 0.929 . S
C512 N510 1.338 . S
C512 C514 1.378 . S
C513 H508 0.931 . S
C513 C514 1.348 . S
C513 C515 1.413 . S
C514 H509 0.930 . S
C514 C512 1.378 . S
C514 C513 1.348 . S
C515 C511 1.415 . S
C515 C513 1.413 . S
C515 C545 1.437 . S
H516 C545 0.929 . S
N517 Gd490 2.570 . S
N517 C518 1.359 . S
N517 C521 1.343 . S
C518 C511 1.422 . S
C518 N517 1.359 . S
C518 C520 1.421 . S
C519 C520 1.422 . S
C519 C522 1.321 . S
C519 H546 0.931 . S
C520 C518 1.421 . S
C520 C519 1.422 . S
C520 C544 1.417 . S
C521 H498 0.931 . S
C521 N517 1.343 . S
C521 C522 1.390 . S
C522 H500 0.930 . S
C522 C519 1.321 . S
C522 C521 1.390 . S
O523 Gd491 2.386 . S
O523 C535 1.265 . S
O524 Gd490 2.353 . S
O524 C535 1.242 1_455 S
O525 Gd490 2.468 . S
O525 C543 1.263 . S
O526 Gd490 2.427 . S
O526 C543 1.252 . S
O527 Gd491 2.307 1_455 S
O527 C536 1.261 . S
O528 Gd490 2.388 . S
O528 C536 1.252 . S
O529 Gd490 2.386 . S
O529 C547 1.265 . S
O530 Gd491 2.353 1_455 S
O530 C547 1.242 . S
O531 Gd491 2.468 . S
O531 C555 1.263 . S
O532 Gd491 2.427 . S
O532 C555 1.252 . S
O533 Gd490 2.307 . S
O533 C548 1.261 1_455 S
O534 Gd491 2.388 . S
O534 C548 1.252 . S
C535 O523 1.265 . S
C535 O524 1.242 1_655 S
C536 O527 1.261 . S
C536 O528 1.252 . S
C537 C540 1.394 . S
C537 C542 1.370 . S
C537 C543 1.500 . S
C538 C541 1.383 . S
C538 C542 1.395 . S
C539 C540 1.396 . S
C539 C541 1.365 . S
C539 H556 0.929 . S
C540 C537 1.394 . S
C540 C539 1.396 . S
C540 H557 0.930 . S
C541 C538 1.383 . S
C541 C539 1.365 . S
C541 H558 0.931 . S
C542 C537 1.370 . S
C542 C538 1.395 . S
C542 H559 0.930 . S
C543 Gd490 2.805 . S
C543 O525 1.263 . S
C543 O526 1.252 . S
C543 C537 1.500 . S
C544 H506 0.930 . S
C544 C520 1.417 . S
C544 C545 1.329 . S
C545 C515 1.437 . S
C545 H516 0.929 . S
C545 C544 1.329 . S
H546 C519 0.931 . S
C547 O529 1.265 . S
C547 O530 1.242 . S
C548 O533 1.261 1_655 S
C548 O534 1.252 . S
C549 C552 1.394 . S
C549 C554 1.370 . S
C549 C555 1.500 . S
C550 C553 1.383 . S
C550 C554 1.395 . S
C551 C552 1.396 . S
C551 C553 1.365 . S
C551 H560 0.929 . S
C552 C549 1.394 . S
C552 C551 1.396 . S
C552 H561 0.930 . S
C553 C550 1.383 . S
C553 C551 1.365 . S
C553 H562 0.931 . S
C554 C549 1.370 . S
C554 C550 1.395 . S
C554 H563 0.930 . S
C555 Gd491 2.805 . S
C555 O531 1.263 . S
C555 O532 1.252 . S
C555 C549 1.500 . S
H556 C539 0.929 . S
H557 C540 0.930 . S
H558 C541 0.931 . S
H559 C542 0.930 . S
H560 C551 0.929 . S
H561 C552 0.930 . S
H562 C553 0.931 . S
H563 C554 0.930 . S
C564 C566 1.422 . S
C564 C568 1.415 . S
C564 N570 1.369 . S
C565 C566 1.421 . S
C565 C567 1.417 . S
C565 C577 1.422 . S
C566 C564 1.422 . S
C566 C565 1.421 . S
C566 N576 1.359 . S
C567 C565 1.417 . S
C567 C569 1.329 . S
C567 H586 0.930 . S
C568 C564 1.415 . S
C568 C569 1.437 . S
C568 C572 1.413 . S
C569 C567 1.329 . S
C569 C568 1.437 . S
C569 H591 0.929 . S
N570 C564 1.369 . S
N570 C571 1.338 . S
N570 Gd575 2.622 . S
C571 N570 1.338 . S
C571 C573 1.378 . S
C571 H583 0.929 . S
C572 C568 1.413 . S
C572 C573 1.348 . S
C572 H588 0.931 . S
C573 C571 1.378 . S
C573 C572 1.348 . S
C573 H589 0.930 . S
Gd574 N594 2.622 . S
Gd574 N601 2.570 . S
Gd574 O608 2.353 . S
Gd574 O609 2.468 . S
Gd574 O610 2.427 . S
Gd574 O612 2.388 . S
Gd574 O613 2.386 . S
Gd574 O617 2.307 . S
Gd574 C627 2.805 . S
Gd575 N570 2.622 . S
Gd575 N576 2.570 . S
Gd575 O607 2.386 . S
Gd575 O611 2.307 . S
Gd575 O614 2.353 . S
Gd575 O615 2.468 . S
Gd575 O616 2.427 . S
Gd575 O618 2.388 . S
Gd575 C639 2.805 . S
N576 C566 1.359 . S
N576 Gd575 2.570 . S
N576 C578 1.343 . S
C577 C565 1.422 . S
C577 C579 1.321 . S
C577 H585 0.931 . S
C578 N576 1.343 . S
C578 C579 1.390 . S
C578 H580 0.931 . S
C579 C577 1.321 . S
C579 C578 1.390 . S
C579 H581 0.930 . S
H580 C578 0.931 . S
H581 C579 0.930 . S
H582 C605 0.931 . S
H583 C571 0.929 . S
H584 C606 0.930 . S
H585 C577 0.931 . S
H586 C567 0.930 . S
H587 C596 0.929 . S
H588 C572 0.931 . S
H589 C573 0.930 . S
H590 C628 0.930 . S
H591 C569 0.929 . S
H592 C597 0.931 . S
H593 C598 0.930 . S
N594 Gd574 2.622 . S
N594 C595 1.369 . S
N594 C596 1.338 . S
C595 N594 1.369 . S
C595 C599 1.415 . S
C595 C602 1.422 . S
C596 H587 0.929 . S
C596 N594 1.338 . S
C596 C598 1.378 . S
C597 H592 0.931 . S
C597 C598 1.348 . S
C597 C599 1.413 . S
C598 H593 0.930 . S
C598 C596 1.378 . S
C598 C597 1.348 . S
C599 C595 1.415 . S
C599 C597 1.413 . S
C599 C629 1.437 . S
H600 C629 0.929 . S
N601 Gd574 2.570 . S
N601 C602 1.359 . S
N601 C605 1.343 . S
C602 C595 1.422 . S
C602 N601 1.359 . S
C602 C604 1.421 . S
C603 C604 1.422 . S
C603 C606 1.321 . S
C603 H630 0.931 . S
C604 C602 1.421 . S
C604 C603 1.422 . S
C604 C628 1.417 . S
C605 H582 0.931 . S
C605 N601 1.343 . S
C605 C606 1.390 . S
C606 H584 0.930 . S
C606 C603 1.321 . S
C606 C605 1.390 . S
O607 Gd575 2.386 . S
O607 C619 1.265 . S
O608 Gd574 2.353 . S
O608 C619 1.242 . S
O609 Gd574 2.468 . S
O609 C627 1.263 . S
O610 Gd574 2.427 . S
O610 C627 1.252 . S
O611 Gd575 2.307 . S
O611 C620 1.261 . S
O612 Gd574 2.388 . S
O612 C620 1.252 . S
O613 Gd574 2.386 . S
O613 C631 1.265 . S
O614 Gd575 2.353 . S
O614 C631 1.242 . S
O615 Gd575 2.468 . S
O615 C639 1.263 . S
O616 Gd575 2.427 . S
O616 C639 1.252 . S
O617 Gd574 2.307 . S
O617 C632 1.261 . S
O618 Gd575 2.388 . S
O618 C632 1.252 . S
C619 O607 1.265 . S
C619 O608 1.242 . S
C620 O611 1.261 . S
C620 O612 1.252 . S
C621 C624 1.394 . S
C621 C626 1.370 . S
C621 C627 1.500 . S
C622 C625 1.383 . S
C622 C626 1.395 . S
C623 C624 1.396 . S
C623 C625 1.365 . S
C623 H640 0.929 . S
C624 C621 1.394 . S
C624 C623 1.396 . S
C624 H641 0.930 . S
C625 C622 1.383 . S
C625 C623 1.365 . S
C625 H642 0.931 . S
C626 C621 1.370 . S
C626 C622 1.395 . S
C626 H643 0.930 . S
C627 Gd574 2.805 . S
C627 O609 1.263 . S
C627 O610 1.252 . S
C627 C621 1.500 . S
C628 H590 0.930 . S
C628 C604 1.417 . S
C628 C629 1.329 . S
C629 C599 1.437 . S
C629 H600 0.929 . S
C629 C628 1.329 . S
H630 C603 0.931 . S
C631 O613 1.265 . S
C631 O614 1.242 . S
C632 O617 1.261 . S
C632 O618 1.252 . S
C633 C636 1.394 . S
C633 C638 1.370 . S
C633 C639 1.500 . S
C634 C637 1.383 . S
C634 C638 1.395 . S
C635 C636 1.396 . S
C635 C637 1.365 . S
C635 H644 0.929 . S
C636 C633 1.394 . S
C636 C635 1.396 . S
C636 H645 0.930 . S
C637 C634 1.383 . S
C637 C635 1.365 . S
C637 H646 0.931 . S
C638 C633 1.370 . S
C638 C634 1.395 . S
C638 H647 0.930 . S
C639 Gd575 2.805 . S
C639 O615 1.263 . S
C639 O616 1.252 . S
C639 C633 1.500 . S
H640 C623 0.929 . S
H641 C624 0.930 . S
H642 C625 0.931 . S
H643 C626 0.930 . S
H644 C635 0.929 . S
H645 C636 0.930 . S
H646 C637 0.931 . S
H647 C638 0.930 . S
C648 C650 1.422 . S
C648 C652 1.415 . S
C648 N654 1.369 . S
C649 C650 1.421 . S
C649 C651 1.417 . S
C649 C661 1.422 . S
C650 C648 1.422 . S
C650 C649 1.421 . S
C650 N660 1.359 . S
C651 C649 1.417 . S
C651 C653 1.329 . S
C651 H670 0.930 . S
C652 C648 1.415 . S
C652 C653 1.437 . S
C652 C656 1.413 . S
C653 C651 1.329 . S
C653 C652 1.437 . S
C653 H675 0.929 . S
N654 C648 1.369 . S
N654 C655 1.338 . S
N654 Gd659 2.622 . S
C655 N654 1.338 . S
C655 C657 1.378 . S
C655 H667 0.929 . S
C656 C652 1.413 . S
C656 C657 1.348 . S
C656 H672 0.931 . S
C657 C655 1.378 . S
C657 C656 1.348 . S
C657 H673 0.930 . S
Gd658 N678 2.622 . S
Gd658 N685 2.570 . S
Gd658 O692 2.353 . S
Gd658 O693 2.468 . S
Gd658 O694 2.427 . S
Gd658 O696 2.388 . S
Gd658 O697 2.386 . S
Gd658 O701 2.307 . S
Gd658 C711 2.805 . S
Gd659 N654 2.622 . S
Gd659 N660 2.570 . S
Gd659 O691 2.386 . S
Gd659 O695 2.307 1_655 S
Gd659 O698 2.353 1_655 S
Gd659 O699 2.468 . S
Gd659 O700 2.427 . S
Gd659 O702 2.388 . S
Gd659 C723 2.805 . S
N660 C650 1.359 . S
N660 Gd659 2.570 . S
N660 C662 1.343 . S
C661 C649 1.422 . S
C661 C663 1.321 . S
C661 H669 0.931 . S
C662 N660 1.343 . S
C662 C663 1.390 . S
C662 H664 0.931 . S
C663 C661 1.321 . S
C663 C662 1.390 . S
C663 H665 0.930 . S
H664 C662 0.931 . S
H665 C663 0.930 . S
H666 C689 0.931 . S
H667 C655 0.929 . S
H668 C690 0.930 . S
H669 C661 0.931 . S
H670 C651 0.930 . S
H671 C680 0.929 . S
H672 C656 0.931 . S
H673 C657 0.930 . S
H674 C712 0.930 . S
H675 C653 0.929 . S
H676 C681 0.931 . S
H677 C682 0.930 . S
N678 Gd658 2.622 . S
N678 C679 1.369 . S
N678 C680 1.338 . S
C679 N678 1.369 . S
C679 C683 1.415 . S
C679 C686 1.422 . S
C680 H671 0.929 . S
C680 N678 1.338 . S
C680 C682 1.378 . S
C681 H676 0.931 . S
C681 C682 1.348 . S
C681 C683 1.413 . S
C682 H677 0.930 . S
C682 C680 1.378 . S
C682 C681 1.348 . S
C683 C679 1.415 . S
C683 C681 1.413 . S
C683 C713 1.437 . S
H684 C713 0.929 . S
N685 Gd658 2.570 . S
N685 C686 1.359 . S
N685 C689 1.343 . S
C686 C679 1.422 . S
C686 N685 1.359 . S
C686 C688 1.421 . S
C687 C688 1.422 . S
C687 C690 1.321 . S
C687 H714 0.931 . S
C688 C686 1.421 . S
C688 C687 1.422 . S
C688 C712 1.417 . S
C689 H666 0.931 . S
C689 N685 1.343 . S
C689 C690 1.390 . S
C690 H668 0.930 . S
C690 C687 1.321 . S
C690 C689 1.390 . S
O691 Gd659 2.386 . S
O691 C703 1.265 . S
O692 Gd658 2.353 . S
O692 C703 1.242 1_455 S
O693 Gd658 2.468 . S
O693 C711 1.263 . S
O694 Gd658 2.427 . S
O694 C711 1.252 . S
O695 Gd659 2.307 1_455 S
O695 C704 1.261 . S
O696 Gd658 2.388 . S
O696 C704 1.252 . S
O697 Gd658 2.386 . S
O697 C715 1.265 . S
O698 Gd659 2.353 1_455 S
O698 C715 1.242 . S
O699 Gd659 2.468 . S
O699 C723 1.263 . S
O700 Gd659 2.427 . S
O700 C723 1.252 . S
O701 Gd658 2.307 . S
O701 C716 1.261 1_455 S
O702 Gd659 2.388 . S
O702 C716 1.252 . S
C703 O691 1.265 . S
C703 O692 1.242 1_655 S
C704 O695 1.261 . S
C704 O696 1.252 . S
C705 C708 1.394 . S
C705 C710 1.370 . S
C705 C711 1.500 . S
C706 C709 1.383 . S
C706 C710 1.395 . S
C707 C708 1.396 . S
C707 C709 1.365 . S
C707 H724 0.929 . S
C708 C705 1.394 . S
C708 C707 1.396 . S
C708 H725 0.930 . S
C709 C706 1.383 . S
C709 C707 1.365 . S
C709 H726 0.931 . S
C710 C705 1.370 . S
C710 C706 1.395 . S
C710 H727 0.930 . S
C711 Gd658 2.805 . S
C711 O693 1.263 . S
C711 O694 1.252 . S
C711 C705 1.500 . S
C712 H674 0.930 . S
C712 C688 1.417 . S
C712 C713 1.329 . S
C713 C683 1.437 . S
C713 H684 0.929 . S
C713 C712 1.329 . S
H714 C687 0.931 . S
C715 O697 1.265 . S
C715 O698 1.242 . S
C716 O701 1.261 1_655 S
C716 O702 1.252 . S
C717 C720 1.394 . S
C717 C722 1.370 . S
C717 C723 1.500 . S
C718 C721 1.383 . S
C718 C722 1.395 . S
C719 C720 1.396 . S
C719 C721 1.365 . S
C719 H728 0.929 . S
C720 C717 1.394 . S
C720 C719 1.396 . S
C720 H729 0.930 . S
C721 C718 1.383 . S
C721 C719 1.365 . S
C721 H730 0.931 . S
C722 C717 1.370 . S
C722 C718 1.395 . S
C722 H731 0.930 . S
C723 Gd659 2.805 . S
C723 O699 1.263 . S
C723 O700 1.252 . S
C723 C717 1.500 . S
H724 C707 0.929 . S
H725 C708 0.930 . S
H726 C709 0.931 . S
H727 C710 0.930 . S
H728 C719 0.929 . S
H729 C720 0.930 . S
H730 C721 0.931 . S
H731 C722 0.930 . S
C732 C734 1.422 . S
C732 C736 1.415 . S
C732 N738 1.369 . S
C733 C734 1.421 . S
C733 C735 1.417 . S
C733 C745 1.422 . S
C734 C732 1.422 . S
C734 C733 1.421 . S
C734 N744 1.359 . S
C735 C733 1.417 . S
C735 C737 1.329 . S
C735 H754 0.930 . S
C736 C732 1.415 . S
C736 C737 1.437 . S
C736 C740 1.413 . S
C737 C735 1.329 . S
C737 C736 1.437 . S
C737 H759 0.929 . S
N738 C732 1.369 . S
N738 C739 1.338 . S
N738 Gd743 2.622 . S
C739 N738 1.338 . S
C739 C741 1.378 . S
C739 H751 0.929 . S
C740 C736 1.413 . S
C740 C741 1.348 . S
C740 H756 0.931 . S
C741 C739 1.378 . S
C741 C740 1.348 . S
C741 H757 0.930 . S
Gd742 N762 2.622 . S
Gd742 N769 2.570 . S
Gd742 O776 2.353 . S
Gd742 O777 2.468 . S
Gd742 O778 2.427 . S
Gd742 O780 2.388 . S
Gd742 O781 2.386 . S
Gd742 O785 2.307 . S
Gd742 C795 2.805 . S
Gd743 N738 2.622 . S
Gd743 N744 2.570 . S
Gd743 O775 2.386 . S
Gd743 O779 2.307 . S
Gd743 O782 2.353 . S
Gd743 O783 2.468 . S
Gd743 O784 2.427 . S
Gd743 O786 2.388 . S
Gd743 C807 2.805 . S
N744 C734 1.359 . S
N744 Gd743 2.570 . S
N744 C746 1.343 . S
C745 C733 1.422 . S
C745 C747 1.321 . S
C745 H753 0.931 . S
C746 N744 1.343 . S
C746 C747 1.390 . S
C746 H748 0.931 . S
C747 C745 1.321 . S
C747 C746 1.390 . S
C747 H749 0.930 . S
H748 C746 0.931 . S
H749 C747 0.930 . S
H750 C773 0.931 . S
H751 C739 0.929 . S
H752 C774 0.930 . S
H753 C745 0.931 . S
H754 C735 0.930 . S
H755 C764 0.929 . S
H756 C740 0.931 . S
H757 C741 0.930 . S
H758 C796 0.930 . S
H759 C737 0.929 . S
H760 C765 0.931 . S
H761 C766 0.930 . S
N762 Gd742 2.622 . S
N762 C763 1.369 . S
N762 C764 1.338 . S
C763 N762 1.369 . S
C763 C767 1.415 . S
C763 C770 1.422 . S
C764 H755 0.929 . S
C764 N762 1.338 . S
C764 C766 1.378 . S
C765 H760 0.931 . S
C765 C766 1.348 . S
C765 C767 1.413 . S
C766 H761 0.930 . S
C766 C764 1.378 . S
C766 C765 1.348 . S
C767 C763 1.415 . S
C767 C765 1.413 . S
C767 C797 1.437 . S
H768 C797 0.929 . S
N769 Gd742 2.570 . S
N769 C770 1.359 . S
N769 C773 1.343 . S
C770 C763 1.422 . S
C770 N769 1.359 . S
C770 C772 1.421 . S
C771 C772 1.422 . S
C771 C774 1.321 . S
C771 H798 0.931 . S
C772 C770 1.421 . S
C772 C771 1.422 . S
C772 C796 1.417 . S
C773 H750 0.931 . S
C773 N769 1.343 . S
C773 C774 1.390 . S
C774 H752 0.930 . S
C774 C771 1.321 . S
C774 C773 1.390 . S
O775 Gd743 2.386 . S
O775 C787 1.265 . S
O776 Gd742 2.353 . S
O776 C787 1.242 . S
O777 Gd742 2.468 . S
O777 C795 1.263 . S
O778 Gd742 2.427 . S
O778 C795 1.252 . S
O779 Gd743 2.307 . S
O779 C788 1.261 . S
O780 Gd742 2.388 . S
O780 C788 1.252 . S
O781 Gd742 2.386 . S
O781 C799 1.265 . S
O782 Gd743 2.353 . S
O782 C799 1.242 . S
O783 Gd743 2.468 . S
O783 C807 1.263 . S
O784 Gd743 2.427 . S
O784 C807 1.252 . S
O785 Gd742 2.307 . S
O785 C800 1.261 . S
O786 Gd743 2.388 . S
O786 C800 1.252 . S
C787 O775 1.265 . S
C787 O776 1.242 . S
C788 O779 1.261 . S
C788 O780 1.252 . S
C789 C792 1.394 . S
C789 C794 1.370 . S
C789 C795 1.500 . S
C790 C793 1.383 . S
C790 C794 1.395 . S
C791 C792 1.396 . S
C791 C793 1.365 . S
C791 H808 0.929 . S
C792 C789 1.394 . S
C792 C791 1.396 . S
C792 H809 0.930 . S
C793 C790 1.383 . S
C793 C791 1.365 . S
C793 H810 0.931 . S
C794 C789 1.370 . S
C794 C790 1.395 . S
C794 H811 0.930 . S
C795 Gd742 2.805 . S
C795 O777 1.263 . S
C795 O778 1.252 . S
C795 C789 1.500 . S
C796 H758 0.930 . S
C796 C772 1.417 . S
C796 C797 1.329 . S
C797 C767 1.437 . S
C797 H768 0.929 . S
C797 C796 1.329 . S
H798 C771 0.931 . S
C799 O781 1.265 . S
C799 O782 1.242 . S
C800 O785 1.261 . S
C800 O786 1.252 . S
C801 C804 1.394 . S
C801 C806 1.370 . S
C801 C807 1.500 . S
C802 C805 1.383 . S
C802 C806 1.395 . S
C803 C804 1.396 . S
C803 C805 1.365 . S
C803 H812 0.929 . S
C804 C801 1.394 . S
C804 C803 1.396 . S
C804 H813 0.930 . S
C805 C802 1.383 . S
C805 C803 1.365 . S
C805 H814 0.931 . S
C806 C801 1.370 . S
C806 C802 1.395 . S
C806 H815 0.930 . S
C807 Gd743 2.805 . S
C807 O783 1.263 . S
C807 O784 1.252 . S
C807 C801 1.500 . S
H808 C791 0.929 . S
H809 C792 0.930 . S
H810 C793 0.931 . S
H811 C794 0.930 . S
H812 C803 0.929 . S
H813 C804 0.930 . S
H814 C805 0.931 . S
H815 C806 0.930 . S
H816 C822 0.930 . S
H817 C825 0.930 . S
H818 C826 0.930 1_565 S
H819 C827 0.930 . S
H820 C830 0.930 . S
H821 C831 0.930 . S
C822 H816 0.930 . S
C822 C823 1.353 . S
C822 C824 1.415 . S
C823 C822 1.353 . S
C823 C825 1.420 1_545 S
C824 C822 1.415 . S
C824 C829 1.425 . S
C824 C831 1.409 . S
C825 H817 0.930 . S
C825 C823 1.420 1_565 S
C825 C826 1.362 1_565 S
C826 H818 0.930 1_545 S
C826 C825 1.362 1_545 S
C826 C829 1.409 . S
C827 H819 0.930 . S
C827 C828 1.355 . S
C827 C829 1.415 . S
C828 C827 1.355 . S
C828 C830 1.419 . S
C829 C824 1.425 . S
C829 C826 1.409 . S
C829 C827 1.415 . S
C830 H820 0.930 . S
C830 C828 1.419 . S
C830 C831 1.362 . S
C831 H821 0.930 . S
C831 C824 1.409 . S
C831 C830 1.362 . S
H832 C838 0.930 . S
H833 C841 0.930 . S
H834 C842 0.930 . S
H835 C843 0.930 . S
H836 C846 0.930 . S
H837 C847 0.930 . S
C838 H832 0.930 . S
C838 C839 1.355 . S
C838 C840 1.415 . S
C839 C838 1.355 . S
C839 C841 1.419 . S
C840 C838 1.415 . S
C840 C845 1.425 . S
C840 C847 1.409 . S
C841 H833 0.930 . S
C841 C839 1.419 . S
C841 C842 1.362 . S
C842 H834 0.930 . S
C842 C841 1.362 . S
C842 C845 1.409 . S
C843 H835 0.930 . S
C843 C844 1.355 . S
C843 C845 1.415 . S
C844 C843 1.355 . S
C844 C846 1.419 . S
C845 C840 1.425 . S
C845 C842 1.409 . S
C845 C843 1.415 . S
C846 H836 0.930 . S
C846 C844 1.419 . S
C846 C847 1.362 . S
C847 H837 0.930 . S
C847 C840 1.409 . S
C847 C846 1.362 . S
H848 C854 0.930 . S
H849 C857 0.930 . S
H850 C858 0.930 . S
H851 C859 0.930 . S
H852 C862 0.930 . S
H853 C863 0.930 . S
C854 H848 0.930 . S
C854 C855 1.355 . S
C854 C856 1.415 . S
C855 C854 1.355 . S
C855 C857 1.419 . S
C856 C854 1.415 . S
C856 C861 1.425 . S
C856 C863 1.409 . S
C857 H849 0.930 . S
C857 C855 1.419 . S
C857 C858 1.362 . S
C858 H850 0.930 . S
C858 C857 1.362 . S
C858 C861 1.409 . S
C859 H851 0.930 . S
C859 C860 1.355 . S
C859 C861 1.415 . S
C860 C859 1.355 . S
C860 C862 1.419 . S
C861 C856 1.425 . S
C861 C858 1.409 . S
C861 C859 1.415 . S
C862 H852 0.930 . S
C862 C860 1.419 . S
C862 C863 1.362 . S
C863 H853 0.930 . S
C863 C856 1.409 . S
C863 C862 1.362 . S
H864 C870 0.930 1_565 S
H865 C873 0.930 . S
H866 C874 0.930 . S
H867 C875 0.930 . S
H868 C878 0.930 . S
H869 C879 0.930 . S
C870 H864 0.930 1_545 S
C870 C871 1.355 . S
C870 C872 1.415 . S
C871 C870 1.355 . S
C871 C873 1.419 . S
C872 C870 1.415 . S
C872 C877 1.425 . S
C872 C879 1.409 . S
C873 H865 0.930 . S
C873 C871 1.419 . S
C873 C874 1.362 . S
C874 H866 0.930 . S
C874 C873 1.362 . S
C874 C877 1.409 . S
C875 H867 0.930 . S
C875 C876 1.355 . S
C875 C877 1.415 . S
C876 C875 1.355 . S
C876 C878 1.419 . S
C877 C872 1.425 . S
C877 C874 1.409 . S
C877 C875 1.415 . S
C878 H868 0.930 . S
C878 C876 1.419 . S
C878 C879 1.362 . S
C879 H869 0.930 . S
C879 C872 1.409 . S
C879 C878 1.362 . S
H880 C886 0.931 1_545 S
H881 C889 0.930 . S
H882 C890 0.930 . S
H883 C891 0.930 . S
H884 C894 0.930 . S
H885 C895 0.930 . S
C886 H880 0.931 1_565 S
C886 C887 1.355 . S
C886 C888 1.415 . S
C887 C886 1.355 . S
C887 C889 1.419 . S
C888 C886 1.415 . S
C888 C893 1.425 . S
C888 C895 1.409 . S
C889 H881 0.930 . S
C889 C887 1.419 . S
C889 C890 1.362 . S
C890 H882 0.930 . S
C890 C889 1.362 . S
C890 C893 1.409 . S
C891 H883 0.930 . S
C891 C892 1.355 . S
C891 C893 1.415 . S
C892 C891 1.355 . S
C892 C894 1.419 . S
C893 C888 1.425 . S
C893 C890 1.409 . S
C893 C891 1.415 . S
C894 H884 0.930 . S
C894 C892 1.419 . S
C894 C895 1.362 . S
C895 H885 0.930 . S
C895 C888 1.409 . S
C895 C894 1.362 . S
H896 C902 0.930 . S
H897 C905 0.930 . S
H898 C906 0.930 . S
H899 C907 0.930 . S
H900 C910 0.930 . S
H901 C911 0.930 . S
C902 H896 0.930 . S
C902 C903 1.355 . S
C902 C904 1.415 . S
C903 C902 1.355 . S
C903 C905 1.419 . S
C904 C902 1.415 . S
C904 C909 1.425 . S
C904 C911 1.409 . S
C905 H897 0.930 . S
C905 C903 1.419 . S
C905 C906 1.362 . S
C906 H898 0.930 . S
C906 C905 1.362 . S
C906 C909 1.409 . S
C907 H899 0.930 . S
C907 C908 1.355 . S
C907 C909 1.415 . S
C908 C907 1.355 . S
C908 C910 1.419 . S
C909 C904 1.425 . S
C909 C906 1.409 . S
C909 C907 1.415 . S
C910 H900 0.930 . S
C910 C908 1.419 . S
C910 C911 1.362 . S
C911 H901 0.930 . S
C911 C904 1.409 . S
C911 C910 1.362 . S
H912 C918 0.930 . S
H913 C921 0.930 . S
H914 C922 0.930 . S
H915 C923 0.930 . S
H916 C926 0.930 . S
H917 C927 0.930 . S
C918 H912 0.930 . S
C918 C919 1.355 . S
C918 C920 1.415 . S
C919 C918 1.355 . S
C919 C921 1.419 . S
C920 C918 1.415 . S
C920 C925 1.425 . S
C920 C927 1.409 . S
C921 H913 0.930 . S
C921 C919 1.419 . S
C921 C922 1.362 . S
C922 H914 0.930 . S
C922 C921 1.362 . S
C922 C925 1.409 . S
C923 H915 0.930 . S
C923 C924 1.355 . S
C923 C925 1.415 . S
C924 C923 1.355 . S
C924 C926 1.419 . S
C925 C920 1.425 . S
C925 C922 1.409 . S
C925 C923 1.415 . S
C926 H916 0.930 . S
C926 C924 1.419 . S
C926 C927 1.362 . S
C927 H917 0.930 . S
C927 C920 1.409 . S
C927 C926 1.362 . S
H928 C934 0.930 . S
H929 C937 0.930 1_545 S
H930 C938 0.930 . S
H931 C939 0.930 . S
H932 C942 0.930 . S
H933 C943 0.930 . S
C934 H928 0.930 . S
C934 C935 1.355 . S
C934 C936 1.415 . S
C935 C934 1.355 . S
C935 C937 1.419 . S
C936 C934 1.415 . S
C936 C941 1.425 . S
C936 C943 1.409 . S
C937 H929 0.930 1_565 S
C937 C935 1.419 . S
C937 C938 1.362 . S
C938 H930 0.930 . S
C938 C937 1.362 . S
C938 C941 1.409 . S
C939 H931 0.930 . S
C939 C940 1.355 . S
C939 C941 1.415 . S
C940 C939 1.355 . S
C940 C942 1.419 . S
C941 C936 1.425 . S
C941 C938 1.409 . S
C941 C939 1.415 . S
C942 H932 0.930 . S
C942 C940 1.419 . S
C942 C943 1.362 . S
C943 H933 0.930 . S
C943 C936 1.409 . S
C943 C942 1.362 . S
H944 C950 0.930 . S
H945 C953 0.930 . S
H946 C954 0.930 . S
H947 C955 0.930 . S
H948 C958 0.930 . S
H949 C959 0.930 . S
C950 H944 0.930 . S
C950 C951 1.355 . S
C950 C952 1.415 . S
C951 C950 1.355 . S
C951 C953 1.419 . S
C952 C950 1.415 . S
C952 C957 1.425 . S
C952 C959 1.409 . S
C953 H945 0.930 . S
C953 C951 1.419 . S
C953 C954 1.362 . S
C954 H946 0.930 . S
C954 C953 1.362 . S
C954 C957 1.409 . S
C955 H947 0.930 . S
C955 C956 1.355 . S
C955 C957 1.415 . S
C956 C955 1.355 . S
C956 C958 1.419 . S
C957 C952 1.425 . S
C957 C954 1.409 . S
C957 C955 1.415 . S
C958 H948 0.930 . S
C958 C956 1.419 . S
C958 C959 1.362 . S
C959 H949 0.930 . S
C959 C952 1.409 . S
C959 C958 1.362 . S
H960 C966 0.930 . S
H961 C969 0.930 . S
H962 C970 0.930 . S
H963 C971 0.930 . S
H964 C974 0.930 . S
H965 C975 0.930 . S
C966 H960 0.930 . S
C966 C967 1.355 . S
C966 C968 1.415 . S
C967 C966 1.355 . S
C967 C969 1.419 . S
C968 C966 1.415 . S
C968 C973 1.425 . S
C968 C975 1.409 . S
C969 H961 0.930 . S
C969 C967 1.419 . S
C969 C970 1.362 . S
C970 H962 0.930 . S
C970 C969 1.362 . S
C970 C973 1.409 . S
C971 H963 0.930 . S
C971 C972 1.355 . S
C971 C973 1.415 . S
C972 C971 1.355 . S
C972 C974 1.419 . S
C973 C968 1.425 . S
C973 C970 1.409 . S
C973 C971 1.415 . S
C974 H964 0.930 . S
C974 C972 1.419 . S
C974 C975 1.362 . S
C975 H965 0.930 . S
C975 C968 1.409 . S
C975 C974 1.362 . S
H976 C982 0.930 . S
H977 C985 0.930 . S
H978 C986 0.930 . S
H979 C987 0.930 . S
H980 C990 0.930 . S
H981 C991 0.930 . S
C982 H976 0.930 . S
C982 C983 1.355 . S
C982 C984 1.415 . S
C983 C982 1.355 . S
C983 C985 1.419 . S
C984 C982 1.415 . S
C984 C989 1.425 . S
C984 C991 1.409 . S
C985 H977 0.930 . S
C985 C983 1.419 . S
C985 C986 1.362 . S
C986 H978 0.930 . S
C986 C985 1.362 . S
C986 C989 1.409 . S
C987 H979 0.930 . S
C987 C988 1.355 . S
C987 C989 1.415 . S
C988 C987 1.355 . S
C988 C990 1.419 . S
C989 C984 1.425 . S
C989 C986 1.409 . S
C989 C987 1.415 . S
C990 H980 0.930 . S
C990 C988 1.419 . S
C990 C991 1.362 . S
C991 H981 0.930 . S
C991 C984 1.409 . S
C991 C990 1.362 . S
H992 C998 0.930 . S
H993 C1001 0.930 . S
H994 C1002 0.930 . S
H995 C1003 0.930 . S
H996 C1006 0.930 . S
H997 C1007 0.930 . S
C998 H992 0.930 . S
C998 C999 1.355 . S
C998 C1000 1.415 . S
C999 C998 1.355 . S
C999 C1001 1.419 . S
C1000 C998 1.415 . S
C1000 C1005 1.425 . S
C1000 C1007 1.409 . S
C1001 H993 0.930 . S
C1001 C999 1.419 . S
C1001 C1002 1.362 . S
C1002 H994 0.930 . S
C1002 C1001 1.362 . S
C1002 C1005 1.409 . S
C1003 H995 0.930 . S
C1003 C1004 1.355 . S
C1003 C1005 1.415 . S
C1004 C1003 1.355 . S
C1004 C1006 1.419 . S
C1005 C1000 1.425 . S
C1005 C1002 1.409 . S
C1005 C1003 1.415 . S
C1006 H996 0.930 . S
C1006 C1004 1.419 . S
C1006 C1007 1.362 . S
C1007 H997 0.930 . S
C1007 C1000 1.409 . S
C1007 C1006 1.362 . S
H1008 C1014 0.930 . S
H1009 C1017 0.930 . S
H1010 C1018 0.930 . S
H1011 C1019 0.930 . S
H1012 C1022 0.930 . S
H1013 C1023 0.930 . S
C1014 H1008 0.930 . S
C1014 C1015 1.355 . S
C1014 C1016 1.415 . S
C1015 C1014 1.355 . S
C1015 C1017 1.419 . S
C1016 C1014 1.415 . S
C1016 C1021 1.425 . S
C1016 C1023 1.409 . S
C1017 H1009 0.930 . S
C1017 C1015 1.419 . S
C1017 C1018 1.362 . S
C1018 H1010 0.930 . S
C1018 C1017 1.362 . S
C1018 C1021 1.409 . S
C1019 H1011 0.930 . S
C1019 C1020 1.355 . S
C1019 C1021 1.415 . S
C1020 C1019 1.355 . S
C1020 C1022 1.419 . S
C1021 C1016 1.425 . S
C1021 C1018 1.409 . S
C1021 C1019 1.415 . S
C1022 H1012 0.930 . S
C1022 C1020 1.419 . S
C1022 C1023 1.362 . S
C1023 H1013 0.930 . S
C1023 C1016 1.409 . S
C1023 C1022 1.362 . S
H1024 C1030 0.930 . S
H1025 C1033 0.930 . S
H1026 C1034 0.930 . S
H1027 C1035 0.930 . S
H1028 C1038 0.930 . S
H1029 C1039 0.930 . S
C1030 H1024 0.930 . S
C1030 C1031 1.355 . S
C1030 C1032 1.415 . S
C1031 C1030 1.355 . S
C1031 C1033 1.419 . S
C1032 C1030 1.415 . S
C1032 C1037 1.425 . S
C1032 C1039 1.409 . S
C1033 H1025 0.930 . S
C1033 C1031 1.419 . S
C1033 C1034 1.362 . S
C1034 H1026 0.930 . S
C1034 C1033 1.362 . S
C1034 C1037 1.409 . S
C1035 H1027 0.930 . S
C1035 C1036 1.355 . S
C1035 C1037 1.415 . S
C1036 C1035 1.355 . S
C1036 C1038 1.419 . S
C1037 C1032 1.425 . S
C1037 C1034 1.409 . S
C1037 C1035 1.415 . S
C1038 H1028 0.930 . S
C1038 C1036 1.419 . S
C1038 C1039 1.362 . S
C1039 H1029 0.930 . S
C1039 C1032 1.409 . S
C1039 C1038 1.362 . S
H1040 C1046 0.930 . S
H1041 C1049 0.930 . S
H1042 C1050 0.930 . S
H1043 C1051 0.930 . S
H1044 C1054 0.930 . S
H1045 C1055 0.930 . S
C1046 H1040 0.930 . S
C1046 C1047 1.355 . S
C1046 C1048 1.415 . S
C1047 C1046 1.355 . S
C1047 C1049 1.419 . S
C1048 C1046 1.415 . S
C1048 C1053 1.425 . S
C1048 C1055 1.409 . S
C1049 H1041 0.930 . S
C1049 C1047 1.419 . S
C1049 C1050 1.362 . S
C1050 H1042 0.930 . S
C1050 C1049 1.362 . S
C1050 C1053 1.409 . S
C1051 H1043 0.930 . S
C1051 C1052 1.355 . S
C1051 C1053 1.415 . S
C1052 C1051 1.355 . S
C1052 C1054 1.419 . S
C1053 C1048 1.425 . S
C1053 C1050 1.409 . S
C1053 C1051 1.415 . S
C1054 H1044 0.930 . S
C1054 C1052 1.419 . S
C1054 C1055 1.362 . S
C1055 H1045 0.930 . S
C1055 C1048 1.409 . S
C1055 C1054 1.362 . S
H1056 C1062 0.930 . S
H1057 C1065 0.930 . S
H1058 C1066 0.930 . S
H1059 C1067 0.930 . S
H1060 C1070 0.930 . S
H1061 C1071 0.930 . S
C1062 H1056 0.930 . S
C1062 C1063 1.355 . S
C1062 C1064 1.415 . S
C1063 C1062 1.355 . S
C1063 C1065 1.419 . S
C1064 C1062 1.415 . S
C1064 C1069 1.425 . S
C1064 C1071 1.409 . S
C1065 H1057 0.930 . S
C1065 C1063 1.419 . S
C1065 C1066 1.362 . S
C1066 H1058 0.930 . S
C1066 C1065 1.362 . S
C1066 C1069 1.409 . S
C1067 H1059 0.930 . S
C1067 C1068 1.355 . S
C1067 C1069 1.415 . S
C1068 C1067 1.355 . S
C1068 C1070 1.419 . S
C1069 C1064 1.425 . S
C1069 C1066 1.409 . S
C1069 C1067 1.415 . S
C1070 H1060 0.930 . S
C1070 C1068 1.419 . S
C1070 C1071 1.362 . S
C1071 H1061 0.930 . S
C1071 C1064 1.409 . S
C1071 C1070 1.362 . S
H1072 C1078 0.930 . S
H1073 C1081 0.930 . S
H1074 C1082 0.930 . S
H1075 C1083 0.930 . S
H1076 C1086 0.930 . S
H1077 C1087 0.930 . S
C1078 H1072 0.930 . S
C1078 C1079 1.355 . S
C1078 C1080 1.415 . S
C1079 C1078 1.355 . S
C1079 C1081 1.419 . S
C1080 C1078 1.415 . S
C1080 C1085 1.425 . S
C1080 C1087 1.409 . S
C1081 H1073 0.930 . S
C1081 C1079 1.419 . S
C1081 C1082 1.362 . S
C1082 H1074 0.930 . S
C1082 C1081 1.362 . S
C1082 C1085 1.409 . S
C1083 H1075 0.930 . S
C1083 C1084 1.355 . S
C1083 C1085 1.415 . S
C1084 C1083 1.355 . S
C1084 C1086 1.419 . S
C1085 C1080 1.425 . S
C1085 C1082 1.409 . S
C1085 C1083 1.415 . S
C1086 H1076 0.930 . S
C1086 C1084 1.419 . S
C1086 C1087 1.362 . S
C1087 H1077 0.930 . S
C1087 C1080 1.409 . S
C1087 C1086 1.362 . S
H1088 C1094 0.930 . S
H1089 C1097 0.930 . S
H1090 C1098 0.930 . S
H1091 C1099 0.930 . S
H1092 C1102 0.930 . S
H1093 C1103 0.930 . S
C1094 H1088 0.930 . S
C1094 C1095 1.355 . S
C1094 C1096 1.415 . S
C1095 C1094 1.355 . S
C1095 C1097 1.419 . S
C1096 C1094 1.415 . S
C1096 C1101 1.425 . S
C1096 C1103 1.409 . S
C1097 H1089 0.930 . S
C1097 C1095 1.419 . S
C1097 C1098 1.362 . S
C1098 H1090 0.930 . S
C1098 C1097 1.362 . S
C1098 C1101 1.409 . S
C1099 H1091 0.930 . S
C1099 C1100 1.355 . S
C1099 C1101 1.415 . S
C1100 C1099 1.355 . S
C1100 C1102 1.419 . S
C1101 C1096 1.425 . S
C1101 C1098 1.409 . S
C1101 C1099 1.415 . S
C1102 H1092 0.930 . S
C1102 C1100 1.419 . S
C1102 C1103 1.362 . S
C1103 H1093 0.930 . S
C1103 C1096 1.409 . S
C1103 C1102 1.362 . S
H1104 C1110 0.930 . S
H1105 C1113 0.930 . S
H1106 C1114 0.930 . S
H1107 C1115 0.930 . S
H1108 C1118 0.930 . S
H1109 C1119 0.930 . S
C1110 H1104 0.930 . S
C1110 C1111 1.355 . S
C1110 C1112 1.415 . S
C1111 C1110 1.355 . S
C1111 C1113 1.419 . S
C1112 C1110 1.415 . S
C1112 C1117 1.425 . S
C1112 C1119 1.409 . S
C1113 H1105 0.930 . S
C1113 C1111 1.419 . S
C1113 C1114 1.362 . S
C1114 H1106 0.930 . S
C1114 C1113 1.362 . S
C1114 C1117 1.409 . S
C1115 H1107 0.930 . S
C1115 C1116 1.355 . S
C1115 C1117 1.415 . S
C1116 C1115 1.355 . S
C1116 C1118 1.419 . S
C1117 C1112 1.425 . S
C1117 C1114 1.409 . S
C1117 C1115 1.415 . S
C1118 H1108 0.930 . S
C1118 C1116 1.419 . S
C1118 C1119 1.362 . S
C1119 H1109 0.930 . S
C1119 C1112 1.409 . S
C1119 C1118 1.362 . S
H1120 C1126 0.930 . S
H1121 C1129 0.930 . S
H1122 C1130 0.930 . S
H1123 C1131 0.930 . S
H1124 C1134 0.930 . S
H1125 C1135 0.930 . S
C1126 H1120 0.930 . S
C1126 C1127 1.355 . S
C1126 C1128 1.415 . S
C1127 C1126 1.355 . S
C1127 C1129 1.419 . S
C1128 C1126 1.415 . S
C1128 C1133 1.425 . S
C1128 C1135 1.409 . S
C1129 H1121 0.930 . S
C1129 C1127 1.419 . S
C1129 C1130 1.362 . S
C1130 H1122 0.930 . S
C1130 C1129 1.362 . S
C1130 C1133 1.409 . S
C1131 H1123 0.930 . S
C1131 C1132 1.355 . S
C1131 C1133 1.415 . S
C1132 C1131 1.355 . S
C1132 C1134 1.419 . S
C1133 C1128 1.425 . S
C1133 C1130 1.409 . S
C1133 C1131 1.415 . S
C1134 H1124 0.930 . S
C1134 C1132 1.419 . S
C1134 C1135 1.362 . S
C1135 H1125 0.930 . S
C1135 C1128 1.409 . S
C1135 C1134 1.362 . S
H1136 C1142 0.930 . S
H1137 C1145 0.930 . S
H1138 C1146 0.930 . S
H1139 C1147 0.930 . S
H1140 C1150 0.930 . S
H1141 C1151 0.930 . S
C1142 H1136 0.930 . S
C1142 C1143 1.355 . S
C1142 C1144 1.415 . S
C1143 C1142 1.355 . S
C1143 C1145 1.419 . S
C1144 C1142 1.415 . S
C1144 C1149 1.425 . S
C1144 C1151 1.409 . S
C1145 H1137 0.930 . S
C1145 C1143 1.419 . S
C1145 C1146 1.362 . S
C1146 H1138 0.930 . S
C1146 C1145 1.362 . S
C1146 C1149 1.409 . S
C1147 H1139 0.930 . S
C1147 C1148 1.355 . S
C1147 C1149 1.415 . S
C1148 C1147 1.355 . S
C1148 C1150 1.419 . S
C1149 C1144 1.425 . S
C1149 C1146 1.409 . S
C1149 C1147 1.415 . S
C1150 H1140 0.930 . S
C1150 C1148 1.419 . S
C1150 C1151 1.362 . S
C1151 H1141 0.930 . S
C1151 C1144 1.409 . S
C1151 C1150 1.362 . S
H1152 C1158 0.930 . S
H1153 C1161 0.930 . S
H1154 C1162 0.930 . S
H1155 C1163 0.930 . S
H1156 C1166 0.930 . S
H1157 C1167 0.930 . S
C1158 H1152 0.930 . S
C1158 C1159 1.355 . S
C1158 C1160 1.415 . S
C1159 C1158 1.355 . S
C1159 C1161 1.419 . S
C1160 C1158 1.415 . S
C1160 C1165 1.425 . S
C1160 C1167 1.409 . S
C1161 H1153 0.930 . S
C1161 C1159 1.419 . S
C1161 C1162 1.362 . S
C1162 H1154 0.930 . S
C1162 C1161 1.362 . S
C1162 C1165 1.409 . S
C1163 H1155 0.930 . S
C1163 C1164 1.355 . S
C1163 C1165 1.415 . S
C1164 C1163 1.355 . S
C1164 C1166 1.419 . S
C1165 C1160 1.425 . S
C1165 C1162 1.409 . S
C1165 C1163 1.415 . S
C1166 H1156 0.930 . S
C1166 C1164 1.419 . S
C1166 C1167 1.362 . S
C1167 H1157 0.930 . S
C1167 C1160 1.409 . S
C1167 C1166 1.362 . S
H1168 C1174 0.930 . S
H1169 C1177 0.930 . S
H1170 C1178 0.930 . S
H1171 C1179 0.930 . S
H1172 C1182 0.930 . S
H1173 C1183 0.930 . S
C1174 H1168 0.930 . S
C1174 C1175 1.355 . S
C1174 C1176 1.415 . S
C1175 C1174 1.355 . S
C1175 C1177 1.419 . S
C1176 C1174 1.415 . S
C1176 C1181 1.425 . S
C1176 C1183 1.409 . S
C1177 H1169 0.930 . S
C1177 C1175 1.419 . S
C1177 C1178 1.362 . S
C1178 H1170 0.930 . S
C1178 C1177 1.362 . S
C1178 C1181 1.409 . S
C1179 H1171 0.930 . S
C1179 C1180 1.355 . S
C1179 C1181 1.415 . S
C1180 C1179 1.355 . S
C1180 C1182 1.419 . S
C1181 C1176 1.425 . S
C1181 C1178 1.409 . S
C1181 C1179 1.415 . S
C1182 H1172 0.930 . S
C1182 C1180 1.419 . S
C1182 C1183 1.362 . S
C1183 H1173 0.930 . S
C1183 C1176 1.409 . S
C1183 C1182 1.362 . S
H1184 C1190 0.930 . S
H1185 C1193 0.930 . S
H1186 C1194 0.930 . S
H1187 C1195 0.930 . S
H1188 C1198 0.930 . S
H1189 C1199 0.930 . S
C1190 H1184 0.930 . S
C1190 C1191 1.355 . S
C1190 C1192 1.415 . S
C1191 C1190 1.355 . S
C1191 C1193 1.419 . S
C1192 C1190 1.415 . S
C1192 C1197 1.425 . S
C1192 C1199 1.409 . S
C1193 H1185 0.930 . S
C1193 C1191 1.419 . S
C1193 C1194 1.362 . S
C1194 H1186 0.930 . S
C1194 C1193 1.362 . S
C1194 C1197 1.409 . S
C1195 H1187 0.930 . S
C1195 C1196 1.355 . S
C1195 C1197 1.415 . S
C1196 C1195 1.355 . S
C1196 C1198 1.419 . S
C1197 C1192 1.425 . S
C1197 C1194 1.409 . S
C1197 C1195 1.415 . S
C1198 H1188 0.930 . S
C1198 C1196 1.419 . S
C1198 C1199 1.362 . S
C1199 H1189 0.930 . S
C1199 C1192 1.409 . S
C1199 C1198 1.362 . S
C823 C361 1.435 1_545 S
C828 C536 1.470 . S
C844 C620 1.443 . S
C839 C451 1.455 . S
C860 C619 1.468 . S
C855 C241 1.413 . S
C871 C331 1.451 1_545 S
C876 C535 1.474 . S
C892 C716 1.438 . S
C887 C140 1.440 1_565 S
C908 C800 1.469 . S
C903 C211 1.425 . S
C919 C20 1.454 . S
C924 C799 1.475 . S
C935 C91 1.409 1_565 S
C940 C715 1.460 . S
C956 C538 1.281 . S
C951 C80 1.436 1_554 S
C972 C622 1.301 . S
C967 C1 1.436 . S
C988 C634 1.444 . S
C983 C200 1.524 1_556 S
C1004 C550 1.448 . S
C999 C121 1.525 . S
C1020 C718 1.383 . S
C1015 C320 1.500 1_556 S
C1031 C260 1.451 . S
C1036 C802 1.265 . S
C1052 C790 1.379 . S
C1047 C440 1.520 1_554 S
C1063 C380 1.474 . S
C1068 C706 1.421 . S
C1084 C547 1.581 . S
C1079 C31 1.567 . S
C1100 C631 1.586 . S
C1095 C61 1.551 . S
C1111 C151 1.560 . S
C1116 C632 1.551 . S
C1132 C548 1.570 . S
C1127 C181 1.556 . S
C1148 C703 1.579 . S
C1143 C271 1.499 . S
C1159 C301 1.583 . S
C1164 C787 1.568 . S
C1175 C391 1.469 . S
C1180 C788 1.570 . S
C1191 C421 1.563 . S
C1196 C704 1.548 . S
