# Generated by pormake.
# Topology ant, (3,6)-cn, num edge types: 1
# Building blocks:
#     Node 0, Type 0, BuildingBlock: PAMTOO_clean_linker_0, # of connection points: 3
#     Node 1, Type 0, BuildingBlock: PAMTOO_clean_linker_0, # of connection points: 3
#     Node 2, Type 0, BuildingBlock: PAMTOO_clean_linker_0, # of connection points: 3
#     Node 3, Type 0, BuildingBlock: PAMTOO_clean_linker_0, # of connection points: 3
#     Node 4, Type 0, BuildingBlock: PAMTOO_clean_linker_0, # of connection points: 3
#     Node 5, Type 0, BuildingBlock: PAMTOO_clean_linker_0, # of connection points: 3
#     Node 6, Type 0, BuildingBlock: PAMTOO_clean_linker_0, # of connection points: 3
#     Node 7, Type 0, BuildingBlock: PAMTOO_clean_linker_0, # of connection points: 3
#     Node 8, Type 1, BuildingBlock: MIDCAF_clean_sbu_0, # of connection points: 6
#     Node 9, Type 1, BuildingBlock: MIDCAF_clean_sbu_0, # of connection points: 6
#     Node 10, Type 1, BuildingBlock: MIDCAF_clean_sbu_0, # of connection points: 6
#     Node 11, Type 1, BuildingBlock: MIDCAF_clean_sbu_0, # of connection points: 6
#     Edge 12, Type (0, 1), BuildingBlock: EZIPEK_clean_linker_0, # of connection points: 2
#     Edge 13, Type (0, 1), BuildingBlock: EZIPEK_clean_linker_0, # of connection points: 2
#     Edge 14, Type (0, 1), BuildingBlock: EZIPEK_clean_linker_0, # of connection points: 2
#     Edge 15, Type (0, 1), BuildingBlock: EZIPEK_clean_linker_0, # of connection points: 2
#     Edge 16, Type (0, 1), BuildingBlock: EZIPEK_clean_linker_0, # of connection points: 2
#     Edge 17, Type (0, 1), BuildingBlock: EZIPEK_clean_linker_0, # of connection points: 2
#     Edge 18, Type (0, 1), BuildingBlock: EZIPEK_clean_linker_0, # of connection points: 2
#     Edge 19, Type (0, 1), BuildingBlock: EZIPEK_clean_linker_0, # of connection points: 2
#     Edge 20, Type (0, 1), BuildingBlock: EZIPEK_clean_linker_0, # of connection points: 2
#     Edge 21, Type (0, 1), BuildingBlock: EZIPEK_clean_linker_0, # of connection points: 2
#     Edge 22, Type (0, 1), BuildingBlock: EZIPEK_clean_linker_0, # of connection points: 2
#     Edge 23, Type (0, 1), BuildingBlock: EZIPEK_clean_linker_0, # of connection points: 2
#     Edge 24, Type (0, 1), BuildingBlock: EZIPEK_clean_linker_0, # of connection points: 2
#     Edge 25, Type (0, 1), BuildingBlock: EZIPEK_clean_linker_0, # of connection points: 2
#     Edge 26, Type (0, 1), BuildingBlock: EZIPEK_clean_linker_0, # of connection points: 2
#     Edge 27, Type (0, 1), BuildingBlock: EZIPEK_clean_linker_0, # of connection points: 2
#     Edge 28, Type (0, 1), BuildingBlock: EZIPEK_clean_linker_0, # of connection points: 2
#     Edge 29, Type (0, 1), BuildingBlock: EZIPEK_clean_linker_0, # of connection points: 2
#     Edge 30, Type (0, 1), BuildingBlock: EZIPEK_clean_linker_0, # of connection points: 2
#     Edge 31, Type (0, 1), BuildingBlock: EZIPEK_clean_linker_0, # of connection points: 2
#     Edge 32, Type (0, 1), BuildingBlock: EZIPEK_clean_linker_0, # of connection points: 2
#     Edge 33, Type (0, 1), BuildingBlock: EZIPEK_clean_linker_0, # of connection points: 2
#     Edge 34, Type (0, 1), BuildingBlock: EZIPEK_clean_linker_0, # of connection points: 2
#     Edge 35, Type (0, 1), BuildingBlock: EZIPEK_clean_linker_0, # of connection points: 2
# Relax obj value: 0.057
# Max RMSD: 0.148
# Mean RMSD: 0.089
data_MOF--net-ant--node1-MIDCAF_clean_sbu_0--node2-PAMTOO_clean_linker_0--edge1-EZIPEK_clean_linker_0
_symmetry_space_group_name_H-M    P1
_symmetry_Int_Tables_number       1
_symmetry_cell_setting            triclinic
loop_
_symmetry_equiv_pos_as_xyz
'x, y, z'
_cell_length_a     21.075083
_cell_length_b     21.002206
_cell_length_c     51.039415
_cell_angle_alpha  85.834968
_cell_angle_beta   99.253859
_cell_angle_gamma 90.042032
loop_
_atom_site_label
_atom_site_type_symbol
_atom_site_fract_x
_atom_site_fract_y
_atom_site_fract_z
_atom_type_partial_charge
H0 H 0.19864 0.11226 0.04234 0.0
H1 H 0.19323 0.30954 0.01325 0.0
H2 H 0.26484 0.25679 0.09577 0.0
H3 H 0.1408 0.36564 0.06838 0.0
C4 C 0.17849 0.39206 0.05926 0.0
O5 O 0.23213 0.35363 0.05975 0.0
H6 H 0.15499 0.4033 0.03834 0.0
C7 C 0.20703 0.16209 0.04599 0.0
C8 C 0.23529 0.17839 0.07135 0.0
C9 C 0.19322 0.20858 0.02482 0.0
C10 C 0.20407 0.27302 0.02949 0.0
C11 C 0.22684 0.29082 0.05528 0.0
C12 C 0.24416 0.2433 0.07616 0.0
H13 H 0.21307 0.8222 0.27942 0.0
H14 H 0.00757 0.81747 0.27253 0.0
H15 H 0.1233 0.84201 0.3485 0.0
H16 H 0.0234 0.74116 0.34764 0.0
C17 C 0.98752 0.76263 0.33097 0.0
O18 O 0.00629 0.82322 0.32327 0.0
H19 H 0.98833 0.7298 0.31488 0.0
C20 C 0.17015 0.82714 0.28837 0.0
C21 C 0.17586 0.83421 0.31576 0.0
C22 C 0.1097 0.82202 0.2727 0.0
C23 C 0.05422 0.82458 0.28433 0.0
C24 C 0.05918 0.83125 0.31165 0.0
C25 C 0.11977 0.83829 0.32726 0.0
H26 H 0.71586 0.57371 0.54313 0.0
H27 H 0.70426 0.77517 0.52236 0.0
H28 H 0.72929 0.70521 0.6047 0.0
H29 H 0.62061 0.8128 0.57585 0.0
C30 C 0.65723 0.84113 0.56689 0.0
O31 O 0.71554 0.80862 0.57104 0.0
H32 H 0.63664 0.84528 0.54538 0.0
C33 C 0.72041 0.6222 0.54922 0.0
C34 C 0.7277 0.6332 0.57627 0.0
C35 C 0.71006 0.67293 0.5299 0.0
C36 C 0.71305 0.73572 0.53744 0.0
C37 C 0.72031 0.74776 0.56438 0.0
C38 C 0.72733 0.6963 0.58395 0.0
H39 H 0.72289 0.30411 0.7979 0.0
H40 H 0.52565 0.24388 0.78509 0.0
H41 H 0.60868 0.31048 0.86022 0.0
H42 H 0.51132 0.20703 0.86136 0.0
C43 C 0.48163 0.21889 0.84155 0.0
O44 O 0.5015 0.27589 0.83045 0.0
H45 H 0.48966 0.18194 0.828 0.0
C46 C 0.67682 0.29826 0.80464 0.0
C47 C 0.67299 0.30673 0.8313 0.0
C48 C 0.62485 0.27318 0.78784 0.0
C49 C 0.56614 0.26494 0.79718 0.0
C50 C 0.55932 0.2822 0.82251 0.0
C51 C 0.61288 0.3026 0.83982 0.0
H52 H 0.07009 0.83659 0.95258 0.0
H53 H 0.08224 0.64003 0.93612 0.0
H54 H 0.00837 0.78046 0.87309 0.0
H55 H 0.9559 0.61506 0.87501 0.0
C56 C 0.00572 0.6053 0.88522 0.0
O57 O 0.04054 0.66069 0.88436 0.0
H58 H 1.0009 0.58928 0.90607 0.0
C59 C 0.0607 0.79944 0.93881 0.0
C60 C 0.0364 0.8157 0.91195 0.0
C61 C 0.07699 0.73588 0.9475 0.0
C62 C 0.06817 0.68878 0.92934 0.0
C63 C 0.04209 0.7046 0.90254 0.0
C64 C 0.02546 0.76791 0.89401 0.0
H65 H 0.563 0.83691 0.19639 0.0
H66 H 0.76892 0.83591 0.20479 0.0
H67 H 0.65495 0.88251 0.12798 0.0
H68 H 0.75514 0.78179 0.13025 0.0
C69 C 0.79114 0.79836 0.14669 0.0
O70 O 0.77183 0.8565 0.15397 0.0
H71 H 0.79092 0.76062 0.16314 0.0
C72 C 0.60623 0.84551 0.1877 0.0
C73 C 0.60126 0.86252 0.16036 0.0
C74 C 0.66633 0.83669 0.20377 0.0
C75 C 0.72238 0.8453 0.19261 0.0
C76 C 0.71826 0.86038 0.16521 0.0
C77 C 0.65785 0.87145 0.14921 0.0
H78 H 0.5975 0.34713 0.45917 0.0
H79 H 0.57281 0.15164 0.43962 0.0
H80 H 0.53713 0.30345 0.3778 0.0
H81 H 0.45146 0.17788 0.36381 0.0
C82 C 0.47846 0.1516 0.38176 0.0
O83 O 0.53818 0.17886 0.3884 0.0
H84 H 0.44686 0.15923 0.39664 0.0
C85 C 0.58453 0.31245 0.44454 0.0
C86 C 0.56735 0.33332 0.41755 0.0
C87 C 0.5857 0.24695 0.45268 0.0
C88 C 0.57038 0.20221 0.43358 0.0
C89 C 0.55143 0.22256 0.4067 0.0
C90 C 0.55019 0.28802 0.3987 0.0
H91 H 0.06607 0.26821 0.70477 0.0
H92 H 0.26784 0.29986 0.70577 0.0
H93 H 0.13215 0.35943 0.63596 0.0
H94 H 0.27912 0.35774 0.62043 0.0
C95 C 0.28017 0.32326 0.63807 0.0
O96 O 0.25472 0.35333 0.6573 0.0
H97 H 0.24875 0.28407 0.63024 0.0
C98 C 0.10495 0.28531 0.69462 0.0
C99 C 0.09103 0.3121 0.6683 0.0
C100 C 0.16799 0.28269 0.70846 0.0
C101 C 0.21881 0.30245 0.6953 0.0
C102 C 0.20586 0.32969 0.6691 0.0
C103 C 0.14191 0.33646 0.65591 0.0
Zn104 Zn 0.26515 0.71259 0.14856 0.0
Zn105 Zn 0.12814 0.85502 0.08186 0.0
Zn106 Zn 0.19244 0.78352 0.1139 0.0
C107 C 0.16381 0.76198 0.05308 0.0
C108 C 0.21707 0.93433 0.10353 0.0
O109 O 0.14434 0.7771 0.14859 0.0
O110 O 0.22479 0.73865 0.17885 0.0
C111 C 0.21985 0.63415 0.10878 0.0
O112 O 0.17628 0.73516 0.07682 0.0
O113 O 0.15093 0.82091 0.0495 0.0
O114 O 0.15981 0.93889 0.09177 0.0
O115 O 0.24228 0.87855 0.11099 0.0
O116 O 0.24454 0.62963 0.1331 0.0
O117 O 0.20249 0.68941 0.09708 0.0
O118 O 0.28709 0.83215 0.12169 0.0
O119 O 0.34718 0.75231 0.14298 0.0
C120 C 0.34274 0.80807 0.13183 0.0
O121 O 0.09525 0.78875 0.12693 0.0
O122 O 0.04245 0.83177 0.08944 0.0
C123 C 0.16955 0.76403 0.17308 0.0
C124 C 0.04106 0.80213 0.11168 0.0
Zn125 Zn 0.51589 0.67993 0.32996 0.0
Zn126 Zn 0.64984 0.81361 0.39241 0.0
Zn127 Zn 0.58511 0.74517 0.36345 0.0
C128 C 0.55489 0.89335 0.37329 0.0
C129 C 0.73597 0.76644 0.36375 0.0
O130 O 0.57535 0.64693 0.38234 0.0
O131 O 0.54081 0.593 0.34726 0.0
C132 C 0.43561 0.77049 0.34564 0.0
O133 O 0.5331 0.83823 0.3666 0.0
O134 O 0.61302 0.89901 0.3833 0.0
O135 O 0.73529 0.79628 0.38423 0.0
O136 O 0.68157 0.75289 0.34979 0.0
O137 O 0.43322 0.71687 0.33585 0.0
O138 O 0.49028 0.79409 0.35511 0.0
O139 O 0.63188 0.75026 0.32836 0.0
O140 O 0.55282 0.71748 0.29871 0.0
C141 C 0.60662 0.74412 0.30401 0.0
O142 O 0.6062 0.68801 0.40085 0.0
O143 O 0.63387 0.76832 0.42581 0.0
C144 C 0.56109 0.59355 0.37193 0.0
C145 C 0.62197 0.70988 0.42378 0.0
Zn146 Zn 0.6035 0.29659 0.60217 0.0
Zn147 Zn 0.75082 0.15361 0.6511 0.0
Zn148 Zn 0.67867 0.23556 0.6251 0.0
C149 C 0.82823 0.25659 0.6386 0.0
C150 C 0.6938 0.08789 0.61054 0.0
O151 O 0.5923 0.25001 0.64565 0.0
O152 O 0.52259 0.25628 0.60844 0.0
C153 C 0.68652 0.38011 0.61877 0.0
O154 O 0.77311 0.28303 0.62981 0.0
O155 O 0.8319 0.19873 0.64736 0.0
O156 O 0.73086 0.07695 0.63234 0.0
O157 O 0.67168 0.145 0.60331 0.0
O158 O 0.63101 0.37028 0.62415 0.0
O159 O 0.72036 0.33106 0.61544 0.0
O160 O 0.64986 0.19676 0.58565 0.0
O161 O 0.62663 0.29269 0.56614 0.0
C162 C 0.63785 0.2344 0.56429 0.0
O163 O 0.64741 0.22626 0.66449 0.0
O164 O 0.72002 0.15669 0.68541 0.0
C165 C 0.53336 0.25233 0.6335 0.0
C166 C 0.67482 0.19546 0.68613 0.0
Zn167 Zn 0.98892 0.1716 0.82594 0.0
Zn168 Zn 0.18515 0.26354 0.9162 0.0
Zn169 Zn 0.06771 0.21539 0.86494 0.0
C170 C 0.12341 0.15291 0.91581 0.0
C171 C 0.08343 0.35457 0.87985 0.0
O172 O 0.12028 0.21364 0.83174 0.0
O173 O 0.04096 0.20309 0.79829 0.0
C174 C 0.0139 0.07376 0.86512 0.0
O175 O 0.06989 0.15051 0.90043 0.0
O176 O 0.16892 0.17573 0.90542 0.0
O177 O 0.13162 0.33745 0.89716 0.0
O178 O 0.04342 0.31305 0.86978 0.0
O179 O 0.99677 0.08015 0.84019 0.0
O180 O 0.03561 0.12135 0.87809 0.0
O181 O 0.98417 0.28072 0.86305 0.0
O182 O 0.91823 0.22174 0.83697 0.0
C183 C 0.92668 0.26586 0.85275 0.0
O184 O 0.16708 0.22704 0.85431 0.0
O185 O 0.24141 0.25037 0.88915 0.0
C186 C 0.09954 0.21333 0.80669 0.0
C187 C 0.22583 0.23825 0.86489 0.0
C188 C 0.18291 0.46033 0.09861 0.0
C189 C 0.19631 0.45379 0.07261 0.0
C190 C 0.23225 0.56571 0.07083 0.0
C191 C 0.20834 0.5742 0.09486 0.0
N192 N 0.14656 0.53202 0.12807 0.0
N193 N 0.23458 0.50099 0.03349 0.0
C194 C 0.17953 0.52216 0.10772 0.0
C195 C 0.22119 0.50681 0.05853 0.0
N196 N 0.1756 0.40753 0.11509 0.0
N197 N 0.26867 0.61216 0.06058 0.0
H198 H 0.23412 0.45747 0.02487 0.0
H199 H 0.24382 0.53988 0.02085 0.0
H200 H 0.27953 0.65491 0.06939 0.0
H201 H 0.29285 0.60629 0.04465 0.0
H202 H 0.17082 0.41011 0.135 0.0
H203 H 0.18287 0.36118 0.11001 0.0
H204 H 0.11991 0.49643 0.13645 0.0
H205 H 0.13952 0.57721 0.13443 0.0
C206 C 0.91593 0.77382 0.36583 0.0
C207 C 0.92139 0.76464 0.33904 0.0
C208 C 0.80725 0.737 0.33022 0.0
C209 C 0.80033 0.75251 0.35611 0.0
N210 N 0.85569 0.74816 0.40147 0.0
N211 N 0.86746 0.75399 0.294 0.0
C212 C 0.8569 0.76042 0.37489 0.0
C213 C 0.86568 0.75111 0.32068 0.0
N214 N 0.96618 0.79785 0.38246 0.0
N215 N 0.76244 0.70049 0.31622 0.0
H216 H 0.90805 0.768 0.28588 0.0
H217 H 0.82629 0.75002 0.27985 0.0
H218 H 0.726 0.67825 0.32492 0.0
H219 H 0.76859 0.68275 0.29823 0.0
H220 H 0.96218 0.81134 0.40138 0.0
H221 H 0.00947 0.8113 0.37636 0.0
H222 H 0.89673 0.74772 0.41592 0.0
H223 H 0.81571 0.72862 0.40864 0.0
C224 C 0.65684 0.55162 0.5919 0.0
C225 C 0.71914 0.57713 0.59463 0.0
C226 C 0.76183 0.47578 0.61761 0.0
C227 C 0.70122 0.44709 0.6099 0.0
N228 N 0.59706 0.45733 0.58135 0.0
N229 N 0.83301 0.56321 0.6088 0.0
C230 C 0.65006 0.48497 0.59487 0.0
C231 C 0.77248 0.53921 0.60727 0.0
N232 N 0.60429 0.59085 0.58495 0.0
N233 N 0.80802 0.44374 0.63535 0.0
H234 H 0.84135 0.61037 0.60239 0.0
H235 H 0.87438 0.53556 0.61523 0.0
H236 H 0.79955 0.39892 0.64398 0.0
H237 H 0.85135 0.46403 0.6433 0.0
H238 H 0.5574 0.57445 0.58439 0.0
H239 H 0.60822 0.64041 0.58266 0.0
H240 H 0.56133 0.48356 0.56855 0.0
H241 H 0.59305 0.40827 0.5798 0.0
C242 C 0.77631 0.35987 0.84848 0.0
C243 C 0.73476 0.30698 0.85015 0.0
C244 C 0.827 0.23974 0.87063 0.0
C245 C 0.86805 0.28782 0.86258 0.0
N246 N 0.88491 0.39981 0.85967 0.0
N247 N 0.7191 0.19783 0.86637 0.0
C248 C 0.84376 0.35031 0.8563 0.0
C249 C 0.7594 0.24788 0.86333 0.0
N250 N 0.75134 0.4178 0.83797 0.0
N251 N 0.85382 0.18599 0.88475 0.0
H252 H 0.66928 0.20201 0.86204 0.0
H253 H 0.73483 0.15137 0.87249 0.0
H254 H 0.90363 0.18071 0.89011 0.0
H255 H 0.82764 0.15013 0.89312 0.0
H256 H 0.77945 0.45661 0.83345 0.0
H257 H 0.70181 0.42591 0.83316 0.0
H258 H 0.87059 0.44758 0.85704 0.0
H259 H 0.932 0.39115 0.86911 0.0
C260 C 0.00639 0.51563 0.85386 0.0
C261 C 0.03986 0.55155 0.87431 0.0
C262 C 0.12165 0.4673 0.88385 0.0
C263 C 0.07588 0.42462 0.87188 0.0
N264 N 1.00247 0.41711 0.83105 0.0
N265 N 0.14091 0.56634 0.90387 0.0
C266 C 0.02626 0.45123 0.85215 0.0
C267 C 0.10145 0.52938 0.88756 0.0
N268 N 0.95632 0.54295 0.83638 0.0
N269 N 0.1855 0.45114 0.88878 0.0
H270 H 0.13795 0.6157 0.9027 0.0
H271 H 0.17923 0.54736 0.91774 0.0
H272 H 0.20305 0.40991 0.88208 0.0
H273 H 0.2216 0.48275 0.89553 0.0
H274 H 0.92496 0.5177 0.82315 0.0
H275 H 0.94734 0.59202 0.8347 0.0
H276 H 0.96787 0.43435 0.81526 0.0
H277 H 0.02259 0.37345 0.82802 0.0
C278 C 0.86163 0.81947 0.11123 0.0
C279 C 0.85703 0.80276 0.13824 0.0
C280 C 0.97006 0.76817 0.14636 0.0
C281 C 0.97633 0.79004 0.12003 0.0
N282 N 0.9179 0.79989 0.07506 0.0
N283 N 0.91235 0.77767 0.1831 0.0
C284 C 0.91926 0.80575 0.10164 0.0
C285 C 0.91288 0.7821 0.15632 0.0
N286 N 0.81163 0.85016 0.09479 0.0
N287 N 0.01389 0.72595 0.16045 0.0
H288 H 0.87268 0.79111 0.19136 0.0
H289 H 0.9538 0.76817 0.19703 0.0
H290 H 0.04909 0.70481 0.15166 0.0
H291 H 0.008 0.70363 0.17881 0.0
H292 H 0.81515 0.86898 0.07562 0.0
H293 H 0.76937 0.86336 0.10127 0.0
H294 H 0.87618 0.80576 0.06104 0.0
H295 H 0.95546 0.77872 0.06766 0.0
C296 C 0.5184 0.44432 0.41164 0.0
C297 C 0.56964 0.40268 0.40885 0.0
C298 C 0.62098 0.49018 0.38562 0.0
C299 C 0.56943 0.53153 0.38817 0.0
N300 N 0.47684 0.55319 0.4083 0.0
N301 N 0.67625 0.38852 0.39869 0.0
C302 C 0.52078 0.51025 0.40285 0.0
C303 C 0.62304 0.4265 0.39752 0.0
N304 N 0.46616 0.42016 0.4216 0.0
N305 N 0.66717 0.51155 0.37123 0.0
H306 H 0.67921 0.34164 0.40713 0.0
H307 H 0.71935 0.40465 0.39328 0.0
H308 H 0.66944 0.55898 0.36379 0.0
H309 H 0.70158 0.48207 0.36565 0.0
H310 H 0.42403 0.44606 0.42148 0.0
H311 H 0.46313 0.37245 0.42851 0.0
H312 H 0.44389 0.54252 0.42109 0.0
H313 H 0.47678 0.60139 0.40172 0.0
C314 C 1.00021 0.28236 0.63204 0.0
C315 C 0.02219 0.31583 0.65501 0.0
C316 C 0.91159 0.32426 0.6636 0.0
C317 C 0.88944 0.29197 0.64049 0.0
N318 N 0.90938 0.2567 0.59884 0.0
N319 N 0.99574 0.38824 0.68629 0.0
C320 C 0.93281 0.27745 0.62323 0.0
C321 C 0.97656 0.34389 0.66846 0.0
N322 N 0.04276 0.25064 0.61997 0.0
N323 N 0.87228 0.3319 0.682 0.0
H324 H 0.04305 0.40427 0.68985 0.0
H325 H 0.96348 0.41355 0.69521 0.0
H326 H 0.82429 0.31786 0.67926 0.0
H327 H 0.88862 0.34849 0.70063 0.0
H328 H 0.02852 0.21986 0.60505 0.0
H329 H 0.09226 0.25056 0.62622 0.0
H330 H 0.93805 0.25013 0.5844 0.0
H331 H 0.86012 0.25239 0.59226 0.0
C332 C 0.39989 0.34701 0.65086 0.0
C333 C 0.34963 0.30154 0.64772 0.0
C334 C 0.42826 0.21677 0.64612 0.0
C335 C 0.47735 0.26294 0.64697 0.0
N336 N 0.51484 0.36499 0.66102 0.0
N337 N 0.32124 0.19121 0.65516 0.0
C338 C 0.4648 0.3257 0.65326 0.0
C339 C 0.36557 0.23553 0.64968 0.0
N340 N 0.38572 0.41067 0.64998 0.0
N341 N 0.44119 0.15564 0.64101 0.0
H342 H 0.27662 0.2041 0.65965 0.0
H343 H 0.33167 0.14254 0.65848 0.0
H344 H 0.48757 0.14026 0.63963 0.0
H345 H 0.40571 0.12147 0.63711 0.0
H346 H 0.41981 0.44622 0.64875 0.0
H347 H 0.33921 0.42839 0.64907 0.0
H348 H 0.50901 0.40987 0.6678 0.0
H349 H 0.56253 0.34938 0.66362 0.0
C350 C 0.48975 0.90855 0.15036 0.0
C351 C 0.53574 0.86517 0.14402 0.0
C352 C 0.44876 0.81015 0.11721 0.0
C353 C 0.40363 0.8418 0.12955 0.0
N354 N 0.37931 0.92456 0.15675 0.0
N355 N 0.55831 0.77243 0.12128 0.0
C356 C 0.42322 0.89337 0.14523 0.0
C357 C 0.51537 0.8164 0.12672 0.0
N358 N 0.51029 0.96308 0.16194 0.0
N359 N 0.42732 0.77239 0.09701 0.0
H360 H 0.60748 0.77374 0.12816 0.0
H361 H 0.54446 0.73166 0.11145 0.0
H362 H 0.37835 0.76747 0.08991 0.0
H363 H 0.45767 0.75187 0.08566 0.0
H364 H 0.47928 0.99908 0.16532 0.0
H365 H 0.55893 0.97471 0.16576 0.0
H366 H 0.39171 0.95775 0.17084 0.0
H367 H 0.33031 0.91483 0.15308 0.0
C368 C 0.38582 0.28134 0.85171 0.0
C369 C 0.41099 0.22302 0.84488 0.0
C370 C 0.30419 0.17464 0.84525 0.0
C371 C 0.27962 0.23492 0.84972 0.0
N372 N 0.29136 0.34851 0.84842 0.0
N373 N 0.39259 0.11203 0.83544 0.0
C374 C 0.31864 0.28929 0.84948 0.0
C375 C 0.36952 0.16918 0.84135 0.0
N376 N 0.42574 0.32705 0.86268 0.0
N377 N 0.26662 0.12185 0.84683 0.0
H378 H 0.44125 0.10049 0.83761 0.0
H379 H 0.36293 0.0754 0.82823 0.0
H380 H 0.21815 0.12463 0.8486 0.0
H381 H 0.2837 0.07518 0.84751 0.0
H382 H 0.40876 0.36819 0.86964 0.0
H383 H 0.47512 0.31987 0.86839 0.0
H384 H 0.3172 0.39046 0.8464 0.0
H385 H 0.24165 0.35483 0.84662 0.0
C386 C 0.26169 0.7756 0.34913 0.0
C387 C 0.24154 0.83063 0.3319 0.0
C388 C 0.35411 0.85916 0.33085 0.0
C389 C 0.37362 0.80248 0.34689 0.0
N390 N 0.34901 0.72187 0.37944 0.0
N391 N 0.2674 0.93488 0.31407 0.0
C392 C 0.32813 0.7664 0.35902 0.0
C393 C 0.28766 0.87621 0.32564 0.0
N394 N 0.21886 0.72918 0.35416 0.0
N395 N 0.39786 0.89381 0.31896 0.0
H396 H 0.21881 0.94798 0.31017 0.0
H397 H 0.29863 0.97204 0.31084 0.0
H398 H 0.44672 0.88242 0.32229 0.0
H399 H 0.38528 0.93155 0.30467 0.0
H400 H 0.23282 0.68496 0.36397 0.0
H401 H 0.16987 0.73226 0.34684 0.0
H402 H 0.31818 0.69743 0.39059 0.0
H403 H 0.39782 0.71472 0.38691 0.0
C404 C 0.68997 0.95868 0.56181 0.0
C405 C 0.66575 0.90741 0.57724 0.0
C406 C 0.64233 0.98252 0.60896 0.0
C407 C 0.67276 0.03191 0.59545 0.0
N408 N 0.73065 0.06723 0.56025 0.0
N409 N 0.63886 0.86921 0.61997 0.0
C410 C 0.69727 0.02039 0.57196 0.0
C411 C 0.64735 0.91887 0.60206 0.0
N412 N 0.70707 0.94832 0.53773 0.0
N413 N 0.609 0.99664 0.6287 0.0
H414 H 0.64858 0.82177 0.61715 0.0
H415 H 0.63065 0.87571 0.6392 0.0
H416 H 0.60386 0.04328 0.63396 0.0
H417 H 0.581 0.96336 0.63768 0.0
H418 H 0.71645 0.98496 0.52407 0.0
H419 H 0.71001 0.90311 0.53084 0.0
H420 H 0.75646 0.06009 0.54494 0.0
H421 H 0.73541 0.11304 0.56691 0.0
C422 C 0.30346 0.08155 0.08508 0.0
C423 C 0.25732 0.12462 0.09143 0.0
C424 C 0.22186 0.04051 0.12113 0.0
C425 C 0.252 0.99491 0.10801 0.0
N426 N 0.33002 0.9707 0.08056 0.0
N427 N 0.17758 0.14775 0.11842 0.0
C428 C 0.29735 0.01502 0.09162 0.0
C429 C 0.21946 0.10551 0.11109 0.0
N430 N 0.35032 0.10461 0.0715 0.0
N431 N 0.19319 0.02032 0.14231 0.0
H432 H 0.17576 0.1959 0.11175 0.0
H433 H 0.14324 0.13463 0.13031 0.0
H434 H 0.19588 0.9725 0.14959 0.0
H435 H 0.17323 0.05107 0.15397 0.0
H436 H 0.38786 0.07673 0.0674 0.0
H437 H 0.35421 0.15341 0.06647 0.0
H438 H 0.3584 0.98199 0.066 0.0
H439 H 0.32689 0.92192 0.08556 0.0
C440 C 0.47996 0.03213 0.39742 0.0
C441 C 0.4874 0.08113 0.3772 0.0
C442 C 0.52256 0.9993 0.35006 0.0
C443 C 0.51409 0.95162 0.37017 0.0
N444 N 0.46664 0.91887 0.40843 0.0
N445 N 0.51035 0.10973 0.33272 0.0
C446 C 0.48596 0.96701 0.39215 0.0
C447 C 0.50628 0.06407 0.35289 0.0
N448 N 0.4723 0.04697 0.42239 0.0
N449 N 0.54974 0.98262 0.32891 0.0
H450 H 0.50724 0.15858 0.33458 0.0
H451 H 0.51475 0.09921 0.31347 0.0
H452 H 0.55785 0.93504 0.32565 0.0
H453 H 0.5661 0.01514 0.31521 0.0
H454 H 0.47353 0.01281 0.43832 0.0
H455 H 0.47201 0.09313 0.42845 0.0
H456 H 0.44016 0.92661 0.4235 0.0
H457 H 0.47119 0.87089 0.40484 0.0
C458 C 0.08665 0.91591 0.89609 0.0
C459 C 0.03068 0.8835 0.90175 0.0
C460 C 0.96469 0.97911 0.88636 0.0
C461 C 0.01963 0.00938 0.87868 0.0
N462 N 0.13156 1.00698 0.87378 0.0
N463 N 0.91629 0.88096 0.90148 0.0
C464 C 0.08043 0.97813 0.8831 0.0
C465 C 0.96957 0.91429 0.89675 0.0
N466 N 0.14579 0.88714 0.90322 0.0
N467 N 0.90846 0.013 0.88418 0.0
H468 H 0.91869 0.83433 0.91019 0.0
H469 H 0.86941 0.89794 0.89566 0.0
H470 H 0.90335 0.06018 0.87616 0.0
H471 H 0.86816 0.99627 0.89181 0.0
H472 H 0.18901 0.91091 0.90286 0.0
H473 H 0.15235 0.84002 0.91113 0.0
H474 H 0.17515 0.98411 0.87342 0.0
H475 H 0.12943 0.05316 0.86464 0.0
C476 C 0.20648 0.14609 0.98575 0.0
C477 C 0.1693 0.18882 -0.00241 0.0
C478 C 0.0925 0.20201 0.95605 0.0
C479 C 0.1278 0.15597 0.94491 0.0
N480 N 0.20651 0.07089 0.95201 0.0
N481 N 0.06731 0.24206 -0.00348 0.0
C482 C 0.1805 0.12322 0.96091 0.0
C483 C 0.1091 0.21181 0.98356 0.0
N484 N 0.26822 0.13058 -0.00279 0.0
N485 N 0.04631 0.23956 0.94039 0.0
H486 H 0.07718 0.24879 0.01682 0.0
H487 H 0.02039 0.25437 0.98773 0.0
H488 H 0.03202 0.23532 0.92015 0.0
H489 H 0.02545 0.27879 0.94725 0.0
H490 H 0.29906 0.10434 0.98797 0.0
H491 H 0.2911 0.14965 0.0145 0.0
H492 H 0.24169 0.04195 0.96383 0.0
H493 H 0.18785 0.05279 0.93386 0.0
C494 C 0.09935 0.85351 0.224 0.0
C495 C 0.10622 0.8048 0.24494 0.0
C496 C 0.12878 0.72635 0.21445 0.0
C497 C 0.13493 0.77706 0.19516 0.0
N498 N 0.12407 0.88921 0.18063 0.0
N499 N 0.12278 0.69407 0.26055 0.0
C500 C 0.11793 0.84061 0.19933 0.0
C501 C 0.11844 0.74067 0.24016 0.0
N502 N 0.07603 0.91214 0.22797 0.0
N503 N 0.13209 0.6646 0.20787 0.0
H504 H 0.11189 0.7023 0.27926 0.0
H505 H 0.13968 0.64798 0.25939 0.0
H506 H 0.13825 0.65303 0.18888 0.0
H507 H 0.12251 0.62519 0.22014 0.0
H508 H 0.06381 0.94806 0.21284 0.0
H509 H 0.06354 0.92306 0.24611 0.0
H510 H 0.12029 0.93731 0.18387 0.0
H511 H 0.13633 0.88199 0.16213 0.0
C512 C 0.72411 0.64635 0.48405 0.0
C513 C 0.68298 0.66032 0.5023 0.0
C514 C 0.59091 0.67275 0.46649 0.0
C515 C 0.63379 0.66791 0.44821 0.0
N516 N 0.73305 0.62851 0.43816 0.0
N517 N 0.57538 0.66648 0.51266 0.0
C518 C 0.69768 0.64625 0.45667 0.0
C519 C 0.61539 0.66614 0.49408 0.0
N520 N 0.78844 0.63702 0.49273 0.0
N521 N 0.52799 0.68816 0.45713 0.0
H522 H 0.59223 0.66252 0.53307 0.0
H523 H 0.52547 0.6661 0.50807 0.0
H524 H 0.50966 0.69045 0.4368 0.0
H525 H 0.4947 0.69979 0.46906 0.0
H526 H 0.82218 0.63281 0.48013 0.0
H527 H 0.80865 0.63579 0.51281 0.0
H528 H 0.77919 0.60898 0.44282 0.0
H529 H 0.71332 0.62855 0.41804 0.0
C530 C 0.58794 0.25823 0.73855 0.0
C531 C 0.6348 0.24915 0.76192 0.0
C532 C 0.70984 0.21057 0.73497 0.0
C533 C 0.66006 0.21046 0.71255 0.0
N534 N 0.54537 0.20703 0.69897 0.0
N535 N 0.7298 0.18742 0.78234 0.0
C536 C 0.59692 0.22641 0.71593 0.0
C537 C 0.69256 0.21592 0.76026 0.0
N538 N 0.53679 0.29875 0.73713 0.0
N539 N 0.77338 0.20945 0.7325 0.0
H540 H 0.71535 0.18396 0.80101 0.0
H541 H 0.77057 0.16027 0.78116 0.0
H542 H 0.78967 0.21439 0.71425 0.0
H543 H 0.80972 0.21287 0.74883 0.0
H544 H 0.50407 0.30776 0.71958 0.0
H545 H 0.53178 0.32865 0.75212 0.0
H546 H 0.49833 0.21407 0.70226 0.0
H547 H 0.55069 0.17654 0.6842 0.0
C548 C 0.17368 0.7361 0.98291 0.0
C549 C 0.10827 0.72004 0.97532 0.0
C550 C 0.09857 0.69396 0.02195 0.0
C551 C 0.15737 0.72535 0.02931 0.0
N552 N 0.25673 0.76653 0.01854 0.0
N553 N 0.00912 0.67778 0.98679 0.0
C554 C 0.19751 0.74186 0.01027 0.0
C555 C 0.07132 0.69551 -0.00542 0.0
N556 N 0.21205 0.74666 0.96388 0.0
N557 N 0.06828 0.6649 0.04124 0.0
H558 H 0.98824 0.67726 0.96684 0.0
H559 H 0.97724 0.66637 -3e-05 0.0
H560 H 0.08812 0.66336 0.06136 0.0
H561 H 0.0273 0.6373 0.03728 0.0
H562 H 0.26121 0.75476 0.96809 0.0
H563 H 0.1953 0.74228 0.94372 0.0
H564 H 0.28642 0.7864 0.00576 0.0
H565 H 0.27544 0.76799 0.03872 0.0
C566 C 0.66235 0.85656 0.25121 0.0
C567 C 0.66905 0.81286 0.23194 0.0
C568 C 0.65101 0.72281 0.26294 0.0
C569 C 0.63982 0.76671 0.28165 0.0
N570 N 0.64978 0.87352 0.29658 0.0
N571 N 0.68552 0.70528 0.22083 0.0
C572 C 0.65111 0.83299 0.27688 0.0
C573 C 0.66889 0.7461 0.23837 0.0
N574 N 0.66332 0.9207 0.24435 0.0
N575 N 0.64297 0.6589 0.26858 0.0
H576 H 0.6975 0.72092 0.20241 0.0
H577 H 0.69217 0.65634 0.22511 0.0
H578 H 0.6358 0.63978 0.28731 0.0
H579 H 0.64193 0.62475 0.25474 0.0
H580 H 0.6504 0.95564 0.25601 0.0
H581 H 0.67454 0.93925 0.22614 0.0
H582 H 0.66414 0.92089 0.29527 0.0
H583 H 0.63865 0.85917 0.31521 0.0
C584 C 0.55615 0.20372 0.49652 0.0
C585 C 0.60394 0.22574 0.48139 0.0
C586 C 0.68251 0.22962 0.52224 0.0
C587 C 0.63356 0.21205 0.53729 0.0
N588 N 0.5316 0.16319 0.53962 0.0
N589 N 0.71599 0.24166 0.47877 0.0
C590 C 0.5731 0.19196 0.52459 0.0
C591 C 0.6685 0.2325 0.49396 0.0
N592 N 0.49386 0.19829 0.48437 0.0
N593 N 0.74135 0.24644 0.53516 0.0
H594 H 0.70685 0.24361 0.45801 0.0
H595 H 0.76473 0.24195 0.48659 0.0
H596 H 0.7534 0.24123 0.55587 0.0
H597 H 0.77715 0.26716 0.52561 0.0
H598 H 0.45563 0.18943 0.49469 0.0
H599 H 0.47935 0.2067 0.46391 0.0
H600 H 0.48858 0.14256 0.53158 0.0
H601 H 0.54358 0.15457 0.56022 0.0
C602 C 0.17338 0.19753 0.74562 0.0
C603 C 0.1779 0.26299 0.73734 0.0
C604 C 0.15483 0.29394 0.7802 0.0
C605 C 0.14234 0.22904 0.787 0.0
N606 N 0.15823 0.11818 0.78123 0.0
N607 N 0.19251 0.37184 0.74878 0.0
C608 C 0.15838 0.1804 0.77137 0.0
C609 C 0.17598 0.31062 0.75554 0.0
N610 N 0.18002 0.1525 0.7282 0.0
N611 N 0.14193 0.33968 0.79642 0.0
H612 H 0.20693 0.38542 0.7306 0.0
H613 H 0.19708 0.40807 0.76179 0.0
H614 H 0.12855 0.32862 0.815 0.0
H615 H 0.1424 0.38852 0.79133 0.0
H616 H 0.17056 0.10425 0.73163 0.0
H617 H 0.19395 0.16423 0.70974 0.0
H618 H 0.17329 0.08001 0.77177 0.0
H619 H 0.14772 0.10542 0.80021 0.0
loop_
_geom_bond_atom_site_label_1
_geom_bond_atom_site_label_2
_geom_bond_distance
_geom_bond_site_symmetry_2
_ccdc_geom_bond_type
H0 C7 0.929 . S
H1 C10 0.930 . S
H2 C12 0.929 . S
H3 C4 0.969 . S
C4 H3 0.969 . S
C4 O5 1.550 . S
C4 H6 0.973 . S
O5 C4 1.550 . S
O5 C11 1.412 . S
H6 C4 0.973 . S
C7 H0 0.929 . S
C7 C8 1.400 . S
C7 C9 1.364 . S
C8 C7 1.400 . S
C8 C12 1.377 . S
C9 C7 1.364 . S
C9 C10 1.374 . S
C10 H1 0.930 . S
C10 C9 1.374 . S
C10 C11 1.383 . S
C11 O5 1.412 . S
C11 C10 1.383 . S
C11 C12 1.394 . S
C12 H2 0.929 . S
C12 C8 1.377 . S
C12 C11 1.394 . S
H13 C20 0.929 . S
H14 C23 0.930 . S
H15 C25 0.929 . S
H16 C17 0.969 . S
C17 H16 0.969 . S
C17 O18 1.550 1_655 S
C17 H19 0.973 . S
O18 C17 1.550 1_455 S
O18 C24 1.412 . S
H19 C17 0.973 . S
C20 H13 0.929 . S
C20 C21 1.400 . S
C20 C22 1.364 . S
C21 C20 1.400 . S
C21 C25 1.377 . S
C22 C20 1.364 . S
C22 C23 1.374 . S
C23 H14 0.930 . S
C23 C22 1.374 . S
C23 C24 1.383 . S
C24 O18 1.412 . S
C24 C23 1.383 . S
C24 C25 1.394 . S
C25 H15 0.929 . S
C25 C21 1.377 . S
C25 C24 1.394 . S
H26 C33 0.929 . S
H27 C36 0.930 . S
H28 C38 0.929 . S
H29 C30 0.969 . S
C30 H29 0.969 . S
C30 O31 1.550 . S
C30 H32 0.973 . S
O31 C30 1.550 . S
O31 C37 1.412 . S
H32 C30 0.973 . S
C33 H26 0.929 . S
C33 C34 1.400 . S
C33 C35 1.364 . S
C34 C33 1.400 . S
C34 C38 1.377 . S
C35 C33 1.364 . S
C35 C36 1.374 . S
C36 H27 0.930 . S
C36 C35 1.374 . S
C36 C37 1.383 . S
C37 O31 1.412 . S
C37 C36 1.383 . S
C37 C38 1.394 . S
C38 H28 0.929 . S
C38 C34 1.377 . S
C38 C37 1.394 . S
H39 C46 0.929 . S
H40 C49 0.930 . S
H41 C51 0.929 . S
H42 C43 0.969 . S
C43 H42 0.969 . S
C43 O44 1.550 . S
C43 H45 0.973 . S
O44 C43 1.550 . S
O44 C50 1.412 . S
H45 C43 0.973 . S
C46 H39 0.929 . S
C46 C47 1.400 . S
C46 C48 1.364 . S
C47 C46 1.400 . S
C47 C51 1.377 . S
C48 C46 1.364 . S
C48 C49 1.374 . S
C49 H40 0.930 . S
C49 C48 1.374 . S
C49 C50 1.383 . S
C50 O44 1.412 . S
C50 C49 1.383 . S
C50 C51 1.394 . S
C51 H41 0.929 . S
C51 C47 1.377 . S
C51 C50 1.394 . S
H52 C59 0.929 . S
H53 C62 0.930 . S
H54 C64 0.929 . S
H55 C56 0.969 1_655 S
C56 H55 0.969 1_455 S
C56 O57 1.550 . S
C56 H58 0.973 . S
O57 C56 1.550 . S
O57 C63 1.412 . S
H58 C56 0.973 . S
C59 H52 0.929 . S
C59 C60 1.400 . S
C59 C61 1.364 . S
C60 C59 1.400 . S
C60 C64 1.377 . S
C61 C59 1.364 . S
C61 C62 1.374 . S
C62 H53 0.930 . S
C62 C61 1.374 . S
C62 C63 1.383 . S
C63 O57 1.412 . S
C63 C62 1.383 . S
C63 C64 1.394 . S
C64 H54 0.929 . S
C64 C60 1.377 . S
C64 C63 1.394 . S
H65 C72 0.929 . S
H66 C75 0.930 . S
H67 C77 0.929 . S
H68 C69 0.969 . S
C69 H68 0.969 . S
C69 O70 1.550 . S
C69 H71 0.973 . S
O70 C69 1.550 . S
O70 C76 1.412 . S
H71 C69 0.973 . S
C72 H65 0.929 . S
C72 C73 1.400 . S
C72 C74 1.364 . S
C73 C72 1.400 . S
C73 C77 1.377 . S
C74 C72 1.364 . S
C74 C75 1.374 . S
C75 H66 0.930 . S
C75 C74 1.374 . S
C75 C76 1.383 . S
C76 O70 1.412 . S
C76 C75 1.383 . S
C76 C77 1.394 . S
C77 H67 0.929 . S
C77 C73 1.377 . S
C77 C76 1.394 . S
H78 C85 0.929 . S
H79 C88 0.930 . S
H80 C90 0.929 . S
H81 C82 0.969 . S
C82 H81 0.969 . S
C82 O83 1.550 . S
C82 H84 0.973 . S
O83 C82 1.550 . S
O83 C89 1.412 . S
H84 C82 0.973 . S
C85 H78 0.929 . S
C85 C86 1.400 . S
C85 C87 1.364 . S
C86 C85 1.400 . S
C86 C90 1.377 . S
C87 C85 1.364 . S
C87 C88 1.374 . S
C88 H79 0.930 . S
C88 C87 1.374 . S
C88 C89 1.383 . S
C89 O83 1.412 . S
C89 C88 1.383 . S
C89 C90 1.394 . S
C90 H80 0.929 . S
C90 C86 1.377 . S
C90 C89 1.394 . S
H91 C98 0.929 . S
H92 C101 0.930 . S
H93 C103 0.929 . S
H94 C95 0.969 . S
C95 H94 0.969 . S
C95 O96 1.550 . S
C95 H97 0.973 . S
O96 C95 1.550 . S
O96 C102 1.412 . S
H97 C95 0.973 . S
C98 H91 0.929 . S
C98 C99 1.400 . S
C98 C100 1.364 . S
C99 C98 1.400 . S
C99 C103 1.377 . S
C100 C98 1.364 . S
C100 C101 1.374 . S
C101 H92 0.930 . S
C101 C100 1.374 . S
C101 C102 1.383 . S
C102 O96 1.412 . S
C102 C101 1.383 . S
C102 C103 1.394 . S
C103 H93 0.929 . S
C103 C99 1.377 . S
C103 C102 1.394 . S
Zn104 O110 1.920 . S
Zn104 O116 1.898 . S
Zn104 O119 1.905 . S
Zn105 O113 1.905 . S
Zn105 O114 1.898 . S
Zn105 O122 1.920 1_455 S
Zn106 O109 2.080 . S
Zn106 O112 2.114 . S
Zn106 O115 2.120 . S
Zn106 O117 2.120 . S
Zn106 O118 2.114 . S
Zn106 O121 2.080 . S
C107 O112 1.166 . S
C107 O113 1.182 . S
C108 O114 1.167 . S
C108 O115 1.299 . S
O109 Zn106 2.080 . S
O109 C123 1.305 . S
O110 Zn104 1.920 . S
O110 C123 1.234 . S
C111 O116 1.167 . S
C111 O117 1.299 . S
O112 Zn106 2.114 . S
O112 C107 1.166 . S
O113 Zn105 1.905 . S
O113 C107 1.182 . S
O114 Zn105 1.898 . S
O114 C108 1.167 . S
O115 Zn106 2.120 . S
O115 C108 1.299 . S
O116 Zn104 1.898 . S
O116 C111 1.167 . S
O117 Zn106 2.120 . S
O117 C111 1.299 . S
O118 Zn106 2.114 . S
O118 C120 1.166 . S
O119 Zn104 1.905 . S
O119 C120 1.182 . S
C120 O118 1.166 . S
C120 O119 1.182 . S
O121 Zn106 2.080 . S
O121 C124 1.305 . S
O122 Zn105 1.920 1_655 S
O122 C124 1.234 1_655 S
C123 O109 1.305 . S
C123 O110 1.234 . S
C124 O121 1.305 . S
C124 O122 1.234 1_455 S
Zn125 O131 1.920 . S
Zn125 O137 1.898 . S
Zn125 O140 1.905 . S
Zn126 O134 1.905 . S
Zn126 O135 1.898 . S
Zn126 O143 1.920 . S
Zn127 O130 2.080 . S
Zn127 O133 2.114 . S
Zn127 O136 2.120 . S
Zn127 O138 2.120 . S
Zn127 O139 2.114 . S
Zn127 O142 2.080 . S
C128 O133 1.166 . S
C128 O134 1.182 . S
C129 O135 1.167 . S
C129 O136 1.299 . S
O130 Zn127 2.080 . S
O130 C144 1.305 . S
O131 Zn125 1.920 . S
O131 C144 1.234 . S
C132 O137 1.167 . S
C132 O138 1.299 . S
O133 Zn127 2.114 . S
O133 C128 1.166 . S
O134 Zn126 1.905 . S
O134 C128 1.182 . S
O135 Zn126 1.898 . S
O135 C129 1.167 . S
O136 Zn127 2.120 . S
O136 C129 1.299 . S
O137 Zn125 1.898 . S
O137 C132 1.167 . S
O138 Zn127 2.120 . S
O138 C132 1.299 . S
O139 Zn127 2.114 . S
O139 C141 1.166 . S
O140 Zn125 1.905 . S
O140 C141 1.182 . S
C141 O139 1.166 . S
C141 O140 1.182 . S
O142 Zn127 2.080 . S
O142 C145 1.305 . S
O143 Zn126 1.920 . S
O143 C145 1.234 . S
C144 O130 1.305 . S
C144 O131 1.234 . S
C145 O142 1.305 . S
C145 O143 1.234 . S
Zn146 O152 1.920 . S
Zn146 O158 1.898 . S
Zn146 O161 1.905 . S
Zn147 O155 1.905 . S
Zn147 O156 1.898 . S
Zn147 O164 1.920 . S
Zn148 O151 2.080 . S
Zn148 O154 2.114 . S
Zn148 O157 2.120 . S
Zn148 O159 2.120 . S
Zn148 O160 2.114 . S
Zn148 O163 2.080 . S
C149 O154 1.166 . S
C149 O155 1.182 . S
C150 O156 1.167 . S
C150 O157 1.299 . S
O151 Zn148 2.080 . S
O151 C165 1.305 . S
O152 Zn146 1.920 . S
O152 C165 1.234 . S
C153 O158 1.167 . S
C153 O159 1.299 . S
O154 Zn148 2.114 . S
O154 C149 1.166 . S
O155 Zn147 1.905 . S
O155 C149 1.182 . S
O156 Zn147 1.898 . S
O156 C150 1.167 . S
O157 Zn148 2.120 . S
O157 C150 1.299 . S
O158 Zn146 1.898 . S
O158 C153 1.167 . S
O159 Zn148 2.120 . S
O159 C153 1.299 . S
O160 Zn148 2.114 . S
O160 C162 1.166 . S
O161 Zn146 1.905 . S
O161 C162 1.182 . S
C162 O160 1.166 . S
C162 O161 1.182 . S
O163 Zn148 2.080 . S
O163 C166 1.305 . S
O164 Zn147 1.920 . S
O164 C166 1.234 . S
C165 O151 1.305 . S
C165 O152 1.234 . S
C166 O163 1.305 . S
C166 O164 1.234 . S
Zn167 O173 1.920 1_655 S
Zn167 O179 1.898 1_655 S
Zn167 O182 1.905 . S
Zn168 O176 1.905 . S
Zn168 O177 1.898 . S
Zn168 O185 1.920 . S
Zn169 O172 2.080 . S
Zn169 O175 2.114 . S
Zn169 O178 2.120 . S
Zn169 O180 2.120 . S
Zn169 O181 2.114 . S
Zn169 O184 2.080 . S
C170 O175 1.166 . S
C170 O176 1.182 . S
C171 O177 1.167 . S
C171 O178 1.299 . S
O172 Zn169 2.080 . S
O172 C186 1.305 . S
O173 Zn167 1.920 1_455 S
O173 C186 1.234 . S
C174 O179 1.167 . S
C174 O180 1.299 . S
O175 Zn169 2.114 . S
O175 C170 1.166 . S
O176 Zn168 1.905 . S
O176 C170 1.182 . S
O177 Zn168 1.898 . S
O177 C171 1.167 . S
O178 Zn169 2.120 . S
O178 C171 1.299 . S
O179 Zn167 1.898 1_455 S
O179 C174 1.167 . S
O180 Zn169 2.120 . S
O180 C174 1.299 . S
O181 Zn169 2.114 . S
O181 C183 1.166 1_455 S
O182 Zn167 1.905 . S
O182 C183 1.182 . S
C183 O181 1.166 1_655 S
C183 O182 1.182 . S
O184 Zn169 2.080 . S
O184 C187 1.305 . S
O185 Zn168 1.920 . S
O185 C187 1.234 . S
C186 O172 1.305 . S
C186 O173 1.234 . S
C187 O184 1.305 . S
C187 O185 1.234 . S
C188 C189 1.363 . S
C188 C194 1.379 . S
C188 N196 1.356 . S
C189 C188 1.363 . S
C189 C195 1.363 . S
C190 C191 1.363 . S
C190 C195 1.379 . S
C190 N197 1.356 . S
C191 C190 1.363 . S
C191 C194 1.363 . S
N192 C194 1.356 . S
N192 H204 0.984 . S
N192 H205 0.985 . S
N193 C195 1.356 . S
N193 H198 0.984 . S
N193 H199 0.985 . S
C194 C188 1.379 . S
C194 C191 1.363 . S
C194 N192 1.356 . S
C195 C189 1.363 . S
C195 C190 1.379 . S
C195 N193 1.356 . S
N196 C188 1.356 . S
N196 H202 0.984 . S
N196 H203 0.984 . S
N197 C190 1.356 . S
N197 H200 0.984 . S
N197 H201 0.985 . S
H198 N193 0.984 . S
H199 N193 0.985 . S
H200 N197 0.984 . S
H201 N197 0.985 . S
H202 N196 0.984 . S
H203 N196 0.984 . S
H204 N192 0.984 . S
H205 N192 0.985 . S
C206 C207 1.363 . S
C206 C212 1.379 . S
C206 N214 1.356 . S
C207 C206 1.363 . S
C207 C213 1.363 . S
C208 C209 1.363 . S
C208 C213 1.379 . S
C208 N215 1.356 . S
C209 C208 1.363 . S
C209 C212 1.363 . S
N210 C212 1.356 . S
N210 H222 0.984 . S
N210 H223 0.985 . S
N211 C213 1.356 . S
N211 H216 0.984 . S
N211 H217 0.985 . S
C212 C206 1.379 . S
C212 C209 1.363 . S
C212 N210 1.356 . S
C213 C207 1.363 . S
C213 C208 1.379 . S
C213 N211 1.356 . S
N214 C206 1.356 . S
N214 H220 0.984 . S
N214 H221 0.980 1_655 S
N215 C208 1.356 . S
N215 H218 0.984 . S
N215 H219 0.985 . S
H216 N211 0.984 . S
H217 N211 0.985 . S
H218 N215 0.984 . S
H219 N215 0.985 . S
H220 N214 0.984 . S
H221 N214 0.980 1_455 S
H222 N210 0.984 . S
H223 N210 0.985 . S
C224 C225 1.363 . S
C224 C230 1.379 . S
C224 N232 1.356 . S
C225 C224 1.363 . S
C225 C231 1.363 . S
C226 C227 1.363 . S
C226 C231 1.379 . S
C226 N233 1.356 . S
C227 C226 1.363 . S
C227 C230 1.363 . S
N228 C230 1.356 . S
N228 H240 0.984 . S
N228 H241 0.985 . S
N229 C231 1.356 . S
N229 H234 0.984 . S
N229 H235 0.985 . S
C230 C224 1.379 . S
C230 C227 1.363 . S
C230 N228 1.356 . S
C231 C225 1.363 . S
C231 C226 1.379 . S
C231 N229 1.356 . S
N232 C224 1.356 . S
N232 H238 0.984 . S
N232 H239 0.984 . S
N233 C226 1.356 . S
N233 H236 0.984 . S
N233 H237 0.985 . S
H234 N229 0.984 . S
H235 N229 0.985 . S
H236 N233 0.984 . S
H237 N233 0.985 . S
H238 N232 0.984 . S
H239 N232 0.984 . S
H240 N228 0.984 . S
H241 N228 0.985 . S
C242 C243 1.363 . S
C242 C248 1.379 . S
C242 N250 1.356 . S
C243 C242 1.363 . S
C243 C249 1.363 . S
C244 C245 1.363 . S
C244 C249 1.379 . S
C244 N251 1.356 . S
C245 C244 1.363 . S
C245 C248 1.363 . S
N246 C248 1.356 . S
N246 H258 0.984 . S
N246 H259 0.985 . S
N247 C249 1.356 . S
N247 H252 0.984 . S
N247 H253 0.985 . S
C248 C242 1.379 . S
C248 C245 1.363 . S
C248 N246 1.356 . S
C249 C243 1.363 . S
C249 C244 1.379 . S
C249 N247 1.356 . S
N250 C242 1.356 . S
N250 H256 0.984 . S
N250 H257 0.984 . S
N251 C244 1.356 . S
N251 H254 0.984 . S
N251 H255 0.985 . S
H252 N247 0.984 . S
H253 N247 0.985 . S
H254 N251 0.984 . S
H255 N251 0.985 . S
H256 N250 0.984 . S
H257 N250 0.984 . S
H258 N246 0.984 . S
H259 N246 0.985 . S
C260 C261 1.363 1_655 S
C260 C266 1.379 1_655 S
C260 N268 1.356 . S
C261 C260 1.363 1_455 S
C261 C267 1.363 . S
C262 C263 1.363 . S
C262 C267 1.379 . S
C262 N269 1.356 . S
C263 C262 1.363 . S
C263 C266 1.363 . S
N264 C266 1.356 1_655 S
N264 H276 0.984 . S
N264 H277 0.983 1_655 S
N265 C267 1.356 . S
N265 H270 0.984 . S
N265 H271 0.985 . S
C266 C260 1.379 1_455 S
C266 C263 1.363 . S
C266 N264 1.356 1_455 S
C267 C261 1.363 . S
C267 C262 1.379 . S
C267 N265 1.356 . S
N268 C260 1.356 . S
N268 H274 0.984 . S
N268 H275 0.984 . S
N269 C262 1.356 . S
N269 H272 0.984 . S
N269 H273 0.985 . S
H270 N265 0.984 . S
H271 N265 0.985 . S
H272 N269 0.984 . S
H273 N269 0.985 . S
H274 N268 0.984 . S
H275 N268 0.984 . S
H276 N264 0.984 . S
H277 N264 0.983 1_455 S
C278 C279 1.363 . S
C278 C284 1.379 . S
C278 N286 1.356 . S
C279 C278 1.363 . S
C279 C285 1.363 . S
C280 C281 1.363 . S
C280 C285 1.379 . S
C280 N287 1.356 . S
C281 C280 1.363 . S
C281 C284 1.363 . S
N282 C284 1.356 . S
N282 H294 0.984 . S
N282 H295 0.985 . S
N283 C285 1.356 . S
N283 H288 0.984 . S
N283 H289 0.985 . S
C284 C278 1.379 . S
C284 C281 1.363 . S
C284 N282 1.356 . S
C285 C279 1.363 . S
C285 C280 1.379 . S
C285 N283 1.356 . S
N286 C278 1.356 . S
N286 H292 0.984 . S
N286 H293 0.984 . S
N287 C280 1.356 . S
N287 H290 0.984 1_655 S
N287 H291 0.985 . S
H288 N283 0.984 . S
H289 N283 0.985 . S
H290 N287 0.984 1_455 S
H291 N287 0.985 . S
H292 N286 0.984 . S
H293 N286 0.984 . S
H294 N282 0.984 . S
H295 N282 0.985 . S
C296 C297 1.363 . S
C296 C302 1.379 . S
C296 N304 1.356 . S
C297 C296 1.363 . S
C297 C303 1.363 . S
C298 C299 1.363 . S
C298 C303 1.379 . S
C298 N305 1.356 . S
C299 C298 1.363 . S
C299 C302 1.363 . S
N300 C302 1.356 . S
N300 H312 0.984 . S
N300 H313 0.985 . S
N301 C303 1.356 . S
N301 H306 0.984 . S
N301 H307 0.985 . S
C302 C296 1.379 . S
C302 C299 1.363 . S
C302 N300 1.356 . S
C303 C297 1.363 . S
C303 C298 1.379 . S
C303 N301 1.356 . S
N304 C296 1.356 . S
N304 H310 0.984 . S
N304 H311 0.984 . S
N305 C298 1.356 . S
N305 H308 0.984 . S
N305 H309 0.985 . S
H306 N301 0.984 . S
H307 N301 0.985 . S
H308 N305 0.984 . S
H309 N305 0.985 . S
H310 N304 0.984 . S
H311 N304 0.984 . S
H312 N300 0.984 . S
H313 N300 0.985 . S
C314 C315 1.363 . S
C314 C320 1.379 . S
C314 N322 1.356 1_655 S
C315 C314 1.363 . S
C315 C321 1.363 . S
C316 C317 1.363 . S
C316 C321 1.379 . S
C316 N323 1.356 . S
C317 C316 1.363 . S
C317 C320 1.363 . S
N318 C320 1.356 . S
N318 H330 0.984 . S
N318 H331 0.985 . S
N319 C321 1.356 1_455 S
N319 H324 0.984 . S
N319 H325 0.985 1_455 S
C320 C314 1.379 . S
C320 C317 1.363 . S
C320 N318 1.356 . S
C321 C315 1.363 . S
C321 C316 1.379 . S
C321 N319 1.356 1_655 S
N322 C314 1.356 1_455 S
N322 H328 0.984 . S
N322 H329 0.984 . S
N323 C316 1.356 . S
N323 H326 0.984 . S
N323 H327 0.985 . S
H324 N319 0.984 . S
H325 N319 0.985 1_655 S
H326 N323 0.984 . S
H327 N323 0.985 . S
H328 N322 0.984 . S
H329 N322 0.984 . S
H330 N318 0.984 . S
H331 N318 0.985 . S
C332 C333 1.363 . S
C332 C338 1.379 . S
C332 N340 1.356 . S
C333 C332 1.363 . S
C333 C339 1.363 . S
C334 C335 1.363 . S
C334 C339 1.379 . S
C334 N341 1.356 . S
C335 C334 1.363 . S
C335 C338 1.363 . S
N336 C338 1.356 . S
N336 H348 0.984 . S
N336 H349 0.985 . S
N337 C339 1.356 . S
N337 H342 0.984 . S
N337 H343 0.985 . S
C338 C332 1.379 . S
C338 C335 1.363 . S
C338 N336 1.356 . S
C339 C333 1.363 . S
C339 C334 1.379 . S
C339 N337 1.356 . S
N340 C332 1.356 . S
N340 H346 0.984 . S
N340 H347 0.984 . S
N341 C334 1.356 . S
N341 H344 0.984 . S
N341 H345 0.985 . S
H342 N337 0.984 . S
H343 N337 0.985 . S
H344 N341 0.984 . S
H345 N341 0.985 . S
H346 N340 0.984 . S
H347 N340 0.984 . S
H348 N336 0.984 . S
H349 N336 0.985 . S
C350 C351 1.363 . S
C350 C356 1.379 . S
C350 N358 1.356 . S
C351 C350 1.363 . S
C351 C357 1.363 . S
C352 C353 1.363 . S
C352 C357 1.379 . S
C352 N359 1.356 . S
C353 C352 1.363 . S
C353 C356 1.363 . S
N354 C356 1.356 . S
N354 H366 0.984 . S
N354 H367 0.985 . S
N355 C357 1.356 . S
N355 H360 0.984 . S
N355 H361 0.985 . S
C356 C350 1.379 . S
C356 C353 1.363 . S
C356 N354 1.356 . S
C357 C351 1.363 . S
C357 C352 1.379 . S
C357 N355 1.356 . S
N358 C350 1.356 . S
N358 H364 0.984 . S
N358 H365 0.984 . S
N359 C352 1.356 . S
N359 H362 0.984 . S
N359 H363 0.985 . S
H360 N355 0.984 . S
H361 N355 0.985 . S
H362 N359 0.984 . S
H363 N359 0.985 . S
H364 N358 0.984 . S
H365 N358 0.984 . S
H366 N354 0.984 . S
H367 N354 0.985 . S
C368 C369 1.363 . S
C368 C374 1.379 . S
C368 N376 1.356 . S
C369 C368 1.363 . S
C369 C375 1.363 . S
C370 C371 1.363 . S
C370 C375 1.379 . S
C370 N377 1.356 . S
C371 C370 1.363 . S
C371 C374 1.363 . S
N372 C374 1.356 . S
N372 H384 0.984 . S
N372 H385 0.985 . S
N373 C375 1.356 . S
N373 H378 0.984 . S
N373 H379 0.985 . S
C374 C368 1.379 . S
C374 C371 1.363 . S
C374 N372 1.356 . S
C375 C369 1.363 . S
C375 C370 1.379 . S
C375 N373 1.356 . S
N376 C368 1.356 . S
N376 H382 0.984 . S
N376 H383 0.984 . S
N377 C370 1.356 . S
N377 H380 0.984 . S
N377 H381 0.985 . S
H378 N373 0.984 . S
H379 N373 0.985 . S
H380 N377 0.984 . S
H381 N377 0.985 . S
H382 N376 0.984 . S
H383 N376 0.984 . S
H384 N372 0.984 . S
H385 N372 0.985 . S
C386 C387 1.363 . S
C386 C392 1.379 . S
C386 N394 1.356 . S
C387 C386 1.363 . S
C387 C393 1.363 . S
C388 C389 1.363 . S
C388 C393 1.379 . S
C388 N395 1.356 . S
C389 C388 1.363 . S
C389 C392 1.363 . S
N390 C392 1.356 . S
N390 H402 0.984 . S
N390 H403 0.985 . S
N391 C393 1.356 . S
N391 H396 0.984 . S
N391 H397 0.985 . S
C392 C386 1.379 . S
C392 C389 1.363 . S
C392 N390 1.356 . S
C393 C387 1.363 . S
C393 C388 1.379 . S
C393 N391 1.356 . S
N394 C386 1.356 . S
N394 H400 0.984 . S
N394 H401 0.984 . S
N395 C388 1.356 . S
N395 H398 0.984 . S
N395 H399 0.985 . S
H396 N391 0.984 . S
H397 N391 0.985 . S
H398 N395 0.984 . S
H399 N395 0.985 . S
H400 N394 0.984 . S
H401 N394 0.984 . S
H402 N390 0.984 . S
H403 N390 0.985 . S
C404 C405 1.363 . S
C404 C410 1.379 1_565 S
C404 N412 1.356 . S
C405 C404 1.363 . S
C405 C411 1.363 . S
C406 C407 1.363 . S
C406 C411 1.379 1_545 S
C406 N413 1.356 . S
C407 C406 1.363 . S
C407 C410 1.363 . S
N408 C410 1.356 . S
N408 H420 0.984 . S
N408 H421 0.985 . S
N409 C411 1.356 . S
N409 H414 0.984 . S
N409 H415 0.985 . S
C410 C404 1.379 1_545 S
C410 C407 1.363 . S
C410 N408 1.356 . S
C411 C405 1.363 . S
C411 C406 1.379 1_565 S
C411 N409 1.356 . S
N412 C404 1.356 . S
N412 H418 0.984 . S
N412 H419 0.984 . S
N413 C406 1.356 . S
N413 H416 0.984 . S
N413 H417 0.985 . S
H414 N409 0.984 . S
H415 N409 0.985 . S
H416 N413 0.984 . S
H417 N413 0.985 . S
H418 N412 0.984 . S
H419 N412 0.984 . S
H420 N408 0.984 . S
H421 N408 0.985 . S
C422 C423 1.363 . S
C422 C428 1.379 1_545 S
C422 N430 1.356 . S
C423 C422 1.363 . S
C423 C429 1.363 . S
C424 C425 1.363 1_545 S
C424 C429 1.379 . S
C424 N431 1.356 1_545 S
C425 C424 1.363 1_565 S
C425 C428 1.363 . S
N426 C428 1.356 . S
N426 H438 0.984 . S
N426 H439 0.985 . S
N427 C429 1.356 . S
N427 H432 0.984 . S
N427 H433 0.985 . S
C428 C422 1.379 1_565 S
C428 C425 1.363 . S
C428 N426 1.356 . S
C429 C423 1.363 . S
C429 C424 1.379 . S
C429 N427 1.356 . S
N430 C422 1.356 . S
N430 H436 0.984 . S
N430 H437 0.984 . S
N431 C424 1.356 1_565 S
N431 H434 0.984 . S
N431 H435 0.981 1_565 S
H432 N427 0.984 . S
H433 N427 0.985 . S
H434 N431 0.984 . S
H435 N431 0.981 1_545 S
H436 N430 0.984 . S
H437 N430 0.984 . S
H438 N426 0.984 . S
H439 N426 0.985 . S
C440 C441 1.362 . S
C440 C446 1.380 1_545 S
C440 N448 1.355 . S
C441 C440 1.362 . S
C441 C447 1.363 . S
C442 C443 1.363 . S
C442 C447 1.379 1_565 S
C442 N449 1.356 . S
C443 C442 1.363 . S
C443 C446 1.363 . S
N444 C446 1.356 . S
N444 H456 0.984 . S
N444 H457 0.985 . S
N445 C447 1.356 . S
N445 H450 0.984 . S
N445 H451 0.985 . S
C446 C440 1.380 1_565 S
C446 C443 1.363 . S
C446 N444 1.356 . S
C447 C441 1.363 . S
C447 C442 1.379 1_545 S
C447 N445 1.356 . S
N448 C440 1.355 . S
N448 H454 0.984 . S
N448 H455 0.984 . S
N449 C442 1.356 . S
N449 H452 0.984 . S
N449 H453 0.985 . S
H450 N445 0.984 . S
H451 N445 0.985 . S
H452 N449 0.984 . S
H453 N449 0.985 . S
H454 N448 0.984 . S
H455 N448 0.984 . S
H456 N444 0.984 . S
H457 N444 0.985 . S
C458 C459 1.363 . S
C458 C464 1.379 . S
C458 N466 1.356 . S
C459 C458 1.363 . S
C459 C465 1.363 . S
C460 C461 1.363 1_565 S
C460 C465 1.379 . S
C460 N467 1.356 1_565 S
C461 C460 1.363 1_545 S
C461 C464 1.363 1_545 S
N462 C464 1.356 1_545 S
N462 H474 0.984 1_545 S
N462 H475 0.985 . S
N463 C465 1.363 . S
N463 H468 0.984 1_455 S
N463 H469 0.979 1_455 S
C464 C458 1.379 . S
C464 C461 1.363 1_565 S
C464 N462 1.356 1_565 S
C465 C459 1.363 . S
C465 C460 1.379 . S
C465 N463 1.363 . S
N466 C458 1.356 . S
N466 H472 0.984 . S
N466 H473 0.984 . S
N467 C460 1.356 1_545 S
N467 H470 0.984 . S
N467 H471 0.985 . S
H468 N463 0.984 1_655 S
H469 N463 0.979 1_655 S
H470 N467 0.984 . S
H471 N467 0.985 . S
H472 N466 0.984 . S
H473 N466 0.984 . S
H474 N462 0.984 1_565 S
H475 N462 0.985 . S
C476 C477 1.363 . S
C476 C482 1.379 1_554 S
C476 N484 1.356 . S
C477 C476 1.363 . S
C477 C483 1.363 1_554 S
C478 C479 1.363 . S
C478 C483 1.379 . S
C478 N485 1.356 . S
C479 C478 1.363 . S
C479 C482 1.363 . S
N480 C482 1.356 . S
N480 H492 0.984 . S
N480 H493 0.985 . S
N481 C483 1.356 1_554 S
N481 H486 0.984 . S
N481 H487 0.985 . S
C482 C476 1.379 1_556 S
C482 C479 1.363 . S
C482 N480 1.356 . S
C483 C477 1.363 1_556 S
C483 C478 1.379 . S
C483 N481 1.356 1_556 S
N484 C476 1.356 . S
N484 H490 0.984 . S
N484 H491 0.984 . S
N485 C478 1.356 . S
N485 H488 0.984 . S
N485 H489 0.985 . S
H486 N481 0.984 . S
H487 N481 0.985 . S
H488 N485 0.984 . S
H489 N485 0.985 . S
H490 N484 0.984 . S
H491 N484 0.984 . S
H492 N480 0.984 . S
H493 N480 0.985 . S
C494 C495 1.363 . S
C494 C500 1.379 . S
C494 N502 1.356 . S
C495 C494 1.363 . S
C495 C501 1.363 . S
C496 C497 1.363 . S
C496 C501 1.379 . S
C496 N503 1.356 . S
C497 C496 1.363 . S
C497 C500 1.363 . S
N498 C500 1.356 . S
N498 H510 0.984 . S
N498 H511 0.985 . S
N499 C501 1.356 . S
N499 H504 0.984 . S
N499 H505 0.985 . S
C500 C494 1.379 . S
C500 C497 1.363 . S
C500 N498 1.356 . S
C501 C495 1.363 . S
C501 C496 1.379 . S
C501 N499 1.356 . S
N502 C494 1.356 . S
N502 H508 0.984 . S
N502 H509 0.984 . S
N503 C496 1.356 . S
N503 H506 0.984 . S
N503 H507 0.985 . S
H504 N499 0.984 . S
H505 N499 0.985 . S
H506 N503 0.984 . S
H507 N503 0.985 . S
H508 N502 0.984 . S
H509 N502 0.984 . S
H510 N498 0.984 . S
H511 N498 0.985 . S
C512 C513 1.363 . S
C512 C518 1.379 . S
C512 N520 1.356 . S
C513 C512 1.363 . S
C513 C519 1.363 . S
C514 C515 1.363 . S
C514 C519 1.379 . S
C514 N521 1.356 . S
C515 C514 1.363 . S
C515 C518 1.363 . S
N516 C518 1.356 . S
N516 H528 0.984 . S
N516 H529 0.985 . S
N517 C519 1.356 . S
N517 H522 0.984 . S
N517 H523 0.985 . S
C518 C512 1.379 . S
C518 C515 1.363 . S
C518 N516 1.356 . S
C519 C513 1.363 . S
C519 C514 1.379 . S
C519 N517 1.356 . S
N520 C512 1.356 . S
N520 H526 0.984 . S
N520 H527 0.984 . S
N521 C514 1.356 . S
N521 H524 0.984 . S
N521 H525 0.985 . S
H522 N517 0.984 . S
H523 N517 0.985 . S
H524 N521 0.984 . S
H525 N521 0.985 . S
H526 N520 0.984 . S
H527 N520 0.984 . S
H528 N516 0.984 . S
H529 N516 0.985 . S
C530 C531 1.363 . S
C530 C536 1.379 . S
C530 N538 1.356 . S
C531 C530 1.363 . S
C531 C537 1.363 . S
C532 C533 1.363 . S
C532 C537 1.379 . S
C532 N539 1.356 . S
C533 C532 1.363 . S
C533 C536 1.363 . S
N534 C536 1.356 . S
N534 H546 0.984 . S
N534 H547 0.985 . S
N535 C537 1.356 . S
N535 H540 0.984 . S
N535 H541 0.985 . S
C536 C530 1.379 . S
C536 C533 1.363 . S
C536 N534 1.356 . S
C537 C531 1.363 . S
C537 C532 1.379 . S
C537 N535 1.356 . S
N538 C530 1.356 . S
N538 H544 0.984 . S
N538 H545 0.984 . S
N539 C532 1.356 . S
N539 H542 0.984 . S
N539 H543 0.985 . S
H540 N535 0.984 . S
H541 N535 0.985 . S
H542 N539 0.984 . S
H543 N539 0.985 . S
H544 N538 0.984 . S
H545 N538 0.984 . S
H546 N534 0.984 . S
H547 N534 0.985 . S
C548 C549 1.363 . S
C548 C554 1.379 1_556 S
C548 N556 1.356 . S
C549 C548 1.363 . S
C549 C555 1.363 1_556 S
C550 C551 1.363 . S
C550 C555 1.379 . S
C550 N557 1.356 . S
C551 C550 1.363 . S
C551 C554 1.363 . S
N552 C554 1.356 . S
N552 H564 0.984 . S
N552 H565 0.985 . S
N553 C555 1.356 1_556 S
N553 H558 0.984 1_455 S
N553 H559 0.985 1_455 S
C554 C548 1.379 1_554 S
C554 C551 1.363 . S
C554 N552 1.356 . S
C555 C549 1.363 1_554 S
C555 C550 1.379 . S
C555 N553 1.356 1_554 S
N556 C548 1.356 . S
N556 H562 0.984 . S
N556 H563 0.984 . S
N557 C550 1.356 . S
N557 H560 0.984 . S
N557 H561 0.985 . S
H558 N553 0.984 1_655 S
H559 N553 0.985 1_655 S
H560 N557 0.984 . S
H561 N557 0.985 . S
H562 N556 0.984 . S
H563 N556 0.984 . S
H564 N552 0.984 . S
H565 N552 0.985 . S
C566 C567 1.363 . S
C566 C572 1.379 . S
C566 N574 1.356 . S
C567 C566 1.363 . S
C567 C573 1.363 . S
C568 C569 1.363 . S
C568 C573 1.379 . S
C568 N575 1.356 . S
C569 C568 1.363 . S
C569 C572 1.363 . S
N570 C572 1.356 . S
N570 H582 0.984 . S
N570 H583 0.985 . S
N571 C573 1.356 . S
N571 H576 0.984 . S
N571 H577 0.985 . S
C572 C566 1.379 . S
C572 C569 1.363 . S
C572 N570 1.356 . S
C573 C567 1.363 . S
C573 C568 1.379 . S
C573 N571 1.356 . S
N574 C566 1.356 . S
N574 H580 0.984 . S
N574 H581 0.984 . S
N575 C568 1.356 . S
N575 H578 0.984 . S
N575 H579 0.985 . S
H576 N571 0.984 . S
H577 N571 0.985 . S
H578 N575 0.984 . S
H579 N575 0.985 . S
H580 N574 0.984 . S
H581 N574 0.984 . S
H582 N570 0.984 . S
H583 N570 0.985 . S
C584 C585 1.363 . S
C584 C590 1.379 . S
C584 N592 1.356 . S
C585 C584 1.363 . S
C585 C591 1.363 . S
C586 C587 1.363 . S
C586 C591 1.379 . S
C586 N593 1.356 . S
C587 C586 1.363 . S
C587 C590 1.363 . S
N588 C590 1.356 . S
N588 H600 0.984 . S
N588 H601 0.985 . S
N589 C591 1.356 . S
N589 H594 0.984 . S
N589 H595 0.985 . S
C590 C584 1.379 . S
C590 C587 1.363 . S
C590 N588 1.356 . S
C591 C585 1.363 . S
C591 C586 1.379 . S
C591 N589 1.356 . S
N592 C584 1.356 . S
N592 H598 0.984 . S
N592 H599 0.984 . S
N593 C586 1.356 . S
N593 H596 0.984 . S
N593 H597 0.985 . S
H594 N589 0.984 . S
H595 N589 0.985 . S
H596 N593 0.984 . S
H597 N593 0.985 . S
H598 N592 0.984 . S
H599 N592 0.984 . S
H600 N588 0.984 . S
H601 N588 0.985 . S
C602 C603 1.363 . S
C602 C608 1.379 . S
C602 N610 1.356 . S
C603 C602 1.363 . S
C603 C609 1.363 . S
C604 C605 1.363 . S
C604 C609 1.379 . S
C604 N611 1.356 . S
C605 C604 1.363 . S
C605 C608 1.363 . S
N606 C608 1.356 . S
N606 H618 0.984 . S
N606 H619 0.985 . S
N607 C609 1.356 . S
N607 H612 0.984 . S
N607 H613 0.985 . S
C608 C602 1.379 . S
C608 C605 1.363 . S
C608 N606 1.356 . S
C609 C603 1.363 . S
C609 C604 1.379 . S
C609 N607 1.356 . S
N610 C602 1.356 . S
N610 H616 0.984 . S
N610 H617 0.984 . S
N611 C604 1.356 . S
N611 H614 0.984 . S
N611 H615 0.985 . S
H612 N607 0.984 . S
H613 N607 0.985 . S
H614 N611 0.984 . S
H615 N611 0.985 . S
H616 N610 0.984 . S
H617 N610 0.984 . S
H618 N606 0.984 . S
H619 N606 0.985 . S
C191 C111 1.464 . S
C189 C4 1.464 . S
C209 C129 1.378 . S
C207 C17 1.381 . S
C225 C34 1.381 . S
C227 C153 1.290 . S
C245 C183 1.312 . S
C243 C47 1.443 . S
C263 C171 1.341 . S
C261 C56 1.388 . S
C279 C69 1.408 . S
C281 C124 1.413 1_655 S
C297 C86 1.543 . S
C299 C144 1.412 . S
C315 C99 1.442 1_655 S
C317 C149 1.289 . S
C333 C95 1.399 . S
C335 C165 1.404 . S
C351 C73 1.448 . S
C353 C120 1.287 . S
C371 C187 1.396 . S
C369 C43 1.393 . S
C389 C132 1.303 . S
C387 C21 1.440 . S
C405 C30 1.457 . S
C407 C150 1.459 . S
C423 C8 1.387 . S
C425 C108 1.295 . S
C443 C128 1.350 . S
C441 C82 1.390 . S
C461 C174 1.404 . S
C459 C60 1.543 . S
C479 C170 1.328 . S
C477 C9 1.579 . S
C497 C123 1.431 . S
C495 C22 1.484 . S
C513 C35 1.569 . S
C515 C145 1.310 . S
C531 C48 1.502 . S
C533 C166 1.444 . S
C551 C107 1.369 . S
C549 C61 1.525 . S
C567 C74 1.575 . S
C569 C141 1.531 . S
C587 C162 1.384 . S
C585 C87 1.542 . S
C605 C186 1.509 . S
C603 C100 1.554 . S
